# Generated by pormake.
# Topology wmt, (6)-cn, num edge types: 1
# Building blocks:
#     Node 0, Type 0, BuildingBlock: CUWYAW_clean_sbu_0, # of connection points: 6
#     Node 1, Type 0, BuildingBlock: CUWYAW_clean_sbu_0, # of connection points: 6
#     Node 2, Type 0, BuildingBlock: CUWYAW_clean_sbu_0, # of connection points: 6
#     Node 3, Type 0, BuildingBlock: CUWYAW_clean_sbu_0, # of connection points: 6
#     Node 4, Type 0, BuildingBlock: CUWYAW_clean_sbu_0, # of connection points: 6
#     Node 5, Type 0, BuildingBlock: CUWYAW_clean_sbu_0, # of connection points: 6
#     Node 6, Type 0, BuildingBlock: CUWYAW_clean_sbu_0, # of connection points: 6
#     Node 7, Type 0, BuildingBlock: CUWYAW_clean_sbu_0, # of connection points: 6
#     Node 8, Type 0, BuildingBlock: CUWYAW_clean_sbu_0, # of connection points: 6
#     Node 9, Type 0, BuildingBlock: CUWYAW_clean_sbu_0, # of connection points: 6
#     Node 10, Type 0, BuildingBlock: CUWYAW_clean_sbu_0, # of connection points: 6
#     Node 11, Type 0, BuildingBlock: CUWYAW_clean_sbu_0, # of connection points: 6
#     Node 12, Type 0, BuildingBlock: CUWYAW_clean_sbu_0, # of connection points: 6
#     Node 13, Type 0, BuildingBlock: CUWYAW_clean_sbu_0, # of connection points: 6
#     Node 14, Type 0, BuildingBlock: CUWYAW_clean_sbu_0, # of connection points: 6
#     Node 15, Type 0, BuildingBlock: CUWYAW_clean_sbu_0, # of connection points: 6
#     Node 16, Type 0, BuildingBlock: CUWYAW_clean_sbu_0, # of connection points: 6
#     Node 17, Type 0, BuildingBlock: CUWYAW_clean_sbu_0, # of connection points: 6
#     Node 18, Type 0, BuildingBlock: CUWYAW_clean_sbu_0, # of connection points: 6
#     Node 19, Type 0, BuildingBlock: CUWYAW_clean_sbu_0, # of connection points: 6
#     Node 20, Type 0, BuildingBlock: CUWYAW_clean_sbu_0, # of connection points: 6
#     Node 21, Type 0, BuildingBlock: CUWYAW_clean_sbu_0, # of connection points: 6
#     Node 22, Type 0, BuildingBlock: CUWYAW_clean_sbu_0, # of connection points: 6
#     Node 23, Type 0, BuildingBlock: CUWYAW_clean_sbu_0, # of connection points: 6
#     Node 24, Type 0, BuildingBlock: CUWYAW_clean_sbu_0, # of connection points: 6
#     Node 25, Type 0, BuildingBlock: CUWYAW_clean_sbu_0, # of connection points: 6
#     Node 26, Type 0, BuildingBlock: CUWYAW_clean_sbu_0, # of connection points: 6
#     Node 27, Type 0, BuildingBlock: CUWYAW_clean_sbu_0, # of connection points: 6
#     Node 28, Type 0, BuildingBlock: CUWYAW_clean_sbu_0, # of connection points: 6
#     Node 29, Type 0, BuildingBlock: CUWYAW_clean_sbu_0, # of connection points: 6
#     Node 30, Type 0, BuildingBlock: CUWYAW_clean_sbu_0, # of connection points: 6
#     Node 31, Type 0, BuildingBlock: CUWYAW_clean_sbu_0, # of connection points: 6
#     Node 32, Type 0, BuildingBlock: CUWYAW_clean_sbu_0, # of connection points: 6
#     Node 33, Type 0, BuildingBlock: CUWYAW_clean_sbu_0, # of connection points: 6
#     Node 34, Type 0, BuildingBlock: CUWYAW_clean_sbu_0, # of connection points: 6
#     Node 35, Type 0, BuildingBlock: CUWYAW_clean_sbu_0, # of connection points: 6
#     Edge 36, Type (0, 0), BuildingBlock: OJICUG_clean_linker_0, # of connection points: 2
#     Edge 37, Type (0, 0), BuildingBlock: OJICUG_clean_linker_0, # of connection points: 2
#     Edge 38, Type (0, 0), BuildingBlock: OJICUG_clean_linker_0, # of connection points: 2
#     Edge 39, Type (0, 0), BuildingBlock: OJICUG_clean_linker_0, # of connection points: 2
#     Edge 40, Type (0, 0), BuildingBlock: OJICUG_clean_linker_0, # of connection points: 2
#     Edge 41, Type (0, 0), BuildingBlock: OJICUG_clean_linker_0, # of connection points: 2
#     Edge 42, Type (0, 0), BuildingBlock: OJICUG_clean_linker_0, # of connection points: 2
#     Edge 43, Type (0, 0), BuildingBlock: OJICUG_clean_linker_0, # of connection points: 2
#     Edge 44, Type (0, 0), BuildingBlock: OJICUG_clean_linker_0, # of connection points: 2
#     Edge 45, Type (0, 0), BuildingBlock: OJICUG_clean_linker_0, # of connection points: 2
#     Edge 46, Type (0, 0), BuildingBlock: OJICUG_clean_linker_0, # of connection points: 2
#     Edge 47, Type (0, 0), BuildingBlock: OJICUG_clean_linker_0, # of connection points: 2
#     Edge 48, Type (0, 0), BuildingBlock: OJICUG_clean_linker_0, # of connection points: 2
#     Edge 49, Type (0, 0), BuildingBlock: OJICUG_clean_linker_0, # of connection points: 2
#     Edge 50, Type (0, 0), BuildingBlock: OJICUG_clean_linker_0, # of connection points: 2
#     Edge 51, Type (0, 0), BuildingBlock: OJICUG_clean_linker_0, # of connection points: 2
#     Edge 52, Type (0, 0), BuildingBlock: OJICUG_clean_linker_0, # of connection points: 2
#     Edge 53, Type (0, 0), BuildingBlock: OJICUG_clean_linker_0, # of connection points: 2
#     Edge 54, Type (0, 0), BuildingBlock: OJICUG_clean_linker_0, # of connection points: 2
#     Edge 55, Type (0, 0), BuildingBlock: OJICUG_clean_linker_0, # of connection points: 2
#     Edge 56, Type (0, 0), BuildingBlock: OJICUG_clean_linker_0, # of connection points: 2
#     Edge 57, Type (0, 0), BuildingBlock: OJICUG_clean_linker_0, # of connection points: 2
#     Edge 58, Type (0, 0), BuildingBlock: OJICUG_clean_linker_0, # of connection points: 2
#     Edge 59, Type (0, 0), BuildingBlock: OJICUG_clean_linker_0, # of connection points: 2
#     Edge 60, Type (0, 0), BuildingBlock: OJICUG_clean_linker_0, # of connection points: 2
#     Edge 61, Type (0, 0), BuildingBlock: OJICUG_clean_linker_0, # of connection points: 2
#     Edge 62, Type (0, 0), BuildingBlock: OJICUG_clean_linker_0, # of connection points: 2
#     Edge 63, Type (0, 0), BuildingBlock: OJICUG_clean_linker_0, # of connection points: 2
#     Edge 64, Type (0, 0), BuildingBlock: OJICUG_clean_linker_0, # of connection points: 2
#     Edge 65, Type (0, 0), BuildingBlock: OJICUG_clean_linker_0, # of connection points: 2
#     Edge 66, Type (0, 0), BuildingBlock: OJICUG_clean_linker_0, # of connection points: 2
#     Edge 67, Type (0, 0), BuildingBlock: OJICUG_clean_linker_0, # of connection points: 2
#     Edge 68, Type (0, 0), BuildingBlock: OJICUG_clean_linker_0, # of connection points: 2
#     Edge 69, Type (0, 0), BuildingBlock: OJICUG_clean_linker_0, # of connection points: 2
#     Edge 70, Type (0, 0), BuildingBlock: OJICUG_clean_linker_0, # of connection points: 2
#     Edge 71, Type (0, 0), BuildingBlock: OJICUG_clean_linker_0, # of connection points: 2
#     Edge 72, Type (0, 0), BuildingBlock: OJICUG_clean_linker_0, # of connection points: 2
#     Edge 73, Type (0, 0), BuildingBlock: OJICUG_clean_linker_0, # of connection points: 2
#     Edge 74, Type (0, 0), BuildingBlock: OJICUG_clean_linker_0, # of connection points: 2
#     Edge 75, Type (0, 0), BuildingBlock: OJICUG_clean_linker_0, # of connection points: 2
#     Edge 76, Type (0, 0), BuildingBlock: OJICUG_clean_linker_0, # of connection points: 2
#     Edge 77, Type (0, 0), BuildingBlock: OJICUG_clean_linker_0, # of connection points: 2
#     Edge 78, Type (0, 0), BuildingBlock: OJICUG_clean_linker_0, # of connection points: 2
#     Edge 79, Type (0, 0), BuildingBlock: OJICUG_clean_linker_0, # of connection points: 2
#     Edge 80, Type (0, 0), BuildingBlock: OJICUG_clean_linker_0, # of connection points: 2
#     Edge 81, Type (0, 0), BuildingBlock: OJICUG_clean_linker_0, # of connection points: 2
#     Edge 82, Type (0, 0), BuildingBlock: OJICUG_clean_linker_0, # of connection points: 2
#     Edge 83, Type (0, 0), BuildingBlock: OJICUG_clean_linker_0, # of connection points: 2
#     Edge 84, Type (0, 0), BuildingBlock: OJICUG_clean_linker_0, # of connection points: 2
#     Edge 85, Type (0, 0), BuildingBlock: OJICUG_clean_linker_0, # of connection points: 2
#     Edge 86, Type (0, 0), BuildingBlock: OJICUG_clean_linker_0, # of connection points: 2
#     Edge 87, Type (0, 0), BuildingBlock: OJICUG_clean_linker_0, # of connection points: 2
#     Edge 88, Type (0, 0), BuildingBlock: OJICUG_clean_linker_0, # of connection points: 2
#     Edge 89, Type (0, 0), BuildingBlock: OJICUG_clean_linker_0, # of connection points: 2
#     Edge 90, Type (0, 0), BuildingBlock: OJICUG_clean_linker_0, # of connection points: 2
#     Edge 91, Type (0, 0), BuildingBlock: OJICUG_clean_linker_0, # of connection points: 2
#     Edge 92, Type (0, 0), BuildingBlock: OJICUG_clean_linker_0, # of connection points: 2
#     Edge 93, Type (0, 0), BuildingBlock: OJICUG_clean_linker_0, # of connection points: 2
#     Edge 94, Type (0, 0), BuildingBlock: OJICUG_clean_linker_0, # of connection points: 2
#     Edge 95, Type (0, 0), BuildingBlock: OJICUG_clean_linker_0, # of connection points: 2
#     Edge 96, Type (0, 0), BuildingBlock: OJICUG_clean_linker_0, # of connection points: 2
#     Edge 97, Type (0, 0), BuildingBlock: OJICUG_clean_linker_0, # of connection points: 2
#     Edge 98, Type (0, 0), BuildingBlock: OJICUG_clean_linker_0, # of connection points: 2
#     Edge 99, Type (0, 0), BuildingBlock: OJICUG_clean_linker_0, # of connection points: 2
#     Edge 100, Type (0, 0), BuildingBlock: OJICUG_clean_linker_0, # of connection points: 2
#     Edge 101, Type (0, 0), BuildingBlock: OJICUG_clean_linker_0, # of connection points: 2
#     Edge 102, Type (0, 0), BuildingBlock: OJICUG_clean_linker_0, # of connection points: 2
#     Edge 103, Type (0, 0), BuildingBlock: OJICUG_clean_linker_0, # of connection points: 2
#     Edge 104, Type (0, 0), BuildingBlock: OJICUG_clean_linker_0, # of connection points: 2
#     Edge 105, Type (0, 0), BuildingBlock: OJICUG_clean_linker_0, # of connection points: 2
#     Edge 106, Type (0, 0), BuildingBlock: OJICUG_clean_linker_0, # of connection points: 2
#     Edge 107, Type (0, 0), BuildingBlock: OJICUG_clean_linker_0, # of connection points: 2
#     Edge 108, Type (0, 0), BuildingBlock: OJICUG_clean_linker_0, # of connection points: 2
#     Edge 109, Type (0, 0), BuildingBlock: OJICUG_clean_linker_0, # of connection points: 2
#     Edge 110, Type (0, 0), BuildingBlock: OJICUG_clean_linker_0, # of connection points: 2
#     Edge 111, Type (0, 0), BuildingBlock: OJICUG_clean_linker_0, # of connection points: 2
#     Edge 112, Type (0, 0), BuildingBlock: OJICUG_clean_linker_0, # of connection points: 2
#     Edge 113, Type (0, 0), BuildingBlock: OJICUG_clean_linker_0, # of connection points: 2
#     Edge 114, Type (0, 0), BuildingBlock: OJICUG_clean_linker_0, # of connection points: 2
#     Edge 115, Type (0, 0), BuildingBlock: OJICUG_clean_linker_0, # of connection points: 2
#     Edge 116, Type (0, 0), BuildingBlock: OJICUG_clean_linker_0, # of connection points: 2
#     Edge 117, Type (0, 0), BuildingBlock: OJICUG_clean_linker_0, # of connection points: 2
#     Edge 118, Type (0, 0), BuildingBlock: OJICUG_clean_linker_0, # of connection points: 2
#     Edge 119, Type (0, 0), BuildingBlock: OJICUG_clean_linker_0, # of connection points: 2
#     Edge 120, Type (0, 0), BuildingBlock: OJICUG_clean_linker_0, # of connection points: 2
#     Edge 121, Type (0, 0), BuildingBlock: OJICUG_clean_linker_0, # of connection points: 2
#     Edge 122, Type (0, 0), BuildingBlock: OJICUG_clean_linker_0, # of connection points: 2
#     Edge 123, Type (0, 0), BuildingBlock: OJICUG_clean_linker_0, # of connection points: 2
#     Edge 124, Type (0, 0), BuildingBlock: OJICUG_clean_linker_0, # of connection points: 2
#     Edge 125, Type (0, 0), BuildingBlock: OJICUG_clean_linker_0, # of connection points: 2
#     Edge 126, Type (0, 0), BuildingBlock: OJICUG_clean_linker_0, # of connection points: 2
#     Edge 127, Type (0, 0), BuildingBlock: OJICUG_clean_linker_0, # of connection points: 2
#     Edge 128, Type (0, 0), BuildingBlock: OJICUG_clean_linker_0, # of connection points: 2
#     Edge 129, Type (0, 0), BuildingBlock: OJICUG_clean_linker_0, # of connection points: 2
#     Edge 130, Type (0, 0), BuildingBlock: OJICUG_clean_linker_0, # of connection points: 2
#     Edge 131, Type (0, 0), BuildingBlock: OJICUG_clean_linker_0, # of connection points: 2
#     Edge 132, Type (0, 0), BuildingBlock: OJICUG_clean_linker_0, # of connection points: 2
#     Edge 133, Type (0, 0), BuildingBlock: OJICUG_clean_linker_0, # of connection points: 2
#     Edge 134, Type (0, 0), BuildingBlock: OJICUG_clean_linker_0, # of connection points: 2
#     Edge 135, Type (0, 0), BuildingBlock: OJICUG_clean_linker_0, # of connection points: 2
#     Edge 136, Type (0, 0), BuildingBlock: OJICUG_clean_linker_0, # of connection points: 2
#     Edge 137, Type (0, 0), BuildingBlock: OJICUG_clean_linker_0, # of connection points: 2
#     Edge 138, Type (0, 0), BuildingBlock: OJICUG_clean_linker_0, # of connection points: 2
#     Edge 139, Type (0, 0), BuildingBlock: OJICUG_clean_linker_0, # of connection points: 2
#     Edge 140, Type (0, 0), BuildingBlock: OJICUG_clean_linker_0, # of connection points: 2
#     Edge 141, Type (0, 0), BuildingBlock: OJICUG_clean_linker_0, # of connection points: 2
#     Edge 142, Type (0, 0), BuildingBlock: OJICUG_clean_linker_0, # of connection points: 2
#     Edge 143, Type (0, 0), BuildingBlock: OJICUG_clean_linker_0, # of connection points: 2
# Relax obj value: 0.503
# Max RMSD: 0.212
# Mean RMSD: 0.212
data_MOF--net-wmt--node1-CUWYAW_clean_sbu_0--edge1-OJICUG_clean_linker_0
_symmetry_space_group_name_H-M    P1
_symmetry_Int_Tables_number       1
_symmetry_cell_setting            triclinic
loop_
_symmetry_equiv_pos_as_xyz
'x, y, z'
_cell_length_a     59.171576
_cell_length_b     59.193417
_cell_length_c     26.944507
_cell_angle_alpha  89.966349
_cell_angle_beta   90.07285
_cell_angle_gamma 119.94624
loop_
_atom_site_label
_atom_site_type_symbol
_atom_site_fract_x
_atom_site_fract_y
_atom_site_fract_z
_atom_type_partial_charge
C0 C 0.98513 0.38376 0.10581 0.0
Eu1 Eu 0.01707 0.42434 0.15803 0.0
C2 C 0.99038 0.37085 0.0651 0.0
C3 C 0.97075 0.35421 1.03218 0.0
C4 C 0.97743 0.34549 0.98933 0.0
C5 C 0.00375 0.35347 0.97956 0.0
C6 C 0.02273 0.36844 1.01466 0.0
C7 C 0.01618 0.37735 0.05666 0.0
C8 C 0.00695 0.46238 0.18852 0.0
C9 C 0.05437 0.47622 0.08941 0.0
C10 C 0.09169 0.50862 0.26511 0.0
Eu11 Eu 0.06377 0.46957 0.20519 0.0
C12 C 0.0863 0.5177 0.31319 0.0
C13 C 0.10674 0.53305 0.34606 0.0
C14 C 0.102 0.5426 0.3904 0.0
C15 C 0.07663 0.53719 0.40317 0.0
C16 C 0.05614 0.52155 0.37022 0.0
C17 C 0.06089 0.5119 0.32603 0.0
C18 C 0.07801 0.44186 0.14222 0.0
C19 C 0.01782 0.42466 0.27886 0.0
O20 O 0.99479 0.38236 0.14854 0.0
O21 O 0.99 0.40739 0.09595 0.0
O22 O 0.99033 0.43762 0.19124 0.0
O23 O 0.0278 0.46465 0.17274 0.0
O24 O 0.03758 0.45059 0.09003 0.0
O25 O 0.06515 0.48898 0.13132 0.0
O26 O 0.07931 0.51025 0.22619 0.0
O27 O 0.09244 0.48682 0.26561 0.0
O28 O 0.09254 0.46622 0.15458 0.0
O29 O 0.05781 0.43173 0.17081 0.0
O30 O 0.03967 0.44718 0.27383 0.0
O31 O 0.00591 0.41071 0.23891 0.0
H32 H 0.95066 0.3491 1.03829 0.0
H33 H 0.96236 0.33405 0.96248 0.0
H34 H 0.04279 0.37416 1.00798 0.0
H35 H 0.03132 0.3903 0.08173 0.0
H36 H 0.12652 0.53794 0.33718 0.0
H37 H 0.11839 0.55472 0.41422 0.0
H38 H 0.03629 0.51651 0.37876 0.0
H39 H 0.04465 0.50001 0.30164 0.0
C40 C 0.6097 0.60084 0.12045 0.0
Eu41 Eu 0.56829 0.59486 0.16542 0.0
C42 C 0.62484 0.6127 0.07605 0.0
C43 C 0.6476 0.61167 0.06706 0.0
C44 C 0.66162 0.62228 1.02347 0.0
C45 C 0.65374 0.63529 0.99022 0.0
C46 C 0.63111 0.63658 1.00016 0.0
C47 C 0.61639 0.62469 1.0421 0.0
C48 C 0.52914 0.54746 0.19638 0.0
C49 C 0.51801 0.58234 0.09433 0.0
C50 C 0.48461 0.58684 0.26999 0.0
Eu51 Eu 0.5239 0.59798 0.21088 0.0
C52 C 0.47553 0.57208 0.3178 0.0
C53 C 0.4601 0.57688 0.35096 0.0
C54 C 0.45077 0.56246 0.39523 0.0
C55 C 0.45649 0.54266 0.40767 0.0
C56 C 0.47215 0.53805 0.37437 0.0
C57 C 0.48157 0.55257 0.33024 0.0
C58 C 0.5523 0.63929 0.14741 0.0
C59 C 0.56816 0.59655 0.28592 0.0
O60 O 0.6099 0.61718 0.15336 0.0
O61 O 0.58646 0.5807 0.11338 0.0
O62 O 0.55373 0.55534 0.20194 0.0
O63 O 0.52749 0.56612 0.17898 0.0
O64 O 0.54339 0.58994 0.0958 0.0
O65 O 0.50514 0.581 0.13579 0.0
O66 O 0.48301 0.57309 0.23073 0.0
O67 O 0.50643 0.60933 0.27091 0.0
O68 O 0.52839 0.63094 0.16168 0.0
O69 O 0.5621 0.62889 0.17603 0.0
O70 O 0.54579 0.59617 0.28042 0.0
O71 O 0.58197 0.59813 0.24624 0.0
H72 H 0.65395 0.60189 0.09281 0.0
H73 H 0.67796 0.61954 1.01505 0.0
H74 H 0.62378 0.64519 0.97372 0.0
H75 H 0.59795 0.62399 1.04721 0.0
H76 H 0.45503 0.59169 0.34242 0.0
H77 H 0.43861 0.56654 0.4193 0.0
H78 H 0.47741 0.52336 0.38261 0.0
H79 H 0.49353 0.54844 0.30564 0.0
C80 C 0.39694 0.01091 0.10851 0.0
Eu81 Eu 0.40544 0.97834 0.15893 0.0
C82 C 0.37888 0.00665 0.06804 0.0
C83 C 0.38403 0.02615 1.03309 0.0
C84 C 0.3688 0.01995 0.99006 0.0
C85 C 0.34846 0.99423 0.98216 0.0
C86 C 0.34228 0.97563 1.01931 0.0
C87 C 0.35759 0.98166 0.06146 0.0
C88 C 0.45347 0.98801 0.18976 0.0
C89 C 0.41983 0.94129 0.08909 0.0
C90 C 0.41593 0.9038 0.26431 0.0
Eu91 Eu 0.40402 0.93133 0.20502 0.0
C92 C 0.43067 0.9097 0.31218 0.0
C93 C 0.42563 0.88966 0.34599 0.0
C94 C 0.43998 0.89492 0.39039 0.0
C95 C 0.45993 0.92042 0.40232 0.0
C96 C 0.46483 0.94049 0.36832 0.0
C97 C 0.45037 0.93523 0.32404 0.0
C98 C 0.36214 0.91745 0.14219 0.0
C99 C 0.40413 0.97647 0.2797 0.0
O100 O 0.38588 0.00086 0.15102 0.0
O101 O 0.41549 0.00586 0.09768 0.0
O102 O 0.44547 0.00476 0.19265 0.0
O103 O 0.43491 0.96741 0.17328 0.0
O104 O 0.411 0.95811 0.0902 0.0
O105 O 0.42187 0.93032 0.13072 0.0
O106 O 0.42961 0.91616 0.22516 0.0
O107 O 0.39317 0.9026 0.26509 0.0
O108 O 0.37175 0.90269 0.15461 0.0
O109 O 0.37223 0.93757 0.17098 0.0
O110 O 0.4051 0.95479 0.27419 0.0
O111 O 0.40228 0.98867 0.24003 0.0
H112 H 0.40058 0.04559 1.03767 0.0
H113 H 0.37414 0.03467 0.96158 0.0
H114 H 0.32636 0.95608 1.01416 0.0
H115 H 0.3537 0.96653 0.08798 0.0
H116 H 0.41068 0.8698 0.33787 0.0
H117 H 0.43569 0.87882 0.41504 0.0
H118 H 0.47966 0.96042 0.37618 0.0
H119 H 0.45467 0.95117 0.2989 0.0
C120 C 0.3851 0.9845 0.65326 0.0
Eu121 Eu 0.42593 0.01937 0.60533 0.0
C122 C 0.36935 0.98328 0.69569 0.0
C123 C 0.34494 0.96105 0.70355 0.0
C124 C 0.33072 0.95913 0.74625 0.0
C125 C 0.34047 0.97983 0.78018 0.0
C126 C 0.36429 0.00259 0.77058 0.0
C127 C 0.37887 0.00405 0.72914 0.0
C128 C 0.46505 0.01095 0.57428 0.0
C129 C 0.4766 0.0578 0.67517 0.0
C130 C 0.5102 0.09402 0.49906 0.0
Eu131 Eu 0.47074 0.06671 0.5583 0.0
C132 C 0.5191 0.08821 0.45119 0.0
C133 C 0.53381 0.10829 0.41727 0.0
C134 C 0.54298 0.10317 0.37287 0.0
C135 C 0.5378 0.07778 0.36101 0.0
C136 C 0.52292 0.05766 0.39511 0.0
C137 C 0.51364 0.06278 0.4394 0.0
C138 C 0.44291 0.08048 0.62106 0.0
C139 C 0.42606 0.02113 0.48423 0.0
O140 O 0.38398 0.99755 0.61528 0.0
O141 O 0.4089 0.98971 0.66297 0.0
O142 O 0.44045 0.99395 0.57048 0.0
O143 O 0.46658 0.03126 0.59115 0.0
O144 O 0.45115 0.04028 0.67408 0.0
O145 O 0.4895 0.06882 0.63347 0.0
O146 O 0.51143 0.08157 0.53822 0.0
O147 O 0.48872 0.09537 0.49815 0.0
O148 O 0.46669 0.09579 0.60586 0.0
O149 O 0.4327 0.05986 0.59353 0.0
O150 O 0.44829 0.04322 0.48939 0.0
O151 O 0.41244 0.00874 0.52412 0.0
H152 H 0.33743 0.94483 0.67784 0.0
H153 H 0.31283 0.9412 0.75394 0.0
H154 H 0.37265 0.01842 0.7972 0.0
H155 H 0.39809 0.02083 0.72437 0.0
H156 H 0.53842 0.12807 0.42531 0.0
H157 H 0.55456 0.11931 0.34817 0.0
H158 H 0.51811 0.03781 0.38732 0.0
H159 H 0.50224 0.04681 0.46461 0.0
C160 C 0.00342 0.38923 0.64866 0.0
Eu161 Eu 0.97195 0.40121 0.6036 0.0
C162 C 0.00628 0.37631 0.69228 0.0
C163 C 0.02826 0.37329 0.69677 0.0
C164 C 0.03212 0.36256 0.73991 0.0
C165 C 0.01357 0.35407 0.77795 0.0
C166 C 0.99104 0.35608 0.77222 0.0
C167 C 0.98772 0.36766 0.7301 0.0
C168 C 0.98311 0.44998 0.57505 0.0
C169 C 0.93504 0.41595 0.67297 0.0
C170 C 0.89931 0.41561 0.49679 0.0
Eu171 Eu 0.92589 0.40216 0.55538 0.0
C172 C 0.90509 0.43004 0.44868 0.0
C173 C 0.88487 0.42516 0.41539 0.0
C174 C 0.89002 0.43918 0.37064 0.0
C175 C 0.91559 0.4586 0.35791 0.0
C176 C 0.93586 0.4633 0.39134 0.0
C177 C 0.9307 0.44917 0.43594 0.0
C178 C 0.91087 0.35951 0.61602 0.0
C179 C 0.97141 0.40213 0.48215 0.0
O180 O 0.9858 0.37411 0.61632 0.0
O181 O 0.00353 0.41114 0.6562 0.0
O182 O -0.00041 0.44158 0.57262 0.0
O183 O 0.962 0.43151 0.59015 0.0
O184 O 0.95169 0.40684 0.6722 0.0
O185 O 0.92465 0.41875 0.6311 0.0
O186 O 0.91252 0.42925 0.53544 0.0
O187 O 0.89699 0.39237 0.49598 0.0
O188 O 0.89604 0.36886 0.60231 0.0
O189 O 0.93125 0.36993 0.58828 0.0
O190 O 0.94988 0.40347 0.48699 0.0
O191 O 0.98297 0.39945 0.52211 0.0
H192 H 0.04289 0.38013 0.66779 0.0
H193 H 0.04992 0.36187 0.74452 0.0
H194 H 0.97701 0.35056 0.8021 0.0
H195 H 0.97133 0.37094 0.72805 0.0
H196 H 0.86496 0.4106 0.42419 0.0
H197 H 0.87381 0.43507 0.34638 0.0
H198 H 0.95584 0.47773 0.3828 0.0
H199 H 0.94678 0.4533 0.46063 0.0
C200 C 0.60132 0.61495 0.66124 0.0
Eu201 Eu 0.59182 0.57393 0.60965 0.0
C202 C 0.6194 0.62819 0.70198 0.0
C203 C 0.61464 0.64274 0.73709 0.0
C204 C 0.62977 0.65125 0.7803 0.0
C205 C 0.64967 0.64517 0.78834 0.0
C206 C 0.65548 0.63251 0.75105 0.0
C207 C 0.64028 0.62379 0.70863 0.0
C208 C 0.54345 0.53617 0.57933 0.0
C209 C 0.57718 0.52197 0.678 0.0
C210 C 0.58014 0.48884 0.50206 0.0
Eu211 Eu 0.59246 0.52819 0.56184 0.0
C212 C 0.56569 0.47958 0.45368 0.0
C213 C 0.57428 0.4946 0.40994 0.0
C214 C 0.56009 0.48554 0.36528 0.0
C215 C 0.53679 0.46122 0.36289 0.0
C216 C 0.52826 0.44632 0.4068 0.0
C217 C 0.5425 0.45531 0.4513 0.0
C218 C 0.63464 0.5555 0.62452 0.0
C219 C 0.5919 0.57357 0.48882 0.0
O220 O 0.61233 0.61596 0.61866 0.0
O221 O 0.58238 0.59149 0.67158 0.0
O222 O 0.55162 0.56097 0.57738 0.0
O223 O 0.56197 0.53373 0.59496 0.0
O224 O 0.58618 0.54764 0.6775 0.0
O225 O 0.57488 0.50914 0.63606 0.0
O226 O 0.56617 0.48763 0.54069 0.0
O227 O 0.60315 0.5101 0.50214 0.0
O228 O 0.62468 0.53116 0.61181 0.0
O229 O 0.62462 0.56583 0.5962 0.0
O230 O 0.59117 0.551 0.49354 0.0
O231 O 0.594 0.58747 0.52884 0.0
H232 H 0.59842 0.64619 0.73246 0.0
H233 H 0.62462 0.66077 0.80881 0.0
H234 H 0.67104 0.62829 0.75617 0.0
H235 H 0.64392 0.61249 0.6819 0.0
H236 H 0.5919 0.51347 0.41017 0.0
H237 H 0.56725 0.49784 0.33271 0.0
H238 H 0.51069 0.4274 0.40671 0.0
H239 H 0.5353 0.44319 0.48413 0.0
C240 C 0.89833 0.48361 0.99624 0.0
Eu241 Eu 0.92713 0.5228 0.05506 0.0
C242 C 0.90331 0.47382 0.94829 0.0
C243 C 0.91057 0.48884 0.90449 0.0
C244 C 0.91583 0.47949 0.86041 0.0
C245 C 0.91411 0.45482 0.85857 0.0
C246 C 0.90689 0.43988 0.90252 0.0
C247 C 0.90153 0.44919 0.94649 0.0
C248 C 0.91565 0.55236 0.11884 0.0
C249 C 0.97246 0.56678 0.97974 0.0
C250 C 0.01128 0.6066 0.14693 0.0
Eu251 Eu 0.97556 0.56648 0.09937 0.0
C252 C 0.00907 0.62184 0.18661 0.0
C253 C 0.03035 0.63802 0.21646 0.0
C254 C 0.02647 0.6495 0.25835 0.0
C255 C 0.00135 0.64544 0.26955 0.0
C256 C 0.98108 0.63158 0.23572 0.0
C257 C 0.98458 0.61872 0.19643 0.0
C258 C 0.9823 0.52635 0.0675 0.0
C259 C 0.93736 0.51681 0.17073 0.0
O260 O 0.91035 0.48167 1.03542 0.0
O261 O 0.89789 0.50559 0.99578 0.0
O262 O 0.89984 0.52825 0.10616 0.0
O263 O 0.9356 0.56156 0.08965 0.0
O264 O 0.95053 0.54443 0.98536 0.0
O265 O 0.98503 0.58054 1.01914 0.0
O266 O 0.00109 0.60821 0.10496 0.0
O267 O 0.00428 0.58258 0.15888 0.0
O268 O -0.00049 0.55077 0.06242 0.0
O269 O 0.96255 0.52556 0.08554 0.0
O270 O 0.95515 0.54212 0.16899 0.0
O271 O 0.92563 0.50386 0.12952 0.0
H272 H 0.91239 0.50797 0.90425 0.0
H273 H 0.92166 0.49185 0.82785 0.0
H274 H 0.90498 0.42071 0.90288 0.0
H275 H 0.89601 0.43706 0.97938 0.0
H276 H 0.04944 0.64043 0.20922 0.0
H277 H 0.04278 0.65978 0.28336 0.0
H278 H 0.96204 0.62932 0.24124 0.0
H279 H 0.96799 0.6055 0.17442 0.0
C280 C 0.51048 0.41774 1.00052 0.0
Eu281 Eu 0.47168 0.40763 0.06014 0.0
C282 C 0.51966 0.43257 0.95286 0.0
C283 C 0.53396 0.42685 0.91855 0.0
C284 C 0.5433 0.44126 0.87429 0.0
C285 C 0.53872 0.46194 0.86307 0.0
C286 C 0.52418 0.46746 0.8975 0.0
C287 C 0.51472 0.45295 0.94159 0.0
C288 C 0.44281 0.36628 0.12309 0.0
C289 C 0.42747 0.40915 0.98558 0.0
C290 C 0.38742 0.40566 0.15398 0.0
Eu291 Eu 0.42779 0.41151 0.10542 0.0
C292 C 0.37457 0.39088 0.19822 0.0
C293 C 0.34749 0.37932 0.20362 0.0
C294 C 0.33533 0.3641 0.24537 0.0
C295 C 0.35022 0.36 0.28105 0.0
C296 C 0.37727 0.37134 0.27461 0.0
C297 C 0.3893 0.38664 0.23363 0.0
C298 C 0.4673 0.45868 0.07403 0.0
C299 C 0.47809 0.42338 0.17597 0.0
O300 O 0.51267 0.43154 1.04006 0.0
O301 O 0.48827 0.39565 0.99957 0.0
O302 O 0.46674 0.37454 0.10918 0.0
O303 O 0.43314 0.37692 0.09477 0.0
O304 O 0.44995 0.40979 0.99095 0.0
O305 O 0.41364 0.40758 1.02514 0.0
O306 O 0.38593 0.39128 0.11614 0.0
O307 O 0.41089 0.42557 0.16046 0.0
O308 O 0.44276 0.45101 0.06844 0.0
O309 O 0.46862 0.43991 0.09175 0.0
O310 O 0.45267 0.41547 0.1746 0.0
O311 O 0.49097 0.42509 0.13442 0.0
H312 H 0.53813 0.41132 0.92617 0.0
H313 H 0.55457 0.43645 0.84923 0.0
H314 H 0.5198 0.48286 0.89016 0.0
H315 H 0.5036 0.45777 0.96707 0.0
H316 H 0.33587 0.38215 0.17585 0.0
H317 H 0.31451 0.35583 0.25015 0.0
H318 H 0.38945 0.36938 0.30236 0.0
H319 H 0.41019 0.39514 0.22972 0.0
C320 C 0.58139 0.09711 0.99833 0.0
Eu321 Eu 0.5913 0.06847 0.05847 0.0
C322 C 0.56582 0.09124 0.95144 0.0
C323 C 0.57132 0.11103 0.9167 0.0
C324 C 0.55675 0.10571 0.87253 0.0
C325 C 0.53615 0.08036 0.86164 0.0
C326 C 0.53075 0.06054 0.89666 0.0
C327 C 0.54538 0.06589 0.94078 0.0
C328 C 0.63367 0.08076 0.1189 0.0
C329 C 0.58874 0.02269 0.98288 0.0
C330 C 0.59907 0.98711 0.14818 0.0
Eu331 Eu 0.59015 0.02043 0.10183 0.0
C332 C 0.61014 0.98649 0.1961 0.0
C333 C 0.6263 0.9755 0.20044 0.0
C334 C 0.64021 0.97868 0.24435 0.0
C335 C 0.63828 0.99333 0.28327 0.0
C336 C 0.62103 0.00302 0.27952 0.0
C337 C 0.60694 -0.00053 0.23642 0.0
C338 C 0.54245 0.01186 0.07155 0.0
C339 C 0.57557 0.05726 0.17381 0.0
O340 O 0.5682 0.08666 1.03916 0.0
O341 O 0.60296 0.09593 0.99621 0.0
O342 O 0.62524 0.09661 0.10742 0.0
O343 O 0.62262 0.06098 0.08969 0.0
O344 O 0.5836 0.04166 0.991 0.0
O345 O 0.596 0.01328 1.02028 0.0
O346 O 0.61556 0.00465 0.1174 0.0
O347 O 0.57662 0.9864 0.14932 0.0
O348 O 0.55025 0.99499 0.06644 0.0
O349 O 0.56101 0.03196 0.08962 0.0
O350 O 0.58368 0.03981 0.17141 0.0
O351 O 0.57378 0.06899 0.13303 0.0
H352 H 0.5869 0.13074 0.9238 0.0
H353 H 0.56146 0.12165 0.84717 0.0
H354 H 0.51543 0.04071 0.8897 0.0
H355 H 0.5407 0.05012 0.96662 0.0
H356 H 0.62888 0.96537 0.16941 0.0
H357 H 0.65293 0.97048 0.24742 0.0
H358 H 0.61846 0.0134 0.31013 0.0
H359 H 0.59422 0.00771 0.23409 0.0
C360 C 0.48506 0.90211 0.76544 0.0
Eu361 Eu 0.52326 0.93064 0.70475 0.0
C362 C 0.4755 0.9081 0.81241 0.0
C363 C 0.46214 0.88858 0.84813 0.0
C364 C 0.45305 0.89399 0.89238 0.0
C365 C 0.45701 0.91914 0.9024 0.0
C366 C 0.47049 0.93869 0.86642 0.0
C367 C 0.47963 0.93327 0.82222 0.0
C368 C 0.55326 0.91842 0.64392 0.0
C369 C 0.56625 0.97671 0.78026 0.0
C370 C 0.6119 0.01227 0.61492 0.0
Eu371 Eu 0.56986 0.97875 0.66132 0.0
C372 C 0.62369 0.01302 0.56712 0.0
C373 C 0.65087 0.02434 0.56293 0.0
C374 C 0.66176 0.02148 0.51901 0.0
C375 C 0.64532 0.00682 0.47991 0.0
C376 C 0.61833 0.99672 0.48357 0.0
C377 C 0.60762 -5e-05 0.52668 0.0
C378 C 0.53065 0.98715 0.69169 0.0
C379 C 0.51844 0.94167 0.58949 0.0
O380 O 0.48206 0.91234 0.72448 0.0
O381 O 0.50785 0.90337 0.76735 0.0
O382 O 0.52907 0.90253 0.6557 0.0
O383 O 0.56203 0.93823 0.67314 0.0
O384 O 0.54225 0.95758 0.77207 0.0
O385 O 0.58291 0.98614 0.74293 0.0
O386 O 0.61108 0.99486 0.64585 0.0
O387 O 0.59002 0.01271 0.61357 0.0
O388 O 0.55529 0.00409 0.6967 0.0
O389 O 0.52919 0.96708 0.67357 0.0
O390 O 0.54396 0.95921 0.59182 0.0
O391 O 0.50501 0.92996 0.6303 0.0
H392 H 0.45862 0.86902 0.84174 0.0
H393 H 0.44256 0.87824 0.91849 0.0
H394 H 0.47438 0.95838 0.87267 0.0
H395 H 0.49002 0.94884 0.79567 0.0
H396 H 0.66349 0.03453 0.59406 0.0
H397 H 0.68271 0.02998 0.51602 0.0
H398 H 0.60547 0.98629 0.45285 0.0
H399 H 0.58665 0.99147 0.52889 0.0
C400 C 0.09238 0.58006 0.76554 0.0
Eu401 Eu 0.06484 0.59143 0.70499 0.0
C402 C 0.08652 0.56535 0.8135 0.0
C403 C 0.10641 0.57119 0.8483 0.0
C404 C 0.10125 0.55688 0.89276 0.0
C405 C 0.07601 0.53615 0.90376 0.0
C406 C 0.05607 0.53051 0.86884 0.0
C407 C 0.06122 0.54493 0.82455 0.0
C408 C 0.07797 0.63334 0.64316 0.0
C409 C 0.01856 0.5901 0.77776 0.0
C410 C 0.9842 0.59656 0.60833 0.0
Eu411 Eu 0.01749 0.58896 0.65771 0.0
C412 C 0.98493 0.60895 0.56152 0.0
C413 C 0.96513 0.61436 0.54904 0.0
C414 C 0.96663 0.62713 0.50457 0.0
C415 C 0.98802 0.63458 0.47278 0.0
C416 C 0.00772 0.62904 0.48579 0.0
C417 C 0.00613 0.61626 0.5298 0.0
C418 C 0.00909 0.54146 0.68896 0.0
C419 C 0.05607 0.57646 0.58843 0.0
O420 O 0.08044 0.56631 0.7261 0.0
O421 O 0.09312 0.60259 0.76608 0.0
O422 O 0.09352 0.62491 0.65726 0.0
O423 O 0.05756 0.62251 0.67095 0.0
O424 O 0.04037 0.58933 0.773 0.0
O425 O 0.00661 0.59207 0.73794 0.0
O426 O -0.00048 0.61246 0.64268 0.0
O427 O 0.98564 0.57527 0.6048 0.0
O428 O 0.99212 0.54915 0.69305 0.0
O429 O 0.0294 0.56015 0.67173 0.0
O430 O 0.03833 0.58412 0.58941 0.0
O431 O 0.06732 0.57489 0.63011 0.0
H432 H 0.1261 0.58673 0.8409 0.0
H433 H 0.11725 0.56179 0.91812 0.0
H434 H 0.03631 0.51508 0.87595 0.0
H435 H 0.04537 0.53999 0.79872 0.0
H436 H 0.94871 0.60884 0.57363 0.0
H437 H 0.95111 0.63098 0.49479 0.0
H438 H 0.02396 0.63382 0.46115 0.0
H439 H 0.02137 0.61192 0.53894 0.0
C440 C 0.4147 0.51604 0.76972 0.0
Eu441 Eu 0.40309 0.4769 0.7098 0.0
C442 C 0.42928 0.52491 0.81783 0.0
C443 C 0.42427 0.54014 0.85114 0.0
C444 C 0.43856 0.54939 0.89562 0.0
C445 C 0.45843 0.54378 0.90819 0.0
C446 C 0.46324 0.5283 0.87475 0.0
C447 C 0.44885 0.51896 0.8304 0.0
C448 C 0.36123 0.44759 0.64795 0.0
C449 C 0.40435 0.432 0.78322 0.0
C450 C 0.39548 0.38988 0.61434 0.0
Eu451 Eu 0.40533 0.43154 0.66304 0.0
C452 C 0.38255 0.37878 0.56748 0.0
C453 C 0.36901 0.35171 0.56036 0.0
C454 C 0.3545 0.34119 0.51712 0.0
C455 C 0.35355 0.35779 0.48101 0.0
C456 C 0.36768 0.3849 0.48814 0.0
C457 C 0.38191 0.39528 0.53111 0.0
C458 C 0.45282 0.47037 0.6941 0.0
C459 C 0.41827 0.48282 0.59332 0.0
O460 O 0.42854 0.51755 0.73064 0.0
O461 O 0.39201 0.49442 0.77019 0.0
O462 O 0.36942 0.47163 0.66126 0.0
O463 O 0.37227 0.43853 0.67646 0.0
O464 O 0.40495 0.4545 0.77814 0.0
O465 O 0.40256 0.41804 0.74359 0.0
O466 O 0.3801 0.39054 0.64843 0.0
O467 O 0.41778 0.41172 0.6113 0.0
O468 O 0.44522 0.4457 0.69775 0.0
O469 O 0.4341 0.4721 0.67705 0.0
O470 O 0.41079 0.45745 0.59455 0.0
O471 O 0.4196 0.49567 0.63479 0.0
H472 H 0.40942 0.54515 0.84252 0.0
H473 H 0.43432 0.56141 0.91976 0.0
H474 H 0.47798 0.52312 0.88306 0.0
H475 H 0.45315 0.50715 0.8057 0.0
H476 H 0.36952 0.33876 0.58818 0.0
H477 H 0.34426 0.32026 0.51168 0.0
H478 H 0.36818 0.39823 0.46003 0.0
H479 H 0.39219 0.41621 0.53607 0.0
C480 C 0.65344 0.71909 0.43822 0.0
Eu481 Eu 0.68574 0.75978 0.48975 0.0
C482 C 0.65778 0.70542 0.39762 0.0
C483 C 0.63847 0.69156 0.362 0.0
C484 C 0.64483 0.68279 0.31886 0.0
C485 C 0.67052 0.68788 0.31149 0.0
C486 C 0.68884 0.69968 0.34936 0.0
C487 C 0.68268 0.70877 0.39158 0.0
C488 C 0.67661 0.79846 0.52065 0.0
C489 C 0.72393 0.81156 0.42161 0.0
C490 C 0.76067 0.84346 0.59824 0.0
Eu491 Eu 0.73292 0.80466 0.53757 0.0
C492 C 0.75531 0.85251 0.64653 0.0
C493 C 0.77572 0.86741 0.67981 0.0
C494 C 0.77111 0.87701 0.72427 0.0
C495 C 0.74588 0.8721 0.73692 0.0
C496 C 0.7254 0.85693 0.70354 0.0
C497 C 0.73003 0.84724 0.65918 0.0
C498 C 0.74651 0.7765 0.4742 0.0
C499 C 0.68622 0.76013 0.61063 0.0
O500 O 0.66324 0.71778 0.48091 0.0
O501 O 0.65863 0.74278 0.42773 0.0
O502 O 0.6594 0.77383 0.5221 0.0
O503 O 0.69724 0.80024 0.50484 0.0
O504 O 0.7067 0.78603 0.42201 0.0
O505 O 0.73481 0.82419 0.4636 0.0
O506 O 0.74842 0.84526 0.55926 0.0
O507 O 0.76142 0.82166 0.5984 0.0
O508 O 0.76146 0.80074 0.48711 0.0
O509 O 0.72627 0.76664 0.50273 0.0
O510 O 0.70852 0.78224 0.60582 0.0
O511 O 0.67408 0.74643 0.57062 0.0
H512 H 0.61909 0.68893 0.36613 0.0
H513 H 0.63031 0.67393 0.28986 0.0
H514 H 0.70836 0.70309 0.34469 0.0
H515 H 0.69768 0.71967 0.41849 0.0
H516 H 0.79541 0.87193 0.67113 0.0
H517 H 0.78753 0.88878 0.7483 0.0
H518 H 0.70564 0.85227 0.71187 0.0
H519 H 0.71379 0.83573 0.63453 0.0
C520 C 0.27802 0.93114 0.44167 0.0
Eu521 Eu 0.23744 0.92298 0.49236 0.0
C522 C 0.28977 0.94685 0.3976 0.0
C523 C 0.3168 0.95951 0.3902 0.0
C524 C 0.32771 0.97522 0.34838 0.0
C525 C 0.31163 0.97875 0.31454 0.0
C526 C 0.28466 0.96634 0.32308 0.0
C527 C 0.27388 0.95063 0.3642 0.0
C528 C 0.19856 0.87573 0.52384 0.0
C529 C 0.18609 0.91035 0.42338 0.0
C530 C 0.15446 0.91548 0.59996 0.0
Eu531 Eu 0.19317 0.92629 0.53939 0.0
C532 C 0.14559 0.90091 0.64803 0.0
C533 C 0.1302 0.90577 0.6812 0.0
C534 C 0.12088 0.8914 0.72555 0.0
C535 C 0.12657 0.87159 0.73809 0.0
C536 C 0.14223 0.86696 0.70482 0.0
C537 C 0.15164 0.88142 0.6606 0.0
C538 C 0.22183 0.96767 0.47614 0.0
C539 C 0.23774 0.92443 0.61258 0.0
O540 O 0.27919 0.94461 0.48084 0.0
O541 O 0.25496 0.91055 0.43542 0.0
O542 O 0.22319 0.88322 0.52729 0.0
O543 O 0.19684 0.8945 0.5072 0.0
O544 O 0.21143 0.91782 0.42426 0.0
O545 O 0.17354 0.90923 0.46509 0.0
O546 O 0.15248 0.90154 0.56076 0.0
O547 O 0.17638 0.93789 0.60028 0.0
O548 O 0.19791 0.95939 0.49036 0.0
O549 O 0.23145 0.95702 0.50449 0.0
O550 O 0.21564 0.92463 0.60774 0.0
O551 O 0.25123 0.92547 0.57274 0.0
H552 H 0.32934 0.95704 0.41634 0.0
H553 H 0.3485 0.98417 0.34193 0.0
H554 H 0.27155 0.96779 0.29682 0.0
H555 H 0.25301 0.94132 0.36962 0.0
H556 H 0.1251 0.92055 0.67256 0.0
H557 H 0.10872 0.89551 0.74957 0.0
H558 H 0.14749 0.85227 0.71312 0.0
H559 H 0.16355 0.87724 0.63599 0.0
C560 C 0.06624 0.34552 0.44614 0.0
Eu561 Eu 0.07455 0.31204 0.49318 0.0
C562 C 0.05445 0.34591 0.39893 0.0
C563 C 0.03858 0.35727 0.39553 0.0
C564 C 0.02449 0.35447 0.35205 0.0
C565 C 0.02597 0.33987 0.31258 0.0
C566 C 0.04273 0.32957 0.31555 0.0
C567 C 0.05701 0.33273 0.35823 0.0
C568 C 0.1215 0.31981 0.52572 0.0
C569 C 0.08846 0.27456 0.42278 0.0
C570 C 0.08271 0.23571 0.59839 0.0
Eu571 Eu 0.07144 0.26348 0.53836 0.0
C572 C 0.0976 0.2417 0.64626 0.0
C573 C 0.09202 0.2219 0.68106 0.0
C574 C 0.10644 0.22722 0.72548 0.0
C575 C 0.12702 0.25256 0.73652 0.0
C576 C 0.13242 0.2724 0.70156 0.0
C577 C 0.1179 0.26708 0.65728 0.0
C578 C 0.03034 0.25178 0.47506 0.0
C579 C 0.07305 0.30945 0.61325 0.0
O580 O 0.04999 0.32885 0.47846 0.0
O581 O 0.08824 0.3453 0.44365 0.0
O582 O 0.114 0.33694 0.52992 0.0
O583 O 0.10285 0.29964 0.50784 0.0
O584 O 0.08159 0.29291 0.42443 0.0
O585 O 0.08882 0.26214 0.46376 0.0
O586 O 0.09635 0.24751 0.55877 0.0
O587 O 0.06018 0.23503 0.59908 0.0
O588 O 0.03794 0.23546 0.48843 0.0
O589 O 0.04123 0.27166 0.5042 0.0
O590 O 0.0733 0.28739 0.60746 0.0
O591 O 0.07143 0.32199 0.57404 0.0
H592 H 0.03657 0.36762 0.42681 0.0
H593 H 0.01211 0.36309 0.34961 0.0
H594 H 0.04492 0.31917 0.28452 0.0
H595 H 0.06953 0.32426 0.35975 0.0
H596 H 0.07659 0.20215 0.67371 0.0
H597 H 0.1017 0.21127 0.75082 0.0
H598 H 0.14773 0.29223 0.70863 0.0
H599 H 0.12265 0.28287 0.63147 0.0
C600 C 0.05292 0.31906 0.98335 0.0
Eu601 Eu 0.09476 0.35229 0.93641 0.0
C602 C 0.04104 0.31909 1.0306 0.0
C603 C 0.05704 0.33203 0.0712 0.0
C604 C 0.04638 0.33601 0.11363 0.0
C605 C 0.01953 0.32682 0.11644 0.0
C606 C 0.0031 0.31232 0.07722 0.0
C607 C 0.01394 0.30867 1.034 0.0
C608 C 0.13412 0.34468 0.90459 0.0
C609 C 0.14599 0.3898 1.00728 0.0
C610 C 0.17938 0.42905 0.83226 0.0
Eu611 Eu 0.14021 0.40099 0.89159 0.0
C612 C 0.18847 0.42329 0.7845 0.0
C613 C 0.20339 0.44336 0.75068 0.0
C614 C 0.21268 0.43822 0.70641 0.0
C615 C 0.20744 0.4128 0.69458 0.0
C616 C 0.1923 0.39268 0.72855 0.0
C617 C 0.18291 0.39783 0.77268 0.0
C618 C 0.11055 0.41246 0.9544 0.0
C619 C 0.09599 0.35503 0.81635 0.0
O620 O 0.05344 0.33572 0.95084 0.0
O621 O 0.075 0.31898 0.98576 0.0
O622 O 0.10954 0.32743 0.90033 0.0
O623 O 0.13549 0.36483 0.92221 0.0
O624 O 0.12082 0.37136 1.00536 0.0
O625 O 0.15879 0.40231 0.96644 0.0
O626 O 0.18113 0.41709 0.87175 0.0
O627 O 0.15748 0.42964 0.83126 0.0
O628 O 0.13447 0.42886 0.94141 0.0
O629 O 0.10174 0.39264 0.92518 0.0
O630 O 0.11827 0.37709 0.8223 0.0
O631 O 0.08183 0.34243 0.85546 0.0
H632 H 0.07792 0.33979 0.0697 0.0
H633 H 0.05919 0.34621 0.14456 0.0
H634 H 0.98222 0.30448 0.0796 0.0
H635 H 0.00136 0.29849 1.00283 0.0
H636 H 0.20808 0.46317 0.75871 0.0
H637 H 0.22444 0.45436 0.68183 0.0
H638 H 0.1874 0.3728 0.72081 0.0
H639 H 0.17135 0.38185 0.79776 0.0
C640 C 0.67753 0.7342 0.97955 0.0
Eu641 Eu 0.64235 0.74073 0.93464 0.0
C642 C 0.6805 0.72222 1.02413 0.0
C643 C 0.70414 0.72305 1.03386 0.0
C644 C 0.70716 0.7122 0.07757 0.0
C645 C 0.686 0.69913 0.11013 0.0
C646 C 0.66227 0.69813 0.09953 0.0
C647 C 0.65984 0.71027 0.05752 0.0
C648 C 0.65129 0.78841 0.90364 0.0
C649 C 0.60544 0.75425 1.00601 0.0
C650 C 0.56733 0.75004 0.83041 0.0
Eu651 Eu 0.59512 0.73841 0.8896 0.0
C652 C 0.57343 0.76488 0.78265 0.0
C653 C 0.5536 0.75983 0.74822 0.0
C654 C 0.55914 0.77427 0.70387 0.0
C655 C 0.5847 0.79432 0.69268 0.0
C656 C 0.60455 0.79916 0.72724 0.0
C657 C 0.59902 0.78462 0.77141 0.0
C658 C 0.5817 0.69713 0.95325 0.0
C659 C 0.6401 0.73878 0.81409 0.0
O660 O 0.6612 0.71794 0.94673 0.0
O661 O 0.67481 0.75459 0.98641 0.0
O662 O 0.6676 0.78006 0.89771 0.0
O663 O 0.63089 0.77001 0.92122 0.0
O664 O 0.62289 0.7462 1.00443 0.0
O665 O 0.59392 0.75576 0.96461 0.0
O666 O 0.57946 0.76365 0.86984 0.0
O667 O 0.56633 0.72738 0.82953 0.0
O668 O 0.56643 0.70584 0.93888 0.0
O669 O 0.60186 0.70711 0.92459 0.0
O670 O 0.61841 0.73971 0.81979 0.0
O671 O 0.65227 0.73695 0.85372 0.0
H672 H 0.72045 0.73282 1.00857 0.0
H673 H 0.7261 0.71472 0.08659 0.0
H674 H 0.64615 0.68952 0.12547 0.0
H675 H 0.64224 0.71116 1.05188 0.0
H676 H 0.53371 0.74481 0.75579 0.0
H677 H 0.54321 0.77 0.67871 0.0
H678 H 0.62453 0.81405 0.71995 0.0
H679 H 0.61482 0.78891 0.79697 0.0
C680 C 0.26478 0.94381 0.9822 0.0
Eu681 Eu 0.25714 0.9021 0.93581 0.0
C682 C 0.27614 0.95629 1.02938 0.0
C683 C 0.29108 0.98358 1.03251 0.0
C684 C 0.30481 0.99534 0.07602 0.0
C685 C 0.30394 0.97969 0.11588 0.0
C686 C 0.28811 0.9525 0.11309 0.0
C687 C 0.27419 0.94091 0.07032 0.0
C688 C 0.21018 0.86308 0.90349 0.0
C689 C 0.24323 0.85091 1.00701 0.0
C690 C 0.24778 0.81665 0.83225 0.0
Eu691 Eu 0.25991 0.85624 0.89111 0.0
C692 C 0.23297 0.80731 0.78416 0.0
C693 C 0.242 0.82169 0.73977 0.0
C694 C 0.22749 0.81276 0.69543 0.0
C695 C 0.2034 0.78917 0.6939 0.0
C696 C 0.19443 0.77487 0.73843 0.0
C697 C 0.20899 0.78375 0.78266 0.0
C698 C 0.30123 0.88582 0.95347 0.0
C699 C 0.25954 0.90102 0.81571 0.0
O700 O 0.28135 0.94345 0.95061 0.0
O701 O 0.24295 0.9215 0.98464 0.0
O702 O 0.21787 0.88769 0.89836 0.0
O703 O 0.2288 0.86152 0.92151 0.0
O704 O 0.25024 0.87616 1.00503 0.0
O705 O 0.24281 0.838 0.9662 0.0
O706 O 0.23407 0.81536 0.8714 0.0
O707 O 0.27072 0.83803 0.83184 0.0
O708 O 0.29358 0.86184 0.94061 0.0
O709 O 0.29021 0.8947 0.92442 0.0
O710 O 0.25867 0.87843 0.82171 0.0
O711 O 0.26121 0.91526 0.85481 0.0
H712 H 0.29271 0.99565 1.00094 0.0
H713 H 0.31651 0.01639 0.07818 0.0
H714 H 0.28638 0.94017 0.14429 0.0
H715 H 0.26241 0.91985 0.06891 0.0
H716 H 0.26026 0.83998 0.73922 0.0
H717 H 0.23504 0.82464 0.66241 0.0
H718 H 0.17626 0.75649 0.73907 0.0
H719 H 0.20139 0.7721 0.81596 0.0
C720 C 0.57126 0.82257 0.33093 0.0
Eu721 Eu 0.59905 0.8614 0.39144 0.0
C722 C 0.57662 0.81354 0.28266 0.0
C723 C 0.55621 0.79864 0.24939 0.0
C724 C 0.56085 0.78911 0.20488 0.0
C725 C 0.5861 0.79409 0.19222 0.0
C726 C 0.60657 0.80927 0.22559 0.0
C727 C 0.60192 0.81889 0.26999 0.0
C728 C 0.58549 0.88952 0.4548 0.0
C729 C 0.64573 0.90601 0.31841 0.0
C730 C 0.67894 0.94695 0.49076 0.0
Eu731 Eu 0.64642 0.90635 0.43929 0.0
C732 C 0.67473 0.96064 0.53147 0.0
C733 C 0.69425 0.97484 0.5665 0.0
C734 C 0.68811 0.98383 0.60961 0.0
C735 C 0.66242 0.97867 0.61749 0.0
C736 C 0.64386 0.96651 0.58011 0.0
C737 C 0.6498 0.95712 0.53804 0.0
C738 C 0.65521 0.86745 0.40794 0.0
C739 C 0.60813 0.8546 0.50741 0.0
O740 O 0.58354 0.82079 0.36988 0.0
O741 O 0.57051 0.84438 0.33071 0.0
O742 O 0.57046 0.86536 0.44151 0.0
O743 O 0.60585 0.89943 0.42655 0.0
O744 O 0.62346 0.88388 0.32321 0.0
O745 O 0.65789 0.91973 0.35841 0.0
O746 O 0.66908 0.94834 0.44819 0.0
O747 O 0.67366 0.92322 0.50114 0.0
O748 O 0.67251 0.89206 0.4064 0.0
O749 O 0.63477 0.86593 0.42411 0.0
O750 O 0.62541 0.88013 0.50699 0.0
O751 O 0.59721 0.84195 0.46546 0.0
H752 H 0.53651 0.79407 0.25809 0.0
H753 H 0.54444 0.77734 0.18083 0.0
H754 H 0.62634 0.81398 0.21723 0.0
H755 H 0.61815 0.83041 0.29465 0.0
H756 H 0.71366 0.9776 0.56196 0.0
H757 H 0.70284 0.99297 0.63818 0.0
H758 H 0.62434 0.96304 0.58504 0.0
H759 H 0.63462 0.9459 0.51165 0.0
C760 C 0.17669 0.74753 0.33147 0.0
Eu761 Eu 0.13761 0.73634 0.39127 0.0
C762 C 0.18562 0.76222 0.28348 0.0
C763 C 0.20093 0.75733 0.25017 0.0
C764 C 0.21018 0.77168 0.20579 0.0
C765 C 0.20448 0.7915 0.19328 0.0
C766 C 0.18894 0.79621 0.22676 0.0
C767 C 0.17961 0.78176 0.27103 0.0
C768 C 0.10863 0.6952 0.45423 0.0
C769 C 0.09301 0.73706 0.317 0.0
C770 C 0.05325 0.73682 0.48405 0.0
Eu771 Eu 0.0934 0.74046 0.4373 0.0
C772 C 0.03664 0.72338 0.52669 0.0
C773 C 0.03488 0.73797 0.56578 0.0
C774 C 0.0229 0.72565 0.61001 0.0
C775 C 0.01242 0.69856 0.61524 0.0
C776 C 0.01161 0.68385 0.57407 0.0
C777 C 0.02387 0.69618 0.53042 0.0
C778 C 0.13328 0.78719 0.40446 0.0
C779 C 0.14372 0.75191 0.50757 0.0
O780 O 0.1784 0.76132 0.37073 0.0
O781 O 0.15491 0.725 0.33088 0.0
O782 O 0.13241 0.70303 0.43969 0.0
O783 O 0.09899 0.70601 0.42629 0.0
O784 O 0.11537 0.73749 0.32235 0.0
O785 O 0.07939 0.7361 0.35659 0.0
O786 O 0.05159 0.72232 0.44606 0.0
O787 O 0.0773 0.75465 0.49406 0.0
O788 O 0.10882 0.78001 0.39991 0.0
O789 O 0.13415 0.76831 0.42263 0.0
O790 O 0.11828 0.74413 0.50641 0.0
O791 O 0.15656 0.75348 0.46597 0.0
H792 H 0.206 0.74252 0.2587 0.0
H793 H 0.22226 0.76752 0.18166 0.0
H794 H 0.18369 0.81091 0.21853 0.0
H795 H 0.16776 0.78597 0.29575 0.0
H796 H 0.04428 0.75902 0.56334 0.0
H797 H 0.02409 0.7377 0.64124 0.0
H798 H 0.00369 0.66309 0.57721 0.0
H799 H 0.02486 0.68449 0.50113 0.0
C800 C 0.24834 0.4273 0.3327 0.0
Eu801 Eu 0.26064 0.40012 0.3922 0.0
C802 C 0.23389 0.4215 0.28451 0.0
C803 C 0.23861 0.4417 0.25133 0.0
C804 C 0.22444 0.43652 0.20669 0.0
C805 C 0.20501 0.41094 0.19389 0.0
C806 C 0.20049 0.3907 0.2272 0.0
C807 C 0.21476 0.39588 0.27171 0.0
C808 C 0.3021 0.41421 0.45562 0.0
C809 C 0.26026 0.35477 0.31816 0.0
C810 C 0.2649 0.31824 0.48746 0.0
Eu811 Eu 0.25849 0.35285 0.43939 0.0
C812 C 0.27978 0.31737 0.52974 0.0
C813 C 0.28253 0.29545 0.53749 0.0
C814 C 0.29512 0.29383 0.58008 0.0
C815 C 0.30578 0.31453 0.61405 0.0
C816 C 0.30418 0.33702 0.60449 0.0
C817 C 0.2908 0.33818 0.56313 0.0
C818 C 0.21086 0.34416 0.40781 0.0
C819 C 0.24555 0.39095 0.5089 0.0
O820 O 0.23453 0.4146 0.37151 0.0
O821 O 0.27129 0.42891 0.33232 0.0
O822 O 0.2935 0.42936 0.43999 0.0
O823 O 0.29192 0.39354 0.42819 0.0
O824 O 0.26001 0.37682 0.32331 0.0
O825 O 0.26148 0.34235 0.35811 0.0
O826 O 0.27877 0.33112 0.44913 0.0
O827 O 0.24627 0.32336 0.49732 0.0
O828 O 0.2186 0.32724 0.40423 0.0
O829 O 0.22959 0.36445 0.4248 0.0
O830 O 0.25361 0.37351 0.50798 0.0
O831 O 0.24374 0.40203 0.46715 0.0
H832 H 0.25313 0.46161 0.26016 0.0
H833 H 0.22843 0.45274 0.1826 0.0
H834 H 0.18608 0.37071 0.21867 0.0
H835 H 0.21072 0.37982 0.29633 0.0
H836 H 0.27402 0.27921 0.51179 0.0
H837 H 0.29552 0.2761 0.5877 0.0
H838 H 0.31145 0.35285 0.6311 0.0
H839 H 0.28796 0.35474 0.5584 0.0
C840 C 0.15387 0.23717 0.0983 0.0
Eu841 Eu 0.19306 0.2648 1.03872 0.0
C842 C 0.14519 0.24293 0.14646 0.0
C843 C 0.12968 0.22271 0.17953 0.0
C844 C 0.12062 0.22786 0.22406 0.0
C845 C 0.12671 0.25344 0.23683 0.0
C846 C 0.14248 0.2737 0.20364 0.0
C847 C 0.15163 0.26854 0.15925 0.0
C848 C 0.22115 0.25111 0.97583 0.0
C849 C 0.23798 0.31021 0.11335 0.0
C850 C 0.27941 0.34464 0.94194 0.0
Eu851 Eu 0.23848 0.31203 0.99242 0.0
C852 C 0.29328 0.34046 0.90157 0.0
C853 C 0.30778 0.36007 0.86696 0.0
C854 C 0.31708 0.35403 0.82418 0.0
C855 C 0.31189 0.32836 0.81618 0.0
C856 C 0.29931 0.30964 0.85305 0.0
C857 C 0.28968 0.3155 0.89489 0.0
C858 C 0.19985 0.32133 1.02321 0.0
C859 C 0.18688 0.27463 0.92278 0.0
O860 O 0.15242 0.24967 0.05942 0.0
O861 O 0.17543 0.23596 0.09865 0.0
O862 O 0.19686 0.23623 0.98844 0.0
O863 O 0.23112 0.27131 1.00444 0.0
O864 O 0.21552 0.28834 0.10782 0.0
O865 O 0.25188 0.32253 0.07365 0.0
O866 O 0.28051 0.33464 0.98451 0.0
O867 O 0.25577 0.33947 0.93103 0.0
O868 O 0.22454 0.33825 1.026 0.0
O869 O 0.19812 0.30085 1.00679 0.0
O870 O 0.21248 0.29167 0.92384 0.0
O871 O 0.17401 0.26353 0.96442 0.0
H872 H 0.12431 0.2028 0.1707 0.0
H873 H 0.10837 0.21163 0.24806 0.0
H874 H 0.14802 0.29368 0.21216 0.0
H875 H 0.16366 0.28461 0.1347 0.0
H876 H 0.3106 0.37949 0.87162 0.0
H877 H 0.32657 0.36887 0.79594 0.0
H878 H 0.29584 0.29013 0.84795 0.0
H879 H 0.27831 0.30029 0.92112 0.0
C880 C 0.76469 0.91641 0.09878 0.0
Eu881 Eu 0.73696 0.92808 1.03948 0.0
C882 C 0.75857 0.90151 0.1465 0.0
C883 C 0.77835 0.90665 0.18111 0.0
C884 C 0.77281 0.89217 0.22542 0.0
C885 C 0.74728 0.87199 0.23642 0.0
C886 C 0.72747 0.86705 0.20169 0.0
C887 C 0.733 0.88163 0.15755 0.0
C888 C 0.75042 0.96961 0.97624 0.0
C889 C 0.69194 0.92756 0.11507 0.0
C890 C 0.65462 0.93226 0.94968 0.0
Eu891 Eu 0.68979 0.92573 0.99459 0.0
C892 C 0.65206 0.94462 0.90529 0.0
C893 C 0.62858 0.94404 0.89512 0.0
C894 C 0.62597 0.95518 0.85145 0.0
C895 C 0.64733 0.96824 0.81934 0.0
C896 C 0.67093 0.96908 0.83052 0.0
C897 C 0.67299 0.95671 0.87251 0.0
C898 C 0.68099 0.87804 1.02561 0.0
C899 C 0.72674 0.9123 0.92305 0.0
O900 O 0.75263 0.90285 0.05926 0.0
O901 O 0.76568 0.93906 0.0997 0.0
O902 O 0.76564 0.96079 0.99032 0.0
O903 O 0.73022 0.95949 1.00478 0.0
O904 O 0.71365 0.92668 0.10934 0.0
O905 O 0.67976 0.92938 0.07546 0.0
O906 O 0.67064 0.94827 0.98312 0.0
O907 O 0.6575 0.91199 0.94243 0.0
O908 O 0.66465 0.88635 1.03166 0.0
O909 O 0.70124 0.8965 1.00776 0.0
O910 O 0.70928 0.92034 0.92469 0.0
O911 O 0.73827 0.91081 0.96444 0.0
H912 H 0.79822 0.92177 0.17369 0.0
H913 H 0.78871 0.89653 0.25069 0.0
H914 H 0.70752 0.85206 0.20883 0.0
H915 H 0.71723 0.87726 0.13187 0.0
H916 H 0.61208 0.9342 0.91997 0.0
H917 H 0.60712 0.9528 0.84203 0.0
H918 H 0.68723 0.97769 0.80496 0.0
H919 H 0.69052 0.95571 0.87859 0.0
C920 C 0.08222 0.84342 0.09952 0.0
Eu921 Eu 0.07164 0.80465 1.03928 0.0
C922 C 0.09671 0.85232 0.14772 0.0
C923 C 0.09164 0.86753 0.18098 0.0
C924 C 0.10594 0.87686 0.22544 0.0
C925 C 0.12589 0.87136 0.238 0.0
C926 C 0.13072 0.85587 0.20465 0.0
C927 C 0.11633 0.84645 0.16033 0.0
C928 C 0.0309 0.77595 0.97518 0.0
C929 C 0.07185 0.75962 0.1131 0.0
C930 C 0.07323 0.72158 0.94397 0.0
Eu931 Eu 0.07622 0.76084 0.99307 0.0
C932 C 0.05877 0.70601 0.90091 0.0
C933 C 0.07202 0.70336 0.86032 0.0
C934 C 0.05864 0.69271 0.81601 0.0
C935 C 0.03195 0.68479 0.81222 0.0
C936 C 0.0186 0.68557 0.85417 0.0
C937 C 0.03187 0.696 0.89797 0.0
C938 C 0.12277 0.80054 1.02689 0.0
C939 C 0.08784 0.81139 0.92338 0.0
O940 O 0.09624 0.84539 0.06048 0.0
O941 O 0.05981 0.82151 0.09968 0.0
O942 O 0.03866 0.79966 0.99002 0.0
O943 O 0.04154 0.7662 1.00333 0.0
O944 O 0.07248 0.78209 0.10799 0.0
O945 O 0.07103 0.74617 0.07333 0.0
O946 O 0.05936 0.71918 0.98348 0.0
O947 O 0.09068 0.74582 0.93472 0.0
O948 O 0.11534 0.77606 1.03197 0.0
O949 O 0.10398 0.80155 1.00851 0.0
O950 O 0.08036 0.78605 0.92438 0.0
O951 O 0.08893 0.82403 0.96498 0.0
H952 H 0.07675 0.87247 0.17232 0.0
H953 H 0.10167 0.88887 0.24954 0.0
H954 H 0.14552 0.85076 0.21296 0.0
H955 H 0.12067 0.83467 0.13567 0.0
H956 H 0.09289 0.71094 0.86192 0.0
H957 H 0.06962 0.69272 0.78387 0.0
H958 H 0.99831 0.68009 0.85198 0.0
H959 H 0.02134 0.69779 0.92844 0.0
C960 C 0.32469 0.05325 0.77808 0.0
Eu961 Eu 0.35527 0.09536 0.82692 0.0
C962 C 0.32697 0.04258 0.73107 0.0
C963 C 0.31424 0.01555 0.72358 0.0
C964 C 0.31859 0.00555 0.68002 0.0
C965 C 0.33573 0.02263 0.64401 0.0
C966 C 0.34789 0.04967 0.65152 0.0
C967 C 0.34366 0.05953 0.69476 0.0
C968 C 0.34473 0.13312 0.85639 0.0
C969 C 0.39223 0.14705 0.75728 0.0
C970 C 0.42896 0.18113 0.93328 0.0
Eu971 Eu 0.40192 0.14168 0.87374 0.0
C972 C 0.42308 0.18996 0.98118 0.0
C973 C 0.44323 0.20543 1.0145 0.0
C974 C 0.438 0.21458 0.05885 0.0
C975 C 0.41242 0.20863 0.07121 0.0
C976 C 0.39223 0.19292 1.03777 0.0
C977 C 0.39747 0.18367 0.99356 0.0
C978 C 0.41574 0.11317 0.81232 0.0
C979 C 0.35644 0.0963 0.94717 0.0
O980 O 0.34114 0.05463 0.81205 0.0
O981 O 0.32315 0.07454 0.77523 0.0
O982 O 0.32829 0.1083 0.86009 0.0
O983 O 0.3657 0.13565 0.84048 0.0
O984 O 0.37538 0.12141 0.75839 0.0
O985 O 0.40309 0.16016 0.79888 0.0
O986 O 0.41647 0.18229 0.89408 0.0
O987 O 0.43043 0.15973 0.93415 0.0
O988 O 0.43091 0.13741 0.82518 0.0
O989 O 0.39574 0.10371 0.84098 0.0
O990 O 0.37778 0.11923 0.94202 0.0
O991 O 0.34476 0.08193 0.90761 0.0
H992 H 0.30112 0.00225 0.75134 0.0
H993 H 0.3085 0.98465 0.67427 0.0
H994 H 0.36039 0.06333 0.62352 0.0
H995 H 0.35366 0.08044 0.69997 0.0
H996 H 0.46315 0.21068 1.00601 0.0
H997 H 0.45419 0.22679 0.08303 0.0
H998 H 0.37224 0.18748 1.04597 0.0
H999 H 0.38144 0.17167 0.96885 0.0
C1000 C 0.9472 0.27431 0.77805 0.0
Eu1001 Eu 0.90368 0.26182 0.82313 0.0
C1002 C 0.96247 0.28703 0.73386 0.0
C1003 C 0.98765 0.29059 0.72891 0.0
C1004 C 0.00182 0.30129 0.68539 0.0
C1005 C 0.99116 0.30922 0.64743 0.0
C1006 C 0.96635 0.30652 0.65345 0.0
C1007 C 0.95187 0.29496 0.69595 0.0
C1008 C 0.86655 0.21275 0.85077 0.0
C1009 C 0.85217 0.24661 0.75268 0.0
C1010 C 0.81589 0.24585 0.92831 0.0
Eu1011 Eu 0.8562 0.25999 0.8704 0.0
C1012 C 0.80726 0.23131 0.97628 0.0
C1013 C 0.79257 0.23667 1.01029 0.0
C1014 C 0.78373 0.22257 0.05494 0.0
C1015 C 0.78921 0.20256 0.0668 0.0
C1016 C 0.80414 0.1974 1.03269 0.0
C1017 C 0.81311 0.21162 0.98823 0.0
C1018 C 0.88329 0.30288 0.81024 0.0
C1019 C 0.90189 0.26065 0.94451 0.0
O1020 O 0.9444 0.28947 0.80983 0.0
O1021 O 0.92571 0.25204 0.77133 0.0
O1022 O 0.89148 0.2216 0.85424 0.0
O1023 O 0.86356 0.23103 0.8356 0.0
O1024 O 0.87789 0.25567 0.75407 0.0
O1025 O 0.83878 0.24382 0.79419 0.0
O1026 O 0.81583 0.23241 0.88963 0.0
O1027 O 0.83656 0.26926 0.92947 0.0
O1028 O 0.85909 0.29317 0.82384 0.0
O1029 O 0.89357 0.29271 0.83799 0.0
O1030 O 0.87885 0.25891 0.93922 0.0
O1031 O 0.91636 0.26369 0.9048 0.0
H1032 H 0.99595 0.28426 0.75791 0.0
H1033 H 0.02053 0.3025 0.68054 0.0
H1034 H 0.95738 0.3116 0.62363 0.0
H1035 H 0.93206 0.29123 0.69832 0.0
H1036 H 0.78773 0.25168 1.00214 0.0
H1037 H 0.77214 0.22706 0.07979 0.0
H1038 H 0.80918 0.18251 1.04059 0.0
H1039 H 0.82458 0.20713 0.96302 0.0
C1040 C 0.73279 0.67756 0.78171 0.0
Eu1041 Eu 0.74123 0.64397 0.82834 0.0
C1042 C 0.72161 0.67826 0.73397 0.0
C1043 C 0.70574 0.6896 0.72991 0.0
C1044 C 0.69175 0.68659 0.6862 0.0
C1045 C 0.69329 0.67177 0.64717 0.0
C1046 C 0.71023 0.6617 0.65064 0.0
C1047 C 0.72443 0.66508 0.69355 0.0
C1048 C 0.78881 0.65233 0.85833 0.0
C1049 C 0.75504 0.60649 0.75656 0.0
C1050 C 0.74887 0.56704 0.93248 0.0
Eu1051 Eu 0.73949 0.59589 0.87194 0.0
C1052 C 0.76441 0.57292 0.97942 0.0
C1053 C 0.75886 0.55315 1.01424 0.0
C1054 C 0.77335 0.55851 0.05851 0.0
C1055 C 0.79392 0.58386 0.06945 0.0
C1056 C 0.7994 0.60365 1.03431 0.0
C1057 C 0.78487 0.59827 0.99006 0.0
C1058 C 0.6971 0.584 0.81168 0.0
C1059 C 0.74279 0.64204 0.94732 0.0
O1060 O 0.71627 0.66029 0.81284 0.0
O1061 O 0.75502 0.67783 0.78026 0.0
O1062 O 0.78109 0.66925 0.8636 0.0
O1063 O 0.77023 0.63213 0.84049 0.0
O1064 O 0.74727 0.62421 0.75885 0.0
O1065 O 0.75672 0.59478 0.79745 0.0
O1066 O 0.76212 0.57726 0.89162 0.0
O1067 O 0.72746 0.56851 0.93438 0.0
O1068 O 0.70538 0.568 0.8229 0.0
O1069 O 0.70837 0.60371 0.84096 0.0
O1070 O 0.74762 0.62286 0.93926 0.0
O1071 O 0.73566 0.65152 0.90986 0.0
H1072 H 0.70347 0.69989 0.76101 0.0
H1073 H 0.67926 0.69507 0.68336 0.0
H1074 H 0.71253 0.65119 0.61994 0.0
H1075 H 0.73693 0.6566 0.69564 0.0
H1076 H 0.74328 0.53344 1.00715 0.0
H1077 H 0.76859 0.54257 0.08391 0.0
H1078 H 0.81471 0.62349 1.04128 0.0
H1079 H 0.78961 0.61401 0.96413 0.0
C1080 C 0.71941 0.65316 0.31549 0.0
Eu1081 Eu 0.76171 0.68616 0.26903 0.0
C1082 C 0.70764 0.6526 0.36323 0.0
C1083 C 0.68048 0.64147 0.36735 0.0
C1084 C 0.66963 0.64437 0.4113 0.0
C1085 C 0.68609 0.65889 0.45048 0.0
C1086 C 0.71306 0.66886 0.44682 0.0
C1087 C 0.72373 0.66556 0.4037 0.0
C1088 C 0.80034 0.6767 0.2399 0.0
C1089 C 0.81325 0.72283 0.34082 0.0
C1090 C 0.84681 0.76205 0.16476 0.0
Eu1091 Eu 0.80851 0.73368 0.22553 0.0
C1092 C 0.85638 0.75612 0.11772 0.0
C1093 C 0.8706 0.77591 0.08294 0.0
C1094 C 0.87983 0.7706 1.03875 0.0
C1095 C 0.87516 0.74527 1.02781 0.0
C1096 C 0.86079 0.72545 0.06285 0.0
C1097 C 0.85153 0.73078 0.10701 0.0
C1098 C 0.77885 0.74651 0.28633 0.0
C1099 C 0.76535 0.68785 0.15011 0.0
O1100 O 0.72058 0.6707 0.28449 0.0
O1101 O 0.74109 0.65235 0.31699 0.0
O1102 O 0.77563 0.66018 0.23442 0.0
O1103 O 0.80235 0.69718 0.25721 0.0
O1104 O 0.78767 0.70553 0.33852 0.0
O1105 O 0.82674 0.73434 0.29995 0.0
O1106 O 0.84968 0.75167 0.20563 0.0
O1107 O 0.82408 0.76093 0.16288 0.0
O1108 O 0.80317 0.76206 0.27487 0.0
O1109 O 0.76994 0.72679 0.25688 0.0
O1110 O 0.78948 0.70667 0.15836 0.0
O1111 O 0.74865 0.67873 0.18739 0.0
H1112 H 0.66784 0.63135 0.33619 0.0
H1113 H 0.64869 0.63598 0.41426 0.0
H1114 H 0.72594 0.67918 0.47759 0.0
H1115 H 0.74468 0.67387 0.40156 0.0
H1116 H 0.87471 0.79561 0.09004 0.0
H1117 H 0.89102 0.78656 1.01344 0.0
H1118 H 0.85632 0.70563 0.0559 0.0
H1119 H 0.84051 0.71501 0.13284 0.0
C1120 C 0.34808 0.07139 0.31796 0.0
Eu1121 Eu 0.31282 0.07611 0.26938 0.0
C1122 C 0.34671 0.05666 0.36195 0.0
C1123 C 0.3628 0.04568 0.36679 0.0
C1124 C 0.3603 0.03047 0.40826 0.0
C1125 C 0.3413 0.02578 0.4442 0.0
C1126 C 0.32502 0.03653 0.43833 0.0
C1127 C 0.32773 0.05184 0.39763 0.0
C1128 C 0.31927 0.12257 0.23671 0.0
C1129 C 0.2736 0.08703 0.33955 0.0
C1130 C 0.23561 0.08058 0.1634 0.0
Eu1131 Eu 0.26443 0.07082 0.22363 0.0
C1132 C 0.24127 0.09527 0.11554 0.0
C1133 C 0.22104 0.09056 0.08239 0.0
C1134 C 0.22614 0.10496 1.03808 0.0
C1135 C 0.25168 0.12462 1.02558 0.0
C1136 C 0.27194 0.12914 0.0589 0.0
C1137 C 0.26683 0.11466 0.10308 0.0
C1138 C 0.25298 0.03008 0.28739 0.0
C1139 C 0.31058 0.07306 0.14948 0.0
O1140 O 0.3355 0.05694 0.27994 0.0
O1141 O 0.3437 0.09078 0.32474 0.0
O1142 O 0.33662 0.11548 0.23182 0.0
O1143 O 0.29939 0.10369 0.25469 0.0
O1144 O 0.29194 0.0802 0.33834 0.0
O1145 O 0.26178 0.08777 0.298 0.0
O1146 O 0.24719 0.09454 0.2028 0.0
O1147 O 0.23581 0.0585 0.16297 0.0
O1148 O 0.23681 0.03765 0.27286 0.0
O1149 O 0.27325 0.04092 0.25906 0.0
O1150 O 0.28823 0.0727 0.15459 0.0
O1151 O 0.32331 0.07245 0.18923 0.0
H1152 H 0.37726 0.04896 0.3388 0.0
H1153 H 0.37329 0.02266 0.41264 0.0
H1154 H 0.31084 0.0341 0.46632 0.0
H1155 H 0.31491 0.0599 0.39413 0.0
H1156 H 0.20116 0.07585 0.09098 0.0
H1157 H 0.2099 0.10096 1.01401 0.0
H1158 H 0.2919 0.14373 1.05062 0.0
H1159 H 0.2829 0.11873 0.12774 0.0
C1160 C 0.93256 0.27871 0.32087 0.0
Eu1161 Eu 0.92473 0.23822 0.26926 0.0
C1162 C 0.95084 0.29239 0.36111 0.0
C1163 C 0.94688 0.30817 0.39462 0.0
C1164 C 0.96251 0.31751 0.43714 0.0
C1165 C 0.98207 0.31106 0.4459 0.0
C1166 C 0.98709 0.29714 0.41009 0.0
C1167 C 0.97133 0.28749 0.36856 0.0
C1168 C 0.8771 0.19935 0.23797 0.0
C1169 C 0.9113 0.18659 0.33774 0.0
C1170 C 0.91738 0.15502 0.16188 0.0
Eu1171 Eu 0.92766 0.19373 0.2221 0.0
C1172 C 0.90305 0.14593 0.11359 0.0
C1173 C 0.9083 0.13064 0.08089 0.0
C1174 C 0.89413 0.12107 1.03637 0.0
C1175 C 0.87415 0.12641 1.02319 0.0
C1176 C 0.86913 0.14198 0.05599 0.0
C1177 C 0.88339 0.15163 0.10038 0.0
C1178 C 0.96916 0.22203 0.28587 0.0
C1179 C 0.92561 0.23818 0.14835 0.0
O1180 O 0.94347 0.28019 0.27796 0.0
O1181 O 0.9144 0.25492 0.33142 0.0
O1182 O 0.88446 0.22396 0.23608 0.0
O1183 O 0.89598 0.19767 0.25411 0.0
O1184 O 0.91947 0.21209 0.33724 0.0
O1185 O 0.90979 0.17403 0.29581 0.0
O1186 O 0.90319 0.15302 0.20068 0.0
O1187 O 0.9397 0.17702 0.16177 0.0
O1188 O 0.95998 0.19779 0.27317 0.0
O1189 O 0.95876 0.23183 0.25712 0.0
O1190 O 0.9257 0.21602 0.15337 0.0
O1191 O 0.92697 0.25181 0.18835 0.0
H1192 H 0.93097 0.31203 0.38932 0.0
H1193 H 0.95811 0.32811 0.46463 0.0
H1194 H 0.0024 0.29268 0.41603 0.0
H1195 H 0.97424 0.27512 0.3432 0.0
H1196 H 0.92322 0.12581 0.09005 0.0
H1197 H 0.89854 0.109 1.01272 0.0
H1198 H 0.8543 0.14697 1.04718 0.0
H1199 H 0.8789 0.16346 0.12464 0.0
C1200 C 0.23417 0.15123 0.66407 0.0
Eu1201 Eu 0.26199 0.1902 0.72408 0.0
C1202 C 0.24009 0.14253 0.616 0.0
C1203 C 0.22001 0.12715 0.58247 0.0
C1204 C 0.22534 0.11819 0.53796 0.0
C1205 C 0.25097 0.12424 0.5256 0.0
C1206 C 0.27108 0.13988 0.55926 0.0
C1207 C 0.26573 0.14892 0.60363 0.0
C1208 C 0.25036 0.21973 0.78668 0.0
C1209 C 0.30741 0.23499 0.64932 0.0
C1210 C 0.34492 0.27675 0.81622 0.0
Eu1211 Eu 0.31061 0.2354 0.76926 0.0
C1212 C 0.34601 0.28941 0.86316 0.0
C1213 C 0.35839 0.31671 0.86584 0.0
C1214 C 0.35638 0.32869 0.90897 0.0
C1215 C 0.34155 0.31324 0.94892 0.0
C1216 C 0.33016 0.28603 0.94661 0.0
C1217 C 0.33251 0.27422 0.9042 0.0
C1218 C 0.31812 0.19607 0.73645 0.0
C1219 C 0.27281 0.18428 0.83982 0.0
O1220 O 0.24623 0.14943 0.70337 0.0
O1221 O 0.23333 0.17299 0.66367 0.0
O1222 O 0.23398 0.19585 0.7734 0.0
O1223 O 0.27036 0.22868 0.75795 0.0
O1224 O 0.28568 0.21242 0.65504 0.0
O1225 O 0.31991 0.24905 0.68861 0.0
O1226 O 0.32844 0.27684 0.78396 0.0
O1227 O 0.3439 0.25417 0.81904 0.0
O1228 O 0.33507 0.22066 0.73129 0.0
O1229 O 0.29813 0.19472 0.75479 0.0
O1230 O 0.29112 0.20949 0.83816 0.0
O1231 O 0.26049 0.1715 0.7988 0.0
H1232 H 0.20006 0.12182 0.59092 0.0
H1233 H 0.2092 0.10604 0.51364 0.0
H1234 H 0.2911 0.14541 0.55113 0.0
H1235 H 0.28172 0.16086 0.62849 0.0
H1236 H 0.36888 0.32864 0.83418 0.0
H1237 H 0.36574 0.34975 0.91074 0.0
H1238 H 0.31949 0.27385 0.97789 0.0
H1239 H 0.32316 0.25315 0.90311 0.0
C1240 C 0.84783 0.08201 0.66106 0.0
Eu1241 Eu 0.80882 0.07088 0.72089 0.0
C1242 C 0.85646 0.09683 0.61323 0.0
C1243 C 0.87101 0.09164 0.57857 0.0
C1244 C 0.87982 0.10606 0.53417 0.0
C1245 C 0.87444 0.12624 0.52311 0.0
C1246 C 0.85964 0.13122 0.55789 0.0
C1247 C 0.85073 0.1167 0.60212 0.0
C1248 C 0.78051 0.02957 0.78434 0.0
C1249 C 0.76427 0.07172 0.64576 0.0
C1250 C 0.72344 0.06863 0.81134 0.0
Eu1251 Eu 0.76461 0.07418 0.76604 0.0
C1252 C 0.70846 0.05648 0.85574 0.0
C1253 C 0.68554 0.05712 0.86527 0.0
C1254 C 0.67156 0.04597 0.90867 0.0
C1255 C 0.67968 0.03286 0.94118 0.0
C1256 C 0.70252 0.03204 0.93074 0.0
C1257 C 0.71715 0.0444 0.88898 0.0
C1258 C 0.80388 0.12146 0.73408 0.0
C1259 C 0.81482 0.0867 0.8372 0.0
O1260 O 0.84967 0.09569 0.70059 0.0
O1261 O 0.82604 0.05949 0.66045 0.0
O1262 O 0.80442 0.03799 0.77007 0.0
O1263 O 0.7706 0.03996 0.7559 0.0
O1264 O 0.78675 0.07233 0.65129 0.0
O1265 O 0.75054 0.07027 0.68545 0.0
O1266 O 0.72296 0.05242 0.77784 0.0
O1267 O 0.74681 0.08855 0.81849 0.0
O1268 O 0.77929 0.11354 0.72848 0.0
O1269 O 0.80541 0.10293 0.75243 0.0
O1270 O 0.78943 0.079 0.83568 0.0
O1271 O 0.82771 0.08803 0.79578 0.0
H1272 H 0.87579 0.07652 0.58603 0.0
H1273 H 0.89131 0.10167 0.50889 0.0
H1274 H 0.85465 0.1462 0.55073 0.0
H1275 H 0.8394 0.12112 0.62784 0.0
H1276 H 0.67899 0.06694 0.84004 0.0
H1277 H 0.65502 0.04831 0.9175 0.0
H1278 H 0.71003 0.02336 0.9566 0.0
H1279 H 0.73566 0.0453 0.88336 0.0
C1280 C 0.91607 0.75973 0.66519 0.0
Eu1281 Eu 0.9277 0.73211 0.72477 0.0
C1282 C 0.90114 0.75394 0.61761 0.0
C1283 C 0.90646 0.77399 0.58366 0.0
C1284 C 0.89204 0.76886 0.53939 0.0
C1285 C 0.87176 0.74348 0.52775 0.0
C1286 C 0.86656 0.72339 0.56192 0.0
C1287 C 0.88109 0.72852 0.60608 0.0
C1288 C 0.9697 0.74511 0.78593 0.0
C1289 C 0.92629 0.68586 0.65147 0.0
C1290 C 0.93227 0.65102 0.82194 0.0
Eu1291 Eu 0.92521 0.68447 0.77175 0.0
C1292 C 0.94408 0.65186 0.86969 0.0
C1293 C 0.94705 0.67075 0.90425 0.0
C1294 C 0.96143 0.67439 0.94698 0.0
C1295 C 0.97314 0.6592 0.95595 0.0
C1296 C 0.96915 0.63935 0.9224 0.0
C1297 C 0.95469 0.63576 0.87915 0.0
C1298 C 0.87792 0.67645 0.74028 0.0
C1299 C 0.91274 0.72317 0.8414 0.0
O1300 O 0.90248 0.74773 0.7047 0.0
O1301 O 0.93859 0.76043 0.664 0.0
O1302 O 0.96145 0.76081 0.77194 0.0
O1303 O 0.95867 0.7246 0.75841 0.0
O1304 O 0.92548 0.70765 0.65651 0.0
O1305 O 0.92838 0.67386 0.69118 0.0
O1306 O 0.94862 0.66652 0.78834 0.0
O1307 O 0.91076 0.65215 0.82368 0.0
O1308 O 0.88548 0.65939 0.73583 0.0
O1309 O 0.89667 0.6966 0.75777 0.0
O1310 O 0.92034 0.70537 0.84018 0.0
O1311 O 0.91122 0.73451 0.79982 0.0
H1312 H 0.92169 0.79375 0.59154 0.0
H1313 H 0.89655 0.78497 0.5146 0.0
H1314 H 0.85146 0.70355 0.55426 0.0
H1315 H 0.87658 0.71258 0.63135 0.0
H1316 H 0.93885 0.68322 0.89763 0.0
H1317 H 0.96318 0.68903 0.97326 0.0
H1318 H 0.9776 0.62707 0.92918 0.0
H1319 H 0.95254 0.62112 0.85247 0.0
C1320 C 0.81879 0.56722 0.43174 0.0
Eu1321 Eu 0.8582 0.59504 0.37286 0.0
C1322 C 0.80987 0.57326 0.47937 0.0
C1323 C 0.7951 0.55339 0.5136 0.0
C1324 C 0.78611 0.55884 0.55791 0.0
C1325 C 0.79154 0.58436 0.56936 0.0
C1326 C 0.80646 0.60426 0.5349 0.0
C1327 C 0.81556 0.59881 0.49071 0.0
C1328 C 0.88748 0.58322 0.31008 0.0
C1329 C 0.90271 0.64026 0.44848 0.0
C1330 C 0.94452 0.67854 0.28255 0.0
Eu1331 Eu 0.9032 0.64366 0.3285 0.0
C1332 C 0.95709 0.67933 0.23577 0.0
C1333 C 0.98436 0.69104 0.23321 0.0
C1334 C 0.99604 0.68809 0.19053 0.0
C1335 C 0.98027 0.67281 0.15127 0.0
C1336 C 0.95317 0.66238 0.15321 0.0
C1337 C 0.94168 0.66572 0.195 0.0
C1338 C 0.86342 0.65073 0.36058 0.0
C1339 C 0.85281 0.60587 0.25672 0.0
O1340 O 0.81727 0.57927 0.39219 0.0
O1341 O 0.84049 0.56629 0.43289 0.0
O1342 O 0.86367 0.56693 0.32384 0.0
O1343 O 0.89668 0.60333 0.33873 0.0
O1344 O 0.88027 0.6184 0.44255 0.0
O1345 O 0.91667 0.65291 0.40926 0.0
O1346 O 0.94481 0.6623 0.3151 0.0
O1347 O 0.92179 0.67719 0.27941 0.0
O1348 O 0.88794 0.66776 0.36634 0.0
O1349 O 0.86238 0.63093 0.34209 0.0
O1350 O 0.87804 0.6241 0.25877 0.0
O1351 O 0.83984 0.59368 0.29767 0.0
H1352 H 0.79032 0.53353 0.50593 0.0
H1353 H 0.77449 0.54285 0.58289 0.0
H1354 H 0.81147 0.6242 0.54233 0.0
H1355 H 0.82702 0.61464 0.46526 0.0
H1356 H 0.99645 0.70163 0.26467 0.0
H1357 H 0.01705 0.69685 0.1888 0.0
H1358 H 0.94079 0.65154 0.12223 0.0
H1359 H 0.92064 0.65678 0.19603 0.0
C1360 C 0.42668 0.24986 0.43275 0.0
Eu1361 Eu 0.39897 0.26148 0.3732 0.0
C1362 C 0.4217 0.23525 0.48085 0.0
C1363 C 0.41438 0.24308 0.52447 0.0
C1364 C 0.40946 0.22874 0.56886 0.0
C1365 C 0.41155 0.206 0.57108 0.0
C1366 C 0.41876 0.19819 0.52727 0.0
C1367 C 0.42382 0.2126 0.48304 0.0
C1368 C 0.41172 0.30322 0.31095 0.0
C1369 C 0.35261 0.25949 0.44645 0.0
C1370 C 0.31894 0.26694 0.27541 0.0
Eu1371 Eu 0.35131 0.25855 0.32607 0.0
C1372 C 0.32288 0.28247 0.23107 0.0
C1373 C 0.30842 0.29501 0.22301 0.0
C1374 C 0.3132 0.31052 0.18085 0.0
C1375 C 0.33287 0.31397 0.14735 0.0
C1376 C 0.34752 0.30169 0.15656 0.0
C1377 C 0.3426 0.28617 0.19797 0.0
C1378 C 0.34312 0.21117 0.35667 0.0
C1379 C 0.39029 0.24639 0.25683 0.0
O1380 O 0.41428 0.23593 0.39381 0.0
O1381 O 0.42777 0.27259 0.43306 0.0
O1382 O 0.4274 0.29496 0.3251 0.0
O1383 O 0.39134 0.29233 0.33889 0.0
O1384 O 0.37494 0.25974 0.44158 0.0
O1385 O 0.34012 0.26067 0.40669 0.0
O1386 O 0.33149 0.28052 0.31432 0.0
O1387 O 0.32115 0.24617 0.26946 0.0
O1388 O 0.32593 0.21859 0.36049 0.0
O1389 O 0.36348 0.23009 0.34016 0.0
O1390 O 0.3723 0.25372 0.2579 0.0
O1391 O 0.40171 0.24507 0.29843 0.0
H1392 H 0.4123 0.26025 0.52437 0.0
H1393 H 0.40362 0.23531 0.60135 0.0
H1394 H 0.42094 0.18108 0.52723 0.0
H1395 H 0.4294 0.20597 0.45027 0.0
H1396 H 0.29337 0.2926 0.24889 0.0
H1397 H 0.30129 0.31937 0.17388 0.0
H1398 H 0.36212 0.30306 0.13058 0.0
H1399 H 0.35419 0.27692 0.20385 0.0
C1400 C 0.74922 0.17717 0.42869 0.0
Eu1401 Eu 0.73757 0.13781 0.36931 0.0
C1402 C 0.76388 0.18657 0.47662 0.0
C1403 C 0.75792 0.20098 0.51022 0.0
C1404 C 0.77224 0.21079 0.55451 0.0
C1405 C 0.79308 0.20657 0.56656 0.0
C1406 C 0.79886 0.19192 0.53284 0.0
C1407 C 0.78444 0.18201 0.48867 0.0
C1408 C 0.69548 0.10971 0.30696 0.0
C1409 C 0.73933 0.0931 0.44265 0.0
C1410 C 0.73049 0.05137 0.27059 0.0
Eu1411 Eu 0.73919 0.09221 0.3219 0.0
C1412 C 0.71259 0.03796 0.22964 0.0
C1413 C 0.71789 0.02387 0.19435 0.0
C1414 C 0.70295 0.01534 0.15089 0.0
C1415 C 0.68268 0.02088 0.14285 0.0
C1416 C 0.67631 0.03296 0.18039 0.0
C1417 C 0.69138 0.04181 0.22293 0.0
C1418 C 0.7872 0.13101 0.35214 0.0
C1419 C 0.75261 0.14366 0.25308 0.0
O1420 O 0.76301 0.17852 0.38967 0.0
O1421 O 0.72662 0.15547 0.42966 0.0
O1422 O 0.70483 0.13394 0.31989 0.0
O1423 O 0.70599 0.09977 0.33508 0.0
O1424 O 0.73965 0.11547 0.43766 0.0
O1425 O 0.73731 0.07907 0.40287 0.0
O1426 O 0.71927 0.05018 0.31304 0.0
O1427 O 0.74924 0.07494 0.26035 0.0
O1428 O 0.77975 0.10636 0.35396 0.0
O1429 O 0.76825 0.13261 0.3363 0.0
O1430 O 0.74402 0.11808 0.25392 0.0
O1431 O 0.75486 0.15665 0.29481 0.0
H1432 H 0.7423 0.20493 0.50198 0.0
H1433 H 0.76722 0.22214 0.57891 0.0
H1434 H 0.8144 0.18782 0.54078 0.0
H1435 H 0.78949 0.17086 0.46374 0.0
H1436 H 0.73439 0.02087 0.19898 0.0
H1437 H 0.70855 0.00627 0.12222 0.0
H1438 H 0.66044 0.03673 0.17533 0.0
H1439 H 0.68739 0.05286 0.24964 0.0
C1440 C 0.09957 0.44159 1.00655 0.0
C1441 C 0.09802 0.41721 1.00021 0.0
H1442 H 0.09469 0.46797 0.05408 0.0
C1443 C 0.08928 0.40045 1.04205 0.0
H1444 H 0.10721 0.45576 0.97677 0.0
C1445 C 0.08177 0.40746 0.08742 0.0
C1446 C 0.08282 0.43173 0.09303 0.0
H1447 H 0.08862 0.382 1.04009 0.0
H1448 H 0.07583 0.39416 0.1185 0.0
C1449 C 0.09225 0.44864 1.05153 0.0
C1450 C 0.59259 0.67405 1.02628 0.0
C1451 C 0.576 0.68153 1.00212 0.0
H1452 H 0.59991 0.65717 0.09229 0.0
C1453 C 0.55259 0.67501 1.02732 0.0
H1454 H 0.61044 0.67789 1.00817 0.0
C1455 C 0.54598 0.66201 0.07345 0.0
C1456 C 0.56242 0.65482 0.09855 0.0
H1457 H 0.53888 0.68003 1.01125 0.0
H1458 H 0.52745 0.65754 0.08961 0.0
C1459 C 0.58625 0.66159 0.07427 0.0
C1460 C 0.32536 0.91563 0.08555 0.0
C1461 C 0.34764 0.91303 0.0926 0.0
H1462 H 0.29401 0.91024 1.03662 0.0
C1463 C 0.35457 0.90247 1.05213 0.0
H1464 H 0.31845 0.9226 0.11581 0.0
C1465 C 0.34045 0.89532 1.00691 0.0
C1466 C 0.31849 0.89827 0.99924 0.0
H1467 H 0.37081 0.89901 0.05573 0.0
H1468 H 0.34644 0.8867 0.97801 0.0
C1469 C 0.31116 0.90843 1.03978 0.0
C1470 C 0.4503 0.11084 0.69297 0.0
C1471 C 0.43332 0.08694 0.66932 0.0
H1472 H 0.4584 0.137 0.75372 0.0
C1473 C 0.40951 0.07072 0.69431 0.0
H1474 H 0.46888 0.12428 0.67623 0.0
C1475 C 0.4034 0.07815 0.7411 0.0
C1476 C 0.42075 0.10233 0.76414 0.0
H1477 H 0.39568 0.0523 0.67779 0.0
H1478 H 0.38511 0.06506 0.75897 0.0
C1479 C 0.44424 0.11825 0.73851 0.0
C1480 C 0.88226 0.33787 0.69059 0.0
C1481 C 0.90556 0.34441 0.66507 0.0
H1482 H 0.85768 0.32068 0.75365 0.0
C1483 C 0.92257 0.33743 0.68891 0.0
H1484 H 0.86834 0.34263 0.67464 0.0
C1485 C 0.91654 0.32498 0.73674 0.0
C1486 C 0.89288 0.31827 0.76147 0.0
H1487 H 0.94054 0.3417 0.67073 0.0
H1488 H 0.93026 0.32047 0.75423 0.0
C1489 C 0.87611 0.32518 0.73694 0.0
C1490 C 0.67219 0.58997 0.68041 0.0
C1491 C 0.64957 0.56535 0.67382 0.0
H1492 H 0.70402 0.61562 0.72861 0.0
C1493 C 0.64271 0.54789 0.71436 0.0
H1494 H 0.67911 0.60374 0.65002 0.0
C1495 C 0.65721 0.55468 0.75921 0.0
C1496 C 0.67946 0.57939 0.76647 0.0
H1497 H 0.62622 0.52834 0.71109 0.0
H1498 H 0.65125 0.54009 0.78813 0.0
C1499 C 0.6867 0.59682 0.72582 0.0
C1500 C 0.89385 0.55222 0.25433 0.0
C1501 C 0.89933 0.57791 0.26386 0.0
H1502 H 0.89476 0.52468 0.20377 0.0
C1503 C 0.91141 0.59596 0.22465 0.0
H1504 H 0.88389 0.53729 0.28221 0.0
C1505 C 0.91757 0.58856 0.17812 0.0
C1506 C 0.91221 0.56275 0.16911 0.0
H1507 H 0.91517 0.61562 0.22926 0.0
H1508 H 0.92582 0.60287 0.14876 0.0
C1509 C 0.90011 0.54491 0.20857 0.0
C1510 C 0.44013 0.32523 0.23627 0.0
C1511 C 0.41732 0.31941 0.26293 0.0
H1512 H 0.46508 0.34315 0.17402 0.0
C1513 C 0.40154 0.32872 0.24153 0.0
H1514 H 0.4531 0.31869 0.25003 0.0
C1515 C 0.40869 0.34331 0.19577 0.0
C1516 C 0.43185 0.3491 0.16982 0.0
H1517 H 0.38374 0.3248 0.26002 0.0
H1518 H 0.39622 0.35018 0.18102 0.0
C1519 C 0.4471 0.33947 0.19156 0.0
C1520 C 0.64426 0.06797 0.20465 0.0
C1521 C 0.65123 0.08557 0.16434 0.0
H1522 H 0.65186 0.06098 0.28039 0.0
C1523 C 0.67305 0.11053 0.17215 0.0
H1524 H 0.62726 0.04895 0.20145 0.0
C1525 C 0.68738 0.11741 0.21718 0.0
C1526 C 0.68081 0.09979 0.25739 0.0
H1527 H 0.67877 0.12523 0.14351 0.0
H1528 H 0.7035 0.13714 0.22087 0.0
C1529 C 0.65861 0.07491 0.25026 0.0
C1530 C 0.56972 0.88168 0.54464 0.0
C1531 C 0.58088 0.8994 0.50461 0.0
H1532 H 0.55335 0.87374 0.61831 0.0
C1533 C 0.58385 0.9244 0.51222 0.0
H1534 H 0.56592 0.8619 0.54066 0.0
C1535 C 0.57658 0.93131 0.55804 0.0
C1536 C 0.56582 0.91359 0.59815 0.0
H1537 H 0.59117 0.93846 0.48231 0.0
H1538 H 0.57879 0.9504 0.56156 0.0
C1539 C 0.56242 0.88854 0.58987 0.0
C1540 C 0.1067 0.65566 0.56915 0.0
C1541 C 0.08363 0.6495 0.59517 0.0
H1542 H 0.13171 0.67349 0.507 0.0
C1543 C 0.0676 0.65831 0.57306 0.0
H1544 H 0.1199 0.64955 0.58355 0.0
C1545 C 0.07469 0.6727 0.52715 0.0
C1546 C 0.09799 0.67863 0.50162 0.0
H1547 H 0.04958 0.65403 0.59094 0.0
H1548 H 0.06209 0.67929 0.51191 0.0
C1549 C 0.11357 0.6696 0.52415 0.0
C1550 C 0.33947 0.41261 0.57633 0.0
C1551 C 0.3456 0.43657 0.59951 0.0
H1552 H 0.32198 0.38675 0.51279 0.0
C1553 C 0.3375 0.45209 0.57384 0.0
H1554 H 0.34512 0.39983 0.59421 0.0
C1555 C 0.32418 0.44451 0.52811 0.0
C1556 C 0.31793 0.42082 0.50429 0.0
H1557 H 0.34154 0.47066 0.58914 0.0
H1558 H 0.31861 0.45765 0.51135 0.0
C1559 C 0.32604 0.40499 0.52937 0.0
C1560 C 0.76931 0.77657 0.33916 0.0
C1561 C 0.76625 0.75159 0.33179 0.0
H1562 H 0.76551 0.80342 0.38736 0.0
C1563 C 0.75586 0.73426 0.37258 0.0
H1564 H 0.77813 0.79111 0.31021 0.0
C1565 C 0.74853 0.74142 0.41805 0.0
C1566 C 0.75116 0.76633 0.42474 0.0
H1567 H 0.75392 0.71525 0.36984 0.0
H1568 H 0.74143 0.72762 0.44842 0.0
C1569 C 0.76199 0.78369 0.3841 0.0
C1570 C 0.25743 0.99339 0.40681 0.0
C1571 C 0.23224 0.98366 0.42784 0.0
H1572 H 0.28413 0.01507 0.34647 0.0
C1573 C 0.21495 0.9889 0.40061 0.0
H1574 H 0.27154 0.98992 0.42573 0.0
C1575 C 0.22205 0.00299 0.35572 0.0
C1576 C 0.24703 0.01306 0.33435 0.0
H1577 H 0.19534 0.98201 0.41404 0.0
H1578 H 0.20751 0.00621 0.33777 0.0
C1579 C 0.26469 0.00784 0.36088 0.0
C1580 C 0.00654 0.25683 0.34181 0.0
C1581 C 0.98379 0.23224 0.33546 0.0
H1582 H 0.03835 0.28258 0.39 0.0
C1583 C 0.97661 0.21511 0.3766 0.0
H1584 H 0.01367 0.2704 0.31108 0.0
C1585 C 0.99078 0.22222 0.42187 0.0
C1586 C 0.01314 0.24689 0.42892 0.0
H1587 H 0.96012 0.19557 0.37353 0.0
H1588 H 0.98449 0.20788 0.45132 0.0
C1589 C 0.02088 0.26389 0.38748 0.0
C1590 C 0.22053 0.22889 0.84051 0.0
C1591 C 0.2455 0.23204 0.83263 0.0
H1592 H 0.19386 0.2324 0.8895 0.0
C1593 C 0.26308 0.24235 0.87307 0.0
H1594 H 0.20587 0.22018 0.8117 0.0
C1595 C 0.25611 0.24948 0.91892 0.0
C1596 C 0.23116 0.2467 0.92615 0.0
H1597 H 0.2821 0.24429 0.86978 0.0
H1598 H 0.27005 0.25654 0.9491 0.0
C1599 C 0.21359 0.23599 0.88578 0.0
C1600 C 0.78646 0.00584 0.85701 0.0
C1601 C 0.77018 0.01345 0.83255 0.0
H1602 H 0.79328 0.98702 0.91821 0.0
C1603 C 0.74634 0.00656 0.85692 0.0
H1604 H 0.80498 0.01037 0.84075 0.0
C1605 C 0.73983 0.99356 0.90439 0.0
C1606 C 0.75627 0.98568 0.92793 0.0
H1607 H 0.73279 0.0113 0.83941 0.0
H1608 H 0.72196 0.98961 0.92256 0.0
C1609 C 0.77969 0.99232 0.90262 0.0
C1610 C 0.00471 0.7404 0.90674 0.0
C1611 C 0.01582 0.76603 0.92601 0.0
H1612 H 0.98181 0.71322 0.84807 0.0
C1613 C 0.01245 0.78394 0.89673 0.0
H1614 H 0.00643 0.72589 0.92778 0.0
C1615 C 0.99855 0.77684 0.8516 0.0
C1616 C 0.98697 0.7513 0.8323 0.0
H1617 H 0.02055 0.80395 0.90883 0.0
H1618 H 0.99657 0.79173 0.83194 0.0
C1619 C 0.99053 0.73313 0.86069 0.0
C1620 C 0.03276 0.37208 0.90644 0.0
C1621 C 0.01214 0.35029 0.92993 0.0
H1622 H 0.05037 0.38962 0.83737 0.0
C1623 C 0.99818 0.3269 0.90355 0.0
H1624 H 0.0441 0.39037 0.92594 0.0
C1625 C 0.00253 0.32645 0.85282 0.0
C1626 C 0.01991 0.34951 0.82814 0.0
H1627 H 0.98286 0.30959 0.92131 0.0
H1628 H 0.99056 0.30892 0.83209 0.0
C1629 C 0.03672 0.3716 0.85575 0.0
C1630 C 0.66333 0.62319 0.90909 0.0
C1631 C 0.6651 0.64282 0.94047 0.0
H1632 H 0.65641 0.60841 0.83548 0.0
C1633 C 0.66927 0.6664 0.92009 0.0
H1634 H 0.66021 0.60485 0.92404 0.0
C1635 C 0.66666 0.66846 0.86912 0.0
C1636 C 0.66056 0.64707 0.83838 0.0
H1637 H 0.67138 0.68187 0.94425 0.0
H1638 H 0.66726 0.6858 0.85444 0.0
C1639 C 0.66089 0.62522 0.85825 0.0
C1640 C 0.33669 0.96336 0.91181 0.0
C1641 C 0.33722 0.98547 0.93242 0.0
H1642 H 0.33571 0.94336 0.84532 0.0
C1643 C 0.33033 0.00059 0.90295 0.0
H1644 H 0.34178 0.9512 0.93376 0.0
C1645 C 0.3264 0.99562 0.85221 0.0
C1646 C 0.33004 0.97614 0.83066 0.0
H1647 H 0.3299 0.01727 0.91835 0.0
H1648 H 0.32334 0.00864 0.82906 0.0
C1649 C 0.33288 0.95859 0.86117 0.0
C1650 C 0.9704 0.63246 0.34097 0.0
C1651 C 0.99493 0.65011 0.32022 0.0
H1652 H 0.94871 0.61502 0.40667 0.0
C1653 C 0.01472 0.66788 0.35162 0.0
H1654 H 0.95435 0.61821 0.31888 0.0
C1655 C 0.01194 0.66432 0.40259 0.0
C1656 C 0.98845 0.64469 0.42294 0.0
H1657 H 0.03345 0.68248 0.33717 0.0
H1658 H 0.02912 0.67496 0.42515 0.0
C1659 C 0.96702 0.63038 0.39197 0.0
C1660 C 0.32714 0.35933 0.35708 0.0
C1661 C 0.33931 0.34843 0.32942 0.0
H1662 H 0.32311 0.37172 0.42898 0.0
C1663 C 0.34855 0.33359 0.35354 0.0
H1664 H 0.32008 0.3711 0.33945 0.0
C1665 C 0.34906 0.33281 0.405 0.0
C1666 C 0.34144 0.34795 0.43245 0.0
H1667 H 0.35907 0.32609 0.33302 0.0
H1668 H 0.35916 0.32387 0.42253 0.0
C1669 C 0.3289 0.35973 0.40844 0.0
C1670 C 0.64354 0.97517 0.36113 0.0
C1671 C 0.65187 0.9969 0.33041 0.0
H1672 H 0.6338 0.96147 0.43514 0.0
C1673 C 0.66568 0.02207 0.35079 0.0
H1674 H 0.6324 0.95562 0.34613 0.0
C1675 C 0.66818 0.02545 0.40191 0.0
C1676 C 0.65549 0.00364 0.43268 0.0
H1677 H 0.6714 0.03905 0.32788 0.0
H1678 H 0.67618 0.04495 0.41694 0.0
C1679 C 0.64466 0.97853 0.41226 0.0
C1680 C 0.66443 0.66515 0.23016 0.0
C1681 C 0.67969 0.68622 0.26158 0.0
H1682 H 0.65633 0.65232 0.15464 0.0
C1683 C 0.70217 0.70805 0.24263 0.0
H1684 H 0.64745 0.64786 0.24418 0.0
C1685 C 0.70706 0.71041 0.19195 0.0
C1686 C 0.68934 0.69113 0.15984 0.0
H1687 H 0.71446 0.7246 0.26601 0.0
H1688 H 0.72254 0.72877 0.17768 0.0
C1689 C 0.66957 0.66752 0.17937 0.0
C1690 C 0.30883 0.00497 0.19133 0.0
C1691 C 0.31725 0.99087 0.16282 0.0
H1692 H 0.29973 0.0114 0.26445 0.0
C1693 C 0.33144 0.98044 0.18529 0.0
H1694 H 0.29754 0.01284 0.17469 0.0
C1695 C 0.33412 0.981 0.23652 0.0
C1696 C 0.32125 0.99065 0.26564 0.0
H1697 H 0.33721 0.96864 0.16416 0.0
H1698 H 0.34242 0.97006 0.25301 0.0
C1699 C 0.31031 0.00435 0.24277 0.0
C1700 C 0.02197 0.35895 0.2349 0.0
C1701 C 0.01256 0.33704 0.26553 0.0
H1702 H 0.03248 0.37261 0.1608 0.0
C1703 C 0.99803 0.31201 0.24495 0.0
H1704 H 0.03371 0.37838 0.25008 0.0
C1705 C 0.99572 0.30876 0.1938 0.0
C1706 C 0.00938 0.33051 0.16323 0.0
H1707 H 0.99177 0.2949 0.2678 0.0
H1708 H 0.98713 0.28921 0.1787 0.0
C1709 C 0.02107 0.35565 0.18374 0.0
C1710 C 0.63092 0.95922 0.68684 0.0
C1711 C 0.65357 0.98072 0.6675 0.0
H1712 H 0.61046 0.93896 0.75201 0.0
C1713 C 0.66927 0.00174 0.69871 0.0
H1714 H 0.61829 0.94268 0.66375 0.0
C1715 C 0.66438 -0.00043 0.74959 0.0
C1716 C 0.64428 0.97624 0.76942 0.0
H1717 H 0.68641 0.0188 0.68446 0.0
H1718 H 0.67798 0.01466 0.77412 0.0
C1719 C 0.62619 0.95711 0.73755 0.0
C1720 C -0.00036 0.69639 0.70362 0.0
C1721 C 0.00868 0.68716 0.66513 0.0
H1722 H 0.00117 0.70392 0.78071 0.0
C1723 C 0.01998 0.67173 0.6765 0.0
H1724 H 0.99047 0.70793 0.69588 0.0
C1725 C 0.02515 0.66842 0.72539 0.0
C1726 C 0.01953 0.68092 0.76336 0.0
H1727 H 0.0274 0.66453 0.64774 0.0
H1728 H 0.03558 0.65807 0.73303 0.0
C1729 C 0.00549 0.69374 0.75237 0.0
C1730 C 0.33659 0.33547 0.73709 0.0
C1731 C 0.31477 0.3198 0.76648 0.0
H1732 H 0.35142 0.34434 0.66321 0.0
C1733 C 0.29356 0.29745 0.7456 0.0
H1734 H 0.35343 0.35238 0.75263 0.0
C1735 C 0.2927 0.29293 0.69487 0.0
C1736 C 0.31277 0.31099 0.66451 0.0
H1737 H 0.27643 0.28487 0.76738 0.0
H1738 H 0.27485 0.27742 0.67888 0.0
C1739 C 0.33562 0.33082 0.68624 0.0
C1740 C 0.31585 0.99763 0.56763 0.0
C1741 C 0.33841 0.01324 0.59527 0.0
H1742 H 0.29915 0.99065 0.4955 0.0
C1743 C 0.36274 0.02579 0.57141 0.0
H1744 H 0.29681 0.9881 0.58507 0.0
C1745 C 0.36418 0.02562 0.52004 0.0
C1746 C 0.34111 0.01414 0.49227 0.0
H1747 H 0.38036 0.03813 0.59212 0.0
H1748 H 0.38288 0.03794 0.50255 0.0
C1749 C 0.31717 0.99858 0.51617 0.0
C1750 C 0.00249 0.33725 0.52253 0.0
C1751 C 0.99368 0.31416 0.49547 0.0
H1752 H 0.01237 0.35466 0.5945 0.0
C1753 C 0.99298 0.29241 0.51829 0.0
H1754 H 0.00403 0.3545 0.50528 0.0
C1755 C 0.99726 0.29255 0.569 0.0
C1756 C 0.00202 0.31429 0.59725 0.0
H1757 H 0.98649 0.27436 0.49816 0.0
H1758 H 0.99326 0.27451 0.58687 0.0
C1759 C 0.00724 0.3374 0.57325 0.0
C1760 C 0.68812 0.69029 0.56969 0.0
C1761 C 0.67966 0.66844 0.60015 0.0
H1762 H 0.6979 0.70419 0.49578 0.0
C1763 C 0.66564 0.64334 0.57953 0.0
H1764 H 0.6994 0.70978 0.58488 0.0
C1765 C 0.66312 0.64013 0.52837 0.0
C1766 C 0.67595 0.66201 0.49781 0.0
H1767 H 0.65976 0.62627 0.60231 0.0
H1768 H 0.65498 0.62065 0.51312 0.0
C1769 C 0.68694 0.68708 0.51851 0.0
C1770 C 0.36178 0.33924 1.02384 0.0
C1771 C 0.3393 0.32468 0.99541 0.0
H1772 H 0.37733 0.34651 0.09705 0.0
C1773 C 0.31468 0.3143 1.01769 0.0
H1774 H 0.38095 0.3471 1.00736 0.0
C1775 C 0.31255 0.3154 0.06879 0.0
C1776 C 0.33508 0.32551 0.09808 0.0
H1777 H 0.29715 0.30221 0.99666 0.0
H1778 H 0.29334 0.3045 0.08527 0.0
C1779 C 0.35968 0.33915 0.07523 0.0
C1780 C 0.66903 0.04349 1.0228 0.0
C1781 C 0.66818 0.02454 0.99066 0.0
H1782 H 0.67491 0.05733 0.097 0.0
C1783 C 0.66462 0.001 1.01007 0.0
H1784 H 0.67167 0.06178 1.00862 0.0
C1785 C 0.66685 0.9984 0.06099 0.0
C1786 C 0.67203 0.01922 0.09264 0.0
H1787 H 0.66329 0.98607 0.98529 0.0
H1788 H 0.66672 0.98117 0.07499 0.0
C1789 C 0.67112 0.04093 0.07358 0.0
C1790 C 0.97811 0.64072 1.03397 0.0
C1791 C 0.9867 0.66252 1.00338 0.0
H1792 H 0.96824 0.62716 0.10747 0.0
C1793 C 0.00196 0.68765 1.02376 0.0
H1794 H 0.9662 0.62118 1.01939 0.0
C1795 C 0.0048 0.69094 0.07483 0.0
C1796 C 0.99121 0.66924 0.10543 0.0
H1797 H 0.00859 0.70493 1.00131 0.0
H1798 H 0.01355 0.7105 0.08991 0.0
C1799 C 0.97978 0.6441 0.08496 0.0
C1800 C 0.05316 0.49342 0.95225 0.0
C1801 C 0.07054 0.52059 0.95126 0.0
H1802 H 0.03469 0.45819 0.99556 0.0
C1803 C 0.08267 0.53277 0.99627 0.0
H1804 H 0.04362 0.48313 0.91852 0.0
C1805 C 0.07753 0.51841 1.04058 0.0
C1806 C 0.06017 0.49128 1.04157 0.0
H1807 H 0.09589 0.55362 0.99759 0.0
H1808 H 0.08715 0.52873 0.07425 0.0
C1809 C 0.04813 0.479 0.99659 0.0
C1810 C 0.51521 0.57191 1.0021 0.0
C1811 C 0.50314 0.57321 1.04623 0.0
H1812 H 0.511 0.56194 0.92464 0.0
C1813 C 0.47627 0.5648 1.04429 0.0
H1814 H 0.53581 0.57812 1.00182 0.0
C1815 C 0.46197 0.55544 0.99993 0.0
C1816 C 0.47394 0.55397 0.95576 0.0
H1817 H 0.46609 0.56526 0.07731 0.0
H1818 H 0.44131 0.54888 1.00058 0.0
C1819 C 0.50086 0.56239 0.9577 0.0
C1820 C 0.4281 0.94721 0.99591 0.0
C1821 C 0.42891 0.93551 1.04097 0.0
H1822 H 0.43597 0.95129 0.91755 0.0
C1823 C 0.43905 0.91843 1.0398 0.0
H1824 H 0.42045 0.96044 0.995 0.0
C1825 C 0.44802 0.9132 0.9953 0.0
C1826 C 0.44731 0.92489 0.95015 0.0
H1827 H 0.44023 0.9091 0.0735 0.0
H1828 H 0.45595 0.90021 0.99659 0.0
C1829 C 0.43721 0.94205 0.95132 0.0
C1830 C 0.47922 0.05158 0.76807 0.0
C1831 C 0.49147 0.06395 0.72332 0.0
H1832 H 0.48328 0.04699 0.84614 0.0
C1833 C 0.51848 0.08182 0.72474 0.0
H1834 H 0.4585 0.0377 0.76877 0.0
C1835 C 0.53277 0.08711 0.76919 0.0
C1836 C 0.52062 0.07468 0.81401 0.0
H1837 H 0.5288 0.09168 0.69124 0.0
H1838 H 0.55355 0.10069 0.76811 0.0
C1839 C 0.49355 0.0568 0.8126 0.0
C1840 C 0.91653 0.43992 0.72048 0.0
C1841 C 0.92944 0.42532 0.72084 0.0
H1842 H 0.90155 0.46036 0.76241 0.0
C1843 C 0.93731 0.4205 0.76713 0.0
H1844 H 0.91022 0.44424 0.68579 0.0
C1845 C 0.93233 0.4299 0.81153 0.0
C1846 C 0.91951 0.44464 0.81112 0.0
H1847 H 0.94735 0.40944 0.76915 0.0
H1848 H 0.93893 0.42592 0.84621 0.0
C1849 C 0.91173 0.44945 0.76469 0.0
C1850 C 0.55875 0.50472 0.81493 0.0
C1851 C 0.54894 0.47754 0.81578 0.0
H1852 H 0.57556 0.54 0.77178 0.0
C1853 C 0.54895 0.46539 0.77082 0.0
H1854 H 0.55944 0.51497 0.84867 0.0
C1855 C 0.55823 0.47979 0.72664 0.0
C1856 C 0.568 0.50693 0.72576 0.0
H1857 H 0.5413 0.44454 0.76945 0.0
H1858 H 0.55756 0.4695 0.69296 0.0
C1859 C 0.5682 0.51918 0.77071 0.0
C1860 C 0.91297 0.47545 0.22123 0.0
C1861 C 0.93147 0.50226 0.21901 0.0
H1862 H 0.8937 0.44082 0.26566 0.0
C1863 C 0.94462 0.51465 0.26313 0.0
H1864 H 0.90248 0.46508 0.18821 0.0
C1865 C 0.93956 0.50061 0.30788 0.0
C1866 C 0.92106 0.47375 0.31008 0.0
H1867 H 0.95897 0.53523 0.26314 0.0
H1868 H 0.94998 0.51094 0.34097 0.0
C1869 C 0.90781 0.46147 0.26595 0.0
C1870 C 0.53447 0.45552 0.26907 0.0
C1871 C 0.52159 0.45137 0.31499 0.0
H1872 H 0.53119 0.44993 0.19014 0.0
C1873 C 0.49404 0.43755 0.31455 0.0
H1874 H 0.55557 0.46574 0.26752 0.0
C1875 C 0.47994 0.42839 0.26983 0.0
C1876 C 0.4929 0.4325 0.22404 0.0
H1877 H 0.48327 0.43414 0.34882 0.0
H1878 H 0.45883 0.41806 0.27123 0.0
C1879 C 0.5204 0.44617 0.22448 0.0
C1880 C 0.56613 0.04968 0.26646 0.0
C1881 C 0.56645 0.06258 0.22224 0.0
H1882 H 0.55712 0.04429 0.34437 0.0
C1883 C 0.55725 0.08041 0.22436 0.0
H1884 H 0.57301 0.03582 0.26658 0.0
C1885 C 0.5481 0.08525 0.26895 0.0
C1886 C 0.54768 0.07239 0.31324 0.0
H1887 H 0.55693 0.09067 0.19131 0.0
H1888 H 0.54092 0.09887 0.26841 0.0
C1889 C 0.55682 0.05445 0.31118 0.0
C1890 C 0.477 0.91809 0.53896 0.0
C1891 C 0.50395 0.93617 0.54106 0.0
H1892 H 0.44221 0.89925 0.49488 0.0
C1893 C 0.51639 0.9491 0.49684 0.0
H1894 H 0.46653 0.90778 0.57202 0.0
C1895 C 0.50225 0.94414 0.4521 0.0
C1896 C 0.47526 0.92597 0.45006 0.0
H1897 H 0.53707 0.96314 0.49672 0.0
H1898 H 0.51261 0.95435 0.4189 0.0
C1899 C 0.46295 0.91305 0.49435 0.0
C1900 C 0.05329 0.55639 0.45207 0.0
C1901 C 0.07161 0.54774 0.45046 0.0
H1902 H 0.03429 0.57245 0.49577 0.0
C1903 C 0.08508 0.54925 0.49467 0.0
H1904 H 0.0427 0.55593 0.41893 0.0
C1905 C 0.08026 0.55881 0.53885 0.0
C1906 C 0.0619 0.56736 0.5405 0.0
H1907 H 0.09907 0.54255 0.49549 0.0
H1908 H 0.09087 0.55925 0.57197 0.0
C1909 C 0.04858 0.56611 0.49627 0.0
C1910 C 0.438 0.50017 0.45675 0.0
C1911 C 0.44629 0.52705 0.45506 0.0
H1912 H 0.42248 0.46519 0.5006 0.0
C1913 C 0.44476 0.53891 0.49932 0.0
H1914 H 0.4385 0.49012 0.42359 0.0
C1915 C 0.43549 0.52455 0.54358 0.0
C1916 C 0.42725 0.49772 0.5453 0.0
H1917 H 0.45121 0.55954 0.50014 0.0
H1918 H 0.43498 0.53465 0.57668 0.0
C1919 C 0.42857 0.48575 0.50105 0.0
C1920 C 0.72339 0.82925 0.2846 0.0
C1921 C 0.74139 0.85629 0.28377 0.0
H1922 H 0.70401 0.79401 0.3277 0.0
C1923 C 0.75371 0.86819 0.32882 0.0
H1924 H 0.71367 0.81918 0.25081 0.0
C1925 C 0.74815 0.8537 0.37302 0.0
C1926 C 0.73017 0.82672 0.37386 0.0
H1927 H 0.7674 0.88894 0.33024 0.0
H1928 H 0.75794 0.86381 0.40675 0.0
C1929 C 0.71794 0.81471 0.32884 0.0
C1930 C 0.12968 0.88325 0.32971 0.0
C1931 C 0.14152 0.88172 0.28541 0.0
H1932 H 0.13405 0.89321 0.40708 0.0
C1933 C 0.16845 0.89022 0.28702 0.0
H1934 H 0.10901 0.87666 0.33058 0.0
C1935 C 0.18294 0.89984 0.33124 0.0
C1936 C 0.171 0.90116 0.37553 0.0
H1937 H 0.17851 0.88975 0.25385 0.0
H1938 H 0.20354 0.90609 0.33067 0.0
C1939 C 0.14412 0.89272 0.37392 0.0
C1940 C 0.10864 0.27764 0.2864 0.0
C1941 C 0.11673 0.25888 0.2844 0.0
H1942 H 0.09321 0.29707 0.33058 0.0
C1943 C 0.11511 0.2453 0.32845 0.0
H1944 H 0.10923 0.28835 0.25338 0.0
C1945 C 0.10586 0.2503 0.37281 0.0
C1946 C 0.09775 0.26899 0.37481 0.0
H1947 H 0.12143 0.231 0.329 0.0
H1948 H 0.10523 0.2395 0.40574 0.0
C1949 C 0.09924 0.28255 0.33081 0.0
C1950 C 0.16285 0.38674 0.14393 0.0
C1951 C 0.18966 0.40547 0.14615 0.0
H1952 H 0.12808 0.36732 0.09941 0.0
C1953 C 0.2017 0.41903 0.10215 0.0
H1954 H 0.15268 0.37605 0.17689 0.0
C1955 C 0.18754 0.41403 0.05763 0.0
C1956 C 0.16076 0.39536 0.0554 0.0
H1957 H 0.2223 0.43331 0.10178 0.0
H1958 H 0.19775 0.4248 1.02476 0.0
C1959 C 0.14862 0.38182 0.09935 0.0
C1960 C 0.61351 0.76481 0.09819 0.0
C1961 C 0.60011 0.7637 0.05414 0.0
H1962 H 0.61969 0.77492 0.17558 0.0
C1963 C 0.58204 0.77261 0.05617 0.0
H1964 H 0.62761 0.75822 0.09841 0.0
C1965 C 0.57751 0.78228 0.10053 0.0
C1966 C 0.59098 0.78357 0.14463 0.0
H1967 H 0.57139 0.77231 1.02323 0.0
H1968 H 0.5637 0.78922 0.09993 0.0
C1969 C 0.60908 0.77464 0.14259 0.0
C1970 C 0.2228 0.83385 0.14354 0.0
C1971 C 0.21459 0.80699 0.14567 0.0
H1972 H 0.23844 0.86873 0.09926 0.0
C1973 C 0.2162 0.79502 0.10161 0.0
H1974 H 0.22221 0.844 0.1765 0.0
C1975 C 0.22559 0.80927 0.05725 0.0
C1976 C 0.23385 0.8361 0.05513 0.0
H1977 H 0.20978 0.7744 0.10104 0.0
H1978 H 0.22619 0.79907 1.02438 0.0
C1979 C 0.23232 0.84817 0.0991 0.0
C1980 C 0.60869 0.83699 0.64442 0.0
C1981 C 0.5906 0.80998 0.64532 0.0
H1982 H 0.62817 0.87218 0.60122 0.0
C1983 C 0.5782 0.79807 0.60033 0.0
H1984 H 0.61847 0.84706 0.67816 0.0
C1985 C 0.58378 0.81253 0.5561 0.0
C1986 C 0.60187 0.83948 0.55518 0.0
H1987 H 0.56442 0.77734 0.59899 0.0
H1988 H 0.57393 0.80241 0.52242 0.0
C1989 C 0.61417 0.85151 0.60015 0.0
C1990 C 0.18618 0.77362 0.55578 0.0
C1991 C 0.15869 0.76087 0.55558 0.0
H1992 H 0.22155 0.79222 0.59835 0.0
C1993 C 0.14601 0.75753 0.60148 0.0
H1994 H 0.19681 0.77676 0.5214 0.0
C1995 C 0.16035 0.76655 0.64603 0.0
C1996 C 0.18789 0.77943 0.6462 0.0
H1997 H 0.12493 0.74794 0.60308 0.0
H1998 H 0.14977 0.76377 0.68034 0.0
C1999 C 0.20049 0.78278 0.60017 0.0
C2000 C 0.22783 0.41515 0.55832 0.0
C2001 C 0.23657 0.39694 0.55688 0.0
H2002 H 0.21174 0.43418 0.60153 0.0
C2003 C 0.23578 0.38407 0.60143 0.0
H2004 H 0.22791 0.42542 0.52498 0.0
C2005 C 0.22638 0.38911 0.64574 0.0
C2006 C 0.21759 0.40733 0.64715 0.0
H2007 H 0.24228 0.36991 0.60212 0.0
H2008 H 0.2263 0.37888 0.67912 0.0
C2009 C 0.21859 0.4203 0.60258 0.0
C2010 C 0.13049 0.24586 0.82903 0.0
C2011 C 0.1426 0.25821 0.78414 0.0
H2012 H 0.13453 0.24127 0.90695 0.0
C2013 C 0.16972 0.27595 0.78544 0.0
H2014 H 0.10969 0.23238 0.83019 0.0
C2015 C 0.18412 0.28108 0.8299 0.0
C2016 C 0.1719 0.26879 0.87473 0.0
H2017 H 0.17998 0.28569 0.75184 0.0
H2018 H 0.20488 0.2948 0.82908 0.0
C2019 C 0.14483 0.2511 0.87343 0.0
C2020 C 0.75011 0.89389 0.87288 0.0
C2021 C 0.73202 0.90278 0.87492 0.0
H2022 H 0.76841 0.87721 0.8292 0.0
C2023 C 0.71854 0.90154 0.83089 0.0
H2024 H 0.76081 0.89427 0.90579 0.0
C2025 C 0.72291 0.89162 0.78653 0.0
C2026 C 0.74104 0.88272 0.78449 0.0
H2027 H 0.70442 0.90811 0.83066 0.0
H2028 H 0.71224 0.89125 0.75358 0.0
C2029 C 0.75458 0.88412 0.82856 0.0
C2030 C 0.09846 0.81456 0.83125 0.0
C2031 C 0.09694 0.82643 0.87549 0.0
H2032 H 0.10866 0.81907 0.75393 0.0
C2033 C 0.10512 0.85325 0.87386 0.0
H2034 H 0.09243 0.79402 0.83073 0.0
C2035 C 0.11453 0.86769 0.82969 0.0
C2036 C 0.11626 0.85593 0.78544 0.0
H2037 H 0.10447 0.86327 0.90696 0.0
H2038 H 0.12093 0.88831 0.83057 0.0
C2039 C 0.10802 0.82907 0.78706 0.0
C2040 C 0.4102 0.18936 0.70933 0.0
C2041 C 0.39744 0.16189 0.70934 0.0
H2042 H 0.42464 0.22456 0.66685 0.0
C2043 C 0.38926 0.14902 0.6633 0.0
H2044 H 0.4167 0.2001 0.74385 0.0
C2045 C 0.39383 0.16318 0.61876 0.0
C2046 C 0.40652 0.1907 0.61877 0.0
H2047 H 0.37931 0.12793 0.66158 0.0
H2048 H 0.38703 0.15247 0.58428 0.0
C2049 C 0.41457 0.20348 0.66494 0.0
C2050 C 0.84997 0.23705 0.6601 0.0
C2051 C 0.83748 0.23725 0.70447 0.0
H2052 H 0.84615 0.22752 0.58243 0.0
C2053 C 0.81033 0.22742 0.70276 0.0
H2054 H 0.87079 0.24439 0.65966 0.0
C2055 C 0.79614 0.21768 0.65842 0.0
C2056 C 0.80851 0.21726 0.61403 0.0
H2057 H 0.79983 0.227 0.73595 0.0
H2058 H 0.77527 0.20999 0.65927 0.0
C2059 C 0.83572 0.22715 0.61569 0.0
C2060 C 0.77317 0.60837 0.61899 0.0
C2061 C 0.78195 0.59014 0.6171 0.0
H2062 H 0.75759 0.62763 0.66345 0.0
C2063 C 0.78149 0.57739 0.66159 0.0
H2064 H 0.77291 0.61847 0.58566 0.0
C2065 C 0.77266 0.58263 0.70618 0.0
C2066 C 0.76384 0.60078 0.70812 0.0
H2067 H 0.7884 0.56356 0.66229 0.0
H2068 H 0.77294 0.57245 0.73936 0.0
C2069 C 0.76419 0.61355 0.66372 0.0
C2070 C 0.82933 0.72028 0.4782 0.0
C2071 C 0.85642 0.73807 0.48008 0.0
H2072 H 0.79444 0.70174 0.43372 0.0
C2073 C 0.86883 0.75075 0.43569 0.0
H2074 H 0.81891 0.71027 0.51149 0.0
C2075 C 0.85479 0.74587 0.39114 0.0
C2076 C 0.82774 0.72819 0.38919 0.0
H2077 H 0.88964 0.76424 0.43505 0.0
H2078 H 0.86532 0.75598 0.358 0.0
C2079 C 0.8152 0.71548 0.4335 0.0
C2080 C 0.2808 0.09731 0.43186 0.0
C2081 C 0.26741 0.09582 0.38757 0.0
H2082 H 0.2862 0.10709 0.50941 0.0
C2083 C 0.2485 0.10365 0.38934 0.0
H2084 H 0.29551 0.09152 0.4323 0.0
C2085 C 0.24317 0.11268 0.43371 0.0
C2086 C 0.25664 0.11436 0.47803 0.0
H2087 H 0.23782 0.10301 0.3562 0.0
H2088 H 0.22873 0.11881 0.43293 0.0
C2089 C 0.27556 0.10648 0.47624 0.0
C2090 C 0.89307 0.16892 0.47474 0.0
C2091 C 0.88414 0.1419 0.47568 0.0
H2092 H 0.90882 0.20413 0.43154 0.0
C2093 C 0.88456 0.12998 0.43067 0.0
H2094 H 0.89343 0.17902 0.50847 0.0
C2095 C 0.89343 0.14444 0.38642 0.0
C2096 C 0.90235 0.17142 0.38549 0.0
H2097 H 0.87759 0.10924 0.42931 0.0
H2098 H 0.89313 0.13432 0.35275 0.0
C2099 C 0.9021 0.18344 0.43046 0.0
C2100 C 0.24852 0.14262 0.8897 0.0
C2101 C 0.26719 0.1694 0.88781 0.0
H2102 H 0.22928 0.1077 0.9333 0.0
C2103 C 0.28071 0.18138 0.9319 0.0
H2104 H 0.23775 0.13251 0.85672 0.0
C2105 C 0.2758 0.167 0.97625 0.0
C2106 C 0.25709 0.14017 0.97813 0.0
H2107 H 0.29522 0.20192 0.93221 0.0
H2108 H 0.28649 0.17706 1.00932 0.0
C2109 C 0.24353 0.1283 0.93399 0.0
C2110 C 0.87078 0.11422 0.93176 0.0
C2111 C 0.85872 0.11583 0.97568 0.0
H2112 H 0.86678 0.10403 0.85456 0.0
C2113 C 0.83177 0.10721 0.97356 0.0
H2114 H 0.89147 0.12091 0.93128 0.0
C2115 C 0.81747 0.09741 0.9292 0.0
C2116 C 0.82964 0.09601 0.88529 0.0
H2117 H 0.82155 0.10775 1.00644 0.0
H2118 H 0.79685 0.09108 0.92933 0.0
C2119 C 0.85654 0.10457 0.88742 0.0
C2120 C 0.89479 0.74713 0.89102 0.0
C2121 C 0.90382 0.72915 0.88954 0.0
H2122 H 0.87856 0.76598 0.9343 0.0
C2123 C 0.90337 0.71651 0.9342 0.0
H2124 H 0.89454 0.75719 0.85762 0.0
C2125 C 0.89412 0.72161 0.97867 0.0
C2126 C 0.88508 0.73964 0.98016 0.0
H2127 H 0.91008 0.70251 0.9349 0.0
H2128 H 0.89437 0.7116 1.01211 0.0
C2129 C 0.88565 0.7523 0.93541 0.0
C2130 C 0.81115 0.58214 0.20652 0.0
C2131 C 0.83813 0.60011 0.20839 0.0
H2132 H 0.77626 0.5633 0.1627 0.0
C2133 C 0.85051 0.61275 0.1639 0.0
H2134 H 0.80072 0.57209 0.23979 0.0
C2135 C 0.83634 0.60761 0.11917 0.0
C2136 C 0.8093 0.58957 0.11731 0.0
H2137 H 0.87122 0.62669 0.16354 0.0
H2138 H 0.84672 0.61758 0.08582 0.0
C2139 C 0.79703 0.57697 0.16191 0.0
C2140 C 0.42028 0.22025 0.16295 0.0
C2141 C 0.40688 0.21869 0.11863 0.0
H2142 H 0.42568 0.22996 0.24039 0.0
C2143 C 0.38817 0.22685 0.12024 0.0
H2144 H 0.43456 0.21391 0.16381 0.0
C2145 C 0.38307 0.23618 0.16453 0.0
C2146 C 0.39638 0.23754 0.20885 0.0
H2147 H 0.3776 0.22631 0.08703 0.0
H2148 H 0.36851 0.24218 0.16402 0.0
C2149 C 0.41508 0.22943 0.20722 0.0
C2150 C 0.77022 0.1602 0.11585 0.0
C2151 C 0.77949 0.18727 0.11442 0.0
H2152 H 0.75424 0.12526 0.15979 0.0
C2153 C 0.77942 0.1996 0.15908 0.0
H2154 H 0.76962 0.14985 0.08231 0.0
C2155 C 0.77058 0.18546 0.20361 0.0
C2156 C 0.76135 0.15844 0.20506 0.0
H2157 H 0.78665 0.22039 0.15991 0.0
H2158 H 0.77116 0.19586 0.23707 0.0
C2159 C 0.76121 0.14601 0.1604 0.0
C2160 C 0.97859 0.40289 0.33842 0.0
C2161 C 0.00586 0.41621 0.33078 0.0
H2162 H 0.94661 0.38858 0.39045 0.0
C2163 C 0.02156 0.42337 0.37406 0.0
H2164 H 0.96561 0.3972 0.30672 0.0
C2165 C 0.01055 0.41765 0.42256 0.0
C2166 C 0.98331 0.40531 0.43021 0.0
H2167 H 0.0426 0.43374 0.37048 0.0
H2168 H 0.02355 0.42392 0.45426 0.0
C2169 C 0.96761 0.39798 0.3869 0.0
C2170 C 0.59676 0.57488 0.39381 0.0
C2171 C 0.58837 0.58214 0.43708 0.0
H2172 H 0.59803 0.57431 0.3137 0.0
C2173 C 0.57454 0.59562 0.4296 0.0
H2174 H 0.60733 0.56441 0.39731 0.0
C2175 C 0.56844 0.60062 0.38117 0.0
C2176 C 0.57667 0.59319 0.3379 0.0
H2177 H 0.56738 0.60137 0.46135 0.0
H2178 H 0.55697 0.61017 0.37766 0.0
C2179 C 0.59143 0.58067 0.34542 0.0
C2180 C 0.39914 0.97181 0.37472 0.0
C2181 C 0.40702 0.98788 0.33197 0.0
H2182 H 0.39784 0.96913 0.45483 0.0
C2183 C 0.41967 0.01506 0.34046 0.0
H2184 H 0.38945 0.95083 0.37048 0.0
C2185 C 0.42525 0.02564 0.38928 0.0
C2186 C 0.41762 0.00957 0.43203 0.0
H2187 H 0.42634 0.02832 0.30919 0.0
H2188 H 0.43589 0.04664 0.39351 0.0
C2189 C 0.40392 0.98238 0.42356 0.0
C2190 C 0.01137 0.58935 0.92064 0.0
C2191 C 0.98411 0.57523 0.928 0.0
H2192 H 0.04341 0.60461 0.86883 0.0
C2193 C 0.96833 0.56758 0.88492 0.0
H2194 H 0.02435 0.59547 0.95236 0.0
C2195 C 0.97935 0.57355 0.83659 0.0
C2196 C 0.00663 0.58669 0.82927 0.0
H2197 H 0.9473 0.55667 0.88851 0.0
H2198 H 0.96639 0.56685 0.80482 0.0
C2199 C 0.02238 0.59457 0.87237 0.0
C2200 C 0.42057 0.40915 0.84248 0.0
C2201 C 0.40768 0.42354 0.83492 0.0
H2202 H 0.43726 0.39382 0.89464 0.0
C2203 C 0.39996 0.43162 0.87792 0.0
H2204 H 0.42714 0.40271 0.81083 0.0
C2205 C 0.40508 0.42579 0.9263 0.0
C2206 C 0.41896 0.41239 0.93386 0.0
H2207 H 0.39011 0.44281 0.8742 0.0
H2208 H 0.39911 0.43281 0.95794 0.0
C2209 C 0.42648 0.40409 0.89089 0.0
C2210 C 0.56037 0.0048 0.90573 0.0
C2211 C 0.58341 0.01041 0.9314 0.0
H2212 H 0.5366 0.98904 0.84028 0.0
C2213 C 0.60108 0.00493 0.90631 0.0
H2214 H 0.54612 0.00855 0.92337 0.0
C2215 C 0.59655 0.9957 0.85648 0.0
C2216 C 0.57299 0.98908 0.83171 0.0
H2217 H 0.61862 0.0082 0.92492 0.0
H2218 H 0.61134 0.99334 0.83765 0.0
C2219 C 0.55492 0.99363 0.85768 0.0
C2220 C 0.63596 0.73476 0.71873 0.0
C2221 C 0.6517 0.74173 0.76195 0.0
H2222 H 0.63392 0.73397 0.63853 0.0
C2223 C 0.67888 0.75338 0.75419 0.0
H2224 H 0.61501 0.72589 0.72236 0.0
C2225 C 0.68985 0.75877 0.7057 0.0
C2226 C 0.67414 0.75195 0.6625 0.0
H2227 H 0.69192 0.75936 0.78582 0.0
H2228 H 0.71087 0.7686 0.70208 0.0
C2229 C 0.64689 0.73935 0.67019 0.0
C2230 C 0.26288 0.89979 0.7208 0.0
C2231 C 0.2565 0.90931 0.76358 0.0
H2232 H 0.26311 0.89772 0.64078 0.0
C2233 C 0.2454 0.92531 0.75551 0.0
H2234 H 0.27144 0.88744 0.72484 0.0
C2235 C 0.2399 0.93061 0.70698 0.0
C2236 C 0.2461 0.92093 0.66425 0.0
H2237 H 0.23994 0.93295 0.78693 0.0
H2238 H 0.23046 0.94216 0.70292 0.0
C2239 C 0.25822 0.90585 0.67221 0.0
C2240 C 0.09606 0.35926 0.72142 0.0
C2241 C 0.088 0.3434 0.76437 0.0
H2242 H 0.09691 0.36144 0.64137 0.0
C2243 C 0.07383 0.31616 0.7566 0.0
H2244 H 0.1071 0.38027 0.72525 0.0
C2245 C 0.06881 0.30528 0.70814 0.0
C2246 C 0.07677 0.32114 0.66519 0.0
H2247 H 0.06743 0.30309 0.78817 0.0
H2248 H 0.05864 0.28426 0.70431 0.0
C2249 C 0.0901 0.34839 0.67295 0.0
C2250 C 0.69602 0.93151 0.21042 0.0
C2251 C 0.68031 0.92454 0.16719 0.0
H2252 H 0.69802 0.93225 0.29062 0.0
C2253 C 0.65311 0.91284 0.17489 0.0
H2254 H 0.71698 0.94042 0.20682 0.0
C2255 C 0.64212 0.90741 0.22335 0.0
C2256 C 0.65781 0.91423 0.26657 0.0
H2257 H 0.64009 0.90687 0.14323 0.0
H2258 H 0.6211 0.89755 0.22694 0.0
C2259 C 0.68507 0.92688 0.25893 0.0
C2260 C 0.09263 0.73162 0.22257 0.0
C2261 C 0.08451 0.73981 0.26493 0.0
H2262 H 0.09439 0.73043 0.14263 0.0
C2263 C 0.07038 0.75285 0.25626 0.0
H2264 H 0.10362 0.72162 0.22715 0.0
C2265 C 0.06573 0.7586 0.20743 0.0
C2266 C 0.07424 0.7508 0.16508 0.0
H2267 H 0.06393 0.75976 0.28738 0.0
H2268 H 0.05574 0.7696 0.20286 0.0
C2269 C 0.08724 0.73663 0.17373 0.0
C2270 C 0.2607 0.34882 0.17429 0.0
C2271 C 0.24642 0.32164 0.16569 0.0
H2272 H 0.27576 0.38035 0.22744 0.0
C2273 C 0.23835 0.30554 0.20843 0.0
H2274 H 0.26718 0.3621 0.14307 0.0
C2275 C 0.24402 0.31608 0.25731 0.0
C2276 C 0.25727 0.34327 0.2659 0.0
H2277 H 0.22725 0.28456 0.20414 0.0
H2278 H 0.23696 0.3028 0.28854 0.0
C2279 C 0.26559 0.35936 0.22316 0.0
C2280 C 0.34961 0.09059 0.09028 0.0
C2281 C 0.32236 0.07641 0.0978 0.0
H2282 H 0.38149 0.10828 1.03823 0.0
C2283 C 0.30655 0.06743 0.0548 0.0
H2284 H 0.36259 0.09815 0.12192 0.0
C2285 C 0.31751 0.07259 1.00641 0.0
C2286 C 0.34472 0.08774 0.99888 0.0
H2287 H 0.28553 0.05655 0.05852 0.0
H2288 H 0.30452 0.06561 0.97473 0.0
C2289 C 0.36051 0.0965 1.04191 0.0
C2290 C 0.90179 0.26451 1.0398 0.0
C2291 C 0.91052 0.25749 0.99663 0.0
H2292 H 0.90025 0.26506 0.11996 0.0
C2293 C 0.92572 0.24546 1.00457 0.0
H2294 H 0.88997 0.27367 1.03605 0.0
C2295 C 0.93095 0.23973 1.05318 0.0
C2296 C 0.92206 0.24659 0.09632 0.0
H2297 H 0.93271 0.23941 0.97299 0.0
H2298 H 0.94186 0.22961 0.05694 0.0
C2299 C 0.9078 0.2596 0.08841 0.0
C2300 C 0.73137 0.66135 1.02276 0.0
C2301 C 0.74816 0.65427 0.99888 0.0
H2302 H 0.72158 0.67413 0.09052 0.0
C2303 C 0.77035 0.65826 1.02583 0.0
H2304 H 0.71455 0.6594 1.00315 0.0
C2305 C 0.77581 0.66933 0.07396 0.0
C2306 C 0.75851 0.67543 0.09872 0.0
H2307 H 0.78397 0.65331 1.00915 0.0
H2308 H 0.79352 0.67268 0.09233 0.0
C2309 C 0.73577 0.6705 0.07265 0.0
C2310 C 0.35657 0.26544 0.54091 0.0
C2311 C 0.34073 0.25571 0.4981 0.0
H2312 H 0.35884 0.26755 0.62089 0.0
C2313 C 0.31359 0.24023 0.5059 0.0
H2314 H 0.37752 0.27729 0.53697 0.0
C2315 C 0.30289 0.23386 0.55442 0.0
C2316 C 0.31874 0.24347 0.59729 0.0
H2317 H 0.30062 0.23203 0.47438 0.0
H2318 H 0.28203 0.22117 0.55834 0.0
C2319 C 0.34577 0.25984 0.5894 0.0
C2320 C 0.74032 0.0867 0.58609 0.0
C2321 C 0.75553 0.07467 0.59375 0.0
H2322 H 0.72379 0.10224 0.534 0.0
C2323 C 0.76389 0.06731 0.55058 0.0
H2324 H 0.73358 0.09297 0.61773 0.0
C2325 C 0.75751 0.07192 0.5021 0.0
C2326 C 0.74321 0.08491 0.49447 0.0
H2327 H 0.7757 0.05812 0.55421 0.0
H2328 H 0.76478 0.06625 0.47041 0.0
C2329 C 0.7347 0.0921 0.53764 0.0
C2330 C 0.93094 0.68985 0.55676 0.0
C2331 C 0.92279 0.674 0.59972 0.0
H2332 H 0.93202 0.69206 0.47676 0.0
C2333 C 0.90924 0.64675 0.59197 0.0
H2334 H 0.94129 0.71087 0.56057 0.0
C2335 C 0.90315 0.63587 0.54345 0.0
C2336 C 0.91113 0.65175 0.50051 0.0
H2337 H 0.9023 0.63371 0.62357 0.0
H2338 H 0.8919 0.61488 0.5396 0.0
C2339 C 0.92563 0.67898 0.50831 0.0
C2340 C 0.01859 0.50517 0.15204 0.0
C2341 C -0.00091 0.47962 0.16392 0.0
H2342 H 0.02946 0.53941 0.10905 0.0
C2343 C 0.97478 0.46904 0.14003 0.0
H2344 H 0.0377 0.51364 0.1691 0.0
C2345 C 0.97031 0.48354 0.10448 0.0
C2346 C 0.98992 0.50899 0.09228 0.0
H2347 H 0.95953 0.44921 0.14732 0.0
H2348 H 0.95115 0.4752 0.08767 0.0
C2349 C 0.01418 0.51959 0.11629 0.0
C2350 C 0.48704 0.51644 0.15717 0.0
C2351 C 0.51233 0.52242 0.17128 0.0
H2352 H 0.45352 0.49293 0.11238 0.0
C2353 C 0.52333 0.50864 0.1492 0.0
H2354 H 0.47832 0.52719 0.17266 0.0
C2355 C 0.50946 0.48962 0.11337 0.0
C2356 C 0.48418 0.48369 0.09919 0.0
H2357 H 0.54302 0.5132 0.15811 0.0
H2358 H 0.51814 0.47882 0.09792 0.0
C2359 C 0.4732 0.49746 0.12129 0.0
C2360 C 0.50408 0.98031 0.12099 0.0
C2361 C 0.51721 0.00403 0.09511 0.0
H2362 H 0.47477 0.95755 0.17455 0.0
C2363 C 0.51071 0.02344 0.10471 0.0
H2364 H 0.5092 0.96528 0.11573 0.0
C2365 C 0.49175 0.01942 0.13982 0.0
C2366 C 0.47859 0.9957 0.16569 0.0
H2367 H 0.5211 0.0422 0.08633 0.0
H2368 H 0.48672 0.03452 0.14517 0.0
C2369 C 0.4851 0.97628 0.15609 0.0
C2370 C 0.52339 0.01891 0.64376 0.0
C2371 C 0.51306 0.99489 0.66849 0.0
H2372 H 0.51655 0.042 0.59131 0.0
C2373 C 0.48731 0.97533 0.65816 0.0
H2374 H 0.5434 0.0341 0.64967 0.0
C2375 C 0.47232 0.97946 0.62326 0.0
C2376 C 0.48265 0.00345 0.59841 0.0
H2377 H 0.47913 0.95638 0.67575 0.0
H2378 H 0.45234 0.96421 0.61724 0.0
C2379 C 0.50836 0.02307 0.60892 0.0
C2380 C 0.01576 0.48987 0.62049 0.0
C2381 C 0.99103 0.47538 0.59851 0.0
H2382 H 0.04022 0.52122 0.66928 0.0
C2383 C 0.97162 0.48162 0.61026 0.0
H2384 H 0.03097 0.48521 0.61328 0.0
C2385 C 0.97659 0.50154 0.64381 0.0
C2386 C 0.00131 0.51605 0.66579 0.0
H2387 H 0.95222 0.47047 0.59462 0.0
H2388 H 0.96136 0.50619 0.65097 0.0
C2389 C 0.02078 0.50991 0.65387 0.0
C2390 C 0.50389 0.52878 0.62586 0.0
C2391 C 0.51811 0.51858 0.60266 0.0
H2392 H 0.47309 0.52181 0.67612 0.0
C2393 C 0.51193 0.49288 0.6136 0.0
H2394 H 0.50854 0.5487 0.61932 0.0
C2395 C 0.49234 0.47785 0.64759 0.0
C2396 C 0.47813 0.48804 0.67084 0.0
H2397 H 0.52294 0.48469 0.59706 0.0
H2398 H 0.48768 0.45792 0.65409 0.0
C2399 C 0.48421 0.5137 0.65974 0.0
C2400 C 0.64201 0.82337 0.43997 0.0
C2401 C 0.66206 0.84903 0.43068 0.0
H2402 H 0.63009 0.7876 0.47857 0.0
C2403 C 0.68606 0.85838 0.45518 0.0
H2404 H 0.62309 0.81587 0.42251 0.0
C2405 C 0.68974 0.84252 0.48867 0.0
C2406 C 0.6697 0.81684 0.49792 0.0
H2407 H 0.70168 0.87827 0.45003 0.0
H2408 H 0.70865 0.85003 0.50616 0.0
C2409 C 0.6457 0.80749 0.47342 0.0
C2410 C 0.19121 0.83674 0.47556 0.0
C2411 C 0.18095 0.8507 0.49962 0.0
H2412 H 0.18451 0.80686 0.42323 0.0
C2413 C 0.15546 0.84502 0.48803 0.0
H2414 H 0.211 0.84107 0.48254 0.0
C2415 C 0.14069 0.82617 0.45261 0.0
C2416 C 0.15095 0.81223 0.42852 0.0
H2417 H 0.1473 0.85594 0.50512 0.0
H2418 H 0.12088 0.82182 0.4457 0.0
C2419 C 0.17641 0.81785 0.44019 0.0
C2420 C 0.17191 0.31227 0.45584 0.0
C2421 C 0.18575 0.33653 0.43194 0.0
H2422 H 0.14188 0.28877 0.50763 0.0
C2423 C 0.17977 0.35613 0.44341 0.0
H2424 H 0.1765 0.29698 0.44901 0.0
C2425 C 0.16064 0.35176 0.47838 0.0
C2426 C 0.14676 0.32749 0.5022 0.0
H2427 H 0.19061 0.37524 0.4265 0.0
H2428 H 0.15603 0.36705 0.48513 0.0
C2429 C 0.15276 0.30789 0.4908 0.0
C2430 C 0.15654 0.30913 0.98832 0.0
C2431 C 0.1822 0.3288 0.99903 0.0
H2432 H 0.12165 0.29785 0.94701 0.0
C2433 C 0.19245 0.35283 0.97431 0.0
H2434 H 0.14837 0.29019 1.00592 0.0
C2435 C 0.17746 0.3569 0.93923 0.0
C2436 C 0.15182 0.3372 0.92846 0.0
H2437 H 0.21236 0.36817 0.98057 0.0
H2438 H 0.18559 0.37586 0.92175 0.0
C2439 C 0.14158 0.31318 0.95319 0.0
C2440 C 0.64718 0.83943 0.9791 0.0
C2441 C 0.67215 0.85287 1.00049 0.0
H2442 H 0.62172 0.80968 0.92851 0.0
C2443 C 0.69098 0.84631 0.9858 0.0
H2444 H 0.63241 0.84443 0.98842 0.0
C2445 C 0.68513 0.82703 0.95017 0.0
C2446 C 0.66015 0.81359 0.92878 0.0
H2447 H 0.7106 0.85682 1.00072 0.0
H2448 H 0.6999 0.82203 0.94084 0.0
C2449 C 0.64133 0.82016 0.94345 0.0
C2450 C 0.16076 0.80656 0.97716 0.0
C2451 C 0.14766 0.81758 1.00181 0.0
H2452 H 0.18943 0.81188 0.92314 0.0
C2453 C 0.15366 0.84307 0.98947 0.0
H2454 H 0.15609 0.78671 0.98457 0.0
C2455 C 0.17209 0.85714 0.95294 0.0
C2456 C 0.18519 0.84611 0.92832 0.0
H2457 H 0.14327 0.85173 1.00683 0.0
H2458 H 0.17681 0.87701 0.94556 0.0
C2459 C 0.17911 0.82059 0.94054 0.0
C2460 C 0.35073 0.18984 0.78392 0.0
C2461 C 0.32625 0.17895 0.76066 0.0
H2462 H 0.37491 0.18435 0.83587 0.0
C2463 C 0.30699 0.1534 0.77315 0.0
H2464 H 0.36578 0.20973 0.77639 0.0
C2465 C 0.31198 0.13911 0.8084 0.0
C2466 C 0.33646 0.15003 0.83168 0.0
H2467 H 0.2877 0.1448 0.75686 0.0
H2468 H 0.29696 0.11923 0.816 0.0
C2469 C 0.35566 0.17564 0.81934 0.0
C2470 C 0.86072 0.17337 0.80518 0.0
C2471 C 0.84979 0.1874 0.82641 0.0
H2472 H 0.85506 0.14241 0.75642 0.0
C2473 C 0.82419 0.18079 0.81319 0.0
H2474 H 0.88058 0.17833 0.81355 0.0
C2475 C 0.80999 0.16097 0.77897 0.0
C2476 C 0.82089 0.14691 0.75777 0.0
H2477 H 0.81541 0.19158 0.82824 0.0
H2478 H 0.79012 0.15602 0.77073 0.0
C2479 C 0.84643 0.15341 0.77115 0.0
C2480 C 0.83931 0.64482 0.78912 0.0
C2481 C 0.85282 0.66883 0.76432 0.0
H2482 H 0.80965 0.62166 0.84178 0.0
C2483 C 0.84665 0.68839 0.77501 0.0
H2484 H 0.84409 0.62961 0.78296 0.0
C2485 C 0.82757 0.68416 0.81002 0.0
C2486 C 0.81405 0.66014 0.83477 0.0
H2487 H 0.8573 0.70735 0.75744 0.0
H2488 H 0.8227 0.69932 0.81611 0.0
C2489 C 0.82029 0.64062 0.8242 0.0
C2490 C 0.85721 0.68296 0.31187 0.0
C2491 C 0.84629 0.65872 0.33596 0.0
H2492 H 0.85164 0.70674 0.2591 0.0
C2493 C 0.82066 0.63941 0.3239 0.0
H2494 H 0.87716 0.698 0.31901 0.0
C2495 C 0.80631 0.64416 0.28838 0.0
C2496 C 0.81727 0.66842 0.26434 0.0
H2497 H 0.81205 0.62028 0.34081 0.0
H2498 H 0.78634 0.62918 0.28125 0.0
C2499 C 0.84295 0.68764 0.27617 0.0
C2500 C 0.31125 0.17206 0.30886 0.0
C2501 C 0.33571 0.18623 0.332 0.0
H2502 H 0.28762 0.14196 0.25723 0.0
C2503 C 0.35554 0.18074 0.31936 0.0
H2504 H 0.29576 0.17624 0.31665 0.0
C2505 C 0.35119 0.16182 0.28392 0.0
C2506 C 0.32672 0.14763 0.26083 0.0
H2507 H 0.37478 0.19181 0.33572 0.0
H2508 H 0.36667 0.15761 0.27622 0.0
C2509 C 0.30689 0.15311 0.27346 0.0
C2510 C 0.83742 0.1906 0.28551 0.0
C2511 C 0.85189 0.18108 0.26098 0.0
H2512 H 0.80674 0.18255 0.33683 0.0
C2513 C 0.84623 0.15541 0.27053 0.0
H2514 H 0.84172 0.2105 0.28016 0.0
C2515 C 0.8268 0.1397 0.30432 0.0
C2516 C 0.81235 0.14924 0.32888 0.0
H2517 H 0.85751 0.14777 0.25306 0.0
H2518 H 0.8225 0.11981 0.3097 0.0
C2519 C 0.818 0.17491 0.31931 0.0
loop_
_geom_bond_atom_site_label_1
_geom_bond_atom_site_label_2
_geom_bond_distance
_geom_bond_site_symmetry_2
_ccdc_geom_bond_type
C0 Eu1 2.813 1_556 S
C0 C2 1.522 . S
C0 O20 1.248 1_556 S
C0 O21 1.249 1_556 S
Eu1 C0 2.813 1_554 S
Eu1 O20 2.473 . S
Eu1 O21 2.480 . S
Eu1 O22 2.430 . S
Eu1 O23 2.670 . S
Eu1 O24 2.394 . S
Eu1 O29 2.355 . S
Eu1 O31 2.374 . S
C2 C0 1.522 . S
C2 C3 1.372 . S
C2 C7 1.377 . S
C3 C2 1.372 . S
C3 C4 1.395 1_455 S
C3 H32 0.935 1_455 S
C4 C3 1.395 1_655 S
C4 C5 1.383 1_655 S
C4 H33 0.931 . S
C5 C4 1.383 1_455 S
C5 C6 1.394 . S
C6 C5 1.394 . S
C6 C7 1.378 . S
C6 H34 0.931 . S
C7 C2 1.377 . S
C7 C6 1.378 . S
C7 H35 0.931 . S
C8 O22 1.259 . S
C8 O23 1.270 . S
C9 O24 1.251 . S
C9 O25 1.251 . S
C10 Eu11 2.835 . S
C10 C12 1.500 . S
C10 O26 1.257 . S
C10 O27 1.260 . S
Eu11 C10 2.835 . S
Eu11 O23 2.355 . S
Eu11 O25 2.374 . S
Eu11 O26 2.473 . S
Eu11 O27 2.480 . S
Eu11 O28 2.430 . S
Eu11 O29 2.670 . S
Eu11 O30 2.394 . S
C12 C10 1.500 . S
C12 C13 1.377 . S
C12 C17 1.377 . S
C13 C12 1.377 . S
C13 C14 1.395 . S
C13 H36 0.931 . S
C14 C13 1.395 . S
C14 C15 1.383 . S
C14 H37 0.931 . S
C15 C14 1.383 . S
C15 C16 1.394 . S
C16 C15 1.394 . S
C16 C17 1.378 . S
C16 H38 0.931 . S
C17 C12 1.377 . S
C17 C16 1.378 . S
C17 H39 0.931 . S
C18 O28 1.259 . S
C18 O29 1.270 . S
C19 O30 1.251 . S
C19 O31 1.251 . S
O20 C0 1.248 1_554 S
O20 Eu1 2.473 . S
O21 C0 1.249 1_554 S
O21 Eu1 2.480 . S
O22 Eu1 2.430 . S
O22 C8 1.259 . S
O23 Eu1 2.670 . S
O23 C8 1.270 . S
O23 Eu11 2.355 . S
O24 Eu1 2.394 . S
O24 C9 1.251 . S
O25 C9 1.251 . S
O25 Eu11 2.374 . S
O26 C10 1.257 . S
O26 Eu11 2.473 . S
O27 C10 1.260 . S
O27 Eu11 2.480 . S
O28 Eu11 2.430 . S
O28 C18 1.259 . S
O29 Eu1 2.355 . S
O29 Eu11 2.670 . S
O29 C18 1.270 . S
O30 Eu11 2.394 . S
O30 C19 1.251 . S
O31 Eu1 2.374 . S
O31 C19 1.251 . S
H32 C3 0.935 1_655 S
H33 C4 0.931 . S
H34 C6 0.931 . S
H35 C7 0.931 . S
H36 C13 0.931 . S
H37 C14 0.931 . S
H38 C16 0.931 . S
H39 C17 0.931 . S
C40 Eu41 2.812 1_556 S
C40 C42 1.522 . S
C40 O60 1.248 1_556 S
C40 O61 1.249 1_556 S
Eu41 C40 2.812 1_554 S
Eu41 O60 2.473 . S
Eu41 O61 2.480 . S
Eu41 O62 2.430 . S
Eu41 O63 2.670 . S
Eu41 O64 2.394 . S
Eu41 O69 2.355 . S
Eu41 O71 2.374 . S
C42 C40 1.522 . S
C42 C43 1.377 . S
C42 C47 1.377 . S
C43 C42 1.377 . S
C43 C44 1.395 . S
C43 H72 0.931 . S
C44 C43 1.395 . S
C44 C45 1.383 . S
C44 H73 0.931 . S
C45 C44 1.383 . S
C45 C46 1.394 . S
C46 C45 1.394 . S
C46 C47 1.378 . S
C46 H74 0.931 . S
C47 C42 1.377 . S
C47 C46 1.378 . S
C47 H75 0.931 . S
C48 O62 1.259 . S
C48 O63 1.270 . S
C49 O64 1.251 . S
C49 O65 1.251 . S
C50 Eu51 2.835 . S
C50 C52 1.500 . S
C50 O66 1.257 . S
C50 O67 1.260 . S
Eu51 C50 2.835 . S
Eu51 O63 2.355 . S
Eu51 O65 2.374 . S
Eu51 O66 2.473 . S
Eu51 O67 2.480 . S
Eu51 O68 2.430 . S
Eu51 O69 2.670 . S
Eu51 O70 2.394 . S
C52 C50 1.500 . S
C52 C53 1.377 . S
C52 C57 1.377 . S
C53 C52 1.377 . S
C53 C54 1.395 . S
C53 H76 0.931 . S
C54 C53 1.395 . S
C54 C55 1.383 . S
C54 H77 0.931 . S
C55 C54 1.383 . S
C55 C56 1.394 . S
C56 C55 1.394 . S
C56 C57 1.378 . S
C56 H78 0.931 . S
C57 C52 1.377 . S
C57 C56 1.378 . S
C57 H79 0.931 . S
C58 O68 1.259 . S
C58 O69 1.270 . S
C59 O70 1.251 . S
C59 O71 1.251 . S
O60 C40 1.248 1_554 S
O60 Eu41 2.473 . S
O61 C40 1.249 1_554 S
O61 Eu41 2.480 . S
O62 Eu41 2.430 . S
O62 C48 1.259 . S
O63 Eu41 2.670 . S
O63 C48 1.270 . S
O63 Eu51 2.355 . S
O64 Eu41 2.394 . S
O64 C49 1.251 . S
O65 C49 1.251 . S
O65 Eu51 2.374 . S
O66 C50 1.257 . S
O66 Eu51 2.473 . S
O67 C50 1.260 . S
O67 Eu51 2.480 . S
O68 Eu51 2.430 . S
O68 C58 1.259 . S
O69 Eu41 2.355 . S
O69 Eu51 2.670 . S
O69 C58 1.270 . S
O70 Eu51 2.394 . S
O70 C59 1.251 . S
O71 Eu41 2.374 . S
O71 C59 1.251 . S
H72 C43 0.931 . S
H73 C44 0.931 . S
H74 C46 0.931 . S
H75 C47 0.931 . S
H76 C53 0.931 . S
H77 C54 0.931 . S
H78 C56 0.931 . S
H79 C57 0.931 . S
C80 Eu81 2.812 1_556 S
C80 C82 1.523 . S
C80 O100 1.247 1_556 S
C80 O101 1.248 1_556 S
Eu81 C80 2.812 1_554 S
Eu81 O100 2.473 . S
Eu81 O101 2.480 . S
Eu81 O102 2.430 . S
Eu81 O103 2.670 . S
Eu81 O104 2.394 . S
Eu81 O109 2.355 . S
Eu81 O111 2.374 . S
C82 C80 1.523 . S
C82 C83 1.374 . S
C82 C87 1.377 . S
C83 C82 1.374 . S
C83 C84 1.397 1_565 S
C83 H112 0.932 1_565 S
C84 C83 1.397 1_545 S
C84 C85 1.383 1_545 S
C84 H113 0.931 . S
C85 C84 1.383 1_565 S
C85 C86 1.394 . S
C86 C85 1.394 . S
C86 C87 1.378 . S
C86 H114 0.931 . S
C87 C82 1.377 . S
C87 C86 1.378 . S
C87 H115 0.931 . S
C88 O102 1.259 . S
C88 O103 1.270 . S
C89 O104 1.251 . S
C89 O105 1.251 . S
C90 Eu91 2.835 . S
C90 C92 1.500 . S
C90 O106 1.257 . S
C90 O107 1.260 . S
Eu91 C90 2.835 . S
Eu91 O103 2.355 . S
Eu91 O105 2.374 . S
Eu91 O106 2.473 . S
Eu91 O107 2.480 . S
Eu91 O108 2.430 . S
Eu91 O109 2.670 . S
Eu91 O110 2.394 . S
C92 C90 1.500 . S
C92 C93 1.377 . S
C92 C97 1.377 . S
C93 C92 1.377 . S
C93 C94 1.395 . S
C93 H116 0.931 . S
C94 C93 1.395 . S
C94 C95 1.383 . S
C94 H117 0.931 . S
C95 C94 1.383 . S
C95 C96 1.394 . S
C96 C95 1.394 . S
C96 C97 1.378 . S
C96 H118 0.931 . S
C97 C92 1.377 . S
C97 C96 1.378 . S
C97 H119 0.931 . S
C98 O108 1.259 . S
C98 O109 1.270 . S
C99 O110 1.251 . S
C99 O111 1.251 . S
O100 C80 1.247 1_554 S
O100 Eu81 2.473 . S
O101 C80 1.248 1_554 S
O101 Eu81 2.480 . S
O102 Eu81 2.430 . S
O102 C88 1.259 . S
O103 Eu81 2.670 . S
O103 C88 1.270 . S
O103 Eu91 2.355 . S
O104 Eu81 2.394 . S
O104 C89 1.251 . S
O105 C89 1.251 . S
O105 Eu91 2.374 . S
O106 C90 1.257 . S
O106 Eu91 2.473 . S
O107 C90 1.260 . S
O107 Eu91 2.480 . S
O108 Eu91 2.430 . S
O108 C98 1.259 . S
O109 Eu81 2.355 . S
O109 Eu91 2.670 . S
O109 C98 1.270 . S
O110 Eu91 2.394 . S
O110 C99 1.251 . S
O111 Eu81 2.374 . S
O111 C99 1.251 . S
H112 C83 0.932 1_545 S
H113 C84 0.931 . S
H114 C86 0.931 . S
H115 C87 0.931 . S
H116 C93 0.931 . S
H117 C94 0.931 . S
H118 C96 0.931 . S
H119 C97 0.931 . S
C120 Eu121 2.835 . S
C120 C122 1.500 . S
C120 O140 1.257 . S
C120 O141 1.260 . S
Eu121 C120 2.835 . S
Eu121 O140 2.473 . S
Eu121 O141 2.480 . S
Eu121 O142 2.430 . S
Eu121 O143 2.670 . S
Eu121 O144 2.394 . S
Eu121 O149 2.355 . S
Eu121 O151 2.374 . S
C122 C120 1.500 . S
C122 C123 1.372 . S
C122 C127 1.377 . S
C123 C122 1.372 . S
C123 C124 1.395 1_545 S
C123 H152 0.935 1_545 S
C124 C123 1.395 1_565 S
C124 C125 1.383 1_565 S
C124 H153 0.931 . S
C125 C124 1.383 1_545 S
C125 C126 1.394 . S
C126 C125 1.394 . S
C126 C127 1.378 . S
C126 H154 0.931 . S
C127 C122 1.377 . S
C127 C126 1.378 . S
C127 H155 0.931 . S
C128 O142 1.259 . S
C128 O143 1.270 . S
C129 O144 1.251 . S
C129 O145 1.251 . S
C130 Eu131 2.835 . S
C130 C132 1.500 . S
C130 O146 1.257 . S
C130 O147 1.260 . S
Eu131 C130 2.835 . S
Eu131 O143 2.355 . S
Eu131 O145 2.374 . S
Eu131 O146 2.473 . S
Eu131 O147 2.480 . S
Eu131 O148 2.430 . S
Eu131 O149 2.670 . S
Eu131 O150 2.394 . S
C132 C130 1.500 . S
C132 C133 1.377 . S
C132 C137 1.377 . S
C133 C132 1.377 . S
C133 C134 1.395 . S
C133 H156 0.931 . S
C134 C133 1.395 . S
C134 C135 1.383 . S
C134 H157 0.931 . S
C135 C134 1.383 . S
C135 C136 1.394 . S
C136 C135 1.394 . S
C136 C137 1.378 . S
C136 H158 0.931 . S
C137 C132 1.377 . S
C137 C136 1.378 . S
C137 H159 0.931 . S
C138 O148 1.259 . S
C138 O149 1.270 . S
C139 O150 1.251 . S
C139 O151 1.251 . S
O140 C120 1.257 . S
O140 Eu121 2.473 . S
O141 C120 1.260 . S
O141 Eu121 2.480 . S
O142 Eu121 2.430 . S
O142 C128 1.259 . S
O143 Eu121 2.670 . S
O143 C128 1.270 . S
O143 Eu131 2.355 . S
O144 Eu121 2.394 . S
O144 C129 1.251 . S
O145 C129 1.251 . S
O145 Eu131 2.374 . S
O146 C130 1.257 . S
O146 Eu131 2.473 . S
O147 C130 1.260 . S
O147 Eu131 2.480 . S
O148 Eu131 2.430 . S
O148 C138 1.259 . S
O149 Eu121 2.355 . S
O149 Eu131 2.670 . S
O149 C138 1.270 . S
O150 Eu131 2.394 . S
O150 C139 1.251 . S
O151 Eu121 2.374 . S
O151 C139 1.251 . S
H152 C123 0.935 1_565 S
H153 C124 0.931 . S
H154 C126 0.931 . S
H155 C127 0.931 . S
H156 C133 0.931 . S
H157 C134 0.931 . S
H158 C136 0.931 . S
H159 C137 0.931 . S
C160 Eu161 2.835 . S
C160 C162 1.500 . S
C160 O180 1.257 . S
C160 O181 1.260 . S
Eu161 C160 2.835 . S
Eu161 O180 2.473 . S
Eu161 O181 2.480 . S
Eu161 O182 2.430 . S
Eu161 O183 2.670 . S
Eu161 O184 2.394 . S
Eu161 O189 2.355 . S
Eu161 O191 2.374 . S
C162 C160 1.500 . S
C162 C163 1.374 . S
C162 C167 1.377 . S
C163 C162 1.374 . S
C163 C164 1.397 1_655 S
C163 H192 0.932 1_655 S
C164 C163 1.397 1_455 S
C164 C165 1.383 1_455 S
C164 H193 0.931 . S
C165 C164 1.383 1_655 S
C165 C166 1.394 . S
C166 C165 1.394 . S
C166 C167 1.378 . S
C166 H194 0.931 . S
C167 C162 1.377 . S
C167 C166 1.378 . S
C167 H195 0.931 . S
C168 O182 1.259 . S
C168 O183 1.270 . S
C169 O184 1.251 . S
C169 O185 1.251 . S
C170 Eu171 2.835 . S
C170 C172 1.500 . S
C170 O186 1.257 . S
C170 O187 1.260 . S
Eu171 C170 2.835 . S
Eu171 O183 2.355 . S
Eu171 O185 2.374 . S
Eu171 O186 2.473 . S
Eu171 O187 2.480 . S
Eu171 O188 2.430 . S
Eu171 O189 2.670 . S
Eu171 O190 2.394 . S
C172 C170 1.500 . S
C172 C173 1.377 . S
C172 C177 1.377 . S
C173 C172 1.377 . S
C173 C174 1.395 . S
C173 H196 0.931 . S
C174 C173 1.395 . S
C174 C175 1.383 . S
C174 H197 0.931 . S
C175 C174 1.383 . S
C175 C176 1.394 . S
C176 C175 1.394 . S
C176 C177 1.378 . S
C176 H198 0.931 . S
C177 C172 1.377 . S
C177 C176 1.378 . S
C177 H199 0.931 . S
C178 O188 1.259 . S
C178 O189 1.270 . S
C179 O190 1.251 . S
C179 O191 1.251 . S
O180 C160 1.257 . S
O180 Eu161 2.473 . S
O181 C160 1.260 . S
O181 Eu161 2.480 . S
O182 Eu161 2.430 . S
O182 C168 1.259 . S
O183 Eu161 2.670 . S
O183 C168 1.270 . S
O183 Eu171 2.355 . S
O184 Eu161 2.394 . S
O184 C169 1.251 . S
O185 C169 1.251 . S
O185 Eu171 2.374 . S
O186 C170 1.257 . S
O186 Eu171 2.473 . S
O187 C170 1.260 . S
O187 Eu171 2.480 . S
O188 Eu171 2.430 . S
O188 C178 1.259 . S
O189 Eu161 2.355 . S
O189 Eu171 2.670 . S
O189 C178 1.270 . S
O190 Eu171 2.394 . S
O190 C179 1.251 . S
O191 Eu161 2.374 . S
O191 C179 1.251 . S
H192 C163 0.932 1_455 S
H193 C164 0.931 . S
H194 C166 0.931 . S
H195 C167 0.931 . S
H196 C173 0.931 . S
H197 C174 0.931 . S
H198 C176 0.931 . S
H199 C177 0.931 . S
C200 Eu201 2.835 . S
C200 C202 1.500 . S
C200 O220 1.257 . S
C200 O221 1.260 . S
Eu201 C200 2.835 . S
Eu201 O220 2.473 . S
Eu201 O221 2.480 . S
Eu201 O222 2.430 . S
Eu201 O223 2.670 . S
Eu201 O224 2.394 . S
Eu201 O229 2.355 . S
Eu201 O231 2.374 . S
C202 C200 1.500 . S
C202 C203 1.377 . S
C202 C207 1.377 . S
C203 C202 1.377 . S
C203 C204 1.395 . S
C203 H232 0.931 . S
C204 C203 1.395 . S
C204 C205 1.383 . S
C204 H233 0.931 . S
C205 C204 1.383 . S
C205 C206 1.394 . S
C206 C205 1.394 . S
C206 C207 1.378 . S
C206 H234 0.931 . S
C207 C202 1.377 . S
C207 C206 1.378 . S
C207 H235 0.931 . S
C208 O222 1.259 . S
C208 O223 1.270 . S
C209 O224 1.251 . S
C209 O225 1.251 . S
C210 Eu211 2.835 . S
C210 C212 1.500 . S
C210 O226 1.257 . S
C210 O227 1.260 . S
Eu211 C210 2.835 . S
Eu211 O223 2.355 . S
Eu211 O225 2.374 . S
Eu211 O226 2.473 . S
Eu211 O227 2.480 . S
Eu211 O228 2.430 . S
Eu211 O229 2.670 . S
Eu211 O230 2.394 . S
C212 C210 1.500 . S
C212 C213 1.377 . S
C212 C217 1.377 . S
C213 C212 1.377 . S
C213 C214 1.395 . S
C213 H236 0.931 . S
C214 C213 1.395 . S
C214 C215 1.383 . S
C214 H237 0.931 . S
C215 C214 1.383 . S
C215 C216 1.394 . S
C216 C215 1.394 . S
C216 C217 1.378 . S
C216 H238 0.931 . S
C217 C212 1.377 . S
C217 C216 1.378 . S
C217 H239 0.931 . S
C218 O228 1.259 . S
C218 O229 1.270 . S
C219 O230 1.251 . S
C219 O231 1.251 . S
O220 C200 1.257 . S
O220 Eu201 2.473 . S
O221 C200 1.260 . S
O221 Eu201 2.480 . S
O222 Eu201 2.430 . S
O222 C208 1.259 . S
O223 Eu201 2.670 . S
O223 C208 1.270 . S
O223 Eu211 2.355 . S
O224 Eu201 2.394 . S
O224 C209 1.251 . S
O225 C209 1.251 . S
O225 Eu211 2.374 . S
O226 C210 1.257 . S
O226 Eu211 2.473 . S
O227 C210 1.260 . S
O227 Eu211 2.480 . S
O228 Eu211 2.430 . S
O228 C218 1.259 . S
O229 Eu201 2.355 . S
O229 Eu211 2.670 . S
O229 C218 1.270 . S
O230 Eu211 2.394 . S
O230 C219 1.251 . S
O231 Eu201 2.374 . S
O231 C219 1.251 . S
H232 C203 0.931 . S
H233 C204 0.931 . S
H234 C206 0.931 . S
H235 C207 0.931 . S
H236 C213 0.931 . S
H237 C214 0.931 . S
H238 C216 0.931 . S
H239 C217 0.931 . S
C240 Eu241 2.852 . S
C240 C242 1.500 . S
C240 O260 1.257 . S
C240 O261 1.260 . S
Eu241 C240 2.852 . S
Eu241 O260 2.489 . S
Eu241 O261 2.495 . S
Eu241 O262 2.427 1_556 S
Eu241 O263 2.660 1_556 S
Eu241 O264 2.404 . S
Eu241 O269 2.352 1_556 S
Eu241 O271 2.356 1_556 S
C242 C240 1.500 . S
C242 C243 1.377 . S
C242 C247 1.377 . S
C243 C242 1.377 . S
C243 C244 1.395 . S
C243 H272 0.931 . S
C244 C243 1.395 . S
C244 C245 1.383 . S
C244 H273 0.931 . S
C245 C244 1.383 . S
C245 C246 1.394 . S
C246 C245 1.394 . S
C246 C247 1.378 . S
C246 H274 0.931 . S
C247 C242 1.377 . S
C247 C246 1.378 . S
C247 H275 0.931 . S
C248 O262 1.259 . S
C248 O263 1.270 . S
C249 O264 1.251 . S
C249 O265 1.251 . S
C250 Eu251 2.835 . S
C250 C252 1.500 . S
C250 O266 1.257 . S
C250 O267 1.260 . S
Eu251 C250 2.835 . S
Eu251 O263 2.355 . S
Eu251 O265 2.374 1_554 S
Eu251 O266 2.473 . S
Eu251 O267 2.480 . S
Eu251 O268 2.430 . S
Eu251 O269 2.670 . S
Eu251 O270 2.394 . S
C252 C250 1.500 . S
C252 C253 1.373 . S
C252 C257 1.377 . S
C253 C252 1.373 . S
C253 C254 1.395 1_655 S
C253 H276 0.934 1_655 S
C254 C253 1.395 1_455 S
C254 C255 1.383 1_455 S
C254 H277 0.931 . S
C255 C254 1.383 1_655 S
C255 C256 1.394 . S
C256 C255 1.394 . S
C256 C257 1.378 . S
C256 H278 0.931 . S
C257 C252 1.377 . S
C257 C256 1.378 . S
C257 H279 0.931 . S
C258 O268 1.259 . S
C258 O269 1.270 . S
C259 O270 1.251 . S
C259 O271 1.251 . S
O260 C240 1.257 . S
O260 Eu241 2.489 . S
O261 C240 1.260 . S
O261 Eu241 2.495 . S
O262 Eu241 2.427 1_554 S
O262 C248 1.259 . S
O263 Eu241 2.660 1_554 S
O263 C248 1.270 . S
O263 Eu251 2.355 . S
O264 Eu241 2.404 . S
O264 C249 1.251 . S
O265 C249 1.251 . S
O265 Eu251 2.374 1_556 S
O266 C250 1.257 . S
O266 Eu251 2.473 . S
O267 C250 1.260 . S
O267 Eu251 2.480 . S
O268 Eu251 2.430 . S
O268 C258 1.259 . S
O269 Eu241 2.352 1_554 S
O269 Eu251 2.670 . S
O269 C258 1.270 . S
O270 Eu251 2.394 . S
O270 C259 1.251 . S
O271 Eu241 2.356 1_554 S
O271 C259 1.251 . S
H272 C243 0.931 . S
H273 C244 0.931 . S
H274 C246 0.931 . S
H275 C247 0.931 . S
H276 C253 0.934 1_455 S
H277 C254 0.931 . S
H278 C256 0.931 . S
H279 C257 0.931 . S
C280 Eu281 2.851 . S
C280 C282 1.500 . S
C280 O300 1.257 . S
C280 O301 1.260 . S
Eu281 C280 2.851 . S
Eu281 O300 2.488 . S
Eu281 O301 2.494 . S
Eu281 O302 2.427 1_556 S
Eu281 O303 2.660 1_556 S
Eu281 O304 2.403 . S
Eu281 O309 2.353 1_556 S
Eu281 O311 2.358 1_556 S
C282 C280 1.500 . S
C282 C283 1.377 . S
C282 C287 1.377 . S
C283 C282 1.377 . S
C283 C284 1.395 . S
C283 H312 0.931 . S
C284 C283 1.395 . S
C284 C285 1.383 . S
C284 H313 0.931 . S
C285 C284 1.383 . S
C285 C286 1.394 . S
C286 C285 1.394 . S
C286 C287 1.378 . S
C286 H314 0.931 . S
C287 C282 1.377 . S
C287 C286 1.378 . S
C287 H315 0.931 . S
C288 O302 1.259 . S
C288 O303 1.270 . S
C289 O304 1.251 . S
C289 O305 1.251 . S
C290 Eu291 2.835 . S
C290 C292 1.500 . S
C290 O306 1.257 . S
C290 O307 1.260 . S
Eu291 C290 2.835 . S
Eu291 O303 2.355 . S
Eu291 O305 2.374 1_554 S
Eu291 O306 2.473 . S
Eu291 O307 2.480 . S
Eu291 O308 2.430 . S
Eu291 O309 2.670 . S
Eu291 O310 2.394 . S
C292 C290 1.500 . S
C292 C293 1.377 . S
C292 C297 1.377 . S
C293 C292 1.377 . S
C293 C294 1.395 . S
C293 H316 0.931 . S
C294 C293 1.395 . S
C294 C295 1.383 . S
C294 H317 0.931 . S
C295 C294 1.383 . S
C295 C296 1.394 . S
C296 C295 1.394 . S
C296 C297 1.378 . S
C296 H318 0.931 . S
C297 C292 1.377 . S
C297 C296 1.378 . S
C297 H319 0.931 . S
C298 O308 1.259 . S
C298 O309 1.270 . S
C299 O310 1.251 . S
C299 O311 1.251 . S
O300 C280 1.257 . S
O300 Eu281 2.488 . S
O301 C280 1.260 . S
O301 Eu281 2.494 . S
O302 Eu281 2.427 1_554 S
O302 C288 1.259 . S
O303 Eu281 2.660 1_554 S
O303 C288 1.270 . S
O303 Eu291 2.355 . S
O304 Eu281 2.403 . S
O304 C289 1.251 . S
O305 C289 1.251 . S
O305 Eu291 2.374 1_556 S
O306 C290 1.257 . S
O306 Eu291 2.473 . S
O307 C290 1.260 . S
O307 Eu291 2.480 . S
O308 Eu291 2.430 . S
O308 C298 1.259 . S
O309 Eu281 2.353 1_554 S
O309 Eu291 2.670 . S
O309 C298 1.270 . S
O310 Eu291 2.394 . S
O310 C299 1.251 . S
O311 Eu281 2.358 1_554 S
O311 C299 1.251 . S
H312 C283 0.931 . S
H313 C284 0.931 . S
H314 C286 0.931 . S
H315 C287 0.931 . S
H316 C293 0.931 . S
H317 C294 0.931 . S
H318 C296 0.931 . S
H319 C297 0.931 . S
C320 Eu321 2.851 . S
C320 C322 1.500 . S
C320 O340 1.257 . S
C320 O341 1.260 . S
Eu321 C320 2.851 . S
Eu321 O340 2.488 . S
Eu321 O341 2.494 . S
Eu321 O342 2.427 1_556 S
Eu321 O343 2.660 1_556 S
Eu321 O344 2.404 . S
Eu321 O349 2.353 1_556 S
Eu321 O351 2.357 1_556 S
C322 C320 1.500 . S
C322 C323 1.377 . S
C322 C327 1.377 . S
C323 C322 1.377 . S
C323 C324 1.395 . S
C323 H352 0.931 . S
C324 C323 1.395 . S
C324 C325 1.383 . S
C324 H353 0.931 . S
C325 C324 1.383 . S
C325 C326 1.394 . S
C326 C325 1.394 . S
C326 C327 1.378 . S
C326 H354 0.931 . S
C327 C322 1.377 . S
C327 C326 1.378 . S
C327 H355 0.931 . S
C328 O342 1.259 . S
C328 O343 1.270 . S
C329 O344 1.251 . S
C329 O345 1.251 . S
C330 Eu331 2.835 . S
C330 C332 1.500 . S
C330 O346 1.257 . S
C330 O347 1.260 . S
Eu331 C330 2.835 . S
Eu331 O343 2.355 . S
Eu331 O345 2.374 1_554 S
Eu331 O346 2.473 . S
Eu331 O347 2.480 . S
Eu331 O348 2.430 . S
Eu331 O349 2.670 . S
Eu331 O350 2.394 . S
C332 C330 1.500 . S
C332 C333 1.374 . S
C332 C337 1.377 . S
C333 C332 1.374 . S
C333 C334 1.397 1_545 S
C333 H356 0.932 1_545 S
C334 C333 1.397 1_565 S
C334 C335 1.383 1_565 S
C334 H357 0.931 . S
C335 C334 1.383 1_545 S
C335 C336 1.394 . S
C336 C335 1.394 . S
C336 C337 1.378 . S
C336 H358 0.931 . S
C337 C332 1.377 . S
C337 C336 1.378 . S
C337 H359 0.931 . S
C338 O348 1.259 . S
C338 O349 1.270 . S
C339 O350 1.251 . S
C339 O351 1.251 . S
O340 C320 1.257 . S
O340 Eu321 2.488 . S
O341 C320 1.260 . S
O341 Eu321 2.494 . S
O342 Eu321 2.427 1_554 S
O342 C328 1.259 . S
O343 Eu321 2.660 1_554 S
O343 C328 1.270 . S
O343 Eu331 2.355 . S
O344 Eu321 2.404 . S
O344 C329 1.251 . S
O345 C329 1.251 . S
O345 Eu331 2.374 1_556 S
O346 C330 1.257 . S
O346 Eu331 2.473 . S
O347 C330 1.260 . S
O347 Eu331 2.480 . S
O348 Eu331 2.430 . S
O348 C338 1.259 . S
O349 Eu321 2.353 1_554 S
O349 Eu331 2.670 . S
O349 C338 1.270 . S
O350 Eu331 2.394 . S
O350 C339 1.251 . S
O351 Eu321 2.357 1_554 S
O351 C339 1.251 . S
H352 C323 0.931 . S
H353 C324 0.931 . S
H354 C326 0.931 . S
H355 C327 0.931 . S
H356 C333 0.932 1_565 S
H357 C334 0.931 . S
H358 C336 0.931 . S
H359 C337 0.931 . S
C360 Eu361 2.835 . S
C360 C362 1.500 . S
C360 O380 1.257 . S
C360 O381 1.260 . S
Eu361 C360 2.835 . S
Eu361 O380 2.473 . S
Eu361 O381 2.480 . S
Eu361 O382 2.430 . S
Eu361 O383 2.670 . S
Eu361 O384 2.394 . S
Eu361 O389 2.355 . S
Eu361 O391 2.374 . S
C362 C360 1.500 . S
C362 C363 1.377 . S
C362 C367 1.377 . S
C363 C362 1.377 . S
C363 C364 1.395 . S
C363 H392 0.931 . S
C364 C363 1.395 . S
C364 C365 1.383 . S
C364 H393 0.931 . S
C365 C364 1.383 . S
C365 C366 1.394 . S
C366 C365 1.394 . S
C366 C367 1.378 . S
C366 H394 0.931 . S
C367 C362 1.377 . S
C367 C366 1.378 . S
C367 H395 0.931 . S
C368 O382 1.259 . S
C368 O383 1.270 . S
C369 O384 1.251 . S
C369 O385 1.251 . S
C370 Eu371 2.835 . S
C370 C372 1.500 . S
C370 O386 1.257 . S
C370 O387 1.260 . S
Eu371 C370 2.835 . S
Eu371 O383 2.355 . S
Eu371 O385 2.374 . S
Eu371 O386 2.473 . S
Eu371 O387 2.480 . S
Eu371 O388 2.430 . S
Eu371 O389 2.670 . S
Eu371 O390 2.394 . S
C372 C370 1.500 . S
C372 C373 1.372 . S
C372 C377 1.377 . S
C373 C372 1.372 . S
C373 C374 1.395 1_565 S
C373 H396 0.935 1_565 S
C374 C373 1.395 1_545 S
C374 C375 1.383 1_545 S
C374 H397 0.931 . S
C375 C374 1.383 1_565 S
C375 C376 1.394 . S
C376 C375 1.394 . S
C376 C377 1.378 . S
C376 H398 0.931 . S
C377 C372 1.377 . S
C377 C376 1.378 . S
C377 H399 0.931 . S
C378 O388 1.259 . S
C378 O389 1.270 . S
C379 O390 1.251 . S
C379 O391 1.251 . S
O380 C360 1.257 . S
O380 Eu361 2.473 . S
O381 C360 1.260 . S
O381 Eu361 2.480 . S
O382 Eu361 2.430 . S
O382 C368 1.259 . S
O383 Eu361 2.670 . S
O383 C368 1.270 . S
O383 Eu371 2.355 . S
O384 Eu361 2.394 . S
O384 C369 1.251 . S
O385 C369 1.251 . S
O385 Eu371 2.374 . S
O386 C370 1.257 . S
O386 Eu371 2.473 . S
O387 C370 1.260 . S
O387 Eu371 2.480 . S
O388 Eu371 2.430 . S
O388 C378 1.259 . S
O389 Eu361 2.355 . S
O389 Eu371 2.670 . S
O389 C378 1.270 . S
O390 Eu371 2.394 . S
O390 C379 1.251 . S
O391 Eu361 2.374 . S
O391 C379 1.251 . S
H392 C363 0.931 . S
H393 C364 0.931 . S
H394 C366 0.931 . S
H395 C367 0.931 . S
H396 C373 0.935 1_545 S
H397 C374 0.931 . S
H398 C376 0.931 . S
H399 C377 0.931 . S
C400 Eu401 2.835 . S
C400 C402 1.500 . S
C400 O420 1.257 . S
C400 O421 1.260 . S
Eu401 C400 2.835 . S
Eu401 O420 2.473 . S
Eu401 O421 2.480 . S
Eu401 O422 2.430 . S
Eu401 O423 2.670 . S
Eu401 O424 2.394 . S
Eu401 O429 2.355 . S
Eu401 O431 2.374 . S
C402 C400 1.500 . S
C402 C403 1.377 . S
C402 C407 1.377 . S
C403 C402 1.377 . S
C403 C404 1.395 . S
C403 H432 0.931 . S
C404 C403 1.395 . S
C404 C405 1.383 . S
C404 H433 0.931 . S
C405 C404 1.383 . S
C405 C406 1.394 . S
C406 C405 1.394 . S
C406 C407 1.378 . S
C406 H434 0.931 . S
C407 C402 1.377 . S
C407 C406 1.378 . S
C407 H435 0.931 . S
C408 O422 1.259 . S
C408 O423 1.270 . S
C409 O424 1.251 . S
C409 O425 1.251 . S
C410 Eu411 2.835 . S
C410 C412 1.500 . S
C410 O426 1.257 . S
C410 O427 1.260 . S
Eu411 C410 2.835 . S
Eu411 O423 2.355 . S
Eu411 O425 2.374 . S
Eu411 O426 2.473 . S
Eu411 O427 2.480 . S
Eu411 O428 2.430 . S
Eu411 O429 2.670 . S
Eu411 O430 2.394 . S
C412 C410 1.500 . S
C412 C413 1.374 . S
C412 C417 1.377 . S
C413 C412 1.374 . S
C413 C414 1.397 1_455 S
C413 H436 0.932 1_455 S
C414 C413 1.397 1_655 S
C414 C415 1.383 1_655 S
C414 H437 0.931 . S
C415 C414 1.383 1_455 S
C415 C416 1.394 . S
C416 C415 1.394 . S
C416 C417 1.378 . S
C416 H438 0.931 . S
C417 C412 1.377 . S
C417 C416 1.378 . S
C417 H439 0.931 . S
C418 O428 1.259 . S
C418 O429 1.270 . S
C419 O430 1.251 . S
C419 O431 1.251 . S
O420 C400 1.257 . S
O420 Eu401 2.473 . S
O421 C400 1.260 . S
O421 Eu401 2.480 . S
O422 Eu401 2.430 . S
O422 C408 1.259 . S
O423 Eu401 2.670 . S
O423 C408 1.270 . S
O423 Eu411 2.355 . S
O424 Eu401 2.394 . S
O424 C409 1.251 . S
O425 C409 1.251 . S
O425 Eu411 2.374 . S
O426 C410 1.257 . S
O426 Eu411 2.473 . S
O427 C410 1.260 . S
O427 Eu411 2.480 . S
O428 Eu411 2.430 . S
O428 C418 1.259 . S
O429 Eu401 2.355 . S
O429 Eu411 2.670 . S
O429 C418 1.270 . S
O430 Eu411 2.394 . S
O430 C419 1.251 . S
O431 Eu401 2.374 . S
O431 C419 1.251 . S
H432 C403 0.931 . S
H433 C404 0.931 . S
H434 C406 0.931 . S
H435 C407 0.931 . S
H436 C413 0.932 1_655 S
H437 C414 0.931 . S
H438 C416 0.931 . S
H439 C417 0.931 . S
C440 Eu441 2.835 . S
C440 C442 1.500 . S
C440 O460 1.257 . S
C440 O461 1.260 . S
Eu441 C440 2.835 . S
Eu441 O460 2.473 . S
Eu441 O461 2.480 . S
Eu441 O462 2.430 . S
Eu441 O463 2.670 . S
Eu441 O464 2.394 . S
Eu441 O469 2.355 . S
Eu441 O471 2.374 . S
C442 C440 1.500 . S
C442 C443 1.377 . S
C442 C447 1.377 . S
C443 C442 1.377 . S
C443 C444 1.395 . S
C443 H472 0.931 . S
C444 C443 1.395 . S
C444 C445 1.383 . S
C444 H473 0.931 . S
C445 C444 1.383 . S
C445 C446 1.394 . S
C446 C445 1.394 . S
C446 C447 1.378 . S
C446 H474 0.931 . S
C447 C442 1.377 . S
C447 C446 1.378 . S
C447 H475 0.931 . S
C448 O462 1.259 . S
C448 O463 1.270 . S
C449 O464 1.251 . S
C449 O465 1.251 . S
C450 Eu451 2.835 . S
C450 C452 1.500 . S
C450 O466 1.257 . S
C450 O467 1.260 . S
Eu451 C450 2.835 . S
Eu451 O463 2.355 . S
Eu451 O465 2.374 . S
Eu451 O466 2.473 . S
Eu451 O467 2.480 . S
Eu451 O468 2.430 . S
Eu451 O469 2.670 . S
Eu451 O470 2.394 . S
C452 C450 1.500 . S
C452 C453 1.377 . S
C452 C457 1.377 . S
C453 C452 1.377 . S
C453 C454 1.395 . S
C453 H476 0.931 . S
C454 C453 1.395 . S
C454 C455 1.383 . S
C454 H477 0.931 . S
C455 C454 1.383 . S
C455 C456 1.394 . S
C456 C455 1.394 . S
C456 C457 1.378 . S
C456 H478 0.931 . S
C457 C452 1.377 . S
C457 C456 1.378 . S
C457 H479 0.931 . S
C458 O468 1.259 . S
C458 O469 1.270 . S
C459 O470 1.251 . S
C459 O471 1.251 . S
O460 C440 1.257 . S
O460 Eu441 2.473 . S
O461 C440 1.260 . S
O461 Eu441 2.480 . S
O462 Eu441 2.430 . S
O462 C448 1.259 . S
O463 Eu441 2.670 . S
O463 C448 1.270 . S
O463 Eu451 2.355 . S
O464 Eu441 2.394 . S
O464 C449 1.251 . S
O465 C449 1.251 . S
O465 Eu451 2.374 . S
O466 C450 1.257 . S
O466 Eu451 2.473 . S
O467 C450 1.260 . S
O467 Eu451 2.480 . S
O468 Eu451 2.430 . S
O468 C458 1.259 . S
O469 Eu441 2.355 . S
O469 Eu451 2.670 . S
O469 C458 1.270 . S
O470 Eu451 2.394 . S
O470 C459 1.251 . S
O471 Eu441 2.374 . S
O471 C459 1.251 . S
H472 C443 0.931 . S
H473 C444 0.931 . S
H474 C446 0.931 . S
H475 C447 0.931 . S
H476 C453 0.931 . S
H477 C454 0.931 . S
H478 C456 0.931 . S
H479 C457 0.931 . S
C480 Eu481 2.835 . S
C480 C482 1.500 . S
C480 O500 1.257 . S
C480 O501 1.260 . S
Eu481 C480 2.835 . S
Eu481 O500 2.473 . S
Eu481 O501 2.480 . S
Eu481 O502 2.430 . S
Eu481 O503 2.670 . S
Eu481 O504 2.394 . S
Eu481 O509 2.355 . S
Eu481 O511 2.374 . S
C482 C480 1.500 . S
C482 C483 1.377 . S
C482 C487 1.377 . S
C483 C482 1.377 . S
C483 C484 1.395 . S
C483 H512 0.931 . S
C484 C483 1.395 . S
C484 C485 1.383 . S
C484 H513 0.931 . S
C485 C484 1.383 . S
C485 C486 1.394 . S
C486 C485 1.394 . S
C486 C487 1.378 . S
C486 H514 0.931 . S
C487 C482 1.377 . S
C487 C486 1.378 . S
C487 H515 0.931 . S
C488 O502 1.259 . S
C488 O503 1.270 . S
C489 O504 1.251 . S
C489 O505 1.251 . S
C490 Eu491 2.835 . S
C490 C492 1.500 . S
C490 O506 1.257 . S
C490 O507 1.260 . S
Eu491 C490 2.835 . S
Eu491 O503 2.355 . S
Eu491 O505 2.374 . S
Eu491 O506 2.473 . S
Eu491 O507 2.480 . S
Eu491 O508 2.430 . S
Eu491 O509 2.670 . S
Eu491 O510 2.394 . S
C492 C490 1.500 . S
C492 C493 1.377 . S
C492 C497 1.377 . S
C493 C492 1.377 . S
C493 C494 1.395 . S
C493 H516 0.931 . S
C494 C493 1.395 . S
C494 C495 1.383 . S
C494 H517 0.931 . S
C495 C494 1.383 . S
C495 C496 1.394 . S
C496 C495 1.394 . S
C496 C497 1.378 . S
C496 H518 0.931 . S
C497 C492 1.377 . S
C497 C496 1.378 . S
C497 H519 0.931 . S
C498 O508 1.259 . S
C498 O509 1.270 . S
C499 O510 1.251 . S
C499 O511 1.251 . S
O500 C480 1.257 . S
O500 Eu481 2.473 . S
O501 C480 1.260 . S
O501 Eu481 2.480 . S
O502 Eu481 2.430 . S
O502 C488 1.259 . S
O503 Eu481 2.670 . S
O503 C488 1.270 . S
O503 Eu491 2.355 . S
O504 Eu481 2.394 . S
O504 C489 1.251 . S
O505 C489 1.251 . S
O505 Eu491 2.374 . S
O506 C490 1.257 . S
O506 Eu491 2.473 . S
O507 C490 1.260 . S
O507 Eu491 2.480 . S
O508 Eu491 2.430 . S
O508 C498 1.259 . S
O509 Eu481 2.355 . S
O509 Eu491 2.670 . S
O509 C498 1.270 . S
O510 Eu491 2.394 . S
O510 C499 1.251 . S
O511 Eu481 2.374 . S
O511 C499 1.251 . S
H512 C483 0.931 . S
H513 C484 0.931 . S
H514 C486 0.931 . S
H515 C487 0.931 . S
H516 C493 0.931 . S
H517 C494 0.931 . S
H518 C496 0.931 . S
H519 C497 0.931 . S
C520 Eu521 2.835 . S
C520 C522 1.500 . S
C520 O540 1.257 . S
C520 O541 1.260 . S
Eu521 C520 2.835 . S
Eu521 O540 2.473 . S
Eu521 O541 2.480 . S
Eu521 O542 2.430 . S
Eu521 O543 2.670 . S
Eu521 O544 2.394 . S
Eu521 O549 2.355 . S
Eu521 O551 2.374 . S
C522 C520 1.500 . S
C522 C523 1.377 . S
C522 C527 1.377 . S
C523 C522 1.377 . S
C523 C524 1.395 . S
C523 H552 0.931 . S
C524 C523 1.395 . S
C524 C525 1.383 . S
C524 H553 0.931 . S
C525 C524 1.383 . S
C525 C526 1.394 . S
C526 C525 1.394 . S
C526 C527 1.378 . S
C526 H554 0.931 . S
C527 C522 1.377 . S
C527 C526 1.378 . S
C527 H555 0.931 . S
C528 O542 1.259 . S
C528 O543 1.270 . S
C529 O544 1.251 . S
C529 O545 1.251 . S
C530 Eu531 2.835 . S
C530 C532 1.500 . S
C530 O546 1.257 . S
C530 O547 1.260 . S
Eu531 C530 2.835 . S
Eu531 O543 2.355 . S
Eu531 O545 2.374 . S
Eu531 O546 2.473 . S
Eu531 O547 2.480 . S
Eu531 O548 2.430 . S
Eu531 O549 2.670 . S
Eu531 O550 2.394 . S
C532 C530 1.500 . S
C532 C533 1.377 . S
C532 C537 1.377 . S
C533 C532 1.377 . S
C533 C534 1.395 . S
C533 H556 0.931 . S
C534 C533 1.395 . S
C534 C535 1.383 . S
C534 H557 0.931 . S
C535 C534 1.383 . S
C535 C536 1.394 . S
C536 C535 1.394 . S
C536 C537 1.378 . S
C536 H558 0.931 . S
C537 C532 1.377 . S
C537 C536 1.378 . S
C537 H559 0.931 . S
C538 O548 1.259 . S
C538 O549 1.270 . S
C539 O550 1.251 . S
C539 O551 1.251 . S
O540 C520 1.257 . S
O540 Eu521 2.473 . S
O541 C520 1.260 . S
O541 Eu521 2.480 . S
O542 Eu521 2.430 . S
O542 C528 1.259 . S
O543 Eu521 2.670 . S
O543 C528 1.270 . S
O543 Eu531 2.355 . S
O544 Eu521 2.394 . S
O544 C529 1.251 . S
O545 C529 1.251 . S
O545 Eu531 2.374 . S
O546 C530 1.257 . S
O546 Eu531 2.473 . S
O547 C530 1.260 . S
O547 Eu531 2.480 . S
O548 Eu531 2.430 . S
O548 C538 1.259 . S
O549 Eu521 2.355 . S
O549 Eu531 2.670 . S
O549 C538 1.270 . S
O550 Eu531 2.394 . S
O550 C539 1.251 . S
O551 Eu521 2.374 . S
O551 C539 1.251 . S
H552 C523 0.931 . S
H553 C524 0.931 . S
H554 C526 0.931 . S
H555 C527 0.931 . S
H556 C533 0.931 . S
H557 C534 0.931 . S
H558 C536 0.931 . S
H559 C537 0.931 . S
C560 Eu561 2.835 . S
C560 C562 1.500 . S
C560 O580 1.257 . S
C560 O581 1.260 . S
Eu561 C560 2.835 . S
Eu561 O580 2.473 . S
Eu561 O581 2.480 . S
Eu561 O582 2.430 . S
Eu561 O583 2.670 . S
Eu561 O584 2.394 . S
Eu561 O589 2.355 . S
Eu561 O591 2.374 . S
C562 C560 1.500 . S
C562 C563 1.377 . S
C562 C567 1.377 . S
C563 C562 1.377 . S
C563 C564 1.395 . S
C563 H592 0.931 . S
C564 C563 1.395 . S
C564 C565 1.383 . S
C564 H593 0.931 . S
C565 C564 1.383 . S
C565 C566 1.394 . S
C566 C565 1.394 . S
C566 C567 1.378 . S
C566 H594 0.931 . S
C567 C562 1.377 . S
C567 C566 1.378 . S
C567 H595 0.931 . S
C568 O582 1.259 . S
C568 O583 1.270 . S
C569 O584 1.251 . S
C569 O585 1.251 . S
C570 Eu571 2.835 . S
C570 C572 1.500 . S
C570 O586 1.257 . S
C570 O587 1.260 . S
Eu571 C570 2.835 . S
Eu571 O583 2.355 . S
Eu571 O585 2.374 . S
Eu571 O586 2.473 . S
Eu571 O587 2.480 . S
Eu571 O588 2.430 . S
Eu571 O589 2.670 . S
Eu571 O590 2.394 . S
C572 C570 1.500 . S
C572 C573 1.377 . S
C572 C577 1.377 . S
C573 C572 1.377 . S
C573 C574 1.395 . S
C573 H596 0.931 . S
C574 C573 1.395 . S
C574 C575 1.383 . S
C574 H597 0.931 . S
C575 C574 1.383 . S
C575 C576 1.394 . S
C576 C575 1.394 . S
C576 C577 1.378 . S
C576 H598 0.931 . S
C577 C572 1.377 . S
C577 C576 1.378 . S
C577 H599 0.931 . S
C578 O588 1.259 . S
C578 O589 1.270 . S
C579 O590 1.251 . S
C579 O591 1.251 . S
O580 C560 1.257 . S
O580 Eu561 2.473 . S
O581 C560 1.260 . S
O581 Eu561 2.480 . S
O582 Eu561 2.430 . S
O582 C568 1.259 . S
O583 Eu561 2.670 . S
O583 C568 1.270 . S
O583 Eu571 2.355 . S
O584 Eu561 2.394 . S
O584 C569 1.251 . S
O585 C569 1.251 . S
O585 Eu571 2.374 . S
O586 C570 1.257 . S
O586 Eu571 2.473 . S
O587 C570 1.260 . S
O587 Eu571 2.480 . S
O588 Eu571 2.430 . S
O588 C578 1.259 . S
O589 Eu561 2.355 . S
O589 Eu571 2.670 . S
O589 C578 1.270 . S
O590 Eu571 2.394 . S
O590 C579 1.251 . S
O591 Eu561 2.374 . S
O591 C579 1.251 . S
H592 C563 0.931 . S
H593 C564 0.931 . S
H594 C566 0.931 . S
H595 C567 0.931 . S
H596 C573 0.931 . S
H597 C574 0.931 . S
H598 C576 0.931 . S
H599 C577 0.931 . S
C600 Eu601 2.835 . S
C600 C602 1.500 1_556 S
C600 O620 1.257 . S
C600 O621 1.260 . S
Eu601 C600 2.835 . S
Eu601 O620 2.473 . S
Eu601 O621 2.480 . S
Eu601 O622 2.430 . S
Eu601 O623 2.670 . S
Eu601 O624 2.394 . S
Eu601 O629 2.355 . S
Eu601 O631 2.374 . S
C602 C600 1.500 1_554 S
C602 C603 1.377 . S
C602 C607 1.377 . S
C603 C602 1.377 . S
C603 C604 1.395 . S
C603 H632 0.931 . S
C604 C603 1.395 . S
C604 C605 1.383 . S
C604 H633 0.931 . S
C605 C604 1.383 . S
C605 C606 1.394 . S
C606 C605 1.394 . S
C606 C607 1.378 . S
C606 H634 0.931 . S
C607 C602 1.377 . S
C607 C606 1.378 . S
C607 H635 0.931 . S
C608 O622 1.259 . S
C608 O623 1.270 . S
C609 O624 1.251 . S
C609 O625 1.251 . S
C610 Eu611 2.835 . S
C610 C612 1.500 . S
C610 O626 1.257 . S
C610 O627 1.260 . S
Eu611 C610 2.835 . S
Eu611 O623 2.355 . S
Eu611 O625 2.374 . S
Eu611 O626 2.473 . S
Eu611 O627 2.480 . S
Eu611 O628 2.430 . S
Eu611 O629 2.670 . S
Eu611 O630 2.394 . S
C612 C610 1.500 . S
C612 C613 1.377 . S
C612 C617 1.377 . S
C613 C612 1.377 . S
C613 C614 1.395 . S
C613 H636 0.931 . S
C614 C613 1.395 . S
C614 C615 1.383 . S
C614 H637 0.931 . S
C615 C614 1.383 . S
C615 C616 1.394 . S
C616 C615 1.394 . S
C616 C617 1.378 . S
C616 H638 0.931 . S
C617 C612 1.377 . S
C617 C616 1.378 . S
C617 H639 0.931 . S
C618 O628 1.259 . S
C618 O629 1.270 . S
C619 O630 1.251 . S
C619 O631 1.251 . S
O620 C600 1.257 . S
O620 Eu601 2.473 . S
O621 C600 1.260 . S
O621 Eu601 2.480 . S
O622 Eu601 2.430 . S
O622 C608 1.259 . S
O623 Eu601 2.670 . S
O623 C608 1.270 . S
O623 Eu611 2.355 . S
O624 Eu601 2.394 . S
O624 C609 1.251 . S
O625 C609 1.251 . S
O625 Eu611 2.374 . S
O626 C610 1.257 . S
O626 Eu611 2.473 . S
O627 C610 1.260 . S
O627 Eu611 2.480 . S
O628 Eu611 2.430 . S
O628 C618 1.259 . S
O629 Eu601 2.355 . S
O629 Eu611 2.670 . S
O629 C618 1.270 . S
O630 Eu611 2.394 . S
O630 C619 1.251 . S
O631 Eu601 2.374 . S
O631 C619 1.251 . S
H632 C603 0.931 . S
H633 C604 0.931 . S
H634 C606 0.931 . S
H635 C607 0.931 . S
H636 C613 0.931 . S
H637 C614 0.931 . S
H638 C616 0.931 . S
H639 C617 0.931 . S
C640 Eu641 2.835 . S
C640 C642 1.500 1_556 S
C640 O660 1.257 . S
C640 O661 1.260 . S
Eu641 C640 2.835 . S
Eu641 O660 2.473 . S
Eu641 O661 2.480 . S
Eu641 O662 2.430 . S
Eu641 O663 2.670 . S
Eu641 O664 2.394 . S
Eu641 O669 2.355 . S
Eu641 O671 2.374 . S
C642 C640 1.500 1_554 S
C642 C643 1.377 . S
C642 C647 1.377 . S
C643 C642 1.377 . S
C643 C644 1.395 . S
C643 H672 0.931 . S
C644 C643 1.395 . S
C644 C645 1.383 . S
C644 H673 0.931 . S
C645 C644 1.383 . S
C645 C646 1.394 . S
C646 C645 1.394 . S
C646 C647 1.378 . S
C646 H674 0.931 . S
C647 C642 1.377 . S
C647 C646 1.378 . S
C647 H675 0.931 . S
C648 O662 1.259 . S
C648 O663 1.270 . S
C649 O664 1.251 . S
C649 O665 1.251 . S
C650 Eu651 2.835 . S
C650 C652 1.500 . S
C650 O666 1.257 . S
C650 O667 1.260 . S
Eu651 C650 2.835 . S
Eu651 O663 2.355 . S
Eu651 O665 2.374 . S
Eu651 O666 2.473 . S
Eu651 O667 2.480 . S
Eu651 O668 2.430 . S
Eu651 O669 2.670 . S
Eu651 O670 2.394 . S
C652 C650 1.500 . S
C652 C653 1.377 . S
C652 C657 1.377 . S
C653 C652 1.377 . S
C653 C654 1.395 . S
C653 H676 0.931 . S
C654 C653 1.395 . S
C654 C655 1.383 . S
C654 H677 0.931 . S
C655 C654 1.383 . S
C655 C656 1.394 . S
C656 C655 1.394 . S
C656 C657 1.378 . S
C656 H678 0.931 . S
C657 C652 1.377 . S
C657 C656 1.378 . S
C657 H679 0.931 . S
C658 O668 1.259 . S
C658 O669 1.270 . S
C659 O670 1.251 . S
C659 O671 1.251 . S
O660 C640 1.257 . S
O660 Eu641 2.473 . S
O661 C640 1.260 . S
O661 Eu641 2.480 . S
O662 Eu641 2.430 . S
O662 C648 1.259 . S
O663 Eu641 2.670 . S
O663 C648 1.270 . S
O663 Eu651 2.355 . S
O664 Eu641 2.394 . S
O664 C649 1.251 . S
O665 C649 1.251 . S
O665 Eu651 2.374 . S
O666 C650 1.257 . S
O666 Eu651 2.473 . S
O667 C650 1.260 . S
O667 Eu651 2.480 . S
O668 Eu651 2.430 . S
O668 C658 1.259 . S
O669 Eu641 2.355 . S
O669 Eu651 2.670 . S
O669 C658 1.270 . S
O670 Eu651 2.394 . S
O670 C659 1.251 . S
O671 Eu641 2.374 . S
O671 C659 1.251 . S
H672 C643 0.931 . S
H673 C644 0.931 . S
H674 C646 0.931 . S
H675 C647 0.931 . S
H676 C653 0.931 . S
H677 C654 0.931 . S
H678 C656 0.931 . S
H679 C657 0.931 . S
C680 Eu681 2.835 . S
C680 C682 1.500 1_556 S
C680 O700 1.257 . S
C680 O701 1.260 . S
Eu681 C680 2.835 . S
Eu681 O700 2.473 . S
Eu681 O701 2.480 . S
Eu681 O702 2.430 . S
Eu681 O703 2.670 . S
Eu681 O704 2.394 . S
Eu681 O709 2.355 . S
Eu681 O711 2.374 . S
C682 C680 1.500 1_554 S
C682 C683 1.377 . S
C682 C687 1.377 . S
C683 C682 1.377 . S
C683 C684 1.395 . S
C683 H712 0.931 . S
C684 C683 1.395 . S
C684 C685 1.383 . S
C684 H713 0.931 . S
C685 C684 1.383 . S
C685 C686 1.394 . S
C686 C685 1.394 . S
C686 C687 1.378 . S
C686 H714 0.931 . S
C687 C682 1.377 . S
C687 C686 1.378 . S
C687 H715 0.931 . S
C688 O702 1.259 . S
C688 O703 1.270 . S
C689 O704 1.251 . S
C689 O705 1.251 . S
C690 Eu691 2.835 . S
C690 C692 1.500 . S
C690 O706 1.257 . S
C690 O707 1.260 . S
Eu691 C690 2.835 . S
Eu691 O703 2.355 . S
Eu691 O705 2.374 . S
Eu691 O706 2.473 . S
Eu691 O707 2.480 . S
Eu691 O708 2.430 . S
Eu691 O709 2.670 . S
Eu691 O710 2.394 . S
C692 C690 1.500 . S
C692 C693 1.377 . S
C692 C697 1.377 . S
C693 C692 1.377 . S
C693 C694 1.395 . S
C693 H716 0.931 . S
C694 C693 1.395 . S
C694 C695 1.383 . S
C694 H717 0.931 . S
C695 C694 1.383 . S
C695 C696 1.394 . S
C696 C695 1.394 . S
C696 C697 1.378 . S
C696 H718 0.931 . S
C697 C692 1.377 . S
C697 C696 1.378 . S
C697 H719 0.931 . S
C698 O708 1.259 . S
C698 O709 1.270 . S
C699 O710 1.251 . S
C699 O711 1.251 . S
O700 C680 1.257 . S
O700 Eu681 2.473 . S
O701 C680 1.260 . S
O701 Eu681 2.480 . S
O702 Eu681 2.430 . S
O702 C688 1.259 . S
O703 Eu681 2.670 . S
O703 C688 1.270 . S
O703 Eu691 2.355 . S
O704 Eu681 2.394 . S
O704 C689 1.251 . S
O705 C689 1.251 . S
O705 Eu691 2.374 . S
O706 C690 1.257 . S
O706 Eu691 2.473 . S
O707 C690 1.260 . S
O707 Eu691 2.480 . S
O708 Eu691 2.430 . S
O708 C698 1.259 . S
O709 Eu681 2.355 . S
O709 Eu691 2.670 . S
O709 C698 1.270 . S
O710 Eu691 2.394 . S
O710 C699 1.251 . S
O711 Eu681 2.374 . S
O711 C699 1.251 . S
H712 C683 0.931 . S
H713 C684 0.931 . S
H714 C686 0.931 . S
H715 C687 0.931 . S
H716 C693 0.931 . S
H717 C694 0.931 . S
H718 C696 0.931 . S
H719 C697 0.931 . S
C720 Eu721 2.835 . S
C720 C722 1.500 . S
C720 O740 1.257 . S
C720 O741 1.260 . S
Eu721 C720 2.835 . S
Eu721 O740 2.473 . S
Eu721 O741 2.480 . S
Eu721 O742 2.430 . S
Eu721 O743 2.670 . S
Eu721 O744 2.394 . S
Eu721 O749 2.355 . S
Eu721 O751 2.374 . S
C722 C720 1.500 . S
C722 C723 1.377 . S
C722 C727 1.377 . S
C723 C722 1.377 . S
C723 C724 1.395 . S
C723 H752 0.931 . S
C724 C723 1.395 . S
C724 C725 1.383 . S
C724 H753 0.931 . S
C725 C724 1.383 . S
C725 C726 1.394 . S
C726 C725 1.394 . S
C726 C727 1.378 . S
C726 H754 0.931 . S
C727 C722 1.377 . S
C727 C726 1.378 . S
C727 H755 0.931 . S
C728 O742 1.259 . S
C728 O743 1.270 . S
C729 O744 1.251 . S
C729 O745 1.251 . S
C730 Eu731 2.835 . S
C730 C732 1.500 . S
C730 O746 1.257 . S
C730 O747 1.260 . S
Eu731 C730 2.835 . S
Eu731 O743 2.355 . S
Eu731 O745 2.374 . S
Eu731 O746 2.473 . S
Eu731 O747 2.480 . S
Eu731 O748 2.430 . S
Eu731 O749 2.670 . S
Eu731 O750 2.394 . S
C732 C730 1.500 . S
C732 C733 1.377 . S
C732 C737 1.377 . S
C733 C732 1.377 . S
C733 C734 1.395 . S
C733 H756 0.931 . S
C734 C733 1.395 . S
C734 C735 1.383 . S
C734 H757 0.931 . S
C735 C734 1.383 . S
C735 C736 1.394 . S
C736 C735 1.394 . S
C736 C737 1.378 . S
C736 H758 0.931 . S
C737 C732 1.377 . S
C737 C736 1.378 . S
C737 H759 0.931 . S
C738 O748 1.259 . S
C738 O749 1.270 . S
C739 O750 1.251 . S
C739 O751 1.251 . S
O740 C720 1.257 . S
O740 Eu721 2.473 . S
O741 C720 1.260 . S
O741 Eu721 2.480 . S
O742 Eu721 2.430 . S
O742 C728 1.259 . S
O743 Eu721 2.670 . S
O743 C728 1.270 . S
O743 Eu731 2.355 . S
O744 Eu721 2.394 . S
O744 C729 1.251 . S
O745 C729 1.251 . S
O745 Eu731 2.374 . S
O746 C730 1.257 . S
O746 Eu731 2.473 . S
O747 C730 1.260 . S
O747 Eu731 2.480 . S
O748 Eu731 2.430 . S
O748 C738 1.259 . S
O749 Eu721 2.355 . S
O749 Eu731 2.670 . S
O749 C738 1.270 . S
O750 Eu731 2.394 . S
O750 C739 1.251 . S
O751 Eu721 2.374 . S
O751 C739 1.251 . S
H752 C723 0.931 . S
H753 C724 0.931 . S
H754 C726 0.931 . S
H755 C727 0.931 . S
H756 C733 0.931 . S
H757 C734 0.931 . S
H758 C736 0.931 . S
H759 C737 0.931 . S
C760 Eu761 2.835 . S
C760 C762 1.500 . S
C760 O780 1.257 . S
C760 O781 1.260 . S
Eu761 C760 2.835 . S
Eu761 O780 2.473 . S
Eu761 O781 2.480 . S
Eu761 O782 2.430 . S
Eu761 O783 2.670 . S
Eu761 O784 2.394 . S
Eu761 O789 2.355 . S
Eu761 O791 2.374 . S
C762 C760 1.500 . S
C762 C763 1.377 . S
C762 C767 1.377 . S
C763 C762 1.377 . S
C763 C764 1.395 . S
C763 H792 0.931 . S
C764 C763 1.395 . S
C764 C765 1.383 . S
C764 H793 0.931 . S
C765 C764 1.383 . S
C765 C766 1.394 . S
C766 C765 1.394 . S
C766 C767 1.378 . S
C766 H794 0.931 . S
C767 C762 1.377 . S
C767 C766 1.378 . S
C767 H795 0.931 . S
C768 O782 1.259 . S
C768 O783 1.270 . S
C769 O784 1.251 . S
C769 O785 1.251 . S
C770 Eu771 2.835 . S
C770 C772 1.500 . S
C770 O786 1.257 . S
C770 O787 1.260 . S
Eu771 C770 2.835 . S
Eu771 O783 2.355 . S
Eu771 O785 2.374 . S
Eu771 O786 2.473 . S
Eu771 O787 2.480 . S
Eu771 O788 2.430 . S
Eu771 O789 2.670 . S
Eu771 O790 2.394 . S
C772 C770 1.500 . S
C772 C773 1.377 . S
C772 C777 1.377 . S
C773 C772 1.377 . S
C773 C774 1.395 . S
C773 H796 0.931 . S
C774 C773 1.395 . S
C774 C775 1.383 . S
C774 H797 0.931 . S
C775 C774 1.383 . S
C775 C776 1.394 . S
C776 C775 1.394 . S
C776 C777 1.378 . S
C776 H798 0.931 . S
C777 C772 1.377 . S
C777 C776 1.378 . S
C777 H799 0.931 . S
C778 O788 1.259 . S
C778 O789 1.270 . S
C779 O790 1.251 . S
C779 O791 1.251 . S
O780 C760 1.257 . S
O780 Eu761 2.473 . S
O781 C760 1.260 . S
O781 Eu761 2.480 . S
O782 Eu761 2.430 . S
O782 C768 1.259 . S
O783 Eu761 2.670 . S
O783 C768 1.270 . S
O783 Eu771 2.355 . S
O784 Eu761 2.394 . S
O784 C769 1.251 . S
O785 C769 1.251 . S
O785 Eu771 2.374 . S
O786 C770 1.257 . S
O786 Eu771 2.473 . S
O787 C770 1.260 . S
O787 Eu771 2.480 . S
O788 Eu771 2.430 . S
O788 C778 1.259 . S
O789 Eu761 2.355 . S
O789 Eu771 2.670 . S
O789 C778 1.270 . S
O790 Eu771 2.394 . S
O790 C779 1.251 . S
O791 Eu761 2.374 . S
O791 C779 1.251 . S
H792 C763 0.931 . S
H793 C764 0.931 . S
H794 C766 0.931 . S
H795 C767 0.931 . S
H796 C773 0.931 . S
H797 C774 0.931 . S
H798 C776 0.931 . S
H799 C777 0.931 . S
C800 Eu801 2.835 . S
C800 C802 1.500 . S
C800 O820 1.257 . S
C800 O821 1.260 . S
Eu801 C800 2.835 . S
Eu801 O820 2.473 . S
Eu801 O821 2.480 . S
Eu801 O822 2.430 . S
Eu801 O823 2.670 . S
Eu801 O824 2.394 . S
Eu801 O829 2.355 . S
Eu801 O831 2.374 . S
C802 C800 1.500 . S
C802 C803 1.377 . S
C802 C807 1.377 . S
C803 C802 1.377 . S
C803 C804 1.395 . S
C803 H832 0.931 . S
C804 C803 1.395 . S
C804 C805 1.383 . S
C804 H833 0.931 . S
C805 C804 1.383 . S
C805 C806 1.394 . S
C806 C805 1.394 . S
C806 C807 1.378 . S
C806 H834 0.931 . S
C807 C802 1.377 . S
C807 C806 1.378 . S
C807 H835 0.931 . S
C808 O822 1.259 . S
C808 O823 1.270 . S
C809 O824 1.251 . S
C809 O825 1.251 . S
C810 Eu811 2.835 . S
C810 C812 1.500 . S
C810 O826 1.257 . S
C810 O827 1.260 . S
Eu811 C810 2.835 . S
Eu811 O823 2.355 . S
Eu811 O825 2.374 . S
Eu811 O826 2.473 . S
Eu811 O827 2.480 . S
Eu811 O828 2.430 . S
Eu811 O829 2.670 . S
Eu811 O830 2.394 . S
C812 C810 1.500 . S
C812 C813 1.377 . S
C812 C817 1.377 . S
C813 C812 1.377 . S
C813 C814 1.395 . S
C813 H836 0.931 . S
C814 C813 1.395 . S
C814 C815 1.383 . S
C814 H837 0.931 . S
C815 C814 1.383 . S
C815 C816 1.394 . S
C816 C815 1.394 . S
C816 C817 1.378 . S
C816 H838 0.931 . S
C817 C812 1.377 . S
C817 C816 1.378 . S
C817 H839 0.931 . S
C818 O828 1.259 . S
C818 O829 1.270 . S
C819 O830 1.251 . S
C819 O831 1.251 . S
O820 C800 1.257 . S
O820 Eu801 2.473 . S
O821 C800 1.260 . S
O821 Eu801 2.480 . S
O822 Eu801 2.430 . S
O822 C808 1.259 . S
O823 Eu801 2.670 . S
O823 C808 1.270 . S
O823 Eu811 2.355 . S
O824 Eu801 2.394 . S
O824 C809 1.251 . S
O825 C809 1.251 . S
O825 Eu811 2.374 . S
O826 C810 1.257 . S
O826 Eu811 2.473 . S
O827 C810 1.260 . S
O827 Eu811 2.480 . S
O828 Eu811 2.430 . S
O828 C818 1.259 . S
O829 Eu801 2.355 . S
O829 Eu811 2.670 . S
O829 C818 1.270 . S
O830 Eu811 2.394 . S
O830 C819 1.251 . S
O831 Eu801 2.374 . S
O831 C819 1.251 . S
H832 C803 0.931 . S
H833 C804 0.931 . S
H834 C806 0.931 . S
H835 C807 0.931 . S
H836 C813 0.931 . S
H837 C814 0.931 . S
H838 C816 0.931 . S
H839 C817 0.931 . S
C840 Eu841 2.835 1_554 S
C840 C842 1.500 . S
C840 O860 1.257 . S
C840 O861 1.260 . S
Eu841 C840 2.835 1_556 S
Eu841 O860 2.473 1_556 S
Eu841 O861 2.480 1_556 S
Eu841 O862 2.430 . S
Eu841 O863 2.670 . S
Eu841 O864 2.394 1_556 S
Eu841 O869 2.355 . S
Eu841 O871 2.374 . S
C842 C840 1.500 . S
C842 C843 1.377 . S
C842 C847 1.377 . S
C843 C842 1.377 . S
C843 C844 1.395 . S
C843 H872 0.931 . S
C844 C843 1.395 . S
C844 C845 1.383 . S
C844 H873 0.931 . S
C845 C844 1.383 . S
C845 C846 1.394 . S
C846 C845 1.394 . S
C846 C847 1.378 . S
C846 H874 0.931 . S
C847 C842 1.377 . S
C847 C846 1.378 . S
C847 H875 0.931 . S
C848 O862 1.259 . S
C848 O863 1.270 . S
C849 O864 1.251 . S
C849 O865 1.251 . S
C850 Eu851 2.835 . S
C850 C852 1.500 . S
C850 O866 1.257 . S
C850 O867 1.260 . S
Eu851 C850 2.835 . S
Eu851 O863 2.355 . S
Eu851 O865 2.374 1_556 S
Eu851 O866 2.473 . S
Eu851 O867 2.480 . S
Eu851 O868 2.430 . S
Eu851 O869 2.670 . S
Eu851 O870 2.394 . S
C852 C850 1.500 . S
C852 C853 1.377 . S
C852 C857 1.377 . S
C853 C852 1.377 . S
C853 C854 1.395 . S
C853 H876 0.931 . S
C854 C853 1.395 . S
C854 C855 1.383 . S
C854 H877 0.931 . S
C855 C854 1.383 . S
C855 C856 1.394 . S
C856 C855 1.394 . S
C856 C857 1.378 . S
C856 H878 0.931 . S
C857 C852 1.377 . S
C857 C856 1.378 . S
C857 H879 0.931 . S
C858 O868 1.259 . S
C858 O869 1.270 . S
C859 O870 1.251 . S
C859 O871 1.251 . S
O860 C840 1.257 . S
O860 Eu841 2.473 1_554 S
O861 C840 1.260 . S
O861 Eu841 2.480 1_554 S
O862 Eu841 2.430 . S
O862 C848 1.259 . S
O863 Eu841 2.670 . S
O863 C848 1.270 . S
O863 Eu851 2.355 . S
O864 Eu841 2.394 1_554 S
O864 C849 1.251 . S
O865 C849 1.251 . S
O865 Eu851 2.374 1_554 S
O866 C850 1.257 . S
O866 Eu851 2.473 . S
O867 C850 1.260 . S
O867 Eu851 2.480 . S
O868 Eu851 2.430 . S
O868 C858 1.259 . S
O869 Eu841 2.355 . S
O869 Eu851 2.670 . S
O869 C858 1.270 . S
O870 Eu851 2.394 . S
O870 C859 1.251 . S
O871 Eu841 2.374 . S
O871 C859 1.251 . S
H872 C843 0.931 . S
H873 C844 0.931 . S
H874 C846 0.931 . S
H875 C847 0.931 . S
H876 C853 0.931 . S
H877 C854 0.931 . S
H878 C856 0.931 . S
H879 C857 0.931 . S
C880 Eu881 2.835 1_554 S
C880 C882 1.500 . S
C880 O900 1.257 . S
C880 O901 1.260 . S
Eu881 C880 2.835 1_556 S
Eu881 O900 2.473 1_556 S
Eu881 O901 2.480 1_556 S
Eu881 O902 2.430 . S
Eu881 O903 2.670 . S
Eu881 O904 2.394 1_556 S
Eu881 O909 2.355 . S
Eu881 O911 2.374 . S
C882 C880 1.500 . S
C882 C883 1.377 . S
C882 C887 1.377 . S
C883 C882 1.377 . S
C883 C884 1.395 . S
C883 H912 0.931 . S
C884 C883 1.395 . S
C884 C885 1.383 . S
C884 H913 0.931 . S
C885 C884 1.383 . S
C885 C886 1.394 . S
C886 C885 1.394 . S
C886 C887 1.378 . S
C886 H914 0.931 . S
C887 C882 1.377 . S
C887 C886 1.378 . S
C887 H915 0.931 . S
C888 O902 1.259 . S
C888 O903 1.270 . S
C889 O904 1.251 . S
C889 O905 1.251 . S
C890 Eu891 2.835 . S
C890 C892 1.500 . S
C890 O906 1.257 . S
C890 O907 1.260 . S
Eu891 C890 2.835 . S
Eu891 O903 2.355 . S
Eu891 O905 2.374 1_556 S
Eu891 O906 2.473 . S
Eu891 O907 2.480 . S
Eu891 O908 2.430 . S
Eu891 O909 2.670 . S
Eu891 O910 2.394 . S
C892 C890 1.500 . S
C892 C893 1.377 . S
C892 C897 1.377 . S
C893 C892 1.377 . S
C893 C894 1.395 . S
C893 H916 0.931 . S
C894 C893 1.395 . S
C894 C895 1.383 . S
C894 H917 0.931 . S
C895 C894 1.383 . S
C895 C896 1.394 . S
C896 C895 1.394 . S
C896 C897 1.378 . S
C896 H918 0.931 . S
C897 C892 1.377 . S
C897 C896 1.378 . S
C897 H919 0.931 . S
C898 O908 1.259 . S
C898 O909 1.270 . S
C899 O910 1.251 . S
C899 O911 1.251 . S
O900 C880 1.257 . S
O900 Eu881 2.473 1_554 S
O901 C880 1.260 . S
O901 Eu881 2.480 1_554 S
O902 Eu881 2.430 . S
O902 C888 1.259 . S
O903 Eu881 2.670 . S
O903 C888 1.270 . S
O903 Eu891 2.355 . S
O904 Eu881 2.394 1_554 S
O904 C889 1.251 . S
O905 C889 1.251 . S
O905 Eu891 2.374 1_554 S
O906 C890 1.257 . S
O906 Eu891 2.473 . S
O907 C890 1.260 . S
O907 Eu891 2.480 . S
O908 Eu891 2.430 . S
O908 C898 1.259 . S
O909 Eu881 2.355 . S
O909 Eu891 2.670 . S
O909 C898 1.270 . S
O910 Eu891 2.394 . S
O910 C899 1.251 . S
O911 Eu881 2.374 . S
O911 C899 1.251 . S
H912 C883 0.931 . S
H913 C884 0.931 . S
H914 C886 0.931 . S
H915 C887 0.931 . S
H916 C893 0.931 . S
H917 C894 0.931 . S
H918 C896 0.931 . S
H919 C897 0.931 . S
C920 Eu921 2.835 1_554 S
C920 C922 1.500 . S
C920 O940 1.257 . S
C920 O941 1.260 . S
Eu921 C920 2.835 1_556 S
Eu921 O940 2.473 1_556 S
Eu921 O941 2.480 1_556 S
Eu921 O942 2.430 . S
Eu921 O943 2.670 . S
Eu921 O944 2.394 1_556 S
Eu921 O949 2.355 . S
Eu921 O951 2.374 . S
C922 C920 1.500 . S
C922 C923 1.377 . S
C922 C927 1.377 . S
C923 C922 1.377 . S
C923 C924 1.395 . S
C923 H952 0.931 . S
C924 C923 1.395 . S
C924 C925 1.383 . S
C924 H953 0.931 . S
C925 C924 1.383 . S
C925 C926 1.394 . S
C926 C925 1.394 . S
C926 C927 1.378 . S
C926 H954 0.931 . S
C927 C922 1.377 . S
C927 C926 1.378 . S
C927 H955 0.931 . S
C928 O942 1.259 . S
C928 O943 1.270 . S
C929 O944 1.251 . S
C929 O945 1.251 . S
C930 Eu931 2.835 . S
C930 C932 1.500 . S
C930 O946 1.257 . S
C930 O947 1.260 . S
Eu931 C930 2.835 . S
Eu931 O943 2.355 . S
Eu931 O945 2.374 1_556 S
Eu931 O946 2.473 . S
Eu931 O947 2.480 . S
Eu931 O948 2.430 . S
Eu931 O949 2.670 . S
Eu931 O950 2.394 . S
C932 C930 1.500 . S
C932 C933 1.377 . S
C932 C937 1.377 . S
C933 C932 1.377 . S
C933 C934 1.395 . S
C933 H956 0.931 . S
C934 C933 1.395 . S
C934 C935 1.383 . S
C934 H957 0.931 . S
C935 C934 1.383 . S
C935 C936 1.394 . S
C936 C935 1.394 . S
C936 C937 1.378 . S
C936 H958 0.931 . S
C937 C932 1.377 . S
C937 C936 1.378 . S
C937 H959 0.931 . S
C938 O948 1.259 . S
C938 O949 1.270 . S
C939 O950 1.251 . S
C939 O951 1.251 . S
O940 C920 1.257 . S
O940 Eu921 2.473 1_554 S
O941 C920 1.260 . S
O941 Eu921 2.480 1_554 S
O942 Eu921 2.430 . S
O942 C928 1.259 . S
O943 Eu921 2.670 . S
O943 C928 1.270 . S
O943 Eu931 2.355 . S
O944 Eu921 2.394 1_554 S
O944 C929 1.251 . S
O945 C929 1.251 . S
O945 Eu931 2.374 1_554 S
O946 C930 1.257 . S
O946 Eu931 2.473 . S
O947 C930 1.260 . S
O947 Eu931 2.480 . S
O948 Eu931 2.430 . S
O948 C938 1.259 . S
O949 Eu921 2.355 . S
O949 Eu931 2.670 . S
O949 C938 1.270 . S
O950 Eu931 2.394 . S
O950 C939 1.251 . S
O951 Eu921 2.374 . S
O951 C939 1.251 . S
H952 C923 0.931 . S
H953 C924 0.931 . S
H954 C926 0.931 . S
H955 C927 0.931 . S
H956 C933 0.931 . S
H957 C934 0.931 . S
H958 C936 0.931 . S
H959 C937 0.931 . S
C960 Eu961 2.835 . S
C960 C962 1.500 . S
C960 O980 1.257 . S
C960 O981 1.260 . S
Eu961 C960 2.835 . S
Eu961 O980 2.473 . S
Eu961 O981 2.480 . S
Eu961 O982 2.430 . S
Eu961 O983 2.670 . S
Eu961 O984 2.394 . S
Eu961 O989 2.355 . S
Eu961 O991 2.374 . S
C962 C960 1.500 . S
C962 C963 1.377 . S
C962 C967 1.377 . S
C963 C962 1.377 . S
C963 C964 1.395 . S
C963 H992 0.931 . S
C964 C963 1.395 . S
C964 C965 1.383 . S
C964 H993 0.931 . S
C965 C964 1.383 . S
C965 C966 1.394 . S
C966 C965 1.394 . S
C966 C967 1.378 . S
C966 H994 0.931 . S
C967 C962 1.377 . S
C967 C966 1.378 . S
C967 H995 0.931 . S
C968 O982 1.259 . S
C968 O983 1.270 . S
C969 O984 1.251 . S
C969 O985 1.251 . S
C970 Eu971 2.835 . S
C970 C972 1.500 . S
C970 O986 1.257 . S
C970 O987 1.260 . S
Eu971 C970 2.835 . S
Eu971 O983 2.355 . S
Eu971 O985 2.374 . S
Eu971 O986 2.473 . S
Eu971 O987 2.480 . S
Eu971 O988 2.430 . S
Eu971 O989 2.670 . S
Eu971 O990 2.394 . S
C972 C970 1.500 . S
C972 C973 1.377 . S
C972 C977 1.377 . S
C973 C972 1.377 . S
C973 C974 1.395 1_556 S
C973 H996 0.931 . S
C974 C973 1.395 1_554 S
C974 C975 1.383 . S
C974 H997 0.931 . S
C975 C974 1.383 . S
C975 C976 1.394 . S
C976 C975 1.394 . S
C976 C977 1.378 1_554 S
C976 H998 0.931 . S
C977 C972 1.377 . S
C977 C976 1.378 1_556 S
C977 H999 0.931 . S
C978 O988 1.259 . S
C978 O989 1.270 . S
C979 O990 1.251 . S
C979 O991 1.251 . S
O980 C960 1.257 . S
O980 Eu961 2.473 . S
O981 C960 1.260 . S
O981 Eu961 2.480 . S
O982 Eu961 2.430 . S
O982 C968 1.259 . S
O983 Eu961 2.670 . S
O983 C968 1.270 . S
O983 Eu971 2.355 . S
O984 Eu961 2.394 . S
O984 C969 1.251 . S
O985 C969 1.251 . S
O985 Eu971 2.374 . S
O986 C970 1.257 . S
O986 Eu971 2.473 . S
O987 C970 1.260 . S
O987 Eu971 2.480 . S
O988 Eu971 2.430 . S
O988 C978 1.259 . S
O989 Eu961 2.355 . S
O989 Eu971 2.670 . S
O989 C978 1.270 . S
O990 Eu971 2.394 . S
O990 C979 1.251 . S
O991 Eu961 2.374 . S
O991 C979 1.251 . S
H992 C963 0.931 . S
H993 C964 0.931 . S
H994 C966 0.931 . S
H995 C967 0.931 . S
H996 C973 0.931 . S
H997 C974 0.931 . S
H998 C976 0.931 . S
H999 C977 0.931 . S
C1000 Eu1001 2.835 . S
C1000 C1002 1.500 . S
C1000 O1020 1.257 . S
C1000 O1021 1.260 . S
Eu1001 C1000 2.835 . S
Eu1001 O1020 2.473 . S
Eu1001 O1021 2.480 . S
Eu1001 O1022 2.430 . S
Eu1001 O1023 2.670 . S
Eu1001 O1024 2.394 . S
Eu1001 O1029 2.355 . S
Eu1001 O1031 2.374 . S
C1002 C1000 1.500 . S
C1002 C1003 1.377 . S
C1002 C1007 1.377 . S
C1003 C1002 1.377 . S
C1003 C1004 1.395 . S
C1003 H1032 0.931 . S
C1004 C1003 1.395 . S
C1004 C1005 1.383 . S
C1004 H1033 0.931 . S
C1005 C1004 1.383 . S
C1005 C1006 1.394 . S
C1006 C1005 1.394 . S
C1006 C1007 1.378 . S
C1006 H1034 0.931 . S
C1007 C1002 1.377 . S
C1007 C1006 1.378 . S
C1007 H1035 0.931 . S
C1008 O1022 1.259 . S
C1008 O1023 1.270 . S
C1009 O1024 1.251 . S
C1009 O1025 1.251 . S
C1010 Eu1011 2.835 . S
C1010 C1012 1.500 . S
C1010 O1026 1.257 . S
C1010 O1027 1.260 . S
Eu1011 C1010 2.835 . S
Eu1011 O1023 2.355 . S
Eu1011 O1025 2.374 . S
Eu1011 O1026 2.473 . S
Eu1011 O1027 2.480 . S
Eu1011 O1028 2.430 . S
Eu1011 O1029 2.670 . S
Eu1011 O1030 2.394 . S
C1012 C1010 1.500 . S
C1012 C1013 1.377 . S
C1012 C1017 1.377 . S
C1013 C1012 1.377 . S
C1013 C1014 1.395 1_556 S
C1013 H1036 0.931 . S
C1014 C1013 1.395 1_554 S
C1014 C1015 1.383 . S
C1014 H1037 0.931 . S
C1015 C1014 1.383 . S
C1015 C1016 1.394 . S
C1016 C1015 1.394 . S
C1016 C1017 1.378 1_554 S
C1016 H1038 0.931 . S
C1017 C1012 1.377 . S
C1017 C1016 1.378 1_556 S
C1017 H1039 0.931 . S
C1018 O1028 1.259 . S
C1018 O1029 1.270 . S
C1019 O1030 1.251 . S
C1019 O1031 1.251 . S
O1020 C1000 1.257 . S
O1020 Eu1001 2.473 . S
O1021 C1000 1.260 . S
O1021 Eu1001 2.480 . S
O1022 Eu1001 2.430 . S
O1022 C1008 1.259 . S
O1023 Eu1001 2.670 . S
O1023 C1008 1.270 . S
O1023 Eu1011 2.355 . S
O1024 Eu1001 2.394 . S
O1024 C1009 1.251 . S
O1025 C1009 1.251 . S
O1025 Eu1011 2.374 . S
O1026 C1010 1.257 . S
O1026 Eu1011 2.473 . S
O1027 C1010 1.260 . S
O1027 Eu1011 2.480 . S
O1028 Eu1011 2.430 . S
O1028 C1018 1.259 . S
O1029 Eu1001 2.355 . S
O1029 Eu1011 2.670 . S
O1029 C1018 1.270 . S
O1030 Eu1011 2.394 . S
O1030 C1019 1.251 . S
O1031 Eu1001 2.374 . S
O1031 C1019 1.251 . S
H1032 C1003 0.931 . S
H1033 C1004 0.931 . S
H1034 C1006 0.931 . S
H1035 C1007 0.931 . S
H1036 C1013 0.931 . S
H1037 C1014 0.931 . S
H1038 C1016 0.931 . S
H1039 C1017 0.931 . S
C1040 Eu1041 2.835 . S
C1040 C1042 1.500 . S
C1040 O1060 1.257 . S
C1040 O1061 1.260 . S
Eu1041 C1040 2.835 . S
Eu1041 O1060 2.473 . S
Eu1041 O1061 2.480 . S
Eu1041 O1062 2.430 . S
Eu1041 O1063 2.670 . S
Eu1041 O1064 2.394 . S
Eu1041 O1069 2.355 . S
Eu1041 O1071 2.374 . S
C1042 C1040 1.500 . S
C1042 C1043 1.377 . S
C1042 C1047 1.377 . S
C1043 C1042 1.377 . S
C1043 C1044 1.395 . S
C1043 H1072 0.931 . S
C1044 C1043 1.395 . S
C1044 C1045 1.383 . S
C1044 H1073 0.931 . S
C1045 C1044 1.383 . S
C1045 C1046 1.394 . S
C1046 C1045 1.394 . S
C1046 C1047 1.378 . S
C1046 H1074 0.931 . S
C1047 C1042 1.377 . S
C1047 C1046 1.378 . S
C1047 H1075 0.931 . S
C1048 O1062 1.259 . S
C1048 O1063 1.270 . S
C1049 O1064 1.251 . S
C1049 O1065 1.251 . S
C1050 Eu1051 2.835 . S
C1050 C1052 1.500 . S
C1050 O1066 1.257 . S
C1050 O1067 1.260 . S
Eu1051 C1050 2.835 . S
Eu1051 O1063 2.355 . S
Eu1051 O1065 2.374 . S
Eu1051 O1066 2.473 . S
Eu1051 O1067 2.480 . S
Eu1051 O1068 2.430 . S
Eu1051 O1069 2.670 . S
Eu1051 O1070 2.394 . S
C1052 C1050 1.500 . S
C1052 C1053 1.377 . S
C1052 C1057 1.377 . S
C1053 C1052 1.377 . S
C1053 C1054 1.395 1_556 S
C1053 H1076 0.931 . S
C1054 C1053 1.395 1_554 S
C1054 C1055 1.383 . S
C1054 H1077 0.931 . S
C1055 C1054 1.383 . S
C1055 C1056 1.394 . S
C1056 C1055 1.394 . S
C1056 C1057 1.378 1_554 S
C1056 H1078 0.931 . S
C1057 C1052 1.377 . S
C1057 C1056 1.378 1_556 S
C1057 H1079 0.931 . S
C1058 O1068 1.259 . S
C1058 O1069 1.270 . S
C1059 O1070 1.251 . S
C1059 O1071 1.251 . S
O1060 C1040 1.257 . S
O1060 Eu1041 2.473 . S
O1061 C1040 1.260 . S
O1061 Eu1041 2.480 . S
O1062 Eu1041 2.430 . S
O1062 C1048 1.259 . S
O1063 Eu1041 2.670 . S
O1063 C1048 1.270 . S
O1063 Eu1051 2.355 . S
O1064 Eu1041 2.394 . S
O1064 C1049 1.251 . S
O1065 C1049 1.251 . S
O1065 Eu1051 2.374 . S
O1066 C1050 1.257 . S
O1066 Eu1051 2.473 . S
O1067 C1050 1.260 . S
O1067 Eu1051 2.480 . S
O1068 Eu1051 2.430 . S
O1068 C1058 1.259 . S
O1069 Eu1041 2.355 . S
O1069 Eu1051 2.670 . S
O1069 C1058 1.270 . S
O1070 Eu1051 2.394 . S
O1070 C1059 1.251 . S
O1071 Eu1041 2.374 . S
O1071 C1059 1.251 . S
H1072 C1043 0.931 . S
H1073 C1044 0.931 . S
H1074 C1046 0.931 . S
H1075 C1047 0.931 . S
H1076 C1053 0.931 . S
H1077 C1054 0.931 . S
H1078 C1056 0.931 . S
H1079 C1057 0.931 . S
C1080 Eu1081 2.835 . S
C1080 C1082 1.500 . S
C1080 O1100 1.257 . S
C1080 O1101 1.260 . S
Eu1081 C1080 2.835 . S
Eu1081 O1100 2.473 . S
Eu1081 O1101 2.480 . S
Eu1081 O1102 2.430 . S
Eu1081 O1103 2.670 . S
Eu1081 O1104 2.394 . S
Eu1081 O1109 2.355 . S
Eu1081 O1111 2.374 . S
C1082 C1080 1.500 . S
C1082 C1083 1.377 . S
C1082 C1087 1.377 . S
C1083 C1082 1.377 . S
C1083 C1084 1.395 . S
C1083 H1112 0.931 . S
C1084 C1083 1.395 . S
C1084 C1085 1.383 . S
C1084 H1113 0.931 . S
C1085 C1084 1.383 . S
C1085 C1086 1.394 . S
C1086 C1085 1.394 . S
C1086 C1087 1.378 . S
C1086 H1114 0.931 . S
C1087 C1082 1.377 . S
C1087 C1086 1.378 . S
C1087 H1115 0.931 . S
C1088 O1102 1.259 . S
C1088 O1103 1.270 . S
C1089 O1104 1.251 . S
C1089 O1105 1.251 . S
C1090 Eu1091 2.835 . S
C1090 C1092 1.500 . S
C1090 O1106 1.257 . S
C1090 O1107 1.260 . S
Eu1091 C1090 2.835 . S
Eu1091 O1103 2.355 . S
Eu1091 O1105 2.374 . S
Eu1091 O1106 2.473 . S
Eu1091 O1107 2.480 . S
Eu1091 O1108 2.430 . S
Eu1091 O1109 2.670 . S
Eu1091 O1110 2.394 . S
C1092 C1090 1.500 . S
C1092 C1093 1.377 . S
C1092 C1097 1.377 . S
C1093 C1092 1.377 . S
C1093 C1094 1.395 1_554 S
C1093 H1116 0.931 . S
C1094 C1093 1.395 1_556 S
C1094 C1095 1.383 . S
C1094 H1117 0.931 . S
C1095 C1094 1.383 . S
C1095 C1096 1.394 . S
C1096 C1095 1.394 . S
C1096 C1097 1.378 1_556 S
C1096 H1118 0.931 . S
C1097 C1092 1.377 . S
C1097 C1096 1.378 1_554 S
C1097 H1119 0.931 . S
C1098 O1108 1.259 . S
C1098 O1109 1.270 . S
C1099 O1110 1.251 . S
C1099 O1111 1.251 . S
O1100 C1080 1.257 . S
O1100 Eu1081 2.473 . S
O1101 C1080 1.260 . S
O1101 Eu1081 2.480 . S
O1102 Eu1081 2.430 . S
O1102 C1088 1.259 . S
O1103 Eu1081 2.670 . S
O1103 C1088 1.270 . S
O1103 Eu1091 2.355 . S
O1104 Eu1081 2.394 . S
O1104 C1089 1.251 . S
O1105 C1089 1.251 . S
O1105 Eu1091 2.374 . S
O1106 C1090 1.257 . S
O1106 Eu1091 2.473 . S
O1107 C1090 1.260 . S
O1107 Eu1091 2.480 . S
O1108 Eu1091 2.430 . S
O1108 C1098 1.259 . S
O1109 Eu1081 2.355 . S
O1109 Eu1091 2.670 . S
O1109 C1098 1.270 . S
O1110 Eu1091 2.394 . S
O1110 C1099 1.251 . S
O1111 Eu1081 2.374 . S
O1111 C1099 1.251 . S
H1112 C1083 0.931 . S
H1113 C1084 0.931 . S
H1114 C1086 0.931 . S
H1115 C1087 0.931 . S
H1116 C1093 0.931 . S
H1117 C1094 0.931 . S
H1118 C1096 0.931 . S
H1119 C1097 0.931 . S
C1120 Eu1121 2.835 . S
C1120 C1122 1.500 . S
C1120 O1140 1.257 . S
C1120 O1141 1.260 . S
Eu1121 C1120 2.835 . S
Eu1121 O1140 2.473 . S
Eu1121 O1141 2.480 . S
Eu1121 O1142 2.430 . S
Eu1121 O1143 2.670 . S
Eu1121 O1144 2.394 . S
Eu1121 O1149 2.355 . S
Eu1121 O1151 2.374 . S
C1122 C1120 1.500 . S
C1122 C1123 1.377 . S
C1122 C1127 1.377 . S
C1123 C1122 1.377 . S
C1123 C1124 1.395 . S
C1123 H1152 0.931 . S
C1124 C1123 1.395 . S
C1124 C1125 1.383 . S
C1124 H1153 0.931 . S
C1125 C1124 1.383 . S
C1125 C1126 1.394 . S
C1126 C1125 1.394 . S
C1126 C1127 1.378 . S
C1126 H1154 0.931 . S
C1127 C1122 1.377 . S
C1127 C1126 1.378 . S
C1127 H1155 0.931 . S
C1128 O1142 1.259 . S
C1128 O1143 1.270 . S
C1129 O1144 1.251 . S
C1129 O1145 1.251 . S
C1130 Eu1131 2.835 . S
C1130 C1132 1.500 . S
C1130 O1146 1.257 . S
C1130 O1147 1.260 . S
Eu1131 C1130 2.835 . S
Eu1131 O1143 2.355 . S
Eu1131 O1145 2.374 . S
Eu1131 O1146 2.473 . S
Eu1131 O1147 2.480 . S
Eu1131 O1148 2.430 . S
Eu1131 O1149 2.670 . S
Eu1131 O1150 2.394 . S
C1132 C1130 1.500 . S
C1132 C1133 1.377 . S
C1132 C1137 1.377 . S
C1133 C1132 1.377 . S
C1133 C1134 1.395 1_554 S
C1133 H1156 0.931 . S
C1134 C1133 1.395 1_556 S
C1134 C1135 1.383 . S
C1134 H1157 0.931 . S
C1135 C1134 1.383 . S
C1135 C1136 1.394 . S
C1136 C1135 1.394 . S
C1136 C1137 1.378 1_556 S
C1136 H1158 0.931 . S
C1137 C1132 1.377 . S
C1137 C1136 1.378 1_554 S
C1137 H1159 0.931 . S
C1138 O1148 1.259 . S
C1138 O1149 1.270 . S
C1139 O1150 1.251 . S
C1139 O1151 1.251 . S
O1140 C1120 1.257 . S
O1140 Eu1121 2.473 . S
O1141 C1120 1.260 . S
O1141 Eu1121 2.480 . S
O1142 Eu1121 2.430 . S
O1142 C1128 1.259 . S
O1143 Eu1121 2.670 . S
O1143 C1128 1.270 . S
O1143 Eu1131 2.355 . S
O1144 Eu1121 2.394 . S
O1144 C1129 1.251 . S
O1145 C1129 1.251 . S
O1145 Eu1131 2.374 . S
O1146 C1130 1.257 . S
O1146 Eu1131 2.473 . S
O1147 C1130 1.260 . S
O1147 Eu1131 2.480 . S
O1148 Eu1131 2.430 . S
O1148 C1138 1.259 . S
O1149 Eu1121 2.355 . S
O1149 Eu1131 2.670 . S
O1149 C1138 1.270 . S
O1150 Eu1131 2.394 . S
O1150 C1139 1.251 . S
O1151 Eu1121 2.374 . S
O1151 C1139 1.251 . S
H1152 C1123 0.931 . S
H1153 C1124 0.931 . S
H1154 C1126 0.931 . S
H1155 C1127 0.931 . S
H1156 C1133 0.931 . S
H1157 C1134 0.931 . S
H1158 C1136 0.931 . S
H1159 C1137 0.931 . S
C1160 Eu1161 2.835 . S
C1160 C1162 1.500 . S
C1160 O1180 1.257 . S
C1160 O1181 1.260 . S
Eu1161 C1160 2.835 . S
Eu1161 O1180 2.473 . S
Eu1161 O1181 2.480 . S
Eu1161 O1182 2.430 . S
Eu1161 O1183 2.670 . S
Eu1161 O1184 2.394 . S
Eu1161 O1189 2.355 . S
Eu1161 O1191 2.374 . S
C1162 C1160 1.500 . S
C1162 C1163 1.377 . S
C1162 C1167 1.377 . S
C1163 C1162 1.377 . S
C1163 C1164 1.395 . S
C1163 H1192 0.931 . S
C1164 C1163 1.395 . S
C1164 C1165 1.383 . S
C1164 H1193 0.931 . S
C1165 C1164 1.383 . S
C1165 C1166 1.394 . S
C1166 C1165 1.394 . S
C1166 C1167 1.378 . S
C1166 H1194 0.931 . S
C1167 C1162 1.377 . S
C1167 C1166 1.378 . S
C1167 H1195 0.931 . S
C1168 O1182 1.259 . S
C1168 O1183 1.270 . S
C1169 O1184 1.251 . S
C1169 O1185 1.251 . S
C1170 Eu1171 2.835 . S
C1170 C1172 1.500 . S
C1170 O1186 1.257 . S
C1170 O1187 1.260 . S
Eu1171 C1170 2.835 . S
Eu1171 O1183 2.355 . S
Eu1171 O1185 2.374 . S
Eu1171 O1186 2.473 . S
Eu1171 O1187 2.480 . S
Eu1171 O1188 2.430 . S
Eu1171 O1189 2.670 . S
Eu1171 O1190 2.394 . S
C1172 C1170 1.500 . S
C1172 C1173 1.377 . S
C1172 C1177 1.377 . S
C1173 C1172 1.377 . S
C1173 C1174 1.395 1_554 S
C1173 H1196 0.931 . S
C1174 C1173 1.395 1_556 S
C1174 C1175 1.383 . S
C1174 H1197 0.931 . S
C1175 C1174 1.383 . S
C1175 C1176 1.394 . S
C1176 C1175 1.394 . S
C1176 C1177 1.378 1_556 S
C1176 H1198 0.931 . S
C1177 C1172 1.377 . S
C1177 C1176 1.378 1_554 S
C1177 H1199 0.931 . S
C1178 O1188 1.259 . S
C1178 O1189 1.270 . S
C1179 O1190 1.251 . S
C1179 O1191 1.251 . S
O1180 C1160 1.257 . S
O1180 Eu1161 2.473 . S
O1181 C1160 1.260 . S
O1181 Eu1161 2.480 . S
O1182 Eu1161 2.430 . S
O1182 C1168 1.259 . S
O1183 Eu1161 2.670 . S
O1183 C1168 1.270 . S
O1183 Eu1171 2.355 . S
O1184 Eu1161 2.394 . S
O1184 C1169 1.251 . S
O1185 C1169 1.251 . S
O1185 Eu1171 2.374 . S
O1186 C1170 1.257 . S
O1186 Eu1171 2.473 . S
O1187 C1170 1.260 . S
O1187 Eu1171 2.480 . S
O1188 Eu1171 2.430 . S
O1188 C1178 1.259 . S
O1189 Eu1161 2.355 . S
O1189 Eu1171 2.670 . S
O1189 C1178 1.270 . S
O1190 Eu1171 2.394 . S
O1190 C1179 1.251 . S
O1191 Eu1161 2.374 . S
O1191 C1179 1.251 . S
H1192 C1163 0.931 . S
H1193 C1164 0.931 . S
H1194 C1166 0.931 . S
H1195 C1167 0.931 . S
H1196 C1173 0.931 . S
H1197 C1174 0.931 . S
H1198 C1176 0.931 . S
H1199 C1177 0.931 . S
C1200 Eu1201 2.835 . S
C1200 C1202 1.500 . S
C1200 O1220 1.257 . S
C1200 O1221 1.260 . S
Eu1201 C1200 2.835 . S
Eu1201 O1220 2.473 . S
Eu1201 O1221 2.480 . S
Eu1201 O1222 2.430 . S
Eu1201 O1223 2.670 . S
Eu1201 O1224 2.394 . S
Eu1201 O1229 2.355 . S
Eu1201 O1231 2.374 . S
C1202 C1200 1.500 . S
C1202 C1203 1.377 . S
C1202 C1207 1.377 . S
C1203 C1202 1.377 . S
C1203 C1204 1.395 . S
C1203 H1232 0.931 . S
C1204 C1203 1.395 . S
C1204 C1205 1.383 . S
C1204 H1233 0.931 . S
C1205 C1204 1.383 . S
C1205 C1206 1.394 . S
C1206 C1205 1.394 . S
C1206 C1207 1.378 . S
C1206 H1234 0.931 . S
C1207 C1202 1.377 . S
C1207 C1206 1.378 . S
C1207 H1235 0.931 . S
C1208 O1222 1.259 . S
C1208 O1223 1.270 . S
C1209 O1224 1.251 . S
C1209 O1225 1.251 . S
C1210 Eu1211 2.835 . S
C1210 C1212 1.500 . S
C1210 O1226 1.257 . S
C1210 O1227 1.260 . S
Eu1211 C1210 2.835 . S
Eu1211 O1223 2.355 . S
Eu1211 O1225 2.374 . S
Eu1211 O1226 2.473 . S
Eu1211 O1227 2.480 . S
Eu1211 O1228 2.430 . S
Eu1211 O1229 2.670 . S
Eu1211 O1230 2.394 . S
C1212 C1210 1.500 . S
C1212 C1213 1.377 . S
C1212 C1217 1.377 . S
C1213 C1212 1.377 . S
C1213 C1214 1.395 . S
C1213 H1236 0.931 . S
C1214 C1213 1.395 . S
C1214 C1215 1.383 . S
C1214 H1237 0.931 . S
C1215 C1214 1.383 . S
C1215 C1216 1.394 . S
C1216 C1215 1.394 . S
C1216 C1217 1.378 . S
C1216 H1238 0.931 . S
C1217 C1212 1.377 . S
C1217 C1216 1.378 . S
C1217 H1239 0.931 . S
C1218 O1228 1.259 . S
C1218 O1229 1.270 . S
C1219 O1230 1.251 . S
C1219 O1231 1.251 . S
O1220 C1200 1.257 . S
O1220 Eu1201 2.473 . S
O1221 C1200 1.260 . S
O1221 Eu1201 2.480 . S
O1222 Eu1201 2.430 . S
O1222 C1208 1.259 . S
O1223 Eu1201 2.670 . S
O1223 C1208 1.270 . S
O1223 Eu1211 2.355 . S
O1224 Eu1201 2.394 . S
O1224 C1209 1.251 . S
O1225 C1209 1.251 . S
O1225 Eu1211 2.374 . S
O1226 C1210 1.257 . S
O1226 Eu1211 2.473 . S
O1227 C1210 1.260 . S
O1227 Eu1211 2.480 . S
O1228 Eu1211 2.430 . S
O1228 C1218 1.259 . S
O1229 Eu1201 2.355 . S
O1229 Eu1211 2.670 . S
O1229 C1218 1.270 . S
O1230 Eu1211 2.394 . S
O1230 C1219 1.251 . S
O1231 Eu1201 2.374 . S
O1231 C1219 1.251 . S
H1232 C1203 0.931 . S
H1233 C1204 0.931 . S
H1234 C1206 0.931 . S
H1235 C1207 0.931 . S
H1236 C1213 0.931 . S
H1237 C1214 0.931 . S
H1238 C1216 0.931 . S
H1239 C1217 0.931 . S
C1240 Eu1241 2.835 . S
C1240 C1242 1.500 . S
C1240 O1260 1.257 . S
C1240 O1261 1.260 . S
Eu1241 C1240 2.835 . S
Eu1241 O1260 2.473 . S
Eu1241 O1261 2.480 . S
Eu1241 O1262 2.430 . S
Eu1241 O1263 2.670 . S
Eu1241 O1264 2.394 . S
Eu1241 O1269 2.355 . S
Eu1241 O1271 2.374 . S
C1242 C1240 1.500 . S
C1242 C1243 1.377 . S
C1242 C1247 1.377 . S
C1243 C1242 1.377 . S
C1243 C1244 1.395 . S
C1243 H1272 0.931 . S
C1244 C1243 1.395 . S
C1244 C1245 1.383 . S
C1244 H1273 0.931 . S
C1245 C1244 1.383 . S
C1245 C1246 1.394 . S
C1246 C1245 1.394 . S
C1246 C1247 1.378 . S
C1246 H1274 0.931 . S
C1247 C1242 1.377 . S
C1247 C1246 1.378 . S
C1247 H1275 0.931 . S
C1248 O1262 1.259 . S
C1248 O1263 1.270 . S
C1249 O1264 1.251 . S
C1249 O1265 1.251 . S
C1250 Eu1251 2.835 . S
C1250 C1252 1.500 . S
C1250 O1266 1.257 . S
C1250 O1267 1.260 . S
Eu1251 C1250 2.835 . S
Eu1251 O1263 2.355 . S
Eu1251 O1265 2.374 . S
Eu1251 O1266 2.473 . S
Eu1251 O1267 2.480 . S
Eu1251 O1268 2.430 . S
Eu1251 O1269 2.670 . S
Eu1251 O1270 2.394 . S
C1252 C1250 1.500 . S
C1252 C1253 1.377 . S
C1252 C1257 1.377 . S
C1253 C1252 1.377 . S
C1253 C1254 1.395 . S
C1253 H1276 0.931 . S
C1254 C1253 1.395 . S
C1254 C1255 1.383 . S
C1254 H1277 0.931 . S
C1255 C1254 1.383 . S
C1255 C1256 1.394 . S
C1256 C1255 1.394 . S
C1256 C1257 1.378 . S
C1256 H1278 0.931 . S
C1257 C1252 1.377 . S
C1257 C1256 1.378 . S
C1257 H1279 0.931 . S
C1258 O1268 1.259 . S
C1258 O1269 1.270 . S
C1259 O1270 1.251 . S
C1259 O1271 1.251 . S
O1260 C1240 1.257 . S
O1260 Eu1241 2.473 . S
O1261 C1240 1.260 . S
O1261 Eu1241 2.480 . S
O1262 Eu1241 2.430 . S
O1262 C1248 1.259 . S
O1263 Eu1241 2.670 . S
O1263 C1248 1.270 . S
O1263 Eu1251 2.355 . S
O1264 Eu1241 2.394 . S
O1264 C1249 1.251 . S
O1265 C1249 1.251 . S
O1265 Eu1251 2.374 . S
O1266 C1250 1.257 . S
O1266 Eu1251 2.473 . S
O1267 C1250 1.260 . S
O1267 Eu1251 2.480 . S
O1268 Eu1251 2.430 . S
O1268 C1258 1.259 . S
O1269 Eu1241 2.355 . S
O1269 Eu1251 2.670 . S
O1269 C1258 1.270 . S
O1270 Eu1251 2.394 . S
O1270 C1259 1.251 . S
O1271 Eu1241 2.374 . S
O1271 C1259 1.251 . S
H1272 C1243 0.931 . S
H1273 C1244 0.931 . S
H1274 C1246 0.931 . S
H1275 C1247 0.931 . S
H1276 C1253 0.931 . S
H1277 C1254 0.931 . S
H1278 C1256 0.931 . S
H1279 C1257 0.931 . S
C1280 Eu1281 2.835 . S
C1280 C1282 1.500 . S
C1280 O1300 1.257 . S
C1280 O1301 1.260 . S
Eu1281 C1280 2.835 . S
Eu1281 O1300 2.473 . S
Eu1281 O1301 2.480 . S
Eu1281 O1302 2.430 . S
Eu1281 O1303 2.670 . S
Eu1281 O1304 2.394 . S
Eu1281 O1309 2.355 . S
Eu1281 O1311 2.374 . S
C1282 C1280 1.500 . S
C1282 C1283 1.377 . S
C1282 C1287 1.377 . S
C1283 C1282 1.377 . S
C1283 C1284 1.395 . S
C1283 H1312 0.931 . S
C1284 C1283 1.395 . S
C1284 C1285 1.383 . S
C1284 H1313 0.931 . S
C1285 C1284 1.383 . S
C1285 C1286 1.394 . S
C1286 C1285 1.394 . S
C1286 C1287 1.378 . S
C1286 H1314 0.931 . S
C1287 C1282 1.377 . S
C1287 C1286 1.378 . S
C1287 H1315 0.931 . S
C1288 O1302 1.259 . S
C1288 O1303 1.270 . S
C1289 O1304 1.251 . S
C1289 O1305 1.251 . S
C1290 Eu1291 2.835 . S
C1290 C1292 1.500 . S
C1290 O1306 1.257 . S
C1290 O1307 1.260 . S
Eu1291 C1290 2.835 . S
Eu1291 O1303 2.355 . S
Eu1291 O1305 2.374 . S
Eu1291 O1306 2.473 . S
Eu1291 O1307 2.480 . S
Eu1291 O1308 2.430 . S
Eu1291 O1309 2.670 . S
Eu1291 O1310 2.394 . S
C1292 C1290 1.500 . S
C1292 C1293 1.377 . S
C1292 C1297 1.377 . S
C1293 C1292 1.377 . S
C1293 C1294 1.395 . S
C1293 H1316 0.931 . S
C1294 C1293 1.395 . S
C1294 C1295 1.383 . S
C1294 H1317 0.931 . S
C1295 C1294 1.383 . S
C1295 C1296 1.394 . S
C1296 C1295 1.394 . S
C1296 C1297 1.378 . S
C1296 H1318 0.931 . S
C1297 C1292 1.377 . S
C1297 C1296 1.378 . S
C1297 H1319 0.931 . S
C1298 O1308 1.259 . S
C1298 O1309 1.270 . S
C1299 O1310 1.251 . S
C1299 O1311 1.251 . S
O1300 C1280 1.257 . S
O1300 Eu1281 2.473 . S
O1301 C1280 1.260 . S
O1301 Eu1281 2.480 . S
O1302 Eu1281 2.430 . S
O1302 C1288 1.259 . S
O1303 Eu1281 2.670 . S
O1303 C1288 1.270 . S
O1303 Eu1291 2.355 . S
O1304 Eu1281 2.394 . S
O1304 C1289 1.251 . S
O1305 C1289 1.251 . S
O1305 Eu1291 2.374 . S
O1306 C1290 1.257 . S
O1306 Eu1291 2.473 . S
O1307 C1290 1.260 . S
O1307 Eu1291 2.480 . S
O1308 Eu1291 2.430 . S
O1308 C1298 1.259 . S
O1309 Eu1281 2.355 . S
O1309 Eu1291 2.670 . S
O1309 C1298 1.270 . S
O1310 Eu1291 2.394 . S
O1310 C1299 1.251 . S
O1311 Eu1281 2.374 . S
O1311 C1299 1.251 . S
H1312 C1283 0.931 . S
H1313 C1284 0.931 . S
H1314 C1286 0.931 . S
H1315 C1287 0.931 . S
H1316 C1293 0.931 . S
H1317 C1294 0.931 . S
H1318 C1296 0.931 . S
H1319 C1297 0.931 . S
C1320 Eu1321 2.835 . S
C1320 C1322 1.500 . S
C1320 O1340 1.257 . S
C1320 O1341 1.260 . S
Eu1321 C1320 2.835 . S
Eu1321 O1340 2.473 . S
Eu1321 O1341 2.480 . S
Eu1321 O1342 2.430 . S
Eu1321 O1343 2.670 . S
Eu1321 O1344 2.394 . S
Eu1321 O1349 2.355 . S
Eu1321 O1351 2.374 . S
C1322 C1320 1.500 . S
C1322 C1323 1.377 . S
C1322 C1327 1.377 . S
C1323 C1322 1.377 . S
C1323 C1324 1.395 . S
C1323 H1352 0.931 . S
C1324 C1323 1.395 . S
C1324 C1325 1.383 . S
C1324 H1353 0.931 . S
C1325 C1324 1.383 . S
C1325 C1326 1.394 . S
C1326 C1325 1.394 . S
C1326 C1327 1.378 . S
C1326 H1354 0.931 . S
C1327 C1322 1.377 . S
C1327 C1326 1.378 . S
C1327 H1355 0.931 . S
C1328 O1342 1.259 . S
C1328 O1343 1.270 . S
C1329 O1344 1.251 . S
C1329 O1345 1.251 . S
C1330 Eu1331 2.835 . S
C1330 C1332 1.500 . S
C1330 O1346 1.257 . S
C1330 O1347 1.260 . S
Eu1331 C1330 2.835 . S
Eu1331 O1343 2.355 . S
Eu1331 O1345 2.374 . S
Eu1331 O1346 2.473 . S
Eu1331 O1347 2.480 . S
Eu1331 O1348 2.430 . S
Eu1331 O1349 2.670 . S
Eu1331 O1350 2.394 . S
C1332 C1330 1.500 . S
C1332 C1333 1.377 . S
C1332 C1337 1.377 . S
C1333 C1332 1.377 . S
C1333 C1334 1.395 . S
C1333 H1356 0.931 . S
C1334 C1333 1.395 . S
C1334 C1335 1.383 . S
C1334 H1357 0.931 . S
C1335 C1334 1.383 . S
C1335 C1336 1.394 . S
C1336 C1335 1.394 . S
C1336 C1337 1.378 . S
C1336 H1358 0.931 . S
C1337 C1332 1.377 . S
C1337 C1336 1.378 . S
C1337 H1359 0.931 . S
C1338 O1348 1.259 . S
C1338 O1349 1.270 . S
C1339 O1350 1.251 . S
C1339 O1351 1.251 . S
O1340 C1320 1.257 . S
O1340 Eu1321 2.473 . S
O1341 C1320 1.260 . S
O1341 Eu1321 2.480 . S
O1342 Eu1321 2.430 . S
O1342 C1328 1.259 . S
O1343 Eu1321 2.670 . S
O1343 C1328 1.270 . S
O1343 Eu1331 2.355 . S
O1344 Eu1321 2.394 . S
O1344 C1329 1.251 . S
O1345 C1329 1.251 . S
O1345 Eu1331 2.374 . S
O1346 C1330 1.257 . S
O1346 Eu1331 2.473 . S
O1347 C1330 1.260 . S
O1347 Eu1331 2.480 . S
O1348 Eu1331 2.430 . S
O1348 C1338 1.259 . S
O1349 Eu1321 2.355 . S
O1349 Eu1331 2.670 . S
O1349 C1338 1.270 . S
O1350 Eu1331 2.394 . S
O1350 C1339 1.251 . S
O1351 Eu1321 2.374 . S
O1351 C1339 1.251 . S
H1352 C1323 0.931 . S
H1353 C1324 0.931 . S
H1354 C1326 0.931 . S
H1355 C1327 0.931 . S
H1356 C1333 0.931 . S
H1357 C1334 0.931 . S
H1358 C1336 0.931 . S
H1359 C1337 0.931 . S
C1360 Eu1361 2.835 . S
C1360 C1362 1.500 . S
C1360 O1380 1.257 . S
C1360 O1381 1.260 . S
Eu1361 C1360 2.835 . S
Eu1361 O1380 2.473 . S
Eu1361 O1381 2.480 . S
Eu1361 O1382 2.430 . S
Eu1361 O1383 2.670 . S
Eu1361 O1384 2.394 . S
Eu1361 O1389 2.355 . S
Eu1361 O1391 2.374 . S
C1362 C1360 1.500 . S
C1362 C1363 1.377 . S
C1362 C1367 1.377 . S
C1363 C1362 1.377 . S
C1363 C1364 1.395 . S
C1363 H1392 0.931 . S
C1364 C1363 1.395 . S
C1364 C1365 1.383 . S
C1364 H1393 0.931 . S
C1365 C1364 1.383 . S
C1365 C1366 1.394 . S
C1366 C1365 1.394 . S
C1366 C1367 1.378 . S
C1366 H1394 0.931 . S
C1367 C1362 1.377 . S
C1367 C1366 1.378 . S
C1367 H1395 0.931 . S
C1368 O1382 1.259 . S
C1368 O1383 1.270 . S
C1369 O1384 1.251 . S
C1369 O1385 1.251 . S
C1370 Eu1371 2.835 . S
C1370 C1372 1.500 . S
C1370 O1386 1.257 . S
C1370 O1387 1.260 . S
Eu1371 C1370 2.835 . S
Eu1371 O1383 2.355 . S
Eu1371 O1385 2.374 . S
Eu1371 O1386 2.473 . S
Eu1371 O1387 2.480 . S
Eu1371 O1388 2.430 . S
Eu1371 O1389 2.670 . S
Eu1371 O1390 2.394 . S
C1372 C1370 1.500 . S
C1372 C1373 1.377 . S
C1372 C1377 1.377 . S
C1373 C1372 1.377 . S
C1373 C1374 1.395 . S
C1373 H1396 0.931 . S
C1374 C1373 1.395 . S
C1374 C1375 1.383 . S
C1374 H1397 0.931 . S
C1375 C1374 1.383 . S
C1375 C1376 1.394 . S
C1376 C1375 1.394 . S
C1376 C1377 1.378 . S
C1376 H1398 0.931 . S
C1377 C1372 1.377 . S
C1377 C1376 1.378 . S
C1377 H1399 0.931 . S
C1378 O1388 1.259 . S
C1378 O1389 1.270 . S
C1379 O1390 1.251 . S
C1379 O1391 1.251 . S
O1380 C1360 1.257 . S
O1380 Eu1361 2.473 . S
O1381 C1360 1.260 . S
O1381 Eu1361 2.480 . S
O1382 Eu1361 2.430 . S
O1382 C1368 1.259 . S
O1383 Eu1361 2.670 . S
O1383 C1368 1.270 . S
O1383 Eu1371 2.355 . S
O1384 Eu1361 2.394 . S
O1384 C1369 1.251 . S
O1385 C1369 1.251 . S
O1385 Eu1371 2.374 . S
O1386 C1370 1.257 . S
O1386 Eu1371 2.473 . S
O1387 C1370 1.260 . S
O1387 Eu1371 2.480 . S
O1388 Eu1371 2.430 . S
O1388 C1378 1.259 . S
O1389 Eu1361 2.355 . S
O1389 Eu1371 2.670 . S
O1389 C1378 1.270 . S
O1390 Eu1371 2.394 . S
O1390 C1379 1.251 . S
O1391 Eu1361 2.374 . S
O1391 C1379 1.251 . S
H1392 C1363 0.931 . S
H1393 C1364 0.931 . S
H1394 C1366 0.931 . S
H1395 C1367 0.931 . S
H1396 C1373 0.931 . S
H1397 C1374 0.931 . S
H1398 C1376 0.931 . S
H1399 C1377 0.931 . S
C1400 Eu1401 2.835 . S
C1400 C1402 1.500 . S
C1400 O1420 1.257 . S
C1400 O1421 1.260 . S
Eu1401 C1400 2.835 . S
Eu1401 O1420 2.473 . S
Eu1401 O1421 2.480 . S
Eu1401 O1422 2.430 . S
Eu1401 O1423 2.670 . S
Eu1401 O1424 2.394 . S
Eu1401 O1429 2.355 . S
Eu1401 O1431 2.374 . S
C1402 C1400 1.500 . S
C1402 C1403 1.377 . S
C1402 C1407 1.377 . S
C1403 C1402 1.377 . S
C1403 C1404 1.395 . S
C1403 H1432 0.931 . S
C1404 C1403 1.395 . S
C1404 C1405 1.383 . S
C1404 H1433 0.931 . S
C1405 C1404 1.383 . S
C1405 C1406 1.394 . S
C1406 C1405 1.394 . S
C1406 C1407 1.378 . S
C1406 H1434 0.931 . S
C1407 C1402 1.377 . S
C1407 C1406 1.378 . S
C1407 H1435 0.931 . S
C1408 O1422 1.259 . S
C1408 O1423 1.270 . S
C1409 O1424 1.251 . S
C1409 O1425 1.251 . S
C1410 Eu1411 2.835 . S
C1410 C1412 1.500 . S
C1410 O1426 1.257 . S
C1410 O1427 1.260 . S
Eu1411 C1410 2.835 . S
Eu1411 O1423 2.355 . S
Eu1411 O1425 2.374 . S
Eu1411 O1426 2.473 . S
Eu1411 O1427 2.480 . S
Eu1411 O1428 2.430 . S
Eu1411 O1429 2.670 . S
Eu1411 O1430 2.394 . S
C1412 C1410 1.500 . S
C1412 C1413 1.377 . S
C1412 C1417 1.377 . S
C1413 C1412 1.377 . S
C1413 C1414 1.395 . S
C1413 H1436 0.931 . S
C1414 C1413 1.395 . S
C1414 C1415 1.383 . S
C1414 H1437 0.931 . S
C1415 C1414 1.383 . S
C1415 C1416 1.394 . S
C1416 C1415 1.394 . S
C1416 C1417 1.378 . S
C1416 H1438 0.931 . S
C1417 C1412 1.377 . S
C1417 C1416 1.378 . S
C1417 H1439 0.931 . S
C1418 O1428 1.259 . S
C1418 O1429 1.270 . S
C1419 O1430 1.251 . S
C1419 O1431 1.251 . S
O1420 C1400 1.257 . S
O1420 Eu1401 2.473 . S
O1421 C1400 1.260 . S
O1421 Eu1401 2.480 . S
O1422 Eu1401 2.430 . S
O1422 C1408 1.259 . S
O1423 Eu1401 2.670 . S
O1423 C1408 1.270 . S
O1423 Eu1411 2.355 . S
O1424 Eu1401 2.394 . S
O1424 C1409 1.251 . S
O1425 C1409 1.251 . S
O1425 Eu1411 2.374 . S
O1426 C1410 1.257 . S
O1426 Eu1411 2.473 . S
O1427 C1410 1.260 . S
O1427 Eu1411 2.480 . S
O1428 Eu1411 2.430 . S
O1428 C1418 1.259 . S
O1429 Eu1401 2.355 . S
O1429 Eu1411 2.670 . S
O1429 C1418 1.270 . S
O1430 Eu1411 2.394 . S
O1430 C1419 1.251 . S
O1431 Eu1401 2.374 . S
O1431 C1419 1.251 . S
H1432 C1403 0.931 . S
H1433 C1404 0.931 . S
H1434 C1406 0.931 . S
H1435 C1407 0.931 . S
H1436 C1413 0.931 . S
H1437 C1414 0.931 . S
H1438 C1416 0.931 . S
H1439 C1417 0.931 . S
C1440 C1441 1.387 . S
C1440 H1444 0.950 . S
C1440 C1449 1.390 1_556 S
C1441 C1440 1.387 . S
C1441 C1443 1.387 . S
H1442 C1449 0.950 . S
C1443 C1441 1.387 . S
C1443 C1445 1.390 1_556 S
C1443 H1447 0.950 . S
H1444 C1440 0.950 . S
C1445 C1443 1.390 1_554 S
C1445 C1446 1.387 . S
C1445 H1448 0.950 . S
C1446 C1445 1.387 . S
C1446 C1449 1.387 . S
H1447 C1443 0.950 . S
H1448 C1445 0.950 . S
C1449 C1440 1.390 1_554 S
C1449 H1442 0.950 . S
C1449 C1446 1.387 . S
C1450 C1451 1.387 . S
C1450 H1454 0.950 . S
C1450 C1459 1.390 1_556 S
C1451 C1450 1.387 . S
C1451 C1453 1.387 . S
H1452 C1459 0.950 . S
C1453 C1451 1.387 . S
C1453 C1455 1.390 1_556 S
C1453 H1457 0.950 . S
H1454 C1450 0.950 . S
C1455 C1453 1.390 1_554 S
C1455 C1456 1.387 . S
C1455 H1458 0.950 . S
C1456 C1455 1.387 . S
C1456 C1459 1.387 . S
H1457 C1453 0.950 . S
H1458 C1455 0.950 . S
C1459 C1450 1.390 1_554 S
C1459 H1452 0.950 . S
C1459 C1456 1.387 . S
C1460 C1461 1.387 . S
C1460 H1464 0.950 . S
C1460 C1469 1.390 1_554 S
C1461 C1460 1.387 . S
C1461 C1463 1.387 . S
H1462 C1469 0.950 . S
C1463 C1461 1.387 . S
C1463 C1465 1.390 1_554 S
C1463 H1467 0.950 . S
H1464 C1460 0.950 . S
C1465 C1463 1.390 1_556 S
C1465 C1466 1.387 . S
C1465 H1468 0.950 . S
C1466 C1465 1.387 . S
C1466 C1469 1.387 . S
H1467 C1463 0.950 . S
H1468 C1465 0.950 . S
C1469 C1460 1.390 1_556 S
C1469 H1462 0.950 . S
C1469 C1466 1.387 . S
C1470 C1471 1.387 . S
C1470 H1474 0.950 . S
C1470 C1479 1.390 . S
C1471 C1470 1.387 . S
C1471 C1473 1.387 . S
H1472 C1479 0.950 . S
C1473 C1471 1.387 . S
C1473 C1475 1.390 . S
C1473 H1477 0.950 . S
H1474 C1470 0.950 . S
C1475 C1473 1.390 . S
C1475 C1476 1.387 . S
C1475 H1478 0.950 . S
C1476 C1475 1.387 . S
C1476 C1479 1.387 . S
H1477 C1473 0.950 . S
H1478 C1475 0.950 . S
C1479 C1470 1.390 . S
C1479 H1472 0.950 . S
C1479 C1476 1.387 . S
C1480 C1481 1.387 . S
C1480 H1484 0.950 . S
C1480 C1489 1.390 . S
C1481 C1480 1.387 . S
C1481 C1483 1.387 . S
H1482 C1489 0.950 . S
C1483 C1481 1.387 . S
C1483 C1485 1.390 . S
C1483 H1487 0.950 . S
H1484 C1480 0.950 . S
C1485 C1483 1.390 . S
C1485 C1486 1.387 . S
C1485 H1488 0.950 . S
C1486 C1485 1.387 . S
C1486 C1489 1.387 . S
H1487 C1483 0.950 . S
H1488 C1485 0.950 . S
C1489 C1480 1.390 . S
C1489 H1482 0.950 . S
C1489 C1486 1.387 . S
C1490 C1491 1.387 . S
C1490 H1494 0.950 . S
C1490 C1499 1.390 . S
C1491 C1490 1.387 . S
C1491 C1493 1.387 . S
H1492 C1499 0.950 . S
C1493 C1491 1.387 . S
C1493 C1495 1.390 . S
C1493 H1497 0.950 . S
H1494 C1490 0.950 . S
C1495 C1493 1.390 . S
C1495 C1496 1.387 . S
C1495 H1498 0.950 . S
C1496 C1495 1.387 . S
C1496 C1499 1.387 . S
H1497 C1493 0.950 . S
H1498 C1495 0.950 . S
C1499 C1490 1.390 . S
C1499 H1492 0.950 . S
C1499 C1496 1.387 . S
C1500 C1501 1.387 . S
C1500 H1504 0.950 . S
C1500 C1509 1.390 . S
C1501 C1500 1.387 . S
C1501 C1503 1.387 . S
H1502 C1509 0.950 . S
C1503 C1501 1.387 . S
C1503 C1505 1.390 . S
C1503 H1507 0.950 . S
H1504 C1500 0.950 . S
C1505 C1503 1.390 . S
C1505 C1506 1.387 . S
C1505 H1508 0.950 . S
C1506 C1505 1.387 . S
C1506 C1509 1.387 . S
H1507 C1503 0.950 . S
H1508 C1505 0.950 . S
C1509 C1500 1.390 . S
C1509 H1502 0.950 . S
C1509 C1506 1.387 . S
C1510 C1511 1.387 . S
C1510 H1514 0.950 . S
C1510 C1519 1.390 . S
C1511 C1510 1.387 . S
C1511 C1513 1.387 . S
H1512 C1519 0.950 . S
C1513 C1511 1.387 . S
C1513 C1515 1.390 . S
C1513 H1517 0.950 . S
H1514 C1510 0.950 . S
C1515 C1513 1.390 . S
C1515 C1516 1.387 . S
C1515 H1518 0.950 . S
C1516 C1515 1.387 . S
C1516 C1519 1.387 . S
H1517 C1513 0.950 . S
H1518 C1515 0.950 . S
C1519 C1510 1.390 . S
C1519 H1512 0.950 . S
C1519 C1516 1.387 . S
C1520 C1521 1.387 . S
C1520 H1524 0.950 . S
C1520 C1529 1.390 . S
C1521 C1520 1.387 . S
C1521 C1523 1.387 . S
H1522 C1529 0.950 . S
C1523 C1521 1.387 . S
C1523 C1525 1.390 . S
C1523 H1527 0.950 . S
H1524 C1520 0.950 . S
C1525 C1523 1.390 . S
C1525 C1526 1.387 . S
C1525 H1528 0.950 . S
C1526 C1525 1.387 . S
C1526 C1529 1.387 . S
H1527 C1523 0.950 . S
H1528 C1525 0.950 . S
C1529 C1520 1.390 . S
C1529 H1522 0.950 . S
C1529 C1526 1.387 . S
C1530 C1531 1.387 . S
C1530 H1534 0.950 . S
C1530 C1539 1.390 . S
C1531 C1530 1.387 . S
C1531 C1533 1.387 . S
H1532 C1539 0.950 . S
C1533 C1531 1.387 . S
C1533 C1535 1.390 . S
C1533 H1537 0.950 . S
H1534 C1530 0.950 . S
C1535 C1533 1.390 . S
C1535 C1536 1.387 . S
C1535 H1538 0.950 . S
C1536 C1535 1.387 . S
C1536 C1539 1.387 . S
H1537 C1533 0.950 . S
H1538 C1535 0.950 . S
C1539 C1530 1.390 . S
C1539 H1532 0.950 . S
C1539 C1536 1.387 . S
C1540 C1541 1.387 . S
C1540 H1544 0.950 . S
C1540 C1549 1.390 . S
C1541 C1540 1.387 . S
C1541 C1543 1.387 . S
H1542 C1549 0.950 . S
C1543 C1541 1.387 . S
C1543 C1545 1.390 . S
C1543 H1547 0.950 . S
H1544 C1540 0.950 . S
C1545 C1543 1.390 . S
C1545 C1546 1.387 . S
C1545 H1548 0.950 . S
C1546 C1545 1.387 . S
C1546 C1549 1.387 . S
H1547 C1543 0.950 . S
H1548 C1545 0.950 . S
C1549 C1540 1.390 . S
C1549 H1542 0.950 . S
C1549 C1546 1.387 . S
C1550 C1551 1.387 . S
C1550 H1554 0.950 . S
C1550 C1559 1.390 . S
C1551 C1550 1.387 . S
C1551 C1553 1.387 . S
H1552 C1559 0.950 . S
C1553 C1551 1.387 . S
C1553 C1555 1.390 . S
C1553 H1557 0.950 . S
H1554 C1550 0.950 . S
C1555 C1553 1.390 . S
C1555 C1556 1.387 . S
C1555 H1558 0.950 . S
C1556 C1555 1.387 . S
C1556 C1559 1.387 . S
H1557 C1553 0.950 . S
H1558 C1555 0.950 . S
C1559 C1550 1.390 . S
C1559 H1552 0.950 . S
C1559 C1556 1.387 . S
C1560 C1561 1.387 . S
C1560 H1564 0.950 . S
C1560 C1569 1.390 . S
C1561 C1560 1.387 . S
C1561 C1563 1.387 . S
H1562 C1569 0.950 . S
C1563 C1561 1.387 . S
C1563 C1565 1.390 . S
C1563 H1567 0.950 . S
H1564 C1560 0.950 . S
C1565 C1563 1.390 . S
C1565 C1566 1.387 . S
C1565 H1568 0.950 . S
C1566 C1565 1.387 . S
C1566 C1569 1.387 . S
H1567 C1563 0.950 . S
H1568 C1565 0.950 . S
C1569 C1560 1.390 . S
C1569 H1562 0.950 . S
C1569 C1566 1.387 . S
C1570 C1571 1.387 . S
C1570 H1574 0.950 . S
C1570 C1579 1.390 1_565 S
C1571 C1570 1.387 . S
C1571 C1573 1.387 . S
H1572 C1579 0.950 . S
C1573 C1571 1.387 . S
C1573 C1575 1.390 1_565 S
C1573 H1577 0.950 . S
H1574 C1570 0.950 . S
C1575 C1573 1.390 1_545 S
C1575 C1576 1.387 . S
C1575 H1578 0.950 . S
C1576 C1575 1.387 . S
C1576 C1579 1.387 . S
H1577 C1573 0.950 . S
H1578 C1575 0.950 . S
C1579 C1570 1.390 1_545 S
C1579 H1572 0.950 . S
C1579 C1576 1.387 . S
C1580 C1581 1.399 1_455 S
C1580 H1584 0.933 . S
C1580 C1589 1.398 . S
C1581 C1580 1.399 1_655 S
C1581 C1583 1.387 . S
H1582 C1589 0.950 . S
C1583 C1581 1.387 . S
C1583 C1585 1.398 . S
C1583 H1587 0.950 . S
H1584 C1580 0.933 . S
C1585 C1583 1.398 . S
C1585 C1586 1.399 1_655 S
C1585 H1588 0.933 . S
C1586 C1585 1.399 1_455 S
C1586 C1589 1.387 . S
H1587 C1583 0.950 . S
H1588 C1585 0.933 . S
C1589 C1580 1.398 . S
C1589 H1582 0.950 . S
C1589 C1586 1.387 . S
C1590 C1591 1.387 . S
C1590 H1594 0.950 . S
C1590 C1599 1.390 . S
C1591 C1590 1.387 . S
C1591 C1593 1.387 . S
H1592 C1599 0.950 . S
C1593 C1591 1.387 . S
C1593 C1595 1.390 . S
C1593 H1597 0.950 . S
H1594 C1590 0.950 . S
C1595 C1593 1.390 . S
C1595 C1596 1.387 . S
C1595 H1598 0.950 . S
C1596 C1595 1.387 . S
C1596 C1599 1.387 . S
H1597 C1593 0.950 . S
H1598 C1595 0.950 . S
C1599 C1590 1.390 . S
C1599 H1592 0.950 . S
C1599 C1596 1.387 . S
C1600 C1601 1.387 . S
C1600 H1604 0.950 . S
C1600 C1609 1.390 1_545 S
C1601 C1600 1.387 . S
C1601 C1603 1.387 . S
H1602 C1609 0.950 . S
C1603 C1601 1.387 . S
C1603 C1605 1.390 1_545 S
C1603 H1607 0.950 . S
H1604 C1600 0.950 . S
C1605 C1603 1.390 1_565 S
C1605 C1606 1.387 . S
C1605 H1608 0.950 . S
C1606 C1605 1.387 . S
C1606 C1609 1.387 . S
H1607 C1603 0.950 . S
H1608 C1605 0.950 . S
C1609 C1600 1.390 1_565 S
C1609 H1602 0.950 . S
C1609 C1606 1.387 . S
C1610 C1611 1.387 1_655 S
C1610 H1614 0.950 . S
C1610 C1619 1.390 . S
C1611 C1610 1.387 1_455 S
C1611 C1613 1.387 . S
H1612 C1619 0.950 . S
C1613 C1611 1.387 . S
C1613 C1615 1.390 . S
C1613 H1617 0.950 . S
H1614 C1610 0.950 . S
C1615 C1613 1.390 . S
C1615 C1616 1.387 1_455 S
C1615 H1618 0.950 . S
C1616 C1615 1.387 1_655 S
C1616 C1619 1.387 . S
H1617 C1613 0.950 . S
H1618 C1615 0.950 . S
C1619 C1610 1.390 . S
C1619 H1612 0.950 . S
C1619 C1616 1.387 . S
C1620 C1621 1.387 . S
C1620 H1624 0.950 . S
C1620 C1629 1.390 . S
C1621 C1620 1.387 . S
C1621 C1623 1.387 1_455 S
H1622 C1629 0.950 . S
C1623 C1621 1.387 1_655 S
C1623 C1625 1.390 . S
C1623 H1627 0.950 . S
H1624 C1620 0.950 . S
C1625 C1623 1.390 . S
C1625 C1626 1.387 . S
C1625 H1628 0.950 . S
C1626 C1625 1.387 . S
C1626 C1629 1.387 1_655 S
H1627 C1623 0.950 . S
H1628 C1625 0.950 . S
C1629 C1620 1.390 . S
C1629 H1622 0.950 . S
C1629 C1626 1.387 1_455 S
C1630 C1631 1.387 . S
C1630 H1634 0.950 . S
C1630 C1639 1.390 . S
C1631 C1630 1.387 . S
C1631 C1633 1.387 . S
H1632 C1639 0.950 . S
C1633 C1631 1.387 . S
C1633 C1635 1.390 . S
C1633 H1637 0.950 . S
H1634 C1630 0.950 . S
C1635 C1633 1.390 . S
C1635 C1636 1.387 . S
C1635 H1638 0.950 . S
C1636 C1635 1.387 . S
C1636 C1639 1.387 . S
H1637 C1633 0.950 . S
H1638 C1635 0.950 . S
C1639 C1630 1.390 . S
C1639 H1632 0.950 . S
C1639 C1636 1.387 . S
C1640 C1641 1.387 . S
C1640 H1644 0.950 . S
C1640 C1649 1.390 1_565 S
C1641 C1640 1.387 . S
C1641 C1643 1.387 . S
H1642 C1649 0.950 . S
C1643 C1641 1.387 . S
C1643 C1645 1.390 1_565 S
C1643 H1647 0.950 . S
H1644 C1640 0.950 . S
C1645 C1643 1.390 1_545 S
C1645 C1646 1.387 . S
C1645 H1648 0.950 . S
C1646 C1645 1.387 . S
C1646 C1649 1.387 . S
H1647 C1643 0.950 . S
H1648 C1645 0.950 . S
C1649 C1640 1.390 1_545 S
C1649 H1642 0.950 . S
C1649 C1646 1.387 . S
C1650 C1651 1.387 . S
C1650 H1654 0.950 . S
C1650 C1659 1.390 1_655 S
C1651 C1650 1.387 . S
C1651 C1653 1.387 . S
H1652 C1659 0.950 . S
C1653 C1651 1.387 . S
C1653 C1655 1.390 1_655 S
C1653 H1657 0.950 . S
H1654 C1650 0.950 . S
C1655 C1653 1.390 1_455 S
C1655 C1656 1.387 . S
C1655 H1658 0.950 . S
C1656 C1655 1.387 . S
C1656 C1659 1.387 . S
H1657 C1653 0.950 . S
H1658 C1655 0.950 . S
C1659 C1650 1.390 1_455 S
C1659 H1652 0.950 . S
C1659 C1656 1.387 . S
C1660 C1661 1.387 . S
C1660 H1664 0.950 . S
C1660 C1669 1.390 . S
C1661 C1660 1.387 . S
C1661 C1663 1.387 . S
H1662 C1669 0.950 . S
C1663 C1661 1.387 . S
C1663 C1665 1.390 . S
C1663 H1667 0.950 . S
H1664 C1660 0.950 . S
C1665 C1663 1.390 . S
C1665 C1666 1.387 . S
C1665 H1668 0.950 . S
C1666 C1665 1.387 . S
C1666 C1669 1.387 . S
H1667 C1663 0.950 . S
H1668 C1665 0.950 . S
C1669 C1660 1.390 . S
C1669 H1662 0.950 . S
C1669 C1666 1.387 . S
C1670 C1671 1.387 . S
C1670 H1674 0.950 . S
C1670 C1679 1.390 1_545 S
C1671 C1670 1.387 . S
C1671 C1673 1.387 . S
H1672 C1679 0.950 . S
C1673 C1671 1.387 . S
C1673 C1675 1.390 1_545 S
C1673 H1677 0.950 . S
H1674 C1670 0.950 . S
C1675 C1673 1.390 1_565 S
C1675 C1676 1.387 . S
C1675 H1678 0.950 . S
C1676 C1675 1.387 . S
C1676 C1679 1.387 . S
H1677 C1673 0.950 . S
H1678 C1675 0.950 . S
C1679 C1670 1.390 1_565 S
C1679 H1672 0.950 . S
C1679 C1676 1.387 . S
C1680 C1681 1.387 . S
C1680 H1684 0.950 . S
C1680 C1689 1.390 . S
C1681 C1680 1.387 . S
C1681 C1683 1.387 . S
H1682 C1689 0.950 . S
C1683 C1681 1.387 . S
C1683 C1685 1.390 . S
C1683 H1687 0.950 . S
H1684 C1680 0.950 . S
C1685 C1683 1.390 . S
C1685 C1686 1.387 . S
C1685 H1688 0.950 . S
C1686 C1685 1.387 . S
C1686 C1689 1.387 . S
H1687 C1683 0.950 . S
H1688 C1685 0.950 . S
C1689 C1680 1.390 . S
C1689 H1682 0.950 . S
C1689 C1686 1.387 . S
C1690 C1691 1.387 . S
C1690 H1694 0.950 . S
C1690 C1699 1.390 . S
C1691 C1690 1.387 . S
C1691 C1693 1.387 . S
H1692 C1699 0.950 . S
C1693 C1691 1.387 . S
C1693 C1695 1.390 . S
C1693 H1697 0.950 . S
H1694 C1690 0.950 . S
C1695 C1693 1.390 . S
C1695 C1696 1.387 . S
C1695 H1698 0.950 . S
C1696 C1695 1.387 . S
C1696 C1699 1.387 . S
H1697 C1693 0.950 . S
H1698 C1695 0.950 . S
C1699 C1690 1.390 . S
C1699 H1692 0.950 . S
C1699 C1696 1.387 . S
C1700 C1701 1.387 . S
C1700 H1704 0.950 . S
C1700 C1709 1.390 . S
C1701 C1700 1.387 . S
C1701 C1703 1.387 . S
H1702 C1709 0.950 . S
C1703 C1701 1.387 . S
C1703 C1705 1.390 . S
C1703 H1707 0.950 . S
H1704 C1700 0.950 . S
C1705 C1703 1.390 . S
C1705 C1706 1.387 . S
C1705 H1708 0.950 . S
C1706 C1705 1.387 . S
C1706 C1709 1.387 . S
H1707 C1703 0.950 . S
H1708 C1705 0.950 . S
C1709 C1700 1.390 . S
C1709 H1702 0.950 . S
C1709 C1706 1.387 . S
C1710 C1711 1.387 . S
C1710 H1714 0.950 . S
C1710 C1719 1.390 . S
C1711 C1710 1.387 . S
C1711 C1713 1.387 . S
H1712 C1719 0.950 . S
C1713 C1711 1.387 . S
C1713 C1715 1.390 . S
C1713 H1717 0.950 . S
H1714 C1710 0.950 . S
C1715 C1713 1.390 . S
C1715 C1716 1.387 . S
C1715 H1718 0.950 . S
C1716 C1715 1.387 . S
C1716 C1719 1.387 . S
H1717 C1713 0.950 . S
H1718 C1715 0.950 . S
C1719 C1710 1.390 . S
C1719 H1712 0.950 . S
C1719 C1716 1.387 . S
C1720 C1721 1.387 . S
C1720 H1724 0.950 . S
C1720 C1729 1.390 . S
C1721 C1720 1.387 . S
C1721 C1723 1.387 . S
H1722 C1729 0.950 . S
C1723 C1721 1.387 . S
C1723 C1725 1.390 . S
C1723 H1727 0.950 . S
H1724 C1720 0.950 . S
C1725 C1723 1.390 . S
C1725 C1726 1.387 . S
C1725 H1728 0.950 . S
C1726 C1725 1.387 . S
C1726 C1729 1.387 . S
H1727 C1723 0.950 . S
H1728 C1725 0.950 . S
C1729 C1720 1.390 . S
C1729 H1722 0.950 . S
C1729 C1726 1.387 . S
C1730 C1731 1.387 . S
C1730 H1734 0.950 . S
C1730 C1739 1.390 . S
C1731 C1730 1.387 . S
C1731 C1733 1.387 . S
H1732 C1739 0.950 . S
C1733 C1731 1.387 . S
C1733 C1735 1.390 . S
C1733 H1737 0.950 . S
H1734 C1730 0.950 . S
C1735 C1733 1.390 . S
C1735 C1736 1.387 . S
C1735 H1738 0.950 . S
C1736 C1735 1.387 . S
C1736 C1739 1.387 . S
H1737 C1733 0.950 . S
H1738 C1735 0.950 . S
C1739 C1730 1.390 . S
C1739 H1732 0.950 . S
C1739 C1736 1.387 . S
C1740 C1741 1.387 . S
C1740 H1744 0.950 . S
C1740 C1749 1.390 . S
C1741 C1740 1.387 . S
C1741 C1743 1.387 . S
H1742 C1749 0.950 . S
C1743 C1741 1.387 . S
C1743 C1745 1.390 . S
C1743 H1747 0.950 . S
H1744 C1740 0.950 . S
C1745 C1743 1.390 . S
C1745 C1746 1.387 . S
C1745 H1748 0.950 . S
C1746 C1745 1.387 . S
C1746 C1749 1.387 . S
H1747 C1743 0.950 . S
H1748 C1745 0.950 . S
C1749 C1740 1.390 . S
C1749 H1742 0.950 . S
C1749 C1746 1.387 . S
C1750 C1751 1.387 . S
C1750 H1754 0.950 . S
C1750 C1759 1.390 . S
C1751 C1750 1.387 . S
C1751 C1753 1.387 . S
H1752 C1759 0.950 . S
C1753 C1751 1.387 . S
C1753 C1755 1.390 . S
C1753 H1757 0.950 . S
H1754 C1750 0.950 . S
C1755 C1753 1.390 . S
C1755 C1756 1.387 . S
C1755 H1758 0.950 . S
C1756 C1755 1.387 . S
C1756 C1759 1.387 . S
H1757 C1753 0.950 . S
H1758 C1755 0.950 . S
C1759 C1750 1.390 . S
C1759 H1752 0.950 . S
C1759 C1756 1.387 . S
C1760 C1761 1.387 . S
C1760 H1764 0.950 . S
C1760 C1769 1.390 . S
C1761 C1760 1.387 . S
C1761 C1763 1.387 . S
H1762 C1769 0.950 . S
C1763 C1761 1.387 . S
C1763 C1765 1.390 . S
C1763 H1767 0.950 . S
H1764 C1760 0.950 . S
C1765 C1763 1.390 . S
C1765 C1766 1.387 . S
C1765 H1768 0.950 . S
C1766 C1765 1.387 . S
C1766 C1769 1.387 . S
H1767 C1763 0.950 . S
H1768 C1765 0.950 . S
C1769 C1760 1.390 . S
C1769 H1762 0.950 . S
C1769 C1766 1.387 . S
C1770 C1771 1.387 . S
C1770 H1774 0.950 . S
C1770 C1779 1.390 1_556 S
C1771 C1770 1.387 . S
C1771 C1773 1.387 . S
H1772 C1779 0.950 . S
C1773 C1771 1.387 . S
C1773 C1775 1.390 1_556 S
C1773 H1777 0.950 . S
H1774 C1770 0.950 . S
C1775 C1773 1.390 1_554 S
C1775 C1776 1.387 . S
C1775 H1778 0.950 . S
C1776 C1775 1.387 . S
C1776 C1779 1.387 . S
H1777 C1773 0.950 . S
H1778 C1775 0.950 . S
C1779 C1770 1.390 1_554 S
C1779 H1772 0.950 . S
C1779 C1776 1.387 . S
C1780 C1781 1.387 . S
C1780 H1784 0.950 . S
C1780 C1789 1.390 1_556 S
C1781 C1780 1.387 . S
C1781 C1783 1.387 . S
H1782 C1789 0.950 . S
C1783 C1781 1.387 . S
C1783 C1785 1.390 1_556 S
C1783 H1787 0.950 . S
H1784 C1780 0.950 . S
C1785 C1783 1.390 1_554 S
C1785 C1786 1.387 . S
C1785 H1788 0.950 . S
C1786 C1785 1.387 . S
C1786 C1789 1.387 . S
H1787 C1783 0.950 . S
H1788 C1785 0.950 . S
C1789 C1780 1.390 1_554 S
C1789 H1782 0.950 . S
C1789 C1786 1.387 . S
C1790 C1791 1.387 . S
C1790 H1794 0.950 . S
C1790 C1799 1.390 1_556 S
C1791 C1790 1.387 . S
C1791 C1793 1.387 . S
H1792 C1799 0.950 . S
C1793 C1791 1.387 . S
C1793 C1795 1.390 1_556 S
C1793 H1797 0.950 . S
H1794 C1790 0.950 . S
C1795 C1793 1.390 1_554 S
C1795 C1796 1.387 . S
C1795 H1798 0.950 . S
C1796 C1795 1.387 . S
C1796 C1799 1.387 . S
H1797 C1793 0.950 . S
H1798 C1795 0.950 . S
C1799 C1790 1.390 1_554 S
C1799 H1792 0.950 . S
C1799 C1796 1.387 . S
C1800 C1801 1.387 . S
C1800 H1804 0.950 . S
C1800 C1809 1.390 . S
C1801 C1800 1.387 . S
C1801 C1803 1.387 . S
H1802 C1809 0.950 . S
C1803 C1801 1.387 . S
C1803 C1805 1.390 1_556 S
C1803 H1807 0.950 . S
H1804 C1800 0.950 . S
C1805 C1803 1.390 1_554 S
C1805 C1806 1.387 1_554 S
C1805 H1808 0.950 . S
C1806 C1805 1.387 1_556 S
C1806 C1809 1.387 . S
H1807 C1803 0.950 . S
H1808 C1805 0.950 . S
C1809 C1800 1.390 . S
C1809 H1802 0.950 . S
C1809 C1806 1.387 . S
C1810 C1811 1.387 . S
C1810 H1814 0.950 . S
C1810 C1819 1.390 . S
C1811 C1810 1.387 . S
C1811 C1813 1.387 1_556 S
H1812 C1819 0.950 . S
C1813 C1811 1.387 1_554 S
C1813 C1815 1.386 1_554 S
C1813 H1817 0.955 . S
H1814 C1810 0.950 . S
C1815 C1813 1.386 1_556 S
C1815 C1816 1.387 . S
C1815 H1818 0.950 . S
C1816 C1815 1.387 . S
C1816 C1819 1.387 . S
H1817 C1813 0.955 . S
H1818 C1815 0.950 . S
C1819 C1810 1.390 . S
C1819 H1812 0.950 . S
C1819 C1816 1.387 . S
C1820 C1821 1.387 . S
C1820 H1824 0.950 . S
C1820 C1829 1.390 . S
C1821 C1820 1.387 . S
C1821 C1823 1.387 . S
H1822 C1829 0.950 . S
C1823 C1821 1.387 . S
C1823 C1825 1.390 . S
C1823 H1827 0.950 1_556 S
H1824 C1820 0.950 . S
C1825 C1823 1.390 . S
C1825 C1826 1.387 . S
C1825 H1828 0.950 . S
C1826 C1825 1.387 . S
C1826 C1829 1.387 . S
H1827 C1823 0.950 1_554 S
H1828 C1825 0.950 . S
C1829 C1820 1.390 . S
C1829 H1822 0.950 . S
C1829 C1826 1.387 . S
C1830 C1831 1.387 . S
C1830 H1834 0.950 . S
C1830 C1839 1.390 . S
C1831 C1830 1.387 . S
C1831 C1833 1.387 . S
H1832 C1839 0.950 . S
C1833 C1831 1.387 . S
C1833 C1835 1.390 . S
C1833 H1837 0.950 . S
H1834 C1830 0.950 . S
C1835 C1833 1.390 . S
C1835 C1836 1.387 . S
C1835 H1838 0.950 . S
C1836 C1835 1.387 . S
C1836 C1839 1.387 . S
H1837 C1833 0.950 . S
H1838 C1835 0.950 . S
C1839 C1830 1.390 . S
C1839 H1832 0.950 . S
C1839 C1836 1.387 . S
C1840 C1841 1.387 . S
C1840 H1844 0.950 . S
C1840 C1849 1.390 . S
C1841 C1840 1.387 . S
C1841 C1843 1.387 . S
H1842 C1849 0.950 . S
C1843 C1841 1.387 . S
C1843 C1845 1.390 . S
C1843 H1847 0.950 . S
H1844 C1840 0.950 . S
C1845 C1843 1.390 . S
C1845 C1846 1.387 . S
C1845 H1848 0.950 . S
C1846 C1845 1.387 . S
C1846 C1849 1.387 . S
H1847 C1843 0.950 . S
H1848 C1845 0.950 . S
C1849 C1840 1.390 . S
C1849 H1842 0.950 . S
C1849 C1846 1.387 . S
C1850 C1851 1.387 . S
C1850 H1854 0.950 . S
C1850 C1859 1.390 . S
C1851 C1850 1.387 . S
C1851 C1853 1.387 . S
H1852 C1859 0.950 . S
C1853 C1851 1.387 . S
C1853 C1855 1.390 . S
C1853 H1857 0.950 . S
H1854 C1850 0.950 . S
C1855 C1853 1.390 . S
C1855 C1856 1.387 . S
C1855 H1858 0.950 . S
C1856 C1855 1.387 . S
C1856 C1859 1.387 . S
H1857 C1853 0.950 . S
H1858 C1855 0.950 . S
C1859 C1850 1.390 . S
C1859 H1852 0.950 . S
C1859 C1856 1.387 . S
C1860 C1861 1.387 . S
C1860 H1864 0.950 . S
C1860 C1869 1.390 . S
C1861 C1860 1.387 . S
C1861 C1863 1.387 . S
H1862 C1869 0.950 . S
C1863 C1861 1.387 . S
C1863 C1865 1.390 . S
C1863 H1867 0.950 . S
H1864 C1860 0.950 . S
C1865 C1863 1.390 . S
C1865 C1866 1.387 . S
C1865 H1868 0.950 . S
C1866 C1865 1.387 . S
C1866 C1869 1.387 . S
H1867 C1863 0.950 . S
H1868 C1865 0.950 . S
C1869 C1860 1.390 . S
C1869 H1862 0.950 . S
C1869 C1866 1.387 . S
C1870 C1871 1.387 . S
C1870 H1874 0.950 . S
C1870 C1879 1.390 . S
C1871 C1870 1.387 . S
C1871 C1873 1.387 . S
H1872 C1879 0.950 . S
C1873 C1871 1.387 . S
C1873 C1875 1.390 . S
C1873 H1877 0.950 . S
H1874 C1870 0.950 . S
C1875 C1873 1.390 . S
C1875 C1876 1.387 . S
C1875 H1878 0.950 . S
C1876 C1875 1.387 . S
C1876 C1879 1.387 . S
H1877 C1873 0.950 . S
H1878 C1875 0.950 . S
C1879 C1870 1.390 . S
C1879 H1872 0.950 . S
C1879 C1876 1.387 . S
C1880 C1881 1.387 . S
C1880 H1884 0.950 . S
C1880 C1889 1.390 . S
C1881 C1880 1.387 . S
C1881 C1883 1.387 . S
H1882 C1889 0.950 . S
C1883 C1881 1.387 . S
C1883 C1885 1.390 . S
C1883 H1887 0.950 . S
H1884 C1880 0.950 . S
C1885 C1883 1.390 . S
C1885 C1886 1.387 . S
C1885 H1888 0.950 . S
C1886 C1885 1.387 . S
C1886 C1889 1.387 . S
H1887 C1883 0.950 . S
H1888 C1885 0.950 . S
C1889 C1880 1.390 . S
C1889 H1882 0.950 . S
C1889 C1886 1.387 . S
C1890 C1891 1.387 . S
C1890 H1894 0.950 . S
C1890 C1899 1.390 . S
C1891 C1890 1.387 . S
C1891 C1893 1.387 . S
H1892 C1899 0.950 . S
C1893 C1891 1.387 . S
C1893 C1895 1.390 . S
C1893 H1897 0.950 . S
H1894 C1890 0.950 . S
C1895 C1893 1.390 . S
C1895 C1896 1.387 . S
C1895 H1898 0.950 . S
C1896 C1895 1.387 . S
C1896 C1899 1.387 . S
H1897 C1893 0.950 . S
H1898 C1895 0.950 . S
C1899 C1890 1.390 . S
C1899 H1892 0.950 . S
C1899 C1896 1.387 . S
C1900 C1901 1.387 . S
C1900 H1904 0.950 . S
C1900 C1909 1.390 . S
C1901 C1900 1.387 . S
C1901 C1903 1.387 . S
H1902 C1909 0.950 . S
C1903 C1901 1.387 . S
C1903 C1905 1.390 . S
C1903 H1907 0.950 . S
H1904 C1900 0.950 . S
C1905 C1903 1.390 . S
C1905 C1906 1.387 . S
C1905 H1908 0.950 . S
C1906 C1905 1.387 . S
C1906 C1909 1.387 . S
H1907 C1903 0.950 . S
H1908 C1905 0.950 . S
C1909 C1900 1.390 . S
C1909 H1902 0.950 . S
C1909 C1906 1.387 . S
C1910 C1911 1.387 . S
C1910 H1914 0.950 . S
C1910 C1919 1.390 . S
C1911 C1910 1.387 . S
C1911 C1913 1.387 . S
H1912 C1919 0.950 . S
C1913 C1911 1.387 . S
C1913 C1915 1.390 . S
C1913 H1917 0.950 . S
H1914 C1910 0.950 . S
C1915 C1913 1.390 . S
C1915 C1916 1.387 . S
C1915 H1918 0.950 . S
C1916 C1915 1.387 . S
C1916 C1919 1.387 . S
H1917 C1913 0.950 . S
H1918 C1915 0.950 . S
C1919 C1910 1.390 . S
C1919 H1912 0.950 . S
C1919 C1916 1.387 . S
C1920 C1921 1.387 . S
C1920 H1924 0.950 . S
C1920 C1929 1.390 . S
C1921 C1920 1.387 . S
C1921 C1923 1.387 . S
H1922 C1929 0.950 . S
C1923 C1921 1.387 . S
C1923 C1925 1.390 . S
C1923 H1927 0.950 . S
H1924 C1920 0.950 . S
C1925 C1923 1.390 . S
C1925 C1926 1.387 . S
C1925 H1928 0.950 . S
C1926 C1925 1.387 . S
C1926 C1929 1.387 . S
H1927 C1923 0.950 . S
H1928 C1925 0.950 . S
C1929 C1920 1.390 . S
C1929 H1922 0.950 . S
C1929 C1926 1.387 . S
C1930 C1931 1.387 . S
C1930 H1934 0.950 . S
C1930 C1939 1.390 . S
C1931 C1930 1.387 . S
C1931 C1933 1.387 . S
H1932 C1939 0.950 . S
C1933 C1931 1.387 . S
C1933 C1935 1.390 . S
C1933 H1937 0.950 . S
H1934 C1930 0.950 . S
C1935 C1933 1.390 . S
C1935 C1936 1.387 . S
C1935 H1938 0.950 . S
C1936 C1935 1.387 . S
C1936 C1939 1.387 . S
H1937 C1933 0.950 . S
H1938 C1935 0.950 . S
C1939 C1930 1.390 . S
C1939 H1932 0.950 . S
C1939 C1936 1.387 . S
C1940 C1941 1.387 . S
C1940 H1944 0.950 . S
C1940 C1949 1.390 . S
C1941 C1940 1.387 . S
C1941 C1943 1.387 . S
H1942 C1949 0.950 . S
C1943 C1941 1.387 . S
C1943 C1945 1.390 . S
C1943 H1947 0.950 . S
H1944 C1940 0.950 . S
C1945 C1943 1.390 . S
C1945 C1946 1.387 . S
C1945 H1948 0.950 . S
C1946 C1945 1.387 . S
C1946 C1949 1.387 . S
H1947 C1943 0.950 . S
H1948 C1945 0.950 . S
C1949 C1940 1.390 . S
C1949 H1942 0.950 . S
C1949 C1946 1.387 . S
C1950 C1951 1.387 . S
C1950 H1954 0.950 . S
C1950 C1959 1.390 . S
C1951 C1950 1.387 . S
C1951 C1953 1.387 . S
H1952 C1959 0.950 . S
C1953 C1951 1.387 . S
C1953 C1955 1.390 1_554 S
C1953 H1957 0.950 . S
H1954 C1950 0.950 . S
C1955 C1953 1.390 1_556 S
C1955 C1956 1.387 . S
C1955 H1958 0.950 . S
C1956 C1955 1.387 . S
C1956 C1959 1.387 1_556 S
H1957 C1953 0.950 . S
H1958 C1955 0.950 . S
C1959 C1950 1.390 . S
C1959 H1952 0.950 . S
C1959 C1956 1.387 1_554 S
C1960 C1961 1.387 1_554 S
C1960 H1964 0.950 . S
C1960 C1969 1.390 . S
C1961 C1960 1.387 1_556 S
C1961 C1963 1.387 . S
H1962 C1969 0.950 . S
C1963 C1961 1.387 . S
C1963 C1965 1.390 1_556 S
C1963 H1967 0.950 . S
H1964 C1960 0.950 . S
C1965 C1963 1.390 1_554 S
C1965 C1966 1.387 . S
C1965 H1968 0.950 . S
C1966 C1965 1.387 . S
C1966 C1969 1.387 . S
H1967 C1963 0.950 . S
H1968 C1965 0.950 . S
C1969 C1960 1.390 . S
C1969 H1962 0.950 . S
C1969 C1966 1.387 . S
C1970 C1971 1.387 . S
C1970 H1974 0.950 . S
C1970 C1979 1.390 . S
C1971 C1970 1.387 . S
C1971 C1973 1.387 . S
H1972 C1979 0.950 . S
C1973 C1971 1.387 . S
C1973 C1975 1.402 . S
C1973 H1977 0.950 . S
H1974 C1970 0.950 . S
C1975 C1973 1.402 . S
C1975 C1976 1.384 1_554 S
C1975 H1978 0.941 1_554 S
C1976 C1975 1.384 1_556 S
C1976 C1979 1.387 1_556 S
H1977 C1973 0.950 . S
H1978 C1975 0.941 1_556 S
C1979 C1970 1.390 . S
C1979 H1972 0.950 . S
C1979 C1976 1.387 1_554 S
C1980 C1981 1.387 . S
C1980 H1984 0.950 . S
C1980 C1989 1.390 . S
C1981 C1980 1.387 . S
C1981 C1983 1.387 . S
H1982 C1989 0.950 . S
C1983 C1981 1.387 . S
C1983 C1985 1.390 . S
C1983 H1987 0.950 . S
H1984 C1980 0.950 . S
C1985 C1983 1.390 . S
C1985 C1986 1.387 . S
C1985 H1988 0.950 . S
C1986 C1985 1.387 . S
C1986 C1989 1.387 . S
H1987 C1983 0.950 . S
H1988 C1985 0.950 . S
C1989 C1980 1.390 . S
C1989 H1982 0.950 . S
C1989 C1986 1.387 . S
C1990 C1991 1.387 . S
C1990 H1994 0.950 . S
C1990 C1999 1.390 . S
C1991 C1990 1.387 . S
C1991 C1993 1.387 . S
H1992 C1999 0.950 . S
C1993 C1991 1.387 . S
C1993 C1995 1.390 . S
C1993 H1997 0.950 . S
H1994 C1990 0.950 . S
C1995 C1993 1.390 . S
C1995 C1996 1.387 . S
C1995 H1998 0.950 . S
C1996 C1995 1.387 . S
C1996 C1999 1.387 . S
H1997 C1993 0.950 . S
H1998 C1995 0.950 . S
C1999 C1990 1.390 . S
C1999 H1992 0.950 . S
C1999 C1996 1.387 . S
C2000 C2001 1.387 . S
C2000 H2004 0.950 . S
C2000 C2009 1.390 . S
C2001 C2000 1.387 . S
C2001 C2003 1.387 . S
H2002 C2009 0.950 . S
C2003 C2001 1.387 . S
C2003 C2005 1.390 . S
C2003 H2007 0.950 . S
H2004 C2000 0.950 . S
C2005 C2003 1.390 . S
C2005 C2006 1.387 . S
C2005 H2008 0.950 . S
C2006 C2005 1.387 . S
C2006 C2009 1.387 . S
H2007 C2003 0.950 . S
H2008 C2005 0.950 . S
C2009 C2000 1.390 . S
C2009 H2002 0.950 . S
C2009 C2006 1.387 . S
C2010 C2011 1.387 . S
C2010 H2014 0.950 . S
C2010 C2019 1.390 . S
C2011 C2010 1.387 . S
C2011 C2013 1.387 . S
H2012 C2019 0.950 . S
C2013 C2011 1.387 . S
C2013 C2015 1.390 . S
C2013 H2017 0.950 . S
H2014 C2010 0.950 . S
C2015 C2013 1.390 . S
C2015 C2016 1.387 . S
C2015 H2018 0.950 . S
C2016 C2015 1.387 . S
C2016 C2019 1.387 . S
H2017 C2013 0.950 . S
H2018 C2015 0.950 . S
C2019 C2010 1.390 . S
C2019 H2012 0.950 . S
C2019 C2016 1.387 . S
C2020 C2021 1.387 . S
C2020 H2024 0.950 . S
C2020 C2029 1.390 . S
C2021 C2020 1.387 . S
C2021 C2023 1.387 . S
H2022 C2029 0.950 . S
C2023 C2021 1.387 . S
C2023 C2025 1.390 . S
C2023 H2027 0.950 . S
H2024 C2020 0.950 . S
C2025 C2023 1.390 . S
C2025 C2026 1.387 . S
C2025 H2028 0.950 . S
C2026 C2025 1.387 . S
C2026 C2029 1.387 . S
H2027 C2023 0.950 . S
H2028 C2025 0.950 . S
C2029 C2020 1.390 . S
C2029 H2022 0.950 . S
C2029 C2026 1.387 . S
C2030 C2031 1.387 . S
C2030 H2034 0.950 . S
C2030 C2039 1.390 . S
C2031 C2030 1.387 . S
C2031 C2033 1.387 . S
H2032 C2039 0.950 . S
C2033 C2031 1.387 . S
C2033 C2035 1.390 . S
C2033 H2037 0.950 . S
H2034 C2030 0.950 . S
C2035 C2033 1.390 . S
C2035 C2036 1.387 . S
C2035 H2038 0.950 . S
C2036 C2035 1.387 . S
C2036 C2039 1.387 . S
H2037 C2033 0.950 . S
H2038 C2035 0.950 . S
C2039 C2030 1.390 . S
C2039 H2032 0.950 . S
C2039 C2036 1.387 . S
C2040 C2041 1.387 . S
C2040 H2044 0.950 . S
C2040 C2049 1.390 . S
C2041 C2040 1.387 . S
C2041 C2043 1.387 . S
H2042 C2049 0.950 . S
C2043 C2041 1.387 . S
C2043 C2045 1.390 . S
C2043 H2047 0.950 . S
H2044 C2040 0.950 . S
C2045 C2043 1.390 . S
C2045 C2046 1.387 . S
C2045 H2048 0.950 . S
C2046 C2045 1.387 . S
C2046 C2049 1.387 . S
H2047 C2043 0.950 . S
H2048 C2045 0.950 . S
C2049 C2040 1.390 . S
C2049 H2042 0.950 . S
C2049 C2046 1.387 . S
C2050 C2051 1.387 . S
C2050 H2054 0.950 . S
C2050 C2059 1.390 . S
C2051 C2050 1.387 . S
C2051 C2053 1.387 . S
H2052 C2059 0.950 . S
C2053 C2051 1.387 . S
C2053 C2055 1.390 . S
C2053 H2057 0.950 . S
H2054 C2050 0.950 . S
C2055 C2053 1.390 . S
C2055 C2056 1.387 . S
C2055 H2058 0.950 . S
C2056 C2055 1.387 . S
C2056 C2059 1.387 . S
H2057 C2053 0.950 . S
H2058 C2055 0.950 . S
C2059 C2050 1.390 . S
C2059 H2052 0.950 . S
C2059 C2056 1.387 . S
C2060 C2061 1.387 . S
C2060 H2064 0.950 . S
C2060 C2069 1.390 . S
C2061 C2060 1.387 . S
C2061 C2063 1.387 . S
H2062 C2069 0.950 . S
C2063 C2061 1.387 . S
C2063 C2065 1.390 . S
C2063 H2067 0.950 . S
H2064 C2060 0.950 . S
C2065 C2063 1.390 . S
C2065 C2066 1.387 . S
C2065 H2068 0.950 . S
C2066 C2065 1.387 . S
C2066 C2069 1.387 . S
H2067 C2063 0.950 . S
H2068 C2065 0.950 . S
C2069 C2060 1.390 . S
C2069 H2062 0.950 . S
C2069 C2066 1.387 . S
C2070 C2071 1.387 . S
C2070 H2074 0.950 . S
C2070 C2079 1.390 . S
C2071 C2070 1.387 . S
C2071 C2073 1.387 . S
H2072 C2079 0.950 . S
C2073 C2071 1.387 . S
C2073 C2075 1.390 . S
C2073 H2077 0.950 . S
H2074 C2070 0.950 . S
C2075 C2073 1.390 . S
C2075 C2076 1.387 . S
C2075 H2078 0.950 . S
C2076 C2075 1.387 . S
C2076 C2079 1.387 . S
H2077 C2073 0.950 . S
H2078 C2075 0.950 . S
C2079 C2070 1.390 . S
C2079 H2072 0.950 . S
C2079 C2076 1.387 . S
C2080 C2081 1.387 . S
C2080 H2084 0.950 . S
C2080 C2089 1.390 . S
C2081 C2080 1.387 . S
C2081 C2083 1.387 . S
H2082 C2089 0.950 . S
C2083 C2081 1.387 . S
C2083 C2085 1.390 . S
C2083 H2087 0.950 . S
H2084 C2080 0.950 . S
C2085 C2083 1.390 . S
C2085 C2086 1.387 . S
C2085 H2088 0.950 . S
C2086 C2085 1.387 . S
C2086 C2089 1.387 . S
H2087 C2083 0.950 . S
H2088 C2085 0.950 . S
C2089 C2080 1.390 . S
C2089 H2082 0.950 . S
C2089 C2086 1.387 . S
C2090 C2091 1.387 . S
C2090 H2094 0.950 . S
C2090 C2099 1.390 . S
C2091 C2090 1.387 . S
C2091 C2093 1.387 . S
H2092 C2099 0.950 . S
C2093 C2091 1.387 . S
C2093 C2095 1.390 . S
C2093 H2097 0.950 . S
H2094 C2090 0.950 . S
C2095 C2093 1.390 . S
C2095 C2096 1.387 . S
C2095 H2098 0.950 . S
C2096 C2095 1.387 . S
C2096 C2099 1.387 . S
H2097 C2093 0.950 . S
H2098 C2095 0.950 . S
C2099 C2090 1.390 . S
C2099 H2092 0.950 . S
C2099 C2096 1.387 . S
C2100 C2101 1.387 . S
C2100 H2104 0.950 . S
C2100 C2109 1.390 . S
C2101 C2100 1.387 . S
C2101 C2103 1.387 . S
H2102 C2109 0.950 . S
C2103 C2101 1.387 . S
C2103 C2105 1.390 . S
C2103 H2107 0.950 . S
H2104 C2100 0.950 . S
C2105 C2103 1.390 . S
C2105 C2106 1.387 . S
C2105 H2108 0.950 . S
C2106 C2105 1.387 . S
C2106 C2109 1.387 . S
H2107 C2103 0.950 . S
H2108 C2105 0.950 . S
C2109 C2100 1.390 . S
C2109 H2102 0.950 . S
C2109 C2106 1.387 . S
C2110 C2111 1.387 . S
C2110 H2114 0.950 . S
C2110 C2119 1.390 . S
C2111 C2110 1.387 . S
C2111 C2113 1.387 . S
H2112 C2119 0.950 . S
C2113 C2111 1.387 . S
C2113 C2115 1.390 . S
C2113 H2117 0.950 . S
H2114 C2110 0.950 . S
C2115 C2113 1.390 . S
C2115 C2116 1.387 . S
C2115 H2118 0.950 . S
C2116 C2115 1.387 . S
C2116 C2119 1.387 . S
H2117 C2113 0.950 . S
H2118 C2115 0.950 . S
C2119 C2110 1.390 . S
C2119 H2112 0.950 . S
C2119 C2116 1.387 . S
C2120 C2121 1.387 . S
C2120 H2124 0.950 . S
C2120 C2129 1.390 . S
C2121 C2120 1.387 . S
C2121 C2123 1.387 . S
H2122 C2129 0.950 . S
C2123 C2121 1.387 . S
C2123 C2125 1.390 . S
C2123 H2127 0.950 . S
H2124 C2120 0.950 . S
C2125 C2123 1.390 . S
C2125 C2126 1.387 . S
C2125 H2128 0.950 . S
C2126 C2125 1.387 . S
C2126 C2129 1.387 . S
H2127 C2123 0.950 . S
H2128 C2125 0.950 . S
C2129 C2120 1.390 . S
C2129 H2122 0.950 . S
C2129 C2126 1.387 . S
C2130 C2131 1.387 . S
C2130 H2134 0.950 . S
C2130 C2139 1.390 . S
C2131 C2130 1.387 . S
C2131 C2133 1.387 . S
H2132 C2139 0.950 . S
C2133 C2131 1.387 . S
C2133 C2135 1.390 . S
C2133 H2137 0.950 . S
H2134 C2130 0.950 . S
C2135 C2133 1.390 . S
C2135 C2136 1.387 . S
C2135 H2138 0.950 . S
C2136 C2135 1.387 . S
C2136 C2139 1.387 . S
H2137 C2133 0.950 . S
H2138 C2135 0.950 . S
C2139 C2130 1.390 . S
C2139 H2132 0.950 . S
C2139 C2136 1.387 . S
C2140 C2141 1.387 . S
C2140 H2144 0.950 . S
C2140 C2149 1.390 . S
C2141 C2140 1.387 . S
C2141 C2143 1.387 . S
H2142 C2149 0.950 . S
C2143 C2141 1.387 . S
C2143 C2145 1.390 . S
C2143 H2147 0.950 . S
H2144 C2140 0.950 . S
C2145 C2143 1.390 . S
C2145 C2146 1.387 . S
C2145 H2148 0.950 . S
C2146 C2145 1.387 . S
C2146 C2149 1.387 . S
H2147 C2143 0.950 . S
H2148 C2145 0.950 . S
C2149 C2140 1.390 . S
C2149 H2142 0.950 . S
C2149 C2146 1.387 . S
C2150 C2151 1.387 . S
C2150 H2154 0.950 . S
C2150 C2159 1.390 . S
C2151 C2150 1.387 . S
C2151 C2153 1.387 . S
H2152 C2159 0.950 . S
C2153 C2151 1.387 . S
C2153 C2155 1.390 . S
C2153 H2157 0.950 . S
H2154 C2150 0.950 . S
C2155 C2153 1.390 . S
C2155 C2156 1.387 . S
C2155 H2158 0.950 . S
C2156 C2155 1.387 . S
C2156 C2159 1.387 . S
H2157 C2153 0.950 . S
H2158 C2155 0.950 . S
C2159 C2150 1.390 . S
C2159 H2152 0.950 . S
C2159 C2156 1.387 . S
C2160 C2161 1.387 1_655 S
C2160 H2164 0.950 . S
C2160 C2169 1.390 . S
C2161 C2160 1.387 1_455 S
C2161 C2163 1.387 . S
H2162 C2169 0.950 . S
C2163 C2161 1.387 . S
C2163 C2165 1.390 . S
C2163 H2167 0.950 . S
H2164 C2160 0.950 . S
C2165 C2163 1.390 . S
C2165 C2166 1.387 1_455 S
C2165 H2168 0.950 . S
C2166 C2165 1.387 1_655 S
C2166 C2169 1.387 . S
H2167 C2163 0.950 . S
H2168 C2165 0.950 . S
C2169 C2160 1.390 . S
C2169 H2162 0.950 . S
C2169 C2166 1.387 . S
C2170 C2171 1.387 . S
C2170 H2174 0.950 . S
C2170 C2179 1.390 . S
C2171 C2170 1.387 . S
C2171 C2173 1.387 . S
H2172 C2179 0.950 . S
C2173 C2171 1.387 . S
C2173 C2175 1.390 . S
C2173 H2177 0.950 . S
H2174 C2170 0.950 . S
C2175 C2173 1.390 . S
C2175 C2176 1.387 . S
C2175 H2178 0.950 . S
C2176 C2175 1.387 . S
C2176 C2179 1.387 . S
H2177 C2173 0.950 . S
H2178 C2175 0.950 . S
C2179 C2170 1.390 . S
C2179 H2172 0.950 . S
C2179 C2176 1.387 . S
C2180 C2181 1.387 . S
C2180 H2184 0.950 . S
C2180 C2189 1.390 1_565 S
C2181 C2180 1.387 . S
C2181 C2183 1.387 . S
H2182 C2189 0.950 . S
C2183 C2181 1.387 . S
C2183 C2185 1.390 1_565 S
C2183 H2187 0.950 . S
H2184 C2180 0.950 . S
C2185 C2183 1.390 1_545 S
C2185 C2186 1.387 . S
C2185 H2188 0.950 . S
C2186 C2185 1.387 . S
C2186 C2189 1.387 . S
H2187 C2183 0.950 . S
H2188 C2185 0.950 . S
C2189 C2180 1.390 1_545 S
C2189 H2182 0.950 . S
C2189 C2186 1.387 . S
C2190 C2191 1.387 . S
C2190 H2194 0.950 . S
C2190 C2199 1.390 1_655 S
C2191 C2190 1.387 . S
C2191 C2193 1.387 . S
H2192 C2199 0.950 . S
C2193 C2191 1.387 . S
C2193 C2195 1.390 1_655 S
C2193 H2197 0.950 . S
H2194 C2190 0.950 . S
C2195 C2193 1.390 1_455 S
C2195 C2196 1.387 . S
C2195 H2198 0.950 . S
C2196 C2195 1.387 . S
C2196 C2199 1.387 . S
H2197 C2193 0.950 . S
H2198 C2195 0.950 . S
C2199 C2190 1.390 1_455 S
C2199 H2192 0.950 . S
C2199 C2196 1.387 . S
C2200 C2201 1.387 . S
C2200 H2204 0.950 . S
C2200 C2209 1.390 . S
C2201 C2200 1.387 . S
C2201 C2203 1.387 . S
H2202 C2209 0.950 . S
C2203 C2201 1.387 . S
C2203 C2205 1.390 . S
C2203 H2207 0.950 . S
H2204 C2200 0.950 . S
C2205 C2203 1.390 . S
C2205 C2206 1.387 . S
C2205 H2208 0.950 . S
C2206 C2205 1.387 . S
C2206 C2209 1.387 . S
H2207 C2203 0.950 . S
H2208 C2205 0.950 . S
C2209 C2200 1.390 . S
C2209 H2202 0.950 . S
C2209 C2206 1.387 . S
C2210 C2211 1.387 . S
C2210 H2214 0.950 . S
C2210 C2219 1.390 1_545 S
C2211 C2210 1.387 . S
C2211 C2213 1.387 . S
H2212 C2219 0.950 . S
C2213 C2211 1.387 . S
C2213 C2215 1.390 1_545 S
C2213 H2217 0.950 . S
H2214 C2210 0.950 . S
C2215 C2213 1.390 1_565 S
C2215 C2216 1.387 . S
C2215 H2218 0.950 . S
C2216 C2215 1.387 . S
C2216 C2219 1.387 . S
H2217 C2213 0.950 . S
H2218 C2215 0.950 . S
C2219 C2210 1.390 1_565 S
C2219 H2212 0.950 . S
C2219 C2216 1.387 . S
C2220 C2221 1.387 . S
C2220 H2224 0.950 . S
C2220 C2229 1.390 . S
C2221 C2220 1.387 . S
C2221 C2223 1.387 . S
H2222 C2229 0.950 . S
C2223 C2221 1.387 . S
C2223 C2225 1.390 . S
C2223 H2227 0.950 . S
H2224 C2220 0.950 . S
C2225 C2223 1.390 . S
C2225 C2226 1.387 . S
C2225 H2228 0.950 . S
C2226 C2225 1.387 . S
C2226 C2229 1.387 . S
H2227 C2223 0.950 . S
H2228 C2225 0.950 . S
C2229 C2220 1.390 . S
C2229 H2222 0.950 . S
C2229 C2226 1.387 . S
C2230 C2231 1.387 . S
C2230 H2234 0.950 . S
C2230 C2239 1.390 . S
C2231 C2230 1.387 . S
C2231 C2233 1.387 . S
H2232 C2239 0.950 . S
C2233 C2231 1.387 . S
C2233 C2235 1.390 . S
C2233 H2237 0.950 . S
H2234 C2230 0.950 . S
C2235 C2233 1.390 . S
C2235 C2236 1.387 . S
C2235 H2238 0.950 . S
C2236 C2235 1.387 . S
C2236 C2239 1.387 . S
H2237 C2233 0.950 . S
H2238 C2235 0.950 . S
C2239 C2230 1.390 . S
C2239 H2232 0.950 . S
C2239 C2236 1.387 . S
C2240 C2241 1.387 . S
C2240 H2244 0.950 . S
C2240 C2249 1.390 . S
C2241 C2240 1.387 . S
C2241 C2243 1.387 . S
H2242 C2249 0.950 . S
C2243 C2241 1.387 . S
C2243 C2245 1.390 . S
C2243 H2247 0.950 . S
H2244 C2240 0.950 . S
C2245 C2243 1.390 . S
C2245 C2246 1.387 . S
C2245 H2248 0.950 . S
C2246 C2245 1.387 . S
C2246 C2249 1.387 . S
H2247 C2243 0.950 . S
H2248 C2245 0.950 . S
C2249 C2240 1.390 . S
C2249 H2242 0.950 . S
C2249 C2246 1.387 . S
C2250 C2251 1.387 . S
C2250 H2254 0.950 . S
C2250 C2259 1.390 . S
C2251 C2250 1.387 . S
C2251 C2253 1.387 . S
H2252 C2259 0.950 . S
C2253 C2251 1.387 . S
C2253 C2255 1.390 . S
C2253 H2257 0.950 . S
H2254 C2250 0.950 . S
C2255 C2253 1.390 . S
C2255 C2256 1.387 . S
C2255 H2258 0.950 . S
C2256 C2255 1.387 . S
C2256 C2259 1.387 . S
H2257 C2253 0.950 . S
H2258 C2255 0.950 . S
C2259 C2250 1.390 . S
C2259 H2252 0.950 . S
C2259 C2256 1.387 . S
C2260 C2261 1.387 . S
C2260 H2264 0.950 . S
C2260 C2269 1.390 . S
C2261 C2260 1.387 . S
C2261 C2263 1.387 . S
H2262 C2269 0.950 . S
C2263 C2261 1.387 . S
C2263 C2265 1.390 . S
C2263 H2267 0.950 . S
H2264 C2260 0.950 . S
C2265 C2263 1.390 . S
C2265 C2266 1.387 . S
C2265 H2268 0.950 . S
C2266 C2265 1.387 . S
C2266 C2269 1.387 . S
H2267 C2263 0.950 . S
H2268 C2265 0.950 . S
C2269 C2260 1.390 . S
C2269 H2262 0.950 . S
C2269 C2266 1.387 . S
C2270 C2271 1.387 . S
C2270 H2274 0.950 . S
C2270 C2279 1.390 . S
C2271 C2270 1.387 . S
C2271 C2273 1.387 . S
H2272 C2279 0.950 . S
C2273 C2271 1.387 . S
C2273 C2275 1.390 . S
C2273 H2277 0.950 . S
H2274 C2270 0.950 . S
C2275 C2273 1.390 . S
C2275 C2276 1.387 . S
C2275 H2278 0.950 . S
C2276 C2275 1.387 . S
C2276 C2279 1.387 . S
H2277 C2273 0.950 . S
H2278 C2275 0.950 . S
C2279 C2270 1.390 . S
C2279 H2272 0.950 . S
C2279 C2276 1.387 . S
C2280 C2281 1.387 . S
C2280 H2284 0.950 . S
C2280 C2289 1.379 1_554 S
C2281 C2280 1.387 . S
C2281 C2283 1.387 1_554 S
H2282 C2289 0.948 1_554 S
C2283 C2281 1.387 1_556 S
C2283 C2285 1.390 . S
C2283 H2287 0.950 . S
H2284 C2280 0.950 . S
C2285 C2283 1.390 . S
C2285 C2286 1.387 . S
C2285 H2288 0.950 . S
C2286 C2285 1.387 . S
C2286 C2289 1.400 . S
H2287 C2283 0.950 . S
H2288 C2285 0.950 . S
C2289 C2280 1.379 1_556 S
C2289 H2282 0.948 1_556 S
C2289 C2286 1.400 . S
C2290 C2291 1.387 . S
C2290 H2294 0.950 . S
C2290 C2299 1.390 1_556 S
C2291 C2290 1.387 . S
C2291 C2293 1.387 . S
H2292 C2299 0.950 . S
C2293 C2291 1.387 . S
C2293 C2295 1.390 . S
C2293 H2297 0.950 . S
H2294 C2290 0.950 . S
C2295 C2293 1.390 . S
C2295 C2296 1.387 1_556 S
C2295 H2298 0.950 1_556 S
C2296 C2295 1.387 1_554 S
C2296 C2299 1.387 . S
H2297 C2293 0.950 . S
H2298 C2295 0.950 1_554 S
C2299 C2290 1.390 1_554 S
C2299 H2292 0.950 . S
C2299 C2296 1.387 . S
C2300 C2301 1.387 . S
C2300 H2304 0.950 . S
C2300 C2309 1.390 1_556 S
C2301 C2300 1.387 . S
C2301 C2303 1.387 . S
H2302 C2309 0.950 . S
C2303 C2301 1.387 . S
C2303 C2305 1.390 1_556 S
C2303 H2307 0.950 . S
H2304 C2300 0.950 . S
C2305 C2303 1.390 1_554 S
C2305 C2306 1.387 . S
C2305 H2308 0.950 . S
C2306 C2305 1.387 . S
C2306 C2309 1.387 . S
H2307 C2303 0.950 . S
H2308 C2305 0.950 . S
C2309 C2300 1.390 1_554 S
C2309 H2302 0.950 . S
C2309 C2306 1.387 . S
C2310 C2311 1.387 . S
C2310 H2314 0.950 . S
C2310 C2319 1.390 . S
C2311 C2310 1.387 . S
C2311 C2313 1.387 . S
H2312 C2319 0.950 . S
C2313 C2311 1.387 . S
C2313 C2315 1.390 . S
C2313 H2317 0.950 . S
H2314 C2310 0.950 . S
C2315 C2313 1.390 . S
C2315 C2316 1.387 . S
C2315 H2318 0.950 . S
C2316 C2315 1.387 . S
C2316 C2319 1.387 . S
H2317 C2313 0.950 . S
H2318 C2315 0.950 . S
C2319 C2310 1.390 . S
C2319 H2312 0.950 . S
C2319 C2316 1.387 . S
C2320 C2321 1.387 . S
C2320 H2324 0.950 . S
C2320 C2329 1.390 . S
C2321 C2320 1.387 . S
C2321 C2323 1.387 . S
H2322 C2329 0.950 . S
C2323 C2321 1.387 . S
C2323 C2325 1.390 . S
C2323 H2327 0.950 . S
H2324 C2320 0.950 . S
C2325 C2323 1.390 . S
C2325 C2326 1.387 . S
C2325 H2328 0.950 . S
C2326 C2325 1.387 . S
C2326 C2329 1.387 . S
H2327 C2323 0.950 . S
H2328 C2325 0.950 . S
C2329 C2320 1.390 . S
C2329 H2322 0.950 . S
C2329 C2326 1.387 . S
C2330 C2331 1.387 . S
C2330 H2334 0.950 . S
C2330 C2339 1.390 . S
C2331 C2330 1.387 . S
C2331 C2333 1.387 . S
H2332 C2339 0.950 . S
C2333 C2331 1.387 . S
C2333 C2335 1.390 . S
C2333 H2337 0.950 . S
H2334 C2330 0.950 . S
C2335 C2333 1.390 . S
C2335 C2336 1.387 . S
C2335 H2338 0.950 . S
C2336 C2335 1.387 . S
C2336 C2339 1.387 . S
H2337 C2333 0.950 . S
H2338 C2335 0.950 . S
C2339 C2330 1.390 . S
C2339 H2332 0.950 . S
C2339 C2336 1.387 . S
C2340 C2341 1.387 . S
C2340 H2344 0.950 . S
C2340 C2349 1.390 . S
C2341 C2340 1.387 . S
C2341 C2343 1.387 1_455 S
H2342 C2349 0.950 . S
C2343 C2341 1.387 1_655 S
C2343 C2345 1.390 . S
C2343 H2347 0.950 . S
H2344 C2340 0.950 . S
C2345 C2343 1.390 . S
C2345 C2346 1.387 . S
C2345 H2348 0.950 . S
C2346 C2345 1.387 . S
C2346 C2349 1.387 1_655 S
H2347 C2343 0.950 . S
H2348 C2345 0.950 . S
C2349 C2340 1.390 . S
C2349 H2342 0.950 . S
C2349 C2346 1.387 1_455 S
C2350 C2351 1.387 . S
C2350 H2354 0.950 . S
C2350 C2359 1.390 . S
C2351 C2350 1.387 . S
C2351 C2353 1.387 . S
H2352 C2359 0.950 . S
C2353 C2351 1.387 . S
C2353 C2355 1.390 . S
C2353 H2357 0.950 . S
H2354 C2350 0.950 . S
C2355 C2353 1.390 . S
C2355 C2356 1.387 . S
C2355 H2358 0.950 . S
C2356 C2355 1.387 . S
C2356 C2359 1.387 . S
H2357 C2353 0.950 . S
H2358 C2355 0.950 . S
C2359 C2350 1.390 . S
C2359 H2352 0.950 . S
C2359 C2356 1.387 . S
C2360 C2361 1.387 1_565 S
C2360 H2364 0.950 . S
C2360 C2369 1.390 . S
C2361 C2360 1.387 1_545 S
C2361 C2363 1.387 . S
H2362 C2369 0.950 . S
C2363 C2361 1.387 . S
C2363 C2365 1.390 . S
C2363 H2367 0.950 . S
H2364 C2360 0.950 . S
C2365 C2363 1.390 . S
C2365 C2366 1.387 1_545 S
C2365 H2368 0.950 . S
C2366 C2365 1.387 1_565 S
C2366 C2369 1.387 . S
H2367 C2363 0.950 . S
H2368 C2365 0.950 . S
C2369 C2360 1.390 . S
C2369 H2362 0.950 . S
C2369 C2366 1.387 . S
C2370 C2371 1.387 . S
C2370 H2374 0.950 . S
C2370 C2379 1.390 1_565 S
C2371 C2370 1.387 . S
C2371 C2373 1.387 . S
H2372 C2379 0.950 . S
C2373 C2371 1.387 . S
C2373 C2375 1.390 1_565 S
C2373 H2377 0.950 . S
H2374 C2370 0.950 . S
C2375 C2373 1.390 1_545 S
C2375 C2376 1.387 . S
C2375 H2378 0.950 . S
C2376 C2375 1.387 . S
C2376 C2379 1.387 . S
H2377 C2373 0.950 . S
H2378 C2375 0.950 . S
C2379 C2370 1.390 1_545 S
C2379 H2372 0.950 . S
C2379 C2376 1.387 . S
C2380 C2381 1.387 1_455 S
C2380 H2384 0.950 . S
C2380 C2389 1.390 . S
C2381 C2380 1.387 1_655 S
C2381 C2383 1.387 . S
H2382 C2389 0.950 . S
C2383 C2381 1.387 . S
C2383 C2385 1.390 . S
C2383 H2387 0.950 . S
H2384 C2380 0.950 . S
C2385 C2383 1.390 . S
C2385 C2386 1.387 1_655 S
C2385 H2388 0.950 . S
C2386 C2385 1.387 1_455 S
C2386 C2389 1.387 . S
H2387 C2383 0.950 . S
H2388 C2385 0.950 . S
C2389 C2380 1.390 . S
C2389 H2382 0.950 . S
C2389 C2386 1.387 . S
C2390 C2391 1.387 . S
C2390 H2394 0.950 . S
C2390 C2399 1.390 . S
C2391 C2390 1.387 . S
C2391 C2393 1.387 . S
H2392 C2399 0.950 . S
C2393 C2391 1.387 . S
C2393 C2395 1.390 . S
C2393 H2397 0.950 . S
H2394 C2390 0.950 . S
C2395 C2393 1.390 . S
C2395 C2396 1.387 . S
C2395 H2398 0.950 . S
C2396 C2395 1.387 . S
C2396 C2399 1.387 . S
H2397 C2393 0.950 . S
H2398 C2395 0.950 . S
C2399 C2390 1.390 . S
C2399 H2392 0.950 . S
C2399 C2396 1.387 . S
C2400 C2401 1.387 . S
C2400 H2404 0.950 . S
C2400 C2409 1.390 . S
C2401 C2400 1.387 . S
C2401 C2403 1.387 . S
H2402 C2409 0.950 . S
C2403 C2401 1.387 . S
C2403 C2405 1.390 . S
C2403 H2407 0.950 . S
H2404 C2400 0.950 . S
C2405 C2403 1.390 . S
C2405 C2406 1.387 . S
C2405 H2408 0.950 . S
C2406 C2405 1.387 . S
C2406 C2409 1.387 . S
H2407 C2403 0.950 . S
H2408 C2405 0.950 . S
C2409 C2400 1.390 . S
C2409 H2402 0.950 . S
C2409 C2406 1.387 . S
C2410 C2411 1.387 . S
C2410 H2414 0.950 . S
C2410 C2419 1.390 . S
C2411 C2410 1.387 . S
C2411 C2413 1.387 . S
H2412 C2419 0.950 . S
C2413 C2411 1.387 . S
C2413 C2415 1.390 . S
C2413 H2417 0.950 . S
H2414 C2410 0.950 . S
C2415 C2413 1.390 . S
C2415 C2416 1.387 . S
C2415 H2418 0.950 . S
C2416 C2415 1.387 . S
C2416 C2419 1.387 . S
H2417 C2413 0.950 . S
H2418 C2415 0.950 . S
C2419 C2410 1.390 . S
C2419 H2412 0.950 . S
C2419 C2416 1.387 . S
C2420 C2421 1.387 . S
C2420 H2424 0.950 . S
C2420 C2429 1.390 . S
C2421 C2420 1.387 . S
C2421 C2423 1.387 . S
H2422 C2429 0.950 . S
C2423 C2421 1.387 . S
C2423 C2425 1.390 . S
C2423 H2427 0.950 . S
H2424 C2420 0.950 . S
C2425 C2423 1.390 . S
C2425 C2426 1.387 . S
C2425 H2428 0.950 . S
C2426 C2425 1.387 . S
C2426 C2429 1.387 . S
H2427 C2423 0.950 . S
H2428 C2425 0.950 . S
C2429 C2420 1.390 . S
C2429 H2422 0.950 . S
C2429 C2426 1.387 . S
C2430 C2431 1.387 . S
C2430 H2434 0.950 . S
C2430 C2439 1.390 . S
C2431 C2430 1.387 . S
C2431 C2433 1.387 . S
H2432 C2439 0.950 . S
C2433 C2431 1.387 . S
C2433 C2435 1.390 . S
C2433 H2437 0.950 . S
H2434 C2430 0.950 . S
C2435 C2433 1.390 . S
C2435 C2436 1.387 . S
C2435 H2438 0.950 . S
C2436 C2435 1.387 . S
C2436 C2439 1.387 . S
H2437 C2433 0.950 . S
H2438 C2435 0.950 . S
C2439 C2430 1.390 . S
C2439 H2432 0.950 . S
C2439 C2436 1.387 . S
C2440 C2441 1.387 . S
C2440 H2444 0.950 . S
C2440 C2449 1.390 . S
C2441 C2440 1.387 . S
C2441 C2443 1.387 . S
H2442 C2449 0.950 . S
C2443 C2441 1.387 . S
C2443 C2445 1.390 . S
C2443 H2447 0.950 . S
H2444 C2440 0.950 . S
C2445 C2443 1.390 . S
C2445 C2446 1.387 . S
C2445 H2448 0.950 . S
C2446 C2445 1.387 . S
C2446 C2449 1.387 . S
H2447 C2443 0.950 . S
H2448 C2445 0.950 . S
C2449 C2440 1.390 . S
C2449 H2442 0.950 . S
C2449 C2446 1.387 . S
C2450 C2451 1.387 . S
C2450 H2454 0.950 . S
C2450 C2459 1.390 . S
C2451 C2450 1.387 . S
C2451 C2453 1.387 . S
H2452 C2459 0.950 . S
C2453 C2451 1.387 . S
C2453 C2455 1.390 . S
C2453 H2457 0.950 . S
H2454 C2450 0.950 . S
C2455 C2453 1.390 . S
C2455 C2456 1.387 . S
C2455 H2458 0.950 . S
C2456 C2455 1.387 . S
C2456 C2459 1.387 . S
H2457 C2453 0.950 . S
H2458 C2455 0.950 . S
C2459 C2450 1.390 . S
C2459 H2452 0.950 . S
C2459 C2456 1.387 . S
C2460 C2461 1.387 . S
C2460 H2464 0.950 . S
C2460 C2469 1.390 . S
C2461 C2460 1.387 . S
C2461 C2463 1.387 . S
H2462 C2469 0.950 . S
C2463 C2461 1.387 . S
C2463 C2465 1.390 . S
C2463 H2467 0.950 . S
H2464 C2460 0.950 . S
C2465 C2463 1.390 . S
C2465 C2466 1.387 . S
C2465 H2468 0.950 . S
C2466 C2465 1.387 . S
C2466 C2469 1.387 . S
H2467 C2463 0.950 . S
H2468 C2465 0.950 . S
C2469 C2460 1.390 . S
C2469 H2462 0.950 . S
C2469 C2466 1.387 . S
C2470 C2471 1.387 . S
C2470 H2474 0.950 . S
C2470 C2479 1.390 . S
C2471 C2470 1.387 . S
C2471 C2473 1.387 . S
H2472 C2479 0.950 . S
C2473 C2471 1.387 . S
C2473 C2475 1.390 . S
C2473 H2477 0.950 . S
H2474 C2470 0.950 . S
C2475 C2473 1.390 . S
C2475 C2476 1.387 . S
C2475 H2478 0.950 . S
C2476 C2475 1.387 . S
C2476 C2479 1.387 . S
H2477 C2473 0.950 . S
H2478 C2475 0.950 . S
C2479 C2470 1.390 . S
C2479 H2472 0.950 . S
C2479 C2476 1.387 . S
C2480 C2481 1.387 . S
C2480 H2484 0.950 . S
C2480 C2489 1.390 . S
C2481 C2480 1.387 . S
C2481 C2483 1.387 . S
H2482 C2489 0.950 . S
C2483 C2481 1.387 . S
C2483 C2485 1.390 . S
C2483 H2487 0.950 . S
H2484 C2480 0.950 . S
C2485 C2483 1.390 . S
C2485 C2486 1.387 . S
C2485 H2488 0.950 . S
C2486 C2485 1.387 . S
C2486 C2489 1.387 . S
H2487 C2483 0.950 . S
H2488 C2485 0.950 . S
C2489 C2480 1.390 . S
C2489 H2482 0.950 . S
C2489 C2486 1.387 . S
C2490 C2491 1.387 . S
C2490 H2494 0.950 . S
C2490 C2499 1.390 . S
C2491 C2490 1.387 . S
C2491 C2493 1.387 . S
H2492 C2499 0.950 . S
C2493 C2491 1.387 . S
C2493 C2495 1.390 . S
C2493 H2497 0.950 . S
H2494 C2490 0.950 . S
C2495 C2493 1.390 . S
C2495 C2496 1.387 . S
C2495 H2498 0.950 . S
C2496 C2495 1.387 . S
C2496 C2499 1.387 . S
H2497 C2493 0.950 . S
H2498 C2495 0.950 . S
C2499 C2490 1.390 . S
C2499 H2492 0.950 . S
C2499 C2496 1.387 . S
C2500 C2501 1.387 . S
C2500 H2504 0.950 . S
C2500 C2509 1.390 . S
C2501 C2500 1.387 . S
C2501 C2503 1.387 . S
H2502 C2509 0.950 . S
C2503 C2501 1.387 . S
C2503 C2505 1.390 . S
C2503 H2507 0.950 . S
H2504 C2500 0.950 . S
C2505 C2503 1.390 . S
C2505 C2506 1.387 . S
C2505 H2508 0.950 . S
C2506 C2505 1.387 . S
C2506 C2509 1.387 . S
H2507 C2503 0.950 . S
H2508 C2505 0.950 . S
C2509 C2500 1.390 . S
C2509 H2502 0.950 . S
C2509 C2506 1.387 . S
C2510 C2511 1.387 . S
C2510 H2514 0.950 . S
C2510 C2519 1.390 . S
C2511 C2510 1.387 . S
C2511 C2513 1.387 . S
H2512 C2519 0.950 . S
C2513 C2511 1.387 . S
C2513 C2515 1.390 . S
C2513 H2517 0.950 . S
H2514 C2510 0.950 . S
C2515 C2513 1.390 . S
C2515 C2516 1.387 . S
C2515 H2518 0.950 . S
C2516 C2515 1.387 . S
C2516 C2519 1.387 . S
H2517 C2513 0.950 . S
H2518 C2515 0.950 . S
C2519 C2510 1.390 . S
C2519 H2512 0.950 . S
C2519 C2516 1.387 . S
C1441 C618 2.554 . S
C1446 C18 2.555 . S
C1451 C658 2.557 . S
C1456 C58 2.557 . S
C1461 C98 2.557 . S
C1466 C698 2.556 . S
C1471 C138 2.554 . S
C1476 C978 2.554 . S
C1481 C178 2.554 . S
C1486 C1018 2.554 . S
C1491 C218 2.557 . S
C1496 C1058 2.557 . S
C1501 C1328 2.557 . S
C1506 C248 2.556 . S
C1511 C1368 2.557 . S
C1516 C288 2.557 . S
C1521 C328 2.554 . S
C1526 C1408 2.554 . S
C1531 C728 2.557 . S
C1536 C368 2.557 . S
C1541 C408 2.557 . S
C1546 C768 2.557 . S
C1551 C448 2.554 . S
C1556 C808 2.554 . S
C1561 C1098 2.554 . S
C1566 C498 2.554 . S
C1571 C538 2.557 . S
C1576 C1138 2.557 . S
C1581 C1178 2.557 . S
C1586 C578 2.557 . S
C1591 C1208 2.556 . S
C1596 C848 2.557 . S
C1601 C1248 2.557 . S
C1606 C888 2.557 . S
C1611 C928 2.555 . S
C1616 C1288 2.554 . S
C1621 C5 0.413 . S
C1626 C165 0.419 . S
C1631 C45 0.418 . S
C1636 C205 0.413 . S
C1641 C85 0.416 . S
C1646 C125 0.414 . S
C1651 C255 0.423 . S
C1656 C415 0.422 . S
C1661 C295 0.419 . S
C1666 C455 0.423 . S
C1671 C335 0.416 . S
C1676 C375 0.415 . S
C1681 C485 0.423 . S
C1686 C645 0.421 . S
C1691 C685 0.419 . S
C1696 C525 0.413 . S
C1701 C565 0.416 . S
C1706 C605 0.414 . S
C1711 C735 0.423 . S
C1716 C895 0.420 . S
C1721 C775 0.417 . S
C1726 C935 0.423 . S
C1731 C855 0.414 . S
C1736 C815 0.416 . S
C1741 C965 0.423 . S
C1746 C1125 0.418 . S
C1751 C1165 0.423 . S
C1756 C1005 0.420 . S
C1761 C1045 0.423 . S
C1766 C1085 0.422 . S
C1771 C1215 0.421 . S
C1776 C1375 0.424 . S
C1781 C1255 0.421 . S
C1786 C1415 0.423 . S
C1791 C1295 0.416 . S
C1796 C1335 0.414 . S
C1801 C405 1.690 . S
C1806 C9 1.783 1_556 S
C1811 C49 1.782 1_556 S
C1816 C445 1.690 . S
C1821 C89 1.782 1_556 S
C1826 C365 1.690 . S
C1831 C129 1.783 . S
C1836 C325 1.691 . S
C1841 C169 1.782 . S
C1846 C245 1.690 . S
C1851 C285 1.693 . S
C1856 C209 1.784 . S
C1861 C259 1.781 . S
C1866 C175 1.689 . S
C1871 C215 1.692 . S
C1876 C299 1.784 . S
C1881 C339 1.782 . S
C1886 C135 1.691 . S
C1891 C379 1.783 . S
C1896 C95 1.690 . S
C1901 C15 1.690 . S
C1906 C419 1.782 . S
C1911 C55 1.693 . S
C1916 C459 1.783 . S
C1921 C885 1.689 . S
C1926 C489 1.781 . S
C1931 C925 1.693 . S
C1936 C529 1.783 . S
C1941 C845 1.692 . S
C1946 C569 1.784 . S
C1951 C805 1.690 . S
C1956 C609 1.783 . S
C1961 C649 1.782 . S
C1966 C725 1.690 . S
C1971 C765 1.693 . S
C1976 C689 1.784 . S
C1981 C655 1.693 . S
C1986 C739 1.783 . S
C1991 C779 1.784 . S
C1996 C695 1.692 . S
C2001 C819 1.784 . S
C2006 C615 1.692 . S
C2011 C575 1.690 . S
C2016 C859 1.783 . S
C2021 C899 1.784 . S
C2026 C495 1.693 . S
C2031 C939 1.782 . S
C2036 C535 1.690 . S
C2041 C969 1.781 . S
C2046 C1365 1.691 . S
C2051 C1009 1.782 . S
C2056 C1405 1.690 . S
C2061 C1325 1.692 . S
C2066 C1049 1.784 . S
C2071 C1285 1.691 . S
C2076 C1089 1.783 . S
C2081 C1129 1.782 . S
C2086 C1205 1.690 . S
C2091 C1245 1.690 . S
C2096 C1169 1.782 . S
C2101 C1219 1.783 . S
C2106 C1135 1.690 . S
C2111 C1175 1.690 . S
C2116 C1259 1.783 . S
C2121 C1299 1.782 . S
C2126 C1095 1.690 . S
C2131 C1339 1.783 . S
C2136 C1055 1.692 . S
C2141 C975 1.689 . S
C2146 C1379 1.782 . S
C2151 C1015 1.692 . S
C2156 C1419 1.782 . S
C2161 C19 3.243 . S
C2166 C179 3.244 . S
C2171 C219 3.244 . S
C2176 C59 3.244 . S
C2181 C99 3.243 . S
C2186 C139 3.243 . S
C2191 C249 3.244 . S
C2196 C409 3.244 . S
C2201 C449 3.244 . S
C2206 C289 3.243 . S
C2211 C329 3.243 . S
C2216 C369 3.243 . S
C2221 C659 3.244 . S
C2226 C499 3.243 . S
C2231 C699 3.244 . S
C2236 C539 3.243 . S
C2241 C619 3.243 . S
C2246 C579 3.243 . S
C2251 C889 3.243 . S
C2256 C729 3.244 . S
C2261 C769 3.243 . S
C2266 C929 3.244 . S
C2271 C849 3.243 . S
C2276 C809 3.243 . S
C2281 C1139 3.243 . S
C2286 C979 3.244 . S
C2291 C1019 3.243 . S
C2296 C1179 3.243 . S
C2301 C1059 3.243 . S
C2306 C1099 3.243 . S
C2311 C1369 3.244 . S
C2316 C1209 3.244 . S
C2321 C1249 3.243 . S
C2326 C1409 3.243 . S
C2331 C1289 3.244 . S
C2336 C1329 3.244 . S
C2341 C8 1.498 . S
C2346 C258 1.498 . S
C2351 C48 1.500 . S
C2356 C298 1.500 . S
C2361 C338 1.498 . S
C2366 C88 1.498 . S
C2371 C378 1.496 . S
C2376 C128 1.496 . S
C2381 C168 1.495 . S
C2386 C418 1.495 . S
C2391 C208 1.495 . S
C2396 C458 1.495 . S
C2401 C738 1.495 . S
C2406 C488 1.495 . S
C2411 C528 1.495 . S
C2416 C778 1.495 . S
C2421 C818 1.500 . S
C2426 C568 1.500 . S
C2431 C858 1.495 . S
C2436 C608 1.495 . S
C2441 C898 1.499 . S
C2446 C648 1.499 . S
C2451 C938 1.499 . S
C2456 C688 1.499 . S
C2461 C1218 1.498 . S
C2466 C968 1.498 . S
C2471 C1008 1.495 . S
C2476 C1258 1.495 . S
C2481 C1298 1.497 . S
C2486 C1048 1.497 . S
C2491 C1338 1.497 . S
C2496 C1088 1.497 . S
C2501 C1378 1.499 . S
C2506 C1128 1.499 . S
C2511 C1168 1.495 . S
C2516 C1418 1.495 . S
