# Generated by pormake.
# Topology fnh, (5)-cn, num edge types: 1
# Building blocks:
#     Node 0, Type 0, BuildingBlock: XOMCOT_clean_sbu_0, # of connection points: 5
#     Node 1, Type 0, BuildingBlock: XOMCOT_clean_sbu_0, # of connection points: 5
#     Node 2, Type 0, BuildingBlock: XOMCOT_clean_sbu_0, # of connection points: 5
#     Node 3, Type 0, BuildingBlock: XOMCOT_clean_sbu_0, # of connection points: 5
#     Node 4, Type 0, BuildingBlock: XOMCOT_clean_sbu_0, # of connection points: 5
#     Node 5, Type 0, BuildingBlock: XOMCOT_clean_sbu_0, # of connection points: 5
#     Node 6, Type 0, BuildingBlock: XOMCOT_clean_sbu_0, # of connection points: 5
#     Node 7, Type 0, BuildingBlock: XOMCOT_clean_sbu_0, # of connection points: 5
#     Node 8, Type 0, BuildingBlock: XOMCOT_clean_sbu_0, # of connection points: 5
#     Node 9, Type 0, BuildingBlock: XOMCOT_clean_sbu_0, # of connection points: 5
#     Node 10, Type 0, BuildingBlock: XOMCOT_clean_sbu_0, # of connection points: 5
#     Node 11, Type 0, BuildingBlock: XOMCOT_clean_sbu_0, # of connection points: 5
#     Node 12, Type 0, BuildingBlock: XOMCOT_clean_sbu_0, # of connection points: 5
#     Node 13, Type 0, BuildingBlock: XOMCOT_clean_sbu_0, # of connection points: 5
#     Node 14, Type 0, BuildingBlock: XOMCOT_clean_sbu_0, # of connection points: 5
#     Node 15, Type 0, BuildingBlock: XOMCOT_clean_sbu_0, # of connection points: 5
#     Node 16, Type 0, BuildingBlock: XOMCOT_clean_sbu_0, # of connection points: 5
#     Node 17, Type 0, BuildingBlock: XOMCOT_clean_sbu_0, # of connection points: 5
#     Edge 18, Type (0, 0), BuildingBlock: AJUNOK_clean_linker_0, # of connection points: 2
#     Edge 19, Type (0, 0), BuildingBlock: AJUNOK_clean_linker_0, # of connection points: 2
#     Edge 20, Type (0, 0), BuildingBlock: AJUNOK_clean_linker_0, # of connection points: 2
#     Edge 21, Type (0, 0), BuildingBlock: AJUNOK_clean_linker_0, # of connection points: 2
#     Edge 22, Type (0, 0), BuildingBlock: AJUNOK_clean_linker_0, # of connection points: 2
#     Edge 23, Type (0, 0), BuildingBlock: AJUNOK_clean_linker_0, # of connection points: 2
#     Edge 24, Type (0, 0), BuildingBlock: AJUNOK_clean_linker_0, # of connection points: 2
#     Edge 25, Type (0, 0), BuildingBlock: AJUNOK_clean_linker_0, # of connection points: 2
#     Edge 26, Type (0, 0), BuildingBlock: AJUNOK_clean_linker_0, # of connection points: 2
#     Edge 27, Type (0, 0), BuildingBlock: AJUNOK_clean_linker_0, # of connection points: 2
#     Edge 28, Type (0, 0), BuildingBlock: AJUNOK_clean_linker_0, # of connection points: 2
#     Edge 29, Type (0, 0), BuildingBlock: AJUNOK_clean_linker_0, # of connection points: 2
#     Edge 30, Type (0, 0), BuildingBlock: AJUNOK_clean_linker_0, # of connection points: 2
#     Edge 31, Type (0, 0), BuildingBlock: AJUNOK_clean_linker_0, # of connection points: 2
#     Edge 32, Type (0, 0), BuildingBlock: AJUNOK_clean_linker_0, # of connection points: 2
#     Edge 33, Type (0, 0), BuildingBlock: AJUNOK_clean_linker_0, # of connection points: 2
#     Edge 34, Type (0, 0), BuildingBlock: AJUNOK_clean_linker_0, # of connection points: 2
#     Edge 35, Type (0, 0), BuildingBlock: AJUNOK_clean_linker_0, # of connection points: 2
#     Edge 36, Type (0, 0), BuildingBlock: AJUNOK_clean_linker_0, # of connection points: 2
#     Edge 37, Type (0, 0), BuildingBlock: AJUNOK_clean_linker_0, # of connection points: 2
#     Edge 38, Type (0, 0), BuildingBlock: AJUNOK_clean_linker_0, # of connection points: 2
#     Edge 39, Type (0, 0), BuildingBlock: AJUNOK_clean_linker_0, # of connection points: 2
#     Edge 40, Type (0, 0), BuildingBlock: AJUNOK_clean_linker_0, # of connection points: 2
#     Edge 41, Type (0, 0), BuildingBlock: AJUNOK_clean_linker_0, # of connection points: 2
#     Edge 42, Type (0, 0), BuildingBlock: AJUNOK_clean_linker_0, # of connection points: 2
#     Edge 43, Type (0, 0), BuildingBlock: AJUNOK_clean_linker_0, # of connection points: 2
#     Edge 44, Type (0, 0), BuildingBlock: AJUNOK_clean_linker_0, # of connection points: 2
#     Edge 45, Type (0, 0), BuildingBlock: AJUNOK_clean_linker_0, # of connection points: 2
#     Edge 46, Type (0, 0), BuildingBlock: AJUNOK_clean_linker_0, # of connection points: 2
#     Edge 47, Type (0, 0), BuildingBlock: AJUNOK_clean_linker_0, # of connection points: 2
#     Edge 48, Type (0, 0), BuildingBlock: AJUNOK_clean_linker_0, # of connection points: 2
#     Edge 49, Type (0, 0), BuildingBlock: AJUNOK_clean_linker_0, # of connection points: 2
#     Edge 50, Type (0, 0), BuildingBlock: AJUNOK_clean_linker_0, # of connection points: 2
#     Edge 51, Type (0, 0), BuildingBlock: AJUNOK_clean_linker_0, # of connection points: 2
#     Edge 52, Type (0, 0), BuildingBlock: AJUNOK_clean_linker_0, # of connection points: 2
#     Edge 53, Type (0, 0), BuildingBlock: AJUNOK_clean_linker_0, # of connection points: 2
#     Edge 54, Type (0, 0), BuildingBlock: AJUNOK_clean_linker_0, # of connection points: 2
#     Edge 55, Type (0, 0), BuildingBlock: AJUNOK_clean_linker_0, # of connection points: 2
#     Edge 56, Type (0, 0), BuildingBlock: AJUNOK_clean_linker_0, # of connection points: 2
#     Edge 57, Type (0, 0), BuildingBlock: AJUNOK_clean_linker_0, # of connection points: 2
#     Edge 58, Type (0, 0), BuildingBlock: AJUNOK_clean_linker_0, # of connection points: 2
#     Edge 59, Type (0, 0), BuildingBlock: AJUNOK_clean_linker_0, # of connection points: 2
#     Edge 60, Type (0, 0), BuildingBlock: AJUNOK_clean_linker_0, # of connection points: 2
#     Edge 61, Type (0, 0), BuildingBlock: AJUNOK_clean_linker_0, # of connection points: 2
#     Edge 62, Type (0, 0), BuildingBlock: AJUNOK_clean_linker_0, # of connection points: 2
# Relax obj value: 0.239
# Max RMSD: 0.208
# Mean RMSD: 0.208
data_MOF--net-fnh--node1-XOMCOT_clean_sbu_0--edge1-AJUNOK_clean_linker_0
_symmetry_space_group_name_H-M    P1
_symmetry_Int_Tables_number       1
_symmetry_cell_setting            triclinic
loop_
_symmetry_equiv_pos_as_xyz
'x, y, z'
_cell_length_a     52.736181
_cell_length_b     52.70938
_cell_length_c     17.801694
_cell_angle_alpha  90.222937
_cell_angle_beta   89.772658
_cell_angle_gamma 120.27411
loop_
_atom_site_label
_atom_site_type_symbol
_atom_site_fract_x
_atom_site_fract_y
_atom_site_fract_z
_atom_type_partial_charge
Co0 Co 0.1166 0.18837 0.3238 0.0
C1 C 0.0888 0.21273 0.41546 0.0
C2 C 0.058 0.16768 0.389 0.0
C3 C 0.04527 0.17792 0.43924 0.0
N4 N 0.08527 0.18976 0.37419 0.0
N5 N 0.06491 0.20625 0.45622 0.0
H6 H 0.10948 0.23288 0.42215 0.0
H7 H 0.0489 0.14536 0.36898 0.0
C8 C 0.06794 0.1747 0.1955 0.0
O9 O 0.05673 0.18661 0.23931 0.0
N10 N 0.14928 0.18821 0.27506 0.0
C11 C 0.17437 0.19295 0.3079 0.0
C12 C 0.19395 0.19573 0.25339 0.0
C13 C 0.15398 0.18798 0.20083 0.0
N14 N 0.18102 0.19231 0.18614 0.0
C15 C 0.16202 0.24794 0.34735 0.0
C16 C 0.13774 0.27825 0.28351 0.0
C17 C 0.16282 0.2945 0.32988 0.0
C18 C 0.17476 0.27822 0.36031 0.0
C19 C 0.12499 0.24721 0.27308 0.0
N20 N 0.13668 0.23201 0.30693 0.0
H21 H 0.17188 0.23706 0.37546 0.0
H22 H 0.10505 0.2355 0.24096 0.0
H23 H 0.17908 0.19566 0.36726 0.0
H24 H 0.13815 0.18495 0.15823 0.0
O25 O 0.13473 0.19053 0.42392 0.0
O26 O 0.10534 0.1489 0.37204 0.0
O27 O 0.09185 0.17521 0.21901 0.0
C28 C 0.12269 0.16233 0.42902 0.0
H29 H 1.02457 0.16453 0.46797 0.0
H30 H 0.21631 0.20095 0.26294 0.0
H31 H 0.12767 0.28915 0.25579 0.0
H32 H 0.19348 0.2884 0.39751 0.0
Co33 Co 0.87278 0.93989 0.31997 0.0
C34 C 0.85762 0.8808 0.36928 0.0
C35 C 0.90123 0.91275 0.40385 0.0
C36 C 0.8943 0.88578 0.43198 0.0
N37 N 0.87787 0.9097 0.36585 0.0
N38 N 0.86651 0.86579 0.41191 0.0
H39 H 0.83572 0.87094 0.34648 0.0
H40 H 0.9213 0.93323 0.41409 0.0
C41 C 0.90037 0.91902 0.19209 0.0
O42 O 0.91899 0.92114 0.24385 0.0
N43 N 0.86681 0.96914 0.27327 0.0
C44 C 0.85276 0.98227 0.30324 0.0
C45 C 0.8506 0.99971 0.2493 0.0
C46 C 0.87262 0.97831 0.20171 0.0
N47 N 0.86292 0.99688 0.18589 0.0
C48 C 0.8156 0.90734 0.38746 0.0
C49 C 0.78047 0.88542 0.26251 0.0
C50 C 0.76633 0.87974 0.33376 0.0
C51 C 0.78498 0.89133 0.39596 0.0
C52 C 0.81177 0.90226 0.25611 0.0
N53 N 0.82916 0.91295 0.31864 0.0
H54 H 0.82842 0.91494 0.43808 0.0
H55 H 0.82183 0.90681 0.20104 0.0
H56 H 0.84392 0.97877 0.35959 0.0
H57 H 0.88353 0.97153 0.16166 0.0
O58 O 0.87333 0.95756 0.41993 0.0
O59 O 0.9132 0.97248 0.35752 0.0
O60 O 0.88044 0.92582 0.21184 0.0
C61 C 0.90107 0.97582 0.41843 0.0
H62 H 0.90743 0.88196 0.47202 0.0
H63 H 0.84011 1.01276 0.25533 0.0
H64 H 0.76763 0.87685 0.21184 0.0
H65 H 0.77603 0.88848 0.45214 0.0
Co66 Co 0.11779 0.94416 0.31709 0.0
C67 C 0.17624 0.98832 0.37167 0.0
C68 C 0.14374 0.99926 0.40475 0.0
C69 C 0.17032 1.01949 0.43488 0.0
N70 N 0.14736 0.97929 0.36635 0.0
N71 N 0.19063 1.01213 0.41572 0.0
H72 H 0.1865 0.97667 0.34892 0.0
H73 H 0.12312 0.99856 0.41363 0.0
C74 C 0.1413 0.99398 0.19174 0.0
O75 O 0.14085 1.01118 0.24452 0.0
N76 N 0.08912 0.90932 0.26686 0.0
C77 C 0.07643 0.88145 0.29216 0.0
C78 C 0.05941 0.86281 0.23547 0.0
C79 C 0.07997 0.90743 0.19581 0.0
N80 N 0.06217 0.87935 0.17515 0.0
C81 C 0.15029 0.92054 0.38778 0.0
C82 C 0.17129 0.90474 0.2653 0.0
C83 C 0.17775 0.89822 0.3377 0.0
C84 C 0.1664 0.90626 0.3986 0.0
C85 C 0.15474 0.91932 0.25658 0.0
N86 N 0.14465 0.92748 0.31792 0.0
H87 H 0.14266 0.92645 0.43739 0.0
H88 H 0.14976 0.92357 0.20075 0.0
H89 H 0.07995 0.87508 0.34706 0.0
H90 H 0.08623 0.92609 0.1595 0.0
O91 O 0.09871 0.92605 0.415 0.0
O92 O 0.08487 0.95164 0.35244 0.0
O93 O 0.13305 0.96672 0.21027 0.0
C94 C 0.08066 0.93564 0.41257 0.0
H95 H 0.17363 0.03627 0.47538 0.0
H96 H 0.04675 0.83906 0.23742 0.0
H97 H 0.179 0.8987 0.21572 0.0
H98 H 0.16946 0.90111 0.45544 0.0
Co99 Co 0.19778 0.10479 0.76036 0.0
C100 C 0.20917 0.05854 0.71141 0.0
C101 C 0.16653 0.04907 0.67514 0.0
C102 C 0.17213 0.02806 0.64695 0.0
N103 N 0.19028 0.0687 0.71377 0.0
N104 N 0.19943 0.03465 0.66777 0.0
H105 H 0.231 0.06975 0.7349 0.0
H106 H 0.1473 0.05074 0.66403 0.0
C107 C 0.16879 0.05721 0.88799 0.0
O108 O 0.14751 0.0436 0.83909 0.0
N109 N 0.20586 0.14065 0.80792 0.0
C110 C 0.22058 0.168 0.7787 0.0
C111 C 0.22286 0.18773 0.83306 0.0
C112 C 0.19961 0.14391 0.87896 0.0
N113 N 0.2099 0.17231 0.89553 0.0
C114 C 0.25326 0.12485 0.68573 0.0
C115 C 0.29091 0.14514 0.80649 0.0
C116 C 0.30364 0.15004 0.73363 0.0
C117 C 0.28379 0.13906 0.67349 0.0
C118 C 0.25979 0.13038 0.81661 0.0
N119 N 0.24115 0.12028 0.75631 0.0
H120 H 0.23915 0.1174 0.6371 0.0
H121 H 0.25084 0.12776 0.8727 0.0
H122 H 0.2296 0.17331 0.72252 0.0
H123 H 0.18811 0.12604 0.91829 0.0
O124 O 0.19642 0.12213 0.66205 0.0
O125 O 0.15745 0.09816 0.72946 0.0
O126 O 0.19104 0.08279 0.86746 0.0
C127 C 0.16894 0.11362 0.66823 0.0
H128 H 0.15878 1.01157 0.60568 0.0
H129 H 0.23385 0.2114 0.82811 0.0
H130 H 0.30482 0.15265 0.85566 0.0
H131 H 0.29175 0.14217 0.61618 0.0
Co132 Co 0.95675 0.10413 0.76656 0.0
C133 C 1.008 0.16043 0.73594 0.0
C134 C 1.0128 0.12605 0.68521 0.0
C135 C 0.03783 0.15254 0.67237 0.0
N136 N 0.99387 0.13127 0.72347 0.0
N137 N 0.03462 0.1742 0.70378 0.0
H138 H 0.99847 0.17182 0.76443 0.0
H139 H 1.00866 0.10481 0.66621 0.0
C140 C 1.0024 0.12079 0.89858 0.0
O141 O 1.01512 0.11063 0.8539 0.0
N142 N 0.92003 0.07749 0.81303 0.0
C143 C 0.89285 0.0648 0.78309 0.0
C144 C 0.8728 0.04793 0.83775 0.0
C145 C 0.91633 0.06864 0.88472 0.0
N146 N 0.88783 0.05093 0.90123 0.0
C147 C 0.94271 0.14349 0.69079 0.0
C148 C 0.91913 0.15948 0.8074 0.0
C149 C 0.91702 0.16888 0.73411 0.0
C150 C 0.92916 0.1601 0.67603 0.0
C151 C 0.93251 0.14208 0.81985 0.0
N152 N 0.94416 0.13414 0.76155 0.0
H153 H 0.95138 0.13726 0.64366 0.0
H154 H 0.93269 0.13436 0.87595 0.0
H155 H 0.8879 0.06774 0.726 0.0
H156 H 0.93401 0.0747 0.92424 0.0
O157 O 0.93972 0.08651 0.66675 0.0
O158 O 0.96117 0.06907 0.73375 0.0
O159 O 0.97804 0.11904 0.87438 0.0
C160 C 0.94694 0.06663 0.67127 0.0
H161 H 0.05578 0.15588 0.63606 0.0
H162 H 0.84919 0.03487 0.83188 0.0
H163 H 0.91018 0.16519 0.85505 0.0
H164 H 0.9273 0.16486 0.61799 0.0
Co165 Co 0.95049 0.86093 0.75556 0.0
C166 C 0.89224 0.84759 0.70656 0.0
C167 C 0.92488 0.89075 0.67076 0.0
C168 C 0.89806 0.88427 0.64242 0.0
N169 N 0.92125 0.86726 0.70932 0.0
N170 N 0.8777 0.85667 0.663 0.0
H171 H 0.88194 0.82569 0.72955 0.0
H172 H 0.94564 0.91043 0.65982 0.0
C173 C 0.93074 0.88929 0.88305 0.0
O174 O 0.93574 0.90933 0.83243 0.0
N175 N 0.97886 0.85394 0.80327 0.0
C176 C 0.99225 0.84007 0.77384 0.0
C177 C 1.0103 0.83887 0.82772 0.0
C178 C 0.98842 0.8606 0.87431 0.0
N179 N 1.00748 0.85159 0.89036 0.0
C180 C 0.91666 0.80464 0.68331 0.0
C181 C 0.89434 0.76793 0.80531 0.0
C182 C 0.88849 0.75453 0.73289 0.0
C183 C 0.90018 0.77409 0.67218 0.0
C184 C 0.91175 0.79912 0.81436 0.0
N185 N 0.92277 0.81732 0.75337 0.0
H186 H 0.92434 0.81819 0.6338 0.0
H187 H 0.91644 0.80846 0.87028 0.0
H188 H 0.98892 0.83115 0.71759 0.0
H189 H 0.98188 0.87198 0.91356 0.0
O190 O 0.96877 0.86183 0.65641 0.0
O191 O 0.98396 0.90136 0.72071 0.0
O192 O 0.93581 0.86817 0.8632 0.0
C193 C 0.9875 0.88945 0.65961 0.0
H194 H 0.89463 0.89729 0.60117 0.0
H195 H 1.02404 0.82914 0.82198 0.0
H196 H 0.88548 0.75467 0.85518 0.0
H197 H 0.89722 0.76601 0.61508 0.0
Co198 Co 0.78382 0.51992 0.64048 0.0
C199 C 0.7507 0.54106 0.72475 0.0
C200 C 0.72356 0.49564 0.69459 0.0
C201 C 0.70642 0.50512 0.729 0.0
N202 N 0.75107 0.51857 0.69019 0.0
N203 N 0.72355 0.53389 0.74691 0.0
H204 H 0.77003 0.5621 0.73456 0.0
H205 H 0.71642 0.47389 0.67268 0.0
C206 C 0.73526 0.5066 0.51004 0.0
O207 O 0.7227 0.5172 0.55356 0.0
N208 N 0.81733 0.52159 0.59137 0.0
C209 C 0.8409 0.5225 0.624 0.0
C210 C 0.86084 0.5262 0.56959 0.0
C211 C 0.82345 0.52489 0.51743 0.0
N212 N 0.84988 0.52776 0.50283 0.0
C213 C 0.82963 0.57968 0.66031 0.0
C214 C 0.80229 0.60957 0.61329 0.0
C215 C 0.82873 0.62564 0.65477 0.0
C216 C 0.84287 0.61003 0.67374 0.0
C217 C 0.78996 0.57884 0.59859 0.0
N218 N 0.80282 0.56368 0.62612 0.0
H219 H 0.84071 0.56883 0.68203 0.0
H220 H 0.76897 0.56711 0.57092 0.0
H221 H 0.84412 0.52122 0.6833 0.0
H222 H 0.80863 0.52445 0.47501 0.0
O223 O 0.80199 0.52243 0.7407 0.0
O224 O 0.77424 0.48064 0.68805 0.0
O225 O 0.75943 0.50752 0.53425 0.0
C226 C 0.79106 0.49436 0.74577 0.0
H227 H 0.68338 0.49151 0.74283 0.0
H228 H 0.88165 0.52723 0.57822 0.0
H229 H 0.79044 0.62026 0.59511 0.0
H230 H 0.86411 0.62097 0.70078 0.0
Co231 Co 0.53913 0.27546 0.64151 0.0
C232 C 0.52763 0.21765 0.69048 0.0
C233 C 0.57019 0.25146 0.72706 0.0
C234 C 0.56499 0.22486 0.75392 0.0
N235 N 0.54639 0.24694 0.68858 0.0
N236 N 0.53784 0.20367 0.73258 0.0
H237 H 0.50586 0.20669 0.66659 0.0
H238 H 0.5894 0.27259 0.73805 0.0
C239 C 0.56731 0.25476 0.51402 0.0
O240 O 0.58651 0.25825 0.56562 0.0
N241 N 0.53111 0.30298 0.59399 0.0
C242 C 0.51372 0.31299 0.62029 0.0
C243 C 0.51176 0.33052 0.56626 0.0
C244 C 0.53929 0.31407 0.52488 0.0
N245 N 0.52773 0.33084 0.50677 0.0
C246 C 0.4835 0.24049 0.71456 0.0
C247 C 0.4459 0.22172 0.59365 0.0
C248 C 0.43319 0.21546 0.66659 0.0
C249 C 0.453 0.22485 0.72671 0.0
C250 C 0.47711 0.23784 0.58358 0.0
N251 N 0.49572 0.24714 0.64409 0.0
H252 H 0.49749 0.24734 0.76334 0.0
H253 H 0.48613 0.24354 0.52743 0.0
H254 H 0.50239 0.30705 0.67373 0.0
H255 H 0.55285 0.30956 0.48781 0.0
O256 O 0.53987 0.29416 0.74026 0.0
O257 O 0.5792 0.30978 0.67473 0.0
O258 O 0.54672 0.26078 0.53352 0.0
C259 C 0.56733 0.31348 0.73567 0.0
H260 H 0.57878 0.22187 0.79357 0.0
H261 H 0.49871 0.34108 0.56889 0.0
H262 H 0.43187 0.21509 0.54468 0.0
H263 H 0.44501 0.22014 0.78396 0.0
Co264 Co 0.78937 0.27546 0.6471 0.0
C265 C 0.83447 0.29966 0.7573 0.0
C266 C 0.84395 0.33198 0.67288 0.0
C267 C 0.86849 0.34115 0.71699 0.0
N268 N 0.82262 0.30589 0.69882 0.0
N269 N 0.8626 0.32053 0.77001 0.0
H270 H 0.8227 0.27935 0.78778 0.0
H271 H 0.84258 0.34306 0.62358 0.0
C272 C 0.8 0.32034 0.51513 0.0
O273 O 0.78201 0.32593 0.55329 0.0
N274 N 0.7563 0.24369 0.59641 0.0
C275 C 0.7341 0.21932 0.62864 0.0
C276 C 0.71602 0.20104 0.57385 0.0
C277 C 0.75129 0.23977 0.52213 0.0
N278 N 0.72673 0.21406 0.5073 0.0
C279 C 0.80117 0.22757 0.66219 0.0
C280 C 0.85983 0.25722 0.62432 0.0
C281 C 0.84857 0.22905 0.65746 0.0
C282 C 0.81828 0.21422 0.67378 0.0
C283 C 0.84155 0.26945 0.61082 0.0
N284 N 0.81259 0.25514 0.63222 0.0
H285 H 0.77883 0.21597 0.68204 0.0
H286 H 0.85139 0.29141 0.58816 0.0
H287 H 0.73125 0.2143 0.68785 0.0
H288 H 0.76498 0.25535 0.47971 0.0
O289 O 0.77159 0.25665 0.74534 0.0
O290 O 0.76139 0.28739 0.69509 0.0
O291 O 0.80508 0.3003 0.54333 0.0
C292 C 0.75617 0.26932 0.75124 0.0
H293 H 0.88889 0.36172 0.7108 0.0
H294 H 0.69666 0.17971 0.58223 0.0
H295 H 0.88294 0.27075 0.61195 0.0
H296 H 0.80758 0.1924 0.69766 0.0
Co297 Co 0.86216 0.4341 0.08556 0.0
C298 C 0.86923 0.38461 0.04256 0.0
C299 C 0.82619 0.37593 1.01374 0.0
C300 C 0.82877 0.35201 0.99388 0.0
N301 N 0.85203 0.39669 0.0425 0.0
N302 N 0.85597 0.35772 1.01224 0.0
H303 H 0.89171 0.3954 0.06143 0.0
H304 H 0.80714 0.3782 1.00549 0.0
C305 C 0.85744 0.39453 0.23001 0.0
O306 O 0.87871 0.39142 0.20177 0.0
N307 N 0.87239 0.471 0.12998 0.0
C308 C 0.89115 0.49807 0.10307 0.0
C309 C 0.89381 0.51852 0.15571 0.0
C310 C 0.86391 0.47506 0.19758 0.0
N311 N 0.87672 0.50374 0.21459 0.0
C312 C 0.91722 0.44984 1.01475 0.0
C313 C 0.95503 0.47159 0.13514 0.0
C314 C 0.9676 0.47555 0.06244 0.0
C315 C 0.94774 0.4638 1.0026 0.0
C316 C 0.92384 0.45752 0.14515 0.0
N317 N 0.90508 0.4467 0.08498 0.0
H318 H 0.90312 0.44171 0.96615 0.0
H319 H 0.91502 0.45641 0.20078 0.0
H320 H 0.9029 0.50254 0.05036 0.0
H321 H 0.84935 0.45749 0.23482 0.0
O322 O 0.86299 0.4515 0.9848 0.0
O323 O 0.82338 0.43024 0.05066 0.0
O324 O 0.85046 0.41203 0.19427 0.0
C325 C 0.83584 0.44472 0.98895 0.0
H326 H 0.81285 0.33305 0.96229 0.0
H327 H 0.90813 0.54211 0.15282 0.0
H328 H 0.96919 0.48041 0.18365 0.0
H329 H 0.9558 0.46582 0.9456 0.0
Co330 Co 0.61855 0.44176 0.08439 0.0
C331 C 0.65452 0.49784 1.00892 0.0
C332 C 0.67922 0.47668 0.03432 0.0
C333 C 0.69788 0.50395 1.00476 0.0
N334 N 0.65223 0.47326 0.03786 0.0
N335 N 0.68232 0.51737 0.98979 0.0
H336 H 0.63614 0.50105 0.99889 0.0
H337 H 0.68493 0.4607 0.05307 0.0
C338 C 0.6663 0.47656 0.21629 0.0
O339 O 0.67757 0.5003 0.17478 0.0
N340 N 0.58428 0.41015 0.13116 0.0
C341 C 0.55977 0.3887 0.09786 0.0
C342 C 0.54024 0.37161 0.15252 0.0
C343 C 0.5791 0.40608 0.20527 0.0
N344 N 0.55243 0.38281 0.21965 0.0
C345 C 0.57556 0.45853 0.05263 0.0
C346 C 0.59766 0.51105 0.12834 0.0
C347 C 0.57393 0.50329 0.07839 0.0
C348 C 0.56286 0.47621 0.04194 0.0
C349 C 0.61033 0.49268 0.13673 0.0
N350 N 0.59986 0.46692 0.09687 0.0
H351 H 0.5659 0.43809 1.02219 0.0
H352 H 0.62912 0.49995 0.1728 0.0
H353 H 0.55595 0.38545 0.03818 0.0
H354 H 0.59473 0.41927 0.24809 0.0
O355 O 0.60153 0.42619 0.9828 0.0
O356 O 0.6279 0.41158 0.03824 0.0
O357 O 0.64238 0.45301 0.19142 0.0
C358 C 0.61185 0.40861 0.97925 0.0
H359 H 0.72077 0.51243 0.99087 0.0
H360 H 0.51894 0.35223 0.14383 0.0
H361 H 0.60701 0.53161 0.15887 0.0
H362 H 0.54438 0.46866 1.00412 0.0
Co363 Co 0.62063 0.19577 0.08124 0.0
C364 C 0.56304 0.18313 1.02896 0.0
C365 C 0.59626 0.22625 0.9945 0.0
C366 C 0.56979 0.21999 0.96419 0.0
N367 N 0.59204 0.20264 1.03344 0.0
N368 N 0.54913 0.19236 0.98367 0.0
H369 H 0.55235 0.16121 0.05195 0.0
H370 H 0.61721 0.24583 0.98457 0.0
C371 C 0.59963 0.22387 0.20776 0.0
O372 O 0.60444 0.24368 0.15664 0.0
N373 N 0.64826 0.18829 0.12945 0.0
C374 C 0.65766 0.16997 0.10662 0.0
C375 C 0.67522 0.16884 0.16203 0.0
C376 C 0.66003 0.19815 0.19704 0.0
N377 N 0.67619 0.18634 0.21846 0.0
C378 C 0.58606 0.13953 1.00873 0.0
C379 C 0.56564 0.10273 0.13122 0.0
C380 C 0.55836 0.08951 0.05888 0.0
C381 C 0.56928 0.10894 0.99781 0.0
C382 C 0.58267 0.13396 0.14001 0.0
N383 N 0.59258 0.1522 0.0788 0.0
H384 H 0.59379 0.15321 0.95938 0.0
H385 H 0.58835 0.14329 0.19586 0.0
H386 H 0.65122 0.15746 0.05491 0.0
H387 H 0.65602 0.2128 0.23126 0.0
O388 O 0.63993 0.19693 0.98322 0.0
O389 O 0.65466 0.23609 0.04935 0.0
O390 O 0.60531 0.20302 0.18864 0.0
C391 C 0.65895 0.22451 0.98867 0.0
H392 H 0.56687 0.23316 0.92236 0.0
H393 H 0.68515 0.15519 0.16277 0.0
H394 H 0.55826 0.08907 0.18089 0.0
H395 H 0.56562 0.10063 0.94082 0.0
Co396 Co 0.44747 0.85262 0.98237 0.0
C397 C 0.40215 0.86533 1.03198 0.0
C398 C 0.39189 0.82234 0.06772 0.0
C399 C 0.37135 0.82846 0.0965 0.0
N400 N 0.41164 0.8459 1.02869 0.0
N401 N 0.37846 0.85597 0.07613 0.0
H402 H 0.41371 0.88723 1.00894 0.0
H403 H 0.39314 0.80285 0.07855 0.0
C404 C 0.3985 0.82686 0.85425 0.0
O405 O 0.38049 0.80978 0.90662 0.0
N406 N 0.48311 0.85993 0.93621 0.0
C407 C 0.51073 0.87723 0.96167 0.0
C408 C 0.53001 0.87821 0.90767 0.0
C409 C 0.48565 0.85046 0.86857 0.0
N410 N 0.51393 0.86147 0.84965 0.0
C411 C 0.46928 0.90912 0.05367 0.0
C412 C 0.48694 0.94541 0.93008 0.0
C413 C 0.49319 0.95898 1.00205 0.0
C414 C 0.4837 0.93981 0.06371 0.0
C415 C 0.47227 0.91416 0.92223 0.0
N416 N 0.46341 0.89618 0.98392 0.0
H417 H 0.46256 0.8956 0.10338 0.0
H418 H 0.46878 0.90459 0.86669 0.0
H419 H 0.51642 0.88916 1.01428 0.0
H420 H 0.46727 0.83661 0.83256 0.0
O421 O 0.46465 0.85149 0.08115 0.0
O422 O 0.44037 0.81226 1.01473 0.0
O423 O 0.42597 0.84523 0.87369 0.0
C424 C 0.45595 0.82391 0.07567 0.0
H425 H 0.35488 0.8153 0.13804 0.0
H426 H 0.55374 0.89132 0.90899 0.0
H427 H 0.4941 0.9588 0.87994 0.0
H428 H 0.48727 0.94842 0.12041 0.0
Co429 Co 0.20287 0.60441 0.98907 0.0
C430 C 0.1809 0.5505 0.07564 0.0
C431 C 0.22116 0.56207 1.01867 0.0
C432 C 0.20919 0.53391 0.045 0.0
N433 N 0.20307 0.57211 0.03661 0.0
N434 N 0.18348 0.52631 0.08008 0.0
H435 H 0.1628 0.55236 0.09747 0.0
H436 H 0.24122 0.57411 0.98677 0.0
C437 C 0.20757 0.58058 0.82103 0.0
O438 O 0.18147 0.57566 0.80161 0.0
N439 N 0.20262 0.63715 0.94083 0.0
C440 C 0.19825 0.65771 0.97459 0.0
C441 C 0.19668 0.67539 0.92112 0.0
C442 C 0.20435 0.64326 0.8671 0.0
N443 N 0.20072 0.66639 0.85373 0.0
C444 C 0.14253 0.5899 1.00307 0.0
C445 C 0.11355 0.53206 0.95769 0.0
C446 C 0.09655 0.54302 0.99125 0.0
C447 C 0.11187 0.57269 1.01206 0.0
C448 C 0.1446 0.55053 0.94738 0.0
N449 N 0.15918 0.57925 0.97177 0.0
H450 H 0.15292 0.61161 1.02665 0.0
H451 H 0.15701 0.541 0.92481 0.0
H452 H 0.19513 0.6594 0.03394 0.0
H453 H 0.20861 0.63155 0.82385 0.0
O454 O 0.19988 0.62017 0.0892 0.0
O455 O 0.24187 0.63334 0.03813 0.0
O456 O 0.21754 0.5921 0.88769 0.0
C457 C 0.22809 0.63693 0.09485 0.0
H458 H 0.21932 0.52053 0.04034 0.0
H459 H 0.19213 0.69297 0.93116 0.0
H460 H 0.10303 0.50928 0.94035 0.0
H461 H 0.10031 0.58243 0.03885 0.0
Co462 Co 0.44784 0.61112 0.97511 0.0
C463 C 0.50432 0.66259 1.00489 0.0
C464 C 0.47024 0.66603 0.06228 0.0
C465 C 0.4967 0.691 0.07565 0.0
N466 N 0.47526 0.64806 1.01897 0.0
N467 N 0.51812 0.68869 0.0398 0.0
H468 H 0.51548 0.65376 0.97231 0.0
H469 H 0.44915 0.66127 0.08416 0.0
C470 C 0.46772 0.65844 0.84454 0.0
O471 O 0.46371 0.67456 0.89419 0.0
N472 N 0.42088 0.57465 0.92935 0.0
C473 C 0.4122 0.5471 0.95258 0.0
C474 C 0.39498 0.52775 0.89702 0.0
C475 C 0.40876 0.57195 0.862 0.0
N476 N 0.39332 0.54375 0.84058 0.0
C477 C 0.48886 0.59826 0.04922 0.0
C478 C 0.50042 0.57037 0.93424 0.0
C479 C 0.51196 0.57012 1.00618 0.0
C480 C 0.50592 0.58497 0.06318 0.0
C481 C 0.48368 0.5845 0.92211 0.0
N482 N 0.47775 0.59815 0.97958 0.0
H483 H 0.48401 0.60829 0.09598 0.0
H484 H 0.47437 0.58317 0.8672 0.0
H485 H 0.41901 0.54165 1.00437 0.0
H486 H 0.41213 0.59029 0.82762 0.0
O487 O 0.42958 0.59397 0.07436 0.0
O488 O 0.41317 0.61611 1.00534 0.0
O489 O 0.46207 0.63217 0.86594 0.0
C490 C 0.4098 0.60138 0.06745 0.0
H491 H 0.50025 0.7084 0.11434 0.0
H492 H 0.38579 0.50418 0.89621 0.0
H493 H 0.50309 0.5587 0.88767 0.0
H494 H 0.51406 0.58621 0.11954 0.0
Co495 Co 0.53215 0.7714 0.41584 0.0
C496 C 0.55654 0.74921 0.30809 0.0
C497 C 0.52276 0.71295 0.36966 0.0
C498 C 0.53519 0.70255 0.31886 0.0
N499 N 0.53614 0.74223 0.36176 0.0
N500 N 0.55668 0.72554 0.28041 0.0
H501 H 0.57068 0.77144 0.28863 0.0
H502 H 0.50479 0.69989 0.40732 0.0
C503 C 0.49841 0.72299 0.54277 0.0
O504 O 0.47529 0.71267 0.49902 0.0
N505 N 0.52982 0.80219 0.46844 0.0
C506 C 0.52898 0.82518 0.43755 0.0
C507 C 0.53174 0.84434 0.49301 0.0
C508 C 0.53324 0.80791 0.54254 0.0
N509 N 0.53449 0.83352 0.55873 0.0
C510 C 0.59131 0.82047 0.40507 0.0
C511 C 0.62126 0.79163 0.43899 0.0
C512 C 0.63741 0.81964 0.40492 0.0
C513 C 0.62178 0.83434 0.39187 0.0
C514 C 0.59056 0.77858 0.45291 0.0
N515 N 0.57552 0.79248 0.43286 0.0
H516 H 0.58014 0.83187 0.38774 0.0
H517 H 0.57857 0.75632 0.47396 0.0
H518 H 0.52754 0.82884 0.37863 0.0
H519 H 0.53444 0.79356 0.58379 0.0
O520 O 0.5337 0.7908 0.31853 0.0
O521 O 0.49237 0.75863 0.36716 0.0
O522 O 0.52264 0.74615 0.51881 0.0
C523 C 0.50546 0.77719 0.31191 0.0
H524 H 0.52725 0.67959 0.30723 0.0
H525 H 0.53165 0.86468 0.48572 0.0
H526 H 0.63189 0.77915 0.45153 0.0
H527 H 0.63281 0.85643 0.36955 0.0
Co528 Co 0.28621 0.77182 0.42529 0.0
C529 C 0.33135 0.82961 0.37126 0.0
C530 C 0.34151 0.79648 0.33871 0.0
C531 C 0.36229 0.823 0.30912 0.0
N532 N 0.32165 0.80057 0.37604 0.0
N533 N 0.35544 0.84371 0.32816 0.0
H534 H 0.32002 0.84023 0.3938 0.0
H535 H 0.34031 0.7756 0.32997 0.0
C536 C 0.33428 0.79035 0.55146 0.0
O537 O 0.34665 0.78105 0.50303 0.0
N538 N 0.25104 0.74401 0.47533 0.0
C539 C 0.22337 0.73087 0.4483 0.0
C540 C 0.20437 0.71368 0.50416 0.0
C541 C 0.24871 0.73507 0.5465 0.0
N542 N 0.22055 0.71686 0.5654 0.0
C543 C 0.26327 0.80464 0.35231 0.0
C544 C 0.24831 0.8267 0.4742 0.0
C545 C 0.24099 0.83234 0.40174 0.0
C546 C 0.24902 0.8208 0.34107 0.0
C547 C 0.26272 0.81005 0.48333 0.0
N548 N 0.27032 0.7993 0.42235 0.0
H549 H 0.26904 0.79666 0.30307 0.0
H550 H 0.26712 0.80535 0.5393 0.0
H551 H 0.21737 0.73402 0.39255 0.0
H552 H 0.26707 0.74178 0.58416 0.0
O553 O 0.26794 0.75195 0.32817 0.0
O554 O 0.29292 0.73812 0.39381 0.0
O555 O 0.30927 0.78813 0.53103 0.0
C556 C 0.27683 0.73336 0.3336 0.0
H557 H 0.37916 0.82607 0.26923 0.0
H558 H 0.18067 0.70059 0.501 0.0
H559 H 0.24222 0.83431 0.52386 0.0
H560 H 0.24457 0.82443 0.28402 0.0
Co561 Co 0.28284 0.52975 0.4168 0.0
C562 C 0.22898 0.50613 0.32998 0.0
C563 C 0.23857 0.54578 0.3875 0.0
C564 C 0.21083 0.53333 0.35791 0.0
N565 N 0.24973 0.52854 0.37023 0.0
N566 N 0.2045 0.50797 0.32286 0.0
H567 H 0.23162 0.48842 0.30817 0.0
H568 H 0.24953 0.56563 0.42088 0.0
C569 C 0.25843 0.53357 0.58416 0.0
O570 O 0.25353 0.50739 0.60276 0.0
N571 N 0.31634 0.53075 0.46447 0.0
C572 C 0.33811 0.52859 0.4299 0.0
C573 C 0.3559 0.52692 0.4828 0.0
C574 C 0.32163 0.53071 0.53834 0.0
N575 N 0.34557 0.52839 0.55073 0.0
C576 C 0.27041 0.47067 0.40074 0.0
C577 C 0.21308 0.43936 0.44923 0.0
C578 C 0.22441 0.4235 0.4106 0.0
C579 C 0.25387 0.4403 0.38776 0.0
C580 C 0.23053 0.47051 0.46005 0.0
N581 N 0.25903 0.48616 0.43462 0.0
H582 H 0.29217 0.48197 0.37734 0.0
H583 H 0.22037 0.48204 0.48438 0.0
H584 H 0.3406 0.52695 0.37027 0.0
H585 H 0.30866 0.5326 0.58245 0.0
O586 O 0.29826 0.52657 0.31639 0.0
O587 O 0.31088 0.56871 0.36539 0.0
O588 O 0.27029 0.54406 0.51814 0.0
C589 C 0.3145 0.55472 0.30913 0.0
H590 H 0.19705 0.54306 0.35982 0.0
H591 H 0.37454 0.52408 0.47206 0.0
H592 H 0.19079 0.42812 0.47017 0.0
H593 H 0.26426 0.43045 0.3561 0.0
C594 C 0.19103 0.19633 0.97737 0.0
C595 C 0.20816 0.18319 0.96738 0.0
C596 C 0.18342 0.20069 0.04964 0.0
C597 C 0.19277 0.19195 0.11353 0.0
H598 H 0.18208 0.20156 0.92911 0.0
H599 H 0.16932 0.20999 0.05542 0.0
S600 S 0.24173 0.1603 0.11415 0.0
N601 N 0.23707 0.16458 1.02447 0.0
N602 N 0.22249 0.17201 0.16089 0.0
C603 C 0.2117 0.18065 0.1035 0.0
C604 C 0.21943 0.1764 1.03006 0.0
C605 C 0.86243 1.0067 0.97839 0.0
C606 C 0.87677 0.03736 0.97223 0.0
C607 C 0.85699 0.99339 0.04904 0.0
C608 C 0.86521 1.01044 0.11497 0.0
H609 H 0.85708 0.9932 0.92838 0.0
H610 H 0.84708 0.96975 0.0524 0.0
S611 S 0.90171 0.09141 0.12762 0.0
N612 N 0.89799 0.08431 0.03656 0.0
N613 N 0.88706 0.05918 0.16989 0.0
C614 C 0.87813 0.04097 0.10935 0.0
C615 C 0.88412 0.0545 0.03761 0.0
C616 C 1.01881 0.85044 0.09658 0.0
C617 C 0.04921 0.86949 0.10284 0.0
C618 C 1.00527 0.84382 1.02615 0.0
C619 C 1.02193 0.85547 0.96046 0.0
H620 H 1.00539 0.84187 0.14658 0.0
H621 H 0.98162 0.83014 1.02277 0.0
S622 S 0.10229 0.90478 0.94698 0.0
N623 N 0.0957 0.89884 0.03794 0.0
N624 N 0.07009 0.88575 0.90511 0.0
C625 C 0.05241 0.87339 0.96576 0.0
C626 C 0.06612 0.88059 0.0373 0.0
C627 C 0.92036 0.89352 0.10294 0.0
C628 C 0.90442 0.90874 0.1121 0.0
C629 C 0.9274 0.88582 1.03115 0.0
C630 C 0.91959 0.89323 0.96196 0.0
H631 H 0.92806 0.88766 0.15258 0.0
H632 H 0.94018 0.87494 1.03018 0.0
S633 S 0.87691 0.93226 0.95031 0.0
N634 N 0.88032 0.92975 0.04176 0.0
N635 N 0.89363 0.91642 0.90969 0.0
C636 C 0.90316 0.908 0.97026 0.0
C637 C 0.89559 0.91535 0.04351 0.0
C638 C 0.1416 1.01125 0.9753 0.0
C639 C 0.16482 0.04105 0.96528 0.0
C640 C 0.13522 0.99545 0.04525 0.0
C641 C 0.15138 1.00819 0.11185 0.0
H642 H 0.12749 0.99975 0.92818 0.0
H643 H 0.11652 0.97336 0.04761 0.0
S644 S 0.21589 0.08435 0.11959 0.0
N645 N 0.20511 0.0814 1.03136 0.0
N646 N 0.19312 0.05278 0.16041 0.0
C647 C 0.1751 0.03765 0.10243 0.0
C648 C 0.18183 0.0536 1.03081 0.0
C649 C 0.04548 0.13635 0.9942 0.0
C650 C 1.01818 0.13451 0.97538 0.0
C651 C 0.06128 0.14886 0.06311 0.0
C652 C 0.05119 0.16076 0.11951 0.0
H653 H 0.05514 0.12797 0.95466 0.0
H654 H 0.08177 0.14924 0.07188 0.0
S655 S 0.98069 0.16151 0.10209 0.0
N656 N 0.9821 0.14597 1.02273 0.0
N657 N 1.0106 0.16896 0.14916 0.0
C658 C 1.02376 0.15893 0.10144 0.0
C659 C 1.00776 0.14614 1.03121 0.0
C660 C 0.87393 0.50875 0.4215 0.0
C661 C 0.86125 0.52644 0.43079 0.0
C662 C 0.88076 0.50299 0.35029 0.0
C663 C 0.87538 0.51494 0.28635 0.0
H664 H 0.87688 0.49775 0.46903 0.0
H665 H 0.88898 0.48793 0.34457 0.0
S666 S 0.84624 0.56563 0.28076 0.0
N667 N 0.84644 0.55837 0.37093 0.0
N668 N 0.8593 0.54713 0.23581 0.0
C669 C 0.86471 0.53428 0.29474 0.0
C670 C 0.85752 0.54007 0.36747 0.0
C671 C 0.53 0.33919 0.29936 0.0
C672 C 0.54192 0.3696 0.29144 0.0
C673 C 0.52427 0.32643 0.37037 0.0
C674 C 0.52989 0.34366 0.43516 0.0
H675 H 0.52669 0.32548 0.25069 0.0
H676 H 0.51628 0.30311 0.37506 0.0
S677 S 0.55844 0.42365 0.44421 0.0
N678 N 0.55716 0.41629 0.35353 0.0
N679 N 0.54616 0.39195 0.48789 0.0
C680 C 0.5402 0.37373 0.42809 0.0
C681 C 0.54634 0.38683 0.35579 0.0
C682 C 0.73077 0.20757 0.37206 0.0
C683 C 0.71334 0.20383 0.43564 0.0
C684 C 0.7182 0.20002 0.30058 0.0
C685 C 0.68805 0.18895 0.29145 0.0
H686 H 0.75426 0.2169 0.3777 0.0
H687 H 0.73215 0.20414 0.25196 0.0
S688 S 0.63285 0.17376 0.43971 0.0
N689 N 0.66436 0.18746 0.48486 0.0
N690 N 0.64079 0.17285 0.35032 0.0
C691 C 0.67028 0.18398 0.35462 0.0
C692 C 0.68293 0.19156 0.42701 0.0
C693 C 0.59585 0.22137 0.35644 0.0
C694 C 0.58786 0.22783 0.28614 0.0
C695 C 0.5883 0.22931 0.42736 0.0
C696 C 0.57165 0.24391 0.43475 0.0
H697 H 0.60919 0.21111 0.35699 0.0
H698 H 0.59623 0.22419 0.47779 0.0
S699 S 0.54355 0.26506 0.26952 0.0
N700 N 0.561 0.24957 0.23101 0.0
N701 N 0.54686 0.26339 0.36133 0.0
C702 C 0.56269 0.2496 0.36506 0.0
C703 C 0.57074 0.24198 0.29267 0.0
C704 C 0.84979 0.35567 0.33282 0.0
C705 C 0.84204 0.37612 0.30305 0.0
C706 C 0.83654 0.33786 0.39871 0.0
C707 C 0.81428 0.3389 0.44132 0.0
H708 H 0.8666 0.35315 0.30453 0.0
H709 H 0.84411 0.3232 0.41657 0.0
S710 S 0.78491 0.38825 0.3907 0.0
N711 N 0.80972 0.39549 0.32469 0.0
N712 N 0.78529 0.36322 0.44546 0.0
C713 C 0.80626 0.35928 0.41208 0.0
C714 C 0.81977 0.37732 0.34475 0.0
C715 C 0.71447 0.50057 0.2953 0.0
C716 C 0.68374 0.47939 0.2906 0.0
C717 C 0.73154 0.50741 0.36317 0.0
C718 C 0.71935 0.49384 0.43304 0.0
H719 H 0.72568 0.51289 0.24544 0.0
H720 H 0.75431 0.52477 0.36136 0.0
S721 S 0.64029 0.43651 0.45625 0.0
N722 N 0.6426 0.44438 0.36581 0.0
N723 N 0.67355 0.45745 0.49128 0.0
C724 C 0.68876 0.47225 0.42918 0.0
C725 C 0.67147 0.46492 0.35951 0.0
C726 C 0.51505 0.85629 0.64264 0.0
C727 C 0.53346 0.84455 0.63133 0.0
C728 C 0.51029 0.86353 0.71424 0.0
C729 C 0.52379 0.85931 0.77675 0.0
H730 H 0.50294 0.85837 0.59646 0.0
H731 H 0.49491 0.87128 0.72143 0.0
S732 S 0.57714 0.83339 0.77623 0.0
N733 N 0.56791 0.83218 0.6871 0.0
N734 N 0.55836 0.84559 0.82342 0.0
C735 C 0.54377 0.84955 0.76619 0.0
C736 C 0.54865 0.84205 0.69287 0.0
C737 C 0.19166 0.66131 0.71768 0.0
C738 C 0.20199 0.67922 0.7821 0.0
C739 C 0.19586 0.6737 0.6462 0.0
C740 C 0.21062 0.70424 0.63763 0.0
H741 H 0.18103 0.63765 0.72252 0.0
H742 H 0.18909 0.65954 0.59724 0.0
S743 S 0.23906 0.76055 0.78742 0.0
N744 N 0.22576 0.72902 0.8323 0.0
N745 N 0.23314 0.75204 0.69741 0.0
C746 C 0.21946 0.72227 0.70128 0.0
C747 C 0.21523 0.70981 0.77388 0.0
C748 C 0.33978 0.51451 0.68409 0.0
C749 C 0.3581 0.52863 0.622 0.0
C750 C 0.35163 0.51734 0.75591 0.0
C751 C 0.38198 0.53443 0.76697 0.0
H752 H 0.31617 0.50203 0.67733 0.0
H753 H 0.33704 0.50777 0.80355 0.0
S754 S 0.43932 0.57453 0.6234 0.0
N755 N 0.40811 0.55938 0.57644 0.0
N756 N 0.43021 0.56405 0.71141 0.0
C757 C 0.40055 0.54724 0.70507 0.0
C758 C 0.38863 0.54452 0.63237 0.0
C759 C 0.21998 0.57316 0.68277 0.0
C760 C 0.22459 0.57239 0.76171 0.0
C761 C 0.23226 0.56279 0.62603 0.0
C762 C 0.24964 0.55 0.64348 0.0
H763 H 0.20609 0.58155 0.66407 0.0
H764 H 0.22682 0.56359 0.56783 0.0
S765 S 0.26916 0.54202 0.8399 0.0
N766 N 0.24914 0.55777 0.85169 0.0
N767 N 0.27076 0.53772 0.74835 0.0
C768 C 0.25465 0.54931 0.72201 0.0
C769 C 0.24274 0.56055 0.77956 0.0
C770 C 0.47227 0.67583 0.62668 0.0
C771 C 0.49444 0.70614 0.61886 0.0
C772 C 0.46516 0.65985 0.69661 0.0
C773 C 0.47928 0.67298 0.76539 0.0
H774 H 0.45956 0.66415 0.57774 0.0
H775 H 0.4473 0.63729 0.69715 0.0
S776 S 0.53923 0.75136 0.78017 0.0
N777 N 0.53091 0.74782 0.6899 0.0
N778 N 0.51738 0.719 0.81875 0.0
C779 C 0.50178 0.70312 0.75825 0.0
C780 C 0.5094 0.71919 0.6867 0.0
C781 C 0.39577 0.81613 0.70892 0.0
C782 C 0.3847 0.8229 0.77391 0.0
C783 C 0.37962 0.80648 0.63944 0.0
C784 C 0.35102 0.80282 0.62825 0.0
H785 H 0.41671 0.81703 0.71241 0.0
H786 H 0.38981 0.80124 0.59371 0.0
S787 S 0.3124 0.81984 0.77791 0.0
N788 N 0.34303 0.82626 0.81956 0.0
N789 N 0.3138 0.80914 0.69135 0.0
C790 C 0.34019 0.81054 0.69209 0.0
C791 C 0.35651 0.82007 0.76326 0.0
C792 C 0.22175 0.37419 0.38619 0.0
C793 C 0.20695 0.3903 0.3922 0.0
C794 C 0.20762 0.34438 0.36379 0.0
C795 C 0.17717 0.32762 0.34813 0.0
H796 H 0.24488 0.38458 0.39917 0.0
H797 H 0.22125 0.33455 0.3585 0.0
S798 S 0.12693 0.35804 0.35643 0.0
N799 N 0.15925 0.38644 0.37844 0.0
N800 N 0.13242 0.33018 0.34241 0.0
C801 C 0.16173 0.34316 0.35481 0.0
C802 C 0.17646 0.37411 0.37589 0.0
C803 C 0.72053 0.84461 0.4107 0.0
C804 C 0.73289 0.86252 0.34615 0.0
C805 C 0.69012 0.8306 0.42828 0.0
C806 C 0.66989 0.83348 0.38254 0.0
H807 H 0.73456 0.84141 0.44901 0.0
H808 H 0.68258 0.81792 0.47957 0.0
S809 S 0.68946 0.87533 0.20279 0.0
N810 N 0.72125 0.88089 0.23437 0.0
N811 N 0.66465 0.85385 0.26499 0.0
C812 C 0.68167 0.85029 0.31608 0.0
C813 C 0.71275 0.86477 0.29847 0.0
C814 C 0.20392 0.84111 0.32884 0.0
C815 C 0.22502 0.84954 0.38719 0.0
C816 C 0.18957 0.85714 0.31169 0.0
C817 C 0.19524 0.88261 0.35194 0.0
H818 H 0.19799 0.82153 0.29624 0.0
H819 H 0.17328 0.84898 0.26746 0.0
S820 S 0.25033 0.91632 0.50541 0.0
N821 N 0.25187 0.88679 0.4819 0.0
N822 N 0.22527 0.91647 0.45044 0.0
C823 C 0.21666 0.89164 0.40949 0.0
C824 C 0.23129 0.87533 0.4269 0.0
C825 C 0.37997 0.17382 0.64293 0.0
C826 C 0.4 0.1996 0.68205 0.0
C827 C 0.34945 0.15795 0.66059 0.0
C828 C 0.33691 0.16683 0.71842 0.0
H829 H 0.38803 0.16539 0.59907 0.0
H830 H 0.33554 0.13819 0.62875 0.0
S831 S 0.37883 0.23463 0.8329 0.0
N832 N 0.40404 0.2343 0.77835 0.0
N833 N 0.34757 0.20486 0.81089 0.0
C834 C 0.35663 0.19291 0.75687 0.0
C835 C 0.38767 0.20908 0.73888 0.0
C836 C 0.87613 0.18136 0.7575 0.0
C837 C 0.90129 0.18622 0.71682 0.0
C838 C 0.85999 0.19545 0.73887 0.0
C839 C 0.86753 0.21521 0.67754 0.0
H840 H 0.86827 0.16595 0.80371 0.0
H841 H 0.84127 0.19062 0.77382 0.0
S842 S 0.93293 0.23779 0.55498 0.0
N843 N 0.93442 0.21496 0.61549 0.0
N844 N 0.90322 0.23909 0.57724 0.0
C845 C 0.89306 0.22074 0.63723 0.0
C846 C 0.90991 0.20689 0.65732 0.0
C847 C 0.85481 0.70932 0.65068 0.0
C848 C 0.87114 0.72104 0.71805 0.0
C849 C 0.84079 0.67897 0.63158 0.0
C850 C 0.84185 0.65802 0.67871 0.0
H851 H 0.85281 0.72377 0.61122 0.0
H852 H 0.82959 0.67205 0.57813 0.0
S853 S 0.87821 0.67533 0.86626 0.0
N854 N 0.88569 0.70767 0.8339 0.0
N855 N 0.85808 0.6513 0.80107 0.0
C856 C 0.8567 0.66906 0.74814 0.0
C857 C 0.87142 0.70008 0.76701 0.0
C858 C 0.05105 0.5001 0.05526 0.0
C859 C 0.06342 0.52461 1.00624 0.0
C860 C 1.0206 0.48488 0.07519 0.0
C861 C 1.00072 0.49304 0.04628 0.0
H862 H 0.06517 0.49296 0.07982 0.0
H863 H 1.01248 0.46627 0.11277 0.0
S864 S 1.02145 0.5555 0.91593 0.0
N865 N 0.05269 0.55614 0.93033 0.0
N866 N 0.99639 0.52767 0.96562 0.0
C867 C 1.01288 0.51735 0.99693 0.0
C868 C 0.04377 0.53302 0.97771 0.0
C869 C 0.52714 0.54133 0.09568 0.0
C870 C 0.52905 0.554 1.02384 0.0
C871 C 0.54242 0.52626 0.11402 0.0
C872 C 0.56051 0.52261 0.06168 0.0
H873 H 0.51305 0.54235 0.13846 0.0
H874 H 0.5393 0.51661 0.16931 0.0
S875 S 0.57539 0.5523 0.86743 0.0
N876 N 0.55284 0.56265 0.90159 0.0
N877 N 0.58004 0.53369 0.93509 0.0
C878 C 0.56295 0.53522 0.99015 0.0
C879 C 0.54773 0.55091 0.97158 0.0
C880 C 0.54552 0.03641 0.08823 0.0
C881 C 0.54058 0.05609 0.04555 0.0
C882 C 0.53057 1.00566 0.07332 0.0
C883 C 0.50966 0.99245 1.01474 0.0
H884 H 0.56162 0.0449 0.13286 0.0
H885 H 0.53586 0.99211 0.10786 0.0
S886 S 0.48589 0.03318 0.89078 0.0
N887 N 0.5111 0.05904 0.94488 0.0
N888 N 0.48368 1.00213 0.91715 0.0
C889 C 0.50411 1.01179 0.97255 0.0
C890 C 0.51924 0.0431 0.98785 0.0
C891 C 0.1593 0.16538 0.52913 0.0
C892 C 0.13207 0.14814 0.49181 0.0
C893 C 0.17009 0.15397 0.58531 0.0
C894 C 0.1542 0.12456 0.61134 0.0
H895 H 0.17309 0.18821 0.51355 0.0
H896 H 0.19152 0.16869 0.60896 0.0
S897 S 0.08098 0.06922 0.536 0.0
N898 N 0.08921 0.09909 0.48729 0.0
N899 N 0.10873 0.07829 0.59396 0.0
C900 C 0.12651 0.10699 0.57615 0.0
C901 C 0.11577 0.11849 0.51676 0.0
C902 C 0.90946 0.03251 0.57316 0.0
C903 C 0.93686 0.04247 0.60916 0.0
C904 C 0.899 1.01172 0.51292 0.0
C905 C 0.91543 0.99976 0.48098 0.0
H906 H 0.89545 0.04076 0.59242 0.0
H907 H 0.87749 1.00511 0.49036 0.0
S908 S 0.9893 1.01821 0.55096 0.0
N909 N 0.98048 0.03793 0.60616 0.0
N910 N 0.96153 1.00017 0.49234 0.0
C911 C 0.9432 1.0097 0.51539 0.0
C912 C 0.95362 0.03047 0.5789 0.0
C913 C 0.04357 0.8971 0.504 0.0
C914 C 0.05606 0.92575 0.47334 0.0
C915 C 1.02218 0.88649 0.56279 0.0
C916 C 1.01201 0.90386 0.59843 0.0
H917 H 0.05027 0.88223 0.48164 0.0
H918 H 1.01366 0.86407 0.58125 0.0
S919 S 0.03759 0.98122 0.54333 0.0
N920 N 0.05602 0.97166 0.48556 0.0
N921 N 1.01707 0.9523 0.59672 0.0
C922 C 1.02453 0.93288 0.56945 0.0
C923 C 0.04598 0.94355 0.50742 0.0
C924 C 0.86212 0.82153 0.56134 0.0
C925 C 0.85497 0.83745 0.61261 0.0
C926 C 0.85854 0.82381 0.4843 0.0
C927 C 0.84756 0.84167 0.45972 0.0
H928 H 0.87643 0.81343 0.57834 0.0
H929 H 0.87061 0.81789 0.44556 0.0
S930 S 0.80588 0.86666 0.57527 0.0
N931 N 0.82281 0.85687 0.6365 0.0
N932 N 0.81371 0.85873 0.49156 0.0
C933 C 0.83019 0.84669 0.51115 0.0
C934 C 0.83486 0.84555 0.58919 0.0
C935 C 0.23231 0.04665 0.48881 0.0
C936 C 0.21432 1.01753 0.46492 0.0
C937 C 0.23442 0.05312 0.5656 0.0
C938 C 0.21816 0.03038 0.61746 0.0
H939 H 0.23861 0.06443 0.44929 0.0
H940 H 0.24281 0.07578 0.58168 0.0
S941 S 0.18779 0.95134 0.58295 0.0
N942 N 0.19629 0.96657 0.49881 0.0
N943 N 0.19774 0.97867 0.64318 0.0
C944 C 0.20957 1.00179 0.59516 0.0
C945 C 0.20866 0.99537 0.51742 0.0
C946 C 1.0303 0.20922 0.62684 0.0
C947 C 0.04814 0.20326 0.67368 0.0
C948 C 0.03845 0.21665 0.55184 0.0
C949 C 0.06512 0.22002 0.52598 0.0
H950 H 1.00752 0.20106 0.64147 0.0
H951 H 1.02187 0.21417 0.512 0.0
S952 S 0.12631 0.22793 0.64486 0.0
N953 N 0.09799 0.2163 0.70244 0.0
N954 N 0.11463 0.2322 0.56256 0.0
C955 C 0.08664 0.22484 0.57996 0.0
C956 C 0.07788 0.21658 0.65553 0.0
C957 C 0.78612 0.4504 0.82945 0.0
C958 C 0.80099 0.48073 0.80949 0.0
C959 C 0.79624 0.43881 0.88843 0.0
C960 C 0.82236 0.45659 0.93035 0.0
H961 H 0.76633 0.43534 0.79938 0.0
H962 H 0.78382 0.41546 0.89973 0.0
S963 S 0.87004 0.53717 0.90257 0.0
N964 N 0.84355 0.52796 0.84075 0.0
N965 N 0.86249 0.50646 0.94551 0.0
C966 C 0.8373 0.4867 0.91048 0.0
C967 C 0.82674 0.49856 0.85243 0.0
C968 C 0.61642 0.36865 0.89774 0.0
C969 C 0.60235 0.38508 0.91497 0.0
C970 C 0.60651 0.34683 0.83839 0.0
C971 C 0.5815 0.33952 0.79299 0.0
H972 H 0.63531 0.37259 0.93052 0.0
H973 H 0.61807 0.33495 0.82974 0.0
S974 S 0.53614 0.37502 0.81309 0.0
N975 N 0.56168 0.39156 0.8778 0.0
N976 N 0.54321 0.35116 0.77198 0.0
C977 C 0.56743 0.35571 0.81008 0.0
C978 C 0.57771 0.3781 0.86874 0.0
C979 C 0.69183 0.26279 0.88396 0.0
C980 C 0.68562 0.23913 0.93349 0.0
C981 C 0.71436 0.2729 0.82646 0.0
C982 C 0.73248 0.26027 0.81494 0.0
H983 H 0.67853 0.27305 0.88785 0.0
H984 H 0.71729 0.29059 0.79007 0.0
S985 S 0.72618 0.19834 0.93056 0.0
N986 N 0.70044 0.20398 0.96565 0.0
N987 N 0.74196 0.22268 0.8628 0.0
C988 C 0.72664 0.23707 0.86557 0.0
C989 C 0.70366 0.22667 0.92265 0.0
C990 C 0.53617 0.15918 0.87822 0.0
C991 C 0.5274 0.17328 0.93106 0.0
C992 C 0.53251 0.16199 0.80152 0.0
C993 C 0.51989 0.17861 0.77876 0.0
H994 H 0.55151 0.15224 0.89424 0.0
H995 H 0.54553 0.15762 0.76201 0.0
S996 S 0.4747 0.19831 0.89743 0.0
N997 N 0.49284 0.18952 0.95739 0.0
N998 N 0.48355 0.19216 0.81287 0.0
C999 C 0.50147 0.18164 0.83103 0.0
C1000 C 0.50624 0.18007 0.90881 0.0
C1001 C 0.89504 0.36401 0.92707 0.0
C1002 C 0.87143 0.34562 0.97459 0.0
C1003 C 0.89932 0.35287 0.86001 0.0
C1004 C 0.87858 0.32401 0.83871 0.0
H1005 H 0.90688 0.38761 0.93492 0.0
H1006 H 0.91419 0.36842 0.81907 0.0
S1007 S 0.83116 0.2646 0.97055 0.0
N1008 N 0.83927 0.29538 1.01498 0.0
N1009 N 0.8497 0.27458 0.89057 0.0
C1010 C 0.86384 0.30426 0.89801 0.0
C1011 C 0.85851 0.31531 0.96524 0.0
C1012 C 0.67326 0.53648 0.87579 0.0
C1013 C 0.69121 0.54137 0.93879 0.0
C1014 C 0.68556 0.54081 0.80412 0.0
C1015 C 0.71555 0.55025 0.79663 0.0
H1016 H 0.6496 0.52338 0.88036 0.0
H1017 H 0.67095 0.53107 0.75668 0.0
S1018 S 0.77178 0.58806 0.94443 0.0
N1019 N 0.74001 0.57223 0.98941 0.0
N1020 N 0.76366 0.58089 0.85447 0.0
C1021 C 0.73388 0.56549 0.85781 0.0
C1022 C 0.72125 0.5611 0.93039 0.0
C1023 C 0.5076 0.81458 0.21568 0.0
C1024 C 0.49086 0.78665 0.25031 0.0
C1025 C 0.49603 0.82554 0.16041 0.0
C1026 C 0.46694 0.8092 0.1326 0.0
H1027 H 0.5302 0.82879 0.23258 0.0
H1028 H 0.51042 0.84741 0.13872 0.0
S1029 S 0.41284 0.73421 0.20077 0.0
N1030 N 0.44254 0.74271 0.25052 0.0
N1031 N 0.42146 0.76258 0.1454 0.0
C1032 C 0.44984 0.78087 0.16514 0.0
C1033 C 0.4615 0.76991 0.22368 0.0
C1034 C 0.23623 0.693 0.25207 0.0
C1035 C 0.26582 0.7073 0.27692 0.0
C1036 C 0.22478 0.67042 0.19607 0.0
C1037 C 0.24213 0.66081 0.15781 0.0
H1038 H 0.22141 0.69936 0.2765 0.0
H1039 H 0.20184 0.66081 0.18133 0.0
S1040 S 0.32158 0.69096 0.19817 0.0
N1041 N 0.3124 0.70938 0.257 0.0
N1042 N 0.29154 0.66844 0.15079 0.0
C1043 C 0.27196 0.67502 0.18149 0.0
C1044 C 0.28351 0.69762 0.24063 0.0
C1045 C 0.34843 0.55085 0.21048 0.0
C1046 C 0.33825 0.5683 0.24576 0.0
C1047 C 0.37081 0.56177 0.154 0.0
C1048 C 0.38424 0.5908 0.12548 0.0
H1049 H 0.3394 0.52824 0.22786 0.0
H1050 H 0.37763 0.54695 0.13194 0.0
S1051 S 0.36598 0.64649 0.19482 0.0
N1052 N 0.34435 0.61717 0.24577 0.0
N1053 N 0.38479 0.63696 0.13834 0.0
C1054 C 0.37395 0.60855 0.15865 0.0
C1055 C 0.35162 0.59761 0.21844 0.0
C1056 C 0.1857 0.47764 0.20947 0.0
C1057 C 0.18076 0.49143 0.27121 0.0
C1058 C 0.17816 0.48195 0.13743 0.0
C1059 C 0.16715 0.50114 0.12815 0.0
H1060 H 0.19978 0.46832 0.21402 0.0
H1061 H 0.18683 0.47583 0.08995 0.0
S1062 S 0.12512 0.51447 0.27456 0.0
N1063 N 0.14559 0.50428 0.32107 0.0
N1064 N 0.13203 0.51293 0.18452 0.0
C1065 C 0.15146 0.50329 0.18948 0.0
C1066 C 0.15864 0.49856 0.26277 0.0
C1067 C 0.57044 0.74403 0.15171 0.0
C1068 C 0.56824 0.7242 0.20804 0.0
C1069 C 0.56059 0.7337 0.07913 0.0
C1070 C 0.54804 0.70363 0.06409 0.0
H1071 H 0.57418 0.76562 0.16569 0.0
H1072 H 0.55617 0.74725 0.04199 0.0
S1073 S 0.56012 0.65132 0.17401 0.0
N1074 N 0.56975 0.67957 0.23091 0.0
N1075 N 0.55106 0.66022 0.09366 0.0
C1076 C 0.55663 0.68773 0.1102 0.0
C1077 C 0.56644 0.69799 0.18419 0.0
C1078 C 0.39101 0.88565 0.25696 0.0
C1079 C 0.36174 0.8679 0.27982 0.0
C1080 C 0.39765 0.88974 0.18025 0.0
C1081 C 0.37495 0.87492 0.12738 0.0
H1082 H 0.40859 0.89059 0.2961 0.0
H1083 H 0.42025 0.89799 0.16386 0.0
S1084 S 0.29611 0.84518 0.16198 0.0
N1085 N 0.31102 0.8513 0.24639 0.0
N1086 N 0.32359 0.85632 0.10177 0.0
C1087 C 0.34652 0.86664 0.15019 0.0
C1088 C 0.33984 0.86375 0.22805 0.0
loop_
_geom_bond_atom_site_label_1
_geom_bond_atom_site_label_2
_geom_bond_distance
_geom_bond_site_symmetry_2
_ccdc_geom_bond_type
Co0 N4 2.148 . S
Co0 N10 2.128 . S
Co0 N20 2.194 . S
Co0 O25 2.351 . S
Co0 O26 2.155 . S
Co0 O27 2.096 . S
C1 N4 1.301 . S
C1 N5 1.328 . S
C1 H6 0.930 . S
C2 C3 1.333 . S
C2 N4 1.317 . S
C2 H7 0.930 . S
C3 C2 1.333 . S
C3 N5 1.350 . S
C3 H29 0.931 1_455 S
N4 Co0 2.148 . S
N4 C1 1.301 . S
N4 C2 1.317 . S
N5 C1 1.328 . S
N5 C3 1.350 . S
H6 C1 0.930 . S
H7 C2 0.930 . S
C8 O9 1.224 . S
C8 O27 1.247 . S
O9 C8 1.224 . S
N10 Co0 2.128 . S
N10 C11 1.355 . S
N10 C13 1.311 . S
C11 N10 1.355 . S
C11 C12 1.363 . S
C11 H23 0.929 . S
C12 C11 1.363 . S
C12 N14 1.375 . S
C12 H30 0.931 . S
C13 N10 1.311 . S
C13 N14 1.347 . S
C13 H24 0.929 . S
N14 C12 1.375 . S
N14 C13 1.347 . S
C15 C18 1.365 . S
C15 N20 1.328 . S
C15 H21 0.929 . S
C16 C17 1.362 . S
C16 C19 1.378 . S
C16 H31 0.929 . S
C17 C16 1.362 . S
C17 C18 1.366 . S
C18 C15 1.365 . S
C18 C17 1.366 . S
C18 H32 0.930 . S
C19 C16 1.378 . S
C19 N20 1.315 . S
C19 H22 0.930 . S
N20 Co0 2.194 . S
N20 C15 1.328 . S
N20 C19 1.315 . S
H21 C15 0.929 . S
H22 C19 0.930 . S
H23 C11 0.929 . S
H24 C13 0.929 . S
O25 Co0 2.351 . S
O25 C28 1.244 . S
O26 Co0 2.155 . S
O26 C28 1.240 . S
O27 Co0 2.096 . S
O27 C8 1.247 . S
C28 O25 1.244 . S
C28 O26 1.240 . S
H29 C3 0.931 1_655 S
H30 C12 0.931 . S
H31 C16 0.929 . S
H32 C18 0.930 . S
Co33 N37 2.148 . S
Co33 N43 2.128 . S
Co33 N53 2.194 . S
Co33 O58 2.351 . S
Co33 O59 2.155 . S
Co33 O60 2.096 . S
C34 N37 1.301 . S
C34 N38 1.328 . S
C34 H39 0.930 . S
C35 C36 1.333 . S
C35 N37 1.317 . S
C35 H40 0.930 . S
C36 C35 1.333 . S
C36 N38 1.350 . S
C36 H62 0.931 . S
N37 Co33 2.148 . S
N37 C34 1.301 . S
N37 C35 1.317 . S
N38 C34 1.328 . S
N38 C36 1.350 . S
H39 C34 0.930 . S
H40 C35 0.930 . S
C41 O42 1.224 . S
C41 O60 1.247 . S
O42 C41 1.224 . S
N43 Co33 2.128 . S
N43 C44 1.355 . S
N43 C46 1.311 . S
C44 N43 1.355 . S
C44 C45 1.363 . S
C44 H56 0.929 . S
C45 C44 1.363 . S
C45 N47 1.375 . S
C45 H63 0.931 . S
C46 N43 1.311 . S
C46 N47 1.347 . S
C46 H57 0.929 . S
N47 C45 1.375 . S
N47 C46 1.347 . S
C48 C51 1.365 . S
C48 N53 1.328 . S
C48 H54 0.929 . S
C49 C50 1.362 . S
C49 C52 1.378 . S
C49 H64 0.929 . S
C50 C49 1.362 . S
C50 C51 1.366 . S
C51 C48 1.365 . S
C51 C50 1.366 . S
C51 H65 0.930 . S
C52 C49 1.378 . S
C52 N53 1.315 . S
C52 H55 0.930 . S
N53 Co33 2.194 . S
N53 C48 1.328 . S
N53 C52 1.315 . S
H54 C48 0.929 . S
H55 C52 0.930 . S
H56 C44 0.929 . S
H57 C46 0.929 . S
O58 Co33 2.351 . S
O58 C61 1.244 . S
O59 Co33 2.155 . S
O59 C61 1.240 . S
O60 Co33 2.096 . S
O60 C41 1.247 . S
C61 O58 1.244 . S
C61 O59 1.240 . S
H62 C36 0.931 . S
H63 C45 0.931 . S
H64 C49 0.929 . S
H65 C51 0.930 . S
Co66 N70 2.148 . S
Co66 N76 2.128 . S
Co66 N86 2.194 . S
Co66 O91 2.351 . S
Co66 O92 2.155 . S
Co66 O93 2.096 . S
C67 N70 1.301 . S
C67 N71 1.328 . S
C67 H72 0.930 . S
C68 C69 1.333 . S
C68 N70 1.317 . S
C68 H73 0.930 . S
C69 C68 1.333 . S
C69 N71 1.350 . S
C69 H95 0.931 1_565 S
N70 Co66 2.148 . S
N70 C67 1.301 . S
N70 C68 1.317 . S
N71 C67 1.328 . S
N71 C69 1.350 . S
H72 C67 0.930 . S
H73 C68 0.930 . S
C74 O75 1.224 . S
C74 O93 1.247 . S
O75 C74 1.224 . S
N76 Co66 2.128 . S
N76 C77 1.355 . S
N76 C79 1.311 . S
C77 N76 1.355 . S
C77 C78 1.363 . S
C77 H89 0.929 . S
C78 C77 1.363 . S
C78 N80 1.375 . S
C78 H96 0.931 . S
C79 N76 1.311 . S
C79 N80 1.347 . S
C79 H90 0.929 . S
N80 C78 1.375 . S
N80 C79 1.347 . S
C81 C84 1.365 . S
C81 N86 1.328 . S
C81 H87 0.929 . S
C82 C83 1.362 . S
C82 C85 1.378 . S
C82 H97 0.929 . S
C83 C82 1.362 . S
C83 C84 1.366 . S
C84 C81 1.365 . S
C84 C83 1.366 . S
C84 H98 0.930 . S
C85 C82 1.378 . S
C85 N86 1.315 . S
C85 H88 0.930 . S
N86 Co66 2.194 . S
N86 C81 1.328 . S
N86 C85 1.315 . S
H87 C81 0.929 . S
H88 C85 0.930 . S
H89 C77 0.929 . S
H90 C79 0.929 . S
O91 Co66 2.351 . S
O91 C94 1.244 . S
O92 Co66 2.155 . S
O92 C94 1.240 . S
O93 Co66 2.096 . S
O93 C74 1.247 . S
C94 O91 1.244 . S
C94 O92 1.240 . S
H95 C69 0.931 1_545 S
H96 C78 0.931 . S
H97 C82 0.929 . S
H98 C84 0.930 . S
Co99 N103 2.148 . S
Co99 N109 2.128 . S
Co99 N119 2.194 . S
Co99 O124 2.351 . S
Co99 O125 2.155 . S
Co99 O126 2.096 . S
C100 N103 1.301 . S
C100 N104 1.328 . S
C100 H105 0.930 . S
C101 C102 1.333 . S
C101 N103 1.317 . S
C101 H106 0.930 . S
C102 C101 1.333 . S
C102 N104 1.350 . S
C102 H128 0.931 1_545 S
N103 Co99 2.148 . S
N103 C100 1.301 . S
N103 C101 1.317 . S
N104 C100 1.328 . S
N104 C102 1.350 . S
H105 C100 0.930 . S
H106 C101 0.930 . S
C107 O108 1.224 . S
C107 O126 1.247 . S
O108 C107 1.224 . S
N109 Co99 2.128 . S
N109 C110 1.355 . S
N109 C112 1.311 . S
C110 N109 1.355 . S
C110 C111 1.363 . S
C110 H122 0.929 . S
C111 C110 1.363 . S
C111 N113 1.375 . S
C111 H129 0.931 . S
C112 N109 1.311 . S
C112 N113 1.347 . S
C112 H123 0.929 . S
N113 C111 1.375 . S
N113 C112 1.347 . S
C114 C117 1.365 . S
C114 N119 1.328 . S
C114 H120 0.929 . S
C115 C116 1.362 . S
C115 C118 1.378 . S
C115 H130 0.929 . S
C116 C115 1.362 . S
C116 C117 1.366 . S
C117 C114 1.365 . S
C117 C116 1.366 . S
C117 H131 0.930 . S
C118 C115 1.378 . S
C118 N119 1.315 . S
C118 H121 0.930 . S
N119 Co99 2.194 . S
N119 C114 1.328 . S
N119 C118 1.315 . S
H120 C114 0.929 . S
H121 C118 0.930 . S
H122 C110 0.929 . S
H123 C112 0.929 . S
O124 Co99 2.351 . S
O124 C127 1.244 . S
O125 Co99 2.155 . S
O125 C127 1.240 . S
O126 Co99 2.096 . S
O126 C107 1.247 . S
C127 O124 1.244 . S
C127 O125 1.240 . S
H128 C102 0.931 1_565 S
H129 C111 0.931 . S
H130 C115 0.929 . S
H131 C117 0.930 . S
Co132 N136 2.148 . S
Co132 N142 2.128 . S
Co132 N152 2.194 . S
Co132 O157 2.351 . S
Co132 O158 2.155 . S
Co132 O159 2.096 . S
C133 N136 1.301 . S
C133 N137 1.328 . S
C133 H138 0.930 . S
C134 C135 1.333 . S
C134 N136 1.317 . S
C134 H139 0.930 . S
C135 C134 1.333 . S
C135 N137 1.350 . S
C135 H161 0.931 1_655 S
N136 Co132 2.148 . S
N136 C133 1.301 . S
N136 C134 1.317 . S
N137 C133 1.328 . S
N137 C135 1.350 . S
H138 C133 0.930 . S
H139 C134 0.930 . S
C140 O141 1.224 . S
C140 O159 1.247 . S
O141 C140 1.224 . S
N142 Co132 2.128 . S
N142 C143 1.355 . S
N142 C145 1.311 . S
C143 N142 1.355 . S
C143 C144 1.363 . S
C143 H155 0.929 . S
C144 C143 1.363 . S
C144 N146 1.375 . S
C144 H162 0.931 . S
C145 N142 1.311 . S
C145 N146 1.347 . S
C145 H156 0.929 . S
N146 C144 1.375 . S
N146 C145 1.347 . S
C147 C150 1.365 . S
C147 N152 1.328 . S
C147 H153 0.929 . S
C148 C149 1.362 . S
C148 C151 1.378 . S
C148 H163 0.929 . S
C149 C148 1.362 . S
C149 C150 1.366 . S
C150 C147 1.365 . S
C150 C149 1.366 . S
C150 H164 0.930 . S
C151 C148 1.378 . S
C151 N152 1.315 . S
C151 H154 0.930 . S
N152 Co132 2.194 . S
N152 C147 1.328 . S
N152 C151 1.315 . S
H153 C147 0.929 . S
H154 C151 0.930 . S
H155 C143 0.929 . S
H156 C145 0.929 . S
O157 Co132 2.351 . S
O157 C160 1.244 . S
O158 Co132 2.155 . S
O158 C160 1.240 . S
O159 Co132 2.096 . S
O159 C140 1.247 . S
C160 O157 1.244 . S
C160 O158 1.240 . S
H161 C135 0.931 1_455 S
H162 C144 0.931 . S
H163 C148 0.929 . S
H164 C150 0.930 . S
Co165 N169 2.148 . S
Co165 N175 2.128 . S
Co165 N185 2.194 . S
Co165 O190 2.351 . S
Co165 O191 2.155 . S
Co165 O192 2.096 . S
C166 N169 1.301 . S
C166 N170 1.328 . S
C166 H171 0.930 . S
C167 C168 1.333 . S
C167 N169 1.317 . S
C167 H172 0.930 . S
C168 C167 1.333 . S
C168 N170 1.350 . S
C168 H194 0.931 . S
N169 Co165 2.148 . S
N169 C166 1.301 . S
N169 C167 1.317 . S
N170 C166 1.328 . S
N170 C168 1.350 . S
H171 C166 0.930 . S
H172 C167 0.930 . S
C173 O174 1.224 . S
C173 O192 1.247 . S
O174 C173 1.224 . S
N175 Co165 2.128 . S
N175 C176 1.355 . S
N175 C178 1.311 . S
C176 N175 1.355 . S
C176 C177 1.363 . S
C176 H188 0.929 . S
C177 C176 1.363 . S
C177 N179 1.375 . S
C177 H195 0.931 . S
C178 N175 1.311 . S
C178 N179 1.347 . S
C178 H189 0.929 . S
N179 C177 1.375 . S
N179 C178 1.347 . S
C180 C183 1.365 . S
C180 N185 1.328 . S
C180 H186 0.929 . S
C181 C182 1.362 . S
C181 C184 1.378 . S
C181 H196 0.929 . S
C182 C181 1.362 . S
C182 C183 1.366 . S
C183 C180 1.365 . S
C183 C182 1.366 . S
C183 H197 0.930 . S
C184 C181 1.378 . S
C184 N185 1.315 . S
C184 H187 0.930 . S
N185 Co165 2.194 . S
N185 C180 1.328 . S
N185 C184 1.315 . S
H186 C180 0.929 . S
H187 C184 0.930 . S
H188 C176 0.929 . S
H189 C178 0.929 . S
O190 Co165 2.351 . S
O190 C193 1.244 . S
O191 Co165 2.155 . S
O191 C193 1.240 . S
O192 Co165 2.096 . S
O192 C173 1.247 . S
C193 O190 1.244 . S
C193 O191 1.240 . S
H194 C168 0.931 . S
H195 C177 0.931 . S
H196 C181 0.929 . S
H197 C183 0.930 . S
Co198 N202 2.148 . S
Co198 N208 2.128 . S
Co198 N218 2.194 . S
Co198 O223 2.351 . S
Co198 O224 2.155 . S
Co198 O225 2.096 . S
C199 N202 1.301 . S
C199 N203 1.328 . S
C199 H204 0.930 . S
C200 C201 1.333 . S
C200 N202 1.317 . S
C200 H205 0.930 . S
C201 C200 1.333 . S
C201 N203 1.350 . S
C201 H227 0.931 . S
N202 Co198 2.148 . S
N202 C199 1.301 . S
N202 C200 1.317 . S
N203 C199 1.328 . S
N203 C201 1.350 . S
H204 C199 0.930 . S
H205 C200 0.930 . S
C206 O207 1.224 . S
C206 O225 1.247 . S
O207 C206 1.224 . S
N208 Co198 2.128 . S
N208 C209 1.355 . S
N208 C211 1.311 . S
C209 N208 1.355 . S
C209 C210 1.363 . S
C209 H221 0.929 . S
C210 C209 1.363 . S
C210 N212 1.375 . S
C210 H228 0.931 . S
C211 N208 1.311 . S
C211 N212 1.347 . S
C211 H222 0.929 . S
N212 C210 1.375 . S
N212 C211 1.347 . S
C213 C216 1.365 . S
C213 N218 1.328 . S
C213 H219 0.929 . S
C214 C215 1.362 . S
C214 C217 1.378 . S
C214 H229 0.929 . S
C215 C214 1.362 . S
C215 C216 1.366 . S
C216 C213 1.365 . S
C216 C215 1.366 . S
C216 H230 0.930 . S
C217 C214 1.378 . S
C217 N218 1.315 . S
C217 H220 0.930 . S
N218 Co198 2.194 . S
N218 C213 1.328 . S
N218 C217 1.315 . S
H219 C213 0.929 . S
H220 C217 0.930 . S
H221 C209 0.929 . S
H222 C211 0.929 . S
O223 Co198 2.351 . S
O223 C226 1.244 . S
O224 Co198 2.155 . S
O224 C226 1.240 . S
O225 Co198 2.096 . S
O225 C206 1.247 . S
C226 O223 1.244 . S
C226 O224 1.240 . S
H227 C201 0.931 . S
H228 C210 0.931 . S
H229 C214 0.929 . S
H230 C216 0.930 . S
Co231 N235 2.148 . S
Co231 N241 2.128 . S
Co231 N251 2.194 . S
Co231 O256 2.351 . S
Co231 O257 2.155 . S
Co231 O258 2.096 . S
C232 N235 1.301 . S
C232 N236 1.328 . S
C232 H237 0.930 . S
C233 C234 1.333 . S
C233 N235 1.317 . S
C233 H238 0.930 . S
C234 C233 1.333 . S
C234 N236 1.350 . S
C234 H260 0.931 . S
N235 Co231 2.148 . S
N235 C232 1.301 . S
N235 C233 1.317 . S
N236 C232 1.328 . S
N236 C234 1.350 . S
H237 C232 0.930 . S
H238 C233 0.930 . S
C239 O240 1.224 . S
C239 O258 1.247 . S
O240 C239 1.224 . S
N241 Co231 2.128 . S
N241 C242 1.355 . S
N241 C244 1.311 . S
C242 N241 1.355 . S
C242 C243 1.363 . S
C242 H254 0.929 . S
C243 C242 1.363 . S
C243 N245 1.375 . S
C243 H261 0.931 . S
C244 N241 1.311 . S
C244 N245 1.347 . S
C244 H255 0.929 . S
N245 C243 1.375 . S
N245 C244 1.347 . S
C246 C249 1.365 . S
C246 N251 1.328 . S
C246 H252 0.929 . S
C247 C248 1.362 . S
C247 C250 1.378 . S
C247 H262 0.929 . S
C248 C247 1.362 . S
C248 C249 1.366 . S
C249 C246 1.365 . S
C249 C248 1.366 . S
C249 H263 0.930 . S
C250 C247 1.378 . S
C250 N251 1.315 . S
C250 H253 0.930 . S
N251 Co231 2.194 . S
N251 C246 1.328 . S
N251 C250 1.315 . S
H252 C246 0.929 . S
H253 C250 0.930 . S
H254 C242 0.929 . S
H255 C244 0.929 . S
O256 Co231 2.351 . S
O256 C259 1.244 . S
O257 Co231 2.155 . S
O257 C259 1.240 . S
O258 Co231 2.096 . S
O258 C239 1.247 . S
C259 O256 1.244 . S
C259 O257 1.240 . S
H260 C234 0.931 . S
H261 C243 0.931 . S
H262 C247 0.929 . S
H263 C249 0.930 . S
Co264 N268 2.148 . S
Co264 N274 2.128 . S
Co264 N284 2.194 . S
Co264 O289 2.351 . S
Co264 O290 2.155 . S
Co264 O291 2.096 . S
C265 N268 1.301 . S
C265 N269 1.328 . S
C265 H270 0.930 . S
C266 C267 1.333 . S
C266 N268 1.317 . S
C266 H271 0.930 . S
C267 C266 1.333 . S
C267 N269 1.350 . S
C267 H293 0.931 . S
N268 Co264 2.148 . S
N268 C265 1.301 . S
N268 C266 1.317 . S
N269 C265 1.328 . S
N269 C267 1.350 . S
H270 C265 0.930 . S
H271 C266 0.930 . S
C272 O273 1.224 . S
C272 O291 1.247 . S
O273 C272 1.224 . S
N274 Co264 2.128 . S
N274 C275 1.355 . S
N274 C277 1.311 . S
C275 N274 1.355 . S
C275 C276 1.363 . S
C275 H287 0.929 . S
C276 C275 1.363 . S
C276 N278 1.375 . S
C276 H294 0.931 . S
C277 N274 1.311 . S
C277 N278 1.347 . S
C277 H288 0.929 . S
N278 C276 1.375 . S
N278 C277 1.347 . S
C279 C282 1.365 . S
C279 N284 1.328 . S
C279 H285 0.929 . S
C280 C281 1.362 . S
C280 C283 1.378 . S
C280 H295 0.929 . S
C281 C280 1.362 . S
C281 C282 1.366 . S
C282 C279 1.365 . S
C282 C281 1.366 . S
C282 H296 0.930 . S
C283 C280 1.378 . S
C283 N284 1.315 . S
C283 H286 0.930 . S
N284 Co264 2.194 . S
N284 C279 1.328 . S
N284 C283 1.315 . S
H285 C279 0.929 . S
H286 C283 0.930 . S
H287 C275 0.929 . S
H288 C277 0.929 . S
O289 Co264 2.351 . S
O289 C292 1.244 . S
O290 Co264 2.155 . S
O290 C292 1.240 . S
O291 Co264 2.096 . S
O291 C272 1.247 . S
C292 O289 1.244 . S
C292 O290 1.240 . S
H293 C267 0.931 . S
H294 C276 0.931 . S
H295 C280 0.929 . S
H296 C282 0.930 . S
Co297 N301 2.148 . S
Co297 N307 2.128 . S
Co297 N317 2.194 . S
Co297 O322 2.351 1_554 S
Co297 O323 2.155 . S
Co297 O324 2.096 . S
C298 N301 1.301 1_556 S
C298 N302 1.328 . S
C298 H303 0.930 . S
C299 C300 1.333 1_554 S
C299 N301 1.317 . S
C299 H304 0.930 . S
C300 C299 1.333 1_556 S
C300 N302 1.350 . S
C300 H326 0.931 . S
N301 Co297 2.148 . S
N301 C298 1.301 1_554 S
N301 C299 1.317 . S
N302 C298 1.328 . S
N302 C300 1.350 . S
H303 C298 0.930 . S
H304 C299 0.930 . S
C305 O306 1.224 . S
C305 O324 1.247 . S
O306 C305 1.224 . S
N307 Co297 2.128 . S
N307 C308 1.355 . S
N307 C310 1.311 . S
C308 N307 1.355 . S
C308 C309 1.363 . S
C308 H320 0.929 . S
C309 C308 1.363 . S
C309 N311 1.375 . S
C309 H327 0.931 . S
C310 N307 1.311 . S
C310 N311 1.347 . S
C310 H321 0.929 . S
N311 C309 1.375 . S
N311 C310 1.347 . S
C312 C315 1.365 . S
C312 N317 1.328 . S
C312 H318 0.929 1_554 S
C313 C314 1.362 . S
C313 C316 1.378 . S
C313 H328 0.929 . S
C314 C313 1.362 . S
C314 C315 1.366 . S
C315 C312 1.365 . S
C315 C314 1.366 . S
C315 H329 0.930 1_554 S
C316 C313 1.378 . S
C316 N317 1.315 . S
C316 H319 0.930 . S
N317 Co297 2.194 . S
N317 C312 1.328 . S
N317 C316 1.315 . S
H318 C312 0.929 1_556 S
H319 C316 0.930 . S
H320 C308 0.929 . S
H321 C310 0.929 . S
O322 Co297 2.351 1_556 S
O322 C325 1.244 . S
O323 Co297 2.155 . S
O323 C325 1.240 1_554 S
O324 Co297 2.096 . S
O324 C305 1.247 . S
C325 O322 1.244 . S
C325 O323 1.240 1_556 S
H326 C300 0.931 . S
H327 C309 0.931 . S
H328 C313 0.929 . S
H329 C315 0.930 1_556 S
Co330 N334 2.148 . S
Co330 N340 2.128 . S
Co330 N350 2.194 . S
Co330 O355 2.351 1_554 S
Co330 O356 2.155 . S
Co330 O357 2.096 . S
C331 N334 1.301 1_556 S
C331 N335 1.328 . S
C331 H336 0.930 . S
C332 C333 1.333 1_554 S
C332 N334 1.317 . S
C332 H337 0.930 . S
C333 C332 1.333 1_556 S
C333 N335 1.350 . S
C333 H359 0.931 . S
N334 Co330 2.148 . S
N334 C331 1.301 1_554 S
N334 C332 1.317 . S
N335 C331 1.328 . S
N335 C333 1.350 . S
H336 C331 0.930 . S
H337 C332 0.930 . S
C338 O339 1.224 . S
C338 O357 1.247 . S
O339 C338 1.224 . S
N340 Co330 2.128 . S
N340 C341 1.355 . S
N340 C343 1.311 . S
C341 N340 1.355 . S
C341 C342 1.363 . S
C341 H353 0.929 . S
C342 C341 1.363 . S
C342 N344 1.375 . S
C342 H360 0.931 . S
C343 N340 1.311 . S
C343 N344 1.347 . S
C343 H354 0.929 . S
N344 C342 1.375 . S
N344 C343 1.347 . S
C345 C348 1.365 . S
C345 N350 1.328 . S
C345 H351 0.929 1_554 S
C346 C347 1.362 . S
C346 C349 1.378 . S
C346 H361 0.929 . S
C347 C346 1.362 . S
C347 C348 1.366 . S
C348 C345 1.365 . S
C348 C347 1.366 . S
C348 H362 0.930 1_554 S
C349 C346 1.378 . S
C349 N350 1.315 . S
C349 H352 0.930 . S
N350 Co330 2.194 . S
N350 C345 1.328 . S
N350 C349 1.315 . S
H351 C345 0.929 1_556 S
H352 C349 0.930 . S
H353 C341 0.929 . S
H354 C343 0.929 . S
O355 Co330 2.351 1_556 S
O355 C358 1.244 . S
O356 Co330 2.155 . S
O356 C358 1.240 1_554 S
O357 Co330 2.096 . S
O357 C338 1.247 . S
C358 O355 1.244 . S
C358 O356 1.240 1_556 S
H359 C333 0.931 . S
H360 C342 0.931 . S
H361 C346 0.929 . S
H362 C348 0.930 1_556 S
Co363 N367 2.148 . S
Co363 N373 2.128 . S
Co363 N383 2.194 . S
Co363 O388 2.351 1_554 S
Co363 O389 2.155 . S
Co363 O390 2.096 . S
C364 N367 1.301 1_556 S
C364 N368 1.328 . S
C364 H369 0.930 . S
C365 C366 1.333 1_554 S
C365 N367 1.317 . S
C365 H370 0.930 . S
C366 C365 1.333 1_556 S
C366 N368 1.350 . S
C366 H392 0.931 . S
N367 Co363 2.148 . S
N367 C364 1.301 1_554 S
N367 C365 1.317 . S
N368 C364 1.328 . S
N368 C366 1.350 . S
H369 C364 0.930 . S
H370 C365 0.930 . S
C371 O372 1.224 . S
C371 O390 1.247 . S
O372 C371 1.224 . S
N373 Co363 2.128 . S
N373 C374 1.355 . S
N373 C376 1.311 . S
C374 N373 1.355 . S
C374 C375 1.363 . S
C374 H386 0.929 . S
C375 C374 1.363 . S
C375 N377 1.375 . S
C375 H393 0.931 . S
C376 N373 1.311 . S
C376 N377 1.347 . S
C376 H387 0.929 . S
N377 C375 1.375 . S
N377 C376 1.347 . S
C378 C381 1.365 . S
C378 N383 1.328 . S
C378 H384 0.929 1_554 S
C379 C380 1.362 . S
C379 C382 1.378 . S
C379 H394 0.929 . S
C380 C379 1.362 . S
C380 C381 1.366 . S
C381 C378 1.365 . S
C381 C380 1.366 . S
C381 H395 0.930 1_554 S
C382 C379 1.378 . S
C382 N383 1.315 . S
C382 H385 0.930 . S
N383 Co363 2.194 . S
N383 C378 1.328 . S
N383 C382 1.315 . S
H384 C378 0.929 1_556 S
H385 C382 0.930 . S
H386 C374 0.929 . S
H387 C376 0.929 . S
O388 Co363 2.351 1_556 S
O388 C391 1.244 . S
O389 Co363 2.155 . S
O389 C391 1.240 1_554 S
O390 Co363 2.096 . S
O390 C371 1.247 . S
C391 O388 1.244 . S
C391 O389 1.240 1_556 S
H392 C366 0.931 . S
H393 C375 0.931 . S
H394 C379 0.929 . S
H395 C381 0.930 1_556 S
Co396 N400 2.148 . S
Co396 N406 2.128 . S
Co396 N416 2.194 . S
Co396 O421 2.351 1_556 S
Co396 O422 2.155 . S
Co396 O423 2.096 . S
C397 N400 1.301 1_554 S
C397 N401 1.328 . S
C397 H402 0.930 . S
C398 C399 1.333 1_556 S
C398 N400 1.317 . S
C398 H403 0.930 . S
C399 C398 1.333 1_554 S
C399 N401 1.350 . S
C399 H425 0.931 . S
N400 Co396 2.148 . S
N400 C397 1.301 1_556 S
N400 C398 1.317 . S
N401 C397 1.328 . S
N401 C399 1.350 . S
H402 C397 0.930 . S
H403 C398 0.930 . S
C404 O405 1.224 . S
C404 O423 1.247 . S
O405 C404 1.224 . S
N406 Co396 2.128 . S
N406 C407 1.355 . S
N406 C409 1.311 . S
C407 N406 1.355 . S
C407 C408 1.363 . S
C407 H419 0.929 . S
C408 C407 1.363 . S
C408 N410 1.375 . S
C408 H426 0.931 . S
C409 N406 1.311 . S
C409 N410 1.347 . S
C409 H420 0.929 . S
N410 C408 1.375 . S
N410 C409 1.347 . S
C411 C414 1.365 . S
C411 N416 1.328 . S
C411 H417 0.929 1_556 S
C412 C413 1.362 . S
C412 C415 1.378 . S
C412 H427 0.929 . S
C413 C412 1.362 . S
C413 C414 1.366 . S
C414 C411 1.365 . S
C414 C413 1.366 . S
C414 H428 0.930 1_556 S
C415 C412 1.378 . S
C415 N416 1.315 . S
C415 H418 0.930 . S
N416 Co396 2.194 . S
N416 C411 1.328 . S
N416 C415 1.315 . S
H417 C411 0.929 1_554 S
H418 C415 0.930 . S
H419 C407 0.929 . S
H420 C409 0.929 . S
O421 Co396 2.351 1_554 S
O421 C424 1.244 . S
O422 Co396 2.155 . S
O422 C424 1.240 1_556 S
O423 Co396 2.096 . S
O423 C404 1.247 . S
C424 O421 1.244 . S
C424 O422 1.240 1_554 S
H425 C399 0.931 . S
H426 C408 0.931 . S
H427 C412 0.929 . S
H428 C414 0.930 1_554 S
Co429 N433 2.148 . S
Co429 N439 2.128 . S
Co429 N449 2.194 . S
Co429 O454 2.351 1_556 S
Co429 O455 2.155 . S
Co429 O456 2.096 . S
C430 N433 1.301 1_554 S
C430 N434 1.328 . S
C430 H435 0.930 . S
C431 C432 1.333 1_556 S
C431 N433 1.317 . S
C431 H436 0.930 . S
C432 C431 1.333 1_554 S
C432 N434 1.350 . S
C432 H458 0.931 . S
N433 Co429 2.148 . S
N433 C430 1.301 1_556 S
N433 C431 1.317 . S
N434 C430 1.328 . S
N434 C432 1.350 . S
H435 C430 0.930 . S
H436 C431 0.930 . S
C437 O438 1.224 . S
C437 O456 1.247 . S
O438 C437 1.224 . S
N439 Co429 2.128 . S
N439 C440 1.355 . S
N439 C442 1.311 . S
C440 N439 1.355 . S
C440 C441 1.363 . S
C440 H452 0.929 . S
C441 C440 1.363 . S
C441 N443 1.375 . S
C441 H459 0.931 . S
C442 N439 1.311 . S
C442 N443 1.347 . S
C442 H453 0.929 . S
N443 C441 1.375 . S
N443 C442 1.347 . S
C444 C447 1.365 . S
C444 N449 1.328 . S
C444 H450 0.929 1_556 S
C445 C446 1.362 . S
C445 C448 1.378 . S
C445 H460 0.929 . S
C446 C445 1.362 . S
C446 C447 1.366 . S
C447 C444 1.365 . S
C447 C446 1.366 . S
C447 H461 0.930 1_556 S
C448 C445 1.378 . S
C448 N449 1.315 . S
C448 H451 0.930 . S
N449 Co429 2.194 . S
N449 C444 1.328 . S
N449 C448 1.315 . S
H450 C444 0.929 1_554 S
H451 C448 0.930 . S
H452 C440 0.929 . S
H453 C442 0.929 . S
O454 Co429 2.351 1_554 S
O454 C457 1.244 . S
O455 Co429 2.155 . S
O455 C457 1.240 1_556 S
O456 Co429 2.096 . S
O456 C437 1.247 . S
C457 O454 1.244 . S
C457 O455 1.240 1_554 S
H458 C432 0.931 . S
H459 C441 0.931 . S
H460 C445 0.929 . S
H461 C447 0.930 1_554 S
Co462 N466 2.148 . S
Co462 N472 2.128 . S
Co462 N482 2.194 . S
Co462 O487 2.351 1_556 S
Co462 O488 2.155 . S
Co462 O489 2.096 . S
C463 N466 1.301 1_554 S
C463 N467 1.328 . S
C463 H468 0.930 . S
C464 C465 1.333 1_556 S
C464 N466 1.317 . S
C464 H469 0.930 . S
C465 C464 1.333 1_554 S
C465 N467 1.350 . S
C465 H491 0.931 . S
N466 Co462 2.148 . S
N466 C463 1.301 1_556 S
N466 C464 1.317 . S
N467 C463 1.328 . S
N467 C465 1.350 . S
H468 C463 0.930 . S
H469 C464 0.930 . S
C470 O471 1.224 . S
C470 O489 1.247 . S
O471 C470 1.224 . S
N472 Co462 2.128 . S
N472 C473 1.355 . S
N472 C475 1.311 . S
C473 N472 1.355 . S
C473 C474 1.363 . S
C473 H485 0.929 . S
C474 C473 1.363 . S
C474 N476 1.375 . S
C474 H492 0.931 . S
C475 N472 1.311 . S
C475 N476 1.347 . S
C475 H486 0.929 . S
N476 C474 1.375 . S
N476 C475 1.347 . S
C477 C480 1.365 . S
C477 N482 1.328 . S
C477 H483 0.929 1_556 S
C478 C479 1.362 . S
C478 C481 1.378 . S
C478 H493 0.929 . S
C479 C478 1.362 . S
C479 C480 1.366 . S
C480 C477 1.365 . S
C480 C479 1.366 . S
C480 H494 0.930 1_556 S
C481 C478 1.378 . S
C481 N482 1.315 . S
C481 H484 0.930 . S
N482 Co462 2.194 . S
N482 C477 1.328 . S
N482 C481 1.315 . S
H483 C477 0.929 1_554 S
H484 C481 0.930 . S
H485 C473 0.929 . S
H486 C475 0.929 . S
O487 Co462 2.351 1_554 S
O487 C490 1.244 . S
O488 Co462 2.155 . S
O488 C490 1.240 1_556 S
O489 Co462 2.096 . S
O489 C470 1.247 . S
C490 O487 1.244 . S
C490 O488 1.240 1_554 S
H491 C465 0.931 . S
H492 C474 0.931 . S
H493 C478 0.929 . S
H494 C480 0.930 1_554 S
Co495 N499 2.148 . S
Co495 N505 2.128 . S
Co495 N515 2.194 . S
Co495 O520 2.351 . S
Co495 O521 2.155 . S
Co495 O522 2.096 . S
C496 N499 1.301 . S
C496 N500 1.328 . S
C496 H501 0.930 . S
C497 C498 1.333 . S
C497 N499 1.317 . S
C497 H502 0.930 . S
C498 C497 1.333 . S
C498 N500 1.350 . S
C498 H524 0.931 . S
N499 Co495 2.148 . S
N499 C496 1.301 . S
N499 C497 1.317 . S
N500 C496 1.328 . S
N500 C498 1.350 . S
H501 C496 0.930 . S
H502 C497 0.930 . S
C503 O504 1.224 . S
C503 O522 1.247 . S
O504 C503 1.224 . S
N505 Co495 2.128 . S
N505 C506 1.355 . S
N505 C508 1.311 . S
C506 N505 1.355 . S
C506 C507 1.363 . S
C506 H518 0.929 . S
C507 C506 1.363 . S
C507 N509 1.375 . S
C507 H525 0.931 . S
C508 N505 1.311 . S
C508 N509 1.347 . S
C508 H519 0.929 . S
N509 C507 1.375 . S
N509 C508 1.347 . S
C510 C513 1.365 . S
C510 N515 1.328 . S
C510 H516 0.929 . S
C511 C512 1.362 . S
C511 C514 1.378 . S
C511 H526 0.929 . S
C512 C511 1.362 . S
C512 C513 1.366 . S
C513 C510 1.365 . S
C513 C512 1.366 . S
C513 H527 0.930 . S
C514 C511 1.378 . S
C514 N515 1.315 . S
C514 H517 0.930 . S
N515 Co495 2.194 . S
N515 C510 1.328 . S
N515 C514 1.315 . S
H516 C510 0.929 . S
H517 C514 0.930 . S
H518 C506 0.929 . S
H519 C508 0.929 . S
O520 Co495 2.351 . S
O520 C523 1.244 . S
O521 Co495 2.155 . S
O521 C523 1.240 . S
O522 Co495 2.096 . S
O522 C503 1.247 . S
C523 O520 1.244 . S
C523 O521 1.240 . S
H524 C498 0.931 . S
H525 C507 0.931 . S
H526 C511 0.929 . S
H527 C513 0.930 . S
Co528 N532 2.148 . S
Co528 N538 2.128 . S
Co528 N548 2.194 . S
Co528 O553 2.351 . S
Co528 O554 2.155 . S
Co528 O555 2.096 . S
C529 N532 1.301 . S
C529 N533 1.328 . S
C529 H534 0.930 . S
C530 C531 1.333 . S
C530 N532 1.317 . S
C530 H535 0.930 . S
C531 C530 1.333 . S
C531 N533 1.350 . S
C531 H557 0.931 . S
N532 Co528 2.148 . S
N532 C529 1.301 . S
N532 C530 1.317 . S
N533 C529 1.328 . S
N533 C531 1.350 . S
H534 C529 0.930 . S
H535 C530 0.930 . S
C536 O537 1.224 . S
C536 O555 1.247 . S
O537 C536 1.224 . S
N538 Co528 2.128 . S
N538 C539 1.355 . S
N538 C541 1.311 . S
C539 N538 1.355 . S
C539 C540 1.363 . S
C539 H551 0.929 . S
C540 C539 1.363 . S
C540 N542 1.375 . S
C540 H558 0.931 . S
C541 N538 1.311 . S
C541 N542 1.347 . S
C541 H552 0.929 . S
N542 C540 1.375 . S
N542 C541 1.347 . S
C543 C546 1.365 . S
C543 N548 1.328 . S
C543 H549 0.929 . S
C544 C545 1.362 . S
C544 C547 1.378 . S
C544 H559 0.929 . S
C545 C544 1.362 . S
C545 C546 1.366 . S
C546 C543 1.365 . S
C546 C545 1.366 . S
C546 H560 0.930 . S
C547 C544 1.378 . S
C547 N548 1.315 . S
C547 H550 0.930 . S
N548 Co528 2.194 . S
N548 C543 1.328 . S
N548 C547 1.315 . S
H549 C543 0.929 . S
H550 C547 0.930 . S
H551 C539 0.929 . S
H552 C541 0.929 . S
O553 Co528 2.351 . S
O553 C556 1.244 . S
O554 Co528 2.155 . S
O554 C556 1.240 . S
O555 Co528 2.096 . S
O555 C536 1.247 . S
C556 O553 1.244 . S
C556 O554 1.240 . S
H557 C531 0.931 . S
H558 C540 0.931 . S
H559 C544 0.929 . S
H560 C546 0.930 . S
Co561 N565 2.148 . S
Co561 N571 2.128 . S
Co561 N581 2.194 . S
Co561 O586 2.351 . S
Co561 O587 2.155 . S
Co561 O588 2.096 . S
C562 N565 1.301 . S
C562 N566 1.328 . S
C562 H567 0.930 . S
C563 C564 1.333 . S
C563 N565 1.317 . S
C563 H568 0.930 . S
C564 C563 1.333 . S
C564 N566 1.350 . S
C564 H590 0.931 . S
N565 Co561 2.148 . S
N565 C562 1.301 . S
N565 C563 1.317 . S
N566 C562 1.328 . S
N566 C564 1.350 . S
H567 C562 0.930 . S
H568 C563 0.930 . S
C569 O570 1.224 . S
C569 O588 1.247 . S
O570 C569 1.224 . S
N571 Co561 2.128 . S
N571 C572 1.355 . S
N571 C574 1.311 . S
C572 N571 1.355 . S
C572 C573 1.363 . S
C572 H584 0.929 . S
C573 C572 1.363 . S
C573 N575 1.375 . S
C573 H591 0.931 . S
C574 N571 1.311 . S
C574 N575 1.347 . S
C574 H585 0.929 . S
N575 C573 1.375 . S
N575 C574 1.347 . S
C576 C579 1.365 . S
C576 N581 1.328 . S
C576 H582 0.929 . S
C577 C578 1.362 . S
C577 C580 1.378 . S
C577 H592 0.929 . S
C578 C577 1.362 . S
C578 C579 1.366 . S
C579 C576 1.365 . S
C579 C578 1.366 . S
C579 H593 0.930 . S
C580 C577 1.378 . S
C580 N581 1.315 . S
C580 H583 0.930 . S
N581 Co561 2.194 . S
N581 C576 1.328 . S
N581 C580 1.315 . S
H582 C576 0.929 . S
H583 C580 0.930 . S
H584 C572 0.929 . S
H585 C574 0.929 . S
O586 Co561 2.351 . S
O586 C589 1.244 . S
O587 Co561 2.155 . S
O587 C589 1.240 . S
O588 Co561 2.096 . S
O588 C569 1.247 . S
C589 O586 1.244 . S
C589 O587 1.240 . S
H590 C564 0.931 . S
H591 C573 0.931 . S
H592 C577 0.929 . S
H593 C579 0.930 . S
C594 C595 1.369 . S
C594 C596 1.419 . S
C594 H598 0.930 . S
C595 C594 1.369 . S
C595 C604 1.429 1_556 S
C596 C594 1.419 . S
C596 C597 1.363 1_556 S
C596 H599 0.929 . S
C597 C596 1.363 1_554 S
C597 C603 1.428 . S
H598 C594 0.930 . S
H599 C596 0.929 . S
S600 N601 1.613 . S
S600 N602 1.610 . S
N601 S600 1.613 . S
N601 C604 1.350 . S
N602 S600 1.610 . S
N602 C603 1.351 . S
C603 C597 1.428 . S
C603 N602 1.351 . S
C603 C604 1.434 . S
C604 C595 1.429 1_554 S
C604 N601 1.350 . S
C604 C603 1.434 . S
C605 C606 1.369 . S
C605 C607 1.419 1_545 S
C605 H609 0.930 . S
C606 C605 1.369 . S
C606 C615 1.429 1_556 S
C607 C605 1.419 1_565 S
C607 C608 1.363 1_556 S
C607 H610 0.929 . S
C608 C607 1.363 1_554 S
C608 C614 1.460 . S
H609 C605 0.930 . S
H610 C607 0.929 . S
S611 N612 1.613 . S
S611 N613 1.610 . S
N612 S611 1.613 . S
N612 C615 1.350 . S
N613 S611 1.610 . S
N613 C614 1.341 1_545 S
C614 C608 1.460 . S
C614 N613 1.341 1_565 S
C614 C615 1.410 1_565 S
C615 C606 1.429 1_554 S
C615 N612 1.350 . S
C615 C614 1.410 1_545 S
C616 C617 1.369 . S
C616 C618 1.419 1_455 S
C616 H620 0.930 . S
C617 C616 1.369 . S
C617 C626 1.429 1_554 S
C618 C616 1.419 1_655 S
C618 C619 1.363 1_554 S
C618 H621 0.929 . S
C619 C618 1.363 1_556 S
C619 C625 1.452 . S
H620 C616 0.930 . S
H621 C618 0.929 . S
S622 N623 1.613 . S
S622 N624 1.610 . S
N623 S622 1.613 . S
N623 C626 1.350 . S
N624 S622 1.610 . S
N624 C625 1.361 1_455 S
C625 C619 1.452 . S
C625 N624 1.361 1_655 S
C625 C626 1.400 1_655 S
C626 C617 1.429 1_556 S
C626 N623 1.350 . S
C626 C625 1.400 1_455 S
C627 C628 1.369 . S
C627 C629 1.419 . S
C627 H631 0.930 . S
C628 C627 1.369 . S
C628 C637 1.429 1_554 S
C629 C627 1.419 . S
C629 C630 1.363 1_554 S
C629 H632 0.929 . S
C630 C629 1.363 1_556 S
C630 C636 1.428 . S
H631 C627 0.930 . S
H632 C629 0.929 . S
S633 N634 1.613 . S
S633 N635 1.610 . S
N634 S633 1.613 . S
N634 C637 1.350 . S
N635 S633 1.610 . S
N635 C636 1.351 . S
C636 C630 1.428 . S
C636 N635 1.351 . S
C636 C637 1.434 . S
C637 C628 1.429 1_556 S
C637 N634 1.350 . S
C637 C636 1.434 . S
C638 C639 1.369 1_565 S
C638 C640 1.419 . S
C638 H642 0.930 . S
C639 C638 1.369 1_545 S
C639 C648 1.429 1_556 S
C640 C638 1.419 . S
C640 C641 1.363 1_556 S
C640 H643 0.929 . S
C641 C640 1.363 1_554 S
C641 C647 1.428 1_565 S
H642 C638 0.930 . S
H643 C640 0.929 . S
S644 N645 1.613 . S
S644 N646 1.610 . S
N645 S644 1.613 . S
N645 C648 1.350 . S
N646 S644 1.610 . S
N646 C647 1.351 . S
C647 C641 1.428 1_545 S
C647 N646 1.351 . S
C647 C648 1.434 . S
C648 C639 1.429 1_554 S
C648 N645 1.350 . S
C648 C647 1.434 . S
C649 C650 1.369 . S
C649 C651 1.419 1_656 S
C649 H653 0.930 . S
C650 C649 1.369 . S
C650 C659 1.429 . S
C651 C649 1.419 1_454 S
C651 C652 1.363 . S
C651 H654 0.929 . S
C652 C651 1.363 . S
C652 C658 1.428 . S
H653 C649 0.930 . S
H654 C651 0.929 . S
S655 N656 1.613 1_554 S
S655 N657 1.610 1_655 S
N656 S655 1.613 1_556 S
N656 C659 1.350 . S
N657 S655 1.610 1_455 S
N657 C658 1.351 . S
C658 C652 1.428 . S
C658 N657 1.351 . S
C658 C659 1.434 1_454 S
C659 C650 1.429 . S
C659 N656 1.350 . S
C659 C658 1.434 1_656 S
C660 C661 1.369 . S
C660 C662 1.419 . S
C660 H664 0.930 . S
C661 C660 1.369 . S
C661 C670 1.429 . S
C662 C660 1.419 . S
C662 C663 1.363 . S
C662 H665 0.929 . S
C663 C662 1.363 . S
C663 C669 1.428 . S
H664 C660 0.930 . S
H665 C662 0.929 . S
S666 N667 1.613 . S
S666 N668 1.610 . S
N667 S666 1.613 . S
N667 C670 1.350 . S
N668 S666 1.610 . S
N668 C669 1.351 . S
C669 C663 1.428 . S
C669 N668 1.351 . S
C669 C670 1.434 . S
C670 C661 1.429 . S
C670 N667 1.350 . S
C670 C669 1.434 . S
C671 C672 1.369 . S
C671 C673 1.419 . S
C671 H675 0.930 . S
C672 C671 1.369 . S
C672 C681 1.429 . S
C673 C671 1.419 . S
C673 C674 1.363 . S
C673 H676 0.929 . S
C674 C673 1.363 . S
C674 C680 1.428 . S
H675 C671 0.930 . S
H676 C673 0.929 . S
S677 N678 1.613 . S
S677 N679 1.610 . S
N678 S677 1.613 . S
N678 C681 1.350 . S
N679 S677 1.610 . S
N679 C680 1.351 . S
C680 C674 1.428 . S
C680 N679 1.351 . S
C680 C681 1.434 . S
C681 C672 1.429 . S
C681 N678 1.350 . S
C681 C680 1.434 . S
C682 C683 1.369 . S
C682 C684 1.419 . S
C682 H686 0.930 . S
C683 C682 1.369 . S
C683 C692 1.429 . S
C684 C682 1.419 . S
C684 C685 1.363 . S
C684 H687 0.929 . S
C685 C684 1.363 . S
C685 C691 1.428 . S
H686 C682 0.930 . S
H687 C684 0.929 . S
S688 N689 1.613 . S
S688 N690 1.610 . S
N689 S688 1.613 . S
N689 C692 1.350 . S
N690 S688 1.610 . S
N690 C691 1.351 . S
C691 C685 1.428 . S
C691 N690 1.351 . S
C691 C692 1.434 . S
C692 C683 1.429 . S
C692 N689 1.350 . S
C692 C691 1.434 . S
C693 C694 1.369 . S
C693 C695 1.419 . S
C693 H697 0.930 . S
C694 C693 1.369 . S
C694 C703 1.429 . S
C695 C693 1.419 . S
C695 C696 1.363 . S
C695 H698 0.929 . S
C696 C695 1.363 . S
C696 C702 1.428 . S
H697 C693 0.930 . S
H698 C695 0.929 . S
S699 N700 1.613 . S
S699 N701 1.610 . S
N700 S699 1.613 . S
N700 C703 1.350 . S
N701 S699 1.610 . S
N701 C702 1.351 . S
C702 C696 1.428 . S
C702 N701 1.351 . S
C702 C703 1.434 . S
C703 C694 1.429 . S
C703 N700 1.350 . S
C703 C702 1.434 . S
C704 C705 1.369 . S
C704 C706 1.419 . S
C704 H708 0.930 . S
C705 C704 1.369 . S
C705 C714 1.429 . S
C706 C704 1.419 . S
C706 C707 1.363 . S
C706 H709 0.929 . S
C707 C706 1.363 . S
C707 C713 1.428 . S
H708 C704 0.930 . S
H709 C706 0.929 . S
S710 N711 1.613 . S
S710 N712 1.610 . S
N711 S710 1.613 . S
N711 C714 1.350 . S
N712 S710 1.610 . S
N712 C713 1.351 . S
C713 C707 1.428 . S
C713 N712 1.351 . S
C713 C714 1.434 . S
C714 C705 1.429 . S
C714 N711 1.350 . S
C714 C713 1.434 . S
C715 C716 1.369 . S
C715 C717 1.419 . S
C715 H719 0.930 . S
C716 C715 1.369 . S
C716 C725 1.429 . S
C717 C715 1.419 . S
C717 C718 1.363 . S
C717 H720 0.929 . S
C718 C717 1.363 . S
C718 C724 1.428 . S
H719 C715 0.930 . S
H720 C717 0.929 . S
S721 N722 1.613 . S
S721 N723 1.610 . S
N722 S721 1.613 . S
N722 C725 1.350 . S
N723 S721 1.610 . S
N723 C724 1.351 . S
C724 C718 1.428 . S
C724 N723 1.351 . S
C724 C725 1.434 . S
C725 C716 1.429 . S
C725 N722 1.350 . S
C725 C724 1.434 . S
C726 C727 1.369 . S
C726 C728 1.419 . S
C726 H730 0.930 . S
C727 C726 1.369 . S
C727 C736 1.429 . S
C728 C726 1.419 . S
C728 C729 1.363 . S
C728 H731 0.929 . S
C729 C728 1.363 . S
C729 C735 1.428 . S
H730 C726 0.930 . S
H731 C728 0.929 . S
S732 N733 1.613 . S
S732 N734 1.610 . S
N733 S732 1.613 . S
N733 C736 1.350 . S
N734 S732 1.610 . S
N734 C735 1.351 . S
C735 C729 1.428 . S
C735 N734 1.351 . S
C735 C736 1.434 . S
C736 C727 1.429 . S
C736 N733 1.350 . S
C736 C735 1.434 . S
C737 C738 1.369 . S
C737 C739 1.419 . S
C737 H741 0.930 . S
C738 C737 1.369 . S
C738 C747 1.429 . S
C739 C737 1.419 . S
C739 C740 1.363 . S
C739 H742 0.929 . S
C740 C739 1.363 . S
C740 C746 1.428 . S
H741 C737 0.930 . S
H742 C739 0.929 . S
S743 N744 1.613 . S
S743 N745 1.610 . S
N744 S743 1.613 . S
N744 C747 1.350 . S
N745 S743 1.610 . S
N745 C746 1.351 . S
C746 C740 1.428 . S
C746 N745 1.351 . S
C746 C747 1.434 . S
C747 C738 1.429 . S
C747 N744 1.350 . S
C747 C746 1.434 . S
C748 C749 1.369 . S
C748 C750 1.419 . S
C748 H752 0.930 . S
C749 C748 1.369 . S
C749 C758 1.429 . S
C750 C748 1.419 . S
C750 C751 1.363 . S
C750 H753 0.929 . S
C751 C750 1.363 . S
C751 C757 1.428 . S
H752 C748 0.930 . S
H753 C750 0.929 . S
S754 N755 1.613 . S
S754 N756 1.610 . S
N755 S754 1.613 . S
N755 C758 1.350 . S
N756 S754 1.610 . S
N756 C757 1.351 . S
C757 C751 1.428 . S
C757 N756 1.351 . S
C757 C758 1.434 . S
C758 C749 1.429 . S
C758 N755 1.350 . S
C758 C757 1.434 . S
C759 C760 1.369 . S
C759 C761 1.419 . S
C759 H763 0.930 . S
C760 C759 1.369 . S
C760 C769 1.429 . S
C761 C759 1.419 . S
C761 C762 1.363 . S
C761 H764 0.929 . S
C762 C761 1.363 . S
C762 C768 1.428 . S
H763 C759 0.930 . S
H764 C761 0.929 . S
S765 N766 1.613 . S
S765 N767 1.610 . S
N766 S765 1.613 . S
N766 C769 1.350 . S
N767 S765 1.610 . S
N767 C768 1.351 . S
C768 C762 1.428 . S
C768 N767 1.351 . S
C768 C769 1.434 . S
C769 C760 1.429 . S
C769 N766 1.350 . S
C769 C768 1.434 . S
C770 C771 1.369 . S
C770 C772 1.419 . S
C770 H774 0.930 . S
C771 C770 1.369 . S
C771 C780 1.429 . S
C772 C770 1.419 . S
C772 C773 1.363 . S
C772 H775 0.929 . S
C773 C772 1.363 . S
C773 C779 1.428 . S
H774 C770 0.930 . S
H775 C772 0.929 . S
S776 N777 1.613 . S
S776 N778 1.610 . S
N777 S776 1.613 . S
N777 C780 1.350 . S
N778 S776 1.610 . S
N778 C779 1.351 . S
C779 C773 1.428 . S
C779 N778 1.351 . S
C779 C780 1.434 . S
C780 C771 1.429 . S
C780 N777 1.350 . S
C780 C779 1.434 . S
C781 C782 1.369 . S
C781 C783 1.419 . S
C781 H785 0.930 . S
C782 C781 1.369 . S
C782 C791 1.429 . S
C783 C781 1.419 . S
C783 C784 1.363 . S
C783 H786 0.929 . S
C784 C783 1.363 . S
C784 C790 1.428 . S
H785 C781 0.930 . S
H786 C783 0.929 . S
S787 N788 1.613 . S
S787 N789 1.610 . S
N788 S787 1.613 . S
N788 C791 1.350 . S
N789 S787 1.610 . S
N789 C790 1.351 . S
C790 C784 1.428 . S
C790 N789 1.351 . S
C790 C791 1.434 . S
C791 C782 1.429 . S
C791 N788 1.350 . S
C791 C790 1.434 . S
C792 C793 1.369 . S
C792 C794 1.419 . S
C792 H796 0.930 . S
C793 C792 1.369 . S
C793 C802 1.429 . S
C794 C792 1.419 . S
C794 C795 1.363 . S
C794 H797 0.929 . S
C795 C794 1.363 . S
C795 C801 1.428 . S
H796 C792 0.930 . S
H797 C794 0.929 . S
S798 N799 1.613 . S
S798 N800 1.610 . S
N799 S798 1.613 . S
N799 C802 1.350 . S
N800 S798 1.610 . S
N800 C801 1.351 . S
C801 C795 1.428 . S
C801 N800 1.351 . S
C801 C802 1.434 . S
C802 C793 1.429 . S
C802 N799 1.350 . S
C802 C801 1.434 . S
C803 C804 1.369 . S
C803 C805 1.419 . S
C803 H807 0.930 . S
C804 C803 1.369 . S
C804 C813 1.429 . S
C805 C803 1.419 . S
C805 C806 1.363 . S
C805 H808 0.929 . S
C806 C805 1.363 . S
C806 C812 1.428 . S
H807 C803 0.930 . S
H808 C805 0.929 . S
S809 N810 1.613 . S
S809 N811 1.610 . S
N810 S809 1.613 . S
N810 C813 1.350 . S
N811 S809 1.610 . S
N811 C812 1.351 . S
C812 C806 1.428 . S
C812 N811 1.351 . S
C812 C813 1.434 . S
C813 C804 1.429 . S
C813 N810 1.350 . S
C813 C812 1.434 . S
C814 C815 1.369 . S
C814 C816 1.419 . S
C814 H818 0.930 . S
C815 C814 1.369 . S
C815 C824 1.429 . S
C816 C814 1.419 . S
C816 C817 1.363 . S
C816 H819 0.929 . S
C817 C816 1.363 . S
C817 C823 1.428 . S
H818 C814 0.930 . S
H819 C816 0.929 . S
S820 N821 1.613 . S
S820 N822 1.610 . S
N821 S820 1.613 . S
N821 C824 1.350 . S
N822 S820 1.610 . S
N822 C823 1.351 . S
C823 C817 1.428 . S
C823 N822 1.351 . S
C823 C824 1.434 . S
C824 C815 1.429 . S
C824 N821 1.350 . S
C824 C823 1.434 . S
C825 C826 1.369 . S
C825 C827 1.419 . S
C825 H829 0.930 . S
C826 C825 1.369 . S
C826 C835 1.429 . S
C827 C825 1.419 . S
C827 C828 1.363 . S
C827 H830 0.929 . S
C828 C827 1.363 . S
C828 C834 1.428 . S
H829 C825 0.930 . S
H830 C827 0.929 . S
S831 N832 1.613 . S
S831 N833 1.610 . S
N832 S831 1.613 . S
N832 C835 1.350 . S
N833 S831 1.610 . S
N833 C834 1.351 . S
C834 C828 1.428 . S
C834 N833 1.351 . S
C834 C835 1.434 . S
C835 C826 1.429 . S
C835 N832 1.350 . S
C835 C834 1.434 . S
C836 C837 1.369 . S
C836 C838 1.419 . S
C836 H840 0.930 . S
C837 C836 1.369 . S
C837 C846 1.429 . S
C838 C836 1.419 . S
C838 C839 1.363 . S
C838 H841 0.929 . S
C839 C838 1.363 . S
C839 C845 1.428 . S
H840 C836 0.930 . S
H841 C838 0.929 . S
S842 N843 1.613 . S
S842 N844 1.610 . S
N843 S842 1.613 . S
N843 C846 1.350 . S
N844 S842 1.610 . S
N844 C845 1.351 . S
C845 C839 1.428 . S
C845 N844 1.351 . S
C845 C846 1.434 . S
C846 C837 1.429 . S
C846 N843 1.350 . S
C846 C845 1.434 . S
C847 C848 1.369 . S
C847 C849 1.419 . S
C847 H851 0.930 . S
C848 C847 1.369 . S
C848 C857 1.429 . S
C849 C847 1.419 . S
C849 C850 1.363 . S
C849 H852 0.929 . S
C850 C849 1.363 . S
C850 C856 1.428 . S
H851 C847 0.930 . S
H852 C849 0.929 . S
S853 N854 1.613 . S
S853 N855 1.610 . S
N854 S853 1.613 . S
N854 C857 1.350 . S
N855 S853 1.610 . S
N855 C856 1.351 . S
C856 C850 1.428 . S
C856 N855 1.351 . S
C856 C857 1.434 . S
C857 C848 1.429 . S
C857 N854 1.350 . S
C857 C856 1.434 . S
C858 C859 1.369 1_554 S
C858 C860 1.419 1_455 S
C858 H862 0.930 . S
C859 C858 1.369 1_556 S
C859 C868 1.429 . S
C860 C858 1.419 1_655 S
C860 C861 1.363 . S
C860 H863 0.929 . S
C861 C860 1.363 . S
C861 C867 1.428 1_554 S
H862 C858 0.930 . S
H863 C860 0.929 . S
S864 N865 1.613 1_655 S
S864 N866 1.610 . S
N865 S864 1.613 1_455 S
N865 C868 1.350 . S
N866 S864 1.610 . S
N866 C867 1.351 . S
C867 C861 1.428 1_556 S
C867 N866 1.351 . S
C867 C868 1.434 1_655 S
C868 C859 1.429 . S
C868 N865 1.350 . S
C868 C867 1.434 1_455 S
C869 C870 1.369 . S
C869 C871 1.419 1_556 S
C869 H873 0.930 . S
C870 C869 1.369 . S
C870 C879 1.429 . S
C871 C869 1.419 1_554 S
C871 C872 1.363 . S
C871 H874 0.929 . S
C872 C871 1.363 . S
C872 C878 1.432 . S
H873 C869 0.930 . S
H874 C871 0.929 . S
S875 N876 1.613 . S
S875 N877 1.610 . S
N876 S875 1.613 . S
N876 C879 1.350 . S
N877 S875 1.610 . S
N877 C878 1.350 1_556 S
C878 C872 1.432 . S
C878 N877 1.350 1_554 S
C878 C879 1.430 1_554 S
C879 C870 1.429 . S
C879 N876 1.350 . S
C879 C878 1.430 1_556 S
C880 C881 1.369 . S
C880 C882 1.419 1_545 S
C880 H884 0.930 . S
C881 C880 1.369 . S
C881 C890 1.429 1_554 S
C882 C880 1.419 1_565 S
C882 C883 1.363 1_554 S
C882 H885 0.929 . S
C883 C882 1.363 1_556 S
C883 C889 1.428 . S
H884 C880 0.930 . S
H885 C882 0.929 . S
S886 N887 1.613 . S
S886 N888 1.610 1_545 S
N887 S886 1.613 . S
N887 C890 1.350 . S
N888 S886 1.610 1_565 S
N888 C889 1.351 . S
C889 C883 1.428 . S
C889 N888 1.351 . S
C889 C890 1.434 1_565 S
C890 C881 1.429 1_556 S
C890 N887 1.350 . S
C890 C889 1.434 1_545 S
C891 C892 1.369 . S
C891 C893 1.419 . S
C891 H895 0.930 . S
C892 C891 1.369 . S
C892 C901 1.429 . S
C893 C891 1.419 . S
C893 C894 1.363 . S
C893 H896 0.929 . S
C894 C893 1.363 . S
C894 C900 1.428 . S
H895 C891 0.930 . S
H896 C893 0.929 . S
S897 N898 1.613 . S
S897 N899 1.610 . S
N898 S897 1.613 . S
N898 C901 1.350 . S
N899 S897 1.610 . S
N899 C900 1.351 . S
C900 C894 1.428 . S
C900 N899 1.351 . S
C900 C901 1.434 . S
C901 C892 1.429 . S
C901 N898 1.350 . S
C901 C900 1.434 . S
C902 C903 1.369 . S
C902 C904 1.419 . S
C902 H906 0.930 . S
C903 C902 1.369 . S
C903 C912 1.429 1_545 S
C904 C902 1.419 . S
C904 C905 1.363 1_545 S
C904 H907 0.929 . S
C905 C904 1.363 1_565 S
C905 C911 1.428 . S
H906 C902 0.930 . S
H907 C904 0.929 . S
S908 N909 1.613 . S
S908 N910 1.610 . S
N909 S908 1.613 . S
N909 C912 1.350 . S
N910 S908 1.610 . S
N910 C911 1.351 . S
C911 C905 1.428 . S
C911 N910 1.351 . S
C911 C912 1.434 . S
C912 C903 1.429 1_565 S
C912 N909 1.350 . S
C912 C911 1.434 . S
C913 C914 1.369 1_655 S
C913 C915 1.419 . S
C913 H917 0.930 . S
C914 C913 1.369 1_455 S
C914 C923 1.429 . S
C915 C913 1.419 . S
C915 C916 1.363 . S
C915 H918 0.929 . S
C916 C915 1.363 . S
C916 C922 1.428 1_655 S
H917 C913 0.930 . S
H918 C915 0.929 . S
S919 N920 1.613 . S
S919 N921 1.610 . S
N920 S919 1.613 . S
N920 C923 1.350 . S
N921 S919 1.610 . S
N921 C922 1.351 . S
C922 C916 1.428 1_455 S
C922 N921 1.351 . S
C922 C923 1.434 . S
C923 C914 1.429 . S
C923 N920 1.350 . S
C923 C922 1.434 . S
C924 C925 1.369 . S
C924 C926 1.419 . S
C924 H928 0.930 . S
C925 C924 1.369 . S
C925 C934 1.429 . S
C926 C924 1.419 . S
C926 C927 1.363 . S
C926 H929 0.929 . S
C927 C926 1.363 . S
C927 C933 1.428 . S
H928 C924 0.930 . S
H929 C926 0.929 . S
S930 N931 1.613 . S
S930 N932 1.610 . S
N931 S930 1.613 . S
N931 C934 1.350 . S
N932 S930 1.610 . S
N932 C933 1.351 . S
C933 C927 1.428 . S
C933 N932 1.351 . S
C933 C934 1.434 . S
C934 C925 1.429 . S
C934 N931 1.350 . S
C934 C933 1.434 . S
C935 C936 1.369 . S
C935 C937 1.419 1_565 S
C935 H939 0.930 . S
C936 C935 1.369 . S
C936 C945 1.429 . S
C937 C935 1.419 1_545 S
C937 C938 1.363 . S
C937 H940 0.929 . S
C938 C937 1.363 . S
C938 C944 1.428 . S
H939 C935 0.930 . S
H940 C937 0.929 . S
S941 N942 1.613 . S
S941 N943 1.610 . S
N942 S941 1.613 . S
N942 C945 1.350 . S
N943 S941 1.610 . S
N943 C944 1.351 1_565 S
C944 C938 1.428 . S
C944 N943 1.351 1_545 S
C944 C945 1.434 1_545 S
C945 C936 1.429 . S
C945 N942 1.350 . S
C945 C944 1.434 1_565 S
C946 C947 1.369 . S
C946 C948 1.419 1_655 S
C946 H950 0.930 . S
C947 C946 1.369 . S
C947 C956 1.429 . S
C948 C946 1.419 1_455 S
C948 C949 1.363 . S
C948 H951 0.929 . S
C949 C948 1.363 . S
C949 C955 1.428 . S
H950 C946 0.930 . S
H951 C948 0.929 . S
S952 N953 1.613 . S
S952 N954 1.610 . S
N953 S952 1.613 . S
N953 C956 1.350 1_455 S
N954 S952 1.610 . S
N954 C955 1.351 . S
C955 C949 1.428 . S
C955 N954 1.351 . S
C955 C956 1.434 1_455 S
C956 C947 1.429 . S
C956 N953 1.350 1_655 S
C956 C955 1.434 1_655 S
C957 C958 1.369 . S
C957 C959 1.419 . S
C957 H961 0.930 . S
C958 C957 1.369 . S
C958 C967 1.429 . S
C959 C957 1.419 . S
C959 C960 1.363 . S
C959 H962 0.929 . S
C960 C959 1.363 . S
C960 C966 1.428 . S
H961 C957 0.930 . S
H962 C959 0.929 . S
S963 N964 1.613 . S
S963 N965 1.610 . S
N964 S963 1.613 . S
N964 C967 1.350 . S
N965 S963 1.610 . S
N965 C966 1.351 . S
C966 C960 1.428 . S
C966 N965 1.351 . S
C966 C967 1.434 . S
C967 C958 1.429 . S
C967 N964 1.350 . S
C967 C966 1.434 . S
C968 C969 1.369 . S
C968 C970 1.419 . S
C968 H972 0.930 . S
C969 C968 1.369 . S
C969 C978 1.429 . S
C970 C968 1.419 . S
C970 C971 1.363 . S
C970 H973 0.929 . S
C971 C970 1.363 . S
C971 C977 1.428 . S
H972 C968 0.930 . S
H973 C970 0.929 . S
S974 N975 1.613 . S
S974 N976 1.610 . S
N975 S974 1.613 . S
N975 C978 1.350 . S
N976 S974 1.610 . S
N976 C977 1.351 . S
C977 C971 1.428 . S
C977 N976 1.351 . S
C977 C978 1.434 . S
C978 C969 1.429 . S
C978 N975 1.350 . S
C978 C977 1.434 . S
C979 C980 1.369 . S
C979 C981 1.419 . S
C979 H983 0.930 . S
C980 C979 1.369 . S
C980 C989 1.429 . S
C981 C979 1.419 . S
C981 C982 1.363 . S
C981 H984 0.929 . S
C982 C981 1.363 . S
C982 C988 1.428 . S
H983 C979 0.930 . S
H984 C981 0.929 . S
S985 N986 1.613 . S
S985 N987 1.610 . S
N986 S985 1.613 . S
N986 C989 1.350 . S
N987 S985 1.610 . S
N987 C988 1.351 . S
C988 C982 1.428 . S
C988 N987 1.351 . S
C988 C989 1.434 . S
C989 C980 1.429 . S
C989 N986 1.350 . S
C989 C988 1.434 . S
C990 C991 1.369 . S
C990 C992 1.419 . S
C990 H994 0.930 . S
C991 C990 1.369 . S
C991 C1000 1.429 . S
C992 C990 1.419 . S
C992 C993 1.363 . S
C992 H995 0.929 . S
C993 C992 1.363 . S
C993 C999 1.428 . S
H994 C990 0.930 . S
H995 C992 0.929 . S
S996 N997 1.613 . S
S996 N998 1.610 . S
N997 S996 1.613 . S
N997 C1000 1.350 . S
N998 S996 1.610 . S
N998 C999 1.351 . S
C999 C993 1.428 . S
C999 N998 1.351 . S
C999 C1000 1.434 . S
C1000 C991 1.429 . S
C1000 N997 1.350 . S
C1000 C999 1.434 . S
C1001 C1002 1.369 . S
C1001 C1003 1.419 . S
C1001 H1005 0.930 . S
C1002 C1001 1.369 . S
C1002 C1011 1.429 . S
C1003 C1001 1.419 . S
C1003 C1004 1.363 . S
C1003 H1006 0.929 . S
C1004 C1003 1.363 . S
C1004 C1010 1.428 . S
H1005 C1001 0.930 . S
H1006 C1003 0.929 . S
S1007 N1008 1.613 . S
S1007 N1009 1.610 . S
N1008 S1007 1.613 . S
N1008 C1011 1.350 . S
N1009 S1007 1.610 . S
N1009 C1010 1.351 . S
C1010 C1004 1.428 . S
C1010 N1009 1.351 . S
C1010 C1011 1.434 . S
C1011 C1002 1.429 . S
C1011 N1008 1.350 . S
C1011 C1010 1.434 . S
C1012 C1013 1.369 . S
C1012 C1014 1.419 . S
C1012 H1016 0.930 . S
C1013 C1012 1.369 . S
C1013 C1022 1.429 . S
C1014 C1012 1.419 . S
C1014 C1015 1.363 . S
C1014 H1017 0.929 . S
C1015 C1014 1.363 . S
C1015 C1021 1.428 . S
H1016 C1012 0.930 . S
H1017 C1014 0.929 . S
S1018 N1019 1.613 . S
S1018 N1020 1.610 . S
N1019 S1018 1.613 . S
N1019 C1022 1.350 . S
N1020 S1018 1.610 . S
N1020 C1021 1.351 . S
C1021 C1015 1.428 . S
C1021 N1020 1.351 . S
C1021 C1022 1.434 . S
C1022 C1013 1.429 . S
C1022 N1019 1.350 . S
C1022 C1021 1.434 . S
C1023 C1024 1.369 . S
C1023 C1025 1.419 . S
C1023 H1027 0.930 . S
C1024 C1023 1.369 . S
C1024 C1033 1.429 . S
C1025 C1023 1.419 . S
C1025 C1026 1.363 . S
C1025 H1028 0.929 . S
C1026 C1025 1.363 . S
C1026 C1032 1.428 . S
H1027 C1023 0.930 . S
H1028 C1025 0.929 . S
S1029 N1030 1.613 . S
S1029 N1031 1.610 . S
N1030 S1029 1.613 . S
N1030 C1033 1.350 . S
N1031 S1029 1.610 . S
N1031 C1032 1.351 . S
C1032 C1026 1.428 . S
C1032 N1031 1.351 . S
C1032 C1033 1.434 . S
C1033 C1024 1.429 . S
C1033 N1030 1.350 . S
C1033 C1032 1.434 . S
C1034 C1035 1.369 . S
C1034 C1036 1.419 . S
C1034 H1038 0.930 . S
C1035 C1034 1.369 . S
C1035 C1044 1.429 . S
C1036 C1034 1.419 . S
C1036 C1037 1.363 . S
C1036 H1039 0.929 . S
C1037 C1036 1.363 . S
C1037 C1043 1.428 . S
H1038 C1034 0.930 . S
H1039 C1036 0.929 . S
S1040 N1041 1.613 . S
S1040 N1042 1.610 . S
N1041 S1040 1.613 . S
N1041 C1044 1.350 . S
N1042 S1040 1.610 . S
N1042 C1043 1.351 . S
C1043 C1037 1.428 . S
C1043 N1042 1.351 . S
C1043 C1044 1.434 . S
C1044 C1035 1.429 . S
C1044 N1041 1.350 . S
C1044 C1043 1.434 . S
C1045 C1046 1.369 . S
C1045 C1047 1.419 . S
C1045 H1049 0.930 . S
C1046 C1045 1.369 . S
C1046 C1055 1.429 . S
C1047 C1045 1.419 . S
C1047 C1048 1.363 . S
C1047 H1050 0.929 . S
C1048 C1047 1.363 . S
C1048 C1054 1.428 . S
H1049 C1045 0.930 . S
H1050 C1047 0.929 . S
S1051 N1052 1.613 . S
S1051 N1053 1.610 . S
N1052 S1051 1.613 . S
N1052 C1055 1.350 . S
N1053 S1051 1.610 . S
N1053 C1054 1.351 . S
C1054 C1048 1.428 . S
C1054 N1053 1.351 . S
C1054 C1055 1.434 . S
C1055 C1046 1.429 . S
C1055 N1052 1.350 . S
C1055 C1054 1.434 . S
C1056 C1057 1.369 . S
C1056 C1058 1.419 . S
C1056 H1060 0.930 . S
C1057 C1056 1.369 . S
C1057 C1066 1.429 . S
C1058 C1056 1.419 . S
C1058 C1059 1.363 . S
C1058 H1061 0.929 . S
C1059 C1058 1.363 . S
C1059 C1065 1.428 . S
H1060 C1056 0.930 . S
H1061 C1058 0.929 . S
S1062 N1063 1.613 . S
S1062 N1064 1.610 . S
N1063 S1062 1.613 . S
N1063 C1066 1.350 . S
N1064 S1062 1.610 . S
N1064 C1065 1.351 . S
C1065 C1059 1.428 . S
C1065 N1064 1.351 . S
C1065 C1066 1.434 . S
C1066 C1057 1.429 . S
C1066 N1063 1.350 . S
C1066 C1065 1.434 . S
C1067 C1068 1.369 . S
C1067 C1069 1.419 . S
C1067 H1071 0.930 . S
C1068 C1067 1.369 . S
C1068 C1077 1.429 . S
C1069 C1067 1.419 . S
C1069 C1070 1.363 . S
C1069 H1072 0.929 . S
C1070 C1069 1.363 . S
C1070 C1076 1.428 . S
H1071 C1067 0.930 . S
H1072 C1069 0.929 . S
S1073 N1074 1.613 . S
S1073 N1075 1.610 . S
N1074 S1073 1.613 . S
N1074 C1077 1.350 . S
N1075 S1073 1.610 . S
N1075 C1076 1.351 . S
C1076 C1070 1.428 . S
C1076 N1075 1.351 . S
C1076 C1077 1.434 . S
C1077 C1068 1.429 . S
C1077 N1074 1.350 . S
C1077 C1076 1.434 . S
C1078 C1079 1.369 . S
C1078 C1080 1.419 . S
C1078 H1082 0.930 . S
C1079 C1078 1.369 . S
C1079 C1088 1.429 . S
C1080 C1078 1.419 . S
C1080 C1081 1.363 . S
C1080 H1083 0.929 . S
C1081 C1080 1.363 . S
C1081 C1087 1.428 . S
H1082 C1078 0.930 . S
H1083 C1080 0.929 . S
S1084 N1085 1.613 . S
S1084 N1086 1.610 . S
N1085 S1084 1.613 . S
N1085 C1088 1.350 . S
N1086 S1084 1.610 . S
N1086 C1087 1.351 . S
C1087 C1081 1.428 . S
C1087 N1086 1.351 . S
C1087 C1088 1.434 . S
C1088 C1079 1.429 . S
C1088 N1085 1.350 . S
C1088 C1087 1.434 . S
C595 N113 1.202 . S
C597 N14 1.192 . S
C606 N146 1.204 . S
C608 N47 1.192 . S
C617 N80 1.201 . S
C619 N179 1.194 . S
C628 C41 2.237 . S
C630 C173 2.239 . S
C639 C107 2.237 . S
C641 C74 2.238 . S
C650 C140 2.238 . S
C652 C8 2.239 . S
C661 N212 1.202 . S
C663 N311 1.193 . S
C672 N344 1.202 . S
C674 N245 1.193 . S
C683 N278 1.191 . S
C685 N377 1.202 . S
C694 C371 2.239 . S
C696 C239 2.238 . S
C705 C305 2.238 . S
C707 C272 2.239 . S
C716 C338 2.237 . S
C718 C206 2.239 . S
C727 N509 1.200 . S
C729 N410 1.194 . S
C738 N443 1.190 . S
C740 N542 1.202 . S
C749 N575 1.192 . S
C751 N476 1.200 . S
C760 C437 2.238 . S
C762 C569 2.237 . S
C771 C503 2.237 . S
C773 C470 2.238 . S
C782 C404 2.239 . S
C784 C536 2.237 . S
C793 C578 1.511 . S
C795 C17 1.510 . S
C804 C50 1.515 . S
C806 C512 1.507 . S
C815 C545 1.514 . S
C817 C83 1.508 . S
C826 C248 1.507 . S
C828 C116 1.513 . S
C837 C149 1.509 . S
C839 C281 1.511 . S
C848 C182 1.514 . S
C850 C215 1.508 . S
C859 C446 1.511 . S
C861 C314 1.510 . S
C870 C479 1.513 . S
C872 C347 1.509 . S
C881 C380 1.508 . S
C883 C413 1.512 . S
C892 C28 2.053 . S
C894 C127 2.055 . S
C903 C160 2.056 . S
C905 C61 2.055 . S
C914 C94 2.053 . S
C916 C193 2.055 . S
C925 N170 0.755 . S
C927 N38 0.762 . S
C936 N71 0.766 . S
C938 N104 0.745 . S
C947 N137 0.746 . S
C949 N5 0.766 . S
C958 C226 2.053 . S
C960 C325 2.055 . S
C969 C358 2.055 . S
C971 C259 2.054 . S
C980 C391 2.054 . S
C982 C292 2.053 . S
C991 N368 0.744 . S
C993 N236 0.765 . S
C1002 N302 0.754 . S
C1004 N269 0.763 . S
C1013 N335 0.742 . S
C1015 N203 0.763 . S
C1024 C523 2.053 . S
C1026 C424 2.055 . S
C1035 C556 2.054 . S
C1037 C457 2.056 . S
C1046 C589 2.053 . S
C1048 C490 2.055 . S
C1057 N566 0.742 . S
C1059 N434 0.763 . S
C1068 N500 0.760 . S
C1070 N467 0.759 . S
C1079 N533 0.768 . S
C1081 N401 0.751 . S
