# Generated by pormake.
# Topology umb, (4)-cn, num edge types: 1
# Building blocks:
#     Node 0, Type 0, BuildingBlock: KOZSID_clean_sbu_0, # of connection points: 4
#     Node 1, Type 0, BuildingBlock: KOZSID_clean_sbu_0, # of connection points: 4
#     Node 2, Type 0, BuildingBlock: KOZSID_clean_sbu_0, # of connection points: 4
#     Node 3, Type 0, BuildingBlock: KOZSID_clean_sbu_0, # of connection points: 4
#     Node 4, Type 0, BuildingBlock: KOZSID_clean_sbu_0, # of connection points: 4
#     Node 5, Type 0, BuildingBlock: KOZSID_clean_sbu_0, # of connection points: 4
#     Node 6, Type 0, BuildingBlock: KOZSID_clean_sbu_0, # of connection points: 4
#     Node 7, Type 0, BuildingBlock: KOZSID_clean_sbu_0, # of connection points: 4
#     Node 8, Type 0, BuildingBlock: KOZSID_clean_sbu_0, # of connection points: 4
#     Node 9, Type 0, BuildingBlock: KOZSID_clean_sbu_0, # of connection points: 4
#     Node 10, Type 0, BuildingBlock: KOZSID_clean_sbu_0, # of connection points: 4
#     Node 11, Type 0, BuildingBlock: KOZSID_clean_sbu_0, # of connection points: 4
#     Edge 12, Type (0, 0), BuildingBlock: KIFKEQ_clean_linker_1, # of connection points: 2
#     Edge 13, Type (0, 0), BuildingBlock: KIFKEQ_clean_linker_1, # of connection points: 2
#     Edge 14, Type (0, 0), BuildingBlock: KIFKEQ_clean_linker_1, # of connection points: 2
#     Edge 15, Type (0, 0), BuildingBlock: KIFKEQ_clean_linker_1, # of connection points: 2
#     Edge 16, Type (0, 0), BuildingBlock: KIFKEQ_clean_linker_1, # of connection points: 2
#     Edge 17, Type (0, 0), BuildingBlock: KIFKEQ_clean_linker_1, # of connection points: 2
#     Edge 18, Type (0, 0), BuildingBlock: KIFKEQ_clean_linker_1, # of connection points: 2
#     Edge 19, Type (0, 0), BuildingBlock: KIFKEQ_clean_linker_1, # of connection points: 2
#     Edge 20, Type (0, 0), BuildingBlock: KIFKEQ_clean_linker_1, # of connection points: 2
#     Edge 21, Type (0, 0), BuildingBlock: KIFKEQ_clean_linker_1, # of connection points: 2
#     Edge 22, Type (0, 0), BuildingBlock: KIFKEQ_clean_linker_1, # of connection points: 2
#     Edge 23, Type (0, 0), BuildingBlock: KIFKEQ_clean_linker_1, # of connection points: 2
#     Edge 24, Type (0, 0), BuildingBlock: KIFKEQ_clean_linker_1, # of connection points: 2
#     Edge 25, Type (0, 0), BuildingBlock: KIFKEQ_clean_linker_1, # of connection points: 2
#     Edge 26, Type (0, 0), BuildingBlock: KIFKEQ_clean_linker_1, # of connection points: 2
#     Edge 27, Type (0, 0), BuildingBlock: KIFKEQ_clean_linker_1, # of connection points: 2
#     Edge 28, Type (0, 0), BuildingBlock: KIFKEQ_clean_linker_1, # of connection points: 2
#     Edge 29, Type (0, 0), BuildingBlock: KIFKEQ_clean_linker_1, # of connection points: 2
#     Edge 30, Type (0, 0), BuildingBlock: KIFKEQ_clean_linker_1, # of connection points: 2
#     Edge 31, Type (0, 0), BuildingBlock: KIFKEQ_clean_linker_1, # of connection points: 2
#     Edge 32, Type (0, 0), BuildingBlock: KIFKEQ_clean_linker_1, # of connection points: 2
#     Edge 33, Type (0, 0), BuildingBlock: KIFKEQ_clean_linker_1, # of connection points: 2
#     Edge 34, Type (0, 0), BuildingBlock: KIFKEQ_clean_linker_1, # of connection points: 2
#     Edge 35, Type (0, 0), BuildingBlock: KIFKEQ_clean_linker_1, # of connection points: 2
# Relax obj value: 0.205
# Max RMSD: 0.233
# Mean RMSD: 0.232
data_MOF--net-umb--node1-KOZSID_clean_sbu_0--edge1-KIFKEQ_clean_linker_1
_symmetry_space_group_name_H-M    P1
_symmetry_Int_Tables_number       1
_symmetry_cell_setting            triclinic
loop_
_symmetry_equiv_pos_as_xyz
'x, y, z'
_cell_length_a     62.065745
_cell_length_b     62.271196
_cell_length_c     42.870904
_cell_angle_alpha  89.865298
_cell_angle_beta   90.038316
_cell_angle_gamma 120.02828
loop_
_atom_site_label
_atom_site_type_symbol
_atom_site_fract_x
_atom_site_fract_y
_atom_site_fract_z
_atom_type_partial_charge
C0 C 0.5762 0.20656 0.25182 0.0
C1 C 0.59347 0.21097 0.22864 0.0
C2 C 0.60779 0.20117 0.23917 0.0
C3 C 0.59853 0.1913 0.26818 0.0
N4 N 0.57918 0.19415 0.27612 0.0
Co5 Co 0.56218 0.18565 0.3171 0.0
N6 N 0.59073 0.18629 0.33865 0.0
C7 C 0.60892 0.18427 0.32432 0.0
C8 C 0.62606 0.18476 0.34506 0.0
C9 C 0.61791 0.18695 0.37411 0.0
C10 C 0.59612 0.18763 0.36959 0.0
N11 N 0.54481 0.17755 0.35782 0.0
C12 C 0.55391 0.17987 0.38721 0.0
C13 C 0.53475 0.17131 0.40891 0.0
C14 C 0.51307 0.16329 0.39238 0.0
C15 C 0.52005 0.1673 0.36155 0.0
N16 N 0.53399 0.18543 0.29525 0.0
C17 C 0.51032 0.17422 0.30526 0.0
C18 C 0.49553 0.17939 0.28635 0.0
C19 C 0.51104 0.19501 0.2634 0.0
C20 C 0.53451 0.19859 0.26962 0.0
N21 N 0.54843 0.14956 0.30916 0.0
C22 C 0.53472 0.09918 0.29866 0.0
C23 C 0.543 0.11033 0.32786 0.0
C24 C 0.54939 0.13508 0.33267 0.0
C25 C 0.53253 0.11373 0.27494 0.0
C26 C 0.53967 0.13888 0.28057 0.0
N27 N 0.57631 0.22101 0.32542 0.0
C28 C 0.57226 0.25596 0.34119 0.0
C29 C 0.5975 0.27191 0.33489 0.0
C30 C 0.6119 0.26203 0.32408 0.0
C31 C 0.60102 0.23663 0.3196 0.0
C32 C 0.56196 0.23041 0.33626 0.0
H33 H 0.61268 0.22965 0.3112 0.0
H34 H 0.54245 0.21828 0.34106 0.0
H35 H 0.5558 0.14259 0.35558 0.0
H36 H 0.53861 0.14985 0.26168 0.0
C37 C 0.6112 0.18593 0.2915 0.0
C38 C 0.55689 0.21391 0.25053 0.0
C39 C 0.57996 0.18753 0.39506 0.0
C40 C 0.5048 0.16542 0.33615 0.0
H41 H 0.5959 0.22077 0.20689 0.0
H42 H 0.62421 0.20287 0.22803 0.0
H43 H 0.64291 0.18438 0.33971 0.0
H44 H 0.62686 0.1877 0.39608 0.0
H45 H 0.53624 0.17056 0.43399 0.0
H46 H 0.49453 0.15607 0.40183 0.0
H47 H 0.47626 0.17411 0.29013 0.0
H48 H 0.50587 0.20329 0.24475 0.0
H49 H 0.54459 0.09994 0.34715 0.0
H50 H 0.52612 0.10599 0.25195 0.0
H51 H 0.56071 0.26314 0.34983 0.0
H52 H 0.63155 0.27394 0.31925 0.0
C53 C 0.37784 0.57305 0.58519 0.0
C54 C 0.39051 0.59025 0.56188 0.0
C55 C 0.41463 0.6048 0.57231 0.0
C56 C 0.41543 0.59568 0.60135 0.0
N57 N 0.39337 0.5762 0.60939 0.0
Co58 Co 0.38497 0.55935 0.65044 0.0
N59 N 0.41262 0.5881 0.67188 0.0
C60 C 0.4327 0.60643 0.65744 0.0
C61 C 0.44908 0.62385 0.67802 0.0
C62 C 0.43876 0.61573 0.7071 0.0
C63 C 0.4166 0.59361 0.70279 0.0
N64 N 0.37572 0.54219 0.69133 0.0
C65 C 0.38241 0.55136 0.72069 0.0
C66 C 0.37205 0.53227 0.74247 0.0
C67 C 0.35862 0.51059 0.72607 0.0
C68 C 0.36152 0.5175 0.69522 0.0
N69 N 0.35736 0.5309 0.62861 0.0
C70 C 0.34523 0.50735 0.63885 0.0
C71 C 0.32549 0.49223 0.61991 0.0
C72 C 0.32515 0.50737 0.59666 0.0
C73 C 0.34479 0.53098 0.60263 0.0
N74 N 0.40783 0.54611 0.64287 0.0
C75 C 0.44535 0.53326 0.63322 0.0
C76 C 0.44142 0.54064 0.6625 0.0
C77 C 0.42283 0.5468 0.66681 0.0
C78 C 0.42911 0.5314 0.60897 0.0
C79 C 0.41059 0.538 0.61423 0.0
N80 N 0.3632 0.573 0.65836 0.0
C81 C 0.32371 0.56843 0.67351 0.0
C82 C 0.33264 0.59347 0.66672 0.0
C83 C 0.35699 0.60804 0.65608 0.0
C84 C 0.37196 0.59754 0.65223 0.0
C85 C 0.33938 0.55848 0.66908 0.0
H86 H 0.39065 0.60935 0.64397 0.0
H87 H 0.33226 0.5391 0.67413 0.0
H88 H 0.4212 0.55287 0.6897 0.0
H89 H 0.3989 0.53713 0.595 0.0
C90 C 0.43336 0.60859 0.62461 0.0
C91 C 0.3514 0.55329 0.58361 0.0
C92 C 0.40077 0.57736 0.72843 0.0
C93 C 0.34847 0.50211 0.66986 0.0
H94 H 0.38297 0.59236 0.54008 0.0
H95 H 0.42921 0.62126 0.56107 0.0
H96 H 0.46607 0.64087 0.67253 0.0
H97 H 0.44679 0.62499 0.72891 0.0
H98 H 0.37437 0.53378 0.76753 0.0
H99 H 0.34761 0.49209 0.7356 0.0
H100 H 0.31171 0.47297 0.62389 0.0
H101 H 0.31158 0.50179 0.57811 0.0
H102 H 0.45287 0.54188 0.68227 0.0
H103 H 0.4312 0.52568 0.58587 0.0
H104 H 0.30494 0.55677 0.68208 0.0
H105 H 0.36448 0.62756 0.65093 0.0
C106 C 0.81397 0.37009 0.91759 0.0
C107 C 0.80987 0.38245 0.89346 0.0
C108 C 0.81931 0.40664 0.90312 0.0
C109 C 0.82878 0.40784 0.93254 0.0
N110 N 0.82605 0.38595 0.94156 0.0
Co111 Co 0.83426 0.37843 0.98327 0.0
N112 N 0.8329 0.40636 1.00334 0.0
C113 C 0.8347 0.42608 0.98799 0.0
C114 C 0.83346 0.44278 1.00772 0.0
C115 C 0.83106 0.43306 0.03721 0.0
C116 C 0.8311 0.4109 0.034 0.0
N117 N 0.84202 0.37011 0.02488 0.0
C118 C 0.83929 0.37732 0.05381 0.0
C119 C 0.84806 0.36755 0.07637 0.0
C120 C 0.85659 0.35396 0.06091 0.0
C121 C 0.85269 0.35619 0.02983 0.0
N122 N 0.83529 0.35046 0.96281 0.0
C123 C 0.84658 0.33852 0.9743 0.0
C124 C 0.84151 0.31799 0.95696 0.0
C125 C 0.82592 0.3169 0.93344 0.0
C126 C 0.82247 0.33712 0.93732 0.0
N127 N 0.87048 0.40113 0.97573 0.0
C128 C 0.92091 0.43857 0.96579 0.0
C129 C 0.9094 0.43509 0.99493 0.0
C130 C 0.88461 0.41654 0.99938 0.0
C131 C 0.90671 0.4219 0.94189 0.0
C132 C 0.88155 0.40341 0.94728 0.0
N133 N 0.79875 0.35686 0.99116 0.0
C134 C 0.76385 0.31798 1.00785 0.0
C135 C 0.74762 0.32651 0.9996 0.0
C136 C 0.75734 0.3504 0.9875 0.0
C137 C 0.78288 0.3653 0.98372 0.0
C138 C 0.78951 0.3335 1.00326 0.0
H139 H 0.78973 0.38367 0.97448 0.0
H140 H 0.80185 0.32664 0.00934 0.0
H141 H 0.87676 0.41532 0.0221 0.0
H142 H 0.87087 0.39138 0.92829 0.0
C143 C 0.83355 0.42614 0.9551 0.0
C144 C 0.80719 0.34362 0.91687 0.0
C145 C 0.83138 0.39563 0.06041 0.0
C146 C 0.85507 0.34259 1.00529 0.0
H147 H 0.80058 0.37466 0.87156 0.0
H148 H 0.81766 0.42104 0.89105 0.0
H149 H 0.83346 0.45962 1.0014 0.0
H150 H 0.82964 0.44147 0.05859 0.0
H151 H 0.84873 0.37037 0.10133 0.0
H152 H 0.86412 0.34323 0.07121 0.0
H153 H 0.84658 0.30411 0.96239 0.0
H154 H 0.81743 0.30221 0.91648 0.0
H155 H 0.91946 0.44685 0.01448 0.0
H156 H 0.91466 0.42362 0.91892 0.0
H157 H 0.75679 0.2996 0.01759 0.0
H158 H 0.74523 0.35761 0.98128 0.0
C159 C 0.4521 0.81053 0.25039 0.0
C160 C 0.43543 0.80648 0.22654 0.0
C161 C 0.4208 0.81605 0.23648 0.0
C162 C 0.42935 0.82554 0.26579 0.0
N163 N 0.44856 0.82268 0.27446 0.0
Co164 Co 0.46465 0.83086 0.31592 0.0
N165 N 0.43543 0.82954 0.33646 0.0
C166 C 0.41751 0.83165 0.32149 0.0
C167 C 0.39989 0.83085 0.34164 0.0
C168 C 0.40745 0.82838 0.37099 0.0
C169 C 0.42932 0.82775 0.36721 0.0
N170 N 0.4811 0.8387 0.35725 0.0
C171 C 0.47137 0.83609 0.38631 0.0
C172 C 0.49004 0.84443 0.40865 0.0
C173 C 0.51209 0.8528 0.39288 0.0
C174 C 0.50576 0.84911 0.36186 0.0
N175 N 0.49352 0.83171 0.29497 0.0
C176 C 0.51688 0.84285 0.30612 0.0
C177 C 0.5322 0.83767 0.28849 0.0
C178 C 0.51746 0.82216 0.26515 0.0
C179 C 0.49381 0.81886 0.26941 0.0
N180 N 0.4782 0.86699 0.30828 0.0
C181 C 0.49199 0.91746 0.29808 0.0
C182 C 0.48286 0.90586 0.32693 0.0
C183 C 0.47645 0.88108 0.33161 0.0
C184 C 0.49492 0.9033 0.27458 0.0
C185 C 0.48773 0.87809 0.28004 0.0
N186 N 0.45065 0.79543 0.32389 0.0
C187 C 0.45459 0.76043 0.34003 0.0
C188 C 0.42969 0.74437 0.33211 0.0
C189 C 0.41548 0.75424 0.32049 0.0
C190 C 0.4262 0.77971 0.3168 0.0
C191 C 0.4648 0.78606 0.33559 0.0
H192 H 0.41465 0.78666 0.30786 0.0
H193 H 0.4841 0.79827 0.34141 0.0
H194 H 0.46941 0.87323 0.35425 0.0
H195 H 0.48941 0.86743 0.2613 0.0
C196 C 0.41604 0.8305 0.2886 0.0
C197 C 0.4718 0.80365 0.24929 0.0
C198 C 0.4451 0.82801 0.39326 0.0
C199 C 0.52155 0.8513 0.33708 0.0
H200 H 0.43371 0.79716 0.20464 0.0
H201 H 0.40466 0.8145 0.22469 0.0
H202 H 0.38319 0.83134 0.33571 0.0
H203 H 0.39817 0.82756 0.3927 0.0
H204 H 0.48801 0.84472 0.43369 0.0
H205 H 0.53042 0.85996 0.40294 0.0
H206 H 0.55121 0.84262 0.29363 0.0
H207 H 0.52351 0.81362 0.24803 0.0
H208 H 0.48065 0.91594 0.34606 0.0
H209 H 0.50199 0.91138 0.25186 0.0
H210 H 0.46597 0.75327 0.34938 0.0
H211 H 0.39607 0.74227 0.31451 0.0
C212 C 0.64943 0.44762 0.5843 0.0
C213 C 0.63647 0.43155 0.56015 0.0
C214 C 0.61215 0.41739 0.57007 0.0
C215 C 0.61148 0.42561 0.59967 0.0
N216 N 0.63384 0.44417 0.60856 0.0
Co217 Co 0.64215 0.4595 0.65041 0.0
N218 N 0.61353 0.43065 0.6705 0.0
C219 C 0.59319 0.41353 0.65526 0.0
C220 C 0.57583 0.39606 0.67509 0.0
C221 C 0.58582 0.40287 0.70453 0.0
C222 C 0.60883 0.42419 0.70113 0.0
N223 N 0.65129 0.4751 0.6922 0.0
C224 C 0.64384 0.46499 0.72107 0.0
C225 C 0.65465 0.48315 0.74386 0.0
C226 C 0.66901 0.50527 0.72861 0.0
C227 C 0.66625 0.49949 0.69742 0.0
N228 N 0.67074 0.48813 0.62993 0.0
C229 C 0.68358 0.51118 0.64167 0.0
C230 C 0.70422 0.52632 0.62409 0.0
C231 C 0.70444 0.51179 0.60014 0.0
C232 C 0.68363 0.48845 0.60403 0.0
N233 N 0.62051 0.4743 0.64365 0.0
C234 C 0.5853 0.49047 0.63506 0.0
C235 C 0.58836 0.48172 0.66396 0.0
C236 C 0.60578 0.47388 0.66771 0.0
C237 C 0.60071 0.49111 0.61042 0.0
C238 C 0.61824 0.48314 0.61523 0.0
N239 N 0.66268 0.4443 0.65734 0.0
C240 C 0.70166 0.44681 0.67046 0.0
C241 C 0.69215 0.42208 0.66131 0.0
C242 C 0.66743 0.4086 0.6513 0.0
C243 C 0.65307 0.41991 0.64969 0.0
C244 C 0.68659 0.45765 0.66813 0.0
H245 H 0.63422 0.40894 0.6416 0.0
H246 H 0.69433 0.47687 0.67455 0.0
H247 H 0.60669 0.4668 0.69027 0.0
H248 H 0.62968 0.48374 0.59587 0.0
C249 C 0.59296 0.41251 0.62234 0.0
C250 C 0.67622 0.46675 0.58329 0.0
C251 C 0.62466 0.43903 0.72747 0.0
C252 C 0.68011 0.51547 0.67292 0.0
H253 H 0.64393 0.42993 0.53803 0.0
H254 H 0.59724 0.40177 0.558 0.0
H255 H 0.55831 0.37992 0.66887 0.0
H256 H 0.57703 0.39346 0.72606 0.0
H257 H 0.65208 0.48075 0.76885 0.0
H258 H 0.6806 0.52328 0.73909 0.0
H259 H 0.71871 0.545 0.6296 0.0
H260 H 0.71897 0.51774 0.58288 0.0
H261 H 0.57683 0.48022 0.68372 0.0
H262 H 0.59938 0.49786 0.58762 0.0
H263 H 0.72062 0.45774 0.67874 0.0
H264 H 0.65906 0.38922 0.64493 0.0
C265 C 0.21118 0.64494 0.9165 0.0
C266 C 0.21506 0.63256 0.8923 0.0
C267 C 0.20555 0.60833 0.902 0.0
C268 C 0.19625 0.60714 0.93151 0.0
N269 N 0.19916 0.62906 0.94056 0.0
Co270 Co 0.19123 0.6366 0.98237 0.0
N271 N 0.1924 0.60848 1.00236 0.0
C272 C 0.19045 0.58876 0.98697 0.0
C273 C 0.19174 0.57198 1.00663 0.0
C274 C 0.19432 0.58164 0.03613 0.0
C275 C 0.19431 0.60384 0.03299 0.0
N276 N 0.18377 0.64494 0.02408 0.0
C277 C 0.18649 0.63757 0.05297 0.0
C278 C 0.17786 0.64736 0.07561 0.0
C279 C 0.16946 0.66114 0.06026 0.0
C280 C 0.17326 0.65899 0.02915 0.0
N281 N 0.19035 0.66475 0.962 0.0
C282 C 0.17925 0.6768 0.97362 0.0
C283 C 0.18436 0.69739 0.95627 0.0
C284 C 0.19977 0.6984 0.93258 0.0
C285 C 0.20307 0.67808 0.93639 0.0
N286 N 0.15493 0.61419 0.97512 0.0
C287 C 0.10364 0.57865 0.96638 0.0
C288 C 0.11549 0.58151 0.99518 0.0
C289 C 0.1407 0.59907 0.99901 0.0
C290 C 0.11833 0.59431 0.94185 0.0
C291 C 0.14381 0.61201 0.94674 0.0
N292 N 0.22682 0.65794 0.98997 0.0
C293 C 0.26195 0.69667 1.00639 0.0
C294 C 0.27804 0.68805 0.99788 0.0
C295 C 0.26813 0.66418 0.98582 0.0
C296 C 0.24255 0.64938 0.9823 0.0
C297 C 0.23625 0.68128 1.00205 0.0
H298 H 0.23554 0.63102 0.97309 0.0
H299 H 0.22403 0.68822 1.00829 0.0
H300 H 0.14871 0.59988 0.02152 0.0
H301 H 0.1546 0.62372 0.92751 0.0
C302 C 0.19148 0.58878 0.95408 0.0
C303 C 0.21811 0.67145 0.91575 0.0
C304 C 0.1942 0.61908 0.05946 0.0
C305 C 0.1709 0.67271 1.00467 0.0
H306 H 0.22427 0.64035 0.87031 0.0
H307 H 0.20703 0.5939 0.88989 0.0
H308 H 0.19169 0.55515 1.00025 0.0
H309 H 0.19587 0.57318 0.05744 0.0
H310 H 0.17718 0.64442 0.10057 0.0
H311 H 0.16204 0.67191 0.07064 0.0
H312 H 0.17943 0.71135 0.96176 0.0
H313 H 0.20823 0.7131 0.91554 0.0
H314 H 0.10551 0.56977 0.01483 0.0
H315 H 0.11021 0.59308 0.91911 0.0
H316 H 0.26915 0.71504 0.01613 0.0
H317 H 0.28013 0.65688 0.97943 0.0
C318 C 0.81428 0.44731 0.4335 0.0
C319 C 0.81049 0.43082 0.45747 0.0
C320 C 0.82029 0.41641 0.44755 0.0
C321 C 0.82966 0.42491 0.41814 0.0
N322 N 0.8265 0.44387 0.40937 0.0
Co323 Co 0.83447 0.45981 0.36779 0.0
N324 N 0.83365 0.43088 0.34744 0.0
C325 C 0.83609 0.41324 0.36253 0.0
C326 C 0.83558 0.39577 0.34251 0.0
C327 C 0.83294 0.40312 0.31312 0.0
C328 C 0.83193 0.42474 0.31674 0.0
N329 N 0.84198 0.47605 0.32628 0.0
C330 C 0.83941 0.46628 0.29728 0.0
C331 C 0.84748 0.48479 0.27477 0.0
C332 C 0.85563 0.50678 0.29035 0.0
C333 C 0.8521 0.50058 0.32144 0.0
N334 N 0.83497 0.48845 0.38853 0.0
C335 C 0.84586 0.51169 0.37717 0.0
C336 C 0.84053 0.52686 0.39477 0.0
C337 C 0.82519 0.51215 0.41833 0.0
C338 C 0.82214 0.48868 0.41421 0.0
N339 N 0.87078 0.47383 0.37523 0.0
C340 C 0.92213 0.48975 0.38429 0.0
C341 C 0.91042 0.48097 0.35538 0.0
C342 C 0.8852 0.47327 0.35139 0.0
C343 C 0.90725 0.49042 0.40875 0.0
C344 C 0.88174 0.48255 0.40371 0.0
N345 N 0.79887 0.4454 0.36002 0.0
C346 C 0.76346 0.44879 0.34392 0.0
C347 C 0.74761 0.42392 0.35191 0.0
C348 C 0.75778 0.41 0.36355 0.0
C349 C 0.78336 0.42098 0.3672 0.0
C350 C 0.78919 0.45927 0.3483 0.0
H351 H 0.79056 0.40967 0.37616 0.0
H352 H 0.80124 0.47854 0.34241 0.0
H353 H 0.87731 0.46628 0.32879 0.0
H354 H 0.87081 0.48322 0.42291 0.0
C355 C 0.83491 0.41181 0.39542 0.0
C356 C 0.80717 0.46677 0.43458 0.0
C357 C 0.83179 0.44019 0.29056 0.0
C358 C 0.8542 0.51633 0.34611 0.0
H359 H 0.8012 0.4291 0.47946 0.0
H360 H 0.819 0.40047 0.45947 0.0
H361 H 0.83633 0.37928 0.34856 0.0
H362 H 0.83223 0.39387 0.29148 0.0
H363 H 0.84777 0.4827 0.24975 0.0
H364 H 0.86258 0.52499 0.28013 0.0
H365 H 0.84527 0.54573 0.3895 0.0
H366 H 0.81658 0.5181 0.4355 0.0
H367 H 0.92053 0.47942 0.33576 0.0
H368 H 0.91524 0.49716 0.43157 0.0
H369 H 0.75606 0.45994 0.33456 0.0
H370 H 0.74596 0.39062 0.3696 0.0
C371 C 0.37599 0.8097 0.76674 0.0
C372 C 0.38838 0.80563 0.79086 0.0
C373 C 0.41267 0.8151 0.78117 0.0
C374 C 0.41389 0.82457 0.75174 0.0
N375 N 0.39191 0.82179 0.74274 0.0
Co376 Co 0.38444 0.83015 0.70109 0.0
N377 N 0.41256 0.82893 0.68098 0.0
C378 C 0.43232 0.8307 0.69629 0.0
C379 C 0.44912 0.82954 0.6765 0.0
C380 C 0.4394 0.82722 0.64702 0.0
C381 C 0.41714 0.82721 0.65031 0.0
N382 N 0.37629 0.83817 0.65958 0.0
C383 C 0.38364 0.83564 0.63064 0.0
C384 C 0.37394 0.84453 0.60814 0.0
C385 C 0.36023 0.85293 0.62366 0.0
C386 C 0.36233 0.84883 0.65472 0.0
N387 N 0.35624 0.83094 0.72157 0.0
C388 C 0.34423 0.84219 0.71015 0.0
C389 C 0.32356 0.837 0.72748 0.0
C390 C 0.32247 0.82139 0.75095 0.0
C391 C 0.34282 0.81805 0.74705 0.0
N392 N 0.40707 0.8662 0.70888 0.0
C393 C 0.44376 0.91659 0.71942 0.0
C394 C 0.44164 0.90516 0.69062 0.0
C395 C 0.42326 0.8804 0.68576 0.0
C396 C 0.42631 0.90232 0.74267 0.0
C397 C 0.40829 0.87715 0.73705 0.0
N398 N 0.36291 0.79478 0.69298 0.0
C399 C 0.32406 0.76004 0.67596 0.0
C400 C 0.33268 0.74387 0.68394 0.0
C401 C 0.35658 0.75353 0.69614 0.0
C402 C 0.37141 0.77896 0.70027 0.0
C403 C 0.33952 0.78559 0.68081 0.0
H404 H 0.38979 0.78577 0.70962 0.0
H405 H 0.33261 0.7979 0.67486 0.0
H406 H 0.42269 0.87266 0.66317 0.0
H407 H 0.39568 0.86639 0.75561 0.0
C408 C 0.43232 0.82944 0.72917 0.0
C409 C 0.34941 0.80288 0.76752 0.0
C410 C 0.40184 0.82757 0.62398 0.0
C411 C 0.34849 0.85092 0.67924 0.0
H412 H 0.38056 0.79634 0.81279 0.0
H413 H 0.42714 0.8135 0.79323 0.0
H414 H 0.46602 0.82956 0.68277 0.0
H415 H 0.44787 0.82591 0.6256 0.0
H416 H 0.37682 0.8453 0.58317 0.0
H417 H 0.34947 0.86046 0.61341 0.0
H418 H 0.30963 0.84205 0.7221 0.0
H419 H 0.3077 0.81284 0.76792 0.0
H420 H 0.45421 0.91534 0.67168 0.0
H421 H 0.42705 0.9103 0.76534 0.0
H422 H 0.30565 0.75303 0.66617 0.0
H423 H 0.36385 0.74146 0.70221 0.0
C424 C 0.57631 0.37244 0.10147 0.0
C425 C 0.59349 0.38521 0.12472 0.0
C426 C 0.60785 0.4093 0.11424 0.0
C427 C 0.59869 0.40999 0.0852 0.0
N428 N 0.57935 0.38788 0.07719 0.0
Co429 Co 0.56249 0.37945 0.03613 0.0
N430 N 0.59107 0.40736 0.01468 0.0
C431 C 0.60926 0.42747 0.02911 0.0
C432 C 0.62656 0.44405 1.00849 0.0
C433 C 0.61852 0.43382 0.9794 0.0
C434 C 0.59658 0.41148 0.98375 0.0
N435 N 0.54529 0.37016 0.9953 0.0
C436 C 0.55449 0.37698 0.96593 0.0
C437 C 0.53538 0.36646 0.94418 0.0
C438 C 0.51365 0.3528 0.96064 0.0
C439 C 0.52055 0.35571 0.99148 0.0
N440 N 0.53423 0.35155 0.05791 0.0
C441 C 0.51059 0.33916 0.04781 0.0
C442 C 0.49573 0.31923 0.06671 0.0
C443 C 0.51116 0.31906 0.08973 0.0
C444 C 0.53465 0.33889 0.08359 0.0
N445 N 0.54863 0.40176 0.04389 0.0
C446 C 0.53302 0.43728 0.05305 0.0
C447 C 0.54105 0.43385 0.02388 0.0
C448 C 0.54862 0.41631 0.01985 0.0
C449 C 0.53296 0.42219 0.07775 0.0
C450 C 0.54066 0.40449 0.07266 0.0
N451 N 0.57666 0.35821 0.02795 0.0
C452 C 0.57257 0.31922 0.01214 0.0
C453 C 0.59777 0.32839 0.01854 0.0
C454 C 0.61218 0.3526 0.02943 0.0
C455 C 0.60135 0.3672 0.03385 0.0
C456 C 0.56231 0.33452 0.01705 0.0
H457 H 0.613 0.3858 0.04228 0.0
H458 H 0.54282 0.32722 0.01219 0.0
H459 H 0.55505 0.41506 0.99701 0.0
H460 H 0.54045 0.39325 0.09203 0.0
C461 C 0.61144 0.42801 0.06193 0.0
C462 C 0.55699 0.34584 0.1027 0.0
C463 C 0.5805 0.39555 0.95816 0.0
C464 C 0.50519 0.34242 0.01687 0.0
H465 H 0.59582 0.37776 0.14647 0.0
H466 H 0.62425 0.42395 0.12545 0.0
H467 H 0.64347 0.46114 0.01395 0.0
H468 H 0.62771 0.44199 0.95754 0.0
H469 H 0.53691 0.36882 0.91911 0.0
H470 H 0.49514 0.34159 0.95113 0.0
H471 H 0.47647 0.30529 0.06285 0.0
H472 H 0.50592 0.3056 0.10838 0.0
H473 H 0.54212 0.44514 1.00405 0.0
H474 H 0.52682 0.42385 0.10079 0.0
H475 H 0.56102 0.30055 1.00341 0.0
H476 H 0.63182 0.36025 0.03431 0.0
C477 C 0.21285 0.57417 0.4342 0.0
C478 C 0.21774 0.59217 0.45647 0.0
C479 C 0.20797 0.60627 0.44524 0.0
C480 C 0.19776 0.59635 0.41667 0.0
N481 N 0.20039 0.57679 0.40961 0.0
Co482 Co 0.19183 0.55922 0.36907 0.0
N483 N 0.19274 0.58745 0.34651 0.0
C484 C 0.19069 0.6058 0.36011 0.0
C485 C 0.1912 0.62256 0.33877 0.0
C486 C 0.19343 0.61398 0.31007 0.0
C487 C 0.19422 0.5924 0.31542 0.0
N488 N 0.18369 0.54131 0.3288 0.0
C489 C 0.18602 0.54994 0.29913 0.0
C490 C 0.17758 0.53054 0.27797 0.0
C491 C 0.16942 0.50917 0.29512 0.0
C492 C 0.17334 0.51658 0.32575 0.0
N493 N 0.19128 0.53134 0.3919 0.0
C494 C 0.17981 0.50759 0.38255 0.0
C495 C 0.18456 0.49293 0.40221 0.0
C496 C 0.20019 0.5086 0.42494 0.0
C497 C 0.20423 0.53204 0.41784 0.0
N498 N 0.15566 0.54587 0.37685 0.0
C499 C 0.1052 0.53295 0.38661 0.0
C500 C 0.11641 0.53991 0.35716 0.0
C501 C 0.1412 0.54609 0.3528 0.0
C502 C 0.11973 0.53154 0.41101 0.0
C503 C 0.14491 0.53818 0.4057 0.0
N504 N 0.2273 0.57299 0.36086 0.0
C505 C 0.26229 0.56864 0.3455 0.0
C506 C 0.27831 0.59394 0.35081 0.0
C507 C 0.26847 0.60848 0.36107 0.0
C508 C 0.24301 0.59772 0.36587 0.0
C509 C 0.23667 0.55847 0.35069 0.0
H510 H 0.23608 0.60951 0.3738 0.0
H511 H 0.22446 0.53893 0.34655 0.0
H512 H 0.14879 0.55181 0.32976 0.0
H513 H 0.15585 0.53768 0.42502 0.0
C514 C 0.19238 0.6086 0.39283 0.0
C515 C 0.21977 0.55455 0.43649 0.0
C516 C 0.19386 0.57583 0.29052 0.0
C517 C 0.17117 0.5017 0.35168 0.0
H518 H 0.22794 0.59541 0.47801 0.0
H519 H 0.21001 0.62304 0.45556 0.0
H520 H 0.19075 0.6394 0.34349 0.0
H521 H 0.19402 0.62242 0.28775 0.0
H522 H 0.17706 0.53164 0.25281 0.0
H523 H 0.1622 0.49056 0.28621 0.0
H524 H 0.17898 0.47359 0.39909 0.0
H525 H 0.20816 0.50352 0.44406 0.0
H526 H 0.10608 0.54079 0.33729 0.0
H527 H 0.11202 0.52617 0.43424 0.0
H528 H 0.26944 0.55696 0.33732 0.0
H529 H 0.28043 0.62817 0.36519 0.0
C530 C 0.64898 0.20463 0.76872 0.0
C531 C 0.63624 0.20791 0.79305 0.0
C532 C 0.61187 0.19794 0.78341 0.0
C533 C 0.61095 0.18899 0.75379 0.0
N534 N 0.6332 0.19256 0.74463 0.0
Co535 Co 0.64115 0.18535 0.70266 0.0
N536 N 0.61258 0.18597 0.68292 0.0
C537 C 0.59242 0.18306 0.69839 0.0
C538 C 0.57508 0.18344 0.67877 0.0
C539 C 0.58489 0.18646 0.64921 0.0
C540 C 0.60777 0.18778 0.65234 0.0
N541 N 0.64986 0.17857 0.6608 0.0
C542 C 0.64231 0.18127 0.63202 0.0
C543 C 0.65273 0.17355 0.60911 0.0
C544 C 0.66701 0.16559 0.62419 0.0
C545 C 0.66456 0.16882 0.65541 0.0
N546 N 0.66975 0.18504 0.7228 0.0
C547 C 0.68236 0.17461 0.7109 0.0
C548 C 0.70311 0.18002 0.72818 0.0
C549 C 0.70364 0.19493 0.75211 0.0
C550 C 0.68289 0.19765 0.74852 0.0
N551 N 0.61927 0.14903 0.70963 0.0
C552 C 0.58286 0.09842 0.71959 0.0
C553 C 0.58518 0.11006 0.69081 0.0
C554 C 0.60343 0.13493 0.68625 0.0
C555 C 0.60006 0.11257 0.74306 0.0
C556 C 0.61795 0.13784 0.73772 0.0
N557 N 0.66191 0.221 0.69556 0.0
C558 C 0.70098 0.25715 0.68211 0.0
C559 C 0.69174 0.27257 0.69151 0.0
C560 C 0.66709 0.26159 0.7018 0.0
C561 C 0.65255 0.23597 0.70344 0.0
C562 C 0.68573 0.2313 0.68447 0.0
H563 H 0.63378 0.2283 0.71177 0.0
H564 H 0.69326 0.21966 0.67785 0.0
H565 H 0.60408 0.14287 0.66372 0.0
H566 H 0.63031 0.1485 0.75648 0.0
C567 C 0.59236 0.18381 0.73132 0.0
C568 C 0.67574 0.21213 0.76938 0.0
C569 C 0.62337 0.18846 0.62584 0.0
C570 C 0.67855 0.16667 0.67972 0.0
H571 H 0.64387 0.217 0.8151 0.0
H572 H 0.59711 0.19886 0.79566 0.0
H573 H 0.55769 0.18232 0.68519 0.0
H574 H 0.57605 0.18724 0.6278 0.0
H575 H 0.64996 0.17329 0.58416 0.0
H576 H 0.67835 0.15889 0.61357 0.0
H577 H 0.71746 0.17564 0.72248 0.0
H578 H 0.71833 0.20349 0.76916 0.0
H579 H 0.57282 0.09998 0.6717 0.0
H580 H 0.59917 0.10443 0.76571 0.0
H581 H 0.71986 0.26497 0.6736 0.0
H582 H 0.65892 0.27276 0.70837 0.0
C583 C 0.45168 0.64535 0.10184 0.0
C584 C 0.43499 0.63291 0.12575 0.0
C585 C 0.42023 0.60873 0.11594 0.0
C586 C 0.42873 0.60762 0.08665 0.0
N587 N 0.44802 0.62956 0.07786 0.0
Co588 Co 0.46411 0.63721 0.03638 0.0
N589 N 0.43482 0.60939 0.01599 0.0
C590 C 0.41684 0.5895 0.03107 0.0
C591 C 0.39917 0.57269 0.01104 0.0
C592 C 0.40675 0.58256 0.98163 0.0
C593 C 0.42869 0.60497 0.98526 0.0
N594 N 0.48053 0.64559 0.99497 0.0
C595 C 0.47075 0.63844 0.96594 0.0
C596 C 0.48941 0.6486 0.94354 0.0
C597 C 0.51149 0.66218 0.95924 0.0
C598 C 0.50519 0.65966 0.99029 0.0
N599 N 0.49308 0.66511 0.05718 0.0
C600 C 0.51644 0.67713 0.04596 0.0
C601 C 0.53184 0.69762 0.06346 0.0
C602 C 0.51718 0.6986 0.08679 0.0
C603 C 0.49347 0.67837 0.08266 0.0
N604 N 0.47746 0.61445 0.04416 0.0
C605 C 0.49044 0.5771 0.05423 0.0
C606 C 0.48237 0.58051 0.02507 0.0
C607 C 0.47617 0.59903 0.02055 0.0
C608 C 0.4929 0.59376 0.07811 0.0
C609 C 0.48622 0.61219 0.07265 0.0
N610 N 0.45032 0.65881 0.0282 0.0
C611 C 0.45441 0.69752 0.01084 0.0
C612 C 0.42946 0.68883 0.01834 0.0
C613 C 0.41519 0.66501 0.03059 0.0
C614 C 0.42587 0.65028 0.03514 0.0
C615 C 0.46458 0.68216 0.01611 0.0
H616 H 0.41426 0.63193 0.04442 0.0
H617 H 0.48389 0.68909 0.01046 0.0
H618 H 0.46958 0.60024 0.99778 0.0
H619 H 0.48756 0.62421 0.09162 0.0
C620 C 0.41536 0.58933 0.06396 0.0
C621 C 0.4715 0.67182 0.10281 0.0
C622 C 0.44445 0.62031 0.9591 0.0
C623 C 0.52104 0.67322 0.015 0.0
H624 H 0.43335 0.64062 0.14762 0.0
H625 H 0.40406 0.59428 0.12782 0.0
H626 H 0.38241 0.55561 0.01708 0.0
H627 H 0.39743 0.57407 0.95997 0.0
H628 H 0.48734 0.6462 0.91852 0.0
H629 H 0.52982 0.67319 0.94912 0.0
H630 H 0.55087 0.71155 0.05823 0.0
H631 H 0.52331 0.71326 0.10379 0.0
H632 H 0.48065 0.56873 1.00556 0.0
H633 H 0.49915 0.59208 0.10109 0.0
H634 H 0.46583 0.71587 1.00102 0.0
H635 H 0.39573 0.6577 0.03629 0.0
H636 H 0.59252 0.22499 0.43726 0.0
H637 H 0.58298 0.15185 0.42921 0.0
H638 H 0.60238 0.22579 0.4929 0.0
H639 H 0.59293 0.15246 0.48468 0.0
H640 H 0.58669 0.15079 0.59166 0.0
H641 H 0.57641 0.15088 0.53642 0.0
H642 H 0.6337 0.22785 0.52938 0.0
H643 H 0.64374 0.22752 0.58475 0.0
C644 C 0.59279 0.20918 0.44739 0.0
C645 C 0.5873 0.18851 0.42876 0.0
C646 C 0.59849 0.2096 0.47931 0.0
C647 C 0.5985 0.18918 0.49367 0.0
C648 C 0.59289 0.16846 0.47482 0.0
C649 C 0.58741 0.16816 0.44289 0.0
C650 C 0.59685 0.16777 0.57831 0.0
C651 C 0.61581 0.18923 0.59264 0.0
C652 C 0.59116 0.16781 0.54651 0.0
C653 C 0.60421 0.18936 0.52802 0.0
C654 C 0.62299 0.21095 0.54268 0.0
C655 C 0.62881 0.21081 0.57445 0.0
H656 H 0.44272 0.58601 0.76044 0.0
H657 H 0.37289 0.58392 0.773 0.0
H658 H 0.45257 0.59616 0.8156 0.0
H659 H 0.38224 0.59347 0.82854 0.0
H660 H 0.41809 0.6345 0.92117 0.0
H661 H 0.40749 0.62468 0.86588 0.0
H662 H 0.4423 0.5795 0.86683 0.0
H663 H 0.45312 0.58983 0.92182 0.0
C664 C 0.42955 0.58795 0.77502 0.0
C665 C 0.40724 0.58465 0.76216 0.0
C666 C 0.43502 0.59347 0.80687 0.0
C667 C 0.41826 0.5957 0.82703 0.0
C668 C 0.39587 0.59233 0.81398 0.0
C669 C 0.39041 0.58676 0.78209 0.0
C670 C 0.42327 0.62234 0.90949 0.0
C671 C 0.43642 0.61294 0.92581 0.0
C672 C 0.41715 0.6166 0.87775 0.0
C673 C 0.42409 0.60132 0.86136 0.0
C674 C 0.43695 0.59166 0.87813 0.0
C675 C 0.443 0.59737 0.90982 0.0
H676 H 0.87102 0.44905 0.253 0.0
H677 H 0.79111 0.41372 0.25291 0.0
H678 H 0.87048 0.43825 0.198 0.0
H679 H 0.79028 0.40313 0.19762 0.0
H680 H 0.79676 0.36823 0.1051 0.0
H681 H 0.79645 0.37793 0.16046 0.0
H682 H 0.86376 0.44824 0.1467 0.0
H683 H 0.86419 0.43806 0.09169 0.0
C684 C 0.8533 0.43886 0.24112 0.0
C685 C 0.83111 0.43218 0.25728 0.0
C686 C 0.85294 0.43284 0.20943 0.0
C687 C 0.83033 0.41988 0.19282 0.0
C688 C 0.80808 0.41286 0.20937 0.0
C689 C 0.80849 0.41897 0.24111 0.0
C690 C 0.81131 0.38586 0.11395 0.0
C691 C 0.83022 0.40256 0.09383 0.0
C692 C 0.81115 0.39151 0.14574 0.0
C693 C 0.83008 0.41396 0.15853 0.0
C694 C 0.84898 0.43065 0.13816 0.0
C695 C 0.84908 0.42499 0.1064 0.0
H696 H 0.45352 0.86699 0.43066 0.0
H697 H 0.41929 0.78744 0.43125 0.0
H698 H 0.4431 0.86638 0.48587 0.0
H699 H 0.40905 0.78656 0.48673 0.0
H700 H 0.37427 0.79281 0.57978 0.0
H701 H 0.38364 0.79244 0.52427 0.0
H702 H 0.45399 0.8599 0.53696 0.0
H703 H 0.44417 0.86032 0.59216 0.0
C704 C 0.44363 0.84933 0.44269 0.0
C705 C 0.43715 0.82726 0.42661 0.0
C706 C 0.43784 0.84894 0.47449 0.0
C707 C 0.42531 0.82642 0.49128 0.0
C708 C 0.41846 0.80428 0.47483 0.0
C709 C 0.42436 0.80472 0.44298 0.0
C710 C 0.39185 0.80736 0.57067 0.0
C711 C 0.40867 0.82632 0.59053 0.0
C712 C 0.3973 0.80718 0.5388 0.0
C713 C 0.41966 0.82615 0.52567 0.0
C714 C 0.43647 0.84508 0.54578 0.0
C715 C 0.43103 0.84519 0.57764 0.0
H716 H 0.58745 0.43648 0.92536 0.0
H717 H 0.58911 0.36864 0.91439 0.0
H718 H 0.59775 0.44622 0.87009 0.0
H719 H 0.59903 0.37797 0.85884 0.0
H720 H 0.64098 0.41526 0.76673 0.0
H721 H 0.63079 0.4047 0.82203 0.0
H722 H 0.58111 0.43441 0.81851 0.0
H723 H 0.59168 0.44509 0.76343 0.0
C724 C 0.59024 0.42374 0.9111 0.0
C725 C 0.58791 0.40201 0.92442 0.0
C726 C 0.59587 0.42914 0.87923 0.0
C727 C 0.59929 0.41294 0.85954 0.0
C728 C 0.59693 0.39115 0.87305 0.0
C729 C 0.59117 0.38571 0.90494 0.0
C730 C 0.62771 0.41927 0.77781 0.0
C731 C 0.61701 0.43085 0.7607 0.0
C732 C 0.62178 0.41319 0.80955 0.0
C733 C 0.60512 0.41871 0.82521 0.0
C734 C 0.59428 0.43012 0.80772 0.0
C735 C 0.60012 0.43606 0.77599 0.0
H736 H 0.15446 0.56421 0.25179 0.0
H737 H 0.23452 0.60316 0.2531 0.0
H738 H 0.15501 0.57455 0.19657 0.0
H739 H 0.23541 0.61317 0.19755 0.0
H740 H 0.22831 0.64681 0.10433 0.0
H741 H 0.22858 0.63709 0.15971 0.0
H742 H 0.16252 0.56583 0.14559 0.0
H743 H 0.16201 0.57614 0.09063 0.0
C744 C 0.17221 0.57496 0.24011 0.0
C745 C 0.19444 0.5828 0.25674 0.0
C746 C 0.1726 0.58077 0.20829 0.0
C747 C 0.19527 0.59464 0.192 0.0
C748 C 0.21754 0.60271 0.209 0.0
C749 C 0.2171 0.59689 0.24088 0.0
C750 C 0.21403 0.62897 0.11311 0.0
C751 C 0.19545 0.61206 0.09288 0.0
C752 C 0.21418 0.6233 0.14493 0.0
C753 C 0.19559 0.60056 0.15764 0.0
C754 C 0.17704 0.58365 0.13715 0.0
C755 C 0.1769 0.58937 0.10539 0.0
H756 H 0.71244 0.41492 0.39551 0.0
H757 H 0.72235 0.40306 0.2989 0.0
H758 H 0.66853 0.38287 0.39241 0.0
H759 H 0.67899 0.37041 0.29576 0.0
H760 H 0.60383 0.30778 0.29365 0.0
H761 H 0.63508 0.35188 0.2975 0.0
H762 H 0.65227 0.33953 0.39136 0.0
H763 H 0.62058 0.29601 0.3875 0.0
C764 C 0.70486 0.40606 0.37329 0.0
C765 C 0.7205 0.41139 0.34736 0.0
C766 C 0.67984 0.38751 0.37155 0.0
C767 C 0.67023 0.37362 0.34402 0.0
C768 C 0.6855 0.38075 0.31729 0.0
C769 C 0.71042 0.39948 0.31898 0.0
C770 C 0.61359 0.31494 0.3155 0.0
C771 C 0.60985 0.29879 0.3404 0.0
C772 C 0.63167 0.34007 0.31765 0.0
C773 C 0.64656 0.3493 0.34456 0.0
C774 C 0.64108 0.33335 0.37039 0.0
C775 C 0.62292 0.30833 0.36827 0.0
H776 H 0.33006 0.71948 0.63092 0.0
H777 H 0.30432 0.70822 0.72605 0.0
H778 H 0.31855 0.67607 0.6272 0.0
H779 H 0.29162 0.66424 0.7223 0.0
H780 H 0.32889 0.6146 0.71966 0.0
H781 H 0.3175 0.64661 0.72303 0.0
H782 H 0.29246 0.6326 0.62715 0.0
H783 H 0.30501 0.60115 0.62382 0.0
C784 C 0.32069 0.70727 0.65049 0.0
C785 C 0.31793 0.71695 0.67867 0.0
C786 C 0.31402 0.68231 0.64845 0.0
C787 C 0.30446 0.66658 0.67465 0.0
C788 C 0.29937 0.67589 0.70188 0.0
C789 C 0.30631 0.70095 0.70397 0.0
C790 C 0.31994 0.61769 0.69983 0.0
C791 C 0.31768 0.6055 0.67158 0.0
C792 C 0.31334 0.63605 0.70165 0.0
C793 C 0.30438 0.64258 0.67517 0.0
C794 C 0.29975 0.62843 0.64781 0.0
C795 C 0.3066 0.61021 0.64595 0.0
H796 H 0.62037 0.32697 0.96564 0.0
H797 H 0.60438 0.29903 0.0598 0.0
H798 H 0.65193 0.31492 0.96137 0.0
H799 H 0.63546 0.2859 0.05552 0.0
H800 H 0.72269 0.3219 0.053 0.0
H801 H 0.67929 0.31102 0.05673 0.0
H802 H 0.66826 0.28795 0.96014 0.0
H803 H 0.71223 0.30003 0.95644 0.0
C804 C 0.62286 0.31708 0.98487 0.0
C805 C 0.61006 0.31378 0.01294 0.0
C806 C 0.64093 0.31007 0.98251 0.0
C807 C 0.64657 0.29968 1.00829 0.0
C808 C 0.63192 0.29424 0.03541 0.0
C809 C 0.61394 0.30145 0.0378 0.0
C810 C 0.71064 0.31348 0.03306 0.0
C811 C 0.72057 0.3117 1.00451 0.0
C812 C 0.68569 0.30718 0.03509 0.0
C813 C 0.67025 0.29899 1.00853 0.0
C814 C 0.67971 0.29469 0.98086 0.0
C815 C 0.70477 0.30128 0.97878 0.0
H816 H 0.40919 0.71903 0.38528 0.0
H817 H 0.42082 0.70946 0.28846 0.0
H818 H 0.37684 0.67565 0.38868 0.0
H819 H 0.38909 0.66554 0.29181 0.0
H820 H 0.30204 0.6168 0.29781 0.0
H821 H 0.34554 0.64872 0.2934 0.0
H822 H 0.35878 0.63193 0.38704 0.0
H823 H 0.31468 0.60043 0.39145 0.0
C824 C 0.40564 0.70718 0.36519 0.0
C825 C 0.41741 0.71735 0.3367 0.0
C826 C 0.38709 0.68225 0.36703 0.0
C827 C 0.37997 0.66705 0.34033 0.0
C828 C 0.39372 0.67679 0.31265 0.0
C829 C 0.4121 0.70181 0.31077 0.0
C830 C 0.31456 0.61927 0.31686 0.0
C831 C 0.30525 0.60622 0.34484 0.0
C832 C 0.33957 0.63757 0.31442 0.0
C833 C 0.35576 0.64324 0.34006 0.0
C834 C 0.34679 0.62838 0.36704 0.0
C835 C 0.32166 0.61013 0.3695 0.0
H836 H 0.72031 0.42128 0.71013 0.0
H837 H 0.69683 0.39378 0.61676 0.0
H838 H 0.73409 0.39112 0.71795 0.0
H839 H 0.70909 0.36292 0.62484 0.0
H840 H 0.71985 0.30132 0.64253 0.0
H841 H 0.73383 0.34527 0.63465 0.0
H842 H 0.70932 0.34881 0.72799 0.0
H843 H 0.69689 0.30569 0.73613 0.0
C844 C 0.71878 0.40927 0.69099 0.0
C845 C 0.70688 0.40934 0.66317 0.0
C846 C 0.72641 0.39178 0.69553 0.0
C847 C 0.72202 0.37394 0.67244 0.0
C848 C 0.71284 0.37616 0.6433 0.0
C849 C 0.70547 0.39373 0.63872 0.0
C850 C 0.71848 0.31187 0.66171 0.0
C851 C 0.70666 0.3 0.68961 0.0
C852 C 0.72621 0.33699 0.65714 0.0
C853 C 0.722 0.35054 0.68028 0.0
C854 C 0.71292 0.33924 0.70949 0.0
C855 C 0.70547 0.31431 0.71411 0.0
H856 H 0.31339 0.71432 0.95445 0.0
H857 H 0.30307 0.69274 0.05124 0.0
H858 H 0.35752 0.72705 0.95831 0.0
H859 H 0.34661 0.70418 0.05513 0.0
H860 H 0.42176 0.71751 0.05926 0.0
H861 H 0.3901 0.72977 0.05434 0.0
H862 H 0.37539 0.7016 0.9599 0.0
H863 H 0.40768 0.69059 0.96477 0.0
C864 C 0.3209 0.7132 0.97684 0.0
C865 C 0.30512 0.70275 1.00263 0.0
C866 C 0.34605 0.72017 0.97902 0.0
C867 C 0.35566 0.7162 1.00685 0.0
C868 C 0.34015 0.70781 0.03338 0.0
C869 C 0.31511 0.70118 0.03125 0.0
C870 C 0.4125 0.71515 0.03705 0.0
C871 C 0.41711 0.70335 0.01228 0.0
C872 C 0.39414 0.72183 0.0343 0.0
C873 C 0.37974 0.71626 1.00694 0.0
C874 C 0.38614 0.70649 0.98124 0.0
C875 C 0.40466 0.70011 0.98393 0.0
H876 H 0.49301 0.05969 0.27209 0.0
H877 H 0.56321 0.07847 0.31461 0.0
H878 H 0.48253 0.01606 0.26888 0.0
H879 H 0.55302 0.03517 0.31083 0.0
H880 H 0.463 0.9379 0.31251 0.0
H881 H 0.47328 0.98125 0.30902 0.0
H882 H 0.545 1.00104 0.27042 0.0
H883 H 0.53445 0.95736 0.27333 0.0
C884 C 0.50638 0.05464 0.28032 0.0
C885 C 0.52896 0.07278 0.29368 0.0
C886 C 0.50031 0.02954 0.27868 0.0
C887 C 0.5169 0.02188 0.2896 0.0
C888 C 0.53981 0.04022 0.30195 0.0
C889 C 0.54561 0.06512 0.30426 0.0
C890 C 0.48089 0.95141 0.30295 0.0
C891 C 0.49786 0.94393 0.29323 0.0
C892 C 0.48675 0.97634 0.30081 0.0
C893 C 0.51002 0.99488 0.28949 0.0
C894 C 0.52694 0.9874 0.27941 0.0
C895 C 0.52083 0.96228 0.28088 0.0
H896 H 0.49296 0.56037 0.65554 0.0
H897 H 0.44671 0.49522 0.60081 0.0
H898 H 0.52678 0.55145 0.65313 0.0
H899 H 0.48069 0.4858 0.59885 0.0
H900 H 0.55415 0.48409 0.58479 0.0
H901 H 0.52139 0.49511 0.58124 0.0
H902 H 0.53918 0.52504 0.67447 0.0
H903 H 0.57222 0.51516 0.67737 0.0
C904 C 0.48989 0.54396 0.64306 0.0
C905 C 0.46674 0.52837 0.62879 0.0
C906 C 0.50942 0.53873 0.64177 0.0
C907 C 0.50668 0.51753 0.62632 0.0
C908 C 0.48381 0.50236 0.61094 0.0
C909 C 0.46419 0.50774 0.61207 0.0
C910 C 0.55133 0.49338 0.60434 0.0
C911 C 0.56604 0.49852 0.63145 0.0
C912 C 0.53222 0.49945 0.60247 0.0
C913 C 0.52728 0.51108 0.62754 0.0
C914 C 0.54231 0.51649 0.65435 0.0
C915 C 0.56127 0.51045 0.6562 0.0
H916 H 0.94116 0.48627 0.98716 0.0
H917 H 0.9606 0.43983 0.93375 0.0
H918 H 0.98389 0.52007 0.98443 0.0
H919 H 1.00398 0.47386 0.93138 0.0
H920 H 0.07896 0.54747 0.91626 0.0
H921 H 0.03516 0.51458 0.91298 0.0
H922 H 0.02284 0.53252 1.00606 0.0
H923 H 0.06579 0.56559 1.00873 0.0
C924 C 0.9546 0.48315 0.97491 0.0
C925 C 0.94719 0.45993 0.96113 0.0
C926 C 0.97937 0.50268 0.97342 0.0
C927 C 0.99797 0.49991 0.9582 0.0
C928 C 0.99042 0.47699 0.94327 0.0
C929 C 0.96543 0.45735 0.94464 0.0
C930 C 0.0668 0.54463 0.93583 0.0
C931 C 0.07631 0.55938 0.96284 0.0
C932 C 0.04161 0.52547 0.93412 0.0
C933 C 0.025 0.52054 0.95923 0.0
C934 C 0.03457 0.53563 0.98592 0.0
C935 C 0.05957 0.55462 0.98763 0.0
H936 H 0.06574 0.49517 0.41967 0.0
H937 H 0.08471 0.55979 0.36358 0.0
H938 H 0.02227 0.48567 0.42155 0.0
H939 H 0.04194 0.55085 0.36596 0.0
H940 H 0.9601 0.5144 0.34195 0.0
H941 H 1.00306 0.52438 0.34499 0.0
H942 H 0.99072 0.4948 0.43858 0.0
H943 H 0.94686 0.48364 0.43488 0.0
C944 C 0.06078 0.50757 0.4081 0.0
C945 C 0.07891 0.52806 0.39103 0.0
C946 C 0.03574 0.50214 0.40919 0.0
C947 C 0.02803 0.51714 0.39341 0.0
C948 C 0.04655 0.53823 0.37762 0.0
C949 C 0.07135 0.5435 0.37636 0.0
C950 C 0.96629 0.50978 0.36323 0.0
C951 C 0.9495 0.49789 0.38803 0.0
C952 C 0.99133 0.51589 0.36517 0.0
C953 C 1.00093 0.51061 0.39212 0.0
C954 C 0.98427 0.49904 0.41724 0.0
C955 C 0.95903 0.49288 0.41527 0.0
H956 H 0.53333 0.07785 0.70529 0.0
H957 H 0.58552 0.05867 0.74435 0.0
H958 H 0.50021 0.0345 0.70888 0.0
H959 H 0.55232 0.01501 0.74757 0.0
H960 H 0.44094 0.95629 0.74372 0.0
H961 H 0.47413 0.99994 0.74697 0.0
H962 H 0.52654 0.98045 0.70954 0.0
H963 H 0.49342 0.9371 0.70592 0.0
C964 C 0.53775 0.06439 0.71483 0.0
C965 C 0.56227 0.07194 0.72446 0.0
C966 C 0.51863 0.03945 0.71706 0.0
C967 C 0.5234 0.02099 0.72845 0.0
C968 C 0.54787 0.02857 0.73849 0.0
C969 C 0.56692 0.05368 0.73685 0.0
C970 C 0.4596 0.96128 0.73653 0.0
C971 C 0.46435 0.94302 0.72448 0.0
C972 C 0.47866 0.98639 0.73817 0.0
C973 C 0.5032 0.99396 0.72848 0.0
C974 C 0.50805 0.9755 0.71746 0.0
C975 C 0.48895 0.95056 0.71522 0.0
H976 H 0.46262 0.52925 0.03349 0.0
H977 H 0.52931 0.57617 0.08564 0.0
H978 H 0.47151 0.49552 0.03621 0.0
H979 H 0.5387 0.54226 0.08788 0.0
H980 H 0.54077 0.4692 0.10276 0.0
H981 H 0.52988 0.50198 0.10624 0.0
H982 H 0.49731 0.48261 0.01434 0.0
H983 H 0.50708 0.4496 0.01155 0.0
C984 C 0.47936 0.53248 0.04546 0.0
C985 C 0.49538 0.5558 0.05892 0.0
C986 C 0.48458 0.51299 0.04692 0.0
C987 C 0.5062 0.51592 0.06171 0.0
C988 C 0.52181 0.53898 0.07631 0.0
C989 C 0.51644 0.55856 0.07502 0.0
C990 C 0.53093 0.47169 0.0835 0.0
C991 C 0.52503 0.45654 0.05678 0.0
C992 C 0.52492 0.49081 0.08532 0.0
C993 C 0.51259 0.49532 0.0606 0.0
C994 C 0.50641 0.47984 0.03421 0.0
C995 C 0.51239 0.46088 0.03241 0.0
H996 H 0.5497 0.21172 0.18664 0.0
H997 H 0.56655 0.26088 0.26463 0.0
H998 H 0.54985 0.243 0.15183 0.0
H999 H 0.56786 0.29281 0.23003 0.0
H1000 H 0.54776 0.33962 0.16613 0.0
H1001 H 0.54785 0.30846 0.20094 0.0
H1002 H 0.56988 0.27916 0.12374 0.0
H1003 H 0.56863 0.30978 0.08909 0.0
C1004 C 0.5538 0.22942 0.19629 0.0
C1005 C 0.55827 0.23373 0.2285 0.0
C1006 C 0.55404 0.24764 0.17621 0.0
C1007 C 0.5589 0.27104 0.18748 0.0
C1008 C 0.56355 0.27521 0.2199 0.0
C1009 C 0.56306 0.25688 0.23996 0.0
C1010 C 0.55271 0.32654 0.15671 0.0
C1011 C 0.55831 0.3274 0.12476 0.0
C1012 C 0.55293 0.30856 0.17679 0.0
C1013 C 0.55891 0.29072 0.16579 0.0
C1014 C 0.5647 0.2919 0.13363 0.0
C1015 C 0.56424 0.30975 0.11356 0.0
H1016 H 0.26107 0.55149 0.42136 0.0
H1017 H 0.22335 0.55893 0.50123 0.0
H1018 H 0.29296 0.55198 0.45556 0.0
H1019 H 0.25523 0.55967 0.5356 0.0
H1020 H 0.32824 0.58092 0.58867 0.0
H1021 H 0.29743 0.58212 0.55386 0.0
H1022 H 0.30187 0.52927 0.49312 0.0
H1023 H 0.33284 0.52849 0.52791 0.0
C1024 C 0.25966 0.55343 0.44627 0.0
C1025 C 0.23982 0.55583 0.45823 0.0
C1026 C 0.27796 0.55356 0.46608 0.0
C1027 C 0.27715 0.556 0.4988 0.0
C1028 C 0.25714 0.55829 0.5107 0.0
C1029 C 0.23876 0.55803 0.49085 0.0
C1030 C 0.32269 0.56966 0.56778 0.0
C1031 C 0.33304 0.55454 0.56127 0.0
C1032 C 0.30478 0.57016 0.54779 0.0
C1033 C 0.29671 0.55574 0.52026 0.0
C1034 C 0.3075 0.54091 0.51365 0.0
C1035 C 0.32526 0.5403 0.53378 0.0
H1036 H 0.81214 0.31587 0.86939 0.0
H1037 H 0.75785 0.33068 0.91126 0.0
H1038 H 0.77973 0.28405 0.8363 0.0
H1039 H 0.72567 0.30006 0.87621 0.0
H1040 H 0.68772 0.26096 0.77584 0.0
H1041 H 0.71826 0.29303 0.81105 0.0
H1042 H 0.73571 0.23969 0.84982 0.0
H1043 H 0.70398 0.20736 0.81656 0.0
C1044 C 0.79323 0.31211 0.87203 0.0
C1045 C 0.78762 0.32526 0.89429 0.0
C1046 C 0.77462 0.29402 0.85259 0.0
C1047 C 0.74985 0.2891 0.85363 0.0
C1048 C 0.74444 0.30315 0.87471 0.0
C1049 C 0.76295 0.32078 0.89483 0.0
C1050 C 0.69791 0.25599 0.79207 0.0
C1051 C 0.69387 0.23157 0.79224 0.0
C1052 C 0.71549 0.27445 0.81228 0.0
C1053 C 0.72994 0.26922 0.83307 0.0
C1054 C 0.72543 0.24466 0.83377 0.0
C1055 C 0.70739 0.22611 0.81425 0.0
H1056 H 0.43519 0.68485 0.10794 0.0
H1057 H 0.50402 0.69941 0.15067 0.0
H1058 H 0.43366 0.7155 0.14282 0.0
H1059 H 0.50348 0.73127 0.18358 0.0
H1060 H 0.50413 0.80846 0.20119 0.0
H1061 H 0.50345 0.77601 0.16822 0.0
H1062 H 0.43376 0.72219 0.20943 0.0
H1063 H 0.43541 0.75442 0.24433 0.0
C1064 C 0.45013 0.69469 0.12452 0.0
C1065 C 0.47025 0.69013 0.12536 0.0
C1066 C 0.44926 0.71234 0.14454 0.0
C1067 C 0.46867 0.72633 0.16581 0.0
C1068 C 0.48844 0.72133 0.16715 0.0
C1069 C 0.48894 0.70322 0.14782 0.0
C1070 C 0.48903 0.7896 0.2041 0.0
C1071 C 0.47042 0.78408 0.22668 0.0
C1072 C 0.48847 0.77098 0.18474 0.0
C1073 C 0.4687 0.74626 0.18621 0.0
C1074 C 0.44936 0.74091 0.20761 0.0
C1075 C 0.4503 0.75946 0.22764 0.0
H1076 H 0.68829 0.42992 0.57688 0.0
H1077 H 0.70392 0.49938 0.53559 0.0
H1078 H 0.71871 0.42828 0.54141 0.0
H1079 H 0.73551 0.49867 0.50204 0.0
H1080 H 0.81221 0.49905 0.48256 0.0
H1081 H 0.77983 0.49833 0.51599 0.0
H1082 H 0.72572 0.42868 0.47558 0.0
H1083 H 0.75788 0.43036 0.44024 0.0
C1084 C 0.6983 0.44495 0.56044 0.0
C1085 C 0.69414 0.46527 0.56018 0.0
C1086 C 0.71581 0.44402 0.54009 0.0
C1087 C 0.73005 0.46357 0.51907 0.0
C1088 C 0.72538 0.48352 0.51826 0.0
C1089 C 0.70741 0.48408 0.53792 0.0
C1090 C 0.7933 0.48394 0.47995 0.0
C1091 C 0.78766 0.46535 0.45747 0.0
C1092 C 0.77471 0.48335 0.49955 0.0
C1093 C 0.74993 0.46359 0.49843 0.0
C1094 C 0.74449 0.44427 0.47714 0.0
C1095 C 0.76299 0.44522 0.45686 0.0
H1096 H 0.26736 0.68424 0.90965 0.0
H1097 H 0.21297 0.69926 0.86833 0.0
H1098 H 0.29939 0.71483 0.87429 0.0
H1099 H 0.24525 0.73105 0.83492 0.0
H1100 H 0.3215 0.80775 0.81502 0.0
H1101 H 0.28973 0.77542 0.8484 0.0
H1102 H 0.30611 0.72172 0.80873 0.0
H1103 H 0.33666 0.75379 0.7734 0.0
C1104 C 0.26222 0.69418 0.89327 0.0
C1105 C 0.23757 0.68976 0.89296 0.0
C1106 C 0.28064 0.71179 0.87298 0.0
C1107 C 0.27516 0.72588 0.85195 0.0
C1108 C 0.25041 0.72103 0.85115 0.0
C1109 C 0.23188 0.70296 0.87076 0.0
C1110 C 0.31782 0.78892 0.81249 0.0
C1111 C 0.33105 0.78337 0.79022 0.0
C1112 C 0.29977 0.77037 0.8321 0.0
C1113 C 0.29498 0.74573 0.83121 0.0
C1114 C 0.3091 0.74038 0.81011 0.0
C1115 C 0.32669 0.75883 0.78982 0.0
loop_
_geom_bond_atom_site_label_1
_geom_bond_atom_site_label_2
_geom_bond_distance
_geom_bond_site_symmetry_2
_ccdc_geom_bond_type
C0 C1 1.443 . S
C0 N4 1.376 . S
C0 C38 1.389 . S
C1 C0 1.443 . S
C1 C2 1.340 . S
C1 H41 0.951 . S
C2 C1 1.340 . S
C2 C3 1.439 . S
C2 H42 0.950 . S
C3 C2 1.439 . S
C3 N4 1.374 . S
C3 C37 1.395 . S
N4 C0 1.376 . S
N4 C3 1.374 . S
N4 Co5 2.008 . S
Co5 N4 2.008 . S
Co5 N6 1.995 . S
Co5 N11 2.008 . S
Co5 N16 1.995 . S
Co5 N21 2.282 . S
Co5 N27 2.282 . S
N6 Co5 1.995 . S
N6 C7 1.376 . S
N6 C10 1.383 . S
C7 N6 1.376 . S
C7 C8 1.446 . S
C7 C37 1.391 . S
C8 C7 1.446 . S
C8 C9 1.339 . S
C8 H43 0.949 . S
C9 C8 1.339 . S
C9 C10 1.439 . S
C9 H44 0.950 . S
C10 N6 1.383 . S
C10 C9 1.439 . S
C10 C39 1.392 . S
N11 Co5 2.008 . S
N11 C12 1.376 . S
N11 C15 1.374 . S
C12 N11 1.376 . S
C12 C13 1.443 . S
C12 C39 1.389 . S
C13 C12 1.443 . S
C13 C14 1.340 . S
C13 H45 0.951 . S
C14 C13 1.340 . S
C14 C15 1.439 . S
C14 H46 0.950 . S
C15 N11 1.374 . S
C15 C14 1.439 . S
C15 C40 1.395 . S
N16 Co5 1.995 . S
N16 C17 1.376 . S
N16 C20 1.383 . S
C17 N16 1.376 . S
C17 C18 1.446 . S
C17 C40 1.391 . S
C18 C17 1.446 . S
C18 C19 1.339 . S
C18 H47 0.949 . S
C19 C18 1.339 . S
C19 C20 1.439 . S
C19 H48 0.950 . S
C20 N16 1.383 . S
C20 C19 1.439 . S
C20 C38 1.392 . S
N21 Co5 2.282 . S
N21 C24 1.332 . S
N21 C26 1.332 . S
C22 C23 1.386 . S
C22 C25 1.388 . S
C23 C22 1.386 . S
C23 C24 1.382 . S
C23 H49 0.950 . S
C24 N21 1.332 . S
C24 C23 1.382 . S
C24 H35 0.952 . S
C25 C22 1.388 . S
C25 C26 1.382 . S
C25 H50 0.950 . S
C26 N21 1.332 . S
C26 C25 1.382 . S
C26 H36 0.948 . S
N27 Co5 2.282 . S
N27 C31 1.332 . S
N27 C32 1.332 . S
C28 C29 1.388 . S
C28 C32 1.382 . S
C28 H51 0.950 . S
C29 C28 1.388 . S
C29 C30 1.386 . S
C30 C29 1.386 . S
C30 C31 1.382 . S
C30 H52 0.950 . S
C31 N27 1.332 . S
C31 C30 1.382 . S
C31 H33 0.952 . S
C32 N27 1.332 . S
C32 C28 1.382 . S
C32 H34 0.948 . S
H33 C31 0.952 . S
H34 C32 0.948 . S
H35 C24 0.952 . S
H36 C26 0.948 . S
C37 C3 1.395 . S
C37 C7 1.391 . S
C38 C0 1.389 . S
C38 C20 1.392 . S
C39 C10 1.392 . S
C39 C12 1.389 . S
C40 C15 1.395 . S
C40 C17 1.391 . S
H41 C1 0.951 . S
H42 C2 0.950 . S
H43 C8 0.949 . S
H44 C9 0.950 . S
H45 C13 0.951 . S
H46 C14 0.950 . S
H47 C18 0.949 . S
H48 C19 0.950 . S
H49 C23 0.950 . S
H50 C25 0.950 . S
H51 C28 0.950 . S
H52 C30 0.950 . S
C53 C54 1.443 . S
C53 N57 1.376 . S
C53 C91 1.389 . S
C54 C53 1.443 . S
C54 C55 1.340 . S
C54 H94 0.951 . S
C55 C54 1.340 . S
C55 C56 1.439 . S
C55 H95 0.950 . S
C56 C55 1.439 . S
C56 N57 1.374 . S
C56 C90 1.395 . S
N57 C53 1.376 . S
N57 C56 1.374 . S
N57 Co58 2.008 . S
Co58 N57 2.008 . S
Co58 N59 1.995 . S
Co58 N64 2.008 . S
Co58 N69 1.995 . S
Co58 N74 2.282 . S
Co58 N80 2.282 . S
N59 Co58 1.995 . S
N59 C60 1.376 . S
N59 C63 1.383 . S
C60 N59 1.376 . S
C60 C61 1.446 . S
C60 C90 1.391 . S
C61 C60 1.446 . S
C61 C62 1.339 . S
C61 H96 0.949 . S
C62 C61 1.339 . S
C62 C63 1.439 . S
C62 H97 0.950 . S
C63 N59 1.383 . S
C63 C62 1.439 . S
C63 C92 1.392 . S
N64 Co58 2.008 . S
N64 C65 1.376 . S
N64 C68 1.374 . S
C65 N64 1.376 . S
C65 C66 1.443 . S
C65 C92 1.389 . S
C66 C65 1.443 . S
C66 C67 1.340 . S
C66 H98 0.951 . S
C67 C66 1.340 . S
C67 C68 1.439 . S
C67 H99 0.950 . S
C68 N64 1.374 . S
C68 C67 1.439 . S
C68 C93 1.395 . S
N69 Co58 1.995 . S
N69 C70 1.376 . S
N69 C73 1.383 . S
C70 N69 1.376 . S
C70 C71 1.446 . S
C70 C93 1.391 . S
C71 C70 1.446 . S
C71 C72 1.339 . S
C71 H100 0.949 . S
C72 C71 1.339 . S
C72 C73 1.439 . S
C72 H101 0.950 . S
C73 N69 1.383 . S
C73 C72 1.439 . S
C73 C91 1.392 . S
N74 Co58 2.282 . S
N74 C77 1.332 . S
N74 C79 1.332 . S
C75 C76 1.386 . S
C75 C78 1.388 . S
C76 C75 1.386 . S
C76 C77 1.382 . S
C76 H102 0.950 . S
C77 N74 1.332 . S
C77 C76 1.382 . S
C77 H88 0.952 . S
C78 C75 1.388 . S
C78 C79 1.382 . S
C78 H103 0.950 . S
C79 N74 1.332 . S
C79 C78 1.382 . S
C79 H89 0.948 . S
N80 Co58 2.282 . S
N80 C84 1.332 . S
N80 C85 1.332 . S
C81 C82 1.388 . S
C81 C85 1.382 . S
C81 H104 0.950 . S
C82 C81 1.388 . S
C82 C83 1.386 . S
C83 C82 1.386 . S
C83 C84 1.382 . S
C83 H105 0.950 . S
C84 N80 1.332 . S
C84 C83 1.382 . S
C84 H86 0.952 . S
C85 N80 1.332 . S
C85 C81 1.382 . S
C85 H87 0.948 . S
H86 C84 0.952 . S
H87 C85 0.948 . S
H88 C77 0.952 . S
H89 C79 0.948 . S
C90 C56 1.395 . S
C90 C60 1.391 . S
C91 C53 1.389 . S
C91 C73 1.392 . S
C92 C63 1.392 . S
C92 C65 1.389 . S
C93 C68 1.395 . S
C93 C70 1.391 . S
H94 C54 0.951 . S
H95 C55 0.950 . S
H96 C61 0.949 . S
H97 C62 0.950 . S
H98 C66 0.951 . S
H99 C67 0.950 . S
H100 C71 0.949 . S
H101 C72 0.950 . S
H102 C76 0.950 . S
H103 C78 0.950 . S
H104 C81 0.950 . S
H105 C83 0.950 . S
C106 C107 1.443 . S
C106 N110 1.376 . S
C106 C144 1.389 . S
C107 C106 1.443 . S
C107 C108 1.340 . S
C107 H147 0.951 . S
C108 C107 1.340 . S
C108 C109 1.439 . S
C108 H148 0.950 . S
C109 C108 1.439 . S
C109 N110 1.374 . S
C109 C143 1.395 . S
N110 C106 1.376 . S
N110 C109 1.374 . S
N110 Co111 2.008 . S
Co111 N110 2.008 . S
Co111 N112 1.995 1_556 S
Co111 N117 2.008 1_556 S
Co111 N122 1.995 . S
Co111 N127 2.282 . S
Co111 N133 2.282 1_556 S
N112 Co111 1.995 1_554 S
N112 C113 1.384 . S
N112 C116 1.383 . S
C113 N112 1.384 . S
C113 C114 1.456 . S
C113 C143 1.376 1_554 S
C114 C113 1.456 . S
C114 C115 1.339 . S
C114 H149 0.949 . S
C115 C114 1.339 . S
C115 C116 1.439 . S
C115 H150 0.950 . S
C116 N112 1.383 . S
C116 C115 1.439 . S
C116 C145 1.392 . S
N117 Co111 2.008 1_554 S
N117 C118 1.376 . S
N117 C121 1.374 . S
C118 N117 1.376 . S
C118 C119 1.443 . S
C118 C145 1.389 . S
C119 C118 1.443 . S
C119 C120 1.340 . S
C119 H151 0.951 . S
C120 C119 1.340 . S
C120 C121 1.439 . S
C120 H152 0.950 . S
C121 N117 1.374 . S
C121 C120 1.439 . S
C121 C146 1.395 . S
N122 Co111 1.995 . S
N122 C123 1.388 . S
N122 C126 1.383 . S
C123 N122 1.388 . S
C123 C124 1.461 . S
C123 C146 1.367 1_556 S
C124 C123 1.461 . S
C124 C125 1.339 . S
C124 H153 0.949 . S
C125 C124 1.339 . S
C125 C126 1.439 . S
C125 H154 0.950 . S
C126 N122 1.383 . S
C126 C125 1.439 . S
C126 C144 1.392 . S
N127 Co111 2.282 . S
N127 C130 1.332 1_556 S
N127 C132 1.332 . S
C128 C129 1.386 . S
C128 C131 1.388 1_554 S
C129 C128 1.386 . S
C129 C130 1.382 . S
C129 H155 0.950 . S
C130 N127 1.332 1_554 S
C130 C129 1.382 . S
C130 H141 0.952 . S
C131 C128 1.388 1_556 S
C131 C132 1.382 . S
C131 H156 0.950 . S
C132 N127 1.332 . S
C132 C131 1.382 . S
C132 H142 0.948 . S
N133 Co111 2.282 1_554 S
N133 C137 1.332 1_554 S
N133 C138 1.332 . S
C134 C135 1.388 1_554 S
C134 C138 1.382 . S
C134 H157 0.950 . S
C135 C134 1.388 1_556 S
C135 C136 1.386 . S
C136 C135 1.386 . S
C136 C137 1.382 . S
C136 H158 0.950 . S
C137 N133 1.332 1_556 S
C137 C136 1.382 . S
C137 H139 0.952 . S
C138 N133 1.332 . S
C138 C134 1.382 . S
C138 H140 0.948 . S
H139 C137 0.952 . S
H140 C138 0.948 . S
H141 C130 0.952 . S
H142 C132 0.948 . S
C143 C109 1.395 . S
C143 C113 1.376 1_556 S
C144 C106 1.389 . S
C144 C126 1.392 . S
C145 C116 1.392 . S
C145 C118 1.389 . S
C146 C121 1.395 . S
C146 C123 1.367 1_554 S
H147 C107 0.951 . S
H148 C108 0.950 . S
H149 C114 0.949 . S
H150 C115 0.950 . S
H151 C119 0.951 . S
H152 C120 0.950 . S
H153 C124 0.949 . S
H154 C125 0.950 . S
H155 C129 0.950 . S
H156 C131 0.950 . S
H157 C134 0.950 . S
H158 C136 0.950 . S
C159 C160 1.443 . S
C159 N163 1.376 . S
C159 C197 1.389 . S
C160 C159 1.443 . S
C160 C161 1.340 . S
C160 H200 0.951 . S
C161 C160 1.340 . S
C161 C162 1.439 . S
C161 H201 0.950 . S
C162 C161 1.439 . S
C162 N163 1.374 . S
C162 C196 1.395 . S
N163 C159 1.376 . S
N163 C162 1.374 . S
N163 Co164 2.008 . S
Co164 N163 2.008 . S
Co164 N165 1.995 . S
Co164 N170 2.008 . S
Co164 N175 1.995 . S
Co164 N180 2.282 . S
Co164 N186 2.282 . S
N165 Co164 1.995 . S
N165 C166 1.376 . S
N165 C169 1.383 . S
C166 N165 1.376 . S
C166 C167 1.446 . S
C166 C196 1.391 . S
C167 C166 1.446 . S
C167 C168 1.339 . S
C167 H202 0.949 . S
C168 C167 1.339 . S
C168 C169 1.439 . S
C168 H203 0.950 . S
C169 N165 1.383 . S
C169 C168 1.439 . S
C169 C198 1.392 . S
N170 Co164 2.008 . S
N170 C171 1.376 . S
N170 C174 1.374 . S
C171 N170 1.376 . S
C171 C172 1.443 . S
C171 C198 1.389 . S
C172 C171 1.443 . S
C172 C173 1.340 . S
C172 H204 0.951 . S
C173 C172 1.340 . S
C173 C174 1.439 . S
C173 H205 0.950 . S
C174 N170 1.374 . S
C174 C173 1.439 . S
C174 C199 1.395 . S
N175 Co164 1.995 . S
N175 C176 1.376 . S
N175 C179 1.383 . S
C176 N175 1.376 . S
C176 C177 1.446 . S
C176 C199 1.391 . S
C177 C176 1.446 . S
C177 C178 1.339 . S
C177 H206 0.949 . S
C178 C177 1.339 . S
C178 C179 1.439 . S
C178 H207 0.950 . S
C179 N175 1.383 . S
C179 C178 1.439 . S
C179 C197 1.392 . S
N180 Co164 2.282 . S
N180 C183 1.332 . S
N180 C185 1.332 . S
C181 C182 1.386 . S
C181 C184 1.388 . S
C182 C181 1.386 . S
C182 C183 1.382 . S
C182 H208 0.950 . S
C183 N180 1.332 . S
C183 C182 1.382 . S
C183 H194 0.952 . S
C184 C181 1.388 . S
C184 C185 1.382 . S
C184 H209 0.950 . S
C185 N180 1.332 . S
C185 C184 1.382 . S
C185 H195 0.948 . S
N186 Co164 2.282 . S
N186 C190 1.332 . S
N186 C191 1.332 . S
C187 C188 1.388 . S
C187 C191 1.382 . S
C187 H210 0.950 . S
C188 C187 1.388 . S
C188 C189 1.386 . S
C189 C188 1.386 . S
C189 C190 1.382 . S
C189 H211 0.950 . S
C190 N186 1.332 . S
C190 C189 1.382 . S
C190 H192 0.952 . S
C191 N186 1.332 . S
C191 C187 1.382 . S
C191 H193 0.948 . S
H192 C190 0.952 . S
H193 C191 0.948 . S
H194 C183 0.952 . S
H195 C185 0.948 . S
C196 C162 1.395 . S
C196 C166 1.391 . S
C197 C159 1.389 . S
C197 C179 1.392 . S
C198 C169 1.392 . S
C198 C171 1.389 . S
C199 C174 1.395 . S
C199 C176 1.391 . S
H200 C160 0.951 . S
H201 C161 0.950 . S
H202 C167 0.949 . S
H203 C168 0.950 . S
H204 C172 0.951 . S
H205 C173 0.950 . S
H206 C177 0.949 . S
H207 C178 0.950 . S
H208 C182 0.950 . S
H209 C184 0.950 . S
H210 C187 0.950 . S
H211 C189 0.950 . S
C212 C213 1.443 . S
C212 N216 1.376 . S
C212 C250 1.389 . S
C213 C212 1.443 . S
C213 C214 1.340 . S
C213 H253 0.951 . S
C214 C213 1.340 . S
C214 C215 1.439 . S
C214 H254 0.950 . S
C215 C214 1.439 . S
C215 N216 1.374 . S
C215 C249 1.395 . S
N216 C212 1.376 . S
N216 C215 1.374 . S
N216 Co217 2.008 . S
Co217 N216 2.008 . S
Co217 N218 1.995 . S
Co217 N223 2.008 . S
Co217 N228 1.995 . S
Co217 N233 2.282 . S
Co217 N239 2.282 . S
N218 Co217 1.995 . S
N218 C219 1.376 . S
N218 C222 1.383 . S
C219 N218 1.376 . S
C219 C220 1.446 . S
C219 C249 1.391 . S
C220 C219 1.446 . S
C220 C221 1.339 . S
C220 H255 0.949 . S
C221 C220 1.339 . S
C221 C222 1.439 . S
C221 H256 0.950 . S
C222 N218 1.383 . S
C222 C221 1.439 . S
C222 C251 1.392 . S
N223 Co217 2.008 . S
N223 C224 1.376 . S
N223 C227 1.374 . S
C224 N223 1.376 . S
C224 C225 1.443 . S
C224 C251 1.389 . S
C225 C224 1.443 . S
C225 C226 1.340 . S
C225 H257 0.951 . S
C226 C225 1.340 . S
C226 C227 1.439 . S
C226 H258 0.950 . S
C227 N223 1.374 . S
C227 C226 1.439 . S
C227 C252 1.395 . S
N228 Co217 1.995 . S
N228 C229 1.376 . S
N228 C232 1.383 . S
C229 N228 1.376 . S
C229 C230 1.446 . S
C229 C252 1.391 . S
C230 C229 1.446 . S
C230 C231 1.339 . S
C230 H259 0.949 . S
C231 C230 1.339 . S
C231 C232 1.439 . S
C231 H260 0.950 . S
C232 N228 1.383 . S
C232 C231 1.439 . S
C232 C250 1.392 . S
N233 Co217 2.282 . S
N233 C236 1.332 . S
N233 C238 1.332 . S
C234 C235 1.386 . S
C234 C237 1.388 . S
C235 C234 1.386 . S
C235 C236 1.382 . S
C235 H261 0.950 . S
C236 N233 1.332 . S
C236 C235 1.382 . S
C236 H247 0.952 . S
C237 C234 1.388 . S
C237 C238 1.382 . S
C237 H262 0.950 . S
C238 N233 1.332 . S
C238 C237 1.382 . S
C238 H248 0.948 . S
N239 Co217 2.282 . S
N239 C243 1.332 . S
N239 C244 1.332 . S
C240 C241 1.388 . S
C240 C244 1.382 . S
C240 H263 0.950 . S
C241 C240 1.388 . S
C241 C242 1.386 . S
C242 C241 1.386 . S
C242 C243 1.382 . S
C242 H264 0.950 . S
C243 N239 1.332 . S
C243 C242 1.382 . S
C243 H245 0.952 . S
C244 N239 1.332 . S
C244 C240 1.382 . S
C244 H246 0.948 . S
H245 C243 0.952 . S
H246 C244 0.948 . S
H247 C236 0.952 . S
H248 C238 0.948 . S
C249 C215 1.395 . S
C249 C219 1.391 . S
C250 C212 1.389 . S
C250 C232 1.392 . S
C251 C222 1.392 . S
C251 C224 1.389 . S
C252 C227 1.395 . S
C252 C229 1.391 . S
H253 C213 0.951 . S
H254 C214 0.950 . S
H255 C220 0.949 . S
H256 C221 0.950 . S
H257 C225 0.951 . S
H258 C226 0.950 . S
H259 C230 0.949 . S
H260 C231 0.950 . S
H261 C235 0.950 . S
H262 C237 0.950 . S
H263 C240 0.950 . S
H264 C242 0.950 . S
C265 C266 1.443 . S
C265 N269 1.376 . S
C265 C303 1.389 . S
C266 C265 1.443 . S
C266 C267 1.340 . S
C266 H306 0.951 . S
C267 C266 1.340 . S
C267 C268 1.439 . S
C267 H307 0.950 . S
C268 C267 1.439 . S
C268 N269 1.374 . S
C268 C302 1.395 . S
N269 C265 1.376 . S
N269 C268 1.374 . S
N269 Co270 2.008 . S
Co270 N269 2.008 . S
Co270 N271 1.995 1_556 S
Co270 N276 2.008 1_556 S
Co270 N281 1.995 . S
Co270 N286 2.282 . S
Co270 N292 2.282 1_556 S
N271 Co270 1.995 1_554 S
N271 C272 1.384 . S
N271 C275 1.383 . S
C272 N271 1.384 . S
C272 C273 1.456 . S
C272 C302 1.376 1_554 S
C273 C272 1.456 . S
C273 C274 1.339 . S
C273 H308 0.949 . S
C274 C273 1.339 . S
C274 C275 1.439 . S
C274 H309 0.950 . S
C275 N271 1.383 . S
C275 C274 1.439 . S
C275 C304 1.392 . S
N276 Co270 2.008 1_554 S
N276 C277 1.376 . S
N276 C280 1.374 . S
C277 N276 1.376 . S
C277 C278 1.443 . S
C277 C304 1.389 . S
C278 C277 1.443 . S
C278 C279 1.340 . S
C278 H310 0.951 . S
C279 C278 1.340 . S
C279 C280 1.439 . S
C279 H311 0.950 . S
C280 N276 1.374 . S
C280 C279 1.439 . S
C280 C305 1.395 . S
N281 Co270 1.995 . S
N281 C282 1.388 . S
N281 C285 1.383 . S
C282 N281 1.388 . S
C282 C283 1.461 . S
C282 C305 1.367 1_556 S
C283 C282 1.461 . S
C283 C284 1.339 . S
C283 H312 0.949 . S
C284 C283 1.339 . S
C284 C285 1.439 . S
C284 H313 0.950 . S
C285 N281 1.383 . S
C285 C284 1.439 . S
C285 C303 1.392 . S
N286 Co270 2.282 . S
N286 C289 1.332 1_556 S
N286 C291 1.332 . S
C287 C288 1.386 . S
C287 C290 1.388 1_554 S
C288 C287 1.386 . S
C288 C289 1.382 . S
C288 H314 0.950 . S
C289 N286 1.332 1_554 S
C289 C288 1.382 . S
C289 H300 0.952 . S
C290 C287 1.388 1_556 S
C290 C291 1.382 . S
C290 H315 0.950 . S
C291 N286 1.332 . S
C291 C290 1.382 . S
C291 H301 0.948 . S
N292 Co270 2.282 1_554 S
N292 C296 1.332 1_554 S
N292 C297 1.332 . S
C293 C294 1.388 1_554 S
C293 C297 1.382 . S
C293 H316 0.950 . S
C294 C293 1.388 1_556 S
C294 C295 1.386 . S
C295 C294 1.386 . S
C295 C296 1.382 . S
C295 H317 0.950 . S
C296 N292 1.332 1_556 S
C296 C295 1.382 . S
C296 H298 0.952 . S
C297 N292 1.332 . S
C297 C293 1.382 . S
C297 H299 0.948 . S
H298 C296 0.952 . S
H299 C297 0.948 . S
H300 C289 0.952 . S
H301 C291 0.948 . S
C302 C268 1.395 . S
C302 C272 1.376 1_556 S
C303 C265 1.389 . S
C303 C285 1.392 . S
C304 C275 1.392 . S
C304 C277 1.389 . S
C305 C280 1.395 . S
C305 C282 1.367 1_554 S
H306 C266 0.951 . S
H307 C267 0.950 . S
H308 C273 0.949 . S
H309 C274 0.950 . S
H310 C278 0.951 . S
H311 C279 0.950 . S
H312 C283 0.949 . S
H313 C284 0.950 . S
H314 C288 0.950 . S
H315 C290 0.950 . S
H316 C293 0.950 . S
H317 C295 0.950 . S
C318 C319 1.443 . S
C318 N322 1.376 . S
C318 C356 1.389 . S
C319 C318 1.443 . S
C319 C320 1.340 . S
C319 H359 0.951 . S
C320 C319 1.340 . S
C320 C321 1.439 . S
C320 H360 0.950 . S
C321 C320 1.439 . S
C321 N322 1.374 . S
C321 C355 1.395 . S
N322 C318 1.376 . S
N322 C321 1.374 . S
N322 Co323 2.008 . S
Co323 N322 2.008 . S
Co323 N324 1.995 . S
Co323 N329 2.008 . S
Co323 N334 1.995 . S
Co323 N339 2.282 . S
Co323 N345 2.282 . S
N324 Co323 1.995 . S
N324 C325 1.376 . S
N324 C328 1.383 . S
C325 N324 1.376 . S
C325 C326 1.446 . S
C325 C355 1.391 . S
C326 C325 1.446 . S
C326 C327 1.339 . S
C326 H361 0.949 . S
C327 C326 1.339 . S
C327 C328 1.439 . S
C327 H362 0.950 . S
C328 N324 1.383 . S
C328 C327 1.439 . S
C328 C357 1.392 . S
N329 Co323 2.008 . S
N329 C330 1.376 . S
N329 C333 1.374 . S
C330 N329 1.376 . S
C330 C331 1.443 . S
C330 C357 1.389 . S
C331 C330 1.443 . S
C331 C332 1.340 . S
C331 H363 0.951 . S
C332 C331 1.340 . S
C332 C333 1.439 . S
C332 H364 0.950 . S
C333 N329 1.374 . S
C333 C332 1.439 . S
C333 C358 1.395 . S
N334 Co323 1.995 . S
N334 C335 1.376 . S
N334 C338 1.383 . S
C335 N334 1.376 . S
C335 C336 1.446 . S
C335 C358 1.391 . S
C336 C335 1.446 . S
C336 C337 1.339 . S
C336 H365 0.949 . S
C337 C336 1.339 . S
C337 C338 1.439 . S
C337 H366 0.950 . S
C338 N334 1.383 . S
C338 C337 1.439 . S
C338 C356 1.392 . S
N339 Co323 2.282 . S
N339 C342 1.332 . S
N339 C344 1.332 . S
C340 C341 1.386 . S
C340 C343 1.388 . S
C341 C340 1.386 . S
C341 C342 1.382 . S
C341 H367 0.950 . S
C342 N339 1.332 . S
C342 C341 1.382 . S
C342 H353 0.952 . S
C343 C340 1.388 . S
C343 C344 1.382 . S
C343 H368 0.950 . S
C344 N339 1.332 . S
C344 C343 1.382 . S
C344 H354 0.948 . S
N345 Co323 2.282 . S
N345 C349 1.332 . S
N345 C350 1.332 . S
C346 C347 1.388 . S
C346 C350 1.382 . S
C346 H369 0.950 . S
C347 C346 1.388 . S
C347 C348 1.386 . S
C348 C347 1.386 . S
C348 C349 1.382 . S
C348 H370 0.950 . S
C349 N345 1.332 . S
C349 C348 1.382 . S
C349 H351 0.952 . S
C350 N345 1.332 . S
C350 C346 1.382 . S
C350 H352 0.948 . S
H351 C349 0.952 . S
H352 C350 0.948 . S
H353 C342 0.952 . S
H354 C344 0.948 . S
C355 C321 1.395 . S
C355 C325 1.391 . S
C356 C318 1.389 . S
C356 C338 1.392 . S
C357 C328 1.392 . S
C357 C330 1.389 . S
C358 C333 1.395 . S
C358 C335 1.391 . S
H359 C319 0.951 . S
H360 C320 0.950 . S
H361 C326 0.949 . S
H362 C327 0.950 . S
H363 C331 0.951 . S
H364 C332 0.950 . S
H365 C336 0.949 . S
H366 C337 0.950 . S
H367 C341 0.950 . S
H368 C343 0.950 . S
H369 C346 0.950 . S
H370 C348 0.950 . S
C371 C372 1.443 . S
C371 N375 1.376 . S
C371 C409 1.389 . S
C372 C371 1.443 . S
C372 C373 1.340 . S
C372 H412 0.951 . S
C373 C372 1.340 . S
C373 C374 1.439 . S
C373 H413 0.950 . S
C374 C373 1.439 . S
C374 N375 1.374 . S
C374 C408 1.395 . S
N375 C371 1.376 . S
N375 C374 1.374 . S
N375 Co376 2.008 . S
Co376 N375 2.008 . S
Co376 N377 1.995 . S
Co376 N382 2.008 . S
Co376 N387 1.995 . S
Co376 N392 2.282 . S
Co376 N398 2.282 . S
N377 Co376 1.995 . S
N377 C378 1.376 . S
N377 C381 1.383 . S
C378 N377 1.376 . S
C378 C379 1.446 . S
C378 C408 1.391 . S
C379 C378 1.446 . S
C379 C380 1.339 . S
C379 H414 0.949 . S
C380 C379 1.339 . S
C380 C381 1.439 . S
C380 H415 0.950 . S
C381 N377 1.383 . S
C381 C380 1.439 . S
C381 C410 1.392 . S
N382 Co376 2.008 . S
N382 C383 1.376 . S
N382 C386 1.374 . S
C383 N382 1.376 . S
C383 C384 1.443 . S
C383 C410 1.389 . S
C384 C383 1.443 . S
C384 C385 1.340 . S
C384 H416 0.951 . S
C385 C384 1.340 . S
C385 C386 1.439 . S
C385 H417 0.950 . S
C386 N382 1.374 . S
C386 C385 1.439 . S
C386 C411 1.395 . S
N387 Co376 1.995 . S
N387 C388 1.376 . S
N387 C391 1.383 . S
C388 N387 1.376 . S
C388 C389 1.446 . S
C388 C411 1.391 . S
C389 C388 1.446 . S
C389 C390 1.339 . S
C389 H418 0.949 . S
C390 C389 1.339 . S
C390 C391 1.439 . S
C390 H419 0.950 . S
C391 N387 1.383 . S
C391 C390 1.439 . S
C391 C409 1.392 . S
N392 Co376 2.282 . S
N392 C395 1.332 . S
N392 C397 1.332 . S
C393 C394 1.386 . S
C393 C396 1.388 . S
C394 C393 1.386 . S
C394 C395 1.382 . S
C394 H420 0.950 . S
C395 N392 1.332 . S
C395 C394 1.382 . S
C395 H406 0.952 . S
C396 C393 1.388 . S
C396 C397 1.382 . S
C396 H421 0.950 . S
C397 N392 1.332 . S
C397 C396 1.382 . S
C397 H407 0.948 . S
N398 Co376 2.282 . S
N398 C402 1.332 . S
N398 C403 1.332 . S
C399 C400 1.388 . S
C399 C403 1.382 . S
C399 H422 0.950 . S
C400 C399 1.388 . S
C400 C401 1.386 . S
C401 C400 1.386 . S
C401 C402 1.382 . S
C401 H423 0.950 . S
C402 N398 1.332 . S
C402 C401 1.382 . S
C402 H404 0.952 . S
C403 N398 1.332 . S
C403 C399 1.382 . S
C403 H405 0.948 . S
H404 C402 0.952 . S
H405 C403 0.948 . S
H406 C395 0.952 . S
H407 C397 0.948 . S
C408 C374 1.395 . S
C408 C378 1.391 . S
C409 C371 1.389 . S
C409 C391 1.392 . S
C410 C381 1.392 . S
C410 C383 1.389 . S
C411 C386 1.395 . S
C411 C388 1.391 . S
H412 C372 0.951 . S
H413 C373 0.950 . S
H414 C379 0.949 . S
H415 C380 0.950 . S
H416 C384 0.951 . S
H417 C385 0.950 . S
H418 C389 0.949 . S
H419 C390 0.950 . S
H420 C394 0.950 . S
H421 C396 0.950 . S
H422 C399 0.950 . S
H423 C401 0.950 . S
C424 C425 1.443 . S
C424 N428 1.376 . S
C424 C462 1.389 . S
C425 C424 1.443 . S
C425 C426 1.340 . S
C425 H465 0.951 . S
C426 C425 1.340 . S
C426 C427 1.439 . S
C426 H466 0.950 . S
C427 C426 1.439 . S
C427 N428 1.374 . S
C427 C461 1.395 . S
N428 C424 1.376 . S
N428 C427 1.374 . S
N428 Co429 2.008 . S
Co429 N428 2.008 . S
Co429 N430 1.995 1_554 S
Co429 N435 2.008 1_554 S
Co429 N440 1.995 . S
Co429 N445 2.282 . S
Co429 N451 2.282 1_554 S
N430 Co429 1.995 1_556 S
N430 C431 1.384 . S
N430 C434 1.383 . S
C431 N430 1.384 . S
C431 C432 1.456 . S
C431 C461 1.376 1_556 S
C432 C431 1.456 . S
C432 C433 1.339 . S
C432 H467 0.949 . S
C433 C432 1.339 . S
C433 C434 1.439 . S
C433 H468 0.950 . S
C434 N430 1.383 . S
C434 C433 1.439 . S
C434 C463 1.392 . S
N435 Co429 2.008 1_556 S
N435 C436 1.376 . S
N435 C439 1.374 . S
C436 N435 1.376 . S
C436 C437 1.443 . S
C436 C463 1.389 . S
C437 C436 1.443 . S
C437 C438 1.340 . S
C437 H469 0.951 . S
C438 C437 1.340 . S
C438 C439 1.439 . S
C438 H470 0.950 . S
C439 N435 1.374 . S
C439 C438 1.439 . S
C439 C464 1.395 . S
N440 Co429 1.995 . S
N440 C441 1.388 . S
N440 C444 1.383 . S
C441 N440 1.388 . S
C441 C442 1.461 . S
C441 C464 1.367 1_554 S
C442 C441 1.461 . S
C442 C443 1.339 . S
C442 H471 0.949 . S
C443 C442 1.339 . S
C443 C444 1.439 . S
C443 H472 0.950 . S
C444 N440 1.383 . S
C444 C443 1.439 . S
C444 C462 1.392 . S
N445 Co429 2.282 . S
N445 C448 1.332 1_554 S
N445 C450 1.332 . S
C446 C447 1.386 . S
C446 C449 1.388 1_556 S
C447 C446 1.386 . S
C447 C448 1.382 . S
C447 H473 0.950 . S
C448 N445 1.332 1_556 S
C448 C447 1.382 . S
C448 H459 0.952 . S
C449 C446 1.388 1_554 S
C449 C450 1.382 . S
C449 H474 0.950 . S
C450 N445 1.332 . S
C450 C449 1.382 . S
C450 H460 0.948 . S
N451 Co429 2.282 1_556 S
N451 C455 1.332 1_556 S
N451 C456 1.332 . S
C452 C453 1.388 1_556 S
C452 C456 1.382 . S
C452 H475 0.950 . S
C453 C452 1.388 1_554 S
C453 C454 1.386 . S
C454 C453 1.386 . S
C454 C455 1.382 . S
C454 H476 0.950 . S
C455 N451 1.332 1_554 S
C455 C454 1.382 . S
C455 H457 0.952 . S
C456 N451 1.332 . S
C456 C452 1.382 . S
C456 H458 0.948 . S
H457 C455 0.952 . S
H458 C456 0.948 . S
H459 C448 0.952 . S
H460 C450 0.948 . S
C461 C427 1.395 . S
C461 C431 1.376 1_554 S
C462 C424 1.389 . S
C462 C444 1.392 . S
C463 C434 1.392 . S
C463 C436 1.389 . S
C464 C439 1.395 . S
C464 C441 1.367 1_556 S
H465 C425 0.951 . S
H466 C426 0.950 . S
H467 C432 0.949 . S
H468 C433 0.950 . S
H469 C437 0.951 . S
H470 C438 0.950 . S
H471 C442 0.949 . S
H472 C443 0.950 . S
H473 C447 0.950 . S
H474 C449 0.950 . S
H475 C452 0.950 . S
H476 C454 0.950 . S
C477 C478 1.443 . S
C477 N481 1.376 . S
C477 C515 1.389 . S
C478 C477 1.443 . S
C478 C479 1.340 . S
C478 H518 0.951 . S
C479 C478 1.340 . S
C479 C480 1.439 . S
C479 H519 0.950 . S
C480 C479 1.439 . S
C480 N481 1.374 . S
C480 C514 1.395 . S
N481 C477 1.376 . S
N481 C480 1.374 . S
N481 Co482 2.008 . S
Co482 N481 2.008 . S
Co482 N483 1.995 . S
Co482 N488 2.008 . S
Co482 N493 1.995 . S
Co482 N498 2.282 . S
Co482 N504 2.282 . S
N483 Co482 1.995 . S
N483 C484 1.376 . S
N483 C487 1.383 . S
C484 N483 1.376 . S
C484 C485 1.446 . S
C484 C514 1.391 . S
C485 C484 1.446 . S
C485 C486 1.339 . S
C485 H520 0.949 . S
C486 C485 1.339 . S
C486 C487 1.439 . S
C486 H521 0.950 . S
C487 N483 1.383 . S
C487 C486 1.439 . S
C487 C516 1.392 . S
N488 Co482 2.008 . S
N488 C489 1.376 . S
N488 C492 1.374 . S
C489 N488 1.376 . S
C489 C490 1.443 . S
C489 C516 1.389 . S
C490 C489 1.443 . S
C490 C491 1.340 . S
C490 H522 0.951 . S
C491 C490 1.340 . S
C491 C492 1.439 . S
C491 H523 0.950 . S
C492 N488 1.374 . S
C492 C491 1.439 . S
C492 C517 1.395 . S
N493 Co482 1.995 . S
N493 C494 1.376 . S
N493 C497 1.383 . S
C494 N493 1.376 . S
C494 C495 1.446 . S
C494 C517 1.391 . S
C495 C494 1.446 . S
C495 C496 1.339 . S
C495 H524 0.949 . S
C496 C495 1.339 . S
C496 C497 1.439 . S
C496 H525 0.950 . S
C497 N493 1.383 . S
C497 C496 1.439 . S
C497 C515 1.392 . S
N498 Co482 2.282 . S
N498 C501 1.332 . S
N498 C503 1.332 . S
C499 C500 1.386 . S
C499 C502 1.388 . S
C500 C499 1.386 . S
C500 C501 1.382 . S
C500 H526 0.950 . S
C501 N498 1.332 . S
C501 C500 1.382 . S
C501 H512 0.952 . S
C502 C499 1.388 . S
C502 C503 1.382 . S
C502 H527 0.950 . S
C503 N498 1.332 . S
C503 C502 1.382 . S
C503 H513 0.948 . S
N504 Co482 2.282 . S
N504 C508 1.332 . S
N504 C509 1.332 . S
C505 C506 1.388 . S
C505 C509 1.382 . S
C505 H528 0.950 . S
C506 C505 1.388 . S
C506 C507 1.386 . S
C507 C506 1.386 . S
C507 C508 1.382 . S
C507 H529 0.950 . S
C508 N504 1.332 . S
C508 C507 1.382 . S
C508 H510 0.952 . S
C509 N504 1.332 . S
C509 C505 1.382 . S
C509 H511 0.948 . S
H510 C508 0.952 . S
H511 C509 0.948 . S
H512 C501 0.952 . S
H513 C503 0.948 . S
C514 C480 1.395 . S
C514 C484 1.391 . S
C515 C477 1.389 . S
C515 C497 1.392 . S
C516 C487 1.392 . S
C516 C489 1.389 . S
C517 C492 1.395 . S
C517 C494 1.391 . S
H518 C478 0.951 . S
H519 C479 0.950 . S
H520 C485 0.949 . S
H521 C486 0.950 . S
H522 C490 0.951 . S
H523 C491 0.950 . S
H524 C495 0.949 . S
H525 C496 0.950 . S
H526 C500 0.950 . S
H527 C502 0.950 . S
H528 C505 0.950 . S
H529 C507 0.950 . S
C530 C531 1.443 . S
C530 N534 1.376 . S
C530 C568 1.389 . S
C531 C530 1.443 . S
C531 C532 1.340 . S
C531 H571 0.951 . S
C532 C531 1.340 . S
C532 C533 1.439 . S
C532 H572 0.950 . S
C533 C532 1.439 . S
C533 N534 1.374 . S
C533 C567 1.395 . S
N534 C530 1.376 . S
N534 C533 1.374 . S
N534 Co535 2.008 . S
Co535 N534 2.008 . S
Co535 N536 1.995 . S
Co535 N541 2.008 . S
Co535 N546 1.995 . S
Co535 N551 2.282 . S
Co535 N557 2.282 . S
N536 Co535 1.995 . S
N536 C537 1.376 . S
N536 C540 1.383 . S
C537 N536 1.376 . S
C537 C538 1.446 . S
C537 C567 1.391 . S
C538 C537 1.446 . S
C538 C539 1.339 . S
C538 H573 0.949 . S
C539 C538 1.339 . S
C539 C540 1.439 . S
C539 H574 0.950 . S
C540 N536 1.383 . S
C540 C539 1.439 . S
C540 C569 1.392 . S
N541 Co535 2.008 . S
N541 C542 1.376 . S
N541 C545 1.374 . S
C542 N541 1.376 . S
C542 C543 1.443 . S
C542 C569 1.389 . S
C543 C542 1.443 . S
C543 C544 1.340 . S
C543 H575 0.951 . S
C544 C543 1.340 . S
C544 C545 1.439 . S
C544 H576 0.950 . S
C545 N541 1.374 . S
C545 C544 1.439 . S
C545 C570 1.395 . S
N546 Co535 1.995 . S
N546 C547 1.376 . S
N546 C550 1.383 . S
C547 N546 1.376 . S
C547 C548 1.446 . S
C547 C570 1.391 . S
C548 C547 1.446 . S
C548 C549 1.339 . S
C548 H577 0.949 . S
C549 C548 1.339 . S
C549 C550 1.439 . S
C549 H578 0.950 . S
C550 N546 1.383 . S
C550 C549 1.439 . S
C550 C568 1.392 . S
N551 Co535 2.282 . S
N551 C554 1.332 . S
N551 C556 1.332 . S
C552 C553 1.386 . S
C552 C555 1.388 . S
C553 C552 1.386 . S
C553 C554 1.382 . S
C553 H579 0.950 . S
C554 N551 1.332 . S
C554 C553 1.382 . S
C554 H565 0.952 . S
C555 C552 1.388 . S
C555 C556 1.382 . S
C555 H580 0.950 . S
C556 N551 1.332 . S
C556 C555 1.382 . S
C556 H566 0.948 . S
N557 Co535 2.282 . S
N557 C561 1.332 . S
N557 C562 1.332 . S
C558 C559 1.388 . S
C558 C562 1.382 . S
C558 H581 0.950 . S
C559 C558 1.388 . S
C559 C560 1.386 . S
C560 C559 1.386 . S
C560 C561 1.382 . S
C560 H582 0.950 . S
C561 N557 1.332 . S
C561 C560 1.382 . S
C561 H563 0.952 . S
C562 N557 1.332 . S
C562 C558 1.382 . S
C562 H564 0.948 . S
H563 C561 0.952 . S
H564 C562 0.948 . S
H565 C554 0.952 . S
H566 C556 0.948 . S
C567 C533 1.395 . S
C567 C537 1.391 . S
C568 C530 1.389 . S
C568 C550 1.392 . S
C569 C540 1.392 . S
C569 C542 1.389 . S
C570 C545 1.395 . S
C570 C547 1.391 . S
H571 C531 0.951 . S
H572 C532 0.950 . S
H573 C538 0.949 . S
H574 C539 0.950 . S
H575 C543 0.951 . S
H576 C544 0.950 . S
H577 C548 0.949 . S
H578 C549 0.950 . S
H579 C553 0.950 . S
H580 C555 0.950 . S
H581 C558 0.950 . S
H582 C560 0.950 . S
C583 C584 1.443 . S
C583 N587 1.376 . S
C583 C621 1.389 . S
C584 C583 1.443 . S
C584 C585 1.340 . S
C584 H624 0.951 . S
C585 C584 1.340 . S
C585 C586 1.439 . S
C585 H625 0.950 . S
C586 C585 1.439 . S
C586 N587 1.374 . S
C586 C620 1.395 . S
N587 C583 1.376 . S
N587 C586 1.374 . S
N587 Co588 2.008 . S
Co588 N587 2.008 . S
Co588 N589 1.995 1_554 S
Co588 N594 2.008 1_554 S
Co588 N599 1.995 . S
Co588 N604 2.282 . S
Co588 N610 2.282 1_554 S
N589 Co588 1.995 1_556 S
N589 C590 1.384 . S
N589 C593 1.383 . S
C590 N589 1.384 . S
C590 C591 1.456 . S
C590 C620 1.376 1_556 S
C591 C590 1.456 . S
C591 C592 1.339 . S
C591 H626 0.949 . S
C592 C591 1.339 . S
C592 C593 1.439 . S
C592 H627 0.950 . S
C593 N589 1.383 . S
C593 C592 1.439 . S
C593 C622 1.392 . S
N594 Co588 2.008 1_556 S
N594 C595 1.376 . S
N594 C598 1.374 . S
C595 N594 1.376 . S
C595 C596 1.443 . S
C595 C622 1.389 . S
C596 C595 1.443 . S
C596 C597 1.340 . S
C596 H628 0.951 . S
C597 C596 1.340 . S
C597 C598 1.439 . S
C597 H629 0.950 . S
C598 N594 1.374 . S
C598 C597 1.439 . S
C598 C623 1.395 . S
N599 Co588 1.995 . S
N599 C600 1.388 . S
N599 C603 1.383 . S
C600 N599 1.388 . S
C600 C601 1.461 . S
C600 C623 1.367 1_554 S
C601 C600 1.461 . S
C601 C602 1.339 . S
C601 H630 0.949 . S
C602 C601 1.339 . S
C602 C603 1.439 . S
C602 H631 0.950 . S
C603 N599 1.383 . S
C603 C602 1.439 . S
C603 C621 1.392 . S
N604 Co588 2.282 . S
N604 C607 1.332 1_554 S
N604 C609 1.332 . S
C605 C606 1.386 . S
C605 C608 1.388 1_556 S
C606 C605 1.386 . S
C606 C607 1.382 . S
C606 H632 0.950 . S
C607 N604 1.332 1_556 S
C607 C606 1.382 . S
C607 H618 0.952 . S
C608 C605 1.388 1_554 S
C608 C609 1.382 . S
C608 H633 0.950 . S
C609 N604 1.332 . S
C609 C608 1.382 . S
C609 H619 0.948 . S
N610 Co588 2.282 1_556 S
N610 C614 1.332 1_556 S
N610 C615 1.332 . S
C611 C612 1.388 1_556 S
C611 C615 1.382 . S
C611 H634 0.950 . S
C612 C611 1.388 1_554 S
C612 C613 1.386 . S
C613 C612 1.386 . S
C613 C614 1.382 . S
C613 H635 0.950 . S
C614 N610 1.332 1_554 S
C614 C613 1.382 . S
C614 H616 0.952 . S
C615 N610 1.332 . S
C615 C611 1.382 . S
C615 H617 0.948 . S
H616 C614 0.952 . S
H617 C615 0.948 . S
H618 C607 0.952 . S
H619 C609 0.948 . S
C620 C586 1.395 . S
C620 C590 1.376 1_554 S
C621 C583 1.389 . S
C621 C603 1.392 . S
C622 C593 1.392 . S
C622 C595 1.389 . S
C623 C598 1.395 . S
C623 C600 1.367 1_556 S
H624 C584 0.951 . S
H625 C585 0.950 . S
H626 C591 0.949 . S
H627 C592 0.950 . S
H628 C596 0.951 . S
H629 C597 0.950 . S
H630 C601 0.949 . S
H631 C602 0.950 . S
H632 C606 0.950 . S
H633 C608 0.950 . S
H634 C611 0.950 . S
H635 C613 0.950 . S
H636 C644 0.950 . S
H637 C649 0.950 . S
H638 C646 0.950 . S
H639 C648 0.950 . S
H640 C650 0.950 . S
H641 C652 0.950 . S
H642 C654 0.950 . S
H643 C655 0.950 . S
C644 H636 0.950 . S
C644 C645 1.386 . S
C644 C646 1.391 . S
C645 C644 1.386 . S
C645 C649 1.393 . S
C646 H638 0.950 . S
C646 C644 1.391 . S
C646 C647 1.400 . S
C647 C646 1.400 . S
C647 C648 1.398 . S
C647 C653 1.491 . S
C648 H639 0.950 . S
C648 C647 1.398 . S
C648 C649 1.391 . S
C649 H637 0.950 . S
C649 C645 1.393 . S
C649 C648 1.391 . S
C650 H640 0.950 . S
C650 C651 1.386 . S
C650 C652 1.391 . S
C651 C650 1.386 . S
C651 C655 1.393 . S
C652 H641 0.950 . S
C652 C650 1.391 . S
C652 C653 1.400 . S
C653 C647 1.491 . S
C653 C652 1.400 . S
C653 C654 1.398 . S
C654 H642 0.950 . S
C654 C653 1.398 . S
C654 C655 1.391 . S
C655 H643 0.950 . S
C655 C651 1.393 . S
C655 C654 1.391 . S
H656 C664 0.950 . S
H657 C669 0.950 . S
H658 C666 0.950 . S
H659 C668 0.950 . S
H660 C670 0.950 . S
H661 C672 0.950 . S
H662 C674 0.950 . S
H663 C675 0.950 . S
C664 H656 0.950 . S
C664 C665 1.386 . S
C664 C666 1.391 . S
C665 C664 1.386 . S
C665 C669 1.393 . S
C666 H658 0.950 . S
C666 C664 1.391 . S
C666 C667 1.400 . S
C667 C666 1.400 . S
C667 C668 1.398 . S
C667 C673 1.491 . S
C668 H659 0.950 . S
C668 C667 1.398 . S
C668 C669 1.391 . S
C669 H657 0.950 . S
C669 C665 1.393 . S
C669 C668 1.391 . S
C670 H660 0.950 . S
C670 C671 1.386 . S
C670 C672 1.391 . S
C671 C670 1.386 . S
C671 C675 1.393 . S
C672 H661 0.950 . S
C672 C670 1.391 . S
C672 C673 1.400 . S
C673 C667 1.491 . S
C673 C672 1.400 . S
C673 C674 1.398 . S
C674 H662 0.950 . S
C674 C673 1.398 . S
C674 C675 1.391 . S
C675 H663 0.950 . S
C675 C671 1.393 . S
C675 C674 1.391 . S
H676 C684 0.950 . S
H677 C689 0.950 . S
H678 C686 0.950 . S
H679 C688 0.950 . S
H680 C690 0.950 . S
H681 C692 0.950 . S
H682 C694 0.950 . S
H683 C695 0.950 . S
C684 H676 0.950 . S
C684 C685 1.386 . S
C684 C686 1.391 . S
C685 C684 1.386 . S
C685 C689 1.393 . S
C686 H678 0.950 . S
C686 C684 1.391 . S
C686 C687 1.400 . S
C687 C686 1.400 . S
C687 C688 1.398 . S
C687 C693 1.491 . S
C688 H679 0.950 . S
C688 C687 1.398 . S
C688 C689 1.391 . S
C689 H677 0.950 . S
C689 C685 1.393 . S
C689 C688 1.391 . S
C690 H680 0.950 . S
C690 C691 1.386 . S
C690 C692 1.391 . S
C691 C690 1.386 . S
C691 C695 1.393 . S
C692 H681 0.950 . S
C692 C690 1.391 . S
C692 C693 1.400 . S
C693 C687 1.491 . S
C693 C692 1.400 . S
C693 C694 1.398 . S
C694 H682 0.950 . S
C694 C693 1.398 . S
C694 C695 1.391 . S
C695 H683 0.950 . S
C695 C691 1.393 . S
C695 C694 1.391 . S
H696 C704 0.950 . S
H697 C709 0.950 . S
H698 C706 0.950 . S
H699 C708 0.950 . S
H700 C710 0.950 . S
H701 C712 0.950 . S
H702 C714 0.950 . S
H703 C715 0.950 . S
C704 H696 0.950 . S
C704 C705 1.386 . S
C704 C706 1.391 . S
C705 C704 1.386 . S
C705 C709 1.393 . S
C706 H698 0.950 . S
C706 C704 1.391 . S
C706 C707 1.400 . S
C707 C706 1.400 . S
C707 C708 1.398 . S
C707 C713 1.491 . S
C708 H699 0.950 . S
C708 C707 1.398 . S
C708 C709 1.391 . S
C709 H697 0.950 . S
C709 C705 1.393 . S
C709 C708 1.391 . S
C710 H700 0.950 . S
C710 C711 1.386 . S
C710 C712 1.391 . S
C711 C710 1.386 . S
C711 C715 1.393 . S
C712 H701 0.950 . S
C712 C710 1.391 . S
C712 C713 1.400 . S
C713 C707 1.491 . S
C713 C712 1.400 . S
C713 C714 1.398 . S
C714 H702 0.950 . S
C714 C713 1.398 . S
C714 C715 1.391 . S
C715 H703 0.950 . S
C715 C711 1.393 . S
C715 C714 1.391 . S
H716 C724 0.950 . S
H717 C729 0.950 . S
H718 C726 0.950 . S
H719 C728 0.950 . S
H720 C730 0.950 . S
H721 C732 0.950 . S
H722 C734 0.950 . S
H723 C735 0.950 . S
C724 H716 0.950 . S
C724 C725 1.386 . S
C724 C726 1.391 . S
C725 C724 1.386 . S
C725 C729 1.393 . S
C726 H718 0.950 . S
C726 C724 1.391 . S
C726 C727 1.400 . S
C727 C726 1.400 . S
C727 C728 1.398 . S
C727 C733 1.491 . S
C728 H719 0.950 . S
C728 C727 1.398 . S
C728 C729 1.391 . S
C729 H717 0.950 . S
C729 C725 1.393 . S
C729 C728 1.391 . S
C730 H720 0.950 . S
C730 C731 1.386 . S
C730 C732 1.391 . S
C731 C730 1.386 . S
C731 C735 1.393 . S
C732 H721 0.950 . S
C732 C730 1.391 . S
C732 C733 1.400 . S
C733 C727 1.491 . S
C733 C732 1.400 . S
C733 C734 1.398 . S
C734 H722 0.950 . S
C734 C733 1.398 . S
C734 C735 1.391 . S
C735 H723 0.950 . S
C735 C731 1.393 . S
C735 C734 1.391 . S
H736 C744 0.950 . S
H737 C749 0.950 . S
H738 C746 0.950 . S
H739 C748 0.950 . S
H740 C750 0.950 . S
H741 C752 0.950 . S
H742 C754 0.950 . S
H743 C755 0.950 . S
C744 H736 0.950 . S
C744 C745 1.386 . S
C744 C746 1.391 . S
C745 C744 1.386 . S
C745 C749 1.393 . S
C746 H738 0.950 . S
C746 C744 1.391 . S
C746 C747 1.400 . S
C747 C746 1.400 . S
C747 C748 1.398 . S
C747 C753 1.491 . S
C748 H739 0.950 . S
C748 C747 1.398 . S
C748 C749 1.391 . S
C749 H737 0.950 . S
C749 C745 1.393 . S
C749 C748 1.391 . S
C750 H740 0.950 . S
C750 C751 1.386 . S
C750 C752 1.391 . S
C751 C750 1.386 . S
C751 C755 1.393 . S
C752 H741 0.950 . S
C752 C750 1.391 . S
C752 C753 1.400 . S
C753 C747 1.491 . S
C753 C752 1.400 . S
C753 C754 1.398 . S
C754 H742 0.950 . S
C754 C753 1.398 . S
C754 C755 1.391 . S
C755 H743 0.950 . S
C755 C751 1.393 . S
C755 C754 1.391 . S
H756 C764 0.950 . S
H757 C769 0.950 . S
H758 C766 0.950 . S
H759 C768 0.950 . S
H760 C770 0.950 . S
H761 C772 0.950 . S
H762 C774 0.950 . S
H763 C775 0.950 . S
C764 H756 0.950 . S
C764 C765 1.386 . S
C764 C766 1.391 . S
C765 C764 1.386 . S
C765 C769 1.393 . S
C766 H758 0.950 . S
C766 C764 1.391 . S
C766 C767 1.400 . S
C767 C766 1.400 . S
C767 C768 1.398 . S
C767 C773 1.491 . S
C768 H759 0.950 . S
C768 C767 1.398 . S
C768 C769 1.391 . S
C769 H757 0.950 . S
C769 C765 1.393 . S
C769 C768 1.391 . S
C770 H760 0.950 . S
C770 C771 1.386 . S
C770 C772 1.391 . S
C771 C770 1.386 . S
C771 C775 1.393 . S
C772 H761 0.950 . S
C772 C770 1.391 . S
C772 C773 1.400 . S
C773 C767 1.491 . S
C773 C772 1.400 . S
C773 C774 1.398 . S
C774 H762 0.950 . S
C774 C773 1.398 . S
C774 C775 1.391 . S
C775 H763 0.950 . S
C775 C771 1.393 . S
C775 C774 1.391 . S
H776 C784 0.950 . S
H777 C789 0.950 . S
H778 C786 0.950 . S
H779 C788 0.950 . S
H780 C790 0.950 . S
H781 C792 0.950 . S
H782 C794 0.950 . S
H783 C795 0.950 . S
C784 H776 0.950 . S
C784 C785 1.386 . S
C784 C786 1.391 . S
C785 C784 1.386 . S
C785 C789 1.393 . S
C786 H778 0.950 . S
C786 C784 1.391 . S
C786 C787 1.400 . S
C787 C786 1.400 . S
C787 C788 1.398 . S
C787 C793 1.491 . S
C788 H779 0.950 . S
C788 C787 1.398 . S
C788 C789 1.391 . S
C789 H777 0.950 . S
C789 C785 1.393 . S
C789 C788 1.391 . S
C790 H780 0.950 . S
C790 C791 1.386 . S
C790 C792 1.391 . S
C791 C790 1.386 . S
C791 C795 1.393 . S
C792 H781 0.950 . S
C792 C790 1.391 . S
C792 C793 1.400 . S
C793 C787 1.491 . S
C793 C792 1.400 . S
C793 C794 1.398 . S
C794 H782 0.950 . S
C794 C793 1.398 . S
C794 C795 1.391 . S
C795 H783 0.950 . S
C795 C791 1.393 . S
C795 C794 1.391 . S
H796 C804 0.950 . S
H797 C809 0.950 . S
H798 C806 0.950 . S
H799 C808 0.950 . S
H800 C810 0.950 . S
H801 C812 0.950 . S
H802 C814 0.950 . S
H803 C815 0.950 . S
C804 H796 0.950 . S
C804 C805 1.386 1_556 S
C804 C806 1.391 . S
C805 C804 1.386 1_554 S
C805 C809 1.393 . S
C806 H798 0.950 . S
C806 C804 1.391 . S
C806 C807 1.400 1_556 S
C807 C806 1.400 1_554 S
C807 C808 1.398 . S
C807 C813 1.491 1_554 S
C808 H799 0.950 . S
C808 C807 1.398 . S
C808 C809 1.391 . S
C809 H797 0.950 . S
C809 C805 1.393 . S
C809 C808 1.391 . S
C810 H800 0.950 . S
C810 C811 1.386 1_554 S
C810 C812 1.391 . S
C811 C810 1.386 1_556 S
C811 C815 1.393 . S
C812 H801 0.950 . S
C812 C810 1.391 . S
C812 C813 1.400 1_554 S
C813 C807 1.491 1_556 S
C813 C812 1.400 1_556 S
C813 C814 1.398 . S
C814 H802 0.950 . S
C814 C813 1.398 . S
C814 C815 1.391 . S
C815 H803 0.950 . S
C815 C811 1.393 . S
C815 C814 1.391 . S
H816 C824 0.950 . S
H817 C829 0.950 . S
H818 C826 0.950 . S
H819 C828 0.950 . S
H820 C830 0.950 . S
H821 C832 0.950 . S
H822 C834 0.950 . S
H823 C835 0.950 . S
C824 H816 0.950 . S
C824 C825 1.386 . S
C824 C826 1.391 . S
C825 C824 1.386 . S
C825 C829 1.393 . S
C826 H818 0.950 . S
C826 C824 1.391 . S
C826 C827 1.400 . S
C827 C826 1.400 . S
C827 C828 1.398 . S
C827 C833 1.491 . S
C828 H819 0.950 . S
C828 C827 1.398 . S
C828 C829 1.391 . S
C829 H817 0.950 . S
C829 C825 1.393 . S
C829 C828 1.391 . S
C830 H820 0.950 . S
C830 C831 1.386 . S
C830 C832 1.391 . S
C831 C830 1.386 . S
C831 C835 1.393 . S
C832 H821 0.950 . S
C832 C830 1.391 . S
C832 C833 1.400 . S
C833 C827 1.491 . S
C833 C832 1.400 . S
C833 C834 1.398 . S
C834 H822 0.950 . S
C834 C833 1.398 . S
C834 C835 1.391 . S
C835 H823 0.950 . S
C835 C831 1.393 . S
C835 C834 1.391 . S
H836 C844 0.950 . S
H837 C849 0.950 . S
H838 C846 0.950 . S
H839 C848 0.950 . S
H840 C850 0.950 . S
H841 C852 0.950 . S
H842 C854 0.950 . S
H843 C855 0.950 . S
C844 H836 0.950 . S
C844 C845 1.386 . S
C844 C846 1.391 . S
C845 C844 1.386 . S
C845 C849 1.393 . S
C846 H838 0.950 . S
C846 C844 1.391 . S
C846 C847 1.400 . S
C847 C846 1.400 . S
C847 C848 1.398 . S
C847 C853 1.491 . S
C848 H839 0.950 . S
C848 C847 1.398 . S
C848 C849 1.391 . S
C849 H837 0.950 . S
C849 C845 1.393 . S
C849 C848 1.391 . S
C850 H840 0.950 . S
C850 C851 1.386 . S
C850 C852 1.391 . S
C851 C850 1.386 . S
C851 C855 1.393 . S
C852 H841 0.950 . S
C852 C850 1.391 . S
C852 C853 1.400 . S
C853 C847 1.491 . S
C853 C852 1.400 . S
C853 C854 1.398 . S
C854 H842 0.950 . S
C854 C853 1.398 . S
C854 C855 1.391 . S
C855 H843 0.950 . S
C855 C851 1.393 . S
C855 C854 1.391 . S
H856 C864 0.950 . S
H857 C869 0.950 . S
H858 C866 0.950 . S
H859 C868 0.950 . S
H860 C870 0.950 . S
H861 C872 0.950 . S
H862 C874 0.950 . S
H863 C875 0.950 . S
C864 H856 0.950 . S
C864 C865 1.386 . S
C864 C866 1.391 . S
C865 C864 1.386 . S
C865 C869 1.393 1_556 S
C866 H858 0.950 . S
C866 C864 1.391 . S
C866 C867 1.400 . S
C867 C866 1.400 . S
C867 C868 1.398 1_556 S
C867 C873 1.491 1_556 S
C868 H859 0.950 . S
C868 C867 1.398 1_554 S
C868 C869 1.391 . S
C869 H857 0.950 . S
C869 C865 1.393 1_554 S
C869 C868 1.391 . S
C870 H860 0.950 . S
C870 C871 1.386 . S
C870 C872 1.391 . S
C871 C870 1.386 . S
C871 C875 1.393 1_554 S
C872 H861 0.950 . S
C872 C870 1.391 . S
C872 C873 1.400 . S
C873 C867 1.491 1_554 S
C873 C872 1.400 . S
C873 C874 1.398 1_554 S
C874 H862 0.950 . S
C874 C873 1.398 1_556 S
C874 C875 1.391 . S
C875 H863 0.950 . S
C875 C871 1.393 1_556 S
C875 C874 1.391 . S
H876 C884 0.950 . S
H877 C889 0.950 . S
H878 C886 0.950 . S
H879 C888 0.950 . S
H880 C890 0.950 . S
H881 C892 0.950 . S
H882 C894 0.950 . S
H883 C895 0.950 . S
C884 H876 0.950 . S
C884 C885 1.386 . S
C884 C886 1.391 . S
C885 C884 1.386 . S
C885 C889 1.393 . S
C886 H878 0.950 . S
C886 C884 1.391 . S
C886 C887 1.400 . S
C887 C886 1.400 . S
C887 C888 1.398 . S
C887 C893 1.491 1_545 S
C888 H879 0.950 . S
C888 C887 1.398 . S
C888 C889 1.391 . S
C889 H877 0.950 . S
C889 C885 1.393 . S
C889 C888 1.391 . S
C890 H880 0.950 . S
C890 C891 1.386 . S
C890 C892 1.391 . S
C891 C890 1.386 . S
C891 C895 1.393 . S
C892 H881 0.950 . S
C892 C890 1.391 . S
C892 C893 1.400 . S
C893 C887 1.491 1_565 S
C893 C892 1.400 . S
C893 C894 1.398 . S
C894 H882 0.950 . S
C894 C893 1.398 . S
C894 C895 1.391 . S
C895 H883 0.950 . S
C895 C891 1.393 . S
C895 C894 1.391 . S
H896 C904 0.950 . S
H897 C909 0.950 . S
H898 C906 0.950 . S
H899 C908 0.950 . S
H900 C910 0.950 . S
H901 C912 0.950 . S
H902 C914 0.950 . S
H903 C915 0.950 . S
C904 H896 0.950 . S
C904 C905 1.386 . S
C904 C906 1.391 . S
C905 C904 1.386 . S
C905 C909 1.393 . S
C906 H898 0.950 . S
C906 C904 1.391 . S
C906 C907 1.400 . S
C907 C906 1.400 . S
C907 C908 1.398 . S
C907 C913 1.491 . S
C908 H899 0.950 . S
C908 C907 1.398 . S
C908 C909 1.391 . S
C909 H897 0.950 . S
C909 C905 1.393 . S
C909 C908 1.391 . S
C910 H900 0.950 . S
C910 C911 1.386 . S
C910 C912 1.391 . S
C911 C910 1.386 . S
C911 C915 1.393 . S
C912 H901 0.950 . S
C912 C910 1.391 . S
C912 C913 1.400 . S
C913 C907 1.491 . S
C913 C912 1.400 . S
C913 C914 1.398 . S
C914 H902 0.950 . S
C914 C913 1.398 . S
C914 C915 1.391 . S
C915 H903 0.950 . S
C915 C911 1.393 . S
C915 C914 1.391 . S
H916 C924 0.950 . S
H917 C929 0.950 . S
H918 C926 0.950 . S
H919 C928 0.950 . S
H920 C930 0.950 . S
H921 C932 0.950 . S
H922 C934 0.950 . S
H923 C935 0.950 . S
C924 H916 0.950 . S
C924 C925 1.386 . S
C924 C926 1.391 . S
C925 C924 1.386 . S
C925 C929 1.393 1_554 S
C926 H918 0.950 . S
C926 C924 1.391 . S
C926 C927 1.400 . S
C927 C926 1.400 . S
C927 C928 1.398 1_554 S
C927 C933 1.491 1_655 S
C928 H919 0.950 . S
C928 C927 1.398 1_556 S
C928 C929 1.391 . S
C929 H917 0.950 . S
C929 C925 1.393 1_556 S
C929 C928 1.391 . S
C930 H920 0.950 . S
C930 C931 1.386 1_556 S
C930 C932 1.391 . S
C931 C930 1.386 1_554 S
C931 C935 1.393 . S
C932 H921 0.950 . S
C932 C930 1.391 . S
C932 C933 1.400 1_556 S
C933 C927 1.491 1_455 S
C933 C932 1.400 1_554 S
C933 C934 1.398 . S
C934 H922 0.950 . S
C934 C933 1.398 . S
C934 C935 1.391 . S
C935 H923 0.950 . S
C935 C931 1.393 . S
C935 C934 1.391 . S
H936 C944 0.950 . S
H937 C949 0.950 . S
H938 C946 0.950 1_655 S
H939 C948 0.950 . S
H940 C950 0.950 . S
H941 C952 0.950 1_455 S
H942 C954 0.950 . S
H943 C955 0.950 . S
C944 H936 0.950 . S
C944 C945 1.386 . S
C944 C946 1.391 . S
C945 C944 1.386 . S
C945 C949 1.393 . S
C946 H938 0.950 1_455 S
C946 C944 1.391 . S
C946 C947 1.400 . S
C947 C946 1.400 . S
C947 C948 1.398 . S
C947 C953 1.491 1_455 S
C948 H939 0.950 . S
C948 C947 1.398 . S
C948 C949 1.391 . S
C949 H937 0.950 . S
C949 C945 1.393 . S
C949 C948 1.391 . S
C950 H940 0.950 . S
C950 C951 1.386 . S
C950 C952 1.391 . S
C951 C950 1.386 . S
C951 C955 1.393 . S
C952 H941 0.950 1_655 S
C952 C950 1.391 . S
C952 C953 1.400 . S
C953 C947 1.491 1_655 S
C953 C952 1.400 . S
C953 C954 1.398 . S
C954 H942 0.950 . S
C954 C953 1.398 . S
C954 C955 1.391 . S
C955 H943 0.950 . S
C955 C951 1.393 . S
C955 C954 1.391 . S
H956 C964 0.950 . S
H957 C969 0.950 . S
H958 C966 0.950 . S
H959 C968 0.966 . S
H960 C970 0.950 . S
H961 C972 0.950 . S
H962 C974 0.966 . S
H963 C975 0.950 . S
C964 H956 0.950 . S
C964 C965 1.386 . S
C964 C966 1.391 . S
C965 C964 1.386 . S
C965 C969 1.393 . S
C966 H958 0.950 . S
C966 C964 1.391 . S
C966 C967 1.400 . S
C967 C966 1.400 . S
C967 C968 1.398 . S
C967 C973 1.491 1_545 S
C968 H959 0.966 . S
C968 C967 1.398 . S
C968 C969 1.391 . S
C969 H957 0.950 . S
C969 C965 1.393 . S
C969 C968 1.391 . S
C970 H960 0.950 . S
C970 C971 1.386 . S
C970 C972 1.391 . S
C971 C970 1.386 . S
C971 C975 1.393 . S
C972 H961 0.950 . S
C972 C970 1.391 . S
C972 C973 1.400 . S
C973 C967 1.491 1_565 S
C973 C972 1.400 . S
C973 C974 1.398 . S
C974 H962 0.966 . S
C974 C973 1.398 . S
C974 C975 1.391 . S
C975 H963 0.950 . S
C975 C971 1.393 . S
C975 C974 1.391 . S
H976 C984 0.950 . S
H977 C989 0.950 . S
H978 C986 0.950 . S
H979 C988 0.950 . S
H980 C990 0.950 . S
H981 C992 0.950 . S
H982 C994 0.950 . S
H983 C995 0.950 . S
C984 H976 0.950 . S
C984 C985 1.386 . S
C984 C986 1.391 . S
C985 C984 1.386 . S
C985 C989 1.393 1_556 S
C986 H978 0.950 . S
C986 C984 1.391 . S
C986 C987 1.400 . S
C987 C986 1.400 . S
C987 C988 1.398 1_556 S
C987 C993 1.491 . S
C988 H979 0.950 . S
C988 C987 1.398 1_554 S
C988 C989 1.391 . S
C989 H977 0.950 . S
C989 C985 1.393 1_554 S
C989 C988 1.391 . S
C990 H980 0.950 . S
C990 C991 1.386 1_554 S
C990 C992 1.391 . S
C991 C990 1.386 1_556 S
C991 C995 1.393 . S
C992 H981 0.950 . S
C992 C990 1.391 . S
C992 C993 1.400 1_554 S
C993 C987 1.491 . S
C993 C992 1.400 1_556 S
C993 C994 1.398 . S
C994 H982 0.950 . S
C994 C993 1.398 . S
C994 C995 1.391 . S
C995 H983 0.950 . S
C995 C991 1.393 . S
C995 C994 1.391 . S
H996 C1004 0.950 . S
H997 C1009 0.950 . S
H998 C1006 0.950 . S
H999 C1008 0.950 . S
H1000 C1010 0.950 . S
H1001 C1012 0.950 . S
H1002 C1014 0.950 . S
H1003 C1015 0.950 . S
C1004 H996 0.950 . S
C1004 C1005 1.386 . S
C1004 C1006 1.391 . S
C1005 C1004 1.386 . S
C1005 C1009 1.393 . S
C1006 H998 0.950 . S
C1006 C1004 1.391 . S
C1006 C1007 1.400 . S
C1007 C1006 1.400 . S
C1007 C1008 1.398 . S
C1007 C1013 1.491 . S
C1008 H999 0.950 . S
C1008 C1007 1.398 . S
C1008 C1009 1.391 . S
C1009 H997 0.950 . S
C1009 C1005 1.393 . S
C1009 C1008 1.391 . S
C1010 H1000 0.950 . S
C1010 C1011 1.386 . S
C1010 C1012 1.391 . S
C1011 C1010 1.386 . S
C1011 C1015 1.393 . S
C1012 H1001 0.950 . S
C1012 C1010 1.391 . S
C1012 C1013 1.400 . S
C1013 C1007 1.491 . S
C1013 C1012 1.400 . S
C1013 C1014 1.398 . S
C1014 H1002 0.950 . S
C1014 C1013 1.398 . S
C1014 C1015 1.391 . S
C1015 H1003 0.950 . S
C1015 C1011 1.393 . S
C1015 C1014 1.391 . S
H1016 C1024 0.950 . S
H1017 C1029 0.950 . S
H1018 C1026 0.950 . S
H1019 C1028 0.950 . S
H1020 C1030 0.950 . S
H1021 C1032 0.950 . S
H1022 C1034 0.950 . S
H1023 C1035 0.950 . S
C1024 H1016 0.950 . S
C1024 C1025 1.386 . S
C1024 C1026 1.391 . S
C1025 C1024 1.386 . S
C1025 C1029 1.393 . S
C1026 H1018 0.950 . S
C1026 C1024 1.391 . S
C1026 C1027 1.400 . S
C1027 C1026 1.400 . S
C1027 C1028 1.398 . S
C1027 C1033 1.491 . S
C1028 H1019 0.950 . S
C1028 C1027 1.398 . S
C1028 C1029 1.391 . S
C1029 H1017 0.950 . S
C1029 C1025 1.393 . S
C1029 C1028 1.391 . S
C1030 H1020 0.950 . S
C1030 C1031 1.386 . S
C1030 C1032 1.391 . S
C1031 C1030 1.386 . S
C1031 C1035 1.393 . S
C1032 H1021 0.950 . S
C1032 C1030 1.391 . S
C1032 C1033 1.400 . S
C1033 C1027 1.491 . S
C1033 C1032 1.400 . S
C1033 C1034 1.398 . S
C1034 H1022 0.950 . S
C1034 C1033 1.398 . S
C1034 C1035 1.391 . S
C1035 H1023 0.950 . S
C1035 C1031 1.393 . S
C1035 C1034 1.391 . S
H1036 C1044 0.950 . S
H1037 C1049 0.950 . S
H1038 C1046 0.950 . S
H1039 C1048 0.950 . S
H1040 C1050 0.950 . S
H1041 C1052 0.950 . S
H1042 C1054 0.950 . S
H1043 C1055 0.950 . S
C1044 H1036 0.950 . S
C1044 C1045 1.386 . S
C1044 C1046 1.391 . S
C1045 C1044 1.386 . S
C1045 C1049 1.393 . S
C1046 H1038 0.950 . S
C1046 C1044 1.391 . S
C1046 C1047 1.400 . S
C1047 C1046 1.400 . S
C1047 C1048 1.398 . S
C1047 C1053 1.491 . S
C1048 H1039 0.950 . S
C1048 C1047 1.398 . S
C1048 C1049 1.391 . S
C1049 H1037 0.950 . S
C1049 C1045 1.393 . S
C1049 C1048 1.391 . S
C1050 H1040 0.950 . S
C1050 C1051 1.386 . S
C1050 C1052 1.391 . S
C1051 C1050 1.386 . S
C1051 C1055 1.393 . S
C1052 H1041 0.950 . S
C1052 C1050 1.391 . S
C1052 C1053 1.400 . S
C1053 C1047 1.491 . S
C1053 C1052 1.400 . S
C1053 C1054 1.398 . S
C1054 H1042 0.950 . S
C1054 C1053 1.398 . S
C1054 C1055 1.391 . S
C1055 H1043 0.950 . S
C1055 C1051 1.393 . S
C1055 C1054 1.391 . S
H1056 C1064 0.950 . S
H1057 C1069 0.950 . S
H1058 C1066 0.950 . S
H1059 C1068 0.950 . S
H1060 C1070 0.950 . S
H1061 C1072 0.950 . S
H1062 C1074 0.950 . S
H1063 C1075 0.950 . S
C1064 H1056 0.950 . S
C1064 C1065 1.386 . S
C1064 C1066 1.391 . S
C1065 C1064 1.386 . S
C1065 C1069 1.393 . S
C1066 H1058 0.950 . S
C1066 C1064 1.391 . S
C1066 C1067 1.400 . S
C1067 C1066 1.400 . S
C1067 C1068 1.398 . S
C1067 C1073 1.491 . S
C1068 H1059 0.950 . S
C1068 C1067 1.398 . S
C1068 C1069 1.391 . S
C1069 H1057 0.950 . S
C1069 C1065 1.393 . S
C1069 C1068 1.391 . S
C1070 H1060 0.950 . S
C1070 C1071 1.386 . S
C1070 C1072 1.391 . S
C1071 C1070 1.386 . S
C1071 C1075 1.393 . S
C1072 H1061 0.950 . S
C1072 C1070 1.391 . S
C1072 C1073 1.400 . S
C1073 C1067 1.491 . S
C1073 C1072 1.400 . S
C1073 C1074 1.398 . S
C1074 H1062 0.950 . S
C1074 C1073 1.398 . S
C1074 C1075 1.391 . S
C1075 H1063 0.950 . S
C1075 C1071 1.393 . S
C1075 C1074 1.391 . S
H1076 C1084 0.950 . S
H1077 C1089 0.950 . S
H1078 C1086 0.950 . S
H1079 C1088 0.950 . S
H1080 C1090 0.950 . S
H1081 C1092 0.950 . S
H1082 C1094 0.950 . S
H1083 C1095 0.950 . S
C1084 H1076 0.950 . S
C1084 C1085 1.386 . S
C1084 C1086 1.391 . S
C1085 C1084 1.386 . S
C1085 C1089 1.393 . S
C1086 H1078 0.950 . S
C1086 C1084 1.391 . S
C1086 C1087 1.400 . S
C1087 C1086 1.400 . S
C1087 C1088 1.398 . S
C1087 C1093 1.491 . S
C1088 H1079 0.950 . S
C1088 C1087 1.398 . S
C1088 C1089 1.391 . S
C1089 H1077 0.950 . S
C1089 C1085 1.393 . S
C1089 C1088 1.391 . S
C1090 H1080 0.950 . S
C1090 C1091 1.386 . S
C1090 C1092 1.391 . S
C1091 C1090 1.386 . S
C1091 C1095 1.393 . S
C1092 H1081 0.950 . S
C1092 C1090 1.391 . S
C1092 C1093 1.400 . S
C1093 C1087 1.491 . S
C1093 C1092 1.400 . S
C1093 C1094 1.398 . S
C1094 H1082 0.950 . S
C1094 C1093 1.398 . S
C1094 C1095 1.391 . S
C1095 H1083 0.950 . S
C1095 C1091 1.393 . S
C1095 C1094 1.391 . S
H1096 C1104 0.950 . S
H1097 C1109 0.950 . S
H1098 C1106 0.950 . S
H1099 C1108 0.950 . S
H1100 C1110 0.950 . S
H1101 C1112 0.950 . S
H1102 C1114 0.950 . S
H1103 C1115 0.950 . S
C1104 H1096 0.950 . S
C1104 C1105 1.386 . S
C1104 C1106 1.391 . S
C1105 C1104 1.386 . S
C1105 C1109 1.393 . S
C1106 H1098 0.950 . S
C1106 C1104 1.391 . S
C1106 C1107 1.400 . S
C1107 C1106 1.400 . S
C1107 C1108 1.398 . S
C1107 C1113 1.491 . S
C1108 H1099 0.950 . S
C1108 C1107 1.398 . S
C1108 C1109 1.391 . S
C1109 H1097 0.950 . S
C1109 C1105 1.393 . S
C1109 C1108 1.391 . S
C1110 H1100 0.950 . S
C1110 C1111 1.386 . S
C1110 C1112 1.391 . S
C1111 C1110 1.386 . S
C1111 C1115 1.393 . S
C1112 H1101 0.950 . S
C1112 C1110 1.391 . S
C1112 C1113 1.400 . S
C1113 C1107 1.491 . S
C1113 C1112 1.400 . S
C1113 C1114 1.398 . S
C1114 H1102 0.950 . S
C1114 C1113 1.398 . S
C1114 C1115 1.391 . S
C1115 H1103 0.950 . S
C1115 C1111 1.393 . S
C1115 C1114 1.391 . S
C645 C39 1.325 . S
C651 C569 1.317 . S
C665 C92 1.447 . S
C671 C622 1.458 . S
C685 C357 1.453 . S
C691 C145 1.450 . S
C705 C198 1.319 . S
C711 C410 1.304 . S
C725 C463 1.445 . S
C731 C251 1.458 . S
C745 C516 1.452 . S
C751 C304 1.451 . S
C765 C347 1.388 . S
C771 C29 1.366 . S
C785 C400 1.372 . S
C791 C82 1.383 . S
C805 C453 1.375 . S
C811 C135 1.393 . S
C825 C188 1.364 . S
C831 C506 1.386 . S
C845 C241 1.364 . S
C851 C559 1.388 . S
C865 C294 1.393 . S
C871 C612 1.375 . S
C885 C22 2.942 . S
C891 C181 2.942 . S
C905 C75 2.956 . S
C911 C234 2.953 . S
C925 C128 2.940 . S
C931 C287 2.939 . S
C945 C499 2.946 . S
C951 C340 2.948 . S
C965 C552 2.961 . S
C971 C393 2.961 . S
C985 C605 2.938 . S
C991 C446 2.937 . S
C1005 C38 2.314 . S
C1011 C462 2.308 . S
C1025 C515 2.430 . S
C1031 C91 2.433 . S
C1045 C144 2.311 . S
C1051 C568 2.308 . S
C1065 C621 2.320 . S
C1071 C197 2.312 . S
C1085 C250 2.436 . S
C1091 C356 2.437 . S
C1105 C303 2.320 . S
C1111 C409 2.311 . S
