# Generated by pormake.
# Topology vba, (4)-cn, num edge types: 1
# Building blocks:
#     Node 0, Type 0, BuildingBlock: NAWXER_clean_sbu_0, # of connection points: 4
#     Node 1, Type 0, BuildingBlock: NAWXER_clean_sbu_0, # of connection points: 4
#     Node 2, Type 0, BuildingBlock: NAWXER_clean_sbu_0, # of connection points: 4
#     Node 3, Type 0, BuildingBlock: NAWXER_clean_sbu_0, # of connection points: 4
#     Node 4, Type 0, BuildingBlock: NAWXER_clean_sbu_0, # of connection points: 4
#     Node 5, Type 0, BuildingBlock: NAWXER_clean_sbu_0, # of connection points: 4
#     Node 6, Type 0, BuildingBlock: NAWXER_clean_sbu_0, # of connection points: 4
#     Node 7, Type 0, BuildingBlock: NAWXER_clean_sbu_0, # of connection points: 4
#     Node 8, Type 0, BuildingBlock: NAWXER_clean_sbu_0, # of connection points: 4
#     Node 9, Type 0, BuildingBlock: NAWXER_clean_sbu_0, # of connection points: 4
#     Node 10, Type 0, BuildingBlock: NAWXER_clean_sbu_0, # of connection points: 4
#     Node 11, Type 0, BuildingBlock: NAWXER_clean_sbu_0, # of connection points: 4
#     Node 12, Type 0, BuildingBlock: NAWXER_clean_sbu_0, # of connection points: 4
#     Node 13, Type 0, BuildingBlock: NAWXER_clean_sbu_0, # of connection points: 4
#     Node 14, Type 0, BuildingBlock: NAWXER_clean_sbu_0, # of connection points: 4
#     Node 15, Type 0, BuildingBlock: NAWXER_clean_sbu_0, # of connection points: 4
#     Node 16, Type 0, BuildingBlock: NAWXER_clean_sbu_0, # of connection points: 4
#     Node 17, Type 0, BuildingBlock: NAWXER_clean_sbu_0, # of connection points: 4
#     Node 18, Type 0, BuildingBlock: NAWXER_clean_sbu_0, # of connection points: 4
#     Node 19, Type 0, BuildingBlock: NAWXER_clean_sbu_0, # of connection points: 4
#     Node 20, Type 0, BuildingBlock: NAWXER_clean_sbu_0, # of connection points: 4
#     Node 21, Type 0, BuildingBlock: NAWXER_clean_sbu_0, # of connection points: 4
#     Node 22, Type 0, BuildingBlock: NAWXER_clean_sbu_0, # of connection points: 4
#     Node 23, Type 0, BuildingBlock: NAWXER_clean_sbu_0, # of connection points: 4
#     Node 24, Type 0, BuildingBlock: NAWXER_clean_sbu_0, # of connection points: 4
#     Node 25, Type 0, BuildingBlock: NAWXER_clean_sbu_0, # of connection points: 4
#     Node 26, Type 0, BuildingBlock: NAWXER_clean_sbu_0, # of connection points: 4
#     Node 27, Type 0, BuildingBlock: NAWXER_clean_sbu_0, # of connection points: 4
#     Node 28, Type 0, BuildingBlock: NAWXER_clean_sbu_0, # of connection points: 4
#     Node 29, Type 0, BuildingBlock: NAWXER_clean_sbu_0, # of connection points: 4
#     Node 30, Type 0, BuildingBlock: NAWXER_clean_sbu_0, # of connection points: 4
#     Node 31, Type 0, BuildingBlock: NAWXER_clean_sbu_0, # of connection points: 4
#     Edge 32, Type (0, 0), BuildingBlock: TEMPAE_clean_linker_10, # of connection points: 2
#     Edge 33, Type (0, 0), BuildingBlock: TEMPAE_clean_linker_10, # of connection points: 2
#     Edge 34, Type (0, 0), BuildingBlock: TEMPAE_clean_linker_10, # of connection points: 2
#     Edge 35, Type (0, 0), BuildingBlock: TEMPAE_clean_linker_10, # of connection points: 2
#     Edge 36, Type (0, 0), BuildingBlock: TEMPAE_clean_linker_10, # of connection points: 2
#     Edge 37, Type (0, 0), BuildingBlock: TEMPAE_clean_linker_10, # of connection points: 2
#     Edge 38, Type (0, 0), BuildingBlock: TEMPAE_clean_linker_10, # of connection points: 2
#     Edge 39, Type (0, 0), BuildingBlock: TEMPAE_clean_linker_10, # of connection points: 2
#     Edge 40, Type (0, 0), BuildingBlock: TEMPAE_clean_linker_10, # of connection points: 2
#     Edge 41, Type (0, 0), BuildingBlock: TEMPAE_clean_linker_10, # of connection points: 2
#     Edge 42, Type (0, 0), BuildingBlock: TEMPAE_clean_linker_10, # of connection points: 2
#     Edge 43, Type (0, 0), BuildingBlock: TEMPAE_clean_linker_10, # of connection points: 2
#     Edge 44, Type (0, 0), BuildingBlock: TEMPAE_clean_linker_10, # of connection points: 2
#     Edge 45, Type (0, 0), BuildingBlock: TEMPAE_clean_linker_10, # of connection points: 2
#     Edge 46, Type (0, 0), BuildingBlock: TEMPAE_clean_linker_10, # of connection points: 2
#     Edge 47, Type (0, 0), BuildingBlock: TEMPAE_clean_linker_10, # of connection points: 2
#     Edge 48, Type (0, 0), BuildingBlock: TEMPAE_clean_linker_10, # of connection points: 2
#     Edge 49, Type (0, 0), BuildingBlock: TEMPAE_clean_linker_10, # of connection points: 2
#     Edge 50, Type (0, 0), BuildingBlock: TEMPAE_clean_linker_10, # of connection points: 2
#     Edge 51, Type (0, 0), BuildingBlock: TEMPAE_clean_linker_10, # of connection points: 2
#     Edge 52, Type (0, 0), BuildingBlock: TEMPAE_clean_linker_10, # of connection points: 2
#     Edge 53, Type (0, 0), BuildingBlock: TEMPAE_clean_linker_10, # of connection points: 2
#     Edge 54, Type (0, 0), BuildingBlock: TEMPAE_clean_linker_10, # of connection points: 2
#     Edge 55, Type (0, 0), BuildingBlock: TEMPAE_clean_linker_10, # of connection points: 2
#     Edge 56, Type (0, 0), BuildingBlock: TEMPAE_clean_linker_10, # of connection points: 2
#     Edge 57, Type (0, 0), BuildingBlock: TEMPAE_clean_linker_10, # of connection points: 2
#     Edge 58, Type (0, 0), BuildingBlock: TEMPAE_clean_linker_10, # of connection points: 2
#     Edge 59, Type (0, 0), BuildingBlock: TEMPAE_clean_linker_10, # of connection points: 2
#     Edge 60, Type (0, 0), BuildingBlock: TEMPAE_clean_linker_10, # of connection points: 2
#     Edge 61, Type (0, 0), BuildingBlock: TEMPAE_clean_linker_10, # of connection points: 2
#     Edge 62, Type (0, 0), BuildingBlock: TEMPAE_clean_linker_10, # of connection points: 2
#     Edge 63, Type (0, 0), BuildingBlock: TEMPAE_clean_linker_10, # of connection points: 2
#     Edge 64, Type (0, 0), BuildingBlock: TEMPAE_clean_linker_10, # of connection points: 2
#     Edge 65, Type (0, 0), BuildingBlock: TEMPAE_clean_linker_10, # of connection points: 2
#     Edge 66, Type (0, 0), BuildingBlock: TEMPAE_clean_linker_10, # of connection points: 2
#     Edge 67, Type (0, 0), BuildingBlock: TEMPAE_clean_linker_10, # of connection points: 2
#     Edge 68, Type (0, 0), BuildingBlock: TEMPAE_clean_linker_10, # of connection points: 2
#     Edge 69, Type (0, 0), BuildingBlock: TEMPAE_clean_linker_10, # of connection points: 2
#     Edge 70, Type (0, 0), BuildingBlock: TEMPAE_clean_linker_10, # of connection points: 2
#     Edge 71, Type (0, 0), BuildingBlock: TEMPAE_clean_linker_10, # of connection points: 2
#     Edge 72, Type (0, 0), BuildingBlock: TEMPAE_clean_linker_10, # of connection points: 2
#     Edge 73, Type (0, 0), BuildingBlock: TEMPAE_clean_linker_10, # of connection points: 2
#     Edge 74, Type (0, 0), BuildingBlock: TEMPAE_clean_linker_10, # of connection points: 2
#     Edge 75, Type (0, 0), BuildingBlock: TEMPAE_clean_linker_10, # of connection points: 2
#     Edge 76, Type (0, 0), BuildingBlock: TEMPAE_clean_linker_10, # of connection points: 2
#     Edge 77, Type (0, 0), BuildingBlock: TEMPAE_clean_linker_10, # of connection points: 2
#     Edge 78, Type (0, 0), BuildingBlock: TEMPAE_clean_linker_10, # of connection points: 2
#     Edge 79, Type (0, 0), BuildingBlock: TEMPAE_clean_linker_10, # of connection points: 2
#     Edge 80, Type (0, 0), BuildingBlock: TEMPAE_clean_linker_10, # of connection points: 2
#     Edge 81, Type (0, 0), BuildingBlock: TEMPAE_clean_linker_10, # of connection points: 2
#     Edge 82, Type (0, 0), BuildingBlock: TEMPAE_clean_linker_10, # of connection points: 2
#     Edge 83, Type (0, 0), BuildingBlock: TEMPAE_clean_linker_10, # of connection points: 2
#     Edge 84, Type (0, 0), BuildingBlock: TEMPAE_clean_linker_10, # of connection points: 2
#     Edge 85, Type (0, 0), BuildingBlock: TEMPAE_clean_linker_10, # of connection points: 2
#     Edge 86, Type (0, 0), BuildingBlock: TEMPAE_clean_linker_10, # of connection points: 2
#     Edge 87, Type (0, 0), BuildingBlock: TEMPAE_clean_linker_10, # of connection points: 2
#     Edge 88, Type (0, 0), BuildingBlock: TEMPAE_clean_linker_10, # of connection points: 2
#     Edge 89, Type (0, 0), BuildingBlock: TEMPAE_clean_linker_10, # of connection points: 2
#     Edge 90, Type (0, 0), BuildingBlock: TEMPAE_clean_linker_10, # of connection points: 2
#     Edge 91, Type (0, 0), BuildingBlock: TEMPAE_clean_linker_10, # of connection points: 2
#     Edge 92, Type (0, 0), BuildingBlock: TEMPAE_clean_linker_10, # of connection points: 2
#     Edge 93, Type (0, 0), BuildingBlock: TEMPAE_clean_linker_10, # of connection points: 2
#     Edge 94, Type (0, 0), BuildingBlock: TEMPAE_clean_linker_10, # of connection points: 2
#     Edge 95, Type (0, 0), BuildingBlock: TEMPAE_clean_linker_10, # of connection points: 2
# Relax obj value: 0.002
# Max RMSD: 0.072
# Mean RMSD: 0.072
data_MOF--net-vba--node1-NAWXER_clean_sbu_0--edge1-TEMPAE_clean_linker_10
_symmetry_space_group_name_H-M    P1
_symmetry_Int_Tables_number       1
_symmetry_cell_setting            triclinic
loop_
_symmetry_equiv_pos_as_xyz
'x, y, z'
_cell_length_a     17.007997
_cell_length_b     107.68682
_cell_length_c     57.185336
_cell_angle_alpha  90.000757
_cell_angle_beta   90.089218
_cell_angle_gamma 89.991587
loop_
_atom_site_label
_atom_site_type_symbol
_atom_site_fract_x
_atom_site_fract_y
_atom_site_fract_z
_atom_type_partial_charge
C0 C 0.27213 0.03867 1.00588 0.0
C1 C 0.15842 0.08066 1.0078 0.0
O2 O 0.20127 0.04156 1.00118 0.0
Zn3 Zn 0.21394 0.05933 1.00648 0.0
O4 O 0.32079 0.04706 0.01253 0.0
Zn5 Zn 0.32193 0.06683 0.01899 0.0
O6 O 0.34215 0.06761 0.05254 0.0
O7 O 0.22663 0.05952 0.04388 0.0
O8 O 0.23 0.08034 0.01486 0.0
O9 O 0.12634 0.0707 1.00065 0.0
O10 O 0.29887 0.06375 0.97976 0.0
O11 O 0.40266 0.07203 0.99681 0.0
C12 C 0.27763 0.06281 0.05922 0.0
C13 C 0.36836 0.06833 0.97829 0.0
C14 C 0.81648 0.20954 0.01679 0.0
C15 C 0.91459 0.16629 0.01176 0.0
O16 O 0.88922 0.20834 0.01173 0.0
Zn17 Zn 0.97493 0.19446 1.00579 0.0
O18 O 0.77453 0.19989 0.02023 0.0
Zn19 Zn 0.85933 0.1876 0.01548 0.0
O20 O 0.9355 0.19156 0.04389 0.0
O21 O 0.04938 0.1984 0.03057 0.0
O22 O 0.84565 0.16951 0.01803 0.0
O23 O 0.96544 0.1747 1.00694 0.0
O24 O 0.99727 0.19768 0.97295 0.0
O25 O 0.87827 0.19015 0.97923 0.0
C26 C 0.005 0.19566 0.04772 0.0
C27 C 0.93081 0.19413 0.96511 0.0
C28 C 0.17416 0.20428 0.21566 0.0
C29 C 0.25531 0.20261 0.29797 0.0
O30 O 0.24538 0.201 0.2193 0.0
Zn31 Zn 0.32623 0.1983 0.24669 0.0
O32 O 0.13063 0.20736 0.23283 0.0
Zn33 Zn 0.2087 0.20439 0.25747 0.0
O34 O 0.2895 0.21883 0.25171 0.0
O35 O 0.40521 0.21131 0.24157 0.0
O36 O 0.18809 0.20635 0.29099 0.0
O37 O 0.30787 0.19959 0.28305 0.0
O38 O 0.34614 0.18045 0.24329 0.0
O39 O 0.22569 0.18488 0.25533 0.0
C40 C 0.36121 0.2206 0.24598 0.0
C41 C 0.27829 0.17687 0.24996 0.0
C42 C 0.01998 0.09308 0.25556 0.0
C43 C 0.85201 0.05608 0.25361 0.0
O44 O 0.05592 0.08315 0.26188 0.0
Zn45 Zn 0.0308 0.0636 0.26564 0.0
O46 O 0.94767 0.09252 0.24986 0.0
Zn47 Zn 0.93509 0.07484 0.25432 0.0
O48 O 0.94766 0.07315 0.29172 0.0
O49 O 0.04955 0.06104 0.29887 0.0
O50 O 0.83409 0.06709 0.24766 0.0
O51 O 0.9223 0.05372 0.26048 0.0
O52 O 0.10206 0.05647 0.24229 0.0
O53 O 0.00957 0.06824 0.22693 0.0
C54 C 0.99322 0.0677 0.30642 0.0
C55 C 0.07122 0.06154 0.22439 0.0
C56 C 0.73892 0.94913 0.05181 0.0
C57 C 0.7865 0.95427 0.96756 0.0
O58 O 0.79213 0.95574 0.04232 0.0
Zn59 Zn 0.76243 0.95252 0.01007 0.0
O60 O 0.68898 0.94342 0.03883 0.0
Zn61 Zn 0.66389 0.94099 1.00208 0.0
O62 O 0.67674 0.92319 0.99855 0.0
O63 O 0.78698 0.93296 1.0075 0.0
O64 O 0.7271 0.94741 0.97228 0.0
O65 O 0.82377 0.95944 0.98422 0.0
O66 O 0.65233 0.9621 1.00793 0.0
O67 O 0.56059 0.94858 0.99813 0.0
C68 C 0.75006 0.92285 1.00301 0.0
C69 C 0.58028 0.95964 1.00323 0.0
C70 C 0.96261 0.81224 0.97048 0.0
C71 C 0.07905 0.81475 0.0493 0.0
O72 O 0.93729 0.8071 0.98902 0.0
Zn73 Zn 0.0224 0.81236 0.01006 0.0
O74 O 0.02911 0.81783 0.97104 0.0
Zn75 Zn 0.11896 0.82237 0.99584 0.0
O76 O 0.21127 0.81325 0.9852 0.0
O77 O 0.12202 0.80107 1.00109 0.0
O78 O 0.12137 0.81988 0.03342 0.0
O79 O 0.01564 0.80927 0.04346 0.0
O80 O 0.00928 0.83226 0.00904 0.0
O81 O 0.11612 0.84033 0.99318 0.0
C82 C 0.19014 0.80251 0.99188 0.0
C83 C 0.04811 0.84177 1.00205 0.0
C84 C 0.6929 0.82075 0.81432 0.0
C85 C 0.59818 0.82533 0.7326 0.0
O86 O 0.73867 0.81656 0.79838 0.0
Zn87 Zn 0.74811 0.81555 0.76123 0.0
O88 O 0.63047 0.82656 0.80846 0.0
Zn89 Zn 0.64334 0.82488 0.77429 0.0
O90 O 0.63565 0.80516 0.7712 0.0
O91 O 0.74603 0.79748 0.75669 0.0
O92 O 0.56394 0.82996 0.75041 0.0
O93 O 0.6656 0.82027 0.7352 0.0
O94 O 0.8399 0.82612 0.75432 0.0
O95 O 0.74088 0.83687 0.76865 0.0
C96 C 0.67632 0.79585 0.76433 0.0
C97 C 0.8119 0.83645 0.76126 0.0
C98 C 0.19117 0.96263 0.77028 0.0
C99 C 0.07085 0.92095 0.76617 0.0
O100 O 0.22337 0.95246 0.77638 0.0
Zn101 Zn 0.13263 0.94165 0.77026 0.0
O102 O 0.11894 0.96268 0.76395 0.0
Zn103 Zn 0.02395 0.94983 0.75967 0.0
O104 O 0.94955 0.95488 0.78382 0.0
O105 O 0.05616 0.94629 0.79849 0.0
O106 O 0.02355 0.92982 0.76093 0.0
O107 O 0.1402 0.92356 0.77299 0.0
O108 O 0.11645 0.94411 0.73304 0.0
O109 O 0.00037 0.95279 0.72703 0.0
C110 C 0.98873 0.95133 0.80154 0.0
C111 C 0.06458 0.9485 0.71894 0.0
C112 C 0.1607 0.56284 0.54141 0.0
C113 C 0.26193 0.56513 0.4608 0.0
O114 O 0.2305 0.56702 0.53912 0.0
Zn115 Zn 0.31615 0.57057 0.51372 0.0
O116 O 0.12306 0.55901 0.52351 0.0
Zn117 Zn 0.20432 0.5632 0.50017 0.0
O118 O 0.29141 0.54985 0.5065 0.0
O119 O 0.39884 0.55833 0.52119 0.0
O120 O 0.19379 0.56107 0.46619 0.0
O121 O 0.30871 0.56881 0.47692 0.0
O122 O 0.32596 0.58862 0.51741 0.0
O123 O 0.21085 0.58281 0.5031 0.0
C124 C 0.36179 0.54876 0.51403 0.0
C125 C 0.2577 0.59143 0.50975 0.0
C126 C 0.00846 0.67656 0.51055 0.0
C127 C 0.88677 0.7176 0.52099 0.0
O128 O 0.05002 0.68568 0.50322 0.0
Zn129 Zn 0.0465 0.70546 0.50163 0.0
O130 O 0.94124 0.67864 0.51956 0.0
Zn131 Zn 0.94401 0.6967 0.51685 0.0
O132 O 0.93802 0.69947 0.47979 0.0
O133 O 0.04701 0.70848 0.46763 0.0
O134 O 0.85836 0.70731 0.52797 0.0
O135 O 0.9548 0.71785 0.51144 0.0
O136 O 0.13467 0.70965 0.52313 0.0
O137 O 0.0356 0.70057 0.54091 0.0
C138 C 0.97905 0.70406 0.46311 0.0
C139 C 0.10479 0.7052 0.54177 0.0
C140 C 0.34481 0.68841 0.79048 0.0
C141 C 0.31342 0.69571 0.70491 0.0
O142 O 0.38494 0.68307 0.77455 0.0
Zn143 Zn 0.33238 0.69072 0.74704 0.0
O144 O 0.28876 0.69568 0.78448 0.0
Zn145 Zn 0.23341 0.70301 0.75411 0.0
O146 O 0.12773 0.69543 0.75531 0.0
O147 O 0.22085 0.68194 0.74664 0.0
O148 O 0.26413 0.70125 0.71821 0.0
O149 O 0.36418 0.68841 0.71395 0.0
O150 O 0.3615 0.70976 0.7524 0.0
O151 O 0.25382 0.7208 0.75838 0.0
C152 C 0.14808 0.68442 0.74986 0.0
C153 C 0.32847 0.72022 0.75647 0.0
C154 C 0.90426 0.60047 0.74624 0.0
C155 C 0.83111 0.556 0.74744 0.0
O156 O 0.96083 0.59289 0.75017 0.0
Zn157 Zn 0.98278 0.57345 0.75249 0.0
O158 O 0.83596 0.59623 0.7417 0.0
Zn159 Zn 0.86128 0.57846 0.74528 0.0
O160 O 0.89332 0.57764 0.78116 0.0
O161 O 0.01732 0.57175 0.78487 0.0
O162 O 0.78304 0.56492 0.74407 0.0
O163 O 0.90402 0.55837 0.75048 0.0
O164 O 0.0513 0.56992 0.72604 0.0
O165 O 0.93045 0.57469 0.71518 0.0
C166 C 0.95232 0.57497 0.79414 0.0
C167 C 0.00067 0.57146 0.70986 0.0
C168 C 0.79871 0.45592 0.46298 0.0
C169 C 0.73939 0.45037 0.54644 0.0
O170 O 0.84263 0.45955 0.47975 0.0
Zn171 Zn 0.77786 0.45304 0.50507 0.0
O172 O 0.73518 0.44999 0.46747 0.0
Zn173 Zn 0.66814 0.44358 0.49642 0.0
O174 O 0.57193 0.45358 0.49363 0.0
O175 O 0.67855 0.46463 0.50117 0.0
O176 O 0.68961 0.44569 0.53223 0.0
O177 O 0.80106 0.45559 0.53851 0.0
O178 O 0.7886 0.4335 0.49998 0.0
O179 O 0.67113 0.42554 0.49288 0.0
C180 C 0.60476 0.46406 0.49711 0.0
C181 C 0.74491 0.42409 0.49559 0.0
C182 C 0.01341 0.31569 0.55001 0.0
C183 C 0.9408 0.3104 0.46724 0.0
O184 O 0.94811 0.31126 0.54291 0.0
Zn185 Zn 0.96847 0.31296 0.50908 0.0
O186 O 0.06414 0.31935 0.53511 0.0
Zn187 Zn 0.08285 0.32063 0.49911 0.0
O188 O 0.09036 0.3386 0.4946 0.0
O189 O 0.96952 0.3325 0.50317 0.0
O190 O 0.0083 0.31525 0.47114 0.0
O191 O 0.89667 0.30744 0.48438 0.0
O192 O 0.05908 0.29982 0.50434 0.0
O193 O 0.17136 0.30905 0.49553 0.0
C194 C 0.01807 0.34114 0.49789 0.0
C195 C 0.13221 0.29917 0.49944 0.0
C196 C 0.73745 0.34428 0.2656 0.0
C197 C 0.5777 0.30628 0.26506 0.0
O198 O 0.66512 0.34354 0.27118 0.0
Zn199 Zn 0.65239 0.32568 0.26685 0.0
O200 O 0.77495 0.33443 0.25982 0.0
Zn201 Zn 0.75539 0.31498 0.25632 0.0
O202 O 0.77352 0.31214 0.22298 0.0
O203 O 0.66753 0.32336 0.23031 0.0
O204 O 0.64987 0.30481 0.25961 0.0
O205 O 0.55228 0.31692 0.27122 0.0
O206 O 0.71963 0.31851 0.29454 0.0
O207 O 0.82017 0.30769 0.28128 0.0
C208 C 0.7131 0.318 0.21564 0.0
C209 C 0.78067 0.31191 0.29845 0.0
C210 C 0.95769 0.45797 0.29422 0.0
C211 C 0.03448 0.45208 0.21202 0.0
O212 O 0.91719 0.46158 0.27673 0.0
Zn213 Zn 0.9881 0.45524 0.25225 0.0
O214 O 0.02303 0.45242 0.29083 0.0
Zn215 Zn 0.09704 0.4463 0.26401 0.0
O216 O 0.19018 0.45687 0.26858 0.0
O217 O 0.08617 0.46705 0.2554 0.0
O218 O 0.08225 0.44776 0.22731 0.0
O219 O 0.97042 0.45717 0.21859 0.0
O220 O 0.98138 0.43566 0.25641 0.0
O221 O 0.0951 0.42832 0.26908 0.0
C222 C 0.15857 0.4669 0.26134 0.0
C223 C 0.02405 0.42647 0.26286 0.0
C224 C 0.7865 0.0645 0.56029 0.0
C225 C 0.83065 0.07146 0.47632 0.0
O226 O 0.84441 0.07001 0.55081 0.0
Zn227 Zn 0.80743 0.0692 0.51853 0.0
O228 O 0.72929 0.06079 0.54742 0.0
Zn229 Zn 0.69709 0.06071 0.51105 0.0
O230 O 0.68842 0.04296 0.50535 0.0
O231 O 0.81017 0.04957 0.51115 0.0
O232 O 0.76464 0.06623 0.48088 0.0
O233 O 0.87353 0.07527 0.49312 0.0
O234 O 0.70987 0.0818 0.51842 0.0
O235 O 0.60359 0.07113 0.5094 0.0
C236 C 0.7619 0.04078 0.50633 0.0
C237 C 0.63556 0.08142 0.51466 0.0
C238 C 0.39768 0.16685 0.51472 0.0
C239 C 0.31286 0.21064 0.51463 0.0
O240 O 0.45118 0.17468 0.50912 0.0
Zn241 Zn 0.46744 0.19424 0.5063 0.0
O242 O 0.33006 0.17074 0.52087 0.0
Zn243 Zn 0.35 0.18855 0.51669 0.0
O244 O 0.37013 0.18999 0.47996 0.0
O245 O 0.49215 0.19625 0.47343 0.0
O246 O 0.26962 0.20156 0.52093 0.0
O247 O 0.38475 0.20873 0.50931 0.0
O248 O 0.54224 0.19841 0.53097 0.0
O249 O 0.42698 0.19247 0.54465 0.0
C250 C 0.42463 0.19314 0.46569 0.0
C251 C 0.49733 0.1962 0.54826 0.0
C252 C 0.66984 0.20416 0.7159 0.0
C253 C 0.75332 0.20263 0.79797 0.0
O254 O 0.74099 0.20081 0.7194 0.0
Zn255 Zn 0.82234 0.19803 0.74659 0.0
O256 O 0.62671 0.20727 0.73314 0.0
Zn257 Zn 0.70512 0.2042 0.75762 0.0
O258 O 0.78608 0.2186 0.75159 0.0
O259 O 0.90151 0.21108 0.74124 0.0
O260 O 0.68576 0.20631 0.79118 0.0
O261 O 0.80517 0.19951 0.78292 0.0
O262 O 0.84105 0.1801 0.74342 0.0
O263 O 0.72104 0.18464 0.75555 0.0
C264 C 0.85765 0.22038 0.74572 0.0
C265 C 0.77316 0.17655 0.75015 0.0
C266 C 0.46455 0.04606 0.76444 0.0
C267 C 0.57632 0.08829 0.76355 0.0
O268 O 0.53812 0.0464 0.76923 0.0
Zn269 Zn 0.62859 0.05992 0.774 0.0
O270 O 0.42794 0.05615 0.76052 0.0
Zn271 Zn 0.51633 0.06762 0.76412 0.0
O272 O 0.59284 0.06333 0.7358 0.0
O273 O 0.7039 0.05547 0.74918 0.0
O274 O 0.50537 0.08541 0.75878 0.0
O275 O 0.62508 0.07977 0.76953 0.0
O276 O 0.65209 0.05839 0.8077 0.0
O277 O 0.53736 0.06718 0.80072 0.0
C278 C 0.66191 0.05906 0.73197 0.0
C279 C 0.58965 0.06352 0.8153 0.0
C280 C 0.31395 0.95686 0.46808 0.0
C281 C 0.21389 0.95295 0.54812 0.0
O282 O 0.34177 0.96185 0.48645 0.0
Zn283 Zn 0.26324 0.95563 0.5084 0.0
O284 O 0.24976 0.95067 0.46941 0.0
Zn285 Zn 0.16695 0.94507 0.49535 0.0
O286 O 0.07001 0.95337 0.4865 0.0
O287 O 0.15875 0.9661 0.50129 0.0
O288 O 0.17035 0.94755 0.53284 0.0
O289 O 0.27506 0.95879 0.54152 0.0
O290 O 0.28139 0.93588 0.50695 0.0
O291 O 0.17389 0.92727 0.49247 0.0
C292 C 0.08939 0.96419 0.49323 0.0
C293 C 0.24341 0.92618 0.50045 0.0
C294 C 0.40874 0.81204 0.47788 0.0
C295 C 0.4471 0.8167 0.56349 0.0
O296 O 0.3612 0.80839 0.49366 0.0
Zn297 Zn 0.42611 0.81276 0.52111 0.0
O298 O 0.47583 0.81638 0.48397 0.0
Zn299 Zn 0.54082 0.82048 0.51505 0.0
O300 O 0.63016 0.80924 0.5146 0.0
O301 O 0.51829 0.79931 0.51996 0.0
O302 O 0.50521 0.82017 0.55085 0.0
O303 O 0.3884 0.81146 0.55373 0.0
O304 O 0.43229 0.8326 0.51748 0.0
O305 O 0.5554 0.83818 0.51057 0.0
C306 C 0.5932 0.79912 0.51764 0.0
C307 C 0.48348 0.84108 0.51355 0.0
C308 C 0.26524 0.82035 0.30607 0.0
C309 C 0.2181 0.82249 0.22086 0.0
O310 O 0.31283 0.81747 0.2898 0.0
Zn311 Zn 0.24644 0.82178 0.26302 0.0
O312 O 0.19753 0.82476 0.30066 0.0
Zn313 Zn 0.13164 0.82905 0.26957 0.0
O314 O 0.04216 0.81769 0.27137 0.0
O315 O 0.15547 0.80818 0.26566 0.0
O316 O 0.16145 0.82666 0.23337 0.0
O317 O 0.28035 0.81857 0.23086 0.0
O318 O 0.23926 0.84178 0.26361 0.0
O319 O 0.11686 0.84697 0.27178 0.0
C320 C 0.08088 0.80769 0.26844 0.0
C321 C 0.18703 0.85019 0.26708 0.0
C322 C 0.52064 0.97923 0.25263 0.0
C323 C 0.40196 0.93752 0.25805 0.0
O324 O 0.569 0.97058 0.25815 0.0
Zn325 Zn 0.56929 0.95094 0.26478 0.0
O326 O 0.44812 0.97672 0.2496 0.0
Zn327 Zn 0.4575 0.95881 0.25486 0.0
O328 O 0.48103 0.95861 0.29148 0.0
O329 O 0.59742 0.9502 0.29797 0.0
O330 O 0.36766 0.94745 0.25157 0.0
O331 O 0.47525 0.93785 0.26322 0.0
O332 O 0.64106 0.94529 0.2402 0.0
O333 O 0.5321 0.95369 0.22647 0.0
C334 C 0.53504 0.95525 0.30579 0.0
C335 C 0.59977 0.94883 0.22284 0.0
C336 C 0.82891 0.57414 0.96619 0.0
C337 C 0.7675 0.57023 0.04965 0.0
O338 O 0.88661 0.57633 0.98002 0.0
Zn339 Zn 0.91319 0.57667 0.01649 0.0
O340 O 0.76181 0.57126 0.9745 0.0
Zn341 Zn 0.79228 0.57228 1.00725 0.0
O342 O 0.8173 0.5916 0.01042 0.0
O343 O 0.94107 0.5943 0.02097 0.0
O344 O 0.71948 0.56873 0.03279 0.0
O345 O 0.83879 0.57323 0.04532 0.0
O346 O 0.98825 0.56269 0.01878 0.0
O347 O 0.86876 0.55688 0.00855 0.0
C348 C 0.87444 0.59888 0.01546 0.0
C349 C 0.94044 0.55413 0.0128 0.0
C350 C 0.51751 0.72469 0.99436 0.0
C351 C 0.65855 0.68527 1.00719 0.0
O352 O 0.59178 0.72319 0.99427 0.0
Zn353 Zn 0.59116 0.70533 1.00038 0.0
O354 O 0.47239 0.71541 0.99846 0.0
Zn355 Zn 0.48176 0.69594 1.00639 0.0
O356 O 0.44009 0.69517 0.03851 0.0
O357 O 0.55265 0.70521 0.03612 0.0
O358 O 0.58376 0.68445 0.00941 0.0
O359 O 0.68895 0.69564 1.00154 0.0
O360 O 0.53516 0.69827 0.96936 0.0
O361 O 0.42666 0.68851 0.97951 0.0
C362 C 0.4952 0.70119 0.04849 0.0
C363 C 0.47372 0.69208 0.96355 0.0
C364 C 0.73611 0.70615 0.30071 0.0
C365 C 0.63255 0.70823 0.21913 0.0
O366 O 0.78304 0.70264 0.28451 0.0
Zn367 Zn 0.78948 0.70118 0.24735 0.0
O368 O 0.66786 0.71017 0.29522 0.0
Zn369 Zn 0.6782 0.70827 0.26092 0.0
O370 O 0.68662 0.68862 0.258 0.0
O371 O 0.80204 0.68321 0.24344 0.0
O372 O 0.59536 0.71202 0.23712 0.0
O373 O 0.70316 0.70437 0.22155 0.0
O374 O 0.87161 0.71344 0.23997 0.0
O375 O 0.76507 0.72193 0.25509 0.0
C376 C 0.73442 0.68017 0.25118 0.0
C377 C 0.8354 0.723 0.24749 0.0
C378 C 0.50265 0.59382 0.25039 0.0
C379 C 0.38938 0.55195 0.24284 0.0
O380 O 0.54815 0.5849 0.25645 0.0
Zn381 Zn 0.54935 0.56517 0.25854 0.0
O382 O 0.43312 0.59144 0.2433 0.0
Zn383 Zn 0.43898 0.57338 0.24617 0.0
O384 O 0.44668 0.57086 0.28259 0.0
O385 O 0.55931 0.56209 0.29235 0.0
O386 O 0.35233 0.562 0.23862 0.0
O387 O 0.46062 0.55237 0.2499 0.0
O388 O 0.62941 0.5609 0.23511 0.0
O389 O 0.52264 0.56945 0.22001 0.0
C390 C 0.49263 0.56649 0.29827 0.0
C391 C 0.59152 0.56491 0.21738 0.0
C392 C 0.23734 0.45148 0.04641 0.0
C393 C 0.30827 0.45628 0.96353 0.0
O394 O 0.30028 0.45664 0.03919 0.0
Zn395 Zn 0.28232 0.45381 1.00563 0.0
O396 O 0.18943 0.44676 0.03165 0.0
Zn397 Zn 0.17267 0.44454 0.9955 0.0
O398 O 0.17642 0.42644 0.99137 0.0
O399 O 0.29095 0.43413 1.00237 0.0
O400 O 0.2436 0.45064 0.96766 0.0
O401 O 0.35141 0.45981 0.98055 0.0
O402 O 0.18517 0.46567 1.00016 0.0
O403 O 0.07834 0.45496 0.99114 0.0
C404 C 0.24837 0.42476 0.99681 0.0
C405 C 0.11215 0.46534 0.99498 0.0
C406 C 0.50472 0.31451 0.05058 0.0
C407 C 0.42429 0.30829 0.96864 0.0
O408 O 0.43888 0.30984 0.04439 0.0
Zn409 Zn 0.45612 0.31113 0.01056 0.0
O410 O 0.5536 0.3181 0.03499 0.0
Zn411 Zn 0.56836 0.31891 0.99832 0.0
O412 O 0.57189 0.33696 0.99258 0.0
O413 O 0.45633 0.33072 1.00565 0.0
O414 O 0.49153 0.31327 0.9719 0.0
O415 O 0.38257 0.30521 0.98621 0.0
O416 O 0.54886 0.29827 1.00762 0.0
O417 O 0.65654 0.30713 0.99396 0.0
C418 C 0.50172 0.33949 0.99884 0.0
C419 C 0.62085 0.2975 1.00148 0.0
C420 C 0.27155 0.31108 0.79958 0.0
C421 C 0.21067 0.31788 0.71641 0.0
O422 O 0.31299 0.30709 0.78262 0.0
Zn423 Zn 0.25114 0.31472 0.75728 0.0
O424 O 0.21175 0.3179 0.79535 0.0
Zn425 Zn 0.14831 0.32561 0.7674 0.0
O426 O 0.04689 0.31701 0.77095 0.0
O427 O 0.14445 0.30475 0.75989 0.0
O428 O 0.16507 0.32332 0.73096 0.0
O429 O 0.27038 0.3119 0.72392 0.0
O430 O 0.27286 0.33411 0.76105 0.0
O431 O 0.16362 0.34347 0.77207 0.0
C432 C 0.07201 0.30633 0.7649 0.0
C433 C 0.23625 0.34406 0.76676 0.0
C434 C 0.52677 0.42614 0.76315 0.0
C435 C 0.65821 0.46708 0.76262 0.0
O436 O 0.59762 0.42808 0.76951 0.0
Zn437 Zn 0.59973 0.44613 0.76438 0.0
O438 O 0.48408 0.43529 0.75653 0.0
Zn439 Zn 0.48986 0.45488 0.75231 0.0
O440 O 0.47418 0.45679 0.7185 0.0
O441 O 0.58642 0.44767 0.72776 0.0
O442 O 0.58625 0.46696 0.75625 0.0
O443 O 0.69123 0.4571 0.76958 0.0
O444 O 0.52474 0.45218 0.79082 0.0
O445 O 0.41796 0.4611 0.77679 0.0
C446 C 0.53913 0.45187 0.71224 0.0
C447 C 0.45911 0.45762 0.79426 0.0
C448 C 0.19944 0.05293 0.09119 0.0
C449 C 0.25926 0.06116 0.08443 0.0
C450 C 0.17589 0.05193 0.11463 0.0
C451 C 0.2121 0.05947 0.13182 0.0
C452 C 0.27467 0.06745 0.12529 0.0
C453 C 0.29792 0.06814 0.10169 0.0
C454 C 0.1097 0.04318 0.1208 0.0
C455 C 0.3143 0.07574 0.14302 0.0
C456 C 0.08106 0.06845 0.1828 0.0
C457 C 0.10792 0.06065 0.20083 0.0
C458 C 0.11557 0.06828 0.16056 0.0
C459 C 0.17826 0.06001 0.15591 0.0
C460 C 0.20586 0.05208 0.17394 0.0
C461 C 0.17068 0.05254 0.19626 0.0
C462 C 0.08455 0.07699 0.14197 0.0
C463 C 0.27201 0.04304 0.16959 0.0
H464 H 0.16988 0.04738 0.07803 0.0
H465 H 0.34418 0.07451 0.09662 0.0
H466 H 0.12612 0.03737 0.13606 0.0
H467 H 0.05688 0.04862 0.12577 0.0
H468 H 0.0938 0.03698 0.10601 0.0
H469 H 0.36691 0.08046 0.13571 0.0
H470 H 0.27219 0.08294 0.14901 0.0
H471 H 0.33228 0.07031 0.1586 0.0
H472 H 0.03317 0.07485 0.18611 0.0
H473 H 0.19203 0.04652 0.21006 0.0
H474 H 0.06054 0.07156 0.1271 0.0
H475 H 0.13301 0.08282 0.13506 0.0
H476 H 0.0375 0.08319 0.14866 0.0
H477 H 0.25497 0.03644 0.15556 0.0
H478 H 0.28768 0.03766 0.1855 0.0
H479 H 0.32497 0.04808 0.16344 0.0
C480 C 0.08359 0.21136 0.18343 0.0
C481 C 0.14447 0.20369 0.1914 0.0
C482 C 0.05983 0.21102 0.15983 0.0
C483 C 0.09686 0.20263 0.14419 0.0
C484 C 0.15743 0.19476 0.15235 0.0
C485 C 0.18076 0.19546 0.17575 0.0
C486 C 0.9956 0.21964 0.15158 0.0
C487 C 0.19716 0.18548 0.13644 0.0
C488 C 0.99098 0.19112 0.09014 0.0
C489 C 0.03029 0.19748 0.07222 0.0
C490 C 0.01069 0.19297 0.11365 0.0
C491 C 0.07054 0.20154 0.11948 0.0
C492 C 0.10977 0.20816 0.10152 0.0
C493 C 0.08965 0.20597 0.07802 0.0
C494 C 0.96879 0.1855 0.13221 0.0
C495 C 0.17343 0.21746 0.10715 0.0
H496 H 0.05589 0.21778 0.19547 0.0
H497 H 0.22736 0.18939 0.18188 0.0
H498 H 0.0172 0.22537 0.1368 0.0
H499 H 0.94492 0.21417 0.14501 0.0
H500 H 0.97472 0.22591 0.1657 0.0
H501 H 0.24338 0.18003 0.1456 0.0
H502 H 0.15297 0.17892 0.12927 0.0
H503 H 0.22448 0.19033 0.1214 0.0
H504 H 0.94509 0.18452 0.08576 0.0
H505 H 0.11941 0.21103 0.06425 0.0
H506 H 0.94278 0.19177 0.1455 0.0
H507 H 0.01152 0.17942 0.14139 0.0
H508 H 0.92131 0.1796 0.12481 0.0
H509 H 0.15172 0.2243 0.12016 0.0
H510 H 0.19381 0.22255 0.09138 0.0
H511 H 0.22453 0.21264 0.1151 0.0
C512 C 0.89477 0.96085 0.83046 0.0
C513 C 0.9579 0.95286 0.82568 0.0
C514 C 0.86629 0.96232 0.85342 0.0
C515 C 0.90086 0.95547 0.87195 0.0
C516 C 0.96475 0.94743 0.86719 0.0
C517 C 0.99276 0.9463 0.84421 0.0
C518 C 0.79876 0.9711 0.85783 0.0
C519 C 0.00247 0.93977 0.88629 0.0
C520 C 0.87178 0.9638 0.93625 0.0
C521 C 0.81292 0.95538 0.94286 0.0
C522 C 0.89902 0.96429 0.913 0.0
C523 C 0.86756 0.95603 0.89608 0.0
C524 C 0.80725 0.94768 0.9026 0.0
C525 C 0.7804 0.94752 0.92578 0.0
C526 C 0.96263 0.97345 0.90665 0.0
C527 C 0.77282 0.93858 0.88527 0.0
H528 H 0.86791 0.96603 0.8163 0.0
H529 H 0.04141 0.94007 0.84072 0.0
H530 H 0.7469 0.96582 0.86409 0.0
H531 H 0.81473 0.97781 0.87177 0.0
H532 H 0.7817 0.97634 0.84188 0.0
H533 H 0.05282 0.93418 0.87981 0.0
H534 H 0.02363 0.9459 0.90056 0.0
H535 H 0.95834 0.93338 0.89397 0.0
H536 H 0.897 0.96994 0.94926 0.0
H537 H 0.73507 0.94094 0.93064 0.0
H538 H 0.9446 0.97896 0.89115 0.0
H539 H 0.01712 0.96839 0.9019 0.0
H540 H 0.97629 0.97992 0.92124 0.0
H541 H 0.75012 0.94357 0.8697 0.0
H542 H 0.72423 0.93301 0.89289 0.0
H543 H 0.81936 0.93214 0.87915 0.0
C544 C 0.76481 0.80851 0.84448 0.0
C545 C 0.71525 0.81855 0.83913 0.0
C546 C 0.79592 0.80686 0.86699 0.0
C547 C 0.77792 0.81554 0.88477 0.0
C548 C 0.72464 0.82536 0.87986 0.0
C549 C 0.69348 0.82672 0.85709 0.0
C550 C 0.85164 0.79618 0.87136 0.0
C551 C 0.70399 0.83483 0.8983 0.0
C552 C 0.84066 0.80696 0.94705 0.0
C553 C 0.91434 0.8128 0.94869 0.0
C554 C 0.79443 0.80799 0.92661 0.0
C555 C 0.82226 0.81506 0.9074 0.0
C556 C 0.89609 0.82107 0.90912 0.0
C557 C 0.94106 0.81983 0.92959 0.0
C558 C 0.7163 0.80138 0.92544 0.0
C559 C 0.92834 0.8287 0.88914 0.0
H560 H 0.78105 0.80203 0.8308 0.0
H561 H 0.65527 0.83449 0.8531 0.0
H562 H 0.912 0.79982 0.87408 0.0
H563 H 0.83474 0.79109 0.88744 0.0
H564 H 0.85293 0.78952 0.85652 0.0
H565 H 0.6548 0.84094 0.89271 0.0
H566 H 0.68757 0.83016 0.91488 0.0
H567 H 0.75611 0.84071 0.90199 0.0
H568 H 0.8191 0.80159 0.96172 0.0
H569 H 0.99745 0.82449 0.93061 0.0
H570 H 0.71778 0.79425 0.91144 0.0
H571 H 0.66897 0.80805 0.92088 0.0
H572 H 0.70107 0.79677 0.94221 0.0
H573 H 0.93817 0.82267 0.8737 0.0
H574 H 0.98478 0.83331 0.89368 0.0
H575 H 0.88528 0.83594 0.88395 0.0
C576 C 0.14638 0.5736 0.57925 0.0
C577 C 0.12532 0.56356 0.56493 0.0
C578 C 0.12242 0.57424 0.60259 0.0
C579 C 0.07684 0.5645 0.61207 0.0
C580 C 0.05362 0.55443 0.59759 0.0
C581 C 0.07768 0.55412 0.57399 0.0
C582 C 0.14713 0.58528 0.61717 0.0
C583 C 0.00543 0.54384 0.60721 0.0
C584 C 0.08873 0.56293 0.67843 0.0
C585 C 0.02015 0.56926 0.68493 0.0
C586 C 0.10593 0.56071 0.65473 0.0
C587 C 0.05387 0.56507 0.63717 0.0
C588 C 0.98401 0.57129 0.64368 0.0
C589 C 0.96787 0.57325 0.66743 0.0
C590 C 0.18079 0.55396 0.64846 0.0
C591 C 0.92769 0.5763 0.62554 0.0
H592 H 0.18267 0.58099 0.57219 0.0
H593 H 0.062 0.54632 0.56297 0.0
H594 H 0.09467 0.58987 0.6248 0.0
H595 H 0.18466 0.58216 0.63192 0.0
H596 H 0.18037 0.59227 0.60686 0.0
H597 H 0.99009 0.53691 0.59355 0.0
H598 H 0.03878 0.5391 0.6213 0.0
H599 H 0.95038 0.54743 0.6151 0.0
H600 H 0.12889 0.55968 0.69184 0.0
H601 H 0.9146 0.57814 0.67225 0.0
H602 H 0.22169 0.56045 0.63958 0.0
H603 H 0.16805 0.54629 0.63607 0.0
H604 H 0.21088 0.55007 0.66409 0.0
H605 H 0.95662 0.58385 0.61553 0.0
H606 H 0.87302 0.58005 0.63347 0.0
H607 H 0.91156 0.56893 0.61288 0.0
C608 C 0.11209 0.69892 0.5838 0.0
C609 C 0.14884 0.70443 0.56438 0.0
C610 C 0.15104 0.69752 0.60526 0.0
C611 C 0.22931 0.70177 0.60776 0.0
C612 C 0.26745 0.70729 0.58827 0.0
C613 C 0.22682 0.70854 0.56678 0.0
C614 C 0.10753 0.69162 0.62545 0.0
C615 C 0.35077 0.71196 0.59022 0.0
C616 C 0.27315 0.70903 0.67132 0.0
C617 C 0.30734 0.69792 0.67925 0.0
C618 C 0.2535 0.71079 0.6477 0.0
C619 C 0.26758 0.70116 0.63139 0.0
C620 C 0.3071 0.69024 0.63895 0.0
C621 C 0.32686 0.68877 0.66282 0.0
C622 C 0.2121 0.72262 0.64061 0.0
C623 C 0.3235 0.67975 0.62219 0.0
H624 H 0.05209 0.69562 0.58231 0.0
H625 H 0.25609 0.71272 0.55192 0.0
H626 H 0.14151 0.68364 0.63242 0.0
H627 H 0.10096 0.69844 0.63985 0.0
H628 H 0.0481 0.68829 0.62036 0.0
H629 H 0.37378 0.71538 0.57323 0.0
H630 H 0.35357 0.71964 0.60313 0.0
H631 H 0.3898 0.70446 0.59672 0.0
H632 H 0.25885 0.71625 0.68384 0.0
H633 H 0.35326 0.68016 0.66877 0.0
H634 H 0.14924 0.72059 0.63703 0.0
H635 H 0.23791 0.72643 0.62433 0.0
H636 H 0.21526 0.72984 0.65446 0.0
H637 H 0.26772 0.67488 0.61806 0.0
H638 H 0.36548 0.6729 0.62963 0.0
H639 H 0.34759 0.68337 0.6055 0.0
C640 C 0.96568 0.45205 0.33605 0.0
C641 C 0.93095 0.45948 0.3187 0.0
C642 C 0.9434 0.45299 0.35948 0.0
C643 C 0.88526 0.4617 0.36597 0.0
C644 C 0.85072 0.46944 0.3487 0.0
C645 C 0.87351 0.46816 0.32512 0.0
C646 C 0.98058 0.44434 0.37717 0.0
C647 C 0.78921 0.47893 0.35512 0.0
C648 C 0.77709 0.45197 0.42059 0.0
C649 C 0.81889 0.45826 0.43817 0.0
C650 C 0.79541 0.45355 0.39694 0.0
C651 C 0.85667 0.46174 0.39054 0.0
C652 C 0.89705 0.46854 0.40807 0.0
C653 C 0.87811 0.46664 0.43177 0.0
C654 C 0.75194 0.44591 0.37891 0.0
C655 C 0.96208 0.47747 0.40184 0.0
H656 H 0.00977 0.44524 0.33129 0.0
H657 H 0.84697 0.47399 0.31183 0.0
H658 H 0.00731 0.44976 0.39164 0.0
H659 H 0.93486 0.43826 0.38493 0.0
H660 H 0.02677 0.43836 0.36933 0.0
H661 H 0.77298 0.48494 0.34007 0.0
H662 H 0.7355 0.47417 0.36146 0.0
H663 H 0.81087 0.48489 0.3696 0.0
H664 H 0.73107 0.44548 0.4253 0.0
H665 H 0.90993 0.47165 0.44523 0.0
H666 H 0.79281 0.43908 0.37096 0.0
H667 H 0.72973 0.45193 0.36462 0.0
H668 H 0.7015 0.44077 0.38655 0.0
H669 H 0.01411 0.4722 0.39567 0.0
H670 H 0.98011 0.48327 0.417 0.0
H671 H 0.94326 0.48366 0.38736 0.0
C672 C 0.76927 0.31707 0.34062 0.0
C673 C 0.80355 0.30971 0.32311 0.0
C674 C 0.78934 0.3156 0.36415 0.0
C675 C 0.84464 0.30641 0.37057 0.0
C676 C 0.87788 0.29864 0.35315 0.0
C677 C 0.85744 0.30046 0.3295 0.0
C678 C 0.75376 0.32428 0.38203 0.0
C679 C 0.93633 0.28865 0.35946 0.0
C680 C 0.95829 0.31491 0.42498 0.0
C681 C 0.9165 0.30866 0.44257 0.0
C682 C 0.93754 0.31378 0.40143 0.0
C683 C 0.87366 0.30609 0.3951 0.0
C684 C 0.83259 0.2994 0.41261 0.0
C685 C 0.85409 0.30085 0.43626 0.0
C686 C 0.98189 0.3213 0.38344 0.0
C687 C 0.7648 0.29098 0.4064 0.0
H688 H 0.72768 0.32428 0.3359 0.0
H689 H 0.88349 0.29466 0.3161 0.0
H690 H 0.72649 0.31891 0.39643 0.0
H691 H 0.80058 0.33015 0.38984 0.0
H692 H 0.70839 0.33048 0.37431 0.0
H693 H 0.94975 0.28249 0.34439 0.0
H694 H 0.99191 0.29297 0.36553 0.0
H695 H 0.91349 0.2829 0.37406 0.0
H696 H 0.00657 0.32101 0.42964 0.0
H697 H 0.82219 0.29589 0.44973 0.0
H698 H 0.94202 0.32831 0.37554 0.0
H699 H 0.00297 0.31522 0.36911 0.0
H700 H 0.03326 0.32623 0.39108 0.0
H701 H 0.71434 0.29663 0.40023 0.0
H702 H 0.74524 0.28531 0.42155 0.0
H703 H 0.78157 0.28467 0.3919 0.0
C704 C 0.82826 0.06964 0.60146 0.0
C705 C 0.78314 0.06246 0.58599 0.0
C706 C 0.81902 0.0685 0.62586 0.0
C707 C 0.76421 0.05984 0.63499 0.0
C708 C 0.72196 0.05209 0.61942 0.0
C709 C 0.73145 0.05355 0.59518 0.0
C710 C 0.86461 0.07705 0.6418 0.0
C711 C 0.6636 0.04264 0.6283 0.0
C712 C 0.75615 0.05206 0.70032 0.0
C713 C 0.6921 0.05931 0.70756 0.0
C714 C 0.7816 0.05225 0.67682 0.0
C715 C 0.74286 0.06 0.66036 0.0
C716 C 0.67983 0.06759 0.66784 0.0
C717 C 0.65509 0.06708 0.69117 0.0
C718 C 0.84854 0.04394 0.66946 0.0
C719 C 0.6373 0.07613 0.65108 0.0
H720 H 0.86842 0.07653 0.59452 0.0
H721 H 0.69711 0.04783 0.58338 0.0
H722 H 0.8239 0.08392 0.64969 0.0
H723 H 0.89176 0.07174 0.65633 0.0
H724 H 0.91149 0.08216 0.63232 0.0
H725 H 0.64281 0.03632 0.61423 0.0
H726 H 0.69013 0.03697 0.64247 0.0
H727 H 0.61186 0.04749 0.63578 0.0
H728 H 0.78517 0.04606 0.71286 0.0
H729 H 0.60632 0.07289 0.6966 0.0
H730 H 0.89475 0.04946 0.66058 0.0
H731 H 0.82694 0.03697 0.65668 0.0
H732 H 0.87535 0.03897 0.68451 0.0
H733 H 0.67988 0.08234 0.64221 0.0
H734 H 0.59248 0.08196 0.65997 0.0
H735 H 0.60753 0.07057 0.63734 0.0
C736 C 0.48351 0.19185 0.59069 0.0
C737 C 0.52334 0.19804 0.57267 0.0
C738 C 0.50406 0.19364 0.61415 0.0
C739 C 0.56531 0.20199 0.61981 0.0
C740 C 0.60509 0.20845 0.60175 0.0
C741 C 0.58412 0.2063 0.5783 0.0
C742 C 0.46158 0.18633 0.63281 0.0
C743 C 0.67019 0.21753 0.60722 0.0
C744 C 0.58019 0.21163 0.68379 0.0
C745 C 0.6399 0.20371 0.69168 0.0
C746 C 0.55646 0.21146 0.66019 0.0
C747 C 0.59228 0.20299 0.64446 0.0
C748 C 0.65172 0.19488 0.65253 0.0
C749 C 0.67509 0.19541 0.67594 0.0
C750 C 0.49351 0.22034 0.65203 0.0
C751 C 0.69005 0.18549 0.63653 0.0
H752 H 0.43659 0.18541 0.58644 0.0
H753 H 0.61432 0.21122 0.56442 0.0
H754 H 0.50369 0.18011 0.64192 0.0
H755 H 0.43673 0.19269 0.64614 0.0
H756 H 0.41314 0.18058 0.62553 0.0
H757 H 0.69084 0.22253 0.59139 0.0
H758 H 0.64982 0.22443 0.62028 0.0
H759 H 0.72082 0.21252 0.61504 0.0
H760 H 0.55345 0.21812 0.6959 0.0
H761 H 0.72082 0.18917 0.68201 0.0
H762 H 0.44184 0.21507 0.64556 0.0
H763 H 0.51574 0.22598 0.6372 0.0
H764 H 0.47392 0.22669 0.66617 0.0
H765 H 0.64492 0.17908 0.6294 0.0
H766 H 0.73573 0.1799 0.6456 0.0
H767 H 0.71771 0.19027 0.62146 0.0
C768 C 0.3291 0.9503 0.42645 0.0
C769 C 0.35645 0.95739 0.4454 0.0
C770 C 0.36829 0.9503 0.40491 0.0
C771 C 0.43656 0.95765 0.40201 0.0
C772 C 0.4652 0.96476 0.42107 0.0
C773 C 0.42491 0.96452 0.44259 0.0
C774 C 0.33569 0.94255 0.38511 0.0
C775 C 0.53754 0.97276 0.4186 0.0
C776 C 0.55496 0.94911 0.34785 0.0
C777 C 0.52131 0.95703 0.33116 0.0
C778 C 0.53147 0.94966 0.37145 0.0
C779 C 0.47382 0.95843 0.37844 0.0
C780 C 0.44406 0.967 0.3619 0.0
C781 C 0.46778 0.96614 0.33849 0.0
C782 C 0.56447 0.94034 0.38854 0.0
C783 C 0.38324 0.97659 0.36856 0.0
H784 H 0.27675 0.94466 0.42841 0.0
H785 H 0.44676 0.96997 0.45715 0.0
H786 H 0.31697 0.94868 0.37054 0.0
H787 H 0.38184 0.93626 0.37821 0.0
H788 H 0.28448 0.93685 0.39058 0.0
H789 H 0.55488 0.97717 0.43539 0.0
H790 H 0.58753 0.96712 0.41208 0.0
H791 H 0.52652 0.98017 0.40552 0.0
H792 H 0.59631 0.94205 0.34227 0.0
H793 H 0.44235 0.97242 0.32572 0.0
H794 H 0.5185 0.93341 0.3929 0.0
H795 H 0.58192 0.94497 0.40508 0.0
H796 H 0.61619 0.93535 0.38132 0.0
H797 H 0.32657 0.9719 0.37233 0.0
H798 H 0.37333 0.9835 0.35443 0.0
H799 H 0.40138 0.98158 0.38465 0.0
C800 C 0.42674 0.82032 0.43739 0.0
C801 C 0.38663 0.81228 0.45262 0.0
C802 C 0.40659 0.82121 0.41361 0.0
C803 C 0.34568 0.81368 0.40446 0.0
C804 C 0.3057 0.80536 0.41961 0.0
C805 C 0.32595 0.80487 0.44357 0.0
C806 C 0.44967 0.83043 0.39838 0.0
C807 C 0.24146 0.79699 0.41049 0.0
C808 C 0.24551 0.82504 0.34864 0.0
C809 C 0.28614 0.81851 0.33117 0.0
C810 C 0.26361 0.82344 0.37247 0.0
C811 C 0.32275 0.81489 0.37921 0.0
C812 C 0.36298 0.80807 0.36168 0.0
C813 C 0.34488 0.81007 0.33789 0.0
C814 C 0.22053 0.83114 0.39042 0.0
C815 C 0.42543 0.79871 0.36806 0.0
H816 H 0.4732 0.8262 0.44418 0.0
H817 H 0.29483 0.79861 0.45514 0.0
H818 H 0.47827 0.82556 0.38357 0.0
H819 H 0.40732 0.83717 0.39082 0.0
H820 H 0.49536 0.83565 0.40819 0.0
H821 H 0.21877 0.79061 0.42416 0.0
H822 H 0.19188 0.80267 0.40379 0.0
H823 H 0.26378 0.79139 0.39562 0.0
H824 H 0.20018 0.83161 0.34365 0.0
H825 H 0.37601 0.80488 0.32456 0.0
H826 H 0.26301 0.83703 0.40013 0.0
H827 H 0.19148 0.82501 0.40337 0.0
H828 H 0.17528 0.83725 0.3824 0.0
H829 H 0.47575 0.80347 0.37655 0.0
H830 H 0.44751 0.79356 0.35256 0.0
H831 H 0.40169 0.79193 0.38085 0.0
C832 C 0.791 0.57336 0.09226 0.0
C833 C 0.74356 0.56851 0.07434 0.0
C834 C 0.77088 0.5719 0.11584 0.0
C835 C 0.70205 0.56526 0.12178 0.0
C836 C 0.6548 0.56004 0.10383 0.0
C837 C 0.67574 0.56183 0.08027 0.0
C838 C 0.82188 0.57786 0.13436 0.0
C839 C 0.58134 0.5528 0.10953 0.0
C840 C 0.67627 0.55576 0.18565 0.0
C841 C 0.62513 0.56504 0.19357 0.0
C842 C 0.70118 0.55555 0.16214 0.0
C843 C 0.67539 0.56497 0.14655 0.0
C844 C 0.62542 0.5745 0.15477 0.0
C845 C 0.60059 0.57436 0.17805 0.0
C846 C 0.7539 0.54518 0.15388 0.0
C847 C 0.59798 0.58489 0.13895 0.0
H848 H 0.8435 0.57857 0.08785 0.0
H849 H 0.63937 0.55793 0.06653 0.0
H850 H 0.78811 0.58523 0.14347 0.0
H851 H 0.83925 0.57091 0.14771 0.0
H852 H 0.87597 0.58208 0.12693 0.0
H853 H 0.55527 0.54835 0.0938 0.0
H854 H 0.59461 0.5455 0.12266 0.0
H855 H 0.53686 0.55908 0.11735 0.0
H856 H 0.69471 0.54849 0.19757 0.0
H857 H 0.56158 0.58163 0.18418 0.0
H858 H 0.80955 0.54905 0.14689 0.0
H859 H 0.72494 0.54007 0.13938 0.0
H860 H 0.76816 0.53851 0.16808 0.0
H861 H 0.64941 0.5899 0.13166 0.0
H862 H 0.56006 0.5917 0.14822 0.0
H863 H 0.56439 0.58103 0.12399 0.0
C864 C 0.63064 0.6994 0.17883 0.0
C865 C 0.59617 0.70736 0.19539 0.0
C866 C 0.60245 0.6986 0.15583 0.0
C867 C 0.53799 0.70602 0.14878 0.0
C868 C 0.50094 0.71382 0.16552 0.0
C869 C 0.53019 0.71435 0.18871 0.0
C870 C 0.64369 0.69005 0.13883 0.0
C871 C 0.43214 0.72189 0.15875 0.0
C872 C 0.54612 0.7126 0.08354 0.0
C873 C 0.49622 0.70344 0.07426 0.0
C874 C 0.55563 0.71412 0.10779 0.0
C875 C 0.51494 0.7062 0.12342 0.0
C876 C 0.46122 0.69736 0.11424 0.0
C877 C 0.4522 0.69612 0.08978 0.0
C878 C 0.61304 0.72374 0.11662 0.0
C879 C 0.41673 0.68871 0.13019 0.0
H880 H 0.68078 0.69376 0.1838 0.0
H881 H 0.50292 0.72048 0.20134 0.0
H882 H 0.60059 0.68379 0.13027 0.0
H883 H 0.6721 0.69562 0.12487 0.0
H884 H 0.68949 0.68428 0.14744 0.0
H885 H 0.40483 0.72645 0.17414 0.0
H886 H 0.45209 0.72919 0.14642 0.0
H887 H 0.38679 0.7163 0.14957 0.0
H888 H 0.57963 0.71844 0.07177 0.0
H889 H 0.41335 0.68904 0.08283 0.0
H890 H 0.66562 0.71904 0.12396 0.0
H891 H 0.58628 0.7293 0.13086 0.0
H892 H 0.63259 0.73014 0.10254 0.0
H893 H 0.45792 0.68175 0.13762 0.0
H894 H 0.36911 0.68369 0.12081 0.0
H895 H 0.39075 0.6939 0.14504 0.0
C896 C 0.47048 0.45208 0.83616 0.0
C897 C 0.4338 0.4593 0.81882 0.0
C898 C 0.45076 0.45329 0.85972 0.0
C899 C 0.39296 0.46201 0.86638 0.0
C900 C 0.35648 0.46955 0.84913 0.0
C901 C 0.37692 0.46803 0.82541 0.0
C902 C 0.48994 0.44485 0.87739 0.0
C903 C 0.29512 0.47903 0.85573 0.0
C904 C 0.28793 0.45208 0.92127 0.0
C905 C 0.3295 0.45848 0.93877 0.0
C906 C 0.30522 0.45371 0.8976 0.0
C907 C 0.36544 0.46204 0.89104 0.0
C908 C 0.40599 0.4689 0.90847 0.0
C909 C 0.38794 0.46697 0.93224 0.0
C910 C 0.26166 0.44598 0.87969 0.0
C911 C 0.46999 0.47797 0.90204 0.0
H912 H 0.51424 0.44524 0.83129 0.0
H913 H 0.34901 0.47371 0.81213 0.0
H914 H 0.51662 0.4504 0.89167 0.0
H915 H 0.44539 0.43865 0.88541 0.0
H916 H 0.53653 0.43899 0.86944 0.0
H917 H 0.27819 0.485 0.8407 0.0
H918 H 0.24174 0.47425 0.86227 0.0
H919 H 0.31724 0.48502 0.8701 0.0
H920 H 0.24256 0.44549 0.92606 0.0
H921 H 0.41948 0.47206 0.94563 0.0
H922 H 0.30281 0.43927 0.87152 0.0
H923 H 0.2381 0.45197 0.86555 0.0
H924 H 0.21213 0.4407 0.88751 0.0
H925 H 0.52213 0.47282 0.89559 0.0
H926 H 0.48829 0.48377 0.91717 0.0
H927 H 0.44997 0.48414 0.88769 0.0
C928 C 0.2472 0.31424 0.84204 0.0
C929 C 0.29014 0.30823 0.82437 0.0
C930 C 0.26448 0.31241 0.86569 0.0
C931 C 0.32593 0.30425 0.87206 0.0
C932 C 0.36713 0.29765 0.85445 0.0
C933 C 0.34914 0.29978 0.83072 0.0
C934 C 0.22005 0.31986 0.88378 0.0
C935 C 0.43232 0.28873 0.86065 0.0
C936 C 0.43237 0.31422 0.92688 0.0
C937 C 0.39743 0.30679 0.94417 0.0
C938 C 0.41137 0.31313 0.90336 0.0
C939 C 0.35423 0.30428 0.89669 0.0
C940 C 0.31945 0.29655 0.91391 0.0
C941 C 0.34095 0.29798 0.93759 0.0
C942 C 0.44868 0.32179 0.88575 0.0
C943 C 0.25905 0.28691 0.90731 0.0
H944 H 0.2011 0.32075 0.83743 0.0
H945 H 0.38187 0.29498 0.81722 0.0
H946 H 0.19813 0.31373 0.8979 0.0
H947 H 0.2602 0.32674 0.89193 0.0
H948 H 0.16928 0.32493 0.87612 0.0
H949 H 0.45004 0.28293 0.84548 0.0
H950 H 0.48445 0.29401 0.86675 0.0
H951 H 0.4139 0.28255 0.87517 0.0
H952 H 0.47574 0.32112 0.93179 0.0
H953 H 0.31445 0.29213 0.95085 0.0
H954 H 0.40291 0.32782 0.87782 0.0
H955 H 0.47605 0.31639 0.8714 0.0
H956 H 0.49439 0.32783 0.89372 0.0
H957 H 0.205 0.29154 0.90083 0.0
H958 H 0.24312 0.28086 0.92232 0.0
H959 H 0.28162 0.28101 0.89289 0.0
C960 C 0.26712 0.01584 0.01422 0.0
C961 C 0.30155 0.02591 1.00262 0.0
C962 C 0.30321 1.00406 0.01392 0.0
C963 C 0.37398 1.00233 1.00121 0.0
C964 C 0.40575 0.01235 0.98826 0.0
C965 C 0.3699 0.02406 0.98948 0.0
C966 C 0.26844 0.99372 0.02838 0.0
C967 C 0.47981 0.01089 0.97399 0.0
C968 C 0.53169 0.97951 0.02005 0.0
C969 C 0.52163 0.96979 1.00403 0.0
C970 C 0.481 0.98978 0.02015 0.0
C971 C 0.41994 0.99057 1.00334 0.0
C972 C 0.40813 0.98061 0.98748 0.0
C973 C 0.45858 0.97023 0.98823 0.0
C974 C 0.49468 1.00001 0.03777 0.0
C975 C 0.34494 0.98121 0.96897 0.0
H976 H 0.21461 0.01735 0.02457 0.0
H977 H 0.3962 0.03188 0.98044 0.0
H978 H 0.26433 0.98505 0.01798 0.0
H979 H 0.30753 0.99179 0.0435 0.0
H980 H 0.20907 0.9961 0.03509 0.0
H981 H 0.49106 0.01908 0.96266 0.0
H982 H 0.53092 0.00967 0.98585 0.0
H983 H 0.47602 1.00249 0.9628 0.0
H984 H 0.57988 0.97912 0.03247 0.0
H985 H 0.45095 0.96275 0.97575 0.0
H986 H 0.43886 1.00244 0.04669 0.0
H987 H 0.51585 1.00847 0.02869 0.0
H988 H 0.53882 0.99736 0.05122 0.0
H989 H 0.28754 0.98369 0.97688 0.0
H990 H 0.33853 0.97228 0.95942 0.0
H991 H 0.35969 0.9886 0.95618 0.0
C992 C 0.70519 0.27986 0.98724 0.0
C993 C 0.66013 0.28539 1.00485 0.0
C994 C 0.7304 0.26743 0.9894 0.0
C995 C 0.71119 0.26054 0.00981 0.0
C996 C 0.66859 0.26635 0.02799 0.0
C997 C 0.643 0.27862 0.02517 0.0
C998 C 0.77529 0.26153 0.96956 0.0
C999 C 0.64864 0.25952 0.05029 0.0
C1000 C 0.70957 0.22506 0.00847 0.0
C1001 C 0.78415 0.2223 0.01748 0.0
C1002 C 0.68519 0.23749 1.00564 0.0
C1003 C 0.73608 0.24731 0.01241 0.0
C1004 C 0.81017 0.2445 0.02233 0.0
C1005 C 0.83347 0.23206 0.02453 0.0
C1006 C 0.60591 0.24012 0.99485 0.0
C1007 C 0.86539 0.25463 0.03038 0.0
H1008 H 0.7174 0.28504 0.9714 0.0
H1009 H 0.60815 0.28292 0.03884 0.0
H1010 H 0.83256 0.25794 0.97596 0.0
H1011 H 0.74177 0.25348 0.96265 0.0
H1012 H 0.78631 0.26814 0.95502 0.0
H1013 H 0.61821 0.26556 0.06317 0.0
H1014 H 0.61013 0.25148 0.0463 0.0
H1015 H 0.70295 0.25581 0.05849 0.0
H1016 H 0.67188 0.21755 1.00266 0.0
H1017 H 0.89125 0.22995 0.03154 0.0
H1018 H 0.61346 0.24573 0.97873 0.0
H1019 H 0.56951 0.24567 1.00708 0.0
H1020 H 0.57356 0.23149 0.99034 0.0
H1021 H 0.8818 0.2606 0.01536 0.0
H1022 H 0.92001 0.25086 0.03835 0.0
H1023 H 0.83568 0.26064 0.04341 0.0
C1024 C 0.33661 0.24334 0.24435 0.0
C1025 C 0.39079 0.23353 0.24591 0.0
C1026 C 0.36037 0.25572 0.24694 0.0
C1027 C 0.44033 0.25839 0.25135 0.0
C1028 C 0.49587 0.24856 0.25234 0.0
C1029 C 0.47046 0.23621 0.24947 0.0
C1030 C 0.2996 0.26592 0.24535 0.0
C1031 C 0.58179 0.25108 0.25699 0.0
C1032 C 0.52143 0.29049 0.23902 0.0
C1033 C 0.52576 0.29559 0.26151 0.0
C1034 C 0.49122 0.27855 0.23535 0.0
C1035 C 0.46582 0.27148 0.25477 0.0
C1036 C 0.46676 0.27683 0.27746 0.0
C1037 C 0.49688 0.28889 0.28058 0.0
C1038 C 0.49036 0.27329 0.21087 0.0
C1039 C 0.43997 0.26957 0.29857 0.0
H1040 H 0.27491 0.24134 0.24141 0.0
H1041 H 0.51238 0.22867 0.25085 0.0
H1042 H 0.29668 0.27102 0.26218 0.0
H1043 H 0.3166 0.27272 0.23169 0.0
H1044 H 0.24007 0.26229 0.24117 0.0
H1045 H 0.61757 0.24245 0.25699 0.0
H1046 H 0.60548 0.25748 0.24353 0.0
H1047 H 0.58867 0.25573 0.27419 0.0
H1048 H 0.54544 0.29565 0.22437 0.0
H1049 H 0.5024 0.29275 0.29801 0.0
H1050 H 0.43132 0.26953 0.2066 0.0
H1051 H 0.53271 0.26548 0.20968 0.0
H1052 H 0.5063 0.28035 0.19751 0.0
H1053 H 0.37983 0.26588 0.29569 0.0
H1054 H 0.44001 0.27529 0.31473 0.0
H1055 H 0.47944 0.26149 0.30128 0.0
C1056 C 0.52422 1.00192 0.26223 0.0
C1057 C 0.55221 0.99186 0.24918 0.0
C1058 C 0.56482 0.01334 0.26228 0.0
C1059 C 0.63373 0.01472 0.24854 0.0
C1060 C 0.65862 1.00478 0.23412 0.0
C1061 C 0.61834 0.99342 0.23493 0.0
C1062 C 0.53711 0.0236 0.27823 0.0
C1063 C 0.73047 1.00589 0.21877 0.0
C1064 C 0.72797 0.04642 0.23786 0.0
C1065 C 0.79274 0.04596 0.25307 0.0
C1066 C 0.67446 0.03645 0.23647 0.0
C1067 C 0.68499 0.02592 0.25104 0.0
C1068 C 0.74861 0.02567 0.26707 0.0
C1069 C 0.80208 0.0356 0.26767 0.0
C1070 C 0.60848 0.03697 0.21883 0.0
C1071 C 0.76135 0.01478 0.28327 0.0
H1072 H 0.47367 1.00063 0.2735 0.0
H1073 H 0.63988 0.9856 0.22484 0.0
H1074 H 0.57943 0.02469 0.29288 0.0
H1075 H 0.53502 0.03258 0.26874 0.0
H1076 H 0.47805 0.02165 0.28564 0.0
H1077 H 0.73597 0.99796 0.20646 0.0
H1078 H 0.72845 0.01464 0.20854 0.0
H1079 H 0.78403 1.0062 0.22985 0.0
H1080 H 0.72056 0.05439 0.22649 0.0
H1081 H 0.85143 0.03525 0.27968 0.0
H1082 H 0.55132 0.03508 0.22743 0.0
H1083 H 0.61732 0.02964 0.20544 0.0
H1084 H 0.60513 0.04611 0.20988 0.0
H1085 H 0.70654 0.01268 0.293 0.0
H1086 H 0.80933 0.01649 0.29607 0.0
H1087 H 0.77652 1.0064 0.27291 0.0
C1088 C 0.51228 0.74776 1.00053 0.0
C1089 C 0.48131 0.73701 0.99024 0.0
C1090 C 0.4709 0.7591 0.99957 0.0
C1091 C 0.39811 0.75973 0.98745 0.0
C1092 C 0.36948 0.74905 0.97578 0.0
C1093 C 0.41069 0.73779 0.97765 0.0
C1094 C 0.50264 0.77016 0.01272 0.0
C1095 C 0.29344 0.74935 0.96212 0.0
C1096 C 0.23792 0.7821 1.00687 0.0
C1097 C 0.24483 0.79178 0.9906 0.0
C1098 C 0.28917 0.77188 1.00646 0.0
C1099 C 0.3477 0.77109 0.98893 0.0
C1100 C 0.35505 0.78084 0.9724 0.0
C1101 C 0.30423 0.79117 0.97364 0.0
C1102 C 0.28022 0.76187 0.02478 0.0
C1103 C 0.41524 0.78021 0.95307 0.0
H1104 H 0.56652 0.74714 0.01045 0.0
H1105 H 0.38692 0.72949 0.96953 0.0
H1106 H 0.50322 0.7785 1.00136 0.0
H1107 H 0.46362 0.77224 0.02776 0.0
H1108 H 0.56308 0.76853 0.01944 0.0
H1109 H 0.28455 0.74077 0.95165 0.0
H1110 H 0.24324 0.75034 0.97434 0.0
H1111 H 0.29237 0.75746 0.95017 0.0
H1112 H 0.19288 0.78259 0.02024 0.0
H1113 H 0.30976 0.79862 0.96101 0.0
H1114 H 0.33732 0.7602 0.03365 0.0
H1115 H 0.26231 0.75303 0.01636 0.0
H1116 H 0.2357 0.76432 0.03821 0.0
H1117 H 0.47497 0.779 0.96053 0.0
H1118 H 0.41486 0.78867 0.94195 0.0
H1119 H 0.40333 0.77201 0.94185 0.0
C1120 C 0.63958 0.77583 0.7449 0.0
C1121 C 0.63791 0.78356 0.76458 0.0
C1122 C 0.58987 0.76539 0.74343 0.0
C1123 C 0.53884 0.76252 0.76229 0.0
C1124 C 0.5401 0.77 0.78264 0.0
C1125 C 0.58881 0.7805 0.78338 0.0
C1126 C 0.58952 0.75773 0.72132 0.0
C1127 C 0.48847 0.76711 0.8034 0.0
C1128 C 0.35374 0.74315 0.75229 0.0
C1129 C 0.37943 0.73131 0.75896 0.0
C1130 C 0.40542 0.75338 0.75289 0.0
C1131 C 0.48384 0.75174 0.76087 0.0
C1132 C 0.50917 0.73985 0.76816 0.0
C1133 C 0.45702 0.72978 0.76688 0.0
C1134 C 0.37652 0.76589 0.74468 0.0
C1135 C 0.59136 0.73774 0.77739 0.0
H1136 H 0.67635 0.77834 0.73017 0.0
H1137 H 0.5873 0.78653 0.79858 0.0
H1138 H 0.60149 0.74785 0.72546 0.0
H1139 H 0.53047 0.75816 0.71308 0.0
H1140 H 0.63384 0.761 0.70847 0.0
H1141 H 0.50007 0.7734 0.81842 0.0
H1142 H 0.42572 0.76801 0.79837 0.0
H1143 H 0.4979 0.75739 0.80918 0.0
H1144 H 0.29412 0.74434 0.74595 0.0
H1145 H 0.47707 0.72065 0.77224 0.0
H1146 H 0.41455 0.76935 0.73033 0.0
H1147 H 0.38031 0.77272 0.75916 0.0
H1148 H 0.31479 0.76555 0.73833 0.0
H1149 H 0.63518 0.74024 0.76384 0.0
H1150 H 0.60145 0.72795 0.78273 0.0
H1151 H 0.60226 0.74384 0.79271 0.0
C1152 C 0.22382 0.98245 0.75019 0.0
C1153 C 0.23602 0.9744 0.76913 0.0
C1154 C 0.26219 0.99398 0.74887 0.0
C1155 C 0.31191 0.9978 0.76741 0.0
C1156 C 0.3243 0.9897 0.78667 0.0
C1157 C 0.28726 0.97799 0.7871 0.0
C1158 C 0.24945 1.00205 0.72761 0.0
C1159 C 0.37506 0.99355 0.80708 0.0
C1160 C 0.46336 0.02325 0.75655 0.0
C1161 C 0.42356 0.03391 0.7642 0.0
C1162 C 0.42742 0.0115 0.75719 0.0
C1163 C 0.35071 0.01027 0.76653 0.0
C1164 C 0.31048 0.02101 0.77449 0.0
C1165 C 0.34687 0.03273 0.77285 0.0
C1166 C 0.47138 1.00041 0.7477 0.0
C1167 C 0.22952 0.02009 0.78512 0.0
H1168 H 0.18455 0.97965 0.73619 0.0
H1169 H 0.29608 0.97183 0.80186 0.0
H1170 H 0.22027 0.01084 0.73277 0.0
H1171 H 0.30687 1.00454 0.71969 0.0
H1172 H 0.21271 0.99741 0.71412 0.0
H1173 H 0.3775 0.98632 0.82092 0.0
H1174 H 0.43577 0.9955 0.80106 0.0
H1175 H 0.35188 1.00227 0.81483 0.0
H1176 H 0.52262 0.02413 0.74978 0.0
H1177 H 0.31635 0.04093 0.77907 0.0
H1178 H 0.436 0.99582 0.73385 0.0
H1179 H 0.48085 0.99348 0.76178 0.0
H1180 H 0.52942 1.003 0.74027 0.0
H1181 H 0.18732 0.01639 0.77206 0.0
H1182 H 0.20758 0.02921 0.79143 0.0
H1183 H 0.23046 0.01349 0.80003 0.0
C1184 C 0.59642 0.48638 0.48752 0.0
C1185 C 0.56082 0.47584 0.49724 0.0
C1186 C 0.56411 0.49822 0.49058 0.0
C1187 C 0.49525 0.49961 0.50416 0.0
C1188 C 0.45807 0.48896 0.5137 0.0
C1189 C 0.49102 0.47713 0.50992 0.0
C1190 C 0.60434 0.50926 0.47951 0.0
C1191 C 0.3849 0.49011 0.52843 0.0
C1192 C 0.45586 0.53218 0.52775 0.0
C1193 C 0.39909 0.53641 0.5119 0.0
C1194 C 0.4864 0.52004 0.52587 0.0
C1195 C 0.46074 0.51219 0.50741 0.0
C1196 C 0.40459 0.51658 0.49118 0.0
C1197 C 0.3741 0.52856 0.49375 0.0
C1198 C 0.54572 0.51559 0.54363 0.0
C1199 C 0.37736 0.50869 0.47086 0.0
H1200 H 0.65073 0.48536 0.47778 0.0
H1201 H 0.46451 0.469 0.51784 0.0
H1202 H 0.56252 0.5143 0.46801 0.0
H1203 H 0.62375 0.51585 0.49326 0.0
H1204 H 0.65637 0.50652 0.46897 0.0
H1205 H 0.36349 0.48096 0.53474 0.0
H1206 H 0.39701 0.49613 0.54378 0.0
H1207 H 0.33734 0.49462 0.51821 0.0
H1208 H 0.47486 0.5382 0.54184 0.0
H1209 H 0.33089 0.53186 0.48124 0.0
H1210 H 0.60212 0.5134 0.53484 0.0
H1211 H 0.5246 0.50691 0.55197 0.0
H1212 H 0.55699 0.52261 0.55748 0.0
H1213 H 0.4283 0.50619 0.45971 0.0
H1214 H 0.33301 0.51351 0.45982 0.0
H1215 H 0.35138 0.4999 0.47736 0.0
C1216 C 0.71223 0.78645 0.52769 0.0
C1217 C 0.63543 0.78711 0.51886 0.0
C1218 C 0.75135 0.77499 0.52968 0.0
C1219 C 0.71367 0.76398 0.52195 0.0
C1220 C 0.6363 0.76463 0.51284 0.0
C1221 C 0.59772 0.77615 0.51175 0.0
C1222 C 0.83308 0.77466 0.53999 0.0
C1223 C 0.59497 0.75321 0.50368 0.0
C1224 C 0.84729 0.73761 0.50298 0.0
C1225 C 0.84034 0.72921 0.5216 0.0
C1226 C 0.80535 0.74882 0.50274 0.0
C1227 C 0.75695 0.75192 0.52197 0.0
C1228 C 0.74996 0.7435 0.54096 0.0
C1229 C 0.7908 0.73211 0.54036 0.0
C1230 C 0.81258 0.75729 0.48179 0.0
C1231 C 0.70048 0.74663 0.56203 0.0
H1232 H 0.74117 0.79488 0.53347 0.0
H1233 H 0.53841 0.77663 0.50483 0.0
H1234 H 0.83574 0.76778 0.55442 0.0
H1235 H 0.87584 0.77166 0.5265 0.0
H1236 H 0.85171 0.78385 0.54684 0.0
H1237 H 0.53456 0.75527 0.49736 0.0
H1238 H 0.6292 0.74916 0.48903 0.0
H1239 H 0.59135 0.74604 0.51755 0.0
H1240 H 0.88486 0.73532 0.48829 0.0
H1241 H 0.78574 0.72565 0.55481 0.0
H1242 H 0.83841 0.7663 0.48717 0.0
H1243 H 0.75349 0.75925 0.4744 0.0
H1244 H 0.84991 0.75323 0.46781 0.0
H1245 H 0.72125 0.75546 0.56992 0.0
H1246 H 0.70256 0.73923 0.57556 0.0
H1247 H 0.63842 0.74805 0.5567 0.0
C1248 C 0.72937 0.53937 0.75444 0.0
C1249 C 0.80616 0.54281 0.74844 0.0
C1250 C 0.70927 0.52676 0.75737 0.0
C1251 C 0.76708 0.51743 0.75391 0.0
C1252 C 0.84414 0.52088 0.7474 0.0
C1253 C 0.86271 0.53348 0.74486 0.0
C1254 C 0.62643 0.52342 0.76438 0.0
C1255 C 0.9071 0.51125 0.74305 0.0
C1256 C 0.73292 0.48506 0.77926 0.0
C1257 C 0.70056 0.47891 0.75997 0.0
C1258 C 0.75574 0.49761 0.77754 0.0
C1259 C 0.74641 0.50401 0.756 0.0
C1260 C 0.71723 0.49758 0.73625 0.0
C1261 C 0.69409 0.48516 0.73855 0.0
C1262 C 0.78655 0.50418 0.79899 0.0
C1263 C 0.70779 0.50392 0.71284 0.0
H1264 H 0.68568 0.54652 0.75742 0.0
H1265 H 0.92218 0.53604 0.74004 0.0
H1266 H 0.59911 0.51751 0.75072 0.0
H1267 H 0.62735 0.51795 0.78082 0.0
H1268 H 0.58897 0.53176 0.76702 0.0
H1269 H 0.96438 0.51549 0.73824 0.0
H1270 H 0.91568 0.50548 0.75892 0.0
H1271 H 0.88849 0.50494 0.72875 0.0
H1272 H 0.73611 0.48029 0.79594 0.0
H1273 H 0.66812 0.48039 0.72371 0.0
H1274 H 0.74572 0.51177 0.80392 0.0
H1275 H 0.84439 0.50849 0.79522 0.0
H1276 H 0.79316 0.4978 0.81413 0.0
H1277 H 0.66401 0.51151 0.71428 0.0
H1278 H 0.68814 0.4974 0.69895 0.0
H1279 H 0.76425 0.50817 0.70738 0.0
C1280 C 0.12512 0.27711 0.48792 0.0
C1281 C 0.16763 0.28671 0.49863 0.0
C1282 C 0.14845 0.2647 0.49017 0.0
C1283 C 0.21503 0.26177 0.50395 0.0
C1284 C 0.25942 0.27146 0.51439 0.0
C1285 C 0.23552 0.28389 0.51141 0.0
C1286 C 0.10084 0.25471 0.47817 0.0
C1287 C 0.33038 0.26867 0.52937 0.0
C1288 C 0.22751 0.22856 0.527 0.0
C1289 C 0.28235 0.22338 0.51163 0.0
C1290 C 0.20592 0.24116 0.52501 0.0
C1291 C 0.23876 0.24855 0.50692 0.0
C1292 C 0.29242 0.2432 0.49101 0.0
C1293 C 0.31399 0.23074 0.49369 0.0
C1294 C 0.14901 0.24661 0.54242 0.0
C1295 C 0.32708 0.25061 0.4711 0.0
H1296 H 0.07227 0.27933 0.47813 0.0
H1297 H 0.26733 0.29131 0.52006 0.0
H1298 H 0.13941 0.24899 0.46684 0.0
H1299 H 0.07474 0.24842 0.49141 0.0
H1300 H 0.05264 0.25861 0.46728 0.0
H1301 H 0.35882 0.27725 0.53612 0.0
H1302 H 0.3127 0.26282 0.54444 0.0
H1303 H 0.3743 0.26332 0.51919 0.0
H1304 H 0.20363 0.22291 0.54098 0.0
H1305 H 0.35598 0.22671 0.48162 0.0
H1306 H 0.09595 0.2501 0.53323 0.0
H1307 H 0.17648 0.25466 0.5514 0.0
H1308 H 0.13042 0.23974 0.55581 0.0
H1309 H 0.27933 0.25433 0.45986 0.0
H1310 H 0.36726 0.24498 0.46006 0.0
H1311 H 0.36025 0.25867 0.47806 0.0
C1312 C 0.24791 0.48397 0.27487 0.0
C1313 C 0.20379 0.47832 0.25717 0.0
C1314 C 0.27823 0.49602 0.27173 0.0
C1315 C 0.26487 0.50236 0.25031 0.0
C1316 C 0.22337 0.49638 0.23208 0.0
C1317 C 0.19277 0.4845 0.23584 0.0
C1318 C 0.32199 0.50216 0.29159 0.0
C1319 C 0.20944 0.50266 0.2088 0.0
C1320 C 0.27498 0.53771 0.24909 0.0
C1321 C 0.35206 0.53962 0.24137 0.0
C1322 C 0.24557 0.52559 0.25208 0.0
C1323 C 0.29416 0.51525 0.24682 0.0
C1324 C 0.37067 0.5172 0.23794 0.0
C1325 C 0.39881 0.52935 0.2355 0.0
C1326 C 0.16366 0.52385 0.26164 0.0
C1327 C 0.42359 0.50646 0.23156 0.0
H1328 H 0.25523 0.47923 0.29146 0.0
H1329 H 0.15843 0.48008 0.22216 0.0
H1330 H 0.38119 0.50512 0.28569 0.0
H1331 H 0.29003 0.51063 0.2972 0.0
H1332 H 0.32877 0.49591 0.30691 0.0
H1333 H 0.17973 0.49644 0.19604 0.0
H1334 H 0.17248 0.51104 0.2113 0.0
H1335 H 0.26609 0.50577 0.2012 0.0
H1336 H 0.2393 0.54564 0.25398 0.0
H1337 H 0.45855 0.53083 0.22949 0.0
H1338 H 0.16656 0.51875 0.27849 0.0
H1339 H 0.12806 0.51815 0.24942 0.0
H1340 H 0.13303 0.53283 0.26456 0.0
H1341 H 0.43642 0.50082 0.24735 0.0
H1342 H 0.48019 0.50959 0.22389 0.0
H1343 H 0.39366 0.50029 0.21881 0.0
C1344 C 0.9678 0.9748 0.47806 0.0
C1345 C 0.03149 0.97444 0.49365 0.0
C1346 C 0.91433 0.98479 0.47836 0.0
C1347 C 0.92394 0.99442 0.49502 0.0
C1348 C 0.98659 0.99381 0.51131 0.0
C1349 C 0.04 0.98394 0.51022 0.0
C1350 C 0.84925 0.98525 0.46042 0.0
C1351 C 0.99824 1.00374 0.52967 0.0
C1352 C 0.85999 0.02768 0.48613 0.0
C1353 C 0.79412 0.02845 0.50071 0.0
C1354 C 0.89896 0.01638 0.48263 0.0
C1355 C 0.87285 1.00565 0.49462 0.0
C1356 C 0.80397 1.00626 0.50855 0.0
C1357 C 0.76463 0.01768 0.51119 0.0
C1358 C 0.97087 0.01612 0.46717 0.0
C1359 C 0.77509 0.99509 0.52195 0.0
H1360 H 0.96103 0.96746 0.46525 0.0
H1361 H 0.08836 0.9836 0.52259 0.0
H1362 H 0.79162 0.98662 0.46909 0.0
H1363 H 0.85857 0.99329 0.44861 0.0
H1364 H 0.84656 0.97667 0.44967 0.0
H1365 H 0.04573 1.00135 0.54225 0.0
H1366 H 0.01353 0.01267 0.52113 0.0
H1367 H 0.94296 1.00522 0.53957 0.0
H1368 H 0.88214 0.03604 0.47783 0.0
H1369 H 0.7138 0.01833 0.52255 0.0
H1370 H 0.9688 1.00801 0.45521 0.0
H1371 H 0.02435 0.01515 0.47816 0.0
H1372 H 0.97662 0.02471 0.45656 0.0
H1373 H 0.77339 0.98677 0.51054 0.0
H1374 H 0.71564 0.99662 0.52944 0.0
H1375 H 0.81648 0.99307 0.53648 0.0
C1376 C 0.9668 0.23609 0.74892 0.0
C1377 C 0.8871 0.23334 0.74557 0.0
C1378 C 0.99199 0.24847 0.75175 0.0
C1379 C 0.9362 0.25827 0.75095 0.0
C1380 C 0.85619 0.25554 0.74674 0.0
C1381 C 0.83268 0.24314 0.74417 0.0
C1382 C 0.07796 0.25104 0.75618 0.0
C1383 C 0.79506 0.26569 0.74537 0.0
C1384 C 0.99205 0.28881 0.78034 0.0
C1385 C 0.01988 0.29563 0.76128 0.0
C1386 C 0.96261 0.2767 0.77718 0.0
C1387 C 0.96136 0.2714 0.75444 0.0
C1388 C 0.9858 0.27858 0.73505 0.0
C1389 C 0.01531 0.29057 0.73876 0.0
C1390 C 0.93686 0.26934 0.79828 0.0
C1391 C 0.98464 0.27339 0.71052 0.0
H1392 H 0.00896 0.22857 0.75018 0.0
H1393 H 0.77094 0.24111 0.74139 0.0
H1394 H 0.101 0.25752 0.74275 0.0
H1395 H 0.08525 0.25563 0.77343 0.0
H1396 H 0.11402 0.24244 0.75596 0.0
H1397 H 0.73554 0.26203 0.74129 0.0
H1398 H 0.79237 0.27074 0.76226 0.0
H1399 H 0.81151 0.27254 0.73174 0.0
H1400 H 0.99791 0.29261 0.79781 0.0
H1401 H 0.03872 0.29581 0.72412 0.0
H1402 H 0.97681 0.2613 0.80079 0.0
H1403 H 0.87682 0.26559 0.79553 0.0
H1404 H 0.93713 0.27502 0.8145 0.0
H1405 H 0.02733 0.26563 0.70917 0.0
H1406 H -3e-05 0.2805 0.6972 0.0
H1407 H 0.92569 0.26957 0.70633 0.0
C1408 C 0.08202 0.78475 0.2739 0.0
C1409 C 0.04167 0.79546 0.26672 0.0
C1410 C 0.04991 0.77288 0.27051 0.0
C1411 C 0.97654 0.77163 0.25903 0.0
C1412 C 0.93546 0.78243 0.25171 0.0
C1413 C 0.96806 0.79424 0.25594 0.0
C1414 C 0.09445 0.76167 0.27931 0.0
C1415 C 0.85776 0.78148 0.23905 0.0
C1416 C 0.92737 0.73976 0.23343 0.0
C1417 C 0.87456 0.73519 0.2501 0.0
C1418 C 0.96008 0.75174 0.23583 0.0
C1419 C 0.94128 0.75906 0.25571 0.0
C1420 C 0.88959 0.75428 0.27283 0.0
C1421 C 0.85616 0.74251 0.26964 0.0
C1422 C 0.01377 0.75662 0.21698 0.0
C1423 C 0.8699 0.76155 0.29465 0.0
H1424 H 0.13903 0.78567 0.28224 0.0
H1425 H 0.93738 0.80248 0.25002 0.0
H1426 H 0.05733 0.75635 0.2917 0.0
H1427 H 0.10865 0.7554 0.26453 0.0
H1428 H 0.15006 0.76425 0.28829 0.0
H1429 H 0.8348 0.7907 0.23367 0.0
H1430 H 0.86438 0.77559 0.22325 0.0
H1431 H 0.81357 0.77694 0.25045 0.0
H1432 H 0.94127 0.73414 0.21826 0.0
H1433 H 0.81603 0.73893 0.28273 0.0
H1434 H 0.07264 0.75865 0.22442 0.0
H1435 H 0.99011 0.76548 0.20996 0.0
H1436 H 0.02074 0.74995 0.20232 0.0
H1437 H 0.92463 0.76393 0.30424 0.0
H1438 H 0.83056 0.75632 0.30662 0.0
H1439 H 0.84073 0.77041 0.28988 0.0
C1440 C 0.10207 0.48668 0.97965 0.0
C1441 C 0.07079 0.47733 0.99389 0.0
C1442 C 0.07884 0.4991 0.98221 0.0
C1443 C 0.02428 0.5023 0.99988 0.0
C1444 C 0.99042 0.49281 0.01383 0.0
C1445 C 0.01388 0.48038 0.01057 0.0
C1446 C 0.11508 0.50885 0.9666 0.0
C1447 C 0.93248 0.49585 0.03295 0.0
C1448 C 0.02978 0.53593 0.02124 0.0
C1449 C 0.96498 0.54101 0.00952 0.0
C1450 C 0.04893 0.52325 0.01867 0.0
C1451 C 0.00311 0.51561 1.00368 0.0
C1452 C 0.93853 0.52079 0.99156 0.0
C1453 C 0.92002 0.53335 0.99475 0.0
C1454 C 0.11787 0.51802 0.03207 0.0
C1455 C 0.88927 0.51309 0.97501 0.0
H1456 H 0.14733 0.48431 0.96706 0.0
H1457 H 0.99158 0.47318 0.02204 0.0
H1458 H 0.06842 0.51448 0.95813 0.0
H1459 H 0.15154 0.51527 0.97723 0.0
H1460 H 0.1527 0.50472 0.95276 0.0
H1461 H 0.90915 0.48739 0.0416 0.0
H1462 H 0.96146 0.50174 0.04635 0.0
H1463 H 0.88245 0.50125 0.02574 0.0
H1464 H 0.06438 0.54177 0.03276 0.0
H1465 H 0.87024 0.53723 0.9854 0.0
H1466 H 0.16277 0.51448 0.0197 0.0
H1467 H 0.0984 0.51005 0.04291 0.0
H1468 H 0.14579 0.52504 0.04363 0.0
H1469 H 0.9268 0.50931 0.96083 0.0
H1470 H 0.84076 0.51853 0.96695 0.0
H1471 H 0.86352 0.50506 0.98442 0.0
C1472 C 0.37822 0.0613 0.93671 0.0
C1473 C 0.40953 0.06824 0.95532 0.0
C1474 C 0.41651 0.06061 0.91502 0.0
C1475 C 0.48779 0.06714 0.91155 0.0
C1476 C 0.52018 0.07413 0.93026 0.0
C1477 C 0.48095 0.07453 0.95197 0.0
C1478 C 0.37995 0.05298 0.89569 0.0
C1479 C 0.59551 0.08134 0.9272 0.0
C1480 C 0.604 0.05715 0.85757 0.0
C1481 C 0.57426 0.06532 0.84064 0.0
C1482 C 0.57931 0.05795 0.88108 0.0
C1483 C 0.52463 0.06725 0.8878 0.0
C1484 C 0.49848 0.07597 0.87098 0.0
C1485 C 0.5231 0.07484 0.84768 0.0
C1486 C 0.60826 0.04843 0.89842 0.0
C1487 C 0.44112 0.08614 0.87731 0.0
H1488 H 0.32369 0.05625 0.93912 0.0
H1489 H 0.50585 0.07986 0.96624 0.0
H1490 H 0.36309 0.05911 0.88092 0.0
H1491 H 0.42316 0.04616 0.8889 0.0
H1492 H 0.3268 0.04787 0.90159 0.0
H1493 H 0.61504 0.08584 0.94369 0.0
H1494 H 0.64295 0.07511 0.92093 0.0
H1495 H 0.58715 0.08863 0.91371 0.0
H1496 H 0.64337 0.04976 0.85225 0.0
H1497 H 0.5006 0.0813 0.83476 0.0
H1498 H 0.55911 0.04217 0.90329 0.0
H1499 H 0.62883 0.05302 0.91468 0.0
H1500 H 0.65692 0.04271 0.89124 0.0
H1501 H 0.38303 0.082 0.88141 0.0
H1502 H 0.43321 0.09295 0.8629 0.0
H1503 H 0.46137 0.09117 0.89314 0.0
C1504 C 0.84642 0.18821 0.9315 0.0
C1505 C 0.90953 0.19524 0.94017 0.0
C1506 C 0.81851 0.18988 0.9087 0.0
C1507 C 0.85425 0.19887 0.89419 0.0
C1508 C 0.91847 0.20595 0.9027 0.0
C1509 C 0.9458 0.20399 0.92563 0.0
C1510 C 0.75104 0.18196 0.90012 0.0
C1511 C 0.95785 0.21562 0.88764 0.0
C1512 C 0.8363 0.19351 0.82915 0.0
C1513 C 0.77483 0.20157 0.82291 0.0
C1514 C 0.86298 0.19267 0.8522 0.0
C1515 C 0.82772 0.20014 0.86956 0.0
C1516 C 0.7652 0.20826 0.86353 0.0
C1517 C 0.73895 0.20882 0.84019 0.0
C1518 C 0.92866 0.18371 0.85797 0.0
C1519 C 0.72656 0.21638 0.88169 0.0
H1520 H 0.81828 0.18139 0.94265 0.0
H1521 H 0.9939 0.20954 0.93238 0.0
H1522 H 0.7019 0.18794 0.89413 0.0
H1523 H 0.77016 0.17633 0.8849 0.0
H1524 H 0.72864 0.17557 0.91384 0.0
H1525 H 0.005 0.22068 0.89715 0.0
H1526 H 0.98387 0.21116 0.87197 0.0
H1527 H 0.9137 0.22244 0.88136 0.0
H1528 H 0.86383 0.18777 0.8159 0.0
H1529 H 0.69187 0.21511 0.83538 0.0
H1530 H 0.90803 0.17679 0.87094 0.0
H1531 H 0.97873 0.18877 0.86598 0.0
H1532 H 0.95033 0.17867 0.84229 0.0
H1533 H 0.69968 0.21052 0.89549 0.0
H1534 H 0.68026 0.22243 0.87407 0.0
H1535 H 0.77137 0.22232 0.89031 0.0
C1536 C 0.34115 0.18716 0.43189 0.0
C1537 C 0.40449 0.19409 0.44066 0.0
C1538 C 0.31417 0.18883 0.40897 0.0
C1539 C 0.35084 0.19777 0.39453 0.0
C1540 C 0.41527 0.20475 0.4032 0.0
C1541 C 0.44183 0.20275 0.42618 0.0
C1542 C 0.24653 0.18101 0.40021 0.0
C1543 C 0.45551 0.21439 0.38827 0.0
C1544 C 0.33552 0.19297 0.32925 0.0
C1545 C 0.27524 0.20124 0.32298 0.0
C1546 C 0.36053 0.19181 0.35242 0.0
C1547 C 0.32488 0.19917 0.36987 0.0
C1548 C 0.26341 0.20748 0.3638 0.0
C1549 C 0.23874 0.20836 0.34034 0.0
C1550 C 0.42516 0.18266 0.3582 0.0
C1551 C 0.22449 0.21552 0.38204 0.0
H1552 H 0.31215 0.18044 0.44306 0.0
H1553 H 0.48999 0.20825 0.43305 0.0
H1554 H 0.19764 0.18707 0.3943 0.0
H1555 H 0.26557 0.17545 0.38489 0.0
H1556 H 0.22385 0.17458 0.4138 0.0
H1557 H 0.50286 0.21935 0.39788 0.0
H1558 H 0.48144 0.20993 0.37258 0.0
H1559 H 0.41189 0.22131 0.38201 0.0
H1560 H 0.36344 0.18732 0.31593 0.0
H1561 H 0.19251 0.2148 0.33552 0.0
H1562 H 0.40368 0.17577 0.37113 0.0
H1563 H 0.47565 0.18758 0.36628 0.0
H1564 H 0.44648 0.17759 0.34252 0.0
H1565 H 0.19718 0.2096 0.39568 0.0
H1566 H 0.17849 0.22164 0.37444 0.0
H1567 H 0.26922 0.22139 0.39085 0.0
C1568 C 0.81844 0.06512 0.4344 0.0
C1569 C 0.85849 0.07193 0.45166 0.0
C1570 C 0.84533 0.06472 0.41123 0.0
C1571 C 0.91364 0.07142 0.40488 0.0
C1572 C 0.9541 0.07842 0.42211 0.0
C1573 C 0.92637 0.07853 0.44534 0.0
C1574 C 0.80067 0.05704 0.39354 0.0
C1575 C 0.02659 0.08581 0.41598 0.0
C1576 C 0.01233 0.06104 0.34827 0.0
C1577 C 0.9785 0.06916 0.33191 0.0
C1578 C 0.99382 0.06191 0.37223 0.0
C1579 C 0.94102 0.07121 0.38005 0.0
C1580 C 0.90923 0.07973 0.36372 0.0
C1581 C 0.9279 0.07855 0.3399 0.0
C1582 C 0.02839 0.05257 0.38902 0.0
C1583 C 0.85343 0.08986 0.37129 0.0
H1584 H 0.7664 0.05987 0.43906 0.0
H1585 H 0.95784 0.08379 0.45852 0.0
H1586 H 0.77887 0.06307 0.37921 0.0
H1587 H 0.84033 0.05004 0.38557 0.0
H1588 H 0.74969 0.05213 0.4014 0.0
H1589 H 0.05115 0.09083 0.43131 0.0
H1590 H 0.07252 0.07955 0.40887 0.0
H1591 H 0.01238 0.09267 0.40212 0.0
H1592 H 0.05145 0.05376 0.34229 0.0
H1593 H 0.90205 0.08496 0.32746 0.0
H1594 H 0.98078 0.04667 0.39627 0.0
H1595 H 0.05675 0.05738 0.40396 0.0
H1596 H 0.0725 0.04645 0.38051 0.0
H1597 H 0.79783 0.08568 0.37764 0.0
H1598 H 0.83928 0.09638 0.35683 0.0
H1599 H 0.87911 0.09522 0.38601 0.0
C1600 C 0.68473 0.9388 0.08745 0.0
C1601 C 0.73254 0.94806 0.07764 0.0
C1602 C 0.67232 0.93813 0.11167 0.0
C1603 C 0.70786 0.94701 0.12656 0.0
C1604 C 0.75893 0.95606 0.11691 0.0
C1605 C 0.77099 0.95644 0.09256 0.0
C1606 C 0.61796 0.92826 0.12119 0.0
C1607 C 0.79759 0.96574 0.13215 0.0
C1608 C 0.59003 0.95484 0.18083 0.0
C1609 C 0.62969 0.94824 0.19845 0.0
C1610 C 0.61619 0.95472 0.15762 0.0
C1611 C 0.68356 0.94772 0.1516 0.0
C1612 C 0.72452 0.94109 0.16925 0.0
C1613 C 0.69734 0.94148 0.19254 0.0
C1614 C 0.57094 0.96202 0.13946 0.0
C1615 C 0.79622 0.93344 0.16345 0.0
H1616 H 0.65557 0.93216 0.07613 0.0
H1617 H 0.80821 0.96359 0.08515 0.0
H1618 H 0.64562 0.92345 0.13625 0.0
H1619 H 0.56307 0.93266 0.1276 0.0
H1620 H 0.60211 0.92124 0.10776 0.0
H1621 H 0.84231 0.97121 0.12247 0.0
H1622 H 0.75224 0.97221 0.13892 0.0
H1623 H 0.82616 0.96132 0.14749 0.0
H1624 H 0.53824 0.96023 0.18517 0.0
H1625 H 0.72849 0.93639 0.20602 0.0
H1626 H 0.54642 0.95561 0.12613 0.0
H1627 H 0.6108 0.96855 0.13028 0.0
H1628 H 0.52175 0.96742 0.14719 0.0
H1629 H 0.77992 0.92591 0.15111 0.0
H1630 H 0.82324 0.9292 0.17925 0.0
H1631 H 0.84082 0.93929 0.1546 0.0
C1632 C 0.06725 0.80825 0.09146 0.0
C1633 C 0.10441 0.81541 0.0742 0.0
C1634 C 0.0906 0.809 0.11506 0.0
C1635 C 0.15193 0.81721 0.12165 0.0
C1636 C 0.19013 0.82435 0.10427 0.0
C1637 C 0.16627 0.82332 0.08081 0.0
C1638 C 0.04878 0.80114 0.13301 0.0
C1639 C 0.25496 0.83335 0.11053 0.0
C1640 C 0.1489 0.82902 0.18433 0.0
C1641 C 0.20719 0.82175 0.1951 0.0
C1642 C 0.13155 0.82777 0.16044 0.0
C1643 C 0.17271 0.81891 0.14687 0.0
C1644 C 0.2327 0.81169 0.15749 0.0
C1645 C 0.24966 0.81326 0.18146 0.0
C1646 C 0.06813 0.83582 0.14982 0.0
C1647 C 0.27747 0.80208 0.14368 0.0
H1648 H 0.01982 0.80206 0.08655 0.0
H1649 H 0.19538 0.82891 0.06766 0.0
H1650 H 0.09209 0.79566 0.14324 0.0
H1651 H 0.01701 0.80721 0.1455 0.0
H1652 H 0.00584 0.79465 0.12491 0.0
H1653 H 0.28095 0.83785 0.09487 0.0
H1654 H 0.23152 0.84069 0.12222 0.0
H1655 H 0.30233 0.82848 0.12024 0.0
H1656 H 0.11603 0.83566 0.19469 0.0
H1657 H 0.29428 0.80754 0.18968 0.0
H1658 H 0.01936 0.82992 0.1433 0.0
H1659 H 0.09186 0.841 0.13461 0.0
H1660 H 0.04379 0.84261 0.16253 0.0
H1661 H 0.2362 0.79491 0.13705 0.0
H1662 H 0.32367 0.79744 0.15429 0.0
H1663 H 0.30552 0.80644 0.12823 0.0
C1664 C 0.59053 0.81595 0.69283 0.0
C1665 C 0.56048 0.82454 0.70905 0.0
C1666 C 0.55978 0.81491 0.67018 0.0
C1667 C 0.49719 0.82271 0.66313 0.0
C1668 C 0.46457 0.83117 0.67954 0.0
C1669 C 0.49634 0.83195 0.70239 0.0
C1670 C 0.59643 0.80568 0.6535 0.0
C1671 C 0.39785 0.83966 0.67272 0.0
C1672 C 0.5035 0.8281 0.59764 0.0
C1673 C 0.45043 0.81917 0.58913 0.0
C1674 C 0.51474 0.82996 0.6217 0.0
C1675 C 0.47242 0.82266 0.63795 0.0
C1676 C 0.4155 0.81409 0.62956 0.0
C1677 C 0.40488 0.81248 0.60523 0.0
C1678 C 0.57573 0.83925 0.62965 0.0
C1679 C 0.36906 0.80611 0.64625 0.0
H1680 H 0.63904 0.80996 0.69779 0.0
H1681 H 0.47229 0.83853 0.7148 0.0
H1682 H 0.55047 0.79965 0.64571 0.0
H1683 H 0.62551 0.81071 0.63896 0.0
H1684 H 0.64087 0.79968 0.66218 0.0
H1685 H 0.37347 0.84473 0.68799 0.0
H1686 H 0.41897 0.84655 0.65975 0.0
H1687 H 0.34996 0.83428 0.66428 0.0
H1688 H 0.53805 0.83351 0.5854 0.0
H1689 H 0.36344 0.80562 0.59886 0.0
H1690 H 0.6271 0.83425 0.63706 0.0
H1691 H 0.55165 0.84528 0.64364 0.0
H1692 H 0.5966 0.84523 0.6151 0.0
H1693 H 0.4082 0.79893 0.65389 0.0
H1694 H 0.3192 0.80137 0.63741 0.0
H1695 H 0.34587 0.81177 0.6609 0.0
C1696 C 0.22679 0.96027 0.58967 0.0
C1697 C 0.19143 0.95242 0.57316 0.0
C1698 C 0.20416 0.95995 0.61331 0.0
C1699 C 0.14551 0.95145 0.62064 0.0
C1700 C 0.10985 0.94348 0.60406 0.0
C1701 C 0.1329 0.94411 0.58055 0.0
C1702 C 0.24306 0.96867 0.63045 0.0
C1703 C 0.04792 0.93418 0.61121 0.0
C1704 C 0.14435 0.94184 0.68453 0.0
C1705 C 0.0821 0.94891 0.69357 0.0
C1706 C 0.1651 0.94252 0.66084 0.0
C1707 C 0.12324 0.95059 0.64578 0.0
C1708 C 0.05999 0.95772 0.65472 0.0
C1709 C 0.03979 0.95673 0.67849 0.0
C1710 C 0.23208 0.93462 0.65194 0.0
C1711 C 0.01439 0.9665 0.63923 0.0
H1712 H 0.27165 0.96677 0.58409 0.0
H1713 H 0.10537 0.93797 0.56794 0.0
H1714 H 0.19788 0.97434 0.63949 0.0
H1715 H 0.27459 0.96326 0.64406 0.0
H1716 H 0.28563 0.97501 0.62184 0.0
H1717 H 0.02534 0.92873 0.59614 0.0
H1718 H 0.07266 0.92764 0.6243 0.0
H1719 H 0.99778 0.93901 0.61962 0.0
H1720 H 0.17715 0.93572 0.69603 0.0
H1721 H 0.992 0.96229 0.68538 0.0
H1722 H 0.27922 0.94063 0.64481 0.0
H1723 H 0.21131 0.92859 0.63746 0.0
H1724 H 0.25772 0.92864 0.66583 0.0
H1725 H 0.05475 0.97351 0.63161 0.0
H1726 H 0.96702 0.97142 0.64887 0.0
H1727 H 0.98761 0.96133 0.62446 0.0
C1728 C 0.35655 0.57278 0.43104 0.0
C1729 C 0.29135 0.56531 0.43642 0.0
C1730 C 0.39129 0.57253 0.40888 0.0
C1731 C 0.36045 0.56455 0.39151 0.0
C1732 C 0.29423 0.55703 0.39668 0.0
C1733 C 0.26009 0.55753 0.4191 0.0
C1734 C 0.46084 0.58087 0.40403 0.0
C1735 C 0.25982 0.54841 0.37855 0.0
C1736 C 0.4004 0.57397 0.32884 0.0
C1737 C 0.46374 0.56626 0.3227 0.0
C1738 C 0.36581 0.57335 0.351 0.0
C1739 C 0.39492 0.56478 0.36759 0.0
C1740 C 0.45938 0.55702 0.36168 0.0
C1741 C 0.49341 0.5579 0.33928 0.0
C1742 C 0.2982 0.58195 0.35666 0.0
C1743 C 0.49193 0.54777 0.37898 0.0
H1744 H 0.38094 0.57888 0.44428 0.0
H1745 H 0.21031 0.55165 0.42323 0.0
H1746 H 0.51178 0.57525 0.39815 0.0
H1747 H 0.44627 0.58743 0.38971 0.0
H1748 H 0.4788 0.58633 0.41964 0.0
H1749 H 0.20994 0.54288 0.38551 0.0
H1750 H 0.23884 0.55385 0.36329 0.0
H1751 H 0.3058 0.54195 0.37211 0.0
H1752 H 0.37726 0.58053 0.31619 0.0
H1753 H 0.54175 0.55184 0.33457 0.0
H1754 H 0.3142 0.58802 0.3716 0.0
H1755 H 0.24599 0.57647 0.362 0.0
H1756 H 0.28155 0.58792 0.34161 0.0
H1757 H 0.51395 0.55269 0.39473 0.0
H1758 H 0.54069 0.54217 0.37151 0.0
H1759 H 0.44463 0.54139 0.38481 0.0
C1760 C 0.82743 0.69766 0.33097 0.0
C1761 C 0.76499 0.70567 0.32532 0.0
C1762 C 0.86162 0.69759 0.35334 0.0
C1763 C 0.8337 0.70587 0.37067 0.0
C1764 C 0.77004 0.71391 0.36523 0.0
C1765 C 0.736 0.71366 0.34267 0.0
C1766 C 0.92809 0.68867 0.35837 0.0
C1767 C 0.73885 0.72294 0.38313 0.0
C1768 C 0.87723 0.69729 0.43407 0.0
C1769 C 0.94422 0.70446 0.43914 0.0
C1770 C 0.84034 0.6978 0.41208 0.0
C1771 C 0.87029 0.70579 0.39456 0.0
C1772 C 0.93768 0.71311 0.39954 0.0
C1773 C 0.97414 0.71231 0.42169 0.0
C1774 C 0.76971 0.68965 0.4075 0.0
C1775 C 0.97126 0.72181 0.38143 0.0
H1776 H 0.85008 0.69139 0.31776 0.0
H1777 H 0.68842 0.71996 0.33841 0.0
H1778 H 0.98172 0.6939 0.36338 0.0
H1779 H 0.9125 0.68261 0.37335 0.0
H1780 H 0.94222 0.6827 0.3431 0.0
H1781 H 0.68948 0.72862 0.37622 0.0
H1782 H 0.71822 0.71784 0.39882 0.0
H1783 H 0.78665 0.72925 0.3889 0.0
H1784 H 0.8535 0.69117 0.44734 0.0
H1785 H 0.0253 0.71797 0.42547 0.0
H1786 H 0.78255 0.68316 0.39293 0.0
H1787 H 0.7188 0.69541 0.40208 0.0
H1788 H 0.75264 0.68413 0.4231 0.0
H1789 H 0.99148 0.71643 0.36603 0.0
H1790 H 0.02155 0.72729 0.38831 0.0
H1791 H 0.92506 0.72831 0.37525 0.0
C1792 C 0.39734 0.68166 0.93092 0.0
C1793 C 0.45757 0.6897 0.93823 0.0
C1794 C 0.38066 0.6799 0.90694 0.0
C1795 C 0.42429 0.68648 0.8898 0.0
C1796 C 0.48611 0.6944 0.89711 0.0
C1797 C 0.50222 0.69584 0.92109 0.0
C1798 C 0.31494 0.67125 0.89996 0.0
C1799 C 0.53339 0.70178 0.87962 0.0
C1800 C 0.41853 0.67848 0.82438 0.0
C1801 C 0.36353 0.68712 0.81594 0.0
C1802 C 0.43707 0.67782 0.84848 0.0
C1803 C 0.40078 0.68613 0.86448 0.0
C1804 C 0.34468 0.69474 0.85602 0.0
C1805 C 0.32652 0.69506 0.83207 0.0
C1806 C 0.49637 0.66838 0.85679 0.0
C1807 C 0.30528 0.70392 0.8722 0.0
H1808 H 0.36277 0.67681 0.94394 0.0
H1809 H 0.54886 0.70209 0.9264 0.0
H1810 H 0.26577 0.67668 0.89233 0.0
H1811 H 0.33547 0.66468 0.88632 0.0
H1812 H 0.29214 0.66585 0.91505 0.0
H1813 H 0.58238 0.70698 0.88797 0.0
H1814 H 0.55819 0.69555 0.86607 0.0
H1815 H 0.49448 0.70853 0.87057 0.0
H1816 H 0.44732 0.67228 0.81217 0.0
H1817 H 0.28411 0.70183 0.82591 0.0
H1818 H 0.4715 0.66284 0.87137 0.0
H1819 H 0.54927 0.6732 0.86363 0.0
H1820 H 0.51479 0.66197 0.8426 0.0
H1821 H 0.27521 0.69895 0.88663 0.0
H1822 H 0.26142 0.70981 0.863 0.0
H1823 H 0.3502 0.71006 0.88024 0.0
C1824 C 0.88462 0.58351 0.82895 0.0
C1825 C 0.94133 0.57543 0.8197 0.0
C1826 C 0.86593 0.58338 0.85276 0.0
C1827 C 0.90405 0.57482 0.8677 0.0
C1828 C 0.96235 0.56675 0.85858 0.0
C1829 C 0.98093 0.56723 0.83463 0.0
C1830 C 0.80485 0.59234 0.86188 0.0
C1831 C 0.00371 0.55743 0.87402 0.0
C1832 C 0.90576 0.58207 0.93248 0.0
C1833 C 0.84357 0.57474 0.94078 0.0
C1834 C 0.92603 0.58215 0.90878 0.0
C1835 C 0.88379 0.57458 0.89296 0.0
C1836 C 0.8205 0.5672 0.90116 0.0
C1837 C 0.80059 0.56745 0.92502 0.0
C1838 C 0.99262 0.59037 0.90066 0.0
C1839 C 0.77459 0.55893 0.88477 0.0
H1840 H 0.85422 0.58992 0.81744 0.0
H1841 H 0.02413 0.5609 0.82744 0.0
H1842 H 0.75469 0.58713 0.86943 0.0
H1843 H 0.83028 0.5981 0.8761 0.0
H1844 H 0.78207 0.59861 0.84801 0.0
H1845 H 0.04731 0.55179 0.86422 0.0
H1846 H 0.03441 0.56228 0.88851 0.0
H1847 H 0.95994 0.5511 0.88204 0.0
H1848 H 0.93889 0.58778 0.94462 0.0
H1849 H 0.75308 0.56168 0.93144 0.0
H1850 H 0.97098 0.59699 0.88724 0.0
H1851 H 0.03916 0.58466 0.89238 0.0
H1852 H 0.0193 0.59575 0.91523 0.0
H1853 H 0.74613 0.56462 0.87097 0.0
H1854 H 0.72846 0.55352 0.89399 0.0
H1855 H 0.815 0.55236 0.87589 0.0
C1856 C 0.66094 0.44198 0.57938 0.0
C1857 C 0.71882 0.45031 0.57158 0.0
C1858 C 0.63071 0.44264 0.60206 0.0
C1859 C 0.6592 0.45182 0.61755 0.0
C1860 C 0.71916 0.46007 0.6101 0.0
C1861 C 0.74851 0.45921 0.58713 0.0
C1862 C 0.5676 0.43355 0.60936 0.0
C1863 C 0.75129 0.46991 0.62629 0.0
C1864 C 0.52976 0.4589 0.67027 0.0
C1865 C 0.56551 0.45159 0.68756 0.0
C1866 C 0.56063 0.45931 0.64744 0.0
C1867 C 0.62849 0.45224 0.64188 0.0
C1868 C 0.66424 0.44481 0.65924 0.0
C1869 C 0.63229 0.44455 0.68175 0.0
C1870 C 0.52074 0.46729 0.62925 0.0
C1871 C 0.73608 0.43703 0.65402 0.0
H1872 H 0.63792 0.43501 0.56751 0.0
H1873 H 0.79257 0.46574 0.58113 0.0
H1874 H 0.58816 0.42799 0.62452 0.0
H1875 H 0.5142 0.43865 0.61499 0.0
H1876 H 0.55105 0.42708 0.59504 0.0
H1877 H 0.79775 0.47561 0.61786 0.0
H1878 H 0.70307 0.47614 0.63203 0.0
H1879 H 0.77618 0.46552 0.64221 0.0
H1880 H 0.4787 0.46445 0.67467 0.0
H1881 H 0.66038 0.43883 0.69493 0.0
H1882 H 0.49929 0.46138 0.61467 0.0
H1883 H 0.56346 0.47397 0.62175 0.0
H1884 H 0.47018 0.47255 0.63652 0.0
H1885 H 0.72173 0.42999 0.64051 0.0
H1886 H 0.75871 0.43215 0.66976 0.0
H1887 H 0.78367 0.44296 0.64688 0.0
C1888 C 1e-05 0.30866 0.5919 0.0
C1889 C 0.03578 0.31622 0.57504 0.0
C1890 C 0.02875 0.30835 0.61503 0.0
C1891 C 0.09431 0.3158 0.6213 0.0
C1892 C 0.1294 0.32359 0.60442 0.0
C1893 C 0.09968 0.32372 0.58161 0.0
C1894 C 0.98963 0.29999 0.63271 0.0
C1895 C 0.19869 0.3318 0.61039 0.0
C1896 C 0.1258 0.32567 0.68414 0.0
C1897 C 0.18662 0.31774 0.69149 0.0
C1898 C 0.09422 0.32491 0.66158 0.0
C1899 C 0.12436 0.31605 0.64575 0.0
C1900 C 0.18654 0.3081 0.65283 0.0
C1901 C 0.21706 0.30904 0.67568 0.0
C1902 C 0.02856 0.33365 0.65469 0.0
C1903 C 0.22049 0.2986 0.63629 0.0
H1904 H 0.95112 0.30277 0.5869 0.0
H1905 H 0.12747 0.32967 0.56875 0.0
H1906 H 0.03313 0.29332 0.6399 0.0
H1907 H 0.96735 0.30559 0.64758 0.0
H1908 H 0.93983 0.29469 0.62504 0.0
H1909 H 0.2202 0.33714 0.59506 0.0
H1910 H 0.18206 0.33847 0.62432 0.0
H1911 H 0.24783 0.32608 0.61726 0.0
H1912 H 0.1018 0.33245 0.69619 0.0
H1913 H 0.26334 0.30279 0.68129 0.0
H1914 H 0.97689 0.32828 0.64851 0.0
H1915 H 0.04785 0.33964 0.64 0.0
H1916 H 0.00979 0.3397 0.66938 0.0
H1917 H 0.17331 0.29233 0.62993 0.0
H1918 H 0.26721 0.2929 0.64464 0.0
H1919 H 0.24568 0.30332 0.62077 0.0
C1920 C 0.49511 0.30805 0.09284 0.0
C1921 C 0.52987 0.31531 0.07534 0.0
C1922 C 0.52584 0.308 0.11574 0.0
C1923 C 0.5924 0.31541 0.12113 0.0
C1924 C 0.62664 0.32289 0.1036 0.0
C1925 C 0.59495 0.32276 0.08102 0.0
C1926 C 0.48763 0.29996 0.13411 0.0
C1927 C 0.69705 0.33103 0.10864 0.0
C1928 C 0.62831 0.32586 0.18343 0.0
C1929 C 0.68849 0.31781 0.19079 0.0
C1930 C 0.59587 0.32501 0.16099 0.0
C1931 C 0.62441 0.31593 0.14533 0.0
C1932 C 0.68616 0.3079 0.15239 0.0
C1933 C 0.71765 0.30894 0.1751 0.0
C1934 C 0.53074 0.33384 0.15409 0.0
C1935 C 0.71839 0.29816 0.13603 0.0
H1936 H 0.44533 0.30219 0.08852 0.0
H1937 H 0.62205 0.32847 0.06766 0.0
H1938 H 0.53131 0.29334 0.14138 0.0
H1939 H 0.46678 0.30581 0.14882 0.0
H1940 H 0.43699 0.29462 0.12707 0.0
H1941 H 0.71767 0.33611 0.09289 0.0
H1942 H 0.68212 0.33792 0.12236 0.0
H1943 H 0.7463 0.32531 0.11544 0.0
H1944 H 0.60543 0.33277 0.1954 0.0
H1945 H 0.76347 0.30262 0.18074 0.0
H1946 H 0.47795 0.32853 0.1486 0.0
H1947 H 0.54946 0.33953 0.13892 0.0
H1948 H 0.51392 0.34018 0.16856 0.0
H1949 H 0.67045 0.29186 0.13032 0.0
H1950 H 0.76561 0.29253 0.14427 0.0
H1951 H 0.74236 0.30265 0.1201 0.0
C1952 C 0.12382 0.44435 0.18091 0.0
C1953 C 0.05964 0.45184 0.18724 0.0
C1954 C 0.15556 0.44473 0.15838 0.0
C1955 C 0.12225 0.45278 0.14155 0.0
C1956 C 0.05679 0.46027 0.14762 0.0
C1957 C 0.02605 0.4597 0.17045 0.0
C1958 C 0.22474 0.43648 0.15258 0.0
C1959 C 0.01955 0.46891 0.13002 0.0
C1960 C 0.24571 0.45982 0.08752 0.0
C1961 C 0.21389 0.45143 0.07134 0.0
C1962 C 0.21578 0.46052 0.11045 0.0
C1963 C 0.15304 0.45263 0.11722 0.0
C1964 C 0.12191 0.44401 0.10104 0.0
C1965 C 0.15274 0.44351 0.07841 0.0
C1966 C 0.25067 0.46977 0.12737 0.0
C1967 C 0.05573 0.43532 0.1076 0.0
H1968 H 0.15015 0.43819 0.19373 0.0
H1969 H 0.97707 0.46561 0.17528 0.0
H1970 H 0.20831 0.4299 0.13847 0.0
H1971 H 0.2744 0.44216 0.146 0.0
H1972 H 0.24538 0.43105 0.16792 0.0
H1973 H 0.97037 0.47436 0.13763 0.0
H1974 H 0.06429 0.47545 0.12312 0.0
H1975 H 0.99681 0.46349 0.11495 0.0
H1976 H 0.29241 0.46603 0.08212 0.0
H1977 H 0.12796 0.43693 0.06608 0.0
H1978 H 0.27471 0.46484 0.14285 0.0
H1979 H 0.20421 0.47615 0.13375 0.0
H1980 H 0.29842 0.47535 0.11933 0.0
H1981 H 0.07437 0.42924 0.12226 0.0
H1982 H 0.03703 0.42935 0.09276 0.0
H1983 H 0.00415 0.44072 0.11369 0.0
C1984 C 0.90453 0.14382 0.02401 0.0
C1985 C 0.93831 0.15303 0.00988 0.0
C1986 C 0.93349 0.13153 0.02375 0.0
C1987 C 0.9965 0.12833 0.00865 0.0
C1988 C 0.02809 0.13749 0.9936 0.0
C1989 C -0.00071 0.14971 0.99459 0.0
C1990 C 0.89895 0.12211 0.04034 0.0
C1991 C 0.09411 0.13451 0.97688 0.0
C1992 C 0.13972 0.10224 0.02323 0.0
C1993 C 0.11396 0.09258 0.0086 0.0
C1994 C 0.10006 0.11368 0.02408 0.0
C1995 C 0.03363 0.11571 0.00959 0.0
C1996 C 0.00663 0.10595 0.99497 0.0
C1997 C 0.0466 0.09447 0.99483 0.0
C1998 C 0.13031 0.12371 0.04022 0.0
C1999 C 0.93705 0.10777 0.97893 0.0
H2000 H 0.8577 0.14633 0.03594 0.0
H2001 H 0.02521 0.15674 0.98343 0.0
H2002 H 0.88156 0.1136 0.03073 0.0
H2003 H 0.94403 0.11936 0.0534 0.0
H2004 H 0.84684 0.12578 0.04977 0.0
H2005 H 0.10737 0.14236 0.96493 0.0
H2006 H 0.14817 0.13223 0.98689 0.0
H2007 H 0.07893 0.12624 0.96622 0.0
H2008 H 0.19111 0.10084 0.03415 0.0
H2009 H 0.0263 0.08708 0.98346 0.0
H2010 H 0.08193 0.12725 0.05139 0.0
H2011 H 0.1525 0.13165 0.02978 0.0
H2012 H 0.17861 0.12035 0.0517 0.0
H2013 H 0.88543 0.11107 0.98901 0.0
H2014 H 0.92072 0.09911 0.96957 0.0
H2015 H 0.95096 0.11503 0.9658 0.0
C2016 C 0.27865 0.15497 0.23484 0.0
C2017 C 0.25692 0.16363 0.25192 0.0
C2018 C 0.24587 0.14295 0.23482 0.0
C2019 C 0.19139 0.13956 0.25248 0.0
C2020 C 0.17307 0.1481 0.27045 0.0
C2021 C 0.20555 0.16003 0.26983 0.0
C2022 C 0.26643 0.1341 0.21531 0.0
C2023 C 0.11657 0.14483 0.28987 0.0
C2024 C 0.03315 0.11521 0.2424 0.0
C2025 C 0.06409 0.10494 0.25435 0.0
C2026 C 0.07551 0.12638 0.24086 0.0
C2027 C 0.1501 0.12737 0.25179 0.0
C2028 C 0.18192 0.117 0.26369 0.0
C2029 C 0.13877 0.1059 0.26472 0.0
C2030 C 0.03979 0.13721 0.22786 0.0
C2031 C 0.26059 0.11773 0.27589 0.0
H2032 H 0.31773 0.1578 0.22086 0.0
H2033 H 0.18912 0.16672 0.28315 0.0
H2034 H 0.28491 0.125 0.22253 0.0
H2035 H 0.21367 0.13244 0.2043 0.0
H2036 H 0.3142 0.13776 0.204 0.0
H2037 H 0.11324 0.15219 0.30343 0.0
H2038 H 0.05685 0.1434 0.28251 0.0
H2039 H 0.13452 0.13601 0.29837 0.0
H2040 H 0.97593 0.1145 0.23414 0.0
H2041 H 0.16322 0.09801 0.27399 0.0
H2042 H 0.08183 0.1408 0.21467 0.0
H2043 H 0.02742 0.14489 0.24027 0.0
H2044 H 0.98413 0.13467 0.21887 0.0
H2045 H 0.30641 0.12102 0.26359 0.0
H2046 H 0.2792 0.10863 0.28321 0.0
H2047 H 0.25745 0.12457 0.29038 0.0
C2048 C 0.02981 0.86348 0.98718 0.0
C2049 C 0.01057 0.85415 1.00327 0.0
C2050 C 0.98808 0.87476 0.98674 0.0
C2051 C 0.92696 0.87683 1.00312 0.0
C2052 C 0.90915 0.86757 0.01987 0.0
C2053 C 0.95057 0.85631 0.01957 0.0
C2054 C 0.00799 0.88433 0.9684 0.0
C2055 C 0.84578 0.86952 0.03798 0.0
C2056 C 0.86489 0.91006 0.01559 0.0
C2057 C 0.79391 0.91096 1.00315 0.0
C2058 C 0.90855 0.89901 0.01578 0.0
C2059 C 0.88151 0.88866 1.00282 0.0
C2060 C 0.81017 0.88953 0.99006 0.0
C2061 C 0.7667 0.90064 0.9906 0.0
C2062 C 0.98326 0.89837 0.03005 0.0
C2063 C 0.78004 0.87875 0.97575 0.0
H2064 H 0.07554 0.86179 0.97438 0.0
H2065 H 0.93571 0.84914 0.03212 0.0
H2066 H 0.95562 0.88618 0.95733 0.0
H2067 H 0.02445 0.89323 0.97686 0.0
H2068 H 0.05713 0.88132 0.95695 0.0
H2069 H 0.84141 0.86161 0.05038 0.0
H2070 H 0.85769 0.87812 0.04808 0.0
H2071 H 0.78802 0.87074 0.02925 0.0
H2072 H 0.88598 0.91798 0.02547 0.0
H2073 H 0.71223 0.90133 0.98082 0.0
H2074 H 0.03385 0.89615 0.01857 0.0
H2075 H 0.97878 0.89081 0.04317 0.0
H2076 H 0.99582 0.90721 0.03934 0.0
H2077 H 0.82529 0.87585 0.9629 0.0
H2078 H 0.72507 0.88106 0.96617 0.0
H2079 H 0.76849 0.87068 0.98728 0.0
C2080 C 0.92443 0.8498 0.74696 0.0
C2081 C 0.8601 0.848 0.76191 0.0
C2082 C 0.96623 0.86114 0.74692 0.0
C2083 C 0.94423 0.87079 0.76253 0.0
C2084 C 0.88123 0.86877 0.77824 0.0
C2085 C 0.83968 0.85751 0.77757 0.0
C2086 C 0.03216 0.86296 0.72964 0.0
C2087 C 0.8564 0.87864 0.7955 0.0
C2088 C 0.0791 0.89822 0.77676 0.0
C2089 C 0.04352 0.90785 0.76403 0.0
C2090 C 0.04915 0.886 0.77593 0.0
C2091 C 0.98299 0.88329 0.76166 0.0
C2092 C 0.94921 0.89289 0.748 0.0
C2093 C 0.97925 0.90502 0.74953 0.0
C2094 C 0.08621 0.87612 0.79106 0.0
C2095 C 0.87957 0.89043 0.73225 0.0
H2096 H 0.94053 0.84252 0.73481 0.0
H2097 H 0.79075 0.85616 0.78943 0.0
H2098 H 0.01609 0.87042 0.71711 0.0
H2099 H 0.08636 0.866 0.73881 0.0
H2100 H 0.04523 0.85437 0.71964 0.0
H2101 H 0.81032 0.87529 0.80771 0.0
H2102 H 0.90778 0.88181 0.80588 0.0
H2103 H 0.83316 0.88683 0.78596 0.0
H2104 H 0.12868 0.90031 0.78802 0.0
H2105 H 0.9519 0.91235 0.73939 0.0
H2106 H 0.10034 0.86779 0.78048 0.0
H2107 H 0.04388 0.8732 0.80475 0.0
H2108 H 0.1408 0.87944 0.79975 0.0
H2109 H 0.89149 0.88234 0.72078 0.0
H2110 H 0.86495 0.89856 0.7211 0.0
H2111 H 0.82735 0.88812 0.74301 0.0
C2112 C 0.01481 0.65436 0.52411 0.0
C2113 C 0.04288 0.66391 0.50972 0.0
C2114 C 0.05263 0.64273 0.52477 0.0
C2115 C 0.11941 0.64059 0.5105 0.0
C2116 C 0.14714 0.65014 0.49571 0.0
C2117 C 0.10882 0.66167 0.49557 0.0
C2118 C 0.02146 0.63276 0.54082 0.0
C2119 C 0.2172 0.64819 0.47992 0.0
C2120 C 0.25722 0.61353 0.52417 0.0
C2121 C 0.22855 0.60439 0.50895 0.0
C2122 C 0.22218 0.62539 0.52497 0.0
C2123 C 0.15783 0.62814 0.51002 0.0
C2124 C 0.13045 0.61904 0.49418 0.0
C2125 C 0.16585 0.6073 0.49392 0.0
C2126 C 0.25279 0.63488 0.54214 0.0
C2127 C 0.06301 0.62163 0.47764 0.0
H2128 H 0.96448 0.65606 0.53527 0.0
H2129 H 0.13089 0.66899 0.48433 0.0
H2130 H 0.00286 0.62457 0.53043 0.0
H2131 H 0.0686 0.62962 0.55289 0.0
H2132 H 0.97062 0.63601 0.55135 0.0
H2133 H 0.23207 0.65663 0.46969 0.0
H2134 H 0.26929 0.64547 0.49044 0.0
H2135 H 0.20509 0.64049 0.46753 0.0
H2136 H 0.30514 0.6113 0.53596 0.0
H2137 H 0.14367 0.6003 0.48197 0.0
H2138 H 0.20531 0.63756 0.55443 0.0
H2139 H 0.27111 0.64341 0.53275 0.0
H2140 H 0.30359 0.63134 0.55241 0.0
H2141 H 0.00931 0.62393 0.48774 0.0
H2142 H 0.0498 0.6136 0.46609 0.0
H2143 H 0.07687 0.62979 0.46654 0.0
C2144 C 0.02643 0.67271 0.76209 0.0
C2145 C 0.0904 0.6742 0.74692 0.0
C2146 C 0.98137 0.6617 0.76179 0.0
C2147 C 0.00026 0.6521 0.74572 0.0
C2148 C 0.06082 0.65407 0.72917 0.0
C2149 C 0.10542 0.66501 0.73014 0.0
C2150 C 0.9175 0.65998 0.77976 0.0
C2151 C 0.08258 0.64425 0.71148 0.0
C2152 C 0.98438 0.61802 0.76157 0.0
C2153 C 0.92069 0.61401 0.74788 0.0
C2154 C 0.0074 0.63051 0.76208 0.0
C2155 C 0.96649 0.63933 0.7483 0.0
C2156 C 0.89977 0.63548 0.73523 0.0
C2157 C 0.87725 0.62285 0.73529 0.0
C2158 C 0.07823 0.63414 0.77653 0.0
C2159 C 0.8547 0.64456 0.72027 0.0
H2160 H 0.01475 0.67978 0.77514 0.0
H2161 H 0.15426 0.6662 0.71816 0.0
H2162 H 0.86442 0.65577 0.77172 0.0
H2163 H 0.93852 0.65353 0.79356 0.0
H2164 H 0.90085 0.6689 0.78815 0.0
H2165 H 0.12353 0.64784 0.69795 0.0
H2166 H 0.1114 0.63634 0.72053 0.0
H2167 H 0.02922 0.6406 0.70266 0.0
H2168 H 0.01752 0.6113 0.77169 0.0
H2169 H 0.82788 0.61983 0.72472 0.0
H2170 H 0.06441 0.6423 0.78764 0.0
H2171 H 0.12725 0.63682 0.76479 0.0
H2172 H 0.09874 0.62646 0.78799 0.0
H2173 H 0.84224 0.6532 0.73017 0.0
H2174 H 0.7983 0.6406 0.7139 0.0
H2175 H 0.89086 0.64717 0.70491 0.0
C2176 C 0.75069 0.40138 0.50495 0.0
C2177 C 0.7823 0.41175 0.4936 0.0
C2178 C 0.79138 0.38999 0.5052 0.0
C2179 C 0.86387 0.38887 0.49311 0.0
C2180 C 0.89421 0.39923 0.48086 0.0
C2181 C 0.85382 0.4106 0.48164 0.0
C2182 C 0.758 0.37926 0.51897 0.0
C2183 C 0.96958 0.39835 0.46704 0.0
C2184 C 0.00709 0.36322 0.51075 0.0
C2185 C 0.98715 0.35382 0.49495 0.0
C2186 C 0.96754 0.37471 0.51034 0.0
C2187 C 0.90818 0.37689 0.49335 0.0
C2188 C 0.89037 0.36752 0.47677 0.0
C2189 C 0.92909 0.35602 0.47806 0.0
C2190 C 0.98706 0.38433 0.52865 0.0
C2191 C 0.82942 0.36956 0.45793 0.0
H2192 H 0.6959 0.40233 0.51445 0.0
H2193 H 0.87811 0.41863 0.47278 0.0
H2194 H 0.74757 0.37121 0.50727 0.0
H2195 H 0.80096 0.37626 0.53246 0.0
H2196 H 0.70183 0.38169 0.52774 0.0
H2197 H 0.98266 0.40704 0.45733 0.0
H2198 H 0.01949 0.39633 0.47895 0.0
H2199 H 0.96585 0.39057 0.45434 0.0
H2200 H 0.05091 0.36137 0.5241 0.0
H2201 H 0.91332 0.34865 0.46601 0.0
H2202 H 0.93396 0.38638 0.53923 0.0
H2203 H 0.0053 0.39313 0.52018 0.0
H2204 H 0.03482 0.38123 0.54057 0.0
H2205 H 0.77056 0.37068 0.46597 0.0
H2206 H 0.82685 0.36171 0.44534 0.0
H2207 H 0.84241 0.37822 0.44816 0.0
C2208 C 0.75376 0.36636 0.27915 0.0
C2209 C 0.77992 0.35631 0.26566 0.0
C2210 C 0.79629 0.37757 0.27978 0.0
C2211 C 0.86555 0.37884 0.2662 0.0
C2212 C 0.89175 0.36874 0.25244 0.0
C2213 C 0.84911 0.35759 0.25252 0.0
C2214 C 0.76706 0.38808 0.29492 0.0
C2215 C 0.96408 0.36978 0.23727 0.0
C2216 C 0.92491 0.41142 0.24802 0.0
C2217 C 0.98814 0.41394 0.26308 0.0
C2218 C 0.88526 0.40001 0.24874 0.0
C2219 C 0.90824 0.39093 0.26527 0.0
C2220 C 0.97245 0.39337 0.28047 0.0
C2221 C 0.01231 0.40481 0.27902 0.0
C2222 C 0.81852 0.39771 0.23182 0.0
C2223 C 0.99798 0.38397 0.29852 0.0
H2224 H 0.7008 0.36539 0.28951 0.0
H2225 H 0.86954 0.34989 0.24194 0.0
H2226 H 0.8144 0.39118 0.30696 0.0
H2227 H 0.75103 0.39614 0.28383 0.0
H2228 H 0.71493 0.38539 0.30545 0.0
H2229 H 0.97733 0.361 0.22787 0.0
H2230 H 0.95574 0.37727 0.22417 0.0
H2231 H 0.01581 0.37233 0.24808 0.0
H2232 H 0.90628 0.41841 0.23554 0.0
H2233 H 0.06061 0.40677 0.29084 0.0
H2234 H 0.76315 0.3961 0.24157 0.0
H2235 H 0.83044 0.38923 0.22138 0.0
H2236 H 0.80935 0.40562 0.21963 0.0
H2237 H 0.9482 0.38184 0.31039 0.0
H2238 H 0.04842 0.38731 0.30917 0.0
H2239 H 0.01498 0.37516 0.28986 0.0
C2240 C 0.6171 0.10309 0.52933 0.0
C2241 C 0.58864 0.09303 0.51623 0.0
C2242 C 0.57673 0.11446 0.52996 0.0
C2243 C 0.50682 0.11595 0.51676 0.0
C2244 C 0.47654 0.10572 0.50398 0.0
C2245 C 0.51741 0.09434 0.50406 0.0
C2246 C 0.61053 0.12502 0.54415 0.0
C2247 C 0.40303 0.10698 0.48936 0.0
C2248 C 0.38488 0.14495 0.52974 0.0
C2249 C 0.41696 0.15343 0.51379 0.0
C2250 C 0.41162 0.13256 0.53052 0.0
C2251 C 0.47044 0.12854 0.51465 0.0
C2252 C 0.49959 0.13694 0.49771 0.0
C2253 C 0.47318 0.14927 0.49766 0.0
C2254 C 0.37988 0.12395 0.54905 0.0
C2255 C 0.56108 0.13304 0.48014 0.0
H2256 H 0.67161 0.10211 0.53901 0.0
H2257 H 0.49517 0.08662 0.49385 0.0
H2258 H 0.6314 0.13246 0.53226 0.0
H2259 H 0.56459 0.12912 0.55555 0.0
H2260 H 0.66064 0.122 0.55528 0.0
H2261 H 0.38323 0.09792 0.48215 0.0
H2262 H 0.35467 0.11104 0.49987 0.0
H2263 H 0.41437 0.11341 0.47458 0.0
H2264 H 0.34174 0.14815 0.5423 0.0
H2265 H 0.49757 0.15577 0.48512 0.0
H2266 H 0.42709 0.1218 0.56184 0.0
H2267 H 0.36092 0.11503 0.54115 0.0
H2268 H 0.32943 0.12809 0.55861 0.0
H2269 H 0.61729 0.13107 0.48929 0.0
H2270 H 0.57194 0.14031 0.46674 0.0
H2271 H 0.54276 0.12438 0.47115 0.0
C2272 C 0.5673 0.10991 0.74714 0.0
C2273 C 0.6051 0.10125 0.7616 0.0
C2274 C 0.59797 0.12196 0.74423 0.0
C2275 C 0.66712 0.12549 0.75643 0.0
C2276 C 0.70493 0.11681 0.77122 0.0
C2277 C 0.6739 0.10479 0.77346 0.0
C2278 C 0.55642 0.13092 0.7281 0.0
C2279 C 0.77756 0.12026 0.785 0.0
C2280 C 0.78289 0.15419 0.73745 0.0
C2281 C 0.75183 0.16326 0.75237 0.0
C2282 C 0.75555 0.14184 0.7384 0.0
C2283 C 0.69718 0.13849 0.75496 0.0
C2284 C 0.66767 0.14758 0.77049 0.0
C2285 C 0.69479 0.15983 0.76886 0.0
C2286 C 0.78775 0.13242 0.72137 0.0
C2287 C 0.60691 0.14439 0.78879 0.0
H2288 H 0.51468 0.1072 0.73772 0.0
H2289 H 0.70336 0.09816 0.78473 0.0
H2290 H 0.53442 0.13898 0.73822 0.0
H2291 H 0.5982 0.13455 0.71487 0.0
H2292 H 0.50596 0.12654 0.71889 0.0
H2293 H 0.80076 0.11235 0.79541 0.0
H2294 H 0.82442 0.12353 0.77302 0.0
H2295 H 0.76389 0.12803 0.79708 0.0
H2296 H 0.82643 0.15683 0.72456 0.0
H2297 H 0.67102 0.16679 0.78059 0.0
H2298 H 0.73919 0.12862 0.71055 0.0
H2299 H 0.81435 0.12452 0.73099 0.0
H2300 H 0.83284 0.13648 0.70959 0.0
H2301 H 0.55238 0.14103 0.78022 0.0
H2302 H 0.59182 0.15247 0.80001 0.0
H2303 H 0.62888 0.13678 0.80013 0.0
C2304 C 0.34579 0.91221 0.51729 0.0
C2305 C 0.28171 0.91389 0.50214 0.0
C2306 C 0.38343 0.90067 0.51916 0.0
C2307 C 0.35729 0.89063 0.50522 0.0
C2308 C 0.29357 0.89233 0.48955 0.0
C2309 C 0.25593 0.90392 0.48838 0.0
C2310 C 0.44995 0.89915 0.53646 0.0
C2311 C 0.26478 0.88187 0.47418 0.0
C2312 C 0.49157 0.86266 0.49735 0.0
C2313 C 0.45667 0.85409 0.51254 0.0
C2314 C 0.45999 0.87465 0.49476 0.0
C2315 C 0.39335 0.87815 0.50809 0.0
C2316 C 0.35997 0.86964 0.52408 0.0
C2317 C 0.39152 0.85768 0.52591 0.0
C2318 C 0.49631 0.88344 0.47728 0.0
C2319 C 0.29014 0.8731 0.53903 0.0
H2320 H 0.36577 0.91988 0.52804 0.0
H2321 H 0.20696 0.90522 0.47647 0.0
H2322 H 0.43378 0.8921 0.54978 0.0
H2323 H 0.5034 0.89572 0.52744 0.0
H2324 H 0.46452 0.90797 0.54556 0.0
H2325 H 0.21805 0.88493 0.46186 0.0
H2326 H 0.31437 0.87798 0.46394 0.0
H2327 H 0.24107 0.87426 0.48517 0.0
H2328 H 0.54153 0.85984 0.48687 0.0
H2329 H 0.36488 0.85107 0.53782 0.0
H2330 H 0.51364 0.89222 0.48602 0.0
H2331 H 0.45239 0.88585 0.46364 0.0
H2332 H 0.54887 0.8794 0.46864 0.0
H2333 H 0.30306 0.88166 0.54913 0.0
H2334 H 0.27389 0.86561 0.55148 0.0
H2335 H 0.2386 0.8751 0.52773 0.0
C2336 C 0.29647 0.92252 0.24521 0.0
C2337 C 0.35914 0.92554 0.26013 0.0
C2338 C 0.26138 0.91065 0.24595 0.0
C2339 C 0.28828 0.90173 0.26239 0.0
C2340 C 0.34907 0.90499 0.27818 0.0
C2341 C 0.3843 0.91676 0.27665 0.0
C2342 C 0.1979 0.90748 0.22849 0.0
C2343 C 0.3785 0.89593 0.29637 0.0
C2344 C 0.16752 0.87279 0.27699 0.0
C2345 C 0.20918 0.86351 0.26503 0.0
C2346 C 0.19143 0.88532 0.27597 0.0
C2347 C 0.25735 0.8887 0.26219 0.0
C2348 C 0.29758 0.8794 0.24939 0.0
C2349 C 0.27369 0.86695 0.2512 0.0
C2350 C 0.14794 0.89487 0.2903 0.0
C2351 C 0.36706 0.88257 0.2341 0.0
H2352 H 0.27705 0.92925 0.23235 0.0
H2353 H 0.43214 0.91908 0.28842 0.0
H2354 H 0.21938 0.9001 0.21654 0.0
H2355 H 0.14536 0.90376 0.23757 0.0
H2356 H 0.18001 0.91564 0.21785 0.0
H2357 H 0.42091 0.90028 0.30869 0.0
H2358 H 0.3285 0.89213 0.30654 0.0
H2359 H 0.40797 0.888 0.28764 0.0
H2360 H 0.11773 0.8702 0.28775 0.0
H2361 H 0.30562 0.85986 0.24166 0.0
H2362 H 0.12907 0.90273 0.27908 0.0
H2363 H 0.18781 0.89871 0.30387 0.0
H2364 H 0.09537 0.89091 0.29906 0.0
H2365 H 0.35154 0.89022 0.22193 0.0
H2366 H 0.38753 0.87448 0.22369 0.0
H2367 H 0.41658 0.88586 0.24511 0.0
C2368 C 0.77743 0.67202 0.99871 0.0
C2369 C 0.70712 0.67397 0.01096 0.0
C2370 C 0.81714 0.66053 1.00003 0.0
C2371 C 0.78653 0.65088 0.01426 0.0
C2372 C 0.71843 0.65316 0.02783 0.0
C2373 C 0.67928 0.66459 0.02582 0.0
C2374 C 0.88896 0.65846 0.98508 0.0
C2375 C 0.68423 0.64328 0.04355 0.0
C2376 C 0.80498 0.61689 0.99772 0.0
C2377 C 0.86086 0.61248 0.01378 0.0
C2378 C 0.78395 0.62947 0.99688 0.0
C2379 C 0.81846 0.63794 0.0128 0.0
C2380 C 0.87727 0.63366 0.02851 0.0
C2381 C 0.89839 0.62097 0.02867 0.0
C2382 C 0.72205 0.63358 0.97954 0.0
C2383 C 0.91491 0.64235 0.04592 0.0
H2384 H 0.79916 0.67922 0.98717 0.0
H2385 H 0.62552 0.66609 0.0356 0.0
H2386 H 0.93652 0.65402 0.9954 0.0
H2387 H 0.87395 0.65207 0.97052 0.0
H2388 H 0.9115 0.66727 0.97751 0.0
H2389 H 0.63715 0.64699 0.05505 0.0
H2390 H 0.65896 0.63571 0.03272 0.0
H2391 H 0.73084 0.63913 0.05468 0.0
H2392 H 0.77652 0.61041 0.98592 0.0
H2393 H 0.94149 0.61761 0.04113 0.0
H2394 H 0.74268 0.64182 0.96965 0.0
H2395 H 0.66786 0.63632 0.98901 0.0
H2396 H 0.70669 0.62613 0.96688 0.0
H2397 H 0.93505 0.65096 0.03713 0.0
H2398 H 0.96572 0.638 0.05499 0.0
H2399 H 0.87083 0.6451 0.05923 0.0
C2400 C 0.64655 0.66383 0.26725 0.0
C2401 C 0.70716 0.66711 0.25181 0.0
C2402 C 0.61317 0.65194 0.26693 0.0
C2403 C 0.64028 0.64309 0.25054 0.0
C2404 C 0.7023 0.64626 0.23508 0.0
C2405 C 0.73554 0.65823 0.23602 0.0
C2406 C 0.54841 0.64888 0.28405 0.0
C2407 C 0.73241 0.63707 0.21729 0.0
C2408 C 0.60165 0.60917 0.26441 0.0
C2409 C 0.53433 0.60664 0.25098 0.0
C2410 C 0.63687 0.62094 0.26427 0.0
C2411 C 0.60465 0.63044 0.25014 0.0
C2412 C 0.53652 0.62799 0.23655 0.0
C2413 C 0.50175 0.61613 0.23726 0.0
C2414 C 0.70842 0.62321 0.27937 0.0
C2415 C 0.50075 0.63789 0.22117 0.0
H2416 H 0.62462 0.67063 0.27961 0.0
H2417 H 0.78175 0.66077 0.22389 0.0
H2418 H 0.49399 0.64636 0.27444 0.0
H2419 H 0.56538 0.64073 0.2948 0.0
H2420 H 0.53498 0.65676 0.29593 0.0
H2421 H 0.78068 0.64097 0.20648 0.0
H2422 H 0.75422 0.6286 0.22622 0.0
H2423 H 0.68373 0.63418 0.20555 0.0
H2424 H 0.62708 0.60191 0.27516 0.0
H2425 H 0.45026 0.6142 0.22667 0.0
H2426 H 0.69613 0.63075 0.29206 0.0
H2427 H 0.75845 0.62629 0.26839 0.0
H2428 H 0.72658 0.61479 0.28922 0.0
H2429 H 0.48159 0.64588 0.23201 0.0
H2430 H 0.44934 0.63441 0.21111 0.0
H2431 H 0.5454 0.64141 0.20869 0.0
C2432 C 0.25402 0.40246 0.98327 0.0
C2433 C 0.28492 0.4122 0.99675 0.0
C2434 C 0.29155 0.39079 0.98249 0.0
C2435 C 0.36063 0.3887 0.99589 0.0
C2436 C 0.39143 0.39848 0.0097 0.0
C2437 C 0.35376 0.41009 0.00977 0.0
C2438 C 0.25738 0.38067 0.9673 0.0
C2439 C 0.46359 0.39662 0.02472 0.0
C2440 C 0.40799 0.35546 0.01363 0.0
C2441 C 0.46999 0.35236 0.99853 0.0
C2442 C 0.37256 0.36723 0.01302 0.0
C2443 C 0.39844 0.37615 0.99656 0.0
C2444 C 0.46128 0.37311 0.98126 0.0
C2445 C 0.49695 0.36129 0.9826 0.0
C2446 C 0.30734 0.37013 0.03008 0.0
C2447 C 0.48991 0.38228 0.96325 0.0
H2448 H 0.20136 0.40405 0.973 0.0
H2449 H 0.37795 0.41752 0.02034 0.0
H2450 H 0.3028 0.37716 0.95505 0.0
H2451 H 0.23869 0.37273 0.97832 0.0
H2452 H 0.20594 0.38394 0.957 0.0
H2453 H 0.48055 0.40519 0.0343 0.0
H2454 H 0.45268 0.38913 0.03765 0.0
H2455 H 0.51391 0.39364 0.01376 0.0
H2456 H 0.38709 0.34865 0.02611 0.0
H2457 H 0.54426 0.35892 0.97074 0.0
H2458 H 0.25252 0.37237 0.02045 0.0
H2459 H 0.32303 0.37841 0.04066 0.0
H2460 H 0.29523 0.36227 0.04214 0.0
H2461 H 0.44059 0.38501 0.95159 0.0
H2462 H 0.53826 0.37846 0.95237 0.0
H2463 H 0.51112 0.39085 0.97198 0.0
C2464 C 0.51394 0.40454 0.77976 0.0
C2465 C 0.49087 0.41357 0.76347 0.0
C2466 C 0.47367 0.39312 0.78137 0.0
C2467 C 0.41011 0.39058 0.76597 0.0
C2468 C 0.38834 0.39955 0.74907 0.0
C2469 C 0.42833 0.41094 0.7482 0.0
C2470 C 0.49797 0.38388 0.79984 0.0
C2471 C 0.32244 0.39716 0.73191 0.0
C2472 C 0.34996 0.35712 0.75407 0.0
C2473 C 0.27987 0.35603 0.76687 0.0
C2474 C 0.39318 0.36824 0.75384 0.0
C2475 C 0.36677 0.37851 0.76712 0.0
C2476 C 0.29668 0.37742 0.78039 0.0
C2477 C 0.25358 0.36624 0.77991 0.0
C2478 C 0.46633 0.36905 0.73898 0.0
C2479 C 0.26708 0.3881 0.79505 0.0
H2480 H 0.56163 0.40658 0.79176 0.0
H2481 H 0.41044 0.41785 0.73546 0.0
H2482 H 0.44758 0.38192 0.81158 0.0
H2483 H 0.51489 0.37496 0.79155 0.0
H2484 H 0.54811 0.38726 0.81056 0.0
H2485 H 0.31435 0.40494 0.71939 0.0
H2486 H 0.33448 0.38855 0.72186 0.0
H2487 H 0.26646 0.39571 0.74146 0.0
H2488 H 0.3706 0.34931 0.74382 0.0
H2489 H 0.19992 0.36544 0.79 0.0
H2490 H 0.51758 0.37168 0.74992 0.0
H2491 H 0.45893 0.37641 0.72557 0.0
H2492 H 0.47976 0.36016 0.72997 0.0
H2493 H 0.31399 0.39129 0.80714 0.0
H2494 H 0.21443 0.38555 0.80547 0.0
H2495 H 0.25172 0.39605 0.7836 0.0
loop_
_geom_bond_atom_site_label_1
_geom_bond_atom_site_label_2
_geom_bond_distance
_geom_bond_site_symmetry_2
_ccdc_geom_bond_type
C0 O2 1.247 1_554 S
C0 O4 1.258 . S
C1 O8 1.249 . S
C1 O9 1.255 1_554 S
O2 C0 1.247 1_556 S
O2 Zn3 2.028 . S
Zn3 O2 2.028 . S
Zn3 O7 2.035 1_556 S
Zn3 O9 2.035 . S
Zn3 O10 2.028 . S
O4 C0 1.258 . S
O4 Zn5 2.035 . S
Zn5 O4 2.035 . S
Zn5 O6 2.028 . S
Zn5 O8 2.028 . S
Zn5 O11 2.035 1_554 S
O6 Zn5 2.028 . S
O6 C12 1.247 . S
O7 Zn3 2.035 1_554 S
O7 C12 1.258 . S
O8 C1 1.249 . S
O8 Zn5 2.028 . S
O9 C1 1.255 1_556 S
O9 Zn3 2.035 . S
O10 Zn3 2.028 . S
O10 C13 1.247 . S
O11 Zn5 2.035 1_556 S
O11 C13 1.258 . S
C12 O6 1.247 . S
C12 O7 1.258 . S
C13 O10 1.247 . S
C13 O11 1.258 . S
C14 O16 1.247 1_554 S
C14 O18 1.258 . S
C15 O22 1.249 1_455 S
C15 O23 1.255 1_554 S
O16 C14 1.247 1_556 S
O16 Zn17 2.028 1_655 S
Zn17 O16 2.028 1_455 S
Zn17 O21 2.035 1_556 S
Zn17 O23 2.035 . S
Zn17 O24 2.028 . S
O18 C14 1.258 . S
O18 Zn19 2.035 . S
Zn19 O18 2.035 . S
Zn19 O20 2.028 . S
Zn19 O22 2.028 . S
Zn19 O25 2.035 1_554 S
O20 Zn19 2.028 . S
O20 C26 1.247 1_655 S
O21 Zn17 2.035 1_554 S
O21 C26 1.258 . S
O22 C15 1.249 1_655 S
O22 Zn19 2.028 . S
O23 C15 1.255 1_556 S
O23 Zn17 2.035 . S
O24 Zn17 2.028 . S
O24 C27 1.247 1_455 S
O25 Zn19 2.035 1_556 S
O25 C27 1.258 . S
C26 O20 1.247 1_455 S
C26 O21 1.258 . S
C27 O24 1.247 1_655 S
C27 O25 1.258 . S
C28 O30 1.247 . S
C28 O32 1.258 . S
C29 O36 1.247 . S
C29 O37 1.258 . S
O30 C28 1.247 . S
O30 Zn31 2.028 . S
Zn31 O30 2.028 . S
Zn31 O35 2.035 . S
Zn31 O37 2.035 . S
Zn31 O38 2.028 . S
O32 C28 1.258 . S
O32 Zn33 2.035 . S
Zn33 O32 2.035 . S
Zn33 O34 2.028 . S
Zn33 O36 2.028 . S
Zn33 O39 2.035 . S
O34 Zn33 2.028 . S
O34 C40 1.247 . S
O35 Zn31 2.035 . S
O35 C40 1.258 . S
O36 C29 1.247 . S
O36 Zn33 2.028 . S
O37 C29 1.258 . S
O37 Zn31 2.035 . S
O38 Zn31 2.028 . S
O38 C41 1.247 . S
O39 Zn33 2.035 . S
O39 C41 1.258 . S
C40 O34 1.247 . S
C40 O35 1.258 . S
C41 O38 1.247 . S
C41 O39 1.258 . S
C42 O44 1.247 . S
C42 O46 1.258 1_455 S
C43 O50 1.247 . S
C43 O51 1.258 . S
O44 C42 1.247 . S
O44 Zn45 2.028 . S
Zn45 O44 2.028 . S
Zn45 O49 2.035 . S
Zn45 O51 2.035 1_455 S
Zn45 O52 2.028 . S
O46 C42 1.258 1_655 S
O46 Zn47 2.035 . S
Zn47 O46 2.035 . S
Zn47 O48 2.028 . S
Zn47 O50 2.028 . S
Zn47 O53 2.035 . S
O48 Zn47 2.028 . S
O48 C54 1.247 . S
O49 Zn45 2.035 . S
O49 C54 1.258 1_455 S
O50 C43 1.247 . S
O50 Zn47 2.028 . S
O51 C43 1.258 . S
O51 Zn45 2.035 1_655 S
O52 Zn45 2.028 . S
O52 C55 1.247 . S
O53 Zn47 2.035 . S
O53 C55 1.258 1_655 S
C54 O48 1.247 . S
C54 O49 1.258 1_655 S
C55 O52 1.247 . S
C55 O53 1.258 1_455 S
C56 O58 1.247 . S
C56 O60 1.258 . S
C57 O64 1.247 . S
C57 O65 1.258 . S
O58 C56 1.247 . S
O58 Zn59 2.028 . S
Zn59 O58 2.028 . S
Zn59 O63 2.035 . S
Zn59 O65 2.035 1_554 S
Zn59 O66 2.028 . S
O60 C56 1.258 . S
O60 Zn61 2.035 1_554 S
Zn61 O60 2.035 1_556 S
Zn61 O62 2.028 . S
Zn61 O64 2.028 . S
Zn61 O67 2.035 . S
O62 Zn61 2.028 . S
O62 C68 1.249 . S
O63 Zn59 2.035 . S
O63 C68 1.255 1_554 S
O64 C57 1.247 . S
O64 Zn61 2.028 . S
O65 C57 1.258 . S
O65 Zn59 2.035 1_556 S
O66 Zn59 2.028 . S
O66 C69 1.247 1_554 S
O67 Zn61 2.035 . S
O67 C69 1.258 . S
C68 O62 1.249 . S
C68 O63 1.255 1_556 S
C69 O66 1.247 1_556 S
C69 O67 1.258 . S
C70 O72 1.247 . S
C70 O74 1.258 1_655 S
C71 O78 1.247 . S
C71 O79 1.258 1_455 S
O72 C70 1.247 . S
O72 Zn73 2.028 1_556 S
Zn73 O72 2.028 1_554 S
Zn73 O77 2.035 1_655 S
Zn73 O79 2.035 . S
Zn73 O80 2.028 . S
O74 C70 1.258 1_455 S
O74 Zn75 2.035 . S
Zn75 O74 2.035 . S
Zn75 O76 2.028 . S
Zn75 O78 2.028 1_556 S
Zn75 O81 2.035 . S
O76 Zn75 2.028 . S
O76 C82 1.247 . S
O77 Zn73 2.035 1_455 S
O77 C82 1.258 1_554 S
O78 C71 1.247 . S
O78 Zn75 2.028 1_554 S
O79 C71 1.258 1_655 S
O79 Zn73 2.035 . S
O80 Zn73 2.028 . S
O80 C83 1.244 1_554 S
O81 Zn75 2.035 . S
O81 C83 1.260 1_455 S
C82 O76 1.247 . S
C82 O77 1.258 1_556 S
C83 O80 1.244 1_556 S
C83 O81 1.260 1_655 S
C84 O86 1.247 . S
C84 O88 1.258 . S
C85 O92 1.247 . S
C85 O93 1.258 . S
O86 C84 1.247 . S
O86 Zn87 2.028 . S
Zn87 O86 2.028 . S
Zn87 O91 2.035 . S
Zn87 O93 2.035 . S
Zn87 O94 2.028 . S
O88 C84 1.258 . S
O88 Zn89 2.035 . S
Zn89 O88 2.035 . S
Zn89 O90 2.028 . S
Zn89 O92 2.028 . S
Zn89 O95 2.035 . S
O90 Zn89 2.028 . S
O90 C96 1.247 . S
O91 Zn87 2.035 . S
O91 C96 1.258 . S
O92 C85 1.247 . S
O92 Zn89 2.028 . S
O93 C85 1.258 . S
O93 Zn87 2.035 . S
O94 Zn87 2.028 . S
O94 C97 1.247 . S
O95 Zn89 2.035 . S
O95 C97 1.258 . S
C96 O90 1.247 . S
C96 O91 1.258 . S
C97 O94 1.247 . S
C97 O95 1.258 . S
C98 O100 1.247 . S
C98 O102 1.258 . S
C99 O106 1.247 . S
C99 O107 1.258 1_655 S
O100 C98 1.247 . S
O100 Zn101 2.028 . S
Zn101 O100 2.028 . S
Zn101 O105 2.035 . S
Zn101 O107 2.035 . S
Zn101 O108 2.028 . S
O102 C98 1.258 . S
O102 Zn103 2.035 1_455 S
Zn103 O102 2.035 1_655 S
Zn103 O104 2.028 . S
Zn103 O106 2.028 . S
Zn103 O109 2.035 . S
O104 Zn103 2.028 . S
O104 C110 1.247 . S
O105 Zn101 2.035 . S
O105 C110 1.258 1_455 S
O106 C99 1.247 . S
O106 Zn103 2.028 . S
O107 C99 1.258 1_455 S
O107 Zn101 2.035 . S
O108 Zn101 2.028 . S
O108 C111 1.247 . S
O109 Zn103 2.035 . S
O109 C111 1.258 1_655 S
C110 O104 1.247 . S
C110 O105 1.258 1_655 S
C111 O108 1.247 . S
C111 O109 1.258 1_455 S
C112 O114 1.247 . S
C112 O116 1.258 . S
C113 O120 1.247 . S
C113 O121 1.258 . S
O114 C112 1.247 . S
O114 Zn115 2.028 . S
Zn115 O114 2.028 . S
Zn115 O119 2.035 . S
Zn115 O121 2.035 . S
Zn115 O122 2.028 . S
O116 C112 1.258 . S
O116 Zn117 2.035 . S
Zn117 O116 2.035 . S
Zn117 O118 2.028 . S
Zn117 O120 2.028 . S
Zn117 O123 2.035 . S
O118 Zn117 2.028 . S
O118 C124 1.247 . S
O119 Zn115 2.035 . S
O119 C124 1.258 . S
O120 C113 1.247 . S
O120 Zn117 2.028 . S
O121 C113 1.258 . S
O121 Zn115 2.035 . S
O122 Zn115 2.028 . S
O122 C125 1.247 . S
O123 Zn117 2.035 . S
O123 C125 1.258 . S
C124 O118 1.247 . S
C124 O119 1.258 . S
C125 O122 1.247 . S
C125 O123 1.258 . S
C126 O128 1.247 . S
C126 O130 1.258 1_455 S
C127 O134 1.247 . S
C127 O135 1.258 . S
O128 C126 1.247 . S
O128 Zn129 2.028 . S
Zn129 O128 2.028 . S
Zn129 O133 2.035 . S
Zn129 O135 2.035 1_455 S
Zn129 O136 2.028 . S
O130 C126 1.258 1_655 S
O130 Zn131 2.035 . S
Zn131 O130 2.035 . S
Zn131 O132 2.028 . S
Zn131 O134 2.028 . S
Zn131 O137 2.035 . S
O132 Zn131 2.028 . S
O132 C138 1.247 . S
O133 Zn129 2.035 . S
O133 C138 1.258 1_455 S
O134 C127 1.247 . S
O134 Zn131 2.028 . S
O135 C127 1.258 . S
O135 Zn129 2.035 1_655 S
O136 Zn129 2.028 . S
O136 C139 1.247 . S
O137 Zn131 2.035 . S
O137 C139 1.258 1_655 S
C138 O132 1.247 . S
C138 O133 1.258 1_655 S
C139 O136 1.247 . S
C139 O137 1.258 1_455 S
C140 O142 1.247 . S
C140 O144 1.258 . S
C141 O148 1.247 . S
C141 O149 1.258 . S
O142 C140 1.247 . S
O142 Zn143 2.028 . S
Zn143 O142 2.028 . S
Zn143 O147 2.035 . S
Zn143 O149 2.035 . S
Zn143 O150 2.028 . S
O144 C140 1.258 . S
O144 Zn145 2.035 . S
Zn145 O144 2.035 . S
Zn145 O146 2.028 . S
Zn145 O148 2.028 . S
Zn145 O151 2.035 . S
O146 Zn145 2.028 . S
O146 C152 1.247 . S
O147 Zn143 2.035 . S
O147 C152 1.258 . S
O148 C141 1.247 . S
O148 Zn145 2.028 . S
O149 C141 1.258 . S
O149 Zn143 2.035 . S
O150 Zn143 2.028 . S
O150 C153 1.247 . S
O151 Zn145 2.035 . S
O151 C153 1.258 . S
C152 O146 1.247 . S
C152 O147 1.258 . S
C153 O150 1.247 . S
C153 O151 1.258 . S
C154 O156 1.247 . S
C154 O158 1.258 1_455 S
C155 O162 1.247 . S
C155 O163 1.258 . S
O156 C154 1.247 . S
O156 Zn157 2.028 . S
Zn157 O156 2.028 . S
Zn157 O161 2.035 . S
Zn157 O163 2.035 1_455 S
Zn157 O164 2.028 . S
O158 C154 1.258 1_655 S
O158 Zn159 2.035 . S
Zn159 O158 2.035 . S
Zn159 O160 2.028 . S
Zn159 O162 2.028 . S
Zn159 O165 2.035 . S
O160 Zn159 2.028 . S
O160 C166 1.247 . S
O161 Zn157 2.035 . S
O161 C166 1.258 1_455 S
O162 C155 1.247 . S
O162 Zn159 2.028 . S
O163 C155 1.258 . S
O163 Zn157 2.035 1_655 S
O164 Zn157 2.028 . S
O164 C167 1.247 . S
O165 Zn159 2.035 . S
O165 C167 1.258 1_655 S
C166 O160 1.247 . S
C166 O161 1.258 1_655 S
C167 O164 1.247 . S
C167 O165 1.258 1_455 S
C168 O170 1.247 . S
C168 O172 1.258 . S
C169 O176 1.247 . S
C169 O177 1.258 . S
O170 C168 1.247 . S
O170 Zn171 2.028 . S
Zn171 O170 2.028 . S
Zn171 O175 2.035 . S
Zn171 O177 2.035 . S
Zn171 O178 2.028 . S
O172 C168 1.258 . S
O172 Zn173 2.035 . S
Zn173 O172 2.035 . S
Zn173 O174 2.028 . S
Zn173 O176 2.028 . S
Zn173 O179 2.035 . S
O174 Zn173 2.028 . S
O174 C180 1.247 . S
O175 Zn171 2.035 . S
O175 C180 1.258 . S
O176 C169 1.247 . S
O176 Zn173 2.028 . S
O177 C169 1.258 . S
O177 Zn171 2.035 . S
O178 Zn171 2.028 . S
O178 C181 1.247 . S
O179 Zn173 2.035 . S
O179 C181 1.258 . S
C180 O174 1.247 . S
C180 O175 1.258 . S
C181 O178 1.247 . S
C181 O179 1.258 . S
C182 O184 1.247 1_455 S
C182 O186 1.258 . S
C183 O190 1.247 1_655 S
C183 O191 1.258 . S
O184 C182 1.247 1_655 S
O184 Zn185 2.028 . S
Zn185 O184 2.028 . S
Zn185 O189 2.035 . S
Zn185 O191 2.035 . S
Zn185 O192 2.028 1_655 S
O186 C182 1.258 . S
O186 Zn187 2.035 . S
Zn187 O186 2.035 . S
Zn187 O188 2.028 . S
Zn187 O190 2.028 . S
Zn187 O193 2.035 . S
O188 Zn187 2.028 . S
O188 C194 1.247 1_455 S
O189 Zn185 2.035 . S
O189 C194 1.258 . S
O190 C183 1.247 1_455 S
O190 Zn187 2.028 . S
O191 C183 1.258 . S
O191 Zn185 2.035 . S
O192 Zn185 2.028 1_455 S
O192 C195 1.247 . S
O193 Zn187 2.035 . S
O193 C195 1.258 . S
C194 O188 1.247 1_655 S
C194 O189 1.258 . S
C195 O192 1.247 . S
C195 O193 1.258 . S
C196 O198 1.247 . S
C196 O200 1.258 . S
C197 O204 1.247 . S
C197 O205 1.258 . S
O198 C196 1.247 . S
O198 Zn199 2.028 . S
Zn199 O198 2.028 . S
Zn199 O203 2.035 . S
Zn199 O205 2.035 . S
Zn199 O206 2.028 . S
O200 C196 1.258 . S
O200 Zn201 2.035 . S
Zn201 O200 2.035 . S
Zn201 O202 2.028 . S
Zn201 O204 2.028 . S
Zn201 O207 2.035 . S
O202 Zn201 2.028 . S
O202 C208 1.247 . S
O203 Zn199 2.035 . S
O203 C208 1.258 . S
O204 C197 1.247 . S
O204 Zn201 2.028 . S
O205 C197 1.258 . S
O205 Zn199 2.035 . S
O206 Zn199 2.028 . S
O206 C209 1.247 . S
O207 Zn201 2.035 . S
O207 C209 1.258 . S
C208 O202 1.247 . S
C208 O203 1.258 . S
C209 O206 1.247 . S
C209 O207 1.258 . S
C210 O212 1.247 . S
C210 O214 1.258 1_655 S
C211 O218 1.247 . S
C211 O219 1.258 1_455 S
O212 C210 1.247 . S
O212 Zn213 2.028 . S
Zn213 O212 2.028 . S
Zn213 O217 2.035 1_655 S
Zn213 O219 2.035 . S
Zn213 O220 2.028 . S
O214 C210 1.258 1_455 S
O214 Zn215 2.035 . S
Zn215 O214 2.035 . S
Zn215 O216 2.028 . S
Zn215 O218 2.028 . S
Zn215 O221 2.035 . S
O216 Zn215 2.028 . S
O216 C222 1.247 . S
O217 Zn213 2.035 1_455 S
O217 C222 1.258 . S
O218 C211 1.247 . S
O218 Zn215 2.028 . S
O219 C211 1.258 1_655 S
O219 Zn213 2.035 . S
O220 Zn213 2.028 . S
O220 C223 1.247 . S
O221 Zn215 2.035 . S
O221 C223 1.258 1_455 S
C222 O216 1.247 . S
C222 O217 1.258 . S
C223 O220 1.247 . S
C223 O221 1.258 1_655 S
C224 O226 1.247 . S
C224 O228 1.258 . S
C225 O232 1.247 . S
C225 O233 1.258 . S
O226 C224 1.247 . S
O226 Zn227 2.028 . S
Zn227 O226 2.028 . S
Zn227 O231 2.035 . S
Zn227 O233 2.035 . S
Zn227 O234 2.028 . S
O228 C224 1.258 . S
O228 Zn229 2.035 . S
Zn229 O228 2.035 . S
Zn229 O230 2.028 . S
Zn229 O232 2.028 . S
Zn229 O235 2.035 . S
O230 Zn229 2.028 . S
O230 C236 1.247 . S
O231 Zn227 2.035 . S
O231 C236 1.258 . S
O232 C225 1.247 . S
O232 Zn229 2.028 . S
O233 C225 1.258 . S
O233 Zn227 2.035 . S
O234 Zn227 2.028 . S
O234 C237 1.247 . S
O235 Zn229 2.035 . S
O235 C237 1.258 . S
C236 O230 1.247 . S
C236 O231 1.258 . S
C237 O234 1.247 . S
C237 O235 1.258 . S
C238 O240 1.247 . S
C238 O242 1.258 . S
C239 O246 1.247 . S
C239 O247 1.258 . S
O240 C238 1.247 . S
O240 Zn241 2.028 . S
Zn241 O240 2.028 . S
Zn241 O245 2.035 . S
Zn241 O247 2.035 . S
Zn241 O248 2.028 . S
O242 C238 1.258 . S
O242 Zn243 2.035 . S
Zn243 O242 2.035 . S
Zn243 O244 2.028 . S
Zn243 O246 2.028 . S
Zn243 O249 2.035 . S
O244 Zn243 2.028 . S
O244 C250 1.247 . S
O245 Zn241 2.035 . S
O245 C250 1.258 . S
O246 C239 1.247 . S
O246 Zn243 2.028 . S
O247 C239 1.258 . S
O247 Zn241 2.035 . S
O248 Zn241 2.028 . S
O248 C251 1.247 . S
O249 Zn243 2.035 . S
O249 C251 1.258 . S
C250 O244 1.247 . S
C250 O245 1.258 . S
C251 O248 1.247 . S
C251 O249 1.258 . S
C252 O254 1.247 . S
C252 O256 1.258 . S
C253 O260 1.247 . S
C253 O261 1.258 . S
O254 C252 1.247 . S
O254 Zn255 2.028 . S
Zn255 O254 2.028 . S
Zn255 O259 2.035 . S
Zn255 O261 2.035 . S
Zn255 O262 2.028 . S
O256 C252 1.258 . S
O256 Zn257 2.035 . S
Zn257 O256 2.035 . S
Zn257 O258 2.028 . S
Zn257 O260 2.028 . S
Zn257 O263 2.035 . S
O258 Zn257 2.028 . S
O258 C264 1.247 . S
O259 Zn255 2.035 . S
O259 C264 1.258 . S
O260 C253 1.247 . S
O260 Zn257 2.028 . S
O261 C253 1.258 . S
O261 Zn255 2.035 . S
O262 Zn255 2.028 . S
O262 C265 1.247 . S
O263 Zn257 2.035 . S
O263 C265 1.258 . S
C264 O258 1.247 . S
C264 O259 1.258 . S
C265 O262 1.247 . S
C265 O263 1.258 . S
C266 O268 1.247 . S
C266 O270 1.258 . S
C267 O274 1.247 . S
C267 O275 1.258 . S
O268 C266 1.247 . S
O268 Zn269 2.028 . S
Zn269 O268 2.028 . S
Zn269 O273 2.035 . S
Zn269 O275 2.035 . S
Zn269 O276 2.028 . S
O270 C266 1.258 . S
O270 Zn271 2.035 . S
Zn271 O270 2.035 . S
Zn271 O272 2.028 . S
Zn271 O274 2.028 . S
Zn271 O277 2.035 . S
O272 Zn271 2.028 . S
O272 C278 1.247 . S
O273 Zn269 2.035 . S
O273 C278 1.258 . S
O274 C267 1.247 . S
O274 Zn271 2.028 . S
O275 C267 1.258 . S
O275 Zn269 2.035 . S
O276 Zn269 2.028 . S
O276 C279 1.247 . S
O277 Zn271 2.035 . S
O277 C279 1.258 . S
C278 O272 1.247 . S
C278 O273 1.258 . S
C279 O276 1.247 . S
C279 O277 1.258 . S
C280 O282 1.247 . S
C280 O284 1.258 . S
C281 O288 1.247 . S
C281 O289 1.258 . S
O282 C280 1.247 . S
O282 Zn283 2.028 . S
Zn283 O282 2.028 . S
Zn283 O287 2.035 . S
Zn283 O289 2.035 . S
Zn283 O290 2.028 . S
O284 C280 1.258 . S
O284 Zn285 2.035 . S
Zn285 O284 2.035 . S
Zn285 O286 2.028 . S
Zn285 O288 2.028 . S
Zn285 O291 2.035 . S
O286 Zn285 2.028 . S
O286 C292 1.247 . S
O287 Zn283 2.035 . S
O287 C292 1.258 . S
O288 C281 1.247 . S
O288 Zn285 2.028 . S
O289 C281 1.258 . S
O289 Zn283 2.035 . S
O290 Zn283 2.028 . S
O290 C293 1.247 . S
O291 Zn285 2.035 . S
O291 C293 1.258 . S
C292 O286 1.247 . S
C292 O287 1.258 . S
C293 O290 1.247 . S
C293 O291 1.258 . S
C294 O296 1.247 . S
C294 O298 1.258 . S
C295 O302 1.247 . S
C295 O303 1.258 . S
O296 C294 1.247 . S
O296 Zn297 2.028 . S
Zn297 O296 2.028 . S
Zn297 O301 2.035 . S
Zn297 O303 2.035 . S
Zn297 O304 2.028 . S
O298 C294 1.258 . S
O298 Zn299 2.035 . S
Zn299 O298 2.035 . S
Zn299 O300 2.028 . S
Zn299 O302 2.028 . S
Zn299 O305 2.035 . S
O300 Zn299 2.028 . S
O300 C306 1.247 . S
O301 Zn297 2.035 . S
O301 C306 1.258 . S
O302 C295 1.247 . S
O302 Zn299 2.028 . S
O303 C295 1.258 . S
O303 Zn297 2.035 . S
O304 Zn297 2.028 . S
O304 C307 1.247 . S
O305 Zn299 2.035 . S
O305 C307 1.258 . S
C306 O300 1.247 . S
C306 O301 1.258 . S
C307 O304 1.247 . S
C307 O305 1.258 . S
C308 O310 1.247 . S
C308 O312 1.258 . S
C309 O316 1.247 . S
C309 O317 1.258 . S
O310 C308 1.247 . S
O310 Zn311 2.028 . S
Zn311 O310 2.028 . S
Zn311 O315 2.035 . S
Zn311 O317 2.035 . S
Zn311 O318 2.028 . S
O312 C308 1.258 . S
O312 Zn313 2.035 . S
Zn313 O312 2.035 . S
Zn313 O314 2.028 . S
Zn313 O316 2.028 . S
Zn313 O319 2.035 . S
O314 Zn313 2.028 . S
O314 C320 1.247 . S
O315 Zn311 2.035 . S
O315 C320 1.258 . S
O316 C309 1.247 . S
O316 Zn313 2.028 . S
O317 C309 1.258 . S
O317 Zn311 2.035 . S
O318 Zn311 2.028 . S
O318 C321 1.247 . S
O319 Zn313 2.035 . S
O319 C321 1.258 . S
C320 O314 1.247 . S
C320 O315 1.258 . S
C321 O318 1.247 . S
C321 O319 1.258 . S
C322 O324 1.247 . S
C322 O326 1.258 . S
C323 O330 1.247 . S
C323 O331 1.258 . S
O324 C322 1.247 . S
O324 Zn325 2.028 . S
Zn325 O324 2.028 . S
Zn325 O329 2.035 . S
Zn325 O331 2.035 . S
Zn325 O332 2.028 . S
O326 C322 1.258 . S
O326 Zn327 2.035 . S
Zn327 O326 2.035 . S
Zn327 O328 2.028 . S
Zn327 O330 2.028 . S
Zn327 O333 2.035 . S
O328 Zn327 2.028 . S
O328 C334 1.247 . S
O329 Zn325 2.035 . S
O329 C334 1.258 . S
O330 C323 1.247 . S
O330 Zn327 2.028 . S
O331 C323 1.258 . S
O331 Zn325 2.035 . S
O332 Zn325 2.028 . S
O332 C335 1.247 . S
O333 Zn327 2.035 . S
O333 C335 1.258 . S
C334 O328 1.247 . S
C334 O329 1.258 . S
C335 O332 1.247 . S
C335 O333 1.258 . S
C336 O338 1.247 . S
C336 O340 1.258 . S
C337 O344 1.247 . S
C337 O345 1.258 . S
O338 C336 1.247 . S
O338 Zn339 2.028 1_556 S
Zn339 O338 2.028 1_554 S
Zn339 O343 2.035 . S
Zn339 O345 2.035 . S
Zn339 O346 2.028 . S
O340 C336 1.258 . S
O340 Zn341 2.035 . S
Zn341 O340 2.035 . S
Zn341 O342 2.028 . S
Zn341 O344 2.028 1_556 S
Zn341 O347 2.035 . S
O342 Zn341 2.028 . S
O342 C348 1.245 1_556 S
O343 Zn339 2.035 . S
O343 C348 1.260 . S
O344 C337 1.247 . S
O344 Zn341 2.028 1_554 S
O345 C337 1.258 . S
O345 Zn339 2.035 . S
O346 Zn339 2.028 . S
O346 C349 1.247 . S
O347 Zn341 2.035 . S
O347 C349 1.258 1_556 S
C348 O342 1.245 1_554 S
C348 O343 1.260 . S
C349 O346 1.247 . S
C349 O347 1.258 1_554 S
C350 O352 1.247 1_554 S
C350 O354 1.258 . S
C351 O358 1.248 . S
C351 O359 1.256 1_554 S
O352 C350 1.247 1_556 S
O352 Zn353 2.028 . S
Zn353 O352 2.028 . S
Zn353 O357 2.035 1_556 S
Zn353 O359 2.035 . S
Zn353 O360 2.028 . S
O354 C350 1.258 . S
O354 Zn355 2.035 . S
Zn355 O354 2.035 . S
Zn355 O356 2.028 . S
Zn355 O358 2.028 . S
Zn355 O361 2.035 1_554 S
O356 Zn355 2.028 . S
O356 C362 1.247 . S
O357 Zn353 2.035 1_554 S
O357 C362 1.258 . S
O358 C351 1.248 . S
O358 Zn355 2.028 . S
O359 C351 1.256 1_556 S
O359 Zn353 2.035 . S
O360 Zn353 2.028 . S
O360 C363 1.247 . S
O361 Zn355 2.035 1_556 S
O361 C363 1.258 . S
C362 O356 1.247 . S
C362 O357 1.258 . S
C363 O360 1.247 . S
C363 O361 1.258 . S
C364 O366 1.247 . S
C364 O368 1.258 . S
C365 O372 1.247 . S
C365 O373 1.258 . S
O366 C364 1.247 . S
O366 Zn367 2.028 . S
Zn367 O366 2.028 . S
Zn367 O371 2.035 . S
Zn367 O373 2.035 . S
Zn367 O374 2.028 . S
O368 C364 1.258 . S
O368 Zn369 2.035 . S
Zn369 O368 2.035 . S
Zn369 O370 2.028 . S
Zn369 O372 2.028 . S
Zn369 O375 2.035 . S
O370 Zn369 2.028 . S
O370 C376 1.247 . S
O371 Zn367 2.035 . S
O371 C376 1.258 . S
O372 C365 1.247 . S
O372 Zn369 2.028 . S
O373 C365 1.258 . S
O373 Zn367 2.035 . S
O374 Zn367 2.028 . S
O374 C377 1.247 . S
O375 Zn369 2.035 . S
O375 C377 1.258 . S
C376 O370 1.247 . S
C376 O371 1.258 . S
C377 O374 1.247 . S
C377 O375 1.258 . S
C378 O380 1.247 . S
C378 O382 1.258 . S
C379 O386 1.247 . S
C379 O387 1.258 . S
O380 C378 1.247 . S
O380 Zn381 2.028 . S
Zn381 O380 2.028 . S
Zn381 O385 2.035 . S
Zn381 O387 2.035 . S
Zn381 O388 2.028 . S
O382 C378 1.258 . S
O382 Zn383 2.035 . S
Zn383 O382 2.035 . S
Zn383 O384 2.028 . S
Zn383 O386 2.028 . S
Zn383 O389 2.035 . S
O384 Zn383 2.028 . S
O384 C390 1.247 . S
O385 Zn381 2.035 . S
O385 C390 1.258 . S
O386 C379 1.247 . S
O386 Zn383 2.028 . S
O387 C379 1.258 . S
O387 Zn381 2.035 . S
O388 Zn381 2.028 . S
O388 C391 1.247 . S
O389 Zn383 2.035 . S
O389 C391 1.258 . S
C390 O384 1.247 . S
C390 O385 1.258 . S
C391 O388 1.247 . S
C391 O389 1.258 . S
C392 O394 1.247 . S
C392 O396 1.258 . S
C393 O400 1.247 . S
C393 O401 1.258 . S
O394 C392 1.247 . S
O394 Zn395 2.028 . S
Zn395 O394 2.028 . S
Zn395 O399 2.035 . S
Zn395 O401 2.035 1_554 S
Zn395 O402 2.028 . S
O396 C392 1.258 . S
O396 Zn397 2.035 1_554 S
Zn397 O396 2.035 1_556 S
Zn397 O398 2.028 . S
Zn397 O400 2.028 . S
Zn397 O403 2.035 . S
O398 Zn397 2.028 . S
O398 C404 1.248 . S
O399 Zn395 2.035 . S
O399 C404 1.256 1_554 S
O400 C393 1.247 . S
O400 Zn397 2.028 . S
O401 C393 1.258 . S
O401 Zn395 2.035 1_556 S
O402 Zn395 2.028 . S
O402 C405 1.247 1_554 S
O403 Zn397 2.035 . S
O403 C405 1.258 . S
C404 O398 1.248 . S
C404 O399 1.256 1_556 S
C405 O402 1.247 1_556 S
C405 O403 1.258 . S
C406 O408 1.247 . S
C406 O410 1.258 . S
C407 O414 1.247 . S
C407 O415 1.258 . S
O408 C406 1.247 . S
O408 Zn409 2.028 . S
Zn409 O408 2.028 . S
Zn409 O413 2.035 . S
Zn409 O415 2.035 1_554 S
Zn409 O416 2.028 . S
O410 C406 1.258 . S
O410 Zn411 2.035 1_554 S
Zn411 O410 2.035 1_556 S
Zn411 O412 2.028 . S
Zn411 O414 2.028 . S
Zn411 O417 2.035 . S
O412 Zn411 2.028 . S
O412 C418 1.248 . S
O413 Zn409 2.035 . S
O413 C418 1.256 1_554 S
O414 C407 1.247 . S
O414 Zn411 2.028 . S
O415 C407 1.258 . S
O415 Zn409 2.035 1_556 S
O416 Zn409 2.028 . S
O416 C419 1.247 1_554 S
O417 Zn411 2.035 . S
O417 C419 1.258 . S
C418 O412 1.248 . S
C418 O413 1.256 1_556 S
C419 O416 1.247 1_556 S
C419 O417 1.258 . S
C420 O422 1.247 . S
C420 O424 1.258 . S
C421 O428 1.247 . S
C421 O429 1.258 . S
O422 C420 1.247 . S
O422 Zn423 2.028 . S
Zn423 O422 2.028 . S
Zn423 O427 2.035 . S
Zn423 O429 2.035 . S
Zn423 O430 2.028 . S
O424 C420 1.258 . S
O424 Zn425 2.035 . S
Zn425 O424 2.035 . S
Zn425 O426 2.028 . S
Zn425 O428 2.028 . S
Zn425 O431 2.035 . S
O426 Zn425 2.028 . S
O426 C432 1.247 . S
O427 Zn423 2.035 . S
O427 C432 1.258 . S
O428 C421 1.247 . S
O428 Zn425 2.028 . S
O429 C421 1.258 . S
O429 Zn423 2.035 . S
O430 Zn423 2.028 . S
O430 C433 1.247 . S
O431 Zn425 2.035 . S
O431 C433 1.258 . S
C432 O426 1.247 . S
C432 O427 1.258 . S
C433 O430 1.247 . S
C433 O431 1.258 . S
C434 O436 1.247 . S
C434 O438 1.258 . S
C435 O442 1.247 . S
C435 O443 1.258 . S
O436 C434 1.247 . S
O436 Zn437 2.028 . S
Zn437 O436 2.028 . S
Zn437 O441 2.035 . S
Zn437 O443 2.035 . S
Zn437 O444 2.028 . S
O438 C434 1.258 . S
O438 Zn439 2.035 . S
Zn439 O438 2.035 . S
Zn439 O440 2.028 . S
Zn439 O442 2.028 . S
Zn439 O445 2.035 . S
O440 Zn439 2.028 . S
O440 C446 1.247 . S
O441 Zn437 2.035 . S
O441 C446 1.258 . S
O442 C435 1.247 . S
O442 Zn439 2.028 . S
O443 C435 1.258 . S
O443 Zn437 2.035 . S
O444 Zn437 2.028 . S
O444 C447 1.247 . S
O445 Zn439 2.035 . S
O445 C447 1.258 . S
C446 O440 1.247 . S
C446 O441 1.258 . S
C447 O444 1.247 . S
C447 O445 1.258 . S
C448 C449 1.391 . S
C448 C450 1.394 . S
C448 H464 0.931 . S
C449 C448 1.391 . S
C449 C453 1.376 . S
C450 C448 1.394 . S
C450 C451 1.369 . S
C450 C454 1.531 . S
C451 C450 1.369 . S
C451 C452 1.410 . S
C451 C459 1.503 . S
C452 C451 1.410 . S
C452 C453 1.392 . S
C452 C455 1.511 . S
C453 C449 1.376 . S
C453 C452 1.392 . S
C453 H465 0.929 . S
C454 C450 1.531 . S
C454 H466 0.960 . S
C454 H467 0.962 1_455 S
C454 H468 0.960 . S
C455 C452 1.511 . S
C455 H469 0.961 . S
C455 H470 0.961 . S
C455 H471 0.961 . S
C456 C457 1.370 . S
C456 C458 1.363 . S
C456 H472 0.931 . S
C457 C456 1.370 . S
C457 C461 1.408 . S
C458 C456 1.363 . S
C458 C459 1.370 . S
C458 C462 1.524 . S
C459 C451 1.503 . S
C459 C458 1.370 . S
C459 C460 1.403 . S
C460 C459 1.403 . S
C460 C461 1.404 . S
C460 C463 1.539 . S
C461 C457 1.408 . S
C461 C460 1.404 . S
C461 H473 0.930 . S
C462 C458 1.524 . S
C462 H474 0.956 . S
C462 H475 0.961 . S
C462 H476 0.961 . S
C463 C460 1.539 . S
C463 H477 0.958 . S
C463 H478 0.961 . S
C463 H479 0.960 . S
H464 C448 0.931 . S
H465 C453 0.929 . S
H466 C454 0.960 . S
H467 C454 0.962 1_655 S
H468 C454 0.960 . S
H469 C455 0.961 . S
H470 C455 0.961 . S
H471 C455 0.961 . S
H472 C456 0.931 . S
H473 C461 0.930 . S
H474 C462 0.956 . S
H475 C462 0.961 . S
H476 C462 0.961 . S
H477 C463 0.958 . S
H478 C463 0.961 . S
H479 C463 0.960 . S
C480 C481 1.391 . S
C480 C482 1.394 . S
C480 H496 0.931 . S
C481 C480 1.391 . S
C481 C485 1.376 . S
C482 C480 1.394 . S
C482 C483 1.369 . S
C482 C486 1.531 1_455 S
C483 C482 1.369 . S
C483 C484 1.410 . S
C483 C491 1.503 . S
C484 C483 1.410 . S
C484 C485 1.392 . S
C484 C487 1.511 . S
C485 C481 1.376 . S
C485 C484 1.392 . S
C485 H497 0.929 . S
C486 C482 1.531 1_655 S
C486 H498 0.960 . S
C486 H499 0.962 . S
C486 H500 0.960 . S
C487 C484 1.511 . S
C487 H501 0.961 . S
C487 H502 0.961 . S
C487 H503 0.961 . S
C488 C489 1.370 . S
C488 C490 1.363 . S
C488 H504 0.931 . S
C489 C488 1.370 . S
C489 C493 1.408 . S
C490 C488 1.363 . S
C490 C491 1.370 . S
C490 C494 1.524 . S
C491 C483 1.503 . S
C491 C490 1.370 . S
C491 C492 1.403 . S
C492 C491 1.403 . S
C492 C493 1.404 . S
C492 C495 1.539 . S
C493 C489 1.408 . S
C493 C492 1.404 . S
C493 H505 0.930 . S
C494 C490 1.524 . S
C494 H506 0.956 . S
C494 H507 0.961 . S
C494 H508 0.961 . S
C495 C492 1.539 . S
C495 H509 0.958 . S
C495 H510 0.961 . S
C495 H511 0.960 . S
H496 C480 0.931 . S
H497 C485 0.929 . S
H498 C486 0.960 . S
H499 C486 0.962 . S
H500 C486 0.960 . S
H501 C487 0.961 . S
H502 C487 0.961 . S
H503 C487 0.961 . S
H504 C488 0.931 . S
H505 C493 0.930 . S
H506 C494 0.956 . S
H507 C494 0.961 . S
H508 C494 0.961 . S
H509 C495 0.958 . S
H510 C495 0.961 . S
H511 C495 0.960 . S
C512 C513 1.391 . S
C512 C514 1.394 . S
C512 H528 0.931 . S
C513 C512 1.391 . S
C513 C517 1.376 . S
C514 C512 1.394 . S
C514 C515 1.369 . S
C514 C518 1.531 . S
C515 C514 1.369 . S
C515 C516 1.410 . S
C515 C523 1.503 . S
C516 C515 1.410 . S
C516 C517 1.392 . S
C516 C519 1.511 1_655 S
C517 C513 1.376 . S
C517 C516 1.392 . S
C517 H529 0.929 1_655 S
C518 C514 1.531 . S
C518 H530 0.960 . S
C518 H531 0.962 . S
C518 H532 0.960 . S
C519 C516 1.511 1_455 S
C519 H533 0.961 . S
C519 H534 0.961 1_455 S
C519 H535 0.961 . S
C520 C521 1.370 . S
C520 C522 1.363 . S
C520 H536 0.931 . S
C521 C520 1.370 . S
C521 C525 1.408 . S
C522 C520 1.363 . S
C522 C523 1.370 . S
C522 C526 1.524 . S
C523 C515 1.503 . S
C523 C522 1.370 . S
C523 C524 1.403 . S
C524 C523 1.403 . S
C524 C525 1.404 . S
C524 C527 1.539 . S
C525 C521 1.408 . S
C525 C524 1.404 . S
C525 H537 0.930 . S
C526 C522 1.524 . S
C526 H538 0.956 . S
C526 H539 0.961 . S
C526 H540 0.961 . S
C527 C524 1.539 . S
C527 H541 0.958 . S
C527 H542 0.961 . S
C527 H543 0.960 . S
H528 C512 0.931 . S
H529 C517 0.929 1_455 S
H530 C518 0.960 . S
H531 C518 0.962 . S
H532 C518 0.960 . S
H533 C519 0.961 . S
H534 C519 0.961 1_655 S
H535 C519 0.961 . S
H536 C520 0.931 . S
H537 C525 0.930 . S
H538 C526 0.956 . S
H539 C526 0.961 . S
H540 C526 0.961 . S
H541 C527 0.958 . S
H542 C527 0.961 . S
H543 C527 0.960 . S
C544 C545 1.391 . S
C544 C546 1.394 . S
C544 H560 0.931 . S
C545 C544 1.391 . S
C545 C549 1.376 . S
C546 C544 1.394 . S
C546 C547 1.369 . S
C546 C550 1.531 . S
C547 C546 1.369 . S
C547 C548 1.410 . S
C547 C555 1.503 . S
C548 C547 1.410 . S
C548 C549 1.392 . S
C548 C551 1.511 . S
C549 C545 1.376 . S
C549 C548 1.392 . S
C549 H561 0.929 . S
C550 C546 1.531 . S
C550 H562 0.960 . S
C550 H563 0.962 1_655 S
C550 H564 0.960 . S
C551 C548 1.511 . S
C551 H565 0.961 . S
C551 H566 0.961 . S
C551 H567 0.961 . S
C552 C553 1.370 . S
C552 C554 1.363 . S
C552 H568 0.931 . S
C553 C552 1.370 . S
C553 C557 1.408 . S
C554 C552 1.363 . S
C554 C555 1.370 . S
C554 C558 1.524 . S
C555 C547 1.503 . S
C555 C554 1.370 . S
C555 C556 1.403 . S
C556 C555 1.403 . S
C556 C557 1.404 . S
C556 C559 1.539 . S
C557 C553 1.408 . S
C557 C556 1.404 . S
C557 H569 0.930 . S
C558 C554 1.524 . S
C558 H570 0.956 . S
C558 H571 0.961 . S
C558 H572 0.961 . S
C559 C556 1.539 . S
C559 H573 0.958 . S
C559 H574 0.961 . S
C559 H575 0.960 . S
H560 C544 0.931 . S
H561 C549 0.929 . S
H562 C550 0.960 . S
H563 C550 0.962 1_455 S
H564 C550 0.960 . S
H565 C551 0.961 . S
H566 C551 0.961 . S
H567 C551 0.961 . S
H568 C552 0.931 . S
H569 C557 0.930 . S
H570 C558 0.956 . S
H571 C558 0.961 . S
H572 C558 0.961 . S
H573 C559 0.958 . S
H574 C559 0.961 . S
H575 C559 0.960 . S
C576 C577 1.391 . S
C576 C578 1.394 . S
C576 H592 0.931 . S
C577 C576 1.391 . S
C577 C581 1.376 . S
C578 C576 1.394 . S
C578 C579 1.369 . S
C578 C582 1.531 . S
C579 C578 1.369 . S
C579 C580 1.410 . S
C579 C587 1.503 . S
C580 C579 1.410 . S
C580 C581 1.392 . S
C580 C583 1.511 1_455 S
C581 C577 1.376 . S
C581 C580 1.392 . S
C581 H593 0.929 . S
C582 C578 1.531 . S
C582 H594 0.960 . S
C582 H595 0.962 . S
C582 H596 0.960 . S
C583 C580 1.511 1_655 S
C583 H597 0.961 . S
C583 H598 0.961 . S
C583 H599 0.961 . S
C584 C585 1.370 . S
C584 C586 1.363 . S
C584 H600 0.931 . S
C585 C584 1.370 . S
C585 C589 1.408 . S
C586 C584 1.363 . S
C586 C587 1.370 . S
C586 C590 1.524 . S
C587 C579 1.503 . S
C587 C586 1.370 . S
C587 C588 1.403 . S
C588 C587 1.403 . S
C588 C589 1.404 . S
C588 C591 1.539 . S
C589 C585 1.408 . S
C589 C588 1.404 . S
C589 H601 0.930 . S
C590 C586 1.524 . S
C590 H602 0.956 . S
C590 H603 0.961 . S
C590 H604 0.961 . S
C591 C588 1.539 . S
C591 H605 0.958 . S
C591 H606 0.961 . S
C591 H607 0.960 . S
H592 C576 0.931 . S
H593 C581 0.929 . S
H594 C582 0.960 . S
H595 C582 0.962 . S
H596 C582 0.960 . S
H597 C583 0.961 . S
H598 C583 0.961 . S
H599 C583 0.961 . S
H600 C584 0.931 . S
H601 C589 0.930 . S
H602 C590 0.956 . S
H603 C590 0.961 . S
H604 C590 0.961 . S
H605 C591 0.958 . S
H606 C591 0.961 . S
H607 C591 0.960 . S
C608 C609 1.391 . S
C608 C610 1.394 . S
C608 H624 0.931 1_455 S
C609 C608 1.391 . S
C609 C613 1.376 . S
C610 C608 1.394 . S
C610 C611 1.369 . S
C610 C614 1.531 . S
C611 C610 1.369 . S
C611 C612 1.410 . S
C611 C619 1.503 . S
C612 C611 1.410 . S
C612 C613 1.392 . S
C612 C615 1.511 . S
C613 C609 1.376 . S
C613 C612 1.392 . S
C613 H625 0.929 . S
C614 C610 1.531 . S
C614 H626 0.960 . S
C614 H627 0.962 1_455 S
C614 H628 0.960 . S
C615 C612 1.511 . S
C615 H629 0.961 . S
C615 H630 0.961 . S
C615 H631 0.961 . S
C616 C617 1.370 . S
C616 C618 1.363 . S
C616 H632 0.931 . S
C617 C616 1.370 . S
C617 C621 1.408 . S
C618 C616 1.363 . S
C618 C619 1.370 . S
C618 C622 1.524 . S
C619 C611 1.503 . S
C619 C618 1.370 . S
C619 C620 1.403 . S
C620 C619 1.403 . S
C620 C621 1.404 . S
C620 C623 1.539 . S
C621 C617 1.408 . S
C621 C620 1.404 . S
C621 H633 0.930 . S
C622 C618 1.524 . S
C622 H634 0.956 1_455 S
C622 H635 0.961 . S
C622 H636 0.961 . S
C623 C620 1.539 . S
C623 H637 0.958 . S
C623 H638 0.961 . S
C623 H639 0.960 . S
H624 C608 0.931 1_655 S
H625 C613 0.929 . S
H626 C614 0.960 . S
H627 C614 0.962 1_655 S
H628 C614 0.960 . S
H629 C615 0.961 . S
H630 C615 0.961 . S
H631 C615 0.961 . S
H632 C616 0.931 . S
H633 C621 0.930 . S
H634 C622 0.956 1_655 S
H635 C622 0.961 . S
H636 C622 0.961 . S
H637 C623 0.958 . S
H638 C623 0.961 . S
H639 C623 0.960 . S
C640 C641 1.391 . S
C640 C642 1.394 . S
C640 H656 0.931 1_655 S
C641 C640 1.391 . S
C641 C645 1.376 . S
C642 C640 1.394 . S
C642 C643 1.369 . S
C642 C646 1.531 . S
C643 C642 1.369 . S
C643 C644 1.410 . S
C643 C651 1.503 . S
C644 C643 1.410 . S
C644 C645 1.392 . S
C644 C647 1.511 . S
C645 C641 1.376 . S
C645 C644 1.392 . S
C645 H657 0.929 . S
C646 C642 1.531 . S
C646 H658 0.960 . S
C646 H659 0.962 1_655 S
C646 H660 0.960 1_655 S
C647 C644 1.511 . S
C647 H661 0.961 . S
C647 H662 0.961 . S
C647 H663 0.961 . S
C648 C649 1.370 . S
C648 C650 1.363 . S
C648 H664 0.931 . S
C649 C648 1.370 . S
C649 C653 1.408 . S
C650 C648 1.363 . S
C650 C651 1.370 . S
C650 C654 1.524 . S
C651 C643 1.503 . S
C651 C650 1.370 . S
C651 C652 1.403 . S
C652 C651 1.403 . S
C652 C653 1.404 . S
C652 C655 1.539 . S
C653 C649 1.408 . S
C653 C652 1.404 . S
C653 H665 0.930 . S
C654 C650 1.524 . S
C654 H666 0.956 . S
C654 H667 0.961 . S
C654 H668 0.961 . S
C655 C652 1.539 . S
C655 H669 0.958 . S
C655 H670 0.961 . S
C655 H671 0.960 . S
H656 C640 0.931 1_455 S
H657 C645 0.929 . S
H658 C646 0.960 . S
H659 C646 0.962 1_455 S
H660 C646 0.960 1_455 S
H661 C647 0.961 . S
H662 C647 0.961 . S
H663 C647 0.961 . S
H664 C648 0.931 . S
H665 C653 0.930 . S
H666 C654 0.956 . S
H667 C654 0.961 . S
H668 C654 0.961 . S
H669 C655 0.958 . S
H670 C655 0.961 . S
H671 C655 0.960 . S
C672 C673 1.391 . S
C672 C674 1.394 . S
C672 H688 0.931 . S
C673 C672 1.391 . S
C673 C677 1.376 . S
C674 C672 1.394 . S
C674 C675 1.369 . S
C674 C678 1.531 . S
C675 C674 1.369 . S
C675 C676 1.410 . S
C675 C683 1.503 . S
C676 C675 1.410 . S
C676 C677 1.392 . S
C676 C679 1.511 . S
C677 C673 1.376 . S
C677 C676 1.392 . S
C677 H689 0.929 . S
C678 C674 1.531 . S
C678 H690 0.960 . S
C678 H691 0.962 . S
C678 H692 0.960 . S
C679 C676 1.511 . S
C679 H693 0.961 . S
C679 H694 0.961 . S
C679 H695 0.961 . S
C680 C681 1.370 . S
C680 C682 1.363 . S
C680 H696 0.931 1_655 S
C681 C680 1.370 . S
C681 C685 1.408 . S
C682 C680 1.363 . S
C682 C683 1.370 . S
C682 C686 1.524 . S
C683 C675 1.503 . S
C683 C682 1.370 . S
C683 C684 1.403 . S
C684 C683 1.403 . S
C684 C685 1.404 . S
C684 C687 1.539 . S
C685 C681 1.408 . S
C685 C684 1.404 . S
C685 H697 0.930 . S
C686 C682 1.524 . S
C686 H698 0.956 1_655 S
C686 H699 0.961 . S
C686 H700 0.961 1_655 S
C687 C684 1.539 . S
C687 H701 0.958 . S
C687 H702 0.961 . S
C687 H703 0.960 . S
H688 C672 0.931 . S
H689 C677 0.929 . S
H690 C678 0.960 . S
H691 C678 0.962 . S
H692 C678 0.960 . S
H693 C679 0.961 . S
H694 C679 0.961 . S
H695 C679 0.961 . S
H696 C680 0.931 1_455 S
H697 C685 0.930 . S
H698 C686 0.956 1_455 S
H699 C686 0.961 . S
H700 C686 0.961 1_455 S
H701 C687 0.958 . S
H702 C687 0.961 . S
H703 C687 0.960 . S
C704 C705 1.391 . S
C704 C706 1.394 . S
C704 H720 0.931 . S
C705 C704 1.391 . S
C705 C709 1.376 . S
C706 C704 1.394 . S
C706 C707 1.369 . S
C706 C710 1.531 . S
C707 C706 1.369 . S
C707 C708 1.410 . S
C707 C715 1.503 . S
C708 C707 1.410 . S
C708 C709 1.392 . S
C708 C711 1.511 . S
C709 C705 1.376 . S
C709 C708 1.392 . S
C709 H721 0.929 . S
C710 C706 1.531 . S
C710 H722 0.960 . S
C710 H723 0.962 . S
C710 H724 0.960 . S
C711 C708 1.511 . S
C711 H725 0.961 . S
C711 H726 0.961 . S
C711 H727 0.961 . S
C712 C713 1.370 . S
C712 C714 1.363 . S
C712 H728 0.931 . S
C713 C712 1.370 . S
C713 C717 1.408 . S
C714 C712 1.363 . S
C714 C715 1.370 . S
C714 C718 1.524 . S
C715 C707 1.503 . S
C715 C714 1.370 . S
C715 C716 1.403 . S
C716 C715 1.403 . S
C716 C717 1.404 . S
C716 C719 1.539 . S
C717 C713 1.408 . S
C717 C716 1.404 . S
C717 H729 0.930 . S
C718 C714 1.524 . S
C718 H730 0.956 . S
C718 H731 0.961 . S
C718 H732 0.961 . S
C719 C716 1.539 . S
C719 H733 0.958 . S
C719 H734 0.961 . S
C719 H735 0.960 . S
H720 C704 0.931 . S
H721 C709 0.929 . S
H722 C710 0.960 . S
H723 C710 0.962 . S
H724 C710 0.960 . S
H725 C711 0.961 . S
H726 C711 0.961 . S
H727 C711 0.961 . S
H728 C712 0.931 . S
H729 C717 0.930 . S
H730 C718 0.956 . S
H731 C718 0.961 . S
H732 C718 0.961 . S
H733 C719 0.958 . S
H734 C719 0.961 . S
H735 C719 0.960 . S
C736 C737 1.391 . S
C736 C738 1.394 . S
C736 H752 0.931 . S
C737 C736 1.391 . S
C737 C741 1.376 . S
C738 C736 1.394 . S
C738 C739 1.369 . S
C738 C742 1.531 . S
C739 C738 1.369 . S
C739 C740 1.410 . S
C739 C747 1.503 . S
C740 C739 1.410 . S
C740 C741 1.392 . S
C740 C743 1.511 . S
C741 C737 1.376 . S
C741 C740 1.392 . S
C741 H753 0.929 . S
C742 C738 1.531 . S
C742 H754 0.960 . S
C742 H755 0.962 . S
C742 H756 0.960 . S
C743 C740 1.511 . S
C743 H757 0.961 . S
C743 H758 0.961 . S
C743 H759 0.961 . S
C744 C745 1.370 . S
C744 C746 1.363 . S
C744 H760 0.931 . S
C745 C744 1.370 . S
C745 C749 1.408 . S
C746 C744 1.363 . S
C746 C747 1.370 . S
C746 C750 1.524 . S
C747 C739 1.503 . S
C747 C746 1.370 . S
C747 C748 1.403 . S
C748 C747 1.403 . S
C748 C749 1.404 . S
C748 C751 1.539 . S
C749 C745 1.408 . S
C749 C748 1.404 . S
C749 H761 0.930 . S
C750 C746 1.524 . S
C750 H762 0.956 . S
C750 H763 0.961 . S
C750 H764 0.961 . S
C751 C748 1.539 . S
C751 H765 0.958 . S
C751 H766 0.961 . S
C751 H767 0.960 . S
H752 C736 0.931 . S
H753 C741 0.929 . S
H754 C742 0.960 . S
H755 C742 0.962 . S
H756 C742 0.960 . S
H757 C743 0.961 . S
H758 C743 0.961 . S
H759 C743 0.961 . S
H760 C744 0.931 . S
H761 C749 0.930 . S
H762 C750 0.956 . S
H763 C750 0.961 . S
H764 C750 0.961 . S
H765 C751 0.958 . S
H766 C751 0.961 . S
H767 C751 0.960 . S
C768 C769 1.391 . S
C768 C770 1.394 . S
C768 H784 0.931 . S
C769 C768 1.391 . S
C769 C773 1.376 . S
C770 C768 1.394 . S
C770 C771 1.369 . S
C770 C774 1.531 . S
C771 C770 1.369 . S
C771 C772 1.410 . S
C771 C779 1.503 . S
C772 C771 1.410 . S
C772 C773 1.392 . S
C772 C775 1.511 . S
C773 C769 1.376 . S
C773 C772 1.392 . S
C773 H785 0.929 . S
C774 C770 1.531 . S
C774 H786 0.960 . S
C774 H787 0.962 . S
C774 H788 0.960 . S
C775 C772 1.511 . S
C775 H789 0.961 . S
C775 H790 0.961 . S
C775 H791 0.961 . S
C776 C777 1.370 . S
C776 C778 1.363 . S
C776 H792 0.931 . S
C777 C776 1.370 . S
C777 C781 1.408 . S
C778 C776 1.363 . S
C778 C779 1.370 . S
C778 C782 1.524 . S
C779 C771 1.503 . S
C779 C778 1.370 . S
C779 C780 1.403 . S
C780 C779 1.403 . S
C780 C781 1.404 . S
C780 C783 1.539 . S
C781 C777 1.408 . S
C781 C780 1.404 . S
C781 H793 0.930 . S
C782 C778 1.524 . S
C782 H794 0.956 . S
C782 H795 0.961 . S
C782 H796 0.961 . S
C783 C780 1.539 . S
C783 H797 0.958 . S
C783 H798 0.961 . S
C783 H799 0.960 . S
H784 C768 0.931 . S
H785 C773 0.929 . S
H786 C774 0.960 . S
H787 C774 0.962 . S
H788 C774 0.960 . S
H789 C775 0.961 . S
H790 C775 0.961 . S
H791 C775 0.961 . S
H792 C776 0.931 . S
H793 C781 0.930 . S
H794 C782 0.956 . S
H795 C782 0.961 . S
H796 C782 0.961 . S
H797 C783 0.958 . S
H798 C783 0.961 . S
H799 C783 0.960 . S
C800 C801 1.391 . S
C800 C802 1.394 . S
C800 H816 0.931 . S
C801 C800 1.391 . S
C801 C805 1.376 . S
C802 C800 1.394 . S
C802 C803 1.369 . S
C802 C806 1.531 . S
C803 C802 1.369 . S
C803 C804 1.410 . S
C803 C811 1.503 . S
C804 C803 1.410 . S
C804 C805 1.392 . S
C804 C807 1.511 . S
C805 C801 1.376 . S
C805 C804 1.392 . S
C805 H817 0.929 . S
C806 C802 1.531 . S
C806 H818 0.960 . S
C806 H819 0.962 . S
C806 H820 0.960 . S
C807 C804 1.511 . S
C807 H821 0.961 . S
C807 H822 0.961 . S
C807 H823 0.961 . S
C808 C809 1.370 . S
C808 C810 1.363 . S
C808 H824 0.931 . S
C809 C808 1.370 . S
C809 C813 1.408 . S
C810 C808 1.363 . S
C810 C811 1.370 . S
C810 C814 1.524 . S
C811 C803 1.503 . S
C811 C810 1.370 . S
C811 C812 1.403 . S
C812 C811 1.403 . S
C812 C813 1.404 . S
C812 C815 1.539 . S
C813 C809 1.408 . S
C813 C812 1.404 . S
C813 H825 0.930 . S
C814 C810 1.524 . S
C814 H826 0.956 . S
C814 H827 0.961 . S
C814 H828 0.961 . S
C815 C812 1.539 . S
C815 H829 0.958 . S
C815 H830 0.961 . S
C815 H831 0.960 . S
H816 C800 0.931 . S
H817 C805 0.929 . S
H818 C806 0.960 . S
H819 C806 0.962 . S
H820 C806 0.960 . S
H821 C807 0.961 . S
H822 C807 0.961 . S
H823 C807 0.961 . S
H824 C808 0.931 . S
H825 C813 0.930 . S
H826 C814 0.956 . S
H827 C814 0.961 . S
H828 C814 0.961 . S
H829 C815 0.958 . S
H830 C815 0.961 . S
H831 C815 0.960 . S
C832 C833 1.391 . S
C832 C834 1.394 . S
C832 H848 0.931 . S
C833 C832 1.391 . S
C833 C837 1.376 . S
C834 C832 1.394 . S
C834 C835 1.369 . S
C834 C838 1.531 . S
C835 C834 1.369 . S
C835 C836 1.410 . S
C835 C843 1.503 . S
C836 C835 1.410 . S
C836 C837 1.392 . S
C836 C839 1.511 . S
C837 C833 1.376 . S
C837 C836 1.392 . S
C837 H849 0.929 . S
C838 C834 1.531 . S
C838 H850 0.960 . S
C838 H851 0.962 . S
C838 H852 0.960 . S
C839 C836 1.511 . S
C839 H853 0.961 . S
C839 H854 0.961 . S
C839 H855 0.961 . S
C840 C841 1.370 . S
C840 C842 1.363 . S
C840 H856 0.931 . S
C841 C840 1.370 . S
C841 C845 1.408 . S
C842 C840 1.363 . S
C842 C843 1.370 . S
C842 C846 1.524 . S
C843 C835 1.503 . S
C843 C842 1.370 . S
C843 C844 1.403 . S
C844 C843 1.403 . S
C844 C845 1.404 . S
C844 C847 1.539 . S
C845 C841 1.408 . S
C845 C844 1.404 . S
C845 H857 0.930 . S
C846 C842 1.524 . S
C846 H858 0.956 . S
C846 H859 0.961 . S
C846 H860 0.961 . S
C847 C844 1.539 . S
C847 H861 0.958 . S
C847 H862 0.961 . S
C847 H863 0.960 . S
H848 C832 0.931 . S
H849 C837 0.929 . S
H850 C838 0.960 . S
H851 C838 0.962 . S
H852 C838 0.960 . S
H853 C839 0.961 . S
H854 C839 0.961 . S
H855 C839 0.961 . S
H856 C840 0.931 . S
H857 C845 0.930 . S
H858 C846 0.956 . S
H859 C846 0.961 . S
H860 C846 0.961 . S
H861 C847 0.958 . S
H862 C847 0.961 . S
H863 C847 0.960 . S
C864 C865 1.391 . S
C864 C866 1.394 . S
C864 H880 0.931 . S
C865 C864 1.391 . S
C865 C869 1.376 . S
C866 C864 1.394 . S
C866 C867 1.369 . S
C866 C870 1.531 . S
C867 C866 1.369 . S
C867 C868 1.410 . S
C867 C875 1.503 . S
C868 C867 1.410 . S
C868 C869 1.392 . S
C868 C871 1.511 . S
C869 C865 1.376 . S
C869 C868 1.392 . S
C869 H881 0.929 . S
C870 C866 1.531 . S
C870 H882 0.960 . S
C870 H883 0.962 . S
C870 H884 0.960 . S
C871 C868 1.511 . S
C871 H885 0.961 . S
C871 H886 0.961 . S
C871 H887 0.961 . S
C872 C873 1.370 . S
C872 C874 1.363 . S
C872 H888 0.931 . S
C873 C872 1.370 . S
C873 C877 1.408 . S
C874 C872 1.363 . S
C874 C875 1.370 . S
C874 C878 1.524 . S
C875 C867 1.503 . S
C875 C874 1.370 . S
C875 C876 1.403 . S
C876 C875 1.403 . S
C876 C877 1.404 . S
C876 C879 1.539 . S
C877 C873 1.408 . S
C877 C876 1.404 . S
C877 H889 0.930 . S
C878 C874 1.524 . S
C878 H890 0.956 . S
C878 H891 0.961 . S
C878 H892 0.961 . S
C879 C876 1.539 . S
C879 H893 0.958 . S
C879 H894 0.961 . S
C879 H895 0.960 . S
H880 C864 0.931 . S
H881 C869 0.929 . S
H882 C870 0.960 . S
H883 C870 0.962 . S
H884 C870 0.960 . S
H885 C871 0.961 . S
H886 C871 0.961 . S
H887 C871 0.961 . S
H888 C872 0.931 . S
H889 C877 0.930 . S
H890 C878 0.956 . S
H891 C878 0.961 . S
H892 C878 0.961 . S
H893 C879 0.958 . S
H894 C879 0.961 . S
H895 C879 0.960 . S
C896 C897 1.391 . S
C896 C898 1.394 . S
C896 H912 0.931 . S
C897 C896 1.391 . S
C897 C901 1.376 . S
C898 C896 1.394 . S
C898 C899 1.369 . S
C898 C902 1.531 . S
C899 C898 1.369 . S
C899 C900 1.410 . S
C899 C907 1.503 . S
C900 C899 1.410 . S
C900 C901 1.392 . S
C900 C903 1.511 . S
C901 C897 1.376 . S
C901 C900 1.392 . S
C901 H913 0.929 . S
C902 C898 1.531 . S
C902 H914 0.960 . S
C902 H915 0.962 . S
C902 H916 0.960 . S
C903 C900 1.511 . S
C903 H917 0.961 . S
C903 H918 0.961 . S
C903 H919 0.961 . S
C904 C905 1.370 . S
C904 C906 1.363 . S
C904 H920 0.931 . S
C905 C904 1.370 . S
C905 C909 1.408 . S
C906 C904 1.363 . S
C906 C907 1.370 . S
C906 C910 1.524 . S
C907 C899 1.503 . S
C907 C906 1.370 . S
C907 C908 1.403 . S
C908 C907 1.403 . S
C908 C909 1.404 . S
C908 C911 1.539 . S
C909 C905 1.408 . S
C909 C908 1.404 . S
C909 H921 0.930 . S
C910 C906 1.524 . S
C910 H922 0.956 . S
C910 H923 0.961 . S
C910 H924 0.961 . S
C911 C908 1.539 . S
C911 H925 0.958 . S
C911 H926 0.961 . S
C911 H927 0.960 . S
H912 C896 0.931 . S
H913 C901 0.929 . S
H914 C902 0.960 . S
H915 C902 0.962 . S
H916 C902 0.960 . S
H917 C903 0.961 . S
H918 C903 0.961 . S
H919 C903 0.961 . S
H920 C904 0.931 . S
H921 C909 0.930 . S
H922 C910 0.956 . S
H923 C910 0.961 . S
H924 C910 0.961 . S
H925 C911 0.958 . S
H926 C911 0.961 . S
H927 C911 0.960 . S
C928 C929 1.391 . S
C928 C930 1.394 . S
C928 H944 0.931 . S
C929 C928 1.391 . S
C929 C933 1.376 . S
C930 C928 1.394 . S
C930 C931 1.369 . S
C930 C934 1.531 . S
C931 C930 1.369 . S
C931 C932 1.410 . S
C931 C939 1.503 . S
C932 C931 1.410 . S
C932 C933 1.392 . S
C932 C935 1.511 . S
C933 C929 1.376 . S
C933 C932 1.392 . S
C933 H945 0.929 . S
C934 C930 1.531 . S
C934 H946 0.960 . S
C934 H947 0.962 . S
C934 H948 0.960 . S
C935 C932 1.511 . S
C935 H949 0.961 . S
C935 H950 0.961 . S
C935 H951 0.961 . S
C936 C937 1.370 . S
C936 C938 1.363 . S
C936 H952 0.931 . S
C937 C936 1.370 . S
C937 C941 1.408 . S
C938 C936 1.363 . S
C938 C939 1.370 . S
C938 C942 1.524 . S
C939 C931 1.503 . S
C939 C938 1.370 . S
C939 C940 1.403 . S
C940 C939 1.403 . S
C940 C941 1.404 . S
C940 C943 1.539 . S
C941 C937 1.408 . S
C941 C940 1.404 . S
C941 H953 0.930 . S
C942 C938 1.524 . S
C942 H954 0.956 . S
C942 H955 0.961 . S
C942 H956 0.961 . S
C943 C940 1.539 . S
C943 H957 0.958 . S
C943 H958 0.961 . S
C943 H959 0.960 . S
H944 C928 0.931 . S
H945 C933 0.929 . S
H946 C934 0.960 . S
H947 C934 0.962 . S
H948 C934 0.960 . S
H949 C935 0.961 . S
H950 C935 0.961 . S
H951 C935 0.961 . S
H952 C936 0.931 . S
H953 C941 0.930 . S
H954 C942 0.956 . S
H955 C942 0.961 . S
H956 C942 0.961 . S
H957 C943 0.958 . S
H958 C943 0.961 . S
H959 C943 0.960 . S
C960 C961 1.391 1_554 S
C960 C962 1.398 . S
C960 H976 0.931 . S
C961 C960 1.391 1_556 S
C961 C965 1.376 . S
C962 C960 1.398 . S
C962 C963 1.356 1_554 S
C962 C966 1.541 1_545 S
C963 C962 1.356 1_556 S
C963 C964 1.410 . S
C963 C971 1.503 1_545 S
C964 C963 1.410 . S
C964 C965 1.392 . S
C964 C967 1.511 . S
C965 C961 1.376 . S
C965 C964 1.392 . S
C965 H977 0.929 . S
C966 C962 1.541 1_565 S
C966 H978 0.960 1_554 S
C966 H979 0.962 . S
C966 H980 0.960 . S
C967 C964 1.511 . S
C967 H981 0.961 . S
C967 H982 0.961 . S
C967 H983 0.961 . S
C968 C969 1.370 1_554 S
C968 C970 1.363 . S
C968 H984 0.931 . S
C969 C968 1.370 1_556 S
C969 C973 1.408 . S
C970 C968 1.363 . S
C970 C971 1.370 1_554 S
C970 C974 1.572 . S
C971 C963 1.503 1_565 S
C971 C970 1.370 1_556 S
C971 C972 1.403 . S
C972 C971 1.403 . S
C972 C973 1.404 . S
C972 C975 1.539 . S
C973 C969 1.408 . S
C973 C972 1.404 . S
C973 H985 0.930 . S
C974 C970 1.572 . S
C974 H986 0.964 . S
C974 H987 0.884 1_565 S
C974 H988 0.989 . S
C975 C972 1.539 . S
C975 H989 0.958 . S
C975 H990 0.961 . S
C975 H991 0.960 . S
H976 C960 0.931 . S
H977 C965 0.929 . S
H978 C966 0.960 1_556 S
H979 C966 0.962 . S
H980 C966 0.960 . S
H981 C967 0.961 . S
H982 C967 0.961 . S
H983 C967 0.961 . S
H984 C968 0.931 . S
H985 C973 0.930 . S
H986 C974 0.964 . S
H987 C974 0.884 1_545 S
H988 C974 0.989 . S
H989 C975 0.958 . S
H990 C975 0.961 . S
H991 C975 0.960 . S
C992 C993 1.391 1_556 S
C992 C994 1.394 . S
C992 H1008 0.931 . S
C993 C992 1.391 1_554 S
C993 C997 1.376 . S
C994 C992 1.394 . S
C994 C995 1.369 1_556 S
C994 C998 1.531 . S
C995 C994 1.369 1_554 S
C995 C996 1.410 . S
C995 C1003 1.503 . S
C996 C995 1.410 . S
C996 C997 1.392 . S
C996 C999 1.511 . S
C997 C993 1.376 . S
C997 C996 1.392 . S
C997 H1009 0.929 . S
C998 C994 1.531 . S
C998 H1010 0.960 . S
C998 H1011 0.962 . S
C998 H1012 0.960 . S
C999 C996 1.511 . S
C999 H1013 0.961 . S
C999 H1014 0.961 . S
C999 H1015 0.961 . S
C1000 C1001 1.370 1_556 S
C1000 C1002 1.363 . S
C1000 H1016 0.931 . S
C1001 C1000 1.370 1_554 S
C1001 C1005 1.408 . S
C1002 C1000 1.363 . S
C1002 C1003 1.370 1_556 S
C1002 C1006 1.524 . S
C1003 C995 1.503 . S
C1003 C1002 1.370 1_554 S
C1003 C1004 1.403 . S
C1004 C1003 1.403 . S
C1004 C1005 1.404 . S
C1004 C1007 1.539 . S
C1005 C1001 1.408 . S
C1005 C1004 1.404 . S
C1005 H1017 0.930 . S
C1006 C1002 1.524 . S
C1006 H1018 0.956 . S
C1006 H1019 0.961 . S
C1006 H1020 0.961 . S
C1007 C1004 1.539 . S
C1007 H1021 0.958 . S
C1007 H1022 0.961 . S
C1007 H1023 0.960 . S
H1008 C992 0.931 . S
H1009 C997 0.929 . S
H1010 C998 0.960 . S
H1011 C998 0.962 . S
H1012 C998 0.960 . S
H1013 C999 0.961 . S
H1014 C999 0.961 . S
H1015 C999 0.961 . S
H1016 C1000 0.931 . S
H1017 C1005 0.930 . S
H1018 C1006 0.956 . S
H1019 C1006 0.961 . S
H1020 C1006 0.961 . S
H1021 C1007 0.958 . S
H1022 C1007 0.961 . S
H1023 C1007 0.960 . S
C1024 C1025 1.391 . S
C1024 C1026 1.394 . S
C1024 H1040 0.931 . S
C1025 C1024 1.391 . S
C1025 C1029 1.376 . S
C1026 C1024 1.394 . S
C1026 C1027 1.369 . S
C1026 C1030 1.531 . S
C1027 C1026 1.369 . S
C1027 C1028 1.410 . S
C1027 C1035 1.503 . S
C1028 C1027 1.410 . S
C1028 C1029 1.392 . S
C1028 C1031 1.511 . S
C1029 C1025 1.376 . S
C1029 C1028 1.392 . S
C1029 H1041 0.929 . S
C1030 C1026 1.531 . S
C1030 H1042 0.960 . S
C1030 H1043 0.962 . S
C1030 H1044 0.960 . S
C1031 C1028 1.511 . S
C1031 H1045 0.961 . S
C1031 H1046 0.961 . S
C1031 H1047 0.961 . S
C1032 C1033 1.370 . S
C1032 C1034 1.363 . S
C1032 H1048 0.931 . S
C1033 C1032 1.370 . S
C1033 C1037 1.408 . S
C1034 C1032 1.363 . S
C1034 C1035 1.370 . S
C1034 C1038 1.524 . S
C1035 C1027 1.503 . S
C1035 C1034 1.370 . S
C1035 C1036 1.403 . S
C1036 C1035 1.403 . S
C1036 C1037 1.404 . S
C1036 C1039 1.539 . S
C1037 C1033 1.408 . S
C1037 C1036 1.404 . S
C1037 H1049 0.930 . S
C1038 C1034 1.524 . S
C1038 H1050 0.956 . S
C1038 H1051 0.961 . S
C1038 H1052 0.961 . S
C1039 C1036 1.539 . S
C1039 H1053 0.958 . S
C1039 H1054 0.961 . S
C1039 H1055 0.960 . S
H1040 C1024 0.931 . S
H1041 C1029 0.929 . S
H1042 C1030 0.960 . S
H1043 C1030 0.962 . S
H1044 C1030 0.960 . S
H1045 C1031 0.961 . S
H1046 C1031 0.961 . S
H1047 C1031 0.961 . S
H1048 C1032 0.931 . S
H1049 C1037 0.930 . S
H1050 C1038 0.956 . S
H1051 C1038 0.961 . S
H1052 C1038 0.961 . S
H1053 C1039 0.958 . S
H1054 C1039 0.961 . S
H1055 C1039 0.960 . S
C1056 C1057 1.391 . S
C1056 C1058 1.394 . S
C1056 H1072 0.931 . S
C1057 C1056 1.391 . S
C1057 C1061 1.376 . S
C1058 C1056 1.394 . S
C1058 C1059 1.369 . S
C1058 C1062 1.531 1_565 S
C1059 C1058 1.369 . S
C1059 C1060 1.410 . S
C1059 C1067 1.503 1_565 S
C1060 C1059 1.410 . S
C1060 C1061 1.392 . S
C1060 C1063 1.511 . S
C1061 C1057 1.376 . S
C1061 C1060 1.392 . S
C1061 H1073 0.929 . S
C1062 C1058 1.531 1_545 S
C1062 H1074 0.960 . S
C1062 H1075 0.962 . S
C1062 H1076 0.960 . S
C1063 C1060 1.511 . S
C1063 H1077 0.961 . S
C1063 H1078 0.961 . S
C1063 H1079 0.961 . S
C1064 C1065 1.370 . S
C1064 C1066 1.363 . S
C1064 H1080 0.931 . S
C1065 C1064 1.370 . S
C1065 C1069 1.408 . S
C1066 C1064 1.363 . S
C1066 C1067 1.370 . S
C1066 C1070 1.524 . S
C1067 C1059 1.503 1_545 S
C1067 C1066 1.370 . S
C1067 C1068 1.403 . S
C1068 C1067 1.403 . S
C1068 C1069 1.404 . S
C1068 C1071 1.539 . S
C1069 C1065 1.408 . S
C1069 C1068 1.404 . S
C1069 H1081 0.930 . S
C1070 C1066 1.524 . S
C1070 H1082 0.956 . S
C1070 H1083 0.961 1_545 S
C1070 H1084 0.961 . S
C1071 C1068 1.539 . S
C1071 H1085 0.958 . S
C1071 H1086 0.961 . S
C1071 H1087 0.960 1_545 S
H1072 C1056 0.931 . S
H1073 C1061 0.929 . S
H1074 C1062 0.960 . S
H1075 C1062 0.962 . S
H1076 C1062 0.960 . S
H1077 C1063 0.961 . S
H1078 C1063 0.961 . S
H1079 C1063 0.961 . S
H1080 C1064 0.931 . S
H1081 C1069 0.930 . S
H1082 C1070 0.956 . S
H1083 C1070 0.961 1_565 S
H1084 C1070 0.961 . S
H1085 C1071 0.958 . S
H1086 C1071 0.961 . S
H1087 C1071 0.960 1_565 S
C1088 C1089 1.391 . S
C1088 C1090 1.394 . S
C1088 H1104 0.931 . S
C1089 C1088 1.391 . S
C1089 C1093 1.376 . S
C1090 C1088 1.394 . S
C1090 C1091 1.369 . S
C1090 C1094 1.531 . S
C1091 C1090 1.369 . S
C1091 C1092 1.410 . S
C1091 C1099 1.503 . S
C1092 C1091 1.410 . S
C1092 C1093 1.392 . S
C1092 C1095 1.511 . S
C1093 C1089 1.376 . S
C1093 C1092 1.392 . S
C1093 H1105 0.929 1_556 S
C1094 C1090 1.531 . S
C1094 H1106 0.960 . S
C1094 H1107 0.962 1_556 S
C1094 H1108 0.960 . S
C1095 C1092 1.511 . S
C1095 H1109 0.961 1_556 S
C1095 H1110 0.961 1_556 S
C1095 H1111 0.961 . S
C1096 C1097 1.370 1_554 S
C1096 C1098 1.363 . S
C1096 H1112 0.931 . S
C1097 C1096 1.370 1_556 S
C1097 C1101 1.408 . S
C1098 C1096 1.363 . S
C1098 C1099 1.370 1_554 S
C1098 C1102 1.524 . S
C1099 C1091 1.503 . S
C1099 C1098 1.370 1_556 S
C1099 C1100 1.403 . S
C1100 C1099 1.403 . S
C1100 C1101 1.404 . S
C1100 C1103 1.539 . S
C1101 C1097 1.408 . S
C1101 C1100 1.404 . S
C1101 H1113 0.930 . S
C1102 C1098 1.524 . S
C1102 H1114 0.956 . S
C1102 H1115 0.961 . S
C1102 H1116 0.961 . S
C1103 C1100 1.539 . S
C1103 H1117 0.958 . S
C1103 H1118 0.961 . S
C1103 H1119 0.960 . S
H1104 C1088 0.931 . S
H1105 C1093 0.929 1_554 S
H1106 C1094 0.960 . S
H1107 C1094 0.962 1_554 S
H1108 C1094 0.960 . S
H1109 C1095 0.961 1_554 S
H1110 C1095 0.961 1_554 S
H1111 C1095 0.961 . S
H1112 C1096 0.931 . S
H1113 C1101 0.930 . S
H1114 C1102 0.956 . S
H1115 C1102 0.961 . S
H1116 C1102 0.961 . S
H1117 C1103 0.958 . S
H1118 C1103 0.961 . S
H1119 C1103 0.960 . S
C1120 C1121 1.391 . S
C1120 C1122 1.394 . S
C1120 H1136 0.931 . S
C1121 C1120 1.391 . S
C1121 C1125 1.376 . S
C1122 C1120 1.394 . S
C1122 C1123 1.369 . S
C1122 C1126 1.531 . S
C1123 C1122 1.369 . S
C1123 C1124 1.410 . S
C1123 C1131 1.503 . S
C1124 C1123 1.410 . S
C1124 C1125 1.392 . S
C1124 C1127 1.511 . S
C1125 C1121 1.376 . S
C1125 C1124 1.392 . S
C1125 H1137 0.929 . S
C1126 C1122 1.531 . S
C1126 H1138 0.960 . S
C1126 H1139 0.962 . S
C1126 H1140 0.960 . S
C1127 C1124 1.511 . S
C1127 H1141 0.961 . S
C1127 H1142 0.961 . S
C1127 H1143 0.961 . S
C1128 C1129 1.370 . S
C1128 C1130 1.363 . S
C1128 H1144 0.931 . S
C1129 C1128 1.370 . S
C1129 C1133 1.408 . S
C1130 C1128 1.363 . S
C1130 C1131 1.370 . S
C1130 C1134 1.524 . S
C1131 C1123 1.503 . S
C1131 C1130 1.370 . S
C1131 C1132 1.403 . S
C1132 C1131 1.403 . S
C1132 C1133 1.404 . S
C1132 C1135 1.539 . S
C1133 C1129 1.408 . S
C1133 C1132 1.404 . S
C1133 H1145 0.930 . S
C1134 C1130 1.524 . S
C1134 H1146 0.956 . S
C1134 H1147 0.961 . S
C1134 H1148 0.961 . S
C1135 C1132 1.539 . S
C1135 H1149 0.958 . S
C1135 H1150 0.961 . S
C1135 H1151 0.960 . S
H1136 C1120 0.931 . S
H1137 C1125 0.929 . S
H1138 C1126 0.960 . S
H1139 C1126 0.962 . S
H1140 C1126 0.960 . S
H1141 C1127 0.961 . S
H1142 C1127 0.961 . S
H1143 C1127 0.961 . S
H1144 C1128 0.931 . S
H1145 C1133 0.930 . S
H1146 C1134 0.956 . S
H1147 C1134 0.961 . S
H1148 C1134 0.961 . S
H1149 C1135 0.958 . S
H1150 C1135 0.961 . S
H1151 C1135 0.960 . S
C1152 C1153 1.391 . S
C1152 C1154 1.394 . S
C1152 H1168 0.931 . S
C1153 C1152 1.391 . S
C1153 C1157 1.376 . S
C1154 C1152 1.394 . S
C1154 C1155 1.369 . S
C1154 C1158 1.531 1_565 S
C1155 C1154 1.369 . S
C1155 C1156 1.410 . S
C1155 C1163 1.503 1_565 S
C1156 C1155 1.410 . S
C1156 C1157 1.392 . S
C1156 C1159 1.511 . S
C1157 C1153 1.376 . S
C1157 C1156 1.392 . S
C1157 H1169 0.929 . S
C1158 C1154 1.531 1_545 S
C1158 H1170 0.960 . S
C1158 H1171 0.962 . S
C1158 H1172 0.960 . S
C1159 C1156 1.511 . S
C1159 H1173 0.961 . S
C1159 H1174 0.961 . S
C1159 H1175 0.961 . S
C1160 C1161 1.370 . S
C1160 C1162 1.363 . S
C1160 H1176 0.931 . S
C1161 C1160 1.370 . S
C1161 C1165 1.408 . S
C1162 C1160 1.363 . S
C1162 C1163 1.370 . S
C1162 C1166 1.519 1_545 S
C1163 C1155 1.503 1_545 S
C1163 C1162 1.370 . S
C1163 C1164 1.403 . S
C1164 C1163 1.403 . S
C1164 C1165 1.404 . S
C1164 C1167 1.539 . S
C1165 C1161 1.408 . S
C1165 C1164 1.404 . S
C1165 H1177 0.930 . S
C1166 C1162 1.519 1_565 S
C1166 H1178 0.955 1_565 S
C1166 H1179 0.968 . S
C1166 H1180 0.958 1_565 S
C1167 C1164 1.539 . S
C1167 H1181 0.958 . S
C1167 H1182 0.961 . S
C1167 H1183 0.960 . S
H1168 C1152 0.931 . S
H1169 C1157 0.929 . S
H1170 C1158 0.960 . S
H1171 C1158 0.962 . S
H1172 C1158 0.960 . S
H1173 C1159 0.961 . S
H1174 C1159 0.961 . S
H1175 C1159 0.961 . S
H1176 C1160 0.931 . S
H1177 C1165 0.930 . S
H1178 C1166 0.955 1_545 S
H1179 C1166 0.968 . S
H1180 C1166 0.958 1_545 S
H1181 C1167 0.958 . S
H1182 C1167 0.961 . S
H1183 C1167 0.960 . S
C1184 C1185 1.391 . S
C1184 C1186 1.394 . S
C1184 H1200 0.931 . S
C1185 C1184 1.391 . S
C1185 C1189 1.376 . S
C1186 C1184 1.394 . S
C1186 C1187 1.369 . S
C1186 C1190 1.531 . S
C1187 C1186 1.369 . S
C1187 C1188 1.410 . S
C1187 C1195 1.503 . S
C1188 C1187 1.410 . S
C1188 C1189 1.392 . S
C1188 C1191 1.511 . S
C1189 C1185 1.376 . S
C1189 C1188 1.392 . S
C1189 H1201 0.929 . S
C1190 C1186 1.531 . S
C1190 H1202 0.960 . S
C1190 H1203 0.962 . S
C1190 H1204 0.960 . S
C1191 C1188 1.511 . S
C1191 H1205 0.961 . S
C1191 H1206 0.961 . S
C1191 H1207 0.961 . S
C1192 C1193 1.370 . S
C1192 C1194 1.363 . S
C1192 H1208 0.931 . S
C1193 C1192 1.370 . S
C1193 C1197 1.408 . S
C1194 C1192 1.363 . S
C1194 C1195 1.370 . S
C1194 C1198 1.524 . S
C1195 C1187 1.503 . S
C1195 C1194 1.370 . S
C1195 C1196 1.403 . S
C1196 C1195 1.403 . S
C1196 C1197 1.404 . S
C1196 C1199 1.539 . S
C1197 C1193 1.408 . S
C1197 C1196 1.404 . S
C1197 H1209 0.930 . S
C1198 C1194 1.524 . S
C1198 H1210 0.956 . S
C1198 H1211 0.961 . S
C1198 H1212 0.961 . S
C1199 C1196 1.539 . S
C1199 H1213 0.958 . S
C1199 H1214 0.961 . S
C1199 H1215 0.960 . S
H1200 C1184 0.931 . S
H1201 C1189 0.929 . S
H1202 C1190 0.960 . S
H1203 C1190 0.962 . S
H1204 C1190 0.960 . S
H1205 C1191 0.961 . S
H1206 C1191 0.961 . S
H1207 C1191 0.961 . S
H1208 C1192 0.931 . S
H1209 C1197 0.930 . S
H1210 C1198 0.956 . S
H1211 C1198 0.961 . S
H1212 C1198 0.961 . S
H1213 C1199 0.958 . S
H1214 C1199 0.961 . S
H1215 C1199 0.960 . S
C1216 C1217 1.391 . S
C1216 C1218 1.394 . S
C1216 H1232 0.931 . S
C1217 C1216 1.391 . S
C1217 C1221 1.376 . S
C1218 C1216 1.394 . S
C1218 C1219 1.369 . S
C1218 C1222 1.531 . S
C1219 C1218 1.369 . S
C1219 C1220 1.410 . S
C1219 C1227 1.503 . S
C1220 C1219 1.410 . S
C1220 C1221 1.392 . S
C1220 C1223 1.511 . S
C1221 C1217 1.376 . S
C1221 C1220 1.392 . S
C1221 H1233 0.929 . S
C1222 C1218 1.531 . S
C1222 H1234 0.960 . S
C1222 H1235 0.962 . S
C1222 H1236 0.960 . S
C1223 C1220 1.511 . S
C1223 H1237 0.961 . S
C1223 H1238 0.961 . S
C1223 H1239 0.961 . S
C1224 C1225 1.370 . S
C1224 C1226 1.363 . S
C1224 H1240 0.931 . S
C1225 C1224 1.370 . S
C1225 C1229 1.408 . S
C1226 C1224 1.363 . S
C1226 C1227 1.370 . S
C1226 C1230 1.524 . S
C1227 C1219 1.503 . S
C1227 C1226 1.370 . S
C1227 C1228 1.403 . S
C1228 C1227 1.403 . S
C1228 C1229 1.404 . S
C1228 C1231 1.539 . S
C1229 C1225 1.408 . S
C1229 C1228 1.404 . S
C1229 H1241 0.930 . S
C1230 C1226 1.524 . S
C1230 H1242 0.956 . S
C1230 H1243 0.961 . S
C1230 H1244 0.961 . S
C1231 C1228 1.539 . S
C1231 H1245 0.958 . S
C1231 H1246 0.961 . S
C1231 H1247 0.960 . S
H1232 C1216 0.931 . S
H1233 C1221 0.929 . S
H1234 C1222 0.960 . S
H1235 C1222 0.962 . S
H1236 C1222 0.960 . S
H1237 C1223 0.961 . S
H1238 C1223 0.961 . S
H1239 C1223 0.961 . S
H1240 C1224 0.931 . S
H1241 C1229 0.930 . S
H1242 C1230 0.956 . S
H1243 C1230 0.961 . S
H1244 C1230 0.961 . S
H1245 C1231 0.958 . S
H1246 C1231 0.961 . S
H1247 C1231 0.960 . S
C1248 C1249 1.391 . S
C1248 C1250 1.394 . S
C1248 H1264 0.931 . S
C1249 C1248 1.391 . S
C1249 C1253 1.376 . S
C1250 C1248 1.394 . S
C1250 C1251 1.369 . S
C1250 C1254 1.531 . S
C1251 C1250 1.369 . S
C1251 C1252 1.410 . S
C1251 C1259 1.503 . S
C1252 C1251 1.410 . S
C1252 C1253 1.392 . S
C1252 C1255 1.511 . S
C1253 C1249 1.376 . S
C1253 C1252 1.392 . S
C1253 H1265 0.929 . S
C1254 C1250 1.531 . S
C1254 H1266 0.960 . S
C1254 H1267 0.962 . S
C1254 H1268 0.960 . S
C1255 C1252 1.511 . S
C1255 H1269 0.961 . S
C1255 H1270 0.961 . S
C1255 H1271 0.961 . S
C1256 C1257 1.370 . S
C1256 C1258 1.363 . S
C1256 H1272 0.931 . S
C1257 C1256 1.370 . S
C1257 C1261 1.408 . S
C1258 C1256 1.363 . S
C1258 C1259 1.370 . S
C1258 C1262 1.524 . S
C1259 C1251 1.503 . S
C1259 C1258 1.370 . S
C1259 C1260 1.403 . S
C1260 C1259 1.403 . S
C1260 C1261 1.404 . S
C1260 C1263 1.539 . S
C1261 C1257 1.408 . S
C1261 C1260 1.404 . S
C1261 H1273 0.930 . S
C1262 C1258 1.524 . S
C1262 H1274 0.956 . S
C1262 H1275 0.961 . S
C1262 H1276 0.961 . S
C1263 C1260 1.539 . S
C1263 H1277 0.958 . S
C1263 H1278 0.961 . S
C1263 H1279 0.960 . S
H1264 C1248 0.931 . S
H1265 C1253 0.929 . S
H1266 C1254 0.960 . S
H1267 C1254 0.962 . S
H1268 C1254 0.960 . S
H1269 C1255 0.961 . S
H1270 C1255 0.961 . S
H1271 C1255 0.961 . S
H1272 C1256 0.931 . S
H1273 C1261 0.930 . S
H1274 C1262 0.956 . S
H1275 C1262 0.961 . S
H1276 C1262 0.961 . S
H1277 C1263 0.958 . S
H1278 C1263 0.961 . S
H1279 C1263 0.960 . S
C1280 C1281 1.391 . S
C1280 C1282 1.394 . S
C1280 H1296 0.931 . S
C1281 C1280 1.391 . S
C1281 C1285 1.376 . S
C1282 C1280 1.394 . S
C1282 C1283 1.369 . S
C1282 C1286 1.531 . S
C1283 C1282 1.369 . S
C1283 C1284 1.410 . S
C1283 C1291 1.503 . S
C1284 C1283 1.410 . S
C1284 C1285 1.392 . S
C1284 C1287 1.511 . S
C1285 C1281 1.376 . S
C1285 C1284 1.392 . S
C1285 H1297 0.929 . S
C1286 C1282 1.531 . S
C1286 H1298 0.960 . S
C1286 H1299 0.962 . S
C1286 H1300 0.960 . S
C1287 C1284 1.511 . S
C1287 H1301 0.961 . S
C1287 H1302 0.961 . S
C1287 H1303 0.961 . S
C1288 C1289 1.370 . S
C1288 C1290 1.363 . S
C1288 H1304 0.931 . S
C1289 C1288 1.370 . S
C1289 C1293 1.408 . S
C1290 C1288 1.363 . S
C1290 C1291 1.370 . S
C1290 C1294 1.524 . S
C1291 C1283 1.503 . S
C1291 C1290 1.370 . S
C1291 C1292 1.403 . S
C1292 C1291 1.403 . S
C1292 C1293 1.404 . S
C1292 C1295 1.539 . S
C1293 C1289 1.408 . S
C1293 C1292 1.404 . S
C1293 H1305 0.930 . S
C1294 C1290 1.524 . S
C1294 H1306 0.956 . S
C1294 H1307 0.961 . S
C1294 H1308 0.961 . S
C1295 C1292 1.539 . S
C1295 H1309 0.958 . S
C1295 H1310 0.961 . S
C1295 H1311 0.960 . S
H1296 C1280 0.931 . S
H1297 C1285 0.929 . S
H1298 C1286 0.960 . S
H1299 C1286 0.962 . S
H1300 C1286 0.960 . S
H1301 C1287 0.961 . S
H1302 C1287 0.961 . S
H1303 C1287 0.961 . S
H1304 C1288 0.931 . S
H1305 C1293 0.930 . S
H1306 C1294 0.956 . S
H1307 C1294 0.961 . S
H1308 C1294 0.961 . S
H1309 C1295 0.958 . S
H1310 C1295 0.961 . S
H1311 C1295 0.960 . S
C1312 C1313 1.391 . S
C1312 C1314 1.394 . S
C1312 H1328 0.931 . S
C1313 C1312 1.391 . S
C1313 C1317 1.376 . S
C1314 C1312 1.394 . S
C1314 C1315 1.369 . S
C1314 C1318 1.531 . S
C1315 C1314 1.369 . S
C1315 C1316 1.410 . S
C1315 C1323 1.503 . S
C1316 C1315 1.410 . S
C1316 C1317 1.392 . S
C1316 C1319 1.511 . S
C1317 C1313 1.376 . S
C1317 C1316 1.392 . S
C1317 H1329 0.929 . S
C1318 C1314 1.531 . S
C1318 H1330 0.960 . S
C1318 H1331 0.962 . S
C1318 H1332 0.960 . S
C1319 C1316 1.511 . S
C1319 H1333 0.961 . S
C1319 H1334 0.961 . S
C1319 H1335 0.961 . S
C1320 C1321 1.370 . S
C1320 C1322 1.363 . S
C1320 H1336 0.931 . S
C1321 C1320 1.370 . S
C1321 C1325 1.408 . S
C1322 C1320 1.363 . S
C1322 C1323 1.370 . S
C1322 C1326 1.524 . S
C1323 C1315 1.503 . S
C1323 C1322 1.370 . S
C1323 C1324 1.403 . S
C1324 C1323 1.403 . S
C1324 C1325 1.404 . S
C1324 C1327 1.539 . S
C1325 C1321 1.408 . S
C1325 C1324 1.404 . S
C1325 H1337 0.930 . S
C1326 C1322 1.524 . S
C1326 H1338 0.956 . S
C1326 H1339 0.961 . S
C1326 H1340 0.961 . S
C1327 C1324 1.539 . S
C1327 H1341 0.958 . S
C1327 H1342 0.961 . S
C1327 H1343 0.960 . S
H1328 C1312 0.931 . S
H1329 C1317 0.929 . S
H1330 C1318 0.960 . S
H1331 C1318 0.962 . S
H1332 C1318 0.960 . S
H1333 C1319 0.961 . S
H1334 C1319 0.961 . S
H1335 C1319 0.961 . S
H1336 C1320 0.931 . S
H1337 C1325 0.930 . S
H1338 C1326 0.956 . S
H1339 C1326 0.961 . S
H1340 C1326 0.961 . S
H1341 C1327 0.958 . S
H1342 C1327 0.961 . S
H1343 C1327 0.960 . S
C1344 C1345 1.391 . S
C1344 C1346 1.394 1_455 S
C1344 H1360 0.931 . S
C1345 C1344 1.391 . S
C1345 C1349 1.376 . S
C1346 C1344 1.394 1_655 S
C1346 C1347 1.369 1_655 S
C1346 C1350 1.531 . S
C1347 C1346 1.369 1_455 S
C1347 C1348 1.410 . S
C1347 C1355 1.503 1_465 S
C1348 C1347 1.410 . S
C1348 C1349 1.392 . S
C1348 C1351 1.511 1_565 S
C1349 C1345 1.376 . S
C1349 C1348 1.392 . S
C1349 H1361 0.929 . S
C1350 C1346 1.531 . S
C1350 H1362 0.960 . S
C1350 H1363 0.962 . S
C1350 H1364 0.960 . S
C1351 C1348 1.511 1_545 S
C1351 H1365 0.961 . S
C1351 H1366 0.961 . S
C1351 H1367 0.961 . S
C1352 C1353 1.370 . S
C1352 C1354 1.363 . S
C1352 H1368 0.931 . S
C1353 C1352 1.370 . S
C1353 C1357 1.408 . S
C1354 C1352 1.363 . S
C1354 C1355 1.370 . S
C1354 C1358 1.524 1_655 S
C1355 C1347 1.503 1_645 S
C1355 C1354 1.370 . S
C1355 C1356 1.403 . S
C1356 C1355 1.403 . S
C1356 C1357 1.404 . S
C1356 C1359 1.539 1_545 S
C1357 C1353 1.408 . S
C1357 C1356 1.404 . S
C1357 H1369 0.930 . S
C1358 C1354 1.524 1_455 S
C1358 H1370 0.956 . S
C1358 H1371 0.961 . S
C1358 H1372 0.961 . S
C1359 C1356 1.539 1_565 S
C1359 H1373 0.958 . S
C1359 H1374 0.961 1_565 S
C1359 H1375 0.960 . S
H1360 C1344 0.931 . S
H1361 C1349 0.929 . S
H1362 C1350 0.960 . S
H1363 C1350 0.962 . S
H1364 C1350 0.960 . S
H1365 C1351 0.961 . S
H1366 C1351 0.961 . S
H1367 C1351 0.961 . S
H1368 C1352 0.931 . S
H1369 C1357 0.930 . S
H1370 C1358 0.956 . S
H1371 C1358 0.961 . S
H1372 C1358 0.961 . S
H1373 C1359 0.958 . S
H1374 C1359 0.961 1_545 S
H1375 C1359 0.960 . S
C1376 C1377 1.391 . S
C1376 C1378 1.394 1_655 S
C1376 H1392 0.931 . S
C1377 C1376 1.391 . S
C1377 C1381 1.376 . S
C1378 C1376 1.394 1_455 S
C1378 C1379 1.369 1_455 S
C1378 C1382 1.531 . S
C1379 C1378 1.369 1_655 S
C1379 C1380 1.410 . S
C1379 C1387 1.503 1_655 S
C1380 C1379 1.410 . S
C1380 C1381 1.392 . S
C1380 C1383 1.511 . S
C1381 C1377 1.376 . S
C1381 C1380 1.392 . S
C1381 H1393 0.929 . S
C1382 C1378 1.531 . S
C1382 H1394 0.960 . S
C1382 H1395 0.962 . S
C1382 H1396 0.960 . S
C1383 C1380 1.511 . S
C1383 H1397 0.961 . S
C1383 H1398 0.961 . S
C1383 H1399 0.961 . S
C1384 C1385 1.370 . S
C1384 C1386 1.363 . S
C1384 H1400 0.931 . S
C1385 C1384 1.370 . S
C1385 C1389 1.408 . S
C1386 C1384 1.363 . S
C1386 C1387 1.370 . S
C1386 C1390 1.524 . S
C1387 C1379 1.503 1_455 S
C1387 C1386 1.370 . S
C1387 C1388 1.403 . S
C1388 C1387 1.403 . S
C1388 C1389 1.404 . S
C1388 C1391 1.539 . S
C1389 C1385 1.408 . S
C1389 C1388 1.404 . S
C1389 H1401 0.930 . S
C1390 C1386 1.524 . S
C1390 H1402 0.956 . S
C1390 H1403 0.961 1_455 S
C1390 H1404 0.961 . S
C1391 C1388 1.539 . S
C1391 H1405 0.958 . S
C1391 H1406 0.961 . S
C1391 H1407 0.960 1_455 S
H1392 C1376 0.931 . S
H1393 C1381 0.929 . S
H1394 C1382 0.960 . S
H1395 C1382 0.962 . S
H1396 C1382 0.960 . S
H1397 C1383 0.961 . S
H1398 C1383 0.961 . S
H1399 C1383 0.961 . S
H1400 C1384 0.931 . S
H1401 C1389 0.930 . S
H1402 C1390 0.956 . S
H1403 C1390 0.961 1_655 S
H1404 C1390 0.961 . S
H1405 C1391 0.958 . S
H1406 C1391 0.961 . S
H1407 C1391 0.960 1_655 S
C1408 C1409 1.391 . S
C1408 C1410 1.394 . S
C1408 H1424 0.931 . S
C1409 C1408 1.391 . S
C1409 C1413 1.376 . S
C1410 C1408 1.394 . S
C1410 C1411 1.369 . S
C1410 C1414 1.531 . S
C1411 C1410 1.369 . S
C1411 C1412 1.411 . S
C1411 C1419 1.503 1_455 S
C1412 C1411 1.411 . S
C1412 C1413 1.395 . S
C1412 C1415 1.507 1_455 S
C1413 C1409 1.376 . S
C1413 C1412 1.395 . S
C1413 H1425 0.929 . S
C1414 C1410 1.531 . S
C1414 H1426 0.960 . S
C1414 H1427 0.962 . S
C1414 H1428 0.960 . S
C1415 C1412 1.507 1_655 S
C1415 H1429 0.961 . S
C1415 H1430 0.961 . S
C1415 H1431 0.961 . S
C1416 C1417 1.370 . S
C1416 C1418 1.363 . S
C1416 H1432 0.931 . S
C1417 C1416 1.370 . S
C1417 C1421 1.408 . S
C1418 C1416 1.363 . S
C1418 C1419 1.370 . S
C1418 C1422 1.524 . S
C1419 C1411 1.503 1_655 S
C1419 C1418 1.370 . S
C1419 C1420 1.403 . S
C1420 C1419 1.403 . S
C1420 C1421 1.404 . S
C1420 C1423 1.539 1_655 S
C1421 C1417 1.408 . S
C1421 C1420 1.404 . S
C1421 H1433 0.930 . S
C1422 C1418 1.524 . S
C1422 H1434 0.956 . S
C1422 H1435 0.961 . S
C1422 H1436 0.961 . S
C1423 C1420 1.539 1_455 S
C1423 H1437 0.958 . S
C1423 H1438 0.961 1_455 S
C1423 H1439 0.960 . S
H1424 C1408 0.931 . S
H1425 C1413 0.929 . S
H1426 C1414 0.960 . S
H1427 C1414 0.962 . S
H1428 C1414 0.960 . S
H1429 C1415 0.961 . S
H1430 C1415 0.961 . S
H1431 C1415 0.961 . S
H1432 C1416 0.931 . S
H1433 C1421 0.930 . S
H1434 C1422 0.956 . S
H1435 C1422 0.961 . S
H1436 C1422 0.961 . S
H1437 C1423 0.958 . S
H1438 C1423 0.961 1_655 S
H1439 C1423 0.960 . S
C1440 C1441 1.391 . S
C1440 C1442 1.394 . S
C1440 H1456 0.931 . S
C1441 C1440 1.391 . S
C1441 C1445 1.376 . S
C1442 C1440 1.394 . S
C1442 C1443 1.369 . S
C1442 C1446 1.531 . S
C1443 C1442 1.369 . S
C1443 C1444 1.410 1_455 S
C1443 C1451 1.503 1_455 S
C1444 C1443 1.410 1_655 S
C1444 C1445 1.392 1_655 S
C1444 C1447 1.511 . S
C1445 C1441 1.376 . S
C1445 C1444 1.392 1_455 S
C1445 H1457 0.929 . S
C1446 C1442 1.531 . S
C1446 H1458 0.960 . S
C1446 H1459 0.962 1_556 S
C1446 H1460 0.960 . S
C1447 C1444 1.511 . S
C1447 H1461 0.961 . S
C1447 H1462 0.961 . S
C1447 H1463 0.961 . S
C1448 C1449 1.351 1_554 S
C1448 C1450 1.363 . S
C1448 H1464 0.931 . S
C1449 C1448 1.351 1_556 S
C1449 C1453 1.430 . S
C1450 C1448 1.363 . S
C1450 C1451 1.370 1_554 S
C1450 C1454 1.524 . S
C1451 C1443 1.503 1_655 S
C1451 C1450 1.370 1_556 S
C1451 C1452 1.403 . S
C1452 C1451 1.403 . S
C1452 C1453 1.404 . S
C1452 C1455 1.539 . S
C1453 C1449 1.430 . S
C1453 C1452 1.404 . S
C1453 H1465 0.930 . S
C1454 C1450 1.524 . S
C1454 H1466 0.956 1_655 S
C1454 H1467 0.961 . S
C1454 H1468 0.961 . S
C1455 C1452 1.539 . S
C1455 H1469 0.958 1_655 S
C1455 H1470 0.961 . S
C1455 H1471 0.960 . S
H1456 C1440 0.931 . S
H1457 C1445 0.929 . S
H1458 C1446 0.960 . S
H1459 C1446 0.962 1_554 S
H1460 C1446 0.960 . S
H1461 C1447 0.961 . S
H1462 C1447 0.961 . S
H1463 C1447 0.961 . S
H1464 C1448 0.931 . S
H1465 C1453 0.930 . S
H1466 C1454 0.956 1_455 S
H1467 C1454 0.961 . S
H1468 C1454 0.961 . S
H1469 C1455 0.958 1_455 S
H1470 C1455 0.961 . S
H1471 C1455 0.960 . S
C1472 C1473 1.391 . S
C1472 C1474 1.394 . S
C1472 H1488 0.931 . S
C1473 C1472 1.391 . S
C1473 C1477 1.376 . S
C1474 C1472 1.394 . S
C1474 C1475 1.369 . S
C1474 C1478 1.531 . S
C1475 C1474 1.369 . S
C1475 C1476 1.410 . S
C1475 C1483 1.503 . S
C1476 C1475 1.410 . S
C1476 C1477 1.392 . S
C1476 C1479 1.511 . S
C1477 C1473 1.376 . S
C1477 C1476 1.392 . S
C1477 H1489 0.929 . S
C1478 C1474 1.531 . S
C1478 H1490 0.960 . S
C1478 H1491 0.962 . S
C1478 H1492 0.960 . S
C1479 C1476 1.511 . S
C1479 H1493 0.961 . S
C1479 H1494 0.961 . S
C1479 H1495 0.961 . S
C1480 C1481 1.370 . S
C1480 C1482 1.363 . S
C1480 H1496 0.931 . S
C1481 C1480 1.370 . S
C1481 C1485 1.408 . S
C1482 C1480 1.363 . S
C1482 C1483 1.370 . S
C1482 C1486 1.524 . S
C1483 C1475 1.503 . S
C1483 C1482 1.370 . S
C1483 C1484 1.403 . S
C1484 C1483 1.403 . S
C1484 C1485 1.404 . S
C1484 C1487 1.539 . S
C1485 C1481 1.408 . S
C1485 C1484 1.404 . S
C1485 H1497 0.930 . S
C1486 C1482 1.524 . S
C1486 H1498 0.956 . S
C1486 H1499 0.961 . S
C1486 H1500 0.961 . S
C1487 C1484 1.539 . S
C1487 H1501 0.958 . S
C1487 H1502 0.961 . S
C1487 H1503 0.960 . S
H1488 C1472 0.931 . S
H1489 C1477 0.929 . S
H1490 C1478 0.960 . S
H1491 C1478 0.962 . S
H1492 C1478 0.960 . S
H1493 C1479 0.961 . S
H1494 C1479 0.961 . S
H1495 C1479 0.961 . S
H1496 C1480 0.931 . S
H1497 C1485 0.930 . S
H1498 C1486 0.956 . S
H1499 C1486 0.961 . S
H1500 C1486 0.961 . S
H1501 C1487 0.958 . S
H1502 C1487 0.961 . S
H1503 C1487 0.960 . S
C1504 C1505 1.391 . S
C1504 C1506 1.394 . S
C1504 H1520 0.931 . S
C1505 C1504 1.391 . S
C1505 C1509 1.376 . S
C1506 C1504 1.394 . S
C1506 C1507 1.369 . S
C1506 C1510 1.531 . S
C1507 C1506 1.369 . S
C1507 C1508 1.410 . S
C1507 C1515 1.503 . S
C1508 C1507 1.410 . S
C1508 C1509 1.392 . S
C1508 C1511 1.511 1_655 S
C1509 C1505 1.376 . S
C1509 C1508 1.392 . S
C1509 H1521 0.929 1_655 S
C1510 C1506 1.531 . S
C1510 H1522 0.960 . S
C1510 H1523 0.962 . S
C1510 H1524 0.960 . S
C1511 C1508 1.511 1_455 S
C1511 H1525 0.961 . S
C1511 H1526 0.961 1_455 S
C1511 H1527 0.961 . S
C1512 C1513 1.370 . S
C1512 C1514 1.363 . S
C1512 H1528 0.931 . S
C1513 C1512 1.370 . S
C1513 C1517 1.408 . S
C1514 C1512 1.363 . S
C1514 C1515 1.370 . S
C1514 C1518 1.524 . S
C1515 C1507 1.503 . S
C1515 C1514 1.370 . S
C1515 C1516 1.403 . S
C1516 C1515 1.403 . S
C1516 C1517 1.404 . S
C1516 C1519 1.539 . S
C1517 C1513 1.408 . S
C1517 C1516 1.404 . S
C1517 H1529 0.930 . S
C1518 C1514 1.524 . S
C1518 H1530 0.956 . S
C1518 H1531 0.961 . S
C1518 H1532 0.961 . S
C1519 C1516 1.539 . S
C1519 H1533 0.958 . S
C1519 H1534 0.961 1_655 S
C1519 H1535 0.960 . S
H1520 C1504 0.931 . S
H1521 C1509 0.929 1_455 S
H1522 C1510 0.960 . S
H1523 C1510 0.962 . S
H1524 C1510 0.960 . S
H1525 C1511 0.961 . S
H1526 C1511 0.961 1_655 S
H1527 C1511 0.961 . S
H1528 C1512 0.931 . S
H1529 C1517 0.930 . S
H1530 C1518 0.956 . S
H1531 C1518 0.961 . S
H1532 C1518 0.961 . S
H1533 C1519 0.958 . S
H1534 C1519 0.961 1_455 S
H1535 C1519 0.960 . S
C1536 C1537 1.391 . S
C1536 C1538 1.394 . S
C1536 H1552 0.931 . S
C1537 C1536 1.391 . S
C1537 C1541 1.376 . S
C1538 C1536 1.394 . S
C1538 C1539 1.369 . S
C1538 C1542 1.531 . S
C1539 C1538 1.369 . S
C1539 C1540 1.410 . S
C1539 C1547 1.503 . S
C1540 C1539 1.410 . S
C1540 C1541 1.392 . S
C1540 C1543 1.511 . S
C1541 C1537 1.376 . S
C1541 C1540 1.392 . S
C1541 H1553 0.929 . S
C1542 C1538 1.531 . S
C1542 H1554 0.960 . S
C1542 H1555 0.962 . S
C1542 H1556 0.960 . S
C1543 C1540 1.511 . S
C1543 H1557 0.961 . S
C1543 H1558 0.961 . S
C1543 H1559 0.961 . S
C1544 C1545 1.370 . S
C1544 C1546 1.363 . S
C1544 H1560 0.931 . S
C1545 C1544 1.370 . S
C1545 C1549 1.408 . S
C1546 C1544 1.363 . S
C1546 C1547 1.370 . S
C1546 C1550 1.524 . S
C1547 C1539 1.503 . S
C1547 C1546 1.370 . S
C1547 C1548 1.403 . S
C1548 C1547 1.403 . S
C1548 C1549 1.404 . S
C1548 C1551 1.539 . S
C1549 C1545 1.408 . S
C1549 C1548 1.404 . S
C1549 H1561 0.930 . S
C1550 C1546 1.524 . S
C1550 H1562 0.956 . S
C1550 H1563 0.961 . S
C1550 H1564 0.961 . S
C1551 C1548 1.539 . S
C1551 H1565 0.958 . S
C1551 H1566 0.961 . S
C1551 H1567 0.960 . S
H1552 C1536 0.931 . S
H1553 C1541 0.929 . S
H1554 C1542 0.960 . S
H1555 C1542 0.962 . S
H1556 C1542 0.960 . S
H1557 C1543 0.961 . S
H1558 C1543 0.961 . S
H1559 C1543 0.961 . S
H1560 C1544 0.931 . S
H1561 C1549 0.930 . S
H1562 C1550 0.956 . S
H1563 C1550 0.961 . S
H1564 C1550 0.961 . S
H1565 C1551 0.958 . S
H1566 C1551 0.961 . S
H1567 C1551 0.960 . S
C1568 C1569 1.391 . S
C1568 C1570 1.394 . S
C1568 H1584 0.931 . S
C1569 C1568 1.391 . S
C1569 C1573 1.376 . S
C1570 C1568 1.394 . S
C1570 C1571 1.369 . S
C1570 C1574 1.531 . S
C1571 C1570 1.369 . S
C1571 C1572 1.410 . S
C1571 C1579 1.503 . S
C1572 C1571 1.410 . S
C1572 C1573 1.392 . S
C1572 C1575 1.511 1_655 S
C1573 C1569 1.376 . S
C1573 C1572 1.392 . S
C1573 H1585 0.929 . S
C1574 C1570 1.531 . S
C1574 H1586 0.960 . S
C1574 H1587 0.962 . S
C1574 H1588 0.960 . S
C1575 C1572 1.511 1_455 S
C1575 H1589 0.961 . S
C1575 H1590 0.961 . S
C1575 H1591 0.961 . S
C1576 C1577 1.370 . S
C1576 C1578 1.363 . S
C1576 H1592 0.931 . S
C1577 C1576 1.370 . S
C1577 C1581 1.408 . S
C1578 C1576 1.363 . S
C1578 C1579 1.370 . S
C1578 C1582 1.524 . S
C1579 C1571 1.503 . S
C1579 C1578 1.370 . S
C1579 C1580 1.403 . S
C1580 C1579 1.403 . S
C1580 C1581 1.404 . S
C1580 C1583 1.539 . S
C1581 C1577 1.408 . S
C1581 C1580 1.404 . S
C1581 H1593 0.930 . S
C1582 C1578 1.524 . S
C1582 H1594 0.956 . S
C1582 H1595 0.961 . S
C1582 H1596 0.961 . S
C1583 C1580 1.539 . S
C1583 H1597 0.958 . S
C1583 H1598 0.961 1_655 S
C1583 H1599 0.960 . S
H1584 C1568 0.931 . S
H1585 C1573 0.929 . S
H1586 C1574 0.960 . S
H1587 C1574 0.962 . S
H1588 C1574 0.960 . S
H1589 C1575 0.961 . S
H1590 C1575 0.961 . S
H1591 C1575 0.961 . S
H1592 C1576 0.931 . S
H1593 C1581 0.930 . S
H1594 C1582 0.956 . S
H1595 C1582 0.961 . S
H1596 C1582 0.961 . S
H1597 C1583 0.958 . S
H1598 C1583 0.961 1_455 S
H1599 C1583 0.960 . S
C1600 C1601 1.391 . S
C1600 C1602 1.394 . S
C1600 H1616 0.931 . S
C1601 C1600 1.391 . S
C1601 C1605 1.376 . S
C1602 C1600 1.394 . S
C1602 C1603 1.369 . S
C1602 C1606 1.531 . S
C1603 C1602 1.369 . S
C1603 C1604 1.410 . S
C1603 C1611 1.503 . S
C1604 C1603 1.410 . S
C1604 C1605 1.392 . S
C1604 C1607 1.511 . S
C1605 C1601 1.376 . S
C1605 C1604 1.392 . S
C1605 H1617 0.929 . S
C1606 C1602 1.531 . S
C1606 H1618 0.960 . S
C1606 H1619 0.962 . S
C1606 H1620 0.960 . S
C1607 C1604 1.511 . S
C1607 H1621 0.961 . S
C1607 H1622 0.961 . S
C1607 H1623 0.961 . S
C1608 C1609 1.370 . S
C1608 C1610 1.363 . S
C1608 H1624 0.931 . S
C1609 C1608 1.370 . S
C1609 C1613 1.408 . S
C1610 C1608 1.363 . S
C1610 C1611 1.370 . S
C1610 C1614 1.524 . S
C1611 C1603 1.503 . S
C1611 C1610 1.370 . S
C1611 C1612 1.403 . S
C1612 C1611 1.403 . S
C1612 C1613 1.404 . S
C1612 C1615 1.539 . S
C1613 C1609 1.408 . S
C1613 C1612 1.404 . S
C1613 H1625 0.930 . S
C1614 C1610 1.524 . S
C1614 H1626 0.956 . S
C1614 H1627 0.961 . S
C1614 H1628 0.961 . S
C1615 C1612 1.539 . S
C1615 H1629 0.958 . S
C1615 H1630 0.961 . S
C1615 H1631 0.960 . S
H1616 C1600 0.931 . S
H1617 C1605 0.929 . S
H1618 C1606 0.960 . S
H1619 C1606 0.962 . S
H1620 C1606 0.960 . S
H1621 C1607 0.961 . S
H1622 C1607 0.961 . S
H1623 C1607 0.961 . S
H1624 C1608 0.931 . S
H1625 C1613 0.930 . S
H1626 C1614 0.956 . S
H1627 C1614 0.961 . S
H1628 C1614 0.961 . S
H1629 C1615 0.958 . S
H1630 C1615 0.961 . S
H1631 C1615 0.960 . S
C1632 C1633 1.391 . S
C1632 C1634 1.394 . S
C1632 H1648 0.931 1_455 S
C1633 C1632 1.391 . S
C1633 C1637 1.376 . S
C1634 C1632 1.394 . S
C1634 C1635 1.369 . S
C1634 C1638 1.531 1_455 S
C1635 C1634 1.369 . S
C1635 C1636 1.410 . S
C1635 C1643 1.503 . S
C1636 C1635 1.410 . S
C1636 C1637 1.392 . S
C1636 C1639 1.511 . S
C1637 C1633 1.376 . S
C1637 C1636 1.392 . S
C1637 H1649 0.929 . S
C1638 C1634 1.531 1_655 S
C1638 H1650 0.960 . S
C1638 H1651 0.962 1_655 S
C1638 H1652 0.960 . S
C1639 C1636 1.511 . S
C1639 H1653 0.961 . S
C1639 H1654 0.961 . S
C1639 H1655 0.961 . S
C1640 C1641 1.370 . S
C1640 C1642 1.363 . S
C1640 H1656 0.931 . S
C1641 C1640 1.370 . S
C1641 C1645 1.408 . S
C1642 C1640 1.363 . S
C1642 C1643 1.370 . S
C1642 C1646 1.524 . S
C1643 C1635 1.503 . S
C1643 C1642 1.370 . S
C1643 C1644 1.403 . S
C1644 C1643 1.403 . S
C1644 C1645 1.404 . S
C1644 C1647 1.539 . S
C1645 C1641 1.408 . S
C1645 C1644 1.404 . S
C1645 H1657 0.930 . S
C1646 C1642 1.524 . S
C1646 H1658 0.956 . S
C1646 H1659 0.961 . S
C1646 H1660 0.961 . S
C1647 C1644 1.539 . S
C1647 H1661 0.958 1_455 S
C1647 H1662 0.961 . S
C1647 H1663 0.960 . S
H1648 C1632 0.931 1_655 S
H1649 C1637 0.929 . S
H1650 C1638 0.960 . S
H1651 C1638 0.962 1_455 S
H1652 C1638 0.960 . S
H1653 C1639 0.961 . S
H1654 C1639 0.961 . S
H1655 C1639 0.961 . S
H1656 C1640 0.931 . S
H1657 C1645 0.930 . S
H1658 C1646 0.956 . S
H1659 C1646 0.961 . S
H1660 C1646 0.961 . S
H1661 C1647 0.958 1_655 S
H1662 C1647 0.961 . S
H1663 C1647 0.960 . S
C1664 C1665 1.391 . S
C1664 C1666 1.394 . S
C1664 H1680 0.931 . S
C1665 C1664 1.391 . S
C1665 C1669 1.376 . S
C1666 C1664 1.394 . S
C1666 C1667 1.369 . S
C1666 C1670 1.531 . S
C1667 C1666 1.369 . S
C1667 C1668 1.410 . S
C1667 C1675 1.503 . S
C1668 C1667 1.410 . S
C1668 C1669 1.392 . S
C1668 C1671 1.511 . S
C1669 C1665 1.376 . S
C1669 C1668 1.392 . S
C1669 H1681 0.929 . S
C1670 C1666 1.531 . S
C1670 H1682 0.960 . S
C1670 H1683 0.962 . S
C1670 H1684 0.960 . S
C1671 C1668 1.511 . S
C1671 H1685 0.961 . S
C1671 H1686 0.961 . S
C1671 H1687 0.961 . S
C1672 C1673 1.370 . S
C1672 C1674 1.363 . S
C1672 H1688 0.931 . S
C1673 C1672 1.370 . S
C1673 C1677 1.408 . S
C1674 C1672 1.363 . S
C1674 C1675 1.370 . S
C1674 C1678 1.524 . S
C1675 C1667 1.503 . S
C1675 C1674 1.370 . S
C1675 C1676 1.403 . S
C1676 C1675 1.403 . S
C1676 C1677 1.404 . S
C1676 C1679 1.539 . S
C1677 C1673 1.408 . S
C1677 C1676 1.404 . S
C1677 H1689 0.930 . S
C1678 C1674 1.524 . S
C1678 H1690 0.956 . S
C1678 H1691 0.961 . S
C1678 H1692 0.961 . S
C1679 C1676 1.539 . S
C1679 H1693 0.958 . S
C1679 H1694 0.961 . S
C1679 H1695 0.960 . S
H1680 C1664 0.931 . S
H1681 C1669 0.929 . S
H1682 C1670 0.960 . S
H1683 C1670 0.962 . S
H1684 C1670 0.960 . S
H1685 C1671 0.961 . S
H1686 C1671 0.961 . S
H1687 C1671 0.961 . S
H1688 C1672 0.931 . S
H1689 C1677 0.930 . S
H1690 C1678 0.956 . S
H1691 C1678 0.961 . S
H1692 C1678 0.961 . S
H1693 C1679 0.958 . S
H1694 C1679 0.961 . S
H1695 C1679 0.960 . S
C1696 C1697 1.391 . S
C1696 C1698 1.394 . S
C1696 H1712 0.931 . S
C1697 C1696 1.391 . S
C1697 C1701 1.376 . S
C1698 C1696 1.394 . S
C1698 C1699 1.369 . S
C1698 C1702 1.531 . S
C1699 C1698 1.369 . S
C1699 C1700 1.410 . S
C1699 C1707 1.503 . S
C1700 C1699 1.410 . S
C1700 C1701 1.392 . S
C1700 C1703 1.511 . S
C1701 C1697 1.376 . S
C1701 C1700 1.392 . S
C1701 H1713 0.929 . S
C1702 C1698 1.531 . S
C1702 H1714 0.960 . S
C1702 H1715 0.962 . S
C1702 H1716 0.960 . S
C1703 C1700 1.511 . S
C1703 H1717 0.961 1_455 S
C1703 H1718 0.961 . S
C1703 H1719 0.961 1_455 S
C1704 C1705 1.370 . S
C1704 C1706 1.363 . S
C1704 H1720 0.931 . S
C1705 C1704 1.370 . S
C1705 C1709 1.408 . S
C1706 C1704 1.363 . S
C1706 C1707 1.370 . S
C1706 C1710 1.524 . S
C1707 C1699 1.503 . S
C1707 C1706 1.370 . S
C1707 C1708 1.403 . S
C1708 C1707 1.403 . S
C1708 C1709 1.404 . S
C1708 C1711 1.539 . S
C1709 C1705 1.408 . S
C1709 C1708 1.404 . S
C1709 H1721 0.930 . S
C1710 C1706 1.524 . S
C1710 H1722 0.956 . S
C1710 H1723 0.961 . S
C1710 H1724 0.961 . S
C1711 C1708 1.539 . S
C1711 H1725 0.958 . S
C1711 H1726 0.961 1_455 S
C1711 H1727 0.960 . S
H1712 C1696 0.931 . S
H1713 C1701 0.929 . S
H1714 C1702 0.960 . S
H1715 C1702 0.962 . S
H1716 C1702 0.960 . S
H1717 C1703 0.961 1_655 S
H1718 C1703 0.961 . S
H1719 C1703 0.961 1_655 S
H1720 C1704 0.931 . S
H1721 C1709 0.930 . S
H1722 C1710 0.956 . S
H1723 C1710 0.961 . S
H1724 C1710 0.961 . S
H1725 C1711 0.958 . S
H1726 C1711 0.961 1_655 S
H1727 C1711 0.960 . S
C1728 C1729 1.391 . S
C1728 C1730 1.394 . S
C1728 H1744 0.931 . S
C1729 C1728 1.391 . S
C1729 C1733 1.376 . S
C1730 C1728 1.394 . S
C1730 C1731 1.369 . S
C1730 C1734 1.531 . S
C1731 C1730 1.369 . S
C1731 C1732 1.410 . S
C1731 C1739 1.503 . S
C1732 C1731 1.410 . S
C1732 C1733 1.392 . S
C1732 C1735 1.511 . S
C1733 C1729 1.376 . S
C1733 C1732 1.392 . S
C1733 H1745 0.929 . S
C1734 C1730 1.531 . S
C1734 H1746 0.960 . S
C1734 H1747 0.962 . S
C1734 H1748 0.960 . S
C1735 C1732 1.511 . S
C1735 H1749 0.961 . S
C1735 H1750 0.961 . S
C1735 H1751 0.961 . S
C1736 C1737 1.370 . S
C1736 C1738 1.363 . S
C1736 H1752 0.931 . S
C1737 C1736 1.370 . S
C1737 C1741 1.408 . S
C1738 C1736 1.363 . S
C1738 C1739 1.370 . S
C1738 C1742 1.524 . S
C1739 C1731 1.503 . S
C1739 C1738 1.370 . S
C1739 C1740 1.403 . S
C1740 C1739 1.403 . S
C1740 C1741 1.404 . S
C1740 C1743 1.539 . S
C1741 C1737 1.408 . S
C1741 C1740 1.404 . S
C1741 H1753 0.930 . S
C1742 C1738 1.524 . S
C1742 H1754 0.956 . S
C1742 H1755 0.961 . S
C1742 H1756 0.961 . S
C1743 C1740 1.539 . S
C1743 H1757 0.958 . S
C1743 H1758 0.961 . S
C1743 H1759 0.960 . S
H1744 C1728 0.931 . S
H1745 C1733 0.929 . S
H1746 C1734 0.960 . S
H1747 C1734 0.962 . S
H1748 C1734 0.960 . S
H1749 C1735 0.961 . S
H1750 C1735 0.961 . S
H1751 C1735 0.961 . S
H1752 C1736 0.931 . S
H1753 C1741 0.930 . S
H1754 C1742 0.956 . S
H1755 C1742 0.961 . S
H1756 C1742 0.961 . S
H1757 C1743 0.958 . S
H1758 C1743 0.961 . S
H1759 C1743 0.960 . S
C1760 C1761 1.391 . S
C1760 C1762 1.394 . S
C1760 H1776 0.931 . S
C1761 C1760 1.391 . S
C1761 C1765 1.376 . S
C1762 C1760 1.394 . S
C1762 C1763 1.369 . S
C1762 C1766 1.531 . S
C1763 C1762 1.369 . S
C1763 C1764 1.410 . S
C1763 C1771 1.503 . S
C1764 C1763 1.410 . S
C1764 C1765 1.392 . S
C1764 C1767 1.511 . S
C1765 C1761 1.376 . S
C1765 C1764 1.392 . S
C1765 H1777 0.929 . S
C1766 C1762 1.531 . S
C1766 H1778 0.960 . S
C1766 H1779 0.962 1_655 S
C1766 H1780 0.960 1_655 S
C1767 C1764 1.511 . S
C1767 H1781 0.961 . S
C1767 H1782 0.961 . S
C1767 H1783 0.961 . S
C1768 C1769 1.370 . S
C1768 C1770 1.363 . S
C1768 H1784 0.931 . S
C1769 C1768 1.370 . S
C1769 C1773 1.408 . S
C1770 C1768 1.363 . S
C1770 C1771 1.370 . S
C1770 C1774 1.524 . S
C1771 C1763 1.503 . S
C1771 C1770 1.370 . S
C1771 C1772 1.403 . S
C1772 C1771 1.403 . S
C1772 C1773 1.404 . S
C1772 C1775 1.539 . S
C1773 C1769 1.408 . S
C1773 C1772 1.404 . S
C1773 H1785 0.930 . S
C1774 C1770 1.524 . S
C1774 H1786 0.956 . S
C1774 H1787 0.961 . S
C1774 H1788 0.961 . S
C1775 C1772 1.539 . S
C1775 H1789 0.958 . S
C1775 H1790 0.961 . S
C1775 H1791 0.960 . S
H1776 C1760 0.931 . S
H1777 C1765 0.929 . S
H1778 C1766 0.960 . S
H1779 C1766 0.962 1_455 S
H1780 C1766 0.960 1_455 S
H1781 C1767 0.961 . S
H1782 C1767 0.961 . S
H1783 C1767 0.961 . S
H1784 C1768 0.931 . S
H1785 C1773 0.930 . S
H1786 C1774 0.956 . S
H1787 C1774 0.961 . S
H1788 C1774 0.961 . S
H1789 C1775 0.958 . S
H1790 C1775 0.961 . S
H1791 C1775 0.960 . S
C1792 C1793 1.391 . S
C1792 C1794 1.394 . S
C1792 H1808 0.931 . S
C1793 C1792 1.391 . S
C1793 C1797 1.376 . S
C1794 C1792 1.394 . S
C1794 C1795 1.369 . S
C1794 C1798 1.531 . S
C1795 C1794 1.369 . S
C1795 C1796 1.410 . S
C1795 C1803 1.503 . S
C1796 C1795 1.410 . S
C1796 C1797 1.392 . S
C1796 C1799 1.511 . S
C1797 C1793 1.376 . S
C1797 C1796 1.392 . S
C1797 H1809 0.929 . S
C1798 C1794 1.531 . S
C1798 H1810 0.960 . S
C1798 H1811 0.962 . S
C1798 H1812 0.960 . S
C1799 C1796 1.511 . S
C1799 H1813 0.961 . S
C1799 H1814 0.961 . S
C1799 H1815 0.961 . S
C1800 C1801 1.370 . S
C1800 C1802 1.363 . S
C1800 H1816 0.931 . S
C1801 C1800 1.370 . S
C1801 C1805 1.408 . S
C1802 C1800 1.363 . S
C1802 C1803 1.370 . S
C1802 C1806 1.524 . S
C1803 C1795 1.503 . S
C1803 C1802 1.370 . S
C1803 C1804 1.403 . S
C1804 C1803 1.403 . S
C1804 C1805 1.404 . S
C1804 C1807 1.539 . S
C1805 C1801 1.408 . S
C1805 C1804 1.404 . S
C1805 H1817 0.930 . S
C1806 C1802 1.524 . S
C1806 H1818 0.956 . S
C1806 H1819 0.961 . S
C1806 H1820 0.961 . S
C1807 C1804 1.539 . S
C1807 H1821 0.958 . S
C1807 H1822 0.961 . S
C1807 H1823 0.960 . S
H1808 C1792 0.931 . S
H1809 C1797 0.929 . S
H1810 C1798 0.960 . S
H1811 C1798 0.962 . S
H1812 C1798 0.960 . S
H1813 C1799 0.961 . S
H1814 C1799 0.961 . S
H1815 C1799 0.961 . S
H1816 C1800 0.931 . S
H1817 C1805 0.930 . S
H1818 C1806 0.956 . S
H1819 C1806 0.961 . S
H1820 C1806 0.961 . S
H1821 C1807 0.958 . S
H1822 C1807 0.961 . S
H1823 C1807 0.960 . S
C1824 C1825 1.391 . S
C1824 C1826 1.394 . S
C1824 H1840 0.931 . S
C1825 C1824 1.391 . S
C1825 C1829 1.376 . S
C1826 C1824 1.394 . S
C1826 C1827 1.369 . S
C1826 C1830 1.531 . S
C1827 C1826 1.369 . S
C1827 C1828 1.410 . S
C1827 C1835 1.503 . S
C1828 C1827 1.410 . S
C1828 C1829 1.392 . S
C1828 C1831 1.511 . S
C1829 C1825 1.376 . S
C1829 C1828 1.392 . S
C1829 H1841 0.929 . S
C1830 C1826 1.531 . S
C1830 H1842 0.960 . S
C1830 H1843 0.962 . S
C1830 H1844 0.960 . S
C1831 C1828 1.511 . S
C1831 H1845 0.961 . S
C1831 H1846 0.961 . S
C1831 H1847 0.961 . S
C1832 C1833 1.370 . S
C1832 C1834 1.363 . S
C1832 H1848 0.931 . S
C1833 C1832 1.370 . S
C1833 C1837 1.408 . S
C1834 C1832 1.363 . S
C1834 C1835 1.370 . S
C1834 C1838 1.524 . S
C1835 C1827 1.503 . S
C1835 C1834 1.370 . S
C1835 C1836 1.403 . S
C1836 C1835 1.403 . S
C1836 C1837 1.404 . S
C1836 C1839 1.539 . S
C1837 C1833 1.408 . S
C1837 C1836 1.404 . S
C1837 H1849 0.930 . S
C1838 C1834 1.524 . S
C1838 H1850 0.956 . S
C1838 H1851 0.961 1_655 S
C1838 H1852 0.961 1_655 S
C1839 C1836 1.539 . S
C1839 H1853 0.958 . S
C1839 H1854 0.961 . S
C1839 H1855 0.960 . S
H1840 C1824 0.931 . S
H1841 C1829 0.929 . S
H1842 C1830 0.960 . S
H1843 C1830 0.962 . S
H1844 C1830 0.960 . S
H1845 C1831 0.961 . S
H1846 C1831 0.961 . S
H1847 C1831 0.961 . S
H1848 C1832 0.931 . S
H1849 C1837 0.930 . S
H1850 C1838 0.956 . S
H1851 C1838 0.961 1_455 S
H1852 C1838 0.961 1_455 S
H1853 C1839 0.958 . S
H1854 C1839 0.961 . S
H1855 C1839 0.960 . S
C1856 C1857 1.391 . S
C1856 C1858 1.394 . S
C1856 H1872 0.931 . S
C1857 C1856 1.391 . S
C1857 C1861 1.376 . S
C1858 C1856 1.394 . S
C1858 C1859 1.369 . S
C1858 C1862 1.531 . S
C1859 C1858 1.369 . S
C1859 C1860 1.410 . S
C1859 C1867 1.503 . S
C1860 C1859 1.410 . S
C1860 C1861 1.392 . S
C1860 C1863 1.511 . S
C1861 C1857 1.376 . S
C1861 C1860 1.392 . S
C1861 H1873 0.929 . S
C1862 C1858 1.531 . S
C1862 H1874 0.960 . S
C1862 H1875 0.962 . S
C1862 H1876 0.960 . S
C1863 C1860 1.511 . S
C1863 H1877 0.961 . S
C1863 H1878 0.961 . S
C1863 H1879 0.961 . S
C1864 C1865 1.370 . S
C1864 C1866 1.363 . S
C1864 H1880 0.931 . S
C1865 C1864 1.370 . S
C1865 C1869 1.408 . S
C1866 C1864 1.363 . S
C1866 C1867 1.370 . S
C1866 C1870 1.524 . S
C1867 C1859 1.503 . S
C1867 C1866 1.370 . S
C1867 C1868 1.403 . S
C1868 C1867 1.403 . S
C1868 C1869 1.404 . S
C1868 C1871 1.539 . S
C1869 C1865 1.408 . S
C1869 C1868 1.404 . S
C1869 H1881 0.930 . S
C1870 C1866 1.524 . S
C1870 H1882 0.956 . S
C1870 H1883 0.961 . S
C1870 H1884 0.961 . S
C1871 C1868 1.539 . S
C1871 H1885 0.958 . S
C1871 H1886 0.961 . S
C1871 H1887 0.960 . S
H1872 C1856 0.931 . S
H1873 C1861 0.929 . S
H1874 C1862 0.960 . S
H1875 C1862 0.962 . S
H1876 C1862 0.960 . S
H1877 C1863 0.961 . S
H1878 C1863 0.961 . S
H1879 C1863 0.961 . S
H1880 C1864 0.931 . S
H1881 C1869 0.930 . S
H1882 C1870 0.956 . S
H1883 C1870 0.961 . S
H1884 C1870 0.961 . S
H1885 C1871 0.958 . S
H1886 C1871 0.961 . S
H1887 C1871 0.960 . S
C1888 C1889 1.391 . S
C1888 C1890 1.394 . S
C1888 H1904 0.931 1_455 S
C1889 C1888 1.391 . S
C1889 C1893 1.376 . S
C1890 C1888 1.394 . S
C1890 C1891 1.369 . S
C1890 C1894 1.531 . S
C1891 C1890 1.369 . S
C1891 C1892 1.410 . S
C1891 C1899 1.503 . S
C1892 C1891 1.410 . S
C1892 C1893 1.392 . S
C1892 C1895 1.511 . S
C1893 C1889 1.376 . S
C1893 C1892 1.392 . S
C1893 H1905 0.929 . S
C1894 C1890 1.531 . S
C1894 H1906 0.960 . S
C1894 H1907 0.962 1_455 S
C1894 H1908 0.960 1_455 S
C1895 C1892 1.511 . S
C1895 H1909 0.961 . S
C1895 H1910 0.961 . S
C1895 H1911 0.961 . S
C1896 C1897 1.370 . S
C1896 C1898 1.363 . S
C1896 H1912 0.931 . S
C1897 C1896 1.370 . S
C1897 C1901 1.408 . S
C1898 C1896 1.363 . S
C1898 C1899 1.370 . S
C1898 C1902 1.524 . S
C1899 C1891 1.503 . S
C1899 C1898 1.370 . S
C1899 C1900 1.403 . S
C1900 C1899 1.403 . S
C1900 C1901 1.404 . S
C1900 C1903 1.539 . S
C1901 C1897 1.408 . S
C1901 C1900 1.404 . S
C1901 H1913 0.930 . S
C1902 C1898 1.524 . S
C1902 H1914 0.956 . S
C1902 H1915 0.961 . S
C1902 H1916 0.961 . S
C1903 C1900 1.539 . S
C1903 H1917 0.958 . S
C1903 H1918 0.961 . S
C1903 H1919 0.960 . S
H1904 C1888 0.931 1_655 S
H1905 C1893 0.929 . S
H1906 C1894 0.960 . S
H1907 C1894 0.962 1_655 S
H1908 C1894 0.960 1_655 S
H1909 C1895 0.961 . S
H1910 C1895 0.961 . S
H1911 C1895 0.961 . S
H1912 C1896 0.931 . S
H1913 C1901 0.930 . S
H1914 C1902 0.956 . S
H1915 C1902 0.961 . S
H1916 C1902 0.961 . S
H1917 C1903 0.958 . S
H1918 C1903 0.961 . S
H1919 C1903 0.960 . S
C1920 C1921 1.391 . S
C1920 C1922 1.394 . S
C1920 H1936 0.931 . S
C1921 C1920 1.391 . S
C1921 C1925 1.376 . S
C1922 C1920 1.394 . S
C1922 C1923 1.369 . S
C1922 C1926 1.531 . S
C1923 C1922 1.369 . S
C1923 C1924 1.410 . S
C1923 C1931 1.503 . S
C1924 C1923 1.410 . S
C1924 C1925 1.392 . S
C1924 C1927 1.511 . S
C1925 C1921 1.376 . S
C1925 C1924 1.392 . S
C1925 H1937 0.929 . S
C1926 C1922 1.531 . S
C1926 H1938 0.960 . S
C1926 H1939 0.962 . S
C1926 H1940 0.960 . S
C1927 C1924 1.511 . S
C1927 H1941 0.961 . S
C1927 H1942 0.961 . S
C1927 H1943 0.961 . S
C1928 C1929 1.370 . S
C1928 C1930 1.363 . S
C1928 H1944 0.931 . S
C1929 C1928 1.370 . S
C1929 C1933 1.408 . S
C1930 C1928 1.363 . S
C1930 C1931 1.370 . S
C1930 C1934 1.524 . S
C1931 C1923 1.503 . S
C1931 C1930 1.370 . S
C1931 C1932 1.403 . S
C1932 C1931 1.403 . S
C1932 C1933 1.404 . S
C1932 C1935 1.539 . S
C1933 C1929 1.408 . S
C1933 C1932 1.404 . S
C1933 H1945 0.930 . S
C1934 C1930 1.524 . S
C1934 H1946 0.956 . S
C1934 H1947 0.961 . S
C1934 H1948 0.961 . S
C1935 C1932 1.539 . S
C1935 H1949 0.958 . S
C1935 H1950 0.961 . S
C1935 H1951 0.960 . S
H1936 C1920 0.931 . S
H1937 C1925 0.929 . S
H1938 C1926 0.960 . S
H1939 C1926 0.962 . S
H1940 C1926 0.960 . S
H1941 C1927 0.961 . S
H1942 C1927 0.961 . S
H1943 C1927 0.961 . S
H1944 C1928 0.931 . S
H1945 C1933 0.930 . S
H1946 C1934 0.956 . S
H1947 C1934 0.961 . S
H1948 C1934 0.961 . S
H1949 C1935 0.958 . S
H1950 C1935 0.961 . S
H1951 C1935 0.960 . S
C1952 C1953 1.391 . S
C1952 C1954 1.394 . S
C1952 H1968 0.931 . S
C1953 C1952 1.391 . S
C1953 C1957 1.376 . S
C1954 C1952 1.394 . S
C1954 C1955 1.369 . S
C1954 C1958 1.531 . S
C1955 C1954 1.369 . S
C1955 C1956 1.410 . S
C1955 C1963 1.503 . S
C1956 C1955 1.410 . S
C1956 C1957 1.392 . S
C1956 C1959 1.511 1_455 S
C1957 C1953 1.376 . S
C1957 C1956 1.392 . S
C1957 H1969 0.929 1_455 S
C1958 C1954 1.531 . S
C1958 H1970 0.960 . S
C1958 H1971 0.962 . S
C1958 H1972 0.960 . S
C1959 C1956 1.511 1_655 S
C1959 H1973 0.961 . S
C1959 H1974 0.961 1_655 S
C1959 H1975 0.961 . S
C1960 C1961 1.370 . S
C1960 C1962 1.363 . S
C1960 H1976 0.931 . S
C1961 C1960 1.370 . S
C1961 C1965 1.408 . S
C1962 C1960 1.363 . S
C1962 C1963 1.370 . S
C1962 C1966 1.524 . S
C1963 C1955 1.503 . S
C1963 C1962 1.370 . S
C1963 C1964 1.403 . S
C1964 C1963 1.403 . S
C1964 C1965 1.404 . S
C1964 C1967 1.539 . S
C1965 C1961 1.408 . S
C1965 C1964 1.404 . S
C1965 H1977 0.930 . S
C1966 C1962 1.524 . S
C1966 H1978 0.956 . S
C1966 H1979 0.961 . S
C1966 H1980 0.961 . S
C1967 C1964 1.539 . S
C1967 H1981 0.958 . S
C1967 H1982 0.961 1_455 S
C1967 H1983 0.960 1_455 S
H1968 C1952 0.931 . S
H1969 C1957 0.929 1_655 S
H1970 C1958 0.960 . S
H1971 C1958 0.962 . S
H1972 C1958 0.960 . S
H1973 C1959 0.961 . S
H1974 C1959 0.961 1_455 S
H1975 C1959 0.961 . S
H1976 C1960 0.931 . S
H1977 C1965 0.930 . S
H1978 C1966 0.956 . S
H1979 C1966 0.961 . S
H1980 C1966 0.961 . S
H1981 C1967 0.958 . S
H1982 C1967 0.961 1_655 S
H1983 C1967 0.960 1_655 S
C1984 C1985 1.391 . S
C1984 C1986 1.394 . S
C1984 H2000 0.931 . S
C1985 C1984 1.391 . S
C1985 C1989 1.376 1_554 S
C1986 C1984 1.394 . S
C1986 C1987 1.369 . S
C1986 C1990 1.531 . S
C1987 C1986 1.369 . S
C1987 C1988 1.410 1_554 S
C1987 C1995 1.503 . S
C1988 C1987 1.410 1_556 S
C1988 C1989 1.392 . S
C1988 C1991 1.511 . S
C1989 C1985 1.376 1_556 S
C1989 C1988 1.392 . S
C1989 H2001 0.929 . S
C1990 C1986 1.531 . S
C1990 H2002 0.960 . S
C1990 H2003 0.962 . S
C1990 H2004 0.960 . S
C1991 C1988 1.511 . S
C1991 H2005 0.961 . S
C1991 H2006 0.961 . S
C1991 H2007 0.961 1_455 S
C1992 C1993 1.370 1_556 S
C1992 C1994 1.363 . S
C1992 H2008 0.931 . S
C1993 C1992 1.370 1_554 S
C1993 C1997 1.408 . S
C1994 C1992 1.363 . S
C1994 C1995 1.370 1_556 S
C1994 C1998 1.524 . S
C1995 C1987 1.503 . S
C1995 C1994 1.370 1_554 S
C1995 C1996 1.403 . S
C1996 C1995 1.403 . S
C1996 C1997 1.404 . S
C1996 C1999 1.539 . S
C1997 C1993 1.408 . S
C1997 C1996 1.404 . S
C1997 H2009 0.930 . S
C1998 C1994 1.524 . S
C1998 H2010 0.956 . S
C1998 H2011 0.961 . S
C1998 H2012 0.961 . S
C1999 C1996 1.539 . S
C1999 H2013 0.958 . S
C1999 H2014 0.961 1_455 S
C1999 H2015 0.960 1_455 S
H2000 C1984 0.931 . S
H2001 C1989 0.929 . S
H2002 C1990 0.960 . S
H2003 C1990 0.962 . S
H2004 C1990 0.960 . S
H2005 C1991 0.961 . S
H2006 C1991 0.961 . S
H2007 C1991 0.961 1_655 S
H2008 C1992 0.931 . S
H2009 C1997 0.930 . S
H2010 C1998 0.956 . S
H2011 C1998 0.961 . S
H2012 C1998 0.961 . S
H2013 C1999 0.958 . S
H2014 C1999 0.961 1_655 S
H2015 C1999 0.960 1_655 S
C2016 C2017 1.391 . S
C2016 C2018 1.394 . S
C2016 H2032 0.931 . S
C2017 C2016 1.391 . S
C2017 C2021 1.376 . S
C2018 C2016 1.394 . S
C2018 C2019 1.369 . S
C2018 C2022 1.531 . S
C2019 C2018 1.369 . S
C2019 C2020 1.410 . S
C2019 C2027 1.503 . S
C2020 C2019 1.410 . S
C2020 C2021 1.392 . S
C2020 C2023 1.511 . S
C2021 C2017 1.376 . S
C2021 C2020 1.392 . S
C2021 H2033 0.929 . S
C2022 C2018 1.531 . S
C2022 H2034 0.960 . S
C2022 H2035 0.962 . S
C2022 H2036 0.960 . S
C2023 C2020 1.511 . S
C2023 H2037 0.961 1_455 S
C2023 H2038 0.961 1_455 S
C2023 H2039 0.961 . S
C2024 C2025 1.370 . S
C2024 C2026 1.363 . S
C2024 H2040 0.931 . S
C2025 C2024 1.370 . S
C2025 C2029 1.408 . S
C2026 C2024 1.363 . S
C2026 C2027 1.370 . S
C2026 C2030 1.524 . S
C2027 C2019 1.503 . S
C2027 C2026 1.370 . S
C2027 C2028 1.403 . S
C2028 C2027 1.403 . S
C2028 C2029 1.404 . S
C2028 C2031 1.539 . S
C2029 C2025 1.408 . S
C2029 C2028 1.404 . S
C2029 H2041 0.930 . S
C2030 C2026 1.524 . S
C2030 H2042 0.956 . S
C2030 H2043 0.961 . S
C2030 H2044 0.961 . S
C2031 C2028 1.539 . S
C2031 H2045 0.958 . S
C2031 H2046 0.961 . S
C2031 H2047 0.960 . S
H2032 C2016 0.931 . S
H2033 C2021 0.929 . S
H2034 C2022 0.960 . S
H2035 C2022 0.962 . S
H2036 C2022 0.960 . S
H2037 C2023 0.961 1_655 S
H2038 C2023 0.961 1_655 S
H2039 C2023 0.961 . S
H2040 C2024 0.931 . S
H2041 C2029 0.930 . S
H2042 C2030 0.956 . S
H2043 C2030 0.961 . S
H2044 C2030 0.961 . S
H2045 C2031 0.958 . S
H2046 C2031 0.961 . S
H2047 C2031 0.960 . S
C2048 C2049 1.391 . S
C2048 C2050 1.394 . S
C2048 H2064 0.931 1_655 S
C2049 C2048 1.391 . S
C2049 C2053 1.376 1_556 S
C2050 C2048 1.394 . S
C2050 C2051 1.369 . S
C2050 C2054 1.531 1_655 S
C2051 C2050 1.369 . S
C2051 C2052 1.410 1_556 S
C2051 C2059 1.503 . S
C2052 C2051 1.410 1_554 S
C2052 C2053 1.392 . S
C2052 C2055 1.511 . S
C2053 C2049 1.376 1_554 S
C2053 C2052 1.392 . S
C2053 H2065 0.929 . S
C2054 C2050 1.531 1_455 S
C2054 H2066 0.960 1_455 S
C2054 H2067 0.962 . S
C2054 H2068 0.960 . S
C2055 C2052 1.511 . S
C2055 H2069 0.961 . S
C2055 H2070 0.961 . S
C2055 H2071 0.961 1_554 S
C2056 C2057 1.370 1_554 S
C2056 C2058 1.363 . S
C2056 H2072 0.931 . S
C2057 C2056 1.370 1_556 S
C2057 C2061 1.408 . S
C2058 C2056 1.363 . S
C2058 C2059 1.370 1_554 S
C2058 C2062 1.524 . S
C2059 C2051 1.503 . S
C2059 C2058 1.370 1_556 S
C2059 C2060 1.403 . S
C2060 C2059 1.403 . S
C2060 C2061 1.404 . S
C2060 C2063 1.539 . S
C2061 C2057 1.408 . S
C2061 C2060 1.404 . S
C2061 H2073 0.930 . S
C2062 C2058 1.524 . S
C2062 H2074 0.956 . S
C2062 H2075 0.961 . S
C2062 H2076 0.961 . S
C2063 C2060 1.539 . S
C2063 H2077 0.958 . S
C2063 H2078 0.961 . S
C2063 H2079 0.960 . S
H2064 C2048 0.931 1_455 S
H2065 C2053 0.929 . S
H2066 C2054 0.960 1_655 S
H2067 C2054 0.962 . S
H2068 C2054 0.960 . S
H2069 C2055 0.961 . S
H2070 C2055 0.961 . S
H2071 C2055 0.961 1_556 S
H2072 C2056 0.931 . S
H2073 C2061 0.930 . S
H2074 C2062 0.956 . S
H2075 C2062 0.961 . S
H2076 C2062 0.961 . S
H2077 C2063 0.958 . S
H2078 C2063 0.961 . S
H2079 C2063 0.960 . S
C2080 C2081 1.391 . S
C2080 C2082 1.394 . S
C2080 H2096 0.931 . S
C2081 C2080 1.391 . S
C2081 C2085 1.376 . S
C2082 C2080 1.394 . S
C2082 C2083 1.369 . S
C2082 C2086 1.531 . S
C2083 C2082 1.369 . S
C2083 C2084 1.410 . S
C2083 C2091 1.503 . S
C2084 C2083 1.410 . S
C2084 C2085 1.392 . S
C2084 C2087 1.511 . S
C2085 C2081 1.376 . S
C2085 C2084 1.392 . S
C2085 H2097 0.929 . S
C2086 C2082 1.531 . S
C2086 H2098 0.960 . S
C2086 H2099 0.962 1_655 S
C2086 H2100 0.960 . S
C2087 C2084 1.511 . S
C2087 H2101 0.961 . S
C2087 H2102 0.961 . S
C2087 H2103 0.961 . S
C2088 C2089 1.370 . S
C2088 C2090 1.363 . S
C2088 H2104 0.931 . S
C2089 C2088 1.370 . S
C2089 C2093 1.408 . S
C2090 C2088 1.363 . S
C2090 C2091 1.370 . S
C2090 C2094 1.524 . S
C2091 C2083 1.503 . S
C2091 C2090 1.370 . S
C2091 C2092 1.403 . S
C2092 C2091 1.403 . S
C2092 C2093 1.404 . S
C2092 C2095 1.539 . S
C2093 C2089 1.408 . S
C2093 C2092 1.404 . S
C2093 H2105 0.930 . S
C2094 C2090 1.524 . S
C2094 H2106 0.956 . S
C2094 H2107 0.961 . S
C2094 H2108 0.961 . S
C2095 C2092 1.539 . S
C2095 H2109 0.958 . S
C2095 H2110 0.961 . S
C2095 H2111 0.960 . S
H2096 C2080 0.931 . S
H2097 C2085 0.929 . S
H2098 C2086 0.960 . S
H2099 C2086 0.962 1_455 S
H2100 C2086 0.960 . S
H2101 C2087 0.961 . S
H2102 C2087 0.961 . S
H2103 C2087 0.961 . S
H2104 C2088 0.931 . S
H2105 C2093 0.930 . S
H2106 C2094 0.956 . S
H2107 C2094 0.961 . S
H2108 C2094 0.961 . S
H2109 C2095 0.958 . S
H2110 C2095 0.961 . S
H2111 C2095 0.960 . S
C2112 C2113 1.391 . S
C2112 C2114 1.394 . S
C2112 H2128 0.931 1_455 S
C2113 C2112 1.391 . S
C2113 C2117 1.376 . S
C2114 C2112 1.394 . S
C2114 C2115 1.369 . S
C2114 C2118 1.531 1_455 S
C2115 C2114 1.369 . S
C2115 C2116 1.410 . S
C2115 C2123 1.503 . S
C2116 C2115 1.410 . S
C2116 C2117 1.392 . S
C2116 C2119 1.511 . S
C2117 C2113 1.376 . S
C2117 C2116 1.392 . S
C2117 H2129 0.929 . S
C2118 C2114 1.531 1_655 S
C2118 H2130 0.960 1_655 S
C2118 H2131 0.962 . S
C2118 H2132 0.960 . S
C2119 C2116 1.511 . S
C2119 H2133 0.961 . S
C2119 H2134 0.961 . S
C2119 H2135 0.961 . S
C2120 C2121 1.370 . S
C2120 C2122 1.363 . S
C2120 H2136 0.931 . S
C2121 C2120 1.370 . S
C2121 C2125 1.408 . S
C2122 C2120 1.363 . S
C2122 C2123 1.370 . S
C2122 C2126 1.524 . S
C2123 C2115 1.503 . S
C2123 C2122 1.370 . S
C2123 C2124 1.403 . S
C2124 C2123 1.403 . S
C2124 C2125 1.404 . S
C2124 C2127 1.539 . S
C2125 C2121 1.408 . S
C2125 C2124 1.404 . S
C2125 H2137 0.930 . S
C2126 C2122 1.524 . S
C2126 H2138 0.956 . S
C2126 H2139 0.961 . S
C2126 H2140 0.961 . S
C2127 C2124 1.539 . S
C2127 H2141 0.958 . S
C2127 H2142 0.961 . S
C2127 H2143 0.960 . S
H2128 C2112 0.931 1_655 S
H2129 C2117 0.929 . S
H2130 C2118 0.960 1_455 S
H2131 C2118 0.962 . S
H2132 C2118 0.960 . S
H2133 C2119 0.961 . S
H2134 C2119 0.961 . S
H2135 C2119 0.961 . S
H2136 C2120 0.931 . S
H2137 C2125 0.930 . S
H2138 C2126 0.956 . S
H2139 C2126 0.961 . S
H2140 C2126 0.961 . S
H2141 C2127 0.958 . S
H2142 C2127 0.961 . S
H2143 C2127 0.960 . S
C2144 C2145 1.391 . S
C2144 C2146 1.394 . S
C2144 H2160 0.931 . S
C2145 C2144 1.391 . S
C2145 C2149 1.376 . S
C2146 C2144 1.394 . S
C2146 C2147 1.369 . S
C2146 C2150 1.531 1_455 S
C2147 C2146 1.369 . S
C2147 C2148 1.410 . S
C2147 C2155 1.503 . S
C2148 C2147 1.410 . S
C2148 C2149 1.392 . S
C2148 C2151 1.511 . S
C2149 C2145 1.376 . S
C2149 C2148 1.392 . S
C2149 H2161 0.929 . S
C2150 C2146 1.531 1_655 S
C2150 H2162 0.960 . S
C2150 H2163 0.962 . S
C2150 H2164 0.960 . S
C2151 C2148 1.511 . S
C2151 H2165 0.961 . S
C2151 H2166 0.961 . S
C2151 H2167 0.961 . S
C2152 C2153 1.370 . S
C2152 C2154 1.363 . S
C2152 H2168 0.931 . S
C2153 C2152 1.370 . S
C2153 C2157 1.408 . S
C2154 C2152 1.363 . S
C2154 C2155 1.370 . S
C2154 C2158 1.524 . S
C2155 C2147 1.503 . S
C2155 C2154 1.370 . S
C2155 C2156 1.403 . S
C2156 C2155 1.403 . S
C2156 C2157 1.404 . S
C2156 C2159 1.539 . S
C2157 C2153 1.408 . S
C2157 C2156 1.404 . S
C2157 H2169 0.930 . S
C2158 C2154 1.524 . S
C2158 H2170 0.956 . S
C2158 H2171 0.961 . S
C2158 H2172 0.961 . S
C2159 C2156 1.539 . S
C2159 H2173 0.958 . S
C2159 H2174 0.961 . S
C2159 H2175 0.960 . S
H2160 C2144 0.931 . S
H2161 C2149 0.929 . S
H2162 C2150 0.960 . S
H2163 C2150 0.962 . S
H2164 C2150 0.960 . S
H2165 C2151 0.961 . S
H2166 C2151 0.961 . S
H2167 C2151 0.961 . S
H2168 C2152 0.931 . S
H2169 C2157 0.930 . S
H2170 C2158 0.956 . S
H2171 C2158 0.961 . S
H2172 C2158 0.961 . S
H2173 C2159 0.958 . S
H2174 C2159 0.961 . S
H2175 C2159 0.960 . S
C2176 C2177 1.391 . S
C2176 C2178 1.394 . S
C2176 H2192 0.931 . S
C2177 C2176 1.391 . S
C2177 C2181 1.376 . S
C2178 C2176 1.394 . S
C2178 C2179 1.369 . S
C2178 C2182 1.531 . S
C2179 C2178 1.369 . S
C2179 C2180 1.410 . S
C2179 C2187 1.503 . S
C2180 C2179 1.410 . S
C2180 C2181 1.392 . S
C2180 C2183 1.511 . S
C2181 C2177 1.376 . S
C2181 C2180 1.392 . S
C2181 H2193 0.929 . S
C2182 C2178 1.531 . S
C2182 H2194 0.960 . S
C2182 H2195 0.962 . S
C2182 H2196 0.960 . S
C2183 C2180 1.511 . S
C2183 H2197 0.961 . S
C2183 H2198 0.961 . S
C2183 H2199 0.961 . S
C2184 C2185 1.370 . S
C2184 C2186 1.363 . S
C2184 H2200 0.931 1_655 S
C2185 C2184 1.370 . S
C2185 C2189 1.408 . S
C2186 C2184 1.363 . S
C2186 C2187 1.370 . S
C2186 C2190 1.524 . S
C2187 C2179 1.503 . S
C2187 C2186 1.370 . S
C2187 C2188 1.403 . S
C2188 C2187 1.403 . S
C2188 C2189 1.404 . S
C2188 C2191 1.539 . S
C2189 C2185 1.408 . S
C2189 C2188 1.404 . S
C2189 H2201 0.930 . S
C2190 C2186 1.524 . S
C2190 H2202 0.956 . S
C2190 H2203 0.957 1_655 S
C2190 H2204 0.961 1_655 S
C2191 C2188 1.539 . S
C2191 H2205 0.958 . S
C2191 H2206 0.961 . S
C2191 H2207 0.960 . S
H2192 C2176 0.931 . S
H2193 C2181 0.929 . S
H2194 C2182 0.960 . S
H2195 C2182 0.962 . S
H2196 C2182 0.960 . S
H2197 C2183 0.961 . S
H2198 C2183 0.961 . S
H2199 C2183 0.961 . S
H2200 C2184 0.931 1_455 S
H2201 C2189 0.930 . S
H2202 C2190 0.956 . S
H2203 C2190 0.957 1_455 S
H2204 C2190 0.961 1_455 S
H2205 C2191 0.958 . S
H2206 C2191 0.961 . S
H2207 C2191 0.960 . S
C2208 C2209 1.391 . S
C2208 C2210 1.394 . S
C2208 H2224 0.931 . S
C2209 C2208 1.391 . S
C2209 C2213 1.376 . S
C2210 C2208 1.394 . S
C2210 C2211 1.369 . S
C2210 C2214 1.531 . S
C2211 C2210 1.369 . S
C2211 C2212 1.410 . S
C2211 C2219 1.503 . S
C2212 C2211 1.410 . S
C2212 C2213 1.392 . S
C2212 C2215 1.511 . S
C2213 C2209 1.376 . S
C2213 C2212 1.392 . S
C2213 H2225 0.929 . S
C2214 C2210 1.531 . S
C2214 H2226 0.960 . S
C2214 H2227 0.962 . S
C2214 H2228 0.960 . S
C2215 C2212 1.511 . S
C2215 H2229 0.961 . S
C2215 H2230 0.961 . S
C2215 H2231 0.961 1_655 S
C2216 C2217 1.370 . S
C2216 C2218 1.363 . S
C2216 H2232 0.931 . S
C2217 C2216 1.370 . S
C2217 C2221 1.408 . S
C2218 C2216 1.363 . S
C2218 C2219 1.370 . S
C2218 C2222 1.524 . S
C2219 C2211 1.503 . S
C2219 C2218 1.370 . S
C2219 C2220 1.403 . S
C2220 C2219 1.403 . S
C2220 C2221 1.404 . S
C2220 C2223 1.543 . S
C2221 C2217 1.408 . S
C2221 C2220 1.404 . S
C2221 H2233 0.930 1_655 S
C2222 C2218 1.524 . S
C2222 H2234 0.956 . S
C2222 H2235 0.961 . S
C2222 H2236 0.961 . S
C2223 C2220 1.543 . S
C2223 H2237 0.961 . S
C2223 H2238 0.955 1_655 S
C2223 H2239 0.959 1_655 S
H2224 C2208 0.931 . S
H2225 C2213 0.929 . S
H2226 C2214 0.960 . S
H2227 C2214 0.962 . S
H2228 C2214 0.960 . S
H2229 C2215 0.961 . S
H2230 C2215 0.961 . S
H2231 C2215 0.961 1_455 S
H2232 C2216 0.931 . S
H2233 C2221 0.930 1_455 S
H2234 C2222 0.956 . S
H2235 C2222 0.961 . S
H2236 C2222 0.961 . S
H2237 C2223 0.961 . S
H2238 C2223 0.955 1_455 S
H2239 C2223 0.959 1_455 S
C2240 C2241 1.391 . S
C2240 C2242 1.394 . S
C2240 H2256 0.931 . S
C2241 C2240 1.391 . S
C2241 C2245 1.376 . S
C2242 C2240 1.394 . S
C2242 C2243 1.369 . S
C2242 C2246 1.531 . S
C2243 C2242 1.369 . S
C2243 C2244 1.410 . S
C2243 C2251 1.503 . S
C2244 C2243 1.410 . S
C2244 C2245 1.392 . S
C2244 C2247 1.511 . S
C2245 C2241 1.376 . S
C2245 C2244 1.392 . S
C2245 H2257 0.929 . S
C2246 C2242 1.531 . S
C2246 H2258 0.960 . S
C2246 H2259 0.962 . S
C2246 H2260 0.960 . S
C2247 C2244 1.511 . S
C2247 H2261 0.961 . S
C2247 H2262 0.961 . S
C2247 H2263 0.961 . S
C2248 C2249 1.370 . S
C2248 C2250 1.363 . S
C2248 H2264 0.931 . S
C2249 C2248 1.370 . S
C2249 C2253 1.408 . S
C2250 C2248 1.363 . S
C2250 C2251 1.370 . S
C2250 C2254 1.524 . S
C2251 C2243 1.503 . S
C2251 C2250 1.370 . S
C2251 C2252 1.403 . S
C2252 C2251 1.403 . S
C2252 C2253 1.404 . S
C2252 C2255 1.539 . S
C2253 C2249 1.408 . S
C2253 C2252 1.404 . S
C2253 H2265 0.930 . S
C2254 C2250 1.524 . S
C2254 H2266 0.956 . S
C2254 H2267 0.961 . S
C2254 H2268 0.961 . S
C2255 C2252 1.539 . S
C2255 H2269 0.958 . S
C2255 H2270 0.961 . S
C2255 H2271 0.960 . S
H2256 C2240 0.931 . S
H2257 C2245 0.929 . S
H2258 C2246 0.960 . S
H2259 C2246 0.962 . S
H2260 C2246 0.960 . S
H2261 C2247 0.961 . S
H2262 C2247 0.961 . S
H2263 C2247 0.961 . S
H2264 C2248 0.931 . S
H2265 C2253 0.930 . S
H2266 C2254 0.956 . S
H2267 C2254 0.961 . S
H2268 C2254 0.961 . S
H2269 C2255 0.958 . S
H2270 C2255 0.961 . S
H2271 C2255 0.960 . S
C2272 C2273 1.391 . S
C2272 C2274 1.394 . S
C2272 H2288 0.931 . S
C2273 C2272 1.391 . S
C2273 C2277 1.376 . S
C2274 C2272 1.394 . S
C2274 C2275 1.369 . S
C2274 C2278 1.531 . S
C2275 C2274 1.369 . S
C2275 C2276 1.410 . S
C2275 C2283 1.503 . S
C2276 C2275 1.410 . S
C2276 C2277 1.392 . S
C2276 C2279 1.511 . S
C2277 C2273 1.376 . S
C2277 C2276 1.392 . S
C2277 H2289 0.929 . S
C2278 C2274 1.531 . S
C2278 H2290 0.960 . S
C2278 H2291 0.962 . S
C2278 H2292 0.960 . S
C2279 C2276 1.511 . S
C2279 H2293 0.961 . S
C2279 H2294 0.961 . S
C2279 H2295 0.961 . S
C2280 C2281 1.370 . S
C2280 C2282 1.363 . S
C2280 H2296 0.931 . S
C2281 C2280 1.370 . S
C2281 C2285 1.408 . S
C2282 C2280 1.363 . S
C2282 C2283 1.370 . S
C2282 C2286 1.524 . S
C2283 C2275 1.503 . S
C2283 C2282 1.370 . S
C2283 C2284 1.403 . S
C2284 C2283 1.403 . S
C2284 C2285 1.404 . S
C2284 C2287 1.539 . S
C2285 C2281 1.408 . S
C2285 C2284 1.404 . S
C2285 H2297 0.930 . S
C2286 C2282 1.524 . S
C2286 H2298 0.956 . S
C2286 H2299 0.961 . S
C2286 H2300 0.961 . S
C2287 C2284 1.539 . S
C2287 H2301 0.958 . S
C2287 H2302 0.961 . S
C2287 H2303 0.960 . S
H2288 C2272 0.931 . S
H2289 C2277 0.929 . S
H2290 C2278 0.960 . S
H2291 C2278 0.962 . S
H2292 C2278 0.960 . S
H2293 C2279 0.961 . S
H2294 C2279 0.961 . S
H2295 C2279 0.961 . S
H2296 C2280 0.931 . S
H2297 C2285 0.930 . S
H2298 C2286 0.956 . S
H2299 C2286 0.961 . S
H2300 C2286 0.961 . S
H2301 C2287 0.958 . S
H2302 C2287 0.961 . S
H2303 C2287 0.960 . S
C2304 C2305 1.391 . S
C2304 C2306 1.394 . S
C2304 H2320 0.931 . S
C2305 C2304 1.391 . S
C2305 C2309 1.376 . S
C2306 C2304 1.394 . S
C2306 C2307 1.369 . S
C2306 C2310 1.531 . S
C2307 C2306 1.369 . S
C2307 C2308 1.410 . S
C2307 C2315 1.503 . S
C2308 C2307 1.410 . S
C2308 C2309 1.392 . S
C2308 C2311 1.511 . S
C2309 C2305 1.376 . S
C2309 C2308 1.392 . S
C2309 H2321 0.929 . S
C2310 C2306 1.531 . S
C2310 H2322 0.960 . S
C2310 H2323 0.962 . S
C2310 H2324 0.960 . S
C2311 C2308 1.511 . S
C2311 H2325 0.961 . S
C2311 H2326 0.961 . S
C2311 H2327 0.961 . S
C2312 C2313 1.370 . S
C2312 C2314 1.363 . S
C2312 H2328 0.931 . S
C2313 C2312 1.370 . S
C2313 C2317 1.408 . S
C2314 C2312 1.363 . S
C2314 C2315 1.370 . S
C2314 C2318 1.524 . S
C2315 C2307 1.503 . S
C2315 C2314 1.370 . S
C2315 C2316 1.403 . S
C2316 C2315 1.403 . S
C2316 C2317 1.404 . S
C2316 C2319 1.539 . S
C2317 C2313 1.408 . S
C2317 C2316 1.404 . S
C2317 H2329 0.930 . S
C2318 C2314 1.524 . S
C2318 H2330 0.956 . S
C2318 H2331 0.961 . S
C2318 H2332 0.961 . S
C2319 C2316 1.539 . S
C2319 H2333 0.958 . S
C2319 H2334 0.961 . S
C2319 H2335 0.960 . S
H2320 C2304 0.931 . S
H2321 C2309 0.929 . S
H2322 C2310 0.960 . S
H2323 C2310 0.962 . S
H2324 C2310 0.960 . S
H2325 C2311 0.961 . S
H2326 C2311 0.961 . S
H2327 C2311 0.961 . S
H2328 C2312 0.931 . S
H2329 C2317 0.930 . S
H2330 C2318 0.956 . S
H2331 C2318 0.961 . S
H2332 C2318 0.961 . S
H2333 C2319 0.958 . S
H2334 C2319 0.961 . S
H2335 C2319 0.960 . S
C2336 C2337 1.391 . S
C2336 C2338 1.394 . S
C2336 H2352 0.931 . S
C2337 C2336 1.391 . S
C2337 C2341 1.376 . S
C2338 C2336 1.394 . S
C2338 C2339 1.369 . S
C2338 C2342 1.531 . S
C2339 C2338 1.369 . S
C2339 C2340 1.410 . S
C2339 C2347 1.503 . S
C2340 C2339 1.410 . S
C2340 C2341 1.392 . S
C2340 C2343 1.511 . S
C2341 C2337 1.376 . S
C2341 C2340 1.392 . S
C2341 H2353 0.929 . S
C2342 C2338 1.531 . S
C2342 H2354 0.960 . S
C2342 H2355 0.962 . S
C2342 H2356 0.960 . S
C2343 C2340 1.511 . S
C2343 H2357 0.961 . S
C2343 H2358 0.961 . S
C2343 H2359 0.961 . S
C2344 C2345 1.370 . S
C2344 C2346 1.363 . S
C2344 H2360 0.931 . S
C2345 C2344 1.370 . S
C2345 C2349 1.408 . S
C2346 C2344 1.363 . S
C2346 C2347 1.370 . S
C2346 C2350 1.524 . S
C2347 C2339 1.503 . S
C2347 C2346 1.370 . S
C2347 C2348 1.403 . S
C2348 C2347 1.403 . S
C2348 C2349 1.404 . S
C2348 C2351 1.539 . S
C2349 C2345 1.408 . S
C2349 C2348 1.404 . S
C2349 H2361 0.930 . S
C2350 C2346 1.524 . S
C2350 H2362 0.956 . S
C2350 H2363 0.961 . S
C2350 H2364 0.961 . S
C2351 C2348 1.539 . S
C2351 H2365 0.958 . S
C2351 H2366 0.961 . S
C2351 H2367 0.960 . S
H2352 C2336 0.931 . S
H2353 C2341 0.929 . S
H2354 C2342 0.960 . S
H2355 C2342 0.962 . S
H2356 C2342 0.960 . S
H2357 C2343 0.961 . S
H2358 C2343 0.961 . S
H2359 C2343 0.961 . S
H2360 C2344 0.931 . S
H2361 C2349 0.930 . S
H2362 C2350 0.956 . S
H2363 C2350 0.961 . S
H2364 C2350 0.961 . S
H2365 C2351 0.958 . S
H2366 C2351 0.961 . S
H2367 C2351 0.960 . S
C2368 C2369 1.391 . S
C2368 C2370 1.394 . S
C2368 H2384 0.931 . S
C2369 C2368 1.391 . S
C2369 C2373 1.376 . S
C2370 C2368 1.394 . S
C2370 C2371 1.369 . S
C2370 C2374 1.531 . S
C2371 C2370 1.369 . S
C2371 C2372 1.410 . S
C2371 C2379 1.503 . S
C2372 C2371 1.410 . S
C2372 C2373 1.392 . S
C2372 C2375 1.511 . S
C2373 C2369 1.376 . S
C2373 C2372 1.392 . S
C2373 H2385 0.929 . S
C2374 C2370 1.531 . S
C2374 H2386 0.960 . S
C2374 H2387 0.962 1_554 S
C2374 H2388 0.960 . S
C2375 C2372 1.511 . S
C2375 H2389 0.961 1_554 S
C2375 H2390 0.961 1_554 S
C2375 H2391 0.961 . S
C2376 C2377 1.370 1_556 S
C2376 C2378 1.363 . S
C2376 H2392 0.931 . S
C2377 C2376 1.370 1_554 S
C2377 C2381 1.408 . S
C2378 C2376 1.363 . S
C2378 C2379 1.370 1_556 S
C2378 C2382 1.524 . S
C2379 C2371 1.503 . S
C2379 C2378 1.370 1_554 S
C2379 C2380 1.403 . S
C2380 C2379 1.403 . S
C2380 C2381 1.404 . S
C2380 C2383 1.539 . S
C2381 C2377 1.408 . S
C2381 C2380 1.404 . S
C2381 H2393 0.930 . S
C2382 C2378 1.524 . S
C2382 H2394 0.956 . S
C2382 H2395 0.961 . S
C2382 H2396 0.961 . S
C2383 C2380 1.539 . S
C2383 H2397 0.958 . S
C2383 H2398 0.961 . S
C2383 H2399 0.960 . S
H2384 C2368 0.931 . S
H2385 C2373 0.929 . S
H2386 C2374 0.960 . S
H2387 C2374 0.962 1_556 S
H2388 C2374 0.960 . S
H2389 C2375 0.961 1_556 S
H2390 C2375 0.961 1_556 S
H2391 C2375 0.961 . S
H2392 C2376 0.931 . S
H2393 C2381 0.930 . S
H2394 C2382 0.956 . S
H2395 C2382 0.961 . S
H2396 C2382 0.961 . S
H2397 C2383 0.958 . S
H2398 C2383 0.961 . S
H2399 C2383 0.960 . S
C2400 C2401 1.391 . S
C2400 C2402 1.394 . S
C2400 H2416 0.931 . S
C2401 C2400 1.391 . S
C2401 C2405 1.376 . S
C2402 C2400 1.394 . S
C2402 C2403 1.369 . S
C2402 C2406 1.531 . S
C2403 C2402 1.369 . S
C2403 C2404 1.410 . S
C2403 C2411 1.503 . S
C2404 C2403 1.410 . S
C2404 C2405 1.392 . S
C2404 C2407 1.511 . S
C2405 C2401 1.376 . S
C2405 C2404 1.392 . S
C2405 H2417 0.929 . S
C2406 C2402 1.531 . S
C2406 H2418 0.960 . S
C2406 H2419 0.962 . S
C2406 H2420 0.960 . S
C2407 C2404 1.511 . S
C2407 H2421 0.961 . S
C2407 H2422 0.961 . S
C2407 H2423 0.961 . S
C2408 C2409 1.370 . S
C2408 C2410 1.363 . S
C2408 H2424 0.931 . S
C2409 C2408 1.370 . S
C2409 C2413 1.408 . S
C2410 C2408 1.363 . S
C2410 C2411 1.370 . S
C2410 C2414 1.524 . S
C2411 C2403 1.503 . S
C2411 C2410 1.370 . S
C2411 C2412 1.403 . S
C2412 C2411 1.403 . S
C2412 C2413 1.404 . S
C2412 C2415 1.539 . S
C2413 C2409 1.408 . S
C2413 C2412 1.404 . S
C2413 H2425 0.930 . S
C2414 C2410 1.524 . S
C2414 H2426 0.956 . S
C2414 H2427 0.961 . S
C2414 H2428 0.961 . S
C2415 C2412 1.539 . S
C2415 H2429 0.958 . S
C2415 H2430 0.961 . S
C2415 H2431 0.960 . S
H2416 C2400 0.931 . S
H2417 C2405 0.929 . S
H2418 C2406 0.960 . S
H2419 C2406 0.962 . S
H2420 C2406 0.960 . S
H2421 C2407 0.961 . S
H2422 C2407 0.961 . S
H2423 C2407 0.961 . S
H2424 C2408 0.931 . S
H2425 C2413 0.930 . S
H2426 C2414 0.956 . S
H2427 C2414 0.961 . S
H2428 C2414 0.961 . S
H2429 C2415 0.958 . S
H2430 C2415 0.961 . S
H2431 C2415 0.960 . S
C2432 C2433 1.391 . S
C2432 C2434 1.394 . S
C2432 H2448 0.931 . S
C2433 C2432 1.391 . S
C2433 C2437 1.376 1_556 S
C2434 C2432 1.394 . S
C2434 C2435 1.369 . S
C2434 C2438 1.531 . S
C2435 C2434 1.369 . S
C2435 C2436 1.417 . S
C2435 C2443 1.503 . S
C2436 C2435 1.417 . S
C2436 C2437 1.391 1_556 S
C2436 C2439 1.506 1_556 S
C2437 C2433 1.376 1_554 S
C2437 C2436 1.391 1_554 S
C2437 H2449 0.929 . S
C2438 C2434 1.531 . S
C2438 H2450 0.960 . S
C2438 H2451 0.962 . S
C2438 H2452 0.960 . S
C2439 C2436 1.506 1_554 S
C2439 H2453 0.961 . S
C2439 H2454 0.961 . S
C2439 H2455 0.961 1_554 S
C2440 C2441 1.370 1_554 S
C2440 C2442 1.363 . S
C2440 H2456 0.931 . S
C2441 C2440 1.370 1_556 S
C2441 C2445 1.408 . S
C2442 C2440 1.363 . S
C2442 C2443 1.370 1_554 S
C2442 C2446 1.524 . S
C2443 C2435 1.503 . S
C2443 C2442 1.370 1_556 S
C2443 C2444 1.403 . S
C2444 C2443 1.403 . S
C2444 C2445 1.404 . S
C2444 C2447 1.539 . S
C2445 C2441 1.408 . S
C2445 C2444 1.404 . S
C2445 H2457 0.930 . S
C2446 C2442 1.524 . S
C2446 H2458 0.956 . S
C2446 H2459 0.961 . S
C2446 H2460 0.961 . S
C2447 C2444 1.539 . S
C2447 H2461 0.958 . S
C2447 H2462 0.961 . S
C2447 H2463 0.960 . S
H2448 C2432 0.931 . S
H2449 C2437 0.929 . S
H2450 C2438 0.960 . S
H2451 C2438 0.962 . S
H2452 C2438 0.960 . S
H2453 C2439 0.961 . S
H2454 C2439 0.961 . S
H2455 C2439 0.961 1_556 S
H2456 C2440 0.931 . S
H2457 C2445 0.930 . S
H2458 C2446 0.956 . S
H2459 C2446 0.961 . S
H2460 C2446 0.961 . S
H2461 C2447 0.958 . S
H2462 C2447 0.961 . S
H2463 C2447 0.960 . S
C2464 C2465 1.391 . S
C2464 C2466 1.394 . S
C2464 H2480 0.931 . S
C2465 C2464 1.391 . S
C2465 C2469 1.376 . S
C2466 C2464 1.394 . S
C2466 C2467 1.369 . S
C2466 C2470 1.531 . S
C2467 C2466 1.369 . S
C2467 C2468 1.410 . S
C2467 C2475 1.503 . S
C2468 C2467 1.410 . S
C2468 C2469 1.392 . S
C2468 C2471 1.511 . S
C2469 C2465 1.376 . S
C2469 C2468 1.392 . S
C2469 H2481 0.929 . S
C2470 C2466 1.531 . S
C2470 H2482 0.960 . S
C2470 H2483 0.962 . S
C2470 H2484 0.960 . S
C2471 C2468 1.511 . S
C2471 H2485 0.961 . S
C2471 H2486 0.961 . S
C2471 H2487 0.961 . S
C2472 C2473 1.370 . S
C2472 C2474 1.363 . S
C2472 H2488 0.931 . S
C2473 C2472 1.370 . S
C2473 C2477 1.408 . S
C2474 C2472 1.363 . S
C2474 C2475 1.370 . S
C2474 C2478 1.524 . S
C2475 C2467 1.503 . S
C2475 C2474 1.370 . S
C2475 C2476 1.403 . S
C2476 C2475 1.403 . S
C2476 C2477 1.404 . S
C2476 C2479 1.539 . S
C2477 C2473 1.408 . S
C2477 C2476 1.404 . S
C2477 H2489 0.930 . S
C2478 C2474 1.524 . S
C2478 H2490 0.956 . S
C2478 H2491 0.961 . S
C2478 H2492 0.961 . S
C2479 C2476 1.539 . S
C2479 H2493 0.958 . S
C2479 H2494 0.961 . S
C2479 H2495 0.960 . S
H2480 C2464 0.931 . S
H2481 C2469 0.929 . S
H2482 C2470 0.960 . S
H2483 C2470 0.962 . S
H2484 C2470 0.960 . S
H2485 C2471 0.961 . S
H2486 C2471 0.961 . S
H2487 C2471 0.961 . S
H2488 C2472 0.931 . S
H2489 C2477 0.930 . S
H2490 C2478 0.956 . S
H2491 C2478 0.961 . S
H2492 C2478 0.961 . S
H2493 C2479 0.958 . S
H2494 C2479 0.961 . S
H2495 C2479 0.960 . S
C449 C12 1.536 . S
C457 C55 1.541 . S
C481 C28 1.534 . S
C489 C26 1.541 . S
C513 C110 1.545 . S
C521 C57 1.544 . S
C545 C84 1.544 . S
C553 C70 1.544 . S
C577 C112 1.544 . S
C585 C167 1.545 . S
C609 C139 1.540 . S
C617 C141 1.545 . S
C641 C210 1.533 . S
C649 C168 1.542 . S
C673 C209 1.543 . S
C681 C183 1.543 . S
C705 C224 1.539 . S
C713 C278 1.544 . S
C737 C251 1.538 . S
C745 C252 1.544 . S
C769 C280 1.533 . S
C777 C334 1.541 . S
C801 C294 1.538 . S
C809 C308 1.540 . S
C833 C337 1.539 . S
C841 C391 1.544 . S
C865 C365 1.543 . S
C873 C362 1.545 . S
C897 C447 1.534 . S
C905 C393 1.542 . S
C929 C420 1.534 . S
C937 C407 1.541 . S
C961 C0 1.561 1_556 S
C969 C69 1.555 . S
C993 C419 1.553 1_554 S
C1001 C14 1.557 . S
C1025 C40 1.561 . S
C1033 C197 1.554 . S
C1057 C322 1.545 . S
C1065 C43 1.559 . S
C1089 C350 1.557 1_556 S
C1097 C82 1.555 . S
C1121 C96 1.564 . S
C1129 C153 1.552 . S
C1153 C98 1.550 . S
C1161 C266 1.558 . S
C1185 C180 1.543 . S
C1193 C124 1.561 . S
C1217 C306 1.558 . S
C1225 C127 1.553 . S
C1249 C155 1.542 . S
C1257 C435 1.562 . S
C1281 C195 1.544 . S
C1289 C239 1.561 . S
C1313 C222 1.542 . S
C1321 C379 1.561 . S
C1345 C292 1.552 . S
C1353 C236 1.557 . S
C1377 C264 1.548 . S
C1385 C432 1.558 . S
C1409 C320 1.551 . S
C1417 C377 1.558 . S
C1441 C405 1.548 . S
C1449 C349 1.557 1_556 S
C1473 C13 1.460 . S
C1481 C279 1.467 . S
C1505 C27 1.465 . S
C1513 C253 1.473 . S
C1537 C250 1.468 . S
C1545 C29 1.466 . S
C1569 C225 1.465 . S
C1577 C54 1.467 . S
C1601 C56 1.457 . S
C1609 C335 1.472 . S
C1633 C71 1.467 . S
C1641 C309 1.473 . S
C1665 C85 1.475 . S
C1673 C295 1.470 . S
C1697 C281 1.475 . S
C1705 C111 1.470 . S
C1729 C113 1.471 . S
C1737 C390 1.473 . S
C1761 C364 1.469 . S
C1769 C138 1.474 . S
C1793 C363 1.470 . S
C1801 C140 1.473 . S
C1825 C166 1.474 . S
C1833 C336 1.469 . S
C1857 C169 1.458 . S
C1865 C446 1.471 . S
C1889 C182 1.474 . S
C1897 C421 1.470 . S
C1921 C406 1.475 . S
C1929 C208 1.469 . S
C1953 C211 1.458 . S
C1961 C392 1.471 . S
C1985 C15 1.538 . S
C1993 C1 1.554 . S
C2017 C41 1.535 . S
C2025 C42 1.548 . S
C2049 C83 1.556 . S
C2057 C68 1.548 . S
C2081 C97 1.534 . S
C2089 C99 1.551 . S
C2113 C126 1.544 . S
C2121 C125 1.544 . S
C2145 C152 1.554 . S
C2153 C154 1.551 . S
C2177 C181 1.539 . S
C2185 C194 1.553 . S
C2209 C196 1.557 . S
C2217 C223 1.547 . S
C2241 C237 1.549 . S
C2249 C238 1.543 . S
C2273 C267 1.539 . S
C2281 C265 1.545 . S
C2305 C293 1.550 . S
C2313 C307 1.544 . S
C2337 C323 1.538 . S
C2345 C321 1.548 . S
C2369 C351 1.550 . S
C2377 C348 1.553 . S
C2401 C376 1.541 . S
C2409 C378 1.554 . S
C2433 C404 1.554 . S
C2441 C418 1.548 . S
C2465 C434 1.555 . S
C2473 C433 1.548 . S
