# Generated by pormake.
# Topology uou, (4)-cn, num edge types: 1
# Building blocks:
#     Node 0, Type 0, BuildingBlock: ICAMEG_clean_sbu_1, # of connection points: 4
#     Node 1, Type 0, BuildingBlock: ICAMEG_clean_sbu_1, # of connection points: 4
#     Node 2, Type 0, BuildingBlock: ICAMEG_clean_sbu_1, # of connection points: 4
#     Node 3, Type 0, BuildingBlock: ICAMEG_clean_sbu_1, # of connection points: 4
#     Node 4, Type 0, BuildingBlock: ICAMEG_clean_sbu_1, # of connection points: 4
#     Node 5, Type 0, BuildingBlock: ICAMEG_clean_sbu_1, # of connection points: 4
#     Node 6, Type 0, BuildingBlock: ICAMEG_clean_sbu_1, # of connection points: 4
#     Node 7, Type 0, BuildingBlock: ICAMEG_clean_sbu_1, # of connection points: 4
#     Node 8, Type 0, BuildingBlock: ICAMEG_clean_sbu_1, # of connection points: 4
#     Node 9, Type 0, BuildingBlock: ICAMEG_clean_sbu_1, # of connection points: 4
#     Node 10, Type 0, BuildingBlock: ICAMEG_clean_sbu_1, # of connection points: 4
#     Node 11, Type 0, BuildingBlock: ICAMEG_clean_sbu_1, # of connection points: 4
#     Node 12, Type 0, BuildingBlock: ICAMEG_clean_sbu_1, # of connection points: 4
#     Node 13, Type 0, BuildingBlock: ICAMEG_clean_sbu_1, # of connection points: 4
#     Node 14, Type 0, BuildingBlock: ICAMEG_clean_sbu_1, # of connection points: 4
#     Node 15, Type 0, BuildingBlock: ICAMEG_clean_sbu_1, # of connection points: 4
#     Edge 16, Type (0, 0), BuildingBlock: ZUJKAS_clean_linker_0, # of connection points: 2
#     Edge 17, Type (0, 0), BuildingBlock: ZUJKAS_clean_linker_0, # of connection points: 2
#     Edge 18, Type (0, 0), BuildingBlock: ZUJKAS_clean_linker_0, # of connection points: 2
#     Edge 19, Type (0, 0), BuildingBlock: ZUJKAS_clean_linker_0, # of connection points: 2
#     Edge 20, Type (0, 0), BuildingBlock: ZUJKAS_clean_linker_0, # of connection points: 2
#     Edge 21, Type (0, 0), BuildingBlock: ZUJKAS_clean_linker_0, # of connection points: 2
#     Edge 22, Type (0, 0), BuildingBlock: ZUJKAS_clean_linker_0, # of connection points: 2
#     Edge 23, Type (0, 0), BuildingBlock: ZUJKAS_clean_linker_0, # of connection points: 2
#     Edge 24, Type (0, 0), BuildingBlock: ZUJKAS_clean_linker_0, # of connection points: 2
#     Edge 25, Type (0, 0), BuildingBlock: ZUJKAS_clean_linker_0, # of connection points: 2
#     Edge 26, Type (0, 0), BuildingBlock: ZUJKAS_clean_linker_0, # of connection points: 2
#     Edge 27, Type (0, 0), BuildingBlock: ZUJKAS_clean_linker_0, # of connection points: 2
#     Edge 28, Type (0, 0), BuildingBlock: ZUJKAS_clean_linker_0, # of connection points: 2
#     Edge 29, Type (0, 0), BuildingBlock: ZUJKAS_clean_linker_0, # of connection points: 2
#     Edge 30, Type (0, 0), BuildingBlock: ZUJKAS_clean_linker_0, # of connection points: 2
#     Edge 31, Type (0, 0), BuildingBlock: ZUJKAS_clean_linker_0, # of connection points: 2
#     Edge 32, Type (0, 0), BuildingBlock: ZUJKAS_clean_linker_0, # of connection points: 2
#     Edge 33, Type (0, 0), BuildingBlock: ZUJKAS_clean_linker_0, # of connection points: 2
#     Edge 34, Type (0, 0), BuildingBlock: ZUJKAS_clean_linker_0, # of connection points: 2
#     Edge 35, Type (0, 0), BuildingBlock: ZUJKAS_clean_linker_0, # of connection points: 2
#     Edge 36, Type (0, 0), BuildingBlock: ZUJKAS_clean_linker_0, # of connection points: 2
#     Edge 37, Type (0, 0), BuildingBlock: ZUJKAS_clean_linker_0, # of connection points: 2
#     Edge 38, Type (0, 0), BuildingBlock: ZUJKAS_clean_linker_0, # of connection points: 2
#     Edge 39, Type (0, 0), BuildingBlock: ZUJKAS_clean_linker_0, # of connection points: 2
#     Edge 40, Type (0, 0), BuildingBlock: ZUJKAS_clean_linker_0, # of connection points: 2
#     Edge 41, Type (0, 0), BuildingBlock: ZUJKAS_clean_linker_0, # of connection points: 2
#     Edge 42, Type (0, 0), BuildingBlock: ZUJKAS_clean_linker_0, # of connection points: 2
#     Edge 43, Type (0, 0), BuildingBlock: ZUJKAS_clean_linker_0, # of connection points: 2
#     Edge 44, Type (0, 0), BuildingBlock: ZUJKAS_clean_linker_0, # of connection points: 2
#     Edge 45, Type (0, 0), BuildingBlock: ZUJKAS_clean_linker_0, # of connection points: 2
#     Edge 46, Type (0, 0), BuildingBlock: ZUJKAS_clean_linker_0, # of connection points: 2
#     Edge 47, Type (0, 0), BuildingBlock: ZUJKAS_clean_linker_0, # of connection points: 2
# Relax obj value: 0.027
# Max RMSD: 0.084
# Mean RMSD: 0.084
data_MOF--net-uou--node1-ICAMEG_clean_sbu_1--edge1-ZUJKAS_clean_linker_0
_symmetry_space_group_name_H-M    P1
_symmetry_Int_Tables_number       1
_symmetry_cell_setting            triclinic
loop_
_symmetry_equiv_pos_as_xyz
'x, y, z'
_cell_length_a     52.792532
_cell_length_b     51.793014
_cell_length_c     74.728388
_cell_angle_alpha  90.001034
_cell_angle_beta   90.03849
_cell_angle_gamma 89.988961
loop_
_atom_site_label
_atom_site_type_symbol
_atom_site_fract_x
_atom_site_fract_y
_atom_site_fract_z
_atom_type_partial_charge
Co0 Co 0.03877 0.06553 0.1278 0.0
Co1 Co 0.09539 0.09326 0.1394 0.0
O2 O 0.07598 0.06653 0.12672 0.0
C3 C 0.04669 0.06165 0.08828 0.0
O4 O 0.0609 0.08245 0.08882 0.0
C5 C 0.12592 0.04437 0.14514 0.0
O6 O 0.1062 0.02957 0.14222 0.0
O7 O 0.07894 0.08332 0.16242 0.0
O8 O 0.03889 0.07796 0.15317 0.0
H9 H 0.10567 0.16692 0.18256 0.0
H10 H 0.06595 0.0186 0.11568 0.0
O11 O 0.03719 0.05255 0.1026 0.0
H12 H 0.01828 0.99172 0.16926 0.0
H13 H 0.95268 0.02732 0.11575 0.0
H14 H 0.99924 0.10068 0.14199 0.0
H15 H 0.0156 0.03648 0.15822 0.0
H16 H 0.99936 0.02843 0.11508 0.0
O17 O 0.12396 0.06883 0.14445 0.0
H18 H 0.08208 0.13348 0.16601 0.0
H19 H 0.14978 0.10937 0.14023 0.0
H20 H 0.95256 0.10025 0.14307 0.0
H21 H 0.06884 0.9735 0.12609 0.0
H22 H 0.92896 0.06337 0.12989 0.0
H23 H 0.04498 0.95984 0.15311 0.0
O24 O 0.03668 0.10191 0.11916 0.0
H25 H 0.13818 0.07494 0.08073 0.0
H26 H 0.10545 0.14313 0.12051 0.0
H27 H 0.1244 0.15512 0.09155 0.0
H28 H 0.141 0.12089 0.07144 0.0
H29 H 0.11883 0.0638 0.10973 0.0
H30 H 0.17411 0.14241 0.15663 0.0
H31 H 0.15203 0.17155 0.17792 0.0
O32 O 0.06839 0.11944 0.13487 0.0
C33 C 0.05528 0.08095 0.16555 0.0
C34 C 0.1155 0.15438 0.17329 0.0
C35 C 0.15391 0.14061 0.15875 0.0
N36 N 0.11448 0.11957 0.15209 0.0
C37 C 0.10223 0.13544 0.16385 0.0
C38 C 0.14003 0.12189 0.14954 0.0
C39 C 0.14151 0.15695 0.17069 0.0
C40 C 0.05534 0.01275 0.12736 0.0
N41 N 0.04069 0.03019 0.13635 0.0
C42 C 0.05713 0.98721 0.13323 0.0
C43 C 0.04376 0.97956 0.14841 0.0
C44 C 0.02881 0.99745 0.15749 0.0
C45 C 0.02748 0.02282 0.15123 0.0
C46 C 0.96275 0.04348 0.12157 0.0
C47 C 0.98912 0.0845 0.1363 0.0
C48 C 0.98919 0.04425 0.12119 0.0
N49 N 1.00204 0.06453 0.12859 0.0
C50 C 0.96268 0.08439 0.13692 0.0
C51 C 0.94945 0.06371 0.12951 0.0
C52 C 0.04857 0.12146 0.12525 0.0
C53 C 0.13109 0.09003 0.0894 0.0
C54 C 0.11253 0.12811 0.11182 0.0
C55 C 0.12331 0.13503 0.09545 0.0
C56 C 0.13263 0.11582 0.08418 0.0
N57 N 0.11115 0.10278 0.11688 0.0
C58 C 0.1202 0.08385 0.10588 0.0
Co59 Co 0.4787 0.93855 0.12721 0.0
Co60 Co 0.41914 0.91697 0.13737 0.0
O61 O 0.44178 0.94136 0.12536 0.0
C62 C 0.47156 0.94346 0.08771 0.0
O63 O 0.45507 0.92449 0.08827 0.0
C64 C 0.38227 0.95107 0.15545 0.0
O65 O 0.38943 0.94022 0.17051 0.0
O66 O 0.43562 0.92509 0.1608 0.0
O67 O 0.47643 0.9265 0.1526 0.0
H68 H 0.3981 0.84576 0.18054 0.0
H69 H 0.45536 0.98757 0.11509 0.0
O70 O 0.48229 0.95117 0.102 0.0
H71 H 0.50525 0.01039 0.16862 0.0
H72 H 0.56847 0.96764 0.11655 0.0
H73 H 0.51408 0.89977 0.14231 0.0
H74 H 0.50428 0.96555 0.15758 0.0
H75 H 0.52194 0.97126 0.11502 0.0
O76 O 0.39377 0.94552 0.14092 0.0
H77 H 0.42612 0.87642 0.16488 0.0
H78 H 0.36347 0.906 0.13565 0.0
H79 H 0.56052 0.89548 0.14426 0.0
H80 H 0.456 0.03274 0.12557 0.0
H81 H 0.58806 0.92959 0.13133 0.0
H82 H 0.48106 0.04438 0.15254 0.0
O83 O 0.47743 0.90205 0.11875 0.0
H84 H 0.38125 0.93988 0.07776 0.0
H85 H 0.40565 0.86843 0.1178 0.0
H86 H 0.38732 0.85862 0.08824 0.0
H87 H 0.37489 0.8945 0.068 0.0
H88 H 0.39997 0.94882 0.10736 0.0
H89 H 0.33478 0.87571 0.15103 0.0
H90 H 0.35207 0.84529 0.17365 0.0
O91 O 0.44343 0.8878 0.13373 0.0
C92 C 0.45923 0.92537 0.16455 0.0
C93 C 0.39034 0.85891 0.1707 0.0
C94 C 0.3548 0.87572 0.15414 0.0
N95 N 0.39648 0.89297 0.14935 0.0
C96 C 0.40611 0.87632 0.16179 0.0
C97 C 0.37115 0.89283 0.14548 0.0
C98 C 0.36451 0.85866 0.16683 0.0
C99 C 0.46642 0.99252 0.12678 0.0
N100 N 0.47984 0.97396 0.13566 0.0
C101 C 0.46666 0.01811 0.13267 0.0
C102 C 0.4807 0.02463 0.14781 0.0
C103 C 0.49427 0.00557 0.15685 0.0
C104 C 0.49359 0.98018 0.15056 0.0
C105 C 0.55668 0.95268 0.12226 0.0
C106 C 0.52593 0.91476 0.13672 0.0
C107 C 0.53031 0.95458 0.12139 0.0
N108 N 0.5153 0.93582 0.12867 0.0
C109 C 0.55222 0.91219 0.13783 0.0
C110 C 0.56765 0.93132 0.13056 0.0
C111 C 0.46347 0.8838 0.12461 0.0
C112 C 0.38653 0.92408 0.08647 0.0
C113 C 0.40046 0.88415 0.10904 0.0
C114 C 0.38999 0.87848 0.09234 0.0
C115 C 0.383 0.89862 0.08099 0.0
N116 N 0.40381 0.90918 0.11435 0.0
C117 C 0.39704 0.92902 0.10328 0.0
Co118 Co 0.54539 0.93597 0.38373 0.0
Co119 Co 0.59735 0.90384 0.36793 0.0
O120 O 0.58197 0.92972 0.38371 0.0
C121 C 0.53268 0.93384 0.42218 0.0
O122 O 0.51679 0.91534 0.41786 0.0
C123 C 0.63062 0.94978 0.36236 0.0
O124 O 0.61039 0.96425 0.36033 0.0
O125 O 0.58175 0.92068 0.34666 0.0
O126 O 0.54291 0.92882 0.35737 0.0
H127 H 0.598 0.84018 0.31717 0.0
H128 H 0.57961 0.97556 0.39899 0.0
O129 O 0.54698 0.94366 0.41018 0.0
H130 H 0.53419 0.01948 0.35 0.0
H131 H 0.46552 0.98374 0.4003 0.0
H132 H 0.50113 0.90893 0.36816 0.0
H133 H 0.52526 0.9739 0.35707 0.0
H134 H 0.51163 0.97609 0.39992 0.0
O135 O 0.62838 0.92574 0.36544 0.0
H136 H 0.57883 0.87202 0.33762 0.0
H137 H 0.64932 0.88172 0.36421 0.0
H138 H 0.45491 0.9159 0.36815 0.0
H139 H 0.5889 0.02128 0.39251 0.0
H140 H 0.43682 0.95353 0.38431 0.0
H141 H 0.56615 0.04352 0.36782 0.0
O142 O 0.53947 0.89869 0.38893 0.0
H143 H 0.64414 0.90251 0.42649 0.0
H144 H 0.60062 0.84946 0.38111 0.0
H145 H 0.61867 0.82851 0.40785 0.0
H146 H 0.64071 0.85507 0.43075 0.0
H147 H 0.62557 0.92272 0.39961 0.0
H148 H 0.6693 0.85013 0.34396 0.0
H149 H 0.64356 0.82905 0.32027 0.0
O150 O 0.56726 0.88059 0.3701 0.0
C151 C 0.55839 0.92614 0.34437 0.0
C152 C 0.6094 0.84919 0.32747 0.0
C153 C 0.64942 0.8548 0.34249 0.0
N154 N 0.61289 0.87863 0.35216 0.0
C155 C 0.59864 0.8672 0.33911 0.0
C156 C 0.63802 0.87273 0.35389 0.0
C157 C 0.63497 0.84297 0.32921 0.0
C158 C 0.56945 0.98518 0.38835 0.0
N159 N 0.55182 0.97209 0.3785 0.0
C160 C 0.57487 0.01104 0.38469 0.0
C161 C 0.56213 0.02349 0.37081 0.0
C162 C 0.54421 0.01001 0.3608 0.0
C163 C 0.5393 0.98416 0.36483 0.0
C164 C 0.47317 0.96729 0.39319 0.0
C165 C 0.4934 0.92537 0.37519 0.0
C166 C 0.49926 0.96286 0.39293 0.0
N167 N 0.50907 0.94211 0.38398 0.0
C168 C 0.46722 0.92921 0.37515 0.0
C169 C 0.45708 0.95033 0.38422 0.0
C170 C 0.54832 0.8792 0.38061 0.0
C171 C 0.63464 0.89072 0.41659 0.0
C172 C 0.61007 0.86119 0.39105 0.0
C173 C 0.62032 0.84919 0.40614 0.0
C174 C 0.63269 0.86411 0.41898 0.0
N175 N 0.61214 0.8873 0.38877 0.0
C176 C 0.62415 0.90205 0.40132 0.0
Co177 Co 0.97111 0.06737 0.38305 0.0
Co178 Co 0.91693 0.09845 0.37102 0.0
O179 O 0.93422 0.07101 0.38436 0.0
C180 C 0.96379 0.06445 0.4227 0.0
O181 O 0.95134 0.08641 0.42229 0.0
C182 C 0.8844 0.05243 0.36326 0.0
O183 O 0.90471 0.03865 0.35985 0.0
O184 O 0.93171 0.08527 0.34823 0.0
O185 O 0.97162 0.07948 0.35755 0.0
H186 H 0.91089 0.16899 0.32504 0.0
H187 H 0.93993 0.02308 0.39492 0.0
O188 O 0.97205 0.05445 0.40829 0.0
H189 H 0.98653 0.99176 0.34203 0.0
H190 H 0.05466 0.02353 0.39488 0.0
H191 H 0.01267 0.09965 0.36855 0.0
H192 H 0.99277 0.03616 0.35306 0.0
H193 H 0.00816 0.02782 0.39578 0.0
O194 O 0.88644 0.07597 0.36789 0.0
H195 H 0.93236 0.13504 0.3425 0.0
H196 H 0.86416 0.11924 0.37057 0.0
H197 H 0.05921 0.09603 0.3672 0.0
H198 H 0.93331 0.97841 0.38445 0.0
H199 H 0.08051 0.05775 0.38043 0.0
H200 H 0.95666 0.96252 0.35779 0.0
O201 O 0.97527 0.10365 0.39157 0.0
H202 H 0.87475 0.08922 0.43091 0.0
H203 H 0.91261 0.15049 0.38808 0.0
H204 H 0.89612 0.16659 0.41685 0.0
H205 H 0.87696 0.13587 0.43848 0.0
H206 H 0.89171 0.0739 0.40204 0.0
H207 H 0.8419 0.15289 0.3533 0.0
H208 H 0.86533 0.17811 0.33039 0.0
O209 O 0.94635 0.12242 0.37395 0.0
C210 C 0.95525 0.082 0.34509 0.0
C211 C 0.90049 0.15817 0.33501 0.0
C212 C 0.86176 0.14911 0.35085 0.0
N213 N 0.89958 0.12523 0.3576 0.0
C214 C 0.91256 0.13894 0.34497 0.0
C215 C 0.87446 0.13002 0.36055 0.0
C216 C 0.87492 0.16326 0.33801 0.0
C217 C 0.95031 0.01623 0.38339 0.0
N218 N 0.96675 0.0322 0.37465 0.0
C219 C 0.94642 0.99095 0.37749 0.0
C220 C 0.9595 0.98205 0.36252 0.0
C221 C 0.97624 0.99846 0.35366 0.0
C222 C 0.97964 0.02362 0.35994 0.0
C223 C 0.0456 0.04029 0.38904 0.0
C224 C 0.02179 0.08288 0.37426 0.0
C225 C 0.01927 0.04286 0.38956 0.0
N226 N 0.00769 0.0639 0.38213 0.0
C227 C 0.04815 0.08096 0.3735 0.0
C228 C 0.06009 0.05949 0.38093 0.0
C229 C 0.96525 0.12364 0.38455 0.0
C230 C 0.88299 0.10281 0.42157 0.0
C231 C 0.90438 0.13697 0.39744 0.0
C232 C 0.89502 0.14622 0.4137 0.0
C233 C 0.88426 0.12898 0.42582 0.0
N234 N 0.90303 0.11127 0.39336 0.0
C235 C 0.89254 0.09426 0.40519 0.0
Co236 Co 0.97598 0.93924 0.8833 0.0
Co237 Co 0.91919 0.91331 0.87081 0.0
O238 O 0.93881 0.9389 0.88438 0.0
C239 C 0.96799 0.94279 0.92286 0.0
O240 O 0.95356 0.92215 0.92225 0.0
C241 C 0.88713 0.96208 0.87055 0.0
O242 O 0.90455 0.97543 0.87897 0.0
O243 O 0.9357 0.92496 0.84828 0.0
O244 O 0.97585 0.92722 0.85776 0.0
H245 H 0.90853 0.84326 0.82488 0.0
H246 H 0.94967 0.98655 0.89561 0.0
O247 O 0.97765 0.95187 0.90859 0.0
H248 H 0.99842 0.01324 0.84248 0.0
H249 H 0.06281 0.9753 0.89587 0.0
H250 H 0.0148 0.90341 0.86899 0.0
H251 H 1.00024 0.96832 0.85328 0.0
H252 H 0.01611 0.97522 0.89643 0.0
O253 O 0.89082 0.93849 0.86649 0.0
H254 H 0.93234 0.87501 0.84281 0.0
H255 H 0.86464 0.89804 0.86904 0.0
H256 H 0.06149 0.90282 0.868 0.0
H257 H 0.94751 0.03178 0.88538 0.0
H258 H 0.08581 0.93896 0.88151 0.0
H259 H 0.97195 0.04535 0.85859 0.0
O260 O 0.97691 0.90275 0.89172 0.0
H261 H 0.87776 0.9255 0.93096 0.0
H262 H 0.90846 0.86186 0.88698 0.0
H263 H 0.88951 0.84672 0.91519 0.0
H264 H 0.87387 0.87863 0.9374 0.0
H265 H 0.89708 0.93979 0.90273 0.0
H266 H 0.84007 0.8667 0.85127 0.0
H267 H 0.86204 0.83895 0.82905 0.0
O268 O 0.94614 0.8866 0.87441 0.0
C269 C 0.95944 0.92616 0.84524 0.0
C270 C 0.89875 0.85518 0.83456 0.0
C271 C 0.86032 0.86836 0.84935 0.0
N272 N 0.89995 0.88823 0.85707 0.0
C273 C 0.91214 0.87315 0.84479 0.0
C274 C 0.87434 0.88612 0.85935 0.0
C275 C 0.87267 0.85279 0.83689 0.0
C276 C 0.96041 0.99233 0.88397 0.0
N277 N 0.9749 0.97475 0.87499 0.0
C278 C 0.95909 0.01796 0.87823 0.0
C279 C 0.97279 0.02556 0.86319 0.0
C280 C 0.98761 0.00754 0.85413 0.0
C281 C 0.98846 0.98208 0.86026 0.0
C282 C 0.05242 0.95946 0.88991 0.0
C283 C 0.02524 0.91927 0.87482 0.0
C284 C 0.02597 0.95928 0.89023 0.0
N285 N 0.01273 0.9394 0.88265 0.0
C286 C 0.05168 0.9188 0.87425 0.0
C287 C 0.06532 0.93907 0.88185 0.0
C288 C 0.96508 0.88373 0.88482 0.0
C289 C 0.88428 0.9114 0.92131 0.0
C290 C 0.90163 0.87592 0.89651 0.0
C291 C 0.89092 0.8672 0.91249 0.0
C292 C 0.88216 0.8851 0.92494 0.0
N293 N 0.9034 0.90176 0.89293 0.0
C294 C 0.89508 0.9194 0.90518 0.0
Co295 Co 0.53832 0.06735 0.88201 0.0
Co296 Co 0.59699 0.09088 0.87098 0.0
O297 O 0.57547 0.06598 0.88368 0.0
C298 C 0.54589 0.06311 0.92154 0.0
O299 O 0.56182 0.08255 0.92088 0.0
C300 C 0.62631 0.04031 0.86995 0.0
O301 O 0.60833 0.0276 0.87826 0.0
O302 O 0.58038 0.08151 0.84792 0.0
O303 O 0.53981 0.07925 0.8565 0.0
H304 H 0.6129 0.16278 0.82727 0.0
H305 H 0.56224 0.01898 0.89485 0.0
O306 O 0.53536 0.05493 0.9073 0.0
H307 H 0.51436 0.99427 0.84082 0.0
H308 H 0.44975 0.03499 0.89313 0.0
H309 H 0.50144 0.10471 0.86699 0.0
H310 H 0.51402 0.03926 0.85155 0.0
H311 H 0.49638 0.03312 0.89447 0.0
O312 O 0.62378 0.06417 0.86624 0.0
H313 H 0.58681 0.13162 0.84407 0.0
H314 H 0.65248 0.10247 0.87002 0.0
H315 H 0.45486 0.10726 0.86523 0.0
H316 H 0.56284 0.97367 0.8847 0.0
H317 H 0.42868 0.07222 0.87836 0.0
H318 H 0.53885 0.96108 0.85746 0.0
O319 O 0.5384 0.10391 0.89032 0.0
H320 H 0.63564 0.07256 0.93137 0.0
H321 H 0.61145 0.14049 0.88849 0.0
H322 H 0.63065 0.15273 0.91728 0.0
H323 H 0.64304 0.11863 0.93896 0.0
H324 H 0.61608 0.06124 0.90259 0.0
H325 H 0.67928 0.13314 0.85337 0.0
H326 H 0.65949 0.16367 0.83187 0.0
O327 O 0.57175 0.11907 0.87507 0.0
C328 C 0.55676 0.08058 0.84438 0.0
C329 C 0.62174 0.14963 0.83664 0.0
C330 C 0.659 0.13297 0.85127 0.0
N331 N 0.61806 0.11537 0.85812 0.0
C332 C 0.60705 0.13199 0.84623 0.0
C333 C 0.64372 0.11559 0.86062 0.0
C334 C 0.64788 0.1501 0.83922 0.0
C335 C 0.55167 0.01363 0.88302 0.0
N336 N 0.53825 0.0318 0.87376 0.0
C337 C 0.55212 0.98795 0.87732 0.0
C338 C 0.53867 0.98091 0.86203 0.0
C339 C 0.52496 0.99953 0.85268 0.0
C340 C 0.52495 0.02502 0.85877 0.0
C341 C 0.46094 0.05036 0.88734 0.0
C342 C 0.49019 0.08933 0.87266 0.0
C343 C 0.48736 0.04944 0.88809 0.0
N344 N 0.50163 0.06871 0.88072 0.0
C345 C 0.46381 0.0909 0.87166 0.0
C346 C 0.44914 0.07125 0.87904 0.0
C347 C 0.55181 0.12253 0.88439 0.0
C348 C 0.63054 0.0876 0.92198 0.0
C349 C 0.61677 0.1255 0.89779 0.0
C350 C 0.62767 0.13257 0.9141 0.0
C351 C 0.63462 0.11344 0.92625 0.0
N352 N 0.61302 0.10008 0.89358 0.0
C353 C 0.6196 0.08126 0.90553 0.0
Co354 Co 0.47187 0.06834 0.62491 0.0
Co355 Co 0.4169 0.0951 0.64085 0.0
O356 O 0.43474 0.0706 0.62521 0.0
C357 C 0.48368 0.07045 0.58628 0.0
O358 O 0.49803 0.0904 0.59014 0.0
C359 C 0.38408 0.04696 0.64017 0.0
O360 O 0.4011 0.03395 0.63112 0.0
O361 O 0.43475 0.08067 0.66205 0.0
O362 O 0.47408 0.07653 0.65116 0.0
H363 H 0.41168 0.16018 0.6906 0.0
H364 H 0.44303 0.02425 0.60987 0.0
O365 O 0.47055 0.05978 0.59859 0.0
H366 H 0.49246 0.98773 0.65982 0.0
H367 H 0.55603 0.029 0.60827 0.0
H368 H 0.51328 0.10057 0.6396 0.0
H369 H 0.49582 0.03389 0.65226 0.0
H370 H 0.5094 0.0316 0.60897 0.0
O371 O 0.3882 0.07022 0.6449 0.0
H372 H 0.43321 0.12991 0.67018 0.0
H373 H 0.36298 0.11144 0.64551 0.0
H374 H 0.55997 0.09869 0.63925 0.0
H375 H 0.43942 0.97786 0.61679 0.0
H376 H 0.58164 0.06271 0.6235 0.0
H377 H 0.46418 0.95932 0.64199 0.0
O378 O 0.4738 0.10582 0.61913 0.0
H379 H 0.36987 0.09033 0.58227 0.0
H380 H 0.40647 0.1484 0.62771 0.0
H381 H 0.38545 0.16693 0.60122 0.0
H382 H 0.36681 0.13783 0.57831 0.0
H383 H 0.39133 0.07262 0.6088 0.0
H384 H 0.34068 0.14135 0.66577 0.0
H385 H 0.36508 0.16606 0.68847 0.0
O386 O 0.44421 0.12145 0.63762 0.0
C387 C 0.45855 0.07775 0.66423 0.0
C388 C 0.40085 0.14959 0.68073 0.0
C389 C 0.361 0.13899 0.66681 0.0
N390 N 0.39942 0.11905 0.65657 0.0
C391 C 0.41295 0.13246 0.6691 0.0
C392 C 0.37374 0.12203 0.65541 0.0
C393 C 0.3747 0.15285 0.67954 0.0
C394 C 0.454 0.01631 0.62077 0.0
N395 N 0.46952 0.03184 0.63068 0.0
C396 C 0.45182 0.99003 0.62467 0.0
C397 C 0.46568 0.97965 0.63882 0.0
C398 C 0.48152 0.99559 0.64885 0.0
C399 C 0.48322 0.02178 0.64457 0.0
C400 C 0.54681 0.04476 0.61519 0.0
C401 C 0.52258 0.08483 0.63274 0.0
C402 C 0.52041 0.04633 0.61565 0.0
N403 N 0.50862 0.06619 0.62437 0.0
C404 C 0.54901 0.08388 0.63258 0.0
C405 C 0.56116 0.06368 0.62374 0.0
C406 C 0.46287 0.12455 0.62703 0.0
C407 C 0.37773 0.10321 0.59224 0.0
C408 C 0.39841 0.13556 0.61783 0.0
C409 C 0.38651 0.14619 0.60285 0.0
C410 C 0.37606 0.12986 0.59 0.0
N411 N 0.39973 0.10937 0.62005 0.0
C412 C 0.38979 0.09327 0.60739 0.0
Co413 Co 0.03649 0.93992 0.62686 0.0
Co414 Co 0.09541 0.9169 0.63794 0.0
O415 O 0.07362 0.94179 0.62544 0.0
C416 C 0.04373 0.94456 0.58731 0.0
O417 O 0.05905 0.92458 0.58765 0.0
C418 C 0.12376 0.96796 0.64 0.0
O419 O 0.1057 0.98059 0.63171 0.0
O420 O 0.07833 0.92516 0.66102 0.0
O421 O 0.03782 0.92753 0.65222 0.0
H422 H 0.11203 0.84385 0.68061 0.0
H423 H 0.05992 0.98884 0.6146 0.0
O424 O 0.03371 0.95283 0.60169 0.0
H425 H 0.01121 0.01188 0.66857 0.0
H426 H 0.94769 0.97145 0.61536 0.0
H427 H 0.99984 0.90189 0.64134 0.0
H428 H 0.01155 0.96711 0.65742 0.0
H429 H 0.99431 0.97386 0.61435 0.0
O430 O 0.12162 0.94394 0.64333 0.0
H431 H 0.08561 0.87506 0.66409 0.0
H432 H 0.1511 0.90636 0.63921 0.0
H433 H 0.95328 0.8988 0.64275 0.0
H434 H 0.05984 0.03395 0.62516 0.0
H435 H 0.92687 0.93376 0.6297 0.0
H436 H 0.03542 0.0457 0.65238 0.0
O437 O 0.03705 0.90347 0.61826 0.0
H438 H 0.13436 0.93795 0.57811 0.0
H439 H 0.11118 0.86819 0.61981 0.0
H440 H 0.131 0.85728 0.59099 0.0
H441 H 0.14289 0.89231 0.56991 0.0
H442 H 0.11421 0.94794 0.60691 0.0
H443 H 0.17823 0.87567 0.65561 0.0
H444 H 0.1587 0.84403 0.67643 0.0
O445 O 0.07076 0.88844 0.6332 0.0
C446 C 0.05465 0.92579 0.66441 0.0
C447 C 0.12076 0.85748 0.67154 0.0
C448 C 0.15792 0.87537 0.65753 0.0
N449 N 0.11675 0.89239 0.65059 0.0
C450 C 0.10588 0.87516 0.6621 0.0
C451 C 0.14245 0.89276 0.64832 0.0
C452 C 0.14694 0.85762 0.6692 0.0
C453 C 0.04917 0.99382 0.62641 0.0
N454 N 0.0359 0.9753 0.63543 0.0
C455 C 0.04923 0.01939 0.63235 0.0
C456 C 0.03555 0.02596 0.64762 0.0
C457 C 0.02199 0.00699 0.65673 0.0
C458 C 0.02237 0.98162 0.6504 0.0
C459 C 0.95899 0.95611 0.62112 0.0
C460 C 0.98849 0.91724 0.6357 0.0
C461 C 0.98541 0.95734 0.62055 0.0
N462 N 0.9998 0.93811 0.62788 0.0
C463 C 0.96213 0.91536 0.63651 0.0
C464 C 0.94732 0.93497 0.62917 0.0
C465 C 0.05078 0.88493 0.62393 0.0
C466 C 0.12948 0.92252 0.58725 0.0
C467 C 0.11627 0.88357 0.61077 0.0
C468 C 0.12753 0.87726 0.59444 0.0
C469 C 0.1342 0.89691 0.58263 0.0
N470 N 0.11192 0.90877 0.61533 0.0
C471 C 0.11821 0.92809 0.6037 0.0
Co472 Co 0.53537 0.56428 0.12706 0.0
Co473 Co 0.59258 0.59055 0.13869 0.0
O474 O 0.57252 0.56488 0.12553 0.0
C475 C 0.54213 0.56135 0.08735 0.0
O476 O 0.5559 0.58247 0.08777 0.0
C477 C 0.6244 0.54159 0.13912 0.0
O478 O 0.60683 0.52819 0.1309 0.0
O479 O 0.57638 0.57956 0.16154 0.0
O480 O 0.53605 0.57603 0.15258 0.0
H481 H 0.60445 0.66176 0.1836 0.0
H482 H 0.56165 0.51728 0.11409 0.0
O483 O 0.53321 0.55191 0.10174 0.0
H484 H 0.51474 0.48969 0.16782 0.0
H485 H 0.4486 0.52751 0.11533 0.0
H486 H 0.49654 0.59955 0.14207 0.0
H487 H 0.51228 0.5347 0.15729 0.0
H488 H 0.49527 0.52807 0.11421 0.0
O489 O 0.62084 0.56524 0.14307 0.0
H490 H 0.58013 0.62975 0.16623 0.0
H491 H 0.64732 0.60528 0.13996 0.0
H492 H 0.44989 0.59966 0.14361 0.0
H493 H 0.56439 0.47196 0.12403 0.0
H494 H 0.42559 0.56344 0.13018 0.0
H495 H 0.54089 0.45792 0.15112 0.0
O496 O 0.53375 0.60092 0.11897 0.0
H497 H 0.63258 0.57647 0.07825 0.0
H498 H 0.60396 0.64148 0.12194 0.0
H499 H 0.6226 0.65574 0.09342 0.0
H500 H 0.63721 0.62313 0.07135 0.0
H501 H 0.61356 0.56308 0.10678 0.0
H502 H 0.67239 0.63684 0.15719 0.0
H503 H 0.65093 0.66545 0.17913 0.0
O504 O 0.5658 0.61735 0.13498 0.0
C505 C 0.55274 0.57781 0.16487 0.0
C506 C 0.614 0.64946 0.17404 0.0
C507 C 0.65214 0.63545 0.15923 0.0
N508 N 0.61223 0.61578 0.152 0.0
C509 C 0.60032 0.63134 0.16413 0.0
C510 C 0.63784 0.61755 0.14956 0.0
C511 C 0.64008 0.6515 0.17154 0.0
C512 C 0.5513 0.5113 0.12585 0.0
N513 N 0.53698 0.52869 0.13515 0.0
C514 C 0.55295 0.48562 0.13144 0.0
C515 C 0.53978 0.47776 0.14664 0.0
C516 C 0.52514 0.49558 0.15603 0.0
C517 C 0.52394 0.5211 0.15005 0.0
C518 C 0.45897 0.54338 0.12126 0.0
C519 C 0.48612 0.58366 0.13627 0.0
C520 C 0.48541 0.54383 0.12063 0.0
N521 N 0.49865 0.56375 0.12817 0.0
C522 C 0.4597 0.58386 0.13715 0.0
C523 C 0.44608 0.56354 0.1296 0.0
C524 C 0.54595 0.62004 0.12542 0.0
C525 C 0.6265 0.59088 0.08783 0.0
C526 C 0.61029 0.62713 0.11247 0.0
C527 C 0.62085 0.63535 0.09631 0.0
C528 C 0.62904 0.61705 0.08394 0.0
N529 N 0.60811 0.6014 0.11631 0.0
C530 C 0.61586 0.58338 0.10413 0.0
Co531 Co 0.97423 0.43844 0.12709 0.0
Co532 Co 0.91593 0.41435 0.13835 0.0
O533 O 0.93708 0.43954 0.12562 0.0
C534 C 0.967 0.4429 0.08751 0.0
O535 O 0.95199 0.42268 0.08784 0.0
C536 C 0.8861 0.46459 0.13956 0.0
O537 O 0.904 0.47751 0.13132 0.0
O538 O 0.93271 0.42369 0.16136 0.0
O539 O 0.97314 0.42603 0.15245 0.0
H540 H 0.90111 0.34197 0.18188 0.0
H541 H 0.94984 0.48687 0.1148 0.0
O542 O 0.9768 0.45137 0.10191 0.0
H543 H 0.99811 0.51092 0.16879 0.0
H544 H 0.06241 0.47172 0.1157 0.0
H545 H 0.0116 0.40112 0.14158 0.0
H546 H 0.99865 0.46614 0.15766 0.0
H547 H 0.01575 0.47321 0.11464 0.0
O548 O 0.88888 0.44075 0.14326 0.0
H549 H 0.92675 0.3735 0.16507 0.0
H550 H 0.86057 0.40222 0.13953 0.0
H551 H 0.05822 0.39895 0.14305 0.0
H552 H 0.94902 0.53198 0.12535 0.0
H553 H 0.08395 0.43444 0.13005 0.0
H554 H 0.97322 0.54424 0.15258 0.0
O555 O 0.97432 0.402 0.1185 0.0
H556 H 0.87668 0.43261 0.07814 0.0
H557 H 0.90176 0.3647 0.12078 0.0
H558 H 0.88241 0.35243 0.09204 0.0
H559 H 0.86957 0.38652 0.07049 0.0
H560 H 0.89639 0.44398 0.10686 0.0
H561 H 0.8342 0.37118 0.15621 0.0
H562 H 0.85448 0.34067 0.1775 0.0
O563 O 0.94142 0.38646 0.13405 0.0
C564 C 0.95641 0.42447 0.16471 0.0
C565 C 0.89206 0.3551 0.1726 0.0
C566 C 0.85451 0.37153 0.15821 0.0
N567 N 0.89522 0.38956 0.15123 0.0
C568 C 0.90649 0.37296 0.163 0.0
C569 C 0.86954 0.38912 0.14885 0.0
C570 C 0.8659 0.35441 0.17015 0.0
C571 C 0.9605 0.49207 0.12661 0.0
N572 N 0.97413 0.47383 0.13565 0.0
C573 C 0.95993 0.51764 0.13255 0.0
C574 C 0.97349 0.5245 0.14783 0.0
C575 C 0.98743 0.50581 0.15695 0.0
C576 C 0.98754 0.48044 0.15062 0.0
C577 C 0.05141 0.45616 0.12144 0.0
C578 C 0.02266 0.4167 0.13597 0.0
C579 C 0.02497 0.45687 0.12084 0.0
N580 N 0.01095 0.43735 0.12815 0.0
C581 C 0.04905 0.41534 0.13681 0.0
C582 C 0.06348 0.43524 0.1295 0.0
C583 C 0.96122 0.38323 0.12453 0.0
C584 C 0.88198 0.41758 0.08748 0.0
C585 C 0.89623 0.37969 0.11154 0.0
C586 C 0.88525 0.3726 0.09525 0.0
C587 C 0.87805 0.39173 0.08318 0.0
N588 N 0.8998 0.40512 0.11579 0.0
C589 C 0.893 0.42394 0.1039 0.0
Co590 Co 0.03814 0.44027 0.38318 0.0
Co591 Co 0.09258 0.40997 0.37064 0.0
O592 O 0.07515 0.43719 0.38413 0.0
C593 C 0.04567 0.44312 0.42287 0.0
O594 O 0.05765 0.42089 0.42255 0.0
C595 C 0.12445 0.45682 0.36358 0.0
O596 O 0.10406 0.47119 0.36227 0.0
O597 O 0.07708 0.42282 0.34803 0.0
O598 O 0.03727 0.42817 0.35766 0.0
H599 H 0.09848 0.33924 0.32478 0.0
H600 H 0.06857 0.48521 0.39495 0.0
O601 O 0.03759 0.4532 0.40843 0.0
H602 H 0.02064 0.51567 0.34237 0.0
H603 H 0.95422 0.48274 0.39596 0.0
H604 H 0.99676 0.40743 0.36899 0.0
H605 H 0.01554 0.47109 0.35333 0.0
H606 H 1.0008 0.47918 0.39639 0.0
O607 O 0.12267 0.43281 0.36693 0.0
H608 H 0.07696 0.37295 0.34243 0.0
H609 H 0.14569 0.39009 0.36953 0.0
H610 H 0.95015 0.41033 0.36813 0.0
H611 H 0.07398 0.53009 0.38459 0.0
H612 H 0.92857 0.4482 0.38168 0.0
H613 H 0.04998 0.54555 0.35808 0.0
O614 O 0.03466 0.40393 0.39171 0.0
H615 H 0.1362 0.42028 0.42996 0.0
H616 H 0.09824 0.35811 0.38777 0.0
H617 H 0.11582 0.34246 0.41635 0.0
H618 H 0.13504 0.37364 0.43766 0.0
H619 H 0.11816 0.43513 0.40128 0.0
H620 H 0.16799 0.35672 0.35207 0.0
H621 H 0.14434 0.33095 0.32955 0.0
O622 O 0.06365 0.38554 0.374 0.0
C623 C 0.05345 0.42582 0.34507 0.0
C624 C 0.10899 0.3503 0.33459 0.0
C625 C 0.148 0.36013 0.34988 0.0
N626 N 0.10999 0.38338 0.35708 0.0
C627 C 0.09689 0.36938 0.34465 0.0
C628 C 0.13527 0.37905 0.3597 0.0
C629 C 0.13472 0.34567 0.33726 0.0
C630 C 0.0579 0.49187 0.3835 0.0
N631 N 0.04176 0.47554 0.37477 0.0
C632 C 0.06111 0.51727 0.37765 0.0
C633 C 0.04767 0.52592 0.36276 0.0
C634 C 0.03122 0.50916 0.35393 0.0
C635 C 0.0285 0.48389 0.36015 0.0
C636 C 0.9634 0.46616 0.38998 0.0
C637 C 0.98752 0.42403 0.37485 0.0
C638 C 0.98977 0.464 0.39023 0.0
N639 N 1.00151 0.44318 0.38262 0.0
C640 C 0.96112 0.42554 0.37435 0.0
C641 C 0.94903 0.44678 0.38197 0.0
C642 C 0.04489 0.38407 0.38468 0.0
C643 C 0.12794 0.4065 0.42076 0.0
C644 C 0.10649 0.37182 0.39699 0.0
C645 C 0.11647 0.36283 0.41314 0.0
C646 C 0.12726 0.38033 0.42508 0.0
N647 N 0.10728 0.39751 0.39283 0.0
C648 C 0.11778 0.41479 0.40448 0.0
Co649 Co 0.4768 0.5614 0.38354 0.0
Co650 Co 0.41892 0.5861 0.37249 0.0
O651 O 0.43983 0.56086 0.38521 0.0
C652 C 0.47014 0.55842 0.42318 0.0
O653 O 0.45568 0.57905 0.42259 0.0
C654 C 0.38023 0.55304 0.35525 0.0
O655 O 0.38809 0.56224 0.33985 0.0
O656 O 0.43492 0.57566 0.3494 0.0
O657 O 0.47549 0.57304 0.35801 0.0
H658 H 0.40248 0.65595 0.32726 0.0
H659 H 0.45058 0.51412 0.39594 0.0
O660 O 0.47944 0.54912 0.40886 0.0
H661 H 0.4999 0.48722 0.3431 0.0
H662 H 0.56473 0.5275 0.39515 0.0
H663 H 0.51442 0.59774 0.36826 0.0
H664 H 0.50129 0.53229 0.35367 0.0
H665 H 0.51807 0.52657 0.39639 0.0
O666 O 0.3918 0.55913 0.36965 0.0
H667 H 0.42851 0.62452 0.3439 0.0
H668 H 0.36407 0.60071 0.37364 0.0
H669 H 0.56104 0.59933 0.36659 0.0
H670 H 0.44885 0.46875 0.38593 0.0
H671 H 0.58653 0.56403 0.3801 0.0
H672 H 0.47361 0.45507 0.35931 0.0
O673 O 0.47735 0.59809 0.39162 0.0
H674 H 0.37939 0.56958 0.43255 0.0
H675 H 0.40895 0.63658 0.3906 0.0
H676 H 0.3912 0.64948 0.41976 0.0
H677 H 0.37619 0.61586 0.44095 0.0
H678 H 0.39752 0.5575 0.40332 0.0
H679 H 0.33733 0.63183 0.35728 0.0
H680 H 0.35653 0.65975 0.33392 0.0
O681 O 0.44509 0.6137 0.37539 0.0
C682 C 0.45855 0.57449 0.34587 0.0
C683 C 0.39389 0.64391 0.33742 0.0
C684 C 0.35733 0.63038 0.35427 0.0
N685 N 0.39786 0.61083 0.35975 0.0
C686 C 0.40854 0.62608 0.3469 0.0
C687 C 0.37257 0.61279 0.36349 0.0
C688 C 0.36812 0.64603 0.34116 0.0
C689 C 0.46151 0.50826 0.3844 0.0
N690 N 0.47608 0.52581 0.37545 0.0
C691 C 0.46041 0.48257 0.37877 0.0
C692 C 0.47429 0.47491 0.36383 0.0
C693 C 0.48904 0.49294 0.35472 0.0
C694 C 0.48968 0.51846 0.36074 0.0
C695 C 0.55384 0.54298 0.38919 0.0
C696 C 0.52536 0.58224 0.37409 0.0
C697 C 0.5274 0.54259 0.38989 0.0
N698 N 0.51351 0.562 0.3823 0.0
C699 C 0.55176 0.58328 0.37314 0.0
C700 C 0.56605 0.56347 0.38074 0.0
C701 C 0.46486 0.61688 0.38497 0.0
C702 C 0.38578 0.58441 0.42341 0.0
C703 C 0.40255 0.62182 0.39976 0.0
C704 C 0.39246 0.62925 0.41625 0.0
C705 C 0.38403 0.61038 0.42812 0.0
N706 N 0.40412 0.5963 0.3952 0.0
C707 C 0.39597 0.57769 0.40681 0.0
Co708 Co 0.46725 0.43929 0.88345 0.0
Co709 Co 0.41237 0.40882 0.87156 0.0
O710 O 0.43026 0.43607 0.88471 0.0
C711 C 0.46029 0.44161 0.92315 0.0
O712 O 0.44805 0.41954 0.9227 0.0
C713 C 0.38085 0.45565 0.86355 0.0
O714 O 0.40136 0.46963 0.86138 0.0
O715 O 0.42781 0.42087 0.84865 0.0
O716 O 0.46763 0.42748 0.85796 0.0
H717 H 0.40536 0.33699 0.82663 0.0
H718 H 0.43673 0.48384 0.89581 0.0
O719 O 0.46831 0.45184 0.90876 0.0
H720 H 0.48305 0.51523 0.84282 0.0
H721 H 0.5511 0.48232 0.89557 0.0
H722 H 0.50862 0.40685 0.86876 0.0
H723 H 0.48883 0.47059 0.85351 0.0
H724 H 0.50457 0.4784 0.8964 0.0
O725 O 0.3825 0.43191 0.86769 0.0
H726 H 0.42737 0.3709 0.8438 0.0
H727 H 0.35906 0.38946 0.87091 0.0
H728 H 0.55518 0.41011 0.8675 0.0
H729 H 0.43062 0.52876 0.8857 0.0
H730 H 0.57673 0.44806 0.88097 0.0
H731 H 0.45382 0.54469 0.85899 0.0
O732 O 0.47138 0.40282 0.8916 0.0
H733 H 0.36954 0.42153 0.9309 0.0
H734 H 0.40591 0.35752 0.88939 0.0
H735 H 0.38836 0.34298 0.91824 0.0
H736 H 0.36995 0.3751 0.93921 0.0
H737 H 0.38753 0.43524 0.90196 0.0
H738 H 0.33626 0.35591 0.85391 0.0
H739 H 0.35947 0.32932 0.83164 0.0
O740 O 0.44101 0.38418 0.87517 0.0
C741 C 0.45135 0.42433 0.84554 0.0
C742 C 0.39505 0.34841 0.83632 0.0
C743 C 0.35627 0.35905 0.85162 0.0
N744 N 0.39456 0.38209 0.8584 0.0
C745 C 0.40742 0.36762 0.84611 0.0
C746 C 0.36926 0.37808 0.86116 0.0
C747 C 0.3693 0.34413 0.83913 0.0
C748 C 0.44705 0.49071 0.88427 0.0
N749 N 0.46315 0.47462 0.87529 0.0
C750 C 0.44345 0.51613 0.87857 0.0
C751 C 0.45644 0.52504 0.86356 0.0
C752 C 0.47283 0.50852 0.85448 0.0
C753 C 0.47595 0.48322 0.86056 0.0
C754 C 0.54193 0.46571 0.88963 0.0
C755 C 0.51783 0.42349 0.87458 0.0
C756 C 0.51558 0.46335 0.89009 0.0
N757 N 0.50386 0.44249 0.88253 0.0
C758 C 0.54422 0.4252 0.87386 0.0
C759 C 0.55629 0.44648 0.88143 0.0
C760 C 0.46074 0.38288 0.88496 0.0
C761 C 0.37747 0.40735 0.92186 0.0
C762 C 0.39806 0.37163 0.89847 0.0
C763 C 0.38807 0.36327 0.91477 0.0
C764 C 0.37773 0.3813 0.92652 0.0
N765 N 0.3977 0.39721 0.89397 0.0
C766 C 0.38761 0.41499 0.90543 0.0
Co767 Co 0.0375 0.56434 0.88249 0.0
Co768 Co 0.0906 0.59715 0.87044 0.0
O769 O 0.07421 0.56939 0.884 0.0
C770 C 0.04437 0.56259 0.92221 0.0
O771 O 0.05618 0.5849 0.92163 0.0
C772 C 0.12522 0.55254 0.86312 0.0
O773 O 0.10567 0.53809 0.8589 0.0
O774 O 0.07668 0.58281 0.8477 0.0
O775 O 0.0369 0.57587 0.85687 0.0
H776 H 0.0947 0.66664 0.82359 0.0
H777 H 0.07023 0.52157 0.89497 0.0
O778 O 0.03668 0.55195 0.90785 0.0
H779 H 0.02532 0.48732 0.84218 0.0
H780 H 0.95543 0.51773 0.89422 0.0
H781 H 0.995 0.59475 0.86736 0.0
H782 H 0.0173 0.53168 0.85272 0.0
H783 H 1.00174 0.52371 0.89536 0.0
O784 O 0.122 0.57585 0.86797 0.0
H785 H 0.07425 0.63235 0.84131 0.0
H786 H 0.14253 0.62001 0.87018 0.0
H787 H 0.94864 0.58942 0.86577 0.0
H788 H 0.07866 0.47698 0.88498 0.0
H789 H 0.92855 0.55068 0.87927 0.0
H790 H 0.05615 0.45962 0.85838 0.0
O791 O 0.03195 0.60063 0.89059 0.0
H792 H 0.13216 0.59134 0.9308 0.0
H793 H 0.09251 0.64977 0.88685 0.0
H794 H 0.1079 0.66734 0.91552 0.0
H795 H 0.12796 0.63805 0.93772 0.0
H796 H 0.11627 0.57453 0.90201 0.0
H797 H 0.16378 0.65403 0.85266 0.0
H798 H 0.13979 0.67768 0.82921 0.0
O799 O 0.0602 0.61996 0.87275 0.0
C800 C 0.05327 0.57873 0.84446 0.0
C801 C 0.10534 0.65651 0.83379 0.0
C802 C 0.14411 0.64941 0.85009 0.0
N803 N 0.10713 0.62425 0.85683 0.0
C804 C 0.09385 0.6371 0.8439 0.0
C805 C 0.132 0.6301 0.85993 0.0
C806 C 0.13064 0.66268 0.83694 0.0
C807 C 0.06024 0.51407 0.88346 0.0
N808 N 0.04325 0.52918 0.87448 0.0
C809 C 0.06514 0.48884 0.87783 0.0
C810 C 0.05253 0.47912 0.86289 0.0
C811 C 0.03524 0.49467 0.85379 0.0
C812 C 0.03083 0.5198 0.8598 0.0
C813 C 0.96396 0.53468 0.88827 0.0
C814 C 0.98642 0.57779 0.8732 0.0
C815 C 0.99017 0.53821 0.88892 0.0
N816 N 1.00109 0.5595 0.88135 0.0
C817 C 0.96015 0.5749 0.87228 0.0
C818 C 0.94889 0.55317 0.87987 0.0
C819 C 0.04118 0.62075 0.88323 0.0
C820 C 0.12352 0.60431 0.92121 0.0
C821 C 0.10114 0.63688 0.89645 0.0
C822 C 0.10987 0.64695 0.91265 0.0
C823 C 0.12113 0.63051 0.9251 0.0
N824 N 0.10359 0.61115 0.89273 0.0
C825 C 0.11457 0.59491 0.90487 0.0
Co826 Co 0.9714 0.56651 0.62658 0.0
Co827 Co 0.91622 0.59632 0.63822 0.0
O828 O 0.93443 0.56939 0.62505 0.0
C829 C 0.96508 0.56425 0.58678 0.0
O830 O 0.95299 0.58642 0.58711 0.0
C831 C 0.88463 0.54968 0.64651 0.0
O832 O 0.90508 0.5363 0.65028 0.0
O833 O 0.9313 0.58387 0.66117 0.0
O834 O 0.97136 0.57821 0.65212 0.0
H835 H 0.90796 0.66707 0.68387 0.0
H836 H 0.94108 0.52186 0.61414 0.0
O837 O 0.97282 0.55399 0.60126 0.0
H838 H 0.98753 0.49056 0.66715 0.0
H839 H 0.05579 0.52436 0.61491 0.0
H840 H 0.01227 0.59924 0.64166 0.0
H841 H 0.99318 0.53522 0.65648 0.0
H842 H 0.00923 0.52785 0.61375 0.0
O843 O 0.88638 0.57303 0.64142 0.0
H844 H 0.93046 0.63363 0.66659 0.0
H845 H 0.86287 0.61564 0.63836 0.0
H846 H 0.05884 0.59641 0.64324 0.0
H847 H 0.93506 0.47694 0.62426 0.0
H848 H 0.08091 0.55875 0.6298 0.0
H849 H 0.95834 0.46105 0.65098 0.0
O850 O 0.97522 0.60309 0.61851 0.0
H851 H 0.8748 0.58467 0.57824 0.0
H852 H 0.90981 0.64798 0.62085 0.0
H853 H 0.89287 0.66304 0.59194 0.0
H854 H 0.87514 0.63127 0.5704 0.0
H855 H 0.89219 0.57043 0.60726 0.0
H856 H 0.83958 0.64872 0.65545 0.0
H857 H 0.86217 0.67479 0.67835 0.0
O858 O 0.94481 0.62113 0.63519 0.0
C859 C 0.95484 0.58073 0.66446 0.0
C860 C 0.89791 0.65586 0.67391 0.0
C861 C 0.85953 0.64554 0.65798 0.0
N862 N 0.89802 0.62272 0.65145 0.0
C863 C 0.91056 0.63691 0.66407 0.0
C864 C 0.8728 0.62676 0.64839 0.0
C865 C 0.87222 0.66017 0.67082 0.0
C866 C 0.95142 0.51502 0.6257 0.0
N867 N 0.96751 0.53113 0.63467 0.0
C868 C 0.94788 0.48959 0.6314 0.0
C869 C 0.96092 0.4807 0.6464 0.0
C870 C 0.97728 0.49725 0.65549 0.0
C871 C 0.98035 0.52255 0.64941 0.0
C872 C 0.04639 0.54084 0.62084 0.0
C873 C 0.02171 0.58273 0.63585 0.0
C874 C 0.02003 0.54296 0.62018 0.0
N875 N 0.00802 0.56366 0.62773 0.0
C876 C 0.0481 0.58126 0.63676 0.0
C877 C 0.06047 0.56014 0.6292 0.0
C878 C 0.96439 0.62282 0.6253 0.0
C879 C 0.88244 0.5987 0.58752 0.0
C880 C 0.90227 0.63402 0.61153 0.0
C881 C 0.89262 0.64268 0.59519 0.0
C882 C 0.88266 0.62485 0.58312 0.0
N883 N 0.90197 0.60835 0.61576 0.0
C884 C 0.89224 0.59076 0.60399 0.0
Co885 Co 0.54183 0.44277 0.62912 0.0
Co886 Co 0.59394 0.40896 0.64225 0.0
O887 O 0.57846 0.43685 0.62824 0.0
C888 C 0.54959 0.44322 0.5895 0.0
O889 O 0.56068 0.42056 0.5905 0.0
C890 C 0.6289 0.45334 0.64922 0.0
O891 O 0.60937 0.46859 0.65178 0.0
O892 O 0.57952 0.42376 0.66467 0.0
O893 O 0.54025 0.43183 0.65483 0.0
H894 H 0.59523 0.3399 0.6895 0.0
H895 H 0.57559 0.4846 0.6165 0.0
O896 O 0.54199 0.45453 0.60362 0.0
H897 H 0.53033 0.52095 0.66843 0.0
H898 H 0.46118 0.49102 0.61562 0.0
H899 H 0.49822 0.41373 0.64392 0.0
H900 H 0.52173 0.4765 0.65832 0.0
H901 H 0.50737 0.48393 0.61527 0.0
O902 O 0.6256 0.42968 0.64532 0.0
H903 H 0.57601 0.3744 0.67127 0.0
H904 H 0.64542 0.38511 0.64354 0.0
H905 H 0.45195 0.42018 0.64472 0.0
H906 H 0.58458 0.52928 0.62604 0.0
H907 H 0.43314 0.45906 0.63049 0.0
H908 H 0.56191 0.5477 0.65221 0.0
O909 O 0.53562 0.40645 0.62136 0.0
H910 H 0.63776 0.41348 0.58269 0.0
H911 H 0.59547 0.35618 0.62608 0.0
H912 H 0.61158 0.33809 0.59778 0.0
H913 H 0.63296 0.3668 0.57586 0.0
H914 H 0.62114 0.43083 0.6111 0.0
H915 H 0.66546 0.35087 0.66158 0.0
H916 H 0.64029 0.32793 0.68471 0.0
O917 O 0.56328 0.3867 0.63948 0.0
C918 C 0.55612 0.42846 0.6675 0.0
C919 C 0.60639 0.34972 0.67943 0.0
C920 C 0.64581 0.35589 0.66378 0.0
N921 N 0.60952 0.3817 0.65628 0.0
C922 C 0.59559 0.36924 0.66904 0.0
C923 C 0.63438 0.37533 0.65364 0.0
C924 C 0.63167 0.34302 0.67675 0.0
C925 C 0.56551 0.49257 0.62781 0.0
N926 N 0.54812 0.47798 0.63681 0.0
C927 C 0.57074 0.51784 0.63319 0.0
C928 C 0.55804 0.52815 0.64789 0.0
C929 C 0.54033 0.51315 0.657 0.0
C930 C 0.53561 0.48795 0.65125 0.0
C931 C 0.46915 0.47402 0.62188 0.0
C932 C 0.4902 0.43075 0.63777 0.0
C933 C 0.49529 0.46986 0.62168 0.0
N934 N 0.50551 0.4485 0.62965 0.0
C935 C 0.46398 0.43428 0.63824 0.0
C936 C 0.45343 0.45609 0.63024 0.0
C937 C 0.54429 0.38625 0.62895 0.0
C938 C 0.62854 0.40076 0.59215 0.0
C939 C 0.60468 0.36883 0.6166 0.0
C940 C 0.61381 0.35845 0.60061 0.0
C941 C 0.62582 0.37457 0.58832 0.0
N942 N 0.60747 0.39453 0.62028 0.0
C943 C 0.61918 0.41046 0.60829 0.0
H944 H 0.35546 0.96522 0.12562 0.0
H945 H 0.31208 0.98145 0.12438 0.0
H946 H 0.30934 0.98356 0.18203 0.0
H947 H 0.35258 0.96673 0.18343 0.0
H948 H 0.26817 0.95966 0.16806 0.0
H949 H 0.28361 0.0526 0.13299 0.0
H950 H 0.29619 0.02542 0.12106 0.0
H951 H 0.30929 0.03412 0.14247 0.0
C952 C 0.34586 0.96962 0.13806 0.0
C953 C 0.35759 0.96474 0.15464 0.0
C954 C 0.32101 0.97895 0.13731 0.0
C955 C 0.30747 0.98397 0.15311 0.0
C956 C 0.31939 0.97984 0.16967 0.0
H957 H 0.16681 0.06827 0.15976 0.0
H958 H 0.20997 0.0521 0.16226 0.0
C959 C 0.34419 0.97035 0.17044 0.0
C960 C 0.2805 0.99222 0.15239 0.0
H961 H 0.24093 0.03846 0.13568 0.0
C962 C 0.26221 0.97696 0.16105 0.0
C963 C 0.27273 0.01487 0.14335 0.0
C964 C 0.2915 0.03285 0.13459 0.0
C965 C 0.2364 0.98367 0.16085 0.0
C966 C 0.22856 0.00596 0.15141 0.0
C967 C 0.24688 0.02124 0.1428 0.0
C968 C 0.20168 0.01462 0.15089 0.0
C969 C 0.2179 0.96716 0.17114 0.0
C970 C 0.18241 0.99881 0.14387 0.0
C971 C 0.15744 0.00796 0.1426 0.0
C972 C 0.15146 0.03322 0.14805 0.0
C973 C 0.17075 0.04876 0.15533 0.0
C974 C 0.19551 0.03956 0.15675 0.0
H975 H 0.2276 0.95516 0.18138 0.0
H976 H 0.20337 0.97922 0.17789 0.0
H977 H 0.20809 0.95395 0.16172 0.0
H978 H 0.18677 0.97968 0.13892 0.0
H979 H 0.14306 0.99563 0.13678 0.0
H980 H 0.6756 0.92387 0.36205 0.0
H981 H 0.71828 0.94176 0.36126 0.0
H982 H 0.68742 0.01878 0.35948 0.0
H983 H 0.6443 1.001 0.36033 0.0
H984 H 0.74077 0.97515 0.33489 0.0
H985 H 0.73735 0.0192 0.40272 0.0
H986 H 0.71504 0.99491 0.39549 0.0
H987 H 0.71183 0.02762 0.38787 0.0
C988 C 0.67776 0.94465 0.36149 0.0
C989 C 0.65645 0.96102 0.36134 0.0
C990 C 0.70224 0.95482 0.361 0.0
C991 C 0.70603 0.98157 0.3605 0.0
C992 C 0.68488 0.99805 0.3601 0.0
H993 H 0.8393 0.0779 0.36464 0.0
H994 H 0.79679 0.05997 0.36315 0.0
C995 C 0.66027 0.98787 0.3605 0.0
C996 C 0.73221 0.99201 0.36051 0.0
H997 H 0.77424 0.02653 0.38567 0.0
C998 C 0.74814 0.9864 0.34597 0.0
C999 C 0.74176 0.00654 0.37503 0.0
C1000 C 0.72575 0.01233 0.39126 0.0
C1001 C 0.77326 0.99541 0.3454 0.0
C1002 C 0.78287 0.00989 0.35997 0.0
C1003 C 0.7669 0.0154 0.37452 0.0
C1004 C 0.80911 0.02037 0.3602 0.0
C1005 C 0.78903 0.98989 0.32901 0.0
C1006 C 0.83037 0.00408 0.35907 0.0
C1007 C 0.85495 0.01435 0.35979 0.0
C1008 C 0.85865 0.04107 0.3619 0.0
C1009 C 0.83726 0.05723 0.36306 0.0
C1010 C 0.81284 0.04701 0.36222 0.0
H1011 H 0.77705 0.9847 0.31732 0.0
H1012 H 0.80087 0.00682 0.32539 0.0
H1013 H 0.8018 0.97337 0.33181 0.0
H1014 H 0.82799 0.98338 0.35791 0.0
H1015 H 0.87099 1.00136 0.359 0.0
H1016 H 0.85231 0.94777 0.84561 0.0
H1017 H 0.80822 0.96169 0.84328 0.0
H1018 H 0.81898 0.01254 0.88841 0.0
H1019 H 0.8635 0.99962 0.89017 0.0
H1020 H 0.77165 0.95493 0.86547 0.0
H1021 H 0.78224 0.06028 0.85624 0.0
H1022 H 0.80878 0.03849 0.85477 0.0
H1023 H 0.79769 0.04955 0.87626 0.0
C1024 C 0.8454 0.96236 0.85478 0.0
C1025 C 0.86141 0.9728 0.86796 0.0
C1026 C 0.82015 0.97021 0.8535 0.0
C1027 C 0.8102 0.98843 0.86553 0.0
C1028 C 0.82628 0.99906 0.87862 0.0
H1029 H 0.64912 0.00267 0.88997 0.0
H1030 H 0.69341 0.98888 0.88836 0.0
C1031 C 0.85174 0.99159 0.87966 0.0
C1032 C 0.78272 0.99499 0.86497 0.0
H1033 H 0.74101 0.04536 0.86442 0.0
C1034 C 0.76498 0.97473 0.86506 0.0
C1035 C 0.77387 0.02078 0.86421 0.0
C1036 C 0.79166 0.04348 0.86267 0.0
C1037 C 0.73878 0.9795 0.86458 0.0
C1038 C 0.72993 0.0053 0.86474 0.0
C1039 C 0.74767 0.02555 0.86446 0.0
C1040 C 0.70246 0.01195 0.86502 0.0
C1041 C 0.72098 0.95675 0.86348 0.0
C1042 C 0.6927 0.02976 0.85263 0.0
C1043 C 0.6676 0.03811 0.85381 0.0
C1044 C 0.65154 0.02854 0.86726 0.0
C1045 C 0.66093 0.00999 0.87926 0.0
C1046 C 0.68627 1.00204 0.87831 0.0
H1047 H 0.73043 0.93965 0.85747 0.0
H1048 H 0.71488 0.95132 0.87718 0.0
H1049 H 0.7039 0.96138 0.85542 0.0
H1050 H 0.70471 0.03771 0.84225 0.0
H1051 H 0.66089 0.05251 0.84442 0.0
H1052 H 0.15802 0.95583 0.66579 0.0
H1053 H 0.20167 0.97102 0.6684 0.0
H1054 H 0.1905 0.02044 0.62256 0.0
H1055 H 0.14637 0.00626 0.62053 0.0
H1056 H 0.23809 0.96376 0.64631 0.0
H1057 H 0.22723 0.06933 0.65392 0.0
H1058 H 0.20074 0.04753 0.65574 0.0
H1059 H 0.21177 0.05795 0.63409 0.0
C1060 C 0.16471 0.97046 0.65657 0.0
C1061 C 0.14875 0.98006 0.64306 0.0
C1062 C 0.18971 0.97903 0.658 0.0
C1063 C 0.19946 0.99709 0.64579 0.0
C1064 C 0.18334 0.00708 0.63248 0.0
H1065 H 0.36004 0.00994 0.62032 0.0
H1066 H 0.31555 0.99709 0.62221 0.0
C1067 C 0.1581 0.99891 0.63128 0.0
C1068 C 0.22691 0.0038 0.64622 0.0
H1069 H 0.26851 0.05427 0.64577 0.0
C1070 C 0.2447 0.98359 0.64639 0.0
C1071 C 0.23569 0.02963 0.64653 0.0
C1072 C 0.21783 0.05231 0.64776 0.0
C1073 C 0.27088 0.98841 0.64665 0.0
C1074 C 0.27965 0.01422 0.646 0.0
C1075 C 0.26188 0.03445 0.64608 0.0
C1076 C 0.30711 0.02082 0.64534 0.0
C1077 C 0.28873 0.96574 0.64804 0.0
C1078 C 0.31723 0.03881 0.65746 0.0
C1079 C 0.34249 0.04662 0.65612 0.0
C1080 C 0.35831 0.03637 0.64276 0.0
C1081 C 0.34844 0.01783 0.63094 0.0
C1082 C 0.32299 0.01039 0.63207 0.0
H1083 H 0.27939 0.94886 0.65442 0.0
H1084 H 0.29468 0.95981 0.63441 0.0
H1085 H 0.3059 0.97068 0.65592 0.0
H1086 H 0.30544 0.04717 0.66781 0.0
H1087 H 0.34954 0.06101 0.66539 0.0
H1088 H 0.85108 0.4522 0.16481 0.0
H1089 H 0.80689 0.46608 0.16618 0.0
H1090 H 0.81862 0.51471 0.12004 0.0
H1091 H 0.86328 0.50188 0.11923 0.0
H1092 H 0.78844 0.53794 0.1422 0.0
H1093 H 0.75342 0.43798 0.13439 0.0
H1094 H 0.77252 0.44128 0.15408 0.0
H1095 H 0.78648 0.44609 0.13232 0.0
C1096 C 0.84431 0.46618 0.15513 0.0
C1097 C 0.86059 0.4759 0.14187 0.0
C1098 C 0.81895 0.47384 0.15578 0.0
C1099 C 0.8091 0.49074 0.14283 0.0
C1100 C 0.82566 0.50144 0.13008 0.0
H1101 H 0.64781 0.50451 0.11896 0.0
H1102 H 0.69261 0.49226 0.11987 0.0
C1103 C 0.85122 0.4942 0.12967 0.0
C1104 C 0.78154 0.49697 0.14242 0.0
H1105 H 0.7226 0.46963 0.1423 0.0
C1106 C 0.77406 0.52298 0.14213 0.0
C1107 C 0.76267 0.4775 0.1419 0.0
C1108 C 0.76917 0.44918 0.14048 0.0
C1109 C 0.74837 0.53007 0.14164 0.0
C1110 C 0.72949 0.5106 0.14221 0.0
C1111 C 0.73698 0.48459 0.14219 0.0
C1112 C 0.70192 0.5168 0.14242 0.0
C1113 C 0.74188 0.55836 0.13996 0.0
C1114 C 0.69191 0.53391 0.15518 0.0
C1115 C 0.66646 0.54125 0.15446 0.0
C1116 C 0.65024 0.531 0.14133 0.0
C1117 C 0.65982 0.51261 0.12929 0.0
C1118 C 0.68546 0.50569 0.12976 0.0
H1119 H 0.75767 0.56945 0.13384 0.0
H1120 H 0.72462 0.56131 0.13171 0.0
H1121 H 0.73846 0.56649 0.15348 0.0
H1122 H 0.70389 0.54199 0.16552 0.0
H1123 H 0.65953 0.5553 0.16403 0.0
H1124 H 0.35176 0.5332 0.32787 0.0
H1125 H 0.30821 0.5172 0.32938 0.0
H1126 H 0.3077 0.5297 0.38645 0.0
H1127 H 0.35143 0.54485 0.38514 0.0
H1128 H 0.28507 0.48587 0.37873 0.0
H1129 H 0.24641 0.56169 0.33423 0.0
H1130 H 0.27076 0.54309 0.32357 0.0
H1131 H 0.27837 0.56269 0.34274 0.0
C1132 C 0.34246 0.53227 0.34077 0.0
C1133 C 0.35508 0.54039 0.35636 0.0
C1134 C 0.31744 0.52341 0.34158 0.0
C1135 C 0.30437 0.52295 0.35795 0.0
C1136 C 0.31727 0.53009 0.37363 0.0
H1137 H 0.13914 0.5075 0.3675 0.0
H1138 H 0.1826 0.52453 0.36669 0.0
C1139 C 0.34236 0.53866 0.37286 0.0
C1140 C 0.27732 0.51489 0.35883 0.0
H1141 H 0.21864 0.52674 0.34124 0.0
C1142 C 0.27055 0.49492 0.37059 0.0
C1143 C 0.25818 0.52708 0.34854 0.0
C1144 C 0.26372 0.55001 0.33671 0.0
C1145 C 0.2454 0.48636 0.37201 0.0
C1146 C 0.22653 0.49749 0.36093 0.0
C1147 C 0.23313 0.51795 0.34954 0.0
C1148 C 0.20005 0.48768 0.36071 0.0
C1149 C 0.2393 0.46573 0.38562 0.0
C1150 C 0.19532 0.46155 0.35708 0.0
C1151 C 0.17071 0.45181 0.35773 0.0
C1152 C 0.1501 0.46807 0.36167 0.0
C1153 C 0.15463 0.49451 0.36447 0.0
C1154 C 0.17944 0.50422 0.36404 0.0
H1155 H 0.25333 0.46557 0.39671 0.0
H1156 H 0.22013 0.46852 0.3914 0.0
H1157 H 0.23996 0.44654 0.37904 0.0
H1158 H 0.21074 0.44857 0.35386 0.0
H1159 H 0.16786 0.43143 0.3552 0.0
H1160 H 0.14107 0.50297 0.85557 0.0
H1161 H 0.18486 0.48686 0.85491 0.0
H1162 H 0.21231 0.56303 0.86778 0.0
H1163 H 0.16907 0.57907 0.86881 0.0
H1164 H 0.22583 0.50202 0.83389 0.0
H1165 H 0.24678 0.51922 0.90559 0.0
H1166 H 0.21499 0.51992 0.89673 0.0
H1167 H 0.23543 0.54748 0.89426 0.0
C1168 C 0.15645 0.51623 0.85832 0.0
C1169 C 0.15147 0.54227 0.86237 0.0
C1170 C 0.18145 0.50702 0.85792 0.0
C1171 C 0.20185 0.52364 0.86164 0.0
C1172 C 0.1969 0.54969 0.86532 0.0
H1173 H 0.36701 0.50695 0.86395 0.0
H1174 H 0.32376 0.52458 0.86235 0.0
C1175 C 0.17206 0.55886 0.86579 0.0
C1176 C 0.2284 0.51409 0.8614 0.0
H1177 H 0.28202 0.5095 0.8869 0.0
C1178 C 0.23806 0.50352 0.84551 0.0
C1179 C 0.24441 0.51614 0.87656 0.0
C1180 C 0.23484 0.52607 0.8943 0.0
C1181 C 0.26339 0.49529 0.8443 0.0
C1182 C 0.27938 0.49754 0.85941 0.0
C1183 C 0.26977 0.50812 0.87528 0.0
C1184 C 0.30564 0.48735 0.8594 0.0
C1185 C 0.27297 0.48448 0.82682 0.0
C1186 C 0.30969 0.46067 0.85834 0.0
C1187 C 0.33416 0.45061 0.85938 0.0
C1188 C 0.35522 0.46702 0.86148 0.0
C1189 C 0.35121 0.49384 0.86225 0.0
C1190 C 0.32655 0.50391 0.86138 0.0
H1191 H 0.26034 0.48958 0.81546 0.0
H1192 H 0.29235 0.49168 0.82392 0.0
H1193 H 0.27386 0.46312 0.82778 0.0
H1194 H 0.29381 0.44754 0.85705 0.0
H1195 H 0.33651 0.42987 0.85866 0.0
H1196 H 0.64526 0.50382 0.65058 0.0
H1197 H 0.6893 0.51917 0.65111 0.0
H1198 H 0.71582 0.44043 0.65177 0.0
H1199 H 0.67231 0.42503 0.65087 0.0
H1200 H 0.72803 0.51128 0.67544 0.0
H1201 H 0.75434 0.4697 0.60965 0.0
H1202 H 0.72189 0.47214 0.61702 0.0
H1203 H 0.74173 0.44626 0.62489 0.0
C1204 C 0.6605 0.48981 0.65084 0.0
C1205 C 0.65523 0.46321 0.65047 0.0
C1206 C 0.68564 0.4986 0.65113 0.0
C1207 C 0.70588 0.48093 0.65106 0.0
C1208 C 0.70058 0.45442 0.6513 0.0
H1209 H 0.8714 0.49881 0.65233 0.0
H1210 H 0.82831 0.48094 0.6546 0.0
C1211 C 0.6756 0.44566 0.65088 0.0
C1212 C 0.73258 0.49005 0.65088 0.0
H1213 H 0.78805 0.48608 0.62742 0.0
C1214 C 0.74111 0.50585 0.66491 0.0
C1215 C 0.74971 0.48286 0.63716 0.0
C1216 C 0.74143 0.46702 0.62124 0.0
C1217 C 0.76633 0.51446 0.66566 0.0
C1218 C 0.78341 0.50726 0.65195 0.0
C1219 C 0.77497 0.49131 0.63801 0.0
C1220 C 0.80952 0.51774 0.65112 0.0
C1221 C 0.77461 0.5311 0.68117 0.0
C1222 C 0.81313 0.54418 0.64821 0.0
C1223 C 0.83751 0.55433 0.6468 0.0
C1224 C 0.85895 0.53827 0.64827 0.0
C1225 C 0.85533 0.5117 0.65121 0.0
C1226 C 0.83076 0.50149 0.65249 0.0
H1227 H 0.76141 0.52948 0.69269 0.0
H1228 H 0.79396 0.52576 0.68568 0.0
H1229 H 0.77499 0.5516 0.67684 0.0
H1230 H 0.79702 0.55699 0.6468 0.0
H1231 H 0.83945 0.57487 0.64453 0.0
H1232 H 1.00437 0.07859 0.33393 0.0
H1233 H 0.02059 0.07943 0.30352 0.0
H1234 H 0.94448 0.08612 0.28307 0.0
H1235 H 0.92788 0.08586 0.31373 0.0
H1236 H 0.01213 0.04635 0.27603 0.0
H1237 H 0.98027 0.145 0.25759 0.0
H1238 H 0.97997 0.13344 0.28037 0.0
H1239 H 0.95532 0.12409 0.26507 0.0
C1240 C 0.99093 0.08034 0.32304 0.0
C1241 C 0.96472 0.08225 0.32636 0.0
C1242 C 1.00032 0.08078 0.30561 0.0
C1243 C 0.98384 0.08319 0.291 0.0
C1244 C 0.95762 0.0848 0.29416 0.0
H1245 H 0.006 0.08111 0.17665 0.0
H1246 H 0.98984 0.08182 0.20712 0.0
C1247 C 0.94814 0.08447 0.31169 0.0
C1248 C 0.99433 0.08344 0.27255 0.0
H1249 H 0.9985 0.11971 0.23446 0.0
C1250 C 0.00923 0.06244 0.26697 0.0
C1251 C 0.99063 0.1045 0.26076 0.0
C1252 C 0.97588 0.12816 0.26626 0.0
C1253 C 0.02017 0.06174 0.24984 0.0
C1254 C 0.01636 0.08272 0.23805 0.0
C1255 C 1.00146 0.1037 0.24358 0.0
C1256 C 0.02676 0.08274 0.21961 0.0
C1257 C 0.03526 0.03831 0.24433 0.0
C1258 C 0.053 0.08333 0.21648 0.0
C1259 C 0.06246 0.08298 0.19895 0.0
C1260 C 0.04579 0.08199 0.18426 0.0
C1261 C 0.0195 0.08174 0.18756 0.0
C1262 C 0.01014 0.0822 0.20501 0.0
H1263 H 0.03228 0.02178 0.25357 0.0
H1264 H 0.0301 0.0322 0.23056 0.0
H1265 H 0.05573 0.0432 0.2444 0.0
H1266 H 0.06615 0.0841 0.2276 0.0
H1267 H 0.08277 0.08332 0.19692 0.0
H1268 H 0.50755 0.91991 0.177 0.0
H1269 H 0.52226 0.92041 0.20782 0.0
H1270 H 0.44547 0.9302 0.22624 0.0
H1271 H 0.43032 0.92921 0.19521 0.0
H1272 H 0.5183 0.95922 0.23218 0.0
H1273 H 0.47023 0.87107 0.25746 0.0
H1274 H 0.47258 0.8784 0.2339 0.0
H1275 H 0.44945 0.89452 0.24755 0.0
C1276 C 0.49362 0.92198 0.18754 0.0
C1277 C 0.46765 0.92451 0.18354 0.0
C1278 C 0.50215 0.9223 0.20521 0.0
C1279 C 0.48501 0.92511 0.21939 0.0
C1280 C 0.45903 0.92752 0.21554 0.0
H1281 H 0.50953 0.93628 0.3343 0.0
H1282 H 0.49192 0.93712 0.30413 0.0
C1283 C 0.4504 0.92707 0.19778 0.0
C1284 C 0.49474 0.92634 0.23805 0.0
H1285 H 0.49263 0.89616 0.27869 0.0
C1286 C 0.51269 0.94541 0.24234 0.0
C1287 C 0.48742 0.90832 0.25132 0.0
C1288 C 0.46904 0.88676 0.24735 0.0
C1289 C 0.52346 0.94699 0.2595 0.0
C1290 C 0.51631 0.92885 0.2727 0.0
C1291 C 0.49811 0.91001 0.26852 0.0
C1292 C 0.52749 0.92909 0.29094 0.0
C1293 C 0.54216 0.96827 0.26345 0.0
C1294 C 0.55341 0.92427 0.29356 0.0
C1295 C 0.56365 0.92373 0.31086 0.0
C1296 C 0.54811 0.92797 0.32588 0.0
C1297 C 0.52216 0.93298 0.32311 0.0
C1298 C 0.51198 0.93342 0.30585 0.0
H1299 H 0.54112 0.98403 0.25339 0.0
H1300 H 0.5388 0.97658 0.27695 0.0
H1301 H 0.56164 0.96022 0.26321 0.0
H1302 H 0.56566 0.92048 0.28224 0.0
H1303 H 0.58364 0.91964 0.31246 0.0
H1304 H 0.00575 0.92428 0.67636 0.0
H1305 H 0.9907 0.9237 0.70713 0.0
H1306 H 0.06777 0.92338 0.72623 0.0
H1307 H 0.08323 0.92425 0.69528 0.0
H1308 H 0.99967 0.88737 0.73426 0.0
H1309 H 0.03534 0.98471 0.75287 0.0
H1310 H 0.03313 0.97402 0.72992 0.0
H1311 H 0.05869 0.96306 0.74387 0.0
C1312 C 0.01964 0.92413 0.68703 0.0
C1313 C 0.0458 0.92453 0.68327 0.0
C1314 C 0.01092 0.92375 0.70466 0.0
C1315 C 0.02807 0.92386 0.71897 0.0
C1316 C 0.0542 0.92376 0.71536 0.0
H1317 H 0.00866 0.92686 0.83392 0.0
H1318 H 0.02454 0.92561 0.80336 0.0
C1319 C 0.063 0.92412 0.69766 0.0
C1320 C 0.01837 0.92398 0.73761 0.0
H1321 H 0.01635 0.96006 0.77584 0.0
C1322 C 1.00329 0.90325 0.74336 0.0
C1323 C 0.02305 0.94478 0.74942 0.0
C1324 C 0.03825 0.96804 0.74373 0.0
C1325 C 0.99307 0.90257 0.76072 0.0
C1326 C 0.99766 0.92342 0.77251 0.0
C1327 C 0.0128 0.94412 0.76676 0.0
C1328 C 0.9875 0.9239 0.79105 0.0
C1329 C 0.97791 0.87927 0.76639 0.0
C1330 C 0.96129 0.92357 0.79433 0.0
C1331 C 0.95203 0.92424 0.8119 0.0
C1332 C 0.96883 0.92544 0.8265 0.0
C1333 C 0.99507 0.92595 0.82307 0.0
C1334 C 1.00426 0.92526 0.80557 0.0
H1335 H 0.9815 0.8624 0.75756 0.0
H1336 H 0.9824 0.87374 0.78039 0.0
H1337 H 0.95742 0.88394 0.76564 0.0
H1338 H 0.94799 0.92303 0.7833 0.0
H1339 H 0.93174 0.9239 0.81401 0.0
H1340 H 0.50824 0.07285 0.67428 0.0
H1341 H 0.5257 0.07255 0.70452 0.0
H1342 H 0.4506 0.08088 0.72638 0.0
H1343 H 0.43278 0.08106 0.69613 0.0
H1344 H 0.52148 0.11148 0.73092 0.0
H1345 H 0.48005 0.01869 0.75387 0.0
H1346 H 0.48164 0.0276 0.73054 0.0
H1347 H 0.45758 0.04115 0.74471 0.0
C1348 C 0.49531 0.07444 0.68548 0.0
C1349 C 0.46901 0.07683 0.6827 0.0
C1350 C 0.5054 0.07432 0.70278 0.0
C1351 C 0.48945 0.07639 0.71771 0.0
C1352 C 0.46322 0.0788 0.71505 0.0
H1353 H 0.50805 0.08261 0.83206 0.0
H1354 H 0.49334 0.08206 0.8012 0.0
C1355 C 0.45308 0.07898 0.69772 0.0
C1356 C 0.50038 0.07669 0.73602 0.0
H1357 H 0.50027 0.04446 0.77588 0.0
C1358 C 0.51698 0.09676 0.74074 0.0
C1359 C 0.49452 0.05744 0.74878 0.0
C1360 C 0.47766 0.03485 0.74424 0.0
C1361 C 0.5273 0.09852 0.75806 0.0
C1362 C 0.52125 0.07938 0.77088 0.0
C1363 C 0.50489 0.05913 0.76606 0.0
C1364 C 0.53081 0.08044 0.78958 0.0
C1365 C 0.54392 0.12129 0.76262 0.0
C1366 C 0.55689 0.07969 0.7934 0.0
C1367 C 0.56549 0.08012 0.81116 0.0
C1368 C 0.54813 0.08106 0.82544 0.0
C1369 C 0.52204 0.08184 0.82148 0.0
C1370 C 0.51353 0.08149 0.8038 0.0
H1371 H 0.54164 0.13729 0.75285 0.0
H1372 H 0.53958 0.12872 0.77622 0.0
H1373 H 0.56405 0.11512 0.76241 0.0
H1374 H 0.57058 0.07838 0.78265 0.0
H1375 H 0.58567 0.07936 0.81368 0.0
H1376 H 0.58097 0.57994 0.19589 0.0
H1377 H 0.56515 0.57999 0.22676 0.0
H1378 H 0.48836 0.57672 0.20724 0.0
H1379 H 0.50374 0.57688 0.17657 0.0
H1380 H 0.49611 0.61376 0.23441 0.0
H1381 H 0.53413 0.51738 0.25317 0.0
H1382 H 0.55689 0.53964 0.24412 0.0
H1383 H 0.53164 0.52793 0.2302 0.0
C1384 C 0.56073 0.57919 0.19817 0.0
C1385 C 0.5437 0.57822 0.18369 0.0
C1386 C 0.55172 0.57912 0.21581 0.0
C1387 C 0.52558 0.57803 0.21927 0.0
C1388 C 0.50859 0.57747 0.20488 0.0
H1389 H 0.42988 0.57648 0.31501 0.0
H1390 H 0.44533 0.57751 0.28407 0.0
C1391 C 0.51751 0.5775 0.18731 0.0
C1392 C 0.51568 0.57762 0.23784 0.0
H1393 H 0.51435 0.54153 0.27606 0.0
C1394 C 0.50006 0.59797 0.24354 0.0
C1395 C 0.52077 0.55694 0.24965 0.0
C1396 C 0.53659 0.53408 0.244 0.0
C1397 C 0.48976 0.59844 0.26087 0.0
C1398 C 0.49484 0.57774 0.27269 0.0
C1399 C 0.51042 0.55736 0.26696 0.0
C1400 C 0.48505 0.57724 0.29132 0.0
C1401 C 0.4741 0.62141 0.26652 0.0
C1402 C 0.50219 0.5762 0.30562 0.0
C1403 C 0.49347 0.57537 0.32322 0.0
C1404 C 0.46732 0.57548 0.327 0.0
C1405 C 0.45011 0.57645 0.31262 0.0
C1406 C 0.45892 0.57721 0.29493 0.0
H1407 H 0.47718 0.63828 0.2576 0.0
H1408 H 0.45373 0.61621 0.26591 0.0
H1409 H 0.47861 0.62718 0.28047 0.0
H1410 H 0.52241 0.57615 0.30316 0.0
H1411 H 0.50738 0.57466 0.33387 0.0
H1412 H 0.08046 0.42129 0.31366 0.0
H1413 H 0.06363 0.42108 0.28304 0.0
H1414 H 0.98777 0.42877 0.30369 0.0
H1415 H 1.00421 0.42944 0.33408 0.0
H1416 H 0.02917 0.3872 0.26728 0.0
H1417 H 0.99078 0.48687 0.26722 0.0
H1418 H 0.01269 0.47554 0.28403 0.0
H1419 H 0.97959 0.4676 0.28554 0.0
C1420 C 0.06022 0.42311 0.31168 0.0
C1421 C 0.04377 0.42562 0.32639 0.0
C1422 C 0.05062 0.42294 0.29417 0.0
C1423 C 0.02447 0.4254 0.29107 0.0
C1424 C 0.00805 0.42751 0.30572 0.0
H1425 H 0.92821 0.42439 0.19577 0.0
H1426 H 0.94413 0.42345 0.22665 0.0
C1427 C 0.01755 0.42773 0.32315 0.0
C1428 C 0.01413 0.42507 0.27258 0.0
H1429 H 0.97846 0.45988 0.24297 0.0
C1430 C 0.01822 0.40315 0.26192 0.0
C1431 C 0.9997 0.44585 0.26564 0.0
C1432 C 0.9956 0.4704 0.27613 0.0
C1433 C 0.00796 0.40129 0.24461 0.0
C1434 C 0.99351 0.42203 0.2377 0.0
C1435 C 0.98936 0.44392 0.24836 0.0
C1436 C 0.98367 0.42194 0.2191 0.0
C1437 C 0.01236 0.37696 0.23394 0.0
C1438 C 1.00061 0.42165 0.20469 0.0
C1439 C 0.99165 0.42226 0.18713 0.0
C1440 C 0.96546 0.42327 0.18352 0.0
C1441 C 0.94846 0.42355 0.19803 0.0
C1442 C 0.95752 0.42304 0.21567 0.0
H1443 H 0.01788 0.36052 0.24266 0.0
H1444 H 0.99514 0.37153 0.22628 0.0
H1445 H 0.02794 0.38031 0.22426 0.0
H1446 H 0.02086 0.42128 0.20703 0.0
H1447 H 1.0054 0.42207 0.17638 0.0
H1448 H 0.58223 0.4225 0.69925 0.0
H1449 H 0.5645 0.4217 0.72958 0.0
H1450 H 0.48955 0.43294 0.70795 0.0
H1451 H 0.50694 0.4345 0.6779 0.0
H1452 H 0.49745 0.46342 0.7364 0.0
H1453 H 0.52607 0.36302 0.7527 0.0
H1454 H 0.55203 0.38355 0.74655 0.0
H1455 H 0.52798 0.37595 0.73032 0.0
C1456 C 0.56199 0.42485 0.70096 0.0
C1457 C 0.54608 0.42848 0.68607 0.0
C1458 C 0.55185 0.42418 0.7183 0.0
C1459 C 0.52561 0.42679 0.72102 0.0
C1460 C 0.50982 0.43077 0.7062 0.0
H1461 H 0.42413 0.42247 0.81399 0.0
H1462 H 0.44111 0.42284 0.78337 0.0
C1463 C 0.51988 0.43162 0.68897 0.0
C1464 C 0.51435 0.42577 0.73924 0.0
H1465 H 0.508 0.38762 0.77628 0.0
C1466 C 0.49966 0.44679 0.74508 0.0
C1467 C 0.51709 0.40398 0.75052 0.0
C1468 C 0.53143 0.38023 0.74468 0.0
C1469 C 0.48805 0.4468 0.76199 0.0
C1470 C 0.49105 0.42517 0.7733 0.0
C1471 C 0.50567 0.40414 0.7675 0.0
C1472 C 0.48037 0.42461 0.79163 0.0
C1473 C 0.47313 0.47017 0.76783 0.0
C1474 C 0.49682 0.42514 0.80632 0.0
C1475 C 0.48726 0.42501 0.8237 0.0
C1476 C 0.46095 0.42413 0.82685 0.0
C1477 C 0.44444 0.42324 0.81207 0.0
C1478 C 0.45411 0.42353 0.79458 0.0
H1479 H 0.476 0.48688 0.75873 0.0
H1480 H 0.45265 0.46534 0.76795 0.0
H1481 H 0.47859 0.47594 0.78162 0.0
H1482 H 0.51713 0.42593 0.80432 0.0
H1483 H 0.50065 0.42562 0.83468 0.0
H1484 H 0.08063 0.58341 0.81315 0.0
H1485 H 0.06394 0.58405 0.78243 0.0
H1486 H 0.9881 0.57475 0.80273 0.0
H1487 H 1.0043 0.57398 0.83319 0.0
H1488 H 0.03131 0.54376 0.76529 0.0
H1489 H 0.98542 0.64016 0.76967 0.0
H1490 H 0.01042 0.63018 0.78468 0.0
H1491 H 0.97877 0.61831 0.78777 0.0
C1492 C 0.06042 0.58148 0.81107 0.0
C1493 C 0.04387 0.57871 0.82571 0.0
C1494 C 0.05092 0.58187 0.79353 0.0
C1495 C 0.02476 0.5798 0.79038 0.0
C1496 C 0.0083 0.57677 0.8049 0.0
H1497 H 0.92717 0.5827 0.69579 0.0
H1498 H 0.94364 0.58161 0.72654 0.0
C1499 C 0.0177 0.57623 0.82234 0.0
C1500 C 0.01442 0.58031 0.77193 0.0
H1501 H 0.97634 0.61516 0.74392 0.0
C1502 C 0.01944 0.55943 0.76054 0.0
C1503 C 0.99865 0.60062 0.76592 0.0
C1504 C 0.99307 0.62373 0.77756 0.0
C1505 C 0.00882 0.55813 0.74332 0.0
C1506 C 0.99325 0.57861 0.73719 0.0
C1507 C 0.98818 0.59946 0.74864 0.0
C1508 C 0.98303 0.57926 0.71866 0.0
C1509 C 0.01392 0.53454 0.73202 0.0
C1510 C 0.99968 0.57882 0.70408 0.0
C1511 C 0.99039 0.57931 0.68661 0.0
C1512 C 0.96415 0.58058 0.68323 0.0
C1513 C 0.94745 0.58159 0.69788 0.0
C1514 C 0.95683 0.58098 0.71545 0.0
H1515 H 0.01921 0.51765 0.74039 0.0
H1516 H 0.99713 0.52933 0.72382 0.0
H1517 H 0.02996 0.53859 0.72286 0.0
H1518 H 0.01997 0.57822 0.70619 0.0
H1519 H 1.00395 0.57878 0.67576 0.0
H1520 H 0.07065 0.16688 0.13505 0.0
H1521 H 0.05445 0.21036 0.13134 0.0
H1522 H 0.98835 0.18061 0.10448 0.0
H1523 H 1.00465 0.13636 0.10792 0.0
H1524 H 0.01301 0.2283 0.08877 0.0
H1525 H 0.99191 0.23466 0.16144 0.0
H1526 H 0.02341 0.2239 0.1562 0.0
H1527 H 0.99671 0.20425 0.15011 0.0
C1528 C 0.05276 0.16933 0.12816 0.0
C1529 C 0.0389 0.14794 0.12186 0.0
C1530 C 0.04353 0.19433 0.12609 0.0
C1531 C 0.02014 0.19864 0.11781 0.0
C1532 C 0.00649 0.17758 0.11094 0.0
H1533 H 0.93579 0.33915 0.1332 0.0
H1534 H 0.94927 0.29478 0.12928 0.0
C1535 C 0.01578 0.15235 0.11296 0.0
C1536 C 0.00966 0.22514 0.11739 0.0
H1537 H 0.99037 0.27374 0.14498 0.0
C1538 C 0.00781 0.23824 0.101 0.0
C1539 C 1.00283 0.23793 0.13338 0.0
C1540 C 1.00357 0.22445 0.15129 0.0
C1541 C 0.99975 0.26413 0.10026 0.0
C1542 C 0.99374 0.27718 0.11635 0.0
C1543 C 0.99518 0.26381 0.13266 0.0
C1544 C 0.98497 0.3044 0.11678 0.0
C1545 C 0.99745 0.2772 0.0823 0.0
C1546 C 1.0005 0.32474 0.11088 0.0
C1547 C 0.9927 0.35048 0.11296 0.0
C1548 C 0.96936 0.35622 0.12114 0.0
C1549 C 0.95383 0.33566 0.12676 0.0
C1550 C 0.96151 0.31014 0.12456 0.0
H1551 H 0.99673 0.26298 0.07119 0.0
H1552 H 0.98022 0.28947 0.08172 0.0
H1553 H 0.01418 0.2898 0.08017 0.0
H1554 H 0.01894 0.32078 0.10518 0.0
H1555 H 1.00519 0.36581 0.10859 0.0
H1556 H 0.50729 0.86495 0.10932 0.0
H1557 H 0.5199 0.81956 0.1063 0.0
H1558 H 0.44904 0.79573 0.12973 0.0
H1559 H 0.43658 0.84055 0.13318 0.0
H1560 H 0.48947 0.77352 0.1459 0.0
H1561 H 0.4966 0.76232 0.07219 0.0
H1562 H 0.51454 0.7888 0.08118 0.0
H1563 H 0.48056 0.78925 0.08257 0.0
C1564 C 0.49428 0.85003 0.11362 0.0
C1565 C 0.4709 0.85652 0.12147 0.0
C1566 C 0.50145 0.82409 0.11178 0.0
C1567 C 0.48526 0.80423 0.11759 0.0
C1568 C 0.46178 0.81069 0.12508 0.0
H1569 H 0.50268 0.63608 0.10782 0.0
H1570 H 0.487 0.68059 0.10483 0.0
C1571 C 0.45469 0.83646 0.12702 0.0
C1572 C 0.49335 0.77679 0.11729 0.0
H1573 H 0.51222 0.7275 0.08994 0.0
C1574 C 0.4943 0.76345 0.13363 0.0
C1575 C 0.49936 0.76358 0.10127 0.0
C1576 C 0.49752 0.7766 0.08327 0.0
C1577 C 0.50156 0.73746 0.13445 0.0
C1578 C 0.50846 0.7245 0.11854 0.0
C1579 C 0.50701 0.73757 0.10211 0.0
C1580 C 0.51848 0.6978 0.11902 0.0
C1581 C 0.50178 0.72403 0.15238 0.0
C1582 C 0.54151 0.69293 0.12767 0.0
C1583 C 0.55042 0.66775 0.12946 0.0
C1584 C 0.53658 0.64675 0.12252 0.0
C1585 C 0.51379 0.65175 0.11335 0.0
C1586 C 0.50484 0.67714 0.11159 0.0
H1587 H 0.48997 0.73437 0.16238 0.0
H1588 H 0.49479 0.70388 0.15116 0.0
H1589 H 0.52149 0.72335 0.15753 0.0
H1590 H 0.55245 0.70865 0.13331 0.0
H1591 H 0.56807 0.66483 0.13656 0.0
H1592 H 0.44914 0.65989 0.36723 0.0
H1593 H 0.46342 0.70407 0.37109 0.0
H1594 H 0.51405 0.6798 0.4132 0.0
H1595 H 0.50037 0.6349 0.40898 0.0
H1596 H 0.46084 0.73627 0.39889 0.0
H1597 H 0.56164 0.71887 0.381 0.0
H1598 H 0.53744 0.69476 0.37777 0.0
H1599 H 0.55025 0.70052 0.39971 0.0
C1600 C 0.46338 0.66378 0.37732 0.0
C1601 C 0.47374 0.64374 0.38772 0.0
C1602 C 0.47146 0.68917 0.37955 0.0
C1603 C 0.49 0.69529 0.3923 0.0
C1604 C 0.50011 0.67547 0.403 0.0
H1605 H 0.52164 0.8614 0.40964 0.0
H1606 H 0.50723 0.81703 0.41497 0.0
C1607 C 0.49221 0.64984 0.40063 0.0
C1608 C 0.49867 0.72247 0.3939 0.0
H1609 H 0.55003 0.7615 0.38785 0.0
C1610 C 0.48039 0.74182 0.39662 0.0
C1611 C 0.52415 0.72966 0.39082 0.0
C1612 C 0.54451 0.70994 0.38701 0.0
C1613 C 0.48666 0.76814 0.39562 0.0
C1614 C 0.51209 0.77531 0.39233 0.0
C1615 C 0.53054 0.75596 0.39037 0.0
C1616 C 0.51974 0.80255 0.38925 0.0
C1617 C 0.46577 0.78791 0.39714 0.0
C1618 C 0.53173 0.80914 0.37314 0.0
C1619 C 0.54027 0.83423 0.37021 0.0
C1620 C 0.53683 0.85345 0.38326 0.0
C1621 C 0.52423 0.84709 0.39924 0.0
C1622 C 0.51597 0.82175 0.40228 0.0
H1623 H 0.44674 0.77911 0.39536 0.0
H1624 H 0.46641 0.79683 0.41064 0.0
H1625 H 0.46813 0.80346 0.38705 0.0
H1626 H 0.53475 0.79472 0.36285 0.0
H1627 H 0.54984 0.83851 0.35773 0.0
H1628 H 0.01414 0.3685 0.41252 0.0
H1629 H 1.00143 0.32399 0.4198 0.0
H1630 H 0.04066 0.29646 0.37292 0.0
H1631 H 0.05367 0.34016 0.36582 0.0
H1632 H 0.97358 0.28893 0.40152 0.0
H1633 H 0.06966 0.24955 0.41064 0.0
H1634 H 0.06351 0.28384 0.40989 0.0
H1635 H 0.06745 0.26567 0.38949 0.0
C1636 C 0.01997 0.3529 0.40379 0.0
C1637 C 0.03513 0.35788 0.3887 0.0
C1638 C 0.01283 0.32751 0.408 0.0
C1639 C 0.0208 0.30679 0.39722 0.0
C1640 C 0.03509 0.31195 0.38183 0.0
H1641 H 0.95734 0.16749 0.36544 0.0
H1642 H 0.97067 0.2111 0.37256 0.0
C1643 C 0.04231 0.33709 0.37769 0.0
C1644 C 0.01337 0.27974 0.4012 0.0
H1645 H 0.03733 0.21848 0.40157 0.0
C1646 C 0.98753 0.27357 0.40195 0.0
C1647 C 0.03153 0.25964 0.40228 0.0
C1648 C 0.05958 0.26508 0.40325 0.0
C1649 C 0.97939 0.24777 0.40215 0.0
C1650 C 0.99755 0.22768 0.40109 0.0
C1651 C 0.02338 0.23384 0.40198 0.0
C1652 C 0.99012 0.20066 0.39702 0.0
C1653 C 0.95133 0.24233 0.40296 0.0
C1654 C 0.99778 0.17991 0.40789 0.0
C1655 C 0.99045 0.15457 0.40367 0.0
C1656 C 0.97541 0.1497 0.3885 0.0
C1657 C 0.9686 0.1705 0.37738 0.0
C1658 C 0.97601 0.19558 0.38152 0.0
H1659 H 0.94117 0.25785 0.41029 0.0
H1660 H 0.94359 0.2417 0.38915 0.0
H1661 H 0.94735 0.22357 0.40958 0.0
H1662 H 0.00905 0.18338 0.41977 0.0
H1663 H 0.99599 0.13896 0.41249 0.0
H1664 H 0.01445 0.63744 0.91268 0.0
H1665 H 1.00092 0.68198 0.91906 0.0
H1666 H 0.02922 0.70617 0.86757 0.0
H1667 H 0.04313 0.66236 0.86136 0.0
H1668 H 0.04599 0.73711 0.89459 0.0
H1669 H 0.9416 0.72323 0.8989 0.0
H1670 H 0.96066 0.70367 0.91352 0.0
H1671 H 0.96236 0.6989 0.88975 0.0
C1672 C 0.01736 0.65224 0.90266 0.0
C1673 C 0.02988 0.64642 0.88655 0.0
C1674 C 0.00966 0.67765 0.9063 0.0
C1675 C 0.01405 0.69741 0.89377 0.0
C1676 C 0.02581 0.69132 0.8775 0.0
H1677 H 0.95149 0.84032 0.86673 0.0
H1678 H 0.96415 0.79607 0.87252 0.0
C1679 C 0.03368 0.6662 0.87395 0.0
C1680 C 0.00727 0.72474 0.89738 0.0
H1681 H 0.9569 0.76562 0.9014 0.0
C1682 C 0.02654 0.74339 0.89632 0.0
C1683 C 0.98189 0.73281 0.89964 0.0
C1684 C 0.96034 0.71371 0.90041 0.0
C1685 C 0.02102 0.7699 0.89637 0.0
C1686 C 0.99554 0.77801 0.89804 0.0
C1687 C 0.97642 0.75935 0.90015 0.0
C1688 C 0.98791 0.80532 0.89524 0.0
C1689 C 0.04233 0.78887 0.89346 0.0
C1690 C 0.99711 0.82544 0.90608 0.0
C1691 C 0.99014 0.85111 0.90262 0.0
C1692 C 0.97357 0.85695 0.88843 0.0
C1693 C 0.96426 0.83664 0.87779 0.0
C1694 C 0.97139 0.81121 0.88113 0.0
H1695 H 0.05998 0.77921 0.88889 0.0
H1696 H 0.03693 0.80365 0.88339 0.0
H1697 H 0.04654 0.79892 0.90623 0.0
H1698 H 0.00953 0.82131 0.91725 0.0
H1699 H 0.99741 0.86628 0.91118 0.0
H1700 H 0.50451 0.36946 0.90311 0.0
H1701 H 0.5227 0.3259 0.90622 0.0
H1702 H 0.4598 0.29417 0.87673 0.0
H1703 H 0.44178 0.33691 0.87336 0.0
H1704 H 0.49918 0.27696 0.92048 0.0
H1705 H 0.52489 0.27288 0.84854 0.0
H1706 H 0.51822 0.30284 0.85998 0.0
H1707 H 0.4927 0.28239 0.85271 0.0
C1708 C 0.49452 0.35317 0.89738 0.0
C1709 C 0.47174 0.35683 0.8879 0.0
C1710 C 0.50489 0.32833 0.89921 0.0
C1711 C 0.49266 0.30694 0.89154 0.0
C1712 C 0.46965 0.31048 0.88258 0.0
H1713 H 0.50773 0.14037 0.89993 0.0
H1714 H 0.4945 0.1855 0.90347 0.0
C1715 C 0.45937 0.33506 0.88071 0.0
C1716 C 0.50407 0.28084 0.89202 0.0
H1717 H 0.52541 0.23314 0.86444 0.0
C1718 C 0.50524 0.2674 0.9083 0.0
C1719 C 0.51205 0.26854 0.87611 0.0
C1720 C 0.51215 0.28244 0.85835 0.0
C1721 C 0.51356 0.24159 0.90898 0.0
C1722 C 0.52046 0.22894 0.89291 0.0
C1723 C 0.5199 0.24273 0.87674 0.0
C1724 C 0.52893 0.20161 0.89236 0.0
C1725 C 0.51504 0.22818 0.92686 0.0
C1726 C 0.55245 0.19564 0.88474 0.0
C1727 C 0.55982 0.17004 0.88242 0.0
C1728 C 0.54393 0.14962 0.88778 0.0
C1729 C 0.52051 0.15558 0.89577 0.0
C1730 C 0.51301 0.18138 0.89794 0.0
H1731 H 0.51575 0.24224 0.93808 0.0
H1732 H 0.49794 0.216 0.92867 0.0
H1733 H 0.53196 0.21549 0.92763 0.0
H1734 H 0.56499 0.21088 0.88025 0.0
H1735 H 0.57792 0.16637 0.87612 0.0
H1736 H 0.49437 0.14262 0.6005 0.0
H1737 H 0.50697 0.18751 0.59508 0.0
H1738 H 0.46429 0.21164 0.64136 0.0
H1739 H 0.45112 0.16731 0.64656 0.0
H1740 H 0.45611 0.24328 0.61298 0.0
H1741 H 0.55942 0.22759 0.6231 0.0
H1742 H 0.54503 0.2085 0.6058 0.0
H1743 H 0.5362 0.20341 0.62875 0.0
C1744 C 0.48782 0.15748 0.60957 0.0
C1745 C 0.47183 0.1513 0.624 0.0
C1746 C 0.49505 0.18312 0.60647 0.0
C1747 C 0.48675 0.20291 0.61791 0.0
C1748 C 0.47085 0.19673 0.63231 0.0
H1749 H 0.5458 0.34478 0.65097 0.0
H1750 H 0.5306 0.30133 0.64515 0.0
C1751 C 0.46343 0.17128 0.6353 0.0
C1752 C 0.49468 0.23015 0.61534 0.0
H1753 H 0.54603 0.27001 0.61759 0.0
C1754 C 0.47579 0.24917 0.61377 0.0
C1755 C 0.52037 0.23773 0.61641 0.0
C1756 C 0.54146 0.21832 0.61875 0.0
C1757 C 0.4818 0.27559 0.61412 0.0
C1758 C 0.50742 0.28313 0.61572 0.0
C1759 C 0.52639 0.26411 0.61634 0.0
C1760 C 0.51491 0.31028 0.61912 0.0
C1761 C 0.46063 0.29516 0.61384 0.0
C1762 C 0.51066 0.33002 0.60655 0.0
C1763 C 0.51916 0.35523 0.60995 0.0
C1764 C 0.53231 0.36084 0.62586 0.0
C1765 C 0.53592 0.3411 0.63852 0.0
C1766 C 0.52729 0.31618 0.6352 0.0
H1767 H 0.44176 0.28603 0.61565 0.0
H1768 H 0.46338 0.30978 0.62454 0.0
H1769 H 0.46067 0.30536 0.60079 0.0
H1770 H 0.50141 0.32581 0.59395 0.0
H1771 H 0.51634 0.37002 0.5999 0.0
H1772 H 0.00626 0.86674 0.60918 0.0
H1773 H 0.99311 0.82141 0.60622 0.0
H1774 H 0.06499 0.7967 0.6276 0.0
H1775 H 0.07798 0.84134 0.63105 0.0
H1776 H 0.01573 0.7767 0.58844 0.0
H1777 H 0.01219 0.76669 0.66238 0.0
H1778 H 0.01379 0.79767 0.6514 0.0
H1779 H 0.04189 0.77841 0.65398 0.0
C1780 C 0.01934 0.85164 0.61309 0.0
C1781 C 0.04312 0.8578 0.62047 0.0
C1782 C 0.01183 0.82578 0.61134 0.0
C1783 C 0.02799 0.80577 0.61691 0.0
C1784 C 0.05211 0.81186 0.62346 0.0
H1785 H 0.0073 0.6374 0.60654 0.0
H1786 H 0.02396 0.68148 0.6029 0.0
C1787 C 0.05951 0.83752 0.62535 0.0
C1788 C 0.0193 0.77858 0.6171 0.0
H1789 H 0.00744 0.72843 0.64548 0.0
C1790 C 0.01384 0.76609 0.60087 0.0
C1791 C 0.01677 0.76489 0.63338 0.0
C1792 C 0.02123 0.77761 0.6513 0.0
C1793 C 0.00597 0.74012 0.60053 0.0
C1794 C 1.00385 0.72638 0.61682 0.0
C1795 C 0.00937 0.73894 0.63299 0.0
C1796 C 0.99366 0.69973 0.61777 0.0
C1797 C 0.99935 0.72779 0.58286 0.0
C1798 C 0.97139 0.69542 0.62746 0.0
C1799 C 0.9621 0.67052 0.62973 0.0
C1800 C 0.97476 0.64912 0.62229 0.0
C1801 C 0.99702 0.65342 0.61237 0.0
C1802 C 0.00646 0.67859 0.61018 0.0
H1803 H 0.99757 0.74228 0.57197 0.0
H1804 H 0.01445 0.7139 0.57912 0.0
H1805 H 0.98128 0.71692 0.58392 0.0
H1806 H 0.96126 0.71141 0.63349 0.0
H1807 H 0.94498 0.66818 0.63753 0.0
H1808 H 0.99583 0.98653 0.92801 0.0
H1809 H 0.00891 0.00595 0.95621 0.0
H1810 H 0.96796 0.94741 0.98527 0.0
H1811 H 0.95498 0.92742 0.95693 0.0
H1812 H 0.98027 0.02592 0.98404 0.0
H1813 H 0.03913 0.94341 0.00707 0.0
H1814 H 0.02787 0.94621 0.98434 0.0
H1815 H 0.00689 0.93541 1.00172 0.0
C1816 C 0.98954 0.97767 0.94036 0.0
C1817 C 0.97449 0.95522 0.94017 0.0
C1818 C 0.99704 0.98889 0.9565 0.0
C1819 C 0.98979 0.97792 0.97286 0.0
C1820 C 0.97422 0.95589 0.97279 0.0
H1821 H 0.01899 0.01778 0.08327 0.0
H1822 H 0.0058 0.99825 0.05512 0.0
C1823 C 0.96667 0.94459 0.95658 0.0
C1824 C 0.9986 0.98976 0.98987 0.0
H1825 H 0.03417 0.97826 0.02725 0.0
C1826 C 0.9921 0.01553 0.99348 0.0
C1827 C 0.01412 0.9762 1.00213 0.0
C1828 C 0.02265 0.94885 0.99862 0.0
C1829 C 1.00031 0.02798 0.00916 0.0
C1830 C 0.01585 0.01443 0.02141 0.0
C1831 C 0.02234 0.98864 0.01781 0.0
C1832 C 0.02475 0.0263 0.03839 0.0
C1833 C 0.99176 0.05531 0.01267 0.0
C1834 C 0.04026 0.04836 0.03839 0.0
C1835 C 0.04788 0.05972 0.05456 0.0
C1836 C 0.04017 0.04912 0.07101 0.0
C1837 C 0.02519 0.02661 0.07089 0.0
C1838 C 0.01762 0.01534 0.05478 0.0
H1839 H 0.97521 0.0607 1.00427 0.0
H1840 H 0.98663 0.05798 0.02696 0.0
H1841 H 0.00747 0.06878 0.00949 0.0
H1842 H 0.04643 0.05683 0.02589 0.0
H1843 H 0.05951 0.07693 0.05417 0.0
H1844 H 0.56282 0.07535 0.95536 0.0
H1845 H 0.55085 0.05467 0.98369 0.0
H1846 H 0.50182 1.00241 0.95509 0.0
H1847 H 0.51381 0.02253 0.9269 0.0
H1848 H 0.50236 0.04996 0.99878 0.0
H1849 H 0.54377 0.95336 0.98579 0.0
H1850 H 0.55194 0.98144 0.97269 0.0
H1851 H 0.52292 0.96434 0.9684 0.0
C1852 C 0.54963 0.05934 0.9551 0.0
C1853 C 0.53937 0.05059 0.93882 0.0
C1854 C 0.54279 0.04756 0.9713 0.0
C1855 C 0.52574 0.02672 0.97148 0.0
C1856 C 0.51542 0.01806 0.95526 0.0
H1857 H 0.45456 0.93177 0.05383 0.0
H1858 H 0.46692 0.9525 0.0256 0.0
C1859 C 0.52222 0.02976 0.93913 0.0
C1860 C 0.51796 0.01448 0.98861 0.0
H1861 H 0.51596 0.95674 0.01073 0.0
C1862 C 0.5055 0.02963 1.00146 0.0
C1863 C 0.5219 0.98789 0.99203 0.0
C1864 C 0.53607 0.97083 0.97908 0.0
C1865 C 0.49647 0.01882 0.01748 0.0
C1866 C 0.50037 0.99222 0.02089 0.0
C1867 C 0.51285 0.97708 0.00805 0.0
C1868 C 0.49242 0.97995 0.03796 0.0
C1869 C 0.48235 0.03587 0.03047 0.0
C1870 C 0.50283 0.9883 0.05422 0.0
C1871 C 0.49584 0.97656 0.0703 0.0
C1872 C 0.47836 0.95601 0.0705 0.0
C1873 C 0.468 0.94756 0.05417 0.0
C1874 C 0.47506 0.95937 0.03803 0.0
H1875 H 0.4749 0.05351 0.02384 0.0
H1876 H 0.4663 0.02534 0.0367 0.0
H1877 H 0.49545 0.04204 0.04126 0.0
H1878 H 0.51664 0.00376 0.05447 0.0
H1879 H 0.50432 0.98355 0.08257 0.0
H1880 H 0.46261 0.02479 0.57501 0.0
H1881 H 0.47137 1.0016 0.54712 0.0
H1882 H 0.51961 0.06385 0.52969 0.0
H1883 H 0.51117 0.08707 0.55751 0.0
H1884 H 0.4646 0.01601 0.51075 0.0
H1885 H 0.56607 1.00014 0.52701 0.0
H1886 H 0.54322 0.01029 0.54354 0.0
H1887 H 0.55603 0.03325 0.52795 0.0
C1888 C 0.47487 0.03369 0.56517 0.0
C1889 C 0.48632 0.05774 0.56858 0.0
C1890 C 0.47991 0.02037 0.54926 0.0
C1891 C 0.49657 0.03076 0.53651 0.0
C1892 C 0.50715 0.05521 0.53953 0.0
H1893 H 0.55492 0.97877 0.43377 0.0
H1894 H 0.54649 1.00189 0.46174 0.0
C1895 C 0.50214 0.06855 0.55541 0.0
C1896 C 0.50312 0.01591 0.52015 0.0
H1897 H 0.55265 0.98802 0.49792 0.0
C1898 C 0.48381 0.00978 0.50796 0.0
C1899 C 0.52824 0.00785 0.51655 0.0
C1900 C 0.54959 0.01299 0.5295 0.0
C1901 C 0.48901 0.99621 0.4921 0.0
C1902 C 0.51412 0.9881 0.48851 0.0
C1903 C 0.53343 0.99425 0.50069 0.0
C1904 C 0.52064 0.97318 0.47216 0.0
C1905 C 0.46765 0.99121 0.47912 0.0
C1906 C 0.50963 0.94894 0.46903 0.0
C1907 C 0.51442 0.93568 0.45309 0.0
C1908 C 0.53048 0.94629 0.44 0.0
C1909 C 0.54247 0.97001 0.44356 0.0
C1910 C 0.53761 0.98331 0.45951 0.0
H1911 H 0.45134 0.00432 0.4815 0.0
H1912 H 0.47409 0.99363 0.46508 0.0
H1913 H 0.4609 0.97107 0.4808 0.0
H1914 H 0.49697 0.94046 0.47879 0.0
H1915 H 0.50501 0.91737 0.45087 0.0
H1916 H 0.05569 0.92959 0.55298 0.0
H1917 H 0.04235 0.95032 0.52494 0.0
H1918 H 1.00279 0.00882 0.55498 0.0
H1919 H 0.01604 0.98856 0.58288 0.0
H1920 H 0.99129 0.95979 0.51364 0.0
H1921 H 0.04599 0.0509 0.51966 0.0
H1922 H 0.0533 0.02247 0.53268 0.0
H1923 H 0.02733 0.04299 0.53899 0.0
C1924 C 0.04436 0.947 0.5536 0.0
C1925 C 0.03698 0.95739 0.57019 0.0
C1926 C 0.03671 0.95878 0.53759 0.0
C1927 C 0.02184 0.98129 0.53789 0.0
C1928 C 0.01462 0.99175 0.55442 0.0
H1929 H 0.95331 0.08103 0.45693 0.0
H1930 H 0.96595 0.06032 0.48512 0.0
C1931 C 0.02213 0.97999 0.57037 0.0
C1932 C 0.0129 0.99337 0.52102 0.0
H1933 H 0.01474 0.04932 0.49682 0.0
C1934 C 0.99654 0.97929 0.50988 0.0
C1935 C 0.01956 0.01893 0.51625 0.0
C1936 C 0.03768 0.03468 0.52742 0.0
C1937 C 0.98635 0.99022 0.49424 0.0
C1938 C 0.99312 0.01574 0.48941 0.0
C1939 C 0.00945 0.02983 0.50057 0.0
C1940 C 0.98437 0.02777 0.47244 0.0
C1941 C 0.96799 0.97449 0.48324 0.0
C1942 C 0.99059 0.01644 0.45598 0.0
C1943 C 0.98335 0.0281 0.43994 0.0
C1944 C 0.9699 0.0516 0.43993 0.0
C1945 C 0.96354 0.06292 0.45644 0.0
C1946 C 0.97081 0.05114 0.47255 0.0
H1947 H 0.959 0.95901 0.49133 0.0
H1948 H 0.95287 0.98685 0.47745 0.0
H1949 H 0.97836 0.96514 0.47207 0.0
H1950 H 1.00152 0.99875 0.45552 0.0
H1951 H 0.98869 0.01882 0.42752 0.0
H1952 H 0.5176 0.51553 0.08269 0.0
H1953 H 0.50433 0.49546 0.05475 0.0
H1954 H 0.53755 0.55824 0.02501 0.0
H1955 H 0.55131 0.57847 0.05307 0.0
H1956 H 0.47189 0.51537 0.02943 0.0
H1957 H 0.56605 0.4948 0.99959 0.0
H1958 H 0.56211 0.50322 0.02286 0.0
H1959 H 0.56132 0.52789 0.00595 0.0
C1960 C 0.52232 0.52507 0.07023 0.0
C1961 C 0.53555 0.54868 0.07015 0.0
C1962 C 0.51465 0.51353 0.05425 0.0
C1963 C 0.5201 0.52519 0.03777 0.0
C1964 C 0.53353 0.54864 0.03756 0.0
H1965 H 0.48343 0.48816 0.928 0.0
H1966 H 0.49668 0.50809 0.956 0.0
C1967 C 0.5413 0.56024 0.05361 0.0
C1968 C 0.51082 0.51313 0.02096 0.0
H1969 H 0.5302 0.48739 0.98117 0.0
C1970 C 0.48464 0.50917 0.01889 0.0
C1971 C 0.52747 0.505 0.00725 0.0
C1972 C 0.55582 0.50769 0.00902 0.0
C1973 C 0.47464 0.4977 1.00338 0.0
C1974 C 0.49129 0.48962 0.98967 0.0
C1975 C 0.51746 0.49358 0.99172 0.0
C1976 C 0.48198 0.47765 0.97284 0.0
C1977 C 0.44631 0.49485 1.00162 0.0
C1978 C 0.46915 0.45386 0.97298 0.0
C1979 C 0.46145 0.4423 0.9569 0.0
C1980 C 0.4666 0.45429 0.94041 0.0
C1981 C 0.47916 0.47829 0.94041 0.0
C1982 C 0.48682 0.48975 0.95643 0.0
H1983 H 0.436 0.50733 0.01127 0.0
H1984 H 0.43998 0.49976 0.98786 0.0
H1985 H 0.44097 0.47451 1.00432 0.0
H1986 H 0.46556 0.44398 0.98549 0.0
H1987 H 0.45195 0.42378 0.95737 0.0
H1988 H 0.95484 0.42801 0.05318 0.0
H1989 H 0.96855 0.44839 0.02514 0.0
H1990 H 0.00782 0.50715 0.05516 0.0
H1991 H 0.9946 0.48694 0.08306 0.0
H1992 H 0.96054 0.49849 0.01213 0.0
H1993 H 0.06312 0.48012 0.02203 0.0
H1994 H 0.03902 0.46418 0.03512 0.0
H1995 H 0.04844 0.49667 0.0404 0.0
C1996 C 0.96637 0.44528 0.0538 0.0
C1997 C 0.97382 0.45564 0.07038 0.0
C1998 C 0.97421 0.45689 0.03778 0.0
C1999 C 0.98968 0.47897 0.03807 0.0
C2000 C 0.99646 0.48976 0.0546 0.0
H2001 H 0.05457 0.57994 0.95632 0.0
H2002 H 0.04136 0.56003 0.98467 0.0
C2003 C 0.98872 0.4782 0.07056 0.0
C2004 C 0.99856 0.49103 0.02116 0.0
H2005 H 0.05194 0.50834 0.99819 0.0
C2006 C 0.98051 0.50051 0.00903 0.0
C2007 C 0.02466 0.49376 0.01717 0.0
C2008 C 0.04495 0.48294 0.02927 0.0
C2009 C 0.98784 0.51298 0.99316 0.0
C2010 C 0.01391 0.51575 0.9892 0.0
C2011 C 0.03198 0.50633 1.00132 0.0
C2012 C 0.02271 0.52748 0.97219 0.0
C2013 C 0.96762 0.52349 0.98087 0.0
C2014 C 0.01717 0.51542 0.95587 0.0
C2015 C 0.02475 0.52661 0.93975 0.0
C2016 C 0.0381 0.55016 0.93956 0.0
C2017 C 0.04426 0.56187 0.95598 0.0
C2018 C 0.03671 0.55055 0.97217 0.0
H2019 H 0.94913 0.52555 0.98781 0.0
H2020 H 0.97324 0.54257 0.97538 0.0
H2021 H 0.96499 0.51001 0.96947 0.0
H2022 H 0.00684 0.49735 0.9556 0.0
H2023 H 0.01982 0.51686 0.92741 0.0
H2024 H 0.9579 0.58232 0.55249 0.0
H2025 H 0.9711 0.56154 0.52446 0.0
H2026 H 1.00037 0.49683 0.5543 0.0
H2027 H 0.98708 0.51708 0.58215 0.0
H2028 H 0.02074 0.54696 0.51476 0.0
H2029 H 0.95706 0.46182 0.51605 0.0
H2030 H 0.95185 0.48989 0.52989 0.0
H2031 H 0.97499 0.46611 0.53626 0.0
C2032 C 0.96686 0.56353 0.55305 0.0
C2033 C 0.97137 0.55139 0.56959 0.0
C2034 C 0.97446 0.55171 0.53703 0.0
C2035 C 0.98644 0.52747 0.53727 0.0
C2036 C 0.99073 0.51527 0.55374 0.0
H2037 H 0.05311 0.42522 0.45718 0.0
H2038 H 0.0402 0.44618 0.4852 0.0
C2039 C 0.98322 0.52702 0.56969 0.0
C2040 C 0.99556 0.51533 0.52045 0.0
H2041 H 0.99069 0.46083 0.49488 0.0
C2042 C 0.01404 0.52822 0.51033 0.0
C2043 C 0.98696 0.49076 0.51478 0.0
C2044 C 0.96646 0.47641 0.52471 0.0
C2045 C 0.02447 0.51702 0.49487 0.0
C2046 C 0.01588 0.49246 0.4892 0.0
C2047 C 0.99739 0.47957 0.49931 0.0
C2048 C 0.02499 0.48029 0.47238 0.0
C2049 C 0.04498 0.53138 0.48494 0.0
C2050 C 0.0207 0.49248 0.4559 0.0
C2051 C 0.02805 0.48063 0.43995 0.0
C2052 C 0.03973 0.45617 0.44006 0.0
C2053 C 0.04429 0.44408 0.45661 0.0
C2054 C 0.03685 0.45599 0.47262 0.0
H2055 H 0.05439 0.54595 0.49359 0.0
H2056 H 0.05957 0.51789 0.47973 0.0
H2057 H 0.03644 0.54169 0.4734 0.0
H2058 H 0.01115 0.51097 0.45534 0.0
H2059 H 0.02417 0.49054 0.42748 0.0
H2060 H 0.5271 0.48982 0.58344 0.0
H2061 H 0.51418 0.5084 0.55495 0.0
H2062 H 0.54615 0.4432 0.52707 0.0
H2063 H 0.55875 0.42399 0.55574 0.0
H2064 H 0.54146 0.52311 0.52566 0.0
H2065 H 0.47402 0.44497 0.50773 0.0
H2066 H 0.4875 0.44801 0.52983 0.0
H2067 H 0.5058 0.43418 0.51195 0.0
C2068 C 0.53147 0.47933 0.57129 0.0
C2069 C 0.54378 0.45522 0.57192 0.0
C2070 C 0.52406 0.49007 0.55497 0.0
C2071 C 0.52875 0.47701 0.53889 0.0
C2072 C 0.5418 0.45334 0.53936 0.0
H2073 H 0.49616 0.51353 0.42827 0.0
H2074 H 0.50987 0.49439 0.45647 0.0
C2075 C 0.54918 0.44249 0.55575 0.0
C2076 C 0.51979 0.48835 0.52174 0.0
H2077 H 0.48066 0.47761 0.48606 0.0
C2078 C 0.52814 0.51318 0.51701 0.0
C2079 C 0.50228 0.47543 0.51052 0.0
C2080 C 0.49166 0.44927 0.51529 0.0
C2081 C 0.51975 0.52529 0.50126 0.0
C2082 C 0.50228 0.51235 0.49005 0.0
C2083 C 0.49399 0.4875 0.49472 0.0
C2084 C 0.49304 0.52393 0.47309 0.0
C2085 C 0.53003 0.5516 0.49655 0.0
C2086 C 0.47856 0.54671 0.47307 0.0
C2087 C 0.47059 0.55778 0.4569 0.0
C2088 C 0.47699 0.54623 0.44048 0.0
C2089 C 0.491 0.52308 0.44064 0.0
C2090 C 0.49885 0.51204 0.45676 0.0
H2091 H 0.54727 0.55639 0.50441 0.0
H2092 H 0.53468 0.55273 0.48208 0.0
H2093 H 0.51543 0.56643 0.49946 0.0
H2094 H 0.4735 0.55596 0.48557 0.0
H2095 H 0.45976 0.57554 0.45726 0.0
loop_
_geom_bond_atom_site_label_1
_geom_bond_atom_site_label_2
_geom_bond_distance
_geom_bond_site_symmetry_2
_ccdc_geom_bond_type
Co0 O2 2.143 . S
Co0 O8 2.074 . S
Co0 O11 2.093 . S
Co0 O24 2.097 . S
Co0 N41 2.151 . S
Co0 N49 2.214 1_455 S
Co1 O2 2.160 . S
Co1 O7 2.058 . S
Co1 O17 2.057 . S
Co1 O32 2.037 . S
Co1 N36 2.145 . S
Co1 N57 2.257 . S
O2 Co0 2.143 . S
O2 Co1 2.160 . S
C3 O4 1.278 . S
C3 O11 1.224 . S
O4 C3 1.278 . S
C5 O6 1.245 . S
C5 O17 1.232 . S
O6 C5 1.245 . S
O7 Co1 2.058 . S
O7 C33 1.269 . S
O8 Co0 2.074 . S
O8 C33 1.257 . S
H9 C34 0.930 . S
H10 C40 0.930 . S
O11 Co0 2.093 . S
O11 C3 1.224 . S
H12 C44 0.929 1_655 S
H13 C46 0.930 . S
H14 C47 0.930 . S
H15 C45 0.948 . S
H16 C48 0.928 . S
O17 Co1 2.057 . S
O17 C5 1.232 . S
H18 C37 0.929 . S
H19 C38 0.929 . S
H20 C50 0.931 . S
H21 C42 0.929 . S
H22 C51 0.930 . S
H23 C43 0.931 . S
O24 Co0 2.097 . S
O24 C52 1.214 . S
H25 C53 0.929 . S
H26 C54 0.929 . S
H27 C55 0.930 . S
H28 C56 0.929 . S
H29 C58 0.930 . S
H30 C35 0.930 . S
H31 C39 0.930 . S
O32 Co1 2.037 . S
O32 C52 1.234 . S
C33 O7 1.269 . S
C33 O8 1.257 . S
C34 H9 0.930 . S
C34 C37 1.388 . S
C34 C39 1.418 . S
C35 H30 0.930 . S
C35 C38 1.404 . S
C35 C39 1.353 . S
N36 Co1 2.145 . S
N36 C37 1.397 . S
N36 C38 1.334 . S
C37 H18 0.929 . S
C37 C34 1.388 . S
C37 N36 1.397 . S
C38 H19 0.929 . S
C38 C35 1.404 . S
C38 N36 1.334 . S
C39 H31 0.930 . S
C39 C34 1.418 . S
C39 C35 1.353 . S
C40 H10 0.930 . S
C40 N41 1.330 . S
C40 C42 1.446 1_545 S
N41 Co0 2.151 . S
N41 C40 1.330 . S
N41 C45 1.418 . S
C42 H21 0.929 . S
C42 C40 1.446 1_565 S
C42 C43 1.332 . S
C43 H23 0.931 . S
C43 C42 1.332 . S
C43 C44 1.267 . S
C44 H12 0.929 1_455 S
C44 C43 1.267 . S
C44 C45 1.251 1_565 S
C45 H15 0.948 . S
C45 N41 1.418 . S
C45 C44 1.251 1_545 S
C46 H13 0.930 . S
C46 C48 1.406 . S
C46 C51 1.261 . S
C47 H14 0.930 . S
C47 N49 1.325 . S
C47 C50 1.357 . S
C48 H16 0.928 . S
C48 C46 1.406 . S
C48 N49 1.261 . S
N49 Co0 2.214 1_655 S
N49 C47 1.325 . S
N49 C48 1.261 . S
C50 H20 0.931 . S
C50 C47 1.357 . S
C50 C51 1.312 . S
C51 H22 0.930 . S
C51 C46 1.261 . S
C51 C50 1.312 . S
C52 O24 1.214 . S
C52 O32 1.234 . S
C53 H25 0.929 . S
C53 C56 1.391 . S
C53 C58 1.391 . S
C54 H26 0.929 . S
C54 C55 1.390 . S
C54 N57 1.391 . S
C55 H27 0.930 . S
C55 C54 1.390 . S
C55 C56 1.392 . S
C56 H28 0.929 . S
C56 C53 1.391 . S
C56 C55 1.392 . S
N57 Co1 2.257 . S
N57 C54 1.391 . S
N57 C58 1.388 . S
C58 H29 0.930 . S
C58 C53 1.391 . S
C58 N57 1.388 . S
Co59 O61 2.143 . S
Co59 O67 2.074 . S
Co59 O70 2.093 . S
Co59 O83 2.097 . S
Co59 N100 2.151 . S
Co59 N108 2.214 . S
Co60 O61 2.160 . S
Co60 O66 2.058 . S
Co60 O76 2.057 . S
Co60 O91 2.037 . S
Co60 N95 2.145 . S
Co60 N116 2.257 . S
O61 Co59 2.143 . S
O61 Co60 2.160 . S
C62 O63 1.278 . S
C62 O70 1.224 . S
O63 C62 1.278 . S
C64 O65 1.245 . S
C64 O76 1.232 . S
O65 C64 1.245 . S
O66 Co60 2.058 . S
O66 C92 1.269 . S
O67 Co59 2.074 . S
O67 C92 1.257 . S
H68 C93 0.930 . S
H69 C99 0.930 . S
O70 Co59 2.093 . S
O70 C62 1.224 . S
H71 C103 0.929 . S
H72 C105 0.930 . S
H73 C106 0.930 . S
H74 C104 0.929 . S
H75 C107 0.928 . S
O76 Co60 2.057 . S
O76 C64 1.232 . S
H77 C96 0.929 . S
H78 C97 0.929 . S
H79 C109 0.931 . S
H80 C101 0.929 . S
H81 C110 0.930 . S
H82 C102 0.931 . S
O83 Co59 2.097 . S
O83 C111 1.214 . S
H84 C112 0.929 . S
H85 C113 0.929 . S
H86 C114 0.930 . S
H87 C115 0.929 . S
H88 C117 0.930 . S
H89 C94 0.930 . S
H90 C98 0.930 . S
O91 Co60 2.037 . S
O91 C111 1.234 . S
C92 O66 1.269 . S
C92 O67 1.257 . S
C93 H68 0.930 . S
C93 C96 1.388 . S
C93 C98 1.418 . S
C94 H89 0.930 . S
C94 C97 1.404 . S
C94 C98 1.353 . S
N95 Co60 2.145 . S
N95 C96 1.397 . S
N95 C97 1.334 . S
C96 H77 0.929 . S
C96 C93 1.388 . S
C96 N95 1.397 . S
C97 H78 0.929 . S
C97 C94 1.404 . S
C97 N95 1.334 . S
C98 H90 0.930 . S
C98 C93 1.418 . S
C98 C94 1.353 . S
C99 H69 0.930 . S
C99 N100 1.330 . S
C99 C101 1.446 1_565 S
N100 Co59 2.151 . S
N100 C99 1.330 . S
N100 C104 1.418 . S
C101 H80 0.929 . S
C101 C99 1.446 1_545 S
C101 C102 1.332 . S
C102 H82 0.931 . S
C102 C101 1.332 . S
C102 C103 1.267 . S
C103 H71 0.929 . S
C103 C102 1.267 . S
C103 C104 1.251 1_545 S
C104 H74 0.929 . S
C104 N100 1.418 . S
C104 C103 1.251 1_565 S
C105 H72 0.930 . S
C105 C107 1.406 . S
C105 C110 1.261 . S
C106 H73 0.930 . S
C106 N108 1.325 . S
C106 C109 1.357 . S
C107 H75 0.928 . S
C107 C105 1.406 . S
C107 N108 1.261 . S
N108 Co59 2.214 . S
N108 C106 1.325 . S
N108 C107 1.261 . S
C109 H79 0.931 . S
C109 C106 1.357 . S
C109 C110 1.312 . S
C110 H81 0.930 . S
C110 C105 1.261 . S
C110 C109 1.312 . S
C111 O83 1.214 . S
C111 O91 1.234 . S
C112 H84 0.929 . S
C112 C115 1.391 . S
C112 C117 1.391 . S
C113 H85 0.929 . S
C113 C114 1.390 . S
C113 N116 1.391 . S
C114 H86 0.930 . S
C114 C113 1.390 . S
C114 C115 1.392 . S
C115 H87 0.929 . S
C115 C112 1.391 . S
C115 C114 1.392 . S
N116 Co60 2.257 . S
N116 C113 1.391 . S
N116 C117 1.388 . S
C117 H88 0.930 . S
C117 C112 1.391 . S
C117 N116 1.388 . S
Co118 O120 2.143 . S
Co118 O126 2.074 . S
Co118 O129 2.093 . S
Co118 O142 2.097 . S
Co118 N159 2.151 . S
Co118 N167 2.214 . S
Co119 O120 2.160 . S
Co119 O125 2.058 . S
Co119 O135 2.057 . S
Co119 O150 2.037 . S
Co119 N154 2.145 . S
Co119 N175 2.257 . S
O120 Co118 2.143 . S
O120 Co119 2.160 . S
C121 O122 1.278 . S
C121 O129 1.224 . S
O122 C121 1.278 . S
C123 O124 1.245 . S
C123 O135 1.232 . S
O124 C123 1.245 . S
O125 Co119 2.058 . S
O125 C151 1.269 . S
O126 Co118 2.074 . S
O126 C151 1.257 . S
H127 C152 0.930 . S
H128 C158 0.930 . S
O129 Co118 2.093 . S
O129 C121 1.224 . S
H130 C162 0.929 . S
H131 C164 0.930 . S
H132 C165 0.930 . S
H133 C163 0.929 . S
H134 C166 0.928 . S
O135 Co119 2.057 . S
O135 C123 1.232 . S
H136 C155 0.929 . S
H137 C156 0.929 . S
H138 C168 0.931 . S
H139 C160 0.929 . S
H140 C169 0.930 . S
H141 C161 0.931 . S
O142 Co118 2.097 . S
O142 C170 1.214 . S
H143 C171 0.929 . S
H144 C172 0.929 . S
H145 C173 0.930 . S
H146 C174 0.929 . S
H147 C176 0.930 . S
H148 C153 0.930 . S
H149 C157 0.930 . S
O150 Co119 2.037 . S
O150 C170 1.234 . S
C151 O125 1.269 . S
C151 O126 1.257 . S
C152 H127 0.930 . S
C152 C155 1.388 . S
C152 C157 1.418 . S
C153 H148 0.930 . S
C153 C156 1.404 . S
C153 C157 1.353 . S
N154 Co119 2.145 . S
N154 C155 1.397 . S
N154 C156 1.334 . S
C155 H136 0.929 . S
C155 C152 1.388 . S
C155 N154 1.397 . S
C156 H137 0.929 . S
C156 C153 1.404 . S
C156 N154 1.334 . S
C157 H149 0.930 . S
C157 C152 1.418 . S
C157 C153 1.353 . S
C158 H128 0.930 . S
C158 N159 1.330 . S
C158 C160 1.446 1_565 S
N159 Co118 2.151 . S
N159 C158 1.330 . S
N159 C163 1.418 . S
C160 H139 0.929 . S
C160 C158 1.446 1_545 S
C160 C161 1.332 . S
C161 H141 0.931 . S
C161 C160 1.332 . S
C161 C162 1.267 . S
C162 H130 0.929 . S
C162 C161 1.267 . S
C162 C163 1.251 1_545 S
C163 H133 0.929 . S
C163 N159 1.418 . S
C163 C162 1.251 1_565 S
C164 H131 0.930 . S
C164 C166 1.406 . S
C164 C169 1.261 . S
C165 H132 0.930 . S
C165 N167 1.325 . S
C165 C168 1.357 . S
C166 H134 0.928 . S
C166 C164 1.406 . S
C166 N167 1.261 . S
N167 Co118 2.214 . S
N167 C165 1.325 . S
N167 C166 1.261 . S
C168 H138 0.931 . S
C168 C165 1.357 . S
C168 C169 1.312 . S
C169 H140 0.930 . S
C169 C164 1.261 . S
C169 C168 1.312 . S
C170 O142 1.214 . S
C170 O150 1.234 . S
C171 H143 0.929 . S
C171 C174 1.391 . S
C171 C176 1.391 . S
C172 H144 0.929 . S
C172 C173 1.390 . S
C172 N175 1.391 . S
C173 H145 0.930 . S
C173 C172 1.390 . S
C173 C174 1.392 . S
C174 H146 0.929 . S
C174 C171 1.391 . S
C174 C173 1.392 . S
N175 Co119 2.257 . S
N175 C172 1.391 . S
N175 C176 1.388 . S
C176 H147 0.930 . S
C176 C171 1.391 . S
C176 N175 1.388 . S
Co177 O179 2.143 . S
Co177 O185 2.074 . S
Co177 O188 2.093 . S
Co177 O201 2.097 . S
Co177 N218 2.151 . S
Co177 N226 2.214 1_655 S
Co178 O179 2.160 . S
Co178 O184 2.058 . S
Co178 O194 2.057 . S
Co178 O209 2.037 . S
Co178 N213 2.145 . S
Co178 N234 2.257 . S
O179 Co177 2.143 . S
O179 Co178 2.160 . S
C180 O181 1.278 . S
C180 O188 1.224 . S
O181 C180 1.278 . S
C182 O183 1.245 . S
C182 O194 1.232 . S
O183 C182 1.245 . S
O184 Co178 2.058 . S
O184 C210 1.269 . S
O185 Co177 2.074 . S
O185 C210 1.257 . S
H186 C211 0.930 . S
H187 C217 0.930 . S
O188 Co177 2.093 . S
O188 C180 1.224 . S
H189 C221 0.929 1_455 S
H190 C223 0.930 . S
H191 C224 0.930 . S
H192 C222 0.948 . S
H193 C225 0.928 . S
O194 Co178 2.057 . S
O194 C182 1.232 . S
H195 C214 0.929 . S
H196 C215 0.929 . S
H197 C227 0.931 . S
H198 C219 0.929 . S
H199 C228 0.930 . S
H200 C220 0.931 . S
O201 Co177 2.097 . S
O201 C229 1.214 . S
H202 C230 0.929 . S
H203 C231 0.929 . S
H204 C232 0.930 . S
H205 C233 0.929 . S
H206 C235 0.930 . S
H207 C212 0.930 . S
H208 C216 0.930 . S
O209 Co178 2.037 . S
O209 C229 1.234 . S
C210 O184 1.269 . S
C210 O185 1.257 . S
C211 H186 0.930 . S
C211 C214 1.388 . S
C211 C216 1.418 . S
C212 H207 0.930 . S
C212 C215 1.404 . S
C212 C216 1.353 . S
N213 Co178 2.145 . S
N213 C214 1.397 . S
N213 C215 1.334 . S
C214 H195 0.929 . S
C214 C211 1.388 . S
C214 N213 1.397 . S
C215 H196 0.929 . S
C215 C212 1.404 . S
C215 N213 1.334 . S
C216 H208 0.930 . S
C216 C211 1.418 . S
C216 C212 1.353 . S
C217 H187 0.930 . S
C217 N218 1.330 . S
C217 C219 1.446 1_545 S
N218 Co177 2.151 . S
N218 C217 1.330 . S
N218 C222 1.418 . S
C219 H198 0.929 . S
C219 C217 1.446 1_565 S
C219 C220 1.332 . S
C220 H200 0.931 . S
C220 C219 1.332 . S
C220 C221 1.267 . S
C221 H189 0.929 1_655 S
C221 C220 1.267 . S
C221 C222 1.251 1_565 S
C222 H192 0.948 . S
C222 N218 1.418 . S
C222 C221 1.251 1_545 S
C223 H190 0.930 . S
C223 C225 1.406 . S
C223 C228 1.261 . S
C224 H191 0.930 . S
C224 N226 1.325 . S
C224 C227 1.357 . S
C225 H193 0.928 . S
C225 C223 1.406 . S
C225 N226 1.261 . S
N226 Co177 2.214 1_455 S
N226 C224 1.325 . S
N226 C225 1.261 . S
C227 H197 0.931 . S
C227 C224 1.357 . S
C227 C228 1.312 . S
C228 H199 0.930 . S
C228 C223 1.261 . S
C228 C227 1.312 . S
C229 O201 1.214 . S
C229 O209 1.234 . S
C230 H202 0.929 . S
C230 C233 1.391 . S
C230 C235 1.391 . S
C231 H203 0.929 . S
C231 C232 1.390 . S
C231 N234 1.391 . S
C232 H204 0.930 . S
C232 C231 1.390 . S
C232 C233 1.392 . S
C233 H205 0.929 . S
C233 C230 1.391 . S
C233 C232 1.392 . S
N234 Co178 2.257 . S
N234 C231 1.391 . S
N234 C235 1.388 . S
C235 H206 0.930 . S
C235 C230 1.391 . S
C235 N234 1.388 . S
Co236 O238 2.143 . S
Co236 O244 2.074 . S
Co236 O247 2.093 . S
Co236 O260 2.097 . S
Co236 N277 2.151 . S
Co236 N285 2.214 1_655 S
Co237 O238 2.160 . S
Co237 O243 2.058 . S
Co237 O253 2.057 . S
Co237 O268 2.037 . S
Co237 N272 2.145 . S
Co237 N293 2.257 . S
O238 Co236 2.143 . S
O238 Co237 2.160 . S
C239 O240 1.278 . S
C239 O247 1.224 . S
O240 C239 1.278 . S
C241 O242 1.245 . S
C241 O253 1.232 . S
O242 C241 1.245 . S
O243 Co237 2.058 . S
O243 C269 1.269 . S
O244 Co236 2.074 . S
O244 C269 1.257 . S
H245 C270 0.930 . S
H246 C276 0.930 . S
O247 Co236 2.093 . S
O247 C239 1.224 . S
H248 C280 0.929 1_455 S
H249 C282 0.930 . S
H250 C283 0.930 . S
H251 C281 0.948 . S
H252 C284 0.928 . S
O253 Co237 2.057 . S
O253 C241 1.232 . S
H254 C273 0.929 . S
H255 C274 0.929 . S
H256 C286 0.931 . S
H257 C278 0.929 . S
H258 C287 0.930 . S
H259 C279 0.931 . S
O260 Co236 2.097 . S
O260 C288 1.214 . S
H261 C289 0.929 . S
H262 C290 0.929 . S
H263 C291 0.930 . S
H264 C292 0.929 . S
H265 C294 0.930 . S
H266 C271 0.930 . S
H267 C275 0.930 . S
O268 Co237 2.037 . S
O268 C288 1.234 . S
C269 O243 1.269 . S
C269 O244 1.257 . S
C270 H245 0.930 . S
C270 C273 1.388 . S
C270 C275 1.418 . S
C271 H266 0.930 . S
C271 C274 1.404 . S
C271 C275 1.353 . S
N272 Co237 2.145 . S
N272 C273 1.397 . S
N272 C274 1.334 . S
C273 H254 0.929 . S
C273 C270 1.388 . S
C273 N272 1.397 . S
C274 H255 0.929 . S
C274 C271 1.404 . S
C274 N272 1.334 . S
C275 H267 0.930 . S
C275 C270 1.418 . S
C275 C271 1.353 . S
C276 H246 0.930 . S
C276 N277 1.330 . S
C276 C278 1.446 1_565 S
N277 Co236 2.151 . S
N277 C276 1.330 . S
N277 C281 1.418 . S
C278 H257 0.929 . S
C278 C276 1.446 1_545 S
C278 C279 1.332 . S
C279 H259 0.931 . S
C279 C278 1.332 . S
C279 C280 1.267 . S
C280 H248 0.929 1_655 S
C280 C279 1.267 . S
C280 C281 1.251 1_545 S
C281 H251 0.948 . S
C281 N277 1.418 . S
C281 C280 1.251 1_565 S
C282 H249 0.930 . S
C282 C284 1.406 . S
C282 C287 1.261 . S
C283 H250 0.930 . S
C283 N285 1.325 . S
C283 C286 1.357 . S
C284 H252 0.928 . S
C284 C282 1.406 . S
C284 N285 1.261 . S
N285 Co236 2.214 1_455 S
N285 C283 1.325 . S
N285 C284 1.261 . S
C286 H256 0.931 . S
C286 C283 1.357 . S
C286 C287 1.312 . S
C287 H258 0.930 . S
C287 C282 1.261 . S
C287 C286 1.312 . S
C288 O260 1.214 . S
C288 O268 1.234 . S
C289 H261 0.929 . S
C289 C292 1.391 . S
C289 C294 1.391 . S
C290 H262 0.929 . S
C290 C291 1.390 . S
C290 N293 1.391 . S
C291 H263 0.930 . S
C291 C290 1.390 . S
C291 C292 1.392 . S
C292 H264 0.929 . S
C292 C289 1.391 . S
C292 C291 1.392 . S
N293 Co237 2.257 . S
N293 C290 1.391 . S
N293 C294 1.388 . S
C294 H265 0.930 . S
C294 C289 1.391 . S
C294 N293 1.388 . S
Co295 O297 2.143 . S
Co295 O303 2.074 . S
Co295 O306 2.093 . S
Co295 O319 2.097 . S
Co295 N336 2.151 . S
Co295 N344 2.214 . S
Co296 O297 2.160 . S
Co296 O302 2.058 . S
Co296 O312 2.057 . S
Co296 O327 2.037 . S
Co296 N331 2.145 . S
Co296 N352 2.257 . S
O297 Co295 2.143 . S
O297 Co296 2.160 . S
C298 O299 1.278 . S
C298 O306 1.224 . S
O299 C298 1.278 . S
C300 O301 1.245 . S
C300 O312 1.232 . S
O301 C300 1.245 . S
O302 Co296 2.058 . S
O302 C328 1.269 . S
O303 Co295 2.074 . S
O303 C328 1.257 . S
H304 C329 0.930 . S
H305 C335 0.930 . S
O306 Co295 2.093 . S
O306 C298 1.224 . S
H307 C339 0.929 . S
H308 C341 0.930 . S
H309 C342 0.930 . S
H310 C340 0.929 . S
H311 C343 0.928 . S
O312 Co296 2.057 . S
O312 C300 1.232 . S
H313 C332 0.929 . S
H314 C333 0.929 . S
H315 C345 0.931 . S
H316 C337 0.929 . S
H317 C346 0.930 . S
H318 C338 0.931 . S
O319 Co295 2.097 . S
O319 C347 1.214 . S
H320 C348 0.929 . S
H321 C349 0.929 . S
H322 C350 0.930 . S
H323 C351 0.929 . S
H324 C353 0.930 . S
H325 C330 0.930 . S
H326 C334 0.930 . S
O327 Co296 2.037 . S
O327 C347 1.234 . S
C328 O302 1.269 . S
C328 O303 1.257 . S
C329 H304 0.930 . S
C329 C332 1.388 . S
C329 C334 1.418 . S
C330 H325 0.930 . S
C330 C333 1.404 . S
C330 C334 1.353 . S
N331 Co296 2.145 . S
N331 C332 1.397 . S
N331 C333 1.334 . S
C332 H313 0.929 . S
C332 C329 1.388 . S
C332 N331 1.397 . S
C333 H314 0.929 . S
C333 C330 1.404 . S
C333 N331 1.334 . S
C334 H326 0.930 . S
C334 C329 1.418 . S
C334 C330 1.353 . S
C335 H305 0.930 . S
C335 N336 1.330 . S
C335 C337 1.446 1_545 S
N336 Co295 2.151 . S
N336 C335 1.330 . S
N336 C340 1.418 . S
C337 H316 0.929 . S
C337 C335 1.446 1_565 S
C337 C338 1.332 . S
C338 H318 0.931 . S
C338 C337 1.332 . S
C338 C339 1.267 . S
C339 H307 0.929 . S
C339 C338 1.267 . S
C339 C340 1.251 1_565 S
C340 H310 0.929 . S
C340 N336 1.418 . S
C340 C339 1.251 1_545 S
C341 H308 0.930 . S
C341 C343 1.406 . S
C341 C346 1.261 . S
C342 H309 0.930 . S
C342 N344 1.325 . S
C342 C345 1.357 . S
C343 H311 0.928 . S
C343 C341 1.406 . S
C343 N344 1.261 . S
N344 Co295 2.214 . S
N344 C342 1.325 . S
N344 C343 1.261 . S
C345 H315 0.931 . S
C345 C342 1.357 . S
C345 C346 1.312 . S
C346 H317 0.930 . S
C346 C341 1.261 . S
C346 C345 1.312 . S
C347 O319 1.214 . S
C347 O327 1.234 . S
C348 H320 0.929 . S
C348 C351 1.391 . S
C348 C353 1.391 . S
C349 H321 0.929 . S
C349 C350 1.390 . S
C349 N352 1.391 . S
C350 H322 0.930 . S
C350 C349 1.390 . S
C350 C351 1.392 . S
C351 H323 0.929 . S
C351 C348 1.391 . S
C351 C350 1.392 . S
N352 Co296 2.257 . S
N352 C349 1.391 . S
N352 C353 1.388 . S
C353 H324 0.930 . S
C353 C348 1.391 . S
C353 N352 1.388 . S
Co354 O356 2.143 . S
Co354 O362 2.074 . S
Co354 O365 2.093 . S
Co354 O378 2.097 . S
Co354 N395 2.151 . S
Co354 N403 2.214 . S
Co355 O356 2.160 . S
Co355 O361 2.058 . S
Co355 O371 2.057 . S
Co355 O386 2.037 . S
Co355 N390 2.145 . S
Co355 N411 2.257 . S
O356 Co354 2.143 . S
O356 Co355 2.160 . S
C357 O358 1.278 . S
C357 O365 1.224 . S
O358 C357 1.278 . S
C359 O360 1.245 . S
C359 O371 1.232 . S
O360 C359 1.245 . S
O361 Co355 2.058 . S
O361 C387 1.269 . S
O362 Co354 2.074 . S
O362 C387 1.257 . S
H363 C388 0.930 . S
H364 C394 0.930 . S
O365 Co354 2.093 . S
O365 C357 1.224 . S
H366 C398 0.929 . S
H367 C400 0.930 . S
H368 C401 0.930 . S
H369 C399 0.929 . S
H370 C402 0.928 . S
O371 Co355 2.057 . S
O371 C359 1.232 . S
H372 C391 0.929 . S
H373 C392 0.929 . S
H374 C404 0.931 . S
H375 C396 0.929 . S
H376 C405 0.930 . S
H377 C397 0.931 . S
O378 Co354 2.097 . S
O378 C406 1.214 . S
H379 C407 0.929 . S
H380 C408 0.929 . S
H381 C409 0.930 . S
H382 C410 0.929 . S
H383 C412 0.930 . S
H384 C389 0.930 . S
H385 C393 0.930 . S
O386 Co355 2.037 . S
O386 C406 1.234 . S
C387 O361 1.269 . S
C387 O362 1.257 . S
C388 H363 0.930 . S
C388 C391 1.388 . S
C388 C393 1.418 . S
C389 H384 0.930 . S
C389 C392 1.404 . S
C389 C393 1.353 . S
N390 Co355 2.145 . S
N390 C391 1.397 . S
N390 C392 1.334 . S
C391 H372 0.929 . S
C391 C388 1.388 . S
C391 N390 1.397 . S
C392 H373 0.929 . S
C392 C389 1.404 . S
C392 N390 1.334 . S
C393 H385 0.930 . S
C393 C388 1.418 . S
C393 C389 1.353 . S
C394 H364 0.930 . S
C394 N395 1.330 . S
C394 C396 1.446 1_545 S
N395 Co354 2.151 . S
N395 C394 1.330 . S
N395 C399 1.418 . S
C396 H375 0.929 . S
C396 C394 1.446 1_565 S
C396 C397 1.332 . S
C397 H377 0.931 . S
C397 C396 1.332 . S
C397 C398 1.267 . S
C398 H366 0.929 . S
C398 C397 1.267 . S
C398 C399 1.251 1_565 S
C399 H369 0.929 . S
C399 N395 1.418 . S
C399 C398 1.251 1_545 S
C400 H367 0.930 . S
C400 C402 1.406 . S
C400 C405 1.261 . S
C401 H368 0.930 . S
C401 N403 1.325 . S
C401 C404 1.357 . S
C402 H370 0.928 . S
C402 C400 1.406 . S
C402 N403 1.261 . S
N403 Co354 2.214 . S
N403 C401 1.325 . S
N403 C402 1.261 . S
C404 H374 0.931 . S
C404 C401 1.357 . S
C404 C405 1.312 . S
C405 H376 0.930 . S
C405 C400 1.261 . S
C405 C404 1.312 . S
C406 O378 1.214 . S
C406 O386 1.234 . S
C407 H379 0.929 . S
C407 C410 1.391 . S
C407 C412 1.391 . S
C408 H380 0.929 . S
C408 C409 1.390 . S
C408 N411 1.391 . S
C409 H381 0.930 . S
C409 C408 1.390 . S
C409 C410 1.392 . S
C410 H382 0.929 . S
C410 C407 1.391 . S
C410 C409 1.392 . S
N411 Co355 2.257 . S
N411 C408 1.391 . S
N411 C412 1.388 . S
C412 H383 0.930 . S
C412 C407 1.391 . S
C412 N411 1.388 . S
Co413 O415 2.143 . S
Co413 O421 2.074 . S
Co413 O424 2.093 . S
Co413 O437 2.097 . S
Co413 N454 2.151 . S
Co413 N462 2.214 1_455 S
Co414 O415 2.160 . S
Co414 O420 2.058 . S
Co414 O430 2.057 . S
Co414 O445 2.037 . S
Co414 N449 2.145 . S
Co414 N470 2.257 . S
O415 Co413 2.143 . S
O415 Co414 2.160 . S
C416 O417 1.278 . S
C416 O424 1.224 . S
O417 C416 1.278 . S
C418 O419 1.245 . S
C418 O430 1.232 . S
O419 C418 1.245 . S
O420 Co414 2.058 . S
O420 C446 1.269 . S
O421 Co413 2.074 . S
O421 C446 1.257 . S
H422 C447 0.930 . S
H423 C453 0.930 . S
O424 Co413 2.093 . S
O424 C416 1.224 . S
H425 C457 0.929 1_655 S
H426 C459 0.930 . S
H427 C460 0.930 . S
H428 C458 0.948 . S
H429 C461 0.928 . S
O430 Co414 2.057 . S
O430 C418 1.232 . S
H431 C450 0.929 . S
H432 C451 0.929 . S
H433 C463 0.931 . S
H434 C455 0.929 . S
H435 C464 0.930 . S
H436 C456 0.931 . S
O437 Co413 2.097 . S
O437 C465 1.214 . S
H438 C466 0.929 . S
H439 C467 0.929 . S
H440 C468 0.930 . S
H441 C469 0.929 . S
H442 C471 0.930 . S
H443 C448 0.930 . S
H444 C452 0.930 . S
O445 Co414 2.037 . S
O445 C465 1.234 . S
C446 O420 1.269 . S
C446 O421 1.257 . S
C447 H422 0.930 . S
C447 C450 1.388 . S
C447 C452 1.418 . S
C448 H443 0.930 . S
C448 C451 1.404 . S
C448 C452 1.353 . S
N449 Co414 2.145 . S
N449 C450 1.397 . S
N449 C451 1.334 . S
C450 H431 0.929 . S
C450 C447 1.388 . S
C450 N449 1.397 . S
C451 H432 0.929 . S
C451 C448 1.404 . S
C451 N449 1.334 . S
C452 H444 0.930 . S
C452 C447 1.418 . S
C452 C448 1.353 . S
C453 H423 0.930 . S
C453 N454 1.330 . S
C453 C455 1.446 1_565 S
N454 Co413 2.151 . S
N454 C453 1.330 . S
N454 C458 1.418 . S
C455 H434 0.929 . S
C455 C453 1.446 1_545 S
C455 C456 1.332 . S
C456 H436 0.931 . S
C456 C455 1.332 . S
C456 C457 1.267 . S
C457 H425 0.929 1_455 S
C457 C456 1.267 . S
C457 C458 1.251 1_545 S
C458 H428 0.948 . S
C458 N454 1.418 . S
C458 C457 1.251 1_565 S
C459 H426 0.930 . S
C459 C461 1.406 . S
C459 C464 1.261 . S
C460 H427 0.930 . S
C460 N462 1.325 . S
C460 C463 1.357 . S
C461 H429 0.928 . S
C461 C459 1.406 . S
C461 N462 1.261 . S
N462 Co413 2.214 1_655 S
N462 C460 1.325 . S
N462 C461 1.261 . S
C463 H433 0.931 . S
C463 C460 1.357 . S
C463 C464 1.312 . S
C464 H435 0.930 . S
C464 C459 1.261 . S
C464 C463 1.312 . S
C465 O437 1.214 . S
C465 O445 1.234 . S
C466 H438 0.929 . S
C466 C469 1.391 . S
C466 C471 1.391 . S
C467 H439 0.929 . S
C467 C468 1.390 . S
C467 N470 1.391 . S
C468 H440 0.930 . S
C468 C467 1.390 . S
C468 C469 1.392 . S
C469 H441 0.929 . S
C469 C466 1.391 . S
C469 C468 1.392 . S
N470 Co414 2.257 . S
N470 C467 1.391 . S
N470 C471 1.388 . S
C471 H442 0.930 . S
C471 C466 1.391 . S
C471 N470 1.388 . S
Co472 O474 2.143 . S
Co472 O480 2.074 . S
Co472 O483 2.093 . S
Co472 O496 2.097 . S
Co472 N513 2.151 . S
Co472 N521 2.214 . S
Co473 O474 2.160 . S
Co473 O479 2.058 . S
Co473 O489 2.057 . S
Co473 O504 2.037 . S
Co473 N508 2.145 . S
Co473 N529 2.257 . S
O474 Co472 2.143 . S
O474 Co473 2.160 . S
C475 O476 1.278 . S
C475 O483 1.224 . S
O476 C475 1.278 . S
C477 O478 1.245 . S
C477 O489 1.232 . S
O478 C477 1.245 . S
O479 Co473 2.058 . S
O479 C505 1.269 . S
O480 Co472 2.074 . S
O480 C505 1.257 . S
H481 C506 0.930 . S
H482 C512 0.930 . S
O483 Co472 2.093 . S
O483 C475 1.224 . S
H484 C516 0.929 . S
H485 C518 0.930 . S
H486 C519 0.930 . S
H487 C517 0.929 . S
H488 C520 0.928 . S
O489 Co473 2.057 . S
O489 C477 1.232 . S
H490 C509 0.929 . S
H491 C510 0.929 . S
H492 C522 0.931 . S
H493 C514 0.929 . S
H494 C523 0.930 . S
H495 C515 0.931 . S
O496 Co472 2.097 . S
O496 C524 1.214 . S
H497 C525 0.929 . S
H498 C526 0.929 . S
H499 C527 0.930 . S
H500 C528 0.929 . S
H501 C530 0.930 . S
H502 C507 0.930 . S
H503 C511 0.930 . S
O504 Co473 2.037 . S
O504 C524 1.234 . S
C505 O479 1.269 . S
C505 O480 1.257 . S
C506 H481 0.930 . S
C506 C509 1.388 . S
C506 C511 1.418 . S
C507 H502 0.930 . S
C507 C510 1.404 . S
C507 C511 1.353 . S
N508 Co473 2.145 . S
N508 C509 1.397 . S
N508 C510 1.334 . S
C509 H490 0.929 . S
C509 C506 1.388 . S
C509 N508 1.397 . S
C510 H491 0.929 . S
C510 C507 1.404 . S
C510 N508 1.334 . S
C511 H503 0.930 . S
C511 C506 1.418 . S
C511 C507 1.353 . S
C512 H482 0.930 . S
C512 N513 1.330 . S
C512 C514 1.446 . S
N513 Co472 2.151 . S
N513 C512 1.330 . S
N513 C517 1.418 . S
C514 H493 0.929 . S
C514 C512 1.446 . S
C514 C515 1.332 . S
C515 H495 0.931 . S
C515 C514 1.332 . S
C515 C516 1.267 . S
C516 H484 0.929 . S
C516 C515 1.267 . S
C516 C517 1.251 . S
C517 H487 0.929 . S
C517 N513 1.418 . S
C517 C516 1.251 . S
C518 H485 0.930 . S
C518 C520 1.406 . S
C518 C523 1.261 . S
C519 H486 0.930 . S
C519 N521 1.325 . S
C519 C522 1.357 . S
C520 H488 0.928 . S
C520 C518 1.406 . S
C520 N521 1.261 . S
N521 Co472 2.214 . S
N521 C519 1.325 . S
N521 C520 1.261 . S
C522 H492 0.931 . S
C522 C519 1.357 . S
C522 C523 1.312 . S
C523 H494 0.930 . S
C523 C518 1.261 . S
C523 C522 1.312 . S
C524 O496 1.214 . S
C524 O504 1.234 . S
C525 H497 0.929 . S
C525 C528 1.391 . S
C525 C530 1.391 . S
C526 H498 0.929 . S
C526 C527 1.390 . S
C526 N529 1.391 . S
C527 H499 0.930 . S
C527 C526 1.390 . S
C527 C528 1.392 . S
C528 H500 0.929 . S
C528 C525 1.391 . S
C528 C527 1.392 . S
N529 Co473 2.257 . S
N529 C526 1.391 . S
N529 C530 1.388 . S
C530 H501 0.930 . S
C530 C525 1.391 . S
C530 N529 1.388 . S
Co531 O533 2.143 . S
Co531 O539 2.074 . S
Co531 O542 2.093 . S
Co531 O555 2.097 . S
Co531 N572 2.151 . S
Co531 N580 2.214 1_655 S
Co532 O533 2.160 . S
Co532 O538 2.058 . S
Co532 O548 2.057 . S
Co532 O563 2.037 . S
Co532 N567 2.145 . S
Co532 N588 2.257 . S
O533 Co531 2.143 . S
O533 Co532 2.160 . S
C534 O535 1.278 . S
C534 O542 1.224 . S
O535 C534 1.278 . S
C536 O537 1.245 . S
C536 O548 1.232 . S
O537 C536 1.245 . S
O538 Co532 2.058 . S
O538 C564 1.269 . S
O539 Co531 2.074 . S
O539 C564 1.257 . S
H540 C565 0.930 . S
H541 C571 0.930 . S
O542 Co531 2.093 . S
O542 C534 1.224 . S
H543 C575 0.929 1_455 S
H544 C577 0.930 . S
H545 C578 0.930 . S
H546 C576 0.948 . S
H547 C579 0.928 . S
O548 Co532 2.057 . S
O548 C536 1.232 . S
H549 C568 0.929 . S
H550 C569 0.929 . S
H551 C581 0.931 . S
H552 C573 0.929 . S
H553 C582 0.930 . S
H554 C574 0.931 . S
O555 Co531 2.097 . S
O555 C583 1.214 . S
H556 C584 0.929 . S
H557 C585 0.929 . S
H558 C586 0.930 . S
H559 C587 0.929 . S
H560 C589 0.930 . S
H561 C566 0.930 . S
H562 C570 0.930 . S
O563 Co532 2.037 . S
O563 C583 1.234 . S
C564 O538 1.269 . S
C564 O539 1.257 . S
C565 H540 0.930 . S
C565 C568 1.388 . S
C565 C570 1.418 . S
C566 H561 0.930 . S
C566 C569 1.404 . S
C566 C570 1.353 . S
N567 Co532 2.145 . S
N567 C568 1.397 . S
N567 C569 1.334 . S
C568 H549 0.929 . S
C568 C565 1.388 . S
C568 N567 1.397 . S
C569 H550 0.929 . S
C569 C566 1.404 . S
C569 N567 1.334 . S
C570 H562 0.930 . S
C570 C565 1.418 . S
C570 C566 1.353 . S
C571 H541 0.930 . S
C571 N572 1.330 . S
C571 C573 1.446 . S
N572 Co531 2.151 . S
N572 C571 1.330 . S
N572 C576 1.418 . S
C573 H552 0.929 . S
C573 C571 1.446 . S
C573 C574 1.332 . S
C574 H554 0.931 . S
C574 C573 1.332 . S
C574 C575 1.267 . S
C575 H543 0.929 1_655 S
C575 C574 1.267 . S
C575 C576 1.251 . S
C576 H546 0.948 . S
C576 N572 1.418 . S
C576 C575 1.251 . S
C577 H544 0.930 . S
C577 C579 1.406 . S
C577 C582 1.261 . S
C578 H545 0.930 . S
C578 N580 1.325 . S
C578 C581 1.357 . S
C579 H547 0.928 . S
C579 C577 1.406 . S
C579 N580 1.261 . S
N580 Co531 2.214 1_455 S
N580 C578 1.325 . S
N580 C579 1.261 . S
C581 H551 0.931 . S
C581 C578 1.357 . S
C581 C582 1.312 . S
C582 H553 0.930 . S
C582 C577 1.261 . S
C582 C581 1.312 . S
C583 O555 1.214 . S
C583 O563 1.234 . S
C584 H556 0.929 . S
C584 C587 1.391 . S
C584 C589 1.391 . S
C585 H557 0.929 . S
C585 C586 1.390 . S
C585 N588 1.391 . S
C586 H558 0.930 . S
C586 C585 1.390 . S
C586 C587 1.392 . S
C587 H559 0.929 . S
C587 C584 1.391 . S
C587 C586 1.392 . S
N588 Co532 2.257 . S
N588 C585 1.391 . S
N588 C589 1.388 . S
C589 H560 0.930 . S
C589 C584 1.391 . S
C589 N588 1.388 . S
Co590 O592 2.143 . S
Co590 O598 2.074 . S
Co590 O601 2.093 . S
Co590 O614 2.097 . S
Co590 N631 2.151 . S
Co590 N639 2.214 1_455 S
Co591 O592 2.160 . S
Co591 O597 2.058 . S
Co591 O607 2.057 . S
Co591 O622 2.037 . S
Co591 N626 2.145 . S
Co591 N647 2.257 . S
O592 Co590 2.143 . S
O592 Co591 2.160 . S
C593 O594 1.278 . S
C593 O601 1.224 . S
O594 C593 1.278 . S
C595 O596 1.245 . S
C595 O607 1.232 . S
O596 C595 1.245 . S
O597 Co591 2.058 . S
O597 C623 1.269 . S
O598 Co590 2.074 . S
O598 C623 1.257 . S
H599 C624 0.930 . S
H600 C630 0.930 . S
O601 Co590 2.093 . S
O601 C593 1.224 . S
H602 C634 0.929 1_655 S
H603 C636 0.930 . S
H604 C637 0.930 . S
H605 C635 0.948 . S
H606 C638 0.928 . S
O607 Co591 2.057 . S
O607 C595 1.232 . S
H608 C627 0.929 . S
H609 C628 0.929 . S
H610 C640 0.931 . S
H611 C632 0.929 . S
H612 C641 0.930 . S
H613 C633 0.931 . S
O614 Co590 2.097 . S
O614 C642 1.214 . S
H615 C643 0.929 . S
H616 C644 0.929 . S
H617 C645 0.930 . S
H618 C646 0.929 . S
H619 C648 0.930 . S
H620 C625 0.930 . S
H621 C629 0.930 . S
O622 Co591 2.037 . S
O622 C642 1.234 . S
C623 O597 1.269 . S
C623 O598 1.257 . S
C624 H599 0.930 . S
C624 C627 1.388 . S
C624 C629 1.418 . S
C625 H620 0.930 . S
C625 C628 1.404 . S
C625 C629 1.353 . S
N626 Co591 2.145 . S
N626 C627 1.397 . S
N626 C628 1.334 . S
C627 H608 0.929 . S
C627 C624 1.388 . S
C627 N626 1.397 . S
C628 H609 0.929 . S
C628 C625 1.404 . S
C628 N626 1.334 . S
C629 H621 0.930 . S
C629 C624 1.418 . S
C629 C625 1.353 . S
C630 H600 0.930 . S
C630 N631 1.330 . S
C630 C632 1.446 . S
N631 Co590 2.151 . S
N631 C630 1.330 . S
N631 C635 1.418 . S
C632 H611 0.929 . S
C632 C630 1.446 . S
C632 C633 1.332 . S
C633 H613 0.931 . S
C633 C632 1.332 . S
C633 C634 1.267 . S
C634 H602 0.929 1_455 S
C634 C633 1.267 . S
C634 C635 1.251 . S
C635 H605 0.948 . S
C635 N631 1.418 . S
C635 C634 1.251 . S
C636 H603 0.930 . S
C636 C638 1.406 . S
C636 C641 1.261 . S
C637 H604 0.930 . S
C637 N639 1.325 . S
C637 C640 1.357 . S
C638 H606 0.928 . S
C638 C636 1.406 . S
C638 N639 1.261 . S
N639 Co590 2.214 1_655 S
N639 C637 1.325 . S
N639 C638 1.261 . S
C640 H610 0.931 . S
C640 C637 1.357 . S
C640 C641 1.312 . S
C641 H612 0.930 . S
C641 C636 1.261 . S
C641 C640 1.312 . S
C642 O614 1.214 . S
C642 O622 1.234 . S
C643 H615 0.929 . S
C643 C646 1.391 . S
C643 C648 1.391 . S
C644 H616 0.929 . S
C644 C645 1.390 . S
C644 N647 1.391 . S
C645 H617 0.930 . S
C645 C644 1.390 . S
C645 C646 1.392 . S
C646 H618 0.929 . S
C646 C643 1.391 . S
C646 C645 1.392 . S
N647 Co591 2.257 . S
N647 C644 1.391 . S
N647 C648 1.388 . S
C648 H619 0.930 . S
C648 C643 1.391 . S
C648 N647 1.388 . S
Co649 O651 2.143 . S
Co649 O657 2.074 . S
Co649 O660 2.093 . S
Co649 O673 2.097 . S
Co649 N690 2.151 . S
Co649 N698 2.214 . S
Co650 O651 2.160 . S
Co650 O656 2.058 . S
Co650 O666 2.057 . S
Co650 O681 2.037 . S
Co650 N685 2.145 . S
Co650 N706 2.257 . S
O651 Co649 2.143 . S
O651 Co650 2.160 . S
C652 O653 1.278 . S
C652 O660 1.224 . S
O653 C652 1.278 . S
C654 O655 1.245 . S
C654 O666 1.232 . S
O655 C654 1.245 . S
O656 Co650 2.058 . S
O656 C682 1.269 . S
O657 Co649 2.074 . S
O657 C682 1.257 . S
H658 C683 0.930 . S
H659 C689 0.930 . S
O660 Co649 2.093 . S
O660 C652 1.224 . S
H661 C693 0.929 . S
H662 C695 0.930 . S
H663 C696 0.930 . S
H664 C694 0.929 . S
H665 C697 0.928 . S
O666 Co650 2.057 . S
O666 C654 1.232 . S
H667 C686 0.929 . S
H668 C687 0.929 . S
H669 C699 0.931 . S
H670 C691 0.929 . S
H671 C700 0.930 . S
H672 C692 0.931 . S
O673 Co649 2.097 . S
O673 C701 1.214 . S
H674 C702 0.929 . S
H675 C703 0.929 . S
H676 C704 0.930 . S
H677 C705 0.929 . S
H678 C707 0.930 . S
H679 C684 0.930 . S
H680 C688 0.930 . S
O681 Co650 2.037 . S
O681 C701 1.234 . S
C682 O656 1.269 . S
C682 O657 1.257 . S
C683 H658 0.930 . S
C683 C686 1.388 . S
C683 C688 1.418 . S
C684 H679 0.930 . S
C684 C687 1.404 . S
C684 C688 1.353 . S
N685 Co650 2.145 . S
N685 C686 1.397 . S
N685 C687 1.334 . S
C686 H667 0.929 . S
C686 C683 1.388 . S
C686 N685 1.397 . S
C687 H668 0.929 . S
C687 C684 1.404 . S
C687 N685 1.334 . S
C688 H680 0.930 . S
C688 C683 1.418 . S
C688 C684 1.353 . S
C689 H659 0.930 . S
C689 N690 1.330 . S
C689 C691 1.446 . S
N690 Co649 2.151 . S
N690 C689 1.330 . S
N690 C694 1.418 . S
C691 H670 0.929 . S
C691 C689 1.446 . S
C691 C692 1.332 . S
C692 H672 0.931 . S
C692 C691 1.332 . S
C692 C693 1.267 . S
C693 H661 0.929 . S
C693 C692 1.267 . S
C693 C694 1.251 . S
C694 H664 0.929 . S
C694 N690 1.418 . S
C694 C693 1.251 . S
C695 H662 0.930 . S
C695 C697 1.406 . S
C695 C700 1.261 . S
C696 H663 0.930 . S
C696 N698 1.325 . S
C696 C699 1.357 . S
C697 H665 0.928 . S
C697 C695 1.406 . S
C697 N698 1.261 . S
N698 Co649 2.214 . S
N698 C696 1.325 . S
N698 C697 1.261 . S
C699 H669 0.931 . S
C699 C696 1.357 . S
C699 C700 1.312 . S
C700 H671 0.930 . S
C700 C695 1.261 . S
C700 C699 1.312 . S
C701 O673 1.214 . S
C701 O681 1.234 . S
C702 H674 0.929 . S
C702 C705 1.391 . S
C702 C707 1.391 . S
C703 H675 0.929 . S
C703 C704 1.390 . S
C703 N706 1.391 . S
C704 H676 0.930 . S
C704 C703 1.390 . S
C704 C705 1.392 . S
C705 H677 0.929 . S
C705 C702 1.391 . S
C705 C704 1.392 . S
N706 Co650 2.257 . S
N706 C703 1.391 . S
N706 C707 1.388 . S
C707 H678 0.930 . S
C707 C702 1.391 . S
C707 N706 1.388 . S
Co708 O710 2.143 . S
Co708 O716 2.074 . S
Co708 O719 2.093 . S
Co708 O732 2.097 . S
Co708 N749 2.151 . S
Co708 N757 2.214 . S
Co709 O710 2.160 . S
Co709 O715 2.058 . S
Co709 O725 2.057 . S
Co709 O740 2.037 . S
Co709 N744 2.145 . S
Co709 N765 2.257 . S
O710 Co708 2.143 . S
O710 Co709 2.160 . S
C711 O712 1.278 . S
C711 O719 1.224 . S
O712 C711 1.278 . S
C713 O714 1.245 . S
C713 O725 1.232 . S
O714 C713 1.245 . S
O715 Co709 2.058 . S
O715 C741 1.269 . S
O716 Co708 2.074 . S
O716 C741 1.257 . S
H717 C742 0.930 . S
H718 C748 0.930 . S
O719 Co708 2.093 . S
O719 C711 1.224 . S
H720 C752 0.929 . S
H721 C754 0.930 . S
H722 C755 0.930 . S
H723 C753 0.929 . S
H724 C756 0.928 . S
O725 Co709 2.057 . S
O725 C713 1.232 . S
H726 C745 0.929 . S
H727 C746 0.929 . S
H728 C758 0.931 . S
H729 C750 0.929 . S
H730 C759 0.930 . S
H731 C751 0.931 . S
O732 Co708 2.097 . S
O732 C760 1.214 . S
H733 C761 0.929 . S
H734 C762 0.929 . S
H735 C763 0.930 . S
H736 C764 0.929 . S
H737 C766 0.930 . S
H738 C743 0.930 . S
H739 C747 0.930 . S
O740 Co709 2.037 . S
O740 C760 1.234 . S
C741 O715 1.269 . S
C741 O716 1.257 . S
C742 H717 0.930 . S
C742 C745 1.388 . S
C742 C747 1.418 . S
C743 H738 0.930 . S
C743 C746 1.404 . S
C743 C747 1.353 . S
N744 Co709 2.145 . S
N744 C745 1.397 . S
N744 C746 1.334 . S
C745 H726 0.929 . S
C745 C742 1.388 . S
C745 N744 1.397 . S
C746 H727 0.929 . S
C746 C743 1.404 . S
C746 N744 1.334 . S
C747 H739 0.930 . S
C747 C742 1.418 . S
C747 C743 1.353 . S
C748 H718 0.930 . S
C748 N749 1.330 . S
C748 C750 1.446 . S
N749 Co708 2.151 . S
N749 C748 1.330 . S
N749 C753 1.418 . S
C750 H729 0.929 . S
C750 C748 1.446 . S
C750 C751 1.332 . S
C751 H731 0.931 . S
C751 C750 1.332 . S
C751 C752 1.267 . S
C752 H720 0.929 . S
C752 C751 1.267 . S
C752 C753 1.251 . S
C753 H723 0.929 . S
C753 N749 1.418 . S
C753 C752 1.251 . S
C754 H721 0.930 . S
C754 C756 1.406 . S
C754 C759 1.261 . S
C755 H722 0.930 . S
C755 N757 1.325 . S
C755 C758 1.357 . S
C756 H724 0.928 . S
C756 C754 1.406 . S
C756 N757 1.261 . S
N757 Co708 2.214 . S
N757 C755 1.325 . S
N757 C756 1.261 . S
C758 H728 0.931 . S
C758 C755 1.357 . S
C758 C759 1.312 . S
C759 H730 0.930 . S
C759 C754 1.261 . S
C759 C758 1.312 . S
C760 O732 1.214 . S
C760 O740 1.234 . S
C761 H733 0.929 . S
C761 C764 1.391 . S
C761 C766 1.391 . S
C762 H734 0.929 . S
C762 C763 1.390 . S
C762 N765 1.391 . S
C763 H735 0.930 . S
C763 C762 1.390 . S
C763 C764 1.392 . S
C764 H736 0.929 . S
C764 C761 1.391 . S
C764 C763 1.392 . S
N765 Co709 2.257 . S
N765 C762 1.391 . S
N765 C766 1.388 . S
C766 H737 0.930 . S
C766 C761 1.391 . S
C766 N765 1.388 . S
Co767 O769 2.143 . S
Co767 O775 2.074 . S
Co767 O778 2.093 . S
Co767 O791 2.097 . S
Co767 N808 2.151 . S
Co767 N816 2.214 1_455 S
Co768 O769 2.160 . S
Co768 O774 2.058 . S
Co768 O784 2.057 . S
Co768 O799 2.037 . S
Co768 N803 2.145 . S
Co768 N824 2.257 . S
O769 Co767 2.143 . S
O769 Co768 2.160 . S
C770 O771 1.278 . S
C770 O778 1.224 . S
O771 C770 1.278 . S
C772 O773 1.245 . S
C772 O784 1.232 . S
O773 C772 1.245 . S
O774 Co768 2.058 . S
O774 C800 1.269 . S
O775 Co767 2.074 . S
O775 C800 1.257 . S
H776 C801 0.930 . S
H777 C807 0.930 . S
O778 Co767 2.093 . S
O778 C770 1.224 . S
H779 C811 0.929 1_655 S
H780 C813 0.930 . S
H781 C814 0.930 . S
H782 C812 0.948 . S
H783 C815 0.928 . S
O784 Co768 2.057 . S
O784 C772 1.232 . S
H785 C804 0.929 . S
H786 C805 0.929 . S
H787 C817 0.931 . S
H788 C809 0.929 . S
H789 C818 0.930 . S
H790 C810 0.931 . S
O791 Co767 2.097 . S
O791 C819 1.214 . S
H792 C820 0.929 . S
H793 C821 0.929 . S
H794 C822 0.930 . S
H795 C823 0.929 . S
H796 C825 0.930 . S
H797 C802 0.930 . S
H798 C806 0.930 . S
O799 Co768 2.037 . S
O799 C819 1.234 . S
C800 O774 1.269 . S
C800 O775 1.257 . S
C801 H776 0.930 . S
C801 C804 1.388 . S
C801 C806 1.418 . S
C802 H797 0.930 . S
C802 C805 1.404 . S
C802 C806 1.353 . S
N803 Co768 2.145 . S
N803 C804 1.397 . S
N803 C805 1.334 . S
C804 H785 0.929 . S
C804 C801 1.388 . S
C804 N803 1.397 . S
C805 H786 0.929 . S
C805 C802 1.404 . S
C805 N803 1.334 . S
C806 H798 0.930 . S
C806 C801 1.418 . S
C806 C802 1.353 . S
C807 H777 0.930 . S
C807 N808 1.330 . S
C807 C809 1.446 . S
N808 Co767 2.151 . S
N808 C807 1.330 . S
N808 C812 1.418 . S
C809 H788 0.929 . S
C809 C807 1.446 . S
C809 C810 1.332 . S
C810 H790 0.931 . S
C810 C809 1.332 . S
C810 C811 1.267 . S
C811 H779 0.929 1_455 S
C811 C810 1.267 . S
C811 C812 1.251 . S
C812 H782 0.948 . S
C812 N808 1.418 . S
C812 C811 1.251 . S
C813 H780 0.930 . S
C813 C815 1.406 . S
C813 C818 1.261 . S
C814 H781 0.930 . S
C814 N816 1.325 . S
C814 C817 1.357 . S
C815 H783 0.928 . S
C815 C813 1.406 . S
C815 N816 1.261 . S
N816 Co767 2.214 1_655 S
N816 C814 1.325 . S
N816 C815 1.261 . S
C817 H787 0.931 . S
C817 C814 1.357 . S
C817 C818 1.312 . S
C818 H789 0.930 . S
C818 C813 1.261 . S
C818 C817 1.312 . S
C819 O791 1.214 . S
C819 O799 1.234 . S
C820 H792 0.929 . S
C820 C823 1.391 . S
C820 C825 1.391 . S
C821 H793 0.929 . S
C821 C822 1.390 . S
C821 N824 1.391 . S
C822 H794 0.930 . S
C822 C821 1.390 . S
C822 C823 1.392 . S
C823 H795 0.929 . S
C823 C820 1.391 . S
C823 C822 1.392 . S
N824 Co768 2.257 . S
N824 C821 1.391 . S
N824 C825 1.388 . S
C825 H796 0.930 . S
C825 C820 1.391 . S
C825 N824 1.388 . S
Co826 O828 2.143 . S
Co826 O834 2.074 . S
Co826 O837 2.093 . S
Co826 O850 2.097 . S
Co826 N867 2.151 . S
Co826 N875 2.214 1_655 S
Co827 O828 2.160 . S
Co827 O833 2.058 . S
Co827 O843 2.057 . S
Co827 O858 2.037 . S
Co827 N862 2.145 . S
Co827 N883 2.257 . S
O828 Co826 2.143 . S
O828 Co827 2.160 . S
C829 O830 1.278 . S
C829 O837 1.224 . S
O830 C829 1.278 . S
C831 O832 1.245 . S
C831 O843 1.232 . S
O832 C831 1.245 . S
O833 Co827 2.058 . S
O833 C859 1.269 . S
O834 Co826 2.074 . S
O834 C859 1.257 . S
H835 C860 0.930 . S
H836 C866 0.930 . S
O837 Co826 2.093 . S
O837 C829 1.224 . S
H838 C870 0.929 1_455 S
H839 C872 0.930 . S
H840 C873 0.930 . S
H841 C871 0.948 . S
H842 C874 0.928 . S
O843 Co827 2.057 . S
O843 C831 1.232 . S
H844 C863 0.929 . S
H845 C864 0.929 . S
H846 C876 0.931 . S
H847 C868 0.929 . S
H848 C877 0.930 . S
H849 C869 0.931 . S
O850 Co826 2.097 . S
O850 C878 1.214 . S
H851 C879 0.929 . S
H852 C880 0.929 . S
H853 C881 0.930 . S
H854 C882 0.929 . S
H855 C884 0.930 . S
H856 C861 0.930 . S
H857 C865 0.930 . S
O858 Co827 2.037 . S
O858 C878 1.234 . S
C859 O833 1.269 . S
C859 O834 1.257 . S
C860 H835 0.930 . S
C860 C863 1.388 . S
C860 C865 1.418 . S
C861 H856 0.930 . S
C861 C864 1.404 . S
C861 C865 1.353 . S
N862 Co827 2.145 . S
N862 C863 1.397 . S
N862 C864 1.334 . S
C863 H844 0.929 . S
C863 C860 1.388 . S
C863 N862 1.397 . S
C864 H845 0.929 . S
C864 C861 1.404 . S
C864 N862 1.334 . S
C865 H857 0.930 . S
C865 C860 1.418 . S
C865 C861 1.353 . S
C866 H836 0.930 . S
C866 N867 1.330 . S
C866 C868 1.446 . S
N867 Co826 2.151 . S
N867 C866 1.330 . S
N867 C871 1.418 . S
C868 H847 0.929 . S
C868 C866 1.446 . S
C868 C869 1.332 . S
C869 H849 0.931 . S
C869 C868 1.332 . S
C869 C870 1.267 . S
C870 H838 0.929 1_655 S
C870 C869 1.267 . S
C870 C871 1.251 . S
C871 H841 0.948 . S
C871 N867 1.418 . S
C871 C870 1.251 . S
C872 H839 0.930 . S
C872 C874 1.406 . S
C872 C877 1.261 . S
C873 H840 0.930 . S
C873 N875 1.325 . S
C873 C876 1.357 . S
C874 H842 0.928 . S
C874 C872 1.406 . S
C874 N875 1.261 . S
N875 Co826 2.214 1_455 S
N875 C873 1.325 . S
N875 C874 1.261 . S
C876 H846 0.931 . S
C876 C873 1.357 . S
C876 C877 1.312 . S
C877 H848 0.930 . S
C877 C872 1.261 . S
C877 C876 1.312 . S
C878 O850 1.214 . S
C878 O858 1.234 . S
C879 H851 0.929 . S
C879 C882 1.391 . S
C879 C884 1.391 . S
C880 H852 0.929 . S
C880 C881 1.390 . S
C880 N883 1.391 . S
C881 H853 0.930 . S
C881 C880 1.390 . S
C881 C882 1.392 . S
C882 H854 0.929 . S
C882 C879 1.391 . S
C882 C881 1.392 . S
N883 Co827 2.257 . S
N883 C880 1.391 . S
N883 C884 1.388 . S
C884 H855 0.930 . S
C884 C879 1.391 . S
C884 N883 1.388 . S
Co885 O887 2.143 . S
Co885 O893 2.074 . S
Co885 O896 2.093 . S
Co885 O909 2.097 . S
Co885 N926 2.151 . S
Co885 N934 2.214 . S
Co886 O887 2.160 . S
Co886 O892 2.058 . S
Co886 O902 2.057 . S
Co886 O917 2.037 . S
Co886 N921 2.145 . S
Co886 N942 2.257 . S
O887 Co885 2.143 . S
O887 Co886 2.160 . S
C888 O889 1.278 . S
C888 O896 1.224 . S
O889 C888 1.278 . S
C890 O891 1.245 . S
C890 O902 1.232 . S
O891 C890 1.245 . S
O892 Co886 2.058 . S
O892 C918 1.269 . S
O893 Co885 2.074 . S
O893 C918 1.257 . S
H894 C919 0.930 . S
H895 C925 0.930 . S
O896 Co885 2.093 . S
O896 C888 1.224 . S
H897 C929 0.929 . S
H898 C931 0.930 . S
H899 C932 0.930 . S
H900 C930 0.929 . S
H901 C933 0.928 . S
O902 Co886 2.057 . S
O902 C890 1.232 . S
H903 C922 0.929 . S
H904 C923 0.929 . S
H905 C935 0.931 . S
H906 C927 0.929 . S
H907 C936 0.930 . S
H908 C928 0.931 . S
O909 Co885 2.097 . S
O909 C937 1.214 . S
H910 C938 0.929 . S
H911 C939 0.929 . S
H912 C940 0.930 . S
H913 C941 0.929 . S
H914 C943 0.930 . S
H915 C920 0.930 . S
H916 C924 0.930 . S
O917 Co886 2.037 . S
O917 C937 1.234 . S
C918 O892 1.269 . S
C918 O893 1.257 . S
C919 H894 0.930 . S
C919 C922 1.388 . S
C919 C924 1.418 . S
C920 H915 0.930 . S
C920 C923 1.404 . S
C920 C924 1.353 . S
N921 Co886 2.145 . S
N921 C922 1.397 . S
N921 C923 1.334 . S
C922 H903 0.929 . S
C922 C919 1.388 . S
C922 N921 1.397 . S
C923 H904 0.929 . S
C923 C920 1.404 . S
C923 N921 1.334 . S
C924 H916 0.930 . S
C924 C919 1.418 . S
C924 C920 1.353 . S
C925 H895 0.930 . S
C925 N926 1.330 . S
C925 C927 1.446 . S
N926 Co885 2.151 . S
N926 C925 1.330 . S
N926 C930 1.418 . S
C927 H906 0.929 . S
C927 C925 1.446 . S
C927 C928 1.332 . S
C928 H908 0.931 . S
C928 C927 1.332 . S
C928 C929 1.267 . S
C929 H897 0.929 . S
C929 C928 1.267 . S
C929 C930 1.251 . S
C930 H900 0.929 . S
C930 N926 1.418 . S
C930 C929 1.251 . S
C931 H898 0.930 . S
C931 C933 1.406 . S
C931 C936 1.261 . S
C932 H899 0.930 . S
C932 N934 1.325 . S
C932 C935 1.357 . S
C933 H901 0.928 . S
C933 C931 1.406 . S
C933 N934 1.261 . S
N934 Co885 2.214 . S
N934 C932 1.325 . S
N934 C933 1.261 . S
C935 H905 0.931 . S
C935 C932 1.357 . S
C935 C936 1.312 . S
C936 H907 0.930 . S
C936 C931 1.261 . S
C936 C935 1.312 . S
C937 O909 1.214 . S
C937 O917 1.234 . S
C938 H910 0.929 . S
C938 C941 1.391 . S
C938 C943 1.391 . S
C939 H911 0.929 . S
C939 C940 1.390 . S
C939 N942 1.391 . S
C940 H912 0.930 . S
C940 C939 1.390 . S
C940 C941 1.392 . S
C941 H913 0.929 . S
C941 C938 1.391 . S
C941 C940 1.392 . S
N942 Co886 2.257 . S
N942 C939 1.391 . S
N942 C943 1.388 . S
C943 H914 0.930 . S
C943 C938 1.391 . S
C943 N942 1.388 . S
H944 C952 0.929 . S
H945 C954 0.930 . S
H946 C956 0.898 1_545 S
H947 C959 0.929 1_545 S
H948 C962 0.930 . S
H949 C964 0.960 . S
H950 C964 0.960 . S
H951 C964 0.960 . S
C952 H944 0.929 . S
C952 C953 1.377 . S
C952 C954 1.384 . S
C953 C952 1.377 . S
C953 C959 1.390 . S
C954 H945 0.930 . S
C954 C952 1.384 . S
C954 C955 1.372 . S
C955 C954 1.372 . S
C955 C956 1.421 . S
C955 C960 1.490 . S
C956 H946 0.898 1_565 S
C956 C955 1.421 . S
C956 C959 1.396 . S
H957 C973 0.930 . S
H958 C974 0.931 . S
C959 H947 0.929 1_565 S
C959 C953 1.390 . S
C959 C956 1.396 . S
C960 C955 1.490 . S
C960 C962 1.395 . S
C960 C963 1.403 1_565 S
H961 C967 0.930 . S
C962 H948 0.930 . S
C962 C960 1.395 . S
C962 C965 1.403 . S
C963 C960 1.403 1_545 S
C963 C964 1.524 . S
C963 C967 1.400 . S
C964 H949 0.960 . S
C964 H950 0.960 . S
C964 H951 0.960 . S
C964 C963 1.524 . S
C965 C962 1.403 . S
C965 C966 1.392 1_565 S
C965 C969 1.495 . S
C966 C965 1.392 1_545 S
C966 C967 1.385 . S
C966 C968 1.478 . S
C967 H961 0.930 . S
C967 C963 1.400 . S
C967 C966 1.385 . S
C968 C966 1.478 . S
C968 C970 1.381 1_545 S
C968 C974 1.383 . S
C969 C965 1.495 . S
C969 H975 0.959 . S
C969 H976 0.961 . S
C969 H977 0.960 . S
C970 C968 1.381 1_565 S
C970 C971 1.394 1_565 S
C970 H978 0.930 . S
C971 C970 1.394 1_545 S
C971 C972 1.383 . S
C971 H979 0.929 1_545 S
C972 C971 1.383 . S
C972 C973 1.377 . S
C973 H957 0.930 . S
C973 C972 1.377 . S
C973 C974 1.379 . S
C974 H958 0.931 . S
C974 C968 1.383 . S
C974 C973 1.379 . S
H975 C969 0.959 . S
H976 C969 0.961 . S
H977 C969 0.960 . S
H978 C970 0.930 . S
H979 C971 0.929 1_565 S
H980 C988 0.929 . S
H981 C990 0.930 . S
H982 C992 0.930 . S
H983 C995 0.929 1_545 S
H984 C998 0.930 . S
H985 C1000 0.960 . S
H986 C1000 0.960 1_565 S
H987 C1000 0.960 . S
C988 H980 0.929 . S
C988 C989 1.377 . S
C988 C990 1.384 . S
C989 C988 1.377 . S
C989 C995 1.390 . S
C990 H981 0.930 . S
C990 C988 1.384 . S
C990 C991 1.372 . S
C991 C990 1.372 . S
C991 C992 1.400 1_565 S
C991 C996 1.490 . S
C992 H982 0.930 . S
C992 C991 1.400 1_545 S
C992 C995 1.386 1_545 S
H993 C1009 0.930 . S
H994 C1010 0.931 . S
C995 H983 0.929 1_565 S
C995 C989 1.390 . S
C995 C992 1.386 1_565 S
C996 C991 1.490 . S
C996 C998 1.395 . S
C996 C999 1.403 1_565 S
H997 C1003 0.930 . S
C998 H984 0.930 . S
C998 C996 1.395 . S
C998 C1001 1.403 . S
C999 C996 1.403 1_545 S
C999 C1000 1.524 . S
C999 C1003 1.400 . S
C1000 H985 0.960 . S
C1000 H986 0.960 1_545 S
C1000 H987 0.960 . S
C1000 C999 1.524 . S
C1001 C998 1.403 . S
C1001 C1002 1.392 1_565 S
C1001 C1005 1.495 . S
C1002 C1001 1.392 1_545 S
C1002 C1003 1.385 . S
C1002 C1004 1.478 . S
C1003 H997 0.930 . S
C1003 C999 1.400 . S
C1003 C1002 1.385 . S
C1004 C1002 1.478 . S
C1004 C1006 1.381 1_545 S
C1004 C1010 1.383 . S
C1005 C1001 1.495 . S
C1005 H1011 0.959 . S
C1005 H1012 0.961 . S
C1005 H1013 0.960 . S
C1006 C1004 1.381 1_565 S
C1006 C1007 1.394 1_565 S
C1006 H1014 0.930 . S
C1007 C1006 1.394 1_545 S
C1007 C1008 1.383 . S
C1007 H1015 0.929 1_545 S
C1008 C1007 1.383 . S
C1008 C1009 1.377 . S
C1009 H993 0.930 . S
C1009 C1008 1.377 . S
C1009 C1010 1.379 . S
C1010 H994 0.931 . S
C1010 C1004 1.383 . S
C1010 C1009 1.379 . S
H1011 C1005 0.959 . S
H1012 C1005 0.961 . S
H1013 C1005 0.960 . S
H1014 C1006 0.930 . S
H1015 C1007 0.929 1_565 S
H1016 C1024 0.929 . S
H1017 C1026 0.930 . S
H1018 C1028 0.930 . S
H1019 C1031 0.929 . S
H1020 C1034 0.930 . S
H1021 C1036 0.960 . S
H1022 C1036 0.960 . S
H1023 C1036 0.960 . S
C1024 H1016 0.929 . S
C1024 C1025 1.377 . S
C1024 C1026 1.384 . S
C1025 C1024 1.377 . S
C1025 C1031 1.390 . S
C1026 H1017 0.930 . S
C1026 C1024 1.384 . S
C1026 C1027 1.372 . S
C1027 C1026 1.372 . S
C1027 C1028 1.400 . S
C1027 C1032 1.490 . S
C1028 H1018 0.930 . S
C1028 C1027 1.400 . S
C1028 C1031 1.386 . S
H1029 C1045 0.930 . S
H1030 C1046 0.931 . S
C1031 H1019 0.929 . S
C1031 C1025 1.390 . S
C1031 C1028 1.386 . S
C1032 C1027 1.490 . S
C1032 C1034 1.395 . S
C1032 C1035 1.403 1_565 S
H1033 C1039 0.930 . S
C1034 H1020 0.930 . S
C1034 C1032 1.395 . S
C1034 C1037 1.403 . S
C1035 C1032 1.403 1_545 S
C1035 C1036 1.524 . S
C1035 C1039 1.400 . S
C1036 H1021 0.960 . S
C1036 H1022 0.960 . S
C1036 H1023 0.960 . S
C1036 C1035 1.524 . S
C1037 C1034 1.403 . S
C1037 C1038 1.392 1_565 S
C1037 C1041 1.495 . S
C1038 C1037 1.392 1_545 S
C1038 C1039 1.385 . S
C1038 C1040 1.478 . S
C1039 H1033 0.930 . S
C1039 C1035 1.400 . S
C1039 C1038 1.385 . S
C1040 C1038 1.478 . S
C1040 C1042 1.381 . S
C1040 C1046 1.383 . S
C1041 C1037 1.495 . S
C1041 H1047 0.959 . S
C1041 H1048 0.961 . S
C1041 H1049 0.960 . S
C1042 C1040 1.381 . S
C1042 C1043 1.394 . S
C1042 H1050 0.930 . S
C1043 C1042 1.394 . S
C1043 C1044 1.383 . S
C1043 H1051 0.929 . S
C1044 C1043 1.383 . S
C1044 C1045 1.377 . S
C1045 H1029 0.930 . S
C1045 C1044 1.377 . S
C1045 C1046 1.379 . S
C1046 H1030 0.931 . S
C1046 C1040 1.383 . S
C1046 C1045 1.379 . S
H1047 C1041 0.959 . S
H1048 C1041 0.961 . S
H1049 C1041 0.960 . S
H1050 C1042 0.930 . S
H1051 C1043 0.929 . S
H1052 C1060 0.929 . S
H1053 C1062 0.930 . S
H1054 C1064 0.930 . S
H1055 C1067 0.929 . S
H1056 C1070 0.930 . S
H1057 C1072 0.960 . S
H1058 C1072 0.960 . S
H1059 C1072 0.960 . S
C1060 H1052 0.929 . S
C1060 C1061 1.377 . S
C1060 C1062 1.384 . S
C1061 C1060 1.377 . S
C1061 C1067 1.390 . S
C1062 H1053 0.930 . S
C1062 C1060 1.384 . S
C1062 C1063 1.372 . S
C1063 C1062 1.372 . S
C1063 C1064 1.400 . S
C1063 C1068 1.490 . S
C1064 H1054 0.930 . S
C1064 C1063 1.400 . S
C1064 C1067 1.386 . S
H1065 C1081 0.930 . S
H1066 C1082 0.931 . S
C1067 H1055 0.929 . S
C1067 C1061 1.390 . S
C1067 C1064 1.386 . S
C1068 C1063 1.490 . S
C1068 C1070 1.395 . S
C1068 C1071 1.403 1_565 S
H1069 C1075 0.930 . S
C1070 H1056 0.930 . S
C1070 C1068 1.395 . S
C1070 C1073 1.403 . S
C1071 C1068 1.403 1_545 S
C1071 C1072 1.524 . S
C1071 C1075 1.400 . S
C1072 H1057 0.960 . S
C1072 H1058 0.960 . S
C1072 H1059 0.960 . S
C1072 C1071 1.524 . S
C1073 C1070 1.403 . S
C1073 C1074 1.392 1_565 S
C1073 C1077 1.495 . S
C1074 C1073 1.392 1_545 S
C1074 C1075 1.385 . S
C1074 C1076 1.478 . S
C1075 H1069 0.930 . S
C1075 C1071 1.400 . S
C1075 C1074 1.385 . S
C1076 C1074 1.478 . S
C1076 C1078 1.381 . S
C1076 C1082 1.383 . S
C1077 C1073 1.495 . S
C1077 H1083 0.959 . S
C1077 H1084 0.961 . S
C1077 H1085 0.960 . S
C1078 C1076 1.381 . S
C1078 C1079 1.394 . S
C1078 H1086 0.930 . S
C1079 C1078 1.394 . S
C1079 C1080 1.383 . S
C1079 H1087 0.929 . S
C1080 C1079 1.383 . S
C1080 C1081 1.377 . S
C1081 H1065 0.930 . S
C1081 C1080 1.377 . S
C1081 C1082 1.379 . S
C1082 H1066 0.931 . S
C1082 C1076 1.383 . S
C1082 C1081 1.379 . S
H1083 C1077 0.959 . S
H1084 C1077 0.961 . S
H1085 C1077 0.960 . S
H1086 C1078 0.930 . S
H1087 C1079 0.929 . S
H1088 C1096 0.929 . S
H1089 C1098 0.930 . S
H1090 C1100 0.930 . S
H1091 C1103 0.929 . S
H1092 C1106 0.930 . S
H1093 C1108 0.960 . S
H1094 C1108 0.960 . S
H1095 C1108 0.960 . S
C1096 H1088 0.929 . S
C1096 C1097 1.377 . S
C1096 C1098 1.384 . S
C1097 C1096 1.377 . S
C1097 C1103 1.390 . S
C1098 H1089 0.930 . S
C1098 C1096 1.384 . S
C1098 C1099 1.372 . S
C1099 C1098 1.372 . S
C1099 C1100 1.400 . S
C1099 C1104 1.490 . S
C1100 H1090 0.930 . S
C1100 C1099 1.400 . S
C1100 C1103 1.386 . S
H1101 C1117 0.930 . S
H1102 C1118 0.931 . S
C1103 H1091 0.929 . S
C1103 C1097 1.390 . S
C1103 C1100 1.386 . S
C1104 C1099 1.490 . S
C1104 C1106 1.395 . S
C1104 C1107 1.403 . S
H1105 C1111 0.930 . S
C1106 H1092 0.930 . S
C1106 C1104 1.395 . S
C1106 C1109 1.403 . S
C1107 C1104 1.403 . S
C1107 C1108 1.524 . S
C1107 C1111 1.400 . S
C1108 H1093 0.960 . S
C1108 H1094 0.960 . S
C1108 H1095 0.960 . S
C1108 C1107 1.524 . S
C1109 C1106 1.403 . S
C1109 C1110 1.392 . S
C1109 C1113 1.495 . S
C1110 C1109 1.392 . S
C1110 C1111 1.385 . S
C1110 C1112 1.478 . S
C1111 H1105 0.930 . S
C1111 C1107 1.400 . S
C1111 C1110 1.385 . S
C1112 C1110 1.478 . S
C1112 C1114 1.381 . S
C1112 C1118 1.383 . S
C1113 C1109 1.495 . S
C1113 H1119 0.959 . S
C1113 H1120 0.961 . S
C1113 H1121 0.960 . S
C1114 C1112 1.381 . S
C1114 C1115 1.394 . S
C1114 H1122 0.930 . S
C1115 C1114 1.394 . S
C1115 C1116 1.383 . S
C1115 H1123 0.929 . S
C1116 C1115 1.383 . S
C1116 C1117 1.377 . S
C1117 H1101 0.930 . S
C1117 C1116 1.377 . S
C1117 C1118 1.379 . S
C1118 H1102 0.931 . S
C1118 C1112 1.383 . S
C1118 C1117 1.379 . S
H1119 C1113 0.959 . S
H1120 C1113 0.961 . S
H1121 C1113 0.960 . S
H1122 C1114 0.930 . S
H1123 C1115 0.929 . S
H1124 C1132 0.929 . S
H1125 C1134 0.930 . S
H1126 C1136 0.930 . S
H1127 C1139 0.929 . S
H1128 C1142 0.930 . S
H1129 C1144 0.960 . S
H1130 C1144 0.960 . S
H1131 C1144 0.960 . S
C1132 H1124 0.929 . S
C1132 C1133 1.377 . S
C1132 C1134 1.384 . S
C1133 C1132 1.377 . S
C1133 C1139 1.390 . S
C1134 H1125 0.930 . S
C1134 C1132 1.384 . S
C1134 C1135 1.372 . S
C1135 C1134 1.372 . S
C1135 C1136 1.400 . S
C1135 C1140 1.490 . S
C1136 H1126 0.930 . S
C1136 C1135 1.400 . S
C1136 C1139 1.386 . S
H1137 C1153 0.930 . S
H1138 C1154 0.931 . S
C1139 H1127 0.929 . S
C1139 C1133 1.390 . S
C1139 C1136 1.386 . S
C1140 C1135 1.490 . S
C1140 C1142 1.395 . S
C1140 C1143 1.403 . S
H1141 C1147 0.930 . S
C1142 H1128 0.930 . S
C1142 C1140 1.395 . S
C1142 C1145 1.403 . S
C1143 C1140 1.403 . S
C1143 C1144 1.524 . S
C1143 C1147 1.400 . S
C1144 H1129 0.960 . S
C1144 H1130 0.960 . S
C1144 H1131 0.960 . S
C1144 C1143 1.524 . S
C1145 C1142 1.403 . S
C1145 C1146 1.392 . S
C1145 C1149 1.495 . S
C1146 C1145 1.392 . S
C1146 C1147 1.385 . S
C1146 C1148 1.478 . S
C1147 H1141 0.930 . S
C1147 C1143 1.400 . S
C1147 C1146 1.385 . S
C1148 C1146 1.478 . S
C1148 C1150 1.381 . S
C1148 C1154 1.383 . S
C1149 C1145 1.495 . S
C1149 H1155 0.959 . S
C1149 H1156 0.961 . S
C1149 H1157 0.960 . S
C1150 C1148 1.381 . S
C1150 C1151 1.394 . S
C1150 H1158 0.930 . S
C1151 C1150 1.394 . S
C1151 C1152 1.383 . S
C1151 H1159 0.929 . S
C1152 C1151 1.383 . S
C1152 C1153 1.377 . S
C1153 H1137 0.930 . S
C1153 C1152 1.377 . S
C1153 C1154 1.379 . S
C1154 H1138 0.931 . S
C1154 C1148 1.383 . S
C1154 C1153 1.379 . S
H1155 C1149 0.959 . S
H1156 C1149 0.961 . S
H1157 C1149 0.960 . S
H1158 C1150 0.930 . S
H1159 C1151 0.929 . S
H1160 C1168 0.929 . S
H1161 C1170 0.930 . S
H1162 C1172 0.930 . S
H1163 C1175 0.929 . S
H1164 C1178 0.930 . S
H1165 C1180 0.960 . S
H1166 C1180 0.960 . S
H1167 C1180 0.960 . S
C1168 H1160 0.929 . S
C1168 C1169 1.377 . S
C1168 C1170 1.384 . S
C1169 C1168 1.377 . S
C1169 C1175 1.390 . S
C1170 H1161 0.930 . S
C1170 C1168 1.384 . S
C1170 C1171 1.372 . S
C1171 C1170 1.372 . S
C1171 C1172 1.400 . S
C1171 C1176 1.490 . S
C1172 H1162 0.930 . S
C1172 C1171 1.400 . S
C1172 C1175 1.386 . S
H1173 C1189 0.930 . S
H1174 C1190 0.931 . S
C1175 H1163 0.929 . S
C1175 C1169 1.390 . S
C1175 C1172 1.386 . S
C1176 C1171 1.490 . S
C1176 C1178 1.395 . S
C1176 C1179 1.403 . S
H1177 C1183 0.930 . S
C1178 H1164 0.930 . S
C1178 C1176 1.395 . S
C1178 C1181 1.403 . S
C1179 C1176 1.403 . S
C1179 C1180 1.524 . S
C1179 C1183 1.400 . S
C1180 H1165 0.960 . S
C1180 H1166 0.960 . S
C1180 H1167 0.960 . S
C1180 C1179 1.524 . S
C1181 C1178 1.403 . S
C1181 C1182 1.392 . S
C1181 C1185 1.495 . S
C1182 C1181 1.392 . S
C1182 C1183 1.385 . S
C1182 C1184 1.478 . S
C1183 H1177 0.930 . S
C1183 C1179 1.400 . S
C1183 C1182 1.385 . S
C1184 C1182 1.478 . S
C1184 C1186 1.381 . S
C1184 C1190 1.383 . S
C1185 C1181 1.495 . S
C1185 H1191 0.959 . S
C1185 H1192 0.961 . S
C1185 H1193 0.960 . S
C1186 C1184 1.381 . S
C1186 C1187 1.394 . S
C1186 H1194 0.930 . S
C1187 C1186 1.394 . S
C1187 C1188 1.383 . S
C1187 H1195 0.929 . S
C1188 C1187 1.383 . S
C1188 C1189 1.377 . S
C1189 H1173 0.930 . S
C1189 C1188 1.377 . S
C1189 C1190 1.379 . S
C1190 H1174 0.931 . S
C1190 C1184 1.383 . S
C1190 C1189 1.379 . S
H1191 C1185 0.959 . S
H1192 C1185 0.961 . S
H1193 C1185 0.960 . S
H1194 C1186 0.930 . S
H1195 C1187 0.929 . S
H1196 C1204 0.929 . S
H1197 C1206 0.930 . S
H1198 C1208 0.930 . S
H1199 C1211 0.929 . S
H1200 C1214 0.930 . S
H1201 C1216 0.960 . S
H1202 C1216 0.960 . S
H1203 C1216 0.960 . S
C1204 H1196 0.929 . S
C1204 C1205 1.377 . S
C1204 C1206 1.384 . S
C1205 C1204 1.377 . S
C1205 C1211 1.390 . S
C1206 H1197 0.930 . S
C1206 C1204 1.384 . S
C1206 C1207 1.372 . S
C1207 C1206 1.372 . S
C1207 C1208 1.400 . S
C1207 C1212 1.490 . S
C1208 H1198 0.930 . S
C1208 C1207 1.400 . S
C1208 C1211 1.386 . S
H1209 C1225 0.930 . S
H1210 C1226 0.931 . S
C1211 H1199 0.929 . S
C1211 C1205 1.390 . S
C1211 C1208 1.386 . S
C1212 C1207 1.490 . S
C1212 C1214 1.395 . S
C1212 C1215 1.403 . S
H1213 C1219 0.930 . S
C1214 H1200 0.930 . S
C1214 C1212 1.395 . S
C1214 C1217 1.403 . S
C1215 C1212 1.403 . S
C1215 C1216 1.524 . S
C1215 C1219 1.400 . S
C1216 H1201 0.960 . S
C1216 H1202 0.960 . S
C1216 H1203 0.960 . S
C1216 C1215 1.524 . S
C1217 C1214 1.403 . S
C1217 C1218 1.392 . S
C1217 C1221 1.495 . S
C1218 C1217 1.392 . S
C1218 C1219 1.385 . S
C1218 C1220 1.478 . S
C1219 H1213 0.930 . S
C1219 C1215 1.400 . S
C1219 C1218 1.385 . S
C1220 C1218 1.478 . S
C1220 C1222 1.381 . S
C1220 C1226 1.383 . S
C1221 C1217 1.495 . S
C1221 H1227 0.959 . S
C1221 H1228 0.961 . S
C1221 H1229 0.960 . S
C1222 C1220 1.381 . S
C1222 C1223 1.394 . S
C1222 H1230 0.930 . S
C1223 C1222 1.394 . S
C1223 C1224 1.383 . S
C1223 H1231 0.929 . S
C1224 C1223 1.383 . S
C1224 C1225 1.377 . S
C1225 H1209 0.930 . S
C1225 C1224 1.377 . S
C1225 C1226 1.379 . S
C1226 H1210 0.931 . S
C1226 C1220 1.383 . S
C1226 C1225 1.379 . S
H1227 C1221 0.959 . S
H1228 C1221 0.961 . S
H1229 C1221 0.960 . S
H1230 C1222 0.930 . S
H1231 C1223 0.929 . S
H1232 C1240 0.929 . S
H1233 C1242 0.930 1_455 S
H1234 C1244 0.930 . S
H1235 C1247 0.929 . S
H1236 C1250 0.930 . S
H1237 C1252 0.960 . S
H1238 C1252 0.960 . S
H1239 C1252 0.960 . S
C1240 H1232 0.929 . S
C1240 C1241 1.377 . S
C1240 C1242 1.384 . S
C1241 C1240 1.377 . S
C1241 C1247 1.390 . S
C1242 H1233 0.930 1_655 S
C1242 C1240 1.384 . S
C1242 C1243 1.372 . S
C1243 C1242 1.372 . S
C1243 C1244 1.400 . S
C1243 C1248 1.490 . S
C1244 H1234 0.930 . S
C1244 C1243 1.400 . S
C1244 C1247 1.386 . S
H1245 C1261 0.930 . S
H1246 C1262 0.931 1_655 S
C1247 H1235 0.929 . S
C1247 C1241 1.390 . S
C1247 C1244 1.386 . S
C1248 C1243 1.490 . S
C1248 C1250 1.395 1_655 S
C1248 C1251 1.403 . S
H1249 C1255 0.930 . S
C1250 H1236 0.930 . S
C1250 C1248 1.395 1_455 S
C1250 C1253 1.403 . S
C1251 C1248 1.403 . S
C1251 C1252 1.524 . S
C1251 C1255 1.400 . S
C1252 H1237 0.960 . S
C1252 H1238 0.960 . S
C1252 H1239 0.960 . S
C1252 C1251 1.524 . S
C1253 C1250 1.403 . S
C1253 C1254 1.392 . S
C1253 C1257 1.495 . S
C1254 C1253 1.392 . S
C1254 C1255 1.385 1_455 S
C1254 C1256 1.478 . S
C1255 H1249 0.930 . S
C1255 C1251 1.400 . S
C1255 C1254 1.385 1_655 S
C1256 C1254 1.478 . S
C1256 C1258 1.381 . S
C1256 C1262 1.383 . S
C1257 C1253 1.495 . S
C1257 H1263 0.959 . S
C1257 H1264 0.961 . S
C1257 H1265 0.960 . S
C1258 C1256 1.381 . S
C1258 C1259 1.394 . S
C1258 H1266 0.930 . S
C1259 C1258 1.394 . S
C1259 C1260 1.383 . S
C1259 H1267 0.929 . S
C1260 C1259 1.383 . S
C1260 C1261 1.377 . S
C1261 H1245 0.930 . S
C1261 C1260 1.377 . S
C1261 C1262 1.379 . S
C1262 H1246 0.931 1_455 S
C1262 C1256 1.383 . S
C1262 C1261 1.379 . S
H1263 C1257 0.959 . S
H1264 C1257 0.961 . S
H1265 C1257 0.960 . S
H1266 C1258 0.930 . S
H1267 C1259 0.929 . S
H1268 C1276 0.929 . S
H1269 C1278 0.930 . S
H1270 C1280 0.930 . S
H1271 C1283 0.929 . S
H1272 C1286 0.930 . S
H1273 C1288 0.960 . S
H1274 C1288 0.960 . S
H1275 C1288 0.960 . S
C1276 H1268 0.929 . S
C1276 C1277 1.377 . S
C1276 C1278 1.384 . S
C1277 C1276 1.377 . S
C1277 C1283 1.390 . S
C1278 H1269 0.930 . S
C1278 C1276 1.384 . S
C1278 C1279 1.372 . S
C1279 C1278 1.372 . S
C1279 C1280 1.400 . S
C1279 C1284 1.490 . S
C1280 H1270 0.930 . S
C1280 C1279 1.400 . S
C1280 C1283 1.386 . S
H1281 C1297 0.930 . S
H1282 C1298 0.931 . S
C1283 H1271 0.929 . S
C1283 C1277 1.390 . S
C1283 C1280 1.386 . S
C1284 C1279 1.490 . S
C1284 C1286 1.395 . S
C1284 C1287 1.403 . S
H1285 C1291 0.930 . S
C1286 H1272 0.930 . S
C1286 C1284 1.395 . S
C1286 C1289 1.403 . S
C1287 C1284 1.403 . S
C1287 C1288 1.524 . S
C1287 C1291 1.400 . S
C1288 H1273 0.960 . S
C1288 H1274 0.960 . S
C1288 H1275 0.960 . S
C1288 C1287 1.524 . S
C1289 C1286 1.403 . S
C1289 C1290 1.392 . S
C1289 C1293 1.495 . S
C1290 C1289 1.392 . S
C1290 C1291 1.385 . S
C1290 C1292 1.478 . S
C1291 H1285 0.930 . S
C1291 C1287 1.400 . S
C1291 C1290 1.385 . S
C1292 C1290 1.478 . S
C1292 C1294 1.381 . S
C1292 C1298 1.383 . S
C1293 C1289 1.495 . S
C1293 H1299 0.959 . S
C1293 H1300 0.961 . S
C1293 H1301 0.960 . S
C1294 C1292 1.381 . S
C1294 C1295 1.394 . S
C1294 H1302 0.930 . S
C1295 C1294 1.394 . S
C1295 C1296 1.383 . S
C1295 H1303 0.929 . S
C1296 C1295 1.383 . S
C1296 C1297 1.377 . S
C1297 H1281 0.930 . S
C1297 C1296 1.377 . S
C1297 C1298 1.379 . S
C1298 H1282 0.931 . S
C1298 C1292 1.383 . S
C1298 C1297 1.379 . S
H1299 C1293 0.959 . S
H1300 C1293 0.961 . S
H1301 C1293 0.960 . S
H1302 C1294 0.930 . S
H1303 C1295 0.929 . S
H1304 C1312 0.929 . S
H1305 C1314 0.930 1_655 S
H1306 C1316 0.930 . S
H1307 C1319 0.929 . S
H1308 C1322 0.930 . S
H1309 C1324 0.960 . S
H1310 C1324 0.960 . S
H1311 C1324 0.960 . S
C1312 H1304 0.929 . S
C1312 C1313 1.377 . S
C1312 C1314 1.384 . S
C1313 C1312 1.377 . S
C1313 C1319 1.390 . S
C1314 H1305 0.930 1_455 S
C1314 C1312 1.384 . S
C1314 C1315 1.372 . S
C1315 C1314 1.372 . S
C1315 C1316 1.400 . S
C1315 C1320 1.490 . S
C1316 H1306 0.930 . S
C1316 C1315 1.400 . S
C1316 C1319 1.386 . S
H1317 C1333 0.930 . S
H1318 C1334 0.931 1_455 S
C1319 H1307 0.929 . S
C1319 C1313 1.390 . S
C1319 C1316 1.386 . S
C1320 C1315 1.490 . S
C1320 C1322 1.395 1_455 S
C1320 C1323 1.403 . S
H1321 C1327 0.930 . S
C1322 H1308 0.930 . S
C1322 C1320 1.395 1_655 S
C1322 C1325 1.403 . S
C1323 C1320 1.403 . S
C1323 C1324 1.524 . S
C1323 C1327 1.400 . S
C1324 H1309 0.960 . S
C1324 H1310 0.960 . S
C1324 H1311 0.960 . S
C1324 C1323 1.524 . S
C1325 C1322 1.403 . S
C1325 C1326 1.392 . S
C1325 C1329 1.495 . S
C1326 C1325 1.392 . S
C1326 C1327 1.385 1_655 S
C1326 C1328 1.478 . S
C1327 H1321 0.930 . S
C1327 C1323 1.400 . S
C1327 C1326 1.385 1_455 S
C1328 C1326 1.478 . S
C1328 C1330 1.381 . S
C1328 C1334 1.383 . S
C1329 C1325 1.495 . S
C1329 H1335 0.959 . S
C1329 H1336 0.961 . S
C1329 H1337 0.960 . S
C1330 C1328 1.381 . S
C1330 C1331 1.394 . S
C1330 H1338 0.930 . S
C1331 C1330 1.394 . S
C1331 C1332 1.383 . S
C1331 H1339 0.929 . S
C1332 C1331 1.383 . S
C1332 C1333 1.377 . S
C1333 H1317 0.930 . S
C1333 C1332 1.377 . S
C1333 C1334 1.379 . S
C1334 H1318 0.931 1_655 S
C1334 C1328 1.383 . S
C1334 C1333 1.379 . S
H1335 C1329 0.959 . S
H1336 C1329 0.961 . S
H1337 C1329 0.960 . S
H1338 C1330 0.930 . S
H1339 C1331 0.929 . S
H1340 C1348 0.929 . S
H1341 C1350 0.930 . S
H1342 C1352 0.930 . S
H1343 C1355 0.929 . S
H1344 C1358 0.930 . S
H1345 C1360 0.960 . S
H1346 C1360 0.960 . S
H1347 C1360 0.960 . S
C1348 H1340 0.929 . S
C1348 C1349 1.377 . S
C1348 C1350 1.384 . S
C1349 C1348 1.377 . S
C1349 C1355 1.390 . S
C1350 H1341 0.930 . S
C1350 C1348 1.384 . S
C1350 C1351 1.372 . S
C1351 C1350 1.372 . S
C1351 C1352 1.400 . S
C1351 C1356 1.490 . S
C1352 H1342 0.930 . S
C1352 C1351 1.400 . S
C1352 C1355 1.386 . S
H1353 C1369 0.930 . S
H1354 C1370 0.931 . S
C1355 H1343 0.929 . S
C1355 C1349 1.390 . S
C1355 C1352 1.386 . S
C1356 C1351 1.490 . S
C1356 C1358 1.395 . S
C1356 C1359 1.403 . S
H1357 C1363 0.930 . S
C1358 H1344 0.930 . S
C1358 C1356 1.395 . S
C1358 C1361 1.403 . S
C1359 C1356 1.403 . S
C1359 C1360 1.524 . S
C1359 C1363 1.400 . S
C1360 H1345 0.960 . S
C1360 H1346 0.960 . S
C1360 H1347 0.960 . S
C1360 C1359 1.524 . S
C1361 C1358 1.403 . S
C1361 C1362 1.392 . S
C1361 C1365 1.495 . S
C1362 C1361 1.392 . S
C1362 C1363 1.385 . S
C1362 C1364 1.478 . S
C1363 H1357 0.930 . S
C1363 C1359 1.400 . S
C1363 C1362 1.385 . S
C1364 C1362 1.478 . S
C1364 C1366 1.381 . S
C1364 C1370 1.383 . S
C1365 C1361 1.495 . S
C1365 H1371 0.959 . S
C1365 H1372 0.961 . S
C1365 H1373 0.960 . S
C1366 C1364 1.381 . S
C1366 C1367 1.394 . S
C1366 H1374 0.930 . S
C1367 C1366 1.394 . S
C1367 C1368 1.383 . S
C1367 H1375 0.929 . S
C1368 C1367 1.383 . S
C1368 C1369 1.377 . S
C1369 H1353 0.930 . S
C1369 C1368 1.377 . S
C1369 C1370 1.379 . S
C1370 H1354 0.931 . S
C1370 C1364 1.383 . S
C1370 C1369 1.379 . S
H1371 C1365 0.959 . S
H1372 C1365 0.961 . S
H1373 C1365 0.960 . S
H1374 C1366 0.930 . S
H1375 C1367 0.929 . S
H1376 C1384 0.929 . S
H1377 C1386 0.930 . S
H1378 C1388 0.930 . S
H1379 C1391 0.929 . S
H1380 C1394 0.930 . S
H1381 C1396 0.960 . S
H1382 C1396 0.960 . S
H1383 C1396 0.960 . S
C1384 H1376 0.929 . S
C1384 C1385 1.377 . S
C1384 C1386 1.384 . S
C1385 C1384 1.377 . S
C1385 C1391 1.390 . S
C1386 H1377 0.930 . S
C1386 C1384 1.384 . S
C1386 C1387 1.372 . S
C1387 C1386 1.372 . S
C1387 C1388 1.400 . S
C1387 C1392 1.490 . S
C1388 H1378 0.930 . S
C1388 C1387 1.400 . S
C1388 C1391 1.386 . S
H1389 C1405 0.930 . S
H1390 C1406 0.931 . S
C1391 H1379 0.929 . S
C1391 C1385 1.390 . S
C1391 C1388 1.386 . S
C1392 C1387 1.490 . S
C1392 C1394 1.395 . S
C1392 C1395 1.403 . S
H1393 C1399 0.930 . S
C1394 H1380 0.930 . S
C1394 C1392 1.395 . S
C1394 C1397 1.403 . S
C1395 C1392 1.403 . S
C1395 C1396 1.524 . S
C1395 C1399 1.400 . S
C1396 H1381 0.960 . S
C1396 H1382 0.960 . S
C1396 H1383 0.960 . S
C1396 C1395 1.524 . S
C1397 C1394 1.403 . S
C1397 C1398 1.392 . S
C1397 C1401 1.495 . S
C1398 C1397 1.392 . S
C1398 C1399 1.385 . S
C1398 C1400 1.478 . S
C1399 H1393 0.930 . S
C1399 C1395 1.400 . S
C1399 C1398 1.385 . S
C1400 C1398 1.478 . S
C1400 C1402 1.381 . S
C1400 C1406 1.383 . S
C1401 C1397 1.495 . S
C1401 H1407 0.959 . S
C1401 H1408 0.961 . S
C1401 H1409 0.960 . S
C1402 C1400 1.381 . S
C1402 C1403 1.394 . S
C1402 H1410 0.930 . S
C1403 C1402 1.394 . S
C1403 C1404 1.383 . S
C1403 H1411 0.929 . S
C1404 C1403 1.383 . S
C1404 C1405 1.377 . S
C1405 H1389 0.930 . S
C1405 C1404 1.377 . S
C1405 C1406 1.379 . S
C1406 H1390 0.931 . S
C1406 C1400 1.383 . S
C1406 C1405 1.379 . S
H1407 C1401 0.959 . S
H1408 C1401 0.961 . S
H1409 C1401 0.960 . S
H1410 C1402 0.930 . S
H1411 C1403 0.929 . S
H1412 C1420 0.929 . S
H1413 C1422 0.930 . S
H1414 C1424 0.930 1_655 S
H1415 C1427 0.929 . S
H1416 C1430 0.930 . S
H1417 C1432 0.960 . S
H1418 C1432 0.960 . S
H1419 C1432 0.960 . S
C1420 H1412 0.929 . S
C1420 C1421 1.377 . S
C1420 C1422 1.384 . S
C1421 C1420 1.377 . S
C1421 C1427 1.390 . S
C1422 H1413 0.930 . S
C1422 C1420 1.384 . S
C1422 C1423 1.372 . S
C1423 C1422 1.372 . S
C1423 C1424 1.400 . S
C1423 C1428 1.490 . S
C1424 H1414 0.930 1_455 S
C1424 C1423 1.400 . S
C1424 C1427 1.386 . S
H1425 C1441 0.930 . S
H1426 C1442 0.931 . S
C1427 H1415 0.929 . S
C1427 C1421 1.390 . S
C1427 C1424 1.386 . S
C1428 C1423 1.490 . S
C1428 C1430 1.395 . S
C1428 C1431 1.403 1_455 S
H1429 C1435 0.930 . S
C1430 H1416 0.930 . S
C1430 C1428 1.395 . S
C1430 C1433 1.403 . S
C1431 C1428 1.403 1_655 S
C1431 C1432 1.524 . S
C1431 C1435 1.400 . S
C1432 H1417 0.960 . S
C1432 H1418 0.960 . S
C1432 H1419 0.960 . S
C1432 C1431 1.524 . S
C1433 C1430 1.403 . S
C1433 C1434 1.392 1_455 S
C1433 C1437 1.495 . S
C1434 C1433 1.392 1_655 S
C1434 C1435 1.385 . S
C1434 C1436 1.478 . S
C1435 H1429 0.930 . S
C1435 C1431 1.400 . S
C1435 C1434 1.385 . S
C1436 C1434 1.478 . S
C1436 C1438 1.381 . S
C1436 C1442 1.383 . S
C1437 C1433 1.495 . S
C1437 H1443 0.959 . S
C1437 H1444 0.961 . S
C1437 H1445 0.960 . S
C1438 C1436 1.381 . S
C1438 C1439 1.394 . S
C1438 H1446 0.930 1_655 S
C1439 C1438 1.394 . S
C1439 C1440 1.383 . S
C1439 H1447 0.929 . S
C1440 C1439 1.383 . S
C1440 C1441 1.377 . S
C1441 H1425 0.930 . S
C1441 C1440 1.377 . S
C1441 C1442 1.379 . S
C1442 H1426 0.931 . S
C1442 C1436 1.383 . S
C1442 C1441 1.379 . S
H1443 C1437 0.959 . S
H1444 C1437 0.961 . S
H1445 C1437 0.960 . S
H1446 C1438 0.930 1_455 S
H1447 C1439 0.929 . S
H1448 C1456 0.929 . S
H1449 C1458 0.930 . S
H1450 C1460 0.930 . S
H1451 C1463 0.929 . S
H1452 C1466 0.930 . S
H1453 C1468 0.960 . S
H1454 C1468 0.960 . S
H1455 C1468 0.960 . S
C1456 H1448 0.929 . S
C1456 C1457 1.377 . S
C1456 C1458 1.384 . S
C1457 C1456 1.377 . S
C1457 C1463 1.390 . S
C1458 H1449 0.930 . S
C1458 C1456 1.384 . S
C1458 C1459 1.372 . S
C1459 C1458 1.372 . S
C1459 C1460 1.400 . S
C1459 C1464 1.490 . S
C1460 H1450 0.930 . S
C1460 C1459 1.400 . S
C1460 C1463 1.386 . S
H1461 C1477 0.930 . S
H1462 C1478 0.931 . S
C1463 H1451 0.929 . S
C1463 C1457 1.390 . S
C1463 C1460 1.386 . S
C1464 C1459 1.490 . S
C1464 C1466 1.395 . S
C1464 C1467 1.403 . S
H1465 C1471 0.930 . S
C1466 H1452 0.930 . S
C1466 C1464 1.395 . S
C1466 C1469 1.403 . S
C1467 C1464 1.403 . S
C1467 C1468 1.524 . S
C1467 C1471 1.400 . S
C1468 H1453 0.960 . S
C1468 H1454 0.960 . S
C1468 H1455 0.960 . S
C1468 C1467 1.524 . S
C1469 C1466 1.403 . S
C1469 C1470 1.392 . S
C1469 C1473 1.495 . S
C1470 C1469 1.392 . S
C1470 C1471 1.385 . S
C1470 C1472 1.478 . S
C1471 H1465 0.930 . S
C1471 C1467 1.400 . S
C1471 C1470 1.385 . S
C1472 C1470 1.478 . S
C1472 C1474 1.381 . S
C1472 C1478 1.383 . S
C1473 C1469 1.495 . S
C1473 H1479 0.959 . S
C1473 H1480 0.961 . S
C1473 H1481 0.960 . S
C1474 C1472 1.381 . S
C1474 C1475 1.394 . S
C1474 H1482 0.930 . S
C1475 C1474 1.394 . S
C1475 C1476 1.383 . S
C1475 H1483 0.929 . S
C1476 C1475 1.383 . S
C1476 C1477 1.377 . S
C1477 H1461 0.930 . S
C1477 C1476 1.377 . S
C1477 C1478 1.379 . S
C1478 H1462 0.931 . S
C1478 C1472 1.383 . S
C1478 C1477 1.379 . S
H1479 C1473 0.959 . S
H1480 C1473 0.961 . S
H1481 C1473 0.960 . S
H1482 C1474 0.930 . S
H1483 C1475 0.929 . S
H1484 C1492 0.929 . S
H1485 C1494 0.930 . S
H1486 C1496 0.930 1_655 S
H1487 C1499 0.929 . S
H1488 C1502 0.930 . S
H1489 C1504 0.960 . S
H1490 C1504 0.960 . S
H1491 C1504 0.960 . S
C1492 H1484 0.929 . S
C1492 C1493 1.377 . S
C1492 C1494 1.384 . S
C1493 C1492 1.377 . S
C1493 C1499 1.390 . S
C1494 H1485 0.930 . S
C1494 C1492 1.384 . S
C1494 C1495 1.372 . S
C1495 C1494 1.372 . S
C1495 C1496 1.400 . S
C1495 C1500 1.490 . S
C1496 H1486 0.930 1_455 S
C1496 C1495 1.400 . S
C1496 C1499 1.386 . S
H1497 C1513 0.930 . S
H1498 C1514 0.931 . S
C1499 H1487 0.929 . S
C1499 C1493 1.390 . S
C1499 C1496 1.386 . S
C1500 C1495 1.490 . S
C1500 C1502 1.395 . S
C1500 C1503 1.403 1_455 S
H1501 C1507 0.930 . S
C1502 H1488 0.930 . S
C1502 C1500 1.395 . S
C1502 C1505 1.403 . S
C1503 C1500 1.403 1_655 S
C1503 C1504 1.524 . S
C1503 C1507 1.400 . S
C1504 H1489 0.960 . S
C1504 H1490 0.960 . S
C1504 H1491 0.960 . S
C1504 C1503 1.524 . S
C1505 C1502 1.403 . S
C1505 C1506 1.392 1_455 S
C1505 C1509 1.495 . S
C1506 C1505 1.392 1_655 S
C1506 C1507 1.385 . S
C1506 C1508 1.478 . S
C1507 H1501 0.930 . S
C1507 C1503 1.400 . S
C1507 C1506 1.385 . S
C1508 C1506 1.478 . S
C1508 C1510 1.381 . S
C1508 C1514 1.383 . S
C1509 C1505 1.495 . S
C1509 H1515 0.959 . S
C1509 H1516 0.961 . S
C1509 H1517 0.960 . S
C1510 C1508 1.381 . S
C1510 C1511 1.394 . S
C1510 H1518 0.930 1_655 S
C1511 C1510 1.394 . S
C1511 C1512 1.383 . S
C1511 H1519 0.929 . S
C1512 C1511 1.383 . S
C1512 C1513 1.377 . S
C1513 H1497 0.930 . S
C1513 C1512 1.377 . S
C1513 C1514 1.379 . S
C1514 H1498 0.931 . S
C1514 C1508 1.383 . S
C1514 C1513 1.379 . S
H1515 C1509 0.959 . S
H1516 C1509 0.961 . S
H1517 C1509 0.960 . S
H1518 C1510 0.930 1_455 S
H1519 C1511 0.929 . S
H1520 C1528 0.929 . S
H1521 C1530 0.930 . S
H1522 C1532 0.896 1_655 S
H1523 C1535 0.929 1_655 S
H1524 C1538 0.930 . S
H1525 C1540 0.960 . S
H1526 C1540 0.960 . S
H1527 C1540 0.960 . S
C1528 H1520 0.929 . S
C1528 C1529 1.377 . S
C1528 C1530 1.384 . S
C1529 C1528 1.377 . S
C1529 C1535 1.390 . S
C1530 H1521 0.930 . S
C1530 C1528 1.384 . S
C1530 C1531 1.372 . S
C1531 C1530 1.372 . S
C1531 C1532 1.423 . S
C1531 C1536 1.490 . S
C1532 H1522 0.896 1_455 S
C1532 C1531 1.423 . S
C1532 C1535 1.397 . S
H1533 C1549 0.930 . S
H1534 C1550 0.931 . S
C1535 H1523 0.929 1_455 S
C1535 C1529 1.390 . S
C1535 C1532 1.397 . S
C1536 C1531 1.490 . S
C1536 C1538 1.395 . S
C1536 C1539 1.403 1_455 S
H1537 C1543 0.930 . S
C1538 H1524 0.930 . S
C1538 C1536 1.395 . S
C1538 C1541 1.403 . S
C1539 C1536 1.403 1_655 S
C1539 C1540 1.524 . S
C1539 C1543 1.400 . S
C1540 H1525 0.960 . S
C1540 H1526 0.960 . S
C1540 H1527 0.960 . S
C1540 C1539 1.524 . S
C1541 C1538 1.403 . S
C1541 C1542 1.392 1_455 S
C1541 C1545 1.495 . S
C1542 C1541 1.392 1_655 S
C1542 C1543 1.385 . S
C1542 C1544 1.478 . S
C1543 H1537 0.930 . S
C1543 C1539 1.400 . S
C1543 C1542 1.385 . S
C1544 C1542 1.478 . S
C1544 C1546 1.381 1_655 S
C1544 C1550 1.383 . S
C1545 C1541 1.495 . S
C1545 H1551 0.959 . S
C1545 H1552 0.961 . S
C1545 H1553 0.960 . S
C1546 C1544 1.381 1_455 S
C1546 C1547 1.394 1_455 S
C1546 H1554 0.930 . S
C1547 C1546 1.394 1_655 S
C1547 C1548 1.383 . S
C1547 H1555 0.929 1_655 S
C1548 C1547 1.383 . S
C1548 C1549 1.377 . S
C1549 H1533 0.930 . S
C1549 C1548 1.377 . S
C1549 C1550 1.379 . S
C1550 H1534 0.931 . S
C1550 C1544 1.383 . S
C1550 C1549 1.379 . S
H1551 C1545 0.959 . S
H1552 C1545 0.961 . S
H1553 C1545 0.960 . S
H1554 C1546 0.930 . S
H1555 C1547 0.929 1_455 S
H1556 C1564 0.929 . S
H1557 C1566 0.930 . S
H1558 C1568 0.930 . S
H1559 C1571 0.929 . S
H1560 C1574 0.930 . S
H1561 C1576 0.960 . S
H1562 C1576 0.960 . S
H1563 C1576 0.960 . S
C1564 H1556 0.929 . S
C1564 C1565 1.377 . S
C1564 C1566 1.384 . S
C1565 C1564 1.377 . S
C1565 C1571 1.390 . S
C1566 H1557 0.930 . S
C1566 C1564 1.384 . S
C1566 C1567 1.372 . S
C1567 C1566 1.372 . S
C1567 C1568 1.400 . S
C1567 C1572 1.490 . S
C1568 H1558 0.930 . S
C1568 C1567 1.400 . S
C1568 C1571 1.386 . S
H1569 C1585 0.930 . S
H1570 C1586 0.931 . S
C1571 H1559 0.929 . S
C1571 C1565 1.390 . S
C1571 C1568 1.386 . S
C1572 C1567 1.490 . S
C1572 C1574 1.395 . S
C1572 C1575 1.403 . S
H1573 C1579 0.930 . S
C1574 H1560 0.930 . S
C1574 C1572 1.395 . S
C1574 C1577 1.403 . S
C1575 C1572 1.403 . S
C1575 C1576 1.524 . S
C1575 C1579 1.400 . S
C1576 H1561 0.960 . S
C1576 H1562 0.960 . S
C1576 H1563 0.960 . S
C1576 C1575 1.524 . S
C1577 C1574 1.403 . S
C1577 C1578 1.392 . S
C1577 C1581 1.495 . S
C1578 C1577 1.392 . S
C1578 C1579 1.385 . S
C1578 C1580 1.478 . S
C1579 H1573 0.930 . S
C1579 C1575 1.400 . S
C1579 C1578 1.385 . S
C1580 C1578 1.478 . S
C1580 C1582 1.381 . S
C1580 C1586 1.383 . S
C1581 C1577 1.495 . S
C1581 H1587 0.959 . S
C1581 H1588 0.961 . S
C1581 H1589 0.960 . S
C1582 C1580 1.381 . S
C1582 C1583 1.394 . S
C1582 H1590 0.930 . S
C1583 C1582 1.394 . S
C1583 C1584 1.383 . S
C1583 H1591 0.929 . S
C1584 C1583 1.383 . S
C1584 C1585 1.377 . S
C1585 H1569 0.930 . S
C1585 C1584 1.377 . S
C1585 C1586 1.379 . S
C1586 H1570 0.931 . S
C1586 C1580 1.383 . S
C1586 C1585 1.379 . S
H1587 C1581 0.959 . S
H1588 C1581 0.961 . S
H1589 C1581 0.960 . S
H1590 C1582 0.930 . S
H1591 C1583 0.929 . S
H1592 C1600 0.929 . S
H1593 C1602 0.930 . S
H1594 C1604 0.930 . S
H1595 C1607 0.929 . S
H1596 C1610 0.930 . S
H1597 C1612 0.960 . S
H1598 C1612 0.960 . S
H1599 C1612 0.960 . S
C1600 H1592 0.929 . S
C1600 C1601 1.377 . S
C1600 C1602 1.384 . S
C1601 C1600 1.377 . S
C1601 C1607 1.390 . S
C1602 H1593 0.930 . S
C1602 C1600 1.384 . S
C1602 C1603 1.372 . S
C1603 C1602 1.372 . S
C1603 C1604 1.400 . S
C1603 C1608 1.490 . S
C1604 H1594 0.930 . S
C1604 C1603 1.400 . S
C1604 C1607 1.386 . S
H1605 C1621 0.930 . S
H1606 C1622 0.931 . S
C1607 H1595 0.929 . S
C1607 C1601 1.390 . S
C1607 C1604 1.386 . S
C1608 C1603 1.490 . S
C1608 C1610 1.395 . S
C1608 C1611 1.403 . S
H1609 C1615 0.930 . S
C1610 H1596 0.930 . S
C1610 C1608 1.395 . S
C1610 C1613 1.403 . S
C1611 C1608 1.403 . S
C1611 C1612 1.524 . S
C1611 C1615 1.400 . S
C1612 H1597 0.960 . S
C1612 H1598 0.960 . S
C1612 H1599 0.960 . S
C1612 C1611 1.524 . S
C1613 C1610 1.403 . S
C1613 C1614 1.392 . S
C1613 C1617 1.495 . S
C1614 C1613 1.392 . S
C1614 C1615 1.385 . S
C1614 C1616 1.478 . S
C1615 H1609 0.930 . S
C1615 C1611 1.400 . S
C1615 C1614 1.385 . S
C1616 C1614 1.478 . S
C1616 C1618 1.381 . S
C1616 C1622 1.383 . S
C1617 C1613 1.495 . S
C1617 H1623 0.959 . S
C1617 H1624 0.961 . S
C1617 H1625 0.960 . S
C1618 C1616 1.381 . S
C1618 C1619 1.394 . S
C1618 H1626 0.930 . S
C1619 C1618 1.394 . S
C1619 C1620 1.383 . S
C1619 H1627 0.929 . S
C1620 C1619 1.383 . S
C1620 C1621 1.377 . S
C1621 H1605 0.930 . S
C1621 C1620 1.377 . S
C1621 C1622 1.379 . S
C1622 H1606 0.931 . S
C1622 C1616 1.383 . S
C1622 C1621 1.379 . S
H1623 C1617 0.959 . S
H1624 C1617 0.961 . S
H1625 C1617 0.960 . S
H1626 C1618 0.930 . S
H1627 C1619 0.929 . S
H1628 C1636 0.929 . S
H1629 C1638 0.930 . S
H1630 C1640 0.930 . S
H1631 C1643 0.929 . S
H1632 C1646 0.930 . S
H1633 C1648 0.960 . S
H1634 C1648 0.960 . S
H1635 C1648 0.960 . S
C1636 H1628 0.929 . S
C1636 C1637 1.377 . S
C1636 C1638 1.384 . S
C1637 C1636 1.377 . S
C1637 C1643 1.390 . S
C1638 H1629 0.930 . S
C1638 C1636 1.384 . S
C1638 C1639 1.372 . S
C1639 C1638 1.372 . S
C1639 C1640 1.400 . S
C1639 C1644 1.490 . S
C1640 H1630 0.930 . S
C1640 C1639 1.400 . S
C1640 C1643 1.386 . S
H1641 C1657 0.930 . S
H1642 C1658 0.931 . S
C1643 H1631 0.929 . S
C1643 C1637 1.390 . S
C1643 C1640 1.386 . S
C1644 C1639 1.490 . S
C1644 C1646 1.395 1_455 S
C1644 C1647 1.403 . S
H1645 C1651 0.930 . S
C1646 H1632 0.930 . S
C1646 C1644 1.395 1_655 S
C1646 C1649 1.403 . S
C1647 C1644 1.403 . S
C1647 C1648 1.524 . S
C1647 C1651 1.400 . S
C1648 H1633 0.960 . S
C1648 H1634 0.960 . S
C1648 H1635 0.960 . S
C1648 C1647 1.524 . S
C1649 C1646 1.403 . S
C1649 C1650 1.392 . S
C1649 C1653 1.495 . S
C1650 C1649 1.392 . S
C1650 C1651 1.385 1_655 S
C1650 C1652 1.478 . S
C1651 H1645 0.930 . S
C1651 C1647 1.400 . S
C1651 C1650 1.385 1_455 S
C1652 C1650 1.478 . S
C1652 C1654 1.381 . S
C1652 C1658 1.383 . S
C1653 C1649 1.495 . S
C1653 H1659 0.959 . S
C1653 H1660 0.961 . S
C1653 H1661 0.960 . S
C1654 C1652 1.381 . S
C1654 C1655 1.394 . S
C1654 H1662 0.930 . S
C1655 C1654 1.394 . S
C1655 C1656 1.383 . S
C1655 H1663 0.929 . S
C1656 C1655 1.383 . S
C1656 C1657 1.377 . S
C1657 H1641 0.930 . S
C1657 C1656 1.377 . S
C1657 C1658 1.379 . S
C1658 H1642 0.931 . S
C1658 C1652 1.383 . S
C1658 C1657 1.379 . S
H1659 C1653 0.959 . S
H1660 C1653 0.961 . S
H1661 C1653 0.960 . S
H1662 C1654 0.930 . S
H1663 C1655 0.929 . S
H1664 C1672 0.929 . S
H1665 C1674 0.930 . S
H1666 C1676 0.930 . S
H1667 C1679 0.929 . S
H1668 C1682 0.930 . S
H1669 C1684 0.960 . S
H1670 C1684 0.960 . S
H1671 C1684 0.960 . S
C1672 H1664 0.929 . S
C1672 C1673 1.377 . S
C1672 C1674 1.384 . S
C1673 C1672 1.377 . S
C1673 C1679 1.390 . S
C1674 H1665 0.930 . S
C1674 C1672 1.384 . S
C1674 C1675 1.372 . S
C1675 C1674 1.372 . S
C1675 C1676 1.400 . S
C1675 C1680 1.490 . S
C1676 H1666 0.930 . S
C1676 C1675 1.400 . S
C1676 C1679 1.386 . S
H1677 C1693 0.930 . S
H1678 C1694 0.931 1_455 S
C1679 H1667 0.929 . S
C1679 C1673 1.390 . S
C1679 C1676 1.386 . S
C1680 C1675 1.490 . S
C1680 C1682 1.395 . S
C1680 C1683 1.403 1_455 S
H1681 C1687 0.930 . S
C1682 H1668 0.930 . S
C1682 C1680 1.395 . S
C1682 C1685 1.403 . S
C1683 C1680 1.403 1_655 S
C1683 C1684 1.524 . S
C1683 C1687 1.400 . S
C1684 H1669 0.960 . S
C1684 H1670 0.960 . S
C1684 H1671 0.960 . S
C1684 C1683 1.524 . S
C1685 C1682 1.403 . S
C1685 C1686 1.392 1_455 S
C1685 C1689 1.495 . S
C1686 C1685 1.392 1_655 S
C1686 C1687 1.385 . S
C1686 C1688 1.478 . S
C1687 H1681 0.930 . S
C1687 C1683 1.400 . S
C1687 C1686 1.385 . S
C1688 C1686 1.478 . S
C1688 C1690 1.381 . S
C1688 C1694 1.383 . S
C1689 C1685 1.495 . S
C1689 H1695 0.959 . S
C1689 H1696 0.961 . S
C1689 H1697 0.960 . S
C1690 C1688 1.381 . S
C1690 C1691 1.394 . S
C1690 H1698 0.930 . S
C1691 C1690 1.394 . S
C1691 C1692 1.383 . S
C1691 H1699 0.929 . S
C1692 C1691 1.383 . S
C1692 C1693 1.377 . S
C1693 H1677 0.930 . S
C1693 C1692 1.377 . S
C1693 C1694 1.379 . S
C1694 H1678 0.931 1_655 S
C1694 C1688 1.383 . S
C1694 C1693 1.379 . S
H1695 C1689 0.959 . S
H1696 C1689 0.961 . S
H1697 C1689 0.960 . S
H1698 C1690 0.930 . S
H1699 C1691 0.929 . S
H1700 C1708 0.929 . S
H1701 C1710 0.930 . S
H1702 C1712 0.930 . S
H1703 C1715 0.929 . S
H1704 C1718 0.930 . S
H1705 C1720 0.960 . S
H1706 C1720 0.960 . S
H1707 C1720 0.960 . S
C1708 H1700 0.929 . S
C1708 C1709 1.377 . S
C1708 C1710 1.384 . S
C1709 C1708 1.377 . S
C1709 C1715 1.390 . S
C1710 H1701 0.930 . S
C1710 C1708 1.384 . S
C1710 C1711 1.372 . S
C1711 C1710 1.372 . S
C1711 C1712 1.400 . S
C1711 C1716 1.490 . S
C1712 H1702 0.930 . S
C1712 C1711 1.400 . S
C1712 C1715 1.386 . S
H1713 C1729 0.930 . S
H1714 C1730 0.931 . S
C1715 H1703 0.929 . S
C1715 C1709 1.390 . S
C1715 C1712 1.386 . S
C1716 C1711 1.490 . S
C1716 C1718 1.395 . S
C1716 C1719 1.403 . S
H1717 C1723 0.930 . S
C1718 H1704 0.930 . S
C1718 C1716 1.395 . S
C1718 C1721 1.403 . S
C1719 C1716 1.403 . S
C1719 C1720 1.524 . S
C1719 C1723 1.400 . S
C1720 H1705 0.960 . S
C1720 H1706 0.960 . S
C1720 H1707 0.960 . S
C1720 C1719 1.524 . S
C1721 C1718 1.403 . S
C1721 C1722 1.392 . S
C1721 C1725 1.495 . S
C1722 C1721 1.392 . S
C1722 C1723 1.385 . S
C1722 C1724 1.478 . S
C1723 H1717 0.930 . S
C1723 C1719 1.400 . S
C1723 C1722 1.385 . S
C1724 C1722 1.478 . S
C1724 C1726 1.381 . S
C1724 C1730 1.383 . S
C1725 C1721 1.495 . S
C1725 H1731 0.959 . S
C1725 H1732 0.961 . S
C1725 H1733 0.960 . S
C1726 C1724 1.381 . S
C1726 C1727 1.394 . S
C1726 H1734 0.930 . S
C1727 C1726 1.394 . S
C1727 C1728 1.383 . S
C1727 H1735 0.929 . S
C1728 C1727 1.383 . S
C1728 C1729 1.377 . S
C1729 H1713 0.930 . S
C1729 C1728 1.377 . S
C1729 C1730 1.379 . S
C1730 H1714 0.931 . S
C1730 C1724 1.383 . S
C1730 C1729 1.379 . S
H1731 C1725 0.959 . S
H1732 C1725 0.961 . S
H1733 C1725 0.960 . S
H1734 C1726 0.930 . S
H1735 C1727 0.929 . S
H1736 C1744 0.929 . S
H1737 C1746 0.930 . S
H1738 C1748 0.930 . S
H1739 C1751 0.929 . S
H1740 C1754 0.930 . S
H1741 C1756 0.960 . S
H1742 C1756 0.960 . S
H1743 C1756 0.960 . S
C1744 H1736 0.929 . S
C1744 C1745 1.377 . S
C1744 C1746 1.384 . S
C1745 C1744 1.377 . S
C1745 C1751 1.390 . S
C1746 H1737 0.930 . S
C1746 C1744 1.384 . S
C1746 C1747 1.372 . S
C1747 C1746 1.372 . S
C1747 C1748 1.400 . S
C1747 C1752 1.490 . S
C1748 H1738 0.930 . S
C1748 C1747 1.400 . S
C1748 C1751 1.386 . S
H1749 C1765 0.930 . S
H1750 C1766 0.931 . S
C1751 H1739 0.929 . S
C1751 C1745 1.390 . S
C1751 C1748 1.386 . S
C1752 C1747 1.490 . S
C1752 C1754 1.395 . S
C1752 C1755 1.403 . S
H1753 C1759 0.930 . S
C1754 H1740 0.930 . S
C1754 C1752 1.395 . S
C1754 C1757 1.403 . S
C1755 C1752 1.403 . S
C1755 C1756 1.524 . S
C1755 C1759 1.400 . S
C1756 H1741 0.960 . S
C1756 H1742 0.960 . S
C1756 H1743 0.960 . S
C1756 C1755 1.524 . S
C1757 C1754 1.403 . S
C1757 C1758 1.392 . S
C1757 C1761 1.495 . S
C1758 C1757 1.392 . S
C1758 C1759 1.385 . S
C1758 C1760 1.478 . S
C1759 H1753 0.930 . S
C1759 C1755 1.400 . S
C1759 C1758 1.385 . S
C1760 C1758 1.478 . S
C1760 C1762 1.381 . S
C1760 C1766 1.383 . S
C1761 C1757 1.495 . S
C1761 H1767 0.959 . S
C1761 H1768 0.961 . S
C1761 H1769 0.960 . S
C1762 C1760 1.381 . S
C1762 C1763 1.394 . S
C1762 H1770 0.930 . S
C1763 C1762 1.394 . S
C1763 C1764 1.383 . S
C1763 H1771 0.929 . S
C1764 C1763 1.383 . S
C1764 C1765 1.377 . S
C1765 H1749 0.930 . S
C1765 C1764 1.377 . S
C1765 C1766 1.379 . S
C1766 H1750 0.931 . S
C1766 C1760 1.383 . S
C1766 C1765 1.379 . S
H1767 C1761 0.959 . S
H1768 C1761 0.961 . S
H1769 C1761 0.960 . S
H1770 C1762 0.930 . S
H1771 C1763 0.929 . S
H1772 C1780 0.929 1_655 S
H1773 C1782 0.930 . S
H1774 C1784 0.930 . S
H1775 C1787 0.929 . S
H1776 C1790 0.930 . S
H1777 C1792 0.960 . S
H1778 C1792 0.960 . S
H1779 C1792 0.960 . S
C1780 H1772 0.929 1_455 S
C1780 C1781 1.377 . S
C1780 C1782 1.384 1_455 S
C1781 C1780 1.377 . S
C1781 C1787 1.390 . S
C1782 H1773 0.930 . S
C1782 C1780 1.384 1_655 S
C1782 C1783 1.372 1_655 S
C1783 C1782 1.372 1_455 S
C1783 C1784 1.400 . S
C1783 C1788 1.490 . S
C1784 H1774 0.930 . S
C1784 C1783 1.400 . S
C1784 C1787 1.386 . S
H1785 C1801 0.930 1_455 S
H1786 C1802 0.931 1_455 S
C1787 H1775 0.929 . S
C1787 C1781 1.390 . S
C1787 C1784 1.386 . S
C1788 C1783 1.490 . S
C1788 C1790 1.395 1_455 S
C1788 C1791 1.403 . S
H1789 C1795 0.930 . S
C1790 H1776 0.930 . S
C1790 C1788 1.395 1_655 S
C1790 C1793 1.403 . S
C1791 C1788 1.403 . S
C1791 C1792 1.524 . S
C1791 C1795 1.400 . S
C1792 H1777 0.960 . S
C1792 H1778 0.960 . S
C1792 H1779 0.960 . S
C1792 C1791 1.524 . S
C1793 C1790 1.403 . S
C1793 C1794 1.392 . S
C1793 C1797 1.495 . S
C1794 C1793 1.392 . S
C1794 C1795 1.385 1_655 S
C1794 C1796 1.478 . S
C1795 H1789 0.930 . S
C1795 C1791 1.400 . S
C1795 C1794 1.385 1_455 S
C1796 C1794 1.478 . S
C1796 C1798 1.381 . S
C1796 C1802 1.383 . S
C1797 C1793 1.495 . S
C1797 H1803 0.959 . S
C1797 H1804 0.961 . S
C1797 H1805 0.960 . S
C1798 C1796 1.381 . S
C1798 C1799 1.394 . S
C1798 H1806 0.930 . S
C1799 C1798 1.394 . S
C1799 C1800 1.383 . S
C1799 H1807 0.929 . S
C1800 C1799 1.383 . S
C1800 C1801 1.377 . S
C1801 H1785 0.930 1_655 S
C1801 C1800 1.377 . S
C1801 C1802 1.379 . S
C1802 H1786 0.931 1_655 S
C1802 C1796 1.383 . S
C1802 C1801 1.379 . S
H1803 C1797 0.959 . S
H1804 C1797 0.961 . S
H1805 C1797 0.960 . S
H1806 C1798 0.930 . S
H1807 C1799 0.929 . S
H1808 C1816 0.929 1_455 S
H1809 C1818 0.959 . S
H1810 C1820 0.930 . S
H1811 C1823 0.929 . S
H1812 C1826 0.930 . S
H1813 C1828 0.960 . S
H1814 C1828 0.960 1_556 S
H1815 C1828 0.960 1_556 S
C1816 H1808 0.929 1_655 S
C1816 C1817 1.377 . S
C1816 C1818 1.374 1_655 S
C1817 C1816 1.377 . S
C1817 C1823 1.390 . S
C1818 H1809 0.959 . S
C1818 C1816 1.374 1_455 S
C1818 C1819 1.353 1_455 S
C1819 C1818 1.353 1_655 S
C1819 C1820 1.400 . S
C1819 C1824 1.490 . S
C1820 H1810 0.930 . S
C1820 C1819 1.400 . S
C1820 C1823 1.386 . S
H1821 C1837 0.930 1_655 S
H1822 C1838 0.931 1_655 S
C1823 H1811 0.929 . S
C1823 C1817 1.390 . S
C1823 C1820 1.386 . S
C1824 C1819 1.490 . S
C1824 C1826 1.395 1_665 S
C1824 C1827 1.417 . S
H1825 C1831 0.930 . S
C1826 H1812 0.930 . S
C1826 C1824 1.395 1_445 S
C1826 C1829 1.403 . S
C1827 C1824 1.417 . S
C1827 C1828 1.523 1_556 S
C1827 C1831 1.387 1_556 S
C1828 H1813 0.960 . S
C1828 H1814 0.960 1_554 S
C1828 H1815 0.960 1_554 S
C1828 C1827 1.523 1_554 S
C1829 C1826 1.403 . S
C1829 C1830 1.392 1_556 S
C1829 C1833 1.495 . S
C1830 C1829 1.392 1_554 S
C1830 C1831 1.385 1_445 S
C1830 C1832 1.478 . S
C1831 H1825 0.930 . S
C1831 C1827 1.387 1_554 S
C1831 C1830 1.385 1_665 S
C1832 C1830 1.478 . S
C1832 C1834 1.381 . S
C1832 C1838 1.383 . S
C1833 C1829 1.495 . S
C1833 H1839 0.959 . S
C1833 H1840 0.961 1_556 S
C1833 H1841 0.960 1_556 S
C1834 C1832 1.381 . S
C1834 C1835 1.394 . S
C1834 H1842 0.930 . S
C1835 C1834 1.394 . S
C1835 C1836 1.383 . S
C1835 H1843 0.929 . S
C1836 C1835 1.383 . S
C1836 C1837 1.377 . S
C1837 H1821 0.930 1_455 S
C1837 C1836 1.377 . S
C1837 C1838 1.379 . S
C1838 H1822 0.931 1_455 S
C1838 C1832 1.383 . S
C1838 C1837 1.379 . S
H1839 C1833 0.959 . S
H1840 C1833 0.961 1_554 S
H1841 C1833 0.960 1_554 S
H1842 C1834 0.930 . S
H1843 C1835 0.929 . S
H1844 C1852 0.929 . S
H1845 C1854 0.930 . S
H1846 C1856 0.930 . S
H1847 C1859 0.929 . S
H1848 C1862 0.941 . S
H1849 C1864 0.960 . S
H1850 C1864 0.960 . S
H1851 C1864 0.960 . S
C1852 H1844 0.929 . S
C1852 C1853 1.377 . S
C1852 C1854 1.384 . S
C1853 C1852 1.377 . S
C1853 C1859 1.390 . S
C1854 H1845 0.930 . S
C1854 C1852 1.384 . S
C1854 C1855 1.372 . S
C1855 C1854 1.372 . S
C1855 C1856 1.400 . S
C1855 C1860 1.490 . S
C1856 H1846 0.930 . S
C1856 C1855 1.400 . S
C1856 C1859 1.386 . S
H1857 C1873 0.930 . S
H1858 C1874 0.931 1_545 S
C1859 H1847 0.929 . S
C1859 C1853 1.390 . S
C1859 C1856 1.386 . S
C1860 C1855 1.490 . S
C1860 C1862 1.449 . S
C1860 C1863 1.403 1_545 S
H1861 C1867 0.930 . S
C1862 H1848 0.941 . S
C1862 C1860 1.449 . S
C1862 C1865 1.342 1_556 S
C1863 C1860 1.403 1_565 S
C1863 C1864 1.524 . S
C1863 C1867 1.400 1_556 S
C1864 H1849 0.960 . S
C1864 H1850 0.960 . S
C1864 H1851 0.960 . S
C1864 C1863 1.524 . S
C1865 C1862 1.342 1_554 S
C1865 C1866 1.392 1_545 S
C1865 C1869 1.495 . S
C1866 C1865 1.392 1_565 S
C1866 C1867 1.385 . S
C1866 C1868 1.478 . S
C1867 H1861 0.930 . S
C1867 C1863 1.400 1_554 S
C1867 C1866 1.385 . S
C1868 C1866 1.478 . S
C1868 C1870 1.381 . S
C1868 C1874 1.383 . S
C1869 C1865 1.495 . S
C1869 H1875 0.959 . S
C1869 H1876 0.961 . S
C1869 H1877 0.964 . S
C1870 C1868 1.381 . S
C1870 C1871 1.394 . S
C1870 H1878 0.930 . S
C1871 C1870 1.394 . S
C1871 C1872 1.383 . S
C1871 H1879 0.929 . S
C1872 C1871 1.383 . S
C1872 C1873 1.377 . S
C1873 H1857 0.930 . S
C1873 C1872 1.377 . S
C1873 C1874 1.379 . S
C1874 H1858 0.931 1_565 S
C1874 C1868 1.383 . S
C1874 C1873 1.379 . S
H1875 C1869 0.959 . S
H1876 C1869 0.961 . S
H1877 C1869 0.964 . S
H1878 C1870 0.930 . S
H1879 C1871 0.929 . S
H1880 C1888 0.929 . S
H1881 C1890 0.930 1_565 S
H1882 C1892 0.930 . S
H1883 C1895 0.929 . S
H1884 C1898 0.930 . S
H1885 C1900 0.960 . S
H1886 C1900 0.960 . S
H1887 C1900 0.960 . S
C1888 H1880 0.929 . S
C1888 C1889 1.377 . S
C1888 C1890 1.384 . S
C1889 C1888 1.377 . S
C1889 C1895 1.390 . S
C1890 H1881 0.930 1_545 S
C1890 C1888 1.384 . S
C1890 C1891 1.372 . S
C1891 C1890 1.372 . S
C1891 C1892 1.400 . S
C1891 C1896 1.490 . S
C1892 H1882 0.930 . S
C1892 C1891 1.400 . S
C1892 C1895 1.386 . S
H1893 C1909 0.930 . S
H1894 C1910 0.931 1_545 S
C1895 H1883 0.929 . S
C1895 C1889 1.390 . S
C1895 C1892 1.386 . S
C1896 C1891 1.490 . S
C1896 C1898 1.395 1_545 S
C1896 C1899 1.403 . S
H1897 C1903 0.930 1_545 S
C1898 H1884 0.930 . S
C1898 C1896 1.395 1_565 S
C1898 C1901 1.403 . S
C1899 C1896 1.403 . S
C1899 C1900 1.524 . S
C1899 C1903 1.400 1_545 S
C1900 H1885 0.960 . S
C1900 H1886 0.960 . S
C1900 H1887 0.960 . S
C1900 C1899 1.524 . S
C1901 C1898 1.403 . S
C1901 C1902 1.392 . S
C1901 C1905 1.495 . S
C1902 C1901 1.392 . S
C1902 C1903 1.385 . S
C1902 C1904 1.478 . S
C1903 H1897 0.930 1_565 S
C1903 C1899 1.400 1_565 S
C1903 C1902 1.385 . S
C1904 C1902 1.478 . S
C1904 C1906 1.381 . S
C1904 C1910 1.383 . S
C1905 C1901 1.495 . S
C1905 H1911 0.959 . S
C1905 H1912 0.961 . S
C1905 H1913 0.960 . S
C1906 C1904 1.381 . S
C1906 C1907 1.394 . S
C1906 H1914 0.930 . S
C1907 C1906 1.394 . S
C1907 C1908 1.383 . S
C1907 H1915 0.929 . S
C1908 C1907 1.383 . S
C1908 C1909 1.377 . S
C1909 H1893 0.930 . S
C1909 C1908 1.377 . S
C1909 C1910 1.379 . S
C1910 H1894 0.931 1_565 S
C1910 C1904 1.383 . S
C1910 C1909 1.379 . S
H1911 C1905 0.959 . S
H1912 C1905 0.961 . S
H1913 C1905 0.960 . S
H1914 C1906 0.930 . S
H1915 C1907 0.929 . S
H1916 C1924 0.929 . S
H1917 C1926 0.930 . S
H1918 C1928 0.908 1_655 S
H1919 C1931 0.929 1_655 S
H1920 C1934 0.930 . S
H1921 C1936 0.960 . S
H1922 C1936 0.960 1_455 S
H1923 C1936 0.960 . S
C1924 H1916 0.929 . S
C1924 C1925 1.377 . S
C1924 C1926 1.384 . S
C1925 C1924 1.377 . S
C1925 C1931 1.390 . S
C1926 H1917 0.930 . S
C1926 C1924 1.384 . S
C1926 C1927 1.372 . S
C1927 C1926 1.372 . S
C1927 C1928 1.415 . S
C1927 C1932 1.490 . S
C1928 H1918 0.908 1_455 S
C1928 C1927 1.415 . S
C1928 C1931 1.392 . S
H1929 C1945 0.930 . S
H1930 C1946 0.931 . S
C1931 H1919 0.929 1_455 S
C1931 C1925 1.390 . S
C1931 C1928 1.392 . S
C1932 C1927 1.490 . S
C1932 C1934 1.395 . S
C1932 C1935 1.403 1_465 S
H1933 C1939 0.930 . S
C1934 H1920 0.930 . S
C1934 C1932 1.395 . S
C1934 C1937 1.403 . S
C1935 C1932 1.403 1_645 S
C1935 C1936 1.524 . S
C1935 C1939 1.400 . S
C1936 H1921 0.960 . S
C1936 H1922 0.960 1_655 S
C1936 H1923 0.960 . S
C1936 C1935 1.524 . S
C1937 C1934 1.403 . S
C1937 C1938 1.392 1_465 S
C1937 C1941 1.495 . S
C1938 C1937 1.392 1_645 S
C1938 C1939 1.385 . S
C1938 C1940 1.478 . S
C1939 H1933 0.930 . S
C1939 C1935 1.400 . S
C1939 C1938 1.385 . S
C1940 C1938 1.478 . S
C1940 C1942 1.381 1_655 S
C1940 C1946 1.383 . S
C1941 C1937 1.495 . S
C1941 H1947 0.959 . S
C1941 H1948 0.961 1_455 S
C1941 H1949 0.960 . S
C1942 C1940 1.381 1_455 S
C1942 C1943 1.394 1_455 S
C1942 H1950 0.930 . S
C1943 C1942 1.394 1_655 S
C1943 C1944 1.383 . S
C1943 H1951 0.929 1_655 S
C1944 C1943 1.383 . S
C1944 C1945 1.377 . S
C1945 H1929 0.930 . S
C1945 C1944 1.377 . S
C1945 C1946 1.379 . S
C1946 H1930 0.931 . S
C1946 C1940 1.383 . S
C1946 C1945 1.379 . S
H1947 C1941 0.959 . S
H1948 C1941 0.961 1_655 S
H1949 C1941 0.960 . S
H1950 C1942 0.930 . S
H1951 C1943 0.929 1_455 S
H1952 C1960 0.929 . S
H1953 C1962 0.930 . S
H1954 C1964 0.930 . S
H1955 C1967 0.929 . S
H1956 C1970 0.930 . S
H1957 C1972 1.002 . S
H1958 C1972 0.960 . S
H1959 C1972 0.960 . S
C1960 H1952 0.929 . S
C1960 C1961 1.377 . S
C1960 C1962 1.384 . S
C1961 C1960 1.377 . S
C1961 C1967 1.390 . S
C1962 H1953 0.930 . S
C1962 C1960 1.384 . S
C1962 C1963 1.372 . S
C1963 C1962 1.372 . S
C1963 C1964 1.400 . S
C1963 C1968 1.490 . S
C1964 H1954 0.930 . S
C1964 C1963 1.400 . S
C1964 C1967 1.386 . S
H1965 C1981 0.930 . S
H1966 C1982 0.931 . S
C1967 H1955 0.929 . S
C1967 C1961 1.390 . S
C1967 C1964 1.386 . S
C1968 C1963 1.490 . S
C1968 C1970 1.395 . S
C1968 C1971 1.403 . S
H1969 C1975 0.930 . S
C1970 H1956 0.930 . S
C1970 C1968 1.395 . S
C1970 C1973 1.403 1_554 S
C1971 C1968 1.403 . S
C1971 C1972 1.524 . S
C1971 C1975 1.400 1_554 S
C1972 H1957 1.002 . S
C1972 H1958 0.960 . S
C1972 H1959 0.960 . S
C1972 C1971 1.524 . S
C1973 C1970 1.403 1_556 S
C1973 C1974 1.392 . S
C1973 C1977 1.495 . S
C1974 C1973 1.392 . S
C1974 C1975 1.385 . S
C1974 C1976 1.478 . S
C1975 H1969 0.930 . S
C1975 C1971 1.400 1_556 S
C1975 C1974 1.385 . S
C1976 C1974 1.478 . S
C1976 C1978 1.381 . S
C1976 C1982 1.383 . S
C1977 C1973 1.495 . S
C1977 H1983 0.956 1_556 S
C1977 H1984 0.961 . S
C1977 H1985 0.960 . S
C1978 C1976 1.381 . S
C1978 C1979 1.394 . S
C1978 H1986 0.930 . S
C1979 C1978 1.394 . S
C1979 C1980 1.383 . S
C1979 H1987 0.929 . S
C1980 C1979 1.383 . S
C1980 C1981 1.377 . S
C1981 H1965 0.930 . S
C1981 C1980 1.377 . S
C1981 C1982 1.379 . S
C1982 H1966 0.931 . S
C1982 C1976 1.383 . S
C1982 C1981 1.379 . S
H1983 C1977 0.956 1_554 S
H1984 C1977 0.961 . S
H1985 C1977 0.960 . S
H1986 C1978 0.930 . S
H1987 C1979 0.929 . S
H1988 C1996 0.929 . S
H1989 C1998 0.930 . S
H1990 C2000 0.889 1_455 S
H1991 C2003 0.929 1_455 S
H1992 C2006 0.930 . S
H1993 C2008 0.960 1_556 S
H1994 C2008 0.960 1_655 S
H1995 C2008 0.960 . S
C1996 H1988 0.929 . S
C1996 C1997 1.377 . S
C1996 C1998 1.384 . S
C1997 C1996 1.377 . S
C1997 C2003 1.390 . S
C1998 H1989 0.930 . S
C1998 C1996 1.384 . S
C1998 C1999 1.372 . S
C1999 C1998 1.372 . S
C1999 C2000 1.428 . S
C1999 C2004 1.490 . S
C2000 H1990 0.889 1_655 S
C2000 C1999 1.428 . S
C2000 C2003 1.399 . S
H2001 C2017 0.930 . S
H2002 C2018 0.931 . S
C2003 H1991 0.929 1_655 S
C2003 C1997 1.390 . S
C2003 C2000 1.399 . S
C2004 C1999 1.490 . S
C2004 C2006 1.395 . S
C2004 C2007 1.389 1_655 S
H2005 C2011 0.930 . S
C2006 H1992 0.930 . S
C2006 C2004 1.395 . S
C2006 C2009 1.403 1_554 S
C2007 C2004 1.389 1_455 S
C2007 C2008 1.527 . S
C2007 C2011 1.411 1_554 S
C2008 H1993 0.960 1_554 S
C2008 H1994 0.960 1_455 S
C2008 H1995 0.960 . S
C2008 C2007 1.527 . S
C2009 C2006 1.403 1_556 S
C2009 C2010 1.392 1_655 S
C2009 C2013 1.495 . S
C2010 C2009 1.392 1_455 S
C2010 C2011 1.385 . S
C2010 C2012 1.478 . S
C2011 H2005 0.930 . S
C2011 C2007 1.411 1_556 S
C2011 C2010 1.385 . S
C2012 C2010 1.478 . S
C2012 C2014 1.381 1_455 S
C2012 C2018 1.383 . S
C2013 C2009 1.495 . S
C2013 H2019 0.959 1_556 S
C2013 H2020 0.961 1_655 S
C2013 H2021 0.960 . S
C2014 C2012 1.381 1_655 S
C2014 C2015 1.394 1_655 S
C2014 H2022 0.930 . S
C2015 C2014 1.394 1_455 S
C2015 C2016 1.383 . S
C2015 H2023 0.929 1_455 S
C2016 C2015 1.383 . S
C2016 C2017 1.377 . S
C2017 H2001 0.930 . S
C2017 C2016 1.377 . S
C2017 C2018 1.379 . S
C2018 H2002 0.931 . S
C2018 C2012 1.383 . S
C2018 C2017 1.379 . S
H2019 C2013 0.959 1_554 S
H2020 C2013 0.961 1_455 S
H2021 C2013 0.960 . S
H2022 C2014 0.930 . S
H2023 C2015 0.929 1_655 S
H2024 C2032 0.929 . S
H2025 C2034 0.930 . S
H2026 C2036 0.930 . S
H2027 C2039 0.929 . S
H2028 C2042 0.930 . S
H2029 C2044 0.960 . S
H2030 C2044 0.960 . S
H2031 C2044 0.960 . S
C2032 H2024 0.929 . S
C2032 C2033 1.377 . S
C2032 C2034 1.384 . S
C2033 C2032 1.377 . S
C2033 C2039 1.390 . S
C2034 H2025 0.930 . S
C2034 C2032 1.384 . S
C2034 C2035 1.372 . S
C2035 C2034 1.372 . S
C2035 C2036 1.400 . S
C2035 C2040 1.490 . S
C2036 H2026 0.930 . S
C2036 C2035 1.400 . S
C2036 C2039 1.386 . S
H2037 C2053 0.930 . S
H2038 C2054 0.931 . S
C2039 H2027 0.929 . S
C2039 C2033 1.390 . S
C2039 C2036 1.386 . S
C2040 C2035 1.490 . S
C2040 C2042 1.395 1_655 S
C2040 C2043 1.403 . S
H2041 C2047 0.930 . S
C2042 H2028 0.930 . S
C2042 C2040 1.395 1_455 S
C2042 C2045 1.403 . S
C2043 C2040 1.403 . S
C2043 C2044 1.524 . S
C2043 C2047 1.400 . S
C2044 H2029 0.960 . S
C2044 H2030 0.960 . S
C2044 H2031 0.960 . S
C2044 C2043 1.524 . S
C2045 C2042 1.403 . S
C2045 C2046 1.392 . S
C2045 C2049 1.495 . S
C2046 C2045 1.392 . S
C2046 C2047 1.385 1_455 S
C2046 C2048 1.478 . S
C2047 H2041 0.930 . S
C2047 C2043 1.400 . S
C2047 C2046 1.385 1_655 S
C2048 C2046 1.478 . S
C2048 C2050 1.381 . S
C2048 C2054 1.383 . S
C2049 C2045 1.495 . S
C2049 H2055 0.959 . S
C2049 H2056 0.961 . S
C2049 H2057 0.960 . S
C2050 C2048 1.381 . S
C2050 C2051 1.394 . S
C2050 H2058 0.930 . S
C2051 C2050 1.394 . S
C2051 C2052 1.383 . S
C2051 H2059 0.929 . S
C2052 C2051 1.383 . S
C2052 C2053 1.377 . S
C2053 H2037 0.930 . S
C2053 C2052 1.377 . S
C2053 C2054 1.379 . S
C2054 H2038 0.931 . S
C2054 C2048 1.383 . S
C2054 C2053 1.379 . S
H2055 C2049 0.959 . S
H2056 C2049 0.961 . S
H2057 C2049 0.960 . S
H2058 C2050 0.930 . S
H2059 C2051 0.929 . S
H2060 C2068 0.929 . S
H2061 C2070 0.930 . S
H2062 C2072 0.930 . S
H2063 C2075 0.929 . S
H2064 C2078 0.930 . S
H2065 C2080 0.960 . S
H2066 C2080 0.960 . S
H2067 C2080 0.960 . S
C2068 H2060 0.929 . S
C2068 C2069 1.377 . S
C2068 C2070 1.384 . S
C2069 C2068 1.377 . S
C2069 C2075 1.390 . S
C2070 H2061 0.930 . S
C2070 C2068 1.384 . S
C2070 C2071 1.372 . S
C2071 C2070 1.372 . S
C2071 C2072 1.400 . S
C2071 C2076 1.490 . S
C2072 H2062 0.930 . S
C2072 C2071 1.400 . S
C2072 C2075 1.386 . S
H2073 C2089 0.930 . S
H2074 C2090 0.931 . S
C2075 H2063 0.929 . S
C2075 C2069 1.390 . S
C2075 C2072 1.386 . S
C2076 C2071 1.490 . S
C2076 C2078 1.395 . S
C2076 C2079 1.403 . S
H2077 C2083 0.930 . S
C2078 H2064 0.930 . S
C2078 C2076 1.395 . S
C2078 C2081 1.403 . S
C2079 C2076 1.403 . S
C2079 C2080 1.524 . S
C2079 C2083 1.400 . S
C2080 H2065 0.960 . S
C2080 H2066 0.960 . S
C2080 H2067 0.960 . S
C2080 C2079 1.524 . S
C2081 C2078 1.403 . S
C2081 C2082 1.392 . S
C2081 C2085 1.495 . S
C2082 C2081 1.392 . S
C2082 C2083 1.385 . S
C2082 C2084 1.478 . S
C2083 H2077 0.930 . S
C2083 C2079 1.400 . S
C2083 C2082 1.385 . S
C2084 C2082 1.478 . S
C2084 C2086 1.381 . S
C2084 C2090 1.383 . S
C2085 C2081 1.495 . S
C2085 H2091 0.959 . S
C2085 H2092 0.961 . S
C2085 H2093 0.960 . S
C2086 C2084 1.381 . S
C2086 C2087 1.394 . S
C2086 H2094 0.930 . S
C2087 C2086 1.394 . S
C2087 C2088 1.383 . S
C2087 H2095 0.929 . S
C2088 C2087 1.383 . S
C2088 C2089 1.377 . S
C2089 H2073 0.930 . S
C2089 C2088 1.377 . S
C2089 C2090 1.379 . S
C2090 H2074 0.931 . S
C2090 C2084 1.383 . S
C2090 C2089 1.379 . S
H2091 C2085 0.959 . S
H2092 C2085 0.961 . S
H2093 C2085 0.960 . S
H2094 C2086 0.930 . S
H2095 C2087 0.929 . S
C953 C64 1.552 . S
C972 C5 1.554 . S
C989 C123 1.552 . S
C1008 C182 1.552 . S
C1025 C241 1.554 . S
C1044 C300 1.555 . S
C1061 C418 1.554 . S
C1080 C359 1.555 . S
C1097 C536 1.552 . S
C1116 C477 1.543 . S
C1133 C654 1.552 . S
C1152 C595 1.543 . S
C1169 C772 1.554 . S
C1188 C713 1.549 . S
C1205 C890 1.553 . S
C1224 C831 1.546 . S
C1241 C210 1.585 . S
C1260 C33 1.589 . S
C1277 C92 1.586 . S
C1296 C151 1.590 . S
C1313 C446 1.587 . S
C1332 C269 1.583 . S
C1349 C387 1.588 . S
C1368 C328 1.585 . S
C1385 C505 1.587 . S
C1404 C682 1.584 . S
C1421 C623 1.588 . S
C1440 C564 1.577 . S
C1457 C918 1.588 . S
C1476 C741 1.589 . S
C1493 C800 1.586 . S
C1512 C859 1.581 . S
C1529 C52 1.578 . S
C1548 C583 1.579 . S
C1565 C111 1.579 . S
C1584 C524 1.576 . S
C1601 C701 1.579 . S
C1620 C170 1.581 . S
C1637 C642 1.577 . S
C1656 C229 1.568 . S
C1673 C819 1.579 . S
C1692 C288 1.578 . S
C1709 C760 1.580 . S
C1728 C347 1.576 . S
C1745 C406 1.578 . S
C1764 C937 1.582 . S
C1781 C465 1.579 . S
C1800 C878 1.569 . S
C1817 C239 1.562 . S
C1836 C3 1.558 . S
C1853 C298 1.565 . S
C1872 C62 1.560 . S
C1889 C357 1.564 . S
C1908 C121 1.553 . S
C1925 C416 1.566 . S
C1944 C180 1.565 . S
C1961 C475 1.565 . S
C1980 C711 1.569 . S
C1997 C534 1.564 . S
C2016 C770 1.552 . S
C2033 C829 1.565 . S
C2052 C593 1.570 . S
C2069 C888 1.563 . S
C2088 C652 1.551 . S
