# Generated by pormake.
# Topology umo, (4)-cn, num edge types: 1
# Building blocks:
#     Node 0, Type 0, BuildingBlock: ESEHIV_clean_sbu_0, # of connection points: 4
#     Node 1, Type 0, BuildingBlock: ESEHIV_clean_sbu_0, # of connection points: 4
#     Node 2, Type 0, BuildingBlock: ESEHIV_clean_sbu_0, # of connection points: 4
#     Node 3, Type 0, BuildingBlock: ESEHIV_clean_sbu_0, # of connection points: 4
#     Node 4, Type 0, BuildingBlock: ESEHIV_clean_sbu_0, # of connection points: 4
#     Node 5, Type 0, BuildingBlock: ESEHIV_clean_sbu_0, # of connection points: 4
#     Node 6, Type 0, BuildingBlock: ESEHIV_clean_sbu_0, # of connection points: 4
#     Node 7, Type 0, BuildingBlock: ESEHIV_clean_sbu_0, # of connection points: 4
#     Node 8, Type 0, BuildingBlock: ESEHIV_clean_sbu_0, # of connection points: 4
#     Node 9, Type 0, BuildingBlock: ESEHIV_clean_sbu_0, # of connection points: 4
#     Node 10, Type 0, BuildingBlock: ESEHIV_clean_sbu_0, # of connection points: 4
#     Node 11, Type 0, BuildingBlock: ESEHIV_clean_sbu_0, # of connection points: 4
#     Edge 12, Type (0, 0), BuildingBlock: EZIPEK_clean_linker_0, # of connection points: 2
#     Edge 13, Type (0, 0), BuildingBlock: EZIPEK_clean_linker_0, # of connection points: 2
#     Edge 14, Type (0, 0), BuildingBlock: EZIPEK_clean_linker_0, # of connection points: 2
#     Edge 15, Type (0, 0), BuildingBlock: EZIPEK_clean_linker_0, # of connection points: 2
#     Edge 16, Type (0, 0), BuildingBlock: EZIPEK_clean_linker_0, # of connection points: 2
#     Edge 17, Type (0, 0), BuildingBlock: EZIPEK_clean_linker_0, # of connection points: 2
#     Edge 18, Type (0, 0), BuildingBlock: EZIPEK_clean_linker_0, # of connection points: 2
#     Edge 19, Type (0, 0), BuildingBlock: EZIPEK_clean_linker_0, # of connection points: 2
#     Edge 20, Type (0, 0), BuildingBlock: EZIPEK_clean_linker_0, # of connection points: 2
#     Edge 21, Type (0, 0), BuildingBlock: EZIPEK_clean_linker_0, # of connection points: 2
#     Edge 22, Type (0, 0), BuildingBlock: EZIPEK_clean_linker_0, # of connection points: 2
#     Edge 23, Type (0, 0), BuildingBlock: EZIPEK_clean_linker_0, # of connection points: 2
#     Edge 24, Type (0, 0), BuildingBlock: EZIPEK_clean_linker_0, # of connection points: 2
#     Edge 25, Type (0, 0), BuildingBlock: EZIPEK_clean_linker_0, # of connection points: 2
#     Edge 26, Type (0, 0), BuildingBlock: EZIPEK_clean_linker_0, # of connection points: 2
#     Edge 27, Type (0, 0), BuildingBlock: EZIPEK_clean_linker_0, # of connection points: 2
#     Edge 28, Type (0, 0), BuildingBlock: EZIPEK_clean_linker_0, # of connection points: 2
#     Edge 29, Type (0, 0), BuildingBlock: EZIPEK_clean_linker_0, # of connection points: 2
#     Edge 30, Type (0, 0), BuildingBlock: EZIPEK_clean_linker_0, # of connection points: 2
#     Edge 31, Type (0, 0), BuildingBlock: EZIPEK_clean_linker_0, # of connection points: 2
#     Edge 32, Type (0, 0), BuildingBlock: EZIPEK_clean_linker_0, # of connection points: 2
#     Edge 33, Type (0, 0), BuildingBlock: EZIPEK_clean_linker_0, # of connection points: 2
#     Edge 34, Type (0, 0), BuildingBlock: EZIPEK_clean_linker_0, # of connection points: 2
#     Edge 35, Type (0, 0), BuildingBlock: EZIPEK_clean_linker_0, # of connection points: 2
# Relax obj value: 0.177
# Max RMSD: 0.172
# Mean RMSD: 0.172
data_MOF--net-umo--node1-ESEHIV_clean_sbu_0--edge1-EZIPEK_clean_linker_0
_symmetry_space_group_name_H-M    P1
_symmetry_Int_Tables_number       1
_symmetry_cell_setting            triclinic
loop_
_symmetry_equiv_pos_as_xyz
'x, y, z'
_cell_length_a     44.532212
_cell_length_b     44.486038
_cell_length_c     25.373441
_cell_angle_alpha  90.173856
_cell_angle_beta   89.875882
_cell_angle_gamma 119.95417
loop_
_atom_site_label
_atom_site_type_symbol
_atom_site_fract_x
_atom_site_fract_y
_atom_site_fract_z
_atom_type_partial_charge
Cu0 Cu 0.18369 0.58005 0.37597 0.0
N1 N 0.2009 0.6269 0.35905 0.0
N2 N 0.2343 0.68445 0.36538 0.0
C3 C 0.22611 0.65357 0.38621 0.0
C4 C 0.21336 0.67741 0.32334 0.0
C5 C 0.19266 0.64164 0.31947 0.0
O6 O 0.2164 0.56555 0.34745 0.0
C7 C 0.19848 0.58903 0.48847 0.0
O8 O 0.23105 0.60079 0.47582 0.0
H9 H 0.2389 0.6506 0.42023 0.0
H10 H 0.17326 0.62743 0.28974 0.0
N11 N 0.14029 0.55111 0.34395 0.0
N12 N 0.08288 0.51696 0.33167 0.0
C13 C 0.1082 0.54451 0.35824 0.0
C14 C 0.1349 0.52727 0.30684 0.0
C15 C 0.09978 0.50627 0.29931 0.0
C16 C 0.24844 0.58606 0.3366 0.0
O17 O 0.2631 0.61872 0.35093 0.0
H18 H 0.10343 0.55834 0.38931 0.0
H19 H 0.15517 0.52425 0.28841 0.0
O20 O 0.17532 0.57683 0.45268 0.0
H21 H 0.21338 0.69661 0.29722 0.0
H22 H 0.08746 0.48403 0.27325 0.0
Cu23 Cu 0.62288 0.17669 0.56286 0.0
N24 N 0.59101 0.18752 0.53518 0.0
N25 N 0.56436 0.21843 0.54175 0.0
C26 C 0.59434 0.21846 0.54711 0.0
C27 C 0.54101 0.18634 0.52489 0.0
C28 C 0.55761 0.16709 0.5211 0.0
O29 O 0.66842 0.21228 0.53313 0.0
C30 C 0.61323 0.16425 0.679 0.0
O31 O 0.62273 0.14069 0.67607 0.0
H32 H 0.61727 0.23932 0.56544 0.0
H33 H 0.54535 0.13947 0.51411 0.0
N34 N 0.6127 0.13115 0.54532 0.0
N35 N 0.58699 0.07364 0.53111 0.0
C36 C 0.58256 0.10037 0.54685 0.0
C37 C 0.63659 0.12332 0.52804 0.0
C38 C 0.62091 0.0881 0.51927 0.0
C39 C 0.67129 0.21704 0.48308 0.0
O40 O 0.6446 0.19686 0.45324 0.0
H41 H 0.55805 0.0975 0.55955 0.0
H42 H 0.6637 0.14209 0.52227 0.0
O43 O 0.61556 0.18205 0.63825 0.0
H44 H 0.51354 0.17675 0.52035 0.0
H45 H 0.63342 0.07406 0.50526 0.0
Cu46 Cu 0.46744 0.63575 0.71946 0.0
N47 N 0.42466 0.61955 0.68749 0.0
N48 N 0.36751 0.59749 0.68904 0.0
C49 C 0.39793 0.61991 0.71143 0.0
C50 C 0.37514 0.58265 0.64875 0.0
C51 C 0.41065 0.59636 0.64792 0.0
O52 O 0.49503 0.68674 0.71938 0.0
C53 C 0.44879 0.63207 0.82945 0.0
O54 O 0.45005 0.66181 0.82126 0.0
H55 H 0.40032 0.6339 0.74743 0.0
H56 H 0.42478 0.58764 0.62354 0.0
N57 N 0.49212 0.61661 0.68645 0.0
N58 N 0.51913 0.58628 0.67145 0.0
C59 C 0.50173 0.59462 0.70696 0.0
C60 C 0.50385 0.62213 0.63644 0.0
C61 C 0.52054 0.60351 0.62711 0.0
C62 C 0.49834 0.71322 0.6942 0.0
O63 O 0.52273 0.74399 0.7098 0.0
H64 H 0.49611 0.58491 0.74694 0.0
H65 H 0.50026 0.63841 0.60856 0.0
O66 O 0.4568 0.618 0.79217 0.0
H67 H 0.35626 0.56168 0.62448 0.0
H68 H 0.53265 0.60253 0.5906 0.0
Cu69 Cu 0.83588 0.44212 0.8754 0.0
N70 N 0.81854 0.39694 0.85039 0.0
N71 N 0.78298 0.33994 0.84441 0.0
C72 C 0.78907 0.36956 0.86744 0.0
C73 C 0.80944 0.34847 0.81075 0.0
C74 C 0.83168 0.38398 0.81481 0.0
O75 O 0.80607 0.45993 0.84523 0.0
C76 C 0.814 0.42199 0.98509 0.0
O77 O 0.78225 0.41121 0.96896 0.0
H78 H 0.77186 0.37094 0.89594 0.0
H79 H 0.85559 0.39921 0.7933 0.0
N80 N 0.8811 0.46947 0.84808 0.0
N81 N 0.93885 0.49916 0.83785 0.0
C82 C 0.91225 0.48128 0.87179 0.0
C83 C 0.88854 0.48034 0.79779 0.0
C84 C 0.92405 0.49859 0.79136 0.0
C85 C 0.77301 0.44246 0.83983 0.0
O86 O 0.75539 0.41207 0.86239 0.0
H87 H 0.9154 0.47663 0.91271 0.0
H88 H 0.86934 0.47498 0.76767 0.0
O89 O 0.83928 0.43838 0.95308 0.0
H90 H 0.81216 0.33055 0.78497 0.0
H91 H 0.93799 0.5104 0.75534 0.0
Cu92 Cu 0.40738 0.83221 0.0514 0.0
N93 N 0.44409 0.82658 0.02852 0.0
N94 N 0.47211 0.79708 0.04037 0.0
C95 C 0.44117 0.79511 0.03386 0.0
C96 C 0.49578 0.83114 0.03795 0.0
C97 C 0.4784 0.84935 0.03108 0.0
O98 O 0.36562 0.79466 0.01509 0.0
C99 C 0.40501 0.83854 0.16686 0.0
O100 O 0.3909 0.85805 0.16017 0.0
H101 H 0.41667 0.77181 0.04146 0.0
H102 H 0.48971 0.87703 0.0359 0.0
N103 N 0.41407 0.87759 0.04019 0.0
N104 N 0.43599 0.93473 0.02559 0.0
C105 C 0.4419 0.90761 0.0234 0.0
C106 C 0.39015 0.88653 0.05288 0.0
C107 C 0.40344 0.92141 0.0439 0.0
C108 C 0.34484 0.79831 0.98444 0.0
O109 O 0.34815 0.82916 0.97902 0.0
H110 H 0.46611 0.9099 0.0107 0.0
H111 H 0.36478 0.86884 0.06875 0.0
O112 O 0.40995 0.82399 0.1271 0.0
H113 H 0.52299 0.8422 0.04732 0.0
H114 H 0.39048 0.93613 0.05123 0.0
Cu115 Cu 0.5656 0.38935 0.20312 0.0
N116 N 0.61105 0.4082 0.17883 0.0
N117 N 0.66819 0.42979 0.18351 0.0
C118 C 0.63741 0.41006 0.20727 0.0
C119 C 0.66123 0.44094 0.13832 0.0
C120 C 0.6258 0.42755 0.13554 0.0
O121 O 0.54053 0.33791 0.19958 0.0
C122 C 0.57694 0.39123 0.31555 0.0
O123 O 0.5786 0.36293 0.30749 0.0
H124 H 0.63436 0.39841 0.24568 0.0
H125 H 0.61205 0.43289 0.10532 0.0
N126 N 0.542 0.40852 0.16685 0.0
N127 N 0.51385 0.43766 0.15039 0.0
C128 C 0.52715 0.42601 0.18786 0.0
C129 C 0.53778 0.40917 0.1144 0.0
C130 C 0.52051 0.42711 0.10415 0.0
C131 C 0.53509 0.30991 0.17611 0.0
O132 O 0.51233 0.28033 0.19751 0.0
H133 H 0.52628 0.43033 0.2297 0.0
H134 H 0.54691 0.39765 0.08552 0.0
O135 O 0.56995 0.40509 0.27704 0.0
H136 H 0.68045 0.4583 0.11039 0.0
H137 H 0.51331 0.43202 0.06576 0.0
Cu138 Cu 0.44884 0.82282 0.48383 0.0
N139 N 0.40395 0.81366 0.49818 0.0
N140 N 0.34888 0.7908 0.47188 0.0
C141 C 0.37645 0.78616 0.47612 0.0
C142 C 0.35913 0.82238 0.49271 0.0
C143 C 0.39316 0.83643 0.50906 0.0
O144 O 0.45924 0.79105 0.52518 0.0
C145 C 0.46432 0.83846 0.37283 0.0
O146 O 0.49397 0.86515 0.3875 0.0
H147 H 0.37798 0.76518 0.45707 0.0
H148 H 0.40977 0.86275 0.52247 0.0
N149 N 0.48239 0.86897 0.50237 0.0
N150 N 0.51324 0.92662 0.5158 0.0
C151 C 0.48367 0.89987 0.49569 0.0
C152 C 0.51207 0.87683 0.52737 0.0
C153 C 0.531 0.91209 0.5357 0.0
C154 C 0.44141 0.758 0.5299 0.0
O155 O 0.41319 0.74028 0.50175 0.0
H156 H 0.46364 0.90282 0.47642 0.0
H157 H 0.51944 0.85801 0.53888 0.0
O158 O 0.44549 0.81595 0.40705 0.0
H159 H 0.34408 0.83539 0.49218 0.0
H160 H 0.55594 0.92611 0.55503 0.0
Cu161 Cu 0.61799 0.43879 0.64027 0.0
N162 N 0.58555 0.39142 0.64533 0.0
N163 N 0.56186 0.33472 0.62884 0.0
C164 C 0.59156 0.36527 0.63394 0.0
C165 C 0.5361 0.3416 0.63817 0.0
C166 C 0.55082 0.37667 0.64853 0.0
O167 O 0.6614 0.44472 0.67298 0.0
C168 C 0.62172 0.43043 0.52856 0.0
O169 O 0.63132 0.408 0.54168 0.0
H170 H 0.61699 0.36895 0.62532 0.0
H171 H 0.53715 0.39086 0.65381 0.0
N172 N 0.6004 0.46384 0.67653 0.0
N173 N 0.57688 0.4972 0.69342 0.0
C174 C 0.59045 0.4856 0.65616 0.0
C175 C 0.59247 0.46152 0.72818 0.0
C176 C 0.57814 0.48218 0.73874 0.0
C177 C 0.67973 0.46725 0.70802 0.0
O178 O 0.67301 0.4921 0.71954 0.0
H179 H 0.59248 0.49228 0.61482 0.0
H180 H 0.5962 0.44532 0.75601 0.0
O181 O 0.61869 0.44898 0.56436 0.0
H182 H 0.50873 0.3231 0.63411 0.0
H183 H 0.56874 0.48545 0.77649 0.0
Cu184 Cu 0.18672 0.61879 0.81516 0.0
N185 N 0.20701 0.59057 0.81583 0.0
N186 N 0.24358 0.57267 0.79004 0.0
C187 C 0.23981 0.60015 0.80189 0.0
C188 C 0.2122 0.54449 0.79769 0.0
C189 C 0.1897 0.55562 0.81387 0.0
O190 O 0.2166 0.66254 0.85534 0.0
C191 C 0.19928 0.62822 0.70365 0.0
O192 O 0.23203 0.64166 0.71607 0.0
H193 H 0.25982 0.62662 0.79523 0.0
H194 H 0.16196 0.53955 0.81867 0.0
N195 N 0.14329 0.59462 0.84918 0.0
N196 N 0.08605 0.56552 0.86472 0.0
C197 C 0.11129 0.58265 0.82849 0.0
C198 C 0.13785 0.58459 0.9 0.0
C199 C 0.10262 0.56666 0.90968 0.0
C200 C 0.24825 0.68522 0.84589 0.0
O201 O 0.26279 0.68296 0.80222 0.0
H202 H 0.10653 0.5861 0.78775 0.0
H203 H 0.15818 0.58975 0.92796 0.0
O204 O 0.17696 0.62148 0.74 0.0
H205 H 0.20544 0.51813 0.78804 0.0
H206 H 0.09006 0.55518 0.94672 0.0
Cu207 Cu 0.55681 0.18308 0.95408 0.0
N208 N 0.60092 0.19263 0.93296 0.0
N209 N 0.65543 0.22314 0.90407 0.0
C210 C 0.63032 0.22367 0.93336 0.0
C211 C 0.64168 0.19049 0.88566 0.0
C212 C 0.6082 0.17165 0.90398 0.0
O213 O 0.5594 0.21774 0.00746 0.0
C214 C 0.53207 0.18273 0.84153 0.0
O215 O 0.50808 0.1848 0.81442 0.0
H216 H 0.63234 0.24688 0.95073 0.0
H217 H 0.58978 0.14514 0.89381 0.0
N218 N 0.53194 0.13847 0.9856 0.0
N219 N 0.50585 0.08148 1.00451 0.0
C220 C 0.52778 0.10711 0.97154 0.0
C221 C 0.51215 0.13207 0.02894 0.0
C222 C 0.49617 0.09722 0.04065 0.0
C223 C 0.56432 0.24822 0.99814 0.0
O224 O 0.5703 0.25983 0.9495 0.0
H225 H 0.53994 0.10286 0.93767 0.0
H226 H 0.50914 0.1515 0.05024 0.0
O227 O 0.53091 0.18427 0.89202 0.0
H228 H 0.65442 0.18148 0.85875 0.0
H229 H 0.4784 0.08424 0.07288 0.0
Cu230 Cu 0.40411 0.57901 0.14712 0.0
N231 N 0.44172 0.62378 0.15296 0.0
N232 N 0.47036 0.67991 0.13179 0.0
C233 C 0.43912 0.65155 0.13906 0.0
C234 C 0.49381 0.66988 0.14161 0.0
C235 C 0.47596 0.63499 0.15456 0.0
O236 O 0.36686 0.5795 0.19017 0.0
C237 C 0.40712 0.56585 0.03571 0.0
O238 O 0.41662 0.54336 0.04899 0.0
H239 H 0.41477 0.65023 0.12976 0.0
H240 H 0.48705 0.61845 0.16026 0.0
N241 N 0.41607 0.54565 0.17059 0.0
N242 N 0.44015 0.51185 0.17939 0.0
C243 C 0.44097 0.53882 0.15334 0.0
C244 C 0.39987 0.52263 0.20963 0.0
C245 C 0.41443 0.50177 0.21493 0.0
C246 C 0.33695 0.55461 0.20321 0.0
O247 O 0.32679 0.52303 0.18636 0.0
H248 H 0.45909 0.55295 0.12206 0.0
H249 H 0.3786 0.52082 0.23254 0.0
O250 O 0.39566 0.57812 0.07089 0.0
H251 H 0.52152 0.68596 0.13628 0.0
H252 H 0.4063 0.48033 0.24204 0.0
Cu253 Cu 0.83288 0.38978 0.3088 0.0
N254 N 0.82191 0.42537 0.30984 0.0
N255 N 0.78968 0.44844 0.28457 0.0
C256 C 0.7897 0.4195 0.30006 0.0
C257 C 0.82307 0.47393 0.28607 0.0
C258 C 0.84294 0.45962 0.30173 0.0
O259 O 0.79537 0.35111 0.35031 0.0
C260 C 0.81263 0.37807 0.20025 0.0
O261 O 0.78148 0.36851 0.21816 0.0
H262 H 0.76713 0.39381 0.29834 0.0
H263 H 0.87088 0.47267 0.30142 0.0
N264 N 0.87717 0.40453 0.33815 0.0
N265 N 0.93504 0.43251 0.34954 0.0
C266 C 0.90781 0.43345 0.32739 0.0
C267 C 0.88548 0.38491 0.36826 0.0
C268 C 0.92092 0.40193 0.3752 0.0
C269 C 0.78846 0.3198 0.35721 0.0
O270 O 0.80732 0.30881 0.33304 0.0
H271 H 0.91047 0.45393 0.30161 0.0
H272 H 0.86717 0.35928 0.38244 0.0
O273 O 0.83623 0.38226 0.2328 0.0
H274 H 0.83269 0.50001 0.27152 0.0
H275 H 0.9354 0.39223 0.39642 0.0
C276 C 0.25592 0.72962 0.43374 0.0
C277 C 0.26114 0.71739 0.38508 0.0
C278 C 0.32218 0.76262 0.38711 0.0
C279 C 0.31836 0.76963 0.44057 0.0
N280 N 0.28158 0.75864 0.51618 0.0
N281 N 0.29946 0.721 0.31541 0.0
C282 C 0.28506 0.75331 0.46408 0.0
C283 C 0.29428 0.7339 0.36124 0.0
N284 N 0.22293 0.71833 0.45063 0.0
N285 N 0.35233 0.78383 0.36112 0.0
H286 H 0.27938 0.70014 0.29546 0.0
H287 H 0.3239 0.72955 0.29915 0.0
H288 H 0.37254 0.80587 0.37873 0.0
H289 H 0.35568 0.78174 0.32091 0.0
H290 H 0.21711 0.72861 0.48346 0.0
H291 H 0.20142 0.70091 0.42853 0.0
H292 H 0.25839 0.7447 0.5368 0.0
H293 H 0.30254 0.77522 0.53979 0.0
C294 C 0.55163 0.24555 0.61709 0.0
C295 C 0.55805 0.24492 0.56235 0.0
C296 C 0.5622 0.30144 0.55093 0.0
C297 C 0.55853 0.30344 0.60617 0.0
N298 N 0.54892 0.27844 0.69233 0.0
N299 N 0.57121 0.27171 0.4773 0.0
C300 C 0.55265 0.27553 0.6394 0.0
C301 C 0.56343 0.27261 0.5292 0.0
N302 N 0.54536 0.21763 0.64735 0.0
N303 N 0.56396 0.32708 0.51949 0.0
H304 H 0.57122 0.25028 0.46044 0.0
H305 H 0.57914 0.29244 0.45149 0.0
H306 H 0.56345 0.34848 0.53498 0.0
H307 H 0.56365 0.3263 0.47851 0.0
H308 H 0.53956 0.2153 0.68733 0.0
H309 H 0.54489 0.1957 0.63171 0.0
H310 H 0.54539 0.25985 0.72009 0.0
H311 H 0.54983 0.30036 0.70899 0.0
C312 C 0.2797 0.58777 0.70984 0.0
C313 C 0.2724 0.57419 0.7617 0.0
C314 C 0.32406 0.56813 0.75921 0.0
C315 C 0.33394 0.58684 0.71112 0.0
N316 N 0.32319 0.61711 0.64222 0.0
N317 N 0.28717 0.55171 0.83694 0.0
C318 C 0.31215 0.59715 0.68658 0.0
C319 C 0.29432 0.56408 0.78661 0.0
N320 N 0.25492 0.59047 0.68242 0.0
N321 N 0.34302 0.55403 0.77795 0.0
H322 H 0.26552 0.54866 0.85757 0.0
H323 H 0.30336 0.54616 0.85918 0.0
H324 H 0.36458 0.55636 0.75797 0.0
H325 H 0.33602 0.5379 0.81071 0.0
H326 H 0.25728 0.59746 0.64285 0.0
H327 H 0.23045 0.58201 0.69832 0.0
H328 H 0.31006 0.62862 0.62555 0.0
H329 H 0.34693 0.62422 0.62431 0.0
C330 C 0.7517 0.28372 0.89 0.0
C331 C 0.75197 0.30727 0.85241 0.0
C332 C 0.6887 0.277 0.85223 0.0
C333 C 0.6881 0.25221 0.88792 0.0
N334 N 0.71829 0.2297 0.93791 0.0
N335 N 0.72215 0.32359 0.7906 0.0
C336 C 0.7195 0.25476 0.90558 0.0
C337 C 0.72077 0.30286 0.83123 0.0
N338 N 0.78221 0.29027 0.91253 0.0
N339 N 0.65874 0.27657 0.83976 0.0
H340 H 0.74559 0.3428 0.77481 0.0
H341 H 0.70049 0.31983 0.76957 0.0
H342 H 0.63458 0.25732 0.85259 0.0
H343 H 0.65795 0.29653 0.81963 0.0
H344 H 0.78389 0.27649 0.94435 0.0
H345 H 0.80605 0.31101 0.90079 0.0
H346 H 0.73994 0.22786 0.94808 0.0
H347 H 0.6951 0.20966 0.95295 0.0
C348 C 0.47915 0.74579 0.03068 0.0
C349 C 0.47675 0.77016 0.06375 0.0
C350 C 0.47727 0.73803 0.14199 0.0
C351 C 0.47622 0.71196 0.10879 0.0
N352 N 0.47415 0.68898 0.02222 0.0
N353 N 0.47108 0.78907 0.15036 0.0
C354 C 0.47698 0.71545 0.05318 0.0
C355 C 0.47551 0.76638 0.11942 0.0
N356 N 0.48349 0.75197 0.97776 0.0
N357 N 0.47986 0.73533 0.1952 0.0
H358 H 0.47019 0.81034 0.13516 0.0
H359 H 0.46637 0.78596 0.19069 0.0
H360 H 0.4806 0.71438 0.21223 0.0
H361 H 0.4837 0.75465 0.22206 0.0
H362 H 0.48821 0.73692 0.95123 0.0
H363 H 0.48463 0.77388 0.96083 0.0
H364 H 0.47098 0.68791 0.98151 0.0
H365 H 0.47324 0.66688 0.03786 0.0
C366 C 0.75378 0.43408 0.20437 0.0
C367 C 0.7621 0.44881 0.25553 0.0
C368 C 0.71378 0.4599 0.25057 0.0
C369 C 0.70162 0.43892 0.20479 0.0
N370 N 0.7087 0.40367 0.13944 0.0
N371 N 0.74959 0.47488 0.32897 0.0
C372 C 0.72142 0.42556 0.18168 0.0
C373 C 0.7421 0.46177 0.27903 0.0
N374 N 0.77745 0.42942 0.17701 0.0
N375 N 0.69912 0.47915 0.26526 0.0
H376 H 0.77063 0.47695 0.35003 0.0
H377 H 0.73369 0.48152 0.35028 0.0
H378 H 0.67924 0.47908 0.24352 0.0
H379 H 0.70931 0.4978 0.29504 0.0
H380 H 0.77417 0.42153 0.1377 0.0
H381 H 0.80193 0.43726 0.19232 0.0
H382 H 0.72057 0.39039 0.12423 0.0
H383 H 0.68485 0.39672 0.12232 0.0
C384 C 0.17837 0.58031 0.63633 0.0
C385 C 0.1886 0.61533 0.64867 0.0
C386 C 0.19177 0.62778 0.55416 0.0
C387 C 0.18983 0.59561 0.54267 0.0
N388 N 0.1807 0.54046 0.57289 0.0
N389 N 0.20474 0.67277 0.61911 0.0
C390 C 0.18252 0.57141 0.58376 0.0
C391 C 0.19489 0.6391 0.60744 0.0
N392 N 0.16488 0.55568 0.67485 0.0
N393 N 0.18954 0.64703 0.51431 0.0
H394 H 0.20552 0.68139 0.65766 0.0
H395 H 0.21366 0.69228 0.5908 0.0
H396 H 0.18608 0.63889 0.47515 0.0
H397 H 0.18652 0.66846 0.52112 0.0
H398 H 0.15436 0.52926 0.66758 0.0
H399 H 0.16143 0.56146 0.71345 0.0
H400 H 0.17953 0.52343 0.60196 0.0
H401 H 0.18235 0.53277 0.5346 0.0
C402 C 0.60556 0.20286 0.74458 0.0
C403 C 0.59685 0.16884 0.72831 0.0
C404 C 0.55313 0.14528 0.79974 0.0
C405 C 0.55877 0.17899 0.8108 0.0
N406 N 0.58574 0.23911 0.78552 0.0
N407 N 0.55674 0.10704 0.73512 0.0
C408 C 0.5838 0.20758 0.78099 0.0
C409 C 0.56953 0.13978 0.75506 0.0
N410 N 0.63505 0.23081 0.72581 0.0
N411 N 0.53089 0.11816 0.83077 0.0
H412 H 0.56573 0.10153 0.70062 0.0
H413 H 0.53456 0.08549 0.74954 0.0
H414 H 0.51731 0.12114 0.86198 0.0
H415 H 0.52838 0.09362 0.82869 0.0
H416 H 0.64377 0.25617 0.73818 0.0
H417 H 0.65272 0.22831 0.70179 0.0
H418 H 0.59995 0.25956 0.75965 0.0
H419 H 0.57181 0.2443 0.81369 0.0
C420 C 0.39254 0.58401 0.94938 0.0
C421 C 0.41741 0.58296 0.98295 0.0
C422 C 0.46217 0.61194 0.91458 0.0
C423 C 0.43786 0.61495 0.88217 0.0
N424 N 0.38111 0.60887 0.87238 0.0
N425 N 0.4778 0.60457 1.00298 0.0
C426 C 0.40343 0.60263 0.90082 0.0
C427 C 0.45274 0.59914 0.96697 0.0
N428 N 0.35825 0.56604 0.96293 0.0
N429 N 0.49454 0.62171 0.89571 0.0
H430 H 0.47246 0.59757 0.04252 0.0
H431 H 0.50424 0.61952 0.99531 0.0
H432 H 0.5035 0.63351 0.85916 0.0
H433 H 0.51176 0.61602 0.9149 0.0
H434 H 0.33833 0.56273 0.93796 0.0
H435 H 0.34935 0.55196 0.99784 0.0
H436 H 0.35741 0.60462 0.88687 0.0
H437 H 0.38715 0.62055 0.83547 0.0
C438 C 0.84338 0.42308 0.12835 0.0
C439 C 0.82028 0.38792 0.14315 0.0
C440 C 0.8017 0.37449 0.05064 0.0
C441 C 0.81946 0.41048 0.0382 0.0
N442 N 0.85599 0.46958 0.06648 0.0
N443 N 0.77737 0.3299 0.11781 0.0
C444 C 0.84054 0.4349 0.07712 0.0
C445 C 0.79953 0.36359 0.10397 0.0
N446 N 0.86737 0.44558 0.16346 0.0
N447 N 0.78823 0.35055 0.01101 0.0
H448 H 0.77734 0.32017 0.1552 0.0
H449 H 0.75806 0.31202 0.09299 0.0
H450 H 0.79137 0.3576 0.97153 0.0
H451 H 0.7777 0.32398 0.01666 0.0
H452 H 0.88717 0.47023 0.15313 0.0
H453 H 0.86955 0.43891 0.20192 0.0
H454 H 0.86798 0.48884 0.095 0.0
H455 H 0.8545 0.47923 0.02979 0.0
C456 C 0.44136 0.86951 0.2466 0.0
C457 C 0.42031 0.8379 0.21925 0.0
C458 C 0.43281 0.80705 0.28881 0.0
C459 C 0.44958 0.83801 0.31941 0.0
N460 N 0.45984 0.89645 0.3319 0.0
N461 N 0.39129 0.77531 0.21954 0.0
C462 C 0.45109 0.86863 0.2996 0.0
C463 C 0.41476 0.80625 0.24175 0.0
N464 N 0.45362 0.90063 0.22153 0.0
N465 N 0.43503 0.77872 0.30354 0.0
H466 H 0.37688 0.77357 0.18616 0.0
H467 H 0.38364 0.75145 0.2372 0.0
H468 H 0.44878 0.7786 0.33666 0.0
H469 H 0.42626 0.75666 0.28004 0.0
H470 H 0.47164 0.92412 0.23871 0.0
H471 H 0.4493 0.90275 0.1817 0.0
H472 H 0.45831 0.91805 0.31999 0.0
H473 H 0.46423 0.89626 0.37217 0.0
C474 C 0.56205 0.39099 0.41184 0.0
C475 C 0.58511 0.40751 0.36918 0.0
C476 C 0.63042 0.44581 0.43175 0.0
C477 C 0.6078 0.42836 0.47431 0.0
N478 N 0.54881 0.39416 0.5039 0.0
N479 N 0.63634 0.45846 0.33826 0.0
C480 C 0.57246 0.40413 0.46399 0.0
C481 C 0.61771 0.43754 0.37903 0.0
N482 N 0.53052 0.36227 0.40278 0.0
N483 N 0.66436 0.46942 0.44157 0.0
H484 H 0.62804 0.45304 0.29925 0.0
H485 H 0.65782 0.48298 0.34406 0.0
H486 H 0.67394 0.47707 0.47972 0.0
H487 H 0.68313 0.48004 0.41211 0.0
H488 H 0.51435 0.34664 0.43286 0.0
H489 H 0.52136 0.3531 0.36491 0.0
H490 H 0.52219 0.37882 0.49814 0.0
H491 H 0.55576 0.40385 0.54211 0.0
C492 C 0.99253 0.46944 0.39143 0.0
C493 C 0.97189 0.45746 0.34518 0.0
C494 C 0.02427 0.49305 0.29251 0.0
C495 C 0.04542 0.49986 0.33778 0.0
N496 N 0.04887 0.48814 0.42976 0.0
N497 N 0.97007 0.45305 0.25024 0.0
C498 C 0.02937 0.48658 0.38732 0.0
C499 C 0.98821 0.46819 0.29518 0.0
N500 N 0.9769 0.46496 0.43933 0.0
N501 N 0.03867 0.51071 0.247 0.0
H502 H 0.94441 0.43299 0.2505 0.0
H503 H 0.98165 0.45772 0.21317 0.0
H504 H 0.0647 0.52993 0.24458 0.0
H505 H 0.02404 0.50898 0.21394 0.0
H506 H 0.9907 0.47572 0.474 0.0
H507 H 0.95011 0.45388 0.44331 0.0
H508 H 0.03801 0.47586 0.46538 0.0
H509 H 0.07557 0.49836 0.42779 0.0
C510 C 0.52754 0.9794 0.56734 0.0
C511 C 0.52467 0.96339 0.51774 0.0
C512 C 0.55413 0.021 0.47621 0.0
C513 C 0.56176 0.03694 0.52667 0.0
N514 N 0.55756 0.03152 0.62099 0.0
N515 N 0.53666 0.96859 0.42485 0.0
C516 C 0.54845 0.0162 0.5725 0.0
C517 C 0.53788 0.98411 0.47191 0.0
N518 N 0.5101 0.95907 0.60943 0.0
N519 N 0.56248 0.04144 0.43249 0.0
H520 H 0.52493 0.94175 0.42061 0.0
H521 H 0.54908 0.98224 0.39087 0.0
H522 H 0.57403 0.06839 0.43507 0.0
H523 H 0.55523 0.03172 0.39442 0.0
H524 H 0.50845 0.9689 0.64594 0.0
H525 H 0.49457 0.93218 0.6061 0.0
H526 H 0.55188 0.0177 0.65612 0.0
H527 H 0.57294 0.05826 0.62598 0.0
C528 C 0.56846 0.5777 0.69387 0.0
C529 C 0.53337 0.56357 0.67849 0.0
C530 C 0.52694 0.50537 0.67359 0.0
C531 C 0.56245 0.51975 0.68662 0.0
N532 N 0.61803 0.56912 0.70522 0.0
N533 N 0.47974 0.51532 0.64902 0.0
C534 C 0.5835 0.55588 0.69572 0.0
C535 C 0.51273 0.52769 0.66712 0.0
N536 N 0.58703 0.61197 0.70743 0.0
N537 N 0.5068 0.47021 0.66863 0.0
H538 H 0.46865 0.53105 0.64535 0.0
H539 H 0.46398 0.49019 0.63511 0.0
H540 H 0.5169 0.45358 0.67196 0.0
H541 H 0.48002 0.45726 0.66403 0.0
H542 H 0.61191 0.62389 0.72311 0.0
H543 H 0.57655 0.62834 0.70557 0.0
H544 H 0.6359 0.59547 0.70817 0.0
H545 H 0.62928 0.55345 0.70733 0.0
C546 C 0.03154 0.56771 0.86739 0.0
C547 C 0.04889 0.54885 0.85753 0.0
C548 C 0.99291 0.49613 0.8403 0.0
C549 C 0.97573 0.51542 0.8477 0.0
N550 N 0.97775 0.56948 0.86429 0.0
N551 N 0.04759 0.49632 0.83186 0.0
C552 C 0.99486 0.55124 0.86031 0.0
C553 C 0.02989 0.51328 0.8433 0.0
N554 N 0.05034 0.60125 0.8845 0.0
N555 N 0.97352 0.46131 0.8308 0.0
H556 H 0.07452 0.50835 0.8346 0.0
H557 H 0.03618 0.4711 0.81736 0.0
H558 H 0.94657 0.44856 0.82753 0.0
H559 H 0.98352 0.44464 0.82868 0.0
H560 H 0.03949 0.61599 0.89718 0.0
H561 H 0.07724 0.61398 0.88848 0.0
H562 H 0.98996 0.59629 0.86842 0.0
H563 H 0.95085 0.55764 0.86105 0.0
C564 C 0.46809 0.02293 0.96555 0.0
C565 C 0.49368 0.04452 1.00267 0.0
C566 C 0.4848 0.99271 0.05099 0.0
C567 C 0.45915 0.97114 0.01398 0.0
N568 N 0.43122 0.96465 0.93078 0.0
N569 N 0.53176 0.05046 0.07351 0.0
C570 C 0.45255 0.98607 0.96936 0.0
C571 C 0.50379 0.0294 0.04299 0.0
N572 N 0.45725 0.03769 0.92862 0.0
N573 N 0.48952 0.97823 0.0953 0.0
H574 H 0.54594 0.07727 0.06792 0.0
H575 H 0.54265 0.04131 0.10088 0.0
H576 H 0.47612 0.95155 0.10198 0.0
H577 H 0.50501 0.99261 0.12682 0.0
H578 H 0.43619 0.02357 0.90378 0.0
H579 H 0.46814 0.06447 0.92495 0.0
H580 H 0.42727 0.9734 0.89489 0.0
H581 H 0.4197 0.9377 0.93319 0.0
C582 C 0.49498 0.50983 0.18419 0.0
C583 C 0.45975 0.49444 0.16877 0.0
C584 C 0.45978 0.44073 0.14532 0.0
C585 C 0.49557 0.45677 0.15757 0.0
N586 N 0.54877 0.50822 0.18037 0.0
N587 N 0.41039 0.44798 0.12564 0.0
C588 C 0.51362 0.49185 0.17477 0.0
C589 C 0.4427 0.46062 0.14666 0.0
N590 N 0.51017 0.54113 0.20944 0.0
N591 N 0.44187 0.40603 0.13438 0.0
H592 H 0.39767 0.46232 0.12529 0.0
H593 H 0.39762 0.42488 0.10442 0.0
H594 H 0.45357 0.39074 0.13426 0.0
H595 H 0.41505 0.39185 0.13007 0.0
H596 H 0.53462 0.55236 0.22664 0.0
H597 H 0.49713 0.55479 0.21636 0.0
H598 H 0.56411 0.53467 0.18788 0.0
H599 H 0.56295 0.49574 0.17329 0.0
C600 C 0.27834 0.59016 0.24978 0.0
C601 C 0.26826 0.57509 0.30085 0.0
C602 C 0.30377 0.54717 0.28843 0.0
C603 C 0.31303 0.56141 0.23677 0.0
N604 N 0.30425 0.59128 0.16475 0.0
N605 N 0.26707 0.53525 0.36583 0.0
C606 C 0.29904 0.58159 0.21659 0.0
C607 C 0.27953 0.55219 0.31907 0.0
N608 N 0.26818 0.61291 0.23295 0.0
N609 N 0.31955 0.53028 0.30927 0.0
H610 H 0.25051 0.53935 0.39009 0.0
H611 H 0.27103 0.51535 0.37896 0.0
H612 H 0.33737 0.52621 0.28834 0.0
H613 H 0.31718 0.52261 0.34847 0.0
H614 H 0.27837 0.62854 0.19981 0.0
H615 H 0.25049 0.61742 0.25347 0.0
H616 H 0.29174 0.60259 0.14557 0.0
H617 H 0.31912 0.58551 0.1393 0.0
C618 C 0.76491 0.27666 0.43338 0.0
C619 C 0.75916 0.29556 0.39312 0.0
C620 C 0.69839 0.26924 0.42296 0.0
C621 C 0.70282 0.24649 0.45729 0.0
N622 N 0.74013 0.22609 0.4904 0.0
N623 N 0.71801 0.30504 0.34461 0.0
C624 C 0.73612 0.2497 0.4615 0.0
C625 C 0.72528 0.29074 0.38683 0.0
N626 N 0.79803 0.28532 0.44633 0.0
N627 N 0.66868 0.27104 0.42582 0.0
H628 H 0.73631 0.31983 0.31608 0.0
H629 H 0.69297 0.2993 0.33491 0.0
H630 H 0.64895 0.25663 0.45281 0.0
H631 H 0.66528 0.2895 0.40567 0.0
H632 H 0.80407 0.27497 0.47869 0.0
H633 H 0.81974 0.3055 0.42819 0.0
H634 H 0.76272 0.22454 0.48991 0.0
H635 H 0.71998 0.20622 0.51166 0.0
C636 C 0.4933 0.72118 0.59792 0.0
C637 C 0.47695 0.71213 0.648 0.0
C638 C 0.43243 0.72507 0.6155 0.0
C639 C 0.45207 0.73952 0.56863 0.0
N640 N 0.5007 0.7504 0.5139 0.0
N641 N 0.43154 0.70627 0.70574 0.0
C642 C 0.48222 0.73696 0.55927 0.0
C643 C 0.44619 0.71356 0.6567 0.0
N644 N 0.51971 0.71473 0.58779 0.0
N645 N 0.40087 0.7229 0.62115 0.0
H646 H 0.44056 0.69706 0.73605 0.0
H647 H 0.41173 0.71085 0.71726 0.0
H648 H 0.39082 0.73287 0.59365 0.0
H649 H 0.38354 0.70909 0.65127 0.0
H650 H 0.5313 0.71783 0.55105 0.0
H651 H 0.52807 0.7033 0.61567 0.0
H652 H 0.52494 0.75307 0.50683 0.0
H653 H 0.49241 0.76042 0.48376 0.0
C654 C 0.72711 0.45928 0.82929 0.0
C655 C 0.75343 0.45456 0.8059 0.0
C656 C 0.73426 0.46241 0.71804 0.0
C657 C 0.70541 0.46293 0.74129 0.0
N658 N 0.67121 0.45543 0.81937 0.0
N659 N 0.77964 0.44752 0.72707 0.0
C660 C 0.70115 0.45991 0.79708 0.0
C661 C 0.75653 0.45528 0.74996 0.0
N662 N 0.72721 0.46366 0.88264 0.0
N663 N 0.741 0.4697 0.66564 0.0
H664 H 0.7967 0.44278 0.74877 0.0
H665 H 0.78029 0.44341 0.68676 0.0
H666 H 0.72538 0.47498 0.64125 0.0
H667 H 0.76356 0.47342 0.64737 0.0
H668 H 0.71102 0.47083 0.90178 0.0
H669 H 0.74595 0.46357 0.90719 0.0
H670 H 0.66496 0.44932 0.85895 0.0
H671 H 0.65085 0.45417 0.79749 0.0
C672 C 0.29571 0.73571 0.97189 0.0
C673 C 0.31915 0.76882 0.95026 0.0
C674 C 0.28992 0.74851 0.86437 0.0
C675 C 0.26979 0.71419 0.88393 0.0
N676 N 0.25848 0.67412 0.95546 0.0
N677 N 0.34342 0.8032 0.87159 0.0
C678 C 0.27387 0.70749 0.9376 0.0
C679 C 0.3175 0.77428 0.89532 0.0
N680 N 0.29335 0.73132 0.02529 0.0
N681 N 0.28219 0.75688 0.81646 0.0
H682 H 0.36541 0.82165 0.89156 0.0
H683 H 0.34513 0.80673 0.83088 0.0
H684 H 0.26145 0.73914 0.79346 0.0
H685 H 0.29385 0.78226 0.80249 0.0
H686 H 0.27429 0.70886 0.04346 0.0
H687 H 0.30823 0.75131 0.05165 0.0
H688 H 0.26369 0.66753 0.99233 0.0
H689 H 0.24299 0.65267 0.93188 0.0
C690 C 0.57805 0.29819 0.12909 0.0
C691 C 0.55188 0.30751 0.12603 0.0
C692 C 0.53557 0.28034 0.03796 0.0
C693 C 0.56117 0.27005 0.04139 0.0
N694 N 0.61215 0.27657 0.08474 0.0
N695 N 0.51219 0.31561 0.07291 0.0
C696 C 0.58411 0.28132 0.08535 0.0
C697 C 0.53307 0.30149 0.07853 0.0
N698 N 0.59618 0.30432 0.175 0.0
N699 N 0.51197 0.2679 0.9978 0.0
H700 H 0.50992 0.33074 0.10247 0.0
H701 H 0.49998 0.31525 0.03779 0.0
H702 H 0.512 0.25155 0.96833 0.0
H703 H 0.4905 0.27129 0.99592 0.0
H704 H 0.61261 0.29458 0.18315 0.0
H705 H 0.59367 0.31847 0.20592 0.0
H706 H 0.63175 0.28696 0.11289 0.0
H707 H 0.61732 0.26451 0.05353 0.0
loop_
_geom_bond_atom_site_label_1
_geom_bond_atom_site_label_2
_geom_bond_distance
_geom_bond_site_symmetry_2
_ccdc_geom_bond_type
Cu0 N1 1.999 . S
Cu0 O6 1.974 . S
Cu0 N11 1.985 . S
Cu0 O20 1.959 . S
N1 Cu0 1.999 . S
N1 C3 1.263 . S
N1 C5 1.389 . S
N2 C3 1.358 . S
N2 C4 1.400 . S
C3 N1 1.263 . S
C3 N2 1.358 . S
C3 H9 0.930 . S
C4 N2 1.400 . S
C4 C5 1.351 . S
C4 H21 0.930 . S
C5 N1 1.389 . S
C5 C4 1.351 . S
C5 H10 0.930 . S
O6 Cu0 1.974 . S
O6 C16 1.282 . S
C7 O8 1.261 . S
C7 O20 1.251 . S
O8 C7 1.261 . S
H9 C3 0.930 . S
H10 C5 0.930 . S
N11 Cu0 1.985 . S
N11 C13 1.335 . S
N11 C14 1.390 . S
N12 C13 1.345 . S
N12 C15 1.336 . S
C13 N11 1.335 . S
C13 N12 1.345 . S
C13 H18 0.930 . S
C14 N11 1.390 . S
C14 C15 1.346 . S
C14 H19 0.930 . S
C15 N12 1.336 . S
C15 C14 1.346 . S
C15 H22 0.929 . S
C16 O6 1.282 . S
C16 O17 1.216 . S
O17 C16 1.216 . S
H18 C13 0.930 . S
H19 C14 0.930 . S
O20 Cu0 1.959 . S
O20 C7 1.251 . S
H21 C4 0.930 . S
H22 C15 0.929 . S
Cu23 N24 1.999 . S
Cu23 O29 1.974 . S
Cu23 N34 1.985 . S
Cu23 O43 1.959 . S
N24 Cu23 1.999 . S
N24 C26 1.263 . S
N24 C28 1.389 . S
N25 C26 1.358 . S
N25 C27 1.400 . S
C26 N24 1.263 . S
C26 N25 1.358 . S
C26 H32 0.930 . S
C27 N25 1.400 . S
C27 C28 1.351 . S
C27 H44 0.930 . S
C28 N24 1.389 . S
C28 C27 1.351 . S
C28 H33 0.930 . S
O29 Cu23 1.974 . S
O29 C39 1.282 . S
C30 O31 1.261 . S
C30 O43 1.251 . S
O31 C30 1.261 . S
H32 C26 0.930 . S
H33 C28 0.930 . S
N34 Cu23 1.985 . S
N34 C36 1.335 . S
N34 C37 1.390 . S
N35 C36 1.345 . S
N35 C38 1.336 . S
C36 N34 1.335 . S
C36 N35 1.345 . S
C36 H41 0.930 . S
C37 N34 1.390 . S
C37 C38 1.346 . S
C37 H42 0.930 . S
C38 N35 1.336 . S
C38 C37 1.346 . S
C38 H45 0.929 . S
C39 O29 1.282 . S
C39 O40 1.216 . S
O40 C39 1.216 . S
H41 C36 0.930 . S
H42 C37 0.930 . S
O43 Cu23 1.959 . S
O43 C30 1.251 . S
H44 C27 0.930 . S
H45 C38 0.929 . S
Cu46 N47 1.999 . S
Cu46 O52 1.974 . S
Cu46 N57 1.985 . S
Cu46 O66 1.959 . S
N47 Cu46 1.999 . S
N47 C49 1.263 . S
N47 C51 1.389 . S
N48 C49 1.358 . S
N48 C50 1.400 . S
C49 N47 1.263 . S
C49 N48 1.358 . S
C49 H55 0.930 . S
C50 N48 1.400 . S
C50 C51 1.351 . S
C50 H67 0.930 . S
C51 N47 1.389 . S
C51 C50 1.351 . S
C51 H56 0.930 . S
O52 Cu46 1.974 . S
O52 C62 1.282 . S
C53 O54 1.261 . S
C53 O66 1.251 . S
O54 C53 1.261 . S
H55 C49 0.930 . S
H56 C51 0.930 . S
N57 Cu46 1.985 . S
N57 C59 1.335 . S
N57 C60 1.390 . S
N58 C59 1.345 . S
N58 C61 1.336 . S
C59 N57 1.335 . S
C59 N58 1.345 . S
C59 H64 0.930 . S
C60 N57 1.390 . S
C60 C61 1.346 . S
C60 H65 0.930 . S
C61 N58 1.336 . S
C61 C60 1.346 . S
C61 H68 0.929 . S
C62 O52 1.282 . S
C62 O63 1.216 . S
O63 C62 1.216 . S
H64 C59 0.930 . S
H65 C60 0.930 . S
O66 Cu46 1.959 . S
O66 C53 1.251 . S
H67 C50 0.930 . S
H68 C61 0.929 . S
Cu69 N70 1.999 . S
Cu69 O75 1.974 . S
Cu69 N80 1.985 . S
Cu69 O89 1.959 . S
N70 Cu69 1.999 . S
N70 C72 1.263 . S
N70 C74 1.389 . S
N71 C72 1.358 . S
N71 C73 1.400 . S
C72 N70 1.263 . S
C72 N71 1.358 . S
C72 H78 0.930 . S
C73 N71 1.400 . S
C73 C74 1.351 . S
C73 H90 0.930 . S
C74 N70 1.389 . S
C74 C73 1.351 . S
C74 H79 0.930 . S
O75 Cu69 1.974 . S
O75 C85 1.282 . S
C76 O77 1.262 . S
C76 O89 1.246 1_554 S
O77 C76 1.262 . S
H78 C72 0.930 . S
H79 C74 0.930 . S
N80 Cu69 1.985 . S
N80 C82 1.335 . S
N80 C83 1.390 . S
N81 C82 1.345 . S
N81 C84 1.336 . S
C82 N80 1.335 . S
C82 N81 1.345 . S
C82 H87 0.930 . S
C83 N80 1.390 . S
C83 C84 1.346 . S
C83 H88 0.930 . S
C84 N81 1.336 . S
C84 C83 1.346 . S
C84 H91 0.929 . S
C85 O75 1.282 . S
C85 O86 1.216 . S
O86 C85 1.216 . S
H87 C82 0.930 . S
H88 C83 0.930 . S
O89 Cu69 1.959 . S
O89 C76 1.246 1_556 S
H90 C73 0.930 . S
H91 C84 0.929 . S
Cu92 N93 1.999 . S
Cu92 O98 1.974 . S
Cu92 N103 1.985 . S
Cu92 O112 1.959 . S
N93 Cu92 1.999 . S
N93 C95 1.263 . S
N93 C97 1.389 . S
N94 C95 1.358 . S
N94 C96 1.400 . S
C95 N93 1.263 . S
C95 N94 1.358 . S
C95 H101 0.930 . S
C96 N94 1.400 . S
C96 C97 1.351 . S
C96 H113 0.930 . S
C97 N93 1.389 . S
C97 C96 1.351 . S
C97 H102 0.930 . S
O98 Cu92 1.974 . S
O98 C108 1.282 . S
C99 O100 1.261 . S
C99 O112 1.251 . S
O100 C99 1.261 . S
H101 C95 0.930 . S
H102 C97 0.930 . S
N103 Cu92 1.985 . S
N103 C105 1.335 . S
N103 C106 1.390 . S
N104 C105 1.345 . S
N104 C107 1.336 . S
C105 N103 1.335 . S
C105 N104 1.345 . S
C105 H110 0.930 . S
C106 N103 1.390 . S
C106 C107 1.346 . S
C106 H111 0.930 . S
C107 N104 1.336 . S
C107 C106 1.346 . S
C107 H114 0.929 . S
C108 O98 1.282 . S
C108 O109 1.216 . S
O109 C108 1.216 . S
H110 C105 0.930 . S
H111 C106 0.930 . S
O112 Cu92 1.959 . S
O112 C99 1.251 . S
H113 C96 0.930 . S
H114 C107 0.929 . S
Cu115 N116 1.999 . S
Cu115 O121 1.974 . S
Cu115 N126 1.985 . S
Cu115 O135 1.959 . S
N116 Cu115 1.999 . S
N116 C118 1.263 . S
N116 C120 1.389 . S
N117 C118 1.358 . S
N117 C119 1.400 . S
C118 N116 1.263 . S
C118 N117 1.358 . S
C118 H124 0.930 . S
C119 N117 1.400 . S
C119 C120 1.351 . S
C119 H136 0.930 . S
C120 N116 1.389 . S
C120 C119 1.351 . S
C120 H125 0.930 . S
O121 Cu115 1.974 . S
O121 C131 1.282 . S
C122 O123 1.261 . S
C122 O135 1.251 . S
O123 C122 1.261 . S
H124 C118 0.930 . S
H125 C120 0.930 . S
N126 Cu115 1.985 . S
N126 C128 1.335 . S
N126 C129 1.390 . S
N127 C128 1.345 . S
N127 C130 1.336 . S
C128 N126 1.335 . S
C128 N127 1.345 . S
C128 H133 0.930 . S
C129 N126 1.390 . S
C129 C130 1.346 . S
C129 H134 0.930 . S
C130 N127 1.336 . S
C130 C129 1.346 . S
C130 H137 0.929 . S
C131 O121 1.282 . S
C131 O132 1.216 . S
O132 C131 1.216 . S
H133 C128 0.930 . S
H134 C129 0.930 . S
O135 Cu115 1.959 . S
O135 C122 1.251 . S
H136 C119 0.930 . S
H137 C130 0.929 . S
Cu138 N139 1.999 . S
Cu138 O144 1.974 . S
Cu138 N149 1.985 . S
Cu138 O158 1.959 . S
N139 Cu138 1.999 . S
N139 C141 1.263 . S
N139 C143 1.389 . S
N140 C141 1.358 . S
N140 C142 1.400 . S
C141 N139 1.263 . S
C141 N140 1.358 . S
C141 H147 0.930 . S
C142 N140 1.400 . S
C142 C143 1.351 . S
C142 H159 0.930 . S
C143 N139 1.389 . S
C143 C142 1.351 . S
C143 H148 0.930 . S
O144 Cu138 1.974 . S
O144 C154 1.282 . S
C145 O146 1.261 . S
C145 O158 1.251 . S
O146 C145 1.261 . S
H147 C141 0.930 . S
H148 C143 0.930 . S
N149 Cu138 1.985 . S
N149 C151 1.335 . S
N149 C152 1.390 . S
N150 C151 1.345 . S
N150 C153 1.336 . S
C151 N149 1.335 . S
C151 N150 1.345 . S
C151 H156 0.930 . S
C152 N149 1.390 . S
C152 C153 1.346 . S
C152 H157 0.930 . S
C153 N150 1.336 . S
C153 C152 1.346 . S
C153 H160 0.929 . S
C154 O144 1.282 . S
C154 O155 1.216 . S
O155 C154 1.216 . S
H156 C151 0.930 . S
H157 C152 0.930 . S
O158 Cu138 1.959 . S
O158 C145 1.251 . S
H159 C142 0.930 . S
H160 C153 0.929 . S
Cu161 N162 1.999 . S
Cu161 O167 1.974 . S
Cu161 N172 1.985 . S
Cu161 O181 1.959 . S
N162 Cu161 1.999 . S
N162 C164 1.263 . S
N162 C166 1.389 . S
N163 C164 1.358 . S
N163 C165 1.400 . S
C164 N162 1.263 . S
C164 N163 1.358 . S
C164 H170 0.930 . S
C165 N163 1.400 . S
C165 C166 1.351 . S
C165 H182 0.930 . S
C166 N162 1.389 . S
C166 C165 1.351 . S
C166 H171 0.930 . S
O167 Cu161 1.974 . S
O167 C177 1.282 . S
C168 O169 1.261 . S
C168 O181 1.251 . S
O169 C168 1.261 . S
H170 C164 0.930 . S
H171 C166 0.930 . S
N172 Cu161 1.985 . S
N172 C174 1.335 . S
N172 C175 1.390 . S
N173 C174 1.345 . S
N173 C176 1.336 . S
C174 N172 1.335 . S
C174 N173 1.345 . S
C174 H179 0.930 . S
C175 N172 1.390 . S
C175 C176 1.346 . S
C175 H180 0.930 . S
C176 N173 1.336 . S
C176 C175 1.346 . S
C176 H183 0.929 . S
C177 O167 1.282 . S
C177 O178 1.216 . S
O178 C177 1.216 . S
H179 C174 0.930 . S
H180 C175 0.930 . S
O181 Cu161 1.959 . S
O181 C168 1.251 . S
H182 C165 0.930 . S
H183 C176 0.929 . S
Cu184 N185 1.999 . S
Cu184 O190 1.974 . S
Cu184 N195 1.985 . S
Cu184 O204 1.959 . S
N185 Cu184 1.999 . S
N185 C187 1.263 . S
N185 C189 1.389 . S
N186 C187 1.358 . S
N186 C188 1.400 . S
C187 N185 1.263 . S
C187 N186 1.358 . S
C187 H193 0.930 . S
C188 N186 1.400 . S
C188 C189 1.351 . S
C188 H205 0.930 . S
C189 N185 1.389 . S
C189 C188 1.351 . S
C189 H194 0.930 . S
O190 Cu184 1.974 . S
O190 C200 1.282 . S
C191 O192 1.261 . S
C191 O204 1.251 . S
O192 C191 1.261 . S
H193 C187 0.930 . S
H194 C189 0.930 . S
N195 Cu184 1.985 . S
N195 C197 1.335 . S
N195 C198 1.390 . S
N196 C197 1.345 . S
N196 C199 1.336 . S
C197 N195 1.335 . S
C197 N196 1.345 . S
C197 H202 0.930 . S
C198 N195 1.390 . S
C198 C199 1.346 . S
C198 H203 0.930 . S
C199 N196 1.336 . S
C199 C198 1.346 . S
C199 H206 0.929 . S
C200 O190 1.282 . S
C200 O201 1.216 . S
O201 C200 1.216 . S
H202 C197 0.930 . S
H203 C198 0.930 . S
O204 Cu184 1.959 . S
O204 C191 1.251 . S
H205 C188 0.930 . S
H206 C199 0.929 . S
Cu207 N208 1.999 . S
Cu207 O213 1.974 . S
Cu207 N218 1.985 . S
Cu207 O227 1.959 . S
N208 Cu207 1.999 . S
N208 C210 1.263 . S
N208 C212 1.389 . S
N209 C210 1.358 . S
N209 C211 1.400 . S
C210 N208 1.263 . S
C210 N209 1.358 . S
C210 H216 0.930 . S
C211 N209 1.400 . S
C211 C212 1.351 . S
C211 H228 0.930 . S
C212 N208 1.389 . S
C212 C211 1.351 . S
C212 H217 0.930 . S
O213 Cu207 1.974 . S
O213 C223 1.282 . S
C214 O215 1.261 . S
C214 O227 1.251 . S
O215 C214 1.261 . S
H216 C210 0.930 . S
H217 C212 0.930 . S
N218 Cu207 1.985 . S
N218 C220 1.335 . S
N218 C221 1.390 . S
N219 C220 1.345 . S
N219 C222 1.336 . S
C220 N218 1.335 . S
C220 N219 1.345 . S
C220 H225 0.930 . S
C221 N218 1.390 . S
C221 C222 1.346 . S
C221 H226 0.930 . S
C222 N219 1.336 . S
C222 C221 1.346 . S
C222 H229 0.929 . S
C223 O213 1.282 . S
C223 O224 1.216 . S
O224 C223 1.216 . S
H225 C220 0.930 . S
H226 C221 0.930 . S
O227 Cu207 1.959 . S
O227 C214 1.251 . S
H228 C211 0.930 . S
H229 C222 0.929 . S
Cu230 N231 1.999 . S
Cu230 O236 1.974 . S
Cu230 N241 1.985 . S
Cu230 O250 1.959 . S
N231 Cu230 1.999 . S
N231 C233 1.263 . S
N231 C235 1.389 . S
N232 C233 1.358 . S
N232 C234 1.400 . S
C233 N231 1.263 . S
C233 N232 1.358 . S
C233 H239 0.930 . S
C234 N232 1.400 . S
C234 C235 1.351 . S
C234 H251 0.930 . S
C235 N231 1.389 . S
C235 C234 1.351 . S
C235 H240 0.930 . S
O236 Cu230 1.974 . S
O236 C246 1.282 . S
C237 O238 1.262 . S
C237 O250 1.245 1_556 S
O238 C237 1.262 . S
H239 C233 0.930 . S
H240 C235 0.930 . S
N241 Cu230 1.985 . S
N241 C243 1.335 . S
N241 C244 1.390 . S
N242 C243 1.345 . S
N242 C245 1.336 . S
C243 N241 1.335 . S
C243 N242 1.345 . S
C243 H248 0.930 . S
C244 N241 1.390 . S
C244 C245 1.346 . S
C244 H249 0.930 . S
C245 N242 1.336 . S
C245 C244 1.346 . S
C245 H252 0.929 . S
C246 O236 1.282 . S
C246 O247 1.216 . S
O247 C246 1.216 . S
H248 C243 0.930 . S
H249 C244 0.930 . S
O250 Cu230 1.959 . S
O250 C237 1.245 1_554 S
H251 C234 0.930 . S
H252 C245 0.929 . S
Cu253 N254 1.999 . S
Cu253 O259 1.974 . S
Cu253 N264 1.985 . S
Cu253 O273 1.959 . S
N254 Cu253 1.999 . S
N254 C256 1.263 . S
N254 C258 1.389 . S
N255 C256 1.358 . S
N255 C257 1.400 . S
C256 N254 1.263 . S
C256 N255 1.358 . S
C256 H262 0.930 . S
C257 N255 1.400 . S
C257 C258 1.351 . S
C257 H274 0.930 . S
C258 N254 1.389 . S
C258 C257 1.351 . S
C258 H263 0.930 . S
O259 Cu253 1.974 . S
O259 C269 1.282 . S
C260 O261 1.261 . S
C260 O273 1.251 . S
O261 C260 1.261 . S
H262 C256 0.930 . S
H263 C258 0.930 . S
N264 Cu253 1.985 . S
N264 C266 1.335 . S
N264 C267 1.390 . S
N265 C266 1.345 . S
N265 C268 1.336 . S
C266 N264 1.335 . S
C266 N265 1.345 . S
C266 H271 0.930 . S
C267 N264 1.390 . S
C267 C268 1.346 . S
C267 H272 0.930 . S
C268 N265 1.336 . S
C268 C267 1.346 . S
C268 H275 0.929 . S
C269 O259 1.282 . S
C269 O270 1.216 . S
O270 C269 1.216 . S
H271 C266 0.930 . S
H272 C267 0.930 . S
O273 Cu253 1.959 . S
O273 C260 1.251 . S
H274 C257 0.930 . S
H275 C268 0.929 . S
C276 C277 1.363 . S
C276 C282 1.379 . S
C276 N284 1.356 . S
C277 C276 1.363 . S
C277 C283 1.363 . S
C278 C279 1.363 . S
C278 C283 1.379 . S
C278 N285 1.356 . S
C279 C278 1.363 . S
C279 C282 1.363 . S
N280 C282 1.356 . S
N280 H292 0.984 . S
N280 H293 0.985 . S
N281 C283 1.356 . S
N281 H286 0.984 . S
N281 H287 0.985 . S
C282 C276 1.379 . S
C282 C279 1.363 . S
C282 N280 1.356 . S
C283 C277 1.363 . S
C283 C278 1.379 . S
C283 N281 1.356 . S
N284 C276 1.356 . S
N284 H290 0.984 . S
N284 H291 0.984 . S
N285 C278 1.356 . S
N285 H288 0.984 . S
N285 H289 0.985 . S
H286 N281 0.984 . S
H287 N281 0.985 . S
H288 N285 0.984 . S
H289 N285 0.985 . S
H290 N284 0.984 . S
H291 N284 0.984 . S
H292 N280 0.984 . S
H293 N280 0.985 . S
C294 C295 1.363 . S
C294 C300 1.379 . S
C294 N302 1.356 . S
C295 C294 1.363 . S
C295 C301 1.363 . S
C296 C297 1.363 . S
C296 C301 1.379 . S
C296 N303 1.356 . S
C297 C296 1.363 . S
C297 C300 1.363 . S
N298 C300 1.356 . S
N298 H310 0.984 . S
N298 H311 0.985 . S
N299 C301 1.356 . S
N299 H304 0.984 . S
N299 H305 0.985 . S
C300 C294 1.379 . S
C300 C297 1.363 . S
C300 N298 1.356 . S
C301 C295 1.363 . S
C301 C296 1.379 . S
C301 N299 1.356 . S
N302 C294 1.356 . S
N302 H308 0.984 . S
N302 H309 0.984 . S
N303 C296 1.356 . S
N303 H306 0.984 . S
N303 H307 0.985 . S
H304 N299 0.984 . S
H305 N299 0.985 . S
H306 N303 0.984 . S
H307 N303 0.985 . S
H308 N302 0.984 . S
H309 N302 0.984 . S
H310 N298 0.984 . S
H311 N298 0.985 . S
C312 C313 1.363 . S
C312 C318 1.379 . S
C312 N320 1.356 . S
C313 C312 1.363 . S
C313 C319 1.363 . S
C314 C315 1.363 . S
C314 C319 1.379 . S
C314 N321 1.356 . S
C315 C314 1.363 . S
C315 C318 1.363 . S
N316 C318 1.356 . S
N316 H328 0.984 . S
N316 H329 0.985 . S
N317 C319 1.356 . S
N317 H322 0.984 . S
N317 H323 0.985 . S
C318 C312 1.379 . S
C318 C315 1.363 . S
C318 N316 1.356 . S
C319 C313 1.363 . S
C319 C314 1.379 . S
C319 N317 1.356 . S
N320 C312 1.356 . S
N320 H326 0.984 . S
N320 H327 0.984 . S
N321 C314 1.356 . S
N321 H324 0.984 . S
N321 H325 0.985 . S
H322 N317 0.984 . S
H323 N317 0.985 . S
H324 N321 0.984 . S
H325 N321 0.985 . S
H326 N320 0.984 . S
H327 N320 0.984 . S
H328 N316 0.984 . S
H329 N316 0.985 . S
C330 C331 1.363 . S
C330 C336 1.379 . S
C330 N338 1.356 . S
C331 C330 1.363 . S
C331 C337 1.363 . S
C332 C333 1.363 . S
C332 C337 1.379 . S
C332 N339 1.356 . S
C333 C332 1.363 . S
C333 C336 1.363 . S
N334 C336 1.356 . S
N334 H346 0.984 1_556 S
N334 H347 0.985 . S
N335 C337 1.356 . S
N335 H340 0.984 . S
N335 H341 0.985 . S
C336 C330 1.379 . S
C336 C333 1.363 . S
C336 N334 1.356 . S
C337 C331 1.363 . S
C337 C332 1.379 . S
C337 N335 1.356 . S
N338 C330 1.356 . S
N338 H344 0.984 1_556 S
N338 H345 0.984 . S
N339 C332 1.356 . S
N339 H342 0.984 . S
N339 H343 0.985 . S
H340 N335 0.984 . S
H341 N335 0.985 . S
H342 N339 0.984 . S
H343 N339 0.985 . S
H344 N338 0.984 1_554 S
H345 N338 0.984 . S
H346 N334 0.984 1_554 S
H347 N334 0.985 . S
C348 C349 1.363 . S
C348 C354 1.379 . S
C348 N356 1.356 . S
C349 C348 1.363 . S
C349 C355 1.363 . S
C350 C351 1.363 . S
C350 C355 1.379 . S
C350 N357 1.356 . S
C351 C350 1.363 . S
C351 C354 1.363 . S
N352 C354 1.356 . S
N352 H364 0.984 1_554 S
N352 H365 0.985 . S
N353 C355 1.356 . S
N353 H358 0.984 . S
N353 H359 0.985 . S
C354 C348 1.379 . S
C354 C351 1.363 . S
C354 N352 1.356 . S
C355 C349 1.363 . S
C355 C350 1.379 . S
C355 N353 1.356 . S
N356 C348 1.356 . S
N356 H362 0.984 1_554 S
N356 H363 0.984 . S
N357 C350 1.356 . S
N357 H360 0.984 . S
N357 H361 0.985 . S
H358 N353 0.984 . S
H359 N353 0.985 . S
H360 N357 0.984 . S
H361 N357 0.985 . S
H362 N356 0.984 1_556 S
H363 N356 0.984 . S
H364 N352 0.984 1_556 S
H365 N352 0.985 . S
C366 C367 1.363 . S
C366 C372 1.379 . S
C366 N374 1.356 . S
C367 C366 1.363 . S
C367 C373 1.363 . S
C368 C369 1.363 . S
C368 C373 1.379 . S
C368 N375 1.356 . S
C369 C368 1.363 . S
C369 C372 1.363 . S
N370 C372 1.356 . S
N370 H382 0.984 . S
N370 H383 0.985 . S
N371 C373 1.356 . S
N371 H376 0.984 . S
N371 H377 0.985 . S
C372 C366 1.379 . S
C372 C369 1.363 . S
C372 N370 1.356 . S
C373 C367 1.363 . S
C373 C368 1.379 . S
C373 N371 1.356 . S
N374 C366 1.356 . S
N374 H380 0.984 . S
N374 H381 0.984 . S
N375 C368 1.356 . S
N375 H378 0.984 . S
N375 H379 0.985 . S
H376 N371 0.984 . S
H377 N371 0.985 . S
H378 N375 0.984 . S
H379 N375 0.985 . S
H380 N374 0.984 . S
H381 N374 0.984 . S
H382 N370 0.984 . S
H383 N370 0.985 . S
C384 C385 1.363 . S
C384 C390 1.379 . S
C384 N392 1.356 . S
C385 C384 1.363 . S
C385 C391 1.363 . S
C386 C387 1.363 . S
C386 C391 1.379 . S
C386 N393 1.356 . S
C387 C386 1.363 . S
C387 C390 1.363 . S
N388 C390 1.356 . S
N388 H400 0.984 . S
N388 H401 0.985 . S
N389 C391 1.356 . S
N389 H394 0.984 . S
N389 H395 0.985 . S
C390 C384 1.379 . S
C390 C387 1.363 . S
C390 N388 1.356 . S
C391 C385 1.363 . S
C391 C386 1.379 . S
C391 N389 1.356 . S
N392 C384 1.356 . S
N392 H398 0.984 . S
N392 H399 0.984 . S
N393 C386 1.356 . S
N393 H396 0.984 . S
N393 H397 0.985 . S
H394 N389 0.984 . S
H395 N389 0.985 . S
H396 N393 0.984 . S
H397 N393 0.985 . S
H398 N392 0.984 . S
H399 N392 0.984 . S
H400 N388 0.984 . S
H401 N388 0.985 . S
C402 C403 1.363 . S
C402 C408 1.379 . S
C402 N410 1.356 . S
C403 C402 1.363 . S
C403 C409 1.363 . S
C404 C405 1.363 . S
C404 C409 1.379 . S
C404 N411 1.356 . S
C405 C404 1.363 . S
C405 C408 1.363 . S
N406 C408 1.356 . S
N406 H418 0.984 . S
N406 H419 0.985 . S
N407 C409 1.356 . S
N407 H412 0.984 . S
N407 H413 0.985 . S
C408 C402 1.379 . S
C408 C405 1.363 . S
C408 N406 1.356 . S
C409 C403 1.363 . S
C409 C404 1.379 . S
C409 N407 1.356 . S
N410 C402 1.356 . S
N410 H416 0.984 . S
N410 H417 0.984 . S
N411 C404 1.356 . S
N411 H414 0.984 . S
N411 H415 0.985 . S
H412 N407 0.984 . S
H413 N407 0.985 . S
H414 N411 0.984 . S
H415 N411 0.985 . S
H416 N410 0.984 . S
H417 N410 0.984 . S
H418 N406 0.984 . S
H419 N406 0.985 . S
C420 C421 1.363 . S
C420 C426 1.379 . S
C420 N428 1.356 . S
C421 C420 1.363 . S
C421 C427 1.363 . S
C422 C423 1.363 . S
C422 C427 1.379 . S
C422 N429 1.356 . S
C423 C422 1.363 . S
C423 C426 1.363 . S
N424 C426 1.356 . S
N424 H436 0.984 . S
N424 H437 0.985 . S
N425 C427 1.356 . S
N425 H430 0.984 . S
N425 H431 0.985 . S
C426 C420 1.379 . S
C426 C423 1.363 . S
C426 N424 1.356 . S
C427 C421 1.363 . S
C427 C422 1.379 . S
C427 N425 1.356 . S
N428 C420 1.356 . S
N428 H434 0.984 . S
N428 H435 0.984 . S
N429 C422 1.356 . S
N429 H432 0.984 . S
N429 H433 0.985 . S
H430 N425 0.984 . S
H431 N425 0.985 . S
H432 N429 0.984 . S
H433 N429 0.985 . S
H434 N428 0.984 . S
H435 N428 0.984 . S
H436 N424 0.984 . S
H437 N424 0.985 . S
C438 C439 1.363 . S
C438 C444 1.379 . S
C438 N446 1.356 . S
C439 C438 1.363 . S
C439 C445 1.363 . S
C440 C441 1.363 . S
C440 C445 1.379 . S
C440 N447 1.356 1_554 S
C441 C440 1.363 . S
C441 C444 1.363 . S
N442 C444 1.356 . S
N442 H454 0.984 . S
N442 H455 0.985 . S
N443 C445 1.356 . S
N443 H448 0.984 . S
N443 H449 0.985 . S
C444 C438 1.379 . S
C444 C441 1.363 . S
C444 N442 1.356 . S
C445 C439 1.363 . S
C445 C440 1.379 . S
C445 N443 1.356 . S
N446 C438 1.356 . S
N446 H452 0.984 . S
N446 H453 0.984 . S
N447 C440 1.356 1_556 S
N447 H450 0.984 . S
N447 H451 0.985 . S
H448 N443 0.984 . S
H449 N443 0.985 . S
H450 N447 0.984 . S
H451 N447 0.985 . S
H452 N446 0.984 . S
H453 N446 0.984 . S
H454 N442 0.984 . S
H455 N442 0.985 . S
C456 C457 1.363 . S
C456 C462 1.379 . S
C456 N464 1.356 . S
C457 C456 1.363 . S
C457 C463 1.363 . S
C458 C459 1.363 . S
C458 C463 1.379 . S
C458 N465 1.356 . S
C459 C458 1.363 . S
C459 C462 1.363 . S
N460 C462 1.356 . S
N460 H472 0.984 . S
N460 H473 0.985 . S
N461 C463 1.356 . S
N461 H466 0.984 . S
N461 H467 0.985 . S
C462 C456 1.379 . S
C462 C459 1.363 . S
C462 N460 1.356 . S
C463 C457 1.363 . S
C463 C458 1.379 . S
C463 N461 1.356 . S
N464 C456 1.356 . S
N464 H470 0.984 . S
N464 H471 0.984 . S
N465 C458 1.356 . S
N465 H468 0.984 . S
N465 H469 0.985 . S
H466 N461 0.984 . S
H467 N461 0.985 . S
H468 N465 0.984 . S
H469 N465 0.985 . S
H470 N464 0.984 . S
H471 N464 0.984 . S
H472 N460 0.984 . S
H473 N460 0.985 . S
C474 C475 1.363 . S
C474 C480 1.379 . S
C474 N482 1.356 . S
C475 C474 1.363 . S
C475 C481 1.363 . S
C476 C477 1.363 . S
C476 C481 1.379 . S
C476 N483 1.356 . S
C477 C476 1.363 . S
C477 C480 1.363 . S
N478 C480 1.356 . S
N478 H490 0.984 . S
N478 H491 0.985 . S
N479 C481 1.356 . S
N479 H484 0.984 . S
N479 H485 0.985 . S
C480 C474 1.379 . S
C480 C477 1.363 . S
C480 N478 1.356 . S
C481 C475 1.363 . S
C481 C476 1.379 . S
C481 N479 1.356 . S
N482 C474 1.356 . S
N482 H488 0.984 . S
N482 H489 0.984 . S
N483 C476 1.356 . S
N483 H486 0.984 . S
N483 H487 0.985 . S
H484 N479 0.984 . S
H485 N479 0.985 . S
H486 N483 0.984 . S
H487 N483 0.985 . S
H488 N482 0.984 . S
H489 N482 0.984 . S
H490 N478 0.984 . S
H491 N478 0.985 . S
C492 C493 1.363 . S
C492 C498 1.379 . S
C492 N500 1.356 . S
C493 C492 1.363 . S
C493 C499 1.363 1_655 S
C494 C495 1.363 . S
C494 C499 1.379 . S
C494 N501 1.356 . S
C495 C494 1.363 . S
C495 C498 1.363 1_455 S
N496 C498 1.356 1_455 S
N496 H508 0.984 1_455 S
N496 H509 0.985 . S
N497 C499 1.356 1_655 S
N497 H502 0.984 . S
N497 H503 0.985 1_655 S
C498 C492 1.379 . S
C498 C495 1.363 1_655 S
C498 N496 1.356 1_655 S
C499 C493 1.363 1_455 S
C499 C494 1.379 . S
C499 N497 1.356 1_455 S
N500 C492 1.356 . S
N500 H506 0.984 . S
N500 H507 0.984 . S
N501 C494 1.356 . S
N501 H504 0.984 . S
N501 H505 0.985 . S
H502 N497 0.984 . S
H503 N497 0.985 1_455 S
H504 N501 0.984 . S
H505 N501 0.985 . S
H506 N500 0.984 . S
H507 N500 0.984 . S
H508 N496 0.984 1_655 S
H509 N496 0.985 . S
C510 C511 1.363 . S
C510 C516 1.379 . S
C510 N518 1.356 . S
C511 C510 1.363 . S
C511 C517 1.363 1_565 S
C512 C513 1.363 . S
C512 C517 1.379 . S
C512 N519 1.356 . S
C513 C512 1.363 . S
C513 C516 1.363 1_545 S
N514 C516 1.356 1_545 S
N514 H526 0.984 1_545 S
N514 H527 0.985 . S
N515 C517 1.356 1_565 S
N515 H520 0.984 . S
N515 H521 0.985 1_565 S
C516 C510 1.379 . S
C516 C513 1.363 1_565 S
C516 N514 1.356 1_565 S
C517 C511 1.363 1_545 S
C517 C512 1.379 . S
C517 N515 1.356 1_545 S
N518 C510 1.356 . S
N518 H524 0.984 . S
N518 H525 0.984 . S
N519 C512 1.356 . S
N519 H522 0.984 . S
N519 H523 0.985 . S
H520 N515 0.984 . S
H521 N515 0.985 1_545 S
H522 N519 0.984 . S
H523 N519 0.985 . S
H524 N518 0.984 . S
H525 N518 0.984 . S
H526 N514 0.984 1_565 S
H527 N514 0.985 . S
C528 C529 1.363 . S
C528 C534 1.379 . S
C528 N536 1.356 . S
C529 C528 1.363 . S
C529 C535 1.363 . S
C530 C531 1.363 . S
C530 C535 1.379 . S
C530 N537 1.356 . S
C531 C530 1.363 . S
C531 C534 1.363 . S
N532 C534 1.356 . S
N532 H544 0.984 . S
N532 H545 0.985 . S
N533 C535 1.356 . S
N533 H538 0.984 . S
N533 H539 0.985 . S
C534 C528 1.379 . S
C534 C531 1.363 . S
C534 N532 1.356 . S
C535 C529 1.363 . S
C535 C530 1.379 . S
C535 N533 1.356 . S
N536 C528 1.356 . S
N536 H542 0.984 . S
N536 H543 0.984 . S
N537 C530 1.356 . S
N537 H540 0.984 . S
N537 H541 0.985 . S
H538 N533 0.984 . S
H539 N533 0.985 . S
H540 N537 0.984 . S
H541 N537 0.985 . S
H542 N536 0.984 . S
H543 N536 0.984 . S
H544 N532 0.984 . S
H545 N532 0.985 . S
C546 C547 1.363 . S
C546 C552 1.379 1_455 S
C546 N554 1.356 . S
C547 C546 1.363 . S
C547 C553 1.363 . S
C548 C549 1.363 . S
C548 C553 1.379 1_655 S
C548 N555 1.356 . S
C549 C548 1.363 . S
C549 C552 1.363 . S
N550 C552 1.356 . S
N550 H562 0.984 . S
N550 H563 0.985 . S
N551 C553 1.356 . S
N551 H556 0.984 . S
N551 H557 0.985 . S
C552 C546 1.379 1_655 S
C552 C549 1.363 . S
C552 N550 1.356 . S
C553 C547 1.363 . S
C553 C548 1.379 1_455 S
C553 N551 1.356 . S
N554 C546 1.356 . S
N554 H560 0.984 . S
N554 H561 0.984 . S
N555 C548 1.356 . S
N555 H558 0.984 . S
N555 H559 0.985 . S
H556 N551 0.984 . S
H557 N551 0.985 . S
H558 N555 0.984 . S
H559 N555 0.985 . S
H560 N554 0.984 . S
H561 N554 0.984 . S
H562 N550 0.984 . S
H563 N550 0.985 . S
C564 C565 1.363 . S
C564 C570 1.379 1_545 S
C564 N572 1.356 . S
C565 C564 1.363 . S
C565 C571 1.363 1_556 S
C566 C567 1.363 . S
C566 C571 1.379 1_565 S
C566 N573 1.356 . S
C567 C566 1.363 . S
C567 C570 1.363 1_554 S
N568 C570 1.356 . S
N568 H580 0.984 . S
N568 H581 0.985 1_556 S
N569 C571 1.356 . S
N569 H574 0.984 1_554 S
N569 H575 0.985 . S
C570 C564 1.379 1_565 S
C570 C567 1.363 1_556 S
C570 N568 1.356 . S
C571 C565 1.363 1_554 S
C571 C566 1.379 1_545 S
C571 N569 1.356 . S
N572 C564 1.356 . S
N572 H578 0.984 1_545 S
N572 H579 0.984 . S
N573 C566 1.356 . S
N573 H576 0.984 . S
N573 H577 0.985 1_565 S
H574 N569 0.984 1_556 S
H575 N569 0.985 . S
H576 N573 0.984 . S
H577 N573 0.985 1_545 S
H578 N572 0.984 1_565 S
H579 N572 0.984 . S
H580 N568 0.984 . S
H581 N568 0.985 1_554 S
C582 C583 1.363 . S
C582 C588 1.379 . S
C582 N590 1.356 . S
C583 C582 1.363 . S
C583 C589 1.363 . S
C584 C585 1.363 . S
C584 C589 1.379 . S
C584 N591 1.356 . S
C585 C584 1.363 . S
C585 C588 1.363 . S
N586 C588 1.356 . S
N586 H598 0.984 . S
N586 H599 0.985 . S
N587 C589 1.356 . S
N587 H592 0.984 . S
N587 H593 0.985 . S
C588 C582 1.379 . S
C588 C585 1.363 . S
C588 N586 1.356 . S
C589 C583 1.363 . S
C589 C584 1.379 . S
C589 N587 1.356 . S
N590 C582 1.356 . S
N590 H596 0.984 . S
N590 H597 0.984 . S
N591 C584 1.356 . S
N591 H594 0.984 . S
N591 H595 0.985 . S
H592 N587 0.984 . S
H593 N587 0.985 . S
H594 N591 0.984 . S
H595 N591 0.985 . S
H596 N590 0.984 . S
H597 N590 0.984 . S
H598 N586 0.984 . S
H599 N586 0.985 . S
C600 C601 1.363 . S
C600 C606 1.379 . S
C600 N608 1.356 . S
C601 C600 1.363 . S
C601 C607 1.363 . S
C602 C603 1.363 . S
C602 C607 1.379 . S
C602 N609 1.356 . S
C603 C602 1.363 . S
C603 C606 1.363 . S
N604 C606 1.356 . S
N604 H616 0.984 . S
N604 H617 0.985 . S
N605 C607 1.356 . S
N605 H610 0.984 . S
N605 H611 0.985 . S
C606 C600 1.379 . S
C606 C603 1.363 . S
C606 N604 1.356 . S
C607 C601 1.363 . S
C607 C602 1.379 . S
C607 N605 1.356 . S
N608 C600 1.356 . S
N608 H614 0.984 . S
N608 H615 0.984 . S
N609 C602 1.356 . S
N609 H612 0.984 . S
N609 H613 0.985 . S
H610 N605 0.984 . S
H611 N605 0.985 . S
H612 N609 0.984 . S
H613 N609 0.985 . S
H614 N608 0.984 . S
H615 N608 0.984 . S
H616 N604 0.984 . S
H617 N604 0.985 . S
C618 C619 1.363 . S
C618 C624 1.379 . S
C618 N626 1.356 . S
C619 C618 1.363 . S
C619 C625 1.363 . S
C620 C621 1.363 . S
C620 C625 1.379 . S
C620 N627 1.356 . S
C621 C620 1.363 . S
C621 C624 1.363 . S
N622 C624 1.356 . S
N622 H634 0.984 . S
N622 H635 0.985 . S
N623 C625 1.356 . S
N623 H628 0.984 . S
N623 H629 0.985 . S
C624 C618 1.379 . S
C624 C621 1.363 . S
C624 N622 1.356 . S
C625 C619 1.363 . S
C625 C620 1.379 . S
C625 N623 1.356 . S
N626 C618 1.356 . S
N626 H632 0.984 . S
N626 H633 0.984 . S
N627 C620 1.356 . S
N627 H630 0.984 . S
N627 H631 0.985 . S
H628 N623 0.984 . S
H629 N623 0.985 . S
H630 N627 0.984 . S
H631 N627 0.985 . S
H632 N626 0.984 . S
H633 N626 0.984 . S
H634 N622 0.984 . S
H635 N622 0.985 . S
C636 C637 1.363 . S
C636 C642 1.379 . S
C636 N644 1.356 . S
C637 C636 1.363 . S
C637 C643 1.363 . S
C638 C639 1.363 . S
C638 C643 1.379 . S
C638 N645 1.356 . S
C639 C638 1.363 . S
C639 C642 1.363 . S
N640 C642 1.356 . S
N640 H652 0.984 . S
N640 H653 0.985 . S
N641 C643 1.356 . S
N641 H646 0.984 . S
N641 H647 0.985 . S
C642 C636 1.379 . S
C642 C639 1.363 . S
C642 N640 1.356 . S
C643 C637 1.363 . S
C643 C638 1.379 . S
C643 N641 1.356 . S
N644 C636 1.356 . S
N644 H650 0.984 . S
N644 H651 0.984 . S
N645 C638 1.356 . S
N645 H648 0.984 . S
N645 H649 0.985 . S
H646 N641 0.984 . S
H647 N641 0.985 . S
H648 N645 0.984 . S
H649 N645 0.985 . S
H650 N644 0.984 . S
H651 N644 0.984 . S
H652 N640 0.984 . S
H653 N640 0.985 . S
C654 C655 1.363 . S
C654 C660 1.379 . S
C654 N662 1.356 . S
C655 C654 1.363 . S
C655 C661 1.363 . S
C656 C657 1.363 . S
C656 C661 1.379 . S
C656 N663 1.356 . S
C657 C656 1.363 . S
C657 C660 1.363 . S
N658 C660 1.356 . S
N658 H670 0.984 . S
N658 H671 0.985 . S
N659 C661 1.356 . S
N659 H664 0.984 . S
N659 H665 0.985 . S
C660 C654 1.379 . S
C660 C657 1.363 . S
C660 N658 1.356 . S
C661 C655 1.363 . S
C661 C656 1.379 . S
C661 N659 1.356 . S
N662 C654 1.356 . S
N662 H668 0.984 . S
N662 H669 0.984 . S
N663 C656 1.356 . S
N663 H666 0.984 . S
N663 H667 0.985 . S
H664 N659 0.984 . S
H665 N659 0.985 . S
H666 N663 0.984 . S
H667 N663 0.985 . S
H668 N662 0.984 . S
H669 N662 0.984 . S
H670 N658 0.984 . S
H671 N658 0.985 . S
C672 C673 1.363 . S
C672 C678 1.379 . S
C672 N680 1.356 . S
C673 C672 1.363 . S
C673 C679 1.363 . S
C674 C675 1.363 . S
C674 C679 1.379 . S
C674 N681 1.356 . S
C675 C674 1.363 . S
C675 C678 1.363 . S
N676 C678 1.356 . S
N676 H688 0.984 . S
N676 H689 0.985 . S
N677 C679 1.356 . S
N677 H682 0.984 . S
N677 H683 0.985 . S
C678 C672 1.379 . S
C678 C675 1.363 . S
C678 N676 1.356 . S
C679 C673 1.363 . S
C679 C674 1.379 . S
C679 N677 1.356 . S
N680 C672 1.356 . S
N680 H686 0.984 1_556 S
N680 H687 0.984 1_556 S
N681 C674 1.356 . S
N681 H684 0.984 . S
N681 H685 0.985 . S
H682 N677 0.984 . S
H683 N677 0.985 . S
H684 N681 0.984 . S
H685 N681 0.985 . S
H686 N680 0.984 1_554 S
H687 N680 0.984 1_554 S
H688 N676 0.984 . S
H689 N676 0.985 . S
C690 C691 1.363 . S
C690 C696 1.379 . S
C690 N698 1.356 . S
C691 C690 1.363 . S
C691 C697 1.363 . S
C692 C693 1.363 . S
C692 C697 1.379 . S
C692 N699 1.356 . S
C693 C692 1.363 . S
C693 C696 1.363 . S
N694 C696 1.356 . S
N694 H706 0.984 . S
N694 H707 0.985 . S
N695 C697 1.356 . S
N695 H700 0.984 . S
N695 H701 0.985 . S
C696 C690 1.379 . S
C696 C693 1.363 . S
C696 N694 1.356 . S
C697 C691 1.363 . S
C697 C692 1.379 . S
C697 N695 1.356 . S
N698 C690 1.356 . S
N698 H704 0.984 . S
N698 H705 0.984 . S
N699 C692 1.356 . S
N699 H702 0.984 1_554 S
N699 H703 0.985 1_554 S
H700 N695 0.984 . S
H701 N695 0.985 . S
H702 N699 0.984 1_556 S
H703 N699 0.985 1_556 S
H704 N698 0.984 . S
H705 N698 0.984 . S
H706 N694 0.984 . S
H707 N694 0.985 . S
C277 N2 1.361 . S
C279 N140 1.361 . S
C295 N25 1.361 . S
C297 N163 1.361 . S
C313 N186 1.362 . S
C315 N48 1.361 . S
C331 N71 1.361 . S
C333 N209 1.361 . S
C349 N94 1.361 . S
C351 N232 1.361 . S
C367 N255 1.361 . S
C369 N117 1.361 . S
C385 C191 1.571 . S
C387 C7 1.571 . S
C403 C30 1.571 . S
C405 C214 1.571 . S
C421 C237 1.576 . S
C423 C53 1.571 . S
C439 C260 1.571 . S
C441 C76 1.576 . S
C457 C99 1.571 . S
C459 C145 1.571 . S
C475 C122 1.571 . S
C477 C168 1.571 . S
C493 N265 1.804 . S
C495 N12 1.804 . S
C511 N150 1.804 . S
C513 N35 1.804 . S
C529 N58 1.804 . S
C531 N173 1.804 . S
C547 N196 1.804 . S
C549 N81 1.804 . S
C565 N219 1.804 . S
C567 N104 1.804 . S
C583 N242 1.804 . S
C585 N127 1.804 . S
C601 C16 1.697 . S
C603 C246 1.697 . S
C619 C269 1.697 . S
C621 C39 1.697 . S
C637 C62 1.698 . S
C639 C154 1.698 . S
C655 C85 1.697 . S
C657 C177 1.697 . S
C673 C108 1.697 1_556 S
C675 C200 1.697 . S
C691 C131 1.697 . S
C693 C223 1.697 1_554 S
