# Generated by pormake.
# Topology snk, (6)-cn, num edge types: 1
# Building blocks:
#     Node 0, Type 0, BuildingBlock: KUMJIN_clean_sbu_0, # of connection points: 6
#     Node 1, Type 0, BuildingBlock: KUMJIN_clean_sbu_0, # of connection points: 6
#     Node 2, Type 0, BuildingBlock: KUMJIN_clean_sbu_0, # of connection points: 6
#     Node 3, Type 0, BuildingBlock: KUMJIN_clean_sbu_0, # of connection points: 6
#     Node 4, Type 0, BuildingBlock: KUMJIN_clean_sbu_0, # of connection points: 6
#     Node 5, Type 0, BuildingBlock: KUMJIN_clean_sbu_0, # of connection points: 6
#     Node 6, Type 0, BuildingBlock: KUMJIN_clean_sbu_0, # of connection points: 6
#     Node 7, Type 0, BuildingBlock: KUMJIN_clean_sbu_0, # of connection points: 6
#     Edge 8, Type (0, 0), BuildingBlock: OJICUG_clean_linker_0, # of connection points: 2
#     Edge 9, Type (0, 0), BuildingBlock: OJICUG_clean_linker_0, # of connection points: 2
#     Edge 10, Type (0, 0), BuildingBlock: OJICUG_clean_linker_0, # of connection points: 2
#     Edge 11, Type (0, 0), BuildingBlock: OJICUG_clean_linker_0, # of connection points: 2
#     Edge 12, Type (0, 0), BuildingBlock: OJICUG_clean_linker_0, # of connection points: 2
#     Edge 13, Type (0, 0), BuildingBlock: OJICUG_clean_linker_0, # of connection points: 2
#     Edge 14, Type (0, 0), BuildingBlock: OJICUG_clean_linker_0, # of connection points: 2
#     Edge 15, Type (0, 0), BuildingBlock: OJICUG_clean_linker_0, # of connection points: 2
#     Edge 16, Type (0, 0), BuildingBlock: OJICUG_clean_linker_0, # of connection points: 2
#     Edge 17, Type (0, 0), BuildingBlock: OJICUG_clean_linker_0, # of connection points: 2
#     Edge 18, Type (0, 0), BuildingBlock: OJICUG_clean_linker_0, # of connection points: 2
#     Edge 19, Type (0, 0), BuildingBlock: OJICUG_clean_linker_0, # of connection points: 2
#     Edge 20, Type (0, 0), BuildingBlock: OJICUG_clean_linker_0, # of connection points: 2
#     Edge 21, Type (0, 0), BuildingBlock: OJICUG_clean_linker_0, # of connection points: 2
#     Edge 22, Type (0, 0), BuildingBlock: OJICUG_clean_linker_0, # of connection points: 2
#     Edge 23, Type (0, 0), BuildingBlock: OJICUG_clean_linker_0, # of connection points: 2
#     Edge 24, Type (0, 0), BuildingBlock: OJICUG_clean_linker_0, # of connection points: 2
#     Edge 25, Type (0, 0), BuildingBlock: OJICUG_clean_linker_0, # of connection points: 2
#     Edge 26, Type (0, 0), BuildingBlock: OJICUG_clean_linker_0, # of connection points: 2
#     Edge 27, Type (0, 0), BuildingBlock: OJICUG_clean_linker_0, # of connection points: 2
#     Edge 28, Type (0, 0), BuildingBlock: OJICUG_clean_linker_0, # of connection points: 2
#     Edge 29, Type (0, 0), BuildingBlock: OJICUG_clean_linker_0, # of connection points: 2
#     Edge 30, Type (0, 0), BuildingBlock: OJICUG_clean_linker_0, # of connection points: 2
#     Edge 31, Type (0, 0), BuildingBlock: OJICUG_clean_linker_0, # of connection points: 2
# Relax obj value: 0.002
# Max RMSD: 0.037
# Mean RMSD: 0.036
data_MOF--net-snk--node1-KUMJIN_clean_sbu_0--edge1-OJICUG_clean_linker_0
_symmetry_space_group_name_H-M    P1
_symmetry_Int_Tables_number       1
_symmetry_cell_setting            triclinic
loop_
_symmetry_equiv_pos_as_xyz
'x, y, z'
_cell_length_a     26.464336
_cell_length_b     26.514336
_cell_length_c     20.104626
_cell_angle_alpha  87.804489
_cell_angle_beta   87.408198
_cell_angle_gamma 89.822522
loop_
_atom_site_label
_atom_site_type_symbol
_atom_site_fract_x
_atom_site_fract_y
_atom_site_fract_z
_atom_type_partial_charge
Eu0 Eu 1.00435 0.96308 0.46326 0.0
C1 C 0.00829 0.16488 0.62968 0.0
C2 C 0.09439 0.19603 0.62508 0.0
C3 C 0.02646 0.24765 0.67129 0.0
C4 C 0.05905 0.15801 0.61292 0.0
C5 C 0.99139 0.20995 0.65868 0.0
C6 C 0.07785 0.24067 0.65466 0.0
C7 C 0.90668 0.17613 0.66443 0.0
N8 N 0.97595 0.12621 0.62184 0.0
C9 C 0.92549 0.13143 0.63803 0.0
C10 C 0.93992 0.21517 0.67608 0.0
Eu11 Eu 0.01333 0.04705 0.59828 0.0
N12 N 0.07454 0.1123 0.59151 0.0
C13 C 0.12488 0.10243 0.581 0.0
C14 C 0.14567 0.18702 0.61037 0.0
C15 C 0.16097 0.14005 0.58785 0.0
H16 H 0.89946 0.101 0.6316 0.0
H17 H 0.20073 0.13211 0.57837 0.0
H18 H 0.10456 0.26988 0.6653 0.0
H19 H 0.86673 0.17991 0.67743 0.0
H20 H 0.13761 0.06507 0.5689 0.0
H21 H 0.81741 0.87681 0.47906 0.0
H22 H 0.17378 0.21538 0.61857 0.0
H23 H 0.11904 0.9094 0.43357 0.0
H24 H 0.8801 0.94348 0.49306 0.0
H25 H 0.15243 0.83246 0.38295 0.0
H26 H 0.01423 0.28229 0.69403 0.0
H27 H 0.84474 0.79559 0.43267 0.0
H28 H 0.91455 0.7435 0.38196 0.0
H29 H 0.92549 0.24917 0.69846 0.0
H30 H 1.00516 0.7323 0.35365 0.0
N31 N 0.9435 0.89749 0.46752 0.0
C32 C 0.8931 0.9067 0.47876 0.0
C33 C 0.87275 0.82362 0.44295 0.0
C34 C 0.92412 0.81542 0.4277 0.0
C35 C 0.85722 0.86938 0.4691 0.0
C36 C 0.95925 0.85284 0.44295 0.0
H37 H 0.09397 0.76492 0.35429 0.0
N38 N 0.04238 0.88458 0.43826 0.0
C39 C 0.11228 0.83605 0.39463 0.0
C40 C 0.01016 0.84662 0.4265 0.0
C41 C 0.09311 0.87958 0.42381 0.0
C42 C 0.07919 0.798 0.37859 0.0
C43 C 0.02746 0.80285 0.39468 0.0
O44 O 0.03258 0.97717 0.36065 0.0
O45 O 0.03559 0.03857 0.4905 0.0
O46 O 0.96751 0.08865 0.51992 0.0
O47 O 0.93692 0.01737 0.47189 0.0
O48 O 0.08345 0.99253 0.43673 0.0
O49 O 0.95164 0.97355 0.38344 0.0
O50 O 0.98579 0.0343 0.70145 0.0
O51 O 0.98161 0.97207 0.57075 0.0
O52 O 0.04817 0.92037 0.54301 0.0
O53 O 0.07989 0.99163 0.58948 0.0
O54 O 0.93442 0.01778 0.62596 0.0
O55 O 0.06654 0.03605 0.67736 0.0
C56 C 0.0794 0.03635 0.4618 0.0
C57 C 0.98164 0.95088 0.27576 0.0
C58 C 0.99129 0.95115 0.15507 0.0
C59 C 0.99551 0.9755 0.21521 0.0
C60 C 0.97518 0.9007 0.15633 0.0
C61 C 0.96358 0.90127 0.27618 0.0
C62 C 0.96162 0.87589 0.2169 0.0
C63 C 0.93541 0.06661 0.48132 0.0
C64 C 0.98755 0.97802 0.33701 0.0
C65 C 0.9926 0.76592 0.37858 0.0
C66 C 0.94105 0.77222 0.39496 0.0
C67 C 0.93793 0.97433 0.59981 0.0
C68 C 0.03835 0.06002 0.78489 0.0
C69 C 0.02868 0.03492 0.84633 0.0
C70 C 0.03359 0.06005 0.90581 0.0
C71 C 0.04719 0.1113 0.90301 0.0
C72 C 0.05317 0.11072 0.78279 0.0
C73 C 0.0567 0.13645 0.84155 0.0
C74 C 0.08005 0.9421 0.58224 0.0
C75 C 0.03104 0.03247 0.7244 0.0
H76 H 0.00971 0.01375 0.215 0.0
H77 H 0.97203 0.88097 0.11057 0.0
H78 H 0.9508 0.8822 0.32169 0.0
H79 H 0.94922 0.83711 0.21799 0.0
H80 H 0.01665 0.99587 0.84766 0.0
H81 H 0.05106 0.1316 0.94817 0.0
H82 H 0.06201 0.13047 0.73631 0.0
H83 H 0.06678 0.1759 0.83925 0.0
Eu84 Eu 0.30725 0.75341 0.72061 0.0
C85 C 0.09044 0.75788 0.80614 0.0
C86 C 0.06814 0.84509 0.78294 0.0
C87 C 0.01351 0.77798 0.74903 0.0
C88 C 0.10228 0.80861 0.8072 0.0
C89 C 0.04519 0.74202 0.7791 0.0
C90 C 0.02492 0.82949 0.7512 0.0
C91 C 0.06313 0.65734 0.82091 0.0
N92 N 0.12208 0.72416 0.83489 0.0
C93 C 0.10775 0.67493 0.84667 0.0
C94 C 0.03249 0.69075 0.78525 0.0
Eu95 Eu 0.20422 0.75485 0.8524 0.0
N96 N 0.14558 0.82227 0.83566 0.0
C97 C 0.15312 0.87165 0.85003 0.0
C98 C 0.07765 0.89598 0.79318 0.0
C99 C 0.11946 0.90914 0.82869 0.0
H100 H 0.1328 0.64868 0.87131 0.0
H101 H 0.12622 0.94829 0.83878 0.0
H102 H 0.99889 0.85708 0.73122 0.0
H103 H 0.05281 0.61794 0.82758 0.0
H104 H 0.18494 0.88303 0.87744 0.0
H105 H 0.37425 0.55612 0.7098 0.0
H106 H 0.05215 0.92511 0.77574 0.0
H107 H 0.3905 0.85163 0.70642 0.0
H108 H 0.32092 0.62806 0.67799 0.0
H109 H 0.46982 0.87427 0.75945 0.0
H110 H 0.97894 0.76657 0.72696 0.0
H111 H 0.4475 0.56858 0.7795 0.0
H112 H 0.50391 0.62848 0.83534 0.0
H113 H 0.99815 0.67692 0.76523 0.0
H114 H 0.52916 0.71649 0.85144 0.0
N115 N 0.36115 0.68127 0.73291 0.0
C116 C 0.35174 0.63442 0.70991 0.0
C117 C 0.42399 0.60041 0.76595 0.0
C118 C 0.43607 0.64908 0.78418 0.0
C119 C 0.38255 0.5933 0.72684 0.0
C120 C 0.40436 0.68935 0.76474 0.0
H121 H 0.51604 0.80883 0.8235 0.0
N122 N 0.39133 0.77569 0.74423 0.0
C123 C 0.45572 0.83596 0.76396 0.0
C124 C 0.41915 0.73845 0.7724 0.0
C125 C 0.41129 0.82301 0.73358 0.0
C126 C 0.48169 0.79902 0.80036 0.0
C127 C 0.465 0.749 0.80192 0.0
O128 O 0.35014 0.77146 0.62673 0.0
O129 O 0.22964 0.78135 0.74879 0.0
O130 O 0.18356 0.70805 0.76753 0.0
O131 O 0.2587 0.68373 0.71364 0.0
O132 O 0.27788 0.83275 0.69887 0.0
O133 O 0.27306 0.74598 0.62415 0.0
O134 O 0.16218 0.73598 0.94657 0.0
O135 O 0.2821 0.72735 0.8244 0.0
O136 O 0.32376 0.81193 0.79607 0.0
O137 O 0.24979 0.82524 0.86155 0.0
O138 O 0.23334 0.67495 0.87099 0.0
O139 O 0.23843 0.76401 0.94856 0.0
C140 C 0.23211 0.82568 0.72277 0.0
C141 C 0.32463 0.73508 0.52614 0.0
C142 C 0.30821 0.72544 0.40757 0.0
C143 C 0.29733 0.74827 0.46914 0.0
C144 C 0.34706 0.689 0.4047 0.0
C145 C 0.36272 0.69838 0.52168 0.0
C146 C 0.3738 0.67559 0.46122 0.0
C147 C 0.20958 0.6798 0.72594 0.0
C148 C 0.31305 0.76083 0.58908 0.0
C149 C 0.49403 0.7091 0.82801 0.0
C150 C 0.47977 0.65905 0.81864 0.0
C151 C 0.27931 0.68258 0.8485 0.0
C152 C 0.18654 0.77312 0.04703 0.0
C153 C 0.21316 0.75962 0.10449 0.0
C154 C 0.20118 0.78172 0.16626 0.0
C155 C 0.16187 0.81766 0.16895 0.0
C156 C 0.14794 0.80931 0.05129 0.0
C157 C 0.13573 0.83133 0.112 0.0
C158 C 0.2967 0.8362 0.84161 0.0
C159 C 0.19901 0.74789 0.98392 0.0
H160 H 0.26741 0.77613 0.47312 0.0
H161 H 0.35753 0.6713 0.35841 0.0
H162 H 0.38406 0.68759 0.56475 0.0
H163 H 0.40359 0.64759 0.45796 0.0
H164 H 0.24339 0.73207 0.10077 0.0
H165 H 0.15063 0.83477 0.2154 0.0
H166 H 0.12705 0.82026 1.00788 0.0
H167 H 0.10555 0.85891 0.11513 0.0
Eu168 Eu 0.50928 0.9558 0.09064 0.0
C169 C 0.5094 0.17646 1.00094 0.0
C170 C 0.42445 0.20381 1.02999 0.0
C171 C 0.49616 0.25552 0.05626 0.0
C172 C 0.45822 0.1675 1.00438 0.0
C173 C 0.52917 0.22107 1.0252 0.0
C174 C 0.44379 0.24696 0.05835 0.0
C175 C 0.61158 0.19555 0.98134 0.0
N176 N 0.53984 0.1416 0.97219 0.0
C177 C 0.59007 0.15138 0.95914 0.0
C178 C 0.58123 0.2299 1.01616 0.0
Eu179 Eu 0.50378 0.06074 0.96042 0.0
N180 N 0.44145 0.124 0.97993 0.0
C181 C 0.39096 0.11712 0.97213 0.0
C182 C 0.37251 0.19608 1.02486 0.0
C183 C 0.35579 0.15318 0.99411 0.0
H184 H 0.61405 0.12357 0.93555 0.0
H185 H 0.31574 0.14725 0.98884 0.0
H186 H 0.41849 0.27491 0.07914 0.0
H187 H 0.65168 0.20253 0.97296 0.0
H188 H 0.3773 0.08349 0.95041 0.0
H189 H 0.70102 0.876 0.06998 0.0
H190 H 0.34522 0.22335 0.04323 0.0
H191 H 0.40442 0.88519 0.12269 0.0
H192 H 0.63622 0.93765 0.10525 0.0
H193 H 0.37019 0.80468 0.08489 0.0
H194 H 0.51043 0.28979 0.07619 0.0
H195 H 0.67592 0.79854 1.01485 0.0
H196 H 0.6058 0.74367 0.97727 0.0
H197 H 0.5981 0.26369 0.03392 0.0
H198 H 0.51446 0.7248 0.97878 0.0
N199 N 0.57467 0.89532 0.07156 0.0
C200 C 0.62449 0.90379 0.08228 0.0
C201 C 0.64727 0.82515 0.03122 0.0
C202 C 0.59595 0.81559 1.02361 0.0
C203 C 0.6615 0.86881 0.06238 0.0
C204 C 0.56029 0.85112 0.04667 0.0
H205 H 0.42564 0.74744 1.02026 0.0
N206 N 0.4779 0.87291 0.07929 0.0
C207 C 0.40951 0.81433 0.07415 0.0
C208 C 0.50967 0.84003 0.0492 0.0
C209 C 0.4291 0.85936 0.09639 0.0
C210 C 0.44086 0.78226 0.03706 0.0
C211 C 0.49221 0.79398 1.02637 0.0
O212 O 0.47574 0.93694 0.1903 0.0
O213 O 0.48037 0.03256 0.0634 0.0
O214 O 0.54632 0.08281 0.04835 0.0
O215 O 0.57866 0.0068 0.08944 0.0
O216 O 0.43169 0.98678 0.12112 0.0
O217 O 0.54841 0.97397 0.18059 0.0
O218 O 0.54075 0.07291 0.86113 0.0
O219 O 0.53114 0.98263 0.98621 0.0
O220 O 0.4554 0.93546 1.01158 0.0
O221 O 0.43394 0.0123 0.95861 0.0
O222 O 0.58181 0.02981 0.93314 0.0
O223 O 0.46142 0.05234 0.87049 0.0
C224 C 0.43747 0.03128 0.09382 0.0
C225 C 0.52473 0.93684 0.28754 0.0
C226 C 0.52821 0.94832 0.40819 0.0
C227 C 0.51695 0.96685 0.34362 0.0
C228 C 0.54766 0.89891 0.415 0.0
C229 C 0.54429 0.88801 0.29576 0.0
C230 C 0.55569 0.86924 0.35929 0.0
C231 C 0.57935 0.05657 0.08255 0.0
C232 C 0.51191 0.95779 0.22136 0.0
C233 C 0.527 0.76037 0.99703 0.0
C234 C 0.57897 0.7711 0.99602 0.0
C235 C 0.57482 0.9847 0.95786 0.0
C236 C 0.49298 0.08252 0.76289 0.0
C237 C 0.50193 0.0525 0.70704 0.0
C238 C 0.49366 0.07171 0.64189 0.0
C239 C 0.47657 0.12189 0.63401 0.0
C240 C 0.47587 0.13218 0.75367 0.0
C241 C 0.46784 0.15172 0.68941 0.0
C242 C 0.42684 0.96381 0.97284 0.0
C243 C 0.50076 0.06031 0.83003 0.0
H244 H 0.50261 1.00493 0.33656 0.0
H245 H 0.55602 0.88273 0.46355 0.0
H246 H 0.55062 0.86453 0.25322 0.0
H247 H 0.57061 0.83136 0.3655 0.0
H248 H 0.51437 0.01379 0.71465 0.0
H249 H 0.47043 0.13836 0.5849 0.0
H250 H 0.46858 0.15562 0.79603 0.0
H251 H 0.4547 0.1902 0.68244 0.0
Eu252 Eu 0.29946 0.26179 0.34713 0.0
C253 C 0.09619 0.25913 0.18651 0.0
C254 C 0.06387 0.17362 0.18958 0.0
C255 C 0.01197 0.24272 0.14841 0.0
C256 C 0.10276 0.20813 0.20108 0.0
C257 C 0.05047 0.27702 0.16062 0.0
C258 C 0.01872 0.19115 0.16265 0.0
C259 C 0.08544 0.36109 0.15588 0.0
N260 N 0.13568 0.29076 0.19323 0.0
C261 C 0.13079 0.34135 0.17876 0.0
C262 C 0.04541 0.32868 0.14559 0.0
Eu263 Eu 0.21481 0.25191 0.21291 0.0
N264 N 0.14875 0.19171 0.22014 0.0
C265 C 0.158 0.14128 0.22926 0.0
C266 C 0.07241 0.12218 0.20228 0.0
C267 C 0.11962 0.10594 0.2227 0.0
H268 H 0.16184 0.36683 0.18434 0.0
H269 H 0.12707 0.06607 0.2309 0.0
H270 H 0.98894 0.16505 0.15212 0.0
H271 H 0.08186 0.40114 0.14458 0.0
H272 H 0.19546 0.12799 0.23995 0.0
H273 H 0.38471 0.44885 0.33114 0.0
H274 H 0.04331 0.09474 0.19452 0.0
H275 H 0.35428 0.14766 0.37367 0.0
H276 H 0.31811 0.38586 0.31799 0.0
H277 H 0.43245 0.1147 0.42043 0.0
H278 H 0.97691 0.25567 0.12768 0.0
H279 H 0.46677 0.42194 0.37494 0.0
H280 H 0.51986 0.35263 0.4234 0.0
H281 H 0.01086 0.34388 0.12582 0.0
H282 H 0.53213 0.26225 0.44985 0.0
N283 N 0.36484 0.32289 0.34173 0.0
C284 C 0.35518 0.37314 0.33132 0.0
C285 C 0.43876 0.39388 0.36496 0.0
C286 C 0.44751 0.34265 0.37913 0.0
C287 C 0.39249 0.40915 0.34037 0.0
C288 C 0.41007 0.30741 0.36444 0.0
H289 H 0.50003 0.17335 0.44855 0.0
N290 N 0.37868 0.22431 0.36931 0.0
C291 C 0.4284 0.15476 0.40993 0.0
C292 C 0.41686 0.25661 0.37982 0.0
C293 C 0.38416 0.1737 0.38281 0.0
C294 C 0.46653 0.18796 0.42539 0.0
C295 C 0.46121 0.23956 0.41012 0.0
O296 O 0.28514 0.23433 0.44983 0.0
O297 O 0.22448 0.22933 0.32006 0.0
O298 O 0.17308 0.2961 0.29299 0.0
O299 O 0.24438 0.32845 0.3388 0.0
O300 O 0.27072 0.18274 0.37448 0.0
O301 O 0.28922 0.31492 0.42711 0.0
O302 O 0.22989 0.27921 0.11041 0.0
O303 O 0.28985 0.28371 0.23999 0.0
O304 O 0.34176 0.21816 0.26627 0.0
O305 O 0.27038 0.18573 0.22069 0.0
O306 O 0.24449 0.3305 0.18471 0.0
O307 O 0.22113 0.19889 0.13232 0.0
C308 C 0.22709 0.18578 0.34881 0.0
C309 C 0.31118 0.28538 0.53478 0.0
C310 C 0.30958 0.278 0.65558 0.0
C311 C 0.2847 0.27643 0.59562 0.0
C312 C 0.36171 0.28792 0.65399 0.0
C313 C 0.36276 0.29719 0.53403 0.0
C314 C 0.38809 0.29769 0.59331 0.0
C315 C 0.19491 0.3288 0.33081 0.0
C316 C 0.28422 0.27937 0.47356 0.0
C317 C 0.49811 0.27457 0.42588 0.0
C318 C 0.49123 0.326 0.41053 0.0
C319 C 0.28794 0.32708 0.21082 0.0
C320 C 0.19902 0.23106 1.02591 0.0
C321 C 0.22456 0.24092 0.96465 0.0
C322 C 0.19848 0.24166 0.90545 0.0
C323 C 0.14594 0.23386 0.90854 0.0
C324 C 0.14696 0.22121 1.02811 0.0
C325 C 0.1204 0.22336 0.9697 0.0
C326 C 0.31999 0.18591 0.22756 0.0
C327 C 0.22757 0.23449 0.0862 0.0
H328 H 0.24483 0.2673 0.59612 0.0
H329 H 0.38171 0.28867 0.69968 0.0
H330 H 0.38355 0.30581 0.48823 0.0
H331 H 0.42822 0.30545 0.5921 0.0
H332 H 0.26476 0.24894 0.96334 0.0
H333 H 0.12489 0.23528 0.86367 0.0
H334 H 0.12677 0.21224 0.07442 0.0
H335 H 0.07998 0.21697 0.97189 0.0
Eu336 Eu 0.8071 0.25313 0.22075 0.0
C337 C 0.59043 0.25942 0.30611 0.0
C338 C 0.56897 0.34692 0.28361 0.0
C339 C 0.51385 0.28054 0.24879 0.0
C340 C 0.60271 0.30999 0.30769 0.0
C341 C 0.54511 0.24414 0.27873 0.0
C342 C 0.52571 0.33192 0.25148 0.0
C343 C 0.56211 0.15912 0.32009 0.0
N344 N 0.62167 0.22527 0.33481 0.0
C345 C 0.60682 0.17616 0.34621 0.0
C346 C 0.5319 0.19298 0.28449 0.0
Eu347 Eu 0.70411 0.25501 0.3527 0.0
N348 N 0.64606 0.32305 0.33647 0.0
C349 C 0.654 0.37225 0.3514 0.0
C350 C 0.57892 0.39763 0.29439 0.0
C351 C 0.62074 0.41018 0.33026 0.0
H352 H 0.63156 0.14956 0.37077 0.0
H353 H 0.62783 0.44919 0.34078 0.0
H354 H 0.5 0.35986 0.23157 0.0
H355 H 0.55139 0.11981 0.32643 0.0
H356 H 0.68581 0.38316 0.37917 0.0
H357 H 0.8729 0.05555 0.20804 0.0
H358 H 0.55375 0.4271 0.27707 0.0
H359 H 0.89126 0.35074 0.20719 0.0
H360 H 0.82011 0.12805 0.17678 0.0
H361 H 0.97066 0.37252 0.26062 0.0
H362 H 0.47924 0.26957 0.22644 0.0
H363 H 0.94613 0.06707 0.27806 0.0
H364 H 1.00289 0.12623 0.33468 0.0
H365 H 0.49749 0.17959 0.26422 0.0
H366 H 0.0287 0.21395 0.35158 0.0
N367 N 0.86054 0.18059 0.23251 0.0
C368 C 0.85089 0.13398 0.20894 0.0
C369 C 0.92283 0.09914 0.26482 0.0
C370 C 0.93522 0.14759 0.28357 0.0
C371 C 0.88139 0.09255 0.22554 0.0
C372 C 0.90378 0.18817 0.26448 0.0
H373 H 0.01632 0.30642 0.32437 0.0
N374 N 0.89138 0.27467 0.2446 0.0
C375 C 0.95625 0.33432 0.26486 0.0
C376 C 0.91891 0.2371 0.27257 0.0
C377 C 0.91176 0.32185 0.23427 0.0
C378 C 0.9819 0.29703 0.30107 0.0
C379 C 0.96481 0.24715 0.30224 0.0
O380 O 0.84986 0.2712 0.12678 0.0
O381 O 0.72959 0.28128 0.24904 0.0
O382 O 0.68322 0.2084 0.26772 0.0
O383 O 0.75831 0.18356 0.21424 0.0
O384 O 0.77791 0.33254 0.19896 0.0
O385 O 0.77274 0.24578 0.12442 0.0
O386 O 0.66238 0.23493 0.44671 0.0
O387 O 0.78194 0.22736 0.32464 0.0
O388 O 0.82387 0.31181 0.29587 0.0
O389 O 0.75016 0.32507 0.3619 0.0
O390 O 0.73315 0.17508 0.3714 0.0
O391 O 0.73786 0.26493 0.44898 0.0
C392 C 0.73214 0.32559 0.22297 0.0
C393 C 0.82414 0.23477 1.02631 0.0
C394 C 0.80731 0.22489 0.90791 0.0
C395 C 0.79657 0.24776 0.96948 0.0
C396 C 0.8463 0.18859 0.90489 0.0
C397 C 0.86233 0.19819 1.02172 0.0
C398 C 0.87327 0.17534 0.96127 0.0
C399 C 0.70916 0.17986 0.22641 0.0
C400 C 0.81269 0.26058 0.08925 0.0
C401 C 0.99355 0.20692 0.32804 0.0
C402 C 0.97896 0.15705 0.31819 0.0
C403 C 0.7791 0.18263 0.34886 0.0
C404 C 0.68563 0.27234 0.54749 0.0
C405 C 0.7122 0.25894 0.60501 0.0
C406 C 0.69969 0.28059 0.66692 0.0
C407 C 0.65987 0.31596 0.66971 0.0
C408 C 0.64649 0.30794 0.55184 0.0
C409 C 0.63373 0.3295 0.61271 0.0
C410 C 0.797 0.33604 0.34163 0.0
C411 C 0.69883 0.24768 0.48419 0.0
H412 H 0.76655 0.2755 0.97361 0.0
H413 H 0.85669 0.17086 0.85859 0.0
H414 H 0.88386 0.18754 0.06466 0.0
H415 H 0.90314 0.14743 0.95789 0.0
H416 H 0.74285 0.23184 0.60124 0.0
H417 H 0.64827 0.33272 0.71627 0.0
H418 H 0.62562 0.31879 0.50838 0.0
H419 H 0.60315 0.35663 0.61591 0.0
Eu420 Eu 0.79964 0.76175 0.84725 0.0
C421 C 0.59631 0.75898 0.68682 0.0
C422 C 0.56413 0.67342 0.68974 0.0
C423 C 0.51216 0.74246 0.64858 0.0
C424 C 0.60296 0.70798 0.70134 0.0
C425 C 0.55058 0.77681 0.6609 0.0
C426 C 0.51898 0.69089 0.66277 0.0
C427 C 0.58543 0.86093 0.65629 0.0
N428 N 0.63575 0.79065 0.69358 0.0
C429 C 0.63079 0.84124 0.67919 0.0
C430 C 0.54546 0.82847 0.64589 0.0
Eu431 Eu 0.71496 0.75192 0.71312 0.0
N432 N 0.64898 0.69162 0.72034 0.0
C433 C 0.65832 0.6412 0.72938 0.0
C434 C 0.57277 0.62198 0.70237 0.0
C435 C 0.62 0.60581 0.72277 0.0
H436 H 0.6618 0.86675 0.68481 0.0
H437 H 0.62752 0.56595 0.7309 0.0
H438 H 0.48927 0.66475 0.65214 0.0
H439 H 0.5818 0.90099 0.64504 0.0
H440 H 0.69581 0.62797 0.74005 0.0
H441 H 0.885 0.94876 0.83135 0.0
H442 H 0.54372 0.5945 0.69453 0.0
H443 H 0.85443 0.64755 0.87364 0.0
H444 H 0.81836 0.88582 0.8181 0.0
H445 H 0.93261 0.61453 0.92029 0.0
H446 H 0.4771 0.75537 0.62781 0.0
H447 H 0.967 0.92178 0.87525 0.0
H448 H 0.02008 0.85242 0.92359 0.0
H449 H 0.51092 0.84363 0.62606 0.0
H450 H 0.03234 0.76202 0.94986 0.0
N451 N 0.86504 0.82282 0.84189 0.0
C452 C 0.85542 0.87307 0.83145 0.0
C453 C 0.93899 0.89374 0.86522 0.0
C454 C 0.9477 0.84251 0.87936 0.0
C455 C 0.89274 0.90906 0.84057 0.0
C456 C 0.91025 0.80729 0.86464 0.0
H457 H 1.00022 0.67313 0.94845 0.0
N458 N 0.87884 0.72419 0.86938 0.0
C459 C 0.92856 0.6546 0.90986 0.0
C460 C 0.91703 0.75647 0.87993 0.0
C461 C 0.88432 0.67358 0.88281 0.0
C462 C 0.96671 0.68777 0.92534 0.0
C463 C 0.9614 0.73939 0.91017 0.0
O464 O 0.78475 0.7342 0.94978 0.0
O465 O 0.72462 0.72932 0.82025 0.0
O466 O 0.67326 0.79602 0.79335 0.0
O467 O 0.74456 0.82843 0.83908 0.0
O468 O 0.77094 0.68266 0.87442 0.0
O469 O 0.79013 0.81477 0.9275 0.0
O470 O 0.72941 0.77931 0.61051 0.0
O471 O 0.78997 0.78376 0.74015 0.0
O472 O 0.84201 0.71821 0.76639 0.0
O473 O 0.77062 0.68581 0.72078 0.0
O474 O 0.74457 0.83054 0.68494 0.0
O475 O 0.72188 0.69888 0.63262 0.0
C476 C 0.72726 0.68574 0.84888 0.0
C477 C 0.81162 0.7844 0.03504 0.0
C478 C 0.81009 0.77543 0.15573 0.0
C479 C 0.78516 0.77482 0.09573 0.0
C480 C 0.86231 0.78488 0.15426 0.0
C481 C 0.86327 0.79593 0.03446 0.0
C482 C 0.88869 0.79538 0.09374 0.0
C483 C 0.69509 0.82873 0.83116 0.0
C484 C 0.78456 0.77915 0.97375 0.0
C485 C 0.99831 0.77437 0.92595 0.0
C486 C 0.99143 0.82581 0.91071 0.0
C487 C 0.78803 0.82713 0.711 0.0
C488 C 0.6993 0.73043 0.52616 0.0
C489 C 0.72492 0.73947 0.46475 0.0
C490 C 0.69886 0.73952 0.40557 0.0
C491 C 0.64634 0.73168 0.40872 0.0
C492 C 0.64722 0.72069 0.52848 0.0
C493 C 0.62072 0.72205 0.47003 0.0
C494 C 0.82024 0.686 0.72763 0.0
C495 C 0.72778 0.73449 0.58641 0.0
H496 H 0.74524 0.76597 0.09605 0.0
H497 H 0.88239 0.78477 0.19993 0.0
H498 H 0.88403 0.80511 0.9888 0.0
H499 H 0.92886 0.80293 0.09267 0.0
H500 H 0.76513 0.74745 0.4633 0.0
H501 H 0.62536 0.73246 0.36379 0.0
H502 H 0.62696 0.71242 0.57492 0.0
H503 H 0.58029 0.71577 0.47232 0.0
Eu504 Eu 0.50451 0.46312 0.96361 0.0
C505 C 0.50783 0.66503 0.12967 0.0
C506 C 0.59391 0.69627 0.12554 0.0
C507 C 0.52581 0.74772 0.17169 0.0
C508 C 0.55866 0.65823 0.11312 0.0
C509 C 0.49082 0.71001 0.15882 0.0
C510 C 0.57724 0.74083 0.15522 0.0
C511 C 0.40617 0.67605 0.16434 0.0
N512 N 0.47557 0.62631 0.12172 0.0
C513 C 0.42508 0.63143 0.13784 0.0
C514 C 0.43933 0.71511 0.17618 0.0
Eu515 Eu 0.5132 0.5472 0.09853 0.0
N516 N 0.57427 0.61255 0.09173 0.0
C517 C 0.62465 0.60277 0.0814 0.0
C518 C 0.64523 0.68734 0.11104 0.0
C519 C 0.66066 0.64043 0.08846 0.0
H520 H 0.39912 0.60096 0.13131 0.0
H521 H 0.70045 0.63255 0.07915 0.0
H522 H 0.60388 0.77004 0.16606 0.0
H523 H 0.36621 0.67974 0.17729 0.0
H524 H 0.63746 0.56542 0.06935 0.0
H525 H 0.31759 0.37683 0.97895 0.0
H526 H 0.67326 0.71571 0.11947 0.0
H527 H 0.61929 0.40948 0.93437 0.0
H528 H 0.38023 0.44353 0.99307 0.0
H529 H 0.65278 0.33248 0.88404 0.0
H530 H 0.51349 0.78228 0.19455 0.0
H531 H 0.34505 0.29558 0.93282 0.0
H532 H 0.41496 0.24348 0.88241 0.0
H533 H 0.42483 0.74904 0.19868 0.0
H534 H 0.50562 0.23226 0.85444 0.0
N535 N 0.44369 0.39751 0.96794 0.0
C536 C 0.39327 0.40673 0.97894 0.0
C537 C 0.37303 0.3236 0.9432 0.0
C538 C 0.42443 0.31539 0.92821 0.0
C539 C 0.35742 0.3694 0.9692 0.0
C540 C 0.45952 0.3528 0.9436 0.0
H541 H 0.5944 0.26488 0.85535 0.0
N542 N 0.54265 0.38459 0.93903 0.0
C543 C 0.61262 0.33605 0.89563 0.0
C544 C 0.51047 0.34657 0.92735 0.0
C545 C 0.59339 0.37962 0.92466 0.0
C546 C 0.57958 0.29796 0.87961 0.0
C547 C 0.52783 0.3028 0.89558 0.0
O548 O 0.53286 0.47723 0.86107 0.0
O549 O 0.53567 0.53866 0.99081 0.0
O550 O 0.46753 0.58877 1.02 0.0
O551 O 0.43708 0.51745 0.97195 0.0
O552 O 0.58363 0.49258 0.93726 0.0
O553 O 0.45191 0.47309 0.88354 0.0
O554 O 0.48544 0.53426 0.20155 0.0
O555 O 0.48164 0.47214 0.07104 0.0
O556 O 0.54826 0.4205 0.04348 0.0
O557 O 0.5798 0.49176 0.0902 0.0
O558 O 0.43428 0.51785 0.12602 0.0
O559 O 0.56624 0.5371 0.17802 0.0
C560 C 0.57954 0.53642 0.96226 0.0
C561 C 0.48234 0.45056 0.77596 0.0
C562 C 0.49184 0.45111 0.65527 0.0
C563 C 0.49542 0.47557 0.71542 0.0
C564 C 0.47714 0.40023 0.65647 0.0
C565 C 0.46561 0.40048 0.77632 0.0
C566 C 0.46426 0.37505 0.717 0.0
C567 C 0.43552 0.5667 0.98133 0.0
C568 C 0.48789 0.47777 0.83724 0.0
C569 C 0.493 0.26588 0.87935 0.0
C570 C 0.44143 0.27218 0.89553 0.0
C571 C 0.43791 0.47436 0.09996 0.0
C572 C 0.53716 0.5609 0.28534 0.0
C573 C 0.52777 0.53565 0.34673 0.0
C574 C 0.53184 0.56095 0.40623 0.0
C575 C 0.54416 0.61251 0.40352 0.0
C576 C 0.55083 0.61193 0.28335 0.0
C577 C 0.55338 0.63782 0.34212 0.0
C578 C 0.58006 0.44224 0.0828 0.0
C579 C 0.53059 0.53313 0.22482 0.0
H580 H 0.50859 0.51418 0.71524 0.0
H581 H 0.47461 0.38042 0.61068 0.0
H582 H 0.45345 0.38106 0.8218 0.0
H583 H 0.45292 0.33593 0.71803 0.0
H584 H 0.5166 0.49635 0.34801 0.0
H585 H 0.54726 0.63294 0.44872 0.0
H586 H 0.55949 0.63182 0.23695 0.0
H587 H 0.56245 0.67754 0.3399 0.0
Eu588 Eu 0.00954 0.45613 0.59033 0.0
C589 C 0.00936 0.67671 0.50056 0.0
C590 C 0.9244 0.70396 0.52976 0.0
C591 C 0.99608 0.75581 0.55577 0.0
C592 C 0.95819 0.66767 0.50412 0.0
C593 C 0.0291 0.72139 0.52469 0.0
C594 C 0.94372 0.74717 0.55799 0.0
C595 C 0.11149 0.69597 0.48065 0.0
N596 N 0.03982 0.6419 0.47176 0.0
C597 C 0.09002 0.65175 0.45854 0.0
C598 C 0.08114 0.73029 0.5155 0.0
Eu599 Eu 1.00385 0.56099 0.46003 0.0
N600 N 0.94145 0.62415 0.47972 0.0
C601 C 0.89096 0.6172 0.472 0.0
C602 C 0.87247 0.69615 0.52475 0.0
C603 C 0.85576 0.65322 0.49405 0.0
H604 H 0.114 0.62397 0.43491 0.0
H605 H 0.81571 0.64723 0.48887 0.0
H606 H 0.9184 0.7751 0.57879 0.0
H607 H 0.15157 0.70302 0.47215 0.0
H608 H 0.87731 0.58356 0.45031 0.0
H609 H 0.20166 0.37701 0.57051 0.0
H610 H 0.84516 0.72339 0.54316 0.0
H611 H 0.90494 0.38503 0.62198 0.0
H612 H 0.13655 0.43832 0.60579 0.0
H613 H 0.87118 0.30437 0.58404 0.0
H614 H 0.01032 0.79013 0.57559 0.0
H615 H 0.17699 0.29958 0.51498 0.0
H616 H 0.10724 0.24446 0.47708 0.0
H617 H 0.09798 0.76413 0.53316 0.0
H618 H 0.01599 0.22518 0.4783 0.0
N619 N 0.07525 0.39592 0.5715 0.0
C620 C 0.125 0.40452 0.58253 0.0
C621 C 0.14821 0.32606 0.53131 0.0
C622 C 0.09697 0.31631 0.52348 0.0
C623 C 0.16219 0.36972 0.56268 0.0
C624 C 0.06111 0.35169 0.54645 0.0
H625 H 0.92703 0.24738 0.51958 0.0
N626 N 0.97855 0.37312 0.57878 0.0
C627 C 0.91046 0.3142 0.57341 0.0
C628 C 0.01054 0.34038 0.54877 0.0
C629 C 0.92979 0.35932 0.59573 0.0
C630 C 0.94204 0.28227 0.53643 0.0
C631 C 0.99334 0.29424 0.52588 0.0
O632 O 0.97642 0.43615 0.68988 0.0
O633 O 0.98054 0.53286 0.56309 0.0
O634 O 0.04664 0.58303 0.54774 0.0
O635 O 0.07899 0.50702 0.58884 0.0
O636 O 0.93187 0.48697 0.62065 0.0
O637 O 0.0478 0.47557 0.68044 0.0
O638 O 0.04074 0.57333 0.36071 0.0
O639 O 0.03121 0.48289 0.48582 0.0
O640 O 0.95557 0.43577 0.51141 0.0
O641 O 0.93407 0.51249 0.45819 0.0
O642 O 0.08182 0.53 0.43255 0.0
O643 O 0.96147 0.55255 0.37014 0.0
C644 C 0.93762 0.5315 0.59345 0.0
C645 C 0.02527 0.43746 0.78715 0.0
C646 C 0.0291 0.44912 0.90773 0.0
C647 C 0.01737 0.46744 0.84323 0.0
C648 C 0.04918 0.39996 0.91445 0.0
C649 C 0.04547 0.38889 0.79528 0.0
C650 C 0.05737 0.37033 0.85872 0.0
C651 C 0.07975 0.55679 0.58181 0.0
C652 C 0.01181 0.45813 0.72109 0.0
C653 C 0.02834 0.2608 0.49662 0.0
C654 C 0.08025 0.27176 0.49579 0.0
C655 C 0.07483 0.48491 0.45736 0.0
C656 C 0.99286 0.58289 0.26256 0.0
C657 C 1.00212 0.55302 0.20665 0.0
C658 C 0.99364 0.57219 0.14154 0.0
C659 C 0.97602 0.62219 0.13376 0.0
C660 C 0.97522 0.63239 0.25345 0.0
C661 C 0.96699 0.65189 0.18923 0.0
C662 C 0.92701 0.46402 0.47256 0.0
C663 C 1.00075 0.56066 0.32965 0.0
H664 H 1.00252 0.50533 0.83624 0.0
H665 H 0.05793 0.38393 0.96294 0.0
H666 H 0.0519 0.36542 0.75274 0.0
H667 H 0.07277 0.33265 0.86487 0.0
H668 H 0.01496 0.51443 0.21416 0.0
H669 H 0.96968 0.63863 0.08468 0.0
H670 H 0.96766 0.6557 0.29587 0.0
H671 H 0.95343 0.69023 0.18235 0.0
C672 C 0.16525 0.065 0.42046 0.0
C673 C 0.11471 0.07823 0.43611 0.0
H674 H 0.2385 0.08765 0.38121 0.0
C675 C 0.09968 0.12828 0.41961 0.0
H676 H 0.17841 0.02698 0.43151 0.0
C677 C 0.13469 0.16355 0.38821 0.0
C678 C 0.18559 0.14973 0.37373 0.0
H679 H 0.06097 0.13985 0.43001 0.0
H680 H 0.12225 0.20157 0.37601 0.0
C681 C 0.19986 0.09993 0.39085 0.0
C682 C 0.15679 0.93526 0.65188 0.0
C683 C 0.11823 0.91122 0.6188 0.0
H684 H 0.22217 0.92701 0.71089 0.0
C685 C 0.11613 0.85809 0.62317 0.0
H686 H 0.16002 0.976 0.64981 0.0
C687 C 0.15163 0.82997 0.65953 0.0
C688 C 0.18985 0.85437 0.69266 0.0
H689 H 0.08691 0.83831 0.59885 0.0
H690 H 0.14979 0.78918 0.66068 0.0
C691 C 0.19234 0.90724 0.68748 0.0
C692 C 0.31866 0.87798 0.9442 0.0
C693 C 0.32196 0.87649 0.87452 0.0
H694 H 0.34964 0.90849 1.03058 0.0
C695 C 0.3546 0.90951 0.83749 0.0
H696 H 0.29337 0.85296 0.97358 0.0
C697 C 0.38688 0.94067 0.86998 0.0
C698 C 0.38671 0.9388 0.93968 0.0
H699 H 0.35646 0.90984 0.78362 0.0
H700 H 0.41396 0.96382 0.84072 0.0
C701 C 0.35117 0.90898 0.9767 0.0
C702 C 0.35552 0.07076 0.12802 0.0
C703 C 0.40834 0.07451 0.12049 0.0
H704 H 0.28648 0.10269 0.16665 0.0
C705 C 0.43248 0.11493 0.14942 0.0
H706 H 0.33608 0.03924 0.10787 0.0
C707 C 0.40405 0.1512 0.18437 0.0
C708 C 0.35101 0.14751 0.1916 0.0
H709 H 0.47331 0.11785 0.14636 0.0
H710 H 0.42345 0.18232 0.20528 0.0
C711 C 0.32719 0.10701 0.16229 0.0
C712 C 0.9162 0.88252 0.64045 0.0
C713 C 0.90194 0.93282 0.62422 0.0
H714 H 0.89251 0.80955 0.6839 0.0
C715 C 0.85159 0.94682 0.63961 0.0
H716 H 0.95471 0.87036 0.62987 0.0
C717 C 0.81646 0.91243 0.66903 0.0
C718 C 0.83003 0.86247 0.68624 0.0
H719 H 0.83905 0.98508 0.62868 0.0
H720 H 0.77798 0.92527 0.67858 0.0
C721 C 0.88068 0.8478 0.67183 0.0
C722 C 0.89579 0.1502 0.44673 0.0
C723 C 0.89543 0.09708 0.44792 0.0
H724 H 0.86006 0.21916 0.41325 0.0
C725 C 0.85697 0.07292 0.41477 0.0
H726 H 0.92503 0.16993 0.47107 0.0
C727 C 0.82015 0.10094 0.38144 0.0
C728 C 0.82125 0.15387 0.37893 0.0
H729 H 0.85507 0.03214 0.41462 0.0
H730 H 0.79073 0.08113 0.35728 0.0
C731 C 0.85907 0.17833 0.41275 0.0
C732 C 0.63152 0.16477 0.16966 0.0
C733 C 0.67917 0.14712 0.18704 0.0
H734 H 0.56218 0.14895 0.12695 0.0
C735 C 0.69506 0.09862 0.16959 0.0
H736 H 0.61871 0.20233 0.18143 0.0
C737 C 0.66245 0.06775 0.13608 0.0
C738 C 0.6144 0.08582 0.11977 0.0
H739 H 0.73179 0.08443 0.18299 0.0
H740 H 0.67476 0.03038 0.12252 0.0
C741 C 0.59928 0.13428 0.13756 0.0
C742 C 0.61077 0.86495 0.86893 0.0
C743 C 0.66385 0.86814 0.8646 0.0
H744 H 0.54059 0.89845 0.90345 0.0
C745 C 0.68699 0.909 0.89391 0.0
H746 H 0.59218 0.83381 0.84732 0.0
C747 C 0.65778 0.94581 0.92598 0.0
C748 C 0.60482 0.94202 0.93139 0.0
H749 H 0.72775 0.913 0.89147 0.0
H750 H 0.67665 0.97746 0.94665 0.0
C751 C 0.58146 0.90147 0.90193 0.0
C752 C 0.59985 0.62834 0.9199 0.0
C753 C 0.61485 0.57829 0.93649 0.0
H754 H 0.62243 0.70156 0.8761 0.0
C755 C 0.6654 0.56505 0.92088 0.0
H756 H 0.56115 0.63995 0.93031 0.0
C757 C 0.70001 0.59993 0.89118 0.0
C758 C 0.68575 0.64972 0.87393 0.0
H759 H 0.67856 0.52704 0.93201 0.0
H760 H 0.73866 0.58763 0.88157 0.0
C761 C 0.63486 0.66356 0.88839 0.0
C762 C 0.65173 0.33001 0.15967 0.0
C763 C 0.6899 0.35436 0.19296 0.0
H764 H 0.58706 0.33844 0.09891 0.0
C765 C 0.69235 0.40723 0.18801 0.0
H766 H 0.64992 0.28922 0.16063 0.0
C767 C 0.65677 0.43532 0.15252 0.0
C768 C 0.61825 0.41133 0.11929 0.0
H769 H 0.72214 0.42696 0.21154 0.0
H770 H 0.65994 0.47607 0.15065 0.0
C771 C 0.61623 0.3582 0.12338 0.0
C772 C 0.85145 0.40909 0.4765 0.0
C773 C 0.88697 0.43888 0.43941 0.0
H774 H 0.7937 0.35303 0.47354 0.0
C775 C 0.88725 0.44054 0.36971 0.0
H776 H 0.84989 0.40872 0.53038 0.0
C777 C 0.85506 0.40925 0.3373 0.0
C778 C 0.82237 0.37632 0.37441 0.0
H779 H 0.91435 0.46365 0.34041 0.0
H780 H 0.85699 0.40943 0.28343 0.0
C781 C 0.81901 0.37798 0.44408 0.0
C782 C 0.82741 0.60718 0.66221 0.0
C783 C 0.85126 0.64762 0.69161 0.0
H784 H 0.83624 0.53949 0.60762 0.0
C785 C 0.90431 0.65127 0.68442 0.0
H786 H 0.78669 0.60289 0.66655 0.0
C787 C 0.9327 0.61504 0.64934 0.0
C788 C 0.90853 0.57469 0.62031 0.0
H789 H 0.92376 0.68229 0.70549 0.0
H790 H 0.97353 0.61793 0.64627 0.0
C791 C 0.8557 0.57096 0.62786 0.0
C792 C 0.31637 0.41237 0.16883 0.0
C793 C 0.32995 0.36243 0.18613 0.0
H794 H 0.33898 0.48502 0.1285 0.0
C795 C 0.38064 0.3478 0.17193 0.0
H796 H 0.27787 0.42519 0.17823 0.0
C797 C 0.4162 0.38255 0.14067 0.0
C798 C 0.40193 0.43283 0.12433 0.0
H799 H 0.39248 0.30957 0.18408 0.0
H800 H 0.45474 0.37041 0.13028 0.0
C801 C 0.35154 0.44678 0.13952 0.0
C802 C 0.3959 0.65025 0.94664 0.0
C803 C 0.39557 0.59713 0.94783 0.0
H804 H 0.36014 0.71919 0.91309 0.0
C805 C 0.35717 0.57294 0.91461 0.0
H806 H 0.42508 0.67002 0.97104 0.0
C807 C 0.32037 0.60093 0.88121 0.0
C808 C 0.32144 0.65387 0.87867 0.0
H809 H 0.35529 0.53216 0.91447 0.0
H810 H 0.291 0.5811 0.857 0.0
C811 C 0.35919 0.67835 0.91258 0.0
C812 C 0.19555 0.59872 0.66874 0.0
C813 C 0.17964 0.64716 0.68638 0.0
H814 H 0.17523 0.53057 0.62146 0.0
C815 C 0.13199 0.66485 0.66906 0.0
H816 H 0.23229 0.58451 0.68208 0.0
C817 C 0.09975 0.63444 0.63685 0.0
C818 C 0.11486 0.58601 0.61894 0.0
H819 H 0.11916 0.70237 0.68102 0.0
H820 H 0.06264 0.64913 0.62632 0.0
C821 C 0.16292 0.56792 0.63514 0.0
C822 C 0.11061 0.36527 0.36819 0.0
C823 C 0.1637 0.36827 0.36417 0.0
H824 H 0.04047 0.39893 0.40256 0.0
C825 C 0.1869 0.40898 0.39372 0.0
H826 H 0.09195 0.33433 0.34623 0.0
C827 C 0.15774 0.44583 0.42577 0.0
C828 C 0.10477 0.44219 0.43094 0.0
H829 H 0.22767 0.41284 0.3915 0.0
H830 H 0.17665 0.47737 0.44662 0.0
C831 C 0.08134 0.40179 0.40124 0.0
C832 C 0.99632 0.05562 1.0222 0.0
C833 C 0.02385 0.03264 0.97029 0.0
H834 H 0.96374 0.04737 0.12108 0.0
C835 C 0.041 0.98273 0.97966 0.0
H836 H 0.98194 0.09373 1.01598 0.0
C837 C 0.03042 0.95611 0.03966 0.0
C838 C 1.00274 0.97905 0.09143 0.0
H839 H 0.0629 0.96432 0.94077 0.0
H840 H 0.0444 0.91785 0.04578 0.0
C841 C 0.98584 0.02905 0.08224 0.0
C842 C 0.2647 0.78995 0.33304 0.0
C843 C 0.27999 0.73978 0.34625 0.0
H844 H 0.22932 0.84264 0.26635 0.0
C845 C 0.26908 0.70355 0.29935 0.0
H846 H 0.27301 0.81923 0.36698 0.0
C847 C 0.24405 0.71707 0.24116 0.0
C848 C 0.22887 0.76726 0.22791 0.0
H849 H 0.27929 0.66434 0.3079 0.0
H850 H 0.23578 0.68783 0.20713 0.0
C851 C 0.23961 0.80345 0.27489 0.0
C852 C 0.54403 0.00662 0.57757 0.0
C853 C 0.50242 0.0397 0.58237 0.0
H854 H 0.58548 0.95313 0.51925 0.0
C855 C 0.46934 0.04227 0.5294 0.0
H856 H 0.57075 1.00397 0.61679 0.0
C857 C 0.47769 0.01294 0.47326 0.0
C858 C 0.51945 0.98002 0.46816 0.0
H859 H 0.43632 0.06646 0.53174 0.0
H860 H 0.45073 0.01549 0.43435 0.0
C861 C 0.55246 0.97733 0.52135 0.0
C862 C 0.27424 0.2284 0.82963 0.0
C863 C 0.22645 0.25059 0.84094 0.0
H864 H 0.33787 0.21948 0.76183 0.0
C865 C 0.20606 0.28163 0.79072 0.0
H866 H 0.29052 0.20356 0.86701 0.0
C867 C 0.23313 0.29053 0.73042 0.0
C868 C 0.28106 0.26865 0.71945 0.0
H869 H 0.16964 0.29978 0.7984 0.0
H870 H 0.21688 0.31516 0.69278 0.0
C871 C 0.30137 0.23748 0.76951 0.0
C872 C 0.76312 0.28912 0.83368 0.0
C873 C 0.77884 0.23906 0.84674 0.0
H874 H 0.7272 0.34158 0.76719 0.0
C875 C 0.76814 0.2028 0.79979 0.0
H876 H 0.77123 0.31844 0.86765 0.0
C877 C 0.74298 0.21619 0.74166 0.0
C878 C 0.72741 0.26626 0.72856 0.0
H879 H 0.77864 0.16366 0.80822 0.0
H880 H 0.73493 0.18694 0.70754 0.0
C881 C 0.73784 0.30248 0.77563 0.0
C882 C 0.70649 0.77914 0.29075 0.0
C883 C 0.72679 0.74807 0.34099 0.0
H884 H 0.71745 0.81274 0.19291 0.0
C885 C 0.77449 0.72571 0.32973 0.0
H886 H 0.67014 0.79743 0.29843 0.0
C887 C 0.80163 0.73464 0.26957 0.0
C888 C 0.78146 0.76592 0.21951 0.0
H889 H 0.79069 0.7009 0.36721 0.0
H890 H 0.83807 0.71652 0.26193 0.0
C891 C 0.7336 0.78797 0.23049 0.0
C892 C 0.53096 0.457 0.53993 0.0
C893 C 0.50264 0.47926 0.59167 0.0
H894 H 0.5634 0.46598 0.44111 0.0
C895 C 0.48454 0.52883 0.58254 0.0
H896 H 0.54589 0.4191 0.54602 0.0
C897 C 0.49446 0.55565 0.52255 0.0
C898 C 0.52261 0.53332 0.47065 0.0
H899 H 0.46196 0.54662 0.62138 0.0
H900 H 0.47918 0.5934 0.51637 0.0
C901 C 0.54097 0.48386 0.47998 0.0
C902 C 0.05329 0.47848 1.02076 0.0
C903 C 0.02013 0.48076 0.96772 0.0
H904 H 0.07145 0.50534 0.11613 0.0
C905 C 0.978 0.51321 0.973 0.0
H906 H 0.08657 0.45465 1.01853 0.0
C907 C 0.96944 0.54247 1.02915 0.0
C908 C 1.00266 0.54029 0.08198 0.0
H909 H 0.95091 0.51542 0.93422 0.0
H910 H 0.93615 0.56628 0.03165 0.0
C911 C 0.04463 0.50768 0.07701 0.0
loop_
_geom_bond_atom_site_label_1
_geom_bond_atom_site_label_2
_geom_bond_distance
_geom_bond_site_symmetry_2
_ccdc_geom_bond_type
Eu0 N31 2.645 1_455 S
Eu0 N38 2.609 1_455 S
Eu0 O44 2.565 . S
Eu0 O45 2.617 1_565 S
Eu0 O47 2.329 1_465 S
Eu0 O48 2.573 1_565 S
Eu0 O49 2.416 1_455 S
Eu0 O51 2.375 1_455 S
Eu0 O52 2.442 . S
Eu0 C64 2.850 . S
C1 C4 1.429 . S
C1 C5 1.411 . S
C1 N8 1.377 . S
C2 C4 1.420 . S
C2 C6 1.423 . S
C2 C14 1.392 . S
C3 C5 1.420 . S
C3 C6 1.351 . S
C3 H26 0.931 . S
C4 C1 1.429 . S
C4 C2 1.420 . S
C4 N12 1.362 . S
C5 C1 1.411 . S
C5 C3 1.420 . S
C5 C10 1.395 . S
C6 C2 1.423 . S
C6 C3 1.351 . S
C6 H18 0.930 . S
C7 C9 1.400 . S
C7 C10 1.386 1_655 S
C7 H19 0.930 . S
N8 C1 1.377 . S
N8 C9 1.321 1_455 S
N8 Eu11 2.609 1_455 S
C9 C7 1.400 . S
C9 N8 1.321 1_655 S
C9 H16 0.930 . S
C10 C5 1.395 . S
C10 C7 1.386 1_455 S
C10 H29 0.930 . S
Eu11 N8 2.609 1_655 S
Eu11 N12 2.649 1_655 S
Eu11 O45 2.377 1_655 S
Eu11 O46 2.438 . S
Eu11 O50 2.562 . S
Eu11 O51 2.615 1_545 S
Eu11 O53 2.333 1_645 S
Eu11 O54 2.569 1_545 S
Eu11 O55 2.417 1_655 S
Eu11 C75 2.849 . S
N12 C4 1.362 . S
N12 Eu11 2.649 1_455 S
N12 C13 1.334 . S
C13 N12 1.334 . S
C13 C15 1.413 . S
C13 H20 0.929 . S
C14 C2 1.392 . S
C14 C15 1.367 . S
C14 H22 0.930 . S
C15 C13 1.413 . S
C15 C14 1.367 . S
C15 H17 0.930 . S
H16 C9 0.930 . S
H17 C15 0.930 . S
H18 C6 0.930 . S
H19 C7 0.930 . S
H20 C13 0.929 . S
H21 C35 0.930 . S
H22 C14 0.930 . S
H23 C41 0.930 . S
H24 C32 0.929 . S
H25 C39 0.930 . S
H26 C3 0.931 . S
H27 C33 0.930 . S
H28 C66 0.930 . S
H29 C10 0.930 . S
H30 C65 0.931 . S
N31 Eu0 2.645 1_655 S
N31 C32 1.334 . S
N31 C36 1.362 . S
C32 H24 0.929 . S
C32 N31 1.334 . S
C32 C35 1.413 . S
C33 H27 0.930 . S
C33 C34 1.392 . S
C33 C35 1.367 . S
C34 C33 1.392 . S
C34 C36 1.420 . S
C34 C66 1.423 . S
C35 H21 0.930 . S
C35 C32 1.413 . S
C35 C33 1.367 . S
C36 N31 1.362 . S
C36 C34 1.420 . S
C36 C40 1.429 . S
H37 C42 0.930 . S
N38 Eu0 2.609 1_655 S
N38 C40 1.377 . S
N38 C41 1.321 1_655 S
C39 H25 0.930 . S
C39 C41 1.400 . S
C39 C42 1.386 1_455 S
C40 C36 1.429 . S
C40 N38 1.377 . S
C40 C43 1.411 . S
C41 H23 0.930 . S
C41 N38 1.321 1_455 S
C41 C39 1.400 . S
C42 H37 0.930 . S
C42 C39 1.386 1_655 S
C42 C43 1.395 . S
C43 C40 1.411 . S
C43 C42 1.395 . S
C43 C65 1.420 . S
O44 Eu0 2.565 . S
O44 C64 1.257 . S
O45 Eu0 2.617 1_545 S
O45 Eu11 2.377 1_455 S
O45 C56 1.276 . S
O46 Eu11 2.438 . S
O46 C63 1.264 . S
O47 Eu0 2.329 1_645 S
O47 C63 1.254 . S
O48 Eu0 2.573 1_545 S
O48 C56 1.235 . S
O49 Eu0 2.416 1_655 S
O49 C64 1.249 1_655 S
O50 Eu11 2.562 . S
O50 C75 1.257 . S
O51 Eu0 2.375 1_655 S
O51 Eu11 2.615 1_565 S
O51 C67 1.276 . S
O52 Eu0 2.442 . S
O52 C74 1.264 . S
O53 Eu11 2.333 1_465 S
O53 C74 1.254 . S
O54 Eu11 2.569 1_565 S
O54 C67 1.235 . S
O55 Eu11 2.417 1_455 S
O55 C75 1.249 1_455 S
C56 O45 1.276 . S
C56 O48 1.235 . S
C57 C59 1.393 . S
C57 C61 1.395 . S
C57 C64 1.492 . S
C58 C59 1.392 . S
C58 C60 1.386 . S
C59 C57 1.393 . S
C59 C58 1.392 . S
C59 H76 0.930 1_455 S
C60 C58 1.386 . S
C60 C62 1.395 . S
C60 H77 0.930 . S
C61 C57 1.395 . S
C61 C62 1.379 . S
C61 H78 0.930 . S
C62 C60 1.395 . S
C62 C61 1.379 . S
C62 H79 0.930 . S
C63 O46 1.264 . S
C63 O47 1.254 . S
C64 Eu0 2.850 . S
C64 O44 1.257 . S
C64 O49 1.249 1_455 S
C64 C57 1.492 . S
C65 H30 0.931 . S
C65 C43 1.420 . S
C65 C66 1.351 . S
C66 H28 0.930 . S
C66 C34 1.423 . S
C66 C65 1.351 . S
C67 O51 1.276 . S
C67 O54 1.235 . S
C68 C69 1.393 . S
C68 C72 1.395 . S
C68 C75 1.492 . S
C69 C68 1.393 . S
C69 C70 1.392 . S
C69 H80 0.930 1_655 S
C70 C69 1.392 . S
C70 C71 1.386 . S
C71 C70 1.386 . S
C71 C73 1.395 . S
C71 H81 0.930 . S
C72 C68 1.395 . S
C72 C73 1.379 . S
C72 H82 0.930 . S
C73 C71 1.395 . S
C73 C72 1.379 . S
C73 H83 0.930 . S
C74 O52 1.264 . S
C74 O53 1.254 . S
C75 Eu11 2.849 . S
C75 O50 1.257 . S
C75 O55 1.249 1_655 S
C75 C68 1.492 . S
H76 C59 0.930 1_655 S
H77 C60 0.930 . S
H78 C61 0.930 . S
H79 C62 0.930 . S
H80 C69 0.930 1_455 S
H81 C71 0.930 . S
H82 C72 0.930 . S
H83 C73 0.930 . S
Eu84 N115 2.657 . S
Eu84 N122 2.609 . S
Eu84 O128 2.558 . S
Eu84 O129 2.612 . S
Eu84 O131 2.339 . S
Eu84 O132 2.563 . S
Eu84 O133 2.419 . S
Eu84 O135 2.380 . S
Eu84 O136 2.432 . S
Eu84 C148 2.848 . S
C85 C88 1.429 . S
C85 C89 1.411 . S
C85 N92 1.377 . S
C86 C88 1.420 . S
C86 C90 1.423 . S
C86 C98 1.392 . S
C87 C89 1.420 . S
C87 C90 1.351 . S
C87 H110 0.931 1_455 S
C88 C85 1.429 . S
C88 C86 1.420 . S
C88 N96 1.362 . S
C89 C85 1.411 . S
C89 C87 1.420 . S
C89 C94 1.395 . S
C90 C86 1.423 . S
C90 C87 1.351 . S
C90 H102 0.930 . S
C91 C93 1.400 . S
C91 C94 1.386 . S
C91 H103 0.930 . S
N92 C85 1.377 . S
N92 C93 1.321 . S
N92 Eu95 2.609 . S
C93 C91 1.400 . S
C93 N92 1.321 . S
C93 H100 0.930 . S
C94 C89 1.395 . S
C94 C91 1.386 . S
C94 H113 0.930 1_455 S
Eu95 N92 2.609 . S
Eu95 N96 2.657 . S
Eu95 O129 2.380 . S
Eu95 O130 2.432 . S
Eu95 O134 2.558 . S
Eu95 O135 2.612 . S
Eu95 O137 2.339 . S
Eu95 O138 2.563 . S
Eu95 O139 2.419 . S
Eu95 C159 2.848 . S
N96 C88 1.362 . S
N96 Eu95 2.657 . S
N96 C97 1.334 . S
C97 N96 1.334 . S
C97 C99 1.413 . S
C97 H104 0.929 . S
C98 C86 1.392 . S
C98 C99 1.367 . S
C98 H106 0.930 . S
C99 C97 1.413 . S
C99 C98 1.367 . S
C99 H101 0.930 . S
H100 C93 0.930 . S
H101 C99 0.930 . S
H102 C90 0.930 . S
H103 C91 0.930 . S
H104 C97 0.929 . S
H105 C119 0.930 . S
H106 C98 0.930 . S
H107 C125 0.930 . S
H108 C116 0.929 . S
H109 C123 0.930 . S
H110 C87 0.931 1_655 S
H111 C117 0.930 . S
H112 C150 0.930 . S
H113 C94 0.930 1_655 S
H114 C149 0.931 . S
N115 Eu84 2.657 . S
N115 C116 1.334 . S
N115 C120 1.362 . S
C116 H108 0.929 . S
C116 N115 1.334 . S
C116 C119 1.413 . S
C117 H111 0.930 . S
C117 C118 1.392 . S
C117 C119 1.367 . S
C118 C117 1.392 . S
C118 C120 1.420 . S
C118 C150 1.423 . S
C119 H105 0.930 . S
C119 C116 1.413 . S
C119 C117 1.367 . S
C120 N115 1.362 . S
C120 C118 1.420 . S
C120 C124 1.429 . S
H121 C126 0.930 . S
N122 Eu84 2.609 . S
N122 C124 1.377 . S
N122 C125 1.321 . S
C123 H109 0.930 . S
C123 C125 1.400 . S
C123 C126 1.386 . S
C124 C120 1.429 . S
C124 N122 1.377 . S
C124 C127 1.411 . S
C125 H107 0.930 . S
C125 N122 1.321 . S
C125 C123 1.400 . S
C126 H121 0.930 . S
C126 C123 1.386 . S
C126 C127 1.395 . S
C127 C124 1.411 . S
C127 C126 1.395 . S
C127 C149 1.420 . S
O128 Eu84 2.558 . S
O128 C148 1.257 . S
O129 Eu84 2.612 . S
O129 Eu95 2.380 . S
O129 C140 1.276 . S
O130 Eu95 2.432 . S
O130 C147 1.264 . S
O131 Eu84 2.339 . S
O131 C147 1.254 . S
O132 Eu84 2.563 . S
O132 C140 1.235 . S
O133 Eu84 2.419 . S
O133 C148 1.249 . S
O134 Eu95 2.558 . S
O134 C159 1.257 . S
O135 Eu84 2.380 . S
O135 Eu95 2.612 . S
O135 C151 1.276 . S
O136 Eu84 2.432 . S
O136 C158 1.264 . S
O137 Eu95 2.339 . S
O137 C158 1.254 . S
O138 Eu95 2.563 . S
O138 C151 1.235 . S
O139 Eu95 2.419 . S
O139 C159 1.249 . S
C140 O129 1.276 . S
C140 O132 1.235 . S
C141 C143 1.393 . S
C141 C145 1.395 . S
C141 C148 1.492 . S
C142 C143 1.392 . S
C142 C144 1.386 . S
C143 C141 1.393 . S
C143 C142 1.392 . S
C143 H160 0.930 . S
C144 C142 1.386 . S
C144 C146 1.395 . S
C144 H161 0.930 . S
C145 C141 1.395 . S
C145 C146 1.379 . S
C145 H162 0.930 . S
C146 C144 1.395 . S
C146 C145 1.379 . S
C146 H163 0.930 . S
C147 O130 1.264 . S
C147 O131 1.254 . S
C148 Eu84 2.848 . S
C148 O128 1.257 . S
C148 O133 1.249 . S
C148 C141 1.492 . S
C149 H114 0.931 . S
C149 C127 1.420 . S
C149 C150 1.351 . S
C150 H112 0.930 . S
C150 C118 1.423 . S
C150 C149 1.351 . S
C151 O135 1.276 . S
C151 O138 1.235 . S
C152 C153 1.393 . S
C152 C156 1.395 . S
C152 C159 1.492 1_554 S
C153 C152 1.393 . S
C153 C154 1.392 . S
C153 H164 0.930 . S
C154 C153 1.392 . S
C154 C155 1.386 . S
C155 C154 1.386 . S
C155 C157 1.395 . S
C155 H165 0.930 . S
C156 C152 1.395 . S
C156 C157 1.379 . S
C156 H166 0.930 . S
C157 C155 1.395 . S
C157 C156 1.379 . S
C157 H167 0.930 . S
C158 O136 1.264 . S
C158 O137 1.254 . S
C159 Eu95 2.848 . S
C159 O134 1.257 . S
C159 O139 1.249 . S
C159 C152 1.492 1_556 S
H160 C143 0.930 . S
H161 C144 0.930 . S
H162 C145 0.930 . S
H163 C146 0.930 . S
H164 C153 0.930 . S
H165 C155 0.930 . S
H166 C156 0.930 . S
H167 C157 0.930 . S
Eu168 N199 2.657 . S
Eu168 N206 2.609 . S
Eu168 O212 2.558 . S
Eu168 O213 2.612 1_565 S
Eu168 O215 2.339 1_565 S
Eu168 O216 2.563 1_565 S
Eu168 O217 2.419 . S
Eu168 O219 2.380 1_554 S
Eu168 O220 2.432 . S
Eu168 C232 2.848 . S
C169 C172 1.429 . S
C169 C173 1.411 . S
C169 N176 1.377 . S
C170 C172 1.420 . S
C170 C174 1.423 . S
C170 C182 1.392 . S
C171 C173 1.420 . S
C171 C174 1.351 . S
C171 H194 0.931 . S
C172 C169 1.429 . S
C172 C170 1.420 . S
C172 N180 1.362 . S
C173 C169 1.411 . S
C173 C171 1.420 . S
C173 C178 1.395 . S
C174 C170 1.423 . S
C174 C171 1.351 . S
C174 H186 0.930 . S
C175 C177 1.400 . S
C175 C178 1.386 . S
C175 H187 0.930 . S
N176 C169 1.377 . S
N176 C177 1.321 . S
N176 Eu179 2.609 . S
C177 C175 1.400 . S
C177 N176 1.321 . S
C177 H184 0.930 . S
C178 C173 1.395 . S
C178 C175 1.386 . S
C178 H197 0.930 . S
Eu179 N176 2.609 . S
Eu179 N180 2.657 . S
Eu179 O213 2.380 1_556 S
Eu179 O214 2.432 . S
Eu179 O218 2.558 . S
Eu179 O219 2.612 1_545 S
Eu179 O221 2.339 1_545 S
Eu179 O222 2.563 1_545 S
Eu179 O223 2.419 . S
Eu179 C243 2.848 . S
N180 C172 1.362 . S
N180 Eu179 2.657 . S
N180 C181 1.334 . S
C181 N180 1.334 . S
C181 C183 1.413 . S
C181 H188 0.929 . S
C182 C170 1.392 . S
C182 C183 1.367 . S
C182 H190 0.930 . S
C183 C181 1.413 . S
C183 C182 1.367 . S
C183 H185 0.930 . S
H184 C177 0.930 . S
H185 C183 0.930 . S
H186 C174 0.930 . S
H187 C175 0.930 . S
H188 C181 0.929 . S
H189 C203 0.930 . S
H190 C182 0.930 . S
H191 C209 0.930 . S
H192 C200 0.929 . S
H193 C207 0.930 . S
H194 C171 0.931 . S
H195 C201 0.930 . S
H196 C234 0.930 . S
H197 C178 0.930 . S
H198 C233 0.931 . S
N199 Eu168 2.657 . S
N199 C200 1.334 . S
N199 C204 1.362 . S
C200 H192 0.929 . S
C200 N199 1.334 . S
C200 C203 1.413 . S
C201 H195 0.930 . S
C201 C202 1.392 . S
C201 C203 1.367 . S
C202 C201 1.392 . S
C202 C204 1.420 . S
C202 C234 1.423 . S
C203 H189 0.930 . S
C203 C200 1.413 . S
C203 C201 1.367 . S
C204 N199 1.362 . S
C204 C202 1.420 . S
C204 C208 1.429 . S
H205 C210 0.930 . S
N206 Eu168 2.609 . S
N206 C208 1.377 . S
N206 C209 1.321 . S
C207 H193 0.930 . S
C207 C209 1.400 . S
C207 C210 1.386 . S
C208 C204 1.429 . S
C208 N206 1.377 . S
C208 C211 1.411 . S
C209 H191 0.930 . S
C209 N206 1.321 . S
C209 C207 1.400 . S
C210 H205 0.930 . S
C210 C207 1.386 . S
C210 C211 1.395 . S
C211 C208 1.411 . S
C211 C210 1.395 . S
C211 C233 1.420 . S
O212 Eu168 2.558 . S
O212 C232 1.257 . S
O213 Eu168 2.612 1_545 S
O213 Eu179 2.380 1_554 S
O213 C224 1.276 . S
O214 Eu179 2.432 . S
O214 C231 1.264 1_556 S
O215 Eu168 2.339 1_545 S
O215 C231 1.254 . S
O216 Eu168 2.563 1_545 S
O216 C224 1.235 . S
O217 Eu168 2.419 . S
O217 C232 1.249 . S
O218 Eu179 2.558 . S
O218 C243 1.257 . S
O219 Eu168 2.380 1_556 S
O219 Eu179 2.612 1_565 S
O219 C235 1.276 . S
O220 Eu168 2.432 . S
O220 C242 1.264 1_554 S
O221 Eu179 2.339 1_565 S
O221 C242 1.254 . S
O222 Eu179 2.563 1_565 S
O222 C235 1.235 . S
O223 Eu179 2.419 . S
O223 C243 1.249 . S
C224 O213 1.276 . S
C224 O216 1.235 . S
C225 C227 1.393 . S
C225 C229 1.395 . S
C225 C232 1.492 . S
C226 C227 1.392 . S
C226 C228 1.386 . S
C227 C225 1.393 . S
C227 C226 1.392 . S
C227 H244 0.948 . S
C228 C226 1.386 . S
C228 C230 1.395 . S
C228 H245 0.930 . S
C229 C225 1.395 . S
C229 C230 1.379 . S
C229 H246 0.930 . S
C230 C228 1.395 . S
C230 C229 1.379 . S
C230 H247 0.930 . S
C231 O214 1.264 1_554 S
C231 O215 1.254 . S
C232 Eu168 2.848 . S
C232 O212 1.257 . S
C232 O217 1.249 . S
C232 C225 1.492 . S
C233 H198 0.931 . S
C233 C211 1.420 . S
C233 C234 1.351 . S
C234 H196 0.930 . S
C234 C202 1.423 . S
C234 C233 1.351 . S
C235 O219 1.276 . S
C235 O222 1.235 . S
C236 C237 1.393 . S
C236 C240 1.395 . S
C236 C243 1.492 . S
C237 C236 1.393 . S
C237 C238 1.392 . S
C237 H248 0.930 . S
C238 C237 1.392 . S
C238 C239 1.386 . S
C239 C238 1.386 . S
C239 C241 1.395 . S
C239 H249 0.930 . S
C240 C236 1.395 . S
C240 C241 1.379 . S
C240 H250 0.930 . S
C241 C239 1.395 . S
C241 C240 1.379 . S
C241 H251 0.930 . S
C242 O220 1.264 1_556 S
C242 O221 1.254 . S
C243 Eu179 2.848 . S
C243 O218 1.257 . S
C243 O223 1.249 . S
C243 C236 1.492 . S
H244 C227 0.948 . S
H245 C228 0.930 . S
H246 C229 0.930 . S
H247 C230 0.930 . S
H248 C237 0.930 . S
H249 C239 0.930 . S
H250 C240 0.930 . S
H251 C241 0.930 . S
Eu252 N283 2.657 . S
Eu252 N290 2.609 . S
Eu252 O296 2.558 . S
Eu252 O297 2.612 . S
Eu252 O299 2.339 . S
Eu252 O300 2.563 . S
Eu252 O301 2.419 . S
Eu252 O303 2.380 . S
Eu252 O304 2.432 . S
Eu252 C316 2.848 . S
C253 C256 1.429 . S
C253 C257 1.411 . S
C253 N260 1.377 . S
C254 C256 1.420 . S
C254 C258 1.423 . S
C254 C266 1.392 . S
C255 C257 1.420 . S
C255 C258 1.351 . S
C255 H278 0.931 1_455 S
C256 C253 1.429 . S
C256 C254 1.420 . S
C256 N264 1.362 . S
C257 C253 1.411 . S
C257 C255 1.420 . S
C257 C262 1.395 . S
C258 C254 1.423 . S
C258 C255 1.351 . S
C258 H270 0.930 . S
C259 C261 1.400 . S
C259 C262 1.386 . S
C259 H271 0.930 . S
N260 C253 1.377 . S
N260 C261 1.321 . S
N260 Eu263 2.609 . S
C261 C259 1.400 . S
C261 N260 1.321 . S
C261 H268 0.930 . S
C262 C257 1.395 . S
C262 C259 1.386 . S
C262 H281 0.930 1_455 S
Eu263 N260 2.609 . S
Eu263 N264 2.657 . S
Eu263 O297 2.380 . S
Eu263 O298 2.432 . S
Eu263 O302 2.558 . S
Eu263 O303 2.612 . S
Eu263 O305 2.339 . S
Eu263 O306 2.563 . S
Eu263 O307 2.419 . S
Eu263 C327 2.848 . S
N264 C256 1.362 . S
N264 Eu263 2.657 . S
N264 C265 1.334 . S
C265 N264 1.334 . S
C265 C267 1.413 . S
C265 H272 0.929 . S
C266 C254 1.392 . S
C266 C267 1.367 . S
C266 H274 0.930 . S
C267 C265 1.413 . S
C267 C266 1.367 . S
C267 H269 0.930 . S
H268 C261 0.930 . S
H269 C267 0.930 . S
H270 C258 0.930 . S
H271 C259 0.930 . S
H272 C265 0.929 . S
H273 C287 0.930 . S
H274 C266 0.930 . S
H275 C293 0.930 . S
H276 C284 0.929 . S
H277 C291 0.930 . S
H278 C255 0.931 1_655 S
H279 C285 0.930 . S
H280 C318 0.930 . S
H281 C262 0.930 1_655 S
H282 C317 0.931 . S
N283 Eu252 2.657 . S
N283 C284 1.334 . S
N283 C288 1.362 . S
C284 H276 0.929 . S
C284 N283 1.334 . S
C284 C287 1.413 . S
C285 H279 0.930 . S
C285 C286 1.392 . S
C285 C287 1.367 . S
C286 C285 1.392 . S
C286 C288 1.420 . S
C286 C318 1.423 . S
C287 H273 0.930 . S
C287 C284 1.413 . S
C287 C285 1.367 . S
C288 N283 1.362 . S
C288 C286 1.420 . S
C288 C292 1.429 . S
H289 C294 0.930 . S
N290 Eu252 2.609 . S
N290 C292 1.377 . S
N290 C293 1.321 . S
C291 H277 0.930 . S
C291 C293 1.400 . S
C291 C294 1.386 . S
C292 C288 1.429 . S
C292 N290 1.377 . S
C292 C295 1.411 . S
C293 H275 0.930 . S
C293 N290 1.321 . S
C293 C291 1.400 . S
C294 H289 0.930 . S
C294 C291 1.386 . S
C294 C295 1.395 . S
C295 C292 1.411 . S
C295 C294 1.395 . S
C295 C317 1.420 . S
O296 Eu252 2.558 . S
O296 C316 1.257 . S
O297 Eu252 2.612 . S
O297 Eu263 2.380 . S
O297 C308 1.276 . S
O298 Eu263 2.432 . S
O298 C315 1.264 . S
O299 Eu252 2.339 . S
O299 C315 1.254 . S
O300 Eu252 2.563 . S
O300 C308 1.235 . S
O301 Eu252 2.419 . S
O301 C316 1.249 . S
O302 Eu263 2.558 . S
O302 C327 1.257 . S
O303 Eu252 2.380 . S
O303 Eu263 2.612 . S
O303 C319 1.276 . S
O304 Eu252 2.432 . S
O304 C326 1.264 . S
O305 Eu263 2.339 . S
O305 C326 1.254 . S
O306 Eu263 2.563 . S
O306 C319 1.235 . S
O307 Eu263 2.419 . S
O307 C327 1.249 . S
C308 O297 1.276 . S
C308 O300 1.235 . S
C309 C311 1.393 . S
C309 C313 1.395 . S
C309 C316 1.492 . S
C310 C311 1.392 . S
C310 C312 1.386 . S
C311 C309 1.393 . S
C311 C310 1.392 . S
C311 H328 0.930 . S
C312 C310 1.386 . S
C312 C314 1.395 . S
C312 H329 0.930 . S
C313 C309 1.395 . S
C313 C314 1.379 . S
C313 H330 0.930 . S
C314 C312 1.395 . S
C314 C313 1.379 . S
C314 H331 0.930 . S
C315 O298 1.264 . S
C315 O299 1.254 . S
C316 Eu252 2.848 . S
C316 O296 1.257 . S
C316 O301 1.249 . S
C316 C309 1.492 . S
C317 H282 0.931 . S
C317 C295 1.420 . S
C317 C318 1.351 . S
C318 H280 0.930 . S
C318 C286 1.423 . S
C318 C317 1.351 . S
C319 O303 1.276 . S
C319 O306 1.235 . S
C320 C321 1.393 . S
C320 C324 1.395 . S
C320 C327 1.492 1_556 S
C321 C320 1.393 . S
C321 C322 1.392 . S
C321 H332 0.930 . S
C322 C321 1.392 . S
C322 C323 1.386 . S
C323 C322 1.386 . S
C323 C325 1.395 . S
C323 H333 0.930 . S
C324 C320 1.395 . S
C324 C325 1.379 . S
C324 H334 0.930 . S
C325 C323 1.395 . S
C325 C324 1.379 . S
C325 H335 0.930 . S
C326 O304 1.264 . S
C326 O305 1.254 . S
C327 Eu263 2.848 . S
C327 O302 1.257 . S
C327 O307 1.249 . S
C327 C320 1.492 1_554 S
H328 C311 0.930 . S
H329 C312 0.930 . S
H330 C313 0.930 . S
H331 C314 0.930 . S
H332 C321 0.930 . S
H333 C323 0.930 . S
H334 C324 0.930 . S
H335 C325 0.930 . S
Eu336 N367 2.657 . S
Eu336 N374 2.609 . S
Eu336 O380 2.558 . S
Eu336 O381 2.612 . S
Eu336 O383 2.339 . S
Eu336 O384 2.563 . S
Eu336 O385 2.419 . S
Eu336 O387 2.380 . S
Eu336 O388 2.432 . S
Eu336 C400 2.848 . S
C337 C340 1.429 . S
C337 C341 1.411 . S
C337 N344 1.377 . S
C338 C340 1.420 . S
C338 C342 1.423 . S
C338 C350 1.392 . S
C339 C341 1.420 . S
C339 C342 1.351 . S
C339 H362 0.931 . S
C340 C337 1.429 . S
C340 C338 1.420 . S
C340 N348 1.362 . S
C341 C337 1.411 . S
C341 C339 1.420 . S
C341 C346 1.395 . S
C342 C338 1.423 . S
C342 C339 1.351 . S
C342 H354 0.930 . S
C343 C345 1.400 . S
C343 C346 1.386 . S
C343 H355 0.930 . S
N344 C337 1.377 . S
N344 C345 1.321 . S
N344 Eu347 2.609 . S
C345 C343 1.400 . S
C345 N344 1.321 . S
C345 H352 0.930 . S
C346 C341 1.395 . S
C346 C343 1.386 . S
C346 H365 0.930 . S
Eu347 N344 2.609 . S
Eu347 N348 2.657 . S
Eu347 O381 2.380 . S
Eu347 O382 2.432 . S
Eu347 O386 2.558 . S
Eu347 O387 2.612 . S
Eu347 O389 2.339 . S
Eu347 O390 2.563 . S
Eu347 O391 2.419 . S
Eu347 C411 2.848 . S
N348 C340 1.362 . S
N348 Eu347 2.657 . S
N348 C349 1.334 . S
C349 N348 1.334 . S
C349 C351 1.413 . S
C349 H356 0.929 . S
C350 C338 1.392 . S
C350 C351 1.367 . S
C350 H358 0.930 . S
C351 C349 1.413 . S
C351 C350 1.367 . S
C351 H353 0.930 . S
H352 C345 0.930 . S
H353 C351 0.930 . S
H354 C342 0.930 . S
H355 C343 0.930 . S
H356 C349 0.929 . S
H357 C371 0.930 . S
H358 C350 0.930 . S
H359 C377 0.930 . S
H360 C368 0.929 . S
H361 C375 0.930 . S
H362 C339 0.931 . S
H363 C369 0.930 . S
H364 C402 0.930 . S
H365 C346 0.930 . S
H366 C401 0.931 1_455 S
N367 Eu336 2.657 . S
N367 C368 1.334 . S
N367 C372 1.362 . S
C368 H360 0.929 . S
C368 N367 1.334 . S
C368 C371 1.413 . S
C369 H363 0.930 . S
C369 C370 1.392 . S
C369 C371 1.367 . S
C370 C369 1.392 . S
C370 C372 1.420 . S
C370 C402 1.423 . S
C371 H357 0.930 . S
C371 C368 1.413 . S
C371 C369 1.367 . S
C372 N367 1.362 . S
C372 C370 1.420 . S
C372 C376 1.429 . S
H373 C378 0.930 1_455 S
N374 Eu336 2.609 . S
N374 C376 1.377 . S
N374 C377 1.321 . S
C375 H361 0.930 . S
C375 C377 1.400 . S
C375 C378 1.386 . S
C376 C372 1.429 . S
C376 N374 1.377 . S
C376 C379 1.411 . S
C377 H359 0.930 . S
C377 N374 1.321 . S
C377 C375 1.400 . S
C378 H373 0.930 1_655 S
C378 C375 1.386 . S
C378 C379 1.395 . S
C379 C376 1.411 . S
C379 C378 1.395 . S
C379 C401 1.420 . S
O380 Eu336 2.558 . S
O380 C400 1.257 . S
O381 Eu336 2.612 . S
O381 Eu347 2.380 . S
O381 C392 1.276 . S
O382 Eu347 2.432 . S
O382 C399 1.264 . S
O383 Eu336 2.339 . S
O383 C399 1.254 . S
O384 Eu336 2.563 . S
O384 C392 1.235 . S
O385 Eu336 2.419 . S
O385 C400 1.249 . S
O386 Eu347 2.558 . S
O386 C411 1.257 . S
O387 Eu336 2.380 . S
O387 Eu347 2.612 . S
O387 C403 1.276 . S
O388 Eu336 2.432 . S
O388 C410 1.264 . S
O389 Eu347 2.339 . S
O389 C410 1.254 . S
O390 Eu347 2.563 . S
O390 C403 1.235 . S
O391 Eu347 2.419 . S
O391 C411 1.249 . S
C392 O381 1.276 . S
C392 O384 1.235 . S
C393 C395 1.393 . S
C393 C397 1.395 . S
C393 C400 1.492 1_556 S
C394 C395 1.392 . S
C394 C396 1.386 . S
C395 C393 1.393 . S
C395 C394 1.392 . S
C395 H412 0.930 . S
C396 C394 1.386 . S
C396 C398 1.395 . S
C396 H413 0.930 . S
C397 C393 1.395 . S
C397 C398 1.379 . S
C397 H414 0.930 . S
C398 C396 1.395 . S
C398 C397 1.379 . S
C398 H415 0.930 . S
C399 O382 1.264 . S
C399 O383 1.254 . S
C400 Eu336 2.848 . S
C400 O380 1.257 . S
C400 O385 1.249 . S
C400 C393 1.492 1_554 S
C401 H366 0.931 1_655 S
C401 C379 1.420 . S
C401 C402 1.351 . S
C402 H364 0.930 . S
C402 C370 1.423 . S
C402 C401 1.351 . S
C403 O387 1.276 . S
C403 O390 1.235 . S
C404 C405 1.393 . S
C404 C408 1.395 . S
C404 C411 1.492 . S
C405 C404 1.393 . S
C405 C406 1.392 . S
C405 H416 0.930 . S
C406 C405 1.392 . S
C406 C407 1.386 . S
C407 C406 1.386 . S
C407 C409 1.395 . S
C407 H417 0.930 . S
C408 C404 1.395 . S
C408 C409 1.379 . S
C408 H418 0.930 . S
C409 C407 1.395 . S
C409 C408 1.379 . S
C409 H419 0.930 . S
C410 O388 1.264 . S
C410 O389 1.254 . S
C411 Eu347 2.848 . S
C411 O386 1.257 . S
C411 O391 1.249 . S
C411 C404 1.492 . S
H412 C395 0.930 . S
H413 C396 0.930 . S
H414 C397 0.930 . S
H415 C398 0.930 . S
H416 C405 0.930 . S
H417 C407 0.930 . S
H418 C408 0.930 . S
H419 C409 0.930 . S
Eu420 N451 2.657 . S
Eu420 N458 2.609 . S
Eu420 O464 2.558 . S
Eu420 O465 2.612 . S
Eu420 O467 2.339 . S
Eu420 O468 2.563 . S
Eu420 O469 2.419 . S
Eu420 O471 2.380 . S
Eu420 O472 2.432 . S
Eu420 C484 2.848 . S
C421 C424 1.429 . S
C421 C425 1.411 . S
C421 N428 1.377 . S
C422 C424 1.420 . S
C422 C426 1.423 . S
C422 C434 1.392 . S
C423 C425 1.420 . S
C423 C426 1.351 . S
C423 H446 0.931 . S
C424 C421 1.429 . S
C424 C422 1.420 . S
C424 N432 1.362 . S
C425 C421 1.411 . S
C425 C423 1.420 . S
C425 C430 1.395 . S
C426 C422 1.423 . S
C426 C423 1.351 . S
C426 H438 0.930 . S
C427 C429 1.400 . S
C427 C430 1.386 . S
C427 H439 0.930 . S
N428 C421 1.377 . S
N428 C429 1.321 . S
N428 Eu431 2.609 . S
C429 C427 1.400 . S
C429 N428 1.321 . S
C429 H436 0.930 . S
C430 C425 1.395 . S
C430 C427 1.386 . S
C430 H449 0.930 . S
Eu431 N428 2.609 . S
Eu431 N432 2.657 . S
Eu431 O465 2.380 . S
Eu431 O466 2.432 . S
Eu431 O470 2.558 . S
Eu431 O471 2.612 . S
Eu431 O473 2.339 . S
Eu431 O474 2.563 . S
Eu431 O475 2.419 . S
Eu431 C495 2.848 . S
N432 C424 1.362 . S
N432 Eu431 2.657 . S
N432 C433 1.334 . S
C433 N432 1.334 . S
C433 C435 1.413 . S
C433 H440 0.929 . S
C434 C422 1.392 . S
C434 C435 1.367 . S
C434 H442 0.930 . S
C435 C433 1.413 . S
C435 C434 1.367 . S
C435 H437 0.930 . S
H436 C429 0.930 . S
H437 C435 0.930 . S
H438 C426 0.930 . S
H439 C427 0.930 . S
H440 C433 0.929 . S
H441 C455 0.930 . S
H442 C434 0.930 . S
H443 C461 0.930 . S
H444 C452 0.929 . S
H445 C459 0.930 . S
H446 C423 0.931 . S
H447 C453 0.930 . S
H448 C486 0.930 . S
H449 C430 0.930 . S
H450 C485 0.931 1_455 S
N451 Eu420 2.657 . S
N451 C452 1.334 . S
N451 C456 1.362 . S
C452 H444 0.929 . S
C452 N451 1.334 . S
C452 C455 1.413 . S
C453 H447 0.930 . S
C453 C454 1.392 . S
C453 C455 1.367 . S
C454 C453 1.392 . S
C454 C456 1.420 . S
C454 C486 1.423 . S
C455 H441 0.930 . S
C455 C452 1.413 . S
C455 C453 1.367 . S
C456 N451 1.362 . S
C456 C454 1.420 . S
C456 C460 1.429 . S
H457 C462 0.930 1_455 S
N458 Eu420 2.609 . S
N458 C460 1.377 . S
N458 C461 1.321 . S
C459 H445 0.930 . S
C459 C461 1.400 . S
C459 C462 1.386 . S
C460 C456 1.429 . S
C460 N458 1.377 . S
C460 C463 1.411 . S
C461 H443 0.930 . S
C461 N458 1.321 . S
C461 C459 1.400 . S
C462 H457 0.930 1_655 S
C462 C459 1.386 . S
C462 C463 1.395 . S
C463 C460 1.411 . S
C463 C462 1.395 . S
C463 C485 1.420 . S
O464 Eu420 2.558 . S
O464 C484 1.257 . S
O465 Eu420 2.612 . S
O465 Eu431 2.380 . S
O465 C476 1.276 . S
O466 Eu431 2.432 . S
O466 C483 1.264 . S
O467 Eu420 2.339 . S
O467 C483 1.254 . S
O468 Eu420 2.563 . S
O468 C476 1.235 . S
O469 Eu420 2.419 . S
O469 C484 1.249 . S
O470 Eu431 2.558 . S
O470 C495 1.257 . S
O471 Eu420 2.380 . S
O471 Eu431 2.612 . S
O471 C487 1.276 . S
O472 Eu420 2.432 . S
O472 C494 1.264 . S
O473 Eu431 2.339 . S
O473 C494 1.254 . S
O474 Eu431 2.563 . S
O474 C487 1.235 . S
O475 Eu431 2.419 . S
O475 C495 1.249 . S
C476 O465 1.276 . S
C476 O468 1.235 . S
C477 C479 1.393 . S
C477 C481 1.395 . S
C477 C484 1.492 1_554 S
C478 C479 1.392 . S
C478 C480 1.386 . S
C479 C477 1.393 . S
C479 C478 1.392 . S
C479 H496 0.930 . S
C480 C478 1.386 . S
C480 C482 1.395 . S
C480 H497 0.930 . S
C481 C477 1.395 . S
C481 C482 1.379 . S
C481 H498 0.930 . S
C482 C480 1.395 . S
C482 C481 1.379 . S
C482 H499 0.930 . S
C483 O466 1.264 . S
C483 O467 1.254 . S
C484 Eu420 2.848 . S
C484 O464 1.257 . S
C484 O469 1.249 . S
C484 C477 1.492 1_556 S
C485 H450 0.931 1_655 S
C485 C463 1.420 . S
C485 C486 1.351 . S
C486 H448 0.930 . S
C486 C454 1.423 . S
C486 C485 1.351 . S
C487 O471 1.276 . S
C487 O474 1.235 . S
C488 C489 1.393 . S
C488 C492 1.395 . S
C488 C495 1.492 . S
C489 C488 1.393 . S
C489 C490 1.392 . S
C489 H500 0.930 . S
C490 C489 1.392 . S
C490 C491 1.386 . S
C491 C490 1.386 . S
C491 C493 1.395 . S
C491 H501 0.930 . S
C492 C488 1.395 . S
C492 C493 1.379 . S
C492 H502 0.930 . S
C493 C491 1.395 . S
C493 C492 1.379 . S
C493 H503 0.930 . S
C494 O472 1.264 . S
C494 O473 1.254 . S
C495 Eu431 2.848 . S
C495 O470 1.257 . S
C495 O475 1.249 . S
C495 C488 1.492 . S
H496 C479 0.930 . S
H497 C480 0.930 . S
H498 C481 0.930 . S
H499 C482 0.930 . S
H500 C489 0.930 . S
H501 C491 0.930 . S
H502 C492 0.930 . S
H503 C493 0.930 . S
Eu504 N535 2.657 . S
Eu504 N542 2.609 . S
Eu504 O548 2.558 . S
Eu504 O549 2.612 . S
Eu504 O551 2.339 . S
Eu504 O552 2.563 . S
Eu504 O553 2.419 . S
Eu504 O555 2.380 1_556 S
Eu504 O556 2.432 . S
Eu504 C568 2.848 . S
C505 C508 1.429 . S
C505 C509 1.411 . S
C505 N512 1.377 . S
C506 C508 1.420 . S
C506 C510 1.423 . S
C506 C518 1.392 . S
C507 C509 1.420 . S
C507 C510 1.351 . S
C507 H530 0.931 . S
C508 C505 1.429 . S
C508 C506 1.420 . S
C508 N516 1.362 . S
C509 C505 1.411 . S
C509 C507 1.420 . S
C509 C514 1.395 . S
C510 C506 1.423 . S
C510 C507 1.351 . S
C510 H522 0.930 . S
C511 C513 1.400 . S
C511 C514 1.386 . S
C511 H523 0.930 . S
N512 C505 1.377 . S
N512 C513 1.321 . S
N512 Eu515 2.609 . S
C513 C511 1.400 . S
C513 N512 1.321 . S
C513 H520 0.930 . S
C514 C509 1.395 . S
C514 C511 1.386 . S
C514 H533 0.930 . S
Eu515 N512 2.609 . S
Eu515 N516 2.657 . S
Eu515 O549 2.380 1_554 S
Eu515 O550 2.432 . S
Eu515 O554 2.558 . S
Eu515 O555 2.612 . S
Eu515 O557 2.339 . S
Eu515 O558 2.563 . S
Eu515 O559 2.419 . S
Eu515 C579 2.848 . S
N516 C508 1.362 . S
N516 Eu515 2.657 . S
N516 C517 1.334 . S
C517 N516 1.334 . S
C517 C519 1.413 . S
C517 H524 0.929 . S
C518 C506 1.392 . S
C518 C519 1.367 . S
C518 H526 0.930 . S
C519 C517 1.413 . S
C519 C518 1.367 . S
C519 H521 0.930 . S
H520 C513 0.930 . S
H521 C519 0.930 . S
H522 C510 0.930 . S
H523 C511 0.930 . S
H524 C517 0.929 . S
H525 C539 0.930 . S
H526 C518 0.930 . S
H527 C545 0.930 . S
H528 C536 0.929 . S
H529 C543 0.930 . S
H530 C507 0.931 . S
H531 C537 0.930 . S
H532 C570 0.930 . S
H533 C514 0.930 . S
H534 C569 0.931 . S
N535 Eu504 2.657 . S
N535 C536 1.334 . S
N535 C540 1.362 . S
C536 H528 0.929 . S
C536 N535 1.334 . S
C536 C539 1.413 . S
C537 H531 0.930 . S
C537 C538 1.392 . S
C537 C539 1.367 . S
C538 C537 1.392 . S
C538 C540 1.420 . S
C538 C570 1.423 . S
C539 H525 0.930 . S
C539 C536 1.413 . S
C539 C537 1.367 . S
C540 N535 1.362 . S
C540 C538 1.420 . S
C540 C544 1.429 . S
H541 C546 0.930 . S
N542 Eu504 2.609 . S
N542 C544 1.377 . S
N542 C545 1.321 . S
C543 H529 0.930 . S
C543 C545 1.400 . S
C543 C546 1.386 . S
C544 C540 1.429 . S
C544 N542 1.377 . S
C544 C547 1.411 . S
C545 H527 0.930 . S
C545 N542 1.321 . S
C545 C543 1.400 . S
C546 H541 0.930 . S
C546 C543 1.386 . S
C546 C547 1.395 . S
C547 C544 1.411 . S
C547 C546 1.395 . S
C547 C569 1.420 . S
O548 Eu504 2.558 . S
O548 C568 1.257 . S
O549 Eu504 2.612 . S
O549 Eu515 2.380 1_556 S
O549 C560 1.276 . S
O550 Eu515 2.432 . S
O550 C567 1.264 1_554 S
O551 Eu504 2.339 . S
O551 C567 1.254 . S
O552 Eu504 2.563 . S
O552 C560 1.235 . S
O553 Eu504 2.419 . S
O553 C568 1.249 . S
O554 Eu515 2.558 . S
O554 C579 1.257 . S
O555 Eu504 2.380 1_554 S
O555 Eu515 2.612 . S
O555 C571 1.276 . S
O556 Eu504 2.432 . S
O556 C578 1.264 1_556 S
O557 Eu515 2.339 . S
O557 C578 1.254 . S
O558 Eu515 2.563 . S
O558 C571 1.235 . S
O559 Eu515 2.419 . S
O559 C579 1.249 . S
C560 O549 1.276 . S
C560 O552 1.235 . S
C561 C563 1.393 . S
C561 C565 1.395 . S
C561 C568 1.492 . S
C562 C563 1.392 . S
C562 C564 1.386 . S
C563 C561 1.393 . S
C563 C562 1.392 . S
C563 H580 0.930 . S
C564 C562 1.386 . S
C564 C566 1.395 . S
C564 H581 0.930 . S
C565 C561 1.395 . S
C565 C566 1.379 . S
C565 H582 0.930 . S
C566 C564 1.395 . S
C566 C565 1.379 . S
C566 H583 0.930 . S
C567 O550 1.264 1_556 S
C567 O551 1.254 . S
C568 Eu504 2.848 . S
C568 O548 1.257 . S
C568 O553 1.249 . S
C568 C561 1.492 . S
C569 H534 0.931 . S
C569 C547 1.420 . S
C569 C570 1.351 . S
C570 H532 0.930 . S
C570 C538 1.423 . S
C570 C569 1.351 . S
C571 O555 1.276 . S
C571 O558 1.235 . S
C572 C573 1.393 . S
C572 C576 1.395 . S
C572 C579 1.492 . S
C573 C572 1.393 . S
C573 C574 1.392 . S
C573 H584 0.930 . S
C574 C573 1.392 . S
C574 C575 1.386 . S
C575 C574 1.386 . S
C575 C577 1.395 . S
C575 H585 0.930 . S
C576 C572 1.395 . S
C576 C577 1.379 . S
C576 H586 0.930 . S
C577 C575 1.395 . S
C577 C576 1.379 . S
C577 H587 0.930 . S
C578 O556 1.264 1_554 S
C578 O557 1.254 . S
C579 Eu515 2.848 . S
C579 O554 1.257 . S
C579 O559 1.249 . S
C579 C572 1.492 . S
H580 C563 0.930 . S
H581 C564 0.930 . S
H582 C565 0.930 . S
H583 C566 0.930 . S
H584 C573 0.930 . S
H585 C575 0.930 . S
H586 C576 0.930 . S
H587 C577 0.930 . S
Eu588 N619 2.650 1_655 S
Eu588 N626 2.609 1_655 S
Eu588 O632 2.562 . S
Eu588 O633 2.615 . S
Eu588 O635 2.333 1_655 S
Eu588 O636 2.569 . S
Eu588 O637 2.417 1_655 S
Eu588 O639 2.377 1_655 S
Eu588 O640 2.438 . S
Eu588 C652 2.849 . S
C589 C592 1.429 . S
C589 C593 1.411 . S
C589 N596 1.377 . S
C590 C592 1.420 . S
C590 C594 1.423 . S
C590 C602 1.392 . S
C591 C593 1.420 . S
C591 C594 1.351 . S
C591 H614 0.931 . S
C592 C589 1.429 . S
C592 C590 1.420 . S
C592 N600 1.362 . S
C593 C589 1.411 . S
C593 C591 1.420 . S
C593 C598 1.395 . S
C594 C590 1.423 . S
C594 C591 1.351 . S
C594 H606 0.930 . S
C595 C597 1.400 . S
C595 C598 1.386 1_455 S
C595 H607 0.930 . S
N596 C589 1.377 . S
N596 C597 1.321 1_655 S
N596 Eu599 2.609 1_655 S
C597 C595 1.400 . S
C597 N596 1.321 1_455 S
C597 H604 0.930 . S
C598 C593 1.395 . S
C598 C595 1.386 1_655 S
C598 H617 0.930 . S
Eu599 N596 2.609 1_455 S
Eu599 N600 2.645 1_455 S
Eu599 O633 2.375 1_455 S
Eu599 O634 2.442 . S
Eu599 O638 2.565 . S
Eu599 O639 2.616 . S
Eu599 O641 2.330 1_455 S
Eu599 O642 2.572 . S
Eu599 O643 2.416 1_455 S
Eu599 C663 2.850 . S
N600 C592 1.362 . S
N600 Eu599 2.645 1_655 S
N600 C601 1.334 . S
C601 N600 1.334 . S
C601 C603 1.413 . S
C601 H608 0.929 . S
C602 C590 1.392 . S
C602 C603 1.367 . S
C602 H610 0.930 . S
C603 C601 1.413 . S
C603 C602 1.367 . S
C603 H605 0.930 . S
H604 C597 0.930 . S
H605 C603 0.930 . S
H606 C594 0.930 . S
H607 C595 0.930 . S
H608 C601 0.929 . S
H609 C623 0.930 . S
H610 C602 0.930 . S
H611 C629 0.930 . S
H612 C620 0.929 . S
H613 C627 0.930 . S
H614 C591 0.931 . S
H615 C621 0.930 . S
H616 C654 0.930 . S
H617 C598 0.930 . S
H618 C653 0.931 . S
N619 Eu588 2.650 1_455 S
N619 C620 1.334 . S
N619 C624 1.362 . S
C620 H612 0.929 . S
C620 N619 1.334 . S
C620 C623 1.413 . S
C621 H615 0.930 . S
C621 C622 1.392 . S
C621 C623 1.367 . S
C622 C621 1.392 . S
C622 C624 1.420 . S
C622 C654 1.423 . S
C623 H609 0.930 . S
C623 C620 1.413 . S
C623 C621 1.367 . S
C624 N619 1.362 . S
C624 C622 1.420 . S
C624 C628 1.429 . S
H625 C630 0.930 . S
N626 Eu588 2.609 1_455 S
N626 C628 1.377 . S
N626 C629 1.321 1_455 S
C627 H613 0.930 . S
C627 C629 1.400 . S
C627 C630 1.386 1_655 S
C628 C624 1.429 . S
C628 N626 1.377 . S
C628 C631 1.411 . S
C629 H611 0.930 . S
C629 N626 1.321 1_655 S
C629 C627 1.400 . S
C630 H625 0.930 . S
C630 C627 1.386 1_455 S
C630 C631 1.395 . S
C631 C628 1.411 . S
C631 C630 1.395 . S
C631 C653 1.420 . S
O632 Eu588 2.562 . S
O632 C652 1.257 . S
O633 Eu588 2.615 . S
O633 Eu599 2.375 1_655 S
O633 C644 1.276 . S
O634 Eu599 2.442 . S
O634 C651 1.264 . S
O635 Eu588 2.333 1_455 S
O635 C651 1.254 . S
O636 Eu588 2.569 . S
O636 C644 1.235 . S
O637 Eu588 2.417 1_455 S
O637 C652 1.249 1_455 S
O638 Eu599 2.565 . S
O638 C663 1.257 . S
O639 Eu588 2.377 1_455 S
O639 Eu599 2.616 . S
O639 C655 1.276 . S
O640 Eu588 2.438 . S
O640 C662 1.264 . S
O641 Eu599 2.330 1_655 S
O641 C662 1.254 . S
O642 Eu599 2.572 . S
O642 C655 1.235 . S
O643 Eu599 2.416 1_655 S
O643 C663 1.249 1_655 S
C644 O633 1.276 . S
C644 O636 1.235 . S
C645 C647 1.393 . S
C645 C649 1.395 . S
C645 C652 1.492 . S
C646 C647 1.392 . S
C646 C648 1.386 . S
C647 C645 1.393 . S
C647 C646 1.392 . S
C647 H664 0.930 1_655 S
C648 C646 1.386 . S
C648 C650 1.395 . S
C648 H665 0.930 . S
C649 C645 1.395 . S
C649 C650 1.379 . S
C649 H666 0.930 . S
C650 C648 1.395 . S
C650 C649 1.379 . S
C650 H667 0.930 . S
C651 O634 1.264 . S
C651 O635 1.254 . S
C652 Eu588 2.849 . S
C652 O632 1.257 . S
C652 O637 1.249 1_655 S
C652 C645 1.492 . S
C653 H618 0.931 . S
C653 C631 1.420 . S
C653 C654 1.351 . S
C654 H616 0.930 . S
C654 C622 1.423 . S
C654 C653 1.351 . S
C655 O639 1.276 . S
C655 O642 1.235 . S
C656 C657 1.393 . S
C656 C660 1.395 . S
C656 C663 1.492 . S
C657 C656 1.393 . S
C657 C658 1.392 . S
C657 H668 0.930 1_455 S
C658 C657 1.392 . S
C658 C659 1.386 . S
C659 C658 1.386 . S
C659 C661 1.395 . S
C659 H669 0.930 . S
C660 C656 1.395 . S
C660 C661 1.379 . S
C660 H670 0.930 . S
C661 C659 1.395 . S
C661 C660 1.379 . S
C661 H671 0.930 . S
C662 O640 1.264 . S
C662 O641 1.254 . S
C663 Eu599 2.850 . S
C663 O638 1.257 . S
C663 O643 1.249 1_455 S
C663 C656 1.492 . S
H664 C647 0.930 1_455 S
H665 C648 0.930 . S
H666 C649 0.930 . S
H667 C650 0.930 . S
H668 C657 0.930 1_655 S
H669 C659 0.930 . S
H670 C660 0.930 . S
H671 C661 0.930 . S
C672 C673 1.387 . S
C672 H676 0.950 . S
C672 C681 1.390 . S
C673 C672 1.387 . S
C673 C675 1.387 . S
H674 C681 0.950 . S
C675 C673 1.387 . S
C675 C677 1.390 . S
C675 H679 0.950 . S
H676 C672 0.950 . S
C677 C675 1.390 . S
C677 C678 1.387 . S
C677 H680 0.950 . S
C678 C677 1.387 . S
C678 C681 1.387 . S
H679 C675 0.950 . S
H680 C677 0.950 . S
C681 C672 1.390 . S
C681 H674 0.950 . S
C681 C678 1.387 . S
C682 C683 1.387 . S
C682 H686 0.950 . S
C682 C691 1.390 . S
C683 C682 1.387 . S
C683 C685 1.387 . S
H684 C691 0.950 . S
C685 C683 1.387 . S
C685 C687 1.390 . S
C685 H689 0.950 . S
H686 C682 0.950 . S
C687 C685 1.390 . S
C687 C688 1.387 . S
C687 H690 0.950 . S
C688 C687 1.387 . S
C688 C691 1.387 . S
H689 C685 0.950 . S
H690 C687 0.950 . S
C691 C682 1.390 . S
C691 H684 0.950 . S
C691 C688 1.387 . S
C692 C693 1.387 . S
C692 H696 0.950 . S
C692 C701 1.390 . S
C693 C692 1.387 . S
C693 C695 1.387 . S
H694 C701 0.950 . S
C695 C693 1.387 . S
C695 C697 1.390 . S
C695 H699 0.950 . S
H696 C692 0.950 . S
C697 C695 1.390 . S
C697 C698 1.387 . S
C697 H700 0.950 . S
C698 C697 1.387 . S
C698 C701 1.387 . S
H699 C695 0.950 . S
H700 C697 0.950 . S
C701 C692 1.390 . S
C701 H694 0.950 . S
C701 C698 1.387 . S
C702 C703 1.387 . S
C702 H706 0.950 . S
C702 C711 1.390 . S
C703 C702 1.387 . S
C703 C705 1.387 . S
H704 C711 0.950 . S
C705 C703 1.387 . S
C705 C707 1.390 . S
C705 H709 0.950 . S
H706 C702 0.950 . S
C707 C705 1.390 . S
C707 C708 1.387 . S
C707 H710 0.950 . S
C708 C707 1.387 . S
C708 C711 1.387 . S
H709 C705 0.950 . S
H710 C707 0.950 . S
C711 C702 1.390 . S
C711 H704 0.950 . S
C711 C708 1.387 . S
C712 C713 1.387 . S
C712 H716 0.950 . S
C712 C721 1.390 . S
C713 C712 1.387 . S
C713 C715 1.387 . S
H714 C721 0.950 . S
C715 C713 1.387 . S
C715 C717 1.390 . S
C715 H719 0.950 . S
H716 C712 0.950 . S
C717 C715 1.390 . S
C717 C718 1.387 . S
C717 H720 0.950 . S
C718 C717 1.387 . S
C718 C721 1.387 . S
H719 C715 0.950 . S
H720 C717 0.950 . S
C721 C712 1.390 . S
C721 H714 0.950 . S
C721 C718 1.387 . S
C722 C723 1.387 . S
C722 H726 0.950 . S
C722 C731 1.390 . S
C723 C722 1.387 . S
C723 C725 1.387 . S
H724 C731 0.950 . S
C725 C723 1.387 . S
C725 C727 1.390 . S
C725 H729 0.950 . S
H726 C722 0.950 . S
C727 C725 1.390 . S
C727 C728 1.387 . S
C727 H730 0.950 . S
C728 C727 1.387 . S
C728 C731 1.387 . S
H729 C725 0.950 . S
H730 C727 0.950 . S
C731 C722 1.390 . S
C731 H724 0.950 . S
C731 C728 1.387 . S
C732 C733 1.387 . S
C732 H736 0.950 . S
C732 C741 1.390 . S
C733 C732 1.387 . S
C733 C735 1.387 . S
H734 C741 0.950 . S
C735 C733 1.387 . S
C735 C737 1.390 . S
C735 H739 0.950 . S
H736 C732 0.950 . S
C737 C735 1.390 . S
C737 C738 1.387 . S
C737 H740 0.950 . S
C738 C737 1.387 . S
C738 C741 1.387 . S
H739 C735 0.950 . S
H740 C737 0.950 . S
C741 C732 1.390 . S
C741 H734 0.950 . S
C741 C738 1.387 . S
C742 C743 1.387 . S
C742 H746 0.950 . S
C742 C751 1.390 . S
C743 C742 1.387 . S
C743 C745 1.387 . S
H744 C751 0.950 . S
C745 C743 1.387 . S
C745 C747 1.390 . S
C745 H749 0.950 . S
H746 C742 0.950 . S
C747 C745 1.390 . S
C747 C748 1.387 . S
C747 H750 0.950 . S
C748 C747 1.387 . S
C748 C751 1.387 . S
H749 C745 0.950 . S
H750 C747 0.950 . S
C751 C742 1.390 . S
C751 H744 0.950 . S
C751 C748 1.387 . S
C752 C753 1.387 . S
C752 H756 0.950 . S
C752 C761 1.390 . S
C753 C752 1.387 . S
C753 C755 1.387 . S
H754 C761 0.950 . S
C755 C753 1.387 . S
C755 C757 1.390 . S
C755 H759 0.950 . S
H756 C752 0.950 . S
C757 C755 1.390 . S
C757 C758 1.387 . S
C757 H760 0.950 . S
C758 C757 1.387 . S
C758 C761 1.387 . S
H759 C755 0.950 . S
H760 C757 0.950 . S
C761 C752 1.390 . S
C761 H754 0.950 . S
C761 C758 1.387 . S
C762 C763 1.387 . S
C762 H766 0.950 . S
C762 C771 1.390 . S
C763 C762 1.387 . S
C763 C765 1.387 . S
H764 C771 0.950 . S
C765 C763 1.387 . S
C765 C767 1.390 . S
C765 H769 0.950 . S
H766 C762 0.950 . S
C767 C765 1.390 . S
C767 C768 1.387 . S
C767 H770 0.950 . S
C768 C767 1.387 . S
C768 C771 1.387 . S
H769 C765 0.950 . S
H770 C767 0.950 . S
C771 C762 1.390 . S
C771 H764 0.950 . S
C771 C768 1.387 . S
C772 C773 1.387 . S
C772 H776 0.950 . S
C772 C781 1.390 . S
C773 C772 1.387 . S
C773 C775 1.387 . S
H774 C781 0.950 . S
C775 C773 1.387 . S
C775 C777 1.390 . S
C775 H779 0.950 . S
H776 C772 0.950 . S
C777 C775 1.390 . S
C777 C778 1.387 . S
C777 H780 0.950 . S
C778 C777 1.387 . S
C778 C781 1.387 . S
H779 C775 0.950 . S
H780 C777 0.950 . S
C781 C772 1.390 . S
C781 H774 0.950 . S
C781 C778 1.387 . S
C782 C783 1.387 . S
C782 H786 0.950 . S
C782 C791 1.390 . S
C783 C782 1.387 . S
C783 C785 1.387 . S
H784 C791 0.950 . S
C785 C783 1.387 . S
C785 C787 1.390 . S
C785 H789 0.950 . S
H786 C782 0.950 . S
C787 C785 1.390 . S
C787 C788 1.387 . S
C787 H790 0.950 . S
C788 C787 1.387 . S
C788 C791 1.387 . S
H789 C785 0.950 . S
H790 C787 0.950 . S
C791 C782 1.390 . S
C791 H784 0.950 . S
C791 C788 1.387 . S
C792 C793 1.387 . S
C792 H796 0.950 . S
C792 C801 1.390 . S
C793 C792 1.387 . S
C793 C795 1.387 . S
H794 C801 0.950 . S
C795 C793 1.387 . S
C795 C797 1.390 . S
C795 H799 0.950 . S
H796 C792 0.950 . S
C797 C795 1.390 . S
C797 C798 1.387 . S
C797 H800 0.950 . S
C798 C797 1.387 . S
C798 C801 1.387 . S
H799 C795 0.950 . S
H800 C797 0.950 . S
C801 C792 1.390 . S
C801 H794 0.950 . S
C801 C798 1.387 . S
C802 C803 1.387 . S
C802 H806 0.950 . S
C802 C811 1.390 . S
C803 C802 1.387 . S
C803 C805 1.387 . S
H804 C811 0.950 . S
C805 C803 1.387 . S
C805 C807 1.390 . S
C805 H809 0.950 . S
H806 C802 0.950 . S
C807 C805 1.390 . S
C807 C808 1.387 . S
C807 H810 0.950 . S
C808 C807 1.387 . S
C808 C811 1.387 . S
H809 C805 0.950 . S
H810 C807 0.950 . S
C811 C802 1.390 . S
C811 H804 0.950 . S
C811 C808 1.387 . S
C812 C813 1.387 . S
C812 H816 0.950 . S
C812 C821 1.390 . S
C813 C812 1.387 . S
C813 C815 1.387 . S
H814 C821 0.950 . S
C815 C813 1.387 . S
C815 C817 1.390 . S
C815 H819 0.950 . S
H816 C812 0.950 . S
C817 C815 1.390 . S
C817 C818 1.387 . S
C817 H820 0.950 . S
C818 C817 1.387 . S
C818 C821 1.387 . S
H819 C815 0.950 . S
H820 C817 0.950 . S
C821 C812 1.390 . S
C821 H814 0.950 . S
C821 C818 1.387 . S
C822 C823 1.387 . S
C822 H826 0.950 . S
C822 C831 1.390 . S
C823 C822 1.387 . S
C823 C825 1.387 . S
H824 C831 0.950 . S
C825 C823 1.387 . S
C825 C827 1.390 . S
C825 H829 0.950 . S
H826 C822 0.950 . S
C827 C825 1.390 . S
C827 C828 1.387 . S
C827 H830 0.950 . S
C828 C827 1.387 . S
C828 C831 1.387 . S
H829 C825 0.950 . S
H830 C827 0.950 . S
C831 C822 1.390 . S
C831 H824 0.950 . S
C831 C828 1.387 . S
C832 C833 1.387 1_565 S
C832 H836 0.950 . S
C832 C841 1.390 1_556 S
C833 C832 1.387 1_545 S
C833 C835 1.387 1_655 S
H834 C841 0.950 . S
C835 C833 1.387 1_455 S
C835 C837 1.390 1_556 S
C835 H839 0.950 . S
H836 C832 0.950 . S
C837 C835 1.390 1_554 S
C837 C838 1.387 1_545 S
C837 H840 0.950 . S
C838 C837 1.387 1_565 S
C838 C841 1.387 1_455 S
H839 C835 0.950 . S
H840 C837 0.950 . S
C841 C832 1.390 1_554 S
C841 H834 0.950 . S
C841 C838 1.387 1_655 S
C842 C843 1.387 . S
C842 H846 0.950 . S
C842 C851 1.390 . S
C843 C842 1.387 . S
C843 C845 1.387 . S
H844 C851 0.950 . S
C845 C843 1.387 . S
C845 C847 1.390 . S
C845 H849 0.950 . S
H846 C842 0.950 . S
C847 C845 1.390 . S
C847 C848 1.387 . S
C847 H850 0.950 . S
C848 C847 1.387 . S
C848 C851 1.387 . S
H849 C845 0.950 . S
H850 C847 0.950 . S
C851 C842 1.390 . S
C851 H844 0.950 . S
C851 C848 1.387 . S
C852 C853 1.387 1_565 S
C852 H856 0.950 . S
C852 C861 1.390 . S
C853 C852 1.387 1_545 S
C853 C855 1.387 . S
H854 C861 0.950 . S
C855 C853 1.387 . S
C855 C857 1.390 . S
C855 H859 0.950 . S
H856 C852 0.950 . S
C857 C855 1.390 . S
C857 C858 1.387 1_545 S
C857 H860 0.950 . S
C858 C857 1.387 1_565 S
C858 C861 1.387 . S
H859 C855 0.950 . S
H860 C857 0.950 . S
C861 C852 1.390 . S
C861 H854 0.950 . S
C861 C858 1.387 . S
C862 C863 1.387 . S
C862 H866 0.950 . S
C862 C871 1.390 . S
C863 C862 1.387 . S
C863 C865 1.387 . S
H864 C871 0.950 . S
C865 C863 1.387 . S
C865 C867 1.390 . S
C865 H869 0.950 . S
H866 C862 0.950 . S
C867 C865 1.390 . S
C867 C868 1.387 . S
C867 H870 0.950 . S
C868 C867 1.387 . S
C868 C871 1.387 . S
H869 C865 0.950 . S
H870 C867 0.950 . S
C871 C862 1.390 . S
C871 H864 0.950 . S
C871 C868 1.387 . S
C872 C873 1.387 . S
C872 H876 0.950 . S
C872 C881 1.390 . S
C873 C872 1.387 . S
C873 C875 1.387 . S
H874 C881 0.950 . S
C875 C873 1.387 . S
C875 C877 1.390 . S
C875 H879 0.950 . S
H876 C872 0.950 . S
C877 C875 1.390 . S
C877 C878 1.387 . S
C877 H880 0.950 . S
C878 C877 1.387 . S
C878 C881 1.387 . S
H879 C875 0.950 . S
H880 C877 0.950 . S
C881 C872 1.390 . S
C881 H874 0.950 . S
C881 C878 1.387 . S
C882 C883 1.387 . S
C882 H886 0.950 . S
C882 C891 1.390 . S
C883 C882 1.387 . S
C883 C885 1.387 . S
H884 C891 0.950 . S
C885 C883 1.387 . S
C885 C887 1.390 . S
C885 H889 0.950 . S
H886 C882 0.950 . S
C887 C885 1.390 . S
C887 C888 1.387 . S
C887 H890 0.950 . S
C888 C887 1.387 . S
C888 C891 1.387 . S
H889 C885 0.950 . S
H890 C887 0.950 . S
C891 C882 1.390 . S
C891 H884 0.950 . S
C891 C888 1.387 . S
C892 C893 1.387 . S
C892 H896 0.950 . S
C892 C901 1.390 . S
C893 C892 1.387 . S
C893 C895 1.387 . S
H894 C901 0.950 . S
C895 C893 1.387 . S
C895 C897 1.390 . S
C895 H899 0.950 . S
H896 C892 0.950 . S
C897 C895 1.390 . S
C897 C898 1.387 . S
C897 H900 0.950 . S
C898 C897 1.387 . S
C898 C901 1.387 . S
H899 C895 0.950 . S
H900 C897 0.950 . S
C901 C892 1.390 . S
C901 H894 0.950 . S
C901 C898 1.387 . S
C902 C903 1.387 1_455 S
C902 H906 0.950 . S
C902 C911 1.390 1_556 S
C903 C902 1.387 1_655 S
C903 C905 1.387 . S
H904 C911 0.950 . S
C905 C903 1.387 . S
C905 C907 1.390 1_556 S
C905 H909 0.950 . S
H906 C902 0.950 . S
C907 C905 1.390 1_554 S
C907 C908 1.387 1_655 S
C907 H910 0.950 . S
C908 C907 1.387 1_455 S
C908 C911 1.387 . S
H909 C905 0.950 . S
H910 C907 0.950 . S
C911 C902 1.390 1_554 S
C911 H904 0.950 . S
C911 C908 1.387 . S
C673 C56 1.567 . S
C678 C308 1.565 . S
C683 C74 1.474 . S
C688 C140 1.435 . S
C693 C158 1.345 . S
C698 C242 1.349 . S
C703 C224 1.438 . S
C708 C326 1.471 . S
C713 C67 1.568 . S
C718 C487 1.569 . S
C723 C63 1.473 . S
C728 C403 1.439 . S
C733 C399 1.346 . S
C738 C231 1.343 . S
C743 C483 1.473 . S
C748 C235 1.440 . S
C753 C560 1.566 . S
C758 C476 1.569 . S
C763 C392 1.435 . S
C768 C578 1.474 . S
C773 C662 1.347 . S
C778 C410 1.346 . S
C783 C494 1.474 . S
C788 C644 1.439 . S
C793 C319 1.567 . S
C798 C571 1.565 . S
C803 C567 1.474 . S
C808 C151 1.438 . S
C813 C147 1.345 . S
C818 C651 1.346 . S
C823 C315 1.474 . S
C828 C655 1.435 . S
C833 C70 1.383 . S
C838 C58 1.383 . S
C843 C142 1.368 . S
C848 C154 1.368 . S
C853 C238 1.364 . S
C858 C226 1.364 . S
C863 C322 1.387 . S
C868 C310 1.387 . S
C873 C394 1.368 . S
C878 C406 1.368 . S
C883 C490 1.383 . S
C888 C478 1.383 . S
C893 C562 1.385 . S
C898 C574 1.385 . S
C903 C646 1.363 . S
C908 C658 1.363 . S
