# Generated by pormake.
# Topology gsi, (4)-cn, num edge types: 1
# Building blocks:
#     Node 0, Type 0, BuildingBlock: QUQFOY_clean_sbu_3, # of connection points: 4
#     Node 1, Type 0, BuildingBlock: QUQFOY_clean_sbu_3, # of connection points: 4
#     Node 2, Type 0, BuildingBlock: QUQFOY_clean_sbu_3, # of connection points: 4
#     Node 3, Type 0, BuildingBlock: QUQFOY_clean_sbu_3, # of connection points: 4
#     Node 4, Type 0, BuildingBlock: QUQFOY_clean_sbu_3, # of connection points: 4
#     Node 5, Type 0, BuildingBlock: QUQFOY_clean_sbu_3, # of connection points: 4
#     Node 6, Type 0, BuildingBlock: QUQFOY_clean_sbu_3, # of connection points: 4
#     Node 7, Type 0, BuildingBlock: QUQFOY_clean_sbu_3, # of connection points: 4
#     Node 8, Type 0, BuildingBlock: QUQFOY_clean_sbu_3, # of connection points: 4
#     Node 9, Type 0, BuildingBlock: QUQFOY_clean_sbu_3, # of connection points: 4
#     Node 10, Type 0, BuildingBlock: QUQFOY_clean_sbu_3, # of connection points: 4
#     Node 11, Type 0, BuildingBlock: QUQFOY_clean_sbu_3, # of connection points: 4
#     Node 12, Type 0, BuildingBlock: QUQFOY_clean_sbu_3, # of connection points: 4
#     Node 13, Type 0, BuildingBlock: QUQFOY_clean_sbu_3, # of connection points: 4
#     Node 14, Type 0, BuildingBlock: QUQFOY_clean_sbu_3, # of connection points: 4
#     Node 15, Type 0, BuildingBlock: QUQFOY_clean_sbu_3, # of connection points: 4
#     Edge 16, Type (0, 0), BuildingBlock: CIFDUS_clean_linker_0, # of connection points: 2
#     Edge 17, Type (0, 0), BuildingBlock: CIFDUS_clean_linker_0, # of connection points: 2
#     Edge 18, Type (0, 0), BuildingBlock: CIFDUS_clean_linker_0, # of connection points: 2
#     Edge 19, Type (0, 0), BuildingBlock: CIFDUS_clean_linker_0, # of connection points: 2
#     Edge 20, Type (0, 0), BuildingBlock: CIFDUS_clean_linker_0, # of connection points: 2
#     Edge 21, Type (0, 0), BuildingBlock: CIFDUS_clean_linker_0, # of connection points: 2
#     Edge 22, Type (0, 0), BuildingBlock: CIFDUS_clean_linker_0, # of connection points: 2
#     Edge 23, Type (0, 0), BuildingBlock: CIFDUS_clean_linker_0, # of connection points: 2
#     Edge 24, Type (0, 0), BuildingBlock: CIFDUS_clean_linker_0, # of connection points: 2
#     Edge 25, Type (0, 0), BuildingBlock: CIFDUS_clean_linker_0, # of connection points: 2
#     Edge 26, Type (0, 0), BuildingBlock: CIFDUS_clean_linker_0, # of connection points: 2
#     Edge 27, Type (0, 0), BuildingBlock: CIFDUS_clean_linker_0, # of connection points: 2
#     Edge 28, Type (0, 0), BuildingBlock: CIFDUS_clean_linker_0, # of connection points: 2
#     Edge 29, Type (0, 0), BuildingBlock: CIFDUS_clean_linker_0, # of connection points: 2
#     Edge 30, Type (0, 0), BuildingBlock: CIFDUS_clean_linker_0, # of connection points: 2
#     Edge 31, Type (0, 0), BuildingBlock: CIFDUS_clean_linker_0, # of connection points: 2
#     Edge 32, Type (0, 0), BuildingBlock: CIFDUS_clean_linker_0, # of connection points: 2
#     Edge 33, Type (0, 0), BuildingBlock: CIFDUS_clean_linker_0, # of connection points: 2
#     Edge 34, Type (0, 0), BuildingBlock: CIFDUS_clean_linker_0, # of connection points: 2
#     Edge 35, Type (0, 0), BuildingBlock: CIFDUS_clean_linker_0, # of connection points: 2
#     Edge 36, Type (0, 0), BuildingBlock: CIFDUS_clean_linker_0, # of connection points: 2
#     Edge 37, Type (0, 0), BuildingBlock: CIFDUS_clean_linker_0, # of connection points: 2
#     Edge 38, Type (0, 0), BuildingBlock: CIFDUS_clean_linker_0, # of connection points: 2
#     Edge 39, Type (0, 0), BuildingBlock: CIFDUS_clean_linker_0, # of connection points: 2
#     Edge 40, Type (0, 0), BuildingBlock: CIFDUS_clean_linker_0, # of connection points: 2
#     Edge 41, Type (0, 0), BuildingBlock: CIFDUS_clean_linker_0, # of connection points: 2
#     Edge 42, Type (0, 0), BuildingBlock: CIFDUS_clean_linker_0, # of connection points: 2
#     Edge 43, Type (0, 0), BuildingBlock: CIFDUS_clean_linker_0, # of connection points: 2
#     Edge 44, Type (0, 0), BuildingBlock: CIFDUS_clean_linker_0, # of connection points: 2
#     Edge 45, Type (0, 0), BuildingBlock: CIFDUS_clean_linker_0, # of connection points: 2
#     Edge 46, Type (0, 0), BuildingBlock: CIFDUS_clean_linker_0, # of connection points: 2
#     Edge 47, Type (0, 0), BuildingBlock: CIFDUS_clean_linker_0, # of connection points: 2
# Relax obj value: 0.138
# Max RMSD: 0.121
# Mean RMSD: 0.120
data_MOF--net-gsi--node1-QUQFOY_clean_sbu_3--edge1-CIFDUS_clean_linker_0
_symmetry_space_group_name_H-M    P1
_symmetry_Int_Tables_number       1
_symmetry_cell_setting            triclinic
loop_
_symmetry_equiv_pos_as_xyz
'x, y, z'
_cell_length_a     41.832912
_cell_length_b     33.31879
_cell_length_c     40.694803
_cell_angle_alpha  89.89087
_cell_angle_beta   90.040764
_cell_angle_gamma 89.91927
loop_
_atom_site_label
_atom_site_type_symbol
_atom_site_fract_x
_atom_site_fract_y
_atom_site_fract_z
_atom_type_partial_charge
C0 C 0.05566 0.19303 0.12709 0.0
O1 O 0.06032 0.20012 0.1574 0.0
Cd2 Cd 0.10722 0.19597 0.18991 0.0
O3 O 0.07768 0.17882 0.10885 0.0
Cd4 Cd 0.13294 0.1549 0.12076 0.0
C5 C 0.11291 0.0939 0.18504 0.0
O6 O 0.14566 0.21497 0.15078 0.0
O7 O 0.18371 0.17204 0.1488 0.0
O8 O 0.14078 0.16616 0.06187 0.0
C9 C 0.17391 0.20589 0.15862 0.0
O10 O 0.11122 0.12522 0.20281 0.0
C11 C 0.16162 0.13865 0.05894 0.0
O12 O 0.11758 0.09632 0.15412 0.0
O13 O 0.1679 0.11776 0.08422 0.0
C14 C 0.88585 0.28919 0.1236 0.0
O15 O 0.871 0.2906 0.15036 0.0
Cd16 Cd 0.84391 0.29304 0.19947 0.0
O17 O 0.87367 0.3072 0.09911 0.0
Cd18 Cd 0.81975 0.33383 0.11818 0.0
C19 C 0.83849 0.39485 0.18603 0.0
O20 O 0.80902 0.27966 0.1562 0.0
O21 O 0.76745 0.31363 0.14421 0.0
O22 O 0.79642 0.31633 0.06646 0.0
C23 C 0.77967 0.28504 0.16043 0.0
O24 O 0.8415 0.36489 0.20536 0.0
C25 C 0.78507 0.35089 0.06015 0.0
O26 O 0.83294 0.39047 0.1553 0.0
O27 O 0.79195 0.37911 0.07994 0.0
C28 C 0.06619 0.78222 0.34822 0.0
O29 O 0.07233 0.77289 0.31866 0.0
Cd30 Cd 0.11582 0.79348 0.2856 0.0
O31 O 0.08496 0.80446 0.36482 0.0
Cd32 Cd 0.13923 0.8327 0.35418 0.0
C33 C 0.11434 0.89661 0.29557 0.0
O34 O 0.15964 0.77956 0.31998 0.0
O35 O 0.18686 0.83418 0.31895 0.0
O36 O 0.15813 0.80446 0.40493 0.0
C37 C 0.1841 0.79799 0.30992 0.0
O38 O 0.11235 0.86586 0.27711 0.0
C39 C 0.17101 0.83622 0.41579 0.0
O40 O 0.12131 0.89311 0.32595 0.0
O41 O 0.1672 0.86798 0.39886 0.0
C42 C 0.89861 0.69067 0.34616 0.0
O43 O 0.89305 0.70038 0.31653 0.0
Cd44 Cd 0.84406 0.69732 0.2869 0.0
O45 O 0.8769 0.67631 0.36464 0.0
Cd46 Cd 0.82012 0.65876 0.35536 0.0
C47 C 0.83505 0.59589 0.29158 0.0
O48 O 0.8044 0.71788 0.32487 0.0
O49 O 0.77064 0.66928 0.32387 0.0
O50 O 0.79927 0.68081 0.40756 0.0
C51 C 0.7772 0.70523 0.31616 0.0
O52 O 0.83819 0.62672 0.27335 0.0
C53 C 0.79147 0.64613 0.41761 0.0
O54 O 0.83058 0.59933 0.3224 0.0
O55 O 0.79843 0.61652 0.39937 0.0
C56 C 0.38127 0.76874 0.63734 0.0
O57 O 0.37119 0.75821 0.66552 0.0
Cd58 Cd 0.32648 0.7804 0.69603 0.0
O59 O 0.36734 0.79618 0.62064 0.0
Cd60 Cd 0.31685 0.83617 0.62744 0.0
C61 C 0.33709 0.88397 0.69819 0.0
O62 O 0.29077 0.78069 0.65209 0.0
O63 O 0.26146 0.83333 0.65028 0.0
O64 O 0.30541 0.82009 0.57145 0.0
C65 C 0.26423 0.79675 0.65827 0.0
O66 O 0.334 0.85 0.71226 0.0
C67 C 0.29524 0.85449 0.56308 0.0
O68 O 0.3347 0.88741 0.66702 0.0
O69 O 0.29826 0.88258 0.58396 0.0
C70 C 0.8873 0.77467 0.87303 0.0
O71 O 0.86639 0.74713 0.87429 0.0
Cd72 Cd 0.81325 0.75052 0.85411 0.0
O73 O 0.88006 0.80963 0.86219 0.0
Cd74 Cd 0.82922 0.84201 0.84134 0.0
C75 C 0.78086 0.82074 0.90584 0.0
O76 O 0.81839 0.78649 0.8042 0.0
O77 O 0.77973 0.8282 0.81062 0.0
O78 O 0.85854 0.88574 0.80205 0.0
C79 C 0.79136 0.79891 0.79487 0.0
O80 O 0.78043 0.7856 0.89368 0.0
C81 C 0.84075 0.91608 0.80679 0.0
O82 O 0.79959 0.84747 0.89431 0.0
O83 O 0.82043 0.91313 0.82981 0.0
C84 C 0.07313 0.72741 0.86134 0.0
O85 O 0.09657 0.75156 0.86019 0.0
Cd86 Cd 0.15034 0.73463 0.84741 0.0
O87 O 0.07699 0.68996 0.85551 0.0
Cd88 Cd 0.12281 0.64491 0.83898 0.0
C89 C 0.16712 0.66426 0.90705 0.0
O90 O 0.14342 0.69292 0.80114 0.0
O91 O 0.17622 0.64495 0.8119 0.0
O92 O 0.09256 0.61078 0.79582 0.0
C93 C 0.16913 0.67508 0.79424 0.0
O94 O 0.17276 0.69818 0.89391 0.0
C95 C 0.09917 0.57532 0.80492 0.0
O96 O 0.14767 0.63943 0.89409 0.0
O97 O 0.11441 0.57173 0.83182 0.0
C98 C 0.88514 0.22222 0.59944 0.0
O99 O 0.86472 0.25042 0.60109 0.0
Cd100 Cd 0.8123 0.24688 0.6231 0.0
O101 O 0.8777 0.18639 0.60801 0.0
Cd102 Cd 0.82852 0.1504 0.62959 0.0
C103 C 0.77607 0.17899 0.57011 0.0
O104 O 0.82066 0.20458 0.66855 0.0
O105 O 0.78385 0.15986 0.66849 0.0
O106 O 0.86673 0.10459 0.65775 0.0
C107 C 0.79529 0.19131 0.68121 0.0
O108 O 0.77866 0.21321 0.58369 0.0
C109 C 0.84689 0.076 0.66046 0.0
O110 O 0.79387 0.14972 0.57908 0.0
O111 O 0.82024 0.08045 0.64601 0.0
C112 C 0.07237 0.26003 0.60937 0.0
O113 O 0.09415 0.23421 0.61473 0.0
Cd114 Cd 0.14744 0.24632 0.63273 0.0
O115 O 0.07789 0.29756 0.61316 0.0
Cd116 Cd 0.12411 0.34134 0.63146 0.0
C117 C 0.17642 0.31127 0.57242 0.0
O118 O 0.14128 0.29561 0.67322 0.0
O119 O 0.17447 0.34349 0.6634 0.0
O120 O 0.09229 0.3769 0.67197 0.0
C121 C 0.16693 0.31333 0.68074 0.0
O122 O 0.17618 0.27842 0.58846 0.0
C123 C 0.0991 0.4121 0.66249 0.0
O124 O 0.15765 0.34009 0.58019 0.0
O125 O 0.11508 0.41506 0.63598 0.0
C126 C 0.5661 0.2068 0.3714 0.0
O127 O 0.58499 0.23654 0.37259 0.0
Cd128 Cd 0.63956 0.23467 0.3569 0.0
O129 O 0.57596 0.17258 0.36134 0.0
Cd130 Cd 0.62726 0.14274 0.3393 0.0
C131 C 0.67154 0.16128 0.40752 0.0
O132 O 0.63866 0.20071 0.30564 0.0
O133 O 0.67741 0.15827 0.31016 0.0
O134 O 0.60411 0.10862 0.2918 0.0
C135 C 0.66588 0.18908 0.29608 0.0
O136 O 0.66779 0.1979 0.39946 0.0
C137 C 0.6101 0.07318 0.30126 0.0
O138 O 0.65901 0.13329 0.39054 0.0
O139 O 0.62275 0.06936 0.32949 0.0
C140 C 0.55369 0.69868 0.62342 0.0
O141 O 0.55614 0.70537 0.65401 0.0
Cd142 Cd 0.6011 0.69436 0.68848 0.0
O143 O 0.57641 0.68283 0.60716 0.0
Cd144 Cd 0.63104 0.65902 0.62213 0.0
C145 C 0.60847 0.59232 0.68067 0.0
O146 O 0.64382 0.71736 0.65531 0.0
O147 O 0.67915 0.67041 0.65536 0.0
O148 O 0.64454 0.68207 0.56763 0.0
C149 C 0.67114 0.70539 0.66429 0.0
O150 O 0.60402 0.62266 0.69907 0.0
C151 C 0.66266 0.65277 0.56063 0.0
O152 O 0.61587 0.59678 0.6505 0.0
O153 O 0.66497 0.6249 0.58183 0.0
C154 C 0.55736 0.28467 0.84272 0.0
O155 O 0.5643 0.2724 0.81409 0.0
Cd156 Cd 0.61095 0.28903 0.78381 0.0
O157 O 0.57647 0.30684 0.85894 0.0
Cd158 Cd 0.6323 0.33061 0.8503 0.0
C159 C 0.61083 0.39248 0.78879 0.0
O160 O 0.65168 0.27205 0.82173 0.0
O161 O 0.68231 0.32374 0.81861 0.0
O162 O 0.64422 0.30575 0.90432 0.0
C163 C 0.67829 0.28662 0.81327 0.0
O164 O 0.6095 0.36099 0.77113 0.0
C165 C 0.6592 0.33652 0.91417 0.0
O166 O 0.61651 0.39012 0.81949 0.0
O167 O 0.65983 0.36659 0.8949 0.0
C168 C 0.38675 0.19847 0.84605 0.0
O169 O 0.3784 0.21696 0.82014 0.0
Cd170 Cd 0.33249 0.20252 0.78771 0.0
O171 O 0.36883 0.17209 0.8592 0.0
Cd172 Cd 0.31295 0.14888 0.85058 0.0
C173 C 0.33839 0.09887 0.78363 0.0
O174 O 0.28887 0.20702 0.82425 0.0
O175 O 0.26331 0.15131 0.81958 0.0
O176 O 0.30349 0.16356 0.90826 0.0
C177 C 0.26444 0.18862 0.81377 0.0
O178 O 0.33884 0.13294 0.76931 0.0
C179 C 0.28721 0.13213 0.9136 0.0
O180 O 0.33157 0.09593 0.8141 0.0
O181 O 0.28437 0.10723 0.8902 0.0
C182 C 0.38554 0.28012 0.37368 0.0
O183 O 0.36676 0.25024 0.3744 0.0
Cd184 Cd 0.31233 0.25229 0.35754 0.0
O185 O 0.37561 0.31439 0.36376 0.0
Cd186 Cd 0.32464 0.34384 0.34103 0.0
C187 C 0.27848 0.32403 0.40774 0.0
O188 O 0.31396 0.28662 0.30603 0.0
O189 O 0.27555 0.32959 0.31002 0.0
O190 O 0.35185 0.37969 0.29671 0.0
C191 C 0.28719 0.29909 0.29577 0.0
O192 O 0.28233 0.28743 0.39978 0.0
C193 C 0.34295 0.41456 0.30504 0.0
O194 O 0.2918 0.35205 0.3914 0.0
O195 O 0.32673 0.41721 0.33134 0.0
C196 C 0.37591 0.72983 0.10885 0.0
O197 O 0.35294 0.75486 0.10888 0.0
Cd198 Cd 0.29803 0.73908 0.1198 0.0
O199 O 0.37104 0.69261 0.11473 0.0
Cd200 Cd 0.32539 0.64749 0.12955 0.0
C201 C 0.28069 0.66686 0.06162 0.0
O202 O 0.30273 0.69605 0.1655 0.0
O203 O 0.27285 0.64427 0.15791 0.0
O204 O 0.35523 0.61416 0.17311 0.0
C205 C 0.27772 0.67698 0.17294 0.0
O206 O 0.27523 0.70106 0.07437 0.0
C207 C 0.35003 0.57863 0.16341 0.0
O208 O 0.30038 0.64221 0.07462 0.0
O209 O 0.33583 0.57479 0.13596 0.0
C210 C 0.56414 0.76364 0.10366 0.0
O211 O 0.5839 0.73465 0.10347 0.0
Cd212 Cd 0.63894 0.73667 0.1169 0.0
O213 O 0.57315 0.7991 0.11146 0.0
Cd214 Cd 0.62502 0.83223 0.12876 0.0
C215 C 0.66417 0.8052 0.05863 0.0
O216 O 0.63866 0.77726 0.16451 0.0
O217 O 0.67554 0.82179 0.15973 0.0
O218 O 0.59794 0.87251 0.17056 0.0
C219 C 0.66552 0.79021 0.17373 0.0
O220 O 0.66252 0.76963 0.06988 0.0
C221 C 0.60931 0.90602 0.16155 0.0
O222 O 0.65209 0.83471 0.07425 0.0
O223 O 0.62623 0.90595 0.13562 0.0
H224 H 0.236 0.19765 0.17639 0.0
H225 H 0.15012 0.26427 0.19842 0.0
H226 H 0.17745 0.29871 0.24316 0.0
H227 H 0.22563 0.30949 0.27641 0.0
H228 H 0.31147 0.24272 0.25449 0.0
H229 H 0.28434 0.20894 0.20926 0.0
C230 C 0.22337 0.21988 0.19089 0.0
C231 C 0.1912 0.22851 0.18408 0.0
C232 C 0.23919 0.23953 0.21661 0.0
C233 C 0.17504 0.25737 0.203 0.0
C234 C 0.19058 0.27695 0.2287 0.0
C235 C 0.23836 0.28757 0.2617 0.0
C236 C 0.27041 0.27852 0.2688 0.0
C237 C 0.22263 0.26821 0.23577 0.0
C238 C 0.28666 0.24998 0.24963 0.0
C239 C 0.27122 0.23073 0.2237 0.0
H240 H 0.71884 0.29731 0.18138 0.0
H241 H 0.80238 0.22379 0.19794 0.0
H242 H 0.77488 0.18787 0.24178 0.0
H243 H 0.72688 0.17693 0.27526 0.0
H244 H 0.64362 0.25113 0.25914 0.0
H245 H 0.67125 0.28713 0.21544 0.0
C246 C 0.73094 0.27337 0.19455 0.0
C247 C 0.76246 0.26317 0.18641 0.0
C248 C 0.71509 0.25294 0.21988 0.0
C249 C 0.778 0.23219 0.20374 0.0
C250 C 0.76234 0.21162 0.22885 0.0
C251 C 0.71484 0.20101 0.2622 0.0
C252 C 0.68329 0.21129 0.27037 0.0
C253 C 0.73086 0.22171 0.23711 0.0
C254 C 0.66798 0.24266 0.25334 0.0
C255 C 0.6837 0.26325 0.22829 0.0
H256 H 0.27243 0.75398 0.19079 0.0
H257 H 0.23378 0.63628 0.20997 0.0
H258 H 0.20136 0.66367 0.25488 0.0
H259 H 0.1859 0.72082 0.28964 0.0
H260 H 0.22552 0.8381 0.27012 0.0
H261 H 0.25601 0.81093 0.22416 0.0
C262 C 0.25679 0.73434 0.20472 0.0
C263 C 0.2555 0.69326 0.1974 0.0
C264 C 0.23871 0.75013 0.23044 0.0
C265 C 0.23493 0.66811 0.21521 0.0
C266 C 0.21664 0.68369 0.24094 0.0
C267 C 0.2013 0.74036 0.27535 0.0
C268 C 0.20373 0.78127 0.28334 0.0
C269 C 0.2187 0.72458 0.24899 0.0
C270 C 0.22362 0.80638 0.26467 0.0
C271 C 0.24088 0.79096 0.2383 0.0
H272 H 0.72675 0.67773 0.28099 0.0
H273 H 0.78491 0.78286 0.2967 0.0
H274 H 0.75608 0.81837 0.25324 0.0
H275 H 0.71499 0.81899 0.20994 0.0
H276 H 0.65694 0.71367 0.19467 0.0
H277 H 0.68543 0.6786 0.23845 0.0
C278 C 0.73295 0.70852 0.27508 0.0
C279 C 0.75793 0.72762 0.29194 0.0
C280 C 0.71657 0.72855 0.24987 0.0
C281 C 0.76577 0.76748 0.28397 0.0
C282 C 0.7494 0.78775 0.25906 0.0
C283 C 0.70876 0.7883 0.21612 0.0
C284 C 0.68401 0.7689 0.19914 0.0
C285 C 0.72497 0.76844 0.24162 0.0
C286 C 0.67591 0.72926 0.20751 0.0
C287 C 0.69212 0.70919 0.23256 0.0
H288 H 0.2756 0.73142 0.69566 0.0
H289 H 0.20229 0.81769 0.67081 0.0
H290 H 0.166 0.78613 0.71032 0.0
H291 H 0.15619 0.73596 0.75286 0.0
H292 H 0.23021 0.6514 0.77941 0.0
H293 H 0.26566 0.68092 0.73807 0.0
C294 C 0.25162 0.74324 0.69872 0.0
C295 C 0.24154 0.77686 0.68048 0.0
C296 C 0.23132 0.72557 0.72183 0.0
C297 C 0.21051 0.79193 0.68475 0.0
C298 C 0.18986 0.77396 0.70729 0.0
C299 C 0.18008 0.7239 0.74964 0.0
C300 C 0.19068 0.69165 0.76915 0.0
C301 C 0.2002 0.7411 0.72616 0.0
C302 C 0.22158 0.67621 0.76461 0.0
C303 C 0.24179 0.69306 0.74104 0.0
H304 H 0.73 0.6868 0.68775 0.0
H305 H 0.65525 0.77594 0.69383 0.0
H306 H 0.68587 0.81284 0.7349 0.0
H307 H 0.73349 0.8192 0.7697 0.0
H308 H 0.8083 0.73017 0.76333 0.0
H309 H 0.77798 0.69379 0.72178 0.0
C310 C 0.72047 0.71437 0.69799 0.0
C311 C 0.69042 0.72857 0.68785 0.0
C312 C 0.73814 0.7354 0.72159 0.0
C313 C 0.67839 0.7644 0.70123 0.0
C314 C 0.69582 0.78548 0.72476 0.0
C315 C 0.74313 0.79184 0.7592 0.0
C316 C 0.77299 0.77733 0.7696 0.0
C317 C 0.72564 0.77114 0.73524 0.0
C318 C 0.7853 0.74195 0.75572 0.0
C319 C 0.76801 0.72111 0.73196 0.0
H320 H 0.72526 0.31468 0.77334 0.0
H321 H 0.68056 0.20564 0.80745 0.0
H322 H 0.71346 0.16618 0.76997 0.0
H323 H 0.7529 0.163 0.72546 0.0
H324 H 0.79781 0.2718 0.69138 0.0
H325 H 0.76658 0.31115 0.73056 0.0
C326 C 0.72301 0.28226 0.77279 0.0
C327 C 0.70044 0.26307 0.79288 0.0
C328 C 0.74171 0.2598 0.75091 0.0
C329 C 0.69764 0.22107 0.79192 0.0
C330 C 0.71638 0.19849 0.7705 0.0
C331 C 0.75585 0.19531 0.72677 0.0
C332 C 0.77743 0.21459 0.7057 0.0
C333 C 0.73808 0.21761 0.7495 0.0
C334 C 0.78139 0.25637 0.70763 0.0
C335 C 0.76353 0.27886 0.72994 0.0
H336 H 0.16618 0.23808 0.70432 0.0
H337 H 0.21553 0.35114 0.71332 0.0
H338 H 0.24953 0.3228 0.75668 0.0
H339 H 0.26491 0.26563 0.79175 0.0
H340 H 0.21549 0.1526 0.78126 0.0
H341 H 0.18163 0.1814 0.73858 0.0
C342 C 0.18433 0.25659 0.71582 0.0
C343 C 0.18834 0.2966 0.70591 0.0
C344 C 0.20365 0.24015 0.7404 0.0
C345 C 0.21217 0.32014 0.72061 0.0
C346 C 0.23146 0.30402 0.74541 0.0
C347 C 0.24656 0.24743 0.78029 0.0
C348 C 0.24259 0.20714 0.78975 0.0
C349 C 0.22732 0.26406 0.75554 0.0
C350 C 0.21888 0.18379 0.77457 0.0
C351 C 0.19958 0.20015 0.75009 0.0
H352 H 0.09723 0.91497 0.23282 0.0
H353 H 0.12615 0.96897 0.32458 0.0
H354 H 0.12747 0.03479 0.29836 0.0
H355 H 0.12287 0.07642 0.24908 0.0
H356 H 0.09582 0.0226 0.15679 0.0
H357 H 0.09126 0.95708 0.18366 0.0
C358 C 0.10353 0.94116 0.24721 0.0
C359 C 0.11158 0.93697 0.28065 0.0
C360 C 0.10475 0.97885 0.23187 0.0
C361 C 0.11966 0.97129 0.29887 0.0
C362 C 0.1206 0.00894 0.28386 0.0
C363 C 0.11579 0.05041 0.23485 0.0
C364 C 0.10978 0.05428 0.20099 0.0
C365 C 0.11358 0.01295 0.25033 0.0
C366 C 0.10087 0.02027 0.18283 0.0
C367 C 0.09814 0.98288 0.1982 0.0
H368 H 0.84218 0.41426 0.25054 0.0
H369 H 0.8371 0.46705 0.15361 0.0
H370 H 0.83609 0.53405 0.17788 0.0
H371 H 0.83523 0.5773 0.22659 0.0
H372 H 0.83887 0.52382 0.32333 0.0
H373 H 0.84175 0.45716 0.29893 0.0
C374 C 0.84105 0.44034 0.23459 0.0
C375 C 0.8397 0.43559 0.20027 0.0
C376 C 0.84004 0.4786 0.24865 0.0
C377 C 0.83813 0.46982 0.1801 0.0
C378 C 0.8375 0.50814 0.19395 0.0
C379 C 0.83676 0.55109 0.24236 0.0
C380 C 0.83682 0.55556 0.27673 0.0
C381 C 0.8382 0.51282 0.2282 0.0
C382 C 0.83864 0.52125 0.2968 0.0
C383 C 0.84037 0.48312 0.28288 0.0
H384 H 0.22348 0.12922 0.9181 0.0
H385 H 0.30949 0.12862 0.97631 0.0
H386 H 0.27757 0.12718 0.02691 0.0
H387 H 0.22512 0.12898 0.05423 0.0
H388 H 0.13941 0.13943 -0.00397 0.0
H389 H 0.17106 0.13411 0.94546 0.0
C390 C 0.23506 0.12812 0.94196 0.0
C391 C 0.26856 0.12798 0.94386 0.0
C392 C 0.21659 0.1293 0.97068 0.0
C393 C 0.28365 0.12802 0.9746 0.0
C394 C 0.26543 0.12737 0.00337 0.0
C395 C 0.21345 0.12958 0.0304 0.0
C396 C 0.1801 0.13383 0.02855 0.0
C397 C 0.2319 0.12832 0.00168 0.0
C398 C 0.1651 0.13582 -0.00222 0.0
C399 C 0.18316 0.13281 0.969 0.0
H400 H 0.75015 0.29346 0.0314 0.0
H401 H 0.7677 0.42093 0.02905 0.0
H402 H 0.72842 0.42863 0.98459 0.0
H403 H 0.69049 0.39799 0.94504 0.0
H404 H 0.67187 0.27066 0.95098 0.0
H405 H 0.70991 0.2642 -0.00422 0.0
C406 C 0.7456 0.32294 0.02102 0.0
C407 C 0.76224 0.35645 0.0329 0.0
C408 C 0.72258 0.32718 -0.00366 0.0
C409 C 0.75544 0.39461 0.0199 0.0
C410 C 0.73293 0.399 -0.00537 0.0
C411 C 0.69449 0.36899 0.95648 0.0
C412 C 0.67851 0.33485 0.94452 0.0
C413 C 0.71647 0.36539 0.98251 0.0
C414 C 0.68377 0.29747 0.95969 0.0
C415 C 0.70571 0.29363 0.9852 0.0
H416 H 0.26544 0.7955 0.53085 0.0
H417 H 0.27933 0.92372 0.52971 0.0
H418 H 0.24116 0.92992 0.48403 0.0
H419 H 0.2029 0.89824 0.4453 0.0
H420 H 0.18736 0.77021 0.45093 0.0
H421 H 0.22671 0.76478 0.49459 0.0
C422 C 0.26055 0.82483 0.52034 0.0
C423 C 0.27555 0.85905 0.53322 0.0
C424 C 0.23781 0.82823 0.49534 0.0
C425 C 0.26832 0.8969 0.51988 0.0
C426 C 0.24635 0.90043 0.49399 0.0
C427 C 0.20796 0.86927 0.45633 0.0
C428 C 0.19222 0.8347 0.44479 0.0
C429 C 0.23066 0.86627 0.48176 0.0
C430 C 0.199 0.79734 0.45933 0.0
C431 C 0.22169 0.7941 0.48419 0.0
H432 H 0.71356 0.605 0.54581 0.0
H433 H 0.65582 0.70232 0.50812 0.0
H434 H 0.69148 0.70932 0.46117 0.0
H435 H 0.74004 0.68987 0.43197 0.0
H436 H 0.79694 0.59085 0.46711 0.0
H437 H 0.76105 0.58287 0.51451 0.0
C438 C 0.70861 0.62738 0.52709 0.0
C439 C 0.68219 0.65325 0.53049 0.0
C440 C 0.72937 0.63143 0.50017 0.0
C441 C 0.67609 0.6822 0.50614 0.0
C442 C 0.69652 0.68635 0.47936 0.0
C443 C 0.74462 0.66673 0.45019 0.0
C444 C 0.77111 0.64135 0.44665 0.0
C445 C 0.72347 0.66163 0.47645 0.0
C446 C 0.77663 0.6108 0.46972 0.0
C447 C 0.75611 0.60622 0.49663 0.0
H448 H 0.93506 0.28629 0.07797 0.0
H449 H 0.898 0.22911 0.16553 0.0
H450 H 0.94545 0.18862 0.17026 0.0
H451 H 0.00024 0.17639 0.15527 0.0
H452 H 0.04079 0.23278 0.06975 0.0
H453 H -0.01085 0.26519 0.05767 0.0
C454 C 0.93734 0.26451 0.09766 0.0
C455 C 0.91345 0.26176 0.12185 0.0
C456 C 0.9653 0.241 0.10065 0.0
C457 C 0.91639 0.23289 0.14703 0.0
C458 C 0.94348 0.20934 0.14977 0.0
C459 C -0.0025 0.19503 0.13352 0.0
C460 C 0.02402 0.2029 0.11374 0.0
C461 C 0.96849 0.21426 0.12755 0.0
C462 C 0.02042 0.22651 0.08534 0.0
C463 C -0.00894 0.24537 0.07872 0.0
H464 H 0.92314 0.75253 0.38041 0.0
H465 H 0.94692 0.63917 0.33594 0.0
H466 H 0.00384 0.65522 0.33908 0.0
H467 H 0.04474 0.7071 0.34334 0.0
H468 H 0.0215 0.82245 0.3846 0.0
H469 H 0.96648 0.80003 0.39474 0.0
C470 C 0.94102 0.73088 0.37271 0.0
C471 C 0.93135 0.69481 0.35806 0.0
C472 C 0.97357 0.74106 0.37349 0.0
C473 C 0.95423 0.66695 0.34754 0.0
C474 C -0.01336 0.67629 0.34905 0.0
C475 C 0.02776 0.72689 0.35536 0.0
C476 C 0.0366 0.76646 0.36264 0.0
C477 C -0.00367 0.71412 0.36026 0.0
C478 C 0.01491 0.79187 0.37868 0.0
C479 C -0.01652 0.77915 0.3842 0.0
H480 H 0.49914 0.6577 0.6246 0.0
H481 H 0.54157 0.76719 0.5896 0.0
H482 H 0.48854 0.79796 0.58415 0.0
H483 H 0.43197 0.79813 0.60244 0.0
H484 H 0.39166 0.68941 0.64232 0.0
H485 H 0.44142 0.6536 0.63219 0.0
C486 C 0.49648 0.68763 0.61435 0.0
C487 C 0.52376 0.7103 0.60747 0.0
C488 C 0.46624 0.70555 0.61299 0.0
C489 C 0.52056 0.74924 0.59468 0.0
C490 C 0.49032 0.76696 0.59205 0.0
C491 C 0.43397 0.76637 0.60797 0.0
C492 C 0.40871 0.74659 0.62388 0.0
C493 C 0.46319 0.74621 0.60317 0.0
C494 C 0.41124 0.70538 0.6308 0.0
C495 C 0.43963 0.68486 0.62498 0.0
H496 H 0.80511 0.05294 0.7063 0.0
H497 H 0.89984 0.02832 0.67026 0.0
H498 H 0.90715 0.9769 0.71317 0.0
H499 H 0.88566 0.93847 0.76089 0.0
H500 H 0.79273 0.96988 0.79926 0.0
H501 H 0.78587 0.01956 0.75598 0.0
C502 C 0.82723 0.03597 0.70766 0.0
C503 C 0.85159 0.04346 0.68474 0.0
C504 C 0.83171 0.00812 0.73317 0.0
C505 C 0.88059 0.02244 0.68737 0.0
C506 C 0.88477 -0.00673 0.71199 0.0
C507 C 0.86415 0.95662 0.76 0.0
C508 C 0.83974 0.9503 0.78336 0.0
C509 C 0.86046 0.98587 0.73511 0.0
C510 C 0.81203 0.97418 0.78187 0.0
C511 C 0.80791 0.00244 0.7569 0.0
H512 H 0.09114 0.57665 0.73879 0.0
H513 H 0.0956 0.4959 0.82165 0.0
H514 H 0.09225 0.43831 0.78452 0.0
H515 H 0.09232 0.41104 0.7285 0.0
H516 H 0.09399 0.49156 0.64543 0.0
H517 H 0.09036 0.54924 0.6826 0.0
C518 C 0.09076 0.54645 0.74877 0.0
C519 C 0.09325 0.54056 0.78301 0.0
C520 C 0.09011 0.51351 0.72717 0.0
C521 C 0.09349 0.50123 0.79547 0.0
C522 C 0.09168 0.46832 0.77422 0.0
C523 C 0.09127 0.4412 0.71846 0.0
C524 C 0.09304 0.44703 0.68418 0.0
C525 C 0.09054 0.47411 0.74002 0.0
C526 C 0.09246 0.4863 0.67166 0.0
C527 C 0.09049 0.51924 0.69293 0.0
H528 H 0.70944 0.86009 0.03934 0.0
H529 H 0.65218 0.76102 0.00515 0.0
H530 H 0.68145 0.75997 0.95345 0.0
H531 H 0.72648 0.78189 0.92058 0.0
H532 H 0.78641 0.87884 0.95386 0.0
H533 H 0.75295 0.88634 0.00312 0.0
C534 C 0.70308 0.83897 0.02019 0.0
C535 C 0.67882 0.81054 0.02595 0.0
C536 C 0.72077 0.83775 -0.00936 0.0
C537 C 0.6709 0.78298 0.00122 0.0
C538 C 0.68767 0.78228 0.97173 0.0
C539 C 0.73222 0.80489 0.93848 0.0
C540 C 0.7592 0.82932 0.93383 0.0
C541 C 0.71323 0.80862 0.96662 0.0
C542 C 0.76583 0.8595 0.95695 0.0
C543 C 0.74676 0.86367 0.98515 0.0
H544 H 0.22857 0.64322 0.91799 0.0
H545 H 0.1396 0.66876 0.96688 0.0
H546 H 0.16696 0.66942 0.02016 0.0
H547 H 0.2172 0.66993 0.05175 0.0
H548 H 0.30601 0.6413 0.00365 0.0
H549 H 0.2779 0.63422 0.95099 0.0
C550 C 0.21519 0.64778 0.94051 0.0
C551 C 0.18222 0.65561 0.93887 0.0
C552 C 0.23113 0.64802 0.97095 0.0
C553 C 0.16495 0.66209 0.96787 0.0
C554 C 0.18062 0.66282 -0.0018 0.0
C555 C 0.23021 0.66144 0.02977 0.0
C556 C 0.26352 0.65637 0.03125 0.0
C557 C 0.21382 0.65691 -0.00011 0.0
C558 C 0.2803 0.64515 0.0029 0.0
C559 C 0.26426 0.64133 0.97285 0.0
H560 H 0.66939 0.20292 0.46336 0.0
H561 H 0.71532 0.10075 0.41911 0.0
H562 H 0.75108 0.09465 0.467 0.0
H563 H 0.77222 0.12314 0.51969 0.0
H564 H 0.72406 0.22568 0.56186 0.0
H565 H 0.68626 0.22654 0.51685 0.0
C566 C 0.68702 0.179 0.46435 0.0
C567 C 0.69 0.15262 0.43774 0.0
C568 C 0.7073 0.17593 0.49159 0.0
C569 C 0.71257 0.12139 0.43944 0.0
C570 C 0.73313 0.11812 0.46671 0.0
C571 C 0.7532 0.14526 0.51915 0.0
C572 C 0.75151 0.17478 0.54393 0.0
C573 C 0.7312 0.14588 0.4927 0.0
C574 C 0.72651 0.20309 0.54291 0.0
C575 C 0.70469 0.20363 0.51716 0.0
H576 H 0.17515 0.36054 0.51739 0.0
H577 H 0.23149 0.26992 0.56686 0.0
H578 H 0.26885 0.26838 0.52147 0.0
H579 H 0.28367 0.28805 0.46607 0.0
H580 H 0.22972 0.37882 0.41495 0.0
H581 H 0.19345 0.38513 0.46233 0.0
C582 C 0.1958 0.34088 0.51829 0.0
C583 C 0.20006 0.31488 0.54534 0.0
C584 C 0.21755 0.33988 0.49167 0.0
C585 C 0.2271 0.28968 0.54615 0.0
C586 C 0.24866 0.28878 0.52021 0.0
C587 C 0.26419 0.3096 0.46551 0.0
C588 C 0.25921 0.33282 0.43725 0.0
C589 C 0.24375 0.31299 0.49261 0.0
C590 C 0.23409 0.36085 0.43671 0.0
C591 C 0.21328 0.36423 0.46369 0.0
H592 H 0.02082 0.68903 0.886 0.0
H593 H 0.05279 0.8034 0.8487 0.0
H594 H -0.00142 0.82997 0.8524 0.0
H595 H 0.94118 0.81889 0.86149 0.0
H596 H 0.9094 0.70485 0.89993 0.0
H597 H 0.96428 0.68059 0.90126 0.0
C598 C 0.01591 0.71984 0.87897 0.0
C599 C 0.04071 0.74398 0.86677 0.0
C600 C -0.01535 0.73516 0.88142 0.0
C601 C 0.03412 0.78409 0.85818 0.0
C602 C 0.00308 0.79935 0.8602 0.0
C603 C 0.94629 0.78902 0.87076 0.0
C604 C 0.92103 0.76361 0.88002 0.0
C605 C -0.02199 0.77494 0.87119 0.0
C606 C 0.92824 0.72501 0.89219 0.0
C607 C 0.95968 0.71094 0.89286 0.0
H608 H 0.02026 0.30404 0.59022 0.0
H609 H 0.05057 0.18287 0.61172 0.0
H610 H -0.00427 0.15937 0.60676 0.0
H611 H 0.93828 0.17422 0.60229 0.0
H612 H 0.90806 0.29533 0.58033 0.0
H613 H 0.96346 0.31732 0.57896 0.0
C614 C 0.01495 0.27243 0.59343 0.0
C615 C 0.03958 0.24553 0.60183 0.0
C616 C -0.01681 0.25891 0.59059 0.0
C617 C 0.03218 0.2045 0.60546 0.0
C618 C 0.00072 0.19091 0.6027 0.0
C619 C 0.9438 0.20525 0.59657 0.0
C620 C 0.91885 0.23306 0.592 0.0
C621 C -0.02412 0.218 0.59612 0.0
C622 C 0.92662 0.27316 0.58436 0.0
C623 C 0.9584 0.28593 0.58368 0.0
H624 H 0.53581 0.27825 0.37995 0.0
H625 H 0.51891 0.15043 0.37876 0.0
H626 H 0.46143 0.16227 0.3838 0.0
H627 H 0.416 0.20877 0.38256 0.0
H628 H 0.43284 0.33658 0.37965 0.0
H629 H 0.49045 0.32478 0.38264 0.0
C630 C 0.51966 0.25286 0.38123 0.0
C631 C 0.53173 0.21344 0.37865 0.0
C632 C 0.48661 0.25992 0.38319 0.0
C633 C 0.51033 0.18104 0.3804 0.0
C634 C 0.47744 0.18781 0.38325 0.0
C635 C 0.43218 0.23416 0.38307 0.0
C636 C 0.42002 0.27355 0.38056 0.0
C637 C 0.46529 0.22712 0.38375 0.0
C638 C 0.44147 0.30597 0.38131 0.0
C639 C 0.47444 0.29923 0.38293 0.0
H640 H 0.59908 0.5732 0.74479 0.0
H641 H 0.61414 0.51981 0.6494 0.0
H642 H 0.61455 0.45305 0.67438 0.0
H643 H 0.61305 0.41025 0.72357 0.0
H644 H 0.60004 0.46432 0.81901 0.0
H645 H 0.5963 0.53054 0.79357 0.0
C646 C 0.60223 0.54701 0.72933 0.0
C647 C 0.60663 0.5516 0.69524 0.0
C648 C 0.60292 0.50885 0.74387 0.0
C649 C 0.61074 0.51722 0.6757 0.0
C650 C 0.61102 0.47902 0.68998 0.0
C651 C 0.60913 0.43647 0.73881 0.0
C652 C 0.6069 0.43232 0.77317 0.0
C653 C 0.60748 0.47454 0.72408 0.0
C654 C 0.60202 0.46666 0.79253 0.0
C655 C 0.59985 0.50454 0.77801 0.0
H656 H 0.33168 0.02159 0.80366 0.0
H657 H 0.35698 0.0935 0.71924 0.0
H658 H 0.36073 0.03311 0.68557 0.0
H659 H 0.35324 0.96013 0.67926 0.0
H660 H 0.32769 0.88912 0.76418 0.0
H661 H 0.32763 0.94891 0.79828 0.0
C662 C 0.33835 0.02412 0.77799 0.0
C663 C 0.34376 0.06208 0.76401 0.0
C664 C 0.34019 0.98939 0.75869 0.0
C665 C 0.35243 0.06467 0.73065 0.0
C666 C 0.35455 0.03014 0.71132 0.0
C667 C 0.34798 0.95772 0.70528 0.0
C668 C 0.34042 0.92014 0.71901 0.0
C669 C 0.3479 0.99238 0.72494 0.0
C670 C 0.33377 0.91755 0.75286 0.0
C671 C 0.33359 0.95179 0.77246 0.0
H672 H 0.41197 0.26714 0.86937 0.0
H673 H 0.43433 0.14387 0.84737 0.0
H674 H 0.49154 0.15896 0.84939 0.0
H675 H 0.53376 0.21008 0.8464 0.0
H676 H 0.51196 0.33323 0.86948 0.0
H677 H 0.45583 0.31542 0.87903 0.0
C678 C 0.42953 0.24345 0.86628 0.0
C679 C 0.41938 0.20464 0.85799 0.0
C680 C 0.46225 0.2525 0.86724 0.0
C681 C 0.44191 0.17388 0.85397 0.0
C682 C 0.47452 0.18261 0.85478 0.0
C683 C 0.51677 0.23271 0.85438 0.0
C684 C 0.52641 0.27292 0.8566 0.0
C685 C 0.4848 0.22222 0.85969 0.0
C686 C 0.50472 0.30212 0.86745 0.0
C687 C 0.4727 0.29198 0.87268 0.0
H688 H 0.35168 0.57964 0.2297 0.0
H689 H 0.35898 0.49986 0.14672 0.0
H690 H 0.36073 0.44196 0.18394 0.0
H691 H 0.35564 0.41403 0.23974 0.0
H692 H 0.34242 0.49384 0.32198 0.0
H693 H 0.34757 0.55188 0.28542 0.0
C694 C 0.35431 0.54962 0.21978 0.0
C695 C 0.35556 0.544 0.18551 0.0
C696 C 0.35387 0.51655 0.24122 0.0
C697 C 0.35818 0.5049 0.17299 0.0
C698 C 0.35904 0.47185 0.19427 0.0
C699 C 0.35437 0.44415 0.24973 0.0
C700 C 0.34885 0.44968 0.28356 0.0
C701 C 0.35623 0.47729 0.22838 0.0
C702 C 0.34669 0.48884 0.29606 0.0
C703 C 0.34961 0.52199 0.27515 0.0
H704 H 0.61465 0.07264 0.23504 0.0
H705 H 0.59504 -0.00389 0.31812 0.0
H706 H 0.58959 0.93826 0.28141 0.0
H707 H 0.59372 0.90891 0.22617 0.0
H708 H 0.61886 0.98433 0.14389 0.0
H709 H 0.61877 0.04326 0.17972 0.0
C710 C 0.60881 0.04334 0.24502 0.0
C711 C 0.605 0.03858 0.27918 0.0
C712 C 0.60689 0.01009 0.2239 0.0
C713 C 0.59807 0.00041 0.29192 0.0
C714 C 0.59496 0.96741 0.27094 0.0
C715 C 0.59868 0.93834 0.21597 0.0
C716 C 0.60597 0.94229 0.18232 0.0
C717 C 0.59974 0.9718 0.23694 0.0
C718 C 0.61298 0.98052 0.16963 0.0
C719 C 0.61304 0.01419 0.19014 0.0
H720 H 0.51182 0.81171 0.1141 0.0
H721 H 0.53952 0.6946 0.07866 0.0
H722 H 0.48374 0.67473 0.07524 0.0
H723 H 0.42732 0.68802 0.08699 0.0
H724 H 0.39877 0.80496 0.12157 0.0
H725 H 0.4544 0.82733 0.12054 0.0
C726 C 0.50563 0.78207 0.10517 0.0
C727 C 0.52998 0.75457 0.09718 0.0
C728 C 0.47328 0.77053 0.10342 0.0
C729 C 0.52141 0.71631 0.08547 0.0
C730 C 0.48944 0.70479 0.08351 0.0
C731 C 0.43326 0.71851 0.09401 0.0
C732 C 0.40902 0.7446 0.10462 0.0
C733 C 0.46524 0.73123 0.09325 0.0
C734 C 0.41701 0.78423 0.11324 0.0
C735 C 0.44885 0.79703 0.11279 0.0
loop_
_geom_bond_atom_site_label_1
_geom_bond_atom_site_label_2
_geom_bond_distance
_geom_bond_site_symmetry_2
_ccdc_geom_bond_type
C0 O1 1.306 . S
C0 O3 1.160 . S
O1 C0 1.306 . S
O1 Cd2 2.228 . S
Cd2 O1 2.228 . S
Cd2 O6 2.273 . S
Cd2 O10 2.277 . S
O3 C0 1.160 . S
O3 Cd4 2.203 . S
Cd4 O3 2.203 . S
Cd4 O6 2.411 . S
Cd4 O7 2.333 . S
Cd4 O8 2.352 . S
Cd4 O12 2.277 . S
Cd4 O13 2.356 . S
C5 O10 1.209 . S
C5 O12 1.226 . S
O6 Cd2 2.273 . S
O6 Cd4 2.411 . S
O6 C9 1.320 . S
O7 Cd4 2.333 . S
O7 C9 1.214 . S
O8 Cd4 2.352 . S
O8 C11 1.258 . S
C9 O6 1.320 . S
C9 O7 1.214 . S
O10 Cd2 2.277 . S
O10 C5 1.209 . S
C11 O8 1.258 . S
C11 O13 1.282 . S
O12 Cd4 2.277 . S
O12 C5 1.226 . S
O13 Cd4 2.356 . S
O13 C11 1.282 . S
C14 O15 1.306 . S
C14 O17 1.160 . S
O15 C14 1.306 . S
O15 Cd16 2.228 . S
Cd16 O15 2.228 . S
Cd16 O20 2.273 . S
Cd16 O24 2.277 . S
O17 C14 1.160 . S
O17 Cd18 2.203 . S
Cd18 O17 2.203 . S
Cd18 O20 2.411 . S
Cd18 O21 2.333 . S
Cd18 O22 2.352 . S
Cd18 O26 2.277 . S
Cd18 O27 2.356 . S
C19 O24 1.209 . S
C19 O26 1.226 . S
O20 Cd16 2.273 . S
O20 Cd18 2.411 . S
O20 C23 1.320 . S
O21 Cd18 2.333 . S
O21 C23 1.214 . S
O22 Cd18 2.352 . S
O22 C25 1.258 . S
C23 O20 1.320 . S
C23 O21 1.214 . S
O24 Cd16 2.277 . S
O24 C19 1.209 . S
C25 O22 1.258 . S
C25 O27 1.282 . S
O26 Cd18 2.277 . S
O26 C19 1.226 . S
O27 Cd18 2.356 . S
O27 C25 1.282 . S
C28 O29 1.306 . S
C28 O31 1.160 . S
O29 C28 1.306 . S
O29 Cd30 2.228 . S
Cd30 O29 2.228 . S
Cd30 O34 2.273 . S
Cd30 O38 2.277 . S
O31 C28 1.160 . S
O31 Cd32 2.203 . S
Cd32 O31 2.203 . S
Cd32 O34 2.411 . S
Cd32 O35 2.333 . S
Cd32 O36 2.352 . S
Cd32 O40 2.277 . S
Cd32 O41 2.356 . S
C33 O38 1.209 . S
C33 O40 1.226 . S
O34 Cd30 2.273 . S
O34 Cd32 2.411 . S
O34 C37 1.320 . S
O35 Cd32 2.333 . S
O35 C37 1.214 . S
O36 Cd32 2.352 . S
O36 C39 1.258 . S
C37 O34 1.320 . S
C37 O35 1.214 . S
O38 Cd30 2.277 . S
O38 C33 1.209 . S
C39 O36 1.258 . S
C39 O41 1.282 . S
O40 Cd32 2.277 . S
O40 C33 1.226 . S
O41 Cd32 2.356 . S
O41 C39 1.282 . S
C42 O43 1.306 . S
C42 O45 1.160 . S
O43 C42 1.306 . S
O43 Cd44 2.228 . S
Cd44 O43 2.228 . S
Cd44 O48 2.273 . S
Cd44 O52 2.277 . S
O45 C42 1.160 . S
O45 Cd46 2.203 . S
Cd46 O45 2.203 . S
Cd46 O48 2.411 . S
Cd46 O49 2.333 . S
Cd46 O50 2.352 . S
Cd46 O54 2.277 . S
Cd46 O55 2.356 . S
C47 O52 1.209 . S
C47 O54 1.226 . S
O48 Cd44 2.273 . S
O48 Cd46 2.411 . S
O48 C51 1.320 . S
O49 Cd46 2.333 . S
O49 C51 1.214 . S
O50 Cd46 2.352 . S
O50 C53 1.258 . S
C51 O48 1.320 . S
C51 O49 1.214 . S
O52 Cd44 2.277 . S
O52 C47 1.209 . S
C53 O50 1.258 . S
C53 O55 1.282 . S
O54 Cd46 2.277 . S
O54 C47 1.226 . S
O55 Cd46 2.356 . S
O55 C53 1.282 . S
C56 O57 1.306 . S
C56 O59 1.160 . S
O57 C56 1.306 . S
O57 Cd58 2.228 . S
Cd58 O57 2.228 . S
Cd58 O62 2.273 . S
Cd58 O66 2.277 . S
O59 C56 1.160 . S
O59 Cd60 2.203 . S
Cd60 O59 2.203 . S
Cd60 O62 2.411 . S
Cd60 O63 2.333 . S
Cd60 O64 2.352 . S
Cd60 O68 2.277 . S
Cd60 O69 2.356 . S
C61 O66 1.209 . S
C61 O68 1.226 . S
O62 Cd58 2.273 . S
O62 Cd60 2.411 . S
O62 C65 1.320 . S
O63 Cd60 2.333 . S
O63 C65 1.214 . S
O64 Cd60 2.352 . S
O64 C67 1.258 . S
C65 O62 1.320 . S
C65 O63 1.214 . S
O66 Cd58 2.277 . S
O66 C61 1.209 . S
C67 O64 1.258 . S
C67 O69 1.282 . S
O68 Cd60 2.277 . S
O68 C61 1.226 . S
O69 Cd60 2.356 . S
O69 C67 1.282 . S
C70 O71 1.306 . S
C70 O73 1.160 . S
O71 C70 1.306 . S
O71 Cd72 2.228 . S
Cd72 O71 2.228 . S
Cd72 O76 2.273 . S
Cd72 O80 2.277 . S
O73 C70 1.160 . S
O73 Cd74 2.203 . S
Cd74 O73 2.203 . S
Cd74 O76 2.411 . S
Cd74 O77 2.333 . S
Cd74 O78 2.352 . S
Cd74 O82 2.277 . S
Cd74 O83 2.356 . S
C75 O80 1.209 . S
C75 O82 1.226 . S
O76 Cd72 2.273 . S
O76 Cd74 2.411 . S
O76 C79 1.320 . S
O77 Cd74 2.333 . S
O77 C79 1.214 . S
O78 Cd74 2.352 . S
O78 C81 1.258 . S
C79 O76 1.320 . S
C79 O77 1.214 . S
O80 Cd72 2.277 . S
O80 C75 1.209 . S
C81 O78 1.258 . S
C81 O83 1.282 . S
O82 Cd74 2.277 . S
O82 C75 1.226 . S
O83 Cd74 2.356 . S
O83 C81 1.282 . S
C84 O85 1.306 . S
C84 O87 1.160 . S
O85 C84 1.306 . S
O85 Cd86 2.228 . S
Cd86 O85 2.228 . S
Cd86 O90 2.273 . S
Cd86 O94 2.277 . S
O87 C84 1.160 . S
O87 Cd88 2.203 . S
Cd88 O87 2.203 . S
Cd88 O90 2.411 . S
Cd88 O91 2.333 . S
Cd88 O92 2.352 . S
Cd88 O96 2.277 . S
Cd88 O97 2.356 . S
C89 O94 1.209 . S
C89 O96 1.226 . S
O90 Cd86 2.273 . S
O90 Cd88 2.411 . S
O90 C93 1.320 . S
O91 Cd88 2.333 . S
O91 C93 1.214 . S
O92 Cd88 2.352 . S
O92 C95 1.258 . S
C93 O90 1.320 . S
C93 O91 1.214 . S
O94 Cd86 2.277 . S
O94 C89 1.209 . S
C95 O92 1.258 . S
C95 O97 1.282 . S
O96 Cd88 2.277 . S
O96 C89 1.226 . S
O97 Cd88 2.356 . S
O97 C95 1.282 . S
C98 O99 1.306 . S
C98 O101 1.160 . S
O99 C98 1.306 . S
O99 Cd100 2.228 . S
Cd100 O99 2.228 . S
Cd100 O104 2.273 . S
Cd100 O108 2.277 . S
O101 C98 1.160 . S
O101 Cd102 2.203 . S
Cd102 O101 2.203 . S
Cd102 O104 2.411 . S
Cd102 O105 2.333 . S
Cd102 O106 2.352 . S
Cd102 O110 2.277 . S
Cd102 O111 2.356 . S
C103 O108 1.209 . S
C103 O110 1.226 . S
O104 Cd100 2.273 . S
O104 Cd102 2.411 . S
O104 C107 1.320 . S
O105 Cd102 2.333 . S
O105 C107 1.214 . S
O106 Cd102 2.352 . S
O106 C109 1.258 . S
C107 O104 1.320 . S
C107 O105 1.214 . S
O108 Cd100 2.277 . S
O108 C103 1.209 . S
C109 O106 1.258 . S
C109 O111 1.282 . S
O110 Cd102 2.277 . S
O110 C103 1.226 . S
O111 Cd102 2.356 . S
O111 C109 1.282 . S
C112 O113 1.306 . S
C112 O115 1.160 . S
O113 C112 1.306 . S
O113 Cd114 2.228 . S
Cd114 O113 2.228 . S
Cd114 O118 2.273 . S
Cd114 O122 2.277 . S
O115 C112 1.160 . S
O115 Cd116 2.203 . S
Cd116 O115 2.203 . S
Cd116 O118 2.411 . S
Cd116 O119 2.333 . S
Cd116 O120 2.352 . S
Cd116 O124 2.277 . S
Cd116 O125 2.356 . S
C117 O122 1.209 . S
C117 O124 1.226 . S
O118 Cd114 2.273 . S
O118 Cd116 2.411 . S
O118 C121 1.320 . S
O119 Cd116 2.333 . S
O119 C121 1.214 . S
O120 Cd116 2.352 . S
O120 C123 1.258 . S
C121 O118 1.320 . S
C121 O119 1.214 . S
O122 Cd114 2.277 . S
O122 C117 1.209 . S
C123 O120 1.258 . S
C123 O125 1.282 . S
O124 Cd116 2.277 . S
O124 C117 1.226 . S
O125 Cd116 2.356 . S
O125 C123 1.282 . S
C126 O127 1.306 . S
C126 O129 1.160 . S
O127 C126 1.306 . S
O127 Cd128 2.228 . S
Cd128 O127 2.228 . S
Cd128 O132 2.273 . S
Cd128 O136 2.277 . S
O129 C126 1.160 . S
O129 Cd130 2.203 . S
Cd130 O129 2.203 . S
Cd130 O132 2.411 . S
Cd130 O133 2.333 . S
Cd130 O134 2.352 . S
Cd130 O138 2.277 . S
Cd130 O139 2.356 . S
C131 O136 1.209 . S
C131 O138 1.226 . S
O132 Cd128 2.273 . S
O132 Cd130 2.411 . S
O132 C135 1.320 . S
O133 Cd130 2.333 . S
O133 C135 1.214 . S
O134 Cd130 2.352 . S
O134 C137 1.258 . S
C135 O132 1.320 . S
C135 O133 1.214 . S
O136 Cd128 2.277 . S
O136 C131 1.209 . S
C137 O134 1.258 . S
C137 O139 1.282 . S
O138 Cd130 2.277 . S
O138 C131 1.226 . S
O139 Cd130 2.356 . S
O139 C137 1.282 . S
C140 O141 1.306 . S
C140 O143 1.160 . S
O141 C140 1.306 . S
O141 Cd142 2.228 . S
Cd142 O141 2.228 . S
Cd142 O146 2.273 . S
Cd142 O150 2.277 . S
O143 C140 1.160 . S
O143 Cd144 2.203 . S
Cd144 O143 2.203 . S
Cd144 O146 2.411 . S
Cd144 O147 2.333 . S
Cd144 O148 2.352 . S
Cd144 O152 2.277 . S
Cd144 O153 2.356 . S
C145 O150 1.209 . S
C145 O152 1.226 . S
O146 Cd142 2.273 . S
O146 Cd144 2.411 . S
O146 C149 1.320 . S
O147 Cd144 2.333 . S
O147 C149 1.214 . S
O148 Cd144 2.352 . S
O148 C151 1.258 . S
C149 O146 1.320 . S
C149 O147 1.214 . S
O150 Cd142 2.277 . S
O150 C145 1.209 . S
C151 O148 1.258 . S
C151 O153 1.282 . S
O152 Cd144 2.277 . S
O152 C145 1.226 . S
O153 Cd144 2.356 . S
O153 C151 1.282 . S
C154 O155 1.306 . S
C154 O157 1.160 . S
O155 C154 1.306 . S
O155 Cd156 2.228 . S
Cd156 O155 2.228 . S
Cd156 O160 2.273 . S
Cd156 O164 2.277 . S
O157 C154 1.160 . S
O157 Cd158 2.203 . S
Cd158 O157 2.203 . S
Cd158 O160 2.411 . S
Cd158 O161 2.333 . S
Cd158 O162 2.352 . S
Cd158 O166 2.277 . S
Cd158 O167 2.356 . S
C159 O164 1.209 . S
C159 O166 1.226 . S
O160 Cd156 2.273 . S
O160 Cd158 2.411 . S
O160 C163 1.320 . S
O161 Cd158 2.333 . S
O161 C163 1.214 . S
O162 Cd158 2.352 . S
O162 C165 1.258 . S
C163 O160 1.320 . S
C163 O161 1.214 . S
O164 Cd156 2.277 . S
O164 C159 1.209 . S
C165 O162 1.258 . S
C165 O167 1.282 . S
O166 Cd158 2.277 . S
O166 C159 1.226 . S
O167 Cd158 2.356 . S
O167 C165 1.282 . S
C168 O169 1.306 . S
C168 O171 1.160 . S
O169 C168 1.306 . S
O169 Cd170 2.228 . S
Cd170 O169 2.228 . S
Cd170 O174 2.273 . S
Cd170 O178 2.277 . S
O171 C168 1.160 . S
O171 Cd172 2.203 . S
Cd172 O171 2.203 . S
Cd172 O174 2.411 . S
Cd172 O175 2.333 . S
Cd172 O176 2.352 . S
Cd172 O180 2.277 . S
Cd172 O181 2.356 . S
C173 O178 1.209 . S
C173 O180 1.226 . S
O174 Cd170 2.273 . S
O174 Cd172 2.411 . S
O174 C177 1.320 . S
O175 Cd172 2.333 . S
O175 C177 1.214 . S
O176 Cd172 2.352 . S
O176 C179 1.258 . S
C177 O174 1.320 . S
C177 O175 1.214 . S
O178 Cd170 2.277 . S
O178 C173 1.209 . S
C179 O176 1.258 . S
C179 O181 1.282 . S
O180 Cd172 2.277 . S
O180 C173 1.226 . S
O181 Cd172 2.356 . S
O181 C179 1.282 . S
C182 O183 1.306 . S
C182 O185 1.160 . S
O183 C182 1.306 . S
O183 Cd184 2.228 . S
Cd184 O183 2.228 . S
Cd184 O188 2.273 . S
Cd184 O192 2.277 . S
O185 C182 1.160 . S
O185 Cd186 2.203 . S
Cd186 O185 2.203 . S
Cd186 O188 2.411 . S
Cd186 O189 2.333 . S
Cd186 O190 2.352 . S
Cd186 O194 2.277 . S
Cd186 O195 2.356 . S
C187 O192 1.209 . S
C187 O194 1.226 . S
O188 Cd184 2.273 . S
O188 Cd186 2.411 . S
O188 C191 1.320 . S
O189 Cd186 2.333 . S
O189 C191 1.214 . S
O190 Cd186 2.352 . S
O190 C193 1.258 . S
C191 O188 1.320 . S
C191 O189 1.214 . S
O192 Cd184 2.277 . S
O192 C187 1.209 . S
C193 O190 1.258 . S
C193 O195 1.282 . S
O194 Cd186 2.277 . S
O194 C187 1.226 . S
O195 Cd186 2.356 . S
O195 C193 1.282 . S
C196 O197 1.306 . S
C196 O199 1.160 . S
O197 C196 1.306 . S
O197 Cd198 2.228 . S
Cd198 O197 2.228 . S
Cd198 O202 2.273 . S
Cd198 O206 2.277 . S
O199 C196 1.160 . S
O199 Cd200 2.203 . S
Cd200 O199 2.203 . S
Cd200 O202 2.411 . S
Cd200 O203 2.333 . S
Cd200 O204 2.352 . S
Cd200 O208 2.277 . S
Cd200 O209 2.356 . S
C201 O206 1.209 . S
C201 O208 1.226 . S
O202 Cd198 2.273 . S
O202 Cd200 2.411 . S
O202 C205 1.320 . S
O203 Cd200 2.333 . S
O203 C205 1.214 . S
O204 Cd200 2.352 . S
O204 C207 1.258 . S
C205 O202 1.320 . S
C205 O203 1.214 . S
O206 Cd198 2.277 . S
O206 C201 1.209 . S
C207 O204 1.258 . S
C207 O209 1.282 . S
O208 Cd200 2.277 . S
O208 C201 1.226 . S
O209 Cd200 2.356 . S
O209 C207 1.282 . S
C210 O211 1.306 . S
C210 O213 1.160 . S
O211 C210 1.306 . S
O211 Cd212 2.228 . S
Cd212 O211 2.228 . S
Cd212 O216 2.273 . S
Cd212 O220 2.277 . S
O213 C210 1.160 . S
O213 Cd214 2.203 . S
Cd214 O213 2.203 . S
Cd214 O216 2.411 . S
Cd214 O217 2.333 . S
Cd214 O218 2.352 . S
Cd214 O222 2.277 . S
Cd214 O223 2.356 . S
C215 O220 1.209 . S
C215 O222 1.226 . S
O216 Cd212 2.273 . S
O216 Cd214 2.411 . S
O216 C219 1.320 . S
O217 Cd214 2.333 . S
O217 C219 1.214 . S
O218 Cd214 2.352 . S
O218 C221 1.258 . S
C219 O216 1.320 . S
C219 O217 1.214 . S
O220 Cd212 2.277 . S
O220 C215 1.209 . S
C221 O218 1.258 . S
C221 O223 1.282 . S
O222 Cd214 2.277 . S
O222 C215 1.226 . S
O223 Cd214 2.356 . S
O223 C221 1.282 . S
H224 C230 0.930 . S
H225 C233 0.930 . S
H226 C234 0.930 . S
H227 C235 0.930 . S
H228 C238 0.930 . S
H229 C239 0.930 . S
C230 H224 0.930 . S
C230 C231 1.355 . S
C230 C232 1.415 . S
C231 C230 1.355 . S
C231 C233 1.419 . S
C232 C230 1.415 . S
C232 C237 1.425 . S
C232 C239 1.409 . S
C233 H225 0.930 . S
C233 C231 1.419 . S
C233 C234 1.362 . S
C234 H226 0.930 . S
C234 C233 1.362 . S
C234 C237 1.409 . S
C235 H227 0.930 . S
C235 C236 1.355 . S
C235 C237 1.415 . S
C236 C235 1.355 . S
C236 C238 1.419 . S
C237 C232 1.425 . S
C237 C234 1.409 . S
C237 C235 1.415 . S
C238 H228 0.930 . S
C238 C236 1.419 . S
C238 C239 1.362 . S
C239 H229 0.930 . S
C239 C232 1.409 . S
C239 C238 1.362 . S
H240 C246 0.930 . S
H241 C249 0.930 . S
H242 C250 0.930 . S
H243 C251 0.930 . S
H244 C254 0.930 . S
H245 C255 0.930 . S
C246 H240 0.930 . S
C246 C247 1.355 . S
C246 C248 1.415 . S
C247 C246 1.355 . S
C247 C249 1.419 . S
C248 C246 1.415 . S
C248 C253 1.425 . S
C248 C255 1.409 . S
C249 H241 0.930 . S
C249 C247 1.419 . S
C249 C250 1.362 . S
C250 H242 0.930 . S
C250 C249 1.362 . S
C250 C253 1.409 . S
C251 H243 0.930 . S
C251 C252 1.355 . S
C251 C253 1.415 . S
C252 C251 1.355 . S
C252 C254 1.419 . S
C253 C248 1.425 . S
C253 C250 1.409 . S
C253 C251 1.415 . S
C254 H244 0.930 . S
C254 C252 1.419 . S
C254 C255 1.362 . S
C255 H245 0.930 . S
C255 C248 1.409 . S
C255 C254 1.362 . S
H256 C262 0.930 . S
H257 C265 0.930 . S
H258 C266 0.930 . S
H259 C267 0.930 . S
H260 C270 0.930 . S
H261 C271 0.930 . S
C262 H256 0.930 . S
C262 C263 1.355 . S
C262 C264 1.415 . S
C263 C262 1.355 . S
C263 C265 1.419 . S
C264 C262 1.415 . S
C264 C269 1.425 . S
C264 C271 1.409 . S
C265 H257 0.930 . S
C265 C263 1.419 . S
C265 C266 1.362 . S
C266 H258 0.930 . S
C266 C265 1.362 . S
C266 C269 1.409 . S
C267 H259 0.930 . S
C267 C268 1.355 . S
C267 C269 1.415 . S
C268 C267 1.355 . S
C268 C270 1.419 . S
C269 C264 1.425 . S
C269 C266 1.409 . S
C269 C267 1.415 . S
C270 H260 0.930 . S
C270 C268 1.419 . S
C270 C271 1.362 . S
C271 H261 0.930 . S
C271 C264 1.409 . S
C271 C270 1.362 . S
H272 C278 0.930 . S
H273 C281 0.930 . S
H274 C282 0.930 . S
H275 C283 0.930 . S
H276 C286 0.930 . S
H277 C287 0.930 . S
C278 H272 0.930 . S
C278 C279 1.355 . S
C278 C280 1.415 . S
C279 C278 1.355 . S
C279 C281 1.419 . S
C280 C278 1.415 . S
C280 C285 1.425 . S
C280 C287 1.409 . S
C281 H273 0.930 . S
C281 C279 1.419 . S
C281 C282 1.362 . S
C282 H274 0.930 . S
C282 C281 1.362 . S
C282 C285 1.409 . S
C283 H275 0.930 . S
C283 C284 1.355 . S
C283 C285 1.415 . S
C284 C283 1.355 . S
C284 C286 1.419 . S
C285 C280 1.425 . S
C285 C282 1.409 . S
C285 C283 1.415 . S
C286 H276 0.930 . S
C286 C284 1.419 . S
C286 C287 1.362 . S
C287 H277 0.930 . S
C287 C280 1.409 . S
C287 C286 1.362 . S
H288 C294 0.930 . S
H289 C297 0.930 . S
H290 C298 0.930 . S
H291 C299 0.930 . S
H292 C302 0.930 . S
H293 C303 0.930 . S
C294 H288 0.930 . S
C294 C295 1.355 . S
C294 C296 1.415 . S
C295 C294 1.355 . S
C295 C297 1.419 . S
C296 C294 1.415 . S
C296 C301 1.425 . S
C296 C303 1.409 . S
C297 H289 0.930 . S
C297 C295 1.419 . S
C297 C298 1.362 . S
C298 H290 0.930 . S
C298 C297 1.362 . S
C298 C301 1.409 . S
C299 H291 0.930 . S
C299 C300 1.355 . S
C299 C301 1.415 . S
C300 C299 1.355 . S
C300 C302 1.419 . S
C301 C296 1.425 . S
C301 C298 1.409 . S
C301 C299 1.415 . S
C302 H292 0.930 . S
C302 C300 1.419 . S
C302 C303 1.362 . S
C303 H293 0.930 . S
C303 C296 1.409 . S
C303 C302 1.362 . S
H304 C310 0.930 . S
H305 C313 0.930 . S
H306 C314 0.930 . S
H307 C315 0.930 . S
H308 C318 0.930 . S
H309 C319 0.930 . S
C310 H304 0.930 . S
C310 C311 1.355 . S
C310 C312 1.415 . S
C311 C310 1.355 . S
C311 C313 1.419 . S
C312 C310 1.415 . S
C312 C317 1.425 . S
C312 C319 1.409 . S
C313 H305 0.930 . S
C313 C311 1.419 . S
C313 C314 1.362 . S
C314 H306 0.930 . S
C314 C313 1.362 . S
C314 C317 1.409 . S
C315 H307 0.930 . S
C315 C316 1.355 . S
C315 C317 1.415 . S
C316 C315 1.355 . S
C316 C318 1.419 . S
C317 C312 1.425 . S
C317 C314 1.409 . S
C317 C315 1.415 . S
C318 H308 0.930 . S
C318 C316 1.419 . S
C318 C319 1.362 . S
C319 H309 0.930 . S
C319 C312 1.409 . S
C319 C318 1.362 . S
H320 C326 0.930 . S
H321 C329 0.930 . S
H322 C330 0.930 . S
H323 C331 0.930 . S
H324 C334 0.930 . S
H325 C335 0.930 . S
C326 H320 0.930 . S
C326 C327 1.355 . S
C326 C328 1.415 . S
C327 C326 1.355 . S
C327 C329 1.419 . S
C328 C326 1.415 . S
C328 C333 1.425 . S
C328 C335 1.409 . S
C329 H321 0.930 . S
C329 C327 1.419 . S
C329 C330 1.362 . S
C330 H322 0.930 . S
C330 C329 1.362 . S
C330 C333 1.409 . S
C331 H323 0.930 . S
C331 C332 1.355 . S
C331 C333 1.415 . S
C332 C331 1.355 . S
C332 C334 1.419 . S
C333 C328 1.425 . S
C333 C330 1.409 . S
C333 C331 1.415 . S
C334 H324 0.930 . S
C334 C332 1.419 . S
C334 C335 1.362 . S
C335 H325 0.930 . S
C335 C328 1.409 . S
C335 C334 1.362 . S
H336 C342 0.930 . S
H337 C345 0.930 . S
H338 C346 0.930 . S
H339 C347 0.930 . S
H340 C350 0.930 . S
H341 C351 0.930 . S
C342 H336 0.930 . S
C342 C343 1.355 . S
C342 C344 1.415 . S
C343 C342 1.355 . S
C343 C345 1.419 . S
C344 C342 1.415 . S
C344 C349 1.425 . S
C344 C351 1.409 . S
C345 H337 0.930 . S
C345 C343 1.419 . S
C345 C346 1.362 . S
C346 H338 0.930 . S
C346 C345 1.362 . S
C346 C349 1.409 . S
C347 H339 0.930 . S
C347 C348 1.355 . S
C347 C349 1.415 . S
C348 C347 1.355 . S
C348 C350 1.419 . S
C349 C344 1.425 . S
C349 C346 1.409 . S
C349 C347 1.415 . S
C350 H340 0.930 . S
C350 C348 1.419 . S
C350 C351 1.362 . S
C351 H341 0.930 . S
C351 C344 1.409 . S
C351 C350 1.362 . S
H352 C358 0.930 . S
H353 C361 0.930 . S
H354 C362 0.922 1_545 S
H355 C363 0.930 . S
H356 C366 0.930 . S
H357 C367 0.922 1_565 S
C358 H352 0.930 . S
C358 C359 1.355 . S
C358 C360 1.415 . S
C359 C358 1.355 . S
C359 C361 1.419 . S
C360 C358 1.415 . S
C360 C365 1.425 1_565 S
C360 C367 1.409 1_565 S
C361 H353 0.930 . S
C361 C359 1.419 . S
C361 C362 1.362 . S
C362 H354 0.922 1_565 S
C362 C361 1.362 . S
C362 C365 1.409 1_565 S
C363 H355 0.930 . S
C363 C364 1.355 . S
C363 C365 1.415 . S
C364 C363 1.355 . S
C364 C366 1.419 . S
C365 C360 1.425 1_545 S
C365 C362 1.409 1_545 S
C365 C363 1.415 . S
C366 H356 0.930 . S
C366 C364 1.419 . S
C366 C367 1.362 . S
C367 H357 0.922 1_545 S
C367 C360 1.409 1_545 S
C367 C366 1.362 . S
H368 C374 0.930 . S
H369 C377 0.930 . S
H370 C378 0.930 . S
H371 C379 0.930 . S
H372 C382 0.930 . S
H373 C383 0.930 . S
C374 H368 0.930 . S
C374 C375 1.355 . S
C374 C376 1.415 . S
C375 C374 1.355 . S
C375 C377 1.419 . S
C376 C374 1.415 . S
C376 C381 1.425 . S
C376 C383 1.409 . S
C377 H369 0.930 . S
C377 C375 1.419 . S
C377 C378 1.362 . S
C378 H370 0.930 . S
C378 C377 1.362 . S
C378 C381 1.409 . S
C379 H371 0.930 . S
C379 C380 1.355 . S
C379 C381 1.415 . S
C380 C379 1.355 . S
C380 C382 1.419 . S
C381 C376 1.425 . S
C381 C378 1.409 . S
C381 C379 1.415 . S
C382 H372 0.930 . S
C382 C380 1.419 . S
C382 C383 1.362 . S
C383 H373 0.930 . S
C383 C376 1.409 . S
C383 C382 1.362 . S
H384 C390 0.930 . S
H385 C393 0.930 . S
H386 C394 0.930 . S
H387 C395 0.930 . S
H388 C398 0.930 . S
H389 C399 0.930 . S
C390 H384 0.930 . S
C390 C391 1.355 . S
C390 C392 1.415 . S
C391 C390 1.355 . S
C391 C393 1.419 . S
C392 C390 1.415 . S
C392 C397 1.425 1_556 S
C392 C399 1.409 . S
C393 H385 0.930 . S
C393 C391 1.419 . S
C393 C394 1.362 1_556 S
C394 H386 0.930 . S
C394 C393 1.362 1_554 S
C394 C397 1.409 . S
C395 H387 0.930 . S
C395 C396 1.355 . S
C395 C397 1.415 . S
C396 C395 1.355 . S
C396 C398 1.419 . S
C397 C392 1.425 1_554 S
C397 C394 1.409 . S
C397 C395 1.415 . S
C398 H388 0.930 . S
C398 C396 1.419 . S
C398 C399 1.362 1_554 S
C399 H389 0.930 . S
C399 C392 1.409 . S
C399 C398 1.362 1_556 S
H400 C406 0.930 . S
H401 C409 0.930 . S
H402 C410 0.930 . S
H403 C411 0.930 . S
H404 C414 0.930 . S
H405 C415 0.930 . S
C406 H400 0.930 . S
C406 C407 1.355 . S
C406 C408 1.439 . S
C407 C406 1.355 . S
C407 C409 1.419 . S
C408 C406 1.439 . S
C408 C413 1.423 1_554 S
C408 C415 1.387 1_554 S
C409 H401 0.930 . S
C409 C407 1.419 . S
C409 C410 1.362 . S
C410 H402 0.930 . S
C410 C409 1.362 . S
C410 C413 1.387 1_554 S
C411 H403 0.930 . S
C411 C412 1.355 . S
C411 C413 1.439 . S
C412 C411 1.355 . S
C412 C414 1.419 . S
C413 C408 1.423 1_556 S
C413 C410 1.387 1_556 S
C413 C411 1.439 . S
C414 H404 0.930 . S
C414 C412 1.419 . S
C414 C415 1.362 . S
C415 H405 0.930 . S
C415 C408 1.387 1_556 S
C415 C414 1.362 . S
H416 C422 0.930 . S
H417 C425 0.930 . S
H418 C426 0.930 . S
H419 C427 0.930 . S
H420 C430 0.930 . S
H421 C431 0.930 . S
C422 H416 0.930 . S
C422 C423 1.355 . S
C422 C424 1.415 . S
C423 C422 1.355 . S
C423 C425 1.419 . S
C424 C422 1.415 . S
C424 C429 1.425 . S
C424 C431 1.409 . S
C425 H417 0.930 . S
C425 C423 1.419 . S
C425 C426 1.362 . S
C426 H418 0.930 . S
C426 C425 1.362 . S
C426 C429 1.409 . S
C427 H419 0.930 . S
C427 C428 1.355 . S
C427 C429 1.415 . S
C428 C427 1.355 . S
C428 C430 1.419 . S
C429 C424 1.425 . S
C429 C426 1.409 . S
C429 C427 1.415 . S
C430 H420 0.930 . S
C430 C428 1.419 . S
C430 C431 1.362 . S
C431 H421 0.930 . S
C431 C424 1.409 . S
C431 C430 1.362 . S
H432 C438 0.930 . S
H433 C441 0.930 . S
H434 C442 0.930 . S
H435 C443 0.930 . S
H436 C446 0.930 . S
H437 C447 0.930 . S
C438 H432 0.930 . S
C438 C439 1.355 . S
C438 C440 1.415 . S
C439 C438 1.355 . S
C439 C441 1.419 . S
C440 C438 1.415 . S
C440 C445 1.425 . S
C440 C447 1.409 . S
C441 H433 0.930 . S
C441 C439 1.419 . S
C441 C442 1.362 . S
C442 H434 0.930 . S
C442 C441 1.362 . S
C442 C445 1.409 . S
C443 H435 0.930 . S
C443 C444 1.355 . S
C443 C445 1.415 . S
C444 C443 1.355 . S
C444 C446 1.419 . S
C445 C440 1.425 . S
C445 C442 1.409 . S
C445 C443 1.415 . S
C446 H436 0.930 . S
C446 C444 1.419 . S
C446 C447 1.362 . S
C447 H437 0.930 . S
C447 C440 1.409 . S
C447 C446 1.362 . S
H448 C454 0.930 . S
H449 C457 0.930 . S
H450 C458 0.930 . S
H451 C459 0.930 . S
H452 C462 0.930 . S
H453 C463 0.930 . S
C454 H448 0.930 . S
C454 C455 1.355 . S
C454 C456 1.415 . S
C455 C454 1.355 . S
C455 C457 1.419 . S
C456 C454 1.415 . S
C456 C461 1.425 1_655 S
C456 C463 1.409 1_655 S
C457 H449 0.930 . S
C457 C455 1.419 . S
C457 C458 1.362 . S
C458 H450 0.930 . S
C458 C457 1.362 . S
C458 C461 1.409 1_655 S
C459 H451 0.930 . S
C459 C460 1.355 . S
C459 C461 1.415 . S
C460 C459 1.355 . S
C460 C462 1.419 . S
C461 C456 1.425 1_455 S
C461 C458 1.409 1_455 S
C461 C459 1.415 . S
C462 H452 0.930 . S
C462 C460 1.419 . S
C462 C463 1.362 . S
C463 H453 0.930 . S
C463 C456 1.409 1_455 S
C463 C462 1.362 . S
H464 C470 0.930 . S
H465 C473 0.930 . S
H466 C474 0.930 1_455 S
H467 C475 0.930 . S
H468 C478 0.930 . S
H469 C479 0.930 1_655 S
C470 H464 0.930 . S
C470 C471 1.355 . S
C470 C472 1.415 . S
C471 C470 1.355 . S
C471 C473 1.419 . S
C472 C470 1.415 . S
C472 C477 1.425 1_655 S
C472 C479 1.409 1_655 S
C473 H465 0.930 . S
C473 C471 1.419 . S
C473 C474 1.362 . S
C474 H466 0.930 1_655 S
C474 C473 1.362 . S
C474 C477 1.409 1_655 S
C475 H467 0.930 . S
C475 C476 1.355 . S
C475 C477 1.415 . S
C476 C475 1.355 . S
C476 C478 1.419 . S
C477 C472 1.425 1_455 S
C477 C474 1.409 1_455 S
C477 C475 1.415 . S
C478 H468 0.930 . S
C478 C476 1.419 . S
C478 C479 1.362 . S
C479 H469 0.930 1_455 S
C479 C472 1.409 1_455 S
C479 C478 1.362 . S
H480 C486 0.930 . S
H481 C489 0.930 . S
H482 C490 0.930 . S
H483 C491 0.930 . S
H484 C494 0.930 . S
H485 C495 0.930 . S
C486 H480 0.930 . S
C486 C487 1.355 . S
C486 C488 1.415 . S
C487 C486 1.355 . S
C487 C489 1.419 . S
C488 C486 1.415 . S
C488 C493 1.425 . S
C488 C495 1.409 . S
C489 H481 0.930 . S
C489 C487 1.419 . S
C489 C490 1.362 . S
C490 H482 0.930 . S
C490 C489 1.362 . S
C490 C493 1.409 . S
C491 H483 0.930 . S
C491 C492 1.355 . S
C491 C493 1.415 . S
C492 C491 1.355 . S
C492 C494 1.419 . S
C493 C488 1.425 . S
C493 C490 1.409 . S
C493 C491 1.415 . S
C494 H484 0.930 . S
C494 C492 1.419 . S
C494 C495 1.362 . S
C495 H485 0.930 . S
C495 C488 1.409 . S
C495 C494 1.362 . S
H496 C502 0.930 . S
H497 C505 0.930 . S
H498 C506 0.930 1_565 S
H499 C507 0.930 . S
H500 C510 0.930 . S
H501 C511 0.930 1_545 S
C502 H496 0.930 . S
C502 C503 1.355 . S
C502 C504 1.415 . S
C503 C502 1.355 . S
C503 C505 1.419 . S
C504 C502 1.415 . S
C504 C509 1.425 1_545 S
C504 C511 1.409 1_545 S
C505 H497 0.930 . S
C505 C503 1.419 . S
C505 C506 1.362 . S
C506 H498 0.930 1_545 S
C506 C505 1.362 . S
C506 C509 1.409 1_545 S
C507 H499 0.930 . S
C507 C508 1.355 . S
C507 C509 1.415 . S
C508 C507 1.355 . S
C508 C510 1.419 . S
C509 C504 1.425 1_565 S
C509 C506 1.409 1_565 S
C509 C507 1.415 . S
C510 H500 0.930 . S
C510 C508 1.419 . S
C510 C511 1.362 . S
C511 H501 0.930 1_565 S
C511 C504 1.409 1_565 S
C511 C510 1.362 . S
H512 C518 0.930 . S
H513 C521 0.930 . S
H514 C522 0.930 . S
H515 C523 0.930 . S
H516 C526 0.930 . S
H517 C527 0.930 . S
C518 H512 0.930 . S
C518 C519 1.355 . S
C518 C520 1.415 . S
C519 C518 1.355 . S
C519 C521 1.419 . S
C520 C518 1.415 . S
C520 C525 1.425 . S
C520 C527 1.409 . S
C521 H513 0.930 . S
C521 C519 1.419 . S
C521 C522 1.362 . S
C522 H514 0.930 . S
C522 C521 1.362 . S
C522 C525 1.409 . S
C523 H515 0.930 . S
C523 C524 1.355 . S
C523 C525 1.415 . S
C524 C523 1.355 . S
C524 C526 1.419 . S
C525 C520 1.425 . S
C525 C522 1.409 . S
C525 C523 1.415 . S
C526 H516 0.930 . S
C526 C524 1.419 . S
C526 C527 1.362 . S
C527 H517 0.930 . S
C527 C520 1.409 . S
C527 C526 1.362 . S
H528 C534 0.930 . S
H529 C537 0.930 . S
H530 C538 0.930 . S
H531 C539 0.930 . S
H532 C542 0.930 . S
H533 C543 0.930 . S
C534 H528 0.930 . S
C534 C535 1.355 . S
C534 C536 1.415 . S
C535 C534 1.355 . S
C535 C537 1.419 . S
C536 C534 1.415 . S
C536 C541 1.425 1_554 S
C536 C543 1.409 . S
C537 H529 0.930 . S
C537 C535 1.419 . S
C537 C538 1.362 1_554 S
C538 H530 0.930 . S
C538 C537 1.362 1_556 S
C538 C541 1.409 . S
C539 H531 0.930 . S
C539 C540 1.355 . S
C539 C541 1.415 . S
C540 C539 1.355 . S
C540 C542 1.419 . S
C541 C536 1.425 1_556 S
C541 C538 1.409 . S
C541 C539 1.415 . S
C542 H532 0.930 . S
C542 C540 1.419 . S
C542 C543 1.362 1_556 S
C543 H533 0.930 . S
C543 C536 1.409 . S
C543 C542 1.362 1_554 S
H544 C550 0.930 . S
H545 C553 0.930 . S
H546 C554 0.930 . S
H547 C555 0.930 . S
H548 C558 0.930 . S
H549 C559 0.930 . S
C550 H544 0.930 . S
C550 C551 1.355 . S
C550 C552 1.415 . S
C551 C550 1.355 . S
C551 C553 1.419 . S
C552 C550 1.415 . S
C552 C557 1.425 1_556 S
C552 C559 1.409 . S
C553 H545 0.930 . S
C553 C551 1.419 . S
C553 C554 1.362 1_556 S
C554 H546 0.930 . S
C554 C553 1.362 1_554 S
C554 C557 1.409 . S
C555 H547 0.930 . S
C555 C556 1.355 . S
C555 C557 1.415 . S
C556 C555 1.355 . S
C556 C558 1.419 . S
C557 C552 1.425 1_554 S
C557 C554 1.409 . S
C557 C555 1.415 . S
C558 H548 0.930 . S
C558 C556 1.419 . S
C558 C559 1.362 1_554 S
C559 H549 0.930 . S
C559 C552 1.409 . S
C559 C558 1.362 1_556 S
H560 C566 0.930 . S
H561 C569 0.930 . S
H562 C570 0.930 . S
H563 C571 0.930 . S
H564 C574 0.930 . S
H565 C575 0.930 . S
C566 H560 0.930 . S
C566 C567 1.355 . S
C566 C568 1.415 . S
C567 C566 1.355 . S
C567 C569 1.419 . S
C568 C566 1.415 . S
C568 C573 1.425 . S
C568 C575 1.409 . S
C569 H561 0.930 . S
C569 C567 1.419 . S
C569 C570 1.362 . S
C570 H562 0.930 . S
C570 C569 1.362 . S
C570 C573 1.409 . S
C571 H563 0.930 . S
C571 C572 1.355 . S
C571 C573 1.415 . S
C572 C571 1.355 . S
C572 C574 1.419 . S
C573 C568 1.425 . S
C573 C570 1.409 . S
C573 C571 1.415 . S
C574 H564 0.930 . S
C574 C572 1.419 . S
C574 C575 1.362 . S
C575 H565 0.930 . S
C575 C568 1.409 . S
C575 C574 1.362 . S
H576 C582 0.930 . S
H577 C585 0.930 . S
H578 C586 0.930 . S
H579 C587 0.930 . S
H580 C590 0.930 . S
H581 C591 0.930 . S
C582 H576 0.930 . S
C582 C583 1.355 . S
C582 C584 1.415 . S
C583 C582 1.355 . S
C583 C585 1.419 . S
C584 C582 1.415 . S
C584 C589 1.425 . S
C584 C591 1.409 . S
C585 H577 0.930 . S
C585 C583 1.419 . S
C585 C586 1.362 . S
C586 H578 0.930 . S
C586 C585 1.362 . S
C586 C589 1.409 . S
C587 H579 0.930 . S
C587 C588 1.355 . S
C587 C589 1.415 . S
C588 C587 1.355 . S
C588 C590 1.419 . S
C589 C584 1.425 . S
C589 C586 1.409 . S
C589 C587 1.415 . S
C590 H580 0.930 . S
C590 C588 1.419 . S
C590 C591 1.362 . S
C591 H581 0.930 . S
C591 C584 1.409 . S
C591 C590 1.362 . S
H592 C598 0.930 . S
H593 C601 0.930 . S
H594 C602 0.930 . S
H595 C603 0.930 . S
H596 C606 0.930 . S
H597 C607 0.930 . S
C598 H592 0.930 . S
C598 C599 1.355 . S
C598 C600 1.415 1_455 S
C599 C598 1.355 . S
C599 C601 1.419 . S
C600 C598 1.415 1_655 S
C600 C605 1.425 1_655 S
C600 C607 1.409 . S
C601 H593 0.930 . S
C601 C599 1.419 . S
C601 C602 1.362 . S
C602 H594 0.930 . S
C602 C601 1.362 . S
C602 C605 1.409 . S
C603 H595 0.930 . S
C603 C604 1.355 . S
C603 C605 1.415 1_655 S
C604 C603 1.355 . S
C604 C606 1.419 . S
C605 C600 1.425 1_455 S
C605 C602 1.409 . S
C605 C603 1.415 1_455 S
C606 H596 0.930 . S
C606 C604 1.419 . S
C606 C607 1.362 . S
C607 H597 0.930 . S
C607 C600 1.409 . S
C607 C606 1.362 . S
H608 C614 0.930 . S
H609 C617 0.930 . S
H610 C618 0.930 . S
H611 C619 0.930 . S
H612 C622 0.930 . S
H613 C623 0.930 . S
C614 H608 0.930 . S
C614 C615 1.355 . S
C614 C616 1.415 1_455 S
C615 C614 1.355 . S
C615 C617 1.419 . S
C616 C614 1.415 1_655 S
C616 C621 1.425 1_655 S
C616 C623 1.409 . S
C617 H609 0.930 . S
C617 C615 1.419 . S
C617 C618 1.362 . S
C618 H610 0.930 . S
C618 C617 1.362 . S
C618 C621 1.409 . S
C619 H611 0.930 . S
C619 C620 1.355 . S
C619 C621 1.415 1_655 S
C620 C619 1.355 . S
C620 C622 1.419 . S
C621 C616 1.425 1_455 S
C621 C618 1.409 . S
C621 C619 1.415 1_455 S
C622 H612 0.930 . S
C622 C620 1.419 . S
C622 C623 1.362 . S
C623 H613 0.930 . S
C623 C616 1.409 . S
C623 C622 1.362 . S
H624 C630 0.930 . S
H625 C633 0.930 . S
H626 C634 0.930 . S
H627 C635 0.930 . S
H628 C638 0.930 . S
H629 C639 0.930 . S
C630 H624 0.930 . S
C630 C631 1.355 . S
C630 C632 1.415 . S
C631 C630 1.355 . S
C631 C633 1.419 . S
C632 C630 1.415 . S
C632 C637 1.425 . S
C632 C639 1.409 . S
C633 H625 0.930 . S
C633 C631 1.419 . S
C633 C634 1.362 . S
C634 H626 0.930 . S
C634 C633 1.362 . S
C634 C637 1.409 . S
C635 H627 0.930 . S
C635 C636 1.355 . S
C635 C637 1.415 . S
C636 C635 1.355 . S
C636 C638 1.419 . S
C637 C632 1.425 . S
C637 C634 1.409 . S
C637 C635 1.415 . S
C638 H628 0.930 . S
C638 C636 1.419 . S
C638 C639 1.362 . S
C639 H629 0.930 . S
C639 C632 1.409 . S
C639 C638 1.362 . S
H640 C646 0.930 . S
H641 C649 0.930 . S
H642 C650 0.930 . S
H643 C651 0.930 . S
H644 C654 0.930 . S
H645 C655 0.930 . S
C646 H640 0.930 . S
C646 C647 1.355 . S
C646 C648 1.415 . S
C647 C646 1.355 . S
C647 C649 1.419 . S
C648 C646 1.415 . S
C648 C653 1.425 . S
C648 C655 1.409 . S
C649 H641 0.930 . S
C649 C647 1.419 . S
C649 C650 1.362 . S
C650 H642 0.930 . S
C650 C649 1.362 . S
C650 C653 1.409 . S
C651 H643 0.930 . S
C651 C652 1.355 . S
C651 C653 1.415 . S
C652 C651 1.355 . S
C652 C654 1.419 . S
C653 C648 1.425 . S
C653 C650 1.409 . S
C653 C651 1.415 . S
C654 H644 0.930 . S
C654 C652 1.419 . S
C654 C655 1.362 . S
C655 H645 0.930 . S
C655 C648 1.409 . S
C655 C654 1.362 . S
H656 C662 0.930 . S
H657 C665 0.930 . S
H658 C666 0.930 . S
H659 C667 0.930 . S
H660 C670 0.930 . S
H661 C671 0.930 . S
C662 H656 0.930 . S
C662 C663 1.355 . S
C662 C664 1.415 1_545 S
C663 C662 1.355 . S
C663 C665 1.419 . S
C664 C662 1.415 1_565 S
C664 C669 1.425 1_565 S
C664 C671 1.409 . S
C665 H657 0.930 . S
C665 C663 1.419 . S
C665 C666 1.362 . S
C666 H658 0.930 . S
C666 C665 1.362 . S
C666 C669 1.409 . S
C667 H659 0.930 . S
C667 C668 1.355 . S
C667 C669 1.415 1_565 S
C668 C667 1.355 . S
C668 C670 1.419 . S
C669 C664 1.425 1_545 S
C669 C666 1.409 . S
C669 C667 1.415 1_545 S
C670 H660 0.930 . S
C670 C668 1.419 . S
C670 C671 1.362 . S
C671 H661 0.930 . S
C671 C664 1.409 . S
C671 C670 1.362 . S
H672 C678 0.930 . S
H673 C681 0.930 . S
H674 C682 0.930 . S
H675 C683 0.930 . S
H676 C686 0.930 . S
H677 C687 0.930 . S
C678 H672 0.930 . S
C678 C679 1.355 . S
C678 C680 1.415 . S
C679 C678 1.355 . S
C679 C681 1.419 . S
C680 C678 1.415 . S
C680 C685 1.425 . S
C680 C687 1.409 . S
C681 H673 0.930 . S
C681 C679 1.419 . S
C681 C682 1.362 . S
C682 H674 0.930 . S
C682 C681 1.362 . S
C682 C685 1.409 . S
C683 H675 0.930 . S
C683 C684 1.355 . S
C683 C685 1.415 . S
C684 C683 1.355 . S
C684 C686 1.419 . S
C685 C680 1.425 . S
C685 C682 1.409 . S
C685 C683 1.415 . S
C686 H676 0.930 . S
C686 C684 1.419 . S
C686 C687 1.362 . S
C687 H677 0.930 . S
C687 C680 1.409 . S
C687 C686 1.362 . S
H688 C694 0.930 . S
H689 C697 0.930 . S
H690 C698 0.930 . S
H691 C699 0.930 . S
H692 C702 0.930 . S
H693 C703 0.930 . S
C694 H688 0.930 . S
C694 C695 1.355 . S
C694 C696 1.415 . S
C695 C694 1.355 . S
C695 C697 1.419 . S
C696 C694 1.415 . S
C696 C701 1.425 . S
C696 C703 1.409 . S
C697 H689 0.930 . S
C697 C695 1.419 . S
C697 C698 1.362 . S
C698 H690 0.930 . S
C698 C697 1.362 . S
C698 C701 1.409 . S
C699 H691 0.930 . S
C699 C700 1.355 . S
C699 C701 1.415 . S
C700 C699 1.355 . S
C700 C702 1.419 . S
C701 C696 1.425 . S
C701 C698 1.409 . S
C701 C699 1.415 . S
C702 H692 0.930 . S
C702 C700 1.419 . S
C702 C703 1.362 . S
C703 H693 0.930 . S
C703 C696 1.409 . S
C703 C702 1.362 . S
H704 C710 0.930 . S
H705 C713 0.930 . S
H706 C714 0.930 . S
H707 C715 0.930 . S
H708 C718 0.930 . S
H709 C719 0.930 . S
C710 H704 0.930 . S
C710 C711 1.355 . S
C710 C712 1.415 . S
C711 C710 1.355 . S
C711 C713 1.419 . S
C712 C710 1.415 . S
C712 C717 1.425 1_545 S
C712 C719 1.409 . S
C713 H705 0.930 . S
C713 C711 1.419 . S
C713 C714 1.362 1_545 S
C714 H706 0.930 . S
C714 C713 1.362 1_565 S
C714 C717 1.409 . S
C715 H707 0.930 . S
C715 C716 1.355 . S
C715 C717 1.415 . S
C716 C715 1.355 . S
C716 C718 1.419 . S
C717 C712 1.425 1_565 S
C717 C714 1.409 . S
C717 C715 1.415 . S
C718 H708 0.930 . S
C718 C716 1.419 . S
C718 C719 1.362 1_565 S
C719 H709 0.930 . S
C719 C712 1.409 . S
C719 C718 1.362 1_545 S
H720 C726 0.930 . S
H721 C729 0.930 . S
H722 C730 0.930 . S
H723 C731 0.930 . S
H724 C734 0.930 . S
H725 C735 0.930 . S
C726 H720 0.930 . S
C726 C727 1.355 . S
C726 C728 1.415 . S
C727 C726 1.355 . S
C727 C729 1.419 . S
C728 C726 1.415 . S
C728 C733 1.425 . S
C728 C735 1.409 . S
C729 H721 0.930 . S
C729 C727 1.419 . S
C729 C730 1.362 . S
C730 H722 0.930 . S
C730 C729 1.362 . S
C730 C733 1.409 . S
C731 H723 0.930 . S
C731 C732 1.355 . S
C731 C733 1.415 . S
C732 C731 1.355 . S
C732 C734 1.419 . S
C733 C728 1.425 . S
C733 C730 1.409 . S
C733 C731 1.415 . S
C734 H724 0.930 . S
C734 C732 1.419 . S
C734 C735 1.362 . S
C735 H725 0.930 . S
C735 C728 1.409 . S
C735 C734 1.362 . S
C231 C9 1.128 . S
C236 C191 1.097 . S
C247 C23 1.133 . S
C252 C135 1.107 . S
C263 C205 1.097 . S
C268 C37 1.128 . S
C279 C51 1.144 . S
C284 C219 1.137 . S
C295 C65 1.146 . S
C300 C93 1.149 . S
C311 C149 1.136 . S
C316 C79 1.116 . S
C327 C163 1.149 . S
C332 C107 1.150 . S
C343 C121 1.095 . S
C348 C177 1.127 . S
C359 C33 1.617 . S
C364 C5 1.638 . S
C375 C19 1.626 . S
C380 C47 1.636 . S
C391 C179 1.742 . S
C396 C11 1.733 . S
C407 C25 1.707 . S
C412 C165 1.730 . S
C423 C67 1.713 . S
C428 C39 1.735 . S
C439 C151 1.741 . S
C444 C53 1.727 . S
C455 C14 1.396 . S
C460 C0 1.432 . S
C471 C42 1.408 . S
C476 C28 1.452 . S
C487 C140 1.436 . S
C492 C56 1.396 . S
C503 C109 1.579 . S
C508 C81 1.548 . S
C519 C95 1.567 . S
C524 C123 1.561 . S
C535 C215 1.806 . S
C540 C75 1.803 . S
C551 C89 1.804 . S
C556 C201 1.807 . S
C567 C131 1.768 . S
C572 C103 1.769 . S
C583 C117 1.774 . S
C588 C187 1.769 . S
C599 C84 1.461 . S
C604 C70 1.475 . S
C615 C112 1.460 . S
C620 C98 1.468 . S
C631 C126 1.506 . S
C636 C182 1.497 . S
C647 C145 1.623 . S
C652 C159 1.638 . S
C663 C173 1.634 . S
C668 C61 1.617 . S
C679 C168 1.408 . S
C684 C154 1.453 . S
C695 C207 1.572 . S
C700 C193 1.557 . S
C711 C137 1.578 . S
C716 C221 1.549 . S
C727 C210 1.464 . S
C732 C196 1.460 . S
