# Generated by pormake.
# Topology mmt, (4)-cn, num edge types: 1
# Building blocks:
#     Node 0, Type 0, BuildingBlock: ICAMEG_clean_sbu_1, # of connection points: 4
#     Node 1, Type 0, BuildingBlock: ICAMEG_clean_sbu_1, # of connection points: 4
#     Node 2, Type 0, BuildingBlock: ICAMEG_clean_sbu_1, # of connection points: 4
#     Node 3, Type 0, BuildingBlock: ICAMEG_clean_sbu_1, # of connection points: 4
#     Node 4, Type 0, BuildingBlock: ICAMEG_clean_sbu_1, # of connection points: 4
#     Node 5, Type 0, BuildingBlock: ICAMEG_clean_sbu_1, # of connection points: 4
#     Node 6, Type 0, BuildingBlock: ICAMEG_clean_sbu_1, # of connection points: 4
#     Node 7, Type 0, BuildingBlock: ICAMEG_clean_sbu_1, # of connection points: 4
#     Edge 8, Type (0, 0), BuildingBlock: ZUJKAS_clean_linker_0, # of connection points: 2
#     Edge 9, Type (0, 0), BuildingBlock: ZUJKAS_clean_linker_0, # of connection points: 2
#     Edge 10, Type (0, 0), BuildingBlock: ZUJKAS_clean_linker_0, # of connection points: 2
#     Edge 11, Type (0, 0), BuildingBlock: ZUJKAS_clean_linker_0, # of connection points: 2
#     Edge 12, Type (0, 0), BuildingBlock: ZUJKAS_clean_linker_0, # of connection points: 2
#     Edge 13, Type (0, 0), BuildingBlock: ZUJKAS_clean_linker_0, # of connection points: 2
#     Edge 14, Type (0, 0), BuildingBlock: ZUJKAS_clean_linker_0, # of connection points: 2
#     Edge 15, Type (0, 0), BuildingBlock: ZUJKAS_clean_linker_0, # of connection points: 2
#     Edge 16, Type (0, 0), BuildingBlock: ZUJKAS_clean_linker_0, # of connection points: 2
#     Edge 17, Type (0, 0), BuildingBlock: ZUJKAS_clean_linker_0, # of connection points: 2
#     Edge 18, Type (0, 0), BuildingBlock: ZUJKAS_clean_linker_0, # of connection points: 2
#     Edge 19, Type (0, 0), BuildingBlock: ZUJKAS_clean_linker_0, # of connection points: 2
#     Edge 20, Type (0, 0), BuildingBlock: ZUJKAS_clean_linker_0, # of connection points: 2
#     Edge 21, Type (0, 0), BuildingBlock: ZUJKAS_clean_linker_0, # of connection points: 2
#     Edge 22, Type (0, 0), BuildingBlock: ZUJKAS_clean_linker_0, # of connection points: 2
#     Edge 23, Type (0, 0), BuildingBlock: ZUJKAS_clean_linker_0, # of connection points: 2
# Relax obj value: 0.086
# Max RMSD: 0.130
# Mean RMSD: 0.130
data_MOF--net-mmt--node1-ICAMEG_clean_sbu_1--edge1-ZUJKAS_clean_linker_0
_symmetry_space_group_name_H-M    P1
_symmetry_Int_Tables_number       1
_symmetry_cell_setting            triclinic
loop_
_symmetry_equiv_pos_as_xyz
'x, y, z'
_cell_length_a     30.563005
_cell_length_b     53.734042
_cell_length_c     54.18946
_cell_angle_alpha  89.999671
_cell_angle_beta   90.05608
_cell_angle_gamma 90.000323
loop_
_atom_site_label
_atom_site_type_symbol
_atom_site_fract_x
_atom_site_fract_y
_atom_site_fract_z
_atom_type_partial_charge
Co0 Co 0.18699 0.55162 0.35677 0.0
Co1 Co 0.12043 0.60295 0.35494 0.0
O2 O 0.1781 0.58736 0.3515 0.0
C3 C 0.23394 0.56095 0.30919 0.0
O4 O 0.20101 0.57459 0.30147 0.0
C5 C 0.1786 0.63704 0.38398 0.0
O6 O 0.19659 0.6177 0.39478 0.0
O7 O 0.11411 0.58915 0.389 0.0
O8 O 0.14232 0.55104 0.38361 0.0
H9 H 0.96116 0.60515 0.37774 0.0
H10 H 0.2631 0.58575 0.35748 0.0
O11 O 0.23281 0.55082 0.3304 0.0
H12 H 0.2625 0.54551 0.43926 0.0
H13 H 0.27722 0.47361 0.3651 0.0
H14 H 0.12802 0.50853 0.36468 0.0
H15 H 0.20674 0.53472 0.40814 0.0
H16 H 0.26552 0.51863 0.35928 0.0
O17 O 0.14808 0.634 0.36826 0.0
H18 H 0.03377 0.58583 0.37269 0.0
H19 H 0.08505 0.65381 0.34508 0.0
H20 H 0.13826 0.46343 0.37076 0.0
H21 H 0.3198 0.59691 0.38795 0.0
H22 H 0.21331 0.44568 0.37099 0.0
H23 H 0.31964 0.57678 0.42921 0.0
O24 O 0.14058 0.54357 0.33205 0.0
H25 H 0.20045 0.64588 0.28608 0.0
H26 H 0.06298 0.60461 0.31028 0.0
H27 H 0.07121 0.62048 0.26787 0.0
H28 H 0.14032 0.64137 0.25554 0.0
H29 H 0.19102 0.62942 0.32822 0.0
H30 H 0.01307 0.67392 0.35001 0.0
H31 H 0.95045 0.64952 0.36637 0.0
O32 O 0.09075 0.57279 0.34115 0.0
C33 C 0.11999 0.5667 0.396 0.0
C34 C 0.98817 0.61597 0.37055 0.0
C35 C 0.01731 0.65457 0.35502 0.0
N36 N 0.06359 0.61863 0.35851 0.0
C37 C 0.02935 0.60511 0.36761 0.0
C38 C 0.05804 0.6431 0.35234 0.0
C39 C 0.98219 0.64087 0.36419 0.0
C40 C 0.26305 0.57675 0.37531 0.0
N41 N 0.2317 0.55955 0.38099 0.0
C42 C 0.29514 0.58321 0.39253 0.0
C43 C 0.29499 0.57194 0.41569 0.0
C44 C 0.26291 0.55442 0.42134 0.0
C45 C 0.23132 0.54844 0.40367 0.0
C46 C 0.24436 0.48112 0.36505 0.0
C47 C 0.16079 0.50098 0.36485 0.0
C48 C 0.23752 0.50659 0.36168 0.0
N49 N 0.19613 0.51623 0.36172 0.0
C50 C 0.16638 0.47541 0.36826 0.0
C51 C 0.20849 0.46546 0.36837 0.0
C52 C 0.10186 0.55243 0.33076 0.0
C53 C 0.17015 0.63686 0.29124 0.0
C54 C 0.09325 0.61349 0.30503 0.0
C55 C 0.09767 0.62255 0.281 0.0
C56 C 0.13643 0.63429 0.2741 0.0
N57 N 0.12647 0.61608 0.32174 0.0
C58 C 0.16455 0.62759 0.31511 0.0
Co59 Co 0.33595 0.97268 0.35767 0.0
Co60 Co 0.40225 0.92118 0.3554 0.0
O61 O 0.34452 0.93688 0.35248 0.0
C62 C 0.28797 0.96332 0.31038 0.0
O63 O 0.32071 0.94962 0.30256 0.0
C64 C 0.3441 0.88722 0.38465 0.0
O65 O 0.32469 0.90658 0.39456 0.0
O66 O 0.40997 0.93516 0.38929 0.0
O67 O 0.3813 0.97322 0.38421 0.0
H68 H 0.56236 0.91885 0.37642 0.0
H69 H 0.25935 0.93891 0.35887 0.0
O70 O 0.28953 0.9735 0.33157 0.0
H71 H 0.26248 0.97916 0.44063 0.0
H72 H 0.24637 0.05089 0.36633 0.0
H73 H 0.39535 0.01567 0.36515 0.0
H74 H 0.31772 0.98963 0.40918 0.0
H75 H 0.25768 1.00583 0.36055 0.0
O76 O 0.37516 0.89022 0.36931 0.0
H77 H 0.48966 0.93826 0.37208 0.0
H78 H 0.43701 0.87021 0.34541 0.0
H79 H 0.3855 0.06081 0.37119 0.0
H80 H 0.2031 0.92811 0.38967 0.0
H81 H 0.31057 0.0787 0.3718 0.0
H82 H 0.20454 0.94824 0.43093 0.0
O83 O 0.38179 0.98063 0.33263 0.0
H84 H 0.3192 0.87802 0.28775 0.0
H85 H 0.4579 0.91911 0.3101 0.0
H86 H 0.44785 0.90302 0.26788 0.0
H87 H 0.37811 0.88222 0.25648 0.0
H88 H 0.33045 0.89468 0.32968 0.0
H89 H 0.50907 0.85001 0.34966 0.0
H90 H 0.57242 0.8744 0.36517 0.0
O91 O 0.43154 0.95117 0.34109 0.0
C92 C 0.40424 0.95761 0.39634 0.0
C93 C 0.53503 0.90803 0.36959 0.0
C94 C 0.50511 0.86939 0.3546 0.0
N95 N 0.45914 0.90543 0.35841 0.0
C96 C 0.49379 0.91894 0.36705 0.0
C97 C 0.46434 0.88092 0.35231 0.0
C98 C 0.54064 0.88309 0.3633 0.0
C99 C 0.25994 0.94792 0.3767 0.0
N100 N 0.29175 0.96492 0.38219 0.0
C101 C 0.22811 0.94166 0.3941 0.0
C102 C 0.22899 0.95293 0.41726 0.0
C103 C 0.26151 0.97026 0.42272 0.0
C104 C 0.29283 0.97604 0.40487 0.0
C105 C 0.27918 0.04331 0.36612 0.0
C106 C 0.36262 0.02329 0.36549 0.0
C107 C 0.2858 0.01782 0.36277 0.0
N108 N 0.32714 1.0081 0.3626 0.0
C109 C 0.35726 0.04888 0.36887 0.0
C110 C 0.31522 0.05891 0.3692 0.0
C111 C 0.42033 0.97162 0.33091 0.0
C112 C 0.34977 0.88699 0.2925 0.0
C113 C 0.42736 0.91026 0.30525 0.0
C114 C 0.42192 0.90108 0.28133 0.0
C115 C 0.3828 0.88939 0.27496 0.0
N116 N 0.39482 0.90784 0.32236 0.0
C117 C 0.3564 0.89638 0.31625 0.0
Co118 Co 0.68533 0.47226 0.14756 0.0
Co119 Co 0.61873 0.42096 0.1499 0.0
O120 O 0.67647 0.43656 0.15314 0.0
C121 C 0.73292 0.46317 0.19505 0.0
O122 O 0.70055 0.4491 0.20272 0.0
C123 C 0.67686 0.38668 0.12114 0.0
O124 O 0.69491 0.40598 0.11032 0.0
O125 O 0.61212 0.43447 0.11573 0.0
O126 O 0.64041 0.4726 0.12079 0.0
H127 H 0.45926 0.41863 0.12738 0.0
H128 H 0.76156 0.43823 0.14706 0.0
O129 O 0.73132 0.47337 0.17388 0.0
H130 H 0.76002 0.47762 0.06487 0.0
H131 H 0.77542 0.55023 0.1384 0.0
H132 H 0.62624 0.51527 0.13938 0.0
H133 H 0.70449 0.48864 0.09597 0.0
H134 H 0.7638 0.50525 0.14462 0.0
O135 O 0.64626 0.38978 0.13676 0.0
H136 H 0.53193 0.43797 0.13215 0.0
H137 H 0.58339 0.37019 0.16019 0.0
H138 H 0.6364 0.56032 0.1329 0.0
H139 H 0.81803 0.42684 0.11659 0.0
H140 H 0.71143 0.57808 0.13238 0.0
H141 H 0.8174 0.44654 0.07513 0.0
O142 O 0.63913 0.48052 0.17226 0.0
H143 H 0.69903 0.37836 0.21895 0.0
H144 H 0.56169 0.41982 0.19466 0.0
H145 H 0.57015 0.40423 0.23718 0.0
H146 H 0.63919 0.38325 0.24955 0.0
H147 H 0.68939 0.39454 0.1767 0.0
H148 H 0.51135 0.35006 0.15553 0.0
H149 H 0.4486 0.37436 0.13911 0.0
O150 O 0.58918 0.45125 0.16348 0.0
C151 C 0.61788 0.45688 0.10858 0.0
C152 C 0.48631 0.40786 0.1346 0.0
C153 C 0.51557 0.36937 0.15037 0.0
N154 N 0.56185 0.40527 0.14654 0.0
C155 C 0.52754 0.41872 0.13739 0.0
C156 C 0.55633 0.38085 0.15289 0.0
C157 C 0.48037 0.38301 0.14117 0.0
C158 C 0.76132 0.44705 0.12913 0.0
N159 N 0.72984 0.46414 0.12334 0.0
C160 C 0.79327 0.44046 0.11193 0.0
C161 C 0.79286 0.45149 0.08865 0.0
C162 C 0.76065 0.4689 0.08288 0.0
C163 C 0.72918 0.47501 0.10054 0.0
C164 C 0.74256 0.54271 0.13856 0.0
C165 C 0.65901 0.52283 0.13909 0.0
C166 C 0.73577 0.51726 0.14216 0.0
N167 N 0.69438 0.50761 0.14227 0.0
C168 C 0.66455 0.54837 0.13545 0.0
C169 C 0.70665 0.55832 0.13518 0.0
C170 C 0.60039 0.47171 0.17364 0.0
C171 C 0.66876 0.38742 0.21377 0.0
C172 C 0.59194 0.4109 0.19993 0.0
C173 C 0.59648 0.40201 0.22402 0.0
C174 C 0.6352 0.39021 0.23094 0.0
N175 N 0.62499 0.40809 0.18319 0.0
C176 C 0.66304 0.39653 0.18984 0.0
Co177 Co 0.83625 0.05121 0.14765 0.0
Co178 Co 0.90283 0.10255 0.14959 0.0
O179 O 0.84505 0.08699 0.15285 0.0
C180 C 0.7885 0.06072 0.19496 0.0
O181 O 0.82093 0.07476 0.20263 0.0
C182 C 0.84432 0.13671 0.12076 0.0
O183 O 0.82503 0.11739 0.11068 0.0
O184 O 0.90955 0.08868 0.11558 0.0
O185 O 0.88128 0.0506 0.121 0.0
H186 H 0.0624 0.10458 0.12745 0.0
H187 H 0.7598 0.08509 0.14664 0.0
O188 O 0.79014 0.05037 0.17386 0.0
H189 H 0.7619 0.0449 0.06485 0.0
H190 H 0.74632 0.97311 0.13905 0.0
H191 H 0.89544 1.00814 0.14008 0.0
H192 H 0.81741 0.03431 0.09616 0.0
H193 H 0.75784 0.01815 0.14486 0.0
O194 O 0.87554 0.13364 0.13603 0.0
H195 H 0.98967 0.08533 0.13221 0.0
H196 H 0.93823 0.1534 0.15951 0.0
H197 H 0.88538 0.96303 0.13402 0.0
H198 H 0.70332 0.09602 0.11596 0.0
H199 H 0.81038 0.94523 0.13348 0.0
H200 H 0.70423 0.07592 0.07469 0.0
O201 O 0.88235 0.04323 0.17257 0.0
H202 H 0.82211 0.14579 0.218 0.0
H203 H 0.95967 0.10419 0.19449 0.0
H204 H 0.95095 0.12019 0.23683 0.0
H205 H 0.8818 0.14123 0.24882 0.0
H206 H 0.83202 0.12922 0.17594 0.0
H207 H 0.01033 0.17344 0.15485 0.0
H208 H 0.0731 0.14895 0.1388 0.0
O209 O 0.93229 0.07241 0.16357 0.0
C210 C 0.90381 0.06619 0.10866 0.0
C211 C 0.03533 0.11543 0.1345 0.0
C212 C 1.00609 0.15408 0.14985 0.0
N213 N 0.95976 0.11818 0.14622 0.0
C214 C 0.99408 0.10462 0.13729 0.0
C215 C 0.9653 0.14265 0.15238 0.0
C216 C 0.0413 0.14033 0.14086 0.0
C217 C 0.76017 0.07609 0.12881 0.0
N218 N 0.79182 0.05904 0.12324 0.0
C219 C 0.7282 0.08243 0.11147 0.0
C220 C 0.72878 0.07117 0.08831 0.0
C221 C 0.76116 0.05379 0.08276 0.0
C222 C 0.79262 0.04794 0.10055 0.0
C223 C 0.77916 0.98064 0.13923 0.0
C224 C 0.86268 1.00056 0.13978 0.0
C225 C 0.7859 1.00613 0.14259 0.0
N226 N 0.82727 0.0158 0.14272 0.0
C227 C 0.8572 0.97499 0.13638 0.0
C228 C 0.81512 0.96501 0.1361 0.0
C229 C 0.92106 0.05207 0.17395 0.0
C230 C 0.85243 0.1367 0.21299 0.0
C231 C 0.92938 0.11315 0.1996 0.0
C232 C 0.92469 0.12227 0.22358 0.0
C233 C 0.88591 0.1341 0.23028 0.0
N234 N 0.89641 0.11577 0.18273 0.0
C235 C 0.8583 0.12737 0.18917 0.0
Co236 Co 0.83414 0.47543 0.64632 0.0
Co237 Co 0.90238 0.42501 0.64817 0.0
O238 O 0.8443 0.4399 0.65162 0.0
C239 C 0.7886 0.46822 0.69478 0.0
O240 O 0.82475 0.45935 0.70452 0.0
C241 C 0.84508 0.39038 0.61936 0.0
O242 O 0.827 0.40961 0.60842 0.0
O243 O 0.90795 0.43875 0.61405 0.0
O244 O 0.8792 0.47671 0.61967 0.0
H245 H 0.06155 0.42441 0.62504 0.0
H246 H 0.75941 0.44028 0.6451 0.0
O247 O 0.78777 0.47518 0.67235 0.0
H248 H 0.7595 0.48101 0.56355 0.0
H249 H 0.74056 0.55219 0.63844 0.0
H250 H 0.89124 0.51937 0.63851 0.0
H251 H 0.81441 0.49233 0.59496 0.0
H252 H 0.75423 0.50732 0.64412 0.0
O253 O 0.87554 0.3936 0.63508 0.0
H254 H 0.98836 0.44299 0.63019 0.0
H255 H 0.93944 0.37456 0.65808 0.0
H256 H 0.87901 0.56433 0.63257 0.0
H257 H 0.70357 0.4286 0.61433 0.0
H258 H 0.80322 0.58101 0.63251 0.0
H259 H 0.70347 0.44896 0.57318 0.0
O260 O 0.88012 0.48403 0.67118 0.0
H261 H 0.82376 0.38251 0.7178 0.0
H262 H 0.96051 0.42393 0.69254 0.0
H263 H 0.95303 0.40847 0.73515 0.0
H264 H 0.88428 0.38752 0.74802 0.0
H265 H 0.8325 0.39847 0.67541 0.0
H266 H 0.01203 0.35518 0.65304 0.0
H267 H 0.07375 0.38019 0.6365 0.0
O268 O 0.93108 0.45556 0.66176 0.0
C269 C 0.90172 0.46122 0.60716 0.0
C270 C 0.03494 0.41333 0.63231 0.0
C271 C 1.00713 0.37447 0.648 0.0
N272 N 0.9597 0.40992 0.64453 0.0
C273 C 0.99343 0.42377 0.63532 0.0
C274 C 0.96606 0.38553 0.65074 0.0
C275 C 0.04175 0.38852 0.63873 0.0
C276 C 0.75935 0.44939 0.62731 0.0
N277 N 0.79011 0.467 0.62186 0.0
C278 C 0.72775 0.44263 0.60993 0.0
C279 C 0.72775 0.45403 0.58684 0.0
C280 C 0.75921 0.47199 0.58141 0.0
C281 C 0.79033 0.47826 0.59925 0.0
C282 C 0.77374 0.54514 0.63839 0.0
C283 C 0.85815 0.52646 0.63838 0.0
C284 C 0.7817 0.51975 0.64166 0.0
N285 N 0.8235 0.5107 0.64149 0.0
C286 C 0.85143 0.55195 0.63507 0.0
C287 C 0.8089 0.5613 0.63506 0.0
C288 C 0.91922 0.47568 0.67234 0.0
C289 C 0.85391 0.39156 0.7124 0.0
C290 C 0.93043 0.41496 0.69801 0.0
C291 C 0.92642 0.40617 0.72216 0.0
C292 C 0.88786 0.3944 0.72936 0.0
N293 N 0.89702 0.41205 0.68147 0.0
C294 C 0.8591 0.40057 0.68841 0.0
Co295 Co 0.68145 0.05833 0.64816 0.0
Co296 Co 0.61051 0.10748 0.64337 0.0
O297 O 0.66815 0.09377 0.65135 0.0
C298 C 0.722 0.04675 0.69638 0.0
O299 O 0.69109 0.02998 0.69908 0.0
C300 C 0.67225 0.14146 0.61703 0.0
O301 O 0.69284 0.12193 0.60828 0.0
O302 O 0.61256 0.09213 0.60987 0.0
O303 O 0.64243 0.05504 0.61865 0.0
H304 H 0.45715 0.10443 0.60999 0.0
H305 H 0.75431 0.09464 0.65095 0.0
O306 O 0.72161 0.06101 0.67755 0.0
H307 H 0.77297 0.05198 0.57109 0.0
H308 H 0.78067 0.98334 0.64742 0.0
H309 H 0.62858 0.01293 0.63947 0.0
H310 H 0.71245 0.04053 0.59889 0.0
H311 H 0.76353 0.02805 0.65082 0.0
O312 O 0.63871 0.13866 0.63067 0.0
H313 H 0.52948 0.08728 0.62084 0.0
H314 H 0.56976 0.15774 0.64817 0.0
H315 H 0.64429 0.96807 0.63588 0.0
H316 H 0.81565 0.10645 0.62384 0.0
H317 H 0.72081 0.953 0.63987 0.0
H318 H 0.8252 0.08511 0.58355 0.0
O319 O 0.63082 0.05003 0.66998 0.0
H320 H 0.6714 0.15509 0.71547 0.0
H321 H 0.5436 0.10926 0.68347 0.0
H322 H 0.54101 0.1271 0.72535 0.0
H323 H 0.60519 0.1503 0.74158 0.0
H324 H 0.67278 0.1367 0.67376 0.0
H325 H 0.49796 0.17571 0.63744 0.0
H326 H 0.44101 0.14895 0.61828 0.0
O327 O 0.58045 0.07712 0.65641 0.0
C328 C 0.62123 0.06956 0.60433 0.0
C329 C 0.48166 0.11626 0.61837 0.0
C330 C 0.50459 0.15627 0.63375 0.0
N331 N 0.55376 0.12145 0.63523 0.0
C332 C 0.52266 0.10664 0.62461 0.0
C333 C 0.54524 0.14601 0.63972 0.0
C334 C 0.47264 0.14125 0.62301 0.0
C335 C 0.75852 0.08507 0.63357 0.0
N336 N 0.72992 0.06682 0.6266 0.0
C337 C 0.7932 0.09192 0.61824 0.0
C338 C 0.79849 0.07997 0.59562 0.0
C339 C 0.76917 0.06141 0.58861 0.0
C340 C 0.73484 0.05507 0.6044 0.0
C341 C 0.74721 0.98967 0.64562 0.0
C342 C 0.66197 1.00653 0.64118 0.0
C343 C 0.73729 0.01497 0.64753 0.0
N344 N 0.69508 0.02311 0.64529 0.0
C345 C 0.67067 0.9811 0.63915 0.0
C346 C 0.7136 0.97266 0.64139 0.0
C347 C 0.59138 0.05775 0.66857 0.0
C348 C 0.6432 0.14507 0.70858 0.0
C349 C 0.57176 0.11921 0.69043 0.0
C350 C 0.57004 0.12933 0.71415 0.0
C351 C 0.60605 0.14236 0.72323 0.0
N352 N 0.60825 0.12202 0.67613 0.0
C353 C 0.64374 0.13468 0.68496 0.0
Co354 Co 0.33277 0.55107 0.85802 0.0
Co355 Co 0.3978 0.60285 0.86042 0.0
O356 O 0.34055 0.58721 0.85484 0.0
C357 C 0.2856 0.5629 0.8108 0.0
O358 O 0.31694 0.5783 0.8044 0.0
C359 C 0.336 0.63609 0.88819 0.0
O360 O 0.31468 0.61657 0.8964 0.0
O361 O 0.40119 0.58775 0.894 0.0
O362 O 0.37664 0.54944 0.88541 0.0
H363 H 0.55479 0.60454 0.88804 0.0
H364 H 0.25509 0.58398 0.85971 0.0
O365 O 0.28775 0.5511 0.83112 0.0
H366 H 0.25468 0.539 0.93901 0.0
H367 H 0.24566 0.47152 0.86091 0.0
H368 H 0.39331 0.50838 0.86406 0.0
H369 H 0.31211 0.53095 0.90812 0.0
H370 H 0.25557 0.51695 0.85784 0.0
O371 O 0.3691 0.63337 0.87421 0.0
H372 H 0.48292 0.58527 0.88015 0.0
H373 H 0.43365 0.65406 0.85329 0.0
H374 H 0.38484 0.46288 0.86741 0.0
H375 H 0.19666 0.59238 0.88995 0.0
H376 H 0.31058 0.44415 0.86584 0.0
H377 H 0.19631 0.56985 0.92997 0.0
O378 O 0.38016 0.54516 0.83335 0.0
H379 H 0.32389 0.64869 0.79116 0.0
H380 H 0.45885 0.60593 0.81746 0.0
H381 H 0.45428 0.62354 0.77553 0.0
H382 H 0.38647 0.64519 0.76216 0.0
H383 H 0.32963 0.63051 0.83282 0.0
H384 H 0.50491 0.67412 0.86105 0.0
H385 H 0.56615 0.64929 0.87846 0.0
O386 O 0.42901 0.57334 0.84636 0.0
C387 C 0.39662 0.56478 0.89942 0.0
C388 C 0.52839 0.61555 0.8804 0.0
C389 C 0.50038 0.6546 0.86528 0.0
N390 N 0.45414 0.61848 0.86617 0.0
C391 C 0.48762 0.60473 0.87585 0.0
C392 C 0.46005 0.64315 0.86099 0.0
C393 C 0.53473 0.64066 0.87504 0.0
C394 C 0.25493 0.57394 0.87699 0.0
N395 N 0.28697 0.55698 0.88211 0.0
C396 C 0.22186 0.57885 0.89408 0.0
C397 C 0.22172 0.56624 0.91655 0.0
C398 C 0.25449 0.54894 0.92165 0.0
C399 C 0.28706 0.54454 0.90412 0.0
C400 C 0.27818 0.47945 0.86164 0.0
C401 C 0.36087 0.5004 0.86345 0.0
C402 C 0.28402 0.50517 0.85983 0.0
N403 N 0.32498 0.51534 0.86085 0.0
C404 C 0.35629 0.47461 0.86532 0.0
C405 C 0.31462 0.46411 0.86441 0.0
C406 C 0.41893 0.55401 0.83392 0.0
C407 C 0.35365 0.63937 0.79679 0.0
C408 C 0.42911 0.61517 0.81174 0.0
C409 C 0.42679 0.62519 0.788 0.0
C410 C 0.38875 0.63736 0.78051 0.0
N411 N 0.39456 0.61723 0.82761 0.0
C412 C 0.35716 0.62913 0.8204 0.0
Co413 Co 0.18466 0.97189 0.85667 0.0
Co414 Co 0.11696 0.9215 0.85818 0.0
O415 O 0.17484 0.93613 0.85298 0.0
C416 C 0.22885 0.96399 0.80779 0.0
O417 O 0.19219 0.95567 0.79819 0.0
C418 C 0.17534 0.8871 0.88671 0.0
O419 O 0.19352 0.90632 0.89762 0.0
O420 O 0.11444 0.93609 0.89204 0.0
O421 O 0.14031 0.97419 0.88373 0.0
H422 H 0.95998 0.92176 0.88567 0.0
H423 H 0.2596 0.93697 0.85895 0.0
O424 O 0.23044 0.97066 0.8303 0.0
H425 H 0.26172 0.98182 0.93833 0.0
H426 H 0.27714 0.04941 0.86024 0.0
H427 H 0.12706 0.01584 0.86299 0.0
H428 H 0.20581 0.99143 0.90693 0.0
H429 H 0.26409 1.00426 0.85671 0.0
O430 O 0.14464 0.89031 0.87114 0.0
H431 H 0.03273 0.94006 0.87815 0.0
H432 H 0.07876 0.87098 0.85027 0.0
H433 H 0.13867 0.06108 0.8668 0.0
H434 H 0.3164 0.92694 0.88974 0.0
H435 H 0.21416 0.07815 0.86544 0.0
H436 H 0.31763 0.9494 0.9298 0.0
O437 O 0.13792 0.97899 0.8318 0.0
H438 H 0.18909 0.87725 0.7874 0.0
H439 H 0.05517 0.91985 0.81544 0.0
H440 H 0.05886 0.90348 0.773 0.0
H441 H 0.12615 0.88193 0.75874 0.0
H442 H 0.18416 0.89411 0.82965 0.0
H443 H 1.00658 0.85189 0.85766 0.0
H444 H 0.94653 0.87736 0.8754 0.0
O445 O 0.08729 0.9518 0.8447 0.0
C446 C 0.11986 0.95898 0.89765 0.0
C447 C 0.98585 0.91048 0.87789 0.0
C448 C 0.01203 0.87126 0.8622 0.0
N449 N 0.05992 0.90665 0.86367 0.0
C450 C 0.02711 0.92075 0.87354 0.0
C451 C 0.05287 0.88216 0.85812 0.0
C452 C 0.97834 0.88556 0.87214 0.0
C453 C 0.26012 0.94696 0.87626 0.0
N454 N 0.22945 0.9648 0.8811 0.0
C455 C 0.29228 0.94114 0.89366 0.0
C456 C 0.29291 0.95373 0.91614 0.0
C457 C 0.26153 0.9719 0.92095 0.0
C458 C 0.22984 0.97721 0.90313 0.0
C459 C 0.2441 0.04219 0.8609 0.0
C460 C 0.16002 0.0231 0.8625 0.0
C461 C 0.23649 0.01665 0.85885 0.0
N462 N 0.19485 1.00739 0.8598 0.0
C463 C 0.16639 0.04875 0.86461 0.0
C464 C 0.20875 0.05831 0.86382 0.0
C465 C 0.09865 0.97085 0.83218 0.0
C466 C 0.15955 0.88654 0.79342 0.0
C467 C 0.08463 0.91058 0.80937 0.0
C468 C 0.08649 0.90129 0.78532 0.0
C469 C 0.12424 0.8892 0.77734 0.0
N470 N 0.11936 0.90784 0.82506 0.0
C471 C 0.15652 0.89606 0.81734 0.0
H472 H 0.29988 0.52779 0.31685 0.0
H473 H 0.36472 0.52084 0.29193 0.0
H474 H 0.32337 0.5782 0.24135 0.0
H475 H 0.25706 0.58493 0.26613 0.0
H476 H 0.35133 0.53825 0.21695 0.0
H477 H 0.47485 0.56082 0.28761 0.0
H478 H 0.43784 0.53776 0.29916 0.0
H479 H 0.41771 0.56835 0.29148 0.0
C480 C 0.3045 0.53913 0.30054 0.0
C481 C 0.27326 0.55705 0.29359 0.0
C482 C 0.34198 0.53526 0.28639 0.0
C483 C 0.34973 0.54947 0.26512 0.0
C484 C 0.3184 0.56722 0.25788 0.0
H485 H 0.6043 0.5192 0.19314 0.0
H486 H 0.54482 0.54241 0.21315 0.0
C487 C 0.28048 0.571 0.272 0.0
C488 C 0.38929 0.54444 0.24991 0.0
H489 H 0.49911 0.5334 0.25465 0.0
C490 C 0.38376 0.53766 0.22509 0.0
C491 C 0.43195 0.54425 0.2602 0.0
C492 C 0.44098 0.55348 0.286 0.0
C493 C 0.41906 0.52899 0.21089 0.0
C494 C 0.4608 0.52637 0.222 0.0
C495 C 0.46701 0.5349 0.24623 0.0
C496 C 0.49712 0.51284 0.20958 0.0
C497 C 0.411 0.52236 0.18421 0.0
C498 C 0.49048 0.48835 0.20148 0.0
C499 C 0.52408 0.47516 0.19003 0.0
C500 C 0.56569 0.48592 0.18674 0.0
C501 C 0.57275 0.51031 0.19539 0.0
C502 C 0.53875 0.52362 0.20676 0.0
H503 H 0.38391 0.53365 0.17634 0.0
H504 H 0.44074 0.52523 0.17281 0.0
H505 H 0.40125 0.50251 0.18296 0.0
H506 H 0.45919 0.47928 0.20414 0.0
H507 H 0.51718 0.45644 0.18375 0.0
H508 H 1.00419 0.06752 0.1841 0.0
H509 H 0.06215 0.04499 0.20491 0.0
H510 H 0.97664 0.98191 0.21447 0.0
H511 H 0.91718 1.00483 0.19404 0.0
H512 H 0.02241 0.99145 0.25598 0.0
H513 H 0.13742 0.99032 0.1777 0.0
H514 H 0.12004 0.02152 0.184 0.0
H515 H 0.08057 0.99867 0.17406 0.0
C516 C 0.9973 0.04888 0.1906 0.0
C517 C 0.95573 0.03805 0.18732 0.0
C518 C 0.03089 0.03587 0.20229 0.0
C519 C 0.02428 1.01147 0.21067 0.0
C520 C 0.98268 1.00062 0.20788 0.0
H521 H 0.26413 0.9393 0.26746 0.0
H522 H 0.19767 0.94616 0.24281 0.0
C523 C 0.94869 0.01377 0.19626 0.0
C524 C 0.06063 0.9981 0.22327 0.0
H525 H 0.17003 0.98599 0.21833 0.0
C526 C 0.05449 0.98983 0.24758 0.0
C527 C 0.10234 0.99531 0.21219 0.0
C528 C 0.11033 1.00168 0.18545 0.0
C529 C 0.08956 0.98055 0.26164 0.0
C530 C 0.13218 0.98016 0.25134 0.0
C531 C 0.13764 0.98672 0.22646 0.0
C532 C 0.17178 0.97503 0.26655 0.0
C533 C 0.08056 0.97156 0.28752 0.0
C534 C 0.17984 0.98925 0.28779 0.0
C535 C 0.21742 0.98529 0.30188 0.0
C536 C 0.24845 0.96727 0.2949 0.0
C537 C 0.24089 0.9533 0.27336 0.0
C538 C 0.20288 0.95716 0.2593 0.0
H539 H 0.04662 0.96434 0.28921 0.0
H540 H 0.10371 0.95666 0.29312 0.0
H541 H 0.08392 0.98738 0.30055 0.0
H542 H 0.1573 1.00375 0.29333 0.0
H543 H 0.22231 0.99664 0.31816 0.0
H544 H 0.759 0.43802 0.2369 0.0
H545 H 0.82498 0.44561 0.26172 0.0
H546 H 0.86027 0.50627 0.21353 0.0
H547 H 0.79575 0.4984 0.18847 0.0
H548 H 0.93001 0.47787 0.22368 0.0
H549 H 0.84285 0.50113 0.31071 0.0
H550 H 0.83161 0.47076 0.29846 0.0
H551 H 0.81468 0.49794 0.28164 0.0
C552 C 0.78081 0.453 0.23169 0.0
C553 C 0.77197 0.46763 0.21074 0.0
C554 C 0.81844 0.45739 0.24593 0.0
C555 C 0.84743 0.47673 0.23969 0.0
C556 C 0.83858 0.4912 0.21873 0.0
H557 H 0.0189 0.56814 0.32065 0.0
H558 H 0.96099 0.54603 0.29935 0.0
C559 C 0.80147 0.4867 0.20442 0.0
C560 C 0.88694 0.48243 0.25477 0.0
H561 H 0.9195 0.50376 0.31126 0.0
C562 C 0.92783 0.4833 0.24292 0.0
C563 C 0.88405 0.48959 0.27985 0.0
C564 C 0.84096 0.49005 0.29344 0.0
C565 C 0.9654 0.49219 0.25505 0.0
C566 C 0.96231 0.49982 0.27998 0.0
C567 C 0.92187 0.49783 0.29217 0.0
C568 C 0.99892 0.51267 0.2929 0.0
C569 C 1.00739 0.49466 0.24062 0.0
C570 C 0.03996 0.50135 0.29644 0.0
C571 C 0.07388 0.51423 0.30841 0.0
C572 C 0.06712 0.53855 0.31731 0.0
C573 C 0.02574 0.54957 0.31393 0.0
C574 C 0.99226 0.53685 0.30184 0.0
H575 H 1.00191 0.49286 0.22042 0.0
H576 H 0.0232 0.5129 0.24428 0.0
H577 H 0.03039 0.47978 0.24637 0.0
H578 H 0.04566 0.4825 0.29015 0.0
H579 H 0.1051 0.50504 0.31095 0.0
H580 H 0.76308 0.08564 0.23706 0.0
H581 H 0.69715 0.07815 0.26189 0.0
H582 H 0.66032 0.01829 0.21306 0.0
H583 H 0.72479 0.02604 0.188 0.0
H584 H 0.59109 0.04701 0.22382 0.0
H585 H 0.67921 0.02192 0.31015 0.0
H586 H 0.69082 0.05239 0.29825 0.0
H587 H 0.70697 0.02534 0.281 0.0
C588 C 0.74093 0.07086 0.2317 0.0
C589 C 0.74936 0.05639 0.21059 0.0
C590 C 0.70333 0.06653 0.24594 0.0
C591 C 0.67394 0.04744 0.23953 0.0
C592 C 0.68233 0.03317 0.21838 0.0
H593 H 0.50254 0.95552 0.31965 0.0
H594 H 0.56024 0.97765 0.29828 0.0
C595 C 0.71943 0.0376 0.20408 0.0
C596 C 0.63455 0.04172 0.25466 0.0
H597 H 0.60257 0.01957 0.3109 0.0
C598 C 0.59348 0.04126 0.24296 0.0
C599 C 0.63773 0.03412 0.27961 0.0
C600 C 0.68102 0.03323 0.29301 0.0
C601 C 0.55596 0.03235 0.25509 0.0
C602 C 0.55933 0.02426 0.27987 0.0
C603 C 0.59998 0.02584 0.29193 0.0
C604 C 0.52276 1.01134 0.29271 0.0
C605 C 0.51368 0.03034 0.2408 0.0
C606 C 0.48202 0.02283 0.29673 0.0
C607 C 0.4482 1.00994 0.30876 0.0
C608 C 0.45479 0.98545 0.31723 0.0
C609 C 0.49584 0.97423 0.31329 0.0
C610 C 0.5292 0.98696 0.30115 0.0
H611 H 0.51883 0.03254 0.22063 0.0
H612 H 0.4977 1.0121 0.24417 0.0
H613 H 0.49098 0.0452 0.24696 0.0
H614 H 0.47649 0.04182 0.29082 0.0
H615 H 0.41724 0.01927 0.31173 0.0
H616 H 0.41451 0.51311 0.80299 0.0
H617 H 0.47492 0.49409 0.77975 0.0
H618 H 0.56474 0.54734 0.81103 0.0
H619 H 0.50537 0.56652 0.83379 0.0
H620 H 0.57119 0.54404 0.7607 0.0
H621 H 0.57719 0.45021 0.80378 0.0
H622 H 0.52469 0.45968 0.79208 0.0
H623 H 0.54851 0.47604 0.81766 0.0
C624 C 0.44718 0.52067 0.80499 0.0
C625 C 0.45484 0.54146 0.82021 0.0
C626 C 0.48173 0.50966 0.79184 0.0
C627 C 0.52446 0.51916 0.79384 0.0
C628 C 0.53211 0.53966 0.80921 0.0
H629 H 0.77976 0.46635 0.74537 0.0
H630 H 0.71422 0.47679 0.76953 0.0
C631 C 0.49788 0.55064 0.82223 0.0
C632 C 0.56126 0.50896 0.77904 0.0
H633 H 0.62544 0.45756 0.77032 0.0
C634 C 0.58293 0.5251 0.76276 0.0
C635 C 0.57692 0.48435 0.782 0.0
C636 C 0.55596 0.46655 0.79995 0.0
C637 C 0.61978 0.51739 0.7494 0.0
C638 C 0.63502 0.49265 0.75196 0.0
C639 C 0.61352 0.47646 0.76829 0.0
C640 C 0.67321 0.48354 0.73765 0.0
C641 C 0.64271 0.53602 0.73304 0.0
C642 C 0.67143 0.48311 0.71181 0.0
C643 C 0.70864 0.47736 0.69805 0.0
C644 C 0.7485 0.47167 0.70982 0.0
C645 C 0.74966 0.47076 0.73575 0.0
C646 C 0.71225 0.47668 0.74957 0.0
H647 H 0.63392 0.55548 0.7379 0.0
H648 H 0.6788 0.53397 0.73432 0.0
H649 H 0.63291 0.53279 0.71358 0.0
H650 H 0.64144 0.48788 0.70224 0.0
H651 H 0.70631 0.47788 0.6781 0.0
H652 H 0.73624 0.01653 0.73613 0.0
H653 H 0.80497 1.00985 0.75815 0.0
H654 H 0.8669 0.06674 0.71432 0.0
H655 H 0.79809 0.07367 0.69211 0.0
H656 H 0.88376 0.99528 0.73176 0.0
H657 H 0.90637 0.08171 0.78712 0.0
H658 H 0.85327 0.07187 0.77612 0.0
H659 H 0.8921 0.08501 0.75504 0.0
C660 C 0.76415 0.02801 0.73144 0.0
C661 C 0.76157 0.04559 0.71227 0.0
C662 C 0.80347 0.02412 0.74404 0.0
C663 C 0.84098 0.03784 0.73793 0.0
C664 C 0.83819 0.05616 0.71954 0.0
H665 H 0.10598 1.01028 0.79951 0.0
H666 H 0.04703 0.02894 0.77457 0.0
C667 C 0.79881 0.06005 0.70684 0.0
C668 C 0.88358 0.03121 0.74933 0.0
H669 H 0.9609 0.0508 0.79064 0.0
C670 C 0.90081 1.00751 0.74447 0.0
C671 C 0.90607 0.04733 0.76562 0.0
C672 C 0.88863 0.07289 0.7715 0.0
C673 C 0.93915 0.99918 0.75605 0.0
C674 C 0.96049 0.01477 0.7733 0.0
C675 C 0.94444 0.03891 0.7774 0.0
C676 C 0.99625 1.00505 0.78912 0.0
C677 C 0.95608 0.97349 0.7501 0.0
C678 C 0.98695 0.98596 0.80588 0.0
C679 C 0.02015 0.97535 0.81999 0.0
C680 C 0.06374 0.98361 0.81782 0.0
C681 C 0.07289 1.00338 0.80156 0.0
C682 C 0.03929 0.01407 0.78734 0.0
H683 H 0.94401 0.96689 0.73189 0.0
H684 H 0.99241 0.97312 0.75003 0.0
H685 H 0.94446 0.96023 0.76437 0.0
H686 H 0.95386 0.979 0.80784 0.0
H687 H 0.01146 0.96039 0.83245 0.0
H688 H 0.22476 0.52616 0.81469 0.0
H689 H 0.16033 0.51923 0.78932 0.0
H690 H 0.19215 0.58385 0.74566 0.0
H691 H 0.25803 0.59062 0.77083 0.0
H692 H 0.08915 0.54774 0.78168 0.0
H693 H 0.17561 0.5316 0.69283 0.0
H694 H 0.20415 0.53289 0.72194 0.0
H695 H 0.18602 0.56108 0.70731 0.0
C696 C 0.21833 0.53895 0.79967 0.0
C697 C 0.2468 0.55892 0.79475 0.0
C698 C 0.18125 0.53497 0.78519 0.0
C699 C 0.1714 0.55086 0.76542 0.0
C700 C 0.19944 0.57104 0.76052 0.0
H701 H 0.91381 0.52233 0.69376 0.0
H702 H 0.97239 0.54512 0.71514 0.0
C703 C 0.23703 0.57493 0.77496 0.0
C704 C 0.13183 0.54575 0.75016 0.0
H705 H 0.09921 0.52744 0.69265 0.0
C706 C 0.0912 0.54358 0.76213 0.0
C707 C 0.13456 0.54025 0.72467 0.0
C708 C 0.17741 0.54135 0.71088 0.0
C709 C 0.05381 0.53492 0.74966 0.0
C710 C 0.05681 0.52883 0.72431 0.0
C711 C 0.09691 0.5322 0.71206 0.0
C712 C 0.02074 0.51595 0.71094 0.0
C713 C 0.01217 0.53096 0.76409 0.0
C714 C 0.02856 0.49228 0.70102 0.0
C715 C 0.99556 0.47943 0.68866 0.0
C716 C 0.9535 0.48981 0.68593 0.0
C717 C 0.9456 0.51365 0.69576 0.0
C718 C 0.97903 0.52666 0.70805 0.0
H719 H 0.01775 0.53198 0.78433 0.0
H720 H 0.98817 0.5456 0.75904 0.0
H721 H 0.99749 0.51259 0.75967 0.0
H722 H 0.06035 0.48358 0.703 0.0
H723 H 1.00329 0.46125 0.68125 0.0
H724 H 0.23607 0.96318 0.7571 0.0
H725 H 0.3007 0.97414 0.73251 0.0
H726 H 0.37574 0.98378 0.79926 0.0
H727 H 0.31167 0.97328 0.82382 0.0
H728 H 0.38033 0.02408 0.76908 0.0
H729 H 0.41497 0.93797 0.71601 0.0
H730 H 0.35954 0.94886 0.71356 0.0
H731 H 0.37996 0.93829 0.74285 0.0
C732 C 0.26655 0.96721 0.76649 0.0
C733 C 0.26855 0.96753 0.79242 0.0
C734 C 0.30354 0.97336 0.75241 0.0
C735 C 0.34321 0.97962 0.76404 0.0
C736 C 0.34555 0.97901 0.78987 0.0
H737 H 0.59793 0.01613 0.69828 0.0
H738 H 0.53879 0.99566 0.72133 0.0
C739 C 0.30876 0.97303 0.80389 0.0
C740 C 0.38117 0.98909 0.74968 0.0
H741 H 0.45395 0.9745 0.704 0.0
C742 C 0.39653 0.01314 0.75495 0.0
C743 C 0.40261 0.97476 0.73141 0.0
C744 C 0.38877 0.94844 0.72571 0.0
C745 C 0.43209 0.02343 0.7422 0.0
C746 C 0.4526 1.00946 0.72336 0.0
C747 C 0.43799 0.9852 0.71837 0.0
C748 C 0.48806 0.02039 0.70813 0.0
C749 C 0.44755 0.04922 0.74902 0.0
C750 C 0.4789 0.04067 0.69274 0.0
C751 C 0.51237 0.05239 0.67968 0.0
C752 C 0.55597 0.04408 0.68164 0.0
C753 C 0.56488 0.02316 0.69648 0.0
C754 C 0.53113 1.01138 0.70959 0.0
H755 H 0.43578 0.05487 0.76758 0.0
H756 H 0.48383 0.0503 0.74876 0.0
H757 H 0.4347 0.06277 0.73537 0.0
H758 H 0.44579 0.04769 0.6911 0.0
H759 H 0.50393 0.06823 0.66827 0.0
H760 H 0.1299 0.52103 0.4173 0.0
H761 H 0.09232 0.50418 0.45301 0.0
H762 H 0.02382 0.57363 0.46272 0.0
H763 H 0.06125 0.59086 0.42643 0.0
H764 H 0.09118 0.52021 0.50175 0.0
H765 H 0.9248 0.52186 0.46024 0.0
H766 H 0.9738 0.52594 0.44211 0.0
H767 H 0.95306 0.55119 0.46042 0.0
C768 C 0.10704 0.53294 0.42696 0.0
C769 C 0.09861 0.5574 0.41884 0.0
C770 C 0.08555 0.52318 0.44746 0.0
C771 C 0.05486 0.53749 0.46034 0.0
C772 C 0.04689 0.56211 0.45276 0.0
H773 H 0.89118 0.50695 0.58607 0.0
H774 H 0.92865 0.52415 0.55047 0.0
C775 C 0.06854 0.57199 0.43214 0.0
C776 C 0.03139 0.52628 0.48159 0.0
H777 H 0.9302 0.50852 0.50169 0.0
C778 C 0.05597 0.51763 0.50176 0.0
C779 C 0.98551 0.52279 0.48146 0.0
C780 C 0.95764 0.53071 0.45984 0.0
C781 C 0.03586 0.50596 0.52199 0.0
C782 C 0.99 0.50244 0.52184 0.0
C783 C 0.9654 0.51111 0.50169 0.0
C784 C 0.96657 0.49104 0.54301 0.0
C785 C 0.06374 0.49805 0.54361 0.0
C786 C 0.97482 0.46641 0.55047 0.0
C787 C 0.95326 0.45633 0.57102 0.0
C788 C 0.92298 0.47073 0.58438 0.0
C789 C 0.91423 0.4952 0.57637 0.0
C790 C 0.93565 0.50516 0.55593 0.0
H791 H 0.09647 0.50705 0.54329 0.0
H792 H 0.04747 0.50265 0.56134 0.0
H793 H 0.06863 0.4776 0.54292 0.0
H794 H 0.99805 0.45503 0.54047 0.0
H795 H 0.96078 0.43747 0.57663 0.0
H796 H 0.4647 0.93368 0.42597 0.0
H797 H 0.50301 0.95093 0.46205 0.0
H798 H 0.43317 0.02006 0.45321 0.0
H799 H 0.39485 1.00325 0.41774 0.0
H800 H 0.55668 0.99416 0.46376 0.0
H801 H 0.41406 1.00385 0.52607 0.0
H802 H 0.41289 0.98455 0.49879 0.0
H803 H 0.40542 0.01767 0.49631 0.0
C804 C 0.45712 0.95244 0.43192 0.0
C805 C 0.42633 0.96693 0.41899 0.0
C806 C 0.47914 0.96229 0.45247 0.0
C807 C 0.47039 0.98665 0.46054 0.0
C808 C 0.43975 1.00105 0.44768 0.0
H809 H 0.56289 0.09047 0.57158 0.0
H810 H 0.52869 0.07041 0.53579 0.0
C811 C 0.41793 0.99134 0.42725 0.0
C812 C 0.49424 0.99771 0.48176 0.0
H813 H 0.47845 0.02628 0.53736 0.0
C814 C 0.53971 1.00093 0.47999 0.0
C815 C 0.47197 1.00669 0.50284 0.0
C816 C 0.42345 1.00283 0.50629 0.0
C817 C 0.56331 0.01356 0.49843 0.0
C818 C 0.54088 0.0229 0.51932 0.0
C819 C 0.49552 0.01936 0.52122 0.0
C820 C 0.56395 0.03572 0.53982 0.0
C821 C 0.61184 0.01742 0.49508 0.0
C822 C 0.59517 0.02292 0.55388 0.0
C823 C 0.61473 0.03428 0.57427 0.0
C824 C 0.60338 0.05873 0.58118 0.0
C825 C 0.57265 0.07172 0.56674 0.0
C826 C 0.55295 0.06025 0.54633 0.0
H827 H 0.62182 0.01513 0.4755 0.0
H828 H 0.62186 0.03622 0.50145 0.0
H829 H 0.62984 1.00343 0.50622 0.0
H830 H 0.60355 1.00384 0.54951 0.0
H831 H 0.63804 0.02357 0.58496 0.0
H832 H 0.62635 0.5027 0.08745 0.0
H833 H 0.58765 0.51947 0.05207 0.0
H834 H 0.52103 0.44945 0.04211 0.0
H835 H 0.5594 0.43235 0.07818 0.0
H836 H 0.58648 0.50465 0.0037 0.0
H837 H 0.42009 0.49931 0.04466 0.0
H838 H 0.46915 0.4953 0.06279 0.0
H839 H 0.44941 0.47035 0.04371 0.0
C840 C 0.60363 0.49066 0.07783 0.0
C841 C 0.59597 0.46609 0.08584 0.0
C842 C 0.58149 0.50038 0.0575 0.0
C843 C 0.55098 0.48589 0.04464 0.0
C844 C 0.54385 0.46114 0.05208 0.0
H845 H 0.38852 0.51776 0.91799 0.0
H846 H 0.42579 0.49961 0.9533 0.0
C847 C 0.56608 0.45132 0.07257 0.0
C848 C 0.52693 0.49705 0.02352 0.0
H849 H 0.42495 0.51358 0.00347 0.0
C850 C 0.55115 0.50661 0.00364 0.0
C851 C 0.48086 0.49973 0.02356 0.0
C852 C 0.45326 0.49085 0.04489 0.0
C853 C 0.53057 0.51851 0.98369 0.0
C854 C 0.48456 0.52127 0.98378 0.0
C855 C 0.46027 0.51157 0.00355 0.0
C856 C 0.46083 0.53316 0.96297 0.0
C857 C 0.55813 0.52762 0.96243 0.0
C858 C 0.46749 0.55832 0.95691 0.0
C859 C 0.44596 0.56895 0.93661 0.0
C860 C 0.4174 0.55456 0.92206 0.0
C861 C 0.4102 0.52952 0.92867 0.0
C862 C 0.43151 0.51901 0.94891 0.0
H863 H 0.59143 0.51932 0.96267 0.0
H864 H 0.54233 0.52316 0.94451 0.0
H865 H 0.56161 0.54813 0.96368 0.0
H866 H 0.48953 0.56968 0.96779 0.0
H867 H 0.4523 0.58825 0.93209 0.0
H868 H 0.06424 0.93583 0.93057 0.0
H869 H 0.02789 0.95467 0.96641 0.0
H870 H 0.09357 0.02414 0.95194 0.0
H871 H 0.12931 1.00587 0.91626 0.0
H872 H 0.06418 0.97789 0.00893 0.0
H873 H 0.96459 0.04451 0.95438 0.0
H874 H 0.99185 0.01816 0.94057 0.0
H875 H 0.02215 0.04587 0.94794 0.0
C876 C 0.07107 0.95508 0.93509 0.0
C877 C 0.09959 0.9693 0.92038 0.0
C878 C 0.05022 0.96582 0.95554 0.0
C879 C 0.05737 0.99096 0.96152 0.0
C880 C 0.08676 1.0049 0.94734 0.0
H881 H 0.96218 0.09043 0.078 0.0
H882 H 1.0009 0.07283 0.04226 0.0
C883 C 0.10745 0.99428 0.92698 0.0
C884 C 0.03453 1.00276 0.98267 0.0
H885 H 0.96512 0.05026 0.99786 0.0
C886 C 0.04234 0.99361 0.00651 0.0
C887 C 1.0063 0.02342 0.97947 0.0
C888 C 0.99533 0.03347 0.9542 0.0
C889 C 0.02308 1.00476 0.02729 0.0
C890 C 0.99474 0.02535 0.02408 0.0
C891 C 0.9871 0.03459 1.00026 0.0
C892 C 0.97072 0.03652 0.04512 0.0
C893 C 0.03365 0.9946 0.05256 0.0
C894 C 0.94024 0.02215 0.05809 0.0
C895 C 0.91812 0.03207 0.07829 0.0
C896 C 0.92572 0.05675 0.08603 0.0
C897 C 0.9555 0.07141 0.07258 0.0
C898 C 0.9777 0.06137 0.0522 0.0
H899 H 0.06435 0.98352 0.05247 0.0
H900 H 0.03697 1.00986 0.06625 0.0
H901 H 1.00668 0.98223 0.05866 0.0
H902 H 0.93367 1.00311 0.05263 0.0
H903 H 0.89536 0.02014 0.088 0.0
H904 H 0.14332 0.6806 0.36748 0.0
H905 H 0.17231 0.72257 0.37199 0.0
H906 H 0.27992 0.69422 0.41509 0.0
H907 H 0.25081 0.65177 0.41083 0.0
H908 H 0.24094 0.74031 0.43349 0.0
H909 H 0.28287 0.74488 0.33397 0.0
H910 H 0.22706 0.7364 0.34005 0.0
H911 H 0.27057 0.71597 0.34945 0.0
C912 C 0.17305 0.68316 0.37807 0.0
C913 C 0.19496 0.66268 0.3886 0.0
C914 C 0.18961 0.70724 0.38058 0.0
C915 C 0.22862 0.7115 0.39354 0.0
C916 C 0.24982 0.69132 0.40492 0.0
H917 H 0.38593 0.84385 0.3737 0.0
H918 H 0.35905 0.80148 0.37855 0.0
C919 C 0.23318 0.66708 0.40245 0.0
C920 C 0.24787 0.7369 0.39412 0.0
H921 H 0.28744 0.7826 0.35648 0.0
C922 C 0.25137 0.74956 0.41671 0.0
C923 C 0.26184 0.74883 0.37223 0.0
C924 C 0.26084 0.73579 0.34756 0.0
C925 C 0.26769 0.77406 0.41789 0.0
C926 C 0.28031 0.78627 0.39585 0.0
C927 C 0.27745 0.77337 0.37337 0.0
C928 C 0.29778 0.81215 0.39546 0.0
C929 C 0.27188 0.78651 0.44272 0.0
C930 C 0.27254 0.83244 0.40363 0.0
C931 C 0.28802 0.8569 0.40098 0.0
C932 C 0.32879 0.8615 0.38983 0.0
C933 C 0.35427 0.84108 0.38222 0.0
C934 C 0.33896 0.81676 0.385 0.0
H935 H 0.2718 0.77274 0.45801 0.0
H936 H 0.30241 0.79767 0.44383 0.0
H937 H 0.24373 0.79925 0.44547 0.0
H938 H 0.24027 0.82943 0.4113 0.0
H939 H 0.26746 0.8722 0.40688 0.0
H940 H 0.76831 0.15169 0.09773 0.0
H941 H 0.74063 0.19437 0.09349 0.0
H942 H 0.85737 0.22245 0.1285 0.0
H943 H 0.88476 0.18016 0.13316 0.0
H944 H 0.78426 0.24081 0.14954 0.0
H945 H 0.77403 0.25167 0.04787 0.0
H946 H 0.74574 0.22489 0.05966 0.0
H947 H 0.80427 0.22676 0.06237 0.0
C948 C 0.78833 0.167 0.10419 0.0
C949 C 0.82869 0.16244 0.11586 0.0
C950 C 0.77257 0.19142 0.10164 0.0
C951 C 0.7971 0.21171 0.11047 0.0
C952 C 0.83784 0.20716 0.12153 0.0
H953 H 0.74984 0.37195 0.09506 0.0
H954 H 0.77908 0.32952 0.09111 0.0
C955 C 0.85345 0.18288 0.12419 0.0
C956 C 0.77933 0.23753 0.11003 0.0
H957 H 0.74168 0.28377 0.07212 0.0
C958 C 0.77511 0.25019 0.13257 0.0
C959 C 0.76782 0.24993 0.08789 0.0
C960 C 0.77352 0.23775 0.06303 0.0
C961 C 0.75924 0.27468 0.13366 0.0
C962 C 0.74639 0.28681 0.11164 0.0
C963 C 0.75123 0.27437 0.089 0.0
C964 C 0.7271 0.31222 0.11207 0.0
C965 C 0.75688 0.28747 0.15843 0.0
C966 C 0.68766 0.31647 0.12457 0.0
C967 C 0.67104 0.34055 0.12692 0.0
C968 C 0.69329 0.36103 0.11666 0.0
C969 C 0.73193 0.35664 0.10324 0.0
C970 C 0.74866 0.33241 0.10094 0.0
H971 H 0.77837 0.27834 0.17228 0.0
H972 H 0.76642 0.30736 0.1569 0.0
H973 H 0.72277 0.28662 0.16538 0.0
H974 H 0.67005 0.30113 0.13292 0.0
H975 H 0.64096 0.34311 0.13716 0.0
H976 H 0.75013 0.15554 0.59565 0.0
H977 H 0.78006 0.19786 0.59246 0.0
H978 H 0.66281 0.22734 0.62556 0.0
H979 H 0.63295 0.18542 0.62904 0.0
H980 H 0.74763 0.24279 0.56969 0.0
H981 H 0.76154 0.25152 0.67145 0.0
H982 H 0.75277 0.22203 0.65629 0.0
H983 H 0.70786 0.24314 0.66083 0.0
C984 C 0.73057 0.17106 0.60204 0.0
C985 C 0.68931 0.16702 0.61283 0.0
C986 C 0.74771 0.19523 0.60019 0.0
C987 C 0.72395 0.21571 0.60915 0.0
C988 C 0.68206 0.21179 0.61895 0.0
H989 H 0.7727 0.37548 0.59283 0.0
H990 H 0.74408 0.33302 0.58845 0.0
C991 C 0.665 0.18775 0.62086 0.0
C992 C 0.74336 0.24109 0.6093 0.0
H993 H 0.77378 0.28812 0.64809 0.0
C994 C 0.75352 0.25271 0.5868 0.0
C995 C 0.75147 0.2539 0.63166 0.0
C996 C 0.74326 0.24197 0.65645 0.0
C997 C 0.77088 0.277 0.5861 0.0
C998 C 0.77777 0.29005 0.60846 0.0
C999 C 0.76815 0.27822 0.63092 0.0
C1000 C 0.79628 0.31567 0.6093 0.0
C1001 C 0.78242 0.28829 0.56147 0.0
C1002 C 0.83489 0.32012 0.6226 0.0
C1003 C 0.85107 0.34427 0.62529 0.0
C1004 C 0.82896 0.36468 0.61478 0.0
C1005 C 0.79069 0.3602 0.60102 0.0
C1006 C 0.7744 0.33591 0.5984 0.0
H1007 H 0.78536 0.27391 0.54684 0.0
H1008 H 0.75629 0.30149 0.55592 0.0
H1009 H 0.81368 0.29877 0.56261 0.0
H1010 H 0.85232 0.30485 0.63122 0.0
H1011 H 0.88068 0.34693 0.63596 0.0
H1012 H 0.38138 0.67924 0.88205 0.0
H1013 H 0.35517 0.72174 0.88696 0.0
H1014 H 0.22955 0.69412 0.91063 0.0
H1015 H 0.25599 0.6512 0.90616 0.0
H1016 H 0.28934 0.74232 0.86112 0.0
H1017 H 0.25275 0.74863 0.96119 0.0
H1018 H 0.28526 0.72382 0.94819 0.0
H1019 H 0.2266 0.72297 0.94589 0.0
C1020 C 0.3483 0.6821 0.8886 0.0
C1021 C 0.32071 0.66175 0.89362 0.0
C1022 C 0.33338 0.70649 0.89143 0.0
C1023 C 0.29049 0.71123 0.89934 0.0
C1024 C 0.26307 0.69098 0.90498 0.0
H1025 H 0.14302 0.84398 0.86737 0.0
H1026 H 0.17137 0.80192 0.87218 0.0
C1027 C 0.27814 0.66644 0.90231 0.0
C1028 C 0.27388 0.73729 0.89958 0.0
H1029 H 0.22783 0.78223 0.936 0.0
C1030 C 0.27611 0.75103 0.87756 0.0
C1031 C 0.25699 0.74881 0.92106 0.0
C1032 C 0.25557 0.73542 0.9455 0.0
C1033 C 0.26133 0.77572 0.87631 0.0
C1034 C 0.24312 0.78697 0.89753 0.0
C1035 C 0.24158 0.77349 0.91972 0.0
C1036 C 0.22427 0.81244 0.89653 0.0
C1037 C 0.26551 0.78966 0.85224 0.0
C1038 C 0.24391 0.83233 0.90922 0.0
C1039 C 0.22771 0.85664 0.90652 0.0
C1040 C 0.19145 0.86138 0.89118 0.0
C1041 C 0.17115 0.84117 0.87921 0.0
C1042 C 0.18733 0.81703 0.88189 0.0
H1043 H 0.28951 0.78071 0.83966 0.0
H1044 H 0.23328 0.78995 0.8428 0.0
H1045 H 0.27575 0.80922 0.85549 0.0
H1046 H 0.27244 0.82914 0.92067 0.0
H1047 H 0.24407 0.87173 0.91604 0.0
loop_
_geom_bond_atom_site_label_1
_geom_bond_atom_site_label_2
_geom_bond_distance
_geom_bond_site_symmetry_2
_ccdc_geom_bond_type
Co0 O2 2.143 . S
Co0 O8 2.074 . S
Co0 O11 2.093 . S
Co0 O24 2.097 . S
Co0 N41 2.151 . S
Co0 N49 2.214 . S
Co1 O2 2.160 . S
Co1 O7 2.058 . S
Co1 O17 2.057 . S
Co1 O32 2.037 . S
Co1 N36 2.145 . S
Co1 N57 2.257 . S
O2 Co0 2.143 . S
O2 Co1 2.160 . S
C3 O4 1.278 . S
C3 O11 1.224 . S
O4 C3 1.278 . S
C5 O6 1.245 . S
C5 O17 1.232 . S
O6 C5 1.245 . S
O7 Co1 2.058 . S
O7 C33 1.269 . S
O8 Co0 2.074 . S
O8 C33 1.257 . S
H9 C34 0.930 . S
H10 C40 0.930 . S
O11 Co0 2.093 . S
O11 C3 1.224 . S
H12 C44 0.929 . S
H13 C46 0.930 . S
H14 C47 0.930 . S
H15 C45 0.929 . S
H16 C48 0.928 . S
O17 Co1 2.057 . S
O17 C5 1.232 . S
H18 C37 0.929 . S
H19 C38 0.929 . S
H20 C50 0.931 . S
H21 C42 0.929 . S
H22 C51 0.930 . S
H23 C43 0.931 . S
O24 Co0 2.097 . S
O24 C52 1.214 . S
H25 C53 0.929 . S
H26 C54 0.929 . S
H27 C55 0.930 . S
H28 C56 0.929 . S
H29 C58 0.930 . S
H30 C35 0.930 . S
H31 C39 0.930 . S
O32 Co1 2.037 . S
O32 C52 1.234 . S
C33 O7 1.269 . S
C33 O8 1.257 . S
C34 H9 0.930 . S
C34 C37 1.388 1_655 S
C34 C39 1.418 . S
C35 H30 0.930 . S
C35 C38 1.404 . S
C35 C39 1.353 1_455 S
N36 Co1 2.145 . S
N36 C37 1.397 . S
N36 C38 1.334 . S
C37 H18 0.929 . S
C37 C34 1.388 1_455 S
C37 N36 1.397 . S
C38 H19 0.929 . S
C38 C35 1.404 . S
C38 N36 1.334 . S
C39 H31 0.930 . S
C39 C34 1.418 . S
C39 C35 1.353 1_655 S
C40 H10 0.930 . S
C40 N41 1.330 . S
C40 C42 1.446 . S
N41 Co0 2.151 . S
N41 C40 1.330 . S
N41 C45 1.418 . S
C42 H21 0.929 . S
C42 C40 1.446 . S
C42 C43 1.332 . S
C43 H23 0.931 . S
C43 C42 1.332 . S
C43 C44 1.267 . S
C44 H12 0.929 . S
C44 C43 1.267 . S
C44 C45 1.251 . S
C45 H15 0.929 . S
C45 N41 1.418 . S
C45 C44 1.251 . S
C46 H13 0.930 . S
C46 C48 1.406 . S
C46 C51 1.261 . S
C47 H14 0.930 . S
C47 N49 1.325 . S
C47 C50 1.357 . S
C48 H16 0.928 . S
C48 C46 1.406 . S
C48 N49 1.261 . S
N49 Co0 2.214 . S
N49 C47 1.325 . S
N49 C48 1.261 . S
C50 H20 0.931 . S
C50 C47 1.357 . S
C50 C51 1.312 . S
C51 H22 0.930 . S
C51 C46 1.261 . S
C51 C50 1.312 . S
C52 O24 1.214 . S
C52 O32 1.234 . S
C53 H25 0.929 . S
C53 C56 1.391 . S
C53 C58 1.391 . S
C54 H26 0.929 . S
C54 C55 1.390 . S
C54 N57 1.391 . S
C55 H27 0.930 . S
C55 C54 1.390 . S
C55 C56 1.392 . S
C56 H28 0.929 . S
C56 C53 1.391 . S
C56 C55 1.392 . S
N57 Co1 2.257 . S
N57 C54 1.391 . S
N57 C58 1.388 . S
C58 H29 0.930 . S
C58 C53 1.391 . S
C58 N57 1.388 . S
Co59 O61 2.143 . S
Co59 O67 2.074 . S
Co59 O70 2.093 . S
Co59 O83 2.097 . S
Co59 N100 2.151 . S
Co59 N108 2.214 1_565 S
Co60 O61 2.160 . S
Co60 O66 2.058 . S
Co60 O76 2.057 . S
Co60 O91 2.037 . S
Co60 N95 2.145 . S
Co60 N116 2.257 . S
O61 Co59 2.143 . S
O61 Co60 2.160 . S
C62 O63 1.278 . S
C62 O70 1.224 . S
O63 C62 1.278 . S
C64 O65 1.245 . S
C64 O76 1.232 . S
O65 C64 1.245 . S
O66 Co60 2.058 . S
O66 C92 1.269 . S
O67 Co59 2.074 . S
O67 C92 1.257 . S
H68 C93 0.930 . S
H69 C99 0.930 . S
O70 Co59 2.093 . S
O70 C62 1.224 . S
H71 C103 0.929 . S
H72 C105 0.930 . S
H73 C106 0.930 . S
H74 C104 0.929 . S
H75 C107 0.928 . S
O76 Co60 2.057 . S
O76 C64 1.232 . S
H77 C96 0.929 . S
H78 C97 0.929 . S
H79 C109 0.931 . S
H80 C101 0.929 . S
H81 C110 0.930 . S
H82 C102 0.931 . S
O83 Co59 2.097 . S
O83 C111 1.214 . S
H84 C112 0.929 . S
H85 C113 0.929 . S
H86 C114 0.930 . S
H87 C115 0.929 . S
H88 C117 0.930 . S
H89 C94 0.930 . S
H90 C98 0.930 . S
O91 Co60 2.037 . S
O91 C111 1.234 . S
C92 O66 1.269 . S
C92 O67 1.257 . S
C93 H68 0.930 . S
C93 C96 1.388 . S
C93 C98 1.418 . S
C94 H89 0.930 . S
C94 C97 1.404 . S
C94 C98 1.353 . S
N95 Co60 2.145 . S
N95 C96 1.397 . S
N95 C97 1.334 . S
C96 H77 0.929 . S
C96 C93 1.388 . S
C96 N95 1.397 . S
C97 H78 0.929 . S
C97 C94 1.404 . S
C97 N95 1.334 . S
C98 H90 0.930 . S
C98 C93 1.418 . S
C98 C94 1.353 . S
C99 H69 0.930 . S
C99 N100 1.330 . S
C99 C101 1.446 . S
N100 Co59 2.151 . S
N100 C99 1.330 . S
N100 C104 1.418 . S
C101 H80 0.929 . S
C101 C99 1.446 . S
C101 C102 1.332 . S
C102 H82 0.931 . S
C102 C101 1.332 . S
C102 C103 1.267 . S
C103 H71 0.929 . S
C103 C102 1.267 . S
C103 C104 1.251 . S
C104 H74 0.929 . S
C104 N100 1.418 . S
C104 C103 1.251 . S
C105 H72 0.930 . S
C105 C107 1.406 . S
C105 C110 1.261 . S
C106 H73 0.930 . S
C106 N108 1.325 . S
C106 C109 1.357 . S
C107 H75 0.928 . S
C107 C105 1.406 . S
C107 N108 1.261 . S
N108 Co59 2.214 1_545 S
N108 C106 1.325 . S
N108 C107 1.261 . S
C109 H79 0.931 . S
C109 C106 1.357 . S
C109 C110 1.312 . S
C110 H81 0.930 . S
C110 C105 1.261 . S
C110 C109 1.312 . S
C111 O83 1.214 . S
C111 O91 1.234 . S
C112 H84 0.929 . S
C112 C115 1.391 . S
C112 C117 1.391 . S
C113 H85 0.929 . S
C113 C114 1.390 . S
C113 N116 1.391 . S
C114 H86 0.930 . S
C114 C113 1.390 . S
C114 C115 1.392 . S
C115 H87 0.929 . S
C115 C112 1.391 . S
C115 C114 1.392 . S
N116 Co60 2.257 . S
N116 C113 1.391 . S
N116 C117 1.388 . S
C117 H88 0.930 . S
C117 C112 1.391 . S
C117 N116 1.388 . S
Co118 O120 2.143 . S
Co118 O126 2.074 . S
Co118 O129 2.093 . S
Co118 O142 2.097 . S
Co118 N159 2.151 . S
Co118 N167 2.214 . S
Co119 O120 2.160 . S
Co119 O125 2.058 . S
Co119 O135 2.057 . S
Co119 O150 2.037 . S
Co119 N154 2.145 . S
Co119 N175 2.257 . S
O120 Co118 2.143 . S
O120 Co119 2.160 . S
C121 O122 1.278 . S
C121 O129 1.224 . S
O122 C121 1.278 . S
C123 O124 1.245 . S
C123 O135 1.232 . S
O124 C123 1.245 . S
O125 Co119 2.058 . S
O125 C151 1.269 . S
O126 Co118 2.074 . S
O126 C151 1.257 . S
H127 C152 0.930 . S
H128 C158 0.930 . S
O129 Co118 2.093 . S
O129 C121 1.224 . S
H130 C162 0.929 . S
H131 C164 0.930 . S
H132 C165 0.930 . S
H133 C163 0.929 . S
H134 C166 0.928 . S
O135 Co119 2.057 . S
O135 C123 1.232 . S
H136 C155 0.929 . S
H137 C156 0.929 . S
H138 C168 0.931 . S
H139 C160 0.929 . S
H140 C169 0.930 . S
H141 C161 0.931 . S
O142 Co118 2.097 . S
O142 C170 1.214 . S
H143 C171 0.929 . S
H144 C172 0.929 . S
H145 C173 0.930 . S
H146 C174 0.929 . S
H147 C176 0.930 . S
H148 C153 0.930 . S
H149 C157 0.930 . S
O150 Co119 2.037 . S
O150 C170 1.234 . S
C151 O125 1.269 . S
C151 O126 1.257 . S
C152 H127 0.930 . S
C152 C155 1.388 . S
C152 C157 1.418 . S
C153 H148 0.930 . S
C153 C156 1.404 . S
C153 C157 1.353 . S
N154 Co119 2.145 . S
N154 C155 1.397 . S
N154 C156 1.334 . S
C155 H136 0.929 . S
C155 C152 1.388 . S
C155 N154 1.397 . S
C156 H137 0.929 . S
C156 C153 1.404 . S
C156 N154 1.334 . S
C157 H149 0.930 . S
C157 C152 1.418 . S
C157 C153 1.353 . S
C158 H128 0.930 . S
C158 N159 1.330 . S
C158 C160 1.446 . S
N159 Co118 2.151 . S
N159 C158 1.330 . S
N159 C163 1.418 . S
C160 H139 0.929 . S
C160 C158 1.446 . S
C160 C161 1.332 . S
C161 H141 0.931 . S
C161 C160 1.332 . S
C161 C162 1.267 . S
C162 H130 0.929 . S
C162 C161 1.267 . S
C162 C163 1.251 . S
C163 H133 0.929 . S
C163 N159 1.418 . S
C163 C162 1.251 . S
C164 H131 0.930 . S
C164 C166 1.406 . S
C164 C169 1.261 . S
C165 H132 0.930 . S
C165 N167 1.325 . S
C165 C168 1.357 . S
C166 H134 0.928 . S
C166 C164 1.406 . S
C166 N167 1.261 . S
N167 Co118 2.214 . S
N167 C165 1.325 . S
N167 C166 1.261 . S
C168 H138 0.931 . S
C168 C165 1.357 . S
C168 C169 1.312 . S
C169 H140 0.930 . S
C169 C164 1.261 . S
C169 C168 1.312 . S
C170 O142 1.214 . S
C170 O150 1.234 . S
C171 H143 0.929 . S
C171 C174 1.391 . S
C171 C176 1.391 . S
C172 H144 0.929 . S
C172 C173 1.390 . S
C172 N175 1.391 . S
C173 H145 0.930 . S
C173 C172 1.390 . S
C173 C174 1.392 . S
C174 H146 0.929 . S
C174 C171 1.391 . S
C174 C173 1.392 . S
N175 Co119 2.257 . S
N175 C172 1.391 . S
N175 C176 1.388 . S
C176 H147 0.930 . S
C176 C171 1.391 . S
C176 N175 1.388 . S
Co177 O179 2.143 . S
Co177 O185 2.074 . S
Co177 O188 2.093 . S
Co177 O201 2.097 . S
Co177 N218 2.151 . S
Co177 N226 2.214 1_545 S
Co178 O179 2.160 . S
Co178 O184 2.058 . S
Co178 O194 2.057 . S
Co178 O209 2.037 . S
Co178 N213 2.145 . S
Co178 N234 2.257 . S
O179 Co177 2.143 . S
O179 Co178 2.160 . S
C180 O181 1.278 . S
C180 O188 1.224 . S
O181 C180 1.278 . S
C182 O183 1.245 . S
C182 O194 1.232 . S
O183 C182 1.245 . S
O184 Co178 2.058 . S
O184 C210 1.269 . S
O185 Co177 2.074 . S
O185 C210 1.257 . S
H186 C211 0.930 . S
H187 C217 0.930 . S
O188 Co177 2.093 . S
O188 C180 1.224 . S
H189 C221 0.929 . S
H190 C223 0.930 . S
H191 C224 0.930 . S
H192 C222 0.929 . S
H193 C225 0.928 . S
O194 Co178 2.057 . S
O194 C182 1.232 . S
H195 C214 0.929 . S
H196 C215 0.929 . S
H197 C227 0.931 . S
H198 C219 0.929 . S
H199 C228 0.930 . S
H200 C220 0.931 . S
O201 Co177 2.097 . S
O201 C229 1.214 . S
H202 C230 0.929 . S
H203 C231 0.929 . S
H204 C232 0.930 . S
H205 C233 0.929 . S
H206 C235 0.930 . S
H207 C212 0.930 . S
H208 C216 0.930 . S
O209 Co178 2.037 . S
O209 C229 1.234 . S
C210 O184 1.269 . S
C210 O185 1.257 . S
C211 H186 0.930 . S
C211 C214 1.388 1_455 S
C211 C216 1.418 . S
C212 H207 0.930 . S
C212 C215 1.404 . S
C212 C216 1.353 1_655 S
N213 Co178 2.145 . S
N213 C214 1.397 . S
N213 C215 1.334 . S
C214 H195 0.929 . S
C214 C211 1.388 1_655 S
C214 N213 1.397 . S
C215 H196 0.929 . S
C215 C212 1.404 . S
C215 N213 1.334 . S
C216 H208 0.930 . S
C216 C211 1.418 . S
C216 C212 1.353 1_455 S
C217 H187 0.930 . S
C217 N218 1.330 . S
C217 C219 1.446 . S
N218 Co177 2.151 . S
N218 C217 1.330 . S
N218 C222 1.418 . S
C219 H198 0.929 . S
C219 C217 1.446 . S
C219 C220 1.332 . S
C220 H200 0.931 . S
C220 C219 1.332 . S
C220 C221 1.267 . S
C221 H189 0.929 . S
C221 C220 1.267 . S
C221 C222 1.251 . S
C222 H192 0.929 . S
C222 N218 1.418 . S
C222 C221 1.251 . S
C223 H190 0.930 . S
C223 C225 1.406 . S
C223 C228 1.261 . S
C224 H191 0.930 . S
C224 N226 1.325 . S
C224 C227 1.357 . S
C225 H193 0.928 . S
C225 C223 1.406 . S
C225 N226 1.261 . S
N226 Co177 2.214 1_565 S
N226 C224 1.325 . S
N226 C225 1.261 . S
C227 H197 0.931 . S
C227 C224 1.357 . S
C227 C228 1.312 . S
C228 H199 0.930 . S
C228 C223 1.261 . S
C228 C227 1.312 . S
C229 O201 1.214 . S
C229 O209 1.234 . S
C230 H202 0.929 . S
C230 C233 1.391 . S
C230 C235 1.391 . S
C231 H203 0.929 . S
C231 C232 1.390 . S
C231 N234 1.391 . S
C232 H204 0.930 . S
C232 C231 1.390 . S
C232 C233 1.392 . S
C233 H205 0.929 . S
C233 C230 1.391 . S
C233 C232 1.392 . S
N234 Co178 2.257 . S
N234 C231 1.391 . S
N234 C235 1.388 . S
C235 H206 0.930 . S
C235 C230 1.391 . S
C235 N234 1.388 . S
Co236 O238 2.143 . S
Co236 O244 2.074 . S
Co236 O247 2.093 . S
Co236 O260 2.097 . S
Co236 N277 2.151 . S
Co236 N285 2.214 . S
Co237 O238 2.160 . S
Co237 O243 2.058 . S
Co237 O253 2.057 . S
Co237 O268 2.037 . S
Co237 N272 2.145 . S
Co237 N293 2.257 . S
O238 Co236 2.143 . S
O238 Co237 2.160 . S
C239 O240 1.278 . S
C239 O247 1.224 . S
O240 C239 1.278 . S
C241 O242 1.245 . S
C241 O253 1.232 . S
O242 C241 1.245 . S
O243 Co237 2.058 . S
O243 C269 1.269 . S
O244 Co236 2.074 . S
O244 C269 1.257 . S
H245 C270 0.930 . S
H246 C276 0.930 . S
O247 Co236 2.093 . S
O247 C239 1.224 . S
H248 C280 0.929 . S
H249 C282 0.930 . S
H250 C283 0.930 . S
H251 C281 0.929 . S
H252 C284 0.928 . S
O253 Co237 2.057 . S
O253 C241 1.232 . S
H254 C273 0.929 . S
H255 C274 0.929 . S
H256 C286 0.931 . S
H257 C278 0.929 . S
H258 C287 0.930 . S
H259 C279 0.931 . S
O260 Co236 2.097 . S
O260 C288 1.214 . S
H261 C289 0.929 . S
H262 C290 0.929 . S
H263 C291 0.930 . S
H264 C292 0.929 . S
H265 C294 0.930 . S
H266 C271 0.930 . S
H267 C275 0.930 . S
O268 Co237 2.037 . S
O268 C288 1.234 . S
C269 O243 1.269 . S
C269 O244 1.257 . S
C270 H245 0.930 . S
C270 C273 1.388 1_455 S
C270 C275 1.418 . S
C271 H266 0.930 . S
C271 C274 1.404 . S
C271 C275 1.353 1_655 S
N272 Co237 2.145 . S
N272 C273 1.397 . S
N272 C274 1.334 . S
C273 H254 0.929 . S
C273 C270 1.388 1_655 S
C273 N272 1.397 . S
C274 H255 0.929 . S
C274 C271 1.404 . S
C274 N272 1.334 . S
C275 H267 0.930 . S
C275 C270 1.418 . S
C275 C271 1.353 1_455 S
C276 H246 0.930 . S
C276 N277 1.330 . S
C276 C278 1.446 . S
N277 Co236 2.151 . S
N277 C276 1.330 . S
N277 C281 1.418 . S
C278 H257 0.929 . S
C278 C276 1.446 . S
C278 C279 1.332 . S
C279 H259 0.931 . S
C279 C278 1.332 . S
C279 C280 1.267 . S
C280 H248 0.929 . S
C280 C279 1.267 . S
C280 C281 1.251 . S
C281 H251 0.929 . S
C281 N277 1.418 . S
C281 C280 1.251 . S
C282 H249 0.930 . S
C282 C284 1.406 . S
C282 C287 1.261 . S
C283 H250 0.930 . S
C283 N285 1.325 . S
C283 C286 1.357 . S
C284 H252 0.928 . S
C284 C282 1.406 . S
C284 N285 1.261 . S
N285 Co236 2.214 . S
N285 C283 1.325 . S
N285 C284 1.261 . S
C286 H256 0.931 . S
C286 C283 1.357 . S
C286 C287 1.312 . S
C287 H258 0.930 . S
C287 C282 1.261 . S
C287 C286 1.312 . S
C288 O260 1.214 . S
C288 O268 1.234 . S
C289 H261 0.929 . S
C289 C292 1.391 . S
C289 C294 1.391 . S
C290 H262 0.929 . S
C290 C291 1.390 . S
C290 N293 1.391 . S
C291 H263 0.930 . S
C291 C290 1.390 . S
C291 C292 1.392 . S
C292 H264 0.929 . S
C292 C289 1.391 . S
C292 C291 1.392 . S
N293 Co237 2.257 . S
N293 C290 1.391 . S
N293 C294 1.388 . S
C294 H265 0.930 . S
C294 C289 1.391 . S
C294 N293 1.388 . S
Co295 O297 2.143 . S
Co295 O303 2.074 . S
Co295 O306 2.093 . S
Co295 O319 2.097 . S
Co295 N336 2.151 . S
Co295 N344 2.214 1_545 S
Co296 O297 2.160 . S
Co296 O302 2.058 . S
Co296 O312 2.057 . S
Co296 O327 2.037 . S
Co296 N331 2.145 . S
Co296 N352 2.257 . S
O297 Co295 2.143 . S
O297 Co296 2.160 . S
C298 O299 1.278 . S
C298 O306 1.224 . S
O299 C298 1.278 . S
C300 O301 1.245 . S
C300 O312 1.232 . S
O301 C300 1.245 . S
O302 Co296 2.058 . S
O302 C328 1.269 . S
O303 Co295 2.074 . S
O303 C328 1.257 . S
H304 C329 0.930 . S
H305 C335 0.930 . S
O306 Co295 2.093 . S
O306 C298 1.224 . S
H307 C339 0.929 . S
H308 C341 0.930 . S
H309 C342 0.930 . S
H310 C340 0.929 . S
H311 C343 0.928 . S
O312 Co296 2.057 . S
O312 C300 1.232 . S
H313 C332 0.929 . S
H314 C333 0.929 . S
H315 C345 0.931 . S
H316 C337 0.929 . S
H317 C346 0.930 . S
H318 C338 0.931 . S
O319 Co295 2.097 . S
O319 C347 1.214 . S
H320 C348 0.929 . S
H321 C349 0.929 . S
H322 C350 0.930 . S
H323 C351 0.929 . S
H324 C353 0.930 . S
H325 C330 0.930 . S
H326 C334 0.930 . S
O327 Co296 2.037 . S
O327 C347 1.234 . S
C328 O302 1.269 . S
C328 O303 1.257 . S
C329 H304 0.930 . S
C329 C332 1.388 . S
C329 C334 1.418 . S
C330 H325 0.930 . S
C330 C333 1.404 . S
C330 C334 1.353 . S
N331 Co296 2.145 . S
N331 C332 1.397 . S
N331 C333 1.334 . S
C332 H313 0.929 . S
C332 C329 1.388 . S
C332 N331 1.397 . S
C333 H314 0.929 . S
C333 C330 1.404 . S
C333 N331 1.334 . S
C334 H326 0.930 . S
C334 C329 1.418 . S
C334 C330 1.353 . S
C335 H305 0.930 . S
C335 N336 1.330 . S
C335 C337 1.446 . S
N336 Co295 2.151 . S
N336 C335 1.330 . S
N336 C340 1.418 . S
C337 H316 0.929 . S
C337 C335 1.446 . S
C337 C338 1.332 . S
C338 H318 0.931 . S
C338 C337 1.332 . S
C338 C339 1.267 . S
C339 H307 0.929 . S
C339 C338 1.267 . S
C339 C340 1.251 . S
C340 H310 0.929 . S
C340 N336 1.418 . S
C340 C339 1.251 . S
C341 H308 0.930 . S
C341 C343 1.406 . S
C341 C346 1.261 . S
C342 H309 0.930 . S
C342 N344 1.325 . S
C342 C345 1.357 . S
C343 H311 0.928 . S
C343 C341 1.406 . S
C343 N344 1.261 . S
N344 Co295 2.214 1_565 S
N344 C342 1.325 . S
N344 C343 1.261 . S
C345 H315 0.931 . S
C345 C342 1.357 . S
C345 C346 1.312 . S
C346 H317 0.930 . S
C346 C341 1.261 . S
C346 C345 1.312 . S
C347 O319 1.214 . S
C347 O327 1.234 . S
C348 H320 0.929 . S
C348 C351 1.391 . S
C348 C353 1.391 . S
C349 H321 0.929 . S
C349 C350 1.390 . S
C349 N352 1.391 . S
C350 H322 0.930 . S
C350 C349 1.390 . S
C350 C351 1.392 . S
C351 H323 0.929 . S
C351 C348 1.391 . S
C351 C350 1.392 . S
N352 Co296 2.257 . S
N352 C349 1.391 . S
N352 C353 1.388 . S
C353 H324 0.930 . S
C353 C348 1.391 . S
C353 N352 1.388 . S
Co354 O356 2.143 . S
Co354 O362 2.074 . S
Co354 O365 2.093 . S
Co354 O378 2.097 . S
Co354 N395 2.151 . S
Co354 N403 2.214 . S
Co355 O356 2.160 . S
Co355 O361 2.058 . S
Co355 O371 2.057 . S
Co355 O386 2.037 . S
Co355 N390 2.145 . S
Co355 N411 2.257 . S
O356 Co354 2.143 . S
O356 Co355 2.160 . S
C357 O358 1.278 . S
C357 O365 1.224 . S
O358 C357 1.278 . S
C359 O360 1.245 . S
C359 O371 1.232 . S
O360 C359 1.245 . S
O361 Co355 2.058 . S
O361 C387 1.269 . S
O362 Co354 2.074 . S
O362 C387 1.257 . S
H363 C388 0.930 . S
H364 C394 0.930 . S
O365 Co354 2.093 . S
O365 C357 1.224 . S
H366 C398 0.929 . S
H367 C400 0.930 . S
H368 C401 0.930 . S
H369 C399 0.929 . S
H370 C402 0.928 . S
O371 Co355 2.057 . S
O371 C359 1.232 . S
H372 C391 0.929 . S
H373 C392 0.929 . S
H374 C404 0.931 . S
H375 C396 0.929 . S
H376 C405 0.930 . S
H377 C397 0.931 . S
O378 Co354 2.097 . S
O378 C406 1.214 . S
H379 C407 0.929 . S
H380 C408 0.929 . S
H381 C409 0.930 . S
H382 C410 0.929 . S
H383 C412 0.930 . S
H384 C389 0.930 . S
H385 C393 0.930 . S
O386 Co355 2.037 . S
O386 C406 1.234 . S
C387 O361 1.269 . S
C387 O362 1.257 . S
C388 H363 0.930 . S
C388 C391 1.388 . S
C388 C393 1.418 . S
C389 H384 0.930 . S
C389 C392 1.404 . S
C389 C393 1.353 . S
N390 Co355 2.145 . S
N390 C391 1.397 . S
N390 C392 1.334 . S
C391 H372 0.929 . S
C391 C388 1.388 . S
C391 N390 1.397 . S
C392 H373 0.929 . S
C392 C389 1.404 . S
C392 N390 1.334 . S
C393 H385 0.930 . S
C393 C388 1.418 . S
C393 C389 1.353 . S
C394 H364 0.930 . S
C394 N395 1.330 . S
C394 C396 1.446 . S
N395 Co354 2.151 . S
N395 C394 1.330 . S
N395 C399 1.418 . S
C396 H375 0.929 . S
C396 C394 1.446 . S
C396 C397 1.332 . S
C397 H377 0.931 . S
C397 C396 1.332 . S
C397 C398 1.267 . S
C398 H366 0.929 . S
C398 C397 1.267 . S
C398 C399 1.251 . S
C399 H369 0.929 . S
C399 N395 1.418 . S
C399 C398 1.251 . S
C400 H367 0.930 . S
C400 C402 1.406 . S
C400 C405 1.261 . S
C401 H368 0.930 . S
C401 N403 1.325 . S
C401 C404 1.357 . S
C402 H370 0.928 . S
C402 C400 1.406 . S
C402 N403 1.261 . S
N403 Co354 2.214 . S
N403 C401 1.325 . S
N403 C402 1.261 . S
C404 H374 0.931 . S
C404 C401 1.357 . S
C404 C405 1.312 . S
C405 H376 0.930 . S
C405 C400 1.261 . S
C405 C404 1.312 . S
C406 O378 1.214 . S
C406 O386 1.234 . S
C407 H379 0.929 . S
C407 C410 1.391 . S
C407 C412 1.391 . S
C408 H380 0.929 . S
C408 C409 1.390 . S
C408 N411 1.391 . S
C409 H381 0.930 . S
C409 C408 1.390 . S
C409 C410 1.392 . S
C410 H382 0.929 . S
C410 C407 1.391 . S
C410 C409 1.392 . S
N411 Co355 2.257 . S
N411 C408 1.391 . S
N411 C412 1.388 . S
C412 H383 0.930 . S
C412 C407 1.391 . S
C412 N411 1.388 . S
Co413 O415 2.143 . S
Co413 O421 2.074 . S
Co413 O424 2.093 . S
Co413 O437 2.097 . S
Co413 N454 2.151 . S
Co413 N462 2.214 1_565 S
Co414 O415 2.160 . S
Co414 O420 2.058 . S
Co414 O430 2.057 . S
Co414 O445 2.037 . S
Co414 N449 2.145 . S
Co414 N470 2.257 . S
O415 Co413 2.143 . S
O415 Co414 2.160 . S
C416 O417 1.278 . S
C416 O424 1.224 . S
O417 C416 1.278 . S
C418 O419 1.245 . S
C418 O430 1.232 . S
O419 C418 1.245 . S
O420 Co414 2.058 . S
O420 C446 1.269 . S
O421 Co413 2.074 . S
O421 C446 1.257 . S
H422 C447 0.930 . S
H423 C453 0.930 . S
O424 Co413 2.093 . S
O424 C416 1.224 . S
H425 C457 0.929 . S
H426 C459 0.930 . S
H427 C460 0.930 . S
H428 C458 0.929 . S
H429 C461 0.928 . S
O430 Co414 2.057 . S
O430 C418 1.232 . S
H431 C450 0.929 . S
H432 C451 0.929 . S
H433 C463 0.931 . S
H434 C455 0.929 . S
H435 C464 0.930 . S
H436 C456 0.931 . S
O437 Co413 2.097 . S
O437 C465 1.214 . S
H438 C466 0.929 . S
H439 C467 0.929 . S
H440 C468 0.930 . S
H441 C469 0.929 . S
H442 C471 0.930 . S
H443 C448 0.930 . S
H444 C452 0.930 . S
O445 Co414 2.037 . S
O445 C465 1.234 . S
C446 O420 1.269 . S
C446 O421 1.257 . S
C447 H422 0.930 . S
C447 C450 1.388 1_655 S
C447 C452 1.418 . S
C448 H443 0.930 . S
C448 C451 1.404 . S
C448 C452 1.353 1_455 S
N449 Co414 2.145 . S
N449 C450 1.397 . S
N449 C451 1.334 . S
C450 H431 0.929 . S
C450 C447 1.388 1_455 S
C450 N449 1.397 . S
C451 H432 0.929 . S
C451 C448 1.404 . S
C451 N449 1.334 . S
C452 H444 0.930 . S
C452 C447 1.418 . S
C452 C448 1.353 1_655 S
C453 H423 0.930 . S
C453 N454 1.330 . S
C453 C455 1.446 . S
N454 Co413 2.151 . S
N454 C453 1.330 . S
N454 C458 1.418 . S
C455 H434 0.929 . S
C455 C453 1.446 . S
C455 C456 1.332 . S
C456 H436 0.931 . S
C456 C455 1.332 . S
C456 C457 1.267 . S
C457 H425 0.929 . S
C457 C456 1.267 . S
C457 C458 1.251 . S
C458 H428 0.929 . S
C458 N454 1.418 . S
C458 C457 1.251 . S
C459 H426 0.930 . S
C459 C461 1.406 . S
C459 C464 1.261 . S
C460 H427 0.930 . S
C460 N462 1.325 . S
C460 C463 1.357 . S
C461 H429 0.928 . S
C461 C459 1.406 . S
C461 N462 1.261 . S
N462 Co413 2.214 1_545 S
N462 C460 1.325 . S
N462 C461 1.261 . S
C463 H433 0.931 . S
C463 C460 1.357 . S
C463 C464 1.312 . S
C464 H435 0.930 . S
C464 C459 1.261 . S
C464 C463 1.312 . S
C465 O437 1.214 . S
C465 O445 1.234 . S
C466 H438 0.929 . S
C466 C469 1.391 . S
C466 C471 1.391 . S
C467 H439 0.929 . S
C467 C468 1.390 . S
C467 N470 1.391 . S
C468 H440 0.930 . S
C468 C467 1.390 . S
C468 C469 1.392 . S
C469 H441 0.929 . S
C469 C466 1.391 . S
C469 C468 1.392 . S
N470 Co414 2.257 . S
N470 C467 1.391 . S
N470 C471 1.388 . S
C471 H442 0.930 . S
C471 C466 1.391 . S
C471 N470 1.388 . S
H472 C480 0.929 . S
H473 C482 0.930 . S
H474 C484 0.930 . S
H475 C487 0.929 . S
H476 C490 0.930 . S
H477 C492 0.960 . S
H478 C492 0.960 . S
H479 C492 0.960 . S
C480 H472 0.929 . S
C480 C481 1.377 . S
C480 C482 1.384 . S
C481 C480 1.377 . S
C481 C487 1.390 . S
C482 H473 0.930 . S
C482 C480 1.384 . S
C482 C483 1.372 . S
C483 C482 1.372 . S
C483 C484 1.400 . S
C483 C488 1.490 . S
C484 H474 0.930 . S
C484 C483 1.400 . S
C484 C487 1.386 . S
H485 C501 0.930 . S
H486 C502 0.931 . S
C487 H475 0.929 . S
C487 C481 1.390 . S
C487 C484 1.386 . S
C488 C483 1.490 . S
C488 C490 1.395 . S
C488 C491 1.403 . S
H489 C495 0.930 . S
C490 H476 0.930 . S
C490 C488 1.395 . S
C490 C493 1.403 . S
C491 C488 1.403 . S
C491 C492 1.524 . S
C491 C495 1.400 . S
C492 H477 0.960 . S
C492 H478 0.960 . S
C492 H479 0.960 . S
C492 C491 1.524 . S
C493 C490 1.403 . S
C493 C494 1.392 . S
C493 C497 1.495 . S
C494 C493 1.392 . S
C494 C495 1.385 . S
C494 C496 1.478 . S
C495 H489 0.930 . S
C495 C491 1.400 . S
C495 C494 1.385 . S
C496 C494 1.478 . S
C496 C498 1.381 . S
C496 C502 1.383 . S
C497 C493 1.495 . S
C497 H503 0.959 . S
C497 H504 0.961 . S
C497 H505 0.960 . S
C498 C496 1.381 . S
C498 C499 1.394 . S
C498 H506 0.930 . S
C499 C498 1.394 . S
C499 C500 1.383 . S
C499 H507 0.929 . S
C500 C499 1.383 . S
C500 C501 1.377 . S
C501 H485 0.930 . S
C501 C500 1.377 . S
C501 C502 1.379 . S
C502 H486 0.931 . S
C502 C496 1.383 . S
C502 C501 1.379 . S
H503 C497 0.959 . S
H504 C497 0.961 . S
H505 C497 0.960 . S
H506 C498 0.930 . S
H507 C499 0.929 . S
H508 C516 0.929 . S
H509 C518 0.930 1_455 S
H510 C520 0.930 . S
H511 C523 0.929 1_565 S
H512 C526 0.930 . S
H513 C528 0.960 . S
H514 C528 0.960 1_545 S
H515 C528 0.960 . S
C516 H508 0.929 . S
C516 C517 1.377 . S
C516 C518 1.384 . S
C517 C516 1.377 . S
C517 C523 1.390 . S
C518 H509 0.930 1_655 S
C518 C516 1.384 . S
C518 C519 1.372 1_655 S
C519 C518 1.372 1_455 S
C519 C520 1.400 1_445 S
C519 C524 1.490 . S
C520 H510 0.930 . S
C520 C519 1.400 1_665 S
C520 C523 1.386 1_565 S
H521 C537 0.930 . S
H522 C538 0.931 . S
C523 H511 0.929 1_545 S
C523 C517 1.390 . S
C523 C520 1.386 1_545 S
C524 C519 1.490 . S
C524 C526 1.395 . S
C524 C527 1.403 1_545 S
H525 C531 0.930 . S
C526 H512 0.930 . S
C526 C524 1.395 . S
C526 C529 1.403 . S
C527 C524 1.403 1_565 S
C527 C528 1.524 . S
C527 C531 1.400 . S
C528 H513 0.960 . S
C528 H514 0.960 1_565 S
C528 H515 0.960 . S
C528 C527 1.524 . S
C529 C526 1.403 . S
C529 C530 1.392 1_545 S
C529 C533 1.495 . S
C530 C529 1.392 1_565 S
C530 C531 1.385 . S
C530 C532 1.478 . S
C531 H525 0.930 . S
C531 C527 1.400 . S
C531 C530 1.385 . S
C532 C530 1.478 . S
C532 C534 1.377 1_565 S
C532 C538 1.383 . S
C533 C529 1.495 . S
C533 H539 0.959 . S
C533 H540 0.961 1_545 S
C533 H541 0.960 . S
C534 C532 1.377 1_545 S
C534 C535 1.392 1_545 S
C534 H542 0.936 . S
C535 C534 1.392 1_565 S
C535 C536 1.383 . S
C535 H543 0.929 1_565 S
C536 C535 1.383 . S
C536 C537 1.377 . S
C537 H521 0.930 . S
C537 C536 1.377 . S
C537 C538 1.379 . S
C538 H522 0.931 . S
C538 C532 1.383 . S
C538 C537 1.379 . S
H539 C533 0.959 . S
H540 C533 0.961 1_565 S
H541 C533 0.960 . S
H542 C534 0.936 . S
H543 C535 0.929 1_545 S
H544 C552 0.929 . S
H545 C554 0.930 . S
H546 C556 0.930 . S
H547 C559 0.929 . S
H548 C562 0.930 . S
H549 C564 0.960 . S
H550 C564 0.960 . S
H551 C564 0.960 . S
C552 H544 0.929 . S
C552 C553 1.377 . S
C552 C554 1.384 . S
C553 C552 1.377 . S
C553 C559 1.390 . S
C554 H545 0.930 . S
C554 C552 1.384 . S
C554 C555 1.372 . S
C555 C554 1.372 . S
C555 C556 1.400 . S
C555 C560 1.490 . S
C556 H546 0.930 . S
C556 C555 1.400 . S
C556 C559 1.386 . S
H557 C573 0.930 . S
H558 C574 0.931 . S
C559 H547 0.929 . S
C559 C553 1.390 . S
C559 C556 1.386 . S
C560 C555 1.490 . S
C560 C562 1.395 . S
C560 C563 1.403 . S
H561 C567 0.930 . S
C562 H548 0.930 . S
C562 C560 1.395 . S
C562 C565 1.403 . S
C563 C560 1.403 . S
C563 C564 1.524 . S
C563 C567 1.400 . S
C564 H549 0.960 . S
C564 H550 0.960 . S
C564 H551 0.960 . S
C564 C563 1.524 . S
C565 C562 1.403 . S
C565 C566 1.392 . S
C565 C569 1.495 . S
C566 C565 1.392 . S
C566 C567 1.385 . S
C566 C568 1.478 . S
C567 H561 0.930 . S
C567 C563 1.400 . S
C567 C566 1.385 . S
C568 C566 1.478 . S
C568 C570 1.381 1_655 S
C568 C574 1.383 . S
C569 C565 1.495 . S
C569 H575 0.959 . S
C569 H576 0.961 . S
C569 H577 0.960 1_655 S
C570 C568 1.381 1_455 S
C570 C571 1.394 . S
C570 H578 0.930 . S
C571 C570 1.394 . S
C571 C572 1.383 . S
C571 H579 0.929 . S
C572 C571 1.383 . S
C572 C573 1.377 . S
C573 H557 0.930 . S
C573 C572 1.377 . S
C573 C574 1.379 1_455 S
C574 H558 0.931 . S
C574 C568 1.383 . S
C574 C573 1.379 1_655 S
H575 C569 0.959 . S
H576 C569 0.961 . S
H577 C569 0.960 1_455 S
H578 C570 0.930 . S
H579 C571 0.929 . S
H580 C588 0.929 . S
H581 C590 0.930 . S
H582 C592 0.930 1_565 S
H583 C595 0.929 . S
H584 C598 0.930 . S
H585 C600 0.960 . S
H586 C600 0.960 . S
H587 C600 0.960 . S
C588 H580 0.929 . S
C588 C589 1.377 . S
C588 C590 1.384 . S
C589 C588 1.377 . S
C589 C595 1.390 . S
C590 H581 0.930 . S
C590 C588 1.384 . S
C590 C591 1.372 . S
C591 C590 1.372 . S
C591 C592 1.400 . S
C591 C596 1.490 . S
C592 H582 0.930 1_545 S
C592 C591 1.400 . S
C592 C595 1.386 . S
H593 C609 0.930 . S
H594 C610 0.931 . S
C595 H583 0.929 . S
C595 C589 1.390 . S
C595 C592 1.386 . S
C596 C591 1.490 . S
C596 C598 1.395 . S
C596 C599 1.403 . S
H597 C603 0.930 . S
C598 H584 0.930 . S
C598 C596 1.395 . S
C598 C601 1.403 1_545 S
C599 C596 1.403 . S
C599 C600 1.524 . S
C599 C603 1.400 . S
C600 H585 0.960 . S
C600 H586 0.960 . S
C600 H587 0.960 . S
C600 C599 1.524 . S
C601 C598 1.403 1_565 S
C601 C602 1.392 . S
C601 C605 1.495 . S
C602 C601 1.392 . S
C602 C603 1.385 1_565 S
C602 C604 1.478 . S
C603 H597 0.930 . S
C603 C599 1.400 . S
C603 C602 1.385 1_545 S
C604 C602 1.478 . S
C604 C606 1.381 . S
C604 C610 1.383 . S
C605 C601 1.495 . S
C605 H611 0.959 . S
C605 H612 0.961 . S
C605 H613 0.960 . S
C606 C604 1.381 . S
C606 C607 1.394 . S
C606 H614 0.930 1_565 S
C607 C606 1.394 . S
C607 C608 1.383 . S
C607 H615 0.930 . S
C608 C607 1.383 . S
C608 C609 1.377 . S
C609 H593 0.930 . S
C609 C608 1.377 . S
C609 C610 1.379 . S
C610 H594 0.931 . S
C610 C604 1.383 . S
C610 C609 1.379 . S
H611 C605 0.959 . S
H612 C605 0.961 . S
H613 C605 0.960 . S
H614 C606 0.930 1_545 S
H615 C607 0.930 . S
H616 C624 0.929 . S
H617 C626 0.930 . S
H618 C628 0.930 . S
H619 C631 0.929 . S
H620 C634 0.930 . S
H621 C636 0.960 . S
H622 C636 0.960 . S
H623 C636 0.960 . S
C624 H616 0.929 . S
C624 C625 1.377 . S
C624 C626 1.384 . S
C625 C624 1.377 . S
C625 C631 1.390 . S
C626 H617 0.930 . S
C626 C624 1.384 . S
C626 C627 1.372 . S
C627 C626 1.372 . S
C627 C628 1.400 . S
C627 C632 1.490 . S
C628 H618 0.930 . S
C628 C627 1.400 . S
C628 C631 1.386 . S
H629 C645 0.930 . S
H630 C646 0.931 . S
C631 H619 0.929 . S
C631 C625 1.390 . S
C631 C628 1.386 . S
C632 C627 1.490 . S
C632 C634 1.395 . S
C632 C635 1.403 . S
H633 C639 0.930 . S
C634 H620 0.930 . S
C634 C632 1.395 . S
C634 C637 1.403 . S
C635 C632 1.403 . S
C635 C636 1.524 . S
C635 C639 1.400 . S
C636 H621 0.960 . S
C636 H622 0.960 . S
C636 H623 0.960 . S
C636 C635 1.524 . S
C637 C634 1.403 . S
C637 C638 1.392 . S
C637 C641 1.495 . S
C638 C637 1.392 . S
C638 C639 1.385 . S
C638 C640 1.478 . S
C639 H633 0.930 . S
C639 C635 1.400 . S
C639 C638 1.385 . S
C640 C638 1.478 . S
C640 C642 1.381 . S
C640 C646 1.383 . S
C641 C637 1.495 . S
C641 H647 0.959 . S
C641 H648 0.961 . S
C641 H649 0.960 . S
C642 C640 1.381 . S
C642 C643 1.394 . S
C642 H650 0.930 . S
C643 C642 1.394 . S
C643 C644 1.383 . S
C643 H651 0.929 . S
C644 C643 1.383 . S
C644 C645 1.377 . S
C645 H629 0.930 . S
C645 C644 1.377 . S
C645 C646 1.379 . S
C646 H630 0.931 . S
C646 C640 1.383 . S
C646 C645 1.379 . S
H647 C641 0.959 . S
H648 C641 0.961 . S
H649 C641 0.960 . S
H650 C642 0.930 . S
H651 C643 0.929 . S
H652 C660 0.929 . S
H653 C662 0.930 . S
H654 C664 0.930 . S
H655 C667 0.929 . S
H656 C670 0.930 . S
H657 C672 0.960 . S
H658 C672 0.960 . S
H659 C672 0.960 . S
C660 H652 0.929 . S
C660 C661 1.377 . S
C660 C662 1.384 . S
C661 C660 1.377 . S
C661 C667 1.390 . S
C662 H653 0.930 . S
C662 C660 1.384 . S
C662 C663 1.372 . S
C663 C662 1.372 . S
C663 C664 1.400 . S
C663 C668 1.490 . S
C664 H654 0.930 . S
C664 C663 1.400 . S
C664 C667 1.386 . S
H665 C681 0.930 . S
H666 C682 0.931 . S
C667 H655 0.929 . S
C667 C661 1.390 . S
C667 C664 1.386 . S
C668 C663 1.490 . S
C668 C670 1.395 1_545 S
C668 C671 1.403 . S
H669 C675 0.930 . S
C670 H656 0.930 . S
C670 C668 1.395 1_565 S
C670 C673 1.403 . S
C671 C668 1.403 . S
C671 C672 1.524 . S
C671 C675 1.400 . S
C672 H657 0.960 . S
C672 H658 0.960 . S
C672 H659 0.960 . S
C672 C671 1.524 . S
C673 C670 1.403 . S
C673 C674 1.392 . S
C673 C677 1.495 . S
C674 C673 1.392 . S
C674 C675 1.385 1_565 S
C674 C676 1.478 . S
C675 H669 0.930 . S
C675 C671 1.400 . S
C675 C674 1.385 1_545 S
C676 C674 1.478 . S
C676 C678 1.381 . S
C676 C682 1.383 1_655 S
C677 C673 1.495 . S
C677 H683 0.959 . S
C677 H684 0.961 . S
C677 H685 0.960 . S
C678 C676 1.381 . S
C678 C679 1.394 1_655 S
C678 H686 0.930 . S
C679 C678 1.394 1_455 S
C679 C680 1.383 . S
C679 H687 0.929 . S
C680 C679 1.383 . S
C680 C681 1.377 . S
C681 H665 0.930 . S
C681 C680 1.377 . S
C681 C682 1.379 . S
C682 H666 0.931 . S
C682 C676 1.383 1_455 S
C682 C681 1.379 . S
H683 C677 0.959 . S
H684 C677 0.961 . S
H685 C677 0.960 . S
H686 C678 0.930 . S
H687 C679 0.929 . S
H688 C696 0.929 . S
H689 C698 0.930 . S
H690 C700 0.930 . S
H691 C703 0.929 . S
H692 C706 0.930 . S
H693 C708 0.960 . S
H694 C708 0.960 . S
H695 C708 0.960 . S
C696 H688 0.929 . S
C696 C697 1.377 . S
C696 C698 1.384 . S
C697 C696 1.377 . S
C697 C703 1.390 . S
C698 H689 0.930 . S
C698 C696 1.384 . S
C698 C699 1.372 . S
C699 C698 1.372 . S
C699 C700 1.400 . S
C699 C704 1.490 . S
C700 H690 0.930 . S
C700 C699 1.400 . S
C700 C703 1.386 . S
H701 C717 0.930 . S
H702 C718 0.931 . S
C703 H691 0.929 . S
C703 C697 1.390 . S
C703 C700 1.386 . S
C704 C699 1.490 . S
C704 C706 1.395 . S
C704 C707 1.403 . S
H705 C711 0.930 . S
C706 H692 0.930 . S
C706 C704 1.395 . S
C706 C709 1.403 . S
C707 C704 1.403 . S
C707 C708 1.524 . S
C707 C711 1.400 . S
C708 H693 0.960 . S
C708 H694 0.960 . S
C708 H695 0.960 . S
C708 C707 1.524 . S
C709 C706 1.403 . S
C709 C710 1.392 . S
C709 C713 1.495 . S
C710 C709 1.392 . S
C710 C711 1.385 . S
C710 C712 1.478 . S
C711 H705 0.930 . S
C711 C707 1.400 . S
C711 C710 1.385 . S
C712 C710 1.478 . S
C712 C714 1.381 1_455 S
C712 C718 1.383 1_455 S
C713 C709 1.495 . S
C713 H719 0.959 . S
C713 H720 0.961 1_455 S
C713 H721 0.960 1_455 S
C714 C712 1.381 1_655 S
C714 C715 1.394 . S
C714 H722 0.930 1_655 S
C715 C714 1.394 . S
C715 C716 1.383 . S
C715 H723 0.929 . S
C716 C715 1.383 . S
C716 C717 1.377 . S
C717 H701 0.930 . S
C717 C716 1.377 . S
C717 C718 1.379 . S
C718 H702 0.931 . S
C718 C712 1.383 1_655 S
C718 C717 1.379 . S
H719 C713 0.959 . S
H720 C713 0.961 1_655 S
H721 C713 0.960 1_655 S
H722 C714 0.930 1_455 S
H723 C715 0.929 . S
H724 C732 0.929 . S
H725 C734 0.930 . S
H726 C736 0.930 . S
H727 C739 0.929 . S
H728 C742 0.930 . S
H729 C744 0.960 . S
H730 C744 0.960 . S
H731 C744 0.960 . S
C732 H724 0.929 . S
C732 C733 1.377 . S
C732 C734 1.384 . S
C733 C732 1.377 . S
C733 C739 1.390 . S
C734 H725 0.930 . S
C734 C732 1.384 . S
C734 C735 1.372 . S
C735 C734 1.372 . S
C735 C736 1.400 . S
C735 C740 1.490 . S
C736 H726 0.930 . S
C736 C735 1.400 . S
C736 C739 1.386 . S
H737 C753 0.930 . S
H738 C754 0.931 . S
C739 H727 0.929 . S
C739 C733 1.390 . S
C739 C736 1.386 . S
C740 C735 1.490 . S
C740 C742 1.395 1_565 S
C740 C743 1.403 . S
H741 C747 0.930 . S
C742 H728 0.930 . S
C742 C740 1.395 1_545 S
C742 C745 1.403 . S
C743 C740 1.403 . S
C743 C744 1.524 . S
C743 C747 1.400 . S
C744 H729 0.960 . S
C744 H730 0.960 . S
C744 H731 0.960 . S
C744 C743 1.524 . S
C745 C742 1.403 . S
C745 C746 1.392 . S
C745 C749 1.495 . S
C746 C745 1.392 . S
C746 C747 1.385 1_545 S
C746 C748 1.478 . S
C747 H741 0.930 . S
C747 C743 1.400 . S
C747 C746 1.385 1_565 S
C748 C746 1.478 . S
C748 C750 1.381 . S
C748 C754 1.383 . S
C749 C745 1.495 . S
C749 H755 0.959 . S
C749 H756 0.961 . S
C749 H757 0.960 . S
C750 C748 1.381 . S
C750 C751 1.394 . S
C750 H758 0.930 . S
C751 C750 1.394 . S
C751 C752 1.383 . S
C751 H759 0.929 . S
C752 C751 1.383 . S
C752 C753 1.377 . S
C753 H737 0.930 . S
C753 C752 1.377 . S
C753 C754 1.379 . S
C754 H738 0.931 . S
C754 C748 1.383 . S
C754 C753 1.379 . S
H755 C749 0.959 . S
H756 C749 0.961 . S
H757 C749 0.960 . S
H758 C750 0.930 . S
H759 C751 0.929 . S
H760 C768 0.929 . S
H761 C770 0.930 . S
H762 C772 0.930 . S
H763 C775 0.929 . S
H764 C778 0.930 . S
H765 C780 0.961 1_655 S
H766 C780 0.960 . S
H767 C780 0.960 . S
C768 H760 0.929 . S
C768 C769 1.377 . S
C768 C770 1.384 . S
C769 C768 1.377 . S
C769 C775 1.390 . S
C770 H761 0.930 . S
C770 C768 1.384 . S
C770 C771 1.372 . S
C771 C770 1.372 . S
C771 C772 1.400 . S
C771 C776 1.490 . S
C772 H762 0.930 . S
C772 C771 1.400 . S
C772 C775 1.386 . S
H773 C789 0.930 . S
H774 C790 0.931 . S
C775 H763 0.929 . S
C775 C769 1.390 . S
C775 C772 1.386 . S
C776 C771 1.490 . S
C776 C778 1.395 . S
C776 C779 1.403 . S
H777 C783 0.930 . S
C778 H764 0.930 . S
C778 C776 1.395 . S
C778 C781 1.403 1_455 S
C779 C776 1.403 . S
C779 C780 1.524 . S
C779 C783 1.400 1_455 S
C780 H765 0.961 1_455 S
C780 H766 0.960 . S
C780 H767 0.960 . S
C780 C779 1.524 . S
C781 C778 1.403 1_655 S
C781 C782 1.392 . S
C781 C785 1.495 . S
C782 C781 1.392 . S
C782 C783 1.385 . S
C782 C784 1.478 . S
C783 H777 0.930 . S
C783 C779 1.400 1_655 S
C783 C782 1.385 . S
C784 C782 1.478 . S
C784 C786 1.381 . S
C784 C790 1.383 . S
C785 C781 1.495 . S
C785 H791 0.959 1_655 S
C785 H792 0.961 . S
C785 H793 0.960 1_655 S
C786 C784 1.381 . S
C786 C787 1.394 . S
C786 H794 0.930 1_655 S
C787 C786 1.394 . S
C787 C788 1.383 . S
C787 H795 0.929 . S
C788 C787 1.383 . S
C788 C789 1.377 . S
C789 H773 0.930 . S
C789 C788 1.377 . S
C789 C790 1.379 . S
C790 H774 0.931 . S
C790 C784 1.383 . S
C790 C789 1.379 . S
H791 C785 0.959 1_455 S
H792 C785 0.961 . S
H793 C785 0.960 1_455 S
H794 C786 0.930 1_455 S
H795 C787 0.929 . S
H796 C804 0.929 . S
H797 C806 0.930 . S
H798 C808 0.930 1_545 S
H799 C811 0.929 . S
H800 C814 0.930 . S
H801 C816 0.960 . S
H802 C816 0.960 . S
H803 C816 0.960 . S
C804 H796 0.929 . S
C804 C805 1.377 . S
C804 C806 1.384 . S
C805 C804 1.377 . S
C805 C811 1.390 . S
C806 H797 0.930 . S
C806 C804 1.384 . S
C806 C807 1.372 . S
C807 C806 1.372 . S
C807 C808 1.400 . S
C807 C812 1.490 . S
C808 H798 0.930 1_565 S
C808 C807 1.400 . S
C808 C811 1.386 . S
H809 C825 0.930 . S
H810 C826 0.931 . S
C811 H799 0.929 . S
C811 C805 1.390 . S
C811 C808 1.386 . S
C812 C807 1.490 . S
C812 C814 1.395 . S
C812 C815 1.403 . S
H813 C819 0.930 . S
C814 H800 0.930 . S
C814 C812 1.395 . S
C814 C817 1.403 1_565 S
C815 C812 1.403 . S
C815 C816 1.524 . S
C815 C819 1.400 1_565 S
C816 H801 0.960 . S
C816 H802 0.960 . S
C816 H803 0.960 . S
C816 C815 1.524 . S
C817 C814 1.403 1_545 S
C817 C818 1.392 . S
C817 C821 1.495 . S
C818 C817 1.392 . S
C818 C819 1.385 . S
C818 C820 1.478 . S
C819 H813 0.930 . S
C819 C815 1.400 1_545 S
C819 C818 1.385 . S
C820 C818 1.478 . S
C820 C822 1.381 . S
C820 C826 1.383 . S
C821 C817 1.495 . S
C821 H827 0.959 . S
C821 H828 0.961 . S
C821 H829 0.960 . S
C822 C820 1.381 . S
C822 C823 1.394 . S
C822 H830 0.930 1_545 S
C823 C822 1.394 . S
C823 C824 1.383 . S
C823 H831 0.929 . S
C824 C823 1.383 . S
C824 C825 1.377 . S
C825 H809 0.930 . S
C825 C824 1.377 . S
C825 C826 1.379 . S
C826 H810 0.931 . S
C826 C820 1.383 . S
C826 C825 1.379 . S
H827 C821 0.959 . S
H828 C821 0.961 . S
H829 C821 0.960 . S
H830 C822 0.930 1_565 S
H831 C823 0.929 . S
H832 C840 0.929 . S
H833 C842 0.930 . S
H834 C844 0.930 . S
H835 C847 0.929 . S
H836 C850 0.930 . S
H837 C852 0.960 . S
H838 C852 0.960 . S
H839 C852 0.960 . S
C840 H832 0.929 . S
C840 C841 1.377 . S
C840 C842 1.384 . S
C841 C840 1.377 . S
C841 C847 1.390 . S
C842 H833 0.930 . S
C842 C840 1.384 . S
C842 C843 1.372 . S
C843 C842 1.372 . S
C843 C844 1.400 . S
C843 C848 1.490 . S
C844 H834 0.930 . S
C844 C843 1.400 . S
C844 C847 1.386 . S
H845 C861 0.930 . S
H846 C862 0.931 . S
C847 H835 0.929 . S
C847 C841 1.390 . S
C847 C844 1.386 . S
C848 C843 1.490 . S
C848 C850 1.395 . S
C848 C851 1.403 . S
H849 C855 0.930 . S
C850 H836 0.930 . S
C850 C848 1.395 . S
C850 C853 1.403 1_554 S
C851 C848 1.403 . S
C851 C852 1.524 . S
C851 C855 1.400 1_554 S
C852 H837 0.960 . S
C852 H838 0.960 . S
C852 H839 0.960 . S
C852 C851 1.524 . S
C853 C850 1.403 1_556 S
C853 C854 1.392 . S
C853 C857 1.495 . S
C854 C853 1.392 . S
C854 C855 1.385 . S
C854 C856 1.478 . S
C855 H849 0.930 . S
C855 C851 1.400 1_556 S
C855 C854 1.385 . S
C856 C854 1.478 . S
C856 C858 1.381 . S
C856 C862 1.383 . S
C857 C853 1.495 . S
C857 H863 0.959 . S
C857 H864 0.961 . S
C857 H865 0.960 . S
C858 C856 1.381 . S
C858 C859 1.394 . S
C858 H866 0.930 . S
C859 C858 1.394 . S
C859 C860 1.383 . S
C859 H867 0.929 . S
C860 C859 1.383 . S
C860 C861 1.377 . S
C861 H845 0.930 . S
C861 C860 1.377 . S
C861 C862 1.379 . S
C862 H846 0.931 . S
C862 C856 1.383 . S
C862 C861 1.379 . S
H863 C857 0.959 . S
H864 C857 0.961 . S
H865 C857 0.960 . S
H866 C858 0.930 . S
H867 C859 0.929 . S
H868 C876 0.929 . S
H869 C878 0.930 . S
H870 C880 0.930 1_545 S
H871 C883 0.929 . S
H872 C886 0.930 . S
H873 C888 0.960 . S
H874 C888 0.960 1_565 S
H875 C888 0.960 . S
C876 H868 0.929 . S
C876 C877 1.377 . S
C876 C878 1.384 . S
C877 C876 1.377 . S
C877 C883 1.390 . S
C878 H869 0.930 . S
C878 C876 1.384 . S
C878 C879 1.372 . S
C879 C878 1.372 . S
C879 C880 1.400 . S
C879 C884 1.490 . S
C880 H870 0.930 1_565 S
C880 C879 1.400 . S
C880 C883 1.386 . S
H881 C897 0.930 . S
H882 C898 0.931 . S
C883 H871 0.929 . S
C883 C877 1.390 . S
C883 C880 1.386 . S
C884 C879 1.490 . S
C884 C886 1.395 1_556 S
C884 C887 1.402 1_455 S
H885 C891 0.934 . S
C886 H872 0.930 . S
C886 C884 1.395 1_554 S
C886 C889 1.403 . S
C887 C884 1.402 1_655 S
C887 C888 1.524 1_565 S
C887 C891 1.422 1_565 S
C888 H873 0.960 . S
C888 H874 0.960 1_545 S
C888 H875 0.960 . S
C888 C887 1.524 1_545 S
C889 C886 1.403 . S
C889 C890 1.392 1_465 S
C889 C893 1.495 . S
C890 C889 1.392 1_645 S
C890 C891 1.361 1_554 S
C890 C892 1.478 . S
C891 H885 0.934 . S
C891 C887 1.422 1_545 S
C891 C890 1.361 1_556 S
C892 C890 1.478 . S
C892 C894 1.381 . S
C892 C898 1.383 . S
C893 C889 1.495 . S
C893 H899 0.959 . S
C893 H900 0.961 1_565 S
C893 H901 0.960 . S
C894 C892 1.381 . S
C894 C895 1.394 . S
C894 H902 0.930 1_545 S
C895 C894 1.394 . S
C895 C896 1.383 . S
C895 H903 0.929 . S
C896 C895 1.383 . S
C896 C897 1.377 . S
C897 H881 0.930 . S
C897 C896 1.377 . S
C897 C898 1.379 . S
C898 H882 0.931 . S
C898 C892 1.383 . S
C898 C897 1.379 . S
H899 C893 0.959 . S
H900 C893 0.961 1_545 S
H901 C893 0.960 . S
H902 C894 0.930 1_565 S
H903 C895 0.929 . S
H904 C912 0.929 . S
H905 C914 0.930 . S
H906 C916 0.930 . S
H907 C919 0.929 . S
H908 C922 0.930 . S
H909 C924 0.960 . S
H910 C924 0.960 . S
H911 C924 0.960 . S
C912 H904 0.929 . S
C912 C913 1.377 . S
C912 C914 1.384 . S
C913 C912 1.377 . S
C913 C919 1.390 . S
C914 H905 0.930 . S
C914 C912 1.384 . S
C914 C915 1.372 . S
C915 C914 1.372 . S
C915 C916 1.400 . S
C915 C920 1.490 . S
C916 H906 0.930 . S
C916 C915 1.400 . S
C916 C919 1.386 . S
H917 C933 0.930 . S
H918 C934 0.931 . S
C919 H907 0.929 . S
C919 C913 1.390 . S
C919 C916 1.386 . S
C920 C915 1.490 . S
C920 C922 1.395 . S
C920 C923 1.403 . S
H921 C927 0.930 . S
C922 H908 0.930 . S
C922 C920 1.395 . S
C922 C925 1.403 . S
C923 C920 1.403 . S
C923 C924 1.524 . S
C923 C927 1.400 . S
C924 H909 0.960 . S
C924 H910 0.960 . S
C924 H911 0.960 . S
C924 C923 1.524 . S
C925 C922 1.403 . S
C925 C926 1.392 . S
C925 C929 1.495 . S
C926 C925 1.392 . S
C926 C927 1.385 . S
C926 C928 1.478 . S
C927 H921 0.930 . S
C927 C923 1.400 . S
C927 C926 1.385 . S
C928 C926 1.478 . S
C928 C930 1.381 . S
C928 C934 1.383 . S
C929 C925 1.495 . S
C929 H935 0.959 . S
C929 H936 0.961 . S
C929 H937 0.960 . S
C930 C928 1.381 . S
C930 C931 1.394 . S
C930 H938 0.930 . S
C931 C930 1.394 . S
C931 C932 1.383 . S
C931 H939 0.929 . S
C932 C931 1.383 . S
C932 C933 1.377 . S
C933 H917 0.930 . S
C933 C932 1.377 . S
C933 C934 1.379 . S
C934 H918 0.931 . S
C934 C928 1.383 . S
C934 C933 1.379 . S
H935 C929 0.959 . S
H936 C929 0.961 . S
H937 C929 0.960 . S
H938 C930 0.930 . S
H939 C931 0.929 . S
H940 C948 0.929 . S
H941 C950 0.930 . S
H942 C952 0.930 . S
H943 C955 0.929 . S
H944 C958 0.930 . S
H945 C960 0.960 . S
H946 C960 0.960 . S
H947 C960 0.960 . S
C948 H940 0.929 . S
C948 C949 1.377 . S
C948 C950 1.384 . S
C949 C948 1.377 . S
C949 C955 1.390 . S
C950 H941 0.930 . S
C950 C948 1.384 . S
C950 C951 1.372 . S
C951 C950 1.372 . S
C951 C952 1.400 . S
C951 C956 1.490 . S
C952 H942 0.930 . S
C952 C951 1.400 . S
C952 C955 1.386 . S
H953 C969 0.930 . S
H954 C970 0.931 . S
C955 H943 0.929 . S
C955 C949 1.390 . S
C955 C952 1.386 . S
C956 C951 1.490 . S
C956 C958 1.395 . S
C956 C959 1.403 . S
H957 C963 0.930 . S
C958 H944 0.930 . S
C958 C956 1.395 . S
C958 C961 1.403 . S
C959 C956 1.403 . S
C959 C960 1.524 . S
C959 C963 1.400 . S
C960 H945 0.960 . S
C960 H946 0.960 . S
C960 H947 0.960 . S
C960 C959 1.524 . S
C961 C958 1.403 . S
C961 C962 1.392 . S
C961 C965 1.495 . S
C962 C961 1.392 . S
C962 C963 1.385 . S
C962 C964 1.478 . S
C963 H957 0.930 . S
C963 C959 1.400 . S
C963 C962 1.385 . S
C964 C962 1.478 . S
C964 C966 1.381 . S
C964 C970 1.383 . S
C965 C961 1.495 . S
C965 H971 0.959 . S
C965 H972 0.961 . S
C965 H973 0.960 . S
C966 C964 1.381 . S
C966 C967 1.394 . S
C966 H974 0.930 . S
C967 C966 1.394 . S
C967 C968 1.383 . S
C967 H975 0.929 . S
C968 C967 1.383 . S
C968 C969 1.377 . S
C969 H953 0.930 . S
C969 C968 1.377 . S
C969 C970 1.379 . S
C970 H954 0.931 . S
C970 C964 1.383 . S
C970 C969 1.379 . S
H971 C965 0.959 . S
H972 C965 0.961 . S
H973 C965 0.960 . S
H974 C966 0.930 . S
H975 C967 0.929 . S
H976 C984 0.929 . S
H977 C986 0.930 . S
H978 C988 0.930 . S
H979 C991 0.929 . S
H980 C994 0.930 . S
H981 C996 0.960 . S
H982 C996 0.960 . S
H983 C996 0.960 . S
C984 H976 0.929 . S
C984 C985 1.377 . S
C984 C986 1.384 . S
C985 C984 1.377 . S
C985 C991 1.390 . S
C986 H977 0.930 . S
C986 C984 1.384 . S
C986 C987 1.372 . S
C987 C986 1.372 . S
C987 C988 1.400 . S
C987 C992 1.490 . S
C988 H978 0.930 . S
C988 C987 1.400 . S
C988 C991 1.386 . S
H989 C1005 0.930 . S
H990 C1006 0.931 . S
C991 H979 0.929 . S
C991 C985 1.390 . S
C991 C988 1.386 . S
C992 C987 1.490 . S
C992 C994 1.395 . S
C992 C995 1.403 . S
H993 C999 0.930 . S
C994 H980 0.930 . S
C994 C992 1.395 . S
C994 C997 1.403 . S
C995 C992 1.403 . S
C995 C996 1.524 . S
C995 C999 1.400 . S
C996 H981 0.960 . S
C996 H982 0.960 . S
C996 H983 0.960 . S
C996 C995 1.524 . S
C997 C994 1.403 . S
C997 C998 1.392 . S
C997 C1001 1.495 . S
C998 C997 1.392 . S
C998 C999 1.385 . S
C998 C1000 1.478 . S
C999 H993 0.930 . S
C999 C995 1.400 . S
C999 C998 1.385 . S
C1000 C998 1.478 . S
C1000 C1002 1.381 . S
C1000 C1006 1.383 . S
C1001 C997 1.495 . S
C1001 H1007 0.959 . S
C1001 H1008 0.961 . S
C1001 H1009 0.960 . S
C1002 C1000 1.381 . S
C1002 C1003 1.394 . S
C1002 H1010 0.930 . S
C1003 C1002 1.394 . S
C1003 C1004 1.383 . S
C1003 H1011 0.929 . S
C1004 C1003 1.383 . S
C1004 C1005 1.377 . S
C1005 H989 0.930 . S
C1005 C1004 1.377 . S
C1005 C1006 1.379 . S
C1006 H990 0.931 . S
C1006 C1000 1.383 . S
C1006 C1005 1.379 . S
H1007 C1001 0.959 . S
H1008 C1001 0.961 . S
H1009 C1001 0.960 . S
H1010 C1002 0.930 . S
H1011 C1003 0.929 . S
H1012 C1020 0.929 . S
H1013 C1022 0.930 . S
H1014 C1024 0.930 . S
H1015 C1027 0.929 . S
H1016 C1030 0.930 . S
H1017 C1032 0.960 . S
H1018 C1032 0.960 . S
H1019 C1032 0.960 . S
C1020 H1012 0.929 . S
C1020 C1021 1.377 . S
C1020 C1022 1.384 . S
C1021 C1020 1.377 . S
C1021 C1027 1.390 . S
C1022 H1013 0.930 . S
C1022 C1020 1.384 . S
C1022 C1023 1.372 . S
C1023 C1022 1.372 . S
C1023 C1024 1.400 . S
C1023 C1028 1.490 . S
C1024 H1014 0.930 . S
C1024 C1023 1.400 . S
C1024 C1027 1.386 . S
H1025 C1041 0.930 . S
H1026 C1042 0.931 . S
C1027 H1015 0.929 . S
C1027 C1021 1.390 . S
C1027 C1024 1.386 . S
C1028 C1023 1.490 . S
C1028 C1030 1.395 . S
C1028 C1031 1.403 . S
H1029 C1035 0.930 . S
C1030 H1016 0.930 . S
C1030 C1028 1.395 . S
C1030 C1033 1.403 . S
C1031 C1028 1.403 . S
C1031 C1032 1.524 . S
C1031 C1035 1.400 . S
C1032 H1017 0.960 . S
C1032 H1018 0.960 . S
C1032 H1019 0.960 . S
C1032 C1031 1.524 . S
C1033 C1030 1.403 . S
C1033 C1034 1.392 . S
C1033 C1037 1.495 . S
C1034 C1033 1.392 . S
C1034 C1035 1.385 . S
C1034 C1036 1.478 . S
C1035 H1029 0.930 . S
C1035 C1031 1.400 . S
C1035 C1034 1.385 . S
C1036 C1034 1.478 . S
C1036 C1038 1.381 . S
C1036 C1042 1.383 . S
C1037 C1033 1.495 . S
C1037 H1043 0.959 . S
C1037 H1044 0.961 . S
C1037 H1045 0.960 . S
C1038 C1036 1.381 . S
C1038 C1039 1.394 . S
C1038 H1046 0.930 . S
C1039 C1038 1.394 . S
C1039 C1040 1.383 . S
C1039 H1047 0.929 . S
C1040 C1039 1.383 . S
C1040 C1041 1.377 . S
C1041 H1025 0.930 . S
C1041 C1040 1.377 . S
C1041 C1042 1.379 . S
C1042 H1026 0.931 . S
C1042 C1036 1.383 . S
C1042 C1041 1.379 . S
H1043 C1037 0.959 . S
H1044 C1037 0.961 . S
H1045 C1037 0.960 . S
H1046 C1038 0.930 . S
H1047 C1039 0.929 . S
C481 C3 1.571 . S
C500 C170 1.580 . S
C517 C229 1.572 . S
C536 C62 1.578 . S
C553 C121 1.573 . S
C572 C52 1.559 . S
C589 C180 1.573 . S
C608 C111 1.560 . S
C625 C406 1.574 . S
C644 C239 1.570 . S
C661 C298 1.572 . S
C680 C465 1.566 . S
C697 C357 1.570 . S
C716 C288 1.560 . S
C733 C416 1.572 . S
C752 C347 1.563 . S
C769 C33 1.593 . S
C788 C269 1.580 . S
C805 C92 1.596 . S
C824 C328 1.598 . S
C841 C151 1.592 . S
C860 C387 1.591 . S
C877 C446 1.594 . S
C896 C210 1.582 . S
C913 C5 1.654 . S
C932 C64 1.657 . S
C949 C182 1.655 . S
C968 C123 1.649 . S
C985 C300 1.653 . S
C1004 C241 1.646 . S
C1021 C359 1.656 . S
C1040 C418 1.652 . S
