# Generated by pormake.
# Topology hbo, (4)-cn, num edge types: 1
# Building blocks:
#     Node 0, Type 0, BuildingBlock: QUQFOY_clean_sbu_3, # of connection points: 4
#     Node 1, Type 0, BuildingBlock: QUQFOY_clean_sbu_3, # of connection points: 4
#     Node 2, Type 0, BuildingBlock: QUQFOY_clean_sbu_3, # of connection points: 4
#     Node 3, Type 0, BuildingBlock: QUQFOY_clean_sbu_3, # of connection points: 4
#     Node 4, Type 0, BuildingBlock: QUQFOY_clean_sbu_3, # of connection points: 4
#     Node 5, Type 0, BuildingBlock: QUQFOY_clean_sbu_3, # of connection points: 4
#     Node 6, Type 0, BuildingBlock: QUQFOY_clean_sbu_3, # of connection points: 4
#     Node 7, Type 0, BuildingBlock: QUQFOY_clean_sbu_3, # of connection points: 4
#     Node 8, Type 0, BuildingBlock: QUQFOY_clean_sbu_3, # of connection points: 4
#     Node 9, Type 0, BuildingBlock: QUQFOY_clean_sbu_3, # of connection points: 4
#     Node 10, Type 0, BuildingBlock: QUQFOY_clean_sbu_3, # of connection points: 4
#     Node 11, Type 0, BuildingBlock: QUQFOY_clean_sbu_3, # of connection points: 4
#     Node 12, Type 0, BuildingBlock: QUQFOY_clean_sbu_3, # of connection points: 4
#     Node 13, Type 0, BuildingBlock: QUQFOY_clean_sbu_3, # of connection points: 4
#     Node 14, Type 0, BuildingBlock: QUQFOY_clean_sbu_3, # of connection points: 4
#     Node 15, Type 0, BuildingBlock: QUQFOY_clean_sbu_3, # of connection points: 4
#     Node 16, Type 0, BuildingBlock: QUQFOY_clean_sbu_3, # of connection points: 4
#     Node 17, Type 0, BuildingBlock: QUQFOY_clean_sbu_3, # of connection points: 4
#     Node 18, Type 0, BuildingBlock: QUQFOY_clean_sbu_3, # of connection points: 4
#     Node 19, Type 0, BuildingBlock: QUQFOY_clean_sbu_3, # of connection points: 4
#     Node 20, Type 0, BuildingBlock: QUQFOY_clean_sbu_3, # of connection points: 4
#     Node 21, Type 0, BuildingBlock: QUQFOY_clean_sbu_3, # of connection points: 4
#     Node 22, Type 0, BuildingBlock: QUQFOY_clean_sbu_3, # of connection points: 4
#     Node 23, Type 0, BuildingBlock: QUQFOY_clean_sbu_3, # of connection points: 4
#     Edge 24, Type (0, 0), BuildingBlock: UVAHIK_clean_linker_0, # of connection points: 2
#     Edge 25, Type (0, 0), BuildingBlock: UVAHIK_clean_linker_0, # of connection points: 2
#     Edge 26, Type (0, 0), BuildingBlock: UVAHIK_clean_linker_0, # of connection points: 2
#     Edge 27, Type (0, 0), BuildingBlock: UVAHIK_clean_linker_0, # of connection points: 2
#     Edge 28, Type (0, 0), BuildingBlock: UVAHIK_clean_linker_0, # of connection points: 2
#     Edge 29, Type (0, 0), BuildingBlock: UVAHIK_clean_linker_0, # of connection points: 2
#     Edge 30, Type (0, 0), BuildingBlock: UVAHIK_clean_linker_0, # of connection points: 2
#     Edge 31, Type (0, 0), BuildingBlock: UVAHIK_clean_linker_0, # of connection points: 2
#     Edge 32, Type (0, 0), BuildingBlock: UVAHIK_clean_linker_0, # of connection points: 2
#     Edge 33, Type (0, 0), BuildingBlock: UVAHIK_clean_linker_0, # of connection points: 2
#     Edge 34, Type (0, 0), BuildingBlock: UVAHIK_clean_linker_0, # of connection points: 2
#     Edge 35, Type (0, 0), BuildingBlock: UVAHIK_clean_linker_0, # of connection points: 2
#     Edge 36, Type (0, 0), BuildingBlock: UVAHIK_clean_linker_0, # of connection points: 2
#     Edge 37, Type (0, 0), BuildingBlock: UVAHIK_clean_linker_0, # of connection points: 2
#     Edge 38, Type (0, 0), BuildingBlock: UVAHIK_clean_linker_0, # of connection points: 2
#     Edge 39, Type (0, 0), BuildingBlock: UVAHIK_clean_linker_0, # of connection points: 2
#     Edge 40, Type (0, 0), BuildingBlock: UVAHIK_clean_linker_0, # of connection points: 2
#     Edge 41, Type (0, 0), BuildingBlock: UVAHIK_clean_linker_0, # of connection points: 2
#     Edge 42, Type (0, 0), BuildingBlock: UVAHIK_clean_linker_0, # of connection points: 2
#     Edge 43, Type (0, 0), BuildingBlock: UVAHIK_clean_linker_0, # of connection points: 2
#     Edge 44, Type (0, 0), BuildingBlock: UVAHIK_clean_linker_0, # of connection points: 2
#     Edge 45, Type (0, 0), BuildingBlock: UVAHIK_clean_linker_0, # of connection points: 2
#     Edge 46, Type (0, 0), BuildingBlock: UVAHIK_clean_linker_0, # of connection points: 2
#     Edge 47, Type (0, 0), BuildingBlock: UVAHIK_clean_linker_0, # of connection points: 2
#     Edge 48, Type (0, 0), BuildingBlock: UVAHIK_clean_linker_0, # of connection points: 2
#     Edge 49, Type (0, 0), BuildingBlock: UVAHIK_clean_linker_0, # of connection points: 2
#     Edge 50, Type (0, 0), BuildingBlock: UVAHIK_clean_linker_0, # of connection points: 2
#     Edge 51, Type (0, 0), BuildingBlock: UVAHIK_clean_linker_0, # of connection points: 2
#     Edge 52, Type (0, 0), BuildingBlock: UVAHIK_clean_linker_0, # of connection points: 2
#     Edge 53, Type (0, 0), BuildingBlock: UVAHIK_clean_linker_0, # of connection points: 2
#     Edge 54, Type (0, 0), BuildingBlock: UVAHIK_clean_linker_0, # of connection points: 2
#     Edge 55, Type (0, 0), BuildingBlock: UVAHIK_clean_linker_0, # of connection points: 2
#     Edge 56, Type (0, 0), BuildingBlock: UVAHIK_clean_linker_0, # of connection points: 2
#     Edge 57, Type (0, 0), BuildingBlock: UVAHIK_clean_linker_0, # of connection points: 2
#     Edge 58, Type (0, 0), BuildingBlock: UVAHIK_clean_linker_0, # of connection points: 2
#     Edge 59, Type (0, 0), BuildingBlock: UVAHIK_clean_linker_0, # of connection points: 2
#     Edge 60, Type (0, 0), BuildingBlock: UVAHIK_clean_linker_0, # of connection points: 2
#     Edge 61, Type (0, 0), BuildingBlock: UVAHIK_clean_linker_0, # of connection points: 2
#     Edge 62, Type (0, 0), BuildingBlock: UVAHIK_clean_linker_0, # of connection points: 2
#     Edge 63, Type (0, 0), BuildingBlock: UVAHIK_clean_linker_0, # of connection points: 2
#     Edge 64, Type (0, 0), BuildingBlock: UVAHIK_clean_linker_0, # of connection points: 2
#     Edge 65, Type (0, 0), BuildingBlock: UVAHIK_clean_linker_0, # of connection points: 2
#     Edge 66, Type (0, 0), BuildingBlock: UVAHIK_clean_linker_0, # of connection points: 2
#     Edge 67, Type (0, 0), BuildingBlock: UVAHIK_clean_linker_0, # of connection points: 2
#     Edge 68, Type (0, 0), BuildingBlock: UVAHIK_clean_linker_0, # of connection points: 2
#     Edge 69, Type (0, 0), BuildingBlock: UVAHIK_clean_linker_0, # of connection points: 2
#     Edge 70, Type (0, 0), BuildingBlock: UVAHIK_clean_linker_0, # of connection points: 2
#     Edge 71, Type (0, 0), BuildingBlock: UVAHIK_clean_linker_0, # of connection points: 2
# Relax obj value: 0.233
# Max RMSD: 0.255
# Mean RMSD: 0.244
data_MOF--net-hbo--node1-QUQFOY_clean_sbu_3--edge1-UVAHIK_clean_linker_0
_symmetry_space_group_name_H-M    P1
_symmetry_Int_Tables_number       1
_symmetry_cell_setting            triclinic
loop_
_symmetry_equiv_pos_as_xyz
'x, y, z'
_cell_length_a     72.037051
_cell_length_b     73.556293
_cell_length_c     73.3548
_cell_angle_alpha  90.40082
_cell_angle_beta   90.244848
_cell_angle_gamma 90.66309
loop_
_atom_site_label
_atom_site_type_symbol
_atom_site_fract_x
_atom_site_fract_y
_atom_site_fract_z
_atom_type_partial_charge
C0 C 0.1168 0.30575 0.17568 0.0
O1 O 0.10244 0.297 0.17037 0.0
Cd2 Cd 0.07458 0.29573 0.18841 0.0
O3 O 0.11617 0.31572 0.18993 0.0
Cd4 Cd 0.09378 0.32649 0.21315 0.0
C5 C 0.09475 0.28394 0.2297 0.0
O6 O 0.06421 0.32543 0.19616 0.0
O7 O 0.06256 0.32662 0.22553 0.0
O8 O 0.10383 0.3568 0.2048 0.0
C9 C 0.05415 0.3265 0.2103 0.0
O10 O 0.08433 0.28022 0.21605 0.0
C11 C 0.1071 0.36258 0.22085 0.0
O12 O 0.10168 0.29987 0.2319 0.0
O13 O 0.10452 0.35136 0.23375 0.0
C14 C 0.11964 0.61464 0.74625 0.0
O15 O 0.10595 0.62406 0.75141 0.0
Cd16 Cd 0.07835 0.62614 0.7329 0.0
O17 O 0.1183 0.60467 0.73204 0.0
Cd18 Cd 0.09549 0.59491 0.70845 0.0
C19 C 0.09971 0.63768 0.69236 0.0
O20 O 0.06612 0.5966 0.7254 0.0
O21 O 0.06425 0.59545 0.69601 0.0
O22 O 0.10442 0.56426 0.7163 0.0
C23 C 0.05595 0.59551 0.71122 0.0
O24 O 0.0895 0.64193 0.70584 0.0
C25 C 0.10728 0.5587 0.70015 0.0
O26 O 0.1051 0.62135 0.69011 0.0
O27 O 0.10494 0.57016 0.68745 0.0
C28 C 0.79778 0.61701 0.1752 0.0
O29 O 0.81144 0.62661 0.16986 0.0
Cd30 Cd 0.83973 0.62842 0.18749 0.0
O31 O 0.79944 0.60691 0.18911 0.0
Cd32 Cd 0.82325 0.59743 0.21139 0.0
C33 C 0.82138 0.63942 0.22952 0.0
O34 O 0.85216 0.59897 0.19352 0.0
O35 O 0.85475 0.5982 0.22288 0.0
O36 O 0.81462 0.56662 0.20318 0.0
C37 C 0.86261 0.59777 0.20746 0.0
O38 O 0.83103 0.64382 0.21569 0.0
C39 C 0.81211 0.56093 0.21928 0.0
O40 O 0.81527 0.62319 0.23134 0.0
O41 O 0.81425 0.57249 0.23213 0.0
C42 C 0.79606 0.30528 0.74822 0.0
O43 O 0.81002 0.29649 0.75381 0.0
Cd44 Cd 0.83723 0.29418 0.73489 0.0
O45 O 0.79713 0.3147 0.73377 0.0
Cd46 Cd 0.82034 0.32437 0.71098 0.0
C47 C 0.81659 0.28194 0.69409 0.0
O48 O 0.84961 0.32379 0.7284 0.0
O49 O 0.85167 0.32375 0.699 0.0
O50 O 0.81151 0.35516 0.71834 0.0
C51 C 0.85979 0.32494 0.71434 0.0
O52 O 0.82709 0.27765 0.70737 0.0
C53 C 0.80902 0.36032 0.70205 0.0
O54 O 0.81077 0.29814 0.6924 0.0
O55 O 0.81127 0.34847 0.68955 0.0
C56 C 0.16172 0.11925 0.30607 0.0
O57 O 0.15613 0.10536 0.29716 0.0
Cd58 Cd 0.17428 0.07833 0.2948 0.0
O59 O 0.17606 0.11838 0.31625 0.0
Cd60 Cd 0.19836 0.09518 0.32738 0.0
C61 C 0.21676 0.09911 0.2854 0.0
O62 O 0.18046 0.06665 0.32431 0.0
O63 O 0.21026 0.06432 0.32588 0.0
O64 O 0.18834 0.10325 0.3578 0.0
C65 C 0.19452 0.05643 0.32519 0.0
O66 O 0.20282 0.08936 0.28054 0.0
C67 C 0.20438 0.10549 0.36474 0.0
O68 O 0.21871 0.10432 0.30196 0.0
O69 O 0.21812 0.10346 0.3541 0.0
C70 C 0.29986 0.6745 0.80272 0.0
O71 O 0.31404 0.66975 0.79372 0.0
Cd72 Cd 0.34213 0.68783 0.7938 0.0
O73 O 0.30072 0.6883 0.81328 0.0
Cd74 Cd 0.32387 0.71102 0.82444 0.0
C75 C 0.32376 0.72956 0.78286 0.0
O76 O 0.35281 0.69347 0.8242 0.0
O77 O 0.35548 0.72273 0.82574 0.0
O78 O 0.31388 0.7025 0.85454 0.0
C79 C 0.36325 0.70737 0.82634 0.0
O80 O 0.33394 0.71609 0.77877 0.0
C81 C 0.31168 0.7185 0.86066 0.0
O82 O 0.3166 0.73095 0.79867 0.0
O83 O 0.31441 0.73146 0.84957 0.0
C84 C 0.75338 0.80088 0.30746 0.0
O85 O 0.7581 0.81412 0.29741 0.0
Cd86 Cd 0.74032 0.84148 0.29509 0.0
O87 O 0.73962 0.80229 0.31822 0.0
Cd88 Cd 0.71683 0.82539 0.32813 0.0
C89 C 0.69782 0.82108 0.28607 0.0
O90 O 0.73504 0.85356 0.3248 0.0
O91 O 0.70531 0.8564 0.3265 0.0
O92 O 0.7254 0.81791 0.35919 0.0
C93 C 0.72117 0.86402 0.3257 0.0
O94 O 0.71116 0.83133 0.28091 0.0
C95 C 0.70901 0.81548 0.36506 0.0
O96 O 0.69686 0.81551 0.30249 0.0
O97 O 0.69588 0.8173 0.35358 0.0
C98 C 0.61768 0.24794 0.81018 0.0
O99 O 0.6033 0.25481 0.80309 0.0
Cd100 Cd 0.5753 0.23656 0.80081 0.0
O101 O 0.61659 0.23284 0.8185 0.0
Cd102 Cd 0.59323 0.21045 0.82897 0.0
C103 C 0.59365 0.19561 0.7859 0.0
O104 O 0.56404 0.22758 0.83001 0.0
O105 O 0.56201 0.19821 0.82882 0.0
O106 O 0.60351 0.21803 0.85939 0.0
C107 C 0.55389 0.21333 0.83051 0.0
O108 O 0.58405 0.20977 0.78304 0.0
C109 C 0.60624 0.20187 0.86461 0.0
O110 O 0.6002 0.19237 0.80171 0.0
O111 O 0.60346 0.18925 0.85291 0.0
C112 C 0.25124 0.80705 0.62177 0.0
O113 O 0.256 0.79806 0.60775 0.0
Cd114 Cd 0.23629 0.79496 0.58154 0.0
O115 O 0.23667 0.81671 0.62149 0.0
Cd116 Cd 0.21269 0.82646 0.59915 0.0
C117 C 0.19508 0.78407 0.60346 0.0
O118 O 0.22959 0.82445 0.57029 0.0
O119 O 0.19968 0.82511 0.56847 0.0
O120 O 0.22175 0.85736 0.60676 0.0
C121 C 0.21518 0.82534 0.56034 0.0
O122 O 0.20865 0.77953 0.59338 0.0
C123 C 0.20552 0.86331 0.6094 0.0
O124 O 0.19316 0.80056 0.60861 0.0
O125 O 0.19222 0.85183 0.60801 0.0
C126 C 0.61836 0.67473 0.1205 0.0
O127 O 0.60461 0.67138 0.13077 0.0
Cd128 Cd 0.57794 0.69083 0.13188 0.0
O129 O 0.61774 0.6878 0.10923 0.0
Cd130 Cd 0.59614 0.71132 0.09819 0.0
C131 C 0.60142 0.73136 0.13951 0.0
O132 O 0.56627 0.69538 0.10177 0.0
O133 O 0.56522 0.72448 0.09837 0.0
O134 O 0.60438 0.70067 0.068 0.0
C135 C 0.55649 0.70949 0.09981 0.0
O136 O 0.59004 0.71923 0.14505 0.0
C137 C 0.60767 0.71618 0.06119 0.0
O138 O 0.60731 0.73125 0.12312 0.0
O139 O 0.60595 0.72985 0.07175 0.0
C140 C 0.66418 0.1178 0.62223 0.0
O141 O 0.6612 0.12749 0.60829 0.0
Cd142 Cd 0.68082 0.12741 0.58193 0.0
O143 O 0.67717 0.10619 0.62217 0.0
Cd144 Cd 0.70048 0.09437 0.6004 0.0
C145 C 0.72257 0.13484 0.60389 0.0
O146 O 0.68389 0.09695 0.57128 0.0
O147 O 0.71363 0.09407 0.56985 0.0
O148 O 0.68995 0.06402 0.60806 0.0
C149 C 0.69818 0.09455 0.56154 0.0
O150 O 0.71038 0.14034 0.59263 0.0
C151 C 0.70593 0.05744 0.61075 0.0
O152 O 0.72179 0.11879 0.61033 0.0
O153 O 0.71968 0.06836 0.60951 0.0
C154 C 0.29615 0.24669 0.1216 0.0
O155 O 0.30976 0.2514 0.13169 0.0
Cd156 Cd 0.33665 0.23237 0.13408 0.0
O157 O 0.29741 0.23286 0.11115 0.0
Cd158 Cd 0.32007 0.20968 0.10125 0.0
C159 C 0.31409 0.19165 0.14304 0.0
O160 O 0.34992 0.22615 0.10479 0.0
O161 O 0.35093 0.19686 0.10253 0.0
O162 O 0.31236 0.21958 0.07079 0.0
C163 C 0.35967 0.21191 0.10341 0.0
O164 O 0.32436 0.2049 0.14834 0.0
C165 C 0.30928 0.20393 0.06395 0.0
O166 O 0.30929 0.19007 0.12632 0.0
O167 O 0.31088 0.19046 0.07462 0.0
C168 C 0.79815 0.619 0.66212 0.0
O169 O 0.78728 0.60636 0.65669 0.0
Cd170 Cd 0.78332 0.57876 0.67369 0.0
O171 O 0.80889 0.61647 0.67568 0.0
Cd172 Cd 0.81784 0.59159 0.69658 0.0
C173 C 0.77659 0.59725 0.71669 0.0
O174 O 0.81211 0.56373 0.67841 0.0
O175 O 0.81351 0.56088 0.70768 0.0
O176 O 0.84966 0.59619 0.68719 0.0
C177 C 0.81236 0.55329 0.69213 0.0
O178 O 0.7704 0.58854 0.70282 0.0
C179 C 0.85654 0.5981 0.70305 0.0
O180 O 0.79375 0.60158 0.71795 0.0
O181 O 0.84523 0.59756 0.71632 0.0
C182 C 0.79465 0.30396 0.26016 0.0
O183 O 0.78388 0.31704 0.26376 0.0
Cd184 Cd 0.78171 0.34365 0.24514 0.0
O185 O 0.80633 0.30527 0.24723 0.0
Cd186 Cd 0.81682 0.32862 0.22504 0.0
C187 C 0.77569 0.32197 0.20376 0.0
O188 O 0.81173 0.35714 0.24182 0.0
O189 O 0.81433 0.35918 0.21261 0.0
O190 O 0.84854 0.32332 0.23478 0.0
C191 C 0.81306 0.36721 0.2279 0.0
O192 O 0.76916 0.33236 0.21607 0.0
C193 C 0.85515 0.32084 0.21896 0.0
O194 O 0.79264 0.31714 0.20415 0.0
O195 O 0.84375 0.32142 0.20569 0.0
C196 C 0.12087 0.31148 0.746 0.0
O197 O 0.10643 0.30302 0.75129 0.0
Cd198 Cd 0.07843 0.30195 0.73338 0.0
O199 O 0.12039 0.32106 0.73159 0.0
Cd200 Cd 0.09826 0.33124 0.70783 0.0
C201 C 0.09785 0.2879 0.69245 0.0
O202 O 0.06955 0.33202 0.72566 0.0
O203 O 0.06656 0.3324 0.69636 0.0
O204 O 0.10972 0.36143 0.71537 0.0
C205 C 0.05894 0.33337 0.71188 0.0
O206 O 0.08751 0.28504 0.70621 0.0
C207 C 0.112 0.36683 0.69914 0.0
O208 O 0.10509 0.30359 0.68975 0.0
O209 O 0.10853 0.35534 0.68649 0.0
C210 C 0.12413 0.61161 0.17401 0.0
O211 O 0.1097 0.6202 0.16932 0.0
Cd212 Cd 0.08244 0.62154 0.18786 0.0
O213 O 0.12392 0.60153 0.18808 0.0
Cd214 Cd 0.10156 0.59052 0.21148 0.0
C215 C 0.10401 0.63325 0.2287 0.0
O216 O 0.07234 0.59131 0.19426 0.0
O217 O 0.07011 0.58968 0.22354 0.0
O218 O 0.11127 0.56008 0.20333 0.0
C219 C 0.06202 0.58966 0.20815 0.0
O220 O 0.09361 0.63735 0.21528 0.0
C221 C 0.11401 0.5546 0.21947 0.0
O222 O 0.10989 0.61706 0.23058 0.0
O223 O 0.11153 0.56609 0.23225 0.0
C224 C 0.74824 0.79972 0.61644 0.0
O225 O 0.75271 0.81248 0.62742 0.0
Cd226 Cd 0.7341 0.83951 0.63013 0.0
O227 O 0.73457 0.80158 0.60559 0.0
Cd228 Cd 0.71116 0.82405 0.59652 0.0
C229 C 0.69214 0.81819 0.63812 0.0
O230 O 0.72811 0.853 0.60112 0.0
O231 O 0.69822 0.85422 0.59897 0.0
O232 O 0.72083 0.81761 0.56558 0.0
C233 C 0.71362 0.86266 0.60021 0.0
O234 O 0.70519 0.82869 0.64371 0.0
C235 C 0.70474 0.81466 0.55901 0.0
O236 O 0.69139 0.81281 0.62154 0.0
O237 O 0.69119 0.81576 0.57003 0.0
C238 C 0.61924 0.16334 0.12193 0.0
O239 O 0.63098 0.16002 0.10951 0.0
Cd240 Cd 0.63402 0.17824 0.0826 0.0
O241 O 0.60741 0.1759 0.11985 0.0
Cd242 Cd 0.59799 0.1981 0.09633 0.0
C243 C 0.63877 0.22002 0.10371 0.0
O244 O 0.6044 0.18095 0.06831 0.0
O245 O 0.60144 0.20996 0.06553 0.0
O246 O 0.56618 0.18791 0.10065 0.0
C247 C 0.60329 0.19457 0.05788 0.0
O248 O 0.64574 0.20768 0.09365 0.0
C249 C 0.5593 0.20356 0.10301 0.0
O250 O 0.6217 0.2194 0.10824 0.0
O251 O 0.57058 0.21699 0.10281 0.0
C252 C 0.16495 0.1201 0.62058 0.0
O253 O 0.16053 0.10648 0.63027 0.0
Cd254 Cd 0.17898 0.07947 0.63165 0.0
O255 O 0.17844 0.11912 0.60945 0.0
Cd256 Cd 0.20079 0.09616 0.59802 0.0
C257 C 0.22131 0.10084 0.6393 0.0
O258 O 0.18357 0.06738 0.60187 0.0
O259 O 0.21332 0.06552 0.59928 0.0
O260 O 0.18997 0.1035 0.56764 0.0
C261 C 0.19775 0.05738 0.6005 0.0
O262 O 0.20837 0.09028 0.64478 0.0
C263 C 0.20584 0.10589 0.56054 0.0
O264 O 0.22163 0.10652 0.62289 0.0
O265 O 0.21982 0.10427 0.57106 0.0
C266 C 0.29832 0.75932 0.11996 0.0
O267 O 0.28744 0.76344 0.10702 0.0
Cd268 Cd 0.28488 0.74511 0.07983 0.0
O269 O 0.30955 0.7462 0.11809 0.0
Cd270 Cd 0.31936 0.7242 0.09436 0.0
C271 C 0.27824 0.7029 0.09935 0.0
O272 O 0.31446 0.74109 0.06585 0.0
O273 O 0.31668 0.71189 0.06375 0.0
O274 O 0.35113 0.73404 0.09981 0.0
C275 C 0.31555 0.72706 0.05574 0.0
O276 O 0.27204 0.71602 0.08994 0.0
C277 C 0.35768 0.71835 0.10255 0.0
O278 O 0.29523 0.70262 0.10429 0.0
O279 O 0.34622 0.70506 0.10197 0.0
C280 C 0.6682 0.11086 0.30175 0.0
O281 O 0.66183 0.11994 0.31505 0.0
Cd282 Cd 0.67884 0.12262 0.34337 0.0
O283 O 0.68296 0.10171 0.30367 0.0
Cd284 Cd 0.70591 0.09326 0.32713 0.0
C285 C 0.7214 0.13647 0.32609 0.0
O286 O 0.68712 0.0936 0.35508 0.0
O287 O 0.71698 0.09438 0.35823 0.0
O288 O 0.69862 0.06242 0.31818 0.0
C289 C 0.70114 0.09327 0.36564 0.0
O290 O 0.70684 0.13956 0.33537 0.0
C291 C 0.71521 0.05712 0.31637 0.0
O292 O 0.72455 0.12061 0.31972 0.0
O293 O 0.72799 0.06896 0.31895 0.0
C294 C 0.29413 0.24499 0.80889 0.0
O295 O 0.30844 0.24788 0.79923 0.0
Cd296 Cd 0.33476 0.22817 0.79931 0.0
O297 O 0.29378 0.23195 0.82024 0.0
Cd298 Cd 0.31451 0.20786 0.83196 0.0
C299 C 0.31108 0.18804 0.79028 0.0
O300 O 0.34427 0.2241 0.83013 0.0
O301 O 0.34563 0.195 0.83325 0.0
O302 O 0.30499 0.21821 0.86189 0.0
C303 C 0.35413 0.21018 0.83272 0.0
O304 O 0.32295 0.20002 0.7854 0.0
C305 C 0.30226 0.2026 0.8687 0.0
O306 O 0.30435 0.18816 0.80635 0.0
O307 O 0.30447 0.18902 0.85813 0.0
C308 C 0.24746 0.80856 0.30029 0.0
O309 O 0.25339 0.79875 0.31318 0.0
Cd310 Cd 0.2355 0.79485 0.3406 0.0
O311 O 0.23281 0.81785 0.30238 0.0
Cd312 Cd 0.20953 0.82558 0.32576 0.0
C313 C 0.19348 0.78264 0.32068 0.0
O314 O 0.22773 0.82347 0.35408 0.0
O315 O 0.19781 0.82305 0.3565 0.0
O316 O 0.21756 0.85673 0.31902 0.0
C317 C 0.21354 0.82361 0.36432 0.0
O318 O 0.20772 0.7786 0.33012 0.0
C319 C 0.20113 0.8624 0.31691 0.0
O320 O 0.1907 0.79904 0.31585 0.0
O321 O 0.18809 0.85067 0.31836 0.0
C322 C 0.62327 0.67472 0.80578 0.0
O323 O 0.60875 0.67133 0.79643 0.0
Cd324 Cd 0.58195 0.69043 0.79697 0.0
O325 O 0.62357 0.68783 0.81723 0.0
Cd326 Cd 0.60219 0.71112 0.82955 0.0
C327 C 0.60454 0.73098 0.7882 0.0
O328 O 0.5726 0.69442 0.82783 0.0
O329 O 0.57092 0.72352 0.83125 0.0
O330 O 0.61235 0.70084 0.8592 0.0
C331 C 0.56261 0.70823 0.83069 0.0
O332 O 0.59286 0.71876 0.78324 0.0
C333 C 0.61496 0.71647 0.86624 0.0
O334 O 0.61151 0.73103 0.80423 0.0
O335 O 0.61238 0.73005 0.85591 0.0
C336 C 0.12305 0.52377 0.20839 0.0
C337 C 0.11871 0.53538 0.22302 0.0
C338 C 0.12565 0.50523 0.21119 0.0
C339 C 0.11172 0.46849 0.24185 0.0
H340 H 0.1471 0.44098 0.21344 0.0
C341 C 0.11239 0.38955 0.24166 0.0
C342 C 0.11281 0.38175 0.22411 0.0
C343 C 0.11621 0.40814 0.24419 0.0
C344 C 0.13714 0.44846 0.22148 0.0
H345 H 0.11428 0.53668 0.25221 0.0
H346 H 0.11883 0.50412 0.25713 0.0
H347 H 0.14846 0.47412 0.21321 0.0
H348 H 0.11822 0.38721 0.19558 0.0
H349 H 0.12485 0.41939 0.19997 0.0
H350 H 0.10003 0.44278 0.24965 0.0
C351 C 0.12011 0.50944 0.24346 0.0
C352 C 0.13791 0.46745 0.22135 0.0
C353 C 0.11762 0.52809 0.24066 0.0
C354 C 0.11775 0.39277 0.20928 0.0
C355 C 0.12169 0.41123 0.21182 0.0
C356 C 0.11095 0.44946 0.24199 0.0
C357 C 0.12391 0.49775 0.2287 0.0
C358 C 0.12488 0.4777 0.2311 0.0
C359 C 0.12072 0.41922 0.22924 0.0
C360 C 0.12331 0.43924 0.23138 0.0
H361 H 0.12399 0.52893 0.19462 0.0
H362 H 0.12831 0.49662 0.19947 0.0
H363 H 0.10137 0.47595 0.2494 0.0
H364 H 0.10862 0.38141 0.25335 0.0
H365 H 0.11546 0.41388 0.2578 0.0
C366 C 0.8886 0.59996 0.69044 0.0
C367 C 0.87689 0.59971 0.7057 0.0
C368 C 0.90784 0.59971 0.69258 0.0
C369 C 0.94639 0.60838 0.72462 0.0
H370 H -0.02764 0.57524 0.69253 0.0
C371 C 0.02613 0.59644 0.72893 0.0
C372 C 0.03542 0.59552 0.71214 0.0
C373 C 0.00668 0.59663 0.7295 0.0
C374 C -0.03464 0.58468 0.70149 0.0
H375 H 0.87623 0.59973 0.73525 0.0
H376 H 0.91006 0.59935 0.73901 0.0
H377 H 0.93869 0.57681 0.69108 0.0
H378 H 0.0316 0.5942 0.6828 0.0
H379 H -0.00207 0.5947 0.68379 0.0
H380 H -0.02678 0.61642 0.73483 0.0
C381 C 0.90425 0.59973 0.72538 0.0
C382 C 0.94605 0.58557 0.70067 0.0
C383 C 0.88489 0.59991 0.72322 0.0
C384 C 0.0249 0.59481 0.69598 0.0
C385 C 0.00555 0.59499 0.69655 0.0
C386 C -0.0342 0.60753 0.72541 0.0
C387 C 0.91589 0.59924 0.71004 0.0
C388 C 0.93635 0.59765 0.71198 0.0
C389 C -0.00382 0.59583 0.7133 0.0
C390 C -0.02448 0.59588 0.71361 0.0
H391 H 0.88293 0.59995 0.67674 0.0
H392 H 0.91644 0.59973 0.6805 0.0
H393 H 0.93929 0.61785 0.73347 0.0
H394 H 0.03386 0.59702 0.74162 0.0
H395 H -0.00012 0.59715 0.74263 0.0
C396 C 0.80967 0.39754 0.2132 0.0
C397 C 0.81115 0.38719 0.22915 0.0
C398 C 0.80743 0.41634 0.21421 0.0
C399 C 0.81592 0.45607 0.2435 0.0
H400 H 0.78098 0.47898 0.21077 0.0
C401 C 0.80823 0.53437 0.24041 0.0
C402 C 0.80799 0.54149 0.22267 0.0
C403 C 0.80611 0.51563 0.24317 0.0
C404 C 0.79085 0.47281 0.21996 0.0
H405 H 0.81164 0.38847 0.25869 0.0
H406 H 0.80791 0.42149 0.26044 0.0
H407 H 0.78256 0.44592 0.21181 0.0
H408 H 0.80474 0.53463 0.19401 0.0
H409 H 0.80122 0.50218 0.19878 0.0
H410 H 0.82466 0.48298 0.25121 0.0
C411 C 0.80845 0.41497 0.24717 0.0
C412 C 0.79175 0.45387 0.22055 0.0
C413 C 0.81053 0.39609 0.24616 0.0
C414 C 0.80498 0.5296 0.20786 0.0
C415 C 0.80283 0.51096 0.21061 0.0
C416 C 0.8151 0.47505 0.24285 0.0
C417 C 0.80675 0.42527 0.23119 0.0
C418 C 0.80457 0.4453 0.23201 0.0
C419 C 0.80362 0.50369 0.22825 0.0
C420 C 0.80285 0.48364 0.23075 0.0
H421 H 0.81013 0.39112 0.19988 0.0
H422 H 0.80647 0.42394 0.20165 0.0
H423 H 0.82601 0.44984 0.25241 0.0
H424 H 0.81053 0.5432 0.2521 0.0
H425 H 0.80661 0.51046 0.25695 0.0
C426 C 0.02732 0.33574 0.69805 0.0
C427 C 0.03854 0.33441 0.71368 0.0
C428 C 0.00803 0.33619 0.69954 0.0
C429 C -0.03032 0.32323 0.72992 0.0
H430 H 0.94118 0.35452 0.69828 0.0
C431 C 0.88929 0.32726 0.73262 0.0
C432 C 0.8802 0.32707 0.71563 0.0
C433 C 0.90862 0.32927 0.73363 0.0
C434 C 0.94894 0.34562 0.70713 0.0
H435 H 0.03834 0.33271 0.74318 0.0
H436 H 0.00453 0.33359 0.74581 0.0
H437 H -0.02503 0.35627 0.69789 0.0
H438 H 0.88422 0.32885 0.68639 0.0
H439 H 0.9178 0.33223 0.68816 0.0
H440 H 0.94358 0.31243 0.73897 0.0
C441 C 0.0107 0.33412 0.73238 0.0
C442 C -0.0317 0.34662 0.70691 0.0
C443 C 0.03005 0.33371 0.73088 0.0
C444 C 0.89079 0.32898 0.6997 0.0
C445 C 0.91004 0.33104 0.70072 0.0
C446 C 0.95028 0.32224 0.73016 0.0
C447 C -0.00052 0.33532 0.71671 0.0
C448 C -0.0211 0.33523 0.71807 0.0
C449 C 0.91919 0.33123 0.71768 0.0
C450 C 0.93971 0.33322 0.71853 0.0
H451 H 0.03342 0.33627 0.68459 0.0
H452 H -0.00021 0.33684 0.68719 0.0
H453 H -0.02255 0.31415 0.73856 0.0
H454 H 0.8815 0.32585 0.74514 0.0
H455 H 0.91527 0.32949 0.74691 0.0
C456 C 0.12253 0.39752 0.70995 0.0
C457 C 0.11712 0.38603 0.69544 0.0
C458 C 0.12526 0.41611 0.70721 0.0
C459 C 0.10999 0.453 0.67755 0.0
H460 H 0.14659 0.48078 0.70528 0.0
C461 C 0.11141 0.53203 0.67889 0.0
C462 C 0.11241 0.53956 0.69654 0.0
C463 C 0.11488 0.51351 0.676 0.0
C464 C 0.1363 0.47322 0.69743 0.0
H465 H 0.111 0.38496 0.6665 0.0
H466 H 0.11583 0.41761 0.66167 0.0
H467 H 0.14793 0.44767 0.70485 0.0
H468 H 0.11844 0.5337 0.72489 0.0
H469 H 0.12454 0.50163 0.71986 0.0
H470 H 0.09806 0.4786 0.67056 0.0
C471 C 0.11782 0.41217 0.67521 0.0
C472 C 0.13705 0.45425 0.69719 0.0
C473 C 0.11519 0.39346 0.67794 0.0
C474 C 0.11752 0.52834 0.71111 0.0
C475 C 0.12115 0.50995 0.70821 0.0
C476 C 0.10926 0.47202 0.67775 0.0
C477 C 0.12261 0.42376 0.6899 0.0
C478 C 0.12357 0.44387 0.68771 0.0
C479 C 0.11966 0.50224 0.69067 0.0
C480 C 0.12208 0.48232 0.68814 0.0
H481 H 0.12415 0.39224 0.7236 0.0
H482 H 0.12868 0.42461 0.71889 0.0
H483 H 0.09929 0.44545 0.67023 0.0
H484 H 0.10748 0.54033 0.66739 0.0
H485 H 0.11371 0.50798 0.66231 0.0
C486 C 0.89388 0.59564 0.22196 0.0
C487 C 0.88305 0.59683 0.20605 0.0
C488 C 0.91319 0.59509 0.22095 0.0
C489 C 0.95205 0.5848 0.19025 0.0
H490 H -0.0196 0.61251 0.22615 0.0
C491 C 0.03265 0.59112 0.18968 0.0
C492 C 0.04154 0.58981 0.20672 0.0
C493 C 0.01328 0.59206 0.18855 0.0
C494 C -0.02731 0.60457 0.21613 0.0
H495 H 0.88399 0.59817 0.17655 0.0
H496 H 0.91792 0.59732 0.17479 0.0
H497 H 0.94669 0.61426 0.2259 0.0
H498 H 0.03706 0.58803 0.23588 0.0
H499 H 0.00339 0.58954 0.23391 0.0
H500 H -0.02181 0.57506 0.18056 0.0
C501 C 0.91138 0.59669 0.18804 0.0
C502 C 0.95337 0.60557 0.21598 0.0
C503 C 0.89198 0.59726 0.18905 0.0
C504 C 0.03066 0.58914 0.22255 0.0
C505 C 0.01136 0.59012 0.22143 0.0
C506 C -0.02855 0.5838 0.19038 0.0
C507 C 0.92219 0.59574 0.20401 0.0
C508 C 0.94279 0.59549 0.20323 0.0
C509 C 0.00245 0.59178 0.20445 0.0
C510 C -0.01805 0.59348 0.20352 0.0
H511 H 0.88746 0.59516 0.23528 0.0
H512 H 0.92108 0.594 0.2335 0.0
H513 H 0.94429 0.57676 0.18034 0.0
H514 H 0.04067 0.59166 0.17723 0.0
H515 H 0.00682 0.59342 0.17528 0.0
C516 C 0.80956 0.52468 0.67327 0.0
C517 C 0.80971 0.53337 0.69041 0.0
C518 C 0.80695 0.50581 0.67193 0.0
C519 C 0.78818 0.46665 0.69742 0.0
H520 H 0.82237 0.43777 0.66899 0.0
C521 C 0.80126 0.39168 0.71241 0.0
C522 C 0.80483 0.37953 0.69802 0.0
C523 C 0.79906 0.41017 0.7091 0.0
C524 C 0.81246 0.44563 0.6767 0.0
H525 H 0.8072 0.52909 0.71954 0.0
H526 H 0.80262 0.49637 0.71719 0.0
H527 H 0.824 0.47093 0.66747 0.0
H528 H 0.8083 0.37717 0.66876 0.0
H529 H 0.80436 0.40966 0.66293 0.0
H530 H 0.77688 0.44147 0.70698 0.0
C531 C 0.80436 0.50409 0.70477 0.0
C532 C 0.81343 0.46462 0.67585 0.0
C533 C 0.80714 0.52284 0.70612 0.0
C534 C 0.80556 0.38621 0.68013 0.0
C535 C 0.80343 0.40481 0.67681 0.0
C536 C 0.78717 0.44771 0.69822 0.0
C537 C 0.80421 0.49535 0.68769 0.0
C538 C 0.80164 0.47532 0.68661 0.0
C539 C 0.80038 0.41703 0.6913 0.0
C540 C 0.79965 0.43698 0.68829 0.0
H541 H 0.81152 0.53244 0.66092 0.0
H542 H 0.80686 0.49942 0.65858 0.0
H543 H 0.77867 0.47454 0.70559 0.0
H544 H 0.80062 0.38699 0.72636 0.0
H545 H 0.797 0.4192 0.72062 0.0
C546 C 0.88305 0.31796 0.19867 0.0
C547 C 0.87534 0.31841 0.21625 0.0
C548 C 0.90233 0.31707 0.19637 0.0
C549 C 0.94592 0.30598 0.22093 0.0
H550 H -0.03077 0.33849 0.18624 0.0
C551 C 0.02323 0.32487 0.22555 0.0
C552 C 0.03362 0.32538 0.20938 0.0
C553 C 0.00394 0.32294 0.22496 0.0
C554 C -0.03708 0.32916 0.19581 0.0
H555 H 0.8818 0.31786 0.24515 0.0
H556 H 0.9152 0.31643 0.24116 0.0
H557 H 0.93538 0.33636 0.18765 0.0
H558 H 0.03183 0.32457 0.17987 0.0
H559 H -0.00204 0.32126 0.17885 0.0
H560 H -0.02661 0.29907 0.22936 0.0
C561 C 0.90645 0.31656 0.22912 0.0
C562 C 0.94352 0.3279 0.1966 0.0
C563 C 0.88726 0.3175 0.23142 0.0
C564 C 0.02421 0.32424 0.19257 0.0
C565 C 0.00483 0.32238 0.19198 0.0
C566 C -0.03475 0.30728 0.22017 0.0
C567 C 0.91426 0.31651 0.21159 0.0
C568 C 0.9348 0.31655 0.20942 0.0
C569 C -0.00549 0.32151 0.2082 0.0
C570 C -0.02602 0.31913 0.20785 0.0
H571 H 0.87424 0.31865 0.18671 0.0
H572 H 0.90789 0.31687 0.18268 0.0
H573 H 0.93967 0.29682 0.2307 0.0
H574 H 0.03001 0.3258 0.23874 0.0
H575 H -0.00361 0.32266 0.23769 0.0
C576 C 0.2249 0.1081 0.53187 0.0
C577 C 0.20767 0.1093 0.54072 0.0
C578 C 0.22599 0.10941 0.51282 0.0
C579 C 0.19635 0.10249 0.47209 0.0
H580 H 0.23555 0.12762 0.44598 0.0
C581 C 0.19087 0.11276 0.39518 0.0
C582 C 0.2066 0.10912 0.38456 0.0
C583 C 0.19225 0.11421 0.41411 0.0
C584 C 0.22461 0.12042 0.4531 0.0
H585 H 0.17825 0.11382 0.53658 0.0
H586 H 0.18019 0.11641 0.50366 0.0
H587 H 0.23574 0.12765 0.47942 0.0
H588 H 0.23632 0.10492 0.38549 0.0
H589 H 0.23873 0.10731 0.41878 0.0
H590 H 0.18521 0.09517 0.44601 0.0
C591 C 0.19282 0.114 0.51128 0.0
C592 C 0.22472 0.12043 0.47224 0.0
C593 C 0.19173 0.11263 0.53021 0.0
C594 C 0.22394 0.10773 0.3933 0.0
C595 C 0.22533 0.10914 0.41236 0.0
C596 C 0.19624 0.1025 0.45308 0.0
C597 C 0.20987 0.11197 0.50227 0.0
C598 C 0.21043 0.11165 0.48196 0.0
C599 C 0.20939 0.11196 0.423 0.0
C600 C 0.2102 0.11164 0.44331 0.0
H601 H 0.23744 0.10553 0.53958 0.0
H602 H 0.23934 0.10774 0.50631 0.0
H603 H 0.18541 0.09516 0.47908 0.0
H604 H 0.17732 0.11411 0.3889 0.0
H605 H 0.17977 0.11682 0.42184 0.0
C606 C 0.30934 0.73908 0.88808 0.0
C607 C 0.30794 0.7216 0.88025 0.0
C608 C 0.30869 0.74134 0.90706 0.0
C609 C 0.32011 0.71583 0.94795 0.0
H610 H 0.29217 0.75184 -0.02519 0.0
C611 C 0.31326 0.71185 0.02532 0.0
C612 C 0.3142 0.72799 0.03565 0.0
C613 C 0.31208 0.71242 0.00637 0.0
C614 C 0.30025 0.74188 -0.03253 0.0
H615 H 0.30346 0.693 0.88606 0.0
H616 H 0.3023 0.69698 0.91895 0.0
H617 H 0.29001 0.75062 0.94144 0.0
H618 H 0.31446 0.75742 0.03418 0.0
H619 H 0.31273 0.75841 0.00085 0.0
H620 H 0.33057 0.70713 -0.02633 0.0
C621 C 0.30421 0.70888 0.91051 0.0
C622 C 0.29896 0.74116 0.9484 0.0
C623 C 0.30479 0.70663 0.89165 0.0
C624 C 0.31377 0.74475 0.02658 0.0
C625 C 0.31267 0.74532 0.00751 0.0
C626 C 0.32151 0.71662 -0.03312 0.0
C627 C 0.30673 0.72616 0.91845 0.0
C628 C 0.30861 0.72788 0.93852 0.0
C629 C 0.31196 0.72913 -0.00281 0.0
C630 C 0.31133 0.7294 -0.02307 0.0
H631 H 0.31176 0.75088 0.87963 0.0
H632 H 0.31065 0.75482 0.91285 0.0
H633 H 0.32808 0.70574 0.94065 0.0
H634 H 0.31338 0.6987 0.03188 0.0
H635 H 0.31113 0.69968 -0.0011 0.0
C636 C 0.68763 0.81184 0.39191 0.0
C637 C 0.70562 0.81143 0.38455 0.0
C638 C 0.68487 0.80926 0.41064 0.0
C639 C 0.70784 0.79164 0.45229 0.0
H640 H 0.67718 0.82625 0.47807 0.0
C641 C 0.71774 0.80753 0.52831 0.0
C642 C 0.70217 0.81077 0.53929 0.0
C643 C 0.71579 0.80499 0.50953 0.0
C644 C 0.68552 0.81626 0.47107 0.0
H645 H 0.73471 0.80752 0.39099 0.0
H646 H 0.72992 0.80307 0.42342 0.0
H647 H 0.67796 0.82642 0.44478 0.0
H648 H 0.67225 0.81356 0.53917 0.0
H649 H 0.66883 0.80916 0.50614 0.0
H650 H 0.71583 0.78181 0.47854 0.0
C651 C 0.71791 0.80523 0.41481 0.0
C652 C 0.68597 0.81635 0.45198 0.0
C653 C 0.72067 0.80792 0.3962 0.0
C654 C 0.68451 0.81107 0.53107 0.0
C655 C 0.68256 0.80865 0.51216 0.0
C656 C 0.7074 0.79155 0.47133 0.0
C657 C 0.70001 0.80604 0.42232 0.0
C658 C 0.69753 0.80436 0.44239 0.0
C659 C 0.69822 0.80569 0.50117 0.0
C660 C 0.69663 0.80417 0.48097 0.0
H661 H 0.67575 0.81453 0.38329 0.0
H662 H 0.6709 0.80984 0.41599 0.0
H663 H 0.71659 0.78196 0.44532 0.0
H664 H 0.73155 0.80722 0.53419 0.0
H665 H 0.72818 0.80301 0.50147 0.0
C666 C 0.60828 0.2086 0.02734 0.0
C667 C 0.60606 0.19292 0.03797 0.0
C668 C 0.61122 0.20717 0.00859 0.0
C669 C 0.60297 0.1775 -0.03075 0.0
H670 H 0.6394 0.20897 0.94626 0.0
C671 C 0.61052 0.18043 0.89081 0.0
C672 C 0.61115 0.19816 0.88382 0.0
C673 C 0.61298 0.17748 0.90952 0.0
C674 C 0.62914 0.20011 0.95245 0.0
H675 H 0.60505 0.16344 0.03729 0.0
H676 H 0.60996 0.16098 0.00435 0.0
H677 H 0.63725 0.20833 -0.02059 0.0
H678 H 0.61568 0.22659 0.89078 0.0
H679 H 0.61977 0.22152 0.92315 0.0
H680 H 0.59433 0.16983 0.94229 0.0
C681 C 0.60948 0.17434 0.01061 0.0
C682 C 0.62792 0.19975 -0.02857 0.0
C683 C 0.60672 0.17577 0.02944 0.0
C684 C 0.61508 0.21276 0.89573 0.0
C685 C 0.61758 0.20982 0.91432 0.0
C686 C 0.6041 0.17795 0.95023 0.0
C687 C 0.61186 0.19004 2e-05 0.0
C688 C 0.61453 0.18878 -0.01998 0.0
C689 C 0.61622 0.1922 0.92152 0.0
C690 C 0.61688 0.18963 0.9416 0.0
H691 H 0.60783 0.22201 0.03349 0.0
H692 H 0.61272 0.21951 0.00074 0.0
H693 H 0.59245 0.16898 -0.02449 0.0
H694 H 0.60752 0.16891 0.88196 0.0
H695 H 0.61205 0.16372 0.91462 0.0
C696 C 0.23248 0.82349 0.39316 0.0
C697 C 0.21507 0.82354 0.38443 0.0
C698 C 0.23367 0.8232 0.41221 0.0
C699 C 0.20615 0.81133 0.45291 0.0
H700 H 0.24112 0.84265 0.47885 0.0
C701 C 0.19991 0.82507 0.5297 0.0
C702 C 0.21625 0.82514 0.54022 0.0
C703 C 0.20077 0.82445 0.51071 0.0
C704 C 0.23144 0.83367 0.47178 0.0
H705 H 0.1853 0.82356 0.38881 0.0
H706 H 0.18739 0.82323 0.42188 0.0
H707 H 0.24094 0.84222 0.44552 0.0
H708 H 0.24633 0.82481 0.53908 0.0
H709 H 0.24781 0.82366 0.5058 0.0
H710 H 0.19651 0.80291 0.47908 0.0
C711 C 0.20012 0.82312 0.41407 0.0
C712 C 0.23135 0.83341 0.45271 0.0
C713 C 0.19893 0.82342 0.3951 0.0
C714 C 0.23349 0.82477 0.53134 0.0
C715 C 0.23435 0.8242 0.51229 0.0
C716 C 0.20623 0.81161 0.47192 0.0
C717 C 0.21748 0.82291 0.42286 0.0
C718 C 0.21851 0.82242 0.44307 0.0
C719 C 0.21798 0.8239 0.50178 0.0
C720 C 0.2187 0.82295 0.48158 0.0
H721 H 0.24517 0.82357 0.38529 0.0
H722 H 0.24725 0.82293 0.41859 0.0
H723 H 0.19635 0.80243 0.44589 0.0
H724 H 0.18641 0.82543 0.53613 0.0
H725 H 0.18791 0.82454 0.503 0.0
C726 C 0.61644 0.7024 0.0313 0.0
C727 C 0.61235 0.71799 0.04163 0.0
C728 C 0.61912 0.70352 0.01252 0.0
C729 C 0.62791 0.73504 -0.02588 0.0
H730 H 0.60412 0.69626 0.94624 0.0
C731 C 0.61733 0.73528 0.89498 0.0
C732 C 0.61916 0.71847 0.88595 0.0
C733 C 0.61859 0.73636 0.91405 0.0
C734 C 0.61107 0.70708 0.95379 0.0
H735 H 0.60858 0.74715 0.04041 0.0
H736 H 0.613 0.74909 0.00738 0.0
H737 H 0.6023 0.69613 -0.02076 0.0
H738 H 0.62502 0.68988 0.88973 0.0
H739 H 0.62748 0.6918 0.92275 0.0
H740 H 0.63641 0.74606 0.94837 0.0
C741 C 0.6143 0.73601 0.01391 0.0
C742 C 0.61004 0.707 -0.02724 0.0
C743 C 0.61171 0.73489 0.03282 0.0
C744 C 0.62332 0.70301 0.89626 0.0
C745 C 0.62463 0.70409 0.91522 0.0
C746 C 0.6289 0.73514 0.95501 0.0
C747 C 0.61763 0.72024 0.00349 0.0
C748 C 0.6186 0.72085 -0.01679 0.0
C749 C 0.6217 0.72064 0.9244 0.0
C750 C 0.62065 0.72102 0.94466 0.0
H751 H 0.61725 0.68919 0.03769 0.0
H752 H 0.62213 0.69117 0.00502 0.0
H753 H 0.63471 0.74588 -0.01824 0.0
H754 H 0.61409 0.74744 0.88741 0.0
H755 H 0.61624 0.74931 0.92072 0.0
C756 C 0.71347 0.09297 0.5311 0.0
C757 C 0.69715 0.09413 0.54142 0.0
C758 C 0.71269 0.09309 0.51209 0.0
C759 C 0.68183 0.0845 0.47285 0.0
H760 H 0.71835 0.11379 0.44731 0.0
C761 C 0.68186 0.09358 0.39411 0.0
C762 C 0.69934 0.09296 0.3857 0.0
C763 C 0.68048 0.09394 0.41314 0.0
C764 C 0.70815 0.10541 0.45422 0.0
H765 H 0.66715 0.09604 0.53992 0.0
H766 H 0.66581 0.09626 0.5066 0.0
H767 H 0.718 0.11396 0.48048 0.0
H768 H 0.72903 0.09179 0.39062 0.0
H769 H 0.72662 0.0922 0.42363 0.0
H770 H 0.67214 0.07582 0.44648 0.0
C771 C 0.67919 0.09519 0.51326 0.0
C772 C 0.70795 0.10552 0.47323 0.0
C773 C 0.67998 0.09514 0.53232 0.0
C774 C 0.71535 0.09241 0.39666 0.0
C775 C 0.71398 0.09276 0.4156 0.0
C776 C 0.68205 0.08437 0.45377 0.0
C777 C 0.69557 0.09433 0.50296 0.0
C778 C 0.69497 0.09487 0.48276 0.0
C779 C 0.69657 0.09372 0.42408 0.0
C780 C 0.69541 0.09462 0.44427 0.0
H781 H 0.72691 0.09208 0.53768 0.0
H782 H 0.72553 0.0921 0.50453 0.0
H783 H 0.67173 0.07608 0.47983 0.0
H784 H 0.66927 0.09402 0.386 0.0
H785 H 0.66687 0.09476 0.41928 0.0
C786 C 0.30094 0.21726 0.03387 0.0
C787 C 0.30491 0.20181 0.04428 0.0
C788 C 0.29852 0.2159 0.01504 0.0
C789 C 0.29002 0.18407 -0.02362 0.0
H790 H 0.3142 0.22255 0.94913 0.0
C791 C 0.30007 0.18375 0.89718 0.0
C792 C 0.29834 0.20061 0.88842 0.0
C793 C 0.29902 0.18265 0.91624 0.0
C794 C 0.30715 0.21181 0.9565 0.0
H795 H 0.30873 0.17264 0.04312 0.0
H796 H 0.30475 0.17027 0.00996 0.0
H797 H 0.31595 0.22279 -0.01785 0.0
H798 H 0.29291 0.22926 0.89269 0.0
H799 H 0.2908 0.22729 0.92567 0.0
H800 H 0.28143 0.17305 0.95043 0.0
C801 C 0.30336 0.18344 0.01649 0.0
C802 C 0.30815 0.21195 -0.02452 0.0
C803 C 0.30569 0.18479 0.03546 0.0
C804 C 0.29452 0.2161 0.899 0.0
C805 C 0.29342 0.21499 0.91794 0.0
C806 C 0.28905 0.18392 0.95726 0.0
C807 C 0.30016 0.19907 0.00601 0.0
C808 C 0.29941 0.19824 -0.01429 0.0
C809 C 0.29622 0.19839 0.92686 0.0
C810 C 0.29741 0.19795 0.94712 0.0
H811 H 0.3 0.23055 0.04024 0.0
H812 H 0.2956 0.22815 0.00748 0.0
H813 H 0.2831 0.17333 -0.01615 0.0
H814 H 0.30305 0.17157 0.8894 0.0
H815 H 0.30126 0.16966 0.92269 0.0
C816 C 0.53106 0.22323 0.10586 0.0
C817 C 0.53898 0.20586 0.10485 0.0
C818 C 0.51172 0.22516 0.1061 0.0
C819 C 0.46905 0.20055 0.09218 0.0
H820 H 0.44369 0.23404 0.12435 0.0
C821 C 0.39029 0.19634 0.10241 0.0
C822 C 0.38024 0.21256 0.10353 0.0
C823 C 0.40966 0.19667 0.10247 0.0
C824 C 0.45059 0.2248 0.11511 0.0
H825 H 0.53281 0.17692 0.10398 0.0
H826 H 0.49929 0.1803 0.10453 0.0
H827 H 0.47762 0.23258 0.12505 0.0
H828 H 0.38269 0.2419 0.10571 0.0
H829 H 0.41669 0.2425 0.10564 0.0
H830 H 0.4422 0.19271 0.08221 0.0
C831 C 0.50795 0.19244 0.10483 0.0
C832 C 0.47002 0.22395 0.11553 0.0
C833 C 0.52719 0.19051 0.10463 0.0
C834 C 0.39004 0.22917 0.10482 0.0
C835 C 0.40951 0.2295 0.10488 0.0
C836 C 0.44972 0.20142 0.09173 0.0
C837 C 0.49996 0.20977 0.10525 0.0
C838 C 0.47943 0.21159 0.10427 0.0
C839 C 0.41954 0.21324 0.1036 0.0
C840 C 0.4402 0.21333 0.10338 0.0
H841 H 0.53977 0.23532 0.10605 0.0
H842 H 0.50598 0.23871 0.10639 0.0
H843 H 0.47589 0.19119 0.08302 0.0
H844 H 0.38319 0.18329 0.10151 0.0
H845 H 0.41691 0.18386 0.10181 0.0
C846 C 0.53148 0.72244 0.83454 0.0
C847 C 0.54215 0.70679 0.83184 0.0
C848 C 0.51214 0.72121 0.8353 0.0
C849 C 0.47264 0.69204 0.82122 0.0
H850 H 0.44557 0.72194 0.85554 0.0
C851 C 0.39242 0.68903 0.82733 0.0
C852 C 0.38361 0.70595 0.82841 0.0
C853 C 0.41175 0.68795 0.82891 0.0
C854 C 0.45293 0.71358 0.8458 0.0
H855 H 0.54091 0.67754 0.828 0.0
H856 H 0.50709 0.67537 0.82944 0.0
H857 H 0.4794 0.7222 0.85622 0.0
H858 H 0.38811 0.73496 0.83216 0.0
H859 H 0.4217 0.73307 0.83481 0.0
H860 H 0.44612 0.6836 0.81067 0.0
C861 C 0.51369 0.68862 0.83078 0.0
C862 C 0.47231 0.71374 0.84618 0.0
C863 C 0.53307 0.68985 0.83005 0.0
C864 C 0.39447 0.72171 0.83128 0.0
C865 C 0.41372 0.72062 0.83293 0.0
C866 C 0.45323 0.69187 0.82085 0.0
C867 C 0.50301 0.7043 0.83338 0.0
C868 C 0.4824 0.70318 0.83373 0.0
C869 C 0.42261 0.70375 0.83171 0.0
C870 C 0.44316 0.70284 0.83297 0.0
H871 H 0.53805 0.7357 0.83594 0.0
H872 H 0.50432 0.73358 0.83704 0.0
H873 H 0.47999 0.68389 0.81132 0.0
H874 H 0.38442 0.67665 0.82514 0.0
H875 H 0.41819 0.67474 0.82807 0.0
C876 C 0.70727 0.89454 0.32055 0.0
C877 C 0.72311 0.88392 0.32333 0.0
C878 C 0.70897 0.91319 0.31754 0.0
C879 C 0.73903 0.95276 0.32561 0.0
H880 H 0.70899 -0.02575 0.28761 0.0
C881 C 0.73708 0.03072 0.31467 0.0
C882 C 0.7191 0.03771 0.31276 0.0
C883 C 0.74004 0.01194 0.31338 0.0
C884 C 0.71743 -0.03151 0.29832 0.0
H885 H 0.75315 0.8846 0.32543 0.0
H886 H 0.75607 0.91742 0.32043 0.0
H887 H 0.70929 0.94132 0.29102 0.0
H888 H 0.6903 0.03058 0.30727 0.0
H889 H 0.69538 -0.00186 0.30519 0.0
H890 H 0.74661 -0.02002 0.3334 0.0
C891 C 0.74237 0.9112 0.3205 0.0
C892 C 0.7176 0.94963 0.30025 0.0
C893 C 0.74069 0.89243 0.32332 0.0
C894 C 0.70433 0.02567 0.30881 0.0
C895 C 0.70728 0.00701 0.30749 0.0
C896 C 0.73876 -0.02831 0.32377 0.0
C897 C 0.72652 0.92172 0.3174 0.0
C898 C 0.72804 0.94158 0.31419 0.0
C899 C 0.7251 -0.00015 0.31006 0.0
C900 C 0.72757 -0.02021 0.31038 0.0
H901 H 0.69353 0.88841 0.3205 0.0
H902 H 0.69648 0.921 0.31548 0.0
H903 H 0.74716 0.94693 0.33652 0.0
H904 H 0.74874 0.03967 0.31773 0.0
H905 H 0.75397 0.00687 0.31525 0.0
C906 C 0.38521 0.19552 0.83477 0.0
C907 C 0.37463 0.21136 0.83329 0.0
C908 C 0.40458 0.19652 0.83475 0.0
C909 C 0.44432 0.22763 0.84269 0.0
H910 H 0.4708 0.19212 0.81376 0.0
C911 C 0.52411 0.23079 0.83129 0.0
C912 C 0.53343 0.21412 0.83173 0.0
C913 C 0.50468 0.2312 0.83169 0.0
C914 C 0.46364 0.20202 0.82207 0.0
H915 H 0.37605 0.24073 0.83092 0.0
H916 H 0.40994 0.24245 0.83083 0.0
H917 H 0.43703 0.19138 0.81419 0.0
H918 H 0.52973 0.18486 0.83344 0.0
H919 H 0.49605 0.1856 0.83438 0.0
H920 H 0.47103 0.23818 0.85064 0.0
C921 C 0.40323 0.22928 0.83211 0.0
C922 C 0.44428 0.20159 0.82231 0.0
C923 C 0.38383 0.22827 0.83207 0.0
C924 C 0.52298 0.19793 0.83293 0.0
C925 C 0.50364 0.19834 0.83335 0.0
C926 C 0.46375 0.22803 0.84248 0.0
C927 C 0.41381 0.21339 0.83329 0.0
C928 C 0.4344 0.21428 0.83274 0.0
C929 C 0.49424 0.21494 0.83253 0.0
C930 C 0.47362 0.21511 0.8323 0.0
H931 H 0.37855 0.18229 0.83582 0.0
H932 H 0.41234 0.18406 0.83596 0.0
H933 H 0.43709 0.2375 0.85097 0.0
H934 H 0.5318 0.24349 0.83036 0.0
H935 H 0.49784 0.24421 0.83092 0.0
C936 C 0.21274 0.89392 0.31129 0.0
C937 C 0.19766 0.88198 0.31399 0.0
C938 C 0.21005 0.91262 0.31019 0.0
C939 C 0.178 0.94842 0.32456 0.0
H940 H 0.20888 -0.02194 0.29306 0.0
C941 C 0.17546 0.02764 0.32283 0.0
C942 C 0.19291 0.03642 0.32321 0.0
C943 C 0.17412 0.00876 0.32038 0.0
C944 C 0.20019 -0.03003 0.30198 0.0
H945 H 0.16779 0.88029 0.31716 0.0
H946 H 0.16302 0.91316 0.3151 0.0
H947 H 0.20949 0.94506 0.29015 0.0
H948 H 0.22261 0.03224 0.32148 0.0
H949 H 0.22026 -0.00054 0.31718 0.0
H950 H 0.1689 -0.02652 0.33651 0.0
C951 C 0.17698 0.90797 0.31401 0.0
C952 C 0.20054 0.95106 0.30032 0.0
C953 C 0.17969 0.88915 0.31505 0.0
C954 C 0.20895 0.02593 0.32121 0.0
C955 C 0.20761 0.00714 0.31861 0.0
C956 C 0.17758 -0.0326 0.32616 0.0
C957 C 0.19218 0.91994 0.31175 0.0
C958 C 0.18982 0.94002 0.3119 0.0
C959 C 0.19019 -0.00165 0.31807 0.0
C960 C 0.18904 -0.02165 0.31519 0.0
H961 H 0.22678 0.88888 0.31043 0.0
H962 H 0.22212 0.9214 0.30874 0.0
H963 H 0.16969 0.94034 0.33381 0.0
H964 H 0.16283 0.03536 0.32433 0.0
H965 H 0.16051 0.00235 0.31997 0.0
C966 C 0.52639 0.6922 0.10285 0.0
C967 C 0.53599 0.70885 0.1011 0.0
C968 C 0.50703 0.6918 0.10455 0.0
C969 C 0.46773 0.72064 0.11799 0.0
H970 H 0.43775 0.68679 0.08938 0.0
C971 C 0.3898 0.73103 0.10611 0.0
C972 C 0.37785 0.71581 0.10538 0.0
C973 C 0.40897 0.72887 0.10747 0.0
C974 C 0.44592 0.69612 0.09771 0.0
H975 H 0.53279 0.73809 0.09959 0.0
H976 H 0.49914 0.73737 0.10251 0.0
H977 H 0.47157 0.68539 0.08787 0.0
H978 H 0.37663 0.68636 0.10593 0.0
H979 H 0.41026 0.68257 0.10848 0.0
H980 H 0.44218 0.73151 0.12771 0.0
C981 C 0.50655 0.72464 0.10277 0.0
C982 C 0.4653 0.69534 0.09681 0.0
C983 C 0.52584 0.72504 0.10097 0.0
C984 C 0.38549 0.69835 0.10645 0.0
C985 C 0.40475 0.69618 0.10779 0.0
C986 C 0.4484 0.72138 0.11894 0.0
C987 C 0.49693 0.70804 0.10467 0.0
C988 C 0.4764 0.70783 0.10667 0.0
C989 C 0.41672 0.71144 0.10816 0.0
C990 C 0.43724 0.70937 0.10854 0.0
H991 H 0.53383 0.67949 0.103 0.0
H992 H 0.50001 0.6788 0.10608 0.0
H993 H 0.47591 0.73021 0.12605 0.0
H994 H 0.38439 0.74468 0.10527 0.0
H995 H 0.41776 0.74092 0.10744 0.0
C996 C 0.69775 0.89259 0.60225 0.0
C997 C 0.71433 0.88273 0.60189 0.0
C998 C 0.69812 0.91148 0.60394 0.0
C999 C 0.72747 0.95054 0.61854 0.0
H1000 H 0.69167 -0.02241 0.59029 0.0
C1001 C 0.72597 0.02979 0.61316 0.0
C1002 C 0.70827 0.03766 0.61339 0.0
C1003 C 0.72781 0.01084 0.61299 0.0
C1004 C 0.70163 -0.02977 0.59841 0.0
H1005 H 0.74435 0.88499 0.60311 0.0
H1006 H 0.745 0.9182 0.6058 0.0
H1007 H 0.69311 0.94476 0.5868 0.0
H1008 H 0.67871 0.03186 0.61472 0.0
H1009 H 0.68194 -0.00101 0.61455 0.0
H1010 H 0.73603 -0.02374 0.63001 0.0
C1011 C 0.7317 0.91122 0.60498 0.0
C1012 C 0.70247 0.95139 0.59642 0.0
C1013 C 0.73134 0.89222 0.60333 0.0
C1014 C 0.69254 0.02625 0.61438 0.0
C1015 C 0.69437 0.0074 0.61417 0.0
C1016 C 0.72669 -0.03051 0.62047 0.0
C1017 C 0.71507 0.92107 0.60521 0.0
C1018 C 0.71518 0.94126 0.60665 0.0
C1019 C 0.71198 -0.00053 0.61297 0.0
C1020 C 0.71355 -0.02052 0.61063 0.0
H1021 H 0.6844 0.8857 0.6013 0.0
H1022 H 0.68503 0.91857 0.60443 0.0
H1023 H 0.73734 0.94313 0.62672 0.0
H1024 H 0.73836 0.03823 0.61238 0.0
H1025 H 0.74156 0.00511 0.61205 0.0
C1026 C 0.21287 0.02715 0.60386 0.0
C1027 C 0.19657 0.03738 0.60259 0.0
C1028 C 0.21196 0.00839 0.60655 0.0
C1029 C 0.18192 -0.03185 0.60066 0.0
H1030 H 0.21623 0.94672 0.63502 0.0
C1031 C 0.18449 0.89027 0.61234 0.0
C1032 C 0.20243 0.88296 0.6126 0.0
C1033 C 0.182 0.90913 0.61338 0.0
C1034 C 0.20662 0.95245 0.6253 0.0
H1035 H 0.16649 0.03587 0.60288 0.0
H1036 H 0.16491 0.00293 0.60743 0.0
H1037 H 0.21531 -0.02035 0.63187 0.0
H1038 H 0.23177 0.88967 0.61478 0.0
H1039 H 0.22748 0.92229 0.61645 0.0
H1040 H 0.17361 0.94091 0.5937 0.0
C1041 C 0.17839 0.00951 0.60636 0.0
C1042 C 0.20609 -0.02867 0.62351 0.0
C1043 C 0.1793 0.02836 0.6038 0.0
C1044 C 0.21775 0.89482 0.61456 0.0
C1045 C 0.21527 0.91358 0.61564 0.0
C1046 C 0.18251 0.94921 0.60239 0.0
C1047 C 0.19473 -0.00065 0.60794 0.0
C1048 C 0.19401 -0.02062 0.61091 0.0
C1049 C 0.1974 0.92102 0.6148 0.0
C1050 C 0.19515 0.94112 0.61447 0.0
H1051 H 0.2264 0.03364 0.60294 0.0
H1052 H 0.2248 0.00091 0.6074 0.0
H1053 H 0.17253 -0.02605 0.59077 0.0
H1054 H 0.17241 0.88148 0.61082 0.0
H1055 H 0.16803 0.9144 0.6129 0.0
C1056 C 0.11535 0.26987 0.25353 0.0
C1057 C 0.09952 0.26896 0.24224 0.0
C1058 C 0.12096 0.25454 0.26333 0.0
C1059 C 0.11708 0.20481 0.2601 0.0
H1060 H 0.13684 0.20457 0.30934 0.0
C1061 C 0.13546 0.13761 0.29384 0.0
C1062 C 0.1525 0.13693 0.30318 0.0
C1063 C 0.12793 0.15427 0.28886 0.0
C1064 C 0.13147 0.20446 0.29552 0.0
H1065 H 0.07642 0.25174 0.23353 0.0
H1066 H 0.08602 0.22535 0.25068 0.0
H1067 H 0.12587 0.23309 0.29619 0.0
H1068 H 0.17453 0.15332 0.31543 0.0
H1069 H 0.16154 0.18242 0.30641 0.0
H1070 H 0.12291 0.17647 0.25909 0.0
C1071 C 0.0944 0.23765 0.25162 0.0
C1072 C 0.1252 0.22078 0.28802 0.0
C1073 C 0.08886 0.25284 0.24183 0.0
C1074 C 0.16136 0.15336 0.30824 0.0
C1075 C 0.15388 0.17006 0.30312 0.0
C1076 C 0.12337 0.18861 0.26753 0.0
C1077 C 0.11081 0.23811 0.26202 0.0
C1078 C 0.11779 0.22107 0.27026 0.0
C1079 C 0.13733 0.17069 0.29292 0.0
C1080 C 0.13051 0.18815 0.28537 0.0
H1081 H 0.12384 0.2821 0.25414 0.0
H1082 H 0.13369 0.2553 0.27122 0.0
H1083 H 0.1119 0.20464 0.24621 0.0
H1084 H 0.12814 0.12523 0.28992 0.0
H1085 H 0.1149 0.15425 0.28143 0.0
C1086 C 0.28062 0.6495 0.7884 0.0
C1087 C 0.28193 0.66468 0.80011 0.0
C1088 C 0.26341 0.64125 0.78472 0.0
C1089 C 0.2143 0.63853 0.80022 0.0
H1090 H 0.20456 0.62702 0.7494 0.0
C1091 C 0.14045 0.62935 0.7698 0.0
C1092 C 0.13781 0.61648 0.75573 0.0
C1093 C 0.15816 0.6327 0.77706 0.0
C1094 C 0.20711 0.62984 0.76371 0.0
H1095 H 0.26619 0.68268 0.81763 0.0
H1096 H 0.23623 0.66849 0.81098 0.0
H1097 H 0.23533 0.63742 0.75866 0.0
H1098 H 0.1516 0.59626 0.73905 0.0
H1099 H 0.18237 0.60199 0.75185 0.0
H1100 H 0.18583 0.63136 0.80511 0.0
C1101 C 0.24851 0.66279 0.80481 0.0
C1102 C 0.2248 0.63581 0.76903 0.0
C1103 C 0.26572 0.67101 0.80853 0.0
C1104 C 0.15313 0.6064 0.74975 0.0
C1105 C 0.17081 0.60974 0.75702 0.0
C1106 C 0.19656 0.63258 0.79487 0.0
C1107 C 0.2471 0.64801 0.79261 0.0
C1108 C 0.22859 0.64041 0.78732 0.0
C1109 C 0.17362 0.62325 0.77043 0.0
C1110 C 0.19272 0.62834 0.77651 0.0
H1111 H 0.29284 0.64418 0.78178 0.0
H1112 H 0.26287 0.62969 0.7755 0.0
H1113 H 0.21681 0.64172 0.81446 0.0
H1114 H 0.12897 0.63736 0.77473 0.0
H1115 H 0.15985 0.64329 0.78729 0.0
C1116 C 0.82514 0.67103 0.24178 0.0
C1117 C 0.81668 0.65376 0.24299 0.0
C1118 C 0.81981 0.68518 0.25329 0.0
C1119 C 0.77989 0.70081 0.27955 0.0
H1120 H 0.81486 0.73816 0.2956 0.0
C1121 C 0.75551 0.76741 0.31347 0.0
C1122 C 0.76296 0.78324 0.30554 0.0
C1123 C 0.76326 0.75042 0.30983 0.0
C1124 C 0.80493 0.72783 0.29123 0.0
H1125 H 0.79642 0.63766 0.2578 0.0
H1126 H 0.78709 0.66251 0.27805 0.0
H1127 H 0.82634 0.70997 0.28229 0.0
H1128 H 0.78497 0.7937 0.2883 0.0
H1129 H 0.79846 0.76414 0.282 0.0
H1130 H 0.75848 0.7189 0.28804 0.0
C1131 C 0.79777 0.66506 0.268 0.0
C1132 C 0.81149 0.71169 0.2836 0.0
C1133 C 0.80317 0.65081 0.25647 0.0
C1134 C 0.77885 0.78179 0.2946 0.0
C1135 C 0.78667 0.76484 0.29107 0.0
C1136 C 0.77333 0.71693 0.28726 0.0
C1137 C 0.80586 0.68248 0.26636 0.0
C1138 C 0.79904 0.69822 0.27715 0.0
C1139 C 0.77873 0.74892 0.29832 0.0
C1140 C 0.78577 0.73083 0.2927 0.0
H1141 H 0.83564 0.6738 0.23162 0.0
H1142 H 0.82615 0.69845 0.25142 0.0
H1143 H 0.76991 0.69082 0.27457 0.0
H1144 H 0.74329 0.76802 0.322 0.0
H1145 H 0.75695 0.73841 0.31575 0.0
C1146 C 0.77714 0.29882 0.77614 0.0
C1147 C 0.77805 0.30351 0.75765 0.0
C1148 C 0.75995 0.29602 0.78456 0.0
C1149 C 0.70848 0.30068 0.77674 0.0
H1150 H 0.70598 0.26264 0.81289 0.0
C1151 C 0.63775 0.27539 0.80419 0.0
C1152 C 0.63606 0.25672 0.80776 0.0
C1153 C 0.65521 0.28327 0.80093 0.0
C1154 C 0.70632 0.27315 0.80265 0.0
H1155 H 0.76172 0.30902 0.73348 0.0
H1156 H 0.73199 0.30314 0.74766 0.0
H1157 H 0.73584 0.27216 0.80123 0.0
H1158 H 0.65127 0.23165 0.81069 0.0
H1159 H 0.68132 0.24497 0.80404 0.0
H1160 H 0.67887 0.30053 0.77696 0.0
C1161 C 0.74433 0.30235 0.75607 0.0
C1162 C 0.72361 0.27893 0.79618 0.0
C1163 C 0.76146 0.3056 0.74781 0.0
C1164 C 0.65214 0.24613 0.80818 0.0
C1165 C 0.66948 0.25388 0.8045 0.0
C1166 C 0.69116 0.29456 0.78285 0.0
C1167 C 0.74327 0.29736 0.77454 0.0
C1168 C 0.72496 0.29255 0.78286 0.0
C1169 C 0.67132 0.27255 0.80072 0.0
C1170 C 0.68979 0.28044 0.79563 0.0
H1171 H 0.78973 0.29728 0.78409 0.0
H1172 H 0.75981 0.29264 0.79889 0.0
H1173 H 0.70885 0.31156 0.76689 0.0
H1174 H 0.62559 0.28391 0.80392 0.0
H1175 H 0.656 0.29775 0.79848 0.0
C1176 C 0.18518 0.75138 0.60516 0.0
C1177 C 0.1822 0.76965 0.61001 0.0
C1178 C 0.17409 0.73749 0.61231 0.0
C1179 C 0.1441 0.72751 0.65165 0.0
H1180 H 0.13141 0.68408 0.62376 0.0
C1181 C 0.09979 0.67018 0.68248 0.0
C1182 C 0.10632 0.65236 0.68012 0.0
C1183 C 0.10723 0.68453 0.67242 0.0
C1184 C 0.13495 0.69608 0.63174 0.0
H1185 H 0.16469 0.78765 0.62573 0.0
H1186 H 0.1451 0.76339 0.63801 0.0
H1187 H 0.14719 0.70947 0.60884 0.0
H1188 H 0.12531 0.6356 0.66469 0.0
H1189 H 0.13839 0.66078 0.64711 0.0
H1190 H 0.132 0.71411 0.67456 0.0
C1191 C 0.15629 0.7598 0.6289 0.0
C1192 C 0.14399 0.71064 0.62321 0.0
C1193 C 0.16745 0.77373 0.62177 0.0
C1194 C 0.11996 0.64914 0.66686 0.0
C1195 C 0.12742 0.66356 0.65675 0.0
C1196 C 0.135 0.71301 0.66014 0.0
C1197 C 0.15965 0.74148 0.62446 0.0
C1198 C 0.14884 0.72648 0.63311 0.0
C1199 C 0.12139 0.68147 0.65971 0.0
C1200 C 0.13043 0.69707 0.65033 0.0
H1201 H 0.19641 0.74768 0.59615 0.0
H1202 H 0.17728 0.72356 0.60876 0.0
H1203 H 0.14792 0.73931 0.65981 0.0
H1204 H 0.08916 0.67318 0.69242 0.0
H1205 H 0.10203 0.6981 0.67478 0.0
C1206 C 0.63682 0.64986 0.13492 0.0
C1207 C 0.63578 0.66439 0.12264 0.0
C1208 C 0.65378 0.64147 0.13841 0.0
C1209 C 0.70255 0.63752 0.12202 0.0
H1210 H 0.71295 0.62895 0.17312 0.0
C1211 C 0.7767 0.63088 0.15184 0.0
C1212 C 0.77941 0.61854 0.16614 0.0
C1213 C 0.75892 0.63373 0.14474 0.0
C1214 C 0.7102 0.63096 0.15875 0.0
H1215 H 0.65167 0.68098 0.10379 0.0
H1216 H 0.6812 0.66662 0.11013 0.0
H1217 H 0.68221 0.63867 0.16391 0.0
H1218 H 0.76564 0.59882 0.18352 0.0
H1219 H 0.73474 0.60374 0.17107 0.0
H1220 H 0.73084 0.63032 0.11702 0.0
C1221 C 0.6689 0.6615 0.1169 0.0
C1222 C 0.69252 0.63652 0.15345 0.0
C1223 C 0.65194 0.66982 0.11335 0.0
C1224 C 0.76407 0.60854 0.17261 0.0
C1225 C 0.74631 0.61142 0.16554 0.0
C1226 C 0.72028 0.63203 0.12734 0.0
C1227 C 0.67012 0.64747 0.12977 0.0
C1228 C 0.68851 0.64007 0.13505 0.0
C1229 C 0.74347 0.62432 0.15181 0.0
C1230 C 0.72435 0.62887 0.1458 0.0
H1231 H 0.62462 0.64522 0.1422 0.0
H1232 H 0.65414 0.63047 0.14814 0.0
H1233 H 0.69987 0.63989 0.10769 0.0
H1234 H 0.78821 0.63879 0.14652 0.0
H1235 H 0.75718 0.64386 0.13426 0.0
C1236 C 0.74334 0.14713 0.62858 0.0
C1237 C 0.73675 0.14796 0.61058 0.0
C1238 C 0.75459 0.16111 0.63571 0.0
C1239 C 0.76678 0.20967 0.62704 0.0
H1240 H 0.80077 0.2019 0.6672 0.0
C1241 C 0.79285 0.26887 0.67257 0.0
C1242 C 0.81012 0.26754 0.68135 0.0
C1243 C 0.78578 0.25434 0.6622 0.0
C1244 C 0.79162 0.20439 0.65577 0.0
H1245 H 0.73775 0.16333 0.58552 0.0
H1246 H 0.75823 0.18712 0.59752 0.0
H1247 H 0.78645 0.17596 0.65197 0.0
H1248 H 0.83403 0.25039 0.68533 0.0
H1249 H 0.82223 0.22543 0.66647 0.0
H1250 H 0.77256 0.23804 0.63029 0.0
C1251 C 0.75408 0.17621 0.6065 0.0
C1252 C 0.78309 0.18943 0.64721 0.0
C1253 C 0.74248 0.16246 0.59953 0.0
C1254 C 0.82057 0.25172 0.67887 0.0
C1255 C 0.8137 0.23733 0.66817 0.0
C1256 C 0.77559 0.2246 0.63535 0.0
C1257 C 0.75984 0.17605 0.62487 0.0
C1258 C 0.77026 0.19185 0.63295 0.0
C1259 C 0.796 0.23824 0.66003 0.0
C1260 C 0.78785 0.22223 0.65009 0.0
H1261 H 0.73899 0.13618 0.63745 0.0
H1262 H 0.75845 0.16052 0.64997 0.0
H1263 H 0.75682 0.21224 0.6163 0.0
H1264 H 0.78441 0.28084 0.67438 0.0
H1265 H 0.77198 0.25554 0.65647 0.0
C1266 C 0.15112 0.31128 0.17312 0.0
C1267 C 0.13473 0.30326 0.16614 0.0
C1268 C 0.16834 0.30737 0.16539 0.0
C1269 C 0.19118 0.27144 0.13878 0.0
H1270 H 0.23182 0.30639 0.13657 0.0
C1271 C 0.26294 0.25076 0.11223 0.0
C1272 C 0.27821 0.25631 0.123 0.0
C1273 C 0.24545 0.2583 0.11498 0.0
C1274 C 0.22062 0.29646 0.13717 0.0
H1275 H 0.12356 0.28554 0.14492 0.0
H1276 H 0.15355 0.27894 0.13127 0.0
H1277 H 0.20098 0.31643 0.14568 0.0
H1278 H 0.28717 0.27481 0.14456 0.0
H1279 H 0.25662 0.28785 0.14943 0.0
H1280 H 0.21081 0.25142 0.13062 0.0
C1281 C 0.15312 0.28798 0.14297 0.0
C1282 C 0.20295 0.3022 0.1424 0.0
C1283 C 0.1359 0.29185 0.15074 0.0
C1284 C 0.27573 0.27019 0.13602 0.0
C1285 C 0.25821 0.27774 0.13876 0.0
C1286 C 0.2088 0.26572 0.13353 0.0
C1287 C 0.1696 0.29537 0.15044 0.0
C1288 C 0.18806 0.28971 0.14348 0.0
C1289 C 0.24277 0.27159 0.12855 0.0
C1290 C 0.22379 0.2781 0.13286 0.0
H1291 H 0.15077 0.32014 0.18497 0.0
H1292 H 0.18072 0.31317 0.17162 0.0
H1293 H 0.18016 0.26136 0.13978 0.0
H1294 H 0.26435 0.2402 0.10198 0.0
H1295 H 0.23392 0.25348 0.10666 0.0
C1296 C 0.29445 0.16463 0.15212 0.0
C1297 C 0.30684 0.17879 0.1569 0.0
C1298 C 0.28654 0.15361 0.1656 0.0
C1299 C 0.29076 0.14095 0.21469 0.0
H1300 H 0.23813 0.1304 0.2099 0.0
C1301 C 0.24378 0.11843 0.27493 0.0
C1302 C 0.2299 0.10533 0.27113 0.0
C1303 C 0.25475 0.12551 0.26085 0.0
C1304 C 0.25289 0.13301 0.21136 0.0
H1305 H 0.32106 0.19205 0.17963 0.0
H1306 H 0.3071 0.17321 0.20294 0.0
H1307 H 0.25436 0.14573 0.18529 0.0
H1308 H 0.21737 0.08874 0.24965 0.0
H1309 H 0.23646 0.10098 0.22534 0.0
H1310 H 0.28906 0.12861 0.24105 0.0
C1311 C 0.30364 0.17036 0.18882 0.0
C1312 C 0.26223 0.14176 0.19719 0.0
C1313 C 0.31156 0.18129 0.17539 0.0
C1314 C 0.22778 0.09896 0.2531 0.0
C1315 C 0.23867 0.10603 0.23909 0.0
C1316 C 0.28137 0.13227 0.22892 0.0
C1317 C 0.29082 0.15654 0.18415 0.0
C1318 C 0.28126 0.14599 0.19871 0.0
C1319 C 0.25202 0.11965 0.24272 0.0
C1320 C 0.2623 0.1283 0.22745 0.0
H1321 H 0.29057 0.16226 0.13801 0.0
H1322 H 0.27693 0.14291 0.16148 0.0
H1323 H 0.30548 0.14374 0.21623 0.0
H1324 H 0.24579 0.12364 0.28865 0.0
H1325 H 0.26487 0.13606 0.26407 0.0
C1326 C 0.33034 0.74343 0.75263 0.0
C1327 C 0.31942 0.74285 0.76844 0.0
C1328 C 0.32506 0.75392 0.73779 0.0
C1329 C 0.29375 0.79009 0.72174 0.0
H1330 H 0.29591 0.76272 0.67644 0.0
C1331 C 0.25371 0.80931 0.65584 0.0
C1332 C 0.26177 0.80488 0.63898 0.0
C1333 C 0.26249 0.80464 0.67218 0.0
C1334 C 0.29552 0.77076 0.68885 0.0
H1335 H 0.29498 0.75377 0.78152 0.0
H1336 H 0.28554 0.772 0.75532 0.0
H1337 H 0.30801 0.74956 0.70415 0.0
H1338 H 0.28605 0.79344 0.62605 0.0
H1339 H 0.30158 0.7858 0.65445 0.0
H1340 H 0.28095 0.81123 0.70627 0.0
C1341 C 0.29829 0.76438 0.75453 0.0
C1342 C 0.30245 0.76317 0.7048 0.0
C1343 C 0.30366 0.75391 0.7695 0.0
C1344 C 0.27934 0.7968 0.63881 0.0
C1345 C 0.28819 0.79232 0.6551 0.0
C1346 C 0.28685 0.79776 0.70567 0.0
C1347 C 0.30864 0.76402 0.73831 0.0
C1348 C 0.30166 0.7727 0.72143 0.0
C1349 C 0.27958 0.79559 0.67197 0.0
C1350 C 0.28765 0.78815 0.68904 0.0
H1351 H 0.34275 0.73532 0.75148 0.0
H1352 H 0.33358 0.7537 0.72565 0.0
H1353 H 0.29303 0.79778 0.73435 0.0
H1354 H 0.24017 0.81553 0.65644 0.0
H1355 H 0.25542 0.80729 0.6849 0.0
C1356 C 0.6808 0.82505 0.25666 0.0
C1357 C 0.68421 0.81463 0.27226 0.0
C1358 C 0.66964 0.8182 0.24252 0.0
C1359 C 0.63698 0.78 0.23011 0.0
H1360 H 0.65205 0.7925 0.18106 0.0
C1361 C 0.59823 0.74959 0.16814 0.0
C1362 C 0.60886 0.74469 0.15291 0.0
C1363 C 0.60594 0.76033 0.18208 0.0
C1364 C 0.64773 0.78869 0.19463 0.0
H1365 H 0.67832 0.789 0.28549 0.0
H1366 H 0.65952 0.77664 0.26057 0.0
H1367 H 0.66816 0.80615 0.20688 0.0
H1368 H 0.63573 0.74754 0.14008 0.0
H1369 H 0.64952 0.76559 0.1647 0.0
H1370 H 0.61746 0.76156 0.21789 0.0
C1371 C 0.66493 0.79037 0.25937 0.0
C1372 C 0.65679 0.79681 0.20955 0.0
C1373 C 0.67579 0.79741 0.27369 0.0
C1374 C 0.62717 0.75126 0.15159 0.0
C1375 C 0.63503 0.76168 0.16574 0.0
C1376 C 0.62815 0.77163 0.2152 0.0
C1377 C 0.66194 0.80055 0.24343 0.0
C1378 C 0.65163 0.79252 0.22753 0.0
C1379 C 0.62463 0.76608 0.18137 0.0
C1380 C 0.63345 0.77576 0.19722 0.0
H1381 H 0.68697 0.83847 0.25526 0.0
H1382 H 0.66727 0.82671 0.23078 0.0
H1383 H 0.63234 0.77652 0.24367 0.0
H1384 H 0.584 0.74487 0.16942 0.0
H1385 H 0.59726 0.76385 0.19356 0.0
C1386 C 0.63779 0.13225 0.63875 0.0
C1387 C 0.65357 0.12122 0.63913 0.0
C1388 C 0.62917 0.13749 0.65493 0.0
C1389 C 0.62679 0.1291 0.70489 0.0
H1390 H 0.61399 0.18014 0.70621 0.0
C1391 C 0.612 0.17051 0.77128 0.0
C1392 C 0.59792 0.18356 0.77024 0.0
C1393 C 0.61723 0.16071 0.75571 0.0
C1394 C 0.61723 0.1658 0.70603 0.0
H1395 H 0.67211 0.10627 0.65678 0.0
H1396 H 0.65731 0.11576 0.68506 0.0
H1397 H 0.62557 0.16688 0.67819 0.0
H1398 H 0.57746 0.19563 0.75233 0.0
H1399 H 0.58642 0.1785 0.72543 0.0
H1400 H 0.61878 0.12832 0.73304 0.0
C1401 C 0.65143 0.12017 0.67224 0.0
C1402 C 0.62384 0.15816 0.68992 0.0
C1403 C 0.65997 0.11479 0.65601 0.0
C1404 C 0.58857 0.1859 0.75358 0.0
C1405 C 0.59373 0.17612 0.73811 0.0
C1406 C 0.62021 0.13681 0.72112 0.0
C1407 C 0.63624 0.132 0.6719 0.0
C1408 C 0.62865 0.13971 0.68909 0.0
C1409 C 0.60845 0.16379 0.73886 0.0
C1410 C 0.6153 0.15524 0.72181 0.0
H1411 H 0.63236 0.13725 0.62596 0.0
H1412 H 0.61721 0.14624 0.65415 0.0
H1413 H 0.63029 0.11482 0.70469 0.0
H1414 H 0.61945 0.16837 0.78392 0.0
H1415 H 0.62866 0.15133 0.75669 0.0
C1416 C 0.75257 0.76784 0.6052 0.0
C1417 C 0.75775 0.78196 0.61727 0.0
C1418 C 0.75962 0.75037 0.60736 0.0
C1419 C 0.79591 0.72338 0.63032 0.0
H1420 H 0.75821 0.68534 0.62878 0.0
C1421 C 0.80617 0.65228 0.66186 0.0
C1422 C 0.79722 0.63721 0.65364 0.0
C1423 C 0.80347 0.66981 0.65517 0.0
C1424 C 0.76904 0.69568 0.62892 0.0
H1425 H 0.77522 0.78898 0.6405 0.0
H1426 H 0.78744 0.75841 0.64432 0.0
H1427 H 0.74997 0.71625 0.62103 0.0
H1428 H 0.77931 0.62867 0.63125 0.0
H1429 H 0.77496 0.65916 0.61934 0.0
H1430 H 0.81494 0.70275 0.63845 0.0
C1431 C 0.77798 0.76091 0.63313 0.0
C1432 C 0.76428 0.71346 0.6245 0.0
C1433 C 0.77091 0.77842 0.63097 0.0
C1434 C 0.78626 0.63999 0.63803 0.0
C1435 C 0.78367 0.6575 0.63127 0.0
C1436 C 0.80071 0.70553 0.63467 0.0
C1437 C 0.77202 0.74659 0.62163 0.0
C1438 C 0.7776 0.72755 0.62529 0.0
C1439 C 0.79185 0.67269 0.64003 0.0
C1440 C 0.78727 0.69148 0.63419 0.0
H1441 H 0.74261 0.77009 0.59437 0.0
H1442 H 0.75502 0.73972 0.59806 0.0
H1443 H 0.80653 0.73392 0.63088 0.0
H1444 H 0.81469 0.65065 0.67392 0.0
H1445 H 0.80986 0.68117 0.66238 0.0
C1446 C 0.66714 0.2397 0.10154 0.0
C1447 C 0.65121 0.23436 0.11119 0.0
C1448 C 0.68011 0.25169 0.10938 0.0
C1449 C 0.6882 0.2827 0.14955 0.0
H1450 H 0.73976 0.27325 0.13842 0.0
C1451 C 0.74673 0.32375 0.18499 0.0
C1452 C 0.76289 0.31438 0.18977 0.0
C1453 C 0.73356 0.31579 0.17329 0.0
C1454 C 0.72546 0.276 0.14188 0.0
H1455 H 0.63613 0.23766 0.13643 0.0
H1456 H 0.6591 0.25787 0.15053 0.0
H1457 H 0.71555 0.25607 0.12285 0.0
H1458 H 0.77813 0.28947 0.18582 0.0
H1459 H 0.75487 0.27518 0.16614 0.0
H1460 H 0.69815 0.30164 0.16958 0.0
C1461 C 0.66141 0.25336 0.13666 0.0
C1462 C 0.71146 0.26633 0.13263 0.0
C1463 C 0.64821 0.24168 0.12862 0.0
C1464 C 0.76588 0.29708 0.18223 0.0
C1465 C 0.75251 0.28893 0.17085 0.0
C1466 C 0.70221 0.29211 0.15906 0.0
C1467 C 0.67773 0.2583 0.12727 0.0
C1468 C 0.6926 0.26943 0.13641 0.0
C1469 C 0.736 0.29806 0.16642 0.0
C1470 C 0.72107 0.28879 0.15548 0.0
H1471 H 0.66969 0.2344 0.08797 0.0
H1472 H 0.69214 0.25555 0.10144 0.0
H1473 H 0.6739 0.28578 0.15267 0.0
H1474 H 0.74415 0.3372 0.19048 0.0
H1475 H 0.72134 0.3235 0.16985 0.0
C1476 C 0.09206 0.25594 0.6821 0.0
C1477 C 0.10235 0.27221 0.6805 0.0
C1478 C 0.09749 0.24022 0.67295 0.0
C1479 C 0.12665 0.22157 0.63622 0.0
H1480 H 0.12734 0.17925 0.66745 0.0
C1481 C 0.16332 0.154 0.61714 0.0
C1482 C 0.15545 0.13766 0.62352 0.0
C1483 C 0.15571 0.17077 0.62202 0.0
C1484 C 0.12694 0.1908 0.65839 0.0
H1485 H 0.12587 0.28494 0.66711 0.0
H1486 H 0.13546 0.25724 0.65106 0.0
H1487 H 0.11625 0.20796 0.67936 0.0
H1488 H 0.13269 0.1261 0.63903 0.0
H1489 H 0.11914 0.1552 0.64707 0.0
H1490 H 0.13742 0.20426 0.61522 0.0
C1491 C 0.12313 0.25678 0.65944 0.0
C1492 C 0.12063 0.20732 0.66527 0.0
C1493 C 0.11765 0.27262 0.66865 0.0
C1494 C 0.13924 0.13842 0.63405 0.0
C1495 C 0.13154 0.15515 0.63878 0.0
C1496 C 0.13291 0.20493 0.62927 0.0
C1497 C 0.11339 0.24029 0.66195 0.0
C1498 C 0.12031 0.22288 0.65428 0.0
C1499 C 0.13998 0.17156 0.63328 0.0
C1500 C 0.13305 0.18931 0.64027 0.0
H1501 H 0.08002 0.25516 0.69088 0.0
H1502 H 0.08944 0.22785 0.67483 0.0
H1503 H 0.1265 0.23332 0.62741 0.0
H1504 H 0.17585 0.15391 0.60902 0.0
H1505 H 0.16265 0.1831 0.61761 0.0
C1506 C 0.1587 0.60867 0.17112 0.0
C1507 C 0.14168 0.61461 0.16394 0.0
C1508 C 0.17546 0.61357 0.16281 0.0
C1509 C 0.19567 0.63264 0.12045 0.0
H1510 H 0.23226 0.6544 0.1531 0.0
C1511 C 0.24716 0.68755 0.09753 0.0
C1512 C 0.26516 0.6883 0.105 0.0
C1513 C 0.2342 0.67476 0.10359 0.0
C1514 C 0.22241 0.64803 0.14379 0.0
H1515 H 0.12893 0.62952 0.14185 0.0
H1516 H 0.15806 0.63803 0.12743 0.0
H1517 H 0.20548 0.63835 0.16566 0.0
H1518 H 0.28382 0.67575 0.12435 0.0
H1519 H 0.26102 0.65332 0.13502 0.0
H1520 H 0.21227 0.64286 0.09859 0.0
C1521 C 0.15849 0.62954 0.13943 0.0
C1522 C 0.20704 0.63883 0.15099 0.0
C1523 C 0.14177 0.62476 0.14778 0.0
C1524 C 0.27006 0.67556 0.11834 0.0
C1525 C 0.25699 0.66277 0.12451 0.0
C1526 C 0.21104 0.64181 0.11325 0.0
C1527 C 0.17555 0.62436 0.14707 0.0
C1528 C 0.19322 0.63151 0.1394 0.0
C1529 C 0.23884 0.66238 0.11732 0.0
C1530 C 0.22428 0.6501 0.12485 0.0
H1531 H 0.15914 0.6008 0.18353 0.0
H1532 H 0.18837 0.60922 0.16891 0.0
H1533 H 0.18542 0.62686 0.11117 0.0
H1534 H 0.2429 0.69709 0.08718 0.0
H1535 H 0.22028 0.67505 0.09795 0.0
C1536 C 0.78163 0.28571 0.28588 0.0
C1537 C 0.79226 0.28651 0.26989 0.0
C1538 C 0.77714 0.26899 0.2937 0.0
C1539 C 0.78704 0.21932 0.29285 0.0
H1540 H 0.73574 0.21602 0.30837 0.0
C1541 C 0.7463 0.15159 0.30723 0.0
C1542 C 0.73389 0.15204 0.32198 0.0
C1543 C 0.75599 0.16739 0.30208 0.0
C1544 C 0.75018 0.21674 0.30432 0.0
H1545 H 0.80732 0.2704 0.25011 0.0
H1546 H 0.79908 0.24116 0.26353 0.0
H1547 H 0.74802 0.24476 0.29754 0.0
H1548 H 0.7231 0.16899 0.34375 0.0
H1549 H 0.74002 0.19622 0.33492 0.0
H1550 H 0.78884 0.19094 0.29932 0.0
C1551 C 0.79444 0.25347 0.27018 0.0
C1552 C 0.75726 0.23328 0.29816 0.0
C1553 C 0.79911 0.27025 0.26244 0.0
C1554 C 0.73228 0.16823 0.33211 0.0
C1555 C 0.74194 0.18388 0.32703 0.0
C1556 C 0.77987 0.20264 0.29898 0.0
C1557 C 0.78294 0.25262 0.28561 0.0
C1558 C 0.77581 0.23486 0.29246 0.0
C1559 C 0.75343 0.18383 0.31162 0.0
C1560 C 0.76138 0.20125 0.30491 0.0
H1561 H 0.77634 0.29799 0.2921 0.0
H1562 H 0.76868 0.26889 0.30587 0.0
H1563 H 0.80141 0.22008 0.28863 0.0
H1564 H 0.74786 0.13931 0.29918 0.0
H1565 H 0.76475 0.16695 0.29013 0.0
C1566 C 0.14003 0.29706 0.7705 0.0
C1567 C 0.13872 0.30914 0.75578 0.0
C1568 C 0.15727 0.2933 0.77838 0.0
C1569 C 0.20662 0.29285 0.76634 0.0
H1570 H 0.21401 0.28383 0.81786 0.0
C1571 C 0.27757 0.27064 0.79373 0.0
C1572 C 0.27729 0.256 0.80595 0.0
C1573 C 0.26124 0.27978 0.78944 0.0
C1574 C 0.21213 0.28623 0.80343 0.0
H1575 H 0.15442 0.32749 0.73848 0.0
H1576 H 0.18439 0.32105 0.75234 0.0
H1577 H 0.18419 0.2952 0.8071 0.0
H1578 H 0.25971 0.24002 0.82385 0.0
H1579 H 0.23122 0.25576 0.81615 0.0
H1580 H 0.23428 0.28346 0.76251 0.0
C1581 C 0.17213 0.31424 0.75757 0.0
C1582 C 0.19506 0.29275 0.79727 0.0
C1583 C 0.15492 0.31799 0.74969 0.0
C1584 C 0.26044 0.25122 0.81437 0.0
C1585 C 0.24409 0.26033 0.81003 0.0
C1586 C 0.22364 0.28632 0.77247 0.0
C1587 C 0.17356 0.30154 0.77172 0.0
C1588 C 0.19206 0.29595 0.77862 0.0
C1589 C 0.24423 0.27446 0.79722 0.0
C1590 C 0.22655 0.28274 0.79106 0.0
H1591 H 0.12784 0.29001 0.77556 0.0
H1592 H 0.15789 0.28334 0.78916 0.0
H1593 H 0.20468 0.29485 0.75184 0.0
H1594 H 0.29032 0.27479 0.78711 0.0
H1595 H 0.26189 0.29083 0.77978 0.0
C1596 C 0.16716 0.77054 0.30116 0.0
C1597 C 0.18093 0.76769 0.31445 0.0
C1598 C 0.15681 0.75585 0.29406 0.0
C1599 C 0.1607 0.7065 0.287 0.0
H1600 H 0.10823 0.70831 0.27536 0.0
C1601 C 0.12236 0.64435 0.25596 0.0
C1602 C 0.1102 0.64792 0.24141 0.0
C1603 C 0.12936 0.65859 0.26684 0.0
C1604 C 0.12292 0.70763 0.27842 0.0
H1605 H 0.19384 0.74726 0.33141 0.0
H1606 H 0.17579 0.72188 0.31917 0.0
H1607 H 0.12332 0.73429 0.29047 0.0
H1608 H 0.09541 0.66927 0.22734 0.0
H1609 H 0.10783 0.69394 0.24599 0.0
H1610 H 0.16054 0.68013 0.2746 0.0
C1611 C 0.17323 0.73536 0.31396 0.0
C1612 C 0.13155 0.72252 0.28708 0.0
C1613 C 0.18352 0.74998 0.32103 0.0
C1614 C 0.10475 0.66597 0.23841 0.0
C1615 C 0.11179 0.68017 0.24922 0.0
C1616 C 0.15212 0.69168 0.27829 0.0
C1617 C 0.16005 0.73804 0.30011 0.0
C1618 C 0.15056 0.72214 0.29139 0.0
C1619 C 0.12441 0.67671 0.26339 0.0
C1620 C 0.13315 0.69207 0.27377 0.0
H1621 H 0.1648 0.78401 0.2958 0.0
H1622 H 0.1468 0.75834 0.28333 0.0
H1623 H 0.17544 0.70588 0.28984 0.0
H1624 H 0.12676 0.63061 0.25873 0.0
H1625 H 0.13882 0.6554 0.27785 0.0
C1626 C 0.7683 0.6155 0.74465 0.0
C1627 C 0.76328 0.60288 0.73096 0.0
C1628 C 0.75505 0.62175 0.75707 0.0
C1629 C 0.70765 0.61183 0.77486 0.0
H1630 H 0.70493 0.66409 0.78122 0.0
C1631 C 0.63986 0.64889 0.79081 0.0
C1632 C 0.64036 0.66422 0.80236 0.0
C1633 C 0.65623 0.64008 0.78603 0.0
C1634 C 0.70567 0.64944 0.7799 0.0
H1635 H 0.74054 0.58639 0.7201 0.0
H1636 H 0.71762 0.59732 0.74147 0.0
H1637 H 0.73161 0.65098 0.76584 0.0
H1638 H 0.65845 0.68188 0.8185 0.0
H1639 H 0.68705 0.66649 0.81004 0.0
H1640 H 0.68133 0.61037 0.78826 0.0
C1641 C 0.73177 0.60233 0.7428 0.0
C1642 C 0.72099 0.64192 0.7711 0.0
C1643 C 0.74492 0.59617 0.7304 0.0
C1644 C 0.65756 0.67013 0.80955 0.0
C1645 C 0.67396 0.66138 0.80464 0.0
C1646 C 0.69232 0.61935 0.78359 0.0
C1647 C 0.73656 0.61538 0.75613 0.0
C1648 C 0.72189 0.62306 0.76801 0.0
C1649 C 0.67349 0.64645 0.79259 0.0
C1650 C 0.69092 0.63827 0.78576 0.0
H1651 H 0.78233 0.62091 0.74548 0.0
H1652 H 0.7592 0.63171 0.76728 0.0
H1653 H 0.70811 0.59721 0.77302 0.0
H1654 H 0.62687 0.64395 0.78506 0.0
H1655 H 0.6554 0.62873 0.77656 0.0
C1656 C 0.67461 0.82166 0.66718 0.0
C1657 C 0.67879 0.81117 0.65167 0.0
C1658 C 0.66415 0.81426 0.68136 0.0
C1659 C 0.65694 0.77191 0.70418 0.0
H1660 H 0.61418 0.79411 0.72691 0.0
C1661 C 0.62978 0.75031 0.77479 0.0
C1662 C 0.61132 0.74394 0.77435 0.0
C1663 C 0.63706 0.75999 0.76005 0.0
C1664 C 0.62614 0.78785 0.72069 0.0
H1665 H 0.67487 0.7849 0.63858 0.0
H1666 H 0.65698 0.77174 0.66375 0.0
H1667 H 0.62774 0.80774 0.69943 0.0
H1668 H 0.5857 0.74365 0.75872 0.0
H1669 H 0.59829 0.76116 0.73327 0.0
H1670 H 0.65571 0.75232 0.72565 0.0
C1671 C 0.66164 0.78577 0.66473 0.0
C1672 C 0.63385 0.79559 0.70503 0.0
C1673 C 0.67174 0.79332 0.65031 0.0
C1674 C 0.59999 0.74837 0.75941 0.0
C1675 C 0.60715 0.7584 0.74488 0.0
C1676 C 0.64951 0.76442 0.72004 0.0
C1677 C 0.65804 0.7961 0.68049 0.0
C1678 C 0.64926 0.78762 0.69659 0.0
C1679 C 0.62589 0.76383 0.74484 0.0
C1680 C 0.63404 0.7723 0.72842 0.0
H1681 H 0.67985 0.83547 0.66855 0.0
H1682 H 0.66162 0.82246 0.69341 0.0
H1683 H 0.66895 0.76564 0.69803 0.0
H1684 H 0.63887 0.74698 0.78606 0.0
H1685 H 0.65154 0.76414 0.76033 0.0
C1686 C 0.64481 0.12404 0.28019 0.0
C1687 C 0.65935 0.1119 0.28351 0.0
C1688 C 0.63806 0.12653 0.26247 0.0
C1689 C 0.65395 0.12297 0.21519 0.0
H1690 H 0.60239 0.13146 0.20293 0.0
C1691 C 0.63265 0.13908 0.1417 0.0
C1692 C 0.62036 0.15361 0.13952 0.0
C1693 C 0.63537 0.13132 0.15883 0.0
C1694 C 0.61686 0.12921 0.20616 0.0
H1695 H 0.67743 0.09204 0.27094 0.0
H1696 H 0.66555 0.09627 0.24018 0.0
H1697 H 0.61075 0.12273 0.23398 0.0
H1698 H 0.60063 0.17082 0.1535 0.0
H1699 H 0.60564 0.15754 0.1834 0.0
H1700 H 0.66024 0.12992 0.18769 0.0
C1701 C 0.65961 0.10413 0.2512 0.0
C1702 C 0.62163 0.1242 0.22394 0.0
C1703 C 0.66635 0.10165 0.26886 0.0
C1704 C 0.61021 0.15964 0.15469 0.0
C1705 C 0.61302 0.15195 0.17185 0.0
C1706 C 0.64921 0.12802 0.1975 0.0
C1707 C 0.64571 0.11692 0.24772 0.0
C1708 C 0.64026 0.12115 0.22867 0.0
C1709 C 0.62596 0.13798 0.17421 0.0
C1710 C 0.63063 0.13135 0.19277 0.0
H1711 H 0.63908 0.13214 0.29115 0.0
H1712 H 0.62742 0.13657 0.26023 0.0
H1713 H 0.66848 0.12108 0.21846 0.0
H1714 H 0.64056 0.13396 0.13027 0.0
H1715 H 0.64514 0.12032 0.16008 0.0
C1716 C 0.24189 0.12562 0.65189 0.0
C1717 C 0.23491 0.10775 0.65289 0.0
C1718 C 0.25211 0.13313 0.66643 0.0
C1719 C 0.28025 0.12321 0.7066 0.0
H1720 H 0.25871 0.16659 0.72774 0.0
C1721 C 0.31503 0.17039 0.76134 0.0
C1722 C 0.30392 0.17511 0.77633 0.0
C1723 C 0.30758 0.16033 0.74676 0.0
C1724 C 0.26481 0.15445 0.72199 0.0
H1725 H 0.23412 0.08335 0.6693 0.0
H1726 H 0.25255 0.09629 0.69439 0.0
H1727 H 0.24515 0.15322 0.69999 0.0
H1728 H 0.27646 0.17256 0.78805 0.0
H1729 H 0.26328 0.15534 0.76224 0.0
H1730 H 0.30015 0.12471 0.72847 0.0
C1731 C 0.24987 0.10455 0.68251 0.0
C1732 C 0.2572 0.14693 0.70606 0.0
C1733 C 0.23931 0.09718 0.66818 0.0
C1734 C 0.28537 0.16901 0.77675 0.0
C1735 C 0.27781 0.15929 0.76196 0.0
C1736 C 0.28813 0.13098 0.72235 0.0
C1737 C 0.25589 0.12274 0.682 0.0
C1738 C 0.26478 0.1312 0.69827 0.0
C1739 C 0.28878 0.15514 0.74671 0.0
C1740 C 0.28037 0.14658 0.73026 0.0
H1741 H 0.23859 0.13411 0.64033 0.0
H1742 H 0.25669 0.14719 0.66572 0.0
H1743 H 0.28629 0.11104 0.70085 0.0
H1744 H 0.32938 0.1749 0.76067 0.0
H1745 H 0.31629 0.15734 0.73515 0.0
C1746 C 0.2499 0.8189 0.26793 0.0
C1747 C 0.25659 0.80811 0.28222 0.0
C1748 C 0.25684 0.81692 0.25029 0.0
C1749 C 0.29491 0.79711 0.22292 0.0
H1750 H 0.25671 0.79275 0.1857 0.0
C1751 C 0.30665 0.76239 0.15308 0.0
C1752 C 0.29693 0.76881 0.13779 0.0
C1753 C 0.30368 0.76994 0.17035 0.0
C1754 C 0.26763 0.79428 0.1958 0.0
H1755 H 0.27654 0.78743 0.28933 0.0
H1756 H 0.28855 0.78386 0.25848 0.0
H1757 H 0.24821 0.80113 0.2166 0.0
H1758 H 0.2773 0.78894 0.12853 0.0
H1759 H 0.2724 0.80231 0.15859 0.0
H1760 H 0.31429 0.78991 0.20209 0.0
C1761 C 0.27801 0.79395 0.26096 0.0
C1762 C 0.26274 0.79907 0.21356 0.0
C1763 C 0.27106 0.79594 0.27864 0.0
C1764 C 0.28488 0.78354 0.14004 0.0
C1765 C 0.28199 0.79115 0.15729 0.0
C1766 C 0.29983 0.79236 0.20509 0.0
C1767 C 0.27064 0.80409 0.24651 0.0
C1768 C 0.27627 0.80035 0.22739 0.0
C1769 C 0.291 0.78414 0.17273 0.0
C1770 C 0.2862 0.79067 0.19136 0.0
H1771 H 0.23889 0.82855 0.27021 0.0
H1772 H 0.25112 0.82517 0.23951 0.0
H1773 H 0.30568 0.79818 0.23324 0.0
H1774 H 0.31604 0.75106 0.15185 0.0
H1775 H 0.31073 0.76407 0.18193 0.0
loop_
_geom_bond_atom_site_label_1
_geom_bond_atom_site_label_2
_geom_bond_distance
_geom_bond_site_symmetry_2
_ccdc_geom_bond_type
C0 O1 1.306 . S
C0 O3 1.160 . S
O1 C0 1.306 . S
O1 Cd2 2.228 . S
Cd2 O1 2.228 . S
Cd2 O6 2.273 . S
Cd2 O10 2.277 . S
O3 C0 1.160 . S
O3 Cd4 2.203 . S
Cd4 O3 2.203 . S
Cd4 O6 2.411 . S
Cd4 O7 2.333 . S
Cd4 O8 2.352 . S
Cd4 O12 2.277 . S
Cd4 O13 2.356 . S
C5 O10 1.209 . S
C5 O12 1.226 . S
O6 Cd2 2.273 . S
O6 Cd4 2.411 . S
O6 C9 1.320 . S
O7 Cd4 2.333 . S
O7 C9 1.214 . S
O8 Cd4 2.352 . S
O8 C11 1.258 . S
C9 O6 1.320 . S
C9 O7 1.214 . S
O10 Cd2 2.277 . S
O10 C5 1.209 . S
C11 O8 1.258 . S
C11 O13 1.282 . S
O12 Cd4 2.277 . S
O12 C5 1.226 . S
O13 Cd4 2.356 . S
O13 C11 1.282 . S
C14 O15 1.306 . S
C14 O17 1.160 . S
O15 C14 1.306 . S
O15 Cd16 2.228 . S
Cd16 O15 2.228 . S
Cd16 O20 2.273 . S
Cd16 O24 2.277 . S
O17 C14 1.160 . S
O17 Cd18 2.203 . S
Cd18 O17 2.203 . S
Cd18 O20 2.411 . S
Cd18 O21 2.333 . S
Cd18 O22 2.352 . S
Cd18 O26 2.277 . S
Cd18 O27 2.356 . S
C19 O24 1.209 . S
C19 O26 1.226 . S
O20 Cd16 2.273 . S
O20 Cd18 2.411 . S
O20 C23 1.320 . S
O21 Cd18 2.333 . S
O21 C23 1.214 . S
O22 Cd18 2.352 . S
O22 C25 1.258 . S
C23 O20 1.320 . S
C23 O21 1.214 . S
O24 Cd16 2.277 . S
O24 C19 1.209 . S
C25 O22 1.258 . S
C25 O27 1.282 . S
O26 Cd18 2.277 . S
O26 C19 1.226 . S
O27 Cd18 2.356 . S
O27 C25 1.282 . S
C28 O29 1.306 . S
C28 O31 1.160 . S
O29 C28 1.306 . S
O29 Cd30 2.228 . S
Cd30 O29 2.228 . S
Cd30 O34 2.273 . S
Cd30 O38 2.277 . S
O31 C28 1.160 . S
O31 Cd32 2.203 . S
Cd32 O31 2.203 . S
Cd32 O34 2.411 . S
Cd32 O35 2.333 . S
Cd32 O36 2.352 . S
Cd32 O40 2.277 . S
Cd32 O41 2.356 . S
C33 O38 1.209 . S
C33 O40 1.226 . S
O34 Cd30 2.273 . S
O34 Cd32 2.411 . S
O34 C37 1.320 . S
O35 Cd32 2.333 . S
O35 C37 1.214 . S
O36 Cd32 2.352 . S
O36 C39 1.258 . S
C37 O34 1.320 . S
C37 O35 1.214 . S
O38 Cd30 2.277 . S
O38 C33 1.209 . S
C39 O36 1.258 . S
C39 O41 1.282 . S
O40 Cd32 2.277 . S
O40 C33 1.226 . S
O41 Cd32 2.356 . S
O41 C39 1.282 . S
C42 O43 1.306 . S
C42 O45 1.160 . S
O43 C42 1.306 . S
O43 Cd44 2.228 . S
Cd44 O43 2.228 . S
Cd44 O48 2.273 . S
Cd44 O52 2.277 . S
O45 C42 1.160 . S
O45 Cd46 2.203 . S
Cd46 O45 2.203 . S
Cd46 O48 2.411 . S
Cd46 O49 2.333 . S
Cd46 O50 2.352 . S
Cd46 O54 2.277 . S
Cd46 O55 2.356 . S
C47 O52 1.209 . S
C47 O54 1.226 . S
O48 Cd44 2.273 . S
O48 Cd46 2.411 . S
O48 C51 1.320 . S
O49 Cd46 2.333 . S
O49 C51 1.214 . S
O50 Cd46 2.352 . S
O50 C53 1.258 . S
C51 O48 1.320 . S
C51 O49 1.214 . S
O52 Cd44 2.277 . S
O52 C47 1.209 . S
C53 O50 1.258 . S
C53 O55 1.282 . S
O54 Cd46 2.277 . S
O54 C47 1.226 . S
O55 Cd46 2.356 . S
O55 C53 1.282 . S
C56 O57 1.306 . S
C56 O59 1.160 . S
O57 C56 1.306 . S
O57 Cd58 2.228 . S
Cd58 O57 2.228 . S
Cd58 O62 2.273 . S
Cd58 O66 2.277 . S
O59 C56 1.160 . S
O59 Cd60 2.203 . S
Cd60 O59 2.203 . S
Cd60 O62 2.411 . S
Cd60 O63 2.333 . S
Cd60 O64 2.352 . S
Cd60 O68 2.277 . S
Cd60 O69 2.356 . S
C61 O66 1.209 . S
C61 O68 1.226 . S
O62 Cd58 2.273 . S
O62 Cd60 2.411 . S
O62 C65 1.320 . S
O63 Cd60 2.333 . S
O63 C65 1.214 . S
O64 Cd60 2.352 . S
O64 C67 1.258 . S
C65 O62 1.320 . S
C65 O63 1.214 . S
O66 Cd58 2.277 . S
O66 C61 1.209 . S
C67 O64 1.258 . S
C67 O69 1.282 . S
O68 Cd60 2.277 . S
O68 C61 1.226 . S
O69 Cd60 2.356 . S
O69 C67 1.282 . S
C70 O71 1.306 . S
C70 O73 1.160 . S
O71 C70 1.306 . S
O71 Cd72 2.228 . S
Cd72 O71 2.228 . S
Cd72 O76 2.273 . S
Cd72 O80 2.277 . S
O73 C70 1.160 . S
O73 Cd74 2.203 . S
Cd74 O73 2.203 . S
Cd74 O76 2.411 . S
Cd74 O77 2.333 . S
Cd74 O78 2.352 . S
Cd74 O82 2.277 . S
Cd74 O83 2.356 . S
C75 O80 1.209 . S
C75 O82 1.226 . S
O76 Cd72 2.273 . S
O76 Cd74 2.411 . S
O76 C79 1.320 . S
O77 Cd74 2.333 . S
O77 C79 1.214 . S
O78 Cd74 2.352 . S
O78 C81 1.258 . S
C79 O76 1.320 . S
C79 O77 1.214 . S
O80 Cd72 2.277 . S
O80 C75 1.209 . S
C81 O78 1.258 . S
C81 O83 1.282 . S
O82 Cd74 2.277 . S
O82 C75 1.226 . S
O83 Cd74 2.356 . S
O83 C81 1.282 . S
C84 O85 1.306 . S
C84 O87 1.160 . S
O85 C84 1.306 . S
O85 Cd86 2.228 . S
Cd86 O85 2.228 . S
Cd86 O90 2.273 . S
Cd86 O94 2.277 . S
O87 C84 1.160 . S
O87 Cd88 2.203 . S
Cd88 O87 2.203 . S
Cd88 O90 2.411 . S
Cd88 O91 2.333 . S
Cd88 O92 2.352 . S
Cd88 O96 2.277 . S
Cd88 O97 2.356 . S
C89 O94 1.209 . S
C89 O96 1.226 . S
O90 Cd86 2.273 . S
O90 Cd88 2.411 . S
O90 C93 1.320 . S
O91 Cd88 2.333 . S
O91 C93 1.214 . S
O92 Cd88 2.352 . S
O92 C95 1.258 . S
C93 O90 1.320 . S
C93 O91 1.214 . S
O94 Cd86 2.277 . S
O94 C89 1.209 . S
C95 O92 1.258 . S
C95 O97 1.282 . S
O96 Cd88 2.277 . S
O96 C89 1.226 . S
O97 Cd88 2.356 . S
O97 C95 1.282 . S
C98 O99 1.306 . S
C98 O101 1.160 . S
O99 C98 1.306 . S
O99 Cd100 2.228 . S
Cd100 O99 2.228 . S
Cd100 O104 2.273 . S
Cd100 O108 2.277 . S
O101 C98 1.160 . S
O101 Cd102 2.203 . S
Cd102 O101 2.203 . S
Cd102 O104 2.411 . S
Cd102 O105 2.333 . S
Cd102 O106 2.352 . S
Cd102 O110 2.277 . S
Cd102 O111 2.356 . S
C103 O108 1.209 . S
C103 O110 1.226 . S
O104 Cd100 2.273 . S
O104 Cd102 2.411 . S
O104 C107 1.320 . S
O105 Cd102 2.333 . S
O105 C107 1.214 . S
O106 Cd102 2.352 . S
O106 C109 1.258 . S
C107 O104 1.320 . S
C107 O105 1.214 . S
O108 Cd100 2.277 . S
O108 C103 1.209 . S
C109 O106 1.258 . S
C109 O111 1.282 . S
O110 Cd102 2.277 . S
O110 C103 1.226 . S
O111 Cd102 2.356 . S
O111 C109 1.282 . S
C112 O113 1.306 . S
C112 O115 1.160 . S
O113 C112 1.306 . S
O113 Cd114 2.228 . S
Cd114 O113 2.228 . S
Cd114 O118 2.273 . S
Cd114 O122 2.277 . S
O115 C112 1.160 . S
O115 Cd116 2.203 . S
Cd116 O115 2.203 . S
Cd116 O118 2.411 . S
Cd116 O119 2.333 . S
Cd116 O120 2.352 . S
Cd116 O124 2.277 . S
Cd116 O125 2.356 . S
C117 O122 1.209 . S
C117 O124 1.226 . S
O118 Cd114 2.273 . S
O118 Cd116 2.411 . S
O118 C121 1.320 . S
O119 Cd116 2.333 . S
O119 C121 1.214 . S
O120 Cd116 2.352 . S
O120 C123 1.258 . S
C121 O118 1.320 . S
C121 O119 1.214 . S
O122 Cd114 2.277 . S
O122 C117 1.209 . S
C123 O120 1.258 . S
C123 O125 1.282 . S
O124 Cd116 2.277 . S
O124 C117 1.226 . S
O125 Cd116 2.356 . S
O125 C123 1.282 . S
C126 O127 1.306 . S
C126 O129 1.160 . S
O127 C126 1.306 . S
O127 Cd128 2.228 . S
Cd128 O127 2.228 . S
Cd128 O132 2.273 . S
Cd128 O136 2.277 . S
O129 C126 1.160 . S
O129 Cd130 2.203 . S
Cd130 O129 2.203 . S
Cd130 O132 2.411 . S
Cd130 O133 2.333 . S
Cd130 O134 2.352 . S
Cd130 O138 2.277 . S
Cd130 O139 2.356 . S
C131 O136 1.209 . S
C131 O138 1.226 . S
O132 Cd128 2.273 . S
O132 Cd130 2.411 . S
O132 C135 1.320 . S
O133 Cd130 2.333 . S
O133 C135 1.214 . S
O134 Cd130 2.352 . S
O134 C137 1.258 . S
C135 O132 1.320 . S
C135 O133 1.214 . S
O136 Cd128 2.277 . S
O136 C131 1.209 . S
C137 O134 1.258 . S
C137 O139 1.282 . S
O138 Cd130 2.277 . S
O138 C131 1.226 . S
O139 Cd130 2.356 . S
O139 C137 1.282 . S
C140 O141 1.306 . S
C140 O143 1.160 . S
O141 C140 1.306 . S
O141 Cd142 2.228 . S
Cd142 O141 2.228 . S
Cd142 O146 2.273 . S
Cd142 O150 2.277 . S
O143 C140 1.160 . S
O143 Cd144 2.203 . S
Cd144 O143 2.203 . S
Cd144 O146 2.411 . S
Cd144 O147 2.333 . S
Cd144 O148 2.352 . S
Cd144 O152 2.277 . S
Cd144 O153 2.356 . S
C145 O150 1.209 . S
C145 O152 1.226 . S
O146 Cd142 2.273 . S
O146 Cd144 2.411 . S
O146 C149 1.320 . S
O147 Cd144 2.333 . S
O147 C149 1.214 . S
O148 Cd144 2.352 . S
O148 C151 1.258 . S
C149 O146 1.320 . S
C149 O147 1.214 . S
O150 Cd142 2.277 . S
O150 C145 1.209 . S
C151 O148 1.258 . S
C151 O153 1.282 . S
O152 Cd144 2.277 . S
O152 C145 1.226 . S
O153 Cd144 2.356 . S
O153 C151 1.282 . S
C154 O155 1.306 . S
C154 O157 1.160 . S
O155 C154 1.306 . S
O155 Cd156 2.228 . S
Cd156 O155 2.228 . S
Cd156 O160 2.273 . S
Cd156 O164 2.277 . S
O157 C154 1.160 . S
O157 Cd158 2.203 . S
Cd158 O157 2.203 . S
Cd158 O160 2.411 . S
Cd158 O161 2.333 . S
Cd158 O162 2.352 . S
Cd158 O166 2.277 . S
Cd158 O167 2.356 . S
C159 O164 1.209 . S
C159 O166 1.226 . S
O160 Cd156 2.273 . S
O160 Cd158 2.411 . S
O160 C163 1.320 . S
O161 Cd158 2.333 . S
O161 C163 1.214 . S
O162 Cd158 2.352 . S
O162 C165 1.258 . S
C163 O160 1.320 . S
C163 O161 1.214 . S
O164 Cd156 2.277 . S
O164 C159 1.209 . S
C165 O162 1.258 . S
C165 O167 1.282 . S
O166 Cd158 2.277 . S
O166 C159 1.226 . S
O167 Cd158 2.356 . S
O167 C165 1.282 . S
C168 O169 1.306 . S
C168 O171 1.160 . S
O169 C168 1.306 . S
O169 Cd170 2.228 . S
Cd170 O169 2.228 . S
Cd170 O174 2.273 . S
Cd170 O178 2.277 . S
O171 C168 1.160 . S
O171 Cd172 2.203 . S
Cd172 O171 2.203 . S
Cd172 O174 2.411 . S
Cd172 O175 2.333 . S
Cd172 O176 2.352 . S
Cd172 O180 2.277 . S
Cd172 O181 2.356 . S
C173 O178 1.209 . S
C173 O180 1.226 . S
O174 Cd170 2.273 . S
O174 Cd172 2.411 . S
O174 C177 1.320 . S
O175 Cd172 2.333 . S
O175 C177 1.214 . S
O176 Cd172 2.352 . S
O176 C179 1.258 . S
C177 O174 1.320 . S
C177 O175 1.214 . S
O178 Cd170 2.277 . S
O178 C173 1.209 . S
C179 O176 1.258 . S
C179 O181 1.282 . S
O180 Cd172 2.277 . S
O180 C173 1.226 . S
O181 Cd172 2.356 . S
O181 C179 1.282 . S
C182 O183 1.306 . S
C182 O185 1.160 . S
O183 C182 1.306 . S
O183 Cd184 2.228 . S
Cd184 O183 2.228 . S
Cd184 O188 2.273 . S
Cd184 O192 2.277 . S
O185 C182 1.160 . S
O185 Cd186 2.203 . S
Cd186 O185 2.203 . S
Cd186 O188 2.411 . S
Cd186 O189 2.333 . S
Cd186 O190 2.352 . S
Cd186 O194 2.277 . S
Cd186 O195 2.356 . S
C187 O192 1.209 . S
C187 O194 1.226 . S
O188 Cd184 2.273 . S
O188 Cd186 2.411 . S
O188 C191 1.320 . S
O189 Cd186 2.333 . S
O189 C191 1.214 . S
O190 Cd186 2.352 . S
O190 C193 1.258 . S
C191 O188 1.320 . S
C191 O189 1.214 . S
O192 Cd184 2.277 . S
O192 C187 1.209 . S
C193 O190 1.258 . S
C193 O195 1.282 . S
O194 Cd186 2.277 . S
O194 C187 1.226 . S
O195 Cd186 2.356 . S
O195 C193 1.282 . S
C196 O197 1.306 . S
C196 O199 1.160 . S
O197 C196 1.306 . S
O197 Cd198 2.228 . S
Cd198 O197 2.228 . S
Cd198 O202 2.273 . S
Cd198 O206 2.277 . S
O199 C196 1.160 . S
O199 Cd200 2.203 . S
Cd200 O199 2.203 . S
Cd200 O202 2.411 . S
Cd200 O203 2.333 . S
Cd200 O204 2.352 . S
Cd200 O208 2.277 . S
Cd200 O209 2.356 . S
C201 O206 1.209 . S
C201 O208 1.226 . S
O202 Cd198 2.273 . S
O202 Cd200 2.411 . S
O202 C205 1.320 . S
O203 Cd200 2.333 . S
O203 C205 1.214 . S
O204 Cd200 2.352 . S
O204 C207 1.258 . S
C205 O202 1.320 . S
C205 O203 1.214 . S
O206 Cd198 2.277 . S
O206 C201 1.209 . S
C207 O204 1.258 . S
C207 O209 1.282 . S
O208 Cd200 2.277 . S
O208 C201 1.226 . S
O209 Cd200 2.356 . S
O209 C207 1.282 . S
C210 O211 1.306 . S
C210 O213 1.160 . S
O211 C210 1.306 . S
O211 Cd212 2.228 . S
Cd212 O211 2.228 . S
Cd212 O216 2.273 . S
Cd212 O220 2.277 . S
O213 C210 1.160 . S
O213 Cd214 2.203 . S
Cd214 O213 2.203 . S
Cd214 O216 2.411 . S
Cd214 O217 2.333 . S
Cd214 O218 2.352 . S
Cd214 O222 2.277 . S
Cd214 O223 2.356 . S
C215 O220 1.209 . S
C215 O222 1.226 . S
O216 Cd212 2.273 . S
O216 Cd214 2.411 . S
O216 C219 1.320 . S
O217 Cd214 2.333 . S
O217 C219 1.214 . S
O218 Cd214 2.352 . S
O218 C221 1.258 . S
C219 O216 1.320 . S
C219 O217 1.214 . S
O220 Cd212 2.277 . S
O220 C215 1.209 . S
C221 O218 1.258 . S
C221 O223 1.282 . S
O222 Cd214 2.277 . S
O222 C215 1.226 . S
O223 Cd214 2.356 . S
O223 C221 1.282 . S
C224 O225 1.306 . S
C224 O227 1.160 . S
O225 C224 1.306 . S
O225 Cd226 2.228 . S
Cd226 O225 2.228 . S
Cd226 O230 2.273 . S
Cd226 O234 2.277 . S
O227 C224 1.160 . S
O227 Cd228 2.203 . S
Cd228 O227 2.203 . S
Cd228 O230 2.411 . S
Cd228 O231 2.333 . S
Cd228 O232 2.352 . S
Cd228 O236 2.277 . S
Cd228 O237 2.356 . S
C229 O234 1.209 . S
C229 O236 1.226 . S
O230 Cd226 2.273 . S
O230 Cd228 2.411 . S
O230 C233 1.320 . S
O231 Cd228 2.333 . S
O231 C233 1.214 . S
O232 Cd228 2.352 . S
O232 C235 1.258 . S
C233 O230 1.320 . S
C233 O231 1.214 . S
O234 Cd226 2.277 . S
O234 C229 1.209 . S
C235 O232 1.258 . S
C235 O237 1.282 . S
O236 Cd228 2.277 . S
O236 C229 1.226 . S
O237 Cd228 2.356 . S
O237 C235 1.282 . S
C238 O239 1.306 . S
C238 O241 1.160 . S
O239 C238 1.306 . S
O239 Cd240 2.228 . S
Cd240 O239 2.228 . S
Cd240 O244 2.273 . S
Cd240 O248 2.277 . S
O241 C238 1.160 . S
O241 Cd242 2.203 . S
Cd242 O241 2.203 . S
Cd242 O244 2.411 . S
Cd242 O245 2.333 . S
Cd242 O246 2.352 . S
Cd242 O250 2.277 . S
Cd242 O251 2.356 . S
C243 O248 1.209 . S
C243 O250 1.226 . S
O244 Cd240 2.273 . S
O244 Cd242 2.411 . S
O244 C247 1.320 . S
O245 Cd242 2.333 . S
O245 C247 1.214 . S
O246 Cd242 2.352 . S
O246 C249 1.258 . S
C247 O244 1.320 . S
C247 O245 1.214 . S
O248 Cd240 2.277 . S
O248 C243 1.209 . S
C249 O246 1.258 . S
C249 O251 1.282 . S
O250 Cd242 2.277 . S
O250 C243 1.226 . S
O251 Cd242 2.356 . S
O251 C249 1.282 . S
C252 O253 1.306 . S
C252 O255 1.160 . S
O253 C252 1.306 . S
O253 Cd254 2.228 . S
Cd254 O253 2.228 . S
Cd254 O258 2.273 . S
Cd254 O262 2.277 . S
O255 C252 1.160 . S
O255 Cd256 2.203 . S
Cd256 O255 2.203 . S
Cd256 O258 2.411 . S
Cd256 O259 2.333 . S
Cd256 O260 2.352 . S
Cd256 O264 2.277 . S
Cd256 O265 2.356 . S
C257 O262 1.209 . S
C257 O264 1.226 . S
O258 Cd254 2.273 . S
O258 Cd256 2.411 . S
O258 C261 1.320 . S
O259 Cd256 2.333 . S
O259 C261 1.214 . S
O260 Cd256 2.352 . S
O260 C263 1.258 . S
C261 O258 1.320 . S
C261 O259 1.214 . S
O262 Cd254 2.277 . S
O262 C257 1.209 . S
C263 O260 1.258 . S
C263 O265 1.282 . S
O264 Cd256 2.277 . S
O264 C257 1.226 . S
O265 Cd256 2.356 . S
O265 C263 1.282 . S
C266 O267 1.306 . S
C266 O269 1.160 . S
O267 C266 1.306 . S
O267 Cd268 2.228 . S
Cd268 O267 2.228 . S
Cd268 O272 2.273 . S
Cd268 O276 2.277 . S
O269 C266 1.160 . S
O269 Cd270 2.203 . S
Cd270 O269 2.203 . S
Cd270 O272 2.411 . S
Cd270 O273 2.333 . S
Cd270 O274 2.352 . S
Cd270 O278 2.277 . S
Cd270 O279 2.356 . S
C271 O276 1.209 . S
C271 O278 1.226 . S
O272 Cd268 2.273 . S
O272 Cd270 2.411 . S
O272 C275 1.320 . S
O273 Cd270 2.333 . S
O273 C275 1.214 . S
O274 Cd270 2.352 . S
O274 C277 1.258 . S
C275 O272 1.320 . S
C275 O273 1.214 . S
O276 Cd268 2.277 . S
O276 C271 1.209 . S
C277 O274 1.258 . S
C277 O279 1.282 . S
O278 Cd270 2.277 . S
O278 C271 1.226 . S
O279 Cd270 2.356 . S
O279 C277 1.282 . S
C280 O281 1.306 . S
C280 O283 1.160 . S
O281 C280 1.306 . S
O281 Cd282 2.228 . S
Cd282 O281 2.228 . S
Cd282 O286 2.273 . S
Cd282 O290 2.277 . S
O283 C280 1.160 . S
O283 Cd284 2.203 . S
Cd284 O283 2.203 . S
Cd284 O286 2.411 . S
Cd284 O287 2.333 . S
Cd284 O288 2.352 . S
Cd284 O292 2.277 . S
Cd284 O293 2.356 . S
C285 O290 1.209 . S
C285 O292 1.226 . S
O286 Cd282 2.273 . S
O286 Cd284 2.411 . S
O286 C289 1.320 . S
O287 Cd284 2.333 . S
O287 C289 1.214 . S
O288 Cd284 2.352 . S
O288 C291 1.258 . S
C289 O286 1.320 . S
C289 O287 1.214 . S
O290 Cd282 2.277 . S
O290 C285 1.209 . S
C291 O288 1.258 . S
C291 O293 1.282 . S
O292 Cd284 2.277 . S
O292 C285 1.226 . S
O293 Cd284 2.356 . S
O293 C291 1.282 . S
C294 O295 1.306 . S
C294 O297 1.160 . S
O295 C294 1.306 . S
O295 Cd296 2.228 . S
Cd296 O295 2.228 . S
Cd296 O300 2.273 . S
Cd296 O304 2.277 . S
O297 C294 1.160 . S
O297 Cd298 2.203 . S
Cd298 O297 2.203 . S
Cd298 O300 2.411 . S
Cd298 O301 2.333 . S
Cd298 O302 2.352 . S
Cd298 O306 2.277 . S
Cd298 O307 2.356 . S
C299 O304 1.209 . S
C299 O306 1.226 . S
O300 Cd296 2.273 . S
O300 Cd298 2.411 . S
O300 C303 1.320 . S
O301 Cd298 2.333 . S
O301 C303 1.214 . S
O302 Cd298 2.352 . S
O302 C305 1.258 . S
C303 O300 1.320 . S
C303 O301 1.214 . S
O304 Cd296 2.277 . S
O304 C299 1.209 . S
C305 O302 1.258 . S
C305 O307 1.282 . S
O306 Cd298 2.277 . S
O306 C299 1.226 . S
O307 Cd298 2.356 . S
O307 C305 1.282 . S
C308 O309 1.306 . S
C308 O311 1.160 . S
O309 C308 1.306 . S
O309 Cd310 2.228 . S
Cd310 O309 2.228 . S
Cd310 O314 2.273 . S
Cd310 O318 2.277 . S
O311 C308 1.160 . S
O311 Cd312 2.203 . S
Cd312 O311 2.203 . S
Cd312 O314 2.411 . S
Cd312 O315 2.333 . S
Cd312 O316 2.352 . S
Cd312 O320 2.277 . S
Cd312 O321 2.356 . S
C313 O318 1.209 . S
C313 O320 1.226 . S
O314 Cd310 2.273 . S
O314 Cd312 2.411 . S
O314 C317 1.320 . S
O315 Cd312 2.333 . S
O315 C317 1.214 . S
O316 Cd312 2.352 . S
O316 C319 1.258 . S
C317 O314 1.320 . S
C317 O315 1.214 . S
O318 Cd310 2.277 . S
O318 C313 1.209 . S
C319 O316 1.258 . S
C319 O321 1.282 . S
O320 Cd312 2.277 . S
O320 C313 1.226 . S
O321 Cd312 2.356 . S
O321 C319 1.282 . S
C322 O323 1.306 . S
C322 O325 1.160 . S
O323 C322 1.306 . S
O323 Cd324 2.228 . S
Cd324 O323 2.228 . S
Cd324 O328 2.273 . S
Cd324 O332 2.277 . S
O325 C322 1.160 . S
O325 Cd326 2.203 . S
Cd326 O325 2.203 . S
Cd326 O328 2.411 . S
Cd326 O329 2.333 . S
Cd326 O330 2.352 . S
Cd326 O334 2.277 . S
Cd326 O335 2.356 . S
C327 O332 1.209 . S
C327 O334 1.226 . S
O328 Cd324 2.273 . S
O328 Cd326 2.411 . S
O328 C331 1.320 . S
O329 Cd326 2.333 . S
O329 C331 1.214 . S
O330 Cd326 2.352 . S
O330 C333 1.258 . S
C331 O328 1.320 . S
C331 O329 1.214 . S
O332 Cd324 2.277 . S
O332 C327 1.209 . S
C333 O330 1.258 . S
C333 O335 1.282 . S
O334 Cd326 2.277 . S
O334 C327 1.226 . S
O335 Cd326 2.356 . S
O335 C333 1.282 . S
C336 C337 1.349 . S
C336 C338 1.327 . S
C336 H361 0.950 . S
C337 C336 1.349 . S
C337 C353 1.349 . S
C338 C336 1.327 . S
C338 C357 1.429 . S
C338 H362 0.950 . S
C339 C356 1.574 . S
C339 C358 1.368 . S
C339 H363 0.949 . S
H340 C344 0.949 . S
C341 C342 1.349 . S
C341 C343 1.327 . S
C341 H364 0.950 . S
C342 C341 1.349 . S
C342 C354 1.349 . S
C343 C341 1.327 . S
C343 C359 1.429 . S
C343 H365 0.950 . S
C344 H340 0.949 . S
C344 C352 1.574 . S
C344 C360 1.368 . S
H345 C353 0.950 . S
H346 C351 0.950 . S
H347 C352 0.949 . S
H348 C354 0.950 . S
H349 C355 0.950 . S
H350 C356 0.949 . S
C351 H346 0.950 . S
C351 C353 1.327 . S
C351 C357 1.429 . S
C352 C344 1.574 . S
C352 H347 0.949 . S
C352 C358 1.368 . S
C353 C337 1.349 . S
C353 H345 0.950 . S
C353 C351 1.327 . S
C354 C342 1.349 . S
C354 H348 0.950 . S
C354 C355 1.327 . S
C355 H349 0.950 . S
C355 C354 1.327 . S
C355 C359 1.429 . S
C356 C339 1.574 . S
C356 H350 0.949 . S
C356 C360 1.368 . S
C357 C338 1.429 . S
C357 C351 1.429 . S
C357 C358 1.523 . S
C358 C339 1.368 . S
C358 C352 1.368 . S
C358 C357 1.523 . S
C359 C343 1.429 . S
C359 C355 1.429 . S
C359 C360 1.523 . S
C360 C344 1.368 . S
C360 C356 1.368 . S
C360 C359 1.523 . S
H361 C336 0.950 . S
H362 C338 0.950 . S
H363 C339 0.949 . S
H364 C341 0.950 . S
H365 C343 0.950 . S
C366 C367 1.349 . S
C366 C368 1.327 . S
C366 H391 0.950 . S
C367 C366 1.349 . S
C367 C383 1.349 . S
C368 C366 1.327 . S
C368 C387 1.429 . S
C368 H392 0.950 . S
C369 C386 1.574 1_655 S
C369 C388 1.368 . S
C369 H393 0.949 . S
H370 C374 0.949 . S
C371 C372 1.349 . S
C371 C373 1.327 . S
C371 H394 0.950 . S
C372 C371 1.349 . S
C372 C384 1.349 . S
C373 C371 1.327 . S
C373 C389 1.429 . S
C373 H395 0.950 . S
C374 H370 0.949 . S
C374 C382 1.574 1_455 S
C374 C390 1.368 . S
H375 C383 0.950 . S
H376 C381 0.950 . S
H377 C382 0.949 . S
H378 C384 0.950 . S
H379 C385 0.950 . S
H380 C386 0.949 . S
C381 H376 0.950 . S
C381 C383 1.327 . S
C381 C387 1.429 . S
C382 C374 1.574 1_655 S
C382 H377 0.949 . S
C382 C388 1.368 . S
C383 C367 1.349 . S
C383 H375 0.950 . S
C383 C381 1.327 . S
C384 C372 1.349 . S
C384 H378 0.950 . S
C384 C385 1.327 . S
C385 H379 0.950 . S
C385 C384 1.327 . S
C385 C389 1.429 . S
C386 C369 1.574 1_455 S
C386 H380 0.949 . S
C386 C390 1.368 . S
C387 C368 1.429 . S
C387 C381 1.429 . S
C387 C388 1.523 . S
C388 C369 1.368 . S
C388 C382 1.368 . S
C388 C387 1.523 . S
C389 C373 1.429 . S
C389 C385 1.429 . S
C389 C390 1.523 . S
C390 C374 1.368 . S
C390 C386 1.368 . S
C390 C389 1.523 . S
H391 C366 0.950 . S
H392 C368 0.950 . S
H393 C369 0.949 . S
H394 C371 0.950 . S
H395 C373 0.950 . S
C396 C397 1.349 . S
C396 C398 1.327 . S
C396 H421 0.950 . S
C397 C396 1.349 . S
C397 C413 1.349 . S
C398 C396 1.327 . S
C398 C417 1.429 . S
C398 H422 0.950 . S
C399 C416 1.574 . S
C399 C418 1.368 . S
C399 H423 0.949 . S
H400 C404 0.949 . S
C401 C402 1.349 . S
C401 C403 1.327 . S
C401 H424 0.950 . S
C402 C401 1.349 . S
C402 C414 1.349 . S
C403 C401 1.327 . S
C403 C419 1.429 . S
C403 H425 0.950 . S
C404 H400 0.949 . S
C404 C412 1.574 . S
C404 C420 1.368 . S
H405 C413 0.950 . S
H406 C411 0.950 . S
H407 C412 0.949 . S
H408 C414 0.950 . S
H409 C415 0.950 . S
H410 C416 0.949 . S
C411 H406 0.950 . S
C411 C413 1.327 . S
C411 C417 1.429 . S
C412 C404 1.574 . S
C412 H407 0.949 . S
C412 C418 1.368 . S
C413 C397 1.349 . S
C413 H405 0.950 . S
C413 C411 1.327 . S
C414 C402 1.349 . S
C414 H408 0.950 . S
C414 C415 1.327 . S
C415 H409 0.950 . S
C415 C414 1.327 . S
C415 C419 1.429 . S
C416 C399 1.574 . S
C416 H410 0.949 . S
C416 C420 1.368 . S
C417 C398 1.429 . S
C417 C411 1.429 . S
C417 C418 1.523 . S
C418 C399 1.368 . S
C418 C412 1.368 . S
C418 C417 1.523 . S
C419 C403 1.429 . S
C419 C415 1.429 . S
C419 C420 1.523 . S
C420 C404 1.368 . S
C420 C416 1.368 . S
C420 C419 1.523 . S
H421 C396 0.950 . S
H422 C398 0.950 . S
H423 C399 0.949 . S
H424 C401 0.950 . S
H425 C403 0.950 . S
C426 C427 1.349 . S
C426 C428 1.327 . S
C426 H451 0.950 . S
C427 C426 1.349 . S
C427 C443 1.349 . S
C428 C426 1.327 . S
C428 C447 1.429 . S
C428 H452 0.950 . S
C429 C446 1.574 1_455 S
C429 C448 1.368 . S
C429 H453 0.949 . S
H430 C434 0.949 . S
C431 C432 1.349 . S
C431 C433 1.327 . S
C431 H454 0.950 . S
C432 C431 1.349 . S
C432 C444 1.349 . S
C433 C431 1.327 . S
C433 C449 1.429 . S
C433 H455 0.950 . S
C434 H430 0.949 . S
C434 C442 1.574 1_655 S
C434 C450 1.368 . S
H435 C443 0.950 . S
H436 C441 0.950 . S
H437 C442 0.949 . S
H438 C444 0.950 . S
H439 C445 0.950 . S
H440 C446 0.949 . S
C441 H436 0.950 . S
C441 C443 1.327 . S
C441 C447 1.429 . S
C442 C434 1.574 1_455 S
C442 H437 0.949 . S
C442 C448 1.368 . S
C443 C427 1.349 . S
C443 H435 0.950 . S
C443 C441 1.327 . S
C444 C432 1.349 . S
C444 H438 0.950 . S
C444 C445 1.327 . S
C445 H439 0.950 . S
C445 C444 1.327 . S
C445 C449 1.429 . S
C446 C429 1.574 1_655 S
C446 H440 0.949 . S
C446 C450 1.368 . S
C447 C428 1.429 . S
C447 C441 1.429 . S
C447 C448 1.523 . S
C448 C429 1.368 . S
C448 C442 1.368 . S
C448 C447 1.523 . S
C449 C433 1.429 . S
C449 C445 1.429 . S
C449 C450 1.523 . S
C450 C434 1.368 . S
C450 C446 1.368 . S
C450 C449 1.523 . S
H451 C426 0.950 . S
H452 C428 0.950 . S
H453 C429 0.949 . S
H454 C431 0.950 . S
H455 C433 0.950 . S
C456 C457 1.349 . S
C456 C458 1.327 . S
C456 H481 0.950 . S
C457 C456 1.349 . S
C457 C473 1.349 . S
C458 C456 1.327 . S
C458 C477 1.429 . S
C458 H482 0.950 . S
C459 C476 1.574 . S
C459 C478 1.368 . S
C459 H483 0.949 . S
H460 C464 0.949 . S
C461 C462 1.349 . S
C461 C463 1.327 . S
C461 H484 0.950 . S
C462 C461 1.349 . S
C462 C474 1.349 . S
C463 C461 1.327 . S
C463 C479 1.429 . S
C463 H485 0.950 . S
C464 H460 0.949 . S
C464 C472 1.574 . S
C464 C480 1.368 . S
H465 C473 0.950 . S
H466 C471 0.950 . S
H467 C472 0.949 . S
H468 C474 0.950 . S
H469 C475 0.950 . S
H470 C476 0.949 . S
C471 H466 0.950 . S
C471 C473 1.327 . S
C471 C477 1.429 . S
C472 C464 1.574 . S
C472 H467 0.949 . S
C472 C478 1.368 . S
C473 C457 1.349 . S
C473 H465 0.950 . S
C473 C471 1.327 . S
C474 C462 1.349 . S
C474 H468 0.950 . S
C474 C475 1.327 . S
C475 H469 0.950 . S
C475 C474 1.327 . S
C475 C479 1.429 . S
C476 C459 1.574 . S
C476 H470 0.949 . S
C476 C480 1.368 . S
C477 C458 1.429 . S
C477 C471 1.429 . S
C477 C478 1.523 . S
C478 C459 1.368 . S
C478 C472 1.368 . S
C478 C477 1.523 . S
C479 C463 1.429 . S
C479 C475 1.429 . S
C479 C480 1.523 . S
C480 C464 1.368 . S
C480 C476 1.368 . S
C480 C479 1.523 . S
H481 C456 0.950 . S
H482 C458 0.950 . S
H483 C459 0.949 . S
H484 C461 0.950 . S
H485 C463 0.950 . S
C486 C487 1.349 . S
C486 C488 1.327 . S
C486 H511 0.950 . S
C487 C486 1.349 . S
C487 C503 1.349 . S
C488 C486 1.327 . S
C488 C507 1.429 . S
C488 H512 0.950 . S
C489 C506 1.574 1_655 S
C489 C508 1.368 . S
C489 H513 0.949 . S
H490 C494 0.949 . S
C491 C492 1.349 . S
C491 C493 1.327 . S
C491 H514 0.950 . S
C492 C491 1.349 . S
C492 C504 1.349 . S
C493 C491 1.327 . S
C493 C509 1.429 . S
C493 H515 0.950 . S
C494 H490 0.949 . S
C494 C502 1.574 1_455 S
C494 C510 1.368 . S
H495 C503 0.950 . S
H496 C501 0.950 . S
H497 C502 0.949 . S
H498 C504 0.950 . S
H499 C505 0.950 . S
H500 C506 0.949 . S
C501 H496 0.950 . S
C501 C503 1.327 . S
C501 C507 1.429 . S
C502 C494 1.574 1_655 S
C502 H497 0.949 . S
C502 C508 1.368 . S
C503 C487 1.349 . S
C503 H495 0.950 . S
C503 C501 1.327 . S
C504 C492 1.349 . S
C504 H498 0.950 . S
C504 C505 1.327 . S
C505 H499 0.950 . S
C505 C504 1.327 . S
C505 C509 1.429 . S
C506 C489 1.574 1_455 S
C506 H500 0.949 . S
C506 C510 1.368 . S
C507 C488 1.429 . S
C507 C501 1.429 . S
C507 C508 1.523 . S
C508 C489 1.368 . S
C508 C502 1.368 . S
C508 C507 1.523 . S
C509 C493 1.429 . S
C509 C505 1.429 . S
C509 C510 1.523 . S
C510 C494 1.368 . S
C510 C506 1.368 . S
C510 C509 1.523 . S
H511 C486 0.950 . S
H512 C488 0.950 . S
H513 C489 0.949 . S
H514 C491 0.950 . S
H515 C493 0.950 . S
C516 C517 1.349 . S
C516 C518 1.327 . S
C516 H541 0.950 . S
C517 C516 1.349 . S
C517 C533 1.349 . S
C518 C516 1.327 . S
C518 C537 1.429 . S
C518 H542 0.950 . S
C519 C536 1.574 . S
C519 C538 1.368 . S
C519 H543 0.949 . S
H520 C524 0.949 . S
C521 C522 1.349 . S
C521 C523 1.327 . S
C521 H544 0.950 . S
C522 C521 1.349 . S
C522 C534 1.349 . S
C523 C521 1.327 . S
C523 C539 1.429 . S
C523 H545 0.950 . S
C524 H520 0.949 . S
C524 C532 1.574 . S
C524 C540 1.368 . S
H525 C533 0.950 . S
H526 C531 0.950 . S
H527 C532 0.949 . S
H528 C534 0.950 . S
H529 C535 0.950 . S
H530 C536 0.949 . S
C531 H526 0.950 . S
C531 C533 1.327 . S
C531 C537 1.429 . S
C532 C524 1.574 . S
C532 H527 0.949 . S
C532 C538 1.368 . S
C533 C517 1.349 . S
C533 H525 0.950 . S
C533 C531 1.327 . S
C534 C522 1.349 . S
C534 H528 0.950 . S
C534 C535 1.327 . S
C535 H529 0.950 . S
C535 C534 1.327 . S
C535 C539 1.429 . S
C536 C519 1.574 . S
C536 H530 0.949 . S
C536 C540 1.368 . S
C537 C518 1.429 . S
C537 C531 1.429 . S
C537 C538 1.523 . S
C538 C519 1.368 . S
C538 C532 1.368 . S
C538 C537 1.523 . S
C539 C523 1.429 . S
C539 C535 1.429 . S
C539 C540 1.523 . S
C540 C524 1.368 . S
C540 C536 1.368 . S
C540 C539 1.523 . S
H541 C516 0.950 . S
H542 C518 0.950 . S
H543 C519 0.949 . S
H544 C521 0.950 . S
H545 C523 0.950 . S
C546 C547 1.349 . S
C546 C548 1.327 . S
C546 H571 0.950 . S
C547 C546 1.349 . S
C547 C563 1.349 . S
C548 C546 1.327 . S
C548 C567 1.429 . S
C548 H572 0.950 . S
C549 C566 1.574 1_655 S
C549 C568 1.368 . S
C549 H573 0.949 . S
H550 C554 0.949 . S
C551 C552 1.349 . S
C551 C553 1.327 . S
C551 H574 0.950 . S
C552 C551 1.349 . S
C552 C564 1.349 . S
C553 C551 1.327 . S
C553 C569 1.429 . S
C553 H575 0.950 . S
C554 H550 0.949 . S
C554 C562 1.574 1_455 S
C554 C570 1.368 . S
H555 C563 0.950 . S
H556 C561 0.950 . S
H557 C562 0.949 . S
H558 C564 0.950 . S
H559 C565 0.950 . S
H560 C566 0.949 . S
C561 H556 0.950 . S
C561 C563 1.327 . S
C561 C567 1.429 . S
C562 C554 1.574 1_655 S
C562 H557 0.949 . S
C562 C568 1.368 . S
C563 C547 1.349 . S
C563 H555 0.950 . S
C563 C561 1.327 . S
C564 C552 1.349 . S
C564 H558 0.950 . S
C564 C565 1.327 . S
C565 H559 0.950 . S
C565 C564 1.327 . S
C565 C569 1.429 . S
C566 C549 1.574 1_455 S
C566 H560 0.949 . S
C566 C570 1.368 . S
C567 C548 1.429 . S
C567 C561 1.429 . S
C567 C568 1.523 . S
C568 C549 1.368 . S
C568 C562 1.368 . S
C568 C567 1.523 . S
C569 C553 1.429 . S
C569 C565 1.429 . S
C569 C570 1.523 . S
C570 C554 1.368 . S
C570 C566 1.368 . S
C570 C569 1.523 . S
H571 C546 0.950 . S
H572 C548 0.950 . S
H573 C549 0.949 . S
H574 C551 0.950 . S
H575 C553 0.950 . S
C576 C577 1.349 . S
C576 C578 1.327 . S
C576 H601 0.950 . S
C577 C576 1.349 . S
C577 C593 1.349 . S
C578 C576 1.327 . S
C578 C597 1.429 . S
C578 H602 0.950 . S
C579 C596 1.574 . S
C579 C598 1.368 . S
C579 H603 0.949 . S
H580 C584 0.949 . S
C581 C582 1.349 . S
C581 C583 1.327 . S
C581 H604 0.950 . S
C582 C581 1.349 . S
C582 C594 1.349 . S
C583 C581 1.327 . S
C583 C599 1.429 . S
C583 H605 0.950 . S
C584 H580 0.949 . S
C584 C592 1.574 . S
C584 C600 1.368 . S
H585 C593 0.950 . S
H586 C591 0.950 . S
H587 C592 0.949 . S
H588 C594 0.950 . S
H589 C595 0.950 . S
H590 C596 0.949 . S
C591 H586 0.950 . S
C591 C593 1.327 . S
C591 C597 1.429 . S
C592 C584 1.574 . S
C592 H587 0.949 . S
C592 C598 1.368 . S
C593 C577 1.349 . S
C593 H585 0.950 . S
C593 C591 1.327 . S
C594 C582 1.349 . S
C594 H588 0.950 . S
C594 C595 1.327 . S
C595 H589 0.950 . S
C595 C594 1.327 . S
C595 C599 1.429 . S
C596 C579 1.574 . S
C596 H590 0.949 . S
C596 C600 1.368 . S
C597 C578 1.429 . S
C597 C591 1.429 . S
C597 C598 1.523 . S
C598 C579 1.368 . S
C598 C592 1.368 . S
C598 C597 1.523 . S
C599 C583 1.429 . S
C599 C595 1.429 . S
C599 C600 1.523 . S
C600 C584 1.368 . S
C600 C596 1.368 . S
C600 C599 1.523 . S
H601 C576 0.950 . S
H602 C578 0.950 . S
H603 C579 0.949 . S
H604 C581 0.950 . S
H605 C583 0.950 . S
C606 C607 1.349 . S
C606 C608 1.327 . S
C606 H631 0.950 . S
C607 C606 1.349 . S
C607 C623 1.349 . S
C608 C606 1.327 . S
C608 C627 1.429 . S
C608 H632 0.950 . S
C609 C626 1.574 1_556 S
C609 C628 1.368 . S
C609 H633 0.949 . S
H610 C614 0.949 . S
C611 C612 1.349 . S
C611 C613 1.327 . S
C611 H634 0.950 . S
C612 C611 1.349 . S
C612 C624 1.349 . S
C613 C611 1.327 . S
C613 C629 1.429 . S
C613 H635 0.950 . S
C614 H610 0.949 . S
C614 C622 1.574 1_554 S
C614 C630 1.368 . S
H615 C623 0.950 . S
H616 C621 0.950 . S
H617 C622 0.949 . S
H618 C624 0.950 . S
H619 C625 0.950 . S
H620 C626 0.949 . S
C621 H616 0.950 . S
C621 C623 1.327 . S
C621 C627 1.429 . S
C622 C614 1.574 1_556 S
C622 H617 0.949 . S
C622 C628 1.368 . S
C623 C607 1.349 . S
C623 H615 0.950 . S
C623 C621 1.327 . S
C624 C612 1.349 . S
C624 H618 0.950 . S
C624 C625 1.327 . S
C625 H619 0.950 . S
C625 C624 1.327 . S
C625 C629 1.429 . S
C626 C609 1.574 1_554 S
C626 H620 0.949 . S
C626 C630 1.368 . S
C627 C608 1.429 . S
C627 C621 1.429 . S
C627 C628 1.523 . S
C628 C609 1.368 . S
C628 C622 1.368 . S
C628 C627 1.523 . S
C629 C613 1.429 . S
C629 C625 1.429 . S
C629 C630 1.523 . S
C630 C614 1.368 . S
C630 C626 1.368 . S
C630 C629 1.523 . S
H631 C606 0.950 . S
H632 C608 0.950 . S
H633 C609 0.949 . S
H634 C611 0.950 . S
H635 C613 0.950 . S
C636 C637 1.349 . S
C636 C638 1.327 . S
C636 H661 0.950 . S
C637 C636 1.349 . S
C637 C653 1.349 . S
C638 C636 1.327 . S
C638 C657 1.429 . S
C638 H662 0.950 . S
C639 C656 1.574 . S
C639 C658 1.368 . S
C639 H663 0.949 . S
H640 C644 0.949 . S
C641 C642 1.349 . S
C641 C643 1.327 . S
C641 H664 0.950 . S
C642 C641 1.349 . S
C642 C654 1.349 . S
C643 C641 1.327 . S
C643 C659 1.429 . S
C643 H665 0.950 . S
C644 H640 0.949 . S
C644 C652 1.574 . S
C644 C660 1.368 . S
H645 C653 0.950 . S
H646 C651 0.950 . S
H647 C652 0.949 . S
H648 C654 0.950 . S
H649 C655 0.950 . S
H650 C656 0.949 . S
C651 H646 0.950 . S
C651 C653 1.327 . S
C651 C657 1.429 . S
C652 C644 1.574 . S
C652 H647 0.949 . S
C652 C658 1.368 . S
C653 C637 1.349 . S
C653 H645 0.950 . S
C653 C651 1.327 . S
C654 C642 1.349 . S
C654 H648 0.950 . S
C654 C655 1.327 . S
C655 H649 0.950 . S
C655 C654 1.327 . S
C655 C659 1.429 . S
C656 C639 1.574 . S
C656 H650 0.949 . S
C656 C660 1.368 . S
C657 C638 1.429 . S
C657 C651 1.429 . S
C657 C658 1.523 . S
C658 C639 1.368 . S
C658 C652 1.368 . S
C658 C657 1.523 . S
C659 C643 1.429 . S
C659 C655 1.429 . S
C659 C660 1.523 . S
C660 C644 1.368 . S
C660 C656 1.368 . S
C660 C659 1.523 . S
H661 C636 0.950 . S
H662 C638 0.950 . S
H663 C639 0.949 . S
H664 C641 0.950 . S
H665 C643 0.950 . S
C666 C667 1.349 . S
C666 C668 1.327 . S
C666 H691 0.950 . S
C667 C666 1.349 . S
C667 C683 1.349 . S
C668 C666 1.327 . S
C668 C687 1.429 . S
C668 H692 0.950 . S
C669 C686 1.574 1_554 S
C669 C688 1.368 . S
C669 H693 0.949 . S
H670 C674 0.949 . S
C671 C672 1.349 . S
C671 C673 1.327 . S
C671 H694 0.950 . S
C672 C671 1.349 . S
C672 C684 1.349 . S
C673 C671 1.327 . S
C673 C689 1.429 . S
C673 H695 0.950 . S
C674 H670 0.949 . S
C674 C682 1.574 1_556 S
C674 C690 1.368 . S
H675 C683 0.950 . S
H676 C681 0.950 . S
H677 C682 0.949 . S
H678 C684 0.950 . S
H679 C685 0.950 . S
H680 C686 0.949 . S
C681 H676 0.950 . S
C681 C683 1.327 . S
C681 C687 1.429 . S
C682 C674 1.574 1_554 S
C682 H677 0.949 . S
C682 C688 1.368 . S
C683 C667 1.349 . S
C683 H675 0.950 . S
C683 C681 1.327 . S
C684 C672 1.349 . S
C684 H678 0.950 . S
C684 C685 1.327 . S
C685 H679 0.950 . S
C685 C684 1.327 . S
C685 C689 1.429 . S
C686 C669 1.574 1_556 S
C686 H680 0.949 . S
C686 C690 1.368 . S
C687 C668 1.429 . S
C687 C681 1.429 . S
C687 C688 1.523 . S
C688 C669 1.368 . S
C688 C682 1.368 . S
C688 C687 1.523 . S
C689 C673 1.429 . S
C689 C685 1.429 . S
C689 C690 1.523 . S
C690 C674 1.368 . S
C690 C686 1.368 . S
C690 C689 1.523 . S
H691 C666 0.950 . S
H692 C668 0.950 . S
H693 C669 0.949 . S
H694 C671 0.950 . S
H695 C673 0.950 . S
C696 C697 1.349 . S
C696 C698 1.327 . S
C696 H721 0.950 . S
C697 C696 1.349 . S
C697 C713 1.349 . S
C698 C696 1.327 . S
C698 C717 1.429 . S
C698 H722 0.950 . S
C699 C716 1.574 . S
C699 C718 1.368 . S
C699 H723 0.949 . S
H700 C704 0.949 . S
C701 C702 1.349 . S
C701 C703 1.327 . S
C701 H724 0.950 . S
C702 C701 1.349 . S
C702 C714 1.349 . S
C703 C701 1.327 . S
C703 C719 1.429 . S
C703 H725 0.950 . S
C704 H700 0.949 . S
C704 C712 1.574 . S
C704 C720 1.368 . S
H705 C713 0.950 . S
H706 C711 0.950 . S
H707 C712 0.949 . S
H708 C714 0.950 . S
H709 C715 0.950 . S
H710 C716 0.949 . S
C711 H706 0.950 . S
C711 C713 1.327 . S
C711 C717 1.429 . S
C712 C704 1.574 . S
C712 H707 0.949 . S
C712 C718 1.368 . S
C713 C697 1.349 . S
C713 H705 0.950 . S
C713 C711 1.327 . S
C714 C702 1.349 . S
C714 H708 0.950 . S
C714 C715 1.327 . S
C715 H709 0.950 . S
C715 C714 1.327 . S
C715 C719 1.429 . S
C716 C699 1.574 . S
C716 H710 0.949 . S
C716 C720 1.368 . S
C717 C698 1.429 . S
C717 C711 1.429 . S
C717 C718 1.523 . S
C718 C699 1.368 . S
C718 C712 1.368 . S
C718 C717 1.523 . S
C719 C703 1.429 . S
C719 C715 1.429 . S
C719 C720 1.523 . S
C720 C704 1.368 . S
C720 C716 1.368 . S
C720 C719 1.523 . S
H721 C696 0.950 . S
H722 C698 0.950 . S
H723 C699 0.949 . S
H724 C701 0.950 . S
H725 C703 0.950 . S
C726 C727 1.349 . S
C726 C728 1.327 . S
C726 H751 0.950 . S
C727 C726 1.349 . S
C727 C743 1.349 . S
C728 C726 1.327 . S
C728 C747 1.429 . S
C728 H752 0.950 . S
C729 C746 1.574 1_554 S
C729 C748 1.368 . S
C729 H753 0.949 . S
H730 C734 0.949 . S
C731 C732 1.349 . S
C731 C733 1.327 . S
C731 H754 0.950 . S
C732 C731 1.349 . S
C732 C744 1.349 . S
C733 C731 1.327 . S
C733 C749 1.429 . S
C733 H755 0.950 . S
C734 H730 0.949 . S
C734 C742 1.574 1_556 S
C734 C750 1.368 . S
H735 C743 0.950 . S
H736 C741 0.950 . S
H737 C742 0.949 . S
H738 C744 0.950 . S
H739 C745 0.950 . S
H740 C746 0.949 . S
C741 H736 0.950 . S
C741 C743 1.327 . S
C741 C747 1.429 . S
C742 C734 1.574 1_554 S
C742 H737 0.949 . S
C742 C748 1.368 . S
C743 C727 1.349 . S
C743 H735 0.950 . S
C743 C741 1.327 . S
C744 C732 1.349 . S
C744 H738 0.950 . S
C744 C745 1.327 . S
C745 H739 0.950 . S
C745 C744 1.327 . S
C745 C749 1.429 . S
C746 C729 1.574 1_556 S
C746 H740 0.949 . S
C746 C750 1.368 . S
C747 C728 1.429 . S
C747 C741 1.429 . S
C747 C748 1.523 . S
C748 C729 1.368 . S
C748 C742 1.368 . S
C748 C747 1.523 . S
C749 C733 1.429 . S
C749 C745 1.429 . S
C749 C750 1.523 . S
C750 C734 1.368 . S
C750 C746 1.368 . S
C750 C749 1.523 . S
H751 C726 0.950 . S
H752 C728 0.950 . S
H753 C729 0.949 . S
H754 C731 0.950 . S
H755 C733 0.950 . S
C756 C757 1.349 . S
C756 C758 1.327 . S
C756 H781 0.950 . S
C757 C756 1.349 . S
C757 C773 1.349 . S
C758 C756 1.327 . S
C758 C777 1.429 . S
C758 H782 0.950 . S
C759 C776 1.574 . S
C759 C778 1.368 . S
C759 H783 0.949 . S
H760 C764 0.949 . S
C761 C762 1.349 . S
C761 C763 1.327 . S
C761 H784 0.950 . S
C762 C761 1.349 . S
C762 C774 1.349 . S
C763 C761 1.327 . S
C763 C779 1.429 . S
C763 H785 0.950 . S
C764 H760 0.949 . S
C764 C772 1.574 . S
C764 C780 1.368 . S
H765 C773 0.950 . S
H766 C771 0.950 . S
H767 C772 0.949 . S
H768 C774 0.950 . S
H769 C775 0.950 . S
H770 C776 0.949 . S
C771 H766 0.950 . S
C771 C773 1.327 . S
C771 C777 1.429 . S
C772 C764 1.574 . S
C772 H767 0.949 . S
C772 C778 1.368 . S
C773 C757 1.349 . S
C773 H765 0.950 . S
C773 C771 1.327 . S
C774 C762 1.349 . S
C774 H768 0.950 . S
C774 C775 1.327 . S
C775 H769 0.950 . S
C775 C774 1.327 . S
C775 C779 1.429 . S
C776 C759 1.574 . S
C776 H770 0.949 . S
C776 C780 1.368 . S
C777 C758 1.429 . S
C777 C771 1.429 . S
C777 C778 1.523 . S
C778 C759 1.368 . S
C778 C772 1.368 . S
C778 C777 1.523 . S
C779 C763 1.429 . S
C779 C775 1.429 . S
C779 C780 1.523 . S
C780 C764 1.368 . S
C780 C776 1.368 . S
C780 C779 1.523 . S
H781 C756 0.950 . S
H782 C758 0.950 . S
H783 C759 0.949 . S
H784 C761 0.950 . S
H785 C763 0.950 . S
C786 C787 1.349 . S
C786 C788 1.327 . S
C786 H811 0.950 . S
C787 C786 1.349 . S
C787 C803 1.349 . S
C788 C786 1.327 . S
C788 C807 1.429 . S
C788 H812 0.950 . S
C789 C806 1.574 1_554 S
C789 C808 1.368 . S
C789 H813 0.949 . S
H790 C794 0.949 . S
C791 C792 1.349 . S
C791 C793 1.327 . S
C791 H814 0.950 . S
C792 C791 1.349 . S
C792 C804 1.349 . S
C793 C791 1.327 . S
C793 C809 1.429 . S
C793 H815 0.950 . S
C794 H790 0.949 . S
C794 C802 1.574 1_556 S
C794 C810 1.368 . S
H795 C803 0.950 . S
H796 C801 0.950 . S
H797 C802 0.949 . S
H798 C804 0.950 . S
H799 C805 0.950 . S
H800 C806 0.949 . S
C801 H796 0.950 . S
C801 C803 1.327 . S
C801 C807 1.429 . S
C802 C794 1.574 1_554 S
C802 H797 0.949 . S
C802 C808 1.368 . S
C803 C787 1.349 . S
C803 H795 0.950 . S
C803 C801 1.327 . S
C804 C792 1.349 . S
C804 H798 0.950 . S
C804 C805 1.327 . S
C805 H799 0.950 . S
C805 C804 1.327 . S
C805 C809 1.429 . S
C806 C789 1.574 1_556 S
C806 H800 0.949 . S
C806 C810 1.368 . S
C807 C788 1.429 . S
C807 C801 1.429 . S
C807 C808 1.523 . S
C808 C789 1.368 . S
C808 C802 1.368 . S
C808 C807 1.523 . S
C809 C793 1.429 . S
C809 C805 1.429 . S
C809 C810 1.523 . S
C810 C794 1.368 . S
C810 C806 1.368 . S
C810 C809 1.523 . S
H811 C786 0.950 . S
H812 C788 0.950 . S
H813 C789 0.949 . S
H814 C791 0.950 . S
H815 C793 0.950 . S
C816 C817 1.349 . S
C816 C818 1.327 . S
C816 H841 0.950 . S
C817 C816 1.349 . S
C817 C833 1.349 . S
C818 C816 1.327 . S
C818 C837 1.429 . S
C818 H842 0.950 . S
C819 C836 1.574 . S
C819 C838 1.368 . S
C819 H843 0.949 . S
H820 C824 0.949 . S
C821 C822 1.349 . S
C821 C823 1.327 . S
C821 H844 0.950 . S
C822 C821 1.349 . S
C822 C834 1.349 . S
C823 C821 1.327 . S
C823 C839 1.429 . S
C823 H845 0.950 . S
C824 H820 0.949 . S
C824 C832 1.574 . S
C824 C840 1.368 . S
H825 C833 0.950 . S
H826 C831 0.950 . S
H827 C832 0.949 . S
H828 C834 0.950 . S
H829 C835 0.950 . S
H830 C836 0.949 . S
C831 H826 0.950 . S
C831 C833 1.327 . S
C831 C837 1.429 . S
C832 C824 1.574 . S
C832 H827 0.949 . S
C832 C838 1.368 . S
C833 C817 1.349 . S
C833 H825 0.950 . S
C833 C831 1.327 . S
C834 C822 1.349 . S
C834 H828 0.950 . S
C834 C835 1.327 . S
C835 H829 0.950 . S
C835 C834 1.327 . S
C835 C839 1.429 . S
C836 C819 1.574 . S
C836 H830 0.949 . S
C836 C840 1.368 . S
C837 C818 1.429 . S
C837 C831 1.429 . S
C837 C838 1.523 . S
C838 C819 1.368 . S
C838 C832 1.368 . S
C838 C837 1.523 . S
C839 C823 1.429 . S
C839 C835 1.429 . S
C839 C840 1.523 . S
C840 C824 1.368 . S
C840 C836 1.368 . S
C840 C839 1.523 . S
H841 C816 0.950 . S
H842 C818 0.950 . S
H843 C819 0.949 . S
H844 C821 0.950 . S
H845 C823 0.950 . S
C846 C847 1.349 . S
C846 C848 1.327 . S
C846 H871 0.950 . S
C847 C846 1.349 . S
C847 C863 1.349 . S
C848 C846 1.327 . S
C848 C867 1.429 . S
C848 H872 0.950 . S
C849 C866 1.574 . S
C849 C868 1.368 . S
C849 H873 0.949 . S
H850 C854 0.949 . S
C851 C852 1.349 . S
C851 C853 1.327 . S
C851 H874 0.950 . S
C852 C851 1.349 . S
C852 C864 1.349 . S
C853 C851 1.327 . S
C853 C869 1.429 . S
C853 H875 0.950 . S
C854 H850 0.949 . S
C854 C862 1.574 . S
C854 C870 1.368 . S
H855 C863 0.950 . S
H856 C861 0.950 . S
H857 C862 0.949 . S
H858 C864 0.950 . S
H859 C865 0.950 . S
H860 C866 0.949 . S
C861 H856 0.950 . S
C861 C863 1.327 . S
C861 C867 1.429 . S
C862 C854 1.574 . S
C862 H857 0.949 . S
C862 C868 1.368 . S
C863 C847 1.349 . S
C863 H855 0.950 . S
C863 C861 1.327 . S
C864 C852 1.349 . S
C864 H858 0.950 . S
C864 C865 1.327 . S
C865 H859 0.950 . S
C865 C864 1.327 . S
C865 C869 1.429 . S
C866 C849 1.574 . S
C866 H860 0.949 . S
C866 C870 1.368 . S
C867 C848 1.429 . S
C867 C861 1.429 . S
C867 C868 1.523 . S
C868 C849 1.368 . S
C868 C862 1.368 . S
C868 C867 1.523 . S
C869 C853 1.429 . S
C869 C865 1.429 . S
C869 C870 1.523 . S
C870 C854 1.368 . S
C870 C866 1.368 . S
C870 C869 1.523 . S
H871 C846 0.950 . S
H872 C848 0.950 . S
H873 C849 0.949 . S
H874 C851 0.950 . S
H875 C853 0.950 . S
C876 C877 1.349 . S
C876 C878 1.327 . S
C876 H901 0.950 . S
C877 C876 1.349 . S
C877 C893 1.349 . S
C878 C876 1.327 . S
C878 C897 1.429 . S
C878 H902 0.950 . S
C879 C896 1.574 1_565 S
C879 C898 1.368 . S
C879 H903 0.949 . S
H880 C884 0.949 . S
C881 C882 1.349 . S
C881 C883 1.327 . S
C881 H904 0.950 . S
C882 C881 1.349 . S
C882 C894 1.349 . S
C883 C881 1.327 . S
C883 C899 1.429 . S
C883 H905 0.950 . S
C884 H880 0.949 . S
C884 C892 1.574 1_545 S
C884 C900 1.368 . S
H885 C893 0.950 . S
H886 C891 0.950 . S
H887 C892 0.949 . S
H888 C894 0.950 . S
H889 C895 0.950 . S
H890 C896 0.949 . S
C891 H886 0.950 . S
C891 C893 1.327 . S
C891 C897 1.429 . S
C892 C884 1.574 1_565 S
C892 H887 0.949 . S
C892 C898 1.368 . S
C893 C877 1.349 . S
C893 H885 0.950 . S
C893 C891 1.327 . S
C894 C882 1.349 . S
C894 H888 0.950 . S
C894 C895 1.327 . S
C895 H889 0.950 . S
C895 C894 1.327 . S
C895 C899 1.429 . S
C896 C879 1.574 1_545 S
C896 H890 0.949 . S
C896 C900 1.368 . S
C897 C878 1.429 . S
C897 C891 1.429 . S
C897 C898 1.523 . S
C898 C879 1.368 . S
C898 C892 1.368 . S
C898 C897 1.523 . S
C899 C883 1.429 . S
C899 C895 1.429 . S
C899 C900 1.523 . S
C900 C884 1.368 . S
C900 C896 1.368 . S
C900 C899 1.523 . S
H901 C876 0.950 . S
H902 C878 0.950 . S
H903 C879 0.949 . S
H904 C881 0.950 . S
H905 C883 0.950 . S
C906 C907 1.349 . S
C906 C908 1.327 . S
C906 H931 0.950 . S
C907 C906 1.349 . S
C907 C923 1.349 . S
C908 C906 1.327 . S
C908 C927 1.429 . S
C908 H932 0.950 . S
C909 C926 1.574 . S
C909 C928 1.368 . S
C909 H933 0.949 . S
H910 C914 0.949 . S
C911 C912 1.349 . S
C911 C913 1.327 . S
C911 H934 0.950 . S
C912 C911 1.349 . S
C912 C924 1.349 . S
C913 C911 1.327 . S
C913 C929 1.429 . S
C913 H935 0.950 . S
C914 H910 0.949 . S
C914 C922 1.574 . S
C914 C930 1.368 . S
H915 C923 0.950 . S
H916 C921 0.950 . S
H917 C922 0.949 . S
H918 C924 0.950 . S
H919 C925 0.950 . S
H920 C926 0.949 . S
C921 H916 0.950 . S
C921 C923 1.327 . S
C921 C927 1.429 . S
C922 C914 1.574 . S
C922 H917 0.949 . S
C922 C928 1.368 . S
C923 C907 1.349 . S
C923 H915 0.950 . S
C923 C921 1.327 . S
C924 C912 1.349 . S
C924 H918 0.950 . S
C924 C925 1.327 . S
C925 H919 0.950 . S
C925 C924 1.327 . S
C925 C929 1.429 . S
C926 C909 1.574 . S
C926 H920 0.949 . S
C926 C930 1.368 . S
C927 C908 1.429 . S
C927 C921 1.429 . S
C927 C928 1.523 . S
C928 C909 1.368 . S
C928 C922 1.368 . S
C928 C927 1.523 . S
C929 C913 1.429 . S
C929 C925 1.429 . S
C929 C930 1.523 . S
C930 C914 1.368 . S
C930 C926 1.368 . S
C930 C929 1.523 . S
H931 C906 0.950 . S
H932 C908 0.950 . S
H933 C909 0.949 . S
H934 C911 0.950 . S
H935 C913 0.950 . S
C936 C937 1.349 . S
C936 C938 1.327 . S
C936 H961 0.950 . S
C937 C936 1.349 . S
C937 C953 1.349 . S
C938 C936 1.327 . S
C938 C957 1.429 . S
C938 H962 0.950 . S
C939 C956 1.574 1_565 S
C939 C958 1.368 . S
C939 H963 0.949 . S
H940 C944 0.949 . S
C941 C942 1.349 . S
C941 C943 1.327 . S
C941 H964 0.950 . S
C942 C941 1.349 . S
C942 C954 1.349 . S
C943 C941 1.327 . S
C943 C959 1.429 . S
C943 H965 0.950 . S
C944 H940 0.949 . S
C944 C952 1.574 1_545 S
C944 C960 1.368 . S
H945 C953 0.950 . S
H946 C951 0.950 . S
H947 C952 0.949 . S
H948 C954 0.950 . S
H949 C955 0.950 . S
H950 C956 0.949 . S
C951 H946 0.950 . S
C951 C953 1.327 . S
C951 C957 1.429 . S
C952 C944 1.574 1_565 S
C952 H947 0.949 . S
C952 C958 1.368 . S
C953 C937 1.349 . S
C953 H945 0.950 . S
C953 C951 1.327 . S
C954 C942 1.349 . S
C954 H948 0.950 . S
C954 C955 1.327 . S
C955 H949 0.950 . S
C955 C954 1.327 . S
C955 C959 1.429 . S
C956 C939 1.574 1_545 S
C956 H950 0.949 . S
C956 C960 1.368 . S
C957 C938 1.429 . S
C957 C951 1.429 . S
C957 C958 1.523 . S
C958 C939 1.368 . S
C958 C952 1.368 . S
C958 C957 1.523 . S
C959 C943 1.429 . S
C959 C955 1.429 . S
C959 C960 1.523 . S
C960 C944 1.368 . S
C960 C956 1.368 . S
C960 C959 1.523 . S
H961 C936 0.950 . S
H962 C938 0.950 . S
H963 C939 0.949 . S
H964 C941 0.950 . S
H965 C943 0.950 . S
C966 C967 1.349 . S
C966 C968 1.327 . S
C966 H991 0.950 . S
C967 C966 1.349 . S
C967 C983 1.349 . S
C968 C966 1.327 . S
C968 C987 1.429 . S
C968 H992 0.950 . S
C969 C986 1.574 . S
C969 C988 1.368 . S
C969 H993 0.949 . S
H970 C974 0.949 . S
C971 C972 1.349 . S
C971 C973 1.327 . S
C971 H994 0.950 . S
C972 C971 1.349 . S
C972 C984 1.349 . S
C973 C971 1.327 . S
C973 C989 1.429 . S
C973 H995 0.950 . S
C974 H970 0.949 . S
C974 C982 1.574 . S
C974 C990 1.368 . S
H975 C983 0.950 . S
H976 C981 0.950 . S
H977 C982 0.949 . S
H978 C984 0.950 . S
H979 C985 0.950 . S
H980 C986 0.949 . S
C981 H976 0.950 . S
C981 C983 1.327 . S
C981 C987 1.429 . S
C982 C974 1.574 . S
C982 H977 0.949 . S
C982 C988 1.368 . S
C983 C967 1.349 . S
C983 H975 0.950 . S
C983 C981 1.327 . S
C984 C972 1.349 . S
C984 H978 0.950 . S
C984 C985 1.327 . S
C985 H979 0.950 . S
C985 C984 1.327 . S
C985 C989 1.429 . S
C986 C969 1.574 . S
C986 H980 0.949 . S
C986 C990 1.368 . S
C987 C968 1.429 . S
C987 C981 1.429 . S
C987 C988 1.523 . S
C988 C969 1.368 . S
C988 C982 1.368 . S
C988 C987 1.523 . S
C989 C973 1.429 . S
C989 C985 1.429 . S
C989 C990 1.523 . S
C990 C974 1.368 . S
C990 C986 1.368 . S
C990 C989 1.523 . S
H991 C966 0.950 . S
H992 C968 0.950 . S
H993 C969 0.949 . S
H994 C971 0.950 . S
H995 C973 0.950 . S
C996 C997 1.349 . S
C996 C998 1.327 . S
C996 H1021 0.950 . S
C997 C996 1.349 . S
C997 C1013 1.349 . S
C998 C996 1.327 . S
C998 C1017 1.429 . S
C998 H1022 0.950 . S
C999 C1016 1.574 1_565 S
C999 C1018 1.368 . S
C999 H1023 0.949 . S
H1000 C1004 0.949 . S
C1001 C1002 1.349 . S
C1001 C1003 1.327 . S
C1001 H1024 0.950 . S
C1002 C1001 1.349 . S
C1002 C1014 1.349 . S
C1003 C1001 1.327 . S
C1003 C1019 1.429 . S
C1003 H1025 0.950 . S
C1004 H1000 0.949 . S
C1004 C1012 1.574 1_545 S
C1004 C1020 1.368 . S
H1005 C1013 0.950 . S
H1006 C1011 0.950 . S
H1007 C1012 0.949 . S
H1008 C1014 0.950 . S
H1009 C1015 0.950 . S
H1010 C1016 0.949 . S
C1011 H1006 0.950 . S
C1011 C1013 1.327 . S
C1011 C1017 1.429 . S
C1012 C1004 1.574 1_565 S
C1012 H1007 0.949 . S
C1012 C1018 1.368 . S
C1013 C997 1.349 . S
C1013 H1005 0.950 . S
C1013 C1011 1.327 . S
C1014 C1002 1.349 . S
C1014 H1008 0.950 . S
C1014 C1015 1.327 . S
C1015 H1009 0.950 . S
C1015 C1014 1.327 . S
C1015 C1019 1.429 . S
C1016 C999 1.574 1_545 S
C1016 H1010 0.949 . S
C1016 C1020 1.368 . S
C1017 C998 1.429 . S
C1017 C1011 1.429 . S
C1017 C1018 1.523 . S
C1018 C999 1.368 . S
C1018 C1012 1.368 . S
C1018 C1017 1.523 . S
C1019 C1003 1.429 . S
C1019 C1015 1.429 . S
C1019 C1020 1.523 . S
C1020 C1004 1.368 . S
C1020 C1016 1.368 . S
C1020 C1019 1.523 . S
H1021 C996 0.950 . S
H1022 C998 0.950 . S
H1023 C999 0.949 . S
H1024 C1001 0.950 . S
H1025 C1003 0.950 . S
C1026 C1027 1.349 . S
C1026 C1028 1.327 . S
C1026 H1051 0.950 . S
C1027 C1026 1.349 . S
C1027 C1043 1.349 . S
C1028 C1026 1.327 . S
C1028 C1047 1.429 . S
C1028 H1052 0.950 . S
C1029 C1046 1.574 1_545 S
C1029 C1048 1.368 . S
C1029 H1053 0.949 . S
H1030 C1034 0.949 . S
C1031 C1032 1.349 . S
C1031 C1033 1.327 . S
C1031 H1054 0.950 . S
C1032 C1031 1.349 . S
C1032 C1044 1.349 . S
C1033 C1031 1.327 . S
C1033 C1049 1.429 . S
C1033 H1055 0.950 . S
C1034 H1030 0.949 . S
C1034 C1042 1.574 1_565 S
C1034 C1050 1.368 . S
H1035 C1043 0.950 . S
H1036 C1041 0.950 . S
H1037 C1042 0.949 . S
H1038 C1044 0.950 . S
H1039 C1045 0.950 . S
H1040 C1046 0.949 . S
C1041 H1036 0.950 . S
C1041 C1043 1.327 . S
C1041 C1047 1.429 . S
C1042 C1034 1.574 1_545 S
C1042 H1037 0.949 . S
C1042 C1048 1.368 . S
C1043 C1027 1.349 . S
C1043 H1035 0.950 . S
C1043 C1041 1.327 . S
C1044 C1032 1.349 . S
C1044 H1038 0.950 . S
C1044 C1045 1.327 . S
C1045 H1039 0.950 . S
C1045 C1044 1.327 . S
C1045 C1049 1.429 . S
C1046 C1029 1.574 1_565 S
C1046 H1040 0.949 . S
C1046 C1050 1.368 . S
C1047 C1028 1.429 . S
C1047 C1041 1.429 . S
C1047 C1048 1.523 . S
C1048 C1029 1.368 . S
C1048 C1042 1.368 . S
C1048 C1047 1.523 . S
C1049 C1033 1.429 . S
C1049 C1045 1.429 . S
C1049 C1050 1.523 . S
C1050 C1034 1.368 . S
C1050 C1046 1.368 . S
C1050 C1049 1.523 . S
H1051 C1026 0.950 . S
H1052 C1028 0.950 . S
H1053 C1029 0.949 . S
H1054 C1031 0.950 . S
H1055 C1033 0.950 . S
C1056 C1057 1.349 . S
C1056 C1058 1.327 . S
C1056 H1081 0.950 . S
C1057 C1056 1.349 . S
C1057 C1073 1.349 . S
C1058 C1056 1.327 . S
C1058 C1077 1.429 . S
C1058 H1082 0.950 . S
C1059 C1076 1.574 . S
C1059 C1078 1.368 . S
C1059 H1083 0.949 . S
H1060 C1064 0.949 . S
C1061 C1062 1.349 . S
C1061 C1063 1.327 . S
C1061 H1084 0.950 . S
C1062 C1061 1.349 . S
C1062 C1074 1.349 . S
C1063 C1061 1.327 . S
C1063 C1079 1.429 . S
C1063 H1085 0.950 . S
C1064 H1060 0.949 . S
C1064 C1072 1.574 . S
C1064 C1080 1.368 . S
H1065 C1073 0.950 . S
H1066 C1071 0.950 . S
H1067 C1072 0.949 . S
H1068 C1074 0.950 . S
H1069 C1075 0.950 . S
H1070 C1076 0.949 . S
C1071 H1066 0.950 . S
C1071 C1073 1.327 . S
C1071 C1077 1.429 . S
C1072 C1064 1.574 . S
C1072 H1067 0.949 . S
C1072 C1078 1.368 . S
C1073 C1057 1.349 . S
C1073 H1065 0.950 . S
C1073 C1071 1.327 . S
C1074 C1062 1.349 . S
C1074 H1068 0.950 . S
C1074 C1075 1.327 . S
C1075 H1069 0.950 . S
C1075 C1074 1.327 . S
C1075 C1079 1.429 . S
C1076 C1059 1.574 . S
C1076 H1070 0.949 . S
C1076 C1080 1.368 . S
C1077 C1058 1.429 . S
C1077 C1071 1.429 . S
C1077 C1078 1.523 . S
C1078 C1059 1.368 . S
C1078 C1072 1.368 . S
C1078 C1077 1.523 . S
C1079 C1063 1.429 . S
C1079 C1075 1.429 . S
C1079 C1080 1.523 . S
C1080 C1064 1.368 . S
C1080 C1076 1.368 . S
C1080 C1079 1.523 . S
H1081 C1056 0.950 . S
H1082 C1058 0.950 . S
H1083 C1059 0.949 . S
H1084 C1061 0.950 . S
H1085 C1063 0.950 . S
C1086 C1087 1.349 . S
C1086 C1088 1.327 . S
C1086 H1111 0.950 . S
C1087 C1086 1.349 . S
C1087 C1103 1.349 . S
C1088 C1086 1.327 . S
C1088 C1107 1.429 . S
C1088 H1112 0.950 . S
C1089 C1106 1.574 . S
C1089 C1108 1.368 . S
C1089 H1113 0.949 . S
H1090 C1094 0.949 . S
C1091 C1092 1.349 . S
C1091 C1093 1.327 . S
C1091 H1114 0.950 . S
C1092 C1091 1.349 . S
C1092 C1104 1.349 . S
C1093 C1091 1.327 . S
C1093 C1109 1.429 . S
C1093 H1115 0.950 . S
C1094 H1090 0.949 . S
C1094 C1102 1.574 . S
C1094 C1110 1.368 . S
H1095 C1103 0.950 . S
H1096 C1101 0.950 . S
H1097 C1102 0.949 . S
H1098 C1104 0.950 . S
H1099 C1105 0.950 . S
H1100 C1106 0.949 . S
C1101 H1096 0.950 . S
C1101 C1103 1.327 . S
C1101 C1107 1.429 . S
C1102 C1094 1.574 . S
C1102 H1097 0.949 . S
C1102 C1108 1.368 . S
C1103 C1087 1.349 . S
C1103 H1095 0.950 . S
C1103 C1101 1.327 . S
C1104 C1092 1.349 . S
C1104 H1098 0.950 . S
C1104 C1105 1.327 . S
C1105 H1099 0.950 . S
C1105 C1104 1.327 . S
C1105 C1109 1.429 . S
C1106 C1089 1.574 . S
C1106 H1100 0.949 . S
C1106 C1110 1.368 . S
C1107 C1088 1.429 . S
C1107 C1101 1.429 . S
C1107 C1108 1.523 . S
C1108 C1089 1.368 . S
C1108 C1102 1.368 . S
C1108 C1107 1.523 . S
C1109 C1093 1.429 . S
C1109 C1105 1.429 . S
C1109 C1110 1.523 . S
C1110 C1094 1.368 . S
C1110 C1106 1.368 . S
C1110 C1109 1.523 . S
H1111 C1086 0.950 . S
H1112 C1088 0.950 . S
H1113 C1089 0.949 . S
H1114 C1091 0.950 . S
H1115 C1093 0.950 . S
C1116 C1117 1.349 . S
C1116 C1118 1.327 . S
C1116 H1141 0.950 . S
C1117 C1116 1.349 . S
C1117 C1133 1.349 . S
C1118 C1116 1.327 . S
C1118 C1137 1.429 . S
C1118 H1142 0.950 . S
C1119 C1136 1.574 . S
C1119 C1138 1.368 . S
C1119 H1143 0.949 . S
H1120 C1124 0.949 . S
C1121 C1122 1.349 . S
C1121 C1123 1.327 . S
C1121 H1144 0.950 . S
C1122 C1121 1.349 . S
C1122 C1134 1.349 . S
C1123 C1121 1.327 . S
C1123 C1139 1.429 . S
C1123 H1145 0.950 . S
C1124 H1120 0.949 . S
C1124 C1132 1.574 . S
C1124 C1140 1.368 . S
H1125 C1133 0.950 . S
H1126 C1131 0.950 . S
H1127 C1132 0.949 . S
H1128 C1134 0.950 . S
H1129 C1135 0.950 . S
H1130 C1136 0.949 . S
C1131 H1126 0.950 . S
C1131 C1133 1.327 . S
C1131 C1137 1.429 . S
C1132 C1124 1.574 . S
C1132 H1127 0.949 . S
C1132 C1138 1.368 . S
C1133 C1117 1.349 . S
C1133 H1125 0.950 . S
C1133 C1131 1.327 . S
C1134 C1122 1.349 . S
C1134 H1128 0.950 . S
C1134 C1135 1.327 . S
C1135 H1129 0.950 . S
C1135 C1134 1.327 . S
C1135 C1139 1.429 . S
C1136 C1119 1.574 . S
C1136 H1130 0.949 . S
C1136 C1140 1.368 . S
C1137 C1118 1.429 . S
C1137 C1131 1.429 . S
C1137 C1138 1.523 . S
C1138 C1119 1.368 . S
C1138 C1132 1.368 . S
C1138 C1137 1.523 . S
C1139 C1123 1.429 . S
C1139 C1135 1.429 . S
C1139 C1140 1.523 . S
C1140 C1124 1.368 . S
C1140 C1136 1.368 . S
C1140 C1139 1.523 . S
H1141 C1116 0.950 . S
H1142 C1118 0.950 . S
H1143 C1119 0.949 . S
H1144 C1121 0.950 . S
H1145 C1123 0.950 . S
C1146 C1147 1.349 . S
C1146 C1148 1.327 . S
C1146 H1171 0.950 . S
C1147 C1146 1.349 . S
C1147 C1163 1.349 . S
C1148 C1146 1.327 . S
C1148 C1167 1.429 . S
C1148 H1172 0.950 . S
C1149 C1166 1.574 . S
C1149 C1168 1.368 . S
C1149 H1173 0.949 . S
H1150 C1154 0.949 . S
C1151 C1152 1.349 . S
C1151 C1153 1.327 . S
C1151 H1174 0.950 . S
C1152 C1151 1.349 . S
C1152 C1164 1.349 . S
C1153 C1151 1.327 . S
C1153 C1169 1.429 . S
C1153 H1175 0.950 . S
C1154 H1150 0.949 . S
C1154 C1162 1.574 . S
C1154 C1170 1.368 . S
H1155 C1163 0.950 . S
H1156 C1161 0.950 . S
H1157 C1162 0.949 . S
H1158 C1164 0.950 . S
H1159 C1165 0.950 . S
H1160 C1166 0.949 . S
C1161 H1156 0.950 . S
C1161 C1163 1.327 . S
C1161 C1167 1.429 . S
C1162 C1154 1.574 . S
C1162 H1157 0.949 . S
C1162 C1168 1.368 . S
C1163 C1147 1.349 . S
C1163 H1155 0.950 . S
C1163 C1161 1.327 . S
C1164 C1152 1.349 . S
C1164 H1158 0.950 . S
C1164 C1165 1.327 . S
C1165 H1159 0.950 . S
C1165 C1164 1.327 . S
C1165 C1169 1.429 . S
C1166 C1149 1.574 . S
C1166 H1160 0.949 . S
C1166 C1170 1.368 . S
C1167 C1148 1.429 . S
C1167 C1161 1.429 . S
C1167 C1168 1.523 . S
C1168 C1149 1.368 . S
C1168 C1162 1.368 . S
C1168 C1167 1.523 . S
C1169 C1153 1.429 . S
C1169 C1165 1.429 . S
C1169 C1170 1.523 . S
C1170 C1154 1.368 . S
C1170 C1166 1.368 . S
C1170 C1169 1.523 . S
H1171 C1146 0.950 . S
H1172 C1148 0.950 . S
H1173 C1149 0.949 . S
H1174 C1151 0.950 . S
H1175 C1153 0.950 . S
C1176 C1177 1.349 . S
C1176 C1178 1.327 . S
C1176 H1201 0.950 . S
C1177 C1176 1.349 . S
C1177 C1193 1.349 . S
C1178 C1176 1.327 . S
C1178 C1197 1.429 . S
C1178 H1202 0.950 . S
C1179 C1196 1.574 . S
C1179 C1198 1.368 . S
C1179 H1203 0.949 . S
H1180 C1184 0.949 . S
C1181 C1182 1.349 . S
C1181 C1183 1.327 . S
C1181 H1204 0.950 . S
C1182 C1181 1.349 . S
C1182 C1194 1.349 . S
C1183 C1181 1.327 . S
C1183 C1199 1.429 . S
C1183 H1205 0.950 . S
C1184 H1180 0.949 . S
C1184 C1192 1.574 . S
C1184 C1200 1.368 . S
H1185 C1193 0.950 . S
H1186 C1191 0.950 . S
H1187 C1192 0.949 . S
H1188 C1194 0.950 . S
H1189 C1195 0.950 . S
H1190 C1196 0.949 . S
C1191 H1186 0.950 . S
C1191 C1193 1.327 . S
C1191 C1197 1.429 . S
C1192 C1184 1.574 . S
C1192 H1187 0.949 . S
C1192 C1198 1.368 . S
C1193 C1177 1.349 . S
C1193 H1185 0.950 . S
C1193 C1191 1.327 . S
C1194 C1182 1.349 . S
C1194 H1188 0.950 . S
C1194 C1195 1.327 . S
C1195 H1189 0.950 . S
C1195 C1194 1.327 . S
C1195 C1199 1.429 . S
C1196 C1179 1.574 . S
C1196 H1190 0.949 . S
C1196 C1200 1.368 . S
C1197 C1178 1.429 . S
C1197 C1191 1.429 . S
C1197 C1198 1.523 . S
C1198 C1179 1.368 . S
C1198 C1192 1.368 . S
C1198 C1197 1.523 . S
C1199 C1183 1.429 . S
C1199 C1195 1.429 . S
C1199 C1200 1.523 . S
C1200 C1184 1.368 . S
C1200 C1196 1.368 . S
C1200 C1199 1.523 . S
H1201 C1176 0.950 . S
H1202 C1178 0.950 . S
H1203 C1179 0.949 . S
H1204 C1181 0.950 . S
H1205 C1183 0.950 . S
C1206 C1207 1.349 . S
C1206 C1208 1.327 . S
C1206 H1231 0.950 . S
C1207 C1206 1.349 . S
C1207 C1223 1.349 . S
C1208 C1206 1.327 . S
C1208 C1227 1.429 . S
C1208 H1232 0.950 . S
C1209 C1226 1.574 . S
C1209 C1228 1.368 . S
C1209 H1233 0.949 . S
H1210 C1214 0.949 . S
C1211 C1212 1.349 . S
C1211 C1213 1.327 . S
C1211 H1234 0.950 . S
C1212 C1211 1.349 . S
C1212 C1224 1.349 . S
C1213 C1211 1.327 . S
C1213 C1229 1.429 . S
C1213 H1235 0.950 . S
C1214 H1210 0.949 . S
C1214 C1222 1.574 . S
C1214 C1230 1.368 . S
H1215 C1223 0.950 . S
H1216 C1221 0.950 . S
H1217 C1222 0.949 . S
H1218 C1224 0.950 . S
H1219 C1225 0.950 . S
H1220 C1226 0.949 . S
C1221 H1216 0.950 . S
C1221 C1223 1.327 . S
C1221 C1227 1.429 . S
C1222 C1214 1.574 . S
C1222 H1217 0.949 . S
C1222 C1228 1.368 . S
C1223 C1207 1.349 . S
C1223 H1215 0.950 . S
C1223 C1221 1.327 . S
C1224 C1212 1.349 . S
C1224 H1218 0.950 . S
C1224 C1225 1.327 . S
C1225 H1219 0.950 . S
C1225 C1224 1.327 . S
C1225 C1229 1.429 . S
C1226 C1209 1.574 . S
C1226 H1220 0.949 . S
C1226 C1230 1.368 . S
C1227 C1208 1.429 . S
C1227 C1221 1.429 . S
C1227 C1228 1.523 . S
C1228 C1209 1.368 . S
C1228 C1222 1.368 . S
C1228 C1227 1.523 . S
C1229 C1213 1.429 . S
C1229 C1225 1.429 . S
C1229 C1230 1.523 . S
C1230 C1214 1.368 . S
C1230 C1226 1.368 . S
C1230 C1229 1.523 . S
H1231 C1206 0.950 . S
H1232 C1208 0.950 . S
H1233 C1209 0.949 . S
H1234 C1211 0.950 . S
H1235 C1213 0.950 . S
C1236 C1237 1.349 . S
C1236 C1238 1.327 . S
C1236 H1261 0.950 . S
C1237 C1236 1.349 . S
C1237 C1253 1.349 . S
C1238 C1236 1.327 . S
C1238 C1257 1.429 . S
C1238 H1262 0.950 . S
C1239 C1256 1.574 . S
C1239 C1258 1.368 . S
C1239 H1263 0.949 . S
H1240 C1244 0.949 . S
C1241 C1242 1.349 . S
C1241 C1243 1.327 . S
C1241 H1264 0.950 . S
C1242 C1241 1.349 . S
C1242 C1254 1.349 . S
C1243 C1241 1.327 . S
C1243 C1259 1.429 . S
C1243 H1265 0.950 . S
C1244 H1240 0.949 . S
C1244 C1252 1.574 . S
C1244 C1260 1.368 . S
H1245 C1253 0.950 . S
H1246 C1251 0.950 . S
H1247 C1252 0.949 . S
H1248 C1254 0.950 . S
H1249 C1255 0.950 . S
H1250 C1256 0.949 . S
C1251 H1246 0.950 . S
C1251 C1253 1.327 . S
C1251 C1257 1.429 . S
C1252 C1244 1.574 . S
C1252 H1247 0.949 . S
C1252 C1258 1.368 . S
C1253 C1237 1.349 . S
C1253 H1245 0.950 . S
C1253 C1251 1.327 . S
C1254 C1242 1.349 . S
C1254 H1248 0.950 . S
C1254 C1255 1.327 . S
C1255 H1249 0.950 . S
C1255 C1254 1.327 . S
C1255 C1259 1.429 . S
C1256 C1239 1.574 . S
C1256 H1250 0.949 . S
C1256 C1260 1.368 . S
C1257 C1238 1.429 . S
C1257 C1251 1.429 . S
C1257 C1258 1.523 . S
C1258 C1239 1.368 . S
C1258 C1252 1.368 . S
C1258 C1257 1.523 . S
C1259 C1243 1.429 . S
C1259 C1255 1.429 . S
C1259 C1260 1.523 . S
C1260 C1244 1.368 . S
C1260 C1256 1.368 . S
C1260 C1259 1.523 . S
H1261 C1236 0.950 . S
H1262 C1238 0.950 . S
H1263 C1239 0.949 . S
H1264 C1241 0.950 . S
H1265 C1243 0.950 . S
C1266 C1267 1.349 . S
C1266 C1268 1.327 . S
C1266 H1291 0.950 . S
C1267 C1266 1.349 . S
C1267 C1283 1.349 . S
C1268 C1266 1.327 . S
C1268 C1287 1.429 . S
C1268 H1292 0.950 . S
C1269 C1286 1.574 . S
C1269 C1288 1.368 . S
C1269 H1293 0.949 . S
H1270 C1274 0.949 . S
C1271 C1272 1.349 . S
C1271 C1273 1.327 . S
C1271 H1294 0.950 . S
C1272 C1271 1.349 . S
C1272 C1284 1.349 . S
C1273 C1271 1.327 . S
C1273 C1289 1.429 . S
C1273 H1295 0.950 . S
C1274 H1270 0.949 . S
C1274 C1282 1.574 . S
C1274 C1290 1.368 . S
H1275 C1283 0.950 . S
H1276 C1281 0.950 . S
H1277 C1282 0.949 . S
H1278 C1284 0.950 . S
H1279 C1285 0.950 . S
H1280 C1286 0.949 . S
C1281 H1276 0.950 . S
C1281 C1283 1.327 . S
C1281 C1287 1.429 . S
C1282 C1274 1.574 . S
C1282 H1277 0.949 . S
C1282 C1288 1.368 . S
C1283 C1267 1.349 . S
C1283 H1275 0.950 . S
C1283 C1281 1.327 . S
C1284 C1272 1.349 . S
C1284 H1278 0.950 . S
C1284 C1285 1.327 . S
C1285 H1279 0.950 . S
C1285 C1284 1.327 . S
C1285 C1289 1.429 . S
C1286 C1269 1.574 . S
C1286 H1280 0.949 . S
C1286 C1290 1.368 . S
C1287 C1268 1.429 . S
C1287 C1281 1.429 . S
C1287 C1288 1.523 . S
C1288 C1269 1.368 . S
C1288 C1282 1.368 . S
C1288 C1287 1.523 . S
C1289 C1273 1.429 . S
C1289 C1285 1.429 . S
C1289 C1290 1.523 . S
C1290 C1274 1.368 . S
C1290 C1286 1.368 . S
C1290 C1289 1.523 . S
H1291 C1266 0.950 . S
H1292 C1268 0.950 . S
H1293 C1269 0.949 . S
H1294 C1271 0.950 . S
H1295 C1273 0.950 . S
C1296 C1297 1.349 . S
C1296 C1298 1.327 . S
C1296 H1321 0.950 . S
C1297 C1296 1.349 . S
C1297 C1313 1.349 . S
C1298 C1296 1.327 . S
C1298 C1317 1.429 . S
C1298 H1322 0.950 . S
C1299 C1316 1.574 . S
C1299 C1318 1.368 . S
C1299 H1323 0.949 . S
H1300 C1304 0.949 . S
C1301 C1302 1.349 . S
C1301 C1303 1.327 . S
C1301 H1324 0.950 . S
C1302 C1301 1.349 . S
C1302 C1314 1.349 . S
C1303 C1301 1.327 . S
C1303 C1319 1.429 . S
C1303 H1325 0.950 . S
C1304 H1300 0.949 . S
C1304 C1312 1.574 . S
C1304 C1320 1.368 . S
H1305 C1313 0.950 . S
H1306 C1311 0.950 . S
H1307 C1312 0.949 . S
H1308 C1314 0.950 . S
H1309 C1315 0.950 . S
H1310 C1316 0.949 . S
C1311 H1306 0.950 . S
C1311 C1313 1.327 . S
C1311 C1317 1.429 . S
C1312 C1304 1.574 . S
C1312 H1307 0.949 . S
C1312 C1318 1.368 . S
C1313 C1297 1.349 . S
C1313 H1305 0.950 . S
C1313 C1311 1.327 . S
C1314 C1302 1.349 . S
C1314 H1308 0.950 . S
C1314 C1315 1.327 . S
C1315 H1309 0.950 . S
C1315 C1314 1.327 . S
C1315 C1319 1.429 . S
C1316 C1299 1.574 . S
C1316 H1310 0.949 . S
C1316 C1320 1.368 . S
C1317 C1298 1.429 . S
C1317 C1311 1.429 . S
C1317 C1318 1.523 . S
C1318 C1299 1.368 . S
C1318 C1312 1.368 . S
C1318 C1317 1.523 . S
C1319 C1303 1.429 . S
C1319 C1315 1.429 . S
C1319 C1320 1.523 . S
C1320 C1304 1.368 . S
C1320 C1316 1.368 . S
C1320 C1319 1.523 . S
H1321 C1296 0.950 . S
H1322 C1298 0.950 . S
H1323 C1299 0.949 . S
H1324 C1301 0.950 . S
H1325 C1303 0.950 . S
C1326 C1327 1.349 . S
C1326 C1328 1.327 . S
C1326 H1351 0.950 . S
C1327 C1326 1.349 . S
C1327 C1343 1.349 . S
C1328 C1326 1.327 . S
C1328 C1347 1.429 . S
C1328 H1352 0.950 . S
C1329 C1346 1.574 . S
C1329 C1348 1.368 . S
C1329 H1353 0.949 . S
H1330 C1334 0.949 . S
C1331 C1332 1.349 . S
C1331 C1333 1.327 . S
C1331 H1354 0.950 . S
C1332 C1331 1.349 . S
C1332 C1344 1.349 . S
C1333 C1331 1.327 . S
C1333 C1349 1.429 . S
C1333 H1355 0.950 . S
C1334 H1330 0.949 . S
C1334 C1342 1.574 . S
C1334 C1350 1.368 . S
H1335 C1343 0.950 . S
H1336 C1341 0.950 . S
H1337 C1342 0.949 . S
H1338 C1344 0.950 . S
H1339 C1345 0.950 . S
H1340 C1346 0.949 . S
C1341 H1336 0.950 . S
C1341 C1343 1.327 . S
C1341 C1347 1.429 . S
C1342 C1334 1.574 . S
C1342 H1337 0.949 . S
C1342 C1348 1.368 . S
C1343 C1327 1.349 . S
C1343 H1335 0.950 . S
C1343 C1341 1.327 . S
C1344 C1332 1.349 . S
C1344 H1338 0.950 . S
C1344 C1345 1.327 . S
C1345 H1339 0.950 . S
C1345 C1344 1.327 . S
C1345 C1349 1.429 . S
C1346 C1329 1.574 . S
C1346 H1340 0.949 . S
C1346 C1350 1.368 . S
C1347 C1328 1.429 . S
C1347 C1341 1.429 . S
C1347 C1348 1.523 . S
C1348 C1329 1.368 . S
C1348 C1342 1.368 . S
C1348 C1347 1.523 . S
C1349 C1333 1.429 . S
C1349 C1345 1.429 . S
C1349 C1350 1.523 . S
C1350 C1334 1.368 . S
C1350 C1346 1.368 . S
C1350 C1349 1.523 . S
H1351 C1326 0.950 . S
H1352 C1328 0.950 . S
H1353 C1329 0.949 . S
H1354 C1331 0.950 . S
H1355 C1333 0.950 . S
C1356 C1357 1.349 . S
C1356 C1358 1.327 . S
C1356 H1381 0.950 . S
C1357 C1356 1.349 . S
C1357 C1373 1.349 . S
C1358 C1356 1.327 . S
C1358 C1377 1.429 . S
C1358 H1382 0.950 . S
C1359 C1376 1.574 . S
C1359 C1378 1.368 . S
C1359 H1383 0.949 . S
H1360 C1364 0.949 . S
C1361 C1362 1.349 . S
C1361 C1363 1.327 . S
C1361 H1384 0.950 . S
C1362 C1361 1.349 . S
C1362 C1374 1.349 . S
C1363 C1361 1.327 . S
C1363 C1379 1.429 . S
C1363 H1385 0.950 . S
C1364 H1360 0.949 . S
C1364 C1372 1.574 . S
C1364 C1380 1.368 . S
H1365 C1373 0.950 . S
H1366 C1371 0.950 . S
H1367 C1372 0.949 . S
H1368 C1374 0.950 . S
H1369 C1375 0.950 . S
H1370 C1376 0.949 . S
C1371 H1366 0.950 . S
C1371 C1373 1.327 . S
C1371 C1377 1.429 . S
C1372 C1364 1.574 . S
C1372 H1367 0.949 . S
C1372 C1378 1.368 . S
C1373 C1357 1.349 . S
C1373 H1365 0.950 . S
C1373 C1371 1.327 . S
C1374 C1362 1.349 . S
C1374 H1368 0.950 . S
C1374 C1375 1.327 . S
C1375 H1369 0.950 . S
C1375 C1374 1.327 . S
C1375 C1379 1.429 . S
C1376 C1359 1.574 . S
C1376 H1370 0.949 . S
C1376 C1380 1.368 . S
C1377 C1358 1.429 . S
C1377 C1371 1.429 . S
C1377 C1378 1.523 . S
C1378 C1359 1.368 . S
C1378 C1372 1.368 . S
C1378 C1377 1.523 . S
C1379 C1363 1.429 . S
C1379 C1375 1.429 . S
C1379 C1380 1.523 . S
C1380 C1364 1.368 . S
C1380 C1376 1.368 . S
C1380 C1379 1.523 . S
H1381 C1356 0.950 . S
H1382 C1358 0.950 . S
H1383 C1359 0.949 . S
H1384 C1361 0.950 . S
H1385 C1363 0.950 . S
C1386 C1387 1.349 . S
C1386 C1388 1.327 . S
C1386 H1411 0.950 . S
C1387 C1386 1.349 . S
C1387 C1403 1.349 . S
C1388 C1386 1.327 . S
C1388 C1407 1.429 . S
C1388 H1412 0.950 . S
C1389 C1406 1.574 . S
C1389 C1408 1.368 . S
C1389 H1413 0.949 . S
H1390 C1394 0.949 . S
C1391 C1392 1.349 . S
C1391 C1393 1.327 . S
C1391 H1414 0.950 . S
C1392 C1391 1.349 . S
C1392 C1404 1.349 . S
C1393 C1391 1.327 . S
C1393 C1409 1.429 . S
C1393 H1415 0.950 . S
C1394 H1390 0.949 . S
C1394 C1402 1.574 . S
C1394 C1410 1.368 . S
H1395 C1403 0.950 . S
H1396 C1401 0.950 . S
H1397 C1402 0.949 . S
H1398 C1404 0.950 . S
H1399 C1405 0.950 . S
H1400 C1406 0.949 . S
C1401 H1396 0.950 . S
C1401 C1403 1.327 . S
C1401 C1407 1.429 . S
C1402 C1394 1.574 . S
C1402 H1397 0.949 . S
C1402 C1408 1.368 . S
C1403 C1387 1.349 . S
C1403 H1395 0.950 . S
C1403 C1401 1.327 . S
C1404 C1392 1.349 . S
C1404 H1398 0.950 . S
C1404 C1405 1.327 . S
C1405 H1399 0.950 . S
C1405 C1404 1.327 . S
C1405 C1409 1.429 . S
C1406 C1389 1.574 . S
C1406 H1400 0.949 . S
C1406 C1410 1.368 . S
C1407 C1388 1.429 . S
C1407 C1401 1.429 . S
C1407 C1408 1.523 . S
C1408 C1389 1.368 . S
C1408 C1402 1.368 . S
C1408 C1407 1.523 . S
C1409 C1393 1.429 . S
C1409 C1405 1.429 . S
C1409 C1410 1.523 . S
C1410 C1394 1.368 . S
C1410 C1406 1.368 . S
C1410 C1409 1.523 . S
H1411 C1386 0.950 . S
H1412 C1388 0.950 . S
H1413 C1389 0.949 . S
H1414 C1391 0.950 . S
H1415 C1393 0.950 . S
C1416 C1417 1.349 . S
C1416 C1418 1.327 . S
C1416 H1441 0.950 . S
C1417 C1416 1.349 . S
C1417 C1433 1.349 . S
C1418 C1416 1.327 . S
C1418 C1437 1.429 . S
C1418 H1442 0.950 . S
C1419 C1436 1.574 . S
C1419 C1438 1.368 . S
C1419 H1443 0.949 . S
H1420 C1424 0.949 . S
C1421 C1422 1.349 . S
C1421 C1423 1.327 . S
C1421 H1444 0.950 . S
C1422 C1421 1.349 . S
C1422 C1434 1.349 . S
C1423 C1421 1.327 . S
C1423 C1439 1.429 . S
C1423 H1445 0.950 . S
C1424 H1420 0.949 . S
C1424 C1432 1.574 . S
C1424 C1440 1.368 . S
H1425 C1433 0.950 . S
H1426 C1431 0.950 . S
H1427 C1432 0.949 . S
H1428 C1434 0.950 . S
H1429 C1435 0.950 . S
H1430 C1436 0.949 . S
C1431 H1426 0.950 . S
C1431 C1433 1.327 . S
C1431 C1437 1.429 . S
C1432 C1424 1.574 . S
C1432 H1427 0.949 . S
C1432 C1438 1.368 . S
C1433 C1417 1.349 . S
C1433 H1425 0.950 . S
C1433 C1431 1.327 . S
C1434 C1422 1.349 . S
C1434 H1428 0.950 . S
C1434 C1435 1.327 . S
C1435 H1429 0.950 . S
C1435 C1434 1.327 . S
C1435 C1439 1.429 . S
C1436 C1419 1.574 . S
C1436 H1430 0.949 . S
C1436 C1440 1.368 . S
C1437 C1418 1.429 . S
C1437 C1431 1.429 . S
C1437 C1438 1.523 . S
C1438 C1419 1.368 . S
C1438 C1432 1.368 . S
C1438 C1437 1.523 . S
C1439 C1423 1.429 . S
C1439 C1435 1.429 . S
C1439 C1440 1.523 . S
C1440 C1424 1.368 . S
C1440 C1436 1.368 . S
C1440 C1439 1.523 . S
H1441 C1416 0.950 . S
H1442 C1418 0.950 . S
H1443 C1419 0.949 . S
H1444 C1421 0.950 . S
H1445 C1423 0.950 . S
C1446 C1447 1.349 . S
C1446 C1448 1.327 . S
C1446 H1471 0.950 . S
C1447 C1446 1.349 . S
C1447 C1463 1.349 . S
C1448 C1446 1.327 . S
C1448 C1467 1.429 . S
C1448 H1472 0.950 . S
C1449 C1466 1.574 . S
C1449 C1468 1.368 . S
C1449 H1473 0.949 . S
H1450 C1454 0.949 . S
C1451 C1452 1.349 . S
C1451 C1453 1.327 . S
C1451 H1474 0.950 . S
C1452 C1451 1.349 . S
C1452 C1464 1.349 . S
C1453 C1451 1.327 . S
C1453 C1469 1.429 . S
C1453 H1475 0.950 . S
C1454 H1450 0.949 . S
C1454 C1462 1.574 . S
C1454 C1470 1.368 . S
H1455 C1463 0.950 . S
H1456 C1461 0.950 . S
H1457 C1462 0.949 . S
H1458 C1464 0.950 . S
H1459 C1465 0.950 . S
H1460 C1466 0.949 . S
C1461 H1456 0.950 . S
C1461 C1463 1.327 . S
C1461 C1467 1.429 . S
C1462 C1454 1.574 . S
C1462 H1457 0.949 . S
C1462 C1468 1.368 . S
C1463 C1447 1.349 . S
C1463 H1455 0.950 . S
C1463 C1461 1.327 . S
C1464 C1452 1.349 . S
C1464 H1458 0.950 . S
C1464 C1465 1.327 . S
C1465 H1459 0.950 . S
C1465 C1464 1.327 . S
C1465 C1469 1.429 . S
C1466 C1449 1.574 . S
C1466 H1460 0.949 . S
C1466 C1470 1.368 . S
C1467 C1448 1.429 . S
C1467 C1461 1.429 . S
C1467 C1468 1.523 . S
C1468 C1449 1.368 . S
C1468 C1462 1.368 . S
C1468 C1467 1.523 . S
C1469 C1453 1.429 . S
C1469 C1465 1.429 . S
C1469 C1470 1.523 . S
C1470 C1454 1.368 . S
C1470 C1466 1.368 . S
C1470 C1469 1.523 . S
H1471 C1446 0.950 . S
H1472 C1448 0.950 . S
H1473 C1449 0.949 . S
H1474 C1451 0.950 . S
H1475 C1453 0.950 . S
C1476 C1477 1.349 . S
C1476 C1478 1.327 . S
C1476 H1501 0.950 . S
C1477 C1476 1.349 . S
C1477 C1493 1.349 . S
C1478 C1476 1.327 . S
C1478 C1497 1.429 . S
C1478 H1502 0.950 . S
C1479 C1496 1.574 . S
C1479 C1498 1.368 . S
C1479 H1503 0.949 . S
H1480 C1484 0.949 . S
C1481 C1482 1.349 . S
C1481 C1483 1.327 . S
C1481 H1504 0.950 . S
C1482 C1481 1.349 . S
C1482 C1494 1.349 . S
C1483 C1481 1.327 . S
C1483 C1499 1.429 . S
C1483 H1505 0.950 . S
C1484 H1480 0.949 . S
C1484 C1492 1.574 . S
C1484 C1500 1.368 . S
H1485 C1493 0.950 . S
H1486 C1491 0.950 . S
H1487 C1492 0.949 . S
H1488 C1494 0.950 . S
H1489 C1495 0.950 . S
H1490 C1496 0.949 . S
C1491 H1486 0.950 . S
C1491 C1493 1.327 . S
C1491 C1497 1.429 . S
C1492 C1484 1.574 . S
C1492 H1487 0.949 . S
C1492 C1498 1.368 . S
C1493 C1477 1.349 . S
C1493 H1485 0.950 . S
C1493 C1491 1.327 . S
C1494 C1482 1.349 . S
C1494 H1488 0.950 . S
C1494 C1495 1.327 . S
C1495 H1489 0.950 . S
C1495 C1494 1.327 . S
C1495 C1499 1.429 . S
C1496 C1479 1.574 . S
C1496 H1490 0.949 . S
C1496 C1500 1.368 . S
C1497 C1478 1.429 . S
C1497 C1491 1.429 . S
C1497 C1498 1.523 . S
C1498 C1479 1.368 . S
C1498 C1492 1.368 . S
C1498 C1497 1.523 . S
C1499 C1483 1.429 . S
C1499 C1495 1.429 . S
C1499 C1500 1.523 . S
C1500 C1484 1.368 . S
C1500 C1496 1.368 . S
C1500 C1499 1.523 . S
H1501 C1476 0.950 . S
H1502 C1478 0.950 . S
H1503 C1479 0.949 . S
H1504 C1481 0.950 . S
H1505 C1483 0.950 . S
C1506 C1507 1.349 . S
C1506 C1508 1.327 . S
C1506 H1531 0.950 . S
C1507 C1506 1.349 . S
C1507 C1523 1.349 . S
C1508 C1506 1.327 . S
C1508 C1527 1.429 . S
C1508 H1532 0.950 . S
C1509 C1526 1.574 . S
C1509 C1528 1.368 . S
C1509 H1533 0.949 . S
H1510 C1514 0.949 . S
C1511 C1512 1.349 . S
C1511 C1513 1.327 . S
C1511 H1534 0.950 . S
C1512 C1511 1.349 . S
C1512 C1524 1.349 . S
C1513 C1511 1.327 . S
C1513 C1529 1.429 . S
C1513 H1535 0.950 . S
C1514 H1510 0.949 . S
C1514 C1522 1.574 . S
C1514 C1530 1.368 . S
H1515 C1523 0.950 . S
H1516 C1521 0.950 . S
H1517 C1522 0.949 . S
H1518 C1524 0.950 . S
H1519 C1525 0.950 . S
H1520 C1526 0.949 . S
C1521 H1516 0.950 . S
C1521 C1523 1.327 . S
C1521 C1527 1.429 . S
C1522 C1514 1.574 . S
C1522 H1517 0.949 . S
C1522 C1528 1.368 . S
C1523 C1507 1.349 . S
C1523 H1515 0.950 . S
C1523 C1521 1.327 . S
C1524 C1512 1.349 . S
C1524 H1518 0.950 . S
C1524 C1525 1.327 . S
C1525 H1519 0.950 . S
C1525 C1524 1.327 . S
C1525 C1529 1.429 . S
C1526 C1509 1.574 . S
C1526 H1520 0.949 . S
C1526 C1530 1.368 . S
C1527 C1508 1.429 . S
C1527 C1521 1.429 . S
C1527 C1528 1.523 . S
C1528 C1509 1.368 . S
C1528 C1522 1.368 . S
C1528 C1527 1.523 . S
C1529 C1513 1.429 . S
C1529 C1525 1.429 . S
C1529 C1530 1.523 . S
C1530 C1514 1.368 . S
C1530 C1526 1.368 . S
C1530 C1529 1.523 . S
H1531 C1506 0.950 . S
H1532 C1508 0.950 . S
H1533 C1509 0.949 . S
H1534 C1511 0.950 . S
H1535 C1513 0.950 . S
C1536 C1537 1.349 . S
C1536 C1538 1.327 . S
C1536 H1561 0.950 . S
C1537 C1536 1.349 . S
C1537 C1553 1.349 . S
C1538 C1536 1.327 . S
C1538 C1557 1.429 . S
C1538 H1562 0.950 . S
C1539 C1556 1.574 . S
C1539 C1558 1.368 . S
C1539 H1563 0.949 . S
H1540 C1544 0.949 . S
C1541 C1542 1.349 . S
C1541 C1543 1.327 . S
C1541 H1564 0.950 . S
C1542 C1541 1.349 . S
C1542 C1554 1.349 . S
C1543 C1541 1.327 . S
C1543 C1559 1.429 . S
C1543 H1565 0.950 . S
C1544 H1540 0.949 . S
C1544 C1552 1.574 . S
C1544 C1560 1.368 . S
H1545 C1553 0.950 . S
H1546 C1551 0.950 . S
H1547 C1552 0.949 . S
H1548 C1554 0.950 . S
H1549 C1555 0.950 . S
H1550 C1556 0.949 . S
C1551 H1546 0.950 . S
C1551 C1553 1.327 . S
C1551 C1557 1.429 . S
C1552 C1544 1.574 . S
C1552 H1547 0.949 . S
C1552 C1558 1.368 . S
C1553 C1537 1.349 . S
C1553 H1545 0.950 . S
C1553 C1551 1.327 . S
C1554 C1542 1.349 . S
C1554 H1548 0.950 . S
C1554 C1555 1.327 . S
C1555 H1549 0.950 . S
C1555 C1554 1.327 . S
C1555 C1559 1.429 . S
C1556 C1539 1.574 . S
C1556 H1550 0.949 . S
C1556 C1560 1.368 . S
C1557 C1538 1.429 . S
C1557 C1551 1.429 . S
C1557 C1558 1.523 . S
C1558 C1539 1.368 . S
C1558 C1552 1.368 . S
C1558 C1557 1.523 . S
C1559 C1543 1.429 . S
C1559 C1555 1.429 . S
C1559 C1560 1.523 . S
C1560 C1544 1.368 . S
C1560 C1556 1.368 . S
C1560 C1559 1.523 . S
H1561 C1536 0.950 . S
H1562 C1538 0.950 . S
H1563 C1539 0.949 . S
H1564 C1541 0.950 . S
H1565 C1543 0.950 . S
C1566 C1567 1.349 . S
C1566 C1568 1.327 . S
C1566 H1591 0.950 . S
C1567 C1566 1.349 . S
C1567 C1583 1.349 . S
C1568 C1566 1.327 . S
C1568 C1587 1.429 . S
C1568 H1592 0.950 . S
C1569 C1586 1.574 . S
C1569 C1588 1.368 . S
C1569 H1593 0.949 . S
H1570 C1574 0.949 . S
C1571 C1572 1.349 . S
C1571 C1573 1.327 . S
C1571 H1594 0.950 . S
C1572 C1571 1.349 . S
C1572 C1584 1.349 . S
C1573 C1571 1.327 . S
C1573 C1589 1.429 . S
C1573 H1595 0.950 . S
C1574 H1570 0.949 . S
C1574 C1582 1.574 . S
C1574 C1590 1.368 . S
H1575 C1583 0.950 . S
H1576 C1581 0.950 . S
H1577 C1582 0.949 . S
H1578 C1584 0.950 . S
H1579 C1585 0.950 . S
H1580 C1586 0.949 . S
C1581 H1576 0.950 . S
C1581 C1583 1.327 . S
C1581 C1587 1.429 . S
C1582 C1574 1.574 . S
C1582 H1577 0.949 . S
C1582 C1588 1.368 . S
C1583 C1567 1.349 . S
C1583 H1575 0.950 . S
C1583 C1581 1.327 . S
C1584 C1572 1.349 . S
C1584 H1578 0.950 . S
C1584 C1585 1.327 . S
C1585 H1579 0.950 . S
C1585 C1584 1.327 . S
C1585 C1589 1.429 . S
C1586 C1569 1.574 . S
C1586 H1580 0.949 . S
C1586 C1590 1.368 . S
C1587 C1568 1.429 . S
C1587 C1581 1.429 . S
C1587 C1588 1.523 . S
C1588 C1569 1.368 . S
C1588 C1582 1.368 . S
C1588 C1587 1.523 . S
C1589 C1573 1.429 . S
C1589 C1585 1.429 . S
C1589 C1590 1.523 . S
C1590 C1574 1.368 . S
C1590 C1586 1.368 . S
C1590 C1589 1.523 . S
H1591 C1566 0.950 . S
H1592 C1568 0.950 . S
H1593 C1569 0.949 . S
H1594 C1571 0.950 . S
H1595 C1573 0.950 . S
C1596 C1597 1.349 . S
C1596 C1598 1.327 . S
C1596 H1621 0.950 . S
C1597 C1596 1.349 . S
C1597 C1613 1.349 . S
C1598 C1596 1.327 . S
C1598 C1617 1.429 . S
C1598 H1622 0.950 . S
C1599 C1616 1.574 . S
C1599 C1618 1.368 . S
C1599 H1623 0.949 . S
H1600 C1604 0.949 . S
C1601 C1602 1.349 . S
C1601 C1603 1.327 . S
C1601 H1624 0.950 . S
C1602 C1601 1.349 . S
C1602 C1614 1.349 . S
C1603 C1601 1.327 . S
C1603 C1619 1.429 . S
C1603 H1625 0.950 . S
C1604 H1600 0.949 . S
C1604 C1612 1.574 . S
C1604 C1620 1.368 . S
H1605 C1613 0.950 . S
H1606 C1611 0.950 . S
H1607 C1612 0.949 . S
H1608 C1614 0.950 . S
H1609 C1615 0.950 . S
H1610 C1616 0.949 . S
C1611 H1606 0.950 . S
C1611 C1613 1.327 . S
C1611 C1617 1.429 . S
C1612 C1604 1.574 . S
C1612 H1607 0.949 . S
C1612 C1618 1.368 . S
C1613 C1597 1.349 . S
C1613 H1605 0.950 . S
C1613 C1611 1.327 . S
C1614 C1602 1.349 . S
C1614 H1608 0.950 . S
C1614 C1615 1.327 . S
C1615 H1609 0.950 . S
C1615 C1614 1.327 . S
C1615 C1619 1.429 . S
C1616 C1599 1.574 . S
C1616 H1610 0.949 . S
C1616 C1620 1.368 . S
C1617 C1598 1.429 . S
C1617 C1611 1.429 . S
C1617 C1618 1.523 . S
C1618 C1599 1.368 . S
C1618 C1612 1.368 . S
C1618 C1617 1.523 . S
C1619 C1603 1.429 . S
C1619 C1615 1.429 . S
C1619 C1620 1.523 . S
C1620 C1604 1.368 . S
C1620 C1616 1.368 . S
C1620 C1619 1.523 . S
H1621 C1596 0.950 . S
H1622 C1598 0.950 . S
H1623 C1599 0.949 . S
H1624 C1601 0.950 . S
H1625 C1603 0.950 . S
C1626 C1627 1.349 . S
C1626 C1628 1.327 . S
C1626 H1651 0.950 . S
C1627 C1626 1.349 . S
C1627 C1643 1.349 . S
C1628 C1626 1.327 . S
C1628 C1647 1.429 . S
C1628 H1652 0.950 . S
C1629 C1646 1.574 . S
C1629 C1648 1.368 . S
C1629 H1653 0.949 . S
H1630 C1634 0.949 . S
C1631 C1632 1.349 . S
C1631 C1633 1.327 . S
C1631 H1654 0.950 . S
C1632 C1631 1.349 . S
C1632 C1644 1.349 . S
C1633 C1631 1.327 . S
C1633 C1649 1.429 . S
C1633 H1655 0.950 . S
C1634 H1630 0.949 . S
C1634 C1642 1.574 . S
C1634 C1650 1.368 . S
H1635 C1643 0.950 . S
H1636 C1641 0.950 . S
H1637 C1642 0.949 . S
H1638 C1644 0.950 . S
H1639 C1645 0.950 . S
H1640 C1646 0.949 . S
C1641 H1636 0.950 . S
C1641 C1643 1.327 . S
C1641 C1647 1.429 . S
C1642 C1634 1.574 . S
C1642 H1637 0.949 . S
C1642 C1648 1.368 . S
C1643 C1627 1.349 . S
C1643 H1635 0.950 . S
C1643 C1641 1.327 . S
C1644 C1632 1.349 . S
C1644 H1638 0.950 . S
C1644 C1645 1.327 . S
C1645 H1639 0.950 . S
C1645 C1644 1.327 . S
C1645 C1649 1.429 . S
C1646 C1629 1.574 . S
C1646 H1640 0.949 . S
C1646 C1650 1.368 . S
C1647 C1628 1.429 . S
C1647 C1641 1.429 . S
C1647 C1648 1.523 . S
C1648 C1629 1.368 . S
C1648 C1642 1.368 . S
C1648 C1647 1.523 . S
C1649 C1633 1.429 . S
C1649 C1645 1.429 . S
C1649 C1650 1.523 . S
C1650 C1634 1.368 . S
C1650 C1646 1.368 . S
C1650 C1649 1.523 . S
H1651 C1626 0.950 . S
H1652 C1628 0.950 . S
H1653 C1629 0.949 . S
H1654 C1631 0.950 . S
H1655 C1633 0.950 . S
C1656 C1657 1.349 . S
C1656 C1658 1.327 . S
C1656 H1681 0.950 . S
C1657 C1656 1.349 . S
C1657 C1673 1.349 . S
C1658 C1656 1.327 . S
C1658 C1677 1.429 . S
C1658 H1682 0.950 . S
C1659 C1676 1.574 . S
C1659 C1678 1.368 . S
C1659 H1683 0.949 . S
H1660 C1664 0.949 . S
C1661 C1662 1.349 . S
C1661 C1663 1.327 . S
C1661 H1684 0.950 . S
C1662 C1661 1.349 . S
C1662 C1674 1.349 . S
C1663 C1661 1.327 . S
C1663 C1679 1.429 . S
C1663 H1685 0.950 . S
C1664 H1660 0.949 . S
C1664 C1672 1.574 . S
C1664 C1680 1.368 . S
H1665 C1673 0.950 . S
H1666 C1671 0.950 . S
H1667 C1672 0.949 . S
H1668 C1674 0.950 . S
H1669 C1675 0.950 . S
H1670 C1676 0.949 . S
C1671 H1666 0.950 . S
C1671 C1673 1.327 . S
C1671 C1677 1.429 . S
C1672 C1664 1.574 . S
C1672 H1667 0.949 . S
C1672 C1678 1.368 . S
C1673 C1657 1.349 . S
C1673 H1665 0.950 . S
C1673 C1671 1.327 . S
C1674 C1662 1.349 . S
C1674 H1668 0.950 . S
C1674 C1675 1.327 . S
C1675 H1669 0.950 . S
C1675 C1674 1.327 . S
C1675 C1679 1.429 . S
C1676 C1659 1.574 . S
C1676 H1670 0.949 . S
C1676 C1680 1.368 . S
C1677 C1658 1.429 . S
C1677 C1671 1.429 . S
C1677 C1678 1.523 . S
C1678 C1659 1.368 . S
C1678 C1672 1.368 . S
C1678 C1677 1.523 . S
C1679 C1663 1.429 . S
C1679 C1675 1.429 . S
C1679 C1680 1.523 . S
C1680 C1664 1.368 . S
C1680 C1676 1.368 . S
C1680 C1679 1.523 . S
H1681 C1656 0.950 . S
H1682 C1658 0.950 . S
H1683 C1659 0.949 . S
H1684 C1661 0.950 . S
H1685 C1663 0.950 . S
C1686 C1687 1.349 . S
C1686 C1688 1.327 . S
C1686 H1711 0.950 . S
C1687 C1686 1.349 . S
C1687 C1703 1.349 . S
C1688 C1686 1.327 . S
C1688 C1707 1.429 . S
C1688 H1712 0.950 . S
C1689 C1706 1.574 . S
C1689 C1708 1.368 . S
C1689 H1713 0.949 . S
H1690 C1694 0.949 . S
C1691 C1692 1.349 . S
C1691 C1693 1.327 . S
C1691 H1714 0.950 . S
C1692 C1691 1.349 . S
C1692 C1704 1.349 . S
C1693 C1691 1.327 . S
C1693 C1709 1.429 . S
C1693 H1715 0.950 . S
C1694 H1690 0.949 . S
C1694 C1702 1.574 . S
C1694 C1710 1.368 . S
H1695 C1703 0.950 . S
H1696 C1701 0.950 . S
H1697 C1702 0.949 . S
H1698 C1704 0.950 . S
H1699 C1705 0.950 . S
H1700 C1706 0.949 . S
C1701 H1696 0.950 . S
C1701 C1703 1.327 . S
C1701 C1707 1.429 . S
C1702 C1694 1.574 . S
C1702 H1697 0.949 . S
C1702 C1708 1.368 . S
C1703 C1687 1.349 . S
C1703 H1695 0.950 . S
C1703 C1701 1.327 . S
C1704 C1692 1.349 . S
C1704 H1698 0.950 . S
C1704 C1705 1.327 . S
C1705 H1699 0.950 . S
C1705 C1704 1.327 . S
C1705 C1709 1.429 . S
C1706 C1689 1.574 . S
C1706 H1700 0.949 . S
C1706 C1710 1.368 . S
C1707 C1688 1.429 . S
C1707 C1701 1.429 . S
C1707 C1708 1.523 . S
C1708 C1689 1.368 . S
C1708 C1702 1.368 . S
C1708 C1707 1.523 . S
C1709 C1693 1.429 . S
C1709 C1705 1.429 . S
C1709 C1710 1.523 . S
C1710 C1694 1.368 . S
C1710 C1706 1.368 . S
C1710 C1709 1.523 . S
H1711 C1686 0.950 . S
H1712 C1688 0.950 . S
H1713 C1689 0.949 . S
H1714 C1691 0.950 . S
H1715 C1693 0.950 . S
C1716 C1717 1.349 . S
C1716 C1718 1.327 . S
C1716 H1741 0.950 . S
C1717 C1716 1.349 . S
C1717 C1733 1.349 . S
C1718 C1716 1.327 . S
C1718 C1737 1.429 . S
C1718 H1742 0.950 . S
C1719 C1736 1.574 . S
C1719 C1738 1.368 . S
C1719 H1743 0.949 . S
H1720 C1724 0.949 . S
C1721 C1722 1.349 . S
C1721 C1723 1.327 . S
C1721 H1744 0.950 . S
C1722 C1721 1.349 . S
C1722 C1734 1.349 . S
C1723 C1721 1.327 . S
C1723 C1739 1.429 . S
C1723 H1745 0.950 . S
C1724 H1720 0.949 . S
C1724 C1732 1.574 . S
C1724 C1740 1.368 . S
H1725 C1733 0.950 . S
H1726 C1731 0.950 . S
H1727 C1732 0.949 . S
H1728 C1734 0.950 . S
H1729 C1735 0.950 . S
H1730 C1736 0.949 . S
C1731 H1726 0.950 . S
C1731 C1733 1.327 . S
C1731 C1737 1.429 . S
C1732 C1724 1.574 . S
C1732 H1727 0.949 . S
C1732 C1738 1.368 . S
C1733 C1717 1.349 . S
C1733 H1725 0.950 . S
C1733 C1731 1.327 . S
C1734 C1722 1.349 . S
C1734 H1728 0.950 . S
C1734 C1735 1.327 . S
C1735 H1729 0.950 . S
C1735 C1734 1.327 . S
C1735 C1739 1.429 . S
C1736 C1719 1.574 . S
C1736 H1730 0.949 . S
C1736 C1740 1.368 . S
C1737 C1718 1.429 . S
C1737 C1731 1.429 . S
C1737 C1738 1.523 . S
C1738 C1719 1.368 . S
C1738 C1732 1.368 . S
C1738 C1737 1.523 . S
C1739 C1723 1.429 . S
C1739 C1735 1.429 . S
C1739 C1740 1.523 . S
C1740 C1724 1.368 . S
C1740 C1736 1.368 . S
C1740 C1739 1.523 . S
H1741 C1716 0.950 . S
H1742 C1718 0.950 . S
H1743 C1719 0.949 . S
H1744 C1721 0.950 . S
H1745 C1723 0.950 . S
C1746 C1747 1.349 . S
C1746 C1748 1.327 . S
C1746 H1771 0.950 . S
C1747 C1746 1.349 . S
C1747 C1763 1.349 . S
C1748 C1746 1.327 . S
C1748 C1767 1.429 . S
C1748 H1772 0.950 . S
C1749 C1766 1.574 . S
C1749 C1768 1.368 . S
C1749 H1773 0.949 . S
H1750 C1754 0.949 . S
C1751 C1752 1.349 . S
C1751 C1753 1.327 . S
C1751 H1774 0.950 . S
C1752 C1751 1.349 . S
C1752 C1764 1.349 . S
C1753 C1751 1.327 . S
C1753 C1769 1.429 . S
C1753 H1775 0.950 . S
C1754 H1750 0.949 . S
C1754 C1762 1.574 . S
C1754 C1770 1.368 . S
H1755 C1763 0.950 . S
H1756 C1761 0.950 . S
H1757 C1762 0.949 . S
H1758 C1764 0.950 . S
H1759 C1765 0.950 . S
H1760 C1766 0.949 . S
C1761 H1756 0.950 . S
C1761 C1763 1.327 . S
C1761 C1767 1.429 . S
C1762 C1754 1.574 . S
C1762 H1757 0.949 . S
C1762 C1768 1.368 . S
C1763 C1747 1.349 . S
C1763 H1755 0.950 . S
C1763 C1761 1.327 . S
C1764 C1752 1.349 . S
C1764 H1758 0.950 . S
C1764 C1765 1.327 . S
C1765 H1759 0.950 . S
C1765 C1764 1.327 . S
C1765 C1769 1.429 . S
C1766 C1749 1.574 . S
C1766 H1760 0.949 . S
C1766 C1770 1.368 . S
C1767 C1748 1.429 . S
C1767 C1761 1.429 . S
C1767 C1768 1.523 . S
C1768 C1749 1.368 . S
C1768 C1762 1.368 . S
C1768 C1767 1.523 . S
C1769 C1753 1.429 . S
C1769 C1765 1.429 . S
C1769 C1770 1.523 . S
C1770 C1754 1.368 . S
C1770 C1766 1.368 . S
C1770 C1769 1.523 . S
H1771 C1746 0.950 . S
H1772 C1748 0.950 . S
H1773 C1749 0.949 . S
H1774 C1751 0.950 . S
H1775 C1753 0.950 . S
C337 C221 1.163 . S
C342 C11 1.162 . S
C367 C179 1.215 . S
C372 C23 1.208 . S
C397 C191 1.287 . S
C402 C39 1.299 . S
C427 C205 1.346 . S
C432 C51 1.353 . S
C457 C207 1.211 . S
C462 C25 1.211 . S
C487 C37 1.296 . S
C492 C219 1.292 . S
C517 C177 1.340 . S
C522 C53 1.351 . S
C547 C193 1.157 . S
C552 C9 1.149 . S
C577 C263 1.050 . S
C582 C67 1.050 . S
C607 C81 1.371 . S
C612 C275 1.359 . S
C637 C95 1.098 . S
C642 C235 1.098 . S
C667 C247 1.390 . S
C672 C109 1.400 . S
C697 C317 1.401 . S
C702 C121 1.393 . S
C727 C137 1.140 . S
C732 C333 1.140 . S
C757 C149 1.435 . S
C762 C289 1.439 . S
C787 C165 1.115 . S
C792 C305 1.115 . S
C817 C249 1.166 . S
C822 C163 1.160 . S
C847 C331 1.286 . S
C852 C79 1.294 . S
C877 C93 1.253 . S
C882 C291 1.269 . S
C907 C303 1.337 . S
C912 C107 1.338 . S
C937 C319 1.207 . S
C942 C65 1.194 . S
C967 C135 1.207 . S
C972 C277 1.215 . S
C997 C233 1.287 . S
C1002 C151 1.298 . S
C1027 C261 1.221 . S
C1032 C123 1.235 . S
C1057 C5 0.619 . S
C1062 C56 0.624 . S
C1087 C70 0.661 . S
C1092 C14 0.659 . S
C1117 C33 0.687 . S
C1122 C84 0.689 . S
C1147 C42 0.723 . S
C1152 C98 0.723 . S
C1177 C117 0.690 . S
C1182 C19 0.691 . S
C1207 C126 0.668 . S
C1212 C28 0.669 . S
C1237 C145 0.756 . S
C1242 C47 0.756 . S
C1267 C0 0.608 . S
C1272 C154 0.604 . S
C1297 C159 0.609 . S
C1302 C61 0.606 . S
C1327 C75 0.764 . S
C1332 C112 0.763 . S
C1357 C89 0.616 . S
C1362 C131 0.619 . S
C1387 C140 0.772 . S
C1392 C103 0.773 . S
C1417 C224 0.665 . S
C1422 C168 0.667 . S
C1447 C243 0.672 . S
C1452 C187 0.670 . S
C1477 C201 0.653 . S
C1482 C252 0.657 . S
C1507 C210 0.683 . S
C1512 C271 0.680 . S
C1537 C182 0.700 . S
C1542 C285 0.698 . S
C1567 C196 0.697 . S
C1572 C294 0.695 . S
C1597 C313 0.695 . S
C1602 C215 0.694 . S
C1627 C173 0.681 . S
C1632 C322 0.683 . S
C1657 C229 0.640 . S
C1662 C327 0.636 . S
C1687 C280 0.740 . S
C1692 C238 0.740 . S
C1717 C257 0.616 . S
C1722 C299 0.618 . S
C1747 C308 0.721 . S
C1752 C266 0.722 . S
