# Generated by pormake.
# Topology fnr, (5)-cn, num edge types: 1
# Building blocks:
#     Node 0, Type 0, BuildingBlock: XOMCOT_clean_sbu_1, # of connection points: 5
#     Node 1, Type 0, BuildingBlock: XOMCOT_clean_sbu_1, # of connection points: 5
#     Node 2, Type 0, BuildingBlock: XOMCOT_clean_sbu_1, # of connection points: 5
#     Node 3, Type 0, BuildingBlock: XOMCOT_clean_sbu_1, # of connection points: 5
#     Node 4, Type 0, BuildingBlock: XOMCOT_clean_sbu_1, # of connection points: 5
#     Node 5, Type 0, BuildingBlock: XOMCOT_clean_sbu_1, # of connection points: 5
#     Node 6, Type 0, BuildingBlock: XOMCOT_clean_sbu_1, # of connection points: 5
#     Node 7, Type 0, BuildingBlock: XOMCOT_clean_sbu_1, # of connection points: 5
#     Node 8, Type 0, BuildingBlock: XOMCOT_clean_sbu_1, # of connection points: 5
#     Node 9, Type 0, BuildingBlock: XOMCOT_clean_sbu_1, # of connection points: 5
#     Node 10, Type 0, BuildingBlock: XOMCOT_clean_sbu_1, # of connection points: 5
#     Node 11, Type 0, BuildingBlock: XOMCOT_clean_sbu_1, # of connection points: 5
#     Edge 12, Type (0, 0), BuildingBlock: AJUNOK_clean_linker_0, # of connection points: 2
#     Edge 13, Type (0, 0), BuildingBlock: AJUNOK_clean_linker_0, # of connection points: 2
#     Edge 14, Type (0, 0), BuildingBlock: AJUNOK_clean_linker_0, # of connection points: 2
#     Edge 15, Type (0, 0), BuildingBlock: AJUNOK_clean_linker_0, # of connection points: 2
#     Edge 16, Type (0, 0), BuildingBlock: AJUNOK_clean_linker_0, # of connection points: 2
#     Edge 17, Type (0, 0), BuildingBlock: AJUNOK_clean_linker_0, # of connection points: 2
#     Edge 18, Type (0, 0), BuildingBlock: AJUNOK_clean_linker_0, # of connection points: 2
#     Edge 19, Type (0, 0), BuildingBlock: AJUNOK_clean_linker_0, # of connection points: 2
#     Edge 20, Type (0, 0), BuildingBlock: AJUNOK_clean_linker_0, # of connection points: 2
#     Edge 21, Type (0, 0), BuildingBlock: AJUNOK_clean_linker_0, # of connection points: 2
#     Edge 22, Type (0, 0), BuildingBlock: AJUNOK_clean_linker_0, # of connection points: 2
#     Edge 23, Type (0, 0), BuildingBlock: AJUNOK_clean_linker_0, # of connection points: 2
#     Edge 24, Type (0, 0), BuildingBlock: AJUNOK_clean_linker_0, # of connection points: 2
#     Edge 25, Type (0, 0), BuildingBlock: AJUNOK_clean_linker_0, # of connection points: 2
#     Edge 26, Type (0, 0), BuildingBlock: AJUNOK_clean_linker_0, # of connection points: 2
#     Edge 27, Type (0, 0), BuildingBlock: AJUNOK_clean_linker_0, # of connection points: 2
#     Edge 28, Type (0, 0), BuildingBlock: AJUNOK_clean_linker_0, # of connection points: 2
#     Edge 29, Type (0, 0), BuildingBlock: AJUNOK_clean_linker_0, # of connection points: 2
#     Edge 30, Type (0, 0), BuildingBlock: AJUNOK_clean_linker_0, # of connection points: 2
#     Edge 31, Type (0, 0), BuildingBlock: AJUNOK_clean_linker_0, # of connection points: 2
#     Edge 32, Type (0, 0), BuildingBlock: AJUNOK_clean_linker_0, # of connection points: 2
#     Edge 33, Type (0, 0), BuildingBlock: AJUNOK_clean_linker_0, # of connection points: 2
#     Edge 34, Type (0, 0), BuildingBlock: AJUNOK_clean_linker_0, # of connection points: 2
#     Edge 35, Type (0, 0), BuildingBlock: AJUNOK_clean_linker_0, # of connection points: 2
#     Edge 36, Type (0, 0), BuildingBlock: AJUNOK_clean_linker_0, # of connection points: 2
#     Edge 37, Type (0, 0), BuildingBlock: AJUNOK_clean_linker_0, # of connection points: 2
#     Edge 38, Type (0, 0), BuildingBlock: AJUNOK_clean_linker_0, # of connection points: 2
#     Edge 39, Type (0, 0), BuildingBlock: AJUNOK_clean_linker_0, # of connection points: 2
#     Edge 40, Type (0, 0), BuildingBlock: AJUNOK_clean_linker_0, # of connection points: 2
#     Edge 41, Type (0, 0), BuildingBlock: AJUNOK_clean_linker_0, # of connection points: 2
# Relax obj value: 0.283
# Max RMSD: 0.191
# Mean RMSD: 0.189
data_MOF--net-fnr--node1-XOMCOT_clean_sbu_1--edge1-AJUNOK_clean_linker_0
_symmetry_space_group_name_H-M    P1
_symmetry_Int_Tables_number       1
_symmetry_cell_setting            triclinic
loop_
_symmetry_equiv_pos_as_xyz
'x, y, z'
_cell_length_a     30.544813
_cell_length_b     30.450098
_cell_length_c     39.409559
_cell_angle_alpha  90.192778
_cell_angle_beta   89.949673
_cell_angle_gamma 119.90298
loop_
_atom_site_label
_atom_site_type_symbol
_atom_site_fract_x
_atom_site_fract_y
_atom_site_fract_z
_atom_type_partial_charge
C0 C 0.44194 0.26559 0.09501 0.0
C1 C 0.41307 0.28768 0.08812 0.0
N2 N 0.38294 0.26381 0.06122 0.0
N3 N 0.43044 0.22807 0.0725 0.0
C4 C 0.39407 0.2274 0.05269 0.0
H5 H 0.47298 0.27945 0.11283 0.0
Co6 Co 0.47018 0.19944 0.06094 0.0
C7 C 0.393 0.09229 0.05243 0.0
O8 O 0.419 0.08185 0.07427 0.0
N9 N 0.51187 0.17249 0.04657 0.0
C10 C 0.54631 0.13993 0.01151 0.0
C11 C 0.50204 0.137 0.02231 0.0
C12 C 0.56288 0.19739 0.0489 0.0
N13 N 0.58461 0.17839 0.02812 0.0
O14 O 0.48457 0.23504 0.01855 0.0
H15 H 0.46606 0.11396 0.01005 0.0
H16 H 0.58433 0.23147 0.06377 0.0
O17 O 0.40956 0.13847 0.04363 0.0
C18 C 0.52282 0.27705 0.02763 0.0
O19 O 0.53939 0.28163 0.05893 0.0
N20 N 0.46113 0.17189 0.10548 0.0
C21 C 0.45868 0.16939 0.17647 0.0
C22 C 0.41408 0.15262 0.1577 0.0
C23 C 0.41606 0.15393 0.12218 0.0
C24 C 0.50386 0.18418 0.12355 0.0
C25 C 0.50319 0.18196 0.15886 0.0
H26 H 0.38213 0.14511 0.10827 0.0
H27 H 0.5399 0.20019 0.11133 0.0
H28 H 0.37985 0.20387 0.03029 0.0
H29 H 0.41853 0.3223 0.09968 0.0
H30 H 0.55023 0.11858 0.99089 0.0
H31 H 0.3787 0.14234 0.17023 0.0
H32 H 0.53822 0.19355 0.1723 0.0
C33 C 0.17823 0.39648 0.61013 0.0
C34 C 0.12919 0.36829 0.59891 0.0
N35 N 0.12942 0.34819 0.56841 0.0
N36 N 0.20951 0.39399 0.58702 0.0
C37 C 0.1787 0.36449 0.56184 0.0
H38 H 0.19065 0.42017 0.63258 0.0
Co39 Co 0.27999 0.437 0.58538 0.0
C40 C 0.31178 0.36088 0.56838 0.0
O41 O 0.32601 0.3623 0.59992 0.0
N42 N 0.35182 0.48212 0.58148 0.0
C43 C 0.43604 0.51962 0.58401 0.0
C44 C 0.39114 0.4788 0.59439 0.0
C45 C 0.37469 0.52526 0.56281 0.0
N46 N 0.42556 0.54877 0.56387 0.0
O47 O 0.26902 0.46616 0.5453 0.0
H48 H 0.38808 0.45005 0.61169 0.0
H49 H 0.35492 0.54009 0.54854 0.0
O50 O 0.28991 0.38601 0.55966 0.0
C51 C 0.25971 0.4983 0.56 0.0
O52 O 0.26578 0.50428 0.59305 0.0
N53 N 0.28615 0.41334 0.62885 0.0
C54 C 0.2637 0.39628 0.69813 0.0
C55 C 0.23989 0.35651 0.67455 0.0
C56 C 0.25251 0.36556 0.64004 0.0
C57 C 0.31241 0.45095 0.65195 0.0
C58 C 0.30406 0.44224 0.6866 0.0
H59 H 0.23083 0.33564 0.62198 0.0
H60 H 0.33677 0.48949 0.64379 0.0
H61 H 0.19252 0.35788 0.53817 0.0
H62 H 0.09649 0.36634 0.61105 0.0
H63 H 0.4733 0.52848 0.59236 0.0
H64 H 0.20905 0.31994 0.6821 0.0
H65 H 0.32626 0.47317 0.70389 0.0
C66 C 0.82476 0.19647 0.10983 0.0
C67 C 0.80517 0.14571 0.10282 0.0
N68 N 0.81667 0.14087 0.07048 0.0
N69 N 0.84961 0.22385 0.08232 0.0
C70 C 0.84433 0.1889 0.05895 0.0
H71 H 0.81881 0.21214 0.13289 0.0
Co72 Co 0.87255 0.29288 0.07367 0.0
C73 C 0.98078 0.33169 0.05929 0.0
O74 O 0.99118 0.36458 0.08383 0.0
N75 N 0.8948 0.36331 0.06326 0.0
C76 C 0.92761 0.44739 0.06512 0.0
C77 C 0.92691 0.40639 0.08011 0.0
C78 C 0.87723 0.38034 0.03768 0.0
N79 N 0.89616 0.43108 0.03832 0.0
O80 O 0.83423 0.2722 0.03242 0.0
H81 H 0.94672 0.40845 0.10326 0.0
H82 H 0.84924 0.35608 0.0194 0.0
O83 O 0.9345 0.29994 0.05216 0.0
C84 C 0.7917 0.26309 0.04473 0.0
O85 O 0.78928 0.27275 0.07699 0.0
N86 N 0.90096 0.30929 0.11742 0.0
C87 C 0.90208 0.30351 0.18792 0.0
C88 C 0.92908 0.28675 0.16802 0.0
C89 C 0.92781 0.2897 0.13252 0.0
C90 C 0.87695 0.32804 0.13677 0.0
C91 C 0.87852 0.32715 0.17194 0.0
H92 H 0.9437 0.27146 0.11731 0.0
H93 H 0.85303 0.34035 0.12488 0.0
H94 H 0.85686 0.1984 0.03294 0.0
H95 H 0.78272 0.1149 0.11998 0.0
H96 H 0.94648 0.4856 0.07516 0.0
H97 H 0.94712 0.2676 0.17955 0.0
H98 H 0.85765 0.34093 0.18646 0.0
C99 C 0.68716 0.78921 0.60407 0.0
C100 C 0.71598 0.77098 0.58967 0.0
N101 N 0.72523 0.78647 0.55722 0.0
N102 N 0.67813 0.81622 0.58084 0.0
C103 C 0.70203 0.81398 0.55246 0.0
H104 H 0.67079 0.78016 0.62917 0.0
Co105 Co 0.62828 0.83504 0.58522 0.0
C106 C 0.67855 0.94295 0.56617 0.0
O107 O 0.66014 0.95032 0.5943 0.0
N108 N 0.57534 0.85235 0.58862 0.0
C109 C 0.52279 0.87979 0.60468 0.0
C110 C 0.56423 0.87593 0.61362 0.0
C111 C 0.53897 0.84203 0.5649 0.0
N112 N 0.50696 0.85851 0.57396 0.0
O113 O 0.59539 0.79404 0.5462 0.0
H114 H 0.58499 0.89048 0.63699 0.0
H115 H 0.5353 0.82242 0.54125 0.0
O116 O 0.66973 0.89807 0.55866 0.0
C117 C 0.56912 0.75147 0.56116 0.0
O118 O 0.57164 0.74973 0.59435 0.0
N119 N 0.65757 0.86647 0.62669 0.0
C120 C 0.69743 0.87929 0.69191 0.0
C121 C 0.72792 0.90893 0.66507 0.0
C122 C 0.7074 0.90111 0.63223 0.0
C123 C 0.62775 0.83815 0.65285 0.0
C124 C 0.64666 0.84439 0.6856 0.0
H125 H 0.73228 0.92012 0.61113 0.0
H126 H 0.58945 0.80849 0.64792 0.0
H127 H 0.69882 0.82844 0.52809 0.0
H128 H 0.72728 0.74622 0.60164 0.0
H129 H 0.50451 0.89536 0.6202 0.0
H130 H 0.7676 0.93564 0.66912 0.0
H131 H 0.62211 0.82075 0.70573 0.0
C132 C 0.87601 0.63691 0.08791 0.0
C133 C 0.92497 0.667 0.07702 0.0
N134 N 0.92455 0.69042 0.04805 0.0
N135 N 0.84466 0.64155 0.06613 0.0
C136 C 0.8752 0.67526 0.04278 0.0
H137 H 0.86379 0.60954 0.10825 0.0
Co138 Co 0.77614 0.59528 0.0599 0.0
C139 C 0.73765 0.66658 0.04698 0.0
O140 O 0.71214 0.65226 0.07544 0.0
N141 N 0.70589 0.54738 0.05173 0.0
C142 C 0.62198 0.49961 0.05499 0.0
C143 C 0.66418 0.54057 0.06835 0.0
C144 C 0.68704 0.51036 0.0277 0.0
N145 N 0.63637 0.48045 0.02928 0.0
O146 O 0.79458 0.57594 0.01797 0.0
H147 H 0.66399 0.56173 0.09032 0.0
H148 H 0.70984 0.50379 0.00976 0.0
O149 O 0.76554 0.64792 0.03819 0.0
C150 C 0.80339 0.54193 0.02985 0.0
O151 O 0.79247 0.52866 0.0618 0.0
N152 N 0.76319 0.60885 0.10428 0.0
C153 C 0.77371 0.61647 0.17466 0.0
C154 C 0.79125 0.66023 0.15482 0.0
C155 C 0.78621 0.65564 0.11938 0.0
C156 C 0.74433 0.56622 0.12368 0.0
C157 C 0.74804 0.56914 0.15882 0.0
H158 H 0.8047 0.68946 0.10402 0.0
H159 H 0.72993 0.52955 0.11178 0.0
H160 H 0.86058 0.68515 0.02101 0.0
H161 H 0.9577 0.66724 0.08773 0.0
H162 H 0.58429 0.48288 0.06544 0.0
H163 H 0.81226 0.69746 0.16629 0.0
H164 H 0.73452 0.5346 0.17334 0.0
C165 C 0.28172 0.88659 0.60404 0.0
C166 C 0.29969 0.93509 0.59224 0.0
N167 N 0.27948 0.93234 0.5614 0.0
N168 N 0.25006 0.85319 0.58084 0.0
C169 C 0.24958 0.88222 0.55505 0.0
H170 H 0.29275 0.87617 0.62739 0.0
Co171 Co 0.22459 0.78274 0.58192 0.0
C172 C 0.11739 0.74079 0.56234 0.0
O173 O 0.10582 0.71993 0.59244 0.0
N174 N 0.19989 0.71013 0.58124 0.0
C175 C 0.16063 0.62645 0.59045 0.0
C176 C 0.16472 0.67171 0.60033 0.0
C177 C 0.21577 0.68593 0.55961 0.0
N178 N 0.19281 0.63542 0.56468 0.0
O179 O 0.26711 0.7917 0.54349 0.0
H180 H 0.14394 0.67565 0.62114 0.0
H181 H 0.24445 0.70456 0.54049 0.0
O182 O 0.16418 0.76938 0.55424 0.0
C183 C 0.30695 0.8004 0.55992 0.0
O184 O 0.30436 0.79581 0.59311 0.0
N185 N 0.19273 0.7799 0.62374 0.0
C186 C 0.19084 0.81045 0.69074 0.0
C187 C 0.17206 0.82669 0.66384 0.0
C188 C 0.17208 0.80985 0.63062 0.0
C189 C 0.20921 0.76243 0.6497 0.0
C190 C 0.20565 0.77458 0.68323 0.0
H191 H 0.16149 0.82606 0.61 0.0
H192 H 0.22902 0.74206 0.64442 0.0
H193 H 0.23045 0.86683 0.53118 0.0
H194 H 0.32683 0.9697 0.60487 0.0
H195 H 0.13794 0.59026 0.60276 0.0
H196 H 0.16145 0.85533 0.6675 0.0
H197 H 0.21886 0.75917 0.70283 0.0
C198 C 0.92483 0.57024 0.40365 0.0
C199 C 0.92831 0.52806 0.41182 0.0
N200 N 0.90077 0.50701 0.4399 0.0
N201 N 0.89394 0.57533 0.42594 0.0
C202 C 0.88183 0.53723 0.44842 0.0
H203 H 0.94327 0.59449 0.38229 0.0
Co204 Co 0.87172 0.62378 0.43041 0.0
C205 C 0.77812 0.52441 0.43255 0.0
O206 O 0.79767 0.51284 0.40666 0.0
N207 N 0.85115 0.67204 0.43672 0.0
C208 C 0.84 0.73816 0.42958 0.0
C209 C 0.85957 0.71018 0.41559 0.0
C210 C 0.82718 0.67816 0.46367 0.0
N211 N 0.82013 0.71852 0.46016 0.0
O212 O 0.90335 0.64013 0.47441 0.0
H213 H 0.87866 0.71724 0.39142 0.0
H214 H 0.81614 0.65402 0.4858 0.0
O215 O 0.80365 0.56846 0.44664 0.0
C216 C 0.94807 0.6765 0.46798 0.0
O217 O 0.9579 0.69342 0.43667 0.0
N218 N 0.84763 0.61454 0.38518 0.0
C219 C 0.82427 0.61832 0.3171 0.0
C220 C 0.7866 0.60165 0.34199 0.0
C221 C 0.79926 0.60108 0.37604 0.0
C222 C 0.88508 0.63459 0.36152 0.0
C223 C 0.8742 0.63588 0.32731 0.0
H224 H 0.77044 0.59164 0.39503 0.0
H225 H 0.92404 0.65245 0.36944 0.0
H226 H 0.85723 0.5301 0.46998 0.0
H227 H 0.94699 0.51226 0.39693 0.0
H228 H 0.83977 0.76993 0.41761 0.0
H229 H 0.74785 0.58962 0.33525 0.0
H230 H 0.90484 0.65195 0.30913 0.0
C231 C 0.1435 0.76807 0.91538 0.0
C232 C 0.09448 0.74589 0.92673 0.0
N233 N 0.09395 0.7673 0.95665 0.0
N234 N 0.1741 0.80346 0.93798 0.0
C235 C 0.14286 0.80161 0.963 0.0
H236 H 0.15629 0.7577 0.89274 0.0
Co237 Co 0.24518 0.83743 0.93833 0.0
C238 C 0.24099 0.92225 0.97465 0.0
O239 O 0.21428 0.92793 0.9509 0.0
N240 N 0.31713 0.87014 0.94221 0.0
C241 C 0.39655 0.92691 0.95605 0.0
C242 C 0.3495 0.91983 0.94834 0.0
C243 C 0.34584 0.84813 0.9468 0.0
N244 N 0.39418 0.88155 0.95529 0.0
O245 O 0.23975 0.78821 0.97079 0.0
H246 H 0.33942 0.94918 0.94782 0.0
H247 H 0.33105 0.80793 0.94604 0.0
O248 O 0.24953 0.88524 0.97313 0.0
C249 C 0.23577 0.75376 0.95018 0.0
O250 O 0.23946 0.76332 0.91744 0.0
N251 N 0.24884 0.88062 0.90029 0.0
C252 C 0.23649 0.89042 0.83023 0.0
C253 C 0.19762 0.88016 0.85338 0.0
C254 C 0.20552 0.87824 0.8882 0.0
C255 C 0.28894 0.89725 0.87842 0.0
C256 C 0.28422 0.90509 0.84406 0.0
H257 H 0.17345 0.86813 0.90437 0.0
H258 H 0.32389 0.89946 0.88555 0.0
H259 H 0.15592 0.82364 0.9861 0.0
H260 H 0.06238 0.71427 0.91471 0.0
H261 H 0.42978 0.96275 0.96203 0.0
H262 H 0.15973 0.86887 0.84526 0.0
H263 H 0.31699 0.91708 0.82802 0.0
C264 C 0.48638 0.34531 0.41559 0.0
C265 C 0.53136 0.39034 0.41853 0.0
N266 N 0.5647 0.3813 0.43497 0.0
N267 N 0.49118 0.3078 0.42993 0.0
C268 C 0.53946 0.33093 0.4414 0.0
H269 H 0.45223 0.34021 0.40373 0.0
Co270 Co 0.43828 0.24062 0.43495 0.0
C271 C 0.48768 0.17895 0.44429 0.0
O272 O 0.44843 0.14285 0.42836 0.0
N273 N 0.38335 0.17271 0.44172 0.0
C274 C 0.31598 0.09518 0.43783 0.0
C275 C 0.34471 0.14053 0.42148 0.0
C276 C 0.37554 0.14594 0.47083 0.0
N277 N 0.33528 0.09841 0.469 0.0
O278 O 0.42339 0.25871 0.47868 0.0
H279 H 0.33725 0.14796 0.39612 0.0
H280 H 0.40014 0.16074 0.4927 0.0
O281 O 0.48773 0.22009 0.45217 0.0
C282 C 0.38953 0.27035 0.47112 0.0
O283 O 0.3735 0.26337 0.43958 0.0
N284 N 0.44908 0.22725 0.38968 0.0
C285 C 0.4564 0.20976 0.32092 0.0
C286 C 0.49665 0.22122 0.34303 0.0
C287 C 0.4927 0.23109 0.37727 0.0
C288 C 0.41259 0.22234 0.3676 0.0
C289 C 0.41443 0.21152 0.33337 0.0
H290 H 0.52515 0.24276 0.39345 0.0
H291 H 0.38159 0.22676 0.37665 0.0
H292 H 0.55599 0.31149 0.45445 0.0
H293 H 0.53936 0.42658 0.40838 0.0
H294 H 0.28463 0.06173 0.42677 0.0
H295 H 0.53084 0.22273 0.33391 0.0
H296 H 0.38392 0.20584 0.31661 0.0
C297 C 0.31165 0.40889 0.92939 0.0
C298 C 0.33177 0.38108 0.94274 0.0
N299 N 0.30905 0.36169 0.97267 0.0
N300 N 0.27558 0.40629 0.95049 0.0
C301 C 0.27525 0.3776 0.97673 0.0
H302 H 0.32333 0.43058 0.90617 0.0
Co303 Co 0.24224 0.44418 0.94815 0.0
C304 C 0.1537 0.35573 0.98131 0.0
O305 O 0.14896 0.32444 0.95684 0.0
N306 N 0.21023 0.48395 0.94942 0.0
C307 C 0.15535 0.50985 0.96176 0.0
C308 C 0.16124 0.46844 0.95643 0.0
C309 C 0.23303 0.53504 0.95076 0.0
N310 N 0.20088 0.55187 0.95883 0.0
O311 O 0.28946 0.48872 0.9821 0.0
H312 H 0.13136 0.4294 0.95756 0.0
H313 H 0.27297 0.55974 0.94705 0.0
O314 O 0.19163 0.40081 0.98165 0.0
C315 C 0.3271 0.51788 0.96329 0.0
O316 O 0.32208 0.51187 0.9302 0.0
N317 N 0.20148 0.40433 0.90901 0.0
C318 C 0.19442 0.38295 0.839 0.0
C319 C 0.20532 0.35486 0.86214 0.0
C320 C 0.20614 0.3644 0.89698 0.0
C321 C 0.18279 0.42587 0.88701 0.0
C322 C 0.17635 0.41352 0.85254 0.0
H323 H 0.21583 0.34239 0.91347 0.0
H324 H 0.17689 0.45651 0.8942 0.0
H325 H 0.25138 0.36942 0.99875 0.0
H326 H 0.36226 0.37718 0.93193 0.0
H327 H 0.12001 0.50875 0.96681 0.0
H328 H 0.21692 0.32837 0.85369 0.0
H329 H 0.1616 0.43179 0.83641 0.0
C330 C 0.71571 0.12651 0.42529 0.0
C331 C 0.66691 0.11717 0.42553 0.0
N332 N 0.66665 0.15804 0.43833 0.0
N333 N 0.74722 0.17365 0.43711 0.0
C334 C 0.7153 0.19066 0.44666 0.0
H335 H 0.72721 0.09959 0.41778 0.0
Co336 Co 0.81768 0.19718 0.44349 0.0
C337 C 0.81874 0.2948 0.44684 0.0
O338 O 0.79212 0.28119 0.41868 0.0
N339 N 0.88594 0.21806 0.4511 0.0
C340 C 0.96317 0.22891 0.44578 0.0
C341 C 0.91609 0.20846 0.43111 0.0
C342 C 0.91513 0.24354 0.47803 0.0
N343 N 0.96236 0.25062 0.47541 0.0
O344 O 0.80042 0.16417 0.48692 0.0
H345 H 0.90443 0.18764 0.40744 0.0
H346 H 0.90197 0.25673 0.49912 0.0
O347 O 0.83036 0.26416 0.46122 0.0
C348 C 0.79711 0.12103 0.48153 0.0
O349 O 0.81047 0.11292 0.45148 0.0
N350 N 0.83412 0.22289 0.39856 0.0
C351 C 0.85953 0.2502 0.33068 0.0
C352 C 0.8853 0.28504 0.35676 0.0
C353 C 0.87272 0.27026 0.39059 0.0
C354 C 0.81152 0.18779 0.37344 0.0
C355 C 0.8232 0.20067 0.33945 0.0
H356 H 0.89459 0.29664 0.41037 0.0
H357 H 0.78576 0.14884 0.37954 0.0
H358 H 0.72666 0.22567 0.46007 0.0
H359 H 0.63395 0.08248 0.41734 0.0
H360 H 0.99523 0.22698 0.43583 0.0
H361 H 0.91484 0.32326 0.35109 0.0
H362 H 0.80458 0.1717 0.3202 0.0
C363 C 0.70609 0.94121 0.92572 0.0
C364 C 0.73798 0.98479 0.94309 0.0
N365 N 0.73304 0.97446 0.97649 0.0
N366 N 0.68134 0.90287 0.94794 0.0
C367 C 0.69868 0.92446 0.97875 0.0
H368 H 0.69995 0.9386 0.89864 0.0
Co369 Co 0.62829 0.83637 0.93825 0.0
C370 C 0.66941 0.7712 0.95751 0.0
O371 O 0.65279 0.7485 0.92812 0.0
N372 N 0.57423 0.7685 0.93008 0.0
C373 C 0.5192 0.69211 0.90937 0.0
C374 C 0.55842 0.73954 0.90162 0.0
C375 C 0.54341 0.73697 0.95474 0.0
N376 N 0.50986 0.69065 0.94275 0.0
O377 O 0.58938 0.84058 0.97518 0.0
H378 H 0.57452 0.75076 0.87665 0.0
H379 H 0.54571 0.7474 0.98122 0.0
O380 O 0.66217 0.80786 0.96601 0.0
C381 C 0.57142 0.86732 0.963 0.0
O382 O 0.58938 0.89054 0.93401 0.0
N383 N 0.6618 0.83716 0.89818 0.0
C384 C 0.70303 0.86142 0.83332 0.0
C385 C 0.72971 0.8543 0.85971 0.0
C386 C 0.70886 0.8435 0.89257 0.0
C387 C 0.63652 0.84513 0.87268 0.0
C388 C 0.65596 0.85648 0.84012 0.0
H389 H 0.73129 0.84255 0.91342 0.0
H390 H 0.60112 0.84374 0.87804 0.0
H391 H 0.68519 0.90413 1.00241 0.0
H392 H 0.76096 1.02196 0.93208 0.0
H393 H 0.49868 0.66109 0.89177 0.0
H394 H 0.76675 0.8589 0.85524 0.0
H395 H 0.63457 0.8621 0.82038 0.0
C396 C 0.72213 0.27437 0.0257 0.0
C397 C 0.74495 0.24419 0.0251 0.0
C398 C 0.66974 0.25281 0.02408 0.0
C399 C 0.63799 0.20006 0.02205 0.0
H400 H 0.74443 0.31434 0.0314 0.0
H401 H 0.6539 0.27744 0.02683 0.0
S402 S 0.67953 0.10503 0.01394 0.0
N403 N 0.73265 0.15965 0.0179 0.0
N404 N 0.63345 0.11856 0.01474 0.0
C405 C 0.66048 0.16977 0.01776 0.0
C406 C 0.71422 0.19202 0.01933 0.0
C407 C 0.44611 0.63664 0.55176 0.0
C408 C 0.46042 0.59921 0.55175 0.0
C409 C 0.48205 0.68804 0.54809 0.0
C410 C 0.53351 0.70397 0.54424 0.0
H411 H 0.40784 0.62695 0.55798 0.0
H412 H 0.47034 0.71573 0.55262 0.0
S413 S 0.58913 0.62095 0.53447 0.0
N414 N 0.52839 0.58129 0.54087 0.0
N415 N 0.59605 0.67833 0.53513 0.0
C416 C 0.54743 0.6668 0.54007 0.0
C417 C 0.51089 0.61431 0.5437 0.0
C418 C 0.82377 0.43589 0.01449 0.0
C419 C 0.87585 0.45925 0.02141 0.0
C420 C 0.80011 0.46471 0.00944 0.0
C421 C 0.82761 0.51788 0.01113 0.0
H422 H 0.80012 0.39543 0.01674 0.0
H423 H 0.75922 0.44518 0.00913 0.0
S424 S 0.96681 0.59701 0.01614 0.0
N425 N 0.95584 0.53839 0.02019 0.0
N426 N 0.91095 0.5924 0.01119 0.0
C427 C 0.88048 0.54137 0.01199 0.0
C428 C 0.90473 0.5121 0.01726 0.0
C429 C 0.42503 0.79798 0.54785 0.0
C430 C 0.46021 0.84778 0.55779 0.0
C431 C 0.37422 0.78358 0.54171 0.0
C432 C 0.35716 0.81861 0.54486 0.0
H433 H 0.4355 0.76894 0.54829 0.0
H434 H 0.34718 0.74372 0.5385 0.0
S435 S 0.43682 0.95589 0.56235 0.0
N436 N 0.47641 0.93384 0.56458 0.0
N437 N 0.38124 0.90682 0.55265 0.0
C438 C 0.39346 0.8697 0.55019 0.0
C439 C 0.44489 0.88426 0.55696 0.0
C440 C 0.62865 0.40048 0.00782 0.0
C441 C 0.6066 0.43078 0.01414 0.0
C442 C 0.59876 0.34785 1.00418 0.0
C443 C 0.54597 0.32361 0.00734 0.0
H444 H 0.66907 0.41632 0.0095 0.0
H445 H 0.61743 0.32555 1.00397 0.0
S446 S 0.46974 0.38725 0.01155 0.0
N447 N 0.52876 0.43408 0.01343 0.0
N448 N 0.47272 0.33467 0.00819 0.0
C449 C 0.52348 0.35406 0.00772 0.0
C450 C 0.55383 0.40783 0.01106 0.0
C451 C 0.27649 0.58225 0.54236 0.0
C452 C 0.24256 0.52978 0.54281 0.0
C453 C 0.25951 0.61711 0.54643 0.0
C454 C 0.20794 0.60072 0.55125 0.0
H455 H 0.31677 0.59634 0.54311 0.0
H456 H 0.28743 0.65669 0.54935 0.0
S457 S 0.10312 0.46771 0.54626 0.0
N458 N 0.15475 0.46347 0.5424 0.0
N459 N 0.12248 0.52884 0.54962 0.0
C460 C 0.17327 0.54867 0.54742 0.0
C461 C 0.19069 0.51327 0.54309 0.0
C462 C 0.83002 0.42276 0.45465 0.0
C463 C 0.88228 0.45557 0.45107 0.0
C464 C 0.80971 0.37019 0.45701 0.0
C465 C 0.841 0.34852 0.45717 0.0
H466 H 0.80442 0.43746 0.45284 0.0
H467 H 0.76901 0.34606 0.45634 0.0
S468 S 0.981 0.41887 0.4559 0.0
N469 N 0.96534 0.46341 0.45246 0.0
N470 N 0.92732 0.36464 0.45894 0.0
C471 C 0.89359 0.38131 0.45759 0.0
C472 C 0.91423 0.43486 0.45397 0.0
C473 C 0.47505 0.90406 0.98424 0.0
C474 C 0.43452 0.87106 0.96305 0.0
C475 C 0.5179 0.89868 0.98833 0.0
C476 C 0.52129 0.85934 0.97215 0.0
H477 H 0.47484 0.93576 0.99655 0.0
H478 H 0.55009 0.92768 1.00213 0.0
S479 S 0.42568 0.76136 0.91528 0.0
N480 N 0.40089 0.79653 0.92648 0.0
N481 N 0.48017 0.78579 0.93543 0.0
C482 C 0.47975 0.82407 0.95298 0.0
C483 C 0.43666 0.83002 0.94811 0.0
C484 C 0.70531 0.43619 0.43312 0.0
C485 C 0.72434 0.48791 0.44071 0.0
C486 C 0.65341 0.40125 0.43321 0.0
C487 C 0.61792 0.41656 0.44011 0.0
H488 H 0.7306 0.42276 0.42536 0.0
H489 H 0.64086 0.36247 0.42582 0.0
S490 S 0.64736 0.54637 0.46462 0.0
N491 N 0.70329 0.55181 0.458 0.0
N492 N 0.60536 0.48619 0.45758 0.0
C493 C 0.63622 0.46761 0.44935 0.0
C494 C 0.68946 0.50321 0.44988 0.0
C495 C 0.26364 0.69141 0.94242 0.0
C496 C 0.23359 0.70637 0.96055 0.0
C497 C 0.25383 0.64153 0.94312 0.0
C498 C 0.2133 0.60418 0.96193 0.0
H499 H 0.29324 0.71785 0.92574 0.0
H500 H 0.27654 0.63181 0.92711 0.0
S501 S 0.12728 0.62585 0.0175 0.0
N502 N 0.16449 0.68169 1.00014 0.0
N503 N 0.14647 0.58746 1.00262 0.0
C504 C 0.185 0.6195 0.98221 0.0
C505 C 0.19517 0.67077 0.98135 0.0
C506 C 0.57212 0.19623 0.46872 0.0
C507 C 0.53546 0.1768 0.44278 0.0
C508 C 0.61554 0.19081 0.46718 0.0
C509 C 0.62378 0.16617 0.43952 0.0
H510 H 0.56658 0.21444 0.49065 0.0
H511 H 0.64217 0.20489 0.48803 0.0
S512 S 0.54428 0.11751 0.36223 0.0
N513 N 0.51383 0.13717 0.38688 0.0
N514 N 0.59514 0.12883 0.38375 0.0
C515 C 0.58883 0.14941 0.41273 0.0
C516 C 0.54482 0.15426 0.41441 0.0
C517 C 0.38112 0.60813 0.9791 0.0
C518 C 0.37577 0.55964 0.97556 0.0
C519 C 0.42736 0.65216 0.97184 0.0
C520 C 0.46926 0.64881 0.96041 0.0
H521 H 0.34817 0.61189 0.98372 0.0
H522 H 0.4289 0.68845 0.9719 0.0
S523 S 0.47721 0.53185 0.95287 0.0
N524 N 0.41842 0.51182 0.9649 0.0
N525 N 0.50462 0.59422 0.95065 0.0
C526 C 0.46581 0.60117 0.96035 0.0
C527 C 0.41924 0.55667 0.96824 0.0
C528 C 0.42125 0.15359 0.26989 0.0
C529 C 0.45903 0.19894 0.28455 0.0
C530 C 0.4218 0.1437 0.23509 0.0
C531 C 0.45997 0.17903 0.21368 0.0
H532 H 0.39101 0.12561 0.28547 0.0
H533 H 0.39208 0.10822 0.22488 0.0
S534 S 0.56494 0.3056 0.23956 0.0
N535 N 0.53423 0.28025 0.27513 0.0
N536 N 0.53475 0.26283 0.2097 0.0
C537 C 0.49763 0.22487 0.22817 0.0
C538 C 0.4973 0.23453 0.26359 0.0
C539 C 0.22454 0.347 0.75209 0.0
C540 C 0.24354 0.39221 0.7334 0.0
C541 C 0.20664 0.34348 0.78548 0.0
C542 C 0.20786 0.38532 0.80202 0.0
H543 H 0.22421 0.31419 0.74113 0.0
H544 H 0.19228 0.30764 0.79845 0.0
S545 S 0.25111 0.51191 0.76318 0.0
N546 N 0.25676 0.47798 0.73268 0.0
N547 N 0.23043 0.47399 0.79625 0.0
C548 C 0.22629 0.43064 0.78325 0.0
C549 C 0.24231 0.43342 0.74889 0.0
C550 C 0.92046 0.29021 0.28221 0.0
C551 C 0.87043 0.26473 0.29441 0.0
C552 C 0.93082 0.3023 0.24763 0.0
C553 C 0.89151 0.28981 0.22429 0.0
H554 H 0.9517 0.30016 0.29941 0.0
H555 H 0.96973 0.32193 0.23916 0.0
S556 S 0.75418 0.22278 0.24332 0.0
N557 N 0.78146 0.22809 0.2804 0.0
N558 N 0.80068 0.24921 0.2156 0.0
C559 C 0.84142 0.2641 0.23622 0.0
C560 C 0.83095 0.25203 0.27121 0.0
C561 C 0.71523 0.83382 0.77662 0.0
C562 C 0.72193 0.8735 0.79816 0.0
C563 C 0.71274 0.83805 0.74134 0.0
C564 C 0.71714 0.88216 0.7266 0.0
H565 H 0.70677 0.79762 0.78719 0.0
H566 H 0.70306 0.80511 0.72569 0.0
S567 S 0.74262 0.99917 0.77193 0.0
N568 N 0.7389 0.96017 0.8023 0.0
N569 N 0.73454 0.96818 0.73586 0.0
C570 C 0.72909 0.92385 0.74763 0.0
C571 C 0.7314 0.91947 0.78353 0.0
C572 C 0.77245 0.64165 0.23534 0.0
C573 C 0.78843 0.61921 0.21072 0.0
C574 C 0.78379 0.64099 0.26986 0.0
C575 C 0.81206 0.61851 0.28068 0.0
H576 H 0.75029 0.65887 0.22793 0.0
H577 H 0.77068 0.65846 0.28817 0.0
S578 S 0.86363 0.55592 0.22577 0.0
N579 N 0.83482 0.5751 0.19926 0.0
N580 N 0.85572 0.57353 0.26389 0.0
C581 C 0.82874 0.59665 0.25612 0.0
C582 C 0.81705 0.5971 0.22121 0.0
C583 C 0.25561 0.85968 0.776 0.0
C584 C 0.22633 0.87686 0.79307 0.0
C585 C 0.24468 0.8407 0.743 0.0
C586 C 0.20196 0.8347 0.72534 0.0
H587 H 0.28679 0.85882 0.78831 0.0
H588 H 0.27025 0.83001 0.73156 0.0
S589 S 0.11471 0.87809 0.75621 0.0
N590 N 0.15595 0.89283 0.78729 0.0
N591 N 0.13132 0.85052 0.72679 0.0
C592 C 0.17271 0.85285 0.74137 0.0
C593 C 0.18553 0.87495 0.77477 0.0
C594 C 0.30028 0.95826 0.02376 0.0
C595 C 0.2722 0.96502 0.99813 0.0
C596 C 0.33761 0.99947 0.04196 0.0
C597 C 0.34892 0.0495 0.03527 0.0
H598 H 0.29489 0.92097 0.02897 0.0
H599 H 0.35904 0.9919 0.06059 0.0
S600 S 0.28231 0.08762 0.97364 0.0
N601 N 0.25507 1.02554 0.96921 0.0
N602 N 0.32559 0.10296 1.00339 0.0
C603 C 0.31916 0.05667 0.01116 0.0
C604 C 0.28071 1.01449 0.99267 0.0
C605 C 0.35442 0.31068 0.5539 0.0
C606 C 0.32798 0.3353 0.54295 0.0
C607 C 0.3745 0.29004 0.53081 0.0
C608 C 0.36872 0.29268 0.4957 0.0
H609 H 0.36045 0.3078 0.58068 0.0
H610 H 0.39454 0.27178 0.54058 0.0
S611 S 0.30295 0.35311 0.45348 0.0
N612 N 0.29733 0.36088 0.49438 0.0
N613 N 0.33456 0.32233 0.45097 0.0
C614 C 0.34192 0.31676 0.48435 0.0
C615 C 0.32165 0.33789 0.5079 0.0
C616 C 0.07329 0.37268 0.04758 0.0
C617 C 1.02388 0.33314 0.04056 0.0
C618 C 0.11512 0.37783 0.02962 0.0
C619 C 0.10977 0.34365 1.00373 0.0
H620 H 0.08 0.40106 0.06665 0.0
H621 H 0.15183 0.41002 0.03544 0.0
S622 S 0.98917 0.23043 0.97736 0.0
N623 N 0.97241 0.25698 0.00744 0.0
N624 N 0.05101 0.26638 0.9735 0.0
C625 C 0.06084 0.3024 0.99742 0.0
C626 C 1.01797 0.2973 0.01576 0.0
C627 C 0.70985 0.03353 0.55022 0.0
C628 C 0.71078 0.98805 0.5448 0.0
C629 C 0.7395 0.07718 0.53086 0.0
C630 C 0.77155 0.07737 0.50525 0.0
H631 H 0.6852 0.03535 0.56926 0.0
H632 H 0.73602 0.11043 0.53531 0.0
S633 S 0.79182 0.96987 0.48291 0.0
N634 N 0.74897 0.94719 0.51328 0.0
N635 N 0.80507 0.02891 0.47708 0.0
C636 C 0.77418 0.03267 0.50033 0.0
C637 C 0.7437 0.98814 0.51995 0.0
C638 C 0.7049 0.72634 0.0371 0.0
C639 C 0.72885 0.70032 0.02417 0.0
C640 C 0.6885 0.75206 0.01568 0.0
C641 C 0.69485 0.75225 0.98042 0.0
H642 H 0.69708 0.72544 0.06398 0.0
H643 H 0.66832 0.76951 0.02666 0.0
S644 S 0.76142 0.69632 0.93396 0.0
N645 N 0.76281 0.68131 0.974 0.0
N646 N 0.73165 0.72909 0.93373 0.0
C647 C 0.72151 0.72918 0.96731 0.0
C648 C 0.7387 0.70346 0.98917 0.0
C649 C 0.98515 0.67124 0.5238 0.0
C650 C 0.99048 0.69636 0.49299 0.0
C651 C 1.02632 0.68652 0.54592 0.0
C652 C 0.07485 0.72755 0.53826 0.0
H653 H 0.94925 0.6387 0.53057 0.0
H654 H 1.01999 0.66502 0.56903 0.0
S655 S 0.10825 0.80906 0.46215 0.0
N656 N 0.04791 0.76692 0.45696 0.0
N657 N 0.12484 0.79476 0.4985 0.0
C658 C 0.08046 0.75391 0.50802 0.0
C659 C 1.03845 0.73861 0.48548 0.0
C660 C 0.82547 0.09318 0.0226 0.0
C661 C 0.7971 0.09519 0.05011 0.0
C662 C 0.80507 0.05242 0.99965 0.0
C663 C 0.75546 1.01173 1.00325 0.0
H664 H 0.86347 0.12404 0.01829 0.0
H665 H 0.82789 0.05328 0.97835 0.0
S666 S 0.66486 0.99788 0.07078 0.0
N667 N 0.7164 0.05194 0.07971 0.0
N668 N 0.67848 0.97557 0.0366 0.0
C669 C 0.72716 1.01215 0.03126 0.0
C670 C 0.74787 0.05376 0.05469 0.0
C671 C 0.75895 0.70243 0.50651 0.0
C672 C 0.79633 0.73651 0.48406 0.0
C673 C 0.73578 0.71896 0.53015 0.0
C674 C 0.74835 0.7701 0.532 0.0
H675 H 0.74716 0.66252 0.50571 0.0
H676 H 0.70744 0.69145 0.547 0.0
S677 S 0.84559 0.87556 0.48108 0.0
N678 N 0.84676 0.82499 0.46706 0.0
N679 N 0.80131 0.85497 0.51053 0.0
C680 C 0.78528 0.80459 0.50983 0.0
C681 C 0.80971 0.7881 0.48612 0.0
C682 C 1.0165 0.73835 0.03663 0.0
C683 C 0.96647 0.71531 0.02447 0.0
C684 C 0.05785 0.75628 0.01448 0.0
C685 C 0.05122 0.75252 0.97902 0.0
H686 H 1.02383 0.74144 0.06364 0.0
H687 H 0.09516 0.77157 0.02538 0.0
S688 S 0.929 0.70022 0.93335 0.0
N689 N 0.9134 0.6919 0.97383 0.0
N690 N 0.99117 0.72862 0.93266 0.0
C691 C 1.00178 0.73215 0.96637 0.0
C692 C 0.95948 0.71304 0.9889 0.0
C693 C 0.34256 1.01429 0.53633 0.0
C694 C 0.29238 0.97417 0.53861 0.0
C695 C 0.35609 0.05504 0.51407 0.0
C696 C 0.31992 0.05766 0.49332 0.0
H697 H 0.37186 1.01362 0.55137 0.0
H698 H 0.39546 0.08405 0.51252 0.0
S699 S 0.18227 0.96468 0.49259 0.0
N700 N 0.20593 0.94099 0.51989 0.0
N701 N 0.23069 1.01793 0.47874 0.0
C702 C 0.26925 1.01836 0.49616 0.0
C703 C 0.25568 0.97659 0.51857 0.0
C704 C 0.33606 0.29899 0.98322 0.0
C705 C 0.32136 0.33284 0.99593 0.0
C706 C 0.35303 0.27414 1.00482 0.0
C707 C 0.35668 0.28246 0.04023 0.0
H708 H 0.33556 0.29253 0.95616 0.0
H709 H 0.36613 0.25065 0.99312 0.0
S710 S 0.31674 0.36288 0.0868 0.0
N711 N 0.30794 0.37068 0.04646 0.0
N712 N 0.33799 0.32256 0.0872 0.0
C713 C 0.33895 0.3138 0.05346 0.0
C714 C 0.32182 0.33935 0.03134 0.0
C715 C 0.09391 0.33066 0.51016 0.0
C716 C 0.08707 0.32243 0.54541 0.0
C717 C 0.05301 0.30731 0.48754 0.0
C718 C 1.00356 0.27521 0.49923 0.0
H719 H 0.131 0.35605 0.49996 0.0
H720 H 0.05996 0.31492 0.46067 0.0
S721 S 0.96553 0.23785 0.58854 0.0
N722 N 1.02704 0.27725 0.59055 0.0
N723 N 0.9503 0.2343 0.54803 0.0
C724 C 0.99613 0.26629 0.53427 0.0
C725 C 1.0378 0.28965 0.55732 0.0
loop_
_geom_bond_atom_site_label_1
_geom_bond_atom_site_label_2
_geom_bond_distance
_geom_bond_site_symmetry_2
_ccdc_geom_bond_type
C0 C1 1.351 . S
C0 N3 1.368 . S
C0 H5 0.931 . S
C1 C0 1.351 . S
C1 N2 1.373 . S
C1 H29 0.930 . S
N2 C1 1.373 . S
N2 C4 1.340 . S
N3 C0 1.368 . S
N3 C4 1.321 . S
N3 Co6 2.135 . S
C4 N2 1.340 . S
C4 N3 1.321 . S
C4 H28 0.930 . S
H5 C0 0.931 . S
Co6 N3 2.135 . S
Co6 N9 2.121 . S
Co6 O14 2.055 . S
Co6 O17 2.039 . S
Co6 N20 2.140 . S
C7 O8 1.227 . S
C7 O17 1.265 . S
O8 C7 1.227 . S
N9 Co6 2.121 . S
N9 C11 1.375 . S
N9 C12 1.313 . S
C10 C11 1.338 . S
C10 N13 1.377 . S
C10 H30 0.930 . S
C11 N9 1.375 . S
C11 C10 1.338 . S
C11 H15 0.931 . S
C12 N9 1.313 . S
C12 N13 1.344 . S
C12 H16 0.930 . S
N13 C10 1.377 . S
N13 C12 1.344 . S
O14 Co6 2.055 . S
O14 C18 1.253 . S
H15 C11 0.931 . S
H16 C12 0.930 . S
O17 Co6 2.039 . S
O17 C7 1.265 . S
C18 O14 1.253 . S
C18 O19 1.227 . S
O19 C18 1.227 . S
N20 Co6 2.140 . S
N20 C23 1.346 . S
N20 C24 1.345 . S
C21 C22 1.387 . S
C21 C25 1.391 . S
C22 C21 1.387 . S
C22 C23 1.369 . S
C22 H31 0.929 . S
C23 N20 1.346 . S
C23 C22 1.369 . S
C23 H26 0.928 . S
C24 N20 1.345 . S
C24 C25 1.371 . S
C24 H27 0.931 . S
C25 C21 1.391 . S
C25 C24 1.371 . S
C25 H32 0.930 . S
H26 C23 0.928 . S
H27 C24 0.931 . S
H28 C4 0.930 . S
H29 C1 0.930 . S
H30 C10 0.930 . S
H31 C22 0.929 . S
H32 C25 0.930 . S
C33 C34 1.351 . S
C33 N36 1.368 . S
C33 H38 0.931 . S
C34 C33 1.351 . S
C34 N35 1.373 . S
C34 H62 0.930 . S
N35 C34 1.373 . S
N35 C37 1.340 . S
N36 C33 1.368 . S
N36 C37 1.321 . S
N36 Co39 2.135 . S
C37 N35 1.340 . S
C37 N36 1.321 . S
C37 H61 0.930 . S
H38 C33 0.931 . S
Co39 N36 2.135 . S
Co39 N42 2.121 . S
Co39 O47 2.055 . S
Co39 O50 2.039 . S
Co39 N53 2.140 . S
C40 O41 1.227 . S
C40 O50 1.265 . S
O41 C40 1.227 . S
N42 Co39 2.121 . S
N42 C44 1.375 . S
N42 C45 1.313 . S
C43 C44 1.338 . S
C43 N46 1.377 . S
C43 H63 0.930 . S
C44 N42 1.375 . S
C44 C43 1.338 . S
C44 H48 0.931 . S
C45 N42 1.313 . S
C45 N46 1.344 . S
C45 H49 0.930 . S
N46 C43 1.377 . S
N46 C45 1.344 . S
O47 Co39 2.055 . S
O47 C51 1.253 . S
H48 C44 0.931 . S
H49 C45 0.930 . S
O50 Co39 2.039 . S
O50 C40 1.265 . S
C51 O47 1.253 . S
C51 O52 1.227 . S
O52 C51 1.227 . S
N53 Co39 2.140 . S
N53 C56 1.346 . S
N53 C57 1.345 . S
C54 C55 1.387 . S
C54 C58 1.391 . S
C55 C54 1.387 . S
C55 C56 1.369 . S
C55 H64 0.929 . S
C56 N53 1.346 . S
C56 C55 1.369 . S
C56 H59 0.928 . S
C57 N53 1.345 . S
C57 C58 1.371 . S
C57 H60 0.931 . S
C58 C54 1.391 . S
C58 C57 1.371 . S
C58 H65 0.930 . S
H59 C56 0.928 . S
H60 C57 0.931 . S
H61 C37 0.930 . S
H62 C34 0.930 . S
H63 C43 0.930 . S
H64 C55 0.929 . S
H65 C58 0.930 . S
C66 C67 1.351 . S
C66 N69 1.368 . S
C66 H71 0.931 . S
C67 C66 1.351 . S
C67 N68 1.373 . S
C67 H95 0.930 . S
N68 C67 1.373 . S
N68 C70 1.340 . S
N69 C66 1.368 . S
N69 C70 1.321 . S
N69 Co72 2.135 . S
C70 N68 1.340 . S
C70 N69 1.321 . S
C70 H94 0.930 . S
H71 C66 0.931 . S
Co72 N69 2.135 . S
Co72 N75 2.121 . S
Co72 O80 2.055 . S
Co72 O83 2.039 . S
Co72 N86 2.140 . S
C73 O74 1.227 . S
C73 O83 1.265 . S
O74 C73 1.227 . S
N75 Co72 2.121 . S
N75 C77 1.375 . S
N75 C78 1.313 . S
C76 C77 1.338 . S
C76 N79 1.377 . S
C76 H96 0.930 . S
C77 N75 1.375 . S
C77 C76 1.338 . S
C77 H81 0.931 . S
C78 N75 1.313 . S
C78 N79 1.344 . S
C78 H82 0.930 . S
N79 C76 1.377 . S
N79 C78 1.344 . S
O80 Co72 2.055 . S
O80 C84 1.253 . S
H81 C77 0.931 . S
H82 C78 0.930 . S
O83 Co72 2.039 . S
O83 C73 1.265 . S
C84 O80 1.253 . S
C84 O85 1.227 . S
O85 C84 1.227 . S
N86 Co72 2.140 . S
N86 C89 1.346 . S
N86 C90 1.345 . S
C87 C88 1.387 . S
C87 C91 1.391 . S
C88 C87 1.387 . S
C88 C89 1.369 . S
C88 H97 0.929 . S
C89 N86 1.346 . S
C89 C88 1.369 . S
C89 H92 0.928 . S
C90 N86 1.345 . S
C90 C91 1.371 . S
C90 H93 0.931 . S
C91 C87 1.391 . S
C91 C90 1.371 . S
C91 H98 0.930 . S
H92 C89 0.928 . S
H93 C90 0.931 . S
H94 C70 0.930 . S
H95 C67 0.930 . S
H96 C76 0.930 . S
H97 C88 0.929 . S
H98 C91 0.930 . S
C99 C100 1.351 . S
C99 N102 1.368 . S
C99 H104 0.931 . S
C100 C99 1.351 . S
C100 N101 1.373 . S
C100 H128 0.930 . S
N101 C100 1.373 . S
N101 C103 1.340 . S
N102 C99 1.368 . S
N102 C103 1.321 . S
N102 Co105 2.135 . S
C103 N101 1.340 . S
C103 N102 1.321 . S
C103 H127 0.930 . S
H104 C99 0.931 . S
Co105 N102 2.135 . S
Co105 N108 2.121 . S
Co105 O113 2.055 . S
Co105 O116 2.039 . S
Co105 N119 2.140 . S
C106 O107 1.227 . S
C106 O116 1.265 . S
O107 C106 1.227 . S
N108 Co105 2.121 . S
N108 C110 1.375 . S
N108 C111 1.313 . S
C109 C110 1.338 . S
C109 N112 1.377 . S
C109 H129 0.930 . S
C110 N108 1.375 . S
C110 C109 1.338 . S
C110 H114 0.931 . S
C111 N108 1.313 . S
C111 N112 1.344 . S
C111 H115 0.930 . S
N112 C109 1.377 . S
N112 C111 1.344 . S
O113 Co105 2.055 . S
O113 C117 1.253 . S
H114 C110 0.931 . S
H115 C111 0.930 . S
O116 Co105 2.039 . S
O116 C106 1.265 . S
C117 O113 1.253 . S
C117 O118 1.227 . S
O118 C117 1.227 . S
N119 Co105 2.140 . S
N119 C122 1.346 . S
N119 C123 1.345 . S
C120 C121 1.387 . S
C120 C124 1.391 . S
C121 C120 1.387 . S
C121 C122 1.369 . S
C121 H130 0.929 . S
C122 N119 1.346 . S
C122 C121 1.369 . S
C122 H125 0.928 . S
C123 N119 1.345 . S
C123 C124 1.371 . S
C123 H126 0.931 . S
C124 C120 1.391 . S
C124 C123 1.371 . S
C124 H131 0.930 . S
H125 C122 0.928 . S
H126 C123 0.931 . S
H127 C103 0.930 . S
H128 C100 0.930 . S
H129 C109 0.930 . S
H130 C121 0.929 . S
H131 C124 0.930 . S
C132 C133 1.351 . S
C132 N135 1.368 . S
C132 H137 0.931 . S
C133 C132 1.351 . S
C133 N134 1.373 . S
C133 H161 0.930 . S
N134 C133 1.373 . S
N134 C136 1.340 . S
N135 C132 1.368 . S
N135 C136 1.321 . S
N135 Co138 2.135 . S
C136 N134 1.340 . S
C136 N135 1.321 . S
C136 H160 0.930 . S
H137 C132 0.931 . S
Co138 N135 2.135 . S
Co138 N141 2.121 . S
Co138 O146 2.055 . S
Co138 O149 2.039 . S
Co138 N152 2.140 . S
C139 O140 1.227 . S
C139 O149 1.265 . S
O140 C139 1.227 . S
N141 Co138 2.121 . S
N141 C143 1.375 . S
N141 C144 1.313 . S
C142 C143 1.338 . S
C142 N145 1.377 . S
C142 H162 0.930 . S
C143 N141 1.375 . S
C143 C142 1.338 . S
C143 H147 0.931 . S
C144 N141 1.313 . S
C144 N145 1.344 . S
C144 H148 0.930 . S
N145 C142 1.377 . S
N145 C144 1.344 . S
O146 Co138 2.055 . S
O146 C150 1.253 . S
H147 C143 0.931 . S
H148 C144 0.930 . S
O149 Co138 2.039 . S
O149 C139 1.265 . S
C150 O146 1.253 . S
C150 O151 1.227 . S
O151 C150 1.227 . S
N152 Co138 2.140 . S
N152 C155 1.346 . S
N152 C156 1.345 . S
C153 C154 1.387 . S
C153 C157 1.391 . S
C154 C153 1.387 . S
C154 C155 1.369 . S
C154 H163 0.929 . S
C155 N152 1.346 . S
C155 C154 1.369 . S
C155 H158 0.928 . S
C156 N152 1.345 . S
C156 C157 1.371 . S
C156 H159 0.931 . S
C157 C153 1.391 . S
C157 C156 1.371 . S
C157 H164 0.930 . S
H158 C155 0.928 . S
H159 C156 0.931 . S
H160 C136 0.930 . S
H161 C133 0.930 . S
H162 C142 0.930 . S
H163 C154 0.929 . S
H164 C157 0.930 . S
C165 C166 1.351 . S
C165 N168 1.368 . S
C165 H170 0.931 . S
C166 C165 1.351 . S
C166 N167 1.373 . S
C166 H194 0.930 . S
N167 C166 1.373 . S
N167 C169 1.340 . S
N168 C165 1.368 . S
N168 C169 1.321 . S
N168 Co171 2.135 . S
C169 N167 1.340 . S
C169 N168 1.321 . S
C169 H193 0.930 . S
H170 C165 0.931 . S
Co171 N168 2.135 . S
Co171 N174 2.121 . S
Co171 O179 2.055 . S
Co171 O182 2.039 . S
Co171 N185 2.140 . S
C172 O173 1.227 . S
C172 O182 1.265 . S
O173 C172 1.227 . S
N174 Co171 2.121 . S
N174 C176 1.375 . S
N174 C177 1.313 . S
C175 C176 1.338 . S
C175 N178 1.377 . S
C175 H195 0.930 . S
C176 N174 1.375 . S
C176 C175 1.338 . S
C176 H180 0.931 . S
C177 N174 1.313 . S
C177 N178 1.344 . S
C177 H181 0.930 . S
N178 C175 1.377 . S
N178 C177 1.344 . S
O179 Co171 2.055 . S
O179 C183 1.253 . S
H180 C176 0.931 . S
H181 C177 0.930 . S
O182 Co171 2.039 . S
O182 C172 1.265 . S
C183 O179 1.253 . S
C183 O184 1.227 . S
O184 C183 1.227 . S
N185 Co171 2.140 . S
N185 C188 1.346 . S
N185 C189 1.345 . S
C186 C187 1.387 . S
C186 C190 1.391 . S
C187 C186 1.387 . S
C187 C188 1.369 . S
C187 H196 0.929 . S
C188 N185 1.346 . S
C188 C187 1.369 . S
C188 H191 0.928 . S
C189 N185 1.345 . S
C189 C190 1.371 . S
C189 H192 0.931 . S
C190 C186 1.391 . S
C190 C189 1.371 . S
C190 H197 0.930 . S
H191 C188 0.928 . S
H192 C189 0.931 . S
H193 C169 0.930 . S
H194 C166 0.930 . S
H195 C175 0.930 . S
H196 C187 0.929 . S
H197 C190 0.930 . S
C198 C199 1.351 . S
C198 N201 1.368 . S
C198 H203 0.931 . S
C199 C198 1.351 . S
C199 N200 1.373 . S
C199 H227 0.930 . S
N200 C199 1.373 . S
N200 C202 1.340 . S
N201 C198 1.368 . S
N201 C202 1.321 . S
N201 Co204 2.135 . S
C202 N200 1.340 . S
C202 N201 1.321 . S
C202 H226 0.930 . S
H203 C198 0.931 . S
Co204 N201 2.135 . S
Co204 N207 2.121 . S
Co204 O212 2.055 . S
Co204 O215 2.039 . S
Co204 N218 2.140 . S
C205 O206 1.227 . S
C205 O215 1.265 . S
O206 C205 1.227 . S
N207 Co204 2.121 . S
N207 C209 1.375 . S
N207 C210 1.313 . S
C208 C209 1.338 . S
C208 N211 1.377 . S
C208 H228 0.930 . S
C209 N207 1.375 . S
C209 C208 1.338 . S
C209 H213 0.931 . S
C210 N207 1.313 . S
C210 N211 1.344 . S
C210 H214 0.930 . S
N211 C208 1.377 . S
N211 C210 1.344 . S
O212 Co204 2.055 . S
O212 C216 1.253 . S
H213 C209 0.931 . S
H214 C210 0.930 . S
O215 Co204 2.039 . S
O215 C205 1.265 . S
C216 O212 1.253 . S
C216 O217 1.227 . S
O217 C216 1.227 . S
N218 Co204 2.140 . S
N218 C221 1.346 . S
N218 C222 1.345 . S
C219 C220 1.387 . S
C219 C223 1.391 . S
C220 C219 1.387 . S
C220 C221 1.369 . S
C220 H229 0.929 . S
C221 N218 1.346 . S
C221 C220 1.369 . S
C221 H224 0.928 . S
C222 N218 1.345 . S
C222 C223 1.371 . S
C222 H225 0.931 . S
C223 C219 1.391 . S
C223 C222 1.371 . S
C223 H230 0.930 . S
H224 C221 0.928 . S
H225 C222 0.931 . S
H226 C202 0.930 . S
H227 C199 0.930 . S
H228 C208 0.930 . S
H229 C220 0.929 . S
H230 C223 0.930 . S
C231 C232 1.351 . S
C231 N234 1.368 . S
C231 H236 0.931 . S
C232 C231 1.351 . S
C232 N233 1.373 . S
C232 H260 0.930 . S
N233 C232 1.373 . S
N233 C235 1.340 . S
N234 C231 1.368 . S
N234 C235 1.321 . S
N234 Co237 2.135 . S
C235 N233 1.340 . S
C235 N234 1.321 . S
C235 H259 0.930 . S
H236 C231 0.931 . S
Co237 N234 2.135 . S
Co237 N240 2.121 . S
Co237 O245 2.055 . S
Co237 O248 2.039 . S
Co237 N251 2.140 . S
C238 O239 1.227 . S
C238 O248 1.265 . S
O239 C238 1.227 . S
N240 Co237 2.121 . S
N240 C242 1.375 . S
N240 C243 1.313 . S
C241 C242 1.338 . S
C241 N244 1.377 . S
C241 H261 0.930 . S
C242 N240 1.375 . S
C242 C241 1.338 . S
C242 H246 0.931 . S
C243 N240 1.313 . S
C243 N244 1.344 . S
C243 H247 0.930 . S
N244 C241 1.377 . S
N244 C243 1.344 . S
O245 Co237 2.055 . S
O245 C249 1.253 . S
H246 C242 0.931 . S
H247 C243 0.930 . S
O248 Co237 2.039 . S
O248 C238 1.265 . S
C249 O245 1.253 . S
C249 O250 1.227 . S
O250 C249 1.227 . S
N251 Co237 2.140 . S
N251 C254 1.346 . S
N251 C255 1.345 . S
C252 C253 1.387 . S
C252 C256 1.391 . S
C253 C252 1.387 . S
C253 C254 1.369 . S
C253 H262 0.929 . S
C254 N251 1.346 . S
C254 C253 1.369 . S
C254 H257 0.928 . S
C255 N251 1.345 . S
C255 C256 1.371 . S
C255 H258 0.931 . S
C256 C252 1.391 . S
C256 C255 1.371 . S
C256 H263 0.930 . S
H257 C254 0.928 . S
H258 C255 0.931 . S
H259 C235 0.930 . S
H260 C232 0.930 . S
H261 C241 0.930 . S
H262 C253 0.929 . S
H263 C256 0.930 . S
C264 C265 1.351 . S
C264 N267 1.368 . S
C264 H269 0.931 . S
C265 C264 1.351 . S
C265 N266 1.373 . S
C265 H293 0.930 . S
N266 C265 1.373 . S
N266 C268 1.340 . S
N267 C264 1.368 . S
N267 C268 1.321 . S
N267 Co270 2.135 . S
C268 N266 1.340 . S
C268 N267 1.321 . S
C268 H292 0.930 . S
H269 C264 0.931 . S
Co270 N267 2.135 . S
Co270 N273 2.121 . S
Co270 O278 2.055 . S
Co270 O281 2.039 . S
Co270 N284 2.140 . S
C271 O272 1.227 . S
C271 O281 1.265 . S
O272 C271 1.227 . S
N273 Co270 2.121 . S
N273 C275 1.375 . S
N273 C276 1.313 . S
C274 C275 1.338 . S
C274 N277 1.377 . S
C274 H294 0.930 . S
C275 N273 1.375 . S
C275 C274 1.338 . S
C275 H279 0.931 . S
C276 N273 1.313 . S
C276 N277 1.344 . S
C276 H280 0.930 . S
N277 C274 1.377 . S
N277 C276 1.344 . S
O278 Co270 2.055 . S
O278 C282 1.253 . S
H279 C275 0.931 . S
H280 C276 0.930 . S
O281 Co270 2.039 . S
O281 C271 1.265 . S
C282 O278 1.253 . S
C282 O283 1.227 . S
O283 C282 1.227 . S
N284 Co270 2.140 . S
N284 C287 1.346 . S
N284 C288 1.345 . S
C285 C286 1.387 . S
C285 C289 1.391 . S
C286 C285 1.387 . S
C286 C287 1.369 . S
C286 H295 0.929 . S
C287 N284 1.346 . S
C287 C286 1.369 . S
C287 H290 0.928 . S
C288 N284 1.345 . S
C288 C289 1.371 . S
C288 H291 0.931 . S
C289 C285 1.391 . S
C289 C288 1.371 . S
C289 H296 0.930 . S
H290 C287 0.928 . S
H291 C288 0.931 . S
H292 C268 0.930 . S
H293 C265 0.930 . S
H294 C274 0.930 . S
H295 C286 0.929 . S
H296 C289 0.930 . S
C297 C298 1.351 . S
C297 N300 1.368 . S
C297 H302 0.931 . S
C298 C297 1.351 . S
C298 N299 1.373 . S
C298 H326 0.930 . S
N299 C298 1.373 . S
N299 C301 1.340 . S
N300 C297 1.368 . S
N300 C301 1.321 . S
N300 Co303 2.135 . S
C301 N299 1.340 . S
C301 N300 1.321 . S
C301 H325 0.930 . S
H302 C297 0.931 . S
Co303 N300 2.135 . S
Co303 N306 2.121 . S
Co303 O311 2.055 . S
Co303 O314 2.039 . S
Co303 N317 2.140 . S
C304 O305 1.227 . S
C304 O314 1.265 . S
O305 C304 1.227 . S
N306 Co303 2.121 . S
N306 C308 1.375 . S
N306 C309 1.313 . S
C307 C308 1.338 . S
C307 N310 1.377 . S
C307 H327 0.930 . S
C308 N306 1.375 . S
C308 C307 1.338 . S
C308 H312 0.931 . S
C309 N306 1.313 . S
C309 N310 1.344 . S
C309 H313 0.930 . S
N310 C307 1.377 . S
N310 C309 1.344 . S
O311 Co303 2.055 . S
O311 C315 1.253 . S
H312 C308 0.931 . S
H313 C309 0.930 . S
O314 Co303 2.039 . S
O314 C304 1.265 . S
C315 O311 1.253 . S
C315 O316 1.227 . S
O316 C315 1.227 . S
N317 Co303 2.140 . S
N317 C320 1.346 . S
N317 C321 1.345 . S
C318 C319 1.387 . S
C318 C322 1.391 . S
C319 C318 1.387 . S
C319 C320 1.369 . S
C319 H328 0.929 . S
C320 N317 1.346 . S
C320 C319 1.369 . S
C320 H323 0.928 . S
C321 N317 1.345 . S
C321 C322 1.371 . S
C321 H324 0.931 . S
C322 C318 1.391 . S
C322 C321 1.371 . S
C322 H329 0.930 . S
H323 C320 0.928 . S
H324 C321 0.931 . S
H325 C301 0.930 . S
H326 C298 0.930 . S
H327 C307 0.930 . S
H328 C319 0.929 . S
H329 C322 0.930 . S
C330 C331 1.351 . S
C330 N333 1.368 . S
C330 H335 0.931 . S
C331 C330 1.351 . S
C331 N332 1.373 . S
C331 H359 0.930 . S
N332 C331 1.373 . S
N332 C334 1.340 . S
N333 C330 1.368 . S
N333 C334 1.321 . S
N333 Co336 2.135 . S
C334 N332 1.340 . S
C334 N333 1.321 . S
C334 H358 0.930 . S
H335 C330 0.931 . S
Co336 N333 2.135 . S
Co336 N339 2.121 . S
Co336 O344 2.055 . S
Co336 O347 2.039 . S
Co336 N350 2.140 . S
C337 O338 1.227 . S
C337 O347 1.265 . S
O338 C337 1.227 . S
N339 Co336 2.121 . S
N339 C341 1.375 . S
N339 C342 1.313 . S
C340 C341 1.338 . S
C340 N343 1.377 . S
C340 H360 0.930 . S
C341 N339 1.375 . S
C341 C340 1.338 . S
C341 H345 0.931 . S
C342 N339 1.313 . S
C342 N343 1.344 . S
C342 H346 0.930 . S
N343 C340 1.377 . S
N343 C342 1.344 . S
O344 Co336 2.055 . S
O344 C348 1.253 . S
H345 C341 0.931 . S
H346 C342 0.930 . S
O347 Co336 2.039 . S
O347 C337 1.265 . S
C348 O344 1.253 . S
C348 O349 1.227 . S
O349 C348 1.227 . S
N350 Co336 2.140 . S
N350 C353 1.346 . S
N350 C354 1.345 . S
C351 C352 1.387 . S
C351 C355 1.391 . S
C352 C351 1.387 . S
C352 C353 1.369 . S
C352 H361 0.929 . S
C353 N350 1.346 . S
C353 C352 1.369 . S
C353 H356 0.928 . S
C354 N350 1.345 . S
C354 C355 1.371 . S
C354 H357 0.931 . S
C355 C351 1.391 . S
C355 C354 1.371 . S
C355 H362 0.930 . S
H356 C353 0.928 . S
H357 C354 0.931 . S
H358 C334 0.930 . S
H359 C331 0.930 . S
H360 C340 0.930 . S
H361 C352 0.929 . S
H362 C355 0.930 . S
C363 C364 1.351 . S
C363 N366 1.368 . S
C363 H368 0.931 . S
C364 C363 1.351 . S
C364 N365 1.373 . S
C364 H392 0.930 . S
N365 C364 1.373 . S
N365 C367 1.340 . S
N366 C363 1.368 . S
N366 C367 1.321 . S
N366 Co369 2.135 . S
C367 N365 1.340 . S
C367 N366 1.321 . S
C367 H391 0.930 . S
H368 C363 0.931 . S
Co369 N366 2.135 . S
Co369 N372 2.121 . S
Co369 O377 2.055 . S
Co369 O380 2.039 . S
Co369 N383 2.140 . S
C370 O371 1.227 . S
C370 O380 1.265 . S
O371 C370 1.227 . S
N372 Co369 2.121 . S
N372 C374 1.375 . S
N372 C375 1.313 . S
C373 C374 1.338 . S
C373 N376 1.377 . S
C373 H393 0.930 . S
C374 N372 1.375 . S
C374 C373 1.338 . S
C374 H378 0.931 . S
C375 N372 1.313 . S
C375 N376 1.344 . S
C375 H379 0.930 . S
N376 C373 1.377 . S
N376 C375 1.344 . S
O377 Co369 2.055 . S
O377 C381 1.253 . S
H378 C374 0.931 . S
H379 C375 0.930 . S
O380 Co369 2.039 . S
O380 C370 1.265 . S
C381 O377 1.253 . S
C381 O382 1.227 . S
O382 C381 1.227 . S
N383 Co369 2.140 . S
N383 C386 1.346 . S
N383 C387 1.345 . S
C384 C385 1.387 . S
C384 C388 1.391 . S
C385 C384 1.387 . S
C385 C386 1.369 . S
C385 H394 0.929 . S
C386 N383 1.346 . S
C386 C385 1.369 . S
C386 H389 0.928 . S
C387 N383 1.345 . S
C387 C388 1.371 . S
C387 H390 0.931 . S
C388 C384 1.391 . S
C388 C387 1.371 . S
C388 H395 0.930 . S
H389 C386 0.928 . S
H390 C387 0.931 . S
H391 C367 0.930 . S
H392 C364 0.930 . S
H393 C373 0.930 . S
H394 C385 0.929 . S
H395 C388 0.930 . S
C396 C397 1.369 . S
C396 C398 1.419 . S
C396 H400 0.930 . S
C397 C396 1.369 . S
C397 C406 1.429 . S
C398 C396 1.419 . S
C398 C399 1.363 . S
C398 H401 0.929 . S
C399 C398 1.363 . S
C399 C405 1.428 . S
H400 C396 0.930 . S
H401 C398 0.929 . S
S402 N403 1.613 . S
S402 N404 1.610 . S
N403 S402 1.613 . S
N403 C406 1.350 . S
N404 S402 1.610 . S
N404 C405 1.351 . S
C405 C399 1.428 . S
C405 N404 1.351 . S
C405 C406 1.434 . S
C406 C397 1.429 . S
C406 N403 1.350 . S
C406 C405 1.434 . S
C407 C408 1.369 . S
C407 C409 1.419 . S
C407 H411 0.930 . S
C408 C407 1.369 . S
C408 C417 1.429 . S
C409 C407 1.419 . S
C409 C410 1.363 . S
C409 H412 0.929 . S
C410 C409 1.363 . S
C410 C416 1.428 . S
H411 C407 0.930 . S
H412 C409 0.929 . S
S413 N414 1.613 . S
S413 N415 1.610 . S
N414 S413 1.613 . S
N414 C417 1.350 . S
N415 S413 1.610 . S
N415 C416 1.351 . S
C416 C410 1.428 . S
C416 N415 1.351 . S
C416 C417 1.434 . S
C417 C408 1.429 . S
C417 N414 1.350 . S
C417 C416 1.434 . S
C418 C419 1.369 . S
C418 C420 1.419 . S
C418 H422 0.930 . S
C419 C418 1.369 . S
C419 C428 1.429 . S
C420 C418 1.419 . S
C420 C421 1.363 . S
C420 H423 0.929 . S
C421 C420 1.363 . S
C421 C427 1.428 . S
H422 C418 0.930 . S
H423 C420 0.929 . S
S424 N425 1.613 . S
S424 N426 1.610 . S
N425 S424 1.613 . S
N425 C428 1.350 . S
N426 S424 1.610 . S
N426 C427 1.351 . S
C427 C421 1.428 . S
C427 N426 1.351 . S
C427 C428 1.434 . S
C428 C419 1.429 . S
C428 N425 1.350 . S
C428 C427 1.434 . S
C429 C430 1.369 . S
C429 C431 1.419 . S
C429 H433 0.930 . S
C430 C429 1.369 . S
C430 C439 1.429 . S
C431 C429 1.419 . S
C431 C432 1.363 . S
C431 H434 0.929 . S
C432 C431 1.363 . S
C432 C438 1.428 . S
H433 C429 0.930 . S
H434 C431 0.929 . S
S435 N436 1.613 . S
S435 N437 1.610 . S
N436 S435 1.613 . S
N436 C439 1.350 . S
N437 S435 1.610 . S
N437 C438 1.351 . S
C438 C432 1.428 . S
C438 N437 1.351 . S
C438 C439 1.434 . S
C439 C430 1.429 . S
C439 N436 1.350 . S
C439 C438 1.434 . S
C440 C441 1.369 . S
C440 C442 1.419 . S
C440 H444 0.930 . S
C441 C440 1.369 . S
C441 C450 1.429 . S
C442 C440 1.419 . S
C442 C443 1.363 . S
C442 H445 0.929 . S
C443 C442 1.363 . S
C443 C449 1.428 . S
H444 C440 0.930 . S
H445 C442 0.929 . S
S446 N447 1.613 . S
S446 N448 1.610 . S
N447 S446 1.613 . S
N447 C450 1.350 . S
N448 S446 1.610 . S
N448 C449 1.351 . S
C449 C443 1.428 . S
C449 N448 1.351 . S
C449 C450 1.434 . S
C450 C441 1.429 . S
C450 N447 1.350 . S
C450 C449 1.434 . S
C451 C452 1.369 . S
C451 C453 1.419 . S
C451 H455 0.930 . S
C452 C451 1.369 . S
C452 C461 1.429 . S
C453 C451 1.419 . S
C453 C454 1.363 . S
C453 H456 0.929 . S
C454 C453 1.363 . S
C454 C460 1.428 . S
H455 C451 0.930 . S
H456 C453 0.929 . S
S457 N458 1.613 . S
S457 N459 1.610 . S
N458 S457 1.613 . S
N458 C461 1.350 . S
N459 S457 1.610 . S
N459 C460 1.351 . S
C460 C454 1.428 . S
C460 N459 1.351 . S
C460 C461 1.434 . S
C461 C452 1.429 . S
C461 N458 1.350 . S
C461 C460 1.434 . S
C462 C463 1.369 . S
C462 C464 1.419 . S
C462 H466 0.930 . S
C463 C462 1.369 . S
C463 C472 1.429 . S
C464 C462 1.419 . S
C464 C465 1.363 . S
C464 H467 0.929 . S
C465 C464 1.363 . S
C465 C471 1.428 . S
H466 C462 0.930 . S
H467 C464 0.929 . S
S468 N469 1.613 . S
S468 N470 1.610 . S
N469 S468 1.613 . S
N469 C472 1.350 . S
N470 S468 1.610 . S
N470 C471 1.351 . S
C471 C465 1.428 . S
C471 N470 1.351 . S
C471 C472 1.434 . S
C472 C463 1.429 . S
C472 N469 1.350 . S
C472 C471 1.434 . S
C473 C474 1.369 . S
C473 C475 1.419 . S
C473 H477 0.930 . S
C474 C473 1.369 . S
C474 C483 1.429 . S
C475 C473 1.419 . S
C475 C476 1.363 . S
C475 H478 0.929 . S
C476 C475 1.363 . S
C476 C482 1.428 . S
H477 C473 0.930 . S
H478 C475 0.929 . S
S479 N480 1.613 . S
S479 N481 1.610 . S
N480 S479 1.613 . S
N480 C483 1.350 . S
N481 S479 1.610 . S
N481 C482 1.351 . S
C482 C476 1.428 . S
C482 N481 1.351 . S
C482 C483 1.434 . S
C483 C474 1.429 . S
C483 N480 1.350 . S
C483 C482 1.434 . S
C484 C485 1.369 . S
C484 C486 1.419 . S
C484 H488 0.930 . S
C485 C484 1.369 . S
C485 C494 1.429 . S
C486 C484 1.419 . S
C486 C487 1.363 . S
C486 H489 0.929 . S
C487 C486 1.363 . S
C487 C493 1.428 . S
H488 C484 0.930 . S
H489 C486 0.929 . S
S490 N491 1.613 . S
S490 N492 1.610 . S
N491 S490 1.613 . S
N491 C494 1.350 . S
N492 S490 1.610 . S
N492 C493 1.351 . S
C493 C487 1.428 . S
C493 N492 1.351 . S
C493 C494 1.434 . S
C494 C485 1.429 . S
C494 N491 1.350 . S
C494 C493 1.434 . S
C495 C496 1.369 . S
C495 C497 1.419 . S
C495 H499 0.930 . S
C496 C495 1.369 . S
C496 C505 1.429 . S
C497 C495 1.419 . S
C497 C498 1.363 . S
C497 H500 0.929 . S
C498 C497 1.363 . S
C498 C504 1.428 . S
H499 C495 0.930 . S
H500 C497 0.929 . S
S501 N502 1.613 . S
S501 N503 1.610 . S
N502 S501 1.613 . S
N502 C505 1.350 . S
N503 S501 1.610 . S
N503 C504 1.351 . S
C504 C498 1.428 . S
C504 N503 1.351 . S
C504 C505 1.434 . S
C505 C496 1.429 . S
C505 N502 1.350 . S
C505 C504 1.434 . S
C506 C507 1.369 . S
C506 C508 1.419 . S
C506 H510 0.930 . S
C507 C506 1.369 . S
C507 C516 1.429 . S
C508 C506 1.419 . S
C508 C509 1.363 . S
C508 H511 0.929 . S
C509 C508 1.363 . S
C509 C515 1.428 . S
H510 C506 0.930 . S
H511 C508 0.929 . S
S512 N513 1.613 . S
S512 N514 1.610 . S
N513 S512 1.613 . S
N513 C516 1.350 . S
N514 S512 1.610 . S
N514 C515 1.351 . S
C515 C509 1.428 . S
C515 N514 1.351 . S
C515 C516 1.434 . S
C516 C507 1.429 . S
C516 N513 1.350 . S
C516 C515 1.434 . S
C517 C518 1.369 . S
C517 C519 1.419 . S
C517 H521 0.930 . S
C518 C517 1.369 . S
C518 C527 1.429 . S
C519 C517 1.419 . S
C519 C520 1.363 . S
C519 H522 0.929 . S
C520 C519 1.363 . S
C520 C526 1.428 . S
H521 C517 0.930 . S
H522 C519 0.929 . S
S523 N524 1.613 1_554 S
S523 N525 1.610 1_554 S
N524 S523 1.613 1_556 S
N524 C527 1.350 . S
N525 S523 1.610 1_556 S
N525 C526 1.351 . S
C526 C520 1.428 . S
C526 N525 1.351 . S
C526 C527 1.434 . S
C527 C518 1.429 . S
C527 N524 1.350 . S
C527 C526 1.434 . S
C528 C529 1.369 . S
C528 C530 1.419 . S
C528 H532 0.930 . S
C529 C528 1.369 . S
C529 C538 1.429 . S
C530 C528 1.419 . S
C530 C531 1.363 . S
C530 H533 0.929 . S
C531 C530 1.363 . S
C531 C537 1.428 . S
H532 C528 0.930 . S
H533 C530 0.929 . S
S534 N535 1.613 . S
S534 N536 1.610 . S
N535 S534 1.613 . S
N535 C538 1.350 . S
N536 S534 1.610 . S
N536 C537 1.351 . S
C537 C531 1.428 . S
C537 N536 1.351 . S
C537 C538 1.434 . S
C538 C529 1.429 . S
C538 N535 1.350 . S
C538 C537 1.434 . S
C539 C540 1.369 . S
C539 C541 1.419 . S
C539 H543 0.930 . S
C540 C539 1.369 . S
C540 C549 1.429 . S
C541 C539 1.419 . S
C541 C542 1.363 . S
C541 H544 0.929 . S
C542 C541 1.363 . S
C542 C548 1.428 . S
H543 C539 0.930 . S
H544 C541 0.929 . S
S545 N546 1.613 . S
S545 N547 1.610 . S
N546 S545 1.613 . S
N546 C549 1.350 . S
N547 S545 1.610 . S
N547 C548 1.351 . S
C548 C542 1.428 . S
C548 N547 1.351 . S
C548 C549 1.434 . S
C549 C540 1.429 . S
C549 N546 1.350 . S
C549 C548 1.434 . S
C550 C551 1.369 . S
C550 C552 1.419 . S
C550 H554 0.930 . S
C551 C550 1.369 . S
C551 C560 1.429 . S
C552 C550 1.419 . S
C552 C553 1.363 . S
C552 H555 0.929 . S
C553 C552 1.363 . S
C553 C559 1.428 . S
H554 C550 0.930 . S
H555 C552 0.929 . S
S556 N557 1.613 . S
S556 N558 1.610 . S
N557 S556 1.613 . S
N557 C560 1.350 . S
N558 S556 1.610 . S
N558 C559 1.351 . S
C559 C553 1.428 . S
C559 N558 1.351 . S
C559 C560 1.434 . S
C560 C551 1.429 . S
C560 N557 1.350 . S
C560 C559 1.434 . S
C561 C562 1.369 . S
C561 C563 1.419 . S
C561 H565 0.930 . S
C562 C561 1.369 . S
C562 C571 1.429 . S
C563 C561 1.419 . S
C563 C564 1.363 . S
C563 H566 0.929 . S
C564 C563 1.363 . S
C564 C570 1.428 . S
H565 C561 0.930 . S
H566 C563 0.929 . S
S567 N568 1.613 . S
S567 N569 1.610 . S
N568 S567 1.613 . S
N568 C571 1.350 . S
N569 S567 1.610 . S
N569 C570 1.351 . S
C570 C564 1.428 . S
C570 N569 1.351 . S
C570 C571 1.434 . S
C571 C562 1.429 . S
C571 N568 1.350 . S
C571 C570 1.434 . S
C572 C573 1.369 . S
C572 C574 1.419 . S
C572 H576 0.930 . S
C573 C572 1.369 . S
C573 C582 1.429 . S
C574 C572 1.419 . S
C574 C575 1.363 . S
C574 H577 0.929 . S
C575 C574 1.363 . S
C575 C581 1.428 . S
H576 C572 0.930 . S
H577 C574 0.929 . S
S578 N579 1.613 . S
S578 N580 1.610 . S
N579 S578 1.613 . S
N579 C582 1.350 . S
N580 S578 1.610 . S
N580 C581 1.351 . S
C581 C575 1.428 . S
C581 N580 1.351 . S
C581 C582 1.434 . S
C582 C573 1.429 . S
C582 N579 1.350 . S
C582 C581 1.434 . S
C583 C584 1.369 . S
C583 C585 1.419 . S
C583 H587 0.930 . S
C584 C583 1.369 . S
C584 C593 1.429 . S
C585 C583 1.419 . S
C585 C586 1.363 . S
C585 H588 0.929 . S
C586 C585 1.363 . S
C586 C592 1.428 . S
H587 C583 0.930 . S
H588 C585 0.929 . S
S589 N590 1.613 . S
S589 N591 1.610 . S
N590 S589 1.613 . S
N590 C593 1.350 . S
N591 S589 1.610 . S
N591 C592 1.351 . S
C592 C586 1.428 . S
C592 N591 1.351 . S
C592 C593 1.434 . S
C593 C584 1.429 . S
C593 N590 1.350 . S
C593 C592 1.434 . S
C594 C595 1.369 1_554 S
C594 C596 1.419 1_565 S
C594 H598 0.930 . S
C595 C594 1.369 1_556 S
C595 C604 1.429 . S
C596 C594 1.419 1_545 S
C596 C597 1.363 . S
C596 H599 0.929 . S
C597 C596 1.363 . S
C597 C603 1.428 1_554 S
H598 C594 0.930 . S
H599 C596 0.929 . S
S600 N601 1.613 1_545 S
S600 N602 1.610 . S
N601 S600 1.613 1_565 S
N601 C604 1.350 . S
N602 S600 1.610 . S
N602 C603 1.351 . S
C603 C597 1.428 1_556 S
C603 N602 1.351 . S
C603 C604 1.434 1_545 S
C604 C595 1.429 . S
C604 N601 1.350 . S
C604 C603 1.434 1_565 S
C605 C606 1.369 . S
C605 C607 1.419 . S
C605 H609 0.930 . S
C606 C605 1.369 . S
C606 C615 1.429 . S
C607 C605 1.419 . S
C607 C608 1.363 . S
C607 H610 0.929 . S
C608 C607 1.363 . S
C608 C614 1.428 . S
H609 C605 0.930 . S
H610 C607 0.929 . S
S611 N612 1.613 . S
S611 N613 1.610 . S
N612 S611 1.613 . S
N612 C615 1.350 . S
N613 S611 1.610 . S
N613 C614 1.351 . S
C614 C608 1.428 . S
C614 N613 1.351 . S
C614 C615 1.434 . S
C615 C606 1.429 . S
C615 N612 1.350 . S
C615 C614 1.434 . S
C616 C617 1.369 . S
C616 C618 1.419 1_654 S
C616 H620 0.930 . S
C617 C616 1.369 . S
C617 C626 1.429 . S
C618 C616 1.419 1_456 S
C618 C619 1.363 . S
C618 H621 0.929 . S
C619 C618 1.363 . S
C619 C625 1.428 . S
H620 C616 0.930 . S
H621 C618 0.929 . S
S622 N623 1.617 . S
S622 N624 1.607 1_654 S
N623 S622 1.617 . S
N623 C626 1.350 . S
N624 S622 1.607 1_456 S
N624 C625 1.351 . S
C625 C619 1.428 . S
C625 N624 1.351 . S
C625 C626 1.434 1_456 S
C626 C617 1.429 . S
C626 N623 1.350 . S
C626 C625 1.434 1_654 S
C627 C628 1.369 . S
C627 C629 1.419 1_565 S
C627 H631 0.930 . S
C628 C627 1.369 . S
C628 C637 1.429 . S
C629 C627 1.419 1_545 S
C629 C630 1.363 . S
C629 H632 0.929 . S
C630 C629 1.363 . S
C630 C636 1.428 . S
H631 C627 0.930 . S
H632 C629 0.929 . S
S633 N634 1.613 . S
S633 N635 1.610 1_565 S
N634 S633 1.613 . S
N634 C637 1.350 . S
N635 S633 1.610 1_545 S
N635 C636 1.351 . S
C636 C630 1.428 . S
C636 N635 1.351 . S
C636 C637 1.434 1_545 S
C637 C628 1.429 . S
C637 N634 1.350 . S
C637 C636 1.434 1_565 S
C638 C639 1.369 . S
C638 C640 1.419 . S
C638 H642 0.930 . S
C639 C638 1.369 . S
C639 C648 1.429 1_554 S
C640 C638 1.419 . S
C640 C641 1.363 1_554 S
C640 H643 0.929 . S
C641 C640 1.363 1_556 S
C641 C647 1.428 . S
H642 C638 0.930 . S
H643 C640 0.929 . S
S644 N645 1.613 . S
S644 N646 1.610 . S
N645 S644 1.613 . S
N645 C648 1.350 . S
N646 S644 1.610 . S
N646 C647 1.351 . S
C647 C641 1.428 . S
C647 N646 1.351 . S
C647 C648 1.434 . S
C648 C639 1.429 1_556 S
C648 N645 1.350 . S
C648 C647 1.434 . S
C649 C650 1.369 . S
C649 C651 1.419 1_655 S
C649 H653 0.930 . S
C650 C649 1.369 . S
C650 C659 1.429 . S
C651 C649 1.419 1_455 S
C651 C652 1.363 . S
C651 H654 0.929 . S
C652 C651 1.363 . S
C652 C658 1.428 . S
H653 C649 0.930 . S
H654 C651 0.929 . S
S655 N656 1.613 1_455 S
S655 N657 1.610 . S
N656 S655 1.613 1_655 S
N656 C659 1.350 . S
N657 S655 1.610 . S
N657 C658 1.351 . S
C658 C652 1.428 . S
C658 N657 1.351 . S
C658 C659 1.434 1_455 S
C659 C650 1.429 . S
C659 N656 1.350 . S
C659 C658 1.434 1_655 S
C660 C661 1.369 . S
C660 C662 1.419 1_544 S
C660 H664 0.930 . S
C661 C660 1.369 . S
C661 C670 1.429 . S
C662 C660 1.419 1_566 S
C662 C663 1.363 . S
C662 H665 0.929 . S
C663 C662 1.363 . S
C663 C669 1.428 . S
H664 C660 0.930 . S
H665 C662 0.929 . S
S666 N667 1.613 1_565 S
S666 N668 1.610 1_554 S
N667 S666 1.613 1_545 S
N667 C670 1.350 . S
N668 S666 1.610 1_556 S
N668 C669 1.351 . S
C669 C663 1.428 . S
C669 N668 1.351 . S
C669 C670 1.434 1_566 S
C670 C661 1.429 . S
C670 N667 1.350 . S
C670 C669 1.434 1_544 S
C671 C672 1.369 . S
C671 C673 1.419 . S
C671 H675 0.930 . S
C672 C671 1.369 . S
C672 C681 1.429 . S
C673 C671 1.419 . S
C673 C674 1.363 . S
C673 H676 0.929 . S
C674 C673 1.363 . S
C674 C680 1.428 . S
H675 C671 0.930 . S
H676 C673 0.929 . S
S677 N678 1.613 . S
S677 N679 1.610 . S
N678 S677 1.613 . S
N678 C681 1.350 . S
N679 S677 1.610 . S
N679 C680 1.351 . S
C680 C674 1.428 . S
C680 N679 1.351 . S
C680 C681 1.434 . S
C681 C672 1.429 . S
C681 N678 1.350 . S
C681 C680 1.434 . S
C682 C683 1.369 . S
C682 C684 1.419 1_654 S
C682 H686 0.930 . S
C683 C682 1.369 . S
C683 C692 1.429 . S
C684 C682 1.419 1_456 S
C684 C685 1.363 . S
C684 H687 0.929 . S
C685 C684 1.363 . S
C685 C691 1.428 . S
H686 C682 0.930 . S
H687 C684 0.929 . S
S688 N689 1.613 1_556 S
S688 N690 1.610 1_655 S
N689 S688 1.613 1_554 S
N689 C692 1.350 . S
N690 S688 1.610 1_455 S
N690 C691 1.351 . S
C691 C685 1.428 . S
C691 N690 1.351 . S
C691 C692 1.434 1_456 S
C692 C683 1.429 . S
C692 N689 1.350 . S
C692 C691 1.434 1_654 S
C693 C694 1.369 1_545 S
C693 C695 1.419 . S
C693 H697 0.930 . S
C694 C693 1.369 1_565 S
C694 C703 1.429 . S
C695 C693 1.419 . S
C695 C696 1.363 . S
C695 H698 0.929 . S
C696 C695 1.363 . S
C696 C702 1.428 1_545 S
H697 C693 0.930 . S
H698 C695 0.929 . S
S699 N700 1.613 . S
S699 N701 1.610 . S
N700 S699 1.613 . S
N700 C703 1.350 . S
N701 S699 1.610 . S
N701 C702 1.351 . S
C702 C696 1.428 1_565 S
C702 N701 1.351 . S
C702 C703 1.434 . S
C703 C694 1.429 . S
C703 N700 1.350 . S
C703 C702 1.434 . S
C704 C705 1.369 . S
C704 C706 1.419 . S
C704 H708 0.930 . S
C705 C704 1.369 . S
C705 C714 1.429 1_556 S
C706 C704 1.419 . S
C706 C707 1.363 1_556 S
C706 H709 0.929 . S
C707 C706 1.363 1_554 S
C707 C713 1.428 . S
H708 C704 0.930 . S
H709 C706 0.929 . S
S710 N711 1.613 . S
S710 N712 1.610 . S
N711 S710 1.613 . S
N711 C714 1.350 . S
N712 S710 1.610 . S
N712 C713 1.351 . S
C713 C707 1.428 . S
C713 N712 1.351 . S
C713 C714 1.434 . S
C714 C705 1.429 1_554 S
C714 N711 1.350 . S
C714 C713 1.434 . S
C715 C716 1.369 . S
C715 C717 1.423 . S
C715 H719 0.930 . S
C716 C715 1.369 . S
C716 C725 1.429 1_455 S
C717 C715 1.423 . S
C717 C718 1.359 1_455 S
C717 H720 0.928 . S
C718 C717 1.359 1_655 S
C718 C724 1.428 . S
H719 C715 0.930 . S
H720 C717 0.928 . S
S721 N722 1.613 . S
S721 N723 1.610 . S
N722 S721 1.613 . S
N722 C725 1.350 . S
N723 S721 1.610 . S
N723 C724 1.351 . S
C724 C718 1.428 . S
C724 N723 1.351 . S
C724 C725 1.434 . S
C725 C716 1.429 1_655 S
C725 N722 1.350 . S
C725 C724 1.434 . S
C397 C84 1.574 . S
C399 N13 1.610 . S
C408 N46 1.686 . S
C410 C117 1.651 . S
C419 N79 1.612 . S
C421 C150 1.572 . S
C430 N112 1.678 . S
C432 C183 1.657 . S
C441 N145 1.613 . S
C443 C18 1.571 . S
C452 C51 1.653 . S
C454 N178 1.682 . S
C463 N200 1.666 . S
C465 C337 1.656 . S
C474 N244 1.664 . S
C476 C381 1.633 . S
C485 C205 1.655 . S
C487 N266 1.665 . S
C496 C249 1.634 . S
C498 N310 1.663 . S
C507 C271 1.654 . S
C509 N332 1.666 . S
C518 C315 1.636 . S
C520 N376 1.662 . S
C529 C285 1.498 . S
C531 C21 1.476 . S
C540 C54 1.479 . S
C542 C318 1.485 . S
C551 C351 1.501 . S
C553 C87 1.478 . S
C562 C384 1.487 . S
C564 C120 1.483 . S
C573 C153 1.476 . S
C575 C219 1.499 . S
C584 C252 1.489 . S
C586 C186 1.483 . S
C595 C238 1.487 . S
C597 C7 1.491 . S
C606 C40 1.571 . S
C608 C282 1.566 . S
C617 C73 1.488 . S
C619 C304 1.490 . S
C628 C106 1.572 . S
C630 C348 1.565 . S
C639 C139 1.492 . S
C641 C370 1.487 . S
C650 C216 1.565 . S
C652 C172 1.571 . S
C661 N68 1.351 . S
C663 N365 1.344 . S
C672 N211 1.463 . S
C674 N101 1.436 . S
C683 N134 1.350 . S
C685 N233 1.344 . S
C694 N167 1.433 . S
C696 N277 1.460 . S
C705 N299 1.346 . S
C707 N2 1.357 . S
C716 N35 1.441 . S
C718 N343 1.460 . S
