# Generated by pormake.
# Topology xfi, (7)-cn, num edge types: 1
# Building blocks:
#     Node 0, Type 0, BuildingBlock: HICVOG_clean_sbu_0, # of connection points: 7
#     Node 1, Type 0, BuildingBlock: HICVOG_clean_sbu_0, # of connection points: 7
#     Node 2, Type 0, BuildingBlock: HICVOG_clean_sbu_0, # of connection points: 7
#     Node 3, Type 0, BuildingBlock: HICVOG_clean_sbu_0, # of connection points: 7
#     Node 4, Type 0, BuildingBlock: HICVOG_clean_sbu_0, # of connection points: 7
#     Node 5, Type 0, BuildingBlock: HICVOG_clean_sbu_0, # of connection points: 7
#     Node 6, Type 0, BuildingBlock: HICVOG_clean_sbu_0, # of connection points: 7
#     Node 7, Type 0, BuildingBlock: HICVOG_clean_sbu_0, # of connection points: 7
#     Node 8, Type 0, BuildingBlock: HICVOG_clean_sbu_0, # of connection points: 7
#     Node 9, Type 0, BuildingBlock: HICVOG_clean_sbu_0, # of connection points: 7
#     Node 10, Type 0, BuildingBlock: HICVOG_clean_sbu_0, # of connection points: 7
#     Node 11, Type 0, BuildingBlock: HICVOG_clean_sbu_0, # of connection points: 7
#     Node 12, Type 0, BuildingBlock: HICVOG_clean_sbu_0, # of connection points: 7
#     Node 13, Type 0, BuildingBlock: HICVOG_clean_sbu_0, # of connection points: 7
#     Node 14, Type 0, BuildingBlock: HICVOG_clean_sbu_0, # of connection points: 7
#     Node 15, Type 0, BuildingBlock: HICVOG_clean_sbu_0, # of connection points: 7
#     Edge 16, Type (0, 0), BuildingBlock: AJUNOK_clean_linker_0, # of connection points: 2
#     Edge 17, Type (0, 0), BuildingBlock: AJUNOK_clean_linker_0, # of connection points: 2
#     Edge 18, Type (0, 0), BuildingBlock: AJUNOK_clean_linker_0, # of connection points: 2
#     Edge 19, Type (0, 0), BuildingBlock: AJUNOK_clean_linker_0, # of connection points: 2
#     Edge 20, Type (0, 0), BuildingBlock: AJUNOK_clean_linker_0, # of connection points: 2
#     Edge 21, Type (0, 0), BuildingBlock: AJUNOK_clean_linker_0, # of connection points: 2
#     Edge 22, Type (0, 0), BuildingBlock: AJUNOK_clean_linker_0, # of connection points: 2
#     Edge 23, Type (0, 0), BuildingBlock: AJUNOK_clean_linker_0, # of connection points: 2
#     Edge 24, Type (0, 0), BuildingBlock: AJUNOK_clean_linker_0, # of connection points: 2
#     Edge 25, Type (0, 0), BuildingBlock: AJUNOK_clean_linker_0, # of connection points: 2
#     Edge 26, Type (0, 0), BuildingBlock: AJUNOK_clean_linker_0, # of connection points: 2
#     Edge 27, Type (0, 0), BuildingBlock: AJUNOK_clean_linker_0, # of connection points: 2
#     Edge 28, Type (0, 0), BuildingBlock: AJUNOK_clean_linker_0, # of connection points: 2
#     Edge 29, Type (0, 0), BuildingBlock: AJUNOK_clean_linker_0, # of connection points: 2
#     Edge 30, Type (0, 0), BuildingBlock: AJUNOK_clean_linker_0, # of connection points: 2
#     Edge 31, Type (0, 0), BuildingBlock: AJUNOK_clean_linker_0, # of connection points: 2
#     Edge 32, Type (0, 0), BuildingBlock: AJUNOK_clean_linker_0, # of connection points: 2
#     Edge 33, Type (0, 0), BuildingBlock: AJUNOK_clean_linker_0, # of connection points: 2
#     Edge 34, Type (0, 0), BuildingBlock: AJUNOK_clean_linker_0, # of connection points: 2
#     Edge 35, Type (0, 0), BuildingBlock: AJUNOK_clean_linker_0, # of connection points: 2
#     Edge 36, Type (0, 0), BuildingBlock: AJUNOK_clean_linker_0, # of connection points: 2
#     Edge 37, Type (0, 0), BuildingBlock: AJUNOK_clean_linker_0, # of connection points: 2
#     Edge 38, Type (0, 0), BuildingBlock: AJUNOK_clean_linker_0, # of connection points: 2
#     Edge 39, Type (0, 0), BuildingBlock: AJUNOK_clean_linker_0, # of connection points: 2
#     Edge 40, Type (0, 0), BuildingBlock: AJUNOK_clean_linker_0, # of connection points: 2
#     Edge 41, Type (0, 0), BuildingBlock: AJUNOK_clean_linker_0, # of connection points: 2
#     Edge 42, Type (0, 0), BuildingBlock: AJUNOK_clean_linker_0, # of connection points: 2
#     Edge 43, Type (0, 0), BuildingBlock: AJUNOK_clean_linker_0, # of connection points: 2
#     Edge 44, Type (0, 0), BuildingBlock: AJUNOK_clean_linker_0, # of connection points: 2
#     Edge 45, Type (0, 0), BuildingBlock: AJUNOK_clean_linker_0, # of connection points: 2
#     Edge 46, Type (0, 0), BuildingBlock: AJUNOK_clean_linker_0, # of connection points: 2
#     Edge 47, Type (0, 0), BuildingBlock: AJUNOK_clean_linker_0, # of connection points: 2
#     Edge 48, Type (0, 0), BuildingBlock: AJUNOK_clean_linker_0, # of connection points: 2
#     Edge 49, Type (0, 0), BuildingBlock: AJUNOK_clean_linker_0, # of connection points: 2
#     Edge 50, Type (0, 0), BuildingBlock: AJUNOK_clean_linker_0, # of connection points: 2
#     Edge 51, Type (0, 0), BuildingBlock: AJUNOK_clean_linker_0, # of connection points: 2
#     Edge 52, Type (0, 0), BuildingBlock: AJUNOK_clean_linker_0, # of connection points: 2
#     Edge 53, Type (0, 0), BuildingBlock: AJUNOK_clean_linker_0, # of connection points: 2
#     Edge 54, Type (0, 0), BuildingBlock: AJUNOK_clean_linker_0, # of connection points: 2
#     Edge 55, Type (0, 0), BuildingBlock: AJUNOK_clean_linker_0, # of connection points: 2
#     Edge 56, Type (0, 0), BuildingBlock: AJUNOK_clean_linker_0, # of connection points: 2
#     Edge 57, Type (0, 0), BuildingBlock: AJUNOK_clean_linker_0, # of connection points: 2
#     Edge 58, Type (0, 0), BuildingBlock: AJUNOK_clean_linker_0, # of connection points: 2
#     Edge 59, Type (0, 0), BuildingBlock: AJUNOK_clean_linker_0, # of connection points: 2
#     Edge 60, Type (0, 0), BuildingBlock: AJUNOK_clean_linker_0, # of connection points: 2
#     Edge 61, Type (0, 0), BuildingBlock: AJUNOK_clean_linker_0, # of connection points: 2
#     Edge 62, Type (0, 0), BuildingBlock: AJUNOK_clean_linker_0, # of connection points: 2
#     Edge 63, Type (0, 0), BuildingBlock: AJUNOK_clean_linker_0, # of connection points: 2
#     Edge 64, Type (0, 0), BuildingBlock: AJUNOK_clean_linker_0, # of connection points: 2
#     Edge 65, Type (0, 0), BuildingBlock: AJUNOK_clean_linker_0, # of connection points: 2
#     Edge 66, Type (0, 0), BuildingBlock: AJUNOK_clean_linker_0, # of connection points: 2
#     Edge 67, Type (0, 0), BuildingBlock: AJUNOK_clean_linker_0, # of connection points: 2
#     Edge 68, Type (0, 0), BuildingBlock: AJUNOK_clean_linker_0, # of connection points: 2
#     Edge 69, Type (0, 0), BuildingBlock: AJUNOK_clean_linker_0, # of connection points: 2
#     Edge 70, Type (0, 0), BuildingBlock: AJUNOK_clean_linker_0, # of connection points: 2
#     Edge 71, Type (0, 0), BuildingBlock: AJUNOK_clean_linker_0, # of connection points: 2
# Relax obj value: 0.171
# Max RMSD: 0.215
# Mean RMSD: 0.215
data_MOF--net-xfi--node1-HICVOG_clean_sbu_0--edge1-AJUNOK_clean_linker_0
_symmetry_space_group_name_H-M    P1
_symmetry_Int_Tables_number       1
_symmetry_cell_setting            triclinic
loop_
_symmetry_equiv_pos_as_xyz
'x, y, z'
_cell_length_a     49.508855
_cell_length_b     49.446564
_cell_length_c     13.899663
_cell_angle_alpha  90.020186
_cell_angle_beta   89.900314
_cell_angle_gamma 90.221879
loop_
_atom_site_label
_atom_site_type_symbol
_atom_site_fract_x
_atom_site_fract_y
_atom_site_fract_z
_atom_type_partial_charge
Zn0 Zn 0.35529 0.13828 0.05976 0.0
C1 C 0.30044 0.10051 0.2181 0.0
N2 N 0.28345 0.10806 0.14872 0.0
C3 C 0.30022 0.11696 0.07965 0.0
N4 N 0.32646 0.1149 0.10666 0.0
N5 N 0.32647 0.10434 0.19403 0.0
C6 C 0.36371 0.10889 0.45369 0.0
O7 O 0.37985 0.12602 0.40966 0.0
O8 O 0.35285 0.14154 0.9138 0.0
Zn9 Zn 0.35656 0.08674 0.25928 0.0
N10 N 0.35169 0.17179 0.13363 0.0
C11 C 0.35536 0.18665 0.29633 0.0
C12 C 0.35478 0.16601 0.2286 0.0
C13 C 0.34884 0.19792 0.10338 0.0
N14 N 0.353 0.21258 0.26667 0.0
C15 C 0.34976 0.21899 0.17229 0.0
O16 O 0.3934 0.10208 0.22431 0.0
C17 C 0.40623 0.11599 0.16187 0.0
O18 O 0.39396 0.1276 0.09275 0.0
H19 H 0.35736 0.14533 0.25134 0.0
H20 H 0.34673 0.20229 0.02747 0.0
C21 C 0.36974 0.02844 0.27022 0.0
C22 C 0.36554 1.00101 0.24535 0.0
C23 C 0.3323 1.01438 0.13251 0.0
C24 C 0.33658 0.04135 0.15653 0.0
N25 N 0.35484 0.04805 0.2258 0.0
N26 N 0.34672 0.99493 0.17751 0.0
H27 H 0.38422 0.03403 0.32504 0.0
C28 C 0.35149 0.11891 0.86996 0.0
O29 O 0.35146 0.0966 0.92125 0.0
O30 O 0.35196 0.09055 0.40451 0.0
H31 H 0.32513 0.05677 0.12027 0.0
H32 H 0.35795 0.18213 0.3719 0.0
H33 H 0.31759 1.00891 0.07835 0.0
Zn34 Zn 0.08744 0.69184 0.75412 0.0
C35 C 0.10033 0.74915 0.95054 0.0
N36 N 0.08522 0.76358 0.88967 0.0
C37 C 0.08424 0.74805 0.81084 0.0
N38 N 0.09684 0.72428 0.82591 0.0
N39 N 0.10809 0.72524 0.91228 0.0
C40 C 0.11794 0.69967 0.14788 0.0
O41 O 0.09654 0.6919 0.0993 0.0
O42 O 0.08785 0.69841 0.60914 0.0
Zn43 Zn 0.13765 0.70177 0.95508 0.0
N44 N 0.05157 0.68058 0.79927 0.0
C45 C 1.02561 0.6744 0.942 0.0
C46 C 0.04902 0.68312 0.89624 0.0
C47 C 0.03121 0.66949 0.74539 0.0
N48 N 1.0056 0.66304 0.88924 0.0
C49 C 1.00754 0.66014 0.79211 0.0
O50 O 0.13565 0.66191 0.91574 0.0
C51 C 0.12738 0.64904 0.84177 0.0
O52 O 0.11162 0.65994 0.78079 0.0
H53 H 0.06537 0.69147 0.93816 0.0
H54 H 0.03371 0.6672 0.66846 0.0
C55 C 0.19647 0.70859 0.91764 0.0
C56 C 0.21833 0.7164 0.85774 0.0
C57 C 0.18725 0.735 0.74637 0.0
C58 C 0.16593 0.72724 0.80515 0.0
N59 N 0.17066 0.71439 0.88985 0.0
N60 N 0.21279 0.7294 0.77385 0.0
H61 H 0.19976 0.69733 0.98324 0.0
C62 C 0.1097 0.70534 0.5671 0.0
O63 O 0.13143 0.70906 0.61943 0.0
O64 O 0.13966 0.70461 0.10157 0.0
H65 H 0.14565 0.73081 0.78163 0.0
H66 H 1.02346 0.67629 0.01918 0.0
H67 H 0.18355 0.74508 0.67862 0.0
Zn68 Zn 0.70705 0.912 0.04802 0.0
C69 C 0.75401 0.96391 0.19311 0.0
N70 N 0.77088 0.96013 0.11958 0.0
C71 C 0.75563 0.94648 0.05648 0.0
N72 N 0.73031 0.94192 0.09004 0.0
N73 N 0.72938 0.95318 0.17651 0.0
C74 C 0.70071 0.9396 0.43517 0.0
O75 O 0.69692 0.91765 0.38354 0.0
O76 O 0.70802 0.9108 0.90094 0.0
Zn77 Zn 0.69716 0.9644 0.24631 0.0
N78 N 0.72225 0.8792 0.10766 0.0
C79 C 0.7507 0.86252 0.23253 0.0
C80 C 0.74065 0.88384 0.17861 0.0
C81 C 0.71377 0.85343 0.08794 0.0
N82 N 0.74215 0.83708 0.21364 0.0
C83 C 0.72404 0.83167 0.14274 0.0
O84 O 0.66429 0.94263 0.21252 0.0
C85 C 0.65359 0.92514 0.15712 0.0
O86 O 0.6673 0.91335 0.09166 0.0
H87 H 0.74734 0.90399 0.19533 0.0
H88 H 0.69884 0.85002 0.03243 0.0
C89 C 0.67543 1.02009 0.25824 0.0
C90 C 0.66871 0.04512 0.21591 0.0
C91 C 0.69066 0.03166 0.07188 0.0
C92 C 0.69689 1.00685 0.11304 0.0
N93 N 0.68923 1.00137 0.20507 0.0
N94 N 0.6766 0.05005 0.12377 0.0
H95 H 0.66903 1.01525 0.33074 0.0
C96 C 0.70355 0.93268 0.85525 0.0
O97 O 0.69793 0.95458 0.90491 0.0
O98 O 0.70185 0.96239 0.39241 0.0
H99 H 0.70734 0.99183 0.07084 0.0
H100 H 0.76515 0.86617 0.28934 0.0
H101 H 0.69657 0.03614 0.99862 0.0
Zn102 Zn 0.96266 0.36518 0.75253 0.0
C103 C 0.95103 0.3044 0.9393 0.0
N104 N 0.9665 0.29151 0.87495 0.0
C105 C 0.96807 0.30912 0.80266 0.0
N106 N 0.95452 0.33205 0.82199 0.0
N107 N 0.94317 0.32916 0.90779 0.0
C108 C 0.9336 0.3522 0.14334 0.0
O109 O 0.95595 0.3548 0.09318 0.0
O110 O 0.96174 0.35924 0.60732 0.0
Zn111 Zn 0.91185 0.35032 0.9512 0.0
N112 N 0.99837 0.37695 0.79609 0.0
C113 C 1.02431 0.38381 0.93813 0.0
C114 C 1.00091 0.37482 0.89312 0.0
C115 C 1.01868 0.38783 0.74132 0.0
N116 N 0.04427 0.395 0.88448 0.0
C117 C 0.04231 0.39744 0.78722 0.0
O118 O 0.90988 0.39 0.90679 0.0
C119 C 0.91986 0.40485 0.84051 0.0
O120 O 0.93796 0.39595 0.78389 0.0
H121 H 0.98457 0.36656 0.93551 0.0
H122 H 1.01617 0.38973 0.66429 0.0
C123 C 0.8542 0.34208 0.9044 0.0
C124 C 0.83259 0.32898 0.85621 0.0
C125 C 0.86384 0.29815 0.78771 0.0
C126 C 0.88491 0.31091 0.83575 0.0
N127 N 0.87991 0.33253 0.89384 0.0
N128 N 0.83836 0.3074 0.79908 0.0
H129 H 0.85087 0.35992 0.94777 0.0
C130 C 0.93956 0.36149 0.5616 0.0
O131 O 0.91762 0.36778 0.60982 0.0
O132 O 0.91119 0.35035 0.09869 0.0
H133 H 0.90513 0.30353 0.82556 0.0
H134 H 1.02647 0.38225 0.01536 0.0
H135 H 0.86771 0.28095 0.7417 0.0
Zn136 Zn 0.3499 0.41386 0.20774 0.0
C137 C 0.30542 0.4693 0.06642 0.0
N138 N 0.29051 0.4693 0.14667 0.0
C139 C 0.30473 0.45385 0.20704 0.0
N140 N 0.32783 0.44471 0.16661 0.0
N141 N 0.32858 0.45552 0.07939 0.0
C142 C 0.3466 0.44277 0.82092 0.0
O143 O 0.34009 0.42181 0.87412 0.0
O144 O 0.34732 0.41191 0.3549 0.0
Zn145 Zn 0.36091 0.46554 0.00845 0.0
N146 N 0.33524 0.38154 0.14227 0.0
C147 C 0.31216 0.36612 1.00206 0.0
C148 C 0.32123 0.38699 0.06057 0.0
C149 C 0.34083 0.35541 0.16718 0.0
N150 N 0.31794 0.34029 0.02596 0.0
C151 C 0.33225 0.33397 0.1063 0.0
O152 O 0.39326 0.44256 0.04125 0.0
C153 C 0.40367 0.42549 0.09887 0.0
O154 O 0.38992 0.41492 0.1671 0.0
H155 H 0.31767 0.40746 0.03903 0.0
H156 H 0.35183 0.35164 0.23283 0.0
C157 C 0.37929 0.52341 0.9973 0.0
C158 C 0.38699 0.54775 0.04352 0.0
C159 C 0.37564 0.52831 0.19454 0.0
C160 C 0.36848 0.50431 0.14923 0.0
N161 N 0.37036 0.50212 0.05196 0.0
N162 N 0.38488 0.54926 0.141 0.0
H163 H 0.38117 0.52117 0.92013 0.0
C164 C 0.35371 0.43323 0.40145 0.0
O165 O 0.3628 0.45418 0.35291 0.0
O166 O 0.35533 0.46406 0.86248 0.0
H167 H 0.36184 0.48726 0.1917 0.0
H168 H 0.30107 0.37042 0.93686 0.0
H169 H 0.37427 0.53017 0.27194 0.0
Zn170 Zn 0.41189 0.70615 0.80074 0.0
C171 C 0.46402 0.75317 0.94047 0.0
N172 N 0.46135 0.76892 0.86304 0.0
C173 C 0.44802 0.75289 0.80171 0.0
N174 N 0.44254 0.72833 0.83982 0.0
N175 N 0.45274 0.72863 0.92774 0.0
C176 C 0.43966 0.71016 0.18842 0.0
O177 O 0.41757 0.71365 0.13769 0.0
O178 O 0.41037 0.70784 0.65319 0.0
Zn179 Zn 0.46396 0.69728 1.00002 0.0
N180 N 0.37988 0.7227 0.86219 0.0
C181 C 0.36421 0.75641 0.97162 0.0
C182 C 0.3848 0.74487 0.91778 0.0
C183 C 0.35444 0.71189 0.8576 0.0
N184 N 0.33907 0.74573 0.967 0.0
C185 C 0.33329 0.72378 0.91163 0.0
O186 O 0.44224 0.66365 0.96769 0.0
C187 C 0.4247 0.65292 0.91222 0.0
O188 O 0.41309 0.66661 0.8463 0.0
H189 H 0.40465 0.75355 0.92219 0.0
H190 H 0.35087 0.69412 0.81393 0.0
C191 C 0.52144 0.68046 0.02016 0.0
C192 C 0.54795 0.67795 0.98362 0.0
C193 C 0.53343 0.6959 0.8344 0.0
C194 C 0.50726 0.69804 0.86992 0.0
N195 N 0.50166 0.69076 0.96223 0.0
N196 N 0.55308 0.68588 0.89174 0.0
H197 H 0.51666 0.67437 0.09302 0.0
C198 C 0.43219 0.70246 0.60824 0.0
O199 O 0.45312 0.69442 0.65849 0.0
O200 O 0.46143 0.70389 0.14481 0.0
H201 H 0.49147 0.70555 0.82386 0.0
H202 H 0.36813 0.77383 0.01668 0.0
H203 H 0.53806 0.7019 0.76135 0.0
Zn204 Zn 0.70422 0.63822 0.21018 0.0
C205 C 0.74376 0.58279 0.05564 0.0
N206 N 0.76172 0.58351 0.12724 0.0
C207 C 0.74908 0.59794 0.19539 0.0
N208 N 0.72422 0.60618 0.16647 0.0
N209 N 0.7207 0.59542 0.08017 0.0
C210 C 0.68865 0.60962 0.81932 0.0
O211 O 0.68012 0.63111 0.86575 0.0
O212 O 0.70316 0.63848 0.35782 0.0
Zn213 Zn 0.68718 0.58771 0.0124 0.0
N214 N 0.72311 0.66974 0.15292 0.0
C215 C 0.75829 0.68429 0.04701 0.0
C216 C 0.74532 0.664 0.09864 0.0
C217 C 0.71347 0.69561 0.15737 0.0
N218 N 0.74864 0.70982 0.05099 0.0
C219 C 0.72654 0.71632 0.10434 0.0
O220 O 0.65661 0.61289 0.04419 0.0
C221 C 0.64902 0.63142 0.10153 0.0
O222 O 0.66486 0.6413 0.16482 0.0
H223 H 0.75294 0.64373 0.09349 0.0
H224 H 0.69557 0.69984 0.19947 0.0
C225 C 0.67205 0.52877 0.00965 0.0
C226 C 0.66304 0.50541 0.05938 0.0
C227 C 0.65982 0.53137 0.20312 0.0
C228 C 0.6689 0.55414 0.15435 0.0
N229 N 0.6749 0.55256 0.05916 0.0
N230 N 0.65714 0.50775 0.15478 0.0
H231 H 0.67706 0.52798 0.93391 0.0
C232 C 0.70243 0.61601 0.40287 0.0
O233 O 0.70201 0.59338 0.35339 0.0
O234 O 0.69289 0.58797 0.8667 0.0
H235 H 0.6712 0.57315 0.19201 0.0
H236 H 0.77586 0.67977 0.00357 0.0
H237 H 0.65497 0.5324 0.27894 0.0
Zn238 Zn 0.63746 0.34922 0.79585 0.0
C239 C 0.58197 0.30277 0.93269 0.0
N240 N 0.58266 0.28776 0.85283 0.0
C241 C 0.59853 0.30208 0.79357 0.0
N242 N 0.60717 0.32549 0.83418 0.0
N243 N 0.59567 0.32611 0.92027 0.0
C244 C 0.61225 0.34684 0.1852 0.0
O245 O 0.63448 0.35015 0.13486 0.0
O246 O 0.64062 0.34722 0.6495 0.0
Zn247 Zn 0.5892 0.35752 0.99967 0.0
N248 N 0.66975 0.3362 0.86498 0.0
C249 C 0.68407 0.31544 0.01103 0.0
C250 C 0.6637 0.32337 0.94891 0.0
C251 C 0.69605 0.34189 0.8417 0.0
N252 N 0.71001 0.32116 0.98844 0.0
C253 C 0.71688 0.3344 0.90617 0.0
O254 O 0.61591 0.38799 0.98043 0.0
C255 C 0.63036 0.39986 0.91727 0.0
O256 O 0.63538 0.38922 0.83555 0.0
H257 H 0.64313 0.31999 0.96978 0.0
H258 H 0.70058 0.35287 0.77627 0.0
C259 C 0.5324 0.37899 0.01361 0.0
C260 C 0.50951 0.3904 0.96826 0.0
C261 C 0.53146 0.38613 0.81682 0.0
C262 C 0.55401 0.37531 0.86156 0.0
N263 N 0.55425 0.3719 0.95852 0.0
N264 N 0.50998 0.39354 0.87097 0.0
H265 H 0.53314 0.37656 0.09093 0.0
C266 C 0.61846 0.34984 0.60391 0.0
O267 O 0.59645 0.35525 0.65297 0.0
O268 O 0.58961 0.34827 0.14206 0.0
H269 H 0.57152 0.36991 0.8194 0.0
H270 H 0.67928 0.30526 0.07785 0.0
H271 H 0.53113 0.38897 0.73966 0.0
Zn272 Zn 0.85326 0.641 0.55156 0.0
C273 C 0.79701 0.60103 0.69706 0.0
N274 N 0.78175 0.60839 0.62219 0.0
C275 C 0.79992 0.61745 0.5587 0.0
N276 N 0.82533 0.61599 0.59396 0.0
N277 N 0.82361 0.60524 0.68106 0.0
C278 C 0.83808 0.61237 0.94556 0.0
O279 O 0.82748 0.63246 0.89704 0.0
O280 O 0.84899 0.64461 0.40568 0.0
Zn281 Zn 0.85435 0.59084 0.75346 0.0
N282 N 0.84786 0.67386 0.62851 0.0
C283 C 0.85036 0.68721 0.79287 0.0
C284 C 0.8515 0.66738 0.72255 0.0
C285 C 0.84283 0.69998 0.60168 0.0
N286 N 0.84553 0.71304 0.76676 0.0
C287 C 0.84151 0.72041 0.67358 0.0
O288 O 0.89026 0.60895 0.72228 0.0
C289 C 0.9037 0.62169 0.65819 0.0
O290 O 0.89235 0.63133 0.58337 0.0
H291 H 0.8556 0.64677 0.74267 0.0
H292 H 0.83991 0.70461 0.52641 0.0
C293 C 0.86974 0.53253 0.76446 0.0
C294 C 0.87463 0.5074 0.71934 0.0
C295 C 0.85853 0.5253 0.57191 0.0
C296 C 0.85436 0.55017 0.6158 0.0
N297 N 0.85966 0.55342 0.71096 0.0
N298 N 0.86878 0.50468 0.62422 0.0
H299 H 0.87479 0.5357 0.83936 0.0
C300 C 0.85333 0.62236 0.36178 0.0
O301 O 0.8616 0.60164 0.41283 0.0
O302 O 0.84908 0.59295 0.8997 0.0
H303 H 0.84763 0.5671 0.57364 0.0
H304 H 0.85348 0.6822 0.86777 0.0
H305 H 0.85436 0.52258 0.49614 0.0
Zn306 Zn 0.58752 0.19132 0.24891 0.0
C307 C 0.61281 0.25076 0.42776 0.0
N308 N 0.60183 0.26653 0.35992 0.0
C309 C 0.59513 0.24883 0.29141 0.0
N310 N 0.60151 0.22326 0.31506 0.0
N311 N 0.61288 0.22436 0.40109 0.0
C312 C 0.6181 0.20057 0.63853 0.0
O313 O 0.59583 0.19941 0.58738 0.0
O314 O 0.58934 0.19672 0.10365 0.0
Zn315 Zn 0.63812 0.19732 0.44895 0.0
N316 N 0.55006 0.18588 0.29069 0.0
C317 C 0.51855 0.19269 0.41804 0.0
C318 C 0.54381 0.19721 0.37706 0.0
C319 C 0.53166 0.17013 0.24291 0.0
N320 N 0.50048 0.17673 0.37169 0.0
C321 C 0.50615 0.1652 0.28512 0.0
O322 O 0.63063 0.15765 0.41658 0.0
C323 C 0.62092 0.14483 0.34482 0.0
O324 O 0.60689 0.15673 0.28108 0.0
H325 H 0.55853 0.20928 0.41517 0.0
H326 H 0.5371 0.16089 0.175 0.0
C327 C 0.69728 0.20754 0.40999 0.0
C328 C 0.71878 0.20865 0.34274 0.0
C329 C 0.68757 0.2022 0.21553 0.0
C330 C 0.66653 0.20099 0.2816 0.0
N331 N 0.67156 0.20358 0.37727 0.0
N332 N 0.71312 0.20584 0.24753 0.0
H333 H 0.70102 0.20896 0.48652 0.0
C334 C 0.60888 0.1873 0.05432 0.0
O335 O 0.62771 0.1734 0.09842 0.0
O336 O 0.64075 0.20025 0.59472 0.0
H337 H 0.64619 0.19736 0.25702 0.0
H338 H 0.51346 0.2015 0.48695 0.0
H339 H 0.68368 0.19995 0.13937 0.0
Zn340 Zn 0.19751 0.41426 0.5512 0.0
C341 C 0.25201 0.45273 0.70829 0.0
N342 N 0.26904 0.44502 0.63906 0.0
C343 C 0.25237 0.43619 0.56975 0.0
N344 N 0.22609 0.43821 0.59701 0.0
N345 N 0.22599 0.44889 0.6843 0.0
C346 C 0.18837 0.44465 0.94624 0.0
O347 O 0.17257 0.42722 0.90226 0.0
O348 O 0.20007 0.41116 0.40515 0.0
Zn349 Zn 0.19523 0.46524 0.75092 0.0
N350 N 0.20169 0.38103 0.62623 0.0
C351 C 0.19878 0.36688 0.78995 0.0
C352 C 0.1989 0.3872 0.72109 0.0
C353 C 0.2046 0.35479 0.59721 0.0
N354 N 0.20122 0.34084 0.76155 0.0
C355 C 0.20411 0.33403 0.66732 0.0
O356 O 0.15915 0.44863 0.71751 0.0
C357 C 0.14631 0.43517 0.65415 0.0
O358 O 0.15845 0.42417 0.58334 0.0
H359 H 0.19616 0.40792 0.74297 0.0
H360 H 0.20636 0.35009 0.52142 0.0
C361 C 0.17996 0.52301 0.7588 0.0
C362 C 0.17772 0.54892 0.71682 0.0
C363 C 0.20268 0.53357 0.58156 0.0
C364 C 0.20439 0.50797 0.62214 0.0
N365 N 0.1932 0.50304 0.7098 0.0
N366 N 0.18923 0.55328 0.62917 0.0
H367 H 0.17047 0.51853 0.82719 0.0
C368 C 0.20108 0.43391 0.36198 0.0
O369 O 0.20078 0.45611 0.41391 0.0
O370 O 0.20005 0.46297 0.89663 0.0
H371 H 0.21403 0.49191 0.5827 0.0
H372 H 0.19642 0.37171 0.86542 0.0
H373 H 0.21147 0.53764 0.5117 0.0
Zn374 Zn 0.46567 0.86531 0.2502 0.0
C375 C 0.45972 0.80376 0.43556 0.0
N376 N 0.47514 0.79197 0.36842 0.0
C377 C 0.4742 0.80939 0.29528 0.0
N378 N 0.4594 0.83132 0.31745 0.0
N379 N 0.44924 0.82754 0.40457 0.0
C380 C 0.43794 0.85181 0.64191 0.0
O381 O 0.45976 0.8578 0.59234 0.0
O382 O 0.46529 0.86017 0.10471 0.0
Zn383 Zn 0.41659 0.84585 0.44934 0.0
N384 N 0.50068 0.87823 0.29466 0.0
C385 C 0.52356 0.89152 0.43744 0.0
C386 C 0.50066 0.88165 0.39159 0.0
C387 C 0.52305 0.88424 0.2407 0.0
N388 N 0.54563 0.8979 0.38431 0.0
C389 C 0.54628 0.89459 0.28708 0.0
O390 O 0.41198 0.88499 0.40432 0.0
C391 C 0.42091 0.90164 0.34165 0.0
O392 O 0.43959 0.89522 0.28303 0.0
H393 H 0.4827 0.87697 0.43265 0.0
H394 H 0.52249 0.88175 0.16338 0.0
C395 C 0.36011 0.83604 0.39514 0.0
C396 C 0.33884 0.82151 0.35026 0.0
C397 C 0.37022 0.78733 0.30677 0.0
C398 C 0.39094 0.80167 0.3512 0.0
N399 N 0.38565 0.82567 0.39532 0.0
N400 N 0.34483 0.79746 0.30772 0.0
H401 H 0.35668 0.85555 0.42803 0.0
C402 C 0.44272 0.85864 0.06112 0.0
O403 O 0.42033 0.86048 0.11159 0.0
O404 O 0.41629 0.84621 0.59643 0.0
H405 H 0.41115 0.79366 0.34948 0.0
H406 H 0.52373 0.8944 0.5146 0.0
H407 H 0.37427 0.76823 0.27166 0.0
Zn408 Zn 0.86478 0.96527 0.49474 0.0
C409 C 0.80599 0.95537 0.68798 0.0
N410 N 0.79327 0.97192 0.62724 0.0
C411 C 0.80938 0.97219 0.55005 0.0
N412 N 0.83173 0.95729 0.56496 0.0
N413 N 0.82947 0.94602 0.65113 0.0
C414 C 0.85377 0.93448 0.88816 0.0
O415 O 0.86235 0.95562 0.83956 0.0
O416 O 0.85881 0.96423 0.34914 0.0
Zn417 Zn 0.84968 0.91447 0.69382 0.0
N418 N 0.8758 1.00123 0.53909 0.0
C419 C 0.88362 1.02581 0.68374 0.0
C420 C 0.87576 1.00229 0.63678 0.0
C421 C 0.88352 1.02317 0.48549 0.0
N422 N 0.89172 0.04742 0.63119 0.0
C423 C 0.892 0.04698 0.53332 0.0
O424 O 0.88935 0.91333 0.65159 0.0
C425 C 0.9047 0.92293 0.5859 0.0
O426 O 0.89631 0.94061 0.52638 0.0
H427 H 0.86987 0.98472 0.678 0.0
H428 H 0.88377 1.02191 0.40776 0.0
C429 C 0.83772 0.85675 0.65556 0.0
C430 C 0.82682 0.83561 0.59901 0.0
C431 C 0.80618 0.86794 0.49767 0.0
C432 C 0.81706 0.88871 0.55303 0.0
N433 N 0.83274 0.88297 0.63072 0.0
N434 N 0.81144 0.84194 0.52139 0.0
H435 H 0.85054 0.85241 0.71658 0.0
C436 C 0.84856 0.94349 0.30838 0.0
O437 O 0.84084 0.92309 0.36243 0.0
O438 O 0.84758 0.91311 0.84158 0.0
H439 H 0.81338 0.90929 0.53234 0.0
H440 H 0.88367 1.02681 0.76149 0.0
H441 H 0.79389 0.87248 0.43555 0.0
Zn442 Zn 0.91261 0.20793 0.30954 0.0
C443 C 0.96838 0.2532 0.44615 0.0
N444 N 0.96636 0.26892 0.36853 0.0
C445 C 0.95084 0.25429 0.3095 0.0
N446 N 0.94352 0.23028 0.34836 0.0
N447 N 0.95507 0.22965 0.43427 0.0
C448 C 0.93978 0.2076 0.69571 0.0
O449 O 0.91751 0.20646 0.64457 0.0
O450 O 0.91039 0.20961 0.16169 0.0
Zn451 Zn 0.96492 0.19806 0.50761 0.0
N452 N 0.88086 0.22355 0.37619 0.0
C453 C 0.86689 0.24957 0.51173 0.0
C454 C 0.88713 0.23909 0.45392 0.0
C455 C 0.85445 0.21813 0.35432 0.0
N456 N 0.84082 0.24396 0.49081 0.0
C457 C 0.83354 0.22858 0.41387 0.0
O458 O 0.94298 0.165 0.47373 0.0
C459 C 0.9259 0.15423 0.4168 0.0
O460 O 0.91426 0.16798 0.35114 0.0
H461 H 0.90774 0.24306 0.47297 0.0
H462 H 0.85006 0.20582 0.29203 0.0
C463 C 1.02224 0.17925 0.52272 0.0
C464 C 0.04705 0.17238 0.4786 0.0
C465 C 0.02999 0.18716 0.32818 0.0
C466 C 1.00547 0.19343 0.37115 0.0
N467 N 1.00189 0.1895 0.4672 0.0
N468 N 0.05001 0.17661 0.38245 0.0
H469 H 1.01892 0.1757 0.59865 0.0
C470 C 0.9324 0.20532 0.11623 0.0
O471 O 0.95391 0.19868 0.16597 0.0
O472 O 0.9624 0.20497 0.65269 0.0
H473 H 0.98917 0.20097 0.32748 0.0
H474 H 0.87185 0.26183 0.57372 0.0
H475 H 0.03296 0.19019 0.2518 0.0
Zn476 Zn 0.19202 0.08966 0.51507 0.0
C477 C 0.24846 0.09972 0.7165 0.0
N478 N 0.26228 0.08367 0.65669 0.0
C479 C 0.24717 0.08342 0.57705 0.0
N480 N 0.2241 0.0973 0.59065 0.0
N481 N 0.22524 0.10877 0.67669 0.0
C482 C 0.20167 0.12113 0.90809 0.0
O483 O 0.19563 0.0992 0.85916 0.0
O484 O 0.1999 0.09189 0.37108 0.0
Zn485 Zn 0.20313 0.13989 0.71523 0.0
N486 N 0.18002 0.05337 0.5533 0.0
C487 C 0.17183 1.02634 0.69219 0.0
C488 C 0.1814 0.05 0.65024 0.0
C489 C 0.16927 0.03359 0.49571 0.0
N490 N 0.16079 1.00693 0.63576 0.0
C491 C 0.15905 1.00969 0.53857 0.0
O492 O 0.16321 0.13876 0.67734 0.0
C493 C 0.1497 0.12972 0.60612 0.0
O494 O 0.16011 0.11348 0.54543 0.0
H495 H 0.18943 0.06594 0.69511 0.0
H496 H 0.16787 0.03675 0.41885 0.0
C497 C 0.21268 0.19779 0.66915 0.0
C498 C 0.22049 0.21878 0.60518 0.0
C499 C 0.23784 0.18584 0.49759 0.0
C500 C 0.22926 0.16537 0.5589 0.0
N501 N 0.21716 0.17147 0.64407 0.0
N502 N 0.23315 0.21189 0.52179 0.0
H503 H 0.20304 0.20209 0.73722 0.0
C504 C 0.20069 0.1146 0.32772 0.0
O505 O 0.19676 0.13675 0.37793 0.0
O506 O 0.20526 0.14318 0.8621 0.0
H507 H 0.23168 0.14473 0.53679 0.0
H508 H 0.1728 1.02355 0.7693 0.0
H509 H 0.24756 0.18105 0.42996 0.0
Zn510 Zn 0.14283 0.85485 0.2954 0.0
C511 C 0.10258 0.80083 0.45096 0.0
N512 N 0.11012 0.78387 0.3813 0.0
C513 C 0.11947 0.80064 0.31296 0.0
N514 N 0.11786 0.82689 0.34083 0.0
N515 N 0.10689 0.82691 0.42778 0.0
C516 C 0.1147 0.86293 0.68518 0.0
O517 O 0.13241 0.87731 0.63661 0.0
O518 O 0.1458 0.85291 0.14918 0.0
Zn519 Zn 0.09021 0.85736 0.49518 0.0
N520 N 0.17662 0.84842 0.36493 0.0
C521 C 0.19203 0.84497 0.52655 0.0
C522 C 0.17126 0.848 0.46078 0.0
C523 C 0.20258 0.84648 0.33166 0.0
N524 N 0.21769 0.84281 0.49416 0.0
C525 C 0.22397 0.8435 0.39877 0.0
O526 O 0.10612 0.89382 0.45887 0.0
C527 C 0.12124 0.90635 0.39924 0.0
O528 O 0.13407 0.89379 0.33338 0.0
H529 H 0.15084 0.85057 0.48601 0.0
H530 H 0.20641 0.84812 0.2553 0.0
C531 C 0.03236 0.87261 0.50912 0.0
C532 C 1.00488 0.86994 0.48299 0.0
C533 C 1.01698 0.83705 0.36667 0.0
C534 C 0.04401 0.83973 0.39219 0.0
N535 N 0.05136 0.85711 0.46355 0.0
N536 N 0.99812 0.85207 0.41265 0.0
H537 H 0.03844 0.88653 0.56525 0.0
C538 C 0.12364 0.85217 0.10256 0.0
O539 O 0.10085 0.85213 0.15114 0.0
O540 O 0.09468 0.85266 0.64046 0.0
H541 H 0.05899 0.82785 0.35507 0.0
H542 H 0.18789 0.84467 0.60298 0.0
H543 H 1.011 0.82312 0.31051 0.0
C544 C 0.36441 0.13764 0.70834 0.0
C545 C 0.35204 0.11716 0.76319 0.0
C546 C 0.36793 0.1348 0.60851 0.0
C547 C 0.35885 0.11156 0.55913 0.0
H548 H 0.37229 0.15561 0.74315 0.0
H549 H 0.37806 0.15095 0.56994 0.0
S550 S 0.32274 0.05321 0.66863 0.0
N551 N 0.32913 0.07357 0.76001 0.0
N552 N 0.33523 0.06848 0.57273 0.0
C553 C 0.34535 0.09147 0.6127 0.0
C554 C 0.34208 0.09421 0.71449 0.0
C555 C 0.0908 0.69481 0.40389 0.0
C556 C 0.11145 0.70633 0.4601 0.0
C557 C 0.0931 0.69306 0.30344 0.0
C558 C 0.11616 0.70271 0.25445 0.0
H559 H 0.07293 0.6864 0.43776 0.0
H560 H 0.07674 0.68355 0.26417 0.0
S561 S 0.17459 0.73774 0.36685 0.0
N562 N 0.15474 0.72985 0.45827 0.0
N563 N 0.15918 0.72618 0.26986 0.0
C564 C 0.13654 0.71522 0.30938 0.0
C565 C 0.13414 0.71714 0.41189 0.0
C566 C 0.69772 0.95828 0.7007 0.0
C567 C 0.70447 0.93398 0.74795 0.0
C568 C 0.69727 0.96012 0.59988 0.0
C569 C 0.70341 0.93771 0.54166 0.0
H570 H 0.6923 0.97607 0.74177 0.0
H571 H 0.69137 0.97912 0.56744 0.0
S572 S 0.72576 0.87035 0.62819 0.0
N573 N 0.71969 0.8876 0.72758 0.0
N574 N 0.71894 0.89111 0.53851 0.0
C575 C 0.71125 0.91358 0.58759 0.0
C576 C 0.71177 0.91171 0.69043 0.0
C577 C 0.91422 0.36338 0.40533 0.0
C578 C 0.93814 0.35715 0.45555 0.0
C579 C 0.91255 0.36086 0.30482 0.0
C580 C 0.93481 0.35219 0.2502 0.0
H581 H 0.89668 0.37083 0.4436 0.0
H582 H 0.89395 0.36658 0.26949 0.0
S583 S 1.00091 0.3297 0.34697 0.0
N584 N 0.98373 0.33926 0.44293 0.0
N585 N 0.98067 0.33476 0.2545 0.0
C586 C 0.95846 0.34472 0.29965 0.0
C587 C 0.96011 0.34714 0.40205 0.0
C588 C 0.35944 0.46037 0.65747 0.0
C589 C 0.34629 0.44065 0.71374 0.0
C590 C 0.3615 0.45774 0.55713 0.0
C591 C 0.35057 0.43525 0.50813 0.0
H592 H 0.36879 0.47778 0.69123 0.0
H593 H 0.37218 0.47341 0.51794 0.0
S594 S 0.31141 0.37934 0.62039 0.0
N595 N 0.32011 0.39887 0.71166 0.0
N596 N 0.32439 0.39377 0.52361 0.0
C597 C 0.33658 0.41578 0.56306 0.0
C598 C 0.33432 0.41854 0.66547 0.0
C599 C 0.41336 0.71188 0.34378 0.0
C600 C 0.43848 0.71074 0.29586 0.0
C601 C 0.41148 0.70974 0.44457 0.0
C602 C 0.43462 0.70623 0.50187 0.0
H603 H 0.39482 0.71377 0.30309 0.0
H604 H 0.39164 0.7102 0.47748 0.0
S605 S 0.50557 0.7058 0.41333 0.0
N606 N 0.48723 0.70876 0.31498 0.0
N607 N 0.48377 0.70434 0.50315 0.0
C608 C 0.45997 0.70634 0.45518 0.0
C609 C 0.46187 0.70871 0.35273 0.0
C610 C 0.6844 0.63369 0.66118 0.0
C611 C 0.69374 0.61119 0.71374 0.0
C612 C 0.68808 0.63558 0.56119 0.0
C613 C 0.70113 0.61499 0.50951 0.0
H614 H 0.67366 0.64984 0.69715 0.0
H615 H 0.6799 0.65293 0.52379 0.0
S616 S 0.73293 0.55377 0.61361 0.0
N617 N 0.7191 0.56916 0.70681 0.0
N618 N 0.72589 0.57271 0.51918 0.0
C619 C 0.71159 0.59293 0.56135 0.0
C620 C 0.70793 0.59102 0.66327 0.0
C621 C 0.64009 0.35023 0.44029 0.0
C622 C 0.617 0.34645 0.49776 0.0
C623 C 0.63848 0.34943 0.33941 0.0
C624 C 0.61375 0.34464 0.29191 0.0
H625 H 0.6594 0.35474 0.47325 0.0
H626 H 0.65671 0.35341 0.29851 0.0
S627 S 0.54825 0.32896 0.41002 0.0
N628 N 0.56922 0.33465 0.50001 0.0
N629 N 0.56628 0.33305 0.31108 0.0
C630 C 0.59084 0.33926 0.34881 0.0
C631 C 0.59245 0.3402 0.45144 0.0
C632 C 0.8357 0.63865 0.10048 0.0
C633 C 0.83974 0.61383 0.05258 0.0
C634 C 0.83981 0.64123 0.20025 0.0
C635 C 0.84806 0.61909 0.25651 0.0
H636 H 0.83002 0.65651 0.06032 0.0
H637 H 0.83688 0.66087 0.2331 0.0
S638 S 0.85785 0.54873 0.16795 0.0
N639 N 0.84995 0.56611 0.07077 0.0
N640 N 0.85771 0.57077 0.25714 0.0
C641 C 0.85093 0.59384 0.21 0.0
C642 C 0.84676 0.59126 0.10853 0.0
C643 C 0.63475 0.18467 0.89915 0.0
C644 C 0.61121 0.19254 0.94904 0.0
C645 C 0.63737 0.18845 0.79945 0.0
C646 C 0.61641 0.19992 0.7452 0.0
H647 H 0.6513 0.17523 0.93711 0.0
H648 H 0.65558 0.18145 0.76424 0.0
S649 S 0.55167 0.22642 0.84137 0.0
N650 N 0.56739 0.21439 0.93673 0.0
N651 N 0.57211 0.22098 0.74949 0.0
C652 C 0.59317 0.20879 0.79439 0.0
C653 C 0.59062 0.20524 0.89614 0.0
C654 C 0.18782 0.41561 0.20035 0.0
C655 C 0.20035 0.43593 0.25532 0.0
C656 C 0.18413 0.41867 0.10076 0.0
C657 C 0.19319 0.44199 0.05166 0.0
H658 H 0.17997 0.39758 0.2349 0.0
H659 H 0.17394 0.40259 0.06215 0.0
S660 S 0.22958 0.50004 0.16162 0.0
N661 N 0.2233 0.47951 0.25266 0.0
N662 N 0.21688 0.48501 0.06568 0.0
C663 C 0.20678 0.46197 0.10535 0.0
C664 C 0.21022 0.459 0.20698 0.0
C665 C 0.4621 0.86178 0.79648 0.0
C666 C 0.43889 0.85194 0.74908 0.0
C667 C 0.46342 0.86324 0.89721 0.0
C668 C 0.44153 0.85507 0.95499 0.0
H669 H 0.47935 0.86889 0.75554 0.0
H670 H 0.48152 0.87149 0.92987 0.0
S671 S 0.37741 0.82453 0.86803 0.0
N672 N 0.39441 0.83158 0.76884 0.0
N673 N 0.39683 0.83448 0.95786 0.0
C674 C 0.41859 0.84422 0.90897 0.0
C675 C 0.41728 0.84261 0.80625 0.0
C676 C 0.85916 0.96189 0.144 0.0
C677 C 0.84767 0.94136 0.20115 0.0
C678 C 0.86075 0.95945 0.04349 0.0
C679 C 0.85102 0.93632 0.99509 0.0
H680 H 0.86751 0.9799 0.17712 0.0
H681 H 0.87013 0.97582 0.00367 0.0
S682 S 0.81667 0.87773 0.1099 0.0
N683 N 0.8244 0.89786 0.2006 0.0
N684 N 0.82799 0.89309 0.01233 0.0
C685 C 0.8387 0.91596 0.05095 0.0
C686 C 0.83684 0.91854 0.15354 0.0
C687 C 0.91307 0.2069 0.85035 0.0
C688 C 0.93819 0.20956 0.80296 0.0
C689 C 0.91118 0.20634 0.95143 0.0
C690 C 0.93435 0.20823 0.00952 0.0
H691 H 0.89466 0.20454 0.80916 0.0
H692 H 0.89148 0.20359 0.98411 0.0
S693 S 1.0045 0.21967 0.9223 0.0
N694 N 0.9864 0.21711 0.82314 0.0
N695 N 0.98295 0.21582 0.01201 0.0
C696 C 0.95943 0.21225 0.96323 0.0
C697 C 0.96133 0.21299 0.86044 0.0
C698 C 0.20004 0.14274 0.07194 0.0
C699 C 0.20417 0.11968 0.01469 0.0
C700 C 0.19972 0.14101 0.17296 0.0
C701 C 0.20367 0.11618 0.22095 0.0
H702 H 0.1961 0.16212 0.03857 0.0
H703 H 0.1956 0.15924 0.21353 0.0
S704 S 0.21978 0.05067 0.10389 0.0
N705 N 0.21542 0.07183 0.01351 0.0
N706 N 0.21478 0.06859 0.20246 0.0
C707 C 0.20935 0.09328 0.16436 0.0
C708 C 0.20961 0.09503 0.06162 0.0
C709 C 0.09634 0.84937 0.84684 0.0
C710 C 0.11811 0.85871 0.79066 0.0
C711 C 0.09863 0.84665 0.94706 0.0
C712 C 0.1229 0.8528 0.99543 0.0
H713 H 0.0771 0.8447 0.81359 0.0
H714 H 0.08103 0.83996 0.98703 0.0
S715 S 0.18703 0.87476 0.88037 0.0
N716 N 0.16553 0.87198 0.79024 0.0
N717 N 0.16986 0.86649 0.97801 0.0
C718 C 0.14526 0.86083 0.93962 0.0
C719 C 0.14284 0.86395 0.83759 0.0
C720 C 0.38012 0.93155 0.34738 0.0
C721 C 0.40805 0.92866 0.33165 0.0
C722 C 0.36679 0.95576 0.32461 0.0
C723 C 0.38094 0.97828 0.28801 0.0
H724 H 0.36819 0.91452 0.37231 0.0
H725 H 0.34503 0.95655 0.33243 0.0
S726 S 0.45462 0.98217 0.24262 0.0
N727 N 0.4497 0.9511 0.28289 0.0
N728 N 0.42463 0.99671 0.24258 0.0
C729 C 0.40907 0.97624 0.27741 0.0
C730 C 0.4226 0.95141 0.29858 0.0
C731 C 0.94541 0.65063 0.63473 0.0
C732 C 0.93275 0.62796 0.67752 0.0
C733 C 0.97088 0.65994 0.66629 0.0
C734 C 0.98457 0.64688 0.74161 0.0
H735 H 0.93489 0.66228 0.58061 0.0
H736 H 0.97901 0.67846 0.63604 0.0
S737 S 0.96272 0.5841 0.86586 0.0
N738 N 0.93792 0.59072 0.79037 0.0
N739 N 0.98529 0.60834 0.84963 0.0
C740 C 0.97313 0.6231 0.77957 0.0
C741 C 0.94739 0.61359 0.74753 0.0
C742 C 0.65196 0.10526 0.37392 0.0
C743 C 0.62917 0.1162 0.32713 0.0
C744 C 0.66355 0.0807 0.34346 0.0
C745 C 0.65271 0.06624 0.26539 0.0
H746 H 0.66201 0.11654 0.43037 0.0
H747 H 0.68213 0.074 0.37673 0.0
S748 S 0.59091 0.08338 0.12873 0.0
N749 N 0.5943 0.10835 0.20669 0.0
N750 N 0.61642 0.06277 0.14918 0.0
C751 C 0.62888 0.0758 0.22305 0.0
C752 C 0.61698 0.10058 0.2541 0.0
C753 C 0.1048 0.40603 0.63086 0.0
C754 C 0.1171 0.42919 0.67149 0.0
C755 C 0.07927 0.39683 0.66244 0.0
C756 C 0.06519 0.4105 0.73563 0.0
H757 H 0.11566 0.39389 0.57883 0.0
H758 H 0.07144 0.37795 0.63426 0.0
S759 S 0.08602 0.47457 0.85336 0.0
N760 N 0.11117 0.46747 0.77956 0.0
N761 N 0.0637 0.45001 0.83903 0.0
C762 C 0.07625 0.43474 0.77109 0.0
C763 C 0.10203 0.44415 0.73895 0.0
C764 C 0.42205 0.5836 0.03061 0.0
C765 C 0.39856 0.57162 0.99281 0.0
C766 C 0.43097 0.60911 1.00004 0.0
C767 C 0.41662 0.62415 0.93088 0.0
H768 H 0.43314 0.57356 0.08738 0.0
H769 H 0.44879 0.61749 0.03416 0.0
S770 S 0.35454 0.60093 0.8047 0.0
N771 N 0.36181 0.57583 0.87859 0.0
N772 N 0.37835 0.624 0.82079 0.0
C773 C 0.39375 0.61175 0.88865 0.0
C774 C 0.38478 0.58548 0.91969 0.0
C775 C 0.59126 0.68154 0.07492 0.0
C776 C 0.57032 0.66533 0.03761 0.0
C777 C 0.61618 0.6702 0.1021 0.0
C778 C 0.62123 0.64237 0.09007 0.0
H779 H 0.58886 0.70329 0.07826 0.0
H780 H 0.63214 0.68356 0.12659 0.0
S781 S 0.57209 0.59115 1.00204 0.0
N782 N 0.55553 0.62004 0.9962 0.0
N783 N 0.60225 0.59869 0.04526 0.0
C784 C 0.59989 0.62587 0.0572 0.0
C785 C 0.57448 0.63737 0.03129 0.0
C786 C 0.64759 0.47526 0.92174 0.0
C787 C 0.65933 0.47829 0.01363 0.0
C788 C 0.63947 0.44956 0.8874 0.0
C789 C 0.64264 0.42621 0.94425 0.0
H790 H 0.64327 0.49291 0.8784 0.0
H791 H 0.62936 0.44818 0.81852 0.0
S792 S 0.67616 0.42249 0.18207 0.0
N793 N 0.67676 0.45496 0.1545 0.0
N794 N 0.66104 0.40732 0.09102 0.0
C795 C 0.65584 0.42882 0.03302 0.0
C796 C 0.6643 0.45466 0.06737 0.0
C797 C 0.47438 0.42549 0.9922 0.0
C798 C 0.48518 0.40044 0.02026 0.0
C799 C 0.44873 0.43383 0.02238 0.0
C800 C 0.43241 0.41744 0.08181 0.0
H801 H 0.4855 0.43843 0.94306 0.0
H802 H 0.4413 0.45299 0.99578 0.0
S803 S 0.45193 0.35053 0.18095 0.0
N804 N 0.47825 0.35981 0.11537 0.0
N805 N 0.42984 0.3754 0.17266 0.0
C806 C 0.44353 0.39289 0.11498 0.0
C807 C 0.46992 0.38441 0.08408 0.0
C808 C 0.91154 0.47385 0.72408 0.0
C809 C 0.88816 0.48435 0.76718 0.0
C810 C 0.92218 0.4489 0.75206 0.0
C811 C 0.9097 0.43294 0.82372 0.0
H812 H 0.92115 0.4846 0.66522 0.0
H813 H 0.93985 0.44168 0.71402 0.0
S814 S 0.84873 0.45241 0.96361 0.0
N815 N 0.85355 0.47796 0.88886 0.0
N816 N 0.8733 0.4307 0.94181 0.0
C817 C 0.88694 0.44388 0.87097 0.0
C818 C 0.87621 0.46963 0.84259 0.0
C819 C 0.44827 0.14323 0.12427 0.0
C820 C 0.43517 0.12329 0.18075 0.0
C821 C 0.47278 0.15522 0.15369 0.0
C822 C 0.48508 0.14779 0.24072 0.0
H823 H 0.43872 0.15092 0.05986 0.0
H824 H 0.48107 0.17173 0.11164 0.0
S825 S 0.4621 0.09381 0.40706 0.0
N826 N 0.43893 0.09429 0.32186 0.0
N827 N 0.48437 0.11729 0.37718 0.0
C828 C 0.47349 0.12653 0.29375 0.0
C829 C 0.44877 0.11411 0.26365 0.0
C830 C 0.14305 0.58478 0.70233 0.0
C831 C 0.16199 0.57136 0.7601 0.0
C832 C 0.13105 0.60898 0.73203 0.0
C833 C 0.13778 0.62127 0.82046 0.0
H834 H 0.13808 0.57691 0.63173 0.0
H835 H 0.11717 0.61865 0.6828 0.0
S836 S 0.18527 0.59313 1.00129 0.0
N837 N 0.18597 0.57102 0.91216 0.0
N838 N 0.16373 0.61684 0.96849 0.0
C839 C 0.15591 0.60735 0.8811 0.0
C840 C 0.16793 0.58235 0.85086 0.0
C841 C 0.58283 0.92825 0.26171 0.0
C842 C 0.57116 0.90337 0.23569 0.0
C843 C 0.60881 0.93553 0.23131 0.0
C844 C 0.62458 0.91813 0.17399 0.0
H845 H 0.57212 0.94191 0.30923 0.0
H846 H 0.61692 0.95467 0.25616 0.0
S847 S 0.60264 0.85114 0.08086 0.0
N848 N 0.57659 0.86178 0.14481 0.0
N849 N 0.62569 0.87534 0.08731 0.0
C850 C 0.6126 0.8937 0.14293 0.0
C851 C 0.58586 0.88633 0.1739 0.0
C852 C 0.88587 0.08785 0.42738 0.0
C853 C 0.9027 0.07129 0.48344 0.0
C854 C 0.89398 0.11427 0.40115 0.0
C855 C 0.91911 0.125 0.43078 0.0
H856 H 0.86572 0.08102 0.40885 0.0
H857 H 0.87988 0.12682 0.36207 0.0
S858 S 0.97189 0.08786 0.56667 0.0
N859 N 0.94646 0.06627 0.55907 0.0
N860 N 0.96191 0.11532 0.50962 0.0
C861 C 0.93672 0.10773 0.48119 0.0
C862 C 0.92845 0.08107 0.50763 0.0
C863 C 0.10559 0.1254 0.51951 0.0
C864 C 0.12134 0.13889 0.58913 0.0
C865 C 0.08054 0.13546 0.49009 0.0
C866 C 0.06981 0.15927 0.52954 0.0
H867 H 0.11311 0.1074 0.48416 0.0
H868 H 0.06996 0.1251 0.43257 0.0
S869 S 0.10135 0.20142 0.71927 0.0
N870 N 0.12322 0.17674 0.7014 0.0
N871 N 0.07585 0.19541 0.64565 0.0
C872 C 0.08434 0.1722 0.60321 0.0
C873 C 0.11013 0.16205 0.63317 0.0
C874 C 0.16039 0.97295 0.41316 0.0
C875 C 0.14607 0.9873 0.484 0.0
C876 C 0.15117 0.94755 0.38022 0.0
C877 C 0.12731 0.9356 0.4171 0.0
H878 H 0.17977 0.98042 0.38819 0.0
H879 H 0.1638 0.93648 0.3303 0.0
S880 S 0.08022 0.96761 0.5912 0.0
N881 N 0.10532 0.9895 0.58083 0.0
N882 N 0.0878 0.94229 0.51872 0.0
C883 C 0.11175 0.95101 0.48185 0.0
C884 C 0.1212 0.97667 0.51541 0.0
C885 C 0.96286 0.87256 0.58181 0.0
C886 C 0.9828 0.8859 0.5272 0.0
C887 C 0.93835 0.88528 0.60548 0.0
C888 C 0.93247 0.91162 0.57306 0.0
H889 H 0.96576 0.85168 0.60284 0.0
H890 H 0.92333 0.87375 0.64484 0.0
S891 S 0.97887 0.95573 0.43217 0.0
N892 N 0.99583 0.92728 0.44578 0.0
N893 N 0.94976 0.95119 0.48829 0.0
C894 C 0.95282 0.92555 0.52157 0.0
C895 C 0.97794 0.91268 0.49901 0.0
C896 C 0.32407 0.25735 0.10018 0.0
C897 C 0.34721 0.24793 0.14716 0.0
C898 C 0.31948 0.28516 0.08927 0.0
C899 C 0.33791 0.30474 0.12427 0.0
H900 H 0.30893 0.24317 0.0748 0.0
H901 H 0.30101 0.29135 0.05404 0.0
S902 S 0.40337 0.28975 0.243 0.0
N903 N 0.38956 0.25976 0.22431 0.0
N904 N 0.38173 0.31198 0.19987 0.0
C905 C 0.3617 0.29536 0.16841 0.0
C906 C 0.36612 0.267 0.18073 0.0
C907 C 0.29333 0.70765 0.81641 0.0
C908 C 0.30457 0.71489 0.90554 0.0
C909 C 0.26525 0.70605 0.80425 0.0
C910 C 0.24724 0.71149 0.88058 0.0
H911 H 0.30609 0.7052 0.75368 0.0
H912 H 0.25754 0.70197 0.73276 0.0
S913 S 0.2666 0.72708 0.13224 0.0
N914 N 0.29564 0.72408 0.07469 0.0
N915 N 0.24291 0.7216 0.05105 0.0
C916 C 0.25824 0.71652 0.97196 0.0
C917 C 0.28688 0.71813 0.98446 0.0
C918 C 0.71281 0.75762 0.19696 0.0
C919 C 0.71843 0.74524 0.10815 0.0
C920 C 0.71229 0.78591 0.20563 0.0
C921 C 0.71694 0.80288 0.12575 0.0
H922 H 0.71097 0.74553 0.26162 0.0
H923 H 0.70985 0.79461 0.27668 0.0
S924 S 0.72892 0.78048 0.87495 0.0
N925 N 0.72586 0.7521 0.93675 0.0
N926 N 0.72483 0.80519 0.95353 0.0
C927 C 0.72031 0.79078 0.03524 0.0
C928 C 0.7211 0.76198 0.02644 0.0
C929 C 0.7578 0.33438 0.79858 0.0
C930 C 0.74611 0.33967 0.88873 0.0
C931 C 0.78599 0.3329 0.78782 0.0
C932 C 0.80364 0.33679 0.86648 0.0
H933 H 0.74515 0.32949 0.73743 0.0
H934 H 0.79399 0.32735 0.71798 0.0
S935 S 0.78296 0.35438 0.11554 0.0
N936 N 0.75428 0.35166 0.05592 0.0
N937 N 0.80702 0.34821 0.03629 0.0
C938 C 0.79219 0.34397 0.95549 0.0
C939 C 0.7635 0.34552 0.96636 0.0
C940 C 0.84121 0.78936 0.54835 0.0
C941 C 0.83145 0.80672 0.62062 0.0
C942 C 0.84407 0.76145 0.56456 0.0
C943 C 0.83665 0.74972 0.65319 0.0
H944 H 0.84694 0.7975 0.47884 0.0
H945 H 0.85264 0.74926 0.50764 0.0
S946 S 0.80705 0.78658 0.86208 0.0
N947 N 0.81288 0.81037 0.78138 0.0
N948 N 0.81715 0.75806 0.81205 0.0
C949 C 0.82607 0.76704 0.72511 0.0
C950 C 0.82372 0.79546 0.70885 0.0
C951 C 0.76736 0.19612 0.32821 0.0
C952 C 0.74743 0.21255 0.37035 0.0
C953 C 0.79499 0.20114 0.34253 0.0
C954 C 0.80397 0.2233 0.39792 0.0
H955 H 0.7615 0.17921 0.28312 0.0
H956 H 0.80918 0.18731 0.30999 0.0
S957 S 0.75928 0.27318 0.52101 0.0
N958 N 0.73817 0.25187 0.46881 0.0
N959 N 0.78982 0.26215 0.49442 0.0
C960 C 0.78394 0.23989 0.44077 0.0
C961 C 0.75581 0.23436 0.4273 0.0
C962 C 0.22924 0.29527 0.59476 0.0
C963 C 0.20647 0.30498 0.64362 0.0
C964 C 0.23361 0.26738 0.58474 0.0
C965 C 0.21535 0.24808 0.62277 0.0
H966 H 0.24423 0.30927 0.56704 0.0
H967 H 0.25174 0.26089 0.5477 0.0
S968 S 0.15085 0.26383 0.74744 0.0
N969 N 0.16462 0.29367 0.7257 0.0
N970 N 0.17211 0.24133 0.70338 0.0
C971 C 0.19196 0.25774 0.66898 0.0
C972 C 0.18773 0.28616 0.68019 0.0
C973 C 0.30012 0.84635 0.42837 0.0
C974 C 0.31001 0.83068 0.35164 0.0
C975 C 0.27247 0.85167 0.43841 0.0
C976 C 0.25321 0.84148 0.37287 0.0
H977 H 0.31347 0.85349 0.48449 0.0
H978 H 0.26603 0.8631 0.50083 0.0
S979 S 0.26859 0.80155 0.15353 0.0
N980 N 0.29836 0.8071 0.20323 0.0
N981 N 0.24633 0.81627 0.22467 0.0
C982 C 0.26283 0.82694 0.29297 0.0
C983 C 0.29116 0.82168 0.28209 0.0
C984 C 0.27325 0.07096 0.32513 0.0
C985 C 0.29069 0.09324 0.3131 0.0
C986 C 0.25898 0.06727 0.4115 0.0
C987 C 0.26181 0.08603 0.48631 0.0
H988 H 0.27009 0.05685 0.26653 0.0
H989 H 0.24543 0.05015 0.41915 0.0
S990 S 0.3034 0.1487 0.48571 0.0
N991 N 0.30863 0.13493 0.37919 0.0
N992 N 0.28296 0.12769 0.54276 0.0
C993 C 0.27943 0.10821 0.47471 0.0
C994 C 0.2936 0.11195 0.38741 0.0
C995 C 0.06848 0.76002 0.64491 0.0
C996 C 0.08747 0.76212 0.71914 0.0
C997 C 0.07254 0.77416 0.55839 0.0
C998 C 0.09534 0.7909 0.54588 0.0
H999 H 0.05083 0.74721 0.65322 0.0
H1000 H 0.05823 0.77151 0.50023 0.0
S1001 S 0.15182 0.80091 0.71594 0.0
N1002 N 0.1301 0.78143 0.7738 0.0
N1003 N 0.13796 0.80682 0.6102 0.0
C1004 C 0.1144 0.79283 0.61929 0.0
C1005 C 0.11033 0.77876 0.70658 0.0
C1006 C 0.77686 0.95122 0.44225 0.0
C1007 C 0.79587 0.97193 0.45742 0.0
C1008 C 0.76193 0.95004 0.35817 0.0
C1009 C 0.76483 0.96996 0.28772 0.0
H1010 H 0.77374 0.93549 0.4955 0.0
H1011 H 0.74922 0.93253 0.34591 0.0
S1012 S 0.81259 0.02789 0.29174 0.0
N1013 N 0.8174 1.01253 0.39593 0.0
N1014 N 0.7889 1.01038 0.23523 0.0
C1015 C 0.78383 0.99084 0.30156 0.0
C1016 C 0.79935 0.99193 0.38765 0.0
C1017 C 0.94981 0.30005 0.64391 0.0
C1018 C 0.972 0.29875 0.70592 0.0
C1019 C 0.94893 0.28444 0.5612 0.0
C1020 C 0.96996 0.26661 0.53863 0.0
H1021 H 0.93229 0.31209 0.66195 0.0
H1022 H 0.93148 0.28622 0.5146 0.0
S1023 S 0.03226 0.25516 0.67825 0.0
N1024 N 1.01532 0.27792 0.74114 0.0
N1025 N 1.01369 0.24846 0.58231 0.0
C1026 C 0.99239 0.26502 0.59905 0.0
C1027 C 0.99334 0.28108 0.68401 0.0
C1028 C 0.29417 0.48529 0.90061 0.0
C1029 C 0.29064 0.46689 0.97616 0.0
C1030 C 0.27995 0.48172 0.81429 0.0
C1031 C 0.26179 0.45997 0.80313 0.0
H1032 H 0.30826 0.50199 0.9076 0.0
H1033 H 0.28375 0.49544 0.75498 0.0
S1034 S 0.24772 0.40516 0.97704 0.0
N1035 N 0.26837 0.42595 0.03388 0.0
N1036 N 0.24295 0.41879 0.87012 0.0
C1037 C 0.25834 0.44152 0.87797 0.0
C1038 C 0.27244 0.44518 0.96531 0.0
C1039 C 0.45066 0.79892 0.14621 0.0
C1040 C 0.47483 0.79822 0.19847 0.0
C1041 C 0.44731 0.78324 0.06447 0.0
C1042 C 0.46773 0.76576 0.03354 0.0
H1043 H 0.43362 0.81068 0.17113 0.0
H1044 H 0.42851 0.78481 0.0251 0.0
S1045 S 0.5341 0.7549 0.148 0.0
N1046 N 0.51908 0.77765 0.21684 0.0
N1047 N 0.51273 0.74803 0.05997 0.0
C1048 C 0.49193 0.76442 0.08489 0.0
C1049 C 0.49543 0.7806 0.1687 0.0
C1050 C 0.74972 0.60712 0.90424 0.0
C1051 C 0.75411 0.58344 0.95725 0.0
C1052 C 0.7643 0.61244 0.8211 0.0
C1053 C 0.78428 0.5946 0.7888 0.0
H1054 H 0.73583 0.62244 0.92955 0.0
H1055 H 0.76022 0.63105 0.78254 0.0
S1056 S 0.80361 0.52971 0.90096 0.0
N1057 N 0.77994 0.54196 0.97263 0.0
N1058 N 0.80722 0.55185 0.81273 0.0
C1059 C 0.78885 0.57066 0.8398 0.0
C1060 C 0.77385 0.56517 0.9253 0.0
C1061 C 0.56366 0.28978 0.09431 0.0
C1062 C 0.58371 0.28812 0.02343 0.0
C1063 C 0.56629 0.27504 0.18007 0.0
C1064 C 0.58872 0.25816 0.19516 0.0
H1065 H 0.54634 0.30279 0.08422 0.0
H1066 H 0.55128 0.27753 0.23616 0.0
S1067 S 0.64723 0.24864 0.03303 0.0
N1068 N 0.62664 0.26873 0.97359 0.0
N1069 N 0.63191 0.24221 0.13606 0.0
C1070 C 0.60869 0.25643 0.12448 0.0
C1071 C 0.60604 0.27113 0.03792 0.0
C1072 C 0.28416 0.08854 0.94886 0.0
C1073 C 0.29081 0.11468 0.98031 0.0
C1074 C 0.26904 0.08447 0.86592 0.0
C1075 C 0.25997 0.10634 0.8107 0.0
H1076 H 0.28991 0.07102 0.9909 0.0
H1077 H 0.26452 0.06387 0.84433 0.0
S1078 S 0.27384 0.1788 0.85788 0.0
N1079 N 0.28784 0.1629 0.94975 0.0
N1080 N 0.2607 0.15508 0.78808 0.0
C1081 C 0.26721 0.13266 0.83908 0.0
C1082 C 0.28229 0.13688 0.9256 0.0
C1083 C 0.08586 0.77023 0.10026 0.0
C1084 C 0.10737 0.76056 0.04454 0.0
C1085 C 0.09044 0.78542 0.18285 0.0
C1086 C 0.11676 0.79154 0.21335 0.0
H1087 H 0.06515 0.76612 0.07938 0.0
H1088 H 0.07317 0.79159 0.22551 0.0
S1089 S 0.18013 0.77348 0.08786 0.0
N1090 N 0.15601 0.76042 0.0198 0.0
N1091 N 0.16476 0.78796 0.18014 0.0
C1092 C 0.13861 0.78264 0.1576 0.0
C1093 C 0.13388 0.76739 0.07169 0.0
C1094 C 0.78602 0.97354 0.83343 0.0
C1095 C 0.79439 0.95047 0.7833 0.0
C1096 C 0.77102 0.97145 0.91734 0.0
C1097 C 0.76418 0.94617 0.95602 0.0
H1098 H 0.79098 0.9936 0.80701 0.0
H1099 H 0.76567 0.98994 0.95476 0.0
S1100 S 0.77906 0.87937 0.84869 0.0
N1101 N 0.79228 0.90139 0.77223 0.0
N1102 N 0.76598 0.89735 0.93756 0.0
C1103 C 0.77189 0.92272 0.90649 0.0
C1104 C 0.78659 0.9249 0.81809 0.0
C1105 C 0.97227 0.283 0.07645 0.0
C1106 C 0.94831 0.29285 0.03595 0.0
C1107 C 0.97202 0.26825 0.16109 0.0
C1108 C 0.94786 0.26303 0.21007 0.0
H1109 H 0.99161 0.28661 0.0419 0.0
H1110 H 0.99118 0.26169 0.19059 0.0
S1111 S 0.87928 0.28327 0.1339 0.0
N1112 N 0.89931 0.29467 0.0475 0.0
N1113 N 0.89917 0.26875 0.21404 0.0
C1114 C 0.92355 0.27256 0.17127 0.0
C1115 C 0.92369 0.28706 0.08217 0.0
C1116 C 0.28649 0.42157 0.33136 0.0
C1117 C 0.29375 0.44793 0.30274 0.0
C1118 C 0.27115 0.4173 0.41575 0.0
C1119 C 0.26192 0.43936 0.47047 0.0
H1120 H 0.29244 0.40436 0.28808 0.0
H1121 H 0.26697 0.39682 0.43922 0.0
S1122 S 0.27501 0.51202 0.42322 0.0
N1123 N 0.29054 0.49603 0.33501 0.0
N1124 N 0.26105 0.48813 0.48974 0.0
C1125 C 0.26863 0.46562 0.44052 0.0
C1126 C 0.28468 0.46986 0.35754 0.0
C1127 C 0.42616 0.77335 0.65793 0.0
C1128 C 0.44807 0.75982 0.69992 0.0
C1129 C 0.42952 0.7877 0.57126 0.0
C1130 C 0.45513 0.7899 0.52788 0.0
H1131 H 0.40674 0.77366 0.69396 0.0
H1132 H 0.41218 0.7973 0.5393 0.0
S1133 S 0.51863 0.758 0.61218 0.0
N1134 N 0.49559 0.7486 0.69127 0.0
N1135 N 0.50245 0.77674 0.53301 0.0
C1136 C 0.47688 0.77587 0.56908 0.0
C1137 C 0.47323 0.76064 0.65426 0.0
C1138 C 0.7632 0.63053 0.32686 0.0
C1139 C 0.7633 0.60455 0.28568 0.0
C1140 C 0.77737 0.63582 0.41262 0.0
C1141 C 0.79296 0.61561 0.45659 0.0
H1142 H 0.75182 0.64664 0.29415 0.0
H1143 H 0.77529 0.65542 0.44663 0.0
S1144 S 0.80043 0.54465 0.37579 0.0
N1145 N 0.78065 0.55868 0.29471 0.0
N1146 N 0.80769 0.56895 0.45289 0.0
C1147 C 0.79413 0.59005 0.41346 0.0
C1148 C 0.77933 0.58449 0.32839 0.0
C1149 C 0.58233 0.28183 0.64504 0.0
C1150 C 0.60457 0.2912 0.69787 0.0
C1151 C 0.58574 0.26669 0.56179 0.0
C1152 C 0.61157 0.26043 0.52712 0.0
H1153 H 0.56191 0.28598 0.66911 0.0
H1154 H 0.56789 0.26053 0.52217 0.0
S1155 S 0.6766 0.27875 0.64119 0.0
N1156 N 0.65347 0.29144 0.71423 0.0
N1157 N 0.66 0.26439 0.55135 0.0
C1158 C 0.63419 0.26943 0.57892 0.0
C1159 C 0.63066 0.28447 0.66611 0.0
loop_
_geom_bond_atom_site_label_1
_geom_bond_atom_site_label_2
_geom_bond_distance
_geom_bond_site_symmetry_2
_ccdc_geom_bond_type
Zn0 N4 2.020 . S
Zn0 O8 2.019 1_554 S
Zn0 N10 2.119 . S
Zn0 O18 1.975 . S
C1 N2 1.334 . S
C1 N5 1.336 . S
N2 C1 1.334 . S
N2 C3 1.334 . S
C3 N2 1.334 . S
C3 N4 1.336 . S
N4 Zn0 2.020 . S
N4 C3 1.336 . S
N4 N5 1.354 . S
N5 C1 1.336 . S
N5 N4 1.354 . S
N5 Zn9 2.020 . S
C6 O7 1.244 . S
C6 O30 1.257 . S
O7 C6 1.244 . S
O8 Zn0 2.019 1_556 S
O8 C28 1.257 . S
Zn9 N5 2.020 . S
Zn9 O16 1.975 . S
Zn9 N25 2.119 . S
Zn9 O30 2.019 . S
N10 Zn0 2.119 . S
N10 C12 1.334 . S
N10 C13 1.328 . S
C11 C12 1.391 . S
C11 N14 1.329 . S
C11 H32 0.930 . S
C12 N10 1.334 . S
C12 C11 1.391 . S
C12 H19 0.930 . S
C13 N10 1.328 . S
C13 C15 1.392 . S
C13 H20 0.930 1_554 S
N14 C11 1.329 . S
N14 C15 1.331 . S
C15 C13 1.392 . S
C15 N14 1.331 . S
O16 Zn9 1.975 . S
O16 C17 1.252 . S
C17 O16 1.252 . S
C17 O18 1.252 . S
O18 Zn0 1.975 . S
O18 C17 1.252 . S
H19 C12 0.930 . S
H20 C13 0.930 1_556 S
C21 C22 1.392 1_545 S
C21 N25 1.328 . S
C21 H27 0.930 . S
C22 C21 1.392 1_565 S
C22 N26 1.331 . S
C23 C24 1.391 . S
C23 N26 1.329 1_545 S
C23 H33 0.930 . S
C24 C23 1.391 . S
C24 N25 1.334 . S
C24 H31 0.930 . S
N25 Zn9 2.119 . S
N25 C21 1.328 . S
N25 C24 1.334 . S
N26 C22 1.331 . S
N26 C23 1.329 1_565 S
H27 C21 0.930 . S
C28 O8 1.257 . S
C28 O29 1.244 . S
O29 C28 1.244 . S
O30 C6 1.257 . S
O30 Zn9 2.019 . S
H31 C24 0.930 . S
H32 C11 0.930 . S
H33 C23 0.930 . S
Zn34 N38 2.020 . S
Zn34 O42 2.019 . S
Zn34 N44 2.119 . S
Zn34 O52 1.975 . S
C35 N36 1.334 . S
C35 N39 1.336 . S
N36 C35 1.334 . S
N36 C37 1.334 . S
C37 N36 1.334 . S
C37 N38 1.336 . S
N38 Zn34 2.020 . S
N38 C37 1.336 . S
N38 N39 1.354 . S
N39 C35 1.336 . S
N39 N38 1.354 . S
N39 Zn43 2.020 . S
C40 O41 1.244 . S
C40 O64 1.257 . S
O41 C40 1.244 . S
O42 Zn34 2.019 . S
O42 C62 1.257 . S
Zn43 N39 2.020 . S
Zn43 O50 1.975 . S
Zn43 N59 2.119 . S
Zn43 O64 2.019 1_556 S
N44 Zn34 2.119 . S
N44 C46 1.334 . S
N44 C47 1.328 . S
C45 C46 1.391 . S
C45 N48 1.329 1_455 S
C45 H66 0.930 . S
C46 N44 1.334 . S
C46 C45 1.391 . S
C46 H53 0.930 . S
C47 N44 1.328 . S
C47 C49 1.392 1_455 S
C47 H54 0.930 . S
N48 C45 1.329 1_655 S
N48 C49 1.331 . S
C49 C47 1.392 1_655 S
C49 N48 1.331 . S
O50 Zn43 1.975 . S
O50 C51 1.252 . S
C51 O50 1.252 . S
C51 O52 1.252 . S
O52 Zn34 1.975 . S
O52 C51 1.252 . S
H53 C46 0.930 . S
H54 C47 0.930 . S
C55 C56 1.392 . S
C55 N59 1.328 . S
C55 H61 0.930 1_556 S
C56 C55 1.392 . S
C56 N60 1.331 . S
C57 C58 1.391 . S
C57 N60 1.329 . S
C57 H67 0.930 . S
C58 C57 1.391 . S
C58 N59 1.334 . S
C58 H65 0.930 . S
N59 Zn43 2.119 . S
N59 C55 1.328 . S
N59 C58 1.334 . S
N60 C56 1.331 . S
N60 C57 1.329 . S
H61 C55 0.930 1_554 S
C62 O42 1.257 . S
C62 O63 1.244 . S
O63 C62 1.244 . S
O64 C40 1.257 . S
O64 Zn43 2.019 1_554 S
H65 C58 0.930 . S
H66 C45 0.930 . S
H67 C57 0.930 . S
Zn68 N72 2.020 . S
Zn68 O76 2.019 1_554 S
Zn68 N78 2.119 . S
Zn68 O86 1.975 . S
C69 N70 1.334 . S
C69 N73 1.336 . S
N70 C69 1.334 . S
N70 C71 1.334 . S
C71 N70 1.334 . S
C71 N72 1.336 . S
N72 Zn68 2.020 . S
N72 C71 1.336 . S
N72 N73 1.354 . S
N73 C69 1.336 . S
N73 N72 1.354 . S
N73 Zn77 2.020 . S
C74 O75 1.244 . S
C74 O98 1.257 . S
O75 C74 1.244 . S
O76 Zn68 2.019 1_556 S
O76 C96 1.257 . S
Zn77 N73 2.020 . S
Zn77 O84 1.975 . S
Zn77 N93 2.119 . S
Zn77 O98 2.019 . S
N78 Zn68 2.119 . S
N78 C80 1.334 . S
N78 C81 1.328 . S
C79 C80 1.391 . S
C79 N82 1.329 . S
C79 H100 0.930 . S
C80 N78 1.334 . S
C80 C79 1.391 . S
C80 H87 0.930 . S
C81 N78 1.328 . S
C81 C83 1.392 . S
C81 H88 0.930 1_554 S
N82 C79 1.329 . S
N82 C83 1.331 . S
C83 C81 1.392 . S
C83 N82 1.331 . S
O84 Zn77 1.975 . S
O84 C85 1.252 . S
C85 O84 1.252 . S
C85 O86 1.252 . S
O86 Zn68 1.975 . S
O86 C85 1.252 . S
H87 C80 0.930 . S
H88 C81 0.930 1_556 S
C89 C90 1.392 1_565 S
C89 N93 1.328 . S
C89 H95 0.930 . S
C90 C89 1.392 1_545 S
C90 N94 1.331 . S
C91 C92 1.391 . S
C91 N94 1.329 1_565 S
C91 H101 0.930 . S
C92 C91 1.391 . S
C92 N93 1.334 . S
C92 H99 0.930 . S
N93 Zn77 2.119 . S
N93 C89 1.328 . S
N93 C92 1.334 . S
N94 C90 1.331 . S
N94 C91 1.329 1_545 S
H95 C89 0.930 . S
C96 O76 1.257 . S
C96 O97 1.244 . S
O97 C96 1.244 . S
O98 C74 1.257 . S
O98 Zn77 2.019 . S
H99 C92 0.930 . S
H100 C79 0.930 . S
H101 C91 0.930 . S
Zn102 N106 2.020 . S
Zn102 O110 2.019 . S
Zn102 N112 2.119 . S
Zn102 O120 1.975 . S
C103 N104 1.334 . S
C103 N107 1.336 . S
N104 C103 1.334 . S
N104 C105 1.334 . S
C105 N104 1.334 . S
C105 N106 1.336 . S
N106 Zn102 2.020 . S
N106 C105 1.336 . S
N106 N107 1.354 . S
N107 C103 1.336 . S
N107 N106 1.354 . S
N107 Zn111 2.020 . S
C108 O109 1.244 . S
C108 O132 1.257 . S
O109 C108 1.244 . S
O110 Zn102 2.019 . S
O110 C130 1.257 . S
Zn111 N107 2.020 . S
Zn111 O118 1.975 . S
Zn111 N127 2.119 . S
Zn111 O132 2.019 1_556 S
N112 Zn102 2.119 . S
N112 C114 1.334 . S
N112 C115 1.328 . S
C113 C114 1.391 . S
C113 N116 1.329 1_655 S
C113 H134 0.930 . S
C114 N112 1.334 . S
C114 C113 1.391 . S
C114 H121 0.930 . S
C115 N112 1.328 . S
C115 C117 1.392 1_655 S
C115 H122 0.930 . S
N116 C113 1.329 1_455 S
N116 C117 1.331 . S
C117 C115 1.392 1_455 S
C117 N116 1.331 . S
O118 Zn111 1.975 . S
O118 C119 1.252 . S
C119 O118 1.252 . S
C119 O120 1.252 . S
O120 Zn102 1.975 . S
O120 C119 1.252 . S
H121 C114 0.930 . S
H122 C115 0.930 . S
C123 C124 1.392 . S
C123 N127 1.328 . S
C123 H129 0.930 1_556 S
C124 C123 1.392 . S
C124 N128 1.331 . S
C125 C126 1.391 . S
C125 N128 1.329 . S
C125 H135 0.930 . S
C126 C125 1.391 . S
C126 N127 1.334 . S
C126 H133 0.930 . S
N127 Zn111 2.119 . S
N127 C123 1.328 . S
N127 C126 1.334 . S
N128 C124 1.331 . S
N128 C125 1.329 . S
H129 C123 0.930 1_554 S
C130 O110 1.257 . S
C130 O131 1.244 . S
O131 C130 1.244 . S
O132 C108 1.257 . S
O132 Zn111 2.019 1_554 S
H133 C126 0.930 . S
H134 C113 0.930 . S
H135 C125 0.930 . S
Zn136 N140 2.020 . S
Zn136 O144 2.019 . S
Zn136 N146 2.119 . S
Zn136 O154 1.975 . S
C137 N138 1.334 . S
C137 N141 1.336 . S
N138 C137 1.334 . S
N138 C139 1.334 . S
C139 N138 1.334 . S
C139 N140 1.336 . S
N140 Zn136 2.020 . S
N140 C139 1.336 . S
N140 N141 1.354 . S
N141 C137 1.336 . S
N141 N140 1.354 . S
N141 Zn145 2.020 1_554 S
C142 O143 1.244 . S
C142 O166 1.257 . S
O143 C142 1.244 . S
O144 Zn136 2.019 . S
O144 C164 1.257 . S
Zn145 N141 2.020 1_556 S
Zn145 O152 1.975 . S
Zn145 N161 2.119 . S
Zn145 O166 2.019 . S
N146 Zn136 2.119 . S
N146 C148 1.334 . S
N146 C149 1.328 . S
C147 C148 1.391 . S
C147 N150 1.329 . S
C147 H168 0.930 1_554 S
C148 N146 1.334 . S
C148 C147 1.391 . S
C148 H155 0.930 . S
C149 N146 1.328 . S
C149 C151 1.392 . S
C149 H156 0.930 . S
N150 C147 1.329 . S
N150 C151 1.331 . S
C151 C149 1.392 . S
C151 N150 1.331 . S
O152 Zn145 1.975 . S
O152 C153 1.252 1_556 S
C153 O152 1.252 1_554 S
C153 O154 1.252 . S
O154 Zn136 1.975 . S
O154 C153 1.252 . S
H155 C148 0.930 . S
H156 C149 0.930 . S
C157 C158 1.392 . S
C157 N161 1.328 . S
C157 H163 0.930 . S
C158 C157 1.392 . S
C158 N162 1.331 1_556 S
C159 C160 1.391 . S
C159 N162 1.329 . S
C159 H169 0.930 . S
C160 C159 1.391 . S
C160 N161 1.334 1_554 S
C160 H167 0.930 . S
N161 Zn145 2.119 . S
N161 C157 1.328 . S
N161 C160 1.334 1_556 S
N162 C158 1.331 1_554 S
N162 C159 1.329 . S
H163 C157 0.930 . S
C164 O144 1.257 . S
C164 O165 1.244 . S
O165 C164 1.244 . S
O166 C142 1.257 . S
O166 Zn145 2.019 . S
H167 C160 0.930 . S
H168 C147 0.930 1_556 S
H169 C159 0.930 . S
Zn170 N174 2.020 . S
Zn170 O178 2.019 . S
Zn170 N180 2.119 . S
Zn170 O188 1.975 . S
C171 N172 1.334 . S
C171 N175 1.336 . S
N172 C171 1.334 . S
N172 C173 1.334 . S
C173 N172 1.334 . S
C173 N174 1.336 . S
N174 Zn170 2.020 . S
N174 C173 1.336 . S
N174 N175 1.354 . S
N175 C171 1.336 . S
N175 N174 1.354 . S
N175 Zn179 2.020 1_556 S
C176 O177 1.244 . S
C176 O200 1.257 . S
O177 C176 1.244 . S
O178 Zn170 2.019 . S
O178 C198 1.257 . S
Zn179 N175 2.020 1_554 S
Zn179 O186 1.975 . S
Zn179 N195 2.119 . S
Zn179 O200 2.019 . S
N180 Zn170 2.119 . S
N180 C182 1.334 . S
N180 C183 1.328 . S
C181 C182 1.391 . S
C181 N184 1.329 . S
C181 H202 0.930 1_556 S
C182 N180 1.334 . S
C182 C181 1.391 . S
C182 H189 0.930 . S
C183 N180 1.328 . S
C183 C185 1.392 . S
C183 H190 0.930 . S
N184 C181 1.329 . S
N184 C185 1.331 . S
C185 C183 1.392 . S
C185 N184 1.331 . S
O186 Zn179 1.975 . S
O186 C187 1.252 1_554 S
C187 O186 1.252 1_556 S
C187 O188 1.252 . S
O188 Zn170 1.975 . S
O188 C187 1.252 . S
H189 C182 0.930 . S
H190 C183 0.930 . S
C191 C192 1.392 . S
C191 N195 1.328 . S
C191 H197 0.930 . S
C192 C191 1.392 . S
C192 N196 1.331 1_554 S
C193 C194 1.391 . S
C193 N196 1.329 . S
C193 H203 0.930 . S
C194 C193 1.391 . S
C194 N195 1.334 1_556 S
C194 H201 0.930 . S
N195 Zn179 2.119 . S
N195 C191 1.328 . S
N195 C194 1.334 1_554 S
N196 C192 1.331 1_556 S
N196 C193 1.329 . S
H197 C191 0.930 . S
C198 O178 1.257 . S
C198 O199 1.244 . S
O199 C198 1.244 . S
O200 C176 1.257 . S
O200 Zn179 2.019 . S
H201 C194 0.930 . S
H202 C181 0.930 1_554 S
H203 C193 0.930 . S
Zn204 N208 2.020 . S
Zn204 O212 2.019 . S
Zn204 N214 2.119 . S
Zn204 O222 1.975 . S
C205 N206 1.334 . S
C205 N209 1.336 . S
N206 C205 1.334 . S
N206 C207 1.334 . S
C207 N206 1.334 . S
C207 N208 1.336 . S
N208 Zn204 2.020 . S
N208 C207 1.336 . S
N208 N209 1.354 . S
N209 C205 1.336 . S
N209 N208 1.354 . S
N209 Zn213 2.020 1_554 S
C210 O211 1.244 . S
C210 O234 1.257 . S
O211 C210 1.244 . S
O212 Zn204 2.019 . S
O212 C232 1.257 . S
Zn213 N209 2.020 1_556 S
Zn213 O220 1.975 . S
Zn213 N229 2.119 . S
Zn213 O234 2.019 . S
N214 Zn204 2.119 . S
N214 C216 1.334 . S
N214 C217 1.328 . S
C215 C216 1.391 . S
C215 N218 1.329 . S
C215 H236 0.930 1_554 S
C216 N214 1.334 . S
C216 C215 1.391 . S
C216 H223 0.930 . S
C217 N214 1.328 . S
C217 C219 1.392 . S
C217 H224 0.930 . S
N218 C215 1.329 . S
N218 C219 1.331 . S
C219 C217 1.392 . S
C219 N218 1.331 . S
O220 Zn213 1.975 . S
O220 C221 1.252 1_556 S
C221 O220 1.252 1_554 S
C221 O222 1.252 . S
O222 Zn204 1.975 . S
O222 C221 1.252 . S
H223 C216 0.930 . S
H224 C217 0.930 . S
C225 C226 1.392 . S
C225 N229 1.328 . S
C225 H231 0.930 . S
C226 C225 1.392 . S
C226 N230 1.331 1_556 S
C227 C228 1.391 . S
C227 N230 1.329 . S
C227 H237 0.930 . S
C228 C227 1.391 . S
C228 N229 1.334 1_554 S
C228 H235 0.930 . S
N229 Zn213 2.119 . S
N229 C225 1.328 . S
N229 C228 1.334 1_556 S
N230 C226 1.331 1_554 S
N230 C227 1.329 . S
H231 C225 0.930 . S
C232 O212 1.257 . S
C232 O233 1.244 . S
O233 C232 1.244 . S
O234 C210 1.257 . S
O234 Zn213 2.019 . S
H235 C228 0.930 . S
H236 C215 0.930 1_556 S
H237 C227 0.930 . S
Zn238 N242 2.020 . S
Zn238 O246 2.019 . S
Zn238 N248 2.119 . S
Zn238 O256 1.975 . S
C239 N240 1.334 . S
C239 N243 1.336 . S
N240 C239 1.334 . S
N240 C241 1.334 . S
C241 N240 1.334 . S
C241 N242 1.336 . S
N242 Zn238 2.020 . S
N242 C241 1.336 . S
N242 N243 1.354 . S
N243 C239 1.336 . S
N243 N242 1.354 . S
N243 Zn247 2.020 1_556 S
C244 O245 1.244 . S
C244 O268 1.257 . S
O245 C244 1.244 . S
O246 Zn238 2.019 . S
O246 C266 1.257 . S
Zn247 N243 2.020 1_554 S
Zn247 O254 1.975 . S
Zn247 N263 2.119 . S
Zn247 O268 2.019 . S
N248 Zn238 2.119 . S
N248 C250 1.334 . S
N248 C251 1.328 . S
C249 C250 1.391 . S
C249 N252 1.329 . S
C249 H270 0.930 1_556 S
C250 N248 1.334 . S
C250 C249 1.391 . S
C250 H257 0.930 . S
C251 N248 1.328 . S
C251 C253 1.392 . S
C251 H258 0.930 . S
N252 C249 1.329 . S
N252 C253 1.331 . S
C253 C251 1.392 . S
C253 N252 1.331 . S
O254 Zn247 1.975 . S
O254 C255 1.252 1_554 S
C255 O254 1.252 1_556 S
C255 O256 1.252 . S
O256 Zn238 1.975 . S
O256 C255 1.252 . S
H257 C250 0.930 . S
H258 C251 0.930 . S
C259 C260 1.392 . S
C259 N263 1.328 . S
C259 H265 0.930 . S
C260 C259 1.392 . S
C260 N264 1.331 1_554 S
C261 C262 1.391 . S
C261 N264 1.329 . S
C261 H271 0.930 . S
C262 C261 1.391 . S
C262 N263 1.334 1_556 S
C262 H269 0.930 . S
N263 Zn247 2.119 . S
N263 C259 1.328 . S
N263 C262 1.334 1_554 S
N264 C260 1.331 1_556 S
N264 C261 1.329 . S
H265 C259 0.930 . S
C266 O246 1.257 . S
C266 O267 1.244 . S
O267 C266 1.244 . S
O268 C244 1.257 . S
O268 Zn247 2.019 . S
H269 C262 0.930 . S
H270 C249 0.930 1_554 S
H271 C261 0.930 . S
Zn272 N276 2.020 . S
Zn272 O280 2.019 . S
Zn272 N282 2.119 . S
Zn272 O290 1.975 . S
C273 N274 1.334 . S
C273 N277 1.336 . S
N274 C273 1.334 . S
N274 C275 1.334 . S
C275 N274 1.334 . S
C275 N276 1.336 . S
N276 Zn272 2.020 . S
N276 C275 1.336 . S
N276 N277 1.354 . S
N277 C273 1.336 . S
N277 N276 1.354 . S
N277 Zn281 2.020 . S
C278 O279 1.244 . S
C278 O302 1.257 . S
O279 C278 1.244 . S
O280 Zn272 2.019 . S
O280 C300 1.257 . S
Zn281 N277 2.020 . S
Zn281 O288 1.975 . S
Zn281 N297 2.119 . S
Zn281 O302 2.019 . S
N282 Zn272 2.119 . S
N282 C284 1.334 . S
N282 C285 1.328 . S
C283 C284 1.391 . S
C283 N286 1.329 . S
C283 H304 0.930 . S
C284 N282 1.334 . S
C284 C283 1.391 . S
C284 H291 0.930 . S
C285 N282 1.328 . S
C285 C287 1.392 . S
C285 H292 0.930 . S
N286 C283 1.329 . S
N286 C287 1.331 . S
C287 C285 1.392 . S
C287 N286 1.331 . S
O288 Zn281 1.975 . S
O288 C289 1.252 . S
C289 O288 1.252 . S
C289 O290 1.252 . S
O290 Zn272 1.975 . S
O290 C289 1.252 . S
H291 C284 0.930 . S
H292 C285 0.930 . S
C293 C294 1.392 . S
C293 N297 1.328 . S
C293 H299 0.930 . S
C294 C293 1.392 . S
C294 N298 1.331 . S
C295 C296 1.391 . S
C295 N298 1.329 . S
C295 H305 0.930 . S
C296 C295 1.391 . S
C296 N297 1.334 . S
C296 H303 0.930 . S
N297 Zn281 2.119 . S
N297 C293 1.328 . S
N297 C296 1.334 . S
N298 C294 1.331 . S
N298 C295 1.329 . S
H299 C293 0.930 . S
C300 O280 1.257 . S
C300 O301 1.244 . S
O301 C300 1.244 . S
O302 C278 1.257 . S
O302 Zn281 2.019 . S
H303 C296 0.930 . S
H304 C283 0.930 . S
H305 C295 0.930 . S
Zn306 N310 2.020 . S
Zn306 O314 2.019 . S
Zn306 N316 2.119 . S
Zn306 O324 1.975 . S
C307 N308 1.334 . S
C307 N311 1.336 . S
N308 C307 1.334 . S
N308 C309 1.334 . S
C309 N308 1.334 . S
C309 N310 1.336 . S
N310 Zn306 2.020 . S
N310 C309 1.336 . S
N310 N311 1.354 . S
N311 C307 1.336 . S
N311 N310 1.354 . S
N311 Zn315 2.020 . S
C312 O313 1.244 . S
C312 O336 1.257 . S
O313 C312 1.244 . S
O314 Zn306 2.019 . S
O314 C334 1.257 . S
Zn315 N311 2.020 . S
Zn315 O322 1.975 . S
Zn315 N331 2.119 . S
Zn315 O336 2.019 . S
N316 Zn306 2.119 . S
N316 C318 1.334 . S
N316 C319 1.328 . S
C317 C318 1.391 . S
C317 N320 1.329 . S
C317 H338 0.930 . S
C318 N316 1.334 . S
C318 C317 1.391 . S
C318 H325 0.930 . S
C319 N316 1.328 . S
C319 C321 1.392 . S
C319 H326 0.930 . S
N320 C317 1.329 . S
N320 C321 1.331 . S
C321 C319 1.392 . S
C321 N320 1.331 . S
O322 Zn315 1.975 . S
O322 C323 1.252 . S
C323 O322 1.252 . S
C323 O324 1.252 . S
O324 Zn306 1.975 . S
O324 C323 1.252 . S
H325 C318 0.930 . S
H326 C319 0.930 . S
C327 C328 1.392 . S
C327 N331 1.328 . S
C327 H333 0.930 . S
C328 C327 1.392 . S
C328 N332 1.331 . S
C329 C330 1.391 . S
C329 N332 1.329 . S
C329 H339 0.930 . S
C330 C329 1.391 . S
C330 N331 1.334 . S
C330 H337 0.930 . S
N331 Zn315 2.119 . S
N331 C327 1.328 . S
N331 C330 1.334 . S
N332 C328 1.331 . S
N332 C329 1.329 . S
H333 C327 0.930 . S
C334 O314 1.257 . S
C334 O335 1.244 . S
O335 C334 1.244 . S
O336 C312 1.257 . S
O336 Zn315 2.019 . S
H337 C330 0.930 . S
H338 C317 0.930 . S
H339 C329 0.930 . S
Zn340 N344 2.020 . S
Zn340 O348 2.019 . S
Zn340 N350 2.119 . S
Zn340 O358 1.975 . S
C341 N342 1.334 . S
C341 N345 1.336 . S
N342 C341 1.334 . S
N342 C343 1.334 . S
C343 N342 1.334 . S
C343 N344 1.336 . S
N344 Zn340 2.020 . S
N344 C343 1.336 . S
N344 N345 1.354 . S
N345 C341 1.336 . S
N345 N344 1.354 . S
N345 Zn349 2.020 . S
C346 O347 1.244 . S
C346 O370 1.257 . S
O347 C346 1.244 . S
O348 Zn340 2.019 . S
O348 C368 1.257 . S
Zn349 N345 2.020 . S
Zn349 O356 1.975 . S
Zn349 N365 2.119 . S
Zn349 O370 2.019 . S
N350 Zn340 2.119 . S
N350 C352 1.334 . S
N350 C353 1.328 . S
C351 C352 1.391 . S
C351 N354 1.329 . S
C351 H372 0.930 . S
C352 N350 1.334 . S
C352 C351 1.391 . S
C352 H359 0.930 . S
C353 N350 1.328 . S
C353 C355 1.392 . S
C353 H360 0.930 . S
N354 C351 1.329 . S
N354 C355 1.331 . S
C355 C353 1.392 . S
C355 N354 1.331 . S
O356 Zn349 1.975 . S
O356 C357 1.252 . S
C357 O356 1.252 . S
C357 O358 1.252 . S
O358 Zn340 1.975 . S
O358 C357 1.252 . S
H359 C352 0.930 . S
H360 C353 0.930 . S
C361 C362 1.392 . S
C361 N365 1.328 . S
C361 H367 0.930 . S
C362 C361 1.392 . S
C362 N366 1.331 . S
C363 C364 1.391 . S
C363 N366 1.329 . S
C363 H373 0.930 . S
C364 C363 1.391 . S
C364 N365 1.334 . S
C364 H371 0.930 . S
N365 Zn349 2.119 . S
N365 C361 1.328 . S
N365 C364 1.334 . S
N366 C362 1.331 . S
N366 C363 1.329 . S
H367 C361 0.930 . S
C368 O348 1.257 . S
C368 O369 1.244 . S
O369 C368 1.244 . S
O370 C346 1.257 . S
O370 Zn349 2.019 . S
H371 C364 0.930 . S
H372 C351 0.930 . S
H373 C363 0.930 . S
Zn374 N378 2.020 . S
Zn374 O382 2.019 . S
Zn374 N384 2.119 . S
Zn374 O392 1.975 . S
C375 N376 1.334 . S
C375 N379 1.336 . S
N376 C375 1.334 . S
N376 C377 1.334 . S
C377 N376 1.334 . S
C377 N378 1.336 . S
N378 Zn374 2.020 . S
N378 C377 1.336 . S
N378 N379 1.354 . S
N379 C375 1.336 . S
N379 N378 1.354 . S
N379 Zn383 2.020 . S
C380 O381 1.244 . S
C380 O404 1.257 . S
O381 C380 1.244 . S
O382 Zn374 2.019 . S
O382 C402 1.257 . S
Zn383 N379 2.020 . S
Zn383 O390 1.975 . S
Zn383 N399 2.119 . S
Zn383 O404 2.019 . S
N384 Zn374 2.119 . S
N384 C386 1.334 . S
N384 C387 1.328 . S
C385 C386 1.391 . S
C385 N388 1.329 . S
C385 H406 0.930 . S
C386 N384 1.334 . S
C386 C385 1.391 . S
C386 H393 0.930 . S
C387 N384 1.328 . S
C387 C389 1.392 . S
C387 H394 0.930 . S
N388 C385 1.329 . S
N388 C389 1.331 . S
C389 C387 1.392 . S
C389 N388 1.331 . S
O390 Zn383 1.975 . S
O390 C391 1.252 . S
C391 O390 1.252 . S
C391 O392 1.252 . S
O392 Zn374 1.975 . S
O392 C391 1.252 . S
H393 C386 0.930 . S
H394 C387 0.930 . S
C395 C396 1.392 . S
C395 N399 1.328 . S
C395 H401 0.930 . S
C396 C395 1.392 . S
C396 N400 1.331 . S
C397 C398 1.391 . S
C397 N400 1.329 . S
C397 H407 0.930 . S
C398 C397 1.391 . S
C398 N399 1.334 . S
C398 H405 0.930 . S
N399 Zn383 2.119 . S
N399 C395 1.328 . S
N399 C398 1.334 . S
N400 C396 1.331 . S
N400 C397 1.329 . S
H401 C395 0.930 . S
C402 O382 1.257 . S
C402 O403 1.244 . S
O403 C402 1.244 . S
O404 C380 1.257 . S
O404 Zn383 2.019 . S
H405 C398 0.930 . S
H406 C385 0.930 . S
H407 C397 0.930 . S
Zn408 N412 2.020 . S
Zn408 O416 2.019 . S
Zn408 N418 2.119 . S
Zn408 O426 1.975 . S
C409 N410 1.334 . S
C409 N413 1.336 . S
N410 C409 1.334 . S
N410 C411 1.334 . S
C411 N410 1.334 . S
C411 N412 1.336 . S
N412 Zn408 2.020 . S
N412 C411 1.336 . S
N412 N413 1.354 . S
N413 C409 1.336 . S
N413 N412 1.354 . S
N413 Zn417 2.020 . S
C414 O415 1.244 . S
C414 O438 1.257 . S
O415 C414 1.244 . S
O416 Zn408 2.019 . S
O416 C436 1.257 . S
Zn417 N413 2.020 . S
Zn417 O424 1.975 . S
Zn417 N433 2.119 . S
Zn417 O438 2.019 . S
N418 Zn408 2.119 . S
N418 C420 1.334 . S
N418 C421 1.328 . S
C419 C420 1.391 . S
C419 N422 1.329 1_565 S
C419 H440 0.930 . S
C420 N418 1.334 . S
C420 C419 1.391 . S
C420 H427 0.930 . S
C421 N418 1.328 . S
C421 C423 1.392 1_565 S
C421 H428 0.930 . S
N422 C419 1.329 1_545 S
N422 C423 1.331 . S
C423 C421 1.392 1_545 S
C423 N422 1.331 . S
O424 Zn417 1.975 . S
O424 C425 1.252 . S
C425 O424 1.252 . S
C425 O426 1.252 . S
O426 Zn408 1.975 . S
O426 C425 1.252 . S
H427 C420 0.930 . S
H428 C421 0.930 . S
C429 C430 1.392 . S
C429 N433 1.328 . S
C429 H435 0.930 . S
C430 C429 1.392 . S
C430 N434 1.331 . S
C431 C432 1.391 . S
C431 N434 1.329 . S
C431 H441 0.930 . S
C432 C431 1.391 . S
C432 N433 1.334 . S
C432 H439 0.930 . S
N433 Zn417 2.119 . S
N433 C429 1.328 . S
N433 C432 1.334 . S
N434 C430 1.331 . S
N434 C431 1.329 . S
H435 C429 0.930 . S
C436 O416 1.257 . S
C436 O437 1.244 . S
O437 C436 1.244 . S
O438 C414 1.257 . S
O438 Zn417 2.019 . S
H439 C432 0.930 . S
H440 C419 0.930 . S
H441 C431 0.930 . S
Zn442 N446 2.020 . S
Zn442 O450 2.019 . S
Zn442 N452 2.119 . S
Zn442 O460 1.975 . S
C443 N444 1.334 . S
C443 N447 1.336 . S
N444 C443 1.334 . S
N444 C445 1.334 . S
C445 N444 1.334 . S
C445 N446 1.336 . S
N446 Zn442 2.020 . S
N446 C445 1.336 . S
N446 N447 1.354 . S
N447 C443 1.336 . S
N447 N446 1.354 . S
N447 Zn451 2.020 . S
C448 O449 1.244 . S
C448 O472 1.257 . S
O449 C448 1.244 . S
O450 Zn442 2.019 . S
O450 C470 1.257 . S
Zn451 N447 2.020 . S
Zn451 O458 1.975 . S
Zn451 N467 2.119 . S
Zn451 O472 2.019 . S
N452 Zn442 2.119 . S
N452 C454 1.334 . S
N452 C455 1.328 . S
C453 C454 1.391 . S
C453 N456 1.329 . S
C453 H474 0.930 . S
C454 N452 1.334 . S
C454 C453 1.391 . S
C454 H461 0.930 . S
C455 N452 1.328 . S
C455 C457 1.392 . S
C455 H462 0.930 . S
N456 C453 1.329 . S
N456 C457 1.331 . S
C457 C455 1.392 . S
C457 N456 1.331 . S
O458 Zn451 1.975 . S
O458 C459 1.252 . S
C459 O458 1.252 . S
C459 O460 1.252 . S
O460 Zn442 1.975 . S
O460 C459 1.252 . S
H461 C454 0.930 . S
H462 C455 0.930 . S
C463 C464 1.392 1_655 S
C463 N467 1.328 . S
C463 H469 0.930 . S
C464 C463 1.392 1_455 S
C464 N468 1.331 . S
C465 C466 1.391 . S
C465 N468 1.329 1_655 S
C465 H475 0.930 . S
C466 C465 1.391 . S
C466 N467 1.334 . S
C466 H473 0.930 . S
N467 Zn451 2.119 . S
N467 C463 1.328 . S
N467 C466 1.334 . S
N468 C464 1.331 . S
N468 C465 1.329 1_455 S
H469 C463 0.930 . S
C470 O450 1.257 . S
C470 O471 1.244 . S
O471 C470 1.244 . S
O472 C448 1.257 . S
O472 Zn451 2.019 . S
H473 C466 0.930 . S
H474 C453 0.930 . S
H475 C465 0.930 . S
Zn476 N480 2.020 . S
Zn476 O484 2.019 . S
Zn476 N486 2.119 . S
Zn476 O494 1.975 . S
C477 N478 1.334 . S
C477 N481 1.336 . S
N478 C477 1.334 . S
N478 C479 1.334 . S
C479 N478 1.334 . S
C479 N480 1.336 . S
N480 Zn476 2.020 . S
N480 C479 1.336 . S
N480 N481 1.354 . S
N481 C477 1.336 . S
N481 N480 1.354 . S
N481 Zn485 2.020 . S
C482 O483 1.244 . S
C482 O506 1.257 . S
O483 C482 1.244 . S
O484 Zn476 2.019 . S
O484 C504 1.257 . S
Zn485 N481 2.020 . S
Zn485 O492 1.975 . S
Zn485 N501 2.119 . S
Zn485 O506 2.019 . S
N486 Zn476 2.119 . S
N486 C488 1.334 . S
N486 C489 1.328 . S
C487 C488 1.391 . S
C487 N490 1.329 1_545 S
C487 H508 0.930 . S
C488 N486 1.334 . S
C488 C487 1.391 . S
C488 H495 0.930 . S
C489 N486 1.328 . S
C489 C491 1.392 1_545 S
C489 H496 0.930 . S
N490 C487 1.329 1_565 S
N490 C491 1.331 . S
C491 C489 1.392 1_565 S
C491 N490 1.331 . S
O492 Zn485 1.975 . S
O492 C493 1.252 . S
C493 O492 1.252 . S
C493 O494 1.252 . S
O494 Zn476 1.975 . S
O494 C493 1.252 . S
H495 C488 0.930 . S
H496 C489 0.930 . S
C497 C498 1.392 . S
C497 N501 1.328 . S
C497 H503 0.930 . S
C498 C497 1.392 . S
C498 N502 1.331 . S
C499 C500 1.391 . S
C499 N502 1.329 . S
C499 H509 0.930 . S
C500 C499 1.391 . S
C500 N501 1.334 . S
C500 H507 0.930 . S
N501 Zn485 2.119 . S
N501 C497 1.328 . S
N501 C500 1.334 . S
N502 C498 1.331 . S
N502 C499 1.329 . S
H503 C497 0.930 . S
C504 O484 1.257 . S
C504 O505 1.244 . S
O505 C504 1.244 . S
O506 C482 1.257 . S
O506 Zn485 2.019 . S
H507 C500 0.930 . S
H508 C487 0.930 . S
H509 C499 0.930 . S
Zn510 N514 2.020 . S
Zn510 O518 2.019 . S
Zn510 N520 2.119 . S
Zn510 O528 1.975 . S
C511 N512 1.334 . S
C511 N515 1.336 . S
N512 C511 1.334 . S
N512 C513 1.334 . S
C513 N512 1.334 . S
C513 N514 1.336 . S
N514 Zn510 2.020 . S
N514 C513 1.336 . S
N514 N515 1.354 . S
N515 C511 1.336 . S
N515 N514 1.354 . S
N515 Zn519 2.020 . S
C516 O517 1.244 . S
C516 O540 1.257 . S
O517 C516 1.244 . S
O518 Zn510 2.019 . S
O518 C538 1.257 . S
Zn519 N515 2.020 . S
Zn519 O526 1.975 . S
Zn519 N535 2.119 . S
Zn519 O540 2.019 . S
N520 Zn510 2.119 . S
N520 C522 1.334 . S
N520 C523 1.328 . S
C521 C522 1.391 . S
C521 N524 1.329 . S
C521 H542 0.930 . S
C522 N520 1.334 . S
C522 C521 1.391 . S
C522 H529 0.930 . S
C523 N520 1.328 . S
C523 C525 1.392 . S
C523 H530 0.930 . S
N524 C521 1.329 . S
N524 C525 1.331 . S
C525 C523 1.392 . S
C525 N524 1.331 . S
O526 Zn519 1.975 . S
O526 C527 1.252 . S
C527 O526 1.252 . S
C527 O528 1.252 . S
O528 Zn510 1.975 . S
O528 C527 1.252 . S
H529 C522 0.930 . S
H530 C523 0.930 . S
C531 C532 1.392 1_455 S
C531 N535 1.328 . S
C531 H537 0.930 . S
C532 C531 1.392 1_655 S
C532 N536 1.331 . S
C533 C534 1.391 . S
C533 N536 1.329 1_455 S
C533 H543 0.930 . S
C534 C533 1.391 . S
C534 N535 1.334 . S
C534 H541 0.930 . S
N535 Zn519 2.119 . S
N535 C531 1.328 . S
N535 C534 1.334 . S
N536 C532 1.331 . S
N536 C533 1.329 1_655 S
H537 C531 0.930 . S
C538 O518 1.257 . S
C538 O539 1.244 . S
O539 C538 1.244 . S
O540 C516 1.257 . S
O540 Zn519 2.019 . S
H541 C534 0.930 . S
H542 C521 0.930 . S
H543 C533 0.930 . S
C544 C545 1.369 . S
C544 C546 1.419 . S
C544 H548 0.930 . S
C545 C544 1.369 . S
C545 C554 1.429 . S
C546 C544 1.419 . S
C546 C547 1.363 . S
C546 H549 0.929 . S
C547 C546 1.363 . S
C547 C553 1.428 . S
H548 C544 0.930 . S
H549 C546 0.929 . S
S550 N551 1.613 . S
S550 N552 1.610 . S
N551 S550 1.613 . S
N551 C554 1.350 . S
N552 S550 1.610 . S
N552 C553 1.351 . S
C553 C547 1.428 . S
C553 N552 1.351 . S
C553 C554 1.434 . S
C554 C545 1.429 . S
C554 N551 1.350 . S
C554 C553 1.434 . S
C555 C556 1.369 . S
C555 C557 1.419 . S
C555 H559 0.930 . S
C556 C555 1.369 . S
C556 C565 1.429 . S
C557 C555 1.419 . S
C557 C558 1.363 . S
C557 H560 0.929 . S
C558 C557 1.363 . S
C558 C564 1.428 . S
H559 C555 0.930 . S
H560 C557 0.929 . S
S561 N562 1.613 . S
S561 N563 1.610 . S
N562 S561 1.613 . S
N562 C565 1.350 . S
N563 S561 1.610 . S
N563 C564 1.351 . S
C564 C558 1.428 . S
C564 N563 1.351 . S
C564 C565 1.434 . S
C565 C556 1.429 . S
C565 N562 1.350 . S
C565 C564 1.434 . S
C566 C567 1.369 . S
C566 C568 1.419 . S
C566 H570 0.930 . S
C567 C566 1.369 . S
C567 C576 1.429 . S
C568 C566 1.419 . S
C568 C569 1.363 . S
C568 H571 0.929 . S
C569 C568 1.363 . S
C569 C575 1.428 . S
H570 C566 0.930 . S
H571 C568 0.929 . S
S572 N573 1.613 . S
S572 N574 1.610 . S
N573 S572 1.613 . S
N573 C576 1.350 . S
N574 S572 1.610 . S
N574 C575 1.351 . S
C575 C569 1.428 . S
C575 N574 1.351 . S
C575 C576 1.434 . S
C576 C567 1.429 . S
C576 N573 1.350 . S
C576 C575 1.434 . S
C577 C578 1.369 . S
C577 C579 1.419 . S
C577 H581 0.930 . S
C578 C577 1.369 . S
C578 C587 1.429 . S
C579 C577 1.419 . S
C579 C580 1.363 . S
C579 H582 0.929 . S
C580 C579 1.363 . S
C580 C586 1.428 . S
H581 C577 0.930 . S
H582 C579 0.929 . S
S583 N584 1.613 . S
S583 N585 1.610 . S
N584 S583 1.613 . S
N584 C587 1.350 . S
N585 S583 1.610 . S
N585 C586 1.351 . S
C586 C580 1.428 . S
C586 N585 1.351 . S
C586 C587 1.434 . S
C587 C578 1.429 . S
C587 N584 1.350 . S
C587 C586 1.434 . S
C588 C589 1.369 . S
C588 C590 1.419 . S
C588 H592 0.930 . S
C589 C588 1.369 . S
C589 C598 1.429 . S
C590 C588 1.419 . S
C590 C591 1.363 . S
C590 H593 0.929 . S
C591 C590 1.363 . S
C591 C597 1.428 . S
H592 C588 0.930 . S
H593 C590 0.929 . S
S594 N595 1.613 . S
S594 N596 1.610 . S
N595 S594 1.613 . S
N595 C598 1.350 . S
N596 S594 1.610 . S
N596 C597 1.351 . S
C597 C591 1.428 . S
C597 N596 1.351 . S
C597 C598 1.434 . S
C598 C589 1.429 . S
C598 N595 1.350 . S
C598 C597 1.434 . S
C599 C600 1.369 . S
C599 C601 1.419 . S
C599 H603 0.930 . S
C600 C599 1.369 . S
C600 C609 1.429 . S
C601 C599 1.419 . S
C601 C602 1.363 . S
C601 H604 0.929 . S
C602 C601 1.363 . S
C602 C608 1.428 . S
H603 C599 0.930 . S
H604 C601 0.929 . S
S605 N606 1.613 . S
S605 N607 1.610 . S
N606 S605 1.613 . S
N606 C609 1.350 . S
N607 S605 1.610 . S
N607 C608 1.351 . S
C608 C602 1.428 . S
C608 N607 1.351 . S
C608 C609 1.434 . S
C609 C600 1.429 . S
C609 N606 1.350 . S
C609 C608 1.434 . S
C610 C611 1.369 . S
C610 C612 1.419 . S
C610 H614 0.930 . S
C611 C610 1.369 . S
C611 C620 1.429 . S
C612 C610 1.419 . S
C612 C613 1.363 . S
C612 H615 0.929 . S
C613 C612 1.363 . S
C613 C619 1.428 . S
H614 C610 0.930 . S
H615 C612 0.929 . S
S616 N617 1.613 . S
S616 N618 1.610 . S
N617 S616 1.613 . S
N617 C620 1.350 . S
N618 S616 1.610 . S
N618 C619 1.351 . S
C619 C613 1.428 . S
C619 N618 1.351 . S
C619 C620 1.434 . S
C620 C611 1.429 . S
C620 N617 1.350 . S
C620 C619 1.434 . S
C621 C622 1.369 . S
C621 C623 1.419 . S
C621 H625 0.930 . S
C622 C621 1.369 . S
C622 C631 1.429 . S
C623 C621 1.419 . S
C623 C624 1.363 . S
C623 H626 0.929 . S
C624 C623 1.363 . S
C624 C630 1.428 . S
H625 C621 0.930 . S
H626 C623 0.929 . S
S627 N628 1.613 . S
S627 N629 1.610 . S
N628 S627 1.613 . S
N628 C631 1.350 . S
N629 S627 1.610 . S
N629 C630 1.351 . S
C630 C624 1.428 . S
C630 N629 1.351 . S
C630 C631 1.434 . S
C631 C622 1.429 . S
C631 N628 1.350 . S
C631 C630 1.434 . S
C632 C633 1.369 . S
C632 C634 1.419 . S
C632 H636 0.930 . S
C633 C632 1.369 . S
C633 C642 1.429 . S
C634 C632 1.419 . S
C634 C635 1.363 . S
C634 H637 0.929 . S
C635 C634 1.363 . S
C635 C641 1.428 . S
H636 C632 0.930 . S
H637 C634 0.929 . S
S638 N639 1.613 . S
S638 N640 1.610 . S
N639 S638 1.613 . S
N639 C642 1.350 . S
N640 S638 1.610 . S
N640 C641 1.351 . S
C641 C635 1.428 . S
C641 N640 1.351 . S
C641 C642 1.434 . S
C642 C633 1.429 . S
C642 N639 1.350 . S
C642 C641 1.434 . S
C643 C644 1.369 . S
C643 C645 1.419 . S
C643 H647 0.930 . S
C644 C643 1.369 . S
C644 C653 1.429 . S
C645 C643 1.419 . S
C645 C646 1.363 . S
C645 H648 0.929 . S
C646 C645 1.363 . S
C646 C652 1.428 . S
H647 C643 0.930 . S
H648 C645 0.929 . S
S649 N650 1.613 . S
S649 N651 1.610 . S
N650 S649 1.613 . S
N650 C653 1.350 . S
N651 S649 1.610 . S
N651 C652 1.351 . S
C652 C646 1.428 . S
C652 N651 1.351 . S
C652 C653 1.434 . S
C653 C644 1.429 . S
C653 N650 1.350 . S
C653 C652 1.434 . S
C654 C655 1.369 . S
C654 C656 1.419 . S
C654 H658 0.930 . S
C655 C654 1.369 . S
C655 C664 1.429 . S
C656 C654 1.419 . S
C656 C657 1.363 . S
C656 H659 0.929 . S
C657 C656 1.363 . S
C657 C663 1.428 . S
H658 C654 0.930 . S
H659 C656 0.929 . S
S660 N661 1.613 . S
S660 N662 1.610 . S
N661 S660 1.613 . S
N661 C664 1.350 . S
N662 S660 1.610 . S
N662 C663 1.351 . S
C663 C657 1.428 . S
C663 N662 1.351 . S
C663 C664 1.434 . S
C664 C655 1.429 . S
C664 N661 1.350 . S
C664 C663 1.434 . S
C665 C666 1.369 . S
C665 C667 1.419 . S
C665 H669 0.930 . S
C666 C665 1.369 . S
C666 C675 1.429 . S
C667 C665 1.419 . S
C667 C668 1.363 . S
C667 H670 0.929 . S
C668 C667 1.363 . S
C668 C674 1.428 . S
H669 C665 0.930 . S
H670 C667 0.929 . S
S671 N672 1.613 . S
S671 N673 1.610 . S
N672 S671 1.613 . S
N672 C675 1.350 . S
N673 S671 1.610 . S
N673 C674 1.351 . S
C674 C668 1.428 . S
C674 N673 1.351 . S
C674 C675 1.434 . S
C675 C666 1.429 . S
C675 N672 1.350 . S
C675 C674 1.434 . S
C676 C677 1.369 . S
C676 C678 1.419 . S
C676 H680 0.930 . S
C677 C676 1.369 . S
C677 C686 1.429 . S
C678 C676 1.419 . S
C678 C679 1.363 1_554 S
C678 H681 0.929 1_554 S
C679 C678 1.363 1_556 S
C679 C685 1.428 1_556 S
H680 C676 0.930 . S
H681 C678 0.929 1_556 S
S682 N683 1.613 . S
S682 N684 1.610 . S
N683 S682 1.613 . S
N683 C686 1.350 . S
N684 S682 1.610 . S
N684 C685 1.351 . S
C685 C679 1.428 1_554 S
C685 N684 1.351 . S
C685 C686 1.434 . S
C686 C677 1.429 . S
C686 N683 1.350 . S
C686 C685 1.434 . S
C687 C688 1.369 . S
C687 C689 1.419 . S
C687 H691 0.930 . S
C688 C687 1.369 . S
C688 C697 1.429 . S
C689 C687 1.419 . S
C689 C690 1.363 1_556 S
C689 H692 0.929 . S
C690 C689 1.363 1_554 S
C690 C696 1.428 . S
H691 C687 0.930 . S
H692 C689 0.929 . S
S693 N694 1.613 . S
S693 N695 1.610 1_556 S
N694 S693 1.613 . S
N694 C697 1.350 . S
N695 S693 1.610 1_554 S
N695 C696 1.351 . S
C696 C690 1.428 . S
C696 N695 1.351 . S
C696 C697 1.434 1_554 S
C697 C688 1.429 . S
C697 N694 1.350 . S
C697 C696 1.434 1_556 S
C698 C699 1.369 1_554 S
C698 C700 1.419 . S
C698 H702 0.930 . S
C699 C698 1.369 1_556 S
C699 C708 1.429 . S
C700 C698 1.419 . S
C700 C701 1.363 . S
C700 H703 0.929 . S
C701 C700 1.363 . S
C701 C707 1.428 . S
H702 C698 0.930 . S
H703 C700 0.929 . S
S704 N705 1.613 1_554 S
S704 N706 1.610 . S
N705 S704 1.613 1_556 S
N705 C708 1.350 . S
N706 S704 1.610 . S
N706 C707 1.351 . S
C707 C701 1.428 . S
C707 N706 1.351 . S
C707 C708 1.434 1_554 S
C708 C699 1.429 . S
C708 N705 1.350 . S
C708 C707 1.434 1_556 S
C709 C710 1.369 . S
C709 C711 1.419 . S
C709 H713 0.930 . S
C710 C709 1.369 . S
C710 C719 1.429 . S
C711 C709 1.419 . S
C711 C712 1.363 1_556 S
C711 H714 0.929 1_556 S
C712 C711 1.363 1_554 S
C712 C718 1.428 1_554 S
H713 C709 0.930 . S
H714 C711 0.929 1_554 S
S715 N716 1.613 . S
S715 N717 1.613 . S
N716 S715 1.613 . S
N716 C719 1.350 . S
N717 S715 1.613 . S
N717 C718 1.352 . S
C718 C712 1.428 1_556 S
C718 N717 1.352 . S
C718 C719 1.434 . S
C719 C710 1.429 . S
C719 N716 1.350 . S
C719 C718 1.434 . S
C720 C721 1.369 . S
C720 C722 1.419 . S
C720 H724 0.930 . S
C721 C720 1.369 . S
C721 C730 1.429 . S
C722 C720 1.419 . S
C722 C723 1.363 . S
C722 H725 0.929 . S
C723 C722 1.363 . S
C723 C729 1.428 . S
H724 C720 0.930 . S
H725 C722 0.929 . S
S726 N727 1.613 . S
S726 N728 1.610 . S
N727 S726 1.613 . S
N727 C730 1.350 . S
N728 S726 1.610 . S
N728 C729 1.351 . S
C729 C723 1.428 . S
C729 N728 1.351 . S
C729 C730 1.434 . S
C730 C721 1.429 . S
C730 N727 1.350 . S
C730 C729 1.434 . S
C731 C732 1.369 . S
C731 C733 1.419 . S
C731 H735 0.930 . S
C732 C731 1.369 . S
C732 C741 1.429 . S
C733 C731 1.419 . S
C733 C734 1.363 . S
C733 H736 0.929 . S
C734 C733 1.363 . S
C734 C740 1.428 . S
H735 C731 0.930 . S
H736 C733 0.929 . S
S737 N738 1.613 . S
S737 N739 1.610 . S
N738 S737 1.613 . S
N738 C741 1.350 . S
N739 S737 1.610 . S
N739 C740 1.351 . S
C740 C734 1.428 . S
C740 N739 1.351 . S
C740 C741 1.434 . S
C741 C732 1.429 . S
C741 N738 1.350 . S
C741 C740 1.434 . S
C742 C743 1.369 . S
C742 C744 1.419 . S
C742 H746 0.930 . S
C743 C742 1.369 . S
C743 C752 1.429 . S
C744 C742 1.419 . S
C744 C745 1.363 . S
C744 H747 0.929 . S
C745 C744 1.363 . S
C745 C751 1.428 . S
H746 C742 0.930 . S
H747 C744 0.929 . S
S748 N749 1.613 . S
S748 N750 1.610 . S
N749 S748 1.613 . S
N749 C752 1.350 . S
N750 S748 1.610 . S
N750 C751 1.351 . S
C751 C745 1.428 . S
C751 N750 1.351 . S
C751 C752 1.434 . S
C752 C743 1.429 . S
C752 N749 1.350 . S
C752 C751 1.434 . S
C753 C754 1.369 . S
C753 C755 1.419 . S
C753 H757 0.930 . S
C754 C753 1.369 . S
C754 C763 1.429 . S
C755 C753 1.419 . S
C755 C756 1.363 . S
C755 H758 0.929 . S
C756 C755 1.363 . S
C756 C762 1.428 . S
H757 C753 0.930 . S
H758 C755 0.929 . S
S759 N760 1.613 . S
S759 N761 1.610 . S
N760 S759 1.613 . S
N760 C763 1.350 . S
N761 S759 1.610 . S
N761 C762 1.351 . S
C762 C756 1.428 . S
C762 N761 1.351 . S
C762 C763 1.434 . S
C763 C754 1.429 . S
C763 N760 1.350 . S
C763 C762 1.434 . S
C764 C765 1.369 1_554 S
C764 C766 1.419 . S
C764 H768 0.930 . S
C765 C764 1.369 1_556 S
C765 C774 1.429 . S
C766 C764 1.419 . S
C766 C767 1.363 1_554 S
C766 H769 0.929 . S
C767 C766 1.363 1_556 S
C767 C773 1.428 . S
H768 C764 0.930 . S
H769 C766 0.929 . S
S770 N771 1.613 . S
S770 N772 1.610 . S
N771 S770 1.613 . S
N771 C774 1.350 . S
N772 S770 1.610 . S
N772 C773 1.351 . S
C773 C767 1.428 . S
C773 N772 1.351 . S
C773 C774 1.434 . S
C774 C765 1.429 . S
C774 N771 1.350 . S
C774 C773 1.434 . S
C775 C776 1.369 . S
C775 C777 1.419 . S
C775 H779 0.930 . S
C776 C775 1.369 . S
C776 C785 1.429 . S
C777 C775 1.419 . S
C777 C778 1.363 . S
C777 H780 0.929 . S
C778 C777 1.363 . S
C778 C784 1.428 1_554 S
H779 C775 0.930 . S
H780 C777 0.929 . S
S781 N782 1.613 . S
S781 N783 1.610 . S
N782 S781 1.613 . S
N782 C785 1.350 1_556 S
N783 S781 1.610 . S
N783 C784 1.351 . S
C784 C778 1.428 1_556 S
C784 N783 1.351 . S
C784 C785 1.434 1_556 S
C785 C776 1.429 . S
C785 N782 1.350 1_554 S
C785 C784 1.434 1_554 S
C786 C787 1.369 . S
C786 C788 1.419 . S
C786 H790 0.930 . S
C787 C786 1.369 . S
C787 C796 1.429 1_556 S
C788 C786 1.419 . S
C788 C789 1.363 . S
C788 H791 0.929 . S
C789 C788 1.363 . S
C789 C795 1.428 1_556 S
H790 C786 0.930 . S
H791 C788 0.929 . S
S792 N793 1.613 . S
S792 N794 1.610 . S
N793 S792 1.613 . S
N793 C796 1.350 . S
N794 S792 1.610 . S
N794 C795 1.351 . S
C795 C789 1.428 1_554 S
C795 N794 1.351 . S
C795 C796 1.434 . S
C796 C787 1.429 1_554 S
C796 N793 1.350 . S
C796 C795 1.434 . S
C797 C798 1.363 1_556 S
C797 C799 1.419 . S
C797 H801 0.936 . S
C798 C797 1.363 1_554 S
C798 C807 1.429 . S
C799 C797 1.419 . S
C799 C800 1.363 1_556 S
C799 H802 0.929 . S
C800 C799 1.363 1_554 S
C800 C806 1.428 . S
H801 C797 0.936 . S
H802 C799 0.929 . S
S803 N804 1.613 . S
S803 N805 1.610 . S
N804 S803 1.613 . S
N804 C807 1.350 . S
N805 S803 1.610 . S
N805 C806 1.351 . S
C806 C800 1.428 . S
C806 N805 1.351 . S
C806 C807 1.434 . S
C807 C798 1.429 . S
C807 N804 1.350 . S
C807 C806 1.434 . S
C808 C809 1.369 . S
C808 C810 1.419 . S
C808 H812 0.930 . S
C809 C808 1.369 . S
C809 C818 1.429 . S
C810 C808 1.419 . S
C810 C811 1.363 . S
C810 H813 0.929 . S
C811 C810 1.363 . S
C811 C817 1.428 . S
H812 C808 0.930 . S
H813 C810 0.929 . S
S814 N815 1.613 . S
S814 N816 1.610 . S
N815 S814 1.613 . S
N815 C818 1.350 . S
N816 S814 1.610 . S
N816 C817 1.351 . S
C817 C811 1.428 . S
C817 N816 1.351 . S
C817 C818 1.434 . S
C818 C809 1.429 . S
C818 N815 1.350 . S
C818 C817 1.434 . S
C819 C820 1.369 . S
C819 C821 1.419 . S
C819 H823 0.930 . S
C820 C819 1.369 . S
C820 C829 1.429 . S
C821 C819 1.419 . S
C821 C822 1.363 . S
C821 H824 0.929 . S
C822 C821 1.363 . S
C822 C828 1.428 . S
H823 C819 0.930 . S
H824 C821 0.929 . S
S825 N826 1.613 . S
S825 N827 1.610 . S
N826 S825 1.613 . S
N826 C829 1.350 . S
N827 S825 1.610 . S
N827 C828 1.351 . S
C828 C822 1.428 . S
C828 N827 1.351 . S
C828 C829 1.434 . S
C829 C820 1.429 . S
C829 N826 1.350 . S
C829 C828 1.434 . S
C830 C831 1.369 . S
C830 C832 1.419 . S
C830 H834 0.930 . S
C831 C830 1.369 . S
C831 C840 1.429 . S
C832 C830 1.419 . S
C832 C833 1.363 . S
C832 H835 0.929 . S
C833 C832 1.363 . S
C833 C839 1.428 . S
H834 C830 0.930 . S
H835 C832 0.929 . S
S836 N837 1.613 1_554 S
S836 N838 1.610 1_554 S
N837 S836 1.613 1_556 S
N837 C840 1.350 . S
N838 S836 1.610 1_556 S
N838 C839 1.351 . S
C839 C833 1.428 . S
C839 N838 1.351 . S
C839 C840 1.434 . S
C840 C831 1.429 . S
C840 N837 1.350 . S
C840 C839 1.434 . S
C841 C842 1.369 . S
C841 C843 1.419 . S
C841 H845 0.930 . S
C842 C841 1.369 . S
C842 C851 1.429 . S
C843 C841 1.419 . S
C843 C844 1.363 . S
C843 H846 0.929 . S
C844 C843 1.363 . S
C844 C850 1.428 . S
H845 C841 0.930 . S
H846 C843 0.929 . S
S847 N848 1.613 . S
S847 N849 1.610 . S
N848 S847 1.613 . S
N848 C851 1.350 . S
N849 S847 1.610 . S
N849 C850 1.351 . S
C850 C844 1.428 . S
C850 N849 1.351 . S
C850 C851 1.434 . S
C851 C842 1.429 . S
C851 N848 1.350 . S
C851 C850 1.434 . S
C852 C853 1.369 . S
C852 C854 1.419 . S
C852 H856 0.930 . S
C853 C852 1.369 . S
C853 C862 1.429 . S
C854 C852 1.419 . S
C854 C855 1.363 . S
C854 H857 0.929 . S
C855 C854 1.363 . S
C855 C861 1.428 . S
H856 C852 0.930 . S
H857 C854 0.929 . S
S858 N859 1.613 . S
S858 N860 1.610 . S
N859 S858 1.613 . S
N859 C862 1.350 . S
N860 S858 1.610 . S
N860 C861 1.351 . S
C861 C855 1.428 . S
C861 N860 1.351 . S
C861 C862 1.434 . S
C862 C853 1.429 . S
C862 N859 1.350 . S
C862 C861 1.434 . S
C863 C864 1.369 . S
C863 C865 1.419 . S
C863 H867 0.930 . S
C864 C863 1.369 . S
C864 C873 1.429 . S
C865 C863 1.419 . S
C865 C866 1.363 . S
C865 H868 0.929 . S
C866 C865 1.363 . S
C866 C872 1.428 . S
H867 C863 0.930 . S
H868 C865 0.929 . S
S869 N870 1.613 . S
S869 N871 1.610 . S
N870 S869 1.613 . S
N870 C873 1.350 . S
N871 S869 1.610 . S
N871 C872 1.351 . S
C872 C866 1.428 . S
C872 N871 1.351 . S
C872 C873 1.434 . S
C873 C864 1.429 . S
C873 N870 1.350 . S
C873 C872 1.434 . S
C874 C875 1.369 . S
C874 C876 1.419 . S
C874 H878 0.930 . S
C875 C874 1.369 . S
C875 C884 1.429 . S
C876 C874 1.419 . S
C876 C877 1.363 . S
C876 H879 0.929 . S
C877 C876 1.363 . S
C877 C883 1.428 . S
H878 C874 0.930 . S
H879 C876 0.929 . S
S880 N881 1.613 . S
S880 N882 1.610 . S
N881 S880 1.613 . S
N881 C884 1.350 . S
N882 S880 1.610 . S
N882 C883 1.351 . S
C883 C877 1.428 . S
C883 N882 1.351 . S
C883 C884 1.434 . S
C884 C875 1.429 . S
C884 N881 1.350 . S
C884 C883 1.434 . S
C885 C886 1.369 . S
C885 C887 1.419 . S
C885 H889 0.930 . S
C886 C885 1.369 . S
C886 C895 1.429 . S
C887 C885 1.419 . S
C887 C888 1.363 . S
C887 H890 0.929 . S
C888 C887 1.363 . S
C888 C894 1.428 . S
H889 C885 0.930 . S
H890 C887 0.929 . S
S891 N892 1.613 . S
S891 N893 1.610 . S
N892 S891 1.613 . S
N892 C895 1.350 . S
N893 S891 1.610 . S
N893 C894 1.351 . S
C894 C888 1.428 . S
C894 N893 1.351 . S
C894 C895 1.434 . S
C895 C886 1.429 . S
C895 N892 1.350 . S
C895 C894 1.434 . S
C896 C897 1.369 . S
C896 C898 1.419 . S
C896 H900 0.930 1_554 S
C897 C896 1.369 . S
C897 C906 1.429 . S
C898 C896 1.419 . S
C898 C899 1.363 . S
C898 H901 0.929 . S
C899 C898 1.363 . S
C899 C905 1.428 . S
H900 C896 0.930 1_556 S
H901 C898 0.929 . S
S902 N903 1.613 . S
S902 N904 1.610 . S
N903 S902 1.613 . S
N903 C906 1.350 . S
N904 S902 1.610 . S
N904 C905 1.351 . S
C905 C899 1.428 . S
C905 N904 1.351 . S
C905 C906 1.434 . S
C906 C897 1.429 . S
C906 N903 1.350 . S
C906 C905 1.434 . S
C907 C908 1.369 . S
C907 C909 1.419 . S
C907 H911 0.930 . S
C908 C907 1.369 . S
C908 C917 1.429 . S
C909 C907 1.419 . S
C909 C910 1.363 . S
C909 H912 0.929 . S
C910 C909 1.363 . S
C910 C916 1.428 . S
H911 C907 0.930 . S
H912 C909 0.929 . S
S913 N914 1.613 1_554 S
S913 N915 1.610 . S
N914 S913 1.613 1_556 S
N914 C917 1.350 . S
N915 S913 1.610 . S
N915 C916 1.351 1_554 S
C916 C910 1.428 . S
C916 N915 1.351 1_556 S
C916 C917 1.434 . S
C917 C908 1.429 . S
C917 N914 1.350 . S
C917 C916 1.434 . S
C918 C919 1.369 . S
C918 C920 1.419 . S
C918 H922 0.930 . S
C919 C918 1.369 . S
C919 C928 1.429 . S
C920 C918 1.419 . S
C920 C921 1.363 . S
C920 H923 0.929 . S
C921 C920 1.363 . S
C921 C927 1.428 . S
H922 C918 0.930 . S
H923 C920 0.929 . S
S924 N925 1.613 1_556 S
S924 N926 1.610 . S
N925 S924 1.613 1_554 S
N925 C928 1.350 . S
N926 S924 1.610 . S
N926 C927 1.351 1_556 S
C927 C921 1.428 . S
C927 N926 1.351 1_554 S
C927 C928 1.434 . S
C928 C919 1.429 . S
C928 N925 1.350 . S
C928 C927 1.434 . S
C929 C930 1.369 . S
C929 C931 1.419 . S
C929 H933 0.930 . S
C930 C929 1.369 . S
C930 C939 1.429 . S
C931 C929 1.419 . S
C931 C932 1.363 . S
C931 H934 0.929 . S
C932 C931 1.363 . S
C932 C938 1.428 . S
H933 C929 0.930 . S
H934 C931 0.929 . S
S935 N936 1.613 1_554 S
S935 N937 1.610 . S
N936 S935 1.613 1_556 S
N936 C939 1.350 . S
N937 S935 1.610 . S
N937 C938 1.351 1_554 S
C938 C932 1.428 . S
C938 N937 1.351 1_556 S
C938 C939 1.434 . S
C939 C930 1.429 . S
C939 N936 1.350 . S
C939 C938 1.434 . S
C940 C941 1.369 . S
C940 C942 1.419 . S
C940 H944 0.930 . S
C941 C940 1.369 . S
C941 C950 1.429 . S
C942 C940 1.419 . S
C942 C943 1.363 . S
C942 H945 0.929 . S
C943 C942 1.363 . S
C943 C949 1.428 . S
H944 C940 0.930 . S
H945 C942 0.929 . S
S946 N947 1.613 . S
S946 N948 1.610 . S
N947 S946 1.613 . S
N947 C950 1.350 . S
N948 S946 1.610 . S
N948 C949 1.351 . S
C949 C943 1.428 . S
C949 N948 1.351 . S
C949 C950 1.434 . S
C950 C941 1.429 . S
C950 N947 1.350 . S
C950 C949 1.434 . S
C951 C952 1.369 . S
C951 C953 1.419 . S
C951 H955 0.930 . S
C952 C951 1.369 . S
C952 C961 1.429 . S
C953 C951 1.419 . S
C953 C954 1.363 . S
C953 H956 0.929 . S
C954 C953 1.363 . S
C954 C960 1.428 . S
H955 C951 0.930 . S
H956 C953 0.929 . S
S957 N958 1.613 . S
S957 N959 1.610 . S
N958 S957 1.613 . S
N958 C961 1.350 . S
N959 S957 1.610 . S
N959 C960 1.351 . S
C960 C954 1.428 . S
C960 N959 1.351 . S
C960 C961 1.434 . S
C961 C952 1.429 . S
C961 N958 1.350 . S
C961 C960 1.434 . S
C962 C963 1.369 . S
C962 C964 1.419 . S
C962 H966 0.930 . S
C963 C962 1.369 . S
C963 C972 1.429 . S
C964 C962 1.419 . S
C964 C965 1.363 . S
C964 H967 0.929 . S
C965 C964 1.363 . S
C965 C971 1.428 . S
H966 C962 0.930 . S
H967 C964 0.929 . S
S968 N969 1.613 . S
S968 N970 1.610 . S
N969 S968 1.613 . S
N969 C972 1.350 . S
N970 S968 1.610 . S
N970 C971 1.351 . S
C971 C965 1.428 . S
C971 N970 1.351 . S
C971 C972 1.434 . S
C972 C963 1.429 . S
C972 N969 1.350 . S
C972 C971 1.434 . S
C973 C974 1.369 . S
C973 C975 1.419 . S
C973 H977 0.930 . S
C974 C973 1.369 . S
C974 C983 1.429 . S
C975 C973 1.419 . S
C975 C976 1.363 . S
C975 H978 0.929 . S
C976 C975 1.363 . S
C976 C982 1.428 . S
H977 C973 0.930 . S
H978 C975 0.929 . S
S979 N980 1.613 . S
S979 N981 1.610 . S
N980 S979 1.613 . S
N980 C983 1.350 . S
N981 S979 1.610 . S
N981 C982 1.351 . S
C982 C976 1.428 . S
C982 N981 1.351 . S
C982 C983 1.434 . S
C983 C974 1.429 . S
C983 N980 1.350 . S
C983 C982 1.434 . S
C984 C985 1.369 . S
C984 C986 1.419 . S
C984 H988 0.930 . S
C985 C984 1.369 . S
C985 C994 1.429 . S
C986 C984 1.419 . S
C986 C987 1.363 . S
C986 H989 0.929 . S
C987 C986 1.363 . S
C987 C993 1.428 . S
H988 C984 0.930 . S
H989 C986 0.929 . S
S990 N991 1.613 . S
S990 N992 1.610 . S
N991 S990 1.613 . S
N991 C994 1.350 . S
N992 S990 1.610 . S
N992 C993 1.351 . S
C993 C987 1.428 . S
C993 N992 1.351 . S
C993 C994 1.434 . S
C994 C985 1.429 . S
C994 N991 1.350 . S
C994 C993 1.434 . S
C995 C996 1.369 . S
C995 C997 1.419 . S
C995 H999 0.930 . S
C996 C995 1.369 . S
C996 C1005 1.429 . S
C997 C995 1.419 . S
C997 C998 1.363 . S
C997 H1000 0.929 . S
C998 C997 1.363 . S
C998 C1004 1.428 . S
H999 C995 0.930 . S
H1000 C997 0.929 . S
S1001 N1002 1.613 . S
S1001 N1003 1.610 . S
N1002 S1001 1.613 . S
N1002 C1005 1.350 . S
N1003 S1001 1.610 . S
N1003 C1004 1.351 . S
C1004 C998 1.428 . S
C1004 N1003 1.351 . S
C1004 C1005 1.434 . S
C1005 C996 1.429 . S
C1005 N1002 1.350 . S
C1005 C1004 1.434 . S
C1006 C1007 1.369 . S
C1006 C1008 1.419 . S
C1006 H1010 0.930 . S
C1007 C1006 1.369 . S
C1007 C1016 1.429 . S
C1008 C1006 1.419 . S
C1008 C1009 1.363 . S
C1008 H1011 0.929 . S
C1009 C1008 1.363 . S
C1009 C1015 1.428 . S
H1010 C1006 0.930 . S
H1011 C1008 0.929 . S
S1012 N1013 1.613 . S
S1012 N1014 1.610 . S
N1013 S1012 1.613 . S
N1013 C1016 1.350 . S
N1014 S1012 1.610 . S
N1014 C1015 1.351 . S
C1015 C1009 1.428 . S
C1015 N1014 1.351 . S
C1015 C1016 1.434 . S
C1016 C1007 1.429 . S
C1016 N1013 1.350 . S
C1016 C1015 1.434 . S
C1017 C1018 1.369 . S
C1017 C1019 1.419 . S
C1017 H1021 0.930 . S
C1018 C1017 1.369 . S
C1018 C1027 1.429 . S
C1019 C1017 1.419 . S
C1019 C1020 1.363 . S
C1019 H1022 0.929 . S
C1020 C1019 1.363 . S
C1020 C1026 1.428 . S
H1021 C1017 0.930 . S
H1022 C1019 0.929 . S
S1023 N1024 1.613 . S
S1023 N1025 1.610 . S
N1024 S1023 1.613 . S
N1024 C1027 1.350 . S
N1025 S1023 1.610 . S
N1025 C1026 1.351 . S
C1026 C1020 1.428 . S
C1026 N1025 1.351 . S
C1026 C1027 1.434 . S
C1027 C1018 1.429 . S
C1027 N1024 1.350 . S
C1027 C1026 1.434 . S
C1028 C1029 1.369 . S
C1028 C1030 1.419 . S
C1028 H1032 0.930 . S
C1029 C1028 1.369 . S
C1029 C1038 1.429 . S
C1030 C1028 1.419 . S
C1030 C1031 1.363 . S
C1030 H1033 0.929 . S
C1031 C1030 1.363 . S
C1031 C1037 1.428 . S
H1032 C1028 0.930 . S
H1033 C1030 0.929 . S
S1034 N1035 1.613 . S
S1034 N1036 1.610 1_554 S
N1035 S1034 1.613 . S
N1035 C1038 1.350 1_554 S
N1036 S1034 1.610 1_556 S
N1036 C1037 1.351 . S
C1037 C1031 1.428 . S
C1037 N1036 1.351 . S
C1037 C1038 1.434 . S
C1038 C1029 1.429 . S
C1038 N1035 1.350 1_556 S
C1038 C1037 1.434 . S
C1039 C1040 1.369 . S
C1039 C1041 1.419 . S
C1039 H1043 0.930 . S
C1040 C1039 1.369 . S
C1040 C1049 1.429 . S
C1041 C1039 1.419 . S
C1041 C1042 1.363 . S
C1041 H1044 0.929 1_554 S
C1042 C1041 1.363 . S
C1042 C1048 1.428 . S
H1043 C1039 0.930 . S
H1044 C1041 0.929 1_556 S
S1045 N1046 1.613 . S
S1045 N1047 1.610 . S
N1046 S1045 1.613 . S
N1046 C1049 1.350 . S
N1047 S1045 1.610 . S
N1047 C1048 1.351 . S
C1048 C1042 1.428 . S
C1048 N1047 1.351 . S
C1048 C1049 1.434 . S
C1049 C1040 1.429 . S
C1049 N1046 1.350 . S
C1049 C1048 1.434 . S
C1050 C1051 1.369 . S
C1050 C1052 1.419 . S
C1050 H1054 0.930 . S
C1051 C1050 1.369 . S
C1051 C1060 1.429 . S
C1052 C1050 1.419 . S
C1052 C1053 1.363 . S
C1052 H1055 0.929 . S
C1053 C1052 1.363 . S
C1053 C1059 1.428 . S
H1054 C1050 0.930 . S
H1055 C1052 0.929 . S
S1056 N1057 1.613 . S
S1056 N1058 1.610 1_554 S
N1057 S1056 1.613 . S
N1057 C1060 1.350 1_554 S
N1058 S1056 1.610 1_556 S
N1058 C1059 1.351 . S
C1059 C1053 1.428 . S
C1059 N1058 1.351 . S
C1059 C1060 1.434 . S
C1060 C1051 1.429 . S
C1060 N1057 1.350 1_556 S
C1060 C1059 1.434 . S
C1061 C1062 1.369 . S
C1061 C1063 1.419 . S
C1061 H1065 0.930 . S
C1062 C1061 1.369 . S
C1062 C1071 1.429 . S
C1063 C1061 1.419 . S
C1063 C1064 1.363 . S
C1063 H1066 0.929 . S
C1064 C1063 1.363 . S
C1064 C1070 1.428 . S
H1065 C1061 0.930 . S
H1066 C1063 0.929 . S
S1067 N1068 1.613 . S
S1067 N1069 1.610 1_556 S
N1068 S1067 1.613 . S
N1068 C1071 1.350 1_556 S
N1069 S1067 1.610 1_554 S
N1069 C1070 1.351 . S
C1070 C1064 1.428 . S
C1070 N1069 1.351 . S
C1070 C1071 1.434 . S
C1071 C1062 1.429 . S
C1071 N1068 1.350 1_554 S
C1071 C1070 1.434 . S
C1072 C1073 1.369 . S
C1072 C1074 1.419 . S
C1072 H1076 0.930 . S
C1073 C1072 1.369 . S
C1073 C1082 1.429 . S
C1074 C1072 1.419 . S
C1074 C1075 1.363 . S
C1074 H1077 0.929 . S
C1075 C1074 1.363 . S
C1075 C1081 1.428 . S
H1076 C1072 0.930 . S
H1077 C1074 0.929 . S
S1078 N1079 1.613 . S
S1078 N1080 1.610 1_554 S
N1079 S1078 1.613 . S
N1079 C1082 1.350 1_554 S
N1080 S1078 1.610 1_556 S
N1080 C1081 1.351 . S
C1081 C1075 1.428 . S
C1081 N1080 1.351 . S
C1081 C1082 1.434 . S
C1082 C1073 1.429 . S
C1082 N1079 1.350 1_556 S
C1082 C1081 1.434 . S
C1083 C1084 1.369 . S
C1083 C1085 1.419 . S
C1083 H1087 0.930 1_554 S
C1084 C1083 1.369 . S
C1084 C1093 1.429 . S
C1085 C1083 1.419 . S
C1085 C1086 1.363 . S
C1085 H1088 0.929 . S
C1086 C1085 1.363 . S
C1086 C1092 1.428 . S
H1087 C1083 0.930 1_556 S
H1088 C1085 0.929 . S
S1089 N1090 1.613 . S
S1089 N1091 1.610 . S
N1090 S1089 1.613 . S
N1090 C1093 1.350 . S
N1091 S1089 1.610 . S
N1091 C1092 1.351 . S
C1092 C1086 1.428 . S
C1092 N1091 1.351 . S
C1092 C1093 1.434 . S
C1093 C1084 1.429 . S
C1093 N1090 1.350 . S
C1093 C1092 1.434 . S
C1094 C1095 1.369 . S
C1094 C1096 1.419 . S
C1094 H1098 0.930 . S
C1095 C1094 1.369 . S
C1095 C1104 1.429 . S
C1096 C1094 1.419 . S
C1096 C1097 1.363 . S
C1096 H1099 0.929 . S
C1097 C1096 1.363 . S
C1097 C1103 1.428 . S
H1098 C1094 0.930 . S
H1099 C1096 0.929 . S
S1100 N1101 1.613 . S
S1100 N1102 1.610 . S
N1101 S1100 1.613 . S
N1101 C1104 1.350 . S
N1102 S1100 1.610 . S
N1102 C1103 1.351 . S
C1103 C1097 1.428 . S
C1103 N1102 1.351 . S
C1103 C1104 1.434 . S
C1104 C1095 1.429 . S
C1104 N1101 1.350 . S
C1104 C1103 1.434 . S
C1105 C1106 1.369 . S
C1105 C1107 1.419 . S
C1105 H1109 0.930 . S
C1106 C1105 1.369 . S
C1106 C1115 1.429 . S
C1107 C1105 1.419 . S
C1107 C1108 1.363 . S
C1107 H1110 0.929 . S
C1108 C1107 1.363 . S
C1108 C1114 1.428 . S
H1109 C1105 0.930 . S
H1110 C1107 0.929 . S
S1111 N1112 1.613 . S
S1111 N1113 1.610 . S
N1112 S1111 1.613 . S
N1112 C1115 1.350 . S
N1113 S1111 1.610 . S
N1113 C1114 1.351 . S
C1114 C1108 1.428 . S
C1114 N1113 1.351 . S
C1114 C1115 1.434 . S
C1115 C1106 1.429 . S
C1115 N1112 1.350 . S
C1115 C1114 1.434 . S
C1116 C1117 1.369 . S
C1116 C1118 1.419 . S
C1116 H1120 0.930 . S
C1117 C1116 1.369 . S
C1117 C1126 1.429 . S
C1118 C1116 1.419 . S
C1118 C1119 1.363 . S
C1118 H1121 0.929 . S
C1119 C1118 1.363 . S
C1119 C1125 1.428 . S
H1120 C1116 0.930 . S
H1121 C1118 0.929 . S
S1122 N1123 1.613 . S
S1122 N1124 1.610 . S
N1123 S1122 1.613 . S
N1123 C1126 1.350 . S
N1124 S1122 1.610 . S
N1124 C1125 1.351 . S
C1125 C1119 1.428 . S
C1125 N1124 1.351 . S
C1125 C1126 1.434 . S
C1126 C1117 1.429 . S
C1126 N1123 1.350 . S
C1126 C1125 1.434 . S
C1127 C1128 1.369 . S
C1127 C1129 1.419 . S
C1127 H1131 0.930 . S
C1128 C1127 1.369 . S
C1128 C1137 1.429 . S
C1129 C1127 1.419 . S
C1129 C1130 1.363 . S
C1129 H1132 0.929 . S
C1130 C1129 1.363 . S
C1130 C1136 1.428 . S
H1131 C1127 0.930 . S
H1132 C1129 0.929 . S
S1133 N1134 1.613 . S
S1133 N1135 1.610 . S
N1134 S1133 1.613 . S
N1134 C1137 1.350 . S
N1135 S1133 1.610 . S
N1135 C1136 1.351 . S
C1136 C1130 1.428 . S
C1136 N1135 1.351 . S
C1136 C1137 1.434 . S
C1137 C1128 1.429 . S
C1137 N1134 1.350 . S
C1137 C1136 1.434 . S
C1138 C1139 1.369 . S
C1138 C1140 1.419 . S
C1138 H1142 0.930 . S
C1139 C1138 1.369 . S
C1139 C1148 1.429 . S
C1140 C1138 1.419 . S
C1140 C1141 1.363 . S
C1140 H1143 0.929 . S
C1141 C1140 1.363 . S
C1141 C1147 1.428 . S
H1142 C1138 0.930 . S
H1143 C1140 0.929 . S
S1144 N1145 1.613 . S
S1144 N1146 1.610 . S
N1145 S1144 1.613 . S
N1145 C1148 1.350 . S
N1146 S1144 1.610 . S
N1146 C1147 1.351 . S
C1147 C1141 1.428 . S
C1147 N1146 1.351 . S
C1147 C1148 1.434 . S
C1148 C1139 1.429 . S
C1148 N1145 1.350 . S
C1148 C1147 1.434 . S
C1149 C1150 1.369 . S
C1149 C1151 1.419 . S
C1149 H1153 0.930 . S
C1150 C1149 1.369 . S
C1150 C1159 1.429 . S
C1151 C1149 1.419 . S
C1151 C1152 1.363 . S
C1151 H1154 0.929 . S
C1152 C1151 1.363 . S
C1152 C1158 1.428 . S
H1153 C1149 0.930 . S
H1154 C1151 0.929 . S
S1155 N1156 1.613 . S
S1155 N1157 1.610 . S
N1156 S1155 1.613 . S
N1156 C1159 1.350 . S
N1157 S1155 1.610 . S
N1157 C1158 1.351 . S
C1158 C1152 1.428 . S
C1158 N1157 1.351 . S
C1158 C1159 1.434 . S
C1159 C1150 1.429 . S
C1159 N1156 1.350 . S
C1159 C1158 1.434 . S
C545 C28 1.372 . S
C547 C6 1.394 . S
C556 C62 1.390 . S
C558 C40 1.377 . S
C567 C96 1.377 . S
C569 C74 1.391 . S
C578 C130 1.391 . S
C580 C108 1.377 . S
C589 C142 1.390 . S
C591 C164 1.376 . S
C600 C176 1.391 . S
C602 C198 1.377 . S
C611 C210 1.393 . S
C613 C232 1.374 . S
C622 C266 1.372 . S
C624 C244 1.394 . S
C633 C278 1.393 1_554 S
C635 C300 1.375 . S
C644 C334 1.392 1_556 S
C646 C312 1.375 . S
C655 C368 1.371 . S
C657 C346 1.394 1_554 S
C666 C380 1.378 . S
C668 C402 1.391 1_556 S
C677 C436 1.391 . S
C679 C414 1.376 . S
C688 C448 1.394 . S
C690 C470 1.373 . S
C699 C482 1.372 . S
C701 C504 1.394 . S
C710 C516 1.392 . S
C712 C538 1.374 . S
C721 C391 1.681 . S
C723 C22 1.544 . S
C732 C289 1.681 . S
C734 C49 1.538 . S
C743 C323 1.682 . S
C745 C90 1.543 . S
C754 C357 1.682 . S
C756 C117 1.537 . S
C765 C158 1.547 . S
C767 C187 1.680 . S
C776 C192 1.538 . S
C778 C221 1.682 . S
C787 C226 1.539 . S
C789 C255 1.680 . S
C798 C260 1.548 . S
C800 C153 1.680 . S
C809 C294 1.547 . S
C811 C119 1.679 . S
C820 C17 1.683 . S
C822 C321 1.538 . S
C831 C362 1.548 . S
C833 C51 1.679 . S
C842 C389 1.544 . S
C844 C85 1.679 . S
C853 C423 1.535 . S
C855 C459 1.682 . S
C864 C493 1.682 . S
C866 C464 1.543 . S
C875 C491 1.538 . S
C877 C527 1.682 . S
C886 C532 1.545 . S
C888 C425 1.681 . S
C897 C15 1.577 . S
C899 C151 1.590 . S
C908 C185 1.578 . S
C910 C56 1.590 . S
C919 C219 1.577 . S
C921 C83 1.590 . S
C930 C253 1.582 . S
C932 C124 1.587 . S
C941 C430 1.592 . S
C943 C287 1.579 . S
C952 C328 1.588 . S
C954 C457 1.582 . S
C963 C355 1.577 . S
C965 C498 1.590 . S
C974 C396 1.576 . S
C976 C525 1.590 . S
C985 C1 1.522 . S
C987 C479 1.517 . S
C996 C37 1.516 . S
C998 C511 1.523 . S
C1007 C411 1.527 . S
C1009 C69 1.521 . S
C1018 C105 1.521 . S
C1020 C443 1.526 . S
C1029 C137 1.515 1_556 S
C1031 C341 1.522 . S
C1040 C377 1.518 . S
C1042 C171 1.525 1_554 S
C1051 C205 1.518 1_556 S
C1053 C273 1.525 . S
C1062 C239 1.518 1_554 S
C1064 C309 1.525 . S
C1073 C3 2.336 1_556 S
C1075 C477 2.339 . S
C1084 C35 2.339 1_554 S
C1086 C513 2.336 . S
C1095 C409 2.339 . S
C1097 C71 2.340 1_556 S
C1106 C103 2.340 1_554 S
C1108 C445 2.339 . S
C1117 C139 2.335 . S
C1119 C343 2.337 . S
C1128 C173 2.335 . S
C1130 C375 2.336 . S
C1139 C207 2.336 . S
C1141 C275 2.336 . S
C1150 C241 2.340 . S
C1152 C307 2.339 . S
