# Generated by pormake.
# Topology tfs, (6)-cn, num edge types: 1
# Building blocks:
#     Node 0, Type 0, BuildingBlock: FUNLAD_clean_sbu_0, # of connection points: 6
#     Node 1, Type 0, BuildingBlock: FUNLAD_clean_sbu_0, # of connection points: 6
#     Node 2, Type 0, BuildingBlock: FUNLAD_clean_sbu_0, # of connection points: 6
#     Node 3, Type 0, BuildingBlock: FUNLAD_clean_sbu_0, # of connection points: 6
#     Node 4, Type 0, BuildingBlock: FUNLAD_clean_sbu_0, # of connection points: 6
#     Node 5, Type 0, BuildingBlock: FUNLAD_clean_sbu_0, # of connection points: 6
#     Edge 6, Type (0, 0), BuildingBlock: FUNLAD_clean_linker_0, # of connection points: 2
#     Edge 7, Type (0, 0), BuildingBlock: FUNLAD_clean_linker_0, # of connection points: 2
#     Edge 8, Type (0, 0), BuildingBlock: FUNLAD_clean_linker_0, # of connection points: 2
#     Edge 9, Type (0, 0), BuildingBlock: FUNLAD_clean_linker_0, # of connection points: 2
#     Edge 10, Type (0, 0), BuildingBlock: FUNLAD_clean_linker_0, # of connection points: 2
#     Edge 11, Type (0, 0), BuildingBlock: FUNLAD_clean_linker_0, # of connection points: 2
#     Edge 12, Type (0, 0), BuildingBlock: FUNLAD_clean_linker_0, # of connection points: 2
#     Edge 13, Type (0, 0), BuildingBlock: FUNLAD_clean_linker_0, # of connection points: 2
#     Edge 14, Type (0, 0), BuildingBlock: FUNLAD_clean_linker_0, # of connection points: 2
#     Edge 15, Type (0, 0), BuildingBlock: FUNLAD_clean_linker_0, # of connection points: 2
#     Edge 16, Type (0, 0), BuildingBlock: FUNLAD_clean_linker_0, # of connection points: 2
#     Edge 17, Type (0, 0), BuildingBlock: FUNLAD_clean_linker_0, # of connection points: 2
#     Edge 18, Type (0, 0), BuildingBlock: FUNLAD_clean_linker_0, # of connection points: 2
#     Edge 19, Type (0, 0), BuildingBlock: FUNLAD_clean_linker_0, # of connection points: 2
#     Edge 20, Type (0, 0), BuildingBlock: FUNLAD_clean_linker_0, # of connection points: 2
#     Edge 21, Type (0, 0), BuildingBlock: FUNLAD_clean_linker_0, # of connection points: 2
#     Edge 22, Type (0, 0), BuildingBlock: FUNLAD_clean_linker_0, # of connection points: 2
#     Edge 23, Type (0, 0), BuildingBlock: FUNLAD_clean_linker_0, # of connection points: 2
# Relax obj value: 0.132
# Max RMSD: 0.156
# Mean RMSD: 0.155
data_MOF--net-tfs--node1-FUNLAD_clean_sbu_0--edge1-FUNLAD_clean_linker_0
_symmetry_space_group_name_H-M    P1
_symmetry_Int_Tables_number       1
_symmetry_cell_setting            triclinic
loop_
_symmetry_equiv_pos_as_xyz
'x, y, z'
_cell_length_a     47.481219
_cell_length_b     47.365375
_cell_length_c     24.283901
_cell_angle_alpha  90.400098
_cell_angle_beta   91.32935
_cell_angle_gamma 120.10525
loop_
_atom_site_label
_atom_site_type_symbol
_atom_site_fract_x
_atom_site_fract_y
_atom_site_fract_z
_atom_type_partial_charge
C0 C 0.13296 0.35513 0.048 0.0
N1 N 0.19433 0.41649 0.17607 0.0
C2 C 0.16703 0.41158 0.20146 0.0
C3 C 0.16638 0.41265 0.25889 0.0
C4 C 0.19408 0.4188 0.29063 0.0
C5 C 0.22203 0.4241 0.26325 0.0
C6 C 0.22163 0.42284 0.20573 0.0
Zn7 Zn 0.19381 0.4129 0.09192 0.0
C8 C 0.22079 0.37162 0.05564 0.0
N9 N 0.19193 0.40403 0.91628 0.0
C10 C 0.16482 0.3985 0.88688 0.0
C11 C 0.21878 0.40791 0.89061 0.0
C12 C 0.21917 0.40663 0.83316 0.0
C13 C 0.19164 0.40131 0.80169 0.0
C14 C 0.16414 0.39703 0.82937 0.0
Zn15 Zn 0.1926 0.4077 1.00041 0.0
O16 O 0.14764 0.37008 0.09252 0.0
C17 C 0.16521 0.44887 0.03791 0.0
O18 O 0.14616 0.36611 1.00226 0.0
H19 H 0.24012 0.41238 0.91474 0.0
H20 H 0.14554 0.40643 0.17714 0.0
H21 H 0.1437 0.39542 0.90807 0.0
O22 O 0.17173 0.44163 0.08492 0.0
O23 O 0.1716 0.43803 0.99476 0.0
H24 H 0.24309 0.42671 0.18475 0.0
O25 O 0.23926 0.44938 0.9996 0.0
O26 O 0.24017 0.45573 0.0894 0.0
O27 O 0.21341 0.37745 1.00805 0.0
O28 O 0.21569 0.38411 0.09794 0.0
C29 C 0.25378 0.46538 0.04342 0.0
H30 H 0.14417 0.40804 0.2782 0.0
H31 H 0.24407 0.42935 0.28601 0.0
H32 H 0.24104 0.41045 0.81361 0.0
H33 H 0.14222 0.3924 0.80687 0.0
C34 C 0.84549 0.21839 0.08314 0.0
N35 N 0.78052 0.20474 0.95222 0.0
C36 C 0.80596 0.22879 0.9253 0.0
C37 C 0.80549 0.22925 0.86782 0.0
C38 C 0.77856 0.20473 0.83769 0.0
C39 C 0.7527 0.18015 0.86661 0.0
C40 C 0.75419 0.18062 0.9241 0.0
Zn41 Zn 0.78174 0.20491 0.03634 0.0
C42 C 0.76225 0.13959 0.07907 0.0
N43 N 0.78388 0.20501 0.21209 0.0
C44 C 0.80992 0.22945 0.24028 0.0
C45 C 0.75892 0.18035 0.2389 0.0
C46 C 0.75961 0.17956 0.29635 0.0
C47 C 0.78627 0.20437 0.32655 0.0
C48 C 0.81163 0.22959 0.29776 0.0
Zn49 Zn 0.78259 0.20494 0.128 0.0
O50 O 0.83057 0.2153 0.03737 0.0
C51 C 0.80245 0.27058 0.08323 0.0
O52 O 0.83103 0.21567 0.12775 0.0
H53 H 0.73851 0.16111 0.21567 0.0
H54 H 0.82662 0.24778 0.94846 0.0
H55 H 0.82948 0.24884 0.21814 0.0
O56 O 0.79747 0.2548 0.03819 0.0
O57 O 0.79806 0.25581 0.12856 0.0
H58 H 0.73428 0.16167 0.94631 0.0
O59 O 0.73396 0.19392 0.12754 0.0
O60 O 0.7326 0.19425 0.03718 0.0
O61 O 0.7672 0.1543 0.12537 0.0
O62 O 0.76626 0.15526 0.03505 0.0
C63 C 0.71844 0.19077 0.08252 0.0
H64 H 0.82577 0.2489 0.84724 0.0
H65 H 0.73166 0.16055 0.84504 0.0
H66 H 0.73973 0.15943 0.31682 0.0
H67 H 0.83244 0.24942 0.31941 0.0
C68 C 0.60422 0.76178 0.99101 0.0
N69 N 0.56115 0.78591 0.11744 0.0
C70 C 0.55659 0.75875 0.14382 0.0
C71 C 0.55503 0.75733 0.20114 0.0
C72 C 0.55828 0.78415 0.23169 0.0
C73 C 0.56307 0.81191 0.20336 0.0
C74 C 0.56439 0.81226 0.14598 0.0
Zn75 Zn 0.56297 0.78702 0.03344 0.0
C76 C 0.61711 0.84903 0.99509 0.0
N77 N 0.56611 0.78904 0.85789 0.0
C78 C 0.56245 0.76264 0.82899 0.0
C79 C 0.57107 0.81645 0.83189 0.0
C80 C 0.57259 0.81806 0.77459 0.0
C81 C 0.56891 0.79119 0.74364 0.0
C82 C 0.56375 0.76318 0.77158 0.0
Zn83 Zn 0.56429 0.7878 0.94184 0.0
O84 O 0.59419 0.76755 0.0354 0.0
C85 C 0.51028 0.72547 0.98209 0.0
O86 O 0.59534 0.76796 0.94509 0.0
H87 H 0.57382 0.83713 0.85564 0.0
H88 H 0.55417 0.73811 0.12037 0.0
H89 H 0.55863 0.74113 0.85051 0.0
O90 O 0.52261 0.7399 0.02798 0.0
O91 O 0.52271 0.73989 0.93758 0.0
H92 H 0.56791 0.83357 0.12418 0.0
O93 O 0.5331 0.80738 0.93963 0.0
O94 O 0.53148 0.80656 0.02984 0.0
O95 O 0.60568 0.83564 0.94805 0.0
O96 O 0.60344 0.83384 0.0382 0.0
C97 C 0.52263 0.81274 0.98384 0.0
H98 H 0.55172 0.7356 0.22134 0.0
H99 H 0.5653 0.83298 0.22523 0.0
H100 H 0.57619 0.83998 0.75471 0.0
H101 H 0.56119 0.74206 0.74942 0.0
C102 C 0.75386 0.61552 0.05789 0.0
N103 N 0.77016 0.56295 0.93554 0.0
C104 C 0.74433 0.56147 0.90733 0.0
C105 C 0.74269 0.55977 0.84986 0.0
C106 C 0.76791 0.55969 0.82089 0.0
C107 C 0.79425 0.56114 0.85105 0.0
C108 C 0.79486 0.56271 0.90862 0.0
Zn109 Zn 0.77158 0.56648 0.01983 0.0
C110 C 0.83581 0.6169 0.0639 0.0
N111 N 0.77303 0.57439 0.19564 0.0
C112 C 0.74818 0.57431 0.22261 0.0
C113 C 0.79899 0.57614 0.22379 0.0
C114 C 0.80062 0.57776 0.28126 0.0
C115 C 0.77526 0.57751 0.3103 0.0
C116 C 0.74879 0.57581 0.28019 0.0
Zn117 Zn 0.77164 0.57092 0.11138 0.0
O118 O 0.75778 0.60247 0.01504 0.0
C119 C 0.70704 0.52085 0.06512 0.0
O120 O 0.75818 0.60677 0.10517 0.0
H121 H 0.81842 0.57599 0.20163 0.0
H122 H 0.72501 0.56186 0.92943 0.0
H123 H 0.72779 0.57296 0.19944 0.0
O124 O 0.7227 0.53008 0.02101 0.0
O125 O 0.72152 0.53378 0.11097 0.0
H126 H 0.81515 0.56386 0.93182 0.0
O127 O 0.785 0.53493 0.11657 0.0
O128 O 0.7855 0.53033 0.02666 0.0
O129 O 0.82158 0.60799 0.10954 0.0
O130 O 0.82025 0.60312 0.01939 0.0
C131 C 0.78932 0.52168 0.07446 0.0
H132 H 0.72214 0.55915 0.82834 0.0
H133 H 0.81404 0.56078 0.83041 0.0
H134 H 0.82128 0.57857 0.30274 0.0
H135 H 0.72888 0.57592 0.30087 0.0
C136 C 0.25679 0.78962 1.00077 0.0
N137 N 0.18958 0.77172 0.87073 0.0
C138 C 0.21409 0.79613 0.84274 0.0
C139 C 0.21318 0.79564 0.7852 0.0
C140 C 0.18676 0.7698 0.75618 0.0
C141 C 0.16178 0.745 0.78621 0.0
C142 C 0.16369 0.74645 0.84368 0.0
Zn143 Zn 0.19151 0.77247 0.95485 0.0
C144 C 0.17424 0.7073 0.99836 0.0
N145 N 0.19466 0.77281 0.13067 0.0
C146 C 0.22043 0.79814 0.15787 0.0
C147 C 0.17028 0.74818 0.15852 0.0
C148 C 0.17121 0.74848 0.21606 0.0
C149 C 0.19752 0.77434 0.24522 0.0
C150 C 0.22237 0.79938 0.21534 0.0
Zn151 Zn 0.19273 0.77214 0.04652 0.0
O152 O 0.24154 0.78584 0.95506 0.0
C153 C 0.20974 0.83707 1.00237 0.0
O154 O 0.24182 0.78504 0.04538 0.0
H155 H 0.15005 0.72825 0.13609 0.0
H156 H 0.23441 0.81603 0.86508 0.0
H157 H 0.23951 0.81752 0.13495 0.0
O158 O 0.20494 0.82204 0.95654 0.0
O159 O 0.20629 0.82192 0.04694 0.0
H160 H 0.14453 0.72723 0.86671 0.0
O161 O 0.14387 0.75946 0.04693 0.0
O162 O 0.14167 0.75934 0.95656 0.0
O163 O 0.17894 0.72214 0.04444 0.0
O164 O 0.17806 0.72279 0.9541 0.0
C165 C 0.12779 0.75552 1.00228 0.0
H166 H 0.23278 0.81546 0.7637 0.0
H167 H 0.14119 0.7244 0.76556 0.0
H168 H 0.15172 0.72849 0.23744 0.0
H169 H 0.24287 0.81999 0.23613 0.0
C170 C 0.35412 0.21042 0.06105 0.0
N171 N 0.40611 0.19871 0.19215 0.0
C172 C 0.40202 0.22116 0.22063 0.0
C173 C 0.40092 0.22047 0.27799 0.0
C174 C 0.40409 0.19644 0.30644 0.0
C175 C 0.40842 0.17364 0.27598 0.0
C176 C 0.40937 0.17523 0.2186 0.0
Zn177 Zn 0.4068 0.20026 0.10819 0.0
C178 C 0.36532 0.13485 0.05656 0.0
N179 N 0.40737 0.20368 0.93269 0.0
C180 C 0.40423 0.22728 0.90645 0.0
C181 C 0.41134 0.18121 0.90401 0.0
C182 C 0.41241 0.18201 0.84665 0.0
C183 C 0.40934 0.20615 0.8184 0.0
C184 C 0.40515 0.22897 0.84908 0.0
Zn185 Zn 0.40666 0.20203 0.01666 0.0
O186 O 0.36632 0.20774 0.10651 0.0
C187 C 0.44821 0.26758 0.06946 0.0
O188 O 0.36638 0.20868 0.01618 0.0
H189 H 0.4139 0.16271 0.92569 0.0
H190 H 0.39938 0.23957 0.19879 0.0
H191 H 0.40104 0.24488 0.93005 0.0
O192 O 0.43865 0.25089 0.11275 0.0
O193 O 0.43845 0.25332 0.02257 0.0
H194 H 0.41265 0.15765 0.19514 0.0
O195 O 0.44709 0.19537 0.01782 0.0
O196 O 0.44751 0.19299 0.10801 0.0
O197 O 0.37496 0.15092 0.01255 0.0
O198 O 0.37499 0.14969 0.10288 0.0
C199 C 0.45966 0.19216 0.06231 0.0
H200 H 0.39709 0.23825 0.29971 0.0
H201 H 0.41135 0.15495 0.29627 0.0
H202 H 0.41614 0.16421 0.82475 0.0
H203 H 0.40228 0.24775 0.82896 0.0
C204 C 0.31828 0.22667 0.10907 0.0
C205 C 0.32771 0.21819 0.06015 0.0
C206 C 0.29682 0.23871 0.10715 0.0
C207 C 0.28452 0.2425 0.05619 0.0
C208 C 0.29192 0.2316 1.00782 0.0
C209 C 0.3135 0.21974 1.00967 0.0
C210 C 0.26592 0.25979 0.05148 0.0
C211 C 0.27205 0.28499 0.08526 0.0
C212 C 0.25784 0.30621 0.07643 0.0
C213 C 0.25576 0.32349 0.12174 0.0
C214 C 0.24385 0.34484 0.11489 0.0
C215 C 0.23413 0.34964 0.06233 0.0
H216 H 0.2508 0.29928 0.9874 0.0
C217 C 0.23663 0.33272 0.01675 0.0
C218 C 0.24842 0.31122 0.02367 0.0
H219 H 0.2295 0.33606 0.97571 0.0
H220 H 0.32846 0.22528 0.14867 0.0
H221 H 0.29055 0.24574 0.14544 0.0
H222 H 0.28237 0.23387 0.96817 0.0
H223 H 0.31996 0.21294 0.9713 0.0
H224 H 0.24913 0.25356 0.01637 0.0
H225 H 0.28902 0.29123 0.12014 0.0
H226 H 0.26331 0.3204 0.16264 0.0
H227 H 0.24234 0.35762 0.15086 0.0
C228 C 0.08618 0.31274 0.09968 0.0
C229 C 0.10014 0.32616 0.04922 0.0
C230 C 0.0538 0.28776 0.10118 0.0
C231 C 0.03469 0.27613 0.05221 0.0
C232 C 0.04941 0.28775 1.0016 0.0
C233 C 0.08185 0.31262 1.00004 0.0
C234 C -0.00111 0.25463 0.05247 0.0
C235 C 0.98111 0.25619 0.09346 0.0
C236 C 0.94543 0.24242 0.08915 0.0
C237 C 0.92851 0.23794 0.13784 0.0
C238 C 0.89583 0.2294 0.13582 0.0
C239 C 0.87945 0.22543 0.08491 0.0
H240 H 0.94113 0.24172 0.99957 0.0
C241 C 0.89606 0.22903 0.03605 0.0
C242 C 0.92879 0.23754 0.03808 0.0
H243 H 0.88406 0.22614 0.99621 0.0
H244 H 0.09996 0.32214 0.13818 0.0
H245 H 0.04364 0.27834 0.14084 0.0
H246 H 0.0353 0.27889 0.96327 0.0
H247 H 0.0921 0.32214 0.96042 0.0
H248 H -0.01312 0.2405 0.01518 0.0
H249 H -0.00678 0.27044 0.13063 0.0
H250 H 0.94085 0.24186 0.17766 0.0
H251 H 0.88366 0.22667 0.17426 0.0
C252 C 0.74705 0.08919 0.02388 0.0
C253 C 0.75177 0.10458 0.07567 0.0
C254 C 0.73587 0.05587 0.01969 0.0
C255 C 0.72938 0.03715 0.06736 0.0
C256 C 0.73457 0.05263 0.11918 0.0
C257 C 0.74579 0.08608 0.12338 0.0
C258 C 0.71407 0.00112 0.06442 0.0
C259 C 0.71463 0.98445 0.01965 0.0
C260 C 0.69322 0.94867 0.01336 0.0
C261 C 0.68074 0.9352 0.96064 0.0
C262 C 0.65676 0.90237 0.95411 0.0
C263 C 0.64508 0.88251 1.00031 0.0
H264 H 0.69337 0.93741 0.09994 0.0
C265 C 0.65928 0.89546 0.05255 0.0
C266 C 0.68325 0.92817 0.05901 0.0
H267 H 0.65132 0.88055 0.08882 0.0
H268 H 0.75133 0.10273 0.98625 0.0
H269 H 0.7312 0.04492 0.97887 0.0
H270 H 0.7294 0.0387 0.15653 0.0
H271 H 0.74922 0.09728 0.16388 0.0
H272 H 0.70002 0.98795 0.09957 0.0
H273 H 0.72851 -0.00262 0.98426 0.0
H274 H 0.68837 0.95046 0.92475 0.0
H275 H 0.64651 0.89295 0.91326 0.0
C276 C 0.73795 0.64915 1.00049 0.0
C277 C 0.74329 0.63984 0.05273 0.0
C278 C 0.72592 0.67054 0.99552 0.0
C279 C 0.71877 0.68282 0.0428 0.0
C280 C 0.72553 0.67469 0.09494 0.0
C281 C 0.73754 0.65329 0.09994 0.0
C282 C 0.70338 0.70332 0.03958 0.0
C283 C 0.68374 0.70138 0.99705 0.0
C284 C 0.66494 0.7186 0.99669 0.0
C285 C 0.65475 0.72494 0.94592 0.0
C286 C 0.63541 0.73943 0.94394 0.0
C287 C 0.62559 0.74753 0.99286 0.0
H288 H 0.66146 0.72123 0.08563 0.0
C289 C 0.63578 0.74119 0.0437 0.0
C290 C 0.65516 0.72678 0.04567 0.0
H291 H 0.62839 0.7469 0.08213 0.0
H292 H 0.74262 0.63958 0.96332 0.0
H293 H 0.72224 0.67724 0.95461 0.0
H294 H 0.72055 0.6841 0.13199 0.0
H295 H 0.74169 0.64681 0.1408 0.0
H296 H 0.70676 0.71887 0.0751 0.0
H297 H 0.68037 0.68591 0.96142 0.0
H298 H 0.66165 0.71851 0.90763 0.0
H299 H 0.62783 0.74389 0.90409 0.0
C300 C 0.07816 0.74129 0.05506 0.0
C301 C 0.09303 0.74561 1.00406 0.0
C302 C 0.04487 0.72986 0.05742 0.0
C303 C 0.02572 0.72272 1.00867 0.0
C304 C 0.04074 0.72768 0.9577 0.0
C305 C 0.0741 0.73913 0.95534 0.0
C306 C -0.01023 0.7072 1.00923 0.0
C307 C 0.97328 0.70781 0.05323 0.0
C308 C 0.93741 0.68738 0.05572 0.0
C309 C 0.9234 0.67591 0.10696 0.0
C310 C 0.8901 0.6536 0.11013 0.0
C311 C 0.87032 0.64253 0.06197 0.0
H312 H 0.9268 0.68724 0.96806 0.0
C313 C 0.88403 0.65545 0.01109 0.0
C314 C 0.91718 0.67782 1.00799 0.0
H315 H 0.86924 0.64796 0.97336 0.0
H316 H 0.09206 0.74595 0.0934 0.0
H317 H 0.03431 0.72548 0.0976 0.0
H318 H 0.0265 0.72211 0.91953 0.0
H319 H 0.08488 0.74221 0.9154 0.0
H320 H 0.97651 0.69327 0.97246 0.0
H321 H -0.0137 0.72151 0.09028 0.0
H322 H 0.93844 0.68323 0.14441 0.0
H323 H 0.88012 0.64429 0.14998 0.0
C324 C 0.22531 0.88868 0.05455 0.0
C325 C 0.22064 0.8722 1.0039 0.0
C326 C 0.23811 0.92238 0.05644 0.0
C327 C 0.24683 0.9403 1.00766 0.0
C328 C 0.24056 0.92361 0.9569 0.0
C329 C 0.22769 0.88987 0.95497 0.0
C330 C 0.26347 0.9764 1.00833 0.0
C331 C 0.28333 -0.00528 0.05046 0.0
C332 C 0.30282 0.03081 0.05035 0.0
C333 C 0.31389 0.04766 0.10107 0.0
C334 C 0.33383 0.0815 0.10307 0.0
C335 C 0.34339 0.09919 0.0542 0.0
H336 H 0.30516 0.03639 0.96135 0.0
C337 C 0.3323 0.0824 1.00332 0.0
C338 C 0.31226 0.04851 1.00134 0.0
H339 H 0.33945 0.09536 0.96496 0.0
H340 H 0.21958 0.87566 0.09292 0.0
H341 H 0.2413 0.93422 0.09621 0.0
H342 H 0.24669 0.93684 0.91873 0.0
H343 H 0.22408 0.8778 0.91524 0.0
H344 H 0.26072 0.98794 0.97175 0.0
H345 H 0.28616 0.98296 0.08669 0.0
H346 H 0.30722 0.03457 0.13938 0.0
H347 H 0.34204 0.0937 0.14297 0.0
C348 C 0.16032 0.65498 0.04452 0.0
C349 C 0.16518 0.67258 0.99596 0.0
C350 C 0.15352 0.62267 0.04224 0.0
C351 C 0.15129 0.60727 0.99119 0.0
C352 C 0.1556 0.62474 0.94272 0.0
C353 C 0.16228 0.65698 0.94498 0.0
C354 C 0.14791 0.57445 0.98719 0.0
C355 C 0.13483 0.55196 0.02657 0.0
C356 C 0.13781 0.52224 0.02732 0.0
C357 C 0.13935 0.50945 0.07847 0.0
C358 C 0.14688 0.48456 0.08177 0.0
C359 C 0.15274 0.47177 0.03379 0.0
H360 H 0.13893 0.51609 0.93867 0.0
C361 C 0.1488 0.48287 0.98228 0.0
C362 C 0.1413 0.50782 0.97901 0.0
H363 H 0.15258 0.47309 0.9445 0.0
H364 H 0.16249 0.66635 0.08445 0.0
H365 H 0.1514 0.61049 0.0807 0.0
H366 H 0.15433 0.61358 0.90293 0.0
H367 H 0.16586 0.66985 0.90676 0.0
H368 H 0.15832 0.56962 0.95151 0.0
H369 H 0.12441 0.55681 0.06222 0.0
H370 H 0.13632 0.51981 0.11626 0.0
H371 H 0.14929 0.47623 0.1221 0.0
C372 C 0.50373 0.1857 0.10886 0.0
C373 C 0.48873 0.1885 0.06032 0.0
C374 C 0.53211 0.18376 0.10655 0.0
C375 C 0.54591 0.18444 0.05549 0.0
C376 C 0.53073 0.18703 1.00713 0.0
C377 C 0.5024 0.18887 1.00941 0.0
C378 C 0.57707 0.18457 0.05089 0.0
C379 C 0.58888 0.17261 0.08938 0.0
C380 C 0.62129 0.17529 0.08587 0.0
C381 C 0.63792 0.17615 0.13489 0.0
C382 C 0.66928 0.18067 0.13373 0.0
C383 C 0.68456 0.18412 0.08333 0.0
H384 H 0.62355 0.17558 0.99642 0.0
C385 C 0.66744 0.18192 0.03405 0.0
C386 C 0.63606 0.17743 0.03525 0.0
H387 H 0.67838 0.18402 0.99453 0.0
H388 H 0.4939 0.18558 0.14873 0.0
H389 H 0.54356 0.18279 0.14495 0.0
H390 H 0.54096 0.18784 0.96733 0.0
H391 H 0.49149 0.19106 0.97118 0.0
H392 H 0.59085 0.19544 0.0143 0.0
H393 H 0.57527 0.16188 0.12616 0.0
H394 H 0.62696 0.17419 0.17438 0.0
H395 H 0.68169 0.18194 0.17245 0.0
C396 C 0.47302 0.67418 0.02973 0.0
C397 C 0.48143 0.69242 0.98142 0.0
C398 C 0.44493 0.64362 0.03086 0.0
C399 C 0.42416 0.63082 0.98387 0.0
C400 C 0.43318 0.6486 0.93501 0.0
C401 C 0.46159 0.67913 0.93371 0.0
C402 C 0.39317 0.59903 0.98421 0.0
C403 C 0.37736 0.58536 0.03075 0.0
C404 C 0.34597 0.55399 0.03256 0.0
C405 C 0.32927 0.54562 0.08222 0.0
C406 C 0.29956 0.51663 0.08615 0.0
C407 C 0.28583 0.49538 0.04033 0.0
H408 H 0.34478 0.53691 0.94842 0.0
C409 C 0.3027 0.50337 0.99088 0.0
C410 C 0.33253 0.53221 0.98705 0.0
H411 H 0.2929 0.48728 0.95497 0.0
H412 H 0.48819 0.68352 0.06691 0.0
H413 H 0.43989 0.63023 0.06866 0.0
H414 H 0.4179 0.63913 0.89797 0.0
H415 H 0.46758 0.6926 0.89581 0.0
H416 H 0.38255 0.58771 0.94444 0.0
H417 H 0.38699 0.59831 0.06983 0.0
H418 H 0.33909 0.56171 0.11813 0.0
H419 H 0.28716 0.51113 0.12487 0.0
C420 C 0.80155 0.47979 0.03607 0.0
C421 C 0.79737 0.49553 0.08174 0.0
C422 C 0.80697 0.45362 0.04345 0.0
C423 C 0.80844 0.44279 0.09678 0.0
C424 C 0.80478 0.45891 0.14228 0.0
C425 C 0.79951 0.4851 0.13495 0.0
C426 C 0.81081 0.41314 0.10645 0.0
C427 C 0.82407 0.40155 0.0708 0.0
C428 C 0.82191 0.36934 0.07672 0.0
C429 C 0.82271 0.35301 0.02894 0.0
C430 C 0.8174 0.32131 0.03144 0.0
C431 C 0.81146 0.30529 0.08201 0.0
H432 H 0.81827 0.36627 0.16594 0.0
C433 C 0.81253 0.32227 0.13039 0.0
C434 C 0.81777 0.35404 0.12785 0.0
H435 H 0.80849 0.31074 0.17006 0.0
H436 H 0.79986 0.48716 0.99456 0.0
H437 H 0.80868 0.44126 1.00717 0.0
H438 H 0.80554 0.45092 0.18372 0.0
H439 H 0.7964 0.49667 0.1711 0.0
H440 H 0.8001 0.39996 0.1437 0.0
H441 H 0.83483 0.4149 0.03368 0.0
H442 H 0.82623 0.36433 0.98914 0.0
H443 H 0.81714 0.30908 0.99341 0.0
C444 C 0.30886 0.80418 0.95421 0.0
C445 C 0.29153 0.79902 1.00274 0.0
C446 C 0.34145 0.81197 0.95671 0.0
C447 C 0.35731 0.81486 1.00797 0.0
C448 C 0.34001 0.8101 0.0563 0.0
C449 C 0.30758 0.80242 0.05381 0.0
C450 C 0.39073 0.81995 0.013 0.0
C451 C 0.41301 0.83297 0.97366 0.0
C452 C 0.44424 0.83296 0.97726 0.0
C453 C 0.4579 0.83003 0.92848 0.0
C454 C 0.48451 0.82507 0.93049 0.0
C455 C 0.49806 0.82314 0.98145 0.0
H456 H 0.45056 0.83741 0.06653 0.0
C457 C 0.486 0.82863 0.03016 0.0
C458 C 0.45946 0.83369 0.02812 0.0
H459 H 0.49635 0.82797 0.07003 0.0
H460 H 0.29712 0.80165 0.91424 0.0
H461 H 0.35358 0.81453 0.91839 0.0
H462 H 0.35152 0.81193 0.09626 0.0
H463 H 0.29498 0.79868 0.09206 0.0
H464 H 0.39655 0.81127 0.05043 0.0
H465 H 0.40731 0.84135 0.93581 0.0
H466 H 0.44694 0.8299 0.88876 0.0
H467 H 0.4935 0.82132 0.89213 0.0
C468 C 0.65503 0.48153 0.11018 0.0
C469 C 0.6725 0.49483 0.06223 0.0
C470 C 0.62295 0.45545 0.10652 0.0
C471 C 0.60777 0.4424 0.05467 0.0
C472 C 0.62507 0.45634 1.00696 0.0
C473 C 0.65698 0.48228 0.0106 0.0
C474 C 0.57531 0.41255 0.04811 0.0
C475 C 0.55292 0.40081 0.08739 0.0
C476 C 0.52314 0.3682 0.08192 0.0
C477 C 0.51028 0.35018 0.12959 0.0
C478 C 0.48504 0.31779 0.12565 0.0
C479 C 0.47204 0.30285 0.07385 0.0
H480 H 0.51685 0.36758 0.99277 0.0
C481 C 0.48338 0.32156 0.02633 0.0
C482 C 0.50856 0.35399 0.0303 0.0
H483 H 0.47339 0.31094 0.9859 0.0
H484 H 0.66639 0.49065 0.15053 0.0
H485 H 0.61083 0.44494 0.1444 0.0
H486 H 0.61407 0.44671 0.96655 0.0
H487 H 0.66966 0.49206 0.97275 0.0
H488 H 0.57048 0.39896 1.00951 0.0
H489 H 0.55762 0.41391 0.12644 0.0
H490 H 0.52076 0.36069 0.16987 0.0
H491 H 0.47654 0.30415 0.16316 0.0
C492 C 0.17755 0.4155 0.70944 0.0
C493 C 0.19178 0.40066 0.74044 0.0
C494 C 0.17797 0.41523 0.65189 0.0
C495 C 0.19287 0.40026 0.6239 0.0
C496 C 0.20662 0.38501 0.6549 0.0
C497 C 0.20622 0.3853 0.71245 0.0
C498 C 0.19391 0.39922 0.56268 0.0
C499 C 0.19094 0.42038 0.52951 0.0
C500 C 0.19208 0.41937 0.46833 0.0
C501 C 0.17787 0.43411 0.43716 0.0
C502 C 0.17849 0.43394 0.37964 0.0
C503 C 0.19366 0.41926 0.35185 0.0
H504 H 0.21982 0.39428 0.4628 0.0
C505 C 0.20833 0.40492 0.38301 0.0
C506 C 0.20765 0.40502 0.44055 0.0
H507 H 0.2201 0.39327 0.36291 0.0
H508 H 0.16635 0.42767 0.72966 0.0
H509 H 0.16616 0.42639 0.62984 0.0
H510 H 0.21792 0.37296 0.63454 0.0
H511 H 0.21693 0.37317 0.73498 0.0
H512 H 0.19769 0.38038 0.54474 0.0
H513 H 0.18711 0.43921 0.54734 0.0
H514 H 0.16604 0.44568 0.45738 0.0
H515 H 0.1674 0.44566 0.35696 0.0
C516 C 0.80526 0.21297 0.74648 0.0
C517 C 0.77734 0.2049 0.77652 0.0
C518 C 0.80413 0.21327 0.68894 0.0
C519 C 0.77491 0.2053 0.66008 0.0
C520 C 0.74716 0.19762 0.6902 0.0
C521 C 0.74829 0.19728 0.74771 0.0
C522 C 0.77248 0.20566 0.59893 0.0
C523 C 0.79302 0.20264 0.56518 0.0
C524 C 0.79046 0.20304 0.50407 0.0
C525 C 0.81831 0.21158 0.47366 0.0
C526 C 0.81702 0.21215 0.41617 0.0
C527 C 0.78768 0.20387 0.38768 0.0
H528 H 0.73865 0.18655 0.49708 0.0
C529 C 0.75966 0.19485 0.41802 0.0
C530 C 0.76096 0.19433 0.47552 0.0
H531 H 0.7367 0.18841 0.39733 0.0
H532 H 0.828 0.21886 0.76744 0.0
H533 H 0.82637 0.22032 0.66763 0.0
H534 H 0.72443 0.19175 0.66916 0.0
H535 H 0.72649 0.1915 0.76962 0.0
H536 H 0.75263 0.20817 0.58147 0.0
H537 H 0.81295 0.20022 0.58251 0.0
H538 H 0.84125 0.21801 0.49448 0.0
H539 H 0.83892 0.21865 0.394 0.0
C540 C 0.54878 0.76519 0.64973 0.0
C541 C 0.57046 0.79241 0.68261 0.0
C542 C 0.55014 0.76639 0.5923 0.0
C543 C 0.57315 0.795 0.5664 0.0
C544 C 0.5951 0.82198 0.59935 0.0
C545 C 0.59371 0.8208 0.65675 0.0
C546 C 0.57576 0.79743 0.50549 0.0
C547 C 0.55104 0.77853 0.46978 0.0
C548 C 0.5537 0.78085 0.40888 0.0
C549 C 0.53193 0.75371 0.37605 0.0
C550 C 0.53345 0.75474 0.31866 0.0
C551 C 0.55661 0.78312 0.2927 0.0
H552 H 0.59319 0.8313 0.40637 0.0
C553 C 0.57808 0.81051 0.32544 0.0
C554 C 0.57663 0.80946 0.38287 0.0
H555 H 0.59627 0.83272 0.3067 0.0
H556 H 0.53052 0.74298 0.66836 0.0
H557 H 0.53342 0.74465 0.56873 0.0
H558 H 0.61334 0.84419 0.58062 0.0
H559 H 0.61113 0.84201 0.6809 0.0
H560 H 0.59896 0.81586 0.48996 0.0
H561 H 0.52783 0.7601 0.48528 0.0
H562 H 0.51377 0.7315 0.39488 0.0
H563 H 0.51618 0.73341 0.2946 0.0
C564 C 0.7949 0.57803 0.72988 0.0
C565 C 0.76678 0.55848 0.75962 0.0
C566 C 0.79358 0.57758 0.67225 0.0
C567 C 0.76398 0.5576 0.64301 0.0
C568 C 0.7361 0.53755 0.6728 0.0
C569 C 0.7374 0.53808 0.73037 0.0
C570 C 0.76124 0.55629 0.58172 0.0
C571 C 0.78189 0.58067 0.54949 0.0
C572 C 0.77916 0.57939 0.48819 0.0
C573 C 0.807 0.59961 0.45844 0.0
C574 C 0.80571 0.59915 0.40087 0.0
C575 C 0.77638 0.57863 0.37158 0.0
H576 H 0.72729 0.54409 0.48005 0.0
C577 C 0.74829 0.5589 0.40129 0.0
C578 C 0.7496 0.55929 0.45891 0.0
H579 H 0.72533 0.54275 0.37999 0.0
H580 H 0.81791 0.59408 0.75115 0.0
H581 H 0.81591 0.59264 0.65107 0.0
H582 H 0.71307 0.5216 0.65145 0.0
H583 H 0.7154 0.52229 0.75198 0.0
H584 H 0.74101 0.53445 0.56293 0.0
H585 H 0.80211 0.60251 0.56831 0.0
H586 H 0.82999 0.61566 0.47981 0.0
H587 H 0.82767 0.61508 0.37929 0.0
C588 C 0.17087 0.76661 0.33629 0.0
C589 C 0.19898 0.77533 0.30641 0.0
C590 C 0.17228 0.76794 0.39386 0.0
C591 C 0.2019 0.77778 0.42292 0.0
C592 C 0.23 0.78674 0.39297 0.0
C593 C 0.22858 0.78544 0.33543 0.0
C594 C 0.20481 0.78006 0.48412 0.0
C595 C 0.17951 0.76336 0.5173 0.0
C596 C 0.18241 0.76574 0.57849 0.0
C597 C 0.15433 0.75701 0.60836 0.0
C598 C 0.15575 0.75852 0.66589 0.0
C599 C 0.18532 0.76858 0.69498 0.0
H600 H 0.23399 0.78133 0.58648 0.0
C601 C 0.2134 0.77703 0.66519 0.0
C602 C 0.21199 0.77552 0.60762 0.0
H603 H 0.23641 0.78418 0.6864 0.0
H604 H 0.14784 0.75941 0.31513 0.0
H605 H 0.15025 0.76195 0.41504 0.0
H606 H 0.25317 0.79459 0.41419 0.0
H607 H 0.25064 0.79205 0.31367 0.0
H608 H 0.22895 0.79597 0.50206 0.0
H609 H 0.15537 0.74745 0.49938 0.0
H610 H 0.13119 0.74922 0.58709 0.0
H611 H 0.13372 0.75211 0.68757 0.0
C612 C 0.3954 0.17884 0.72482 0.0
C613 C 0.41074 0.20762 0.75738 0.0
C614 C 0.3971 0.18015 0.66746 0.0
C615 C 0.41404 0.21039 0.64126 0.0
C616 C 0.42957 0.23909 0.67387 0.0
C617 C 0.42785 0.23777 0.73123 0.0
C618 C 0.41702 0.21306 0.58042 0.0
C619 C 0.39605 0.18979 0.54437 0.0
C620 C 0.39908 0.19241 0.48355 0.0
C621 C 0.38365 0.16368 0.45101 0.0
C622 C 0.38547 0.16493 0.39367 0.0
C623 C 0.40259 0.19505 0.36745 0.0
H624 H 0.42745 0.24545 0.48043 0.0
C625 C 0.41783 0.22387 0.39992 0.0
C626 C 0.41602 0.22262 0.45727 0.0
H627 H 0.43132 0.24747 0.38102 0.0
H628 H 0.3819 0.15522 0.74366 0.0
H629 H 0.38561 0.15734 0.64424 0.0
H630 H 0.44307 0.26268 0.65491 0.0
H631 H 0.4404 0.26037 0.75513 0.0
H632 H 0.43724 0.23535 0.56527 0.0
H633 H 0.37583 0.1675 0.55952 0.0
H634 H 0.37014 0.1401 0.47004 0.0
H635 H 0.37299 0.1423 0.36984 0.0
loop_
_geom_bond_atom_site_label_1
_geom_bond_atom_site_label_2
_geom_bond_distance
_geom_bond_site_symmetry_2
_ccdc_geom_bond_type
C0 O16 1.251 . S
C0 O18 1.254 1_554 S
N1 C2 1.333 . S
N1 C6 1.307 . S
N1 Zn7 2.020 . S
C2 N1 1.333 . S
C2 C3 1.379 . S
C2 H20 0.952 . S
C3 C2 1.379 . S
C3 C4 1.390 . S
C3 H30 0.949 . S
C4 C3 1.390 . S
C4 C5 1.357 . S
C5 C4 1.357 . S
C5 C6 1.370 . S
C5 H31 0.950 . S
C6 N1 1.307 . S
C6 C5 1.370 . S
C6 H24 0.948 . S
Zn7 N1 2.020 . S
Zn7 O16 2.039 . S
Zn7 O22 2.034 . S
Zn7 O26 2.025 . S
Zn7 O28 2.024 . S
C8 O27 1.246 1_554 S
C8 O28 1.249 . S
N9 C10 1.307 . S
N9 C11 1.333 . S
N9 Zn15 2.020 . S
C10 N9 1.307 . S
C10 C14 1.370 . S
C10 H21 0.948 . S
C11 N9 1.333 . S
C11 C12 1.379 . S
C11 H19 0.952 . S
C12 C11 1.379 . S
C12 C13 1.390 . S
C12 H32 0.949 . S
C13 C12 1.390 . S
C13 C14 1.357 . S
C14 C10 1.370 . S
C14 C13 1.357 . S
C14 H33 0.950 . S
Zn15 N9 2.020 . S
Zn15 O18 2.025 . S
Zn15 O23 2.024 . S
Zn15 O25 2.039 . S
Zn15 O27 2.034 . S
O16 C0 1.251 . S
O16 Zn7 2.039 . S
C17 O22 1.246 . S
C17 O23 1.249 1_554 S
O18 C0 1.254 1_556 S
O18 Zn15 2.025 . S
H19 C11 0.952 . S
H20 C2 0.952 . S
H21 C10 0.948 . S
O22 Zn7 2.034 . S
O22 C17 1.246 . S
O23 Zn15 2.024 . S
O23 C17 1.249 1_556 S
H24 C6 0.948 . S
O25 Zn15 2.039 . S
O25 C29 1.251 1_556 S
O26 Zn7 2.025 . S
O26 C29 1.254 . S
O27 C8 1.246 1_556 S
O27 Zn15 2.034 . S
O28 Zn7 2.024 . S
O28 C8 1.249 . S
C29 O25 1.251 1_554 S
C29 O26 1.254 . S
H30 C3 0.949 . S
H31 C5 0.950 . S
H32 C12 0.949 . S
H33 C14 0.950 . S
C34 O50 1.251 1_554 S
C34 O52 1.254 . S
N35 C36 1.333 . S
N35 C40 1.307 . S
N35 Zn41 2.020 . S
C36 N35 1.333 . S
C36 C37 1.379 . S
C36 H54 0.952 . S
C37 C36 1.379 . S
C37 C38 1.390 . S
C37 H64 0.949 . S
C38 C37 1.390 . S
C38 C39 1.357 . S
C39 C38 1.357 . S
C39 C40 1.370 . S
C39 H65 0.950 . S
C40 N35 1.307 . S
C40 C39 1.370 . S
C40 H58 0.948 . S
Zn41 N35 2.020 . S
Zn41 O50 2.039 . S
Zn41 O56 2.034 . S
Zn41 O60 2.025 . S
Zn41 O62 2.024 . S
C42 O61 1.246 . S
C42 O62 1.249 1_554 S
N43 C44 1.307 . S
N43 C45 1.333 . S
N43 Zn49 2.020 . S
C44 N43 1.307 . S
C44 C48 1.370 . S
C44 H55 0.948 . S
C45 N43 1.333 . S
C45 C46 1.379 . S
C45 H53 0.952 . S
C46 C45 1.379 . S
C46 C47 1.390 . S
C46 H66 0.949 . S
C47 C46 1.390 . S
C47 C48 1.357 . S
C48 C44 1.370 . S
C48 C47 1.357 . S
C48 H67 0.950 . S
Zn49 N43 2.020 . S
Zn49 O52 2.025 . S
Zn49 O57 2.024 . S
Zn49 O59 2.039 . S
Zn49 O61 2.034 . S
O50 C34 1.251 1_556 S
O50 Zn41 2.039 . S
C51 O56 1.246 1_554 S
C51 O57 1.249 . S
O52 C34 1.254 . S
O52 Zn49 2.025 . S
H53 C45 0.952 . S
H54 C36 0.952 . S
H55 C44 0.948 . S
O56 Zn41 2.034 . S
O56 C51 1.246 1_556 S
O57 Zn49 2.024 . S
O57 C51 1.249 . S
H58 C40 0.948 . S
O59 Zn49 2.039 . S
O59 C63 1.251 . S
O60 Zn41 2.025 . S
O60 C63 1.254 1_556 S
O61 C42 1.246 . S
O61 Zn49 2.034 . S
O62 Zn41 2.024 . S
O62 C42 1.249 1_556 S
C63 O59 1.251 . S
C63 O60 1.254 1_554 S
H64 C37 0.949 . S
H65 C39 0.950 . S
H66 C46 0.949 . S
H67 C48 0.950 . S
C68 O84 1.251 . S
C68 O86 1.254 1_554 S
N69 C70 1.333 . S
N69 C74 1.307 . S
N69 Zn75 2.020 . S
C70 N69 1.333 . S
C70 C71 1.379 . S
C70 H88 0.952 . S
C71 C70 1.379 . S
C71 C72 1.390 . S
C71 H98 0.949 . S
C72 C71 1.390 . S
C72 C73 1.357 . S
C73 C72 1.357 . S
C73 C74 1.370 . S
C73 H99 0.950 . S
C74 N69 1.307 . S
C74 C73 1.370 . S
C74 H92 0.948 . S
Zn75 N69 2.020 . S
Zn75 O84 2.039 . S
Zn75 O90 2.034 . S
Zn75 O94 2.025 . S
Zn75 O96 2.024 . S
C76 O95 1.246 1_554 S
C76 O96 1.249 . S
N77 C78 1.307 . S
N77 C79 1.333 . S
N77 Zn83 2.020 . S
C78 N77 1.307 . S
C78 C82 1.370 . S
C78 H89 0.948 . S
C79 N77 1.333 . S
C79 C80 1.379 . S
C79 H87 0.952 . S
C80 C79 1.379 . S
C80 C81 1.390 . S
C80 H100 0.949 . S
C81 C80 1.390 . S
C81 C82 1.357 . S
C82 C78 1.370 . S
C82 C81 1.357 . S
C82 H101 0.950 . S
Zn83 N77 2.020 . S
Zn83 O86 2.025 . S
Zn83 O91 2.024 . S
Zn83 O93 2.039 . S
Zn83 O95 2.034 . S
O84 C68 1.251 . S
O84 Zn75 2.039 . S
C85 O90 1.246 . S
C85 O91 1.249 1_554 S
O86 C68 1.254 1_556 S
O86 Zn83 2.025 . S
H87 C79 0.952 . S
H88 C70 0.952 . S
H89 C78 0.948 . S
O90 Zn75 2.034 . S
O90 C85 1.246 . S
O91 Zn83 2.024 . S
O91 C85 1.249 1_556 S
H92 C74 0.948 . S
O93 Zn83 2.039 . S
O93 C97 1.251 1_556 S
O94 Zn75 2.025 . S
O94 C97 1.254 . S
O95 C76 1.246 1_556 S
O95 Zn83 2.034 . S
O96 Zn75 2.024 . S
O96 C76 1.249 . S
C97 O93 1.251 1_554 S
C97 O94 1.254 . S
H98 C71 0.949 . S
H99 C73 0.950 . S
H100 C80 0.949 . S
H101 C82 0.950 . S
C102 O118 1.251 1_554 S
C102 O120 1.254 . S
N103 C104 1.333 . S
N103 C108 1.307 . S
N103 Zn109 2.020 . S
C104 N103 1.333 . S
C104 C105 1.379 . S
C104 H122 0.952 . S
C105 C104 1.379 . S
C105 C106 1.390 . S
C105 H132 0.949 . S
C106 C105 1.390 . S
C106 C107 1.357 . S
C107 C106 1.357 . S
C107 C108 1.370 . S
C107 H133 0.950 . S
C108 N103 1.307 . S
C108 C107 1.370 . S
C108 H126 0.948 . S
Zn109 N103 2.020 . S
Zn109 O118 2.039 . S
Zn109 O124 2.034 . S
Zn109 O128 2.024 1_556 S
Zn109 O130 2.024 . S
C110 O129 1.246 . S
C110 O130 1.249 1_554 S
N111 C112 1.307 . S
N111 C113 1.333 . S
N111 Zn117 2.020 . S
C112 N111 1.307 . S
C112 C116 1.370 . S
C112 H123 0.948 . S
C113 N111 1.333 . S
C113 C114 1.379 . S
C113 H121 0.952 . S
C114 C113 1.379 . S
C114 C115 1.390 . S
C114 H134 0.949 . S
C115 C114 1.390 . S
C115 C116 1.357 . S
C116 C112 1.370 . S
C116 C115 1.357 . S
C116 H135 0.950 . S
Zn117 N111 2.020 . S
Zn117 O120 2.025 . S
Zn117 O125 2.024 . S
Zn117 O127 2.039 . S
Zn117 O129 2.034 . S
O118 C102 1.251 1_556 S
O118 Zn109 2.039 . S
C119 O124 1.246 1_554 S
C119 O125 1.249 . S
O120 C102 1.254 . S
O120 Zn117 2.025 . S
H121 C113 0.952 . S
H122 C104 0.952 . S
H123 C112 0.948 . S
O124 Zn109 2.034 . S
O124 C119 1.246 1_556 S
O125 Zn117 2.024 . S
O125 C119 1.249 . S
H126 C108 0.948 . S
O127 Zn117 2.039 . S
O127 C131 1.251 . S
O128 Zn109 2.024 1_554 S
O128 C131 1.259 . S
O129 C110 1.246 . S
O129 Zn117 2.034 . S
O130 Zn109 2.024 . S
O130 C110 1.249 1_556 S
C131 O127 1.251 . S
C131 O128 1.259 . S
H132 C105 0.949 . S
H133 C107 0.950 . S
H134 C114 0.949 . S
H135 C116 0.950 . S
C136 O152 1.251 1_554 S
C136 O154 1.254 . S
N137 C138 1.333 . S
N137 C142 1.307 . S
N137 Zn143 2.020 . S
C138 N137 1.333 . S
C138 C139 1.379 . S
C138 H156 0.952 . S
C139 C138 1.379 . S
C139 C140 1.390 . S
C139 H166 0.949 . S
C140 C139 1.390 . S
C140 C141 1.357 . S
C141 C140 1.357 . S
C141 C142 1.370 . S
C141 H167 0.950 . S
C142 N137 1.307 . S
C142 C141 1.370 . S
C142 H160 0.948 . S
Zn143 N137 2.020 . S
Zn143 O152 2.039 . S
Zn143 O158 2.034 . S
Zn143 O162 2.025 . S
Zn143 O164 2.024 . S
C144 O163 1.246 . S
C144 O164 1.249 1_554 S
N145 C146 1.307 . S
N145 C147 1.333 . S
N145 Zn151 2.020 . S
C146 N145 1.307 . S
C146 C150 1.370 . S
C146 H157 0.948 . S
C147 N145 1.333 . S
C147 C148 1.379 . S
C147 H155 0.952 . S
C148 C147 1.379 . S
C148 C149 1.390 . S
C148 H168 0.949 . S
C149 C148 1.390 . S
C149 C150 1.357 . S
C150 C146 1.370 . S
C150 C149 1.357 . S
C150 H169 0.950 . S
Zn151 N145 2.020 . S
Zn151 O154 2.025 . S
Zn151 O159 2.024 . S
Zn151 O161 2.039 . S
Zn151 O163 2.034 . S
O152 C136 1.251 1_556 S
O152 Zn143 2.039 . S
C153 O158 1.246 1_554 S
C153 O159 1.249 . S
O154 C136 1.254 . S
O154 Zn151 2.025 . S
H155 C147 0.952 . S
H156 C138 0.952 . S
H157 C146 0.948 . S
O158 Zn143 2.034 . S
O158 C153 1.246 1_556 S
O159 Zn151 2.024 . S
O159 C153 1.249 . S
H160 C142 0.948 . S
O161 Zn151 2.039 . S
O161 C165 1.251 . S
O162 Zn143 2.025 . S
O162 C165 1.254 1_556 S
O163 C144 1.246 . S
O163 Zn151 2.034 . S
O164 Zn143 2.024 . S
O164 C144 1.249 1_556 S
C165 O161 1.251 . S
C165 O162 1.254 1_554 S
H166 C139 0.949 . S
H167 C141 0.950 . S
H168 C148 0.949 . S
H169 C150 0.950 . S
C170 O186 1.251 . S
C170 O188 1.254 1_554 S
N171 C172 1.333 . S
N171 C176 1.307 . S
N171 Zn177 2.020 . S
C172 N171 1.333 . S
C172 C173 1.379 . S
C172 H190 0.952 . S
C173 C172 1.379 . S
C173 C174 1.390 . S
C173 H200 0.949 . S
C174 C173 1.390 . S
C174 C175 1.357 . S
C175 C174 1.357 . S
C175 C176 1.370 . S
C175 H201 0.950 . S
C176 N171 1.307 . S
C176 C175 1.370 . S
C176 H194 0.948 . S
Zn177 N171 2.020 . S
Zn177 O186 2.039 . S
Zn177 O192 2.034 . S
Zn177 O196 2.025 . S
Zn177 O198 2.024 . S
C178 O197 1.246 1_554 S
C178 O198 1.249 . S
N179 C180 1.307 . S
N179 C181 1.333 . S
N179 Zn185 2.020 . S
C180 N179 1.307 . S
C180 C184 1.370 . S
C180 H191 0.948 . S
C181 N179 1.333 . S
C181 C182 1.379 . S
C181 H189 0.952 . S
C182 C181 1.379 . S
C182 C183 1.390 . S
C182 H202 0.949 . S
C183 C182 1.390 . S
C183 C184 1.357 . S
C184 C180 1.370 . S
C184 C183 1.357 . S
C184 H203 0.950 . S
Zn185 N179 2.020 . S
Zn185 O188 2.025 . S
Zn185 O193 2.024 . S
Zn185 O195 2.039 . S
Zn185 O197 2.034 . S
O186 C170 1.251 . S
O186 Zn177 2.039 . S
C187 O192 1.246 . S
C187 O193 1.249 1_554 S
O188 C170 1.254 1_556 S
O188 Zn185 2.025 . S
H189 C181 0.952 . S
H190 C172 0.952 . S
H191 C180 0.948 . S
O192 Zn177 2.034 . S
O192 C187 1.246 . S
O193 Zn185 2.024 . S
O193 C187 1.249 1_556 S
H194 C176 0.948 . S
O195 Zn185 2.039 . S
O195 C199 1.251 1_556 S
O196 Zn177 2.025 . S
O196 C199 1.254 . S
O197 C178 1.246 1_556 S
O197 Zn185 2.034 . S
O198 Zn177 2.024 . S
O198 C178 1.249 . S
C199 O195 1.251 1_554 S
C199 O196 1.254 . S
H200 C173 0.949 . S
H201 C175 0.950 . S
H202 C182 0.949 . S
H203 C184 0.950 . S
C204 C205 1.386 . S
C204 C206 1.383 . S
C204 H220 0.951 . S
C205 C204 1.386 . S
C205 C209 1.383 1_554 S
C206 C204 1.383 . S
C206 C207 1.402 . S
C206 H221 0.951 . S
C207 C206 1.402 . S
C207 C208 1.375 1_554 S
C207 C210 1.481 . S
C208 C207 1.375 1_556 S
C208 C209 1.367 . S
C208 H222 0.951 . S
C209 C205 1.383 1_556 S
C209 C208 1.367 . S
C209 H223 0.950 . S
C210 C207 1.481 . S
C210 C211 1.297 . S
C210 H224 0.950 1_554 S
C211 C210 1.297 . S
C211 C212 1.479 . S
C211 H225 0.950 . S
C212 C211 1.479 . S
C212 C213 1.375 . S
C212 C218 1.404 1_554 S
C213 C212 1.375 . S
C213 C214 1.369 . S
C213 H226 0.950 . S
C214 C213 1.369 . S
C214 C215 1.392 . S
C214 H227 0.951 . S
C215 C214 1.392 . S
C215 C217 1.384 1_554 S
H216 C218 0.949 . S
C217 C215 1.384 1_556 S
C217 C218 1.385 . S
C217 H219 0.950 . S
C218 C212 1.404 1_556 S
C218 H216 0.949 . S
C218 C217 1.385 . S
H219 C217 0.950 . S
H220 C204 0.951 . S
H221 C206 0.951 . S
H222 C208 0.951 . S
H223 C209 0.950 . S
H224 C210 0.950 1_556 S
H225 C211 0.950 . S
H226 C213 0.950 . S
H227 C214 0.951 . S
C228 C229 1.386 . S
C228 C230 1.383 . S
C228 H244 0.951 . S
C229 C228 1.386 . S
C229 C233 1.383 . S
C230 C228 1.383 . S
C230 C231 1.402 . S
C230 H245 0.951 . S
C231 C230 1.402 . S
C231 C232 1.375 . S
C231 C234 1.481 . S
C232 C231 1.375 . S
C232 C233 1.367 . S
C232 H246 0.951 . S
C233 C229 1.383 . S
C233 C232 1.367 . S
C233 H247 0.950 . S
C234 C231 1.481 . S
C234 C235 1.297 1_455 S
C234 H248 0.950 . S
C235 C234 1.297 1_655 S
C235 C236 1.479 . S
C235 H249 0.950 . S
C236 C235 1.479 . S
C236 C237 1.375 . S
C236 C242 1.404 . S
C237 C236 1.375 . S
C237 C238 1.369 . S
C237 H250 0.950 . S
C238 C237 1.369 . S
C238 C239 1.392 . S
C238 H251 0.951 . S
C239 C238 1.392 . S
C239 C241 1.384 . S
H240 C242 0.949 . S
C241 C239 1.384 . S
C241 C242 1.385 . S
C241 H243 0.950 . S
C242 C236 1.404 . S
C242 H240 0.949 . S
C242 C241 1.385 . S
H243 C241 0.950 . S
H244 C228 0.951 . S
H245 C230 0.951 . S
H246 C232 0.951 . S
H247 C233 0.950 . S
H248 C234 0.950 . S
H249 C235 0.950 . S
H250 C237 0.950 . S
H251 C238 0.951 . S
C252 C253 1.386 1_556 S
C252 C254 1.383 . S
C252 H268 0.951 . S
C253 C252 1.386 1_554 S
C253 C257 1.383 . S
C254 C252 1.383 . S
C254 C255 1.402 1_556 S
C254 H269 0.951 . S
C255 C254 1.402 1_554 S
C255 C256 1.375 . S
C255 C258 1.481 . S
C256 C255 1.375 . S
C256 C257 1.367 . S
C256 H270 0.951 . S
C257 C253 1.383 . S
C257 C256 1.367 . S
C257 H271 0.950 . S
C258 C255 1.481 . S
C258 C259 1.297 1_545 S
C258 H272 0.950 . S
C259 C258 1.297 1_565 S
C259 C260 1.479 . S
C259 H273 0.950 1_554 S
C260 C259 1.479 . S
C260 C261 1.375 1_554 S
C260 C266 1.404 . S
C261 C260 1.375 1_556 S
C261 C262 1.369 . S
C261 H274 0.950 . S
C262 C261 1.369 . S
C262 C263 1.392 1_556 S
C262 H275 0.951 . S
C263 C262 1.392 1_554 S
C263 C265 1.384 . S
H264 C266 0.949 . S
C265 C263 1.384 . S
C265 C266 1.385 . S
C265 H267 0.950 . S
C266 C260 1.404 . S
C266 H264 0.949 . S
C266 C265 1.385 . S
H267 C265 0.950 . S
H268 C252 0.951 . S
H269 C254 0.951 . S
H270 C256 0.951 . S
H271 C257 0.950 . S
H272 C258 0.950 . S
H273 C259 0.950 1_556 S
H274 C261 0.950 . S
H275 C262 0.951 . S
C276 C277 1.386 . S
C276 C278 1.383 . S
C276 H292 0.951 1_554 S
C277 C276 1.386 . S
C277 C281 1.383 . S
C278 C276 1.383 . S
C278 C279 1.402 . S
C278 H293 0.951 1_554 S
C279 C278 1.402 . S
C279 C280 1.375 . S
C279 C282 1.481 . S
C280 C279 1.375 . S
C280 C281 1.367 . S
C280 H294 0.951 . S
C281 C277 1.383 . S
C281 C280 1.367 . S
C281 H295 0.950 . S
C282 C279 1.481 . S
C282 C283 1.297 . S
C282 H296 0.950 . S
C283 C282 1.297 . S
C283 C284 1.479 . S
C283 H297 0.950 . S
C284 C283 1.479 . S
C284 C285 1.375 1_554 S
C284 C290 1.404 . S
C285 C284 1.375 1_556 S
C285 C286 1.369 . S
C285 H298 0.950 . S
C286 C285 1.369 . S
C286 C287 1.392 1_556 S
C286 H299 0.951 . S
C287 C286 1.392 1_554 S
C287 C289 1.384 . S
H288 C290 0.949 . S
C289 C287 1.384 . S
C289 C290 1.385 . S
C289 H291 0.950 . S
C290 C284 1.404 . S
C290 H288 0.949 . S
C290 C289 1.385 . S
H291 C289 0.950 . S
H292 C276 0.951 1_556 S
H293 C278 0.951 1_556 S
H294 C280 0.951 . S
H295 C281 0.950 . S
H296 C282 0.950 . S
H297 C283 0.950 . S
H298 C285 0.950 . S
H299 C286 0.951 . S
C300 C301 1.386 . S
C300 C302 1.383 . S
C300 H316 0.951 . S
C301 C300 1.386 . S
C301 C305 1.383 1_554 S
C302 C300 1.383 . S
C302 C303 1.402 . S
C302 H317 0.951 . S
C303 C302 1.402 . S
C303 C304 1.375 1_554 S
C303 C306 1.481 . S
C304 C303 1.375 1_556 S
C304 C305 1.367 . S
C304 H318 0.951 . S
C305 C301 1.383 1_556 S
C305 C304 1.367 . S
C305 H319 0.950 . S
C306 C303 1.481 . S
C306 C307 1.297 1_455 S
C306 H320 0.950 1_554 S
C307 C306 1.297 1_655 S
C307 C308 1.479 . S
C307 H321 0.960 . S
C308 C307 1.479 . S
C308 C309 1.375 . S
C308 C314 1.404 . S
C309 C308 1.375 . S
C309 C310 1.369 . S
C309 H322 0.950 . S
C310 C309 1.369 . S
C310 C311 1.392 . S
C310 H323 0.951 . S
C311 C310 1.392 . S
C311 C313 1.384 . S
H312 C314 0.949 1_556 S
C313 C311 1.384 . S
C313 C314 1.385 . S
C313 H315 0.950 1_554 S
C314 C308 1.404 . S
C314 H312 0.949 1_554 S
C314 C313 1.385 . S
H315 C313 0.950 1_556 S
H316 C300 0.951 . S
H317 C302 0.951 . S
H318 C304 0.951 . S
H319 C305 0.950 . S
H320 C306 0.950 1_556 S
H321 C307 0.960 . S
H322 C309 0.950 . S
H323 C310 0.951 . S
C324 C325 1.386 . S
C324 C326 1.383 . S
C324 H340 0.951 . S
C325 C324 1.386 . S
C325 C329 1.383 1_554 S
C326 C324 1.383 . S
C326 C327 1.402 . S
C326 H341 0.951 . S
C327 C326 1.402 . S
C327 C328 1.375 1_554 S
C327 C330 1.481 1_554 S
C328 C327 1.375 1_556 S
C328 C329 1.367 . S
C328 H342 0.951 . S
C329 C325 1.383 1_556 S
C329 C328 1.367 . S
C329 H343 0.950 . S
C330 C327 1.481 1_556 S
C330 C331 1.297 1_566 S
C330 H344 0.950 . S
C331 C330 1.297 1_544 S
C331 C332 1.479 . S
C331 H345 0.950 . S
C332 C331 1.479 . S
C332 C333 1.375 . S
C332 C338 1.404 1_554 S
C333 C332 1.375 . S
C333 C334 1.369 . S
C333 H346 0.950 . S
C334 C333 1.369 . S
C334 C335 1.392 . S
C334 H347 0.951 . S
C335 C334 1.392 . S
C335 C337 1.384 1_554 S
H336 C338 0.949 . S
C337 C335 1.384 1_556 S
C337 C338 1.385 . S
C337 H339 0.950 . S
C338 C332 1.404 1_556 S
C338 H336 0.949 . S
C338 C337 1.385 . S
H339 C337 0.950 . S
H340 C324 0.951 . S
H341 C326 0.951 . S
H342 C328 0.951 . S
H343 C329 0.950 . S
H344 C330 0.950 . S
H345 C331 0.950 . S
H346 C333 0.950 . S
H347 C334 0.951 . S
C348 C349 1.386 . S
C348 C350 1.383 . S
C348 H364 0.951 . S
C349 C348 1.386 . S
C349 C353 1.383 1_554 S
C350 C348 1.383 . S
C350 C351 1.402 . S
C350 H365 0.951 . S
C351 C350 1.402 . S
C351 C352 1.375 1_554 S
C351 C354 1.481 . S
C352 C351 1.375 1_556 S
C352 C353 1.367 . S
C352 H366 0.951 . S
C353 C349 1.383 1_556 S
C353 C352 1.367 . S
C353 H367 0.950 . S
C354 C351 1.481 . S
C354 C355 1.297 . S
C354 H368 0.950 1_554 S
C355 C354 1.297 . S
C355 C356 1.479 . S
C355 H369 0.950 . S
C356 C355 1.479 . S
C356 C357 1.375 . S
C356 C362 1.404 . S
C357 C356 1.375 . S
C357 C358 1.369 . S
C357 H370 0.950 . S
C358 C357 1.369 . S
C358 C359 1.392 . S
C358 H371 0.951 . S
C359 C358 1.392 . S
C359 C361 1.384 . S
H360 C362 0.949 . S
C361 C359 1.384 . S
C361 C362 1.385 . S
C361 H363 0.950 1_554 S
C362 C356 1.404 . S
C362 H360 0.949 . S
C362 C361 1.385 . S
H363 C361 0.950 1_556 S
H364 C348 0.951 . S
H365 C350 0.951 . S
H366 C352 0.951 . S
H367 C353 0.950 . S
H368 C354 0.950 1_556 S
H369 C355 0.950 . S
H370 C357 0.950 . S
H371 C358 0.951 . S
C372 C373 1.386 . S
C372 C374 1.383 . S
C372 H388 0.951 . S
C373 C372 1.386 . S
C373 C377 1.383 . S
C374 C372 1.383 . S
C374 C375 1.402 . S
C374 H389 0.951 . S
C375 C374 1.402 . S
C375 C376 1.375 . S
C375 C378 1.481 . S
C376 C375 1.375 . S
C376 C377 1.367 . S
C376 H390 0.951 1_554 S
C377 C373 1.383 . S
C377 C376 1.367 . S
C377 H391 0.947 1_554 S
C378 C375 1.481 . S
C378 C379 1.297 . S
C378 H392 0.950 . S
C379 C378 1.297 . S
C379 C380 1.479 . S
C379 H393 0.950 . S
C380 C379 1.479 . S
C380 C381 1.375 . S
C380 C386 1.403 1_554 S
C381 C380 1.375 . S
C381 C382 1.369 . S
C381 H394 0.950 . S
C382 C381 1.369 . S
C382 C383 1.392 . S
C382 H395 0.951 . S
C383 C382 1.392 . S
C383 C385 1.384 . S
H384 C386 0.949 . S
C385 C383 1.384 . S
C385 C386 1.385 1_554 S
C385 H387 0.950 1_554 S
C386 C380 1.403 1_556 S
C386 H384 0.949 . S
C386 C385 1.385 1_556 S
H387 C385 0.950 1_556 S
H388 C372 0.951 . S
H389 C374 0.951 . S
H390 C376 0.951 1_556 S
H391 C377 0.947 1_556 S
H392 C378 0.950 . S
H393 C379 0.950 . S
H394 C381 0.950 . S
H395 C382 0.951 . S
C396 C397 1.386 . S
C396 C398 1.383 . S
C396 H412 0.951 . S
C397 C396 1.386 . S
C397 C401 1.383 . S
C398 C396 1.383 . S
C398 C399 1.402 . S
C398 H413 0.951 . S
C399 C398 1.402 . S
C399 C400 1.375 . S
C399 C402 1.481 . S
C400 C399 1.375 . S
C400 C401 1.367 . S
C400 H414 0.951 . S
C401 C397 1.383 . S
C401 C400 1.367 . S
C401 H415 0.950 . S
C402 C399 1.481 . S
C402 C403 1.297 1_554 S
C402 H416 0.950 . S
C403 C402 1.297 1_556 S
C403 C404 1.479 . S
C403 H417 0.950 . S
C404 C403 1.479 . S
C404 C405 1.375 1_556 S
C404 C410 1.404 . S
C405 C404 1.375 1_554 S
C405 C406 1.369 . S
C405 H418 0.952 . S
C406 C405 1.369 . S
C406 C407 1.392 . S
C406 H419 0.951 . S
C407 C406 1.392 . S
C407 C409 1.384 . S
H408 C410 0.952 . S
C409 C407 1.384 . S
C409 C410 1.382 1_554 S
C409 H411 0.950 . S
C410 C404 1.404 . S
C410 H408 0.952 . S
C410 C409 1.382 1_556 S
H411 C409 0.950 . S
H412 C396 0.951 . S
H413 C398 0.951 . S
H414 C400 0.951 . S
H415 C401 0.950 . S
H416 C402 0.950 . S
H417 C403 0.950 . S
H418 C405 0.952 . S
H419 C406 0.951 . S
C420 C421 1.386 . S
C420 C422 1.383 . S
C420 H436 0.951 1_554 S
C421 C420 1.386 . S
C421 C425 1.383 . S
C422 C420 1.383 . S
C422 C423 1.402 . S
C422 H437 0.958 . S
C423 C422 1.402 . S
C423 C424 1.375 . S
C423 C426 1.481 . S
C424 C423 1.375 . S
C424 C425 1.367 . S
C424 H438 0.951 . S
C425 C421 1.383 . S
C425 C424 1.367 . S
C425 H439 0.950 . S
C426 C423 1.481 . S
C426 C427 1.297 . S
C426 H440 0.950 . S
C427 C426 1.297 . S
C427 C428 1.479 . S
C427 H441 0.950 . S
C428 C427 1.479 . S
C428 C429 1.375 . S
C428 C434 1.404 . S
C429 C428 1.375 . S
C429 C430 1.369 . S
C429 H442 0.950 1_554 S
C430 C429 1.369 . S
C430 C431 1.392 . S
C430 H443 0.951 1_554 S
C431 C430 1.392 . S
C431 C433 1.384 . S
H432 C434 0.949 . S
C433 C431 1.384 . S
C433 C434 1.385 . S
C433 H435 0.950 . S
C434 C428 1.404 . S
C434 H432 0.949 . S
C434 C433 1.385 . S
H435 C433 0.950 . S
H436 C420 0.951 1_556 S
H437 C422 0.958 . S
H438 C424 0.951 . S
H439 C425 0.950 . S
H440 C426 0.950 . S
H441 C427 0.950 . S
H442 C429 0.950 1_556 S
H443 C430 0.951 1_556 S
C444 C445 1.386 1_556 S
C444 C446 1.383 . S
C444 H460 0.951 . S
C445 C444 1.386 1_554 S
C445 C449 1.383 . S
C446 C444 1.383 . S
C446 C447 1.402 1_556 S
C446 H461 0.951 . S
C447 C446 1.402 1_554 S
C447 C448 1.375 . S
C447 C450 1.481 . S
C448 C447 1.375 . S
C448 C449 1.367 . S
C448 H462 0.951 . S
C449 C445 1.383 . S
C449 C448 1.367 . S
C449 H463 0.950 . S
C450 C447 1.481 . S
C450 C451 1.297 . S
C450 H464 0.950 . S
C451 C450 1.297 . S
C451 C452 1.479 . S
C451 H465 0.950 1_554 S
C452 C451 1.479 . S
C452 C453 1.375 1_554 S
C452 C458 1.404 . S
C453 C452 1.375 1_556 S
C453 C454 1.369 . S
C453 H466 0.950 . S
C454 C453 1.369 . S
C454 C455 1.392 1_556 S
C454 H467 0.951 . S
C455 C454 1.392 1_554 S
C455 C457 1.384 . S
H456 C458 0.949 . S
C457 C455 1.384 . S
C457 C458 1.385 . S
C457 H459 0.950 . S
C458 C452 1.404 . S
C458 H456 0.949 . S
C458 C457 1.385 . S
H459 C457 0.950 . S
H460 C444 0.951 . S
H461 C446 0.951 . S
H462 C448 0.951 . S
H463 C449 0.950 . S
H464 C450 0.950 . S
H465 C451 0.950 1_556 S
H466 C453 0.950 . S
H467 C454 0.951 . S
C468 C469 1.386 . S
C468 C470 1.383 . S
C468 H484 0.951 . S
C469 C468 1.386 . S
C469 C473 1.383 . S
C470 C468 1.383 . S
C470 C471 1.402 . S
C470 H485 0.951 . S
C471 C470 1.402 . S
C471 C472 1.375 . S
C471 C474 1.481 . S
C472 C471 1.375 . S
C472 C473 1.367 . S
C472 H486 0.951 . S
C473 C469 1.383 . S
C473 C472 1.367 . S
C473 H487 0.950 . S
C474 C471 1.481 . S
C474 C475 1.297 . S
C474 H488 0.950 . S
C475 C474 1.297 . S
C475 C476 1.479 . S
C475 H489 0.950 . S
C476 C475 1.479 . S
C476 C477 1.375 . S
C476 C482 1.404 . S
C477 C476 1.375 . S
C477 C478 1.369 . S
C477 H490 0.950 . S
C478 C477 1.369 . S
C478 C479 1.392 . S
C478 H491 0.951 . S
C479 C478 1.392 . S
C479 C481 1.384 . S
H480 C482 0.949 . S
C481 C479 1.384 . S
C481 C482 1.385 . S
C481 H483 0.950 . S
C482 C476 1.404 . S
C482 H480 0.949 . S
C482 C481 1.385 . S
H483 C481 0.950 . S
H484 C468 0.951 . S
H485 C470 0.951 . S
H486 C472 0.951 . S
H487 C473 0.950 . S
H488 C474 0.950 . S
H489 C475 0.950 . S
H490 C477 0.950 . S
H491 C478 0.951 . S
C492 C493 1.386 . S
C492 C494 1.383 . S
C492 H508 0.951 . S
C493 C492 1.386 . S
C493 C497 1.383 . S
C494 C492 1.383 . S
C494 C495 1.402 . S
C494 H509 0.951 . S
C495 C494 1.402 . S
C495 C496 1.375 . S
C495 C498 1.481 . S
C496 C495 1.375 . S
C496 C497 1.367 . S
C496 H510 0.951 . S
C497 C493 1.383 . S
C497 C496 1.367 . S
C497 H511 0.950 . S
C498 C495 1.481 . S
C498 C499 1.297 . S
C498 H512 0.950 . S
C499 C498 1.297 . S
C499 C500 1.479 . S
C499 H513 0.950 . S
C500 C499 1.479 . S
C500 C501 1.375 . S
C500 C506 1.404 . S
C501 C500 1.375 . S
C501 C502 1.369 . S
C501 H514 0.950 . S
C502 C501 1.369 . S
C502 C503 1.392 . S
C502 H515 0.951 . S
C503 C502 1.392 . S
C503 C505 1.384 . S
H504 C506 0.949 . S
C505 C503 1.384 . S
C505 C506 1.385 . S
C505 H507 0.950 . S
C506 C500 1.404 . S
C506 H504 0.949 . S
C506 C505 1.385 . S
H507 C505 0.950 . S
H508 C492 0.951 . S
H509 C494 0.951 . S
H510 C496 0.951 . S
H511 C497 0.950 . S
H512 C498 0.950 . S
H513 C499 0.950 . S
H514 C501 0.950 . S
H515 C502 0.951 . S
C516 C517 1.386 . S
C516 C518 1.383 . S
C516 H532 0.951 . S
C517 C516 1.386 . S
C517 C521 1.383 . S
C518 C516 1.383 . S
C518 C519 1.402 . S
C518 H533 0.951 . S
C519 C518 1.402 . S
C519 C520 1.375 . S
C519 C522 1.481 . S
C520 C519 1.375 . S
C520 C521 1.367 . S
C520 H534 0.951 . S
C521 C517 1.383 . S
C521 C520 1.367 . S
C521 H535 0.950 . S
C522 C519 1.481 . S
C522 C523 1.297 . S
C522 H536 0.950 . S
C523 C522 1.297 . S
C523 C524 1.479 . S
C523 H537 0.950 . S
C524 C523 1.479 . S
C524 C525 1.375 . S
C524 C530 1.404 . S
C525 C524 1.375 . S
C525 C526 1.369 . S
C525 H538 0.950 . S
C526 C525 1.369 . S
C526 C527 1.392 . S
C526 H539 0.951 . S
C527 C526 1.392 . S
C527 C529 1.384 . S
H528 C530 0.949 . S
C529 C527 1.384 . S
C529 C530 1.385 . S
C529 H531 0.950 . S
C530 C524 1.404 . S
C530 H528 0.949 . S
C530 C529 1.385 . S
H531 C529 0.950 . S
H532 C516 0.951 . S
H533 C518 0.951 . S
H534 C520 0.951 . S
H535 C521 0.950 . S
H536 C522 0.950 . S
H537 C523 0.950 . S
H538 C525 0.950 . S
H539 C526 0.951 . S
C540 C541 1.386 . S
C540 C542 1.383 . S
C540 H556 0.951 . S
C541 C540 1.386 . S
C541 C545 1.383 . S
C542 C540 1.383 . S
C542 C543 1.402 . S
C542 H557 0.951 . S
C543 C542 1.402 . S
C543 C544 1.375 . S
C543 C546 1.481 . S
C544 C543 1.375 . S
C544 C545 1.367 . S
C544 H558 0.951 . S
C545 C541 1.383 . S
C545 C544 1.367 . S
C545 H559 0.950 . S
C546 C543 1.481 . S
C546 C547 1.297 . S
C546 H560 0.950 . S
C547 C546 1.297 . S
C547 C548 1.479 . S
C547 H561 0.950 . S
C548 C547 1.479 . S
C548 C549 1.375 . S
C548 C554 1.404 . S
C549 C548 1.375 . S
C549 C550 1.369 . S
C549 H562 0.950 . S
C550 C549 1.369 . S
C550 C551 1.392 . S
C550 H563 0.951 . S
C551 C550 1.392 . S
C551 C553 1.384 . S
H552 C554 0.949 . S
C553 C551 1.384 . S
C553 C554 1.385 . S
C553 H555 0.950 . S
C554 C548 1.404 . S
C554 H552 0.949 . S
C554 C553 1.385 . S
H555 C553 0.950 . S
H556 C540 0.951 . S
H557 C542 0.951 . S
H558 C544 0.951 . S
H559 C545 0.950 . S
H560 C546 0.950 . S
H561 C547 0.950 . S
H562 C549 0.950 . S
H563 C550 0.951 . S
C564 C565 1.386 . S
C564 C566 1.383 . S
C564 H580 0.951 . S
C565 C564 1.386 . S
C565 C569 1.383 . S
C566 C564 1.383 . S
C566 C567 1.402 . S
C566 H581 0.951 . S
C567 C566 1.402 . S
C567 C568 1.375 . S
C567 C570 1.481 . S
C568 C567 1.375 . S
C568 C569 1.367 . S
C568 H582 0.951 . S
C569 C565 1.383 . S
C569 C568 1.367 . S
C569 H583 0.950 . S
C570 C567 1.481 . S
C570 C571 1.297 . S
C570 H584 0.950 . S
C571 C570 1.297 . S
C571 C572 1.479 . S
C571 H585 0.950 . S
C572 C571 1.479 . S
C572 C573 1.375 . S
C572 C578 1.404 . S
C573 C572 1.375 . S
C573 C574 1.369 . S
C573 H586 0.950 . S
C574 C573 1.369 . S
C574 C575 1.392 . S
C574 H587 0.951 . S
C575 C574 1.392 . S
C575 C577 1.384 . S
H576 C578 0.949 . S
C577 C575 1.384 . S
C577 C578 1.385 . S
C577 H579 0.950 . S
C578 C572 1.404 . S
C578 H576 0.949 . S
C578 C577 1.385 . S
H579 C577 0.950 . S
H580 C564 0.951 . S
H581 C566 0.951 . S
H582 C568 0.951 . S
H583 C569 0.950 . S
H584 C570 0.950 . S
H585 C571 0.950 . S
H586 C573 0.950 . S
H587 C574 0.951 . S
C588 C589 1.386 . S
C588 C590 1.383 . S
C588 H604 0.951 . S
C589 C588 1.386 . S
C589 C593 1.383 . S
C590 C588 1.383 . S
C590 C591 1.402 . S
C590 H605 0.951 . S
C591 C590 1.402 . S
C591 C592 1.375 . S
C591 C594 1.481 . S
C592 C591 1.375 . S
C592 C593 1.367 . S
C592 H606 0.951 . S
C593 C589 1.383 . S
C593 C592 1.367 . S
C593 H607 0.950 . S
C594 C591 1.481 . S
C594 C595 1.297 . S
C594 H608 0.950 . S
C595 C594 1.297 . S
C595 C596 1.479 . S
C595 H609 0.950 . S
C596 C595 1.479 . S
C596 C597 1.375 . S
C596 C602 1.404 . S
C597 C596 1.375 . S
C597 C598 1.369 . S
C597 H610 0.950 . S
C598 C597 1.369 . S
C598 C599 1.392 . S
C598 H611 0.951 . S
C599 C598 1.392 . S
C599 C601 1.384 . S
H600 C602 0.949 . S
C601 C599 1.384 . S
C601 C602 1.385 . S
C601 H603 0.950 . S
C602 C596 1.404 . S
C602 H600 0.949 . S
C602 C601 1.385 . S
H603 C601 0.950 . S
H604 C588 0.951 . S
H605 C590 0.951 . S
H606 C592 0.951 . S
H607 C593 0.950 . S
H608 C594 0.950 . S
H609 C595 0.950 . S
H610 C597 0.950 . S
H611 C598 0.951 . S
C612 C613 1.386 . S
C612 C614 1.383 . S
C612 H628 0.951 . S
C613 C612 1.386 . S
C613 C617 1.383 . S
C614 C612 1.383 . S
C614 C615 1.402 . S
C614 H629 0.951 . S
C615 C614 1.402 . S
C615 C616 1.375 . S
C615 C618 1.481 . S
C616 C615 1.375 . S
C616 C617 1.367 . S
C616 H630 0.951 . S
C617 C613 1.383 . S
C617 C616 1.367 . S
C617 H631 0.950 . S
C618 C615 1.481 . S
C618 C619 1.297 . S
C618 H632 0.950 . S
C619 C618 1.297 . S
C619 C620 1.479 . S
C619 H633 0.950 . S
C620 C619 1.479 . S
C620 C621 1.375 . S
C620 C626 1.404 . S
C621 C620 1.375 . S
C621 C622 1.369 . S
C621 H634 0.950 . S
C622 C621 1.369 . S
C622 C623 1.392 . S
C622 H635 0.951 . S
C623 C622 1.392 . S
C623 C625 1.384 . S
H624 C626 0.949 . S
C625 C623 1.384 . S
C625 C626 1.385 . S
C625 H627 0.950 . S
C626 C620 1.404 . S
C626 H624 0.949 . S
C626 C625 1.385 . S
H627 C625 0.950 . S
H628 C612 0.951 . S
H629 C614 0.951 . S
H630 C616 0.951 . S
H631 C617 0.950 . S
H632 C618 0.950 . S
H633 C619 0.950 . S
H634 C621 0.950 . S
H635 C622 0.951 . S
C205 C170 1.342 . S
C215 C8 1.295 . S
C229 C0 1.331 . S
C239 C34 1.330 . S
C253 C42 1.361 . S
C263 C76 1.370 . S
C277 C102 1.351 . S
C287 C68 1.320 . S
C301 C165 1.377 . S
C311 C110 1.376 . S
C325 C153 1.341 . S
C335 C178 1.299 . S
C349 C144 1.470 . S
C359 C17 1.467 . S
C373 C199 1.451 . S
C383 C63 1.447 . S
C397 C85 1.460 . S
C407 C29 1.446 . S
C421 C131 1.458 . S
C431 C51 1.456 . S
C445 C136 1.463 . S
C455 C97 1.467 . S
C469 C119 1.468 . S
C479 C187 1.463 . S
C493 C13 1.503 . S
C503 C4 1.480 . S
C517 C38 1.490 . S
C527 C47 1.486 . S
C541 C81 1.504 . S
C551 C72 1.474 . S
C565 C106 1.497 . S
C575 C115 1.510 . S
C589 C149 1.488 . S
C599 C140 1.488 . S
C613 C183 1.490 . S
C623 C174 1.501 . S
