# Generated by pormake.
# Topology unp, (4)-cn, num edge types: 1
# Building blocks:
#     Node 0, Type 0, BuildingBlock: UXUYUI_clean_sbu_0, # of connection points: 4
#     Node 1, Type 0, BuildingBlock: UXUYUI_clean_sbu_0, # of connection points: 4
#     Node 2, Type 0, BuildingBlock: UXUYUI_clean_sbu_0, # of connection points: 4
#     Node 3, Type 0, BuildingBlock: UXUYUI_clean_sbu_0, # of connection points: 4
#     Node 4, Type 0, BuildingBlock: UXUYUI_clean_sbu_0, # of connection points: 4
#     Node 5, Type 0, BuildingBlock: UXUYUI_clean_sbu_0, # of connection points: 4
#     Node 6, Type 0, BuildingBlock: UXUYUI_clean_sbu_0, # of connection points: 4
#     Node 7, Type 0, BuildingBlock: UXUYUI_clean_sbu_0, # of connection points: 4
#     Node 8, Type 0, BuildingBlock: UXUYUI_clean_sbu_0, # of connection points: 4
#     Node 9, Type 0, BuildingBlock: UXUYUI_clean_sbu_0, # of connection points: 4
#     Node 10, Type 0, BuildingBlock: UXUYUI_clean_sbu_0, # of connection points: 4
#     Node 11, Type 0, BuildingBlock: UXUYUI_clean_sbu_0, # of connection points: 4
#     Node 12, Type 0, BuildingBlock: UXUYUI_clean_sbu_0, # of connection points: 4
#     Node 13, Type 0, BuildingBlock: UXUYUI_clean_sbu_0, # of connection points: 4
#     Node 14, Type 0, BuildingBlock: UXUYUI_clean_sbu_0, # of connection points: 4
#     Node 15, Type 0, BuildingBlock: UXUYUI_clean_sbu_0, # of connection points: 4
#     Node 16, Type 0, BuildingBlock: UXUYUI_clean_sbu_0, # of connection points: 4
#     Node 17, Type 0, BuildingBlock: UXUYUI_clean_sbu_0, # of connection points: 4
#     Edge 18, Type (0, 0), BuildingBlock: EZIPEK_clean_linker_0, # of connection points: 2
#     Edge 19, Type (0, 0), BuildingBlock: EZIPEK_clean_linker_0, # of connection points: 2
#     Edge 20, Type (0, 0), BuildingBlock: EZIPEK_clean_linker_0, # of connection points: 2
#     Edge 21, Type (0, 0), BuildingBlock: EZIPEK_clean_linker_0, # of connection points: 2
#     Edge 22, Type (0, 0), BuildingBlock: EZIPEK_clean_linker_0, # of connection points: 2
#     Edge 23, Type (0, 0), BuildingBlock: EZIPEK_clean_linker_0, # of connection points: 2
#     Edge 24, Type (0, 0), BuildingBlock: EZIPEK_clean_linker_0, # of connection points: 2
#     Edge 25, Type (0, 0), BuildingBlock: EZIPEK_clean_linker_0, # of connection points: 2
#     Edge 26, Type (0, 0), BuildingBlock: EZIPEK_clean_linker_0, # of connection points: 2
#     Edge 27, Type (0, 0), BuildingBlock: EZIPEK_clean_linker_0, # of connection points: 2
#     Edge 28, Type (0, 0), BuildingBlock: EZIPEK_clean_linker_0, # of connection points: 2
#     Edge 29, Type (0, 0), BuildingBlock: EZIPEK_clean_linker_0, # of connection points: 2
#     Edge 30, Type (0, 0), BuildingBlock: EZIPEK_clean_linker_0, # of connection points: 2
#     Edge 31, Type (0, 0), BuildingBlock: EZIPEK_clean_linker_0, # of connection points: 2
#     Edge 32, Type (0, 0), BuildingBlock: EZIPEK_clean_linker_0, # of connection points: 2
#     Edge 33, Type (0, 0), BuildingBlock: EZIPEK_clean_linker_0, # of connection points: 2
#     Edge 34, Type (0, 0), BuildingBlock: EZIPEK_clean_linker_0, # of connection points: 2
#     Edge 35, Type (0, 0), BuildingBlock: EZIPEK_clean_linker_0, # of connection points: 2
#     Edge 36, Type (0, 0), BuildingBlock: EZIPEK_clean_linker_0, # of connection points: 2
#     Edge 37, Type (0, 0), BuildingBlock: EZIPEK_clean_linker_0, # of connection points: 2
#     Edge 38, Type (0, 0), BuildingBlock: EZIPEK_clean_linker_0, # of connection points: 2
#     Edge 39, Type (0, 0), BuildingBlock: EZIPEK_clean_linker_0, # of connection points: 2
#     Edge 40, Type (0, 0), BuildingBlock: EZIPEK_clean_linker_0, # of connection points: 2
#     Edge 41, Type (0, 0), BuildingBlock: EZIPEK_clean_linker_0, # of connection points: 2
#     Edge 42, Type (0, 0), BuildingBlock: EZIPEK_clean_linker_0, # of connection points: 2
#     Edge 43, Type (0, 0), BuildingBlock: EZIPEK_clean_linker_0, # of connection points: 2
#     Edge 44, Type (0, 0), BuildingBlock: EZIPEK_clean_linker_0, # of connection points: 2
#     Edge 45, Type (0, 0), BuildingBlock: EZIPEK_clean_linker_0, # of connection points: 2
#     Edge 46, Type (0, 0), BuildingBlock: EZIPEK_clean_linker_0, # of connection points: 2
#     Edge 47, Type (0, 0), BuildingBlock: EZIPEK_clean_linker_0, # of connection points: 2
#     Edge 48, Type (0, 0), BuildingBlock: EZIPEK_clean_linker_0, # of connection points: 2
#     Edge 49, Type (0, 0), BuildingBlock: EZIPEK_clean_linker_0, # of connection points: 2
#     Edge 50, Type (0, 0), BuildingBlock: EZIPEK_clean_linker_0, # of connection points: 2
#     Edge 51, Type (0, 0), BuildingBlock: EZIPEK_clean_linker_0, # of connection points: 2
#     Edge 52, Type (0, 0), BuildingBlock: EZIPEK_clean_linker_0, # of connection points: 2
#     Edge 53, Type (0, 0), BuildingBlock: EZIPEK_clean_linker_0, # of connection points: 2
# Relax obj value: 0.501
# Max RMSD: 0.229
# Mean RMSD: 0.224
data_MOF--net-unp--node1-UXUYUI_clean_sbu_0--edge1-EZIPEK_clean_linker_0
_symmetry_space_group_name_H-M    P1
_symmetry_Int_Tables_number       1
_symmetry_cell_setting            triclinic
loop_
_symmetry_equiv_pos_as_xyz
'x, y, z'
_cell_length_a     51.516194
_cell_length_b     51.521405
_cell_length_c     85.280353
_cell_angle_alpha  90.240958
_cell_angle_beta   89.760474
_cell_angle_gamma 120.51394
loop_
_atom_site_label
_atom_site_type_symbol
_atom_site_fract_x
_atom_site_fract_y
_atom_site_fract_z
_atom_type_partial_charge
Li0 Li 0.19175 0.21444 0.08355 0.0
Li1 Li 0.20254 0.22705 0.11033 0.0
Li2 Li 0.17745 0.17477 0.10264 0.0
Li3 Li 0.15021 0.20404 0.10314 0.0
C4 C 0.24161 0.2132 0.08701 0.0
N5 N 0.28824 0.22646 0.06636 0.0
C6 C 0.26825 0.24119 0.08767 0.0
C7 C 0.23874 0.19198 0.07582 0.0
C8 C 0.29154 0.24745 0.07713 0.0
C9 C 0.26255 0.19909 0.06551 0.0
C10 C 0.19614 0.27268 0.09948 0.0
C11 C 0.19088 0.31304 0.11036 0.0
N12 N 0.22055 0.33264 0.10741 0.0
C13 C 0.22651 0.29323 0.09645 0.0
C14 C 0.17809 0.28262 0.10642 0.0
C15 C 0.23846 0.32345 0.1006 0.0
C16 C 0.18485 0.20515 0.05113 0.0
N17 N 0.20355 0.22476 0.06217 0.0
C18 C 0.2396 0.25456 0.04249 0.0
C19 C 0.23012 0.24966 0.05813 0.0
C20 C 0.22121 0.23382 0.03106 0.0
C21 C 0.19332 0.20924 0.0354 0.0
H22 H 0.16353 0.18602 0.05454 0.0
H23 H 0.24435 0.26527 0.06705 0.0
C24 C 0.25442 0.2485 0.12795 0.0
N25 N 0.23158 0.25384 0.1252 0.0
C26 C 0.27662 0.2657 0.13886 0.0
C27 C 0.25108 0.29323 0.1444 0.0
C28 C 0.22917 0.27529 0.13339 0.0
C29 C 0.27507 0.28837 0.14712 0.0
H30 H 0.25515 0.2305 0.1218 0.0
H31 H 0.21004 0.27814 0.13164 0.0
C32 C 0.13264 0.14842 0.0816 0.0
N33 N 0.09447 0.08935 0.07251 0.0
C34 C 0.10241 0.13325 0.08628 0.0
C35 C 0.14338 0.13352 0.07224 0.0
C36 C 0.08351 0.10338 0.0816 0.0
C37 C 0.12373 0.1037 0.06775 0.0
C38 C 0.17433 0.19728 0.13592 0.0
C39 C 0.19159 0.1863 0.1426 0.0
C40 C 0.16564 0.21422 0.14502 0.0
C41 C 0.20012 0.1927 0.15831 0.0
C42 C 0.1746 0.22009 0.1607 0.0
N43 N 0.19151 0.20931 0.16696 0.0
C44 C 0.19326 0.12911 0.10361 0.0
C45 C 0.1436 0.11446 0.11179 0.0
C46 C 0.18715 0.09952 0.10509 0.0
N47 N 0.17129 0.13575 0.10654 0.0
C48 C 0.1365 0.08464 0.11338 0.0
C49 C 0.1583 0.07695 0.10975 0.0
H50 H 0.21529 0.1466 0.09982 0.0
H51 H 0.12676 0.12054 0.11428 0.0
C52 C 0.09969 0.20805 0.09452 0.0
N53 N 0.11176 0.19926 0.10602 0.0
C54 C 0.06901 0.19848 0.09479 0.0
C55 C 0.06432 0.17233 0.1191 0.0
C56 C 0.09507 0.18249 0.1184 0.0
C57 C 0.05087 0.17955 0.10693 0.0
H58 H 0.11351 0.22092 0.08469 0.0
H59 H 0.10519 0.17527 0.12714 0.0
O60 O 0.21849 0.20662 0.09722 0.0
O61 O 0.1839 0.24305 0.09544 0.0
O62 O 0.15153 0.17773 0.08605 0.0
O63 O 0.16639 0.19186 0.12047 0.0
H64 H 0.2708 0.25812 0.09606 0.0
H65 H 0.21827 0.17033 0.07503 0.0
H66 H 0.3122 0.26907 0.07747 0.0
H67 H 0.26057 0.18288 0.05678 0.0
H68 H 0.17722 0.32106 0.11578 0.0
H69 H 0.24081 0.28585 0.0912 0.0
H70 H 0.1545 0.26698 0.10879 0.0
H71 H 0.262 0.33957 0.09845 0.0
H72 H 0.26119 0.27387 0.03939 0.0
H73 H 0.17859 0.19304 0.02674 0.0
H74 H 0.29474 0.26124 0.14094 0.0
H75 H 0.24917 0.31032 0.15087 0.0
H76 H 0.09357 0.14431 0.09345 0.0
H77 H 0.16663 0.14485 0.06847 0.0
H78 H 0.06011 0.09138 0.08518 0.0
H79 H 0.13176 0.09196 0.06047 0.0
H80 H 0.19858 0.17325 0.13566 0.0
H81 H 0.15245 0.22304 0.13996 0.0
H82 H 0.21365 0.18453 0.16362 0.0
H83 H 0.16821 0.23333 0.16787 0.0
H84 H 0.20438 0.09412 0.10222 0.0
H85 H 0.11402 0.06759 0.11699 0.0
H86 H 0.05919 0.20425 0.08519 0.0
H87 H 0.05084 0.15744 0.1285 0.0
Li88 Li 0.82492 0.01856 0.10522 0.0
Li89 Li 0.80101 0.96412 0.10491 0.0
Li90 Li 0.78564 0.99006 0.08559 0.0
Li91 Li 0.77252 0.98603 0.11278 0.0
C92 C 0.84829 0.01027 0.07829 0.0
N93 N 0.89562 0.04619 0.05849 0.0
C94 C 0.87153 0.00418 0.07588 0.0
C95 C 0.8492 0.03473 0.07071 0.0
C96 C 0.89526 0.0226 0.06582 0.0
C97 C 0.87329 0.05258 0.06072 0.0
C98 C 0.8153 0.97677 0.13489 0.0
C99 C 0.80133 0.93271 0.15059 0.0
N100 N 0.82887 0.94727 0.15754 0.0
C101 C 0.84329 0.99146 0.14237 0.0
C102 C 0.79398 0.94732 0.13921 0.0
C103 C 0.84978 0.97611 0.15372 0.0
C104 C 0.86945 0.08202 0.10379 0.0
N105 N 0.86346 0.05385 0.10759 0.0
C106 C 0.91569 0.07187 0.11173 0.0
C107 C 0.88584 0.04845 0.11148 0.0
C108 C 0.92251 0.10101 0.10777 0.0
C109 C 0.89913 0.10621 0.10388 0.0
H110 H 0.85148 0.08557 0.10007 0.0
H111 H 0.88056 0.02565 0.11372 0.0
C112 C 0.7917 0.90422 0.10444 0.0
N113 N 0.81147 0.93402 0.1069 0.0
C114 C 0.8017 0.88355 0.10501 0.0
C115 C 0.85182 0.92474 0.11093 0.0
C116 C 0.84097 0.94451 0.11014 0.0
C117 C 0.83216 0.89402 0.10818 0.0
H118 H 0.76844 0.89665 0.10171 0.0
H119 H 0.85615 0.96839 0.11184 0.0
C120 C 0.79054 0.04646 0.107 0.0
N121 N 0.79202 0.09419 0.12275 0.0
C122 C 0.80215 0.05381 0.12222 0.0
C123 C 0.77952 0.06328 0.09985 0.0
C124 C 0.80288 0.07814 0.12993 0.0
C125 C 0.78041 0.08729 0.10801 0.0
C126 C 0.7295 0.93638 0.09994 0.0
C127 C 0.71075 0.9431 0.09123 0.0
C128 C 0.71695 0.91355 0.11118 0.0
C129 C 0.67976 0.92727 0.09414 0.0
C130 C 0.68585 0.89823 0.11376 0.0
N131 N 0.66806 0.90537 0.10527 0.0
C132 C 0.78589 0.97914 0.05369 0.0
C133 C 0.76 0.00488 0.06025 0.0
C134 C 0.78225 0.98217 0.03776 0.0
N135 N 0.77534 0.99096 0.06449 0.0
C136 C 0.7553 0.00791 0.0444 0.0
C137 C 0.76725 0.99713 0.03301 0.0
H138 H 0.798 0.96821 0.05746 0.0
H139 H 0.75195 0.0141 0.06916 0.0
C140 C 0.74328 0.97986 0.14196 0.0
N141 N 0.74249 0.98444 0.12633 0.0
C142 C 0.7254 0.98519 0.15229 0.0
C143 C 0.70517 0.99829 0.13011 0.0
C144 C 0.72342 0.99272 0.12024 0.0
C145 C 0.70691 0.99548 0.14633 0.0
H146 H 0.75913 0.97399 0.14653 0.0
H147 H 0.72387 0.99696 0.1078 0.0
O148 O 0.82514 0.99278 0.08831 0.0
O149 O 0.80876 0.99118 0.12347 0.0
O150 O 0.78974 0.02288 0.0991 0.0
O151 O 0.75995 0.95198 0.09739 0.0
H152 H 0.87124 0.98544 0.08174 0.0
H153 H 0.83164 0.04006 0.07265 0.0
H154 H 0.91341 0.01817 0.06383 0.0
H155 H 0.8743 0.0716 0.05479 0.0
H156 H 0.78514 0.90978 0.15389 0.0
H157 H 0.85978 0.01451 0.13952 0.0
H158 H 0.77214 0.93578 0.13369 0.0
H159 H 0.87142 0.98716 0.15953 0.0
H160 H 0.93342 0.06717 0.11446 0.0
H161 H 0.90392 0.12843 0.10046 0.0
H162 H 0.78615 0.85991 0.10271 0.0
H163 H 0.87549 0.93339 0.11326 0.0
H164 H 0.81074 0.0411 0.12801 0.0
H165 H 0.77038 0.05785 0.08811 0.0
H166 H 0.81192 0.08416 0.14167 0.0
H167 H 0.77193 0.10048 0.10262 0.0
H168 H 0.72004 0.96061 0.08245 0.0
H169 H 0.73098 0.90759 0.11781 0.0
H170 H 0.66502 0.93243 0.08758 0.0
H171 H 0.67585 0.8806 0.12247 0.0
H172 H 0.79156 0.97349 0.02922 0.0
H173 H 0.74343 0.01935 0.04103 0.0
H174 H 0.72748 0.98335 0.16481 0.0
H175 H 0.69146 0.00672 0.12527 0.0
Li176 Li 0.98303 0.81999 0.10401 0.0
Li177 Li 0.03978 0.84851 0.1063 0.0
Li178 Li 0.01138 0.80778 0.08588 0.0
Li179 Li 0.00987 0.79553 0.11256 0.0
C180 C 0.00387 0.86605 0.08359 0.0
N181 N 0.98306 0.90359 0.07424 0.0
C182 C 0.01944 0.89651 0.08784 0.0
C183 C 0.97788 0.85482 0.07443 0.0
C184 C 0.00853 0.91509 0.08303 0.0
C185 C 0.96766 0.87411 0.06988 0.0
C186 C 0.00312 0.82191 0.13798 0.0
C187 C 0.02015 0.8228 0.16437 0.0
N188 N 0.99115 0.80399 0.16892 0.0
C189 C 0.97348 0.80263 0.1429 0.0
C190 C 0.02668 0.83216 0.14877 0.0
C191 C 0.9679 0.79379 0.1586 0.0
C192 C 0.9208 0.80295 0.104 0.0
N193 N 0.94949 0.82528 0.10709 0.0
C194 C 0.93293 0.86001 0.1126 0.0
C195 C 0.95573 0.85305 0.11188 0.0
C196 C 0.90344 0.83791 0.10869 0.0
C197 C 0.89713 0.80881 0.10479 0.0
H198 H 0.91638 0.78084 0.10062 0.0
H199 H 0.97868 0.87012 0.11459 0.0
C200 C 0.09508 0.90069 0.09951 0.0
N201 N 0.07258 0.88739 0.11029 0.0
C202 C 0.11505 0.93175 0.10008 0.0
C203 C 0.08929 0.9343 0.12332 0.0
C204 C 0.06988 0.90323 0.12233 0.0
C205 C 0.11144 0.94894 0.11176 0.0
H206 H 0.09614 0.88752 0.08988 0.0
H207 H 0.05122 0.89212 0.13044 0.0
C208 C 0.9602 0.75748 0.08728 0.0
N209 N 0.93106 0.71331 0.06474 0.0
C210 C 0.96343 0.73212 0.08703 0.0
C211 C 0.94208 0.7603 0.07605 0.0
C212 C 0.94852 0.71005 0.07555 0.0
C213 C 0.92757 0.73775 0.06476 0.0
C214 C 0.06408 0.80479 0.10445 0.0
C215 C 0.0558 0.77483 0.1016 0.0
C216 C 0.09038 0.82355 0.11283 0.0
C217 C 0.07383 0.76398 0.10739 0.0
C218 C 0.10785 0.81187 0.11839 0.0
N219 N 0.09925 0.78257 0.1156 0.0
C220 C 0.01044 0.81485 0.05339 0.0
C221 C 0.01485 0.77281 0.0605 0.0
C222 C 0.00857 0.80719 0.03759 0.0
N223 N 0.01284 0.79735 0.0645 0.0
C224 C 0.01282 0.76414 0.04479 0.0
C225 C 0.00929 0.78136 0.03324 0.0
H226 H 0.00959 0.83457 0.05678 0.0
H227 H 0.01727 0.75953 0.06951 0.0
C228 C 0.97873 0.74095 0.12839 0.0
N229 N 0.00633 0.76629 0.12751 0.0
C230 C 0.97302 0.7189 0.13945 0.0
C231 C 0.024 0.74966 0.14896 0.0
C232 C 0.02878 0.77118 0.13763 0.0
C233 C 0.99581 0.72323 0.14986 0.0
H234 H 0.96081 0.73821 0.12077 0.0
H235 H 0.05008 0.79208 0.13723 0.0
O236 O 0.01406 0.84739 0.08834 0.0
O237 O 0.00906 0.83051 0.12264 0.0
O238 O 0.97481 0.77949 0.09837 0.0
O239 O 0.04683 0.81592 0.09887 0.0
H240 H 0.0397 0.90582 0.09477 0.0
H241 H 0.96557 0.8314 0.07097 0.0
H242 H 0.02034 0.93867 0.08628 0.0
H243 H 0.94749 0.86564 0.06287 0.0
H244 H 0.03815 0.83043 0.17284 0.0
H245 H 0.95504 0.7944 0.13465 0.0
H246 H 0.04976 0.84694 0.14509 0.0
H247 H 0.94509 0.77875 0.16258 0.0
H248 H 0.93832 0.88258 0.11579 0.0
H249 H 0.87444 0.79127 0.10188 0.0
H250 H 0.1318 0.94253 0.09093 0.0
H251 H 0.0857 0.94705 0.13233 0.0
H252 H 0.9777 0.72968 0.09544 0.0
H253 H 0.93937 0.77974 0.07598 0.0
H254 H 0.95097 0.69041 0.07518 0.0
H255 H 0.91359 0.73974 0.05597 0.0
H256 H 0.03545 0.76 0.0952 0.0
H257 H 0.09714 0.84683 0.11509 0.0
H258 H 0.06756 0.74076 0.1054 0.0
H259 H 0.1282 0.82607 0.12495 0.0
H260 H 0.00605 0.82097 0.02886 0.0
H261 H 0.01358 0.74413 0.04169 0.0
H262 H 0.95082 0.69895 0.14014 0.0
H263 H 0.04176 0.75383 0.15713 0.0
Li264 Li 0.22753 0.20414 0.88668 0.0
Li265 Li 0.21574 0.1916 0.9133 0.0
Li266 Li 0.20571 0.15142 0.89286 0.0
Li267 Li 0.17522 0.17752 0.89451 0.0
C268 C 0.27381 0.1983 0.89546 0.0
N269 N 0.33261 0.22445 0.88502 0.0
C270 C 0.29428 0.22863 0.89865 0.0
C271 C 0.28327 0.18117 0.8871 0.0
C272 C 0.3239 0.24147 0.89321 0.0
C273 C 0.3131 0.19483 0.8819 0.0
C274 C 0.20977 0.23952 0.9113 0.0
C275 C 0.18942 0.25606 0.932 0.0
N276 N 0.21632 0.28221 0.93316 0.0
C277 C 0.23716 0.26666 0.91264 0.0
C278 C 0.18565 0.23425 0.92101 0.0
C279 C 0.24004 0.28792 0.92378 0.0
C280 C 0.24956 0.25887 0.87157 0.0
N281 N 0.2535 0.23474 0.87221 0.0
C282 C 0.28936 0.25464 0.85124 0.0
C283 C 0.27277 0.23209 0.86224 0.0
C284 C 0.28569 0.27976 0.85054 0.0
C285 C 0.26569 0.28187 0.86087 0.0
H286 H 0.23314 0.25985 0.87905 0.0
H287 H 0.27461 0.21214 0.86248 0.0
C288 C 0.20701 0.18363 0.94576 0.0
N289 N 0.22629 0.20265 0.9347 0.0
C290 C 0.21114 0.19197 0.9615 0.0
C291 C 0.25592 0.23874 0.9544 0.0
C292 C 0.25103 0.22933 0.93875 0.0
C293 C 0.23541 0.22006 0.96584 0.0
H294 H 0.18805 0.16222 0.94234 0.0
H295 H 0.26643 0.24377 0.92981 0.0
C296 C 0.19694 0.1767 0.86081 0.0
N297 N 0.20571 0.19402 0.82974 0.0
C298 C 0.18579 0.19447 0.85502 0.0
C299 C 0.21247 0.16765 0.85083 0.0
C300 C 0.19048 0.20301 0.83927 0.0
C301 C 0.21672 0.17669 0.83515 0.0
C302 C 0.15103 0.13128 0.91584 0.0
C303 C 0.13735 0.10064 0.91213 0.0
C304 C 0.13557 0.14138 0.92521 0.0
C305 C 0.10832 0.08073 0.91767 0.0
C306 C 0.10655 0.12079 0.93049 0.0
N307 N 0.09363 0.09114 0.92664 0.0
C308 C 0.21006 0.10046 0.90007 0.0
C309 C 0.18293 0.09687 0.87693 0.0
C310 C 0.19949 0.06957 0.89957 0.0
N311 N 0.20088 0.11313 0.88909 0.0
C312 C 0.17184 0.06596 0.87599 0.0
C313 C 0.17927 0.0519 0.88773 0.0
H314 H 0.22376 0.11391 0.90979 0.0
H315 H 0.17534 0.10744 0.86865 0.0
C316 C 0.13156 0.19515 0.89033 0.0
N317 N 0.13616 0.17139 0.89079 0.0
C318 C 0.10249 0.19028 0.88833 0.0
C319 C 0.0838 0.13674 0.88689 0.0
C320 C 0.11321 0.1427 0.88852 0.0
C321 C 0.07818 0.16066 0.88706 0.0
H322 H 0.15041 0.21784 0.89163 0.0
H323 H 0.11768 0.12437 0.88823 0.0
O324 O 0.24476 0.18523 0.9007 0.0
O325 O 0.20657 0.2183 0.90052 0.0
O326 O 0.19274 0.16828 0.87621 0.0
O327 O 0.17941 0.15119 0.91041 0.0
H328 H 0.28726 0.24221 0.90503 0.0
H329 H 0.26768 0.15763 0.88459 0.0
H330 H 0.33993 0.26499 0.89547 0.0
H331 H 0.32073 0.1819 0.87536 0.0
H332 H 0.17096 0.25219 0.93963 0.0
H333 H 0.2562 0.27108 0.90534 0.0
H334 H 0.16422 0.21359 0.92005 0.0
H335 H 0.26118 0.3089 0.92501 0.0
H336 H 0.30419 0.25218 0.84311 0.0
H337 H 0.26196 0.30074 0.86032 0.0
H338 H 0.19512 0.17704 0.97017 0.0
H339 H 0.27498 0.2605 0.95751 0.0
H340 H 0.17384 0.20175 0.86264 0.0
H341 H 0.22139 0.15404 0.85519 0.0
H342 H 0.1821 0.21687 0.83462 0.0
H343 H 0.22882 0.16999 0.82729 0.0
H344 H 0.14886 0.09222 0.90501 0.0
H345 H 0.14584 0.16488 0.92837 0.0
H346 H 0.09747 0.05701 0.91482 0.0
H347 H 0.09431 0.12838 0.93767 0.0
H348 H 0.20537 0.05924 0.90887 0.0
H349 H 0.15594 0.05283 0.86686 0.0
H350 H 0.09887 0.20923 0.88818 0.0
H351 H 0.06554 0.11366 0.88563 0.0
Li352 Li 0.79857 0.0127 0.88566 0.0
Li353 Li 0.80936 0.01183 0.91508 0.0
Li354 Li 0.84917 0.03519 0.89537 0.0
Li355 Li 0.81943 0.98263 0.89597 0.0
C356 C 0.83551 0.07703 0.90096 0.0
N357 N 0.8718 0.13897 0.90076 0.0
C358 C 0.85382 0.09194 0.91384 0.0
C359 C 0.83541 0.09356 0.88804 0.0
C360 C 0.87211 0.12329 0.91349 0.0
C361 C 0.85396 0.12489 0.88816 0.0
C362 C 0.76143 0.94846 0.90255 0.0
C363 C 0.73587 0.90334 0.91815 0.0
N364 N 0.72508 0.88668 0.90482 0.0
C365 C 0.74999 0.93095 0.88901 0.0
C366 C 0.75428 0.93463 0.91725 0.0
C367 C 0.7317 0.89972 0.8904 0.0
C368 C 0.76369 0.99429 0.85877 0.0
N369 N 0.77044 0.01227 0.8716 0.0
C370 C 0.73097 0.02214 0.86581 0.0
C371 C 0.75511 0.02659 0.87516 0.0
C372 C 0.72269 0.00253 0.85294 0.0
C373 C 0.73971 0.9891 0.84918 0.0
H374 H 0.77618 0.98301 0.85639 0.0
H375 H 0.76087 0.04044 0.88559 0.0
C376 C 0.81838 0.02528 0.94691 0.0
N377 N 0.79696 0.01419 0.93556 0.0
C378 C 0.81014 0.02418 0.96256 0.0
C379 C 0.75825 0.00287 0.95443 0.0
C380 C 0.76745 0.00379 0.9389 0.0
C381 C 0.7797 0.01219 0.96645 0.0
H382 H 0.84172 0.0338 0.94382 0.0
H383 H 0.751 0.99538 0.92955 0.0
C384 C 0.85248 0.02166 0.86571 0.0
N385 N 0.89593 0.04981 0.84278 0.0
C386 C 0.87843 0.01945 0.86584 0.0
C387 C 0.84851 0.038 0.85388 0.0
C388 C 0.90015 0.03388 0.85415 0.0
C389 C 0.87079 0.05213 0.8424 0.0
C390 C 0.85655 0.99278 0.92016 0.0
C391 C 0.881 0.99171 0.9137 0.0
C392 C 0.84348 0.97733 0.93409 0.0
C393 C 0.89221 0.97558 0.92141 0.0
C394 C 0.85518 0.96122 0.94137 0.0
N395 N 0.87915 0.96075 0.93495 0.0
C396 C 0.90992 0.06876 0.90325 0.0
C397 C 0.89876 0.08882 0.88105 0.0
C398 C 0.94058 0.08889 0.90137 0.0
N399 N 0.88979 0.06814 0.89279 0.0
C400 C 0.92935 0.10997 0.87893 0.0
C401 C 0.95062 0.10922 0.88885 0.0
H402 H 0.90229 0.05315 0.9129 0.0
H403 H 0.88235 0.08843 0.87307 0.0
C404 C 0.82894 0.94146 0.87859 0.0
N405 N 0.81976 0.94578 0.89285 0.0
C406 C 0.83569 0.91863 0.87649 0.0
C407 C 0.82117 0.90362 0.90341 0.0
C408 C 0.81427 0.92644 0.90491 0.0
C409 C 0.83305 0.90038 0.88924 0.0
H410 H 0.83251 0.95666 0.86906 0.0
H411 H 0.80623 0.92974 0.91601 0.0
O412 O 0.8179 0.04635 0.90095 0.0
O413 O 0.77969 0.979 0.90141 0.0
O414 O 0.83085 0.00752 0.87699 0.0
O415 O 0.84591 0.00935 0.91306 0.0
H416 H 0.85416 0.07939 0.9239 0.0
H417 H 0.82139 0.08227 0.87796 0.0
H418 H 0.88659 0.13514 0.92331 0.0
H419 H 0.85426 0.138 0.87821 0.0
H420 H 0.73026 0.8923 0.92945 0.0
H421 H 0.75543 0.94133 0.87754 0.0
H422 H 0.76314 0.94785 0.92784 0.0
H423 H 0.7228 0.88584 0.88002 0.0
H424 H 0.71806 0.03269 0.86896 0.0
H425 H 0.73369 0.97381 0.83931 0.0
H426 H 0.82722 0.03182 0.97159 0.0
H427 H 0.73463 0.99382 0.95711 0.0
H428 H 0.88181 0.00685 0.8749 0.0
H429 H 0.82859 0.03997 0.85363 0.0
H430 H 0.92039 0.03245 0.85413 0.0
H431 H 0.86812 0.065 0.83321 0.0
H432 H 0.89132 0.00333 0.90288 0.0
H433 H 0.8241 0.97715 0.93909 0.0
H434 H 0.91133 0.97488 0.91664 0.0
H435 H 0.84515 0.94903 0.9521 0.0
H436 H 0.95641 0.08817 0.90943 0.0
H437 H 0.93643 0.12583 0.86932 0.0
H438 H 0.84483 0.91657 0.8654 0.0
H439 H 0.81886 0.88977 0.91344 0.0
Li440 Li 0.01683 0.82594 0.89462 0.0
Li441 Li 0.95989 0.79843 0.89323 0.0
Li442 Li 0.98834 0.7866 0.91371 0.0
Li443 Li 0.98778 0.77362 0.88698 0.0
C444 C 0.99886 0.85363 0.91488 0.0
N445 N 0.02227 0.91319 0.92351 0.0
C446 C 0.98753 0.87066 0.90829 0.0
C447 C 0.02208 0.86692 0.9259 0.0
C448 C -0.0003 0.90074 0.91277 0.0
C449 C 0.03356 0.89702 0.93013 0.0
C450 C 0.99329 0.80385 0.8611 0.0
C451 C 0.97251 0.78042 0.83616 0.0
N452 N 0.00088 0.79122 0.83049 0.0
C453 C 0.02225 0.81482 0.85503 0.0
C454 C 0.96819 0.78661 0.85161 0.0
C455 C 0.02561 0.80813 0.83952 0.0
C456 C 0.07932 0.8715 0.89575 0.0
N457 N 0.05128 0.86466 0.89114 0.0
C458 C 0.06962 0.91557 0.88342 0.0
C459 C 0.04626 0.88573 0.8846 0.0
C460 C 0.09838 0.9235 0.88879 0.0
C461 C 0.10344 0.90111 0.8947 0.0
H462 H 0.08285 0.85421 0.90058 0.0
H463 H 0.02383 0.8795 0.8808 0.0
C464 C 0.90746 0.79922 0.9016 0.0
N465 N 0.92737 0.80481 0.88976 0.0
C466 C 0.88781 0.81038 0.90082 0.0
C467 C 0.90852 0.83133 0.87533 0.0
C468 C 0.92771 0.81974 0.87658 0.0
C469 C 0.88905 0.82747 0.88778 0.0
H470 H 0.90826 0.78786 0.91206 0.0
H471 H 0.94435 0.82451 0.86756 0.0
C472 C 0.03938 0.7866 0.91127 0.0
N473 N 0.07111 0.77344 0.93275 0.0
C474 C 0.03888 0.75923 0.91039 0.0
C475 C 0.05606 0.80725 0.92308 0.0
C476 C 0.05508 0.75301 0.92135 0.0
C477 C 0.07192 0.80018 0.93383 0.0
C478 C 0.93462 0.7288 0.8985 0.0
C479 C 0.94514 0.70944 0.90237 0.0
C480 C 0.90599 0.71712 0.89194 0.0
C481 C 0.92691 0.67861 0.89944 0.0
C482 C 0.88841 0.68614 0.88922 0.0
N483 N 0.89916 0.6677 0.89298 0.0
C484 C 0.9845 0.7947 0.94585 0.0
C485 C 0.99043 0.75294 0.9401 0.0
C486 C 0.9868 0.79106 0.96185 0.0
N487 N 0.98723 0.77635 0.93531 0.0
C488 C 0.99309 0.74858 0.95604 0.0
C489 C 0.99176 0.76819 0.967 0.0
H490 H 0.98109 0.81257 0.94181 0.0
H491 H 0.9918 0.73815 0.93157 0.0
C492 C 0.01745 0.75096 0.86967 0.0
N493 N 0.98927 0.74588 0.87253 0.0
C494 C 0.02191 0.73312 0.85898 0.0
C495 C 0.96827 0.70528 0.85402 0.0
C496 C 0.96487 0.72393 0.86475 0.0
C497 C 0.99713 0.70999 0.8511 0.0
H498 H 0.03659 0.76926 0.87555 0.0
H499 H 0.94289 0.72119 0.86663 0.0
O500 O 0.98729 0.82414 0.91057 0.0
O501 O 0.98956 0.80952 0.87635 0.0
O502 O 0.02362 0.7931 0.90066 0.0
O503 O 0.95203 0.75902 0.90128 0.0
H504 H 0.96978 0.8609 0.89966 0.0
H505 H 0.03113 0.85414 0.93115 0.0
H506 H 0.99124 0.9142 0.90768 0.0
H507 H 0.0515 0.90755 0.93865 0.0
H508 H 0.9533 0.76694 0.8287 0.0
H509 H 0.04189 0.82809 0.86228 0.0
H510 H 0.94563 0.77777 0.8562 0.0
H511 H 0.04787 0.8163 0.83468 0.0
H512 H 0.06514 0.93247 0.87881 0.0
H513 H 0.12549 0.9067 0.89891 0.0
H514 H 0.8733 0.80751 0.9107 0.0
H515 H 0.91023 0.84485 0.86525 0.0
H516 H 0.0258 0.74274 0.9015 0.0
H517 H 0.05653 0.82839 0.92405 0.0
H518 H 0.05477 0.73188 0.92084 0.0
H519 H 0.08483 0.81594 0.94305 0.0
H520 H 0.96734 0.71819 0.90732 0.0
H521 H 0.89752 0.73187 0.88893 0.0
H522 H 0.93486 0.66337 0.90225 0.0
H523 H 0.86624 0.67676 0.88411 0.0
H524 H 0.98546 0.80636 0.97013 0.0
H525 H 0.99672 0.7306 0.95976 0.0
H526 H 0.04448 0.73741 0.85678 0.0
H527 H 0.94883 0.68779 0.84789 0.0
Li528 Li 0.86023 0.54964 0.45067 0.0
Li529 Li 0.84629 0.54017 0.42386 0.0
Li530 Li 0.80813 0.52914 0.44592 0.0
Li531 Li 0.83423 0.49888 0.44256 0.0
C532 C 0.85954 0.59834 0.43992 0.0
N533 N 0.89702 0.65953 0.44431 0.0
C534 C 0.88913 0.6127 0.4343 0.0
C535 C 0.84885 0.61509 0.4476 0.0
C536 C 0.90778 0.64366 0.4367 0.0
C537 C 0.86819 0.64602 0.44974 0.0
C538 C 0.88626 0.51972 0.42445 0.0
C539 C 0.87953 0.48636 0.4029 0.0
N540 N 0.90979 0.49766 0.40243 0.0
C541 C 0.91732 0.53103 0.42373 0.0
C542 C 0.86725 0.49724 0.41393 0.0
C543 C 0.92876 0.51956 0.41253 0.0
C544 C 0.91639 0.57321 0.46461 0.0
N545 N 0.89184 0.57648 0.46433 0.0
C546 C 0.91342 0.61516 0.48385 0.0
C547 C 0.88981 0.59679 0.47374 0.0
C548 C 0.93882 0.61195 0.48435 0.0
C549 C 0.9403 0.59083 0.47461 0.0
H550 H 0.91708 0.55642 0.45729 0.0
H551 H 0.86965 0.5983 0.47366 0.0
C552 C 0.83238 0.54324 0.39239 0.0
N553 N 0.85551 0.55141 0.40255 0.0
C554 C 0.83775 0.5457 0.37626 0.0
C555 C 0.89088 0.56664 0.38146 0.0
C556 C 0.88451 0.56407 0.39748 0.0
C557 C 0.86717 0.5566 0.37073 0.0
H558 H 0.80959 0.5334 0.39679 0.0
H559 H 0.90252 0.57072 0.40584 0.0
C560 C 0.83756 0.51918 0.47648 0.0
N561 N 0.86199 0.5286 0.50617 0.0
C562 C 0.85632 0.50797 0.48042 0.0
C563 C 0.83113 0.53511 0.48762 0.0
C564 C 0.86851 0.51303 0.49549 0.0
C565 C 0.84374 0.53965 0.50257 0.0
C566 C 0.78195 0.4783 0.42183 0.0
C567 C 0.75556 0.46299 0.43074 0.0
C568 C 0.78256 0.46821 0.40664 0.0
C569 C 0.73048 0.4376 0.42446 0.0
C570 C 0.75701 0.44273 0.40078 0.0
N571 N 0.73172 0.42807 0.40974 0.0
C572 C 0.75738 0.53532 0.44082 0.0
C573 C 0.75762 0.51303 0.46491 0.0
C574 C 0.72863 0.53052 0.44398 0.0
N575 N 0.77119 0.52658 0.45126 0.0
C576 C 0.72895 0.50781 0.46855 0.0
C577 C 0.71381 0.51734 0.45832 0.0
H578 H 0.76822 0.54488 0.42972 0.0
H579 H 0.76848 0.50487 0.47265 0.0
C580 C 0.85196 0.45425 0.444 0.0
N581 N 0.82839 0.45919 0.44483 0.0
C582 C 0.84682 0.42489 0.44399 0.0
C583 C 0.7936 0.40638 0.44722 0.0
C584 C 0.79976 0.43604 0.44706 0.0
C585 C 0.81725 0.40065 0.44532 0.0
H586 H 0.87474 0.47297 0.44304 0.0
H587 H 0.78164 0.44054 0.44855 0.0
O588 O 0.84105 0.56802 0.43785 0.0
O589 O 0.87489 0.53146 0.43505 0.0
O590 O 0.82579 0.5148 0.46171 0.0
O591 O 0.8066 0.50358 0.42772 0.0
H592 H 0.89772 0.59998 0.42837 0.0
H593 H 0.82594 0.60424 0.45197 0.0
H594 H 0.93083 0.65505 0.43255 0.0
H595 H 0.86031 0.65928 0.45574 0.0
H596 H 0.86499 0.46893 0.39471 0.0
H597 H 0.93249 0.54871 0.43162 0.0
H598 H 0.84328 0.48811 0.41438 0.0
H599 H 0.95275 0.52816 0.41184 0.0
H600 H 0.91166 0.63112 0.49142 0.0
H601 H 0.95961 0.58777 0.4749 0.0
H602 H 0.81903 0.53779 0.3682 0.0
H603 H 0.91379 0.57514 0.37749 0.0
H604 H 0.86165 0.49576 0.47189 0.0
H605 H 0.8169 0.5442 0.4847 0.0
H606 H 0.8832 0.50462 0.49869 0.0
H607 H 0.83911 0.55208 0.5113 0.0
H608 H 0.75458 0.47025 0.44252 0.0
H609 H 0.80246 0.47992 0.39937 0.0
H610 H 0.71004 0.42545 0.43131 0.0
H611 H 0.75726 0.43467 0.38908 0.0
H612 H 0.71804 0.5358 0.43466 0.0
H613 H 0.71864 0.4948 0.47896 0.0
H614 H 0.86555 0.42109 0.44269 0.0
H615 H 0.77056 0.38805 0.44848 0.0
Li616 Li 0.49984 0.35353 0.44032 0.0
Li617 Li 0.47473 0.29844 0.43986 0.0
Li618 Li 0.46615 0.3258 0.41902 0.0
Li619 Li 0.44541 0.32145 0.44524 0.0
C620 C 0.51545 0.32581 0.41072 0.0
N621 N 0.53646 0.32127 0.38158 0.0
C622 C 0.51065 0.29802 0.40539 0.0
C623 C 0.53091 0.35129 0.40123 0.0
C624 C 0.52143 0.29619 0.39061 0.0
C625 C 0.5414 0.34853 0.38654 0.0
C626 C 0.4878 0.3135 0.46953 0.0
C627 C 0.47617 0.27449 0.4885 0.0
N628 N 0.50585 0.28816 0.49235 0.0
C629 C 0.51815 0.32731 0.47375 0.0
C630 C 0.46657 0.28703 0.47704 0.0
C631 C 0.52683 0.3141 0.4853 0.0
C632 C 0.53676 0.40838 0.45706 0.0
N633 N 0.53636 0.38898 0.44605 0.0
C634 C 0.58971 0.41889 0.44282 0.0
C635 C 0.56212 0.3936 0.43905 0.0
C636 C 0.59071 0.43945 0.45393 0.0
C637 C 0.5639 0.43422 0.46107 0.0
H638 H 0.51602 0.40379 0.46269 0.0
H639 H 0.5613 0.37747 0.43064 0.0
C640 C 0.46028 0.23711 0.44341 0.0
N641 N 0.48209 0.26671 0.44404 0.0
C642 C 0.46785 0.21481 0.44542 0.0
C643 C 0.51984 0.25405 0.44901 0.0
C644 C 0.51138 0.27546 0.44678 0.0
C645 C 0.49801 0.22341 0.44816 0.0
H646 H 0.43725 0.23085 0.44095 0.0
H647 H 0.52826 0.29917 0.44686 0.0
C648 C 0.47654 0.38766 0.43383 0.0
N649 N 0.49868 0.44842 0.43869 0.0
C650 C 0.46383 0.39718 0.44537 0.0
C651 C 0.50038 0.40906 0.42468 0.0
C652 C 0.47534 0.428 0.44764 0.0
C653 C 0.51132 0.43966 0.42736 0.0
C654 C 0.40586 0.27061 0.4307 0.0
C655 C 0.388 0.2709 0.41848 0.0
C656 C 0.39223 0.2523 0.44375 0.0
C657 C 0.35667 0.25305 0.41963 0.0
C658 C 0.36083 0.23482 0.44447 0.0
N659 N 0.34385 0.23556 0.4325 0.0
C660 C 0.45258 0.30239 0.38823 0.0
C661 C 0.46313 0.3527 0.39095 0.0
C662 C 0.4499 0.30363 0.37201 0.0
N663 N 0.45957 0.3269 0.39726 0.0
C664 C 0.46068 0.35495 0.3748 0.0
C665 C 0.45436 0.33032 0.3652 0.0
H666 H 0.44971 0.28212 0.39362 0.0
H667 H 0.46833 0.37168 0.39842 0.0
C668 C 0.41711 0.32474 0.47251 0.0
N669 N 0.41325 0.31999 0.4568 0.0
C670 C 0.39721 0.3299 0.48122 0.0
C671 C 0.36851 0.32303 0.4576 0.0
C672 C 0.38941 0.31874 0.44926 0.0
C673 C 0.37313 0.32993 0.47364 0.0
H674 H 0.43663 0.32627 0.47811 0.0
H675 H 0.38751 0.31604 0.43668 0.0
O676 O 0.50486 0.32805 0.42509 0.0
O677 O 0.47894 0.32565 0.45798 0.0
O678 O 0.46572 0.35759 0.43148 0.0
O679 O 0.43654 0.28798 0.4298 0.0
H680 H 0.4985 0.27801 0.41251 0.0
H681 H 0.53458 0.37292 0.40511 0.0
H682 H 0.5178 0.27481 0.38632 0.0
H683 H 0.55334 0.36804 0.37906 0.0
H684 H 0.46004 0.25388 0.49433 0.0
H685 H 0.53487 0.3478 0.46805 0.0
H686 H 0.44299 0.27617 0.47395 0.0
H687 H 0.55027 0.32441 0.48861 0.0
H688 H 0.61012 0.42236 0.43719 0.0
H689 H 0.56409 0.44975 0.46973 0.0
H690 H 0.45062 0.19125 0.44455 0.0
H691 H 0.54335 0.2613 0.4509 0.0
H692 H 0.44534 0.38103 0.45254 0.0
H693 H 0.51067 0.40211 0.4158 0.0
H694 H 0.46576 0.43567 0.45656 0.0
H695 H 0.52994 0.45645 0.42047 0.0
H696 H 0.3982 0.28494 0.40829 0.0
H697 H 0.40575 0.25176 0.45327 0.0
H698 H 0.34255 0.25315 0.41031 0.0
H699 H 0.34996 0.22067 0.45455 0.0
H700 H 0.44501 0.2843 0.36482 0.0
H701 H 0.46421 0.3758 0.3698 0.0
H702 H 0.40136 0.33524 0.49359 0.0
H703 H 0.35016 0.32305 0.45145 0.0
Li704 Li 0.64342 0.14492 0.43841 0.0
Li705 Li 0.70079 0.17291 0.43825 0.0
Li706 Li 0.66978 0.13197 0.41808 0.0
Li707 Li 0.67101 0.12119 0.44477 0.0
C708 C 0.67136 0.19249 0.41297 0.0
N709 N 0.67073 0.23647 0.39473 0.0
C710 C 0.68493 0.22223 0.41836 0.0
C711 C 0.65759 0.18524 0.39822 0.0
C712 C 0.68429 0.24409 0.409 0.0
C713 C 0.65751 0.20776 0.38919 0.0
C714 C 0.66959 0.14686 0.47104 0.0
C715 C 0.69233 0.14623 0.49557 0.0
N716 N 0.66447 0.12739 0.50161 0.0
C717 C 0.64119 0.12758 0.47749 0.0
C718 C 0.6954 0.15636 0.48013 0.0
C719 C 0.63908 0.11792 0.49297 0.0
C720 C 0.58244 0.12825 0.44596 0.0
N721 N 0.61075 0.15126 0.44267 0.0
C722 C 0.59445 0.18704 0.44413 0.0
C723 C 0.6172 0.18028 0.44214 0.0
C724 C 0.56494 0.16372 0.44695 0.0
C725 C 0.55891 0.13403 0.44817 0.0
H726 H 0.57805 0.10541 0.44666 0.0
H727 H 0.64002 0.19818 0.4401 0.0
C728 C 0.75528 0.22549 0.42981 0.0
N729 N 0.73409 0.21193 0.44121 0.0
C730 C 0.77548 0.25654 0.43044 0.0
C731 C 0.75235 0.2585 0.45484 0.0
C732 C 0.73283 0.22749 0.45381 0.0
C733 C 0.77331 0.27347 0.4428 0.0
H734 H 0.75523 0.21256 0.41977 0.0
H735 H 0.71521 0.21618 0.46246 0.0
C736 C 0.6087 0.0906 0.42259 0.0
N737 N 0.55717 0.06323 0.40444 0.0
C738 C 0.59013 0.05925 0.42262 0.0
C739 C 0.60096 0.10798 0.41335 0.0
C740 C 0.56421 0.04584 0.41335 0.0
C741 C 0.57485 0.09376 0.40426 0.0
C742 C 0.71733 0.12094 0.43003 0.0
C743 C 0.69964 0.09142 0.42454 0.0
C744 C 0.74635 0.13085 0.4356 0.0
C745 C 0.71121 0.07209 0.42492 0.0
C746 C 0.75712 0.11084 0.43576 0.0
N747 N 0.73946 0.08212 0.43048 0.0
C748 C 0.68999 0.14543 0.38732 0.0
C749 C 0.64888 0.09556 0.39036 0.0
C750 C 0.68822 0.1424 0.37105 0.0
N751 N 0.66973 0.12259 0.39655 0.0
C752 C 0.64611 0.09163 0.37413 0.0
C753 C 0.6654 0.11559 0.36436 0.0
H754 H 0.70646 0.16658 0.3926 0.0
H755 H 0.63364 0.07742 0.39794 0.0
C756 C 0.6423 0.0669 0.4607 0.0
N757 N 0.6699 0.09171 0.45853 0.0
C758 C 0.63866 0.04448 0.47104 0.0
C759 C 0.69204 0.07335 0.47668 0.0
C760 C 0.69462 0.09544 0.46629 0.0
C761 C 0.66369 0.04773 0.47915 0.0
H762 H 0.62298 0.06485 0.45464 0.0
H763 H 0.71615 0.11577 0.46466 0.0
O764 O 0.67232 0.17087 0.42189 0.0
O765 O 0.67211 0.15619 0.45584 0.0
O766 O 0.63433 0.1039 0.4315 0.0
O767 O 0.7062 0.14001 0.42999 0.0
H768 H 0.69551 0.22838 0.42974 0.0
H769 H 0.64713 0.16252 0.39368 0.0
H770 H 0.69454 0.26711 0.41311 0.0
H771 H 0.64696 0.20239 0.37777 0.0
H772 H 0.71209 0.15326 0.50274 0.0
H773 H 0.62103 0.11994 0.47055 0.0
H774 H 0.71755 0.17115 0.47526 0.0
H775 H 0.61726 0.10285 0.4981 0.0
H776 H 0.59976 0.21022 0.44337 0.0
H777 H 0.5363 0.11566 0.45051 0.0
H778 H 0.79137 0.2675 0.42095 0.0
H779 H 0.74985 0.27095 0.46442 0.0
H780 H 0.59582 0.04538 0.42962 0.0
H781 H 0.61469 0.13217 0.41336 0.0
H782 H 0.54971 0.0216 0.41323 0.0
H783 H 0.56861 0.10701 0.3971 0.0
H784 H 0.67707 0.08343 0.42023 0.0
H785 H 0.76029 0.15368 0.43987 0.0
H786 H 0.69771 0.04911 0.42082 0.0
H787 H 0.77949 0.11811 0.44012 0.0
H788 H 0.70343 0.16124 0.36374 0.0
H789 H 0.62839 0.07062 0.36925 0.0
H790 H 0.61648 0.02495 0.47285 0.0
H791 H 0.71166 0.07645 0.48295 0.0
Li792 Li 0.8841 0.54297 0.22336 0.0
Li793 Li 0.86729 0.52863 0.25014 0.0
Li794 Li 0.85784 0.49077 0.22979 0.0
Li795 Li 0.83043 0.51793 0.22988 0.0
C796 C 0.92715 0.5368 0.23579 0.0
N797 N 0.9884 0.56857 0.22997 0.0
C798 C 0.9468 0.55813 0.24661 0.0
C799 C 0.93865 0.53146 0.22207 0.0
C800 C 0.97771 0.57398 0.24344 0.0
C801 C 0.96968 0.54782 0.21931 0.0
C802 C 0.85083 0.57542 0.23423 0.0
C803 C 0.81357 0.58945 0.23981 0.0
N804 N 0.82443 0.60939 0.22774 0.0
C805 C 0.86156 0.59605 0.22187 0.0
C806 C 0.82664 0.57212 0.2433 0.0
C807 C 0.84796 0.61304 0.21879 0.0
C808 C 0.91066 0.5719 0.19498 0.0
N809 N 0.91412 0.57396 0.21081 0.0
C810 C 0.95468 0.62483 0.20887 0.0
C811 C 0.93587 0.59951 0.21785 0.0
C812 C 0.95036 0.62378 0.19262 0.0
C813 C 0.92874 0.59676 0.18557 0.0
H814 H 0.89268 0.55158 0.18975 0.0
H815 H 0.93739 0.60081 0.2305 0.0
C816 C 0.8902 0.52793 0.28036 0.0
N817 N 0.87521 0.53834 0.27176 0.0
C818 C 0.89294 0.53243 0.29658 0.0
C819 C 0.86494 0.55837 0.29469 0.0
C820 C 0.86327 0.55388 0.27852 0.0
C821 C 0.87948 0.54715 0.3039 0.0
H822 H 0.89924 0.5154 0.27466 0.0
H823 H 0.85157 0.56194 0.27144 0.0
C824 C 0.84006 0.48833 0.20085 0.0
N825 N 0.81975 0.44156 0.17949 0.0
C826 C 0.80915 0.46867 0.19879 0.0
C827 C 0.86062 0.48432 0.19196 0.0
C828 C 0.79934 0.44514 0.18795 0.0
C829 C 0.84991 0.4605 0.18125 0.0
C830 C 0.82224 0.47714 0.26022 0.0
C831 C 0.83304 0.45841 0.26496 0.0
C832 C 0.80458 0.48294 0.27052 0.0
C833 C 0.82541 0.44524 0.27981 0.0
C834 C 0.79746 0.46934 0.28527 0.0
N835 N 0.80783 0.45083 0.28955 0.0
C836 C 0.87144 0.44414 0.22124 0.0
C837 C 0.8207 0.42995 0.22666 0.0
C838 C 0.86273 0.41417 0.21781 0.0
N839 N 0.85034 0.4513 0.22553 0.0
C840 C 0.8111 0.39995 0.22347 0.0
C841 C 0.8322 0.39183 0.21903 0.0
H842 H 0.89485 0.46161 0.22035 0.0
H843 H 0.80443 0.43637 0.22995 0.0
C844 C 0.78836 0.52819 0.21314 0.0
N845 N 0.79216 0.51297 0.22509 0.0
C846 C 0.75959 0.52292 0.20959 0.0
C847 C 0.73943 0.48616 0.23048 0.0
C848 C 0.76843 0.49216 0.23364 0.0
C849 C 0.73487 0.50158 0.21834 0.0
H850 H 0.80759 0.54411 0.20629 0.0
H851 H 0.77191 0.47966 0.24267 0.0
O852 O 0.89682 0.52126 0.23862 0.0
O853 O 0.8638 0.55846 0.23741 0.0
O854 O 0.85015 0.51099 0.21173 0.0
O855 O 0.82919 0.49003 0.24565 0.0
H856 H 0.93827 0.56263 0.25726 0.0
H857 H 0.92374 0.51514 0.21355 0.0
H858 H 0.99317 0.59066 0.25167 0.0
H859 H 0.97887 0.54407 0.20869 0.0
H860 H 0.79465 0.58687 0.24663 0.0
H861 H 0.88008 0.59892 0.21465 0.0
H862 H 0.81741 0.55572 0.25264 0.0
H863 H 0.85607 0.62906 0.20925 0.0
H864 H 0.97103 0.64555 0.21459 0.0
H865 H 0.92481 0.59548 0.17305 0.0
H866 H 0.9043 0.52352 0.30343 0.0
H867 H 0.85437 0.56984 0.30001 0.0
H868 H 0.79288 0.47126 0.20563 0.0
H869 H 0.88461 0.49924 0.19343 0.0
H870 H 0.7755 0.42965 0.18631 0.0
H871 H 0.86557 0.457 0.17437 0.0
H872 H 0.84732 0.45421 0.25733 0.0
H873 H 0.79666 0.49799 0.26722 0.0
H874 H 0.83351 0.43061 0.28361 0.0
H875 H 0.7838 0.4736 0.29335 0.0
H876 H 0.87945 0.40845 0.21432 0.0
H877 H 0.78738 0.38317 0.22442 0.0
H878 H 0.75653 0.53481 0.19999 0.0
H879 H 0.72062 0.46923 0.23725 0.0
Li880 Li 0.45662 0.3513 0.21765 0.0
Li881 Li 0.46947 0.3491 0.24415 0.0
Li882 Li 0.5083 0.37754 0.22489 0.0
Li883 Li 0.48108 0.32301 0.22408 0.0
C884 C 0.48116 0.41166 0.22589 0.0
N885 N 0.49064 0.46435 0.21224 0.0
C886 C 0.48115 0.43414 0.2351 0.0
C887 C 0.48597 0.41597 0.20972 0.0
C888 C 0.48598 0.46062 0.22799 0.0
C889 C 0.49073 0.44276 0.20305 0.0
C890 C 0.41108 0.3043 0.23372 0.0
C891 C 0.35891 0.26524 0.23155 0.0
N892 N 0.3506 0.28376 0.23845 0.0
C893 C 0.40202 0.32299 0.24076 0.0
C894 C 0.38938 0.27522 0.22904 0.0
C895 C 0.37134 0.31217 0.24307 0.0
C896 C 0.41904 0.33222 0.19184 0.0
N897 N 0.42632 0.35 0.20477 0.0
C898 C 0.38557 0.35862 0.20031 0.0
C899 C 0.41053 0.36354 0.20905 0.0
C900 C 0.37714 0.33962 0.18719 0.0
C901 C 0.39436 0.32676 0.18276 0.0
H902 H 0.43178 0.32142 0.18894 0.0
H903 H 0.41659 0.37716 0.21957 0.0
C904 C 0.47631 0.37212 0.27456 0.0
N905 N 0.45966 0.34704 0.26571 0.0
C906 C 0.47369 0.37054 0.29087 0.0
C907 C 0.43611 0.31761 0.28854 0.0
C908 C 0.43945 0.3202 0.2723 0.0
C909 C 0.45385 0.34286 0.29794 0.0
H910 H 0.49259 0.39296 0.26896 0.0
H911 H 0.42705 0.30043 0.26503 0.0
C912 C 0.51095 0.35019 0.19663 0.0
N913 N 0.55256 0.34738 0.17723 0.0
C914 C 0.53755 0.35353 0.20285 0.0
C915 C 0.50558 0.34554 0.18053 0.0
C916 C 0.55825 0.35195 0.19286 0.0
C917 C 0.5269 0.34422 0.17091 0.0
C918 C 0.51108 0.33353 0.25276 0.0
C919 C 0.5376 0.34618 0.26156 0.0
C920 C 0.48763 0.30444 0.25627 0.0
C921 C 0.54018 0.32957 0.27373 0.0
C922 C 0.49108 0.28855 0.26852 0.0
N923 N 0.51706 0.30134 0.27693 0.0
C924 C 0.56628 0.42019 0.23407 0.0
C925 C 0.55675 0.42436 0.20726 0.0
C926 C 0.59697 0.44024 0.23193 0.0
N927 N 0.54716 0.41179 0.22169 0.0
C928 C 0.5873 0.44479 0.20462 0.0
C929 C 0.6078 0.45175 0.21693 0.0
H930 H 0.5579 0.40996 0.24539 0.0
H931 H 0.54109 0.41707 0.19758 0.0
C932 C 0.46147 0.26304 0.21349 0.0
N933 N 0.48483 0.2887 0.21962 0.0
C934 C 0.4643 0.23767 0.21106 0.0
C935 C 0.51518 0.26597 0.22105 0.0
C936 C 0.51143 0.29063 0.22324 0.0
C937 C 0.4914 0.23914 0.21503 0.0
H938 H 0.44062 0.26219 0.21066 0.0
H939 H 0.5297 0.31119 0.22808 0.0
O940 O 0.47647 0.38569 0.23279 0.0
O941 O 0.44094 0.31473 0.23087 0.0
O942 O 0.48996 0.35107 0.20617 0.0
O943 O 0.50802 0.34984 0.241 0.0
H944 H 0.47744 0.43113 0.24764 0.0
H945 H 0.48597 0.39885 0.20236 0.0
H946 H 0.48604 0.47821 0.23499 0.0
H947 H 0.49448 0.44637 0.19056 0.0
H948 H 0.34187 0.24278 0.22796 0.0
H949 H 0.41846 0.34573 0.24425 0.0
H950 H 0.396 0.26055 0.22346 0.0
H951 H 0.36401 0.32642 0.24847 0.0
H952 H 0.37242 0.36858 0.204 0.0
H953 H 0.3881 0.31182 0.17273 0.0
H954 H 0.48784 0.39029 0.29791 0.0
H955 H 0.42087 0.29592 0.29376 0.0
H956 H 0.54221 0.35732 0.21526 0.0
H957 H 0.48511 0.34293 0.17553 0.0
H958 H 0.57885 0.35434 0.19754 0.0
H959 H 0.52302 0.34061 0.15843 0.0
H960 H 0.55602 0.36861 0.25904 0.0
H961 H 0.46689 0.29421 0.24965 0.0
H962 H 0.56056 0.33913 0.28065 0.0
H963 H 0.47308 0.26607 0.27135 0.0
H964 H 0.61232 0.44536 0.24164 0.0
H965 H 0.59513 0.45338 0.19292 0.0
H966 H 0.44558 0.21715 0.20636 0.0
H967 H 0.53636 0.26768 0.22419 0.0
Li968 Li 0.61877 0.14281 0.2239 0.0
Li969 Li 0.67387 0.17014 0.22403 0.0
Li970 Li 0.64407 0.11666 0.21699 0.0
Li971 Li 0.64634 0.13245 0.24397 0.0
C972 C 0.6346 0.16163 0.19519 0.0
N973 N 0.60805 0.18271 0.17474 0.0
C974 C 0.64725 0.1926 0.19289 0.0
C975 C 0.60865 0.14138 0.18696 0.0
C976 C 0.63346 0.2028 0.18252 0.0
C977 C 0.59549 0.15248 0.17673 0.0
C978 C 0.64256 0.17834 0.25469 0.0
C979 C 0.66236 0.20191 0.27973 0.0
N980 N 0.63399 0.19364 0.28455 0.0
C981 C 0.61357 0.16983 0.25994 0.0
C982 C 0.66715 0.19431 0.26469 0.0
C983 C 0.60972 0.17783 0.27507 0.0
C984 C 0.55755 0.12818 0.2176 0.0
N985 N 0.58664 0.14999 0.2203 0.0
C986 C 0.57408 0.18849 0.21852 0.0
C987 C 0.59517 0.17963 0.22076 0.0
C988 C 0.54394 0.1666 0.21584 0.0
C989 C 0.53555 0.1361 0.21527 0.0
H990 H 0.55143 0.10477 0.21736 0.0
H991 H 0.61846 0.1964 0.22297 0.0
C992 C 0.72954 0.21287 0.20898 0.0
N993 N 0.70841 0.20861 0.21994 0.0
C994 C 0.75468 0.24159 0.20665 0.0
C995 C 0.73498 0.26093 0.22638 0.0
C996 C 0.71051 0.23199 0.2284 0.0
C997 C 0.75738 0.26589 0.21545 0.0
H998 H 0.72695 0.19401 0.20213 0.0
H999 H 0.693 0.22822 0.23665 0.0
C1000 C 0.59457 0.07319 0.22956 0.0
N1001 N 0.56539 0.01192 0.22392 0.0
C1002 C 0.59704 0.05406 0.24024 0.0
C1003 C 0.57707 0.06117 0.21608 0.0
C1004 C 0.58214 0.02314 0.23716 0.0
C1005 C 0.56257 0.03013 0.21341 0.0
C1006 C 0.71006 0.14885 0.2286 0.0
C1007 C 0.72059 0.13921 0.21603 0.0
C1008 C 0.73071 0.17169 0.2385 0.0
C1009 C 0.7516 0.15252 0.21359 0.0
C1010 C 0.76155 0.18451 0.23563 0.0
N1011 N 0.77126 0.17471 0.22335 0.0
C1012 C 0.64372 0.08875 0.18843 0.0
C1013 C 0.6494 0.06597 0.21131 0.0
C1014 C 0.64959 0.07024 0.17891 0.0
N1015 N 0.64441 0.0867 0.20429 0.0
C1016 C 0.65515 0.04688 0.20223 0.0
C1017 C 0.65616 0.04968 0.18589 0.0
H1018 H 0.64035 0.10589 0.18322 0.0
H1019 H 0.6507 0.06554 0.22394 0.0
C1020 C 0.6212 0.11073 0.27398 0.0
N1021 N 0.64703 0.123 0.26539 0.0
C1022 C 0.62197 0.10629 0.29008 0.0
C1023 C 0.67577 0.12666 0.28805 0.0
C1024 C 0.67388 0.13035 0.27199 0.0
C1025 C 0.64967 0.11495 0.29727 0.0
H1026 H 0.60017 0.10512 0.26838 0.0
H1027 H 0.69396 0.13973 0.26488 0.0
O1028 O 0.64719 0.15121 0.20568 0.0
O1029 O 0.64685 0.17089 0.23987 0.0
O1030 O 0.60931 0.10355 0.23226 0.0
O1031 O 0.67974 0.13614 0.23116 0.0
H1032 H 0.66728 0.2086 0.19918 0.0
H1033 H 0.59852 0.11735 0.18864 0.0
H1034 H 0.64288 0.2267 0.18071 0.0
H1035 H 0.57523 0.13708 0.1704 0.0
H1036 H 0.68117 0.21428 0.2876 0.0
H1037 H 0.59421 0.15703 0.25247 0.0
H1038 H 0.68968 0.20063 0.26091 0.0
H1039 H 0.58742 0.17143 0.27929 0.0
H1040 H 0.58112 0.21218 0.21903 0.0
H1041 H 0.51235 0.11878 0.21323 0.0
H1042 H 0.77163 0.24488 0.19807 0.0
H1043 H 0.73641 0.27937 0.23324 0.0
H1044 H 0.61057 0.06302 0.2507 0.0
H1045 H 0.575 0.07568 0.20768 0.0
H1046 H 0.58397 0.00807 0.24528 0.0
H1047 H 0.54913 0.02053 0.20298 0.0
H1048 H 0.70506 0.12181 0.20815 0.0
H1049 H 0.72304 0.17997 0.24807 0.0
H1050 H 0.76002 0.14527 0.2039 0.0
H1051 H 0.77774 0.20237 0.24312 0.0
H1052 H 0.65072 0.07311 0.1663 0.0
H1053 H 0.66071 0.03154 0.20788 0.0
H1054 H 0.60146 0.0972 0.29695 0.0
H1055 H 0.69743 0.1335 0.2933 0.0
Li1056 Li 0.52987 0.8724 0.75272 0.0
Li1057 Li 0.54266 0.88461 0.77978 0.0
Li1058 Li 0.51587 0.83121 0.77148 0.0
Li1059 Li 0.49032 0.86083 0.7725 0.0
C1060 C 0.57784 0.85984 0.75809 0.0
N1061 N 0.62089 0.85239 0.74265 0.0
C1062 C 0.60841 0.88134 0.75972 0.0
C1063 C 0.56921 0.83442 0.74874 0.0
C1064 C 0.62982 0.87721 0.75178 0.0
C1065 C 0.5913 0.83109 0.74099 0.0
C1066 C 0.54445 0.93006 0.76123 0.0
C1067 C 0.55793 0.9812 0.75549 0.0
N1068 N 0.58657 0.98798 0.75222 0.0
C1069 C 0.57401 0.93753 0.7578 0.0
C1070 C 0.53631 0.95203 0.76006 0.0
C1071 C 0.59497 0.96693 0.75327 0.0
C1072 C 0.51693 0.87975 0.72206 0.0
N1073 N 0.5398 0.88283 0.73128 0.0
C1074 C 0.5715 0.89264 0.70891 0.0
C1075 C 0.56712 0.89029 0.72511 0.0
C1076 C 0.54766 0.88778 0.69913 0.0
C1077 C 0.5204 0.88219 0.70581 0.0
H1078 H 0.49552 0.87402 0.72731 0.0
H1079 H 0.58525 0.89349 0.73264 0.0
C1080 C 0.59144 0.90226 0.79909 0.0
N1081 N 0.57265 0.91148 0.79375 0.0
C1082 C 0.61491 0.92055 0.80918 0.0
C1083 C 0.59898 0.95739 0.80832 0.0
C1084 C 0.5757 0.9383 0.7982 0.0
C1085 C 0.61886 0.94844 0.81378 0.0
H1086 H 0.5882 0.88069 0.79541 0.0
H1087 H 0.56017 0.94486 0.79389 0.0
C1088 C 0.47387 0.81436 0.74457 0.0
N1089 N 0.43912 0.77182 0.72224 0.0
C1090 C 0.44243 0.79951 0.74542 0.0
C1091 C 0.48761 0.8077 0.73228 0.0
C1092 C 0.42526 0.77803 0.73405 0.0
C1093 C 0.46966 0.78611 0.72112 0.0
C1094 C 0.50252 0.85878 0.80427 0.0
C1095 C 0.50029 0.84296 0.81796 0.0
C1096 C 0.49987 0.88445 0.80509 0.0
C1097 C 0.4954 0.85309 0.83228 0.0
C1098 C 0.49501 0.89386 0.81963 0.0
N1099 N 0.49289 0.87812 0.83281 0.0
C1100 C 0.53118 0.78612 0.77811 0.0
C1101 C 0.48011 0.76882 0.7718 0.0
C1102 C 0.52515 0.75646 0.77909 0.0
N1103 N 0.50881 0.79163 0.77423 0.0
C1104 C 0.47317 0.73898 0.77252 0.0
C1105 C 0.49591 0.73266 0.776 0.0
H1106 H 0.55372 0.80473 0.78022 0.0
H1107 H 0.46263 0.77383 0.76918 0.0
C1108 C 0.44037 0.86939 0.76784 0.0
N1109 N 0.45118 0.85412 0.77586 0.0
C1110 C 0.40952 0.85927 0.76814 0.0
C1111 C 0.40212 0.81888 0.78542 0.0
C1112 C 0.43298 0.82983 0.78487 0.0
C1113 C 0.39008 0.83309 0.77657 0.0
H1114 H 0.4554 0.88829 0.76054 0.0
H1115 H 0.4422 0.8178 0.79081 0.0
O1116 O 0.55664 0.86368 0.76576 0.0
O1117 O 0.52347 0.90147 0.76575 0.0
O1118 O 0.49094 0.83566 0.75558 0.0
O1119 O 0.50774 0.84935 0.79022 0.0
H1120 H 0.61552 0.90113 0.76695 0.0
H1121 H 0.54577 0.8173 0.74757 0.0
H1122 H 0.65353 0.89374 0.75287 0.0
H1123 H 0.58491 0.81153 0.73371 0.0
H1124 H 0.55194 0.99845 0.75455 0.0
H1125 H 0.58077 0.92089 0.75868 0.0
H1126 H 0.51351 0.94659 0.76269 0.0
H1127 H 0.61792 0.97301 0.7506 0.0
H1128 H 0.59285 0.89718 0.70404 0.0
H1129 H 0.50165 0.87841 0.6985 0.0
H1130 H 0.62989 0.91309 0.81334 0.0
H1131 H 0.6015 0.97877 0.81183 0.0
H1132 H 0.43136 0.80442 0.75478 0.0
H1133 H 0.51183 0.81937 0.73118 0.0
H1134 H 0.40092 0.76633 0.73461 0.0
H1135 H 0.48002 0.7808 0.71154 0.0
H1136 H 0.5024 0.82311 0.81751 0.0
H1137 H 0.50166 0.89707 0.79463 0.0
H1138 H 0.49364 0.84108 0.84297 0.0
H1139 H 0.49296 0.91371 0.82043 0.0
H1140 H 0.54306 0.7521 0.78194 0.0
H1141 H 0.45032 0.72098 0.77029 0.0
H1142 H 0.40067 0.87051 0.76113 0.0
H1143 H 0.38757 0.79854 0.79194 0.0
Li1144 Li 0.16571 0.67034 0.77106 0.0
Li1145 Li 0.13727 0.61646 0.77174 0.0
Li1146 Li 0.12634 0.64241 0.75184 0.0
Li1147 Li 0.11121 0.6422 0.77988 0.0
C1148 C 0.19339 0.65595 0.75025 0.0
N1149 N 0.25323 0.68441 0.74124 0.0
C1150 C 0.21323 0.6488 0.75755 0.0
C1151 C 0.20409 0.67774 0.73845 0.0
C1152 C 0.24338 0.66345 0.75283 0.0
C1153 C 0.23436 0.69175 0.73401 0.0
C1154 C 0.14913 0.62935 0.80258 0.0
C1155 C 0.12829 0.60154 0.82654 0.0
N1156 N 0.15322 0.59916 0.82831 0.0
C1157 C 0.17457 0.62663 0.80466 0.0
C1158 C 0.12578 0.61667 0.8136 0.0
C1159 C 0.17619 0.61126 0.81773 0.0
C1160 C 0.20965 0.73296 0.76827 0.0
N1161 N 0.20409 0.70611 0.77421 0.0
C1162 C 0.25537 0.72799 0.78225 0.0
C1163 C 0.22605 0.70351 0.78152 0.0
C1164 C 0.26197 0.75544 0.77555 0.0
C1165 C 0.23872 0.75817 0.76882 0.0
H1166 H 0.1918 0.73465 0.76273 0.0
H1167 H 0.22116 0.68211 0.78619 0.0
C1168 C 0.15459 0.57596 0.76207 0.0
N1169 N 0.14081 0.58122 0.77428 0.0
C1170 C 0.16368 0.55484 0.76342 0.0
C1171 C 0.14105 0.54212 0.78921 0.0
C1172 C 0.13231 0.56357 0.78733 0.0
C1173 C 0.15803 0.53867 0.77738 0.0
H1174 H 0.15989 0.58926 0.75152 0.0
H1175 H 0.12001 0.567 0.79658 0.0
C1176 C 0.12411 0.6933 0.75595 0.0
N1177 N 0.10657 0.7252 0.73711 0.0
C1178 C 0.09787 0.6939 0.75942 0.0
C1179 C 0.14151 0.70908 0.74293 0.0
C1180 C 0.08937 0.71013 0.74975 0.0
C1181 C 0.13223 0.72502 0.73354 0.0
C1182 C 0.08135 0.57782 0.76567 0.0
C1183 C 0.08133 0.56103 0.75276 0.0
C1184 C 0.06672 0.56316 0.7795 0.0
C1185 C 0.06679 0.52968 0.75395 0.0
C1186 C 0.05239 0.53177 0.78021 0.0
N1187 N 0.05275 0.51583 0.76754 0.0
C1188 C 0.13192 0.63718 0.71964 0.0
C1189 C 0.09184 0.6453 0.72633 0.0
C1190 C 0.12724 0.6392 0.70373 0.0
N1191 N 0.11502 0.64127 0.73055 0.0
C1192 C 0.0864 0.64758 0.71049 0.0
C1193 C 0.10476 0.64516 0.6991 0.0
H1194 H 0.14948 0.63295 0.7233 0.0
H1195 H 0.07819 0.64763 0.73525 0.0
C1196 C 0.09538 0.6664 0.80449 0.0
N1197 N 0.08343 0.64516 0.79303 0.0
C1198 C 0.07672 0.67246 0.81371 0.0
C1199 C 0.0337 0.63449 0.79922 0.0
C1200 C 0.05326 0.629 0.7903 0.0
C1201 C 0.04565 0.6567 0.81092 0.0
H1202 H 0.11953 0.6791 0.80617 0.0
H1203 H 0.04457 0.61262 0.78089 0.0
O1204 O 0.16372 0.64184 0.7547 0.0
O1205 O 0.14725 0.64469 0.78998 0.0
O1206 O 0.13273 0.67744 0.76527 0.0
O1207 O 0.09619 0.60853 0.76488 0.0
H1208 H 0.20559 0.63246 0.76692 0.0
H1209 H 0.18921 0.68382 0.73277 0.0
H1210 H 0.25898 0.65822 0.75843 0.0
H1211 H 0.24289 0.7086 0.72486 0.0
H1212 H 0.11036 0.5916 0.83514 0.0
H1213 H 0.19252 0.63554 0.79611 0.0
H1214 H 0.10582 0.61829 0.81217 0.0
H1215 H 0.19562 0.60877 0.81941 0.0
H1216 H 0.27297 0.72527 0.78749 0.0
H1217 H 0.24326 0.77916 0.76355 0.0
H1218 H 0.17642 0.55231 0.75401 0.0
H1219 H 0.13605 0.52958 0.80006 0.0
H1220 H 0.08418 0.68197 0.76946 0.0
H1221 H 0.16174 0.7087 0.73998 0.0
H1222 H 0.06909 0.71073 0.75229 0.0
H1223 H 0.1454 0.73719 0.72339 0.0
H1224 H 0.09272 0.57215 0.742 0.0
H1225 H 0.06676 0.57592 0.78963 0.0
H1226 H 0.06673 0.51638 0.74409 0.0
H1227 H 0.0411 0.5201 0.79087 0.0
H1228 H 0.14148 0.63688 0.69513 0.0
H1229 H 0.06868 0.65191 0.70717 0.0
H1230 H 0.08646 0.68988 0.82261 0.0
H1231 H 0.00977 0.62221 0.79678 0.0
Li1232 Li 0.31314 0.4726 0.7642 0.0
Li1233 Li 0.36799 0.50386 0.76435 0.0
Li1234 Li 0.34211 0.4617 0.74599 0.0
Li1235 Li 0.34498 0.45324 0.77358 0.0
C1236 C 0.34299 0.50692 0.73207 0.0
N1237 N 0.35075 0.52148 0.7006 0.0
C1238 C 0.37121 0.52885 0.72641 0.0
C1239 C 0.31869 0.49247 0.72174 0.0
C1240 C 0.37467 0.5359 0.71045 0.0
C1241 C 0.32309 0.50011 0.70586 0.0
C1242 C 0.35097 0.50939 0.79271 0.0
C1243 C 0.38817 0.54273 0.81137 0.0
N1244 N 0.37441 0.55932 0.8121 0.0
C1245 C 0.33708 0.52664 0.79371 0.0
C1246 C 0.37659 0.51734 0.80169 0.0
C1247 C 0.3493 0.55183 0.80356 0.0
C1248 C 0.26003 0.46159 0.7805 0.0
N1249 N 0.27773 0.4746 0.76767 0.0
C1250 C 0.2495 0.49793 0.76081 0.0
C1251 C 0.27272 0.4922 0.75779 0.0
C1252 C 0.23141 0.48544 0.77412 0.0
C1253 C 0.23628 0.4665 0.78389 0.0
H1254 H 0.26503 0.44832 0.78837 0.0
H1255 H 0.28753 0.50281 0.74791 0.0
C1256 C 0.42815 0.55373 0.7699 0.0
N1257 N 0.39877 0.54461 0.76701 0.0
C1258 C 0.44906 0.58434 0.77223 0.0
C1259 C 0.40896 0.59517 0.7685 0.0
C1260 C 0.38902 0.5646 0.76611 0.0
C1261 C 0.43925 0.6052 0.77164 0.0
H1262 H 0.43528 0.53732 0.77045 0.0
H1263 H 0.36555 0.55663 0.76368 0.0
C1264 C 0.27933 0.41426 0.76231 0.0
N1265 N 0.21842 0.37775 0.76823 0.0
C1266 C 0.2695 0.3972 0.77605 0.0
C1267 C 0.25815 0.41268 0.75155 0.0
C1268 C 0.23862 0.37886 0.77882 0.0
C1269 C 0.22747 0.39415 0.75478 0.0
C1270 C 0.39632 0.46174 0.76219 0.0
C1271 C 0.39645 0.43982 0.75254 0.0
C1272 C 0.41341 0.47061 0.77593 0.0
C1273 C 0.41349 0.42688 0.7569 0.0
C1274 C 0.4301 0.45709 0.7799 0.0
N1275 N 0.42979 0.43568 0.77038 0.0
C1276 C 0.36791 0.4615 0.71676 0.0
C1277 C 0.31763 0.42221 0.72027 0.0
C1278 C 0.36864 0.45096 0.70176 0.0
N1279 N 0.34271 0.44695 0.72568 0.0
C1280 C 0.31736 0.41089 0.70536 0.0
C1281 C 0.34363 0.42415 0.6959 0.0
H1282 H 0.38736 0.48166 0.72122 0.0
H1283 H 0.29758 0.41146 0.72745 0.0
C1284 C 0.34483 0.42934 0.8034 0.0
N1285 N 0.34605 0.42569 0.78768 0.0
C1286 C 0.33953 0.40598 0.81357 0.0
C1287 C 0.33867 0.37647 0.79119 0.0
C1288 C 0.34357 0.40019 0.78146 0.0
C1289 C 0.33554 0.37895 0.80735 0.0
H1290 H 0.34616 0.44959 0.80795 0.0
H1291 H 0.34361 0.3976 0.76887 0.0
O1292 O 0.33929 0.49918 0.74758 0.0
O1293 O 0.33986 0.48514 0.7828 0.0
O1294 O 0.30948 0.4326 0.75944 0.0
O1295 O 0.37952 0.47442 0.75821 0.0
H1296 H 0.39032 0.54008 0.73421 0.0
H1297 H 0.29677 0.47526 0.72592 0.0
H1298 H 0.3964 0.55274 0.7059 0.0
H1299 H 0.30455 0.48897 0.69772 0.0
H1300 H 0.40814 0.5493 0.81829 0.0
H1301 H 0.31732 0.52094 0.78681 0.0
H1302 H 0.3876 0.50423 0.80106 0.0
H1303 H 0.33891 0.5655 0.80437 0.0
H1304 H 0.24632 0.51281 0.75315 0.0
H1305 H 0.22276 0.45682 0.79433 0.0
H1306 H 0.47244 0.59163 0.77456 0.0
H1307 H 0.40089 0.61089 0.76789 0.0
H1308 H 0.28546 0.39823 0.78457 0.0
H1309 H 0.26532 0.426 0.74095 0.0
H1310 H 0.23072 0.36558 0.78942 0.0
H1311 H 0.21085 0.39289 0.74661 0.0
H1312 H 0.3833 0.43263 0.74188 0.0
H1313 H 0.41351 0.48749 0.78354 0.0
H1314 H 0.41367 0.40977 0.74958 0.0
H1315 H 0.44326 0.46358 0.79056 0.0
H1316 H 0.38856 0.46484 0.69491 0.0
H1317 H 0.29606 0.39253 0.70136 0.0
H1318 H 0.3369 0.40829 0.82601 0.0
H1319 H 0.3353 0.35568 0.7861 0.0
Li1320 Li 0.5538 0.86752 0.55177 0.0
Li1321 Li 0.54101 0.85722 0.57868 0.0
Li1322 Li 0.53021 0.81677 0.56051 0.0
Li1323 Li 0.50125 0.84213 0.55968 0.0
C1324 C 0.59186 0.84618 0.55975 0.0
N1325 N 0.635 0.8375 0.54531 0.0
C1326 C 0.61642 0.84942 0.5683 0.0
C1327 C 0.58924 0.83854 0.54385 0.0
C1328 C 0.63799 0.84494 0.56079 0.0
C1329 C 0.61128 0.83424 0.53677 0.0
C1330 C 0.55272 0.91354 0.56753 0.0
C1331 C 0.56489 0.96524 0.56579 0.0
N1332 N 0.59268 0.97438 0.57176 0.0
C1333 C 0.58143 0.92345 0.57363 0.0
C1334 C 0.54437 0.93458 0.56356 0.0
C1335 C 0.60128 0.9543 0.57569 0.0
C1336 C 0.5694 0.90263 0.52507 0.0
N1337 N 0.58143 0.8969 0.53779 0.0
C1338 C 0.63024 0.93857 0.53191 0.0
C1339 C 0.61129 0.91385 0.54123 0.0
C1340 C 0.61804 0.94558 0.51908 0.0
C1341 C 0.58749 0.92704 0.51543 0.0
H1342 H 0.54547 0.889 0.52285 0.0
H1343 H 0.62009 0.90905 0.55161 0.0
C1344 C 0.56307 0.8572 0.60872 0.0
N1345 N 0.55048 0.86974 0.59983 0.0
C1346 C 0.56596 0.86215 0.62489 0.0
C1347 C 0.54365 0.89346 0.62229 0.0
C1348 C 0.54142 0.88812 0.60619 0.0
C1349 C 0.55544 0.87985 0.6318 0.0
H1350 H 0.56966 0.84237 0.60333 0.0
H1351 H 0.5311 0.89745 0.59887 0.0
C1352 C 0.49675 0.80983 0.53295 0.0
N1353 N 0.45099 0.76499 0.51525 0.0
C1354 C 0.47451 0.78343 0.54012 0.0
C1355 C 0.49568 0.81341 0.51677 0.0
C1356 C 0.45159 0.76102 0.53097 0.0
C1357 C 0.47237 0.79049 0.50803 0.0
C1358 C 0.48502 0.81402 0.58935 0.0
C1359 C 0.4744 0.7888 0.59904 0.0
C1360 C 0.47711 0.83575 0.59262 0.0
C1361 C 0.45612 0.78579 0.61187 0.0
C1362 C 0.45876 0.8319 0.60555 0.0
N1363 N 0.44876 0.80722 0.61483 0.0
C1364 C 0.52034 0.7619 0.57171 0.0
C1365 C 0.52527 0.7661 0.54401 0.0
C1366 C 0.50946 0.73103 0.57084 0.0
N1367 N 0.52659 0.77836 0.55837 0.0
C1368 C 0.51409 0.7352 0.54258 0.0
C1369 C 0.50492 0.71731 0.55609 0.0
H1370 H 0.52185 0.77239 0.58293 0.0
H1371 H 0.5305 0.77976 0.53359 0.0
C1372 C 0.45905 0.85914 0.5499 0.0
N1373 N 0.46223 0.83654 0.55601 0.0
C1374 C 0.4303 0.85522 0.54794 0.0
C1375 C 0.40891 0.8048 0.55833 0.0
C1376 C 0.43788 0.80971 0.56016 0.0
C1377 C 0.40496 0.82773 0.55223 0.0
H1378 H 0.47883 0.88025 0.54673 0.0
H1379 H 0.44093 0.79219 0.56513 0.0
O1380 O 0.57063 0.85051 0.56705 0.0
O1381 O 0.53314 0.8835 0.56498 0.0
O1382 O 0.51941 0.83226 0.54161 0.0
O1383 O 0.50347 0.81757 0.57692 0.0
H1384 H 0.61876 0.85534 0.58062 0.0
H1385 H 0.57052 0.83604 0.53699 0.0
H1386 H 0.65712 0.84738 0.56727 0.0
H1387 H 0.60954 0.82833 0.52448 0.0
H1388 H 0.55874 0.98177 0.56274 0.0
H1389 H 0.58845 0.90756 0.57661 0.0
H1390 H 0.52231 0.9273 0.55874 0.0
H1391 H 0.62359 0.96227 0.58035 0.0
H1392 H 0.65374 0.95279 0.53502 0.0
H1393 H 0.57755 0.93222 0.50565 0.0
H1394 H 0.575 0.85125 0.63202 0.0
H1395 H 0.53518 0.90705 0.62736 0.0
H1396 H 0.47503 0.78012 0.55259 0.0
H1397 H 0.51271 0.83372 0.51104 0.0
H1398 H 0.4343 0.74047 0.53638 0.0
H1399 H 0.47127 0.79298 0.4955 0.0
H1400 H 0.48023 0.77173 0.5967 0.0
H1401 H 0.48523 0.85552 0.58534 0.0
H1402 H 0.44781 0.76641 0.61948 0.0
H1403 H 0.45256 0.84858 0.60822 0.0
H1404 H 0.50238 0.71763 0.58144 0.0
H1405 H 0.51063 0.72509 0.53105 0.0
H1406 H 0.42783 0.87335 0.54326 0.0
H1407 H 0.38971 0.78342 0.56183 0.0
Li1408 Li 0.14858 0.64634 0.55891 0.0
Li1409 Li 0.17788 0.70146 0.55885 0.0
Li1410 Li 0.13803 0.67283 0.57955 0.0
Li1411 Li 0.12414 0.67675 0.55273 0.0
C1412 C 0.1901 0.65927 0.58171 0.0
N1413 N 0.2172 0.62912 0.59374 0.0
C1414 C 0.22088 0.67057 0.57937 0.0
C1415 C 0.17328 0.63299 0.59045 0.0
C1416 C 0.23414 0.65493 0.58549 0.0
C1417 C 0.18732 0.61796 0.59635 0.0
C1418 C 0.16965 0.6872 0.52723 0.0
C1419 C 0.17988 0.72352 0.50686 0.0
N1420 N 0.19713 0.71435 0.49927 0.0
C1421 C 0.18714 0.67785 0.51913 0.0
C1422 C 0.16571 0.70998 0.52098 0.0
C1423 C 0.20099 0.69198 0.50506 0.0
C1424 C 0.12844 0.58352 0.5553 0.0
N1425 N 0.15211 0.61223 0.55422 0.0
C1426 C 0.18625 0.59455 0.54975 0.0
C1427 C 0.18039 0.61804 0.55092 0.0
C1428 C 0.16262 0.56479 0.55163 0.0
C1429 C 0.13319 0.55918 0.55386 0.0
H1430 H 0.10611 0.57956 0.55773 0.0
H1431 H 0.19865 0.64109 0.54987 0.0
C1432 C 0.22775 0.7624 0.55958 0.0
N1433 N 0.21743 0.73362 0.55469 0.0
C1434 C 0.25818 0.78427 0.55767 0.0
C1435 C 0.26635 0.74647 0.54556 0.0
C1436 C 0.23592 0.7255 0.54762 0.0
C1437 C 0.2779 0.77611 0.55085 0.0
H1438 H 0.21267 0.76811 0.56546 0.0
H1439 H 0.22728 0.70228 0.54427 0.0
C1440 C 0.08316 0.62137 0.57404 0.0
N1441 N 0.03144 0.58481 0.59107 0.0
C1442 C 0.0578 0.62439 0.57251 0.0
C1443 C 0.08195 0.59934 0.58403 0.0
C1444 C 0.03192 0.60578 0.58124 0.0
C1445 C 0.0557 0.58123 0.59262 0.0
C1446 C 0.14051 0.73242 0.56714 0.0
C1447 C 0.12189 0.73434 0.5785 0.0
C1448 C 0.15248 0.75378 0.55515 0.0
C1449 C 0.11501 0.75724 0.57745 0.0
C1450 C 0.14505 0.77633 0.5545 0.0
N1451 N 0.1266 0.77756 0.56556 0.0
C1452 C 0.14925 0.67514 0.61177 0.0
C1453 C 0.10017 0.66548 0.60584 0.0
C1454 C 0.14257 0.67174 0.62774 0.0
N1455 N 0.12792 0.67127 0.60117 0.0
C1456 C 0.09248 0.66182 0.62173 0.0
C1457 C 0.11377 0.66451 0.63277 0.0
H1458 H 0.17136 0.68048 0.60782 0.0
H1459 H 0.0839 0.66339 0.59724 0.0
C1460 C 0.08785 0.66023 0.52655 0.0
N1461 N 0.09406 0.6767 0.53995 0.0
C1462 C 0.06314 0.65453 0.51742 0.0
C1463 C 0.05212 0.68363 0.53577 0.0
C1464 C 0.07714 0.68884 0.54455 0.0
C1465 C 0.04467 0.6657 0.52227 0.0
H1466 H 0.10133 0.65039 0.52335 0.0
H1467 H 0.08182 0.70095 0.55548 0.0
O1468 O 0.17647 0.67376 0.5754 0.0
O1469 O 0.15611 0.67375 0.54109 0.0
O1470 O 0.10874 0.6395 0.56559 0.0
O1471 O 0.14756 0.71021 0.56805 0.0
H1472 H 0.23442 0.69111 0.57287 0.0
H1473 H 0.14964 0.62429 0.59264 0.0
H1474 H 0.25789 0.66331 0.58366 0.0
H1475 H 0.17446 0.59743 0.60301 0.0
H1476 H 0.17709 0.74125 0.50192 0.0
H1477 H 0.19015 0.66001 0.52372 0.0
H1478 H 0.15166 0.71696 0.52688 0.0
H1479 H 0.21479 0.68513 0.49873 0.0
H1480 H 0.20916 0.59958 0.54786 0.0
H1481 H 0.11446 0.53637 0.55516 0.0
H1482 H 0.26646 0.80696 0.56196 0.0
H1483 H 0.28102 0.7393 0.54048 0.0
H1484 H 0.05811 0.64105 0.56476 0.0
H1485 H 0.10098 0.59611 0.58513 0.0
H1486 H 0.01224 0.60804 0.58023 0.0
H1487 H 0.05458 0.56426 0.60047 0.0
H1488 H 0.11272 0.71822 0.58796 0.0
H1489 H 0.16755 0.75314 0.54651 0.0
H1490 H 0.10046 0.75886 0.58609 0.0
H1491 H 0.15407 0.79294 0.54524 0.0
H1492 H 0.1595 0.67424 0.63608 0.0
H1493 H 0.07016 0.65657 0.62536 0.0
H1494 H 0.05764 0.64037 0.5071 0.0
H1495 H 0.03791 0.69215 0.53985 0.0
Li1496 Li 0.29173 0.46778 0.56429 0.0
Li1497 Li 0.34587 0.49162 0.56454 0.0
Li1498 Li 0.31487 0.44086 0.55313 0.0
Li1499 Li 0.31658 0.44885 0.5815 0.0
C1500 C 0.30512 0.48569 0.53453 0.0
N1501 N 0.2752 0.49835 0.51173 0.0
C1502 C 0.30984 0.5148 0.53311 0.0
C1503 C 0.28547 0.46312 0.52422 0.0
C1504 C 0.29441 0.52072 0.52156 0.0
C1505 C 0.27049 0.46995 0.5128 0.0
C1506 C 0.33281 0.51679 0.58867 0.0
C1507 C 0.35802 0.5507 0.6103 0.0
N1508 N 0.36137 0.57413 0.60146 0.0
C1509 C 0.33647 0.54126 0.57984 0.0
C1510 C 0.34361 0.52156 0.60406 0.0
C1511 C 0.35095 0.57004 0.5865 0.0
C1512 C 0.25982 0.49735 0.57113 0.0
N1513 N 0.25889 0.47495 0.56225 0.0
C1514 C 0.21465 0.46765 0.54913 0.0
C1515 C 0.2363 0.45937 0.55175 0.0
C1516 C 0.21673 0.49233 0.55732 0.0
C1517 C 0.23914 0.5067 0.56871 0.0
H1518 H 0.27688 0.50839 0.57995 0.0
H1519 H 0.23553 0.44104 0.54514 0.0
C1520 C 0.38887 0.54048 0.54683 0.0
N1521 N 0.38262 0.52922 0.56165 0.0
C1522 C 0.41203 0.57004 0.54416 0.0
C1523 C 0.42304 0.57523 0.57191 0.0
C1524 C 0.40009 0.54546 0.57399 0.0
C1525 C 0.4284 0.58801 0.55695 0.0
H1526 H 0.3749 0.52703 0.53718 0.0
H1527 H 0.39504 0.53616 0.58565 0.0
C1528 C 0.26856 0.39474 0.5706 0.0
N1529 N 0.24541 0.33408 0.57613 0.0
C1530 C 0.28751 0.38269 0.57035 0.0
C1531 C 0.23785 0.37595 0.57365 0.0
C1532 C 0.27538 0.35197 0.57318 0.0
C1533 C 0.22657 0.34534 0.57643 0.0
C1534 C 0.37645 0.46297 0.57504 0.0
C1535 C 0.39611 0.4545 0.56866 0.0
C1536 C 0.3834 0.47819 0.58939 0.0
C1537 C 0.42255 0.46173 0.57667 0.0
C1538 C 0.41002 0.48497 0.59706 0.0
N1539 N 0.42891 0.47669 0.59059 0.0
C1540 C 0.34359 0.42513 0.53163 0.0
C1541 C 0.29084 0.39078 0.53125 0.0
C1542 C 0.34824 0.4083 0.52038 0.0
N1543 N 0.3154 0.41593 0.53698 0.0
C1544 C 0.29442 0.3734 0.51973 0.0
C1545 C 0.32353 0.38202 0.51442 0.0
H1546 H 0.36251 0.44554 0.53622 0.0
H1547 H 0.26862 0.38417 0.53567 0.0
C1548 C 0.30462 0.44 0.61375 0.0
N1549 N 0.31581 0.43203 0.60137 0.0
C1550 C 0.30854 0.43284 0.62898 0.0
C1551 C 0.33326 0.40733 0.61831 0.0
C1552 C 0.32911 0.41521 0.6033 0.0
C1553 C 0.32377 0.4171 0.6313 0.0
H1554 H 0.29397 0.45319 0.61181 0.0
H1555 H 0.33789 0.40924 0.59326 0.0
O1556 O 0.31966 0.47931 0.54593 0.0
O1557 O 0.31877 0.48838 0.58229 0.0
O1558 O 0.27981 0.42475 0.56788 0.0
O1559 O 0.35019 0.4556 0.56745 0.0
H1560 H 0.32529 0.53267 0.54081 0.0
H1561 H 0.28149 0.44047 0.52515 0.0
H1562 H 0.29771 0.5431 0.52039 0.0
H1563 H 0.25504 0.45264 0.50482 0.0
H1564 H 0.36658 0.55469 0.62216 0.0
H1565 H 0.32835 0.53807 0.56793 0.0
H1566 H 0.34118 0.50308 0.61111 0.0
H1567 H 0.35398 0.58913 0.57977 0.0
H1568 H 0.19719 0.45572 0.54046 0.0
H1569 H 0.24094 0.52539 0.57548 0.0
H1570 H 0.41578 0.57942 0.53246 0.0
H1571 H 0.4354 0.58864 0.58199 0.0
H1572 H 0.31131 0.39681 0.56795 0.0
H1573 H 0.22289 0.38495 0.57388 0.0
H1574 H 0.28979 0.34235 0.573 0.0
H1575 H 0.20284 0.33053 0.57881 0.0
H1576 H 0.39096 0.44231 0.55768 0.0
H1577 H 0.36829 0.48451 0.59461 0.0
H1578 H 0.43798 0.45534 0.57185 0.0
H1579 H 0.41561 0.49675 0.60818 0.0
H1580 H 0.37092 0.41569 0.51636 0.0
H1581 H 0.27492 0.35337 0.51516 0.0
H1582 H 0.30086 0.44049 0.63885 0.0
H1583 H 0.34503 0.39507 0.61982 0.0
C1584 C 0.32163 0.30568 0.18374 0.0
C1585 C 0.34902 0.331 0.17862 0.0
C1586 C 0.32563 0.33227 0.15395 0.0
C1587 C 0.29862 0.30626 0.15882 0.0
N1588 N 0.26801 0.27257 0.17936 0.0
N1589 N 0.37571 0.37277 0.16099 0.0
C1590 C 0.29566 0.29451 0.17413 0.0
C1591 C 0.35049 0.34582 0.1644 0.0
N1592 N 0.32093 0.29145 0.19738 0.0
N1593 N 0.32782 0.34308 0.13909 0.0
H1594 H 0.3943 0.38301 0.16845 0.0
H1595 H 0.3774 0.38616 0.15149 0.0
H1596 H 0.30958 0.33439 0.1314 0.0
H1597 H 0.34787 0.35969 0.13409 0.0
H1598 H 0.30281 0.2708 0.20084 0.0
H1599 H 0.33927 0.29954 0.20497 0.0
H1600 H 0.26363 0.26483 0.19087 0.0
H1601 H 0.24868 0.26383 0.17247 0.0
C1602 C 0.71229 0.03841 0.16247 0.0
C1603 C 0.69373 0.0084 0.15704 0.0
C1604 C 0.64989 0.00549 0.17016 0.0
C1605 C 0.66889 0.03484 0.17627 0.0
N1606 N 0.71875 0.07749 0.1806 0.0
N1607 N 0.64622 0.96174 0.15704 0.0
C1608 C 0.70028 0.05077 0.17313 0.0
C1609 C 0.66285 0.99141 0.16128 0.0
N1610 N 0.74113 0.05549 0.15695 0.0
N1611 N 0.61947 0.99148 0.17257 0.0
H1612 H 0.65507 0.95103 0.15036 0.0
H1613 H 0.62441 0.94718 0.161 0.0
H1614 H 0.60946 0.00094 0.17936 0.0
H1615 H 0.60394 0.97143 0.16712 0.0
H1616 H 0.75448 0.07859 0.15887 0.0
H1617 H 0.75113 0.04714 0.1494 0.0
H1618 H 0.74217 0.08831 0.18028 0.0
H1619 H 0.71083 0.08788 0.18818 0.0
C1620 C 0.98807 0.65572 0.17211 0.0
C1621 C 0.96564 0.65166 0.18314 0.0
C1622 C 0.97007 0.6992 0.17494 0.0
C1623 C 0.98885 0.70077 0.16236 0.0
N1624 N 0.01477 0.68007 0.14814 0.0
N1625 N 0.9323 0.66745 0.19389 0.0
C1626 C 0.99791 0.67908 0.16079 0.0
C1627 C 0.95603 0.673 0.18438 0.0
N1628 N 9e-05 0.63742 0.1726 0.0
N1629 N 0.96584 0.7229 0.17787 0.0
H1630 H 0.92099 0.64837 0.20092 0.0
H1631 H 0.92212 0.68049 0.19384 0.0
H1632 H 0.97593 0.74249 0.17113 0.0
H1633 H 0.95483 0.72438 0.1878 0.0
H1634 H 0.01851 0.64096 0.16586 0.0
H1635 H 0.99325 0.62011 0.18077 0.0
H1636 H 0.01917 0.66298 0.14535 0.0
H1637 H 0.02288 0.69722 0.13981 0.0
C1638 C 0.29335 0.32896 0.81625 0.0
C1639 C 0.32405 0.35204 0.81747 0.0
C1640 C 0.33073 0.3264 0.83988 0.0
C1641 C 0.3004 0.30281 0.83817 0.0
N1642 N 0.25529 0.27769 0.82257 0.0
N1643 N 0.37354 0.37027 0.82823 0.0
C1644 C 0.28254 0.30283 0.8256 0.0
C1645 C 0.34329 0.34998 0.82861 0.0
N1646 N 0.2741 0.33268 0.80679 0.0
N1647 N 0.34706 0.32688 0.85258 0.0
H1648 H 0.38333 0.38784 0.82013 0.0
H1649 H 0.38919 0.3683 0.83503 0.0
H1650 H 0.33876 0.30961 0.86086 0.0
H1651 H 0.36806 0.34516 0.85547 0.0
H1652 H 0.25085 0.31812 0.80683 0.0
H1653 H 0.28083 0.35172 0.7999 0.0
H1654 H 0.24258 0.27525 0.81262 0.0
H1655 H 0.24679 0.25807 0.8292 0.0
C1656 C 0.66656 0.97153 0.85019 0.0
C1657 C 0.69484 0.99375 0.844 0.0
C1658 C 0.67195 0.99017 0.81839 0.0
C1659 C 0.64383 0.96766 0.82455 0.0
N1660 N 0.6123 0.94257 0.84685 0.0
N1661 N 0.72344 0.02952 0.82378 0.0
C1662 C 0.64048 0.96034 0.84069 0.0
C1663 C 0.69714 0.00488 0.82858 0.0
N1664 N 0.66491 0.9598 0.86477 0.0
N1665 N 0.67483 0.99637 0.8027 0.0
H1666 H 0.74223 0.04065 0.83106 0.0
H1667 H 0.72586 0.04049 0.81318 0.0
H1668 H 0.65662 0.98664 0.79499 0.0
H1669 H 0.69544 0.00986 0.79714 0.0
H1670 H 0.64565 0.94103 0.86913 0.0
H1671 H 0.68341 0.96751 0.8722 0.0
H1672 H 0.60806 0.93871 0.85882 0.0
H1673 H 0.59279 0.93391 0.84009 0.0
C1674 C 0.02286 0.68925 0.81411 0.0
C1675 C 0.02634 0.66531 0.81974 0.0
C1676 C 0.00432 0.66647 0.84503 0.0
C1677 C 0.00217 0.69133 0.83965 0.0
N1678 N 0.00231 0.72197 0.81838 0.0
N1679 N 0.01454 0.62644 0.83874 0.0
C1680 C 0.00899 0.70115 0.82389 0.0
C1681 C 0.01498 0.65228 0.83463 0.0
N1682 N 0.03418 0.70147 0.79971 0.0
N1683 N 0.99738 0.6574 0.86029 0.0
H1684 H 0.02252 0.61582 0.83134 0.0
H1685 H 0.00426 0.6142 0.84884 0.0
H1686 H 0.98821 0.66646 0.86797 0.0
H1687 H 0.00175 0.64186 0.86558 0.0
H1688 H 0.0358 0.72125 0.79563 0.0
H1689 H 0.04338 0.69252 0.79198 0.0
H1690 H 0.00416 0.72823 0.80666 0.0
H1691 H 0.99251 0.73135 0.82538 0.0
C1692 C 0.98985 0.65618 0.49023 0.0
C1693 C 0.96372 0.62962 0.49545 0.0
C1694 C 0.98945 0.62941 0.51944 0.0
C1695 C 0.01584 0.65559 0.51407 0.0
N1696 N 0.03993 0.69771 0.49644 0.0
N1697 N 0.93584 0.59478 0.5162 0.0
C1698 C 0.01558 0.67028 0.50012 0.0
C1699 C 0.9626 0.61758 0.51051 0.0
N1700 N 0.99029 0.66716 0.4756 0.0
N1701 N 0.99055 0.615 0.53265 0.0
H1702 H 0.91587 0.58528 0.5098 0.0
H1703 H 0.93274 0.58694 0.52767 0.0
H1704 H 0.00955 0.62337 0.53978 0.0
H1705 H 0.9733 0.59384 0.53612 0.0
H1706 H 0.00961 0.68429 0.47028 0.0
H1707 H 0.97134 0.65813 0.46839 0.0
H1708 H 0.04033 0.711 0.48718 0.0
H1709 H 0.05912 0.70837 0.50346 0.0
C1710 C 0.34135 0.37839 0.4878 0.0
C1711 C 0.32903 0.36449 0.50239 0.0
C1712 C 0.33719 0.32305 0.49532 0.0
C1713 C 0.35484 0.34007 0.48234 0.0
N1714 N 0.37712 0.38633 0.46734 0.0
N1715 N 0.31678 0.32428 0.52076 0.0
C1716 C 0.35751 0.36821 0.47869 0.0
C1717 C 0.32689 0.33671 0.50628 0.0
N1718 N 0.33784 0.40157 0.48278 0.0
N1719 N 0.3303 0.29389 0.49712 0.0
H1720 H 0.30899 0.33352 0.52913 0.0
H1721 H 0.3181 0.30598 0.52487 0.0
H1722 H 0.33739 0.28329 0.48916 0.0
H1723 H 0.31527 0.27948 0.50555 0.0
H1724 H 0.34402 0.41084 0.4716 0.0
H1725 H 0.32586 0.40934 0.48924 0.0
H1726 H 0.38227 0.40842 0.46549 0.0
H1727 H 0.39048 0.38054 0.46072 0.0
C1728 C 0.65106 0.02667 0.50617 0.0
C1729 C 0.65931 0.02437 0.49059 0.0
C1730 C 0.64895 0.97322 0.49567 0.0
C1731 C 0.63613 0.9739 0.51028 0.0
N1732 N 0.62425 0.00045 0.52974 0.0
N1733 N 0.66717 0.99657 0.47021 0.0
C1734 C 0.63745 0.00059 0.51576 0.0
C1735 C 0.65901 0.99808 0.48531 0.0
N1736 N 0.65612 0.05381 0.5117 0.0
N1737 N 0.65141 0.94879 0.49179 0.0
H1738 H 0.67593 0.01492 0.46259 0.0
H1739 H 0.66417 0.97696 0.46497 0.0
H1740 H 0.644 0.93023 0.49918 0.0
H1741 H 0.66283 0.94777 0.48193 0.0
H1742 H 0.65327 0.05781 0.52337 0.0
H1743 H 0.66573 0.07322 0.50484 0.0
H1744 H 0.62107 0.01788 0.53352 0.0
H1745 H 0.61481 0.98205 0.53732 0.0
C1746 C 0.00319 0.14251 0.09368 0.0
C1747 C 0.01746 0.16365 0.10589 0.0
C1748 C 0.96875 0.14616 0.11875 0.0
C1749 C 0.95449 0.12516 0.10636 0.0
N1750 N 0.95656 0.10827 0.08024 0.0
N1751 N 0.01407 0.19071 0.12809 0.0
C1752 C 0.97126 0.12497 0.09318 0.0
C1753 C 0.00026 0.16712 0.11783 0.0
N1754 N 0.02102 0.13839 0.08332 0.0
N1755 N 0.95242 0.1452 0.13163 0.0
H1756 H 0.03706 0.20651 0.12746 0.0
H1757 H 0.00249 0.19617 0.13624 0.0
H1758 H 0.9292 0.13059 0.13251 0.0
H1759 H 0.96205 0.15754 0.14182 0.0
H1760 H 0.01312 0.1217 0.07471 0.0
H1761 H 0.01312 0.1217 0.07471 0.0
H1762 H 0.96721 0.1096 0.06962 0.0
H1763 H 0.93313 0.09517 0.07961 0.0
C1764 C 0.84682 0.86036 0.12169 0.0
C1765 C 0.84452 0.8736 0.10762 0.0
C1766 C 0.87394 0.8556 0.09352 0.0
C1767 C 0.87979 0.84617 0.10802 0.0
N1768 N 0.87195 0.83852 0.13587 0.0
N1769 N 0.85521 0.88428 0.0801 0.0
C1770 C 0.86591 0.84788 0.12209 0.0
C1771 C 0.85748 0.8709 0.09345 0.0
N1772 N 0.83074 0.85986 0.13459 0.0
N1773 N 0.88433 0.85007 0.07986 0.0
H1774 H 0.84219 0.89449 0.07945 0.0
H1775 H 0.86723 0.88662 0.06986 0.0
H1776 H 0.89729 0.83977 0.07951 0.0
H1777 H 0.87843 0.85359 0.06875 0.0
H1778 H 0.82923 0.84841 0.14488 0.0
H1779 H 0.81689 0.8692 0.13463 0.0
H1780 H 0.86553 0.8422 0.14685 0.0
H1781 H 0.88463 0.82793 0.13639 0.0
C1782 C 0.15669 0.03222 0.12258 0.0
C1783 C 0.14984 0.04483 0.10959 0.0
C1784 C 0.11964 0.99484 0.09789 0.0
C1785 C 0.12718 0.9823 0.11052 0.0
N1786 N 0.15709 0.98881 0.13338 0.0
N1787 N 0.13086 0.03968 0.08327 0.0
C1788 C 0.14706 0.00096 0.12244 0.0
C1789 C 0.13317 0.02657 0.09669 0.0
N1790 N 0.17143 0.04991 0.13524 0.0
N1791 N 0.09801 0.97551 0.08773 0.0
H1792 H 0.14063 0.06293 0.08207 0.0
H1793 H 0.12187 0.02796 0.07285 0.0
H1794 H 0.08872 0.982 0.07881 0.0
H1795 H 0.08872 0.982 0.07881 0.0
H1796 H 0.17423 0.0415 0.14577 0.0
H1797 H 0.17934 0.07299 0.13556 0.0
H1798 H 0.17373 0.00155 0.14157 0.0
H1799 H 0.15051 0.96602 0.13338 0.0
C1800 C 0.1429 0.9689 0.87676 0.0
C1801 C 0.12228 0.9557 0.88941 0.0
C1802 C 0.141 0.00533 0.90129 0.0
C1803 C 0.16202 0.01849 0.88893 0.0
N1804 N 0.18747 0.01319 0.86654 0.0
N1805 N 0.10598 0.95987 0.91536 0.0
C1806 C 0.16438 0.00034 0.87714 0.0
C1807 C 0.12272 0.9735 0.90225 0.0
N1808 N 0.14125 0.95152 0.86422 0.0
N1809 N 0.13788 0.02417 0.91138 0.0
H1810 H 0.09223 0.93657 0.91633 0.0
H1811 H 0.10776 0.97122 0.92578 0.0
H1812 H 0.12143 0.01723 0.92009 0.0
H1813 H 0.12143 0.01723 0.92009 0.0
H1814 H 0.15331 0.96024 0.85386 0.0
H1815 H 0.12639 0.9283 0.86382 0.0
H1816 H 0.19219 0.00094 0.85846 0.0
H1817 H 0.20357 0.03613 0.86673 0.0
C1818 C 0.03245 0.15887 0.89906 0.0
C1819 C 0.04661 0.15402 0.88597 0.0
C1820 C 0.99771 0.12357 0.87322 0.0
C1821 C 0.98358 0.12871 0.88624 0.0
N1822 N 0.98813 0.15862 0.90895 0.0
N1823 N 0.04411 0.14011 0.85878 0.0
C1824 C 0.00128 0.14903 0.89825 0.0
C1825 C 0.02964 0.13924 0.87241 0.0
N1826 N 0.04805 0.17086 0.91265 0.0
N1827 N 0.98091 0.10227 0.86222 0.0
H1828 H 0.06757 0.15176 0.85784 0.0
H1829 H 0.03298 0.13202 0.84814 0.0
H1830 H 0.95747 0.08984 0.8624 0.0
H1831 H 0.99033 0.0952 0.85358 0.0
H1832 H 0.03782 0.17167 0.92306 0.0
H1833 H 0.07074 0.17772 0.91398 0.0
H1834 H 0.00036 0.17545 0.91718 0.0
H1835 H 0.96531 0.15188 0.90848 0.0
C1836 C 0.84346 0.83263 0.8837 0.0
C1837 C 0.87401 0.84552 0.8883 0.0
C1838 C 0.87807 0.8946 0.89204 0.0
C1839 C 0.84696 0.8813 0.88854 0.0
N1840 N 0.79893 0.83747 0.88268 0.0
N1841 N 0.91904 0.88705 0.89947 0.0
C1842 C 0.82928 0.8502 0.88485 0.0
C1843 C 0.89094 0.87604 0.89321 0.0
N1844 N 0.82835 0.80389 0.87792 0.0
N1845 N 0.89552 0.92514 0.89392 0.0
H1846 H 0.9295 0.87432 0.90041 0.0
H1847 H 0.93105 0.90794 0.90498 0.0
H1848 H 0.88694 0.93959 0.89354 0.0
H1849 H 0.91893 0.93655 0.89461 0.0
H1850 H 0.80708 0.79411 0.87284 0.0
H1851 H 0.83797 0.79032 0.87727 0.0
H1852 H 0.78416 0.81439 0.88159 0.0
H1853 H 0.78813 0.84997 0.88293 0.0
C1854 C 0.66435 0.51375 0.4499 0.0
C1855 C 0.68132 0.50899 0.46134 0.0
C1856 C 0.63501 0.46722 0.47204 0.0
C1857 C 0.62006 0.46634 0.45793 0.0
N1858 N 0.61868 0.49162 0.43443 0.0
N1859 N 0.67685 0.49913 0.489 0.0
C1860 C 0.63401 0.49078 0.44725 0.0
C1861 C 0.66499 0.49107 0.47433 0.0
N1862 N 0.67595 0.54144 0.4432 0.0
N1863 N 0.6214 0.44472 0.48285 0.0
H1864 H 0.69742 0.51894 0.4909 0.0
H1865 H 0.66483 0.48838 0.49913 0.0
H1866 H 0.59936 0.42681 0.48165 0.0
H1867 H 0.63284 0.44309 0.4925 0.0
H1868 H 0.6637 0.54721 0.43576 0.0
H1869 H 0.69673 0.55948 0.44678 0.0
H1870 H 0.62899 0.50718 0.4254 0.0
H1871 H 0.59595 0.47593 0.43256 0.0
C1872 C 0.51903 0.1965 0.46318 0.0
C1873 C 0.50784 0.20093 0.44894 0.0
C1874 C 0.52517 0.17111 0.43473 0.0
C1875 C 0.54077 0.17115 0.44841 0.0
N1876 N 0.55189 0.18198 0.47587 0.0
N1877 N 0.49916 0.19356 0.42159 0.0
C1878 C 0.53708 0.18286 0.4628 0.0
C1879 C 0.51002 0.18775 0.43484 0.0
N1880 N 0.51225 0.20539 0.47697 0.0
N1881 N 0.52541 0.15562 0.42172 0.0
H1882 H 0.50142 0.18716 0.4103 0.0
H1883 H 0.50142 0.18716 0.4103 0.0
H1884 H 0.537 0.14391 0.42128 0.0
H1885 H 0.5123 0.15219 0.41183 0.0
H1886 H 0.51768 0.20092 0.48798 0.0
H1887 H 0.49888 0.21526 0.4774 0.0
H1888 H 0.55309 0.19306 0.48631 0.0
H1889 H 0.56405 0.17082 0.47609 0.0
C1890 C 0.79619 0.35281 0.42997 0.0
C1891 C 0.81049 0.36915 0.4438 0.0
C1892 C 0.80825 0.32423 0.45491 0.0
C1893 C 0.78966 0.30697 0.44226 0.0
N1894 N 0.76318 0.30308 0.41878 0.0
N1895 N 0.82871 0.37049 0.46999 0.0
C1896 C 0.78329 0.32105 0.4299 0.0
C1897 C 0.81647 0.35499 0.45639 0.0
N1898 N 0.79543 0.36775 0.41693 0.0
N1899 N 0.81831 0.31123 0.46531 0.0
H1900 H 0.83518 0.39309 0.47147 0.0
H1901 H 0.8305 0.36044 0.48018 0.0
H1902 H 0.81298 0.28886 0.46425 0.0
H1903 H 0.8341 0.32322 0.47401 0.0
H1904 H 0.78829 0.35759 0.40599 0.0
H1905 H 0.80478 0.39108 0.41665 0.0
H1906 H 0.75479 0.31068 0.40993 0.0
H1907 H 0.75479 0.31068 0.40993 0.0
C1908 C 0.78328 0.31542 0.20129 0.0
C1909 C 0.78331 0.2969 0.21353 0.0
C1910 C 0.82256 0.34104 0.22741 0.0
C1911 C 0.82128 0.35967 0.21562 0.0
N1912 N 0.80796 0.36509 0.18937 0.0
N1913 N 0.80852 0.29039 0.23551 0.0
C1914 C 0.80425 0.34689 0.20181 0.0
C1915 C 0.80506 0.30924 0.22564 0.0
N1916 N 0.76201 0.30325 0.18975 0.0
N1917 N 0.83893 0.35369 0.24072 0.0
H1918 H 0.79584 0.26698 0.23437 0.0
H1919 H 0.82564 0.2978 0.2438 0.0
H1920 H 0.85259 0.37691 0.24223 0.0
H1921 H 0.83786 0.34133 0.25058 0.0
H1922 H 0.75845 0.31607 0.18157 0.0
H1923 H 0.74671 0.2802 0.18882 0.0
H1924 H 0.79807 0.35704 0.17845 0.0
H1925 H 0.82334 0.38822 0.18958 0.0
C1926 C 0.69073 0.50925 0.22141 0.0
C1927 C 0.70365 0.49338 0.21444 0.0
C1928 C 0.65386 0.45233 0.20681 0.0
C1929 C 0.64074 0.4679 0.214 0.0
N1930 N 0.64628 0.51373 0.2247 0.0
N1931 N 0.69917 0.45469 0.19685 0.0
C1932 C 0.65914 0.49733 0.22014 0.0
C1933 C 0.68568 0.46659 0.20582 0.0
N1934 N 0.70848 0.53488 0.22984 0.0
N1935 N 0.63607 0.42317 0.20191 0.0
H1936 H 0.72253 0.46459 0.19604 0.0
H1937 H 0.68745 0.43681 0.18909 0.0
H1938 H 0.61263 0.41166 0.20246 0.0
H1939 H 0.64453 0.40952 0.19837 0.0
H1940 H 0.70004 0.54561 0.23677 0.0
H1941 H 0.73184 0.5447 0.23051 0.0
H1942 H 0.6586 0.53627 0.22804 0.0
H1943 H 0.62316 0.50541 0.22384 0.0
C1944 C 0.49139 0.19497 0.2268 0.0
C1945 C 0.49554 0.21283 0.21339 0.0
C1946 C 0.52063 0.18965 0.19975 0.0
C1947 C 0.52169 0.17652 0.21411 0.0
N1948 N 0.50752 0.1652 0.24128 0.0
N1949 N 0.5122 0.22658 0.18673 0.0
C1950 C 0.50626 0.17814 0.22756 0.0
C1951 C 0.50905 0.2095 0.1996 0.0
N1952 N 0.47364 0.19465 0.23884 0.0
N1953 N 0.53113 0.18333 0.18638 0.0
H1954 H 0.50285 0.24039 0.18612 0.0
H1955 H 0.52492 0.22803 0.1769 0.0
H1956 H 0.53976 0.16886 0.18632 0.0
H1957 H 0.52907 0.19025 0.17525 0.0
H1958 H 0.46754 0.18025 0.24842 0.0
H1959 H 0.46278 0.2071 0.23856 0.0
H1960 H 0.50002 0.16862 0.25201 0.0
H1961 H 0.51743 0.15193 0.2421 0.0
C1962 C 0.30763 0.79987 0.78739 0.0
C1963 C 0.29379 0.78013 0.77448 0.0
C1964 C 0.34271 0.79916 0.76176 0.0
C1965 C 0.35693 0.81811 0.7749 0.0
N1966 N 0.35333 0.84139 0.79867 0.0
N1967 N 0.29741 0.76331 0.74851 0.0
C1968 C 0.33942 0.82004 0.78724 0.0
C1969 C 0.31108 0.78094 0.76134 0.0
N1970 N 0.29042 0.79837 0.79998 0.0
N1971 N 0.35877 0.79714 0.74955 0.0
H1972 H 0.2741 0.74978 0.74748 0.0
H1973 H 0.30946 0.76293 0.73872 0.0
H1974 H 0.38223 0.80919 0.74874 0.0
H1975 H 0.38223 0.80919 0.74874 0.0
H1976 H 0.29917 0.80958 0.81054 0.0
H1977 H 0.26699 0.78474 0.80009 0.0
H1978 H 0.34194 0.84586 0.80738 0.0
H1979 H 0.37655 0.85638 0.79875 0.0
C1980 C 0.18036 0.47988 0.77119 0.0
C1981 C 0.20926 0.49463 0.77826 0.0
C1982 C 0.20171 0.53535 0.78754 0.0
C1983 C 0.17323 0.52117 0.77999 0.0
N1984 N 0.13229 0.47744 0.76782 0.0
N1985 N 0.24466 0.53194 0.79624 0.0
C1986 C 0.16147 0.49246 0.7729 0.0
C1987 C 0.21889 0.52082 0.78756 0.0
N1988 N 0.17162 0.45456 0.76237 0.0
N1989 N 0.21314 0.56356 0.79383 0.0
H1990 H 0.25828 0.52236 0.79616 0.0
H1991 H 0.25131 0.54906 0.80451 0.0
H1992 H 0.20103 0.57473 0.79443 0.0
H1993 H 0.23527 0.57677 0.79767 0.0
H1994 H 0.1524 0.44452 0.75541 0.0
H1995 H 0.18444 0.44414 0.76151 0.0
H1996 H 0.12133 0.45539 0.76365 0.0
H1997 H 0.11815 0.48636 0.76896 0.0
C1998 C 0.47436 0.68298 0.78969 0.0
C1999 C 0.48843 0.70083 0.77621 0.0
C2000 C 0.47562 0.65563 0.76088 0.0
C2001 C 0.46027 0.63786 0.77402 0.0
N2002 N 0.44991 0.63327 0.80168 0.0
N2003 N 0.50861 0.7057 0.75014 0.0
C2004 C 0.46138 0.65119 0.78874 0.0
C2005 C 0.49131 0.68761 0.76216 0.0
N2006 N 0.47242 0.69647 0.80313 0.0
N2007 N 0.47304 0.64092 0.74714 0.0
H2008 H 0.5197 0.72915 0.75072 0.0
H2009 H 0.51399 0.69791 0.74009 0.0
H2010 H 0.48145 0.65131 0.73635 0.0
H2011 H 0.48145 0.65131 0.73635 0.0
H2012 H 0.45965 0.68476 0.81286 0.0
H2013 H 0.48298 0.71981 0.80438 0.0
H2014 H 0.45185 0.64142 0.81305 0.0
H2015 H 0.44022 0.60991 0.80115 0.0
C2016 C 0.49887 0.66586 0.55386 0.0
C2017 C 0.48564 0.68415 0.55477 0.0
C2018 C 0.43501 0.63937 0.55474 0.0
C2019 C 0.44827 0.62101 0.55516 0.0
N2020 N 0.49206 0.61567 0.5557 0.0
N2021 N 0.44177 0.68945 0.55651 0.0
C2022 C 0.48004 0.63396 0.55479 0.0
C2023 C 0.45385 0.67119 0.55518 0.0
N2024 N 0.52936 0.67911 0.55194 0.0
N2025 N 0.40433 0.62627 0.55388 0.0
H2026 H 0.4546 0.71289 0.55595 0.0
H2027 H 0.41921 0.68173 0.55893 0.0
H2028 H 0.38951 0.6031 0.55458 0.0
H2029 H 0.39327 0.63802 0.5516 0.0
H2030 H 0.54042 0.66729 0.54973 0.0
H2031 H 0.54369 0.70243 0.55158 0.0
H2032 H 0.51489 0.62347 0.5572 0.0
H2033 H 0.47887 0.59221 0.55565 0.0
C2034 C 0.32673 0.80682 0.56493 0.0
C2035 C 0.31108 0.7971 0.55056 0.0
C2036 C 0.35847 0.81374 0.53649 0.0
C2037 C 0.374 0.82257 0.55101 0.0
N2038 N 0.37493 0.83582 0.57818 0.0
N2039 N 0.31209 0.79904 0.5224 0.0
C2040 C 0.35873 0.82201 0.56498 0.0
C2041 C 0.32707 0.80324 0.53621 0.0
N2042 N 0.31014 0.79907 0.57838 0.0
N2043 N 0.37336 0.81383 0.52317 0.0
H2044 H 0.28913 0.79178 0.52203 0.0
H2045 H 0.32277 0.80541 0.51153 0.0
H2046 H 0.39648 0.82197 0.52289 0.0
H2047 H 0.36258 0.80432 0.51261 0.0
H2048 H 0.3191 0.80269 0.58966 0.0
H2049 H 0.3191 0.80269 0.58966 0.0
H2050 H 0.36551 0.83886 0.58834 0.0
H2051 H 0.39843 0.84695 0.57842 0.0
C2052 C 0.19879 0.51965 0.53999 0.0
C2053 C 0.19623 0.50409 0.55415 0.0
C2054 C 0.16746 0.5249 0.56614 0.0
C2055 C 0.16963 0.54014 0.55192 0.0
N2056 N 0.17923 0.54481 0.52412 0.0
N2057 N 0.17044 0.48436 0.57866 0.0
C2058 C 0.18249 0.53494 0.53841 0.0
C2059 C 0.17777 0.50408 0.56651 0.0
N2060 N 0.2183 0.5217 0.52849 0.0
N2061 N 0.15769 0.53182 0.57959 0.0
H2062 H 0.17758 0.46869 0.57911 0.0
H2063 H 0.15492 0.48149 0.58734 0.0
H2064 H 0.15067 0.54754 0.58006 0.0
H2065 H 0.15901 0.52385 0.59059 0.0
H2066 H 0.22362 0.53574 0.51878 0.0
H2067 H 0.23102 0.51122 0.52916 0.0
H2068 H 0.18581 0.53937 0.51363 0.0
H2069 H 0.16714 0.55587 0.52265 0.0
C2070 C 0.22068 0.24987 0.00354 0.0
C2071 C 0.23112 0.23673 0.01453 0.0
C2072 C 0.25265 0.2213 0.99331 0.0
C2073 C 0.23798 0.23005 0.98234 0.0
N2074 N 0.20827 0.25284 0.97644 0.0
N2075 N 0.25716 0.21013 0.02043 0.0
C2076 C 0.22245 0.24486 0.98728 0.0
C2077 C 0.24762 0.22292 0.00958 0.0
N2078 N 0.2091 0.26707 0.00874 0.0
N2079 N 0.27127 0.21141 0.98808 0.0
H2080 H 0.25481 0.21188 0.03247 0.0
H2081 H 0.26608 0.19656 0.01758 0.0
H2082 H 0.27503 0.20971 0.97619 0.0
H2083 H 0.28485 0.20723 0.9954 0.0
H2084 H 0.20352 0.27958 0.00139 0.0
H2085 H 0.20737 0.27086 0.02063 0.0
H2086 H 0.19353 0.26036 0.97931 0.0
H2087 H 0.21012 0.25057 0.96439 0.0
C2088 C 0.78197 0.03431 0.9929 0.0
C2089 C 0.77075 0.00841 0.98322 0.0
C2090 C 0.74869 0.9763 0.00625 0.0
C2091 C 0.76502 0.00181 0.01604 0.0
N2092 N 0.79996 0.05533 0.01868 0.0
N2093 N 0.74604 0.95415 0.98086 0.0
C2094 C 0.7821 0.03102 0.00941 0.0
C2095 C 0.75438 0.97916 0.98988 0.0
N2096 N 0.79253 0.06201 0.98628 0.0
N2097 N 0.72782 0.94935 0.01265 0.0
H2098 H 0.75038 0.95503 0.96888 0.0
H2099 H 0.7371 0.93261 0.98553 0.0
H2100 H 0.72302 0.94671 0.02464 0.0
H2101 H 0.71326 0.93063 0.00593 0.0
H2102 H 0.79847 0.08137 0.99281 0.0
H2103 H 0.7924 0.065 0.97419 0.0
H2104 H 0.81543 0.07644 0.0142 0.0
H2105 H 0.80126 0.05398 0.03082 0.0
C2106 C 0.97185 0.74971 0.99396 0.0
C2107 C 0.99692 0.76609 0.98389 0.0
C2108 C 0.03085 0.78485 0.00651 0.0
C2109 C 0.00535 0.77229 0.01653 0.0
N2110 N 0.95161 0.74263 0.02036 0.0
N2111 N 0.05028 0.79918 0.98003 0.0
C2112 C 0.97583 0.75426 0.01043 0.0
C2113 C 0.02653 0.78329 0.99001 0.0
N2114 N 0.94433 0.72987 0.98769 0.0
N2115 N 0.05909 0.79823 0.01285 0.0
H2116 H 0.04808 0.79763 0.96786 0.0
H2117 H 0.07191 0.815 0.98371 0.0
H2118 H 0.06286 0.79998 0.02492 0.0
H2119 H 0.07864 0.80542 0.00629 0.0
H2120 H 0.92563 0.71513 0.99434 0.0
H2121 H 0.94077 0.72641 0.97564 0.0
H2122 H 0.92934 0.73238 0.01664 0.0
H2123 H 0.95383 0.74448 0.03253 0.0
C2124 C 0.89386 0.57833 0.32851 0.0
C2125 C 0.87892 0.54952 0.32125 0.0
C2126 C 0.86147 0.52572 0.34692 0.0
C2127 C 0.87256 0.55455 0.3538 0.0
N2128 N 0.89648 0.60845 0.35102 0.0
N2129 N 0.84428 0.49587 0.32326 0.0
C2130 C 0.88815 0.58098 0.34458 0.0
C2131 C 0.86169 0.52317 0.33037 0.0
N2132 N 0.91401 0.60301 0.32011 0.0
N2133 N 0.85138 0.50082 0.3562 0.0
H2134 H 0.84336 0.49294 0.31115 0.0
H2135 H 0.82866 0.47662 0.32928 0.0
H2136 H 0.85128 0.50178 0.36843 0.0
H2137 H 0.84597 0.47973 0.35185 0.0
H2138 H 0.92776 0.62412 0.32514 0.0
H2139 H 0.91905 0.60175 0.30837 0.0
H2140 H 0.90498 0.62813 0.34445 0.0
H2141 H 0.89264 0.61124 0.36276 0.0
C2142 C 0.47739 0.33745 0.32233 0.0
C2143 C 0.45373 0.33956 0.31517 0.0
C2144 C 0.4288 0.33233 0.34063 0.0
C2145 C 0.45385 0.33305 0.34794 0.0
N2146 N 0.50424 0.34121 0.34625 0.0
N2147 N 0.4089 0.34296 0.31734 0.0
C2148 C 0.47879 0.33695 0.33892 0.0
C2149 C 0.42993 0.33808 0.32428 0.0
N2150 N 0.49802 0.33499 0.31326 0.0
N2151 N 0.40364 0.3253 0.34925 0.0
H2152 H 0.4089 0.34689 0.30535 0.0
H2153 H 0.39286 0.3454 0.32359 0.0
H2154 H 0.40211 0.32107 0.36128 0.0
H2155 H 0.38346 0.32129 0.34434 0.0
H2156 H 0.51371 0.32997 0.31777 0.0
H2157 H 0.49791 0.33543 0.30103 0.0
H2158 H 0.52436 0.34755 0.34039 0.0
H2159 H 0.50612 0.34093 0.3584 0.0
C2160 C 0.6484 0.1313 0.34071 0.0
C2161 C 0.65985 0.11387 0.34725 0.0
C2162 C 0.65957 0.09322 0.32129 0.0
C2163 C 0.65186 0.11356 0.31455 0.0
N2164 N 0.6441 0.15578 0.3176 0.0
N2165 N 0.67995 0.08095 0.34377 0.0
C2166 C 0.64758 0.13361 0.32419 0.0
C2167 C 0.66635 0.09545 0.33755 0.0
N2168 N 0.63753 0.14502 0.35027 0.0
N2169 N 0.65964 0.07133 0.31221 0.0
H2170 H 0.68521 0.08206 0.35565 0.0
H2171 H 0.6882 0.06984 0.337 0.0
H2172 H 0.65448 0.0689 0.30028 0.0
H2173 H 0.66212 0.05398 0.31675 0.0
H2174 H 0.62605 0.15538 0.3461 0.0
H2175 H 0.63732 0.14356 0.36248 0.0
H2176 H 0.64431 0.1731 0.32406 0.0
H2177 H 0.64378 0.15858 0.30553 0.0
C2178 C 0.53305 0.85634 0.65771 0.0
C2179 C 0.55419 0.88197 0.64909 0.0
C2180 C 0.56939 0.9123 0.67313 0.0
C2181 C 0.55033 0.88597 0.6819 0.0
N2182 N 0.519 0.83176 0.68297 0.0
N2183 N 0.59595 0.9331 0.64866 0.0
C2184 C 0.53358 0.85761 0.67432 0.0
C2185 C 0.57341 0.90965 0.65682 0.0
N2186 N 0.51165 0.83115 0.65006 0.0
N2187 N 0.58281 0.93989 0.68028 0.0
H2188 H 0.59955 0.93189 0.6367 0.0
H2189 H 0.61261 0.95277 0.65397 0.0
H2190 H 0.58026 0.94267 0.6922 0.0
H2191 H 0.59437 0.96014 0.67419 0.0
H2192 H 0.49369 0.8131 0.65578 0.0
H2193 H 0.5101 0.82936 0.63787 0.0
H2194 H 0.50909 0.8103 0.67803 0.0
H2195 H 0.51926 0.83161 0.6952 0.0
C2196 C 0.09146 0.62946 0.65563 0.0
C2197 C 0.10615 0.65927 0.64966 0.0
C2198 C 0.1163 0.67991 0.67629 0.0
C2199 C 0.10174 0.6501 0.68228 0.0
N2200 N 0.06959 0.59676 0.67822 0.0
N2201 N 0.12616 0.71233 0.65378 0.0
C2202 C 0.08732 0.62492 0.67209 0.0
C2203 C 0.11643 0.68435 0.65986 0.0
N2204 N 0.08276 0.60564 0.64563 0.0
N2205 N 0.13128 0.70388 0.68625 0.0
H2206 H 0.12666 0.71624 0.64176 0.0
H2207 H 0.13122 0.73113 0.6606 0.0
H2208 H 0.13116 0.70158 0.6984 0.0
H2209 H 0.14536 0.72591 0.68248 0.0
H2210 H 0.07523 0.58373 0.64935 0.0
H2211 H 0.08475 0.60801 0.63347 0.0
H2212 H 0.05613 0.57773 0.67145 0.0
H2213 H 0.06631 0.59284 0.69026 0.0
C2214 C 0.3613 0.43206 0.6531 0.0
C2215 C 0.33166 0.41286 0.64736 0.0
C2216 C 0.31708 0.38815 0.67289 0.0
C2217 C 0.34336 0.41281 0.67937 0.0
N2218 N 0.3963 0.43824 0.67354 0.0
N2219 N 0.282 0.36955 0.6512 0.0
C2220 C 0.36765 0.42917 0.66891 0.0
C2221 C 0.30979 0.38962 0.65701 0.0
N2222 N 0.383 0.45382 0.64379 0.0
N2223 N 0.30169 0.36209 0.68122 0.0
H2224 H 0.27636 0.36926 0.63943 0.0
H2225 H 0.26427 0.35427 0.65827 0.0
H2226 H 0.30953 0.35964 0.69207 0.0
H2227 H 0.28384 0.34232 0.67662 0.0
H2228 H 0.40396 0.47013 0.64812 0.0
H2229 H 0.37939 0.45681 0.63208 0.0
H2230 H 0.4147 0.44798 0.66592 0.0
H2231 H 0.40058 0.43222 0.6845 0.0
loop_
_geom_bond_atom_site_label_1
_geom_bond_atom_site_label_2
_geom_bond_distance
_geom_bond_site_symmetry_2
_ccdc_geom_bond_type
Li0 N17 1.990 . S
Li0 O60 1.956 . S
Li0 O61 1.970 . S
Li0 O62 1.961 . S
Li1 N25 1.990 . S
Li1 O60 1.970 . S
Li1 O61 1.956 . S
Li1 O63 1.961 . S
Li2 N47 1.990 . S
Li2 O60 1.961 . S
Li2 O62 1.956 . S
Li2 O63 1.970 . S
Li3 N53 1.990 . S
Li3 O61 1.961 . S
Li3 O62 1.970 . S
Li3 O63 1.956 . S
C4 C6 1.348 . S
C4 C7 1.356 . S
C4 O60 1.325 . S
N5 C8 1.314 . S
N5 C9 1.279 . S
C6 C4 1.348 . S
C6 C8 1.353 . S
C6 H64 0.929 . S
C7 C4 1.356 . S
C7 C9 1.358 . S
C7 H65 0.930 . S
C8 N5 1.314 . S
C8 C6 1.353 . S
C8 H66 0.930 . S
C9 N5 1.279 . S
C9 C7 1.358 . S
C9 H67 0.930 . S
C10 C13 1.348 . S
C10 C14 1.356 . S
C10 O61 1.325 . S
C11 N12 1.279 . S
C11 C14 1.358 . S
C11 H68 0.930 . S
N12 C11 1.279 . S
N12 C15 1.314 . S
C13 C10 1.348 . S
C13 C15 1.353 . S
C13 H69 0.929 . S
C14 C10 1.356 . S
C14 C11 1.358 . S
C14 H70 0.930 . S
C15 N12 1.314 . S
C15 C13 1.353 . S
C15 H71 0.930 . S
C16 N17 1.314 . S
C16 C21 1.353 . S
C16 H22 0.930 . S
N17 Li0 1.990 . S
N17 C16 1.314 . S
N17 C19 1.279 . S
C18 C19 1.358 . S
C18 C20 1.356 . S
C18 H72 0.930 . S
C19 N17 1.279 . S
C19 C18 1.358 . S
C19 H23 0.930 . S
C20 C18 1.356 . S
C20 C21 1.348 . S
C21 C16 1.353 . S
C21 C20 1.348 . S
C21 H73 0.929 . S
H22 C16 0.930 . S
H23 C19 0.930 . S
C24 N25 1.314 . S
C24 C26 1.353 . S
C24 H30 0.930 . S
N25 Li1 1.990 . S
N25 C24 1.314 . S
N25 C28 1.279 . S
C26 C24 1.353 . S
C26 C29 1.348 . S
C26 H74 0.929 . S
C27 C28 1.358 . S
C27 C29 1.356 . S
C27 H75 0.930 . S
C28 N25 1.279 . S
C28 C27 1.358 . S
C28 H31 0.930 . S
C29 C26 1.348 . S
C29 C27 1.356 . S
H30 C24 0.930 . S
H31 C28 0.930 . S
C32 C34 1.348 . S
C32 C35 1.356 . S
C32 O62 1.325 . S
N33 C36 1.314 . S
N33 C37 1.279 . S
C34 C32 1.348 . S
C34 C36 1.353 . S
C34 H76 0.929 . S
C35 C32 1.356 . S
C35 C37 1.358 . S
C35 H77 0.930 . S
C36 N33 1.314 . S
C36 C34 1.353 . S
C36 H78 0.930 . S
C37 N33 1.279 . S
C37 C35 1.358 . S
C37 H79 0.930 . S
C38 C39 1.348 . S
C38 C40 1.356 . S
C38 O63 1.325 . S
C39 C38 1.348 . S
C39 C41 1.353 . S
C39 H80 0.929 . S
C40 C38 1.356 . S
C40 C42 1.358 . S
C40 H81 0.930 . S
C41 C39 1.353 . S
C41 N43 1.314 . S
C41 H82 0.930 . S
C42 C40 1.358 . S
C42 N43 1.279 . S
C42 H83 0.930 . S
N43 C41 1.314 . S
N43 C42 1.279 . S
C44 C46 1.353 . S
C44 N47 1.314 . S
C44 H50 0.930 . S
C45 N47 1.279 . S
C45 C48 1.358 . S
C45 H51 0.930 . S
C46 C44 1.353 . S
C46 C49 1.348 . S
C46 H84 0.929 . S
N47 Li2 1.990 . S
N47 C44 1.314 . S
N47 C45 1.279 . S
C48 C45 1.358 . S
C48 C49 1.356 . S
C48 H85 0.930 . S
C49 C46 1.348 . S
C49 C48 1.356 . S
H50 C44 0.930 . S
H51 C45 0.930 . S
C52 N53 1.314 . S
C52 C54 1.353 . S
C52 H58 0.930 . S
N53 Li3 1.990 . S
N53 C52 1.314 . S
N53 C56 1.279 . S
C54 C52 1.353 . S
C54 C57 1.348 . S
C54 H86 0.929 . S
C55 C56 1.358 . S
C55 C57 1.356 . S
C55 H87 0.930 . S
C56 N53 1.279 . S
C56 C55 1.358 . S
C56 H59 0.930 . S
C57 C54 1.348 . S
C57 C55 1.356 . S
H58 C52 0.930 . S
H59 C56 0.930 . S
O60 Li0 1.956 . S
O60 Li1 1.970 . S
O60 Li2 1.961 . S
O60 C4 1.325 . S
O61 Li0 1.970 . S
O61 Li1 1.956 . S
O61 Li3 1.961 . S
O61 C10 1.325 . S
O62 Li0 1.961 . S
O62 Li2 1.956 . S
O62 Li3 1.970 . S
O62 C32 1.325 . S
O63 Li1 1.961 . S
O63 Li2 1.970 . S
O63 Li3 1.956 . S
O63 C38 1.325 . S
H64 C6 0.929 . S
H65 C7 0.930 . S
H66 C8 0.930 . S
H67 C9 0.930 . S
H68 C11 0.930 . S
H69 C13 0.929 . S
H70 C14 0.930 . S
H71 C15 0.930 . S
H72 C18 0.930 . S
H73 C21 0.929 . S
H74 C26 0.929 . S
H75 C27 0.930 . S
H76 C34 0.929 . S
H77 C35 0.930 . S
H78 C36 0.930 . S
H79 C37 0.930 . S
H80 C39 0.929 . S
H81 C40 0.930 . S
H82 C41 0.930 . S
H83 C42 0.930 . S
H84 C46 0.929 . S
H85 C48 0.930 . S
H86 C54 0.929 . S
H87 C55 0.930 . S
Li88 N105 1.990 . S
Li88 O148 1.956 1_545 S
Li88 O149 1.970 . S
Li88 O150 1.961 . S
Li89 N113 1.990 . S
Li89 O148 1.970 . S
Li89 O149 1.956 1_565 S
Li89 O151 1.961 . S
Li90 N135 1.991 . S
Li90 O148 1.969 . S
Li90 O150 1.946 1_565 S
Li90 O151 1.976 . S
Li91 N141 1.990 . S
Li91 O149 1.961 . S
Li91 O150 1.970 . S
Li91 O151 1.956 1_545 S
C92 C94 1.348 . S
C92 C95 1.356 1_565 S
C92 O148 1.325 . S
N93 C96 1.314 . S
N93 C97 1.279 1_565 S
C94 C92 1.348 . S
C94 C96 1.353 . S
C94 H152 0.929 . S
C95 C92 1.356 1_545 S
C95 C97 1.358 . S
C95 H153 0.930 . S
C96 N93 1.314 . S
C96 C94 1.353 . S
C96 H154 0.930 . S
C97 N93 1.279 1_545 S
C97 C95 1.358 . S
C97 H155 0.930 . S
C98 C101 1.348 . S
C98 C102 1.356 1_545 S
C98 O149 1.325 . S
C99 N100 1.279 1_565 S
C99 C102 1.358 . S
C99 H156 0.930 . S
N100 C99 1.279 1_545 S
N100 C103 1.314 . S
C101 C98 1.348 . S
C101 C103 1.353 . S
C101 H157 0.929 . S
C102 C98 1.356 1_565 S
C102 C99 1.358 . S
C102 H158 0.930 . S
C103 N100 1.314 . S
C103 C101 1.353 . S
C103 H159 0.930 . S
C104 N105 1.314 . S
C104 C109 1.353 . S
C104 H110 0.930 . S
N105 Li88 1.990 . S
N105 C104 1.314 . S
N105 C107 1.279 . S
C106 C107 1.358 . S
C106 C108 1.356 . S
C106 H160 0.930 . S
C107 N105 1.279 . S
C107 C106 1.358 . S
C107 H111 0.930 . S
C108 C106 1.356 . S
C108 C109 1.348 . S
C109 C104 1.353 . S
C109 C108 1.348 . S
C109 H161 0.929 . S
H110 C104 0.930 . S
H111 C107 0.930 . S
C112 N113 1.314 . S
C112 C114 1.353 . S
C112 H118 0.930 . S
N113 Li89 1.990 . S
N113 C112 1.314 . S
N113 C116 1.279 . S
C114 C112 1.353 . S
C114 C117 1.348 . S
C114 H162 0.929 . S
C115 C116 1.358 . S
C115 C117 1.356 . S
C115 H163 0.930 . S
C116 N113 1.279 . S
C116 C115 1.358 . S
C116 H119 0.930 . S
C117 C114 1.348 . S
C117 C115 1.356 . S
H118 C112 0.930 . S
H119 C116 0.930 . S
C120 C122 1.348 . S
C120 C123 1.356 . S
C120 O150 1.325 . S
N121 C124 1.314 . S
N121 C125 1.279 . S
C122 C120 1.348 . S
C122 C124 1.353 . S
C122 H164 0.929 . S
C123 C120 1.356 . S
C123 C125 1.358 . S
C123 H165 0.930 . S
C124 N121 1.314 . S
C124 C122 1.353 . S
C124 H166 0.930 . S
C125 N121 1.279 . S
C125 C123 1.358 . S
C125 H167 0.930 . S
C126 C127 1.348 . S
C126 C128 1.356 . S
C126 O151 1.325 . S
C127 C126 1.348 . S
C127 C129 1.353 . S
C127 H168 0.929 . S
C128 C126 1.356 . S
C128 C130 1.358 . S
C128 H169 0.930 . S
C129 C127 1.353 . S
C129 N131 1.314 . S
C129 H170 0.930 . S
C130 C128 1.358 . S
C130 N131 1.279 . S
C130 H171 0.930 . S
N131 C129 1.314 . S
N131 C130 1.279 . S
C132 C134 1.353 . S
C132 N135 1.328 . S
C132 H138 0.930 . S
C133 N135 1.264 1_545 S
C133 C136 1.358 . S
C133 H139 0.930 . S
C134 C132 1.353 . S
C134 C137 1.348 . S
C134 H172 0.929 . S
N135 Li90 1.991 . S
N135 C132 1.328 . S
N135 C133 1.264 1_565 S
C136 C133 1.358 . S
C136 C137 1.356 1_545 S
C136 H173 0.930 . S
C137 C134 1.348 . S
C137 C136 1.356 1_565 S
H138 C132 0.930 . S
H139 C133 0.930 . S
C140 N141 1.314 . S
C140 C142 1.353 . S
C140 H146 0.930 . S
N141 Li91 1.990 . S
N141 C140 1.314 . S
N141 C144 1.279 1_545 S
C142 C140 1.353 . S
C142 C145 1.348 . S
C142 H174 0.929 . S
C143 C144 1.372 . S
C143 C145 1.341 1_565 S
C143 H175 0.932 . S
C144 N141 1.279 1_565 S
C144 C143 1.372 . S
C144 H147 0.930 . S
C145 C142 1.348 . S
C145 C143 1.341 1_545 S
H146 C140 0.930 . S
H147 C144 0.930 . S
O148 Li88 1.956 1_565 S
O148 Li89 1.970 . S
O148 Li90 1.969 . S
O148 C92 1.325 . S
O149 Li88 1.970 . S
O149 Li89 1.956 1_545 S
O149 Li91 1.961 . S
O149 C98 1.325 . S
O150 Li88 1.961 . S
O150 Li90 1.946 1_545 S
O150 Li91 1.970 . S
O150 C120 1.325 . S
O151 Li89 1.961 . S
O151 Li90 1.976 . S
O151 Li91 1.956 1_565 S
O151 C126 1.325 . S
H152 C94 0.929 . S
H153 C95 0.930 . S
H154 C96 0.930 . S
H155 C97 0.930 . S
H156 C99 0.930 . S
H157 C101 0.929 . S
H158 C102 0.930 . S
H159 C103 0.930 . S
H160 C106 0.930 . S
H161 C109 0.929 . S
H162 C114 0.929 . S
H163 C115 0.930 . S
H164 C122 0.929 . S
H165 C123 0.930 . S
H166 C124 0.930 . S
H167 C125 0.930 . S
H168 C127 0.929 . S
H169 C128 0.930 . S
H170 C129 0.930 . S
H171 C130 0.930 . S
H172 C134 0.929 . S
H173 C136 0.930 . S
H174 C142 0.929 . S
H175 C143 0.932 . S
Li176 N193 1.990 . S
Li176 O236 1.956 1_655 S
Li176 O237 1.970 . S
Li176 O238 1.961 . S
Li177 N201 1.990 . S
Li177 O236 1.970 . S
Li177 O237 1.956 1_455 S
Li177 O239 1.961 . S
Li178 N223 1.990 . S
Li178 O236 1.957 . S
Li178 O238 1.949 1_455 S
Li178 O239 1.979 . S
Li179 N229 1.990 . S
Li179 O237 1.961 . S
Li179 O238 1.970 . S
Li179 O239 1.956 1_655 S
C180 C182 1.348 . S
C180 C183 1.356 1_455 S
C180 O236 1.325 . S
N181 C184 1.314 . S
N181 C185 1.279 1_455 S
C182 C180 1.348 . S
C182 C184 1.353 . S
C182 H240 0.929 . S
C183 C180 1.356 1_655 S
C183 C185 1.358 . S
C183 H241 0.930 . S
C184 N181 1.314 . S
C184 C182 1.353 . S
C184 H242 0.930 . S
C185 N181 1.279 1_655 S
C185 C183 1.358 . S
C185 H243 0.930 . S
C186 C189 1.348 . S
C186 C190 1.356 1_655 S
C186 O237 1.325 . S
C187 N188 1.279 1_455 S
C187 C190 1.358 . S
C187 H244 0.930 . S
N188 C187 1.279 1_655 S
N188 C191 1.314 . S
C189 C186 1.348 . S
C189 C191 1.353 . S
C189 H245 0.929 . S
C190 C186 1.356 1_455 S
C190 C187 1.358 . S
C190 H246 0.930 . S
C191 N188 1.314 . S
C191 C189 1.353 . S
C191 H247 0.930 . S
C192 N193 1.314 . S
C192 C197 1.353 . S
C192 H198 0.930 . S
N193 Li176 1.990 . S
N193 C192 1.314 . S
N193 C195 1.279 . S
C194 C195 1.358 . S
C194 C196 1.356 . S
C194 H248 0.930 . S
C195 N193 1.279 . S
C195 C194 1.358 . S
C195 H199 0.930 . S
C196 C194 1.356 . S
C196 C197 1.348 . S
C197 C192 1.353 . S
C197 C196 1.348 . S
C197 H249 0.929 . S
H198 C192 0.930 . S
H199 C195 0.930 . S
C200 N201 1.314 . S
C200 C202 1.353 . S
C200 H206 0.930 . S
N201 Li177 1.990 . S
N201 C200 1.314 . S
N201 C204 1.279 . S
C202 C200 1.353 . S
C202 C205 1.348 . S
C202 H250 0.929 . S
C203 C204 1.358 . S
C203 C205 1.356 . S
C203 H251 0.930 . S
C204 N201 1.279 . S
C204 C203 1.358 . S
C204 H207 0.930 . S
C205 C202 1.348 . S
C205 C203 1.356 . S
H206 C200 0.930 . S
H207 C204 0.930 . S
C208 C210 1.348 . S
C208 C211 1.356 . S
C208 O238 1.325 . S
N209 C212 1.314 . S
N209 C213 1.279 . S
C210 C208 1.348 . S
C210 C212 1.353 . S
C210 H252 0.929 . S
C211 C208 1.356 . S
C211 C213 1.358 . S
C211 H253 0.930 . S
C212 N209 1.314 . S
C212 C210 1.353 . S
C212 H254 0.930 . S
C213 N209 1.279 . S
C213 C211 1.358 . S
C213 H255 0.930 . S
C214 C215 1.348 . S
C214 C216 1.356 . S
C214 O239 1.325 . S
C215 C214 1.348 . S
C215 C217 1.353 . S
C215 H256 0.929 . S
C216 C214 1.356 . S
C216 C218 1.358 . S
C216 H257 0.930 . S
C217 C215 1.353 . S
C217 N219 1.314 . S
C217 H258 0.930 . S
C218 C216 1.358 . S
C218 N219 1.279 . S
C218 H259 0.930 . S
N219 C217 1.314 . S
N219 C218 1.279 . S
C220 C222 1.353 . S
C220 N223 1.320 . S
C220 H226 0.930 . S
C221 N223 1.277 1_655 S
C221 C224 1.358 . S
C221 H227 0.930 . S
C222 C220 1.353 . S
C222 C225 1.348 . S
C222 H260 0.929 . S
N223 Li178 1.990 . S
N223 C220 1.320 . S
N223 C221 1.277 1_455 S
C224 C221 1.358 . S
C224 C225 1.356 1_655 S
C224 H261 0.930 . S
C225 C222 1.348 . S
C225 C224 1.356 1_455 S
H226 C220 0.930 . S
H227 C221 0.930 . S
C228 N229 1.314 . S
C228 C230 1.353 . S
C228 H234 0.930 . S
N229 Li179 1.990 . S
N229 C228 1.314 . S
N229 C232 1.279 1_655 S
C230 C228 1.353 . S
C230 C233 1.348 . S
C230 H262 0.929 . S
C231 C232 1.363 1_655 S
C231 C233 1.367 . S
C231 H263 0.914 1_655 S
C232 N229 1.279 1_455 S
C232 C231 1.363 1_455 S
C232 H235 0.930 . S
C233 C230 1.348 . S
C233 C231 1.367 . S
H234 C228 0.930 . S
H235 C232 0.930 . S
O236 Li176 1.956 1_455 S
O236 Li177 1.970 . S
O236 Li178 1.957 . S
O236 C180 1.325 . S
O237 Li176 1.970 . S
O237 Li177 1.956 1_655 S
O237 Li179 1.961 . S
O237 C186 1.325 . S
O238 Li176 1.961 . S
O238 Li178 1.949 1_655 S
O238 Li179 1.970 . S
O238 C208 1.325 . S
O239 Li177 1.961 . S
O239 Li178 1.979 . S
O239 Li179 1.956 1_455 S
O239 C214 1.325 . S
H240 C182 0.929 . S
H241 C183 0.930 . S
H242 C184 0.930 . S
H243 C185 0.930 . S
H244 C187 0.930 . S
H245 C189 0.929 . S
H246 C190 0.930 . S
H247 C191 0.930 . S
H248 C194 0.930 . S
H249 C197 0.929 . S
H250 C202 0.929 . S
H251 C203 0.930 . S
H252 C210 0.929 . S
H253 C211 0.930 . S
H254 C212 0.930 . S
H255 C213 0.930 . S
H256 C215 0.929 . S
H257 C216 0.930 . S
H258 C217 0.930 . S
H259 C218 0.930 . S
H260 C222 0.929 . S
H261 C224 0.930 . S
H262 C230 0.929 . S
H263 C231 0.914 1_455 S
Li264 N281 1.990 . S
Li264 O324 1.956 . S
Li264 O325 1.970 . S
Li264 O326 1.961 . S
Li265 N289 1.990 . S
Li265 O324 1.970 . S
Li265 O325 1.956 . S
Li265 O327 1.961 . S
Li266 N311 1.990 . S
Li266 O324 1.961 . S
Li266 O326 1.956 . S
Li266 O327 1.970 . S
Li267 N317 1.990 . S
Li267 O325 1.961 . S
Li267 O326 1.970 . S
Li267 O327 1.956 . S
C268 C270 1.348 . S
C268 C271 1.356 . S
C268 O324 1.325 . S
N269 C272 1.314 . S
N269 C273 1.279 . S
C270 C268 1.348 . S
C270 C272 1.353 . S
C270 H328 0.929 . S
C271 C268 1.356 . S
C271 C273 1.358 . S
C271 H329 0.930 . S
C272 N269 1.314 . S
C272 C270 1.353 . S
C272 H330 0.930 . S
C273 N269 1.279 . S
C273 C271 1.358 . S
C273 H331 0.930 . S
C274 C277 1.348 . S
C274 C278 1.356 . S
C274 O325 1.325 . S
C275 N276 1.279 . S
C275 C278 1.358 . S
C275 H332 0.930 . S
N276 C275 1.279 . S
N276 C279 1.314 . S
C277 C274 1.348 . S
C277 C279 1.353 . S
C277 H333 0.929 . S
C278 C274 1.356 . S
C278 C275 1.358 . S
C278 H334 0.930 . S
C279 N276 1.314 . S
C279 C277 1.353 . S
C279 H335 0.930 . S
C280 N281 1.314 . S
C280 C285 1.353 . S
C280 H286 0.930 . S
N281 Li264 1.990 . S
N281 C280 1.314 . S
N281 C283 1.279 . S
C282 C283 1.358 . S
C282 C284 1.356 . S
C282 H336 0.930 . S
C283 N281 1.279 . S
C283 C282 1.358 . S
C283 H287 0.930 . S
C284 C282 1.356 . S
C284 C285 1.348 . S
C285 C280 1.353 . S
C285 C284 1.348 . S
C285 H337 0.929 . S
H286 C280 0.930 . S
H287 C283 0.930 . S
C288 N289 1.314 . S
C288 C290 1.353 . S
C288 H294 0.930 . S
N289 Li265 1.990 . S
N289 C288 1.314 . S
N289 C292 1.279 . S
C290 C288 1.353 . S
C290 C293 1.348 . S
C290 H338 0.929 . S
C291 C292 1.358 . S
C291 C293 1.356 . S
C291 H339 0.930 . S
C292 N289 1.279 . S
C292 C291 1.358 . S
C292 H295 0.930 . S
C293 C290 1.348 . S
C293 C291 1.356 . S
H294 C288 0.930 . S
H295 C292 0.930 . S
C296 C298 1.348 . S
C296 C299 1.356 . S
C296 O326 1.325 . S
N297 C300 1.314 . S
N297 C301 1.279 . S
C298 C296 1.348 . S
C298 C300 1.353 . S
C298 H340 0.929 . S
C299 C296 1.356 . S
C299 C301 1.358 . S
C299 H341 0.930 . S
C300 N297 1.314 . S
C300 C298 1.353 . S
C300 H342 0.930 . S
C301 N297 1.279 . S
C301 C299 1.358 . S
C301 H343 0.930 . S
C302 C303 1.348 . S
C302 C304 1.356 . S
C302 O327 1.325 . S
C303 C302 1.348 . S
C303 C305 1.353 . S
C303 H344 0.929 . S
C304 C302 1.356 . S
C304 C306 1.358 . S
C304 H345 0.930 . S
C305 C303 1.353 . S
C305 N307 1.314 . S
C305 H346 0.930 . S
C306 C304 1.358 . S
C306 N307 1.279 . S
C306 H347 0.930 . S
N307 C305 1.314 . S
N307 C306 1.279 . S
C308 C310 1.353 . S
C308 N311 1.314 . S
C308 H314 0.930 . S
C309 N311 1.279 . S
C309 C312 1.358 . S
C309 H315 0.930 . S
C310 C308 1.353 . S
C310 C313 1.348 . S
C310 H348 0.929 . S
N311 Li266 1.990 . S
N311 C308 1.314 . S
N311 C309 1.279 . S
C312 C309 1.358 . S
C312 C313 1.356 . S
C312 H349 0.930 . S
C313 C310 1.348 . S
C313 C312 1.356 . S
H314 C308 0.930 . S
H315 C309 0.930 . S
C316 N317 1.314 . S
C316 C318 1.353 . S
C316 H322 0.930 . S
N317 Li267 1.990 . S
N317 C316 1.314 . S
N317 C320 1.279 . S
C318 C316 1.353 . S
C318 C321 1.348 . S
C318 H350 0.929 . S
C319 C320 1.358 . S
C319 C321 1.356 . S
C319 H351 0.930 . S
C320 N317 1.279 . S
C320 C319 1.358 . S
C320 H323 0.930 . S
C321 C318 1.348 . S
C321 C319 1.356 . S
H322 C316 0.930 . S
H323 C320 0.930 . S
O324 Li264 1.956 . S
O324 Li265 1.970 . S
O324 Li266 1.961 . S
O324 C268 1.325 . S
O325 Li264 1.970 . S
O325 Li265 1.956 . S
O325 Li267 1.961 . S
O325 C274 1.325 . S
O326 Li264 1.961 . S
O326 Li266 1.956 . S
O326 Li267 1.970 . S
O326 C296 1.325 . S
O327 Li265 1.961 . S
O327 Li266 1.970 . S
O327 Li267 1.956 . S
O327 C302 1.325 . S
H328 C270 0.929 . S
H329 C271 0.930 . S
H330 C272 0.930 . S
H331 C273 0.930 . S
H332 C275 0.930 . S
H333 C277 0.929 . S
H334 C278 0.930 . S
H335 C279 0.930 . S
H336 C282 0.930 . S
H337 C285 0.929 . S
H338 C290 0.929 . S
H339 C291 0.930 . S
H340 C298 0.929 . S
H341 C299 0.930 . S
H342 C300 0.930 . S
H343 C301 0.930 . S
H344 C303 0.929 . S
H345 C304 0.930 . S
H346 C305 0.930 . S
H347 C306 0.930 . S
H348 C310 0.929 . S
H349 C312 0.930 . S
H350 C318 0.929 . S
H351 C319 0.930 . S
Li352 N369 1.990 . S
Li352 O412 1.956 1_565 S
Li352 O413 1.970 . S
Li352 O414 1.961 . S
Li353 N377 1.990 . S
Li353 O412 1.979 . S
Li353 O413 1.949 1_545 S
Li353 O415 1.957 . S
Li354 N399 1.990 . S
Li354 O412 1.961 . S
Li354 O414 1.956 1_545 S
Li354 O415 1.970 . S
Li355 N405 1.990 . S
Li355 O413 1.961 . S
Li355 O414 1.970 . S
Li355 O415 1.956 1_565 S
C356 C358 1.348 . S
C356 C359 1.356 . S
C356 O412 1.325 . S
N357 C360 1.314 . S
N357 C361 1.279 . S
C358 C356 1.348 . S
C358 C360 1.353 . S
C358 H416 0.929 . S
C359 C356 1.356 . S
C359 C361 1.358 . S
C359 H417 0.930 . S
C360 N357 1.314 . S
C360 C358 1.353 . S
C360 H418 0.930 . S
C361 N357 1.279 . S
C361 C359 1.358 . S
C361 H419 0.930 . S
C362 C365 1.348 . S
C362 C366 1.356 . S
C362 O413 1.325 . S
C363 N364 1.279 . S
C363 C366 1.358 . S
C363 H420 0.930 . S
N364 C363 1.279 . S
N364 C367 1.314 . S
C365 C362 1.348 . S
C365 C367 1.353 . S
C365 H421 0.929 . S
C366 C362 1.356 . S
C366 C363 1.358 . S
C366 H422 0.930 . S
C367 N364 1.314 . S
C367 C365 1.353 . S
C367 H423 0.930 . S
C368 N369 1.314 . S
C368 C373 1.353 . S
C368 H374 0.930 . S
N369 Li352 1.990 . S
N369 C368 1.314 . S
N369 C371 1.279 1_565 S
C370 C371 1.363 1_565 S
C370 C372 1.367 . S
C370 H424 0.914 1_565 S
C371 N369 1.279 1_545 S
C371 C370 1.363 1_545 S
C371 H375 0.930 . S
C372 C370 1.367 . S
C372 C373 1.348 . S
C373 C368 1.353 . S
C373 C372 1.348 . S
C373 H425 0.929 . S
H374 C368 0.930 . S
H375 C371 0.930 . S
C376 N377 1.320 . S
C376 C378 1.353 . S
C376 H382 0.930 . S
N377 Li353 1.990 . S
N377 C376 1.320 . S
N377 C380 1.277 1_545 S
C378 C376 1.353 . S
C378 C381 1.348 . S
C378 H426 0.929 . S
C379 C380 1.358 . S
C379 C381 1.356 1_565 S
C379 H427 0.930 . S
C380 N377 1.277 1_565 S
C380 C379 1.358 . S
C380 H383 0.930 . S
C381 C378 1.348 . S
C381 C379 1.356 1_545 S
H382 C376 0.930 . S
H383 C380 0.930 . S
C384 C386 1.348 . S
C384 C387 1.356 1_565 S
C384 O414 1.325 . S
N385 C388 1.314 . S
N385 C389 1.279 1_565 S
C386 C384 1.348 . S
C386 C388 1.353 . S
C386 H428 0.929 . S
C387 C384 1.356 1_545 S
C387 C389 1.358 . S
C387 H429 0.930 . S
C388 N385 1.314 . S
C388 C386 1.353 . S
C388 H430 0.930 . S
C389 N385 1.279 1_545 S
C389 C387 1.358 . S
C389 H431 0.930 . S
C390 C391 1.348 . S
C390 C392 1.356 1_545 S
C390 O415 1.325 . S
C391 C390 1.348 . S
C391 C393 1.353 . S
C391 H432 0.929 . S
C392 C390 1.356 1_565 S
C392 C394 1.358 . S
C392 H433 0.930 . S
C393 C391 1.353 . S
C393 N395 1.314 . S
C393 H434 0.930 . S
C394 C392 1.358 . S
C394 N395 1.279 1_565 S
C394 H435 0.930 . S
N395 C393 1.314 . S
N395 C394 1.279 1_545 S
C396 C398 1.353 . S
C396 N399 1.314 . S
C396 H402 0.930 . S
C397 N399 1.279 . S
C397 C400 1.358 . S
C397 H403 0.930 . S
C398 C396 1.353 . S
C398 C401 1.348 . S
C398 H436 0.929 . S
N399 Li354 1.990 . S
N399 C396 1.314 . S
N399 C397 1.279 . S
C400 C397 1.358 . S
C400 C401 1.356 . S
C400 H437 0.930 . S
C401 C398 1.348 . S
C401 C400 1.356 . S
H402 C396 0.930 . S
H403 C397 0.930 . S
C404 N405 1.314 . S
C404 C406 1.353 . S
C404 H410 0.930 . S
N405 Li355 1.990 . S
N405 C404 1.314 . S
N405 C408 1.279 . S
C406 C404 1.353 . S
C406 C409 1.348 . S
C406 H438 0.929 . S
C407 C408 1.358 . S
C407 C409 1.356 . S
C407 H439 0.930 . S
C408 N405 1.279 . S
C408 C407 1.358 . S
C408 H411 0.930 . S
C409 C406 1.348 . S
C409 C407 1.356 . S
H410 C404 0.930 . S
H411 C408 0.930 . S
O412 Li352 1.956 1_545 S
O412 Li353 1.979 . S
O412 Li354 1.961 . S
O412 C356 1.325 . S
O413 Li352 1.970 . S
O413 Li353 1.949 1_565 S
O413 Li355 1.961 . S
O413 C362 1.325 . S
O414 Li352 1.961 . S
O414 Li354 1.956 1_565 S
O414 Li355 1.970 . S
O414 C384 1.325 . S
O415 Li353 1.957 . S
O415 Li354 1.970 . S
O415 Li355 1.956 1_545 S
O415 C390 1.325 . S
H416 C358 0.929 . S
H417 C359 0.930 . S
H418 C360 0.930 . S
H419 C361 0.930 . S
H420 C363 0.930 . S
H421 C365 0.929 . S
H422 C366 0.930 . S
H423 C367 0.930 . S
H424 C370 0.914 1_545 S
H425 C373 0.929 . S
H426 C378 0.929 . S
H427 C379 0.930 . S
H428 C386 0.929 . S
H429 C387 0.930 . S
H430 C388 0.930 . S
H431 C389 0.930 . S
H432 C391 0.929 . S
H433 C392 0.930 . S
H434 C393 0.930 . S
H435 C394 0.930 . S
H436 C398 0.929 . S
H437 C400 0.930 . S
H438 C406 0.929 . S
H439 C407 0.930 . S
Li440 N457 1.990 . S
Li440 O500 1.956 1_455 S
Li440 O501 1.970 . S
Li440 O502 1.961 . S
Li441 N465 1.990 . S
Li441 O500 1.970 . S
Li441 O501 1.956 1_655 S
Li441 O503 1.961 . S
Li442 N487 1.991 . S
Li442 O500 1.969 . S
Li442 O502 1.946 1_655 S
Li442 O503 1.976 . S
Li443 N493 1.990 . S
Li443 O501 1.961 . S
Li443 O502 1.970 . S
Li443 O503 1.956 1_455 S
C444 C446 1.348 . S
C444 C447 1.356 1_655 S
C444 O500 1.325 . S
N445 C448 1.314 . S
N445 C449 1.279 1_655 S
C446 C444 1.348 . S
C446 C448 1.353 . S
C446 H504 0.929 . S
C447 C444 1.356 1_455 S
C447 C449 1.358 . S
C447 H505 0.930 . S
C448 N445 1.314 . S
C448 C446 1.353 . S
C448 H506 0.930 . S
C449 N445 1.279 1_455 S
C449 C447 1.358 . S
C449 H507 0.930 . S
C450 C453 1.348 . S
C450 C454 1.356 1_455 S
C450 O501 1.325 . S
C451 N452 1.279 1_655 S
C451 C454 1.358 . S
C451 H508 0.930 . S
N452 C451 1.279 1_455 S
N452 C455 1.314 . S
C453 C450 1.348 . S
C453 C455 1.353 . S
C453 H509 0.929 . S
C454 C450 1.356 1_655 S
C454 C451 1.358 . S
C454 H510 0.930 . S
C455 N452 1.314 . S
C455 C453 1.353 . S
C455 H511 0.930 . S
C456 N457 1.314 . S
C456 C461 1.353 . S
C456 H462 0.930 . S
N457 Li440 1.990 . S
N457 C456 1.314 . S
N457 C459 1.279 . S
C458 C459 1.358 . S
C458 C460 1.356 . S
C458 H512 0.930 . S
C459 N457 1.279 . S
C459 C458 1.358 . S
C459 H463 0.930 . S
C460 C458 1.356 . S
C460 C461 1.348 . S
C461 C456 1.353 . S
C461 C460 1.348 . S
C461 H513 0.929 . S
H462 C456 0.930 . S
H463 C459 0.930 . S
C464 N465 1.314 . S
C464 C466 1.353 . S
C464 H470 0.930 . S
N465 Li441 1.990 . S
N465 C464 1.314 . S
N465 C468 1.279 . S
C466 C464 1.353 . S
C466 C469 1.348 . S
C466 H514 0.929 . S
C467 C468 1.358 . S
C467 C469 1.356 . S
C467 H515 0.930 . S
C468 N465 1.279 . S
C468 C467 1.358 . S
C468 H471 0.930 . S
C469 C466 1.348 . S
C469 C467 1.356 . S
H470 C464 0.930 . S
H471 C468 0.930 . S
C472 C474 1.348 . S
C472 C475 1.356 . S
C472 O502 1.325 . S
N473 C476 1.314 . S
N473 C477 1.279 . S
C474 C472 1.348 . S
C474 C476 1.353 . S
C474 H516 0.929 . S
C475 C472 1.356 . S
C475 C477 1.358 . S
C475 H517 0.930 . S
C476 N473 1.314 . S
C476 C474 1.353 . S
C476 H518 0.930 . S
C477 N473 1.279 . S
C477 C475 1.358 . S
C477 H519 0.930 . S
C478 C479 1.348 . S
C478 C480 1.356 . S
C478 O503 1.325 . S
C479 C478 1.348 . S
C479 C481 1.353 . S
C479 H520 0.929 . S
C480 C478 1.356 . S
C480 C482 1.358 . S
C480 H521 0.930 . S
C481 C479 1.353 . S
C481 N483 1.314 . S
C481 H522 0.930 . S
C482 C480 1.358 . S
C482 N483 1.279 . S
C482 H523 0.930 . S
N483 C481 1.314 . S
N483 C482 1.279 . S
C484 C486 1.353 . S
C484 N487 1.328 . S
C484 H490 0.930 . S
C485 N487 1.264 1_455 S
C485 C488 1.358 . S
C485 H491 0.930 . S
C486 C484 1.353 . S
C486 C489 1.348 . S
C486 H524 0.929 . S
N487 Li442 1.991 . S
N487 C484 1.328 . S
N487 C485 1.264 1_655 S
C488 C485 1.358 . S
C488 C489 1.356 1_455 S
C488 H525 0.930 . S
C489 C486 1.348 . S
C489 C488 1.356 1_655 S
H490 C484 0.930 . S
H491 C485 0.930 . S
C492 N493 1.314 . S
C492 C494 1.353 . S
C492 H498 0.930 . S
N493 Li443 1.990 . S
N493 C492 1.314 . S
N493 C496 1.279 1_455 S
C494 C492 1.353 . S
C494 C497 1.348 . S
C494 H526 0.929 . S
C495 C496 1.372 . S
C495 C497 1.341 1_655 S
C495 H527 0.932 . S
C496 N493 1.279 1_655 S
C496 C495 1.372 . S
C496 H499 0.930 . S
C497 C494 1.348 . S
C497 C495 1.341 1_455 S
H498 C492 0.930 . S
H499 C496 0.930 . S
O500 Li440 1.956 1_655 S
O500 Li441 1.970 . S
O500 Li442 1.969 . S
O500 C444 1.325 . S
O501 Li440 1.970 . S
O501 Li441 1.956 1_455 S
O501 Li443 1.961 . S
O501 C450 1.325 . S
O502 Li440 1.961 . S
O502 Li442 1.946 1_455 S
O502 Li443 1.970 . S
O502 C472 1.325 . S
O503 Li441 1.961 . S
O503 Li442 1.976 . S
O503 Li443 1.956 1_655 S
O503 C478 1.325 . S
H504 C446 0.929 . S
H505 C447 0.930 . S
H506 C448 0.930 . S
H507 C449 0.930 . S
H508 C451 0.930 . S
H509 C453 0.929 . S
H510 C454 0.930 . S
H511 C455 0.930 . S
H512 C458 0.930 . S
H513 C461 0.929 . S
H514 C466 0.929 . S
H515 C467 0.930 . S
H516 C474 0.929 . S
H517 C475 0.930 . S
H518 C476 0.930 . S
H519 C477 0.930 . S
H520 C479 0.929 . S
H521 C480 0.930 . S
H522 C481 0.930 . S
H523 C482 0.930 . S
H524 C486 0.929 . S
H525 C488 0.930 . S
H526 C494 0.929 . S
H527 C495 0.932 . S
Li528 N545 1.990 . S
Li528 O588 1.956 . S
Li528 O589 1.970 . S
Li528 O590 1.961 . S
Li529 N553 1.990 . S
Li529 O588 1.970 . S
Li529 O589 1.956 . S
Li529 O591 1.961 . S
Li530 N575 1.990 . S
Li530 O588 1.961 . S
Li530 O590 1.956 . S
Li530 O591 1.970 . S
Li531 N581 1.990 . S
Li531 O589 1.961 . S
Li531 O590 1.970 . S
Li531 O591 1.956 . S
C532 C534 1.348 . S
C532 C535 1.356 . S
C532 O588 1.325 . S
N533 C536 1.314 . S
N533 C537 1.279 . S
C534 C532 1.348 . S
C534 C536 1.353 . S
C534 H592 0.929 . S
C535 C532 1.356 . S
C535 C537 1.358 . S
C535 H593 0.930 . S
C536 N533 1.314 . S
C536 C534 1.353 . S
C536 H594 0.930 . S
C537 N533 1.279 . S
C537 C535 1.358 . S
C537 H595 0.930 . S
C538 C541 1.348 . S
C538 C542 1.356 . S
C538 O589 1.325 . S
C539 N540 1.279 . S
C539 C542 1.358 . S
C539 H596 0.930 . S
N540 C539 1.279 . S
N540 C543 1.314 . S
C541 C538 1.348 . S
C541 C543 1.353 . S
C541 H597 0.929 . S
C542 C538 1.356 . S
C542 C539 1.358 . S
C542 H598 0.930 . S
C543 N540 1.314 . S
C543 C541 1.353 . S
C543 H599 0.930 . S
C544 N545 1.314 . S
C544 C549 1.353 . S
C544 H550 0.930 . S
N545 Li528 1.990 . S
N545 C544 1.314 . S
N545 C547 1.279 . S
C546 C547 1.358 . S
C546 C548 1.356 . S
C546 H600 0.930 . S
C547 N545 1.279 . S
C547 C546 1.358 . S
C547 H551 0.930 . S
C548 C546 1.356 . S
C548 C549 1.348 . S
C549 C544 1.353 . S
C549 C548 1.348 . S
C549 H601 0.929 . S
H550 C544 0.930 . S
H551 C547 0.930 . S
C552 N553 1.314 . S
C552 C554 1.353 . S
C552 H558 0.930 . S
N553 Li529 1.990 . S
N553 C552 1.314 . S
N553 C556 1.279 . S
C554 C552 1.353 . S
C554 C557 1.348 . S
C554 H602 0.929 . S
C555 C556 1.358 . S
C555 C557 1.356 . S
C555 H603 0.930 . S
C556 N553 1.279 . S
C556 C555 1.358 . S
C556 H559 0.930 . S
C557 C554 1.348 . S
C557 C555 1.356 . S
H558 C552 0.930 . S
H559 C556 0.930 . S
C560 C562 1.348 . S
C560 C563 1.356 . S
C560 O590 1.325 . S
N561 C564 1.314 . S
N561 C565 1.279 . S
C562 C560 1.348 . S
C562 C564 1.353 . S
C562 H604 0.929 . S
C563 C560 1.356 . S
C563 C565 1.358 . S
C563 H605 0.930 . S
C564 N561 1.314 . S
C564 C562 1.353 . S
C564 H606 0.930 . S
C565 N561 1.279 . S
C565 C563 1.358 . S
C565 H607 0.930 . S
C566 C567 1.348 . S
C566 C568 1.356 . S
C566 O591 1.325 . S
C567 C566 1.348 . S
C567 C569 1.353 . S
C567 H608 0.929 . S
C568 C566 1.356 . S
C568 C570 1.358 . S
C568 H609 0.930 . S
C569 C567 1.353 . S
C569 N571 1.314 . S
C569 H610 0.930 . S
C570 C568 1.358 . S
C570 N571 1.279 . S
C570 H611 0.930 . S
N571 C569 1.314 . S
N571 C570 1.279 . S
C572 C574 1.353 . S
C572 N575 1.314 . S
C572 H578 0.930 . S
C573 N575 1.279 . S
C573 C576 1.358 . S
C573 H579 0.930 . S
C574 C572 1.353 . S
C574 C577 1.348 . S
C574 H612 0.929 . S
N575 Li530 1.990 . S
N575 C572 1.314 . S
N575 C573 1.279 . S
C576 C573 1.358 . S
C576 C577 1.356 . S
C576 H613 0.930 . S
C577 C574 1.348 . S
C577 C576 1.356 . S
H578 C572 0.930 . S
H579 C573 0.930 . S
C580 N581 1.314 . S
C580 C582 1.353 . S
C580 H586 0.930 . S
N581 Li531 1.990 . S
N581 C580 1.314 . S
N581 C584 1.279 . S
C582 C580 1.353 . S
C582 C585 1.348 . S
C582 H614 0.929 . S
C583 C584 1.358 . S
C583 C585 1.356 . S
C583 H615 0.930 . S
C584 N581 1.279 . S
C584 C583 1.358 . S
C584 H587 0.930 . S
C585 C582 1.348 . S
C585 C583 1.356 . S
H586 C580 0.930 . S
H587 C584 0.930 . S
O588 Li528 1.956 . S
O588 Li529 1.970 . S
O588 Li530 1.961 . S
O588 C532 1.325 . S
O589 Li528 1.970 . S
O589 Li529 1.956 . S
O589 Li531 1.961 . S
O589 C538 1.325 . S
O590 Li528 1.961 . S
O590 Li530 1.956 . S
O590 Li531 1.970 . S
O590 C560 1.325 . S
O591 Li529 1.961 . S
O591 Li530 1.970 . S
O591 Li531 1.956 . S
O591 C566 1.325 . S
H592 C534 0.929 . S
H593 C535 0.930 . S
H594 C536 0.930 . S
H595 C537 0.930 . S
H596 C539 0.930 . S
H597 C541 0.929 . S
H598 C542 0.930 . S
H599 C543 0.930 . S
H600 C546 0.930 . S
H601 C549 0.929 . S
H602 C554 0.929 . S
H603 C555 0.930 . S
H604 C562 0.929 . S
H605 C563 0.930 . S
H606 C564 0.930 . S
H607 C565 0.930 . S
H608 C567 0.929 . S
H609 C568 0.930 . S
H610 C569 0.930 . S
H611 C570 0.930 . S
H612 C574 0.929 . S
H613 C576 0.930 . S
H614 C582 0.929 . S
H615 C583 0.930 . S
Li616 N633 1.990 . S
Li616 O676 1.956 . S
Li616 O677 1.970 . S
Li616 O678 1.961 . S
Li617 N641 1.990 . S
Li617 O676 1.970 . S
Li617 O677 1.956 . S
Li617 O679 1.961 . S
Li618 N663 1.990 . S
Li618 O676 1.961 . S
Li618 O678 1.956 . S
Li618 O679 1.970 . S
Li619 N669 1.990 . S
Li619 O677 1.961 . S
Li619 O678 1.970 . S
Li619 O679 1.956 . S
C620 C622 1.348 . S
C620 C623 1.356 . S
C620 O676 1.325 . S
N621 C624 1.314 . S
N621 C625 1.279 . S
C622 C620 1.348 . S
C622 C624 1.353 . S
C622 H680 0.929 . S
C623 C620 1.356 . S
C623 C625 1.358 . S
C623 H681 0.930 . S
C624 N621 1.314 . S
C624 C622 1.353 . S
C624 H682 0.930 . S
C625 N621 1.279 . S
C625 C623 1.358 . S
C625 H683 0.930 . S
C626 C629 1.348 . S
C626 C630 1.356 . S
C626 O677 1.325 . S
C627 N628 1.279 . S
C627 C630 1.358 . S
C627 H684 0.930 . S
N628 C627 1.279 . S
N628 C631 1.314 . S
C629 C626 1.348 . S
C629 C631 1.353 . S
C629 H685 0.929 . S
C630 C626 1.356 . S
C630 C627 1.358 . S
C630 H686 0.930 . S
C631 N628 1.314 . S
C631 C629 1.353 . S
C631 H687 0.930 . S
C632 N633 1.314 . S
C632 C637 1.353 . S
C632 H638 0.930 . S
N633 Li616 1.990 . S
N633 C632 1.314 . S
N633 C635 1.279 . S
C634 C635 1.358 . S
C634 C636 1.356 . S
C634 H688 0.930 . S
C635 N633 1.279 . S
C635 C634 1.358 . S
C635 H639 0.930 . S
C636 C634 1.356 . S
C636 C637 1.348 . S
C637 C632 1.353 . S
C637 C636 1.348 . S
C637 H689 0.929 . S
H638 C632 0.930 . S
H639 C635 0.930 . S
C640 N641 1.314 . S
C640 C642 1.353 . S
C640 H646 0.930 . S
N641 Li617 1.990 . S
N641 C640 1.314 . S
N641 C644 1.279 . S
C642 C640 1.353 . S
C642 C645 1.348 . S
C642 H690 0.929 . S
C643 C644 1.358 . S
C643 C645 1.356 . S
C643 H691 0.930 . S
C644 N641 1.279 . S
C644 C643 1.358 . S
C644 H647 0.930 . S
C645 C642 1.348 . S
C645 C643 1.356 . S
H646 C640 0.930 . S
H647 C644 0.930 . S
C648 C650 1.348 . S
C648 C651 1.356 . S
C648 O678 1.325 . S
N649 C652 1.314 . S
N649 C653 1.279 . S
C650 C648 1.348 . S
C650 C652 1.353 . S
C650 H692 0.929 . S
C651 C648 1.356 . S
C651 C653 1.358 . S
C651 H693 0.930 . S
C652 N649 1.314 . S
C652 C650 1.353 . S
C652 H694 0.930 . S
C653 N649 1.279 . S
C653 C651 1.358 . S
C653 H695 0.930 . S
C654 C655 1.348 . S
C654 C656 1.356 . S
C654 O679 1.325 . S
C655 C654 1.348 . S
C655 C657 1.353 . S
C655 H696 0.929 . S
C656 C654 1.356 . S
C656 C658 1.358 . S
C656 H697 0.930 . S
C657 C655 1.353 . S
C657 N659 1.314 . S
C657 H698 0.930 . S
C658 C656 1.358 . S
C658 N659 1.279 . S
C658 H699 0.930 . S
N659 C657 1.314 . S
N659 C658 1.279 . S
C660 C662 1.353 . S
C660 N663 1.314 . S
C660 H666 0.930 . S
C661 N663 1.279 . S
C661 C664 1.358 . S
C661 H667 0.930 . S
C662 C660 1.353 . S
C662 C665 1.348 . S
C662 H700 0.929 . S
N663 Li618 1.990 . S
N663 C660 1.314 . S
N663 C661 1.279 . S
C664 C661 1.358 . S
C664 C665 1.356 . S
C664 H701 0.930 . S
C665 C662 1.348 . S
C665 C664 1.356 . S
H666 C660 0.930 . S
H667 C661 0.930 . S
C668 N669 1.314 . S
C668 C670 1.353 . S
C668 H674 0.930 . S
N669 Li619 1.990 . S
N669 C668 1.314 . S
N669 C672 1.279 . S
C670 C668 1.353 . S
C670 C673 1.348 . S
C670 H702 0.929 . S
C671 C672 1.358 . S
C671 C673 1.356 . S
C671 H703 0.930 . S
C672 N669 1.279 . S
C672 C671 1.358 . S
C672 H675 0.930 . S
C673 C670 1.348 . S
C673 C671 1.356 . S
H674 C668 0.930 . S
H675 C672 0.930 . S
O676 Li616 1.956 . S
O676 Li617 1.970 . S
O676 Li618 1.961 . S
O676 C620 1.325 . S
O677 Li616 1.970 . S
O677 Li617 1.956 . S
O677 Li619 1.961 . S
O677 C626 1.325 . S
O678 Li616 1.961 . S
O678 Li618 1.956 . S
O678 Li619 1.970 . S
O678 C648 1.325 . S
O679 Li617 1.961 . S
O679 Li618 1.970 . S
O679 Li619 1.956 . S
O679 C654 1.325 . S
H680 C622 0.929 . S
H681 C623 0.930 . S
H682 C624 0.930 . S
H683 C625 0.930 . S
H684 C627 0.930 . S
H685 C629 0.929 . S
H686 C630 0.930 . S
H687 C631 0.930 . S
H688 C634 0.930 . S
H689 C637 0.929 . S
H690 C642 0.929 . S
H691 C643 0.930 . S
H692 C650 0.929 . S
H693 C651 0.930 . S
H694 C652 0.930 . S
H695 C653 0.930 . S
H696 C655 0.929 . S
H697 C656 0.930 . S
H698 C657 0.930 . S
H699 C658 0.930 . S
H700 C662 0.929 . S
H701 C664 0.930 . S
H702 C670 0.929 . S
H703 C671 0.930 . S
Li704 N721 1.990 . S
Li704 O764 1.956 . S
Li704 O765 1.970 . S
Li704 O766 1.961 . S
Li705 N729 1.990 . S
Li705 O764 1.970 . S
Li705 O765 1.956 . S
Li705 O767 1.961 . S
Li706 N751 1.990 . S
Li706 O764 1.961 . S
Li706 O766 1.956 . S
Li706 O767 1.970 . S
Li707 N757 1.990 . S
Li707 O765 1.961 . S
Li707 O766 1.970 . S
Li707 O767 1.956 . S
C708 C710 1.348 . S
C708 C711 1.356 . S
C708 O764 1.325 . S
N709 C712 1.314 . S
N709 C713 1.279 . S
C710 C708 1.348 . S
C710 C712 1.353 . S
C710 H768 0.929 . S
C711 C708 1.356 . S
C711 C713 1.358 . S
C711 H769 0.930 . S
C712 N709 1.314 . S
C712 C710 1.353 . S
C712 H770 0.930 . S
C713 N709 1.279 . S
C713 C711 1.358 . S
C713 H771 0.930 . S
C714 C717 1.348 . S
C714 C718 1.356 . S
C714 O765 1.325 . S
C715 N716 1.279 . S
C715 C718 1.358 . S
C715 H772 0.930 . S
N716 C715 1.279 . S
N716 C719 1.314 . S
C717 C714 1.348 . S
C717 C719 1.353 . S
C717 H773 0.929 . S
C718 C714 1.356 . S
C718 C715 1.358 . S
C718 H774 0.930 . S
C719 N716 1.314 . S
C719 C717 1.353 . S
C719 H775 0.930 . S
C720 N721 1.314 . S
C720 C725 1.353 . S
C720 H726 0.930 . S
N721 Li704 1.990 . S
N721 C720 1.314 . S
N721 C723 1.279 . S
C722 C723 1.358 . S
C722 C724 1.356 . S
C722 H776 0.930 . S
C723 N721 1.279 . S
C723 C722 1.358 . S
C723 H727 0.930 . S
C724 C722 1.356 . S
C724 C725 1.348 . S
C725 C720 1.353 . S
C725 C724 1.348 . S
C725 H777 0.929 . S
H726 C720 0.930 . S
H727 C723 0.930 . S
C728 N729 1.314 . S
C728 C730 1.353 . S
C728 H734 0.930 . S
N729 Li705 1.990 . S
N729 C728 1.314 . S
N729 C732 1.279 . S
C730 C728 1.353 . S
C730 C733 1.348 . S
C730 H778 0.929 . S
C731 C732 1.358 . S
C731 C733 1.356 . S
C731 H779 0.930 . S
C732 N729 1.279 . S
C732 C731 1.358 . S
C732 H735 0.930 . S
C733 C730 1.348 . S
C733 C731 1.356 . S
H734 C728 0.930 . S
H735 C732 0.930 . S
C736 C738 1.348 . S
C736 C739 1.356 . S
C736 O766 1.325 . S
N737 C740 1.314 . S
N737 C741 1.279 . S
C738 C736 1.348 . S
C738 C740 1.353 . S
C738 H780 0.929 . S
C739 C736 1.356 . S
C739 C741 1.358 . S
C739 H781 0.930 . S
C740 N737 1.314 . S
C740 C738 1.353 . S
C740 H782 0.930 . S
C741 N737 1.279 . S
C741 C739 1.358 . S
C741 H783 0.930 . S
C742 C743 1.348 . S
C742 C744 1.356 . S
C742 O767 1.325 . S
C743 C742 1.348 . S
C743 C745 1.353 . S
C743 H784 0.929 . S
C744 C742 1.356 . S
C744 C746 1.358 . S
C744 H785 0.930 . S
C745 C743 1.353 . S
C745 N747 1.314 . S
C745 H786 0.930 . S
C746 C744 1.358 . S
C746 N747 1.279 . S
C746 H787 0.930 . S
N747 C745 1.314 . S
N747 C746 1.279 . S
C748 C750 1.353 . S
C748 N751 1.314 . S
C748 H754 0.930 . S
C749 N751 1.279 . S
C749 C752 1.358 . S
C749 H755 0.930 . S
C750 C748 1.353 . S
C750 C753 1.348 . S
C750 H788 0.929 . S
N751 Li706 1.990 . S
N751 C748 1.314 . S
N751 C749 1.279 . S
C752 C749 1.358 . S
C752 C753 1.356 . S
C752 H789 0.930 . S
C753 C750 1.348 . S
C753 C752 1.356 . S
H754 C748 0.930 . S
H755 C749 0.930 . S
C756 N757 1.314 . S
C756 C758 1.353 . S
C756 H762 0.930 . S
N757 Li707 1.990 . S
N757 C756 1.314 . S
N757 C760 1.279 . S
C758 C756 1.353 . S
C758 C761 1.348 . S
C758 H790 0.929 . S
C759 C760 1.358 . S
C759 C761 1.356 . S
C759 H791 0.930 . S
C760 N757 1.279 . S
C760 C759 1.358 . S
C760 H763 0.930 . S
C761 C758 1.348 . S
C761 C759 1.356 . S
H762 C756 0.930 . S
H763 C760 0.930 . S
O764 Li704 1.956 . S
O764 Li705 1.970 . S
O764 Li706 1.961 . S
O764 C708 1.325 . S
O765 Li704 1.970 . S
O765 Li705 1.956 . S
O765 Li707 1.961 . S
O765 C714 1.325 . S
O766 Li704 1.961 . S
O766 Li706 1.956 . S
O766 Li707 1.970 . S
O766 C736 1.325 . S
O767 Li705 1.961 . S
O767 Li706 1.970 . S
O767 Li707 1.956 . S
O767 C742 1.325 . S
H768 C710 0.929 . S
H769 C711 0.930 . S
H770 C712 0.930 . S
H771 C713 0.930 . S
H772 C715 0.930 . S
H773 C717 0.929 . S
H774 C718 0.930 . S
H775 C719 0.930 . S
H776 C722 0.930 . S
H777 C725 0.929 . S
H778 C730 0.929 . S
H779 C731 0.930 . S
H780 C738 0.929 . S
H781 C739 0.930 . S
H782 C740 0.930 . S
H783 C741 0.930 . S
H784 C743 0.929 . S
H785 C744 0.930 . S
H786 C745 0.930 . S
H787 C746 0.930 . S
H788 C750 0.929 . S
H789 C752 0.930 . S
H790 C758 0.929 . S
H791 C759 0.930 . S
Li792 N809 1.990 . S
Li792 O852 1.956 . S
Li792 O853 1.970 . S
Li792 O854 1.961 . S
Li793 N817 1.990 . S
Li793 O852 1.970 . S
Li793 O853 1.956 . S
Li793 O855 1.961 . S
Li794 N839 1.990 . S
Li794 O852 1.961 . S
Li794 O854 1.956 . S
Li794 O855 1.970 . S
Li795 N845 1.990 . S
Li795 O853 1.961 . S
Li795 O854 1.970 . S
Li795 O855 1.956 . S
C796 C798 1.348 . S
C796 C799 1.356 . S
C796 O852 1.325 . S
N797 C800 1.314 . S
N797 C801 1.279 . S
C798 C796 1.348 . S
C798 C800 1.353 . S
C798 H856 0.929 . S
C799 C796 1.356 . S
C799 C801 1.358 . S
C799 H857 0.930 . S
C800 N797 1.314 . S
C800 C798 1.353 . S
C800 H858 0.930 . S
C801 N797 1.279 . S
C801 C799 1.358 . S
C801 H859 0.930 . S
C802 C805 1.348 . S
C802 C806 1.356 . S
C802 O853 1.325 . S
C803 N804 1.279 . S
C803 C806 1.358 . S
C803 H860 0.930 . S
N804 C803 1.279 . S
N804 C807 1.314 . S
C805 C802 1.348 . S
C805 C807 1.353 . S
C805 H861 0.929 . S
C806 C802 1.356 . S
C806 C803 1.358 . S
C806 H862 0.930 . S
C807 N804 1.314 . S
C807 C805 1.353 . S
C807 H863 0.930 . S
C808 N809 1.314 . S
C808 C813 1.353 . S
C808 H814 0.930 . S
N809 Li792 1.990 . S
N809 C808 1.314 . S
N809 C811 1.279 . S
C810 C811 1.358 . S
C810 C812 1.356 . S
C810 H864 0.930 . S
C811 N809 1.279 . S
C811 C810 1.358 . S
C811 H815 0.930 . S
C812 C810 1.356 . S
C812 C813 1.348 . S
C813 C808 1.353 . S
C813 C812 1.348 . S
C813 H865 0.929 . S
H814 C808 0.930 . S
H815 C811 0.930 . S
C816 N817 1.314 . S
C816 C818 1.353 . S
C816 H822 0.930 . S
N817 Li793 1.990 . S
N817 C816 1.314 . S
N817 C820 1.279 . S
C818 C816 1.353 . S
C818 C821 1.348 . S
C818 H866 0.929 . S
C819 C820 1.358 . S
C819 C821 1.356 . S
C819 H867 0.930 . S
C820 N817 1.279 . S
C820 C819 1.358 . S
C820 H823 0.930 . S
C821 C818 1.348 . S
C821 C819 1.356 . S
H822 C816 0.930 . S
H823 C820 0.930 . S
C824 C826 1.348 . S
C824 C827 1.356 . S
C824 O854 1.325 . S
N825 C828 1.314 . S
N825 C829 1.279 . S
C826 C824 1.348 . S
C826 C828 1.353 . S
C826 H868 0.929 . S
C827 C824 1.356 . S
C827 C829 1.358 . S
C827 H869 0.930 . S
C828 N825 1.314 . S
C828 C826 1.353 . S
C828 H870 0.930 . S
C829 N825 1.279 . S
C829 C827 1.358 . S
C829 H871 0.930 . S
C830 C831 1.348 . S
C830 C832 1.356 . S
C830 O855 1.325 . S
C831 C830 1.348 . S
C831 C833 1.353 . S
C831 H872 0.929 . S
C832 C830 1.356 . S
C832 C834 1.358 . S
C832 H873 0.930 . S
C833 C831 1.353 . S
C833 N835 1.314 . S
C833 H874 0.930 . S
C834 C832 1.358 . S
C834 N835 1.279 . S
C834 H875 0.930 . S
N835 C833 1.314 . S
N835 C834 1.279 . S
C836 C838 1.353 . S
C836 N839 1.314 . S
C836 H842 0.930 . S
C837 N839 1.279 . S
C837 C840 1.358 . S
C837 H843 0.930 . S
C838 C836 1.353 . S
C838 C841 1.348 . S
C838 H876 0.929 . S
N839 Li794 1.990 . S
N839 C836 1.314 . S
N839 C837 1.279 . S
C840 C837 1.358 . S
C840 C841 1.356 . S
C840 H877 0.930 . S
C841 C838 1.348 . S
C841 C840 1.356 . S
H842 C836 0.930 . S
H843 C837 0.930 . S
C844 N845 1.314 . S
C844 C846 1.353 . S
C844 H850 0.930 . S
N845 Li795 1.990 . S
N845 C844 1.314 . S
N845 C848 1.279 . S
C846 C844 1.353 . S
C846 C849 1.348 . S
C846 H878 0.929 . S
C847 C848 1.358 . S
C847 C849 1.356 . S
C847 H879 0.930 . S
C848 N845 1.279 . S
C848 C847 1.358 . S
C848 H851 0.930 . S
C849 C846 1.348 . S
C849 C847 1.356 . S
H850 C844 0.930 . S
H851 C848 0.930 . S
O852 Li792 1.956 . S
O852 Li793 1.970 . S
O852 Li794 1.961 . S
O852 C796 1.325 . S
O853 Li792 1.970 . S
O853 Li793 1.956 . S
O853 Li795 1.961 . S
O853 C802 1.325 . S
O854 Li792 1.961 . S
O854 Li794 1.956 . S
O854 Li795 1.970 . S
O854 C824 1.325 . S
O855 Li793 1.961 . S
O855 Li794 1.970 . S
O855 Li795 1.956 . S
O855 C830 1.325 . S
H856 C798 0.929 . S
H857 C799 0.930 . S
H858 C800 0.930 . S
H859 C801 0.930 . S
H860 C803 0.930 . S
H861 C805 0.929 . S
H862 C806 0.930 . S
H863 C807 0.930 . S
H864 C810 0.930 . S
H865 C813 0.929 . S
H866 C818 0.929 . S
H867 C819 0.930 . S
H868 C826 0.929 . S
H869 C827 0.930 . S
H870 C828 0.930 . S
H871 C829 0.930 . S
H872 C831 0.929 . S
H873 C832 0.930 . S
H874 C833 0.930 . S
H875 C834 0.930 . S
H876 C838 0.929 . S
H877 C840 0.930 . S
H878 C846 0.929 . S
H879 C847 0.930 . S
Li880 N897 1.990 . S
Li880 O940 1.956 . S
Li880 O941 1.970 . S
Li880 O942 1.961 . S
Li881 N905 1.990 . S
Li881 O940 1.970 . S
Li881 O941 1.956 . S
Li881 O943 1.961 . S
Li882 N927 1.990 . S
Li882 O940 1.961 . S
Li882 O942 1.956 . S
Li882 O943 1.970 . S
Li883 N933 1.990 . S
Li883 O941 1.961 . S
Li883 O942 1.970 . S
Li883 O943 1.956 . S
C884 C886 1.348 . S
C884 C887 1.356 . S
C884 O940 1.325 . S
N885 C888 1.314 . S
N885 C889 1.279 . S
C886 C884 1.348 . S
C886 C888 1.353 . S
C886 H944 0.929 . S
C887 C884 1.356 . S
C887 C889 1.358 . S
C887 H945 0.930 . S
C888 N885 1.314 . S
C888 C886 1.353 . S
C888 H946 0.930 . S
C889 N885 1.279 . S
C889 C887 1.358 . S
C889 H947 0.930 . S
C890 C893 1.348 . S
C890 C894 1.356 . S
C890 O941 1.325 . S
C891 N892 1.279 . S
C891 C894 1.358 . S
C891 H948 0.930 . S
N892 C891 1.279 . S
N892 C895 1.314 . S
C893 C890 1.348 . S
C893 C895 1.353 . S
C893 H949 0.929 . S
C894 C890 1.356 . S
C894 C891 1.358 . S
C894 H950 0.930 . S
C895 N892 1.314 . S
C895 C893 1.353 . S
C895 H951 0.930 . S
C896 N897 1.314 . S
C896 C901 1.353 . S
C896 H902 0.930 . S
N897 Li880 1.990 . S
N897 C896 1.314 . S
N897 C899 1.279 . S
C898 C899 1.358 . S
C898 C900 1.356 . S
C898 H952 0.930 . S
C899 N897 1.279 . S
C899 C898 1.358 . S
C899 H903 0.930 . S
C900 C898 1.356 . S
C900 C901 1.348 . S
C901 C896 1.353 . S
C901 C900 1.348 . S
C901 H953 0.929 . S
H902 C896 0.930 . S
H903 C899 0.930 . S
C904 N905 1.314 . S
C904 C906 1.353 . S
C904 H910 0.930 . S
N905 Li881 1.990 . S
N905 C904 1.314 . S
N905 C908 1.279 . S
C906 C904 1.353 . S
C906 C909 1.348 . S
C906 H954 0.929 . S
C907 C908 1.358 . S
C907 C909 1.356 . S
C907 H955 0.930 . S
C908 N905 1.279 . S
C908 C907 1.358 . S
C908 H911 0.930 . S
C909 C906 1.348 . S
C909 C907 1.356 . S
H910 C904 0.930 . S
H911 C908 0.930 . S
C912 C914 1.348 . S
C912 C915 1.356 . S
C912 O942 1.325 . S
N913 C916 1.314 . S
N913 C917 1.279 . S
C914 C912 1.348 . S
C914 C916 1.353 . S
C914 H956 0.929 . S
C915 C912 1.356 . S
C915 C917 1.358 . S
C915 H957 0.930 . S
C916 N913 1.314 . S
C916 C914 1.353 . S
C916 H958 0.930 . S
C917 N913 1.279 . S
C917 C915 1.358 . S
C917 H959 0.930 . S
C918 C919 1.348 . S
C918 C920 1.356 . S
C918 O943 1.325 . S
C919 C918 1.348 . S
C919 C921 1.353 . S
C919 H960 0.929 . S
C920 C918 1.356 . S
C920 C922 1.358 . S
C920 H961 0.930 . S
C921 C919 1.353 . S
C921 N923 1.314 . S
C921 H962 0.930 . S
C922 C920 1.358 . S
C922 N923 1.279 . S
C922 H963 0.930 . S
N923 C921 1.314 . S
N923 C922 1.279 . S
C924 C926 1.353 . S
C924 N927 1.314 . S
C924 H930 0.930 . S
C925 N927 1.279 . S
C925 C928 1.358 . S
C925 H931 0.930 . S
C926 C924 1.353 . S
C926 C929 1.348 . S
C926 H964 0.929 . S
N927 Li882 1.990 . S
N927 C924 1.314 . S
N927 C925 1.279 . S
C928 C925 1.358 . S
C928 C929 1.356 . S
C928 H965 0.930 . S
C929 C926 1.348 . S
C929 C928 1.356 . S
H930 C924 0.930 . S
H931 C925 0.930 . S
C932 N933 1.314 . S
C932 C934 1.353 . S
C932 H938 0.930 . S
N933 Li883 1.990 . S
N933 C932 1.314 . S
N933 C936 1.279 . S
C934 C932 1.353 . S
C934 C937 1.348 . S
C934 H966 0.929 . S
C935 C936 1.358 . S
C935 C937 1.356 . S
C935 H967 0.930 . S
C936 N933 1.279 . S
C936 C935 1.358 . S
C936 H939 0.930 . S
C937 C934 1.348 . S
C937 C935 1.356 . S
H938 C932 0.930 . S
H939 C936 0.930 . S
O940 Li880 1.956 . S
O940 Li881 1.970 . S
O940 Li882 1.961 . S
O940 C884 1.325 . S
O941 Li880 1.970 . S
O941 Li881 1.956 . S
O941 Li883 1.961 . S
O941 C890 1.325 . S
O942 Li880 1.961 . S
O942 Li882 1.956 . S
O942 Li883 1.970 . S
O942 C912 1.325 . S
O943 Li881 1.961 . S
O943 Li882 1.970 . S
O943 Li883 1.956 . S
O943 C918 1.325 . S
H944 C886 0.929 . S
H945 C887 0.930 . S
H946 C888 0.930 . S
H947 C889 0.930 . S
H948 C891 0.930 . S
H949 C893 0.929 . S
H950 C894 0.930 . S
H951 C895 0.930 . S
H952 C898 0.930 . S
H953 C901 0.929 . S
H954 C906 0.929 . S
H955 C907 0.930 . S
H956 C914 0.929 . S
H957 C915 0.930 . S
H958 C916 0.930 . S
H959 C917 0.930 . S
H960 C919 0.929 . S
H961 C920 0.930 . S
H962 C921 0.930 . S
H963 C922 0.930 . S
H964 C926 0.929 . S
H965 C928 0.930 . S
H966 C934 0.929 . S
H967 C935 0.930 . S
Li968 N985 1.990 . S
Li968 O1028 1.956 . S
Li968 O1029 1.970 . S
Li968 O1030 1.961 . S
Li969 N993 1.990 . S
Li969 O1028 1.970 . S
Li969 O1029 1.956 . S
Li969 O1031 1.961 . S
Li970 N1015 1.990 . S
Li970 O1028 1.961 . S
Li970 O1030 1.956 . S
Li970 O1031 1.970 . S
Li971 N1021 1.990 . S
Li971 O1029 1.961 . S
Li971 O1030 1.970 . S
Li971 O1031 1.956 . S
C972 C974 1.348 . S
C972 C975 1.356 . S
C972 O1028 1.325 . S
N973 C976 1.314 . S
N973 C977 1.279 . S
C974 C972 1.348 . S
C974 C976 1.353 . S
C974 H1032 0.929 . S
C975 C972 1.356 . S
C975 C977 1.358 . S
C975 H1033 0.930 . S
C976 N973 1.314 . S
C976 C974 1.353 . S
C976 H1034 0.930 . S
C977 N973 1.279 . S
C977 C975 1.358 . S
C977 H1035 0.930 . S
C978 C981 1.348 . S
C978 C982 1.356 . S
C978 O1029 1.325 . S
C979 N980 1.279 . S
C979 C982 1.358 . S
C979 H1036 0.930 . S
N980 C979 1.279 . S
N980 C983 1.314 . S
C981 C978 1.348 . S
C981 C983 1.353 . S
C981 H1037 0.929 . S
C982 C978 1.356 . S
C982 C979 1.358 . S
C982 H1038 0.930 . S
C983 N980 1.314 . S
C983 C981 1.353 . S
C983 H1039 0.930 . S
C984 N985 1.314 . S
C984 C989 1.353 . S
C984 H990 0.930 . S
N985 Li968 1.990 . S
N985 C984 1.314 . S
N985 C987 1.279 . S
C986 C987 1.358 . S
C986 C988 1.356 . S
C986 H1040 0.930 . S
C987 N985 1.279 . S
C987 C986 1.358 . S
C987 H991 0.930 . S
C988 C986 1.356 . S
C988 C989 1.348 . S
C989 C984 1.353 . S
C989 C988 1.348 . S
C989 H1041 0.929 . S
H990 C984 0.930 . S
H991 C987 0.930 . S
C992 N993 1.314 . S
C992 C994 1.353 . S
C992 H998 0.930 . S
N993 Li969 1.990 . S
N993 C992 1.314 . S
N993 C996 1.279 . S
C994 C992 1.353 . S
C994 C997 1.348 . S
C994 H1042 0.929 . S
C995 C996 1.358 . S
C995 C997 1.356 . S
C995 H1043 0.930 . S
C996 N993 1.279 . S
C996 C995 1.358 . S
C996 H999 0.930 . S
C997 C994 1.348 . S
C997 C995 1.356 . S
H998 C992 0.930 . S
H999 C996 0.930 . S
C1000 C1002 1.348 . S
C1000 C1003 1.356 . S
C1000 O1030 1.325 . S
N1001 C1004 1.314 . S
N1001 C1005 1.279 . S
C1002 C1000 1.348 . S
C1002 C1004 1.353 . S
C1002 H1044 0.929 . S
C1003 C1000 1.356 . S
C1003 C1005 1.358 . S
C1003 H1045 0.930 . S
C1004 N1001 1.314 . S
C1004 C1002 1.353 . S
C1004 H1046 0.930 . S
C1005 N1001 1.279 . S
C1005 C1003 1.358 . S
C1005 H1047 0.930 . S
C1006 C1007 1.348 . S
C1006 C1008 1.356 . S
C1006 O1031 1.325 . S
C1007 C1006 1.348 . S
C1007 C1009 1.353 . S
C1007 H1048 0.929 . S
C1008 C1006 1.356 . S
C1008 C1010 1.358 . S
C1008 H1049 0.930 . S
C1009 C1007 1.353 . S
C1009 N1011 1.314 . S
C1009 H1050 0.930 . S
C1010 C1008 1.358 . S
C1010 N1011 1.279 . S
C1010 H1051 0.930 . S
N1011 C1009 1.314 . S
N1011 C1010 1.279 . S
C1012 C1014 1.353 . S
C1012 N1015 1.314 . S
C1012 H1018 0.930 . S
C1013 N1015 1.279 . S
C1013 C1016 1.358 . S
C1013 H1019 0.930 . S
C1014 C1012 1.353 . S
C1014 C1017 1.348 . S
C1014 H1052 0.929 . S
N1015 Li970 1.990 . S
N1015 C1012 1.314 . S
N1015 C1013 1.279 . S
C1016 C1013 1.358 . S
C1016 C1017 1.356 . S
C1016 H1053 0.930 . S
C1017 C1014 1.348 . S
C1017 C1016 1.356 . S
H1018 C1012 0.930 . S
H1019 C1013 0.930 . S
C1020 N1021 1.314 . S
C1020 C1022 1.353 . S
C1020 H1026 0.930 . S
N1021 Li971 1.990 . S
N1021 C1020 1.314 . S
N1021 C1024 1.279 . S
C1022 C1020 1.353 . S
C1022 C1025 1.348 . S
C1022 H1054 0.929 . S
C1023 C1024 1.358 . S
C1023 C1025 1.356 . S
C1023 H1055 0.930 . S
C1024 N1021 1.279 . S
C1024 C1023 1.358 . S
C1024 H1027 0.930 . S
C1025 C1022 1.348 . S
C1025 C1023 1.356 . S
H1026 C1020 0.930 . S
H1027 C1024 0.930 . S
O1028 Li968 1.956 . S
O1028 Li969 1.970 . S
O1028 Li970 1.961 . S
O1028 C972 1.325 . S
O1029 Li968 1.970 . S
O1029 Li969 1.956 . S
O1029 Li971 1.961 . S
O1029 C978 1.325 . S
O1030 Li968 1.961 . S
O1030 Li970 1.956 . S
O1030 Li971 1.970 . S
O1030 C1000 1.325 . S
O1031 Li969 1.961 . S
O1031 Li970 1.970 . S
O1031 Li971 1.956 . S
O1031 C1006 1.325 . S
H1032 C974 0.929 . S
H1033 C975 0.930 . S
H1034 C976 0.930 . S
H1035 C977 0.930 . S
H1036 C979 0.930 . S
H1037 C981 0.929 . S
H1038 C982 0.930 . S
H1039 C983 0.930 . S
H1040 C986 0.930 . S
H1041 C989 0.929 . S
H1042 C994 0.929 . S
H1043 C995 0.930 . S
H1044 C1002 0.929 . S
H1045 C1003 0.930 . S
H1046 C1004 0.930 . S
H1047 C1005 0.930 . S
H1048 C1007 0.929 . S
H1049 C1008 0.930 . S
H1050 C1009 0.930 . S
H1051 C1010 0.930 . S
H1052 C1014 0.929 . S
H1053 C1016 0.930 . S
H1054 C1022 0.929 . S
H1055 C1023 0.930 . S
Li1056 N1073 1.990 . S
Li1056 O1116 1.956 . S
Li1056 O1117 1.970 . S
Li1056 O1118 1.961 . S
Li1057 N1081 1.990 . S
Li1057 O1116 1.970 . S
Li1057 O1117 1.956 . S
Li1057 O1119 1.961 . S
Li1058 N1103 1.990 . S
Li1058 O1116 1.961 . S
Li1058 O1118 1.956 . S
Li1058 O1119 1.970 . S
Li1059 N1109 1.990 . S
Li1059 O1117 1.961 . S
Li1059 O1118 1.970 . S
Li1059 O1119 1.956 . S
C1060 C1062 1.348 . S
C1060 C1063 1.356 . S
C1060 O1116 1.325 . S
N1061 C1064 1.314 . S
N1061 C1065 1.279 . S
C1062 C1060 1.348 . S
C1062 C1064 1.353 . S
C1062 H1120 0.929 . S
C1063 C1060 1.356 . S
C1063 C1065 1.358 . S
C1063 H1121 0.930 . S
C1064 N1061 1.314 . S
C1064 C1062 1.353 . S
C1064 H1122 0.930 . S
C1065 N1061 1.279 . S
C1065 C1063 1.358 . S
C1065 H1123 0.930 . S
C1066 C1069 1.348 . S
C1066 C1070 1.356 . S
C1066 O1117 1.325 . S
C1067 N1068 1.279 . S
C1067 C1070 1.358 . S
C1067 H1124 0.930 . S
N1068 C1067 1.279 . S
N1068 C1071 1.314 . S
C1069 C1066 1.348 . S
C1069 C1071 1.353 . S
C1069 H1125 0.929 . S
C1070 C1066 1.356 . S
C1070 C1067 1.358 . S
C1070 H1126 0.930 . S
C1071 N1068 1.314 . S
C1071 C1069 1.353 . S
C1071 H1127 0.930 . S
C1072 N1073 1.314 . S
C1072 C1077 1.353 . S
C1072 H1078 0.930 . S
N1073 Li1056 1.990 . S
N1073 C1072 1.314 . S
N1073 C1075 1.279 . S
C1074 C1075 1.358 . S
C1074 C1076 1.356 . S
C1074 H1128 0.930 . S
C1075 N1073 1.279 . S
C1075 C1074 1.358 . S
C1075 H1079 0.930 . S
C1076 C1074 1.356 . S
C1076 C1077 1.348 . S
C1077 C1072 1.353 . S
C1077 C1076 1.348 . S
C1077 H1129 0.929 . S
H1078 C1072 0.930 . S
H1079 C1075 0.930 . S
C1080 N1081 1.314 . S
C1080 C1082 1.353 . S
C1080 H1086 0.930 . S
N1081 Li1057 1.990 . S
N1081 C1080 1.314 . S
N1081 C1084 1.279 . S
C1082 C1080 1.353 . S
C1082 C1085 1.348 . S
C1082 H1130 0.929 . S
C1083 C1084 1.358 . S
C1083 C1085 1.356 . S
C1083 H1131 0.930 . S
C1084 N1081 1.279 . S
C1084 C1083 1.358 . S
C1084 H1087 0.930 . S
C1085 C1082 1.348 . S
C1085 C1083 1.356 . S
H1086 C1080 0.930 . S
H1087 C1084 0.930 . S
C1088 C1090 1.348 . S
C1088 C1091 1.356 . S
C1088 O1118 1.325 . S
N1089 C1092 1.314 . S
N1089 C1093 1.279 . S
C1090 C1088 1.348 . S
C1090 C1092 1.353 . S
C1090 H1132 0.929 . S
C1091 C1088 1.356 . S
C1091 C1093 1.358 . S
C1091 H1133 0.930 . S
C1092 N1089 1.314 . S
C1092 C1090 1.353 . S
C1092 H1134 0.930 . S
C1093 N1089 1.279 . S
C1093 C1091 1.358 . S
C1093 H1135 0.930 . S
C1094 C1095 1.348 . S
C1094 C1096 1.356 . S
C1094 O1119 1.325 . S
C1095 C1094 1.348 . S
C1095 C1097 1.353 . S
C1095 H1136 0.929 . S
C1096 C1094 1.356 . S
C1096 C1098 1.358 . S
C1096 H1137 0.930 . S
C1097 C1095 1.353 . S
C1097 N1099 1.314 . S
C1097 H1138 0.930 . S
C1098 C1096 1.358 . S
C1098 N1099 1.279 . S
C1098 H1139 0.930 . S
N1099 C1097 1.314 . S
N1099 C1098 1.279 . S
C1100 C1102 1.353 . S
C1100 N1103 1.314 . S
C1100 H1106 0.930 . S
C1101 N1103 1.279 . S
C1101 C1104 1.358 . S
C1101 H1107 0.930 . S
C1102 C1100 1.353 . S
C1102 C1105 1.348 . S
C1102 H1140 0.929 . S
N1103 Li1058 1.990 . S
N1103 C1100 1.314 . S
N1103 C1101 1.279 . S
C1104 C1101 1.358 . S
C1104 C1105 1.356 . S
C1104 H1141 0.930 . S
C1105 C1102 1.348 . S
C1105 C1104 1.356 . S
H1106 C1100 0.930 . S
H1107 C1101 0.930 . S
C1108 N1109 1.314 . S
C1108 C1110 1.353 . S
C1108 H1114 0.930 . S
N1109 Li1059 1.990 . S
N1109 C1108 1.314 . S
N1109 C1112 1.279 . S
C1110 C1108 1.353 . S
C1110 C1113 1.348 . S
C1110 H1142 0.929 . S
C1111 C1112 1.358 . S
C1111 C1113 1.356 . S
C1111 H1143 0.930 . S
C1112 N1109 1.279 . S
C1112 C1111 1.358 . S
C1112 H1115 0.930 . S
C1113 C1110 1.348 . S
C1113 C1111 1.356 . S
H1114 C1108 0.930 . S
H1115 C1112 0.930 . S
O1116 Li1056 1.956 . S
O1116 Li1057 1.970 . S
O1116 Li1058 1.961 . S
O1116 C1060 1.325 . S
O1117 Li1056 1.970 . S
O1117 Li1057 1.956 . S
O1117 Li1059 1.961 . S
O1117 C1066 1.325 . S
O1118 Li1056 1.961 . S
O1118 Li1058 1.956 . S
O1118 Li1059 1.970 . S
O1118 C1088 1.325 . S
O1119 Li1057 1.961 . S
O1119 Li1058 1.970 . S
O1119 Li1059 1.956 . S
O1119 C1094 1.325 . S
H1120 C1062 0.929 . S
H1121 C1063 0.930 . S
H1122 C1064 0.930 . S
H1123 C1065 0.930 . S
H1124 C1067 0.930 . S
H1125 C1069 0.929 . S
H1126 C1070 0.930 . S
H1127 C1071 0.930 . S
H1128 C1074 0.930 . S
H1129 C1077 0.929 . S
H1130 C1082 0.929 . S
H1131 C1083 0.930 . S
H1132 C1090 0.929 . S
H1133 C1091 0.930 . S
H1134 C1092 0.930 . S
H1135 C1093 0.930 . S
H1136 C1095 0.929 . S
H1137 C1096 0.930 . S
H1138 C1097 0.930 . S
H1139 C1098 0.930 . S
H1140 C1102 0.929 . S
H1141 C1104 0.930 . S
H1142 C1110 0.929 . S
H1143 C1111 0.930 . S
Li1144 N1161 1.990 . S
Li1144 O1204 1.956 . S
Li1144 O1205 1.970 . S
Li1144 O1206 1.961 . S
Li1145 N1169 1.990 . S
Li1145 O1204 1.970 . S
Li1145 O1205 1.956 . S
Li1145 O1207 1.961 . S
Li1146 N1191 1.990 . S
Li1146 O1204 1.961 . S
Li1146 O1206 1.956 . S
Li1146 O1207 1.970 . S
Li1147 N1197 1.990 . S
Li1147 O1205 1.961 . S
Li1147 O1206 1.970 . S
Li1147 O1207 1.956 . S
C1148 C1150 1.348 . S
C1148 C1151 1.356 . S
C1148 O1204 1.325 . S
N1149 C1152 1.314 . S
N1149 C1153 1.279 . S
C1150 C1148 1.348 . S
C1150 C1152 1.353 . S
C1150 H1208 0.929 . S
C1151 C1148 1.356 . S
C1151 C1153 1.358 . S
C1151 H1209 0.930 . S
C1152 N1149 1.314 . S
C1152 C1150 1.353 . S
C1152 H1210 0.930 . S
C1153 N1149 1.279 . S
C1153 C1151 1.358 . S
C1153 H1211 0.930 . S
C1154 C1157 1.348 . S
C1154 C1158 1.356 . S
C1154 O1205 1.325 . S
C1155 N1156 1.279 . S
C1155 C1158 1.358 . S
C1155 H1212 0.930 . S
N1156 C1155 1.279 . S
N1156 C1159 1.314 . S
C1157 C1154 1.348 . S
C1157 C1159 1.353 . S
C1157 H1213 0.929 . S
C1158 C1154 1.356 . S
C1158 C1155 1.358 . S
C1158 H1214 0.930 . S
C1159 N1156 1.314 . S
C1159 C1157 1.353 . S
C1159 H1215 0.930 . S
C1160 N1161 1.314 . S
C1160 C1165 1.353 . S
C1160 H1166 0.930 . S
N1161 Li1144 1.990 . S
N1161 C1160 1.314 . S
N1161 C1163 1.279 . S
C1162 C1163 1.358 . S
C1162 C1164 1.356 . S
C1162 H1216 0.930 . S
C1163 N1161 1.279 . S
C1163 C1162 1.358 . S
C1163 H1167 0.930 . S
C1164 C1162 1.356 . S
C1164 C1165 1.348 . S
C1165 C1160 1.353 . S
C1165 C1164 1.348 . S
C1165 H1217 0.929 . S
H1166 C1160 0.930 . S
H1167 C1163 0.930 . S
C1168 N1169 1.314 . S
C1168 C1170 1.353 . S
C1168 H1174 0.930 . S
N1169 Li1145 1.990 . S
N1169 C1168 1.314 . S
N1169 C1172 1.279 . S
C1170 C1168 1.353 . S
C1170 C1173 1.348 . S
C1170 H1218 0.929 . S
C1171 C1172 1.358 . S
C1171 C1173 1.356 . S
C1171 H1219 0.930 . S
C1172 N1169 1.279 . S
C1172 C1171 1.358 . S
C1172 H1175 0.930 . S
C1173 C1170 1.348 . S
C1173 C1171 1.356 . S
H1174 C1168 0.930 . S
H1175 C1172 0.930 . S
C1176 C1178 1.348 . S
C1176 C1179 1.356 . S
C1176 O1206 1.325 . S
N1177 C1180 1.314 . S
N1177 C1181 1.279 . S
C1178 C1176 1.348 . S
C1178 C1180 1.353 . S
C1178 H1220 0.929 . S
C1179 C1176 1.356 . S
C1179 C1181 1.358 . S
C1179 H1221 0.930 . S
C1180 N1177 1.314 . S
C1180 C1178 1.353 . S
C1180 H1222 0.930 . S
C1181 N1177 1.279 . S
C1181 C1179 1.358 . S
C1181 H1223 0.930 . S
C1182 C1183 1.348 . S
C1182 C1184 1.356 . S
C1182 O1207 1.325 . S
C1183 C1182 1.348 . S
C1183 C1185 1.353 . S
C1183 H1224 0.929 . S
C1184 C1182 1.356 . S
C1184 C1186 1.358 . S
C1184 H1225 0.930 . S
C1185 C1183 1.353 . S
C1185 N1187 1.314 . S
C1185 H1226 0.930 . S
C1186 C1184 1.358 . S
C1186 N1187 1.279 . S
C1186 H1227 0.930 . S
N1187 C1185 1.314 . S
N1187 C1186 1.279 . S
C1188 C1190 1.353 . S
C1188 N1191 1.314 . S
C1188 H1194 0.930 . S
C1189 N1191 1.279 . S
C1189 C1192 1.358 . S
C1189 H1195 0.930 . S
C1190 C1188 1.353 . S
C1190 C1193 1.348 . S
C1190 H1228 0.929 . S
N1191 Li1146 1.990 . S
N1191 C1188 1.314 . S
N1191 C1189 1.279 . S
C1192 C1189 1.358 . S
C1192 C1193 1.356 . S
C1192 H1229 0.930 . S
C1193 C1190 1.348 . S
C1193 C1192 1.356 . S
H1194 C1188 0.930 . S
H1195 C1189 0.930 . S
C1196 N1197 1.314 . S
C1196 C1198 1.353 . S
C1196 H1202 0.930 . S
N1197 Li1147 1.990 . S
N1197 C1196 1.314 . S
N1197 C1200 1.279 . S
C1198 C1196 1.353 . S
C1198 C1201 1.348 . S
C1198 H1230 0.929 . S
C1199 C1200 1.358 . S
C1199 C1201 1.356 . S
C1199 H1231 0.930 . S
C1200 N1197 1.279 . S
C1200 C1199 1.358 . S
C1200 H1203 0.930 . S
C1201 C1198 1.348 . S
C1201 C1199 1.356 . S
H1202 C1196 0.930 . S
H1203 C1200 0.930 . S
O1204 Li1144 1.956 . S
O1204 Li1145 1.970 . S
O1204 Li1146 1.961 . S
O1204 C1148 1.325 . S
O1205 Li1144 1.970 . S
O1205 Li1145 1.956 . S
O1205 Li1147 1.961 . S
O1205 C1154 1.325 . S
O1206 Li1144 1.961 . S
O1206 Li1146 1.956 . S
O1206 Li1147 1.970 . S
O1206 C1176 1.325 . S
O1207 Li1145 1.961 . S
O1207 Li1146 1.970 . S
O1207 Li1147 1.956 . S
O1207 C1182 1.325 . S
H1208 C1150 0.929 . S
H1209 C1151 0.930 . S
H1210 C1152 0.930 . S
H1211 C1153 0.930 . S
H1212 C1155 0.930 . S
H1213 C1157 0.929 . S
H1214 C1158 0.930 . S
H1215 C1159 0.930 . S
H1216 C1162 0.930 . S
H1217 C1165 0.929 . S
H1218 C1170 0.929 . S
H1219 C1171 0.930 . S
H1220 C1178 0.929 . S
H1221 C1179 0.930 . S
H1222 C1180 0.930 . S
H1223 C1181 0.930 . S
H1224 C1183 0.929 . S
H1225 C1184 0.930 . S
H1226 C1185 0.930 . S
H1227 C1186 0.930 . S
H1228 C1190 0.929 . S
H1229 C1192 0.930 . S
H1230 C1198 0.929 . S
H1231 C1199 0.930 . S
Li1232 N1249 1.990 . S
Li1232 O1292 1.956 . S
Li1232 O1293 1.970 . S
Li1232 O1294 1.961 . S
Li1233 N1257 1.990 . S
Li1233 O1292 1.970 . S
Li1233 O1293 1.956 . S
Li1233 O1295 1.961 . S
Li1234 N1279 1.990 . S
Li1234 O1292 1.961 . S
Li1234 O1294 1.956 . S
Li1234 O1295 1.970 . S
Li1235 N1285 1.990 . S
Li1235 O1293 1.961 . S
Li1235 O1294 1.970 . S
Li1235 O1295 1.956 . S
C1236 C1238 1.348 . S
C1236 C1239 1.356 . S
C1236 O1292 1.325 . S
N1237 C1240 1.314 . S
N1237 C1241 1.279 . S
C1238 C1236 1.348 . S
C1238 C1240 1.353 . S
C1238 H1296 0.929 . S
C1239 C1236 1.356 . S
C1239 C1241 1.358 . S
C1239 H1297 0.930 . S
C1240 N1237 1.314 . S
C1240 C1238 1.353 . S
C1240 H1298 0.930 . S
C1241 N1237 1.279 . S
C1241 C1239 1.358 . S
C1241 H1299 0.930 . S
C1242 C1245 1.348 . S
C1242 C1246 1.356 . S
C1242 O1293 1.325 . S
C1243 N1244 1.279 . S
C1243 C1246 1.358 . S
C1243 H1300 0.930 . S
N1244 C1243 1.279 . S
N1244 C1247 1.314 . S
C1245 C1242 1.348 . S
C1245 C1247 1.353 . S
C1245 H1301 0.929 . S
C1246 C1242 1.356 . S
C1246 C1243 1.358 . S
C1246 H1302 0.930 . S
C1247 N1244 1.314 . S
C1247 C1245 1.353 . S
C1247 H1303 0.930 . S
C1248 N1249 1.314 . S
C1248 C1253 1.353 . S
C1248 H1254 0.930 . S
N1249 Li1232 1.990 . S
N1249 C1248 1.314 . S
N1249 C1251 1.279 . S
C1250 C1251 1.358 . S
C1250 C1252 1.356 . S
C1250 H1304 0.930 . S
C1251 N1249 1.279 . S
C1251 C1250 1.358 . S
C1251 H1255 0.930 . S
C1252 C1250 1.356 . S
C1252 C1253 1.348 . S
C1253 C1248 1.353 . S
C1253 C1252 1.348 . S
C1253 H1305 0.929 . S
H1254 C1248 0.930 . S
H1255 C1251 0.930 . S
C1256 N1257 1.314 . S
C1256 C1258 1.353 . S
C1256 H1262 0.930 . S
N1257 Li1233 1.990 . S
N1257 C1256 1.314 . S
N1257 C1260 1.279 . S
C1258 C1256 1.353 . S
C1258 C1261 1.348 . S
C1258 H1306 0.929 . S
C1259 C1260 1.358 . S
C1259 C1261 1.356 . S
C1259 H1307 0.930 . S
C1260 N1257 1.279 . S
C1260 C1259 1.358 . S
C1260 H1263 0.930 . S
C1261 C1258 1.348 . S
C1261 C1259 1.356 . S
H1262 C1256 0.930 . S
H1263 C1260 0.930 . S
C1264 C1266 1.348 . S
C1264 C1267 1.356 . S
C1264 O1294 1.325 . S
N1265 C1268 1.314 . S
N1265 C1269 1.279 . S
C1266 C1264 1.348 . S
C1266 C1268 1.353 . S
C1266 H1308 0.929 . S
C1267 C1264 1.356 . S
C1267 C1269 1.358 . S
C1267 H1309 0.930 . S
C1268 N1265 1.314 . S
C1268 C1266 1.353 . S
C1268 H1310 0.930 . S
C1269 N1265 1.279 . S
C1269 C1267 1.358 . S
C1269 H1311 0.930 . S
C1270 C1271 1.348 . S
C1270 C1272 1.356 . S
C1270 O1295 1.325 . S
C1271 C1270 1.348 . S
C1271 C1273 1.353 . S
C1271 H1312 0.929 . S
C1272 C1270 1.356 . S
C1272 C1274 1.358 . S
C1272 H1313 0.930 . S
C1273 C1271 1.353 . S
C1273 N1275 1.314 . S
C1273 H1314 0.930 . S
C1274 C1272 1.358 . S
C1274 N1275 1.279 . S
C1274 H1315 0.930 . S
N1275 C1273 1.314 . S
N1275 C1274 1.279 . S
C1276 C1278 1.353 . S
C1276 N1279 1.314 . S
C1276 H1282 0.930 . S
C1277 N1279 1.279 . S
C1277 C1280 1.358 . S
C1277 H1283 0.930 . S
C1278 C1276 1.353 . S
C1278 C1281 1.348 . S
C1278 H1316 0.929 . S
N1279 Li1234 1.990 . S
N1279 C1276 1.314 . S
N1279 C1277 1.279 . S
C1280 C1277 1.358 . S
C1280 C1281 1.356 . S
C1280 H1317 0.930 . S
C1281 C1278 1.348 . S
C1281 C1280 1.356 . S
H1282 C1276 0.930 . S
H1283 C1277 0.930 . S
C1284 N1285 1.314 . S
C1284 C1286 1.353 . S
C1284 H1290 0.930 . S
N1285 Li1235 1.990 . S
N1285 C1284 1.314 . S
N1285 C1288 1.279 . S
C1286 C1284 1.353 . S
C1286 C1289 1.348 . S
C1286 H1318 0.929 . S
C1287 C1288 1.358 . S
C1287 C1289 1.356 . S
C1287 H1319 0.930 . S
C1288 N1285 1.279 . S
C1288 C1287 1.358 . S
C1288 H1291 0.930 . S
C1289 C1286 1.348 . S
C1289 C1287 1.356 . S
H1290 C1284 0.930 . S
H1291 C1288 0.930 . S
O1292 Li1232 1.956 . S
O1292 Li1233 1.970 . S
O1292 Li1234 1.961 . S
O1292 C1236 1.325 . S
O1293 Li1232 1.970 . S
O1293 Li1233 1.956 . S
O1293 Li1235 1.961 . S
O1293 C1242 1.325 . S
O1294 Li1232 1.961 . S
O1294 Li1234 1.956 . S
O1294 Li1235 1.970 . S
O1294 C1264 1.325 . S
O1295 Li1233 1.961 . S
O1295 Li1234 1.970 . S
O1295 Li1235 1.956 . S
O1295 C1270 1.325 . S
H1296 C1238 0.929 . S
H1297 C1239 0.930 . S
H1298 C1240 0.930 . S
H1299 C1241 0.930 . S
H1300 C1243 0.930 . S
H1301 C1245 0.929 . S
H1302 C1246 0.930 . S
H1303 C1247 0.930 . S
H1304 C1250 0.930 . S
H1305 C1253 0.929 . S
H1306 C1258 0.929 . S
H1307 C1259 0.930 . S
H1308 C1266 0.929 . S
H1309 C1267 0.930 . S
H1310 C1268 0.930 . S
H1311 C1269 0.930 . S
H1312 C1271 0.929 . S
H1313 C1272 0.930 . S
H1314 C1273 0.930 . S
H1315 C1274 0.930 . S
H1316 C1278 0.929 . S
H1317 C1280 0.930 . S
H1318 C1286 0.929 . S
H1319 C1287 0.930 . S
Li1320 N1337 1.990 . S
Li1320 O1380 1.956 . S
Li1320 O1381 1.970 . S
Li1320 O1382 1.961 . S
Li1321 N1345 1.990 . S
Li1321 O1380 1.970 . S
Li1321 O1381 1.956 . S
Li1321 O1383 1.961 . S
Li1322 N1367 1.990 . S
Li1322 O1380 1.961 . S
Li1322 O1382 1.956 . S
Li1322 O1383 1.970 . S
Li1323 N1373 1.990 . S
Li1323 O1381 1.961 . S
Li1323 O1382 1.970 . S
Li1323 O1383 1.956 . S
C1324 C1326 1.348 . S
C1324 C1327 1.356 . S
C1324 O1380 1.325 . S
N1325 C1328 1.314 . S
N1325 C1329 1.279 . S
C1326 C1324 1.348 . S
C1326 C1328 1.353 . S
C1326 H1384 0.929 . S
C1327 C1324 1.356 . S
C1327 C1329 1.358 . S
C1327 H1385 0.930 . S
C1328 N1325 1.314 . S
C1328 C1326 1.353 . S
C1328 H1386 0.930 . S
C1329 N1325 1.279 . S
C1329 C1327 1.358 . S
C1329 H1387 0.930 . S
C1330 C1333 1.348 . S
C1330 C1334 1.356 . S
C1330 O1381 1.325 . S
C1331 N1332 1.279 . S
C1331 C1334 1.358 . S
C1331 H1388 0.930 . S
N1332 C1331 1.279 . S
N1332 C1335 1.314 . S
C1333 C1330 1.348 . S
C1333 C1335 1.353 . S
C1333 H1389 0.929 . S
C1334 C1330 1.356 . S
C1334 C1331 1.358 . S
C1334 H1390 0.930 . S
C1335 N1332 1.314 . S
C1335 C1333 1.353 . S
C1335 H1391 0.930 . S
C1336 N1337 1.314 . S
C1336 C1341 1.353 . S
C1336 H1342 0.930 . S
N1337 Li1320 1.990 . S
N1337 C1336 1.314 . S
N1337 C1339 1.279 . S
C1338 C1339 1.358 . S
C1338 C1340 1.356 . S
C1338 H1392 0.930 . S
C1339 N1337 1.279 . S
C1339 C1338 1.358 . S
C1339 H1343 0.930 . S
C1340 C1338 1.356 . S
C1340 C1341 1.348 . S
C1341 C1336 1.353 . S
C1341 C1340 1.348 . S
C1341 H1393 0.929 . S
H1342 C1336 0.930 . S
H1343 C1339 0.930 . S
C1344 N1345 1.314 . S
C1344 C1346 1.353 . S
C1344 H1350 0.930 . S
N1345 Li1321 1.990 . S
N1345 C1344 1.314 . S
N1345 C1348 1.279 . S
C1346 C1344 1.353 . S
C1346 C1349 1.348 . S
C1346 H1394 0.929 . S
C1347 C1348 1.358 . S
C1347 C1349 1.356 . S
C1347 H1395 0.930 . S
C1348 N1345 1.279 . S
C1348 C1347 1.358 . S
C1348 H1351 0.930 . S
C1349 C1346 1.348 . S
C1349 C1347 1.356 . S
H1350 C1344 0.930 . S
H1351 C1348 0.930 . S
C1352 C1354 1.348 . S
C1352 C1355 1.356 . S
C1352 O1382 1.325 . S
N1353 C1356 1.314 . S
N1353 C1357 1.279 . S
C1354 C1352 1.348 . S
C1354 C1356 1.353 . S
C1354 H1396 0.929 . S
C1355 C1352 1.356 . S
C1355 C1357 1.358 . S
C1355 H1397 0.930 . S
C1356 N1353 1.314 . S
C1356 C1354 1.353 . S
C1356 H1398 0.930 . S
C1357 N1353 1.279 . S
C1357 C1355 1.358 . S
C1357 H1399 0.930 . S
C1358 C1359 1.348 . S
C1358 C1360 1.356 . S
C1358 O1383 1.325 . S
C1359 C1358 1.348 . S
C1359 C1361 1.353 . S
C1359 H1400 0.929 . S
C1360 C1358 1.356 . S
C1360 C1362 1.358 . S
C1360 H1401 0.930 . S
C1361 C1359 1.353 . S
C1361 N1363 1.314 . S
C1361 H1402 0.930 . S
C1362 C1360 1.358 . S
C1362 N1363 1.279 . S
C1362 H1403 0.930 . S
N1363 C1361 1.314 . S
N1363 C1362 1.279 . S
C1364 C1366 1.353 . S
C1364 N1367 1.314 . S
C1364 H1370 0.930 . S
C1365 N1367 1.279 . S
C1365 C1368 1.358 . S
C1365 H1371 0.930 . S
C1366 C1364 1.353 . S
C1366 C1369 1.348 . S
C1366 H1404 0.929 . S
N1367 Li1322 1.990 . S
N1367 C1364 1.314 . S
N1367 C1365 1.279 . S
C1368 C1365 1.358 . S
C1368 C1369 1.356 . S
C1368 H1405 0.930 . S
C1369 C1366 1.348 . S
C1369 C1368 1.356 . S
H1370 C1364 0.930 . S
H1371 C1365 0.930 . S
C1372 N1373 1.314 . S
C1372 C1374 1.353 . S
C1372 H1378 0.930 . S
N1373 Li1323 1.990 . S
N1373 C1372 1.314 . S
N1373 C1376 1.279 . S
C1374 C1372 1.353 . S
C1374 C1377 1.348 . S
C1374 H1406 0.929 . S
C1375 C1376 1.358 . S
C1375 C1377 1.356 . S
C1375 H1407 0.930 . S
C1376 N1373 1.279 . S
C1376 C1375 1.358 . S
C1376 H1379 0.930 . S
C1377 C1374 1.348 . S
C1377 C1375 1.356 . S
H1378 C1372 0.930 . S
H1379 C1376 0.930 . S
O1380 Li1320 1.956 . S
O1380 Li1321 1.970 . S
O1380 Li1322 1.961 . S
O1380 C1324 1.325 . S
O1381 Li1320 1.970 . S
O1381 Li1321 1.956 . S
O1381 Li1323 1.961 . S
O1381 C1330 1.325 . S
O1382 Li1320 1.961 . S
O1382 Li1322 1.956 . S
O1382 Li1323 1.970 . S
O1382 C1352 1.325 . S
O1383 Li1321 1.961 . S
O1383 Li1322 1.970 . S
O1383 Li1323 1.956 . S
O1383 C1358 1.325 . S
H1384 C1326 0.929 . S
H1385 C1327 0.930 . S
H1386 C1328 0.930 . S
H1387 C1329 0.930 . S
H1388 C1331 0.930 . S
H1389 C1333 0.929 . S
H1390 C1334 0.930 . S
H1391 C1335 0.930 . S
H1392 C1338 0.930 . S
H1393 C1341 0.929 . S
H1394 C1346 0.929 . S
H1395 C1347 0.930 . S
H1396 C1354 0.929 . S
H1397 C1355 0.930 . S
H1398 C1356 0.930 . S
H1399 C1357 0.930 . S
H1400 C1359 0.929 . S
H1401 C1360 0.930 . S
H1402 C1361 0.930 . S
H1403 C1362 0.930 . S
H1404 C1366 0.929 . S
H1405 C1368 0.930 . S
H1406 C1374 0.929 . S
H1407 C1375 0.930 . S
Li1408 N1425 1.990 . S
Li1408 O1468 1.956 . S
Li1408 O1469 1.970 . S
Li1408 O1470 1.961 . S
Li1409 N1433 1.990 . S
Li1409 O1468 1.970 . S
Li1409 O1469 1.956 . S
Li1409 O1471 1.961 . S
Li1410 N1455 1.990 . S
Li1410 O1468 1.961 . S
Li1410 O1470 1.956 . S
Li1410 O1471 1.970 . S
Li1411 N1461 1.990 . S
Li1411 O1469 1.961 . S
Li1411 O1470 1.970 . S
Li1411 O1471 1.956 . S
C1412 C1414 1.348 . S
C1412 C1415 1.356 . S
C1412 O1468 1.325 . S
N1413 C1416 1.314 . S
N1413 C1417 1.279 . S
C1414 C1412 1.348 . S
C1414 C1416 1.353 . S
C1414 H1472 0.929 . S
C1415 C1412 1.356 . S
C1415 C1417 1.358 . S
C1415 H1473 0.930 . S
C1416 N1413 1.314 . S
C1416 C1414 1.353 . S
C1416 H1474 0.930 . S
C1417 N1413 1.279 . S
C1417 C1415 1.358 . S
C1417 H1475 0.930 . S
C1418 C1421 1.348 . S
C1418 C1422 1.356 . S
C1418 O1469 1.325 . S
C1419 N1420 1.279 . S
C1419 C1422 1.358 . S
C1419 H1476 0.930 . S
N1420 C1419 1.279 . S
N1420 C1423 1.314 . S
C1421 C1418 1.348 . S
C1421 C1423 1.353 . S
C1421 H1477 0.929 . S
C1422 C1418 1.356 . S
C1422 C1419 1.358 . S
C1422 H1478 0.930 . S
C1423 N1420 1.314 . S
C1423 C1421 1.353 . S
C1423 H1479 0.930 . S
C1424 N1425 1.314 . S
C1424 C1429 1.353 . S
C1424 H1430 0.930 . S
N1425 Li1408 1.990 . S
N1425 C1424 1.314 . S
N1425 C1427 1.279 . S
C1426 C1427 1.358 . S
C1426 C1428 1.356 . S
C1426 H1480 0.930 . S
C1427 N1425 1.279 . S
C1427 C1426 1.358 . S
C1427 H1431 0.930 . S
C1428 C1426 1.356 . S
C1428 C1429 1.348 . S
C1429 C1424 1.353 . S
C1429 C1428 1.348 . S
C1429 H1481 0.929 . S
H1430 C1424 0.930 . S
H1431 C1427 0.930 . S
C1432 N1433 1.314 . S
C1432 C1434 1.353 . S
C1432 H1438 0.930 . S
N1433 Li1409 1.990 . S
N1433 C1432 1.314 . S
N1433 C1436 1.279 . S
C1434 C1432 1.353 . S
C1434 C1437 1.348 . S
C1434 H1482 0.929 . S
C1435 C1436 1.358 . S
C1435 C1437 1.356 . S
C1435 H1483 0.930 . S
C1436 N1433 1.279 . S
C1436 C1435 1.358 . S
C1436 H1439 0.930 . S
C1437 C1434 1.348 . S
C1437 C1435 1.356 . S
H1438 C1432 0.930 . S
H1439 C1436 0.930 . S
C1440 C1442 1.348 . S
C1440 C1443 1.356 . S
C1440 O1470 1.325 . S
N1441 C1444 1.314 . S
N1441 C1445 1.279 . S
C1442 C1440 1.348 . S
C1442 C1444 1.353 . S
C1442 H1484 0.929 . S
C1443 C1440 1.356 . S
C1443 C1445 1.358 . S
C1443 H1485 0.930 . S
C1444 N1441 1.314 . S
C1444 C1442 1.353 . S
C1444 H1486 0.930 . S
C1445 N1441 1.279 . S
C1445 C1443 1.358 . S
C1445 H1487 0.930 . S
C1446 C1447 1.348 . S
C1446 C1448 1.356 . S
C1446 O1471 1.325 . S
C1447 C1446 1.348 . S
C1447 C1449 1.353 . S
C1447 H1488 0.929 . S
C1448 C1446 1.356 . S
C1448 C1450 1.358 . S
C1448 H1489 0.930 . S
C1449 C1447 1.353 . S
C1449 N1451 1.314 . S
C1449 H1490 0.930 . S
C1450 C1448 1.358 . S
C1450 N1451 1.279 . S
C1450 H1491 0.930 . S
N1451 C1449 1.314 . S
N1451 C1450 1.279 . S
C1452 C1454 1.353 . S
C1452 N1455 1.314 . S
C1452 H1458 0.930 . S
C1453 N1455 1.279 . S
C1453 C1456 1.358 . S
C1453 H1459 0.930 . S
C1454 C1452 1.353 . S
C1454 C1457 1.348 . S
C1454 H1492 0.929 . S
N1455 Li1410 1.990 . S
N1455 C1452 1.314 . S
N1455 C1453 1.279 . S
C1456 C1453 1.358 . S
C1456 C1457 1.356 . S
C1456 H1493 0.930 . S
C1457 C1454 1.348 . S
C1457 C1456 1.356 . S
H1458 C1452 0.930 . S
H1459 C1453 0.930 . S
C1460 N1461 1.314 . S
C1460 C1462 1.353 . S
C1460 H1466 0.930 . S
N1461 Li1411 1.990 . S
N1461 C1460 1.314 . S
N1461 C1464 1.279 . S
C1462 C1460 1.353 . S
C1462 C1465 1.348 . S
C1462 H1494 0.929 . S
C1463 C1464 1.358 . S
C1463 C1465 1.356 . S
C1463 H1495 0.930 . S
C1464 N1461 1.279 . S
C1464 C1463 1.358 . S
C1464 H1467 0.930 . S
C1465 C1462 1.348 . S
C1465 C1463 1.356 . S
H1466 C1460 0.930 . S
H1467 C1464 0.930 . S
O1468 Li1408 1.956 . S
O1468 Li1409 1.970 . S
O1468 Li1410 1.961 . S
O1468 C1412 1.325 . S
O1469 Li1408 1.970 . S
O1469 Li1409 1.956 . S
O1469 Li1411 1.961 . S
O1469 C1418 1.325 . S
O1470 Li1408 1.961 . S
O1470 Li1410 1.956 . S
O1470 Li1411 1.970 . S
O1470 C1440 1.325 . S
O1471 Li1409 1.961 . S
O1471 Li1410 1.970 . S
O1471 Li1411 1.956 . S
O1471 C1446 1.325 . S
H1472 C1414 0.929 . S
H1473 C1415 0.930 . S
H1474 C1416 0.930 . S
H1475 C1417 0.930 . S
H1476 C1419 0.930 . S
H1477 C1421 0.929 . S
H1478 C1422 0.930 . S
H1479 C1423 0.930 . S
H1480 C1426 0.930 . S
H1481 C1429 0.929 . S
H1482 C1434 0.929 . S
H1483 C1435 0.930 . S
H1484 C1442 0.929 . S
H1485 C1443 0.930 . S
H1486 C1444 0.930 . S
H1487 C1445 0.930 . S
H1488 C1447 0.929 . S
H1489 C1448 0.930 . S
H1490 C1449 0.930 . S
H1491 C1450 0.930 . S
H1492 C1454 0.929 . S
H1493 C1456 0.930 . S
H1494 C1462 0.929 . S
H1495 C1463 0.930 . S
Li1496 N1513 1.990 . S
Li1496 O1556 1.956 . S
Li1496 O1557 1.970 . S
Li1496 O1558 1.961 . S
Li1497 N1521 1.990 . S
Li1497 O1556 1.970 . S
Li1497 O1557 1.956 . S
Li1497 O1559 1.961 . S
Li1498 N1543 1.990 . S
Li1498 O1556 1.961 . S
Li1498 O1558 1.956 . S
Li1498 O1559 1.970 . S
Li1499 N1549 1.990 . S
Li1499 O1557 1.961 . S
Li1499 O1558 1.970 . S
Li1499 O1559 1.956 . S
C1500 C1502 1.348 . S
C1500 C1503 1.356 . S
C1500 O1556 1.325 . S
N1501 C1504 1.314 . S
N1501 C1505 1.279 . S
C1502 C1500 1.348 . S
C1502 C1504 1.353 . S
C1502 H1560 0.929 . S
C1503 C1500 1.356 . S
C1503 C1505 1.358 . S
C1503 H1561 0.930 . S
C1504 N1501 1.314 . S
C1504 C1502 1.353 . S
C1504 H1562 0.930 . S
C1505 N1501 1.279 . S
C1505 C1503 1.358 . S
C1505 H1563 0.930 . S
C1506 C1509 1.348 . S
C1506 C1510 1.356 . S
C1506 O1557 1.325 . S
C1507 N1508 1.279 . S
C1507 C1510 1.358 . S
C1507 H1564 0.930 . S
N1508 C1507 1.279 . S
N1508 C1511 1.314 . S
C1509 C1506 1.348 . S
C1509 C1511 1.353 . S
C1509 H1565 0.929 . S
C1510 C1506 1.356 . S
C1510 C1507 1.358 . S
C1510 H1566 0.930 . S
C1511 N1508 1.314 . S
C1511 C1509 1.353 . S
C1511 H1567 0.930 . S
C1512 N1513 1.314 . S
C1512 C1517 1.353 . S
C1512 H1518 0.930 . S
N1513 Li1496 1.990 . S
N1513 C1512 1.314 . S
N1513 C1515 1.279 . S
C1514 C1515 1.358 . S
C1514 C1516 1.356 . S
C1514 H1568 0.930 . S
C1515 N1513 1.279 . S
C1515 C1514 1.358 . S
C1515 H1519 0.930 . S
C1516 C1514 1.356 . S
C1516 C1517 1.348 . S
C1517 C1512 1.353 . S
C1517 C1516 1.348 . S
C1517 H1569 0.929 . S
H1518 C1512 0.930 . S
H1519 C1515 0.930 . S
C1520 N1521 1.314 . S
C1520 C1522 1.353 . S
C1520 H1526 0.930 . S
N1521 Li1497 1.990 . S
N1521 C1520 1.314 . S
N1521 C1524 1.279 . S
C1522 C1520 1.353 . S
C1522 C1525 1.348 . S
C1522 H1570 0.929 . S
C1523 C1524 1.358 . S
C1523 C1525 1.356 . S
C1523 H1571 0.930 . S
C1524 N1521 1.279 . S
C1524 C1523 1.358 . S
C1524 H1527 0.930 . S
C1525 C1522 1.348 . S
C1525 C1523 1.356 . S
H1526 C1520 0.930 . S
H1527 C1524 0.930 . S
C1528 C1530 1.348 . S
C1528 C1531 1.356 . S
C1528 O1558 1.325 . S
N1529 C1532 1.314 . S
N1529 C1533 1.279 . S
C1530 C1528 1.348 . S
C1530 C1532 1.353 . S
C1530 H1572 0.929 . S
C1531 C1528 1.356 . S
C1531 C1533 1.358 . S
C1531 H1573 0.930 . S
C1532 N1529 1.314 . S
C1532 C1530 1.353 . S
C1532 H1574 0.930 . S
C1533 N1529 1.279 . S
C1533 C1531 1.358 . S
C1533 H1575 0.930 . S
C1534 C1535 1.348 . S
C1534 C1536 1.356 . S
C1534 O1559 1.325 . S
C1535 C1534 1.348 . S
C1535 C1537 1.353 . S
C1535 H1576 0.929 . S
C1536 C1534 1.356 . S
C1536 C1538 1.358 . S
C1536 H1577 0.930 . S
C1537 C1535 1.353 . S
C1537 N1539 1.314 . S
C1537 H1578 0.930 . S
C1538 C1536 1.358 . S
C1538 N1539 1.279 . S
C1538 H1579 0.930 . S
N1539 C1537 1.314 . S
N1539 C1538 1.279 . S
C1540 C1542 1.353 . S
C1540 N1543 1.314 . S
C1540 H1546 0.930 . S
C1541 N1543 1.279 . S
C1541 C1544 1.358 . S
C1541 H1547 0.930 . S
C1542 C1540 1.353 . S
C1542 C1545 1.348 . S
C1542 H1580 0.929 . S
N1543 Li1498 1.990 . S
N1543 C1540 1.314 . S
N1543 C1541 1.279 . S
C1544 C1541 1.358 . S
C1544 C1545 1.356 . S
C1544 H1581 0.930 . S
C1545 C1542 1.348 . S
C1545 C1544 1.356 . S
H1546 C1540 0.930 . S
H1547 C1541 0.930 . S
C1548 N1549 1.314 . S
C1548 C1550 1.353 . S
C1548 H1554 0.930 . S
N1549 Li1499 1.990 . S
N1549 C1548 1.314 . S
N1549 C1552 1.279 . S
C1550 C1548 1.353 . S
C1550 C1553 1.348 . S
C1550 H1582 0.929 . S
C1551 C1552 1.358 . S
C1551 C1553 1.356 . S
C1551 H1583 0.930 . S
C1552 N1549 1.279 . S
C1552 C1551 1.358 . S
C1552 H1555 0.930 . S
C1553 C1550 1.348 . S
C1553 C1551 1.356 . S
H1554 C1548 0.930 . S
H1555 C1552 0.930 . S
O1556 Li1496 1.956 . S
O1556 Li1497 1.970 . S
O1556 Li1498 1.961 . S
O1556 C1500 1.325 . S
O1557 Li1496 1.970 . S
O1557 Li1497 1.956 . S
O1557 Li1499 1.961 . S
O1557 C1506 1.325 . S
O1558 Li1496 1.961 . S
O1558 Li1498 1.956 . S
O1558 Li1499 1.970 . S
O1558 C1528 1.325 . S
O1559 Li1497 1.961 . S
O1559 Li1498 1.970 . S
O1559 Li1499 1.956 . S
O1559 C1534 1.325 . S
H1560 C1502 0.929 . S
H1561 C1503 0.930 . S
H1562 C1504 0.930 . S
H1563 C1505 0.930 . S
H1564 C1507 0.930 . S
H1565 C1509 0.929 . S
H1566 C1510 0.930 . S
H1567 C1511 0.930 . S
H1568 C1514 0.930 . S
H1569 C1517 0.929 . S
H1570 C1522 0.929 . S
H1571 C1523 0.930 . S
H1572 C1530 0.929 . S
H1573 C1531 0.930 . S
H1574 C1532 0.930 . S
H1575 C1533 0.930 . S
H1576 C1535 0.929 . S
H1577 C1536 0.930 . S
H1578 C1537 0.930 . S
H1579 C1538 0.930 . S
H1580 C1542 0.929 . S
H1581 C1544 0.930 . S
H1582 C1550 0.929 . S
H1583 C1551 0.930 . S
C1584 C1585 1.363 . S
C1584 C1590 1.379 . S
C1584 N1592 1.356 . S
C1585 C1584 1.363 . S
C1585 C1591 1.363 . S
C1586 C1587 1.363 . S
C1586 C1591 1.379 . S
C1586 N1593 1.356 . S
C1587 C1586 1.363 . S
C1587 C1590 1.363 . S
N1588 C1590 1.356 . S
N1588 H1600 0.984 . S
N1588 H1601 0.985 . S
N1589 C1591 1.356 . S
N1589 H1594 0.984 . S
N1589 H1595 0.985 . S
C1590 C1584 1.379 . S
C1590 C1587 1.363 . S
C1590 N1588 1.356 . S
C1591 C1585 1.363 . S
C1591 C1586 1.379 . S
C1591 N1589 1.356 . S
N1592 C1584 1.356 . S
N1592 H1598 0.984 . S
N1592 H1599 0.984 . S
N1593 C1586 1.356 . S
N1593 H1596 0.984 . S
N1593 H1597 0.985 . S
H1594 N1589 0.984 . S
H1595 N1589 0.985 . S
H1596 N1593 0.984 . S
H1597 N1593 0.985 . S
H1598 N1592 0.984 . S
H1599 N1592 0.984 . S
H1600 N1588 0.984 . S
H1601 N1588 0.985 . S
C1602 C1603 1.363 . S
C1602 C1608 1.379 . S
C1602 N1610 1.356 . S
C1603 C1602 1.363 . S
C1603 C1609 1.363 . S
C1604 C1605 1.363 . S
C1604 C1609 1.379 . S
C1604 N1611 1.356 . S
C1605 C1604 1.363 . S
C1605 C1608 1.363 . S
N1606 C1608 1.356 . S
N1606 H1618 0.984 . S
N1606 H1619 0.985 . S
N1607 C1609 1.356 1_565 S
N1607 H1612 0.984 . S
N1607 H1613 0.985 . S
C1608 C1602 1.379 . S
C1608 C1605 1.363 . S
C1608 N1606 1.356 . S
C1609 C1603 1.363 . S
C1609 C1604 1.379 . S
C1609 N1607 1.356 1_545 S
N1610 C1602 1.356 . S
N1610 H1616 0.984 . S
N1610 H1617 0.984 . S
N1611 C1604 1.356 . S
N1611 H1614 0.984 . S
N1611 H1615 0.985 . S
H1612 N1607 0.984 . S
H1613 N1607 0.985 . S
H1614 N1611 0.984 . S
H1615 N1611 0.985 . S
H1616 N1610 0.984 . S
H1617 N1610 0.984 . S
H1618 N1606 0.984 . S
H1619 N1606 0.985 . S
C1620 C1621 1.363 . S
C1620 C1626 1.379 . S
C1620 N1628 1.356 . S
C1621 C1620 1.363 . S
C1621 C1627 1.363 . S
C1622 C1623 1.363 . S
C1622 C1627 1.379 . S
C1622 N1629 1.356 . S
C1623 C1622 1.363 . S
C1623 C1626 1.363 . S
N1624 C1626 1.356 . S
N1624 H1636 0.984 1_655 S
N1624 H1637 0.980 . S
N1625 C1627 1.356 . S
N1625 H1630 0.984 . S
N1625 H1631 0.985 . S
C1626 C1620 1.379 . S
C1626 C1623 1.363 . S
C1626 N1624 1.356 . S
C1627 C1621 1.363 . S
C1627 C1622 1.379 . S
C1627 N1625 1.356 . S
N1628 C1620 1.356 . S
N1628 H1634 0.984 . S
N1628 H1635 0.984 . S
N1629 C1622 1.356 . S
N1629 H1632 0.984 . S
N1629 H1633 0.985 . S
H1630 N1625 0.984 . S
H1631 N1625 0.985 . S
H1632 N1629 0.984 . S
H1633 N1629 0.985 . S
H1634 N1628 0.984 . S
H1635 N1628 0.984 . S
H1636 N1624 0.984 1_455 S
H1637 N1624 0.980 . S
C1638 C1639 1.363 . S
C1638 C1644 1.379 . S
C1638 N1646 1.356 . S
C1639 C1638 1.363 . S
C1639 C1645 1.363 . S
C1640 C1641 1.363 . S
C1640 C1645 1.379 . S
C1640 N1647 1.356 . S
C1641 C1640 1.363 . S
C1641 C1644 1.363 . S
N1642 C1644 1.356 . S
N1642 H1654 0.984 . S
N1642 H1655 0.985 . S
N1643 C1645 1.356 . S
N1643 H1648 0.984 . S
N1643 H1649 0.985 . S
C1644 C1638 1.379 . S
C1644 C1641 1.363 . S
C1644 N1642 1.356 . S
C1645 C1639 1.363 . S
C1645 C1640 1.379 . S
C1645 N1643 1.356 . S
N1646 C1638 1.356 . S
N1646 H1652 0.984 . S
N1646 H1653 0.984 . S
N1647 C1640 1.356 . S
N1647 H1650 0.984 . S
N1647 H1651 0.985 . S
H1648 N1643 0.984 . S
H1649 N1643 0.985 . S
H1650 N1647 0.984 . S
H1651 N1647 0.985 . S
H1652 N1646 0.984 . S
H1653 N1646 0.984 . S
H1654 N1642 0.984 . S
H1655 N1642 0.985 . S
C1656 C1657 1.363 . S
C1656 C1662 1.379 . S
C1656 N1664 1.356 . S
C1657 C1656 1.363 . S
C1657 C1663 1.363 . S
C1658 C1659 1.363 . S
C1658 C1663 1.379 . S
C1658 N1665 1.356 . S
C1659 C1658 1.363 . S
C1659 C1662 1.363 . S
N1660 C1662 1.356 . S
N1660 H1672 0.984 . S
N1660 H1673 0.985 . S
N1661 C1663 1.356 . S
N1661 H1666 0.984 1_565 S
N1661 H1667 0.985 1_565 S
C1662 C1656 1.379 . S
C1662 C1659 1.363 . S
C1662 N1660 1.356 . S
C1663 C1657 1.363 . S
C1663 C1658 1.379 . S
C1663 N1661 1.356 . S
N1664 C1656 1.356 . S
N1664 H1670 0.984 . S
N1664 H1671 0.984 . S
N1665 C1658 1.356 . S
N1665 H1668 0.984 . S
N1665 H1669 0.985 . S
H1666 N1661 0.984 1_545 S
H1667 N1661 0.985 1_545 S
H1668 N1665 0.984 . S
H1669 N1665 0.985 . S
H1670 N1664 0.984 . S
H1671 N1664 0.984 . S
H1672 N1660 0.984 . S
H1673 N1660 0.985 . S
C1674 C1675 1.363 . S
C1674 C1680 1.379 . S
C1674 N1682 1.356 . S
C1675 C1674 1.363 . S
C1675 C1681 1.363 . S
C1676 C1677 1.363 . S
C1676 C1681 1.379 . S
C1676 N1683 1.356 . S
C1677 C1676 1.363 . S
C1677 C1680 1.363 . S
N1678 C1680 1.356 . S
N1678 H1690 0.984 . S
N1678 H1691 0.985 . S
N1679 C1681 1.356 . S
N1679 H1684 0.984 . S
N1679 H1685 0.985 . S
C1680 C1674 1.379 . S
C1680 C1677 1.363 . S
C1680 N1678 1.356 . S
C1681 C1675 1.363 . S
C1681 C1676 1.379 . S
C1681 N1679 1.356 . S
N1682 C1674 1.356 . S
N1682 H1688 0.984 . S
N1682 H1689 0.984 . S
N1683 C1676 1.356 . S
N1683 H1686 0.984 . S
N1683 H1687 0.985 . S
H1684 N1679 0.984 . S
H1685 N1679 0.985 . S
H1686 N1683 0.984 . S
H1687 N1683 0.985 . S
H1688 N1682 0.984 . S
H1689 N1682 0.984 . S
H1690 N1678 0.984 . S
H1691 N1678 0.985 . S
C1692 C1693 1.363 . S
C1692 C1698 1.379 1_655 S
C1692 N1700 1.356 . S
C1693 C1692 1.363 . S
C1693 C1699 1.363 . S
C1694 C1695 1.363 1_655 S
C1694 C1699 1.379 . S
C1694 N1701 1.356 1_655 S
C1695 C1694 1.363 1_455 S
C1695 C1698 1.363 . S
N1696 C1698 1.356 . S
N1696 H1708 0.984 . S
N1696 H1709 0.985 . S
N1697 C1699 1.356 . S
N1697 H1702 0.984 . S
N1697 H1703 0.985 . S
C1698 C1692 1.379 1_455 S
C1698 C1695 1.363 . S
C1698 N1696 1.356 . S
C1699 C1693 1.363 . S
C1699 C1694 1.379 . S
C1699 N1697 1.356 . S
N1700 C1692 1.356 . S
N1700 H1706 0.984 . S
N1700 H1707 0.984 . S
N1701 C1694 1.356 1_455 S
N1701 H1704 0.984 . S
N1701 H1705 0.985 1_455 S
H1702 N1697 0.984 . S
H1703 N1697 0.985 . S
H1704 N1701 0.984 . S
H1705 N1701 0.985 1_655 S
H1706 N1700 0.984 . S
H1707 N1700 0.984 . S
H1708 N1696 0.984 . S
H1709 N1696 0.985 . S
C1710 C1711 1.363 . S
C1710 C1716 1.379 . S
C1710 N1718 1.356 . S
C1711 C1710 1.363 . S
C1711 C1717 1.363 . S
C1712 C1713 1.363 . S
C1712 C1717 1.379 . S
C1712 N1719 1.356 . S
C1713 C1712 1.363 . S
C1713 C1716 1.363 . S
N1714 C1716 1.356 . S
N1714 H1726 0.984 . S
N1714 H1727 0.985 . S
N1715 C1717 1.356 . S
N1715 H1720 0.984 . S
N1715 H1721 0.985 . S
C1716 C1710 1.379 . S
C1716 C1713 1.363 . S
C1716 N1714 1.356 . S
C1717 C1711 1.363 . S
C1717 C1712 1.379 . S
C1717 N1715 1.356 . S
N1718 C1710 1.356 . S
N1718 H1724 0.984 . S
N1718 H1725 0.984 . S
N1719 C1712 1.356 . S
N1719 H1722 0.984 . S
N1719 H1723 0.985 . S
H1720 N1715 0.984 . S
H1721 N1715 0.985 . S
H1722 N1719 0.984 . S
H1723 N1719 0.985 . S
H1724 N1718 0.984 . S
H1725 N1718 0.984 . S
H1726 N1714 0.984 . S
H1727 N1714 0.985 . S
C1728 C1729 1.363 . S
C1728 C1734 1.379 1_545 S
C1728 N1736 1.356 . S
C1729 C1728 1.363 . S
C1729 C1735 1.363 1_545 S
C1730 C1731 1.363 . S
C1730 C1735 1.379 . S
C1730 N1737 1.356 . S
C1731 C1730 1.363 . S
C1731 C1734 1.363 . S
N1732 C1734 1.356 . S
N1732 H1744 0.984 . S
N1732 H1745 0.985 . S
N1733 C1735 1.356 1_545 S
N1733 H1738 0.984 . S
N1733 H1739 0.985 1_545 S
C1734 C1728 1.379 1_565 S
C1734 C1731 1.363 . S
C1734 N1732 1.356 . S
C1735 C1729 1.363 1_565 S
C1735 C1730 1.379 . S
C1735 N1733 1.356 1_565 S
N1736 C1728 1.356 . S
N1736 H1742 0.984 . S
N1736 H1743 0.984 . S
N1737 C1730 1.356 . S
N1737 H1740 0.984 . S
N1737 H1741 0.985 . S
H1738 N1733 0.984 . S
H1739 N1733 0.985 1_565 S
H1740 N1737 0.984 . S
H1741 N1737 0.985 . S
H1742 N1736 0.984 . S
H1743 N1736 0.984 . S
H1744 N1732 0.984 . S
H1745 N1732 0.985 . S
C1746 C1747 1.363 . S
C1746 C1752 1.379 . S
C1746 N1754 1.356 . S
C1747 C1746 1.363 . S
C1747 C1753 1.363 . S
C1748 C1749 1.363 . S
C1748 C1753 1.379 1_655 S
C1748 N1755 1.356 . S
C1749 C1748 1.363 . S
C1749 C1752 1.363 1_655 S
N1750 C1752 1.356 1_655 S
N1750 H1762 0.984 1_655 S
N1750 H1763 0.985 . S
N1751 C1753 1.356 . S
N1751 H1756 0.984 . S
N1751 H1757 0.985 . S
C1752 C1746 1.379 . S
C1752 C1749 1.363 1_455 S
C1752 N1750 1.356 1_455 S
C1753 C1747 1.363 . S
C1753 C1748 1.379 1_455 S
C1753 N1751 1.356 . S
N1754 C1746 1.356 . S
N1754 H1760 0.984 . S
N1754 H1761 0.984 . S
N1755 C1748 1.356 . S
N1755 H1758 0.984 . S
N1755 H1759 0.985 . S
H1756 N1751 0.984 . S
H1757 N1751 0.985 . S
H1758 N1755 0.984 . S
H1759 N1755 0.985 . S
H1760 N1754 0.984 . S
H1761 N1754 0.984 . S
H1762 N1750 0.984 1_455 S
H1763 N1750 0.985 . S
C1764 C1765 1.363 . S
C1764 C1770 1.379 . S
C1764 N1772 1.356 . S
C1765 C1764 1.363 . S
C1765 C1771 1.363 . S
C1766 C1767 1.363 . S
C1766 C1771 1.379 . S
C1766 N1773 1.356 . S
C1767 C1766 1.363 . S
C1767 C1770 1.363 . S
N1768 C1770 1.356 . S
N1768 H1780 0.984 . S
N1768 H1781 0.985 . S
N1769 C1771 1.356 . S
N1769 H1774 0.984 . S
N1769 H1775 0.985 . S
C1770 C1764 1.379 . S
C1770 C1767 1.363 . S
C1770 N1768 1.356 . S
C1771 C1765 1.363 . S
C1771 C1766 1.379 . S
C1771 N1769 1.356 . S
N1772 C1764 1.356 . S
N1772 H1778 0.984 . S
N1772 H1779 0.984 . S
N1773 C1766 1.356 . S
N1773 H1776 0.984 . S
N1773 H1777 0.985 . S
H1774 N1769 0.984 . S
H1775 N1769 0.985 . S
H1776 N1773 0.984 . S
H1777 N1773 0.985 . S
H1778 N1772 0.984 . S
H1779 N1772 0.984 . S
H1780 N1768 0.984 . S
H1781 N1768 0.985 . S
C1782 C1783 1.363 . S
C1782 C1788 1.379 1_545 S
C1782 N1790 1.356 . S
C1783 C1782 1.363 . S
C1783 C1789 1.363 . S
C1784 C1785 1.363 . S
C1784 C1789 1.379 1_565 S
C1784 N1791 1.356 . S
C1785 C1784 1.363 . S
C1785 C1788 1.363 . S
N1786 C1788 1.356 . S
N1786 H1798 0.984 . S
N1786 H1799 0.985 . S
N1787 C1789 1.356 . S
N1787 H1792 0.984 . S
N1787 H1793 0.985 1_545 S
C1788 C1782 1.379 1_565 S
C1788 C1785 1.363 . S
C1788 N1786 1.356 . S
C1789 C1783 1.363 . S
C1789 C1784 1.379 1_545 S
C1789 N1787 1.356 . S
N1790 C1782 1.356 . S
N1790 H1796 0.984 . S
N1790 H1797 0.984 . S
N1791 C1784 1.356 . S
N1791 H1794 0.984 . S
N1791 H1795 0.985 . S
H1792 N1787 0.984 . S
H1793 N1787 0.985 1_565 S
H1794 N1791 0.984 . S
H1795 N1791 0.985 . S
H1796 N1790 0.984 . S
H1797 N1790 0.984 . S
H1798 N1786 0.984 . S
H1799 N1786 0.985 . S
C1800 C1801 1.363 . S
C1800 C1806 1.379 1_565 S
C1800 N1808 1.356 . S
C1801 C1800 1.363 . S
C1801 C1807 1.363 1_565 S
C1802 C1803 1.363 . S
C1802 C1807 1.379 . S
C1802 N1809 1.356 . S
C1803 C1802 1.363 . S
C1803 C1806 1.363 . S
N1804 C1806 1.356 . S
N1804 H1816 0.984 . S
N1804 H1817 0.985 . S
N1805 C1807 1.356 1_565 S
N1805 H1810 0.984 . S
N1805 H1811 0.985 1_565 S
C1806 C1800 1.379 1_545 S
C1806 C1803 1.363 . S
C1806 N1804 1.356 . S
C1807 C1801 1.363 1_545 S
C1807 C1802 1.379 . S
C1807 N1805 1.356 1_545 S
N1808 C1800 1.356 . S
N1808 H1814 0.984 . S
N1808 H1815 0.984 . S
N1809 C1802 1.356 . S
N1809 H1812 0.984 . S
N1809 H1813 0.985 . S
H1810 N1805 0.984 . S
H1811 N1805 0.985 1_545 S
H1812 N1809 0.984 . S
H1813 N1809 0.985 . S
H1814 N1808 0.984 . S
H1815 N1808 0.984 . S
H1816 N1804 0.984 . S
H1817 N1804 0.985 . S
C1818 C1819 1.363 . S
C1818 C1824 1.379 1_455 S
C1818 N1826 1.356 . S
C1819 C1818 1.363 . S
C1819 C1825 1.363 . S
C1820 C1821 1.363 . S
C1820 C1825 1.379 1_655 S
C1820 N1827 1.356 . S
C1821 C1820 1.363 . S
C1821 C1824 1.363 . S
N1822 C1824 1.356 . S
N1822 H1834 0.984 . S
N1822 H1835 0.985 . S
N1823 C1825 1.356 . S
N1823 H1828 0.984 . S
N1823 H1829 0.985 . S
C1824 C1818 1.379 1_655 S
C1824 C1821 1.363 . S
C1824 N1822 1.356 . S
C1825 C1819 1.363 . S
C1825 C1820 1.379 1_455 S
C1825 N1823 1.356 . S
N1826 C1818 1.356 . S
N1826 H1832 0.984 . S
N1826 H1833 0.984 . S
N1827 C1820 1.356 . S
N1827 H1830 0.984 . S
N1827 H1831 0.985 . S
H1828 N1823 0.984 . S
H1829 N1823 0.985 . S
H1830 N1827 0.984 . S
H1831 N1827 0.985 . S
H1832 N1826 0.984 . S
H1833 N1826 0.984 . S
H1834 N1822 0.984 . S
H1835 N1822 0.985 . S
C1836 C1837 1.363 . S
C1836 C1842 1.379 . S
C1836 N1844 1.356 . S
C1837 C1836 1.363 . S
C1837 C1843 1.363 . S
C1838 C1839 1.363 . S
C1838 C1843 1.379 . S
C1838 N1845 1.356 . S
C1839 C1838 1.363 . S
C1839 C1842 1.363 . S
N1840 C1842 1.356 . S
N1840 H1852 0.984 . S
N1840 H1853 0.985 . S
N1841 C1843 1.356 . S
N1841 H1846 0.984 . S
N1841 H1847 0.985 . S
C1842 C1836 1.379 . S
C1842 C1839 1.363 . S
C1842 N1840 1.356 . S
C1843 C1837 1.363 . S
C1843 C1838 1.379 . S
C1843 N1841 1.356 . S
N1844 C1836 1.356 . S
N1844 H1850 0.984 . S
N1844 H1851 0.984 . S
N1845 C1838 1.356 . S
N1845 H1848 0.984 . S
N1845 H1849 0.985 . S
H1846 N1841 0.984 . S
H1847 N1841 0.985 . S
H1848 N1845 0.984 . S
H1849 N1845 0.985 . S
H1850 N1844 0.984 . S
H1851 N1844 0.984 . S
H1852 N1840 0.984 . S
H1853 N1840 0.985 . S
C1854 C1855 1.363 . S
C1854 C1860 1.379 . S
C1854 N1862 1.356 . S
C1855 C1854 1.363 . S
C1855 C1861 1.363 . S
C1856 C1857 1.363 . S
C1856 C1861 1.379 . S
C1856 N1863 1.356 . S
C1857 C1856 1.363 . S
C1857 C1860 1.363 . S
N1858 C1860 1.356 . S
N1858 H1870 0.984 . S
N1858 H1871 0.985 . S
N1859 C1861 1.356 . S
N1859 H1864 0.984 . S
N1859 H1865 0.985 . S
C1860 C1854 1.379 . S
C1860 C1857 1.363 . S
C1860 N1858 1.356 . S
C1861 C1855 1.363 . S
C1861 C1856 1.379 . S
C1861 N1859 1.356 . S
N1862 C1854 1.356 . S
N1862 H1868 0.984 . S
N1862 H1869 0.984 . S
N1863 C1856 1.356 . S
N1863 H1866 0.984 . S
N1863 H1867 0.985 . S
H1864 N1859 0.984 . S
H1865 N1859 0.985 . S
H1866 N1863 0.984 . S
H1867 N1863 0.985 . S
H1868 N1862 0.984 . S
H1869 N1862 0.984 . S
H1870 N1858 0.984 . S
H1871 N1858 0.985 . S
C1872 C1873 1.363 . S
C1872 C1878 1.379 . S
C1872 N1880 1.356 . S
C1873 C1872 1.363 . S
C1873 C1879 1.363 . S
C1874 C1875 1.363 . S
C1874 C1879 1.379 . S
C1874 N1881 1.356 . S
C1875 C1874 1.363 . S
C1875 C1878 1.363 . S
N1876 C1878 1.356 . S
N1876 H1888 0.984 . S
N1876 H1889 0.985 . S
N1877 C1879 1.356 . S
N1877 H1882 0.984 . S
N1877 H1883 0.985 . S
C1878 C1872 1.379 . S
C1878 C1875 1.363 . S
C1878 N1876 1.356 . S
C1879 C1873 1.363 . S
C1879 C1874 1.379 . S
C1879 N1877 1.356 . S
N1880 C1872 1.356 . S
N1880 H1886 0.984 . S
N1880 H1887 0.984 . S
N1881 C1874 1.356 . S
N1881 H1884 0.984 . S
N1881 H1885 0.985 . S
H1882 N1877 0.984 . S
H1883 N1877 0.985 . S
H1884 N1881 0.984 . S
H1885 N1881 0.985 . S
H1886 N1880 0.984 . S
H1887 N1880 0.984 . S
H1888 N1876 0.984 . S
H1889 N1876 0.985 . S
C1890 C1891 1.363 . S
C1890 C1896 1.379 . S
C1890 N1898 1.356 . S
C1891 C1890 1.363 . S
C1891 C1897 1.363 . S
C1892 C1893 1.363 . S
C1892 C1897 1.379 . S
C1892 N1899 1.356 . S
C1893 C1892 1.363 . S
C1893 C1896 1.363 . S
N1894 C1896 1.356 . S
N1894 H1906 0.984 . S
N1894 H1907 0.985 . S
N1895 C1897 1.356 . S
N1895 H1900 0.984 . S
N1895 H1901 0.985 . S
C1896 C1890 1.379 . S
C1896 C1893 1.363 . S
C1896 N1894 1.356 . S
C1897 C1891 1.363 . S
C1897 C1892 1.379 . S
C1897 N1895 1.356 . S
N1898 C1890 1.356 . S
N1898 H1904 0.984 . S
N1898 H1905 0.984 . S
N1899 C1892 1.356 . S
N1899 H1902 0.984 . S
N1899 H1903 0.985 . S
H1900 N1895 0.984 . S
H1901 N1895 0.985 . S
H1902 N1899 0.984 . S
H1903 N1899 0.985 . S
H1904 N1898 0.984 . S
H1905 N1898 0.984 . S
H1906 N1894 0.984 . S
H1907 N1894 0.985 . S
C1908 C1909 1.363 . S
C1908 C1914 1.379 . S
C1908 N1916 1.356 . S
C1909 C1908 1.363 . S
C1909 C1915 1.363 . S
C1910 C1911 1.363 . S
C1910 C1915 1.379 . S
C1910 N1917 1.356 . S
C1911 C1910 1.363 . S
C1911 C1914 1.363 . S
N1912 C1914 1.356 . S
N1912 H1924 0.984 . S
N1912 H1925 0.985 . S
N1913 C1915 1.356 . S
N1913 H1918 0.984 . S
N1913 H1919 0.985 . S
C1914 C1908 1.379 . S
C1914 C1911 1.363 . S
C1914 N1912 1.356 . S
C1915 C1909 1.363 . S
C1915 C1910 1.379 . S
C1915 N1913 1.356 . S
N1916 C1908 1.356 . S
N1916 H1922 0.984 . S
N1916 H1923 0.984 . S
N1917 C1910 1.356 . S
N1917 H1920 0.984 . S
N1917 H1921 0.985 . S
H1918 N1913 0.984 . S
H1919 N1913 0.985 . S
H1920 N1917 0.984 . S
H1921 N1917 0.985 . S
H1922 N1916 0.984 . S
H1923 N1916 0.984 . S
H1924 N1912 0.984 . S
H1925 N1912 0.985 . S
C1926 C1927 1.363 . S
C1926 C1932 1.379 . S
C1926 N1934 1.356 . S
C1927 C1926 1.363 . S
C1927 C1933 1.363 . S
C1928 C1929 1.363 . S
C1928 C1933 1.379 . S
C1928 N1935 1.356 . S
C1929 C1928 1.363 . S
C1929 C1932 1.363 . S
N1930 C1932 1.356 . S
N1930 H1942 0.984 . S
N1930 H1943 0.985 . S
N1931 C1933 1.356 . S
N1931 H1936 0.984 . S
N1931 H1937 0.985 . S
C1932 C1926 1.379 . S
C1932 C1929 1.363 . S
C1932 N1930 1.356 . S
C1933 C1927 1.363 . S
C1933 C1928 1.379 . S
C1933 N1931 1.356 . S
N1934 C1926 1.356 . S
N1934 H1940 0.984 . S
N1934 H1941 0.984 . S
N1935 C1928 1.356 . S
N1935 H1938 0.984 . S
N1935 H1939 0.985 . S
H1936 N1931 0.984 . S
H1937 N1931 0.985 . S
H1938 N1935 0.984 . S
H1939 N1935 0.985 . S
H1940 N1934 0.984 . S
H1941 N1934 0.984 . S
H1942 N1930 0.984 . S
H1943 N1930 0.985 . S
C1944 C1945 1.363 . S
C1944 C1950 1.379 . S
C1944 N1952 1.356 . S
C1945 C1944 1.363 . S
C1945 C1951 1.363 . S
C1946 C1947 1.363 . S
C1946 C1951 1.379 . S
C1946 N1953 1.356 . S
C1947 C1946 1.363 . S
C1947 C1950 1.363 . S
N1948 C1950 1.356 . S
N1948 H1960 0.984 . S
N1948 H1961 0.985 . S
N1949 C1951 1.356 . S
N1949 H1954 0.984 . S
N1949 H1955 0.985 . S
C1950 C1944 1.379 . S
C1950 C1947 1.363 . S
C1950 N1948 1.356 . S
C1951 C1945 1.363 . S
C1951 C1946 1.379 . S
C1951 N1949 1.356 . S
N1952 C1944 1.356 . S
N1952 H1958 0.984 . S
N1952 H1959 0.984 . S
N1953 C1946 1.356 . S
N1953 H1956 0.984 . S
N1953 H1957 0.985 . S
H1954 N1949 0.984 . S
H1955 N1949 0.985 . S
H1956 N1953 0.984 . S
H1957 N1953 0.985 . S
H1958 N1952 0.984 . S
H1959 N1952 0.984 . S
H1960 N1948 0.984 . S
H1961 N1948 0.985 . S
C1962 C1963 1.363 . S
C1962 C1968 1.379 . S
C1962 N1970 1.356 . S
C1963 C1962 1.363 . S
C1963 C1969 1.363 . S
C1964 C1965 1.363 . S
C1964 C1969 1.379 . S
C1964 N1971 1.356 . S
C1965 C1964 1.363 . S
C1965 C1968 1.363 . S
N1966 C1968 1.356 . S
N1966 H1978 0.984 . S
N1966 H1979 0.985 . S
N1967 C1969 1.356 . S
N1967 H1972 0.984 . S
N1967 H1973 0.985 . S
C1968 C1962 1.379 . S
C1968 C1965 1.363 . S
C1968 N1966 1.356 . S
C1969 C1963 1.363 . S
C1969 C1964 1.379 . S
C1969 N1967 1.356 . S
N1970 C1962 1.356 . S
N1970 H1976 0.984 . S
N1970 H1977 0.984 . S
N1971 C1964 1.356 . S
N1971 H1974 0.984 . S
N1971 H1975 0.985 . S
H1972 N1967 0.984 . S
H1973 N1967 0.985 . S
H1974 N1971 0.984 . S
H1975 N1971 0.985 . S
H1976 N1970 0.984 . S
H1977 N1970 0.984 . S
H1978 N1966 0.984 . S
H1979 N1966 0.985 . S
C1980 C1981 1.363 . S
C1980 C1986 1.379 . S
C1980 N1988 1.356 . S
C1981 C1980 1.363 . S
C1981 C1987 1.363 . S
C1982 C1983 1.363 . S
C1982 C1987 1.379 . S
C1982 N1989 1.356 . S
C1983 C1982 1.363 . S
C1983 C1986 1.363 . S
N1984 C1986 1.356 . S
N1984 H1996 0.984 . S
N1984 H1997 0.985 . S
N1985 C1987 1.356 . S
N1985 H1990 0.984 . S
N1985 H1991 0.985 . S
C1986 C1980 1.379 . S
C1986 C1983 1.363 . S
C1986 N1984 1.356 . S
C1987 C1981 1.363 . S
C1987 C1982 1.379 . S
C1987 N1985 1.356 . S
N1988 C1980 1.356 . S
N1988 H1994 0.984 . S
N1988 H1995 0.984 . S
N1989 C1982 1.356 . S
N1989 H1992 0.984 . S
N1989 H1993 0.985 . S
H1990 N1985 0.984 . S
H1991 N1985 0.985 . S
H1992 N1989 0.984 . S
H1993 N1989 0.985 . S
H1994 N1988 0.984 . S
H1995 N1988 0.984 . S
H1996 N1984 0.984 . S
H1997 N1984 0.985 . S
C1998 C1999 1.363 . S
C1998 C2004 1.379 . S
C1998 N2006 1.356 . S
C1999 C1998 1.363 . S
C1999 C2005 1.363 . S
C2000 C2001 1.363 . S
C2000 C2005 1.379 . S
C2000 N2007 1.356 . S
C2001 C2000 1.363 . S
C2001 C2004 1.363 . S
N2002 C2004 1.356 . S
N2002 H2014 0.984 . S
N2002 H2015 0.985 . S
N2003 C2005 1.356 . S
N2003 H2008 0.984 . S
N2003 H2009 0.985 . S
C2004 C1998 1.379 . S
C2004 C2001 1.363 . S
C2004 N2002 1.356 . S
C2005 C1999 1.363 . S
C2005 C2000 1.379 . S
C2005 N2003 1.356 . S
N2006 C1998 1.356 . S
N2006 H2012 0.984 . S
N2006 H2013 0.984 . S
N2007 C2000 1.356 . S
N2007 H2010 0.984 . S
N2007 H2011 0.985 . S
H2008 N2003 0.984 . S
H2009 N2003 0.985 . S
H2010 N2007 0.984 . S
H2011 N2007 0.985 . S
H2012 N2006 0.984 . S
H2013 N2006 0.984 . S
H2014 N2002 0.984 . S
H2015 N2002 0.985 . S
C2016 C2017 1.363 . S
C2016 C2022 1.379 . S
C2016 N2024 1.356 . S
C2017 C2016 1.363 . S
C2017 C2023 1.363 . S
C2018 C2019 1.363 . S
C2018 C2023 1.379 . S
C2018 N2025 1.356 . S
C2019 C2018 1.363 . S
C2019 C2022 1.363 . S
N2020 C2022 1.356 . S
N2020 H2032 0.984 . S
N2020 H2033 0.985 . S
N2021 C2023 1.356 . S
N2021 H2026 0.984 . S
N2021 H2027 0.985 . S
C2022 C2016 1.379 . S
C2022 C2019 1.363 . S
C2022 N2020 1.356 . S
C2023 C2017 1.363 . S
C2023 C2018 1.379 . S
C2023 N2021 1.356 . S
N2024 C2016 1.356 . S
N2024 H2030 0.984 . S
N2024 H2031 0.984 . S
N2025 C2018 1.356 . S
N2025 H2028 0.984 . S
N2025 H2029 0.985 . S
H2026 N2021 0.984 . S
H2027 N2021 0.985 . S
H2028 N2025 0.984 . S
H2029 N2025 0.985 . S
H2030 N2024 0.984 . S
H2031 N2024 0.984 . S
H2032 N2020 0.984 . S
H2033 N2020 0.985 . S
C2034 C2035 1.363 . S
C2034 C2040 1.379 . S
C2034 N2042 1.356 . S
C2035 C2034 1.363 . S
C2035 C2041 1.363 . S
C2036 C2037 1.363 . S
C2036 C2041 1.379 . S
C2036 N2043 1.356 . S
C2037 C2036 1.363 . S
C2037 C2040 1.363 . S
N2038 C2040 1.356 . S
N2038 H2050 0.984 . S
N2038 H2051 0.985 . S
N2039 C2041 1.356 . S
N2039 H2044 0.984 . S
N2039 H2045 0.985 . S
C2040 C2034 1.379 . S
C2040 C2037 1.363 . S
C2040 N2038 1.356 . S
C2041 C2035 1.363 . S
C2041 C2036 1.379 . S
C2041 N2039 1.356 . S
N2042 C2034 1.356 . S
N2042 H2048 0.984 . S
N2042 H2049 0.984 . S
N2043 C2036 1.356 . S
N2043 H2046 0.984 . S
N2043 H2047 0.985 . S
H2044 N2039 0.984 . S
H2045 N2039 0.985 . S
H2046 N2043 0.984 . S
H2047 N2043 0.985 . S
H2048 N2042 0.984 . S
H2049 N2042 0.984 . S
H2050 N2038 0.984 . S
H2051 N2038 0.985 . S
C2052 C2053 1.363 . S
C2052 C2058 1.379 . S
C2052 N2060 1.356 . S
C2053 C2052 1.363 . S
C2053 C2059 1.363 . S
C2054 C2055 1.363 . S
C2054 C2059 1.379 . S
C2054 N2061 1.356 . S
C2055 C2054 1.363 . S
C2055 C2058 1.363 . S
N2056 C2058 1.356 . S
N2056 H2068 0.984 . S
N2056 H2069 0.985 . S
N2057 C2059 1.356 . S
N2057 H2062 0.984 . S
N2057 H2063 0.985 . S
C2058 C2052 1.379 . S
C2058 C2055 1.363 . S
C2058 N2056 1.356 . S
C2059 C2053 1.363 . S
C2059 C2054 1.379 . S
C2059 N2057 1.356 . S
N2060 C2052 1.356 . S
N2060 H2066 0.984 . S
N2060 H2067 0.984 . S
N2061 C2054 1.356 . S
N2061 H2064 0.984 . S
N2061 H2065 0.985 . S
H2062 N2057 0.984 . S
H2063 N2057 0.985 . S
H2064 N2061 0.984 . S
H2065 N2061 0.985 . S
H2066 N2060 0.984 . S
H2067 N2060 0.984 . S
H2068 N2056 0.984 . S
H2069 N2056 0.985 . S
C2070 C2071 1.363 . S
C2070 C2076 1.379 1_554 S
C2070 N2078 1.356 . S
C2071 C2070 1.363 . S
C2071 C2077 1.363 . S
C2072 C2073 1.363 . S
C2072 C2077 1.379 1_556 S
C2072 N2079 1.356 . S
C2073 C2072 1.363 . S
C2073 C2076 1.363 . S
N2074 C2076 1.356 . S
N2074 H2086 0.984 . S
N2074 H2087 0.985 . S
N2075 C2077 1.356 . S
N2075 H2080 0.984 . S
N2075 H2081 0.985 . S
C2076 C2070 1.379 1_556 S
C2076 C2073 1.363 . S
C2076 N2074 1.356 . S
C2077 C2071 1.363 . S
C2077 C2072 1.379 1_554 S
C2077 N2075 1.356 . S
N2078 C2070 1.356 . S
N2078 H2084 0.984 . S
N2078 H2085 0.984 . S
N2079 C2072 1.356 . S
N2079 H2082 0.984 . S
N2079 H2083 0.985 . S
H2080 N2075 0.984 . S
H2081 N2075 0.985 . S
H2082 N2079 0.984 . S
H2083 N2079 0.985 . S
H2084 N2078 0.984 . S
H2085 N2078 0.984 . S
H2086 N2074 0.984 . S
H2087 N2074 0.985 . S
C2088 C2089 1.363 . S
C2088 C2094 1.379 1_556 S
C2088 N2096 1.356 . S
C2089 C2088 1.363 . S
C2089 C2095 1.363 1_545 S
C2090 C2091 1.363 . S
C2090 C2095 1.379 1_554 S
C2090 N2097 1.356 . S
C2091 C2090 1.363 . S
C2091 C2094 1.363 1_565 S
N2092 C2094 1.356 . S
N2092 H2104 0.984 . S
N2092 H2105 0.985 . S
N2093 C2095 1.356 . S
N2093 H2098 0.984 . S
N2093 H2099 0.985 . S
C2094 C2088 1.379 1_554 S
C2094 C2091 1.363 1_545 S
C2094 N2092 1.356 . S
C2095 C2089 1.363 1_565 S
C2095 C2090 1.379 1_556 S
C2095 N2093 1.356 . S
N2096 C2088 1.356 . S
N2096 H2102 0.984 . S
N2096 H2103 0.984 . S
N2097 C2090 1.356 . S
N2097 H2100 0.984 . S
N2097 H2101 0.985 . S
H2098 N2093 0.984 . S
H2099 N2093 0.985 . S
H2100 N2097 0.984 . S
H2101 N2097 0.985 . S
H2102 N2096 0.984 . S
H2103 N2096 0.984 . S
H2104 N2092 0.984 . S
H2105 N2092 0.985 . S
C2106 C2107 1.363 . S
C2106 C2112 1.379 1_556 S
C2106 N2114 1.356 . S
C2107 C2106 1.363 . S
C2107 C2113 1.363 1_655 S
C2108 C2109 1.363 . S
C2108 C2113 1.379 1_554 S
C2108 N2115 1.356 . S
C2109 C2108 1.363 . S
C2109 C2112 1.363 1_455 S
N2110 C2112 1.356 . S
N2110 H2122 0.984 . S
N2110 H2123 0.985 . S
N2111 C2113 1.356 . S
N2111 H2116 0.984 . S
N2111 H2117 0.985 . S
C2112 C2106 1.379 1_554 S
C2112 C2109 1.363 1_655 S
C2112 N2110 1.356 . S
C2113 C2107 1.363 1_455 S
C2113 C2108 1.379 1_556 S
C2113 N2111 1.356 . S
N2114 C2106 1.356 . S
N2114 H2120 0.984 . S
N2114 H2121 0.984 . S
N2115 C2108 1.356 . S
N2115 H2118 0.984 . S
N2115 H2119 0.985 . S
H2116 N2111 0.984 . S
H2117 N2111 0.985 . S
H2118 N2115 0.984 . S
H2119 N2115 0.985 . S
H2120 N2114 0.984 . S
H2121 N2114 0.984 . S
H2122 N2110 0.984 . S
H2123 N2110 0.985 . S
C2124 C2125 1.363 . S
C2124 C2130 1.379 . S
C2124 N2132 1.356 . S
C2125 C2124 1.363 . S
C2125 C2131 1.363 . S
C2126 C2127 1.363 . S
C2126 C2131 1.379 . S
C2126 N2133 1.356 . S
C2127 C2126 1.363 . S
C2127 C2130 1.363 . S
N2128 C2130 1.356 . S
N2128 H2140 0.984 . S
N2128 H2141 0.985 . S
N2129 C2131 1.356 . S
N2129 H2134 0.984 . S
N2129 H2135 0.985 . S
C2130 C2124 1.379 . S
C2130 C2127 1.363 . S
C2130 N2128 1.356 . S
C2131 C2125 1.363 . S
C2131 C2126 1.379 . S
C2131 N2129 1.356 . S
N2132 C2124 1.356 . S
N2132 H2138 0.984 . S
N2132 H2139 0.984 . S
N2133 C2126 1.356 . S
N2133 H2136 0.984 . S
N2133 H2137 0.985 . S
H2134 N2129 0.984 . S
H2135 N2129 0.985 . S
H2136 N2133 0.984 . S
H2137 N2133 0.985 . S
H2138 N2132 0.984 . S
H2139 N2132 0.984 . S
H2140 N2128 0.984 . S
H2141 N2128 0.985 . S
C2142 C2143 1.363 . S
C2142 C2148 1.379 . S
C2142 N2150 1.356 . S
C2143 C2142 1.363 . S
C2143 C2149 1.363 . S
C2144 C2145 1.363 . S
C2144 C2149 1.379 . S
C2144 N2151 1.356 . S
C2145 C2144 1.363 . S
C2145 C2148 1.363 . S
N2146 C2148 1.356 . S
N2146 H2158 0.984 . S
N2146 H2159 0.985 . S
N2147 C2149 1.356 . S
N2147 H2152 0.984 . S
N2147 H2153 0.985 . S
C2148 C2142 1.379 . S
C2148 C2145 1.363 . S
C2148 N2146 1.356 . S
C2149 C2143 1.363 . S
C2149 C2144 1.379 . S
C2149 N2147 1.356 . S
N2150 C2142 1.356 . S
N2150 H2156 0.984 . S
N2150 H2157 0.984 . S
N2151 C2144 1.356 . S
N2151 H2154 0.984 . S
N2151 H2155 0.985 . S
H2152 N2147 0.984 . S
H2153 N2147 0.985 . S
H2154 N2151 0.984 . S
H2155 N2151 0.985 . S
H2156 N2150 0.984 . S
H2157 N2150 0.984 . S
H2158 N2146 0.984 . S
H2159 N2146 0.985 . S
C2160 C2161 1.363 . S
C2160 C2166 1.379 . S
C2160 N2168 1.356 . S
C2161 C2160 1.363 . S
C2161 C2167 1.363 . S
C2162 C2163 1.363 . S
C2162 C2167 1.379 . S
C2162 N2169 1.356 . S
C2163 C2162 1.363 . S
C2163 C2166 1.363 . S
N2164 C2166 1.356 . S
N2164 H2176 0.984 . S
N2164 H2177 0.985 . S
N2165 C2167 1.356 . S
N2165 H2170 0.984 . S
N2165 H2171 0.985 . S
C2166 C2160 1.379 . S
C2166 C2163 1.363 . S
C2166 N2164 1.356 . S
C2167 C2161 1.363 . S
C2167 C2162 1.379 . S
C2167 N2165 1.356 . S
N2168 C2160 1.356 . S
N2168 H2174 0.984 . S
N2168 H2175 0.984 . S
N2169 C2162 1.356 . S
N2169 H2172 0.984 . S
N2169 H2173 0.985 . S
H2170 N2165 0.984 . S
H2171 N2165 0.985 . S
H2172 N2169 0.984 . S
H2173 N2169 0.985 . S
H2174 N2168 0.984 . S
H2175 N2168 0.984 . S
H2176 N2164 0.984 . S
H2177 N2164 0.985 . S
C2178 C2179 1.363 . S
C2178 C2184 1.379 . S
C2178 N2186 1.356 . S
C2179 C2178 1.363 . S
C2179 C2185 1.363 . S
C2180 C2181 1.363 . S
C2180 C2185 1.379 . S
C2180 N2187 1.356 . S
C2181 C2180 1.363 . S
C2181 C2184 1.363 . S
N2182 C2184 1.356 . S
N2182 H2194 0.984 . S
N2182 H2195 0.985 . S
N2183 C2185 1.356 . S
N2183 H2188 0.984 . S
N2183 H2189 0.985 . S
C2184 C2178 1.379 . S
C2184 C2181 1.363 . S
C2184 N2182 1.356 . S
C2185 C2179 1.363 . S
C2185 C2180 1.379 . S
C2185 N2183 1.356 . S
N2186 C2178 1.356 . S
N2186 H2192 0.984 . S
N2186 H2193 0.984 . S
N2187 C2180 1.356 . S
N2187 H2190 0.984 . S
N2187 H2191 0.985 . S
H2188 N2183 0.984 . S
H2189 N2183 0.985 . S
H2190 N2187 0.984 . S
H2191 N2187 0.985 . S
H2192 N2186 0.984 . S
H2193 N2186 0.984 . S
H2194 N2182 0.984 . S
H2195 N2182 0.985 . S
C2196 C2197 1.363 . S
C2196 C2202 1.379 . S
C2196 N2204 1.356 . S
C2197 C2196 1.363 . S
C2197 C2203 1.363 . S
C2198 C2199 1.363 . S
C2198 C2203 1.379 . S
C2198 N2205 1.356 . S
C2199 C2198 1.363 . S
C2199 C2202 1.363 . S
N2200 C2202 1.356 . S
N2200 H2212 0.984 . S
N2200 H2213 0.985 . S
N2201 C2203 1.356 . S
N2201 H2206 0.984 . S
N2201 H2207 0.985 . S
C2202 C2196 1.379 . S
C2202 C2199 1.363 . S
C2202 N2200 1.356 . S
C2203 C2197 1.363 . S
C2203 C2198 1.379 . S
C2203 N2201 1.356 . S
N2204 C2196 1.356 . S
N2204 H2210 0.984 . S
N2204 H2211 0.984 . S
N2205 C2198 1.356 . S
N2205 H2208 0.984 . S
N2205 H2209 0.985 . S
H2206 N2201 0.984 . S
H2207 N2201 0.985 . S
H2208 N2205 0.984 . S
H2209 N2205 0.985 . S
H2210 N2204 0.984 . S
H2211 N2204 0.984 . S
H2212 N2200 0.984 . S
H2213 N2200 0.985 . S
C2214 C2215 1.363 . S
C2214 C2220 1.379 . S
C2214 N2222 1.356 . S
C2215 C2214 1.363 . S
C2215 C2221 1.363 . S
C2216 C2217 1.363 . S
C2216 C2221 1.379 . S
C2216 N2223 1.356 . S
C2217 C2216 1.363 . S
C2217 C2220 1.363 . S
N2218 C2220 1.356 . S
N2218 H2230 0.984 . S
N2218 H2231 0.985 . S
N2219 C2221 1.356 . S
N2219 H2224 0.984 . S
N2219 H2225 0.985 . S
C2220 C2214 1.379 . S
C2220 C2217 1.363 . S
C2220 N2218 1.356 . S
C2221 C2215 1.363 . S
C2221 C2216 1.379 . S
C2221 N2219 1.356 . S
N2222 C2214 1.356 . S
N2222 H2228 0.984 . S
N2222 H2229 0.984 . S
N2223 C2216 1.356 . S
N2223 H2226 0.984 . S
N2223 H2227 0.985 . S
H2224 N2219 0.984 . S
H2225 N2219 0.985 . S
H2226 N2223 0.984 . S
H2227 N2223 0.985 . S
H2228 N2222 0.984 . S
H2229 N2222 0.984 . S
H2230 N2218 0.984 . S
H2231 N2218 0.985 . S
C1585 C900 0.966 . S
C1587 C29 0.963 . S
C1603 C145 0.942 . S
C1605 C1017 0.932 . S
C1621 C812 0.944 . S
C1623 C233 0.953 . S
C1639 C1289 0.966 . S
C1641 C284 0.963 . S
C1657 C372 0.952 . S
C1659 C1085 0.943 . S
C1675 C1201 0.936 . S
C1677 C497 0.939 . S
C1693 C548 0.987 . S
C1695 C1465 0.991 . S
C1711 C1545 0.984 . S
C1713 C673 0.984 . S
C1729 C761 0.991 . S
C1731 C1340 0.987 . S
C1747 C57 1.230 . S
C1749 C108 1.441 . S
C1765 C117 1.188 . S
C1767 C196 1.360 . S
C1783 C49 1.436 . S
C1785 C205 1.235 . S
C1801 C460 1.443 . S
C1803 C313 1.230 . S
C1819 C321 1.436 . S
C1821 C401 1.235 . S
C1837 C469 1.188 . S
C1839 C409 1.360 . S
C1855 C577 1.261 . S
C1857 C636 1.486 . S
C1873 C645 1.239 . S
C1875 C724 1.455 . S
C1891 C585 1.438 . S
C1893 C733 1.232 . S
C1909 C997 1.490 . S
C1911 C841 1.269 . S
C1927 C849 1.429 . S
C1929 C929 1.221 . S
C1945 C937 1.457 . S
C1947 C988 1.238 . S
C1963 C1164 1.490 . S
C1965 C1113 1.269 . S
C1981 C1252 1.457 . S
C1983 C1173 1.238 . S
C1999 C1105 1.429 . S
C2001 C1261 1.221 . S
C2017 C1369 1.261 . S
C2019 C1525 1.486 . S
C2035 C1437 1.232 . S
C2037 C1377 1.438 . S
C2053 C1516 1.239 . S
C2055 C1428 1.455 . S
C2071 C20 1.671 . S
C2073 C293 1.671 . S
C2089 C381 1.624 . S
C2091 C137 1.611 . S
C2107 C489 1.612 . S
C2109 C225 1.624 . S
C2125 C821 1.675 . S
C2127 C557 1.678 . S
C2143 C909 1.653 . S
C2145 C665 1.654 . S
C2161 C753 1.674 . S
C2163 C1025 1.674 . S
C2179 C1349 1.678 . S
C2181 C1076 1.675 . S
C2197 C1457 1.674 . S
C2199 C1193 1.674 . S
C2215 C1553 1.654 . S
C2217 C1281 1.652 . S
