# Generated by pormake.
# Topology uke, (4)-cn, num edge types: 1
# Building blocks:
#     Node 0, Type 0, BuildingBlock: KUFVIS_clean_sbu_0, # of connection points: 4
#     Node 1, Type 0, BuildingBlock: KUFVIS_clean_sbu_0, # of connection points: 4
#     Node 2, Type 0, BuildingBlock: KUFVIS_clean_sbu_0, # of connection points: 4
#     Node 3, Type 0, BuildingBlock: KUFVIS_clean_sbu_0, # of connection points: 4
#     Node 4, Type 0, BuildingBlock: KUFVIS_clean_sbu_0, # of connection points: 4
#     Node 5, Type 0, BuildingBlock: KUFVIS_clean_sbu_0, # of connection points: 4
#     Node 6, Type 0, BuildingBlock: KUFVIS_clean_sbu_0, # of connection points: 4
#     Node 7, Type 0, BuildingBlock: KUFVIS_clean_sbu_0, # of connection points: 4
#     Node 8, Type 0, BuildingBlock: KUFVIS_clean_sbu_0, # of connection points: 4
#     Node 9, Type 0, BuildingBlock: KUFVIS_clean_sbu_0, # of connection points: 4
#     Node 10, Type 0, BuildingBlock: KUFVIS_clean_sbu_0, # of connection points: 4
#     Node 11, Type 0, BuildingBlock: KUFVIS_clean_sbu_0, # of connection points: 4
#     Node 12, Type 0, BuildingBlock: KUFVIS_clean_sbu_0, # of connection points: 4
#     Node 13, Type 0, BuildingBlock: KUFVIS_clean_sbu_0, # of connection points: 4
#     Node 14, Type 0, BuildingBlock: KUFVIS_clean_sbu_0, # of connection points: 4
#     Node 15, Type 0, BuildingBlock: KUFVIS_clean_sbu_0, # of connection points: 4
#     Node 16, Type 0, BuildingBlock: KUFVIS_clean_sbu_0, # of connection points: 4
#     Node 17, Type 0, BuildingBlock: KUFVIS_clean_sbu_0, # of connection points: 4
#     Node 18, Type 0, BuildingBlock: KUFVIS_clean_sbu_0, # of connection points: 4
#     Node 19, Type 0, BuildingBlock: KUFVIS_clean_sbu_0, # of connection points: 4
#     Node 20, Type 0, BuildingBlock: KUFVIS_clean_sbu_0, # of connection points: 4
#     Node 21, Type 0, BuildingBlock: KUFVIS_clean_sbu_0, # of connection points: 4
#     Node 22, Type 0, BuildingBlock: KUFVIS_clean_sbu_0, # of connection points: 4
#     Node 23, Type 0, BuildingBlock: KUFVIS_clean_sbu_0, # of connection points: 4
#     Node 24, Type 0, BuildingBlock: KUFVIS_clean_sbu_0, # of connection points: 4
#     Node 25, Type 0, BuildingBlock: KUFVIS_clean_sbu_0, # of connection points: 4
#     Node 26, Type 0, BuildingBlock: KUFVIS_clean_sbu_0, # of connection points: 4
#     Node 27, Type 0, BuildingBlock: KUFVIS_clean_sbu_0, # of connection points: 4
#     Node 28, Type 0, BuildingBlock: KUFVIS_clean_sbu_0, # of connection points: 4
#     Node 29, Type 0, BuildingBlock: KUFVIS_clean_sbu_0, # of connection points: 4
#     Node 30, Type 0, BuildingBlock: KUFVIS_clean_sbu_0, # of connection points: 4
#     Node 31, Type 0, BuildingBlock: KUFVIS_clean_sbu_0, # of connection points: 4
#     Edge 32, Type (0, 0), BuildingBlock: AJUNOK_clean_linker_0, # of connection points: 2
#     Edge 33, Type (0, 0), BuildingBlock: AJUNOK_clean_linker_0, # of connection points: 2
#     Edge 34, Type (0, 0), BuildingBlock: AJUNOK_clean_linker_0, # of connection points: 2
#     Edge 35, Type (0, 0), BuildingBlock: AJUNOK_clean_linker_0, # of connection points: 2
#     Edge 36, Type (0, 0), BuildingBlock: AJUNOK_clean_linker_0, # of connection points: 2
#     Edge 37, Type (0, 0), BuildingBlock: AJUNOK_clean_linker_0, # of connection points: 2
#     Edge 38, Type (0, 0), BuildingBlock: AJUNOK_clean_linker_0, # of connection points: 2
#     Edge 39, Type (0, 0), BuildingBlock: AJUNOK_clean_linker_0, # of connection points: 2
#     Edge 40, Type (0, 0), BuildingBlock: AJUNOK_clean_linker_0, # of connection points: 2
#     Edge 41, Type (0, 0), BuildingBlock: AJUNOK_clean_linker_0, # of connection points: 2
#     Edge 42, Type (0, 0), BuildingBlock: AJUNOK_clean_linker_0, # of connection points: 2
#     Edge 43, Type (0, 0), BuildingBlock: AJUNOK_clean_linker_0, # of connection points: 2
#     Edge 44, Type (0, 0), BuildingBlock: AJUNOK_clean_linker_0, # of connection points: 2
#     Edge 45, Type (0, 0), BuildingBlock: AJUNOK_clean_linker_0, # of connection points: 2
#     Edge 46, Type (0, 0), BuildingBlock: AJUNOK_clean_linker_0, # of connection points: 2
#     Edge 47, Type (0, 0), BuildingBlock: AJUNOK_clean_linker_0, # of connection points: 2
#     Edge 48, Type (0, 0), BuildingBlock: AJUNOK_clean_linker_0, # of connection points: 2
#     Edge 49, Type (0, 0), BuildingBlock: AJUNOK_clean_linker_0, # of connection points: 2
#     Edge 50, Type (0, 0), BuildingBlock: AJUNOK_clean_linker_0, # of connection points: 2
#     Edge 51, Type (0, 0), BuildingBlock: AJUNOK_clean_linker_0, # of connection points: 2
#     Edge 52, Type (0, 0), BuildingBlock: AJUNOK_clean_linker_0, # of connection points: 2
#     Edge 53, Type (0, 0), BuildingBlock: AJUNOK_clean_linker_0, # of connection points: 2
#     Edge 54, Type (0, 0), BuildingBlock: AJUNOK_clean_linker_0, # of connection points: 2
#     Edge 55, Type (0, 0), BuildingBlock: AJUNOK_clean_linker_0, # of connection points: 2
#     Edge 56, Type (0, 0), BuildingBlock: AJUNOK_clean_linker_0, # of connection points: 2
#     Edge 57, Type (0, 0), BuildingBlock: AJUNOK_clean_linker_0, # of connection points: 2
#     Edge 58, Type (0, 0), BuildingBlock: AJUNOK_clean_linker_0, # of connection points: 2
#     Edge 59, Type (0, 0), BuildingBlock: AJUNOK_clean_linker_0, # of connection points: 2
#     Edge 60, Type (0, 0), BuildingBlock: AJUNOK_clean_linker_0, # of connection points: 2
#     Edge 61, Type (0, 0), BuildingBlock: AJUNOK_clean_linker_0, # of connection points: 2
#     Edge 62, Type (0, 0), BuildingBlock: AJUNOK_clean_linker_0, # of connection points: 2
#     Edge 63, Type (0, 0), BuildingBlock: AJUNOK_clean_linker_0, # of connection points: 2
#     Edge 64, Type (0, 0), BuildingBlock: AJUNOK_clean_linker_0, # of connection points: 2
#     Edge 65, Type (0, 0), BuildingBlock: AJUNOK_clean_linker_0, # of connection points: 2
#     Edge 66, Type (0, 0), BuildingBlock: AJUNOK_clean_linker_0, # of connection points: 2
#     Edge 67, Type (0, 0), BuildingBlock: AJUNOK_clean_linker_0, # of connection points: 2
#     Edge 68, Type (0, 0), BuildingBlock: AJUNOK_clean_linker_0, # of connection points: 2
#     Edge 69, Type (0, 0), BuildingBlock: AJUNOK_clean_linker_0, # of connection points: 2
#     Edge 70, Type (0, 0), BuildingBlock: AJUNOK_clean_linker_0, # of connection points: 2
#     Edge 71, Type (0, 0), BuildingBlock: AJUNOK_clean_linker_0, # of connection points: 2
#     Edge 72, Type (0, 0), BuildingBlock: AJUNOK_clean_linker_0, # of connection points: 2
#     Edge 73, Type (0, 0), BuildingBlock: AJUNOK_clean_linker_0, # of connection points: 2
#     Edge 74, Type (0, 0), BuildingBlock: AJUNOK_clean_linker_0, # of connection points: 2
#     Edge 75, Type (0, 0), BuildingBlock: AJUNOK_clean_linker_0, # of connection points: 2
#     Edge 76, Type (0, 0), BuildingBlock: AJUNOK_clean_linker_0, # of connection points: 2
#     Edge 77, Type (0, 0), BuildingBlock: AJUNOK_clean_linker_0, # of connection points: 2
#     Edge 78, Type (0, 0), BuildingBlock: AJUNOK_clean_linker_0, # of connection points: 2
#     Edge 79, Type (0, 0), BuildingBlock: AJUNOK_clean_linker_0, # of connection points: 2
#     Edge 80, Type (0, 0), BuildingBlock: AJUNOK_clean_linker_0, # of connection points: 2
#     Edge 81, Type (0, 0), BuildingBlock: AJUNOK_clean_linker_0, # of connection points: 2
#     Edge 82, Type (0, 0), BuildingBlock: AJUNOK_clean_linker_0, # of connection points: 2
#     Edge 83, Type (0, 0), BuildingBlock: AJUNOK_clean_linker_0, # of connection points: 2
#     Edge 84, Type (0, 0), BuildingBlock: AJUNOK_clean_linker_0, # of connection points: 2
#     Edge 85, Type (0, 0), BuildingBlock: AJUNOK_clean_linker_0, # of connection points: 2
#     Edge 86, Type (0, 0), BuildingBlock: AJUNOK_clean_linker_0, # of connection points: 2
#     Edge 87, Type (0, 0), BuildingBlock: AJUNOK_clean_linker_0, # of connection points: 2
#     Edge 88, Type (0, 0), BuildingBlock: AJUNOK_clean_linker_0, # of connection points: 2
#     Edge 89, Type (0, 0), BuildingBlock: AJUNOK_clean_linker_0, # of connection points: 2
#     Edge 90, Type (0, 0), BuildingBlock: AJUNOK_clean_linker_0, # of connection points: 2
#     Edge 91, Type (0, 0), BuildingBlock: AJUNOK_clean_linker_0, # of connection points: 2
#     Edge 92, Type (0, 0), BuildingBlock: AJUNOK_clean_linker_0, # of connection points: 2
#     Edge 93, Type (0, 0), BuildingBlock: AJUNOK_clean_linker_0, # of connection points: 2
#     Edge 94, Type (0, 0), BuildingBlock: AJUNOK_clean_linker_0, # of connection points: 2
#     Edge 95, Type (0, 0), BuildingBlock: AJUNOK_clean_linker_0, # of connection points: 2
# Relax obj value: 0.132
# Max RMSD: 0.216
# Mean RMSD: 0.212
data_MOF--net-uke--node1-KUFVIS_clean_sbu_0--edge1-AJUNOK_clean_linker_0
_symmetry_space_group_name_H-M    P1
_symmetry_Int_Tables_number       1
_symmetry_cell_setting            triclinic
loop_
_symmetry_equiv_pos_as_xyz
'x, y, z'
_cell_length_a     15.831094
_cell_length_b     79.49488
_cell_length_c     38.116627
_cell_angle_alpha  89.922162
_cell_angle_beta   90.083044
_cell_angle_gamma 90.085919
loop_
_atom_site_label
_atom_site_type_symbol
_atom_site_fract_x
_atom_site_fract_y
_atom_site_fract_z
_atom_type_partial_charge
Mn0 Mn 0.08475 0.07988 0.26099 0.0
Mn1 Mn 0.89918 0.09498 0.23667 0.0
C2 C 0.07221 0.08885 0.20259 0.0
C3 C 0.16503 0.0548 0.26271 0.0
C4 C 0.03255 0.11688 0.27066 0.0
O5 O 0.01205 0.07302 0.30323 0.0
O6 O 0.89508 0.08596 0.28573 0.0
C7 C 0.82072 0.06112 0.23536 0.0
N8 N 0.84071 0.07575 0.21863 0.0
C9 C 0.77456 0.06624 0.16538 0.0
C10 C 0.75145 0.05127 0.18233 0.0
C11 C 0.77555 0.04861 0.21734 0.0
C12 C 0.82099 0.07813 0.18451 0.0
H13 H 0.83879 0.05899 0.26228 0.0
C14 C 0.93672 0.07783 0.30888 0.0
O15 O 0.18885 0.06793 0.28056 0.0
O16 O 0.095 0.05612 0.24619 0.0
N17 N 0.88405 0.10441 0.19118 0.0
C18 C 0.88615 0.12109 0.18308 0.0
C19 C 0.85526 0.1265 0.15051 0.0
C20 C 0.82205 0.11484 0.12658 0.0
C21 C 0.8134 0.098 0.13673 0.0
C22 C 0.84298 0.0934 0.17006 0.0
H23 H 0.90938 0.13021 0.20173 0.0
O24 O 0.14355 0.08757 0.21846 0.0
O25 O 0.00675 0.08445 0.222 0.0
O26 O 0.08417 0.10477 0.27763 0.0
O27 O 0.96242 0.11478 0.25418 0.0
C28 C 0.76948 0.08602 0.11645 0.0
C29 C 0.7507 0.07008 0.13068 0.0
H30 H 0.71455 0.0418 0.16884 0.0
H31 H 0.75861 0.03702 0.23052 0.0
H32 H 0.85368 0.13969 0.14456 0.0
H33 H 0.79782 0.11918 0.10156 0.0
H34 H 0.74678 0.08919 0.09044 0.0
H35 H 0.71495 0.06111 0.11522 0.0
Mn36 Mn 0.13024 0.22407 0.26343 0.0
Mn37 Mn 0.30365 0.20322 0.23827 0.0
C38 C 0.14134 0.21593 0.20524 0.0
C39 C 0.06336 0.2503 0.26908 0.0
C40 C 0.154 0.18576 0.27191 0.0
O41 O 0.20843 0.22701 0.30628 0.0
O42 O 0.32031 0.21238 0.28735 0.0
C43 C 0.41505 0.2331 0.23385 0.0
N44 N 0.37873 0.21947 0.21829 0.0
C45 C 0.44526 0.22594 0.16314 0.0
C46 C 0.48403 0.23995 0.17866 0.0
C47 C 0.46862 0.24357 0.21415 0.0
C48 C 0.39261 0.21595 0.1841 0.0
H49 H 0.40304 0.23599 0.26106 0.0
C50 C 0.28204 0.22083 0.31128 0.0
O51 O 0.03492 0.2371 0.28557 0.0
O52 O 0.1337 0.2485 0.25252 0.0
N53 N 0.2991 0.19367 0.19224 0.0
C54 C 0.2559 0.17983 0.1811 0.0
C55 C 0.26194 0.17486 0.14586 0.0
C56 C 0.31363 0.18394 0.12264 0.0
C57 C 0.35935 0.19786 0.13495 0.0
C58 C 0.35052 0.20227 0.17032 0.0
H59 H 0.21586 0.17283 0.19882 0.0
O60 O 0.06975 0.22006 0.21873 0.0
O61 O 0.20711 0.21757 0.2261 0.0
O62 O 0.10944 0.19905 0.27718 0.0
O63 O 0.22711 0.18599 0.25756 0.0
C64 C 0.41267 0.20764 0.11345 0.0
C65 C 0.45572 0.22165 0.12755 0.0
H66 H 0.52508 0.24809 0.16352 0.0
H67 H 0.49779 0.25444 0.22624 0.0
H68 H 0.22629 0.16415 0.13656 0.0
H69 H 0.31773 0.18012 0.09543 0.0
H70 H 0.42054 0.20456 0.08597 0.0
H71 H 0.49596 0.22915 0.11069 0.0
Mn72 Mn 0.09384 0.21826 0.99621 0.0
Mn73 Mn 0.91283 0.20088 0.02116 0.0
C74 C 0.08741 0.20838 0.05412 0.0
C75 C 0.16981 0.24374 0.99413 0.0
C76 C 0.0466 0.18157 0.98125 0.0
O77 O 0.0155 0.22519 0.95602 0.0
O78 O 0.89823 0.21248 0.97459 0.0
C79 C 0.82404 0.2331 0.03354 0.0
N80 N 0.85112 0.21788 0.04553 0.0
C81 C 0.79192 0.22303 0.10263 0.0
C82 C 0.76276 0.2387 0.09082 0.0
C83 C 0.77914 0.24377 0.05615 0.0
C84 C 0.837 0.21301 0.07899 0.0
H85 H 0.8367 0.23704 0.00694 0.0
C86 C 0.93894 0.22084 0.95136 0.0
O87 O 0.19302 0.23097 0.97511 0.0
O88 O 0.10247 0.24184 0.01238 0.0
N89 N 0.91048 0.18873 0.06417 0.0
C90 C 0.93251 0.17237 0.06957 0.0
C91 C 0.91858 0.16506 0.10254 0.0
C92 C 0.87861 0.1744 0.12912 0.0
C93 C 0.85102 0.19082 0.12203 0.0
C94 C 0.8674 0.19747 0.08871 0.0
H95 H 0.96252 0.16509 0.04923 0.0
O96 O 0.1572 0.21025 0.03731 0.0
O97 O 0.01948 0.21229 0.03556 0.0
O98 O 0.09795 0.19394 0.97699 0.0
O99 O 0.97613 0.18291 0.9974 0.0
C100 C 0.80663 0.20074 0.14645 0.0
C101 C 0.77738 0.21687 0.13679 0.0
H102 H 0.72774 0.24693 0.10812 0.0
H103 H 0.75715 0.25587 0.04689 0.0
H104 H 0.94093 0.15244 0.10739 0.0
H105 H 0.86883 0.16886 0.15476 0.0
H106 H 0.79372 0.196 0.17256 0.0
H107 H 0.74274 0.22433 0.15567 0.0
Mn108 Mn 0.1179 0.07496 0.99404 0.0
Mn109 Mn 0.29412 0.09446 0.02033 0.0
C110 C 0.12578 0.08416 0.05146 0.0
C111 C 0.04894 0.04891 0.98967 0.0
C112 C 0.1534 0.1126 0.98218 0.0
O113 O 0.198 0.07052 0.95293 0.0
O114 O 0.31216 0.08449 0.97209 0.0
C115 C 0.39815 0.06377 0.02822 0.0
N116 N 0.3636 0.07788 0.04244 0.0
C117 C 0.42494 0.07175 0.09883 0.0
C118 C 0.46179 0.05724 0.08471 0.0
C119 C 0.44818 0.05322 0.04927 0.0
C120 C 0.37603 0.08183 0.07653 0.0
H121 H 0.38747 0.06059 1.00104 0.0
C122 C 0.27286 0.07608 0.94832 0.0
O123 O 0.0221 0.06185 0.97189 0.0
O124 O 0.11741 0.0509 0.00737 0.0
N125 N 0.28802 0.10468 0.06567 0.0
C126 C 0.24585 0.11884 0.07545 0.0
C127 C 0.24968 0.12418 0.11052 0.0
C128 C 0.29799 0.1151 0.13499 0.0
C129 C 0.34233 0.10077 0.12412 0.0
C130 C 0.33581 0.096 0.08886 0.0
H131 H 0.20833 0.12582 0.05675 0.0
O132 O 0.05439 0.0805 0.0371 0.0
O133 O 0.19282 0.08138 0.03195 0.0
O134 O 0.10486 0.09977 0.97749 0.0
O135 O 0.2239 0.11195 0.99861 0.0
C136 C 0.39187 0.0909 0.14697 0.0
C137 C 0.43339 0.07644 0.13431 0.0
H138 H 0.4999 0.049 0.10092 0.0
H139 H 0.4759 0.04197 0.03825 0.0
H140 H 0.21486 0.13518 0.11872 0.0
H141 H 0.30038 0.11922 0.16205 0.0
H142 H 0.39795 0.09426 0.17439 0.0
H143 H 0.47067 0.06887 0.15219 0.0
Mn144 Mn 0.90278 0.96442 0.76229 0.0
Mn145 Mn 0.81214 0.96775 0.68503 0.0
C146 C 0.86124 0.99092 0.74566 0.0
C147 C 0.87313 0.95536 0.81815 0.0
C148 C -0.00454 0.9597 0.69641 0.0
O149 O 0.87806 0.94121 0.74624 0.0
O150 O 0.78153 0.94491 0.7038 0.0
C151 C 0.63036 0.96767 0.70199 0.0
N152 N 0.69784 0.97548 0.68722 0.0
C153 C 0.59191 0.99496 0.65301 0.0
C154 C 0.52703 0.98619 0.67212 0.0
C155 C 0.54731 0.97321 0.69578 0.0
C156 C 0.68833 0.98878 0.6663 0.0
H157 H 0.64002 0.95694 0.71894 0.0
C158 C 0.82435 0.93553 0.72474 0.0
O159 O 0.95029 0.95468 0.80622 0.0
O160 O 0.81674 0.96233 0.79852 0.0
N161 N 0.84437 0.98883 0.6628 0.0
C162 C 0.92368 0.99407 0.65398 0.0
C163 C 0.93814 1.00693 0.62926 0.0
C164 C 0.87287 0.01494 0.61092 0.0
C165 C 0.78907 1.01121 0.61793 0.0
C166 C 0.77639 0.99659 0.64996 0.0
H167 H 0.97824 0.98825 0.66548 0.0
O168 O 0.91432 0.98892 0.77135 0.0
O169 O 0.83379 0.97704 0.73145 0.0
O170 O 0.00206 0.96455 0.72825 0.0
O171 O 0.92585 0.9593 0.67994 0.0
C172 C 0.71293 0.02121 0.59458 0.0
C173 C 0.60855 0.0176 0.60227 0.0
H174 H 0.46026 0.98864 0.66927 0.0
H175 H 0.49616 0.96673 0.70896 0.0
H176 H 0.00272 1.01036 0.62323 0.0
H177 H 0.8879 0.02408 0.59096 0.0
H178 H 0.73069 0.03022 0.5746 0.0
H179 H 0.56282 0.02457 0.58632 0.0
Mn180 Mn 0.82648 0.83392 0.76449 0.0
Mn181 Mn 0.90778 0.83419 0.68544 0.0
C182 C 0.8688 0.80834 0.74319 0.0
C183 C 0.86022 0.84067 0.82096 0.0
C184 C 0.72519 0.84069 0.70141 0.0
O185 O 0.84587 0.85782 0.75198 0.0
O186 O 0.93586 0.8566 0.70692 0.0
C187 C 0.09096 0.83505 0.69981 0.0
N188 N 0.02328 0.82706 0.68555 0.0
C189 C 0.12911 0.8064 0.65458 0.0
C190 C 0.1939 0.81538 0.67331 0.0
C191 C 0.17383 0.82916 0.6948 0.0
C192 C 0.03258 0.81342 0.66569 0.0
H193 H 0.08166 0.84609 0.71583 0.0
C194 C 0.89317 0.86488 0.72975 0.0
O195 O 0.78199 0.84155 0.81028 0.0
O196 O 0.91607 0.83496 0.79945 0.0
N197 N 0.87666 0.81372 0.66062 0.0
C198 C 0.79766 0.80868 0.65077 0.0
C199 C 0.78357 0.79569 0.62642 0.0
C200 C 0.84911 0.78719 0.60951 0.0
C201 C 0.93274 0.7908 0.61733 0.0
C202 C 0.94483 0.80583 0.64849 0.0
H203 H 0.74293 0.81471 0.66122 0.0
O204 O 0.81782 0.8092 0.76977 0.0
O205 O 0.89334 0.82287 0.73063 0.0
O206 O 0.72379 0.83459 0.73241 0.0
O207 O 0.79222 0.84211 0.68342 0.0
C208 C 0.00913 0.77996 0.59616 0.0
C209 C 0.11302 0.78301 0.60539 0.0
H210 H 0.26053 0.81257 0.6715 0.0
H211 H 0.22494 0.83581 0.70767 0.0
H212 H 0.71907 0.79242 0.6198 0.0
H213 H 0.83413 0.77765 0.59028 0.0
H214 H -0.00822 0.77075 0.57653 0.0
H215 H 0.15881 0.77573 0.59028 0.0
Mn216 Mn 0.92544 0.83226 0.01853 0.0
Mn217 Mn 0.79436 0.8272 0.08405 0.0
C218 C 0.86035 0.80637 0.02337 0.0
C219 C 0.93262 0.84356 0.9635 0.0
C220 C 0.98207 0.83061 0.09206 0.0
O221 O 0.90484 0.8553 0.03747 0.0
O222 O 0.78792 0.85197 0.07015 0.0
C223 C 0.62169 0.83388 0.05809 0.0
N224 N 0.67809 0.82301 0.0724 0.0
C225 C 0.54994 0.80742 0.10256 0.0
C226 C 0.49773 0.81914 0.08379 0.0
C227 C 0.53386 0.8316 0.0621 0.0
C228 C 0.65221 0.80971 0.09105 0.0
H229 H 0.6442 0.84475 0.04382 0.0
C230 C 0.84412 0.86133 0.05501 0.0
O231 O 0.00159 0.84197 0.98194 0.0
O232 O 0.86292 0.83803 0.97659 0.0
N233 N 0.80405 0.80415 0.09987 0.0
C234 C 0.87538 0.79533 0.10761 0.0
C235 C 0.87403 0.78117 0.12981 0.0
C236 C 0.80037 0.77551 0.14651 0.0
C237 C 0.72287 0.78292 0.13922 0.0
C238 C 0.72853 0.79826 0.10845 0.0
H239 H 0.93551 0.79939 0.09745 0.0
O240 O 0.9279 0.80816 1.0045 0.0
O241 O 0.83281 0.82015 0.03807 0.0
O242 O 0.00457 0.82824 0.0603 0.0
O243 O 0.90611 0.83172 0.10163 0.0
C244 C 0.63607 0.77599 0.16064 0.0
C245 C 0.53866 0.78388 0.15178 0.0
H246 H 0.42965 0.81949 0.08577 0.0
H247 H 0.49208 0.84047 0.04932 0.0
H248 H 0.9331 0.77494 0.13554 0.0
H249 H 0.80396 0.76515 0.16489 0.0
H250 H 0.64226 0.76621 0.18023 0.0
H251 H 0.48568 0.77898 0.16713 0.0
Mn252 Mn 0.79839 0.96172 0.01595 0.0
Mn253 Mn 0.91816 0.96888 0.08475 0.0
C254 C 0.86024 0.98799 0.0203 0.0
C255 C 0.80207 0.94971 0.96112 0.0
C256 C 0.72958 0.965 0.08734 0.0
O257 O 0.81742 0.93911 0.03788 0.0
O258 O 0.9287 0.94402 0.07333 0.0
C259 C 0.09484 0.96241 0.06344 0.0
N260 N 0.03557 0.9733 0.07543 0.0
C261 C 0.15935 0.99117 0.10329 0.0
C262 C 0.21466 0.97933 0.08659 0.0
C263 C 0.18194 0.96568 0.06727 0.0
C264 C 0.0579 0.98743 0.09204 0.0
H265 H 0.07529 0.95088 0.05078 0.0
C266 C 0.87519 0.93403 0.05838 0.0
O267 O 0.73028 0.95112 0.9776 0.0
O268 O 0.86876 0.95538 0.97648 0.0
N269 N 0.90463 0.99215 0.09838 0.0
C270 C 0.83179 1.00084 0.10374 0.0
C271 C 0.82945 0.01554 0.12428 0.0
C272 C 0.90087 0.02198 0.14148 0.0
C273 C 0.9799 0.01488 0.13617 0.0
C274 C 0.9786 0.99861 0.10755 0.0
H275 H 0.77354 0.99644 0.09238 0.0
O276 O 0.7965 0.98558 0.99951 0.0
O277 O 0.88595 0.97467 0.03719 0.0
O278 O 0.71211 0.96643 0.05475 0.0
O279 O 0.80383 0.96439 0.09942 0.0
C280 C 0.06449 0.02333 0.15679 0.0
C281 C 0.16395 0.01623 0.14919 0.0
H282 H 0.28273 0.97978 0.08859 0.0
H283 H 0.22604 0.95678 0.05614 0.0
H284 H 0.76939 0.02175 0.12786 0.0
H285 H 0.89472 0.03288 0.15822 0.0
H286 H 0.05554 0.03361 0.17498 0.0
H287 H 0.21521 0.02186 0.16445 0.0
Mn288 Mn 0.0844 0.57541 0.76023 0.0
Mn289 Mn 0.90704 0.59436 0.73335 0.0
C290 C 0.07544 0.58413 0.70223 0.0
C291 C 0.15648 0.54959 0.76496 0.0
C292 C 0.04698 0.61309 0.77109 0.0
O293 O 0.00427 0.57109 0.80181 0.0
O294 O 0.88848 0.58408 0.78134 0.0
C295 C 0.8028 0.56369 0.72468 0.0
N296 N 0.83838 0.5778 0.71074 0.0
C297 C 0.7773 0.57207 0.65415 0.0
C298 C 0.73878 0.55764 0.66805 0.0
C299 C 0.75193 0.55339 0.70343 0.0
C300 C 0.82655 0.58194 0.67668 0.0
H301 H 0.8131 0.56034 0.7518 0.0
C302 C 0.92792 0.57599 0.80559 0.0
O303 O 0.18154 0.56274 0.78253 0.0
O304 O 0.08693 0.55116 0.74778 0.0
N305 N 0.91415 0.6048 0.68823 0.0
C306 C 0.95679 0.619 0.67884 0.0
C307 C 0.95438 0.62444 0.64381 0.0
C308 C 0.90654 0.61547 0.619 0.0
C309 C 0.86149 0.60111 0.6295 0.0
C310 C 0.86709 0.59619 0.66471 0.0
H311 H -0.00606 0.62591 0.69776 0.0
O312 O 0.14705 0.58075 0.71665 0.0
O313 O 0.00881 0.58142 0.72205 0.0
O314 O 0.09675 0.60046 0.77571 0.0
O315 O 0.97574 0.61202 0.7554 0.0
C316 C 0.81216 0.59138 0.60635 0.0
C317 C 0.76969 0.57692 0.6187 0.0
H318 H 0.69947 0.54968 0.65174 0.0
H319 H 0.72305 0.54218 0.71426 0.0
H320 H 0.99008 0.63543 0.63595 0.0
H321 H 0.9051 0.61967 0.59197 0.0
H322 H 0.80675 0.59485 0.57895 0.0
H323 H 0.73225 0.56949 0.60063 0.0
Mn324 Mn 0.12128 0.72033 0.75999 0.0
Mn325 Mn 0.29889 0.70151 0.73436 0.0
C326 C 0.13242 0.71218 0.70194 0.0
C327 C 0.05273 0.74643 0.76442 0.0
C328 C 0.15634 0.68248 0.76976 0.0
O329 O 0.19901 0.72422 0.80234 0.0
O330 O 0.31518 0.71101 0.78324 0.0
C331 C 0.40276 0.73239 0.72857 0.0
N332 N 0.3683 0.71847 0.71342 0.0
C333 C 0.42652 0.72584 0.65716 0.0
C334 C 0.46373 0.74012 0.67228 0.0
C335 C 0.45152 0.74344 0.7081 0.0
C336 C 0.37946 0.71518 0.67895 0.0
H337 H 0.39293 0.73506 0.75603 0.0
C338 C 0.27424 0.71892 0.80723 0.0
O339 O 0.02402 0.73335 0.78127 0.0
O340 O 0.12268 0.74453 0.74791 0.0
N341 N 0.29348 0.69187 0.68851 0.0
C342 C 0.2501 0.678 0.67778 0.0
C343 C 0.2505 0.67361 0.64216 0.0
C344 C 0.29747 0.68323 0.61811 0.0
C345 C 0.34329 0.69723 0.62995 0.0
C346 C 0.33948 0.70114 0.66572 0.0
H347 H 0.21308 0.67068 0.69605 0.0
O348 O 0.06023 0.71544 0.71581 0.0
O349 O 0.19811 0.7146 0.72251 0.0
O350 O 0.10734 0.69521 0.77473 0.0
O351 O 0.22842 0.6836 0.75472 0.0
C352 C 0.39071 0.70773 0.60755 0.0
C353 C 0.4327 0.72197 0.62118 0.0
H354 H 0.50116 0.74869 0.65656 0.0
H355 H 0.4793 0.75453 0.71986 0.0
H356 H 0.21314 0.66304 0.63324 0.0
H357 H 0.29708 0.67986 0.59058 0.0
H358 H 0.39458 0.70506 0.57974 0.0
H359 H 0.4683 0.73003 0.60365 0.0
Mn360 Mn 0.08537 0.72217 0.49363 0.0
Mn361 Mn 0.90563 0.7037 0.51749 0.0
C362 C 0.07883 0.71079 0.55044 0.0
C363 C 0.16299 0.74761 0.49392 0.0
C364 C 0.04239 0.68528 0.47789 0.0
O365 O 0.007 0.72947 0.45342 0.0
O366 O 0.89329 0.71517 0.47079 0.0
C367 C 0.81816 0.73615 0.52882 0.0
N368 N 0.84379 0.72091 0.54124 0.0
C369 C 0.78699 0.72685 0.59841 0.0
C370 C 0.75932 0.74254 0.58615 0.0
C371 C 0.77518 0.74722 0.55122 0.0
C372 C 0.83071 0.71646 0.57502 0.0
H373 H 0.83077 0.73986 0.5021 0.0
C374 C 0.93178 0.72431 0.44824 0.0
O375 O 0.18497 0.73515 0.47375 0.0
O376 O 0.09442 0.74563 0.51141 0.0
N377 N 0.90016 0.69163 0.5607 0.0
C378 C 0.91273 0.67481 0.56546 0.0
C379 C 0.89319 0.66746 0.59799 0.0
C380 C 0.85858 0.67735 0.62489 0.0
C381 C 0.83941 0.69428 0.6183 0.0
C382 C 0.85923 0.70082 0.58517 0.0
H383 H 0.93779 0.6671 0.54462 0.0
O384 O 0.14878 0.71358 0.53431 0.0
O385 O 0.01111 0.71512 0.53234 0.0
O386 O 0.09036 0.69815 0.47309 0.0
O387 O 0.97205 0.68586 0.49454 0.0
C388 C 0.79702 0.70463 0.64255 0.0
C389 C 0.77153 0.72097 0.63271 0.0
H390 H 0.72549 0.75106 0.60326 0.0
H391 H 0.75425 0.75933 0.54157 0.0
H392 H 0.90411 0.6542 0.60214 0.0
H393 H 0.84359 0.67162 0.64993 0.0
H394 H 0.78181 0.69999 0.66852 0.0
H395 H 0.73795 0.72873 0.6514 0.0
Mn396 Mn 0.11842 0.58029 0.49328 0.0
Mn397 Mn 0.29978 0.59793 0.5166 0.0
C398 C 0.12825 0.59044 0.55094 0.0
C399 C 0.04369 0.55461 0.49274 0.0
C400 C 0.1624 0.61715 0.47861 0.0
O401 O 0.19381 0.57351 0.45205 0.0
O402 O 0.30959 0.58721 0.46904 0.0
C403 C 0.38662 0.56522 0.52529 0.0
N404 N 0.36241 0.58032 0.53878 0.0
C405 C 0.42366 0.57361 0.59488 0.0
C406 C 0.44992 0.55805 0.58151 0.0
C407 C 0.43094 0.55381 0.5466 0.0
C408 C 0.37824 0.58431 0.5726 0.0
H409 H 0.37198 0.56189 0.49851 0.0
C410 C 0.26865 0.57865 0.44625 0.0
O411 O 0.01816 0.56725 0.47376 0.0
O412 O 0.11251 0.55674 0.50991 0.0
N413 N 0.30774 0.60932 0.56044 0.0
C414 C 0.29477 0.62602 0.56636 0.0
C415 C 0.31785 0.63296 0.59882 0.0
C416 C 0.35504 0.62277 0.6247 0.0
C417 C 0.3734 0.60592 0.61704 0.0
C418 C 0.35074 0.59981 0.58388 0.0
H419 H 0.26788 0.634 0.5463 0.0
O420 O 0.05746 0.5883 0.53496 0.0
O421 O 0.19479 0.58646 0.53184 0.0
O422 O 0.11247 0.60456 0.47402 0.0
O423 O 0.23303 0.61618 0.49504 0.0
C424 C 0.41775 0.59527 0.64019 0.0
C425 C 0.44212 0.57904 0.62923 0.0
H426 H 0.48499 0.5493 0.59775 0.0
H427 H 0.45064 0.54179 0.53613 0.0
H428 H 0.30843 0.64617 0.60356 0.0
H429 H 0.37268 0.62821 0.64971 0.0
H430 H 0.43525 0.59958 0.66615 0.0
H431 H 0.47713 0.57104 0.64707 0.0
Mn432 Mn 0.91909 0.46695 0.25942 0.0
Mn433 Mn 0.8191 0.47157 0.18444 0.0
C434 C 0.85735 0.49263 0.24893 0.0
C435 C 0.89697 0.45547 0.31409 0.0
C436 C 0.00796 0.47004 0.19156 0.0
O437 O 0.91248 0.444 0.23877 0.0
O438 O 0.81373 0.44682 0.19715 0.0
C439 C 0.64112 0.46372 0.20251 0.0
N440 N 0.69929 0.47465 0.18963 0.0
C441 C 0.57425 0.49157 0.16048 0.0
C442 C 0.51989 0.47976 0.17802 0.0
C443 C 0.55374 0.4665 0.1982 0.0
C444 C 0.67586 0.48832 0.17175 0.0
H445 H 0.66182 0.45262 0.21649 0.0
C446 C 0.86767 0.4379 0.21445 0.0
O447 O 0.97379 0.45716 0.30216 0.0
O448 O 0.83621 0.46083 0.29466 0.0
N449 N 0.82823 0.49449 0.16789 0.0
C450 C 0.89919 0.50387 0.1629 0.0
C451 C 0.90054 0.51785 0.14014 0.0
C452 C 0.82963 0.52304 0.12089 0.0
C453 C 0.75173 0.51536 0.12582 0.0
C454 C 0.75417 0.49959 0.15565 0.0
H455 H 0.95674 0.50061 0.17634 0.0
O456 O 0.91288 0.491 0.27372 0.0
O457 O 0.83868 0.47885 0.23216 0.0
O458 O 0.01611 0.47162 0.22483 0.0
O459 O 0.93771 0.46851 0.17594 0.0
C460 C 0.66657 0.52319 0.10461 0.0
C461 C 0.56769 0.51591 0.11283 0.0
H462 H 0.45177 0.47995 0.17606 0.0
H463 H 0.51039 0.45761 0.21002 0.0
H464 H 0.95935 0.52461 0.13677 0.0
H465 H 0.8349 0.53362 0.10315 0.0
H466 H 0.6747 0.53329 0.08583 0.0
H467 H 0.51607 0.5211 0.0971 0.0
Mn468 Mn 0.82874 0.33968 0.25303 0.0
Mn469 Mn 0.92953 0.33198 0.18016 0.0
C470 C 0.87868 0.31259 0.24547 0.0
C471 C 0.84234 0.35165 0.30739 0.0
C472 C 0.74563 0.33982 0.18466 0.0
O473 O 0.85154 0.36209 0.23035 0.0
O474 O 0.95876 0.35568 0.19405 0.0
C475 C 0.11075 0.33279 0.19815 0.0
N476 N 0.04319 0.32418 0.18552 0.0
C477 C 0.14906 0.3037 0.15408 0.0
C478 C 0.21415 0.31336 0.17111 0.0
C479 C 0.19394 0.32718 0.19253 0.0
C480 C 0.05279 0.31002 0.16723 0.0
H481 H 0.10104 0.3443 0.21264 0.0
C482 C 0.90835 0.36631 0.20858 0.0
O483 O 0.76887 0.35109 0.29198 0.0
O484 O 0.90596 0.34508 0.29123 0.0
N485 N 0.89688 0.30976 0.16359 0.0
C486 C 0.81765 0.30375 0.15695 0.0
C487 C 0.80292 0.28988 0.13481 0.0
C488 C 0.86768 0.28157 0.11693 0.0
C489 C 0.95149 0.28595 0.12242 0.0
C490 C 0.96459 0.30151 0.15235 0.0
H491 H 0.76339 0.30951 0.16858 0.0
O492 O 0.82172 0.31572 0.26903 0.0
O493 O 0.90546 0.32572 0.2283 0.0
O494 O 0.73573 0.33616 0.21697 0.0
O495 O 0.81743 0.34036 0.17028 0.0
C496 C 0.02724 0.27556 0.09988 0.0
C497 C 0.13148 0.27966 0.10639 0.0
H498 H 0.28095 0.31103 0.16799 0.0
H499 H 0.2452 0.33434 0.20401 0.0
H500 H 0.7384 0.28584 0.13046 0.0
H501 H 0.85209 0.2715 0.09899 0.0
H502 H 0.00931 0.266 0.0811 0.0
H503 H 0.17664 0.27271 0.09033 0.0
Mn504 Mn 0.90286 0.33854 0.50701 0.0
Mn505 Mn 0.80014 0.33217 0.58019 0.0
C506 C 0.85165 0.31156 0.51624 0.0
C507 C 0.89016 0.35022 0.45239 0.0
C508 C 0.98466 0.33997 0.57552 0.0
O509 O 0.88128 0.3613 0.52804 0.0
O510 O 0.7741 0.35591 0.56492 0.0
C511 C 0.61958 0.3333 0.56092 0.0
N512 N 0.6858 0.32469 0.57464 0.0
C513 C 0.5767 0.30465 0.60578 0.0
C514 C 0.51327 0.3143 0.58777 0.0
C515 C 0.53569 0.32791 0.56599 0.0
C516 C 0.67417 0.31072 0.59345 0.0
H517 H 0.63093 0.34464 0.54598 0.0
C518 C 0.82649 0.36612 0.55007 0.0
O519 O 0.96373 0.34951 0.4677 0.0
O520 O 0.82636 0.34355 0.46834 0.0
N521 N 0.82984 0.31013 0.59848 0.0
C522 C 0.90828 0.30412 0.60643 0.0
C523 C 0.92086 0.29044 0.62931 0.0
C524 C 0.8545 0.28232 0.64672 0.0
C525 C 0.77128 0.28681 0.64018 0.0
C526 C 0.76093 0.30217 0.60954 0.0
H527 H 0.96352 0.30983 0.59536 0.0
O528 O 0.90903 0.31438 0.49264 0.0
O529 O 0.82508 0.32497 0.53255 0.0
O530 O -0.00444 0.33554 0.54367 0.0
O531 O 0.9129 0.34023 0.58996 0.0
C532 C 0.69361 0.27671 0.66226 0.0
C533 C 0.59006 0.28091 0.65449 0.0
H534 H 0.44615 0.31213 0.59034 0.0
H535 H 0.48561 0.33508 0.5537 0.0
H536 H 0.98488 0.28638 0.63461 0.0
H537 H 0.86844 0.27235 0.66517 0.0
H538 H 0.70984 0.26726 0.68158 0.0
H539 H 0.54357 0.27417 0.67038 0.0
Mn540 Mn 0.80062 0.46635 0.51065 0.0
Mn541 Mn 0.91007 0.47192 0.58277 0.0
C542 C 0.85999 0.49267 0.51871 0.0
C543 C 0.81661 0.45424 0.4564 0.0
C544 C 0.72089 0.46872 0.58 0.0
O545 O 0.81236 0.44355 0.53223 0.0
O546 O 0.92026 0.44738 0.5694 0.0
C547 C 0.08724 0.46562 0.56176 0.0
N548 N 0.02833 0.47608 0.57556 0.0
C549 C 0.15221 0.49286 0.60584 0.0
C550 C 0.20733 0.48169 0.58711 0.0
C551 C 0.17438 0.46872 0.56591 0.0
C552 C 0.05077 0.48952 0.5943 0.0
H553 H 0.06734 0.45463 0.54722 0.0
C554 C 0.86489 0.43793 0.55433 0.0
O555 O 0.74124 0.45582 0.46986 0.0
O556 O 0.87928 0.4603 0.47382 0.0
N557 N 0.89772 0.49465 0.59972 0.0
C558 C 0.82519 0.50317 0.60663 0.0
C559 C 0.82231 0.51633 0.63126 0.0
C560 C 0.89343 0.52166 0.65021 0.0
C561 C 0.97301 0.51522 0.64275 0.0
C562 C 0.97161 0.50016 0.61142 0.0
H563 H 0.76736 0.49963 0.59369 0.0
O564 O 0.80187 0.49037 0.49521 0.0
O565 O 0.88301 0.47912 0.53552 0.0
O566 O 0.70806 0.4707 0.5471 0.0
O567 O 0.79332 0.46761 0.59393 0.0
C568 C 0.05793 0.52298 0.66444 0.0
C569 C 0.15747 0.51623 0.6555 0.0
H570 H 0.27543 0.48209 0.58895 0.0
H571 H 0.21831 0.46025 0.55329 0.0
H572 H 0.76208 0.52219 0.63658 0.0
H573 H 0.88661 0.53141 0.66979 0.0
H574 H 0.0491 0.53257 0.68418 0.0
H575 H 0.20929 0.52184 0.67055 0.0
Mn576 Mn 0.58949 0.07637 0.76329 0.0
Mn577 Mn 0.40962 0.09358 0.73596 0.0
C578 C 0.5827 0.08595 0.70561 0.0
C579 C 0.66633 0.05135 0.76726 0.0
C580 C 0.5439 0.11357 0.77376 0.0
O581 O 0.51047 0.07056 0.80424 0.0
O582 O 0.39683 0.08436 0.78493 0.0
C583 C 0.31641 0.0613 0.73211 0.0
N584 N 0.34707 0.07533 0.71595 0.0
C585 C 0.28657 0.06691 0.66076 0.0
C586 C 0.25236 0.05263 0.67707 0.0
C587 C 0.26819 0.04971 0.7128 0.0
C588 C 0.33434 0.078 0.68134 0.0
H589 H 0.3281 0.059 0.75958 0.0
C590 C 0.43557 0.07598 0.80876 0.0
O591 O 0.68834 0.06442 0.78576 0.0
O592 O 0.59789 0.05259 0.74931 0.0
N593 N 0.40723 0.10311 0.68991 0.0
C594 C 0.42579 0.11921 0.68046 0.0
C595 C 0.41076 0.12449 0.64583 0.0
C596 C 0.37449 0.11334 0.62157 0.0
C597 C 0.34958 0.09727 0.63267 0.0
C598 C 0.36618 0.09272 0.66752 0.0
H599 H 0.45207 0.12794 0.69926 0.0
O600 O 0.65356 0.08317 0.72108 0.0
O601 O 0.51538 0.08198 0.72418 0.0
O602 O 0.59309 0.10106 0.78026 0.0
O603 O 0.47548 0.11241 0.75576 0.0
C604 C 0.30455 0.086 0.61108 0.0
C605 C 0.27307 0.07081 0.62513 0.0
H606 H 0.21343 0.04389 0.66248 0.0
H607 H 0.24268 0.03863 0.7255 0.0
H608 H 0.42638 0.13717 0.63794 0.0
H609 H 0.36261 0.11751 0.59496 0.0
H610 H 0.29143 0.08913 0.58395 0.0
H611 H 0.23678 0.06242 0.60852 0.0
Mn612 Mn 0.61992 0.21869 0.76726 0.0
Mn613 Mn 0.79923 0.20029 0.74396 0.0
C614 C 0.62775 0.20857 0.70951 0.0
C615 C 0.54806 0.2444 0.76835 0.0
C616 C 0.65937 0.18194 0.78279 0.0
O617 O 0.69713 0.22498 0.8085 0.0
O618 O 0.81424 0.21234 0.78976 0.0
C619 C 0.89006 0.2322 0.72995 0.0
N620 N 0.86331 0.2168 0.71893 0.0
C621 C 0.92261 0.22124 0.66157 0.0
C622 C 0.95167 0.23709 0.6724 0.0
C623 C 0.93504 0.24261 0.70671 0.0
C624 C 0.87724 0.21154 0.68576 0.0
H625 H 0.87668 0.23655 0.75618 0.0
C626 C 0.77394 0.22075 0.81289 0.0
O627 O 0.52179 0.2318 0.78732 0.0
O628 O 0.61664 0.24224 0.75103 0.0
N629 N 0.80141 0.18766 0.7017 0.0
C630 C 0.77947 0.17122 0.69744 0.0
C631 C 0.79498 0.16334 0.66528 0.0
C632 C 0.83574 0.17224 0.63817 0.0
C633 C 0.86294 0.18881 0.64409 0.0
C634 C 0.84587 0.19596 0.67685 0.0
H635 H 0.74914 0.16423 0.71821 0.0
O636 O 0.55739 0.21118 0.72541 0.0
O637 O 0.69505 0.2121 0.7287 0.0
O638 O 0.60969 0.19456 0.78618 0.0
O639 O 0.73208 0.18287 0.76818 0.0
C640 C 0.90802 0.19837 0.61917 0.0
C641 C 0.93729 0.21463 0.62782 0.0
H642 H 0.9867 0.24512 0.65461 0.0
H643 H 0.95676 0.25486 0.71521 0.0
H644 H 0.77401 0.15055 0.66167 0.0
H645 H 0.847 0.16622 0.61317 0.0
H646 H 0.92137 0.19326 0.59345 0.0
H647 H 0.97219 0.22184 0.60852 0.0
Mn648 Mn 0.59941 0.2223 0.49908 0.0
Mn649 Mn 0.42169 0.20277 0.52427 0.0
C650 C 0.58569 0.21439 0.55749 0.0
C651 C 0.6684 0.24863 0.49389 0.0
C652 C 0.56733 0.18427 0.48968 0.0
O653 O 0.52237 0.22538 0.45575 0.0
O654 O 0.40491 0.21278 0.4759 0.0
C655 C 0.31723 0.23343 0.53151 0.0
N656 N 0.35061 0.21921 0.5458 0.0
C657 C 0.28664 0.22512 0.60168 0.0
C658 C 0.24999 0.23963 0.58732 0.0
C659 C 0.26572 0.24384 0.55212 0.0
C660 C 0.33681 0.21515 0.57977 0.0
H661 H 0.33038 0.23686 0.50468 0.0
C662 C 0.44597 0.22046 0.45156 0.0
O663 O 0.69684 0.23538 0.4777 0.0
O664 O 0.59743 0.24682 0.50988 0.0
N665 N 0.42668 0.19254 0.5697 0.0
C666 C 0.46927 0.17846 0.57985 0.0
C667 C 0.46459 0.17311 0.61491 0.0
C668 C 0.41461 0.18203 0.63894 0.0
C669 C 0.36967 0.19624 0.62766 0.0
C670 C 0.37728 0.20105 0.59245 0.0
H671 H 0.5081 0.1716 0.56154 0.0
O672 O 0.65821 0.21811 0.54429 0.0
O673 O 0.52108 0.2163 0.53622 0.0
O674 O 0.61674 0.19705 0.48572 0.0
O675 O 0.49377 0.18525 0.50344 0.0
C676 C 0.31872 0.20597 0.6501 0.0
C677 C 0.27699 0.22037 0.63709 0.0
H678 H 0.2108 0.24776 0.60322 0.0
H679 H 0.23873 0.25516 0.541 0.0
H680 H 0.5004 0.16229 0.62347 0.0
H681 H 0.41159 0.17791 0.66602 0.0
H682 H 0.3118 0.20258 0.67748 0.0
H683 H 0.23874 0.22785 0.65468 0.0
Mn684 Mn 0.6333 0.07675 0.49832 0.0
Mn685 Mn 0.81806 0.09339 0.5221 0.0
C686 C 0.64829 0.08549 0.55607 0.0
C687 C 0.55608 0.05131 0.49469 0.0
C688 C 0.67845 0.1145 0.49017 0.0
O689 O 0.70667 0.07152 0.45537 0.0
O690 O 0.8236 0.08484 0.4726 0.0
C691 C 0.91074 0.06102 0.52175 0.0
N692 N 0.88199 0.07472 0.53953 0.0
C693 C 0.9497 0.06545 0.59271 0.0
C694 C 0.98105 0.0514 0.57481 0.0
C695 C 0.96082 0.0491 0.53926 0.0
C696 C 0.89927 0.07682 0.57398 0.0
H697 H 0.89643 0.05928 0.49431 0.0
C698 C 0.78128 0.07682 0.44939 0.0
O699 O 0.53114 0.06467 0.4778 0.0
O700 O 0.6268 0.05256 0.51097 0.0
N701 N 0.82821 0.10226 0.56829 0.0
C702 C 0.81705 0.11853 0.578 0.0
C703 C 0.84071 0.12361 0.61176 0.0
C704 C 0.87725 0.11206 0.6351 0.0
C705 C 0.89523 0.09576 0.62344 0.0
C706 C 0.871 0.09145 0.58922 0.0
H707 H 0.79123 0.12764 0.55988 0.0
O708 O 0.57535 0.08277 0.54229 0.0
O709 O 0.71308 0.08181 0.53581 0.0
O710 O 0.62809 0.10208 0.48357 0.0
O711 O 0.75051 0.11271 0.50529 0.0
C712 C 0.94238 0.08414 0.64335 0.0
C713 C 0.96939 0.06894 0.62801 0.0
H714 H 0.02106 0.04235 0.58805 0.0
H715 H 0.98452 0.03824 0.5253 0.0
H716 H 0.83298 0.13651 0.61916 0.0
H717 H 0.89609 0.11616 0.66105 0.0
H718 H 0.96125 0.08707 0.66998 0.0
H719 H 0.00791 0.06033 0.64318 0.0
Mn720 Mn 0.40073 0.96772 0.2623 0.0
Mn721 Mn 0.31095 0.96757 0.1847 0.0
C722 C 0.35447 0.99338 0.24194 0.0
C723 C 0.37276 0.96046 0.31923 0.0
C724 C 0.49538 0.96102 0.19796 0.0
O725 O 0.38071 0.94371 0.24973 0.0
O726 O 0.28436 0.94519 0.20678 0.0
C727 C 0.12792 0.96669 0.20029 0.0
N728 N 0.19499 0.97464 0.18547 0.0
C729 C 0.08679 0.99383 0.15129 0.0
C730 C 0.0229 0.98518 0.17109 0.0
C731 C 0.04441 0.97213 0.19441 0.0
C732 C 0.18419 0.98766 0.16389 0.0
H733 H 0.13826 0.95605 0.21741 0.0
C734 C 0.3297 0.93679 0.22865 0.0
O735 O 0.44997 0.95986 0.30737 0.0
O736 O 0.31486 0.9663 0.29874 0.0
N737 N 0.34027 0.98796 0.15937 0.0
C738 C 0.41884 0.99336 0.1499 0.0
C739 C 0.43184 1.00578 0.12412 0.0
C740 C 0.36569 0.01323 0.10538 0.0
C741 C 0.28234 1.00925 0.11291 0.0
C742 C 0.27142 0.99515 0.14603 0.0
H743 H 0.47392 0.98809 0.16192 0.0
O744 O 0.40812 0.99251 0.26768 0.0
O745 O 0.32945 0.97883 0.22969 0.0
O746 O 0.50065 0.96743 0.22857 0.0
O747 O 0.42642 0.95968 0.1812 0.0
C748 C 0.20519 0.01895 0.08979 0.0
C749 C 0.10151 0.01568 0.09888 0.0
H750 H 0.95604 0.98768 0.16871 0.0
H751 H -0.00609 0.96562 0.20794 0.0
H752 H 0.49602 1.00941 0.11783 0.0
H753 H 0.37992 0.02234 0.08511 0.0
H754 H 0.22193 0.02764 0.06907 0.0
H755 H 0.05522 0.02243 0.08279 0.0
Mn756 Mn 0.32422 0.83526 0.26227 0.0
Mn757 Mn 0.40453 0.83444 0.18291 0.0
C758 C 0.36384 0.80928 0.24155 0.0
C759 C 0.36044 0.84214 0.31883 0.0
C760 C 0.22224 0.8416 0.19907 0.0
O761 O 0.34618 0.85907 0.24887 0.0
O762 O 0.43626 0.85681 0.20382 0.0
C763 C 0.58833 0.83423 0.19672 0.0
N764 N 0.51923 0.82666 0.18262 0.0
C765 C 0.62172 0.80546 0.15101 0.0
C766 C 0.68795 0.81396 0.16985 0.0
C767 C 0.67021 0.82782 0.19149 0.0
C768 C 0.52634 0.81304 0.1625 0.0
H769 H 0.5809 0.84528 0.21288 0.0
C770 C 0.39558 0.86555 0.22658 0.0
O771 O 0.28211 0.84333 0.30839 0.0
O772 O 0.41478 0.83624 0.29695 0.0
N773 N 0.37028 0.81401 0.15854 0.0
C774 C 0.29039 0.80913 0.14962 0.0
C775 C 0.27405 0.79624 0.12523 0.0
C776 C 0.33795 0.78766 0.10742 0.0
C777 C 0.42227 0.79104 0.1144 0.0
C778 C 0.43716 0.80597 0.14561 0.0
H779 H 0.23661 0.81514 0.16097 0.0
O780 O 0.31381 0.81053 0.26836 0.0
O781 O 0.3893 0.82362 0.22849 0.0
O782 O 0.22067 0.83591 0.23043 0.0
O783 O 0.28967 0.84289 0.18122 0.0
C784 C 0.49671 0.77986 0.09275 0.0
C785 C 0.60127 0.78225 0.10169 0.0
H786 H 0.75403 0.81069 0.16804 0.0
H787 H 0.72246 0.83411 0.20435 0.0
H788 H 0.20897 0.79309 0.1194 0.0
H789 H 0.32115 0.77812 0.08839 0.0
H790 H 0.47758 0.7708 0.07312 0.0
H791 H 0.64575 0.77454 0.08676 0.0
Mn792 Mn 0.42907 0.83317 0.51892 0.0
Mn793 Mn 0.30245 0.82822 0.5862 0.0
C794 C 0.3638 0.80727 0.52506 0.0
C795 C 0.43242 0.84389 0.46299 0.0
C796 C 0.49075 0.83121 0.59223 0.0
O797 O 0.4098 0.85641 0.53749 0.0
O798 O 0.29667 0.85308 0.57258 0.0
C799 C 0.12767 0.83469 0.56141 0.0
N800 N 0.18509 0.82408 0.57583 0.0
C801 C 0.05819 0.80788 0.60585 0.0
C802 C 0.00495 0.81932 0.58679 0.0
C803 C 0.04001 0.83198 0.56526 0.0
C804 C 0.1603 0.81076 0.59473 0.0
H805 H 0.14922 0.84563 0.54707 0.0
C806 C 0.35205 0.86242 0.55678 0.0
O807 O 0.50242 0.84255 0.48085 0.0
O808 O 0.3637 0.83867 0.47744 0.0
N809 N 0.31219 0.80524 0.60196 0.0
C810 C 0.3828 0.79586 0.60723 0.0
C811 C 0.38357 0.78219 0.63079 0.0
C812 C 0.31253 0.77749 0.65047 0.0
C813 C 0.2339 0.78451 0.64332 0.0
C814 C 0.23759 0.79972 0.61229 0.0
H815 H 0.44121 0.79938 0.59464 0.0
O816 O 0.43011 0.80893 0.50542 0.0
O817 O 0.33766 0.82113 0.53983 0.0
O818 O 0.51123 0.82924 0.56007 0.0
O819 O 0.41551 0.8324 0.60267 0.0
C820 C 0.14776 0.77709 0.66456 0.0
C821 C 0.04927 0.78433 0.65525 0.0
H822 H 0.93681 0.8193 0.58851 0.0
H823 H -0.00265 0.84065 0.55234 0.0
H824 H 0.44251 0.77566 0.63526 0.0
H825 H 0.31824 0.76759 0.66985 0.0
H826 H 0.15503 0.76734 0.68415 0.0
H827 H -0.00346 0.77887 0.66996 0.0
Mn828 Mn 0.30724 0.96331 0.51703 0.0
Mn829 Mn 0.43147 0.96999 0.58447 0.0
C830 C 0.36654 0.98978 0.52233 0.0
C831 C 0.3038 0.95222 0.4617 0.0
C832 C 0.245 0.96481 0.58983 0.0
O833 O 0.33227 0.94041 0.53673 0.0
O834 O 0.44514 0.94523 0.57153 0.0
C835 C 0.60807 0.96527 0.56187 0.0
N836 N 0.54725 0.97554 0.57476 0.0
C837 C 0.6676 0.99317 0.60565 0.0
C838 C 0.72485 0.98192 0.58824 0.0
C839 C 0.69457 0.96875 0.56691 0.0
C840 C 0.56731 0.98936 0.59301 0.0
H841 H 0.59019 0.95397 0.54796 0.0
C842 C 0.39187 0.93521 0.55624 0.0
O843 O 0.23434 0.95317 0.4799 0.0
O844 O 0.37251 0.95791 0.47552 0.0
N845 N 0.41348 0.99304 0.59931 0.0
C846 C 0.339 1.0011 0.60529 0.0
C847 C 0.33416 0.0156 0.62635 0.0
C848 C 0.40446 0.0224 0.64373 0.0
C849 C 0.48462 0.0159 0.63811 0.0
C850 C 0.48627 1.00003 0.6085 0.0
H851 H 0.28105 0.99623 0.59453 0.0
O852 O 0.30087 0.98742 0.50256 0.0
O853 O 0.39588 0.97627 0.53756 0.0
O854 O 0.22458 0.96698 0.55774 0.0
O855 O 0.32029 0.96418 0.60032 0.0
C856 C 0.56739 0.02425 0.66024 0.0
C857 C 0.66801 0.01755 0.6532 0.0
H858 H 0.79274 0.98248 0.59104 0.0
H859 H 0.74012 0.9603 0.55524 0.0
H860 H 0.27288 0.02122 0.63053 0.0
H861 H 0.39639 0.03297 0.66122 0.0
H862 H 0.55605 0.03384 0.6797 0.0
H863 H 0.71836 0.02353 0.66848 0.0
Mn864 Mn 0.58682 0.57799 0.26234 0.0
Mn865 Mn 0.41116 0.59664 0.23353 0.0
C866 C 0.57987 0.58602 0.20401 0.0
C867 C 0.65782 0.55255 0.26937 0.0
C868 C 0.55011 0.61567 0.2713 0.0
O869 O 0.50554 0.57387 0.30326 0.0
O870 O 0.39143 0.58719 0.28216 0.0
C871 C 0.30987 0.56547 0.22675 0.0
N872 N 0.3435 0.57958 0.21198 0.0
C873 C 0.28732 0.57222 0.15532 0.0
C874 C 0.25114 0.55773 0.17004 0.0
C875 C 0.26266 0.55433 0.2059 0.0
C876 C 0.33323 0.58292 0.17746 0.0
H877 H 0.31949 0.56268 0.25418 0.0
C878 C 0.42975 0.57907 0.30666 0.0
O879 O 0.68259 0.5659 0.28631 0.0
O880 O 0.58991 0.55382 0.25097 0.0
N881 N 0.41926 0.60619 0.18755 0.0
C882 C 0.46249 0.62014 0.17704 0.0
C883 C 0.46189 0.62471 0.14144 0.0
C884 C 0.41559 0.61512 0.11718 0.0
C885 C 0.37028 0.601 0.12873 0.0
C886 C 0.37359 0.59699 0.1645 0.0
H887 H 0.49889 0.62746 0.19554 0.0
O888 O 0.65124 0.58305 0.21906 0.0
O889 O 0.51276 0.58348 0.22359 0.0
O890 O 0.5979 0.60292 0.27725 0.0
O891 O 0.47988 0.61471 0.25465 0.0
C892 C 0.32349 0.59054 0.10604 0.0
C893 C 0.28176 0.5762 0.11935 0.0
H894 H 0.2155 0.54901 0.15396 0.0
H895 H 0.23577 0.54308 0.21737 0.0
H896 H 0.49832 0.6354 0.13262 0.0
H897 H 0.41597 0.61862 0.0897 0.0
H898 H 0.32001 0.5933 0.07824 0.0
H899 H 0.24694 0.56813 0.10157 0.0
Mn900 Mn 0.6181 0.72123 0.26196 0.0
Mn901 Mn 0.80043 0.70362 0.2398 0.0
C902 C 0.62836 0.71092 0.20455 0.0
C903 C 0.54417 0.74692 0.26211 0.0
C904 C 0.66211 0.68453 0.27785 0.0
O905 O 0.69342 0.728 0.30346 0.0
O906 O 0.8117 0.71534 0.28628 0.0
C907 C 0.8903 0.73585 0.2282 0.0
N908 N 0.86378 0.72064 0.21599 0.0
C909 C 0.92849 0.72561 0.15986 0.0
C910 C 0.95766 0.74121 0.172 0.0
C911 C 0.93788 0.74642 0.20622 0.0
C912 C 0.88028 0.71574 0.18278 0.0
H913 H 0.87551 0.73985 0.25454 0.0
C914 C 0.76971 0.7237 0.30899 0.0
O915 O 0.51807 0.73432 0.2811 0.0
O916 O 0.61331 0.74477 0.24525 0.0
N917 N 0.8069 0.69131 0.19714 0.0
C918 C 0.79097 0.67459 0.19269 0.0
C919 C 0.81212 0.66688 0.16085 0.0
C920 C 0.85204 0.67628 0.13432 0.0
C921 C 0.87353 0.69313 0.14055 0.0
C922 C 0.85123 0.70009 0.17296 0.0
H923 H 0.7621 0.66721 0.21323 0.0
O924 O 0.55736 0.71339 0.22004 0.0
O925 O 0.69504 0.71486 0.22384 0.0
O926 O 0.61047 0.69691 0.28113 0.0
O927 O 0.73426 0.68578 0.26291 0.0
C928 C 0.92019 0.70299 0.11668 0.0
C929 C 0.94718 0.71928 0.12624 0.0
H930 H -0.00396 0.7492 0.15538 0.0
H931 H 0.95977 0.7585 0.21569 0.0
H932 H 0.79785 0.65373 0.15713 0.0
H933 H 0.86889 0.6703 0.10982 0.0
H934 H 0.93754 0.69801 0.09125 0.0
H935 H 0.98422 0.72664 0.10791 0.0
Mn936 Mn 0.5884 0.7212 0.99421 0.0
Mn937 Mn 0.41107 0.70258 0.02165 0.0
C938 C 0.57858 0.71321 0.05261 0.0
C939 C 0.6611 0.74696 0.98922 0.0
C940 C 0.5516 0.68325 0.986 0.0
O941 O 0.50947 0.7251 0.95208 0.0
O942 O 0.39505 0.71159 0.97242 0.0
C943 C 0.31033 0.73387 0.02597 0.0
N944 N 0.34246 0.71987 0.04167 0.0
C945 C 0.28175 0.72762 0.0972 0.0
C946 C 0.24699 0.74199 0.08148 0.0
C947 C 0.2616 0.74515 0.04574 0.0
C948 C 0.32938 0.71678 0.07611 0.0
H949 H 0.32226 0.73647 0.99862 0.0
C950 C 0.43423 0.71958 0.94798 0.0
O951 O 0.68647 0.7337 0.97216 0.0
O952 O 0.59077 0.74554 0.00577 0.0
N953 N 0.41535 0.69338 0.06804 0.0
C954 C 0.45644 0.67937 0.07954 0.0
C955 C 0.45226 0.67498 0.11519 0.0
C956 C 0.40451 0.68479 0.13846 0.0
C957 C 0.36121 0.69893 0.12585 0.0
C958 C 0.36813 0.70277 0.0901 0.0
H959 H 0.49375 0.67185 0.0618 0.0
O960 O 0.65047 0.71626 0.03821 0.0
O961 O 0.5124 0.71573 0.03243 0.0
O962 O 0.59982 0.69601 0.97986 0.0
O963 O 0.48084 0.68437 1.00212 0.0
C964 C 0.31267 0.70954 0.14747 0.0
C965 C 0.27272 0.72384 0.13313 0.0
H966 H 0.20996 0.7508 0.09671 0.0
H967 H 0.23578 0.75632 0.03351 0.0
H968 H 0.48673 0.66421 0.12483 0.0
H969 H 0.402 0.68141 0.16598 0.0
H970 H 0.30635 0.70691 0.17523 0.0
H971 H 0.23638 0.73201 0.15009 0.0
Mn972 Mn 0.61791 0.57665 0.99414 0.0
Mn973 Mn 0.80028 0.59459 0.01604 0.0
C974 C 0.62943 0.58658 0.05194 0.0
C975 C 0.54525 0.5504 0.99479 0.0
C976 C 0.65961 0.61381 0.97981 0.0
O977 O 0.69165 0.57062 0.95159 0.0
O978 O 0.8097 0.58346 0.96885 0.0
C979 C 0.89228 0.56248 0.02536 0.0
N980 N 0.86536 0.57745 0.03858 0.0
C981 C 0.93284 0.57197 0.09401 0.0
C982 C 0.96227 0.5566 0.08085 0.0
C983 C 0.94133 0.55178 0.04647 0.0
C984 C 0.8831 0.58199 0.07193 0.0
H985 H 0.87667 0.55878 0.99888 0.0
C986 C 0.76735 0.57532 0.94582 0.0
O987 O 0.51744 0.56297 0.97616 0.0
O988 O 0.6161 0.55279 0.01026 0.0
N989 N 0.80872 0.60646 0.05918 0.0
C990 C 0.79383 0.62315 0.06429 0.0
C991 C 0.81595 0.63054 0.09636 0.0
C992 C 0.85644 0.6209 0.12235 0.0
C993 C 0.87772 0.60413 0.11527 0.0
C994 C 0.85402 0.59746 0.08271 0.0
H995 H 0.76456 0.63074 0.04416 0.0
O996 O 0.55829 0.58383 0.03676 0.0
O997 O 0.69579 0.58302 0.03224 0.0
O998 O 0.60805 0.60134 0.97621 0.0
O999 O 0.73237 0.61251 0.99428 0.0
C1000 C 0.92569 0.59408 0.13836 0.0
C1001 C 0.95278 0.57796 0.12782 0.0
H1002 H 0.00133 0.54845 0.09684 0.0
H1003 H 0.96348 0.53989 0.0362 0.0
H1004 H 0.80183 0.64364 0.10068 0.0
H1005 H 0.87401 0.62668 0.14703 0.0
H1006 H 0.94415 0.59883 0.16388 0.0
H1007 H -0.00901 0.57047 0.14552 0.0
Mn1008 Mn 0.40078 0.46222 0.75638 0.0
Mn1009 Mn 0.30314 0.46572 0.68105 0.0
C1010 C 0.35101 0.48858 0.74228 0.0
C1011 C 0.38318 0.45272 0.81247 0.0
C1012 C 0.48777 0.4584 0.68936 0.0
O1013 O 0.37865 0.43885 0.73939 0.0
O1014 O 0.2768 0.44235 0.69899 0.0
C1015 C 0.12161 0.46508 0.69924 0.0
N1016 N 0.18833 0.47326 0.68479 0.0
C1017 C 0.08025 0.49381 0.65428 0.0
C1018 C 0.01649 0.4845 0.67286 0.0
C1019 C 0.0382 0.47083 0.6946 0.0
C1020 C 0.17754 0.48717 0.66568 0.0
H1021 H 0.13217 0.45384 0.71463 0.0
C1022 C 0.32488 0.43292 0.71804 0.0
O1023 O 0.45797 0.45273 0.7982 0.0
O1024 O 0.32117 0.45889 0.79454 0.0
N1025 N 0.33313 0.48723 0.66007 0.0
C1026 C 0.41167 0.49302 0.65163 0.0
C1027 C 0.42479 0.50641 0.62807 0.0
C1028 C 0.35867 0.51461 0.61075 0.0
C1029 C 0.27534 0.51051 0.61799 0.0
C1030 C 0.26453 0.49524 0.64882 0.0
H1031 H 0.46655 0.48741 0.66293 0.0
O1032 O 0.40765 0.48672 0.76665 0.0
O1033 O 0.3251 0.47461 0.72782 0.0
O1034 O 0.49598 0.46376 0.7207 0.0
O1035 O 0.41705 0.45751 0.67391 0.0
C1036 C 0.19802 0.52105 0.59663 0.0
C1037 C 0.09441 0.51746 0.60539 0.0
H1038 H 0.94958 0.487 0.6708 0.0
H1039 H 0.9878 0.46396 0.70742 0.0
H1040 H 0.48901 0.51023 0.62236 0.0
H1041 H 0.37288 0.52439 0.59192 0.0
H1042 H 0.21456 0.5304 0.57716 0.0
H1043 H 0.0481 0.5245 0.59 0.0
Mn1044 Mn 0.30985 0.33206 0.75338 0.0
Mn1045 Mn 0.41473 0.32749 0.67963 0.0
C1046 C 0.36382 0.30581 0.74179 0.0
C1047 C 0.33008 0.34201 0.80956 0.0
C1048 C 0.22693 0.3319 0.68384 0.0
O1049 O 0.32831 0.35527 0.7353 0.0
O1050 O 0.42892 0.35182 0.69442 0.0
C1051 C 0.59423 0.33258 0.69876 0.0
N1052 N 0.5327 0.32255 0.68538 0.0
C1053 C 0.65178 0.30516 0.65353 0.0
C1054 C 0.70988 0.31593 0.6719 0.0
C1055 C 0.6805 0.32898 0.69365 0.0
C1056 C 0.55169 0.30908 0.66605 0.0
H1057 H 0.57715 0.34359 0.71374 0.0
C1058 C 0.38017 0.36114 0.71323 0.0
O1059 O 0.25428 0.34173 0.79604 0.0
O1060 O 0.39063 0.33608 0.79087 0.0
N1061 N 0.39754 0.30498 0.66174 0.0
C1062 C 0.32336 0.29679 0.65576 0.0
C1063 C 0.31699 0.28349 0.63151 0.0
C1064 C 0.386 0.27774 0.61191 0.0
C1065 C 0.46685 0.28386 0.61833 0.0
C1066 C 0.46979 0.29895 0.6496 0.0
H1067 H 0.26677 0.30071 0.66907 0.0
O1068 O 0.3055 0.30771 0.76531 0.0
O1069 O 0.38933 0.31964 0.72666 0.0
O1070 O 0.21514 0.3296 0.71671 0.0
O1071 O 0.29885 0.33265 0.6696 0.0
C1072 C 0.54913 0.27564 0.59578 0.0
C1073 C 0.65023 0.28179 0.60381 0.0
H1074 H 0.77775 0.31512 0.66943 0.0
H1075 H 0.72664 0.33713 0.70598 0.0
H1076 H 0.2557 0.27783 0.62701 0.0
H1077 H 0.37657 0.26795 0.59261 0.0
H1078 H 0.53759 0.26614 0.57606 0.0
H1079 H 0.70019 0.27589 0.58828 0.0
Mn1080 Mn 0.41697 0.3318 0.00861 0.0
Mn1081 Mn 0.30635 0.32641 0.08008 0.0
C1082 C 0.35721 0.30557 0.01682 0.0
C1083 C 0.40394 0.34341 0.95354 0.0
C1084 C 0.49391 0.33041 0.07879 0.0
O1085 O 0.40217 0.3547 0.02949 0.0
O1086 O 0.29253 0.35087 0.06592 0.0
C1087 C 0.12714 0.33133 0.06115 0.0
N1088 N 0.18892 0.32119 0.07387 0.0
C1089 C 0.07106 0.304 0.10712 0.0
C1090 C 0.01238 0.31477 0.08907 0.0
C1091 C 0.04105 0.32778 0.06694 0.0
C1092 C 0.17048 0.3077 0.09338 0.0
H1093 H 0.14395 0.34242 0.04626 0.0
C1094 C 0.34864 0.36036 0.05114 0.0
O1095 O 0.47843 0.34207 0.968 0.0
O1096 O 0.34032 0.33754 0.9706 0.0
N1097 N 0.32473 0.30372 0.09705 0.0
C1098 C 0.39922 0.29559 0.1028 0.0
C1099 C 0.40633 0.28233 0.12718 0.0
C1100 C 0.33806 0.27665 0.14735 0.0
C1101 C 0.25697 0.28267 0.14117 0.0
C1102 C 0.25288 0.29756 0.10938 0.0
H1103 H 0.45583 0.29964 0.08968 0.0
O1104 O 0.41693 0.30768 0.99398 0.0
O1105 O 0.33333 0.31922 0.03293 0.0
O1106 O 0.50839 0.32771 0.04623 0.0
O1107 O 0.42076 0.33198 0.09125 0.0
C1108 C 0.17566 0.27471 0.16483 0.0
C1109 C 0.07444 0.28098 0.15765 0.0
H1110 H 0.94463 0.31403 0.09216 0.0
H1111 H -0.0054 0.33598 0.05502 0.0
H1112 H 0.46783 0.27678 0.13159 0.0
H1113 H 0.34829 0.267 0.16696 0.0
H1114 H 0.18792 0.26536 0.18482 0.0
H1115 H 0.02516 0.2753 0.17397 0.0
Mn1116 Mn 0.31666 0.4607 0.01244 0.0
Mn1117 Mn 0.42359 0.46559 0.08481 0.0
C1118 C 0.36806 0.4875 0.02278 0.0
C1119 C 0.32681 0.44992 0.95718 0.0
C1120 C 0.23812 0.45852 0.08126 0.0
O1121 O 0.3384 0.43761 0.03193 0.0
O1122 O 0.4498 0.4422 0.06714 0.0
C1123 C 0.60513 0.46581 0.06485 0.0
N1124 N 0.53802 0.47359 0.07984 0.0
C1125 C 0.64608 0.49373 0.1122 0.0
C1126 C 0.71001 0.48503 0.09271 0.0
C1127 C 0.68848 0.47172 0.06988 0.0
C1128 C 0.5488 0.48705 0.10028 0.0
H1129 H 0.59492 0.45478 0.04883 0.0
C1130 C 0.39531 0.43228 0.05257 0.0
O1131 O 0.25369 0.45044 0.97283 0.0
O1132 O 0.39147 0.45617 0.97328 0.0
N1133 N 0.39328 0.48706 0.10529 0.0
C1134 C 0.31493 0.49331 0.11216 0.0
C1135 C 0.30117 0.50618 0.13682 0.0
C1136 C 0.36657 0.51347 0.15631 0.0
C1137 C 0.45006 0.50919 0.14983 0.0
C1138 C 0.46159 0.4946 0.11787 0.0
H1139 H 0.26113 0.48868 0.09826 0.0
O1140 O 0.30975 0.48494 0.99942 0.0
O1141 O 0.39639 0.47388 0.03799 0.0
O1142 O 0.22602 0.46352 0.04985 0.0
O1143 O 0.31108 0.45706 0.09445 0.0
C1144 C 0.52666 0.5194 0.17212 0.0
C1145 C 0.63019 0.51632 0.16309 0.0
H1146 H 0.77675 0.48772 0.09496 0.0
H1147 H 0.73908 0.46522 0.05649 0.0
H1148 H 0.23711 0.51039 0.14137 0.0
H1149 H 0.3519 0.52301 0.17557 0.0
H1150 H 0.50957 0.52843 0.19209 0.0
H1151 H 0.67609 0.52352 0.17858 0.0
C1152 C 0.06812 0.09903 0.10405 0.0
C1153 C 0.12403 0.08701 0.08996 0.0
C1154 C 0.04923 0.09952 0.14021 0.0
C1155 C 0.07929 0.08716 0.16347 0.0
H1156 H 0.03931 0.10828 0.08691 0.0
H1157 H 0.01426 0.11005 0.1499 0.0
S1158 S 0.23755 0.05446 0.14028 0.0
N1159 N 0.21579 0.06356 0.10249 0.0
N1160 N 0.17765 0.06379 0.16976 0.0
C1161 C 0.13719 0.07533 0.1495 0.0
C1162 C 0.15922 0.0753 0.11304 0.0
C1163 C 0.06746 0.1988 0.11763 0.0
C1164 C 0.09753 0.21056 0.09322 0.0
C1165 C 0.08513 0.20009 0.15377 0.0
C1166 C 0.14138 0.21229 0.16696 0.0
H1167 H 0.03391 0.18805 0.1089 0.0
H1168 H 0.05541 0.19126 0.1716 0.0
S1169 S 0.26008 0.2429 0.11323 0.0
N1170 N 0.19832 0.23333 0.08479 0.0
N1171 N 0.23738 0.23483 0.15199 0.0
C1172 C 0.17855 0.22324 0.1427 0.0
C1173 C 0.1565 0.22248 0.10616 0.0
C1174 C 0.89201 0.94128 0.91169 0.0
C1175 C 0.81009 0.9445 0.92446 0.0
C1176 C 0.91139 0.94362 0.87638 0.0
C1177 C 0.84894 0.94891 0.85283 0.0
H1178 H 0.9435 0.93862 0.92963 0.0
H1179 H 0.97664 0.94252 0.86816 0.0
S1180 S 0.6192 0.95294 0.87133 0.0
N1181 N 0.66264 0.94907 0.9099 0.0
N1182 N 0.69764 0.95278 0.84284 0.0
C1183 C 0.76412 0.94934 0.86429 0.0
C1184 C 0.7448 0.94718 0.90043 0.0
C1185 C 0.98878 0.84243 0.90373 0.0
C1186 C 0.93073 0.84927 0.92728 0.0
C1187 C 0.96703 0.84064 0.86847 0.0
C1188 C 0.8869 0.84569 0.85614 0.0
H1189 H 0.04665 0.8367 0.91313 0.0
H1190 H 0.0108 0.83407 0.85151 0.0
S1191 S 0.72442 0.86892 0.9061 0.0
N1192 N 0.79863 0.86443 0.93509 0.0
N1193 N 0.75821 0.86124 0.86844 0.0
C1194 C 0.83372 0.85469 0.87854 0.0
C1195 C 0.85595 0.85654 0.91433 0.0
C1196 C 0.13117 0.59974 0.65005 0.0
C1197 C 0.0768 0.58728 0.66373 0.0
C1198 C 0.14938 0.60077 0.61386 0.0
C1199 C 0.12097 0.58851 0.5901 0.0
H1200 H 0.15898 0.60896 0.66752 0.0
H1201 H 0.18262 0.61161 0.60462 0.0
S1202 S 0.96746 0.5547 0.61173 0.0
N1203 N 0.98732 0.56354 0.64998 0.0
N1204 N 0.02666 0.56458 0.58286 0.0
C1205 C 0.06511 0.57617 0.60364 0.0
C1206 C 0.04283 0.57566 0.64009 0.0
C1207 C 0.08085 0.69774 0.64771 0.0
C1208 C 0.13277 0.71011 0.66318 0.0
C1209 C 0.0629 0.69781 0.61144 0.0
C1210 C 0.08731 0.71123 0.58969 0.0
H1211 H 0.05519 0.6877 0.66376 0.0
H1212 H 0.03355 0.68693 0.60045 0.0
S1213 S 0.23631 0.74494 0.61575 0.0
N1214 N 0.2187 0.73475 0.65274 0.0
N1215 N 0.17762 0.73583 0.58567 0.0
C1216 C 0.14135 0.72338 0.60487 0.0
C1217 C 0.1645 0.72273 0.64124 0.0
C1218 C 0.76939 0.44927 0.39558 0.0
C1219 C 0.83267 0.44797 0.42098 0.0
C1220 C 0.79086 0.44987 0.36018 0.0
C1221 C 0.8762 0.44941 0.3494 0.0
H1222 H 0.70439 0.45156 0.40303 0.0
H1223 H 0.7405 0.45223 0.34155 0.0
S1224 S 0.06088 0.44004 0.4056 0.0
N1225 N 0.98052 0.44146 0.43301 0.0
N1226 N 0.02102 0.44327 0.36611 0.0
C1227 C 0.93819 0.44547 0.37418 0.0
C1228 C 0.91617 0.44455 0.41023 0.0
C1229 C 0.93595 0.35741 0.35782 0.0
C1230 C 0.85374 0.3574 0.34358 0.0
C1231 C 0.94855 0.35697 0.39398 0.0
C1232 C 0.87922 0.35663 0.41669 0.0
H1233 H -0.00917 0.3562 0.34106 0.0
H1234 H 0.01218 0.35525 0.40386 0.0
S1235 S 0.65383 0.36249 0.39271 0.0
N1236 N 0.70389 0.36133 0.35482 0.0
N1237 N 0.72757 0.36087 0.4232 0.0
C1238 C 0.79784 0.35943 0.40295 0.0
C1239 C 0.78499 0.35977 0.36609 0.0
C1240 C 0.60164 0.07168 0.64839 0.0
C1241 C 0.58815 0.0868 0.66667 0.0
C1242 C 0.6315 0.07146 0.6136 0.0
C1243 C 0.64792 0.08643 0.59499 0.0
H1244 H 0.5922 0.05985 0.66169 0.0
H1245 H 0.63812 0.05942 0.60058 0.0
S1246 S 0.62474 0.12953 0.63069 0.0
N1247 N 0.60482 0.11715 0.66455 0.0
N1248 N 0.6407 0.11691 0.59694 0.0
C1249 C 0.63244 0.10167 0.61263 0.0
C1250 C 0.60862 0.10182 0.649 0.0
C1251 C 0.6494 0.19774 0.64705 0.0
C1252 C 0.62107 0.2102 0.67023 0.0
C1253 C 0.63506 0.19875 0.6106 0.0
C1254 C 0.58313 0.2113 0.59596 0.0
H1255 H 0.67887 0.18671 0.65697 0.0
H1256 H 0.66346 0.18937 0.59373 0.0
S1257 S 0.46922 0.24384 0.64602 0.0
N1258 N 0.52625 0.23409 0.67588 0.0
N1259 N 0.49233 0.23497 0.60815 0.0
C1260 C 0.54723 0.22295 0.61898 0.0
C1261 C 0.56648 0.22251 0.65578 0.0
C1262 C 0.24744 0.95565 0.40238 0.0
C1263 C 0.30588 0.94791 0.42465 0.0
C1264 C 0.26869 0.95895 0.36756 0.0
C1265 C 0.34875 0.95456 0.35424 0.0
H1266 H 0.18934 0.96084 0.41272 0.0
H1267 H 0.22413 0.96603 0.35181 0.0
S1268 S 0.51259 0.9296 0.40007 0.0
N1269 N 0.43833 0.93266 0.42977 0.0
N1270 N 0.47851 0.93886 0.36392 0.0
C1271 C 0.40286 0.94485 0.37511 0.0
C1272 C 0.38091 0.94141 0.41048 0.0
C1273 C 0.34861 0.85451 0.41358 0.0
C1274 C 0.42775 0.84921 0.42635 0.0
C1275 C 0.3286 0.8532 0.3781 0.0
C1276 C 0.38769 0.84681 0.35435 0.0
H1277 H 0.29903 0.85823 0.43154 0.0
H1278 H 0.2649 0.85619 0.36976 0.0
S1279 S 0.61167 0.836 0.37356 0.0
N1280 N 0.57065 0.84068 0.41213 0.0
N1281 N 0.53482 0.83871 0.34479 0.0
C1282 C 0.47106 0.84381 0.36611 0.0
C1283 C 0.49094 0.845 0.40242 0.0
C1284 C 0.65139 0.5992 0.11284 0.0
C1285 C 0.62421 0.5859 0.09138 0.0
C1286 C 0.63447 0.59956 0.14916 0.0
C1287 C 0.58164 0.58752 0.16515 0.0
H1288 H 0.68144 0.60991 0.10156 0.0
H1289 H 0.66131 0.60961 0.16479 0.0
S1290 S 0.47273 0.55273 0.11982 0.0
N1291 N 0.53053 0.56155 0.08886 0.0
N1292 N 0.49374 0.56309 0.15621 0.0
C1293 C 0.54821 0.57487 0.14384 0.0
C1294 C 0.56941 0.57397 0.1073 0.0
C1295 C 0.64934 0.69891 0.1431 0.0
C1296 C 0.62198 0.71192 0.1652 0.0
C1297 C 0.632 0.69895 0.10679 0.0
C1298 C 0.57911 0.71115 0.09138 0.0
H1299 H 0.68052 0.68819 0.15382 0.0
H1300 H 0.6591 0.68914 0.09064 0.0
S1301 S 0.47072 0.74536 0.13859 0.0
N1302 N 0.52841 0.73615 0.16905 0.0
N1303 N 0.49131 0.73545 0.10162 0.0
C1304 C 0.54564 0.72351 0.11335 0.0
C1305 C 0.56697 0.72396 0.14994 0.0
C1306 C 0.28457 0.44795 0.86167 0.0
C1307 C 0.36746 0.44696 0.84835 0.0
C1308 C 0.26932 0.4468 0.89754 0.0
C1309 C 0.33661 0.44459 0.92085 0.0
H1310 H 0.23168 0.45094 0.84471 0.0
H1311 H 0.20615 0.44931 0.9071 0.0
S1312 S 0.56006 0.43571 0.89831 0.0
N1313 N 0.5139 0.43968 0.86032 0.0
N1314 N 0.48497 0.43724 0.92815 0.0
C1315 C 0.41743 0.44101 0.90751 0.0
C1316 C 0.43309 0.44229 0.87098 0.0
C1317 C 0.43426 0.34645 0.85714 0.0
C1318 C 0.3497 0.34753 0.84542 0.0
C1319 C 0.45411 0.34718 0.89274 0.0
C1320 C 0.39001 0.34917 0.9175 0.0
H1321 H 0.48513 0.34369 0.83907 0.0
H1322 H 0.51836 0.34456 0.90089 0.0
S1323 S 0.16381 0.35824 0.89962 0.0
N1324 N 0.20509 0.35458 0.86061 0.0
N1325 N 0.24256 0.35649 0.92785 0.0
C1326 C 0.30751 0.35289 0.90581 0.0
C1327 C 0.28712 0.35192 0.86954 0.0
C1328 C 0.34428 0.0247 0.24084 0.0
C1329 C 0.30317 1.00893 0.2403 0.0
C1330 C 0.30071 0.03957 0.24957 0.0
C1331 C 0.21452 0.03915 0.25827 0.0
H1332 H 0.41145 0.02544 0.23564 0.0
H1333 H 0.33434 0.05145 0.2491 0.0
S1334 S 0.07927 1.00115 0.26383 0.0
N1335 N 0.17275 0.99391 0.25215 0.0
N1336 N 0.08999 0.02175 0.26636 0.0
C1337 C 0.17269 0.02354 0.2575 0.0
C1338 C 0.21711 1.00846 0.24909 0.0
C1339 C 0.01294 0.29603 0.24868 0.0
C1340 C 0.92427 0.2963 0.24714 0.0
C1341 C 0.05706 0.28117 0.2565 0.0
C1342 C 0.01426 0.26608 0.26441 0.0
H1343 H 0.04867 0.30752 0.24543 0.0
H1344 H 0.12547 0.28159 0.25688 0.0
S1345 S 0.78189 0.26003 0.26345 0.0
N1346 N 0.79507 0.2801 0.25353 0.0
N1347 N 0.8777 0.25226 0.26912 0.0
C1348 C 0.92551 0.26617 0.26308 0.0
C1349 C 0.8807 0.28125 0.25437 0.0
C1350 C 0.30566 0.25934 1.00442 0.0
C1351 C 0.21829 0.25955 0.99795 0.0
C1352 C 0.34938 0.27425 0.01287 0.0
C1353 C 0.30725 0.28983 0.01524 0.0
H1354 H 0.34003 0.24758 1.00367 0.0
H1355 H 0.41702 0.27364 0.01704 0.0
S1356 S 0.08027 0.29717 0.99684 0.0
N1357 N 0.09175 0.27661 0.99326 0.0
N1358 N 0.17485 0.3046 0.00659 0.0
C1359 C 0.22031 0.29016 0.00805 0.0
C1360 C 0.17567 0.27502 1.00009 0.0
C1361 C 0.91334 0.03371 1.00194 0.0
C1362 C 0.00022 0.03318 0.9945 0.0
C1363 C 0.86951 0.01911 0.01231 0.0
C1364 C 0.91094 1.00351 0.01566 0.0
H1365 H 0.87957 0.04554 1.00068 0.0
H1366 H 0.80236 0.02 0.01744 0.0
S1367 S 0.1358 0.99523 0.99487 0.0
N1368 N 0.12527 0.01573 0.98962 0.0
N1369 N 0.04163 0.98822 0.00646 0.0
C1370 C -0.00285 1.00279 0.00719 0.0
C1371 C 0.04204 0.01766 0.99733 0.0
C1372 C 0.67871 0.02085 0.75451 0.0
C1373 C 0.71887 0.03618 0.76257 0.0
C1374 C 0.72527 1.00643 0.74635 0.0
C1375 C 0.81378 1.00688 0.74471 0.0
H1376 H 0.61044 0.01988 0.7552 0.0
H1377 H 0.69164 0.99469 0.74347 0.0
S1378 S 0.94947 0.04418 0.76077 0.0
N1379 N 0.85231 0.05117 0.76679 0.0
N1380 N 0.94008 0.02405 0.75068 0.0
C1381 C 0.85475 0.02225 0.75168 0.0
C1382 C 0.80732 0.0369 0.76074 0.0
C1383 C 0.91921 0.76216 0.75094 0.0
C1384 C 0.00556 0.76232 0.75951 0.0
C1385 C 0.87684 0.77712 0.74186 0.0
C1386 C 0.9192 0.79273 0.74096 0.0
H1387 H 0.88442 0.75042 0.75091 0.0
H1388 H 0.80948 0.77658 0.73687 0.0
S1389 S 0.14425 0.79984 0.76382 0.0
N1390 N 0.13186 0.77927 0.76684 0.0
N1391 N 0.05117 0.80736 0.75218 0.0
C1392 C 0.00553 0.79295 0.74955 0.0
C1393 C 0.04886 0.77775 0.7582 0.0
C1394 C 0.67461 0.77761 1.00299 0.0
C1395 C 0.71399 0.76212 0.99554 0.0
C1396 C 0.72148 0.79175 0.01371 0.0
C1397 C 0.80933 0.79082 0.01863 0.0
H1398 H 0.60678 0.77888 1.00025 0.0
H1399 H 0.68895 0.80359 0.01672 0.0
S1400 S 0.9423 0.75291 0.00544 0.0
N1401 N 0.84591 0.74658 0.99524 0.0
N1402 N 0.93361 0.77294 0.01631 0.0
C1403 C 0.84922 0.77531 0.01199 0.0
C1404 C 0.80178 0.76102 1.00031 0.0
C1405 C 0.16753 0.51875 0.75274 0.0
C1406 C 0.20808 0.53417 0.75992 0.0
C1407 C 0.21376 0.50417 0.74471 0.0
C1408 C 0.3023 0.50454 0.74215 0.0
H1409 H 0.09931 0.51785 0.75401 0.0
H1410 H 0.17997 0.49241 0.74231 0.0
S1411 S 0.4388 0.54198 0.75564 0.0
N1412 N 0.34208 0.54904 0.7624 0.0
N1413 N 0.42868 0.52179 0.74631 0.0
C1414 C 0.34343 0.51999 0.74825 0.0
C1415 C 0.29653 0.53475 0.75727 0.0
C1416 C 0.22439 0.79247 0.51777 0.0
C1417 C 0.31259 0.79163 0.52163 0.0
C1418 C 0.17691 0.77822 0.50816 0.0
C1419 C 0.216 0.76271 0.50067 0.0
H1420 H 0.19197 0.80434 0.52061 0.0
H1421 H 0.10895 0.77944 0.50598 0.0
S1422 S 0.44461 0.75355 0.50885 0.0
N1423 N 0.43664 0.77369 0.51895 0.0
N1424 N 0.34769 0.74714 0.49981 0.0
C1425 C 0.30394 0.76164 0.50472 0.0
C1426 C 0.35206 0.77603 0.51534 0.0
C1427 C 0.86623 0.52394 0.51381 0.0
C1428 C 0.90928 0.50849 0.51715 0.0
C1429 C 0.90894 0.53883 0.50438 0.0
C1430 C -0.00377 0.53874 0.49786 0.0
H1431 H 0.79852 0.52443 0.51778 0.0
H1432 H 0.87378 0.55048 0.50279 0.0
S1433 S 0.13665 0.50146 0.49943 0.0
N1434 N 0.04258 0.49394 0.50965 0.0
N1435 N 0.12385 0.52192 0.49443 0.0
C1436 C 0.03987 0.52341 0.50114 0.0
C1437 C -0.00378 0.50828 0.51011 0.0
C1438 C 0.79618 0.53814 0.26034 0.0
C1439 C 0.70874 0.53713 0.26616 0.0
C1440 C 0.84311 0.52369 0.25205 0.0
C1441 C 0.80416 0.50782 0.24924 0.0
H1442 H 0.82818 0.55018 0.26147 0.0
H1443 H 0.91076 0.52488 0.24851 0.0
S1444 S 0.57837 0.49839 0.26591 0.0
N1445 N 0.58547 0.51902 0.26982 0.0
N1446 N 0.67469 0.49182 0.2567 0.0
C1447 C 0.71714 0.50666 0.25576 0.0
C1448 C 0.6692 0.52135 0.26358 0.0
C1449 C 0.71754 0.29462 0.51396 0.0
C1450 C 0.80623 0.29513 0.51543 0.0
C1451 C 0.67398 0.27961 0.50636 0.0
C1452 C 0.71722 0.26455 0.49863 0.0
H1453 H 0.68133 0.30603 0.51705 0.0
H1454 H 0.60557 0.27989 0.50597 0.0
S1455 S 0.94982 0.25904 0.49971 0.0
N1456 N 0.93588 0.2791 0.50933 0.0
N1457 N 0.85431 0.25106 0.49419 0.0
C1458 C 0.80595 0.26487 0.50003 0.0
C1459 C 0.85021 0.28009 0.5085 0.0
C1460 C 0.37085 0.27461 0.74595 0.0
C1461 C 0.41351 0.29013 0.74313 0.0
C1462 C 0.41368 0.25984 0.75571 0.0
C1463 C 0.50062 0.26014 0.763 0.0
H1464 H 0.30332 0.27399 0.74144 0.0
H1465 H 0.37894 0.2481 0.75696 0.0
S1466 S 0.63997 0.29763 0.76261 0.0
N1467 N 0.54603 0.30497 0.7517 0.0
N1468 N 0.62765 0.27714 0.76745 0.0
C1469 C 0.54398 0.27551 0.76009 0.0
C1470 C 0.5002 0.29053 0.75082 0.0
C1471 C 0.54681 0.02036 0.50562 0.0
C1472 C 0.505 0.03576 0.49952 0.0
C1473 C 0.50225 1.00567 0.51456 0.0
C1474 C 0.41416 1.00584 0.51881 0.0
H1475 H 0.6149 0.01962 0.50325 0.0
H1476 H 0.53689 0.99401 0.51683 0.0
S1477 S 0.27485 0.04305 0.50838 0.0
N1478 N 0.37039 0.05034 0.49971 0.0
N1479 N 0.2867 0.02283 0.51714 0.0
C1480 C 0.37161 0.02119 0.51331 0.0
C1481 C 0.41689 0.03611 0.50361 0.0
C1482 C 0.4112 0.76288 0.24846 0.0
C1483 C 0.49754 0.76284 0.25702 0.0
C1484 C 0.36955 0.77799 0.23982 0.0
C1485 C 0.41285 0.79351 0.23929 0.0
H1486 H 0.37588 0.7512 0.24819 0.0
H1487 H 0.30218 0.77763 0.23482 0.0
S1488 S 0.63807 0.80004 0.26253 0.0
N1489 N 0.62464 0.77949 0.26493 0.0
N1490 N 0.54547 0.80781 0.25096 0.0
C1491 C 0.49915 0.7935 0.24786 0.0
C1492 C 0.54164 0.77818 0.25612 0.0
C1493 C 0.50093 0.50477 0.01981 0.0
C1494 C 0.41244 0.50404 0.02213 0.0
C1495 C 0.54269 0.51977 0.01052 0.0
C1496 C 0.49773 0.53456 1.00197 0.0
H1497 H 0.53817 0.4935 0.02324 0.0
H1498 H 0.61104 0.51965 0.00919 0.0
S1499 S 0.26542 0.53967 0.00669 0.0
N1500 N 0.2814 0.51976 0.01729 0.0
N1501 N 0.35983 0.54776 0.99904 0.0
C1502 C 0.40941 0.53411 1.00495 0.0
C1503 C 0.36696 0.51893 0.01514 0.0
C1504 C 0.17373 0.15506 0.28432 0.0
C1505 C 0.11835 0.16876 0.2794 0.0
C1506 C 0.14468 0.13837 0.28397 0.0
C1507 C 0.05887 0.13458 0.27836 0.0
H1508 H 0.24106 0.1572 0.2869 0.0
H1509 H 0.19087 0.12839 0.28608 0.0
S1510 S 0.88589 0.1659 0.26866 0.0
N1511 N 0.97231 0.17743 0.27218 0.0
N1512 N 0.91717 0.14615 0.27177 0.0
C1513 C 0.00183 0.14821 0.27596 0.0
C1514 C 0.0316 0.16525 0.27647 0.0
C1515 C 0.01351 0.15088 0.97399 0.0
C1516 C 0.07276 0.16417 0.97156 0.0
C1517 C 0.03898 0.13397 0.97413 0.0
C1518 C 0.12471 0.12968 0.97183 0.0
H1519 H 0.94716 0.15352 0.9781 0.0
H1520 H -0.00817 0.12434 0.97879 0.0
S1521 S 0.30331 0.15926 0.95735 0.0
N1522 N 0.21986 0.17154 0.96122 0.0
N1523 N 0.2675 0.13983 0.96113 0.0
C1524 C 0.18357 0.1427 0.96566 0.0
C1525 C 0.15768 0.15991 0.96553 0.0
C1526 C 0.84893 0.90852 0.69343 0.0
C1527 C 0.82154 0.91709 0.72364 0.0
C1528 C 0.87809 0.89179 0.69549 0.0
C1529 C 0.88272 0.88335 0.72797 0.0
H1530 H 0.8517 0.91502 0.66846 0.0
H1531 H 0.89582 0.88537 0.67156 0.0
S1532 S 0.82008 0.90071 0.81474 0.0
N1533 N 0.79901 0.91589 0.78652 0.0
N1534 N 0.85898 0.88521 0.79106 0.0
C1535 C 0.8559 0.892 0.75827 0.0
C1536 C 0.82333 0.90857 0.75588 0.0
C1537 C 0.8513 0.90653 0.08994 0.0
C1538 C 0.8814 0.91548 0.06046 0.0
C1539 C 0.83388 0.88904 0.0881 0.0
C1540 C 0.84411 0.8801 0.05647 0.0
H1541 H 0.83869 0.91317 0.11416 0.0
H1542 H 0.81387 0.88248 0.11158 0.0
S1543 S 0.91522 0.89823 0.97137 0.0
N1544 N 0.91755 0.91423 0.99882 0.0
N1545 N 0.88302 0.88198 0.99482 0.0
C1546 C 0.87255 0.88917 0.02686 0.0
C1547 C 0.8917 0.90664 0.02899 0.0
C1548 C 0.16102 0.63477 0.77816 0.0
C1549 C 0.07518 0.63046 0.78007 0.0
C1550 C 0.18676 0.65168 0.77742 0.0
C1551 C 0.12784 0.66504 0.77859 0.0
H1552 H 0.20836 0.62508 0.77472 0.0
H1553 H 0.25348 0.65423 0.77404 0.0
S1554 S 0.89647 0.66036 0.79048 0.0
N1555 N 0.93197 0.64087 0.78844 0.0
N1556 N 0.98041 0.67257 0.78662 0.0
C1557 C 0.04249 0.66087 0.78376 0.0
C1558 C 0.01623 0.64362 0.78455 0.0
C1559 C 0.01709 0.65453 0.46827 0.0
C1560 C 0.07371 0.66825 0.46829 0.0
C1561 C 0.04613 0.63788 0.46841 0.0
C1562 C 0.13303 0.63427 0.4688 0.0
H1563 H 0.94967 0.65662 0.47031 0.0
H1564 H 9e-05 0.62785 0.47089 0.0
S1565 S 0.30736 0.66543 0.46218 0.0
N1566 N 0.22078 0.67695 0.46359 0.0
N1567 N 0.27521 0.64568 0.46373 0.0
C1568 C 0.19009 0.64779 0.46536 0.0
C1569 C 0.16051 0.66477 0.46506 0.0
C1570 C 0.83546 0.39208 0.18795 0.0
C1571 C 0.91034 0.38436 0.20014 0.0
C1572 C 0.82292 0.40955 0.19064 0.0
C1573 C 0.88423 0.41983 0.20641 0.0
H1574 H 0.78394 0.38436 0.17829 0.0
H1575 H 0.76307 0.41483 0.18235 0.0
S1576 S 0.09424 0.40558 0.23985 0.0
N1577 N 0.04813 0.3882 0.22601 0.0
N1578 N 0.02684 0.42088 0.23142 0.0
C1579 C 0.96185 0.41223 0.21659 0.0
C1580 C 0.97438 0.39453 0.21338 0.0
C1581 C 0.76377 0.39473 0.55921 0.0
C1582 C 0.83364 0.38402 0.5604 0.0
C1583 C 0.77504 0.41226 0.55988 0.0
C1584 C 0.85637 0.4197 0.56202 0.0
H1585 H 0.70099 0.38964 0.55517 0.0
H1586 H 0.71959 0.42009 0.55682 0.0
S1587 S 0.05825 0.39687 0.57186 0.0
N1588 N 0.98616 0.38192 0.56828 0.0
N1589 N 0.00624 0.41484 0.56986 0.0
C1590 C 0.92576 0.40909 0.56655 0.0
C1591 C 0.91457 0.39125 0.56556 0.0
C1592 C 0.6568 0.13447 0.78858 0.0
C1593 C 0.57055 0.13069 0.78465 0.0
C1594 C 0.68466 0.15115 0.79138 0.0
C1595 C 0.62741 0.16473 0.7905 0.0
H1596 H 0.70374 0.12459 0.78708 0.0
H1597 H 0.75213 0.15344 0.79199 0.0
S1598 S 0.39351 0.16127 0.78778 0.0
N1599 N 0.42709 0.14166 0.78555 0.0
N1600 N 0.47938 0.17299 0.79058 0.0
C1601 C 0.54047 0.161 0.79016 0.0
C1602 C 0.51211 0.144 0.78717 0.0
C1603 C 0.68286 0.16259 0.48689 0.0
C1604 C 0.59769 0.16689 0.4818 0.0
C1605 C 0.70884 0.14567 0.48754 0.0
C1606 C 0.65095 0.13224 0.483 0.0
H1607 H 0.72904 0.17228 0.4926 0.0
H1608 H 0.77467 0.14313 0.49318 0.0
S1609 S 0.42234 0.13698 0.46343 0.0
N1610 N 0.45692 0.15645 0.46802 0.0
N1611 N 0.5055 0.1248 0.46939 0.0
C1612 C 0.56664 0.13648 0.47529 0.0
C1613 C 0.54017 0.15372 0.4747 0.0
C1614 C 0.3456 0.90966 0.19549 0.0
C1615 C 0.33615 0.91824 0.22758 0.0
C1616 C 0.37314 0.89278 0.19464 0.0
C1617 C 0.3934 0.88411 0.2258 0.0
H1618 H 0.33385 0.91614 0.17095 0.0
H1619 H 0.37554 0.88631 0.16966 0.0
S1620 S 0.38072 0.90102 0.31637 0.0
N1621 N 0.34866 0.91664 0.29113 0.0
N1622 N 0.40372 0.8855 0.28934 0.0
C1623 C 0.38569 0.89273 0.25781 0.0
C1624 C 0.35579 0.90956 0.25876 0.0
C1625 C 0.39064 0.90728 0.52778 0.0
C1626 C 0.3955 0.91654 0.55916 0.0
C1627 C 0.37051 0.89011 0.52761 0.0
C1628 C 0.35329 0.88118 0.5588 0.0
H1629 H 0.40015 0.91353 0.5028 0.0
H1630 H 0.36939 0.88365 0.50258 0.0
S1631 S 0.3573 0.8994 0.64832 0.0
N1632 N 0.37997 0.91553 0.62251 0.0
N1633 N 0.34461 0.88294 0.62231 0.0
C1634 C 0.35816 0.89019 0.59055 0.0
C1635 C 0.37883 0.90788 0.5907 0.0
C1636 C 0.5471 0.6631 0.28311 0.0
C1637 C 0.63317 0.66718 0.28616 0.0
C1638 C 0.5205 0.64631 0.28071 0.0
C1639 C 0.57874 0.63287 0.28142 0.0
H1640 H 0.50035 0.67292 0.27989 0.0
H1641 H 0.45389 0.64393 0.27642 0.0
S1642 S 0.80986 0.6368 0.29584 0.0
N1643 N 0.77543 0.65638 0.29503 0.0
N1644 N 0.72548 0.62486 0.29032 0.0
C1645 C 0.6641 0.63674 0.28785 0.0
C1646 C 0.69124 0.65387 0.29024 0.0
C1647 C 0.52033 0.65249 0.97791 0.0
C1648 C 0.5793 0.66586 0.97655 0.0
C1649 C 0.54566 0.6356 0.97564 0.0
C1650 C 0.63119 0.6313 0.97199 0.0
H1651 H 0.45402 0.65499 0.98247 0.0
H1652 H 0.49842 0.62588 0.97925 0.0
S1653 S 0.8095 0.66137 0.96107 0.0
N1654 N 0.72618 0.6735 0.9669 0.0
N1655 N 0.7738 0.64185 0.96231 0.0
C1656 C 0.68997 0.64454 0.96754 0.0
C1657 C 0.66411 0.66176 0.96986 0.0
C1658 C 0.35096 0.40518 0.745 0.0
C1659 C 0.32822 0.41432 0.71475 0.0
C1660 C 0.37645 0.38843 0.74322 0.0
C1661 C 0.37934 0.37972 0.71119 0.0
H1662 H 0.35098 0.4112 0.77052 0.0
H1663 H 0.39118 0.38197 0.76756 0.0
S1664 S 0.32393 0.39744 0.6241 0.0
N1665 N 0.31101 0.41339 0.65139 0.0
N1666 N 0.35437 0.38127 0.64835 0.0
C1667 C 0.35597 0.38851 0.68057 0.0
C1668 C 0.33093 0.40588 0.68231 0.0
C1669 C 0.45541 0.40315 0.05786 0.0
C1670 C 0.38744 0.41417 0.06175 0.0
C1671 C 0.44179 0.38567 0.05689 0.0
C1672 C 0.35976 0.37853 0.05971 0.0
H1673 H 0.51829 0.40802 0.05306 0.0
H1674 H 0.49603 0.37769 0.05219 0.0
S1675 S 0.16283 0.4021 0.07645 0.0
N1676 N 0.23648 0.41675 0.07316 0.0
N1677 N 0.21186 0.38395 0.07117 0.0
C1678 C 0.29259 0.38937 0.06682 0.0
C1679 C 0.30626 0.40717 0.06776 0.0
C1680 C 0.94582 0.07528 0.3752 0.0
C1681 C 0.89656 0.07516 0.34432 0.0
C1682 C 0.90833 0.07528 0.40887 0.0
C1683 C 0.81974 0.07476 0.41343 0.0
H1684 H 0.01395 0.07617 0.3734 0.0
H1685 H 0.94936 0.07602 0.43159 0.0
S1686 S 0.66208 0.07289 0.34121 0.0
N1687 N 0.75393 0.07365 0.32081 0.0
N1688 N 0.68423 0.07318 0.38355 0.0
C1689 C 0.76999 0.0738 0.38276 0.0
C1690 C 0.80806 0.07414 0.3485 0.0
C1691 C 0.4113 0.21946 0.3514 0.0
C1692 C 0.32388 0.22254 0.34706 0.0
C1693 C 0.45062 0.2196 0.38485 0.0
C1694 C 0.40444 0.22244 0.41596 0.0
H1695 H 0.44994 0.21668 0.32871 0.0
H1696 H 0.51745 0.2168 0.38642 0.0
S1697 S 0.17514 0.23211 0.41987 0.0
N1698 N 0.19365 0.2295 0.37759 0.0
N1699 N 0.26657 0.22915 0.43982 0.0
C1700 C 0.31751 0.22586 0.41204 0.0
C1701 C 0.27773 0.22611 0.37793 0.0
C1702 C 0.7691 0.22321 0.87919 0.0
C1703 C 0.81622 0.2238 0.84779 0.0
C1704 C 0.80877 0.22302 0.91247 0.0
C1705 C 0.89754 0.22377 0.91612 0.0
H1706 H 0.701 0.22197 0.87809 0.0
H1707 H 0.7694 0.22177 0.93555 0.0
S1708 S 0.04988 0.22715 0.84222 0.0
N1709 N 0.95671 0.22623 0.8228 0.0
N1710 N 0.03075 0.22631 0.88476 0.0
C1711 C 0.94504 0.22535 0.88492 0.0
C1712 C 0.90469 0.22522 0.85105 0.0
C1713 C 0.40243 0.07453 0.90881 0.0
C1714 C 0.31372 0.07404 0.91272 0.0
C1715 C 0.44131 0.07423 0.87536 0.0
C1716 C 0.39344 0.07388 0.84405 0.0
H1717 H 0.44239 0.07538 0.93183 0.0
H1718 H 0.50954 0.07501 0.87404 0.0
S1719 S 0.15918 0.07199 0.83921 0.0
N1720 N 0.17952 0.07249 0.8817 0.0
N1721 N 0.25195 0.0725 0.81952 0.0
C1722 C 0.30485 0.07308 0.8476 0.0
C1723 C 0.26534 0.07299 0.8816 0.0
C1724 C 0.11148 0.95317 0.61269 0.0
C1725 C 0.18275 0.96318 0.61775 0.0
C1726 C 0.05632 0.95021 0.64041 0.0
C1727 C 0.06884 0.95781 0.67358 0.0
H1728 H 0.09882 0.94747 0.58741 0.0
H1729 H 0.00033 0.94276 0.63512 0.0
S1730 S 0.25291 0.98323 0.70124 0.0
N1731 N 0.27001 0.97878 0.65961 0.0
N1732 N 0.16194 0.97421 0.71086 0.0
C1733 C 0.14266 0.96694 0.67957 0.0
C1734 C 0.20022 0.96955 0.65169 0.0
C1735 C 0.65252 0.85168 0.64934 0.0
C1736 C 0.64898 0.84178 0.68014 0.0
C1737 C 0.60587 0.84735 0.61959 0.0
C1738 C 0.55265 0.83332 0.6202 0.0
H1739 H 0.69717 0.86199 0.64732 0.0
H1740 H 0.61046 0.85512 0.59628 0.0
S1741 S 0.50864 0.80549 0.69669 0.0
N1742 N 0.58045 0.81886 0.71096 0.0
N1743 N 0.48982 0.81116 0.65583 0.0
C1744 C 0.54274 0.82442 0.652 0.0
C1745 C 0.5905 0.82873 0.68206 0.0
C1746 C 0.15254 0.85092 0.14485 0.0
C1747 C 0.14585 0.84261 0.17757 0.0
C1748 C 0.10311 0.84609 0.11633 0.0
C1749 C 0.04263 0.83345 0.12016 0.0
H1750 H 0.20158 0.86021 0.14041 0.0
H1751 H 0.11142 0.85243 0.09138 0.0
S1752 S 0.98499 0.81099 0.20241 0.0
N1753 N 0.06565 0.82305 0.21345 0.0
N1754 N 0.96752 0.8149 0.16052 0.0
C1755 C 0.02852 0.82647 0.15373 0.0
C1756 C 0.0805 0.83104 0.1825 0.0
C1757 C 0.67364 0.97478 0.14359 0.0
C1758 C 0.66518 0.96408 0.1143 0.0
C1759 C 0.6265 0.97225 0.17387 0.0
C1760 C 0.56905 0.95895 0.17571 0.0
H1761 H 0.71745 0.98517 0.14342 0.0
H1762 H 0.63005 0.98153 0.19463 0.0
S1763 S 0.53627 0.92538 0.10943 0.0
N1764 N 0.60525 0.9383 0.09112 0.0
N1765 N 0.5147 0.93346 0.14831 0.0
C1766 C 0.56515 0.94731 0.14786 0.0
C1767 C 0.61279 0.95001 0.11686 0.0
C1768 C 0.93333 0.57309 0.87205 0.0
C1769 C 0.88516 0.57359 0.84081 0.0
C1770 C 0.89502 0.573 0.9056 0.0
C1771 C 0.80634 0.57298 0.90986 0.0
H1772 H 0.00163 0.57352 0.87068 0.0
H1773 H 0.93558 0.5733 0.9285 0.0
S1774 S 0.65054 0.57297 0.83675 0.0
N1775 N 0.74298 0.57332 0.81673 0.0
N1776 N 0.67158 0.57266 0.8792 0.0
C1777 C 0.75739 0.57269 0.87883 0.0
C1778 C 0.79644 0.57315 0.84464 0.0
C1779 C 0.40266 0.72059 0.84763 0.0
C1780 C 0.31404 0.72085 0.84321 0.0
C1781 C 0.44075 0.72099 0.8813 0.0
C1782 C 0.39228 0.72124 0.91242 0.0
H1783 H 0.44325 0.7199 0.82483 0.0
H1784 H 0.509 0.72046 0.88292 0.0
S1785 S 0.15783 0.72247 0.916 0.0
N1786 N 0.17913 0.722 0.87361 0.0
N1787 N 0.25015 0.72222 0.93618 0.0
C1788 C 0.30372 0.72175 0.90838 0.0
C1789 C 0.26494 0.72171 0.87413 0.0
C1790 C 0.93744 0.72715 0.38194 0.0
C1791 C 0.88964 0.72718 0.41318 0.0
C1792 C 0.89848 0.72676 0.34849 0.0
C1793 C 0.80968 0.72677 0.34449 0.0
H1794 H 0.0057 0.7265 0.38329 0.0
H1795 H 0.93853 0.72597 0.32554 0.0
S1796 S 0.6553 0.72836 0.41785 0.0
N1797 N 0.74816 0.72817 0.43763 0.0
N1798 N 0.67547 0.72794 0.37537 0.0
C1799 C 0.76129 0.72776 0.37553 0.0
C1800 C 0.80097 0.7278 0.40957 0.0
C1801 C 0.43478 0.57638 0.37295 0.0
C1802 C 0.38666 0.57689 0.34172 0.0
C1803 C 0.39638 0.57632 0.40642 0.0
C1804 C 0.30777 0.57631 0.41048 0.0
H1805 H 0.5031 0.57675 0.37165 0.0
H1806 H 0.43675 0.5766 0.42938 0.0
S1807 S 0.1522 0.5764 0.33732 0.0
N1808 N 0.24474 0.5767 0.31739 0.0
N1809 N 0.17302 0.57607 0.37978 0.0
C1810 C 0.25884 0.57606 0.37947 0.0
C1811 C 0.29799 0.5765 0.34536 0.0
C1812 C 0.0696 0.47739 0.13506 0.0
C1813 C 0.079 0.46905 0.16756 0.0
C1814 C 0.11358 0.47236 0.10548 0.0
C1815 C 0.1717 0.45925 0.1076 0.0
H1816 H 0.02418 0.48735 0.13166 0.0
H1817 H 0.10579 0.4795 0.08144 0.0
S1818 S 0.22041 0.43321 0.18605 0.0
N1819 N 0.14902 0.4468 0.19985 0.0
N1820 N 0.23615 0.43759 0.14423 0.0
C1821 C 0.18206 0.4507 0.13983 0.0
C1822 C 0.13599 0.45575 0.16996 0.0
C1823 C 0.69105 0.34442 0.12452 0.0
C1824 C 0.67551 0.33955 0.15971 0.0
C1825 C 0.63465 0.34047 0.09769 0.0
C1826 C 0.55999 0.33195 0.10536 0.0
H1827 H 0.74884 0.35088 0.11736 0.0
H1828 H 0.6484 0.34451 0.07114 0.0
S1829 S 0.48554 0.31795 0.19374 0.0
N1830 N 0.57853 0.32662 0.20092 0.0
N1831 N 0.46996 0.31977 0.15117 0.0
C1832 C 0.54201 0.32766 0.14077 0.0
C1833 C 0.59996 0.33149 0.16786 0.0
C1834 C 0.11841 0.32889 0.59732 0.0
C1835 C 0.05394 0.34065 0.60051 0.0
C1836 C 0.16948 0.32527 0.62585 0.0
C1837 C 0.15847 0.33331 0.65856 0.0
H1838 H 0.12664 0.32175 0.57336 0.0
H1839 H 0.21973 0.31639 0.62158 0.0
S1840 S 0.00574 0.36699 0.6785 0.0
N1841 N 0.98547 0.36166 0.63747 0.0
N1842 N 0.08441 0.3548 0.69132 0.0
C1843 C 0.09661 0.34565 0.66169 0.0
C1844 C 0.04426 0.34945 0.63248 0.0
C1845 C 0.6162 0.47129 0.66674 0.0
C1846 C 0.55874 0.458 0.66528 0.0
C1847 C 0.6616 0.4758 0.63711 0.0
C1848 C 0.65309 0.46693 0.60527 0.0
H1849 H 0.62135 0.47909 0.68995 0.0
H1850 H 0.70567 0.48605 0.63976 0.0
S1851 S 0.52143 0.4292 0.59018 0.0
N1852 N 0.50152 0.43471 0.63113 0.0
N1853 N 0.59054 0.44307 0.57529 0.0
C1854 C 0.59948 0.453 0.60405 0.0
C1855 C 0.55259 0.44839 0.63428 0.0
loop_
_geom_bond_atom_site_label_1
_geom_bond_atom_site_label_2
_geom_bond_distance
_geom_bond_site_symmetry_2
_ccdc_geom_bond_type
Mn0 O5 2.095 . S
Mn0 O15 2.162 . S
Mn0 O16 2.297 . S
Mn0 O24 2.385 . S
Mn0 O25 2.209 . S
Mn0 O26 2.094 . S
Mn1 O6 2.121 . S
Mn1 N8 2.257 . S
Mn1 N17 2.282 . S
Mn1 O25 2.215 1_655 S
Mn1 O27 2.117 1_655 S
C2 O24 1.234 . S
C2 O25 1.283 . S
C3 O15 1.281 . S
C3 O16 1.236 . S
C4 O26 1.240 . S
C4 O27 1.264 . S
O5 Mn0 2.095 . S
O5 C14 1.250 1_455 S
O6 Mn1 2.121 . S
O6 C14 1.258 . S
C7 N8 1.326 . S
C7 C11 1.460 . S
C7 H13 0.929 . S
N8 Mn1 2.257 . S
N8 C7 1.326 . S
N8 C12 1.362 . S
C9 C10 1.258 . S
C9 C12 1.431 . S
C9 C29 1.449 . S
C10 C9 1.258 . S
C10 C11 1.477 . S
C10 H30 0.931 . S
C11 C7 1.460 . S
C11 C10 1.477 . S
C11 H31 0.930 . S
C12 N8 1.362 . S
C12 C9 1.431 . S
C12 C22 1.476 . S
H13 C7 0.929 . S
C14 O5 1.250 1_655 S
C14 O6 1.258 . S
O15 Mn0 2.162 . S
O15 C3 1.281 . S
O16 Mn0 2.297 . S
O16 C3 1.236 . S
N17 Mn1 2.282 . S
N17 C18 1.328 1_655 S
N17 C22 1.318 . S
C18 N17 1.328 1_455 S
C18 C19 1.457 . S
C18 H23 0.929 . S
C19 C18 1.457 . S
C19 C20 1.291 1_455 S
C19 H32 0.931 . S
C20 C19 1.291 1_655 S
C20 C21 1.373 . S
C20 H33 0.929 . S
C21 C20 1.373 . S
C21 C22 1.396 . S
C21 C28 1.403 . S
C22 C12 1.476 . S
C22 N17 1.318 . S
C22 C21 1.396 . S
H23 C18 0.929 . S
O24 Mn0 2.385 . S
O24 C2 1.234 . S
O25 Mn0 2.209 . S
O25 Mn1 2.215 1_455 S
O25 C2 1.283 . S
O26 Mn0 2.094 . S
O26 C4 1.240 . S
O27 Mn1 2.117 1_455 S
O27 C4 1.264 . S
C28 C21 1.403 . S
C28 C29 1.399 . S
C28 H34 0.929 . S
C29 C9 1.449 . S
C29 C28 1.399 . S
C29 H35 0.930 . S
H30 C10 0.931 . S
H31 C11 0.930 . S
H32 C19 0.931 . S
H33 C20 0.929 . S
H34 C28 0.929 . S
H35 C29 0.930 . S
Mn36 O41 2.095 . S
Mn36 O51 2.162 . S
Mn36 O52 2.297 . S
Mn36 O60 2.385 . S
Mn36 O61 2.209 . S
Mn36 O62 2.094 . S
Mn37 O42 2.121 . S
Mn37 N44 2.257 . S
Mn37 N53 2.282 . S
Mn37 O61 2.215 . S
Mn37 O63 2.117 . S
C38 O60 1.234 . S
C38 O61 1.283 . S
C39 O51 1.281 . S
C39 O52 1.236 . S
C40 O62 1.240 . S
C40 O63 1.264 . S
O41 Mn36 2.095 . S
O41 C50 1.250 . S
O42 Mn37 2.121 . S
O42 C50 1.258 . S
C43 N44 1.326 . S
C43 C47 1.460 . S
C43 H49 0.929 . S
N44 Mn37 2.257 . S
N44 C43 1.326 . S
N44 C48 1.362 . S
C45 C46 1.258 . S
C45 C48 1.431 . S
C45 C65 1.449 . S
C46 C45 1.258 . S
C46 C47 1.477 . S
C46 H66 0.931 . S
C47 C43 1.460 . S
C47 C46 1.477 . S
C47 H67 0.930 . S
C48 N44 1.362 . S
C48 C45 1.431 . S
C48 C58 1.476 . S
H49 C43 0.929 . S
C50 O41 1.250 . S
C50 O42 1.258 . S
O51 Mn36 2.162 . S
O51 C39 1.281 . S
O52 Mn36 2.297 . S
O52 C39 1.236 . S
N53 Mn37 2.282 . S
N53 C54 1.328 . S
N53 C58 1.318 . S
C54 N53 1.328 . S
C54 C55 1.457 . S
C54 H59 0.929 . S
C55 C54 1.457 . S
C55 C56 1.291 . S
C55 H68 0.931 . S
C56 C55 1.291 . S
C56 C57 1.373 . S
C56 H69 0.929 . S
C57 C56 1.373 . S
C57 C58 1.396 . S
C57 C64 1.403 . S
C58 C48 1.476 . S
C58 N53 1.318 . S
C58 C57 1.396 . S
H59 C54 0.929 . S
O60 Mn36 2.385 . S
O60 C38 1.234 . S
O61 Mn36 2.209 . S
O61 Mn37 2.215 . S
O61 C38 1.283 . S
O62 Mn36 2.094 . S
O62 C40 1.240 . S
O63 Mn37 2.117 . S
O63 C40 1.264 . S
C64 C57 1.403 . S
C64 C65 1.399 . S
C64 H70 0.929 . S
C65 C45 1.449 . S
C65 C64 1.399 . S
C65 H71 0.930 . S
H66 C46 0.931 . S
H67 C47 0.930 . S
H68 C55 0.931 . S
H69 C56 0.929 . S
H70 C64 0.929 . S
H71 C65 0.930 . S
Mn72 O77 2.095 . S
Mn72 O87 2.162 . S
Mn72 O88 2.297 . S
Mn72 O96 2.385 1_556 S
Mn72 O97 2.209 1_556 S
Mn72 O98 2.094 . S
Mn73 O78 2.121 1_554 S
Mn73 N80 2.257 . S
Mn73 N89 2.282 . S
Mn73 O97 2.215 1_655 S
Mn73 O99 2.117 1_655 S
C74 O96 1.234 . S
C74 O97 1.283 . S
C75 O87 1.281 . S
C75 O88 1.236 . S
C76 O98 1.240 . S
C76 O99 1.264 1_556 S
O77 Mn72 2.095 . S
O77 C86 1.250 1_455 S
O78 Mn73 2.121 1_556 S
O78 C86 1.258 . S
C79 N80 1.326 . S
C79 C83 1.460 . S
C79 H85 0.929 . S
N80 Mn73 2.257 . S
N80 C79 1.326 . S
N80 C84 1.362 . S
C81 C82 1.258 . S
C81 C84 1.431 . S
C81 C101 1.449 . S
C82 C81 1.258 . S
C82 C83 1.477 . S
C82 H102 0.931 . S
C83 C79 1.460 . S
C83 C82 1.477 . S
C83 H103 0.930 . S
C84 N80 1.362 . S
C84 C81 1.431 . S
C84 C94 1.476 . S
H85 C79 0.929 . S
C86 O77 1.250 1_655 S
C86 O78 1.258 . S
O87 Mn72 2.162 . S
O87 C75 1.281 . S
O88 Mn72 2.297 . S
O88 C75 1.236 . S
N89 Mn73 2.282 . S
N89 C90 1.328 1_655 S
N89 C94 1.318 . S
C90 N89 1.328 1_455 S
C90 C91 1.457 . S
C90 H95 0.929 . S
C91 C90 1.457 . S
C91 C92 1.291 1_455 S
C91 H104 0.931 . S
C92 C91 1.291 1_655 S
C92 C93 1.373 . S
C92 H105 0.929 . S
C93 C92 1.373 . S
C93 C94 1.396 . S
C93 C100 1.403 . S
C94 C84 1.476 . S
C94 N89 1.318 . S
C94 C93 1.396 . S
H95 C90 0.929 . S
O96 Mn72 2.385 1_554 S
O96 C74 1.234 . S
O97 Mn72 2.209 1_554 S
O97 Mn73 2.215 1_455 S
O97 C74 1.283 . S
O98 Mn72 2.094 . S
O98 C76 1.240 . S
O99 Mn73 2.117 1_455 S
O99 C76 1.264 1_554 S
C100 C93 1.403 . S
C100 C101 1.399 . S
C100 H106 0.929 . S
C101 C81 1.449 . S
C101 C100 1.399 . S
C101 H107 0.930 . S
H102 C82 0.931 . S
H103 C83 0.930 . S
H104 C91 0.931 . S
H105 C92 0.929 . S
H106 C100 0.929 . S
H107 C101 0.930 . S
Mn108 O113 2.095 . S
Mn108 O123 2.162 . S
Mn108 O124 2.297 . S
Mn108 O132 2.385 1_556 S
Mn108 O133 2.209 1_556 S
Mn108 O134 2.094 . S
Mn109 O114 2.121 1_554 S
Mn109 N116 2.257 . S
Mn109 N125 2.282 . S
Mn109 O133 2.215 . S
Mn109 O135 2.117 . S
C110 O132 1.234 . S
C110 O133 1.283 . S
C111 O123 1.281 . S
C111 O124 1.236 . S
C112 O134 1.240 . S
C112 O135 1.264 1_556 S
O113 Mn108 2.095 . S
O113 C122 1.250 . S
O114 Mn109 2.121 1_556 S
O114 C122 1.258 . S
C115 N116 1.326 . S
C115 C119 1.460 . S
C115 H121 0.929 . S
N116 Mn109 2.257 . S
N116 C115 1.326 . S
N116 C120 1.362 . S
C117 C118 1.258 . S
C117 C120 1.431 . S
C117 C137 1.449 . S
C118 C117 1.258 . S
C118 C119 1.477 . S
C118 H138 0.931 . S
C119 C115 1.460 . S
C119 C118 1.477 . S
C119 H139 0.930 . S
C120 N116 1.362 . S
C120 C117 1.431 . S
C120 C130 1.476 . S
H121 C115 0.929 . S
C122 O113 1.250 . S
C122 O114 1.258 . S
O123 Mn108 2.162 . S
O123 C111 1.281 . S
O124 Mn108 2.297 . S
O124 C111 1.236 . S
N125 Mn109 2.282 . S
N125 C126 1.328 . S
N125 C130 1.318 . S
C126 N125 1.328 . S
C126 C127 1.457 . S
C126 H131 0.929 . S
C127 C126 1.457 . S
C127 C128 1.291 . S
C127 H140 0.931 . S
C128 C127 1.291 . S
C128 C129 1.373 . S
C128 H141 0.929 . S
C129 C128 1.373 . S
C129 C130 1.396 . S
C129 C136 1.403 . S
C130 C120 1.476 . S
C130 N125 1.318 . S
C130 C129 1.396 . S
H131 C126 0.929 . S
O132 Mn108 2.385 1_554 S
O132 C110 1.234 . S
O133 Mn108 2.209 1_554 S
O133 Mn109 2.215 . S
O133 C110 1.283 . S
O134 Mn108 2.094 . S
O134 C112 1.240 . S
O135 Mn109 2.117 . S
O135 C112 1.264 1_554 S
C136 C129 1.403 . S
C136 C137 1.399 . S
C136 H142 0.929 . S
C137 C117 1.449 . S
C137 C136 1.399 . S
C137 H143 0.930 . S
H138 C118 0.931 . S
H139 C119 0.930 . S
H140 C127 0.931 . S
H141 C128 0.929 . S
H142 C136 0.929 . S
H143 C137 0.930 . S
Mn144 O149 2.095 . S
Mn144 O159 2.162 . S
Mn144 O160 2.297 . S
Mn144 O168 2.385 . S
Mn144 O169 2.209 . S
Mn144 O170 2.094 1_655 S
Mn145 O150 2.121 . S
Mn145 N152 2.257 . S
Mn145 N161 2.282 . S
Mn145 O169 2.215 . S
Mn145 O171 2.117 . S
C146 O168 1.234 . S
C146 O169 1.283 . S
C147 O159 1.281 . S
C147 O160 1.236 . S
C148 O170 1.240 . S
C148 O171 1.264 1_455 S
O149 Mn144 2.095 . S
O149 C158 1.250 . S
O150 Mn145 2.121 . S
O150 C158 1.258 . S
C151 N152 1.326 . S
C151 C155 1.460 . S
C151 H157 0.929 . S
N152 Mn145 2.257 . S
N152 C151 1.326 . S
N152 C156 1.362 . S
C153 C154 1.258 . S
C153 C156 1.431 . S
C153 C173 1.449 . S
C154 C153 1.258 . S
C154 C155 1.477 . S
C154 H174 0.931 . S
C155 C151 1.460 . S
C155 C154 1.477 . S
C155 H175 0.930 . S
C156 N152 1.362 . S
C156 C153 1.431 . S
C156 C166 1.476 . S
H157 C151 0.929 . S
C158 O149 1.250 . S
C158 O150 1.258 . S
O159 Mn144 2.162 . S
O159 C147 1.281 . S
O160 Mn144 2.297 . S
O160 C147 1.236 . S
N161 Mn145 2.282 . S
N161 C162 1.328 . S
N161 C166 1.318 . S
C162 N161 1.328 . S
C162 C163 1.457 1_565 S
C162 H167 0.929 . S
C163 C162 1.457 1_545 S
C163 C164 1.291 . S
C163 H176 0.931 . S
C164 C163 1.291 . S
C164 C165 1.373 1_545 S
C164 H177 0.929 . S
C165 C164 1.373 1_565 S
C165 C166 1.396 . S
C165 C172 1.403 . S
C166 C156 1.476 . S
C166 N161 1.318 . S
C166 C165 1.396 . S
H167 C162 0.929 . S
O168 Mn144 2.385 . S
O168 C146 1.234 . S
O169 Mn144 2.209 . S
O169 Mn145 2.215 . S
O169 C146 1.283 . S
O170 Mn144 2.094 1_455 S
O170 C148 1.240 . S
O171 Mn145 2.117 . S
O171 C148 1.264 1_655 S
C172 C165 1.403 . S
C172 C173 1.399 . S
C172 H178 0.929 1_565 S
C173 C153 1.449 . S
C173 C172 1.399 . S
C173 H179 0.930 . S
H174 C154 0.931 . S
H175 C155 0.930 . S
H176 C163 0.931 . S
H177 C164 0.929 . S
H178 C172 0.929 1_545 S
H179 C173 0.930 . S
Mn180 O185 2.095 . S
Mn180 O195 2.162 . S
Mn180 O196 2.297 . S
Mn180 O204 2.385 . S
Mn180 O205 2.209 . S
Mn180 O206 2.094 . S
Mn181 O186 2.121 . S
Mn181 N188 2.257 1_655 S
Mn181 N197 2.282 . S
Mn181 O205 2.215 . S
Mn181 O207 2.117 . S
C182 O204 1.234 . S
C182 O205 1.283 . S
C183 O195 1.281 . S
C183 O196 1.236 . S
C184 O206 1.240 . S
C184 O207 1.264 . S
O185 Mn180 2.095 . S
O185 C194 1.250 . S
O186 Mn181 2.121 . S
O186 C194 1.258 . S
C187 N188 1.326 . S
C187 C191 1.460 . S
C187 H193 0.929 . S
N188 Mn181 2.257 1_455 S
N188 C187 1.326 . S
N188 C192 1.362 . S
C189 C190 1.258 . S
C189 C192 1.431 . S
C189 C209 1.449 . S
C190 C189 1.258 . S
C190 C191 1.477 . S
C190 H210 0.931 . S
C191 C187 1.460 . S
C191 C190 1.477 . S
C191 H211 0.930 . S
C192 N188 1.362 . S
C192 C189 1.431 . S
C192 C202 1.476 . S
H193 C187 0.929 . S
C194 O185 1.250 . S
C194 O186 1.258 . S
O195 Mn180 2.162 . S
O195 C183 1.281 . S
O196 Mn180 2.297 . S
O196 C183 1.236 . S
N197 Mn181 2.282 . S
N197 C198 1.328 . S
N197 C202 1.318 1_655 S
C198 N197 1.328 . S
C198 C199 1.457 . S
C198 H203 0.929 . S
C199 C198 1.457 . S
C199 C200 1.291 . S
C199 H212 0.931 . S
C200 C199 1.291 . S
C200 C201 1.373 1_655 S
C200 H213 0.929 1_655 S
C201 C200 1.373 1_455 S
C201 C202 1.396 . S
C201 C208 1.403 . S
C202 C192 1.476 . S
C202 N197 1.318 1_455 S
C202 C201 1.396 . S
H203 C198 0.929 . S
O204 Mn180 2.385 . S
O204 C182 1.234 . S
O205 Mn180 2.209 . S
O205 Mn181 2.215 . S
O205 C182 1.283 . S
O206 Mn180 2.094 . S
O206 C184 1.240 . S
O207 Mn181 2.117 . S
O207 C184 1.264 . S
C208 C201 1.403 . S
C208 C209 1.399 . S
C208 H214 0.929 . S
C209 C189 1.449 . S
C209 C208 1.399 . S
C209 H215 0.930 . S
H210 C190 0.931 . S
H211 C191 0.930 . S
H212 C199 0.931 . S
H213 C200 0.929 1_455 S
H214 C208 0.929 . S
H215 C209 0.930 . S
Mn216 O221 2.095 . S
Mn216 O231 2.162 1_554 S
Mn216 O232 2.297 1_554 S
Mn216 O240 2.385 . S
Mn216 O241 2.209 . S
Mn216 O242 2.094 1_655 S
Mn217 O222 2.121 . S
Mn217 N224 2.257 . S
Mn217 N233 2.282 . S
Mn217 O241 2.215 . S
Mn217 O243 2.117 . S
C218 O240 1.234 . S
C218 O241 1.283 . S
C219 O231 1.281 . S
C219 O232 1.236 . S
C220 O242 1.240 . S
C220 O243 1.264 1_455 S
O221 Mn216 2.095 . S
O221 C230 1.250 . S
O222 Mn217 2.121 . S
O222 C230 1.258 . S
C223 N224 1.326 . S
C223 C227 1.460 . S
C223 H229 0.929 . S
N224 Mn217 2.257 . S
N224 C223 1.326 . S
N224 C228 1.362 . S
C225 C226 1.258 . S
C225 C228 1.431 . S
C225 C245 1.449 . S
C226 C225 1.258 . S
C226 C227 1.477 . S
C226 H246 0.931 . S
C227 C223 1.460 . S
C227 C226 1.477 . S
C227 H247 0.930 . S
C228 N224 1.362 . S
C228 C225 1.431 . S
C228 C238 1.476 . S
H229 C223 0.929 . S
C230 O221 1.250 . S
C230 O222 1.258 . S
O231 Mn216 2.162 1_556 S
O231 C219 1.281 . S
O232 Mn216 2.297 1_556 S
O232 C219 1.236 . S
N233 Mn217 2.282 . S
N233 C234 1.328 . S
N233 C238 1.318 . S
C234 N233 1.328 . S
C234 C235 1.457 . S
C234 H239 0.929 . S
C235 C234 1.457 . S
C235 C236 1.291 . S
C235 H248 0.931 . S
C236 C235 1.291 . S
C236 C237 1.373 . S
C236 H249 0.929 . S
C237 C236 1.373 . S
C237 C238 1.396 . S
C237 C244 1.403 . S
C238 C228 1.476 . S
C238 N233 1.318 . S
C238 C237 1.396 . S
H239 C234 0.929 . S
O240 Mn216 2.385 . S
O240 C218 1.234 . S
O241 Mn216 2.209 . S
O241 Mn217 2.215 . S
O241 C218 1.283 . S
O242 Mn216 2.094 1_455 S
O242 C220 1.240 . S
O243 Mn217 2.117 . S
O243 C220 1.264 1_655 S
C244 C237 1.403 . S
C244 C245 1.399 . S
C244 H250 0.929 . S
C245 C225 1.449 . S
C245 C244 1.399 . S
C245 H251 0.930 . S
H246 C226 0.931 . S
H247 C227 0.930 . S
H248 C235 0.931 . S
H249 C236 0.929 . S
H250 C244 0.929 . S
H251 C245 0.930 . S
Mn252 O257 2.095 . S
Mn252 O267 2.162 1_554 S
Mn252 O268 2.297 1_554 S
Mn252 O276 2.385 . S
Mn252 O277 2.209 . S
Mn252 O278 2.094 . S
Mn253 O258 2.121 . S
Mn253 N260 2.257 1_655 S
Mn253 N269 2.282 . S
Mn253 O277 2.215 . S
Mn253 O279 2.117 . S
C254 O276 1.234 . S
C254 O277 1.283 . S
C255 O267 1.281 . S
C255 O268 1.236 . S
C256 O278 1.240 . S
C256 O279 1.264 . S
O257 Mn252 2.095 . S
O257 C266 1.250 . S
O258 Mn253 2.121 . S
O258 C266 1.258 . S
C259 N260 1.326 . S
C259 C263 1.460 . S
C259 H265 0.929 . S
N260 Mn253 2.257 1_455 S
N260 C259 1.326 . S
N260 C264 1.362 . S
C261 C262 1.258 . S
C261 C264 1.431 . S
C261 C281 1.449 . S
C262 C261 1.258 . S
C262 C263 1.477 . S
C262 H282 0.931 . S
C263 C259 1.460 . S
C263 C262 1.477 . S
C263 H283 0.930 . S
C264 N260 1.362 . S
C264 C261 1.431 . S
C264 C274 1.476 . S
H265 C259 0.929 . S
C266 O257 1.250 . S
C266 O258 1.258 . S
O267 Mn252 2.162 1_556 S
O267 C255 1.281 . S
O268 Mn252 2.297 1_556 S
O268 C255 1.236 . S
N269 Mn253 2.282 . S
N269 C270 1.328 . S
N269 C274 1.318 1_655 S
C270 N269 1.328 . S
C270 C271 1.457 1_565 S
C270 H275 0.929 . S
C271 C270 1.457 1_545 S
C271 C272 1.291 . S
C271 H284 0.931 . S
C272 C271 1.291 . S
C272 C273 1.373 1_645 S
C272 H285 0.929 1_655 S
C273 C272 1.373 1_465 S
C273 C274 1.396 . S
C273 C280 1.403 . S
C274 C264 1.476 . S
C274 N269 1.318 1_455 S
C274 C273 1.396 . S
H275 C270 0.929 . S
O276 Mn252 2.385 . S
O276 C254 1.234 . S
O277 Mn252 2.209 . S
O277 Mn253 2.215 . S
O277 C254 1.283 . S
O278 Mn252 2.094 . S
O278 C256 1.240 . S
O279 Mn253 2.117 . S
O279 C256 1.264 . S
C280 C273 1.403 . S
C280 C281 1.399 . S
C280 H286 0.929 1_565 S
C281 C261 1.449 . S
C281 C280 1.399 . S
C281 H287 0.930 . S
H282 C262 0.931 . S
H283 C263 0.930 . S
H284 C271 0.931 . S
H285 C272 0.929 1_455 S
H286 C280 0.929 1_545 S
H287 C281 0.930 . S
Mn288 O293 2.095 . S
Mn288 O303 2.162 . S
Mn288 O304 2.297 . S
Mn288 O312 2.385 . S
Mn288 O313 2.209 . S
Mn288 O314 2.094 . S
Mn289 O294 2.121 . S
Mn289 N296 2.257 . S
Mn289 N305 2.282 . S
Mn289 O313 2.215 1_655 S
Mn289 O315 2.117 1_655 S
C290 O312 1.234 . S
C290 O313 1.283 . S
C291 O303 1.281 . S
C291 O304 1.236 . S
C292 O314 1.240 . S
C292 O315 1.264 . S
O293 Mn288 2.095 . S
O293 C302 1.250 1_455 S
O294 Mn289 2.121 . S
O294 C302 1.258 . S
C295 N296 1.326 . S
C295 C299 1.460 . S
C295 H301 0.929 . S
N296 Mn289 2.257 . S
N296 C295 1.326 . S
N296 C300 1.362 . S
C297 C298 1.258 . S
C297 C300 1.431 . S
C297 C317 1.449 . S
C298 C297 1.258 . S
C298 C299 1.477 . S
C298 H318 0.931 . S
C299 C295 1.460 . S
C299 C298 1.477 . S
C299 H319 0.930 . S
C300 N296 1.362 . S
C300 C297 1.431 . S
C300 C310 1.476 . S
H301 C295 0.929 . S
C302 O293 1.250 1_655 S
C302 O294 1.258 . S
O303 Mn288 2.162 . S
O303 C291 1.281 . S
O304 Mn288 2.297 . S
O304 C291 1.236 . S
N305 Mn289 2.282 . S
N305 C306 1.328 1_655 S
N305 C310 1.318 . S
C306 N305 1.328 1_455 S
C306 C307 1.457 . S
C306 H311 0.929 . S
C307 C306 1.457 . S
C307 C308 1.291 1_455 S
C307 H320 0.931 . S
C308 C307 1.291 1_655 S
C308 C309 1.373 . S
C308 H321 0.929 . S
C309 C308 1.373 . S
C309 C310 1.396 . S
C309 C316 1.403 . S
C310 C300 1.476 . S
C310 N305 1.318 . S
C310 C309 1.396 . S
H311 C306 0.929 . S
O312 Mn288 2.385 . S
O312 C290 1.234 . S
O313 Mn288 2.209 . S
O313 Mn289 2.215 1_455 S
O313 C290 1.283 . S
O314 Mn288 2.094 . S
O314 C292 1.240 . S
O315 Mn289 2.117 1_455 S
O315 C292 1.264 . S
C316 C309 1.403 . S
C316 C317 1.399 . S
C316 H322 0.929 . S
C317 C297 1.449 . S
C317 C316 1.399 . S
C317 H323 0.930 . S
H318 C298 0.931 . S
H319 C299 0.930 . S
H320 C307 0.931 . S
H321 C308 0.929 . S
H322 C316 0.929 . S
H323 C317 0.930 . S
Mn324 O329 2.095 . S
Mn324 O339 2.162 . S
Mn324 O340 2.297 . S
Mn324 O348 2.385 . S
Mn324 O349 2.209 . S
Mn324 O350 2.094 . S
Mn325 O330 2.121 . S
Mn325 N332 2.257 . S
Mn325 N341 2.282 . S
Mn325 O349 2.215 . S
Mn325 O351 2.117 . S
C326 O348 1.234 . S
C326 O349 1.283 . S
C327 O339 1.281 . S
C327 O340 1.236 . S
C328 O350 1.240 . S
C328 O351 1.264 . S
O329 Mn324 2.095 . S
O329 C338 1.250 . S
O330 Mn325 2.121 . S
O330 C338 1.258 . S
C331 N332 1.326 . S
C331 C335 1.460 . S
C331 H337 0.929 . S
N332 Mn325 2.257 . S
N332 C331 1.326 . S
N332 C336 1.362 . S
C333 C334 1.258 . S
C333 C336 1.431 . S
C333 C353 1.449 . S
C334 C333 1.258 . S
C334 C335 1.477 . S
C334 H354 0.931 . S
C335 C331 1.460 . S
C335 C334 1.477 . S
C335 H355 0.930 . S
C336 N332 1.362 . S
C336 C333 1.431 . S
C336 C346 1.476 . S
H337 C331 0.929 . S
C338 O329 1.250 . S
C338 O330 1.258 . S
O339 Mn324 2.162 . S
O339 C327 1.281 . S
O340 Mn324 2.297 . S
O340 C327 1.236 . S
N341 Mn325 2.282 . S
N341 C342 1.328 . S
N341 C346 1.318 . S
C342 N341 1.328 . S
C342 C343 1.457 . S
C342 H347 0.929 . S
C343 C342 1.457 . S
C343 C344 1.291 . S
C343 H356 0.931 . S
C344 C343 1.291 . S
C344 C345 1.373 . S
C344 H357 0.929 . S
C345 C344 1.373 . S
C345 C346 1.396 . S
C345 C352 1.403 . S
C346 C336 1.476 . S
C346 N341 1.318 . S
C346 C345 1.396 . S
H347 C342 0.929 . S
O348 Mn324 2.385 . S
O348 C326 1.234 . S
O349 Mn324 2.209 . S
O349 Mn325 2.215 . S
O349 C326 1.283 . S
O350 Mn324 2.094 . S
O350 C328 1.240 . S
O351 Mn325 2.117 . S
O351 C328 1.264 . S
C352 C345 1.403 . S
C352 C353 1.399 . S
C352 H358 0.929 . S
C353 C333 1.449 . S
C353 C352 1.399 . S
C353 H359 0.930 . S
H354 C334 0.931 . S
H355 C335 0.930 . S
H356 C343 0.931 . S
H357 C344 0.929 . S
H358 C352 0.929 . S
H359 C353 0.930 . S
Mn360 O365 2.095 . S
Mn360 O375 2.162 . S
Mn360 O376 2.297 . S
Mn360 O384 2.385 . S
Mn360 O385 2.209 . S
Mn360 O386 2.094 . S
Mn361 O366 2.121 . S
Mn361 N368 2.257 . S
Mn361 N377 2.282 . S
Mn361 O385 2.215 1_655 S
Mn361 O387 2.117 1_655 S
C362 O384 1.234 . S
C362 O385 1.283 . S
C363 O375 1.281 . S
C363 O376 1.236 . S
C364 O386 1.240 . S
C364 O387 1.264 . S
O365 Mn360 2.095 . S
O365 C374 1.250 1_455 S
O366 Mn361 2.121 . S
O366 C374 1.258 . S
C367 N368 1.326 . S
C367 C371 1.460 . S
C367 H373 0.929 . S
N368 Mn361 2.257 . S
N368 C367 1.326 . S
N368 C372 1.362 . S
C369 C370 1.258 . S
C369 C372 1.431 . S
C369 C389 1.449 . S
C370 C369 1.258 . S
C370 C371 1.477 . S
C370 H390 0.931 . S
C371 C367 1.460 . S
C371 C370 1.477 . S
C371 H391 0.930 . S
C372 N368 1.362 . S
C372 C369 1.431 . S
C372 C382 1.476 . S
H373 C367 0.929 . S
C374 O365 1.250 1_655 S
C374 O366 1.258 . S
O375 Mn360 2.162 . S
O375 C363 1.281 . S
O376 Mn360 2.297 . S
O376 C363 1.236 . S
N377 Mn361 2.282 . S
N377 C378 1.328 1_655 S
N377 C382 1.318 . S
C378 N377 1.328 1_455 S
C378 C379 1.457 . S
C378 H383 0.929 . S
C379 C378 1.457 . S
C379 C380 1.291 1_455 S
C379 H392 0.931 . S
C380 C379 1.291 1_655 S
C380 C381 1.373 . S
C380 H393 0.929 . S
C381 C380 1.373 . S
C381 C382 1.396 . S
C381 C388 1.403 . S
C382 C372 1.476 . S
C382 N377 1.318 . S
C382 C381 1.396 . S
H383 C378 0.929 . S
O384 Mn360 2.385 . S
O384 C362 1.234 . S
O385 Mn360 2.209 . S
O385 Mn361 2.215 1_455 S
O385 C362 1.283 . S
O386 Mn360 2.094 . S
O386 C364 1.240 . S
O387 Mn361 2.117 1_455 S
O387 C364 1.264 . S
C388 C381 1.403 . S
C388 C389 1.399 . S
C388 H394 0.929 . S
C389 C369 1.449 . S
C389 C388 1.399 . S
C389 H395 0.930 . S
H390 C370 0.931 . S
H391 C371 0.930 . S
H392 C379 0.931 . S
H393 C380 0.929 . S
H394 C388 0.929 . S
H395 C389 0.930 . S
Mn396 O401 2.095 . S
Mn396 O411 2.162 . S
Mn396 O412 2.297 . S
Mn396 O420 2.385 . S
Mn396 O421 2.209 . S
Mn396 O422 2.094 . S
Mn397 O402 2.121 . S
Mn397 N404 2.257 . S
Mn397 N413 2.282 . S
Mn397 O421 2.215 . S
Mn397 O423 2.117 . S
C398 O420 1.234 . S
C398 O421 1.283 . S
C399 O411 1.281 . S
C399 O412 1.236 . S
C400 O422 1.240 . S
C400 O423 1.264 . S
O401 Mn396 2.095 . S
O401 C410 1.250 . S
O402 Mn397 2.121 . S
O402 C410 1.258 . S
C403 N404 1.326 . S
C403 C407 1.460 . S
C403 H409 0.929 . S
N404 Mn397 2.257 . S
N404 C403 1.326 . S
N404 C408 1.362 . S
C405 C406 1.258 . S
C405 C408 1.431 . S
C405 C425 1.449 . S
C406 C405 1.258 . S
C406 C407 1.477 . S
C406 H426 0.931 . S
C407 C403 1.460 . S
C407 C406 1.477 . S
C407 H427 0.930 . S
C408 N404 1.362 . S
C408 C405 1.431 . S
C408 C418 1.476 . S
H409 C403 0.929 . S
C410 O401 1.250 . S
C410 O402 1.258 . S
O411 Mn396 2.162 . S
O411 C399 1.281 . S
O412 Mn396 2.297 . S
O412 C399 1.236 . S
N413 Mn397 2.282 . S
N413 C414 1.328 . S
N413 C418 1.318 . S
C414 N413 1.328 . S
C414 C415 1.457 . S
C414 H419 0.929 . S
C415 C414 1.457 . S
C415 C416 1.291 . S
C415 H428 0.931 . S
C416 C415 1.291 . S
C416 C417 1.373 . S
C416 H429 0.929 . S
C417 C416 1.373 . S
C417 C418 1.396 . S
C417 C424 1.403 . S
C418 C408 1.476 . S
C418 N413 1.318 . S
C418 C417 1.396 . S
H419 C414 0.929 . S
O420 Mn396 2.385 . S
O420 C398 1.234 . S
O421 Mn396 2.209 . S
O421 Mn397 2.215 . S
O421 C398 1.283 . S
O422 Mn396 2.094 . S
O422 C400 1.240 . S
O423 Mn397 2.117 . S
O423 C400 1.264 . S
C424 C417 1.403 . S
C424 C425 1.399 . S
C424 H430 0.929 . S
C425 C405 1.449 . S
C425 C424 1.399 . S
C425 H431 0.930 . S
H426 C406 0.931 . S
H427 C407 0.930 . S
H428 C415 0.931 . S
H429 C416 0.929 . S
H430 C424 0.929 . S
H431 C425 0.930 . S
Mn432 O437 2.095 . S
Mn432 O447 2.162 . S
Mn432 O448 2.297 . S
Mn432 O456 2.385 . S
Mn432 O457 2.209 . S
Mn432 O458 2.094 1_655 S
Mn433 O438 2.121 . S
Mn433 N440 2.257 . S
Mn433 N449 2.282 . S
Mn433 O457 2.215 . S
Mn433 O459 2.117 . S
C434 O456 1.234 . S
C434 O457 1.283 . S
C435 O447 1.281 . S
C435 O448 1.236 . S
C436 O458 1.240 . S
C436 O459 1.264 1_455 S
O437 Mn432 2.095 . S
O437 C446 1.250 . S
O438 Mn433 2.121 . S
O438 C446 1.258 . S
C439 N440 1.326 . S
C439 C443 1.460 . S
C439 H445 0.929 . S
N440 Mn433 2.257 . S
N440 C439 1.326 . S
N440 C444 1.362 . S
C441 C442 1.258 . S
C441 C444 1.431 . S
C441 C461 1.449 . S
C442 C441 1.258 . S
C442 C443 1.477 . S
C442 H462 0.931 . S
C443 C439 1.460 . S
C443 C442 1.477 . S
C443 H463 0.930 . S
C444 N440 1.362 . S
C444 C441 1.431 . S
C444 C454 1.476 . S
H445 C439 0.929 . S
C446 O437 1.250 . S
C446 O438 1.258 . S
O447 Mn432 2.162 . S
O447 C435 1.281 . S
O448 Mn432 2.297 . S
O448 C435 1.236 . S
N449 Mn433 2.282 . S
N449 C450 1.328 . S
N449 C454 1.318 . S
C450 N449 1.328 . S
C450 C451 1.457 . S
C450 H455 0.929 . S
C451 C450 1.457 . S
C451 C452 1.291 . S
C451 H464 0.931 . S
C452 C451 1.291 . S
C452 C453 1.373 . S
C452 H465 0.929 . S
C453 C452 1.373 . S
C453 C454 1.396 . S
C453 C460 1.403 . S
C454 C444 1.476 . S
C454 N449 1.318 . S
C454 C453 1.396 . S
H455 C450 0.929 . S
O456 Mn432 2.385 . S
O456 C434 1.234 . S
O457 Mn432 2.209 . S
O457 Mn433 2.215 . S
O457 C434 1.283 . S
O458 Mn432 2.094 1_455 S
O458 C436 1.240 . S
O459 Mn433 2.117 . S
O459 C436 1.264 1_655 S
C460 C453 1.403 . S
C460 C461 1.399 . S
C460 H466 0.929 . S
C461 C441 1.449 . S
C461 C460 1.399 . S
C461 H467 0.930 . S
H462 C442 0.931 . S
H463 C443 0.930 . S
H464 C451 0.931 . S
H465 C452 0.929 . S
H466 C460 0.929 . S
H467 C461 0.930 . S
Mn468 O473 2.095 . S
Mn468 O483 2.162 . S
Mn468 O484 2.297 . S
Mn468 O492 2.385 . S
Mn468 O493 2.209 . S
Mn468 O494 2.094 . S
Mn469 O474 2.121 . S
Mn469 N476 2.257 1_655 S
Mn469 N485 2.282 . S
Mn469 O493 2.215 . S
Mn469 O495 2.117 . S
C470 O492 1.234 . S
C470 O493 1.283 . S
C471 O483 1.281 . S
C471 O484 1.236 . S
C472 O494 1.240 . S
C472 O495 1.264 . S
O473 Mn468 2.095 . S
O473 C482 1.250 . S
O474 Mn469 2.121 . S
O474 C482 1.258 . S
C475 N476 1.326 . S
C475 C479 1.460 . S
C475 H481 0.929 . S
N476 Mn469 2.257 1_455 S
N476 C475 1.326 . S
N476 C480 1.362 . S
C477 C478 1.258 . S
C477 C480 1.431 . S
C477 C497 1.449 . S
C478 C477 1.258 . S
C478 C479 1.477 . S
C478 H498 0.931 . S
C479 C475 1.460 . S
C479 C478 1.477 . S
C479 H499 0.930 . S
C480 N476 1.362 . S
C480 C477 1.431 . S
C480 C490 1.476 . S
H481 C475 0.929 . S
C482 O473 1.250 . S
C482 O474 1.258 . S
O483 Mn468 2.162 . S
O483 C471 1.281 . S
O484 Mn468 2.297 . S
O484 C471 1.236 . S
N485 Mn469 2.282 . S
N485 C486 1.328 . S
N485 C490 1.318 1_655 S
C486 N485 1.328 . S
C486 C487 1.457 . S
C486 H491 0.929 . S
C487 C486 1.457 . S
C487 C488 1.291 . S
C487 H500 0.931 . S
C488 C487 1.291 . S
C488 C489 1.373 1_655 S
C488 H501 0.929 1_655 S
C489 C488 1.373 1_455 S
C489 C490 1.396 . S
C489 C496 1.403 . S
C490 C480 1.476 . S
C490 N485 1.318 1_455 S
C490 C489 1.396 . S
H491 C486 0.929 . S
O492 Mn468 2.385 . S
O492 C470 1.234 . S
O493 Mn468 2.209 . S
O493 Mn469 2.215 . S
O493 C470 1.283 . S
O494 Mn468 2.094 . S
O494 C472 1.240 . S
O495 Mn469 2.117 . S
O495 C472 1.264 . S
C496 C489 1.403 . S
C496 C497 1.399 . S
C496 H502 0.929 . S
C497 C477 1.449 . S
C497 C496 1.399 . S
C497 H503 0.930 . S
H498 C478 0.931 . S
H499 C479 0.930 . S
H500 C487 0.931 . S
H501 C488 0.929 1_455 S
H502 C496 0.929 . S
H503 C497 0.930 . S
Mn504 O509 2.095 . S
Mn504 O519 2.162 . S
Mn504 O520 2.297 . S
Mn504 O528 2.385 . S
Mn504 O529 2.209 . S
Mn504 O530 2.094 1_655 S
Mn505 O510 2.121 . S
Mn505 N512 2.257 . S
Mn505 N521 2.282 . S
Mn505 O529 2.215 . S
Mn505 O531 2.117 . S
C506 O528 1.234 . S
C506 O529 1.283 . S
C507 O519 1.281 . S
C507 O520 1.236 . S
C508 O530 1.240 . S
C508 O531 1.264 1_455 S
O509 Mn504 2.095 . S
O509 C518 1.250 . S
O510 Mn505 2.121 . S
O510 C518 1.258 . S
C511 N512 1.326 . S
C511 C515 1.460 . S
C511 H517 0.929 . S
N512 Mn505 2.257 . S
N512 C511 1.326 . S
N512 C516 1.362 . S
C513 C514 1.258 . S
C513 C516 1.431 . S
C513 C533 1.449 . S
C514 C513 1.258 . S
C514 C515 1.477 . S
C514 H534 0.931 . S
C515 C511 1.460 . S
C515 C514 1.477 . S
C515 H535 0.930 . S
C516 N512 1.362 . S
C516 C513 1.431 . S
C516 C526 1.476 . S
H517 C511 0.929 . S
C518 O509 1.250 . S
C518 O510 1.258 . S
O519 Mn504 2.162 . S
O519 C507 1.281 . S
O520 Mn504 2.297 . S
O520 C507 1.236 . S
N521 Mn505 2.282 . S
N521 C522 1.328 . S
N521 C526 1.318 . S
C522 N521 1.328 . S
C522 C523 1.457 . S
C522 H527 0.929 . S
C523 C522 1.457 . S
C523 C524 1.291 . S
C523 H536 0.931 . S
C524 C523 1.291 . S
C524 C525 1.373 . S
C524 H537 0.929 . S
C525 C524 1.373 . S
C525 C526 1.396 . S
C525 C532 1.403 . S
C526 C516 1.476 . S
C526 N521 1.318 . S
C526 C525 1.396 . S
H527 C522 0.929 . S
O528 Mn504 2.385 . S
O528 C506 1.234 . S
O529 Mn504 2.209 . S
O529 Mn505 2.215 . S
O529 C506 1.283 . S
O530 Mn504 2.094 1_455 S
O530 C508 1.240 . S
O531 Mn505 2.117 . S
O531 C508 1.264 1_655 S
C532 C525 1.403 . S
C532 C533 1.399 . S
C532 H538 0.929 . S
C533 C513 1.449 . S
C533 C532 1.399 . S
C533 H539 0.930 . S
H534 C514 0.931 . S
H535 C515 0.930 . S
H536 C523 0.931 . S
H537 C524 0.929 . S
H538 C532 0.929 . S
H539 C533 0.930 . S
Mn540 O545 2.095 . S
Mn540 O555 2.162 . S
Mn540 O556 2.297 . S
Mn540 O564 2.385 . S
Mn540 O565 2.209 . S
Mn540 O566 2.094 . S
Mn541 O546 2.121 . S
Mn541 N548 2.257 1_655 S
Mn541 N557 2.282 . S
Mn541 O565 2.215 . S
Mn541 O567 2.117 . S
C542 O564 1.234 . S
C542 O565 1.283 . S
C543 O555 1.281 . S
C543 O556 1.236 . S
C544 O566 1.240 . S
C544 O567 1.264 . S
O545 Mn540 2.095 . S
O545 C554 1.250 . S
O546 Mn541 2.121 . S
O546 C554 1.258 . S
C547 N548 1.326 . S
C547 C551 1.460 . S
C547 H553 0.929 . S
N548 Mn541 2.257 1_455 S
N548 C547 1.326 . S
N548 C552 1.362 . S
C549 C550 1.258 . S
C549 C552 1.431 . S
C549 C569 1.449 . S
C550 C549 1.258 . S
C550 C551 1.477 . S
C550 H570 0.931 . S
C551 C547 1.460 . S
C551 C550 1.477 . S
C551 H571 0.930 . S
C552 N548 1.362 . S
C552 C549 1.431 . S
C552 C562 1.476 . S
H553 C547 0.929 . S
C554 O545 1.250 . S
C554 O546 1.258 . S
O555 Mn540 2.162 . S
O555 C543 1.281 . S
O556 Mn540 2.297 . S
O556 C543 1.236 . S
N557 Mn541 2.282 . S
N557 C558 1.328 . S
N557 C562 1.318 1_655 S
C558 N557 1.328 . S
C558 C559 1.457 . S
C558 H563 0.929 . S
C559 C558 1.457 . S
C559 C560 1.291 . S
C559 H572 0.931 . S
C560 C559 1.291 . S
C560 C561 1.373 1_655 S
C560 H573 0.929 1_655 S
C561 C560 1.373 1_455 S
C561 C562 1.396 . S
C561 C568 1.403 . S
C562 C552 1.476 . S
C562 N557 1.318 1_455 S
C562 C561 1.396 . S
H563 C558 0.929 . S
O564 Mn540 2.385 . S
O564 C542 1.234 . S
O565 Mn540 2.209 . S
O565 Mn541 2.215 . S
O565 C542 1.283 . S
O566 Mn540 2.094 . S
O566 C544 1.240 . S
O567 Mn541 2.117 . S
O567 C544 1.264 . S
C568 C561 1.403 . S
C568 C569 1.399 . S
C568 H574 0.929 . S
C569 C549 1.449 . S
C569 C568 1.399 . S
C569 H575 0.930 . S
H570 C550 0.931 . S
H571 C551 0.930 . S
H572 C559 0.931 . S
H573 C560 0.929 1_455 S
H574 C568 0.929 . S
H575 C569 0.930 . S
Mn576 O581 2.095 . S
Mn576 O591 2.162 . S
Mn576 O592 2.297 . S
Mn576 O600 2.385 . S
Mn576 O601 2.209 . S
Mn576 O602 2.094 . S
Mn577 O582 2.121 . S
Mn577 N584 2.257 . S
Mn577 N593 2.282 . S
Mn577 O601 2.215 . S
Mn577 O603 2.117 . S
C578 O600 1.234 . S
C578 O601 1.283 . S
C579 O591 1.281 . S
C579 O592 1.236 . S
C580 O602 1.240 . S
C580 O603 1.264 . S
O581 Mn576 2.095 . S
O581 C590 1.250 . S
O582 Mn577 2.121 . S
O582 C590 1.258 . S
C583 N584 1.326 . S
C583 C587 1.460 . S
C583 H589 0.929 . S
N584 Mn577 2.257 . S
N584 C583 1.326 . S
N584 C588 1.362 . S
C585 C586 1.258 . S
C585 C588 1.431 . S
C585 C605 1.449 . S
C586 C585 1.258 . S
C586 C587 1.477 . S
C586 H606 0.931 . S
C587 C583 1.460 . S
C587 C586 1.477 . S
C587 H607 0.930 . S
C588 N584 1.362 . S
C588 C585 1.431 . S
C588 C598 1.476 . S
H589 C583 0.929 . S
C590 O581 1.250 . S
C590 O582 1.258 . S
O591 Mn576 2.162 . S
O591 C579 1.281 . S
O592 Mn576 2.297 . S
O592 C579 1.236 . S
N593 Mn577 2.282 . S
N593 C594 1.328 . S
N593 C598 1.318 . S
C594 N593 1.328 . S
C594 C595 1.457 . S
C594 H599 0.929 . S
C595 C594 1.457 . S
C595 C596 1.291 . S
C595 H608 0.931 . S
C596 C595 1.291 . S
C596 C597 1.373 . S
C596 H609 0.929 . S
C597 C596 1.373 . S
C597 C598 1.396 . S
C597 C604 1.403 . S
C598 C588 1.476 . S
C598 N593 1.318 . S
C598 C597 1.396 . S
H599 C594 0.929 . S
O600 Mn576 2.385 . S
O600 C578 1.234 . S
O601 Mn576 2.209 . S
O601 Mn577 2.215 . S
O601 C578 1.283 . S
O602 Mn576 2.094 . S
O602 C580 1.240 . S
O603 Mn577 2.117 . S
O603 C580 1.264 . S
C604 C597 1.403 . S
C604 C605 1.399 . S
C604 H610 0.929 . S
C605 C585 1.449 . S
C605 C604 1.399 . S
C605 H611 0.930 . S
H606 C586 0.931 . S
H607 C587 0.930 . S
H608 C595 0.931 . S
H609 C596 0.929 . S
H610 C604 0.929 . S
H611 C605 0.930 . S
Mn612 O617 2.095 . S
Mn612 O627 2.162 . S
Mn612 O628 2.297 . S
Mn612 O636 2.385 . S
Mn612 O637 2.209 . S
Mn612 O638 2.094 . S
Mn613 O618 2.121 . S
Mn613 N620 2.257 . S
Mn613 N629 2.282 . S
Mn613 O637 2.215 . S
Mn613 O639 2.117 . S
C614 O636 1.234 . S
C614 O637 1.283 . S
C615 O627 1.281 . S
C615 O628 1.236 . S
C616 O638 1.240 . S
C616 O639 1.264 . S
O617 Mn612 2.095 . S
O617 C626 1.250 . S
O618 Mn613 2.121 . S
O618 C626 1.258 . S
C619 N620 1.326 . S
C619 C623 1.460 1_655 S
C619 H625 0.929 . S
N620 Mn613 2.257 . S
N620 C619 1.326 . S
N620 C624 1.362 . S
C621 C622 1.258 1_655 S
C621 C624 1.431 . S
C621 C641 1.449 . S
C622 C621 1.258 1_455 S
C622 C623 1.477 . S
C622 H642 0.931 . S
C623 C619 1.460 1_455 S
C623 C622 1.477 . S
C623 H643 0.930 . S
C624 N620 1.362 . S
C624 C621 1.431 . S
C624 C634 1.476 . S
H625 C619 0.929 . S
C626 O617 1.250 . S
C626 O618 1.258 . S
O627 Mn612 2.162 . S
O627 C615 1.281 . S
O628 Mn612 2.297 . S
O628 C615 1.236 . S
N629 Mn613 2.282 . S
N629 C630 1.328 . S
N629 C634 1.318 . S
C630 N629 1.328 . S
C630 C631 1.457 . S
C630 H635 0.929 . S
C631 C630 1.457 . S
C631 C632 1.291 . S
C631 H644 0.931 . S
C632 C631 1.291 . S
C632 C633 1.373 . S
C632 H645 0.929 . S
C633 C632 1.373 . S
C633 C634 1.396 . S
C633 C640 1.403 . S
C634 C624 1.476 . S
C634 N629 1.318 . S
C634 C633 1.396 . S
H635 C630 0.929 . S
O636 Mn612 2.385 . S
O636 C614 1.234 . S
O637 Mn612 2.209 . S
O637 Mn613 2.215 . S
O637 C614 1.283 . S
O638 Mn612 2.094 . S
O638 C616 1.240 . S
O639 Mn613 2.117 . S
O639 C616 1.264 . S
C640 C633 1.403 . S
C640 C641 1.399 . S
C640 H646 0.929 . S
C641 C621 1.449 . S
C641 C640 1.399 . S
C641 H647 0.930 1_655 S
H642 C622 0.931 . S
H643 C623 0.930 . S
H644 C631 0.931 . S
H645 C632 0.929 . S
H646 C640 0.929 . S
H647 C641 0.930 1_455 S
Mn648 O653 2.095 . S
Mn648 O663 2.162 . S
Mn648 O664 2.297 . S
Mn648 O672 2.385 . S
Mn648 O673 2.209 . S
Mn648 O674 2.094 . S
Mn649 O654 2.121 . S
Mn649 N656 2.257 . S
Mn649 N665 2.282 . S
Mn649 O673 2.215 . S
Mn649 O675 2.117 . S
C650 O672 1.234 . S
C650 O673 1.283 . S
C651 O663 1.281 . S
C651 O664 1.236 . S
C652 O674 1.240 . S
C652 O675 1.264 . S
O653 Mn648 2.095 . S
O653 C662 1.250 . S
O654 Mn649 2.121 . S
O654 C662 1.258 . S
C655 N656 1.326 . S
C655 C659 1.460 . S
C655 H661 0.929 . S
N656 Mn649 2.257 . S
N656 C655 1.326 . S
N656 C660 1.362 . S
C657 C658 1.258 . S
C657 C660 1.431 . S
C657 C677 1.449 . S
C658 C657 1.258 . S
C658 C659 1.477 . S
C658 H678 0.931 . S
C659 C655 1.460 . S
C659 C658 1.477 . S
C659 H679 0.930 . S
C660 N656 1.362 . S
C660 C657 1.431 . S
C660 C670 1.476 . S
H661 C655 0.929 . S
C662 O653 1.250 . S
C662 O654 1.258 . S
O663 Mn648 2.162 . S
O663 C651 1.281 . S
O664 Mn648 2.297 . S
O664 C651 1.236 . S
N665 Mn649 2.282 . S
N665 C666 1.328 . S
N665 C670 1.318 . S
C666 N665 1.328 . S
C666 C667 1.457 . S
C666 H671 0.929 . S
C667 C666 1.457 . S
C667 C668 1.291 . S
C667 H680 0.931 . S
C668 C667 1.291 . S
C668 C669 1.373 . S
C668 H681 0.929 . S
C669 C668 1.373 . S
C669 C670 1.396 . S
C669 C676 1.403 . S
C670 C660 1.476 . S
C670 N665 1.318 . S
C670 C669 1.396 . S
H671 C666 0.929 . S
O672 Mn648 2.385 . S
O672 C650 1.234 . S
O673 Mn648 2.209 . S
O673 Mn649 2.215 . S
O673 C650 1.283 . S
O674 Mn648 2.094 . S
O674 C652 1.240 . S
O675 Mn649 2.117 . S
O675 C652 1.264 . S
C676 C669 1.403 . S
C676 C677 1.399 . S
C676 H682 0.929 . S
C677 C657 1.449 . S
C677 C676 1.399 . S
C677 H683 0.930 . S
H678 C658 0.931 . S
H679 C659 0.930 . S
H680 C667 0.931 . S
H681 C668 0.929 . S
H682 C676 0.929 . S
H683 C677 0.930 . S
Mn684 O689 2.095 . S
Mn684 O699 2.162 . S
Mn684 O700 2.297 . S
Mn684 O708 2.385 . S
Mn684 O709 2.209 . S
Mn684 O710 2.094 . S
Mn685 O690 2.121 . S
Mn685 N692 2.257 . S
Mn685 N701 2.282 . S
Mn685 O709 2.215 . S
Mn685 O711 2.117 . S
C686 O708 1.234 . S
C686 O709 1.283 . S
C687 O699 1.281 . S
C687 O700 1.236 . S
C688 O710 1.240 . S
C688 O711 1.264 . S
O689 Mn684 2.095 . S
O689 C698 1.250 . S
O690 Mn685 2.121 . S
O690 C698 1.258 . S
C691 N692 1.326 . S
C691 C695 1.460 1_655 S
C691 H697 0.929 . S
N692 Mn685 2.257 . S
N692 C691 1.326 . S
N692 C696 1.362 . S
C693 C694 1.258 1_655 S
C693 C696 1.431 . S
C693 C713 1.449 . S
C694 C693 1.258 1_455 S
C694 C695 1.477 . S
C694 H714 0.931 . S
C695 C691 1.460 1_455 S
C695 C694 1.477 . S
C695 H715 0.930 . S
C696 N692 1.362 . S
C696 C693 1.431 . S
C696 C706 1.476 . S
H697 C691 0.929 . S
C698 O689 1.250 . S
C698 O690 1.258 . S
O699 Mn684 2.162 . S
O699 C687 1.281 . S
O700 Mn684 2.297 . S
O700 C687 1.236 . S
N701 Mn685 2.282 . S
N701 C702 1.328 . S
N701 C706 1.318 . S
C702 N701 1.328 . S
C702 C703 1.457 . S
C702 H707 0.929 . S
C703 C702 1.457 . S
C703 C704 1.291 . S
C703 H716 0.931 . S
C704 C703 1.291 . S
C704 C705 1.373 . S
C704 H717 0.929 . S
C705 C704 1.373 . S
C705 C706 1.396 . S
C705 C712 1.403 . S
C706 C696 1.476 . S
C706 N701 1.318 . S
C706 C705 1.396 . S
H707 C702 0.929 . S
O708 Mn684 2.385 . S
O708 C686 1.234 . S
O709 Mn684 2.209 . S
O709 Mn685 2.215 . S
O709 C686 1.283 . S
O710 Mn684 2.094 . S
O710 C688 1.240 . S
O711 Mn685 2.117 . S
O711 C688 1.264 . S
C712 C705 1.403 . S
C712 C713 1.399 . S
C712 H718 0.929 . S
C713 C693 1.449 . S
C713 C712 1.399 . S
C713 H719 0.930 1_655 S
H714 C694 0.931 . S
H715 C695 0.930 . S
H716 C703 0.931 . S
H717 C704 0.929 . S
H718 C712 0.929 . S
H719 C713 0.930 1_455 S
Mn720 O725 2.095 . S
Mn720 O735 2.162 . S
Mn720 O736 2.297 . S
Mn720 O744 2.385 . S
Mn720 O745 2.209 . S
Mn720 O746 2.094 . S
Mn721 O726 2.121 . S
Mn721 N728 2.257 . S
Mn721 N737 2.282 . S
Mn721 O745 2.215 . S
Mn721 O747 2.117 . S
C722 O744 1.234 . S
C722 O745 1.283 . S
C723 O735 1.281 . S
C723 O736 1.236 . S
C724 O746 1.240 . S
C724 O747 1.264 . S
O725 Mn720 2.095 . S
O725 C734 1.250 . S
O726 Mn721 2.121 . S
O726 C734 1.258 . S
C727 N728 1.326 . S
C727 C731 1.460 . S
C727 H733 0.929 . S
N728 Mn721 2.257 . S
N728 C727 1.326 . S
N728 C732 1.362 . S
C729 C730 1.259 . S
C729 C732 1.431 . S
C729 C749 1.449 . S
C730 C729 1.259 . S
C730 C731 1.478 . S
C730 H750 0.928 1_455 S
C731 C727 1.460 . S
C731 C730 1.478 . S
C731 H751 0.930 1_455 S
C732 N728 1.362 . S
C732 C729 1.431 . S
C732 C742 1.476 . S
H733 C727 0.929 . S
C734 O725 1.250 . S
C734 O726 1.258 . S
O735 Mn720 2.162 . S
O735 C723 1.281 . S
O736 Mn720 2.297 . S
O736 C723 1.236 . S
N737 Mn721 2.282 . S
N737 C738 1.328 . S
N737 C742 1.318 . S
C738 N737 1.328 . S
C738 C739 1.457 1_565 S
C738 H743 0.929 . S
C739 C738 1.457 1_545 S
C739 C740 1.291 . S
C739 H752 0.931 . S
C740 C739 1.291 . S
C740 C741 1.373 1_545 S
C740 H753 0.929 . S
C741 C740 1.373 1_565 S
C741 C742 1.396 . S
C741 C748 1.403 . S
C742 C732 1.476 . S
C742 N737 1.318 . S
C742 C741 1.396 . S
H743 C738 0.929 . S
O744 Mn720 2.385 . S
O744 C722 1.234 . S
O745 Mn720 2.209 . S
O745 Mn721 2.215 . S
O745 C722 1.283 . S
O746 Mn720 2.094 . S
O746 C724 1.240 . S
O747 Mn721 2.117 . S
O747 C724 1.264 . S
C748 C741 1.403 . S
C748 C749 1.399 . S
C748 H754 0.929 1_565 S
C749 C729 1.449 . S
C749 C748 1.399 . S
C749 H755 0.930 1_455 S
H750 C730 0.928 1_655 S
H751 C731 0.930 1_655 S
H752 C739 0.931 . S
H753 C740 0.929 . S
H754 C748 0.929 1_545 S
H755 C749 0.930 1_655 S
Mn756 O761 2.095 . S
Mn756 O771 2.162 . S
Mn756 O772 2.297 . S
Mn756 O780 2.385 . S
Mn756 O781 2.209 . S
Mn756 O782 2.094 . S
Mn757 O762 2.121 . S
Mn757 N764 2.257 . S
Mn757 N773 2.282 . S
Mn757 O781 2.215 . S
Mn757 O783 2.117 . S
C758 O780 1.234 . S
C758 O781 1.283 . S
C759 O771 1.281 . S
C759 O772 1.236 . S
C760 O782 1.240 . S
C760 O783 1.264 . S
O761 Mn756 2.095 . S
O761 C770 1.250 . S
O762 Mn757 2.121 . S
O762 C770 1.258 . S
C763 N764 1.326 . S
C763 C767 1.460 . S
C763 H769 0.929 . S
N764 Mn757 2.257 . S
N764 C763 1.326 . S
N764 C768 1.362 . S
C765 C766 1.258 . S
C765 C768 1.431 . S
C765 C785 1.449 . S
C766 C765 1.258 . S
C766 C767 1.477 . S
C766 H786 0.931 . S
C767 C763 1.460 . S
C767 C766 1.477 . S
C767 H787 0.930 . S
C768 N764 1.362 . S
C768 C765 1.431 . S
C768 C778 1.476 . S
H769 C763 0.929 . S
C770 O761 1.250 . S
C770 O762 1.258 . S
O771 Mn756 2.162 . S
O771 C759 1.281 . S
O772 Mn756 2.297 . S
O772 C759 1.236 . S
N773 Mn757 2.282 . S
N773 C774 1.328 . S
N773 C778 1.318 . S
C774 N773 1.328 . S
C774 C775 1.457 . S
C774 H779 0.929 . S
C775 C774 1.457 . S
C775 C776 1.291 . S
C775 H788 0.931 . S
C776 C775 1.291 . S
C776 C777 1.373 . S
C776 H789 0.929 . S
C777 C776 1.373 . S
C777 C778 1.396 . S
C777 C784 1.403 . S
C778 C768 1.476 . S
C778 N773 1.318 . S
C778 C777 1.396 . S
H779 C774 0.929 . S
O780 Mn756 2.385 . S
O780 C758 1.234 . S
O781 Mn756 2.209 . S
O781 Mn757 2.215 . S
O781 C758 1.283 . S
O782 Mn756 2.094 . S
O782 C760 1.240 . S
O783 Mn757 2.117 . S
O783 C760 1.264 . S
C784 C777 1.403 . S
C784 C785 1.399 . S
C784 H790 0.929 . S
C785 C765 1.449 . S
C785 C784 1.399 . S
C785 H791 0.930 . S
H786 C766 0.931 . S
H787 C767 0.930 . S
H788 C775 0.931 . S
H789 C776 0.929 . S
H790 C784 0.929 . S
H791 C785 0.930 . S
Mn792 O797 2.095 . S
Mn792 O807 2.162 . S
Mn792 O808 2.297 . S
Mn792 O816 2.385 . S
Mn792 O817 2.209 . S
Mn792 O818 2.094 . S
Mn793 O798 2.121 . S
Mn793 N800 2.257 . S
Mn793 N809 2.282 . S
Mn793 O817 2.215 . S
Mn793 O819 2.117 . S
C794 O816 1.234 . S
C794 O817 1.283 . S
C795 O807 1.281 . S
C795 O808 1.236 . S
C796 O818 1.240 . S
C796 O819 1.264 . S
O797 Mn792 2.095 . S
O797 C806 1.250 . S
O798 Mn793 2.121 . S
O798 C806 1.258 . S
C799 N800 1.326 . S
C799 C803 1.460 . S
C799 H805 0.929 . S
N800 Mn793 2.257 . S
N800 C799 1.326 . S
N800 C804 1.362 . S
C801 C802 1.258 . S
C801 C804 1.431 . S
C801 C821 1.449 . S
C802 C801 1.258 . S
C802 C803 1.477 . S
C802 H822 0.930 1_455 S
C803 C799 1.460 . S
C803 C802 1.477 . S
C803 H823 0.930 1_455 S
C804 N800 1.362 . S
C804 C801 1.431 . S
C804 C814 1.476 . S
H805 C799 0.929 . S
C806 O797 1.250 . S
C806 O798 1.258 . S
O807 Mn792 2.162 . S
O807 C795 1.281 . S
O808 Mn792 2.297 . S
O808 C795 1.236 . S
N809 Mn793 2.282 . S
N809 C810 1.328 . S
N809 C814 1.318 . S
C810 N809 1.328 . S
C810 C811 1.457 . S
C810 H815 0.929 . S
C811 C810 1.457 . S
C811 C812 1.291 . S
C811 H824 0.931 . S
C812 C811 1.291 . S
C812 C813 1.373 . S
C812 H825 0.929 . S
C813 C812 1.373 . S
C813 C814 1.396 . S
C813 C820 1.403 . S
C814 C804 1.476 . S
C814 N809 1.318 . S
C814 C813 1.396 . S
H815 C810 0.929 . S
O816 Mn792 2.385 . S
O816 C794 1.234 . S
O817 Mn792 2.209 . S
O817 Mn793 2.215 . S
O817 C794 1.283 . S
O818 Mn792 2.094 . S
O818 C796 1.240 . S
O819 Mn793 2.117 . S
O819 C796 1.264 . S
C820 C813 1.403 . S
C820 C821 1.399 . S
C820 H826 0.929 . S
C821 C801 1.449 . S
C821 C820 1.399 . S
C821 H827 0.930 1_455 S
H822 C802 0.930 1_655 S
H823 C803 0.930 1_655 S
H824 C811 0.931 . S
H825 C812 0.929 . S
H826 C820 0.929 . S
H827 C821 0.930 1_655 S
Mn828 O833 2.095 . S
Mn828 O843 2.162 . S
Mn828 O844 2.297 . S
Mn828 O852 2.385 . S
Mn828 O853 2.209 . S
Mn828 O854 2.094 . S
Mn829 O834 2.121 . S
Mn829 N836 2.257 . S
Mn829 N845 2.282 . S
Mn829 O853 2.215 . S
Mn829 O855 2.117 . S
C830 O852 1.234 . S
C830 O853 1.283 . S
C831 O843 1.281 . S
C831 O844 1.236 . S
C832 O854 1.240 . S
C832 O855 1.264 . S
O833 Mn828 2.095 . S
O833 C842 1.250 . S
O834 Mn829 2.121 . S
O834 C842 1.258 . S
C835 N836 1.326 . S
C835 C839 1.460 . S
C835 H841 0.929 . S
N836 Mn829 2.257 . S
N836 C835 1.326 . S
N836 C840 1.362 . S
C837 C838 1.258 . S
C837 C840 1.431 . S
C837 C857 1.449 . S
C838 C837 1.258 . S
C838 C839 1.477 . S
C838 H858 0.931 . S
C839 C835 1.460 . S
C839 C838 1.477 . S
C839 H859 0.930 . S
C840 N836 1.362 . S
C840 C837 1.431 . S
C840 C850 1.476 . S
H841 C835 0.929 . S
C842 O833 1.250 . S
C842 O834 1.258 . S
O843 Mn828 2.162 . S
O843 C831 1.281 . S
O844 Mn828 2.297 . S
O844 C831 1.236 . S
N845 Mn829 2.282 . S
N845 C846 1.328 . S
N845 C850 1.318 . S
C846 N845 1.328 . S
C846 C847 1.457 1_565 S
C846 H851 0.929 . S
C847 C846 1.457 1_545 S
C847 C848 1.291 . S
C847 H860 0.931 . S
C848 C847 1.291 . S
C848 C849 1.373 1_545 S
C848 H861 0.929 . S
C849 C848 1.373 1_565 S
C849 C850 1.396 . S
C849 C856 1.403 . S
C850 C840 1.476 . S
C850 N845 1.318 . S
C850 C849 1.396 . S
H851 C846 0.929 . S
O852 Mn828 2.385 . S
O852 C830 1.234 . S
O853 Mn828 2.209 . S
O853 Mn829 2.215 . S
O853 C830 1.283 . S
O854 Mn828 2.094 . S
O854 C832 1.240 . S
O855 Mn829 2.117 . S
O855 C832 1.264 . S
C856 C849 1.403 . S
C856 C857 1.399 . S
C856 H862 0.929 1_565 S
C857 C837 1.449 . S
C857 C856 1.399 . S
C857 H863 0.930 . S
H858 C838 0.931 . S
H859 C839 0.930 . S
H860 C847 0.931 . S
H861 C848 0.929 . S
H862 C856 0.929 1_545 S
H863 C857 0.930 . S
Mn864 O869 2.095 . S
Mn864 O879 2.162 . S
Mn864 O880 2.297 . S
Mn864 O888 2.385 . S
Mn864 O889 2.209 . S
Mn864 O890 2.094 . S
Mn865 O870 2.121 . S
Mn865 N872 2.257 . S
Mn865 N881 2.282 . S
Mn865 O889 2.215 . S
Mn865 O891 2.117 . S
C866 O888 1.234 . S
C866 O889 1.283 . S
C867 O879 1.281 . S
C867 O880 1.236 . S
C868 O890 1.240 . S
C868 O891 1.264 . S
O869 Mn864 2.095 . S
O869 C878 1.250 . S
O870 Mn865 2.121 . S
O870 C878 1.258 . S
C871 N872 1.326 . S
C871 C875 1.460 . S
C871 H877 0.929 . S
N872 Mn865 2.257 . S
N872 C871 1.326 . S
N872 C876 1.362 . S
C873 C874 1.258 . S
C873 C876 1.431 . S
C873 C893 1.449 . S
C874 C873 1.258 . S
C874 C875 1.477 . S
C874 H894 0.931 . S
C875 C871 1.460 . S
C875 C874 1.477 . S
C875 H895 0.930 . S
C876 N872 1.362 . S
C876 C873 1.431 . S
C876 C886 1.476 . S
H877 C871 0.929 . S
C878 O869 1.250 . S
C878 O870 1.258 . S
O879 Mn864 2.162 . S
O879 C867 1.281 . S
O880 Mn864 2.297 . S
O880 C867 1.236 . S
N881 Mn865 2.282 . S
N881 C882 1.328 . S
N881 C886 1.318 . S
C882 N881 1.328 . S
C882 C883 1.457 . S
C882 H887 0.929 . S
C883 C882 1.457 . S
C883 C884 1.291 . S
C883 H896 0.931 . S
C884 C883 1.291 . S
C884 C885 1.373 . S
C884 H897 0.929 . S
C885 C884 1.373 . S
C885 C886 1.396 . S
C885 C892 1.403 . S
C886 C876 1.476 . S
C886 N881 1.318 . S
C886 C885 1.396 . S
H887 C882 0.929 . S
O888 Mn864 2.385 . S
O888 C866 1.234 . S
O889 Mn864 2.209 . S
O889 Mn865 2.215 . S
O889 C866 1.283 . S
O890 Mn864 2.094 . S
O890 C868 1.240 . S
O891 Mn865 2.117 . S
O891 C868 1.264 . S
C892 C885 1.403 . S
C892 C893 1.399 . S
C892 H898 0.929 . S
C893 C873 1.449 . S
C893 C892 1.399 . S
C893 H899 0.930 . S
H894 C874 0.931 . S
H895 C875 0.930 . S
H896 C883 0.931 . S
H897 C884 0.929 . S
H898 C892 0.929 . S
H899 C893 0.930 . S
Mn900 O905 2.095 . S
Mn900 O915 2.162 . S
Mn900 O916 2.297 . S
Mn900 O924 2.385 . S
Mn900 O925 2.209 . S
Mn900 O926 2.094 . S
Mn901 O906 2.121 . S
Mn901 N908 2.257 . S
Mn901 N917 2.282 . S
Mn901 O925 2.215 . S
Mn901 O927 2.117 . S
C902 O924 1.234 . S
C902 O925 1.283 . S
C903 O915 1.281 . S
C903 O916 1.236 . S
C904 O926 1.240 . S
C904 O927 1.264 . S
O905 Mn900 2.095 . S
O905 C914 1.250 . S
O906 Mn901 2.121 . S
O906 C914 1.258 . S
C907 N908 1.326 . S
C907 C911 1.460 1_655 S
C907 H913 0.929 . S
N908 Mn901 2.257 . S
N908 C907 1.326 . S
N908 C912 1.362 . S
C909 C910 1.258 1_655 S
C909 C912 1.431 . S
C909 C929 1.449 . S
C910 C909 1.258 1_455 S
C910 C911 1.477 . S
C910 H930 0.931 . S
C911 C907 1.460 1_455 S
C911 C910 1.477 . S
C911 H931 0.930 . S
C912 N908 1.362 . S
C912 C909 1.431 . S
C912 C922 1.476 . S
H913 C907 0.929 . S
C914 O905 1.250 . S
C914 O906 1.258 . S
O915 Mn900 2.162 . S
O915 C903 1.281 . S
O916 Mn900 2.297 . S
O916 C903 1.236 . S
N917 Mn901 2.282 . S
N917 C918 1.328 . S
N917 C922 1.318 . S
C918 N917 1.328 . S
C918 C919 1.457 . S
C918 H923 0.929 . S
C919 C918 1.457 . S
C919 C920 1.291 . S
C919 H932 0.931 . S
C920 C919 1.291 . S
C920 C921 1.373 . S
C920 H933 0.929 . S
C921 C920 1.373 . S
C921 C922 1.396 . S
C921 C928 1.403 . S
C922 C912 1.476 . S
C922 N917 1.318 . S
C922 C921 1.396 . S
H923 C918 0.929 . S
O924 Mn900 2.385 . S
O924 C902 1.234 . S
O925 Mn900 2.209 . S
O925 Mn901 2.215 . S
O925 C902 1.283 . S
O926 Mn900 2.094 . S
O926 C904 1.240 . S
O927 Mn901 2.117 . S
O927 C904 1.264 . S
C928 C921 1.403 . S
C928 C929 1.399 . S
C928 H934 0.929 . S
C929 C909 1.449 . S
C929 C928 1.399 . S
C929 H935 0.930 1_655 S
H930 C910 0.931 . S
H931 C911 0.930 . S
H932 C919 0.931 . S
H933 C920 0.929 . S
H934 C928 0.929 . S
H935 C929 0.930 1_455 S
Mn936 O941 2.095 . S
Mn936 O951 2.162 . S
Mn936 O952 2.297 . S
Mn936 O960 2.385 1_556 S
Mn936 O961 2.209 1_556 S
Mn936 O962 2.094 . S
Mn937 O942 2.121 1_554 S
Mn937 N944 2.257 . S
Mn937 N953 2.282 . S
Mn937 O961 2.215 . S
Mn937 O963 2.117 . S
C938 O960 1.234 . S
C938 O961 1.283 . S
C939 O951 1.281 . S
C939 O952 1.236 . S
C940 O962 1.240 . S
C940 O963 1.264 1_556 S
O941 Mn936 2.095 . S
O941 C950 1.250 . S
O942 Mn937 2.121 1_556 S
O942 C950 1.258 . S
C943 N944 1.326 . S
C943 C947 1.460 . S
C943 H949 0.929 . S
N944 Mn937 2.257 . S
N944 C943 1.326 . S
N944 C948 1.362 . S
C945 C946 1.258 . S
C945 C948 1.431 . S
C945 C965 1.449 . S
C946 C945 1.258 . S
C946 C947 1.477 . S
C946 H966 0.931 . S
C947 C943 1.460 . S
C947 C946 1.477 . S
C947 H967 0.930 . S
C948 N944 1.362 . S
C948 C945 1.431 . S
C948 C958 1.476 . S
H949 C943 0.929 . S
C950 O941 1.250 . S
C950 O942 1.258 . S
O951 Mn936 2.162 . S
O951 C939 1.281 . S
O952 Mn936 2.297 . S
O952 C939 1.236 . S
N953 Mn937 2.282 . S
N953 C954 1.328 . S
N953 C958 1.318 . S
C954 N953 1.328 . S
C954 C955 1.457 . S
C954 H959 0.929 . S
C955 C954 1.457 . S
C955 C956 1.291 . S
C955 H968 0.931 . S
C956 C955 1.291 . S
C956 C957 1.373 . S
C956 H969 0.929 . S
C957 C956 1.373 . S
C957 C958 1.396 . S
C957 C964 1.403 . S
C958 C948 1.476 . S
C958 N953 1.318 . S
C958 C957 1.396 . S
H959 C954 0.929 . S
O960 Mn936 2.385 1_554 S
O960 C938 1.234 . S
O961 Mn936 2.209 1_554 S
O961 Mn937 2.215 . S
O961 C938 1.283 . S
O962 Mn936 2.094 . S
O962 C940 1.240 . S
O963 Mn937 2.117 . S
O963 C940 1.264 1_554 S
C964 C957 1.403 . S
C964 C965 1.399 . S
C964 H970 0.929 . S
C965 C945 1.449 . S
C965 C964 1.399 . S
C965 H971 0.930 . S
H966 C946 0.931 . S
H967 C947 0.930 . S
H968 C955 0.931 . S
H969 C956 0.929 . S
H970 C964 0.929 . S
H971 C965 0.930 . S
Mn972 O977 2.095 . S
Mn972 O987 2.162 . S
Mn972 O988 2.297 . S
Mn972 O996 2.385 1_556 S
Mn972 O997 2.209 1_556 S
Mn972 O998 2.094 . S
Mn973 O978 2.121 1_554 S
Mn973 N980 2.257 . S
Mn973 N989 2.282 . S
Mn973 O997 2.215 . S
Mn973 O999 2.117 . S
C974 O996 1.234 . S
C974 O997 1.283 . S
C975 O987 1.281 . S
C975 O988 1.236 . S
C976 O998 1.240 . S
C976 O999 1.264 1_556 S
O977 Mn972 2.095 . S
O977 C986 1.250 . S
O978 Mn973 2.121 1_556 S
O978 C986 1.258 . S
C979 N980 1.326 . S
C979 C983 1.460 1_655 S
C979 H985 0.929 . S
N980 Mn973 2.257 . S
N980 C979 1.326 . S
N980 C984 1.362 . S
C981 C982 1.258 1_655 S
C981 C984 1.431 . S
C981 C1001 1.449 . S
C982 C981 1.258 1_455 S
C982 C983 1.477 . S
C982 H1002 0.931 . S
C983 C979 1.460 1_455 S
C983 C982 1.477 . S
C983 H1003 0.930 . S
C984 N980 1.362 . S
C984 C981 1.431 . S
C984 C994 1.476 . S
H985 C979 0.929 . S
C986 O977 1.250 . S
C986 O978 1.258 . S
O987 Mn972 2.162 . S
O987 C975 1.281 . S
O988 Mn972 2.297 . S
O988 C975 1.236 . S
N989 Mn973 2.282 . S
N989 C990 1.328 . S
N989 C994 1.318 . S
C990 N989 1.328 . S
C990 C991 1.457 . S
C990 H995 0.929 . S
C991 C990 1.457 . S
C991 C992 1.291 . S
C991 H1004 0.931 . S
C992 C991 1.291 . S
C992 C993 1.373 . S
C992 H1005 0.929 . S
C993 C992 1.373 . S
C993 C994 1.396 . S
C993 C1000 1.403 . S
C994 C984 1.476 . S
C994 N989 1.318 . S
C994 C993 1.396 . S
H995 C990 0.929 . S
O996 Mn972 2.385 1_554 S
O996 C974 1.234 . S
O997 Mn972 2.209 1_554 S
O997 Mn973 2.215 . S
O997 C974 1.283 . S
O998 Mn972 2.094 . S
O998 C976 1.240 . S
O999 Mn973 2.117 . S
O999 C976 1.264 1_554 S
C1000 C993 1.403 . S
C1000 C1001 1.399 . S
C1000 H1006 0.929 . S
C1001 C981 1.449 . S
C1001 C1000 1.399 . S
C1001 H1007 0.930 1_655 S
H1002 C982 0.931 . S
H1003 C983 0.930 . S
H1004 C991 0.931 . S
H1005 C992 0.929 . S
H1006 C1000 0.929 . S
H1007 C1001 0.930 1_455 S
Mn1008 O1013 2.095 . S
Mn1008 O1023 2.162 . S
Mn1008 O1024 2.297 . S
Mn1008 O1032 2.385 . S
Mn1008 O1033 2.209 . S
Mn1008 O1034 2.094 . S
Mn1009 O1014 2.121 . S
Mn1009 N1016 2.257 . S
Mn1009 N1025 2.282 . S
Mn1009 O1033 2.215 . S
Mn1009 O1035 2.117 . S
C1010 O1032 1.234 . S
C1010 O1033 1.283 . S
C1011 O1023 1.281 . S
C1011 O1024 1.236 . S
C1012 O1034 1.240 . S
C1012 O1035 1.264 . S
O1013 Mn1008 2.095 . S
O1013 C1022 1.250 . S
O1014 Mn1009 2.121 . S
O1014 C1022 1.258 . S
C1015 N1016 1.326 . S
C1015 C1019 1.460 . S
C1015 H1021 0.929 . S
N1016 Mn1009 2.257 . S
N1016 C1015 1.326 . S
N1016 C1020 1.362 . S
C1017 C1018 1.259 . S
C1017 C1020 1.431 . S
C1017 C1037 1.449 . S
C1018 C1017 1.259 . S
C1018 C1019 1.478 . S
C1018 H1038 0.928 1_455 S
C1019 C1015 1.460 . S
C1019 C1018 1.478 . S
C1019 H1039 0.930 1_455 S
C1020 N1016 1.362 . S
C1020 C1017 1.431 . S
C1020 C1030 1.476 . S
H1021 C1015 0.929 . S
C1022 O1013 1.250 . S
C1022 O1014 1.258 . S
O1023 Mn1008 2.162 . S
O1023 C1011 1.281 . S
O1024 Mn1008 2.297 . S
O1024 C1011 1.236 . S
N1025 Mn1009 2.282 . S
N1025 C1026 1.328 . S
N1025 C1030 1.318 . S
C1026 N1025 1.328 . S
C1026 C1027 1.457 . S
C1026 H1031 0.929 . S
C1027 C1026 1.457 . S
C1027 C1028 1.291 . S
C1027 H1040 0.931 . S
C1028 C1027 1.291 . S
C1028 C1029 1.373 . S
C1028 H1041 0.929 . S
C1029 C1028 1.373 . S
C1029 C1030 1.396 . S
C1029 C1036 1.403 . S
C1030 C1020 1.476 . S
C1030 N1025 1.318 . S
C1030 C1029 1.396 . S
H1031 C1026 0.929 . S
O1032 Mn1008 2.385 . S
O1032 C1010 1.234 . S
O1033 Mn1008 2.209 . S
O1033 Mn1009 2.215 . S
O1033 C1010 1.283 . S
O1034 Mn1008 2.094 . S
O1034 C1012 1.240 . S
O1035 Mn1009 2.117 . S
O1035 C1012 1.264 . S
C1036 C1029 1.403 . S
C1036 C1037 1.399 . S
C1036 H1042 0.929 . S
C1037 C1017 1.449 . S
C1037 C1036 1.399 . S
C1037 H1043 0.930 1_455 S
H1038 C1018 0.928 1_655 S
H1039 C1019 0.930 1_655 S
H1040 C1027 0.931 . S
H1041 C1028 0.929 . S
H1042 C1036 0.929 . S
H1043 C1037 0.930 1_655 S
Mn1044 O1049 2.095 . S
Mn1044 O1059 2.162 . S
Mn1044 O1060 2.297 . S
Mn1044 O1068 2.385 . S
Mn1044 O1069 2.209 . S
Mn1044 O1070 2.094 . S
Mn1045 O1050 2.121 . S
Mn1045 N1052 2.257 . S
Mn1045 N1061 2.282 . S
Mn1045 O1069 2.215 . S
Mn1045 O1071 2.117 . S
C1046 O1068 1.234 . S
C1046 O1069 1.283 . S
C1047 O1059 1.281 . S
C1047 O1060 1.236 . S
C1048 O1070 1.240 . S
C1048 O1071 1.264 . S
O1049 Mn1044 2.095 . S
O1049 C1058 1.250 . S
O1050 Mn1045 2.121 . S
O1050 C1058 1.258 . S
C1051 N1052 1.326 . S
C1051 C1055 1.460 . S
C1051 H1057 0.929 . S
N1052 Mn1045 2.257 . S
N1052 C1051 1.326 . S
N1052 C1056 1.362 . S
C1053 C1054 1.258 . S
C1053 C1056 1.431 . S
C1053 C1073 1.449 . S
C1054 C1053 1.258 . S
C1054 C1055 1.477 . S
C1054 H1074 0.931 . S
C1055 C1051 1.460 . S
C1055 C1054 1.477 . S
C1055 H1075 0.930 . S
C1056 N1052 1.362 . S
C1056 C1053 1.431 . S
C1056 C1066 1.476 . S
H1057 C1051 0.929 . S
C1058 O1049 1.250 . S
C1058 O1050 1.258 . S
O1059 Mn1044 2.162 . S
O1059 C1047 1.281 . S
O1060 Mn1044 2.297 . S
O1060 C1047 1.236 . S
N1061 Mn1045 2.282 . S
N1061 C1062 1.328 . S
N1061 C1066 1.318 . S
C1062 N1061 1.328 . S
C1062 C1063 1.457 . S
C1062 H1067 0.929 . S
C1063 C1062 1.457 . S
C1063 C1064 1.291 . S
C1063 H1076 0.931 . S
C1064 C1063 1.291 . S
C1064 C1065 1.373 . S
C1064 H1077 0.929 . S
C1065 C1064 1.373 . S
C1065 C1066 1.396 . S
C1065 C1072 1.403 . S
C1066 C1056 1.476 . S
C1066 N1061 1.318 . S
C1066 C1065 1.396 . S
H1067 C1062 0.929 . S
O1068 Mn1044 2.385 . S
O1068 C1046 1.234 . S
O1069 Mn1044 2.209 . S
O1069 Mn1045 2.215 . S
O1069 C1046 1.283 . S
O1070 Mn1044 2.094 . S
O1070 C1048 1.240 . S
O1071 Mn1045 2.117 . S
O1071 C1048 1.264 . S
C1072 C1065 1.403 . S
C1072 C1073 1.399 . S
C1072 H1078 0.929 . S
C1073 C1053 1.449 . S
C1073 C1072 1.399 . S
C1073 H1079 0.930 . S
H1074 C1054 0.931 . S
H1075 C1055 0.930 . S
H1076 C1063 0.931 . S
H1077 C1064 0.929 . S
H1078 C1072 0.929 . S
H1079 C1073 0.930 . S
Mn1080 O1085 2.095 . S
Mn1080 O1095 2.162 1_554 S
Mn1080 O1096 2.297 1_554 S
Mn1080 O1104 2.385 . S
Mn1080 O1105 2.209 . S
Mn1080 O1106 2.094 . S
Mn1081 O1086 2.121 . S
Mn1081 N1088 2.257 . S
Mn1081 N1097 2.282 . S
Mn1081 O1105 2.215 . S
Mn1081 O1107 2.117 . S
C1082 O1104 1.234 . S
C1082 O1105 1.283 . S
C1083 O1095 1.281 . S
C1083 O1096 1.236 . S
C1084 O1106 1.240 . S
C1084 O1107 1.264 . S
O1085 Mn1080 2.095 . S
O1085 C1094 1.250 . S
O1086 Mn1081 2.121 . S
O1086 C1094 1.258 . S
C1087 N1088 1.326 . S
C1087 C1091 1.460 . S
C1087 H1093 0.929 . S
N1088 Mn1081 2.257 . S
N1088 C1087 1.326 . S
N1088 C1092 1.362 . S
C1089 C1090 1.259 . S
C1089 C1092 1.431 . S
C1089 C1109 1.449 . S
C1090 C1089 1.259 . S
C1090 C1091 1.478 . S
C1090 H1110 0.929 1_455 S
C1091 C1087 1.460 . S
C1091 C1090 1.478 . S
C1091 H1111 0.930 1_455 S
C1092 N1088 1.362 . S
C1092 C1089 1.431 . S
C1092 C1102 1.476 . S
H1093 C1087 0.929 . S
C1094 O1085 1.250 . S
C1094 O1086 1.258 . S
O1095 Mn1080 2.162 1_556 S
O1095 C1083 1.281 . S
O1096 Mn1080 2.297 1_556 S
O1096 C1083 1.236 . S
N1097 Mn1081 2.282 . S
N1097 C1098 1.328 . S
N1097 C1102 1.318 . S
C1098 N1097 1.328 . S
C1098 C1099 1.457 . S
C1098 H1103 0.929 . S
C1099 C1098 1.457 . S
C1099 C1100 1.291 . S
C1099 H1112 0.931 . S
C1100 C1099 1.291 . S
C1100 C1101 1.373 . S
C1100 H1113 0.929 . S
C1101 C1100 1.373 . S
C1101 C1102 1.396 . S
C1101 C1108 1.403 . S
C1102 C1092 1.476 . S
C1102 N1097 1.318 . S
C1102 C1101 1.396 . S
H1103 C1098 0.929 . S
O1104 Mn1080 2.385 . S
O1104 C1082 1.234 . S
O1105 Mn1080 2.209 . S
O1105 Mn1081 2.215 . S
O1105 C1082 1.283 . S
O1106 Mn1080 2.094 . S
O1106 C1084 1.240 . S
O1107 Mn1081 2.117 . S
O1107 C1084 1.264 . S
C1108 C1101 1.403 . S
C1108 C1109 1.399 . S
C1108 H1114 0.929 . S
C1109 C1089 1.449 . S
C1109 C1108 1.399 . S
C1109 H1115 0.930 1_455 S
H1110 C1090 0.929 1_655 S
H1111 C1091 0.930 1_655 S
H1112 C1099 0.931 . S
H1113 C1100 0.929 . S
H1114 C1108 0.929 . S
H1115 C1109 0.930 1_655 S
Mn1116 O1121 2.095 . S
Mn1116 O1131 2.162 1_554 S
Mn1116 O1132 2.297 1_554 S
Mn1116 O1140 2.385 . S
Mn1116 O1141 2.209 . S
Mn1116 O1142 2.094 . S
Mn1117 O1122 2.121 . S
Mn1117 N1124 2.257 . S
Mn1117 N1133 2.282 . S
Mn1117 O1141 2.215 . S
Mn1117 O1143 2.117 . S
C1118 O1140 1.234 . S
C1118 O1141 1.283 . S
C1119 O1131 1.281 . S
C1119 O1132 1.236 . S
C1120 O1142 1.240 . S
C1120 O1143 1.264 . S
O1121 Mn1116 2.095 . S
O1121 C1130 1.250 . S
O1122 Mn1117 2.121 . S
O1122 C1130 1.258 . S
C1123 N1124 1.326 . S
C1123 C1127 1.460 . S
C1123 H1129 0.929 . S
N1124 Mn1117 2.257 . S
N1124 C1123 1.326 . S
N1124 C1128 1.362 . S
C1125 C1126 1.258 . S
C1125 C1128 1.431 . S
C1125 C1145 1.449 . S
C1126 C1125 1.258 . S
C1126 C1127 1.477 . S
C1126 H1146 0.931 . S
C1127 C1123 1.460 . S
C1127 C1126 1.477 . S
C1127 H1147 0.930 . S
C1128 N1124 1.362 . S
C1128 C1125 1.431 . S
C1128 C1138 1.476 . S
H1129 C1123 0.929 . S
C1130 O1121 1.250 . S
C1130 O1122 1.258 . S
O1131 Mn1116 2.162 1_556 S
O1131 C1119 1.281 . S
O1132 Mn1116 2.297 1_556 S
O1132 C1119 1.236 . S
N1133 Mn1117 2.282 . S
N1133 C1134 1.328 . S
N1133 C1138 1.318 . S
C1134 N1133 1.328 . S
C1134 C1135 1.457 . S
C1134 H1139 0.929 . S
C1135 C1134 1.457 . S
C1135 C1136 1.291 . S
C1135 H1148 0.931 . S
C1136 C1135 1.291 . S
C1136 C1137 1.373 . S
C1136 H1149 0.929 . S
C1137 C1136 1.373 . S
C1137 C1138 1.396 . S
C1137 C1144 1.403 . S
C1138 C1128 1.476 . S
C1138 N1133 1.318 . S
C1138 C1137 1.396 . S
H1139 C1134 0.929 . S
O1140 Mn1116 2.385 . S
O1140 C1118 1.234 . S
O1141 Mn1116 2.209 . S
O1141 Mn1117 2.215 . S
O1141 C1118 1.283 . S
O1142 Mn1116 2.094 . S
O1142 C1120 1.240 . S
O1143 Mn1117 2.117 . S
O1143 C1120 1.264 . S
C1144 C1137 1.403 . S
C1144 C1145 1.399 . S
C1144 H1150 0.929 . S
C1145 C1125 1.449 . S
C1145 C1144 1.399 . S
C1145 H1151 0.930 . S
H1146 C1126 0.931 . S
H1147 C1127 0.930 . S
H1148 C1135 0.931 . S
H1149 C1136 0.929 . S
H1150 C1144 0.929 . S
H1151 C1145 0.930 . S
C1152 C1153 1.369 . S
C1152 C1154 1.419 . S
C1152 H1156 0.930 . S
C1153 C1152 1.369 . S
C1153 C1162 1.429 . S
C1154 C1152 1.419 . S
C1154 C1155 1.363 . S
C1154 H1157 0.929 1_455 S
C1155 C1154 1.363 . S
C1155 C1161 1.428 . S
H1156 C1152 0.930 . S
H1157 C1154 0.929 1_655 S
S1158 N1159 1.613 . S
S1158 N1160 1.610 . S
N1159 S1158 1.613 . S
N1159 C1162 1.350 . S
N1160 S1158 1.610 . S
N1160 C1161 1.351 . S
C1161 C1155 1.428 . S
C1161 N1160 1.351 . S
C1161 C1162 1.434 . S
C1162 C1153 1.429 . S
C1162 N1159 1.350 . S
C1162 C1161 1.434 . S
C1163 C1164 1.369 . S
C1163 C1165 1.419 . S
C1163 H1167 0.930 . S
C1164 C1163 1.369 . S
C1164 C1173 1.429 . S
C1165 C1163 1.419 . S
C1165 C1166 1.363 . S
C1165 H1168 0.929 . S
C1166 C1165 1.363 . S
C1166 C1172 1.428 . S
H1167 C1163 0.930 . S
H1168 C1165 0.929 . S
S1169 N1170 1.613 . S
S1169 N1171 1.610 . S
N1170 S1169 1.613 . S
N1170 C1173 1.350 . S
N1171 S1169 1.610 . S
N1171 C1172 1.351 . S
C1172 C1166 1.428 . S
C1172 N1171 1.351 . S
C1172 C1173 1.434 . S
C1173 C1164 1.429 . S
C1173 N1170 1.350 . S
C1173 C1172 1.434 . S
C1174 C1175 1.369 . S
C1174 C1176 1.419 . S
C1174 H1178 0.930 . S
C1175 C1174 1.369 . S
C1175 C1184 1.429 . S
C1176 C1174 1.419 . S
C1176 C1177 1.363 . S
C1176 H1179 0.929 1_655 S
C1177 C1176 1.363 . S
C1177 C1183 1.428 . S
H1178 C1174 0.930 . S
H1179 C1176 0.929 1_455 S
S1180 N1181 1.613 . S
S1180 N1182 1.610 . S
N1181 S1180 1.613 . S
N1181 C1184 1.350 . S
N1182 S1180 1.610 . S
N1182 C1183 1.351 . S
C1183 C1177 1.428 . S
C1183 N1182 1.351 . S
C1183 C1184 1.434 . S
C1184 C1175 1.429 . S
C1184 N1181 1.350 . S
C1184 C1183 1.434 . S
C1185 C1186 1.369 . S
C1185 C1187 1.419 . S
C1185 H1189 0.930 1_655 S
C1186 C1185 1.369 . S
C1186 C1195 1.429 . S
C1187 C1185 1.419 . S
C1187 C1188 1.363 . S
C1187 H1190 0.929 . S
C1188 C1187 1.363 . S
C1188 C1194 1.428 . S
H1189 C1185 0.930 1_455 S
H1190 C1187 0.929 . S
S1191 N1192 1.613 . S
S1191 N1193 1.610 . S
N1192 S1191 1.613 . S
N1192 C1195 1.350 . S
N1193 S1191 1.610 . S
N1193 C1194 1.351 . S
C1194 C1188 1.428 . S
C1194 N1193 1.351 . S
C1194 C1195 1.434 . S
C1195 C1186 1.429 . S
C1195 N1192 1.350 . S
C1195 C1194 1.434 . S
C1196 C1197 1.369 . S
C1196 C1198 1.419 . S
C1196 H1200 0.930 . S
C1197 C1196 1.369 . S
C1197 C1206 1.429 . S
C1198 C1196 1.419 . S
C1198 C1199 1.363 . S
C1198 H1201 0.929 . S
C1199 C1198 1.363 . S
C1199 C1205 1.428 . S
H1200 C1196 0.930 . S
H1201 C1198 0.929 . S
S1202 N1203 1.613 . S
S1202 N1204 1.610 1_655 S
N1203 S1202 1.613 . S
N1203 C1206 1.350 1_655 S
N1204 S1202 1.610 1_455 S
N1204 C1205 1.351 . S
C1205 C1199 1.428 . S
C1205 N1204 1.351 . S
C1205 C1206 1.434 . S
C1206 C1197 1.429 . S
C1206 N1203 1.350 1_455 S
C1206 C1205 1.434 . S
C1207 C1208 1.369 . S
C1207 C1209 1.419 . S
C1207 H1211 0.930 . S
C1208 C1207 1.369 . S
C1208 C1217 1.429 . S
C1209 C1207 1.419 . S
C1209 C1210 1.363 . S
C1209 H1212 0.929 . S
C1210 C1209 1.363 . S
C1210 C1216 1.428 . S
H1211 C1207 0.930 . S
H1212 C1209 0.929 . S
S1213 N1214 1.613 . S
S1213 N1215 1.610 . S
N1214 S1213 1.613 . S
N1214 C1217 1.350 . S
N1215 S1213 1.610 . S
N1215 C1216 1.351 . S
C1216 C1210 1.428 . S
C1216 N1215 1.351 . S
C1216 C1217 1.434 . S
C1217 C1208 1.429 . S
C1217 N1214 1.350 . S
C1217 C1216 1.434 . S
C1218 C1219 1.369 . S
C1218 C1220 1.419 . S
C1218 H1222 0.930 . S
C1219 C1218 1.369 . S
C1219 C1228 1.429 . S
C1220 C1218 1.419 . S
C1220 C1221 1.363 . S
C1220 H1223 0.929 . S
C1221 C1220 1.363 . S
C1221 C1227 1.428 . S
H1222 C1218 0.930 . S
H1223 C1220 0.929 . S
S1224 N1225 1.613 1_455 S
S1224 N1226 1.610 . S
N1225 S1224 1.613 1_655 S
N1225 C1228 1.350 . S
N1226 S1224 1.610 . S
N1226 C1227 1.351 1_455 S
C1227 C1221 1.428 . S
C1227 N1226 1.351 1_655 S
C1227 C1228 1.434 . S
C1228 C1219 1.429 . S
C1228 N1225 1.350 . S
C1228 C1227 1.434 . S
C1229 C1230 1.369 . S
C1229 C1231 1.419 . S
C1229 H1233 0.930 . S
C1230 C1229 1.369 . S
C1230 C1239 1.429 . S
C1231 C1229 1.419 . S
C1231 C1232 1.363 . S
C1231 H1234 0.929 . S
C1232 C1231 1.363 . S
C1232 C1238 1.428 . S
H1233 C1229 0.930 . S
H1234 C1231 0.929 . S
S1235 N1236 1.613 . S
S1235 N1237 1.610 . S
N1236 S1235 1.613 . S
N1236 C1239 1.350 . S
N1237 S1235 1.610 . S
N1237 C1238 1.351 . S
C1238 C1232 1.428 . S
C1238 N1237 1.351 . S
C1238 C1239 1.434 . S
C1239 C1230 1.429 . S
C1239 N1236 1.350 . S
C1239 C1238 1.434 . S
C1240 C1241 1.369 . S
C1240 C1242 1.419 . S
C1240 H1244 0.930 . S
C1241 C1240 1.369 . S
C1241 C1250 1.429 . S
C1242 C1240 1.419 . S
C1242 C1243 1.363 . S
C1242 H1245 0.929 . S
C1243 C1242 1.363 . S
C1243 C1249 1.428 . S
H1244 C1240 0.930 . S
H1245 C1242 0.929 . S
S1246 N1247 1.613 . S
S1246 N1248 1.610 . S
N1247 S1246 1.613 . S
N1247 C1250 1.350 . S
N1248 S1246 1.610 . S
N1248 C1249 1.351 . S
C1249 C1243 1.428 . S
C1249 N1248 1.351 . S
C1249 C1250 1.434 . S
C1250 C1241 1.429 . S
C1250 N1247 1.350 . S
C1250 C1249 1.434 . S
C1251 C1252 1.369 . S
C1251 C1253 1.419 . S
C1251 H1255 0.930 . S
C1252 C1251 1.369 . S
C1252 C1261 1.429 . S
C1253 C1251 1.419 . S
C1253 C1254 1.363 . S
C1253 H1256 0.929 . S
C1254 C1253 1.363 . S
C1254 C1260 1.428 . S
H1255 C1251 0.930 . S
H1256 C1253 0.929 . S
S1257 N1258 1.613 . S
S1257 N1259 1.610 . S
N1258 S1257 1.613 . S
N1258 C1261 1.350 . S
N1259 S1257 1.610 . S
N1259 C1260 1.351 . S
C1260 C1254 1.428 . S
C1260 N1259 1.351 . S
C1260 C1261 1.434 . S
C1261 C1252 1.429 . S
C1261 N1258 1.350 . S
C1261 C1260 1.434 . S
C1262 C1263 1.369 . S
C1262 C1264 1.419 . S
C1262 H1266 0.930 . S
C1263 C1262 1.369 . S
C1263 C1272 1.429 . S
C1264 C1262 1.419 . S
C1264 C1265 1.363 . S
C1264 H1267 0.929 . S
C1265 C1264 1.363 . S
C1265 C1271 1.428 . S
H1266 C1262 0.930 . S
H1267 C1264 0.929 . S
S1268 N1269 1.613 . S
S1268 N1270 1.610 . S
N1269 S1268 1.613 . S
N1269 C1272 1.350 . S
N1270 S1268 1.610 . S
N1270 C1271 1.351 . S
C1271 C1265 1.428 . S
C1271 N1270 1.351 . S
C1271 C1272 1.434 . S
C1272 C1263 1.429 . S
C1272 N1269 1.350 . S
C1272 C1271 1.434 . S
C1273 C1274 1.369 . S
C1273 C1275 1.419 . S
C1273 H1277 0.930 . S
C1274 C1273 1.369 . S
C1274 C1283 1.429 . S
C1275 C1273 1.419 . S
C1275 C1276 1.363 . S
C1275 H1278 0.929 . S
C1276 C1275 1.363 . S
C1276 C1282 1.428 . S
H1277 C1273 0.930 . S
H1278 C1275 0.929 . S
S1279 N1280 1.613 . S
S1279 N1281 1.610 . S
N1280 S1279 1.613 . S
N1280 C1283 1.350 . S
N1281 S1279 1.610 . S
N1281 C1282 1.351 . S
C1282 C1276 1.428 . S
C1282 N1281 1.351 . S
C1282 C1283 1.434 . S
C1283 C1274 1.429 . S
C1283 N1280 1.350 . S
C1283 C1282 1.434 . S
C1284 C1285 1.369 . S
C1284 C1286 1.419 . S
C1284 H1288 0.930 . S
C1285 C1284 1.369 . S
C1285 C1294 1.429 . S
C1286 C1284 1.419 . S
C1286 C1287 1.363 . S
C1286 H1289 0.929 . S
C1287 C1286 1.363 . S
C1287 C1293 1.428 . S
H1288 C1284 0.930 . S
H1289 C1286 0.929 . S
S1290 N1291 1.613 . S
S1290 N1292 1.610 . S
N1291 S1290 1.613 . S
N1291 C1294 1.350 . S
N1292 S1290 1.610 . S
N1292 C1293 1.351 . S
C1293 C1287 1.428 . S
C1293 N1292 1.351 . S
C1293 C1294 1.434 . S
C1294 C1285 1.429 . S
C1294 N1291 1.350 . S
C1294 C1293 1.434 . S
C1295 C1296 1.369 . S
C1295 C1297 1.419 . S
C1295 H1299 0.930 . S
C1296 C1295 1.369 . S
C1296 C1305 1.429 . S
C1297 C1295 1.419 . S
C1297 C1298 1.363 . S
C1297 H1300 0.929 . S
C1298 C1297 1.363 . S
C1298 C1304 1.428 . S
H1299 C1295 0.930 . S
H1300 C1297 0.929 . S
S1301 N1302 1.613 . S
S1301 N1303 1.610 . S
N1302 S1301 1.613 . S
N1302 C1305 1.350 . S
N1303 S1301 1.610 . S
N1303 C1304 1.351 . S
C1304 C1298 1.428 . S
C1304 N1303 1.351 . S
C1304 C1305 1.434 . S
C1305 C1296 1.429 . S
C1305 N1302 1.350 . S
C1305 C1304 1.434 . S
C1306 C1307 1.369 . S
C1306 C1308 1.419 . S
C1306 H1310 0.930 . S
C1307 C1306 1.369 . S
C1307 C1316 1.429 . S
C1308 C1306 1.419 . S
C1308 C1309 1.363 . S
C1308 H1311 0.929 . S
C1309 C1308 1.363 . S
C1309 C1315 1.428 . S
H1310 C1306 0.930 . S
H1311 C1308 0.929 . S
S1312 N1313 1.613 . S
S1312 N1314 1.610 . S
N1313 S1312 1.613 . S
N1313 C1316 1.350 . S
N1314 S1312 1.610 . S
N1314 C1315 1.351 . S
C1315 C1309 1.428 . S
C1315 N1314 1.351 . S
C1315 C1316 1.434 . S
C1316 C1307 1.429 . S
C1316 N1313 1.350 . S
C1316 C1315 1.434 . S
C1317 C1318 1.369 . S
C1317 C1319 1.419 . S
C1317 H1321 0.930 . S
C1318 C1317 1.369 . S
C1318 C1327 1.429 . S
C1319 C1317 1.419 . S
C1319 C1320 1.363 . S
C1319 H1322 0.929 . S
C1320 C1319 1.363 . S
C1320 C1326 1.428 . S
H1321 C1317 0.930 . S
H1322 C1319 0.929 . S
S1323 N1324 1.613 . S
S1323 N1325 1.610 . S
N1324 S1323 1.613 . S
N1324 C1327 1.350 . S
N1325 S1323 1.610 . S
N1325 C1326 1.351 . S
C1326 C1320 1.428 . S
C1326 N1325 1.351 . S
C1326 C1327 1.434 . S
C1327 C1318 1.429 . S
C1327 N1324 1.350 . S
C1327 C1326 1.434 . S
C1328 C1329 1.369 . S
C1328 C1330 1.419 1_565 S
C1328 H1332 0.930 . S
C1329 C1328 1.369 . S
C1329 C1338 1.429 . S
C1330 C1328 1.419 1_545 S
C1330 C1331 1.363 . S
C1330 H1333 0.929 . S
C1331 C1330 1.363 . S
C1331 C1337 1.428 . S
H1332 C1328 0.930 . S
H1333 C1330 0.929 . S
S1334 N1335 1.613 1_545 S
S1334 N1336 1.610 . S
N1335 S1334 1.613 1_565 S
N1335 C1338 1.350 . S
N1336 S1334 1.610 . S
N1336 C1337 1.351 . S
C1337 C1331 1.428 . S
C1337 N1336 1.351 . S
C1337 C1338 1.434 1_545 S
C1338 C1329 1.429 . S
C1338 N1335 1.350 . S
C1338 C1337 1.434 1_565 S
C1339 C1340 1.369 1_455 S
C1339 C1341 1.419 . S
C1339 H1343 0.930 . S
C1340 C1339 1.369 1_655 S
C1340 C1349 1.429 . S
C1341 C1339 1.419 . S
C1341 C1342 1.363 . S
C1341 H1344 0.929 . S
C1342 C1341 1.363 . S
C1342 C1348 1.428 1_455 S
H1343 C1339 0.930 . S
H1344 C1341 0.929 . S
S1345 N1346 1.613 . S
S1345 N1347 1.610 . S
N1346 S1345 1.613 . S
N1346 C1349 1.350 . S
N1347 S1345 1.610 . S
N1347 C1348 1.351 . S
C1348 C1342 1.428 1_655 S
C1348 N1347 1.351 . S
C1348 C1349 1.434 . S
C1349 C1340 1.429 . S
C1349 N1346 1.350 . S
C1349 C1348 1.434 . S
C1350 C1351 1.369 . S
C1350 C1352 1.419 . S
C1350 H1354 0.930 . S
C1351 C1350 1.369 . S
C1351 C1360 1.429 1_556 S
C1352 C1350 1.419 . S
C1352 C1353 1.363 1_556 S
C1352 H1355 0.929 . S
C1353 C1352 1.363 1_554 S
C1353 C1359 1.428 . S
H1354 C1350 0.930 . S
H1355 C1352 0.929 . S
S1356 N1357 1.613 . S
S1356 N1358 1.610 . S
N1357 S1356 1.613 . S
N1357 C1360 1.350 . S
N1358 S1356 1.610 . S
N1358 C1359 1.351 . S
C1359 C1353 1.428 . S
C1359 N1358 1.351 . S
C1359 C1360 1.434 . S
C1360 C1351 1.429 1_554 S
C1360 N1357 1.350 . S
C1360 C1359 1.434 . S
C1361 C1362 1.369 1_554 S
C1361 C1363 1.419 1_455 S
C1361 H1365 0.930 . S
C1362 C1361 1.369 1_556 S
C1362 C1371 1.429 1_455 S
C1363 C1361 1.419 1_655 S
C1363 C1364 1.363 1_545 S
C1363 H1366 0.929 . S
C1364 C1363 1.363 1_565 S
C1364 C1370 1.428 1_554 S
H1365 C1361 0.930 . S
H1366 C1363 0.929 . S
S1367 N1368 1.613 1_565 S
S1367 N1369 1.610 . S
N1368 S1367 1.613 1_545 S
N1368 C1371 1.350 . S
N1369 S1367 1.610 . S
N1369 C1370 1.351 . S
C1370 C1364 1.428 1_556 S
C1370 N1369 1.351 . S
C1370 C1371 1.434 1_565 S
C1371 C1362 1.429 1_655 S
C1371 N1368 1.350 . S
C1371 C1370 1.434 1_545 S
C1372 C1373 1.369 . S
C1372 C1374 1.419 1_545 S
C1372 H1376 0.930 . S
C1373 C1372 1.369 . S
C1373 C1382 1.429 . S
C1374 C1372 1.419 1_565 S
C1374 C1375 1.363 . S
C1374 H1377 0.929 . S
C1375 C1374 1.363 . S
C1375 C1381 1.428 1_565 S
H1376 C1372 0.930 . S
H1377 C1374 0.929 . S
S1378 N1379 1.613 . S
S1378 N1380 1.610 . S
N1379 S1378 1.613 . S
N1379 C1382 1.350 . S
N1380 S1378 1.610 . S
N1380 C1381 1.351 . S
C1381 C1375 1.428 1_545 S
C1381 N1380 1.351 . S
C1381 C1382 1.434 . S
C1382 C1373 1.429 . S
C1382 N1379 1.350 . S
C1382 C1381 1.434 . S
C1383 C1384 1.369 . S
C1383 C1385 1.419 . S
C1383 H1387 0.930 . S
C1384 C1383 1.369 . S
C1384 C1393 1.429 1_455 S
C1385 C1383 1.419 . S
C1385 C1386 1.363 1_455 S
C1385 H1388 0.929 . S
C1386 C1385 1.363 1_655 S
C1386 C1392 1.428 . S
H1387 C1383 0.930 . S
H1388 C1385 0.929 . S
S1389 N1390 1.613 . S
S1389 N1391 1.610 . S
N1390 S1389 1.613 . S
N1390 C1393 1.350 . S
N1391 S1389 1.610 . S
N1391 C1392 1.351 . S
C1392 C1386 1.428 . S
C1392 N1391 1.351 . S
C1392 C1393 1.434 . S
C1393 C1384 1.429 1_655 S
C1393 N1390 1.350 . S
C1393 C1392 1.434 . S
C1394 C1395 1.369 1_554 S
C1394 C1396 1.419 . S
C1394 H1398 0.930 . S
C1395 C1394 1.369 1_556 S
C1395 C1404 1.429 . S
C1396 C1394 1.419 . S
C1396 C1397 1.363 . S
C1396 H1399 0.929 . S
C1397 C1396 1.363 . S
C1397 C1403 1.428 1_554 S
H1398 C1394 0.930 . S
H1399 C1396 0.929 . S
S1400 N1401 1.613 . S
S1400 N1402 1.610 . S
N1401 S1400 1.613 . S
N1401 C1404 1.350 . S
N1402 S1400 1.610 . S
N1402 C1403 1.351 . S
C1403 C1397 1.428 1_556 S
C1403 N1402 1.351 . S
C1403 C1404 1.434 . S
C1404 C1395 1.429 . S
C1404 N1401 1.350 . S
C1404 C1403 1.434 . S
C1405 C1406 1.369 . S
C1405 C1407 1.419 . S
C1405 H1409 0.930 . S
C1406 C1405 1.369 . S
C1406 C1415 1.429 . S
C1407 C1405 1.419 . S
C1407 C1408 1.363 . S
C1407 H1410 0.929 . S
C1408 C1407 1.363 . S
C1408 C1414 1.428 . S
H1409 C1405 0.930 . S
H1410 C1407 0.929 . S
S1411 N1412 1.613 . S
S1411 N1413 1.610 . S
N1412 S1411 1.613 . S
N1412 C1415 1.350 . S
N1413 S1411 1.610 . S
N1413 C1414 1.351 . S
C1414 C1408 1.428 . S
C1414 N1413 1.351 . S
C1414 C1415 1.434 . S
C1415 C1406 1.429 . S
C1415 N1412 1.350 . S
C1415 C1414 1.434 . S
C1416 C1417 1.369 . S
C1416 C1418 1.419 . S
C1416 H1420 0.930 . S
C1417 C1416 1.369 . S
C1417 C1426 1.429 . S
C1418 C1416 1.419 . S
C1418 C1419 1.363 . S
C1418 H1421 0.929 . S
C1419 C1418 1.363 . S
C1419 C1425 1.428 . S
H1420 C1416 0.930 . S
H1421 C1418 0.929 . S
S1422 N1423 1.613 . S
S1422 N1424 1.610 . S
N1423 S1422 1.613 . S
N1423 C1426 1.350 . S
N1424 S1422 1.610 . S
N1424 C1425 1.351 . S
C1425 C1419 1.428 . S
C1425 N1424 1.351 . S
C1425 C1426 1.434 . S
C1426 C1417 1.429 . S
C1426 N1423 1.350 . S
C1426 C1425 1.434 . S
C1427 C1428 1.369 . S
C1427 C1429 1.419 . S
C1427 H1431 0.930 . S
C1428 C1427 1.369 . S
C1428 C1437 1.429 1_655 S
C1429 C1427 1.419 . S
C1429 C1430 1.363 1_655 S
C1429 H1432 0.929 . S
C1430 C1429 1.363 1_455 S
C1430 C1436 1.428 . S
H1431 C1427 0.930 . S
H1432 C1429 0.929 . S
S1433 N1434 1.613 . S
S1433 N1435 1.610 . S
N1434 S1433 1.613 . S
N1434 C1437 1.350 . S
N1435 S1433 1.610 . S
N1435 C1436 1.351 . S
C1436 C1430 1.428 . S
C1436 N1435 1.351 . S
C1436 C1437 1.434 . S
C1437 C1428 1.429 1_455 S
C1437 N1434 1.350 . S
C1437 C1436 1.434 . S
C1438 C1439 1.369 . S
C1438 C1440 1.419 . S
C1438 H1442 0.930 . S
C1439 C1438 1.369 . S
C1439 C1448 1.429 . S
C1440 C1438 1.419 . S
C1440 C1441 1.363 . S
C1440 H1443 0.929 . S
C1441 C1440 1.363 . S
C1441 C1447 1.428 . S
H1442 C1438 0.930 . S
H1443 C1440 0.929 . S
S1444 N1445 1.613 . S
S1444 N1446 1.610 . S
N1445 S1444 1.613 . S
N1445 C1448 1.350 . S
N1446 S1444 1.610 . S
N1446 C1447 1.351 . S
C1447 C1441 1.428 . S
C1447 N1446 1.351 . S
C1447 C1448 1.434 . S
C1448 C1439 1.429 . S
C1448 N1445 1.350 . S
C1448 C1447 1.434 . S
C1449 C1450 1.369 . S
C1449 C1451 1.419 . S
C1449 H1453 0.930 . S
C1450 C1449 1.369 . S
C1450 C1459 1.429 . S
C1451 C1449 1.419 . S
C1451 C1452 1.363 . S
C1451 H1454 0.929 . S
C1452 C1451 1.363 . S
C1452 C1458 1.428 . S
H1453 C1449 0.930 . S
H1454 C1451 0.929 . S
S1455 N1456 1.613 . S
S1455 N1457 1.610 . S
N1456 S1455 1.613 . S
N1456 C1459 1.350 . S
N1457 S1455 1.610 . S
N1457 C1458 1.351 . S
C1458 C1452 1.428 . S
C1458 N1457 1.351 . S
C1458 C1459 1.434 . S
C1459 C1450 1.429 . S
C1459 N1456 1.350 . S
C1459 C1458 1.434 . S
C1460 C1461 1.369 . S
C1460 C1462 1.419 . S
C1460 H1464 0.930 . S
C1461 C1460 1.369 . S
C1461 C1470 1.429 . S
C1462 C1460 1.419 . S
C1462 C1463 1.363 . S
C1462 H1465 0.929 . S
C1463 C1462 1.363 . S
C1463 C1469 1.428 . S
H1464 C1460 0.930 . S
H1465 C1462 0.929 . S
S1466 N1467 1.613 . S
S1466 N1468 1.610 . S
N1467 S1466 1.613 . S
N1467 C1470 1.350 . S
N1468 S1466 1.610 . S
N1468 C1469 1.351 . S
C1469 C1463 1.428 . S
C1469 N1468 1.351 . S
C1469 C1470 1.434 . S
C1470 C1461 1.429 . S
C1470 N1467 1.350 . S
C1470 C1469 1.434 . S
C1471 C1472 1.369 . S
C1471 C1473 1.419 1_545 S
C1471 H1475 0.930 . S
C1472 C1471 1.369 . S
C1472 C1481 1.429 . S
C1473 C1471 1.419 1_565 S
C1473 C1474 1.363 . S
C1473 H1476 0.929 . S
C1474 C1473 1.363 . S
C1474 C1480 1.428 1_565 S
H1475 C1471 0.930 . S
H1476 C1473 0.929 . S
S1477 N1478 1.613 . S
S1477 N1479 1.610 . S
N1478 S1477 1.613 . S
N1478 C1481 1.350 . S
N1479 S1477 1.610 . S
N1479 C1480 1.351 . S
C1480 C1474 1.428 1_545 S
C1480 N1479 1.351 . S
C1480 C1481 1.434 . S
C1481 C1472 1.429 . S
C1481 N1478 1.350 . S
C1481 C1480 1.434 . S
C1482 C1483 1.369 . S
C1482 C1484 1.419 . S
C1482 H1486 0.930 . S
C1483 C1482 1.369 . S
C1483 C1492 1.429 . S
C1484 C1482 1.419 . S
C1484 C1485 1.363 . S
C1484 H1487 0.929 . S
C1485 C1484 1.363 . S
C1485 C1491 1.428 . S
H1486 C1482 0.930 . S
H1487 C1484 0.929 . S
S1488 N1489 1.613 . S
S1488 N1490 1.610 . S
N1489 S1488 1.613 . S
N1489 C1492 1.350 . S
N1490 S1488 1.610 . S
N1490 C1491 1.351 . S
C1491 C1485 1.428 . S
C1491 N1490 1.351 . S
C1491 C1492 1.434 . S
C1492 C1483 1.429 . S
C1492 N1489 1.350 . S
C1492 C1491 1.434 . S
C1493 C1494 1.369 . S
C1493 C1495 1.419 1_554 S
C1493 H1497 0.930 . S
C1494 C1493 1.369 . S
C1494 C1503 1.429 . S
C1495 C1493 1.419 1_556 S
C1495 C1496 1.363 . S
C1495 H1498 0.929 . S
C1496 C1495 1.363 . S
C1496 C1502 1.428 . S
H1497 C1493 0.930 . S
H1498 C1495 0.929 . S
S1499 N1500 1.613 1_556 S
S1499 N1501 1.610 . S
N1500 S1499 1.613 1_554 S
N1500 C1503 1.350 . S
N1501 S1499 1.610 . S
N1501 C1502 1.351 . S
C1502 C1496 1.428 . S
C1502 N1501 1.351 . S
C1502 C1503 1.434 1_556 S
C1503 C1494 1.429 . S
C1503 N1500 1.350 . S
C1503 C1502 1.434 1_554 S
C1504 C1505 1.369 . S
C1504 C1506 1.419 . S
C1504 H1508 0.930 . S
C1505 C1504 1.369 . S
C1505 C1514 1.429 . S
C1506 C1504 1.419 . S
C1506 C1507 1.363 . S
C1506 H1509 0.929 . S
C1507 C1506 1.363 . S
C1507 C1513 1.428 . S
H1508 C1504 0.930 . S
H1509 C1506 0.929 . S
S1510 N1511 1.613 1_655 S
S1510 N1512 1.610 1_655 S
N1511 S1510 1.613 1_455 S
N1511 C1514 1.350 . S
N1512 S1510 1.610 1_455 S
N1512 C1513 1.351 . S
C1513 C1507 1.428 . S
C1513 N1512 1.351 . S
C1513 C1514 1.434 . S
C1514 C1505 1.429 . S
C1514 N1511 1.350 . S
C1514 C1513 1.434 . S
C1515 C1516 1.369 . S
C1515 C1517 1.419 . S
C1515 H1519 0.930 . S
C1516 C1515 1.369 . S
C1516 C1525 1.429 1_556 S
C1517 C1515 1.419 . S
C1517 C1518 1.363 . S
C1517 H1520 0.929 . S
C1518 C1517 1.363 . S
C1518 C1524 1.428 1_556 S
H1519 C1515 0.930 . S
H1520 C1517 0.929 . S
S1521 N1522 1.613 . S
S1521 N1523 1.610 . S
N1522 S1521 1.613 . S
N1522 C1525 1.350 . S
N1523 S1521 1.610 . S
N1523 C1524 1.351 . S
C1524 C1518 1.428 1_554 S
C1524 N1523 1.351 . S
C1524 C1525 1.434 . S
C1525 C1516 1.429 1_554 S
C1525 N1522 1.350 . S
C1525 C1524 1.434 . S
C1526 C1527 1.369 . S
C1526 C1528 1.419 . S
C1526 H1530 0.930 . S
C1527 C1526 1.369 . S
C1527 C1536 1.429 . S
C1528 C1526 1.419 . S
C1528 C1529 1.363 . S
C1528 H1531 0.929 . S
C1529 C1528 1.363 . S
C1529 C1535 1.428 . S
H1530 C1526 0.930 . S
H1531 C1528 0.929 . S
S1532 N1533 1.613 . S
S1532 N1534 1.610 . S
N1533 S1532 1.613 . S
N1533 C1536 1.350 . S
N1534 S1532 1.610 . S
N1534 C1535 1.351 . S
C1535 C1529 1.428 . S
C1535 N1534 1.351 . S
C1535 C1536 1.434 . S
C1536 C1527 1.429 . S
C1536 N1533 1.350 . S
C1536 C1535 1.434 . S
C1537 C1538 1.369 . S
C1537 C1539 1.419 . S
C1537 H1541 0.930 . S
C1538 C1537 1.369 . S
C1538 C1547 1.429 1_554 S
C1539 C1537 1.419 . S
C1539 C1540 1.363 . S
C1539 H1542 0.929 . S
C1540 C1539 1.363 . S
C1540 C1546 1.428 1_554 S
H1541 C1537 0.930 . S
H1542 C1539 0.929 . S
S1543 N1544 1.613 . S
S1543 N1545 1.610 . S
N1544 S1543 1.613 . S
N1544 C1547 1.350 . S
N1545 S1543 1.610 . S
N1545 C1546 1.351 . S
C1546 C1540 1.428 1_556 S
C1546 N1545 1.351 . S
C1546 C1547 1.434 . S
C1547 C1538 1.429 1_556 S
C1547 N1544 1.350 . S
C1547 C1546 1.434 . S
C1548 C1549 1.369 . S
C1548 C1550 1.419 . S
C1548 H1552 0.930 . S
C1549 C1548 1.369 . S
C1549 C1558 1.429 . S
C1550 C1548 1.419 . S
C1550 C1551 1.363 . S
C1550 H1553 0.929 . S
C1551 C1550 1.363 . S
C1551 C1557 1.428 . S
H1552 C1548 0.930 . S
H1553 C1550 0.929 . S
S1554 N1555 1.613 1_655 S
S1554 N1556 1.613 . S
N1555 S1554 1.613 1_455 S
N1555 C1558 1.350 . S
N1556 S1554 1.613 . S
N1556 C1557 1.346 1_655 S
C1557 C1551 1.428 . S
C1557 N1556 1.346 1_455 S
C1557 C1558 1.434 . S
C1558 C1549 1.429 . S
C1558 N1555 1.350 . S
C1558 C1557 1.434 . S
C1559 C1560 1.369 . S
C1559 C1561 1.419 . S
C1559 H1563 0.930 . S
C1560 C1559 1.369 . S
C1560 C1569 1.429 . S
C1561 C1559 1.419 . S
C1561 C1562 1.363 . S
C1561 H1564 0.929 . S
C1562 C1561 1.363 . S
C1562 C1568 1.428 . S
H1563 C1559 0.930 . S
H1564 C1561 0.929 . S
S1565 N1566 1.613 . S
S1565 N1567 1.610 . S
N1566 S1565 1.613 . S
N1566 C1569 1.350 . S
N1567 S1565 1.610 . S
N1567 C1568 1.351 . S
C1568 C1562 1.428 . S
C1568 N1567 1.351 . S
C1568 C1569 1.434 . S
C1569 C1560 1.429 . S
C1569 N1566 1.350 . S
C1569 C1568 1.434 . S
C1570 C1571 1.369 . S
C1570 C1572 1.419 . S
C1570 H1574 0.930 . S
C1571 C1570 1.369 . S
C1571 C1580 1.429 . S
C1572 C1570 1.419 . S
C1572 C1573 1.363 . S
C1572 H1575 0.929 . S
C1573 C1572 1.363 . S
C1573 C1579 1.428 . S
H1574 C1570 0.930 . S
H1575 C1572 0.929 . S
S1576 N1577 1.613 . S
S1576 N1578 1.610 1_455 S
N1577 S1576 1.613 . S
N1577 C1580 1.350 1_455 S
N1578 S1576 1.610 1_655 S
N1578 C1579 1.351 . S
C1579 C1573 1.428 . S
C1579 N1578 1.351 . S
C1579 C1580 1.434 . S
C1580 C1571 1.429 . S
C1580 N1577 1.350 1_655 S
C1580 C1579 1.434 . S
C1581 C1582 1.369 . S
C1581 C1583 1.419 . S
C1581 H1585 0.930 . S
C1582 C1581 1.369 . S
C1582 C1591 1.429 . S
C1583 C1581 1.419 . S
C1583 C1584 1.363 . S
C1583 H1586 0.929 . S
C1584 C1583 1.363 . S
C1584 C1590 1.428 . S
H1585 C1581 0.930 . S
H1586 C1583 0.929 . S
S1587 N1588 1.613 1_455 S
S1587 N1589 1.610 . S
N1588 S1587 1.613 1_655 S
N1588 C1591 1.350 . S
N1589 S1587 1.610 . S
N1589 C1590 1.351 1_455 S
C1590 C1584 1.428 . S
C1590 N1589 1.351 1_655 S
C1590 C1591 1.434 . S
C1591 C1582 1.429 . S
C1591 N1588 1.350 . S
C1591 C1590 1.434 . S
C1592 C1593 1.369 . S
C1592 C1594 1.419 . S
C1592 H1596 0.930 . S
C1593 C1592 1.369 . S
C1593 C1602 1.429 . S
C1594 C1592 1.419 . S
C1594 C1595 1.363 . S
C1594 H1597 0.929 . S
C1595 C1594 1.363 . S
C1595 C1601 1.428 . S
H1596 C1592 0.930 . S
H1597 C1594 0.929 . S
S1598 N1599 1.613 . S
S1598 N1600 1.610 . S
N1599 S1598 1.613 . S
N1599 C1602 1.350 . S
N1600 S1598 1.610 . S
N1600 C1601 1.351 . S
C1601 C1595 1.428 . S
C1601 N1600 1.351 . S
C1601 C1602 1.434 . S
C1602 C1593 1.429 . S
C1602 N1599 1.350 . S
C1602 C1601 1.434 . S
C1603 C1604 1.369 . S
C1603 C1605 1.419 . S
C1603 H1607 0.930 . S
C1604 C1603 1.369 . S
C1604 C1613 1.429 . S
C1605 C1603 1.419 . S
C1605 C1606 1.363 . S
C1605 H1608 0.929 . S
C1606 C1605 1.363 . S
C1606 C1612 1.428 . S
H1607 C1603 0.930 . S
H1608 C1605 0.929 . S
S1609 N1610 1.613 . S
S1609 N1611 1.610 . S
N1610 S1609 1.613 . S
N1610 C1613 1.350 . S
N1611 S1609 1.610 . S
N1611 C1612 1.351 . S
C1612 C1606 1.428 . S
C1612 N1611 1.351 . S
C1612 C1613 1.434 . S
C1613 C1604 1.429 . S
C1613 N1610 1.350 . S
C1613 C1612 1.434 . S
C1614 C1615 1.369 . S
C1614 C1616 1.419 . S
C1614 H1618 0.930 . S
C1615 C1614 1.369 . S
C1615 C1624 1.429 . S
C1616 C1614 1.419 . S
C1616 C1617 1.363 . S
C1616 H1619 0.929 . S
C1617 C1616 1.363 . S
C1617 C1623 1.428 . S
H1618 C1614 0.930 . S
H1619 C1616 0.929 . S
S1620 N1621 1.613 . S
S1620 N1622 1.610 . S
N1621 S1620 1.613 . S
N1621 C1624 1.350 . S
N1622 S1620 1.610 . S
N1622 C1623 1.351 . S
C1623 C1617 1.428 . S
C1623 N1622 1.351 . S
C1623 C1624 1.434 . S
C1624 C1615 1.429 . S
C1624 N1621 1.350 . S
C1624 C1623 1.434 . S
C1625 C1626 1.369 . S
C1625 C1627 1.419 . S
C1625 H1629 0.930 . S
C1626 C1625 1.369 . S
C1626 C1635 1.429 . S
C1627 C1625 1.419 . S
C1627 C1628 1.363 . S
C1627 H1630 0.929 . S
C1628 C1627 1.363 . S
C1628 C1634 1.428 . S
H1629 C1625 0.930 . S
H1630 C1627 0.929 . S
S1631 N1632 1.613 . S
S1631 N1633 1.610 . S
N1632 S1631 1.613 . S
N1632 C1635 1.350 . S
N1633 S1631 1.610 . S
N1633 C1634 1.351 . S
C1634 C1628 1.428 . S
C1634 N1633 1.351 . S
C1634 C1635 1.434 . S
C1635 C1626 1.429 . S
C1635 N1632 1.350 . S
C1635 C1634 1.434 . S
C1636 C1637 1.369 . S
C1636 C1638 1.419 . S
C1636 H1640 0.930 . S
C1637 C1636 1.369 . S
C1637 C1646 1.429 . S
C1638 C1636 1.419 . S
C1638 C1639 1.363 . S
C1638 H1641 0.929 . S
C1639 C1638 1.363 . S
C1639 C1645 1.428 . S
H1640 C1636 0.930 . S
H1641 C1638 0.929 . S
S1642 N1643 1.613 . S
S1642 N1644 1.610 . S
N1643 S1642 1.613 . S
N1643 C1646 1.350 . S
N1644 S1642 1.610 . S
N1644 C1645 1.351 . S
C1645 C1639 1.428 . S
C1645 N1644 1.351 . S
C1645 C1646 1.434 . S
C1646 C1637 1.429 . S
C1646 N1643 1.350 . S
C1646 C1645 1.434 . S
C1647 C1648 1.369 1_554 S
C1647 C1649 1.419 . S
C1647 H1651 0.930 . S
C1648 C1647 1.369 1_556 S
C1648 C1657 1.429 . S
C1649 C1647 1.419 . S
C1649 C1650 1.363 1_554 S
C1649 H1652 0.929 . S
C1650 C1649 1.363 1_556 S
C1650 C1656 1.428 . S
H1651 C1647 0.930 . S
H1652 C1649 0.929 . S
S1653 N1654 1.613 . S
S1653 N1655 1.610 . S
N1654 S1653 1.613 . S
N1654 C1657 1.350 . S
N1655 S1653 1.610 . S
N1655 C1656 1.351 . S
C1656 C1650 1.428 . S
C1656 N1655 1.351 . S
C1656 C1657 1.434 . S
C1657 C1648 1.429 . S
C1657 N1654 1.350 . S
C1657 C1656 1.434 . S
C1658 C1659 1.369 . S
C1658 C1660 1.419 . S
C1658 H1662 0.930 . S
C1659 C1658 1.369 . S
C1659 C1668 1.429 . S
C1660 C1658 1.419 . S
C1660 C1661 1.363 . S
C1660 H1663 0.929 . S
C1661 C1660 1.363 . S
C1661 C1667 1.428 . S
H1662 C1658 0.930 . S
H1663 C1660 0.929 . S
S1664 N1665 1.613 . S
S1664 N1666 1.610 . S
N1665 S1664 1.613 . S
N1665 C1668 1.350 . S
N1666 S1664 1.610 . S
N1666 C1667 1.351 . S
C1667 C1661 1.428 . S
C1667 N1666 1.351 . S
C1667 C1668 1.434 . S
C1668 C1659 1.429 . S
C1668 N1665 1.350 . S
C1668 C1667 1.434 . S
C1669 C1670 1.369 . S
C1669 C1671 1.419 . S
C1669 H1673 0.930 . S
C1670 C1669 1.369 . S
C1670 C1679 1.429 . S
C1671 C1669 1.419 . S
C1671 C1672 1.363 . S
C1671 H1674 0.929 . S
C1672 C1671 1.363 . S
C1672 C1678 1.428 . S
H1673 C1669 0.930 . S
H1674 C1671 0.929 . S
S1675 N1676 1.606 1_556 S
S1675 N1677 1.607 1_556 S
N1676 S1675 1.606 1_554 S
N1676 C1679 1.360 . S
N1677 S1675 1.607 1_554 S
N1677 C1678 1.356 . S
C1678 C1672 1.428 . S
C1678 N1677 1.356 . S
C1678 C1679 1.434 . S
C1679 C1670 1.429 . S
C1679 N1676 1.360 . S
C1679 C1678 1.434 . S
C1680 C1681 1.369 . S
C1680 C1682 1.419 . S
C1680 H1684 0.930 . S
C1681 C1680 1.369 . S
C1681 C1690 1.429 . S
C1682 C1680 1.419 . S
C1682 C1683 1.363 . S
C1682 H1685 0.929 . S
C1683 C1682 1.363 . S
C1683 C1689 1.428 . S
H1684 C1680 0.930 . S
H1685 C1682 0.929 . S
S1686 N1687 1.613 . S
S1686 N1688 1.610 . S
N1687 S1686 1.613 . S
N1687 C1690 1.350 . S
N1688 S1686 1.610 . S
N1688 C1689 1.351 . S
C1689 C1683 1.428 . S
C1689 N1688 1.351 . S
C1689 C1690 1.434 . S
C1690 C1681 1.429 . S
C1690 N1687 1.350 . S
C1690 C1689 1.434 . S
C1691 C1692 1.369 . S
C1691 C1693 1.419 . S
C1691 H1695 0.930 . S
C1692 C1691 1.369 . S
C1692 C1701 1.429 . S
C1693 C1691 1.419 . S
C1693 C1694 1.363 . S
C1693 H1696 0.929 . S
C1694 C1693 1.363 . S
C1694 C1700 1.428 . S
H1695 C1691 0.930 . S
H1696 C1693 0.929 . S
S1697 N1698 1.613 . S
S1697 N1699 1.610 . S
N1698 S1697 1.613 . S
N1698 C1701 1.350 . S
N1699 S1697 1.610 . S
N1699 C1700 1.351 . S
C1700 C1694 1.428 . S
C1700 N1699 1.351 . S
C1700 C1701 1.434 . S
C1701 C1692 1.429 . S
C1701 N1698 1.350 . S
C1701 C1700 1.434 . S
C1702 C1703 1.369 . S
C1702 C1704 1.419 . S
C1702 H1706 0.930 . S
C1703 C1702 1.369 . S
C1703 C1712 1.429 . S
C1704 C1702 1.419 . S
C1704 C1705 1.363 . S
C1704 H1707 0.929 . S
C1705 C1704 1.363 . S
C1705 C1711 1.428 . S
H1706 C1702 0.930 . S
H1707 C1704 0.929 . S
S1708 N1709 1.613 . S
S1708 N1710 1.610 . S
N1709 S1708 1.613 . S
N1709 C1712 1.350 . S
N1710 S1708 1.610 . S
N1710 C1711 1.351 . S
C1711 C1705 1.428 . S
C1711 N1710 1.351 . S
C1711 C1712 1.434 . S
C1712 C1703 1.429 . S
C1712 N1709 1.350 . S
C1712 C1711 1.434 . S
C1713 C1714 1.369 . S
C1713 C1715 1.419 . S
C1713 H1717 0.930 . S
C1714 C1713 1.369 . S
C1714 C1723 1.429 . S
C1715 C1713 1.419 . S
C1715 C1716 1.363 . S
C1715 H1718 0.929 . S
C1716 C1715 1.363 . S
C1716 C1722 1.428 . S
H1717 C1713 0.930 . S
H1718 C1715 0.929 . S
S1719 N1720 1.613 . S
S1719 N1721 1.610 . S
N1720 S1719 1.613 . S
N1720 C1723 1.350 . S
N1721 S1719 1.610 . S
N1721 C1722 1.351 . S
C1722 C1716 1.428 . S
C1722 N1721 1.351 . S
C1722 C1723 1.434 . S
C1723 C1714 1.429 . S
C1723 N1720 1.350 . S
C1723 C1722 1.434 . S
C1724 C1725 1.369 . S
C1724 C1726 1.419 . S
C1724 H1728 0.930 . S
C1725 C1724 1.369 . S
C1725 C1734 1.429 . S
C1726 C1724 1.419 . S
C1726 C1727 1.363 . S
C1726 H1729 0.929 1_455 S
C1727 C1726 1.363 . S
C1727 C1733 1.428 . S
H1728 C1724 0.930 . S
H1729 C1726 0.929 1_655 S
S1730 N1731 1.613 . S
S1730 N1732 1.610 . S
N1731 S1730 1.613 . S
N1731 C1734 1.350 . S
N1732 S1730 1.610 . S
N1732 C1733 1.351 . S
C1733 C1727 1.428 . S
C1733 N1732 1.351 . S
C1733 C1734 1.434 . S
C1734 C1725 1.429 . S
C1734 N1731 1.350 . S
C1734 C1733 1.434 . S
C1735 C1736 1.369 . S
C1735 C1737 1.419 . S
C1735 H1739 0.930 . S
C1736 C1735 1.369 . S
C1736 C1745 1.429 . S
C1737 C1735 1.419 . S
C1737 C1738 1.363 . S
C1737 H1740 0.929 . S
C1738 C1737 1.363 . S
C1738 C1744 1.428 . S
H1739 C1735 0.930 . S
H1740 C1737 0.929 . S
S1741 N1742 1.613 . S
S1741 N1743 1.610 . S
N1742 S1741 1.613 . S
N1742 C1745 1.350 . S
N1743 S1741 1.610 . S
N1743 C1744 1.351 . S
C1744 C1738 1.428 . S
C1744 N1743 1.351 . S
C1744 C1745 1.434 . S
C1745 C1736 1.429 . S
C1745 N1742 1.350 . S
C1745 C1744 1.434 . S
C1746 C1747 1.369 . S
C1746 C1748 1.419 . S
C1746 H1750 0.930 . S
C1747 C1746 1.369 . S
C1747 C1756 1.429 . S
C1748 C1746 1.419 . S
C1748 C1749 1.363 . S
C1748 H1751 0.929 . S
C1749 C1748 1.363 . S
C1749 C1755 1.428 . S
H1750 C1746 0.930 . S
H1751 C1748 0.929 . S
S1752 N1753 1.613 1_655 S
S1752 N1754 1.610 . S
N1753 S1752 1.613 1_455 S
N1753 C1756 1.350 . S
N1754 S1752 1.610 . S
N1754 C1755 1.351 1_655 S
C1755 C1749 1.428 . S
C1755 N1754 1.351 1_455 S
C1755 C1756 1.434 . S
C1756 C1747 1.429 . S
C1756 N1753 1.350 . S
C1756 C1755 1.434 . S
C1757 C1758 1.369 . S
C1757 C1759 1.419 . S
C1757 H1761 0.930 . S
C1758 C1757 1.369 . S
C1758 C1767 1.429 . S
C1759 C1757 1.419 . S
C1759 C1760 1.363 . S
C1759 H1762 0.929 . S
C1760 C1759 1.363 . S
C1760 C1766 1.428 . S
H1761 C1757 0.930 . S
H1762 C1759 0.929 . S
S1763 N1764 1.613 . S
S1763 N1765 1.610 . S
N1764 S1763 1.613 . S
N1764 C1767 1.350 . S
N1765 S1763 1.610 . S
N1765 C1766 1.351 . S
C1766 C1760 1.428 . S
C1766 N1765 1.351 . S
C1766 C1767 1.434 . S
C1767 C1758 1.429 . S
C1767 N1764 1.350 . S
C1767 C1766 1.434 . S
C1768 C1769 1.369 . S
C1768 C1770 1.419 . S
C1768 H1772 0.930 1_655 S
C1769 C1768 1.369 . S
C1769 C1778 1.429 . S
C1770 C1768 1.419 . S
C1770 C1771 1.363 . S
C1770 H1773 0.929 . S
C1771 C1770 1.363 . S
C1771 C1777 1.428 . S
H1772 C1768 0.930 1_455 S
H1773 C1770 0.929 . S
S1774 N1775 1.613 . S
S1774 N1776 1.610 . S
N1775 S1774 1.613 . S
N1775 C1778 1.350 . S
N1776 S1774 1.610 . S
N1776 C1777 1.351 . S
C1777 C1771 1.428 . S
C1777 N1776 1.351 . S
C1777 C1778 1.434 . S
C1778 C1769 1.429 . S
C1778 N1775 1.350 . S
C1778 C1777 1.434 . S
C1779 C1780 1.369 . S
C1779 C1781 1.419 . S
C1779 H1783 0.930 . S
C1780 C1779 1.369 . S
C1780 C1789 1.429 . S
C1781 C1779 1.419 . S
C1781 C1782 1.363 . S
C1781 H1784 0.929 . S
C1782 C1781 1.363 . S
C1782 C1788 1.428 . S
H1783 C1779 0.930 . S
H1784 C1781 0.929 . S
S1785 N1786 1.613 . S
S1785 N1787 1.610 . S
N1786 S1785 1.613 . S
N1786 C1789 1.350 . S
N1787 S1785 1.610 . S
N1787 C1788 1.351 . S
C1788 C1782 1.428 . S
C1788 N1787 1.351 . S
C1788 C1789 1.434 . S
C1789 C1780 1.429 . S
C1789 N1786 1.350 . S
C1789 C1788 1.434 . S
C1790 C1791 1.369 . S
C1790 C1792 1.419 . S
C1790 H1794 0.930 . S
C1791 C1790 1.369 . S
C1791 C1800 1.429 . S
C1792 C1790 1.419 . S
C1792 C1793 1.363 . S
C1792 H1795 0.929 . S
C1793 C1792 1.363 . S
C1793 C1799 1.428 . S
H1794 C1790 0.930 . S
H1795 C1792 0.929 . S
S1796 N1797 1.613 . S
S1796 N1798 1.610 . S
N1797 S1796 1.613 . S
N1797 C1800 1.350 . S
N1798 S1796 1.610 . S
N1798 C1799 1.351 . S
C1799 C1793 1.428 . S
C1799 N1798 1.351 . S
C1799 C1800 1.434 . S
C1800 C1791 1.429 . S
C1800 N1797 1.350 . S
C1800 C1799 1.434 . S
C1801 C1802 1.369 . S
C1801 C1803 1.419 . S
C1801 H1805 0.930 . S
C1802 C1801 1.369 . S
C1802 C1811 1.429 . S
C1803 C1801 1.419 . S
C1803 C1804 1.363 . S
C1803 H1806 0.929 . S
C1804 C1803 1.363 . S
C1804 C1810 1.428 . S
H1805 C1801 0.930 . S
H1806 C1803 0.929 . S
S1807 N1808 1.613 . S
S1807 N1809 1.610 . S
N1808 S1807 1.613 . S
N1808 C1811 1.350 . S
N1809 S1807 1.610 . S
N1809 C1810 1.351 . S
C1810 C1804 1.428 . S
C1810 N1809 1.351 . S
C1810 C1811 1.434 . S
C1811 C1802 1.429 . S
C1811 N1808 1.350 . S
C1811 C1810 1.434 . S
C1812 C1813 1.369 . S
C1812 C1814 1.419 . S
C1812 H1816 0.930 . S
C1813 C1812 1.369 . S
C1813 C1822 1.429 . S
C1814 C1812 1.419 . S
C1814 C1815 1.363 . S
C1814 H1817 0.929 . S
C1815 C1814 1.363 . S
C1815 C1821 1.428 . S
H1816 C1812 0.930 . S
H1817 C1814 0.929 . S
S1818 N1819 1.613 . S
S1818 N1820 1.610 . S
N1819 S1818 1.613 . S
N1819 C1822 1.350 . S
N1820 S1818 1.610 . S
N1820 C1821 1.351 . S
C1821 C1815 1.428 . S
C1821 N1820 1.351 . S
C1821 C1822 1.434 . S
C1822 C1813 1.429 . S
C1822 N1819 1.350 . S
C1822 C1821 1.434 . S
C1823 C1824 1.369 . S
C1823 C1825 1.419 . S
C1823 H1827 0.930 . S
C1824 C1823 1.369 . S
C1824 C1833 1.429 . S
C1825 C1823 1.419 . S
C1825 C1826 1.363 . S
C1825 H1828 0.929 . S
C1826 C1825 1.363 . S
C1826 C1832 1.428 . S
H1827 C1823 0.930 . S
H1828 C1825 0.929 . S
S1829 N1830 1.613 . S
S1829 N1831 1.610 . S
N1830 S1829 1.613 . S
N1830 C1833 1.350 . S
N1831 S1829 1.610 . S
N1831 C1832 1.351 . S
C1832 C1826 1.428 . S
C1832 N1831 1.351 . S
C1832 C1833 1.434 . S
C1833 C1824 1.429 . S
C1833 N1830 1.350 . S
C1833 C1832 1.434 . S
C1834 C1835 1.369 . S
C1834 C1836 1.419 . S
C1834 H1838 0.930 . S
C1835 C1834 1.369 . S
C1835 C1844 1.429 . S
C1836 C1834 1.419 . S
C1836 C1837 1.363 . S
C1836 H1839 0.929 . S
C1837 C1836 1.363 . S
C1837 C1843 1.428 . S
H1838 C1834 0.930 . S
H1839 C1836 0.929 . S
S1840 N1841 1.613 . S
S1840 N1842 1.610 1_655 S
N1841 S1840 1.613 . S
N1841 C1844 1.350 1_655 S
N1842 S1840 1.610 1_455 S
N1842 C1843 1.351 . S
C1843 C1837 1.428 . S
C1843 N1842 1.351 . S
C1843 C1844 1.434 . S
C1844 C1835 1.429 . S
C1844 N1841 1.350 1_455 S
C1844 C1843 1.434 . S
C1845 C1846 1.369 . S
C1845 C1847 1.419 . S
C1845 H1849 0.930 . S
C1846 C1845 1.369 . S
C1846 C1855 1.429 . S
C1847 C1845 1.419 . S
C1847 C1848 1.363 . S
C1847 H1850 0.929 . S
C1848 C1847 1.363 . S
C1848 C1854 1.428 . S
H1849 C1845 0.930 . S
H1850 C1847 0.929 . S
S1851 N1852 1.613 . S
S1851 N1853 1.610 . S
N1852 S1851 1.613 . S
N1852 C1855 1.350 . S
N1853 S1851 1.610 . S
N1853 C1854 1.351 . S
C1854 C1848 1.428 . S
C1854 N1853 1.351 . S
C1854 C1855 1.434 . S
C1855 C1846 1.429 . S
C1855 N1852 1.350 . S
C1855 C1854 1.434 . S
C1153 C110 1.344 . S
C1155 C2 1.331 . S
C1164 C74 1.334 . S
C1166 C38 1.337 . S
C1175 C255 1.041 . S
C1177 C147 1.032 . S
C1186 C219 1.031 . S
C1188 C183 1.042 . S
C1197 C290 1.343 . S
C1199 C398 1.331 . S
C1208 C326 1.336 . S
C1210 C362 1.337 . S
C1219 C543 1.033 . S
C1221 C435 1.041 . S
C1230 C471 1.043 . S
C1232 C507 1.033 . S
C1241 C578 1.336 . S
C1243 C686 1.336 . S
C1252 C614 1.331 . S
C1254 C650 1.339 . S
C1263 C831 1.033 . S
C1265 C723 1.038 . S
C1274 C795 1.037 . S
C1276 C759 1.034 . S
C1285 C974 1.329 . S
C1287 C866 1.342 . S
C1296 C902 1.333 . S
C1298 C938 1.339 . S
C1307 C1011 1.039 . S
C1309 C1119 1.033 . S
C1318 C1047 1.042 . S
C1320 C1083 1.034 . S
C1329 C722 1.344 . S
C1331 C3 1.409 . S
C1340 C470 1.333 . S
C1342 C39 1.414 . S
C1351 C75 1.408 . S
C1353 C1082 1.343 . S
C1362 C111 1.417 . S
C1364 C254 1.333 . S
C1373 C579 1.408 . S
C1375 C146 1.343 . S
C1384 C327 1.417 . S
C1386 C182 1.332 . S
C1395 C939 1.417 . S
C1397 C218 1.332 . S
C1406 C291 1.410 . S
C1408 C1010 1.339 . S
C1417 C794 1.331 . S
C1419 C363 1.415 . S
C1428 C542 1.344 . S
C1430 C399 1.409 . S
C1439 C867 1.416 . S
C1441 C434 1.335 . S
C1450 C506 1.331 . S
C1452 C651 1.416 . S
C1461 C1046 1.334 . S
C1463 C615 1.415 . S
C1472 C687 1.413 . S
C1474 C830 1.336 . S
C1483 C903 1.409 . S
C1485 C758 1.343 . S
C1494 C1118 1.330 . S
C1496 C975 1.416 . S
C1505 C40 1.415 . S
C1507 C4 1.407 . S
C1516 C76 1.415 . S
C1518 C112 1.407 . S
C1527 C158 1.409 . S
C1529 C194 1.404 . S
C1538 C266 1.405 . S
C1540 C230 1.407 . S
C1549 C292 1.408 . S
C1551 C328 1.412 . S
C1560 C364 1.414 . S
C1562 C400 1.412 . S
C1571 C482 1.409 . S
C1573 C446 1.403 . S
C1582 C518 1.398 . S
C1584 C554 1.405 . S
C1593 C580 1.407 . S
C1595 C616 1.412 . S
C1604 C652 1.407 . S
C1606 C688 1.412 . S
C1615 C734 1.408 . S
C1617 C770 1.405 . S
C1626 C842 1.404 . S
C1628 C806 1.400 . S
C1637 C904 1.407 . S
C1639 C868 1.412 . S
C1648 C940 1.413 . S
C1650 C976 1.413 . S
C1659 C1022 1.403 . S
C1661 C1058 1.400 . S
C1670 C1130 1.400 . S
C1672 C1094 1.407 . S
C1681 C14 1.735 . S
C1683 C698 1.734 . S
C1692 C50 1.738 . S
C1694 C662 1.737 . S
C1703 C626 1.738 . S
C1705 C86 1.736 . S
C1714 C122 1.731 . S
C1716 C590 1.732 . S
C1725 C832 1.294 . S
C1727 C148 1.302 . S
C1736 C184 1.297 . S
C1738 C796 1.299 . S
C1747 C760 1.302 . S
C1749 C220 1.296 . S
C1758 C256 1.302 . S
C1760 C724 1.295 . S
C1769 C302 1.732 . S
C1771 C986 1.732 . S
C1780 C338 1.735 . S
C1782 C950 1.735 . S
C1791 C374 1.730 . S
C1793 C914 1.731 . S
C1802 C878 1.730 . S
C1804 C410 1.731 . S
C1813 C436 1.302 . S
C1815 C1120 1.296 . S
C1824 C472 1.298 . S
C1826 C1084 1.298 . S
C1835 C508 1.295 . S
C1837 C1048 1.300 . S
C1846 C1012 1.298 . S
C1848 C544 1.297 . S
