# Generated by pormake.
# Topology fne, (5)-cn, num edge types: 1
# Building blocks:
#     Node 0, Type 0, BuildingBlock: XOMCOT_clean_sbu_0, # of connection points: 5
#     Node 1, Type 0, BuildingBlock: XOMCOT_clean_sbu_0, # of connection points: 5
#     Node 2, Type 0, BuildingBlock: XOMCOT_clean_sbu_0, # of connection points: 5
#     Node 3, Type 0, BuildingBlock: XOMCOT_clean_sbu_0, # of connection points: 5
#     Node 4, Type 0, BuildingBlock: XOMCOT_clean_sbu_0, # of connection points: 5
#     Node 5, Type 0, BuildingBlock: XOMCOT_clean_sbu_0, # of connection points: 5
#     Edge 6, Type (0, 0), BuildingBlock: TEMPAE_clean_linker_10, # of connection points: 2
#     Edge 7, Type (0, 0), BuildingBlock: TEMPAE_clean_linker_10, # of connection points: 2
#     Edge 8, Type (0, 0), BuildingBlock: TEMPAE_clean_linker_10, # of connection points: 2
#     Edge 9, Type (0, 0), BuildingBlock: TEMPAE_clean_linker_10, # of connection points: 2
#     Edge 10, Type (0, 0), BuildingBlock: TEMPAE_clean_linker_10, # of connection points: 2
#     Edge 11, Type (0, 0), BuildingBlock: TEMPAE_clean_linker_10, # of connection points: 2
#     Edge 12, Type (0, 0), BuildingBlock: TEMPAE_clean_linker_10, # of connection points: 2
#     Edge 13, Type (0, 0), BuildingBlock: TEMPAE_clean_linker_10, # of connection points: 2
#     Edge 14, Type (0, 0), BuildingBlock: TEMPAE_clean_linker_10, # of connection points: 2
#     Edge 15, Type (0, 0), BuildingBlock: TEMPAE_clean_linker_10, # of connection points: 2
#     Edge 16, Type (0, 0), BuildingBlock: TEMPAE_clean_linker_10, # of connection points: 2
#     Edge 17, Type (0, 0), BuildingBlock: TEMPAE_clean_linker_10, # of connection points: 2
#     Edge 18, Type (0, 0), BuildingBlock: TEMPAE_clean_linker_10, # of connection points: 2
#     Edge 19, Type (0, 0), BuildingBlock: TEMPAE_clean_linker_10, # of connection points: 2
#     Edge 20, Type (0, 0), BuildingBlock: TEMPAE_clean_linker_10, # of connection points: 2
# Relax obj value: 0.065
# Max RMSD: 0.098
# Mean RMSD: 0.098
data_MOF--net-fne--node1-XOMCOT_clean_sbu_0--edge1-TEMPAE_clean_linker_10
_symmetry_space_group_name_H-M    P1
_symmetry_Int_Tables_number       1
_symmetry_cell_setting            triclinic
loop_
_symmetry_equiv_pos_as_xyz
'x, y, z'
_cell_length_a     46.926829
_cell_length_b     46.917501
_cell_length_c     17.663301
_cell_angle_alpha  90.14635
_cell_angle_beta   89.783518
_cell_angle_gamma 120.06199
loop_
_atom_site_label
_atom_site_type_symbol
_atom_site_fract_x
_atom_site_fract_y
_atom_site_fract_z
_atom_type_partial_charge
Co0 Co 0.3602 0.07607 0.06724 0.0
C1 C 0.35475 0.07092 0.2344 0.0
C2 C 0.32002 0.02537 0.18187 0.0
C3 C 0.31588 0.02183 0.25924 0.0
N4 N 0.34442 0.05622 0.16621 0.0
N5 N 0.33757 0.05059 0.29199 0.0
H6 H 0.3745 0.096 0.24217 0.0
H7 H 0.3058 1.00663 0.14051 0.0
C8 C 0.33191 0.01769 0.96024 0.0
O9 O 0.36085 0.02974 0.92732 0.0
N10 N 0.37585 0.09649 0.96824 0.0
C11 C 0.40614 0.12143 0.95047 0.0
C12 C 0.40786 0.12696 0.87382 0.0
C13 C 0.35899 0.08873 0.90227 0.0
N14 N 0.37834 0.10599 0.84327 0.0
C15 C 0.42666 0.09003 0.08794 0.0
C16 C 0.41454 0.02617 0.07821 0.0
C17 C 0.44707 0.05192 0.08559 0.0
C18 C 0.4529 0.08406 0.09269 0.0
C19 C 0.38886 0.03322 0.07566 0.0
N20 N 0.39527 0.06508 0.07471 0.0
H21 H 0.43182 0.1149 0.09615 0.0
H22 H 0.36391 1.0129 0.07509 0.0
H23 H 0.42594 0.13501 0.9897 0.0
H24 H 0.33347 0.06974 0.89673 0.0
O25 O 0.38288 0.11936 0.11279 0.0
O26 O 0.33135 0.0946 0.07243 0.0
O27 O 0.32819 0.0326 0.01699 0.0
C28 C 0.35583 0.12017 0.10431 0.0
H29 H 0.29776 1.00006 0.28898 0.0
H30 H 0.42941 0.14472 0.84278 0.0
H31 H 0.40899 1.00082 0.076 0.0
H32 H 0.47762 0.10451 0.10109 0.0
Co33 Co 0.31862 0.34857 0.40823 0.0
C34 C 0.32565 0.34484 0.57527 0.0
C35 C 0.30162 0.29747 0.52192 0.0
C36 C 0.30011 0.29291 0.59896 0.0
N37 N 0.3181 0.33004 0.50672 0.0
N38 N 0.31516 0.32274 0.63231 0.0
H39 H 0.33594 0.37087 0.58428 0.0
H40 H 0.28984 0.27827 0.47986 0.0
C41 C 0.34591 0.30357 0.38002 0.0
O42 O 0.36342 0.31479 0.44214 0.0
N43 N 0.31802 0.36617 0.3102 0.0
C44 C 0.32461 0.39697 0.29439 0.0
C45 C 0.32425 0.40026 0.21688 0.0
C46 C 0.31374 0.35115 0.24272 0.0
N47 N 0.31767 0.37148 0.18479 0.0
C48 C 0.37485 0.40744 0.46344 0.0
C49 C 0.42045 0.40779 0.36359 0.0
C50 C 0.43071 0.43407 0.41472 0.0
C51 C 0.40728 0.43358 0.46498 0.0
C52 C 0.38767 0.38211 0.36385 0.0
N53 N 0.36544 0.38146 0.41518 0.0
H54 H 0.35701 0.40917 0.49864 0.0
H55 H 0.38009 0.36358 0.32031 0.0
H56 H 0.33029 0.41598 0.3361 0.0
H57 H 0.30816 0.32598 0.23581 0.0
O58 O 0.30027 0.37357 0.45312 0.0
O59 O 0.27094 0.32274 0.40869 0.0
O60 O 0.32772 0.31507 0.35801 0.0
C61 C 0.27149 0.34782 0.44189 0.0
H62 H 0.28778 0.26951 0.6282 0.0
H63 H 0.32972 0.42243 0.18643 0.0
H64 H 0.43744 0.40726 0.32274 0.0
H65 H 0.41352 0.45395 0.50319 0.0
Co66 Co 1.00704 0.31146 0.74716 0.0
C67 C 1.01457 0.31517 0.9148 0.0
C68 C 0.04753 0.30228 0.86129 0.0
C69 C 0.05072 0.3011 0.93846 0.0
N70 N 0.02574 0.31235 0.84608 0.0
N71 N 0.0298 0.30901 0.9717 0.0
H72 H 0.99432 0.31951 0.92375 0.0
H73 H 0.05898 0.29437 0.81944 0.0
C74 C 0.07939 0.34223 0.71335 0.0
O75 O 0.08565 0.36152 0.77246 0.0
N76 N 0.98804 0.30952 0.64937 0.0
C77 C 0.96633 0.31945 0.63318 0.0
C78 C 0.96254 0.31882 0.55582 0.0
C79 C 0.99679 0.30248 0.58215 0.0
N80 N 0.98175 0.30821 0.52404 0.0
C81 C 1.00507 0.36779 0.80483 0.0
C82 C 0.04548 0.41213 0.69635 0.0
C83 C 0.03063 0.42246 0.75041 0.0
C84 C 1.01025 0.39981 0.8052 0.0
C85 C 0.03934 0.37969 0.69751 0.0
N86 N 1.02008 0.35809 0.75271 0.0
H87 H 0.98746 0.35041 0.84415 0.0
H88 H 0.04891 0.37165 0.65167 0.0
H89 H 0.95525 0.32801 0.67452 0.0
H90 H 1.01508 0.29504 0.57548 0.0
O91 O 0.96379 0.29272 0.79258 0.0
O92 O 0.98612 0.26387 0.74959 0.0
O93 O 0.04968 0.32141 0.6955 0.0
C94 C 0.96137 0.26413 0.78261 0.0
H95 H 0.0656 0.29297 0.96785 0.0
H96 H 0.94751 0.32639 0.52516 0.0
H97 H 0.06052 0.42852 0.65146 0.0
H98 H 0.99783 0.40658 0.84727 0.0
Co99 Co 0.73406 0.99854 0.08529 0.0
C100 C 0.73779 1.0086 0.25293 0.0
C101 C 0.78471 0.03571 0.19842 0.0
C102 C 0.78952 0.03888 0.27541 0.0
N103 N 0.75217 0.01727 0.18392 0.0
N104 N 0.75995 0.02179 0.30944 0.0
H105 H 0.71233 0.99067 0.26273 0.0
H106 H 0.80392 0.04468 0.15593 0.0
C107 C 0.7763 0.07102 0.0554 0.0
O108 O 0.76382 0.07684 0.11626 0.0
N109 N 0.71714 0.97971 0.98712 0.0
C110 C 0.6868 0.95464 0.97087 0.0
C111 C 0.68396 0.95076 0.89331 0.0
C112 C 0.73232 0.99069 0.91985 0.0
N113 N 0.71253 0.97366 0.86166 0.0
C114 C 0.67543 0.9959 0.14269 0.0
C115 C 0.67118 0.03599 0.03463 0.0
C116 C 0.646 0.02129 0.08911 0.0
C117 C 0.6488 1.00134 0.14418 0.0
C118 C 0.6979 0.0305 0.03636 0.0
N119 N 0.7003 1.01126 0.09119 0.0
H120 H 0.67487 0.97779 0.18068 0.0
H121 H 0.71573 0.04043 0.99102 0.0
H122 H 0.66776 0.94088 0.01228 0.0
H123 H 0.75719 1.01097 0.91323 0.0
O124 O 0.70971 0.95527 0.13035 0.0
O125 O 0.76081 0.97773 0.08673 0.0
O126 O 0.76672 0.04143 0.0349 0.0
C127 C 0.73584 0.95288 0.11952 0.0
H128 H 0.813 0.05166 0.30411 0.0
H129 H 0.66217 0.93343 0.86249 0.0
H130 H 0.66973 0.05056 0.98899 0.0
H131 H 0.6302 0.98922 0.18751 0.0
Co132 Co 0.77141 0.72167 0.40556 0.0
C133 C 0.76434 0.72526 0.57285 0.0
C134 C 0.7878 0.77262 0.51959 0.0
C135 C 0.7892 0.77718 0.59665 0.0
N136 N 0.77175 0.74004 0.50435 0.0
N137 N 0.7745 0.74736 0.62993 0.0
H138 H 0.75432 0.69927 0.58176 0.0
H139 H 0.7993 0.79184 0.47751 0.0
C140 C 0.74238 0.76519 0.38002 0.0
O141 O 0.72518 0.75356 0.44261 0.0
N142 N 0.77219 0.70426 0.3072 0.0
C143 C 0.76645 0.67375 0.2911 0.0
C144 C 0.76678 0.67048 0.21355 0.0
C145 C 0.77592 0.71913 0.23985 0.0
N146 N 0.77249 0.69898 0.18173 0.0
C147 C 0.71638 0.66192 0.46139 0.0
C148 C 0.66975 0.66018 0.36357 0.0
C149 C 0.66052 0.6338 0.41362 0.0
C150 C 0.68437 0.63503 0.46309 0.0
C151 C 0.70217 0.68661 0.3635 0.0
N152 N 0.72491 0.68788 0.41376 0.0
H153 H 0.73464 0.66086 0.49608 0.0
H154 H 0.70914 0.70511 0.3202 0.0
H155 H 0.76141 0.65491 0.33269 0.0
H156 H 0.78078 0.74408 0.23321 0.0
O157 O 0.79094 0.69766 0.44921 0.0
O158 O 0.81902 0.74852 0.4045 0.0
O159 O 0.76101 0.75437 0.35655 0.0
C160 C 0.81934 0.72385 0.43725 0.0
H161 H 0.80118 0.80061 0.62593 0.0
H162 H 0.76193 0.64849 0.18292 0.0
H163 H 0.65248 0.65973 0.3224 0.0
H164 H 0.67856 0.61502 0.502 0.0
Co165 Co 0.08692 0.76387 0.73087 0.0
C166 C 0.07956 0.76124 0.89864 0.0
C167 C 0.04989 0.77817 0.84531 0.0
C168 C 0.04665 0.77953 0.92254 0.0
N169 N 0.06963 0.76557 0.83006 0.0
N170 N 0.06552 0.76906 0.95564 0.0
H171 H 0.09797 0.7543 0.90753 0.0
H172 H 0.03966 0.7872 0.8033 0.0
C173 C 1.01448 0.73511 0.7031 0.0
O174 O 1.00852 0.71736 0.76477 0.0
N175 N 0.10446 0.76318 0.63258 0.0
C176 C 0.12424 0.75092 0.61557 0.0
C177 C 0.12731 0.7507 0.53802 0.0
C178 C 0.09621 0.7708 0.56575 0.0
N179 N 0.10966 0.76319 0.50707 0.0
C180 C 0.0885 0.7078 0.79126 0.0
C181 C 0.04433 0.66173 0.691 0.0
C182 C 0.05987 0.65172 0.74377 0.0
C183 C 0.08226 0.67542 0.79426 0.0
C184 C 0.05154 0.69451 0.6895 0.0
N185 N 0.07258 0.71701 0.74095 0.0
H186 H 0.10777 0.7258 0.82653 0.0
H187 H 0.04122 0.70192 0.64439 0.0
H188 H 0.13452 0.7415 0.65653 0.0
H189 H 0.0794 0.78013 0.55988 0.0
O190 O 0.13046 0.78239 0.77395 0.0
O191 O 0.10931 0.81157 0.72775 0.0
O192 O 0.04411 0.75428 0.68132 0.0
C193 C 0.13394 0.8112 0.76057 0.0
H194 H 0.03306 0.78921 0.95209 0.0
H195 H 0.14085 0.74143 0.50668 0.0
H196 H 0.02717 0.64459 0.65001 0.0
H197 H 0.09611 0.66947 0.83371 0.0
C198 C 0.4965 0.05582 0.14859 0.0
C199 C 0.47498 0.04558 0.0868 0.0
C200 C 0.52396 0.05136 0.14905 0.0
C201 C 0.53051 0.03715 0.08525 0.0
C202 C 0.50882 0.02687 0.02254 0.0
C203 C 0.48104 0.03083 0.02451 0.0
C204 C 0.54593 0.06184 0.21784 0.0
C205 C 0.51532 1.01233 0.95277 0.0
C206 C 0.6187 0.05489 0.06181 0.0
C207 C 0.61629 0.02533 0.0867 0.0
C208 C 0.5909 0.05882 0.0595 0.0
C209 C 0.55999 0.03292 0.08444 0.0
C210 C 0.55732 1.00309 0.10972 0.0
C211 C 0.58527 0.99948 0.10941 0.0
C212 C 0.59464 0.0908 0.03068 0.0
C213 C 0.52495 0.97503 0.13788 0.0
H214 H 0.49169 0.06717 0.19678 0.0
H215 H 0.46453 0.02328 0.97642 0.0
H216 H 0.54772 0.04068 0.24001 0.0
H217 H 0.57118 0.08131 0.2021 0.0
H218 H 0.53676 0.07139 0.26382 0.0
H219 H 0.49632 1.00599 0.90847 0.0
H220 H 0.53977 0.03008 0.92866 0.0
H221 H 0.51602 0.98975 0.96783 0.0
H222 H 0.64241 0.07523 0.04492 0.0
H223 H 0.58261 0.97614 0.12666 0.0
H224 H 0.58894 0.10332 0.07666 0.0
H225 H 0.57687 0.08584 0.98425 0.0
H226 H 0.6199 0.10782 0.00938 0.0
H227 H 0.51558 0.98358 0.18543 0.0
H228 H 0.52716 0.95375 0.15755 0.0
H229 H 0.5063 0.96652 0.09221 0.0
C230 C 0.59894 0.60797 0.40651 0.0
C231 C 0.6268 0.60438 0.41169 0.0
C232 C 0.56702 0.58033 0.40586 0.0
C233 C 0.56285 0.54829 0.40993 0.0
C234 C 0.5909 0.54451 0.41414 0.0
C235 C 0.62247 0.57255 0.41511 0.0
C236 C 0.53775 0.58542 0.40176 0.0
C237 C 0.58757 0.51082 0.41778 0.0
C238 C 0.48106 0.47795 0.48111 0.0
C239 C 0.46502 0.46271 0.41336 0.0
C240 C 0.51279 0.50579 0.48076 0.0
C241 C 0.52914 0.5187 0.41099 0.0
C242 C 0.51332 0.50327 0.34242 0.0
C243 C 0.48147 0.47556 0.3444 0.0
C244 C 0.52879 0.52147 0.55514 0.0
C245 C 0.52993 0.51619 0.26686 0.0
H246 H 0.60208 0.63247 0.40436 0.0
H247 H 0.64388 0.56953 0.41773 0.0
H248 H 0.52242 0.57231 0.35188 0.0
H249 H 0.52208 0.57484 0.45279 0.0
H250 H 0.54516 0.61187 0.39773 0.0
H251 H 0.61184 0.51207 0.41964 0.0
H252 H 0.57326 0.49754 0.4688 0.0
H253 H 0.57381 0.49604 0.36776 0.0
H254 H 0.46882 0.468 0.53473 0.0
H255 H 0.46918 0.46439 0.29166 0.0
H256 H 0.53493 0.54758 0.5561 0.0
H257 H 0.55221 0.52129 0.56154 0.0
H258 H 0.51271 0.5086 0.60446 0.0
H259 H 0.53525 0.54185 0.2589 0.0
H260 H 0.51462 0.501 0.21878 0.0
H261 H 0.55385 0.51676 0.26522 0.0
C262 C 1.00729 0.46023 0.75346 0.0
C263 C 0.0348 0.45604 0.7474 0.0
C264 C 1.01069 0.49171 0.75126 0.0
C265 C 0.04243 0.51979 0.7437 0.0
C266 C 0.0703 0.51572 0.73729 0.0
C267 C 0.06612 0.48387 0.73864 0.0
C268 C 0.9803 0.49491 0.75699 0.0
C269 C 0.10458 0.54504 0.73006 0.0
C270 C 0.05032 0.60041 0.67543 0.0
C271 C 0.05435 0.61745 0.74373 0.0
C272 C 0.04614 0.56857 0.6746 0.0
C273 C 0.04646 0.55344 0.7436 0.0
C274 C 0.05047 0.5704 0.8127 0.0
C275 C 0.05411 0.60201 0.81197 0.0
C276 C 0.0416 0.55119 0.59976 0.0
C277 C 0.0511 0.55521 0.8875 0.0
H278 H 0.98297 0.43875 0.75904 0.0
H279 H 0.08745 0.48075 0.73436 0.0
H280 H 0.98187 0.5096 0.80773 0.0
H281 H 0.97865 0.50822 0.70689 0.0
H282 H 0.95735 0.4706 0.76077 0.0
H283 H 0.12365 0.53771 0.72524 0.0
H284 H 0.10618 0.55974 0.67948 0.0
H285 H 0.11021 0.56131 0.78015 0.0
H286 H 0.05105 0.61218 0.6222 0.0
H287 H 0.05667 0.6146 0.86518 0.0
H288 H 1.01834 0.52714 0.60041 0.0
H289 H 0.06199 0.54605 0.59044 0.0
H290 H 0.04094 0.5659 0.55131 0.0
H291 H 0.02755 0.5319 0.89627 0.0
H292 H 0.05505 0.57185 0.93612 0.0
H293 H 0.07104 0.54903 0.88716 0.0
C294 C 0.34963 0.09015 0.39618 0.0
C295 C 0.34097 0.05837 0.37163 0.0
C296 C 0.35362 0.09827 0.47348 0.0
C297 C 0.3492 0.07413 0.52752 0.0
C298 C 0.33991 0.04184 0.50315 0.0
C299 C 0.33572 0.03431 0.42551 0.0
C300 C 0.36302 0.13282 0.49721 0.0
C301 C 0.3354 0.01551 0.55886 0.0
C302 C 0.39584 0.10374 0.71268 0.0
C303 C 0.37099 0.09942 0.76372 0.0
C304 C 0.38903 0.09571 0.63587 0.0
C305 C 0.35656 0.08325 0.60889 0.0
C306 C 0.33136 0.07918 0.65976 0.0
C307 C 0.33885 0.08712 0.73674 0.0
C308 C 0.41653 0.10001 0.58383 0.0
C309 C 0.29651 0.06624 0.63296 0.0
H310 H 0.35307 0.10862 0.35481 0.0
H311 H 0.32922 1.0098 0.40668 0.0
H312 H 0.34479 0.1321 0.53851 0.0
H313 H 0.3873 0.14471 0.52584 0.0
H314 H 0.36444 0.14836 0.4484 0.0
H315 H 0.3267 0.99126 0.53115 0.0
H316 H 0.35912 0.0229 0.58751 0.0
H317 H 0.31744 1.01266 0.60341 0.0
H318 H 0.42057 0.11251 0.73323 0.0
H319 H 0.3196 0.08385 0.77582 0.0
H320 H 0.41943 0.11682 0.53664 0.0
H321 H 0.4104 0.07595 0.55843 0.0
H322 H 0.44047 0.11013 0.61369 0.0
H323 H 0.29616 0.08182 0.58622 0.0
H324 H 0.28003 0.06563 0.67903 0.0
H325 H 0.28645 0.04095 0.61017 0.0
C326 C 0.28983 0.30869 0.75925 0.0
C327 C 0.3161 0.32965 0.71199 0.0
C328 C 0.29003 0.31555 0.83663 0.0
C329 C 0.31732 0.34389 0.8676 0.0
C330 C 0.34407 0.365 0.8203 0.0
C331 C 0.34302 0.35773 0.74287 0.0
C332 C 0.26087 0.29267 0.88507 0.0
C333 C 0.37385 0.39514 0.85158 0.0
C334 C 0.30556 0.37824 0.05259 0.0
C335 C 0.31759 0.36465 0.10533 0.0
C336 C 0.30525 0.37163 0.97495 0.0
C337 C 0.31783 0.35141 0.94955 0.0
C338 C 0.33048 0.33803 1.00255 0.0
C339 C 0.3299 0.34455 0.07989 0.0
C340 C 0.29116 0.38599 0.9202 0.0
C341 C 0.34448 0.31668 0.97775 0.0
H342 H 0.26875 0.28726 0.73532 0.0
H343 H 0.36345 0.37377 0.70647 0.0
H344 H 0.26896 0.28247 0.93145 0.0
H345 H 0.25001 0.3065 0.91174 0.0
H346 H 0.24143 0.27187 0.85205 0.0
H347 H 0.39275 0.4088 0.8074 0.0
H348 H 0.36636 0.412 0.87726 0.0
H349 H 0.38517 0.38784 0.89708 0.0
H350 H 0.29583 0.39357 0.07237 0.0
H351 H 0.33966 0.3344 0.12051 0.0
H352 H 0.27031 0.36588 0.8888 0.0
H353 H 0.31008 0.40156 0.87782 0.0
H354 H 0.28228 0.40115 0.94915 0.0
H355 H 0.32433 0.29277 0.95653 0.0
H356 H 0.3571 0.31176 0.0247 0.0
H357 H 0.36228 0.32852 0.93064 0.0
C358 C 0.0483 0.32142 0.10382 0.0
C359 C 1.02263 0.30756 0.05119 0.0
C360 C 0.04175 0.32092 0.18157 0.0
C361 C 1.00867 0.30538 0.20717 0.0
C362 C 0.98263 0.2905 0.15416 0.0
C363 C 0.98996 0.29217 0.07662 0.0
C364 C 0.07019 0.33765 0.2361 0.0
C365 C 0.94707 0.27293 0.17927 0.0
C366 C 0.99274 0.28197 0.41544 0.0
C367 C 0.98794 0.30706 0.44457 0.0
C368 C 0.99903 0.28078 0.338 0.0
C369 C 1.00133 0.30575 0.28909 0.0
C370 C 0.99686 0.33134 0.31855 0.0
C371 C 0.98988 0.33148 0.39578 0.0
C372 C 1.00303 0.25276 0.30845 0.0
C373 C 0.99988 0.35883 0.26867 0.0
H374 H 0.07352 0.33337 0.08368 0.0
H375 H 0.97017 0.28099 0.03572 0.0
H376 H 0.06879 0.35761 0.26665 0.0
H377 H 0.06876 0.31984 0.27925 0.0
H378 H 0.09443 0.34838 0.20706 0.0
H379 H 0.92984 0.26077 0.13138 0.0
H380 H 0.94282 0.25401 0.22234 0.0
H381 H 0.94113 0.29072 0.20618 0.0
H382 H 0.99105 0.26302 0.45321 0.0
H383 H 0.98673 0.35119 0.41856 0.0
H384 H 0.02797 0.26249 0.28381 0.0
H385 H 0.98503 0.23969 0.26251 0.0
H386 H 0.99943 0.23474 0.35344 0.0
H387 H 0.02455 0.37163 0.24154 0.0
H388 H 0.99631 0.37721 0.30071 0.0
H389 H 0.98138 0.3486 0.22266 0.0
C390 C 0.73811 1.01324 0.7572 0.0
C391 C 0.71952 0.98059 0.78234 0.0
C392 C 0.74459 0.02052 0.67995 0.0
C393 C 0.73283 0.99446 0.62675 0.0
C394 C 0.71426 0.96142 0.6519 0.0
C395 C 0.70754 0.9549 0.72944 0.0
C396 C 0.76407 0.0561 0.65544 0.0
C397 C 0.70169 0.93298 0.59694 0.0
C398 C 0.72446 1.012 0.42071 0.0
C399 C 0.75348 0.0155 0.38915 0.0
C400 C 0.71754 1.00542 0.49813 0.0
C401 C 0.73998 1.00177 0.54477 0.0
C402 C 0.76929 1.00518 0.51313 0.0
C403 C 0.77578 1.01221 0.43573 0.0
C404 C 0.68636 1.00264 0.53013 0.0
C405 C 0.7936 1.00105 0.56085 0.0
H406 H 0.747 0.03314 0.79799 0.0
H407 H 0.69338 0.92969 0.74905 0.0
H408 H 0.78868 0.06163 0.6349 0.0
H409 H 0.75159 0.06085 0.60796 0.0
H410 H 0.76751 0.07333 0.70239 0.0
H411 H 0.68804 0.90873 0.62579 0.0
H412 H 0.68513 0.93478 0.55501 0.0
H413 H 0.7226 0.934 0.56503 0.0
H414 H 0.70738 1.01486 0.3848 0.0
H415 H 0.79799 1.01442 0.41123 0.0
H416 H 0.69252 0.02106 0.57589 0.0
H417 H 0.67084 0.97794 0.55563 0.0
H418 H 0.6717 1.00655 0.48641 0.0
H419 H 0.80286 0.01946 0.60727 0.0
H420 H 0.81497 1.00395 0.5273 0.0
H421 H 0.78125 0.97631 0.58748 0.0
C422 C 0.79961 0.76179 0.75672 0.0
C423 C 0.77356 0.74051 0.70955 0.0
C424 C 0.79945 0.75498 0.83403 0.0
C425 C 0.77242 0.72637 0.86499 0.0
C426 C 0.74589 0.70494 0.81779 0.0
C427 C 0.7469 0.71218 0.74045 0.0
C428 C 0.82836 0.77821 0.88238 0.0
C429 C 0.7164 0.67448 0.84909 0.0
C430 C 0.78493 0.69258 0.04924 0.0
C431 C 0.77241 0.70572 0.10236 0.0
C432 C 0.78514 0.69914 0.9717 0.0
C433 C 0.77199 0.71886 0.9468 0.0
C434 C 0.75885 0.73178 1.00018 0.0
C435 C 0.75951 0.72531 0.07741 0.0
C436 C 0.79973 0.68528 0.91651 0.0
C437 C 0.74425 0.7526 0.97589 0.0
H438 H 0.82051 0.78343 0.73277 0.0
H439 H 0.72664 0.6959 0.70411 0.0
H440 H 0.81991 0.78806 0.92906 0.0
H441 H 0.83963 0.76476 0.90863 0.0
H442 H 0.84759 0.79925 0.84939 0.0
H443 H 0.69763 0.6606 0.80499 0.0
H444 H 0.72429 0.65794 0.8744 0.0
H445 H 0.70477 0.68143 0.89487 0.0
H446 H 0.79512 0.67766 0.06863 0.0
H447 H 0.74939 0.7351 0.11832 0.0
H448 H 0.82042 0.70563 0.88514 0.0
H449 H 0.78099 0.66953 0.87413 0.0
H450 H 0.80896 0.67042 0.94507 0.0
H451 H 0.76411 0.77667 0.95462 0.0
H452 H 0.73136 0.75719 0.02312 0.0
H453 H 0.72654 0.7405 0.92893 0.0
C454 C 0.09864 0.73912 0.37922 0.0
C455 C 0.10354 0.76478 0.42795 0.0
C456 C 0.09181 0.73987 0.30224 0.0
C457 C 0.09062 0.76733 0.27304 0.0
C458 C 0.09582 0.79347 0.32197 0.0
C459 C 0.10182 0.79167 0.39916 0.0
C460 C 0.08561 0.71114 0.25233 0.0
C461 C 0.09541 0.82345 0.29265 0.0
C462 C 0.10403 0.78114 0.06108 0.0
C463 C 0.07184 0.76921 0.03518 0.0
C464 C 0.11059 0.78144 0.13859 0.0
C465 C 0.08418 0.76872 0.19112 0.0
C466 C 0.05158 0.75659 0.16511 0.0
C467 C 0.04587 0.7574 0.08737 0.0
C468 C 0.14576 0.79534 0.16423 0.0
C469 C 1.02269 0.74216 0.21915 0.0
H470 H 0.09943 0.71809 0.40187 0.0
H471 H 0.10578 0.81154 0.43697 0.0
H472 H 0.06114 0.70079 0.22499 0.0
H473 H 0.10429 0.71956 0.20646 0.0
H474 H 0.08642 0.69122 0.28438 0.0
H475 H 0.10056 0.84192 0.33784 0.0
H476 H 0.11407 0.83525 0.24711 0.0
H477 H 0.07106 0.81612 0.26753 0.0
H478 H 0.12411 0.79072 0.02057 0.0
H479 H 1.021 0.74805 0.0669 0.0
H480 H 0.14877 0.77576 0.19157 0.0
H481 H 0.152 0.81492 0.20709 0.0
H482 H 0.16358 0.80583 0.11657 0.0
H483 H 1.02146 0.72084 0.24934 0.0
H484 H 0.99891 0.73382 0.18978 0.0
H485 H 0.02591 0.76062 0.26265 0.0
C486 C 0.38095 0.17901 0.14294 0.0
C487 C 0.35281 0.1479 0.13492 0.0
C488 C 0.37928 0.20502 0.17807 0.0
C489 C 0.34889 0.19952 0.20797 0.0
C490 C 0.32024 0.16823 0.19891 0.0
C491 C 0.32247 0.14288 0.16156 0.0
C492 C 0.41022 0.23818 0.18478 0.0
C493 C 0.28752 0.16118 0.23118 0.0
C494 C 0.35463 0.25526 0.37121 0.0
C495 C 0.34682 0.27716 0.33575 0.0
C496 C 0.35469 0.2295 0.33056 0.0
C497 C 0.34753 0.226 0.25207 0.0
C498 C 0.33983 0.2482 0.21585 0.0
C499 C 0.33931 0.27334 0.25827 0.0
C500 C 0.36224 0.20589 0.37177 0.0
C501 C 0.33281 0.2459 0.13203 0.0
H502 H 0.40442 0.18297 0.12208 0.0
H503 H 0.30075 0.11873 0.15615 0.0
H504 H 0.40581 0.2578 0.16298 0.0
H505 H 0.41724 0.24374 0.24519 0.0
H506 H 0.43122 0.23917 0.15322 0.0
H507 H 0.26737 0.13598 0.21707 0.0
H508 H 0.28933 0.16382 0.2937 0.0
H509 H 0.28091 0.17927 0.20947 0.0
H510 H 0.36012 0.25788 0.43123 0.0
H511 H 0.33355 0.29038 0.23039 0.0
H512 H 0.38483 0.20733 0.34796 0.0
H513 H 0.34183 0.18023 0.36372 0.0
H514 H 0.3659 0.21111 0.43345 0.0
H515 H 0.35572 0.2526 0.10003 0.0
H516 H 0.32363 0.26255 0.11429 0.0
H517 H 0.31434 0.22032 0.11593 0.0
C518 C 0.21497 0.31646 0.49721 0.0
C519 C 0.2413 0.34636 0.47153 0.0
C520 C 0.18773 0.31534 0.53366 0.0
C521 C 0.1864 0.34469 0.54253 0.0
C522 C 0.21232 0.37469 0.51352 0.0
C523 C 0.23973 0.37526 0.47955 0.0
C524 C 0.16111 0.28302 0.56561 0.0
C525 C 0.21146 0.40635 0.51984 0.0
C526 C 0.1033 0.33622 0.5915 0.0
C527 C 0.10685 0.34351 0.66912 0.0
C528 C 0.12917 0.33707 0.54916 0.0
C529 C 0.15887 0.34436 0.58589 0.0
C530 C 0.16235 0.35135 0.66453 0.0
C531 C 0.13649 0.35135 0.7049 0.0
C532 C 0.12479 0.33043 0.4651 0.0
C533 C 0.19322 0.35836 0.70635 0.0
H534 H 0.21635 0.29416 0.49192 0.0
H535 H 0.26006 0.39839 0.45946 0.0
H536 H 0.16015 0.28499 0.62809 0.0
H537 H 0.13671 0.27718 0.54333 0.0
H538 H 0.16529 0.26227 0.55191 0.0
H539 H 0.23193 0.42684 0.48814 0.0
H540 H 0.18774 0.40276 0.498 0.0
H541 H 0.21323 0.41366 0.58016 0.0
H542 H 0.08046 0.33037 0.56361 0.0
H543 H 0.13916 0.35666 0.76507 0.0
H544 H 0.12685 0.30847 0.45112 0.0
H545 H 0.14463 0.35156 0.43369 0.0
H546 H 0.1006 0.32621 0.4447 0.0
H547 H 0.19792 0.33758 0.69864 0.0
H548 H 0.19159 0.36218 0.76795 0.0
H549 H 0.21475 0.38068 0.68279 0.0
C550 C 0.82407 0.12847 0.04795 0.0
C551 C 0.80244 0.09878 0.01171 0.0
C552 C 0.84985 0.15456 0.00793 0.0
C553 C 0.85355 0.1512 0.92927 0.0
C554 C 0.83145 0.12139 0.8922 0.0
C555 C 0.80636 0.09543 0.93404 0.0
C556 C 0.87343 0.18557 0.05009 0.0
C557 C 0.83388 0.11703 0.80815 0.0
C558 C 0.90239 0.23186 0.82197 0.0
C559 C 0.93306 0.23391 0.81347 0.0
C560 C 0.8759 0.20444 0.85679 0.0
C561 C 0.88054 0.17899 0.88613 0.0
C562 C 0.91145 0.18083 0.87696 0.0
C563 C 0.93721 0.20807 0.83972 0.0
C564 C 0.84312 0.20299 0.86339 0.0
C565 C 0.91765 0.1546 0.90882 0.0
H566 H 0.82132 0.13104 0.10814 0.0
H567 H 0.78947 0.07264 0.90565 0.0
H568 H 0.89905 0.19065 0.04252 0.0
H569 H 0.87237 0.20693 0.02668 0.0
H570 H 0.86788 0.18385 0.11166 0.0
H571 H 0.81717 0.09127 0.78958 0.0
H572 H 0.82737 0.13347 0.77694 0.0
H573 H 0.85944 0.12412 0.79193 0.0
H574 H 0.89913 0.25181 0.80148 0.0
H575 H 0.96105 0.20981 0.83403 0.0
H576 H 0.8374 0.20435 0.92382 0.0
H577 H 0.82323 0.17921 0.84083 0.0
H578 H 0.8428 0.22341 0.83242 0.0
H579 H 0.91435 0.15337 0.97121 0.0
H580 H 0.94285 0.15937 0.89579 0.0
H581 H 0.89953 0.13012 0.88573 0.0
C582 C 0.76762 0.92778 0.17202 0.0
C583 C 0.73756 0.9242 0.14815 0.0
C584 C 0.76896 0.90157 0.20694 0.0
C585 C 0.73966 0.87083 0.21622 0.0
C586 C 0.70948 0.86677 0.1891 0.0
C587 C 0.70871 0.89366 0.1565 0.0
C588 C 0.80152 0.90715 0.23646 0.0
C589 C 0.67786 0.8342 0.19595 0.0
C590 C 0.74757 0.79555 0.25959 0.0
C591 C 0.741 0.79165 0.33757 0.0
C592 C 0.74697 0.82101 0.2191 0.0
C593 C 0.74026 0.84349 0.25785 0.0
C594 C 0.73391 0.8398 0.33678 0.0
C595 C 0.73394 0.81369 0.37545 0.0
C596 C 0.753 0.82348 0.13472 0.0
C597 C 0.72748 0.86371 0.38064 0.0
H598 H 0.7899 0.95149 0.16631 0.0
H599 H 0.68546 0.89082 0.13771 0.0
H600 H 0.80007 0.90389 0.29884 0.0
H601 H 0.80712 0.88868 0.2121 0.0
H602 H 0.82217 0.93217 0.22294 0.0
H603 H 0.65706 0.8343 0.16637 0.0
H604 H 0.68116 0.81415 0.17206 0.0
H605 H 0.67119 0.8284 0.25652 0.0
H606 H 0.75274 0.77838 0.22993 0.0
H607 H 0.72919 0.81098 0.43587 0.0
H608 H 0.77215 0.84883 0.11881 0.0
H609 H 0.73006 0.81803 0.10483 0.0
H610 H 0.76087 0.80604 0.11441 0.0
H611 H 0.74833 0.88917 0.37292 0.0
H612 H 0.7241 0.85808 0.44217 0.0
H613 H 0.70508 0.86313 0.35876 0.0
C614 C 0.95742 0.7262 0.69645 0.0
C615 C 0.98678 0.73344 0.65955 0.0
C616 C 0.9312 0.72544 0.65661 0.0
C617 C 0.93402 0.73111 0.57744 0.0
C618 C 0.96347 0.73792 0.53964 0.0
C619 C 0.98969 0.73948 0.58138 0.0
C620 C 0.9006 0.71893 0.69946 0.0
C621 C 0.96715 0.74322 0.45508 0.0
C622 C 0.85215 0.6977 0.47535 0.0
C623 C 0.85005 0.72622 0.46563 0.0
C624 C 0.88005 0.69917 0.50842 0.0
C625 C 0.906 0.72977 0.53463 0.0
C626 C 0.90418 0.75874 0.5238 0.0
C627 C 0.87641 0.75667 0.48844 0.0
C628 C 0.88137 0.66785 0.51698 0.0
C629 C 0.93087 0.7917 0.55262 0.0
H630 H 0.95522 0.72184 0.757 0.0
H631 H 1.01229 0.74486 0.55258 0.0
H632 H 0.8956 0.7394 0.69013 0.0
H633 H 0.879 0.6961 0.67808 0.0
H634 H 0.90278 0.71623 0.7613 0.0
H635 H 0.99132 0.74747 0.434 0.0
H636 H 0.94728 0.72143 0.42559 0.0
H637 H 0.96459 0.76471 0.4395 0.0
H638 H 0.83183 0.67414 0.45746 0.0
H639 H 0.87466 0.77871 0.48179 0.0
H640 H 0.88016 0.66155 0.57783 0.0
H641 H 0.90502 0.67134 0.49442 0.0
H642 H 0.86078 0.64673 0.48719 0.0
H643 H 0.93232 0.79088 0.61522 0.0
H644 H 0.92639 0.81206 0.53718 0.0
H645 H 0.95516 0.79731 0.52962 0.0
C646 C 0.16784 0.87285 0.76832 0.0
C647 C 0.16373 0.84183 0.78549 0.0
C648 C 0.19539 0.9019 0.79457 0.0
C649 C 0.21929 0.89989 0.83947 0.0
C650 C 0.21536 0.86863 0.85641 0.0
C651 C 0.18772 0.84003 0.82909 0.0
C652 C 0.19875 0.93475 0.77496 0.0
C653 C 0.24013 0.86535 0.9044 0.0
C654 C 0.30518 0.97474 0.85903 0.0
C655 C 0.30317 0.98743 0.92966 0.0
C656 C 0.27799 0.94656 0.82856 0.0
C657 C 0.24811 0.93039 0.87 0.0
C658 C 0.24594 0.94304 0.94135 0.0
C659 C 0.27339 0.97148 0.97006 0.0
C660 C 0.28125 0.93409 0.75197 0.0
C661 C 0.21461 0.92644 0.98757 0.0
H662 H 0.14941 0.87444 0.73472 0.0
H663 H 0.18468 0.81617 0.84295 0.0
H664 H 0.19864 0.94771 0.8275 0.0
H665 H 0.22263 0.95057 0.74608 0.0
H666 H 0.17857 0.93218 0.73769 0.0
H667 H 0.23376 0.8393 0.91151 0.0
H668 H 0.26496 0.87928 0.87837 0.0
H669 H 0.24159 0.87612 0.96124 0.0
H670 H 0.32795 0.98703 0.82697 0.0
H671 H 0.27151 0.9811 0.02451 0.0
H672 H 0.26214 0.9328 0.71303 0.0
H673 H 0.27718 0.90876 0.75742 0.0
H674 H 0.30583 0.95 0.72595 0.0
H675 H 0.19401 0.92542 0.95477 0.0
H676 H 0.21688 0.9394 0.04189 0.0
H677 H 0.20798 0.90068 1.0002 0.0
loop_
_geom_bond_atom_site_label_1
_geom_bond_atom_site_label_2
_geom_bond_distance
_geom_bond_site_symmetry_2
_ccdc_geom_bond_type
Co0 N4 2.148 . S
Co0 N10 2.128 1_554 S
Co0 N20 2.194 . S
Co0 O25 2.351 . S
Co0 O26 2.155 . S
Co0 O27 2.096 1_545 S
C1 N4 1.301 . S
C1 N5 1.328 . S
C1 H6 0.930 . S
C2 C3 1.333 . S
C2 N4 1.317 1_565 S
C2 H7 0.930 . S
C3 C2 1.333 . S
C3 N5 1.350 1_565 S
C3 H29 0.931 . S
N4 Co0 2.148 . S
N4 C1 1.301 . S
N4 C2 1.317 1_545 S
N5 C1 1.328 . S
N5 C3 1.350 1_545 S
H6 C1 0.930 . S
H7 C2 0.930 . S
C8 O9 1.224 . S
C8 O27 1.247 . S
O9 C8 1.224 . S
N10 Co0 2.128 1_556 S
N10 C11 1.355 . S
N10 C13 1.311 . S
C11 N10 1.355 . S
C11 C12 1.363 . S
C11 H23 0.929 . S
C12 C11 1.363 . S
C12 N14 1.375 . S
C12 H30 0.931 . S
C13 N10 1.311 . S
C13 N14 1.347 . S
C13 H24 0.929 . S
N14 C12 1.375 . S
N14 C13 1.347 . S
C15 C18 1.365 . S
C15 N20 1.328 . S
C15 H21 0.929 . S
C16 C17 1.362 1_565 S
C16 C19 1.378 . S
C16 H31 0.929 . S
C17 C16 1.362 1_545 S
C17 C18 1.366 . S
C18 C15 1.365 . S
C18 C17 1.366 . S
C18 H32 0.930 . S
C19 C16 1.378 . S
C19 N20 1.315 1_565 S
C19 H22 0.930 . S
N20 Co0 2.194 . S
N20 C15 1.328 . S
N20 C19 1.315 1_545 S
H21 C15 0.929 . S
H22 C19 0.930 . S
H23 C11 0.929 . S
H24 C13 0.929 . S
O25 Co0 2.351 . S
O25 C28 1.244 . S
O26 Co0 2.155 . S
O26 C28 1.240 . S
O27 Co0 2.096 1_565 S
O27 C8 1.247 . S
C28 O25 1.244 . S
C28 O26 1.240 . S
H29 C3 0.931 . S
H30 C12 0.931 . S
H31 C16 0.929 . S
H32 C18 0.930 . S
Co33 N37 2.148 . S
Co33 N43 2.128 . S
Co33 N53 2.194 . S
Co33 O58 2.351 . S
Co33 O59 2.155 . S
Co33 O60 2.096 . S
C34 N37 1.301 . S
C34 N38 1.328 . S
C34 H39 0.930 . S
C35 C36 1.333 . S
C35 N37 1.317 . S
C35 H40 0.930 . S
C36 C35 1.333 . S
C36 N38 1.350 . S
C36 H62 0.931 . S
N37 Co33 2.148 . S
N37 C34 1.301 . S
N37 C35 1.317 . S
N38 C34 1.328 . S
N38 C36 1.350 . S
H39 C34 0.930 . S
H40 C35 0.930 . S
C41 O42 1.224 . S
C41 O60 1.247 . S
O42 C41 1.224 . S
N43 Co33 2.128 . S
N43 C44 1.355 . S
N43 C46 1.311 . S
C44 N43 1.355 . S
C44 C45 1.363 . S
C44 H56 0.929 . S
C45 C44 1.363 . S
C45 N47 1.375 . S
C45 H63 0.931 . S
C46 N43 1.311 . S
C46 N47 1.347 . S
C46 H57 0.929 . S
N47 C45 1.375 . S
N47 C46 1.347 . S
C48 C51 1.365 . S
C48 N53 1.328 . S
C48 H54 0.929 . S
C49 C50 1.362 . S
C49 C52 1.378 . S
C49 H64 0.929 . S
C50 C49 1.362 . S
C50 C51 1.366 . S
C51 C48 1.365 . S
C51 C50 1.366 . S
C51 H65 0.930 . S
C52 C49 1.378 . S
C52 N53 1.315 . S
C52 H55 0.930 . S
N53 Co33 2.194 . S
N53 C48 1.328 . S
N53 C52 1.315 . S
H54 C48 0.929 . S
H55 C52 0.930 . S
H56 C44 0.929 . S
H57 C46 0.929 . S
O58 Co33 2.351 . S
O58 C61 1.244 . S
O59 Co33 2.155 . S
O59 C61 1.240 . S
O60 Co33 2.096 . S
O60 C41 1.247 . S
C61 O58 1.244 . S
C61 O59 1.240 . S
H62 C36 0.931 . S
H63 C45 0.931 . S
H64 C49 0.929 . S
H65 C51 0.930 . S
Co66 N70 2.148 . S
Co66 N76 2.128 . S
Co66 N86 2.194 . S
Co66 O91 2.351 1_455 S
Co66 O92 2.155 1_455 S
Co66 O93 2.096 . S
C67 N70 1.301 . S
C67 N71 1.328 . S
C67 H72 0.930 . S
C68 C69 1.333 . S
C68 N70 1.317 . S
C68 H73 0.930 . S
C69 C68 1.333 . S
C69 N71 1.350 . S
C69 H95 0.931 . S
N70 Co66 2.148 . S
N70 C67 1.301 . S
N70 C68 1.317 . S
N71 C67 1.328 . S
N71 C69 1.350 . S
H72 C67 0.930 . S
H73 C68 0.930 . S
C74 O75 1.224 . S
C74 O93 1.247 . S
O75 C74 1.224 . S
N76 Co66 2.128 . S
N76 C77 1.355 1_455 S
N76 C79 1.311 . S
C77 N76 1.355 1_655 S
C77 C78 1.363 . S
C77 H89 0.929 . S
C78 C77 1.363 . S
C78 N80 1.375 1_655 S
C78 H96 0.931 . S
C79 N76 1.311 . S
C79 N80 1.347 . S
C79 H90 0.929 . S
N80 C78 1.375 1_455 S
N80 C79 1.347 . S
C81 C84 1.365 . S
C81 N86 1.328 1_655 S
C81 H87 0.929 . S
C82 C83 1.362 . S
C82 C85 1.378 . S
C82 H97 0.929 . S
C83 C82 1.362 . S
C83 C84 1.366 1_455 S
C84 C81 1.365 . S
C84 C83 1.366 1_655 S
C84 H98 0.930 . S
C85 C82 1.378 . S
C85 N86 1.315 . S
C85 H88 0.930 . S
N86 Co66 2.194 . S
N86 C81 1.328 1_455 S
N86 C85 1.315 . S
H87 C81 0.929 . S
H88 C85 0.930 . S
H89 C77 0.929 . S
H90 C79 0.929 . S
O91 Co66 2.351 1_655 S
O91 C94 1.244 . S
O92 Co66 2.155 1_655 S
O92 C94 1.240 . S
O93 Co66 2.096 . S
O93 C74 1.247 . S
C94 O91 1.244 . S
C94 O92 1.240 . S
H95 C69 0.931 . S
H96 C78 0.931 . S
H97 C82 0.929 . S
H98 C84 0.930 . S
Co99 N103 2.148 . S
Co99 N109 2.128 1_554 S
Co99 N119 2.194 . S
Co99 O124 2.351 1_545 S
Co99 O125 2.155 1_545 S
Co99 O126 2.096 . S
C100 N103 1.301 . S
C100 N104 1.328 . S
C100 H105 0.930 1_545 S
C101 C102 1.333 . S
C101 N103 1.317 . S
C101 H106 0.930 . S
C102 C101 1.333 . S
C102 N104 1.350 . S
C102 H128 0.931 . S
N103 Co99 2.148 . S
N103 C100 1.301 . S
N103 C101 1.317 . S
N104 C100 1.328 . S
N104 C102 1.350 . S
H105 C100 0.930 1_565 S
H106 C101 0.930 . S
C107 O108 1.224 . S
C107 O126 1.247 . S
O108 C107 1.224 . S
N109 Co99 2.128 1_556 S
N109 C110 1.355 1_545 S
N109 C112 1.311 . S
C110 N109 1.355 1_565 S
C110 C111 1.363 . S
C110 H122 0.929 . S
C111 C110 1.363 . S
C111 N113 1.375 1_565 S
C111 H129 0.931 . S
C112 N109 1.311 . S
C112 N113 1.347 . S
C112 H123 0.929 . S
N113 C111 1.375 1_545 S
N113 C112 1.347 . S
C114 C117 1.365 . S
C114 N119 1.328 1_565 S
C114 H120 0.929 . S
C115 C116 1.362 . S
C115 C118 1.378 . S
C115 H130 0.929 . S
C116 C115 1.362 . S
C116 C117 1.366 1_545 S
C117 C114 1.365 . S
C117 C116 1.366 1_565 S
C117 H131 0.930 . S
C118 C115 1.378 . S
C118 N119 1.315 . S
C118 H121 0.930 . S
N119 Co99 2.194 . S
N119 C114 1.328 1_545 S
N119 C118 1.315 . S
H120 C114 0.929 . S
H121 C118 0.930 . S
H122 C110 0.929 . S
H123 C112 0.929 . S
O124 Co99 2.351 1_565 S
O124 C127 1.244 . S
O125 Co99 2.155 1_565 S
O125 C127 1.240 . S
O126 Co99 2.096 . S
O126 C107 1.247 . S
C127 O124 1.244 . S
C127 O125 1.240 . S
H128 C102 0.931 . S
H129 C111 0.931 . S
H130 C115 0.929 . S
H131 C117 0.930 . S
Co132 N136 2.148 . S
Co132 N142 2.128 . S
Co132 N152 2.194 . S
Co132 O157 2.351 . S
Co132 O158 2.155 . S
Co132 O159 2.096 . S
C133 N136 1.301 . S
C133 N137 1.328 . S
C133 H138 0.930 . S
C134 C135 1.333 . S
C134 N136 1.317 . S
C134 H139 0.930 . S
C135 C134 1.333 . S
C135 N137 1.350 . S
C135 H161 0.931 . S
N136 Co132 2.148 . S
N136 C133 1.301 . S
N136 C134 1.317 . S
N137 C133 1.328 . S
N137 C135 1.350 . S
H138 C133 0.930 . S
H139 C134 0.930 . S
C140 O141 1.224 . S
C140 O159 1.247 . S
O141 C140 1.224 . S
N142 Co132 2.128 . S
N142 C143 1.355 . S
N142 C145 1.311 . S
C143 N142 1.355 . S
C143 C144 1.363 . S
C143 H155 0.929 . S
C144 C143 1.363 . S
C144 N146 1.375 . S
C144 H162 0.931 . S
C145 N142 1.311 . S
C145 N146 1.347 . S
C145 H156 0.929 . S
N146 C144 1.375 . S
N146 C145 1.347 . S
C147 C150 1.365 . S
C147 N152 1.328 . S
C147 H153 0.929 . S
C148 C149 1.362 . S
C148 C151 1.378 . S
C148 H163 0.929 . S
C149 C148 1.362 . S
C149 C150 1.366 . S
C150 C147 1.365 . S
C150 C149 1.366 . S
C150 H164 0.930 . S
C151 C148 1.378 . S
C151 N152 1.315 . S
C151 H154 0.930 . S
N152 Co132 2.194 . S
N152 C147 1.328 . S
N152 C151 1.315 . S
H153 C147 0.929 . S
H154 C151 0.930 . S
H155 C143 0.929 . S
H156 C145 0.929 . S
O157 Co132 2.351 . S
O157 C160 1.244 . S
O158 Co132 2.155 . S
O158 C160 1.240 . S
O159 Co132 2.096 . S
O159 C140 1.247 . S
C160 O157 1.244 . S
C160 O158 1.240 . S
H161 C135 0.931 . S
H162 C144 0.931 . S
H163 C148 0.929 . S
H164 C150 0.930 . S
Co165 N169 2.148 . S
Co165 N175 2.128 . S
Co165 N185 2.194 . S
Co165 O190 2.351 . S
Co165 O191 2.155 . S
Co165 O192 2.096 1_455 S
C166 N169 1.301 . S
C166 N170 1.328 . S
C166 H171 0.930 . S
C167 C168 1.333 . S
C167 N169 1.317 1_655 S
C167 H172 0.930 . S
C168 C167 1.333 . S
C168 N170 1.350 1_655 S
C168 H194 0.931 . S
N169 Co165 2.148 . S
N169 C166 1.301 . S
N169 C167 1.317 1_455 S
N170 C166 1.328 . S
N170 C168 1.350 1_455 S
H171 C166 0.930 . S
H172 C167 0.930 . S
C173 O174 1.224 . S
C173 O192 1.247 . S
O174 C173 1.224 . S
N175 Co165 2.128 . S
N175 C176 1.355 . S
N175 C178 1.311 . S
C176 N175 1.355 . S
C176 C177 1.363 . S
C176 H188 0.929 . S
C177 C176 1.363 . S
C177 N179 1.375 . S
C177 H195 0.931 . S
C178 N175 1.311 . S
C178 N179 1.347 . S
C178 H189 0.929 . S
N179 C177 1.375 . S
N179 C178 1.347 . S
C180 C183 1.365 . S
C180 N185 1.328 . S
C180 H186 0.929 . S
C181 C182 1.340 1_655 S
C181 C184 1.388 1_655 S
C181 H196 0.941 . S
C182 C181 1.340 1_455 S
C182 C183 1.366 . S
C183 C180 1.365 . S
C183 C182 1.366 . S
C183 H197 0.930 . S
C184 C181 1.388 1_455 S
C184 N185 1.315 . S
C184 H187 0.930 1_455 S
N185 Co165 2.194 . S
N185 C180 1.328 . S
N185 C184 1.315 . S
H186 C180 0.929 . S
H187 C184 0.930 1_655 S
H188 C176 0.929 . S
H189 C178 0.929 . S
O190 Co165 2.351 . S
O190 C193 1.244 . S
O191 Co165 2.155 . S
O191 C193 1.240 . S
O192 Co165 2.096 1_655 S
O192 C173 1.247 . S
C193 O190 1.244 . S
C193 O191 1.240 . S
H194 C168 0.931 . S
H195 C177 0.931 . S
H196 C181 0.941 . S
H197 C183 0.930 . S
C198 C199 1.391 . S
C198 C200 1.394 . S
C198 H214 0.931 . S
C199 C198 1.391 . S
C199 C203 1.376 . S
C200 C198 1.394 . S
C200 C201 1.369 . S
C200 C204 1.531 . S
C201 C200 1.369 . S
C201 C202 1.410 . S
C201 C209 1.503 . S
C202 C201 1.410 . S
C202 C203 1.392 . S
C202 C205 1.511 1_544 S
C203 C199 1.376 . S
C203 C202 1.392 . S
C203 H215 0.929 1_544 S
C204 C200 1.531 . S
C204 H216 0.960 . S
C204 H217 0.962 . S
C204 H218 0.960 . S
C205 C202 1.511 1_566 S
C205 H219 0.961 . S
C205 H220 0.961 . S
C205 H221 0.961 . S
C206 C207 1.370 . S
C206 C208 1.363 . S
C206 H222 0.931 . S
C207 C206 1.370 . S
C207 C211 1.408 1_545 S
C208 C206 1.363 . S
C208 C209 1.370 . S
C208 C212 1.524 . S
C209 C201 1.503 . S
C209 C208 1.370 . S
C209 C210 1.403 1_545 S
C210 C209 1.403 1_565 S
C210 C211 1.404 . S
C210 C213 1.539 . S
C211 C207 1.408 1_565 S
C211 C210 1.404 . S
C211 H223 0.930 . S
C212 C208 1.524 . S
C212 H224 0.956 . S
C212 H225 0.961 1_554 S
C212 H226 0.961 1_554 S
C213 C210 1.539 . S
C213 H227 0.958 . S
C213 H228 0.961 . S
C213 H229 0.960 . S
H214 C198 0.931 . S
H215 C203 0.929 1_566 S
H216 C204 0.960 . S
H217 C204 0.962 . S
H218 C204 0.960 . S
H219 C205 0.961 . S
H220 C205 0.961 . S
H221 C205 0.961 . S
H222 C206 0.931 . S
H223 C211 0.930 . S
H224 C212 0.956 . S
H225 C212 0.961 1_556 S
H226 C212 0.961 1_556 S
H227 C213 0.958 . S
H228 C213 0.961 . S
H229 C213 0.960 . S
C230 C231 1.391 . S
C230 C232 1.394 . S
C230 H246 0.931 . S
C231 C230 1.391 . S
C231 C235 1.376 . S
C232 C230 1.394 . S
C232 C233 1.369 . S
C232 C236 1.531 . S
C233 C232 1.369 . S
C233 C234 1.410 . S
C233 C241 1.503 . S
C234 C233 1.410 . S
C234 C235 1.392 . S
C234 C237 1.511 . S
C235 C231 1.376 . S
C235 C234 1.392 . S
C235 H247 0.929 . S
C236 C232 1.531 . S
C236 H248 0.960 . S
C236 H249 0.962 . S
C236 H250 0.960 . S
C237 C234 1.511 . S
C237 H251 0.961 . S
C237 H252 0.961 . S
C237 H253 0.961 . S
C238 C239 1.370 . S
C238 C240 1.363 . S
C238 H254 0.931 . S
C239 C238 1.370 . S
C239 C243 1.408 . S
C240 C238 1.363 . S
C240 C241 1.370 . S
C240 C244 1.524 . S
C241 C233 1.503 . S
C241 C240 1.370 . S
C241 C242 1.403 . S
C242 C241 1.403 . S
C242 C243 1.404 . S
C242 C245 1.539 . S
C243 C239 1.408 . S
C243 C242 1.404 . S
C243 H255 0.930 . S
C244 C240 1.524 . S
C244 H256 0.956 . S
C244 H257 0.961 . S
C244 H258 0.961 . S
C245 C242 1.539 . S
C245 H259 0.958 . S
C245 H260 0.961 . S
C245 H261 0.960 . S
H246 C230 0.931 . S
H247 C235 0.929 . S
H248 C236 0.960 . S
H249 C236 0.962 . S
H250 C236 0.960 . S
H251 C237 0.961 . S
H252 C237 0.961 . S
H253 C237 0.961 . S
H254 C238 0.931 . S
H255 C243 0.930 . S
H256 C244 0.956 . S
H257 C244 0.961 . S
H258 C244 0.961 . S
H259 C245 0.958 . S
H260 C245 0.961 . S
H261 C245 0.960 . S
C262 C263 1.356 1_655 S
C262 C264 1.422 1_655 S
C262 H278 0.948 . S
C263 C262 1.356 1_455 S
C263 C267 1.376 . S
C264 C262 1.422 1_455 S
C264 C265 1.378 . S
C264 C268 1.511 1_455 S
C265 C264 1.378 . S
C265 C266 1.410 . S
C265 C273 1.503 . S
C266 C265 1.410 . S
C266 C267 1.392 . S
C266 C269 1.511 . S
C267 C263 1.376 . S
C267 C266 1.392 . S
C267 H279 0.929 . S
C268 C264 1.511 1_655 S
C268 H280 0.960 . S
C268 H281 0.962 . S
C268 H282 0.960 . S
C269 C266 1.511 . S
C269 H283 0.961 . S
C269 H284 0.961 . S
C269 H285 0.961 . S
C270 C271 1.370 . S
C270 C272 1.363 . S
C270 H286 0.931 . S
C271 C270 1.370 . S
C271 C275 1.408 . S
C272 C270 1.363 . S
C272 C273 1.370 . S
C272 C276 1.525 . S
C273 C265 1.503 . S
C273 C272 1.370 . S
C273 C274 1.403 . S
C274 C273 1.403 . S
C274 C275 1.404 . S
C274 C277 1.539 . S
C275 C271 1.408 . S
C275 C274 1.404 . S
C275 H287 0.930 . S
C276 C272 1.525 . S
C276 H288 0.948 1_455 S
C276 H289 0.978 . S
C276 H290 0.951 1_455 S
C277 C274 1.539 . S
C277 H291 0.958 . S
C277 H292 0.961 . S
C277 H293 0.960 . S
H278 C262 0.948 . S
H279 C267 0.929 . S
H280 C268 0.960 . S
H281 C268 0.962 . S
H282 C268 0.960 . S
H283 C269 0.961 . S
H284 C269 0.961 . S
H285 C269 0.961 . S
H286 C270 0.931 . S
H287 C275 0.930 . S
H288 C276 0.948 1_655 S
H289 C276 0.978 . S
H290 C276 0.951 1_655 S
H291 C277 0.958 . S
H292 C277 0.961 . S
H293 C277 0.960 . S
C294 C295 1.391 . S
C294 C296 1.394 . S
C294 H310 0.931 . S
C295 C294 1.391 . S
C295 C299 1.376 1_545 S
C296 C294 1.394 . S
C296 C297 1.369 . S
C296 C300 1.531 . S
C297 C296 1.369 . S
C297 C298 1.410 1_545 S
C297 C305 1.503 . S
C298 C297 1.410 1_565 S
C298 C299 1.392 . S
C298 C301 1.511 . S
C299 C295 1.376 1_565 S
C299 C298 1.392 . S
C299 H311 0.929 . S
C300 C296 1.531 . S
C300 H312 0.960 . S
C300 H313 0.962 . S
C300 H314 0.960 . S
C301 C298 1.511 . S
C301 H315 0.961 . S
C301 H316 0.961 . S
C301 H317 0.961 . S
C302 C303 1.370 . S
C302 C304 1.363 . S
C302 H318 0.931 . S
C303 C302 1.370 . S
C303 C307 1.408 . S
C304 C302 1.363 . S
C304 C305 1.370 . S
C304 C308 1.524 . S
C305 C297 1.503 . S
C305 C304 1.370 . S
C305 C306 1.403 . S
C306 C305 1.403 . S
C306 C307 1.404 . S
C306 C309 1.539 . S
C307 C303 1.408 . S
C307 C306 1.404 . S
C307 H319 0.930 . S
C308 C304 1.524 . S
C308 H320 0.956 . S
C308 H321 0.961 1_545 S
C308 H322 0.961 . S
C309 C306 1.539 . S
C309 H323 0.958 . S
C309 H324 0.961 . S
C309 H325 0.960 . S
H310 C294 0.931 . S
H311 C299 0.929 . S
H312 C300 0.960 . S
H313 C300 0.962 . S
H314 C300 0.960 . S
H315 C301 0.961 . S
H316 C301 0.961 . S
H317 C301 0.961 . S
H318 C302 0.931 . S
H319 C307 0.930 . S
H320 C308 0.956 . S
H321 C308 0.961 1_565 S
H322 C308 0.961 . S
H323 C309 0.958 . S
H324 C309 0.961 . S
H325 C309 0.960 . S
C326 C327 1.391 . S
C326 C328 1.394 . S
C326 H342 0.931 . S
C327 C326 1.391 . S
C327 C331 1.376 . S
C328 C326 1.394 . S
C328 C329 1.369 . S
C328 C332 1.531 . S
C329 C328 1.369 . S
C329 C330 1.410 . S
C329 C337 1.503 . S
C330 C329 1.410 . S
C330 C331 1.392 . S
C330 C333 1.511 . S
C331 C327 1.376 . S
C331 C330 1.392 . S
C331 H343 0.929 . S
C332 C328 1.531 . S
C332 H344 0.960 . S
C332 H345 0.962 . S
C332 H346 0.960 . S
C333 C330 1.511 . S
C333 H347 0.961 . S
C333 H348 0.961 . S
C333 H349 0.961 . S
C334 C335 1.370 . S
C334 C336 1.363 1_554 S
C334 H350 0.931 . S
C335 C334 1.370 . S
C335 C339 1.408 . S
C336 C334 1.363 1_556 S
C336 C337 1.370 . S
C336 C340 1.524 . S
C337 C329 1.503 . S
C337 C336 1.370 . S
C337 C338 1.403 . S
C338 C337 1.403 . S
C338 C339 1.404 1_556 S
C338 C341 1.539 . S
C339 C335 1.408 . S
C339 C338 1.404 1_554 S
C339 H351 0.930 . S
C340 C336 1.524 . S
C340 H352 0.956 . S
C340 H353 0.961 . S
C340 H354 0.961 . S
C341 C338 1.539 . S
C341 H355 0.958 . S
C341 H356 0.954 1_556 S
C341 H357 0.960 . S
H342 C326 0.931 . S
H343 C331 0.929 . S
H344 C332 0.960 . S
H345 C332 0.962 . S
H346 C332 0.960 . S
H347 C333 0.961 . S
H348 C333 0.961 . S
H349 C333 0.961 . S
H350 C334 0.931 . S
H351 C339 0.930 . S
H352 C340 0.956 . S
H353 C340 0.961 . S
H354 C340 0.961 . S
H355 C341 0.958 . S
H356 C341 0.954 1_554 S
H357 C341 0.960 . S
C358 C359 1.391 . S
C358 C360 1.394 . S
C358 H374 0.931 . S
C359 C358 1.391 . S
C359 C363 1.400 . S
C360 C358 1.394 . S
C360 C361 1.369 . S
C360 C364 1.531 . S
C361 C360 1.369 . S
C361 C362 1.410 1_455 S
C361 C369 1.503 . S
C362 C361 1.410 1_655 S
C362 C363 1.388 1_655 S
C362 C365 1.511 . S
C363 C359 1.400 . S
C363 C362 1.388 1_455 S
C363 H375 0.910 1_455 S
C364 C360 1.531 . S
C364 H376 0.960 . S
C364 H377 0.962 . S
C364 H378 0.960 . S
C365 C362 1.511 . S
C365 H379 0.961 . S
C365 H380 0.961 . S
C365 H381 0.961 . S
C366 C367 1.370 . S
C366 C368 1.363 . S
C366 H382 0.931 . S
C367 C366 1.370 . S
C367 C371 1.408 . S
C368 C366 1.363 . S
C368 C369 1.370 . S
C368 C372 1.524 . S
C369 C361 1.503 . S
C369 C368 1.370 . S
C369 C370 1.403 . S
C370 C369 1.403 . S
C370 C371 1.404 . S
C370 C373 1.539 . S
C371 C367 1.408 . S
C371 C370 1.404 . S
C371 H383 0.930 . S
C372 C368 1.524 . S
C372 H384 0.956 . S
C372 H385 0.961 . S
C372 H386 0.961 . S
C373 C370 1.539 . S
C373 H387 0.958 . S
C373 H388 0.961 1_455 S
C373 H389 0.960 1_455 S
H374 C358 0.931 . S
H375 C363 0.910 1_655 S
H376 C364 0.960 . S
H377 C364 0.962 . S
H378 C364 0.960 . S
H379 C365 0.961 . S
H380 C365 0.961 . S
H381 C365 0.961 . S
H382 C366 0.931 . S
H383 C371 0.930 . S
H384 C372 0.956 . S
H385 C372 0.961 . S
H386 C372 0.961 . S
H387 C373 0.958 . S
H388 C373 0.961 1_655 S
H389 C373 0.960 1_655 S
C390 C391 1.391 . S
C390 C392 1.394 . S
C390 H406 0.931 . S
C391 C390 1.391 . S
C391 C395 1.376 1_545 S
C392 C390 1.394 . S
C392 C393 1.369 . S
C392 C396 1.531 . S
C393 C392 1.369 . S
C393 C394 1.410 . S
C393 C401 1.503 . S
C394 C393 1.410 . S
C394 C395 1.392 1_545 S
C394 C397 1.511 1_545 S
C395 C391 1.376 1_565 S
C395 C394 1.392 1_565 S
C395 H407 0.929 . S
C396 C392 1.531 . S
C396 H408 0.960 . S
C396 H409 0.962 . S
C396 H410 0.960 . S
C397 C394 1.511 1_565 S
C397 H411 0.961 . S
C397 H412 0.961 . S
C397 H413 0.961 . S
C398 C399 1.370 . S
C398 C400 1.363 . S
C398 H414 0.931 1_545 S
C399 C398 1.370 . S
C399 C403 1.408 . S
C400 C398 1.363 . S
C400 C401 1.370 . S
C400 C404 1.524 1_545 S
C401 C393 1.503 . S
C401 C400 1.370 . S
C401 C402 1.403 . S
C402 C401 1.403 . S
C402 C403 1.404 . S
C402 C405 1.539 . S
C403 C399 1.408 . S
C403 C402 1.404 . S
C403 H415 0.930 . S
C404 C400 1.524 1_565 S
C404 H416 0.956 . S
C404 H417 0.961 . S
C404 H418 0.961 . S
C405 C402 1.539 . S
C405 H419 0.958 . S
C405 H420 0.961 . S
C405 H421 0.960 . S
H406 C390 0.931 . S
H407 C395 0.929 . S
H408 C396 0.960 . S
H409 C396 0.962 . S
H410 C396 0.960 . S
H411 C397 0.961 . S
H412 C397 0.961 . S
H413 C397 0.961 . S
H414 C398 0.931 1_565 S
H415 C403 0.930 . S
H416 C404 0.956 . S
H417 C404 0.961 . S
H418 C404 0.961 . S
H419 C405 0.958 . S
H420 C405 0.961 . S
H421 C405 0.960 . S
C422 C423 1.391 . S
C422 C424 1.394 . S
C422 H438 0.931 . S
C423 C422 1.391 . S
C423 C427 1.376 . S
C424 C422 1.394 . S
C424 C425 1.369 . S
C424 C428 1.531 . S
C425 C424 1.369 . S
C425 C426 1.410 . S
C425 C433 1.503 . S
C426 C425 1.410 . S
C426 C427 1.392 . S
C426 C429 1.511 . S
C427 C423 1.376 . S
C427 C426 1.392 . S
C427 H439 0.929 . S
C428 C424 1.531 . S
C428 H440 0.960 . S
C428 H441 0.962 . S
C428 H442 0.960 . S
C429 C426 1.511 . S
C429 H443 0.961 . S
C429 H444 0.961 . S
C429 H445 0.961 . S
C430 C431 1.370 . S
C430 C432 1.363 1_554 S
C430 H446 0.931 . S
C431 C430 1.370 . S
C431 C435 1.408 . S
C432 C430 1.363 1_556 S
C432 C433 1.370 . S
C432 C436 1.524 . S
C433 C425 1.503 . S
C433 C432 1.370 . S
C433 C434 1.403 . S
C434 C433 1.403 . S
C434 C435 1.404 1_556 S
C434 C437 1.539 . S
C435 C431 1.408 . S
C435 C434 1.404 1_554 S
C435 H447 0.930 . S
C436 C432 1.524 . S
C436 H448 0.956 . S
C436 H449 0.961 . S
C436 H450 0.961 . S
C437 C434 1.539 . S
C437 H451 0.958 . S
C437 H452 0.961 1_556 S
C437 H453 0.960 . S
H438 C422 0.931 . S
H439 C427 0.929 . S
H440 C428 0.960 . S
H441 C428 0.962 . S
H442 C428 0.960 . S
H443 C429 0.961 . S
H444 C429 0.961 . S
H445 C429 0.961 . S
H446 C430 0.931 . S
H447 C435 0.930 . S
H448 C436 0.956 . S
H449 C436 0.961 . S
H450 C436 0.961 . S
H451 C437 0.958 . S
H452 C437 0.961 1_554 S
H453 C437 0.960 . S
C454 C455 1.391 . S
C454 C456 1.394 . S
C454 H470 0.931 . S
C455 C454 1.391 . S
C455 C459 1.376 . S
C456 C454 1.394 . S
C456 C457 1.369 . S
C456 C460 1.531 . S
C457 C456 1.369 . S
C457 C458 1.410 . S
C457 C465 1.503 . S
C458 C457 1.410 . S
C458 C459 1.392 . S
C458 C461 1.496 1_455 S
C459 C455 1.376 . S
C459 C458 1.392 . S
C459 H471 0.929 . S
C460 C456 1.531 . S
C460 H472 0.960 . S
C460 H473 0.962 . S
C460 H474 0.960 . S
C461 C458 1.496 1_655 S
C461 H475 0.965 1_655 S
C461 H476 0.955 1_655 S
C461 H477 0.978 . S
C462 C463 1.370 . S
C462 C464 1.363 . S
C462 H478 0.931 . S
C463 C462 1.370 . S
C463 C467 1.408 1_455 S
C464 C462 1.363 . S
C464 C465 1.370 . S
C464 C468 1.524 . S
C465 C457 1.503 . S
C465 C464 1.370 . S
C465 C466 1.403 1_455 S
C466 C465 1.403 1_655 S
C466 C467 1.404 . S
C466 C469 1.539 . S
C467 C463 1.408 1_655 S
C467 C466 1.404 . S
C467 H479 0.930 . S
C468 C464 1.524 . S
C468 H480 0.956 . S
C468 H481 0.961 . S
C468 H482 0.961 . S
C469 C466 1.539 . S
C469 H483 0.958 . S
C469 H484 0.961 . S
C469 H485 0.960 . S
H470 C454 0.931 . S
H471 C459 0.929 . S
H472 C460 0.960 . S
H473 C460 0.962 . S
H474 C460 0.960 . S
H475 C461 0.965 1_455 S
H476 C461 0.955 1_455 S
H477 C461 0.978 . S
H478 C462 0.931 . S
H479 C467 0.930 . S
H480 C468 0.956 . S
H481 C468 0.961 . S
H482 C468 0.961 . S
H483 C469 0.958 . S
H484 C469 0.961 . S
H485 C469 0.960 . S
C486 C487 1.391 . S
C486 C488 1.394 . S
C486 H502 0.931 . S
C487 C486 1.391 . S
C487 C491 1.376 . S
C488 C486 1.394 . S
C488 C489 1.369 . S
C488 C492 1.531 . S
C489 C488 1.369 . S
C489 C490 1.410 . S
C489 C497 1.503 . S
C490 C489 1.410 . S
C490 C491 1.392 . S
C490 C493 1.511 . S
C491 C487 1.376 . S
C491 C490 1.392 . S
C491 H503 0.929 . S
C492 C488 1.531 . S
C492 H504 0.960 . S
C492 H505 0.962 . S
C492 H506 0.960 . S
C493 C490 1.511 . S
C493 H507 0.961 . S
C493 H508 0.961 . S
C493 H509 0.961 . S
C494 C495 1.370 . S
C494 C496 1.363 . S
C494 H510 0.931 . S
C495 C494 1.370 . S
C495 C499 1.408 . S
C496 C494 1.363 . S
C496 C497 1.370 . S
C496 C500 1.524 . S
C497 C489 1.503 . S
C497 C496 1.370 . S
C497 C498 1.403 . S
C498 C497 1.403 . S
C498 C499 1.404 . S
C498 C501 1.539 . S
C499 C495 1.408 . S
C499 C498 1.404 . S
C499 H511 0.930 . S
C500 C496 1.524 . S
C500 H512 0.956 . S
C500 H513 0.961 . S
C500 H514 0.961 . S
C501 C498 1.539 . S
C501 H515 0.958 . S
C501 H516 0.961 . S
C501 H517 0.960 . S
H502 C486 0.931 . S
H503 C491 0.929 . S
H504 C492 0.960 . S
H505 C492 0.962 . S
H506 C492 0.960 . S
H507 C493 0.961 . S
H508 C493 0.961 . S
H509 C493 0.961 . S
H510 C494 0.931 . S
H511 C499 0.930 . S
H512 C500 0.956 . S
H513 C500 0.961 . S
H514 C500 0.961 . S
H515 C501 0.958 . S
H516 C501 0.961 . S
H517 C501 0.960 . S
C518 C519 1.391 . S
C518 C520 1.394 . S
C518 H534 0.931 . S
C519 C518 1.391 . S
C519 C523 1.376 . S
C520 C518 1.394 . S
C520 C521 1.369 . S
C520 C524 1.531 . S
C521 C520 1.369 . S
C521 C522 1.410 . S
C521 C529 1.503 . S
C522 C521 1.410 . S
C522 C523 1.392 . S
C522 C525 1.511 . S
C523 C519 1.376 . S
C523 C522 1.392 . S
C523 H535 0.929 . S
C524 C520 1.531 . S
C524 H536 0.960 . S
C524 H537 0.962 . S
C524 H538 0.960 . S
C525 C522 1.511 . S
C525 H539 0.961 . S
C525 H540 0.961 . S
C525 H541 0.961 . S
C526 C527 1.370 . S
C526 C528 1.363 . S
C526 H542 0.931 . S
C527 C526 1.370 . S
C527 C531 1.408 . S
C528 C526 1.363 . S
C528 C529 1.370 . S
C528 C532 1.524 . S
C529 C521 1.503 . S
C529 C528 1.370 . S
C529 C530 1.403 . S
C530 C529 1.403 . S
C530 C531 1.404 . S
C530 C533 1.539 . S
C531 C527 1.408 . S
C531 C530 1.404 . S
C531 H543 0.930 . S
C532 C528 1.524 . S
C532 H544 0.956 . S
C532 H545 0.961 . S
C532 H546 0.961 . S
C533 C530 1.539 . S
C533 H547 0.958 . S
C533 H548 0.961 . S
C533 H549 0.960 . S
H534 C518 0.931 . S
H535 C523 0.929 . S
H536 C524 0.960 . S
H537 C524 0.962 . S
H538 C524 0.960 . S
H539 C525 0.961 . S
H540 C525 0.961 . S
H541 C525 0.961 . S
H542 C526 0.931 . S
H543 C531 0.930 . S
H544 C532 0.956 . S
H545 C532 0.961 . S
H546 C532 0.961 . S
H547 C533 0.958 . S
H548 C533 0.961 . S
H549 C533 0.960 . S
C550 C551 1.391 1_554 S
C550 C552 1.394 1_554 S
C550 H566 0.931 . S
C551 C550 1.391 1_556 S
C551 C555 1.376 . S
C552 C550 1.394 1_556 S
C552 C553 1.369 . S
C552 C556 1.531 1_556 S
C553 C552 1.369 . S
C553 C554 1.410 . S
C553 C561 1.503 . S
C554 C553 1.410 . S
C554 C555 1.392 . S
C554 C557 1.511 . S
C555 C551 1.376 . S
C555 C554 1.392 . S
C555 H567 0.929 . S
C556 C552 1.531 1_554 S
C556 H568 0.960 . S
C556 H569 0.962 1_554 S
C556 H570 0.960 . S
C557 C554 1.511 . S
C557 H571 0.961 . S
C557 H572 0.961 . S
C557 H573 0.961 . S
C558 C559 1.370 . S
C558 C560 1.363 . S
C558 H574 0.931 . S
C559 C558 1.370 . S
C559 C563 1.408 . S
C560 C558 1.363 . S
C560 C561 1.370 . S
C560 C564 1.524 . S
C561 C553 1.503 . S
C561 C560 1.370 . S
C561 C562 1.403 . S
C562 C561 1.403 . S
C562 C563 1.404 . S
C562 C565 1.539 . S
C563 C559 1.408 . S
C563 C562 1.404 . S
C563 H575 0.930 . S
C564 C560 1.524 . S
C564 H576 0.956 . S
C564 H577 0.961 . S
C564 H578 0.961 . S
C565 C562 1.539 . S
C565 H579 0.958 1_556 S
C565 H580 0.961 . S
C565 H581 0.960 . S
H566 C550 0.931 . S
H567 C555 0.929 . S
H568 C556 0.960 . S
H569 C556 0.962 1_556 S
H570 C556 0.960 . S
H571 C557 0.961 . S
H572 C557 0.961 . S
H573 C557 0.961 . S
H574 C558 0.931 . S
H575 C563 0.930 . S
H576 C564 0.956 . S
H577 C564 0.961 . S
H578 C564 0.961 . S
H579 C565 0.958 1_554 S
H580 C565 0.961 . S
H581 C565 0.960 . S
C582 C583 1.391 . S
C582 C584 1.394 . S
C582 H598 0.931 . S
C583 C582 1.391 . S
C583 C587 1.376 . S
C584 C582 1.394 . S
C584 C585 1.369 . S
C584 C588 1.531 . S
C585 C584 1.369 . S
C585 C586 1.410 . S
C585 C593 1.503 . S
C586 C585 1.410 . S
C586 C587 1.392 . S
C586 C589 1.511 . S
C587 C583 1.376 . S
C587 C586 1.392 . S
C587 H599 0.929 . S
C588 C584 1.531 . S
C588 H600 0.960 . S
C588 H601 0.962 . S
C588 H602 0.960 . S
C589 C586 1.511 . S
C589 H603 0.961 . S
C589 H604 0.961 . S
C589 H605 0.961 . S
C590 C591 1.370 . S
C590 C592 1.363 . S
C590 H606 0.931 . S
C591 C590 1.370 . S
C591 C595 1.408 . S
C592 C590 1.363 . S
C592 C593 1.370 . S
C592 C596 1.524 . S
C593 C585 1.503 . S
C593 C592 1.370 . S
C593 C594 1.403 . S
C594 C593 1.403 . S
C594 C595 1.404 . S
C594 C597 1.539 . S
C595 C591 1.408 . S
C595 C594 1.404 . S
C595 H607 0.930 . S
C596 C592 1.524 . S
C596 H608 0.956 . S
C596 H609 0.961 . S
C596 H610 0.961 . S
C597 C594 1.539 . S
C597 H611 0.958 . S
C597 H612 0.961 . S
C597 H613 0.960 . S
H598 C582 0.931 . S
H599 C587 0.929 . S
H600 C588 0.960 . S
H601 C588 0.962 . S
H602 C588 0.960 . S
H603 C589 0.961 . S
H604 C589 0.961 . S
H605 C589 0.961 . S
H606 C590 0.931 . S
H607 C595 0.930 . S
H608 C596 0.956 . S
H609 C596 0.961 . S
H610 C596 0.961 . S
H611 C597 0.958 . S
H612 C597 0.961 . S
H613 C597 0.960 . S
C614 C615 1.391 . S
C614 C616 1.394 . S
C614 H630 0.931 . S
C615 C614 1.391 . S
C615 C619 1.376 . S
C616 C614 1.394 . S
C616 C617 1.369 . S
C616 C620 1.531 . S
C617 C616 1.369 . S
C617 C618 1.410 . S
C617 C625 1.503 . S
C618 C617 1.410 . S
C618 C619 1.392 . S
C618 C621 1.511 . S
C619 C615 1.376 . S
C619 C618 1.392 . S
C619 H631 0.929 . S
C620 C616 1.531 . S
C620 H632 0.960 . S
C620 H633 0.962 . S
C620 H634 0.960 . S
C621 C618 1.511 . S
C621 H635 0.961 . S
C621 H636 0.961 . S
C621 H637 0.961 . S
C622 C623 1.370 . S
C622 C624 1.363 . S
C622 H638 0.931 . S
C623 C622 1.370 . S
C623 C627 1.408 . S
C624 C622 1.363 . S
C624 C625 1.370 . S
C624 C628 1.524 . S
C625 C617 1.503 . S
C625 C624 1.370 . S
C625 C626 1.403 . S
C626 C625 1.403 . S
C626 C627 1.404 . S
C626 C629 1.539 . S
C627 C623 1.408 . S
C627 C626 1.404 . S
C627 H639 0.930 . S
C628 C624 1.524 . S
C628 H640 0.956 . S
C628 H641 0.961 . S
C628 H642 0.961 . S
C629 C626 1.539 . S
C629 H643 0.958 . S
C629 H644 0.961 . S
C629 H645 0.960 . S
H630 C614 0.931 . S
H631 C619 0.929 . S
H632 C620 0.960 . S
H633 C620 0.962 . S
H634 C620 0.960 . S
H635 C621 0.961 . S
H636 C621 0.961 . S
H637 C621 0.961 . S
H638 C622 0.931 . S
H639 C627 0.930 . S
H640 C628 0.956 . S
H641 C628 0.961 . S
H642 C628 0.961 . S
H643 C629 0.958 . S
H644 C629 0.961 . S
H645 C629 0.960 . S
C646 C647 1.391 . S
C646 C648 1.394 . S
C646 H662 0.931 . S
C647 C646 1.391 . S
C647 C651 1.376 . S
C648 C646 1.394 . S
C648 C649 1.369 . S
C648 C652 1.531 . S
C649 C648 1.369 . S
C649 C650 1.410 . S
C649 C657 1.503 . S
C650 C649 1.410 . S
C650 C651 1.392 . S
C650 C653 1.511 . S
C651 C647 1.376 . S
C651 C650 1.392 . S
C651 H663 0.929 . S
C652 C648 1.531 . S
C652 H664 0.960 1_556 S
C652 H665 0.962 . S
C652 H666 0.960 1_556 S
C653 C650 1.511 . S
C653 H667 0.961 . S
C653 H668 0.961 . S
C653 H669 0.961 . S
C654 C655 1.370 . S
C654 C656 1.363 . S
C654 H670 0.931 . S
C655 C654 1.370 . S
C655 C659 1.408 1_556 S
C656 C654 1.363 . S
C656 C657 1.370 . S
C656 C660 1.524 . S
C657 C649 1.503 . S
C657 C656 1.370 . S
C657 C658 1.403 . S
C658 C657 1.403 . S
C658 C659 1.404 1_556 S
C658 C661 1.539 . S
C659 C655 1.408 1_554 S
C659 C658 1.404 1_554 S
C659 H671 0.930 . S
C660 C656 1.524 . S
C660 H672 0.956 . S
C660 H673 0.961 . S
C660 H674 0.961 . S
C661 C658 1.539 . S
C661 H675 0.958 1_556 S
C661 H676 0.961 . S
C661 H677 0.960 . S
H662 C646 0.931 . S
H663 C651 0.929 . S
H664 C652 0.960 1_554 S
H665 C652 0.962 . S
H666 C652 0.960 1_554 S
H667 C653 0.961 . S
H668 C653 0.961 . S
H669 C653 0.961 . S
H670 C654 0.931 . S
H671 C659 0.930 . S
H672 C660 0.956 . S
H673 C660 0.961 . S
H674 C660 0.961 . S
H675 C661 0.958 1_554 S
H676 C661 0.961 . S
H677 C661 0.960 . S
C199 C17 1.584 . S
C207 C116 1.590 . S
C231 C149 1.592 . S
C239 C50 1.593 . S
C263 C83 1.582 . S
C271 C182 1.589 . S
C295 N5 1.198 . S
C303 N14 1.216 . S
C327 N38 1.195 . S
C335 N47 1.214 . S
C359 N71 1.226 1_554 S
C367 N80 1.199 . S
C391 N113 1.226 . S
C399 N104 1.205 . S
C423 N137 1.202 . S
C431 N146 1.210 . S
C455 N179 1.211 . S
C463 N170 1.209 1_554 S
C487 C28 1.508 . S
C495 C41 1.510 . S
C519 C61 1.500 . S
C527 C74 1.513 . S
C551 C107 1.516 1_556 S
C559 C94 1.510 . S
C583 C127 1.501 . S
C591 C140 1.513 . S
C615 C173 1.510 . S
C623 C160 1.513 . S
C647 C193 1.507 . S
C655 C8 1.509 1_556 S
