# Generated by pormake.
# Topology acs-a, (4)-cn, num edge types: 1
# Building blocks:
#     Node 0, Type 0, BuildingBlock: QUQFOY_clean_sbu_1, # of connection points: 4
#     Node 1, Type 0, BuildingBlock: QUQFOY_clean_sbu_1, # of connection points: 4
#     Node 2, Type 0, BuildingBlock: QUQFOY_clean_sbu_1, # of connection points: 4
#     Node 3, Type 0, BuildingBlock: QUQFOY_clean_sbu_1, # of connection points: 4
#     Node 4, Type 0, BuildingBlock: QUQFOY_clean_sbu_1, # of connection points: 4
#     Node 5, Type 0, BuildingBlock: QUQFOY_clean_sbu_1, # of connection points: 4
#     Node 6, Type 0, BuildingBlock: QUQFOY_clean_sbu_1, # of connection points: 4
#     Node 7, Type 0, BuildingBlock: QUQFOY_clean_sbu_1, # of connection points: 4
#     Node 8, Type 0, BuildingBlock: QUQFOY_clean_sbu_1, # of connection points: 4
#     Node 9, Type 0, BuildingBlock: QUQFOY_clean_sbu_1, # of connection points: 4
#     Node 10, Type 0, BuildingBlock: QUQFOY_clean_sbu_1, # of connection points: 4
#     Node 11, Type 0, BuildingBlock: QUQFOY_clean_sbu_1, # of connection points: 4
#     Edge 12, Type (0, 0), BuildingBlock: KIFKEQ_clean_linker_1, # of connection points: 2
#     Edge 13, Type (0, 0), BuildingBlock: KIFKEQ_clean_linker_1, # of connection points: 2
#     Edge 14, Type (0, 0), BuildingBlock: KIFKEQ_clean_linker_1, # of connection points: 2
#     Edge 15, Type (0, 0), BuildingBlock: KIFKEQ_clean_linker_1, # of connection points: 2
#     Edge 16, Type (0, 0), BuildingBlock: KIFKEQ_clean_linker_1, # of connection points: 2
#     Edge 17, Type (0, 0), BuildingBlock: KIFKEQ_clean_linker_1, # of connection points: 2
#     Edge 18, Type (0, 0), BuildingBlock: KIFKEQ_clean_linker_1, # of connection points: 2
#     Edge 19, Type (0, 0), BuildingBlock: KIFKEQ_clean_linker_1, # of connection points: 2
#     Edge 20, Type (0, 0), BuildingBlock: KIFKEQ_clean_linker_1, # of connection points: 2
#     Edge 21, Type (0, 0), BuildingBlock: KIFKEQ_clean_linker_1, # of connection points: 2
#     Edge 22, Type (0, 0), BuildingBlock: KIFKEQ_clean_linker_1, # of connection points: 2
#     Edge 23, Type (0, 0), BuildingBlock: KIFKEQ_clean_linker_1, # of connection points: 2
#     Edge 24, Type (0, 0), BuildingBlock: KIFKEQ_clean_linker_1, # of connection points: 2
#     Edge 25, Type (0, 0), BuildingBlock: KIFKEQ_clean_linker_1, # of connection points: 2
#     Edge 26, Type (0, 0), BuildingBlock: KIFKEQ_clean_linker_1, # of connection points: 2
#     Edge 27, Type (0, 0), BuildingBlock: KIFKEQ_clean_linker_1, # of connection points: 2
#     Edge 28, Type (0, 0), BuildingBlock: KIFKEQ_clean_linker_1, # of connection points: 2
#     Edge 29, Type (0, 0), BuildingBlock: KIFKEQ_clean_linker_1, # of connection points: 2
#     Edge 30, Type (0, 0), BuildingBlock: KIFKEQ_clean_linker_1, # of connection points: 2
#     Edge 31, Type (0, 0), BuildingBlock: KIFKEQ_clean_linker_1, # of connection points: 2
#     Edge 32, Type (0, 0), BuildingBlock: KIFKEQ_clean_linker_1, # of connection points: 2
#     Edge 33, Type (0, 0), BuildingBlock: KIFKEQ_clean_linker_1, # of connection points: 2
#     Edge 34, Type (0, 0), BuildingBlock: KIFKEQ_clean_linker_1, # of connection points: 2
#     Edge 35, Type (0, 0), BuildingBlock: KIFKEQ_clean_linker_1, # of connection points: 2
# Relax obj value: 0.480
# Max RMSD: 0.266
# Mean RMSD: 0.242
data_MOF--net-acs-a--node1-QUQFOY_clean_sbu_1--edge1-KIFKEQ_clean_linker_1
_symmetry_space_group_name_H-M    P1
_symmetry_Int_Tables_number       1
_symmetry_cell_setting            triclinic
loop_
_symmetry_equiv_pos_as_xyz
'x, y, z'
_cell_length_a     47.628026
_cell_length_b     47.603145
_cell_length_c     52.599227
_cell_angle_alpha  90.109722
_cell_angle_beta   90.152044
_cell_angle_gamma 114.07302
loop_
_atom_site_label
_atom_site_type_symbol
_atom_site_fract_x
_atom_site_fract_y
_atom_site_fract_z
_atom_type_partial_charge
O0 O 0.57429 0.15824 0.0953 0.0
Cd1 Cd 0.58924 0.12417 0.08809 0.0
Cd2 Cd 0.59609 0.12585 0.13939 0.0
O3 O 0.57528 0.15634 0.13714 0.0
O4 O 0.57432 0.10958 0.05332 0.0
O5 O 0.55833 0.08038 0.0876 0.0
C6 C 0.55686 0.08361 0.0633 0.0
C7 C 0.58441 0.09405 0.17505 0.0
C8 C 0.56935 0.16738 0.11686 0.0
C9 C 0.65315 0.14436 0.10644 0.0
O10 O 0.64149 0.14207 0.12842 0.0
O11 O 0.63592 0.13667 0.08693 0.0
O12 O 0.60197 0.12287 0.1764 0.0
O13 O 0.57258 0.08275 0.15328 0.0
O14 O 0.34966 0.52796 0.58268 0.0
Cd15 Cd 0.39681 0.54612 0.57999 0.0
Cd16 Cd 0.3948 0.54649 0.63095 0.0
O17 O 0.34808 0.52492 0.62443 0.0
O18 O 0.40578 0.53589 0.5453 0.0
O19 O 0.42167 0.52092 0.58039 0.0
C20 C 0.42079 0.52177 0.55584 0.0
C21 C 0.41414 0.52999 0.66603 0.0
C22 C 0.33431 0.521 0.60316 0.0
C23 C 0.42309 0.60778 0.60424 0.0
O24 O 0.41462 0.59352 0.62517 0.0
O25 O 0.41894 0.59296 0.58349 0.0
O26 O 0.39542 0.54306 0.66849 0.0
O27 O 0.42197 0.52569 0.64338 0.0
O28 O 0.83635 0.41581 0.09928 0.0
Cd29 Cd 0.86283 0.39153 0.10729 0.0
Cd30 Cd 0.8611 0.38852 0.05556 0.0
O31 O 0.83338 0.41181 0.05759 0.0
O32 O 0.86393 0.39599 0.14479 0.0
O33 O 0.90619 0.41299 0.12157 0.0
C34 C 0.89335 0.40983 0.14355 0.0
C35 C 0.90618 0.41242 0.03346 0.0
C36 C 0.82657 0.42133 0.07821 0.0
C37 C 0.83647 0.32849 0.082 0.0
O38 O 0.84144 0.34186 0.06058 0.0
O39 O 0.84367 0.34411 0.10249 0.0
O40 O 0.88044 0.39773 0.02175 0.0
O41 O 0.90638 0.41239 0.05806 0.0
O42 O 0.41378 0.82132 0.57743 0.0
Cd43 Cd 0.39979 0.85669 0.57648 0.0
Cd44 Cd 0.40397 0.85634 0.62617 0.0
O45 O 0.42714 0.82904 0.61774 0.0
O46 O 0.41264 0.87785 0.54357 0.0
O47 O 0.43194 0.89911 0.58089 0.0
C48 C 0.4318 0.90093 0.55636 0.0
C49 C 0.42331 0.89036 0.66023 0.0
C50 C 0.42623 0.81532 0.59682 0.0
C51 C 0.34066 0.83621 0.60283 0.0
O52 O 0.35641 0.8368 0.62255 0.0
O53 O 0.35401 0.84592 0.58178 0.0
O54 O 0.41091 0.86105 0.6634 0.0
O55 O 0.42497 0.90093 0.63746 0.0
O56 O 0.61752 0.43828 0.07399 0.0
Cd57 Cd 0.57116 0.42296 0.08059 0.0
Cd58 Cd 0.58924 0.4373 0.1274 0.0
O59 O 0.63159 0.4614 0.11099 0.0
O60 O 0.5522 0.42605 0.04776 0.0
O61 O 0.5527 0.45381 0.08185 0.0
C62 C 0.54567 0.44722 0.05816 0.0
C63 C 0.5736 0.45826 0.16184 0.0
C64 C 0.63853 0.45539 0.08894 0.0
C65 C 0.55743 0.37008 0.11407 0.0
O66 O 0.57513 0.39008 0.12952 0.0
O67 O 0.54949 0.37857 0.0934 0.0
O68 O 0.59668 0.45085 0.16341 0.0
O69 O 0.55975 0.45491 0.14019 0.0
O70 O 0.14558 0.57902 0.62512 0.0
Cd71 Cd 0.1175 0.60258 0.62796 0.0
Cd72 Cd 0.1172 0.59735 0.57589 0.0
O73 O 0.14191 0.57173 0.58365 0.0
O74 O 0.1142 0.6065 0.66521 0.0
O75 O 0.07405 0.5794 0.64118 0.0
C76 C 0.08533 0.58933 0.66339 0.0
C77 C 0.07641 0.57442 0.54801 0.0
C78 C 0.15181 0.56768 0.60513 0.0
C79 C 0.14467 0.66105 0.59698 0.0
O80 O 0.13992 0.64453 0.5771 0.0
O81 O 0.13602 0.6486 0.61854 0.0
O82 O 0.10438 0.58673 0.54006 0.0
O83 O 0.07144 0.57613 0.572 0.0
O84 O 0.83245 0.41716 0.40314 0.0
Cd85 Cd 0.86663 0.40203 0.40908 0.0
Cd86 Cd 0.86371 0.39633 0.35754 0.0
O87 O 0.83366 0.41747 0.36125 0.0
O88 O 0.882 0.41622 0.44383 0.0
O89 O 0.91046 0.43288 0.40926 0.0
C90 C 0.90775 0.43387 0.43366 0.0
C91 C 0.89415 0.40824 0.32106 0.0
C92 C 0.82299 0.42279 0.38197 0.0
C93 C 0.84555 0.33848 0.38968 0.0
O94 O 0.84742 0.35067 0.36794 0.0
O95 O 0.85389 0.35528 0.40941 0.0
O96 O 0.86524 0.39094 0.32028 0.0
O97 O 0.90632 0.41967 0.3427 0.0
O98 O 0.34529 0.85317 0.91895 0.0
Cd99 Cd 0.39243 0.87552 0.92063 0.0
Cd100 Cd 0.38814 0.8742 0.86841 0.0
O101 O 0.34198 0.85586 0.87732 0.0
O102 O 0.4024 0.88837 0.95652 0.0
O103 O 0.41406 0.92129 0.92447 0.0
C104 C 0.41523 0.91632 0.94853 0.0
C105 C 0.40192 0.9059 0.83269 0.0
C106 C 0.32915 0.84789 0.89882 0.0
C107 C 0.42237 0.8401 0.89274 0.0
O108 O 0.41166 0.84618 0.87232 0.0
O109 O 0.41776 0.85029 0.91391 0.0
O110 O 0.38487 0.87697 0.83104 0.0
O111 O 0.41146 0.91749 0.85488 0.0
O112 O 0.6 0.41675 0.3688 0.0
Cd113 Cd 0.55266 0.40194 0.36883 0.0
Cd114 Cd 0.56409 0.41577 0.41757 0.0
O115 O 0.6094 0.43723 0.40714 0.0
O116 O 0.542 0.39657 0.33215 0.0
O117 O 0.53512 0.43156 0.35592 0.0
C118 C 0.53363 0.41899 0.33391 0.0
C119 C 0.54096 0.44018 0.44262 0.0
C120 C 0.61905 0.432 0.38592 0.0
C121 C 0.53142 0.34917 0.40426 0.0
O122 O 0.54681 0.36877 0.42091 0.0
O123 O 0.52786 0.35805 0.38221 0.0
O124 O 0.55997 0.43001 0.45218 0.0
O125 O 0.53591 0.43749 0.41839 0.0
O126 O 0.16956 0.57883 0.91858 0.0
Cd127 Cd 0.13422 0.59287 0.91957 0.0
Cd128 Cd 0.13428 0.5885 0.86985 0.0
O129 O 0.16171 0.56548 0.87828 0.0
O130 O 0.11274 0.57977 0.95233 0.0
O131 O 0.09194 0.56068 0.91482 0.0
C132 C 0.08985 0.56064 0.93934 0.0
C133 C 0.10024 0.56897 0.83582 0.0
C134 C 0.17549 0.56638 0.89916 0.0
C135 C 0.15438 0.65192 0.89303 0.0
O136 O 0.15367 0.63608 0.87333 0.0
O137 O 0.1449 0.63865 0.91415 0.0
O138 O 0.0897 0.56733 0.85859 0.0
O139 O 0.12953 0.58147 0.83264 0.0
O140 O 0.64688 0.14965 0.43269 0.0
Cd141 Cd 0.60016 0.12881 0.43723 0.0
Cd142 Cd 0.59815 0.12602 0.38578 0.0
O143 O 0.64547 0.14601 0.39085 0.0
O144 O 0.5911 0.11037 0.47141 0.0
O145 O 0.57764 0.08327 0.43557 0.0
C146 C 0.57733 0.08415 0.46015 0.0
C147 C 0.58019 0.09338 0.35073 0.0
C148 C 0.66067 0.15422 0.41149 0.0
C149 C 0.5667 0.16184 0.41297 0.0
O150 O 0.5734 0.15238 0.39222 0.0
O151 O 0.57554 0.15519 0.43397 0.0
O152 O 0.59384 0.12272 0.34833 0.0
O153 O 0.57704 0.08183 0.37324 0.0
O154 O 0.39754 0.57791 0.87366 0.0
Cd155 Cd 0.4448 0.59743 0.86955 0.0
Cd156 Cd 0.44286 0.5942 0.9206 0.0
O157 O 0.3964 0.57119 0.91512 0.0
O158 O 0.44999 0.59782 0.83215 0.0
O159 O 0.46555 0.57005 0.85756 0.0
C160 C 0.46242 0.57858 0.83484 0.0
C161 C 0.46609 0.57049 0.94647 0.0
C162 C 0.38244 0.56817 0.89404 0.0
C163 C 0.46862 0.65722 0.89843 0.0
O164 O 0.46017 0.64142 0.91861 0.0
O165 O 0.46641 0.64393 0.87709 0.0
O166 O 0.44989 0.58403 0.95588 0.0
O167 O 0.46978 0.57111 0.9221 0.0
H168 H 0.59927 0.05115 0.33118 0.0
H169 H 0.5374 0.09518 0.31823 0.0
H170 H 0.59333 0.03428 0.28659 0.0
H171 H 0.53099 0.07816 0.27412 0.0
H172 H 0.6261 0.09206 0.20869 0.0
H173 H 0.61643 0.07454 0.25245 0.0
H174 H 0.51857 0.0387 0.23848 0.0
H175 H 0.52855 0.05592 0.19411 0.0
C176 C 0.58321 0.05581 0.31911 0.0
C177 C 0.56882 0.07444 0.32786 0.0
C178 C 0.57987 0.04629 0.29364 0.0
C179 C 0.56188 0.05511 0.27682 0.0
C180 C 0.54473 0.07068 0.28658 0.0
C181 C 0.54849 0.08059 0.31181 0.0
C182 C 0.60255 0.07926 0.21471 0.0
C183 C 0.57805 0.07549 0.19829 0.0
C184 C 0.59696 0.06898 0.23973 0.0
C185 C 0.56672 0.05542 0.24897 0.0
C186 C 0.5421 0.04909 0.23182 0.0
C187 C 0.54776 0.05885 0.2065 0.0
H188 H 0.38404 0.50109 0.70811 0.0
H189 H 0.47473 0.54505 0.67587 0.0
H190 H 0.4064 0.50439 0.75026 0.0
H191 H 0.49739 0.54925 0.71844 0.0
H192 H 0.49188 0.60865 0.79289 0.0
H193 H 0.48863 0.58625 0.75077 0.0
H194 H 0.44318 0.49525 0.78257 0.0
H195 H 0.4473 0.51793 0.8251 0.0
C196 C 0.40884 0.51028 0.71 0.0
C197 C 0.42772 0.52296 0.68894 0.0
C198 C 0.4217 0.51204 0.73411 0.0
C199 C 0.45365 0.52729 0.73765 0.0
C200 C 0.4727 0.53733 0.71618 0.0
C201 C 0.45978 0.53486 0.69188 0.0
C202 C 0.48258 0.58382 0.79102 0.0
C203 C 0.46967 0.56496 0.81205 0.0
C204 C 0.48085 0.57095 0.76693 0.0
C205 C 0.46542 0.539 0.76338 0.0
C206 C 0.45523 0.51994 0.78484 0.0
C207 C 0.45765 0.53288 0.80913 0.0
H208 H 0.88725 0.45021 0.1764 0.0
H209 H 0.93709 0.39347 0.1641 0.0
H210 H 0.90369 0.45748 0.2207 0.0
H211 H 0.95321 0.40012 0.20894 0.0
H212 H 0.92949 0.46415 0.30059 0.0
H213 H 0.94503 0.47346 0.25579 0.0
H214 H 0.9128 0.37549 0.24363 0.0
H215 H 0.89679 0.36643 0.28786 0.0
C216 C 0.90283 0.44036 0.18304 0.0
C217 C 0.91095 0.42131 0.16708 0.0
C218 C 0.9124 0.44464 0.20836 0.0
C219 C 0.92961 0.42923 0.21831 0.0
C220 C 0.94 0.4123 0.2017 0.0
C221 C 0.93089 0.40855 0.17612 0.0
C222 C 0.927 0.44483 0.28849 0.0
C223 C 0.91186 0.41461 0.29738 0.0
C224 C 0.93579 0.4501 0.26292 0.0
C225 C 0.93003 0.42519 0.24622 0.0
C226 C 0.9179 0.39517 0.25604 0.0
C227 C 0.90854 0.38993 0.28131 0.0
H228 H 0.46029 0.94061 0.81715 0.0
H229 H 0.36511 0.90936 0.79498 0.0
H230 H 0.47579 0.95354 0.77274 0.0
H231 H 0.38037 0.92293 0.75101 0.0
H232 H 0.40895 0.93859 0.67236 0.0
H233 H 0.41145 0.96001 0.71525 0.0
H234 H 0.46173 0.90777 0.74132 0.0
H235 H 0.45838 0.88594 0.69896 0.0
C236 C 0.44285 0.93813 0.80299 0.0
C237 C 0.41156 0.92387 0.80922 0.0
C238 C 0.45168 0.94543 0.77763 0.0
C239 C 0.42927 0.93903 0.75843 0.0
C240 C 0.39818 0.92841 0.76537 0.0
C241 C 0.38939 0.92049 0.79052 0.0
C242 C 0.42166 0.93285 0.68707 0.0
C243 C 0.43326 0.91052 0.68263 0.0
C244 C 0.42306 0.94503 0.71155 0.0
C245 C 0.43668 0.93546 0.73161 0.0
C246 C 0.4514 0.91587 0.72624 0.0
C247 C 0.44932 0.90319 0.70204 0.0
H248 H 0.5019 0.3869 0.29313 0.0
H249 H 0.55023 0.4793 0.32176 0.0
H250 H 0.50371 0.40681 0.25032 0.0
H251 H 0.55271 0.49942 0.27854 0.0
H252 H 0.60634 0.48983 0.20255 0.0
H253 H 0.58674 0.48867 0.24538 0.0
H254 H 0.49383 0.44154 0.21734 0.0
H255 H 0.51361 0.44327 0.17414 0.0
C256 C 0.51183 0.4116 0.29034 0.0
C257 C 0.52618 0.43158 0.31058 0.0
C258 C 0.51272 0.42306 0.26584 0.0
C259 C 0.52861 0.45468 0.26106 0.0
C260 C 0.54035 0.47495 0.28174 0.0
C261 C 0.53885 0.46347 0.30643 0.0
C262 C 0.58168 0.48044 0.20537 0.0
C263 C 0.56149 0.4663 0.18519 0.0
C264 C 0.5704 0.47994 0.22989 0.0
C265 C 0.53875 0.46472 0.23473 0.0
C266 C 0.51833 0.45335 0.2141 0.0
C267 C 0.52964 0.45442 0.1894 0.0
H268 H 0.08165 0.6264 0.70078 0.0
H269 H 0.0503 0.53105 0.67902 0.0
H270 H 0.06783 0.61139 0.74474 0.0
H271 H 0.0371 0.51579 0.72344 0.0
H272 H 0.05208 0.58333 0.82348 0.0
H273 H 0.03069 0.58056 0.78054 0.0
H274 H 0.08277 0.52995 0.75495 0.0
H275 H 0.10458 0.53356 0.79735 0.0
C276 C 0.07043 0.60214 0.70531 0.0
C277 C 0.06711 0.57984 0.68674 0.0
C278 C 0.06237 0.59348 0.73046 0.0
C279 C 0.05165 0.56241 0.73754 0.0
C280 C 0.04528 0.53988 0.71844 0.0
C281 C 0.05273 0.54858 0.69307 0.0
C282 C 0.0578 0.57049 0.80886 0.0
C283 C 0.08007 0.55886 0.81344 0.0
C284 C 0.04563 0.56893 0.78436 0.0
C285 C 0.05516 0.55514 0.76442 0.0
C286 C 0.07469 0.5404 0.76994 0.0
C287 C 0.08736 0.54263 0.79417 0.0
H288 H 0.55792 0.07868 0.01187 0.0
H289 H 0.50676 0.03292 0.07836 0.0
H290 H 0.52172 0.03879 0.98488 0.0
H291 H 0.46955 0.99356 0.05126 0.0
H292 H 0.43115 0.91084 0.99733 0.0
H293 H 0.46434 0.95129 0.0254 0.0
H294 H 0.47107 0.01925 0.96854 0.0
H295 H 0.43885 0.97836 0.9399 0.0
C296 C 0.53877 0.06015 0.0207 0.0
C297 C 0.53521 0.05881 0.04721 0.0
C298 C 0.5178 0.03742 0.0052 0.0
C299 C 0.49252 0.01303 0.01583 0.0
C300 C 0.48896 0.01177 0.04243 0.0
C301 C 0.51023 0.03433 0.05797 0.0
C302 C 0.43947 0.93444 0.99088 0.0
C303 C 0.43256 0.94143 0.96634 0.0
C304 C 0.45842 0.9577 0.00707 0.0
C305 C 0.47059 0.98857 -0.00077 0.0
C306 C 0.46265 -0.00435 0.975 0.0
C307 C 0.44398 0.97229 0.95865 0.0
H308 H 0.47031 0.51012 0.56925 0.0
H309 H 0.40906 0.50319 0.50661 0.0
H310 H 0.50051 0.49182 0.54185 0.0
H311 H 0.43795 0.48314 0.47953 0.0
H312 H 0.51242 0.47759 0.42954 0.0
H313 H 0.48388 0.49752 0.45735 0.0
H314 H 0.5017 0.44943 0.52089 0.0
H315 H 0.53164 0.43123 0.49338 0.0
C316 C 0.46301 0.50411 0.54972 0.0
C317 C 0.43745 0.50811 0.54001 0.0
C318 C 0.48023 0.4935 0.53398 0.0
C319 C 0.47184 0.48608 0.50833 0.0
C320 C 0.44564 0.48933 0.49893 0.0
C321 C 0.42885 0.50053 0.51452 0.0
C322 C 0.51036 0.47155 0.4495 0.0
C323 C 0.52432 0.45302 0.45934 0.0
C324 C 0.49378 0.48271 0.46544 0.0
C325 C 0.49026 0.475 0.49145 0.0
C326 C 0.50433 0.4564 0.50115 0.0
C327 C 0.5214 0.4458 0.48533 0.0
H328 H 0.04552 0.50817 0.91979 0.0
H329 H 0.07319 0.56259 0.98851 0.0
H330 H 0.00245 0.46956 0.94233 0.0
H331 H 0.02945 0.52479 0.01079 0.0
H332 H 0.96527 0.44005 0.05107 0.0
H333 H 0.01035 0.47428 0.02767 0.0
H334 H 0.95438 0.46159 0.96016 0.0
H335 H 0.90988 0.42646 0.98318 0.0
C336 C 0.04212 0.51206 0.93963 0.0
C337 C 0.06263 0.53835 0.95242 0.0
C338 C 0.01744 0.48997 0.95255 0.0
C339 C 0.01256 0.49398 0.97842 0.0
C340 C 0.0329 0.5206 0.99104 0.0
C341 C 0.05779 0.54244 0.97821 0.0
C342 C 0.96278 0.4443 0.03114 0.0
C343 C 0.93408 0.43069 0.01897 0.0
C344 C 0.98851 0.4641 0.01778 0.0
C345 C 0.98593 0.47097 0.99209 0.0
C346 C 0.95734 0.45656 0.9798 0.0
C347 C 0.93175 0.4365 0.99306 0.0
H348 H 0.55118 0.02454 0.44354 0.0
H349 H 0.5633 0.08126 0.51041 0.0
H350 H 0.51779 0.97958 0.46753 0.0
H351 H 0.52903 0.03681 0.53402 0.0
H352 H 0.48388 0.94618 0.57562 0.0
H353 H 0.52206 0.98921 0.55268 0.0
H354 H 0.46711 0.96015 0.48422 0.0
H355 H 0.42973 0.91653 0.5069 0.0
C356 C 0.54681 0.02736 0.46338 0.0
C357 C 0.55971 0.05639 0.47507 0.0
C358 C 0.52749 0.00168 0.47707 0.0
C359 C 0.52043 0.00465 0.50263 0.0
C360 C 0.53422 0.03358 0.51449 0.0
C361 C 0.55378 0.05913 0.50089 0.0
C362 C 0.47997 0.94912 0.55569 0.0
C363 C 0.45387 0.92808 0.54303 0.0
C364 C 0.50181 0.97377 0.54254 0.0
C365 C 0.49775 0.97805 0.51656 0.0
C366 C 0.47134 0.95716 0.50406 0.0
C367 C 0.44973 0.93234 0.51712 0.0
H368 H 0.45671 0.56043 0.99731 0.0
H369 H 0.50404 0.54244 0.93351 0.0
H370 H 0.47494 0.53025 0.02466 0.0
H371 H 0.52314 0.51296 0.96113 0.0
H372 H 0.52293 0.43439 0.00994 0.0
H373 H 0.50401 0.46471 0.98333 0.0
H374 H 0.52033 0.53029 0.04454 0.0
H375 H 0.53842 0.49939 0.07146 0.0
C376 C 0.47132 0.55031 0.98918 0.0
C377 C 0.47888 0.55374 0.96322 0.0
C378 C 0.48189 0.53311 0.00491 0.0
C379 C 0.50041 0.51908 0.99509 0.0
C380 C 0.50845 0.52301 0.9692 0.0
C381 C 0.49772 0.5401 0.95341 0.0
C382 C 0.52226 0.45516 0.01779 0.0
C383 C 0.53216 0.46452 0.0428 0.0
C384 C 0.51168 0.47269 0.00245 0.0
C385 C 0.51094 0.50009 0.0117 0.0
C386 C 0.52033 0.50916 0.0369 0.0
C387 C 0.53075 0.49148 0.05232 0.0
H388 H 0.91323 0.43244 0.48504 0.0
H389 H 0.95865 0.48373 0.41848 0.0
H390 H 0.95354 0.46831 0.51191 0.0
H391 H -0.00152 0.52055 0.44548 0.0
H392 H 0.08158 0.5582 0.49922 0.0
H393 H 0.04087 0.52519 0.47122 0.0
H394 H 0.97336 0.51914 0.5282 0.0
H395 H 0.01445 0.55121 0.55673 0.0
C396 C 0.93179 0.45153 0.47617 0.0
C397 C 0.93288 0.45524 0.44966 0.0
C398 C 0.95476 0.4723 0.4916 0.0
C399 C 0.97917 0.49752 0.48092 0.0
C400 C 0.98023 0.50119 0.45434 0.0
C401 C 0.9574 0.48014 0.43885 0.0
C402 C 0.05802 0.55005 0.50572 0.0
C403 C 0.0512 0.55712 0.53025 0.0
C404 C 0.03462 0.53122 0.48957 0.0
C405 C 0.0038 0.5193 0.49747 0.0
C406 C -0.00309 0.52738 0.5217 0.0
C407 C 0.0204 0.54595 0.53799 0.0
H408 H 0.55569 0.19283 0.15935 0.0
H409 H 0.55915 0.19912 0.07735 0.0
H410 H 0.54409 0.2382 0.16142 0.0
H411 H 0.54858 0.24474 0.07945 0.0
H412 H 0.57816 0.34453 0.1522 0.0
H413 H 0.57364 0.29196 0.15469 0.0
H414 H 0.5137 0.26776 0.08895 0.0
H415 H 0.51909 0.3208 0.08593 0.0
C416 C 0.55369 0.20369 0.14177 0.0
C417 C 0.55872 0.19256 0.1182 0.0
C418 C 0.54716 0.22977 0.14296 0.0
C419 C 0.54563 0.24531 0.12063 0.0
C420 C 0.54915 0.2332 0.09704 0.0
C421 C 0.55552 0.20711 0.09584 0.0
C422 C 0.56352 0.32791 0.13855 0.0
C423 C 0.54945 0.33702 0.11858 0.0
C424 C 0.56076 0.29761 0.14008 0.0
C425 C 0.54366 0.27568 0.12179 0.0
C426 C 0.52762 0.28425 0.103 0.0
C427 C 0.53056 0.31463 0.10136 0.0
H428 H 0.30002 0.5243 0.56254 0.0
H429 H 0.29351 0.50299 0.64272 0.0
H430 H 0.25063 0.52752 0.56407 0.0
H431 H 0.2432 0.50495 0.64406 0.0
H432 H 0.15929 0.52971 0.56935 0.0
H433 H 0.19702 0.5073 0.56934 0.0
H434 H 0.22894 0.54711 0.64349 0.0
H435 H 0.19035 0.56829 0.64389 0.0
C436 C 0.28755 0.5192 0.58033 0.0
C437 C 0.30104 0.51404 0.60262 0.0
C438 C 0.25901 0.52093 0.58121 0.0
C439 C 0.24311 0.51715 0.60434 0.0
C440 C 0.25521 0.50886 0.62608 0.0
C441 C 0.28394 0.50744 0.62526 0.0
C442 C 0.17408 0.53324 0.58581 0.0
C443 C 0.17215 0.55113 0.60648 0.0
C444 C 0.19578 0.52047 0.58578 0.0
C445 C 0.21636 0.52565 0.60625 0.0
C446 C 0.21328 0.54222 0.6275 0.0
C447 C 0.19128 0.55464 0.62767 0.0
H448 H 0.7982 0.29142 0.04589 0.0
H449 H 0.83426 0.28967 0.12098 0.0
H450 H 0.76019 0.23942 0.05142 0.0
H451 H 0.79742 0.23648 0.12605 0.0
H452 H 0.69473 0.17723 0.14246 0.0
H453 H 0.74596 0.21557 0.13526 0.0
H454 H 0.74031 0.18688 0.05658 0.0
H455 H 0.68774 0.14953 0.06361 0.0
C456 C 0.7987 0.27947 0.06327 0.0
C457 C 0.81869 0.29485 0.08324 0.0
C458 C 0.77696 0.24935 0.06642 0.0
C459 C 0.77509 0.23367 0.08947 0.0
C460 C 0.79739 0.24809 0.10837 0.0
C461 C 0.81868 0.27853 0.10544 0.0
C462 C 0.70459 0.17854 0.12373 0.0
C463 C 0.68681 0.16093 0.10343 0.0
C464 C 0.73433 0.20054 0.11958 0.0
C465 C 0.74728 0.20509 0.0951 0.0
C466 C 0.73075 0.18485 0.07549 0.0
C467 C 0.70067 0.16321 0.07954 0.0
H468 H 0.41768 0.77393 0.55846 0.0
H469 H 0.4582 0.79939 0.6332 0.0
H470 H 0.4261 0.72704 0.56016 0.0
H471 H 0.46767 0.75282 0.63455 0.0
H472 H 0.42407 0.64614 0.64319 0.0
H473 H 0.43389 0.70019 0.64029 0.0
H474 H 0.45921 0.70073 0.56136 0.0
H475 H 0.44827 0.64615 0.56404 0.0
C476 C 0.42915 0.76993 0.57499 0.0
C477 C 0.43673 0.79009 0.59589 0.0
C478 C 0.43421 0.74307 0.5759 0.0
C479 C 0.44723 0.73592 0.59765 0.0
C480 C 0.45698 0.75731 0.61774 0.0
C481 C 0.45168 0.78407 0.61692 0.0
C482 C 0.43229 0.65788 0.62533 0.0
C483 C 0.4348 0.6417 0.60372 0.0
C484 C 0.43817 0.68904 0.6237 0.0
C485 C 0.44697 0.70477 0.60047 0.0
C486 C 0.45181 0.68913 0.57938 0.0
C487 C 0.44567 0.65788 0.58096 0.0
H488 H 0.66102 0.43726 0.04734 0.0
H489 H 0.68982 0.49151 0.11611 0.0
H490 H 0.71201 0.43839 0.04271 0.0
H491 H 0.74152 0.49372 0.1109 0.0
H492 H 0.79975 0.43602 0.11887 0.0
H493 H 0.75943 0.45468 0.11825 0.0
H494 H 0.76584 0.46212 0.03635 0.0
H495 H 0.8056 0.44221 0.03694 0.0
C496 C 0.67853 0.45035 0.06103 0.0
C497 C 0.67113 0.46361 0.08246 0.0
C498 C 0.70798 0.45117 0.05828 0.0
C499 C 0.73077 0.46557 0.07677 0.0
C500 C 0.72424 0.4817 0.09671 0.0
C501 C 0.69466 0.48062 0.0996 0.0
C502 C 0.79293 0.44207 0.10073 0.0
C503 C 0.80547 0.43707 0.07792 0.0
C504 C 0.76995 0.45312 0.10038 0.0
C505 C 0.75914 0.45972 0.07721 0.0
C506 C 0.77321 0.45672 0.05449 0.0
C507 C 0.79604 0.44537 0.05483 0.0
H508 H 0.17957 0.69312 0.55708 0.0
H509 H 0.15548 0.70421 0.63447 0.0
H510 H 0.22214 0.7433 0.55902 0.0
H511 H 0.19759 0.75511 0.63614 0.0
H512 H 0.29963 0.83271 0.56507 0.0
H513 H 0.24539 0.79781 0.56314 0.0
H514 H 0.25118 0.76803 0.63983 0.0
H515 H 0.30482 0.80349 0.64203 0.0
C516 C 0.18268 0.70672 0.57422 0.0
C517 C 0.16461 0.69434 0.59582 0.0
C518 C 0.20709 0.73571 0.57532 0.0
C519 C 0.21376 0.75306 0.59796 0.0
C520 C 0.19359 0.74201 0.61864 0.0
C521 C 0.16935 0.71288 0.61762 0.0
C522 C 0.28908 0.81926 0.58174 0.0
C523 C 0.3067 0.8204 0.60352 0.0
C524 C 0.25801 0.79916 0.58058 0.0
C525 C 0.24399 0.77963 0.60112 0.0
C526 C 0.26102 0.7828 0.62367 0.0
C527 C 0.29198 0.80305 0.62489 0.0
H528 H 0.79003 0.42904 0.42225 0.0
H529 H 0.79853 0.4401 0.3407 0.0
H530 H 0.74405 0.439 0.42116 0.0
H531 H 0.75288 0.45123 0.33971 0.0
H532 H 0.64655 0.41553 0.34663 0.0
H533 H 0.69933 0.42083 0.3445 0.0
H534 H 0.72013 0.47346 0.41438 0.0
H535 H 0.66679 0.46713 0.41701 0.0
C536 C 0.78247 0.43427 0.40412 0.0
C537 C 0.79772 0.4333 0.38151 0.0
C538 C 0.75615 0.44027 0.40352 0.0
C539 C 0.74455 0.44573 0.38031 0.0
C540 C 0.76086 0.44656 0.35785 0.0
C541 C 0.78711 0.44031 0.35844 0.0
C542 C 0.66247 0.42872 0.36133 0.0
C543 C 0.6523 0.44043 0.38223 0.0
C544 C 0.6929 0.43196 0.36001 0.0
C545 C 0.71397 0.44724 0.37945 0.0
C546 C 0.70433 0.46095 0.39938 0.0
C547 C 0.67379 0.45748 0.40081 0.0
H548 H 0.29651 0.81363 0.93877 0.0
H549 H 0.28652 0.83679 0.86085 0.0
H550 H 0.24635 0.7711 0.9367 0.0
H551 H 0.23557 0.79477 0.85905 0.0
H552 H 0.18722 0.68756 0.8538 0.0
H553 H 0.2225 0.74126 0.85582 0.0
H554 H 0.19211 0.74753 0.93219 0.0
H555 H 0.15744 0.69318 0.93046 0.0
C556 C 0.28314 0.81034 0.92146 0.0
C557 C 0.29584 0.8281 0.89978 0.0
C558 C 0.25415 0.78595 0.9203 0.0
C559 C 0.23711 0.77902 0.89749 0.0
C560 C 0.24844 0.79894 0.87669 0.0
C561 C 0.27759 0.82315 0.87777 0.0
C562 C 0.18749 0.70051 0.87083 0.0
C563 C 0.17005 0.68589 0.89218 0.0
C564 C 0.20764 0.73152 0.87194 0.0
C565 C 0.21059 0.74871 0.89436 0.0
C566 C 0.19094 0.73479 0.91485 0.0
C567 C 0.17097 0.70365 0.91381 0.0
H568 H 0.55611 0.19112 0.37196 0.0
H569 H 0.54039 0.17907 0.45285 0.0
H570 H 0.5366 0.23083 0.37201 0.0
H571 H 0.51946 0.21805 0.45278 0.0
H572 H 0.49952 0.30029 0.37294 0.0
H573 H 0.49706 0.2483 0.37663 0.0
H574 H 0.54271 0.27198 0.44967 0.0
H575 H 0.54389 0.3231 0.44649 0.0
C576 C 0.54775 0.19642 0.38967 0.0
C577 C 0.55038 0.1824 0.41249 0.0
C578 C 0.53621 0.21905 0.38968 0.0
C579 C 0.52666 0.22795 0.41247 0.0
C580 C 0.52721 0.21226 0.43498 0.0
C581 C 0.53914 0.18986 0.43502 0.0
C582 C 0.50816 0.29405 0.39012 0.0
C583 C 0.52256 0.31606 0.40915 0.0
C584 C 0.50697 0.26431 0.39216 0.0
C585 C 0.52043 0.25613 0.41312 0.0
C586 C 0.53202 0.27727 0.43325 0.0
C587 C 0.5329 0.30682 0.43135 0.0
H588 H 0.21607 0.57354 0.93794 0.0
H589 H 0.19202 0.5355 0.86227 0.0
H590 H 0.26273 0.5647 0.93644 0.0
H591 H 0.2384 0.52571 0.86109 0.0
H592 H 0.3455 0.56913 0.85456 0.0
H593 H 0.29147 0.55963 0.85659 0.0
H594 H 0.28819 0.53061 0.93476 0.0
H595 H 0.34267 0.5411 0.93297 0.0
C596 C 0.22034 0.56255 0.92122 0.0
C597 C 0.20063 0.55576 0.90005 0.0
C598 C 0.24705 0.55725 0.92043 0.0
C599 C 0.25452 0.5448 0.8985 0.0
C600 C 0.23362 0.5359 0.87806 0.0
C601 C 0.20698 0.5414 0.87879 0.0
C602 C 0.33314 0.56013 0.87204 0.0
C603 C 0.34853 0.55646 0.89375 0.0
C604 C 0.30202 0.55446 0.87317 0.0
C605 C 0.28556 0.54476 0.89598 0.0
C606 C 0.30038 0.53872 0.91708 0.0
C607 C 0.33158 0.5446 0.916 0.0
H608 H 0.70022 0.15725 0.37289 0.0
H609 H 0.69694 0.19272 0.44792 0.0
H610 H 0.75332 0.19451 0.3684 0.0
H611 H 0.74892 0.23104 0.44298 0.0
H612 H 0.83957 0.30302 0.43213 0.0
H613 H 0.80175 0.25049 0.43849 0.0
H614 H 0.77414 0.24636 0.35964 0.0
H615 H 0.81286 0.29762 0.35309 0.0
C616 C 0.711 0.17279 0.38853 0.0
C617 C 0.69426 0.17247 0.41055 0.0
C618 C 0.74139 0.1943 0.38594 0.0
C619 C 0.75539 0.21646 0.40503 0.0
C620 C 0.73929 0.21436 0.42787 0.0
C621 C 0.7092 0.19245 0.43066 0.0
C622 C 0.82602 0.29044 0.41601 0.0
C623 C 0.82871 0.30476 0.39226 0.0
C624 C 0.80412 0.26039 0.41968 0.0
C625 C 0.78408 0.2443 0.39981 0.0
C626 C 0.78902 0.25768 0.37548 0.0
C627 C 0.81124 0.28742 0.37172 0.0
H628 H 0.46254 0.6908 0.93852 0.0
H629 H 0.48906 0.6987 0.85945 0.0
H630 H 0.45939 0.74026 0.93639 0.0
H631 H 0.48702 0.74897 0.85755 0.0
H632 H 0.42353 0.80171 0.85444 0.0
H633 H 0.44449 0.76296 0.85615 0.0
H634 H 0.48046 0.79421 0.93145 0.0
H635 H 0.45837 0.83217 0.93007 0.0
C636 C 0.46876 0.70357 0.92089 0.0
C637 C 0.47542 0.69047 0.89902 0.0
C638 C 0.46706 0.73213 0.91967 0.0
C639 C 0.47232 0.74841 0.89662 0.0
C640 C 0.482 0.73667 0.87542 0.0
C641 C 0.48344 0.70795 0.87658 0.0
C642 C 0.4363 0.8006 0.8712 0.0
C643 C 0.43883 0.81963 0.89228 0.0
C644 C 0.44859 0.77851 0.87213 0.0
C645 C 0.464 0.77521 0.89406 0.0
C646 C 0.4682 0.79565 0.91448 0.0
C647 C 0.4556 0.81748 0.91366 0.0
loop_
_geom_bond_atom_site_label_1
_geom_bond_atom_site_label_2
_geom_bond_distance
_geom_bond_site_symmetry_2
_ccdc_geom_bond_type
O0 Cd1 2.223 . S
O0 C8 1.315 . S
Cd1 O0 2.223 . S
Cd1 O4 2.297 . S
Cd1 O5 2.439 . S
Cd1 O11 2.240 . S
Cd2 O3 2.240 . S
Cd2 O10 2.223 . S
Cd2 O12 2.297 . S
Cd2 O13 2.439 . S
O3 Cd2 2.240 . S
O3 C8 1.279 . S
O4 Cd1 2.297 . S
O4 C6 1.247 . S
O5 Cd1 2.439 . S
O5 C6 1.208 . S
C6 O4 1.247 . S
C6 O5 1.208 . S
C7 O12 1.247 . S
C7 O13 1.208 . S
C8 O0 1.315 . S
C8 O3 1.279 . S
C9 O10 1.315 . S
C9 O11 1.279 . S
O10 Cd2 2.223 . S
O10 C9 1.315 . S
O11 Cd1 2.240 . S
O11 C9 1.279 . S
O12 Cd2 2.297 . S
O12 C7 1.247 . S
O13 Cd2 2.439 . S
O13 C7 1.208 . S
O14 Cd15 2.223 . S
O14 C22 1.315 . S
Cd15 O14 2.223 . S
Cd15 O18 2.297 . S
Cd15 O19 2.439 . S
Cd15 O25 2.240 . S
Cd16 O17 2.240 . S
Cd16 O24 2.223 . S
Cd16 O26 2.297 . S
Cd16 O27 2.439 . S
O17 Cd16 2.240 . S
O17 C22 1.279 . S
O18 Cd15 2.297 . S
O18 C20 1.247 . S
O19 Cd15 2.439 . S
O19 C20 1.208 . S
C20 O18 1.247 . S
C20 O19 1.208 . S
C21 O26 1.247 . S
C21 O27 1.208 . S
C22 O14 1.315 . S
C22 O17 1.279 . S
C23 O24 1.315 . S
C23 O25 1.279 . S
O24 Cd16 2.223 . S
O24 C23 1.315 . S
O25 Cd15 2.240 . S
O25 C23 1.279 . S
O26 Cd16 2.297 . S
O26 C21 1.247 . S
O27 Cd16 2.439 . S
O27 C21 1.208 . S
O28 Cd29 2.223 . S
O28 C36 1.315 . S
Cd29 O28 2.223 . S
Cd29 O32 2.297 . S
Cd29 O33 2.439 . S
Cd29 O39 2.240 . S
Cd30 O31 2.240 . S
Cd30 O38 2.223 . S
Cd30 O40 2.297 . S
Cd30 O41 2.439 . S
O31 Cd30 2.240 . S
O31 C36 1.279 . S
O32 Cd29 2.297 . S
O32 C34 1.247 . S
O33 Cd29 2.439 . S
O33 C34 1.208 . S
C34 O32 1.247 . S
C34 O33 1.208 . S
C35 O40 1.247 . S
C35 O41 1.208 . S
C36 O28 1.315 . S
C36 O31 1.279 . S
C37 O38 1.315 . S
C37 O39 1.279 . S
O38 Cd30 2.223 . S
O38 C37 1.315 . S
O39 Cd29 2.240 . S
O39 C37 1.279 . S
O40 Cd30 2.297 . S
O40 C35 1.247 . S
O41 Cd30 2.439 . S
O41 C35 1.208 . S
O42 Cd43 2.223 . S
O42 C50 1.315 . S
Cd43 O42 2.223 . S
Cd43 O46 2.297 . S
Cd43 O47 2.439 . S
Cd43 O53 2.240 . S
Cd44 O45 2.240 . S
Cd44 O52 2.223 . S
Cd44 O54 2.297 . S
Cd44 O55 2.439 . S
O45 Cd44 2.240 . S
O45 C50 1.279 . S
O46 Cd43 2.297 . S
O46 C48 1.247 . S
O47 Cd43 2.439 . S
O47 C48 1.208 . S
C48 O46 1.247 . S
C48 O47 1.208 . S
C49 O54 1.247 . S
C49 O55 1.208 . S
C50 O42 1.315 . S
C50 O45 1.279 . S
C51 O52 1.315 . S
C51 O53 1.279 . S
O52 Cd44 2.223 . S
O52 C51 1.315 . S
O53 Cd43 2.240 . S
O53 C51 1.279 . S
O54 Cd44 2.297 . S
O54 C49 1.247 . S
O55 Cd44 2.439 . S
O55 C49 1.208 . S
O56 Cd57 2.223 . S
O56 C64 1.315 . S
Cd57 O56 2.223 . S
Cd57 O60 2.297 . S
Cd57 O61 2.439 . S
Cd57 O67 2.240 . S
Cd58 O59 2.240 . S
Cd58 O66 2.223 . S
Cd58 O68 2.297 . S
Cd58 O69 2.439 . S
O59 Cd58 2.240 . S
O59 C64 1.279 . S
O60 Cd57 2.297 . S
O60 C62 1.247 . S
O61 Cd57 2.439 . S
O61 C62 1.208 . S
C62 O60 1.247 . S
C62 O61 1.208 . S
C63 O68 1.247 . S
C63 O69 1.208 . S
C64 O56 1.315 . S
C64 O59 1.279 . S
C65 O66 1.315 . S
C65 O67 1.279 . S
O66 Cd58 2.223 . S
O66 C65 1.315 . S
O67 Cd57 2.240 . S
O67 C65 1.279 . S
O68 Cd58 2.297 . S
O68 C63 1.247 . S
O69 Cd58 2.439 . S
O69 C63 1.208 . S
O70 Cd71 2.223 . S
O70 C78 1.315 . S
Cd71 O70 2.223 . S
Cd71 O74 2.297 . S
Cd71 O75 2.439 . S
Cd71 O81 2.240 . S
Cd72 O73 2.240 . S
Cd72 O80 2.223 . S
Cd72 O82 2.297 . S
Cd72 O83 2.439 . S
O73 Cd72 2.240 . S
O73 C78 1.279 . S
O74 Cd71 2.297 . S
O74 C76 1.247 . S
O75 Cd71 2.439 . S
O75 C76 1.208 . S
C76 O74 1.247 . S
C76 O75 1.208 . S
C77 O82 1.247 . S
C77 O83 1.208 . S
C78 O70 1.315 . S
C78 O73 1.279 . S
C79 O80 1.315 . S
C79 O81 1.279 . S
O80 Cd72 2.223 . S
O80 C79 1.315 . S
O81 Cd71 2.240 . S
O81 C79 1.279 . S
O82 Cd72 2.297 . S
O82 C77 1.247 . S
O83 Cd72 2.439 . S
O83 C77 1.208 . S
O84 Cd85 2.223 . S
O84 C92 1.315 . S
Cd85 O84 2.223 . S
Cd85 O88 2.297 . S
Cd85 O89 2.439 . S
Cd85 O95 2.240 . S
Cd86 O87 2.240 . S
Cd86 O94 2.223 . S
Cd86 O96 2.297 . S
Cd86 O97 2.439 . S
O87 Cd86 2.240 . S
O87 C92 1.279 . S
O88 Cd85 2.297 . S
O88 C90 1.247 . S
O89 Cd85 2.439 . S
O89 C90 1.208 . S
C90 O88 1.247 . S
C90 O89 1.208 . S
C91 O96 1.247 . S
C91 O97 1.208 . S
C92 O84 1.315 . S
C92 O87 1.279 . S
C93 O94 1.315 . S
C93 O95 1.279 . S
O94 Cd86 2.223 . S
O94 C93 1.315 . S
O95 Cd85 2.240 . S
O95 C93 1.279 . S
O96 Cd86 2.297 . S
O96 C91 1.247 . S
O97 Cd86 2.439 . S
O97 C91 1.208 . S
O98 Cd99 2.223 . S
O98 C106 1.315 . S
Cd99 O98 2.223 . S
Cd99 O102 2.297 . S
Cd99 O103 2.439 . S
Cd99 O109 2.240 . S
Cd100 O101 2.240 . S
Cd100 O108 2.223 . S
Cd100 O110 2.297 . S
Cd100 O111 2.439 . S
O101 Cd100 2.240 . S
O101 C106 1.279 . S
O102 Cd99 2.297 . S
O102 C104 1.247 . S
O103 Cd99 2.439 . S
O103 C104 1.208 . S
C104 O102 1.247 . S
C104 O103 1.208 . S
C105 O110 1.247 . S
C105 O111 1.208 . S
C106 O98 1.315 . S
C106 O101 1.279 . S
C107 O108 1.315 . S
C107 O109 1.279 . S
O108 Cd100 2.223 . S
O108 C107 1.315 . S
O109 Cd99 2.240 . S
O109 C107 1.279 . S
O110 Cd100 2.297 . S
O110 C105 1.247 . S
O111 Cd100 2.439 . S
O111 C105 1.208 . S
O112 Cd113 2.223 . S
O112 C120 1.315 . S
Cd113 O112 2.223 . S
Cd113 O116 2.297 . S
Cd113 O117 2.439 . S
Cd113 O123 2.240 . S
Cd114 O115 2.240 . S
Cd114 O122 2.223 . S
Cd114 O124 2.297 . S
Cd114 O125 2.439 . S
O115 Cd114 2.240 . S
O115 C120 1.279 . S
O116 Cd113 2.297 . S
O116 C118 1.247 . S
O117 Cd113 2.439 . S
O117 C118 1.208 . S
C118 O116 1.247 . S
C118 O117 1.208 . S
C119 O124 1.247 . S
C119 O125 1.208 . S
C120 O112 1.315 . S
C120 O115 1.279 . S
C121 O122 1.315 . S
C121 O123 1.279 . S
O122 Cd114 2.223 . S
O122 C121 1.315 . S
O123 Cd113 2.240 . S
O123 C121 1.279 . S
O124 Cd114 2.297 . S
O124 C119 1.247 . S
O125 Cd114 2.439 . S
O125 C119 1.208 . S
O126 Cd127 2.223 . S
O126 C134 1.315 . S
Cd127 O126 2.223 . S
Cd127 O130 2.297 . S
Cd127 O131 2.439 . S
Cd127 O137 2.240 . S
Cd128 O129 2.240 . S
Cd128 O136 2.223 . S
Cd128 O138 2.297 . S
Cd128 O139 2.439 . S
O129 Cd128 2.240 . S
O129 C134 1.279 . S
O130 Cd127 2.297 . S
O130 C132 1.247 . S
O131 Cd127 2.439 . S
O131 C132 1.208 . S
C132 O130 1.247 . S
C132 O131 1.208 . S
C133 O138 1.247 . S
C133 O139 1.208 . S
C134 O126 1.315 . S
C134 O129 1.279 . S
C135 O136 1.315 . S
C135 O137 1.279 . S
O136 Cd128 2.223 . S
O136 C135 1.315 . S
O137 Cd127 2.240 . S
O137 C135 1.279 . S
O138 Cd128 2.297 . S
O138 C133 1.247 . S
O139 Cd128 2.439 . S
O139 C133 1.208 . S
O140 Cd141 2.223 . S
O140 C148 1.315 . S
Cd141 O140 2.223 . S
Cd141 O144 2.297 . S
Cd141 O145 2.439 . S
Cd141 O151 2.240 . S
Cd142 O143 2.240 . S
Cd142 O150 2.223 . S
Cd142 O152 2.297 . S
Cd142 O153 2.439 . S
O143 Cd142 2.240 . S
O143 C148 1.279 . S
O144 Cd141 2.297 . S
O144 C146 1.247 . S
O145 Cd141 2.439 . S
O145 C146 1.208 . S
C146 O144 1.247 . S
C146 O145 1.208 . S
C147 O152 1.247 . S
C147 O153 1.208 . S
C148 O140 1.315 . S
C148 O143 1.279 . S
C149 O150 1.315 . S
C149 O151 1.279 . S
O150 Cd142 2.223 . S
O150 C149 1.315 . S
O151 Cd141 2.240 . S
O151 C149 1.279 . S
O152 Cd142 2.297 . S
O152 C147 1.247 . S
O153 Cd142 2.439 . S
O153 C147 1.208 . S
O154 Cd155 2.223 . S
O154 C162 1.315 . S
Cd155 O154 2.223 . S
Cd155 O158 2.297 . S
Cd155 O159 2.439 . S
Cd155 O165 2.240 . S
Cd156 O157 2.240 . S
Cd156 O164 2.223 . S
Cd156 O166 2.297 . S
Cd156 O167 2.439 . S
O157 Cd156 2.240 . S
O157 C162 1.279 . S
O158 Cd155 2.297 . S
O158 C160 1.247 . S
O159 Cd155 2.439 . S
O159 C160 1.208 . S
C160 O158 1.247 . S
C160 O159 1.208 . S
C161 O166 1.247 . S
C161 O167 1.208 . S
C162 O154 1.315 . S
C162 O157 1.279 . S
C163 O164 1.315 . S
C163 O165 1.279 . S
O164 Cd156 2.223 . S
O164 C163 1.315 . S
O165 Cd155 2.240 . S
O165 C163 1.279 . S
O166 Cd156 2.297 . S
O166 C161 1.247 . S
O167 Cd156 2.439 . S
O167 C161 1.208 . S
H168 C176 0.950 . S
H169 C181 0.950 . S
H170 C178 0.950 . S
H171 C180 0.950 . S
H172 C182 0.950 . S
H173 C184 0.950 . S
H174 C186 0.950 . S
H175 C187 0.950 . S
C176 H168 0.950 . S
C176 C177 1.386 . S
C176 C178 1.391 . S
C177 C176 1.386 . S
C177 C181 1.393 . S
C178 H170 0.950 . S
C178 C176 1.391 . S
C178 C179 1.400 . S
C179 C178 1.400 . S
C179 C180 1.398 . S
C179 C185 1.491 . S
C180 H171 0.950 . S
C180 C179 1.398 . S
C180 C181 1.391 . S
C181 H169 0.950 . S
C181 C177 1.393 . S
C181 C180 1.391 . S
C182 H172 0.950 . S
C182 C183 1.386 . S
C182 C184 1.391 . S
C183 C182 1.386 . S
C183 C187 1.393 . S
C184 H173 0.950 . S
C184 C182 1.391 . S
C184 C185 1.400 . S
C185 C179 1.491 . S
C185 C184 1.400 . S
C185 C186 1.398 . S
C186 H174 0.950 . S
C186 C185 1.398 . S
C186 C187 1.391 . S
C187 H175 0.950 . S
C187 C183 1.393 . S
C187 C186 1.391 . S
H188 C196 0.950 . S
H189 C201 0.950 . S
H190 C198 0.950 . S
H191 C200 0.950 . S
H192 C202 0.950 . S
H193 C204 0.950 . S
H194 C206 0.950 . S
H195 C207 0.950 . S
C196 H188 0.950 . S
C196 C197 1.386 . S
C196 C198 1.391 . S
C197 C196 1.386 . S
C197 C201 1.393 . S
C198 H190 0.950 . S
C198 C196 1.391 . S
C198 C199 1.400 . S
C199 C198 1.400 . S
C199 C200 1.398 . S
C199 C205 1.491 . S
C200 H191 0.950 . S
C200 C199 1.398 . S
C200 C201 1.391 . S
C201 H189 0.950 . S
C201 C197 1.393 . S
C201 C200 1.391 . S
C202 H192 0.950 . S
C202 C203 1.386 . S
C202 C204 1.391 . S
C203 C202 1.386 . S
C203 C207 1.393 . S
C204 H193 0.950 . S
C204 C202 1.391 . S
C204 C205 1.400 . S
C205 C199 1.491 . S
C205 C204 1.400 . S
C205 C206 1.398 . S
C206 H194 0.950 . S
C206 C205 1.398 . S
C206 C207 1.391 . S
C207 H195 0.950 . S
C207 C203 1.393 . S
C207 C206 1.391 . S
H208 C216 0.950 . S
H209 C221 0.950 . S
H210 C218 0.950 . S
H211 C220 0.950 . S
H212 C222 0.950 . S
H213 C224 0.950 . S
H214 C226 0.950 . S
H215 C227 0.950 . S
C216 H208 0.950 . S
C216 C217 1.386 . S
C216 C218 1.391 . S
C217 C216 1.386 . S
C217 C221 1.393 . S
C218 H210 0.950 . S
C218 C216 1.391 . S
C218 C219 1.400 . S
C219 C218 1.400 . S
C219 C220 1.398 . S
C219 C225 1.491 . S
C220 H211 0.950 . S
C220 C219 1.398 . S
C220 C221 1.391 . S
C221 H209 0.950 . S
C221 C217 1.393 . S
C221 C220 1.391 . S
C222 H212 0.950 . S
C222 C223 1.386 . S
C222 C224 1.391 . S
C223 C222 1.386 . S
C223 C227 1.393 . S
C224 H213 0.950 . S
C224 C222 1.391 . S
C224 C225 1.400 . S
C225 C219 1.491 . S
C225 C224 1.400 . S
C225 C226 1.398 . S
C226 H214 0.950 . S
C226 C225 1.398 . S
C226 C227 1.391 . S
C227 H215 0.950 . S
C227 C223 1.393 . S
C227 C226 1.391 . S
H228 C236 0.950 . S
H229 C241 0.950 . S
H230 C238 0.950 . S
H231 C240 0.950 . S
H232 C242 0.950 . S
H233 C244 0.950 . S
H234 C246 0.950 . S
H235 C247 0.950 . S
C236 H228 0.950 . S
C236 C237 1.386 . S
C236 C238 1.391 . S
C237 C236 1.386 . S
C237 C241 1.393 . S
C238 H230 0.950 . S
C238 C236 1.391 . S
C238 C239 1.400 . S
C239 C238 1.400 . S
C239 C240 1.398 . S
C239 C245 1.491 . S
C240 H231 0.950 . S
C240 C239 1.398 . S
C240 C241 1.391 . S
C241 H229 0.950 . S
C241 C237 1.393 . S
C241 C240 1.391 . S
C242 H232 0.950 . S
C242 C243 1.386 . S
C242 C244 1.391 . S
C243 C242 1.386 . S
C243 C247 1.393 . S
C244 H233 0.950 . S
C244 C242 1.391 . S
C244 C245 1.400 . S
C245 C239 1.491 . S
C245 C244 1.400 . S
C245 C246 1.398 . S
C246 H234 0.950 . S
C246 C245 1.398 . S
C246 C247 1.391 . S
C247 H235 0.950 . S
C247 C243 1.393 . S
C247 C246 1.391 . S
H248 C256 0.950 . S
H249 C261 0.950 . S
H250 C258 0.950 . S
H251 C260 0.950 . S
H252 C262 0.950 . S
H253 C264 0.950 . S
H254 C266 0.950 . S
H255 C267 0.950 . S
C256 H248 0.950 . S
C256 C257 1.386 . S
C256 C258 1.391 . S
C257 C256 1.386 . S
C257 C261 1.393 . S
C258 H250 0.950 . S
C258 C256 1.391 . S
C258 C259 1.400 . S
C259 C258 1.400 . S
C259 C260 1.398 . S
C259 C265 1.491 . S
C260 H251 0.950 . S
C260 C259 1.398 . S
C260 C261 1.391 . S
C261 H249 0.950 . S
C261 C257 1.393 . S
C261 C260 1.391 . S
C262 H252 0.950 . S
C262 C263 1.386 . S
C262 C264 1.391 . S
C263 C262 1.386 . S
C263 C267 1.393 . S
C264 H253 0.950 . S
C264 C262 1.391 . S
C264 C265 1.400 . S
C265 C259 1.491 . S
C265 C264 1.400 . S
C265 C266 1.398 . S
C266 H254 0.950 . S
C266 C265 1.398 . S
C266 C267 1.391 . S
C267 H255 0.950 . S
C267 C263 1.393 . S
C267 C266 1.391 . S
H268 C276 0.950 . S
H269 C281 0.950 . S
H270 C278 0.950 . S
H271 C280 0.950 . S
H272 C282 0.950 . S
H273 C284 0.950 . S
H274 C286 0.950 . S
H275 C287 0.950 . S
C276 H268 0.950 . S
C276 C277 1.386 . S
C276 C278 1.391 . S
C277 C276 1.386 . S
C277 C281 1.393 . S
C278 H270 0.950 . S
C278 C276 1.391 . S
C278 C279 1.400 . S
C279 C278 1.400 . S
C279 C280 1.398 . S
C279 C285 1.491 . S
C280 H271 0.950 . S
C280 C279 1.398 . S
C280 C281 1.391 . S
C281 H269 0.950 . S
C281 C277 1.393 . S
C281 C280 1.391 . S
C282 H272 0.950 . S
C282 C283 1.386 . S
C282 C284 1.391 . S
C283 C282 1.386 . S
C283 C287 1.393 . S
C284 H273 0.950 . S
C284 C282 1.391 . S
C284 C285 1.400 . S
C285 C279 1.491 . S
C285 C284 1.400 . S
C285 C286 1.398 . S
C286 H274 0.950 . S
C286 C285 1.398 . S
C286 C287 1.391 . S
C287 H275 0.950 . S
C287 C283 1.393 . S
C287 C286 1.391 . S
H288 C296 0.950 . S
H289 C301 0.950 . S
H290 C298 0.951 . S
H291 C300 0.950 . S
H292 C302 0.950 . S
H293 C304 0.987 . S
H294 C306 0.950 1_545 S
H295 C307 0.950 . S
C296 H288 0.950 . S
C296 C297 1.386 . S
C296 C298 1.390 1_554 S
C297 C296 1.386 . S
C297 C301 1.393 . S
C298 H290 0.951 . S
C298 C296 1.390 1_556 S
C298 C299 1.400 1_556 S
C299 C298 1.400 1_554 S
C299 C300 1.398 . S
C299 C305 1.491 1_544 S
C300 H291 0.950 . S
C300 C299 1.398 . S
C300 C301 1.391 . S
C301 H289 0.950 . S
C301 C297 1.393 . S
C301 C300 1.391 . S
C302 H292 0.950 . S
C302 C303 1.386 . S
C302 C304 1.369 1_556 S
C303 C302 1.386 . S
C303 C307 1.393 . S
C304 H293 0.987 . S
C304 C302 1.369 1_554 S
C304 C305 1.388 1_554 S
C305 C299 1.491 1_566 S
C305 C304 1.388 1_556 S
C305 C306 1.398 . S
C306 H294 0.950 1_565 S
C306 C305 1.398 . S
C306 C307 1.391 . S
C307 H295 0.950 . S
C307 C303 1.393 . S
C307 C306 1.391 . S
H308 C316 0.950 . S
H309 C321 0.950 . S
H310 C318 0.950 . S
H311 C320 0.950 . S
H312 C322 0.950 . S
H313 C324 0.950 . S
H314 C326 0.950 . S
H315 C327 0.950 . S
C316 H308 0.950 . S
C316 C317 1.386 . S
C316 C318 1.391 . S
C317 C316 1.386 . S
C317 C321 1.393 . S
C318 H310 0.950 . S
C318 C316 1.391 . S
C318 C319 1.400 . S
C319 C318 1.400 . S
C319 C320 1.398 . S
C319 C325 1.491 . S
C320 H311 0.950 . S
C320 C319 1.398 . S
C320 C321 1.391 . S
C321 H309 0.950 . S
C321 C317 1.393 . S
C321 C320 1.391 . S
C322 H312 0.950 . S
C322 C323 1.386 . S
C322 C324 1.391 . S
C323 C322 1.386 . S
C323 C327 1.393 . S
C324 H313 0.950 . S
C324 C322 1.391 . S
C324 C325 1.400 . S
C325 C319 1.491 . S
C325 C324 1.400 . S
C325 C326 1.398 . S
C326 H314 0.950 . S
C326 C325 1.398 . S
C326 C327 1.391 . S
C327 H315 0.950 . S
C327 C323 1.393 . S
C327 C326 1.391 . S
H328 C336 0.950 . S
H329 C341 0.950 . S
H330 C338 0.950 . S
H331 C340 0.950 . S
H332 C342 0.950 . S
H333 C344 0.950 . S
H334 C346 0.959 . S
H335 C347 0.950 . S
C336 H328 0.950 . S
C336 C337 1.386 . S
C336 C338 1.391 . S
C337 C336 1.386 . S
C337 C341 1.393 . S
C338 H330 0.950 . S
C338 C336 1.391 . S
C338 C339 1.400 . S
C339 C338 1.400 . S
C339 C340 1.398 . S
C339 C345 1.491 1_456 S
C340 H331 0.950 . S
C340 C339 1.398 . S
C340 C341 1.391 . S
C341 H329 0.950 . S
C341 C337 1.393 . S
C341 C340 1.391 . S
C342 H332 0.950 . S
C342 C343 1.386 . S
C342 C344 1.391 . S
C343 C342 1.386 . S
C343 C347 1.393 . S
C344 H333 0.950 . S
C344 C342 1.391 . S
C344 C345 1.400 . S
C345 C339 1.491 1_654 S
C345 C344 1.400 . S
C345 C346 1.398 . S
C346 H334 0.959 . S
C346 C345 1.398 . S
C346 C347 1.391 . S
C347 H335 0.950 . S
C347 C343 1.393 . S
C347 C346 1.391 . S
H348 C356 0.950 . S
H349 C361 0.950 . S
H350 C358 0.950 1_565 S
H351 C360 0.950 . S
H352 C362 0.950 . S
H353 C364 0.950 . S
H354 C366 0.950 . S
H355 C367 0.950 . S
C356 H348 0.950 . S
C356 C357 1.386 . S
C356 C358 1.391 . S
C357 C356 1.386 . S
C357 C361 1.393 . S
C358 H350 0.950 1_545 S
C358 C356 1.391 . S
C358 C359 1.400 . S
C359 C358 1.400 . S
C359 C360 1.398 . S
C359 C365 1.491 1_545 S
C360 H351 0.950 . S
C360 C359 1.398 . S
C360 C361 1.391 . S
C361 H349 0.950 . S
C361 C357 1.393 . S
C361 C360 1.391 . S
C362 H352 0.950 . S
C362 C363 1.386 . S
C362 C364 1.391 . S
C363 C362 1.386 . S
C363 C367 1.393 . S
C364 H353 0.950 . S
C364 C362 1.391 . S
C364 C365 1.400 . S
C365 C359 1.491 1_565 S
C365 C364 1.400 . S
C365 C366 1.398 . S
C366 H354 0.950 . S
C366 C365 1.398 . S
C366 C367 1.391 . S
C367 H355 0.950 . S
C367 C363 1.393 . S
C367 C366 1.391 . S
H368 C376 0.950 . S
H369 C381 0.950 . S
H370 C378 0.950 . S
H371 C380 0.950 . S
H372 C382 0.950 . S
H373 C384 0.950 . S
H374 C386 0.950 . S
H375 C387 0.950 . S
C376 H368 0.950 . S
C376 C377 1.386 . S
C376 C378 1.391 . S
C377 C376 1.386 . S
C377 C381 1.393 . S
C378 H370 0.950 . S
C378 C376 1.391 . S
C378 C379 1.400 . S
C379 C378 1.400 . S
C379 C380 1.398 . S
C379 C385 1.491 1_556 S
C380 H371 0.950 . S
C380 C379 1.398 . S
C380 C381 1.391 . S
C381 H369 0.950 . S
C381 C377 1.393 . S
C381 C380 1.391 . S
C382 H372 0.950 . S
C382 C383 1.386 . S
C382 C384 1.391 . S
C383 C382 1.386 . S
C383 C387 1.393 . S
C384 H373 0.950 . S
C384 C382 1.391 . S
C384 C385 1.400 . S
C385 C379 1.491 1_554 S
C385 C384 1.400 . S
C385 C386 1.398 . S
C386 H374 0.950 . S
C386 C385 1.398 . S
C386 C387 1.391 . S
C387 H375 0.950 . S
C387 C383 1.393 . S
C387 C386 1.391 . S
H388 C396 0.950 . S
H389 C401 0.950 . S
H390 C398 0.950 . S
H391 C400 0.950 1_455 S
H392 C402 0.950 . S
H393 C404 0.950 . S
H394 C406 0.950 1_655 S
H395 C407 0.950 . S
C396 H388 0.950 . S
C396 C397 1.386 . S
C396 C398 1.391 . S
C397 C396 1.386 . S
C397 C401 1.393 . S
C398 H390 0.950 . S
C398 C396 1.391 . S
C398 C399 1.400 . S
C399 C398 1.400 . S
C399 C400 1.398 . S
C399 C405 1.491 1_655 S
C400 H391 0.950 1_655 S
C400 C399 1.398 . S
C400 C401 1.391 . S
C401 H389 0.950 . S
C401 C397 1.393 . S
C401 C400 1.391 . S
C402 H392 0.950 . S
C402 C403 1.386 . S
C402 C404 1.391 . S
C403 C402 1.386 . S
C403 C407 1.393 . S
C404 H393 0.950 . S
C404 C402 1.391 . S
C404 C405 1.400 . S
C405 C399 1.491 1_455 S
C405 C404 1.400 . S
C405 C406 1.398 . S
C406 H394 0.950 1_455 S
C406 C405 1.398 . S
C406 C407 1.391 . S
C407 H395 0.950 . S
C407 C403 1.393 . S
C407 C406 1.391 . S
H408 C416 0.950 . S
H409 C421 0.950 . S
H410 C418 0.950 . S
H411 C420 0.950 . S
H412 C422 0.950 . S
H413 C424 0.950 . S
H414 C426 0.950 . S
H415 C427 0.950 . S
C416 H408 0.950 . S
C416 C417 1.386 . S
C416 C418 1.391 . S
C417 C416 1.386 . S
C417 C421 1.393 . S
C418 H410 0.950 . S
C418 C416 1.391 . S
C418 C419 1.400 . S
C419 C418 1.400 . S
C419 C420 1.398 . S
C419 C425 1.491 . S
C420 H411 0.950 . S
C420 C419 1.398 . S
C420 C421 1.391 . S
C421 H409 0.950 . S
C421 C417 1.393 . S
C421 C420 1.391 . S
C422 H412 0.950 . S
C422 C423 1.386 . S
C422 C424 1.391 . S
C423 C422 1.386 . S
C423 C427 1.393 . S
C424 H413 0.950 . S
C424 C422 1.391 . S
C424 C425 1.400 . S
C425 C419 1.491 . S
C425 C424 1.400 . S
C425 C426 1.398 . S
C426 H414 0.950 . S
C426 C425 1.398 . S
C426 C427 1.391 . S
C427 H415 0.950 . S
C427 C423 1.393 . S
C427 C426 1.391 . S
H428 C436 0.950 . S
H429 C441 0.950 . S
H430 C438 0.950 . S
H431 C440 0.950 . S
H432 C442 0.950 . S
H433 C444 0.950 . S
H434 C446 0.950 . S
H435 C447 0.950 . S
C436 H428 0.950 . S
C436 C437 1.386 . S
C436 C438 1.391 . S
C437 C436 1.386 . S
C437 C441 1.393 . S
C438 H430 0.950 . S
C438 C436 1.391 . S
C438 C439 1.400 . S
C439 C438 1.400 . S
C439 C440 1.398 . S
C439 C445 1.491 . S
C440 H431 0.950 . S
C440 C439 1.398 . S
C440 C441 1.391 . S
C441 H429 0.950 . S
C441 C437 1.393 . S
C441 C440 1.391 . S
C442 H432 0.950 . S
C442 C443 1.386 . S
C442 C444 1.391 . S
C443 C442 1.386 . S
C443 C447 1.393 . S
C444 H433 0.950 . S
C444 C442 1.391 . S
C444 C445 1.400 . S
C445 C439 1.491 . S
C445 C444 1.400 . S
C445 C446 1.398 . S
C446 H434 0.950 . S
C446 C445 1.398 . S
C446 C447 1.391 . S
C447 H435 0.950 . S
C447 C443 1.393 . S
C447 C446 1.391 . S
H448 C456 0.950 . S
H449 C461 0.950 . S
H450 C458 0.950 . S
H451 C460 0.950 . S
H452 C462 0.950 . S
H453 C464 0.950 . S
H454 C466 0.950 . S
H455 C467 0.950 . S
C456 H448 0.950 . S
C456 C457 1.386 . S
C456 C458 1.391 . S
C457 C456 1.386 . S
C457 C461 1.393 . S
C458 H450 0.950 . S
C458 C456 1.391 . S
C458 C459 1.400 . S
C459 C458 1.400 . S
C459 C460 1.398 . S
C459 C465 1.491 . S
C460 H451 0.950 . S
C460 C459 1.398 . S
C460 C461 1.391 . S
C461 H449 0.950 . S
C461 C457 1.393 . S
C461 C460 1.391 . S
C462 H452 0.950 . S
C462 C463 1.386 . S
C462 C464 1.391 . S
C463 C462 1.386 . S
C463 C467 1.393 . S
C464 H453 0.950 . S
C464 C462 1.391 . S
C464 C465 1.400 . S
C465 C459 1.491 . S
C465 C464 1.400 . S
C465 C466 1.398 . S
C466 H454 0.950 . S
C466 C465 1.398 . S
C466 C467 1.391 . S
C467 H455 0.950 . S
C467 C463 1.393 . S
C467 C466 1.391 . S
H468 C476 0.950 . S
H469 C481 0.950 . S
H470 C478 0.950 . S
H471 C480 0.950 . S
H472 C482 0.950 . S
H473 C484 0.950 . S
H474 C486 0.950 . S
H475 C487 0.950 . S
C476 H468 0.950 . S
C476 C477 1.386 . S
C476 C478 1.391 . S
C477 C476 1.386 . S
C477 C481 1.393 . S
C478 H470 0.950 . S
C478 C476 1.391 . S
C478 C479 1.400 . S
C479 C478 1.400 . S
C479 C480 1.398 . S
C479 C485 1.491 . S
C480 H471 0.950 . S
C480 C479 1.398 . S
C480 C481 1.391 . S
C481 H469 0.950 . S
C481 C477 1.393 . S
C481 C480 1.391 . S
C482 H472 0.950 . S
C482 C483 1.386 . S
C482 C484 1.391 . S
C483 C482 1.386 . S
C483 C487 1.393 . S
C484 H473 0.950 . S
C484 C482 1.391 . S
C484 C485 1.400 . S
C485 C479 1.491 . S
C485 C484 1.400 . S
C485 C486 1.398 . S
C486 H474 0.950 . S
C486 C485 1.398 . S
C486 C487 1.391 . S
C487 H475 0.950 . S
C487 C483 1.393 . S
C487 C486 1.391 . S
H488 C496 0.950 . S
H489 C501 0.950 . S
H490 C498 0.950 . S
H491 C500 0.950 . S
H492 C502 0.950 . S
H493 C504 0.950 . S
H494 C506 0.950 . S
H495 C507 0.950 . S
C496 H488 0.950 . S
C496 C497 1.386 . S
C496 C498 1.391 . S
C497 C496 1.386 . S
C497 C501 1.393 . S
C498 H490 0.950 . S
C498 C496 1.391 . S
C498 C499 1.400 . S
C499 C498 1.400 . S
C499 C500 1.398 . S
C499 C505 1.491 . S
C500 H491 0.950 . S
C500 C499 1.398 . S
C500 C501 1.391 . S
C501 H489 0.950 . S
C501 C497 1.393 . S
C501 C500 1.391 . S
C502 H492 0.950 . S
C502 C503 1.386 . S
C502 C504 1.391 . S
C503 C502 1.386 . S
C503 C507 1.393 . S
C504 H493 0.950 . S
C504 C502 1.391 . S
C504 C505 1.400 . S
C505 C499 1.491 . S
C505 C504 1.400 . S
C505 C506 1.398 . S
C506 H494 0.950 . S
C506 C505 1.398 . S
C506 C507 1.391 . S
C507 H495 0.950 . S
C507 C503 1.393 . S
C507 C506 1.391 . S
H508 C516 0.950 . S
H509 C521 0.950 . S
H510 C518 0.950 . S
H511 C520 0.950 . S
H512 C522 0.950 . S
H513 C524 0.950 . S
H514 C526 0.950 . S
H515 C527 0.950 . S
C516 H508 0.950 . S
C516 C517 1.386 . S
C516 C518 1.391 . S
C517 C516 1.386 . S
C517 C521 1.393 . S
C518 H510 0.950 . S
C518 C516 1.391 . S
C518 C519 1.400 . S
C519 C518 1.400 . S
C519 C520 1.398 . S
C519 C525 1.491 . S
C520 H511 0.950 . S
C520 C519 1.398 . S
C520 C521 1.391 . S
C521 H509 0.950 . S
C521 C517 1.393 . S
C521 C520 1.391 . S
C522 H512 0.950 . S
C522 C523 1.386 . S
C522 C524 1.391 . S
C523 C522 1.386 . S
C523 C527 1.393 . S
C524 H513 0.950 . S
C524 C522 1.391 . S
C524 C525 1.400 . S
C525 C519 1.491 . S
C525 C524 1.400 . S
C525 C526 1.398 . S
C526 H514 0.950 . S
C526 C525 1.398 . S
C526 C527 1.391 . S
C527 H515 0.950 . S
C527 C523 1.393 . S
C527 C526 1.391 . S
H528 C536 0.950 . S
H529 C541 0.950 . S
H530 C538 0.950 . S
H531 C540 0.950 . S
H532 C542 0.950 . S
H533 C544 0.950 . S
H534 C546 0.950 . S
H535 C547 0.950 . S
C536 H528 0.950 . S
C536 C537 1.386 . S
C536 C538 1.391 . S
C537 C536 1.386 . S
C537 C541 1.393 . S
C538 H530 0.950 . S
C538 C536 1.391 . S
C538 C539 1.400 . S
C539 C538 1.400 . S
C539 C540 1.398 . S
C539 C545 1.491 . S
C540 H531 0.950 . S
C540 C539 1.398 . S
C540 C541 1.391 . S
C541 H529 0.950 . S
C541 C537 1.393 . S
C541 C540 1.391 . S
C542 H532 0.950 . S
C542 C543 1.386 . S
C542 C544 1.391 . S
C543 C542 1.386 . S
C543 C547 1.393 . S
C544 H533 0.950 . S
C544 C542 1.391 . S
C544 C545 1.400 . S
C545 C539 1.491 . S
C545 C544 1.400 . S
C545 C546 1.398 . S
C546 H534 0.950 . S
C546 C545 1.398 . S
C546 C547 1.391 . S
C547 H535 0.950 . S
C547 C543 1.393 . S
C547 C546 1.391 . S
H548 C556 0.950 . S
H549 C561 0.950 . S
H550 C558 0.950 . S
H551 C560 0.950 . S
H552 C562 0.950 . S
H553 C564 0.950 . S
H554 C566 0.950 . S
H555 C567 0.950 . S
C556 H548 0.950 . S
C556 C557 1.386 . S
C556 C558 1.391 . S
C557 C556 1.386 . S
C557 C561 1.393 . S
C558 H550 0.950 . S
C558 C556 1.391 . S
C558 C559 1.400 . S
C559 C558 1.400 . S
C559 C560 1.398 . S
C559 C565 1.491 . S
C560 H551 0.950 . S
C560 C559 1.398 . S
C560 C561 1.391 . S
C561 H549 0.950 . S
C561 C557 1.393 . S
C561 C560 1.391 . S
C562 H552 0.950 . S
C562 C563 1.386 . S
C562 C564 1.391 . S
C563 C562 1.386 . S
C563 C567 1.393 . S
C564 H553 0.950 . S
C564 C562 1.391 . S
C564 C565 1.400 . S
C565 C559 1.491 . S
C565 C564 1.400 . S
C565 C566 1.398 . S
C566 H554 0.950 . S
C566 C565 1.398 . S
C566 C567 1.391 . S
C567 H555 0.950 . S
C567 C563 1.393 . S
C567 C566 1.391 . S
H568 C576 0.950 . S
H569 C581 0.950 . S
H570 C578 0.950 . S
H571 C580 0.950 . S
H572 C582 0.950 . S
H573 C584 0.950 . S
H574 C586 0.950 . S
H575 C587 0.950 . S
C576 H568 0.950 . S
C576 C577 1.386 . S
C576 C578 1.391 . S
C577 C576 1.386 . S
C577 C581 1.393 . S
C578 H570 0.950 . S
C578 C576 1.391 . S
C578 C579 1.400 . S
C579 C578 1.400 . S
C579 C580 1.398 . S
C579 C585 1.491 . S
C580 H571 0.950 . S
C580 C579 1.398 . S
C580 C581 1.391 . S
C581 H569 0.950 . S
C581 C577 1.393 . S
C581 C580 1.391 . S
C582 H572 0.950 . S
C582 C583 1.386 . S
C582 C584 1.391 . S
C583 C582 1.386 . S
C583 C587 1.393 . S
C584 H573 0.950 . S
C584 C582 1.391 . S
C584 C585 1.400 . S
C585 C579 1.491 . S
C585 C584 1.400 . S
C585 C586 1.398 . S
C586 H574 0.950 . S
C586 C585 1.398 . S
C586 C587 1.391 . S
C587 H575 0.950 . S
C587 C583 1.393 . S
C587 C586 1.391 . S
H588 C596 0.950 . S
H589 C601 0.950 . S
H590 C598 0.950 . S
H591 C600 0.950 . S
H592 C602 0.950 . S
H593 C604 0.950 . S
H594 C606 0.950 . S
H595 C607 0.950 . S
C596 H588 0.950 . S
C596 C597 1.386 . S
C596 C598 1.391 . S
C597 C596 1.386 . S
C597 C601 1.393 . S
C598 H590 0.950 . S
C598 C596 1.391 . S
C598 C599 1.400 . S
C599 C598 1.400 . S
C599 C600 1.398 . S
C599 C605 1.491 . S
C600 H591 0.950 . S
C600 C599 1.398 . S
C600 C601 1.391 . S
C601 H589 0.950 . S
C601 C597 1.393 . S
C601 C600 1.391 . S
C602 H592 0.950 . S
C602 C603 1.386 . S
C602 C604 1.391 . S
C603 C602 1.386 . S
C603 C607 1.393 . S
C604 H593 0.950 . S
C604 C602 1.391 . S
C604 C605 1.400 . S
C605 C599 1.491 . S
C605 C604 1.400 . S
C605 C606 1.398 . S
C606 H594 0.950 . S
C606 C605 1.398 . S
C606 C607 1.391 . S
C607 H595 0.950 . S
C607 C603 1.393 . S
C607 C606 1.391 . S
H608 C616 0.950 . S
H609 C621 0.950 . S
H610 C618 0.950 . S
H611 C620 0.950 . S
H612 C622 0.950 . S
H613 C624 0.950 . S
H614 C626 0.950 . S
H615 C627 0.950 . S
C616 H608 0.950 . S
C616 C617 1.386 . S
C616 C618 1.391 . S
C617 C616 1.386 . S
C617 C621 1.393 . S
C618 H610 0.950 . S
C618 C616 1.391 . S
C618 C619 1.400 . S
C619 C618 1.400 . S
C619 C620 1.398 . S
C619 C625 1.491 . S
C620 H611 0.950 . S
C620 C619 1.398 . S
C620 C621 1.391 . S
C621 H609 0.950 . S
C621 C617 1.393 . S
C621 C620 1.391 . S
C622 H612 0.950 . S
C622 C623 1.386 . S
C622 C624 1.391 . S
C623 C622 1.386 . S
C623 C627 1.393 . S
C624 H613 0.950 . S
C624 C622 1.391 . S
C624 C625 1.400 . S
C625 C619 1.491 . S
C625 C624 1.400 . S
C625 C626 1.398 . S
C626 H614 0.950 . S
C626 C625 1.398 . S
C626 C627 1.391 . S
C627 H615 0.950 . S
C627 C623 1.393 . S
C627 C626 1.391 . S
H628 C636 0.950 . S
H629 C641 0.950 . S
H630 C638 0.950 . S
H631 C640 0.950 . S
H632 C642 0.950 . S
H633 C644 0.950 . S
H634 C646 0.950 . S
H635 C647 0.950 . S
C636 H628 0.950 . S
C636 C637 1.386 . S
C636 C638 1.391 . S
C637 C636 1.386 . S
C637 C641 1.393 . S
C638 H630 0.950 . S
C638 C636 1.391 . S
C638 C639 1.400 . S
C639 C638 1.400 . S
C639 C640 1.398 . S
C639 C645 1.491 . S
C640 H631 0.950 . S
C640 C639 1.398 . S
C640 C641 1.391 . S
C641 H629 0.950 . S
C641 C637 1.393 . S
C641 C640 1.391 . S
C642 H632 0.950 . S
C642 C643 1.386 . S
C642 C644 1.391 . S
C643 C642 1.386 . S
C643 C647 1.393 . S
C644 H633 0.950 . S
C644 C642 1.391 . S
C644 C645 1.400 . S
C645 C639 1.491 . S
C645 C644 1.400 . S
C645 C646 1.398 . S
C646 H634 0.950 . S
C646 C645 1.398 . S
C646 C647 1.391 . S
C647 H635 0.950 . S
C647 C643 1.393 . S
C647 C646 1.391 . S
C177 C147 1.501 . S
C183 C7 1.492 . S
C197 C21 1.372 . S
C203 C160 1.355 . S
C217 C34 1.488 . S
C223 C91 1.464 . S
C237 C105 1.493 . S
C243 C49 1.496 . S
C257 C118 1.373 . S
C263 C63 1.355 . S
C277 C76 1.479 . S
C283 C133 1.475 . S
C297 C6 1.000 . S
C303 C104 0.988 . S
C317 C20 0.896 . S
C323 C119 0.866 . S
C337 C132 0.985 . S
C343 C35 0.953 . S
C357 C146 0.988 . S
C363 C48 0.998 . S
C377 C161 0.862 . S
C383 C62 0.875 . S
C397 C90 0.985 . S
C403 C77 0.975 . S
C417 C8 1.145 . S
C423 C65 1.160 . S
C437 C22 1.270 . S
C443 C78 1.303 . S
C457 C37 1.151 . S
C463 C9 1.149 . S
C477 C50 1.153 . S
C483 C23 1.153 . S
C497 C64 1.278 . S
C503 C36 1.300 . S
C517 C79 1.134 . S
C523 C51 1.161 . S
C537 C92 1.161 . S
C543 C120 1.149 . S
C557 C106 1.151 . S
C563 C135 1.150 . S
C577 C149 1.304 . S
C583 C121 1.268 . S
C597 C134 1.162 . S
C603 C162 1.149 . S
C617 C148 1.120 . S
C623 C93 1.169 . S
C637 C163 1.274 . S
C643 C107 1.301 . S
