# Generated by pormake.
# Topology sxa, (6)-cn, num edge types: 1
# Building blocks:
#     Node 0, Type 0, BuildingBlock: MIFKUJ_clean_sbu_0, # of connection points: 6
#     Node 1, Type 0, BuildingBlock: MIFKUJ_clean_sbu_0, # of connection points: 6
#     Node 2, Type 0, BuildingBlock: MIFKUJ_clean_sbu_0, # of connection points: 6
#     Node 3, Type 0, BuildingBlock: MIFKUJ_clean_sbu_0, # of connection points: 6
#     Edge 4, Type (0, 0), BuildingBlock: XIVTED_clean_linker_0, # of connection points: 2
#     Edge 5, Type (0, 0), BuildingBlock: XIVTED_clean_linker_0, # of connection points: 2
#     Edge 6, Type (0, 0), BuildingBlock: XIVTED_clean_linker_0, # of connection points: 2
#     Edge 7, Type (0, 0), BuildingBlock: XIVTED_clean_linker_0, # of connection points: 2
#     Edge 8, Type (0, 0), BuildingBlock: XIVTED_clean_linker_0, # of connection points: 2
#     Edge 9, Type (0, 0), BuildingBlock: XIVTED_clean_linker_0, # of connection points: 2
#     Edge 10, Type (0, 0), BuildingBlock: XIVTED_clean_linker_0, # of connection points: 2
#     Edge 11, Type (0, 0), BuildingBlock: XIVTED_clean_linker_0, # of connection points: 2
#     Edge 12, Type (0, 0), BuildingBlock: XIVTED_clean_linker_0, # of connection points: 2
#     Edge 13, Type (0, 0), BuildingBlock: XIVTED_clean_linker_0, # of connection points: 2
#     Edge 14, Type (0, 0), BuildingBlock: XIVTED_clean_linker_0, # of connection points: 2
#     Edge 15, Type (0, 0), BuildingBlock: XIVTED_clean_linker_0, # of connection points: 2
# Relax obj value: 0.126
# Max RMSD: 0.253
# Mean RMSD: 0.253
data_MOF--net-sxa--node1-MIFKUJ_clean_sbu_0--edge1-XIVTED_clean_linker_0
_symmetry_space_group_name_H-M    P1
_symmetry_Int_Tables_number       1
_symmetry_cell_setting            triclinic
loop_
_symmetry_equiv_pos_as_xyz
'x, y, z'
_cell_length_a     31.248537
_cell_length_b     26.369422
_cell_length_c     14.666349
_cell_angle_alpha  97.829557
_cell_angle_beta   89.430488
_cell_angle_gamma 90.367878
loop_
_atom_site_label
_atom_site_type_symbol
_atom_site_fract_x
_atom_site_fract_y
_atom_site_fract_z
_atom_type_partial_charge
Zn0 Zn 0.96107 0.79952 0.21961 0.0
Zn1 Zn 0.07844 0.75629 0.19974 0.0
C2 C 0.88594 0.7622 0.29737 0.0
O3 O 0.88754 0.73375 0.21658 0.0
C4 C 0.08464 0.72188 0.00391 0.0
O5 O 0.05451 0.7557 0.9975 0.0
O6 O 0.92832 0.82966 0.1256 0.0
O7 O 0.00885 0.84975 0.25767 0.0
O8 O 0.06304 0.82573 0.16515 0.0
C9 C 0.90244 0.86577 0.15163 0.0
O10 O 0.9017 0.8859 0.23867 0.0
O11 O 0.91665 0.79327 0.32018 0.0
C12 C 0.1582 0.73004 0.27871 0.0
O13 O 0.15174 0.68675 0.22466 0.0
O14 O 0.12991 0.76486 0.28336 0.0
O15 O 0.03071 0.71625 0.24941 0.0
O16 O 0.97769 0.72888 0.15874 0.0
O17 O 0.09809 0.71503 0.08273 0.0
C18 C 0.03611 0.85957 0.19738 0.0
C19 C 0.00457 0.69889 0.18706 0.0
Zn20 Zn 0.43395 0.28276 0.2475 0.0
Zn21 Zn 0.55246 0.25876 0.22426 0.0
C22 C 0.40138 0.24211 0.39623 0.0
O23 O 0.39788 0.20389 0.32915 0.0
C24 C 0.56527 0.22916 0.02712 0.0
O25 O 0.536 0.26339 0.01673 0.0
O26 O 0.37326 0.29213 0.21443 0.0
O27 O 0.46522 0.34376 0.21243 0.0
O28 O 0.53498 0.32944 0.19338 0.0
C29 C 0.35459 0.33287 0.24985 0.0
O30 O 0.37684 0.36975 0.29703 0.0
O31 O 0.42513 0.27992 0.38303 0.0
C32 C 0.63132 0.23266 0.30866 0.0
O33 O 0.62554 0.18967 0.25331 0.0
O34 O 0.60302 0.26748 0.31198 0.0
O35 O 0.50715 0.21123 0.26436 0.0
O36 O 0.45244 0.21698 0.17446 0.0
O37 O 0.57581 0.22146 0.10744 0.0
C38 C 0.50245 0.35819 0.1909 0.0
C39 C 0.48322 0.19131 0.19945 0.0
Zn40 Zn 0.93238 0.24901 0.83126 0.0
Zn41 Zn 0.05055 0.27214 0.84179 0.0
C42 C 0.89872 0.28684 0.6821 0.0
O43 O 0.89424 0.32489 0.74928 0.0
C44 C 0.06678 0.30115 0.03762 0.0
O45 O 0.03779 0.26654 0.05083 0.0
O46 O 0.87149 0.24072 0.86606 0.0
O47 O 0.96248 0.18785 0.86835 0.0
O48 O 0.03271 0.20184 0.87445 0.0
C49 C 0.85269 0.20092 0.82658 0.0
O50 O 0.87515 0.1648 0.77775 0.0
O51 O 0.92319 0.25002 0.69498 0.0
C52 C 0.12744 0.29981 0.75192 0.0
O53 O 0.11944 0.34373 0.80288 0.0
O54 O 0.10064 0.26324 0.75216 0.0
O55 O 0.00544 0.31884 0.80302 0.0
O56 O 0.95228 0.31584 0.90008 0.0
O57 O 0.07541 0.30984 0.95643 0.0
C58 C 0.00018 0.17351 0.88409 0.0
C59 C 0.98308 0.3404 0.86987 0.0
Zn60 Zn 0.44407 0.74302 0.79537 0.0
Zn61 Zn 0.55319 0.75691 0.7831 0.0
C62 C 0.42628 0.78757 0.64261 0.0
O63 O 0.42061 0.82577 0.70902 0.0
C64 C 0.63616 0.75801 0.85261 0.0
O65 O 0.63754 0.71512 0.79536 0.0
O66 O 0.38079 0.73632 0.80745 0.0
O67 O 0.46665 0.67938 0.8333 0.0
O68 O 0.53686 0.68969 0.83271 0.0
C69 C 0.36338 0.69668 0.76377 0.0
O70 O 0.38748 0.6604 0.72005 0.0
O71 O 0.44767 0.74923 0.6604 0.0
C72 C 0.60668 0.78681 0.64697 0.0
O73 O 0.59843 0.82995 0.70017 0.0
O74 O 0.58546 0.74695 0.66032 0.0
O75 O 0.51694 0.82187 0.79699 0.0
O76 O 0.46169 0.80503 0.88209 0.0
O77 O 0.60104 0.78177 0.86575 0.0
C78 C 0.50377 0.66367 0.84857 0.0
C79 C 0.49077 0.83553 0.8624 0.0
H80 H 0.97706 0.37428 0.05357 0.0
H81 H 0.98894 0.66564 0.00593 0.0
H82 H 0.01499 0.42282 0.79545 0.0
H83 H 0.03031 0.61256 0.256 0.0
H84 H 0.99171 0.57749 0.92748 0.0
H85 H 0.99005 0.46141 0.13087 0.0
C86 C 0.98834 0.4033 0.01332 0.0
C87 C 0.9947 0.39156 0.91792 0.0
C88 C 0.00057 0.58524 0.99926 0.0
C89 C 0.0087 0.49128 0.00551 0.0
C90 C -0.00125 0.6354 0.04423 0.0
C91 C 0.00916 0.6463 0.13779 0.0
C92 C 0.0116 0.54542 0.04883 0.0
C93 C 0.02203 0.60574 0.18385 0.0
C94 C 0.99595 0.45283 0.05751 0.0
C95 C 0.00972 0.43039 0.8691 0.0
N96 N 0.02213 0.55687 0.13936 0.0
N97 N 0.01542 0.47886 0.91314 0.0
H98 H 0.44022 0.4292 0.17946 0.0
H99 H 0.57668 0.61585 0.90104 0.0
H100 H 0.57297 0.39848 0.10922 0.0
H101 H 0.4387 0.60488 0.90285 0.0
H102 H 0.57939 0.54298 0.98974 0.0
H103 H 0.44305 0.5027 0.09627 0.0
C104 C 0.47021 0.4381 0.14733 0.0
C105 C 0.50634 0.40707 0.15109 0.0
C106 C 0.54866 0.55659 0.97006 0.0
C107 C 0.50961 0.4918 0.05416 0.0
C108 C 0.54705 0.59803 0.91924 0.0
C109 C 0.5074 0.61681 0.89432 0.0
C110 C 0.51035 0.53439 0.99711 0.0
C111 C 0.47008 0.59215 0.92026 0.0
C112 C 0.47169 0.48009 0.09916 0.0
C113 C 0.54429 0.42118 0.10817 0.0
N114 N 0.47253 0.55273 0.97049 0.0
N115 N 0.54492 0.46243 0.06108 0.0
H116 H 0.46597 0.86757 0.03981 0.0
H117 H 0.47879 0.16211 0.01483 0.0
H118 H 0.52107 0.92267 0.8007 0.0
H119 H 0.50643 0.10427 0.26884 0.0
H120 H 0.48551 0.07515 0.93218 0.0
H121 H 0.47062 0.95458 0.12364 0.0
C122 C 0.47885 0.89803 0.00488 0.0
C123 C 0.49294 0.88802 0.91304 0.0
C124 C 0.49053 0.08161 0.00583 0.0
C125 C 0.49793 0.98734 0.00813 0.0
C126 C 0.48663 0.13105 0.05297 0.0
C127 C 0.49207 0.14014 0.14865 0.0
C128 C 0.49844 0.04074 0.05519 0.0
C129 C 0.50224 0.09872 0.19495 0.0
C130 C 0.48184 0.94744 0.05296 0.0
C131 C 0.50982 0.92878 0.87139 0.0
N132 N 0.50431 0.0505 0.14799 0.0
N133 N 0.51129 0.97686 0.91883 0.0
H134 H 0.09113 0.89426 0.07224 0.0
H135 H 0.9385 0.11775 0.96049 0.0
H136 H 0.97522 0.93528 0.22635 0.0
H137 H 0.07424 0.11969 0.9031 0.0
H138 H 0.94841 0.04291 0.03944 0.0
H139 H 0.08319 0.97003 0.99435 0.0
C140 C 0.06403 0.91919 0.09006 0.0
C141 C 0.03348 0.90785 0.15555 0.0
C142 C 0.976 0.05966 0.00938 0.0
C143 C 0.02393 0.99429 0.06496 0.0
C144 C 0.97038 0.10219 0.96349 0.0
C145 C 0.00562 0.12524 0.92477 0.0
C146 C 0.01705 0.03924 0.01563 0.0
C147 C 0.04615 0.10332 0.93184 0.0
C148 C 0.05958 0.96244 0.04539 0.0
C149 C -0.0008 0.94189 0.17564 0.0
N150 N 0.05074 0.06144 0.97601 0.0
N151 N 0.9951 0.98317 0.12986 0.0
H152 H 0.4057 0.6998 0.52677 0.0
H153 H 0.1864 0.81892 0.37984 0.0
H154 H 0.37327 0.85972 0.58937 0.0
H155 H 0.22444 0.66319 0.28706 0.0
H156 H 0.25572 0.83464 0.45411 0.0
H157 H 0.34191 0.68626 0.43103 0.0
C158 C 0.38583 0.73235 0.51864 0.0
C159 C 0.39477 0.78095 0.56693 0.0
C160 C 0.24899 0.79704 0.41731 0.0
C161 C 0.3211 0.76541 0.45906 0.0
C162 C 0.20924 0.78794 0.37533 0.0
C163 C 0.19943 0.73959 0.32739 0.0
C164 C 0.27921 0.75746 0.41187 0.0
C165 C 0.23051 0.70104 0.32347 0.0
C166 C 0.34912 0.72447 0.4646 0.0
C167 C 0.36754 0.82152 0.55409 0.0
N168 N 0.26891 0.71075 0.36537 0.0
N169 N 0.33173 0.81272 0.50245 0.0
H170 H 0.19128 0.37007 0.7377 0.0
H171 H 0.34749 0.16862 0.4457 0.0
H172 H 0.15913 0.21103 0.65589 0.0
H173 H 0.37648 0.32982 0.50734 0.0
H174 H 0.28192 0.18208 0.53715 0.0
H175 H 0.2614 0.35517 0.66402 0.0
C176 C 0.19884 0.33202 0.70392 0.0
C177 C 0.16909 0.29177 0.70277 0.0
C178 C 0.30282 0.21446 0.53168 0.0
C179 C 0.24973 0.27435 0.61906 0.0
C180 C 0.34052 0.20673 0.48002 0.0
C181 C 0.36754 0.24817 0.46838 0.0
C182 C 0.29181 0.26407 0.57205 0.0
C183 C 0.35676 0.29668 0.51457 0.0
C184 C 0.23902 0.32353 0.66217 0.0
C185 C 0.18088 0.24328 0.6582 0.0
N186 N 0.3195 0.30338 0.56353 0.0
N187 N 0.22024 0.23595 0.61825 0.0
H188 H 0.87739 0.19954 0.56524 0.0
H189 H 0.65835 0.32037 0.41612 0.0
H190 H 0.84342 0.35851 0.63578 0.0
H191 H 0.69718 0.16547 0.31892 0.0
H192 H 0.72658 0.33484 0.4959 0.0
H193 H 0.81337 0.1866 0.46947 0.0
C194 C 0.85707 0.23199 0.55901 0.0
C195 C 0.86585 0.2802 0.60891 0.0
C196 C 0.72023 0.29767 0.45701 0.0
C197 C 0.79192 0.26536 0.50114 0.0
C198 C 0.68111 0.28931 0.41179 0.0
C199 C 0.67183 0.24157 0.36084 0.0
C200 C 0.75041 0.258 0.45176 0.0
C201 C 0.70282 0.20288 0.35747 0.0
C202 C 0.82025 0.22446 0.50499 0.0
C203 C 0.83794 0.32062 0.59894 0.0
N204 N 0.7406 0.21189 0.40238 0.0
N205 N 0.80214 0.31219 0.54708 0.0
H206 H 0.82097 0.69168 0.2808 0.0
H207 H 0.66615 0.86161 0.63337 0.0
H208 H 0.86006 0.83338 0.44169 0.0
H209 H 0.63843 0.70351 0.53177 0.0
H210 H 0.73478 0.85386 0.55298 0.0
H211 H 0.75252 0.69652 0.36391 0.0
C212 C 0.81533 0.72363 0.33419 0.0
C213 C 0.8464 0.76222 0.35427 0.0
C214 C 0.71369 0.82086 0.54787 0.0
C215 C 0.76766 0.76832 0.44871 0.0
C216 C 0.67418 0.82531 0.59321 0.0
C217 C 0.64616 0.78315 0.58917 0.0
C218 C 0.72546 0.77403 0.49697 0.0
C219 C 0.65883 0.73708 0.5365 0.0
C220 C 0.77618 0.72634 0.38152 0.0
C221 C 0.83722 0.80265 0.42415 0.0
N222 N 0.69752 0.73376 0.49231 0.0
N223 N 0.79858 0.80485 0.46823 0.0
H224 H 0.31565 0.60912 0.75507 0.0
H225 H 0.10144 0.76919 0.85337 0.0
H226 H 0.30518 0.77288 0.76633 0.0
H227 H 0.1299 0.63323 0.97449 0.0
H228 H 0.16476 0.75354 0.75421 0.0
H229 H 0.23749 0.60352 0.77225 0.0
C230 C 0.29677 0.64369 0.75943 0.0
C231 C 0.3166 0.69168 0.76206 0.0
C232 C 0.15619 0.72622 0.80028 0.0
C233 C 0.22801 0.68539 0.77877 0.0
C234 C 0.11996 0.73487 0.85634 0.0
C235 C 0.11135 0.70311 0.92362 0.0
C236 C 0.18335 0.68537 0.81149 0.0
C237 C 0.13624 0.65916 0.92464 0.0
C238 C 0.25238 0.64043 0.76879 0.0
C239 C 0.29097 0.73534 0.76671 0.0
N240 N 0.17178 0.65206 0.87064 0.0
N241 N 0.24791 0.73122 0.77574 0.0
H242 H 0.0911 0.25327 0.18213 0.0
H243 H 0.30586 0.41848 0.24803 0.0
H244 H 0.1134 0.38943 0.05504 0.0
H245 H 0.29731 0.25502 0.24656 0.0
H246 H 0.22761 0.42132 0.23211 0.0
H247 H 0.15809 0.26954 0.26641 0.0
C248 C 0.10924 0.28764 0.17467 0.0
C249 C 0.09747 0.31945 0.1101 0.0
C250 C 0.24299 0.38508 0.23676 0.0
C251 C 0.17374 0.33785 0.2051 0.0
C252 C 0.28741 0.38339 0.24531 0.0
C253 C 0.30781 0.33627 0.24598 0.0
C254 C 0.21914 0.33948 0.23119 0.0
C255 C 0.28272 0.2919 0.24361 0.0
C256 C 0.14757 0.29662 0.22211 0.0
C257 C 0.12204 0.36347 0.10299 0.0
N258 N 0.23963 0.29455 0.23587 0.0
N259 N 0.15959 0.37095 0.14868 0.0
H260 H 0.60705 0.13829 1.00074 0.0
H261 H 0.79813 0.28047 0.82827 0.0
H262 H 0.5911 0.27855 0.88454 0.0
H263 H 0.80123 0.11624 0.81704 0.0
H264 H 0.72015 0.27742 0.83314 0.0
H265 H 0.67379 0.12272 0.91369 0.0
C266 C 0.61691 0.16481 0.95411 0.0
C267 C 0.59439 0.21034 0.95121 0.0
C268 C 0.73775 0.24188 0.8282 0.0
C269 C 0.67093 0.19381 0.85442 0.0
C270 C 0.78222 0.24374 0.82696 0.0
C271 C 0.80582 0.19867 0.82514 0.0
C272 C 0.71684 0.19476 0.83018 0.0
C273 C 0.78391 0.15188 0.8203 0.0
C274 C 0.655 0.15601 0.90461 0.0
C275 C 0.60798 0.24331 0.8894 0.0
N276 N 0.74046 0.15118 0.82524 0.0
N277 N 0.64628 0.23525 0.84552 0.0
H278 H 0.82597 0.91216 0.20087 0.0
H279 H 0.71717 0.73698 0.79011 0.0
H280 H 0.89549 0.83426 0.96757 0.0
H281 H 0.64515 0.83719 0.99221 0.0
H282 H 0.78276 0.78022 0.84583 0.0
H283 H 0.75967 0.89731 0.11476 0.0
C284 C 0.82749 0.89333 0.13051 0.0
C285 C 0.86599 0.87286 0.09219 0.0
C286 C 0.75264 0.79307 0.87777 0.0
C287 C 0.79044 0.8549 0.99445 0.0
C288 C 0.71524 0.76788 0.84678 0.0
C289 C 0.6759 0.78288 0.88806 0.0
C290 C 0.75074 0.83303 0.95152 0.0
C291 C 0.67504 0.82405 0.95949 0.0
C292 C 0.78955 0.88455 0.08158 0.0
C293 C 0.86622 0.84937 1.00052 0.0
N294 N 0.71207 0.84735 0.98988 0.0
N295 N 0.8288 0.83994 0.95542 0.0
loop_
_geom_bond_atom_site_label_1
_geom_bond_atom_site_label_2
_geom_bond_distance
_geom_bond_site_symmetry_2
_ccdc_geom_bond_type
Zn0 O6 1.969 . S
Zn0 O7 1.965 . S
Zn0 O11 2.024 . S
Zn0 O16 1.969 . S
Zn1 O8 1.969 . S
Zn1 O14 1.969 . S
Zn1 O15 1.965 . S
Zn1 O17 2.024 . S
C2 O3 1.229 . S
C2 O11 1.058 . S
O3 C2 1.229 . S
C4 O5 1.229 . S
C4 O17 1.058 . S
O5 C4 1.229 . S
O6 Zn0 1.969 . S
O6 C9 1.267 . S
O7 Zn0 1.965 . S
O7 C18 1.260 1_655 S
O8 Zn1 1.969 . S
O8 C18 1.258 . S
C9 O6 1.267 . S
C9 O10 1.228 . S
O10 C9 1.228 . S
O11 Zn0 2.024 . S
O11 C2 1.058 . S
C12 O13 1.228 . S
C12 O14 1.267 . S
O13 C12 1.228 . S
O14 Zn1 1.969 . S
O14 C12 1.267 . S
O15 Zn1 1.965 . S
O15 C19 1.261 . S
O16 Zn0 1.969 . S
O16 C19 1.256 1_655 S
O17 Zn1 2.024 . S
O17 C4 1.058 . S
C18 O7 1.260 1_455 S
C18 O8 1.258 . S
C19 O15 1.261 . S
C19 O16 1.256 1_455 S
Zn20 O26 1.969 . S
Zn20 O27 1.965 . S
Zn20 O31 2.024 . S
Zn20 O36 1.969 . S
Zn21 O28 1.969 . S
Zn21 O34 1.969 . S
Zn21 O35 1.965 . S
Zn21 O37 2.024 . S
C22 O23 1.229 . S
C22 O31 1.058 . S
O23 C22 1.229 . S
C24 O25 1.229 . S
C24 O37 1.058 . S
O25 C24 1.229 . S
O26 Zn20 1.969 . S
O26 C29 1.267 . S
O27 Zn20 1.965 . S
O27 C38 1.260 . S
O28 Zn21 1.969 . S
O28 C38 1.258 . S
C29 O26 1.267 . S
C29 O30 1.228 . S
O30 C29 1.228 . S
O31 Zn20 2.024 . S
O31 C22 1.058 . S
C32 O33 1.228 . S
C32 O34 1.267 . S
O33 C32 1.228 . S
O34 Zn21 1.969 . S
O34 C32 1.267 . S
O35 Zn21 1.965 . S
O35 C39 1.260 . S
O36 Zn20 1.969 . S
O36 C39 1.258 . S
O37 Zn21 2.024 . S
O37 C24 1.058 . S
C38 O27 1.260 . S
C38 O28 1.258 . S
C39 O35 1.260 . S
C39 O36 1.258 . S
Zn40 O46 1.969 . S
Zn40 O47 1.965 . S
Zn40 O51 2.024 . S
Zn40 O56 1.969 . S
Zn41 O48 1.969 . S
Zn41 O54 1.969 . S
Zn41 O55 1.965 . S
Zn41 O57 2.024 . S
C42 O43 1.229 . S
C42 O51 1.058 . S
O43 C42 1.229 . S
C44 O45 1.229 . S
C44 O57 1.058 . S
O45 C44 1.229 . S
O46 Zn40 1.969 . S
O46 C49 1.267 . S
O47 Zn40 1.965 . S
O47 C58 1.260 1_655 S
O48 Zn41 1.969 . S
O48 C58 1.258 . S
C49 O46 1.267 . S
C49 O50 1.228 . S
O50 C49 1.228 . S
O51 Zn40 2.024 . S
O51 C42 1.058 . S
C52 O53 1.228 . S
C52 O54 1.267 . S
O53 C52 1.228 . S
O54 Zn41 1.969 . S
O54 C52 1.267 . S
O55 Zn41 1.965 . S
O55 C59 1.261 . S
O56 Zn40 1.969 . S
O56 C59 1.256 1_655 S
O57 Zn41 2.024 . S
O57 C44 1.058 . S
C58 O47 1.260 1_455 S
C58 O48 1.258 . S
C59 O55 1.261 . S
C59 O56 1.256 1_455 S
Zn60 O66 1.969 . S
Zn60 O67 1.965 . S
Zn60 O71 2.024 . S
Zn60 O76 1.969 . S
Zn61 O68 1.969 . S
Zn61 O74 1.969 . S
Zn61 O75 1.965 . S
Zn61 O77 2.024 . S
C62 O63 1.229 . S
C62 O71 1.058 . S
O63 C62 1.229 . S
C64 O65 1.229 . S
C64 O77 1.058 . S
O65 C64 1.229 . S
O66 Zn60 1.969 . S
O66 C69 1.267 . S
O67 Zn60 1.965 . S
O67 C78 1.260 . S
O68 Zn61 1.969 . S
O68 C78 1.258 . S
C69 O66 1.267 . S
C69 O70 1.228 . S
O70 C69 1.228 . S
O71 Zn60 2.024 . S
O71 C62 1.058 . S
C72 O73 1.228 . S
C72 O74 1.267 . S
O73 C72 1.228 . S
O74 Zn61 1.969 . S
O74 C72 1.267 . S
O75 Zn61 1.965 . S
O75 C79 1.260 . S
O76 Zn60 1.969 . S
O76 C79 1.258 . S
O77 Zn61 2.024 . S
O77 C64 1.058 . S
C78 O67 1.260 . S
C78 O68 1.258 . S
C79 O75 1.260 . S
C79 O76 1.258 . S
H80 C86 0.930 . S
H81 C90 0.932 . S
H82 C95 0.932 . S
H83 C93 0.929 . S
H84 C88 0.931 . S
H85 C94 0.929 . S
C86 H80 0.930 . S
C86 C87 1.367 . S
C86 C94 1.378 1_556 S
C87 C86 1.367 . S
C87 C95 1.430 1_455 S
C88 H84 0.931 . S
C88 C90 1.378 1_556 S
C88 C92 1.348 1_656 S
C89 C92 1.463 1_556 S
C89 C94 1.350 1_556 S
C89 N97 1.425 1_455 S
C90 H81 0.932 . S
C90 C88 1.378 1_554 S
C90 C91 1.365 1_655 S
C91 C90 1.365 1_455 S
C91 C93 1.433 . S
C92 C88 1.348 1_454 S
C92 C89 1.463 1_554 S
C92 N96 1.427 . S
C93 H83 0.929 . S
C93 C91 1.433 . S
C93 N96 1.384 . S
C94 H85 0.929 . S
C94 C86 1.378 1_554 S
C94 C89 1.350 1_554 S
C95 H82 0.932 . S
C95 C87 1.430 1_655 S
C95 N97 1.384 . S
N96 C92 1.427 . S
N96 C93 1.384 . S
N97 C89 1.425 1_655 S
N97 C95 1.384 . S
H98 C104 0.930 . S
H99 C108 0.930 . S
H100 C113 0.929 . S
H101 C111 0.929 . S
H102 C106 0.929 . S
H103 C112 0.929 . S
C104 H98 0.930 . S
C104 C105 1.367 . S
C104 C112 1.378 1_554 S
C105 C104 1.367 . S
C105 C113 1.433 . S
C106 H102 0.929 . S
C106 C108 1.378 1_554 S
C106 C110 1.350 1_554 S
C107 C110 1.463 1_554 S
C107 C112 1.350 1_554 S
C107 N115 1.427 . S
C108 H99 0.930 . S
C108 C106 1.378 1_556 S
C108 C109 1.367 . S
C109 C108 1.367 . S
C109 C111 1.433 . S
C110 C106 1.350 1_556 S
C110 C107 1.463 1_556 S
C110 N114 1.427 . S
C111 H101 0.929 . S
C111 C109 1.433 . S
C111 N114 1.384 . S
C112 H103 0.929 . S
C112 C104 1.378 1_556 S
C112 C107 1.350 1_556 S
C113 H100 0.929 . S
C113 C105 1.433 . S
C113 N115 1.384 . S
N114 C110 1.427 . S
N114 C111 1.384 . S
N115 C107 1.427 . S
N115 C113 1.384 . S
H116 C122 0.930 . S
H117 C126 0.930 . S
H118 C131 0.929 . S
H119 C129 0.929 . S
H120 C124 0.929 . S
H121 C130 0.929 . S
C122 H116 0.930 . S
C122 C123 1.367 . S
C122 C130 1.378 1_556 S
C123 C122 1.367 . S
C123 C131 1.433 . S
C124 H120 0.929 . S
C124 C126 1.378 1_556 S
C124 C128 1.350 1_556 S
C125 C128 1.463 1_566 S
C125 C130 1.350 1_556 S
C125 N133 1.427 . S
C126 H117 0.930 . S
C126 C124 1.378 1_554 S
C126 C127 1.367 . S
C127 C126 1.367 . S
C127 C129 1.433 . S
C128 C124 1.350 1_554 S
C128 C125 1.463 1_544 S
C128 N132 1.427 . S
C129 H119 0.929 . S
C129 C127 1.433 . S
C129 N132 1.384 . S
C130 H121 0.929 . S
C130 C122 1.378 1_554 S
C130 C125 1.350 1_554 S
C131 H118 0.929 . S
C131 C123 1.433 . S
C131 N133 1.384 . S
N132 C128 1.427 . S
N132 C129 1.384 . S
N133 C125 1.427 . S
N133 C131 1.384 . S
H134 C140 0.930 . S
H135 C144 0.930 . S
H136 C149 0.929 . S
H137 C147 0.929 . S
H138 C142 0.929 . S
H139 C148 0.929 . S
C140 H134 0.930 . S
C140 C141 1.367 1_455 S
C140 C148 1.378 . S
C141 C140 1.367 1_655 S
C141 C149 1.433 . S
C142 H138 0.929 . S
C142 C144 1.378 . S
C142 C146 1.350 . S
C143 C146 1.463 1_564 S
C143 C148 1.350 1_655 S
C143 N151 1.427 . S
C144 H135 0.930 . S
C144 C142 1.378 . S
C144 C145 1.367 . S
C145 C144 1.367 . S
C145 C147 1.433 1_655 S
C146 C142 1.350 . S
C146 C143 1.463 1_546 S
C146 N150 1.427 1_655 S
C147 H137 0.929 . S
C147 C145 1.433 1_455 S
C147 N150 1.384 . S
C148 H139 0.929 . S
C148 C140 1.378 . S
C148 C143 1.350 1_455 S
C149 H136 0.929 . S
C149 C141 1.433 . S
C149 N151 1.384 . S
N150 C146 1.427 1_455 S
N150 C147 1.384 . S
N151 C143 1.427 . S
N151 C149 1.384 . S
H152 C158 0.930 . S
H153 C162 0.930 . S
H154 C167 0.929 . S
H155 C165 0.929 . S
H156 C160 0.929 . S
H157 C166 0.929 . S
C158 H152 0.930 . S
C158 C159 1.367 . S
C158 C166 1.378 . S
C159 C158 1.367 . S
C159 C167 1.433 . S
C160 H156 0.929 . S
C160 C162 1.378 . S
C160 C164 1.350 . S
C161 C164 1.463 . S
C161 C166 1.350 . S
C161 N169 1.427 . S
C162 H153 0.930 . S
C162 C160 1.378 . S
C162 C163 1.367 . S
C163 C162 1.367 . S
C163 C165 1.433 . S
C164 C160 1.350 . S
C164 C161 1.463 . S
C164 N168 1.427 . S
C165 H155 0.929 . S
C165 C163 1.433 . S
C165 N168 1.384 . S
C166 H157 0.929 . S
C166 C158 1.378 . S
C166 C161 1.350 . S
C167 H154 0.929 . S
C167 C159 1.433 . S
C167 N169 1.384 . S
N168 C164 1.427 . S
N168 C165 1.384 . S
N169 C161 1.427 . S
N169 C167 1.384 . S
H170 C176 0.930 . S
H171 C180 0.930 . S
H172 C185 0.929 . S
H173 C183 0.929 . S
H174 C178 0.929 . S
H175 C184 0.929 . S
C176 H170 0.930 . S
C176 C177 1.367 . S
C176 C184 1.378 . S
C177 C176 1.367 . S
C177 C185 1.433 . S
C178 H174 0.929 . S
C178 C180 1.378 . S
C178 C182 1.350 . S
C179 C182 1.463 . S
C179 C184 1.350 . S
C179 N187 1.427 . S
C180 H171 0.930 . S
C180 C178 1.378 . S
C180 C181 1.367 . S
C181 C180 1.367 . S
C181 C183 1.433 . S
C182 C178 1.350 . S
C182 C179 1.463 . S
C182 N186 1.427 . S
C183 H173 0.929 . S
C183 C181 1.433 . S
C183 N186 1.384 . S
C184 H175 0.929 . S
C184 C176 1.378 . S
C184 C179 1.350 . S
C185 H172 0.929 . S
C185 C177 1.433 . S
C185 N187 1.384 . S
N186 C182 1.427 . S
N186 C183 1.384 . S
N187 C179 1.427 . S
N187 C185 1.384 . S
H188 C194 0.930 . S
H189 C198 0.930 . S
H190 C203 0.929 . S
H191 C201 0.929 . S
H192 C196 0.929 . S
H193 C202 0.929 . S
C194 H188 0.930 . S
C194 C195 1.367 . S
C194 C202 1.378 . S
C195 C194 1.367 . S
C195 C203 1.433 . S
C196 H192 0.929 . S
C196 C198 1.378 . S
C196 C200 1.350 . S
C197 C200 1.463 . S
C197 C202 1.350 . S
C197 N205 1.427 . S
C198 H189 0.930 . S
C198 C196 1.378 . S
C198 C199 1.367 . S
C199 C198 1.367 . S
C199 C201 1.433 . S
C200 C196 1.350 . S
C200 C197 1.463 . S
C200 N204 1.427 . S
C201 H191 0.929 . S
C201 C199 1.433 . S
C201 N204 1.384 . S
C202 H193 0.929 . S
C202 C194 1.378 . S
C202 C197 1.350 . S
C203 H190 0.929 . S
C203 C195 1.433 . S
C203 N205 1.384 . S
N204 C200 1.427 . S
N204 C201 1.384 . S
N205 C197 1.427 . S
N205 C203 1.384 . S
H206 C212 0.930 . S
H207 C216 0.930 . S
H208 C221 0.929 . S
H209 C219 0.929 . S
H210 C214 0.929 . S
H211 C220 0.929 . S
C212 H206 0.930 . S
C212 C213 1.367 . S
C212 C220 1.378 . S
C213 C212 1.367 . S
C213 C221 1.433 . S
C214 H210 0.929 . S
C214 C216 1.378 . S
C214 C218 1.350 . S
C215 C218 1.463 . S
C215 C220 1.350 . S
C215 N223 1.427 . S
C216 H207 0.930 . S
C216 C214 1.378 . S
C216 C217 1.367 . S
C217 C216 1.367 . S
C217 C219 1.433 . S
C218 C214 1.350 . S
C218 C215 1.463 . S
C218 N222 1.427 . S
C219 H209 0.929 . S
C219 C217 1.433 . S
C219 N222 1.384 . S
C220 H211 0.929 . S
C220 C212 1.378 . S
C220 C215 1.350 . S
C221 H208 0.929 . S
C221 C213 1.433 . S
C221 N223 1.384 . S
N222 C218 1.427 . S
N222 C219 1.384 . S
N223 C215 1.427 . S
N223 C221 1.384 . S
H224 C230 0.930 . S
H225 C234 0.930 . S
H226 C239 0.929 . S
H227 C237 0.929 . S
H228 C232 0.929 . S
H229 C238 0.929 . S
C230 H224 0.930 . S
C230 C231 1.367 1_556 S
C230 C238 1.378 . S
C231 C230 1.367 1_554 S
C231 C239 1.433 . S
C232 H228 0.929 . S
C232 C234 1.378 . S
C232 C236 1.350 . S
C233 C236 1.463 . S
C233 C238 1.350 1_554 S
C233 N241 1.427 . S
C234 H225 0.930 . S
C234 C232 1.378 . S
C234 C235 1.367 . S
C235 C234 1.367 . S
C235 C237 1.433 1_554 S
C236 C232 1.350 . S
C236 C233 1.463 . S
C236 N240 1.427 1_554 S
C237 H227 0.929 . S
C237 C235 1.433 1_556 S
C237 N240 1.384 . S
C238 H229 0.929 . S
C238 C230 1.378 . S
C238 C233 1.350 1_556 S
C239 H226 0.929 . S
C239 C231 1.433 . S
C239 N241 1.384 . S
N240 C236 1.427 1_556 S
N240 C237 1.384 . S
N241 C233 1.427 . S
N241 C239 1.384 . S
H242 C248 0.930 . S
H243 C252 0.930 . S
H244 C257 0.929 . S
H245 C255 0.929 . S
H246 C250 0.929 . S
H247 C256 0.929 . S
C248 H242 0.930 . S
C248 C249 1.367 1_554 S
C248 C256 1.378 . S
C249 C248 1.367 1_556 S
C249 C257 1.433 . S
C250 H246 0.929 . S
C250 C252 1.378 . S
C250 C254 1.350 . S
C251 C254 1.463 . S
C251 C256 1.350 1_556 S
C251 N259 1.427 . S
C252 H243 0.930 . S
C252 C250 1.378 . S
C252 C253 1.367 . S
C253 C252 1.367 . S
C253 C255 1.433 1_556 S
C254 C250 1.350 . S
C254 C251 1.463 . S
C254 N258 1.427 1_556 S
C255 H245 0.929 . S
C255 C253 1.433 1_554 S
C255 N258 1.384 . S
C256 H247 0.929 . S
C256 C248 1.378 . S
C256 C251 1.350 1_554 S
C257 H244 0.929 . S
C257 C249 1.433 . S
C257 N259 1.384 . S
N258 C254 1.427 1_554 S
N258 C255 1.384 . S
N259 C251 1.427 . S
N259 C257 1.384 . S
H260 C266 0.930 . S
H261 C270 0.930 . S
H262 C275 0.929 . S
H263 C273 0.929 . S
H264 C268 0.929 . S
H265 C274 0.929 . S
C266 H260 0.930 . S
C266 C267 1.367 . S
C266 C274 1.378 . S
C267 C266 1.367 . S
C267 C275 1.433 1_554 S
C268 H264 0.929 . S
C268 C270 1.378 . S
C268 C272 1.350 1_556 S
C269 C272 1.463 . S
C269 C274 1.350 . S
C269 N277 1.427 1_554 S
C270 H261 0.930 . S
C270 C268 1.378 . S
C270 C271 1.367 1_556 S
C271 C270 1.367 1_554 S
C271 C273 1.433 . S
C272 C268 1.350 1_554 S
C272 C269 1.463 . S
C272 N276 1.427 . S
C273 H263 0.929 . S
C273 C271 1.433 . S
C273 N276 1.384 . S
C274 H265 0.929 . S
C274 C266 1.378 . S
C274 C269 1.350 . S
C275 H262 0.929 . S
C275 C267 1.433 1_556 S
C275 N277 1.384 . S
N276 C272 1.427 . S
N276 C273 1.384 . S
N277 C269 1.427 1_556 S
N277 C275 1.384 . S
H278 C284 0.930 . S
H279 C288 0.930 . S
H280 C293 0.929 . S
H281 C291 0.929 . S
H282 C286 0.929 . S
H283 C292 0.929 . S
C284 H278 0.930 . S
C284 C285 1.367 . S
C284 C292 1.378 . S
C285 C284 1.367 . S
C285 C293 1.433 1_556 S
C286 H282 0.929 . S
C286 C288 1.378 . S
C286 C290 1.350 1_554 S
C287 C290 1.463 . S
C287 C292 1.350 . S
C287 N295 1.427 1_556 S
C288 H279 0.930 . S
C288 C286 1.378 . S
C288 C289 1.367 1_554 S
C289 C288 1.367 1_556 S
C289 C291 1.433 . S
C290 C286 1.350 1_556 S
C290 C287 1.463 . S
C290 N294 1.427 . S
C291 H281 0.929 . S
C291 C289 1.433 . S
C291 N294 1.384 . S
C292 H283 0.929 . S
C292 C284 1.378 . S
C292 C287 1.350 . S
C293 H280 0.929 . S
C293 C285 1.433 1_554 S
C293 N295 1.384 . S
N294 C290 1.427 . S
N294 C291 1.384 . S
N295 C287 1.427 1_554 S
N295 C293 1.384 . S
C87 C59 1.802 . S
C91 C19 1.800 . S
C105 C38 2.174 . S
C109 C78 2.171 . S
C123 C79 1.803 . S
C127 C39 1.800 . S
C141 C18 2.178 1_655 S
C145 C58 2.183 1_655 S
C159 C62 1.451 . S
C163 C12 1.502 . S
C177 C52 1.494 . S
C181 C22 1.441 . S
C195 C42 1.442 . S
C199 C32 1.495 . S
C213 C2 1.441 . S
C217 C72 1.495 . S
C231 C69 0.866 1_554 S
C235 C4 0.826 . S
C249 C44 0.862 . S
C253 C29 0.897 1_556 S
C267 C24 0.833 . S
C271 C49 0.872 1_554 S
C285 C9 0.903 1_556 S
C289 C64 0.868 . S
