# Generated by pormake.
# Topology wkf, (6)-cn, num edge types: 1
# Building blocks:
#     Node 0, Type 0, BuildingBlock: MAKGUD_clean_sbu_1, # of connection points: 6
#     Node 1, Type 0, BuildingBlock: MAKGUD_clean_sbu_1, # of connection points: 6
#     Node 2, Type 0, BuildingBlock: MAKGUD_clean_sbu_1, # of connection points: 6
#     Node 3, Type 0, BuildingBlock: MAKGUD_clean_sbu_1, # of connection points: 6
#     Node 4, Type 0, BuildingBlock: MAKGUD_clean_sbu_1, # of connection points: 6
#     Node 5, Type 0, BuildingBlock: MAKGUD_clean_sbu_1, # of connection points: 6
#     Node 6, Type 0, BuildingBlock: MAKGUD_clean_sbu_1, # of connection points: 6
#     Node 7, Type 0, BuildingBlock: MAKGUD_clean_sbu_1, # of connection points: 6
#     Node 8, Type 0, BuildingBlock: MAKGUD_clean_sbu_1, # of connection points: 6
#     Node 9, Type 0, BuildingBlock: MAKGUD_clean_sbu_1, # of connection points: 6
#     Node 10, Type 0, BuildingBlock: MAKGUD_clean_sbu_1, # of connection points: 6
#     Node 11, Type 0, BuildingBlock: MAKGUD_clean_sbu_1, # of connection points: 6
#     Edge 12, Type (0, 0), BuildingBlock: TEMPAE_clean_linker_10, # of connection points: 2
#     Edge 13, Type (0, 0), BuildingBlock: TEMPAE_clean_linker_10, # of connection points: 2
#     Edge 14, Type (0, 0), BuildingBlock: TEMPAE_clean_linker_10, # of connection points: 2
#     Edge 15, Type (0, 0), BuildingBlock: TEMPAE_clean_linker_10, # of connection points: 2
#     Edge 16, Type (0, 0), BuildingBlock: TEMPAE_clean_linker_10, # of connection points: 2
#     Edge 17, Type (0, 0), BuildingBlock: TEMPAE_clean_linker_10, # of connection points: 2
#     Edge 18, Type (0, 0), BuildingBlock: TEMPAE_clean_linker_10, # of connection points: 2
#     Edge 19, Type (0, 0), BuildingBlock: TEMPAE_clean_linker_10, # of connection points: 2
#     Edge 20, Type (0, 0), BuildingBlock: TEMPAE_clean_linker_10, # of connection points: 2
#     Edge 21, Type (0, 0), BuildingBlock: TEMPAE_clean_linker_10, # of connection points: 2
#     Edge 22, Type (0, 0), BuildingBlock: TEMPAE_clean_linker_10, # of connection points: 2
#     Edge 23, Type (0, 0), BuildingBlock: TEMPAE_clean_linker_10, # of connection points: 2
#     Edge 24, Type (0, 0), BuildingBlock: TEMPAE_clean_linker_10, # of connection points: 2
#     Edge 25, Type (0, 0), BuildingBlock: TEMPAE_clean_linker_10, # of connection points: 2
#     Edge 26, Type (0, 0), BuildingBlock: TEMPAE_clean_linker_10, # of connection points: 2
#     Edge 27, Type (0, 0), BuildingBlock: TEMPAE_clean_linker_10, # of connection points: 2
#     Edge 28, Type (0, 0), BuildingBlock: TEMPAE_clean_linker_10, # of connection points: 2
#     Edge 29, Type (0, 0), BuildingBlock: TEMPAE_clean_linker_10, # of connection points: 2
#     Edge 30, Type (0, 0), BuildingBlock: TEMPAE_clean_linker_10, # of connection points: 2
#     Edge 31, Type (0, 0), BuildingBlock: TEMPAE_clean_linker_10, # of connection points: 2
#     Edge 32, Type (0, 0), BuildingBlock: TEMPAE_clean_linker_10, # of connection points: 2
#     Edge 33, Type (0, 0), BuildingBlock: TEMPAE_clean_linker_10, # of connection points: 2
#     Edge 34, Type (0, 0), BuildingBlock: TEMPAE_clean_linker_10, # of connection points: 2
#     Edge 35, Type (0, 0), BuildingBlock: TEMPAE_clean_linker_10, # of connection points: 2
#     Edge 36, Type (0, 0), BuildingBlock: TEMPAE_clean_linker_10, # of connection points: 2
#     Edge 37, Type (0, 0), BuildingBlock: TEMPAE_clean_linker_10, # of connection points: 2
#     Edge 38, Type (0, 0), BuildingBlock: TEMPAE_clean_linker_10, # of connection points: 2
#     Edge 39, Type (0, 0), BuildingBlock: TEMPAE_clean_linker_10, # of connection points: 2
#     Edge 40, Type (0, 0), BuildingBlock: TEMPAE_clean_linker_10, # of connection points: 2
#     Edge 41, Type (0, 0), BuildingBlock: TEMPAE_clean_linker_10, # of connection points: 2
#     Edge 42, Type (0, 0), BuildingBlock: TEMPAE_clean_linker_10, # of connection points: 2
#     Edge 43, Type (0, 0), BuildingBlock: TEMPAE_clean_linker_10, # of connection points: 2
#     Edge 44, Type (0, 0), BuildingBlock: TEMPAE_clean_linker_10, # of connection points: 2
#     Edge 45, Type (0, 0), BuildingBlock: TEMPAE_clean_linker_10, # of connection points: 2
#     Edge 46, Type (0, 0), BuildingBlock: TEMPAE_clean_linker_10, # of connection points: 2
#     Edge 47, Type (0, 0), BuildingBlock: TEMPAE_clean_linker_10, # of connection points: 2
# Relax obj value: 0.041
# Max RMSD: 0.162
# Mean RMSD: 0.161
data_MOF--net-wkf--node1-MAKGUD_clean_sbu_1--edge1-TEMPAE_clean_linker_10
_symmetry_space_group_name_H-M    P1
_symmetry_Int_Tables_number       1
_symmetry_cell_setting            triclinic
loop_
_symmetry_equiv_pos_as_xyz
'x, y, z'
_cell_length_a     29.423036
_cell_length_b     29.436186
_cell_length_c     82.96597
_cell_angle_alpha  90.542507
_cell_angle_beta   90.000387
_cell_angle_gamma 119.68879
loop_
_atom_site_label
_atom_site_type_symbol
_atom_site_fract_x
_atom_site_fract_y
_atom_site_fract_z
_atom_type_partial_charge
O0 O 0.50365 0.12603 0.43259 0.0
Tb1 Tb 0.49257 0.0908 0.40856 0.0
C2 C 0.51021 0.13006 0.37388 0.0
O3 O 0.41913 0.97467 0.38841 0.0
Tb4 Tb 0.47986 1.01503 0.37041 0.0
C5 C 0.4262 0.98563 0.34274 0.0
O6 O 0.46346 1.0077 0.41236 0.0
O7 O 0.52365 0.97257 0.37075 0.0
C8 C 0.50019 0.92217 0.3741 0.0
O9 O 0.45226 0.89933 0.37971 0.0
O10 O 0.47687 0.11672 0.38579 0.0
O11 O 0.52987 0.10005 0.36979 0.0
O12 O 0.57745 0.13859 0.40868 0.0
C13 C 0.42463 0.9706 0.40398 0.0
C14 C 0.46277 0.13197 0.43241 0.0
O15 O 0.41499 1.00565 0.35509 0.0
O16 O 0.46816 0.98325 0.3459 0.0
C17 C 0.59742 0.1893 0.40674 0.0
O18 O 0.56559 0.20706 0.40317 0.0
O19 O 0.43761 0.11328 0.41889 0.0
O20 O 0.48999 0.43481 0.51129 0.0
Tb21 Tb 0.48485 0.45354 0.53662 0.0
C22 C 0.50079 0.42475 0.57147 0.0
O23 O 0.39483 0.47182 0.55703 0.0
Tb24 Tb 0.45086 0.4944 0.5769 0.0
C25 C 0.39794 0.46614 0.6046 0.0
O26 O 0.4501 0.50409 0.53542 0.0
O27 O 0.48318 0.57936 0.57633 0.0
C28 C 0.44953 0.59671 0.5757 0.0
O29 O 0.39976 0.56221 0.57377 0.0
O30 O 0.47438 0.40693 0.55792 0.0
O31 O 0.5095 0.46956 0.57785 0.0
O32 O 0.57011 0.49163 0.53556 0.0
C33 C 0.40642 0.49402 0.54278 0.0
C34 C 0.45239 0.38651 0.51159 0.0
O35 O 0.39001 0.43503 0.59236 0.0
O36 O 0.43554 0.51259 0.6012 0.0
C37 C 0.58995 0.46125 0.53195 0.0
O38 O 0.55776 0.4106 0.53086 0.0
O39 O 0.43188 0.37649 0.52591 0.0
O40 O 0.9619 0.31785 0.76122 0.0
Tb41 Tb 0.97041 0.37151 0.74215 0.0
C42 C 0.9829 0.39927 0.70509 0.0
O43 O 0.07449 0.46226 0.72927 0.0
Tb44 Tb 0.10169 0.47714 0.70452 0.0
C45 C 0.14651 0.42933 0.68951 0.0
O46 O 1.05109 0.4112 0.75095 0.0
O47 O 0.1476 0.56131 0.70018 0.0
C48 C 0.19001 0.57903 0.69122 0.0
O49 O 0.20181 0.5452 0.68486 0.0
O50 O 0.9987 0.38231 0.71732 0.0
O51 O 1.01946 0.43735 0.69637 0.0
O52 O 0.92433 0.4086 0.74903 0.0
C53 C 0.08857 0.44307 0.74127 0.0
C54 C 0.92638 0.27547 0.75413 0.0
O55 O 0.15679 0.447 0.70436 0.0
O56 O 0.11031 0.43754 0.68359 0.0
C57 C 0.87557 0.37765 0.75359 0.0
O58 O 0.85774 0.32707 0.75393 0.0
O59 O 0.91602 0.28704 0.73996 0.0
O60 O 0.66539 0.04164 0.84789 0.0
Tb61 Tb 0.62993 0.06076 0.86833 0.0
C62 C 0.67605 0.10739 0.90176 0.0
O63 O 0.61176 0.95459 0.88817 0.0
Tb64 Tb 0.59774 0.99375 0.90847 0.0
C65 C 0.63209 0.96935 0.93495 0.0
O66 O 0.57521 0.97654 0.86743 0.0
O67 O 0.51277 0.94456 0.90984 0.0
C68 C 0.49397 0.89352 0.90915 0.0
O69 O 0.52655 0.87624 0.90609 0.0
O70 O 0.68634 0.09155 0.8881 0.0
O71 O 0.63054 0.07839 0.90869 0.0
O72 O 0.58177 0.09844 0.86681 0.0
C73 C 0.58584 0.94277 0.87442 0.0
C74 C 0.68734 0.08775 0.8415 0.0
O75 O 0.65741 0.98412 0.92142 0.0
O76 O 0.58799 0.96901 0.93355 0.0
C77 C 0.56757 0.10589 0.85241 0.0
O78 O 0.57472 0.08224 0.83996 0.0
O79 O 0.67729 0.11832 0.85027 0.0
O80 O 0.74162 0.63353 0.08733 0.0
Tb81 Tb 0.67515 0.57407 0.07351 0.0
C82 C 0.68048 0.5838 0.03492 0.0
O83 O 0.66583 0.66282 0.05662 0.0
Tb84 Tb 0.63158 0.65371 0.03256 0.0
C85 C 0.66728 0.7384 1.01436 0.0
O86 O 0.64157 0.62308 0.08072 0.0
O87 O 0.54573 0.61244 0.03172 0.0
C88 C 0.52297 0.63902 0.02686 0.0
O89 O 0.55283 0.68903 0.02393 0.0
O90 O 0.65353 0.57317 0.04838 0.0
O91 O 0.67009 0.61031 0.02427 0.0
O92 O 0.6327 0.49918 0.0856 0.0
C93 C 0.64088 0.65656 0.07032 0.0
C94 C 0.77446 0.61787 0.0834 0.0
O95 O 0.66162 0.738 0.02997 0.0
O96 O 0.6536 0.69145 1.00924 0.0
C97 C 0.61262 0.45523 0.07723 0.0
O98 O 0.60996 0.45721 0.06147 0.0
O99 O 0.75181 0.5788 0.07328 0.0
O100 O 1.03715 0.61689 0.1734 0.0
Tb101 Tb 1.03536 0.59541 0.19872 0.0
C102 C 1.01975 0.60545 0.23553 0.0
O103 O 0.13833 0.68135 0.2161 0.0
Tb104 Tb 0.14069 0.65624 0.24045 0.0
C105 C 0.17829 0.73657 0.26116 0.0
O106 O 0.11923 0.62652 0.19487 0.0
O107 O 0.1947 0.62518 0.24222 0.0
C108 C 0.24539 0.65919 0.24201 0.0
O109 O 0.26001 0.70838 0.23927 0.0
O110 O 1.03272 0.63106 0.2218 0.0
O111 O 0.05677 0.60543 0.24461 0.0
O112 O 0.98776 0.50995 0.19849 0.0
C113 C 0.15458 0.66491 0.20384 0.0
C114 C 1.00004 0.62848 0.17432 0.0
O115 O 0.18219 0.7404 0.24557 0.0
O116 O 0.15219 0.6875 0.26501 0.0
C117 C 0.93688 0.48918 0.1961 0.0
O118 O 0.91706 0.52051 0.19582 0.0
O119 O 0.98344 0.62243 0.18909 0.0
O120 O 0.98227 0.59221 0.4289 0.0
Tb121 Tb 1.00478 0.60219 0.45436 0.0
C122 C 0.9542 0.58947 0.48797 0.0
O123 O 0.10878 0.68653 0.47647 0.0
Tb124 Tb 0.07023 0.62809 0.49506 0.0
C125 C 0.09408 0.68159 0.52282 0.0
O126 O 0.08916 0.63283 0.45442 0.0
O127 O 0.11985 0.59213 0.49451 0.0
C128 C 0.16966 0.62259 0.4983 0.0
O129 O 0.1868 0.67291 0.50018 0.0
O130 O 0.96768 0.61767 0.47481 0.0
O131 O 0.98598 0.57521 0.49443 0.0
O132 O 0.95579 0.51739 0.45379 0.0
C133 C 0.12085 0.67648 0.46214 0.0
C134 C 0.97653 0.63309 0.42783 0.0
O135 O 0.08134 0.69554 0.50951 0.0
O136 O 0.09221 0.63699 0.52054 0.0
C137 C 0.90482 0.49868 0.45414 0.0
O138 O 0.8874 0.53164 0.45625 0.0
O139 O 0.98793 0.65741 0.44169 0.0
O140 O 0.50376 0.09872 0.68217 0.0
Tb141 Tb 0.50595 0.0712 0.65789 0.0
C142 C 0.48489 0.11359 0.62575 0.0
O143 O 0.39162 0.97366 0.64969 0.0
Tb144 Tb 0.41646 0.9902 0.62497 0.0
C145 C 0.33726 0.93671 0.60459 0.0
O146 O 0.46697 0.98584 0.66096 0.0
O147 O 0.46475 0.95341 0.62139 0.0
C148 C 0.44087 0.90236 0.62364 0.0
O149 O 0.39298 0.87958 0.62928 0.0
O150 O 0.52075 0.11113 0.63466 0.0
O151 O 0.43939 0.07204 0.62259 0.0
O152 O 0.58982 0.11347 0.6633 0.0
C153 C 0.41571 0.9572 0.65922 0.0
C154 C 0.4679 0.11124 0.67946 0.0
O155 O 0.33319 0.93685 0.6202 0.0
O156 O 0.38566 0.96734 0.60053 0.0
C157 C 0.61181 0.16488 0.66453 0.0
O158 O 0.58247 0.18608 0.66167 0.0
O159 O 0.45239 0.1003 0.66448 0.0
O160 O 0.4935 0.40058 0.76267 0.0
Tb161 Tb 0.47572 0.41669 0.78691 0.0
C162 C 0.47475 0.38199 0.82156 0.0
O163 O 0.39713 0.4578 0.80491 0.0
Tb164 Tb 0.44734 0.46963 0.82577 0.0
C165 C 0.3819 0.44053 0.8508 0.0
O166 O 0.45226 0.47532 0.78325 0.0
O167 O 0.48737 0.55532 0.82675 0.0
C168 C 0.45759 0.57638 0.82973 0.0
O169 O 0.4067 0.54498 0.83016 0.0
O170 O 0.44686 0.36827 0.80824 0.0
O171 O 0.49335 0.42967 0.82747 0.0
O172 O 0.55935 0.44607 0.79005 0.0
C173 C 0.41063 0.47305 0.78993 0.0
C174 C 0.45166 0.35542 0.7607 0.0
O175 O 0.3707 0.41883 0.83656 0.0
O176 O 0.43049 0.4776 0.85104 0.0
C177 C 0.57494 0.41175 0.79259 0.0
O178 O 0.53934 0.36271 0.7949 0.0
O179 O 0.42256 0.34495 0.77347 0.0
O180 O 0.99549 0.42147 0.02236 0.0
Tb181 Tb 1.0258 0.44323 0.99785 0.0
C182 C 0.97939 0.40181 0.96294 0.0
O183 O 0.13 0.45809 0.97869 0.0
Tb184 Tb 0.09784 0.47673 0.95774 0.0
C185 C 0.13322 0.44714 0.93232 0.0
O186 O 0.11038 0.49565 0.9997 0.0
O187 O 0.14549 0.56192 0.95793 0.0
C188 C 0.19674 0.58227 0.95846 0.0
O189 O 0.21565 0.55069 0.9607 0.0
O190 O 0.9888 0.39023 0.97738 0.0
O191 O 1.01333 0.44508 0.9557 0.0
O192 O 0.98046 0.48383 0.99943 0.0
C193 C 0.14414 0.48645 0.99197 0.0
C194 C 0.99398 0.37661 0.02243 0.0
O195 O 0.1182 0.4223 0.94588 0.0
O196 O 0.12668 0.48764 0.93295 0.0
C197 C 0.92884 0.45616 0.99923 0.0
O198 O 0.90651 0.40577 0.9961 0.0
O199 O 1.01205 0.37017 1.00883 0.0
O200 O 0.69033 0.09765 0.09607 0.0
Tb201 Tb 0.67104 0.07126 0.12097 0.0
C202 C 0.70331 0.11943 0.15468 0.0
O203 O 0.64626 0.96339 0.14162 0.0
Tb204 Tb 0.62751 1.00373 0.16052 0.0
C205 C 0.66214 0.98552 0.188 0.0
O206 O 0.6175 0.98723 0.11932 0.0
O207 O 0.54263 0.95184 0.16076 0.0
C208 C 0.52565 0.90297 0.16509 0.0
O209 O 0.56046 0.88795 0.16729 0.0
O210 O 0.71995 0.10419 0.14224 0.0
O211 O 0.65665 0.08787 0.16053 0.0
O212 O 0.63684 0.12211 0.12155 0.0
C213 C 0.62717 0.95378 0.12684 0.0
C214 C 0.7376 0.10471 0.09632 0.0
O215 O 0.68714 0.99696 0.1744 0.0
O216 O 0.61797 0.98475 0.18611 0.0
C217 C 0.67026 0.17251 0.12028 0.0
O218 O 0.72035 0.1874 0.11989 0.0
O219 O 0.74655 0.09104 0.1103 0.0
O220 O 0.68085 0.58824 0.34563 0.0
Tb221 Tb 0.65317 0.59684 0.32215 0.0
C222 C 0.72254 0.6232 0.29145 0.0
O223 O 0.67181 0.71847 0.31888 0.0
Tb224 Tb 0.67149 0.69415 0.29419 0.0
C225 C 0.69741 0.7701 0.27301 0.0
O226 O 0.6084 0.63773 0.32679 0.0
O227 O 0.58707 0.6474 0.28972 0.0
C228 C 0.56086 0.67279 0.29173 0.0
O229 O 0.58647 0.72062 0.29764 0.0
O230 O 0.68163 0.58539 0.29875 0.0
O231 O 0.73099 0.67134 0.29196 0.0
O232 O 0.60452 0.51324 0.32714 0.0
C233 C 0.632 0.68931 0.32815 0.0
C234 C 0.72844 0.6266 0.3444 0.0
O235 O 0.70387 0.77714 0.28855 0.0
O236 O 0.67728 0.72072 0.26955 0.0
C237 C 0.62115 0.48045 0.32307 0.0
O238 O 0.66409 0.49769 0.31457 0.0
O239 O 0.73392 0.64929 0.33054 0.0
C240 C 0.20784 0.76928 0.28906 0.0
C241 C 0.20773 0.77991 0.27266 0.0
C242 C 0.24203 0.80817 0.29986 0.0
C243 C 0.27656 0.85899 0.2941 0.0
C244 C 0.27434 0.87073 0.27771 0.0
C245 C 0.24004 0.83085 0.26713 0.0
C246 C 0.24328 0.79397 0.31724 0.0
C247 C 0.31 0.92461 0.27118 0.0
C248 C 0.34471 0.96124 0.32705 0.0
C249 C 0.39155 0.96018 0.32876 0.0
C250 C 0.30787 0.93064 0.31517 0.0
C251 C 0.31807 0.8979 0.30497 0.0
C252 C 0.36653 0.8988 0.30617 0.0
C253 C 0.40282 0.93018 0.31801 0.0
C254 C 0.25702 0.93135 0.31407 0.0
C255 C 0.37886 0.86429 0.29557 0.0
H256 H 0.18285 0.72988 0.29336 0.0
H257 H 0.23994 0.83912 0.25443 0.0
H258 H 0.28135 0.79631 0.3199 0.0
H259 H 0.23975 0.82208 0.32542 0.0
H260 H 0.21143 0.75387 0.32003 0.0
H261 H 0.2987 0.92919 0.25878 0.0
H262 H 0.3096 0.95494 0.27912 0.0
H263 H 0.35078 0.9319 0.27091 0.0
H264 H 0.33604 0.98458 0.33534 0.0
H265 H 0.43905 0.92933 0.31932 0.0
H266 H 0.22462 0.89378 0.31851 0.0
H267 H 0.248 0.93537 0.30136 0.0
H268 H 0.25797 0.96371 0.32134 0.0
H269 H 0.35174 0.82262 0.2984 0.0
H270 H 0.41964 0.8723 0.29727 0.0
H271 H 0.373 0.8699 0.2827 0.0
C272 C 0.4094 0.29363 0.50178 0.0
C273 C 0.44285 0.34695 0.49892 0.0
C274 C 0.40626 0.25527 0.49087 0.0
C275 C 0.43724 0.27069 0.47675 0.0
C276 C 0.46912 0.32463 0.47346 0.0
C277 C 0.47159 0.36207 0.48459 0.0
C278 C 0.37181 0.19826 0.49484 0.0
C279 C 0.50262 0.34287 0.45854 0.0
C280 C 0.48412 0.18261 0.45822 0.0
C281 C 0.45193 0.16252 0.44456 0.0
C282 C 0.47857 0.2165 0.46904 0.0
C283 C 0.43994 0.23087 0.46611 0.0
C284 C 0.40615 0.20931 0.4526 0.0
C285 C 0.41253 0.17531 0.44198 0.0
C286 C 0.51532 0.23835 0.48331 0.0
C287 C 0.36455 0.22366 0.44905 0.0
H288 H 0.38724 0.28176 0.51288 0.0
H289 H 0.49756 0.40326 0.48234 0.0
H290 H 0.34677 0.17663 0.48435 0.0
H291 H 0.39659 0.1806 0.49758 0.0
H292 H 0.34634 0.19269 0.50538 0.0
H293 H 0.52168 0.3859 0.45703 0.0
H294 H 0.53357 0.33184 0.45926 0.0
H295 H 0.4787 0.32345 0.44764 0.0
H296 H 0.51467 0.17286 0.46026 0.0
H297 H 0.3877 0.16001 0.43139 0.0
H298 H 0.49276 0.23112 0.49462 0.0
H299 H 0.54025 0.28133 0.48212 0.0
H300 H 0.54116 0.22096 0.4844 0.0
H301 H 0.33987 0.2173 0.45983 0.0
H302 H 0.33896 0.20062 0.43879 0.0
H303 H 0.38332 0.26581 0.4461 0.0
C304 C 0.16847 0.40821 0.66268 0.0
C305 C 0.18003 0.41698 0.67919 0.0
C306 C 0.20507 0.40925 0.65169 0.0
C307 C 0.25413 0.41791 0.65737 0.0
C308 C 0.26409 0.42178 0.67421 0.0
C309 C 0.22705 0.42192 0.68496 0.0
C310 C 0.19286 0.40575 0.63387 0.0
C311 C 0.31508 0.42909 0.68081 0.0
C312 C 0.3342 0.40146 0.62415 0.0
C313 C 0.36545 0.4533 0.61923 0.0
C314 C 0.30051 0.38944 0.63745 0.0
C315 C 0.29668 0.43007 0.64552 0.0
C316 C 0.32947 0.48263 0.64082 0.0
C317 C 0.36402 0.49359 0.62791 0.0
C318 C 0.26773 0.3332 0.64246 0.0
C319 C 0.32588 0.52715 0.64877 0.0
H320 H 0.13201 0.40407 0.65816 0.0
H321 H 0.23608 0.42854 0.69773 0.0
H322 H 0.21904 0.44395 0.62819 0.0
H323 H 0.20009 0.3761 0.6279 0.0
H324 H 0.15168 0.39547 0.6315 0.0
H325 H 0.31261 0.42084 0.69392 0.0
H326 H 0.32671 0.40324 0.67436 0.0
H327 H 0.3464 0.47006 0.67895 0.0
H328 H 0.33576 0.37032 0.61754 0.0
H329 H 0.38816 0.53373 0.6241 0.0
H330 H 0.22663 0.31805 0.63855 0.0
H331 H 0.26776 0.33002 0.65578 0.0
H332 H 0.28199 0.30793 0.63704 0.0
H333 H 0.35552 0.56592 0.64411 0.0
H334 H 0.33126 0.52695 0.66199 0.0
H335 H 0.28642 0.52219 0.64664 0.0
C336 C 0.83968 0.19657 0.75872 0.0
C337 C 0.89241 0.22753 0.76307 0.0
C338 C 0.80315 0.16216 0.76986 0.0
C339 C 0.82021 0.15881 0.78555 0.0
C340 C 0.87438 0.18517 0.78919 0.0
C341 C 0.90987 0.21946 0.77789 0.0
C342 C 0.74584 0.13419 0.76541 0.0
C343 C 0.89444 0.18221 0.80567 0.0
C344 C 0.73815 0.1549 0.82114 0.0
C345 C 0.71861 0.1038 0.82664 0.0
C346 C 0.76972 0.17244 0.80744 0.0
C347 C 0.78211 0.13794 0.799 0.0
C348 C 0.76109 0.08565 0.80419 0.0
C349 C 0.72954 0.06915 0.81803 0.0
C350 C 0.79107 0.22852 0.80231 0.0
C351 C 0.77302 0.04771 0.79539 0.0
H352 H 0.82612 0.20276 0.74723 0.0
H353 H 0.95082 0.24313 0.78118 0.0
H354 H 0.72528 0.09436 0.77057 0.0
H355 H 0.72747 0.15628 0.77043 0.0
H356 H 0.73997 0.13115 0.75213 0.0
H357 H 0.93731 0.1972 0.80566 0.0
H358 H 0.88615 0.20614 0.81433 0.0
H359 H 0.87439 0.14143 0.81007 0.0
H360 H 0.72936 0.18162 0.82771 0.0
H361 H 0.71408 1.02946 0.82224 0.0
H362 H 0.7808 0.2299 0.78953 0.0
H363 H 0.83439 0.24986 0.80327 0.0
H364 H 0.77582 0.24949 0.80979 0.0
H365 H 0.76674 0.04856 0.78224 0.0
H366 H 0.74851 1.00701 0.79968 0.0
H367 H 0.81475 0.05937 0.79724 0.0
C368 C 0.69695 0.95476 0.95024 0.0
C369 C 0.64643 0.9477 0.94874 0.0
C370 C 0.70871 0.92878 0.96226 0.0
C371 C 0.66853 0.89385 0.97263 0.0
C372 C 0.61804 0.88849 0.97156 0.0
C373 C 0.60784 0.91604 0.95975 0.0
C374 C 0.76338 0.93673 0.96335 0.0
C375 C 0.57373 0.85088 0.98213 0.0
C376 C 0.66745 0.7718 0.98704 0.0
C377 C 0.67627 0.7817 1.00362 0.0
C378 C 0.66698 0.80895 0.97674 0.0
C379 C 0.67679 0.85779 0.98311 0.0
C380 C 0.68925 0.86939 0.99969 0.0
C381 C 0.68819 0.83083 1.00983 0.0
C382 C 0.65265 0.79452 0.95921 0.0
C383 C 0.70138 0.92156 1.00683 0.0
H384 H 0.72692 0.97961 0.94178 0.0
H385 H 0.5687 0.9105 0.95859 0.0
H386 H 0.77657 0.94183 0.9761 0.0
H387 H 0.76369 0.90164 0.95849 0.0
H388 H 0.79183 0.97126 0.95641 0.0
H389 H 0.53779 0.85381 0.98049 0.0
H390 H 0.56418 0.8102 0.97923 0.0
H391 H 0.58546 0.85827 0.99501 0.0
H392 H 0.6582 0.73381 0.9822 0.0
H393 H 0.69519 0.83858 0.02266 0.0
H394 H 0.68281 0.82449 0.95132 0.0
H395 H 0.61507 0.79325 0.95653 0.0
H396 H 0.64846 0.75587 0.95602 0.0
H397 H 0.72926 0.95392 0.99907 0.0
H398 H 0.71821 0.92746 0.01916 0.0
H399 H 0.665 0.92399 1.00748 0.0
C400 C 1.00145 0.65543 0.14576 0.0
C401 C 0.97458 0.63741 0.16033 0.0
C402 C 0.9759 0.65925 0.13193 0.0
C403 C 0.92181 0.64275 0.13259 0.0
C404 C 0.8948 0.62519 0.14739 0.0
C405 C 0.92178 0.62359 0.16114 0.0
C406 C 1.00649 0.67993 0.11657 0.0
C407 C 0.83686 0.60598 0.14857 0.0
C408 C 0.84596 0.67595 0.1024 0.0
C409 C 0.8211 0.62983 0.09316 0.0
C410 C 0.88232 0.68255 0.11448 0.0
C411 C 0.8924 0.6412 0.11776 0.0
C412 C 0.86949 0.59574 0.10782 0.0
C413 C 0.83478 0.59103 0.09545 0.0
C414 C 0.90744 0.73247 0.12435 0.0
C415 C 0.87808 0.55015 0.1111 0.0
H416 H 1.04239 0.66622 0.14515 0.0
H417 H 0.90085 0.60913 0.17237 0.0
H418 H 0.99298 0.64801 0.10745 0.0
H419 H 0.99962 0.71077 0.11148 0.0
H420 H 1.04918 0.69639 0.1185 0.0
H421 H 0.82168 0.59337 0.16094 0.0
H422 H 0.82848 0.63727 0.14495 0.0
H423 H 0.81509 0.57245 0.14016 0.0
H424 H 0.8354 0.70601 0.10062 0.0
H425 H 0.8152 0.55509 0.08841 0.0
H426 H 0.94979 0.74664 0.1261 0.0
H427 H 0.88923 0.72496 0.13645 0.0
H428 H 0.9027 0.76382 0.1186 0.0
H429 H 0.92043 0.56351 0.1121 0.0
H430 H 0.86081 0.51948 0.10154 0.0
H431 H 0.85992 0.53234 0.12278 0.0
C432 C 0.3076 0.89816 0.57725 0.0
C433 C 0.2953 0.9022 0.59331 0.0
C434 C 0.26965 0.86197 0.56662 0.0
C435 C 0.21793 0.82956 0.57215 0.0
C436 C 0.20482 0.83483 0.58822 0.0
C437 C 0.24389 0.87091 0.59868 0.0
C438 C 0.28543 0.85714 0.54964 0.0
C439 C 0.14994 0.80149 0.59445 0.0
C440 C 0.11977 0.76421 0.53816 0.0
C441 C 0.1179 0.71581 0.53702 0.0
C442 C 0.14961 0.8006 0.55025 0.0
C443 C 0.17878 0.78842 0.56123 0.0
C444 C 0.17475 0.73845 0.56061 0.0
C445 C 0.144 0.70258 0.54856 0.0
C446 C 0.15224 0.85312 0.55071 0.0
C447 C 0.20567 0.7241 0.57197 0.0
H448 H 0.34741 0.92221 0.5731 0.0
H449 H 0.23439 0.87407 0.61112 0.0
H450 H 0.26021 0.86249 0.54081 0.0
H451 H 0.32691 0.88623 0.54712 0.0
H452 H 0.27988 0.81737 0.54764 0.0
H453 H 0.14512 0.81342 0.60679 0.0
H454 H 0.12137 0.8039 0.58627 0.0
H455 H 0.14015 0.75994 0.59469 0.0
H456 H 0.09944 0.7744 0.52926 0.0
H457 H 0.14268 0.66517 0.54767 0.0
H458 H 0.19131 0.88374 0.54657 0.0
H459 H 0.14714 0.86347 0.56321 0.0
H460 H 0.12201 0.85385 0.54286 0.0
H461 H 0.24803 0.74833 0.56934 0.0
H462 H 0.19463 0.68223 0.57084 0.0
H463 H 0.19977 0.73232 0.58463 0.0
C464 C 0.42304 0.1624 0.68653 0.0
C465 C 0.45356 0.14022 0.69114 0.0
C466 C 0.41512 0.19536 0.69719 0.0
C467 C 0.43839 0.20626 0.71274 0.0
C468 C 0.46737 0.18206 0.71762 0.0
C469 C 0.47455 0.14939 0.70677 0.0
C470 C 0.38383 0.22025 0.69158 0.0
C471 C 0.49292 0.19254 0.73406 0.0
C472 C 0.48017 0.33451 0.73478 0.0
C473 C 0.44327 0.31895 0.74718 0.0
C474 C 0.47731 0.29876 0.72296 0.0
C475 C 0.43649 0.24607 0.72355 0.0
C476 C 0.3975 0.2308 0.73556 0.0
C477 C 0.4014 0.26749 0.74728 0.0
C478 C 0.51975 0.31678 0.7104 0.0
C479 C 0.35328 0.17511 0.73656 0.0
H480 H 0.40686 0.15545 0.67444 0.0
H481 H 0.4981 0.13223 0.71039 0.0
H482 H 0.35418 0.21518 0.70071 0.0
H483 H 0.41021 0.2629 0.69011 0.0
H484 H 0.36369 0.20353 0.6799 0.0
H485 H 0.51111 0.16795 0.73638 0.0
H486 H 0.52371 0.23425 0.73508 0.0
H487 H 0.46374 0.18511 0.74361 0.0
H488 H 0.51255 0.37433 0.73464 0.0
H489 H 0.37278 0.25536 0.75685 0.0
H490 H 0.50232 0.30477 0.69817 0.0
H491 H 0.54392 0.29803 0.71251 0.0
H492 H 0.54584 0.35988 0.71066 0.0
H493 H 0.33484 0.16082 0.72455 0.0
H494 H 0.32276 0.17102 0.74525 0.0
H495 H 0.36888 0.14951 0.74046 0.0
C496 C 0.17974 0.46926 0.90599 0.0
C497 C 0.16222 0.43708 0.91953 0.0
C498 C 0.21295 0.4648 0.89471 0.0
C499 C 0.22922 0.42738 0.89708 0.0
C500 C 0.21011 0.39351 0.91045 0.0
C501 C 0.17672 0.39872 0.92152 0.0
C502 C 0.23216 0.50151 0.88057 0.0
C503 C 0.2266 0.35322 0.91342 0.0
C504 C 0.28987 0.39766 0.86081 0.0
C505 C 0.34333 0.43181 0.86354 0.0
C506 C 0.25222 0.39441 0.87189 0.0
C507 C 0.26853 0.42598 0.88603 0.0
C508 C 0.32267 0.45887 0.88913 0.0
C509 C 0.3594 0.46146 0.87783 0.0
C510 C 0.19495 0.35892 0.86813 0.0
C511 C 0.34176 0.49297 0.90409 0.0
H512 H 0.16868 0.49903 0.90443 0.0
H513 H 0.16342 0.37393 0.93203 0.0
H514 H 0.27509 0.52772 0.88159 0.0
H515 H 0.22454 0.47902 0.86913 0.0
H516 H 0.2132 0.52602 0.87988 0.0
H517 H 0.20527 0.32733 0.92366 0.0
H518 H 0.21979 0.32871 0.90247 0.0
H519 H 0.26915 0.37319 0.91611 0.0
H520 H 0.2773 0.37481 0.84974 0.0
H521 H 0.40071 0.48798 0.87996 0.0
H522 H 0.176 0.38285 0.86593 0.0
H523 H 0.17491 0.33344 0.87854 0.0
H524 H 0.18882 0.33385 0.85734 0.0
H525 H 0.32914 0.52277 0.90371 0.0
H526 H 0.38506 0.51345 0.9053 0.0
H527 H 0.32431 0.46913 0.915 0.0
C528 C 0.83113 0.15429 0.08797 0.0
C529 C 0.77819 0.13544 0.08435 0.0
C530 C 0.87066 0.19113 0.07804 0.0
C531 C 0.85674 0.20911 0.06414 0.0
C532 C 0.80325 0.18788 0.05997 0.0
C533 C 0.7646 0.15144 0.07018 0.0
C534 C 0.92717 0.21288 0.08291 0.0
C535 C 0.78675 0.20556 0.04515 0.0
C536 C 0.94453 0.34561 0.0481 0.0
C537 C 0.96564 0.33518 0.03437 0.0
C538 C 0.91079 0.30508 0.0583 0.0
C539 C 0.89756 0.25286 0.05457 0.0
C540 C 0.92066 0.24246 0.0411 0.0
C541 C 0.95463 0.28386 0.03117 0.0
C542 C 0.88744 0.31791 0.07265 0.0
C543 C 0.90745 0.18737 0.03669 0.0
H544 H 0.84174 0.14215 0.09897 0.0
H545 H 0.72367 0.13693 0.06737 0.0
H546 H 0.95043 0.21164 0.07257 0.0
H547 H 0.94395 0.25448 0.08661 0.0
H548 H 0.93163 0.19112 0.09309 0.0
H549 H 0.74395 0.18207 0.04288 0.0
H550 H 0.7974 0.24719 0.04663 0.0
H551 H 0.80764 0.20276 0.03439 0.0
H552 H 0.95299 0.38528 0.05059 0.0
H553 H 0.97075 0.27567 0.02051 0.0
H554 H 0.8932 0.30049 0.08373 0.0
H555 H 0.84466 0.30075 0.07083 0.0
H556 H 0.90489 0.36073 0.07462 0.0
H557 H 0.91208 0.16742 0.04732 0.0
H558 H 0.93236 0.18637 0.02679 0.0
H559 H 0.86591 0.16468 0.0328 0.0
C560 C 0.72274 0.86204 0.26589 0.0
C561 C 0.70406 0.80991 0.2612 0.0
C562 C 0.72339 0.89845 0.25491 0.0
C563 C 0.70419 0.8818 0.23904 0.0
C564 C 0.68706 0.82956 0.23415 0.0
C565 C 0.68756 0.79438 0.24527 0.0
C566 C 0.74271 0.95405 0.26044 0.0
C567 C 0.66582 0.81005 0.21738 0.0
C568 C 0.64014 0.94279 0.21471 0.0
C569 C 0.67691 0.96726 0.20249 0.0
C570 C 0.64989 0.91736 0.22731 0.0
C571 C 0.69793 0.9172 0.22777 0.0
C572 C 0.73674 0.94522 0.21609 0.0
C573 C 0.72554 0.96961 0.20345 0.0
C574 C 0.60721 0.88741 0.23941 0.0
C575 C 0.78875 0.94671 0.21636 0.0
H576 H 0.73559 0.87404 0.27822 0.0
H577 H 0.67311 0.75404 0.24162 0.0
H578 H 0.77071 0.98191 0.2516 0.0
H579 H 0.70929 0.96146 0.26121 0.0
H580 H 0.7621 0.96228 0.27244 0.0
H581 H 0.65607 0.76884 0.21533 0.0
H582 H 0.62991 0.81273 0.21543 0.0
H583 H 0.69474 0.83483 0.20822 0.0
H584 H 0.6025 0.94102 0.21397 0.0
H585 H 0.75413 0.98889 0.19404 0.0
H586 H 0.62306 0.89702 0.25187 0.0
H587 H 0.59138 0.84481 0.2375 0.0
H588 H 0.57444 0.8958 0.23835 0.0
H589 H 0.80541 0.95495 0.22874 0.0
H590 H 0.81743 0.97671 0.2081 0.0
H591 H 0.78313 0.90798 0.2126 0.0
C592 C 0.93745 0.61189 0.40025 0.0
C593 C 0.95168 0.644 0.41404 0.0
C594 C 0.90658 0.61598 0.38808 0.0
C595 C 0.88938 0.65301 0.38974 0.0
C596 C 0.9063 0.68767 0.40319 0.0
C597 C 0.93731 0.68273 0.4152 0.0
C598 C 0.88962 0.57833 0.37394 0.0
C599 C 0.88898 0.72775 0.40541 0.0
C600 C 0.82274 0.67311 0.35317 0.0
C601 C 0.77 0.63803 0.35641 0.0
C602 C 0.86228 0.67973 0.36411 0.0
C603 C 0.8485 0.65062 0.37856 0.0
C604 C 0.79508 0.61648 0.38205 0.0
C605 C 0.75661 0.6106 0.37093 0.0
C606 C 0.91876 0.71647 0.35998 0.0
C607 C 0.77849 0.58473 0.3973 0.0
H608 H 0.94863 0.58197 0.39929 0.0
H609 H 0.94828 0.70767 0.42584 0.0
H610 H 0.84717 0.54995 0.37486 0.0
H611 H 0.8958 0.59954 0.36245 0.0
H612 H 0.9111 0.55617 0.37345 0.0
H613 H 0.91097 0.75616 0.41524 0.0
H614 H 0.89411 0.7495 0.39409 0.0
H615 H 0.84672 0.70763 0.4084 0.0
H616 H 0.83318 0.69424 0.34192 0.0
H617 H 0.71585 0.5835 0.3735 0.0
H618 H 0.93916 0.69376 0.35794 0.0
H619 H 0.9389 0.74395 0.37016 0.0
H620 H 0.92279 0.73942 0.34898 0.0
H621 H 0.79381 0.55703 0.39733 0.0
H622 H 0.73528 0.56198 0.39858 0.0
H623 H 0.79517 0.61076 0.408 0.0
C624 C 0.64313 0.76012 0.34722 0.0
C625 C 0.6097 0.71638 0.33777 0.0
C626 C 0.6255 0.792 0.35447 0.0
C627 C 0.57361 0.78139 0.35165 0.0
C628 C 0.53928 0.73651 0.34234 0.0
C629 C 0.55749 0.70404 0.33575 0.0
C630 C 0.663 0.838 0.36476 0.0
C631 C 0.48425 0.72445 0.33852 0.0
C632 C 0.5131 0.8448 0.37809 0.0
C633 C 0.52335 0.88918 0.36919 0.0
C634 C 0.53018 0.81013 0.37275 0.0
C635 C 0.55634 0.81868 0.35778 0.0
C636 C 0.56655 0.86341 0.34872 0.0
C637 C 0.5508 0.89852 0.35466 0.0
C638 C 0.51995 0.76414 0.38309 0.0
C639 C 0.5928 0.8734 0.33249 0.0
H640 H 0.68361 0.76993 0.34873 0.0
H641 H 0.53179 0.67085 0.3282 0.0
H642 H 0.67289 0.87499 0.35859 0.0
H643 H 0.6445 0.83808 0.37642 0.0
H644 H 0.69988 0.83755 0.36725 0.0
H645 H 0.46099 0.68579 0.33245 0.0
H646 H 0.46369 0.72503 0.34965 0.0
H647 H 0.4857 0.75504 0.33047 0.0
H648 H 0.49165 0.8372 0.38929 0.0
H649 H 0.55788 0.9321 0.34755 0.0
H650 H 0.55717 0.76439 0.38552 0.0
H651 H 0.49371 0.72707 0.37661 0.0
H652 H 0.50169 0.76444 0.39478 0.0
H653 H 0.63255 0.87843 0.33381 0.0
H654 H 0.59622 0.90877 0.32666 0.0
H655 H 0.57025 0.8392 0.32438 0.0
C656 C 0.65952 0.45082 0.51803 0.0
C657 C 0.6454 0.48264 0.52699 0.0
C658 C 0.71065 0.46999 0.51232 0.0
C659 C 0.74939 0.52212 0.51594 0.0
C660 C 0.73582 0.55424 0.52529 0.0
C661 C 0.6838 0.53431 0.53055 0.0
C662 C 0.72288 0.43464 0.5021 0.0
C663 C 0.77617 0.60976 0.52961 0.0
C664 C 0.89014 0.55097 0.51081 0.0
C665 C 0.90281 0.57436 0.49558 0.0
C666 C 0.84116 0.53568 0.51787 0.0
C667 C 0.80348 0.54303 0.50941 0.0
C668 C 0.81631 0.5672 0.49414 0.0
C669 C 0.86587 0.58306 0.48752 0.0
C670 C 0.82939 0.51076 0.53428 0.0
C671 C 0.77708 0.57485 0.48452 0.0
H672 H 0.63012 0.41096 0.51506 0.0
H673 H 0.67327 0.55907 0.53749 0.0
H674 H 0.73706 0.4523 0.49009 0.0
H675 H 0.7546 0.4303 0.50779 0.0
H676 H 0.6883 0.39512 0.50033 0.0
H677 H 0.76017 0.62878 0.53765 0.0
H678 H 0.81011 0.61047 0.5357 0.0
H679 H 0.79099 0.6332 0.5185 0.0
H680 H 0.91847 0.5445 0.51723 0.0
H681 H 0.87519 0.60137 0.4758 0.0
H682 H 0.79779 0.46941 0.53323 0.0
H683 H 0.81517 0.53105 0.54245 0.0
H684 H 0.86418 0.51173 0.53987 0.0
H685 H 0.74266 0.53625 0.48157 0.0
H686 H 0.79372 0.59597 0.4731 0.0
H687 H 0.7628 0.5971 0.49175 0.0
C688 C 0.33217 0.87222 0.66113 0.0
C689 C 0.38462 0.90365 0.666 0.0
C690 C 0.30185 0.82058 0.66636 0.0
C691 C 0.3237 0.79959 0.67714 0.0
C692 C 0.37608 0.83142 0.68256 0.0
C693 C 0.40616 0.88296 0.6768 0.0
C694 C 0.24678 0.78794 0.65988 0.0
C695 C 0.40052 0.81075 0.69427 0.0
C696 C 0.22282 0.67426 0.69773 0.0
C697 C 0.22471 0.63575 0.68814 0.0
C698 C 0.25656 0.72788 0.6948 0.0
C699 C 0.29227 0.74333 0.68178 0.0
C700 C 0.29446 0.70449 0.67216 0.0
C701 C 0.26114 0.65142 0.67554 0.0
C702 C 0.25344 0.76803 0.70547 0.0
C703 C 0.3309 0.71891 0.65793 0.0
H704 H 0.31479 0.88744 0.65279 0.0
H705 H 0.44643 0.9069 0.68071 0.0
H706 H 0.24335 0.75368 0.65311 0.0
H707 H 0.21852 0.77273 0.66996 0.0
H708 H 0.23533 0.81036 0.65174 0.0
H709 H 0.43978 0.8416 0.69844 0.0
H710 H 0.37491 0.79394 0.70491 0.0
H711 H 0.40451 0.77882 0.68846 0.0
H712 H 0.19525 0.66254 0.70759 0.0
H713 H 0.26298 0.62203 0.66804 0.0
H714 H 0.23853 0.78976 0.69841 0.0
H715 H 0.29301 0.79697 0.70997 0.0
H716 H 0.22729 0.74998 0.71595 0.0
H717 H 0.32077 0.74014 0.64892 0.0
H718 H 0.32899 0.68408 0.65194 0.0
H719 H 0.3718 0.74556 0.66185 0.0
C720 C 0.45048 0.29009 0.82812 0.0
C721 C 0.48709 0.34365 0.82908 0.0
C722 C 0.46255 0.25223 0.83361 0.0
C723 C 0.51313 0.26799 0.83983 0.0
C724 C 0.55001 0.3222 0.84114 0.0
C725 C 0.5363 0.35942 0.83596 0.0
C726 C 0.42164 0.19513 0.83218 0.0
C727 C 0.60484 0.34085 0.84723 0.0
C728 C 0.53504 0.16662 0.86207 0.0
C729 C 0.55261 0.1468 0.84957 0.0
C730 C 0.52232 0.20628 0.85917 0.0
C731 C 0.52847 0.22752 0.8435 0.0
C732 C 0.54725 0.20831 0.83096 0.0
C733 C 0.55845 0.16802 0.8341 0.0
C734 C 0.50165 0.22502 0.87281 0.0
C735 C 0.55566 0.23038 0.81416 0.0
H736 H 0.41231 0.27766 0.82286 0.0
H737 H 0.565 0.40072 0.83652 0.0
H738 H 0.43377 0.1758 0.82295 0.0
H739 H 0.41783 0.1751 0.84378 0.0
H740 H 0.3827 0.18951 0.8287 0.0
H741 H 0.62734 0.384 0.84888 0.0
H742 H 0.60388 0.32216 0.85886 0.0
H743 H 0.62594 0.32929 0.83849 0.0
H744 H 0.53066 0.15073 0.87406 0.0
H745 H 0.57282 0.15378 0.82438 0.0
H746 H 0.46185 0.2177 0.86975 0.0
H747 H 0.52687 0.26783 0.87458 0.0
H748 H 0.49978 0.20524 0.88433 0.0
H749 H 0.51797 0.22355 0.80901 0.0
H750 H 0.57247 0.21268 0.80591 0.0
H751 H 0.58243 0.27327 0.81461 0.0
C752 C 0.21389 0.53236 1.0134 0.0
C753 C 0.1977 0.50487 0.99868 0.0
C754 C 0.26514 0.55118 0.01936 0.0
C755 C 0.30147 0.54307 1.0103 0.0
C756 C 0.28501 0.51457 0.99559 0.0
C757 C 0.23346 0.49546 0.99008 0.0
C758 C 0.2808 0.58083 0.03518 0.0
C759 C 0.32243 0.50574 0.98535 0.0
C760 C 0.44679 0.64143 1.01441 0.0
C761 C 0.46575 0.61392 0.02336 0.0
C762 C 0.39363 0.61904 1.01029 0.0
C763 C 0.35773 0.56786 0.01543 0.0
C764 C 0.37625 0.54008 0.02475 0.0
C765 C 0.43012 0.56323 0.02849 0.0
C766 C 0.37615 0.64985 1.00005 0.0
C767 C 0.33919 0.48571 0.03065 0.0
H768 H 0.18668 0.5396 0.02023 0.0
H769 H 0.22157 0.474 0.97876 0.0
H770 H 0.29896 0.56429 0.04322 0.0
H771 H 0.31051 0.62225 0.03303 0.0
H772 H 0.24699 0.5798 0.04147 0.0
H773 H 0.30298 0.48075 0.9746 0.0
H774 H 0.35467 0.54389 0.9812 0.0
H775 H 0.34034 0.48707 0.99255 0.0
H776 H 0.47382 0.6805 1.01026 0.0
H777 H 0.44426 0.54173 0.03544 0.0
H778 H 0.34473 0.65359 1.00623 0.0
H779 H 0.35968 0.62882 0.98848 0.0
H780 H 0.4087 0.68967 0.99735 0.0
H781 H 0.30665 0.4856 0.03744 0.0
H782 H 0.35901 0.47046 0.03853 0.0
H783 H 0.32162 0.45864 0.02021 0.0
C784 C 0.91647 0.39502 0.19538 0.0
C785 C 0.90275 0.43307 0.19167 0.0
C786 C 0.88407 0.34227 0.19068 0.0
C787 C 0.83768 0.32756 0.18168 0.0
C788 C 0.82384 0.36596 0.17792 0.0
C789 C 0.85607 0.41784 0.18312 0.0
C790 C 0.89968 0.30234 0.19519 0.0
C791 C 0.77569 0.3526 0.16798 0.0
C792 C 0.78312 0.20827 0.15384 0.0
C793 C 0.7381 0.17189 0.16204 0.0
C794 C 0.81604 0.2586 0.16018 0.0
C795 C 0.80479 0.27283 0.17539 0.0
C796 C 0.76029 0.2358 0.18399 0.0
C797 C 0.72715 0.18602 0.17714 0.0
C798 C 0.86211 0.29706 0.15034 0.0
C799 C 0.74739 0.24902 0.20037 0.0
H800 H 0.95231 0.4064 0.20202 0.0
H801 H 0.84527 0.44696 0.18003 0.0
H802 H 0.86687 0.26899 0.2014 0.0
H803 H 0.90833 0.28651 0.18415 0.0
H804 H 0.93469 0.31913 0.20318 0.0
H805 H 0.77013 0.3869 0.1662 0.0
H806 H 0.77871 0.33742 0.15596 0.0
H807 H 0.74033 0.32132 0.17388 0.0
H808 H 0.79232 0.19781 0.14222 0.0
H809 H 0.69283 0.15808 0.18367 0.0
H810 H 0.89886 0.31164 0.15738 0.0
H811 H 0.85762 0.33138 0.14747 0.0
H812 H 0.86607 0.27961 0.13886 0.0
H813 H 0.78197 0.26392 0.20846 0.0
H814 H 0.71402 0.21474 0.20608 0.0
H815 H 0.73734 0.28054 0.19924 0.0
C816 C 0.25169 0.63353 0.511 0.0
C817 C 0.2043 0.60112 0.50289 0.0
C818 C 0.28359 0.61406 0.51673 0.0
C819 C 0.26854 0.56086 0.51408 0.0
C820 C 0.22149 0.52812 0.50552 0.0
C821 C 0.18967 0.5485 0.50015 0.0
C822 C 0.33282 0.65028 0.52603 0.0
C823 C 0.20439 0.47138 0.50224 0.0
C824 C 0.37807 0.52798 0.51924 0.0
C825 C 0.36951 0.50832 0.53498 0.0
C826 C 0.34439 0.54324 0.51204 0.0
C827 C 0.30141 0.53959 0.52084 0.0
C828 C 0.29205 0.51893 0.53661 0.0
C829 C 0.32574 0.50309 0.5434 0.0
C830 C 0.35548 0.56439 0.49513 0.0
C831 C 0.24733 0.5151 0.54657 0.0
H832 H 0.26341 0.67418 0.51331 0.0
H833 H 0.15323 0.52315 0.49392 0.0
H834 H 0.33046 0.6354 0.53842 0.0
H835 H 0.3673 0.6515 0.52019 0.0
H836 H 0.33942 0.6908 0.52689 0.0
H837 H 0.16861 0.4519 0.4946 0.0
H838 H 0.23618 0.46797 0.49616 0.0
H839 H 0.1964 0.45013 0.51379 0.0
H840 H 0.41137 0.5318 0.51253 0.0
H841 H 0.31827 0.48758 0.5555 0.0
H842 H 0.36653 0.60631 0.49536 0.0
H843 H 0.31981 0.54345 0.48753 0.0
H844 H 0.38762 0.56066 0.4894 0.0
H845 H 0.25311 0.55483 0.54885 0.0
H846 H 0.2439 0.49607 0.55835 0.0
H847 H 0.20987 0.49258 0.53989 0.0
C848 C 0.6846 0.25189 0.67375 0.0
C849 C 0.66693 0.19901 0.67001 0.0
C850 C 0.73573 0.2853 0.67935 0.0
C851 C 0.7708 0.26587 0.68114 0.0
C852 C 0.75353 0.21266 0.67727 0.0
C853 C 0.70171 0.17977 0.67184 0.0
C854 C 0.75197 0.34136 0.68358 0.0
C855 C 0.78969 0.19039 0.67904 0.0
C856 C 0.9168 0.36593 0.68264 0.0
C857 C 0.92781 0.36915 0.69921 0.0
C858 C 0.86613 0.3322 0.67658 0.0
C859 C 0.82515 0.3012 0.68735 0.0
C860 C 0.83582 0.30524 0.70412 0.0
C861 C 0.88686 0.33929 0.7098 0.0
C862 C 0.85665 0.32897 0.65862 0.0
C863 C 0.79326 0.2739 0.71609 0.0
H864 H 0.65814 0.26732 0.6725 0.0
H865 H 0.68851 0.13907 0.66902 0.0
H866 H 0.76332 0.34911 0.69649 0.0
H867 H 0.78668 0.36835 0.67644 0.0
H868 H 0.72026 0.35065 0.68132 0.0
H869 H 0.77099 0.14878 0.67511 0.0
H870 H 0.82559 0.21346 0.67184 0.0
H871 H 0.80205 0.19331 0.69183 0.0
H872 H 0.94825 0.38846 0.6743 0.0
H873 H 0.89476 0.3426 0.72257 0.0
H874 H 0.82624 0.33958 0.65581 0.0
H875 H 0.84178 0.28821 0.6543 0.0
H876 H 0.89267 0.3552 0.65183 0.0
H877 H 0.76715 0.29091 0.71726 0.0
H878 H 0.80935 0.2738 0.72817 0.0
H879 H 0.76894 0.23277 0.71195 0.0
C880 C 0.54971 0.87918 0.85087 0.0
C881 C 0.57054 0.89116 0.86657 0.0
C882 C 0.53471 0.83011 0.84362 0.0
C883 C 0.53968 0.79154 0.85235 0.0
C884 C 0.56124 0.80369 0.86811 0.0
C885 C 0.57692 0.85329 0.8749 0.0
C886 C 0.51272 0.81921 0.82671 0.0
C887 C 0.56632 0.76368 0.87804 0.0
C888 C 0.44686 0.64764 0.84263 0.0
C889 C 0.47937 0.63235 0.83464 0.0
C890 C 0.4659 0.69912 0.84827 0.0
C891 C 0.51878 0.73723 0.8456 0.0
C892 C 0.55167 0.72253 0.83719 0.0
C893 C 0.53177 0.67014 0.83198 0.0
C894 C 0.42957 0.71234 0.85748 0.0
C895 C 0.60804 0.76206 0.83387 0.0
H896 H 0.54507 0.90814 0.84421 0.0
H897 H 0.59339 0.86195 0.88696 0.0
H898 H 0.53378 0.80448 0.8191 0.0
H899 H 0.47098 0.78825 0.82691 0.0
H900 H 0.51556 0.85453 0.82102 0.0
H901 H 0.52696 0.72961 0.8802 0.0
H902 H 0.58934 0.74907 0.87142 0.0
H903 H 0.58547 0.77973 0.88989 0.0
H904 H 0.4064 0.61886 0.84491 0.0
H905 H 0.55716 0.65885 0.8258 0.0
H906 H 0.42728 0.7447 0.85152 0.0
H907 H 0.44511 0.72598 0.86984 0.0
H908 H 0.38938 0.67838 0.85843 0.0
H909 H 0.61046 0.79646 0.82769 0.0
H910 H 0.62756 0.7455 0.82629 0.0
H911 H 0.62991 0.7763 0.8454 0.0
C912 C 0.75348 0.59032 0.01777 0.0
C913 C 0.72127 0.56897 0.03131 0.0
C914 C 0.78922 0.57422 1.01297 0.0
C915 C 0.79379 0.5361 0.022 0.0
C916 C 0.76249 0.51537 0.03596 0.0
C917 C 0.72618 0.53151 0.04029 0.0
C918 C 0.82088 0.59687 0.99787 0.0
C919 C 0.76652 0.47529 0.04614 0.0
C920 C 0.84252 0.45382 1.00004 0.0
C921 C 0.89573 0.47906 1.00432 0.0
C922 C 0.80918 0.47196 1.0057 0.0
C923 C 0.829 0.51596 0.01622 0.0
C924 C 0.88272 0.54161 0.02062 0.0
C925 C 0.91553 0.52324 1.01449 0.0
C926 C 0.75262 0.44401 1.00035 0.0
C927 C 0.90535 0.58801 0.03201 0.0
H928 H 0.75008 0.61914 1.01063 0.0
H929 H 0.70104 0.51405 0.05053 0.0
H930 H 0.86322 0.61441 1.00058 0.0
H931 H 0.8107 0.56526 0.98881 0.0
H932 H 0.81395 0.62728 0.99244 0.0
H933 H 0.74277 0.4662 0.05729 0.0
H934 H 0.75294 0.43858 0.03908 0.0
H935 H 0.80791 0.48956 0.04956 0.0
H936 H 0.8268 0.41964 0.99221 0.0
H937 H 0.95637 0.54254 0.01806 0.0
H938 H 0.74332 0.47179 0.99421 0.0
H939 H 0.72668 0.42885 1.01098 0.0
H940 H 0.74337 0.41081 0.99199 0.0
H941 H 0.90102 0.62023 0.0268 0.0
H942 H 0.94742 0.60278 0.03464 0.0
H943 H 0.88348 0.57712 0.04353 0.0
C944 C 0.42971 0.87662 0.16507 0.0
C945 C 0.47009 0.86695 0.16955 0.0
C946 C 0.3776 0.84293 0.16988 0.0
C947 C 0.36573 0.79917 0.17969 0.0
C948 C 0.40643 0.78936 0.18422 0.0
C949 C 0.45774 0.8229 0.17898 0.0
C950 C 0.33528 0.85441 0.1646 0.0
C951 C 0.39607 0.74411 0.19497 0.0
C952 C 0.24414 0.74399 0.20611 0.0
C953 C 0.20913 0.69785 0.19784 0.0
C954 C 0.29504 0.77694 0.20041 0.0
C955 C 0.31129 0.76459 0.18574 0.0
C956 C 0.27602 0.71843 0.17719 0.0
C957 C 0.22561 0.68544 0.18339 0.0
C958 C 0.33153 0.82494 0.21018 0.0
C959 C 0.29146 0.70404 0.16142 0.0
H960 H 0.4388 0.91043 0.15779 0.0
H961 H 0.48859 0.81518 0.18266 0.0
H962 H 0.30327 0.81958 0.15846 0.0
H963 H 0.31809 0.86305 0.1753 0.0
H964 H 0.35022 0.88816 0.15631 0.0
H965 H 0.43189 0.74153 0.19732 0.0
H966 H 0.3803 0.74833 0.20668 0.0
H967 H 0.3661 0.70675 0.1894 0.0
H968 H 0.23173 0.75473 0.21708 0.0
H969 H 0.19886 0.65028 0.17677 0.0
H970 H 0.34403 0.86058 0.2029 0.0
H971 H 0.36731 0.8234 0.21344 0.0
H972 H 0.31314 0.82873 0.22143 0.0
H973 H 0.30375 0.7365 0.15275 0.0
H974 H 0.25904 0.6679 0.15594 0.0
H975 H 0.32543 0.69804 0.16332 0.0
C976 C 0.58112 0.41743 0.34582 0.0
C977 C 0.59705 0.42683 0.32969 0.0
C978 C 0.5664 0.36876 0.35293 0.0
C979 C 0.56594 0.32797 0.34355 0.0
C980 C 0.5798 0.33674 0.32705 0.0
C981 C 0.59613 0.38628 0.32043 0.0
C982 C 0.55346 0.36174 0.37066 0.0
C983 C 0.57827 0.29405 0.31644 0.0
C984 C 0.57753 0.21792 0.36382 0.0
C985 C 0.52498 0.17917 0.36521 0.0
C986 C 0.59139 0.26689 0.3571 0.0
C987 C 0.55183 0.27644 0.351 0.0
C988 C 0.49875 0.23654 0.35196 0.0
C989 C 0.48595 0.18891 0.35938 0.0
C990 C 0.64825 0.30885 0.35694 0.0
C991 C 0.45544 0.24413 0.34514 0.0
H992 H 0.5828 0.449 0.35311 0.0
H993 H 0.60866 0.3935 0.30797 0.0
H994 H 0.51362 0.32813 0.37246 0.0
H995 H 0.58118 0.35278 0.37706 0.0
H996 H 0.5555 0.39711 0.37628 0.0
H997 H 0.58624 0.30581 0.30361 0.0
H998 H 0.60781 0.28381 0.32066 0.0
H999 H 0.53938 0.25821 0.31723 0.0
H1000 H 0.60764 0.21069 0.36859 0.0
H1001 H 0.44527 0.15889 0.3605 0.0
H1002 H 0.65334 0.34406 0.36354 0.0
H1003 H 0.66124 0.32071 0.34437 0.0
H1004 H 0.67404 0.29577 0.36257 0.0
H1005 H 0.45405 0.27654 0.35162 0.0
H1006 H 0.41651 0.20834 0.34608 0.0
H1007 H 0.46319 0.25521 0.33227 0.0
C1008 C 0.19326 0.70505 0.4419 0.0
C1009 C 0.16782 0.71776 0.45392 0.0
C1010 C 0.23761 0.74435 0.43404 0.0
C1011 C 0.25592 0.79765 0.43796 0.0
C1012 C 0.23026 0.81057 0.4501 0.0
C1013 C 0.1871 0.77051 0.45808 0.0
C1014 C 0.26469 0.72887 0.42149 0.0
C1015 C 0.24746 0.86681 0.45437 0.0
C1016 C 0.39248 0.90657 0.42679 0.0
C1017 C 0.38243 0.92508 0.41248 0.0
C1018 C 0.35207 0.86383 0.43492 0.0
C1019 C 0.30014 0.84017 0.42886 0.0
C1020 C 0.28992 0.85881 0.41441 0.0
C1021 C 0.33123 0.90043 0.4063 0.0
C1022 C 0.36486 0.84418 0.45003 0.0
C1023 C 0.23504 0.83582 0.40774 0.0
H1024 H 0.17884 0.66433 0.43875 0.0
H1025 H 0.16745 0.78067 0.46729 0.0
H1026 H 0.26096 0.74306 0.4095 0.0
H1027 H 0.30709 0.74743 0.4243 0.0
H1028 H 0.24815 0.68582 0.42071 0.0
H1029 H 0.22349 0.87029 0.46413 0.0
H1030 H 0.28901 0.88746 0.45827 0.0
H1031 H 0.24451 0.88721 0.44357 0.0
H1032 H 0.43205 0.92516 0.43155 0.0
H1033 H 0.32305 0.91476 0.39531 0.0
H1034 H 0.34983 0.80145 0.44899 0.0
H1035 H 0.34529 0.85059 0.46053 0.0
H1036 H 0.40761 0.8641 0.45249 0.0
H1037 H 0.2182 0.79331 0.40544 0.0
H1038 H 0.23369 0.85464 0.39634 0.0
H1039 H 0.20965 0.84052 0.41672 0.0
C1040 C 0.52287 0.35322 0.57241 0.0
C1041 C 0.51271 0.38891 0.58073 0.0
C1042 C 0.5266 0.31353 0.58053 0.0
C1043 C 0.51866 0.30836 0.59741 0.0
C1044 C 0.51101 0.34595 0.60601 0.0
C1045 C 0.50865 0.38614 0.59758 0.0
C1046 C 0.53579 0.27513 0.57086 0.0
C1047 C 0.50161 0.3416 0.62394 0.0
C1048 C 0.4532 0.16795 0.61191 0.0
C1049 C 0.4949 0.16433 0.61881 0.0
C1050 C 0.46042 0.21481 0.60535 0.0
C1051 C 0.51082 0.25968 0.60548 0.0
C1052 C 0.55318 0.25674 0.61256 0.0
C1053 C 0.54469 0.20919 0.61923 0.0
C1054 C 0.41389 0.21601 0.59811 0.0
C1055 C 0.60759 0.30352 0.61281 0.0
H1056 H 0.52642 0.35537 0.5594 0.0
H1057 H 0.50042 0.41337 0.60407 0.0
H1058 H 0.56586 0.2686 0.57677 0.0
H1059 H 0.49907 0.2369 0.57022 0.0
H1060 H 0.54857 0.28871 0.55837 0.0
H1061 H 0.5033 0.3773 0.62917 0.0
H1062 H 0.46238 0.30772 0.62639 0.0
H1063 H 0.5308 0.33449 0.63019 0.0
H1064 H 0.41436 0.13397 0.61166 0.0
H1065 H 0.57715 0.20703 0.6246 0.0
H1066 H 0.42012 0.224 0.58502 0.0
H1067 H 0.4095 0.248 0.6037 0.0
H1068 H 0.3768 0.17859 0.59972 0.0
H1069 H 0.62168 0.31452 0.60027 0.0
H1070 H 0.63579 0.29582 0.61947 0.0
H1071 H 0.60715 0.3376 0.61846 0.0
C1072 C 0.33896 0.4947 0.78717 0.0
C1073 C 0.37341 0.48092 0.77983 0.0
C1074 C 0.29844 0.49522 0.77839 0.0
C1075 C 0.29137 0.48066 0.76185 0.0
C1076 C 0.3279 0.4697 0.75412 0.0
C1077 C 0.36874 0.47029 0.76319 0.0
C1078 C 0.26111 0.50811 0.7871 0.0
C1079 C 0.32177 0.45377 0.73656 0.0
C1080 C 0.14766 0.41108 0.75063 0.0
C1081 C 0.14197 0.45092 0.74347 0.0
C1082 C 0.19673 0.4194 0.7556 0.0
C1083 C 0.24152 0.46922 0.75362 0.0
C1084 C 0.23659 0.50875 0.74544 0.0
C1085 C 0.18671 0.49902 0.74037 0.0
C1086 C 0.19998 0.37562 0.76391 0.0
C1087 C 0.28326 0.5623 0.74301 0.0
H1088 H 0.34272 0.50365 0.79998 0.0
H1089 H 0.39515 0.45952 0.75741 0.0
H1090 H 0.25457 0.53623 0.78006 0.0
H1091 H 0.22269 0.472 0.78842 0.0
H1092 H 0.27568 0.52502 0.7993 0.0
H1093 H 0.35765 0.45526 0.73168 0.0
H1094 H 0.28882 0.41316 0.73517 0.0
H1095 H 0.31227 0.47928 0.72921 0.0
H1096 H 0.11322 0.37357 0.75287 0.0
H1097 H 0.18242 0.52992 0.73484 0.0
H1098 H 0.2092 0.38557 0.77688 0.0
H1099 H 0.23184 0.37049 0.75867 0.0
H1100 H 0.16278 0.33782 0.76295 0.0
H1101 H 0.29378 0.58412 0.75464 0.0
H1102 H 0.27508 0.58515 0.73403 0.0
H1103 H 0.3177 0.55939 0.73899 0.0
C1104 C 0.77119 0.17194 0.90609 0.0
C1105 C 0.7188 0.15324 0.91046 0.0
C1106 C 0.81251 0.21401 0.91439 0.0
C1107 C 0.80146 0.23913 0.92721 0.0
C1108 C 0.74859 0.22139 0.93142 0.0
C1109 C 0.70796 0.17832 0.92313 0.0
C1110 C 0.86816 0.23065 0.9097 0.0
C1111 C 0.73497 0.24765 0.94478 0.0
C1112 C 0.90779 0.30899 0.95908 0.0
C1113 C 0.93277 0.36118 0.95394 0.0
C1114 C 0.86495 0.26927 0.95059 0.0
C1115 C 0.84545 0.28183 0.93674 0.0
C1116 C 0.86955 0.33464 0.93169 0.0
C1117 C 0.91327 0.37356 0.94023 0.0
C1118 C 0.8414 0.21352 0.95626 0.0
C1119 C 0.84935 0.34994 0.9172 0.0
H1120 H 0.78015 0.15282 0.89637 0.0
H1121 H 0.66765 0.1645 0.92651 0.0
H1122 H 0.88931 0.27269 0.90656 0.0
H1123 H 0.88905 0.22563 0.92006 0.0
H1124 H 0.87021 0.20774 0.89928 0.0
H1125 H 0.6921 0.23181 0.94581 0.0
H1126 H 0.74995 0.24221 0.95645 0.0
H1127 H 0.75407 0.29036 0.94266 0.0
H1128 H 0.92251 0.29873 0.96959 0.0
H1129 H 0.93195 0.41374 0.93623 0.0
H1130 H 0.84483 0.18895 0.94664 0.0
H1131 H 0.79913 0.19717 0.95873 0.0
H1132 H 0.86075 0.21025 0.96734 0.0
H1133 H 0.85418 0.33113 0.90619 0.0
H1134 H 0.87008 0.39294 0.91545 0.0
H1135 H 0.80691 0.33583 0.91854 0.0
C1136 C 0.65256 0.88489 0.12264 0.0
C1137 C 0.62247 0.9075 0.11791 0.0
C1138 C 0.65082 0.84276 0.11398 0.0
C1139 C 0.61706 0.82148 0.10045 0.0
C1140 C 0.58547 0.8432 0.09586 0.0
C1141 C 0.58909 0.88638 0.1045 0.0
C1142 C 0.6861 0.82178 0.11912 0.0
C1143 C 0.54797 0.82088 0.08179 0.0
C1144 C 0.65583 0.74796 0.07047 0.0
C1145 C 0.62735 0.69642 0.07601 0.0
C1146 C 0.65109 0.78867 0.07782 0.0
C1147 C 0.61642 0.77761 0.09094 0.0
C1148 C 0.58508 0.72507 0.09591 0.0
C1149 C 0.59145 0.68524 0.08854 0.0
C1150 C 0.68601 0.84403 0.07225 0.0
C1151 C 0.54652 0.7112 0.10951 0.0
H1152 H 0.67873 0.90108 0.13291 0.0
H1153 H 0.56541 0.90335 0.10083 0.0
H1154 H 0.66237 0.77976 0.12213 0.0
H1155 H 0.71228 0.82492 0.10905 0.0
H1156 H 0.7106 0.84307 0.12977 0.0
H1157 H 0.52399 0.84018 0.08031 0.0
H1158 H 0.56997 0.82553 0.0705 0.0
H1159 H 0.5214 0.77834 0.08346 0.0
H1160 H 0.68459 0.75726 0.06108 0.0
H1161 H 0.56938 0.64553 0.09291 0.0
H1162 H 0.71551 0.86638 0.08175 0.0
H1163 H 0.66296 0.86399 0.07026 0.0
H1164 H 0.70687 0.84555 0.06093 0.0
H1165 H 0.56799 0.72575 0.12109 0.0
H1166 H 0.52008 0.6683 0.11041 0.0
H1167 H 0.52247 0.7303 0.10786 0.0
C1168 C 0.80992 0.65599 0.27825 0.0
C1169 C 0.76199 0.61332 0.28304 0.0
C1170 C 0.84852 0.64895 0.2705 0.0
C1171 C 0.83937 0.59781 0.26716 0.0
C1172 C 0.79099 0.55436 0.27184 0.0
C1173 C 0.75305 0.56258 0.2798 0.0
C1174 C 0.89948 0.69659 0.26597 0.0
C1175 C 0.77927 0.4992 0.26838 0.0
C1176 C 0.92924 0.59469 0.23439 0.0
C1177 C 0.96982 0.59524 0.24347 0.0
C1178 C 0.88495 0.59211 0.24186 0.0
C1179 C 0.8811 0.59076 0.25892 0.0
C1180 C 0.9207 0.58874 0.26811 0.0
C1181 C 0.9642 0.5906 0.26031 0.0
C1182 C 0.84348 0.59344 0.2315 0.0
C1183 C 0.91878 0.58776 0.28629 0.0
H1184 H 0.8178 0.69546 0.28072 0.0
H1185 H 0.71627 0.52927 0.28336 0.0
H1186 H 0.9327 0.69525 0.27183 0.0
H1187 H 0.90534 0.69694 0.25275 0.0
H1188 H 0.90085 0.7337 0.26956 0.0
H1189 H 0.73979 0.46959 0.27259 0.0
H1190 H 0.78184 0.49366 0.25523 0.0
H1191 H 0.80885 0.49204 0.27434 0.0
H1192 H 0.93272 0.59776 0.22139 0.0
H1193 H 0.99502 0.5909 0.26753 0.0
H1194 H 0.8454 0.63184 0.23301 0.0
H1195 H 0.80394 0.56288 0.2353 0.0
H1196 H 0.84847 0.58751 0.21852 0.0
H1197 H 0.9244 0.6257 0.29093 0.0
H1198 H 0.94948 0.58096 0.29164 0.0
H1199 H 0.87997 0.55681 0.29048 0.0
C1200 C 0.81496 0.42201 0.45436 0.0
C1201 C 0.86708 0.44411 0.44936 0.0
C1202 C 0.77565 0.37519 0.4475 0.0
C1203 C 0.78856 0.3501 0.43512 0.0
C1204 C 0.84169 0.37047 0.43074 0.0
C1205 C 0.88048 0.4172 0.438 0.0
C1206 C 0.71975 0.3545 0.45281 0.0
C1207 C 0.85713 0.34506 0.4176 0.0
C1208 C 0.67744 0.2147 0.42358 0.0
C1209 C 0.65189 0.22711 0.41159 0.0
C1210 C 0.72399 0.25387 0.43078 0.0
C1211 C 0.74561 0.30639 0.42571 0.0
C1212 C 0.72207 0.31812 0.4127 0.0
C1213 C 0.67537 0.27845 0.40589 0.0
C1214 C 0.74773 0.23964 0.4446 0.0
C1215 C 0.74417 0.3733 0.40666 0.0
H1216 H 0.80452 0.44257 0.46322 0.0
H1217 H 0.92068 0.43437 0.434 0.0
H1218 H 0.6971 0.35946 0.44296 0.0
H1219 H 0.70097 0.31209 0.45537 0.0
H1220 H 0.71702 0.37512 0.46374 0.0
H1221 H 0.90008 0.36057 0.41734 0.0
H1222 H 0.83717 0.30206 0.41917 0.0
H1223 H 0.84474 0.3525 0.40575 0.0
H1224 H 0.65931 0.17512 0.4281 0.0
H1225 H 0.65595 0.28812 0.39652 0.0
H1226 H 0.73947 0.25375 0.45608 0.0
H1227 H 0.79086 0.25885 0.44337 0.0
H1228 H 0.73158 0.19671 0.4454 0.0
H1229 H 0.73841 0.39745 0.4159 0.0
H1230 H 0.72506 0.37482 0.39528 0.0
H1231 H 0.78685 0.39126 0.40457 0.0
C1232 C 0.49278 0.88069 0.60385 0.0
C1233 C 0.46177 0.86841 0.61772 0.0
C1234 C 0.50177 0.84278 0.59617 0.0
C1235 C 0.47948 0.79161 0.60257 0.0
C1236 C 0.45185 0.78071 0.61731 0.0
C1237 C 0.44308 0.81895 0.62459 0.0
C1238 C 0.53203 0.85645 0.58062 0.0
C1239 C 0.42775 0.72726 0.62483 0.0
C1240 C 0.4289 0.66939 0.57632 0.0
C1241 C 0.46415 0.6517 0.57986 0.0
C1242 C 0.43553 0.71663 0.58276 0.0
C1243 C 0.47861 0.74745 0.59308 0.0
C1244 C 0.51645 0.73173 0.59578 0.0
C1245 C 0.50882 0.68403 0.58913 0.0
C1246 C 0.39427 0.73165 0.57936 0.0
C1247 C 0.56306 0.76337 0.6066 0.0
H1248 H 0.50708 0.91866 0.59839 0.0
H1249 H 0.41931 0.80919 0.63537 0.0
H1250 H 0.55951 0.84087 0.58042 0.0
H1251 H 0.50443 0.83823 0.57036 0.0
H1252 H 0.55446 0.89938 0.57875 0.0
H1253 H 0.41901 0.72866 0.63778 0.0
H1254 H 0.39058 0.70061 0.61847 0.0
H1255 H 0.45387 0.71026 0.62378 0.0
H1256 H 0.39454 0.64502 0.56902 0.0
H1257 H 0.53622 0.67072 0.59198 0.0
H1258 H 0.41273 0.77311 0.57564 0.0
H1259 H 0.37179 0.72758 0.59052 0.0
H1260 H 0.36644 0.70677 0.56977 0.0
H1261 H 0.58149 0.8056 0.60381 0.0
H1262 H 0.59291 0.7509 0.60546 0.0
H1263 H 0.54997 0.75851 0.61933 0.0
C1264 C 0.65893 0.4587 0.77729 0.0
C1265 C 0.62958 0.42431 0.78959 0.0
C1266 C 0.70519 0.46093 0.77165 0.0
C1267 C 0.72287 0.42869 0.7787 0.0
C1268 C 0.69563 0.39741 0.79208 0.0
C1269 C 0.64909 0.3952 0.79723 0.0
C1270 C 0.73244 0.49433 0.75726 0.0
C1271 C 0.71338 0.36317 0.80022 0.0
C1272 C 0.78691 0.36782 0.75349 0.0
C1273 C 0.83958 0.3972 0.75812 0.0
C1274 C 0.74933 0.37968 0.75943 0.0
C1275 C 0.76436 0.42123 0.7707 0.0
C1276 C 0.81796 0.45237 0.77499 0.0
C1277 C 0.85517 0.44031 0.76849 0.0
C1278 C 0.69302 0.34609 0.75415 0.0
C1279 C 0.83554 0.49644 0.78713 0.0
H1280 H 0.64374 0.48091 0.77123 0.0
H1281 H 0.62666 0.36885 0.80683 0.0
H1282 H 0.77546 0.51574 0.75906 0.0
H1283 H 0.72392 0.46882 0.74645 0.0
H1284 H 0.71923 0.52303 0.75482 0.0
H1285 H 0.69302 0.3477 0.81185 0.0
H1286 H 0.70512 0.32951 0.79221 0.0
H1287 H 0.75619 0.38522 0.80248 0.0
H1288 H 0.77479 0.33452 0.74544 0.0
H1289 H 0.89578 0.46267 0.77224 0.0
H1290 H 0.67671 0.37098 0.75013 0.0
H1291 H 0.66918 0.32276 0.76447 0.0
H1292 H 0.68868 0.31876 0.74417 0.0
H1293 H 0.81895 0.52195 0.78414 0.0
H1294 H 0.87884 0.5207 0.78776 0.0
H1295 H 0.82083 0.47999 0.79923 0.0
C1296 C 0.41727 0.80355 0.90894 0.0
C1297 C 0.44038 0.85539 0.91454 0.0
C1298 C 0.37225 0.76356 0.91619 0.0
C1299 C 0.34996 0.77537 0.92961 0.0
C1300 C 0.3712 0.82824 0.93469 0.0
C1301 C 0.41607 0.86775 0.92703 0.0
C1302 C 0.35066 0.70807 0.91012 0.0
C1303 C 0.34887 0.84263 0.94894 0.0
C1304 C 0.21766 0.66274 0.94262 0.0
C1305 C 0.23317 0.63698 0.9536 0.0
C1306 C 0.25487 0.70966 0.93532 0.0
C1307 C 0.30867 0.73155 0.93924 0.0
C1308 C 0.32378 0.70762 0.95125 0.0
C1309 C 0.28599 0.66058 0.95816 0.0
C1310 C 0.23698 0.73371 0.92259 0.0
C1311 C 0.38044 0.72984 0.95607 0.0
H1312 H 0.43582 0.79381 0.89924 0.0
H1313 H 0.43406 0.90765 0.93153 0.0
H1314 H 0.35822 0.68509 0.91918 0.0
H1315 H 0.30768 0.68906 0.90839 0.0
H1316 H 0.36868 0.70618 0.89854 0.0
H1317 H 0.36417 0.88547 0.94982 0.0
H1318 H 0.30555 0.8224 0.9482 0.0
H1319 H 0.35937 0.82979 0.96019 0.0
H1320 H 0.17697 0.64456 0.93894 0.0
H1321 H 0.2982 0.64105 0.96673 0.0
H1322 H 0.2486 0.72645 0.91054 0.0
H1323 H 0.25601 0.7767 0.92436 0.0
H1324 H 0.19385 0.71703 0.92265 0.0
H1325 H 0.4024 0.7252 0.94591 0.0
H1326 H 0.38505 0.71005 0.96677 0.0
H1327 H 0.39855 0.77228 0.95878 0.0
C1328 C 0.69144 0.26375 0.11433 0.0
C1329 C 0.65333 0.2115 0.11705 0.0
C1330 C 0.67769 0.30057 0.10919 0.0
C1331 C 0.62428 0.28526 0.10694 0.0
C1332 C 0.58534 0.23337 0.11057 0.0
C1333 C 0.60033 0.1969 0.11547 0.0
C1334 C 0.72067 0.3553 0.10538 0.0
C1335 C 0.52798 0.21593 0.10874 0.0
C1336 C 0.60444 0.40253 0.10182 0.0
C1337 C 0.605 0.40666 0.08497 0.0
C1338 C 0.60645 0.36071 0.10923 0.0
C1339 C 0.61033 0.32285 0.09956 0.0
C1340 C 0.6079 0.32528 0.08256 0.0
C1341 C 0.6047 0.36678 0.07549 0.0
C1342 C 0.60757 0.35885 0.12738 0.0
C1343 C 0.61277 0.28634 0.07175 0.0
H1344 H 0.73252 0.27573 0.11565 0.0
H1345 H 0.57062 0.15674 0.11765 0.0
H1346 H 0.71941 0.36305 0.09237 0.0
H1347 H 0.71482 0.38453 0.11222 0.0
H1348 H 0.76018 0.36144 0.1083 0.0
H1349 H 0.50268 0.17686 0.11407 0.0
H1350 H 0.51894 0.24463 0.11454 0.0
H1351 H 0.518 0.2139 0.09576 0.0
H1352 H 0.6043 0.43295 0.10925 0.0
H1353 H 0.60529 0.36959 0.06247 0.0
H1354 H 0.64794 0.37129 0.13153 0.0
H1355 H 0.58192 0.31839 0.13166 0.0
H1356 H 0.59493 0.38506 0.13309 0.0
H1357 H 0.65282 0.29191 0.07288 0.0
H1358 H 0.60542 0.29074 0.05888 0.0
H1359 H 0.58493 0.24579 0.07546 0.0
C1360 C 0.48646 0.61919 0.27228 0.0
C1361 C 0.50656 0.65329 0.2856 0.0
C1362 C 0.43974 0.61006 0.26455 0.0
C1363 C 0.41238 0.63536 0.27033 0.0
C1364 C 0.43085 0.66689 0.28445 0.0
C1365 C 0.47753 0.67554 0.29181 0.0
C1366 C 0.42153 0.576 0.24961 0.0
C1367 C 0.40318 0.69441 0.29125 0.0
C1368 C 0.33857 0.67982 0.24287 0.0
C1369 C 0.28612 0.64578 0.24692 0.0
C1370 C 0.37959 0.67457 0.24958 0.0
C1371 C 0.36836 0.63444 0.26082 0.0
C1372 C 0.31526 0.59789 0.26422 0.0
C1373 C 0.27474 0.60387 0.25719 0.0
C1374 C 0.43527 0.71423 0.24536 0.0
C1375 C 0.30132 0.55438 0.27604 0.0
H1376 H 0.50875 0.60213 0.26731 0.0
H1377 H 0.49257 0.70179 0.30213 0.0
H1378 H 0.37869 0.54888 0.24998 0.0
H1379 H 0.42962 0.60097 0.23886 0.0
H1380 H 0.44172 0.55281 0.2481 0.0
H1381 H 0.41931 0.71304 0.30316 0.0
H1382 H 0.40724 0.7252 0.2828 0.0
H1383 H 0.36078 0.66649 0.29259 0.0
H1384 H 0.34784 0.71212 0.23486 0.0
H1385 H 0.23444 0.57749 0.26046 0.0
H1386 H 0.45774 0.69436 0.24216 0.0
H1387 H 0.45472 0.73981 0.25598 0.0
H1388 H 0.4373 0.73928 0.23513 0.0
H1389 H 0.32443 0.5346 0.27366 0.0
H1390 H 0.25902 0.52483 0.27556 0.0
H1391 H 0.31106 0.57099 0.28844 0.0
loop_
_geom_bond_atom_site_label_1
_geom_bond_atom_site_label_2
_geom_bond_distance
_geom_bond_site_symmetry_2
_ccdc_geom_bond_type
O0 Tb1 2.506 . S
O0 C14 1.265 . S
Tb1 O0 2.506 . S
Tb1 O6 2.312 1_545 S
Tb1 O10 2.271 . S
Tb1 O12 2.338 . S
Tb1 O19 2.441 . S
C2 O10 1.252 . S
C2 O11 1.253 . S
O3 Tb4 2.271 . S
O3 C13 1.252 . S
Tb4 O3 2.271 . S
Tb4 O7 2.338 . S
Tb4 O11 2.312 1_565 S
Tb4 O15 2.441 . S
Tb4 O16 2.506 . S
C5 O15 1.244 . S
C5 O16 1.265 . S
O6 Tb1 2.312 1_565 S
O6 C13 1.253 . S
O7 Tb4 2.338 . S
O7 C8 1.258 . S
C8 O7 1.258 . S
C8 O9 1.251 . S
O9 C8 1.251 . S
O10 Tb1 2.271 . S
O10 C2 1.252 . S
O11 C2 1.253 . S
O11 Tb4 2.312 1_545 S
O12 Tb1 2.338 . S
O12 C17 1.258 . S
C13 O3 1.252 . S
C13 O6 1.253 . S
C14 O0 1.265 . S
C14 O19 1.244 . S
O15 Tb4 2.441 . S
O15 C5 1.244 . S
O16 Tb4 2.506 . S
O16 C5 1.265 . S
C17 O12 1.258 . S
C17 O18 1.251 . S
O18 C17 1.251 . S
O19 Tb1 2.441 . S
O19 C14 1.244 . S
O20 Tb21 2.506 . S
O20 C34 1.265 . S
Tb21 O20 2.506 . S
Tb21 O26 2.312 . S
Tb21 O30 2.271 . S
Tb21 O32 2.338 . S
Tb21 O39 2.441 . S
C22 O30 1.252 . S
C22 O31 1.253 . S
O23 Tb24 2.271 . S
O23 C33 1.252 . S
Tb24 O23 2.271 . S
Tb24 O27 2.338 . S
Tb24 O31 2.312 . S
Tb24 O35 2.441 . S
Tb24 O36 2.506 . S
C25 O35 1.244 . S
C25 O36 1.265 . S
O26 Tb21 2.312 . S
O26 C33 1.253 . S
O27 Tb24 2.338 . S
O27 C28 1.258 . S
C28 O27 1.258 . S
C28 O29 1.251 . S
O29 C28 1.251 . S
O30 Tb21 2.271 . S
O30 C22 1.252 . S
O31 C22 1.253 . S
O31 Tb24 2.312 . S
O32 Tb21 2.338 . S
O32 C37 1.258 . S
C33 O23 1.252 . S
C33 O26 1.253 . S
C34 O20 1.265 . S
C34 O39 1.244 . S
O35 Tb24 2.441 . S
O35 C25 1.244 . S
O36 Tb24 2.506 . S
O36 C25 1.265 . S
C37 O32 1.258 . S
C37 O38 1.251 . S
O38 C37 1.251 . S
O39 Tb21 2.441 . S
O39 C34 1.244 . S
O40 Tb41 2.506 . S
O40 C54 1.265 . S
Tb41 O40 2.506 . S
Tb41 O46 2.312 1_655 S
Tb41 O50 2.271 . S
Tb41 O52 2.338 . S
Tb41 O59 2.441 . S
C42 O50 1.252 . S
C42 O51 1.253 . S
O43 Tb44 2.271 . S
O43 C53 1.252 . S
Tb44 O43 2.271 . S
Tb44 O47 2.338 . S
Tb44 O51 2.312 1_455 S
Tb44 O55 2.441 . S
Tb44 O56 2.506 . S
C45 O55 1.244 . S
C45 O56 1.265 . S
O46 Tb41 2.312 1_455 S
O46 C53 1.253 . S
O47 Tb44 2.338 . S
O47 C48 1.258 . S
C48 O47 1.258 . S
C48 O49 1.251 . S
O49 C48 1.251 . S
O50 Tb41 2.271 . S
O50 C42 1.252 . S
O51 C42 1.253 . S
O51 Tb44 2.312 1_655 S
O52 Tb41 2.338 . S
O52 C57 1.258 . S
C53 O43 1.252 . S
C53 O46 1.253 . S
C54 O40 1.265 . S
C54 O59 1.244 . S
O55 Tb44 2.441 . S
O55 C45 1.244 . S
O56 Tb44 2.506 . S
O56 C45 1.265 . S
C57 O52 1.258 . S
C57 O58 1.251 . S
O58 C57 1.251 . S
O59 Tb41 2.441 . S
O59 C54 1.244 . S
O60 Tb61 2.506 . S
O60 C74 1.265 . S
Tb61 O60 2.506 . S
Tb61 O66 2.312 1_545 S
Tb61 O70 2.271 . S
Tb61 O72 2.338 . S
Tb61 O79 2.441 . S
C62 O70 1.252 . S
C62 O71 1.253 . S
O63 Tb64 2.271 . S
O63 C73 1.252 . S
Tb64 O63 2.271 . S
Tb64 O67 2.338 . S
Tb64 O71 2.312 1_565 S
Tb64 O75 2.441 . S
Tb64 O76 2.506 . S
C65 O75 1.244 . S
C65 O76 1.265 . S
O66 Tb61 2.312 1_565 S
O66 C73 1.253 . S
O67 Tb64 2.338 . S
O67 C68 1.258 . S
C68 O67 1.258 . S
C68 O69 1.251 . S
O69 C68 1.251 . S
O70 Tb61 2.271 . S
O70 C62 1.252 . S
O71 C62 1.253 . S
O71 Tb64 2.312 1_545 S
O72 Tb61 2.338 . S
O72 C77 1.258 . S
C73 O63 1.252 . S
C73 O66 1.253 . S
C74 O60 1.265 . S
C74 O79 1.244 . S
O75 Tb64 2.441 . S
O75 C65 1.244 . S
O76 Tb64 2.506 . S
O76 C65 1.265 . S
C77 O72 1.258 . S
C77 O78 1.251 . S
O78 C77 1.251 . S
O79 Tb61 2.441 . S
O79 C74 1.244 . S
O80 Tb81 2.506 . S
O80 C94 1.265 . S
Tb81 O80 2.506 . S
Tb81 O86 2.312 . S
Tb81 O90 2.271 . S
Tb81 O92 2.338 . S
Tb81 O99 2.441 . S
C82 O90 1.252 . S
C82 O91 1.253 . S
O83 Tb84 2.271 . S
O83 C93 1.252 . S
Tb84 O83 2.271 . S
Tb84 O87 2.338 . S
Tb84 O91 2.312 . S
Tb84 O95 2.441 . S
Tb84 O96 2.506 1_554 S
C85 O95 1.244 1_556 S
C85 O96 1.265 . S
O86 Tb81 2.312 . S
O86 C93 1.253 . S
O87 Tb84 2.338 . S
O87 C88 1.258 . S
C88 O87 1.258 . S
C88 O89 1.251 . S
O89 C88 1.251 . S
O90 Tb81 2.271 . S
O90 C82 1.252 . S
O91 C82 1.253 . S
O91 Tb84 2.312 . S
O92 Tb81 2.338 . S
O92 C97 1.258 . S
C93 O83 1.252 . S
C93 O86 1.253 . S
C94 O80 1.265 . S
C94 O99 1.244 . S
O95 Tb84 2.441 . S
O95 C85 1.244 1_554 S
O96 Tb84 2.506 1_556 S
O96 C85 1.265 . S
C97 O92 1.258 . S
C97 O98 1.251 . S
O98 C97 1.251 . S
O99 Tb81 2.441 . S
O99 C94 1.244 . S
O100 Tb101 2.506 . S
O100 C114 1.265 . S
Tb101 O100 2.506 . S
Tb101 O106 2.312 1_655 S
Tb101 O110 2.271 . S
Tb101 O112 2.338 . S
Tb101 O119 2.441 . S
C102 O110 1.252 . S
C102 O111 1.253 . S
O103 Tb104 2.271 . S
O103 C113 1.252 . S
Tb104 O103 2.271 . S
Tb104 O107 2.338 . S
Tb104 O111 2.312 1_455 S
Tb104 O115 2.441 . S
Tb104 O116 2.506 . S
C105 O115 1.244 . S
C105 O116 1.265 . S
O106 Tb101 2.312 1_455 S
O106 C113 1.253 . S
O107 Tb104 2.338 . S
O107 C108 1.258 . S
C108 O107 1.258 . S
C108 O109 1.251 . S
O109 C108 1.251 . S
O110 Tb101 2.271 . S
O110 C102 1.252 . S
O111 C102 1.253 . S
O111 Tb104 2.312 1_655 S
O112 Tb101 2.338 . S
O112 C117 1.258 . S
C113 O103 1.252 . S
C113 O106 1.253 . S
C114 O100 1.265 . S
C114 O119 1.244 . S
O115 Tb104 2.441 . S
O115 C105 1.244 . S
O116 Tb104 2.506 . S
O116 C105 1.265 . S
C117 O112 1.258 . S
C117 O118 1.251 . S
O118 C117 1.251 . S
O119 Tb101 2.441 . S
O119 C114 1.244 . S
O120 Tb121 2.506 . S
O120 C134 1.265 . S
Tb121 O120 2.506 . S
Tb121 O126 2.312 1_655 S
Tb121 O130 2.271 . S
Tb121 O132 2.338 . S
Tb121 O139 2.441 . S
C122 O130 1.252 . S
C122 O131 1.253 . S
O123 Tb124 2.271 . S
O123 C133 1.252 . S
Tb124 O123 2.271 . S
Tb124 O127 2.338 . S
Tb124 O131 2.312 1_455 S
Tb124 O135 2.441 . S
Tb124 O136 2.506 . S
C125 O135 1.244 . S
C125 O136 1.265 . S
O126 Tb121 2.312 1_455 S
O126 C133 1.253 . S
O127 Tb124 2.338 . S
O127 C128 1.258 . S
C128 O127 1.258 . S
C128 O129 1.251 . S
O129 C128 1.251 . S
O130 Tb121 2.271 . S
O130 C122 1.252 . S
O131 C122 1.253 . S
O131 Tb124 2.312 1_655 S
O132 Tb121 2.338 . S
O132 C137 1.258 . S
C133 O123 1.252 . S
C133 O126 1.253 . S
C134 O120 1.265 . S
C134 O139 1.244 . S
O135 Tb124 2.441 . S
O135 C125 1.244 . S
O136 Tb124 2.506 . S
O136 C125 1.265 . S
C137 O132 1.258 . S
C137 O138 1.251 . S
O138 C137 1.251 . S
O139 Tb121 2.441 . S
O139 C134 1.244 . S
O140 Tb141 2.506 . S
O140 C154 1.265 . S
Tb141 O140 2.506 . S
Tb141 O146 2.312 1_545 S
Tb141 O150 2.271 . S
Tb141 O152 2.338 . S
Tb141 O159 2.441 . S
C142 O150 1.252 . S
C142 O151 1.253 . S
O143 Tb144 2.271 . S
O143 C153 1.252 . S
Tb144 O143 2.271 . S
Tb144 O147 2.338 . S
Tb144 O151 2.312 1_565 S
Tb144 O155 2.441 . S
Tb144 O156 2.506 . S
C145 O155 1.244 . S
C145 O156 1.265 . S
O146 Tb141 2.312 1_565 S
O146 C153 1.253 . S
O147 Tb144 2.338 . S
O147 C148 1.258 . S
C148 O147 1.258 . S
C148 O149 1.251 . S
O149 C148 1.251 . S
O150 Tb141 2.271 . S
O150 C142 1.252 . S
O151 C142 1.253 . S
O151 Tb144 2.312 1_545 S
O152 Tb141 2.338 . S
O152 C157 1.258 . S
C153 O143 1.252 . S
C153 O146 1.253 . S
C154 O140 1.265 . S
C154 O159 1.244 . S
O155 Tb144 2.441 . S
O155 C145 1.244 . S
O156 Tb144 2.506 . S
O156 C145 1.265 . S
C157 O152 1.258 . S
C157 O158 1.251 . S
O158 C157 1.251 . S
O159 Tb141 2.441 . S
O159 C154 1.244 . S
O160 Tb161 2.506 . S
O160 C174 1.265 . S
Tb161 O160 2.506 . S
Tb161 O166 2.312 . S
Tb161 O170 2.271 . S
Tb161 O172 2.338 . S
Tb161 O179 2.441 . S
C162 O170 1.252 . S
C162 O171 1.253 . S
O163 Tb164 2.271 . S
O163 C173 1.252 . S
Tb164 O163 2.271 . S
Tb164 O167 2.338 . S
Tb164 O171 2.312 . S
Tb164 O175 2.441 . S
Tb164 O176 2.506 . S
C165 O175 1.244 . S
C165 O176 1.265 . S
O166 Tb161 2.312 . S
O166 C173 1.253 . S
O167 Tb164 2.338 . S
O167 C168 1.258 . S
C168 O167 1.258 . S
C168 O169 1.251 . S
O169 C168 1.251 . S
O170 Tb161 2.271 . S
O170 C162 1.252 . S
O171 C162 1.253 . S
O171 Tb164 2.312 . S
O172 Tb161 2.338 . S
O172 C177 1.258 . S
C173 O163 1.252 . S
C173 O166 1.253 . S
C174 O160 1.265 . S
C174 O179 1.244 . S
O175 Tb164 2.441 . S
O175 C165 1.244 . S
O176 Tb164 2.506 . S
O176 C165 1.265 . S
C177 O172 1.258 . S
C177 O178 1.251 . S
O178 C177 1.251 . S
O179 Tb161 2.441 . S
O179 C174 1.244 . S
O180 Tb181 2.506 1_554 S
O180 C194 1.265 . S
Tb181 O180 2.506 1_556 S
Tb181 O186 2.312 1_655 S
Tb181 O190 2.271 . S
Tb181 O192 2.338 . S
Tb181 O199 2.441 . S
C182 O190 1.252 . S
C182 O191 1.253 . S
O183 Tb184 2.271 . S
O183 C193 1.252 . S
Tb184 O183 2.271 . S
Tb184 O187 2.338 . S
Tb184 O191 2.312 1_455 S
Tb184 O195 2.441 . S
Tb184 O196 2.506 . S
C185 O195 1.244 . S
C185 O196 1.265 . S
O186 Tb181 2.312 1_455 S
O186 C193 1.253 . S
O187 Tb184 2.338 . S
O187 C188 1.258 . S
C188 O187 1.258 . S
C188 O189 1.251 . S
O189 C188 1.251 . S
O190 Tb181 2.271 . S
O190 C182 1.252 . S
O191 C182 1.253 . S
O191 Tb184 2.312 1_655 S
O192 Tb181 2.338 . S
O192 C197 1.258 . S
C193 O183 1.252 . S
C193 O186 1.253 . S
C194 O180 1.265 . S
C194 O199 1.244 1_554 S
O195 Tb184 2.441 . S
O195 C185 1.244 . S
O196 Tb184 2.506 . S
O196 C185 1.265 . S
C197 O192 1.258 . S
C197 O198 1.251 . S
O198 C197 1.251 . S
O199 Tb181 2.441 . S
O199 C194 1.244 1_556 S
O200 Tb201 2.506 . S
O200 C214 1.265 . S
Tb201 O200 2.506 . S
Tb201 O206 2.312 1_545 S
Tb201 O210 2.271 . S
Tb201 O212 2.338 . S
Tb201 O219 2.441 . S
C202 O210 1.252 . S
C202 O211 1.253 . S
O203 Tb204 2.271 . S
O203 C213 1.252 . S
Tb204 O203 2.271 . S
Tb204 O207 2.338 . S
Tb204 O211 2.312 1_565 S
Tb204 O215 2.441 . S
Tb204 O216 2.506 . S
C205 O215 1.244 . S
C205 O216 1.265 . S
O206 Tb201 2.312 1_565 S
O206 C213 1.253 . S
O207 Tb204 2.338 . S
O207 C208 1.258 . S
C208 O207 1.258 . S
C208 O209 1.251 . S
O209 C208 1.251 . S
O210 Tb201 2.271 . S
O210 C202 1.252 . S
O211 C202 1.253 . S
O211 Tb204 2.312 1_545 S
O212 Tb201 2.338 . S
O212 C217 1.258 . S
C213 O203 1.252 . S
C213 O206 1.253 . S
C214 O200 1.265 . S
C214 O219 1.244 . S
O215 Tb204 2.441 . S
O215 C205 1.244 . S
O216 Tb204 2.506 . S
O216 C205 1.265 . S
C217 O212 1.258 . S
C217 O218 1.251 . S
O218 C217 1.251 . S
O219 Tb201 2.441 . S
O219 C214 1.244 . S
O220 Tb221 2.506 . S
O220 C234 1.265 . S
Tb221 O220 2.506 . S
Tb221 O226 2.312 . S
Tb221 O230 2.271 . S
Tb221 O232 2.338 . S
Tb221 O239 2.441 . S
C222 O230 1.252 . S
C222 O231 1.253 . S
O223 Tb224 2.271 . S
O223 C233 1.252 . S
Tb224 O223 2.271 . S
Tb224 O227 2.338 . S
Tb224 O231 2.312 . S
Tb224 O235 2.441 . S
Tb224 O236 2.506 . S
C225 O235 1.244 . S
C225 O236 1.265 . S
O226 Tb221 2.312 . S
O226 C233 1.253 . S
O227 Tb224 2.338 . S
O227 C228 1.258 . S
C228 O227 1.258 . S
C228 O229 1.251 . S
O229 C228 1.251 . S
O230 Tb221 2.271 . S
O230 C222 1.252 . S
O231 C222 1.253 . S
O231 Tb224 2.312 . S
O232 Tb221 2.338 . S
O232 C237 1.258 . S
C233 O223 1.252 . S
C233 O226 1.253 . S
C234 O220 1.265 . S
C234 O239 1.244 . S
O235 Tb224 2.441 . S
O235 C225 1.244 . S
O236 Tb224 2.506 . S
O236 C225 1.265 . S
C237 O232 1.258 . S
C237 O238 1.251 . S
O238 C237 1.251 . S
O239 Tb221 2.441 . S
O239 C234 1.244 . S
C240 C241 1.391 . S
C240 C242 1.394 . S
C240 H256 0.931 . S
C241 C240 1.391 . S
C241 C245 1.376 . S
C242 C240 1.394 . S
C242 C243 1.369 . S
C242 C246 1.531 . S
C243 C242 1.369 . S
C243 C244 1.410 . S
C243 C251 1.503 . S
C244 C243 1.410 . S
C244 C245 1.392 . S
C244 C247 1.511 . S
C245 C241 1.376 . S
C245 C244 1.392 . S
C245 H257 0.929 . S
C246 C242 1.531 . S
C246 H258 0.960 . S
C246 H259 0.962 . S
C246 H260 0.960 . S
C247 C244 1.511 . S
C247 H261 0.961 . S
C247 H262 0.961 . S
C247 H263 0.961 . S
C248 C249 1.370 . S
C248 C250 1.363 . S
C248 H264 0.931 . S
C249 C248 1.370 . S
C249 C253 1.408 . S
C250 C248 1.363 . S
C250 C251 1.370 . S
C250 C254 1.524 . S
C251 C243 1.503 . S
C251 C250 1.370 . S
C251 C252 1.403 . S
C252 C251 1.403 . S
C252 C253 1.404 . S
C252 C255 1.539 . S
C253 C249 1.408 . S
C253 C252 1.404 . S
C253 H265 0.930 . S
C254 C250 1.524 . S
C254 H266 0.956 . S
C254 H267 0.961 . S
C254 H268 0.961 . S
C255 C252 1.539 . S
C255 H269 0.958 . S
C255 H270 0.961 . S
C255 H271 0.960 . S
H256 C240 0.931 . S
H257 C245 0.929 . S
H258 C246 0.960 . S
H259 C246 0.962 . S
H260 C246 0.960 . S
H261 C247 0.961 . S
H262 C247 0.961 . S
H263 C247 0.961 . S
H264 C248 0.931 . S
H265 C253 0.930 . S
H266 C254 0.956 . S
H267 C254 0.961 . S
H268 C254 0.961 . S
H269 C255 0.958 . S
H270 C255 0.961 . S
H271 C255 0.960 . S
C272 C273 1.391 . S
C272 C274 1.394 . S
C272 H288 0.931 . S
C273 C272 1.391 . S
C273 C277 1.376 . S
C274 C272 1.394 . S
C274 C275 1.369 . S
C274 C278 1.531 . S
C275 C274 1.369 . S
C275 C276 1.410 . S
C275 C283 1.503 . S
C276 C275 1.410 . S
C276 C277 1.392 . S
C276 C279 1.511 . S
C277 C273 1.376 . S
C277 C276 1.392 . S
C277 H289 0.929 . S
C278 C274 1.531 . S
C278 H290 0.960 . S
C278 H291 0.962 . S
C278 H292 0.960 . S
C279 C276 1.511 . S
C279 H293 0.961 . S
C279 H294 0.961 . S
C279 H295 0.961 . S
C280 C281 1.370 . S
C280 C282 1.363 . S
C280 H296 0.931 . S
C281 C280 1.370 . S
C281 C285 1.408 . S
C282 C280 1.363 . S
C282 C283 1.370 . S
C282 C286 1.524 . S
C283 C275 1.503 . S
C283 C282 1.370 . S
C283 C284 1.403 . S
C284 C283 1.403 . S
C284 C285 1.404 . S
C284 C287 1.539 . S
C285 C281 1.408 . S
C285 C284 1.404 . S
C285 H297 0.930 . S
C286 C282 1.524 . S
C286 H298 0.956 . S
C286 H299 0.961 . S
C286 H300 0.961 . S
C287 C284 1.539 . S
C287 H301 0.958 . S
C287 H302 0.961 . S
C287 H303 0.960 . S
H288 C272 0.931 . S
H289 C277 0.929 . S
H290 C278 0.960 . S
H291 C278 0.962 . S
H292 C278 0.960 . S
H293 C279 0.961 . S
H294 C279 0.961 . S
H295 C279 0.961 . S
H296 C280 0.931 . S
H297 C285 0.930 . S
H298 C286 0.956 . S
H299 C286 0.961 . S
H300 C286 0.961 . S
H301 C287 0.958 . S
H302 C287 0.961 . S
H303 C287 0.960 . S
C304 C305 1.391 . S
C304 C306 1.394 . S
C304 H320 0.931 . S
C305 C304 1.391 . S
C305 C309 1.376 . S
C306 C304 1.394 . S
C306 C307 1.369 . S
C306 C310 1.531 . S
C307 C306 1.369 . S
C307 C308 1.410 . S
C307 C315 1.503 . S
C308 C307 1.410 . S
C308 C309 1.392 . S
C308 C311 1.511 . S
C309 C305 1.376 . S
C309 C308 1.392 . S
C309 H321 0.929 . S
C310 C306 1.531 . S
C310 H322 0.960 . S
C310 H323 0.962 . S
C310 H324 0.960 . S
C311 C308 1.511 . S
C311 H325 0.961 . S
C311 H326 0.961 . S
C311 H327 0.961 . S
C312 C313 1.370 . S
C312 C314 1.363 . S
C312 H328 0.931 . S
C313 C312 1.370 . S
C313 C317 1.408 . S
C314 C312 1.363 . S
C314 C315 1.370 . S
C314 C318 1.524 . S
C315 C307 1.503 . S
C315 C314 1.370 . S
C315 C316 1.403 . S
C316 C315 1.403 . S
C316 C317 1.404 . S
C316 C319 1.539 . S
C317 C313 1.408 . S
C317 C316 1.404 . S
C317 H329 0.930 . S
C318 C314 1.524 . S
C318 H330 0.956 . S
C318 H331 0.961 . S
C318 H332 0.961 . S
C319 C316 1.539 . S
C319 H333 0.958 . S
C319 H334 0.961 . S
C319 H335 0.960 . S
H320 C304 0.931 . S
H321 C309 0.929 . S
H322 C310 0.960 . S
H323 C310 0.962 . S
H324 C310 0.960 . S
H325 C311 0.961 . S
H326 C311 0.961 . S
H327 C311 0.961 . S
H328 C312 0.931 . S
H329 C317 0.930 . S
H330 C318 0.956 . S
H331 C318 0.961 . S
H332 C318 0.961 . S
H333 C319 0.958 . S
H334 C319 0.961 . S
H335 C319 0.960 . S
C336 C337 1.391 . S
C336 C338 1.394 . S
C336 H352 0.931 . S
C337 C336 1.391 . S
C337 C341 1.376 . S
C338 C336 1.394 . S
C338 C339 1.369 . S
C338 C342 1.531 . S
C339 C338 1.369 . S
C339 C340 1.410 . S
C339 C347 1.503 . S
C340 C339 1.410 . S
C340 C341 1.392 . S
C340 C343 1.511 . S
C341 C337 1.376 . S
C341 C340 1.392 . S
C341 H353 0.929 . S
C342 C338 1.531 . S
C342 H354 0.960 . S
C342 H355 0.962 . S
C342 H356 0.960 . S
C343 C340 1.511 . S
C343 H357 0.961 . S
C343 H358 0.961 . S
C343 H359 0.961 . S
C344 C345 1.370 . S
C344 C346 1.363 . S
C344 H360 0.931 . S
C345 C344 1.370 . S
C345 C349 1.408 . S
C346 C344 1.363 . S
C346 C347 1.370 . S
C346 C350 1.524 . S
C347 C339 1.503 . S
C347 C346 1.370 . S
C347 C348 1.403 . S
C348 C347 1.403 . S
C348 C349 1.404 . S
C348 C351 1.539 . S
C349 C345 1.408 . S
C349 C348 1.404 . S
C349 H361 0.930 . S
C350 C346 1.524 . S
C350 H362 0.956 . S
C350 H363 0.961 . S
C350 H364 0.961 . S
C351 C348 1.539 . S
C351 H365 0.958 . S
C351 H366 0.961 . S
C351 H367 0.960 . S
H352 C336 0.931 . S
H353 C341 0.929 . S
H354 C342 0.960 . S
H355 C342 0.962 . S
H356 C342 0.960 . S
H357 C343 0.961 . S
H358 C343 0.961 . S
H359 C343 0.961 . S
H360 C344 0.931 . S
H361 C349 0.930 . S
H362 C350 0.956 . S
H363 C350 0.961 . S
H364 C350 0.961 . S
H365 C351 0.958 . S
H366 C351 0.961 . S
H367 C351 0.960 . S
C368 C369 1.391 . S
C368 C370 1.394 . S
C368 H384 0.931 . S
C369 C368 1.391 . S
C369 C373 1.376 . S
C370 C368 1.394 . S
C370 C371 1.369 . S
C370 C374 1.531 . S
C371 C370 1.369 . S
C371 C372 1.410 . S
C371 C379 1.503 . S
C372 C371 1.410 . S
C372 C373 1.392 . S
C372 C375 1.511 . S
C373 C369 1.376 . S
C373 C372 1.392 . S
C373 H385 0.929 . S
C374 C370 1.531 . S
C374 H386 0.960 . S
C374 H387 0.962 . S
C374 H388 0.960 . S
C375 C372 1.511 . S
C375 H389 0.961 . S
C375 H390 0.961 . S
C375 H391 0.961 . S
C376 C377 1.370 . S
C376 C378 1.363 . S
C376 H392 0.931 . S
C377 C376 1.370 . S
C377 C381 1.408 . S
C378 C376 1.363 . S
C378 C379 1.370 . S
C378 C382 1.524 . S
C379 C371 1.503 . S
C379 C378 1.370 . S
C379 C380 1.403 . S
C380 C379 1.403 . S
C380 C381 1.404 . S
C380 C383 1.539 . S
C381 C377 1.408 . S
C381 C380 1.404 . S
C381 H393 0.930 1_556 S
C382 C378 1.524 . S
C382 H394 0.956 . S
C382 H395 0.961 . S
C382 H396 0.961 . S
C383 C380 1.539 . S
C383 H397 0.958 . S
C383 H398 0.961 . S
C383 H399 0.960 . S
H384 C368 0.931 . S
H385 C373 0.929 . S
H386 C374 0.960 . S
H387 C374 0.962 . S
H388 C374 0.960 . S
H389 C375 0.961 . S
H390 C375 0.961 . S
H391 C375 0.961 . S
H392 C376 0.931 . S
H393 C381 0.930 1_554 S
H394 C382 0.956 . S
H395 C382 0.961 . S
H396 C382 0.961 . S
H397 C383 0.958 . S
H398 C383 0.961 . S
H399 C383 0.960 . S
C400 C401 1.391 . S
C400 C402 1.394 . S
C400 H416 0.931 . S
C401 C400 1.391 . S
C401 C405 1.376 . S
C402 C400 1.394 . S
C402 C403 1.369 . S
C402 C406 1.531 . S
C403 C402 1.369 . S
C403 C404 1.410 . S
C403 C411 1.503 . S
C404 C403 1.410 . S
C404 C405 1.392 . S
C404 C407 1.511 . S
C405 C401 1.376 . S
C405 C404 1.392 . S
C405 H417 0.929 . S
C406 C402 1.531 . S
C406 H418 0.960 . S
C406 H419 0.962 . S
C406 H420 0.960 . S
C407 C404 1.511 . S
C407 H421 0.961 . S
C407 H422 0.961 . S
C407 H423 0.961 . S
C408 C409 1.370 . S
C408 C410 1.363 . S
C408 H424 0.931 . S
C409 C408 1.370 . S
C409 C413 1.408 . S
C410 C408 1.363 . S
C410 C411 1.370 . S
C410 C414 1.524 . S
C411 C403 1.503 . S
C411 C410 1.370 . S
C411 C412 1.403 . S
C412 C411 1.403 . S
C412 C413 1.404 . S
C412 C415 1.539 . S
C413 C409 1.408 . S
C413 C412 1.404 . S
C413 H425 0.930 . S
C414 C410 1.524 . S
C414 H426 0.956 . S
C414 H427 0.961 . S
C414 H428 0.961 . S
C415 C412 1.539 . S
C415 H429 0.958 . S
C415 H430 0.961 . S
C415 H431 0.960 . S
H416 C400 0.931 . S
H417 C405 0.929 . S
H418 C406 0.960 . S
H419 C406 0.962 . S
H420 C406 0.960 . S
H421 C407 0.961 . S
H422 C407 0.961 . S
H423 C407 0.961 . S
H424 C408 0.931 . S
H425 C413 0.930 . S
H426 C414 0.956 . S
H427 C414 0.961 . S
H428 C414 0.961 . S
H429 C415 0.958 . S
H430 C415 0.961 . S
H431 C415 0.960 . S
C432 C433 1.391 . S
C432 C434 1.394 . S
C432 H448 0.931 . S
C433 C432 1.391 . S
C433 C437 1.376 . S
C434 C432 1.394 . S
C434 C435 1.369 . S
C434 C438 1.531 . S
C435 C434 1.369 . S
C435 C436 1.410 . S
C435 C443 1.503 . S
C436 C435 1.410 . S
C436 C437 1.392 . S
C436 C439 1.511 . S
C437 C433 1.376 . S
C437 C436 1.392 . S
C437 H449 0.929 . S
C438 C434 1.531 . S
C438 H450 0.960 . S
C438 H451 0.962 . S
C438 H452 0.960 . S
C439 C436 1.511 . S
C439 H453 0.961 . S
C439 H454 0.961 . S
C439 H455 0.961 . S
C440 C441 1.370 . S
C440 C442 1.363 . S
C440 H456 0.931 . S
C441 C440 1.370 . S
C441 C445 1.408 . S
C442 C440 1.363 . S
C442 C443 1.370 . S
C442 C446 1.524 . S
C443 C435 1.503 . S
C443 C442 1.370 . S
C443 C444 1.403 . S
C444 C443 1.403 . S
C444 C445 1.404 . S
C444 C447 1.539 . S
C445 C441 1.408 . S
C445 C444 1.404 . S
C445 H457 0.930 . S
C446 C442 1.524 . S
C446 H458 0.956 . S
C446 H459 0.961 . S
C446 H460 0.961 . S
C447 C444 1.539 . S
C447 H461 0.958 . S
C447 H462 0.961 . S
C447 H463 0.960 . S
H448 C432 0.931 . S
H449 C437 0.929 . S
H450 C438 0.960 . S
H451 C438 0.962 . S
H452 C438 0.960 . S
H453 C439 0.961 . S
H454 C439 0.961 . S
H455 C439 0.961 . S
H456 C440 0.931 . S
H457 C445 0.930 . S
H458 C446 0.956 . S
H459 C446 0.961 . S
H460 C446 0.961 . S
H461 C447 0.958 . S
H462 C447 0.961 . S
H463 C447 0.960 . S
C464 C465 1.391 . S
C464 C466 1.394 . S
C464 H480 0.931 . S
C465 C464 1.391 . S
C465 C469 1.376 . S
C466 C464 1.394 . S
C466 C467 1.369 . S
C466 C470 1.531 . S
C467 C466 1.369 . S
C467 C468 1.410 . S
C467 C475 1.503 . S
C468 C467 1.410 . S
C468 C469 1.392 . S
C468 C471 1.511 . S
C469 C465 1.376 . S
C469 C468 1.392 . S
C469 H481 0.929 . S
C470 C466 1.531 . S
C470 H482 0.960 . S
C470 H483 0.962 . S
C470 H484 0.960 . S
C471 C468 1.511 . S
C471 H485 0.961 . S
C471 H486 0.961 . S
C471 H487 0.961 . S
C472 C473 1.370 . S
C472 C474 1.363 . S
C472 H488 0.931 . S
C473 C472 1.370 . S
C473 C477 1.408 . S
C474 C472 1.363 . S
C474 C475 1.370 . S
C474 C478 1.524 . S
C475 C467 1.503 . S
C475 C474 1.370 . S
C475 C476 1.403 . S
C476 C475 1.403 . S
C476 C477 1.404 . S
C476 C479 1.539 . S
C477 C473 1.408 . S
C477 C476 1.404 . S
C477 H489 0.930 . S
C478 C474 1.524 . S
C478 H490 0.956 . S
C478 H491 0.961 . S
C478 H492 0.961 . S
C479 C476 1.539 . S
C479 H493 0.958 . S
C479 H494 0.961 . S
C479 H495 0.960 . S
H480 C464 0.931 . S
H481 C469 0.929 . S
H482 C470 0.960 . S
H483 C470 0.962 . S
H484 C470 0.960 . S
H485 C471 0.961 . S
H486 C471 0.961 . S
H487 C471 0.961 . S
H488 C472 0.931 . S
H489 C477 0.930 . S
H490 C478 0.956 . S
H491 C478 0.961 . S
H492 C478 0.961 . S
H493 C479 0.958 . S
H494 C479 0.961 . S
H495 C479 0.960 . S
C496 C497 1.391 . S
C496 C498 1.394 . S
C496 H512 0.931 . S
C497 C496 1.391 . S
C497 C501 1.376 . S
C498 C496 1.394 . S
C498 C499 1.369 . S
C498 C502 1.531 . S
C499 C498 1.369 . S
C499 C500 1.410 . S
C499 C507 1.503 . S
C500 C499 1.410 . S
C500 C501 1.392 . S
C500 C503 1.511 . S
C501 C497 1.376 . S
C501 C500 1.392 . S
C501 H513 0.929 . S
C502 C498 1.531 . S
C502 H514 0.960 . S
C502 H515 0.962 . S
C502 H516 0.960 . S
C503 C500 1.511 . S
C503 H517 0.961 . S
C503 H518 0.961 . S
C503 H519 0.961 . S
C504 C505 1.370 . S
C504 C506 1.363 . S
C504 H520 0.931 . S
C505 C504 1.370 . S
C505 C509 1.408 . S
C506 C504 1.363 . S
C506 C507 1.370 . S
C506 C510 1.524 . S
C507 C499 1.503 . S
C507 C506 1.370 . S
C507 C508 1.403 . S
C508 C507 1.403 . S
C508 C509 1.404 . S
C508 C511 1.539 . S
C509 C505 1.408 . S
C509 C508 1.404 . S
C509 H521 0.930 . S
C510 C506 1.524 . S
C510 H522 0.956 . S
C510 H523 0.961 . S
C510 H524 0.961 . S
C511 C508 1.539 . S
C511 H525 0.958 . S
C511 H526 0.961 . S
C511 H527 0.960 . S
H512 C496 0.931 . S
H513 C501 0.929 . S
H514 C502 0.960 . S
H515 C502 0.962 . S
H516 C502 0.960 . S
H517 C503 0.961 . S
H518 C503 0.961 . S
H519 C503 0.961 . S
H520 C504 0.931 . S
H521 C509 0.930 . S
H522 C510 0.956 . S
H523 C510 0.961 . S
H524 C510 0.961 . S
H525 C511 0.958 . S
H526 C511 0.961 . S
H527 C511 0.960 . S
C528 C529 1.391 . S
C528 C530 1.394 . S
C528 H544 0.931 . S
C529 C528 1.391 . S
C529 C533 1.376 . S
C530 C528 1.394 . S
C530 C531 1.369 . S
C530 C534 1.531 . S
C531 C530 1.369 . S
C531 C532 1.410 . S
C531 C539 1.503 . S
C532 C531 1.410 . S
C532 C533 1.392 . S
C532 C535 1.511 . S
C533 C529 1.376 . S
C533 C532 1.392 . S
C533 H545 0.929 . S
C534 C530 1.531 . S
C534 H546 0.960 . S
C534 H547 0.962 . S
C534 H548 0.960 . S
C535 C532 1.511 . S
C535 H549 0.961 . S
C535 H550 0.961 . S
C535 H551 0.961 . S
C536 C537 1.370 . S
C536 C538 1.363 . S
C536 H552 0.931 . S
C537 C536 1.370 . S
C537 C541 1.408 . S
C538 C536 1.363 . S
C538 C539 1.370 . S
C538 C542 1.524 . S
C539 C531 1.503 . S
C539 C538 1.370 . S
C539 C540 1.403 . S
C540 C539 1.403 . S
C540 C541 1.404 . S
C540 C543 1.539 . S
C541 C537 1.408 . S
C541 C540 1.404 . S
C541 H553 0.930 1_554 S
C542 C538 1.524 . S
C542 H554 0.956 . S
C542 H555 0.961 . S
C542 H556 0.961 . S
C543 C540 1.539 . S
C543 H557 0.958 . S
C543 H558 0.961 . S
C543 H559 0.960 . S
H544 C528 0.931 . S
H545 C533 0.929 . S
H546 C534 0.960 . S
H547 C534 0.962 . S
H548 C534 0.960 . S
H549 C535 0.961 . S
H550 C535 0.961 . S
H551 C535 0.961 . S
H552 C536 0.931 . S
H553 C541 0.930 1_556 S
H554 C542 0.956 . S
H555 C542 0.961 . S
H556 C542 0.961 . S
H557 C543 0.958 . S
H558 C543 0.961 . S
H559 C543 0.960 . S
C560 C561 1.391 . S
C560 C562 1.394 . S
C560 H576 0.931 . S
C561 C560 1.391 . S
C561 C565 1.376 . S
C562 C560 1.394 . S
C562 C563 1.369 . S
C562 C566 1.531 . S
C563 C562 1.369 . S
C563 C564 1.410 . S
C563 C571 1.503 . S
C564 C563 1.410 . S
C564 C565 1.392 . S
C564 C567 1.511 . S
C565 C561 1.376 . S
C565 C564 1.392 . S
C565 H577 0.929 . S
C566 C562 1.531 . S
C566 H578 0.960 . S
C566 H579 0.962 . S
C566 H580 0.960 . S
C567 C564 1.511 . S
C567 H581 0.961 . S
C567 H582 0.961 . S
C567 H583 0.961 . S
C568 C569 1.370 . S
C568 C570 1.363 . S
C568 H584 0.931 . S
C569 C568 1.370 . S
C569 C573 1.408 . S
C570 C568 1.363 . S
C570 C571 1.370 . S
C570 C574 1.524 . S
C571 C563 1.503 . S
C571 C570 1.370 . S
C571 C572 1.403 . S
C572 C571 1.403 . S
C572 C573 1.404 . S
C572 C575 1.539 . S
C573 C569 1.408 . S
C573 C572 1.404 . S
C573 H585 0.930 . S
C574 C570 1.524 . S
C574 H586 0.956 . S
C574 H587 0.961 . S
C574 H588 0.961 . S
C575 C572 1.539 . S
C575 H589 0.958 . S
C575 H590 0.961 . S
C575 H591 0.960 . S
H576 C560 0.931 . S
H577 C565 0.929 . S
H578 C566 0.960 . S
H579 C566 0.962 . S
H580 C566 0.960 . S
H581 C567 0.961 . S
H582 C567 0.961 . S
H583 C567 0.961 . S
H584 C568 0.931 . S
H585 C573 0.930 . S
H586 C574 0.956 . S
H587 C574 0.961 . S
H588 C574 0.961 . S
H589 C575 0.958 . S
H590 C575 0.961 . S
H591 C575 0.960 . S
C592 C593 1.391 . S
C592 C594 1.394 . S
C592 H608 0.931 . S
C593 C592 1.391 . S
C593 C597 1.376 . S
C594 C592 1.394 . S
C594 C595 1.369 . S
C594 C598 1.531 . S
C595 C594 1.369 . S
C595 C596 1.410 . S
C595 C603 1.503 . S
C596 C595 1.410 . S
C596 C597 1.392 . S
C596 C599 1.511 . S
C597 C593 1.376 . S
C597 C596 1.392 . S
C597 H609 0.929 . S
C598 C594 1.531 . S
C598 H610 0.960 . S
C598 H611 0.962 . S
C598 H612 0.960 . S
C599 C596 1.511 . S
C599 H613 0.961 . S
C599 H614 0.961 . S
C599 H615 0.961 . S
C600 C601 1.370 . S
C600 C602 1.363 . S
C600 H616 0.931 . S
C601 C600 1.370 . S
C601 C605 1.408 . S
C602 C600 1.363 . S
C602 C603 1.370 . S
C602 C606 1.524 . S
C603 C595 1.503 . S
C603 C602 1.370 . S
C603 C604 1.403 . S
C604 C603 1.403 . S
C604 C605 1.404 . S
C604 C607 1.539 . S
C605 C601 1.408 . S
C605 C604 1.404 . S
C605 H617 0.930 . S
C606 C602 1.524 . S
C606 H618 0.956 . S
C606 H619 0.961 . S
C606 H620 0.961 . S
C607 C604 1.539 . S
C607 H621 0.958 . S
C607 H622 0.961 . S
C607 H623 0.960 . S
H608 C592 0.931 . S
H609 C597 0.929 . S
H610 C598 0.960 . S
H611 C598 0.962 . S
H612 C598 0.960 . S
H613 C599 0.961 . S
H614 C599 0.961 . S
H615 C599 0.961 . S
H616 C600 0.931 . S
H617 C605 0.930 . S
H618 C606 0.956 . S
H619 C606 0.961 . S
H620 C606 0.961 . S
H621 C607 0.958 . S
H622 C607 0.961 . S
H623 C607 0.960 . S
C624 C625 1.391 . S
C624 C626 1.394 . S
C624 H640 0.931 . S
C625 C624 1.391 . S
C625 C629 1.376 . S
C626 C624 1.394 . S
C626 C627 1.369 . S
C626 C630 1.531 . S
C627 C626 1.369 . S
C627 C628 1.410 . S
C627 C635 1.503 . S
C628 C627 1.410 . S
C628 C629 1.392 . S
C628 C631 1.511 . S
C629 C625 1.376 . S
C629 C628 1.392 . S
C629 H641 0.929 . S
C630 C626 1.531 . S
C630 H642 0.960 . S
C630 H643 0.962 . S
C630 H644 0.960 . S
C631 C628 1.511 . S
C631 H645 0.961 . S
C631 H646 0.961 . S
C631 H647 0.961 . S
C632 C633 1.370 . S
C632 C634 1.363 . S
C632 H648 0.931 . S
C633 C632 1.370 . S
C633 C637 1.408 . S
C634 C632 1.363 . S
C634 C635 1.370 . S
C634 C638 1.524 . S
C635 C627 1.503 . S
C635 C634 1.370 . S
C635 C636 1.403 . S
C636 C635 1.403 . S
C636 C637 1.404 . S
C636 C639 1.539 . S
C637 C633 1.408 . S
C637 C636 1.404 . S
C637 H649 0.930 . S
C638 C634 1.524 . S
C638 H650 0.956 . S
C638 H651 0.961 . S
C638 H652 0.961 . S
C639 C636 1.539 . S
C639 H653 0.958 . S
C639 H654 0.961 . S
C639 H655 0.960 . S
H640 C624 0.931 . S
H641 C629 0.929 . S
H642 C630 0.960 . S
H643 C630 0.962 . S
H644 C630 0.960 . S
H645 C631 0.961 . S
H646 C631 0.961 . S
H647 C631 0.961 . S
H648 C632 0.931 . S
H649 C637 0.930 . S
H650 C638 0.956 . S
H651 C638 0.961 . S
H652 C638 0.961 . S
H653 C639 0.958 . S
H654 C639 0.961 . S
H655 C639 0.960 . S
C656 C657 1.391 . S
C656 C658 1.394 . S
C656 H672 0.931 . S
C657 C656 1.391 . S
C657 C661 1.376 . S
C658 C656 1.394 . S
C658 C659 1.369 . S
C658 C662 1.531 . S
C659 C658 1.369 . S
C659 C660 1.410 . S
C659 C667 1.503 . S
C660 C659 1.410 . S
C660 C661 1.392 . S
C660 C663 1.511 . S
C661 C657 1.376 . S
C661 C660 1.392 . S
C661 H673 0.929 . S
C662 C658 1.531 . S
C662 H674 0.960 . S
C662 H675 0.962 . S
C662 H676 0.960 . S
C663 C660 1.511 . S
C663 H677 0.961 . S
C663 H678 0.961 . S
C663 H679 0.961 . S
C664 C665 1.370 . S
C664 C666 1.363 . S
C664 H680 0.931 . S
C665 C664 1.370 . S
C665 C669 1.408 . S
C666 C664 1.363 . S
C666 C667 1.370 . S
C666 C670 1.524 . S
C667 C659 1.503 . S
C667 C666 1.370 . S
C667 C668 1.403 . S
C668 C667 1.403 . S
C668 C669 1.404 . S
C668 C671 1.539 . S
C669 C665 1.408 . S
C669 C668 1.404 . S
C669 H681 0.930 . S
C670 C666 1.524 . S
C670 H682 0.956 . S
C670 H683 0.961 . S
C670 H684 0.961 . S
C671 C668 1.539 . S
C671 H685 0.958 . S
C671 H686 0.961 . S
C671 H687 0.960 . S
H672 C656 0.931 . S
H673 C661 0.929 . S
H674 C662 0.960 . S
H675 C662 0.962 . S
H676 C662 0.960 . S
H677 C663 0.961 . S
H678 C663 0.961 . S
H679 C663 0.961 . S
H680 C664 0.931 . S
H681 C669 0.930 . S
H682 C670 0.956 . S
H683 C670 0.961 . S
H684 C670 0.961 . S
H685 C671 0.958 . S
H686 C671 0.961 . S
H687 C671 0.960 . S
C688 C689 1.391 . S
C688 C690 1.394 . S
C688 H704 0.931 . S
C689 C688 1.391 . S
C689 C693 1.376 . S
C690 C688 1.394 . S
C690 C691 1.369 . S
C690 C694 1.531 . S
C691 C690 1.369 . S
C691 C692 1.410 . S
C691 C699 1.503 . S
C692 C691 1.410 . S
C692 C693 1.392 . S
C692 C695 1.511 . S
C693 C689 1.376 . S
C693 C692 1.392 . S
C693 H705 0.929 . S
C694 C690 1.531 . S
C694 H706 0.960 . S
C694 H707 0.962 . S
C694 H708 0.960 . S
C695 C692 1.511 . S
C695 H709 0.961 . S
C695 H710 0.961 . S
C695 H711 0.961 . S
C696 C697 1.370 . S
C696 C698 1.363 . S
C696 H712 0.931 . S
C697 C696 1.370 . S
C697 C701 1.408 . S
C698 C696 1.363 . S
C698 C699 1.370 . S
C698 C702 1.524 . S
C699 C691 1.503 . S
C699 C698 1.370 . S
C699 C700 1.403 . S
C700 C699 1.403 . S
C700 C701 1.404 . S
C700 C703 1.539 . S
C701 C697 1.408 . S
C701 C700 1.404 . S
C701 H713 0.930 . S
C702 C698 1.524 . S
C702 H714 0.956 . S
C702 H715 0.961 . S
C702 H716 0.961 . S
C703 C700 1.539 . S
C703 H717 0.958 . S
C703 H718 0.961 . S
C703 H719 0.960 . S
H704 C688 0.931 . S
H705 C693 0.929 . S
H706 C694 0.960 . S
H707 C694 0.962 . S
H708 C694 0.960 . S
H709 C695 0.961 . S
H710 C695 0.961 . S
H711 C695 0.961 . S
H712 C696 0.931 . S
H713 C701 0.930 . S
H714 C702 0.956 . S
H715 C702 0.961 . S
H716 C702 0.961 . S
H717 C703 0.958 . S
H718 C703 0.961 . S
H719 C703 0.960 . S
C720 C721 1.391 . S
C720 C722 1.394 . S
C720 H736 0.931 . S
C721 C720 1.391 . S
C721 C725 1.376 . S
C722 C720 1.394 . S
C722 C723 1.369 . S
C722 C726 1.531 . S
C723 C722 1.369 . S
C723 C724 1.410 . S
C723 C731 1.503 . S
C724 C723 1.410 . S
C724 C725 1.392 . S
C724 C727 1.511 . S
C725 C721 1.376 . S
C725 C724 1.392 . S
C725 H737 0.929 . S
C726 C722 1.531 . S
C726 H738 0.960 . S
C726 H739 0.962 . S
C726 H740 0.960 . S
C727 C724 1.511 . S
C727 H741 0.961 . S
C727 H742 0.961 . S
C727 H743 0.961 . S
C728 C729 1.370 . S
C728 C730 1.363 . S
C728 H744 0.931 . S
C729 C728 1.370 . S
C729 C733 1.408 . S
C730 C728 1.363 . S
C730 C731 1.370 . S
C730 C734 1.524 . S
C731 C723 1.503 . S
C731 C730 1.370 . S
C731 C732 1.403 . S
C732 C731 1.403 . S
C732 C733 1.404 . S
C732 C735 1.539 . S
C733 C729 1.408 . S
C733 C732 1.404 . S
C733 H745 0.930 . S
C734 C730 1.524 . S
C734 H746 0.956 . S
C734 H747 0.961 . S
C734 H748 0.961 . S
C735 C732 1.539 . S
C735 H749 0.958 . S
C735 H750 0.961 . S
C735 H751 0.960 . S
H736 C720 0.931 . S
H737 C725 0.929 . S
H738 C726 0.960 . S
H739 C726 0.962 . S
H740 C726 0.960 . S
H741 C727 0.961 . S
H742 C727 0.961 . S
H743 C727 0.961 . S
H744 C728 0.931 . S
H745 C733 0.930 . S
H746 C734 0.956 . S
H747 C734 0.961 . S
H748 C734 0.961 . S
H749 C735 0.958 . S
H750 C735 0.961 . S
H751 C735 0.960 . S
C752 C753 1.391 . S
C752 C754 1.394 . S
C752 H768 0.931 . S
C753 C752 1.391 . S
C753 C757 1.376 . S
C754 C752 1.394 . S
C754 C755 1.369 . S
C754 C758 1.531 1_556 S
C755 C754 1.369 . S
C755 C756 1.410 . S
C755 C763 1.503 . S
C756 C755 1.410 . S
C756 C757 1.392 . S
C756 C759 1.511 . S
C757 C753 1.376 . S
C757 C756 1.392 . S
C757 H769 0.929 . S
C758 C754 1.531 1_554 S
C758 H770 0.960 . S
C758 H771 0.962 . S
C758 H772 0.960 . S
C759 C756 1.511 . S
C759 H773 0.961 . S
C759 H774 0.961 . S
C759 H775 0.961 . S
C760 C761 1.370 . S
C760 C762 1.363 . S
C760 H776 0.931 . S
C761 C760 1.370 . S
C761 C765 1.352 1_554 S
C762 C760 1.363 . S
C762 C763 1.370 1_554 S
C762 C766 1.524 . S
C763 C755 1.503 . S
C763 C762 1.370 1_556 S
C763 C764 1.403 . S
C764 C763 1.403 . S
C764 C765 1.434 . S
C764 C767 1.539 . S
C765 C761 1.352 1_556 S
C765 C764 1.434 . S
C765 H777 0.958 . S
C766 C762 1.524 . S
C766 H778 0.956 . S
C766 H779 0.961 . S
C766 H780 0.961 . S
C767 C764 1.539 . S
C767 H781 0.958 . S
C767 H782 0.961 . S
C767 H783 0.960 . S
H768 C752 0.931 . S
H769 C757 0.929 . S
H770 C758 0.960 . S
H771 C758 0.962 . S
H772 C758 0.960 . S
H773 C759 0.961 . S
H774 C759 0.961 . S
H775 C759 0.961 . S
H776 C760 0.931 . S
H777 C765 0.958 . S
H778 C766 0.956 . S
H779 C766 0.961 . S
H780 C766 0.961 . S
H781 C767 0.958 . S
H782 C767 0.961 . S
H783 C767 0.960 . S
C784 C785 1.391 . S
C784 C786 1.394 . S
C784 H800 0.931 . S
C785 C784 1.391 . S
C785 C789 1.376 . S
C786 C784 1.394 . S
C786 C787 1.369 . S
C786 C790 1.531 . S
C787 C786 1.369 . S
C787 C788 1.410 . S
C787 C795 1.503 . S
C788 C787 1.410 . S
C788 C789 1.392 . S
C788 C791 1.511 . S
C789 C785 1.376 . S
C789 C788 1.392 . S
C789 H801 0.929 . S
C790 C786 1.531 . S
C790 H802 0.960 . S
C790 H803 0.962 . S
C790 H804 0.960 . S
C791 C788 1.511 . S
C791 H805 0.961 . S
C791 H806 0.961 . S
C791 H807 0.961 . S
C792 C793 1.370 . S
C792 C794 1.363 . S
C792 H808 0.931 . S
C793 C792 1.370 . S
C793 C797 1.408 . S
C794 C792 1.363 . S
C794 C795 1.370 . S
C794 C798 1.524 . S
C795 C787 1.503 . S
C795 C794 1.370 . S
C795 C796 1.403 . S
C796 C795 1.403 . S
C796 C797 1.404 . S
C796 C799 1.539 . S
C797 C793 1.408 . S
C797 C796 1.404 . S
C797 H809 0.930 . S
C798 C794 1.524 . S
C798 H810 0.956 . S
C798 H811 0.961 . S
C798 H812 0.961 . S
C799 C796 1.539 . S
C799 H813 0.958 . S
C799 H814 0.961 . S
C799 H815 0.960 . S
H800 C784 0.931 . S
H801 C789 0.929 . S
H802 C790 0.960 . S
H803 C790 0.962 . S
H804 C790 0.960 . S
H805 C791 0.961 . S
H806 C791 0.961 . S
H807 C791 0.961 . S
H808 C792 0.931 . S
H809 C797 0.930 . S
H810 C798 0.956 . S
H811 C798 0.961 . S
H812 C798 0.961 . S
H813 C799 0.958 . S
H814 C799 0.961 . S
H815 C799 0.960 . S
C816 C817 1.391 . S
C816 C818 1.394 . S
C816 H832 0.931 . S
C817 C816 1.391 . S
C817 C821 1.376 . S
C818 C816 1.394 . S
C818 C819 1.369 . S
C818 C822 1.531 . S
C819 C818 1.369 . S
C819 C820 1.410 . S
C819 C827 1.503 . S
C820 C819 1.410 . S
C820 C821 1.392 . S
C820 C823 1.511 . S
C821 C817 1.376 . S
C821 C820 1.392 . S
C821 H833 0.929 . S
C822 C818 1.531 . S
C822 H834 0.960 . S
C822 H835 0.962 . S
C822 H836 0.960 . S
C823 C820 1.511 . S
C823 H837 0.961 . S
C823 H838 0.961 . S
C823 H839 0.961 . S
C824 C825 1.370 . S
C824 C826 1.363 . S
C824 H840 0.931 . S
C825 C824 1.370 . S
C825 C829 1.408 . S
C826 C824 1.363 . S
C826 C827 1.370 . S
C826 C830 1.524 . S
C827 C819 1.503 . S
C827 C826 1.370 . S
C827 C828 1.403 . S
C828 C827 1.403 . S
C828 C829 1.404 . S
C828 C831 1.539 . S
C829 C825 1.408 . S
C829 C828 1.404 . S
C829 H841 0.930 . S
C830 C826 1.524 . S
C830 H842 0.956 . S
C830 H843 0.961 . S
C830 H844 0.961 . S
C831 C828 1.539 . S
C831 H845 0.958 . S
C831 H846 0.961 . S
C831 H847 0.960 . S
H832 C816 0.931 . S
H833 C821 0.929 . S
H834 C822 0.960 . S
H835 C822 0.962 . S
H836 C822 0.960 . S
H837 C823 0.961 . S
H838 C823 0.961 . S
H839 C823 0.961 . S
H840 C824 0.931 . S
H841 C829 0.930 . S
H842 C830 0.956 . S
H843 C830 0.961 . S
H844 C830 0.961 . S
H845 C831 0.958 . S
H846 C831 0.961 . S
H847 C831 0.960 . S
C848 C849 1.391 . S
C848 C850 1.394 . S
C848 H864 0.931 . S
C849 C848 1.391 . S
C849 C853 1.376 . S
C850 C848 1.394 . S
C850 C851 1.369 . S
C850 C854 1.531 . S
C851 C850 1.369 . S
C851 C852 1.410 . S
C851 C859 1.503 . S
C852 C851 1.410 . S
C852 C853 1.392 . S
C852 C855 1.511 . S
C853 C849 1.376 . S
C853 C852 1.392 . S
C853 H865 0.929 . S
C854 C850 1.531 . S
C854 H866 0.960 . S
C854 H867 0.962 . S
C854 H868 0.960 . S
C855 C852 1.511 . S
C855 H869 0.961 . S
C855 H870 0.961 . S
C855 H871 0.961 . S
C856 C857 1.370 . S
C856 C858 1.363 . S
C856 H872 0.931 . S
C857 C856 1.370 . S
C857 C861 1.408 . S
C858 C856 1.363 . S
C858 C859 1.370 . S
C858 C862 1.524 . S
C859 C851 1.503 . S
C859 C858 1.370 . S
C859 C860 1.403 . S
C860 C859 1.403 . S
C860 C861 1.404 . S
C860 C863 1.539 . S
C861 C857 1.408 . S
C861 C860 1.404 . S
C861 H873 0.930 . S
C862 C858 1.524 . S
C862 H874 0.956 . S
C862 H875 0.961 . S
C862 H876 0.961 . S
C863 C860 1.539 . S
C863 H877 0.958 . S
C863 H878 0.961 . S
C863 H879 0.960 . S
H864 C848 0.931 . S
H865 C853 0.929 . S
H866 C854 0.960 . S
H867 C854 0.962 . S
H868 C854 0.960 . S
H869 C855 0.961 . S
H870 C855 0.961 . S
H871 C855 0.961 . S
H872 C856 0.931 . S
H873 C861 0.930 . S
H874 C862 0.956 . S
H875 C862 0.961 . S
H876 C862 0.961 . S
H877 C863 0.958 . S
H878 C863 0.961 . S
H879 C863 0.960 . S
C880 C881 1.391 . S
C880 C882 1.394 . S
C880 H896 0.931 . S
C881 C880 1.391 . S
C881 C885 1.376 . S
C882 C880 1.394 . S
C882 C883 1.369 . S
C882 C886 1.531 . S
C883 C882 1.369 . S
C883 C884 1.410 . S
C883 C891 1.503 . S
C884 C883 1.410 . S
C884 C885 1.392 . S
C884 C887 1.511 . S
C885 C881 1.376 . S
C885 C884 1.392 . S
C885 H897 0.929 . S
C886 C882 1.531 . S
C886 H898 0.960 . S
C886 H899 0.962 . S
C886 H900 0.960 . S
C887 C884 1.511 . S
C887 H901 0.961 . S
C887 H902 0.961 . S
C887 H903 0.961 . S
C888 C889 1.370 . S
C888 C890 1.363 . S
C888 H904 0.931 . S
C889 C888 1.370 . S
C889 C893 1.408 . S
C890 C888 1.363 . S
C890 C891 1.370 . S
C890 C894 1.524 . S
C891 C883 1.503 . S
C891 C890 1.370 . S
C891 C892 1.403 . S
C892 C891 1.403 . S
C892 C893 1.404 . S
C892 C895 1.539 . S
C893 C889 1.408 . S
C893 C892 1.404 . S
C893 H905 0.930 . S
C894 C890 1.524 . S
C894 H906 0.956 . S
C894 H907 0.961 . S
C894 H908 0.961 . S
C895 C892 1.539 . S
C895 H909 0.958 . S
C895 H910 0.961 . S
C895 H911 0.960 . S
H896 C880 0.931 . S
H897 C885 0.929 . S
H898 C886 0.960 . S
H899 C886 0.962 . S
H900 C886 0.960 . S
H901 C887 0.961 . S
H902 C887 0.961 . S
H903 C887 0.961 . S
H904 C888 0.931 . S
H905 C893 0.930 . S
H906 C894 0.956 . S
H907 C894 0.961 . S
H908 C894 0.961 . S
H909 C895 0.958 . S
H910 C895 0.961 . S
H911 C895 0.960 . S
C912 C913 1.391 . S
C912 C914 1.394 . S
C912 H928 0.931 . S
C913 C912 1.391 . S
C913 C917 1.376 . S
C914 C912 1.394 . S
C914 C915 1.369 . S
C914 C918 1.531 1_554 S
C915 C914 1.369 . S
C915 C916 1.410 . S
C915 C923 1.503 . S
C916 C915 1.410 . S
C916 C917 1.392 . S
C916 C919 1.511 . S
C917 C913 1.376 . S
C917 C916 1.392 . S
C917 H929 0.929 . S
C918 C914 1.531 1_556 S
C918 H930 0.960 . S
C918 H931 0.962 . S
C918 H932 0.960 . S
C919 C916 1.511 . S
C919 H933 0.961 . S
C919 H934 0.961 . S
C919 H935 0.961 . S
C920 C921 1.370 . S
C920 C922 1.363 . S
C920 H936 0.931 . S
C921 C920 1.370 . S
C921 C925 1.408 . S
C922 C920 1.363 . S
C922 C923 1.370 1_556 S
C922 C926 1.524 . S
C923 C915 1.503 . S
C923 C922 1.370 1_554 S
C923 C924 1.403 . S
C924 C923 1.403 . S
C924 C925 1.404 1_554 S
C924 C927 1.539 . S
C925 C921 1.408 . S
C925 C924 1.404 1_556 S
C925 H937 0.930 . S
C926 C922 1.524 . S
C926 H938 0.956 . S
C926 H939 0.961 1_556 S
C926 H940 0.961 . S
C927 C924 1.539 . S
C927 H941 0.958 . S
C927 H942 0.961 . S
C927 H943 0.960 . S
H928 C912 0.931 . S
H929 C917 0.929 . S
H930 C918 0.960 . S
H931 C918 0.962 . S
H932 C918 0.960 . S
H933 C919 0.961 . S
H934 C919 0.961 . S
H935 C919 0.961 . S
H936 C920 0.931 . S
H937 C925 0.930 . S
H938 C926 0.956 . S
H939 C926 0.961 1_554 S
H940 C926 0.961 . S
H941 C927 0.958 . S
H942 C927 0.961 . S
H943 C927 0.960 . S
C944 C945 1.391 . S
C944 C946 1.394 . S
C944 H960 0.931 . S
C945 C944 1.391 . S
C945 C949 1.376 . S
C946 C944 1.394 . S
C946 C947 1.369 . S
C946 C950 1.531 . S
C947 C946 1.369 . S
C947 C948 1.410 . S
C947 C955 1.503 . S
C948 C947 1.410 . S
C948 C949 1.392 . S
C948 C951 1.511 . S
C949 C945 1.376 . S
C949 C948 1.392 . S
C949 H961 0.929 . S
C950 C946 1.531 . S
C950 H962 0.960 . S
C950 H963 0.962 . S
C950 H964 0.960 . S
C951 C948 1.511 . S
C951 H965 0.961 . S
C951 H966 0.961 . S
C951 H967 0.961 . S
C952 C953 1.370 . S
C952 C954 1.363 . S
C952 H968 0.931 . S
C953 C952 1.370 . S
C953 C957 1.408 . S
C954 C952 1.363 . S
C954 C955 1.370 . S
C954 C958 1.524 . S
C955 C947 1.503 . S
C955 C954 1.370 . S
C955 C956 1.403 . S
C956 C955 1.403 . S
C956 C957 1.404 . S
C956 C959 1.539 . S
C957 C953 1.408 . S
C957 C956 1.404 . S
C957 H969 0.930 . S
C958 C954 1.524 . S
C958 H970 0.956 . S
C958 H971 0.961 . S
C958 H972 0.961 . S
C959 C956 1.539 . S
C959 H973 0.958 . S
C959 H974 0.961 . S
C959 H975 0.960 . S
H960 C944 0.931 . S
H961 C949 0.929 . S
H962 C950 0.960 . S
H963 C950 0.962 . S
H964 C950 0.960 . S
H965 C951 0.961 . S
H966 C951 0.961 . S
H967 C951 0.961 . S
H968 C952 0.931 . S
H969 C957 0.930 . S
H970 C958 0.956 . S
H971 C958 0.961 . S
H972 C958 0.961 . S
H973 C959 0.958 . S
H974 C959 0.961 . S
H975 C959 0.960 . S
C976 C977 1.391 . S
C976 C978 1.394 . S
C976 H992 0.931 . S
C977 C976 1.391 . S
C977 C981 1.376 . S
C978 C976 1.394 . S
C978 C979 1.369 . S
C978 C982 1.531 . S
C979 C978 1.369 . S
C979 C980 1.410 . S
C979 C987 1.503 . S
C980 C979 1.410 . S
C980 C981 1.392 . S
C980 C983 1.511 . S
C981 C977 1.376 . S
C981 C980 1.392 . S
C981 H993 0.929 . S
C982 C978 1.531 . S
C982 H994 0.960 . S
C982 H995 0.962 . S
C982 H996 0.960 . S
C983 C980 1.511 . S
C983 H997 0.961 . S
C983 H998 0.961 . S
C983 H999 0.961 . S
C984 C985 1.370 . S
C984 C986 1.363 . S
C984 H1000 0.931 . S
C985 C984 1.370 . S
C985 C989 1.408 . S
C986 C984 1.363 . S
C986 C987 1.370 . S
C986 C990 1.524 . S
C987 C979 1.503 . S
C987 C986 1.370 . S
C987 C988 1.403 . S
C988 C987 1.403 . S
C988 C989 1.404 . S
C988 C991 1.539 . S
C989 C985 1.408 . S
C989 C988 1.404 . S
C989 H1001 0.930 . S
C990 C986 1.524 . S
C990 H1002 0.956 . S
C990 H1003 0.961 . S
C990 H1004 0.961 . S
C991 C988 1.539 . S
C991 H1005 0.958 . S
C991 H1006 0.961 . S
C991 H1007 0.960 . S
H992 C976 0.931 . S
H993 C981 0.929 . S
H994 C982 0.960 . S
H995 C982 0.962 . S
H996 C982 0.960 . S
H997 C983 0.961 . S
H998 C983 0.961 . S
H999 C983 0.961 . S
H1000 C984 0.931 . S
H1001 C989 0.930 . S
H1002 C990 0.956 . S
H1003 C990 0.961 . S
H1004 C990 0.961 . S
H1005 C991 0.958 . S
H1006 C991 0.961 . S
H1007 C991 0.960 . S
C1008 C1009 1.391 . S
C1008 C1010 1.394 . S
C1008 H1024 0.931 . S
C1009 C1008 1.391 . S
C1009 C1013 1.376 . S
C1010 C1008 1.394 . S
C1010 C1011 1.369 . S
C1010 C1014 1.531 . S
C1011 C1010 1.369 . S
C1011 C1012 1.410 . S
C1011 C1019 1.503 . S
C1012 C1011 1.410 . S
C1012 C1013 1.392 . S
C1012 C1015 1.511 . S
C1013 C1009 1.376 . S
C1013 C1012 1.392 . S
C1013 H1025 0.929 . S
C1014 C1010 1.531 . S
C1014 H1026 0.960 . S
C1014 H1027 0.962 . S
C1014 H1028 0.960 . S
C1015 C1012 1.511 . S
C1015 H1029 0.961 . S
C1015 H1030 0.961 . S
C1015 H1031 0.961 . S
C1016 C1017 1.370 . S
C1016 C1018 1.363 . S
C1016 H1032 0.931 . S
C1017 C1016 1.370 . S
C1017 C1021 1.408 . S
C1018 C1016 1.363 . S
C1018 C1019 1.370 . S
C1018 C1022 1.524 . S
C1019 C1011 1.503 . S
C1019 C1018 1.370 . S
C1019 C1020 1.403 . S
C1020 C1019 1.403 . S
C1020 C1021 1.404 . S
C1020 C1023 1.539 . S
C1021 C1017 1.408 . S
C1021 C1020 1.404 . S
C1021 H1033 0.930 . S
C1022 C1018 1.524 . S
C1022 H1034 0.956 . S
C1022 H1035 0.961 . S
C1022 H1036 0.961 . S
C1023 C1020 1.539 . S
C1023 H1037 0.958 . S
C1023 H1038 0.961 . S
C1023 H1039 0.960 . S
H1024 C1008 0.931 . S
H1025 C1013 0.929 . S
H1026 C1014 0.960 . S
H1027 C1014 0.962 . S
H1028 C1014 0.960 . S
H1029 C1015 0.961 . S
H1030 C1015 0.961 . S
H1031 C1015 0.961 . S
H1032 C1016 0.931 . S
H1033 C1021 0.930 . S
H1034 C1022 0.956 . S
H1035 C1022 0.961 . S
H1036 C1022 0.961 . S
H1037 C1023 0.958 . S
H1038 C1023 0.961 . S
H1039 C1023 0.960 . S
C1040 C1041 1.391 . S
C1040 C1042 1.394 . S
C1040 H1056 0.931 . S
C1041 C1040 1.391 . S
C1041 C1045 1.376 . S
C1042 C1040 1.394 . S
C1042 C1043 1.369 . S
C1042 C1046 1.531 . S
C1043 C1042 1.369 . S
C1043 C1044 1.410 . S
C1043 C1051 1.503 . S
C1044 C1043 1.410 . S
C1044 C1045 1.392 . S
C1044 C1047 1.511 . S
C1045 C1041 1.376 . S
C1045 C1044 1.392 . S
C1045 H1057 0.929 . S
C1046 C1042 1.531 . S
C1046 H1058 0.960 . S
C1046 H1059 0.962 . S
C1046 H1060 0.960 . S
C1047 C1044 1.511 . S
C1047 H1061 0.961 . S
C1047 H1062 0.961 . S
C1047 H1063 0.961 . S
C1048 C1049 1.370 . S
C1048 C1050 1.363 . S
C1048 H1064 0.931 . S
C1049 C1048 1.370 . S
C1049 C1053 1.408 . S
C1050 C1048 1.363 . S
C1050 C1051 1.370 . S
C1050 C1054 1.524 . S
C1051 C1043 1.503 . S
C1051 C1050 1.370 . S
C1051 C1052 1.403 . S
C1052 C1051 1.403 . S
C1052 C1053 1.404 . S
C1052 C1055 1.539 . S
C1053 C1049 1.408 . S
C1053 C1052 1.404 . S
C1053 H1065 0.930 . S
C1054 C1050 1.524 . S
C1054 H1066 0.956 . S
C1054 H1067 0.961 . S
C1054 H1068 0.961 . S
C1055 C1052 1.539 . S
C1055 H1069 0.958 . S
C1055 H1070 0.961 . S
C1055 H1071 0.960 . S
H1056 C1040 0.931 . S
H1057 C1045 0.929 . S
H1058 C1046 0.960 . S
H1059 C1046 0.962 . S
H1060 C1046 0.960 . S
H1061 C1047 0.961 . S
H1062 C1047 0.961 . S
H1063 C1047 0.961 . S
H1064 C1048 0.931 . S
H1065 C1053 0.930 . S
H1066 C1054 0.956 . S
H1067 C1054 0.961 . S
H1068 C1054 0.961 . S
H1069 C1055 0.958 . S
H1070 C1055 0.961 . S
H1071 C1055 0.960 . S
C1072 C1073 1.391 . S
C1072 C1074 1.394 . S
C1072 H1088 0.931 . S
C1073 C1072 1.391 . S
C1073 C1077 1.376 . S
C1074 C1072 1.394 . S
C1074 C1075 1.369 . S
C1074 C1078 1.531 . S
C1075 C1074 1.369 . S
C1075 C1076 1.410 . S
C1075 C1083 1.503 . S
C1076 C1075 1.410 . S
C1076 C1077 1.392 . S
C1076 C1079 1.511 . S
C1077 C1073 1.376 . S
C1077 C1076 1.392 . S
C1077 H1089 0.929 . S
C1078 C1074 1.531 . S
C1078 H1090 0.960 . S
C1078 H1091 0.962 . S
C1078 H1092 0.960 . S
C1079 C1076 1.511 . S
C1079 H1093 0.961 . S
C1079 H1094 0.961 . S
C1079 H1095 0.961 . S
C1080 C1081 1.370 . S
C1080 C1082 1.363 . S
C1080 H1096 0.931 . S
C1081 C1080 1.370 . S
C1081 C1085 1.408 . S
C1082 C1080 1.363 . S
C1082 C1083 1.370 . S
C1082 C1086 1.524 . S
C1083 C1075 1.503 . S
C1083 C1082 1.370 . S
C1083 C1084 1.403 . S
C1084 C1083 1.403 . S
C1084 C1085 1.404 . S
C1084 C1087 1.539 . S
C1085 C1081 1.408 . S
C1085 C1084 1.404 . S
C1085 H1097 0.930 . S
C1086 C1082 1.524 . S
C1086 H1098 0.956 . S
C1086 H1099 0.961 . S
C1086 H1100 0.961 . S
C1087 C1084 1.539 . S
C1087 H1101 0.958 . S
C1087 H1102 0.961 . S
C1087 H1103 0.960 . S
H1088 C1072 0.931 . S
H1089 C1077 0.929 . S
H1090 C1078 0.960 . S
H1091 C1078 0.962 . S
H1092 C1078 0.960 . S
H1093 C1079 0.961 . S
H1094 C1079 0.961 . S
H1095 C1079 0.961 . S
H1096 C1080 0.931 . S
H1097 C1085 0.930 . S
H1098 C1086 0.956 . S
H1099 C1086 0.961 . S
H1100 C1086 0.961 . S
H1101 C1087 0.958 . S
H1102 C1087 0.961 . S
H1103 C1087 0.960 . S
C1104 C1105 1.391 . S
C1104 C1106 1.394 . S
C1104 H1120 0.931 . S
C1105 C1104 1.391 . S
C1105 C1109 1.376 . S
C1106 C1104 1.394 . S
C1106 C1107 1.369 . S
C1106 C1110 1.531 . S
C1107 C1106 1.369 . S
C1107 C1108 1.410 . S
C1107 C1115 1.503 . S
C1108 C1107 1.410 . S
C1108 C1109 1.392 . S
C1108 C1111 1.511 . S
C1109 C1105 1.376 . S
C1109 C1108 1.392 . S
C1109 H1121 0.929 . S
C1110 C1106 1.531 . S
C1110 H1122 0.960 . S
C1110 H1123 0.962 . S
C1110 H1124 0.960 . S
C1111 C1108 1.511 . S
C1111 H1125 0.961 . S
C1111 H1126 0.961 . S
C1111 H1127 0.961 . S
C1112 C1113 1.370 . S
C1112 C1114 1.363 . S
C1112 H1128 0.931 . S
C1113 C1112 1.370 . S
C1113 C1117 1.408 . S
C1114 C1112 1.363 . S
C1114 C1115 1.370 . S
C1114 C1118 1.524 . S
C1115 C1107 1.503 . S
C1115 C1114 1.370 . S
C1115 C1116 1.403 . S
C1116 C1115 1.403 . S
C1116 C1117 1.404 . S
C1116 C1119 1.539 . S
C1117 C1113 1.408 . S
C1117 C1116 1.404 . S
C1117 H1129 0.930 . S
C1118 C1114 1.524 . S
C1118 H1130 0.956 . S
C1118 H1131 0.961 . S
C1118 H1132 0.961 . S
C1119 C1116 1.539 . S
C1119 H1133 0.958 . S
C1119 H1134 0.961 . S
C1119 H1135 0.960 . S
H1120 C1104 0.931 . S
H1121 C1109 0.929 . S
H1122 C1110 0.960 . S
H1123 C1110 0.962 . S
H1124 C1110 0.960 . S
H1125 C1111 0.961 . S
H1126 C1111 0.961 . S
H1127 C1111 0.961 . S
H1128 C1112 0.931 . S
H1129 C1117 0.930 . S
H1130 C1118 0.956 . S
H1131 C1118 0.961 . S
H1132 C1118 0.961 . S
H1133 C1119 0.958 . S
H1134 C1119 0.961 . S
H1135 C1119 0.960 . S
C1136 C1137 1.391 . S
C1136 C1138 1.394 . S
C1136 H1152 0.931 . S
C1137 C1136 1.391 . S
C1137 C1141 1.376 . S
C1138 C1136 1.394 . S
C1138 C1139 1.369 . S
C1138 C1142 1.531 . S
C1139 C1138 1.369 . S
C1139 C1140 1.410 . S
C1139 C1147 1.503 . S
C1140 C1139 1.410 . S
C1140 C1141 1.392 . S
C1140 C1143 1.511 . S
C1141 C1137 1.376 . S
C1141 C1140 1.392 . S
C1141 H1153 0.929 . S
C1142 C1138 1.531 . S
C1142 H1154 0.960 . S
C1142 H1155 0.962 . S
C1142 H1156 0.960 . S
C1143 C1140 1.511 . S
C1143 H1157 0.961 . S
C1143 H1158 0.961 . S
C1143 H1159 0.961 . S
C1144 C1145 1.370 . S
C1144 C1146 1.363 . S
C1144 H1160 0.931 . S
C1145 C1144 1.370 . S
C1145 C1149 1.408 . S
C1146 C1144 1.363 . S
C1146 C1147 1.370 . S
C1146 C1150 1.524 . S
C1147 C1139 1.503 . S
C1147 C1146 1.370 . S
C1147 C1148 1.403 . S
C1148 C1147 1.403 . S
C1148 C1149 1.404 . S
C1148 C1151 1.539 . S
C1149 C1145 1.408 . S
C1149 C1148 1.404 . S
C1149 H1161 0.930 . S
C1150 C1146 1.524 . S
C1150 H1162 0.956 . S
C1150 H1163 0.961 . S
C1150 H1164 0.961 . S
C1151 C1148 1.539 . S
C1151 H1165 0.958 . S
C1151 H1166 0.961 . S
C1151 H1167 0.960 . S
H1152 C1136 0.931 . S
H1153 C1141 0.929 . S
H1154 C1142 0.960 . S
H1155 C1142 0.962 . S
H1156 C1142 0.960 . S
H1157 C1143 0.961 . S
H1158 C1143 0.961 . S
H1159 C1143 0.961 . S
H1160 C1144 0.931 . S
H1161 C1149 0.930 . S
H1162 C1150 0.956 . S
H1163 C1150 0.961 . S
H1164 C1150 0.961 . S
H1165 C1151 0.958 . S
H1166 C1151 0.961 . S
H1167 C1151 0.960 . S
C1168 C1169 1.391 . S
C1168 C1170 1.394 . S
C1168 H1184 0.931 . S
C1169 C1168 1.391 . S
C1169 C1173 1.376 . S
C1170 C1168 1.394 . S
C1170 C1171 1.369 . S
C1170 C1174 1.531 . S
C1171 C1170 1.369 . S
C1171 C1172 1.410 . S
C1171 C1179 1.503 . S
C1172 C1171 1.410 . S
C1172 C1173 1.392 . S
C1172 C1175 1.511 . S
C1173 C1169 1.376 . S
C1173 C1172 1.392 . S
C1173 H1185 0.929 . S
C1174 C1170 1.531 . S
C1174 H1186 0.960 . S
C1174 H1187 0.962 . S
C1174 H1188 0.960 . S
C1175 C1172 1.511 . S
C1175 H1189 0.961 . S
C1175 H1190 0.961 . S
C1175 H1191 0.961 . S
C1176 C1177 1.370 . S
C1176 C1178 1.363 . S
C1176 H1192 0.931 . S
C1177 C1176 1.370 . S
C1177 C1181 1.408 . S
C1178 C1176 1.363 . S
C1178 C1179 1.370 . S
C1178 C1182 1.524 . S
C1179 C1171 1.503 . S
C1179 C1178 1.370 . S
C1179 C1180 1.403 . S
C1180 C1179 1.403 . S
C1180 C1181 1.404 . S
C1180 C1183 1.539 . S
C1181 C1177 1.408 . S
C1181 C1180 1.404 . S
C1181 H1193 0.930 . S
C1182 C1178 1.524 . S
C1182 H1194 0.956 . S
C1182 H1195 0.961 . S
C1182 H1196 0.961 . S
C1183 C1180 1.539 . S
C1183 H1197 0.958 . S
C1183 H1198 0.961 . S
C1183 H1199 0.960 . S
H1184 C1168 0.931 . S
H1185 C1173 0.929 . S
H1186 C1174 0.960 . S
H1187 C1174 0.962 . S
H1188 C1174 0.960 . S
H1189 C1175 0.961 . S
H1190 C1175 0.961 . S
H1191 C1175 0.961 . S
H1192 C1176 0.931 . S
H1193 C1181 0.930 . S
H1194 C1182 0.956 . S
H1195 C1182 0.961 . S
H1196 C1182 0.961 . S
H1197 C1183 0.958 . S
H1198 C1183 0.961 . S
H1199 C1183 0.960 . S
C1200 C1201 1.391 . S
C1200 C1202 1.394 . S
C1200 H1216 0.931 . S
C1201 C1200 1.391 . S
C1201 C1205 1.376 . S
C1202 C1200 1.394 . S
C1202 C1203 1.369 . S
C1202 C1206 1.531 . S
C1203 C1202 1.369 . S
C1203 C1204 1.410 . S
C1203 C1211 1.503 . S
C1204 C1203 1.410 . S
C1204 C1205 1.392 . S
C1204 C1207 1.511 . S
C1205 C1201 1.376 . S
C1205 C1204 1.392 . S
C1205 H1217 0.929 . S
C1206 C1202 1.531 . S
C1206 H1218 0.960 . S
C1206 H1219 0.962 . S
C1206 H1220 0.960 . S
C1207 C1204 1.511 . S
C1207 H1221 0.961 . S
C1207 H1222 0.961 . S
C1207 H1223 0.961 . S
C1208 C1209 1.370 . S
C1208 C1210 1.363 . S
C1208 H1224 0.931 . S
C1209 C1208 1.370 . S
C1209 C1213 1.408 . S
C1210 C1208 1.363 . S
C1210 C1211 1.370 . S
C1210 C1214 1.524 . S
C1211 C1203 1.503 . S
C1211 C1210 1.370 . S
C1211 C1212 1.403 . S
C1212 C1211 1.403 . S
C1212 C1213 1.404 . S
C1212 C1215 1.539 . S
C1213 C1209 1.408 . S
C1213 C1212 1.404 . S
C1213 H1225 0.930 . S
C1214 C1210 1.524 . S
C1214 H1226 0.956 . S
C1214 H1227 0.961 . S
C1214 H1228 0.961 . S
C1215 C1212 1.539 . S
C1215 H1229 0.958 . S
C1215 H1230 0.961 . S
C1215 H1231 0.960 . S
H1216 C1200 0.931 . S
H1217 C1205 0.929 . S
H1218 C1206 0.960 . S
H1219 C1206 0.962 . S
H1220 C1206 0.960 . S
H1221 C1207 0.961 . S
H1222 C1207 0.961 . S
H1223 C1207 0.961 . S
H1224 C1208 0.931 . S
H1225 C1213 0.930 . S
H1226 C1214 0.956 . S
H1227 C1214 0.961 . S
H1228 C1214 0.961 . S
H1229 C1215 0.958 . S
H1230 C1215 0.961 . S
H1231 C1215 0.960 . S
C1232 C1233 1.391 . S
C1232 C1234 1.394 . S
C1232 H1248 0.931 . S
C1233 C1232 1.391 . S
C1233 C1237 1.376 . S
C1234 C1232 1.394 . S
C1234 C1235 1.369 . S
C1234 C1238 1.531 . S
C1235 C1234 1.369 . S
C1235 C1236 1.410 . S
C1235 C1243 1.503 . S
C1236 C1235 1.410 . S
C1236 C1237 1.392 . S
C1236 C1239 1.511 . S
C1237 C1233 1.376 . S
C1237 C1236 1.392 . S
C1237 H1249 0.929 . S
C1238 C1234 1.531 . S
C1238 H1250 0.960 . S
C1238 H1251 0.962 . S
C1238 H1252 0.960 . S
C1239 C1236 1.511 . S
C1239 H1253 0.961 . S
C1239 H1254 0.961 . S
C1239 H1255 0.961 . S
C1240 C1241 1.370 . S
C1240 C1242 1.363 . S
C1240 H1256 0.931 . S
C1241 C1240 1.370 . S
C1241 C1245 1.408 . S
C1242 C1240 1.363 . S
C1242 C1243 1.370 . S
C1242 C1246 1.524 . S
C1243 C1235 1.503 . S
C1243 C1242 1.370 . S
C1243 C1244 1.403 . S
C1244 C1243 1.403 . S
C1244 C1245 1.404 . S
C1244 C1247 1.539 . S
C1245 C1241 1.408 . S
C1245 C1244 1.404 . S
C1245 H1257 0.930 . S
C1246 C1242 1.524 . S
C1246 H1258 0.956 . S
C1246 H1259 0.961 . S
C1246 H1260 0.961 . S
C1247 C1244 1.539 . S
C1247 H1261 0.958 . S
C1247 H1262 0.961 . S
C1247 H1263 0.960 . S
H1248 C1232 0.931 . S
H1249 C1237 0.929 . S
H1250 C1238 0.960 . S
H1251 C1238 0.962 . S
H1252 C1238 0.960 . S
H1253 C1239 0.961 . S
H1254 C1239 0.961 . S
H1255 C1239 0.961 . S
H1256 C1240 0.931 . S
H1257 C1245 0.930 . S
H1258 C1246 0.956 . S
H1259 C1246 0.961 . S
H1260 C1246 0.961 . S
H1261 C1247 0.958 . S
H1262 C1247 0.961 . S
H1263 C1247 0.960 . S
C1264 C1265 1.391 . S
C1264 C1266 1.394 . S
C1264 H1280 0.931 . S
C1265 C1264 1.391 . S
C1265 C1269 1.376 . S
C1266 C1264 1.394 . S
C1266 C1267 1.369 . S
C1266 C1270 1.531 . S
C1267 C1266 1.369 . S
C1267 C1268 1.410 . S
C1267 C1275 1.503 . S
C1268 C1267 1.410 . S
C1268 C1269 1.392 . S
C1268 C1271 1.511 . S
C1269 C1265 1.376 . S
C1269 C1268 1.392 . S
C1269 H1281 0.929 . S
C1270 C1266 1.531 . S
C1270 H1282 0.960 . S
C1270 H1283 0.962 . S
C1270 H1284 0.960 . S
C1271 C1268 1.511 . S
C1271 H1285 0.961 . S
C1271 H1286 0.961 . S
C1271 H1287 0.961 . S
C1272 C1273 1.370 . S
C1272 C1274 1.363 . S
C1272 H1288 0.931 . S
C1273 C1272 1.370 . S
C1273 C1277 1.408 . S
C1274 C1272 1.363 . S
C1274 C1275 1.370 . S
C1274 C1278 1.524 . S
C1275 C1267 1.503 . S
C1275 C1274 1.370 . S
C1275 C1276 1.403 . S
C1276 C1275 1.403 . S
C1276 C1277 1.404 . S
C1276 C1279 1.539 . S
C1277 C1273 1.408 . S
C1277 C1276 1.404 . S
C1277 H1289 0.930 . S
C1278 C1274 1.524 . S
C1278 H1290 0.956 . S
C1278 H1291 0.961 . S
C1278 H1292 0.961 . S
C1279 C1276 1.539 . S
C1279 H1293 0.958 . S
C1279 H1294 0.961 . S
C1279 H1295 0.960 . S
H1280 C1264 0.931 . S
H1281 C1269 0.929 . S
H1282 C1270 0.960 . S
H1283 C1270 0.962 . S
H1284 C1270 0.960 . S
H1285 C1271 0.961 . S
H1286 C1271 0.961 . S
H1287 C1271 0.961 . S
H1288 C1272 0.931 . S
H1289 C1277 0.930 . S
H1290 C1278 0.956 . S
H1291 C1278 0.961 . S
H1292 C1278 0.961 . S
H1293 C1279 0.958 . S
H1294 C1279 0.961 . S
H1295 C1279 0.960 . S
C1296 C1297 1.391 . S
C1296 C1298 1.394 . S
C1296 H1312 0.931 . S
C1297 C1296 1.391 . S
C1297 C1301 1.376 . S
C1298 C1296 1.394 . S
C1298 C1299 1.369 . S
C1298 C1302 1.531 . S
C1299 C1298 1.369 . S
C1299 C1300 1.410 . S
C1299 C1307 1.503 . S
C1300 C1299 1.410 . S
C1300 C1301 1.392 . S
C1300 C1303 1.511 . S
C1301 C1297 1.376 . S
C1301 C1300 1.392 . S
C1301 H1313 0.929 . S
C1302 C1298 1.531 . S
C1302 H1314 0.960 . S
C1302 H1315 0.962 . S
C1302 H1316 0.960 . S
C1303 C1300 1.511 . S
C1303 H1317 0.961 . S
C1303 H1318 0.961 . S
C1303 H1319 0.961 . S
C1304 C1305 1.370 . S
C1304 C1306 1.363 . S
C1304 H1320 0.931 . S
C1305 C1304 1.370 . S
C1305 C1309 1.408 . S
C1306 C1304 1.363 . S
C1306 C1307 1.370 . S
C1306 C1310 1.524 . S
C1307 C1299 1.503 . S
C1307 C1306 1.370 . S
C1307 C1308 1.403 . S
C1308 C1307 1.403 . S
C1308 C1309 1.404 . S
C1308 C1311 1.539 . S
C1309 C1305 1.408 . S
C1309 C1308 1.404 . S
C1309 H1321 0.930 . S
C1310 C1306 1.524 . S
C1310 H1322 0.956 . S
C1310 H1323 0.961 . S
C1310 H1324 0.961 . S
C1311 C1308 1.539 . S
C1311 H1325 0.958 . S
C1311 H1326 0.961 . S
C1311 H1327 0.960 . S
H1312 C1296 0.931 . S
H1313 C1301 0.929 . S
H1314 C1302 0.960 . S
H1315 C1302 0.962 . S
H1316 C1302 0.960 . S
H1317 C1303 0.961 . S
H1318 C1303 0.961 . S
H1319 C1303 0.961 . S
H1320 C1304 0.931 . S
H1321 C1309 0.930 . S
H1322 C1310 0.956 . S
H1323 C1310 0.961 . S
H1324 C1310 0.961 . S
H1325 C1311 0.958 . S
H1326 C1311 0.961 . S
H1327 C1311 0.960 . S
C1328 C1329 1.391 . S
C1328 C1330 1.394 . S
C1328 H1344 0.931 . S
C1329 C1328 1.391 . S
C1329 C1333 1.376 . S
C1330 C1328 1.394 . S
C1330 C1331 1.369 . S
C1330 C1334 1.531 . S
C1331 C1330 1.369 . S
C1331 C1332 1.410 . S
C1331 C1339 1.503 . S
C1332 C1331 1.410 . S
C1332 C1333 1.392 . S
C1332 C1335 1.511 . S
C1333 C1329 1.376 . S
C1333 C1332 1.392 . S
C1333 H1345 0.929 . S
C1334 C1330 1.531 . S
C1334 H1346 0.960 . S
C1334 H1347 0.962 . S
C1334 H1348 0.960 . S
C1335 C1332 1.511 . S
C1335 H1349 0.961 . S
C1335 H1350 0.961 . S
C1335 H1351 0.961 . S
C1336 C1337 1.370 . S
C1336 C1338 1.363 . S
C1336 H1352 0.931 . S
C1337 C1336 1.370 . S
C1337 C1341 1.408 . S
C1338 C1336 1.363 . S
C1338 C1339 1.370 . S
C1338 C1342 1.524 . S
C1339 C1331 1.503 . S
C1339 C1338 1.370 . S
C1339 C1340 1.403 . S
C1340 C1339 1.403 . S
C1340 C1341 1.404 . S
C1340 C1343 1.539 . S
C1341 C1337 1.408 . S
C1341 C1340 1.404 . S
C1341 H1353 0.930 . S
C1342 C1338 1.524 . S
C1342 H1354 0.956 . S
C1342 H1355 0.961 . S
C1342 H1356 0.961 . S
C1343 C1340 1.539 . S
C1343 H1357 0.958 . S
C1343 H1358 0.961 . S
C1343 H1359 0.960 . S
H1344 C1328 0.931 . S
H1345 C1333 0.929 . S
H1346 C1334 0.960 . S
H1347 C1334 0.962 . S
H1348 C1334 0.960 . S
H1349 C1335 0.961 . S
H1350 C1335 0.961 . S
H1351 C1335 0.961 . S
H1352 C1336 0.931 . S
H1353 C1341 0.930 . S
H1354 C1342 0.956 . S
H1355 C1342 0.961 . S
H1356 C1342 0.961 . S
H1357 C1343 0.958 . S
H1358 C1343 0.961 . S
H1359 C1343 0.960 . S
C1360 C1361 1.391 . S
C1360 C1362 1.394 . S
C1360 H1376 0.931 . S
C1361 C1360 1.391 . S
C1361 C1365 1.376 . S
C1362 C1360 1.394 . S
C1362 C1363 1.369 . S
C1362 C1366 1.531 . S
C1363 C1362 1.369 . S
C1363 C1364 1.410 . S
C1363 C1371 1.503 . S
C1364 C1363 1.410 . S
C1364 C1365 1.392 . S
C1364 C1367 1.511 . S
C1365 C1361 1.376 . S
C1365 C1364 1.392 . S
C1365 H1377 0.929 . S
C1366 C1362 1.531 . S
C1366 H1378 0.960 . S
C1366 H1379 0.962 . S
C1366 H1380 0.960 . S
C1367 C1364 1.511 . S
C1367 H1381 0.961 . S
C1367 H1382 0.961 . S
C1367 H1383 0.961 . S
C1368 C1369 1.370 . S
C1368 C1370 1.363 . S
C1368 H1384 0.931 . S
C1369 C1368 1.370 . S
C1369 C1373 1.408 . S
C1370 C1368 1.363 . S
C1370 C1371 1.370 . S
C1370 C1374 1.524 . S
C1371 C1363 1.503 . S
C1371 C1370 1.370 . S
C1371 C1372 1.403 . S
C1372 C1371 1.403 . S
C1372 C1373 1.404 . S
C1372 C1375 1.539 . S
C1373 C1369 1.408 . S
C1373 C1372 1.404 . S
C1373 H1385 0.930 . S
C1374 C1370 1.524 . S
C1374 H1386 0.956 . S
C1374 H1387 0.961 . S
C1374 H1388 0.961 . S
C1375 C1372 1.539 . S
C1375 H1389 0.958 . S
C1375 H1390 0.961 . S
C1375 H1391 0.960 . S
H1376 C1360 0.931 . S
H1377 C1365 0.929 . S
H1378 C1366 0.960 . S
H1379 C1366 0.962 . S
H1380 C1366 0.960 . S
H1381 C1367 0.961 . S
H1382 C1367 0.961 . S
H1383 C1367 0.961 . S
H1384 C1368 0.931 . S
H1385 C1373 0.930 . S
H1386 C1374 0.956 . S
H1387 C1374 0.961 . S
H1388 C1374 0.961 . S
H1389 C1375 0.958 . S
H1390 C1375 0.961 . S
H1391 C1375 0.960 . S
C241 C105 1.572 . S
C249 C5 1.569 . S
C273 C34 1.481 . S
C281 C14 1.488 . S
C305 C45 1.609 . S
C313 C25 1.608 . S
C337 C54 1.567 . S
C345 C74 1.558 . S
C369 C65 1.476 . S
C377 C85 1.498 . S
C401 C114 1.598 . S
C409 C94 1.612 . S
C433 C145 1.573 . S
C441 C125 1.559 . S
C465 C154 1.590 . S
C473 C174 1.613 . S
C497 C185 1.497 . S
C505 C165 1.496 . S
C529 C214 1.549 . S
C537 C194 1.570 . S
C561 C225 1.587 . S
C569 C205 1.605 . S
C593 C134 1.510 . S
C601 C234 1.489 . S
C625 C233 2.080 . S
C633 C8 2.037 . S
C657 C37 1.810 . S
C665 C122 1.882 . S
C689 C153 1.985 . S
C697 C48 1.936 . S
C721 C162 2.091 . S
C729 C77 2.044 . S
C753 C193 1.880 . S
C761 C88 1.833 . S
C785 C117 1.914 . S
C793 C202 1.966 . S
C817 C128 2.036 . S
C825 C33 2.094 . S
C849 C157 1.914 . S
C857 C42 1.970 . S
C881 C73 1.882 . S
C889 C168 1.834 . S
C913 C82 2.065 . S
C921 C197 2.031 . S
C945 C208 1.953 . S
C953 C113 1.979 . S
C977 C237 1.817 . S
C985 C2 1.883 . S
C1009 C133 2.748 . S
C1017 C13 2.765 . S
C1041 C22 2.492 . S
C1049 C142 2.495 . S
C1073 C173 2.475 . S
C1081 C53 2.487 . S
C1105 C62 2.775 . S
C1113 C182 2.777 . S
C1137 C213 2.484 . S
C1145 C93 2.484 . S
C1169 C222 2.468 . S
C1177 C102 2.485 . S
C1201 C137 1.299 . S
C1209 C17 1.278 . S
C1233 C148 1.460 . S
C1241 C28 1.439 . S
C1265 C177 1.404 . S
C1273 C57 1.423 . S
C1297 C68 1.273 . S
C1305 C188 1.279 . S
C1329 C217 1.422 . S
C1337 C97 1.445 . S
C1361 C228 1.407 . S
C1369 C108 1.420 . S
