# Generated by pormake.
# Topology uol, (4)-cn, num edge types: 1
# Building blocks:
#     Node 0, Type 0, BuildingBlock: GALJAG_clean_sbu_0, # of connection points: 4
#     Node 1, Type 0, BuildingBlock: GALJAG_clean_sbu_0, # of connection points: 4
#     Node 2, Type 0, BuildingBlock: GALJAG_clean_sbu_0, # of connection points: 4
#     Node 3, Type 0, BuildingBlock: GALJAG_clean_sbu_0, # of connection points: 4
#     Node 4, Type 0, BuildingBlock: GALJAG_clean_sbu_0, # of connection points: 4
#     Node 5, Type 0, BuildingBlock: GALJAG_clean_sbu_0, # of connection points: 4
#     Node 6, Type 0, BuildingBlock: GALJAG_clean_sbu_0, # of connection points: 4
#     Node 7, Type 0, BuildingBlock: GALJAG_clean_sbu_0, # of connection points: 4
#     Node 8, Type 0, BuildingBlock: GALJAG_clean_sbu_0, # of connection points: 4
#     Node 9, Type 0, BuildingBlock: GALJAG_clean_sbu_0, # of connection points: 4
#     Node 10, Type 0, BuildingBlock: GALJAG_clean_sbu_0, # of connection points: 4
#     Node 11, Type 0, BuildingBlock: GALJAG_clean_sbu_0, # of connection points: 4
#     Edge 12, Type (0, 0), BuildingBlock: OJICUG_clean_linker_0, # of connection points: 2
#     Edge 13, Type (0, 0), BuildingBlock: OJICUG_clean_linker_0, # of connection points: 2
#     Edge 14, Type (0, 0), BuildingBlock: OJICUG_clean_linker_0, # of connection points: 2
#     Edge 15, Type (0, 0), BuildingBlock: OJICUG_clean_linker_0, # of connection points: 2
#     Edge 16, Type (0, 0), BuildingBlock: OJICUG_clean_linker_0, # of connection points: 2
#     Edge 17, Type (0, 0), BuildingBlock: OJICUG_clean_linker_0, # of connection points: 2
#     Edge 18, Type (0, 0), BuildingBlock: OJICUG_clean_linker_0, # of connection points: 2
#     Edge 19, Type (0, 0), BuildingBlock: OJICUG_clean_linker_0, # of connection points: 2
#     Edge 20, Type (0, 0), BuildingBlock: OJICUG_clean_linker_0, # of connection points: 2
#     Edge 21, Type (0, 0), BuildingBlock: OJICUG_clean_linker_0, # of connection points: 2
#     Edge 22, Type (0, 0), BuildingBlock: OJICUG_clean_linker_0, # of connection points: 2
#     Edge 23, Type (0, 0), BuildingBlock: OJICUG_clean_linker_0, # of connection points: 2
#     Edge 24, Type (0, 0), BuildingBlock: OJICUG_clean_linker_0, # of connection points: 2
#     Edge 25, Type (0, 0), BuildingBlock: OJICUG_clean_linker_0, # of connection points: 2
#     Edge 26, Type (0, 0), BuildingBlock: OJICUG_clean_linker_0, # of connection points: 2
#     Edge 27, Type (0, 0), BuildingBlock: OJICUG_clean_linker_0, # of connection points: 2
#     Edge 28, Type (0, 0), BuildingBlock: OJICUG_clean_linker_0, # of connection points: 2
#     Edge 29, Type (0, 0), BuildingBlock: OJICUG_clean_linker_0, # of connection points: 2
#     Edge 30, Type (0, 0), BuildingBlock: OJICUG_clean_linker_0, # of connection points: 2
#     Edge 31, Type (0, 0), BuildingBlock: OJICUG_clean_linker_0, # of connection points: 2
#     Edge 32, Type (0, 0), BuildingBlock: OJICUG_clean_linker_0, # of connection points: 2
#     Edge 33, Type (0, 0), BuildingBlock: OJICUG_clean_linker_0, # of connection points: 2
#     Edge 34, Type (0, 0), BuildingBlock: OJICUG_clean_linker_0, # of connection points: 2
#     Edge 35, Type (0, 0), BuildingBlock: OJICUG_clean_linker_0, # of connection points: 2
# Relax obj value: 0.121
# Max RMSD: 0.117
# Mean RMSD: 0.117
data_MOF--net-uol--node1-GALJAG_clean_sbu_0--edge1-OJICUG_clean_linker_0
_symmetry_space_group_name_H-M    P1
_symmetry_Int_Tables_number       1
_symmetry_cell_setting            triclinic
loop_
_symmetry_equiv_pos_as_xyz
'x, y, z'
_cell_length_a     25.146494
_cell_length_b     25.16769
_cell_length_c     43.594417
_cell_angle_alpha  90.051549
_cell_angle_beta   89.810693
_cell_angle_gamma 119.99514
loop_
_atom_site_label
_atom_site_type_symbol
_atom_site_fract_x
_atom_site_fract_y
_atom_site_fract_z
_atom_type_partial_charge
In0 In 0.16667 0.36249 0.08439 0.0
O1 O 0.06848 0.28054 0.08923 0.0
O2 O 0.08921 0.36497 0.1101 0.0
C3 C 0.19699 0.3309 0.03042 0.0
C4 C 0.19085 0.4792 0.07896 0.0
C5 C 0.22242 0.32956 0.12754 0.0
O6 O 0.1427 0.30373 0.04065 0.0
O7 O 0.23503 0.37425 0.04697 0.0
O8 O 0.25145 0.3789 0.11264 0.0
O9 O 0.1666 0.29813 0.12074 0.0
C10 C 0.04996 0.30935 0.10578 0.0
O11 O 0.20572 0.4599 0.10232 0.0
O12 O 0.16437 0.43974 0.05807 0.0
In13 In 0.80649 0.16914 0.25177 0.0
O14 O 0.77723 0.06699 0.25753 0.0
O15 O 0.75434 0.11161 0.2925 0.0
C16 C 0.85882 0.20328 0.19567 0.0
C17 C 0.70617 0.18075 0.24742 0.0
C18 C 0.907 0.22652 0.28749 0.0
O19 O 0.83537 0.14852 0.20507 0.0
O20 O 0.85336 0.23904 0.21399 0.0
O21 O 0.86901 0.24536 0.2854 0.0
O22 O 0.89411 0.17979 0.27161 0.0
C23 C 0.75182 0.06289 0.28326 0.0
O24 O 0.7547 0.22092 0.2604 0.0
O25 O 0.70935 0.13644 0.23573 0.0
In26 In 0.63474 0.80215 0.42384 0.0
O27 O 0.71021 0.77553 0.4274 0.0
O28 O 0.63432 0.73527 0.45822 0.0
C29 C 0.65825 0.8665 0.37125 0.0
C30 C 0.51919 0.70847 0.41766 0.0
C31 C 0.67696 0.89689 0.46336 0.0
O32 O 0.68189 0.83325 0.37654 0.0
O33 O 0.62187 0.8647 0.39173 0.0
O34 O 0.62066 0.86547 0.4567 0.0
O35 O 0.71086 0.87999 0.45038 0.0
C36 C 0.68464 0.74015 0.45003 0.0
O37 O 0.53578 0.74558 0.43989 0.0
O38 O 0.56055 0.71968 0.39795 0.0
In39 In 0.83539 0.63949 0.594 0.0
O40 O 0.80585 0.54727 0.61666 0.0
O41 O 0.82832 0.55669 0.56902 0.0
C42 C 0.78407 0.6761 0.6379 0.0
C43 C 0.9554 0.69865 0.61024 0.0
C44 C 0.79243 0.65906 0.54084 0.0
O45 O 0.7569 0.62215 0.62745 0.0
O46 O 0.83644 0.71028 0.62658 0.0
O47 O 0.84929 0.68163 0.5455 0.0
O48 O 0.75861 0.62669 0.56254 0.0
C49 C 0.81156 0.52266 0.59252 0.0
O50 O 0.93111 0.72601 0.59715 0.0
O51 O 0.92017 0.64178 0.61349 0.0
In52 In 0.19445 0.83345 0.75514 0.0
O53 O 0.2673 0.93601 0.75647 0.0
O54 O 0.18233 0.90779 0.77865 0.0
C55 C 0.14782 0.80451 0.69793 0.0
C56 C 0.291 0.81444 0.76022 0.0
C57 C 0.09729 0.75726 0.79085 0.0
O58 O 0.16791 0.85762 0.70901 0.0
O59 O 0.15405 0.76772 0.71517 0.0
O60 O 0.15145 0.7706 0.79731 0.0
O61 O 0.0926 0.78137 0.76652 0.0
C62 C 0.23542 0.95118 0.77269 0.0
O63 O 0.26448 0.81022 0.73508 0.0
O64 O 0.26814 0.82704 0.78296 0.0
In65 In 0.36663 0.19682 0.9147 0.0
O66 O 0.34572 0.27403 0.9249 0.0
O67 O 0.28083 0.18466 0.93972 0.0
C68 C 0.33319 0.14855 0.858 0.0
C69 C 0.48433 0.29008 0.91408 0.0
C70 C 0.35287 0.101 0.94921 0.0
O71 O 0.30018 0.16254 0.87421 0.0
O72 O 0.38412 0.1618 0.86985 0.0
O73 O 0.37954 0.15538 0.95903 0.0
O74 O 0.33513 0.0954 0.92186 0.0
C75 C 0.2964 0.24057 0.93916 0.0
O76 O 0.46051 0.25551 0.93702 0.0
O77 O 0.44939 0.27666 0.89116 0.0
In78 In 0.63665 0.83657 0.75682 0.0
O79 O 0.53586 0.78861 0.74324 0.0
O80 O 0.56452 0.85274 0.78008 0.0
C81 C 0.67962 0.77863 0.72082 0.0
C82 C 0.68437 0.94454 0.72661 0.0
C83 C 0.66331 0.80825 0.81224 0.0
O84 O 0.62298 0.75559 0.72641 0.0
O85 O 0.71332 0.82983 0.73328 0.0
O86 O 0.69231 0.862 0.80138 0.0
O87 O 0.61985 0.77004 0.79572 0.0
C88 C 0.52119 0.81609 0.76287 0.0
O89 O 0.70757 0.93957 0.75139 0.0
O90 O 0.63746 0.89607 0.71789 0.0
In91 In 0.80662 0.63681 0.91638 0.0
O92 O 0.81453 0.72623 0.89892 0.0
O93 O 0.72553 0.65279 0.90928 0.0
C94 C 0.86522 0.67428 0.97084 0.0
C95 C 0.71319 0.51922 0.91724 0.0
C96 C 0.893 0.65105 0.87455 0.0
O97 O 0.85228 0.70783 0.95466 0.0
O98 O 0.84662 0.62133 0.96008 0.0
O99 O 0.89865 0.64451 0.90277 0.0
O100 O 0.84306 0.64799 0.86741 0.0
C101 C 0.75753 0.70643 0.89882 0.0
O102 O 0.74809 0.54259 0.89435 0.0
O103 O 0.72626 0.55462 0.94 0.0
In104 In 0.18141 0.80962 0.07302 0.0
O105 O 0.1049 0.82475 0.05442 0.0
O106 O 0.08061 0.73493 0.06854 0.0
C107 C 0.21359 0.87022 0.12698 0.0
C108 C 0.19978 0.71241 0.07481 0.0
C109 C 0.25484 0.89554 0.03145 0.0
O110 O 0.16038 0.84954 0.11591 0.0
O111 O 0.24851 0.85786 0.11151 0.0
O112 O 0.26123 0.9037 0.05997 0.0
O113 O 0.21267 0.84294 0.02365 0.0
C114 C 0.06347 0.76923 0.05632 0.0
O115 O 0.20775 0.74337 0.05076 0.0
O116 O 0.18397 0.73123 0.09799 0.0
In117 In 0.3653 0.16956 0.24828 0.0
O118 O 0.4695 0.22245 0.24162 0.0
O119 O 0.42855 0.13466 0.26329 0.0
C120 C 0.32573 0.23036 0.21255 0.0
C121 C 0.31297 0.0642 0.21603 0.0
C122 C 0.345 0.19856 0.30525 0.0
O123 O 0.38195 0.24629 0.21409 0.0
O124 O 0.29089 0.18508 0.22909 0.0
O125 O 0.31343 0.14507 0.29441 0.0
O126 O 0.38745 0.23581 0.28785 0.0
C127 C 0.47689 0.18052 0.2532 0.0
O128 O 0.28994 0.06883 0.24107 0.0
O129 O 0.36135 0.11194 0.20776 0.0
In130 In 0.19983 0.36061 0.41431 0.0
O131 O 0.26167 0.4532 0.39178 0.0
O132 O 0.27649 0.44302 0.43904 0.0
C133 C 0.11224 0.32571 0.37069 0.0
C134 C 0.26004 0.30154 0.39636 0.0
C135 C 0.137 0.34041 0.4677 0.0
O136 O 0.13863 0.37909 0.38184 0.0
O137 O 0.13054 0.29116 0.38123 0.0
O138 O 0.17073 0.31726 0.4627 0.0
O139 O 0.13629 0.3735 0.44626 0.0
C140 C 0.29277 0.47749 0.41569 0.0
O141 O 0.20808 0.27373 0.4093 0.0
O142 O 0.2825 0.35873 0.39439 0.0
In143 In 0.83371 0.20042 0.58395 0.0
O144 O 0.79204 0.25719 0.56747 0.0
O145 O 0.84147 0.28292 0.60965 0.0
C146 C 0.78146 0.10588 0.54431 0.0
C147 C 0.94681 0.2612 0.55839 0.0
C148 C 0.79056 0.1371 0.63675 0.0
O149 O 0.75743 0.13835 0.55043 0.0
O150 O 0.83129 0.12161 0.55791 0.0
O151 O 0.84768 0.17045 0.63188 0.0
O152 O 0.75685 0.13791 0.61564 0.0
C153 C 0.81173 0.29408 0.58981 0.0
O154 O 0.90264 0.2683 0.55047 0.0
O155 O 0.93517 0.22435 0.58051 0.0
C156 C 0.19757 0.62317 0.04822 0.0
C157 C 0.20375 0.65584 0.07539 0.0
H158 H 0.18783 0.54095 0.02809 0.0
C159 C 0.20956 0.63178 0.10341 0.0
H160 H 0.19272 0.64057 0.02631 0.0
C161 C 0.2079 0.57546 0.10436 0.0
C162 C 0.19903 0.54149 0.07737 0.0
H163 H 0.21448 0.65608 0.12469 0.0
H164 H 0.21133 0.5575 0.12638 0.0
C165 C 0.19455 0.56614 0.04924 0.0
C166 C 0.59208 0.12651 0.24812 0.0
C167 C 0.64817 0.18199 0.24836 0.0
H168 H 0.49412 0.08283 0.25035 0.0
C169 C 0.64789 0.23754 0.25067 0.0
H170 H 0.59103 0.08301 0.24666 0.0
C171 C 0.59216 0.23749 0.25212 0.0
C172 C 0.53615 0.1818 0.25235 0.0
H173 H 0.69064 0.28089 0.25099 0.0
H174 H 0.59282 0.2808 0.25341 0.0
C175 C 0.53669 0.12638 0.25052 0.0
C176 C 0.42435 0.62814 0.44366 0.0
C177 C 0.45807 0.65274 0.4165 0.0
H178 H 0.34577 0.55263 0.46474 0.0
C179 C 0.43491 0.62123 0.38877 0.0
H180 H 0.44137 0.65135 0.46539 0.0
C181 C 0.37953 0.56542 0.38831 0.0
C182 C 0.3473 0.53949 0.4157 0.0
H183 H 0.46005 0.63925 0.36752 0.0
H184 H 0.36325 0.5414 0.36672 0.0
C185 C 0.36984 0.57161 0.44333 0.0
C186 C 0.79552 0.42894 0.56474 0.0
C187 C 0.80504 0.46106 0.59239 0.0
H188 H 0.78873 0.34992 0.54244 0.0
C189 C 0.8126 0.43575 0.61961 0.0
H190 H 0.7895 0.44746 0.54345 0.0
C191 C 0.81348 0.38062 0.61895 0.0
C192 C 0.8053 0.34919 0.59117 0.0
H193 H 0.82034 0.45977 0.64122 0.0
H194 H 0.82149 0.36309 0.64007 0.0
C195 C 0.79491 0.37311 0.5642 0.0
C196 C 0.44205 0.83395 0.78843 0.0
C197 C 0.45957 0.81 0.76377 0.0
H198 H 0.37425 0.8531 0.80688 0.0
C199 C 0.41928 0.78382 0.73889 0.0
H200 H 0.47216 0.85434 0.80791 0.0
C201 C 0.36377 0.78398 0.73807 0.0
C202 C 0.34695 0.80933 0.76236 0.0
H203 H 0.4316 0.76516 0.71951 0.0
H204 H 0.33448 0.76516 0.71818 0.0
C205 C 0.38598 0.83311 0.78786 0.0
C206 C 0.57651 0.37395 0.88755 0.0
C207 C 0.54613 0.34512 0.91489 0.0
H208 H 0.65415 0.45112 0.86692 0.0
C209 C 0.57337 0.37182 0.94308 0.0
H210 H 0.55656 0.35429 0.86551 0.0
C211 C 0.62856 0.42781 0.94389 0.0
C212 C 0.65819 0.45738 0.91654 0.0
H213 H 0.55081 0.35071 0.96452 0.0
H214 H 0.64749 0.44846 0.96592 0.0
C215 C 0.6324 0.42922 0.88837 0.0
C216 C 0.23721 0.23435 0.18994 0.0
C217 C 0.30106 0.25955 0.19205 0.0
H218 H 0.16277 0.23684 0.16802 0.0
C219 C 0.3397 0.31057 0.17375 0.0
H220 H 0.20614 0.19515 0.20376 0.0
C221 C 0.31457 0.33498 0.15323 0.0
C222 C 0.25054 0.30826 0.15058 0.0
H223 H 0.38911 0.33096 0.17497 0.0
H224 H 0.34506 0.37359 0.13894 0.0
C225 C 0.21229 0.25822 0.1694 0.0
C226 C 0.97952 0.31048 0.32289 0.0
C227 C 0.96128 0.25471 0.30768 0.0
H228 H 0.04274 0.37757 0.35462 0.0
C229 C 0.99479 0.22449 0.31236 0.0
H230 H 0.95457 0.33479 0.3196 0.0
C231 C 0.04442 0.24847 0.33241 0.0
C232 C 0.06224 0.30363 0.34801 0.0
H233 H 0.98197 0.18148 0.30097 0.0
H234 H 0.06855 0.22338 0.33591 0.0
C235 C 0.02999 0.33502 0.34278 0.0
C236 C 0.78853 0.02616 0.51383 0.0
C237 C 0.75384 0.05292 0.52332 0.0
H238 H 0.79132 0.95611 0.48745 0.0
C239 C 0.693 0.02778 0.51311 0.0
H240 H 0.83555 0.04455 0.52131 0.0
C241 C 0.66726 0.97633 0.49386 0.0
C242 C 0.70232 0.94994 0.48431 0.0
H243 H 0.66523 0.04746 0.52021 0.0
H244 H 0.62028 0.95762 0.48626 0.0
C245 C 0.76317 0.97547 0.49442 0.0
C246 C 0.69385 0.66627 0.66785 0.0
C247 C 0.75677 0.69925 0.66056 0.0
H248 H 0.61953 0.66578 0.69261 0.0
C249 C 0.79382 0.75689 0.67406 0.0
H250 H 0.66423 0.62177 0.65768 0.0
C251 C 0.76855 0.78171 0.69397 0.0
C252 C 0.70546 0.74975 0.70073 0.0
H253 H 0.8425 0.78331 0.669 0.0
H254 H 0.79852 0.8266 0.70369 0.0
C255 C 0.66829 0.69149 0.68771 0.0
C256 C 0.93512 0.67972 0.82148 0.0
C257 C 0.94342 0.6687 0.85217 0.0
H258 H 0.97731 0.71592 0.77803 0.0
C259 C 1.00182 0.68086 0.86174 0.0
H260 H 0.89065 0.67059 0.81338 0.0
C261 C 0.05172 0.70688 0.84137 0.0
C262 C 0.04395 0.7213 0.8112 0.0
H263 H 0.00954 0.67276 0.88527 0.0
H264 H 0.09676 0.71823 0.84964 0.0
C265 C 0.98484 0.70581 0.80124 0.0
C266 C 0.27427 0.93747 0.978 0.0
C267 C 0.28836 0.9462 0.00939 0.0
H268 H 0.28437 0.97988 0.93418 0.0
C269 C 0.32993 0.00548 0.02005 0.0
H270 H 0.24249 0.89231 0.96912 0.0
C271 C 0.35373 0.05566 1.0001 0.0
C272 C 0.33656 0.04745 0.96909 0.0
H273 H 0.34188 0.01359 0.04412 0.0
H274 H 0.3834 0.10115 0.00925 0.0
C275 C 0.29825 0.98766 0.95801 0.0
C276 C 0.18288 0.24891 0.9933 0.0
C277 C 0.21652 0.31017 0.00311 0.0
H278 H 0.18213 0.17849 0.96521 0.0
C279 C 0.27273 0.34994 0.98874 0.0
H280 H 0.13949 0.21725 0.00406 0.0
C281 C 0.29651 0.32813 0.96614 0.0
C282 C 0.26515 0.26582 0.95795 0.0
H283 H 0.29945 0.39747 0.99578 0.0
H284 H 0.34123 0.35933 0.95646 0.0
C285 C 0.20731 0.22674 0.97111 0.0
C286 C 0.92503 0.28926 0.16037 0.0
C287 C 0.8976 0.22667 0.16781 0.0
H288 H 0.99434 0.36429 0.13454 0.0
C289 C 0.91408 0.18948 0.15088 0.0
H290 H 0.91303 0.31911 0.1728 0.0
C291 C 0.96064 0.21551 0.12862 0.0
C292 C 0.99157 0.27911 0.12317 0.0
H293 H 0.89365 0.14107 0.15605 0.0
H294 H 0.97518 0.18659 0.11726 0.0
C295 C 0.97164 0.31522 0.1384 0.0
C296 C 0.74276 0.96388 0.30173 0.0
C297 C 0.72237 0.00669 0.30215 0.0
H298 H 0.73868 0.88536 0.32369 0.0
C299 C 0.67656 0.99878 0.3231 0.0
H300 H 0.77824 0.96919 0.28579 0.0
C301 C 0.65348 0.95088 0.34422 0.0
C302 C 0.67639 0.91017 0.34532 0.0
H303 H 0.65961 0.0308 0.32374 0.0
H304 H 0.61948 0.94752 0.36063 0.0
C305 C 0.72024 0.91611 0.32339 0.0
C306 C 0.80386 0.71877 0.49245 0.0
C307 C 0.76642 0.6731 0.5137 0.0
H308 H 0.80706 0.7757 0.45488 0.0
C309 C 0.70236 0.64419 0.5106 0.0
H310 H 0.8534 0.74171 0.49424 0.0
C311 C 0.67615 0.66351 0.48833 0.0
C312 C 0.71328 0.71197 0.46844 0.0
H313 H 0.67218 0.60838 0.52636 0.0
H314 H 0.62658 0.64228 0.48762 0.0
C315 C 0.7774 0.73801 0.46986 0.0
C316 C 0.08939 0.81929 0.65536 0.0
C317 C 0.11038 0.78318 0.6697 0.0
H318 H 0.02373 0.82078 0.62457 0.0
C319 C 0.08758 0.72251 0.65975 0.0
H320 H 0.10624 0.86625 0.66251 0.0
C321 C 0.04049 0.69658 0.63817 0.0
C322 C 0.01538 0.73083 0.62597 0.0
H323 H 0.10323 0.69367 0.67013 0.0
H324 H 0.02105 0.64846 0.63254 0.0
C325 C 0.04224 0.79329 0.63358 0.0
C326 C 0.24618 0.07563 0.82489 0.0
C327 C 0.30962 0.10906 0.83053 0.0
H328 H 0.17273 0.999 0.80184 0.0
C329 C 0.34898 0.09677 0.81276 0.0
H330 H 0.21469 0.08407 0.8382 0.0
C331 C 0.32496 0.0485 0.79163 0.0
C332 C 0.26115 0.01118 0.78828 0.0
H333 H 0.39812 0.12202 0.81652 0.0
H334 H 0.35617 0.03758 0.77972 0.0
C335 C 0.22212 0.02679 0.80411 0.0
C336 C 0.64505 0.73107 0.85285 0.0
C337 C 0.68376 0.78873 0.83958 0.0
H338 H 0.6378 0.66041 0.88279 0.0
C339 C 0.74465 0.82325 0.84985 0.0
H340 H 0.59779 0.70361 0.84549 0.0
C341 C 0.76786 0.79816 0.87097 0.0
C342 C 0.73028 0.73855 0.88249 0.0
H343 H 0.77554 0.86781 0.83998 0.0
H344 H 0.81606 0.82408 0.87695 0.0
C345 C 0.66795 0.70641 0.87429 0.0
C346 C 0.91841 0.65777 0.01505 0.0
C347 C 0.9067 0.69771 0.99761 0.0
H348 H 0.97659 0.64918 0.04799 0.0
C349 C 0.94085 0.76103 0.0035 0.0
H350 H 0.89255 0.60871 0.01118 0.0
C351 C 0.98933 0.78431 0.02449 0.0
C352 C 0.00412 0.74462 0.04014 0.0
H353 H 0.93276 0.79294 0.99048 0.0
H354 H 0.0174 0.83357 0.0271 0.0
C355 C 0.96648 0.68098 0.03622 0.0
C356 C 0.30071 0.94841 0.15777 0.0
C357 C 0.237 0.91315 0.15322 0.0
H358 H 0.37429 0.02408 0.18112 0.0
C359 C 0.19767 0.92398 0.1719 0.0
H360 H 0.33232 0.94137 0.14376 0.0
C361 C 0.222 0.97094 0.19393 0.0
C362 C 0.28589 0.00844 0.19694 0.0
H363 H 0.14838 0.89749 0.16885 0.0
H364 H 0.19111 0.98002 0.20736 0.0
C365 C 0.32485 0.99595 0.17911 0.0
C366 C 0.3668 0.27961 0.34411 0.0
C367 C 0.32875 0.21926 0.33378 0.0
H368 H 0.37517 0.35255 0.37261 0.0
C369 C 0.27191 0.18266 0.34842 0.0
H370 H 0.41112 0.30882 0.33352 0.0
C371 C 0.25129 0.20784 0.37106 0.0
C372 C 0.28721 0.26996 0.3793 0.0
H373 H 0.24167 0.13593 0.34099 0.0
H374 H 0.20551 0.17999 0.38042 0.0
C375 C 0.34624 0.30468 0.36659 0.0
C376 C 0.08643 0.27935 0.51561 0.0
C377 C 0.09677 0.32649 0.49493 0.0
H378 H 0.03068 0.22179 0.55266 0.0
C379 C 0.06343 0.35721 0.4986 0.0
H380 H 0.11158 0.25499 0.51336 0.0
C381 C 0.0176 0.33835 0.52084 0.0
C382 C 0.0041 0.28853 0.54013 0.0
H383 H 0.07072 0.39419 0.48331 0.0
H384 H 0.99069 0.36109 0.52196 0.0
C385 C 0.04039 0.26055 0.53816 0.0
C386 C 0.77492 0.04277 0.70781 0.0
C387 C 0.71154 1.00046 0.70748 0.0
H388 H 0.85038 0.1197 0.68531 0.0
C389 C 0.67437 0.00797 0.68604 0.0
H390 H 0.8046 0.03774 0.72407 0.0
C391 C 0.70015 0.05477 0.66431 0.0
C392 C 0.76396 0.09477 0.66316 0.0
H393 H 0.62533 0.97627 0.68539 0.0
H394 H 0.67011 0.05774 0.6475 0.0
C395 C 0.80107 0.08945 0.68562 0.0
loop_
_geom_bond_atom_site_label_1
_geom_bond_atom_site_label_2
_geom_bond_distance
_geom_bond_site_symmetry_2
_ccdc_geom_bond_type
In0 O1 2.294 . S
In0 O2 2.326 . S
In0 O6 2.266 . S
In0 O7 2.326 . S
In0 O8 2.266 . S
In0 O9 2.326 . S
In0 O11 2.294 . S
In0 O12 2.326 . S
O1 In0 2.294 . S
O1 C10 1.240 . S
O2 In0 2.326 . S
O2 C10 1.252 . S
C3 O6 1.252 . S
C3 O7 1.260 . S
C4 O11 1.240 . S
C4 O12 1.252 . S
C5 O8 1.252 . S
C5 O9 1.260 . S
O6 In0 2.266 . S
O6 C3 1.252 . S
O7 In0 2.326 . S
O7 C3 1.260 . S
O8 In0 2.266 . S
O8 C5 1.252 . S
O9 In0 2.326 . S
O9 C5 1.260 . S
C10 O1 1.240 . S
C10 O2 1.252 . S
O11 In0 2.294 . S
O11 C4 1.240 . S
O12 In0 2.326 . S
O12 C4 1.252 . S
In13 O14 2.294 . S
In13 O15 2.326 . S
In13 O19 2.266 . S
In13 O20 2.326 . S
In13 O21 2.266 . S
In13 O22 2.326 . S
In13 O24 2.294 . S
In13 O25 2.326 . S
O14 In13 2.294 . S
O14 C23 1.240 . S
O15 In13 2.326 . S
O15 C23 1.252 . S
C16 O19 1.252 . S
C16 O20 1.260 . S
C17 O24 1.240 . S
C17 O25 1.252 . S
C18 O21 1.252 . S
C18 O22 1.260 . S
O19 In13 2.266 . S
O19 C16 1.252 . S
O20 In13 2.326 . S
O20 C16 1.260 . S
O21 In13 2.266 . S
O21 C18 1.252 . S
O22 In13 2.326 . S
O22 C18 1.260 . S
C23 O14 1.240 . S
C23 O15 1.252 . S
O24 In13 2.294 . S
O24 C17 1.240 . S
O25 In13 2.326 . S
O25 C17 1.252 . S
In26 O27 2.294 . S
In26 O28 2.326 . S
In26 O32 2.266 . S
In26 O33 2.326 . S
In26 O34 2.266 . S
In26 O35 2.326 . S
In26 O37 2.294 . S
In26 O38 2.326 . S
O27 In26 2.294 . S
O27 C36 1.240 . S
O28 In26 2.326 . S
O28 C36 1.252 . S
C29 O32 1.252 . S
C29 O33 1.260 . S
C30 O37 1.240 . S
C30 O38 1.252 . S
C31 O34 1.252 . S
C31 O35 1.260 . S
O32 In26 2.266 . S
O32 C29 1.252 . S
O33 In26 2.326 . S
O33 C29 1.260 . S
O34 In26 2.266 . S
O34 C31 1.252 . S
O35 In26 2.326 . S
O35 C31 1.260 . S
C36 O27 1.240 . S
C36 O28 1.252 . S
O37 In26 2.294 . S
O37 C30 1.240 . S
O38 In26 2.326 . S
O38 C30 1.252 . S
In39 O40 2.294 . S
In39 O41 2.326 . S
In39 O45 2.266 . S
In39 O46 2.326 . S
In39 O47 2.266 . S
In39 O48 2.326 . S
In39 O50 2.294 . S
In39 O51 2.326 . S
O40 In39 2.294 . S
O40 C49 1.240 . S
O41 In39 2.326 . S
O41 C49 1.252 . S
C42 O45 1.252 . S
C42 O46 1.260 . S
C43 O50 1.240 . S
C43 O51 1.252 . S
C44 O47 1.252 . S
C44 O48 1.260 . S
O45 In39 2.266 . S
O45 C42 1.252 . S
O46 In39 2.326 . S
O46 C42 1.260 . S
O47 In39 2.266 . S
O47 C44 1.252 . S
O48 In39 2.326 . S
O48 C44 1.260 . S
C49 O40 1.240 . S
C49 O41 1.252 . S
O50 In39 2.294 . S
O50 C43 1.240 . S
O51 In39 2.326 . S
O51 C43 1.252 . S
In52 O53 2.294 . S
In52 O54 2.326 . S
In52 O58 2.266 . S
In52 O59 2.326 . S
In52 O60 2.266 . S
In52 O61 2.326 . S
In52 O63 2.294 . S
In52 O64 2.326 . S
O53 In52 2.294 . S
O53 C62 1.240 . S
O54 In52 2.326 . S
O54 C62 1.252 . S
C55 O58 1.252 . S
C55 O59 1.260 . S
C56 O63 1.240 . S
C56 O64 1.252 . S
C57 O60 1.252 . S
C57 O61 1.260 . S
O58 In52 2.266 . S
O58 C55 1.252 . S
O59 In52 2.326 . S
O59 C55 1.260 . S
O60 In52 2.266 . S
O60 C57 1.252 . S
O61 In52 2.326 . S
O61 C57 1.260 . S
C62 O53 1.240 . S
C62 O54 1.252 . S
O63 In52 2.294 . S
O63 C56 1.240 . S
O64 In52 2.326 . S
O64 C56 1.252 . S
In65 O66 2.294 . S
In65 O67 2.326 . S
In65 O71 2.266 . S
In65 O72 2.326 . S
In65 O73 2.266 . S
In65 O74 2.326 . S
In65 O76 2.294 . S
In65 O77 2.326 . S
O66 In65 2.294 . S
O66 C75 1.240 . S
O67 In65 2.326 . S
O67 C75 1.252 . S
C68 O71 1.252 . S
C68 O72 1.260 . S
C69 O76 1.240 . S
C69 O77 1.252 . S
C70 O73 1.252 . S
C70 O74 1.260 . S
O71 In65 2.266 . S
O71 C68 1.252 . S
O72 In65 2.326 . S
O72 C68 1.260 . S
O73 In65 2.266 . S
O73 C70 1.252 . S
O74 In65 2.326 . S
O74 C70 1.260 . S
C75 O66 1.240 . S
C75 O67 1.252 . S
O76 In65 2.294 . S
O76 C69 1.240 . S
O77 In65 2.326 . S
O77 C69 1.252 . S
In78 O79 2.294 . S
In78 O80 2.326 . S
In78 O84 2.266 . S
In78 O85 2.326 . S
In78 O86 2.266 . S
In78 O87 2.326 . S
In78 O89 2.294 . S
In78 O90 2.326 . S
O79 In78 2.294 . S
O79 C88 1.240 . S
O80 In78 2.326 . S
O80 C88 1.252 . S
C81 O84 1.252 . S
C81 O85 1.260 . S
C82 O89 1.240 . S
C82 O90 1.252 . S
C83 O86 1.252 . S
C83 O87 1.260 . S
O84 In78 2.266 . S
O84 C81 1.252 . S
O85 In78 2.326 . S
O85 C81 1.260 . S
O86 In78 2.266 . S
O86 C83 1.252 . S
O87 In78 2.326 . S
O87 C83 1.260 . S
C88 O79 1.240 . S
C88 O80 1.252 . S
O89 In78 2.294 . S
O89 C82 1.240 . S
O90 In78 2.326 . S
O90 C82 1.252 . S
In91 O92 2.294 . S
In91 O93 2.326 . S
In91 O97 2.266 . S
In91 O98 2.326 . S
In91 O99 2.266 . S
In91 O100 2.326 . S
In91 O102 2.294 . S
In91 O103 2.326 . S
O92 In91 2.294 . S
O92 C101 1.240 . S
O93 In91 2.326 . S
O93 C101 1.252 . S
C94 O97 1.252 . S
C94 O98 1.260 . S
C95 O102 1.240 . S
C95 O103 1.252 . S
C96 O99 1.252 . S
C96 O100 1.260 . S
O97 In91 2.266 . S
O97 C94 1.252 . S
O98 In91 2.326 . S
O98 C94 1.260 . S
O99 In91 2.266 . S
O99 C96 1.252 . S
O100 In91 2.326 . S
O100 C96 1.260 . S
C101 O92 1.240 . S
C101 O93 1.252 . S
O102 In91 2.294 . S
O102 C95 1.240 . S
O103 In91 2.326 . S
O103 C95 1.252 . S
In104 O105 2.294 . S
In104 O106 2.326 . S
In104 O110 2.266 . S
In104 O111 2.326 . S
In104 O112 2.266 . S
In104 O113 2.326 . S
In104 O115 2.294 . S
In104 O116 2.326 . S
O105 In104 2.294 . S
O105 C114 1.240 . S
O106 In104 2.326 . S
O106 C114 1.252 . S
C107 O110 1.252 . S
C107 O111 1.260 . S
C108 O115 1.240 . S
C108 O116 1.252 . S
C109 O112 1.252 . S
C109 O113 1.260 . S
O110 In104 2.266 . S
O110 C107 1.252 . S
O111 In104 2.326 . S
O111 C107 1.260 . S
O112 In104 2.266 . S
O112 C109 1.252 . S
O113 In104 2.326 . S
O113 C109 1.260 . S
C114 O105 1.240 . S
C114 O106 1.252 . S
O115 In104 2.294 . S
O115 C108 1.240 . S
O116 In104 2.326 . S
O116 C108 1.252 . S
In117 O118 2.294 . S
In117 O119 2.326 . S
In117 O123 2.266 . S
In117 O124 2.326 . S
In117 O125 2.266 . S
In117 O126 2.326 . S
In117 O128 2.294 . S
In117 O129 2.326 . S
O118 In117 2.294 . S
O118 C127 1.240 . S
O119 In117 2.326 . S
O119 C127 1.252 . S
C120 O123 1.252 . S
C120 O124 1.260 . S
C121 O128 1.240 . S
C121 O129 1.252 . S
C122 O125 1.252 . S
C122 O126 1.260 . S
O123 In117 2.266 . S
O123 C120 1.252 . S
O124 In117 2.326 . S
O124 C120 1.260 . S
O125 In117 2.266 . S
O125 C122 1.252 . S
O126 In117 2.326 . S
O126 C122 1.260 . S
C127 O118 1.240 . S
C127 O119 1.252 . S
O128 In117 2.294 . S
O128 C121 1.240 . S
O129 In117 2.326 . S
O129 C121 1.252 . S
In130 O131 2.294 . S
In130 O132 2.326 . S
In130 O136 2.266 . S
In130 O137 2.326 . S
In130 O138 2.266 . S
In130 O139 2.326 . S
In130 O141 2.294 . S
In130 O142 2.326 . S
O131 In130 2.294 . S
O131 C140 1.240 . S
O132 In130 2.326 . S
O132 C140 1.252 . S
C133 O136 1.252 . S
C133 O137 1.260 . S
C134 O141 1.240 . S
C134 O142 1.252 . S
C135 O138 1.252 . S
C135 O139 1.260 . S
O136 In130 2.266 . S
O136 C133 1.252 . S
O137 In130 2.326 . S
O137 C133 1.260 . S
O138 In130 2.266 . S
O138 C135 1.252 . S
O139 In130 2.326 . S
O139 C135 1.260 . S
C140 O131 1.240 . S
C140 O132 1.252 . S
O141 In130 2.294 . S
O141 C134 1.240 . S
O142 In130 2.326 . S
O142 C134 1.252 . S
In143 O144 2.294 . S
In143 O145 2.326 . S
In143 O149 2.266 . S
In143 O150 2.326 . S
In143 O151 2.266 . S
In143 O152 2.326 . S
In143 O154 2.294 . S
In143 O155 2.326 . S
O144 In143 2.294 . S
O144 C153 1.240 . S
O145 In143 2.326 . S
O145 C153 1.252 . S
C146 O149 1.252 . S
C146 O150 1.260 . S
C147 O154 1.240 . S
C147 O155 1.252 . S
C148 O151 1.252 . S
C148 O152 1.260 . S
O149 In143 2.266 . S
O149 C146 1.252 . S
O150 In143 2.326 . S
O150 C146 1.260 . S
O151 In143 2.266 . S
O151 C148 1.252 . S
O152 In143 2.326 . S
O152 C148 1.260 . S
C153 O144 1.240 . S
C153 O145 1.252 . S
O154 In143 2.294 . S
O154 C147 1.240 . S
O155 In143 2.326 . S
O155 C147 1.252 . S
C156 C157 1.387 . S
C156 H160 0.950 . S
C156 C165 1.390 . S
C157 C156 1.387 . S
C157 C159 1.387 . S
H158 C165 0.950 . S
C159 C157 1.387 . S
C159 C161 1.390 . S
C159 H163 0.950 . S
H160 C156 0.950 . S
C161 C159 1.390 . S
C161 C162 1.387 . S
C161 H164 0.950 . S
C162 C161 1.387 . S
C162 C165 1.387 . S
H163 C159 0.950 . S
H164 C161 0.950 . S
C165 C156 1.390 . S
C165 H158 0.950 . S
C165 C162 1.387 . S
C166 C167 1.387 . S
C166 H170 0.950 . S
C166 C175 1.390 . S
C167 C166 1.387 . S
C167 C169 1.387 . S
H168 C175 0.950 . S
C169 C167 1.387 . S
C169 C171 1.390 . S
C169 H173 0.950 . S
H170 C166 0.950 . S
C171 C169 1.390 . S
C171 C172 1.387 . S
C171 H174 0.950 . S
C172 C171 1.387 . S
C172 C175 1.387 . S
H173 C169 0.950 . S
H174 C171 0.950 . S
C175 C166 1.390 . S
C175 H168 0.950 . S
C175 C172 1.387 . S
C176 C177 1.387 . S
C176 H180 0.950 . S
C176 C185 1.390 . S
C177 C176 1.387 . S
C177 C179 1.387 . S
H178 C185 0.950 . S
C179 C177 1.387 . S
C179 C181 1.390 . S
C179 H183 0.950 . S
H180 C176 0.950 . S
C181 C179 1.390 . S
C181 C182 1.387 . S
C181 H184 0.950 . S
C182 C181 1.387 . S
C182 C185 1.387 . S
H183 C179 0.950 . S
H184 C181 0.950 . S
C185 C176 1.390 . S
C185 H178 0.950 . S
C185 C182 1.387 . S
C186 C187 1.387 . S
C186 H190 0.950 . S
C186 C195 1.390 . S
C187 C186 1.387 . S
C187 C189 1.387 . S
H188 C195 0.950 . S
C189 C187 1.387 . S
C189 C191 1.390 . S
C189 H193 0.950 . S
H190 C186 0.950 . S
C191 C189 1.390 . S
C191 C192 1.387 . S
C191 H194 0.950 . S
C192 C191 1.387 . S
C192 C195 1.387 . S
H193 C189 0.950 . S
H194 C191 0.950 . S
C195 C186 1.390 . S
C195 H188 0.950 . S
C195 C192 1.387 . S
C196 C197 1.387 . S
C196 H200 0.950 . S
C196 C205 1.390 . S
C197 C196 1.387 . S
C197 C199 1.387 . S
H198 C205 0.950 . S
C199 C197 1.387 . S
C199 C201 1.390 . S
C199 H203 0.950 . S
H200 C196 0.950 . S
C201 C199 1.390 . S
C201 C202 1.387 . S
C201 H204 0.950 . S
C202 C201 1.387 . S
C202 C205 1.387 . S
H203 C199 0.950 . S
H204 C201 0.950 . S
C205 C196 1.390 . S
C205 H198 0.950 . S
C205 C202 1.387 . S
C206 C207 1.387 . S
C206 H210 0.950 . S
C206 C215 1.390 . S
C207 C206 1.387 . S
C207 C209 1.387 . S
H208 C215 0.950 . S
C209 C207 1.387 . S
C209 C211 1.390 . S
C209 H213 0.950 . S
H210 C206 0.950 . S
C211 C209 1.390 . S
C211 C212 1.387 . S
C211 H214 0.950 . S
C212 C211 1.387 . S
C212 C215 1.387 . S
H213 C209 0.950 . S
H214 C211 0.950 . S
C215 C206 1.390 . S
C215 H208 0.950 . S
C215 C212 1.387 . S
C216 C217 1.387 . S
C216 H220 0.950 . S
C216 C225 1.390 . S
C217 C216 1.387 . S
C217 C219 1.387 . S
H218 C225 0.950 . S
C219 C217 1.387 . S
C219 C221 1.390 . S
C219 H223 0.950 . S
H220 C216 0.950 . S
C221 C219 1.390 . S
C221 C222 1.387 . S
C221 H224 0.950 . S
C222 C221 1.387 . S
C222 C225 1.387 . S
H223 C219 0.950 . S
H224 C221 0.950 . S
C225 C216 1.390 . S
C225 H218 0.950 . S
C225 C222 1.387 . S
C226 C227 1.397 . S
C226 H230 0.953 . S
C226 C235 1.377 1_655 S
C227 C226 1.397 . S
C227 C229 1.387 . S
H228 C235 0.950 . S
C229 C227 1.387 . S
C229 C231 1.377 1_655 S
C229 H233 0.950 . S
H230 C226 0.953 . S
C231 C229 1.377 1_455 S
C231 C232 1.397 . S
C231 H234 0.953 . S
C232 C231 1.397 . S
C232 C235 1.387 . S
H233 C229 0.950 . S
H234 C231 0.953 . S
C235 C226 1.377 1_455 S
C235 H228 0.950 . S
C235 C232 1.387 . S
C236 C237 1.387 . S
C236 H240 0.950 . S
C236 C245 1.390 1_545 S
C237 C236 1.387 . S
C237 C239 1.387 . S
H238 C245 0.950 . S
C239 C237 1.387 . S
C239 C241 1.390 1_545 S
C239 H243 0.950 . S
H240 C236 0.950 . S
C241 C239 1.390 1_565 S
C241 C242 1.387 . S
C241 H244 0.950 . S
C242 C241 1.387 . S
C242 C245 1.387 . S
H243 C239 0.950 . S
H244 C241 0.950 . S
C245 C236 1.390 1_565 S
C245 H238 0.950 . S
C245 C242 1.387 . S
C246 C247 1.387 . S
C246 H250 0.950 . S
C246 C255 1.390 . S
C247 C246 1.387 . S
C247 C249 1.387 . S
H248 C255 0.950 . S
C249 C247 1.387 . S
C249 C251 1.390 . S
C249 H253 0.950 . S
H250 C246 0.950 . S
C251 C249 1.390 . S
C251 C252 1.387 . S
C251 H254 0.950 . S
C252 C251 1.387 . S
C252 C255 1.387 . S
H253 C249 0.950 . S
H254 C251 0.950 . S
C255 C246 1.390 . S
C255 H248 0.950 . S
C255 C252 1.387 . S
C256 C257 1.387 . S
C256 H260 0.950 . S
C256 C265 1.390 1_655 S
C257 C256 1.387 . S
C257 C259 1.387 . S
H258 C265 0.950 . S
C259 C257 1.387 . S
C259 C261 1.390 1_655 S
C259 H263 0.950 . S
H260 C256 0.950 . S
C261 C259 1.390 1_455 S
C261 C262 1.387 . S
C261 H264 0.950 . S
C262 C261 1.387 . S
C262 C265 1.387 . S
H263 C259 0.950 . S
H264 C261 0.950 . S
C265 C256 1.390 1_455 S
C265 H258 0.950 . S
C265 C262 1.387 . S
C266 C267 1.387 . S
C266 H270 0.950 . S
C266 C275 1.390 1_564 S
C267 C266 1.387 . S
C267 C269 1.387 . S
H268 C275 0.950 . S
C269 C267 1.387 . S
C269 C271 1.390 1_564 S
C269 H273 0.950 . S
H270 C266 0.950 . S
C271 C269 1.390 1_546 S
C271 C272 1.387 . S
C271 H274 0.950 . S
C272 C271 1.387 . S
C272 C275 1.387 . S
H273 C269 0.950 . S
H274 C271 0.950 . S
C275 C266 1.390 1_546 S
C275 H268 0.950 . S
C275 C272 1.387 . S
C276 C277 1.387 . S
C276 H280 0.950 . S
C276 C285 1.390 . S
C277 C276 1.387 . S
C277 C279 1.387 . S
H278 C285 0.950 . S
C279 C277 1.387 . S
C279 C281 1.390 1_554 S
C279 H283 0.949 . S
H280 C276 0.950 . S
C281 C279 1.390 1_556 S
C281 C282 1.387 . S
C281 H284 0.950 . S
C282 C281 1.387 . S
C282 C285 1.387 1_556 S
H283 C279 0.949 . S
H284 C281 0.950 . S
C285 C276 1.390 . S
C285 H278 0.950 . S
C285 C282 1.387 1_554 S
C286 C287 1.387 . S
C286 H290 0.950 . S
C286 C295 1.390 1_655 S
C287 C286 1.387 . S
C287 C289 1.387 . S
H288 C295 0.950 . S
C289 C287 1.387 . S
C289 C291 1.390 . S
C289 H293 0.950 . S
H290 C286 0.950 . S
C291 C289 1.390 . S
C291 C292 1.387 1_655 S
C291 H294 0.950 . S
C292 C291 1.387 1_455 S
C292 C295 1.387 . S
H293 C289 0.950 . S
H294 C291 0.950 . S
C295 C286 1.390 1_455 S
C295 H288 0.950 . S
C295 C292 1.387 . S
C296 C297 1.387 1_565 S
C296 H300 0.950 . S
C296 C305 1.390 . S
C297 C296 1.387 1_545 S
C297 C299 1.387 . S
H298 C305 0.950 . S
C299 C297 1.387 . S
C299 C301 1.390 1_545 S
C299 H303 0.950 . S
H300 C296 0.950 . S
C301 C299 1.390 1_565 S
C301 C302 1.387 . S
C301 H304 0.950 . S
C302 C301 1.387 . S
C302 C305 1.387 . S
H303 C299 0.950 . S
H304 C301 0.950 . S
C305 C296 1.390 . S
C305 H298 0.950 . S
C305 C302 1.387 . S
C306 C307 1.387 . S
C306 H310 0.950 . S
C306 C315 1.390 . S
C307 C306 1.387 . S
C307 C309 1.387 . S
H308 C315 0.950 . S
C309 C307 1.387 . S
C309 C311 1.390 . S
C309 H313 0.950 . S
H310 C306 0.950 . S
C311 C309 1.390 . S
C311 C312 1.387 . S
C311 H314 0.950 . S
C312 C311 1.387 . S
C312 C315 1.387 . S
H313 C309 0.950 . S
H314 C311 0.950 . S
C315 C306 1.390 . S
C315 H308 0.950 . S
C315 C312 1.387 . S
C316 C317 1.387 . S
C316 H320 0.950 . S
C316 C325 1.390 . S
C317 C316 1.387 . S
C317 C319 1.387 . S
H318 C325 0.950 . S
C319 C317 1.387 . S
C319 C321 1.390 1_455 S
C319 H323 0.950 . S
H320 C316 0.950 . S
C321 C319 1.390 1_655 S
C321 C322 1.387 . S
C321 H324 0.950 . S
C322 C321 1.387 . S
C322 C325 1.387 1_655 S
H323 C319 0.950 . S
H324 C321 0.950 . S
C325 C316 1.390 . S
C325 H318 0.950 . S
C325 C322 1.387 1_455 S
C326 C327 1.387 . S
C326 H330 0.950 . S
C326 C335 1.390 1_545 S
C327 C326 1.387 . S
C327 C329 1.387 . S
H328 C335 0.950 . S
C329 C327 1.387 . S
C329 C331 1.390 . S
C329 H333 0.950 . S
H330 C326 0.950 . S
C331 C329 1.390 . S
C331 C332 1.387 1_545 S
C331 H334 0.950 . S
C332 C331 1.387 1_565 S
C332 C335 1.387 . S
H333 C329 0.950 . S
H334 C331 0.950 . S
C335 C326 1.390 1_565 S
C335 H328 0.950 . S
C335 C332 1.387 . S
C336 C337 1.387 . S
C336 H340 0.950 . S
C336 C345 1.390 . S
C337 C336 1.387 . S
C337 C339 1.387 . S
H338 C345 0.950 . S
C339 C337 1.387 . S
C339 C341 1.390 . S
C339 H343 0.950 . S
H340 C336 0.950 . S
C341 C339 1.390 . S
C341 C342 1.387 . S
C341 H344 0.950 . S
C342 C341 1.387 . S
C342 C345 1.387 . S
H343 C339 0.950 . S
H344 C341 0.950 . S
C345 C336 1.390 . S
C345 H338 0.950 . S
C345 C342 1.387 . S
C346 C347 1.387 . S
C346 H350 0.950 . S
C346 C355 1.390 . S
C347 C346 1.387 . S
C347 C349 1.387 . S
H348 C355 0.950 1_454 S
C349 C347 1.387 . S
C349 C351 1.390 1_556 S
C349 H353 0.950 . S
H350 C346 0.950 . S
C351 C349 1.390 1_554 S
C351 C352 1.387 1_655 S
C351 H354 0.950 1_655 S
C352 C351 1.387 1_455 S
C352 C355 1.387 1_454 S
H353 C349 0.950 . S
H354 C351 0.950 1_455 S
C355 C346 1.390 . S
C355 H348 0.950 1_656 S
C355 C352 1.387 1_656 S
C356 C357 1.387 . S
C356 H360 0.950 . S
C356 C365 1.390 1_565 S
C357 C356 1.387 . S
C357 C359 1.387 . S
H358 C365 0.950 . S
C359 C357 1.387 . S
C359 C361 1.390 . S
C359 H363 0.950 . S
H360 C356 0.950 . S
C361 C359 1.390 . S
C361 C362 1.387 1_565 S
C361 H364 0.950 . S
C362 C361 1.387 1_545 S
C362 C365 1.387 . S
H363 C359 0.950 . S
H364 C361 0.950 . S
C365 C356 1.390 1_545 S
C365 H358 0.950 . S
C365 C362 1.387 . S
C366 C367 1.387 . S
C366 H370 0.950 . S
C366 C375 1.390 . S
C367 C366 1.387 . S
C367 C369 1.387 . S
H368 C375 0.950 . S
C369 C367 1.387 . S
C369 C371 1.390 . S
C369 H373 0.950 . S
H370 C366 0.950 . S
C371 C369 1.390 . S
C371 C372 1.387 . S
C371 H374 0.950 . S
C372 C371 1.387 . S
C372 C375 1.387 . S
H373 C369 0.950 . S
H374 C371 0.950 . S
C375 C366 1.390 . S
C375 H368 0.950 . S
C375 C372 1.387 . S
C376 C377 1.387 . S
C376 H380 0.950 . S
C376 C385 1.390 1_455 S
C377 C376 1.387 . S
C377 C379 1.387 . S
H378 C385 0.950 . S
C379 C377 1.387 . S
C379 C381 1.390 . S
C379 H383 0.950 . S
H380 C376 0.950 . S
C381 C379 1.390 . S
C381 C382 1.387 1_455 S
C381 H384 0.950 . S
C382 C381 1.387 1_655 S
C382 C385 1.387 . S
H383 C379 0.950 . S
H384 C381 0.950 . S
C385 C376 1.390 1_655 S
C385 H378 0.950 . S
C385 C382 1.387 . S
C386 C387 1.387 . S
C386 H390 0.950 . S
C386 C395 1.390 1_565 S
C387 C386 1.387 . S
C387 C389 1.387 1_565 S
H388 C395 0.950 . S
C389 C387 1.387 1_545 S
C389 C391 1.390 . S
C389 H393 0.950 . S
H390 C386 0.950 . S
C391 C389 1.390 . S
C391 C392 1.387 . S
C391 H394 0.950 . S
C392 C391 1.387 . S
C392 C395 1.387 . S
H393 C389 0.950 . S
H394 C391 0.950 . S
C395 C386 1.390 1_545 S
C395 H388 0.950 . S
C395 C392 1.387 . S
C157 C108 1.312 . S
C162 C4 1.312 . S
C167 C17 1.313 . S
C172 C127 1.313 . S
C177 C30 1.312 . S
C182 C140 1.313 . S
C187 C49 1.312 . S
C192 C153 1.312 . S
C197 C88 1.313 . S
C202 C56 1.313 . S
C207 C69 1.313 . S
C212 C95 1.312 . S
C217 C120 1.149 . S
C222 C5 1.150 . S
C227 C18 1.149 . S
C232 C133 1.150 . S
C237 C146 1.150 . S
C242 C31 1.150 . S
C247 C42 1.149 . S
C252 C81 1.149 . S
C257 C96 1.150 . S
C262 C57 1.150 . S
C267 C109 1.150 . S
C272 C70 1.150 . S
C277 C3 1.592 . S
C282 C75 1.601 . S
C287 C16 1.593 . S
C292 C10 1.600 . S
C297 C23 1.602 . S
C302 C29 1.593 . S
C307 C44 1.593 . S
C312 C36 1.601 . S
C317 C55 1.593 . S
C322 C43 1.602 . S
C327 C68 1.592 . S
C332 C62 1.601 . S
C337 C83 1.594 . S
C342 C101 1.600 . S
C347 C94 1.594 . S
C352 C114 1.601 . S
C357 C107 1.593 . S
C362 C121 1.600 . S
C367 C122 1.594 . S
C372 C134 1.600 . S
C377 C135 1.592 . S
C382 C147 1.601 . S
C387 C82 1.601 . S
C392 C148 1.592 . S
