# Generated by pormake.
# Topology vmb, (5)-cn, num edge types: 1
# Building blocks:
#     Node 0, Type 0, BuildingBlock: XOMCOT_clean_sbu_1, # of connection points: 5
#     Node 1, Type 0, BuildingBlock: XOMCOT_clean_sbu_1, # of connection points: 5
#     Node 2, Type 0, BuildingBlock: XOMCOT_clean_sbu_1, # of connection points: 5
#     Node 3, Type 0, BuildingBlock: XOMCOT_clean_sbu_1, # of connection points: 5
#     Node 4, Type 0, BuildingBlock: XOMCOT_clean_sbu_1, # of connection points: 5
#     Node 5, Type 0, BuildingBlock: XOMCOT_clean_sbu_1, # of connection points: 5
#     Node 6, Type 0, BuildingBlock: XOMCOT_clean_sbu_1, # of connection points: 5
#     Node 7, Type 0, BuildingBlock: XOMCOT_clean_sbu_1, # of connection points: 5
#     Edge 8, Type (0, 0), BuildingBlock: CIFDUS_clean_linker_0, # of connection points: 2
#     Edge 9, Type (0, 0), BuildingBlock: CIFDUS_clean_linker_0, # of connection points: 2
#     Edge 10, Type (0, 0), BuildingBlock: CIFDUS_clean_linker_0, # of connection points: 2
#     Edge 11, Type (0, 0), BuildingBlock: CIFDUS_clean_linker_0, # of connection points: 2
#     Edge 12, Type (0, 0), BuildingBlock: CIFDUS_clean_linker_0, # of connection points: 2
#     Edge 13, Type (0, 0), BuildingBlock: CIFDUS_clean_linker_0, # of connection points: 2
#     Edge 14, Type (0, 0), BuildingBlock: CIFDUS_clean_linker_0, # of connection points: 2
#     Edge 15, Type (0, 0), BuildingBlock: CIFDUS_clean_linker_0, # of connection points: 2
#     Edge 16, Type (0, 0), BuildingBlock: CIFDUS_clean_linker_0, # of connection points: 2
#     Edge 17, Type (0, 0), BuildingBlock: CIFDUS_clean_linker_0, # of connection points: 2
#     Edge 18, Type (0, 0), BuildingBlock: CIFDUS_clean_linker_0, # of connection points: 2
#     Edge 19, Type (0, 0), BuildingBlock: CIFDUS_clean_linker_0, # of connection points: 2
#     Edge 20, Type (0, 0), BuildingBlock: CIFDUS_clean_linker_0, # of connection points: 2
#     Edge 21, Type (0, 0), BuildingBlock: CIFDUS_clean_linker_0, # of connection points: 2
#     Edge 22, Type (0, 0), BuildingBlock: CIFDUS_clean_linker_0, # of connection points: 2
#     Edge 23, Type (0, 0), BuildingBlock: CIFDUS_clean_linker_0, # of connection points: 2
#     Edge 24, Type (0, 0), BuildingBlock: CIFDUS_clean_linker_0, # of connection points: 2
#     Edge 25, Type (0, 0), BuildingBlock: CIFDUS_clean_linker_0, # of connection points: 2
#     Edge 26, Type (0, 0), BuildingBlock: CIFDUS_clean_linker_0, # of connection points: 2
#     Edge 27, Type (0, 0), BuildingBlock: CIFDUS_clean_linker_0, # of connection points: 2
# Relax obj value: 0.080
# Max RMSD: 0.121
# Mean RMSD: 0.121
data_MOF--net-vmb--node1-XOMCOT_clean_sbu_1--edge1-CIFDUS_clean_linker_0
_symmetry_space_group_name_H-M    P1
_symmetry_Int_Tables_number       1
_symmetry_cell_setting            triclinic
loop_
_symmetry_equiv_pos_as_xyz
'x, y, z'
_cell_length_a     34.246235
_cell_length_b     42.956988
_cell_length_c     23.94985
_cell_angle_alpha  89.821045
_cell_angle_beta   118.18488
_cell_angle_gamma 89.959167
loop_
_atom_site_label
_atom_site_type_symbol
_atom_site_fract_x
_atom_site_fract_y
_atom_site_fract_z
_atom_type_partial_charge
C0 C 0.20735 0.06055 0.27284 0.0
C1 C 0.16283 0.05861 0.25354 0.0
N2 N 0.15717 0.0509 0.30383 0.0
N3 N 0.23033 0.054 0.33514 0.0
C4 C 0.19886 0.04834 0.35305 0.0
H5 H 0.22212 0.0672 0.24345 0.0
Co6 Co 0.29228 0.05634 0.3772 0.0
C7 C 0.32426 0.03658 0.51046 0.0
O8 O 0.3554 0.0576 0.52545 0.0
N9 N 0.35605 0.05889 0.41713 0.0
C10 C 0.42535 0.07633 0.45612 0.0
C11 C 0.3818 0.08464 0.43301 0.0
C12 C 0.38561 0.03508 0.43159 0.0
N13 N 0.42798 0.04514 0.45495 0.0
O14 O 0.29417 0.01914 0.3339 0.0
H15 H 0.37064 0.10836 0.42865 0.0
H16 H 0.3761 0.01083 0.42363 0.0
O17 O 0.29571 0.03277 0.45185 0.0
C18 C 0.30067 0.02759 0.28765 0.0
O19 O 0.30967 0.05705 0.28399 0.0
N20 N 0.2875 0.09479 0.41039 0.0
C21 C 0.28076 0.15605 0.4424 0.0
C22 C 0.27426 0.13122 0.47531 0.0
C23 C 0.2768 0.10062 0.45759 0.0
C24 C 0.28891 0.11863 0.37373 0.0
C25 C 0.28687 0.14948 0.38985 0.0
H26 H 0.26945 0.08201 0.48137 0.0
H27 H 0.29363 0.11355 0.3331 0.0
H28 H 0.20638 0.0429 0.40124 0.0
H29 H 0.13667 0.06381 0.20638 0.0
H30 H 0.45306 0.09223 0.47276 0.0
H31 H 0.26782 0.13537 0.51479 0.0
H32 H 0.29013 0.16799 0.36152 0.0
C33 C 0.85593 0.08166 0.25439 0.0
C34 C 0.90067 0.07877 0.27599 0.0
N35 N 0.90743 0.05963 0.23686 0.0
N36 N 0.83393 0.06445 0.20174 0.0
C37 C 0.86619 0.0513 0.19192 0.0
H38 H 0.84029 0.09623 0.27486 0.0
Co39 Co 0.77176 0.06415 0.15751 0.0
C40 C 0.74552 0.04635 0.0257 0.0
O41 O 0.71564 0.06847 0.01015 0.0
N42 N 0.70836 0.06352 0.11476 0.0
C43 C 0.63576 0.07368 0.06719 0.0
C44 C 0.67753 0.08646 0.09609 0.0
C45 C 0.68395 0.03704 0.09701 0.0
N46 N 0.63984 0.04255 0.06793 0.0
O47 O 0.77117 0.02698 0.20307 0.0
H48 H 0.68399 0.11105 0.10263 0.0
H49 H 0.69835 0.01397 0.10485 0.0
O50 O 0.77148 0.04051 0.08477 0.0
C51 C 0.76986 0.03646 0.25285 0.0
O52 O 0.76964 0.06662 0.26161 0.0
N53 N 0.77413 0.10276 0.12183 0.0
C54 C 0.78123 0.16371 0.08723 0.0
C55 C 0.79451 0.13858 0.06287 0.0
C56 C 0.79211 0.10828 0.08247 0.0
C57 C 0.76488 0.1271 0.15004 0.0
C58 C 0.76722 0.15773 0.13249 0.0
H59 H 0.80566 0.08954 0.06701 0.0
H60 H 0.75517 0.12261 0.18622 0.0
H61 H 0.85954 0.03625 0.1523 0.0
H62 H 0.92616 0.09095 0.31611 0.0
H63 H 0.60477 0.08633 0.04888 0.0
H64 H 0.80774 0.14238 0.03031 0.0
H65 H 0.75771 0.17649 0.15374 0.0
C66 C 0.8601 0.93215 0.76365 0.0
C67 C 0.90356 0.93507 0.77693 0.0
N68 N 0.905 0.93697 0.72186 0.0
N69 N 0.83377 0.93257 0.70033 0.0
C70 C 0.86227 0.93541 0.67608 0.0
H71 H 0.84892 0.92874 0.79846 0.0
Co72 Co 0.77198 0.92697 0.65944 0.0
C73 C 0.73869 0.95764 0.5325 0.0
O74 O 0.70668 0.93702 0.50845 0.0
N75 N 0.70953 0.92132 0.61997 0.0
C76 C 0.64209 0.90086 0.58283 0.0
C77 C 0.68648 0.89443 0.60653 0.0
C78 C 0.67812 0.94377 0.60456 0.0
N79 N 0.63672 0.93196 0.58153 0.0
O80 O 0.76656 0.95941 0.71195 0.0
H81 H 0.70061 0.87138 0.61428 0.0
H82 H 0.68568 0.96837 0.61125 0.0
O83 O 0.7661 0.9569 0.59209 0.0
C84 C 0.7645 0.94553 0.75794 0.0
O85 O 0.76343 0.91494 0.75738 0.0
N86 N 0.77932 0.89249 0.61633 0.0
C87 C 0.79474 0.8353 0.57407 0.0
C88 C 0.79044 0.8629 0.53999 0.0
C89 C 0.78406 0.8913 0.5628 0.0
C90 C 0.78562 0.86622 0.65161 0.0
C91 C 0.79319 0.83747 0.63147 0.0
H92 H 0.78457 0.91194 0.53787 0.0
H93 H 0.78453 0.86764 0.69593 0.0
H94 H 0.85208 0.93575 0.62592 0.0
H95 H 0.93211 0.93416 0.82354 0.0
H96 H 0.61578 0.88384 0.56763 0.0
H97 H 0.79195 0.86281 0.49587 0.0
H98 H 0.7982 0.81726 0.66121 0.0
C99 C 0.2048 0.88927 0.79619 0.0
C100 C 0.15948 0.89235 0.76805 0.0
N101 N 0.14973 0.92165 0.77706 0.0
N102 N 0.22401 0.91638 0.82397 0.0
C103 C 0.1894 0.93595 0.80922 0.0
H104 H 0.2223 0.86823 0.79707 0.0
Co105 Co 0.28555 0.92465 0.8723 0.0
C106 C 0.2494 0.95197 0.95569 0.0
O107 O 0.21787 0.93103 0.93841 0.0
N108 N 0.34674 0.93333 0.92039 0.0
C109 C 0.41241 0.9415 1.00436 0.0
C110 C 0.37005 0.93129 0.9842 0.0
C111 C 0.37601 0.94553 0.90307 0.0
N112 N 0.41631 0.95063 0.95353 0.0
O113 O 0.27892 0.9593 0.81637 0.0
H114 H 0.35682 0.92455 0.01526 0.0
H115 H 0.36771 0.95134 0.85478 0.0
O116 O 0.27575 0.95163 0.93147 0.0
C117 C 0.27225 0.94917 0.76234 0.0
O118 O 0.27002 0.91898 0.7529 0.0
N119 N 0.29334 0.88818 0.92163 0.0
C120 C 0.30413 0.82879 0.97526 0.0
C121 C 0.29703 0.85473 1.00461 0.0
C122 C 0.29227 0.88419 0.9776 0.0
C123 C 0.30279 0.86344 0.89451 0.0
C124 C 0.30777 0.83349 0.91996 0.0
H125 H 0.28955 0.90338 1.00394 0.0
H126 H 0.30543 0.86695 0.85167 0.0
H127 H 0.1933 0.95999 0.82422 0.0
H128 H 0.13567 0.87387 0.74587 0.0
H129 H 0.43764 0.94395 0.05322 0.0
H130 H 0.2946 0.85234 0.0479 0.0
H131 H 0.3144 0.81426 0.89652 0.0
C132 C 0.68989 0.59027 0.24774 0.0
C133 C 0.64524 0.58702 0.22715 0.0
N134 N 0.63968 0.56618 0.26477 0.0
N135 N 0.71311 0.57239 0.29966 0.0
C136 C 0.68112 0.5569 0.30669 0.0
H137 H 0.70426 0.60456 0.22503 0.0
Co138 Co 0.77624 0.5688 0.34217 0.0
C139 C 0.75794 0.54784 0.44634 0.0
O140 O 0.73377 0.57297 0.43777 0.0
N141 N 0.83782 0.56481 0.38049 0.0
C142 C 0.90853 0.57433 0.40925 0.0
C143 C 0.86647 0.58678 0.38236 0.0
C144 C 0.863 0.53911 0.4057 0.0
N145 N 0.90635 0.54423 0.4237 0.0
O146 O 0.77112 0.53306 0.2916 0.0
H147 H 0.85713 0.61013 0.36369 0.0
H148 H 0.8495 0.5169 0.40944 0.0
O149 O 0.77536 0.54268 0.41007 0.0
C150 C 0.77044 0.54133 0.23993 0.0
O151 O 0.77145 0.5712 0.22877 0.0
N152 N 0.78298 0.60585 0.3891 0.0
C153 C 0.79174 0.66212 0.45161 0.0
C154 C 0.81139 0.63502 0.48601 0.0
C155 C 0.80806 0.60731 0.45363 0.0
C156 C 0.76707 0.63269 0.3552 0.0
C157 C 0.77057 0.66102 0.38546 0.0
H158 H 0.8253 0.58693 0.48061 0.0
H159 H 0.75255 0.63255 0.30444 0.0
H160 H 0.68757 0.53838 0.34046 0.0
H161 H 0.61902 0.59954 0.18819 0.0
H162 H 0.93808 0.5862 0.41508 0.0
H163 H 0.8296 0.63537 0.53728 0.0
H164 H 0.75641 0.68182 0.35736 0.0
C165 C 0.34926 0.56874 0.2569 0.0
C166 C 0.39337 0.5668 0.27298 0.0
N167 N 0.39674 0.55621 0.22255 0.0
N168 N 0.32456 0.55922 0.19667 0.0
C169 C 0.35448 0.55171 0.17688 0.0
H170 H 0.33608 0.57771 0.28668 0.0
Co171 Co 0.2626 0.56089 0.15411 0.0
C172 C 0.23477 0.53315 0.02849 0.0
O173 O 0.20402 0.55477 1.00388 0.0
N174 N 0.19957 0.5623 0.11306 0.0
C175 C 0.1283 0.57536 0.07303 0.0
C176 C 0.17097 0.58645 0.09786 0.0
C177 C 0.17315 0.53683 0.09755 0.0
N178 N 0.12967 0.54404 0.073 0.0
O179 O 0.26053 0.52651 0.20397 0.0
H180 H 0.17986 0.6107 0.10545 0.0
H181 H 0.18583 0.51328 0.10416 0.0
O182 O 0.26063 0.53251 0.08842 0.0
C183 C 0.25725 0.53574 0.25217 0.0
O184 O 0.25566 0.56581 0.26081 0.0
N185 N 0.26634 0.59655 0.1107 0.0
C186 C 0.27642 0.65385 0.06383 0.0
C187 C 0.2842 0.62604 0.04038 0.0
C188 C 0.28023 0.59765 0.0657 0.0
C189 C 0.26169 0.62347 0.13692 0.0
C190 C 0.26579 0.6524 0.11355 0.0
H191 H 0.28983 0.57693 0.05012 0.0
H192 H 0.25466 0.62242 0.17644 0.0
H193 H 0.34552 0.54375 0.12956 0.0
H194 H 0.42076 0.57418 0.3174 0.0
H195 H 0.09875 0.58937 0.05823 0.0
H196 H 0.29457 0.62625 1.00409 0.0
H197 H 0.26042 0.67339 0.13397 0.0
C198 C 0.34472 0.40299 0.75079 0.0
C199 C 0.38902 0.40424 0.76788 0.0
N200 N 0.39399 0.42068 0.72362 0.0
N201 N 0.32141 0.41866 0.69608 0.0
C202 C 0.35231 0.42912 0.68039 0.0
H203 H 0.33028 0.3905 0.77577 0.0
Co204 Co 0.25943 0.4205 0.65474 0.0
C205 C 0.23393 0.44651 0.52755 0.0
O206 O 0.20172 0.42604 0.50307 0.0
N207 N 0.19642 0.42251 0.61488 0.0
C208 C 0.1248 0.4129 0.58099 0.0
C209 C 0.16651 0.40009 0.60663 0.0
C210 C 0.17169 0.44888 0.59476 0.0
N211 N 0.12791 0.4437 0.5734 0.0
O212 O 0.26139 0.4561 0.7036 0.0
H213 H 0.17384 0.37602 0.62022 0.0
H214 H 0.18586 0.47156 0.59626 0.0
O215 O 0.25951 0.44698 0.58753 0.0
C216 C 0.2598 0.4469 0.75318 0.0
O217 O 0.25779 0.41684 0.7618 0.0
N218 N 0.25877 0.38345 0.61307 0.0
C219 C 0.25803 0.32357 0.56808 0.0
C220 C 0.26983 0.34921 0.54275 0.0
C221 C 0.27121 0.37895 0.5672 0.0
C222 C 0.25166 0.35847 0.64215 0.0
C223 C 0.25009 0.32844 0.61963 0.0
H224 H 0.28307 0.39796 0.54988 0.0
H225 H 0.24689 0.362 0.68323 0.0
H226 H 0.3444 0.44224 0.63774 0.0
H227 H 0.41532 0.39276 0.80854 0.0
H228 H 0.09478 0.40048 0.57116 0.0
H229 H 0.27788 0.34639 0.50443 0.0
H230 H 0.24335 0.30917 0.64307 0.0
C231 C 0.68862 0.41557 0.73631 0.0
C232 C 0.64403 0.4161 0.71818 0.0
N233 N 0.63866 0.4257 0.76768 0.0
N234 N 0.71155 0.42486 0.79695 0.0
C235 C 0.68027 0.4309 0.81487 0.0
H236 H 0.7035 0.40813 0.70755 0.0
Co237 Co 0.77336 0.42577 0.84194 0.0
C238 C 0.79545 0.45095 0.96826 0.0
O239 O 0.82753 0.43033 0.994 0.0
N240 N 0.83655 0.42703 0.88616 0.0
C241 C 0.90867 0.41605 0.92999 0.0
C242 C 0.86667 0.40379 0.90252 0.0
C243 C 0.86155 0.45325 0.90395 0.0
N244 N 0.90557 0.44726 0.93087 0.0
O245 O 0.77305 0.46186 0.79453 0.0
H246 H 0.85942 0.37935 0.89406 0.0
H247 H 0.84751 0.4764 0.89705 0.0
O248 O 0.77116 0.45176 0.90798 0.0
C249 C 0.78178 0.45441 0.75004 0.0
O250 O 0.79179 0.42524 0.74606 0.0
N251 N 0.77175 0.38826 0.88142 0.0
C252 C 0.76587 0.32764 0.91912 0.0
C253 C 0.75569 0.35324 0.94623 0.0
C254 C 0.75774 0.38339 0.92556 0.0
C255 C 0.77845 0.36355 0.85145 0.0
C256 C 0.77674 0.33313 0.87042 0.0
H257 H 0.74662 0.40239 0.94379 0.0
H258 H 0.78577 0.36763 0.81277 0.0
H259 H 0.6879 0.4386 0.86187 0.0
H260 H 0.6178 0.4088 0.67267 0.0
H261 H 0.93907 0.40291 0.94594 0.0
H262 H 0.74498 0.34996 0.98178 0.0
H263 H 0.78424 0.31414 0.84737 0.0
H264 H 0.22821 0.93904 0.04963 0.0
H265 H 0.30066 0.0041 0.99581 0.0
H266 H 0.32544 0.03158 0.09615 0.0
H267 H 0.32567 0.03757 0.19784 0.0
H268 H 0.25465 0.97235 0.25367 0.0
H269 H 0.23107 0.94385 0.15426 0.0
C270 C 0.24904 0.95944 0.0595 0.0
C271 C 0.26197 0.96984 0.01467 0.0
C272 C 0.26399 0.9747 0.11797 0.0
C273 C 0.28985 -0.00417 0.02906 0.0
C274 C 0.30422 0.01143 0.08657 0.0
C275 C 0.30532 0.01694 0.18866 0.0
C276 C 0.29185 0.00713 0.23317 0.0
C277 C 0.29151 0.00106 0.13129 0.0
C278 C 0.26578 0.98024 0.22057 0.0
C279 C 0.25194 0.96417 0.16342 0.0
H280 H 0.79701 0.04812 0.37634 0.0
H281 H 0.73214 0.97823 0.23309 0.0
H282 H 0.71611 0.94803 0.30716 0.0
H283 H 0.71752 0.94304 0.41095 0.0
H284 H 0.78514 0.01213 0.55518 0.0
H285 H 0.80286 0.04139 0.48202 0.0
C286 C 0.77971 0.0261 0.36142 0.0
C287 C 0.76566 0.01545 0.29912 0.0
C288 C 0.77063 0.00904 0.40417 0.0
C289 C 0.74365 0.98678 0.2808 0.0
C290 C 0.73414 0.96971 0.32302 0.0
C291 C 0.7359 0.96463 0.42635 0.0
C292 C 0.74925 0.97575 0.48827 0.0
C293 C 0.74682 0.9809 0.38445 0.0
C294 C 0.77408 0.00327 0.50778 0.0
C295 C 0.78429 0.01993 0.46597 0.0
H296 H 0.74372 0.00636 0.7699 0.0
H297 H 0.79295 0.9208 0.8749 0.0
H298 H 0.79489 0.94439 0.96834 0.0
H299 H 0.77873 0.98864 0.02001 0.0
H300 H 0.72632 0.0734 0.91344 0.0
H301 H 0.72985 0.05116 0.82266 0.0
C302 C 0.75523 0.99304 0.8134 0.0
C303 C 0.76784 0.9618 0.81487 0.0
C304 C 0.75556 0.00662 0.86735 0.0
C305 C 0.7825 0.94484 0.87183 0.0
C306 C 0.78377 0.95831 0.92568 0.0
C307 C 0.76856 0.00227 0.97715 0.0
C308 C 0.75199 0.03253 0.9737 0.0
C309 C 0.76978 0.98908 0.92395 0.0
C310 C 0.73872 0.04984 0.91744 0.0
C311 C 0.74077 0.03719 0.86522 0.0
H312 H 0.33532 0.98918 0.76823 0.0
H313 H 0.20713 0.95195 0.64106 0.0
H314 H 0.21091 0.97551 0.5504 0.0
H315 H 0.25342 0.00386 0.50635 0.0
H316 H 0.38444 0.03714 0.63507 0.0
H317 H 0.37719 0.01763 0.72492 0.0
C318 C 0.30779 0.98698 0.72085 0.0
C319 C 0.27058 0.96951 0.71138 0.0
C320 C 0.31122 -0.00077 0.66867 0.0
C321 C 0.23572 0.96591 0.64948 0.0
C322 C 0.23814 0.97903 0.59756 0.0
C323 C 0.28044 0.00662 0.55398 0.0
C324 C 0.31943 0.02194 0.5634 0.0
C325 C 0.27625 -0.00488 0.60631 0.0
C326 C 0.35394 0.02549 0.62585 0.0
C327 C 0.34985 0.01444 0.67769 0.0
H328 H 0.74335 0.55028 0.11537 0.0
H329 H 0.8035 0.48186 0.26439 0.0
H330 H 0.81621 0.44763 0.19278 0.0
H331 H 0.81407 0.43874 0.08967 0.0
H332 H 0.75141 0.50652 0.93979 0.0
H333 H 0.73586 0.53959 0.01005 0.0
C334 C 0.75888 0.52773 0.13201 0.0
C335 C 0.77271 0.51865 0.19517 0.0
C336 C 0.76599 0.50829 0.09064 0.0
C337 C 0.79233 0.48927 0.21592 0.0
C338 C 0.7999 0.46984 0.17512 0.0
C339 C 0.79704 0.46077 0.0724 0.0
C340 C 0.78451 0.47044 0.00988 0.0
C341 C 0.78758 0.47937 0.11275 0.0
C342 C 0.76161 0.49869 0.98777 0.0
C343 C 0.75274 0.51757 0.02792 0.0
H344 H 0.28208 0.54601 0.3755 0.0
H345 H 0.22368 0.47658 0.22943 0.0
H346 H 0.21111 0.44281 0.30216 0.0
H347 H 0.21414 0.43417 0.406 0.0
H348 H 0.27608 0.50262 0.55345 0.0
H349 H 0.28991 0.53579 0.48133 0.0
C350 C 0.26681 0.52339 0.35971 0.0
C351 C 0.25355 0.51382 0.29714 0.0
C352 C 0.26012 0.50412 0.40186 0.0
C353 C 0.23435 0.48434 0.27747 0.0
C354 C 0.22693 0.46516 0.31892 0.0
C355 C 0.23058 0.4564 0.42228 0.0
C356 C 0.2435 0.4662 0.48469 0.0
C357 C 0.23918 0.475 0.38095 0.0
C358 C 0.26564 0.49469 0.50558 0.0
C359 C 0.27352 0.51363 0.46436 0.0
H360 H 0.21712 0.54706 0.90843 0.0
H361 H 0.27524 0.47628 0.05307 0.0
H362 H 0.29012 0.44405 0.98098 0.0
H363 H 0.28399 0.43535 0.87588 0.0
H364 H 0.22863 0.50685 0.73242 0.0
H365 H 0.2158 0.53987 0.80558 0.0
C366 C 0.23287 0.5245 0.92409 0.0
C367 C 0.24438 0.51374 0.9856 0.0
C368 C 0.24206 0.50647 0.88286 0.0
C369 C 0.26578 0.48488 1.0058 0.0
C370 C 0.27431 0.46652 0.96465 0.0
C371 C 0.2694 0.45828 0.86077 0.0
C372 C 0.257 0.46865 0.79878 0.0
C373 C 0.26226 0.477 0.90299 0.0
C374 C 0.23865 0.49849 0.78001 0.0
C375 C 0.23103 0.51722 0.82165 0.0
H376 H 0.8053 0.44513 0.65803 0.0
H377 H 0.74846 0.5139 0.72968 0.0
H378 H 0.73617 0.54873 0.64173 0.0
H379 H 0.73931 0.55877 0.5429 0.0
H380 H 0.79697 0.49017 0.47209 0.0
H381 H 0.81101 0.45596 0.56154 0.0
C382 C 0.79038 0.4678 0.65472 0.0
C383 C 0.7776 0.47683 0.70031 0.0
C384 C 0.78327 0.48758 0.60397 0.0
C385 C 0.75865 0.50638 0.69538 0.0
C386 C 0.75144 0.52623 0.64492 0.0
C387 C 0.75485 0.53629 0.54679 0.0
C388 C 0.76666 0.52691 0.50036 0.0
C389 C 0.76316 0.51691 0.5986 0.0
C390 C 0.78732 0.4979 0.50684 0.0
C391 C 0.7954 0.47836 0.55804 0.0
H392 H 0.61681 0.98976 0.53077 0.0
H393 H 0.5628 0.91174 0.5849 0.0
H394 H 0.49243 0.93922 0.54814 0.0
H395 H 0.44612 0.98624 0.50215 0.0
H396 H 0.50081 0.0638 0.44765 0.0
H397 H 0.5705 0.036 0.48331 0.0
C398 C 0.58981 0.97886 0.53504 0.0
C399 C 0.59536 0.94867 0.5607 0.0
C400 C 0.54924 -0.00518 0.51368 0.0
C401 C 0.55953 0.93478 0.56479 0.0
C402 C 0.51919 0.95057 0.54395 0.0
C403 C 0.47314 -0.00311 0.49755 0.0
C404 C 0.4681 0.0273 0.47279 0.0
C405 C 0.51356 0.98064 0.51823 0.0
C406 C 0.50378 0.04075 0.46762 0.0
C407 C 0.54376 0.02478 0.48777 0.0
H408 H 0.50175 0.93874 0.03309 0.0
H409 H 0.41566 -0.00018 0.88174 0.0
H410 H 0.47881 0.03333 0.90132 0.0
H411 H 0.55738 0.04787 0.96917 0.0
H412 H 0.64257 0.98649 0.12102 0.0
H413 H 0.58113 0.95047 0.09372 0.0
C414 C 0.49699 0.95921 1.00393 0.0
C415 C 0.45406 0.96698 0.9565 0.0
C416 C 0.53325 0.97847 0.01613 0.0
C417 C 0.44837 0.99326 0.9183 0.0
C418 C 0.48442 0.01257 0.92998 0.0
C419 C 0.56245 0.02652 0.99598 0.0
C420 C 0.60447 0.02003 0.04748 0.0
C421 C 0.52679 0.00587 0.97999 0.0
C422 C 0.61076 0.99199 0.08106 0.0
C423 C 0.57553 0.97145 0.06566 0.0
H424 H 0.99358 0.55593 0.49734 0.0
H425 H 0.90041 0.48182 0.4045 0.0
H426 H 0.961 0.44419 0.44252 0.0
H427 H 0.04041 0.4324 0.49982 0.0
H428 H 0.13386 0.50624 0.59433 0.0
H429 H 0.07334 0.54391 0.55623 0.0
C430 C 0.9865 0.53159 0.4851 0.0
C431 C 0.94227 0.52185 0.44805 0.0
C432 C 1.02165 0.50999 0.50688 0.0
C433 C 0.93386 0.49004 0.43359 0.0
C434 C 0.96861 0.46848 0.45494 0.0
C435 C 0.04774 0.45663 0.51282 0.0
C436 C 0.09204 0.46622 0.55013 0.0
C437 C 1.01264 0.4782 0.49149 0.0
C438 C 0.10045 0.498 0.56512 0.0
C439 C 0.06571 0.51963 0.54369 0.0
H440 H 0.04369 0.5552 0.98894 0.0
H441 H 0.13188 0.4847 0.11376 0.0
H442 H 0.07003 0.44871 0.08128 0.0
H443 H 0.99089 0.43712 0.01797 0.0
H444 H 0.90239 0.50734 0.89279 0.0
H445 H 0.96405 0.54376 0.92644 0.0
C446 C 0.04942 0.53208 0.00951 0.0
C447 C 0.09273 0.52279 0.05361 0.0
C448 C 1.01348 0.51144 0.99093 0.0
C449 C 0.0993 0.49248 0.07898 0.0
C450 C 0.06378 0.47188 0.06076 0.0
C451 C 0.985 0.46029 0.99759 0.0
C452 C 0.94179 0.46928 0.95263 0.0
C453 C 1.02076 0.48106 0.01665 0.0
C454 C 0.93497 0.49974 0.92791 0.0
C455 C 0.97038 0.52057 0.94682 0.0
H456 H 0.07713 0.03799 0.20434 0.0
H457 H 0.14132 0.05926 0.40397 0.0
H458 H 0.06926 0.0612 0.40165 0.0
H459 H 0.98788 0.0606 0.34148 0.0
H460 H 0.92372 0.04238 0.14058 0.0
H461 H 0.99591 0.03534 0.14508 0.0
C462 C 0.07555 0.0432 0.24744 0.0
C463 C 0.11498 0.04891 0.30414 0.0
C464 C 0.03385 0.04491 0.24547 0.0
C465 C 0.1119 0.05467 0.35971 0.0
C466 C 0.07054 0.056 0.35829 0.0
C467 C 0.9895 0.05522 0.29848 0.0
C468 C 0.94999 0.05246 0.24051 0.0
C469 C 0.03127 0.0518 0.30118 0.0
C470 C 0.95318 0.04455 0.18586 0.0
C471 C 0.99461 0.04073 0.18834 0.0
H472 H 0.06935 0.90462 0.68377 0.0
H473 H 0.13353 0.96304 0.84874 0.0
H474 H 0.06203 0.97537 0.84231 0.0
H475 H 0.98212 0.96525 0.79667 0.0
H476 H 0.9174 0.90659 0.63254 0.0
H477 H 0.98788 0.89884 0.63128 0.0
C478 C 0.06759 0.92028 0.71788 0.0
C479 C 0.10695 0.93263 0.76698 0.0
C480 C 0.0262 0.92706 0.71429 0.0
C481 C 0.10397 0.95334 0.81021 0.0
C482 C 0.06302 0.9602 0.80691 0.0
C483 C 0.98346 0.95104 0.76029 0.0
C484 C 0.94473 0.93626 0.71518 0.0
C485 C 0.0241 0.94655 0.76022 0.0
C486 C 0.94668 0.91832 0.66758 0.0
C487 C 0.98706 0.9137 0.66719 0.0
H488 H 0.47857 0.54312 0.31628 0.0
H489 H 0.40597 0.56508 0.11713 0.0
H490 H 0.47529 0.56765 0.1113 0.0
H491 H 0.55701 0.56774 0.16486 0.0
H492 H 0.62923 0.5473 0.36493 0.0
H493 H 0.55979 0.53979 0.36815 0.0
C494 C 0.4779 0.54839 0.27156 0.0
C495 C 0.43706 0.5542 0.21739 0.0
C496 C 0.51794 0.5502 0.26876 0.0
C497 C 0.43678 0.56033 0.15948 0.0
C498 C 0.47651 0.56204 0.15625 0.0
C499 C 0.5576 0.56157 0.20914 0.0
C500 C 0.59854 0.55835 0.26466 0.0
C501 C 0.51735 0.55766 0.21089 0.0
C502 C 0.59847 0.5497 0.32133 0.0
C503 C 0.55866 0.54564 0.32335 0.0
H504 H 0.55605 0.43323 0.66936 0.0
H505 H 0.62748 0.42196 0.87256 0.0
H506 H 0.55784 0.42163 0.87693 0.0
H507 H 0.47658 0.42184 0.82295 0.0
H508 H 0.40468 0.43066 0.61942 0.0
H509 H 0.47448 0.43486 0.61549 0.0
C510 C 0.55652 0.43056 0.71465 0.0
C511 C 0.59735 0.42743 0.7705 0.0
C512 C 0.51612 0.42993 0.71681 0.0
C513 C 0.59694 0.4247 0.8288 0.0
C514 C 0.55696 0.42429 0.83133 0.0
C515 C 0.47603 0.42453 0.7776 0.0
C516 C 0.43512 0.42561 0.72151 0.0
C517 C 0.51636 0.42645 0.7756 0.0
C518 C 0.43538 0.42993 0.66343 0.0
C519 C 0.47541 0.43211 0.66111 0.0
H520 H 0.31337 0.29623 0.53006 0.0
H521 H 0.1959 0.27931 0.54891 0.0
H522 H 0.1926 0.22602 0.5121 0.0
H523 H 0.22347 0.18398 0.47551 0.0
H524 H 0.34008 0.20114 0.45485 0.0
H525 H 0.34276 0.25477 0.49009 0.0
C526 C 0.2867 0.28104 0.52528 0.0
C527 C 0.2551 0.29172 0.54257 0.0
C528 C 0.28479 0.25046 0.50368 0.0
C529 C 0.22109 0.27153 0.5369 0.0
C530 C 0.21902 0.24109 0.51556 0.0
C531 C 0.24955 0.19945 0.47905 0.0
C532 C 0.28155 0.18865 0.46278 0.0
C533 C 0.25088 0.23023 0.49929 0.0
C534 C 0.31482 0.20905 0.46662 0.0
C535 C 0.3165 0.23965 0.48702 0.0
H536 H 0.79596 0.30697 0.04008 0.0
H537 H 0.7328 0.2757 0.84602 0.0
H538 H 0.73342 0.22225 0.88111 0.0
H539 H 0.75144 0.18432 0.96681 0.0
H540 H 0.81319 0.21557 0.16069 0.0
H541 H 0.81302 0.26913 0.12576 0.0
C542 C 0.78189 0.28851 1.00544 0.0
C543 C 0.76457 0.29535 0.94056 0.0
C544 C 0.78211 0.25781 0.0259 0.0
C545 C 0.74698 0.27105 0.89633 0.0
C546 C 0.74712 0.24048 0.9163 0.0
C547 C 0.76521 0.20285 1.00138 0.0
C548 C 0.78235 0.19603 0.06616 0.0
C549 C 0.76477 0.23356 0.98095 0.0
C550 C 0.79947 0.2203 0.11047 0.0
C551 C 0.79949 0.25089 0.09056 0.0
H552 H 0.82596 0.71737 0.44162 0.0
H553 H 0.75921 0.67223 0.5335 0.0
H554 H 0.75433 0.72185 0.58001 0.0
H555 H 0.76525 0.77826 0.58904 0.0
H556 H 0.83831 0.82269 0.50499 0.0
H557 H 0.84358 0.77325 0.45973 0.0
C558 C 0.8107 0.71851 0.47227 0.0
C559 C 0.79275 0.69147 0.4841 0.0
C560 C 0.80858 0.74697 0.49941 0.0
C561 C 0.77335 0.69289 0.52416 0.0
C562 C 0.77039 0.72122 0.55039 0.0
C563 C 0.78321 0.77722 0.56205 0.0
C564 C 0.80073 0.80459 0.54999 0.0
C565 C 0.78747 0.74847 0.53775 0.0
C566 C 0.82321 0.80243 0.51376 0.0
C567 C 0.82671 0.77402 0.48826 0.0
H568 H 0.26768 0.77556 0.91035 0.0
H569 H 0.3461 0.81085 0.0998 0.0
H570 H 0.34471 0.75981 0.1438 0.0
H571 H 0.31929 0.70556 0.12864 0.0
H572 H 0.24205 0.66999 0.93937 0.0
H573 H 0.24573 0.72058 0.89505 0.0
C574 C 0.28511 0.77197 0.96122 0.0
C575 C 0.30664 0.79709 1.00167 0.0
C576 C 0.28433 0.74253 0.98624 0.0
C577 C 0.32859 0.79208 0.06757 0.0
C578 C 0.32798 0.76287 0.09281 0.0
C579 C 0.30317 0.70897 0.07771 0.0
C580 C 0.28015 0.68422 0.03731 0.0
C581 C 0.30545 0.73805 0.05262 0.0
C582 C 0.26011 0.68871 0.97139 0.0
C583 C 0.26206 0.71763 0.94605 0.0
loop_
_geom_bond_atom_site_label_1
_geom_bond_atom_site_label_2
_geom_bond_distance
_geom_bond_site_symmetry_2
_ccdc_geom_bond_type
C0 C1 1.351 . S
C0 N3 1.368 . S
C0 H5 0.931 . S
C1 C0 1.351 . S
C1 N2 1.373 . S
C1 H29 0.930 . S
N2 C1 1.373 . S
N2 C4 1.340 . S
N3 C0 1.368 . S
N3 C4 1.321 . S
N3 Co6 2.135 . S
C4 N2 1.340 . S
C4 N3 1.321 . S
C4 H28 0.930 . S
H5 C0 0.931 . S
Co6 N3 2.135 . S
Co6 N9 2.121 . S
Co6 O14 2.055 . S
Co6 O17 2.039 . S
Co6 N20 2.140 . S
C7 O8 1.227 . S
C7 O17 1.265 . S
O8 C7 1.227 . S
N9 Co6 2.121 . S
N9 C11 1.375 . S
N9 C12 1.313 . S
C10 C11 1.338 . S
C10 N13 1.377 . S
C10 H30 0.930 . S
C11 N9 1.375 . S
C11 C10 1.338 . S
C11 H15 0.931 . S
C12 N9 1.313 . S
C12 N13 1.344 . S
C12 H16 0.930 . S
N13 C10 1.377 . S
N13 C12 1.344 . S
O14 Co6 2.055 . S
O14 C18 1.253 . S
H15 C11 0.931 . S
H16 C12 0.930 . S
O17 Co6 2.039 . S
O17 C7 1.265 . S
C18 O14 1.253 . S
C18 O19 1.227 . S
O19 C18 1.227 . S
N20 Co6 2.140 . S
N20 C23 1.346 . S
N20 C24 1.345 . S
C21 C22 1.387 . S
C21 C25 1.391 . S
C22 C21 1.387 . S
C22 C23 1.369 . S
C22 H31 0.929 . S
C23 N20 1.346 . S
C23 C22 1.369 . S
C23 H26 0.928 . S
C24 N20 1.345 . S
C24 C25 1.371 . S
C24 H27 0.931 . S
C25 C21 1.391 . S
C25 C24 1.371 . S
C25 H32 0.930 . S
H26 C23 0.928 . S
H27 C24 0.931 . S
H28 C4 0.930 . S
H29 C1 0.930 . S
H30 C10 0.930 . S
H31 C22 0.929 . S
H32 C25 0.930 . S
C33 C34 1.351 . S
C33 N36 1.368 . S
C33 H38 0.931 . S
C34 C33 1.351 . S
C34 N35 1.373 . S
C34 H62 0.930 . S
N35 C34 1.373 . S
N35 C37 1.340 . S
N36 C33 1.368 . S
N36 C37 1.321 . S
N36 Co39 2.135 . S
C37 N35 1.340 . S
C37 N36 1.321 . S
C37 H61 0.930 . S
H38 C33 0.931 . S
Co39 N36 2.135 . S
Co39 N42 2.121 . S
Co39 O47 2.055 . S
Co39 O50 2.039 . S
Co39 N53 2.140 . S
C40 O41 1.227 . S
C40 O50 1.265 1_556 S
O41 C40 1.227 . S
N42 Co39 2.121 . S
N42 C44 1.375 1_554 S
N42 C45 1.313 . S
C43 C44 1.338 . S
C43 N46 1.377 1_556 S
C43 H63 0.930 . S
C44 N42 1.375 1_556 S
C44 C43 1.338 . S
C44 H48 0.931 . S
C45 N42 1.313 . S
C45 N46 1.344 . S
C45 H49 0.930 . S
N46 C43 1.377 1_554 S
N46 C45 1.344 . S
O47 Co39 2.055 . S
O47 C51 1.253 . S
H48 C44 0.931 . S
H49 C45 0.930 . S
O50 Co39 2.039 . S
O50 C40 1.265 1_554 S
C51 O47 1.253 . S
C51 O52 1.227 . S
O52 C51 1.227 . S
N53 Co39 2.140 . S
N53 C56 1.346 . S
N53 C57 1.345 . S
C54 C55 1.387 . S
C54 C58 1.391 . S
C55 C54 1.387 . S
C55 C56 1.369 . S
C55 H64 0.929 . S
C56 N53 1.346 . S
C56 C55 1.369 . S
C56 H59 0.928 . S
C57 N53 1.345 . S
C57 C58 1.371 . S
C57 H60 0.931 . S
C58 C54 1.391 . S
C58 C57 1.371 . S
C58 H65 0.930 . S
H59 C56 0.928 . S
H60 C57 0.931 . S
H61 C37 0.930 . S
H62 C34 0.930 . S
H63 C43 0.930 . S
H64 C55 0.929 . S
H65 C58 0.930 . S
C66 C67 1.351 . S
C66 N69 1.368 . S
C66 H71 0.931 . S
C67 C66 1.351 . S
C67 N68 1.373 . S
C67 H95 0.930 . S
N68 C67 1.373 . S
N68 C70 1.340 . S
N69 C66 1.368 . S
N69 C70 1.321 . S
N69 Co72 2.135 . S
C70 N68 1.340 . S
C70 N69 1.321 . S
C70 H94 0.930 . S
H71 C66 0.931 . S
Co72 N69 2.135 . S
Co72 N75 2.121 . S
Co72 O80 2.055 . S
Co72 O83 2.039 . S
Co72 N86 2.140 . S
C73 O74 1.227 . S
C73 O83 1.265 . S
O74 C73 1.227 . S
N75 Co72 2.121 . S
N75 C77 1.375 . S
N75 C78 1.313 . S
C76 C77 1.338 . S
C76 N79 1.377 . S
C76 H96 0.930 . S
C77 N75 1.375 . S
C77 C76 1.338 . S
C77 H81 0.931 . S
C78 N75 1.313 . S
C78 N79 1.344 . S
C78 H82 0.930 . S
N79 C76 1.377 . S
N79 C78 1.344 . S
O80 Co72 2.055 . S
O80 C84 1.253 . S
H81 C77 0.931 . S
H82 C78 0.930 . S
O83 Co72 2.039 . S
O83 C73 1.265 . S
C84 O80 1.253 . S
C84 O85 1.227 . S
O85 C84 1.227 . S
N86 Co72 2.140 . S
N86 C89 1.346 . S
N86 C90 1.345 . S
C87 C88 1.387 . S
C87 C91 1.391 . S
C88 C87 1.387 . S
C88 C89 1.369 . S
C88 H97 0.929 . S
C89 N86 1.346 . S
C89 C88 1.369 . S
C89 H92 0.928 . S
C90 N86 1.345 . S
C90 C91 1.371 . S
C90 H93 0.931 . S
C91 C87 1.391 . S
C91 C90 1.371 . S
C91 H98 0.930 . S
H92 C89 0.928 . S
H93 C90 0.931 . S
H94 C70 0.930 . S
H95 C67 0.930 . S
H96 C76 0.930 . S
H97 C88 0.929 . S
H98 C91 0.930 . S
C99 C100 1.351 . S
C99 N102 1.368 . S
C99 H104 0.931 . S
C100 C99 1.351 . S
C100 N101 1.373 . S
C100 H128 0.930 . S
N101 C100 1.373 . S
N101 C103 1.340 . S
N102 C99 1.368 . S
N102 C103 1.321 . S
N102 Co105 2.135 . S
C103 N101 1.340 . S
C103 N102 1.321 . S
C103 H127 0.930 . S
H104 C99 0.931 . S
Co105 N102 2.135 . S
Co105 N108 2.121 . S
Co105 O113 2.055 . S
Co105 O116 2.039 . S
Co105 N119 2.140 . S
C106 O107 1.227 . S
C106 O116 1.265 1_554 S
O107 C106 1.227 . S
N108 Co105 2.121 . S
N108 C110 1.375 1_556 S
N108 C111 1.313 . S
C109 C110 1.338 . S
C109 N112 1.377 1_554 S
C109 H129 0.930 . S
C110 N108 1.375 1_554 S
C110 C109 1.338 . S
C110 H114 0.931 . S
C111 N108 1.313 . S
C111 N112 1.344 . S
C111 H115 0.930 . S
N112 C109 1.377 1_556 S
N112 C111 1.344 . S
O113 Co105 2.055 . S
O113 C117 1.253 . S
H114 C110 0.931 . S
H115 C111 0.930 . S
O116 Co105 2.039 . S
O116 C106 1.265 1_556 S
C117 O113 1.253 . S
C117 O118 1.227 . S
O118 C117 1.227 . S
N119 Co105 2.140 . S
N119 C122 1.346 . S
N119 C123 1.345 . S
C120 C121 1.387 . S
C120 C124 1.391 . S
C121 C120 1.387 . S
C121 C122 1.369 . S
C121 H130 0.929 . S
C122 N119 1.346 . S
C122 C121 1.369 . S
C122 H125 0.928 . S
C123 N119 1.345 . S
C123 C124 1.371 . S
C123 H126 0.931 . S
C124 C120 1.391 . S
C124 C123 1.371 . S
C124 H131 0.930 . S
H125 C122 0.928 . S
H126 C123 0.931 . S
H127 C103 0.930 . S
H128 C100 0.930 . S
H129 C109 0.930 . S
H130 C121 0.929 . S
H131 C124 0.930 . S
C132 C133 1.351 . S
C132 N135 1.368 . S
C132 H137 0.931 . S
C133 C132 1.351 . S
C133 N134 1.373 . S
C133 H161 0.930 . S
N134 C133 1.373 . S
N134 C136 1.340 . S
N135 C132 1.368 . S
N135 C136 1.321 . S
N135 Co138 2.135 . S
C136 N134 1.340 . S
C136 N135 1.321 . S
C136 H160 0.930 . S
H137 C132 0.931 . S
Co138 N135 2.135 . S
Co138 N141 2.121 . S
Co138 O146 2.055 . S
Co138 O149 2.039 . S
Co138 N152 2.140 . S
C139 O140 1.227 . S
C139 O149 1.265 . S
O140 C139 1.227 . S
N141 Co138 2.121 . S
N141 C143 1.375 . S
N141 C144 1.313 . S
C142 C143 1.338 . S
C142 N145 1.377 . S
C142 H162 0.930 . S
C143 N141 1.375 . S
C143 C142 1.338 . S
C143 H147 0.931 . S
C144 N141 1.313 . S
C144 N145 1.344 . S
C144 H148 0.930 . S
N145 C142 1.377 . S
N145 C144 1.344 . S
O146 Co138 2.055 . S
O146 C150 1.253 . S
H147 C143 0.931 . S
H148 C144 0.930 . S
O149 Co138 2.039 . S
O149 C139 1.265 . S
C150 O146 1.253 . S
C150 O151 1.227 . S
O151 C150 1.227 . S
N152 Co138 2.140 . S
N152 C155 1.346 . S
N152 C156 1.345 . S
C153 C154 1.387 . S
C153 C157 1.391 . S
C154 C153 1.387 . S
C154 C155 1.369 . S
C154 H163 0.929 . S
C155 N152 1.346 . S
C155 C154 1.369 . S
C155 H158 0.928 . S
C156 N152 1.345 . S
C156 C157 1.371 . S
C156 H159 0.931 . S
C157 C153 1.391 . S
C157 C156 1.371 . S
C157 H164 0.930 . S
H158 C155 0.928 . S
H159 C156 0.931 . S
H160 C136 0.930 . S
H161 C133 0.930 . S
H162 C142 0.930 . S
H163 C154 0.929 . S
H164 C157 0.930 . S
C165 C166 1.351 . S
C165 N168 1.368 . S
C165 H170 0.931 . S
C166 C165 1.351 . S
C166 N167 1.373 . S
C166 H194 0.930 . S
N167 C166 1.373 . S
N167 C169 1.340 . S
N168 C165 1.368 . S
N168 C169 1.321 . S
N168 Co171 2.135 . S
C169 N167 1.340 . S
C169 N168 1.321 . S
C169 H193 0.930 . S
H170 C165 0.931 . S
Co171 N168 2.135 . S
Co171 N174 2.121 . S
Co171 O179 2.055 . S
Co171 O182 2.039 . S
Co171 N185 2.140 . S
C172 O173 1.227 . S
C172 O182 1.265 1_556 S
O173 C172 1.227 . S
N174 Co171 2.121 . S
N174 C176 1.375 1_554 S
N174 C177 1.313 . S
C175 C176 1.338 . S
C175 N178 1.377 1_556 S
C175 H195 0.930 . S
C176 N174 1.375 1_556 S
C176 C175 1.338 . S
C176 H180 0.931 . S
C177 N174 1.313 . S
C177 N178 1.344 . S
C177 H181 0.930 . S
N178 C175 1.377 1_554 S
N178 C177 1.344 . S
O179 Co171 2.055 . S
O179 C183 1.253 . S
H180 C176 0.931 . S
H181 C177 0.930 . S
O182 Co171 2.039 . S
O182 C172 1.265 1_554 S
C183 O179 1.253 . S
C183 O184 1.227 . S
O184 C183 1.227 . S
N185 Co171 2.140 . S
N185 C188 1.346 . S
N185 C189 1.345 . S
C186 C187 1.387 . S
C186 C190 1.391 . S
C187 C186 1.387 . S
C187 C188 1.369 . S
C187 H196 0.929 . S
C188 N185 1.346 . S
C188 C187 1.369 . S
C188 H191 0.928 . S
C189 N185 1.345 . S
C189 C190 1.371 . S
C189 H192 0.931 . S
C190 C186 1.391 . S
C190 C189 1.371 . S
C190 H197 0.930 . S
H191 C188 0.928 . S
H192 C189 0.931 . S
H193 C169 0.930 . S
H194 C166 0.930 . S
H195 C175 0.930 . S
H196 C187 0.929 . S
H197 C190 0.930 . S
C198 C199 1.351 . S
C198 N201 1.368 . S
C198 H203 0.931 . S
C199 C198 1.351 . S
C199 N200 1.373 . S
C199 H227 0.930 . S
N200 C199 1.373 . S
N200 C202 1.340 . S
N201 C198 1.368 . S
N201 C202 1.321 . S
N201 Co204 2.135 . S
C202 N200 1.340 . S
C202 N201 1.321 . S
C202 H226 0.930 . S
H203 C198 0.931 . S
Co204 N201 2.135 . S
Co204 N207 2.121 . S
Co204 O212 2.055 . S
Co204 O215 2.039 . S
Co204 N218 2.140 . S
C205 O206 1.227 . S
C205 O215 1.265 . S
O206 C205 1.227 . S
N207 Co204 2.121 . S
N207 C209 1.375 . S
N207 C210 1.313 . S
C208 C209 1.338 . S
C208 N211 1.377 . S
C208 H228 0.930 . S
C209 N207 1.375 . S
C209 C208 1.338 . S
C209 H213 0.931 . S
C210 N207 1.313 . S
C210 N211 1.344 . S
C210 H214 0.930 . S
N211 C208 1.377 . S
N211 C210 1.344 . S
O212 Co204 2.055 . S
O212 C216 1.253 . S
H213 C209 0.931 . S
H214 C210 0.930 . S
O215 Co204 2.039 . S
O215 C205 1.265 . S
C216 O212 1.253 . S
C216 O217 1.227 . S
O217 C216 1.227 . S
N218 Co204 2.140 . S
N218 C221 1.346 . S
N218 C222 1.345 . S
C219 C220 1.387 . S
C219 C223 1.391 . S
C220 C219 1.387 . S
C220 C221 1.369 . S
C220 H229 0.929 . S
C221 N218 1.346 . S
C221 C220 1.369 . S
C221 H224 0.928 . S
C222 N218 1.345 . S
C222 C223 1.371 . S
C222 H225 0.931 . S
C223 C219 1.391 . S
C223 C222 1.371 . S
C223 H230 0.930 . S
H224 C221 0.928 . S
H225 C222 0.931 . S
H226 C202 0.930 . S
H227 C199 0.930 . S
H228 C208 0.930 . S
H229 C220 0.929 . S
H230 C223 0.930 . S
C231 C232 1.351 . S
C231 N234 1.368 . S
C231 H236 0.931 . S
C232 C231 1.351 . S
C232 N233 1.373 . S
C232 H260 0.930 . S
N233 C232 1.373 . S
N233 C235 1.340 . S
N234 C231 1.368 . S
N234 C235 1.321 . S
N234 Co237 2.135 . S
C235 N233 1.340 . S
C235 N234 1.321 . S
C235 H259 0.930 . S
H236 C231 0.931 . S
Co237 N234 2.135 . S
Co237 N240 2.121 . S
Co237 O245 2.055 . S
Co237 O248 2.039 . S
Co237 N251 2.140 . S
C238 O239 1.227 . S
C238 O248 1.265 1_554 S
O239 C238 1.227 . S
N240 Co237 2.121 . S
N240 C242 1.375 1_556 S
N240 C243 1.313 . S
C241 C242 1.338 . S
C241 N244 1.377 1_554 S
C241 H261 0.930 . S
C242 N240 1.375 1_554 S
C242 C241 1.338 . S
C242 H246 0.931 . S
C243 N240 1.313 . S
C243 N244 1.344 . S
C243 H247 0.930 . S
N244 C241 1.377 1_556 S
N244 C243 1.344 . S
O245 Co237 2.055 . S
O245 C249 1.253 . S
H246 C242 0.931 . S
H247 C243 0.930 . S
O248 Co237 2.039 . S
O248 C238 1.265 1_556 S
C249 O245 1.253 . S
C249 O250 1.227 . S
O250 C249 1.227 . S
N251 Co237 2.140 . S
N251 C254 1.346 . S
N251 C255 1.345 . S
C252 C253 1.387 . S
C252 C256 1.391 . S
C253 C252 1.387 . S
C253 C254 1.369 . S
C253 H262 0.929 . S
C254 N251 1.346 . S
C254 C253 1.369 . S
C254 H257 0.928 . S
C255 N251 1.345 . S
C255 C256 1.371 . S
C255 H258 0.931 . S
C256 C252 1.391 . S
C256 C255 1.371 . S
C256 H263 0.930 . S
H257 C254 0.928 . S
H258 C255 0.931 . S
H259 C235 0.930 . S
H260 C232 0.930 . S
H261 C241 0.930 . S
H262 C253 0.929 . S
H263 C256 0.930 . S
H264 C270 0.930 . S
H265 C273 0.930 . S
H266 C274 0.930 . S
H267 C275 0.930 . S
H268 C278 0.930 . S
H269 C279 0.930 . S
C270 H264 0.930 . S
C270 C271 1.355 1_545 S
C270 C272 1.415 . S
C271 C270 1.355 1_565 S
C271 C273 1.419 . S
C272 C270 1.415 . S
C272 C277 1.425 1_545 S
C272 C279 1.409 . S
C273 H265 0.930 . S
C273 C271 1.419 . S
C273 C274 1.362 . S
C274 H266 0.930 . S
C274 C273 1.362 . S
C274 C277 1.409 . S
C275 H267 0.930 . S
C275 C276 1.355 1_565 S
C275 C277 1.415 . S
C276 C275 1.355 1_545 S
C276 C278 1.419 . S
C277 C272 1.425 1_565 S
C277 C274 1.409 . S
C277 C275 1.415 . S
C278 H268 0.930 . S
C278 C276 1.419 . S
C278 C279 1.362 . S
C279 H269 0.930 . S
C279 C272 1.409 . S
C279 C278 1.362 . S
H280 C286 0.930 . S
H281 C289 0.930 . S
H282 C290 0.930 . S
H283 C291 0.930 . S
H284 C294 0.930 . S
H285 C295 0.930 . S
C286 H280 0.930 . S
C286 C287 1.355 . S
C286 C288 1.415 . S
C287 C286 1.355 . S
C287 C289 1.419 1_545 S
C288 C286 1.415 . S
C288 C293 1.425 1_545 S
C288 C295 1.409 . S
C289 H281 0.930 . S
C289 C287 1.419 1_565 S
C289 C290 1.362 . S
C290 H282 0.930 . S
C290 C289 1.362 . S
C290 C293 1.409 . S
C291 H283 0.930 . S
C291 C292 1.355 . S
C291 C293 1.415 . S
C292 C291 1.355 . S
C292 C294 1.419 1_565 S
C293 C288 1.425 1_565 S
C293 C290 1.409 . S
C293 C291 1.415 . S
C294 H284 0.930 . S
C294 C292 1.419 1_545 S
C294 C295 1.362 . S
C295 H285 0.930 . S
C295 C288 1.409 . S
C295 C294 1.362 . S
H296 C302 0.930 . S
H297 C305 0.930 . S
H298 C306 0.930 . S
H299 C307 0.930 . S
H300 C310 0.930 . S
H301 C311 0.930 . S
C302 H296 0.930 . S
C302 C303 1.355 1_545 S
C302 C304 1.415 . S
C303 C302 1.355 1_565 S
C303 C305 1.419 . S
C304 C302 1.415 . S
C304 C309 1.425 1_545 S
C304 C311 1.409 . S
C305 H297 0.930 . S
C305 C303 1.419 . S
C305 C306 1.362 . S
C306 H298 0.930 . S
C306 C305 1.362 . S
C306 C309 1.409 . S
C307 H299 0.930 . S
C307 C308 1.355 1_565 S
C307 C309 1.415 . S
C308 C307 1.355 1_545 S
C308 C310 1.419 . S
C309 C304 1.425 1_565 S
C309 C306 1.409 . S
C309 C307 1.415 . S
C310 H300 0.930 . S
C310 C308 1.419 . S
C310 C311 1.362 . S
C311 H301 0.930 . S
C311 C304 1.409 . S
C311 C310 1.362 . S
H312 C318 0.930 . S
H313 C321 0.930 . S
H314 C322 0.930 . S
H315 C323 0.930 . S
H316 C326 0.930 . S
H317 C327 0.930 . S
C318 H312 0.930 . S
C318 C319 1.355 1_545 S
C318 C320 1.415 . S
C319 C318 1.355 1_565 S
C319 C321 1.419 . S
C320 C318 1.415 . S
C320 C325 1.425 1_545 S
C320 C327 1.409 . S
C321 H313 0.930 . S
C321 C319 1.419 . S
C321 C322 1.362 . S
C322 H314 0.930 . S
C322 C321 1.362 . S
C322 C325 1.409 . S
C323 H315 0.930 . S
C323 C324 1.355 1_565 S
C323 C325 1.415 . S
C324 C323 1.355 1_545 S
C324 C326 1.419 . S
C325 C320 1.425 1_565 S
C325 C322 1.409 . S
C325 C323 1.415 . S
C326 H316 0.930 . S
C326 C324 1.419 . S
C326 C327 1.362 . S
C327 H317 0.930 . S
C327 C320 1.409 . S
C327 C326 1.362 . S
H328 C334 0.930 . S
H329 C337 0.930 . S
H330 C338 0.930 . S
H331 C339 0.930 . S
H332 C342 0.930 1_556 S
H333 C343 0.930 . S
C334 H328 0.930 . S
C334 C335 1.355 . S
C334 C336 1.415 . S
C335 C334 1.355 . S
C335 C337 1.419 . S
C336 C334 1.415 . S
C336 C341 1.425 . S
C336 C343 1.409 . S
C337 H329 0.930 . S
C337 C335 1.419 . S
C337 C338 1.362 . S
C338 H330 0.930 . S
C338 C337 1.362 . S
C338 C341 1.409 . S
C339 H331 0.930 . S
C339 C340 1.355 . S
C339 C341 1.415 . S
C340 C339 1.355 . S
C340 C342 1.419 . S
C341 C336 1.425 . S
C341 C338 1.409 . S
C341 C339 1.415 . S
C342 H332 0.930 1_554 S
C342 C340 1.419 . S
C342 C343 1.362 . S
C343 H333 0.930 . S
C343 C336 1.409 . S
C343 C342 1.362 . S
H344 C350 0.930 . S
H345 C353 0.930 . S
H346 C354 0.930 . S
H347 C355 0.930 . S
H348 C358 0.930 . S
H349 C359 0.930 . S
C350 H344 0.930 . S
C350 C351 1.355 . S
C350 C352 1.415 . S
C351 C350 1.355 . S
C351 C353 1.419 . S
C352 C350 1.415 . S
C352 C357 1.425 . S
C352 C359 1.409 . S
C353 H345 0.930 . S
C353 C351 1.419 . S
C353 C354 1.362 . S
C354 H346 0.930 . S
C354 C353 1.362 . S
C354 C357 1.409 . S
C355 H347 0.930 . S
C355 C356 1.355 . S
C355 C357 1.415 . S
C356 C355 1.355 . S
C356 C358 1.419 . S
C357 C352 1.425 . S
C357 C354 1.409 . S
C357 C355 1.415 . S
C358 H348 0.930 . S
C358 C356 1.419 . S
C358 C359 1.362 . S
C359 H349 0.930 . S
C359 C352 1.409 . S
C359 C358 1.362 . S
H360 C366 0.930 . S
H361 C369 0.930 . S
H362 C370 0.930 . S
H363 C371 0.930 . S
H364 C374 0.930 . S
H365 C375 0.930 . S
C366 H360 0.930 . S
C366 C367 1.355 . S
C366 C368 1.415 . S
C367 C366 1.355 . S
C367 C369 1.419 . S
C368 C366 1.415 . S
C368 C373 1.425 . S
C368 C375 1.409 . S
C369 H361 0.930 . S
C369 C367 1.419 . S
C369 C370 1.362 . S
C370 H362 0.930 . S
C370 C369 1.362 . S
C370 C373 1.409 . S
C371 H363 0.930 . S
C371 C372 1.355 . S
C371 C373 1.415 . S
C372 C371 1.355 . S
C372 C374 1.419 . S
C373 C368 1.425 . S
C373 C370 1.409 . S
C373 C371 1.415 . S
C374 H364 0.930 . S
C374 C372 1.419 . S
C374 C375 1.362 . S
C375 H365 0.930 . S
C375 C368 1.409 . S
C375 C374 1.362 . S
H376 C382 0.930 . S
H377 C385 0.930 . S
H378 C386 0.930 . S
H379 C387 0.930 . S
H380 C390 0.930 . S
H381 C391 0.930 . S
C382 H376 0.930 . S
C382 C383 1.355 . S
C382 C384 1.415 . S
C383 C382 1.355 . S
C383 C385 1.419 . S
C384 C382 1.415 . S
C384 C389 1.425 . S
C384 C391 1.409 . S
C385 H377 0.930 . S
C385 C383 1.419 . S
C385 C386 1.362 . S
C386 H378 0.930 . S
C386 C385 1.362 . S
C386 C389 1.409 . S
C387 H379 0.930 . S
C387 C388 1.355 . S
C387 C389 1.415 . S
C388 C387 1.355 . S
C388 C390 1.419 . S
C389 C384 1.425 . S
C389 C386 1.409 . S
C389 C387 1.415 . S
C390 H380 0.930 . S
C390 C388 1.419 . S
C390 C391 1.362 . S
C391 H381 0.930 . S
C391 C384 1.409 . S
C391 C390 1.362 . S
H392 C398 0.930 . S
H393 C401 0.930 . S
H394 C402 0.930 . S
H395 C403 0.930 . S
H396 C406 0.930 . S
H397 C407 0.930 . S
C398 H392 0.930 . S
C398 C399 1.355 1_545 S
C398 C400 1.415 . S
C399 C398 1.355 1_565 S
C399 C401 1.419 . S
C400 C398 1.415 . S
C400 C405 1.425 1_545 S
C400 C407 1.409 . S
C401 H393 0.930 . S
C401 C399 1.419 . S
C401 C402 1.362 . S
C402 H394 0.930 . S
C402 C401 1.362 . S
C402 C405 1.409 . S
C403 H395 0.930 . S
C403 C404 1.355 1_565 S
C403 C405 1.415 . S
C404 C403 1.355 1_545 S
C404 C406 1.419 . S
C405 C400 1.425 1_565 S
C405 C402 1.409 . S
C405 C403 1.415 . S
C406 H396 0.930 . S
C406 C404 1.419 . S
C406 C407 1.362 . S
C407 H397 0.930 . S
C407 C400 1.409 . S
C407 C406 1.362 . S
H408 C414 0.930 . S
H409 C417 0.939 . S
H410 C418 0.930 . S
H411 C419 0.930 . S
H412 C422 0.939 . S
H413 C423 0.930 . S
C414 H408 0.930 . S
C414 C415 1.355 . S
C414 C416 1.415 . S
C415 C414 1.355 . S
C415 C417 1.419 1_565 S
C416 C414 1.415 . S
C416 C421 1.425 1_566 S
C416 C423 1.409 . S
C417 H409 0.939 . S
C417 C415 1.419 1_545 S
C417 C418 1.362 1_556 S
C418 H410 0.930 . S
C418 C417 1.362 1_554 S
C418 C421 1.409 . S
C419 H411 0.930 . S
C419 C420 1.355 . S
C419 C421 1.415 . S
C420 C419 1.355 . S
C420 C422 1.419 1_545 S
C421 C416 1.425 1_544 S
C421 C418 1.409 . S
C421 C419 1.415 . S
C422 H412 0.939 . S
C422 C420 1.419 1_565 S
C422 C423 1.362 1_554 S
C423 H413 0.930 . S
C423 C416 1.409 . S
C423 C422 1.362 1_556 S
H424 C430 0.930 . S
H425 C433 0.930 . S
H426 C434 0.930 1_455 S
H427 C435 0.930 . S
H428 C438 0.930 . S
H429 C439 0.930 1_655 S
C430 H424 0.930 . S
C430 C431 1.355 . S
C430 C432 1.415 . S
C431 C430 1.355 . S
C431 C433 1.419 . S
C432 C430 1.415 . S
C432 C437 1.425 1_655 S
C432 C439 1.409 1_655 S
C433 H425 0.930 . S
C433 C431 1.419 . S
C433 C434 1.362 . S
C434 H426 0.930 1_655 S
C434 C433 1.362 . S
C434 C437 1.409 1_655 S
C435 H427 0.930 . S
C435 C436 1.355 . S
C435 C437 1.415 . S
C436 C435 1.355 . S
C436 C438 1.419 . S
C437 C432 1.425 1_455 S
C437 C434 1.409 1_455 S
C437 C435 1.415 . S
C438 H428 0.930 . S
C438 C436 1.419 . S
C438 C439 1.362 . S
C439 H429 0.930 1_455 S
C439 C432 1.409 1_455 S
C439 C438 1.362 . S
H440 C446 0.930 . S
H441 C449 0.930 . S
H442 C450 0.930 1_556 S
H443 C451 0.930 . S
H444 C454 0.930 . S
H445 C455 0.930 1_554 S
C446 H440 0.930 . S
C446 C447 1.355 . S
C446 C448 1.415 . S
C447 C446 1.355 . S
C447 C449 1.419 . S
C448 C446 1.415 . S
C448 C453 1.425 1_454 S
C448 C455 1.409 1_554 S
C449 H441 0.930 . S
C449 C447 1.419 . S
C449 C450 1.362 1_455 S
C450 H442 0.930 1_554 S
C450 C449 1.362 1_655 S
C450 C453 1.409 1_554 S
C451 H443 0.930 . S
C451 C452 1.355 . S
C451 C453 1.415 . S
C452 C451 1.355 . S
C452 C454 1.419 . S
C453 C448 1.425 1_656 S
C453 C450 1.409 1_556 S
C453 C451 1.415 . S
C454 H444 0.930 . S
C454 C452 1.419 . S
C454 C455 1.362 1_655 S
C455 H445 0.930 1_556 S
C455 C448 1.409 1_556 S
C455 C454 1.362 1_455 S
H456 C462 0.930 . S
H457 C465 0.930 . S
H458 C466 0.927 1_565 S
H459 C467 0.930 . S
H460 C470 0.930 . S
H461 C471 0.930 . S
C462 H456 0.930 . S
C462 C463 1.355 . S
C462 C464 1.415 . S
C463 C462 1.355 . S
C463 C465 1.419 . S
C464 C462 1.415 . S
C464 C469 1.425 1_455 S
C464 C471 1.409 1_455 S
C465 H457 0.930 . S
C465 C463 1.419 . S
C465 C466 1.362 . S
C466 H458 0.927 1_545 S
C466 C465 1.362 . S
C466 C469 1.409 1_455 S
C467 H459 0.930 . S
C467 C468 1.355 . S
C467 C469 1.415 . S
C468 C467 1.355 . S
C468 C470 1.419 . S
C469 C464 1.425 1_655 S
C469 C466 1.409 1_655 S
C469 C467 1.415 . S
C470 H460 0.930 . S
C470 C468 1.419 . S
C470 C471 1.362 . S
C471 H461 0.930 . S
C471 C464 1.409 1_655 S
C471 C470 1.362 . S
H472 C478 0.930 . S
H473 C481 0.930 . S
H474 C482 0.930 . S
H475 C483 0.930 . S
H476 C486 0.930 . S
H477 C487 0.930 . S
C478 H472 0.930 . S
C478 C479 1.355 . S
C478 C480 1.415 . S
C479 C478 1.355 . S
C479 C481 1.419 . S
C480 C478 1.415 . S
C480 C485 1.425 1_455 S
C480 C487 1.409 1_455 S
C481 H473 0.930 . S
C481 C479 1.419 . S
C481 C482 1.362 . S
C482 H474 0.930 . S
C482 C481 1.362 . S
C482 C485 1.409 1_455 S
C483 H475 0.930 . S
C483 C484 1.355 . S
C483 C485 1.415 . S
C484 C483 1.355 . S
C484 C486 1.419 . S
C485 C480 1.425 1_655 S
C485 C482 1.409 1_655 S
C485 C483 1.415 . S
C486 H476 0.930 . S
C486 C484 1.419 . S
C486 C487 1.362 . S
C487 H477 0.930 . S
C487 C480 1.409 1_655 S
C487 C486 1.362 . S
H488 C494 0.930 . S
H489 C497 0.930 . S
H490 C498 0.930 . S
H491 C499 0.930 . S
H492 C502 0.930 . S
H493 C503 0.930 . S
C494 H488 0.930 . S
C494 C495 1.355 . S
C494 C496 1.415 . S
C495 C494 1.355 . S
C495 C497 1.419 . S
C496 C494 1.415 . S
C496 C501 1.425 . S
C496 C503 1.409 . S
C497 H489 0.930 . S
C497 C495 1.419 . S
C497 C498 1.362 . S
C498 H490 0.930 . S
C498 C497 1.362 . S
C498 C501 1.409 . S
C499 H491 0.930 . S
C499 C500 1.355 . S
C499 C501 1.415 . S
C500 C499 1.355 . S
C500 C502 1.419 . S
C501 C496 1.425 . S
C501 C498 1.409 . S
C501 C499 1.415 . S
C502 H492 0.930 . S
C502 C500 1.419 . S
C502 C503 1.362 . S
C503 H493 0.930 . S
C503 C496 1.409 . S
C503 C502 1.362 . S
H504 C510 0.930 . S
H505 C513 0.930 . S
H506 C514 0.930 . S
H507 C515 0.930 . S
H508 C518 0.930 . S
H509 C519 0.930 . S
C510 H504 0.930 . S
C510 C511 1.355 . S
C510 C512 1.415 . S
C511 C510 1.355 . S
C511 C513 1.419 . S
C512 C510 1.415 . S
C512 C517 1.425 . S
C512 C519 1.409 . S
C513 H505 0.930 . S
C513 C511 1.419 . S
C513 C514 1.362 . S
C514 H506 0.930 . S
C514 C513 1.362 . S
C514 C517 1.409 . S
C515 H507 0.930 . S
C515 C516 1.355 . S
C515 C517 1.415 . S
C516 C515 1.355 . S
C516 C518 1.419 . S
C517 C512 1.425 . S
C517 C514 1.409 . S
C517 C515 1.415 . S
C518 H508 0.930 . S
C518 C516 1.419 . S
C518 C519 1.362 . S
C519 H509 0.930 . S
C519 C512 1.409 . S
C519 C518 1.362 . S
H520 C526 0.930 . S
H521 C529 0.930 . S
H522 C530 0.930 . S
H523 C531 0.930 . S
H524 C534 0.930 . S
H525 C535 0.930 . S
C526 H520 0.930 . S
C526 C527 1.355 . S
C526 C528 1.415 . S
C527 C526 1.355 . S
C527 C529 1.419 . S
C528 C526 1.415 . S
C528 C533 1.425 . S
C528 C535 1.409 . S
C529 H521 0.930 . S
C529 C527 1.419 . S
C529 C530 1.362 . S
C530 H522 0.930 . S
C530 C529 1.362 . S
C530 C533 1.409 . S
C531 H523 0.930 . S
C531 C532 1.355 . S
C531 C533 1.415 . S
C532 C531 1.355 . S
C532 C534 1.419 . S
C533 C528 1.425 . S
C533 C530 1.409 . S
C533 C531 1.415 . S
C534 H524 0.930 . S
C534 C532 1.419 . S
C534 C535 1.362 . S
C535 H525 0.930 . S
C535 C528 1.409 . S
C535 C534 1.362 . S
H536 C542 0.930 . S
H537 C545 0.930 . S
H538 C546 0.930 . S
H539 C547 0.930 . S
H540 C550 0.930 . S
H541 C551 0.930 . S
C542 H536 0.930 . S
C542 C543 1.355 . S
C542 C544 1.415 1_556 S
C543 C542 1.355 . S
C543 C545 1.419 . S
C544 C542 1.415 1_554 S
C544 C549 1.425 1_554 S
C544 C551 1.409 . S
C545 H537 0.930 . S
C545 C543 1.419 . S
C545 C546 1.362 . S
C546 H538 0.930 . S
C546 C545 1.362 . S
C546 C549 1.409 . S
C547 H539 0.930 . S
C547 C548 1.355 . S
C547 C549 1.415 1_554 S
C548 C547 1.355 . S
C548 C550 1.419 . S
C549 C544 1.425 1_556 S
C549 C546 1.409 . S
C549 C547 1.415 1_556 S
C550 H540 0.930 . S
C550 C548 1.419 . S
C550 C551 1.362 . S
C551 H541 0.930 . S
C551 C544 1.409 . S
C551 C550 1.362 . S
H552 C558 0.930 . S
H553 C561 0.930 . S
H554 C562 0.930 . S
H555 C563 0.930 . S
H556 C566 0.930 . S
H557 C567 0.930 . S
C558 H552 0.930 . S
C558 C559 1.355 . S
C558 C560 1.415 . S
C559 C558 1.355 . S
C559 C561 1.419 . S
C560 C558 1.415 . S
C560 C565 1.425 . S
C560 C567 1.409 . S
C561 H553 0.930 . S
C561 C559 1.419 . S
C561 C562 1.362 . S
C562 H554 0.930 . S
C562 C561 1.362 . S
C562 C565 1.409 . S
C563 H555 0.930 . S
C563 C564 1.355 . S
C563 C565 1.415 . S
C564 C563 1.355 . S
C564 C566 1.419 . S
C565 C560 1.425 . S
C565 C562 1.409 . S
C565 C563 1.415 . S
C566 H556 0.930 . S
C566 C564 1.419 . S
C566 C567 1.362 . S
C567 H557 0.930 . S
C567 C560 1.409 . S
C567 C566 1.362 . S
H568 C574 0.930 . S
H569 C577 0.930 . S
H570 C578 0.930 . S
H571 C579 0.930 . S
H572 C582 0.930 . S
H573 C583 0.930 . S
C574 H568 0.930 . S
C574 C575 1.355 . S
C574 C576 1.415 . S
C575 C574 1.355 . S
C575 C577 1.419 1_556 S
C576 C574 1.415 . S
C576 C581 1.425 1_556 S
C576 C583 1.409 . S
C577 H569 0.930 . S
C577 C575 1.419 1_554 S
C577 C578 1.362 . S
C578 H570 0.930 . S
C578 C577 1.362 . S
C578 C581 1.409 . S
C579 H571 0.930 . S
C579 C580 1.355 . S
C579 C581 1.415 . S
C580 C579 1.355 . S
C580 C582 1.419 1_554 S
C581 C576 1.425 1_554 S
C581 C578 1.409 . S
C581 C579 1.415 . S
C582 H572 0.930 . S
C582 C580 1.419 1_556 S
C582 C583 1.362 . S
C583 H573 0.930 . S
C583 C576 1.409 . S
C583 C582 1.362 . S
C271 C106 1.054 . S
C276 C18 1.084 . S
C287 C51 1.098 . S
C292 C73 1.097 . S
C303 C84 1.083 . S
C308 C40 1.049 . S
C319 C117 1.083 . S
C324 C7 1.050 . S
C335 C150 1.102 . S
C340 C238 1.110 . S
C351 C183 1.088 . S
C356 C205 1.063 . S
C367 C172 1.071 . S
C372 C216 1.089 . S
C383 C249 1.085 . S
C388 C139 1.058 . S
C399 N79 1.904 . S
C404 N13 1.904 . S
C415 N112 1.865 . S
C420 N46 1.865 . S
C431 N145 1.866 . S
C436 N211 1.866 . S
C447 N178 1.898 . S
C452 N244 1.898 . S
C463 N2 1.222 . S
C468 N35 1.240 . S
C479 N101 1.261 . S
C484 N68 1.262 . S
C495 N167 1.169 . S
C500 N134 1.186 . S
C511 N233 1.218 . S
C516 N200 1.199 . S
C527 C219 1.591 . S
C532 C21 1.591 . S
C543 C252 1.622 . S
C548 C54 1.622 . S
C559 C153 1.587 . S
C564 C87 1.587 . S
C575 C120 1.577 . S
C580 C186 1.577 . S
