# Generated by pormake.
# Topology vmc, (5)-cn, num edge types: 1
# Building blocks:
#     Node 0, Type 0, BuildingBlock: XOMCOT_clean_sbu_1, # of connection points: 5
#     Node 1, Type 0, BuildingBlock: XOMCOT_clean_sbu_1, # of connection points: 5
#     Node 2, Type 0, BuildingBlock: XOMCOT_clean_sbu_1, # of connection points: 5
#     Node 3, Type 0, BuildingBlock: XOMCOT_clean_sbu_1, # of connection points: 5
#     Node 4, Type 0, BuildingBlock: XOMCOT_clean_sbu_1, # of connection points: 5
#     Node 5, Type 0, BuildingBlock: XOMCOT_clean_sbu_1, # of connection points: 5
#     Node 6, Type 0, BuildingBlock: XOMCOT_clean_sbu_1, # of connection points: 5
#     Node 7, Type 0, BuildingBlock: XOMCOT_clean_sbu_1, # of connection points: 5
#     Edge 8, Type (0, 0), BuildingBlock: EZIPEK_clean_linker_0, # of connection points: 2
#     Edge 9, Type (0, 0), BuildingBlock: EZIPEK_clean_linker_0, # of connection points: 2
#     Edge 10, Type (0, 0), BuildingBlock: EZIPEK_clean_linker_0, # of connection points: 2
#     Edge 11, Type (0, 0), BuildingBlock: EZIPEK_clean_linker_0, # of connection points: 2
#     Edge 12, Type (0, 0), BuildingBlock: EZIPEK_clean_linker_0, # of connection points: 2
#     Edge 13, Type (0, 0), BuildingBlock: EZIPEK_clean_linker_0, # of connection points: 2
#     Edge 14, Type (0, 0), BuildingBlock: EZIPEK_clean_linker_0, # of connection points: 2
#     Edge 15, Type (0, 0), BuildingBlock: EZIPEK_clean_linker_0, # of connection points: 2
#     Edge 16, Type (0, 0), BuildingBlock: EZIPEK_clean_linker_0, # of connection points: 2
#     Edge 17, Type (0, 0), BuildingBlock: EZIPEK_clean_linker_0, # of connection points: 2
#     Edge 18, Type (0, 0), BuildingBlock: EZIPEK_clean_linker_0, # of connection points: 2
#     Edge 19, Type (0, 0), BuildingBlock: EZIPEK_clean_linker_0, # of connection points: 2
#     Edge 20, Type (0, 0), BuildingBlock: EZIPEK_clean_linker_0, # of connection points: 2
#     Edge 21, Type (0, 0), BuildingBlock: EZIPEK_clean_linker_0, # of connection points: 2
#     Edge 22, Type (0, 0), BuildingBlock: EZIPEK_clean_linker_0, # of connection points: 2
#     Edge 23, Type (0, 0), BuildingBlock: EZIPEK_clean_linker_0, # of connection points: 2
#     Edge 24, Type (0, 0), BuildingBlock: EZIPEK_clean_linker_0, # of connection points: 2
#     Edge 25, Type (0, 0), BuildingBlock: EZIPEK_clean_linker_0, # of connection points: 2
#     Edge 26, Type (0, 0), BuildingBlock: EZIPEK_clean_linker_0, # of connection points: 2
#     Edge 27, Type (0, 0), BuildingBlock: EZIPEK_clean_linker_0, # of connection points: 2
# Relax obj value: 0.407
# Max RMSD: 0.213
# Mean RMSD: 0.213
data_MOF--net-vmc--node1-XOMCOT_clean_sbu_1--edge1-EZIPEK_clean_linker_0
_symmetry_space_group_name_H-M    P1
_symmetry_Int_Tables_number       1
_symmetry_cell_setting            triclinic
loop_
_symmetry_equiv_pos_as_xyz
'x, y, z'
_cell_length_a     22.153386
_cell_length_b     37.97306
_cell_length_c     21.469995
_cell_angle_alpha  90.013174
_cell_angle_beta   96.024915
_cell_angle_gamma 89.624399
loop_
_atom_site_label
_atom_site_type_symbol
_atom_site_fract_x
_atom_site_fract_y
_atom_site_fract_z
_atom_type_partial_charge
C0 C 0.37053 0.39351 0.09199 0.0
C1 C 0.40828 0.38308 0.14334 0.0
N2 N 0.39518 0.40169 0.1941 0.0
N3 N 0.33466 0.41974 0.10851 0.0
C4 C 0.35198 0.42504 0.17006 0.0
H5 H 0.37045 0.38331 0.04494 0.0
Co6 Co 0.27999 0.44433 0.05147 0.0
C7 C 0.19084 0.46828 0.14259 0.0
O8 O 0.14203 0.45732 0.10813 0.0
N9 N 0.22834 0.46935 0.99071 0.0
C10 C 0.17344 0.51077 0.93648 0.0
C11 C 0.18787 0.49586 0.99485 0.0
C12 C 0.23819 0.46924 0.92938 0.0
N13 N 0.20525 0.49389 0.89551 0.0
O14 O 0.33499 0.48166 0.05421 0.0
H15 H 0.17359 0.50623 0.03765 0.0
H16 H 0.27272 0.45337 0.91062 0.0
O17 O 0.24296 0.46505 0.1226 0.0
C18 C 0.37832 0.4729 1.02316 0.0
O19 O 0.37132 0.44501 0.98691 0.0
N20 N 0.2294 0.40504 0.04668 0.0
C21 C 0.2168 0.33247 0.04403 0.0
C22 C 0.20859 0.35119 0.09868 0.0
C23 C 0.2162 0.38766 0.09936 0.0
C24 C 0.22998 0.38739 0.99145 0.0
C25 C 0.22383 0.35097 0.98909 0.0
H26 H 0.22087 0.40059 0.14424 0.0
H27 H 0.24393 0.40045 0.95092 0.0
H28 H 0.33544 0.4472 0.19456 0.0
H29 H 0.4446 0.36402 0.14204 0.0
H30 H 0.14533 0.53386 0.92584 0.0
H31 H 0.20367 0.3374 0.142 0.0
H32 H 0.23047 0.33711 0.94619 0.0
C33 C 0.60703 0.39285 0.50656 0.0
C34 C 0.55964 0.38516 0.4625 0.0
N35 N 0.56415 0.40571 0.41228 0.0
N36 N 0.64152 0.41815 0.48439 0.0
C37 C 0.6142 0.42556 0.42639 0.0
H38 H 0.61515 0.3813 0.55272 0.0
Co39 Co 0.70558 0.43848 0.53539 0.0
C40 C 0.78923 0.46607 0.44151 0.0
O41 O 0.83946 0.46344 0.47932 0.0
N42 N 0.76846 0.45864 0.59206 0.0
C43 C 0.8497 0.46044 0.66324 0.0
C44 C 0.82638 0.44724 0.60596 0.0
C45 C 0.75843 0.47911 0.64201 0.0
N46 N 0.80656 0.48017 0.68612 0.0
O47 O 0.65768 0.47908 0.53928 0.0
H48 H 0.84848 0.42754 0.57975 0.0
H49 H 0.71493 0.49024 0.6497 0.0
O50 O 0.73828 0.45737 0.45994 0.0
C51 C 0.61754 0.47401 0.57657 0.0
O52 O 0.62413 0.44598 0.61243 0.0
N53 N 0.74762 0.39628 0.53314 0.0
C54 C 0.75411 0.32358 0.53133 0.0
C55 C 0.76152 0.34285 0.47706 0.0
C56 C 0.75739 0.37956 0.47875 0.0
C57 C 0.74613 0.37792 0.58745 0.0
C58 C 0.74931 0.34133 0.58759 0.0
H59 H 0.75436 0.39385 0.4351 0.0
H60 H 0.73534 0.39145 0.62926 0.0
H61 H 0.62935 0.44568 0.39601 0.0
H62 H 0.52406 0.36621 0.46703 0.0
H63 H 0.89304 0.4536 0.68857 0.0
H64 H 0.76467 0.32957 0.43285 0.0
H65 H 0.74328 0.32697 0.63007 0.0
C66 C 0.60614 0.59519 0.99089 0.0
C67 C 0.56589 0.60344 0.94003 0.0
N68 N 0.58654 0.58933 0.88875 0.0
N69 N 0.65145 0.57515 0.97241 0.0
C70 C 0.63887 0.57249 0.90951 0.0
H71 H 0.60241 0.60318 0.03865 0.0
Co72 Co 0.71153 0.55554 1.03016 0.0
C73 C 0.80244 0.5372 0.93556 0.0
O74 O 0.84149 0.56144 0.95599 0.0
N75 N 0.76948 0.53571 0.09237 0.0
C76 C 0.85136 0.52169 0.15787 0.0
C77 C 0.83089 0.5349 0.09929 0.0
C78 C 0.75426 0.5229 0.14759 0.0
N79 N 0.80272 0.51426 0.18793 0.0
O80 O 0.66469 0.51434 1.03035 0.0
H81 H 0.85949 0.54495 0.06594 0.0
H82 H 0.70863 0.52141 0.1602 0.0
O83 O 0.75289 0.53512 0.96106 0.0
C84 C 0.62174 0.51771 0.06472 0.0
O85 O 0.62035 0.54608 0.09967 0.0
N86 N 0.75272 0.59815 1.03208 0.0
C87 C 0.7525 0.67105 0.03789 0.0
C88 C 0.75932 0.654 0.98125 0.0
C89 C 0.75859 0.61729 0.97912 0.0
C90 C 0.75202 0.61452 0.08853 0.0
C91 C 0.75189 0.65111 0.09252 0.0
H92 H 0.75467 0.60476 0.93375 0.0
H93 H 0.74373 0.59946 0.12944 0.0
H94 H 0.66671 0.5581 0.87955 0.0
H95 H 0.52463 0.61885 0.94043 0.0
H96 H 0.89814 0.51896 0.17767 0.0
H97 H 0.75923 0.66889 0.93821 0.0
H98 H 0.74618 0.66369 0.13684 0.0
C99 C 0.39349 0.61563 0.5631 0.0
C100 C 0.44213 0.6227 0.6065 0.0
N101 N 0.43944 0.60083 0.65542 0.0
N102 N 0.36043 0.58941 0.58452 0.0
C103 C 0.39022 0.58055 0.64048 0.0
H104 H 0.38396 0.62791 0.51767 0.0
Co105 Co 0.29589 0.5673 0.53733 0.0
C106 C 0.22077 0.54738 0.64581 0.0
O107 O 0.17016 0.5623 0.62156 0.0
N108 N 0.23265 0.54501 0.48538 0.0
C109 C 0.14615 0.53557 0.4243 0.0
C110 C 0.17184 0.55038 0.47955 0.0
C111 C 0.24233 0.527 0.43269 0.0
N112 N 0.19089 0.52107 0.39501 0.0
O113 O 0.34589 0.52739 0.53301 0.0
H114 H 0.14809 0.56737 0.50913 0.0
H115 H 0.28658 0.52083 0.41885 0.0
O116 O 0.26816 0.54817 0.61629 0.0
C117 C 0.38499 0.53228 0.49447 0.0
O118 O 0.37863 0.56062 0.45931 0.0
N119 N 0.25108 0.6089 0.53815 0.0
C120 C 0.23673 0.68128 0.53129 0.0
C121 C 0.2351 0.66395 0.58846 0.0
C122 C 0.2427 0.62751 0.59097 0.0
C123 C 0.24724 0.62521 0.48129 0.0
C124 C 0.23981 0.66161 0.47671 0.0
H125 H 0.24836 0.61527 0.63606 0.0
H126 H 0.25681 0.61049 0.44031 0.0
H127 H 0.37795 0.5586 0.66858 0.0
H128 H 0.47723 0.64199 0.60227 0.0
H129 H 0.09923 0.53783 0.40473 0.0
H130 H 0.23322 0.67873 0.6314 0.0
H131 H 0.24167 0.67452 0.43196 0.0
C132 C 0.85581 0.8744 0.09476 0.0
C133 C 0.89352 0.86548 0.14723 0.0
N134 N 0.88738 0.88929 0.1932 0.0
N135 N 0.82665 0.9045 0.10563 0.0
C136 C 0.84876 0.91375 0.16441 0.0
H137 H 0.85282 0.86085 0.05031 0.0
Co138 Co 0.77492 0.9301 0.04724 0.0
C139 C 0.68778 0.96203 0.13956 0.0
O140 O 0.63657 0.96301 0.10293 0.0
N141 N 0.72436 0.95554 0.98558 0.0
C142 C 0.64663 0.97001 0.91508 0.0
C143 C 0.66346 0.95367 0.97167 0.0
C144 C 0.74335 0.97252 0.93551 0.0
N145 N 0.69709 0.98169 0.89245 0.0
O146 O 0.83193 0.9669 0.05434 0.0
H147 H 0.63347 0.93846 0.9975 0.0
H148 H 0.79035 0.97598 0.92803 0.0
O149 O 0.73628 0.95042 0.11884 0.0
C150 C 0.87557 0.95988 1.02211 0.0
O151 O 0.87165 0.93221 0.98512 0.0
N152 N 0.72367 0.89159 0.03693 0.0
C153 C 0.70267 0.82012 1.03276 0.0
C154 C 0.67762 0.84093 0.07759 0.0
C155 C 0.68863 0.87719 0.07873 0.0
C156 C 0.73959 0.87252 0.98744 0.0
C157 C 0.73003 0.83641 0.98473 0.0
H158 H 0.67283 0.89273 0.11548 0.0
H159 H 0.76711 0.88456 0.95465 0.0
H160 H 0.83961 0.93939 0.18282 0.0
H161 H 0.92588 0.84399 0.1491 0.0
H162 H 0.60143 0.97119 0.89049 0.0
H163 H 0.65499 0.82893 0.11447 0.0
H164 H 0.74911 0.82094 0.94907 0.0
C165 C 0.10472 0.89359 0.50392 0.0
C166 C 0.05827 0.88263 0.46118 0.0
N167 N 0.06084 0.90105 0.40804 0.0
N168 N 0.13636 0.91891 0.478 0.0
C169 C 0.10869 0.92288 0.41916 0.0
H170 H 0.11405 0.88438 0.55164 0.0
Co171 Co 0.19731 0.94388 0.52475 0.0
C172 C 0.27291 0.96552 0.42117 0.0
O173 O 0.32389 0.95376 0.45105 0.0
N174 N 0.25592 0.96934 0.5766 0.0
C175 C 0.3174 0.01028 0.62246 0.0
C176 C 0.29582 0.99498 0.56622 0.0
C177 C 0.25345 0.97029 0.63939 0.0
N178 N 0.29015 0.99478 0.66827 0.0
O179 O 0.14279 0.98165 0.52816 0.0
H180 H 0.30476 0.00472 0.52103 0.0
H181 H 0.22178 0.9551 0.66327 0.0
O182 O 0.22336 0.96336 0.44664 0.0
C183 C 0.1058 0.9772 0.56893 0.0
O184 O 0.11523 0.94988 0.60615 0.0
N185 N 0.24772 0.9043 0.52359 0.0
C186 C 0.26648 0.83207 0.5259 0.0
C187 C 0.26437 0.85043 0.46932 0.0
C188 C 0.25335 0.88659 0.46899 0.0
C189 C 0.25651 0.88712 0.57962 0.0
C190 C 0.26567 0.8508 0.58182 0.0
H191 H 0.24033 0.8989 0.42438 0.0
H192 H 0.24829 0.90045 0.62223 0.0
H193 H 0.12141 0.9423 0.38613 0.0
H194 H 0.02429 0.86317 0.46875 0.0
H195 H 0.34659 0.03304 0.6286 0.0
H196 H 0.26369 0.83638 0.42532 0.0
H197 H 0.26671 0.8371 0.62618 0.0
C198 C 0.1171 0.12749 0.96615 0.0
C199 C 0.08101 0.13613 0.91241 0.0
N200 N 0.08704 0.11134 0.86802 0.0
N201 N 0.14529 0.09679 0.95735 0.0
C202 C 0.12415 0.08685 0.89873 0.0
H203 H 0.12018 0.1419 1.00976 0.0
Co204 Co 0.19686 0.07169 1.0163 0.0
C205 C 0.28733 0.04489 0.92232 0.0
O206 O 0.34007 0.05 0.95468 0.0
N207 N 0.24751 0.04687 0.07778 0.0
C208 C 0.32566 0.03186 0.14712 0.0
C209 C 0.30862 0.04771 0.09021 0.0
C210 C 0.22856 0.03123 0.12901 0.0
N211 N 0.27511 0.02167 0.17135 0.0
O212 O 0.14179 0.03361 1.00777 0.0
H213 H 0.33874 0.06218 0.06356 0.0
H214 H 0.18157 0.02925 0.13769 0.0
O215 O 0.238 0.05262 0.94558 0.0
C216 C 0.09599 0.04046 0.03707 0.0
O217 O 0.09577 0.06937 0.07072 0.0
N218 N 0.24572 0.11096 1.02866 0.0
C219 C 0.26133 0.1827 0.03978 0.0
C220 C 0.28596 0.16437 0.99163 0.0
C221 C 0.27732 0.12799 0.98668 0.0
C222 C 0.22989 0.12776 0.08062 0.0
C223 C 0.23676 0.16394 0.08688 0.0
H224 H 0.29156 0.11454 0.94683 0.0
H225 H 0.20446 0.11378 0.11305 0.0
H226 H 0.13321 0.06087 0.88202 0.0
H227 H 0.04999 0.15831 0.90823 0.0
H228 H 0.37117 0.03009 0.17086 0.0
H229 H 0.30631 0.17839 0.95528 0.0
H230 H 0.21814 0.17749 0.12504 0.0
C231 C 0.87156 0.10852 0.55632 0.0
C232 C 0.91895 0.11877 0.59851 0.0
N233 N 0.91394 0.10211 0.65297 0.0
N234 N 0.83696 0.08535 0.58384 0.0
C235 C 0.86367 0.08207 0.64318 0.0
H236 H 0.86373 0.11659 0.50783 0.0
Co237 Co 0.77481 0.06097 0.53794 0.0
C238 C 0.70034 0.04035 0.64381 0.0
O239 O 0.64942 0.05317 0.61551 0.0
N240 N 0.71524 0.03596 0.48655 0.0
C241 C 0.65253 0.99564 0.44059 0.0
C242 C 0.67387 0.01115 0.49684 0.0
C243 C 0.71854 0.03445 0.42392 0.0
N244 N 0.68133 0.01024 0.39496 0.0
O245 O 0.82839 0.0226 0.53425 0.0
H246 H 0.66349 0.00225 0.54212 0.0
H247 H 0.75072 0.04926 0.40012 0.0
O248 O 0.74911 0.04177 0.61677 0.0
C249 C 0.86517 0.02631 0.49305 0.0
O250 O 0.85588 0.05318 0.45481 0.0
N251 N 0.72536 0.10119 0.5394 0.0
C252 C 0.71045 0.17381 0.53523 0.0
C253 C 0.71519 0.15616 0.59268 0.0
C254 C 0.72311 0.11968 0.59382 0.0
C255 C 0.7141 0.1178 0.48298 0.0
C256 C 0.70633 0.15427 0.47983 0.0
H257 H 0.73671 0.10748 0.63843 0.0
H258 H 0.71911 0.10384 0.44016 0.0
H259 H 0.84871 0.06414 0.6775 0.0
H260 H 0.95531 0.1364 0.58963 0.0
H261 H 0.62209 0.97344 0.4344 0.0
H262 H 0.71953 0.17076 0.63627 0.0
H263 H 0.70334 0.16735 0.43477 0.0
C264 C 0.25971 0.54494 0.76174 0.0
C265 C 0.22244 0.53086 0.70953 0.0
C266 C 0.17402 0.49187 0.78134 0.0
C267 C 0.21277 0.5051 0.83245 0.0
N268 N 0.29943 0.53928 0.87114 0.0
N269 N 0.15224 0.48625 0.66844 0.0
C270 C 0.25799 0.52996 0.82236 0.0
C271 C 0.18186 0.50292 0.71909 0.0
N272 N 0.29377 0.57418 0.75458 0.0
N273 N 0.12887 0.46923 0.79286 0.0
H274 H 0.15788 0.49317 0.62239 0.0
H275 H 0.1263 0.4637 0.67167 0.0
H276 H 0.12371 0.46005 0.83782 0.0
H277 H 0.09456 0.4613 0.75903 0.0
H278 H 0.31596 0.58823 0.79174 0.0
H279 H 0.29626 0.58618 0.71166 0.0
H280 H 0.33823 0.55382 0.86573 0.0
H281 H 0.29756 0.53012 0.91667 0.0
C282 C 0.77088 0.4758 0.79206 0.0
C283 C 0.80731 0.49239 0.75018 0.0
C284 C 0.85694 0.52632 0.83792 0.0
C285 C 0.81119 0.51641 0.87649 0.0
N286 N 0.73299 0.47435 0.89384 0.0
N287 N 0.88164 0.53585 0.73203 0.0
C288 C 0.77027 0.48906 0.85444 0.0
C289 C 0.84923 0.51841 0.77287 0.0
N290 N 0.74014 0.44586 0.77345 0.0
N291 N 0.91053 0.54016 0.8638 0.0
H292 H 0.87678 0.53067 0.68403 0.0
H293 H 0.90875 0.5575 0.74515 0.0
H294 H 0.92344 0.53987 0.91186 0.0
H295 H 0.94638 0.54585 0.83773 0.0
H296 H 0.7169 0.43037 0.80286 0.0
H297 H 0.74225 0.43449 0.72956 0.0
H298 H 0.69485 0.45961 0.87842 0.0
H299 H 0.74159 0.47587 0.94241 0.0
C300 C 0.81946 0.45652 0.33245 0.0
C301 C 0.79236 0.47836 0.37587 0.0
C302 C 0.77957 0.52544 0.29678 0.0
C303 C 0.80148 0.50251 0.25197 0.0
N304 N 0.8331 0.44469 0.2235 0.0
N305 N 0.74019 0.53224 0.39752 0.0
C306 C 0.81916 0.46764 0.26894 0.0
C307 C 0.77019 0.51238 0.35732 0.0
N308 N 0.84596 0.42525 0.35191 0.0
N309 N 0.77036 0.56019 0.28207 0.0
H310 H 0.73492 0.52438 0.44317 0.0
H311 H 0.71699 0.55545 0.3844 0.0
H312 H 0.77872 0.57059 0.23886 0.0
H313 H 0.76004 0.57926 0.31419 0.0
H314 H 0.87218 0.41008 0.32447 0.0
H315 H 0.84551 0.41554 0.39724 0.0
H316 H 0.83996 0.41781 0.231 0.0
H317 H 0.83277 0.4521 0.17669 0.0
C318 C 0.16359 0.46159 0.25387 0.0
C319 C 0.18649 0.4828 0.20683 0.0
C320 C 0.20454 0.53094 0.28342 0.0
C321 C 0.187 0.50863 0.33109 0.0
N322 N 0.15613 0.45214 0.365 0.0
N323 N 0.23274 0.53705 0.17785 0.0
C324 C 0.16783 0.47386 0.31703 0.0
C325 C 0.20826 0.51729 0.22202 0.0
N326 N 0.1379 0.42969 0.23857 0.0
N327 N 0.21558 0.56564 0.29672 0.0
H328 H 0.23189 0.52955 0.1311 0.0
H329 H 0.25661 0.56023 0.18797 0.0
H330 H 0.21272 0.57627 0.34111 0.0
H331 H 0.22257 0.58452 0.26313 0.0
H332 H 0.1141 0.41508 0.2688 0.0
H333 H 0.13662 0.41847 0.19429 0.0
H334 H 0.14876 0.42521 0.36002 0.0
H335 H 0.1581 0.46078 0.41131 0.0
C336 C 0.71595 0.97482 0.78117 0.0
C337 C 0.70097 0.99658 0.83096 0.0
C338 C 0.68387 0.04665 0.75854 0.0
C339 C 0.70157 0.02535 0.70863 0.0
N340 N 0.74071 0.96991 0.67397 0.0
N341 N 0.67972 0.05364 0.87082 0.0
C342 C 0.71992 0.98971 0.72058 0.0
C343 C 0.6874 0.03263 0.82053 0.0
N344 N 0.72368 0.9395 0.79149 0.0
N345 N 0.66325 0.08027 0.74688 0.0
H346 H 0.68163 0.04378 0.91637 0.0
H347 H 0.67621 0.08095 0.86859 0.0
H348 H 0.66357 0.0927 0.70377 0.0
H349 H 0.64257 0.09547 0.77904 0.0
H350 H 0.7281 0.92113 0.75625 0.0
H351 H 0.7214 0.92806 0.83534 0.0
H352 H 0.7619 0.94552 0.68148 0.0
H353 H 0.73977 0.97848 0.6278 0.0
C354 C 0.26358 0.05321 0.80507 0.0
C355 C 0.28564 0.03145 0.85662 0.0
C356 C 0.31505 0.98642 0.78259 0.0
C357 C 0.28884 0.00711 0.73183 0.0
N358 N 0.22705 0.05653 0.69465 0.0
N359 N 0.32429 0.97503 0.89456 0.0
C360 C 0.26012 0.03954 0.74309 0.0
C361 C 0.30927 0.99736 0.84536 0.0
N362 N 0.24748 0.08737 0.8148 0.0
N363 N 0.3469 0.95674 0.77041 0.0
H364 H 0.32006 0.98199 0.94092 0.0
H365 H 0.3361 0.9487 0.88926 0.0
H366 H 0.35134 0.94825 0.72487 0.0
H367 H 0.3726 0.94215 0.80478 0.0
H368 H 0.23926 0.10576 0.77888 0.0
H369 H 0.24477 0.09788 0.85899 0.0
H370 H 0.20039 0.07874 0.70035 0.0
H371 H 0.22152 0.04649 0.64923 0.0
C372 C 0.25641 0.02962 0.28227 0.0
C373 C 0.27184 0.00746 0.23326 0.0
C374 C 0.29151 0.9585 0.30737 0.0
C375 C 0.27239 0.98 0.3563 0.0
N376 N 0.2303 0.03515 0.38879 0.0
N377 N 0.29442 0.95012 0.19536 0.0
C378 C 0.2525 0.01524 0.34313 0.0
C379 C 0.28674 0.9717 0.2449 0.0
N380 N 0.24832 0.06484 0.27104 0.0
N381 N 0.31479 0.92556 0.32033 0.0
H382 H 0.29134 0.95933 0.14933 0.0
H383 H 0.29872 0.92286 0.19885 0.0
H384 H 0.31646 0.91376 0.36415 0.0
H385 H 0.33627 0.91055 0.2885 0.0
H386 H 0.24354 0.08342 0.30586 0.0
H387 H 0.25103 0.07599 0.22703 0.0
H388 H 0.20811 0.05918 0.38015 0.0
H389 H 0.23095 0.02697 0.43515 0.0
C390 C 0.66099 0.01998 0.28046 0.0
C391 C 0.68262 0.99795 0.33125 0.0
C392 C 0.7058 0.95166 0.25726 0.0
C393 C 0.6887 0.97469 0.20592 0.0
N394 N 0.66027 0.03327 0.1698 0.0
N395 N 0.73774 0.94607 0.36842 0.0
C396 C 0.66897 0.00958 0.2179 0.0
C397 C 0.70821 0.96463 0.31974 0.0
N398 N 0.63138 0.05052 0.29225 0.0
N399 N 0.71815 0.91704 0.2469 0.0
H400 H 0.74287 0.9555 0.41425 0.0
H401 H 0.76221 0.923 0.36268 0.0
H402 H 0.72287 0.9069 0.20285 0.0
H403 H 0.72183 0.89808 0.28218 0.0
H404 H 0.60884 0.06622 0.25735 0.0
H405 H 0.62505 0.05858 0.3376 0.0
H406 H 0.65174 0.05994 0.17629 0.0
H407 H 0.66724 0.02699 0.12379 0.0
C408 C 0.4683 0.4916 0.09842 0.0
C409 C 0.44017 0.48756 1.03583 0.0
C410 C 0.53976 0.48791 0.99618 0.0
C411 C 0.56676 0.49569 0.05693 0.0
N412 N 0.5628 0.49119 0.16741 0.0
N413 N 0.44832 0.49062 0.92474 0.0
C414 C 0.53261 0.4932 0.10861 0.0
C415 C 0.47584 0.4882 0.98465 0.0
N416 N 0.43449 0.49596 0.14767 0.0
N417 N 0.57475 0.47771 0.95069 0.0
H418 H 0.40135 0.49297 0.91465 0.0
H419 H 0.47224 0.49425 0.88601 0.0
H420 H 0.62128 0.47334 0.95971 0.0
H421 H 0.5565 0.4683 0.90718 0.0
H422 H 0.45299 0.50156 0.19311 0.0
H423 H 0.38762 0.4984 0.14345 0.0
H424 H 0.54217 0.48565 0.20764 0.0
H425 H 0.61017 0.49114 0.17466 0.0
C426 C 0.50369 0.47456 0.57766 0.0
C427 C 0.55754 0.49201 0.56437 0.0
C428 C 0.49786 0.53006 0.48928 0.0
C429 C 0.4441 0.5132 0.5037 0.0
N430 N 0.39991 0.46047 0.5401 0.0
N431 N 0.60126 0.5447 0.52639 0.0
C432 C 0.44831 0.48263 0.54138 0.0
C433 C 0.55324 0.52228 0.52566 0.0
N434 N 0.50369 0.45318 0.62881 0.0
N435 N 0.49743 0.55081 0.43731 0.0
H436 H 0.64063 0.54128 0.55709 0.0
H437 H 0.59876 0.56882 0.50307 0.0
H438 H 0.46031 0.55207 0.40328 0.0
H439 H 0.53663 0.56166 0.42262 0.0
H440 H 0.46445 0.44182 0.64242 0.0
H441 H 0.53997 0.45189 0.66376 0.0
H442 H 0.4021 0.436 0.56222 0.0
H443 H 0.36033 0.46466 0.51001 0.0
C444 C 0.04286 0.98333 0.05053 0.0
C445 C 0.04081 0.01868 1.02944 0.0
C446 C 0.92971 0.01675 1.01103 0.0
C447 C 0.93184 0.98072 1.02821 0.0
N448 N 0.98999 0.92849 0.06067 0.0
N449 N 0.98452 0.06683 0.97745 0.0
C450 C 0.98835 0.96362 0.04661 0.0
C451 C 0.98481 0.03482 1.00657 0.0
N452 N 0.09634 0.96908 0.07709 0.0
N453 N 0.87522 0.03389 0.999 0.0
H454 H 0.02395 0.08066 0.97229 0.0
H455 H 0.94617 0.07812 0.95293 0.0
H456 H 0.8334 0.02152 0.99826 0.0
H457 H 0.87119 0.06112 0.99431 0.0
H458 H 0.09954 0.94534 0.10145 0.0
H459 H 0.1378 0.98189 0.07809 0.0
H460 H 0.02959 0.91339 0.06531 0.0
H461 H 0.95132 0.9138 0.06528 0.0
C462 C 0.93576 0.98195 0.54798 0.0
C463 C 0.92629 0.00927 0.50314 0.0
C464 C 0.03506 0.02168 0.51485 0.0
C465 C 0.04465 0.99423 0.55935 0.0
N466 N -0.00018 0.95991 0.63725 0.0
N467 N 0.97154 0.04321 0.42495 0.0
C468 C -0.00614 0.97745 0.58141 0.0
C469 C 0.97715 0.02598 0.48109 0.0
N470 N 0.88988 0.95911 0.55613 0.0
N471 N 0.08067 0.04479 0.50717 0.0
H472 H 0.93248 0.04167 0.39351 0.0
H473 H 0.00844 0.05366 0.40504 0.0
H474 H 0.12191 0.04406 0.53559 0.0
H475 H 0.07461 0.06715 0.47901 0.0
H476 H 0.89571 0.9368 0.58443 0.0
H477 H 0.84847 0.95999 0.52801 0.0
H478 H 0.96311 0.94939 0.65737 0.0
H479 H 0.03914 0.96123 0.66838 0.0
C480 C 0.28245 0.27993 0.07646 0.0
C481 C 0.22739 0.29387 0.04558 0.0
C482 C 0.20143 0.23588 1.00166 0.0
C483 C 0.25329 0.22138 0.03747 0.0
N484 N 0.3395 0.22822 0.11459 0.0
N485 N 0.12977 0.28446 0.98768 0.0
C486 C 0.29269 0.24301 0.07665 0.0
C487 C 0.18552 0.27162 1.01063 0.0
N488 N 0.32623 0.30203 0.10317 0.0
N489 N 0.16793 0.21567 0.95831 0.0
H490 H 0.11648 0.31052 0.99408 0.0
H491 H 0.09475 0.26869 0.96749 0.0
H492 H 0.17826 0.18944 0.94997 0.0
H493 H 0.1334 0.22568 0.92644 0.0
H494 H 0.36994 0.29378 0.11954 0.0
H495 H 0.32062 0.32918 0.10469 0.0
H496 H 0.36506 0.24197 0.15 0.0
H497 H 0.35052 0.20148 0.11328 0.0
C498 C 0.79216 0.26178 0.5481 0.0
C499 C 0.74384 0.28511 0.52845 0.0
C500 C 0.67241 0.23577 0.51703 0.0
C501 C 0.7214 0.21226 0.53319 0.0
N502 N 0.82935 0.20173 0.55358 0.0
N503 N 0.63966 0.29487 0.48621 0.0
C504 C 0.78174 0.22496 0.54588 0.0
C505 C 0.68442 0.27224 0.51033 0.0
N506 N 0.84775 0.2749 0.56993 0.0
N507 N 0.61431 0.22332 0.51025 0.0
H508 H 0.64606 0.3219 0.48245 0.0
H509 H 0.5974 0.28673 0.4657 0.0
H510 H 0.60414 0.19668 0.5143 0.0
H511 H 0.57592 0.23943 0.50525 0.0
H512 H 0.88266 0.25961 0.59242 0.0
H513 H 0.85795 0.30167 0.56921 0.0
H514 H 0.87468 0.20915 0.55603 0.0
H515 H 0.82365 0.17457 0.55248 0.0
C516 C 0.76354 0.76857 0.07608 0.0
C517 C 0.71014 0.78159 0.04095 0.0
C518 C 0.68061 0.7215 1.01114 0.0
C519 C 0.73802 0.70917 0.03892 0.0
N520 N 0.83748 0.72125 0.09093 0.0
N521 N 0.61978 0.77148 0.97091 0.0
C522 C 0.78037 0.73277 0.06981 0.0
C523 C 0.66908 0.75832 1.00734 0.0
N524 N 0.7978 0.79038 0.11602 0.0
N525 N 0.63642 0.69801 0.99046 0.0
H526 H 0.60854 0.79822 0.96959 0.0
H527 H 0.5922 0.75626 0.93934 0.0
H528 H 0.64262 0.67081 0.99343 0.0
H529 H 0.59189 0.70534 0.97546 0.0
H530 H 0.83394 0.78164 0.14726 0.0
H531 H 0.78644 0.81666 0.12258 0.0
H532 H 0.8725 0.73804 0.10759 0.0
H533 H 0.85159 0.69517 0.08674 0.0
C534 C 0.31025 0.77153 0.54412 0.0
C535 C 0.25937 0.79334 0.52594 0.0
C536 C 0.19268 0.74179 0.51548 0.0
C537 C 0.24413 0.71991 0.52991 0.0
N538 N 0.3526 0.71252 0.55168 0.0
N539 N 0.15296 0.80003 0.48894 0.0
C540 C 0.30317 0.7344 0.54264 0.0
C541 C 0.20077 0.77868 0.50993 0.0
N542 N 0.36504 0.78643 0.5637 0.0
N543 N 0.13597 0.7273 0.50913 0.0
H544 H 0.1558 0.82735 0.48785 0.0
H545 H 0.11119 0.7908 0.46907 0.0
H546 H 0.12863 0.70025 0.51171 0.0
H547 H 0.09591 0.74195 0.50564 0.0
H548 H 0.40218 0.7724 0.58484 0.0
H549 H 0.37264 0.81349 0.56222 0.0
H550 H 0.39732 0.72104 0.55398 0.0
H551 H 0.34911 0.68521 0.55306 0.0
C552 C 0.47631 0.4319 0.34754 0.0
C553 C 0.52193 0.40554 0.35647 0.0
C554 C 0.46776 0.3706 0.27293 0.0
C555 C 0.42826 0.39952 0.25682 0.0
N556 N 0.372 0.44316 0.30845 0.0
N557 N 0.56382 0.35054 0.32566 0.0
C558 C 0.4259 0.42684 0.30168 0.0
C559 C 0.51824 0.37503 0.31857 0.0
N560 N 0.48033 0.46137 0.38391 0.0
N561 N 0.45232 0.33787 0.25065 0.0
H562 H 0.60177 0.35343 0.35839 0.0
H563 H 0.56651 0.32926 0.29538 0.0
H564 H 0.41041 0.33313 0.22512 0.0
H565 H 0.47646 0.31509 0.26471 0.0
H566 H 0.45172 0.48308 0.37495 0.0
H567 H 0.51513 0.46504 0.41985 0.0
H568 H 0.36644 0.46201 0.34269 0.0
H569 H 0.33109 0.43262 0.28852 0.0
C570 C 0.51081 0.56617 0.728 0.0
C571 C 0.48162 0.59856 0.71126 0.0
C572 C 0.53734 0.62602 0.80277 0.0
C573 C 0.55701 0.59237 0.82563 0.0
N574 N 0.55379 0.52915 0.81276 0.0
N575 N 0.45954 0.65847 0.73896 0.0
C576 C 0.54194 0.56202 0.78879 0.0
C577 C 0.49308 0.62843 0.75014 0.0
N578 N 0.51019 0.53967 0.68516 0.0
N579 N 0.56203 0.65564 0.83069 0.0
H580 H 0.4243 0.66055 0.70294 0.0
H581 H 0.46252 0.67991 0.76942 0.0
H582 H 0.59707 0.65453 0.86716 0.0
H583 H 0.55273 0.68087 0.813 0.0
H584 H 0.53607 0.5168 0.69302 0.0
H585 H 0.4896 0.54251 0.6395 0.0
H586 H 0.53826 0.50625 0.78975 0.0
H587 H 0.57354 0.52482 0.85815 0.0
C588 C 0.97394 0.9261 0.34013 0.0
C589 C 0.01721 0.8988 0.35352 0.0
C590 C 0.9593 0.86107 0.27689 0.0
C591 C 0.92267 0.89028 0.25509 0.0
N592 N 0.87177 0.9396 0.2973 0.0
N593 N 0.05455 0.84111 0.33122 0.0
C594 C 0.92354 0.92043 0.29455 0.0
C595 C 0.01077 0.8665 0.32084 0.0
N596 N 0.97968 0.95707 0.37235 0.0
N597 N 0.93992 0.8277 0.26286 0.0
H598 H 0.09343 0.84466 0.36244 0.0
H599 H 0.05486 0.81819 0.3045 0.0
H600 H 0.89663 0.82286 0.2405 0.0
H601 H 0.96224 0.80525 0.28161 0.0
H602 H 0.954 0.97938 0.35888 0.0
H603 H 0.01244 0.96115 0.41005 0.0
H604 H 0.86767 0.96063 0.32775 0.0
H605 H 0.83024 0.92977 0.27835 0.0
C606 C 0.0216 0.14055 0.78074 0.0
C607 C 0.05298 0.11013 0.80562 0.0
C608 C -0.00415 0.07445 0.72423 0.0
C609 C 0.95783 0.1038 0.70734 0.0
N610 N 0.93052 0.16422 0.72342 0.0
N611 N 0.09499 0.05624 0.76908 0.0
C612 C 0.96978 0.13673 0.73665 0.0
C613 C 0.04689 0.07868 0.76952 0.0
N614 N 0.04598 0.17303 0.79303 0.0
N615 N 0.98473 0.04274 0.69561 0.0
H616 H 0.13827 0.06427 0.78603 0.0
H617 H 0.09516 0.03382 0.74112 0.0
H618 H 0.95236 0.03921 0.65739 0.0
H619 H 0.00553 0.01949 0.71263 0.0
H620 H 0.02788 0.19606 0.77206 0.0
H621 H 0.08915 0.17608 0.81696 0.0
H622 H 0.93399 0.18799 0.74777 0.0
H623 H 0.8912 0.1619 0.69238 0.0
loop_
_geom_bond_atom_site_label_1
_geom_bond_atom_site_label_2
_geom_bond_distance
_geom_bond_site_symmetry_2
_ccdc_geom_bond_type
C0 C1 1.351 . S
C0 N3 1.368 . S
C0 H5 0.931 . S
C1 C0 1.351 . S
C1 N2 1.373 . S
C1 H29 0.930 . S
N2 C1 1.373 . S
N2 C4 1.340 . S
N3 C0 1.368 . S
N3 C4 1.321 . S
N3 Co6 2.135 . S
C4 N2 1.340 . S
C4 N3 1.321 . S
C4 H28 0.930 . S
H5 C0 0.931 . S
Co6 N3 2.135 . S
Co6 N9 2.121 1_554 S
Co6 O14 2.055 . S
Co6 O17 2.039 . S
Co6 N20 2.140 . S
C7 O8 1.227 . S
C7 O17 1.265 . S
O8 C7 1.227 . S
N9 Co6 2.121 1_556 S
N9 C11 1.375 . S
N9 C12 1.313 . S
C10 C11 1.338 . S
C10 N13 1.377 . S
C10 H30 0.930 . S
C11 N9 1.375 . S
C11 C10 1.338 . S
C11 H15 0.931 1_556 S
C12 N9 1.313 . S
C12 N13 1.344 . S
C12 H16 0.930 . S
N13 C10 1.377 . S
N13 C12 1.344 . S
O14 Co6 2.055 . S
O14 C18 1.253 1_554 S
H15 C11 0.931 1_554 S
H16 C12 0.930 . S
O17 Co6 2.039 . S
O17 C7 1.265 . S
C18 O14 1.253 1_556 S
C18 O19 1.227 . S
O19 C18 1.227 . S
N20 Co6 2.140 . S
N20 C23 1.346 . S
N20 C24 1.345 1_554 S
C21 C22 1.387 . S
C21 C25 1.391 1_554 S
C22 C21 1.387 . S
C22 C23 1.369 . S
C22 H31 0.929 . S
C23 N20 1.346 . S
C23 C22 1.369 . S
C23 H26 0.928 . S
C24 N20 1.345 1_556 S
C24 C25 1.371 . S
C24 H27 0.931 . S
C25 C21 1.391 1_556 S
C25 C24 1.371 . S
C25 H32 0.930 . S
H26 C23 0.928 . S
H27 C24 0.931 . S
H28 C4 0.930 . S
H29 C1 0.930 . S
H30 C10 0.930 . S
H31 C22 0.929 . S
H32 C25 0.930 . S
C33 C34 1.351 . S
C33 N36 1.368 . S
C33 H38 0.931 . S
C34 C33 1.351 . S
C34 N35 1.373 . S
C34 H62 0.930 . S
N35 C34 1.373 . S
N35 C37 1.340 . S
N36 C33 1.368 . S
N36 C37 1.321 . S
N36 Co39 2.135 . S
C37 N35 1.340 . S
C37 N36 1.321 . S
C37 H61 0.930 . S
H38 C33 0.931 . S
Co39 N36 2.135 . S
Co39 N42 2.121 . S
Co39 O47 2.055 . S
Co39 O50 2.039 . S
Co39 N53 2.140 . S
C40 O41 1.227 . S
C40 O50 1.265 . S
O41 C40 1.227 . S
N42 Co39 2.121 . S
N42 C44 1.375 . S
N42 C45 1.313 . S
C43 C44 1.338 . S
C43 N46 1.377 . S
C43 H63 0.930 . S
C44 N42 1.375 . S
C44 C43 1.338 . S
C44 H48 0.931 . S
C45 N42 1.313 . S
C45 N46 1.344 . S
C45 H49 0.930 . S
N46 C43 1.377 . S
N46 C45 1.344 . S
O47 Co39 2.055 . S
O47 C51 1.253 . S
H48 C44 0.931 . S
H49 C45 0.930 . S
O50 Co39 2.039 . S
O50 C40 1.265 . S
C51 O47 1.253 . S
C51 O52 1.227 . S
O52 C51 1.227 . S
N53 Co39 2.140 . S
N53 C56 1.346 . S
N53 C57 1.345 . S
C54 C55 1.387 . S
C54 C58 1.391 . S
C55 C54 1.387 . S
C55 C56 1.369 . S
C55 H64 0.929 . S
C56 N53 1.346 . S
C56 C55 1.369 . S
C56 H59 0.928 . S
C57 N53 1.345 . S
C57 C58 1.371 . S
C57 H60 0.931 . S
C58 C54 1.391 . S
C58 C57 1.371 . S
C58 H65 0.930 . S
H59 C56 0.928 . S
H60 C57 0.931 . S
H61 C37 0.930 . S
H62 C34 0.930 . S
H63 C43 0.930 . S
H64 C55 0.929 . S
H65 C58 0.930 . S
C66 C67 1.351 . S
C66 N69 1.368 . S
C66 H71 0.931 . S
C67 C66 1.351 . S
C67 N68 1.373 . S
C67 H95 0.930 . S
N68 C67 1.373 . S
N68 C70 1.340 . S
N69 C66 1.368 . S
N69 C70 1.321 . S
N69 Co72 2.135 . S
C70 N68 1.340 . S
C70 N69 1.321 . S
C70 H94 0.930 . S
H71 C66 0.931 . S
Co72 N69 2.135 . S
Co72 N75 2.121 1_556 S
Co72 O80 2.055 . S
Co72 O83 2.039 . S
Co72 N86 2.140 . S
C73 O74 1.227 . S
C73 O83 1.265 . S
O74 C73 1.227 . S
N75 Co72 2.121 1_554 S
N75 C77 1.375 . S
N75 C78 1.313 . S
C76 C77 1.338 . S
C76 N79 1.377 . S
C76 H96 0.930 . S
C77 N75 1.375 . S
C77 C76 1.338 . S
C77 H81 0.931 1_554 S
C78 N75 1.313 . S
C78 N79 1.344 . S
C78 H82 0.930 . S
N79 C76 1.377 . S
N79 C78 1.344 . S
O80 Co72 2.055 . S
O80 C84 1.253 1_556 S
H81 C77 0.931 1_556 S
H82 C78 0.930 . S
O83 Co72 2.039 . S
O83 C73 1.265 . S
C84 O80 1.253 1_554 S
C84 O85 1.227 . S
O85 C84 1.227 . S
N86 Co72 2.140 . S
N86 C89 1.346 . S
N86 C90 1.345 1_556 S
C87 C88 1.387 . S
C87 C91 1.391 1_556 S
C88 C87 1.387 . S
C88 C89 1.369 . S
C88 H97 0.929 . S
C89 N86 1.346 . S
C89 C88 1.369 . S
C89 H92 0.928 . S
C90 N86 1.345 1_554 S
C90 C91 1.371 . S
C90 H93 0.931 . S
C91 C87 1.391 1_554 S
C91 C90 1.371 . S
C91 H98 0.930 . S
H92 C89 0.928 . S
H93 C90 0.931 . S
H94 C70 0.930 . S
H95 C67 0.930 . S
H96 C76 0.930 . S
H97 C88 0.929 . S
H98 C91 0.930 . S
C99 C100 1.351 . S
C99 N102 1.368 . S
C99 H104 0.931 . S
C100 C99 1.351 . S
C100 N101 1.373 . S
C100 H128 0.930 . S
N101 C100 1.373 . S
N101 C103 1.340 . S
N102 C99 1.368 . S
N102 C103 1.321 . S
N102 Co105 2.135 . S
C103 N101 1.340 . S
C103 N102 1.321 . S
C103 H127 0.930 . S
H104 C99 0.931 . S
Co105 N102 2.135 . S
Co105 N108 2.121 . S
Co105 O113 2.055 . S
Co105 O116 2.039 . S
Co105 N119 2.140 . S
C106 O107 1.227 . S
C106 O116 1.265 . S
O107 C106 1.227 . S
N108 Co105 2.121 . S
N108 C110 1.375 . S
N108 C111 1.313 . S
C109 C110 1.338 . S
C109 N112 1.377 . S
C109 H129 0.930 . S
C110 N108 1.375 . S
C110 C109 1.338 . S
C110 H114 0.931 . S
C111 N108 1.313 . S
C111 N112 1.344 . S
C111 H115 0.930 . S
N112 C109 1.377 . S
N112 C111 1.344 . S
O113 Co105 2.055 . S
O113 C117 1.253 . S
H114 C110 0.931 . S
H115 C111 0.930 . S
O116 Co105 2.039 . S
O116 C106 1.265 . S
C117 O113 1.253 . S
C117 O118 1.227 . S
O118 C117 1.227 . S
N119 Co105 2.140 . S
N119 C122 1.346 . S
N119 C123 1.345 . S
C120 C121 1.387 . S
C120 C124 1.391 . S
C121 C120 1.387 . S
C121 C122 1.369 . S
C121 H130 0.929 . S
C122 N119 1.346 . S
C122 C121 1.369 . S
C122 H125 0.928 . S
C123 N119 1.345 . S
C123 C124 1.371 . S
C123 H126 0.931 . S
C124 C120 1.391 . S
C124 C123 1.371 . S
C124 H131 0.930 . S
H125 C122 0.928 . S
H126 C123 0.931 . S
H127 C103 0.930 . S
H128 C100 0.930 . S
H129 C109 0.930 . S
H130 C121 0.929 . S
H131 C124 0.930 . S
C132 C133 1.351 . S
C132 N135 1.368 . S
C132 H137 0.931 . S
C133 C132 1.351 . S
C133 N134 1.373 . S
C133 H161 0.930 . S
N134 C133 1.373 . S
N134 C136 1.340 . S
N135 C132 1.368 . S
N135 C136 1.321 . S
N135 Co138 2.135 . S
C136 N134 1.340 . S
C136 N135 1.321 . S
C136 H160 0.930 . S
H137 C132 0.931 . S
Co138 N135 2.135 . S
Co138 N141 2.121 1_554 S
Co138 O146 2.055 . S
Co138 O149 2.039 . S
Co138 N152 2.140 . S
C139 O140 1.227 . S
C139 O149 1.265 . S
O140 C139 1.227 . S
N141 Co138 2.121 1_556 S
N141 C143 1.375 . S
N141 C144 1.313 . S
C142 C143 1.338 . S
C142 N145 1.377 . S
C142 H162 0.930 . S
C143 N141 1.375 . S
C143 C142 1.338 . S
C143 H147 0.931 1_556 S
C144 N141 1.313 . S
C144 N145 1.344 . S
C144 H148 0.930 . S
N145 C142 1.377 . S
N145 C144 1.344 . S
O146 Co138 2.055 . S
O146 C150 1.253 1_554 S
H147 C143 0.931 1_554 S
H148 C144 0.930 . S
O149 Co138 2.039 . S
O149 C139 1.265 . S
C150 O146 1.253 1_556 S
C150 O151 1.227 . S
O151 C150 1.227 . S
N152 Co138 2.140 . S
N152 C155 1.346 . S
N152 C156 1.345 1_554 S
C153 C154 1.387 . S
C153 C157 1.391 1_554 S
C154 C153 1.387 . S
C154 C155 1.369 . S
C154 H163 0.929 . S
C155 N152 1.346 . S
C155 C154 1.369 . S
C155 H158 0.928 . S
C156 N152 1.345 1_556 S
C156 C157 1.371 . S
C156 H159 0.931 . S
C157 C153 1.391 1_556 S
C157 C156 1.371 . S
C157 H164 0.930 . S
H158 C155 0.928 . S
H159 C156 0.931 . S
H160 C136 0.930 . S
H161 C133 0.930 . S
H162 C142 0.930 . S
H163 C154 0.929 . S
H164 C157 0.930 . S
C165 C166 1.351 . S
C165 N168 1.368 . S
C165 H170 0.931 . S
C166 C165 1.351 . S
C166 N167 1.373 . S
C166 H194 0.930 . S
N167 C166 1.373 . S
N167 C169 1.340 . S
N168 C165 1.368 . S
N168 C169 1.321 . S
N168 Co171 2.135 . S
C169 N167 1.340 . S
C169 N168 1.321 . S
C169 H193 0.930 . S
H170 C165 0.931 . S
Co171 N168 2.135 . S
Co171 N174 2.121 . S
Co171 O179 2.055 . S
Co171 O182 2.039 . S
Co171 N185 2.140 . S
C172 O173 1.227 . S
C172 O182 1.265 . S
O173 C172 1.227 . S
N174 Co171 2.121 . S
N174 C176 1.375 . S
N174 C177 1.313 . S
C175 C176 1.338 . S
C175 N178 1.377 . S
C175 H195 0.930 . S
C176 N174 1.375 . S
C176 C175 1.338 . S
C176 H180 0.931 . S
C177 N174 1.313 . S
C177 N178 1.344 . S
C177 H181 0.930 . S
N178 C175 1.377 . S
N178 C177 1.344 . S
O179 Co171 2.055 . S
O179 C183 1.253 . S
H180 C176 0.931 . S
H181 C177 0.930 . S
O182 Co171 2.039 . S
O182 C172 1.265 . S
C183 O179 1.253 . S
C183 O184 1.227 . S
O184 C183 1.227 . S
N185 Co171 2.140 . S
N185 C188 1.346 . S
N185 C189 1.345 . S
C186 C187 1.387 . S
C186 C190 1.391 . S
C187 C186 1.387 . S
C187 C188 1.369 . S
C187 H196 0.929 . S
C188 N185 1.346 . S
C188 C187 1.369 . S
C188 H191 0.928 . S
C189 N185 1.345 . S
C189 C190 1.371 . S
C189 H192 0.931 . S
C190 C186 1.391 . S
C190 C189 1.371 . S
C190 H197 0.930 . S
H191 C188 0.928 . S
H192 C189 0.931 . S
H193 C169 0.930 . S
H194 C166 0.930 . S
H195 C175 0.930 . S
H196 C187 0.929 . S
H197 C190 0.930 . S
C198 C199 1.351 . S
C198 N201 1.368 . S
C198 H203 0.931 . S
C199 C198 1.351 . S
C199 N200 1.373 . S
C199 H227 0.930 . S
N200 C199 1.373 . S
N200 C202 1.340 . S
N201 C198 1.368 . S
N201 C202 1.321 . S
N201 Co204 2.135 . S
C202 N200 1.340 . S
C202 N201 1.321 . S
C202 H226 0.930 . S
H203 C198 0.931 . S
Co204 N201 2.135 . S
Co204 N207 2.121 1_556 S
Co204 O212 2.055 . S
Co204 O215 2.039 . S
Co204 N218 2.140 . S
C205 O206 1.227 . S
C205 O215 1.265 . S
O206 C205 1.227 . S
N207 Co204 2.121 1_554 S
N207 C209 1.375 . S
N207 C210 1.313 . S
C208 C209 1.338 . S
C208 N211 1.377 . S
C208 H228 0.930 . S
C209 N207 1.375 . S
C209 C208 1.338 . S
C209 H213 0.931 1_554 S
C210 N207 1.313 . S
C210 N211 1.344 . S
C210 H214 0.930 . S
N211 C208 1.377 . S
N211 C210 1.344 . S
O212 Co204 2.055 . S
O212 C216 1.253 1_556 S
H213 C209 0.931 1_556 S
H214 C210 0.930 . S
O215 Co204 2.039 . S
O215 C205 1.265 . S
C216 O212 1.253 1_554 S
C216 O217 1.227 . S
O217 C216 1.227 . S
N218 Co204 2.140 . S
N218 C221 1.346 . S
N218 C222 1.345 1_556 S
C219 C220 1.387 . S
C219 C223 1.391 1_556 S
C220 C219 1.387 . S
C220 C221 1.369 . S
C220 H229 0.929 . S
C221 N218 1.346 . S
C221 C220 1.369 . S
C221 H224 0.928 . S
C222 N218 1.345 1_554 S
C222 C223 1.371 . S
C222 H225 0.931 . S
C223 C219 1.391 1_554 S
C223 C222 1.371 . S
C223 H230 0.930 . S
H224 C221 0.928 . S
H225 C222 0.931 . S
H226 C202 0.930 . S
H227 C199 0.930 . S
H228 C208 0.930 . S
H229 C220 0.929 . S
H230 C223 0.930 . S
C231 C232 1.351 . S
C231 N234 1.368 . S
C231 H236 0.931 . S
C232 C231 1.351 . S
C232 N233 1.373 . S
C232 H260 0.930 . S
N233 C232 1.373 . S
N233 C235 1.340 . S
N234 C231 1.368 . S
N234 C235 1.321 . S
N234 Co237 2.135 . S
C235 N233 1.340 . S
C235 N234 1.321 . S
C235 H259 0.930 . S
H236 C231 0.931 . S
Co237 N234 2.135 . S
Co237 N240 2.121 . S
Co237 O245 2.055 . S
Co237 O248 2.039 . S
Co237 N251 2.140 . S
C238 O239 1.227 . S
C238 O248 1.265 . S
O239 C238 1.227 . S
N240 Co237 2.121 . S
N240 C242 1.375 . S
N240 C243 1.313 . S
C241 C242 1.338 . S
C241 N244 1.377 . S
C241 H261 0.930 . S
C242 N240 1.375 . S
C242 C241 1.338 . S
C242 H246 0.931 . S
C243 N240 1.313 . S
C243 N244 1.344 . S
C243 H247 0.930 . S
N244 C241 1.377 . S
N244 C243 1.344 . S
O245 Co237 2.055 . S
O245 C249 1.253 . S
H246 C242 0.931 . S
H247 C243 0.930 . S
O248 Co237 2.039 . S
O248 C238 1.265 . S
C249 O245 1.253 . S
C249 O250 1.227 . S
O250 C249 1.227 . S
N251 Co237 2.140 . S
N251 C254 1.346 . S
N251 C255 1.345 . S
C252 C253 1.387 . S
C252 C256 1.391 . S
C253 C252 1.387 . S
C253 C254 1.369 . S
C253 H262 0.929 . S
C254 N251 1.346 . S
C254 C253 1.369 . S
C254 H257 0.928 . S
C255 N251 1.345 . S
C255 C256 1.371 . S
C255 H258 0.931 . S
C256 C252 1.391 . S
C256 C255 1.371 . S
C256 H263 0.930 . S
H257 C254 0.928 . S
H258 C255 0.931 . S
H259 C235 0.930 . S
H260 C232 0.930 . S
H261 C241 0.930 . S
H262 C253 0.929 . S
H263 C256 0.930 . S
C264 C265 1.363 . S
C264 C270 1.379 . S
C264 N272 1.356 . S
C265 C264 1.363 . S
C265 C271 1.363 . S
C266 C267 1.363 . S
C266 C271 1.379 . S
C266 N273 1.356 . S
C267 C266 1.363 . S
C267 C270 1.363 . S
N268 C270 1.356 . S
N268 H280 0.984 . S
N268 H281 0.985 . S
N269 C271 1.356 . S
N269 H274 0.984 . S
N269 H275 0.985 . S
C270 C264 1.379 . S
C270 C267 1.363 . S
C270 N268 1.356 . S
C271 C265 1.363 . S
C271 C266 1.379 . S
C271 N269 1.356 . S
N272 C264 1.356 . S
N272 H278 0.984 . S
N272 H279 0.984 . S
N273 C266 1.356 . S
N273 H276 0.984 . S
N273 H277 0.985 . S
H274 N269 0.984 . S
H275 N269 0.985 . S
H276 N273 0.984 . S
H277 N273 0.985 . S
H278 N272 0.984 . S
H279 N272 0.984 . S
H280 N268 0.984 . S
H281 N268 0.985 . S
C282 C283 1.363 . S
C282 C288 1.379 . S
C282 N290 1.356 . S
C283 C282 1.363 . S
C283 C289 1.363 . S
C284 C285 1.363 . S
C284 C289 1.379 . S
C284 N291 1.356 . S
C285 C284 1.363 . S
C285 C288 1.363 . S
N286 C288 1.356 . S
N286 H298 0.984 . S
N286 H299 0.985 . S
N287 C289 1.356 . S
N287 H292 0.984 . S
N287 H293 0.985 . S
C288 C282 1.379 . S
C288 C285 1.363 . S
C288 N286 1.356 . S
C289 C283 1.363 . S
C289 C284 1.379 . S
C289 N287 1.356 . S
N290 C282 1.356 . S
N290 H296 0.984 . S
N290 H297 0.984 . S
N291 C284 1.356 . S
N291 H294 0.984 . S
N291 H295 0.985 . S
H292 N287 0.984 . S
H293 N287 0.985 . S
H294 N291 0.984 . S
H295 N291 0.985 . S
H296 N290 0.984 . S
H297 N290 0.984 . S
H298 N286 0.984 . S
H299 N286 0.985 . S
C300 C301 1.363 . S
C300 C306 1.379 . S
C300 N308 1.356 . S
C301 C300 1.363 . S
C301 C307 1.363 . S
C302 C303 1.363 . S
C302 C307 1.379 . S
C302 N309 1.356 . S
C303 C302 1.363 . S
C303 C306 1.363 . S
N304 C306 1.356 . S
N304 H316 0.984 . S
N304 H317 0.985 . S
N305 C307 1.356 . S
N305 H310 0.984 . S
N305 H311 0.985 . S
C306 C300 1.379 . S
C306 C303 1.363 . S
C306 N304 1.356 . S
C307 C301 1.363 . S
C307 C302 1.379 . S
C307 N305 1.356 . S
N308 C300 1.356 . S
N308 H314 0.984 . S
N308 H315 0.984 . S
N309 C302 1.356 . S
N309 H312 0.984 . S
N309 H313 0.985 . S
H310 N305 0.984 . S
H311 N305 0.985 . S
H312 N309 0.984 . S
H313 N309 0.985 . S
H314 N308 0.984 . S
H315 N308 0.984 . S
H316 N304 0.984 . S
H317 N304 0.985 . S
C318 C319 1.363 . S
C318 C324 1.379 . S
C318 N326 1.356 . S
C319 C318 1.363 . S
C319 C325 1.363 . S
C320 C321 1.363 . S
C320 C325 1.379 . S
C320 N327 1.356 . S
C321 C320 1.363 . S
C321 C324 1.363 . S
N322 C324 1.356 . S
N322 H334 0.984 . S
N322 H335 0.985 . S
N323 C325 1.356 . S
N323 H328 0.984 . S
N323 H329 0.985 . S
C324 C318 1.379 . S
C324 C321 1.363 . S
C324 N322 1.356 . S
C325 C319 1.363 . S
C325 C320 1.379 . S
C325 N323 1.356 . S
N326 C318 1.356 . S
N326 H332 0.984 . S
N326 H333 0.984 . S
N327 C320 1.356 . S
N327 H330 0.984 . S
N327 H331 0.985 . S
H328 N323 0.984 . S
H329 N323 0.985 . S
H330 N327 0.984 . S
H331 N327 0.985 . S
H332 N326 0.984 . S
H333 N326 0.984 . S
H334 N322 0.984 . S
H335 N322 0.985 . S
C336 C337 1.363 . S
C336 C342 1.379 . S
C336 N344 1.356 . S
C337 C336 1.363 . S
C337 C343 1.363 1_565 S
C338 C339 1.363 . S
C338 C343 1.379 . S
C338 N345 1.356 . S
C339 C338 1.363 . S
C339 C342 1.363 1_545 S
N340 C342 1.356 . S
N340 H352 0.984 . S
N340 H353 0.985 . S
N341 C343 1.356 . S
N341 H346 0.984 . S
N341 H347 0.985 . S
C342 C336 1.379 . S
C342 C339 1.363 1_565 S
C342 N340 1.356 . S
C343 C337 1.363 1_545 S
C343 C338 1.379 . S
C343 N341 1.356 . S
N344 C336 1.356 . S
N344 H350 0.984 . S
N344 H351 0.984 . S
N345 C338 1.356 . S
N345 H348 0.984 . S
N345 H349 0.985 . S
H346 N341 0.984 . S
H347 N341 0.985 . S
H348 N345 0.984 . S
H349 N345 0.985 . S
H350 N344 0.984 . S
H351 N344 0.984 . S
H352 N340 0.984 . S
H353 N340 0.985 . S
C354 C355 1.363 . S
C354 C360 1.379 . S
C354 N362 1.356 . S
C355 C354 1.363 . S
C355 C361 1.363 1_545 S
C356 C357 1.363 . S
C356 C361 1.379 . S
C356 N363 1.356 . S
C357 C356 1.363 . S
C357 C360 1.363 1_565 S
N358 C360 1.356 . S
N358 H370 0.984 . S
N358 H371 0.985 . S
N359 C361 1.356 . S
N359 H364 0.984 . S
N359 H365 0.985 . S
C360 C354 1.379 . S
C360 C357 1.363 1_545 S
C360 N358 1.356 . S
C361 C355 1.363 1_565 S
C361 C356 1.379 . S
C361 N359 1.356 . S
N362 C354 1.356 . S
N362 H368 0.984 . S
N362 H369 0.984 . S
N363 C356 1.356 . S
N363 H366 0.984 . S
N363 H367 0.985 . S
H364 N359 0.984 . S
H365 N359 0.985 . S
H366 N363 0.984 . S
H367 N363 0.985 . S
H368 N362 0.984 . S
H369 N362 0.984 . S
H370 N358 0.984 . S
H371 N358 0.985 . S
C372 C373 1.363 . S
C372 C378 1.379 . S
C372 N380 1.356 . S
C373 C372 1.363 . S
C373 C379 1.363 1_545 S
C374 C375 1.363 . S
C374 C379 1.379 . S
C374 N381 1.356 . S
C375 C374 1.363 . S
C375 C378 1.363 1_565 S
N376 C378 1.356 . S
N376 H388 0.984 . S
N376 H389 0.985 . S
N377 C379 1.356 . S
N377 H382 0.984 . S
N377 H383 0.985 . S
C378 C372 1.379 . S
C378 C375 1.363 1_545 S
C378 N376 1.356 . S
C379 C373 1.363 1_565 S
C379 C374 1.379 . S
C379 N377 1.356 . S
N380 C372 1.356 . S
N380 H386 0.984 . S
N380 H387 0.984 . S
N381 C374 1.356 . S
N381 H384 0.984 . S
N381 H385 0.985 . S
H382 N377 0.984 . S
H383 N377 0.985 . S
H384 N381 0.984 . S
H385 N381 0.985 . S
H386 N380 0.984 . S
H387 N380 0.984 . S
H388 N376 0.984 . S
H389 N376 0.985 . S
C390 C391 1.363 . S
C390 C396 1.379 . S
C390 N398 1.356 . S
C391 C390 1.363 . S
C391 C397 1.363 1_545 S
C392 C393 1.363 . S
C392 C397 1.379 . S
C392 N399 1.356 . S
C393 C392 1.363 . S
C393 C396 1.363 1_565 S
N394 C396 1.356 . S
N394 H406 0.984 . S
N394 H407 0.985 . S
N395 C397 1.356 . S
N395 H400 0.984 . S
N395 H401 0.985 . S
C396 C390 1.379 . S
C396 C393 1.363 1_545 S
C396 N394 1.356 . S
C397 C391 1.363 1_565 S
C397 C392 1.379 . S
C397 N395 1.356 . S
N398 C390 1.356 . S
N398 H404 0.984 . S
N398 H405 0.984 . S
N399 C392 1.356 . S
N399 H402 0.984 . S
N399 H403 0.985 . S
H400 N395 0.984 . S
H401 N395 0.985 . S
H402 N399 0.984 . S
H403 N399 0.985 . S
H404 N398 0.984 . S
H405 N398 0.984 . S
H406 N394 0.984 . S
H407 N394 0.985 . S
C408 C409 1.363 1_554 S
C408 C414 1.379 . S
C408 N416 1.356 . S
C409 C408 1.363 1_556 S
C409 C415 1.363 . S
C410 C411 1.363 1_556 S
C410 C415 1.379 . S
C410 N417 1.356 . S
C411 C410 1.363 1_554 S
C411 C414 1.363 . S
N412 C414 1.356 . S
N412 H424 0.984 . S
N412 H425 0.985 . S
N413 C415 1.356 . S
N413 H418 0.984 . S
N413 H419 0.985 . S
C414 C408 1.379 . S
C414 C411 1.363 . S
C414 N412 1.356 . S
C415 C409 1.363 . S
C415 C410 1.379 . S
C415 N413 1.356 . S
N416 C408 1.356 . S
N416 H422 0.984 . S
N416 H423 0.984 . S
N417 C410 1.356 . S
N417 H420 0.984 . S
N417 H421 0.985 . S
H418 N413 0.984 . S
H419 N413 0.985 . S
H420 N417 0.984 . S
H421 N417 0.985 . S
H422 N416 0.984 . S
H423 N416 0.984 . S
H424 N412 0.984 . S
H425 N412 0.985 . S
C426 C427 1.363 . S
C426 C432 1.379 . S
C426 N434 1.356 . S
C427 C426 1.363 . S
C427 C433 1.363 . S
C428 C429 1.363 . S
C428 C433 1.379 . S
C428 N435 1.356 . S
C429 C428 1.363 . S
C429 C432 1.363 . S
N430 C432 1.356 . S
N430 H442 0.984 . S
N430 H443 0.985 . S
N431 C433 1.356 . S
N431 H436 0.984 . S
N431 H437 0.985 . S
C432 C426 1.379 . S
C432 C429 1.363 . S
C432 N430 1.356 . S
C433 C427 1.363 . S
C433 C428 1.379 . S
C433 N431 1.356 . S
N434 C426 1.356 . S
N434 H440 0.984 . S
N434 H441 0.984 . S
N435 C428 1.356 . S
N435 H438 0.984 . S
N435 H439 0.985 . S
H436 N431 0.984 . S
H437 N431 0.985 . S
H438 N435 0.984 . S
H439 N435 0.985 . S
H440 N434 0.984 . S
H441 N434 0.984 . S
H442 N430 0.984 . S
H443 N430 0.985 . S
C444 C445 1.363 1_565 S
C444 C450 1.379 1_455 S
C444 N452 1.356 . S
C445 C444 1.363 1_545 S
C445 C451 1.363 1_554 S
C446 C447 1.363 1_545 S
C446 C451 1.379 1_655 S
C446 N453 1.356 . S
C447 C446 1.363 1_565 S
C447 C450 1.363 1_556 S
N448 C450 1.356 . S
N448 H460 0.984 . S
N448 H461 0.985 1_554 S
N449 C451 1.356 . S
N449 H454 0.984 1_556 S
N449 H455 0.985 . S
C450 C444 1.379 1_655 S
C450 C447 1.363 1_554 S
C450 N448 1.356 . S
C451 C445 1.363 1_556 S
C451 C446 1.379 1_455 S
C451 N449 1.356 . S
N452 C444 1.356 . S
N452 H458 0.984 . S
N452 H459 0.984 . S
N453 C446 1.356 . S
N453 H456 0.984 . S
N453 H457 0.985 . S
H454 N449 0.984 1_554 S
H455 N449 0.985 . S
H456 N453 0.984 . S
H457 N453 0.985 . S
H458 N452 0.984 . S
H459 N452 0.984 . S
H460 N448 0.984 . S
H461 N448 0.985 1_556 S
C462 C463 1.363 . S
C462 C468 1.379 1_645 S
C462 N470 1.356 . S
C463 C462 1.363 . S
C463 C469 1.363 . S
C464 C465 1.363 . S
C464 C469 1.379 1_465 S
C464 N471 1.356 . S
C465 C464 1.363 . S
C465 C468 1.363 . S
N466 C468 1.356 . S
N466 H478 0.984 . S
N466 H479 0.985 . S
N467 C469 1.356 . S
N467 H472 0.984 . S
N467 H473 0.985 . S
C468 C462 1.379 1_465 S
C468 C465 1.363 . S
C468 N466 1.356 . S
C469 C463 1.363 . S
C469 C464 1.379 1_645 S
C469 N467 1.356 . S
N470 C462 1.356 . S
N470 H476 0.984 . S
N470 H477 0.984 . S
N471 C464 1.356 . S
N471 H474 0.984 . S
N471 H475 0.985 . S
H472 N467 0.984 . S
H473 N467 0.985 . S
H474 N471 0.984 . S
H475 N471 0.985 . S
H476 N470 0.984 . S
H477 N470 0.984 . S
H478 N466 0.984 . S
H479 N466 0.985 . S
C480 C481 1.363 . S
C480 C486 1.379 . S
C480 N488 1.356 . S
C481 C480 1.363 . S
C481 C487 1.363 1_554 S
C482 C483 1.363 . S
C482 C487 1.379 . S
C482 N489 1.356 . S
C483 C482 1.363 . S
C483 C486 1.363 1_556 S
N484 C486 1.356 . S
N484 H496 0.984 . S
N484 H497 0.985 . S
N485 C487 1.356 . S
N485 H490 0.984 . S
N485 H491 0.985 . S
C486 C480 1.379 . S
C486 C483 1.363 1_554 S
C486 N484 1.356 . S
C487 C481 1.363 1_556 S
C487 C482 1.379 . S
C487 N485 1.356 . S
N488 C480 1.356 . S
N488 H494 0.984 . S
N488 H495 0.984 . S
N489 C482 1.356 . S
N489 H492 0.984 . S
N489 H493 0.985 . S
H490 N485 0.984 . S
H491 N485 0.985 . S
H492 N489 0.984 . S
H493 N489 0.985 . S
H494 N488 0.984 . S
H495 N488 0.984 . S
H496 N484 0.984 . S
H497 N484 0.985 . S
C498 C499 1.363 . S
C498 C504 1.379 . S
C498 N506 1.356 . S
C499 C498 1.363 . S
C499 C505 1.363 . S
C500 C501 1.363 . S
C500 C505 1.379 . S
C500 N507 1.356 . S
C501 C500 1.363 . S
C501 C504 1.363 . S
N502 C504 1.356 . S
N502 H514 0.984 . S
N502 H515 0.985 . S
N503 C505 1.356 . S
N503 H508 0.984 . S
N503 H509 0.985 . S
C504 C498 1.379 . S
C504 C501 1.363 . S
C504 N502 1.356 . S
C505 C499 1.363 . S
C505 C500 1.379 . S
C505 N503 1.356 . S
N506 C498 1.356 . S
N506 H512 0.984 . S
N506 H513 0.984 . S
N507 C500 1.356 . S
N507 H510 0.984 . S
N507 H511 0.985 . S
H508 N503 0.984 . S
H509 N503 0.985 . S
H510 N507 0.984 . S
H511 N507 0.985 . S
H512 N506 0.984 . S
H513 N506 0.984 . S
H514 N502 0.984 . S
H515 N502 0.985 . S
C516 C517 1.363 . S
C516 C522 1.379 . S
C516 N524 1.356 . S
C517 C516 1.363 . S
C517 C523 1.363 1_554 S
C518 C519 1.363 . S
C518 C523 1.379 . S
C518 N525 1.356 . S
C519 C518 1.363 . S
C519 C522 1.363 1_556 S
N520 C522 1.356 . S
N520 H532 0.984 . S
N520 H533 0.985 . S
N521 C523 1.356 . S
N521 H526 0.984 . S
N521 H527 0.985 . S
C522 C516 1.379 . S
C522 C519 1.363 1_554 S
C522 N520 1.356 . S
C523 C517 1.363 1_556 S
C523 C518 1.379 . S
C523 N521 1.356 . S
N524 C516 1.356 . S
N524 H530 0.984 . S
N524 H531 0.984 . S
N525 C518 1.356 . S
N525 H528 0.984 . S
N525 H529 0.985 . S
H526 N521 0.984 . S
H527 N521 0.985 . S
H528 N525 0.984 . S
H529 N525 0.985 . S
H530 N524 0.984 . S
H531 N524 0.984 . S
H532 N520 0.984 . S
H533 N520 0.985 . S
C534 C535 1.363 . S
C534 C540 1.379 . S
C534 N542 1.356 . S
C535 C534 1.363 . S
C535 C541 1.363 . S
C536 C537 1.363 . S
C536 C541 1.379 . S
C536 N543 1.356 . S
C537 C536 1.363 . S
C537 C540 1.363 . S
N538 C540 1.356 . S
N538 H550 0.984 . S
N538 H551 0.985 . S
N539 C541 1.356 . S
N539 H544 0.984 . S
N539 H545 0.985 . S
C540 C534 1.379 . S
C540 C537 1.363 . S
C540 N538 1.356 . S
C541 C535 1.363 . S
C541 C536 1.379 . S
C541 N539 1.356 . S
N542 C534 1.356 . S
N542 H548 0.984 . S
N542 H549 0.984 . S
N543 C536 1.356 . S
N543 H546 0.984 . S
N543 H547 0.985 . S
H544 N539 0.984 . S
H545 N539 0.985 . S
H546 N543 0.984 . S
H547 N543 0.985 . S
H548 N542 0.984 . S
H549 N542 0.984 . S
H550 N538 0.984 . S
H551 N538 0.985 . S
C552 C553 1.363 . S
C552 C558 1.379 . S
C552 N560 1.356 . S
C553 C552 1.363 . S
C553 C559 1.363 . S
C554 C555 1.363 . S
C554 C559 1.379 . S
C554 N561 1.356 . S
C555 C554 1.363 . S
C555 C558 1.363 . S
N556 C558 1.356 . S
N556 H568 0.984 . S
N556 H569 0.985 . S
N557 C559 1.356 . S
N557 H562 0.984 . S
N557 H563 0.985 . S
C558 C552 1.379 . S
C558 C555 1.363 . S
C558 N556 1.356 . S
C559 C553 1.363 . S
C559 C554 1.379 . S
C559 N557 1.356 . S
N560 C552 1.356 . S
N560 H566 0.984 . S
N560 H567 0.984 . S
N561 C554 1.356 . S
N561 H564 0.984 . S
N561 H565 0.985 . S
H562 N557 0.984 . S
H563 N557 0.985 . S
H564 N561 0.984 . S
H565 N561 0.985 . S
H566 N560 0.984 . S
H567 N560 0.984 . S
H568 N556 0.984 . S
H569 N556 0.985 . S
C570 C571 1.363 . S
C570 C576 1.379 . S
C570 N578 1.356 . S
C571 C570 1.363 . S
C571 C577 1.363 . S
C572 C573 1.363 . S
C572 C577 1.379 . S
C572 N579 1.356 . S
C573 C572 1.363 . S
C573 C576 1.363 . S
N574 C576 1.356 . S
N574 H586 0.984 . S
N574 H587 0.985 . S
N575 C577 1.356 . S
N575 H580 0.984 . S
N575 H581 0.985 . S
C576 C570 1.379 . S
C576 C573 1.363 . S
C576 N574 1.356 . S
C577 C571 1.363 . S
C577 C572 1.379 . S
C577 N575 1.356 . S
N578 C570 1.356 . S
N578 H584 0.984 . S
N578 H585 0.984 . S
N579 C572 1.356 . S
N579 H582 0.984 . S
N579 H583 0.985 . S
H580 N575 0.984 . S
H581 N575 0.985 . S
H582 N579 0.984 . S
H583 N579 0.985 . S
H584 N578 0.984 . S
H585 N578 0.984 . S
H586 N574 0.984 . S
H587 N574 0.985 . S
C588 C589 1.363 . S
C588 C594 1.379 1_455 S
C588 N596 1.356 . S
C589 C588 1.363 . S
C589 C595 1.363 . S
C590 C591 1.363 . S
C590 C595 1.379 1_655 S
C590 N597 1.356 . S
C591 C590 1.363 . S
C591 C594 1.363 . S
N592 C594 1.356 . S
N592 H604 0.984 . S
N592 H605 0.985 . S
N593 C595 1.356 . S
N593 H598 0.984 . S
N593 H599 0.985 . S
C594 C588 1.379 1_655 S
C594 C591 1.363 . S
C594 N592 1.356 . S
C595 C589 1.363 . S
C595 C590 1.379 1_455 S
C595 N593 1.356 . S
N596 C588 1.356 . S
N596 H602 0.984 . S
N596 H603 0.984 . S
N597 C590 1.356 . S
N597 H600 0.984 . S
N597 H601 0.985 . S
H598 N593 0.984 . S
H599 N593 0.985 . S
H600 N597 0.984 . S
H601 N597 0.985 . S
H602 N596 0.984 . S
H603 N596 0.984 . S
H604 N592 0.984 . S
H605 N592 0.985 . S
C606 C607 1.363 . S
C606 C612 1.379 1_455 S
C606 N614 1.356 . S
C607 C606 1.363 . S
C607 C613 1.363 . S
C608 C609 1.363 . S
C608 C613 1.379 1_655 S
C608 N615 1.356 . S
C609 C608 1.363 . S
C609 C612 1.363 . S
N610 C612 1.356 . S
N610 H622 0.984 . S
N610 H623 0.985 . S
N611 C613 1.356 . S
N611 H616 0.984 . S
N611 H617 0.985 . S
C612 C606 1.379 1_655 S
C612 C609 1.363 . S
C612 N610 1.356 . S
C613 C607 1.363 . S
C613 C608 1.379 1_455 S
C613 N611 1.356 . S
N614 C606 1.356 . S
N614 H620 0.984 . S
N614 H621 0.984 . S
N615 C608 1.356 . S
N615 H618 0.984 . S
N615 H619 0.985 . S
H616 N611 0.984 . S
H617 N611 0.985 . S
H618 N615 0.984 . S
H619 N615 0.985 . S
H620 N614 0.984 . S
H621 N614 0.984 . S
H622 N610 0.984 . S
H623 N610 0.985 . S
C265 C106 1.855 . S
C267 N13 1.953 . S
C283 N46 1.953 . S
C285 C73 1.855 . S
C301 C40 1.855 . S
C303 N79 1.953 . S
C319 C7 1.855 . S
C321 N112 1.953 . S
C337 N145 1.953 . S
C339 C238 1.855 . S
C355 C205 1.855 . S
C357 N178 1.953 . S
C373 N211 1.953 . S
C375 C172 1.855 . S
C391 N244 1.953 . S
C393 C139 1.855 . S
C409 C18 1.334 . S
C411 C84 1.334 . S
C427 C51 1.334 . S
C429 C117 1.334 . S
C445 C216 1.334 . S
C447 C150 1.334 . S
C463 C249 1.334 . S
C465 C183 1.334 . S
C481 C21 1.560 . S
C483 C219 1.560 . S
C499 C54 1.560 . S
C501 C252 1.560 . S
C517 C153 1.560 . S
C519 C87 1.560 . S
C535 C186 1.560 . S
C537 C120 1.560 . S
C553 N35 0.873 . S
C555 N2 0.873 . S
C571 N101 0.873 . S
C573 N68 0.873 . S
C589 N167 0.873 . S
C591 N134 0.873 . S
C607 N200 0.873 . S
C609 N233 0.873 . S
