# Generated by pormake.
# Topology ukd, (4)-cn, num edge types: 1
# Building blocks:
#     Node 0, Type 0, BuildingBlock: GALJAG_clean_sbu_0, # of connection points: 4
#     Node 1, Type 0, BuildingBlock: GALJAG_clean_sbu_0, # of connection points: 4
#     Node 2, Type 0, BuildingBlock: GALJAG_clean_sbu_0, # of connection points: 4
#     Node 3, Type 0, BuildingBlock: GALJAG_clean_sbu_0, # of connection points: 4
#     Node 4, Type 0, BuildingBlock: GALJAG_clean_sbu_0, # of connection points: 4
#     Node 5, Type 0, BuildingBlock: GALJAG_clean_sbu_0, # of connection points: 4
#     Node 6, Type 0, BuildingBlock: GALJAG_clean_sbu_0, # of connection points: 4
#     Node 7, Type 0, BuildingBlock: GALJAG_clean_sbu_0, # of connection points: 4
#     Node 8, Type 0, BuildingBlock: GALJAG_clean_sbu_0, # of connection points: 4
#     Node 9, Type 0, BuildingBlock: GALJAG_clean_sbu_0, # of connection points: 4
#     Node 10, Type 0, BuildingBlock: GALJAG_clean_sbu_0, # of connection points: 4
#     Node 11, Type 0, BuildingBlock: GALJAG_clean_sbu_0, # of connection points: 4
#     Node 12, Type 0, BuildingBlock: GALJAG_clean_sbu_0, # of connection points: 4
#     Node 13, Type 0, BuildingBlock: GALJAG_clean_sbu_0, # of connection points: 4
#     Node 14, Type 0, BuildingBlock: GALJAG_clean_sbu_0, # of connection points: 4
#     Node 15, Type 0, BuildingBlock: GALJAG_clean_sbu_0, # of connection points: 4
#     Node 16, Type 0, BuildingBlock: GALJAG_clean_sbu_0, # of connection points: 4
#     Node 17, Type 0, BuildingBlock: GALJAG_clean_sbu_0, # of connection points: 4
#     Node 18, Type 0, BuildingBlock: GALJAG_clean_sbu_0, # of connection points: 4
#     Node 19, Type 0, BuildingBlock: GALJAG_clean_sbu_0, # of connection points: 4
#     Node 20, Type 0, BuildingBlock: GALJAG_clean_sbu_0, # of connection points: 4
#     Node 21, Type 0, BuildingBlock: GALJAG_clean_sbu_0, # of connection points: 4
#     Node 22, Type 0, BuildingBlock: GALJAG_clean_sbu_0, # of connection points: 4
#     Node 23, Type 0, BuildingBlock: GALJAG_clean_sbu_0, # of connection points: 4
#     Node 24, Type 0, BuildingBlock: GALJAG_clean_sbu_0, # of connection points: 4
#     Node 25, Type 0, BuildingBlock: GALJAG_clean_sbu_0, # of connection points: 4
#     Node 26, Type 0, BuildingBlock: GALJAG_clean_sbu_0, # of connection points: 4
#     Node 27, Type 0, BuildingBlock: GALJAG_clean_sbu_0, # of connection points: 4
#     Node 28, Type 0, BuildingBlock: GALJAG_clean_sbu_0, # of connection points: 4
#     Node 29, Type 0, BuildingBlock: GALJAG_clean_sbu_0, # of connection points: 4
#     Node 30, Type 0, BuildingBlock: GALJAG_clean_sbu_0, # of connection points: 4
#     Node 31, Type 0, BuildingBlock: GALJAG_clean_sbu_0, # of connection points: 4
#     Edge 32, Type (0, 0), BuildingBlock: XUDNAN_clean_linker_2, # of connection points: 2
#     Edge 33, Type (0, 0), BuildingBlock: XUDNAN_clean_linker_2, # of connection points: 2
#     Edge 34, Type (0, 0), BuildingBlock: XUDNAN_clean_linker_2, # of connection points: 2
#     Edge 35, Type (0, 0), BuildingBlock: XUDNAN_clean_linker_2, # of connection points: 2
#     Edge 36, Type (0, 0), BuildingBlock: XUDNAN_clean_linker_2, # of connection points: 2
#     Edge 37, Type (0, 0), BuildingBlock: XUDNAN_clean_linker_2, # of connection points: 2
#     Edge 38, Type (0, 0), BuildingBlock: XUDNAN_clean_linker_2, # of connection points: 2
#     Edge 39, Type (0, 0), BuildingBlock: XUDNAN_clean_linker_2, # of connection points: 2
#     Edge 40, Type (0, 0), BuildingBlock: XUDNAN_clean_linker_2, # of connection points: 2
#     Edge 41, Type (0, 0), BuildingBlock: XUDNAN_clean_linker_2, # of connection points: 2
#     Edge 42, Type (0, 0), BuildingBlock: XUDNAN_clean_linker_2, # of connection points: 2
#     Edge 43, Type (0, 0), BuildingBlock: XUDNAN_clean_linker_2, # of connection points: 2
#     Edge 44, Type (0, 0), BuildingBlock: XUDNAN_clean_linker_2, # of connection points: 2
#     Edge 45, Type (0, 0), BuildingBlock: XUDNAN_clean_linker_2, # of connection points: 2
#     Edge 46, Type (0, 0), BuildingBlock: XUDNAN_clean_linker_2, # of connection points: 2
#     Edge 47, Type (0, 0), BuildingBlock: XUDNAN_clean_linker_2, # of connection points: 2
#     Edge 48, Type (0, 0), BuildingBlock: XUDNAN_clean_linker_2, # of connection points: 2
#     Edge 49, Type (0, 0), BuildingBlock: XUDNAN_clean_linker_2, # of connection points: 2
#     Edge 50, Type (0, 0), BuildingBlock: XUDNAN_clean_linker_2, # of connection points: 2
#     Edge 51, Type (0, 0), BuildingBlock: XUDNAN_clean_linker_2, # of connection points: 2
#     Edge 52, Type (0, 0), BuildingBlock: XUDNAN_clean_linker_2, # of connection points: 2
#     Edge 53, Type (0, 0), BuildingBlock: XUDNAN_clean_linker_2, # of connection points: 2
#     Edge 54, Type (0, 0), BuildingBlock: XUDNAN_clean_linker_2, # of connection points: 2
#     Edge 55, Type (0, 0), BuildingBlock: XUDNAN_clean_linker_2, # of connection points: 2
#     Edge 56, Type (0, 0), BuildingBlock: XUDNAN_clean_linker_2, # of connection points: 2
#     Edge 57, Type (0, 0), BuildingBlock: XUDNAN_clean_linker_2, # of connection points: 2
#     Edge 58, Type (0, 0), BuildingBlock: XUDNAN_clean_linker_2, # of connection points: 2
#     Edge 59, Type (0, 0), BuildingBlock: XUDNAN_clean_linker_2, # of connection points: 2
#     Edge 60, Type (0, 0), BuildingBlock: XUDNAN_clean_linker_2, # of connection points: 2
#     Edge 61, Type (0, 0), BuildingBlock: XUDNAN_clean_linker_2, # of connection points: 2
#     Edge 62, Type (0, 0), BuildingBlock: XUDNAN_clean_linker_2, # of connection points: 2
#     Edge 63, Type (0, 0), BuildingBlock: XUDNAN_clean_linker_2, # of connection points: 2
#     Edge 64, Type (0, 0), BuildingBlock: XUDNAN_clean_linker_2, # of connection points: 2
#     Edge 65, Type (0, 0), BuildingBlock: XUDNAN_clean_linker_2, # of connection points: 2
#     Edge 66, Type (0, 0), BuildingBlock: XUDNAN_clean_linker_2, # of connection points: 2
#     Edge 67, Type (0, 0), BuildingBlock: XUDNAN_clean_linker_2, # of connection points: 2
#     Edge 68, Type (0, 0), BuildingBlock: XUDNAN_clean_linker_2, # of connection points: 2
#     Edge 69, Type (0, 0), BuildingBlock: XUDNAN_clean_linker_2, # of connection points: 2
#     Edge 70, Type (0, 0), BuildingBlock: XUDNAN_clean_linker_2, # of connection points: 2
#     Edge 71, Type (0, 0), BuildingBlock: XUDNAN_clean_linker_2, # of connection points: 2
#     Edge 72, Type (0, 0), BuildingBlock: XUDNAN_clean_linker_2, # of connection points: 2
#     Edge 73, Type (0, 0), BuildingBlock: XUDNAN_clean_linker_2, # of connection points: 2
#     Edge 74, Type (0, 0), BuildingBlock: XUDNAN_clean_linker_2, # of connection points: 2
#     Edge 75, Type (0, 0), BuildingBlock: XUDNAN_clean_linker_2, # of connection points: 2
#     Edge 76, Type (0, 0), BuildingBlock: XUDNAN_clean_linker_2, # of connection points: 2
#     Edge 77, Type (0, 0), BuildingBlock: XUDNAN_clean_linker_2, # of connection points: 2
#     Edge 78, Type (0, 0), BuildingBlock: XUDNAN_clean_linker_2, # of connection points: 2
#     Edge 79, Type (0, 0), BuildingBlock: XUDNAN_clean_linker_2, # of connection points: 2
#     Edge 80, Type (0, 0), BuildingBlock: XUDNAN_clean_linker_2, # of connection points: 2
#     Edge 81, Type (0, 0), BuildingBlock: XUDNAN_clean_linker_2, # of connection points: 2
#     Edge 82, Type (0, 0), BuildingBlock: XUDNAN_clean_linker_2, # of connection points: 2
#     Edge 83, Type (0, 0), BuildingBlock: XUDNAN_clean_linker_2, # of connection points: 2
#     Edge 84, Type (0, 0), BuildingBlock: XUDNAN_clean_linker_2, # of connection points: 2
#     Edge 85, Type (0, 0), BuildingBlock: XUDNAN_clean_linker_2, # of connection points: 2
#     Edge 86, Type (0, 0), BuildingBlock: XUDNAN_clean_linker_2, # of connection points: 2
#     Edge 87, Type (0, 0), BuildingBlock: XUDNAN_clean_linker_2, # of connection points: 2
#     Edge 88, Type (0, 0), BuildingBlock: XUDNAN_clean_linker_2, # of connection points: 2
#     Edge 89, Type (0, 0), BuildingBlock: XUDNAN_clean_linker_2, # of connection points: 2
#     Edge 90, Type (0, 0), BuildingBlock: XUDNAN_clean_linker_2, # of connection points: 2
#     Edge 91, Type (0, 0), BuildingBlock: XUDNAN_clean_linker_2, # of connection points: 2
#     Edge 92, Type (0, 0), BuildingBlock: XUDNAN_clean_linker_2, # of connection points: 2
#     Edge 93, Type (0, 0), BuildingBlock: XUDNAN_clean_linker_2, # of connection points: 2
#     Edge 94, Type (0, 0), BuildingBlock: XUDNAN_clean_linker_2, # of connection points: 2
#     Edge 95, Type (0, 0), BuildingBlock: XUDNAN_clean_linker_2, # of connection points: 2
# Relax obj value: 0.105
# Max RMSD: 0.103
# Mean RMSD: 0.103
data_MOF--net-ukd--node1-GALJAG_clean_sbu_0--edge1-XUDNAN_clean_linker_2
_symmetry_space_group_name_H-M    P1
_symmetry_Int_Tables_number       1
_symmetry_cell_setting            triclinic
loop_
_symmetry_equiv_pos_as_xyz
'x, y, z'
_cell_length_a     45.741863
_cell_length_b     45.662746
_cell_length_c     71.061377
_cell_angle_alpha  89.993926
_cell_angle_beta   90.011456
_cell_angle_gamma 90.00764
loop_
_atom_site_label
_atom_site_type_symbol
_atom_site_fract_x
_atom_site_fract_y
_atom_site_fract_z
_atom_type_partial_charge
In0 In 0.20628 0.18499 0.34673 0.0
O1 O 0.16432 0.17421 0.3627 0.0
O2 O 0.17812 0.14467 0.3413 0.0
C3 C 0.21936 0.18799 0.3097 0.0
C4 C 0.25359 0.16118 0.36413 0.0
C5 C 0.18923 0.24026 0.35506 0.0
O6 O 0.19569 0.17736 0.31573 0.0
O7 O 0.23684 0.19621 0.32237 0.0
O8 O 0.19672 0.22242 0.36778 0.0
O9 O 0.19017 0.23008 0.33862 0.0
C10 C 0.1594 0.1508 0.35376 0.0
O11 O 0.25306 0.18732 0.3585 0.0
O12 O 0.2301 0.14744 0.36155 0.0
In13 In 0.05452 0.97152 0.60415 0.0
O14 O 0.0614 0.01249 0.6222 0.0
O15 O 0.09794 0.9958 0.60726 0.0
C16 C 0.00552 0.94992 0.62026 0.0
C17 C 0.08987 0.92438 0.60621 0.0
C18 C 0.0335 0.99491 0.57188 0.0
O19 O 0.02246 0.96725 0.62881 0.0
O20 O 0.01337 0.94356 0.60376 0.0
O21 O 0.04733 0.97101 0.57216 0.0
O22 O 0.0308 0.00702 0.58771 0.0
C23 C 0.0881 0.01524 0.61814 0.0
O24 O 0.08636 0.93873 0.59117 0.0
O25 O 0.07576 0.93399 0.62018 0.0
In26 In 0.30015 0.82676 0.84019 0.0
O27 O 0.26017 0.82692 0.85945 0.0
O28 O 0.26409 0.86116 0.8393 0.0
C29 C 0.32587 0.77495 0.84826 0.0
C30 C 0.3393 0.86513 0.85451 0.0
C31 C 0.2869 0.81535 0.80405 0.0
O32 O 0.30365 0.78381 0.85717 0.0
O33 O 0.33502 0.79229 0.83581 0.0
O34 O 0.30486 0.8351 0.80874 0.0
O35 O 0.27492 0.80212 0.81762 0.0
C36 C 0.24954 0.85016 0.85263 0.0
O37 O 0.33679 0.86094 0.83702 0.0
O38 O 0.32224 0.85008 0.86452 0.0
In39 In 0.44735 0.02929 0.09745 0.0
O40 O 0.42298 0.99653 0.11642 0.0
O41 O 0.42081 0.99059 0.08687 0.0
C42 C 0.4953 0.03874 0.11898 0.0
C43 C 0.40671 0.07157 0.10117 0.0
C44 C 0.47492 0.02991 0.06392 0.0
O45 O 0.4878 0.01344 0.1137 0.0
O46 O 0.47819 0.05885 0.11393 0.0
O47 O 0.46164 0.05196 0.07037 0.0
O48 O 0.47418 0.00757 0.07435 0.0
C49 C 0.41305 0.98171 0.10287 0.0
O50 O 0.4121 0.05958 0.08554 0.0
O51 O 0.42151 0.06195 0.11483 0.0
In52 In 0.21518 0.80967 0.15174 0.0
O53 O 0.24752 0.82048 0.12837 0.0
O54 O 0.24745 0.84783 0.15258 0.0
C55 C 0.19846 0.75706 0.13824 0.0
C56 C 0.16863 0.84523 0.14611 0.0
C57 C 0.23643 0.79031 0.18495 0.0
O58 O 0.21971 0.77112 0.1314 0.0
O59 O 0.1857 0.7696 0.15175 0.0
O60 O 0.21111 0.80108 0.18344 0.0
O61 O 0.25096 0.78989 0.16989 0.0
C62 C 0.25851 0.84227 0.13671 0.0
O63 O 0.18251 0.8448 0.16147 0.0
O64 O 0.17837 0.82802 0.13376 0.0
In65 In 0.43576 0.97005 0.40296 0.0
O66 O 0.42838 0.01405 0.38847 0.0
O67 O 0.39728 1.00032 0.40898 0.0
C68 C 0.48004 0.94824 0.38214 0.0
C69 C 0.39509 0.92842 0.39671 0.0
C70 C 0.46446 0.98537 0.43463 0.0
O71 O 0.46483 0.9697 0.37665 0.0
O72 O 0.47234 0.93756 0.39772 0.0
O73 O 0.4435 0.9673 0.43497 0.0
O74 O 0.47005 0.99581 0.41863 0.0
C75 C 0.405 0.0196 0.39725 0.0
O76 O 0.41054 0.92858 0.41147 0.0
O77 O 0.4003 0.94896 0.38534 0.0
In78 In 0.28901 0.19162 0.65375 0.0
O79 O 0.32981 0.16256 0.65619 0.0
O80 O 0.31298 0.17192 0.62893 0.0
C81 C 0.28504 0.20549 0.69062 0.0
C82 C 0.23972 0.15981 0.64838 0.0
C83 C 0.30201 0.24297 0.63667 0.0
O84 O 0.30477 0.18881 0.68431 0.0
O85 O 0.26725 0.21466 0.67842 0.0
O86 O 0.28286 0.22568 0.63032 0.0
O87 O 0.31416 0.23451 0.65163 0.0
C88 C 0.33233 0.15921 0.6386 0.0
O89 O 0.24013 0.18737 0.64724 0.0
O90 O 0.26404 0.14832 0.65224 0.0
In91 In 0.06582 0.03571 0.90202 0.0
O92 O 0.09537 0.07051 0.9157 0.0
O93 O 0.09413 0.06786 0.88588 0.0
C94 C 0.03549 0.01605 0.93192 0.0
C95 C 0.09953 0.98878 0.8937 0.0
C96 C 0.01914 0.05802 0.88374 0.0
O97 O 0.05483 0.03575 0.93343 0.0
O98 O 0.0318 0.00634 0.91544 0.0
O99 O 0.03259 0.03571 0.87771 0.0
O100 O 0.02943 0.06882 0.89868 0.0
C101 C 0.10419 0.0807 0.90017 0.0
O102 O 0.08594 0.00286 0.88115 0.0
O103 O 0.09619 0.9984 0.91016 0.0
In104 In 0.7801 0.80765 0.65772 0.0
O105 O 0.75594 0.84162 0.63977 0.0
O106 O 0.73065 0.81666 0.65877 0.0
C107 C 0.79598 0.75761 0.64001 0.0
C108 C 0.82604 0.84449 0.65421 0.0
C109 C 0.77388 0.79124 0.69395 0.0
O110 O 0.80568 0.76531 0.65582 0.0
O111 O 0.77781 0.77518 0.63283 0.0
O112 O 0.79046 0.81192 0.68892 0.0
O113 O 0.75989 0.7792 0.68073 0.0
C114 C 0.73107 0.83676 0.64666 0.0
O115 O 0.80818 0.84609 0.66772 0.0
O116 O 0.82056 0.82453 0.64244 0.0
In117 In 0.92691 0.04221 0.41303 0.0
O118 O 0.96636 0.03177 0.39405 0.0
O119 O 0.96447 0.0734 0.40727 0.0
C120 C 0.89644 0.99338 0.40334 0.0
C121 C 0.94617 0.0385 0.44879 0.0
C122 C 0.88854 0.08574 0.40559 0.0
O123 O 0.90519 0.01178 0.39138 0.0
O124 O 0.90336 0.99935 0.42005 0.0
O125 O 0.88855 0.07209 0.42104 0.0
O126 O 0.90735 0.07701 0.39392 0.0
C127 C 0.97836 0.05638 0.39658 0.0
O128 O 0.92815 0.05772 0.44342 0.0
O129 O 0.95424 0.02082 0.43614 0.0
In130 In 0.71864 0.17632 0.15528 0.0
O131 O 0.67602 0.15583 0.16617 0.0
O132 O 0.69663 0.13626 0.1425 0.0
C133 C 0.73755 0.2072 0.18528 0.0
C134 C 0.76561 0.14181 0.14957 0.0
C135 C 0.69628 0.22001 0.13396 0.0
O136 O 0.7193 0.18653 0.18682 0.0
O137 O 0.74638 0.2119 0.16873 0.0
O138 O 0.71981 0.20721 0.12952 0.0
O139 O 0.68419 0.21019 0.14857 0.0
C140 C 0.67556 0.13585 0.15391 0.0
O141 O 0.75471 0.15718 0.13649 0.0
O142 O 0.75311 0.1444 0.16533 0.0
In143 In 0.57395 0.96523 0.9072 0.0
O144 O 0.5352 0.97199 0.88692 0.0
O145 O 0.52859 0.94831 0.91249 0.0
C146 C 0.61682 0.00335 0.89893 0.0
C147 C 0.56142 0.98783 0.94102 0.0
C148 C 0.59488 0.91368 0.89473 0.0
O149 O 0.59299 0.00317 0.88982 0.0
O150 O 0.61906 0.98382 0.9114 0.0
O151 O 0.59644 0.9207 0.91193 0.0
O152 O 0.58353 0.93276 0.88419 0.0
C153 C 0.51765 0.95819 0.8975 0.0
O154 O 0.57072 0.9618 0.93921 0.0
O155 O 0.5589 0.00209 0.92586 0.0
In156 In 0.7924 0.19829 0.84934 0.0
O157 O 0.82472 0.16682 0.8349 0.0
O158 O 0.83178 0.1782 0.86356 0.0
C159 C 0.77008 0.22321 0.81803 0.0
C160 C 0.75404 0.16003 0.86468 0.0
C161 C 0.80844 0.24845 0.86656 0.0
O162 O 0.79383 0.20906 0.81781 0.0
O163 O 0.75765 0.22422 0.83384 0.0
O164 O 0.7833 0.23749 0.86858 0.0
O165 O 0.82531 0.23419 0.85593 0.0
C166 C 0.84041 0.16392 0.84944 0.0
O167 O 0.76936 0.17729 0.87439 0.0
O168 O 0.75763 0.16231 0.84717 0.0
In169 In 0.56627 0.03704 0.59314 0.0
O170 O 0.5738 0.04264 0.56181 0.0
O171 O 0.54504 0.00854 0.57044 0.0
C172 C 0.60177 0.08186 0.60299 0.0
C173 C 0.51288 0.05976 0.60004 0.0
C174 C 0.59212 0.98868 0.60775 0.0
O175 O 0.60407 0.06831 0.58762 0.0
O176 O 0.58154 0.07283 0.61356 0.0
O177 O 0.56612 0.99557 0.61179 0.0
O178 O 0.6046 0.00607 0.59663 0.0
C179 C 0.55681 0.0222 0.55696 0.0
O180 O 0.52603 0.04435 0.6122 0.0
O181 O 0.52677 0.06367 0.58495 0.0
In182 In 0.71138 0.82468 0.33407 0.0
O183 O 0.67757 0.8587 0.32485 0.0
O184 O 0.67382 0.84143 0.3524 0.0
C185 C 0.73318 0.81319 0.29964 0.0
C186 C 0.75594 0.85189 0.35227 0.0
C187 C 0.6891 0.77084 0.34049 0.0
O188 O 0.71456 0.83304 0.30268 0.0
O189 O 0.74174 0.79968 0.31415 0.0
O190 O 0.70535 0.78351 0.35236 0.0
O191 O 0.68411 0.78539 0.32576 0.0
C192 C 0.66349 0.85834 0.34007 0.0
O193 O 0.74523 0.82799 0.3579 0.0
O194 O 0.74441 0.8618 0.3375 0.0
In195 In 0.93271 0.94771 0.08871 0.0
O196 O 0.92878 0.94106 0.05707 0.0
O197 O 0.95712 0.9748 0.06654 0.0
C198 C 0.89811 0.89964 0.09183 0.0
C199 C 0.98575 0.93618 0.10389 0.0
C200 C 0.90287 0.99092 0.10654 0.0
O201 O 0.89003 0.92247 0.08333 0.0
O202 O 0.92334 0.90119 0.09884 0.0
O203 O 0.91363 0.96918 0.11499 0.0
O204 O 0.90725 0.99109 0.08902 0.0
C205 C 0.94652 0.96107 0.05271 0.0
O206 O 0.96915 0.95594 0.11023 0.0
O207 O 0.97577 0.92267 0.0898 0.0
In208 In 0.71315 0.67775 0.84856 0.0
O209 O 0.74987 0.67422 0.87015 0.0
O210 O 0.74979 0.64444 0.84698 0.0
C211 C 0.68097 0.72476 0.85836 0.0
C212 C 0.67496 0.63487 0.85707 0.0
C213 C 0.73545 0.70054 0.81678 0.0
O214 O 0.70322 0.7172 0.86779 0.0
O215 O 0.67507 0.70832 0.84464 0.0
O216 O 0.71742 0.67948 0.81638 0.0
O217 O 0.74234 0.70925 0.83303 0.0
C218 C 0.7622 0.65295 0.86191 0.0
O219 O 0.67878 0.64327 0.84027 0.0
O220 O 0.6904 0.64787 0.86917 0.0
In221 In 0.56182 0.44877 0.09387 0.0
O222 O 0.57136 0.47964 0.11859 0.0
O223 O 0.60051 0.48003 0.0953 0.0
C224 C 0.5084 0.42819 0.10304 0.0
C225 C 0.5958 0.40025 0.09582 0.0
C226 C 0.5431 0.47786 0.06315 0.0
O227 O 0.52438 0.44092 0.11505 0.0
O228 O 0.5196 0.42558 0.08693 0.0
O229 O 0.55716 0.45406 0.06201 0.0
O230 O 0.53932 0.48722 0.07969 0.0
C231 C 0.59404 0.49048 0.11119 0.0
O232 O 0.59538 0.4165 0.08144 0.0
O233 O 0.57939 0.4086 0.10899 0.0
In234 In 0.78616 0.31816 0.34274 0.0
O235 O 0.76311 0.35522 0.35876 0.0
O236 O 0.73657 0.32553 0.3437 0.0
C237 C 0.79934 0.26789 0.36096 0.0
C238 C 0.83339 0.35264 0.34816 0.0
C239 C 0.77926 0.30265 0.30624 0.0
O240 O 0.7808 0.28585 0.3673 0.0
O241 O 0.8111 0.27546 0.34568 0.0
O242 O 0.79572 0.32343 0.31125 0.0
O243 O 0.76612 0.29008 0.31957 0.0
C244 C 0.73767 0.34799 0.35392 0.0
O245 O 0.8163 0.35599 0.33435 0.0
O246 O 0.82662 0.33197 0.35913 0.0
In247 In 0.94035 0.53617 0.60058 0.0
O248 O 0.91865 0.50467 0.62172 0.0
O249 O 0.9125 0.49694 0.59254 0.0
C250 C 0.98766 0.55716 0.61886 0.0
C251 C 0.90127 0.58052 0.60253 0.0
C252 C 0.96957 0.51885 0.56966 0.0
O253 O 0.97489 0.53396 0.62406 0.0
O254 O 0.97629 0.56958 0.6048 0.0
O255 O 0.94975 0.53817 0.56904 0.0
O256 O 0.97437 0.50829 0.58581 0.0
C257 C 0.90719 0.48892 0.60914 0.0
O258 O 0.90957 0.56997 0.58699 0.0
O259 O 0.91238 0.5685 0.61679 0.0
In260 In 0.70919 0.31757 0.65817 0.0
O261 O 0.74999 0.32276 0.64034 0.0
O262 O 0.7407 0.3568 0.65978 0.0
C263 C 0.69503 0.26336 0.64587 0.0
C264 C 0.66629 0.3499 0.64207 0.0
C265 C 0.71823 0.30627 0.69501 0.0
O266 O 0.7186 0.27598 0.64155 0.0
O267 O 0.67857 0.27795 0.6566 0.0
O268 O 0.69775 0.32257 0.68932 0.0
O269 O 0.73437 0.29623 0.68216 0.0
C270 C 0.75744 0.34716 0.64708 0.0
O271 O 0.66907 0.34822 0.65971 0.0
O272 O 0.68511 0.33572 0.6329 0.0
In273 In 0.95044 0.46938 0.90461 0.0
O274 O 0.92734 0.50078 0.88426 0.0
O275 O 0.92678 0.51066 0.91357 0.0
C276 C 0.99249 0.45003 0.88073 0.0
C277 C 0.90972 0.42641 0.90498 0.0
C278 C 0.97886 0.48302 0.93676 0.0
O279 O 0.98403 0.47635 0.88064 0.0
O280 O 0.97924 0.43394 0.89227 0.0
O281 O 0.9564 0.46694 0.9366 0.0
O282 O 0.98696 0.49184 0.92078 0.0
C283 C 0.919 0.51794 0.89719 0.0
O284 O 0.93476 0.42329 0.91212 0.0
O285 O 0.90488 0.45134 0.89807 0.0
In286 In 0.78397 0.67466 0.15203 0.0
O287 O 0.74855 0.65313 0.13403 0.0
O288 O 0.74643 0.64746 0.16375 0.0
C289 C 0.80348 0.71616 0.12795 0.0
C290 C 0.82642 0.63366 0.15062 0.0
C291 C 0.77179 0.70913 0.18182 0.0
O292 O 0.77745 0.7069 0.12746 0.0
O293 O 0.81953 0.70355 0.13985 0.0
O294 O 0.78657 0.68586 0.18353 0.0
O295 O 0.76277 0.71423 0.16538 0.0
C296 C 0.73541 0.64172 0.14788 0.0
O297 O 0.82747 0.65502 0.16189 0.0
O298 O 0.80393 0.63279 0.14041 0.0
In299 In 0.56293 0.54592 0.39753 0.0
O300 O 0.59347 0.58582 0.39895 0.0
O301 O 0.58148 0.56932 0.37207 0.0
C302 C 0.55001 0.53779 0.43422 0.0
C303 C 0.59275 0.49661 0.38888 0.0
C304 C 0.51024 0.56288 0.38438 0.0
O305 O 0.56778 0.55719 0.42876 0.0
O306 O 0.53941 0.52223 0.42124 0.0
O307 O 0.52335 0.54053 0.37817 0.0
O308 O 0.52365 0.57645 0.3972 0.0
C309 C 0.59542 0.58834 0.38128 0.0
O310 O 0.56652 0.5007 0.38405 0.0
O311 O 0.6039 0.5173 0.39823 0.0
In312 In 0.28315 0.29797 0.15462 0.0
O313 O 0.24249 0.31533 0.1396 0.0
O314 O 0.25547 0.33528 0.16548 0.0
C315 C 0.30119 0.24921 0.1371 0.0
C316 C 0.32597 0.33409 0.14292 0.0
C317 C 0.26631 0.27018 0.18602 0.0
O318 O 0.279 0.26329 0.13141 0.0
O319 O 0.31398 0.26007 0.15121 0.0
O320 O 0.28781 0.28777 0.18607 0.0
O321 O 0.25358 0.26731 0.17035 0.0
C322 C 0.2375 0.33464 0.15199 0.0
O323 O 0.32495 0.32521 0.15982 0.0
O324 O 0.30551 0.32499 0.13256 0.0
In325 In 0.43757 0.54204 0.90688 0.0
O326 O 0.43982 0.55717 0.93745 0.0
O327 O 0.45804 0.51557 0.93051 0.0
C328 C 0.4122 0.58892 0.89023 0.0
C329 C 0.49282 0.54694 0.8943 0.0
C330 C 0.39789 0.49864 0.9024 0.0
O331 O 0.41145 0.58516 0.90782 0.0
O332 O 0.42523 0.56902 0.88127 0.0
O333 O 0.42055 0.5004 0.89229 0.0
O334 O 0.39536 0.51866 0.91449 0.0
C335 C 0.45324 0.53456 0.94307 0.0
O336 O 0.47548 0.5281 0.88754 0.0
O337 O 0.48231 0.56298 0.90703 0.0
In338 In 0.21664 0.69408 0.65342 0.0
O339 O 0.24662 0.68144 0.62917 0.0
O340 O 0.25071 0.6571 0.65445 0.0
C341 C 0.19474 0.74349 0.6381 0.0
C342 C 0.1697 0.65798 0.65225 0.0
C343 C 0.24034 0.72015 0.6839 0.0
O344 O 0.21442 0.72855 0.63014 0.0
O345 O 0.18615 0.73345 0.6537 0.0
O346 O 0.21861 0.70317 0.68509 0.0
O347 O 0.25052 0.7231 0.66752 0.0
C348 C 0.25938 0.66097 0.63778 0.0
O349 O 0.17745 0.674 0.63873 0.0
O350 O 0.1859 0.65969 0.6666 0.0
In351 In 0.06276 0.46742 0.408 0.0
O352 O 0.07112 0.45815 0.4392 0.0
O353 O 0.03711 0.48782 0.43216 0.0
C354 C 0.09645 0.42401 0.39406 0.0
C355 C 0.01207 0.45112 0.39135 0.0
C356 C 0.09235 0.51746 0.40062 0.0
O357 O 0.08814 0.42437 0.41101 0.0
O358 O 0.0879 0.44551 0.38434 0.0
O359 O 0.06498 0.51548 0.39878 0.0
O360 O 0.10466 0.49438 0.40626 0.0
C361 C 0.05104 0.47483 0.44498 0.0
O362 O 0.02723 0.4723 0.38543 0.0
O363 O 0.02233 0.43851 0.40568 0.0
In364 In 0.28001 0.69736 0.34751 0.0
O365 O 0.25602 0.65506 0.35509 0.0
O366 O 0.23502 0.69471 0.36218 0.0
C367 C 0.28952 0.75073 0.36301 0.0
C368 C 0.32699 0.66254 0.35189 0.0
C369 C 0.27746 0.71005 0.31036 0.0
O370 O 0.30088 0.72772 0.3696 0.0
O371 O 0.2728 0.74656 0.34919 0.0
O372 O 0.30105 0.70901 0.31948 0.0
O373 O 0.25492 0.70408 0.31985 0.0
C374 C 0.23404 0.66716 0.36226 0.0
O375 O 0.31013 0.66078 0.33785 0.0
O376 O 0.32014 0.68194 0.3638 0.0
In377 In 0.06316 0.52777 0.10151 0.0
O378 O 0.0645 0.54444 0.07128 0.0
O379 O 0.04161 0.50484 0.0764 0.0
C380 C 0.10132 0.57193 0.10704 0.0
C381 C 0.00954 0.5395 0.11562 0.0
C382 C 0.09243 0.48287 0.11793 0.0
O383 O 0.10463 0.55317 0.09416 0.0
O384 O 0.07904 0.56813 0.11722 0.0
O385 O 0.07879 0.50197 0.12722 0.0
O386 O 0.09093 0.48607 0.10037 0.0
C387 C 0.04979 0.52363 0.06452 0.0
O388 O 0.01776 0.51381 0.1118 0.0
O389 O 0.02827 0.55908 0.11234 0.0
In390 In 0.21807 0.31272 0.84619 0.0
O391 O 0.236 0.33517 0.87255 0.0
O392 O 0.25842 0.3424 0.84686 0.0
C393 C 0.20318 0.26187 0.86313 0.0
C394 C 0.16949 0.34675 0.84359 0.0
C395 C 0.24181 0.2902 0.81456 0.0
O396 O 0.21963 0.28045 0.87099 0.0
O397 O 0.19464 0.26893 0.84688 0.0
O398 O 0.21878 0.3055 0.81435 0.0
O399 O 0.25309 0.28688 0.83063 0.0
C400 C 0.25683 0.34779 0.86422 0.0
O401 O 0.19282 0.35295 0.83501 0.0
O402 O 0.17069 0.3235 0.85304 0.0
In403 In 0.43475 0.46708 0.58649 0.0
O404 O 0.44202 0.46929 0.55475 0.0
O405 O 0.4643 0.50005 0.57231 0.0
C406 C 0.39796 0.42172 0.59189 0.0
C407 C 0.48565 0.4433 0.5976 0.0
C408 C 0.40074 0.51299 0.59579 0.0
O409 O 0.40302 0.43207 0.5757 0.0
O410 O 0.41117 0.43447 0.60516 0.0
O411 O 0.41902 0.50251 0.60738 0.0
O412 O 0.39967 0.5001 0.58012 0.0
C413 C 0.45984 0.4905 0.55586 0.0
O414 O 0.47301 0.46255 0.60759 0.0
O415 O 0.4721 0.43594 0.58289 0.0
H416 H 0.11234 0.3718 0.4106 0.0
H417 H 0.12016 0.42209 0.35898 0.0
H418 H 0.1476 0.38159 0.3444 0.0
H419 H 0.18455 0.33653 0.40814 0.0
H420 H 0.17128 0.30208 0.41713 0.0
H421 H 0.15396 0.33581 0.42413 0.0
H422 H 0.104 0.31593 0.41264 0.0
H423 H 0.12116 0.28219 0.40559 0.0
H424 H 0.10041 0.30315 0.38875 0.0
H425 H 0.1707 0.3351 0.33456 0.0
H426 H 0.18904 0.2849 0.33 0.0
H427 H 0.16759 0.264 0.38796 0.0
C428 C 0.12019 0.37439 0.39632 0.0
C429 C 0.11419 0.40012 0.38592 0.0
C430 C 0.12451 0.4026 0.36721 0.0
C431 C 0.14018 0.37975 0.35882 0.0
C432 C 0.14544 0.35457 0.36933 0.0
C433 C 0.13589 0.3517 0.38768 0.0
C434 C 0.14342 0.32167 0.39548 0.0
C435 C 0.16457 0.32418 0.41221 0.0
C436 C 0.11559 0.30474 0.40093 0.0
C437 C 0.15827 0.30802 0.37852 0.0
C438 C 0.15922 0.32752 0.36365 0.0
C439 C 0.1704 0.31972 0.34615 0.0
C440 C 0.18068 0.29113 0.34369 0.0
C441 C 0.17988 0.27068 0.35866 0.0
C442 C 0.16886 0.27936 0.37638 0.0
H443 H 0.96922 0.90849 0.60537 0.0
H444 H 0.98115 0.96398 0.65434 0.0
H445 H 0.93586 0.9437 0.6683 0.0
H446 H 0.89092 0.91362 0.60297 0.0
H447 H 0.88614 0.87599 0.59595 0.0
H448 H 0.91918 0.89521 0.58984 0.0
H449 H 0.95003 0.85484 0.60608 0.0
H450 H 0.9171 0.83547 0.61221 0.0
H451 H 0.9428 0.84562 0.6303 0.0
H452 H 0.88893 0.91724 0.67672 0.0
H453 H 0.84513 0.88568 0.6794 0.0
H454 H 0.86496 0.84715 0.62506 0.0
C455 C 0.96229 0.91644 0.61902 0.0
C456 C 0.97861 0.93786 0.62878 0.0
C457 C 0.96893 0.94758 0.64664 0.0
C458 C 0.94324 0.93622 0.65465 0.0
C459 C 0.92762 0.91512 0.64463 0.0
C460 C 0.93687 0.90526 0.62723 0.0
C461 C 0.91652 0.8821 0.61946 0.0
C462 C 0.90235 0.89236 0.60096 0.0
C463 C 0.93257 0.85278 0.61687 0.0
C464 C 0.89432 0.88042 0.63519 0.0
C465 C 0.90099 0.89971 0.64956 0.0
C466 C 0.88352 0.90204 0.66556 0.0
C467 C 0.85869 0.88408 0.66695 0.0
C468 C 0.85169 0.86398 0.65245 0.0
C469 C 0.86976 0.86228 0.63638 0.0
H470 H 0.37586 0.63146 0.90491 0.0
H471 H 0.4214 0.60532 0.854 0.0
H472 H 0.40334 0.6495 0.83788 0.0
H473 H 0.31158 0.66114 0.88102 0.0
H474 H 0.30708 0.6909 0.89743 0.0
H475 H 0.32322 0.65694 0.90511 0.0
H476 H 0.36887 0.68508 0.91687 0.0
H477 H 0.35291 0.7191 0.90919 0.0
H478 H 0.38854 0.70843 0.9008 0.0
H479 H 0.38328 0.69726 0.82778 0.0
H480 H 0.35927 0.74506 0.8234 0.0
H481 H 0.32396 0.74005 0.88 0.0
C482 C 0.38187 0.63503 0.89035 0.0
C483 C 0.40009 0.615 0.8807 0.0
C484 C 0.40743 0.62032 0.86165 0.0
C485 C 0.39732 0.64538 0.85237 0.0
C486 C 0.3796 0.66477 0.86226 0.0
C487 C 0.37162 0.65985 0.88074 0.0
C488 C 0.35215 0.68433 0.88797 0.0
C489 C 0.3217 0.67262 0.89318 0.0
C490 C 0.36649 0.70017 0.9047 0.0
C491 C 0.35084 0.70389 0.87072 0.0
C492 C 0.36701 0.69215 0.85613 0.0
C493 C 0.3703 0.70657 0.83901 0.0
C494 C 0.35668 0.73375 0.83669 0.0
C495 C 0.33968 0.74613 0.85132 0.0
C496 C 0.33657 0.7309 0.86852 0.0
H497 H 0.51113 0.089 0.13712 0.0
H498 H 0.54333 0.00329 0.12097 0.0
H499 H 0.59288 0.0172 0.13162 0.0
H500 H 0.56964 0.12914 0.1217 0.0
H501 H 0.57008 0.15518 0.14076 0.0
H502 H 0.53651 0.13723 0.13443 0.0
H503 H 0.53055 0.11831 0.16858 0.0
H504 H 0.56405 0.13647 0.17511 0.0
H505 H 0.55976 0.09779 0.17937 0.0
H506 H 0.63986 0.04347 0.13843 0.0
H507 H 0.68019 0.07845 0.14432 0.0
H508 H 0.61722 0.14574 0.15856 0.0
C509 C 0.52847 0.07289 0.13633 0.0
C510 C 0.52347 0.04505 0.12828 0.0
C511 C 0.54667 0.02463 0.12727 0.0
C512 C 0.57488 0.03237 0.13324 0.0
C513 C 0.57931 0.06036 0.14056 0.0
C514 C 0.5566 0.0801 0.14252 0.0
C515 C 0.56743 0.10934 0.14982 0.0
C516 C 0.56051 0.13416 0.13584 0.0
C517 C 0.55469 0.11585 0.16939 0.0
C518 C 0.59995 0.1034 0.15088 0.0
C519 C 0.60636 0.07501 0.14548 0.0
C520 C 0.63509 0.06545 0.14323 0.0
C521 C 0.65782 0.08543 0.14652 0.0
C522 C 0.65166 0.11443 0.15226 0.0
C523 C 0.62241 0.12336 0.15477 0.0
H524 H 0.15286 0.7238 0.15078 0.0
H525 H 0.22279 0.72524 0.10954 0.0
H526 H 0.20658 0.677 0.09756 0.0
H527 H 0.15592 0.6464 0.16091 0.0
H528 H 0.11684 0.6429 0.16331 0.0
H529 H 0.13445 0.67713 0.16881 0.0
H530 H 0.10058 0.70398 0.14518 0.0
H531 H 0.08285 0.66986 0.13964 0.0
H532 H 0.09888 0.69155 0.12113 0.0
H533 H 0.18184 0.62893 0.08976 0.0
H534 H 0.1502 0.58526 0.08648 0.0
H535 H 0.0968 0.61583 0.13297 0.0
C536 C 0.16485 0.71394 0.13927 0.0
C537 C 0.18909 0.7282 0.13108 0.0
C538 C 0.20415 0.71464 0.11601 0.0
C539 C 0.19513 0.68726 0.10914 0.0
C540 C 0.17108 0.6738 0.11754 0.0
C541 C 0.15616 0.68672 0.13227 0.0
C542 C 0.13069 0.66805 0.13863 0.0
C543 C 0.13473 0.65803 0.15913 0.0
C544 C 0.10153 0.68433 0.13598 0.0
C545 C 0.13346 0.64265 0.1251 0.0
C546 C 0.15692 0.64628 0.11307 0.0
C547 C 0.16348 0.62581 0.09915 0.0
C548 C 0.14542 0.60109 0.0974 0.0
C549 C 0.12114 0.59716 0.1095 0.0
C550 C 0.1153 0.61817 0.12357 0.0
H551 H 0.51872 0.90669 0.39389 0.0
H552 H 0.50032 0.96584 0.34758 0.0
H553 H 0.54543 0.94922 0.33152 0.0
H554 H 0.59567 0.91784 0.39466 0.0
H555 H 0.60413 0.88033 0.40038 0.0
H556 H 0.56987 0.896 0.40773 0.0
H557 H 0.54177 0.85432 0.3908 0.0
H558 H 0.57596 0.83841 0.38349 0.0
H559 H 0.54859 0.84749 0.3662 0.0
H560 H 0.59314 0.92631 0.32086 0.0
H561 H 0.6393 0.89893 0.31637 0.0
H562 H 0.62642 0.85595 0.3702 0.0
C563 C 0.524 0.91598 0.38028 0.0
C564 C 0.50598 0.93744 0.3719 0.0
C565 C 0.5138 0.94928 0.35419 0.0
C566 C 0.53937 0.94 0.345 0.0
C567 C 0.55683 0.91899 0.35377 0.0
C568 C 0.54942 0.90713 0.37101 0.0
C569 C 0.57211 0.88537 0.37768 0.0
C570 C 0.58628 0.8955 0.39621 0.0
C571 C 0.55881 0.85458 0.37965 0.0
C572 C 0.59353 0.88681 0.36151 0.0
C573 C 0.58434 0.90624 0.34782 0.0
C574 C 0.60054 0.91105 0.3315 0.0
C575 C 0.62672 0.89545 0.32909 0.0
C576 C 0.63645 0.87542 0.34297 0.0
C577 C 0.61962 0.87123 0.35939 0.0
H578 H 0.3374 0.28613 0.65026 0.0
H579 H 0.28657 0.26124 0.60126 0.0
H580 H 0.3041 0.30548 0.58453 0.0
H581 H 0.32551 0.36486 0.6461 0.0
H582 H 0.36192 0.37363 0.654 0.0
H583 H 0.34423 0.34076 0.66219 0.0
H584 H 0.38804 0.30989 0.65027 0.0
H585 H 0.4058 0.34261 0.64199 0.0
H586 H 0.39911 0.31272 0.62599 0.0
H587 H 0.33028 0.35096 0.57252 0.0
H588 H 0.36082 0.39493 0.56688 0.0
H589 H 0.39276 0.39021 0.62428 0.0
C590 C 0.32972 0.29011 0.63607 0.0
C591 C 0.31066 0.2703 0.62703 0.0
C592 C 0.30111 0.27625 0.60846 0.0
C593 C 0.31098 0.30127 0.59885 0.0
C594 C 0.33011 0.3202 0.60811 0.0
C595 C 0.33912 0.31503 0.62639 0.0
C596 C 0.36009 0.33839 0.63314 0.0
C597 C 0.34716 0.35542 0.64984 0.0
C598 C 0.39003 0.3251 0.63813 0.0
C599 C 0.36191 0.35731 0.61572 0.0
C600 C 0.34451 0.34652 0.6014 0.0
C601 C 0.34371 0.35977 0.58371 0.0
C602 C 0.36115 0.38466 0.58061 0.0
C603 C 0.37896 0.39606 0.59518 0.0
C604 C 0.37911 0.38221 0.61294 0.0
H605 H 0.98377 0.10076 0.89749 0.0
H606 H 0.99519 0.04331 0.84944 0.0
H607 H 0.9509 0.0647 0.83467 0.0
H608 H 0.90607 0.09603 0.89941 0.0
H609 H 0.9014 0.13367 0.90643 0.0
H610 H 0.93432 0.11434 0.91262 0.0
H611 H 0.96539 0.15464 0.89646 0.0
H612 H 0.93257 0.1741 0.8902 0.0
H613 H 0.95838 0.16386 0.87221 0.0
H614 H 0.90473 0.09328 0.82533 0.0
H615 H 0.86058 0.1247 0.82298 0.0
H616 H 0.88016 0.16158 0.8778 0.0
C617 C 0.9771 0.09272 0.8838 0.0
C618 C 0.99296 0.07049 0.87454 0.0
C619 C 0.98333 0.0604 0.85675 0.0
C620 C 0.95826 0.07244 0.84826 0.0
C621 C 0.94308 0.09439 0.85784 0.0
C622 C 0.95217 0.10428 0.87527 0.0
C623 C 0.9319 0.12746 0.88298 0.0
C624 C 0.91757 0.11725 0.90145 0.0
C625 C 0.94803 0.15674 0.88561 0.0
C626 C 0.90987 0.12919 0.86719 0.0
C627 C 0.91664 0.11014 0.85272 0.0
C628 C 0.89925 0.10822 0.83661 0.0
C629 C 0.87427 0.12614 0.83538 0.0
C630 C 0.86693 0.14547 0.85022 0.0
C631 C 0.8851 0.14693 0.86624 0.0
H632 H 0.88787 0.61075 0.63432 0.0
H633 H 0.86997 0.60767 0.57441 0.0
H634 H 0.83808 0.65135 0.57753 0.0
H635 H 0.81607 0.63507 0.64958 0.0
H636 H 0.83085 0.65844 0.66767 0.0
H637 H 0.85026 0.62586 0.66072 0.0
H638 H 0.89638 0.657 0.6536 0.0
H639 H 0.87714 0.68962 0.66052 0.0
H640 H 0.89368 0.68745 0.63755 0.0
H641 H 0.80923 0.6969 0.58753 0.0
H642 H 0.78835 0.74084 0.6031 0.0
H643 H 0.82717 0.71356 0.65596 0.0
C644 C 0.87697 0.61899 0.62186 0.0
C645 C 0.88119 0.60575 0.60414 0.0
C646 C 0.86689 0.61747 0.58814 0.0
C647 C 0.84872 0.6422 0.5898 0.0
C648 C 0.84522 0.65489 0.60753 0.0
C649 C 0.85907 0.64364 0.62324 0.0
C650 C 0.85322 0.662 0.64052 0.0
C651 C 0.83661 0.64428 0.6555 0.0
C652 C 0.8818 0.67477 0.64851 0.0
C653 C 0.83415 0.6856 0.6321 0.0
C654 C 0.82942 0.68109 0.61311 0.0
C655 C 0.81274 0.70054 0.60241 0.0
C656 C 0.80093 0.72538 0.61135 0.0
C657 C 0.80621 0.73057 0.63069 0.0
C658 C 0.82278 0.71021 0.64113 0.0
H659 H 0.11305 0.16266 0.37687 0.0
H660 H 0.14802 0.09639 0.33936 0.0
H661 H 0.10548 0.06464 0.34612 0.0
H662 H 0.08435 0.11394 0.4117 0.0
H663 H 0.05217 0.13568 0.41607 0.0
H664 H 0.08533 0.15304 0.4082 0.0
H665 H 0.05747 0.17578 0.37998 0.0
H666 H 0.02421 0.15851 0.38778 0.0
H667 H 0.03741 0.15223 0.36423 0.0
H668 H 0.05908 0.03982 0.35749 0.0
H669 H 0.0122 0.02464 0.372 0.0
H670 H 0.00781 0.10773 0.40149 0.0
C671 C 0.11178 0.14146 0.37009 0.0
C672 C 0.13385 0.13192 0.35764 0.0
C673 C 0.13132 0.10411 0.34895 0.0
C674 C 0.10726 0.08592 0.35272 0.0
C675 C 0.08588 0.09597 0.3651 0.0
C676 C 0.08787 0.12315 0.37358 0.0
C677 C 0.06187 0.12896 0.38619 0.0
C678 C 0.07152 0.13314 0.40676 0.0
C679 C 0.0442 0.15544 0.37912 0.0
C680 C 0.04506 0.10071 0.38364 0.0
C681 C 0.05919 0.08191 0.37143 0.0
C682 C 0.04779 0.0544 0.36704 0.0
C683 C 0.0212 0.04595 0.37534 0.0
C684 C 0.00639 0.065 0.38784 0.0
C685 C 0.01859 0.09268 0.39197 0.0
H686 H 0.5936 0.35914 0.1235 0.0
H687 H 0.63848 0.38072 0.07156 0.0
H688 H 0.66883 0.33597 0.07488 0.0
H689 H 0.65518 0.33158 0.14831 0.0
H690 H 0.63485 0.30299 0.15992 0.0
H691 H 0.61676 0.33632 0.15306 0.0
H692 H 0.57882 0.30628 0.134 0.0
H693 H 0.59684 0.27284 0.14078 0.0
H694 H 0.59132 0.28105 0.11622 0.0
H695 H 0.69565 0.28908 0.08504 0.0
H696 H 0.71513 0.24442 0.10056 0.0
H697 H 0.65077 0.25413 0.14494 0.0
C698 C 0.60977 0.35448 0.11278 0.0
C699 C 0.61378 0.37341 0.0973 0.0
C700 C 0.63508 0.36645 0.08354 0.0
C701 C 0.65239 0.34112 0.08532 0.0
C702 C 0.6479 0.32293 0.10084 0.0
C703 C 0.62695 0.32931 0.11426 0.0
C704 C 0.62626 0.30651 0.12966 0.0
C705 C 0.63372 0.32017 0.14886 0.0
C706 C 0.59655 0.29074 0.13018 0.0
C707 C 0.65027 0.28632 0.12297 0.0
C708 C 0.66264 0.29604 0.10636 0.0
C709 C 0.68593 0.28119 0.09796 0.0
C710 C 0.69685 0.25588 0.10685 0.0
C711 C 0.68434 0.2457 0.12386 0.0
C712 C 0.66065 0.26113 0.13184 0.0
H713 H 0.49333 0.94572 0.86303 0.0
H714 H 0.47296 0.9567 0.92218 0.0
H715 H 0.42254 0.93995 0.91639 0.0
H716 H 0.41842 0.96459 0.84406 0.0
H717 H 0.42056 0.93661 0.82622 0.0
H718 H 0.45334 0.95477 0.83413 0.0
H719 H 0.47629 0.90446 0.84221 0.0
H720 H 0.44358 0.88619 0.83451 0.0
H721 H 0.45727 0.88006 0.85797 0.0
H722 H 0.37753 0.9158 0.90564 0.0
H723 H 0.33967 0.88577 0.89031 0.0
H724 H 0.38816 0.88903 0.83786 0.0
C725 C 0.47782 0.94562 0.87454 0.0
C726 C 0.4867 0.9529 0.89298 0.0
C727 C 0.46634 0.95145 0.90793 0.0
C728 C 0.43767 0.94205 0.90477 0.0
C729 C 0.42973 0.93404 0.88658 0.0
C730 C 0.44907 0.93581 0.87165 0.0
C731 C 0.43582 0.9226 0.85399 0.0
C732 C 0.4318 0.94605 0.83869 0.0
C733 C 0.45434 0.8968 0.84676 0.0
C734 C 0.40655 0.91224 0.86154 0.0
C735 C 0.40343 0.9195 0.88031 0.0
C736 C 0.37942 0.91045 0.89085 0.0
C737 C 0.35811 0.89327 0.88205 0.0
C738 C 0.36092 0.88527 0.8629 0.0
C739 C 0.38524 0.89529 0.85244 0.0
H740 H 0.92275 0.36897 0.89974 0.0
H741 H 0.85011 0.42938 0.90466 0.0
H742 H 0.81545 0.38881 0.89838 0.0
H743 H 0.89467 0.33233 0.86059 0.0
H744 H 0.90849 0.29676 0.86707 0.0
H745 H 0.92706 0.32927 0.87492 0.0
H746 H 0.92229 0.31207 0.90954 0.0
H747 H 0.90379 0.27938 0.90178 0.0
H748 H 0.88673 0.30307 0.91883 0.0
H749 H 0.78904 0.34182 0.8902 0.0
H750 H 0.77332 0.29365 0.87771 0.0
H751 H 0.86383 0.26573 0.87519 0.0
C752 C 0.89949 0.37342 0.90001 0.0
C753 C 0.8889 0.40202 0.90307 0.0
C754 C 0.85847 0.40743 0.90258 0.0
C755 C 0.8387 0.38454 0.89908 0.0
C756 C 0.84985 0.35658 0.89579 0.0
C757 C 0.87957 0.35103 0.89603 0.0
C758 C 0.88619 0.31997 0.88994 0.0
C759 C 0.90522 0.31958 0.87207 0.0
C760 C 0.9006 0.3026 0.90599 0.0
C761 C 0.8556 0.309 0.88599 0.0
C762 C 0.83486 0.33018 0.88985 0.0
C763 C 0.80509 0.32506 0.88716 0.0
C764 C 0.79636 0.2977 0.8801 0.0
C765 C 0.81741 0.27619 0.87544 0.0
C766 C 0.84732 0.2819 0.87857 0.0
H767 H 0.37801 0.13031 0.65594 0.0
H768 H 0.34111 0.15078 0.60118 0.0
H769 H 0.38199 0.12523 0.58579 0.0
H770 H 0.45236 0.14075 0.64328 0.0
H771 H 0.46628 0.11082 0.65719 0.0
H772 H 0.43322 0.12924 0.66419 0.0
H773 H 0.40551 0.07976 0.66414 0.0
H774 H 0.43853 0.06116 0.65716 0.0
H775 H 0.40579 0.05738 0.64325 0.0
H776 H 0.42773 0.10088 0.57615 0.0
H777 H 0.47589 0.07749 0.57263 0.0
H778 H 0.48371 0.07087 0.63337 0.0
C779 C 0.37843 0.12911 0.64072 0.0
C780 C 0.35635 0.14251 0.62975 0.0
C781 C 0.35773 0.14065 0.60988 0.0
C782 C 0.38085 0.12615 0.60099 0.0
C783 C 0.40237 0.11343 0.61216 0.0
C784 C 0.4014 0.11455 0.63157 0.0
C785 C 0.42797 0.09968 0.64012 0.0
C786 C 0.44602 0.12143 0.65189 0.0
C787 C 0.4189 0.0729 0.65186 0.0
C788 C 0.4442 0.09054 0.62244 0.0
C789 C 0.42889 0.09872 0.60651 0.0
C790 C 0.43981 0.09407 0.5885 0.0
C791 C 0.46723 0.08086 0.58666 0.0
C792 C 0.48341 0.07226 0.60272 0.0
C793 C 0.47159 0.07688 0.62086 0.0
H794 H 0.68187 0.74046 0.37369 0.0
H795 H 0.66825 0.73472 0.31335 0.0
H796 H 0.64592 0.68599 0.31729 0.0
H797 H 0.69743 0.66254 0.3818 0.0
H798 H 0.67769 0.66144 0.40374 0.0
H799 H 0.69489 0.69495 0.3962 0.0
H800 H 0.64534 0.7221 0.39895 0.0
H801 H 0.62801 0.68871 0.40649 0.0
H802 H 0.614 0.70827 0.38639 0.0
H803 H 0.62354 0.63927 0.32751 0.0
H804 H 0.6001 0.59771 0.34363 0.0
H805 H 0.62632 0.63354 0.39766 0.0
C806 C 0.67453 0.7287 0.36132 0.0
C807 C 0.6769 0.74122 0.3432 0.0
C808 C 0.66662 0.7255 0.32736 0.0
C809 C 0.65402 0.69776 0.32944 0.0
C810 C 0.6517 0.68611 0.34747 0.0
C811 C 0.6615 0.70103 0.36317 0.0
C812 C 0.65462 0.68414 0.38103 0.0
C813 C 0.68284 0.67524 0.3913 0.0
C814 C 0.63428 0.70186 0.39397 0.0
C815 C 0.63912 0.65765 0.37287 0.0
C816 C 0.63803 0.65916 0.35347 0.0
C817 C 0.62434 0.63773 0.34269 0.0
C818 C 0.61108 0.61421 0.35199 0.0
C819 C 0.6114 0.61237 0.37189 0.0
C820 C 0.62586 0.63429 0.38243 0.0
H821 H 0.13215 0.84385 0.11577 0.0
H822 H 0.14613 0.88804 0.16906 0.0
H823 H 0.10182 0.91803 0.16349 0.0
H824 H 0.10493 0.90642 0.08982 0.0
H825 H 0.07841 0.88512 0.07699 0.0
H826 H 0.11188 0.86833 0.08486 0.0
H827 H 0.08215 0.82841 0.10238 0.0
H828 H 0.04861 0.84505 0.09455 0.0
H829 H 0.05487 0.83924 0.11931 0.0
H830 H 0.05509 0.94245 0.15213 0.0
H831 H 0.00914 0.95785 0.13658 0.0
H832 H 0.02591 0.89657 0.0912 0.0
C833 C 0.12606 0.86 0.12622 0.0
C834 C 0.14262 0.86375 0.14281 0.0
C835 C 0.13375 0.88488 0.15623 0.0
C836 C 0.10867 0.90203 0.15316 0.0
C837 C 0.09275 0.89767 0.13665 0.0
C838 C 0.10109 0.87709 0.12344 0.0
C839 C 0.07972 0.87578 0.1072 0.0
C840 C 0.09463 0.88444 0.08862 0.0
C841 C 0.0655 0.84532 0.10579 0.0
C842 C 0.05787 0.89871 0.11336 0.0
C843 C 0.06582 0.91129 0.1303 0.0
C844 C 0.04872 0.93279 0.13884 0.0
C845 C 0.0227 0.94142 0.1299 0.0
C846 C 0.01399 0.92841 0.1127 0.0
C847 C 0.03201 0.90696 0.10433 0.0
H848 H 0.68503 0.76305 0.88851 0.0
H849 H 0.63843 0.74735 0.8362 0.0
H850 H 0.61117 0.7932 0.84047 0.0
H851 H 0.6225 0.79485 0.91361 0.0
H852 H 0.64439 0.82152 0.92592 0.0
H853 H 0.66014 0.7869 0.91917 0.0
H854 H 0.70138 0.81411 0.90134 0.0
H855 H 0.68571 0.84879 0.90797 0.0
H856 H 0.69195 0.84054 0.88349 0.0
H857 H 0.59127 0.84141 0.84884 0.0
H858 H 0.57681 0.88892 0.86221 0.0
H859 H 0.63367 0.87386 0.91019 0.0
C860 C 0.66892 0.76922 0.87808 0.0
C861 C 0.66388 0.75162 0.86201 0.0
C862 C 0.64263 0.7604 0.84864 0.0
C863 C 0.62703 0.78645 0.85091 0.0
C864 C 0.63265 0.80342 0.86674 0.0
C865 C 0.65278 0.79517 0.88023 0.0
C866 C 0.65437 0.81779 0.89589 0.0
C867 C 0.64477 0.80446 0.91477 0.0
C868 C 0.68519 0.83109 0.89724 0.0
C869 C 0.63232 0.84012 0.88885 0.0
C870 C 0.62024 0.83129 0.87196 0.0
C871 C 0.6003 0.84848 0.86216 0.0
C872 C 0.59232 0.87549 0.86984 0.0
C873 C 0.60402 0.88497 0.88725 0.0
C874 C 0.62418 0.86696 0.89695 0.0
H875 H 0.48468 0.40886 0.13663 0.0
H876 H 0.46462 0.42433 0.07777 0.0
H877 H 0.41468 0.40579 0.0827 0.0
H878 H 0.44691 0.34107 0.13949 0.0
H879 H 0.43361 0.34629 0.16313 0.0
H880 H 0.46699 0.36375 0.15575 0.0
H881 H 0.44594 0.41426 0.16532 0.0
H882 H 0.41245 0.39693 0.17273 0.0
H883 H 0.41147 0.4261 0.15566 0.0
H884 H 0.36847 0.38401 0.09302 0.0
H885 H 0.32828 0.35689 0.10781 0.0
H886 H 0.37728 0.35257 0.16012 0.0
C887 C 0.46951 0.40875 0.12493 0.0
C888 C 0.47832 0.41821 0.10684 0.0
C889 C 0.45824 0.41718 0.09172 0.0
C890 C 0.4298 0.40684 0.09439 0.0
C891 C 0.42181 0.39732 0.11226 0.0
C892 C 0.44099 0.39792 0.12729 0.0
C893 C 0.42719 0.38412 0.14462 0.0
C894 C 0.44472 0.35721 0.15112 0.0
C895 C 0.42408 0.4067 0.16052 0.0
C896 C 0.39751 0.37535 0.13682 0.0
C897 C 0.39492 0.38366 0.1182 0.0
C898 C 0.37011 0.37749 0.10762 0.0
C899 C 0.3474 0.36201 0.11618 0.0
C900 C 0.3496 0.35258 0.13512 0.0
C901 C 0.3749 0.35968 0.14566 0.0
H902 H 0.8878 0.11958 0.37402 0.0
H903 H 0.84672 0.10965 0.42867 0.0
H904 H 0.81743 0.15436 0.4228 0.0
H905 H 0.89489 0.19623 0.37551 0.0
H906 H 0.8875 0.20157 0.35083 0.0
H907 H 0.90339 0.16774 0.35883 0.0
H908 H 0.86119 0.13861 0.34322 0.0
H909 H 0.84522 0.17238 0.33509 0.0
H910 H 0.82387 0.14738 0.3491 0.0
H911 H 0.79444 0.2019 0.4113 0.0
H912 H 0.77979 0.24773 0.39516 0.0
H913 H 0.83682 0.22586 0.34845 0.0
C914 C 0.87237 0.12656 0.38467 0.0
C915 C 0.86941 0.11112 0.40176 0.0
C916 C 0.8492 0.12112 0.41542 0.0
C917 C 0.8325 0.14647 0.41221 0.0
C918 C 0.83628 0.16143 0.39527 0.0
C919 C 0.85566 0.15173 0.38172 0.0
C920 C 0.85663 0.17223 0.36502 0.0
C921 C 0.88743 0.18521 0.36241 0.0
C922 C 0.84609 0.15672 0.34705 0.0
C923 C 0.83507 0.19526 0.37137 0.0
C924 C 0.82336 0.18865 0.38879 0.0
C925 C 0.80335 0.20718 0.39761 0.0
C926 C 0.79519 0.23315 0.38836 0.0
C927 C 0.80717 0.24031 0.37058 0.0
C928 C 0.82724 0.22097 0.36203 0.0
H929 H 0.1275 0.65958 0.62537 0.0
H930 H 0.15207 0.61483 0.67683 0.0
H931 H 0.10757 0.58395 0.6744 0.0
H932 H 0.05024 0.66137 0.63457 0.0
H933 H 0.04052 0.65602 0.61023 0.0
H934 H 0.07425 0.67413 0.6162 0.0
H935 H 0.10312 0.63639 0.59625 0.0
H936 H 0.06949 0.61819 0.59021 0.0
H937 H 0.09881 0.59784 0.601 0.0
H938 H 0.06038 0.55699 0.66537 0.0
H939 H 0.01462 0.53781 0.65121 0.0
H940 H 0.0215 0.60216 0.60652 0.0
C941 C 0.1236 0.64326 0.63614 0.0
C942 C 0.14327 0.63944 0.65124 0.0
C943 C 0.13724 0.61804 0.66513 0.0
C944 C 0.11206 0.60044 0.66385 0.0
C945 C 0.09311 0.60478 0.6487 0.0
C946 C 0.09859 0.62584 0.63518 0.0
C947 C 0.07489 0.62657 0.62037 0.0
C948 C 0.05904 0.65629 0.62035 0.0
C949 C 0.08733 0.6193 0.60081 0.0
C950 C 0.05525 0.60241 0.62751 0.0
C951 C 0.06602 0.58997 0.64383 0.0
C952 C 0.0517 0.56672 0.65265 0.0
C953 C 0.02577 0.55597 0.64453 0.0
C954 C 0.01447 0.5686 0.62785 0.0
C955 C 0.02945 0.59217 0.61937 0.0
H956 H 0.59327 0.12321 0.63043 0.0
H957 H 0.65347 0.09654 0.58647 0.0
H958 H 0.68521 0.13874 0.59389 0.0
H959 H 0.59843 0.19957 0.62139 0.0
H960 H 0.59603 0.2103 0.64575 0.0
H961 H 0.57914 0.1768 0.63798 0.0
H962 H 0.60845 0.14776 0.66301 0.0
H963 H 0.62543 0.1812 0.67086 0.0
H964 H 0.64775 0.15072 0.66355 0.0
H965 H 0.70973 0.18427 0.60546 0.0
H966 H 0.72432 0.23156 0.61942 0.0
H967 H 0.64732 0.22984 0.65511 0.0
C968 C 0.61332 0.12609 0.62254 0.0
C969 C 0.62108 0.10656 0.60797 0.0
C970 C 0.64719 0.11126 0.59772 0.0
C971 C 0.66539 0.13509 0.60186 0.0
C972 C 0.65704 0.1541 0.61621 0.0
C973 C 0.63157 0.14999 0.62635 0.0
C974 C 0.62688 0.17457 0.64036 0.0
C975 C 0.59844 0.1913 0.6361 0.0
C976 C 0.62715 0.16285 0.66065 0.0
C977 C 0.65356 0.19323 0.6364 0.0
C978 C 0.67081 0.18085 0.62256 0.0
C979 C 0.69644 0.19416 0.61634 0.0
C980 C 0.70455 0.221 0.62436 0.0
C981 C 0.68694 0.23434 0.63832 0.0
C982 C 0.66122 0.22013 0.64446 0.0
H983 H 0.11667 0.33455 0.85927 0.0
H984 H 0.16346 0.40209 0.82872 0.0
H985 H 0.12079 0.43518 0.83205 0.0
H986 H 0.0432 0.35143 0.8408 0.0
H987 H 0.02608 0.34354 0.86307 0.0
H988 H 0.059 0.32455 0.85635 0.0
H989 H 0.08401 0.34146 0.88724 0.0
H990 H 0.05128 0.3605 0.89402 0.0
H991 H 0.08549 0.37999 0.89272 0.0
H992 H 0.07432 0.46246 0.84187 0.0
H993 H 0.02893 0.48076 0.85694 0.0
H994 H 0.01347 0.39442 0.88035 0.0
C995 C 0.11779 0.35611 0.85296 0.0
C996 C 0.14331 0.36576 0.84369 0.0
C997 C 0.14401 0.39422 0.83578 0.0
C998 C 0.11988 0.41313 0.8376 0.0
C999 C 0.0952 0.40308 0.84718 0.0
C1000 C 0.09399 0.37509 0.85458 0.0
C1001 C 0.06589 0.36995 0.86526 0.0
C1002 C 0.04745 0.34595 0.8558 0.0
C1003 C 0.07205 0.36256 0.88603 0.0
C1004 C 0.05173 0.39966 0.86323 0.0
C1005 C 0.06871 0.41851 0.85263 0.0
C1006 C 0.06067 0.44772 0.84994 0.0
C1007 C 0.03488 0.45794 0.85853 0.0
C1008 C 0.01761 0.43898 0.86971 0.0
C1009 C 0.02601 0.4094 0.87172 0.0
H1010 H 0.9119 0.84848 0.10959 0.0
H1011 H 0.84283 0.89095 0.07787 0.0
H1012 H 0.81207 0.84662 0.08125 0.0
H1013 H 0.90058 0.77484 0.09121 0.0
H1014 H 0.90834 0.7577 0.11351 0.0
H1015 H 0.92535 0.79206 0.10755 0.0
H1016 H 0.90495 0.8153 0.13814 0.0
H1017 H 0.88807 0.781 0.14423 0.0
H1018 H 0.86622 0.81377 0.14275 0.0
H1019 H 0.78789 0.79821 0.08983 0.0
H1020 H 0.7721 0.75098 0.10367 0.0
H1021 H 0.85763 0.7408 0.12923 0.0
C1022 C 0.8904 0.8484 0.10321 0.0
C1023 C 0.87974 0.87311 0.09344 0.0
C1024 C 0.85142 0.8722 0.0854 0.0
C1025 C 0.83385 0.8471 0.08719 0.0
C1026 C 0.84502 0.8231 0.09698 0.0
C1027 C 0.87267 0.8236 0.10484 0.0
C1028 C 0.87917 0.7956 0.1154 0.0
C1029 C 0.90488 0.77907 0.10637 0.0
C1030 C 0.88493 0.8018 0.13637 0.0
C1031 C 0.85068 0.77938 0.11256 0.0
C1032 C 0.83128 0.79542 0.10178 0.0
C1033 C 0.80304 0.78535 0.09811 0.0
C1034 C 0.79427 0.75848 0.10597 0.0
C1035 C 0.81369 0.74214 0.11741 0.0
C1036 C 0.84238 0.75259 0.12037 0.0
H1037 H 0.47706 0.60846 0.39721 0.0
H1038 H 0.47912 0.53983 0.35499 0.0
H1039 H 0.43196 0.55748 0.34227 0.0
H1040 H 0.39918 0.60608 0.40572 0.0
H1041 H 0.39609 0.64514 0.40878 0.0
H1042 H 0.42974 0.62679 0.41464 0.0
H1043 H 0.45806 0.66143 0.39222 0.0
H1044 H 0.4245 0.67985 0.38627 0.0
H1045 H 0.44691 0.66432 0.36795 0.0
H1046 H 0.38538 0.58366 0.33363 0.0
H1047 H 0.34207 0.61556 0.33018 0.0
H1048 H 0.37019 0.66642 0.3785 0.0
C1049 C 0.46755 0.59707 0.38533 0.0
C1050 C 0.48171 0.5728 0.37705 0.0
C1051 C 0.46858 0.55846 0.36154 0.0
C1052 C 0.44184 0.56833 0.35422 0.0
C1053 C 0.42852 0.59245 0.36266 0.0
C1054 C 0.44086 0.60654 0.37793 0.0
C1055 C 0.4222 0.63202 0.38437 0.0
C1056 C 0.41115 0.6272 0.40457 0.0
C1057 C 0.43892 0.66112 0.38258 0.0
C1058 C 0.39747 0.63019 0.37027 0.0
C1059 C 0.40155 0.60725 0.35785 0.0
C1060 C 0.38188 0.60158 0.34333 0.0
C1061 C 0.3574 0.61984 0.34147 0.0
C1062 C 0.35276 0.64337 0.35411 0.0
C1063 C 0.37307 0.64849 0.3687 0.0
H1064 H 0.39999 0.10686 0.13169 0.0
H1065 H 0.36713 0.09196 0.07523 0.0
H1066 H 0.33421 0.13476 0.07858 0.0
H1067 H 0.3319 0.13159 0.15269 0.0
H1068 H 0.34987 0.1587 0.16705 0.0
H1069 H 0.36892 0.1257 0.16053 0.0
H1070 H 0.41085 0.15679 0.14623 0.0
H1071 H 0.39191 0.18985 0.15264 0.0
H1072 H 0.40247 0.1838 0.12852 0.0
H1073 H 0.30572 0.18055 0.08819 0.0
H1074 H 0.28608 0.22594 0.10269 0.0
H1075 H 0.33982 0.21066 0.15202 0.0
C1076 C 0.38559 0.11233 0.12011 0.0
C1077 C 0.38589 0.09604 0.10326 0.0
C1078 C 0.3671 0.10416 0.0883 0.0
C1079 C 0.34832 0.12837 0.09009 0.0
C1080 C 0.3488 0.14419 0.10688 0.0
C1081 C 0.36705 0.13647 0.12158 0.0
C1082 C 0.36475 0.15779 0.13776 0.0
C1083 C 0.35316 0.14253 0.15555 0.0
C1084 C 0.39424 0.17295 0.14149 0.0
C1085 C 0.34255 0.17894 0.12984 0.0
C1086 C 0.33328 0.17068 0.11211 0.0
C1087 C 0.31283 0.18718 0.10208 0.0
C1088 C 0.30179 0.21286 0.11039 0.0
C1089 C 0.31158 0.22181 0.12839 0.0
C1090 C 0.33206 0.20447 0.13818 0.0
H1091 H 0.51532 0.56721 0.86114 0.0
H1092 H 0.53901 0.53459 0.91627 0.0
H1093 H 0.59079 0.5467 0.91015 0.0
H1094 H 0.58581 0.5468 0.83605 0.0
H1095 H 0.58548 0.58024 0.82257 0.0
H1096 H 0.5515 0.56335 0.8295 0.0
H1097 H 0.5354 0.61181 0.84535 0.0
H1098 H 0.56929 0.62874 0.83861 0.0
H1099 H 0.55852 0.62817 0.86301 0.0
H1100 H 0.63734 0.56918 0.90063 0.0
H1101 H 0.67641 0.60102 0.88834 0.0
H1102 H 0.62375 0.62017 0.83909 0.0
C1103 C 0.53176 0.56154 0.87149 0.0
C1104 C 0.52367 0.54927 0.88895 0.0
C1105 C 0.54518 0.54339 0.90267 0.0
C1106 C 0.57456 0.55016 0.8993 0.0
C1107 C 0.58194 0.56299 0.88215 0.0
C1108 C 0.56124 0.56855 0.86839 0.0
C1109 C 0.57441 0.586 0.85229 0.0
C1110 C 0.5743 0.56801 0.83402 0.0
C1111 C 0.55846 0.61541 0.84968 0.0
C1112 C 0.60531 0.59042 0.85954 0.0
C1113 C 0.60922 0.57649 0.87664 0.0
C1114 C 0.63482 0.57962 0.88705 0.0
C1115 C 0.65683 0.59784 0.88 0.0
C1116 C 0.65317 0.61272 0.86269 0.0
C1117 C 0.62736 0.60842 0.85213 0.0
H1118 H 0.15583 0.78125 0.6543 0.0
H1119 H 0.20608 0.76685 0.60335 0.0
H1120 H 0.18505 0.81194 0.58955 0.0
H1121 H 0.09113 0.80855 0.6321 0.0
H1122 H 0.0838 0.83527 0.65015 0.0
H1123 H 0.10298 0.80203 0.65593 0.0
H1124 H 0.14587 0.83245 0.66961 0.0
H1125 H 0.12682 0.86579 0.66388 0.0
H1126 H 0.16331 0.85976 0.65513 0.0
H1127 H 0.15749 0.85823 0.58117 0.0
H1128 H 0.12653 0.90257 0.57915 0.0
H1129 H 0.0954 0.88678 0.63593 0.0
C1130 C 0.16244 0.78757 0.64024 0.0
C1131 C 0.18253 0.77056 0.62985 0.0
C1132 C 0.1907 0.77961 0.61153 0.0
C1133 C 0.17887 0.80515 0.60359 0.0
C1134 C 0.15904 0.82142 0.61421 0.0
C1135 C 0.15098 0.81302 0.63216 0.0
C1136 C 0.12937 0.83432 0.64068 0.0
C1137 C 0.10009 0.81913 0.64496 0.0
C1138 C 0.14211 0.84895 0.65837 0.0
C1139 C 0.12638 0.85598 0.62468 0.0
C1140 C 0.1436 0.84816 0.60951 0.0
C1141 C 0.14402 0.86462 0.59299 0.0
C1142 C 0.12637 0.88973 0.59197 0.0
C1143 C 0.10868 0.89814 0.6074 0.0
C1144 C 0.10883 0.88101 0.62394 0.0
H1145 H 0.97671 0.40583 0.40194 0.0
H1146 H 0.98609 0.47399 0.35982 0.0
H1147 H 0.94107 0.45647 0.34407 0.0
H1148 H 0.95121 0.34985 0.37087 0.0
H1149 H 0.92601 0.33452 0.3877 0.0
H1150 H 0.95857 0.35283 0.39572 0.0
H1151 H 0.9271 0.38773 0.41615 0.0
H1152 H 0.89443 0.36949 0.40822 0.0
H1153 H 0.89816 0.40852 0.40527 0.0
H1154 H 0.89515 0.43073 0.33274 0.0
H1155 H 0.85193 0.39932 0.32701 0.0
H1156 H 0.87317 0.34838 0.37672 0.0
C1157 C 0.96926 0.41717 0.38944 0.0
C1158 C 0.98484 0.44129 0.3821 0.0
C1159 C 0.97442 0.45548 0.36569 0.0
C1160 C 0.94891 0.44568 0.35665 0.0
C1161 C 0.93412 0.42171 0.36423 0.0
C1162 C 0.94392 0.4077 0.38028 0.0
C1163 C 0.92424 0.38235 0.38555 0.0
C1164 C 0.94101 0.35317 0.38492 0.0
C1165 C 0.91015 0.38734 0.40494 0.0
C1166 C 0.90183 0.3842 0.36994 0.0
C1167 C 0.90786 0.40702 0.35777 0.0
C1168 C 0.8902 0.41284 0.34221 0.0
C1169 C 0.86574 0.39489 0.33906 0.0
C1170 C 0.85921 0.37145 0.35142 0.0
C1171 C 0.87757 0.36615 0.36703 0.0
H1172 H 0.33148 0.76646 0.38887 0.0
H1173 H 0.26595 0.8022 0.35113 0.0
H1174 H 0.28306 0.85212 0.35831 0.0
H1175 H 0.32909 0.82757 0.424 0.0
H1176 H 0.368 0.826 0.42792 0.0
H1177 H 0.3482 0.79322 0.42178 0.0
H1178 H 0.38308 0.78499 0.39356 0.0
H1179 H 0.40281 0.81778 0.3995 0.0
H1180 H 0.38747 0.81359 0.37629 0.0
H1181 H 0.31114 0.897 0.36583 0.0
H1182 H 0.34695 0.93488 0.37487 0.0
H1183 H 0.39358 0.87127 0.40884 0.0
C1184 C 0.32024 0.78486 0.38254 0.0
C1185 C 0.29729 0.78048 0.36951 0.0
C1186 C 0.28348 0.80505 0.36121 0.0
C1187 C 0.29302 0.83351 0.36522 0.0
C1188 C 0.31622 0.83708 0.37769 0.0
C1189 C 0.32946 0.81352 0.38644 0.0
C1190 C 0.35526 0.82342 0.39828 0.0
C1191 C 0.3498 0.81719 0.41924 0.0
C1192 C 0.38383 0.80909 0.39149 0.0
C1193 C 0.355 0.85605 0.39428 0.0
C1194 C 0.33217 0.8634 0.38244 0.0
C1195 C 0.32873 0.89167 0.37542 0.0
C1196 C 0.34923 0.91298 0.38055 0.0
C1197 C 0.37274 0.90601 0.3927 0.0
C1198 C 0.3754 0.87728 0.39987 0.0
H1199 H 0.99173 0.59009 0.13256 0.0
H1200 H 0.9609 0.50474 0.11455 0.0
H1201 H 0.91068 0.51805 0.12427 0.0
H1202 H 0.94303 0.59617 0.1739 0.0
H1203 H 0.93802 0.635 0.17067 0.0
H1204 H 0.97175 0.61788 0.16355 0.0
H1205 H 0.96516 0.63861 0.12986 0.0
H1206 H 0.93147 0.65575 0.13686 0.0
H1207 H 0.93192 0.63093 0.11714 0.0
H1208 H 0.86325 0.54304 0.13217 0.0
H1209 H 0.82248 0.57666 0.13973 0.0
H1210 H 0.8847 0.64423 0.15492 0.0
C1211 C 0.97446 0.57407 0.13091 0.0
C1212 C 0.98007 0.54642 0.12278 0.0
C1213 C 0.957 0.526 0.12082 0.0
C1214 C 0.92846 0.53336 0.1263 0.0
C1215 C 0.92356 0.561 0.13404 0.0
C1216 C 0.946 0.58087 0.13661 0.0
C1217 C 0.93482 0.60943 0.1447 0.0
C1218 C 0.94767 0.61493 0.16438 0.0
C1219 C 0.94122 0.63518 0.13134 0.0
C1220 C 0.90242 0.60289 0.14573 0.0
C1221 C 0.89636 0.57484 0.1395 0.0
C1222 C 0.86776 0.56478 0.13749 0.0
C1223 C 0.84478 0.58399 0.14177 0.0
C1224 C 0.85059 0.61271 0.14823 0.0
C1225 C 0.87976 0.62206 0.15054 0.0
H1226 H 0.17399 0.21651 0.84684 0.0
H1227 H 0.21014 0.24559 0.90009 0.0
H1228 H 0.19071 0.20094 0.91552 0.0
H1229 H 0.10827 0.18776 0.86465 0.0
H1230 H 0.10714 0.15714 0.84866 0.0
H1231 H 0.12534 0.19042 0.84185 0.0
H1232 H 0.17293 0.16132 0.8353 0.0
H1233 H 0.15484 0.12789 0.84205 0.0
H1234 H 0.18828 0.13863 0.85356 0.0
H1235 H 0.16379 0.15437 0.92537 0.0
H1236 H 0.13376 0.10939 0.9284 0.0
H1237 H 0.11721 0.11103 0.8683 0.0
C1238 C 0.1781 0.21338 0.86172 0.0
C1239 C 0.19353 0.23447 0.8723 0.0
C1240 C 0.19843 0.2296 0.89173 0.0
C1241 C 0.18746 0.20435 0.90059 0.0
C1242 C 0.17195 0.18413 0.88976 0.0
C1243 C 0.16756 0.18831 0.8707 0.0
C1244 C 0.14969 0.16379 0.86221 0.0
C1245 C 0.12091 0.17549 0.85386 0.0
C1246 C 0.16751 0.14691 0.84741 0.0
C1247 C 0.14423 0.14532 0.8795 0.0
C1248 C 0.15719 0.15731 0.89529 0.0
C1249 C 0.15386 0.14464 0.91304 0.0
C1250 C 0.13676 0.11915 0.91465 0.0
C1251 C 0.12339 0.10663 0.89857 0.0
C1252 C 0.12746 0.11986 0.88082 0.0
H1253 H 0.51371 0.43599 0.63198 0.0
H1254 H 0.52375 0.42341 0.57177 0.0
H1255 H 0.57213 0.40147 0.57686 0.0
H1256 H 0.59121 0.45166 0.64236 0.0
H1257 H 0.59114 0.43132 0.6641 0.0
H1258 H 0.55805 0.44859 0.65592 0.0
H1259 H 0.5311 0.39876 0.6575 0.0
H1260 H 0.56408 0.38136 0.66566 0.0
H1261 H 0.54579 0.36776 0.64495 0.0
H1262 H 0.61777 0.37932 0.58781 0.0
H1263 H 0.65848 0.35564 0.60445 0.0
H1264 H 0.61997 0.38003 0.65808 0.0
C1265 C 0.52638 0.42896 0.61993 0.0
C1266 C 0.51508 0.43148 0.60147 0.0
C1267 C 0.53196 0.4216 0.58602 0.0
C1268 C 0.55954 0.40923 0.58875 0.0
C1269 C 0.56997 0.40665 0.60704 0.0
C1270 C 0.55402 0.41603 0.62242 0.0
C1271 C 0.56994 0.40871 0.64061 0.0
C1272 C 0.57807 0.43675 0.65138 0.0
C1273 C 0.55163 0.38791 0.6529 0.0
C1274 C 0.59699 0.3935 0.63294 0.0
C1275 C 0.59654 0.39296 0.61351 0.0
C1276 C 0.61852 0.37968 0.60303 0.0
C1277 C 0.64156 0.36625 0.61263 0.0
C1278 C 0.64244 0.36599 0.63255 0.0
C1279 C 0.61994 0.38004 0.64284 0.0
H1280 H 0.28938 0.27117 0.22189 0.0
H1281 H 0.22108 0.23168 0.18786 0.0
H1282 H 0.20399 0.2037 0.21535 0.0
H1283 H 0.30475 0.20642 0.2505 0.0
H1284 H 0.31058 0.22721 0.27174 0.0
H1285 H 0.31855 0.24334 0.24916 0.0
H1286 H 0.28406 0.28679 0.25678 0.0
H1287 H 0.27615 0.27089 0.27939 0.0
H1288 H 0.24673 0.27952 0.26344 0.0
H1289 H 0.19262 0.1818 0.24656 0.0
H1290 H 0.18709 0.16823 0.28001 0.0
H1291 H 0.26298 0.22101 0.29397 0.0
C1292 C 0.27095 0.25651 0.22024 0.0
C1293 C 0.25658 0.25359 0.20274 0.0
C1294 C 0.23245 0.23427 0.20113 0.0
C1295 C 0.22261 0.21819 0.21664 0.0
C1296 C 0.23719 0.22152 0.23368 0.0
C1297 C 0.26082 0.24018 0.23562 0.0
C1298 C 0.27185 0.24039 0.25574 0.0
C1299 C 0.3033 0.22864 0.25684 0.0
C1300 C 0.26954 0.27123 0.26434 0.0
C1301 C 0.25041 0.21937 0.2648 0.0
C1302 C 0.23073 0.2086 0.25177 0.0
C1303 C 0.20806 0.18983 0.25688 0.0
C1304 C 0.2051 0.18224 0.27589 0.0
C1305 C 0.22472 0.19338 0.28952 0.0
C1306 C 0.24791 0.21181 0.28381 0.0
H1307 H 0.0334 0.97147 0.53625 0.0
H1308 H 0.00303 0.04595 0.56878 0.0
H1309 H 0.97813 0.06552 0.54067 0.0
H1310 H 0.04615 0.01134 0.49254 0.0
H1311 H 0.03363 0.98164 0.47789 0.0
H1312 H 0.05003 0.97401 0.50042 0.0
H1313 H 0.00398 0.94468 0.51021 0.0
H1314 H 0.98737 0.95235 0.48776 0.0
H1315 H 0.96862 0.96205 0.50918 0.0
H1316 H 0.95478 0.07597 0.5096 0.0
H1317 H 0.93584 0.07752 0.47708 0.0
H1318 H 0.98167 0.99662 0.46447 0.0
C1319 C 0.02175 0.99203 0.53739 0.0
C1320 C 0.02017 0.00723 0.55468 0.0
C1321 C 0.00456 0.03397 0.55566 0.0
C1322 C 0.99033 0.04526 0.53979 0.0
C1323 C 0.99199 0.0296 0.52301 0.0
C1324 C 0.00742 0.00366 0.52165 0.0
C1325 C 0.00529 0.99094 0.502 0.0
C1326 C 0.03558 0.9894 0.49266 0.0
C1327 C 0.99043 0.96072 0.50232 0.0
C1328 C 0.98606 0.01366 0.49261 0.0
C1329 C 0.97864 0.03576 0.505 0.0
C1330 C 0.96056 0.05889 0.49973 0.0
C1331 C 0.94986 0.05954 0.48125 0.0
C1332 C 0.95733 0.03723 0.46827 0.0
C1333 C 0.97569 0.01404 0.47407 0.0
H1334 H 0.22318 0.71673 0.72087 0.0
H1335 H 0.28292 0.76195 0.68334 0.0
H1336 H 0.30004 0.79247 0.7098 0.0
H1337 H 0.20326 0.77907 0.74873 0.0
H1338 H 0.20205 0.75909 0.77059 0.0
H1339 H 0.19445 0.74059 0.74875 0.0
H1340 H 0.23509 0.70264 0.75592 0.0
H1341 H 0.24261 0.72086 0.77787 0.0
H1342 H 0.27159 0.71522 0.76107 0.0
H1343 H 0.31 0.81874 0.74013 0.0
H1344 H 0.31464 0.83656 0.77283 0.0
H1345 H 0.24902 0.77378 0.79071 0.0
C1346 C 0.23997 0.73295 0.71826 0.0
C1347 C 0.25173 0.73699 0.70006 0.0
C1348 C 0.27366 0.75843 0.69718 0.0
C1349 C 0.28345 0.77596 0.7121 0.0
C1350 C 0.27116 0.77169 0.72981 0.0
C1351 C 0.25011 0.75055 0.73301 0.0
C1352 C 0.24083 0.75014 0.75347 0.0
C1353 C 0.20821 0.75768 0.75549 0.0
C1354 C 0.24797 0.72045 0.76262 0.0
C1355 C 0.25998 0.77433 0.76126 0.0
C1356 C 0.27716 0.78661 0.74736 0.0
C1357 C 0.29669 0.80928 0.75115 0.0
C1358 C 0.2991 0.81932 0.76974 0.0
C1359 C 0.28217 0.80658 0.78427 0.0
C1360 C 0.26217 0.78401 0.77988 0.0
H1361 H 0.50156 0.98383 0.04624 0.0
H1362 H 0.48146 0.07622 0.03996 0.0
H1363 H 0.50494 0.07614 0.00866 0.0
H1364 H 0.57237 0.98539 0.02223 0.0
H1365 H 0.56682 0.95025 0.01124 0.0
H1366 H 0.55026 0.95801 0.0337 0.0
H1367 H 0.49929 0.94518 0.02005 0.0
H1368 H 0.51568 0.93734 0.99759 0.0
H1369 H 0.48657 0.96382 0.99923 0.0
H1370 H 0.52779 0.06545 0.97753 0.0
H1371 H 0.54777 0.04473 0.94819 0.0
H1372 H 0.55329 0.95919 0.97462 0.0
C1373 C 0.50239 0.00412 0.03836 0.0
C1374 C 0.4898 0.03008 0.04551 0.0
C1375 C 0.49104 0.05612 0.03474 0.0
C1376 C 0.5044 0.0563 0.01699 0.0
C1377 C 0.51644 0.03029 0.01028 0.0
C1378 C 0.51559 0.00468 0.02062 0.0
C1379 C 0.5289 0.9794 0.00978 0.0
C1380 C 0.55621 0.96758 0.01984 0.0
C1381 C 0.50626 0.95501 0.00647 0.0
C1382 C 0.53689 0.9947 0.99159 0.0
C1383 C 0.52971 0.0241 0.99226 0.0
C1384 C 0.53377 0.04254 0.97689 0.0
C1385 C 0.5451 0.03055 0.96029 0.0
C1386 C 0.5522 1.0004 0.95919 0.0
C1387 C 0.54841 0.98239 0.97515 0.0
H1388 H 0.22978 0.72867 0.2902 0.0
H1389 H 0.32309 0.71292 0.28584 0.0
H1390 H 0.3225 0.73129 0.25316 0.0
H1391 H 0.21089 0.70923 0.24198 0.0
H1392 H 0.18395 0.73783 0.23981 0.0
H1393 H 0.19141 0.72186 0.26249 0.0
H1394 H 0.20253 0.77342 0.27593 0.0
H1395 H 0.19533 0.78953 0.25327 0.0
H1396 H 0.22989 0.79591 0.26476 0.0
H1397 H 0.3121 0.75199 0.22133 0.0
H1398 H 0.29259 0.77413 0.19224 0.0
H1399 H 0.20632 0.7784 0.21752 0.0
C1400 C 0.24998 0.72873 0.28226 0.0
C1401 C 0.27646 0.7192 0.29045 0.0
C1402 C 0.30256 0.72006 0.27977 0.0
C1403 C 0.30245 0.73044 0.26122 0.0
C1404 C 0.27608 0.74009 0.25362 0.0
C1405 C 0.25032 0.73937 0.26377 0.0
C1406 C 0.22521 0.75207 0.25248 0.0
C1407 C 0.20147 0.72886 0.24898 0.0
C1408 C 0.2125 0.77935 0.26219 0.0
C1409 C 0.24093 0.76008 0.23443 0.0
C1410 C 0.27022 0.75281 0.23538 0.0
C1411 C 0.28921 0.75781 0.22041 0.0
C1412 C 0.27794 0.77042 0.20397 0.0
C1413 C 0.24801 0.77809 0.20268 0.0
C1414 C 0.22935 0.77297 0.21818 0.0
H1415 H 0.45722 0.96736 0.47145 0.0
H1416 H 0.51208 0.02083 0.43528 0.0
H1417 H 0.54313 0.03342 0.46236 0.0
H1418 H 0.45974 0.01536 0.51143 0.0
H1419 H 0.46078 0.98621 0.52852 0.0
H1420 H 0.44322 0.98046 0.50615 0.0
H1421 H 0.47639 0.9354 0.50018 0.0
H1422 H 0.4942 0.94116 0.5225 0.0
H1423 H 0.51556 0.93955 0.50121 0.0
H1424 H 0.56767 0.04129 0.49301 0.0
H1425 H 0.5831 0.04577 0.52613 0.0
H1426 H 0.51287 0.98739 0.54294 0.0
C1427 C 0.47579 0.98167 0.46927 0.0
C1428 C 0.48224 0.99309 0.45126 0.0
C1429 C 0.50668 0.01183 0.44895 0.0
C1430 C 0.52455 0.01904 0.46423 0.0
C1431 C 0.51773 0.00736 0.48176 0.0
C1432 C 0.49391 0.9892 0.48444 0.0
C1433 C 0.49111 0.98045 0.50495 0.0
C1434 C 0.46199 0.99127 0.51325 0.0
C1435 C 0.49453 0.94716 0.50734 0.0
C1436 C 0.51691 0.99676 0.51332 0.0
C1437 C 0.53203 0.01196 0.49963 0.0
C1438 C 0.55613 0.02938 0.50388 0.0
C1439 C 0.56474 0.03176 0.52272 0.0
C1440 C 0.54928 0.01682 0.53706 0.0
C1441 C 0.52531 0.99877 0.53223 0.0
H1442 H 0.21984 0.29191 0.77867 0.0
H1443 H 0.29069 0.256 0.81211 0.0
H1444 H 0.30954 0.23017 0.78408 0.0
H1445 H 0.20718 0.22811 0.75079 0.0
H1446 H 0.19948 0.24819 0.72952 0.0
H1447 H 0.19202 0.2645 0.75208 0.0
H1448 H 0.22445 0.30906 0.74342 0.0
H1449 H 0.23187 0.29296 0.72078 0.0
H1450 H 0.26169 0.30311 0.73603 0.0
H1451 H 0.32004 0.20736 0.75244 0.0
H1452 H 0.3221 0.19051 0.71937 0.0
H1453 H 0.24435 0.24136 0.70681 0.0
C1454 C 0.23944 0.27878 0.78007 0.0
C1455 C 0.25385 0.276 0.79755 0.0
C1456 C 0.27934 0.25849 0.79883 0.0
C1457 C 0.29019 0.2437 0.783 0.0
C1458 C 0.2753 0.24667 0.766 0.0
C1459 C 0.25055 0.26387 0.76442 0.0
C1460 C 0.23849 0.26321 0.74458 0.0
C1461 C 0.20746 0.25022 0.74424 0.0
C1462 C 0.23918 0.29391 0.73568 0.0
C1463 C 0.26027 0.2429 0.73527 0.0
C1464 C 0.28133 0.23356 0.74785 0.0
C1465 C 0.30369 0.21457 0.74246 0.0
C1466 C 0.30465 0.20508 0.72367 0.0
C1467 C 0.28339 0.21461 0.71055 0.0
C1468 C 0.2609 0.23367 0.71652 0.0
H1469 H 0.04032 0.03164 0.96921 0.0
H1470 H 0.99175 0.97559 0.93101 0.0
H1471 H 0.96281 0.95673 0.95766 0.0
H1472 H 0.04423 0.98034 0.0073 0.0
H1473 H 0.03987 0.0076 0.02543 0.0
H1474 H 0.05631 0.0174 0.00329 0.0
H1475 H 0.01787 0.05852 0.99889 0.0
H1476 H 0.00126 0.0488 0.02102 0.0
H1477 H 0.97951 0.04956 -0.00013 0.0
H1478 H 0.93981 0.94318 0.98826 0.0
H1479 H 0.92454 0.93523 0.02116 0.0
H1480 H 0.98778 0.99996 0.03977 0.0
C1481 C 0.02352 0.01548 0.96647 0.0
C1482 C 0.01826 0.00509 0.94804 0.0
C1483 C 0.99617 0.98386 0.94501 0.0
C1484 C 0.97957 0.97304 0.96005 0.0
C1485 C 0.98531 0.98368 0.97803 0.0
C1486 C 0.00674 0.00439 0.98135 0.0
C1487 C 0.00877 0.01168 0.00213 0.0
C1488 C 0.0391 0.00377 0.01 0.0
C1489 C 0.00141 0.04406 0.00568 0.0
C1490 C 0.98528 0.99168 0.00995 0.0
C1491 C 0.97197 0.97581 0.99578 0.0
C1492 C 0.94997 0.95554 0.99949 0.0
C1493 C 0.94146 0.95118 0.01822 0.0
C1494 C 0.95492 0.96702 0.033 0.0
C1495 C 0.97699 0.98766 0.02875 0.0
H1496 H 0.73949 0.74728 0.70831 0.0
H1497 H 0.80436 0.81225 0.72403 0.0
H1498 H 0.80281 0.79454 0.75682 0.0
H1499 H 0.69667 0.75244 0.75065 0.0
H1500 H 0.68859 0.71383 0.75157 0.0
H1501 H 0.6951 0.73131 0.72924 0.0
H1502 H 0.7361 0.69378 0.72208 0.0
H1503 H 0.72984 0.67629 0.74445 0.0
H1504 H 0.76583 0.68943 0.7385 0.0
H1505 H 0.79422 0.77034 0.78769 0.0
H1506 H 0.77766 0.74235 0.81532 0.0
H1507 H 0.71817 0.69275 0.77993 0.0
C1508 C 0.75333 0.75779 0.71868 0.0
C1509 C 0.77206 0.78115 0.71366 0.0
C1510 C 0.78982 0.79436 0.72759 0.0
C1511 C 0.78917 0.7844 0.74623 0.0
C1512 C 0.77062 0.76123 0.75069 0.0
C1513 C 0.75291 0.74814 0.73738 0.0
C1514 C 0.73461 0.72394 0.74604 0.0
C1515 C 0.7018 0.7308 0.74427 0.0
C1516 C 0.74205 0.6941 0.73724 0.0
C1517 C 0.74472 0.72559 0.76632 0.0
C1518 C 0.7656 0.74719 0.76862 0.0
C1519 C 0.77794 0.75333 0.78607 0.0
C1520 C 0.76838 0.73728 0.80168 0.0
C1521 C 0.74668 0.71534 0.79976 0.0
C1522 C 0.73495 0.70923 0.78179 0.0
H1523 H 0.72169 0.20161 0.22238 0.0
H1524 H 0.77584 0.25304 0.18465 0.0
H1525 H 0.79203 0.2835 0.2114 0.0
H1526 H 0.69858 0.26132 0.25179 0.0
H1527 H 0.69969 0.24021 0.27321 0.0
H1528 H 0.69243 0.22234 0.25111 0.0
H1529 H 0.73585 0.18698 0.25688 0.0
H1530 H 0.74317 0.20468 0.27902 0.0
H1531 H 0.77164 0.2018 0.26159 0.0
H1532 H 0.80223 0.3085 0.24227 0.0
H1533 H 0.80629 0.32561 0.2752 0.0
H1534 H 0.74554 0.25786 0.2927 0.0
C1535 C 0.73699 0.21925 0.21976 0.0
C1536 C 0.74753 0.22497 0.20144 0.0
C1537 C 0.76751 0.24825 0.19858 0.0
C1538 C 0.77681 0.2657 0.21367 0.0
C1539 C 0.76594 0.25957 0.23155 0.0
C1540 C 0.74652 0.23687 0.23467 0.0
C1541 C 0.73824 0.23485 0.25527 0.0
C1542 C 0.70528 0.23999 0.258 0.0
C1543 C 0.74781 0.20533 0.26368 0.0
C1544 C 0.75603 0.25993 0.26322 0.0
C1545 C 0.77183 0.27395 0.24931 0.0
C1546 C 0.78995 0.29771 0.25329 0.0
C1547 C 0.7921 0.30729 0.27201 0.0
C1548 C 0.77622 0.2931 0.28647 0.0
C1549 C 0.75791 0.26919 0.28194 0.0
H1550 H 0.7911 0.22251 0.78179 0.0
H1551 H 0.72175 0.25803 0.81667 0.0
H1552 H 0.70173 0.28426 0.78919 0.0
H1553 H 0.80192 0.28672 0.7531 0.0
H1554 H 0.80825 0.26629 0.73178 0.0
H1555 H 0.81741 0.25045 0.75424 0.0
H1556 H 0.78475 0.20552 0.74683 0.0
H1557 H 0.77561 0.22116 0.72432 0.0
H1558 H 0.74698 0.21109 0.74051 0.0
H1559 H 0.68922 0.30675 0.75801 0.0
H1560 H 0.68406 0.32234 0.72485 0.0
H1561 H 0.76115 0.27183 0.7102 0.0
C1562 C 0.77171 0.2358 0.78362 0.0
C1563 C 0.75798 0.23826 0.80135 0.0
C1564 C 0.7326 0.25581 0.8032 0.0
C1565 C 0.72109 0.27086 0.78769 0.0
C1566 C 0.73518 0.26809 0.77042 0.0
C1567 C 0.75984 0.25091 0.76826 0.0
C1568 C 0.77047 0.25129 0.74808 0.0
C1569 C 0.80134 0.26448 0.74673 0.0
C1570 C 0.76937 0.22043 0.73943 0.0
C1571 C 0.7479 0.27131 0.73925 0.0
C1572 C 0.72782 0.28087 0.7524 0.0
C1573 C 0.70481 0.29942 0.74757 0.0
C1574 C 0.70209 0.3082 0.72873 0.0
C1575 C 0.7222 0.29833 0.71499 0.0
C1576 C 0.74548 0.2798 0.72041 0.0
H1577 H 0.76222 0.76344 0.28864 0.0
H1578 H 0.72187 0.84273 0.26718 0.0
H1579 H 0.72989 0.82553 0.23469 0.0
H1580 H 0.81729 0.75522 0.25072 0.0
H1581 H 0.81388 0.71589 0.25041 0.0
H1582 H 0.80783 0.7358 0.27196 0.0
H1583 H 0.75661 0.71203 0.27496 0.0
H1584 H 0.76234 0.69232 0.25334 0.0
H1585 H 0.73083 0.71568 0.25592 0.0
H1586 H 0.73784 0.79822 0.20496 0.0
H1587 H 0.74754 0.76329 0.17931 0.0
H1588 H 0.78304 0.70129 0.21962 0.0
C1589 C 0.75575 0.77748 0.27708 0.0
C1590 C 0.7416 0.80451 0.28039 0.0
C1591 C 0.73287 0.82201 0.26494 0.0
C1592 C 0.73732 0.81243 0.24644 0.0
C1593 C 0.75059 0.78534 0.24365 0.0
C1594 C 0.75994 0.76817 0.25849 0.0
C1595 C 0.7721 0.73921 0.25156 0.0
C1596 C 0.80472 0.73637 0.25645 0.0
C1597 C 0.75441 0.71329 0.25941 0.0
C1598 C 0.76759 0.74259 0.23054 0.0
C1599 C 0.75524 0.76944 0.22633 0.0
C1600 C 0.74782 0.77727 0.20803 0.0
C1601 C 0.75329 0.7572 0.19357 0.0
C1602 C 0.7661 0.72961 0.19748 0.0
C1603 C 0.77341 0.72229 0.21622 0.0
H1604 H 0.54104 0.45795 0.02674 0.0
H1605 H 0.51459 0.53037 0.06243 0.0
H1606 H 0.48893 0.55305 0.03554 0.0
H1607 H 0.55247 0.50074 0.98402 0.0
H1608 H 0.53824 0.47245 0.96888 0.0
H1609 H 0.55575 0.4628 0.99073 0.0
H1610 H 0.50946 0.43404 0.00079 0.0
H1611 H 0.49171 0.44383 0.97907 0.0
H1612 H 0.4746 0.45245 0.00123 0.0
H1613 H 0.4647 0.56701 0.00501 0.0
H1614 H 0.44481 0.57179 0.97279 0.0
H1615 H 0.48651 0.48992 0.95725 0.0
C1616 C 0.53019 0.47878 0.02883 0.0
C1617 C 0.52991 0.49248 0.04664 0.0
C1618 C 0.51516 0.51954 0.04888 0.0
C1619 C 0.5005 0.53258 0.0337 0.0
C1620 C 0.50076 0.51826 0.01639 0.0
C1621 C 0.51534 0.49204 0.01385 0.0
C1622 C 0.51164 0.4808 0.99394 0.0
C1623 C 0.54129 0.47911 0.9838 0.0
C1624 C 0.49592 0.45102 0.99376 0.0
C1625 C 0.49255 0.5047 0.98573 0.0
C1626 C 0.48657 0.52615 0.99889 0.0
C1627 C 0.46929 0.55038 0.99457 0.0
C1628 C 0.45803 0.55288 0.97627 0.0
C1629 C 0.46404 0.53121 0.96256 0.0
C1630 C 0.48143 0.50679 0.96745 0.0
H1631 H 0.00875 0.50981 0.46035 0.0
H1632 H 0.07696 0.44782 0.47505 0.0
H1633 H 0.06394 0.45288 0.50866 0.0
H1634 H 0.01812 0.55747 0.50059 0.0
H1635 H 0.97954 0.56455 0.50303 0.0
H1636 H 0.99465 0.55643 0.48021 0.0
H1637 H 0.95786 0.51369 0.47634 0.0
H1638 H 0.94267 0.52163 0.49915 0.0
H1639 H 0.95625 0.48544 0.49404 0.0
H1640 H 0.04262 0.46377 0.54052 0.0
H1641 H 0.01512 0.48029 0.56847 0.0
H1642 H 0.96106 0.53549 0.53294 0.0
C1643 C 0.02105 0.4974 0.47065 0.0
C1644 C 0.04388 0.47842 0.46512 0.0
C1645 C 0.05941 0.46251 0.479 0.0
C1646 C 0.05217 0.46523 0.4981 0.0
C1647 C 0.02941 0.48401 0.50307 0.0
C1648 C 0.01414 0.49989 0.48975 0.0
C1649 C 0.99044 0.51833 0.49876 0.0
C1650 C 0.99604 0.55114 0.49545 0.0
C1651 C 0.96001 0.50921 0.49165 0.0
C1652 C 0.99465 0.51022 0.51924 0.0
C1653 C 0.01724 0.4904 0.52142 0.0
C1654 C 0.02496 0.47936 0.539 0.0
C1655 C 0.00919 0.48884 0.55478 0.0
C1656 C 0.98599 0.50919 0.55287 0.0
C1657 C 0.97874 0.52 0.53484 0.0
H1658 H 0.01104 0.48641 0.0473 0.0
H1659 H 0.07349 0.55581 0.03605 0.0
H1660 H 0.06296 0.55197 0.00206 0.0
H1661 H 0.02616 0.44291 0.00605 0.0
H1662 H 0.98848 0.43293 0.00229 0.0
H1663 H 0.00141 0.44057 0.02573 0.0
H1664 H 0.9611 0.47995 0.02976 0.0
H1665 H 0.94801 0.47238 0.00636 0.0
H1666 H 0.95825 0.50917 0.01279 0.0
H1667 H 0.04616 0.54036 0.96944 0.0
H1668 H 0.02216 0.52361 0.94026 0.0
H1669 H 0.96926 0.46288 0.97267 0.0
C1670 C 0.02255 0.50071 0.03766 0.0
C1671 C 0.04317 0.52133 0.04425 0.0
C1672 C 0.05761 0.53987 0.03126 0.0
C1673 C 0.05183 0.5378 0.01194 0.0
C1674 C 0.03142 0.51723 0.00588 0.0
C1675 C 0.01682 0.49914 0.01833 0.0
C1676 C 0.99529 0.47951 0.00815 0.0
C1677 C 0.00333 0.44706 0.01071 0.0
C1678 C 0.9638 0.48563 0.01465 0.0
C1679 C 1.00008 0.4894 0.98804 0.0
C1680 C 0.02118 0.51101 0.98706 0.0
C1681 C 0.02956 0.5235 0.97002 0.0
C1682 C 0.01585 0.5138 0.95353 0.0
C1683 C 0.99384 0.492 0.95423 0.0
C1684 C 0.98597 0.47962 0.97172 0.0
H1685 H 0.51067 0.49862 0.44855 0.0
H1686 H 0.56854 0.56969 0.46459 0.0
H1687 H 0.55135 0.56559 0.49749 0.0
H1688 H 0.45092 0.51885 0.47811 0.0
H1689 H 0.44102 0.4817 0.48385 0.0
H1690 H 0.45841 0.48969 0.4617 0.0
H1691 H 0.49934 0.45224 0.46923 0.0
H1692 H 0.48198 0.44397 0.49135 0.0
H1693 H 0.51963 0.45561 0.49088 0.0
H1694 H 0.52714 0.5543 0.52842 0.0
H1695 H 0.49888 0.53566 0.55547 0.0
H1696 H 0.45668 0.472 0.51913 0.0
C1697 C 0.51988 0.5132 0.459 0.0
C1698 C 0.54099 0.53445 0.45406 0.0
C1699 C 0.55242 0.55321 0.46811 0.0
C1700 C 0.54274 0.55108 0.4868 0.0
C1701 C 0.52167 0.53008 0.49116 0.0
C1702 C 0.51048 0.51138 0.47768 0.0
C1703 C 0.48791 0.49084 0.486 0.0
C1704 C 0.45778 0.49557 0.47687 0.0
C1705 C 0.49782 0.45877 0.48426 0.0
C1706 C 0.4881 0.50093 0.50629 0.0
C1707 C 0.5077 0.52361 0.50895 0.0
C1708 C 0.51176 0.53654 0.5265 0.0
C1709 C 0.49556 0.52583 0.54177 0.0
C1710 C 0.47556 0.50242 0.53939 0.0
C1711 C 0.47173 0.48998 0.52137 0.0
H1712 H 0.25749 0.10856 0.38229 0.0
H1713 H 0.3099 0.18081 0.36148 0.0
H1714 H 0.35493 0.1536 0.36958 0.0
H1715 H 0.30669 0.08888 0.42179 0.0
H1716 H 0.29968 0.05028 0.41899 0.0
H1717 H 0.27181 0.07658 0.41302 0.0
H1718 H 0.26839 0.0544 0.37952 0.0
H1719 H 0.29638 0.02824 0.38532 0.0
H1720 H 0.3009 0.05199 0.36527 0.0
H1721 H 0.39388 0.11575 0.37603 0.0
H1722 H 0.42393 0.07213 0.38346 0.0
H1723 H 0.34621 0.0261 0.40201 0.0
C1724 C 0.27845 0.11889 0.37979 0.0
C1725 C 0.28028 0.14678 0.37128 0.0
C1726 C 0.30805 0.15954 0.36812 0.0
C1727 C 0.33373 0.14422 0.37262 0.0
C1728 C 0.33118 0.11642 0.38058 0.0
C1729 C 0.30424 0.10411 0.38446 0.0
C1730 C 0.30745 0.07358 0.39254 0.0
C1731 C 0.29571 0.07227 0.41279 0.0
C1732 C 0.29239 0.05072 0.3799 0.0
C1733 C 0.34036 0.07029 0.39208 0.0
C1734 C 0.35368 0.09519 0.38508 0.0
C1735 C 0.38375 0.09639 0.38192 0.0
C1736 C 0.40061 0.07152 0.38608 0.0
C1737 C 0.38738 0.04603 0.39353 0.0
C1738 C 0.35694 0.04558 0.39672 0.0
H1739 H 0.14778 0.01838 0.61946 0.0
H1740 H 0.06911 0.0678 0.63181 0.0
H1741 H 0.09933 0.11031 0.6412 0.0
H1742 H 0.19019 0.04678 0.65884 0.0
H1743 H 0.22393 0.04715 0.64575 0.0
H1744 H 0.19602 0.02071 0.64016 0.0
H1745 H 0.19593 0.03853 0.60553 0.0
H1746 H 0.22373 0.06511 0.61103 0.0
H1747 H 0.18979 0.07675 0.60053 0.0
H1748 H 0.13827 0.14852 0.64701 0.0
H1749 H 0.18309 0.178 0.65184 0.0
H1750 H 0.23618 0.10237 0.63789 0.0
C1751 C 0.13694 0.03811 0.62424 0.0
C1752 C 0.10614 0.03993 0.62485 0.0
C1753 C 0.09271 0.06599 0.6313 0.0
C1754 C 0.10968 0.09024 0.63659 0.0
C1755 C 0.14003 0.08786 0.63565 0.0
C1756 C 0.15355 0.0623 0.62991 0.0
C1757 C 0.18651 0.06524 0.63044 0.0
C1758 C 0.19995 0.04369 0.64465 0.0
C1759 C 0.19976 0.06117 0.61071 0.0
C1760 C 0.18945 0.0966 0.6371 0.0
C1761 C 0.16239 0.10936 0.63986 0.0
C1762 C 0.15957 0.13864 0.64514 0.0
C1763 C 0.18509 0.15522 0.64777 0.0
C1764 C 0.21298 0.14234 0.6454 0.0
C1765 C 0.2151 0.11264 0.64006 0.0
H1766 H 0.21876 0.89611 0.83766 0.0
H1767 H 0.22177 0.83741 0.88565 0.0
H1768 H 0.1813 0.86481 0.90049 0.0
H1769 H 0.20578 0.96081 0.86263 0.0
H1770 H 0.18097 0.9765 0.8457 0.0
H1771 H 0.20851 0.95095 0.83812 0.0
H1772 H 0.1686 0.91802 0.82323 0.0
H1773 H 0.1409 0.94358 0.83067 0.0
H1774 H 0.13842 0.90562 0.83747 0.0
H1775 H 0.14483 0.90181 0.91165 0.0
H1776 H 0.11175 0.94367 0.91733 0.0
H1777 H 0.12996 0.97673 0.86134 0.0
C1778 C 0.21056 0.88875 0.85115 0.0
C1779 C 0.22337 0.86464 0.86053 0.0
C1780 C 0.21217 0.85572 0.87819 0.0
C1781 C 0.18922 0.87117 0.88673 0.0
C1782 C 0.17745 0.89518 0.87728 0.0
C1783 C 0.18741 0.90368 0.85976 0.0
C1784 C 0.17152 0.93079 0.85288 0.0
C1785 C 0.19298 0.95626 0.84965 0.0
C1786 C 0.1538 0.92409 0.835 0.0
C1787 C 0.15163 0.93668 0.86949 0.0
C1788 C 0.15546 0.91589 0.88343 0.0
C1789 C 0.14121 0.91789 0.90071 0.0
C1790 C 0.12259 0.94177 0.90383 0.0
C1791 C 0.1181 0.96312 0.88968 0.0
C1792 C 0.13256 0.96033 0.87223 0.0
H1793 H 0.28926 0.88681 0.15344 0.0
H1794 H 0.28237 0.83683 0.10168 0.0
H1795 H 0.32268 0.86577 0.08795 0.0
H1796 H 0.30414 0.95607 0.13216 0.0
H1797 H 0.32979 0.9675 0.14996 0.0
H1798 H 0.30086 0.94239 0.15587 0.0
H1799 H 0.33905 0.90527 0.16838 0.0
H1800 H 0.36813 0.93023 0.16244 0.0
H1801 H 0.36836 0.89347 0.15321 0.0
H1802 H 0.3621 0.90127 0.07939 0.0
H1803 H 0.39855 0.94089 0.07658 0.0
H1804 H 0.38112 0.967 0.13422 0.0
C1805 C 0.29628 0.88194 0.13923 0.0
C1806 C 0.28268 0.85962 0.12859 0.0
C1807 C 0.2925 0.85383 0.11007 0.0
C1808 C 0.31539 0.87012 0.10216 0.0
C1809 C 0.32835 0.89196 0.11302 0.0
C1810 C 0.31925 0.89786 0.13117 0.0
C1811 C 0.33667 0.92277 0.13971 0.0
C1812 C 0.31667 0.94872 0.14471 0.0
C1813 C 0.35408 0.9123 0.15696 0.0
C1814 C 0.35676 0.93018 0.12345 0.0
C1815 C 0.35157 0.9121 0.1082 0.0
C1816 C 0.36655 0.9154 0.09128 0.0
C1817 C 0.38718 0.93796 0.08982 0.0
C1818 C 0.39277 0.95683 0.10522 0.0
C1819 C 0.37757 0.95263 0.12231 0.0
H1820 H 0.72813 0.88244 0.62191 0.0
H1821 H 0.67558 0.83174 0.66091 0.0
H1822 H 0.63325 0.86406 0.65454 0.0
H1823 H 0.70056 0.95176 0.63452 0.0
H1824 H 0.70129 0.96632 0.61095 0.0
H1825 H 0.72663 0.93804 0.61766 0.0
H1826 H 0.70859 0.90558 0.59007 0.0
H1827 H 0.68329 0.93385 0.58319 0.0
H1828 H 0.67018 0.89737 0.58795 0.0
H1829 H 0.59727 0.90399 0.6449 0.0
H1830 H 0.57088 0.94727 0.63238 0.0
H1831 H 0.64768 0.97109 0.59999 0.0
C1832 C 0.70762 0.87787 0.62893 0.0
C1833 C 0.70508 0.85453 0.64185 0.0
C1834 C 0.67794 0.84945 0.65089 0.0
C1835 C 0.65381 0.8677 0.64737 0.0
C1836 C 0.65718 0.89083 0.63475 0.0
C1837 C 0.6834 0.89582 0.6256 0.0
C1838 C 0.68176 0.92262 0.61314 0.0
C1839 C 0.70387 0.94606 0.61946 0.0
C1840 C 0.68621 0.91435 0.59236 0.0
C1841 C 0.65066 0.93222 0.61687 0.0
C1842 C 0.6367 0.91361 0.62929 0.0
C1843 C 0.60795 0.91858 0.63507 0.0
C1844 C 0.59315 0.94321 0.62793 0.0
C1845 C 0.60721 0.9625 0.61522 0.0
C1846 C 0.63628 0.95673 0.60966 0.0
H1847 H 0.86873 0.98228 0.3699 0.0
H1848 H 0.88292 0.94671 0.42577 0.0
H1849 H 0.85071 0.90488 0.41815 0.0
H1850 H 0.79353 0.96502 0.36746 0.0
H1851 H 0.7938 0.95612 0.34275 0.0
H1852 H 0.81991 0.98184 0.35202 0.0
H1853 H 0.86236 0.95056 0.33862 0.0
H1854 H 0.83635 0.92475 0.32927 0.0
H1855 H 0.86492 0.91236 0.34482 0.0
H1856 H 0.81546 0.8678 0.40478 0.0
H1857 H 0.77838 0.83948 0.38711 0.0
H1858 H 0.78603 0.90028 0.34044 0.0
C1859 C 0.8654 0.96545 0.38042 0.0
C1860 C 0.87848 0.96758 0.39837 0.0
C1861 C 0.87319 0.94542 0.4119 0.0
C1862 C 0.85499 0.92156 0.40769 0.0
C1863 C 0.84215 0.92025 0.38992 0.0
C1864 C 0.84706 0.94165 0.37652 0.0
C1865 C 0.82934 0.93598 0.35888 0.0
C1866 C 0.80787 0.96124 0.35507 0.0
C1867 C 0.84945 0.93059 0.3419 0.0
C1868 C 0.81339 0.90828 0.36455 0.0
C1869 C 0.82133 0.89935 0.38241 0.0
C1870 C 0.80916 0.87453 0.39075 0.0
C1871 C 0.78815 0.85857 0.38062 0.0
C1872 C 0.77934 0.8677 0.36244 0.0
C1873 C 0.79234 0.89276 0.35432 0.0
H1874 H 0.79062 0.12444 0.1161 0.0
H1875 H 0.79493 0.11135 0.17654 0.0
H1876 H 0.83258 0.07337 0.17207 0.0
H1877 H 0.79681 0.04996 0.10367 0.0
H1878 H 0.81908 0.05602 0.08311 0.0
H1879 H 0.79429 0.08407 0.09099 0.0
H1880 H 0.83709 0.12113 0.09283 0.0
H1881 H 0.86202 0.0932 0.08487 0.0
H1882 H 0.86898 0.11227 0.10662 0.0
H1883 H 0.86685 0.0345 0.16117 0.0
H1884 H 0.89653 0.99767 0.14442 0.0
H1885 H 0.87066 0.03565 0.09096 0.0
C1886 C 0.79989 0.11393 0.12839 0.0
C1887 C 0.78994 0.12094 0.14668 0.0
C1888 C 0.80226 0.10639 0.1624 0.0
C1889 C 0.82369 0.0848 0.16002 0.0
C1890 C 0.83266 0.07802 0.14181 0.0
C1891 C 0.82132 0.0922 0.12625 0.0
C1892 C 0.83384 0.07967 0.1082 0.0
C1893 C 0.80955 0.06666 0.09576 0.0
C1894 C 0.85154 0.10296 0.0975 0.0
C1895 C 0.85356 0.05593 0.11606 0.0
C1896 C 0.85263 0.05549 0.13549 0.0
C1897 C 0.86801 0.03481 0.14596 0.0
C1898 C 0.88475 0.01393 0.13632 0.0
C1899 C 0.886 0.01388 0.11641 0.0
C1900 C 0.87034 0.03534 0.10619 0.0
H1901 H 0.62795 0.03825 0.868 0.0
H1902 H 0.65654 0.01992 0.92504 0.0
H1903 H 0.69337 0.05909 0.9227 0.0
H1904 H 0.70069 0.05166 0.8497 0.0
H1905 H 0.68917 0.08034 0.83392 0.0
H1906 H 0.66413 0.05151 0.84021 0.0
H1907 H 0.62675 0.09017 0.85174 0.0
H1908 H 0.65175 0.11911 0.84558 0.0
H1909 H 0.63768 0.11662 0.86921 0.0
H1910 H 0.72569 0.10103 0.9149 0.0
H1911 H 0.75566 0.1402 0.90074 0.0
H1912 H 0.70921 0.12961 0.8479 0.0
C1913 C 0.642 0.04257 0.87995 0.0
C1914 C 0.63939 0.02617 0.89672 0.0
C1915 C 0.65829 0.03216 0.91203 0.0
C1916 C 0.67917 0.05447 0.91089 0.0
C1917 C 0.68119 0.07032 0.89423 0.0
C1918 C 0.66349 0.06445 0.87891 0.0
C1919 C 0.67128 0.08403 0.86241 0.0
C1920 C 0.68196 0.06579 0.84557 0.0
C1921 C 0.64531 0.10365 0.85692 0.0
C1922 C 0.69595 0.10184 0.87094 0.0
C1923 C 0.70098 0.09379 0.88939 0.0
C1924 C 0.72214 0.10744 0.90041 0.0
C1925 C 0.73896 0.12971 0.89228 0.0
C1926 C 0.73481 0.13779 0.87324 0.0
C1927 C 0.71294 0.12372 0.86247 0.0
H1928 H 0.79273 0.60773 0.84603 0.0
H1929 H 0.79104 0.66496 0.89477 0.0
H1930 H 0.83363 0.63873 0.90801 0.0
H1931 H 0.80974 0.54282 0.87034 0.0
H1932 H 0.83339 0.5283 0.85233 0.0
H1933 H 0.80427 0.55294 0.84607 0.0
H1934 H 0.84154 0.58741 0.82982 0.0
H1935 H 0.87082 0.56284 0.83604 0.0
H1936 H 0.87252 0.60079 0.84295 0.0
H1937 H 0.87363 0.6039 0.91705 0.0
H1938 H 0.9088 0.56337 0.9211 0.0
H1939 H 0.88537 0.52954 0.86608 0.0
C1940 C 0.80154 0.61498 0.85938 0.0
C1941 C 0.78863 0.63841 0.86938 0.0
C1942 C 0.80066 0.64712 0.88686 0.0
C1943 C 0.82485 0.63239 0.89447 0.0
C1944 C 0.83686 0.60917 0.88434 0.0
C1945 C 0.82572 0.60061 0.86713 0.0
C1946 C 0.84189 0.57422 0.85946 0.0
C1947 C 0.82108 0.54803 0.85691 0.0
C1948 C 0.85763 0.58178 0.84097 0.0
C1949 C 0.86349 0.56887 0.87523 0.0
C1950 C 0.86029 0.58937 0.88941 0.0
C1951 C 0.87661 0.58798 0.90594 0.0
C1952 C 0.89648 0.56486 0.90812 0.0
C1953 C 0.89996 0.54352 0.89383 0.0
C1954 C 0.88353 0.54585 0.87708 0.0
H1955 H 0.71784 0.61334 0.11589 0.0
H1956 H 0.69711 0.62392 0.17506 0.0
H1957 H 0.65721 0.58767 0.17194 0.0
H1958 H 0.64324 0.6026 0.09895 0.0
H1959 H 0.65393 0.57529 0.08198 0.0
H1960 H 0.67922 0.60373 0.08862 0.0
H1961 H 0.71742 0.56438 0.09792 0.0
H1962 H 0.69222 0.53584 0.09142 0.0
H1963 H 0.70763 0.53652 0.11476 0.0
H1964 H 0.62029 0.54918 0.16243 0.0
H1965 H 0.59041 0.51037 0.14751 0.0
H1966 H 0.63705 0.52352 0.09502 0.0
C1967 C 0.70458 0.60838 0.12811 0.0
C1968 C 0.71032 0.62161 0.14568 0.0
C1969 C 0.69293 0.61411 0.16145 0.0
C1970 C 0.67023 0.59359 0.1598 0.0
C1971 C 0.66537 0.58061 0.14233 0.0
C1972 C 0.68211 0.58766 0.12677 0.0
C1973 C 0.6735 0.56942 0.10986 0.0
C1974 C 0.66177 0.58893 0.09391 0.0
C1975 C 0.69922 0.55042 0.1031 0.0
C1976 C 0.64944 0.55087 0.11835 0.0
C1977 C 0.64485 0.55783 0.13703 0.0
C1978 C 0.62369 0.54356 0.1478 0.0
C1979 C 0.60685 0.52156 0.13922 0.0
C1980 C 0.61151 0.51387 0.12016 0.0
C1981 C 0.63308 0.52881 0.10966 0.0
H1982 H 0.73548 0.3989 0.37427 0.0
H1983 H 0.68081 0.33615 0.34484 0.0
H1984 H 0.63728 0.36629 0.35188 0.0
H1985 H 0.68304 0.41708 0.41127 0.0
H1986 H 0.69326 0.4552 0.41165 0.0
H1987 H 0.71979 0.42781 0.40523 0.0
H1988 H 0.72933 0.45488 0.37377 0.0
H1989 H 0.7028 0.48229 0.38007 0.0
H1990 H 0.6991 0.46251 0.35824 0.0
H1991 H 0.60018 0.40459 0.36062 0.0
H1992 H 0.57209 0.44804 0.37076 0.0
H1993 H 0.65096 0.48561 0.39464 0.0
C1994 C 0.7143 0.39132 0.3695 0.0
C1995 C 0.71147 0.36515 0.35906 0.0
C1996 C 0.68344 0.3561 0.35291 0.0
C1997 C 0.6586 0.37305 0.35685 0.0
C1998 C 0.66219 0.39892 0.36699 0.0
C1999 C 0.68931 0.40797 0.3733 0.0
C2000 C 0.68735 0.43715 0.38336 0.0
C2001 C 0.69639 0.43411 0.40411 0.0
C2002 C 0.70573 0.46059 0.37325 0.0
C2003 C 0.65495 0.4433 0.3815 0.0
C2004 C 0.6408 0.42094 0.37208 0.0
C2005 C 0.61098 0.42213 0.36814 0.0
C2006 C 0.59522 0.4469 0.37393 0.0
C2007 C 0.60932 0.47011 0.38353 0.0
C2008 C 0.63954 0.4681 0.38745 0.0
H2009 H 0.87196 0.47946 0.63987 0.0
H2010 H 0.90014 0.44106 0.58708 0.0
H2011 H 0.86726 0.39899 0.59237 0.0
H2012 H 0.86156 0.41081 0.66616 0.0
H2013 H 0.82898 0.42365 0.67781 0.0
H2014 H 0.85697 0.44931 0.67096 0.0
H2015 H 0.8187 0.47907 0.65208 0.0
H2016 H 0.79064 0.45349 0.65881 0.0
H2017 H 0.79723 0.46095 0.63427 0.0
H2018 H 0.83062 0.36221 0.60259 0.0
H2019 H 0.78978 0.33405 0.61612 0.0
H2020 H 0.78249 0.39731 0.66149 0.0
C2021 C 0.87154 0.46187 0.62965 0.0
C2022 C 0.88877 0.46319 0.61318 0.0
C2023 C 0.88717 0.44028 0.59982 0.0
C2024 C 0.86866 0.41629 0.60273 0.0
C2025 C 0.85163 0.41574 0.61897 0.0
C2026 C 0.85267 0.43797 0.63216 0.0
C2027 C 0.8303 0.43301 0.64761 0.0
C2028 C 0.84536 0.42895 0.66677 0.0
C2029 C 0.80789 0.45812 0.64822 0.0
C2030 C 0.8164 0.40471 0.64091 0.0
C2031 C 0.8294 0.39498 0.62451 0.0
C2032 C 0.82029 0.36954 0.61545 0.0
C2033 C 0.79708 0.35369 0.62326 0.0
C2034 C 0.78295 0.36351 0.63984 0.0
C2035 C 0.7929 0.38929 0.64881 0.0
H2036 H 0.12201 0.43812 0.10067 0.0
H2037 H 0.10343 0.4759 0.15542 0.0
H2038 H 0.13633 0.43982 0.1703 0.0
H2039 H 0.12692 0.36153 0.11672 0.0
H2040 H 0.15627 0.35301 0.10071 0.0
H2041 H 0.12962 0.38044 0.09452 0.0
H2042 H 0.17118 0.41817 0.08937 0.0
H2043 H 0.19792 0.39094 0.09561 0.0
H2044 H 0.19676 0.42524 0.10814 0.0
H2045 H 0.17452 0.40304 0.17881 0.0
H2046 H 0.21383 0.36611 0.18067 0.0
H2047 H 0.20639 0.35071 0.12061 0.0
C2048 C 0.12453 0.4385 0.11582 0.0
C2049 C 0.11016 0.45976 0.12692 0.0
C2050 C 0.11415 0.45972 0.14667 0.0
C2051 C 0.13278 0.43933 0.15525 0.0
C2052 C 0.14699 0.41895 0.14388 0.0
C2053 C 0.14289 0.41816 0.12462 0.0
C2054 C 0.16159 0.39466 0.11557 0.0
C2055 C 0.14245 0.37101 0.10634 0.0
C2056 C 0.18314 0.40806 0.10134 0.0
C2057 C 0.17736 0.38282 0.1327 0.0
C2058 C 0.16857 0.39715 0.14888 0.0
C2059 C 0.18127 0.39135 0.1663 0.0
C2060 C 0.20362 0.37044 0.1672 0.0
C2061 C 0.2129 0.35544 0.15082 0.0
C2062 C 0.19935 0.36151 0.1334 0.0
H2063 H 0.38892 0.46197 0.87222 0.0
H2064 H 0.35696 0.4826 0.92816 0.0
H2065 H 0.31918 0.44431 0.92509 0.0
H2066 H 0.31859 0.45108 0.85177 0.0
H2067 H 0.32993 0.42156 0.8366 0.0
H2068 H 0.35589 0.44907 0.84368 0.0
H2069 H 0.39002 0.40872 0.85689 0.0
H2070 H 0.36413 0.38106 0.84986 0.0
H2071 H 0.37607 0.38313 0.874 0.0
H2072 H 0.28431 0.40464 0.91585 0.0
H2073 H 0.25279 0.36801 0.90028 0.0
H2074 H 0.30584 0.37431 0.8498 0.0
C2075 C 0.37415 0.45815 0.88388 0.0
C2076 C 0.37594 0.47508 0.90048 0.0
C2077 C 0.35596 0.46984 0.91533 0.0
C2078 C 0.3345 0.44808 0.91375 0.0
C2079 C 0.33314 0.43189 0.89717 0.0
C2080 C 0.35228 0.43675 0.88243 0.0
C2081 C 0.34498 0.41737 0.86575 0.0
C2082 C 0.33686 0.43588 0.84843 0.0
C2083 C 0.37031 0.39632 0.86137 0.0
C2084 C 0.31867 0.40104 0.87339 0.0
C2085 C 0.31243 0.40953 0.89161 0.0
C2086 C 0.28899 0.39776 0.90159 0.0
C2087 C 0.27124 0.37695 0.89264 0.0
C2088 C 0.27686 0.36834 0.87385 0.0
C2089 C 0.30103 0.38045 0.86419 0.0
H2090 H 0.37817 0.53216 0.62973 0.0
H2091 H 0.38104 0.55159 0.56999 0.0
H2092 H 0.34761 0.59319 0.57478 0.0
H2093 H 0.30223 0.54618 0.63493 0.0
H2094 H 0.30498 0.5623 0.65802 0.0
H2095 H 0.33159 0.53573 0.65047 0.0
H2096 H 0.37329 0.57262 0.65729 0.0
H2097 H 0.34679 0.59929 0.66493 0.0
H2098 H 0.37235 0.60837 0.64653 0.0
H2099 H 0.31273 0.63111 0.58536 0.0
H2100 H 0.2764 0.66248 0.60112 0.0
H2101 H 0.29343 0.61794 0.65399 0.0
C2102 C 0.37212 0.54558 0.61778 0.0
C2103 C 0.38233 0.53889 0.59951 0.0
C2104 C 0.37346 0.55642 0.5841 0.0
C2105 C 0.35457 0.58014 0.58667 0.0
C2106 C 0.34445 0.58595 0.60475 0.0
C2107 C 0.35273 0.56919 0.62006 0.0
C2108 C 0.33687 0.57912 0.63772 0.0
C2109 C 0.31778 0.55436 0.64575 0.0
C2110 C 0.35863 0.59053 0.65249 0.0
C2111 C 0.31828 0.60379 0.62983 0.0
C2112 C 0.32334 0.6075 0.61082 0.0
C2113 C 0.30862 0.62853 0.60027 0.0
C2114 C 0.28801 0.64624 0.60935 0.0
C2115 C 0.28207 0.64266 0.62876 0.0
C2116 C 0.29754 0.6212 0.63913 0.0
H2117 H 0.15098 0.52228 0.39432 0.0
H2118 H 0.07095 0.5731 0.39637 0.0
H2119 H 0.09888 0.61788 0.38832 0.0
H2120 H 0.19969 0.5775 0.4133 0.0
H2121 H 0.22929 0.56791 0.39774 0.0
H2122 H 0.20322 0.54046 0.40481 0.0
H2123 H 0.19204 0.52907 0.36981 0.0
H2124 H 0.21808 0.55643 0.36263 0.0
H2125 H 0.18087 0.55834 0.35437 0.0
H2126 H 0.13605 0.65714 0.37992 0.0
H2127 H 0.17851 0.68673 0.36953 0.0
H2128 H 0.23318 0.60918 0.37137 0.0
C2129 C 0.13937 0.54289 0.39326 0.0
C2130 C 0.10887 0.54436 0.39612 0.0
C2131 C 0.09436 0.57159 0.39428 0.0
C2132 C 0.11004 0.59711 0.38978 0.0
C2133 C 0.14014 0.59489 0.38699 0.0
C2134 C 0.15459 0.5684 0.38851 0.0
C2135 C 0.18671 0.5715 0.38383 0.0
C2136 C 0.20585 0.5639 0.40094 0.0
C2137 C 0.19489 0.55273 0.36664 0.0
C2138 C 0.18812 0.60385 0.37932 0.0
C2139 C 0.16116 0.6171 0.38147 0.0
C2140 C 0.15724 0.64697 0.37817 0.0
C2141 C 0.18145 0.6636 0.37233 0.0
C2142 C 0.20902 0.65019 0.36959 0.0
C2143 C 0.2123 0.61998 0.37326 0.0
loop_
_geom_bond_atom_site_label_1
_geom_bond_atom_site_label_2
_geom_bond_distance
_geom_bond_site_symmetry_2
_ccdc_geom_bond_type
In0 O1 2.294 . S
In0 O2 2.326 . S
In0 O6 2.266 . S
In0 O7 2.326 . S
In0 O8 2.266 . S
In0 O9 2.326 . S
In0 O11 2.294 . S
In0 O12 2.326 . S
O1 In0 2.294 . S
O1 C10 1.240 . S
O2 In0 2.326 . S
O2 C10 1.252 . S
C3 O6 1.252 . S
C3 O7 1.260 . S
C4 O11 1.240 . S
C4 O12 1.252 . S
C5 O8 1.252 . S
C5 O9 1.260 . S
O6 In0 2.266 . S
O6 C3 1.252 . S
O7 In0 2.326 . S
O7 C3 1.260 . S
O8 In0 2.266 . S
O8 C5 1.252 . S
O9 In0 2.326 . S
O9 C5 1.260 . S
C10 O1 1.240 . S
C10 O2 1.252 . S
O11 In0 2.294 . S
O11 C4 1.240 . S
O12 In0 2.326 . S
O12 C4 1.252 . S
In13 O14 2.319 . S
In13 O15 2.326 . S
In13 O19 2.266 . S
In13 O20 2.326 . S
In13 O21 2.266 . S
In13 O22 2.326 . S
In13 O24 2.294 . S
In13 O25 2.326 . S
O14 In13 2.319 . S
O14 C23 1.236 1_565 S
O15 In13 2.326 . S
O15 C23 1.252 1_565 S
C16 O19 1.252 . S
C16 O20 1.260 . S
C17 O24 1.240 . S
C17 O25 1.252 . S
C18 O21 1.252 . S
C18 O22 1.260 . S
O19 In13 2.266 . S
O19 C16 1.252 . S
O20 In13 2.326 . S
O20 C16 1.260 . S
O21 In13 2.266 . S
O21 C18 1.252 . S
O22 In13 2.326 . S
O22 C18 1.260 . S
C23 O14 1.236 1_545 S
C23 O15 1.252 1_545 S
O24 In13 2.294 . S
O24 C17 1.240 . S
O25 In13 2.326 . S
O25 C17 1.252 . S
In26 O27 2.294 . S
In26 O28 2.326 . S
In26 O32 2.266 . S
In26 O33 2.326 . S
In26 O34 2.266 . S
In26 O35 2.326 . S
In26 O37 2.294 . S
In26 O38 2.326 . S
O27 In26 2.294 . S
O27 C36 1.240 . S
O28 In26 2.326 . S
O28 C36 1.252 . S
C29 O32 1.252 . S
C29 O33 1.260 . S
C30 O37 1.240 . S
C30 O38 1.252 . S
C31 O34 1.252 . S
C31 O35 1.260 . S
O32 In26 2.266 . S
O32 C29 1.252 . S
O33 In26 2.326 . S
O33 C29 1.260 . S
O34 In26 2.266 . S
O34 C31 1.252 . S
O35 In26 2.326 . S
O35 C31 1.260 . S
C36 O27 1.240 . S
C36 O28 1.252 . S
O37 In26 2.294 . S
O37 C30 1.240 . S
O38 In26 2.326 . S
O38 C30 1.252 . S
In39 O40 2.319 . S
In39 O41 2.326 . S
In39 O45 2.266 . S
In39 O46 2.326 . S
In39 O47 2.266 . S
In39 O48 2.326 . S
In39 O50 2.294 . S
In39 O51 2.326 . S
O40 In39 2.319 . S
O40 C49 1.236 1_545 S
O41 In39 2.326 . S
O41 C49 1.252 1_545 S
C42 O45 1.252 . S
C42 O46 1.260 . S
C43 O50 1.240 . S
C43 O51 1.252 . S
C44 O47 1.252 . S
C44 O48 1.260 . S
O45 In39 2.266 . S
O45 C42 1.252 . S
O46 In39 2.326 . S
O46 C42 1.260 . S
O47 In39 2.266 . S
O47 C44 1.252 . S
O48 In39 2.326 . S
O48 C44 1.260 . S
C49 O40 1.236 1_565 S
C49 O41 1.252 1_565 S
O50 In39 2.294 . S
O50 C43 1.240 . S
O51 In39 2.326 . S
O51 C43 1.252 . S
In52 O53 2.294 . S
In52 O54 2.326 . S
In52 O58 2.266 . S
In52 O59 2.326 . S
In52 O60 2.266 . S
In52 O61 2.326 . S
In52 O63 2.294 . S
In52 O64 2.326 . S
O53 In52 2.294 . S
O53 C62 1.240 . S
O54 In52 2.326 . S
O54 C62 1.252 . S
C55 O58 1.252 . S
C55 O59 1.260 . S
C56 O63 1.240 . S
C56 O64 1.252 . S
C57 O60 1.252 . S
C57 O61 1.260 . S
O58 In52 2.266 . S
O58 C55 1.252 . S
O59 In52 2.326 . S
O59 C55 1.260 . S
O60 In52 2.266 . S
O60 C57 1.252 . S
O61 In52 2.326 . S
O61 C57 1.260 . S
C62 O53 1.240 . S
C62 O54 1.252 . S
O63 In52 2.294 . S
O63 C56 1.240 . S
O64 In52 2.326 . S
O64 C56 1.252 . S
In65 O66 2.319 . S
In65 O67 2.326 . S
In65 O71 2.266 . S
In65 O72 2.326 . S
In65 O73 2.266 . S
In65 O74 2.326 . S
In65 O76 2.294 . S
In65 O77 2.326 . S
O66 In65 2.319 . S
O66 C75 1.236 1_565 S
O67 In65 2.326 . S
O67 C75 1.252 1_565 S
C68 O71 1.252 . S
C68 O72 1.260 . S
C69 O76 1.240 . S
C69 O77 1.252 . S
C70 O73 1.252 . S
C70 O74 1.260 . S
O71 In65 2.266 . S
O71 C68 1.252 . S
O72 In65 2.326 . S
O72 C68 1.260 . S
O73 In65 2.266 . S
O73 C70 1.252 . S
O74 In65 2.326 . S
O74 C70 1.260 . S
C75 O66 1.236 1_545 S
C75 O67 1.252 1_545 S
O76 In65 2.294 . S
O76 C69 1.240 . S
O77 In65 2.326 . S
O77 C69 1.252 . S
In78 O79 2.294 . S
In78 O80 2.326 . S
In78 O84 2.266 . S
In78 O85 2.326 . S
In78 O86 2.266 . S
In78 O87 2.326 . S
In78 O89 2.294 . S
In78 O90 2.326 . S
O79 In78 2.294 . S
O79 C88 1.240 . S
O80 In78 2.326 . S
O80 C88 1.252 . S
C81 O84 1.252 . S
C81 O85 1.260 . S
C82 O89 1.240 . S
C82 O90 1.252 . S
C83 O86 1.252 . S
C83 O87 1.260 . S
O84 In78 2.266 . S
O84 C81 1.252 . S
O85 In78 2.326 . S
O85 C81 1.260 . S
O86 In78 2.266 . S
O86 C83 1.252 . S
O87 In78 2.326 . S
O87 C83 1.260 . S
C88 O79 1.240 . S
C88 O80 1.252 . S
O89 In78 2.294 . S
O89 C82 1.240 . S
O90 In78 2.326 . S
O90 C82 1.252 . S
In91 O92 2.294 . S
In91 O93 2.326 . S
In91 O97 2.266 . S
In91 O98 2.326 . S
In91 O99 2.266 . S
In91 O100 2.326 . S
In91 O102 2.319 . S
In91 O103 2.326 . S
O92 In91 2.294 . S
O92 C101 1.240 . S
O93 In91 2.326 . S
O93 C101 1.252 . S
C94 O97 1.252 . S
C94 O98 1.260 . S
C95 O102 1.236 1_565 S
C95 O103 1.252 1_565 S
C96 O99 1.252 . S
C96 O100 1.260 . S
O97 In91 2.266 . S
O97 C94 1.252 . S
O98 In91 2.326 . S
O98 C94 1.260 . S
O99 In91 2.266 . S
O99 C96 1.252 . S
O100 In91 2.326 . S
O100 C96 1.260 . S
C101 O92 1.240 . S
C101 O93 1.252 . S
O102 In91 2.319 . S
O102 C95 1.236 1_545 S
O103 In91 2.326 . S
O103 C95 1.252 1_545 S
In104 O105 2.294 . S
In104 O106 2.326 . S
In104 O110 2.266 . S
In104 O111 2.326 . S
In104 O112 2.266 . S
In104 O113 2.326 . S
In104 O115 2.294 . S
In104 O116 2.326 . S
O105 In104 2.294 . S
O105 C114 1.240 . S
O106 In104 2.326 . S
O106 C114 1.252 . S
C107 O110 1.252 . S
C107 O111 1.260 . S
C108 O115 1.240 . S
C108 O116 1.252 . S
C109 O112 1.252 . S
C109 O113 1.260 . S
O110 In104 2.266 . S
O110 C107 1.252 . S
O111 In104 2.326 . S
O111 C107 1.260 . S
O112 In104 2.266 . S
O112 C109 1.252 . S
O113 In104 2.326 . S
O113 C109 1.260 . S
C114 O105 1.240 . S
C114 O106 1.252 . S
O115 In104 2.294 . S
O115 C108 1.240 . S
O116 In104 2.326 . S
O116 C108 1.252 . S
In117 O118 2.294 . S
In117 O119 2.326 . S
In117 O123 2.266 . S
In117 O124 2.326 . S
In117 O125 2.266 . S
In117 O126 2.326 . S
In117 O128 2.294 . S
In117 O129 2.326 . S
O118 In117 2.294 . S
O118 C127 1.240 . S
O119 In117 2.326 . S
O119 C127 1.252 . S
C120 O123 1.252 1_565 S
C120 O124 1.260 1_565 S
C121 O128 1.240 . S
C121 O129 1.252 . S
C122 O125 1.252 . S
C122 O126 1.260 . S
O123 In117 2.266 . S
O123 C120 1.252 1_545 S
O124 In117 2.326 . S
O124 C120 1.260 1_545 S
O125 In117 2.266 . S
O125 C122 1.252 . S
O126 In117 2.326 . S
O126 C122 1.260 . S
C127 O118 1.240 . S
C127 O119 1.252 . S
O128 In117 2.294 . S
O128 C121 1.240 . S
O129 In117 2.326 . S
O129 C121 1.252 . S
In130 O131 2.294 . S
In130 O132 2.326 . S
In130 O136 2.266 . S
In130 O137 2.326 . S
In130 O138 2.266 . S
In130 O139 2.326 . S
In130 O141 2.294 . S
In130 O142 2.326 . S
O131 In130 2.294 . S
O131 C140 1.240 . S
O132 In130 2.326 . S
O132 C140 1.252 . S
C133 O136 1.252 . S
C133 O137 1.260 . S
C134 O141 1.240 . S
C134 O142 1.252 . S
C135 O138 1.252 . S
C135 O139 1.260 . S
O136 In130 2.266 . S
O136 C133 1.252 . S
O137 In130 2.326 . S
O137 C133 1.260 . S
O138 In130 2.266 . S
O138 C135 1.252 . S
O139 In130 2.326 . S
O139 C135 1.260 . S
C140 O131 1.240 . S
C140 O132 1.252 . S
O141 In130 2.294 . S
O141 C134 1.240 . S
O142 In130 2.326 . S
O142 C134 1.252 . S
In143 O144 2.294 . S
In143 O145 2.326 . S
In143 O149 2.266 . S
In143 O150 2.326 . S
In143 O151 2.266 . S
In143 O152 2.326 . S
In143 O154 2.294 . S
In143 O155 2.326 . S
O144 In143 2.294 . S
O144 C153 1.240 . S
O145 In143 2.326 . S
O145 C153 1.252 . S
C146 O149 1.252 1_545 S
C146 O150 1.260 1_545 S
C147 O154 1.240 . S
C147 O155 1.252 . S
C148 O151 1.252 . S
C148 O152 1.260 . S
O149 In143 2.266 . S
O149 C146 1.252 1_565 S
O150 In143 2.326 . S
O150 C146 1.260 1_565 S
O151 In143 2.266 . S
O151 C148 1.252 . S
O152 In143 2.326 . S
O152 C148 1.260 . S
C153 O144 1.240 . S
C153 O145 1.252 . S
O154 In143 2.294 . S
O154 C147 1.240 . S
O155 In143 2.326 . S
O155 C147 1.252 . S
In156 O157 2.294 . S
In156 O158 2.326 . S
In156 O162 2.266 . S
In156 O163 2.326 . S
In156 O164 2.266 . S
In156 O165 2.326 . S
In156 O167 2.294 . S
In156 O168 2.326 . S
O157 In156 2.294 . S
O157 C166 1.240 . S
O158 In156 2.326 . S
O158 C166 1.252 . S
C159 O162 1.252 . S
C159 O163 1.260 . S
C160 O167 1.240 . S
C160 O168 1.252 . S
C161 O164 1.252 . S
C161 O165 1.260 . S
O162 In156 2.266 . S
O162 C159 1.252 . S
O163 In156 2.326 . S
O163 C159 1.260 . S
O164 In156 2.266 . S
O164 C161 1.252 . S
O165 In156 2.326 . S
O165 C161 1.260 . S
C166 O157 1.240 . S
C166 O158 1.252 . S
O167 In156 2.294 . S
O167 C160 1.240 . S
O168 In156 2.326 . S
O168 C160 1.252 . S
In169 O170 2.294 . S
In169 O171 2.326 . S
In169 O175 2.266 . S
In169 O176 2.326 . S
In169 O177 2.266 . S
In169 O178 2.326 . S
In169 O180 2.294 . S
In169 O181 2.326 . S
O170 In169 2.294 . S
O170 C179 1.240 . S
O171 In169 2.326 . S
O171 C179 1.252 . S
C172 O175 1.252 . S
C172 O176 1.260 . S
C173 O180 1.240 . S
C173 O181 1.252 . S
C174 O177 1.252 1_565 S
C174 O178 1.260 1_565 S
O175 In169 2.266 . S
O175 C172 1.252 . S
O176 In169 2.326 . S
O176 C172 1.260 . S
O177 In169 2.266 . S
O177 C174 1.252 1_545 S
O178 In169 2.326 . S
O178 C174 1.260 1_545 S
C179 O170 1.240 . S
C179 O171 1.252 . S
O180 In169 2.294 . S
O180 C173 1.240 . S
O181 In169 2.326 . S
O181 C173 1.252 . S
In182 O183 2.294 . S
In182 O184 2.326 . S
In182 O188 2.266 . S
In182 O189 2.326 . S
In182 O190 2.266 . S
In182 O191 2.326 . S
In182 O193 2.294 . S
In182 O194 2.326 . S
O183 In182 2.294 . S
O183 C192 1.240 . S
O184 In182 2.326 . S
O184 C192 1.252 . S
C185 O188 1.252 . S
C185 O189 1.260 . S
C186 O193 1.240 . S
C186 O194 1.252 . S
C187 O190 1.252 . S
C187 O191 1.260 . S
O188 In182 2.266 . S
O188 C185 1.252 . S
O189 In182 2.326 . S
O189 C185 1.260 . S
O190 In182 2.266 . S
O190 C187 1.252 . S
O191 In182 2.326 . S
O191 C187 1.260 . S
C192 O183 1.240 . S
C192 O184 1.252 . S
O193 In182 2.294 . S
O193 C186 1.240 . S
O194 In182 2.326 . S
O194 C186 1.252 . S
In195 O196 2.294 . S
In195 O197 2.326 . S
In195 O201 2.266 . S
In195 O202 2.326 . S
In195 O203 2.266 . S
In195 O204 2.326 . S
In195 O206 2.294 . S
In195 O207 2.326 . S
O196 In195 2.294 . S
O196 C205 1.240 . S
O197 In195 2.326 . S
O197 C205 1.252 . S
C198 O201 1.252 . S
C198 O202 1.260 . S
C199 O206 1.240 . S
C199 O207 1.252 . S
C200 O203 1.252 1_545 S
C200 O204 1.260 1_545 S
O201 In195 2.266 . S
O201 C198 1.252 . S
O202 In195 2.326 . S
O202 C198 1.260 . S
O203 In195 2.266 . S
O203 C200 1.252 1_565 S
O204 In195 2.326 . S
O204 C200 1.260 1_565 S
C205 O196 1.240 . S
C205 O197 1.252 . S
O206 In195 2.294 . S
O206 C199 1.240 . S
O207 In195 2.326 . S
O207 C199 1.252 . S
In208 O209 2.294 . S
In208 O210 2.326 . S
In208 O214 2.266 . S
In208 O215 2.326 . S
In208 O216 2.266 . S
In208 O217 2.326 . S
In208 O219 2.294 . S
In208 O220 2.326 . S
O209 In208 2.294 . S
O209 C218 1.240 . S
O210 In208 2.326 . S
O210 C218 1.252 . S
C211 O214 1.252 . S
C211 O215 1.260 . S
C212 O219 1.240 . S
C212 O220 1.252 . S
C213 O216 1.252 . S
C213 O217 1.260 . S
O214 In208 2.266 . S
O214 C211 1.252 . S
O215 In208 2.326 . S
O215 C211 1.260 . S
O216 In208 2.266 . S
O216 C213 1.252 . S
O217 In208 2.326 . S
O217 C213 1.260 . S
C218 O209 1.240 . S
C218 O210 1.252 . S
O219 In208 2.294 . S
O219 C212 1.240 . S
O220 In208 2.326 . S
O220 C212 1.252 . S
In221 O222 2.294 . S
In221 O223 2.326 . S
In221 O227 2.266 . S
In221 O228 2.326 . S
In221 O229 2.266 . S
In221 O230 2.326 . S
In221 O232 2.294 . S
In221 O233 2.326 . S
O222 In221 2.294 . S
O222 C231 1.240 . S
O223 In221 2.326 . S
O223 C231 1.252 . S
C224 O227 1.252 . S
C224 O228 1.260 . S
C225 O232 1.240 . S
C225 O233 1.252 . S
C226 O229 1.252 . S
C226 O230 1.260 . S
O227 In221 2.266 . S
O227 C224 1.252 . S
O228 In221 2.326 . S
O228 C224 1.260 . S
O229 In221 2.266 . S
O229 C226 1.252 . S
O230 In221 2.326 . S
O230 C226 1.260 . S
C231 O222 1.240 . S
C231 O223 1.252 . S
O232 In221 2.294 . S
O232 C225 1.240 . S
O233 In221 2.326 . S
O233 C225 1.252 . S
In234 O235 2.294 . S
In234 O236 2.326 . S
In234 O240 2.266 . S
In234 O241 2.326 . S
In234 O242 2.266 . S
In234 O243 2.326 . S
In234 O245 2.294 . S
In234 O246 2.326 . S
O235 In234 2.294 . S
O235 C244 1.240 . S
O236 In234 2.326 . S
O236 C244 1.252 . S
C237 O240 1.252 . S
C237 O241 1.260 . S
C238 O245 1.240 . S
C238 O246 1.252 . S
C239 O242 1.252 . S
C239 O243 1.260 . S
O240 In234 2.266 . S
O240 C237 1.252 . S
O241 In234 2.326 . S
O241 C237 1.260 . S
O242 In234 2.266 . S
O242 C239 1.252 . S
O243 In234 2.326 . S
O243 C239 1.260 . S
C244 O235 1.240 . S
C244 O236 1.252 . S
O245 In234 2.294 . S
O245 C238 1.240 . S
O246 In234 2.326 . S
O246 C238 1.252 . S
In247 O248 2.294 . S
In247 O249 2.326 . S
In247 O253 2.266 . S
In247 O254 2.326 . S
In247 O255 2.266 . S
In247 O256 2.326 . S
In247 O258 2.294 . S
In247 O259 2.326 . S
O248 In247 2.294 . S
O248 C257 1.240 . S
O249 In247 2.326 . S
O249 C257 1.252 . S
C250 O253 1.252 . S
C250 O254 1.260 . S
C251 O258 1.240 . S
C251 O259 1.252 . S
C252 O255 1.252 . S
C252 O256 1.260 . S
O253 In247 2.266 . S
O253 C250 1.252 . S
O254 In247 2.326 . S
O254 C250 1.260 . S
O255 In247 2.266 . S
O255 C252 1.252 . S
O256 In247 2.326 . S
O256 C252 1.260 . S
C257 O248 1.240 . S
C257 O249 1.252 . S
O258 In247 2.294 . S
O258 C251 1.240 . S
O259 In247 2.326 . S
O259 C251 1.252 . S
In260 O261 2.294 . S
In260 O262 2.326 . S
In260 O266 2.266 . S
In260 O267 2.326 . S
In260 O268 2.266 . S
In260 O269 2.326 . S
In260 O271 2.294 . S
In260 O272 2.326 . S
O261 In260 2.294 . S
O261 C270 1.240 . S
O262 In260 2.326 . S
O262 C270 1.252 . S
C263 O266 1.252 . S
C263 O267 1.260 . S
C264 O271 1.240 . S
C264 O272 1.252 . S
C265 O268 1.252 . S
C265 O269 1.260 . S
O266 In260 2.266 . S
O266 C263 1.252 . S
O267 In260 2.326 . S
O267 C263 1.260 . S
O268 In260 2.266 . S
O268 C265 1.252 . S
O269 In260 2.326 . S
O269 C265 1.260 . S
C270 O261 1.240 . S
C270 O262 1.252 . S
O271 In260 2.294 . S
O271 C264 1.240 . S
O272 In260 2.326 . S
O272 C264 1.252 . S
In273 O274 2.294 . S
In273 O275 2.326 . S
In273 O279 2.266 . S
In273 O280 2.326 . S
In273 O281 2.266 . S
In273 O282 2.326 . S
In273 O284 2.294 . S
In273 O285 2.326 . S
O274 In273 2.294 . S
O274 C283 1.240 . S
O275 In273 2.326 . S
O275 C283 1.252 . S
C276 O279 1.252 . S
C276 O280 1.260 . S
C277 O284 1.240 . S
C277 O285 1.252 . S
C278 O281 1.252 . S
C278 O282 1.260 . S
O279 In273 2.266 . S
O279 C276 1.252 . S
O280 In273 2.326 . S
O280 C276 1.260 . S
O281 In273 2.266 . S
O281 C278 1.252 . S
O282 In273 2.326 . S
O282 C278 1.260 . S
C283 O274 1.240 . S
C283 O275 1.252 . S
O284 In273 2.294 . S
O284 C277 1.240 . S
O285 In273 2.326 . S
O285 C277 1.252 . S
In286 O287 2.294 . S
In286 O288 2.326 . S
In286 O292 2.266 . S
In286 O293 2.326 . S
In286 O294 2.266 . S
In286 O295 2.326 . S
In286 O297 2.294 . S
In286 O298 2.326 . S
O287 In286 2.294 . S
O287 C296 1.240 . S
O288 In286 2.326 . S
O288 C296 1.252 . S
C289 O292 1.252 . S
C289 O293 1.260 . S
C290 O297 1.240 . S
C290 O298 1.252 . S
C291 O294 1.252 . S
C291 O295 1.260 . S
O292 In286 2.266 . S
O292 C289 1.252 . S
O293 In286 2.326 . S
O293 C289 1.260 . S
O294 In286 2.266 . S
O294 C291 1.252 . S
O295 In286 2.326 . S
O295 C291 1.260 . S
C296 O287 1.240 . S
C296 O288 1.252 . S
O297 In286 2.294 . S
O297 C290 1.240 . S
O298 In286 2.326 . S
O298 C290 1.252 . S
In299 O300 2.294 . S
In299 O301 2.326 . S
In299 O305 2.266 . S
In299 O306 2.326 . S
In299 O307 2.266 . S
In299 O308 2.326 . S
In299 O310 2.294 . S
In299 O311 2.326 . S
O300 In299 2.294 . S
O300 C309 1.240 . S
O301 In299 2.326 . S
O301 C309 1.252 . S
C302 O305 1.252 . S
C302 O306 1.260 . S
C303 O310 1.240 . S
C303 O311 1.252 . S
C304 O307 1.252 . S
C304 O308 1.260 . S
O305 In299 2.266 . S
O305 C302 1.252 . S
O306 In299 2.326 . S
O306 C302 1.260 . S
O307 In299 2.266 . S
O307 C304 1.252 . S
O308 In299 2.326 . S
O308 C304 1.260 . S
C309 O300 1.240 . S
C309 O301 1.252 . S
O310 In299 2.294 . S
O310 C303 1.240 . S
O311 In299 2.326 . S
O311 C303 1.252 . S
In312 O313 2.294 . S
In312 O314 2.326 . S
In312 O318 2.266 . S
In312 O319 2.326 . S
In312 O320 2.266 . S
In312 O321 2.326 . S
In312 O323 2.294 . S
In312 O324 2.326 . S
O313 In312 2.294 . S
O313 C322 1.240 . S
O314 In312 2.326 . S
O314 C322 1.252 . S
C315 O318 1.252 . S
C315 O319 1.260 . S
C316 O323 1.240 . S
C316 O324 1.252 . S
C317 O320 1.252 . S
C317 O321 1.260 . S
O318 In312 2.266 . S
O318 C315 1.252 . S
O319 In312 2.326 . S
O319 C315 1.260 . S
O320 In312 2.266 . S
O320 C317 1.252 . S
O321 In312 2.326 . S
O321 C317 1.260 . S
C322 O313 1.240 . S
C322 O314 1.252 . S
O323 In312 2.294 . S
O323 C316 1.240 . S
O324 In312 2.326 . S
O324 C316 1.252 . S
In325 O326 2.294 . S
In325 O327 2.326 . S
In325 O331 2.266 . S
In325 O332 2.326 . S
In325 O333 2.266 . S
In325 O334 2.326 . S
In325 O336 2.294 . S
In325 O337 2.326 . S
O326 In325 2.294 . S
O326 C335 1.240 . S
O327 In325 2.326 . S
O327 C335 1.252 . S
C328 O331 1.252 . S
C328 O332 1.260 . S
C329 O336 1.240 . S
C329 O337 1.252 . S
C330 O333 1.252 . S
C330 O334 1.260 . S
O331 In325 2.266 . S
O331 C328 1.252 . S
O332 In325 2.326 . S
O332 C328 1.260 . S
O333 In325 2.266 . S
O333 C330 1.252 . S
O334 In325 2.326 . S
O334 C330 1.260 . S
C335 O326 1.240 . S
C335 O327 1.252 . S
O336 In325 2.294 . S
O336 C329 1.240 . S
O337 In325 2.326 . S
O337 C329 1.252 . S
In338 O339 2.294 . S
In338 O340 2.326 . S
In338 O344 2.266 . S
In338 O345 2.326 . S
In338 O346 2.266 . S
In338 O347 2.326 . S
In338 O349 2.294 . S
In338 O350 2.326 . S
O339 In338 2.294 . S
O339 C348 1.240 . S
O340 In338 2.326 . S
O340 C348 1.252 . S
C341 O344 1.252 . S
C341 O345 1.260 . S
C342 O349 1.240 . S
C342 O350 1.252 . S
C343 O346 1.252 . S
C343 O347 1.260 . S
O344 In338 2.266 . S
O344 C341 1.252 . S
O345 In338 2.326 . S
O345 C341 1.260 . S
O346 In338 2.266 . S
O346 C343 1.252 . S
O347 In338 2.326 . S
O347 C343 1.260 . S
C348 O339 1.240 . S
C348 O340 1.252 . S
O349 In338 2.294 . S
O349 C342 1.240 . S
O350 In338 2.326 . S
O350 C342 1.252 . S
In351 O352 2.294 . S
In351 O353 2.326 . S
In351 O357 2.266 . S
In351 O358 2.326 . S
In351 O359 2.266 . S
In351 O360 2.326 . S
In351 O362 2.294 . S
In351 O363 2.326 . S
O352 In351 2.294 . S
O352 C361 1.240 . S
O353 In351 2.326 . S
O353 C361 1.252 . S
C354 O357 1.252 . S
C354 O358 1.260 . S
C355 O362 1.240 . S
C355 O363 1.252 . S
C356 O359 1.252 . S
C356 O360 1.260 . S
O357 In351 2.266 . S
O357 C354 1.252 . S
O358 In351 2.326 . S
O358 C354 1.260 . S
O359 In351 2.266 . S
O359 C356 1.252 . S
O360 In351 2.326 . S
O360 C356 1.260 . S
C361 O352 1.240 . S
C361 O353 1.252 . S
O362 In351 2.294 . S
O362 C355 1.240 . S
O363 In351 2.326 . S
O363 C355 1.252 . S
In364 O365 2.294 . S
In364 O366 2.326 . S
In364 O370 2.266 . S
In364 O371 2.326 . S
In364 O372 2.266 . S
In364 O373 2.326 . S
In364 O375 2.294 . S
In364 O376 2.326 . S
O365 In364 2.294 . S
O365 C374 1.240 . S
O366 In364 2.326 . S
O366 C374 1.252 . S
C367 O370 1.252 . S
C367 O371 1.260 . S
C368 O375 1.240 . S
C368 O376 1.252 . S
C369 O372 1.252 . S
C369 O373 1.260 . S
O370 In364 2.266 . S
O370 C367 1.252 . S
O371 In364 2.326 . S
O371 C367 1.260 . S
O372 In364 2.266 . S
O372 C369 1.252 . S
O373 In364 2.326 . S
O373 C369 1.260 . S
C374 O365 1.240 . S
C374 O366 1.252 . S
O375 In364 2.294 . S
O375 C368 1.240 . S
O376 In364 2.326 . S
O376 C368 1.252 . S
In377 O378 2.294 . S
In377 O379 2.326 . S
In377 O383 2.266 . S
In377 O384 2.326 . S
In377 O385 2.266 . S
In377 O386 2.326 . S
In377 O388 2.294 . S
In377 O389 2.326 . S
O378 In377 2.294 . S
O378 C387 1.240 . S
O379 In377 2.326 . S
O379 C387 1.252 . S
C380 O383 1.252 . S
C380 O384 1.260 . S
C381 O388 1.240 . S
C381 O389 1.252 . S
C382 O385 1.252 . S
C382 O386 1.260 . S
O383 In377 2.266 . S
O383 C380 1.252 . S
O384 In377 2.326 . S
O384 C380 1.260 . S
O385 In377 2.266 . S
O385 C382 1.252 . S
O386 In377 2.326 . S
O386 C382 1.260 . S
C387 O378 1.240 . S
C387 O379 1.252 . S
O388 In377 2.294 . S
O388 C381 1.240 . S
O389 In377 2.326 . S
O389 C381 1.252 . S
In390 O391 2.294 . S
In390 O392 2.326 . S
In390 O396 2.266 . S
In390 O397 2.326 . S
In390 O398 2.266 . S
In390 O399 2.326 . S
In390 O401 2.294 . S
In390 O402 2.326 . S
O391 In390 2.294 . S
O391 C400 1.240 . S
O392 In390 2.326 . S
O392 C400 1.252 . S
C393 O396 1.252 . S
C393 O397 1.260 . S
C394 O401 1.240 . S
C394 O402 1.252 . S
C395 O398 1.252 . S
C395 O399 1.260 . S
O396 In390 2.266 . S
O396 C393 1.252 . S
O397 In390 2.326 . S
O397 C393 1.260 . S
O398 In390 2.266 . S
O398 C395 1.252 . S
O399 In390 2.326 . S
O399 C395 1.260 . S
C400 O391 1.240 . S
C400 O392 1.252 . S
O401 In390 2.294 . S
O401 C394 1.240 . S
O402 In390 2.326 . S
O402 C394 1.252 . S
In403 O404 2.294 . S
In403 O405 2.326 . S
In403 O409 2.266 . S
In403 O410 2.326 . S
In403 O411 2.266 . S
In403 O412 2.326 . S
In403 O414 2.294 . S
In403 O415 2.326 . S
O404 In403 2.294 . S
O404 C413 1.240 . S
O405 In403 2.326 . S
O405 C413 1.252 . S
C406 O409 1.252 . S
C406 O410 1.260 . S
C407 O414 1.240 . S
C407 O415 1.252 . S
C408 O411 1.252 . S
C408 O412 1.260 . S
O409 In403 2.266 . S
O409 C406 1.252 . S
O410 In403 2.326 . S
O410 C406 1.260 . S
O411 In403 2.266 . S
O411 C408 1.252 . S
O412 In403 2.326 . S
O412 C408 1.260 . S
C413 O404 1.240 . S
C413 O405 1.252 . S
O414 In403 2.294 . S
O414 C407 1.240 . S
O415 In403 2.326 . S
O415 C407 1.252 . S
H416 C428 0.930 . S
H417 C430 0.930 . S
H418 C431 0.930 . S
H419 C435 0.959 . S
H420 C435 0.959 . S
H421 C435 0.961 . S
H422 C436 0.960 . S
H423 C436 0.961 . S
H424 C436 0.959 . S
H425 C439 0.929 . S
H426 C440 0.931 . S
H427 C442 0.930 . S
C428 H416 0.930 . S
C428 C429 1.399 . S
C428 C433 1.399 . S
C429 C428 1.399 . S
C429 C430 1.376 . S
C430 H417 0.930 . S
C430 C429 1.376 . S
C430 C431 1.388 . S
C431 H418 0.930 . S
C431 C430 1.388 . S
C431 C432 1.390 . S
C432 C431 1.390 . S
C432 C433 1.394 . S
C432 C438 1.465 . S
C433 C428 1.399 . S
C433 C432 1.394 . S
C433 C434 1.516 . S
C434 C433 1.516 . S
C434 C435 1.502 . S
C434 C436 1.561 . S
C434 C437 1.526 . S
C435 H419 0.959 . S
C435 H420 0.959 . S
C435 H421 0.961 . S
C435 C434 1.502 . S
C436 H422 0.960 . S
C436 H423 0.961 . S
C436 H424 0.959 . S
C436 C434 1.561 . S
C437 C434 1.526 . S
C437 C438 1.396 . S
C437 C442 1.390 . S
C438 C432 1.465 . S
C438 C437 1.396 . S
C438 C439 1.399 . S
C439 H425 0.929 . S
C439 C438 1.399 . S
C439 C440 1.385 . S
C440 H426 0.931 . S
C440 C439 1.385 . S
C440 C441 1.389 . S
C441 C440 1.389 . S
C441 C442 1.387 . S
C442 H427 0.930 . S
C442 C437 1.390 . S
C442 C441 1.387 . S
H443 C455 0.930 . S
H444 C457 0.930 . S
H445 C458 0.930 . S
H446 C462 0.959 . S
H447 C462 0.959 . S
H448 C462 0.961 . S
H449 C463 0.960 . S
H450 C463 0.961 . S
H451 C463 0.959 . S
H452 C466 0.929 . S
H453 C467 0.931 . S
H454 C469 0.930 . S
C455 H443 0.930 . S
C455 C456 1.399 . S
C455 C460 1.399 . S
C456 C455 1.399 . S
C456 C457 1.376 . S
C457 H444 0.930 . S
C457 C456 1.376 . S
C457 C458 1.388 . S
C458 H445 0.930 . S
C458 C457 1.388 . S
C458 C459 1.390 . S
C459 C458 1.390 . S
C459 C460 1.394 . S
C459 C465 1.465 . S
C460 C455 1.399 . S
C460 C459 1.394 . S
C460 C461 1.516 . S
C461 C460 1.516 . S
C461 C462 1.502 . S
C461 C463 1.561 . S
C461 C464 1.526 . S
C462 H446 0.959 . S
C462 H447 0.959 . S
C462 H448 0.961 . S
C462 C461 1.502 . S
C463 H449 0.960 . S
C463 H450 0.961 . S
C463 H451 0.959 . S
C463 C461 1.561 . S
C464 C461 1.526 . S
C464 C465 1.396 . S
C464 C469 1.390 . S
C465 C459 1.465 . S
C465 C464 1.396 . S
C465 C466 1.399 . S
C466 H452 0.929 . S
C466 C465 1.399 . S
C466 C467 1.385 . S
C467 H453 0.931 . S
C467 C466 1.385 . S
C467 C468 1.389 . S
C468 C467 1.389 . S
C468 C469 1.387 . S
C469 H454 0.930 . S
C469 C464 1.390 . S
C469 C468 1.387 . S
H470 C482 0.930 . S
H471 C484 0.930 . S
H472 C485 0.930 . S
H473 C489 0.959 . S
H474 C489 0.959 . S
H475 C489 0.961 . S
H476 C490 0.960 . S
H477 C490 0.961 . S
H478 C490 0.959 . S
H479 C493 0.929 . S
H480 C494 0.931 . S
H481 C496 0.930 . S
C482 H470 0.930 . S
C482 C483 1.399 . S
C482 C487 1.399 . S
C483 C482 1.399 . S
C483 C484 1.376 . S
C484 H471 0.930 . S
C484 C483 1.376 . S
C484 C485 1.388 . S
C485 H472 0.930 . S
C485 C484 1.388 . S
C485 C486 1.390 . S
C486 C485 1.390 . S
C486 C487 1.394 . S
C486 C492 1.465 . S
C487 C482 1.399 . S
C487 C486 1.394 . S
C487 C488 1.516 . S
C488 C487 1.516 . S
C488 C489 1.502 . S
C488 C490 1.561 . S
C488 C491 1.526 . S
C489 H473 0.959 . S
C489 H474 0.959 . S
C489 H475 0.961 . S
C489 C488 1.502 . S
C490 H476 0.960 . S
C490 H477 0.961 . S
C490 H478 0.959 . S
C490 C488 1.561 . S
C491 C488 1.526 . S
C491 C492 1.396 . S
C491 C496 1.390 . S
C492 C486 1.465 . S
C492 C491 1.396 . S
C492 C493 1.399 . S
C493 H479 0.929 . S
C493 C492 1.399 . S
C493 C494 1.385 . S
C494 H480 0.931 . S
C494 C493 1.385 . S
C494 C495 1.389 . S
C495 C494 1.389 . S
C495 C496 1.387 . S
C496 H481 0.930 . S
C496 C491 1.390 . S
C496 C495 1.387 . S
H497 C509 0.930 . S
H498 C511 0.930 . S
H499 C512 0.930 . S
H500 C516 0.959 . S
H501 C516 0.959 . S
H502 C516 0.961 . S
H503 C517 0.960 . S
H504 C517 0.961 . S
H505 C517 0.959 . S
H506 C520 0.929 . S
H507 C521 0.931 . S
H508 C523 0.930 . S
C509 H497 0.930 . S
C509 C510 1.399 . S
C509 C514 1.399 . S
C510 C509 1.399 . S
C510 C511 1.376 . S
C511 H498 0.930 . S
C511 C510 1.376 . S
C511 C512 1.388 . S
C512 H499 0.930 . S
C512 C511 1.388 . S
C512 C513 1.390 . S
C513 C512 1.390 . S
C513 C514 1.394 . S
C513 C519 1.465 . S
C514 C509 1.399 . S
C514 C513 1.394 . S
C514 C515 1.516 . S
C515 C514 1.516 . S
C515 C516 1.502 . S
C515 C517 1.561 . S
C515 C518 1.526 . S
C516 H500 0.959 . S
C516 H501 0.959 . S
C516 H502 0.961 . S
C516 C515 1.502 . S
C517 H503 0.960 . S
C517 H504 0.961 . S
C517 H505 0.959 . S
C517 C515 1.561 . S
C518 C515 1.526 . S
C518 C519 1.396 . S
C518 C523 1.390 . S
C519 C513 1.465 . S
C519 C518 1.396 . S
C519 C520 1.399 . S
C520 H506 0.929 . S
C520 C519 1.399 . S
C520 C521 1.385 . S
C521 H507 0.931 . S
C521 C520 1.385 . S
C521 C522 1.389 . S
C522 C521 1.389 . S
C522 C523 1.387 . S
C523 H508 0.930 . S
C523 C518 1.390 . S
C523 C522 1.387 . S
H524 C536 0.930 . S
H525 C538 0.930 . S
H526 C539 0.930 . S
H527 C543 0.959 . S
H528 C543 0.959 . S
H529 C543 0.961 . S
H530 C544 0.960 . S
H531 C544 0.961 . S
H532 C544 0.959 . S
H533 C547 0.929 . S
H534 C548 0.931 . S
H535 C550 0.930 . S
C536 H524 0.930 . S
C536 C537 1.399 . S
C536 C541 1.399 . S
C537 C536 1.399 . S
C537 C538 1.376 . S
C538 H525 0.930 . S
C538 C537 1.376 . S
C538 C539 1.388 . S
C539 H526 0.930 . S
C539 C538 1.388 . S
C539 C540 1.390 . S
C540 C539 1.390 . S
C540 C541 1.394 . S
C540 C546 1.465 . S
C541 C536 1.399 . S
C541 C540 1.394 . S
C541 C542 1.516 . S
C542 C541 1.516 . S
C542 C543 1.502 . S
C542 C544 1.561 . S
C542 C545 1.526 . S
C543 H527 0.959 . S
C543 H528 0.959 . S
C543 H529 0.961 . S
C543 C542 1.502 . S
C544 H530 0.960 . S
C544 H531 0.961 . S
C544 H532 0.959 . S
C544 C542 1.561 . S
C545 C542 1.526 . S
C545 C546 1.396 . S
C545 C550 1.390 . S
C546 C540 1.465 . S
C546 C545 1.396 . S
C546 C547 1.399 . S
C547 H533 0.929 . S
C547 C546 1.399 . S
C547 C548 1.385 . S
C548 H534 0.931 . S
C548 C547 1.385 . S
C548 C549 1.389 . S
C549 C548 1.389 . S
C549 C550 1.387 . S
C550 H535 0.930 . S
C550 C545 1.390 . S
C550 C549 1.387 . S
H551 C563 0.930 . S
H552 C565 0.930 . S
H553 C566 0.930 . S
H554 C570 0.959 . S
H555 C570 0.959 . S
H556 C570 0.961 . S
H557 C571 0.960 . S
H558 C571 0.961 . S
H559 C571 0.959 . S
H560 C574 0.929 . S
H561 C575 0.931 . S
H562 C577 0.930 . S
C563 H551 0.930 . S
C563 C564 1.399 . S
C563 C568 1.399 . S
C564 C563 1.399 . S
C564 C565 1.376 . S
C565 H552 0.930 . S
C565 C564 1.376 . S
C565 C566 1.388 . S
C566 H553 0.930 . S
C566 C565 1.388 . S
C566 C567 1.390 . S
C567 C566 1.390 . S
C567 C568 1.394 . S
C567 C573 1.465 . S
C568 C563 1.399 . S
C568 C567 1.394 . S
C568 C569 1.516 . S
C569 C568 1.516 . S
C569 C570 1.502 . S
C569 C571 1.561 . S
C569 C572 1.526 . S
C570 H554 0.959 . S
C570 H555 0.959 . S
C570 H556 0.961 . S
C570 C569 1.502 . S
C571 H557 0.960 . S
C571 H558 0.961 . S
C571 H559 0.959 . S
C571 C569 1.561 . S
C572 C569 1.526 . S
C572 C573 1.396 . S
C572 C577 1.390 . S
C573 C567 1.465 . S
C573 C572 1.396 . S
C573 C574 1.399 . S
C574 H560 0.929 . S
C574 C573 1.399 . S
C574 C575 1.385 . S
C575 H561 0.931 . S
C575 C574 1.385 . S
C575 C576 1.389 . S
C576 C575 1.389 . S
C576 C577 1.387 . S
C577 H562 0.930 . S
C577 C572 1.390 . S
C577 C576 1.387 . S
H578 C590 0.930 . S
H579 C592 0.930 . S
H580 C593 0.930 . S
H581 C597 0.959 . S
H582 C597 0.959 . S
H583 C597 0.961 . S
H584 C598 0.960 . S
H585 C598 0.961 . S
H586 C598 0.959 . S
H587 C601 0.929 . S
H588 C602 0.931 . S
H589 C604 0.930 . S
C590 H578 0.930 . S
C590 C591 1.399 . S
C590 C595 1.399 . S
C591 C590 1.399 . S
C591 C592 1.376 . S
C592 H579 0.930 . S
C592 C591 1.376 . S
C592 C593 1.388 . S
C593 H580 0.930 . S
C593 C592 1.388 . S
C593 C594 1.390 . S
C594 C593 1.390 . S
C594 C595 1.394 . S
C594 C600 1.465 . S
C595 C590 1.399 . S
C595 C594 1.394 . S
C595 C596 1.516 . S
C596 C595 1.516 . S
C596 C597 1.502 . S
C596 C598 1.561 . S
C596 C599 1.526 . S
C597 H581 0.959 . S
C597 H582 0.959 . S
C597 H583 0.961 . S
C597 C596 1.502 . S
C598 H584 0.960 . S
C598 H585 0.961 . S
C598 H586 0.959 . S
C598 C596 1.561 . S
C599 C596 1.526 . S
C599 C600 1.396 . S
C599 C604 1.390 . S
C600 C594 1.465 . S
C600 C599 1.396 . S
C600 C601 1.399 . S
C601 H587 0.929 . S
C601 C600 1.399 . S
C601 C602 1.385 . S
C602 H588 0.931 . S
C602 C601 1.385 . S
C602 C603 1.389 . S
C603 C602 1.389 . S
C603 C604 1.387 . S
C604 H589 0.930 . S
C604 C599 1.390 . S
C604 C603 1.387 . S
H605 C617 0.930 . S
H606 C619 0.930 . S
H607 C620 0.930 . S
H608 C624 0.959 . S
H609 C624 0.959 . S
H610 C624 0.961 . S
H611 C625 0.960 . S
H612 C625 0.961 . S
H613 C625 0.959 . S
H614 C628 0.929 . S
H615 C629 0.931 . S
H616 C631 0.930 . S
C617 H605 0.930 . S
C617 C618 1.399 . S
C617 C622 1.399 . S
C618 C617 1.399 . S
C618 C619 1.376 . S
C619 H606 0.930 . S
C619 C618 1.376 . S
C619 C620 1.388 . S
C620 H607 0.930 . S
C620 C619 1.388 . S
C620 C621 1.390 . S
C621 C620 1.390 . S
C621 C622 1.394 . S
C621 C627 1.465 . S
C622 C617 1.399 . S
C622 C621 1.394 . S
C622 C623 1.516 . S
C623 C622 1.516 . S
C623 C624 1.502 . S
C623 C625 1.561 . S
C623 C626 1.526 . S
C624 H608 0.959 . S
C624 H609 0.959 . S
C624 H610 0.961 . S
C624 C623 1.502 . S
C625 H611 0.960 . S
C625 H612 0.961 . S
C625 H613 0.959 . S
C625 C623 1.561 . S
C626 C623 1.526 . S
C626 C627 1.396 . S
C626 C631 1.390 . S
C627 C621 1.465 . S
C627 C626 1.396 . S
C627 C628 1.399 . S
C628 H614 0.929 . S
C628 C627 1.399 . S
C628 C629 1.385 . S
C629 H615 0.931 . S
C629 C628 1.385 . S
C629 C630 1.389 . S
C630 C629 1.389 . S
C630 C631 1.387 . S
C631 H616 0.930 . S
C631 C626 1.390 . S
C631 C630 1.387 . S
H632 C644 0.930 . S
H633 C646 0.930 . S
H634 C647 0.930 . S
H635 C651 0.959 . S
H636 C651 0.959 . S
H637 C651 0.961 . S
H638 C652 0.960 . S
H639 C652 0.961 . S
H640 C652 0.959 . S
H641 C655 0.929 . S
H642 C656 0.931 . S
H643 C658 0.930 . S
C644 H632 0.930 . S
C644 C645 1.399 . S
C644 C649 1.399 . S
C645 C644 1.399 . S
C645 C646 1.376 . S
C646 H633 0.930 . S
C646 C645 1.376 . S
C646 C647 1.388 . S
C647 H634 0.930 . S
C647 C646 1.388 . S
C647 C648 1.390 . S
C648 C647 1.390 . S
C648 C649 1.394 . S
C648 C654 1.465 . S
C649 C644 1.399 . S
C649 C648 1.394 . S
C649 C650 1.516 . S
C650 C649 1.516 . S
C650 C651 1.502 . S
C650 C652 1.561 . S
C650 C653 1.526 . S
C651 H635 0.959 . S
C651 H636 0.959 . S
C651 H637 0.961 . S
C651 C650 1.502 . S
C652 H638 0.960 . S
C652 H639 0.961 . S
C652 H640 0.959 . S
C652 C650 1.561 . S
C653 C650 1.526 . S
C653 C654 1.396 . S
C653 C658 1.390 . S
C654 C648 1.465 . S
C654 C653 1.396 . S
C654 C655 1.399 . S
C655 H641 0.929 . S
C655 C654 1.399 . S
C655 C656 1.385 . S
C656 H642 0.931 . S
C656 C655 1.385 . S
C656 C657 1.389 . S
C657 C656 1.389 . S
C657 C658 1.387 . S
C658 H643 0.930 . S
C658 C653 1.390 . S
C658 C657 1.387 . S
H659 C671 0.930 . S
H660 C673 0.930 . S
H661 C674 0.930 . S
H662 C678 0.959 . S
H663 C678 0.959 . S
H664 C678 0.961 . S
H665 C679 0.960 . S
H666 C679 0.961 . S
H667 C679 0.959 . S
H668 C682 0.929 . S
H669 C683 0.931 . S
H670 C685 0.930 . S
C671 H659 0.930 . S
C671 C672 1.399 . S
C671 C676 1.399 . S
C672 C671 1.399 . S
C672 C673 1.376 . S
C673 H660 0.930 . S
C673 C672 1.376 . S
C673 C674 1.388 . S
C674 H661 0.930 . S
C674 C673 1.388 . S
C674 C675 1.390 . S
C675 C674 1.390 . S
C675 C676 1.394 . S
C675 C681 1.465 . S
C676 C671 1.399 . S
C676 C675 1.394 . S
C676 C677 1.516 . S
C677 C676 1.516 . S
C677 C678 1.502 . S
C677 C679 1.561 . S
C677 C680 1.526 . S
C678 H662 0.959 . S
C678 H663 0.959 . S
C678 H664 0.961 . S
C678 C677 1.502 . S
C679 H665 0.960 . S
C679 H666 0.961 . S
C679 H667 0.959 . S
C679 C677 1.561 . S
C680 C677 1.526 . S
C680 C681 1.396 . S
C680 C685 1.390 . S
C681 C675 1.465 . S
C681 C680 1.396 . S
C681 C682 1.399 . S
C682 H668 0.929 . S
C682 C681 1.399 . S
C682 C683 1.385 . S
C683 H669 0.931 . S
C683 C682 1.385 . S
C683 C684 1.389 . S
C684 C683 1.389 . S
C684 C685 1.387 . S
C685 H670 0.930 . S
C685 C680 1.390 . S
C685 C684 1.387 . S
H686 C698 0.930 . S
H687 C700 0.930 . S
H688 C701 0.930 . S
H689 C705 0.959 . S
H690 C705 0.959 . S
H691 C705 0.961 . S
H692 C706 0.960 . S
H693 C706 0.961 . S
H694 C706 0.959 . S
H695 C709 0.929 . S
H696 C710 0.931 . S
H697 C712 0.930 . S
C698 H686 0.930 . S
C698 C699 1.399 . S
C698 C703 1.399 . S
C699 C698 1.399 . S
C699 C700 1.376 . S
C700 H687 0.930 . S
C700 C699 1.376 . S
C700 C701 1.388 . S
C701 H688 0.930 . S
C701 C700 1.388 . S
C701 C702 1.390 . S
C702 C701 1.390 . S
C702 C703 1.394 . S
C702 C708 1.465 . S
C703 C698 1.399 . S
C703 C702 1.394 . S
C703 C704 1.516 . S
C704 C703 1.516 . S
C704 C705 1.502 . S
C704 C706 1.561 . S
C704 C707 1.526 . S
C705 H689 0.959 . S
C705 H690 0.959 . S
C705 H691 0.961 . S
C705 C704 1.502 . S
C706 H692 0.960 . S
C706 H693 0.961 . S
C706 H694 0.959 . S
C706 C704 1.561 . S
C707 C704 1.526 . S
C707 C708 1.396 . S
C707 C712 1.390 . S
C708 C702 1.465 . S
C708 C707 1.396 . S
C708 C709 1.399 . S
C709 H695 0.929 . S
C709 C708 1.399 . S
C709 C710 1.385 . S
C710 H696 0.931 . S
C710 C709 1.385 . S
C710 C711 1.389 . S
C711 C710 1.389 . S
C711 C712 1.387 . S
C712 H697 0.930 . S
C712 C707 1.390 . S
C712 C711 1.387 . S
H713 C725 0.930 . S
H714 C727 0.930 . S
H715 C728 0.930 . S
H716 C732 0.959 . S
H717 C732 0.959 . S
H718 C732 0.961 . S
H719 C733 0.960 . S
H720 C733 0.961 . S
H721 C733 0.959 . S
H722 C736 0.929 . S
H723 C737 0.931 . S
H724 C739 0.930 . S
C725 H713 0.930 . S
C725 C726 1.399 . S
C725 C730 1.399 . S
C726 C725 1.399 . S
C726 C727 1.376 . S
C727 H714 0.930 . S
C727 C726 1.376 . S
C727 C728 1.388 . S
C728 H715 0.930 . S
C728 C727 1.388 . S
C728 C729 1.390 . S
C729 C728 1.390 . S
C729 C730 1.394 . S
C729 C735 1.465 . S
C730 C725 1.399 . S
C730 C729 1.394 . S
C730 C731 1.516 . S
C731 C730 1.516 . S
C731 C732 1.502 . S
C731 C733 1.561 . S
C731 C734 1.526 . S
C732 H716 0.959 . S
C732 H717 0.959 . S
C732 H718 0.961 . S
C732 C731 1.502 . S
C733 H719 0.960 . S
C733 H720 0.961 . S
C733 H721 0.959 . S
C733 C731 1.561 . S
C734 C731 1.526 . S
C734 C735 1.396 . S
C734 C739 1.390 . S
C735 C729 1.465 . S
C735 C734 1.396 . S
C735 C736 1.399 . S
C736 H722 0.929 . S
C736 C735 1.399 . S
C736 C737 1.385 . S
C737 H723 0.931 . S
C737 C736 1.385 . S
C737 C738 1.389 . S
C738 C737 1.389 . S
C738 C739 1.387 . S
C739 H724 0.930 . S
C739 C734 1.390 . S
C739 C738 1.387 . S
H740 C752 0.930 . S
H741 C754 0.930 . S
H742 C755 0.930 . S
H743 C759 0.959 . S
H744 C759 0.959 . S
H745 C759 0.961 . S
H746 C760 0.960 . S
H747 C760 0.961 . S
H748 C760 0.959 . S
H749 C763 0.929 . S
H750 C764 0.931 . S
H751 C766 0.930 . S
C752 H740 0.930 . S
C752 C753 1.399 . S
C752 C757 1.399 . S
C753 C752 1.399 . S
C753 C754 1.376 . S
C754 H741 0.930 . S
C754 C753 1.376 . S
C754 C755 1.388 . S
C755 H742 0.930 . S
C755 C754 1.388 . S
C755 C756 1.390 . S
C756 C755 1.390 . S
C756 C757 1.394 . S
C756 C762 1.465 . S
C757 C752 1.399 . S
C757 C756 1.394 . S
C757 C758 1.516 . S
C758 C757 1.516 . S
C758 C759 1.502 . S
C758 C760 1.561 . S
C758 C761 1.526 . S
C759 H743 0.959 . S
C759 H744 0.959 . S
C759 H745 0.961 . S
C759 C758 1.502 . S
C760 H746 0.960 . S
C760 H747 0.961 . S
C760 H748 0.959 . S
C760 C758 1.561 . S
C761 C758 1.526 . S
C761 C762 1.396 . S
C761 C766 1.390 . S
C762 C756 1.465 . S
C762 C761 1.396 . S
C762 C763 1.399 . S
C763 H749 0.929 . S
C763 C762 1.399 . S
C763 C764 1.385 . S
C764 H750 0.931 . S
C764 C763 1.385 . S
C764 C765 1.389 . S
C765 C764 1.389 . S
C765 C766 1.387 . S
C766 H751 0.930 . S
C766 C761 1.390 . S
C766 C765 1.387 . S
H767 C779 0.930 . S
H768 C781 0.930 . S
H769 C782 0.930 . S
H770 C786 0.959 . S
H771 C786 0.959 . S
H772 C786 0.961 . S
H773 C787 0.960 . S
H774 C787 0.961 . S
H775 C787 0.959 . S
H776 C790 0.929 . S
H777 C791 0.931 . S
H778 C793 0.930 . S
C779 H767 0.930 . S
C779 C780 1.399 . S
C779 C784 1.399 . S
C780 C779 1.399 . S
C780 C781 1.376 . S
C781 H768 0.930 . S
C781 C780 1.376 . S
C781 C782 1.388 . S
C782 H769 0.930 . S
C782 C781 1.388 . S
C782 C783 1.390 . S
C783 C782 1.390 . S
C783 C784 1.394 . S
C783 C789 1.465 . S
C784 C779 1.399 . S
C784 C783 1.394 . S
C784 C785 1.516 . S
C785 C784 1.516 . S
C785 C786 1.502 . S
C785 C787 1.561 . S
C785 C788 1.526 . S
C786 H770 0.959 . S
C786 H771 0.959 . S
C786 H772 0.961 . S
C786 C785 1.502 . S
C787 H773 0.960 . S
C787 H774 0.961 . S
C787 H775 0.959 . S
C787 C785 1.561 . S
C788 C785 1.526 . S
C788 C789 1.396 . S
C788 C793 1.390 . S
C789 C783 1.465 . S
C789 C788 1.396 . S
C789 C790 1.399 . S
C790 H776 0.929 . S
C790 C789 1.399 . S
C790 C791 1.385 . S
C791 H777 0.931 . S
C791 C790 1.385 . S
C791 C792 1.389 . S
C792 C791 1.389 . S
C792 C793 1.387 . S
C793 H778 0.930 . S
C793 C788 1.390 . S
C793 C792 1.387 . S
H794 C806 0.930 . S
H795 C808 0.930 . S
H796 C809 0.930 . S
H797 C813 0.959 . S
H798 C813 0.959 . S
H799 C813 0.961 . S
H800 C814 0.960 . S
H801 C814 0.961 . S
H802 C814 0.959 . S
H803 C817 0.929 . S
H804 C818 0.931 . S
H805 C820 0.930 . S
C806 H794 0.930 . S
C806 C807 1.399 . S
C806 C811 1.399 . S
C807 C806 1.399 . S
C807 C808 1.376 . S
C808 H795 0.930 . S
C808 C807 1.376 . S
C808 C809 1.388 . S
C809 H796 0.930 . S
C809 C808 1.388 . S
C809 C810 1.390 . S
C810 C809 1.390 . S
C810 C811 1.394 . S
C810 C816 1.465 . S
C811 C806 1.399 . S
C811 C810 1.394 . S
C811 C812 1.516 . S
C812 C811 1.516 . S
C812 C813 1.502 . S
C812 C814 1.561 . S
C812 C815 1.526 . S
C813 H797 0.959 . S
C813 H798 0.959 . S
C813 H799 0.961 . S
C813 C812 1.502 . S
C814 H800 0.960 . S
C814 H801 0.961 . S
C814 H802 0.959 . S
C814 C812 1.561 . S
C815 C812 1.526 . S
C815 C816 1.396 . S
C815 C820 1.390 . S
C816 C810 1.465 . S
C816 C815 1.396 . S
C816 C817 1.399 . S
C817 H803 0.929 . S
C817 C816 1.399 . S
C817 C818 1.385 . S
C818 H804 0.931 . S
C818 C817 1.385 . S
C818 C819 1.389 . S
C819 C818 1.389 . S
C819 C820 1.387 . S
C820 H805 0.930 . S
C820 C815 1.390 . S
C820 C819 1.387 . S
H821 C833 0.930 . S
H822 C835 0.930 . S
H823 C836 0.930 . S
H824 C840 0.959 . S
H825 C840 0.959 . S
H826 C840 0.961 . S
H827 C841 0.960 . S
H828 C841 0.961 . S
H829 C841 0.959 . S
H830 C844 0.929 . S
H831 C845 0.931 . S
H832 C847 0.930 . S
C833 H821 0.930 . S
C833 C834 1.399 . S
C833 C838 1.399 . S
C834 C833 1.399 . S
C834 C835 1.376 . S
C835 H822 0.930 . S
C835 C834 1.376 . S
C835 C836 1.388 . S
C836 H823 0.930 . S
C836 C835 1.388 . S
C836 C837 1.390 . S
C837 C836 1.390 . S
C837 C838 1.394 . S
C837 C843 1.465 . S
C838 C833 1.399 . S
C838 C837 1.394 . S
C838 C839 1.516 . S
C839 C838 1.516 . S
C839 C840 1.502 . S
C839 C841 1.561 . S
C839 C842 1.526 . S
C840 H824 0.959 . S
C840 H825 0.959 . S
C840 H826 0.961 . S
C840 C839 1.502 . S
C841 H827 0.960 . S
C841 H828 0.961 . S
C841 H829 0.959 . S
C841 C839 1.561 . S
C842 C839 1.526 . S
C842 C843 1.396 . S
C842 C847 1.390 . S
C843 C837 1.465 . S
C843 C842 1.396 . S
C843 C844 1.399 . S
C844 H830 0.929 . S
C844 C843 1.399 . S
C844 C845 1.385 . S
C845 H831 0.931 . S
C845 C844 1.385 . S
C845 C846 1.389 . S
C846 C845 1.389 . S
C846 C847 1.387 . S
C847 H832 0.930 . S
C847 C842 1.390 . S
C847 C846 1.387 . S
H848 C860 0.930 . S
H849 C862 0.930 . S
H850 C863 0.930 . S
H851 C867 0.959 . S
H852 C867 0.959 . S
H853 C867 0.961 . S
H854 C868 0.960 . S
H855 C868 0.961 . S
H856 C868 0.959 . S
H857 C871 0.929 . S
H858 C872 0.931 . S
H859 C874 0.930 . S
C860 H848 0.930 . S
C860 C861 1.399 . S
C860 C865 1.399 . S
C861 C860 1.399 . S
C861 C862 1.376 . S
C862 H849 0.930 . S
C862 C861 1.376 . S
C862 C863 1.388 . S
C863 H850 0.930 . S
C863 C862 1.388 . S
C863 C864 1.390 . S
C864 C863 1.390 . S
C864 C865 1.394 . S
C864 C870 1.465 . S
C865 C860 1.399 . S
C865 C864 1.394 . S
C865 C866 1.516 . S
C866 C865 1.516 . S
C866 C867 1.502 . S
C866 C868 1.561 . S
C866 C869 1.526 . S
C867 H851 0.959 . S
C867 H852 0.959 . S
C867 H853 0.961 . S
C867 C866 1.502 . S
C868 H854 0.960 . S
C868 H855 0.961 . S
C868 H856 0.959 . S
C868 C866 1.561 . S
C869 C866 1.526 . S
C869 C870 1.396 . S
C869 C874 1.390 . S
C870 C864 1.465 . S
C870 C869 1.396 . S
C870 C871 1.399 . S
C871 H857 0.929 . S
C871 C870 1.399 . S
C871 C872 1.385 . S
C872 H858 0.931 . S
C872 C871 1.385 . S
C872 C873 1.389 . S
C873 C872 1.389 . S
C873 C874 1.387 . S
C874 H859 0.930 . S
C874 C869 1.390 . S
C874 C873 1.387 . S
H875 C887 0.930 . S
H876 C889 0.930 . S
H877 C890 0.930 . S
H878 C894 0.959 . S
H879 C894 0.959 . S
H880 C894 0.961 . S
H881 C895 0.960 . S
H882 C895 0.961 . S
H883 C895 0.959 . S
H884 C898 0.929 . S
H885 C899 0.931 . S
H886 C901 0.930 . S
C887 H875 0.930 . S
C887 C888 1.399 . S
C887 C892 1.399 . S
C888 C887 1.399 . S
C888 C889 1.376 . S
C889 H876 0.930 . S
C889 C888 1.376 . S
C889 C890 1.388 . S
C890 H877 0.930 . S
C890 C889 1.388 . S
C890 C891 1.390 . S
C891 C890 1.390 . S
C891 C892 1.394 . S
C891 C897 1.465 . S
C892 C887 1.399 . S
C892 C891 1.394 . S
C892 C893 1.516 . S
C893 C892 1.516 . S
C893 C894 1.502 . S
C893 C895 1.561 . S
C893 C896 1.526 . S
C894 H878 0.959 . S
C894 H879 0.959 . S
C894 H880 0.961 . S
C894 C893 1.502 . S
C895 H881 0.960 . S
C895 H882 0.961 . S
C895 H883 0.959 . S
C895 C893 1.561 . S
C896 C893 1.526 . S
C896 C897 1.396 . S
C896 C901 1.390 . S
C897 C891 1.465 . S
C897 C896 1.396 . S
C897 C898 1.399 . S
C898 H884 0.929 . S
C898 C897 1.399 . S
C898 C899 1.385 . S
C899 H885 0.931 . S
C899 C898 1.385 . S
C899 C900 1.389 . S
C900 C899 1.389 . S
C900 C901 1.387 . S
C901 H886 0.930 . S
C901 C896 1.390 . S
C901 C900 1.387 . S
H902 C914 0.930 . S
H903 C916 0.930 . S
H904 C917 0.930 . S
H905 C921 0.959 . S
H906 C921 0.959 . S
H907 C921 0.961 . S
H908 C922 0.960 . S
H909 C922 0.961 . S
H910 C922 0.959 . S
H911 C925 0.929 . S
H912 C926 0.931 . S
H913 C928 0.930 . S
C914 H902 0.930 . S
C914 C915 1.399 . S
C914 C919 1.399 . S
C915 C914 1.399 . S
C915 C916 1.376 . S
C916 H903 0.930 . S
C916 C915 1.376 . S
C916 C917 1.388 . S
C917 H904 0.930 . S
C917 C916 1.388 . S
C917 C918 1.390 . S
C918 C917 1.390 . S
C918 C919 1.394 . S
C918 C924 1.465 . S
C919 C914 1.399 . S
C919 C918 1.394 . S
C919 C920 1.516 . S
C920 C919 1.516 . S
C920 C921 1.502 . S
C920 C922 1.561 . S
C920 C923 1.526 . S
C921 H905 0.959 . S
C921 H906 0.959 . S
C921 H907 0.961 . S
C921 C920 1.502 . S
C922 H908 0.960 . S
C922 H909 0.961 . S
C922 H910 0.959 . S
C922 C920 1.561 . S
C923 C920 1.526 . S
C923 C924 1.396 . S
C923 C928 1.390 . S
C924 C918 1.465 . S
C924 C923 1.396 . S
C924 C925 1.399 . S
C925 H911 0.929 . S
C925 C924 1.399 . S
C925 C926 1.385 . S
C926 H912 0.931 . S
C926 C925 1.385 . S
C926 C927 1.389 . S
C927 C926 1.389 . S
C927 C928 1.387 . S
C928 H913 0.930 . S
C928 C923 1.390 . S
C928 C927 1.387 . S
H929 C941 0.930 . S
H930 C943 0.930 . S
H931 C944 0.930 . S
H932 C948 0.959 . S
H933 C948 0.959 . S
H934 C948 0.961 . S
H935 C949 0.960 . S
H936 C949 0.961 . S
H937 C949 0.959 . S
H938 C952 0.929 . S
H939 C953 0.931 . S
H940 C955 0.930 . S
C941 H929 0.930 . S
C941 C942 1.399 . S
C941 C946 1.399 . S
C942 C941 1.399 . S
C942 C943 1.376 . S
C943 H930 0.930 . S
C943 C942 1.376 . S
C943 C944 1.388 . S
C944 H931 0.930 . S
C944 C943 1.388 . S
C944 C945 1.390 . S
C945 C944 1.390 . S
C945 C946 1.394 . S
C945 C951 1.465 . S
C946 C941 1.399 . S
C946 C945 1.394 . S
C946 C947 1.516 . S
C947 C946 1.516 . S
C947 C948 1.502 . S
C947 C949 1.561 . S
C947 C950 1.526 . S
C948 H932 0.959 . S
C948 H933 0.959 . S
C948 H934 0.961 . S
C948 C947 1.502 . S
C949 H935 0.960 . S
C949 H936 0.961 . S
C949 H937 0.959 . S
C949 C947 1.561 . S
C950 C947 1.526 . S
C950 C951 1.396 . S
C950 C955 1.390 . S
C951 C945 1.465 . S
C951 C950 1.396 . S
C951 C952 1.399 . S
C952 H938 0.929 . S
C952 C951 1.399 . S
C952 C953 1.385 . S
C953 H939 0.931 . S
C953 C952 1.385 . S
C953 C954 1.389 . S
C954 C953 1.389 . S
C954 C955 1.387 . S
C955 H940 0.930 . S
C955 C950 1.390 . S
C955 C954 1.387 . S
H956 C968 0.930 . S
H957 C970 0.930 . S
H958 C971 0.930 . S
H959 C975 0.959 . S
H960 C975 0.959 . S
H961 C975 0.961 . S
H962 C976 0.960 . S
H963 C976 0.961 . S
H964 C976 0.959 . S
H965 C979 0.929 . S
H966 C980 0.931 . S
H967 C982 0.930 . S
C968 H956 0.930 . S
C968 C969 1.399 . S
C968 C973 1.399 . S
C969 C968 1.399 . S
C969 C970 1.376 . S
C970 H957 0.930 . S
C970 C969 1.376 . S
C970 C971 1.388 . S
C971 H958 0.930 . S
C971 C970 1.388 . S
C971 C972 1.390 . S
C972 C971 1.390 . S
C972 C973 1.394 . S
C972 C978 1.465 . S
C973 C968 1.399 . S
C973 C972 1.394 . S
C973 C974 1.516 . S
C974 C973 1.516 . S
C974 C975 1.502 . S
C974 C976 1.561 . S
C974 C977 1.526 . S
C975 H959 0.959 . S
C975 H960 0.959 . S
C975 H961 0.961 . S
C975 C974 1.502 . S
C976 H962 0.960 . S
C976 H963 0.961 . S
C976 H964 0.959 . S
C976 C974 1.561 . S
C977 C974 1.526 . S
C977 C978 1.396 . S
C977 C982 1.390 . S
C978 C972 1.465 . S
C978 C977 1.396 . S
C978 C979 1.399 . S
C979 H965 0.929 . S
C979 C978 1.399 . S
C979 C980 1.385 . S
C980 H966 0.931 . S
C980 C979 1.385 . S
C980 C981 1.389 . S
C981 C980 1.389 . S
C981 C982 1.387 . S
C982 H967 0.930 . S
C982 C977 1.390 . S
C982 C981 1.387 . S
H983 C995 0.930 . S
H984 C997 0.930 . S
H985 C998 0.930 . S
H986 C1002 0.959 . S
H987 C1002 0.959 . S
H988 C1002 0.961 . S
H989 C1003 0.960 . S
H990 C1003 0.961 . S
H991 C1003 0.959 . S
H992 C1006 0.929 . S
H993 C1007 0.931 . S
H994 C1009 0.930 . S
C995 H983 0.930 . S
C995 C996 1.399 . S
C995 C1000 1.399 . S
C996 C995 1.399 . S
C996 C997 1.376 . S
C997 H984 0.930 . S
C997 C996 1.376 . S
C997 C998 1.388 . S
C998 H985 0.930 . S
C998 C997 1.388 . S
C998 C999 1.390 . S
C999 C998 1.390 . S
C999 C1000 1.394 . S
C999 C1005 1.465 . S
C1000 C995 1.399 . S
C1000 C999 1.394 . S
C1000 C1001 1.516 . S
C1001 C1000 1.516 . S
C1001 C1002 1.502 . S
C1001 C1003 1.561 . S
C1001 C1004 1.526 . S
C1002 H986 0.959 . S
C1002 H987 0.959 . S
C1002 H988 0.961 . S
C1002 C1001 1.502 . S
C1003 H989 0.960 . S
C1003 H990 0.961 . S
C1003 H991 0.959 . S
C1003 C1001 1.561 . S
C1004 C1001 1.526 . S
C1004 C1005 1.396 . S
C1004 C1009 1.390 . S
C1005 C999 1.465 . S
C1005 C1004 1.396 . S
C1005 C1006 1.399 . S
C1006 H992 0.929 . S
C1006 C1005 1.399 . S
C1006 C1007 1.385 . S
C1007 H993 0.931 . S
C1007 C1006 1.385 . S
C1007 C1008 1.389 . S
C1008 C1007 1.389 . S
C1008 C1009 1.387 . S
C1009 H994 0.930 . S
C1009 C1004 1.390 . S
C1009 C1008 1.387 . S
H1010 C1022 0.930 . S
H1011 C1024 0.930 . S
H1012 C1025 0.930 . S
H1013 C1029 0.959 . S
H1014 C1029 0.959 . S
H1015 C1029 0.961 . S
H1016 C1030 0.960 . S
H1017 C1030 0.961 . S
H1018 C1030 0.959 . S
H1019 C1033 0.929 . S
H1020 C1034 0.931 . S
H1021 C1036 0.930 . S
C1022 H1010 0.930 . S
C1022 C1023 1.399 . S
C1022 C1027 1.399 . S
C1023 C1022 1.399 . S
C1023 C1024 1.376 . S
C1024 H1011 0.930 . S
C1024 C1023 1.376 . S
C1024 C1025 1.388 . S
C1025 H1012 0.930 . S
C1025 C1024 1.388 . S
C1025 C1026 1.390 . S
C1026 C1025 1.390 . S
C1026 C1027 1.394 . S
C1026 C1032 1.465 . S
C1027 C1022 1.399 . S
C1027 C1026 1.394 . S
C1027 C1028 1.516 . S
C1028 C1027 1.516 . S
C1028 C1029 1.502 . S
C1028 C1030 1.561 . S
C1028 C1031 1.526 . S
C1029 H1013 0.959 . S
C1029 H1014 0.959 . S
C1029 H1015 0.961 . S
C1029 C1028 1.502 . S
C1030 H1016 0.960 . S
C1030 H1017 0.961 . S
C1030 H1018 0.959 . S
C1030 C1028 1.561 . S
C1031 C1028 1.526 . S
C1031 C1032 1.396 . S
C1031 C1036 1.390 . S
C1032 C1026 1.465 . S
C1032 C1031 1.396 . S
C1032 C1033 1.399 . S
C1033 H1019 0.929 . S
C1033 C1032 1.399 . S
C1033 C1034 1.385 . S
C1034 H1020 0.931 . S
C1034 C1033 1.385 . S
C1034 C1035 1.389 . S
C1035 C1034 1.389 . S
C1035 C1036 1.387 . S
C1036 H1021 0.930 . S
C1036 C1031 1.390 . S
C1036 C1035 1.387 . S
H1037 C1049 0.930 . S
H1038 C1051 0.930 . S
H1039 C1052 0.930 . S
H1040 C1056 0.959 . S
H1041 C1056 0.959 . S
H1042 C1056 0.961 . S
H1043 C1057 0.960 . S
H1044 C1057 0.961 . S
H1045 C1057 0.959 . S
H1046 C1060 0.929 . S
H1047 C1061 0.931 . S
H1048 C1063 0.930 . S
C1049 H1037 0.930 . S
C1049 C1050 1.399 . S
C1049 C1054 1.399 . S
C1050 C1049 1.399 . S
C1050 C1051 1.376 . S
C1051 H1038 0.930 . S
C1051 C1050 1.376 . S
C1051 C1052 1.388 . S
C1052 H1039 0.930 . S
C1052 C1051 1.388 . S
C1052 C1053 1.390 . S
C1053 C1052 1.390 . S
C1053 C1054 1.394 . S
C1053 C1059 1.465 . S
C1054 C1049 1.399 . S
C1054 C1053 1.394 . S
C1054 C1055 1.516 . S
C1055 C1054 1.516 . S
C1055 C1056 1.502 . S
C1055 C1057 1.561 . S
C1055 C1058 1.526 . S
C1056 H1040 0.959 . S
C1056 H1041 0.959 . S
C1056 H1042 0.961 . S
C1056 C1055 1.502 . S
C1057 H1043 0.960 . S
C1057 H1044 0.961 . S
C1057 H1045 0.959 . S
C1057 C1055 1.561 . S
C1058 C1055 1.526 . S
C1058 C1059 1.396 . S
C1058 C1063 1.390 . S
C1059 C1053 1.465 . S
C1059 C1058 1.396 . S
C1059 C1060 1.399 . S
C1060 H1046 0.929 . S
C1060 C1059 1.399 . S
C1060 C1061 1.385 . S
C1061 H1047 0.931 . S
C1061 C1060 1.385 . S
C1061 C1062 1.389 . S
C1062 C1061 1.389 . S
C1062 C1063 1.387 . S
C1063 H1048 0.930 . S
C1063 C1058 1.390 . S
C1063 C1062 1.387 . S
H1064 C1076 0.930 . S
H1065 C1078 0.930 . S
H1066 C1079 0.930 . S
H1067 C1083 0.959 . S
H1068 C1083 0.959 . S
H1069 C1083 0.961 . S
H1070 C1084 0.960 . S
H1071 C1084 0.961 . S
H1072 C1084 0.959 . S
H1073 C1087 0.929 . S
H1074 C1088 0.931 . S
H1075 C1090 0.930 . S
C1076 H1064 0.930 . S
C1076 C1077 1.399 . S
C1076 C1081 1.399 . S
C1077 C1076 1.399 . S
C1077 C1078 1.376 . S
C1078 H1065 0.930 . S
C1078 C1077 1.376 . S
C1078 C1079 1.388 . S
C1079 H1066 0.930 . S
C1079 C1078 1.388 . S
C1079 C1080 1.390 . S
C1080 C1079 1.390 . S
C1080 C1081 1.394 . S
C1080 C1086 1.465 . S
C1081 C1076 1.399 . S
C1081 C1080 1.394 . S
C1081 C1082 1.516 . S
C1082 C1081 1.516 . S
C1082 C1083 1.502 . S
C1082 C1084 1.561 . S
C1082 C1085 1.526 . S
C1083 H1067 0.959 . S
C1083 H1068 0.959 . S
C1083 H1069 0.961 . S
C1083 C1082 1.502 . S
C1084 H1070 0.960 . S
C1084 H1071 0.961 . S
C1084 H1072 0.959 . S
C1084 C1082 1.561 . S
C1085 C1082 1.526 . S
C1085 C1086 1.396 . S
C1085 C1090 1.390 . S
C1086 C1080 1.465 . S
C1086 C1085 1.396 . S
C1086 C1087 1.399 . S
C1087 H1073 0.929 . S
C1087 C1086 1.399 . S
C1087 C1088 1.385 . S
C1088 H1074 0.931 . S
C1088 C1087 1.385 . S
C1088 C1089 1.389 . S
C1089 C1088 1.389 . S
C1089 C1090 1.387 . S
C1090 H1075 0.930 . S
C1090 C1085 1.390 . S
C1090 C1089 1.387 . S
H1091 C1103 0.930 . S
H1092 C1105 0.930 . S
H1093 C1106 0.930 . S
H1094 C1110 0.959 . S
H1095 C1110 0.959 . S
H1096 C1110 0.961 . S
H1097 C1111 0.960 . S
H1098 C1111 0.961 . S
H1099 C1111 0.959 . S
H1100 C1114 0.929 . S
H1101 C1115 0.931 . S
H1102 C1117 0.930 . S
C1103 H1091 0.930 . S
C1103 C1104 1.399 . S
C1103 C1108 1.399 . S
C1104 C1103 1.399 . S
C1104 C1105 1.376 . S
C1105 H1092 0.930 . S
C1105 C1104 1.376 . S
C1105 C1106 1.388 . S
C1106 H1093 0.930 . S
C1106 C1105 1.388 . S
C1106 C1107 1.390 . S
C1107 C1106 1.390 . S
C1107 C1108 1.394 . S
C1107 C1113 1.465 . S
C1108 C1103 1.399 . S
C1108 C1107 1.394 . S
C1108 C1109 1.516 . S
C1109 C1108 1.516 . S
C1109 C1110 1.502 . S
C1109 C1111 1.561 . S
C1109 C1112 1.526 . S
C1110 H1094 0.959 . S
C1110 H1095 0.959 . S
C1110 H1096 0.961 . S
C1110 C1109 1.502 . S
C1111 H1097 0.960 . S
C1111 H1098 0.961 . S
C1111 H1099 0.959 . S
C1111 C1109 1.561 . S
C1112 C1109 1.526 . S
C1112 C1113 1.396 . S
C1112 C1117 1.390 . S
C1113 C1107 1.465 . S
C1113 C1112 1.396 . S
C1113 C1114 1.399 . S
C1114 H1100 0.929 . S
C1114 C1113 1.399 . S
C1114 C1115 1.385 . S
C1115 H1101 0.931 . S
C1115 C1114 1.385 . S
C1115 C1116 1.389 . S
C1116 C1115 1.389 . S
C1116 C1117 1.387 . S
C1117 H1102 0.930 . S
C1117 C1112 1.390 . S
C1117 C1116 1.387 . S
H1118 C1130 0.930 . S
H1119 C1132 0.930 . S
H1120 C1133 0.930 . S
H1121 C1137 0.959 . S
H1122 C1137 0.959 . S
H1123 C1137 0.961 . S
H1124 C1138 0.960 . S
H1125 C1138 0.961 . S
H1126 C1138 0.959 . S
H1127 C1141 0.929 . S
H1128 C1142 0.931 . S
H1129 C1144 0.930 . S
C1130 H1118 0.930 . S
C1130 C1131 1.399 . S
C1130 C1135 1.399 . S
C1131 C1130 1.399 . S
C1131 C1132 1.376 . S
C1132 H1119 0.930 . S
C1132 C1131 1.376 . S
C1132 C1133 1.388 . S
C1133 H1120 0.930 . S
C1133 C1132 1.388 . S
C1133 C1134 1.390 . S
C1134 C1133 1.390 . S
C1134 C1135 1.394 . S
C1134 C1140 1.465 . S
C1135 C1130 1.399 . S
C1135 C1134 1.394 . S
C1135 C1136 1.516 . S
C1136 C1135 1.516 . S
C1136 C1137 1.502 . S
C1136 C1138 1.561 . S
C1136 C1139 1.526 . S
C1137 H1121 0.959 . S
C1137 H1122 0.959 . S
C1137 H1123 0.961 . S
C1137 C1136 1.502 . S
C1138 H1124 0.960 . S
C1138 H1125 0.961 . S
C1138 H1126 0.959 . S
C1138 C1136 1.561 . S
C1139 C1136 1.526 . S
C1139 C1140 1.396 . S
C1139 C1144 1.390 . S
C1140 C1134 1.465 . S
C1140 C1139 1.396 . S
C1140 C1141 1.399 . S
C1141 H1127 0.929 . S
C1141 C1140 1.399 . S
C1141 C1142 1.385 . S
C1142 H1128 0.931 . S
C1142 C1141 1.385 . S
C1142 C1143 1.389 . S
C1143 C1142 1.389 . S
C1143 C1144 1.387 . S
C1144 H1129 0.930 . S
C1144 C1139 1.390 . S
C1144 C1143 1.387 . S
H1145 C1157 0.930 . S
H1146 C1159 0.930 . S
H1147 C1160 0.930 . S
H1148 C1164 0.959 . S
H1149 C1164 0.959 . S
H1150 C1164 0.961 . S
H1151 C1165 0.960 . S
H1152 C1165 0.961 . S
H1153 C1165 0.959 . S
H1154 C1168 0.929 . S
H1155 C1169 0.931 . S
H1156 C1171 0.930 . S
C1157 H1145 0.930 . S
C1157 C1158 1.399 . S
C1157 C1162 1.399 . S
C1158 C1157 1.399 . S
C1158 C1159 1.376 . S
C1159 H1146 0.930 . S
C1159 C1158 1.376 . S
C1159 C1160 1.388 . S
C1160 H1147 0.930 . S
C1160 C1159 1.388 . S
C1160 C1161 1.390 . S
C1161 C1160 1.390 . S
C1161 C1162 1.394 . S
C1161 C1167 1.465 . S
C1162 C1157 1.399 . S
C1162 C1161 1.394 . S
C1162 C1163 1.516 . S
C1163 C1162 1.516 . S
C1163 C1164 1.502 . S
C1163 C1165 1.561 . S
C1163 C1166 1.526 . S
C1164 H1148 0.959 . S
C1164 H1149 0.959 . S
C1164 H1150 0.961 . S
C1164 C1163 1.502 . S
C1165 H1151 0.960 . S
C1165 H1152 0.961 . S
C1165 H1153 0.959 . S
C1165 C1163 1.561 . S
C1166 C1163 1.526 . S
C1166 C1167 1.396 . S
C1166 C1171 1.390 . S
C1167 C1161 1.465 . S
C1167 C1166 1.396 . S
C1167 C1168 1.399 . S
C1168 H1154 0.929 . S
C1168 C1167 1.399 . S
C1168 C1169 1.385 . S
C1169 H1155 0.931 . S
C1169 C1168 1.385 . S
C1169 C1170 1.389 . S
C1170 C1169 1.389 . S
C1170 C1171 1.387 . S
C1171 H1156 0.930 . S
C1171 C1166 1.390 . S
C1171 C1170 1.387 . S
H1172 C1184 0.930 . S
H1173 C1186 0.930 . S
H1174 C1187 0.930 . S
H1175 C1191 0.959 . S
H1176 C1191 0.959 . S
H1177 C1191 0.961 . S
H1178 C1192 0.960 . S
H1179 C1192 0.961 . S
H1180 C1192 0.959 . S
H1181 C1195 0.929 . S
H1182 C1196 0.931 . S
H1183 C1198 0.930 . S
C1184 H1172 0.930 . S
C1184 C1185 1.399 . S
C1184 C1189 1.399 . S
C1185 C1184 1.399 . S
C1185 C1186 1.376 . S
C1186 H1173 0.930 . S
C1186 C1185 1.376 . S
C1186 C1187 1.388 . S
C1187 H1174 0.930 . S
C1187 C1186 1.388 . S
C1187 C1188 1.390 . S
C1188 C1187 1.390 . S
C1188 C1189 1.394 . S
C1188 C1194 1.465 . S
C1189 C1184 1.399 . S
C1189 C1188 1.394 . S
C1189 C1190 1.516 . S
C1190 C1189 1.516 . S
C1190 C1191 1.502 . S
C1190 C1192 1.561 . S
C1190 C1193 1.526 . S
C1191 H1175 0.959 . S
C1191 H1176 0.959 . S
C1191 H1177 0.961 . S
C1191 C1190 1.502 . S
C1192 H1178 0.960 . S
C1192 H1179 0.961 . S
C1192 H1180 0.959 . S
C1192 C1190 1.561 . S
C1193 C1190 1.526 . S
C1193 C1194 1.396 . S
C1193 C1198 1.390 . S
C1194 C1188 1.465 . S
C1194 C1193 1.396 . S
C1194 C1195 1.399 . S
C1195 H1181 0.929 . S
C1195 C1194 1.399 . S
C1195 C1196 1.385 . S
C1196 H1182 0.931 . S
C1196 C1195 1.385 . S
C1196 C1197 1.389 . S
C1197 C1196 1.389 . S
C1197 C1198 1.387 . S
C1198 H1183 0.930 . S
C1198 C1193 1.390 . S
C1198 C1197 1.387 . S
H1199 C1211 0.930 . S
H1200 C1213 0.930 . S
H1201 C1214 0.930 . S
H1202 C1218 0.959 . S
H1203 C1218 0.959 . S
H1204 C1218 0.961 . S
H1205 C1219 0.960 . S
H1206 C1219 0.961 . S
H1207 C1219 0.959 . S
H1208 C1222 0.929 . S
H1209 C1223 0.931 . S
H1210 C1225 0.930 . S
C1211 H1199 0.930 . S
C1211 C1212 1.399 . S
C1211 C1216 1.399 . S
C1212 C1211 1.399 . S
C1212 C1213 1.376 . S
C1213 H1200 0.930 . S
C1213 C1212 1.376 . S
C1213 C1214 1.388 . S
C1214 H1201 0.930 . S
C1214 C1213 1.388 . S
C1214 C1215 1.390 . S
C1215 C1214 1.390 . S
C1215 C1216 1.394 . S
C1215 C1221 1.465 . S
C1216 C1211 1.399 . S
C1216 C1215 1.394 . S
C1216 C1217 1.516 . S
C1217 C1216 1.516 . S
C1217 C1218 1.502 . S
C1217 C1219 1.561 . S
C1217 C1220 1.526 . S
C1218 H1202 0.959 . S
C1218 H1203 0.959 . S
C1218 H1204 0.961 . S
C1218 C1217 1.502 . S
C1219 H1205 0.960 . S
C1219 H1206 0.961 . S
C1219 H1207 0.959 . S
C1219 C1217 1.561 . S
C1220 C1217 1.526 . S
C1220 C1221 1.396 . S
C1220 C1225 1.390 . S
C1221 C1215 1.465 . S
C1221 C1220 1.396 . S
C1221 C1222 1.399 . S
C1222 H1208 0.929 . S
C1222 C1221 1.399 . S
C1222 C1223 1.385 . S
C1223 H1209 0.931 . S
C1223 C1222 1.385 . S
C1223 C1224 1.389 . S
C1224 C1223 1.389 . S
C1224 C1225 1.387 . S
C1225 H1210 0.930 . S
C1225 C1220 1.390 . S
C1225 C1224 1.387 . S
H1226 C1238 0.930 . S
H1227 C1240 0.930 . S
H1228 C1241 0.930 . S
H1229 C1245 0.959 . S
H1230 C1245 0.959 . S
H1231 C1245 0.961 . S
H1232 C1246 0.960 . S
H1233 C1246 0.961 . S
H1234 C1246 0.959 . S
H1235 C1249 0.929 . S
H1236 C1250 0.931 . S
H1237 C1252 0.930 . S
C1238 H1226 0.930 . S
C1238 C1239 1.399 . S
C1238 C1243 1.399 . S
C1239 C1238 1.399 . S
C1239 C1240 1.376 . S
C1240 H1227 0.930 . S
C1240 C1239 1.376 . S
C1240 C1241 1.388 . S
C1241 H1228 0.930 . S
C1241 C1240 1.388 . S
C1241 C1242 1.390 . S
C1242 C1241 1.390 . S
C1242 C1243 1.394 . S
C1242 C1248 1.465 . S
C1243 C1238 1.399 . S
C1243 C1242 1.394 . S
C1243 C1244 1.516 . S
C1244 C1243 1.516 . S
C1244 C1245 1.502 . S
C1244 C1246 1.561 . S
C1244 C1247 1.526 . S
C1245 H1229 0.959 . S
C1245 H1230 0.959 . S
C1245 H1231 0.961 . S
C1245 C1244 1.502 . S
C1246 H1232 0.960 . S
C1246 H1233 0.961 . S
C1246 H1234 0.959 . S
C1246 C1244 1.561 . S
C1247 C1244 1.526 . S
C1247 C1248 1.396 . S
C1247 C1252 1.390 . S
C1248 C1242 1.465 . S
C1248 C1247 1.396 . S
C1248 C1249 1.399 . S
C1249 H1235 0.929 . S
C1249 C1248 1.399 . S
C1249 C1250 1.385 . S
C1250 H1236 0.931 . S
C1250 C1249 1.385 . S
C1250 C1251 1.389 . S
C1251 C1250 1.389 . S
C1251 C1252 1.387 . S
C1252 H1237 0.930 . S
C1252 C1247 1.390 . S
C1252 C1251 1.387 . S
H1253 C1265 0.930 . S
H1254 C1267 0.930 . S
H1255 C1268 0.930 . S
H1256 C1272 0.959 . S
H1257 C1272 0.959 . S
H1258 C1272 0.961 . S
H1259 C1273 0.960 . S
H1260 C1273 0.961 . S
H1261 C1273 0.959 . S
H1262 C1276 0.929 . S
H1263 C1277 0.931 . S
H1264 C1279 0.930 . S
C1265 H1253 0.930 . S
C1265 C1266 1.399 . S
C1265 C1270 1.399 . S
C1266 C1265 1.399 . S
C1266 C1267 1.376 . S
C1267 H1254 0.930 . S
C1267 C1266 1.376 . S
C1267 C1268 1.388 . S
C1268 H1255 0.930 . S
C1268 C1267 1.388 . S
C1268 C1269 1.390 . S
C1269 C1268 1.390 . S
C1269 C1270 1.394 . S
C1269 C1275 1.465 . S
C1270 C1265 1.399 . S
C1270 C1269 1.394 . S
C1270 C1271 1.516 . S
C1271 C1270 1.516 . S
C1271 C1272 1.502 . S
C1271 C1273 1.561 . S
C1271 C1274 1.526 . S
C1272 H1256 0.959 . S
C1272 H1257 0.959 . S
C1272 H1258 0.961 . S
C1272 C1271 1.502 . S
C1273 H1259 0.960 . S
C1273 H1260 0.961 . S
C1273 H1261 0.959 . S
C1273 C1271 1.561 . S
C1274 C1271 1.526 . S
C1274 C1275 1.396 . S
C1274 C1279 1.390 . S
C1275 C1269 1.465 . S
C1275 C1274 1.396 . S
C1275 C1276 1.399 . S
C1276 H1262 0.929 . S
C1276 C1275 1.399 . S
C1276 C1277 1.385 . S
C1277 H1263 0.931 . S
C1277 C1276 1.385 . S
C1277 C1278 1.389 . S
C1278 C1277 1.389 . S
C1278 C1279 1.387 . S
C1279 H1264 0.930 . S
C1279 C1274 1.390 . S
C1279 C1278 1.387 . S
H1280 C1292 0.930 . S
H1281 C1294 0.930 . S
H1282 C1295 0.930 . S
H1283 C1299 0.959 . S
H1284 C1299 0.959 . S
H1285 C1299 0.961 . S
H1286 C1300 0.960 . S
H1287 C1300 0.961 . S
H1288 C1300 0.959 . S
H1289 C1303 0.929 . S
H1290 C1304 0.931 . S
H1291 C1306 0.930 . S
C1292 H1280 0.930 . S
C1292 C1293 1.399 . S
C1292 C1297 1.399 . S
C1293 C1292 1.399 . S
C1293 C1294 1.376 . S
C1294 H1281 0.930 . S
C1294 C1293 1.376 . S
C1294 C1295 1.388 . S
C1295 H1282 0.930 . S
C1295 C1294 1.388 . S
C1295 C1296 1.390 . S
C1296 C1295 1.390 . S
C1296 C1297 1.394 . S
C1296 C1302 1.465 . S
C1297 C1292 1.399 . S
C1297 C1296 1.394 . S
C1297 C1298 1.516 . S
C1298 C1297 1.516 . S
C1298 C1299 1.502 . S
C1298 C1300 1.561 . S
C1298 C1301 1.526 . S
C1299 H1283 0.959 . S
C1299 H1284 0.959 . S
C1299 H1285 0.961 . S
C1299 C1298 1.502 . S
C1300 H1286 0.960 . S
C1300 H1287 0.961 . S
C1300 H1288 0.959 . S
C1300 C1298 1.561 . S
C1301 C1298 1.526 . S
C1301 C1302 1.396 . S
C1301 C1306 1.390 . S
C1302 C1296 1.465 . S
C1302 C1301 1.396 . S
C1302 C1303 1.399 . S
C1303 H1289 0.929 . S
C1303 C1302 1.399 . S
C1303 C1304 1.385 . S
C1304 H1290 0.931 . S
C1304 C1303 1.385 . S
C1304 C1305 1.389 . S
C1305 C1304 1.389 . S
C1305 C1306 1.387 . S
C1306 H1291 0.930 . S
C1306 C1301 1.390 . S
C1306 C1305 1.387 . S
H1307 C1319 0.930 . S
H1308 C1321 0.924 1_655 S
H1309 C1322 0.930 . S
H1310 C1326 0.959 1_545 S
H1311 C1326 0.959 . S
H1312 C1326 0.961 . S
H1313 C1327 0.960 . S
H1314 C1327 0.961 . S
H1315 C1327 0.927 1_655 S
H1316 C1330 0.929 . S
H1317 C1331 0.931 . S
H1318 C1333 0.930 1_455 S
C1319 H1307 0.930 . S
C1319 C1320 1.399 . S
C1319 C1324 1.399 . S
C1320 C1319 1.399 . S
C1320 C1321 1.394 1_565 S
C1321 H1308 0.924 1_455 S
C1321 C1320 1.394 1_545 S
C1321 C1322 1.377 1_455 S
C1322 H1309 0.930 . S
C1322 C1321 1.377 1_655 S
C1322 C1323 1.390 . S
C1323 C1322 1.390 . S
C1323 C1324 1.394 1_645 S
C1323 C1329 1.465 . S
C1324 C1319 1.399 . S
C1324 C1323 1.394 1_465 S
C1324 C1325 1.516 . S
C1325 C1324 1.516 . S
C1325 C1326 1.502 . S
C1325 C1327 1.561 . S
C1325 C1328 1.497 1_455 S
C1326 H1310 0.959 1_565 S
C1326 H1311 0.959 . S
C1326 H1312 0.961 . S
C1326 C1325 1.502 . S
C1327 H1313 0.960 . S
C1327 H1314 0.961 . S
C1327 H1315 0.927 1_455 S
C1327 C1325 1.561 . S
C1328 C1325 1.497 1_655 S
C1328 C1329 1.419 1_565 S
C1328 C1333 1.398 . S
C1329 C1323 1.465 . S
C1329 C1328 1.419 1_545 S
C1329 C1330 1.399 . S
C1330 H1316 0.929 . S
C1330 C1329 1.399 . S
C1330 C1331 1.385 . S
C1331 H1317 0.931 . S
C1331 C1330 1.385 . S
C1331 C1332 1.389 . S
C1332 C1331 1.389 . S
C1332 C1333 1.387 1_545 S
C1333 H1318 0.930 1_655 S
C1333 C1328 1.398 . S
C1333 C1332 1.387 1_565 S
H1334 C1346 0.930 . S
H1335 C1348 0.930 . S
H1336 C1349 0.930 . S
H1337 C1353 0.959 . S
H1338 C1353 0.959 . S
H1339 C1353 0.961 . S
H1340 C1354 0.960 . S
H1341 C1354 0.961 . S
H1342 C1354 0.959 . S
H1343 C1357 0.929 . S
H1344 C1358 0.931 . S
H1345 C1360 0.930 . S
C1346 H1334 0.930 . S
C1346 C1347 1.399 . S
C1346 C1351 1.399 . S
C1347 C1346 1.399 . S
C1347 C1348 1.376 . S
C1348 H1335 0.930 . S
C1348 C1347 1.376 . S
C1348 C1349 1.388 . S
C1349 H1336 0.930 . S
C1349 C1348 1.388 . S
C1349 C1350 1.390 . S
C1350 C1349 1.390 . S
C1350 C1351 1.394 . S
C1350 C1356 1.465 . S
C1351 C1346 1.399 . S
C1351 C1350 1.394 . S
C1351 C1352 1.516 . S
C1352 C1351 1.516 . S
C1352 C1353 1.502 . S
C1352 C1354 1.561 . S
C1352 C1355 1.526 . S
C1353 H1337 0.959 . S
C1353 H1338 0.959 . S
C1353 H1339 0.961 . S
C1353 C1352 1.502 . S
C1354 H1340 0.960 . S
C1354 H1341 0.961 . S
C1354 H1342 0.959 . S
C1354 C1352 1.561 . S
C1355 C1352 1.526 . S
C1355 C1356 1.396 . S
C1355 C1360 1.390 . S
C1356 C1350 1.465 . S
C1356 C1355 1.396 . S
C1356 C1357 1.399 . S
C1357 H1343 0.929 . S
C1357 C1356 1.399 . S
C1357 C1358 1.385 . S
C1358 H1344 0.931 . S
C1358 C1357 1.385 . S
C1358 C1359 1.389 . S
C1359 C1358 1.389 . S
C1359 C1360 1.387 . S
C1360 H1345 0.930 . S
C1360 C1355 1.390 . S
C1360 C1359 1.387 . S
H1361 C1373 0.930 . S
H1362 C1375 0.930 . S
H1363 C1376 0.930 . S
H1364 C1380 0.959 . S
H1365 C1380 0.959 . S
H1366 C1380 0.961 . S
H1367 C1381 0.960 . S
H1368 C1381 0.961 1_556 S
H1369 C1381 0.959 1_556 S
H1370 C1384 0.929 . S
H1371 C1385 0.931 . S
H1372 C1387 0.930 . S
C1373 H1361 0.930 . S
C1373 C1374 1.399 1_565 S
C1373 C1378 1.399 . S
C1374 C1373 1.399 1_545 S
C1374 C1375 1.376 . S
C1375 H1362 0.930 . S
C1375 C1374 1.376 . S
C1375 C1376 1.388 . S
C1376 H1363 0.930 . S
C1376 C1375 1.388 . S
C1376 C1377 1.390 . S
C1377 C1376 1.390 . S
C1377 C1378 1.394 1_545 S
C1377 C1383 1.465 1_554 S
C1378 C1373 1.399 . S
C1378 C1377 1.394 1_565 S
C1378 C1379 1.516 . S
C1379 C1378 1.516 . S
C1379 C1380 1.502 . S
C1379 C1381 1.561 . S
C1379 C1382 1.526 1_554 S
C1380 H1364 0.959 . S
C1380 H1365 0.959 . S
C1380 H1366 0.961 . S
C1380 C1379 1.502 . S
C1381 H1367 0.960 . S
C1381 H1368 0.961 1_554 S
C1381 H1369 0.959 1_554 S
C1381 C1379 1.561 . S
C1382 C1379 1.526 1_556 S
C1382 C1383 1.396 1_565 S
C1382 C1387 1.390 . S
C1383 C1377 1.465 1_556 S
C1383 C1382 1.396 1_545 S
C1383 C1384 1.399 . S
C1384 H1370 0.929 . S
C1384 C1383 1.399 . S
C1384 C1385 1.385 . S
C1385 H1371 0.931 . S
C1385 C1384 1.385 . S
C1385 C1386 1.389 1_545 S
C1386 C1385 1.389 1_565 S
C1386 C1387 1.387 . S
C1387 H1372 0.930 . S
C1387 C1382 1.390 . S
C1387 C1386 1.387 . S
H1388 C1400 0.930 . S
H1389 C1402 0.930 . S
H1390 C1403 0.930 . S
H1391 C1407 0.959 . S
H1392 C1407 0.959 . S
H1393 C1407 0.961 . S
H1394 C1408 0.960 . S
H1395 C1408 0.961 . S
H1396 C1408 0.959 . S
H1397 C1411 0.929 . S
H1398 C1412 0.931 . S
H1399 C1414 0.930 . S
C1400 H1388 0.930 . S
C1400 C1401 1.399 . S
C1400 C1405 1.399 . S
C1401 C1400 1.399 . S
C1401 C1402 1.376 . S
C1402 H1389 0.930 . S
C1402 C1401 1.376 . S
C1402 C1403 1.388 . S
C1403 H1390 0.930 . S
C1403 C1402 1.388 . S
C1403 C1404 1.390 . S
C1404 C1403 1.390 . S
C1404 C1405 1.394 . S
C1404 C1410 1.465 . S
C1405 C1400 1.399 . S
C1405 C1404 1.394 . S
C1405 C1406 1.516 . S
C1406 C1405 1.516 . S
C1406 C1407 1.502 . S
C1406 C1408 1.561 . S
C1406 C1409 1.526 . S
C1407 H1391 0.959 . S
C1407 H1392 0.959 . S
C1407 H1393 0.961 . S
C1407 C1406 1.502 . S
C1408 H1394 0.960 . S
C1408 H1395 0.961 . S
C1408 H1396 0.959 . S
C1408 C1406 1.561 . S
C1409 C1406 1.526 . S
C1409 C1410 1.396 . S
C1409 C1414 1.390 . S
C1410 C1404 1.465 . S
C1410 C1409 1.396 . S
C1410 C1411 1.399 . S
C1411 H1397 0.929 . S
C1411 C1410 1.399 . S
C1411 C1412 1.385 . S
C1412 H1398 0.931 . S
C1412 C1411 1.385 . S
C1412 C1413 1.389 . S
C1413 C1412 1.389 . S
C1413 C1414 1.387 . S
C1414 H1399 0.930 . S
C1414 C1409 1.390 . S
C1414 C1413 1.387 . S
H1415 C1427 0.930 . S
H1416 C1429 0.930 . S
H1417 C1430 0.930 . S
H1418 C1434 0.959 . S
H1419 C1434 0.959 . S
H1420 C1434 0.961 . S
H1421 C1435 0.960 . S
H1422 C1435 0.961 . S
H1423 C1435 0.959 . S
H1424 C1438 0.929 . S
H1425 C1439 0.931 . S
H1426 C1441 0.930 . S
C1427 H1415 0.930 . S
C1427 C1428 1.399 . S
C1427 C1432 1.399 . S
C1428 C1427 1.399 . S
C1428 C1429 1.376 1_565 S
C1429 H1416 0.930 . S
C1429 C1428 1.376 1_545 S
C1429 C1430 1.388 . S
C1430 H1417 0.930 . S
C1430 C1429 1.388 . S
C1430 C1431 1.390 . S
C1431 C1430 1.390 . S
C1431 C1432 1.394 1_545 S
C1431 C1437 1.465 . S
C1432 C1427 1.399 . S
C1432 C1431 1.394 1_565 S
C1432 C1433 1.516 . S
C1433 C1432 1.516 . S
C1433 C1434 1.502 . S
C1433 C1435 1.561 . S
C1433 C1436 1.526 . S
C1434 H1418 0.959 . S
C1434 H1419 0.959 . S
C1434 H1420 0.961 . S
C1434 C1433 1.502 . S
C1435 H1421 0.960 . S
C1435 H1422 0.961 . S
C1435 H1423 0.959 . S
C1435 C1433 1.561 . S
C1436 C1433 1.526 . S
C1436 C1437 1.396 1_565 S
C1436 C1441 1.390 . S
C1437 C1431 1.465 . S
C1437 C1436 1.396 1_545 S
C1437 C1438 1.399 . S
C1438 H1424 0.929 . S
C1438 C1437 1.399 . S
C1438 C1439 1.385 . S
C1439 H1425 0.931 . S
C1439 C1438 1.385 . S
C1439 C1440 1.389 . S
C1440 C1439 1.389 . S
C1440 C1441 1.387 1_545 S
C1441 H1426 0.930 . S
C1441 C1436 1.390 . S
C1441 C1440 1.387 1_565 S
H1442 C1454 0.930 . S
H1443 C1456 0.930 . S
H1444 C1457 0.930 . S
H1445 C1461 0.959 . S
H1446 C1461 0.959 . S
H1447 C1461 0.961 . S
H1448 C1462 0.960 . S
H1449 C1462 0.961 . S
H1450 C1462 0.959 . S
H1451 C1465 0.929 . S
H1452 C1466 0.931 . S
H1453 C1468 0.930 . S
C1454 H1442 0.930 . S
C1454 C1455 1.399 . S
C1454 C1459 1.399 . S
C1455 C1454 1.399 . S
C1455 C1456 1.376 . S
C1456 H1443 0.930 . S
C1456 C1455 1.376 . S
C1456 C1457 1.388 . S
C1457 H1444 0.930 . S
C1457 C1456 1.388 . S
C1457 C1458 1.390 . S
C1458 C1457 1.390 . S
C1458 C1459 1.394 . S
C1458 C1464 1.465 . S
C1459 C1454 1.399 . S
C1459 C1458 1.394 . S
C1459 C1460 1.516 . S
C1460 C1459 1.516 . S
C1460 C1461 1.502 . S
C1460 C1462 1.561 . S
C1460 C1463 1.526 . S
C1461 H1445 0.959 . S
C1461 H1446 0.959 . S
C1461 H1447 0.961 . S
C1461 C1460 1.502 . S
C1462 H1448 0.960 . S
C1462 H1449 0.961 . S
C1462 H1450 0.959 . S
C1462 C1460 1.561 . S
C1463 C1460 1.526 . S
C1463 C1464 1.396 . S
C1463 C1468 1.390 . S
C1464 C1458 1.465 . S
C1464 C1463 1.396 . S
C1464 C1465 1.399 . S
C1465 H1451 0.929 . S
C1465 C1464 1.399 . S
C1465 C1466 1.385 . S
C1466 H1452 0.931 . S
C1466 C1465 1.385 . S
C1466 C1467 1.389 . S
C1467 C1466 1.389 . S
C1467 C1468 1.387 . S
C1468 H1453 0.930 . S
C1468 C1463 1.390 . S
C1468 C1467 1.387 . S
H1469 C1481 0.930 . S
H1470 C1483 0.930 . S
H1471 C1484 0.930 1_655 S
H1472 C1488 0.959 . S
H1473 C1488 0.959 . S
H1474 C1488 0.961 . S
H1475 C1489 0.960 1_556 S
H1476 C1489 0.961 . S
H1477 C1489 0.959 1_556 S
H1478 C1492 0.929 . S
H1479 C1493 0.931 . S
H1480 C1495 0.930 . S
C1481 H1469 0.930 . S
C1481 C1482 1.399 . S
C1481 C1486 1.399 . S
C1482 C1481 1.399 . S
C1482 C1483 1.376 1_545 S
C1483 H1470 0.930 . S
C1483 C1482 1.376 1_565 S
C1483 C1484 1.388 . S
C1484 H1471 0.930 1_455 S
C1484 C1483 1.388 . S
C1484 C1485 1.389 1_455 S
C1485 C1484 1.389 1_655 S
C1485 C1486 1.387 1_665 S
C1485 C1491 1.472 1_556 S
C1486 C1481 1.399 . S
C1486 C1485 1.387 1_445 S
C1486 C1487 1.516 1_556 S
C1487 C1486 1.516 1_554 S
C1487 C1488 1.502 . S
C1487 C1489 1.561 1_455 S
C1487 C1490 1.526 1_455 S
C1488 H1472 0.959 . S
C1488 H1473 0.959 . S
C1488 H1474 0.961 . S
C1488 C1487 1.502 . S
C1489 H1475 0.960 1_554 S
C1489 H1476 0.961 . S
C1489 H1477 0.959 1_554 S
C1489 C1487 1.561 1_655 S
C1490 C1487 1.526 1_655 S
C1490 C1491 1.396 1_545 S
C1490 C1495 1.390 . S
C1491 C1485 1.472 1_554 S
C1491 C1490 1.396 1_565 S
C1491 C1492 1.399 . S
C1492 H1478 0.929 . S
C1492 C1491 1.399 . S
C1492 C1493 1.385 . S
C1493 H1479 0.931 . S
C1493 C1492 1.385 . S
C1493 C1494 1.389 . S
C1494 C1493 1.389 . S
C1494 C1495 1.387 1_565 S
C1495 H1480 0.930 . S
C1495 C1490 1.390 . S
C1495 C1494 1.387 1_545 S
H1496 C1508 0.930 . S
H1497 C1510 0.930 . S
H1498 C1511 0.930 . S
H1499 C1515 0.959 . S
H1500 C1515 0.959 . S
H1501 C1515 0.961 . S
H1502 C1516 0.960 . S
H1503 C1516 0.961 . S
H1504 C1516 0.959 . S
H1505 C1519 0.929 . S
H1506 C1520 0.931 . S
H1507 C1522 0.930 . S
C1508 H1496 0.930 . S
C1508 C1509 1.399 . S
C1508 C1513 1.399 . S
C1509 C1508 1.399 . S
C1509 C1510 1.376 . S
C1510 H1497 0.930 . S
C1510 C1509 1.376 . S
C1510 C1511 1.388 . S
C1511 H1498 0.930 . S
C1511 C1510 1.388 . S
C1511 C1512 1.390 . S
C1512 C1511 1.390 . S
C1512 C1513 1.394 . S
C1512 C1518 1.465 . S
C1513 C1508 1.399 . S
C1513 C1512 1.394 . S
C1513 C1514 1.516 . S
C1514 C1513 1.516 . S
C1514 C1515 1.502 . S
C1514 C1516 1.561 . S
C1514 C1517 1.526 . S
C1515 H1499 0.959 . S
C1515 H1500 0.959 . S
C1515 H1501 0.961 . S
C1515 C1514 1.502 . S
C1516 H1502 0.960 . S
C1516 H1503 0.961 . S
C1516 H1504 0.959 . S
C1516 C1514 1.561 . S
C1517 C1514 1.526 . S
C1517 C1518 1.396 . S
C1517 C1522 1.390 . S
C1518 C1512 1.465 . S
C1518 C1517 1.396 . S
C1518 C1519 1.399 . S
C1519 H1505 0.929 . S
C1519 C1518 1.399 . S
C1519 C1520 1.385 . S
C1520 H1506 0.931 . S
C1520 C1519 1.385 . S
C1520 C1521 1.389 . S
C1521 C1520 1.389 . S
C1521 C1522 1.387 . S
C1522 H1507 0.930 . S
C1522 C1517 1.390 . S
C1522 C1521 1.387 . S
H1523 C1535 0.930 . S
H1524 C1537 0.930 . S
H1525 C1538 0.930 . S
H1526 C1542 0.959 . S
H1527 C1542 0.959 . S
H1528 C1542 0.961 . S
H1529 C1543 0.960 . S
H1530 C1543 0.961 . S
H1531 C1543 0.959 . S
H1532 C1546 0.929 . S
H1533 C1547 0.931 . S
H1534 C1549 0.930 . S
C1535 H1523 0.930 . S
C1535 C1536 1.399 . S
C1535 C1540 1.399 . S
C1536 C1535 1.399 . S
C1536 C1537 1.376 . S
C1537 H1524 0.930 . S
C1537 C1536 1.376 . S
C1537 C1538 1.388 . S
C1538 H1525 0.930 . S
C1538 C1537 1.388 . S
C1538 C1539 1.390 . S
C1539 C1538 1.390 . S
C1539 C1540 1.394 . S
C1539 C1545 1.465 . S
C1540 C1535 1.399 . S
C1540 C1539 1.394 . S
C1540 C1541 1.516 . S
C1541 C1540 1.516 . S
C1541 C1542 1.502 . S
C1541 C1543 1.561 . S
C1541 C1544 1.526 . S
C1542 H1526 0.959 . S
C1542 H1527 0.959 . S
C1542 H1528 0.961 . S
C1542 C1541 1.502 . S
C1543 H1529 0.960 . S
C1543 H1530 0.961 . S
C1543 H1531 0.959 . S
C1543 C1541 1.561 . S
C1544 C1541 1.526 . S
C1544 C1545 1.396 . S
C1544 C1549 1.390 . S
C1545 C1539 1.465 . S
C1545 C1544 1.396 . S
C1545 C1546 1.399 . S
C1546 H1532 0.929 . S
C1546 C1545 1.399 . S
C1546 C1547 1.385 . S
C1547 H1533 0.931 . S
C1547 C1546 1.385 . S
C1547 C1548 1.389 . S
C1548 C1547 1.389 . S
C1548 C1549 1.387 . S
C1549 H1534 0.930 . S
C1549 C1544 1.390 . S
C1549 C1548 1.387 . S
H1550 C1562 0.930 . S
H1551 C1564 0.930 . S
H1552 C1565 0.930 . S
H1553 C1569 0.959 . S
H1554 C1569 0.959 . S
H1555 C1569 0.961 . S
H1556 C1570 0.960 . S
H1557 C1570 0.961 . S
H1558 C1570 0.959 . S
H1559 C1573 0.929 . S
H1560 C1574 0.931 . S
H1561 C1576 0.930 . S
C1562 H1550 0.930 . S
C1562 C1563 1.399 . S
C1562 C1567 1.399 . S
C1563 C1562 1.399 . S
C1563 C1564 1.376 . S
C1564 H1551 0.930 . S
C1564 C1563 1.376 . S
C1564 C1565 1.388 . S
C1565 H1552 0.930 . S
C1565 C1564 1.388 . S
C1565 C1566 1.390 . S
C1566 C1565 1.390 . S
C1566 C1567 1.394 . S
C1566 C1572 1.465 . S
C1567 C1562 1.399 . S
C1567 C1566 1.394 . S
C1567 C1568 1.516 . S
C1568 C1567 1.516 . S
C1568 C1569 1.502 . S
C1568 C1570 1.561 . S
C1568 C1571 1.526 . S
C1569 H1553 0.959 . S
C1569 H1554 0.959 . S
C1569 H1555 0.961 . S
C1569 C1568 1.502 . S
C1570 H1556 0.960 . S
C1570 H1557 0.961 . S
C1570 H1558 0.959 . S
C1570 C1568 1.561 . S
C1571 C1568 1.526 . S
C1571 C1572 1.396 . S
C1571 C1576 1.390 . S
C1572 C1566 1.465 . S
C1572 C1571 1.396 . S
C1572 C1573 1.399 . S
C1573 H1559 0.929 . S
C1573 C1572 1.399 . S
C1573 C1574 1.385 . S
C1574 H1560 0.931 . S
C1574 C1573 1.385 . S
C1574 C1575 1.389 . S
C1575 C1574 1.389 . S
C1575 C1576 1.387 . S
C1576 H1561 0.930 . S
C1576 C1571 1.390 . S
C1576 C1575 1.387 . S
H1577 C1589 0.930 . S
H1578 C1591 0.930 . S
H1579 C1592 0.930 . S
H1580 C1596 0.959 . S
H1581 C1596 0.959 . S
H1582 C1596 0.961 . S
H1583 C1597 0.960 . S
H1584 C1597 0.961 . S
H1585 C1597 0.959 . S
H1586 C1600 0.929 . S
H1587 C1601 0.931 . S
H1588 C1603 0.930 . S
C1589 H1577 0.930 . S
C1589 C1590 1.399 . S
C1589 C1594 1.399 . S
C1590 C1589 1.399 . S
C1590 C1591 1.376 . S
C1591 H1578 0.930 . S
C1591 C1590 1.376 . S
C1591 C1592 1.388 . S
C1592 H1579 0.930 . S
C1592 C1591 1.388 . S
C1592 C1593 1.390 . S
C1593 C1592 1.390 . S
C1593 C1594 1.394 . S
C1593 C1599 1.465 . S
C1594 C1589 1.399 . S
C1594 C1593 1.394 . S
C1594 C1595 1.516 . S
C1595 C1594 1.516 . S
C1595 C1596 1.502 . S
C1595 C1597 1.561 . S
C1595 C1598 1.526 . S
C1596 H1580 0.959 . S
C1596 H1581 0.959 . S
C1596 H1582 0.961 . S
C1596 C1595 1.502 . S
C1597 H1583 0.960 . S
C1597 H1584 0.961 . S
C1597 H1585 0.959 . S
C1597 C1595 1.561 . S
C1598 C1595 1.526 . S
C1598 C1599 1.396 . S
C1598 C1603 1.390 . S
C1599 C1593 1.465 . S
C1599 C1598 1.396 . S
C1599 C1600 1.399 . S
C1600 H1586 0.929 . S
C1600 C1599 1.399 . S
C1600 C1601 1.385 . S
C1601 H1587 0.931 . S
C1601 C1600 1.385 . S
C1601 C1602 1.389 . S
C1602 C1601 1.389 . S
C1602 C1603 1.387 . S
C1603 H1588 0.930 . S
C1603 C1598 1.390 . S
C1603 C1602 1.387 . S
H1604 C1616 0.930 . S
H1605 C1618 0.930 . S
H1606 C1619 0.930 . S
H1607 C1623 0.959 . S
H1608 C1623 0.959 . S
H1609 C1623 0.961 . S
H1610 C1624 0.960 . S
H1611 C1624 0.961 1_556 S
H1612 C1624 0.959 . S
H1613 C1627 0.929 . S
H1614 C1628 0.931 . S
H1615 C1630 0.930 . S
C1616 H1604 0.930 . S
C1616 C1617 1.399 . S
C1616 C1621 1.399 . S
C1617 C1616 1.399 . S
C1617 C1618 1.376 . S
C1618 H1605 0.930 . S
C1618 C1617 1.376 . S
C1618 C1619 1.388 . S
C1619 H1606 0.930 . S
C1619 C1618 1.388 . S
C1619 C1620 1.390 . S
C1620 C1619 1.390 . S
C1620 C1621 1.394 . S
C1620 C1626 1.465 1_554 S
C1621 C1616 1.399 . S
C1621 C1620 1.394 . S
C1621 C1622 1.516 1_554 S
C1622 C1621 1.516 1_556 S
C1622 C1623 1.502 . S
C1622 C1624 1.561 1_556 S
C1622 C1625 1.526 . S
C1623 H1607 0.959 . S
C1623 H1608 0.959 . S
C1623 H1609 0.961 . S
C1623 C1622 1.502 . S
C1624 H1610 0.960 . S
C1624 H1611 0.961 1_554 S
C1624 H1612 0.959 . S
C1624 C1622 1.561 1_554 S
C1625 C1622 1.526 . S
C1625 C1626 1.396 . S
C1625 C1630 1.390 . S
C1626 C1620 1.465 1_556 S
C1626 C1625 1.396 . S
C1626 C1627 1.399 . S
C1627 H1613 0.929 . S
C1627 C1626 1.399 . S
C1627 C1628 1.385 . S
C1628 H1614 0.931 . S
C1628 C1627 1.385 . S
C1628 C1629 1.389 . S
C1629 C1628 1.389 . S
C1629 C1630 1.387 . S
C1630 H1615 0.930 . S
C1630 C1625 1.390 . S
C1630 C1629 1.387 . S
H1631 C1643 0.930 . S
H1632 C1645 0.930 . S
H1633 C1646 0.930 . S
H1634 C1650 0.959 . S
H1635 C1650 0.959 . S
H1636 C1650 0.961 . S
H1637 C1651 0.960 . S
H1638 C1651 0.961 . S
H1639 C1651 0.959 . S
H1640 C1654 0.929 . S
H1641 C1655 0.931 . S
H1642 C1657 0.930 . S
C1643 H1631 0.930 . S
C1643 C1644 1.399 . S
C1643 C1648 1.399 . S
C1644 C1643 1.399 . S
C1644 C1645 1.376 . S
C1645 H1632 0.930 . S
C1645 C1644 1.376 . S
C1645 C1646 1.388 . S
C1646 H1633 0.930 . S
C1646 C1645 1.388 . S
C1646 C1647 1.390 . S
C1647 C1646 1.390 . S
C1647 C1648 1.394 . S
C1647 C1653 1.465 1_455 S
C1648 C1643 1.399 . S
C1648 C1647 1.394 . S
C1648 C1649 1.516 1_455 S
C1649 C1648 1.516 1_655 S
C1649 C1650 1.502 1_655 S
C1649 C1651 1.561 . S
C1649 C1652 1.526 . S
C1650 H1634 0.959 . S
C1650 H1635 0.959 . S
C1650 H1636 0.961 . S
C1650 C1649 1.502 1_455 S
C1651 H1637 0.960 . S
C1651 H1638 0.961 . S
C1651 H1639 0.959 . S
C1651 C1649 1.561 . S
C1652 C1649 1.526 . S
C1652 C1653 1.396 . S
C1652 C1657 1.390 . S
C1653 C1647 1.465 1_655 S
C1653 C1652 1.396 . S
C1653 C1654 1.399 . S
C1654 H1640 0.929 . S
C1654 C1653 1.399 . S
C1654 C1655 1.385 . S
C1655 H1641 0.931 . S
C1655 C1654 1.385 . S
C1655 C1656 1.389 . S
C1656 C1655 1.389 . S
C1656 C1657 1.387 . S
C1657 H1642 0.930 . S
C1657 C1652 1.390 . S
C1657 C1656 1.387 . S
H1658 C1670 0.930 . S
H1659 C1672 0.930 . S
H1660 C1673 0.930 . S
H1661 C1677 0.959 . S
H1662 C1677 0.959 . S
H1663 C1677 0.969 . S
H1664 C1678 0.960 . S
H1665 C1678 0.961 1_556 S
H1666 C1678 0.959 1_655 S
H1667 C1681 0.929 . S
H1668 C1682 0.931 . S
H1669 C1684 0.930 . S
C1670 H1658 0.930 . S
C1670 C1671 1.399 . S
C1670 C1675 1.399 . S
C1671 C1670 1.399 . S
C1671 C1672 1.376 . S
C1672 H1659 0.930 . S
C1672 C1671 1.376 . S
C1672 C1673 1.388 1_455 S
C1673 H1660 0.930 . S
C1673 C1672 1.388 1_655 S
C1673 C1674 1.390 . S
C1674 C1673 1.390 . S
C1674 C1675 1.394 1_655 S
C1674 C1680 1.465 1_554 S
C1675 C1670 1.399 . S
C1675 C1674 1.394 1_455 S
C1675 C1676 1.516 1_554 S
C1676 C1675 1.516 1_556 S
C1676 C1677 1.502 . S
C1676 C1678 1.561 1_556 S
C1676 C1679 1.526 1_455 S
C1677 H1661 0.959 . S
C1677 H1662 0.959 . S
C1677 H1663 0.969 . S
C1677 C1676 1.502 . S
C1678 H1664 0.960 . S
C1678 H1665 0.961 1_554 S
C1678 H1666 0.959 1_455 S
C1678 C1676 1.561 1_554 S
C1679 C1676 1.526 1_655 S
C1679 C1680 1.396 . S
C1679 C1684 1.390 . S
C1680 C1674 1.465 1_556 S
C1680 C1679 1.396 . S
C1680 C1681 1.399 . S
C1681 H1667 0.929 . S
C1681 C1680 1.399 . S
C1681 C1682 1.385 . S
C1682 H1668 0.931 . S
C1682 C1681 1.385 . S
C1682 C1683 1.389 . S
C1683 C1682 1.389 . S
C1683 C1684 1.387 . S
C1684 H1669 0.930 . S
C1684 C1679 1.390 . S
C1684 C1683 1.387 . S
H1685 C1697 0.930 . S
H1686 C1699 0.930 . S
H1687 C1700 0.930 . S
H1688 C1704 0.959 . S
H1689 C1704 0.959 . S
H1690 C1704 0.961 . S
H1691 C1705 0.960 . S
H1692 C1705 0.961 . S
H1693 C1705 0.959 . S
H1694 C1708 0.929 . S
H1695 C1709 0.931 . S
H1696 C1711 0.930 . S
C1697 H1685 0.930 . S
C1697 C1698 1.399 . S
C1697 C1702 1.399 . S
C1698 C1697 1.399 . S
C1698 C1699 1.376 . S
C1699 H1686 0.930 . S
C1699 C1698 1.376 . S
C1699 C1700 1.388 . S
C1700 H1687 0.930 . S
C1700 C1699 1.388 . S
C1700 C1701 1.390 . S
C1701 C1700 1.390 . S
C1701 C1702 1.394 . S
C1701 C1707 1.465 . S
C1702 C1697 1.399 . S
C1702 C1701 1.394 . S
C1702 C1703 1.516 . S
C1703 C1702 1.516 . S
C1703 C1704 1.502 . S
C1703 C1705 1.561 . S
C1703 C1706 1.526 . S
C1704 H1688 0.959 . S
C1704 H1689 0.959 . S
C1704 H1690 0.961 . S
C1704 C1703 1.502 . S
C1705 H1691 0.960 . S
C1705 H1692 0.961 . S
C1705 H1693 0.959 . S
C1705 C1703 1.561 . S
C1706 C1703 1.526 . S
C1706 C1707 1.396 . S
C1706 C1711 1.390 . S
C1707 C1701 1.465 . S
C1707 C1706 1.396 . S
C1707 C1708 1.399 . S
C1708 H1694 0.929 . S
C1708 C1707 1.399 . S
C1708 C1709 1.385 . S
C1709 H1695 0.931 . S
C1709 C1708 1.385 . S
C1709 C1710 1.389 . S
C1710 C1709 1.389 . S
C1710 C1711 1.387 . S
C1711 H1696 0.930 . S
C1711 C1706 1.390 . S
C1711 C1710 1.387 . S
H1712 C1724 0.930 . S
H1713 C1726 0.930 . S
H1714 C1727 0.930 . S
H1715 C1731 0.959 . S
H1716 C1731 0.959 . S
H1717 C1731 0.961 . S
H1718 C1732 0.960 . S
H1719 C1732 0.961 . S
H1720 C1732 0.959 . S
H1721 C1735 0.929 . S
H1722 C1736 0.931 . S
H1723 C1738 0.930 . S
C1724 H1712 0.930 . S
C1724 C1725 1.399 . S
C1724 C1729 1.399 . S
C1725 C1724 1.399 . S
C1725 C1726 1.376 . S
C1726 H1713 0.930 . S
C1726 C1725 1.376 . S
C1726 C1727 1.388 . S
C1727 H1714 0.930 . S
C1727 C1726 1.388 . S
C1727 C1728 1.390 . S
C1728 C1727 1.390 . S
C1728 C1729 1.394 . S
C1728 C1734 1.465 . S
C1729 C1724 1.399 . S
C1729 C1728 1.394 . S
C1729 C1730 1.516 . S
C1730 C1729 1.516 . S
C1730 C1731 1.502 . S
C1730 C1732 1.561 . S
C1730 C1733 1.526 . S
C1731 H1715 0.959 . S
C1731 H1716 0.959 . S
C1731 H1717 0.961 . S
C1731 C1730 1.502 . S
C1732 H1718 0.960 . S
C1732 H1719 0.961 . S
C1732 H1720 0.959 . S
C1732 C1730 1.561 . S
C1733 C1730 1.526 . S
C1733 C1734 1.396 . S
C1733 C1738 1.390 . S
C1734 C1728 1.465 . S
C1734 C1733 1.396 . S
C1734 C1735 1.399 . S
C1735 H1721 0.929 . S
C1735 C1734 1.399 . S
C1735 C1736 1.385 . S
C1736 H1722 0.931 . S
C1736 C1735 1.385 . S
C1736 C1737 1.389 . S
C1737 C1736 1.389 . S
C1737 C1738 1.387 . S
C1738 H1723 0.930 . S
C1738 C1733 1.390 . S
C1738 C1737 1.387 . S
H1739 C1751 0.930 . S
H1740 C1753 0.930 . S
H1741 C1754 0.930 . S
H1742 C1758 0.959 . S
H1743 C1758 0.959 . S
H1744 C1758 0.961 . S
H1745 C1759 0.960 . S
H1746 C1759 0.961 . S
H1747 C1759 0.959 . S
H1748 C1762 0.929 . S
H1749 C1763 0.931 . S
H1750 C1765 0.930 . S
C1751 H1739 0.930 . S
C1751 C1752 1.399 . S
C1751 C1756 1.399 . S
C1752 C1751 1.399 . S
C1752 C1753 1.376 . S
C1753 H1740 0.930 . S
C1753 C1752 1.376 . S
C1753 C1754 1.388 . S
C1754 H1741 0.930 . S
C1754 C1753 1.388 . S
C1754 C1755 1.390 . S
C1755 C1754 1.390 . S
C1755 C1756 1.394 . S
C1755 C1761 1.465 . S
C1756 C1751 1.399 . S
C1756 C1755 1.394 . S
C1756 C1757 1.516 . S
C1757 C1756 1.516 . S
C1757 C1758 1.502 . S
C1757 C1759 1.561 . S
C1757 C1760 1.526 . S
C1758 H1742 0.959 . S
C1758 H1743 0.959 . S
C1758 H1744 0.961 . S
C1758 C1757 1.502 . S
C1759 H1745 0.960 . S
C1759 H1746 0.961 . S
C1759 H1747 0.959 . S
C1759 C1757 1.561 . S
C1760 C1757 1.526 . S
C1760 C1761 1.396 . S
C1760 C1765 1.390 . S
C1761 C1755 1.465 . S
C1761 C1760 1.396 . S
C1761 C1762 1.399 . S
C1762 H1748 0.929 . S
C1762 C1761 1.399 . S
C1762 C1763 1.385 . S
C1763 H1749 0.931 . S
C1763 C1762 1.385 . S
C1763 C1764 1.389 . S
C1764 C1763 1.389 . S
C1764 C1765 1.387 . S
C1765 H1750 0.930 . S
C1765 C1760 1.390 . S
C1765 C1764 1.387 . S
H1766 C1778 0.930 . S
H1767 C1780 0.930 . S
H1768 C1781 0.930 . S
H1769 C1785 0.959 . S
H1770 C1785 0.959 . S
H1771 C1785 0.961 . S
H1772 C1786 0.960 . S
H1773 C1786 0.961 . S
H1774 C1786 0.959 . S
H1775 C1789 0.929 . S
H1776 C1790 0.931 . S
H1777 C1792 0.930 . S
C1778 H1766 0.930 . S
C1778 C1779 1.399 . S
C1778 C1783 1.399 . S
C1779 C1778 1.399 . S
C1779 C1780 1.376 . S
C1780 H1767 0.930 . S
C1780 C1779 1.376 . S
C1780 C1781 1.388 . S
C1781 H1768 0.930 . S
C1781 C1780 1.388 . S
C1781 C1782 1.390 . S
C1782 C1781 1.390 . S
C1782 C1783 1.394 . S
C1782 C1788 1.465 . S
C1783 C1778 1.399 . S
C1783 C1782 1.394 . S
C1783 C1784 1.516 . S
C1784 C1783 1.516 . S
C1784 C1785 1.502 . S
C1784 C1786 1.561 . S
C1784 C1787 1.526 . S
C1785 H1769 0.959 . S
C1785 H1770 0.959 . S
C1785 H1771 0.961 . S
C1785 C1784 1.502 . S
C1786 H1772 0.960 . S
C1786 H1773 0.961 . S
C1786 H1774 0.959 . S
C1786 C1784 1.561 . S
C1787 C1784 1.526 . S
C1787 C1788 1.396 . S
C1787 C1792 1.390 . S
C1788 C1782 1.465 . S
C1788 C1787 1.396 . S
C1788 C1789 1.399 . S
C1789 H1775 0.929 . S
C1789 C1788 1.399 . S
C1789 C1790 1.385 . S
C1790 H1776 0.931 . S
C1790 C1789 1.385 . S
C1790 C1791 1.389 . S
C1791 C1790 1.389 . S
C1791 C1792 1.387 . S
C1792 H1777 0.930 . S
C1792 C1787 1.390 . S
C1792 C1791 1.387 . S
H1793 C1805 0.930 . S
H1794 C1807 0.930 . S
H1795 C1808 0.930 . S
H1796 C1812 0.959 . S
H1797 C1812 0.959 . S
H1798 C1812 0.961 . S
H1799 C1813 0.960 . S
H1800 C1813 0.961 . S
H1801 C1813 0.959 . S
H1802 C1816 0.929 . S
H1803 C1817 0.931 . S
H1804 C1819 0.930 . S
C1805 H1793 0.930 . S
C1805 C1806 1.399 . S
C1805 C1810 1.399 . S
C1806 C1805 1.399 . S
C1806 C1807 1.376 . S
C1807 H1794 0.930 . S
C1807 C1806 1.376 . S
C1807 C1808 1.388 . S
C1808 H1795 0.930 . S
C1808 C1807 1.388 . S
C1808 C1809 1.390 . S
C1809 C1808 1.390 . S
C1809 C1810 1.394 . S
C1809 C1815 1.465 . S
C1810 C1805 1.399 . S
C1810 C1809 1.394 . S
C1810 C1811 1.516 . S
C1811 C1810 1.516 . S
C1811 C1812 1.502 . S
C1811 C1813 1.561 . S
C1811 C1814 1.526 . S
C1812 H1796 0.959 . S
C1812 H1797 0.959 . S
C1812 H1798 0.961 . S
C1812 C1811 1.502 . S
C1813 H1799 0.960 . S
C1813 H1800 0.961 . S
C1813 H1801 0.959 . S
C1813 C1811 1.561 . S
C1814 C1811 1.526 . S
C1814 C1815 1.396 . S
C1814 C1819 1.390 . S
C1815 C1809 1.465 . S
C1815 C1814 1.396 . S
C1815 C1816 1.399 . S
C1816 H1802 0.929 . S
C1816 C1815 1.399 . S
C1816 C1817 1.385 . S
C1817 H1803 0.931 . S
C1817 C1816 1.385 . S
C1817 C1818 1.389 . S
C1818 C1817 1.389 . S
C1818 C1819 1.387 . S
C1819 H1804 0.930 . S
C1819 C1814 1.390 . S
C1819 C1818 1.387 . S
H1820 C1832 0.930 . S
H1821 C1834 0.930 . S
H1822 C1835 0.930 . S
H1823 C1839 0.959 . S
H1824 C1839 0.959 . S
H1825 C1839 0.961 . S
H1826 C1840 0.960 . S
H1827 C1840 0.961 . S
H1828 C1840 0.959 . S
H1829 C1843 0.929 . S
H1830 C1844 0.931 . S
H1831 C1846 0.930 . S
C1832 H1820 0.930 . S
C1832 C1833 1.399 . S
C1832 C1837 1.399 . S
C1833 C1832 1.399 . S
C1833 C1834 1.376 . S
C1834 H1821 0.930 . S
C1834 C1833 1.376 . S
C1834 C1835 1.388 . S
C1835 H1822 0.930 . S
C1835 C1834 1.388 . S
C1835 C1836 1.390 . S
C1836 C1835 1.390 . S
C1836 C1837 1.394 . S
C1836 C1842 1.465 . S
C1837 C1832 1.399 . S
C1837 C1836 1.394 . S
C1837 C1838 1.516 . S
C1838 C1837 1.516 . S
C1838 C1839 1.502 . S
C1838 C1840 1.561 . S
C1838 C1841 1.526 . S
C1839 H1823 0.959 . S
C1839 H1824 0.959 . S
C1839 H1825 0.961 . S
C1839 C1838 1.502 . S
C1840 H1826 0.960 . S
C1840 H1827 0.961 . S
C1840 H1828 0.959 . S
C1840 C1838 1.561 . S
C1841 C1838 1.526 . S
C1841 C1842 1.396 . S
C1841 C1846 1.390 . S
C1842 C1836 1.465 . S
C1842 C1841 1.396 . S
C1842 C1843 1.399 . S
C1843 H1829 0.929 . S
C1843 C1842 1.399 . S
C1843 C1844 1.385 . S
C1844 H1830 0.931 . S
C1844 C1843 1.385 . S
C1844 C1845 1.389 . S
C1845 C1844 1.389 . S
C1845 C1846 1.387 . S
C1846 H1831 0.930 . S
C1846 C1841 1.390 . S
C1846 C1845 1.387 . S
H1847 C1859 0.930 . S
H1848 C1861 0.930 . S
H1849 C1862 0.930 . S
H1850 C1866 0.959 . S
H1851 C1866 0.959 . S
H1852 C1866 0.961 . S
H1853 C1867 0.960 . S
H1854 C1867 0.961 . S
H1855 C1867 0.959 . S
H1856 C1870 0.929 . S
H1857 C1871 0.931 . S
H1858 C1873 0.930 . S
C1859 H1847 0.930 . S
C1859 C1860 1.399 . S
C1859 C1864 1.399 . S
C1860 C1859 1.399 . S
C1860 C1861 1.376 . S
C1861 H1848 0.930 . S
C1861 C1860 1.376 . S
C1861 C1862 1.388 . S
C1862 H1849 0.930 . S
C1862 C1861 1.388 . S
C1862 C1863 1.390 . S
C1863 C1862 1.390 . S
C1863 C1864 1.394 . S
C1863 C1869 1.465 . S
C1864 C1859 1.399 . S
C1864 C1863 1.394 . S
C1864 C1865 1.516 . S
C1865 C1864 1.516 . S
C1865 C1866 1.502 . S
C1865 C1867 1.561 . S
C1865 C1868 1.526 . S
C1866 H1850 0.959 . S
C1866 H1851 0.959 . S
C1866 H1852 0.961 . S
C1866 C1865 1.502 . S
C1867 H1853 0.960 . S
C1867 H1854 0.961 . S
C1867 H1855 0.959 . S
C1867 C1865 1.561 . S
C1868 C1865 1.526 . S
C1868 C1869 1.396 . S
C1868 C1873 1.390 . S
C1869 C1863 1.465 . S
C1869 C1868 1.396 . S
C1869 C1870 1.399 . S
C1870 H1856 0.929 . S
C1870 C1869 1.399 . S
C1870 C1871 1.385 . S
C1871 H1857 0.931 . S
C1871 C1870 1.385 . S
C1871 C1872 1.389 . S
C1872 C1871 1.389 . S
C1872 C1873 1.387 . S
C1873 H1858 0.930 . S
C1873 C1868 1.390 . S
C1873 C1872 1.387 . S
H1874 C1886 0.930 . S
H1875 C1888 0.930 . S
H1876 C1889 0.930 . S
H1877 C1893 0.959 . S
H1878 C1893 0.959 . S
H1879 C1893 0.961 . S
H1880 C1894 0.960 . S
H1881 C1894 0.961 . S
H1882 C1894 0.959 . S
H1883 C1897 0.929 . S
H1884 C1898 0.931 . S
H1885 C1900 0.930 . S
C1886 H1874 0.930 . S
C1886 C1887 1.399 . S
C1886 C1891 1.399 . S
C1887 C1886 1.399 . S
C1887 C1888 1.376 . S
C1888 H1875 0.930 . S
C1888 C1887 1.376 . S
C1888 C1889 1.388 . S
C1889 H1876 0.930 . S
C1889 C1888 1.388 . S
C1889 C1890 1.390 . S
C1890 C1889 1.390 . S
C1890 C1891 1.394 . S
C1890 C1896 1.465 . S
C1891 C1886 1.399 . S
C1891 C1890 1.394 . S
C1891 C1892 1.516 . S
C1892 C1891 1.516 . S
C1892 C1893 1.502 . S
C1892 C1894 1.561 . S
C1892 C1895 1.526 . S
C1893 H1877 0.959 . S
C1893 H1878 0.959 . S
C1893 H1879 0.961 . S
C1893 C1892 1.502 . S
C1894 H1880 0.960 . S
C1894 H1881 0.961 . S
C1894 H1882 0.959 . S
C1894 C1892 1.561 . S
C1895 C1892 1.526 . S
C1895 C1896 1.396 . S
C1895 C1900 1.390 . S
C1896 C1890 1.465 . S
C1896 C1895 1.396 . S
C1896 C1897 1.399 . S
C1897 H1883 0.929 . S
C1897 C1896 1.399 . S
C1897 C1898 1.385 . S
C1898 H1884 0.931 . S
C1898 C1897 1.385 . S
C1898 C1899 1.389 . S
C1899 C1898 1.389 . S
C1899 C1900 1.387 . S
C1900 H1885 0.930 . S
C1900 C1895 1.390 . S
C1900 C1899 1.387 . S
H1901 C1913 0.930 . S
H1902 C1915 0.930 . S
H1903 C1916 0.930 . S
H1904 C1920 0.959 . S
H1905 C1920 0.959 . S
H1906 C1920 0.961 . S
H1907 C1921 0.960 . S
H1908 C1921 0.961 . S
H1909 C1921 0.959 . S
H1910 C1924 0.929 . S
H1911 C1925 0.931 . S
H1912 C1927 0.930 . S
C1913 H1901 0.930 . S
C1913 C1914 1.399 . S
C1913 C1918 1.399 . S
C1914 C1913 1.399 . S
C1914 C1915 1.376 . S
C1915 H1902 0.930 . S
C1915 C1914 1.376 . S
C1915 C1916 1.388 . S
C1916 H1903 0.930 . S
C1916 C1915 1.388 . S
C1916 C1917 1.390 . S
C1917 C1916 1.390 . S
C1917 C1918 1.394 . S
C1917 C1923 1.465 . S
C1918 C1913 1.399 . S
C1918 C1917 1.394 . S
C1918 C1919 1.516 . S
C1919 C1918 1.516 . S
C1919 C1920 1.502 . S
C1919 C1921 1.561 . S
C1919 C1922 1.526 . S
C1920 H1904 0.959 . S
C1920 H1905 0.959 . S
C1920 H1906 0.961 . S
C1920 C1919 1.502 . S
C1921 H1907 0.960 . S
C1921 H1908 0.961 . S
C1921 H1909 0.959 . S
C1921 C1919 1.561 . S
C1922 C1919 1.526 . S
C1922 C1923 1.396 . S
C1922 C1927 1.390 . S
C1923 C1917 1.465 . S
C1923 C1922 1.396 . S
C1923 C1924 1.399 . S
C1924 H1910 0.929 . S
C1924 C1923 1.399 . S
C1924 C1925 1.385 . S
C1925 H1911 0.931 . S
C1925 C1924 1.385 . S
C1925 C1926 1.389 . S
C1926 C1925 1.389 . S
C1926 C1927 1.387 . S
C1927 H1912 0.930 . S
C1927 C1922 1.390 . S
C1927 C1926 1.387 . S
H1928 C1940 0.930 . S
H1929 C1942 0.930 . S
H1930 C1943 0.930 . S
H1931 C1947 0.959 . S
H1932 C1947 0.959 . S
H1933 C1947 0.961 . S
H1934 C1948 0.960 . S
H1935 C1948 0.961 . S
H1936 C1948 0.959 . S
H1937 C1951 0.929 . S
H1938 C1952 0.931 . S
H1939 C1954 0.930 . S
C1940 H1928 0.930 . S
C1940 C1941 1.399 . S
C1940 C1945 1.399 . S
C1941 C1940 1.399 . S
C1941 C1942 1.376 . S
C1942 H1929 0.930 . S
C1942 C1941 1.376 . S
C1942 C1943 1.388 . S
C1943 H1930 0.930 . S
C1943 C1942 1.388 . S
C1943 C1944 1.390 . S
C1944 C1943 1.390 . S
C1944 C1945 1.394 . S
C1944 C1950 1.465 . S
C1945 C1940 1.399 . S
C1945 C1944 1.394 . S
C1945 C1946 1.516 . S
C1946 C1945 1.516 . S
C1946 C1947 1.502 . S
C1946 C1948 1.561 . S
C1946 C1949 1.526 . S
C1947 H1931 0.959 . S
C1947 H1932 0.959 . S
C1947 H1933 0.961 . S
C1947 C1946 1.502 . S
C1948 H1934 0.960 . S
C1948 H1935 0.961 . S
C1948 H1936 0.959 . S
C1948 C1946 1.561 . S
C1949 C1946 1.526 . S
C1949 C1950 1.396 . S
C1949 C1954 1.390 . S
C1950 C1944 1.465 . S
C1950 C1949 1.396 . S
C1950 C1951 1.399 . S
C1951 H1937 0.929 . S
C1951 C1950 1.399 . S
C1951 C1952 1.385 . S
C1952 H1938 0.931 . S
C1952 C1951 1.385 . S
C1952 C1953 1.389 . S
C1953 C1952 1.389 . S
C1953 C1954 1.387 . S
C1954 H1939 0.930 . S
C1954 C1949 1.390 . S
C1954 C1953 1.387 . S
H1955 C1967 0.930 . S
H1956 C1969 0.930 . S
H1957 C1970 0.930 . S
H1958 C1974 0.959 . S
H1959 C1974 0.959 . S
H1960 C1974 0.961 . S
H1961 C1975 0.960 . S
H1962 C1975 0.961 . S
H1963 C1975 0.959 . S
H1964 C1978 0.929 . S
H1965 C1979 0.931 . S
H1966 C1981 0.930 . S
C1967 H1955 0.930 . S
C1967 C1968 1.399 . S
C1967 C1972 1.399 . S
C1968 C1967 1.399 . S
C1968 C1969 1.376 . S
C1969 H1956 0.930 . S
C1969 C1968 1.376 . S
C1969 C1970 1.388 . S
C1970 H1957 0.930 . S
C1970 C1969 1.388 . S
C1970 C1971 1.390 . S
C1971 C1970 1.390 . S
C1971 C1972 1.394 . S
C1971 C1977 1.465 . S
C1972 C1967 1.399 . S
C1972 C1971 1.394 . S
C1972 C1973 1.516 . S
C1973 C1972 1.516 . S
C1973 C1974 1.502 . S
C1973 C1975 1.561 . S
C1973 C1976 1.526 . S
C1974 H1958 0.959 . S
C1974 H1959 0.959 . S
C1974 H1960 0.961 . S
C1974 C1973 1.502 . S
C1975 H1961 0.960 . S
C1975 H1962 0.961 . S
C1975 H1963 0.959 . S
C1975 C1973 1.561 . S
C1976 C1973 1.526 . S
C1976 C1977 1.396 . S
C1976 C1981 1.390 . S
C1977 C1971 1.465 . S
C1977 C1976 1.396 . S
C1977 C1978 1.399 . S
C1978 H1964 0.929 . S
C1978 C1977 1.399 . S
C1978 C1979 1.385 . S
C1979 H1965 0.931 . S
C1979 C1978 1.385 . S
C1979 C1980 1.389 . S
C1980 C1979 1.389 . S
C1980 C1981 1.387 . S
C1981 H1966 0.930 . S
C1981 C1976 1.390 . S
C1981 C1980 1.387 . S
H1982 C1994 0.930 . S
H1983 C1996 0.930 . S
H1984 C1997 0.930 . S
H1985 C2001 0.959 . S
H1986 C2001 0.959 . S
H1987 C2001 0.961 . S
H1988 C2002 0.960 . S
H1989 C2002 0.961 . S
H1990 C2002 0.959 . S
H1991 C2005 0.929 . S
H1992 C2006 0.931 . S
H1993 C2008 0.930 . S
C1994 H1982 0.930 . S
C1994 C1995 1.399 . S
C1994 C1999 1.399 . S
C1995 C1994 1.399 . S
C1995 C1996 1.376 . S
C1996 H1983 0.930 . S
C1996 C1995 1.376 . S
C1996 C1997 1.388 . S
C1997 H1984 0.930 . S
C1997 C1996 1.388 . S
C1997 C1998 1.390 . S
C1998 C1997 1.390 . S
C1998 C1999 1.394 . S
C1998 C2004 1.465 . S
C1999 C1994 1.399 . S
C1999 C1998 1.394 . S
C1999 C2000 1.516 . S
C2000 C1999 1.516 . S
C2000 C2001 1.502 . S
C2000 C2002 1.561 . S
C2000 C2003 1.526 . S
C2001 H1985 0.959 . S
C2001 H1986 0.959 . S
C2001 H1987 0.961 . S
C2001 C2000 1.502 . S
C2002 H1988 0.960 . S
C2002 H1989 0.961 . S
C2002 H1990 0.959 . S
C2002 C2000 1.561 . S
C2003 C2000 1.526 . S
C2003 C2004 1.396 . S
C2003 C2008 1.390 . S
C2004 C1998 1.465 . S
C2004 C2003 1.396 . S
C2004 C2005 1.399 . S
C2005 H1991 0.929 . S
C2005 C2004 1.399 . S
C2005 C2006 1.385 . S
C2006 H1992 0.931 . S
C2006 C2005 1.385 . S
C2006 C2007 1.389 . S
C2007 C2006 1.389 . S
C2007 C2008 1.387 . S
C2008 H1993 0.930 . S
C2008 C2003 1.390 . S
C2008 C2007 1.387 . S
H2009 C2021 0.930 . S
H2010 C2023 0.930 . S
H2011 C2024 0.930 . S
H2012 C2028 0.959 . S
H2013 C2028 0.959 . S
H2014 C2028 0.961 . S
H2015 C2029 0.960 . S
H2016 C2029 0.961 . S
H2017 C2029 0.959 . S
H2018 C2032 0.929 . S
H2019 C2033 0.931 . S
H2020 C2035 0.930 . S
C2021 H2009 0.930 . S
C2021 C2022 1.399 . S
C2021 C2026 1.399 . S
C2022 C2021 1.399 . S
C2022 C2023 1.376 . S
C2023 H2010 0.930 . S
C2023 C2022 1.376 . S
C2023 C2024 1.388 . S
C2024 H2011 0.930 . S
C2024 C2023 1.388 . S
C2024 C2025 1.390 . S
C2025 C2024 1.390 . S
C2025 C2026 1.394 . S
C2025 C2031 1.465 . S
C2026 C2021 1.399 . S
C2026 C2025 1.394 . S
C2026 C2027 1.516 . S
C2027 C2026 1.516 . S
C2027 C2028 1.502 . S
C2027 C2029 1.561 . S
C2027 C2030 1.526 . S
C2028 H2012 0.959 . S
C2028 H2013 0.959 . S
C2028 H2014 0.961 . S
C2028 C2027 1.502 . S
C2029 H2015 0.960 . S
C2029 H2016 0.961 . S
C2029 H2017 0.959 . S
C2029 C2027 1.561 . S
C2030 C2027 1.526 . S
C2030 C2031 1.396 . S
C2030 C2035 1.390 . S
C2031 C2025 1.465 . S
C2031 C2030 1.396 . S
C2031 C2032 1.399 . S
C2032 H2018 0.929 . S
C2032 C2031 1.399 . S
C2032 C2033 1.385 . S
C2033 H2019 0.931 . S
C2033 C2032 1.385 . S
C2033 C2034 1.389 . S
C2034 C2033 1.389 . S
C2034 C2035 1.387 . S
C2035 H2020 0.930 . S
C2035 C2030 1.390 . S
C2035 C2034 1.387 . S
H2036 C2048 0.930 . S
H2037 C2050 0.930 . S
H2038 C2051 0.930 . S
H2039 C2055 0.959 . S
H2040 C2055 0.959 . S
H2041 C2055 0.961 . S
H2042 C2056 0.960 . S
H2043 C2056 0.961 . S
H2044 C2056 0.959 . S
H2045 C2059 0.929 . S
H2046 C2060 0.931 . S
H2047 C2062 0.930 . S
C2048 H2036 0.930 . S
C2048 C2049 1.399 . S
C2048 C2053 1.399 . S
C2049 C2048 1.399 . S
C2049 C2050 1.376 . S
C2050 H2037 0.930 . S
C2050 C2049 1.376 . S
C2050 C2051 1.388 . S
C2051 H2038 0.930 . S
C2051 C2050 1.388 . S
C2051 C2052 1.390 . S
C2052 C2051 1.390 . S
C2052 C2053 1.394 . S
C2052 C2058 1.465 . S
C2053 C2048 1.399 . S
C2053 C2052 1.394 . S
C2053 C2054 1.516 . S
C2054 C2053 1.516 . S
C2054 C2055 1.502 . S
C2054 C2056 1.561 . S
C2054 C2057 1.526 . S
C2055 H2039 0.959 . S
C2055 H2040 0.959 . S
C2055 H2041 0.961 . S
C2055 C2054 1.502 . S
C2056 H2042 0.960 . S
C2056 H2043 0.961 . S
C2056 H2044 0.959 . S
C2056 C2054 1.561 . S
C2057 C2054 1.526 . S
C2057 C2058 1.396 . S
C2057 C2062 1.390 . S
C2058 C2052 1.465 . S
C2058 C2057 1.396 . S
C2058 C2059 1.399 . S
C2059 H2045 0.929 . S
C2059 C2058 1.399 . S
C2059 C2060 1.385 . S
C2060 H2046 0.931 . S
C2060 C2059 1.385 . S
C2060 C2061 1.389 . S
C2061 C2060 1.389 . S
C2061 C2062 1.387 . S
C2062 H2047 0.930 . S
C2062 C2057 1.390 . S
C2062 C2061 1.387 . S
H2063 C2075 0.930 . S
H2064 C2077 0.930 . S
H2065 C2078 0.930 . S
H2066 C2082 0.959 . S
H2067 C2082 0.959 . S
H2068 C2082 0.961 . S
H2069 C2083 0.960 . S
H2070 C2083 0.961 . S
H2071 C2083 0.959 . S
H2072 C2086 0.929 . S
H2073 C2087 0.931 . S
H2074 C2089 0.930 . S
C2075 H2063 0.930 . S
C2075 C2076 1.399 . S
C2075 C2080 1.399 . S
C2076 C2075 1.399 . S
C2076 C2077 1.376 . S
C2077 H2064 0.930 . S
C2077 C2076 1.376 . S
C2077 C2078 1.388 . S
C2078 H2065 0.930 . S
C2078 C2077 1.388 . S
C2078 C2079 1.390 . S
C2079 C2078 1.390 . S
C2079 C2080 1.394 . S
C2079 C2085 1.465 . S
C2080 C2075 1.399 . S
C2080 C2079 1.394 . S
C2080 C2081 1.516 . S
C2081 C2080 1.516 . S
C2081 C2082 1.502 . S
C2081 C2083 1.561 . S
C2081 C2084 1.526 . S
C2082 H2066 0.959 . S
C2082 H2067 0.959 . S
C2082 H2068 0.961 . S
C2082 C2081 1.502 . S
C2083 H2069 0.960 . S
C2083 H2070 0.961 . S
C2083 H2071 0.959 . S
C2083 C2081 1.561 . S
C2084 C2081 1.526 . S
C2084 C2085 1.396 . S
C2084 C2089 1.390 . S
C2085 C2079 1.465 . S
C2085 C2084 1.396 . S
C2085 C2086 1.399 . S
C2086 H2072 0.929 . S
C2086 C2085 1.399 . S
C2086 C2087 1.385 . S
C2087 H2073 0.931 . S
C2087 C2086 1.385 . S
C2087 C2088 1.389 . S
C2088 C2087 1.389 . S
C2088 C2089 1.387 . S
C2089 H2074 0.930 . S
C2089 C2084 1.390 . S
C2089 C2088 1.387 . S
H2090 C2102 0.930 . S
H2091 C2104 0.930 . S
H2092 C2105 0.930 . S
H2093 C2109 0.959 . S
H2094 C2109 0.959 . S
H2095 C2109 0.961 . S
H2096 C2110 0.960 . S
H2097 C2110 0.961 . S
H2098 C2110 0.959 . S
H2099 C2113 0.929 . S
H2100 C2114 0.931 . S
H2101 C2116 0.930 . S
C2102 H2090 0.930 . S
C2102 C2103 1.399 . S
C2102 C2107 1.399 . S
C2103 C2102 1.399 . S
C2103 C2104 1.376 . S
C2104 H2091 0.930 . S
C2104 C2103 1.376 . S
C2104 C2105 1.388 . S
C2105 H2092 0.930 . S
C2105 C2104 1.388 . S
C2105 C2106 1.390 . S
C2106 C2105 1.390 . S
C2106 C2107 1.394 . S
C2106 C2112 1.465 . S
C2107 C2102 1.399 . S
C2107 C2106 1.394 . S
C2107 C2108 1.516 . S
C2108 C2107 1.516 . S
C2108 C2109 1.502 . S
C2108 C2110 1.561 . S
C2108 C2111 1.526 . S
C2109 H2093 0.959 . S
C2109 H2094 0.959 . S
C2109 H2095 0.961 . S
C2109 C2108 1.502 . S
C2110 H2096 0.960 . S
C2110 H2097 0.961 . S
C2110 H2098 0.959 . S
C2110 C2108 1.561 . S
C2111 C2108 1.526 . S
C2111 C2112 1.396 . S
C2111 C2116 1.390 . S
C2112 C2106 1.465 . S
C2112 C2111 1.396 . S
C2112 C2113 1.399 . S
C2113 H2099 0.929 . S
C2113 C2112 1.399 . S
C2113 C2114 1.385 . S
C2114 H2100 0.931 . S
C2114 C2113 1.385 . S
C2114 C2115 1.389 . S
C2115 C2114 1.389 . S
C2115 C2116 1.387 . S
C2116 H2101 0.930 . S
C2116 C2111 1.390 . S
C2116 C2115 1.387 . S
H2117 C2129 0.930 . S
H2118 C2131 0.930 . S
H2119 C2132 0.930 . S
H2120 C2136 0.959 . S
H2121 C2136 0.959 . S
H2122 C2136 0.961 . S
H2123 C2137 0.960 . S
H2124 C2137 0.961 . S
H2125 C2137 0.959 . S
H2126 C2140 0.929 . S
H2127 C2141 0.931 . S
H2128 C2143 0.930 . S
C2129 H2117 0.930 . S
C2129 C2130 1.399 . S
C2129 C2134 1.399 . S
C2130 C2129 1.399 . S
C2130 C2131 1.376 . S
C2131 H2118 0.930 . S
C2131 C2130 1.376 . S
C2131 C2132 1.388 . S
C2132 H2119 0.930 . S
C2132 C2131 1.388 . S
C2132 C2133 1.390 . S
C2133 C2132 1.390 . S
C2133 C2134 1.394 . S
C2133 C2139 1.465 . S
C2134 C2129 1.399 . S
C2134 C2133 1.394 . S
C2134 C2135 1.516 . S
C2135 C2134 1.516 . S
C2135 C2136 1.502 . S
C2135 C2137 1.561 . S
C2135 C2138 1.526 . S
C2136 H2120 0.959 . S
C2136 H2121 0.959 . S
C2136 H2122 0.961 . S
C2136 C2135 1.502 . S
C2137 H2123 0.960 . S
C2137 H2124 0.961 . S
C2137 H2125 0.959 . S
C2137 C2135 1.561 . S
C2138 C2135 1.526 . S
C2138 C2139 1.396 . S
C2138 C2143 1.390 . S
C2139 C2133 1.465 . S
C2139 C2138 1.396 . S
C2139 C2140 1.399 . S
C2140 H2126 0.929 . S
C2140 C2139 1.399 . S
C2140 C2141 1.385 . S
C2141 H2127 0.931 . S
C2141 C2140 1.385 . S
C2141 C2142 1.389 . S
C2142 C2141 1.389 . S
C2142 C2143 1.387 . S
C2143 H2128 0.930 . S
C2143 C2138 1.390 . S
C2143 C2142 1.387 . S
C429 C354 1.475 . S
C441 C5 1.477 . S
C456 C16 1.480 1_655 S
C468 C108 1.481 . S
C483 C328 1.472 . S
C495 C29 1.474 . S
C510 C42 1.485 . S
C522 C140 1.486 . S
C537 C55 1.474 . S
C549 C380 1.474 . S
C564 C68 1.465 . S
C576 C192 1.469 . S
C591 C83 1.475 . S
C603 C406 1.476 . S
C618 C96 1.486 1_655 S
C630 C166 1.486 . S
C645 C251 1.478 . S
C657 C107 1.477 . S
C672 C10 1.491 . S
C684 C127 1.485 1_455 S
C699 C225 1.485 . S
C711 C135 1.491 . S
C726 C153 1.467 . S
C738 C30 1.469 . S
C753 C277 1.504 . S
C765 C161 1.500 . S
C780 C88 1.487 . S
C792 C173 1.478 . S
C807 C187 1.474 . S
C819 C309 1.479 . S
C834 C56 1.473 . S
C846 C199 1.484 1_455 S
C861 C211 1.482 . S
C873 C148 1.481 . S
C888 C224 1.464 . S
C900 C316 1.468 . S
C915 C122 1.493 . S
C927 C237 1.492 . S
C942 C342 1.472 . S
C954 C250 1.469 1_455 S
C969 C172 1.498 . S
C981 C263 1.497 . S
C996 C394 1.492 . S
C1008 C276 1.491 1_455 S
C1023 C198 1.498 . S
C1035 C289 1.497 . S
C1050 C304 1.481 . S
C1062 C368 1.482 . S
C1077 C43 1.481 . S
C1089 C315 1.486 . S
C1104 C329 1.467 . S
C1116 C212 1.472 . S
C1131 C341 1.503 . S
C1143 C17 1.498 . S
C1158 C355 1.492 1_655 S
C1170 C238 1.489 . S
C1185 C367 1.478 . S
C1197 C69 1.490 . S
C1212 C381 1.474 1_655 S
C1224 C290 1.484 . S
C1239 C393 1.487 . S
C1251 C101 1.482 . S
C1266 C407 1.467 . S
C1278 C264 1.471 . S
C1293 C317 1.532 . S
C1305 C3 1.515 . S
C1320 C18 1.527 . S
C1332 C121 1.521 . S
C1347 C343 1.534 . S
C1359 C31 1.515 . S
C1374 C44 1.521 . S
C1386 C147 1.534 . S
C1401 C369 1.515 . S
C1413 C57 1.530 . S
C1428 C70 1.531 . S
C1440 C179 1.516 . S
C1455 C395 1.530 . S
C1467 C81 1.521 . S
C1482 C94 1.533 . S
C1494 C205 1.514 . S
C1509 C109 1.514 . S
C1521 C213 1.532 . S
C1536 C133 1.534 . S
C1548 C239 1.516 . S
C1563 C159 1.527 . S
C1575 C265 1.524 . S
C1590 C185 1.518 . S
C1602 C291 1.527 . S
C1617 C226 1.535 . S
C1629 C335 1.512 . S
C1644 C361 1.510 . S
C1656 C252 1.538 . S
C1671 C387 1.515 . S
C1683 C278 1.536 . S
C1698 C302 1.521 . S
C1710 C413 1.534 . S
C1725 C4 1.384 . S
C1737 C75 1.386 . S
C1752 C23 1.382 . S
C1764 C82 1.387 . S
C1779 C36 1.387 . S
C1791 C95 1.382 . S
C1806 C62 1.387 . S
C1818 C49 1.381 . S
C1833 C114 1.384 . S
C1845 C174 1.389 . S
C1860 C120 1.382 . S
C1872 C186 1.388 . S
C1887 C134 1.384 . S
C1899 C200 1.389 . S
C1914 C146 1.380 . S
C1926 C160 1.387 . S
C1941 C218 1.387 . S
C1953 C283 1.383 . S
C1968 C296 1.376 . S
C1980 C231 1.382 . S
C1995 C244 1.375 . S
C2007 C303 1.379 . S
C2022 C257 1.376 . S
C2034 C270 1.381 . S
C2049 C382 1.380 . S
C2061 C322 1.377 . S
C2076 C330 1.376 . S
C2088 C400 1.384 . S
C2103 C408 1.378 . S
C2115 C348 1.386 . S
C2130 C356 1.381 . S
C2142 C374 1.378 . S
