# Generated by pormake.
# Topology lcx, (8)-cn, num edge types: 1
# Building blocks:
#     Node 0, Type 0, BuildingBlock: OLANAS_clean_sbu_2, # of connection points: 8
#     Node 1, Type 0, BuildingBlock: OLANAS_clean_sbu_2, # of connection points: 8
#     Node 2, Type 0, BuildingBlock: OLANAS_clean_sbu_2, # of connection points: 8
#     Node 3, Type 0, BuildingBlock: OLANAS_clean_sbu_2, # of connection points: 8
#     Node 4, Type 0, BuildingBlock: OLANAS_clean_sbu_2, # of connection points: 8
#     Node 5, Type 0, BuildingBlock: OLANAS_clean_sbu_2, # of connection points: 8
#     Edge 6, Type (0, 0), BuildingBlock: CIFDUS_clean_linker_0, # of connection points: 2
#     Edge 7, Type (0, 0), BuildingBlock: CIFDUS_clean_linker_0, # of connection points: 2
#     Edge 8, Type (0, 0), BuildingBlock: CIFDUS_clean_linker_0, # of connection points: 2
#     Edge 9, Type (0, 0), BuildingBlock: CIFDUS_clean_linker_0, # of connection points: 2
#     Edge 10, Type (0, 0), BuildingBlock: CIFDUS_clean_linker_0, # of connection points: 2
#     Edge 11, Type (0, 0), BuildingBlock: CIFDUS_clean_linker_0, # of connection points: 2
#     Edge 12, Type (0, 0), BuildingBlock: CIFDUS_clean_linker_0, # of connection points: 2
#     Edge 13, Type (0, 0), BuildingBlock: CIFDUS_clean_linker_0, # of connection points: 2
#     Edge 14, Type (0, 0), BuildingBlock: CIFDUS_clean_linker_0, # of connection points: 2
#     Edge 15, Type (0, 0), BuildingBlock: CIFDUS_clean_linker_0, # of connection points: 2
#     Edge 16, Type (0, 0), BuildingBlock: CIFDUS_clean_linker_0, # of connection points: 2
#     Edge 17, Type (0, 0), BuildingBlock: CIFDUS_clean_linker_0, # of connection points: 2
#     Edge 18, Type (0, 0), BuildingBlock: CIFDUS_clean_linker_0, # of connection points: 2
#     Edge 19, Type (0, 0), BuildingBlock: CIFDUS_clean_linker_0, # of connection points: 2
#     Edge 20, Type (0, 0), BuildingBlock: CIFDUS_clean_linker_0, # of connection points: 2
#     Edge 21, Type (0, 0), BuildingBlock: CIFDUS_clean_linker_0, # of connection points: 2
#     Edge 22, Type (0, 0), BuildingBlock: CIFDUS_clean_linker_0, # of connection points: 2
#     Edge 23, Type (0, 0), BuildingBlock: CIFDUS_clean_linker_0, # of connection points: 2
#     Edge 24, Type (0, 0), BuildingBlock: CIFDUS_clean_linker_0, # of connection points: 2
#     Edge 25, Type (0, 0), BuildingBlock: CIFDUS_clean_linker_0, # of connection points: 2
#     Edge 26, Type (0, 0), BuildingBlock: CIFDUS_clean_linker_0, # of connection points: 2
#     Edge 27, Type (0, 0), BuildingBlock: CIFDUS_clean_linker_0, # of connection points: 2
#     Edge 28, Type (0, 0), BuildingBlock: CIFDUS_clean_linker_0, # of connection points: 2
#     Edge 29, Type (0, 0), BuildingBlock: CIFDUS_clean_linker_0, # of connection points: 2
# Relax obj value: 0.048
# Max RMSD: 0.138
# Mean RMSD: 0.137
data_MOF--net-lcx--node1-OLANAS_clean_sbu_2--edge1-CIFDUS_clean_linker_0
_symmetry_space_group_name_H-M    P1
_symmetry_Int_Tables_number       1
_symmetry_cell_setting            triclinic
loop_
_symmetry_equiv_pos_as_xyz
'x, y, z'
_cell_length_a     28.215091
_cell_length_b     28.266681
_cell_length_c     28.270074
_cell_angle_alpha  89.680703
_cell_angle_beta   89.844837
_cell_angle_gamma 89.991679
loop_
_atom_site_label
_atom_site_type_symbol
_atom_site_fract_x
_atom_site_fract_y
_atom_site_fract_z
_atom_type_partial_charge
C0 C 0.93741 0.30908 0.50159 0.0
O1 O 0.893 0.32325 0.50134 0.0
C2 C 0.97704 0.34245 0.49768 0.0
C3 C 0.97585 0.39169 0.49247 0.0
C4 C 0.01955 0.41588 0.4879 0.0
C5 C 0.06292 0.39072 0.48827 0.0
C6 C 0.0611 0.34149 0.49356 0.0
N7 N 0.01896 0.32087 0.49847 0.0
N8 N 0.01415 0.24696 0.43433 0.0
Co9 Co 0.01841 0.256 0.50266 0.0
N10 N 0.01783 0.19118 0.50652 0.0
C11 C 0.01193 0.11833 0.46755 0.0
C12 C 0.01538 0.09586 0.51228 0.0
C13 C 0.01994 0.12287 0.55403 0.0
C14 C 0.02121 0.17218 0.54953 0.0
C15 C 0.01309 0.16782 0.46608 0.0
N16 N 0.02213 0.25422 0.57149 0.0
N17 N 0.94963 0.26227 0.50576 0.0
N18 N 0.08755 0.26069 0.49894 0.0
C19 C 0.01078 0.19953 0.42488 0.0
O20 O 0.00989 0.18321 0.38139 0.0
C21 C 0.10024 0.30733 0.49415 0.0
O22 O 0.14482 0.32085 0.49216 0.0
C23 C 0.12307 0.22561 0.50914 0.0
C24 C 0.1898 0.18079 0.47709 0.0
C25 C 0.14513 0.20199 0.47116 0.0
C26 C 0.14588 0.22652 0.55362 0.0
C27 C 0.18958 0.2038 0.55991 0.0
C28 C 0.20949 0.1789 0.52231 0.0
C29 C 0.02405 0.20808 0.58668 0.0
O30 O 0.02368 0.19661 0.63184 0.0
C31 C 0.01308 0.29125 0.60473 0.0
C32 C 0.0501 0.30622 0.6343 0.0
C33 C 0.04012 0.32899 0.67715 0.0
C34 C 0.99293 0.33769 0.68957 0.0
C35 C 0.95577 0.32339 0.66036 0.0
C36 C 0.96595 0.30141 0.6174 0.0
C37 C 0.91386 0.22619 0.50601 0.0
C38 C 0.89633 0.20854 0.54945 0.0
C39 C 0.85202 0.18577 0.55158 0.0
C40 C 0.82746 0.17796 0.50943 0.0
C41 C 0.84425 0.1952 0.46604 0.0
C42 C 0.88791 0.21867 0.46432 0.0
C43 C 0.02503 0.27961 0.39675 0.0
C44 C 0.04342 0.31478 0.30614 0.0
C45 C 0.99729 0.31913 0.32442 0.0
C46 C 0.98807 0.30003 0.3699 0.0
C47 C 0.07155 0.28055 0.37903 0.0
C48 C 0.08068 0.29671 0.33323 0.0
H49 H 0.94259 0.41077 0.49165 0.0
H50 H 0.01979 0.45397 0.48377 0.0
H51 H 0.09637 0.40906 0.4843 0.0
H52 H 0.00845 0.09778 0.43556 0.0
H53 H 0.0144 0.05764 0.51458 0.0
H54 H 0.02218 0.10581 0.58832 0.0
H55 H 0.12974 0.20377 0.4363 0.0
H56 H 0.13171 0.24802 0.58173 0.0
H57 H 0.24309 0.16095 0.52762 0.0
H58 H 0.0863 0.2972 0.62568 0.0
H59 H 0.9849 0.35583 0.72236 0.0
H60 H 0.937 0.28909 0.59609 0.0
H61 H 0.91553 0.21502 0.58177 0.0
H62 H 0.79463 0.15803 0.51035 0.0
H63 H 0.90033 0.23386 0.43125 0.0
H64 H 0.05107 0.32603 0.27028 0.0
H65 H 0.95241 0.29946 0.38408 0.0
H66 H 0.10009 0.26559 0.3994 0.0
C67 C 0.32417 0.50978 0.92116 0.0
O68 O 0.33945 0.51441 0.87737 0.0
C69 C 0.35675 0.50627 0.9613 0.0
C70 C 0.40635 0.50547 0.96126 0.0
C71 C 0.4297 0.50216 0.00539 0.0
C72 C 0.40346 0.50001 0.04806 0.0
C73 C 0.35399 0.50124 0.0451 0.0
N74 N 0.33405 0.50396 0.00256 0.0
N75 N 0.26211 0.43616 0.99535 0.0
Co76 Co 0.26887 0.50482 0.00064 0.0
N77 N 0.20369 0.50602 0.99897 0.0
C78 C 0.13217 0.46359 0.00144 0.0
C79 C 0.10804 0.50741 0.00363 0.0
C80 C 0.13354 0.5505 0.00403 0.0
C81 C 0.18304 0.5483 0.00169 0.0
C82 C 0.18173 0.46436 -0.0006 0.0
N83 N 0.26415 0.57349 0.00552 0.0
N84 N 0.27688 0.51022 0.93241 0.0
N85 N 0.27228 0.49908 0.0693 0.0
C86 C 0.21491 0.42449 0.99776 0.0
O87 O 0.20008 0.3804 0.99632 0.0
C88 C 0.31883 0.498 0.08323 0.0
O89 O 0.3312 0.49191 0.12768 0.0
C90 C 0.23563 0.48344 0.1008 0.0
C91 C 0.20829 0.42356 0.15639 0.0
C92 C 0.23764 0.43694 0.11887 0.0
C93 C 0.20307 0.5161 0.11974 0.0
C94 C 0.17211 0.50184 0.15614 0.0
C95 C 0.17516 0.45572 0.17399 0.0
C96 C 0.21751 0.58696 0.00483 0.0
O97 O 0.20438 0.63127 0.01014 0.0
C98 C 0.30073 0.60705 0.01552 0.0
C99 C 0.31545 0.61335 0.06238 0.0
C100 C 0.34449 0.65146 0.07393 0.0
C101 C 0.35853 0.68365 0.03877 0.0
C102 C 0.34169 0.67998 0.99228 0.0
C103 C 0.31335 0.64074 0.98088 0.0
C104 C 0.24228 0.51983 0.89676 0.0
C105 C 0.23557 0.5668 0.88167 0.0
C106 C 0.21569 0.57644 0.83735 0.0
C107 C 0.20039 0.53882 0.80925 0.0
C108 C 0.20631 0.49188 0.8239 0.0
C109 C 0.22683 0.48257 0.86805 0.0
C110 C 0.29663 0.40285 0.97837 0.0
C111 C 0.35761 0.33059 0.94956 0.0
C112 C 0.31662 0.33945 0.92349 0.0
C113 C 0.28675 0.37629 0.93728 0.0
C114 C 0.33451 0.38896 0.00754 0.0
C115 C 0.36375 0.35114 0.99403 0.0
H116 H 0.42633 0.50723 0.92857 0.0
H117 H 0.46799 0.50114 0.00652 0.0
H118 H 0.42121 0.49725 0.08186 0.0
H119 H 0.11279 0.43055 0.00166 0.0
H120 H 0.06973 0.50795 0.00552 0.0
H121 H 0.11523 0.58403 0.00669 0.0
H122 H 0.26376 0.4123 0.10541 0.0
H123 H 0.20272 0.55234 0.1071 0.0
H124 H 0.15218 0.44495 0.203 0.0
H125 H 0.30193 0.59069 0.09022 0.0
H126 H 0.38203 0.71232 0.04844 0.0
H127 H 0.29868 0.63769 0.94587 0.0
H128 H 0.24886 0.59552 0.90274 0.0
H129 H 0.18337 0.54616 0.77563 0.0
H130 H 0.23391 0.44652 0.87847 0.0
H131 H 0.37986 0.30084 0.93965 0.0
H132 H 0.25382 0.38139 0.91852 0.0
H133 H 0.33783 0.40381 0.04256 0.0
C134 C 0.09654 0.69992 0.51076 0.0
O135 O 0.14121 0.68664 0.50959 0.0
C136 C 0.05773 0.66592 0.51726 0.0
C137 C 0.06006 0.61708 0.52528 0.0
C138 C 0.01688 0.59188 0.52948 0.0
C139 C 0.97288 0.61561 0.52554 0.0
C140 C 0.97354 0.66446 0.5172 0.0
N141 N 0.01526 0.68615 0.51375 0.0
N142 N 0.013 0.7447 0.43434 0.0
Co143 Co 0.01413 0.75028 0.50314 0.0
N144 N 0.01322 0.81446 0.49245 0.0
C145 C 0.01628 0.87729 0.43787 0.0
C146 C 0.01694 0.90871 0.47667 0.0
C147 C 0.01611 0.89121 0.52367 0.0
C148 C 0.01425 0.84215 0.53035 0.0
C149 C 0.01463 0.82871 0.44754 0.0
N150 N 0.01569 0.76672 0.56991 0.0
N151 N 0.08301 0.74574 0.50232 0.0
N152 N 0.94529 0.74405 0.50602 0.0
C153 C 0.01437 0.78904 0.41434 0.0
O154 O 0.01184 0.79575 0.36832 0.0
C155 C 0.93356 0.69739 0.51278 0.0
O156 O 0.88946 0.68352 0.51895 0.0
C157 C 0.91029 0.78008 0.51352 0.0
C158 C 0.83576 0.81386 0.48593 0.0
C159 C 0.87933 0.79203 0.47633 0.0
C160 C 0.89823 0.79251 0.56026 0.0
C161 C 0.85511 0.8151 0.56984 0.0
C162 C 0.82464 0.82611 0.53245 0.0
C163 C 0.01545 0.81499 0.57464 0.0
O164 O 0.01844 0.83565 0.61611 0.0
C165 C 0.02642 0.73687 0.60954 0.0
C166 C 0.98971 0.71303 0.63356 0.0
C167 C 0.99743 0.6942 0.67911 0.0
C168 C 0.04203 0.70053 0.69995 0.0
C169 C 0.07959 0.72199 0.6755 0.0
C170 C 0.0717 0.7397 0.62993 0.0
C171 C 0.11608 0.77964 0.484 0.0
C172 C 0.1387 0.81127 0.5149 0.0
C173 C 0.17655 0.8391 0.49845 0.0
C174 C 0.19184 0.83439 0.4517 0.0
C175 C 0.17033 0.80247 0.42094 0.0
C176 C 0.13184 0.77561 0.43685 0.0
C177 C 0.99989 0.705 0.40583 0.0
C178 C 0.97458 0.65485 0.32498 0.0
C179 C 0.02255 0.65621 0.33791 0.0
C180 C 0.03496 0.68181 0.37881 0.0
C181 C 0.95196 0.69996 0.39352 0.0
C182 C 0.93942 0.67592 0.35256 0.0
H183 H 0.09376 0.59901 0.52815 0.0
H184 H 0.01753 0.55409 0.53579 0.0
H185 H 0.93981 0.59648 0.52894 0.0
H186 H 0.01735 0.89054 0.40189 0.0
H187 H 0.01845 0.94648 0.47035 0.0
H188 H 0.01732 0.9151 0.55342 0.0
H189 H 0.8875 0.78158 0.44054 0.0
H190 H 0.92053 0.78164 0.58936 0.0
H191 H 0.79161 0.8444 0.5397 0.0
H192 H 0.9552 0.71035 0.61725 0.0
H193 H 0.04815 0.68759 0.73551 0.0
H194 H 0.10002 0.75765 0.61118 0.0
H195 H 0.12746 0.81353 0.55146 0.0
H196 H 0.22143 0.8556 0.43912 0.0
H197 H 0.11555 0.75034 0.41342 0.0
H198 H 0.96391 0.63832 0.29221 0.0
H199 H 0.07174 0.68586 0.38847 0.0
H200 H 0.92495 0.71834 0.41314 0.0
C201 C 0.6973 0.51215 0.91709 0.0
O202 O 0.68287 0.51296 0.87289 0.0
C203 C 0.66432 0.5163 0.95702 0.0
C204 C 0.6149 0.52039 0.95644 0.0
C205 C 0.59083 0.52148 0.0004 0.0
C206 C 0.61617 0.51808 0.04341 0.0
C207 C 0.66554 0.51396 0.04098 0.0
N208 N 0.68622 0.51393 0.99863 0.0
N209 N 0.7656 0.57262 0.9967 0.0
Co210 Co 0.75079 0.5053 0.99742 0.0
N211 N 0.81523 0.49642 0.99584 0.0
C212 C 0.89128 0.52994 0.99268 0.0
C213 C 0.90978 0.48358 0.98873 0.0
C214 C 0.87918 0.44391 0.98797 0.0
C215 C 0.83036 0.45208 0.99129 0.0
C216 C 0.84208 0.53511 0.99633 0.0
N217 N 0.74681 0.43643 0.99744 0.0
N218 N 0.74397 0.50618 0.92894 0.0
N219 N 0.74652 0.50569 0.06644 0.0
C220 C 0.81383 0.57866 0.99764 0.0
O221 O 0.83358 0.62077 0.99539 0.0
C222 C 0.69977 0.50919 0.07965 0.0
O223 O 0.6865 0.51032 0.12428 0.0
C224 C 0.78347 0.51322 0.10047 0.0
C225 C 0.80952 0.55871 0.16861 0.0
C226 C 0.78255 0.55503 0.12747 0.0
C227 C 0.81407 0.47602 0.11374 0.0
C228 C 0.84211 0.48037 0.15452 0.0
C229 C 0.83941 0.52148 0.18151 0.0
C230 C 0.79135 0.41771 0.99194 0.0
O231 O 0.79918 0.37186 0.99348 0.0
C232 C 0.70964 0.40852 0.01812 0.0
C233 C 0.71597 0.38942 0.06387 0.0
C234 C 0.68373 0.35655 0.08201 0.0
C235 C 0.64439 0.34386 0.05509 0.0
C236 C 0.63892 0.36019 0.00863 0.0
C237 C 0.67157 0.39307 0.99014 0.0
C238 C 0.77916 0.49641 0.8938 0.0
C239 C 0.77703 0.45354 0.86875 0.0
C240 C 0.80511 0.4472 0.82838 0.0
C241 C 0.83618 0.48318 0.81424 0.0
C242 C 0.83913 0.52543 0.83921 0.0
C243 C 0.81056 0.53224 0.87911 0.0
C244 C 0.73515 0.61217 0.98726 0.0
C245 C 0.70797 0.70623 0.97453 0.0
C246 C 0.72115 0.67958 0.93506 0.0
C247 C 0.73437 0.63218 0.94149 0.0
C248 C 0.71765 0.63824 0.02558 0.0
C249 C 0.70391 0.68583 0.01977 0.0
H250 H 0.59555 0.52225 0.92348 0.0
H251 H 0.55264 0.52464 0.00111 0.0
H252 H 0.59781 0.51843 0.07706 0.0
H253 H 0.91453 0.56038 0.99239 0.0
H254 H 0.94769 0.47843 0.98592 0.0
H255 H 0.8932 0.40843 0.98478 0.0
H256 H 0.75857 0.58339 0.11815 0.0
H257 H 0.81495 0.4436 0.09366 0.0
H258 H 0.86125 0.52463 0.21292 0.0
H259 H 0.74737 0.39784 0.08395 0.0
H260 H 0.62075 0.31662 0.06867 0.0
H261 H 0.66899 0.40455 0.95361 0.0
H262 H 0.75251 0.4261 0.87984 0.0
H263 H 0.85904 0.47802 0.78373 0.0
H264 H 0.81215 0.56541 0.89782 0.0
H265 H 0.70001 0.74327 0.96925 0.0
H266 H 0.74672 0.612 0.91155 0.0
H267 H 0.71684 0.62159 0.05998 0.0
C268 C 0.4946 0.09347 0.27919 0.0
O269 O 0.49433 0.13988 0.28241 0.0
C270 C 0.48807 0.06284 0.32067 0.0
C271 C 0.47812 0.07561 0.36742 0.0
C272 C 0.47442 0.03907 0.40161 0.0
C273 C 0.48072 0.99122 0.38862 0.0
C274 C 0.4907 0.98138 0.34116 0.0
N275 N 0.49387 0.01722 0.31065 0.0
N276 N 0.57468 0.00391 0.25508 0.0
Co277 Co 0.50617 0.00247 0.24848 0.0
N278 N 0.5182 0.98899 0.18581 0.0
C279 C 0.57392 0.98716 0.1238 0.0
C280 C 0.53568 0.98317 0.09185 0.0
C281 C 0.48835 0.98403 0.10842 0.0
C282 C 0.48078 0.98787 0.15721 0.0
C283 C 0.56336 0.99093 0.17202 0.0
N284 N 0.43924 -0.00049 0.23059 0.0
N285 N 0.50564 0.07076 0.23793 0.0
N286 N 0.50514 0.93633 0.27056 0.0
C287 C 0.59573 0.99873 0.21162 0.0
O288 O 0.64203 0.99945 0.20595 0.0
C289 C 0.49774 0.93541 0.31861 0.0
O290 O 0.49807 0.89587 0.34337 0.0
C291 C 0.50886 0.89301 0.2443 0.0
C292 C 0.55367 0.83884 0.19524 0.0
C293 C 0.54931 0.8828 0.21731 0.0
C294 C 0.47394 0.85776 0.25029 0.0
C295 C 0.47735 0.81424 0.22715 0.0
C296 C 0.51779 0.80512 0.19997 0.0
C297 C 0.43584 0.99332 0.18265 0.0
O298 O 0.39474 0.98917 0.16119 0.0
C299 C 0.3984 0.99167 0.25999 0.0
C300 C 0.37874 0.946 0.26165 0.0
C301 C 0.33404 0.93805 0.28148 0.0
C302 C 0.30842 0.97648 0.29886 0.0
C303 C 0.3259 0.02276 0.29541 0.0
C304 C 0.37177 0.03022 0.27685 0.0
C305 C 0.52375 0.09699 0.1983 0.0
C306 C 0.49148 0.11977 0.1681 0.0
C307 C 0.50681 0.15612 0.13762 0.0
C308 C 0.55509 0.16703 0.13535 0.0
C309 C 0.58732 0.14599 0.16645 0.0
C310 C 0.5717 0.11093 0.19785 0.0
C311 C 0.60288 0.006 0.29692 0.0
C312 C 0.6843 0.01494 0.35199 0.0
C313 C 0.65842 0.05532 0.33965 0.0
C314 C 0.61653 0.05065 0.31376 0.0
C315 C 0.62937 0.96558 0.30957 0.0
C316 C 0.67078 0.97025 0.33627 0.0
H317 H 0.47343 0.11227 0.37723 0.0
H318 H 0.46667 0.0478 0.43804 0.0
H319 H 0.47769 0.96316 0.41465 0.0
H320 H 0.61014 0.98806 0.11115 0.0
H321 H 0.54266 0.98048 0.0543 0.0
H322 H 0.45898 0.98267 0.08393 0.0
H323 H 0.57802 0.90769 0.21464 0.0
H324 H 0.44412 0.86399 0.27334 0.0
H325 H 0.52039 0.77271 0.17976 0.0
H326 H 0.39693 0.91741 0.24448 0.0
H327 H 0.27453 0.97011 0.31595 0.0
H328 H 0.38555 0.0658 0.27298 0.0
H329 H 0.454 0.11212 0.17173 0.0
H330 H 0.56726 0.19506 0.11189 0.0
H331 H 0.59601 0.09721 0.22389 0.0
H332 H 0.71678 0.01866 0.37214 0.0
H333 H 0.59759 0.08203 0.30263 0.0
H334 H 0.62049 0.9316 0.2944 0.0
C335 C 0.53231 0.93504 0.69087 0.0
O336 O 0.53801 0.89705 0.6648 0.0
C337 C 0.53758 0.98286 0.67104 0.0
C338 C 0.54981 0.99645 0.62492 0.0
C339 C 0.55314 0.04542 0.61473 0.0
C340 C 0.54433 0.07937 0.65029 0.0
C341 C 0.53249 0.06295 0.69559 0.0
N342 N 0.52985 0.01648 0.70291 0.0
N343 N 0.58045 0.99589 0.78491 0.0
Co344 Co 0.51459 0.99696 0.76302 0.0
N345 N 0.49937 0.97778 0.82325 0.0
C346 C 0.52467 0.96059 0.90047 0.0
C347 C 0.47655 0.95342 0.91291 0.0
C348 C 0.44023 0.95952 0.87897 0.0
C349 C 0.45349 0.97237 0.83293 0.0
C350 C 0.53504 0.9735 0.85371 0.0
N351 N 0.44654 0.99546 0.75112 0.0
N352 N 0.52083 0.93251 0.73802 0.0
N353 N 0.51082 0.0642 0.77801 0.0
C354 C 0.5813 0.9836 0.83191 0.0
O355 O 0.62116 0.9791 0.85553 0.0
C356 C 0.5218 0.09023 0.73834 0.0
O357 O 0.51975 0.13673 0.73769 0.0
C358 C 0.49247 0.0873 0.81946 0.0
C359 C 0.50665 0.15475 0.87189 0.0
C360 C 0.52362 0.11554 0.84609 0.0
C361 C 0.44349 0.09616 0.82209 0.0
C362 C 0.42647 0.13609 0.84528 0.0
C363 C 0.45776 0.16402 0.87119 0.0
C364 C 0.42329 0.98195 0.79171 0.0
O365 O 0.37679 0.97943 0.79415 0.0
C366 C 0.42021 0.00985 0.70998 0.0
C367 C 0.40249 0.05652 0.70776 0.0
C368 C 0.35995 0.06591 0.68439 0.0
C369 C 0.33919 0.03058 0.6572 0.0
C370 C 0.35819 0.98484 0.65506 0.0
C371 C 0.39858 0.97444 0.68244 0.0
C372 C 0.51814 0.88754 0.76232 0.0
C373 C 0.47461 0.87041 0.77997 0.0
C374 C 0.47138 0.82403 0.79772 0.0
C375 C 0.51152 0.79511 0.79798 0.0
C376 C 0.55474 0.81061 0.77931 0.0
C377 C 0.55769 0.85689 0.76143 0.0
C378 C 0.62339 0.99738 0.75725 0.0
C379 C 0.71171 0.99942 0.71205 0.0
C380 C 0.6944 0.95638 0.72945 0.0
C381 C 0.65056 0.95589 0.75279 0.0
C382 C 0.64202 0.04068 0.74049 0.0
C383 C 0.68703 0.04194 0.71858 0.0
H384 H 0.55663 0.97041 0.59781 0.0
H385 H 0.56255 0.05702 0.57939 0.0
H386 H 0.5469 0.11684 0.64262 0.0
H387 H 0.55246 0.95637 0.92647 0.0
H388 H 0.46742 0.94347 0.94881 0.0
H389 H 0.40339 0.9545 0.88849 0.0
H390 H 0.5613 0.10916 0.84284 0.0
H391 H 0.41894 0.07574 0.8018 0.0
H392 H 0.44406 0.19657 0.88599 0.0
H393 H 0.41877 0.08446 0.72763 0.0
H394 H 0.30557 0.03834 0.64032 0.0
H395 H 0.41138 0.9384 0.68518 0.0
H396 H 0.44298 0.89171 0.77775 0.0
H397 H 0.50907 0.76022 0.81401 0.0
H398 H 0.59015 0.86838 0.74501 0.0
H399 H 0.74429 -0.00034 0.69164 0.0
H400 H 0.63805 0.92349 0.76873 0.0
H401 H 0.62256 0.07317 0.74607 0.0
H402 H 0.11032 0.26109 0.24961 0.0
H403 H 0.15856 0.33849 0.37109 0.0
H404 H 0.2208 0.37549 0.32343 0.0
H405 H 0.23941 0.40595 0.24414 0.0
H406 H 0.18005 0.33875 0.12165 0.0
H407 H 0.14555 0.27683 0.17174 0.0
C408 C 0.13601 0.28441 0.26592 0.0
C409 C 0.12909 0.29858 0.31308 0.0
C410 C 0.16899 0.30832 0.2374 0.0
C411 C 0.16287 0.32776 0.33458 0.0
C412 C 0.19799 0.34944 0.3071 0.0
C413 C 0.22117 0.37611 0.22845 0.0
C414 C 0.21127 0.37698 0.17974 0.0
C415 C 0.19833 0.34316 0.25785 0.0
C416 C 0.18778 0.33861 0.15918 0.0
C417 C 0.16742 0.30372 0.18797 0.0
H418 H 0.24287 0.60993 0.75193 0.0
H419 H 0.17436 0.65161 0.88155 0.0
H420 H 0.13691 0.71826 0.84066 0.0
H421 H 0.10451 0.74585 0.76498 0.0
H422 H 0.16168 0.69204 0.63442 0.0
H423 H 0.22423 0.65131 0.67792 0.0
C424 C 0.22102 0.63474 0.77143 0.0
C425 C 0.20977 0.62519 0.81905 0.0
C426 C 0.19704 0.6706 0.74695 0.0
C427 C 0.18275 0.65796 0.84463 0.0
C428 C 0.16099 0.69574 0.82109 0.0
C429 C 0.13191 0.72668 0.74608 0.0
C430 C 0.12743 0.72004 0.69695 0.0
C431 C 0.16483 0.69976 0.77166 0.0
C432 C 0.16383 0.69684 0.67236 0.0
C433 C 0.19915 0.67284 0.69736 0.0
H434 H 0.78745 0.56233 0.26122 0.0
H435 H 0.83177 0.6491 0.14353 0.0
H436 H 0.86452 0.70748 0.19802 0.0
H437 H 0.9029 0.71767 0.27521 0.0
H438 H 0.868 0.62396 0.39058 0.0
H439 H 0.80772 0.58554 0.34216 0.0
C440 C 0.80236 0.59518 0.24781 0.0
C441 C 0.80862 0.60114 0.19878 0.0
C442 C 0.82356 0.62685 0.27925 0.0
C443 C 0.82721 0.64377 0.18126 0.0
C444 C 0.8464 0.67679 0.21244 0.0
C445 C 0.88005 0.69063 0.29035 0.0
C446 C 0.89016 0.67273 0.33572 0.0
C447 C 0.8482 0.66657 0.2611 0.0
C448 C 0.86075 0.63793 0.35557 0.0
C449 C 0.82692 0.61547 0.32755 0.0
H450 H 0.78831 0.43612 0.73534 0.0
H451 H 0.82798 0.35977 0.86134 0.0
H452 H 0.87045 0.30166 0.81359 0.0
H453 H 0.91677 0.29036 0.7409 0.0
H454 H 0.88626 0.37446 0.6172 0.0
H455 H 0.81927 0.41128 0.65817 0.0
C456 C 0.80424 0.40527 0.7519 0.0
C457 C 0.80638 0.4026 0.80156 0.0
C458 C 0.83164 0.37444 0.72449 0.0
C459 C 0.82637 0.36257 0.82313 0.0
C460 C 0.85138 0.32989 0.79582 0.0
C461 C 0.89409 0.31539 0.72249 0.0
C462 C 0.90674 0.33091 0.67685 0.0
C463 C 0.85757 0.33806 0.74715 0.0
C464 C 0.8772 0.36261 0.65261 0.0
C465 C 0.83926 0.38389 0.67621 0.0
H466 H 0.35111 0.09759 0.35023 0.0
H467 H 0.2313 0.0351 0.27973 0.0
H468 H 0.17696 0.08265 0.32688 0.0
H469 H 0.16366 0.13131 0.39798 0.0
H470 H 0.28381 0.19824 0.46396 0.0
H471 H 0.33739 0.16023 0.40854 0.0
C472 C 0.31322 0.09558 0.34404 0.0
C473 C 0.29525 0.0617 0.31286 0.0
C474 C 0.282 0.12304 0.3713 0.0
C475 C 0.24598 0.05994 0.3048 0.0
C476 C 0.21479 0.08705 0.33177 0.0
C477 C 0.20139 0.13841 0.39949 0.0
C478 C 0.21979 0.16555 0.43656 0.0
C479 C 0.23234 0.11696 0.36686 0.0
C480 C 0.26882 0.17544 0.4372 0.0
C481 C 0.29963 0.15406 0.40527 0.0
H482 H 0.42711 0.85131 0.87792 0.0
H483 H 0.42133 0.74927 0.76562 0.0
H484 H 0.37512 0.69561 0.81562 0.0
H485 H 0.35272 0.67155 0.89596 0.0
H486 H 0.35425 0.77533 0.00773 0.0
H487 H 0.38664 0.83393 0.95348 0.0
C488 C 0.41361 0.81837 0.86377 0.0
C489 C 0.4277 0.80396 0.81849 0.0
C490 C 0.38832 0.78705 0.89328 0.0
C491 C 0.4106 0.76097 0.80048 0.0
C492 C 0.38491 0.72997 0.82933 0.0
C493 C 0.35871 0.70721 0.90846 0.0
C494 C 0.35308 0.71784 0.95678 0.0
C495 C 0.3761 0.74153 0.87668 0.0
C496 C 0.36076 0.76485 0.97153 0.0
C497 C 0.37865 0.79889 0.9403 0.0
H498 H 0.65529 0.88968 0.38644 0.0
H499 H 0.76112 0.96394 0.30493 0.0
H500 H 0.82333 0.91371 0.33802 0.0
H501 H 0.84859 0.86129 0.40305 0.0
H502 H 0.74286 0.78893 0.48654 0.0
H503 H 0.67981 0.82467 0.43942 0.0
C504 C 0.69174 0.89344 0.37469 0.0
C505 C 0.70397 0.93062 0.34408 0.0
C506 C 0.72751 0.86533 0.39497 0.0
C507 C 0.75124 0.93556 0.32895 0.0
C508 C 0.78682 0.90713 0.34808 0.0
C509 C 0.81182 0.8521 0.40966 0.0
C510 C 0.80018 0.82363 0.44874 0.0
C511 C 0.77567 0.87372 0.38313 0.0
C512 C 0.75244 0.81168 0.45705 0.0
C513 C 0.71638 0.8322 0.43026 0.0
H514 H 0.6579 0.31073 0.92894 0.0
H515 H 0.54478 0.34861 0.02432 0.0
H516 H 0.49581 0.28469 0.99317 0.0
H517 H 0.48941 0.21308 0.947 0.0
H518 H 0.59731 0.18037 0.84315 0.0
H519 H 0.64575 0.24503 0.87259 0.0
C520 C 0.62184 0.30608 0.94154 0.0
C521 C 0.60483 0.33431 0.97875 0.0
C522 C 0.59413 0.26869 0.92409 0.0
C523 C 0.55837 0.32745 0.99546 0.0
C524 C 0.53079 0.29043 0.97837 0.0
C525 C 0.52287 0.22045 0.92953 0.0
C526 C 0.53905 0.1912 0.89255 0.0
C527 C 0.54902 0.25988 0.94397 0.0
C528 C 0.5838 0.20093 0.87238 0.0
C529 C 0.61133 0.23875 0.88853 0.0
H530 H 0.22475 0.82073 0.58035 0.0
H531 H 0.18878 0.93194 0.48169 0.0
H532 H 0.2475 0.98383 0.51722 0.0
H533 H 0.31152 0.99607 0.57237 0.0
H534 H 0.34174 0.8911 0.6796 0.0
H535 H 0.2853 0.83684 0.64257 0.0
C536 C 0.22898 0.8568 0.56776 0.0
C537 C 0.20257 0.87271 0.52859 0.0
C538 C 0.26305 0.88666 0.58847 0.0
C539 C 0.20867 0.91921 0.51195 0.0
C540 C 0.24261 0.9486 0.53179 0.0
C541 C 0.30545 0.9616 0.58833 0.0
C542 C 0.33063 0.94816 0.62915 0.0
C543 C 0.27057 0.93233 0.56932 0.0
C544 C 0.32343 0.90247 0.64792 0.0
C545 C 0.29042 0.87171 0.62728 0.0
H546 H 0.62856 0.78059 0.20818 0.0
H547 H 0.55978 0.87099 0.10617 0.0
H548 H 0.60075 0.83061 0.04179 0.0
H549 H 0.64318 0.76152 0.01561 0.0
H550 H 0.72232 0.67656 0.11606 0.0
H551 H 0.6874 0.72144 0.18062 0.0
C552 C 0.62449 0.79268 0.17192 0.0
C553 C 0.59169 0.82862 0.16146 0.0
C554 C 0.64786 0.76897 0.13514 0.0
C555 C 0.5856 0.84384 0.11466 0.0
C556 C 0.60828 0.82019 0.07796 0.0
C557 C 0.65523 0.75359 0.05107 0.0
C558 C 0.68564 0.71492 0.06004 0.0
C559 C 0.63774 0.78141 0.08784 0.0
C560 C 0.69796 0.70483 0.10735 0.0
C561 C 0.67863 0.7311 0.14453 0.0
H562 H 0.77883 0.0697 0.72598 0.0
H563 H 0.64475 0.11237 0.66651 0.0
H564 H 0.68549 0.16956 0.61537 0.0
H565 H 0.75947 0.19502 0.57709 0.0
H566 H 0.89361 0.14236 0.62817 0.0
H567 H 0.85289 0.10208 0.69351 0.0
C568 C 0.75843 0.09215 0.70236 0.0
C569 C 0.70887 0.08594 0.69916 0.0
C570 C 0.78236 0.12252 0.67098 0.0
C571 C 0.6828 0.11619 0.66953 0.0
C572 C 0.70623 0.14846 0.63985 0.0
C573 C 0.77992 0.17496 0.60272 0.0
C574 C 0.82947 0.17048 0.5969 0.0
C575 C 0.75605 0.14989 0.63851 0.0
C576 C 0.85554 0.14604 0.63148 0.0
C577 C 0.83216 0.1227 0.66862 0.0
H578 H 0.50803 0.25216 0.13229 0.0
H579 H 0.42827 0.12979 0.08804 0.0
H580 H 0.37418 0.18108 0.0438 0.0
H581 H 0.35298 0.25925 0.01413 0.0
H582 H 0.43493 0.38168 0.05315 0.0
H583 H 0.48486 0.33159 0.10428 0.0
C584 C 0.47901 0.23665 0.11265 0.0
C585 C 0.47256 0.18709 0.11265 0.0
C586 C 0.44862 0.26625 0.08687 0.0
C587 C 0.43396 0.16769 0.0884 0.0
C588 C 0.40322 0.19696 0.06309 0.0
C589 C 0.38192 0.27501 0.03376 0.0
C590 C 0.39123 0.32378 0.02924 0.0
C591 C 0.41077 0.24604 0.06153 0.0
C592 C 0.42757 0.34416 0.05595 0.0
C593 C 0.45605 0.31551 0.08485 0.0
H594 H 0.00983 0.61935 0.73847 0.0
H595 H 0.90037 0.70957 0.68089 0.0
H596 H 0.84122 0.66836 0.72957 0.0
H597 H 0.82098 0.60484 0.78782 0.0
H598 H 0.9334 0.5218 0.84924 0.0
H599 H 0.99201 0.565 0.80226 0.0
C600 C 0.97339 0.63143 0.73734 0.0
C601 C 0.96004 0.66823 0.70629 0.0
C602 C 0.94032 0.60967 0.76716 0.0
C603 C 0.9119 0.68112 0.70394 0.0
C604 C 0.87811 0.65803 0.73232 0.0
C605 C 0.85851 0.59765 0.79195 0.0
C606 C 0.87332 0.56089 0.82223 0.0
C607 C 0.89199 0.62233 0.76425 0.0
C608 C 0.92169 0.55064 0.8267 0.0
C609 C 0.95497 0.57477 0.79935 0.0
H610 H 0.01021 0.39014 0.25961 0.0
H611 H 0.89981 0.30337 0.32147 0.0
H612 H 0.84166 0.34178 0.26986 0.0
H613 H 0.82233 0.40268 0.20841 0.0
H614 H 0.93619 0.4801 0.1419 0.0
H615 H 0.99389 0.43898 0.19141 0.0
C616 C 0.97397 0.37758 0.26098 0.0
C617 C 0.96022 0.3428 0.2944 0.0
C618 C 0.94146 0.39727 0.22924 0.0
C619 C 0.91196 0.33019 0.29682 0.0
C620 C 0.87864 0.35167 0.26669 0.0
C621 C 0.85998 0.40881 0.20351 0.0
C622 C 0.87533 0.44362 0.17104 0.0
C623 C 0.89304 0.38526 0.23265 0.0
C624 C 0.92393 0.45261 0.16585 0.0
C625 C 0.95673 0.42979 0.19478 0.0
H626 H 0.12021 0.37804 0.65653 0.0
H627 H 0.04425 0.31242 0.77199 0.0
H628 H 0.09543 0.35182 0.82904 0.0
H629 H 0.15211 0.41559 0.84575 0.0
H630 H 0.22644 0.48289 0.7302 0.0
H631 H 0.18648 0.43166 0.67366 0.0
C632 C 0.11588 0.37136 0.69412 0.0
C633 C 0.07801 0.3434 0.71017 0.0
C634 C 0.14476 0.39495 0.72676 0.0
C635 C 0.07267 0.33478 0.75896 0.0
C636 C 0.10185 0.35728 0.79158 0.0
C637 C 0.16049 0.41797 0.80833 0.0
C638 C 0.19118 0.45351 0.79195 0.0
C639 C 0.13656 0.38915 0.77592 0.0
C640 C 0.20201 0.45632 0.74341 0.0
C641 C 0.17918 0.42712 0.71108 0.0
H642 H 0.01088 0.57735 0.28408 0.0
H643 H 0.11582 0.68273 0.31936 0.0
H644 H 0.17083 0.64711 0.26273 0.0
H645 H 0.18904 0.58452 0.2032 0.0
H646 H 0.07802 0.48831 0.16225 0.0
H647 H 0.02379 0.52496 0.21833 0.0
C648 C 0.04504 0.59406 0.27866 0.0
C649 C 0.05838 0.63341 0.30603 0.0
C650 C 0.07506 0.57578 0.24386 0.0
C651 C 0.10427 0.65213 0.29965 0.0
C652 C 0.13562 0.63225 0.26656 0.0
C653 C 0.15248 0.57287 0.20552 0.0
C654 C 0.1374 0.5338 0.17875 0.0
C655 C 0.12126 0.59417 0.23818 0.0
C656 C 0.0902 0.51844 0.18243 0.0
C657 C 0.05943 0.53891 0.21492 0.0
H658 H 0.78987 0.94167 0.73339 0.0
H659 H 0.65834 0.87223 0.69907 0.0
H660 H 0.7015 0.81088 0.65705 0.0
H661 H 0.7729 0.79086 0.61208 0.0
H662 H 0.90223 0.86826 0.63494 0.0
H663 H 0.86449 0.91209 0.69944 0.0
C664 C 0.77078 0.91248 0.71755 0.0
C665 C 0.72079 0.91222 0.71839 0.0
C666 C 0.79565 0.87928 0.69038 0.0
C667 C 0.69663 0.87342 0.69913 0.0
C668 C 0.72136 0.83864 0.67437 0.0
C669 C 0.79317 0.81624 0.6324 0.0
C670 C 0.83973 0.82738 0.61831 0.0
C671 C 0.77035 0.8432 0.66706 0.0
C672 C 0.8662 0.85952 0.64506 0.0
C673 C 0.84439 0.88492 0.68149 0.0
H674 H 0.7307 0.2748 0.08161 0.0
H675 H 0.65487 0.36968 0.17296 0.0
H676 H 0.63027 0.30325 0.22299 0.0
H677 H 0.60688 0.21984 0.22125 0.0
H678 H 0.66853 0.12687 0.1181 0.0
H679 H 0.72329 0.18924 0.09307 0.0
C680 C 0.7113 0.28094 0.11422 0.0
C681 C 0.69405 0.32663 0.12356 0.0
C682 C 0.69344 0.24212 0.13974 0.0
C683 C 0.66851 0.33471 0.16534 0.0
C684 C 0.65369 0.29652 0.19332 0.0
C685 C 0.63439 0.21263 0.19535 0.0
C686 C 0.63373 0.16933 0.17114 0.0
C687 C 0.66237 0.25004 0.17822 0.0
C688 C 0.66873 0.16 0.13719 0.0
C689 C 0.69939 0.19602 0.12235 0.0
H690 H 0.37253 0.1553 0.64952 0.0
H691 H 0.28046 0.07049 0.73699 0.0
H692 H 0.21255 0.11864 0.71411 0.0
H693 H 0.17855 0.1652 0.64787 0.0
H694 H 0.27078 0.25381 0.5644 0.0
H695 H 0.33945 0.22547 0.60828 0.0
C696 C 0.3382 0.14937 0.66587 0.0
C697 C 0.3309 0.10856 0.69332 0.0
C698 C 0.29906 0.17716 0.65224 0.0
C699 C 0.28648 0.10147 0.715 0.0
C700 C 0.24744 0.12857 0.70138 0.0
C701 C 0.21322 0.18061 0.6415 0.0
C702 C 0.22004 0.21005 0.60198 0.0
C703 C 0.25281 0.16377 0.66675 0.0
C704 C 0.26501 0.2304 0.59436 0.0
C705 C 0.30447 0.2136 0.61894 0.0
H706 H 0.31102 0.72078 0.12851 0.0
H707 H 0.41095 0.60579 0.12651 0.0
H708 H 0.4561 0.64276 0.19034 0.0
H709 H 0.47828 0.71765 0.22783 0.0
H710 H 0.38378 0.83731 0.21792 0.0
H711 H 0.32408 0.78825 0.18086 0.0
C712 C 0.34144 0.70292 0.14384 0.0
C713 C 0.35836 0.66129 0.12296 0.0
C714 C 0.36854 0.72584 0.17817 0.0
C715 C 0.39765 0.63801 0.14237 0.0
C716 C 0.42366 0.65946 0.17839 0.0
C717 C 0.44407 0.73259 0.21868 0.0
C718 C 0.43629 0.7815 0.22395 0.0
C719 C 0.41135 0.70503 0.19378 0.0
C720 C 0.39115 0.80001 0.21388 0.0
C721 C 0.3571 0.77203 0.19187 0.0
H722 H 0.75032 0.21173 0.45687 0.0
H723 H 0.8723 0.16093 0.38026 0.0
H724 H 0.82033 0.12284 0.32276 0.0
H725 H 0.74279 0.08641 0.30895 0.0
H726 H 0.62264 0.12643 0.39409 0.0
H727 H 0.67055 0.18707 0.43314 0.0
C728 C 0.76538 0.19334 0.42677 0.0
C729 C 0.81488 0.18762 0.42346 0.0
C730 C 0.73539 0.16896 0.39602 0.0
C731 C 0.83429 0.16519 0.38377 0.0
C732 C 0.80456 0.143 0.35126 0.0
C733 C 0.72685 0.10972 0.33491 0.0
C734 C 0.67987 0.1017 0.34968 0.0
C735 C 0.75538 0.14192 0.35914 0.0
C736 C 0.65891 0.13203 0.38266 0.0
C737 C 0.68646 0.16621 0.40525 0.0
H738 H 0.33609 0.32029 0.8308 0.0
H739 H 0.26249 0.26763 0.95374 0.0
H740 H 0.28082 0.1866 0.93151 0.0
H741 H 0.34292 0.13763 0.89384 0.0
H742 H 0.41133 0.18859 0.76732 0.0
H743 H 0.36804 0.263 0.77255 0.0
C744 C 0.32109 0.29095 0.85069 0.0
C745 C 0.29952 0.29964 0.89458 0.0
C746 C 0.33195 0.24421 0.83768 0.0
C747 C 0.27969 0.26153 0.91998 0.0
C748 C 0.29094 0.2151 0.90774 0.0
C749 C 0.34565 0.16363 0.86559 0.0
C750 C 0.38143 0.15879 0.83143 0.0
C751 C 0.3208 0.20658 0.86908 0.0
C752 C 0.38439 0.19219 0.79449 0.0
C753 C 0.36026 0.23519 0.79794 0.0
H754 H 0.25682 0.77261 0.39488 0.0
H755 H 0.12721 0.83075 0.33977 0.0
H756 H 0.17118 0.86981 0.27599 0.0
H757 H 0.24663 0.90838 0.2558 0.0
H758 H 0.37551 0.86119 0.3224 0.0
H759 H 0.33293 0.7961 0.36026 0.0
C760 C 0.23816 0.79162 0.36714 0.0
C761 C 0.18929 0.80002 0.37234 0.0
C762 C 0.2642 0.81735 0.33346 0.0
C763 C 0.16493 0.82425 0.33649 0.0
C764 C 0.19028 0.84736 0.30061 0.0
C765 C 0.26556 0.88258 0.27713 0.0
C766 C 0.31381 0.89001 0.28726 0.0
C767 C 0.24007 0.84759 0.30165 0.0
C768 C 0.33841 0.85621 0.31417 0.0
C769 C 0.31383 0.81936 0.33639 0.0
H770 H 0.67148 0.6473 0.85999 0.0
H771 H 0.75877 0.76358 0.90488 0.0
H772 H 0.7196 0.81619 0.84849 0.0
H773 H 0.64503 0.83271 0.80612 0.0
H774 H 0.55859 0.71597 0.7601 0.0
H775 H 0.61347 0.65996 0.79618 0.0
C776 C 0.68364 0.68348 0.85562 0.0
C777 C 0.71648 0.7021 0.88772 0.0
C778 C 0.65999 0.71389 0.82398 0.0
C779 C 0.73254 0.74886 0.88122 0.0
C780 C 0.70977 0.77913 0.84935 0.0
C781 C 0.63928 0.795 0.80213 0.0
C782 C 0.59654 0.77859 0.78274 0.0
C783 C 0.67085 0.76281 0.82345 0.0
C784 C 0.59029 0.72953 0.77678 0.0
C785 C 0.62164 0.69739 0.79745 0.0
loop_
_geom_bond_atom_site_label_1
_geom_bond_atom_site_label_2
_geom_bond_distance
_geom_bond_site_symmetry_2
_ccdc_geom_bond_type
C0 O1 1.201 . S
C0 C2 1.493 . S
C0 N17 1.318 . S
O1 C0 1.201 . S
C2 C0 1.493 . S
C2 C3 1.381 . S
C2 N7 1.335 1_655 S
C3 C2 1.381 . S
C3 C4 1.411 1_655 S
C3 H49 0.931 . S
C4 C3 1.411 1_455 S
C4 C5 1.384 . S
C4 H50 0.930 . S
C5 C4 1.384 . S
C5 C6 1.376 . S
C5 H51 0.929 . S
C6 C5 1.376 . S
C6 N7 1.330 . S
C6 C21 1.484 . S
N7 C2 1.335 1_455 S
N7 C6 1.330 . S
N7 Co9 1.859 . S
N8 Co9 1.962 . S
N8 C19 1.318 . S
N8 C43 1.421 . S
Co9 N7 1.859 . S
Co9 N8 1.962 . S
Co9 N10 1.859 . S
Co9 N16 1.958 . S
Co9 N17 1.962 1_455 S
Co9 N18 1.958 . S
N10 Co9 1.859 . S
N10 C14 1.330 . S
N10 C15 1.335 . S
C11 C12 1.411 . S
C11 C15 1.381 . S
C11 H52 0.931 . S
C12 C11 1.411 . S
C12 C13 1.384 . S
C12 H53 0.930 . S
C13 C12 1.384 . S
C13 C14 1.376 . S
C13 H54 0.929 . S
C14 N10 1.330 . S
C14 C13 1.376 . S
C14 C29 1.484 . S
C15 N10 1.335 . S
C15 C11 1.381 . S
C15 C19 1.493 . S
N16 Co9 1.958 . S
N16 C29 1.344 . S
N16 C31 1.425 . S
N17 C0 1.318 . S
N17 Co9 1.962 1_655 S
N17 C37 1.421 . S
N18 Co9 1.958 . S
N18 C21 1.344 . S
N18 C23 1.425 . S
C19 N8 1.318 . S
C19 C15 1.493 . S
C19 O20 1.201 . S
O20 C19 1.201 . S
C21 C6 1.484 . S
C21 N18 1.344 . S
C21 O22 1.268 . S
O22 C21 1.268 . S
C23 N18 1.425 . S
C23 C25 1.392 . S
C23 C26 1.368 . S
C24 C25 1.382 . S
C24 C28 1.386 . S
C25 C23 1.392 . S
C25 C24 1.382 . S
C25 H55 0.928 . S
C26 C23 1.368 . S
C26 C27 1.367 . S
C26 H56 0.930 . S
C27 C26 1.367 . S
C27 C28 1.369 . S
C28 C24 1.386 . S
C28 C27 1.369 . S
C28 H57 0.930 . S
C29 C14 1.484 . S
C29 N16 1.344 . S
C29 O30 1.268 . S
O30 C29 1.268 . S
C31 N16 1.425 . S
C31 C32 1.368 . S
C31 C36 1.392 1_455 S
C32 C31 1.368 . S
C32 C33 1.367 . S
C32 H58 0.930 . S
C33 C32 1.367 . S
C33 C34 1.369 . S
C34 C33 1.369 . S
C34 C35 1.386 1_455 S
C34 H59 0.930 . S
C35 C34 1.386 1_655 S
C35 C36 1.382 . S
C36 C31 1.392 1_655 S
C36 C35 1.382 . S
C36 H60 0.928 . S
C37 N17 1.421 . S
C37 C38 1.371 . S
C37 C42 1.385 . S
C38 C37 1.371 . S
C38 C39 1.367 . S
C38 H61 0.931 . S
C39 C38 1.367 . S
C39 C40 1.401 . S
C40 C39 1.401 . S
C40 C41 1.385 . S
C40 H62 0.930 . S
C41 C40 1.385 . S
C41 C42 1.402 . S
C42 C37 1.385 . S
C42 C41 1.402 . S
C42 H63 0.929 . S
C43 N8 1.421 . S
C43 C46 1.385 1_455 S
C43 C47 1.371 . S
C44 C45 1.385 1_455 S
C44 C48 1.401 . S
C44 H64 0.930 . S
C45 C44 1.385 1_655 S
C45 C46 1.402 . S
C46 C43 1.385 1_655 S
C46 C45 1.402 . S
C46 H65 0.929 . S
C47 C43 1.371 . S
C47 C48 1.367 . S
C47 H66 0.931 . S
C48 C44 1.401 . S
C48 C47 1.367 . S
H49 C3 0.931 . S
H50 C4 0.930 . S
H51 C5 0.929 . S
H52 C11 0.931 . S
H53 C12 0.930 . S
H54 C13 0.929 . S
H55 C25 0.928 . S
H56 C26 0.930 . S
H57 C28 0.930 . S
H58 C32 0.930 . S
H59 C34 0.930 . S
H60 C36 0.928 . S
H61 C38 0.931 . S
H62 C40 0.930 . S
H63 C42 0.929 . S
H64 C44 0.930 . S
H65 C46 0.929 . S
H66 C47 0.931 . S
C67 O68 1.201 . S
C67 C69 1.493 . S
C67 N84 1.318 . S
O68 C67 1.201 . S
C69 C67 1.493 . S
C69 C70 1.381 . S
C69 N74 1.335 1_556 S
C70 C69 1.381 . S
C70 C71 1.411 1_556 S
C70 H116 0.931 . S
C71 C70 1.411 1_554 S
C71 C72 1.384 . S
C71 H117 0.930 . S
C72 C71 1.384 . S
C72 C73 1.376 . S
C72 H118 0.929 . S
C73 C72 1.376 . S
C73 N74 1.330 . S
C73 C88 1.484 . S
N74 C69 1.335 1_554 S
N74 C73 1.330 . S
N74 Co76 1.859 . S
N75 Co76 1.962 . S
N75 C86 1.318 . S
N75 C110 1.421 . S
Co76 N74 1.859 . S
Co76 N75 1.962 . S
Co76 N77 1.859 . S
Co76 N83 1.958 . S
Co76 N84 1.962 1_554 S
Co76 N85 1.958 . S
N77 Co76 1.859 . S
N77 C81 1.330 . S
N77 C82 1.335 . S
C78 C79 1.411 . S
C78 C82 1.381 . S
C78 H119 0.931 . S
C79 C78 1.411 . S
C79 C80 1.384 . S
C79 H120 0.930 . S
C80 C79 1.384 . S
C80 C81 1.376 . S
C80 H121 0.929 . S
C81 N77 1.330 . S
C81 C80 1.376 . S
C81 C96 1.484 . S
C82 N77 1.335 . S
C82 C78 1.381 . S
C82 C86 1.493 . S
N83 Co76 1.958 . S
N83 C96 1.344 . S
N83 C98 1.425 . S
N84 C67 1.318 . S
N84 Co76 1.962 1_556 S
N84 C104 1.421 . S
N85 Co76 1.958 . S
N85 C88 1.344 . S
N85 C90 1.425 . S
C86 N75 1.318 . S
C86 C82 1.493 . S
C86 O87 1.201 . S
O87 C86 1.201 . S
C88 C73 1.484 . S
C88 N85 1.344 . S
C88 O89 1.268 . S
O89 C88 1.268 . S
C90 N85 1.425 . S
C90 C92 1.392 . S
C90 C93 1.368 . S
C91 C92 1.382 . S
C91 C95 1.386 . S
C92 C90 1.392 . S
C92 C91 1.382 . S
C92 H122 0.928 . S
C93 C90 1.368 . S
C93 C94 1.367 . S
C93 H123 0.930 . S
C94 C93 1.367 . S
C94 C95 1.369 . S
C95 C91 1.386 . S
C95 C94 1.369 . S
C95 H124 0.930 . S
C96 C81 1.484 . S
C96 N83 1.344 . S
C96 O97 1.268 . S
O97 C96 1.268 . S
C98 N83 1.425 . S
C98 C99 1.368 . S
C98 C103 1.392 1_554 S
C99 C98 1.368 . S
C99 C100 1.367 . S
C99 H125 0.930 . S
C100 C99 1.367 . S
C100 C101 1.369 1_554 S
C101 C100 1.369 1_556 S
C101 C102 1.386 . S
C101 H126 0.930 . S
C102 C101 1.386 . S
C102 C103 1.382 . S
C103 C98 1.392 1_556 S
C103 C102 1.382 . S
C103 H127 0.928 . S
C104 N84 1.421 . S
C104 C105 1.371 . S
C104 C109 1.385 . S
C105 C104 1.371 . S
C105 C106 1.367 . S
C105 H128 0.931 . S
C106 C105 1.367 . S
C106 C107 1.401 . S
C107 C106 1.401 . S
C107 C108 1.385 . S
C107 H129 0.930 . S
C108 C107 1.385 . S
C108 C109 1.402 . S
C109 C104 1.385 . S
C109 C108 1.402 . S
C109 H130 0.929 . S
C110 N75 1.421 . S
C110 C113 1.385 1_554 S
C110 C114 1.371 . S
C111 C112 1.385 1_554 S
C111 C115 1.401 . S
C111 H131 0.930 . S
C112 C111 1.385 1_556 S
C112 C113 1.402 . S
C113 C110 1.385 1_556 S
C113 C112 1.402 . S
C113 H132 0.929 . S
C114 C110 1.371 . S
C114 C115 1.367 . S
C114 H133 0.931 . S
C115 C111 1.401 . S
C115 C114 1.367 . S
H116 C70 0.931 . S
H117 C71 0.930 . S
H118 C72 0.929 . S
H119 C78 0.931 . S
H120 C79 0.930 . S
H121 C80 0.929 . S
H122 C92 0.928 . S
H123 C93 0.930 . S
H124 C95 0.930 . S
H125 C99 0.930 . S
H126 C101 0.930 . S
H127 C103 0.928 . S
H128 C105 0.931 . S
H129 C107 0.930 . S
H130 C109 0.929 . S
H131 C111 0.930 . S
H132 C113 0.929 . S
H133 C114 0.931 . S
C134 O135 1.201 . S
C134 C136 1.493 . S
C134 N151 1.318 . S
O135 C134 1.201 . S
C136 C134 1.493 . S
C136 C137 1.381 . S
C136 N141 1.320 1_455 S
C137 C136 1.381 . S
C137 C138 1.411 1_455 S
C137 H183 0.931 . S
C138 C137 1.411 1_655 S
C138 C139 1.384 . S
C138 H184 0.930 . S
C139 C138 1.384 . S
C139 C140 1.376 . S
C139 H185 0.929 . S
C140 C139 1.376 . S
C140 N141 1.345 . S
C140 C155 1.484 . S
N141 C136 1.320 1_655 S
N141 C140 1.345 . S
N141 Co143 1.859 1_655 S
N142 Co143 1.962 . S
N142 C153 1.316 1_455 S
N142 C177 1.422 . S
Co143 N141 1.859 1_455 S
Co143 N142 1.962 . S
Co143 N144 1.859 1_455 S
Co143 N150 1.959 . S
Co143 N151 1.981 . S
Co143 N152 1.940 1_455 S
N144 Co143 1.859 1_655 S
N144 C148 1.330 . S
N144 C149 1.335 . S
C145 C146 1.411 . S
C145 C149 1.381 . S
C145 H186 0.931 . S
C146 C145 1.411 . S
C146 C147 1.384 . S
C146 H187 0.930 . S
C147 C146 1.384 . S
C147 C148 1.376 . S
C147 H188 0.929 . S
C148 N144 1.330 . S
C148 C147 1.376 . S
C148 C163 1.484 . S
C149 N144 1.335 . S
C149 C145 1.381 . S
C149 C153 1.493 . S
N150 Co143 1.959 . S
N150 C163 1.344 1_455 S
N150 C165 1.425 . S
N151 C134 1.318 . S
N151 Co143 1.981 . S
N151 C171 1.421 . S
N152 Co143 1.940 1_655 S
N152 C155 1.344 . S
N152 C157 1.425 . S
C153 N142 1.316 1_655 S
C153 C149 1.493 . S
C153 O154 1.201 . S
O154 C153 1.201 . S
C155 C140 1.484 . S
C155 N152 1.344 . S
C155 O156 1.268 . S
O156 C155 1.268 . S
C157 N152 1.425 . S
C157 C159 1.392 . S
C157 C160 1.368 . S
C158 C159 1.382 . S
C158 C162 1.386 . S
C159 C157 1.392 . S
C159 C158 1.382 . S
C159 H189 0.928 . S
C160 C157 1.368 . S
C160 C161 1.367 . S
C160 H190 0.930 . S
C161 C160 1.367 . S
C161 C162 1.369 . S
C162 C158 1.386 . S
C162 C161 1.369 . S
C162 H191 0.930 . S
C163 C148 1.484 . S
C163 N150 1.344 1_655 S
C163 O164 1.268 . S
O164 C163 1.268 . S
C165 N150 1.425 . S
C165 C166 1.368 1_455 S
C165 C170 1.392 . S
C166 C165 1.368 1_655 S
C166 C167 1.367 . S
C166 H192 0.930 . S
C167 C166 1.367 . S
C167 C168 1.369 1_655 S
C168 C167 1.369 1_455 S
C168 C169 1.386 . S
C168 H193 0.930 . S
C169 C168 1.386 . S
C169 C170 1.382 . S
C170 C165 1.392 . S
C170 C169 1.382 . S
C170 H194 0.928 . S
C171 N151 1.421 . S
C171 C172 1.371 . S
C171 C176 1.385 . S
C172 C171 1.371 . S
C172 C173 1.367 . S
C172 H195 0.931 . S
C173 C172 1.367 . S
C173 C174 1.401 . S
C174 C173 1.401 . S
C174 C175 1.385 . S
C174 H196 0.930 . S
C175 C174 1.385 . S
C175 C176 1.402 . S
C176 C171 1.385 . S
C176 C175 1.402 . S
C176 H197 0.929 . S
C177 N142 1.422 . S
C177 C180 1.385 . S
C177 C181 1.371 1_455 S
C178 C179 1.385 . S
C178 C182 1.401 1_455 S
C178 H198 0.930 . S
C179 C178 1.385 . S
C179 C180 1.402 . S
C180 C177 1.385 . S
C180 C179 1.402 . S
C180 H199 0.929 . S
C181 C177 1.371 1_655 S
C181 C182 1.367 . S
C181 H200 0.931 . S
C182 C178 1.401 1_655 S
C182 C181 1.367 . S
H183 C137 0.931 . S
H184 C138 0.930 . S
H185 C139 0.929 . S
H186 C145 0.931 . S
H187 C146 0.930 . S
H188 C147 0.929 . S
H189 C159 0.928 . S
H190 C160 0.930 . S
H191 C162 0.930 . S
H192 C166 0.930 . S
H193 C168 0.930 . S
H194 C170 0.928 . S
H195 C172 0.931 . S
H196 C174 0.930 . S
H197 C176 0.929 . S
H198 C178 0.930 . S
H199 C180 0.929 . S
H200 C181 0.931 . S
C201 O202 1.201 . S
C201 C203 1.493 . S
C201 N218 1.318 . S
O202 C201 1.201 . S
C203 C201 1.493 . S
C203 C204 1.381 . S
C203 N208 1.335 1_556 S
C204 C203 1.381 . S
C204 C205 1.411 1_556 S
C204 H250 0.931 . S
C205 C204 1.411 1_554 S
C205 C206 1.384 . S
C205 H251 0.930 . S
C206 C205 1.384 . S
C206 C207 1.376 . S
C206 H252 0.929 . S
C207 C206 1.376 . S
C207 N208 1.330 . S
C207 C222 1.484 . S
N208 C203 1.335 1_554 S
N208 C207 1.330 . S
N208 Co210 1.859 . S
N209 Co210 1.962 . S
N209 C220 1.318 . S
N209 C244 1.421 . S
Co210 N208 1.859 . S
Co210 N209 1.962 . S
Co210 N211 1.859 . S
Co210 N217 1.958 . S
Co210 N218 1.962 1_554 S
Co210 N219 1.958 . S
N211 Co210 1.859 . S
N211 C215 1.330 . S
N211 C216 1.335 . S
C212 C213 1.411 . S
C212 C216 1.381 . S
C212 H253 0.931 . S
C213 C212 1.411 . S
C213 C214 1.384 . S
C213 H254 0.930 . S
C214 C213 1.384 . S
C214 C215 1.376 . S
C214 H255 0.929 . S
C215 N211 1.330 . S
C215 C214 1.376 . S
C215 C230 1.484 . S
C216 N211 1.335 . S
C216 C212 1.381 . S
C216 C220 1.493 . S
N217 Co210 1.958 . S
N217 C230 1.344 . S
N217 C232 1.425 . S
N218 C201 1.318 . S
N218 Co210 1.962 1_556 S
N218 C238 1.421 . S
N219 Co210 1.958 . S
N219 C222 1.344 . S
N219 C224 1.425 . S
C220 N209 1.318 . S
C220 C216 1.493 . S
C220 O221 1.201 . S
O221 C220 1.201 . S
C222 C207 1.484 . S
C222 N219 1.344 . S
C222 O223 1.268 . S
O223 C222 1.268 . S
C224 N219 1.425 . S
C224 C226 1.392 . S
C224 C227 1.368 . S
C225 C226 1.382 . S
C225 C229 1.386 . S
C226 C224 1.392 . S
C226 C225 1.382 . S
C226 H256 0.928 . S
C227 C224 1.368 . S
C227 C228 1.367 . S
C227 H257 0.930 . S
C228 C227 1.367 . S
C228 C229 1.369 . S
C229 C225 1.386 . S
C229 C228 1.369 . S
C229 H258 0.930 . S
C230 C215 1.484 . S
C230 N217 1.344 . S
C230 O231 1.268 . S
O231 C230 1.268 . S
C232 N217 1.425 . S
C232 C233 1.368 . S
C232 C237 1.392 1_554 S
C233 C232 1.368 . S
C233 C234 1.367 . S
C233 H259 0.930 . S
C234 C233 1.367 . S
C234 C235 1.369 1_554 S
C235 C234 1.369 1_556 S
C235 C236 1.386 . S
C235 H260 0.930 . S
C236 C235 1.386 . S
C236 C237 1.382 . S
C237 C232 1.392 1_556 S
C237 C236 1.382 . S
C237 H261 0.928 . S
C238 N218 1.421 . S
C238 C239 1.371 . S
C238 C243 1.385 . S
C239 C238 1.371 . S
C239 C240 1.367 . S
C239 H262 0.931 . S
C240 C239 1.367 . S
C240 C241 1.401 . S
C241 C240 1.401 . S
C241 C242 1.385 . S
C241 H263 0.930 . S
C242 C241 1.385 . S
C242 C243 1.402 . S
C243 C238 1.385 . S
C243 C242 1.402 . S
C243 H264 0.929 . S
C244 N209 1.421 . S
C244 C247 1.385 1_554 S
C244 C248 1.371 . S
C245 C246 1.385 1_554 S
C245 C249 1.401 . S
C245 H265 0.930 . S
C246 C245 1.385 1_556 S
C246 C247 1.402 . S
C247 C244 1.385 1_556 S
C247 C246 1.402 . S
C247 H266 0.929 . S
C248 C244 1.371 . S
C248 C249 1.367 . S
C248 H267 0.931 . S
C249 C245 1.401 . S
C249 C248 1.367 . S
H250 C204 0.931 . S
H251 C205 0.930 . S
H252 C206 0.929 . S
H253 C212 0.931 . S
H254 C213 0.930 . S
H255 C214 0.929 . S
H256 C226 0.928 . S
H257 C227 0.930 . S
H258 C229 0.930 . S
H259 C233 0.930 . S
H260 C235 0.930 . S
H261 C237 0.928 . S
H262 C239 0.931 . S
H263 C241 0.930 . S
H264 C243 0.929 . S
H265 C245 0.930 . S
H266 C247 0.929 . S
H267 C248 0.931 . S
C268 O269 1.201 . S
C268 C270 1.493 . S
C268 N285 1.318 . S
O269 C268 1.201 . S
C270 C268 1.493 . S
C270 C271 1.381 . S
C270 N275 1.335 1_545 S
C271 C270 1.381 . S
C271 C272 1.411 1_545 S
C271 H317 0.931 . S
C272 C271 1.411 1_565 S
C272 C273 1.384 . S
C272 H318 0.930 . S
C273 C272 1.384 . S
C273 C274 1.376 . S
C273 H319 0.929 . S
C274 C273 1.376 . S
C274 N275 1.330 . S
C274 C289 1.484 . S
N275 C270 1.335 1_565 S
N275 C274 1.330 . S
N275 Co277 1.859 . S
N276 Co277 1.962 . S
N276 C287 1.318 . S
N276 C311 1.421 . S
Co277 N275 1.859 . S
Co277 N276 1.962 . S
Co277 N278 1.859 . S
Co277 N284 1.958 . S
Co277 N285 1.962 1_565 S
Co277 N286 1.958 . S
N278 Co277 1.859 . S
N278 C282 1.330 . S
N278 C283 1.335 . S
C279 C280 1.411 . S
C279 C283 1.381 . S
C279 H320 0.931 . S
C280 C279 1.411 . S
C280 C281 1.384 . S
C280 H321 0.930 . S
C281 C280 1.384 . S
C281 C282 1.376 . S
C281 H322 0.929 . S
C282 N278 1.330 . S
C282 C281 1.376 . S
C282 C297 1.484 . S
C283 N278 1.335 . S
C283 C279 1.381 . S
C283 C287 1.493 . S
N284 Co277 1.958 . S
N284 C297 1.344 . S
N284 C299 1.425 . S
N285 C268 1.318 . S
N285 Co277 1.962 1_545 S
N285 C305 1.421 . S
N286 Co277 1.958 . S
N286 C289 1.344 . S
N286 C291 1.425 . S
C287 N276 1.318 . S
C287 C283 1.493 . S
C287 O288 1.201 . S
O288 C287 1.201 . S
C289 C274 1.484 . S
C289 N286 1.344 . S
C289 O290 1.268 . S
O290 C289 1.268 . S
C291 N286 1.425 . S
C291 C293 1.392 . S
C291 C294 1.368 . S
C292 C293 1.382 . S
C292 C296 1.386 . S
C293 C291 1.392 . S
C293 C292 1.382 . S
C293 H323 0.928 . S
C294 C291 1.368 . S
C294 C295 1.367 . S
C294 H324 0.930 . S
C295 C294 1.367 . S
C295 C296 1.369 . S
C296 C292 1.386 . S
C296 C295 1.369 . S
C296 H325 0.930 . S
C297 C282 1.484 . S
C297 N284 1.344 . S
C297 O298 1.268 . S
O298 C297 1.268 . S
C299 N284 1.425 . S
C299 C300 1.376 . S
C299 C304 1.383 1_565 S
C300 C299 1.376 . S
C300 C301 1.367 . S
C300 H326 0.930 . S
C301 C300 1.367 . S
C301 C302 1.369 1_565 S
C302 C301 1.369 1_545 S
C302 C303 1.386 . S
C302 H327 0.930 . S
C303 C302 1.386 . S
C303 C304 1.382 . S
C304 C299 1.383 1_545 S
C304 C303 1.382 . S
C304 H328 0.928 . S
C305 N285 1.421 . S
C305 C306 1.371 . S
C305 C310 1.385 . S
C306 C305 1.371 . S
C306 C307 1.367 . S
C306 H329 0.931 . S
C307 C306 1.367 . S
C307 C308 1.401 . S
C308 C307 1.401 . S
C308 C309 1.385 . S
C308 H330 0.930 . S
C309 C308 1.385 . S
C309 C310 1.402 . S
C310 C305 1.385 . S
C310 C309 1.402 . S
C310 H331 0.929 . S
C311 N276 1.421 . S
C311 C314 1.385 1_565 S
C311 C315 1.371 . S
C312 C313 1.364 1_565 S
C312 C316 1.422 . S
C312 H332 0.930 . S
C313 C312 1.364 1_545 S
C313 C314 1.402 . S
C314 C311 1.385 1_545 S
C314 C313 1.402 . S
C314 H333 0.929 . S
C315 C311 1.371 . S
C315 C316 1.367 . S
C315 H334 0.931 . S
C316 C312 1.422 . S
C316 C315 1.367 . S
H317 C271 0.931 . S
H318 C272 0.930 . S
H319 C273 0.929 . S
H320 C279 0.931 . S
H321 C280 0.930 . S
H322 C281 0.929 . S
H323 C293 0.928 . S
H324 C294 0.930 . S
H325 C296 0.930 . S
H326 C300 0.930 . S
H327 C302 0.930 . S
H328 C304 0.928 . S
H329 C306 0.931 . S
H330 C308 0.930 . S
H331 C310 0.929 . S
H332 C312 0.930 . S
H333 C314 0.929 . S
H334 C315 0.931 . S
C335 O336 1.201 . S
C335 C337 1.493 . S
C335 N352 1.318 . S
O336 C335 1.201 . S
C337 C335 1.493 . S
C337 C338 1.381 . S
C337 N342 1.335 1_565 S
C338 C337 1.381 . S
C338 C339 1.411 1_565 S
C338 H384 0.931 . S
C339 C338 1.411 1_545 S
C339 C340 1.384 . S
C339 H385 0.930 . S
C340 C339 1.384 . S
C340 C341 1.376 . S
C340 H386 0.929 . S
C341 C340 1.376 . S
C341 N342 1.330 . S
C341 C356 1.484 . S
N342 C337 1.335 1_545 S
N342 C341 1.330 . S
N342 Co344 1.859 . S
N343 Co344 1.962 . S
N343 C354 1.318 . S
N343 C378 1.421 . S
Co344 N342 1.859 . S
Co344 N343 1.962 . S
Co344 N345 1.859 . S
Co344 N351 1.958 . S
Co344 N352 1.962 1_545 S
Co344 N353 1.958 . S
N345 Co344 1.859 . S
N345 C349 1.330 . S
N345 C350 1.335 . S
C346 C347 1.411 . S
C346 C350 1.381 . S
C346 H387 0.931 . S
C347 C346 1.411 . S
C347 C348 1.384 . S
C347 H388 0.930 . S
C348 C347 1.384 . S
C348 C349 1.376 . S
C348 H389 0.929 . S
C349 N345 1.330 . S
C349 C348 1.376 . S
C349 C364 1.484 . S
C350 N345 1.335 . S
C350 C346 1.381 . S
C350 C354 1.493 . S
N351 Co344 1.958 . S
N351 C364 1.344 . S
N351 C366 1.425 . S
N352 C335 1.318 . S
N352 Co344 1.962 1_565 S
N352 C372 1.421 . S
N353 Co344 1.958 . S
N353 C356 1.344 . S
N353 C358 1.425 . S
C354 N343 1.318 . S
C354 C350 1.493 . S
C354 O355 1.201 . S
O355 C354 1.201 . S
C356 C341 1.484 . S
C356 N353 1.344 . S
C356 O357 1.268 . S
O357 C356 1.268 . S
C358 N353 1.425 . S
C358 C360 1.392 . S
C358 C361 1.368 . S
C359 C360 1.382 . S
C359 C363 1.386 . S
C360 C358 1.392 . S
C360 C359 1.382 . S
C360 H390 0.928 . S
C361 C358 1.368 . S
C361 C362 1.367 . S
C361 H391 0.930 . S
C362 C361 1.367 . S
C362 C363 1.369 . S
C363 C359 1.386 . S
C363 C362 1.369 . S
C363 H392 0.930 . S
C364 C349 1.484 . S
C364 N351 1.344 . S
C364 O365 1.268 . S
O365 C364 1.268 . S
C366 N351 1.425 . S
C366 C367 1.368 . S
C366 C371 1.392 1_545 S
C367 C366 1.368 . S
C367 C368 1.367 . S
C367 H393 0.930 . S
C368 C367 1.367 . S
C368 C369 1.352 1_545 S
C369 C368 1.352 1_565 S
C369 C370 1.402 . S
C369 H394 0.932 . S
C370 C369 1.402 . S
C370 C371 1.382 . S
C371 C366 1.392 1_565 S
C371 C370 1.382 . S
C371 H395 0.928 . S
C372 N352 1.421 . S
C372 C373 1.371 . S
C372 C377 1.385 . S
C373 C372 1.371 . S
C373 C374 1.367 . S
C373 H396 0.931 . S
C374 C373 1.367 . S
C374 C375 1.401 . S
C375 C374 1.401 . S
C375 C376 1.385 . S
C375 H397 0.930 . S
C376 C375 1.385 . S
C376 C377 1.402 . S
C377 C372 1.385 . S
C377 C376 1.402 . S
C377 H398 0.929 . S
C378 N343 1.421 . S
C378 C381 1.385 1_545 S
C378 C382 1.371 . S
C379 C380 1.385 1_545 S
C379 C383 1.401 . S
C379 H399 0.930 . S
C380 C379 1.385 1_565 S
C380 C381 1.402 . S
C381 C378 1.385 1_565 S
C381 C380 1.402 . S
C381 H400 0.929 . S
C382 C378 1.371 . S
C382 C383 1.367 . S
C382 H401 0.931 . S
C383 C379 1.401 . S
C383 C382 1.367 . S
H384 C338 0.931 . S
H385 C339 0.930 . S
H386 C340 0.929 . S
H387 C346 0.931 . S
H388 C347 0.930 . S
H389 C348 0.929 . S
H390 C360 0.928 . S
H391 C361 0.930 . S
H392 C363 0.930 . S
H393 C367 0.930 . S
H394 C369 0.932 . S
H395 C371 0.928 . S
H396 C373 0.931 . S
H397 C375 0.930 . S
H398 C377 0.929 . S
H399 C379 0.930 . S
H400 C381 0.929 . S
H401 C382 0.931 . S
H402 C408 0.930 . S
H403 C411 0.930 . S
H404 C412 0.930 . S
H405 C413 0.930 . S
H406 C416 0.930 . S
H407 C417 0.930 . S
C408 H402 0.930 . S
C408 C409 1.355 . S
C408 C410 1.415 . S
C409 C408 1.355 . S
C409 C411 1.419 . S
C410 C408 1.415 . S
C410 C415 1.425 . S
C410 C417 1.409 . S
C411 H403 0.930 . S
C411 C409 1.419 . S
C411 C412 1.362 . S
C412 H404 0.930 . S
C412 C411 1.362 . S
C412 C415 1.409 . S
C413 H405 0.930 . S
C413 C414 1.355 . S
C413 C415 1.415 . S
C414 C413 1.355 . S
C414 C416 1.419 . S
C415 C410 1.425 . S
C415 C412 1.409 . S
C415 C413 1.415 . S
C416 H406 0.930 . S
C416 C414 1.419 . S
C416 C417 1.362 . S
C417 H407 0.930 . S
C417 C410 1.409 . S
C417 C416 1.362 . S
H418 C424 0.930 . S
H419 C427 0.930 . S
H420 C428 0.930 . S
H421 C429 0.930 . S
H422 C432 0.930 . S
H423 C433 0.930 . S
C424 H418 0.930 . S
C424 C425 1.355 . S
C424 C426 1.415 . S
C425 C424 1.355 . S
C425 C427 1.419 . S
C426 C424 1.415 . S
C426 C431 1.425 . S
C426 C433 1.409 . S
C427 H419 0.930 . S
C427 C425 1.419 . S
C427 C428 1.362 . S
C428 H420 0.930 . S
C428 C427 1.362 . S
C428 C431 1.409 . S
C429 H421 0.930 . S
C429 C430 1.355 . S
C429 C431 1.415 . S
C430 C429 1.355 . S
C430 C432 1.419 . S
C431 C426 1.425 . S
C431 C428 1.409 . S
C431 C429 1.415 . S
C432 H422 0.930 . S
C432 C430 1.419 . S
C432 C433 1.362 . S
C433 H423 0.930 . S
C433 C426 1.409 . S
C433 C432 1.362 . S
H434 C440 0.930 . S
H435 C443 0.930 . S
H436 C444 0.930 . S
H437 C445 0.930 . S
H438 C448 0.930 . S
H439 C449 0.930 . S
C440 H434 0.930 . S
C440 C441 1.355 . S
C440 C442 1.415 . S
C441 C440 1.355 . S
C441 C443 1.419 . S
C442 C440 1.415 . S
C442 C447 1.425 . S
C442 C449 1.409 . S
C443 H435 0.930 . S
C443 C441 1.419 . S
C443 C444 1.362 . S
C444 H436 0.930 . S
C444 C443 1.362 . S
C444 C447 1.409 . S
C445 H437 0.930 . S
C445 C446 1.355 . S
C445 C447 1.415 . S
C446 C445 1.355 . S
C446 C448 1.419 . S
C447 C442 1.425 . S
C447 C444 1.409 . S
C447 C445 1.415 . S
C448 H438 0.930 . S
C448 C446 1.419 . S
C448 C449 1.362 . S
C449 H439 0.930 . S
C449 C442 1.409 . S
C449 C448 1.362 . S
H450 C456 0.930 . S
H451 C459 0.930 . S
H452 C460 0.930 . S
H453 C461 0.930 . S
H454 C464 0.930 . S
H455 C465 0.930 . S
C456 H450 0.930 . S
C456 C457 1.355 . S
C456 C458 1.415 . S
C457 C456 1.355 . S
C457 C459 1.419 . S
C458 C456 1.415 . S
C458 C463 1.425 . S
C458 C465 1.409 . S
C459 H451 0.930 . S
C459 C457 1.419 . S
C459 C460 1.362 . S
C460 H452 0.930 . S
C460 C459 1.362 . S
C460 C463 1.409 . S
C461 H453 0.930 . S
C461 C462 1.355 . S
C461 C463 1.415 . S
C462 C461 1.355 . S
C462 C464 1.419 . S
C463 C458 1.425 . S
C463 C460 1.409 . S
C463 C461 1.415 . S
C464 H454 0.930 . S
C464 C462 1.419 . S
C464 C465 1.362 . S
C465 H455 0.930 . S
C465 C458 1.409 . S
C465 C464 1.362 . S
H466 C472 0.930 . S
H467 C475 0.930 . S
H468 C476 0.930 . S
H469 C477 0.930 . S
H470 C480 0.930 . S
H471 C481 0.930 . S
C472 H466 0.930 . S
C472 C473 1.355 . S
C472 C474 1.415 . S
C473 C472 1.355 . S
C473 C475 1.419 . S
C474 C472 1.415 . S
C474 C479 1.425 . S
C474 C481 1.409 . S
C475 H467 0.930 . S
C475 C473 1.419 . S
C475 C476 1.362 . S
C476 H468 0.930 . S
C476 C475 1.362 . S
C476 C479 1.409 . S
C477 H469 0.930 . S
C477 C478 1.355 . S
C477 C479 1.415 . S
C478 C477 1.355 . S
C478 C480 1.419 . S
C479 C474 1.425 . S
C479 C476 1.409 . S
C479 C477 1.415 . S
C480 H470 0.930 . S
C480 C478 1.419 . S
C480 C481 1.362 . S
C481 H471 0.930 . S
C481 C474 1.409 . S
C481 C480 1.362 . S
H482 C488 0.930 . S
H483 C491 0.930 . S
H484 C492 0.930 . S
H485 C493 0.930 . S
H486 C496 0.930 . S
H487 C497 0.930 . S
C488 H482 0.930 . S
C488 C489 1.355 . S
C488 C490 1.415 . S
C489 C488 1.355 . S
C489 C491 1.419 . S
C490 C488 1.415 . S
C490 C495 1.425 . S
C490 C497 1.409 . S
C491 H483 0.930 . S
C491 C489 1.419 . S
C491 C492 1.362 . S
C492 H484 0.930 . S
C492 C491 1.362 . S
C492 C495 1.409 . S
C493 H485 0.930 . S
C493 C494 1.355 . S
C493 C495 1.415 . S
C494 C493 1.355 . S
C494 C496 1.419 . S
C495 C490 1.425 . S
C495 C492 1.409 . S
C495 C493 1.415 . S
C496 H486 0.930 . S
C496 C494 1.419 . S
C496 C497 1.362 . S
C497 H487 0.930 . S
C497 C490 1.409 . S
C497 C496 1.362 . S
H498 C504 0.930 . S
H499 C507 0.930 . S
H500 C508 0.930 . S
H501 C509 0.930 . S
H502 C512 0.930 . S
H503 C513 0.930 . S
C504 H498 0.930 . S
C504 C505 1.355 . S
C504 C506 1.415 . S
C505 C504 1.355 . S
C505 C507 1.419 . S
C506 C504 1.415 . S
C506 C511 1.425 . S
C506 C513 1.409 . S
C507 H499 0.930 . S
C507 C505 1.419 . S
C507 C508 1.362 . S
C508 H500 0.930 . S
C508 C507 1.362 . S
C508 C511 1.409 . S
C509 H501 0.930 . S
C509 C510 1.355 . S
C509 C511 1.415 . S
C510 C509 1.355 . S
C510 C512 1.419 . S
C511 C506 1.425 . S
C511 C508 1.409 . S
C511 C509 1.415 . S
C512 H502 0.930 . S
C512 C510 1.419 . S
C512 C513 1.362 . S
C513 H503 0.930 . S
C513 C506 1.409 . S
C513 C512 1.362 . S
H514 C520 0.930 . S
H515 C523 0.930 . S
H516 C524 0.930 . S
H517 C525 0.930 . S
H518 C528 0.930 . S
H519 C529 0.930 . S
C520 H514 0.930 . S
C520 C521 1.355 . S
C520 C522 1.415 . S
C521 C520 1.355 . S
C521 C523 1.419 . S
C522 C520 1.415 . S
C522 C527 1.425 . S
C522 C529 1.409 . S
C523 H515 0.930 . S
C523 C521 1.419 . S
C523 C524 1.362 . S
C524 H516 0.930 . S
C524 C523 1.362 . S
C524 C527 1.409 . S
C525 H517 0.930 . S
C525 C526 1.355 . S
C525 C527 1.415 . S
C526 C525 1.355 . S
C526 C528 1.419 . S
C527 C522 1.425 . S
C527 C524 1.409 . S
C527 C525 1.415 . S
C528 H518 0.930 . S
C528 C526 1.419 . S
C528 C529 1.362 . S
C529 H519 0.930 . S
C529 C522 1.409 . S
C529 C528 1.362 . S
H530 C536 0.930 . S
H531 C539 0.930 . S
H532 C540 0.930 . S
H533 C541 0.930 . S
H534 C544 0.930 . S
H535 C545 0.930 . S
C536 H530 0.930 . S
C536 C537 1.355 . S
C536 C538 1.415 . S
C537 C536 1.355 . S
C537 C539 1.419 . S
C538 C536 1.415 . S
C538 C543 1.425 . S
C538 C545 1.409 . S
C539 H531 0.930 . S
C539 C537 1.419 . S
C539 C540 1.362 . S
C540 H532 0.930 . S
C540 C539 1.362 . S
C540 C543 1.409 . S
C541 H533 0.930 . S
C541 C542 1.355 . S
C541 C543 1.415 . S
C542 C541 1.355 . S
C542 C544 1.419 . S
C543 C538 1.425 . S
C543 C540 1.409 . S
C543 C541 1.415 . S
C544 H534 0.930 . S
C544 C542 1.419 . S
C544 C545 1.362 . S
C545 H535 0.930 . S
C545 C538 1.409 . S
C545 C544 1.362 . S
H546 C552 0.930 . S
H547 C555 0.930 . S
H548 C556 0.930 . S
H549 C557 0.930 . S
H550 C560 0.930 . S
H551 C561 0.930 . S
C552 H546 0.930 . S
C552 C553 1.355 . S
C552 C554 1.415 . S
C553 C552 1.355 . S
C553 C555 1.419 . S
C554 C552 1.415 . S
C554 C559 1.425 . S
C554 C561 1.409 . S
C555 H547 0.930 . S
C555 C553 1.419 . S
C555 C556 1.362 . S
C556 H548 0.930 . S
C556 C555 1.362 . S
C556 C559 1.409 . S
C557 H549 0.930 . S
C557 C558 1.355 . S
C557 C559 1.415 . S
C558 C557 1.355 . S
C558 C560 1.419 . S
C559 C554 1.425 . S
C559 C556 1.409 . S
C559 C557 1.415 . S
C560 H550 0.930 . S
C560 C558 1.419 . S
C560 C561 1.362 . S
C561 H551 0.930 . S
C561 C554 1.409 . S
C561 C560 1.362 . S
H562 C568 0.930 . S
H563 C571 0.930 . S
H564 C572 0.930 . S
H565 C573 0.930 . S
H566 C576 0.930 . S
H567 C577 0.930 . S
C568 H562 0.930 . S
C568 C569 1.355 . S
C568 C570 1.415 . S
C569 C568 1.355 . S
C569 C571 1.419 . S
C570 C568 1.415 . S
C570 C575 1.425 . S
C570 C577 1.409 . S
C571 H563 0.930 . S
C571 C569 1.419 . S
C571 C572 1.362 . S
C572 H564 0.930 . S
C572 C571 1.362 . S
C572 C575 1.409 . S
C573 H565 0.930 . S
C573 C574 1.355 . S
C573 C575 1.415 . S
C574 C573 1.355 . S
C574 C576 1.419 . S
C575 C570 1.425 . S
C575 C572 1.409 . S
C575 C573 1.415 . S
C576 H566 0.930 . S
C576 C574 1.419 . S
C576 C577 1.362 . S
C577 H567 0.930 . S
C577 C570 1.409 . S
C577 C576 1.362 . S
H578 C584 0.930 . S
H579 C587 0.930 . S
H580 C588 0.930 . S
H581 C589 0.930 . S
H582 C592 0.930 . S
H583 C593 0.930 . S
C584 H578 0.930 . S
C584 C585 1.355 . S
C584 C586 1.415 . S
C585 C584 1.355 . S
C585 C587 1.419 . S
C586 C584 1.415 . S
C586 C591 1.425 . S
C586 C593 1.409 . S
C587 H579 0.930 . S
C587 C585 1.419 . S
C587 C588 1.362 . S
C588 H580 0.930 . S
C588 C587 1.362 . S
C588 C591 1.409 . S
C589 H581 0.930 . S
C589 C590 1.355 . S
C589 C591 1.415 . S
C590 C589 1.355 . S
C590 C592 1.419 . S
C591 C586 1.425 . S
C591 C588 1.409 . S
C591 C589 1.415 . S
C592 H582 0.930 . S
C592 C590 1.419 . S
C592 C593 1.362 . S
C593 H583 0.930 . S
C593 C586 1.409 . S
C593 C592 1.362 . S
H594 C600 0.930 . S
H595 C603 0.930 . S
H596 C604 0.930 . S
H597 C605 0.930 . S
H598 C608 0.930 . S
H599 C609 0.930 . S
C600 H594 0.930 . S
C600 C601 1.355 . S
C600 C602 1.415 . S
C601 C600 1.355 . S
C601 C603 1.419 . S
C602 C600 1.415 . S
C602 C607 1.425 . S
C602 C609 1.409 . S
C603 H595 0.930 . S
C603 C601 1.419 . S
C603 C604 1.362 . S
C604 H596 0.930 . S
C604 C603 1.362 . S
C604 C607 1.409 . S
C605 H597 0.930 . S
C605 C606 1.355 . S
C605 C607 1.415 . S
C606 C605 1.355 . S
C606 C608 1.419 . S
C607 C602 1.425 . S
C607 C604 1.409 . S
C607 C605 1.415 . S
C608 H598 0.930 . S
C608 C606 1.419 . S
C608 C609 1.362 . S
C609 H599 0.930 . S
C609 C602 1.409 . S
C609 C608 1.362 . S
H610 C616 0.930 . S
H611 C619 0.930 . S
H612 C620 0.930 . S
H613 C621 0.930 . S
H614 C624 0.930 . S
H615 C625 0.930 . S
C616 H610 0.930 . S
C616 C617 1.355 . S
C616 C618 1.415 . S
C617 C616 1.355 . S
C617 C619 1.419 . S
C618 C616 1.415 . S
C618 C623 1.425 . S
C618 C625 1.409 . S
C619 H611 0.930 . S
C619 C617 1.419 . S
C619 C620 1.362 . S
C620 H612 0.930 . S
C620 C619 1.362 . S
C620 C623 1.409 . S
C621 H613 0.930 . S
C621 C622 1.355 . S
C621 C623 1.415 . S
C622 C621 1.355 . S
C622 C624 1.419 . S
C623 C618 1.425 . S
C623 C620 1.409 . S
C623 C621 1.415 . S
C624 H614 0.930 . S
C624 C622 1.419 . S
C624 C625 1.362 . S
C625 H615 0.930 . S
C625 C618 1.409 . S
C625 C624 1.362 . S
H626 C632 0.930 . S
H627 C635 0.930 . S
H628 C636 0.930 . S
H629 C637 0.930 . S
H630 C640 0.930 . S
H631 C641 0.930 . S
C632 H626 0.930 . S
C632 C633 1.355 . S
C632 C634 1.415 . S
C633 C632 1.355 . S
C633 C635 1.419 . S
C634 C632 1.415 . S
C634 C639 1.425 . S
C634 C641 1.409 . S
C635 H627 0.930 . S
C635 C633 1.419 . S
C635 C636 1.362 . S
C636 H628 0.930 . S
C636 C635 1.362 . S
C636 C639 1.409 . S
C637 H629 0.930 . S
C637 C638 1.355 . S
C637 C639 1.415 . S
C638 C637 1.355 . S
C638 C640 1.419 . S
C639 C634 1.425 . S
C639 C636 1.409 . S
C639 C637 1.415 . S
C640 H630 0.930 . S
C640 C638 1.419 . S
C640 C641 1.362 . S
C641 H631 0.930 . S
C641 C634 1.409 . S
C641 C640 1.362 . S
H642 C648 0.930 . S
H643 C651 0.930 . S
H644 C652 0.930 . S
H645 C653 0.930 . S
H646 C656 0.930 . S
H647 C657 0.930 . S
C648 H642 0.930 . S
C648 C649 1.355 . S
C648 C650 1.415 . S
C649 C648 1.355 . S
C649 C651 1.419 . S
C650 C648 1.415 . S
C650 C655 1.425 . S
C650 C657 1.409 . S
C651 H643 0.930 . S
C651 C649 1.419 . S
C651 C652 1.362 . S
C652 H644 0.930 . S
C652 C651 1.362 . S
C652 C655 1.409 . S
C653 H645 0.930 . S
C653 C654 1.355 . S
C653 C655 1.415 . S
C654 C653 1.355 . S
C654 C656 1.419 . S
C655 C650 1.425 . S
C655 C652 1.409 . S
C655 C653 1.415 . S
C656 H646 0.930 . S
C656 C654 1.419 . S
C656 C657 1.362 . S
C657 H647 0.930 . S
C657 C650 1.409 . S
C657 C656 1.362 . S
H658 C664 0.930 . S
H659 C667 0.930 . S
H660 C668 0.930 . S
H661 C669 0.930 . S
H662 C672 0.930 . S
H663 C673 0.930 . S
C664 H658 0.930 . S
C664 C665 1.355 . S
C664 C666 1.415 . S
C665 C664 1.355 . S
C665 C667 1.419 . S
C666 C664 1.415 . S
C666 C671 1.425 . S
C666 C673 1.409 . S
C667 H659 0.930 . S
C667 C665 1.419 . S
C667 C668 1.362 . S
C668 H660 0.930 . S
C668 C667 1.362 . S
C668 C671 1.409 . S
C669 H661 0.930 . S
C669 C670 1.355 . S
C669 C671 1.415 . S
C670 C669 1.355 . S
C670 C672 1.419 . S
C671 C666 1.425 . S
C671 C668 1.409 . S
C671 C669 1.415 . S
C672 H662 0.930 . S
C672 C670 1.419 . S
C672 C673 1.362 . S
C673 H663 0.930 . S
C673 C666 1.409 . S
C673 C672 1.362 . S
H674 C680 0.930 . S
H675 C683 0.930 . S
H676 C684 0.930 . S
H677 C685 0.930 . S
H678 C688 0.930 . S
H679 C689 0.930 . S
C680 H674 0.930 . S
C680 C681 1.355 . S
C680 C682 1.415 . S
C681 C680 1.355 . S
C681 C683 1.419 . S
C682 C680 1.415 . S
C682 C687 1.425 . S
C682 C689 1.409 . S
C683 H675 0.930 . S
C683 C681 1.419 . S
C683 C684 1.362 . S
C684 H676 0.930 . S
C684 C683 1.362 . S
C684 C687 1.409 . S
C685 H677 0.930 . S
C685 C686 1.355 . S
C685 C687 1.415 . S
C686 C685 1.355 . S
C686 C688 1.419 . S
C687 C682 1.425 . S
C687 C684 1.409 . S
C687 C685 1.415 . S
C688 H678 0.930 . S
C688 C686 1.419 . S
C688 C689 1.362 . S
C689 H679 0.930 . S
C689 C682 1.409 . S
C689 C688 1.362 . S
H690 C696 0.930 . S
H691 C699 0.930 . S
H692 C700 0.930 . S
H693 C701 0.930 . S
H694 C704 0.930 . S
H695 C705 0.930 . S
C696 H690 0.930 . S
C696 C697 1.355 . S
C696 C698 1.415 . S
C697 C696 1.355 . S
C697 C699 1.419 . S
C698 C696 1.415 . S
C698 C703 1.425 . S
C698 C705 1.409 . S
C699 H691 0.930 . S
C699 C697 1.419 . S
C699 C700 1.362 . S
C700 H692 0.930 . S
C700 C699 1.362 . S
C700 C703 1.409 . S
C701 H693 0.930 . S
C701 C702 1.355 . S
C701 C703 1.415 . S
C702 C701 1.355 . S
C702 C704 1.419 . S
C703 C698 1.425 . S
C703 C700 1.409 . S
C703 C701 1.415 . S
C704 H694 0.930 . S
C704 C702 1.419 . S
C704 C705 1.362 . S
C705 H695 0.930 . S
C705 C698 1.409 . S
C705 C704 1.362 . S
H706 C712 0.930 . S
H707 C715 0.930 . S
H708 C716 0.930 . S
H709 C717 0.930 . S
H710 C720 0.930 . S
H711 C721 0.930 . S
C712 H706 0.930 . S
C712 C713 1.355 . S
C712 C714 1.415 . S
C713 C712 1.355 . S
C713 C715 1.419 . S
C714 C712 1.415 . S
C714 C719 1.425 . S
C714 C721 1.409 . S
C715 H707 0.930 . S
C715 C713 1.419 . S
C715 C716 1.362 . S
C716 H708 0.930 . S
C716 C715 1.362 . S
C716 C719 1.409 . S
C717 H709 0.930 . S
C717 C718 1.355 . S
C717 C719 1.415 . S
C718 C717 1.355 . S
C718 C720 1.419 . S
C719 C714 1.425 . S
C719 C716 1.409 . S
C719 C717 1.415 . S
C720 H710 0.930 . S
C720 C718 1.419 . S
C720 C721 1.362 . S
C721 H711 0.930 . S
C721 C714 1.409 . S
C721 C720 1.362 . S
H722 C728 0.930 . S
H723 C731 0.930 . S
H724 C732 0.930 . S
H725 C733 0.930 . S
H726 C736 0.930 . S
H727 C737 0.930 . S
C728 H722 0.930 . S
C728 C729 1.355 . S
C728 C730 1.415 . S
C729 C728 1.355 . S
C729 C731 1.419 . S
C730 C728 1.415 . S
C730 C735 1.425 . S
C730 C737 1.409 . S
C731 H723 0.930 . S
C731 C729 1.419 . S
C731 C732 1.362 . S
C732 H724 0.930 . S
C732 C731 1.362 . S
C732 C735 1.409 . S
C733 H725 0.930 . S
C733 C734 1.355 . S
C733 C735 1.415 . S
C734 C733 1.355 . S
C734 C736 1.419 . S
C735 C730 1.425 . S
C735 C732 1.409 . S
C735 C733 1.415 . S
C736 H726 0.930 . S
C736 C734 1.419 . S
C736 C737 1.362 . S
C737 H727 0.930 . S
C737 C730 1.409 . S
C737 C736 1.362 . S
H738 C744 0.930 . S
H739 C747 0.930 . S
H740 C748 0.930 . S
H741 C749 0.930 . S
H742 C752 0.930 . S
H743 C753 0.930 . S
C744 H738 0.930 . S
C744 C745 1.355 . S
C744 C746 1.415 . S
C745 C744 1.355 . S
C745 C747 1.419 . S
C746 C744 1.415 . S
C746 C751 1.425 . S
C746 C753 1.409 . S
C747 H739 0.930 . S
C747 C745 1.419 . S
C747 C748 1.362 . S
C748 H740 0.930 . S
C748 C747 1.362 . S
C748 C751 1.409 . S
C749 H741 0.930 . S
C749 C750 1.355 . S
C749 C751 1.415 . S
C750 C749 1.355 . S
C750 C752 1.419 . S
C751 C746 1.425 . S
C751 C748 1.409 . S
C751 C749 1.415 . S
C752 H742 0.930 . S
C752 C750 1.419 . S
C752 C753 1.362 . S
C753 H743 0.930 . S
C753 C746 1.409 . S
C753 C752 1.362 . S
H754 C760 0.930 . S
H755 C763 0.930 . S
H756 C764 0.930 . S
H757 C765 0.930 . S
H758 C768 0.930 . S
H759 C769 0.930 . S
C760 H754 0.930 . S
C760 C761 1.355 . S
C760 C762 1.415 . S
C761 C760 1.355 . S
C761 C763 1.419 . S
C762 C760 1.415 . S
C762 C767 1.425 . S
C762 C769 1.409 . S
C763 H755 0.930 . S
C763 C761 1.419 . S
C763 C764 1.362 . S
C764 H756 0.930 . S
C764 C763 1.362 . S
C764 C767 1.409 . S
C765 H757 0.930 . S
C765 C766 1.355 . S
C765 C767 1.415 . S
C766 C765 1.355 . S
C766 C768 1.419 . S
C767 C762 1.425 . S
C767 C764 1.409 . S
C767 C765 1.415 . S
C768 H758 0.930 . S
C768 C766 1.419 . S
C768 C769 1.362 . S
C769 H759 0.930 . S
C769 C762 1.409 . S
C769 C768 1.362 . S
H770 C776 0.930 . S
H771 C779 0.930 . S
H772 C780 0.930 . S
H773 C781 0.930 . S
H774 C784 0.930 . S
H775 C785 0.930 . S
C776 H770 0.930 . S
C776 C777 1.355 . S
C776 C778 1.415 . S
C777 C776 1.355 . S
C777 C779 1.419 . S
C778 C776 1.415 . S
C778 C783 1.425 . S
C778 C785 1.409 . S
C779 H771 0.930 . S
C779 C777 1.419 . S
C779 C780 1.362 . S
C780 H772 0.930 . S
C780 C779 1.362 . S
C780 C783 1.409 . S
C781 H773 0.930 . S
C781 C782 1.355 . S
C781 C783 1.415 . S
C782 C781 1.355 . S
C782 C784 1.419 . S
C783 C778 1.425 . S
C783 C780 1.409 . S
C783 C781 1.415 . S
C784 H774 0.930 . S
C784 C782 1.419 . S
C784 C785 1.362 . S
C785 H775 0.930 . S
C785 C778 1.409 . S
C785 C784 1.362 . S
C409 C48 1.276 . S
C414 C91 1.245 . S
C425 C106 1.239 . S
C430 C169 1.214 . S
C441 C225 1.392 . S
C446 C182 1.362 . S
C457 C240 1.349 . S
C462 C35 1.326 . S
C473 C303 1.104 . S
C478 C24 1.030 . S
C489 C374 1.196 . S
C494 C102 1.206 . S
C505 C316 1.218 . S
C510 C158 1.228 . S
C521 C236 1.071 . S
C526 C359 1.151 . S
C537 C173 1.272 . S
C542 C370 1.354 . S
C553 C292 1.347 . S
C558 C249 1.371 . S
C569 C383 1.550 . S
C574 C39 1.548 . S
C585 C307 1.498 . S
C590 C115 1.474 . S
C601 C167 1.321 . S
C606 C242 1.271 . S
C617 C45 1.361 . S
C622 C228 1.312 . S
C633 C33 1.403 . S
C638 C108 1.367 . S
C649 C179 1.453 . S
C654 C94 1.413 . S
C665 C380 1.309 . S
C670 C161 1.334 . S
C681 C234 1.349 . S
C686 C309 1.368 . S
C697 C368 1.218 . S
C702 C27 1.205 . S
C713 C100 1.269 . S
C718 C295 1.277 . S
C729 C41 1.479 . S
C734 C313 1.500 . S
C745 C112 1.401 . S
C750 C362 1.366 . S
C761 C175 1.460 . S
C766 C301 1.486 . S
C777 C246 1.505 . S
C782 C376 1.513 . S
