# Generated by pormake.
# Topology fcm, (5)-cn, num edge types: 1
# Building blocks:
#     Node 0, Type 0, BuildingBlock: XOMCOT_clean_sbu_0, # of connection points: 5
#     Node 1, Type 0, BuildingBlock: XOMCOT_clean_sbu_0, # of connection points: 5
#     Node 2, Type 0, BuildingBlock: XOMCOT_clean_sbu_0, # of connection points: 5
#     Node 3, Type 0, BuildingBlock: XOMCOT_clean_sbu_0, # of connection points: 5
#     Node 4, Type 0, BuildingBlock: XOMCOT_clean_sbu_0, # of connection points: 5
#     Node 5, Type 0, BuildingBlock: XOMCOT_clean_sbu_0, # of connection points: 5
#     Node 6, Type 0, BuildingBlock: XOMCOT_clean_sbu_0, # of connection points: 5
#     Node 7, Type 0, BuildingBlock: XOMCOT_clean_sbu_0, # of connection points: 5
#     Node 8, Type 0, BuildingBlock: XOMCOT_clean_sbu_0, # of connection points: 5
#     Node 9, Type 0, BuildingBlock: XOMCOT_clean_sbu_0, # of connection points: 5
#     Node 10, Type 0, BuildingBlock: XOMCOT_clean_sbu_0, # of connection points: 5
#     Node 11, Type 0, BuildingBlock: XOMCOT_clean_sbu_0, # of connection points: 5
#     Node 12, Type 0, BuildingBlock: XOMCOT_clean_sbu_0, # of connection points: 5
#     Node 13, Type 0, BuildingBlock: XOMCOT_clean_sbu_0, # of connection points: 5
#     Node 14, Type 0, BuildingBlock: XOMCOT_clean_sbu_0, # of connection points: 5
#     Node 15, Type 0, BuildingBlock: XOMCOT_clean_sbu_0, # of connection points: 5
#     Node 16, Type 0, BuildingBlock: XOMCOT_clean_sbu_0, # of connection points: 5
#     Node 17, Type 0, BuildingBlock: XOMCOT_clean_sbu_0, # of connection points: 5
#     Node 18, Type 0, BuildingBlock: XOMCOT_clean_sbu_0, # of connection points: 5
#     Node 19, Type 0, BuildingBlock: XOMCOT_clean_sbu_0, # of connection points: 5
#     Node 20, Type 0, BuildingBlock: XOMCOT_clean_sbu_0, # of connection points: 5
#     Node 21, Type 0, BuildingBlock: XOMCOT_clean_sbu_0, # of connection points: 5
#     Node 22, Type 0, BuildingBlock: XOMCOT_clean_sbu_0, # of connection points: 5
#     Node 23, Type 0, BuildingBlock: XOMCOT_clean_sbu_0, # of connection points: 5
#     Node 24, Type 0, BuildingBlock: XOMCOT_clean_sbu_0, # of connection points: 5
#     Node 25, Type 0, BuildingBlock: XOMCOT_clean_sbu_0, # of connection points: 5
#     Node 26, Type 0, BuildingBlock: XOMCOT_clean_sbu_0, # of connection points: 5
#     Node 27, Type 0, BuildingBlock: XOMCOT_clean_sbu_0, # of connection points: 5
#     Node 28, Type 0, BuildingBlock: XOMCOT_clean_sbu_0, # of connection points: 5
#     Node 29, Type 0, BuildingBlock: XOMCOT_clean_sbu_0, # of connection points: 5
#     Node 30, Type 0, BuildingBlock: XOMCOT_clean_sbu_0, # of connection points: 5
#     Node 31, Type 0, BuildingBlock: XOMCOT_clean_sbu_0, # of connection points: 5
#     Node 32, Type 0, BuildingBlock: XOMCOT_clean_sbu_0, # of connection points: 5
#     Node 33, Type 0, BuildingBlock: XOMCOT_clean_sbu_0, # of connection points: 5
#     Node 34, Type 0, BuildingBlock: XOMCOT_clean_sbu_0, # of connection points: 5
#     Node 35, Type 0, BuildingBlock: XOMCOT_clean_sbu_0, # of connection points: 5
#     Node 36, Type 0, BuildingBlock: XOMCOT_clean_sbu_0, # of connection points: 5
#     Node 37, Type 0, BuildingBlock: XOMCOT_clean_sbu_0, # of connection points: 5
#     Node 38, Type 0, BuildingBlock: XOMCOT_clean_sbu_0, # of connection points: 5
#     Node 39, Type 0, BuildingBlock: XOMCOT_clean_sbu_0, # of connection points: 5
#     Node 40, Type 0, BuildingBlock: XOMCOT_clean_sbu_0, # of connection points: 5
#     Node 41, Type 0, BuildingBlock: XOMCOT_clean_sbu_0, # of connection points: 5
#     Node 42, Type 0, BuildingBlock: XOMCOT_clean_sbu_0, # of connection points: 5
#     Node 43, Type 0, BuildingBlock: XOMCOT_clean_sbu_0, # of connection points: 5
#     Node 44, Type 0, BuildingBlock: XOMCOT_clean_sbu_0, # of connection points: 5
#     Node 45, Type 0, BuildingBlock: XOMCOT_clean_sbu_0, # of connection points: 5
#     Node 46, Type 0, BuildingBlock: XOMCOT_clean_sbu_0, # of connection points: 5
#     Node 47, Type 0, BuildingBlock: XOMCOT_clean_sbu_0, # of connection points: 5
#     Edge 48, Type (0, 0), BuildingBlock: OJICUG_clean_linker_0, # of connection points: 2
#     Edge 49, Type (0, 0), BuildingBlock: OJICUG_clean_linker_0, # of connection points: 2
#     Edge 50, Type (0, 0), BuildingBlock: OJICUG_clean_linker_0, # of connection points: 2
#     Edge 51, Type (0, 0), BuildingBlock: OJICUG_clean_linker_0, # of connection points: 2
#     Edge 52, Type (0, 0), BuildingBlock: OJICUG_clean_linker_0, # of connection points: 2
#     Edge 53, Type (0, 0), BuildingBlock: OJICUG_clean_linker_0, # of connection points: 2
#     Edge 54, Type (0, 0), BuildingBlock: OJICUG_clean_linker_0, # of connection points: 2
#     Edge 55, Type (0, 0), BuildingBlock: OJICUG_clean_linker_0, # of connection points: 2
#     Edge 56, Type (0, 0), BuildingBlock: OJICUG_clean_linker_0, # of connection points: 2
#     Edge 57, Type (0, 0), BuildingBlock: OJICUG_clean_linker_0, # of connection points: 2
#     Edge 58, Type (0, 0), BuildingBlock: OJICUG_clean_linker_0, # of connection points: 2
#     Edge 59, Type (0, 0), BuildingBlock: OJICUG_clean_linker_0, # of connection points: 2
#     Edge 60, Type (0, 0), BuildingBlock: OJICUG_clean_linker_0, # of connection points: 2
#     Edge 61, Type (0, 0), BuildingBlock: OJICUG_clean_linker_0, # of connection points: 2
#     Edge 62, Type (0, 0), BuildingBlock: OJICUG_clean_linker_0, # of connection points: 2
#     Edge 63, Type (0, 0), BuildingBlock: OJICUG_clean_linker_0, # of connection points: 2
#     Edge 64, Type (0, 0), BuildingBlock: OJICUG_clean_linker_0, # of connection points: 2
#     Edge 65, Type (0, 0), BuildingBlock: OJICUG_clean_linker_0, # of connection points: 2
#     Edge 66, Type (0, 0), BuildingBlock: OJICUG_clean_linker_0, # of connection points: 2
#     Edge 67, Type (0, 0), BuildingBlock: OJICUG_clean_linker_0, # of connection points: 2
#     Edge 68, Type (0, 0), BuildingBlock: OJICUG_clean_linker_0, # of connection points: 2
#     Edge 69, Type (0, 0), BuildingBlock: OJICUG_clean_linker_0, # of connection points: 2
#     Edge 70, Type (0, 0), BuildingBlock: OJICUG_clean_linker_0, # of connection points: 2
#     Edge 71, Type (0, 0), BuildingBlock: OJICUG_clean_linker_0, # of connection points: 2
#     Edge 72, Type (0, 0), BuildingBlock: OJICUG_clean_linker_0, # of connection points: 2
#     Edge 73, Type (0, 0), BuildingBlock: OJICUG_clean_linker_0, # of connection points: 2
#     Edge 74, Type (0, 0), BuildingBlock: OJICUG_clean_linker_0, # of connection points: 2
#     Edge 75, Type (0, 0), BuildingBlock: OJICUG_clean_linker_0, # of connection points: 2
#     Edge 76, Type (0, 0), BuildingBlock: OJICUG_clean_linker_0, # of connection points: 2
#     Edge 77, Type (0, 0), BuildingBlock: OJICUG_clean_linker_0, # of connection points: 2
#     Edge 78, Type (0, 0), BuildingBlock: OJICUG_clean_linker_0, # of connection points: 2
#     Edge 79, Type (0, 0), BuildingBlock: OJICUG_clean_linker_0, # of connection points: 2
#     Edge 80, Type (0, 0), BuildingBlock: OJICUG_clean_linker_0, # of connection points: 2
#     Edge 81, Type (0, 0), BuildingBlock: OJICUG_clean_linker_0, # of connection points: 2
#     Edge 82, Type (0, 0), BuildingBlock: OJICUG_clean_linker_0, # of connection points: 2
#     Edge 83, Type (0, 0), BuildingBlock: OJICUG_clean_linker_0, # of connection points: 2
#     Edge 84, Type (0, 0), BuildingBlock: OJICUG_clean_linker_0, # of connection points: 2
#     Edge 85, Type (0, 0), BuildingBlock: OJICUG_clean_linker_0, # of connection points: 2
#     Edge 86, Type (0, 0), BuildingBlock: OJICUG_clean_linker_0, # of connection points: 2
#     Edge 87, Type (0, 0), BuildingBlock: OJICUG_clean_linker_0, # of connection points: 2
#     Edge 88, Type (0, 0), BuildingBlock: OJICUG_clean_linker_0, # of connection points: 2
#     Edge 89, Type (0, 0), BuildingBlock: OJICUG_clean_linker_0, # of connection points: 2
#     Edge 90, Type (0, 0), BuildingBlock: OJICUG_clean_linker_0, # of connection points: 2
#     Edge 91, Type (0, 0), BuildingBlock: OJICUG_clean_linker_0, # of connection points: 2
#     Edge 92, Type (0, 0), BuildingBlock: OJICUG_clean_linker_0, # of connection points: 2
#     Edge 93, Type (0, 0), BuildingBlock: OJICUG_clean_linker_0, # of connection points: 2
#     Edge 94, Type (0, 0), BuildingBlock: OJICUG_clean_linker_0, # of connection points: 2
#     Edge 95, Type (0, 0), BuildingBlock: OJICUG_clean_linker_0, # of connection points: 2
#     Edge 96, Type (0, 0), BuildingBlock: OJICUG_clean_linker_0, # of connection points: 2
#     Edge 97, Type (0, 0), BuildingBlock: OJICUG_clean_linker_0, # of connection points: 2
#     Edge 98, Type (0, 0), BuildingBlock: OJICUG_clean_linker_0, # of connection points: 2
#     Edge 99, Type (0, 0), BuildingBlock: OJICUG_clean_linker_0, # of connection points: 2
#     Edge 100, Type (0, 0), BuildingBlock: OJICUG_clean_linker_0, # of connection points: 2
#     Edge 101, Type (0, 0), BuildingBlock: OJICUG_clean_linker_0, # of connection points: 2
#     Edge 102, Type (0, 0), BuildingBlock: OJICUG_clean_linker_0, # of connection points: 2
#     Edge 103, Type (0, 0), BuildingBlock: OJICUG_clean_linker_0, # of connection points: 2
#     Edge 104, Type (0, 0), BuildingBlock: OJICUG_clean_linker_0, # of connection points: 2
#     Edge 105, Type (0, 0), BuildingBlock: OJICUG_clean_linker_0, # of connection points: 2
#     Edge 106, Type (0, 0), BuildingBlock: OJICUG_clean_linker_0, # of connection points: 2
#     Edge 107, Type (0, 0), BuildingBlock: OJICUG_clean_linker_0, # of connection points: 2
#     Edge 108, Type (0, 0), BuildingBlock: OJICUG_clean_linker_0, # of connection points: 2
#     Edge 109, Type (0, 0), BuildingBlock: OJICUG_clean_linker_0, # of connection points: 2
#     Edge 110, Type (0, 0), BuildingBlock: OJICUG_clean_linker_0, # of connection points: 2
#     Edge 111, Type (0, 0), BuildingBlock: OJICUG_clean_linker_0, # of connection points: 2
#     Edge 112, Type (0, 0), BuildingBlock: OJICUG_clean_linker_0, # of connection points: 2
#     Edge 113, Type (0, 0), BuildingBlock: OJICUG_clean_linker_0, # of connection points: 2
#     Edge 114, Type (0, 0), BuildingBlock: OJICUG_clean_linker_0, # of connection points: 2
#     Edge 115, Type (0, 0), BuildingBlock: OJICUG_clean_linker_0, # of connection points: 2
#     Edge 116, Type (0, 0), BuildingBlock: OJICUG_clean_linker_0, # of connection points: 2
#     Edge 117, Type (0, 0), BuildingBlock: OJICUG_clean_linker_0, # of connection points: 2
#     Edge 118, Type (0, 0), BuildingBlock: OJICUG_clean_linker_0, # of connection points: 2
#     Edge 119, Type (0, 0), BuildingBlock: OJICUG_clean_linker_0, # of connection points: 2
#     Edge 120, Type (0, 0), BuildingBlock: OJICUG_clean_linker_0, # of connection points: 2
#     Edge 121, Type (0, 0), BuildingBlock: OJICUG_clean_linker_0, # of connection points: 2
#     Edge 122, Type (0, 0), BuildingBlock: OJICUG_clean_linker_0, # of connection points: 2
#     Edge 123, Type (0, 0), BuildingBlock: OJICUG_clean_linker_0, # of connection points: 2
#     Edge 124, Type (0, 0), BuildingBlock: OJICUG_clean_linker_0, # of connection points: 2
#     Edge 125, Type (0, 0), BuildingBlock: OJICUG_clean_linker_0, # of connection points: 2
#     Edge 126, Type (0, 0), BuildingBlock: OJICUG_clean_linker_0, # of connection points: 2
#     Edge 127, Type (0, 0), BuildingBlock: OJICUG_clean_linker_0, # of connection points: 2
#     Edge 128, Type (0, 0), BuildingBlock: OJICUG_clean_linker_0, # of connection points: 2
#     Edge 129, Type (0, 0), BuildingBlock: OJICUG_clean_linker_0, # of connection points: 2
#     Edge 130, Type (0, 0), BuildingBlock: OJICUG_clean_linker_0, # of connection points: 2
#     Edge 131, Type (0, 0), BuildingBlock: OJICUG_clean_linker_0, # of connection points: 2
#     Edge 132, Type (0, 0), BuildingBlock: OJICUG_clean_linker_0, # of connection points: 2
#     Edge 133, Type (0, 0), BuildingBlock: OJICUG_clean_linker_0, # of connection points: 2
#     Edge 134, Type (0, 0), BuildingBlock: OJICUG_clean_linker_0, # of connection points: 2
#     Edge 135, Type (0, 0), BuildingBlock: OJICUG_clean_linker_0, # of connection points: 2
#     Edge 136, Type (0, 0), BuildingBlock: OJICUG_clean_linker_0, # of connection points: 2
#     Edge 137, Type (0, 0), BuildingBlock: OJICUG_clean_linker_0, # of connection points: 2
#     Edge 138, Type (0, 0), BuildingBlock: OJICUG_clean_linker_0, # of connection points: 2
#     Edge 139, Type (0, 0), BuildingBlock: OJICUG_clean_linker_0, # of connection points: 2
#     Edge 140, Type (0, 0), BuildingBlock: OJICUG_clean_linker_0, # of connection points: 2
#     Edge 141, Type (0, 0), BuildingBlock: OJICUG_clean_linker_0, # of connection points: 2
#     Edge 142, Type (0, 0), BuildingBlock: OJICUG_clean_linker_0, # of connection points: 2
#     Edge 143, Type (0, 0), BuildingBlock: OJICUG_clean_linker_0, # of connection points: 2
#     Edge 144, Type (0, 0), BuildingBlock: OJICUG_clean_linker_0, # of connection points: 2
#     Edge 145, Type (0, 0), BuildingBlock: OJICUG_clean_linker_0, # of connection points: 2
#     Edge 146, Type (0, 0), BuildingBlock: OJICUG_clean_linker_0, # of connection points: 2
#     Edge 147, Type (0, 0), BuildingBlock: OJICUG_clean_linker_0, # of connection points: 2
#     Edge 148, Type (0, 0), BuildingBlock: OJICUG_clean_linker_0, # of connection points: 2
#     Edge 149, Type (0, 0), BuildingBlock: OJICUG_clean_linker_0, # of connection points: 2
#     Edge 150, Type (0, 0), BuildingBlock: OJICUG_clean_linker_0, # of connection points: 2
#     Edge 151, Type (0, 0), BuildingBlock: OJICUG_clean_linker_0, # of connection points: 2
#     Edge 152, Type (0, 0), BuildingBlock: OJICUG_clean_linker_0, # of connection points: 2
#     Edge 153, Type (0, 0), BuildingBlock: OJICUG_clean_linker_0, # of connection points: 2
#     Edge 154, Type (0, 0), BuildingBlock: OJICUG_clean_linker_0, # of connection points: 2
#     Edge 155, Type (0, 0), BuildingBlock: OJICUG_clean_linker_0, # of connection points: 2
#     Edge 156, Type (0, 0), BuildingBlock: OJICUG_clean_linker_0, # of connection points: 2
#     Edge 157, Type (0, 0), BuildingBlock: OJICUG_clean_linker_0, # of connection points: 2
#     Edge 158, Type (0, 0), BuildingBlock: OJICUG_clean_linker_0, # of connection points: 2
#     Edge 159, Type (0, 0), BuildingBlock: OJICUG_clean_linker_0, # of connection points: 2
#     Edge 160, Type (0, 0), BuildingBlock: OJICUG_clean_linker_0, # of connection points: 2
#     Edge 161, Type (0, 0), BuildingBlock: OJICUG_clean_linker_0, # of connection points: 2
#     Edge 162, Type (0, 0), BuildingBlock: OJICUG_clean_linker_0, # of connection points: 2
#     Edge 163, Type (0, 0), BuildingBlock: OJICUG_clean_linker_0, # of connection points: 2
#     Edge 164, Type (0, 0), BuildingBlock: OJICUG_clean_linker_0, # of connection points: 2
#     Edge 165, Type (0, 0), BuildingBlock: OJICUG_clean_linker_0, # of connection points: 2
#     Edge 166, Type (0, 0), BuildingBlock: OJICUG_clean_linker_0, # of connection points: 2
#     Edge 167, Type (0, 0), BuildingBlock: OJICUG_clean_linker_0, # of connection points: 2
# Relax obj value: 0.299
# Max RMSD: 0.287
# Mean RMSD: 0.283
data_MOF--net-fcm--node1-XOMCOT_clean_sbu_0--edge1-OJICUG_clean_linker_0
_symmetry_space_group_name_H-M    P1
_symmetry_Int_Tables_number       1
_symmetry_cell_setting            triclinic
loop_
_symmetry_equiv_pos_as_xyz
'x, y, z'
_cell_length_a     50.752721
_cell_length_b     50.753721
_cell_length_c     50.743803
_cell_angle_alpha  90.009883
_cell_angle_beta   89.987122
_cell_angle_gamma 89.990915
loop_
_atom_site_label
_atom_site_type_symbol
_atom_site_fract_x
_atom_site_fract_y
_atom_site_fract_z
_atom_type_partial_charge
Co0 Co 0.98901 0.04609 0.37814 0.0
C1 C 0.02384 0.06536 0.41782 0.0
C2 C 0.98487 0.07922 0.42571 0.0
C3 C 0.99949 0.08084 0.44862 0.0
N4 N 1.0002 0.06929 0.40633 0.0
N5 N 0.02381 0.07145 0.44364 0.0
H6 H 0.03945 0.05415 0.40859 0.0
H7 H 0.96372 0.08144 0.42443 0.0
C8 C 0.96554 0.09904 0.36067 0.0
O9 O 0.97522 0.11172 0.38101 0.0
N10 N 0.97873 0.02167 0.35072 0.0
C11 C 0.97376 0.99558 0.3529 0.0
C12 C 0.96975 0.98531 0.32823 0.0
C13 C 0.97765 0.02682 0.32471 0.0
N14 N 0.97221 0.00497 0.31063 0.0
C15 C 0.03899 0.03216 0.35441 0.0
C16 C 0.05505 0.08335 0.34477 0.0
C17 C 0.07291 0.06284 0.33992 0.0
C18 C 0.06436 0.03685 0.34425 0.0
C19 C 0.03002 0.07785 0.35472 0.0
N20 N 0.02232 0.0526 0.35988 0.0
H21 H 0.033 0.01219 0.35876 0.0
H22 H 0.01743 0.09417 0.35955 0.0
H23 H 0.97384 0.98424 0.37088 0.0
H24 H 0.98207 0.04585 0.31614 0.0
O25 O 0.99883 0.0169 0.40086 0.0
O26 O 0.95918 0.03517 0.39906 0.0
O27 O 0.97051 0.07461 0.35717 0.0
C28 C 0.97467 0.01777 0.40968 0.0
H29 H 0.9918 0.08507 0.46807 0.0
H30 H 0.96581 0.96488 0.32352 0.0
H31 H 0.06063 0.1037 0.34153 0.0
H32 H 0.07754 0.02038 0.34096 0.0
Co33 Co 0.20314 0.7362 0.62697 0.0
C34 C 0.18927 0.77344 0.66763 0.0
C35 C 0.17409 0.73536 0.67731 0.0
C36 C 0.17335 0.75084 0.69961 0.0
N37 N 0.18381 0.74967 0.65705 0.0
N38 N 0.18344 0.77461 0.69351 0.0
H39 H 0.20049 0.78842 0.65745 0.0
H40 H 0.17062 0.71434 0.67673 0.0
C41 C 0.14719 0.71714 0.61616 0.0
O42 O 0.13834 0.72895 0.63736 0.0
N43 N 0.22376 0.72301 0.59761 0.0
C44 C 0.24423 0.70598 0.5984 0.0
C45 C 0.25378 0.70247 0.57339 0.0
C46 C 0.22089 0.72917 0.57193 0.0
N47 N 0.23919 0.71715 0.55681 0.0
C48 C 0.21843 0.78546 0.60259 0.0
C49 C 0.16777 0.8041 0.59518 0.0
C50 C 0.18891 0.82098 0.58972 0.0
C51 C 0.2146 0.81114 0.59287 0.0
C52 C 0.17242 0.77876 0.6047 0.0
N53 N 0.19744 0.76973 0.60872 0.0
H54 H 0.23825 0.77843 0.60601 0.0
H55 H 0.15565 0.76711 0.61011 0.0
H56 H 0.25199 0.69643 0.61573 0.0
H57 H 0.20604 0.74254 0.56451 0.0
O58 O 0.23507 0.74443 0.64616 0.0
O59 O 0.2138 0.70629 0.64796 0.0
O60 O 0.1713 0.71956 0.60929 0.0
C61 C 0.23321 0.72086 0.65622 0.0
H62 H 0.16881 0.74416 0.71935 0.0
H63 H 0.27001 0.68981 0.56781 0.0
H64 H 0.1476 0.8107 0.59283 0.0
H65 H 0.23154 0.82354 0.58904 0.0
Co66 Co 0.51565 0.95887 0.8765 0.0
C67 C 0.48043 0.9398 0.91617 0.0
C68 C 0.51939 0.92612 0.92444 0.0
C69 C 0.50444 0.92409 0.94712 0.0
N70 N 0.50425 0.93609 0.90495 0.0
N71 N 0.48011 0.93334 0.94189 0.0
H72 H 0.4648 0.95081 0.90676 0.0
H73 H 0.54056 0.92389 0.92336 0.0
C74 C 0.53831 0.90544 0.85966 0.0
O75 O 0.52849 0.89312 0.88015 0.0
N76 N 0.52614 0.98281 0.84873 0.0
C77 C 0.53129 0.0089 0.85056 0.0
C78 C 0.53532 0.01881 0.82574 0.0
C79 C 0.52714 0.97732 0.82277 0.0
N80 N 0.53268 0.99895 0.80839 0.0
C81 C 0.46573 0.97315 0.85321 0.0
C82 C 0.44922 0.92209 0.84366 0.0
C83 C 0.43143 0.94275 0.83928 0.0
C84 C 0.44019 0.96867 0.84349 0.0
C85 C 0.4744 0.92739 0.85325 0.0
N86 N 0.4823 0.95257 0.8584 0.0
H87 H 0.47192 0.99307 0.85753 0.0
H88 H 0.4869 0.91096 0.85788 0.0
H89 H 0.53131 0.02047 0.86839 0.0
H90 H 0.52258 0.95821 0.81445 0.0
O91 O 0.50611 0.98837 0.89885 0.0
O92 O 0.54561 0.9697 0.89724 0.0
O93 O 0.53374 0.9299 0.8559 0.0
C94 C 0.53028 0.9874 0.90763 0.0
H95 H 0.51185 0.91955 0.9666 0.0
H96 H 0.5394 0.03915 0.82077 0.0
H97 H 0.44346 0.90179 0.84045 0.0
H98 H 0.42705 0.98522 0.84051 0.0
Co99 Co 0.29583 0.2657 0.12534 0.0
C100 C 0.3148 0.23104 0.16541 0.0
C101 C 0.32871 0.27003 0.17309 0.0
C102 C 0.33032 0.25552 0.19608 0.0
N103 N 0.31881 0.25462 0.15377 0.0
N104 N 0.32091 0.23119 0.19123 0.0
H105 H 0.30363 0.21538 0.15624 0.0
H106 H 0.33101 0.29117 0.17169 0.0
C107 C 0.34893 0.28905 0.10827 0.0
O108 O 0.36144 0.27914 0.12859 0.0
N109 N 0.27158 0.27582 0.09767 0.0
C110 C 0.24545 0.28064 0.09973 0.0
C111 C 0.23525 0.28452 0.07502 0.0
C112 C 0.27682 0.27686 0.07166 0.0
N113 N 0.25497 0.28211 0.05748 0.0
C114 C 0.28192 0.21541 0.10241 0.0
C115 C 0.33307 0.19941 0.09244 0.0
C116 C 0.31259 0.18135 0.08824 0.0
C117 C 0.28661 0.18987 0.09271 0.0
C118 C 0.32757 0.22458 0.10204 0.0
N119 N 0.30234 0.23225 0.10738 0.0
H120 H 0.26197 0.2214 0.10689 0.0
H121 H 0.34388 0.23731 0.10645 0.0
H122 H 0.23404 0.28056 0.11767 0.0
H123 H 0.29592 0.27257 0.06317 0.0
O124 O 0.2665 0.25615 0.14799 0.0
O125 O 0.28491 0.29572 0.14594 0.0
O126 O 0.32454 0.28409 0.10449 0.0
C127 C 0.26743 0.28038 0.15662 0.0
H128 H 0.33462 0.26329 0.21548 0.0
H129 H 0.21482 0.28838 0.07025 0.0
H130 H 0.3534 0.1939 0.08903 0.0
H131 H 0.27017 0.17657 0.08991 0.0
Co132 Co 0.99025 0.9578 0.13 0.0
C133 C 0.02388 0.93925 0.08892 0.0
C134 C 0.98469 0.92543 0.08208 0.0
C135 C 0.99861 0.92402 0.05872 0.0
N136 N 1.00061 0.93517 0.10108 0.0
N137 N 0.02306 0.93336 0.06308 0.0
H138 H 0.03974 0.9504 0.09776 0.0
H139 H 0.96359 0.92314 0.08402 0.0
C140 C 0.96762 0.90434 0.14684 0.0
O141 O 0.97752 0.89199 0.12639 0.0
N142 N 0.98071 0.98165 0.1582 0.0
C143 C 0.97684 0.00794 0.15686 0.0
C144 C 0.97267 0.01746 0.1818 0.0
C145 C 0.97897 0.97565 0.18398 0.0
N146 N 0.97403 0.99716 0.19889 0.0
C147 C 0.04064 0.97167 0.15236 0.0
C148 C 0.0577 0.92055 0.16043 0.0
C149 C 0.07542 0.94124 0.16497 0.0
C150 C 0.06639 0.96717 0.16147 0.0
C151 C 0.03222 0.92588 0.15157 0.0
N152 N 0.02405 0.95112 0.14715 0.0
H153 H 0.03427 0.99164 0.14857 0.0
H154 H 0.01964 0.9095 0.14697 0.0
H155 H 0.97783 0.01988 0.13929 0.0
H156 H 0.98186 0.95599 0.19161 0.0
O157 O 0.9995 0.98741 0.10767 0.0
O158 O 0.95988 0.96908 0.11019 0.0
O159 O 0.9723 0.92877 0.15068 0.0
C160 C 0.97511 0.98669 0.09952 0.0
H161 H 0.99035 0.91997 0.03947 0.0
H162 H 0.96997 0.03797 0.18691 0.0
H163 H 0.06368 0.90023 0.1631 0.0
H164 H 0.07945 0.98375 0.16457 0.0
Co165 Co 0.2953 0.73844 0.37858 0.0
C166 C 0.31466 0.77319 0.33885 0.0
C167 C 0.32868 0.73423 0.33122 0.0
C168 C 0.33042 0.74874 0.30826 0.0
N169 N 0.3186 0.74962 0.35048 0.0
N170 N 0.32091 0.77305 0.31308 0.0
H171 H 0.30347 0.78886 0.34799 0.0
H172 H 0.33101 0.71309 0.33262 0.0
C173 C 0.3483 0.71568 0.39622 0.0
O174 O 0.36078 0.72565 0.3759 0.0
N175 N 0.27073 0.72816 0.40591 0.0
C176 C 0.24553 0.71997 0.40319 0.0
C177 C 0.23469 0.71661 0.4277 0.0
C178 C 0.27478 0.72964 0.4321 0.0
N179 N 0.25304 0.72278 0.44582 0.0
C180 C 0.28078 0.78875 0.40123 0.0
C181 C 0.33177 0.80508 0.41143 0.0
C182 C 0.31117 0.82303 0.41538 0.0
C183 C 0.28526 0.81437 0.41084 0.0
C184 C 0.32647 0.77983 0.40202 0.0
N185 N 0.30133 0.77199 0.39653 0.0
H186 H 0.26089 0.78263 0.39664 0.0
H187 H 0.34291 0.76719 0.39779 0.0
H188 H 0.23516 0.71696 0.38489 0.0
H189 H 0.29298 0.73644 0.44088 0.0
O190 O 0.26622 0.74771 0.35551 0.0
O191 O 0.285 0.70832 0.35782 0.0
O192 O 0.32383 0.72037 0.39991 0.0
C193 C 0.26763 0.72354 0.34676 0.0
H194 H 0.33489 0.74098 0.28889 0.0
H195 H 0.21482 0.71006 0.43183 0.0
H196 H 0.35206 0.81078 0.41487 0.0
H197 H 0.26875 0.82763 0.41348 0.0
Co198 Co 0.51562 0.04548 0.6277 0.0
C199 C 0.48084 0.06391 0.58743 0.0
C200 C 0.51968 0.07839 0.57999 0.0
C201 C 0.50521 0.08011 0.557 0.0
N202 N 0.50432 0.06809 0.59914 0.0
N203 N 0.48098 0.07036 0.5617 0.0
H204 H 0.46527 0.05251 0.59648 0.0
H205 H 0.54078 0.081 0.58153 0.0
C206 C 0.53775 0.09921 0.64445 0.0
O207 O 0.52698 0.11158 0.62448 0.0
N208 N 0.52605 0.02174 0.65566 0.0
C209 C 0.53096 0.99564 0.65424 0.0
C210 C 0.53492 0.98613 0.67924 0.0
C211 C 0.52702 0.02763 0.68151 0.0
N212 N 0.53239 0.00624 0.69644 0.0
C213 C 0.4657 0.03061 0.65017 0.0
C214 C 0.44892 0.08104 0.66229 0.0
C215 C 0.43154 0.05999 0.66662 0.0
C216 C 0.44035 0.03442 0.66059 0.0
C217 C 0.47391 0.0764 0.65167 0.0
N218 N 0.48204 0.05148 0.64559 0.0
H219 H 0.47204 0.0109 0.64514 0.0
H220 H 0.48616 0.09311 0.64735 0.0
H221 H 0.53075 0.9838 0.63658 0.0
H222 H 0.52316 0.04713 0.68912 0.0
O223 O 0.50643 0.01581 0.60541 0.0
O224 O 0.54579 0.0347 0.60716 0.0
O225 O 0.53362 0.07466 0.64815 0.0
C226 C 0.53063 0.01689 0.59673 0.0
H227 H 0.51296 0.08477 0.53767 0.0
H228 H 0.53828 0.9657 0.68426 0.0
H229 H 0.44289 0.10116 0.66605 0.0
H230 H 0.42771 0.01752 0.66368 0.0
Co231 Co 0.20704 0.26638 0.87677 0.0
C232 C 0.1887 0.2321 0.83609 0.0
C233 C 0.17458 0.27108 0.82876 0.0
C234 C 0.17316 0.25681 0.80561 0.0
N235 N 0.18449 0.25551 0.84795 0.0
N236 N 0.18268 0.23249 0.81026 0.0
H237 H 0.19997 0.21642 0.84513 0.0
H238 H 0.17213 0.29219 0.83041 0.0
C239 C 0.15343 0.28871 0.89362 0.0
O240 O 0.14115 0.27911 0.873 0.0
N241 N 0.23081 0.27639 0.90489 0.0
C242 C 0.25694 0.28117 0.90341 0.0
C243 C 0.26658 0.28497 0.92837 0.0
C244 C 0.22503 0.27729 0.93078 0.0
N245 N 0.24653 0.28249 0.94564 0.0
C246 C 0.22106 0.21641 0.90029 0.0
C247 C 0.16988 0.19965 0.90867 0.0
C248 C 0.19053 0.18216 0.91412 0.0
C249 C 0.2165 0.19102 0.91039 0.0
C250 C 0.17526 0.2247 0.8988 0.0
N251 N 0.20052 0.23276 0.89433 0.0
H252 H 0.24105 0.22269 0.89646 0.0
H253 H 0.15889 0.23703 0.89354 0.0
H254 H 0.26874 0.28098 0.88572 0.0
H255 H 0.20554 0.27352 0.93849 0.0
O256 O 0.23671 0.2572 0.85448 0.0
O257 O 0.21803 0.29667 0.85663 0.0
O258 O 0.1779 0.28416 0.89737 0.0
C259 C 0.23575 0.2815 0.84606 0.0
H260 H 0.16893 0.26476 0.78627 0.0
H261 H 0.28705 0.28816 0.93331 0.0
H262 H 0.14954 0.19378 0.91142 0.0
H263 H 0.23305 0.17809 0.91415 0.0
Co264 Co 0.37619 0.98775 0.04756 0.0
C265 C 0.41701 0.02416 0.06265 0.0
C266 C 0.42659 0.98554 0.07646 0.0
C267 C 0.44901 1.00082 0.07738 0.0
N268 N 0.40631 1.0003 0.06744 0.0
N269 N 0.44297 0.02493 0.06813 0.0
H270 H 0.40686 0.03953 0.05193 0.0
H271 H 0.4259 0.96441 0.07922 0.0
C272 C 0.36538 0.96774 0.10309 0.0
O273 O 0.38641 0.97986 0.11189 0.0
N274 N 0.34691 0.9759 0.0261 0.0
C275 C 0.34765 0.96769 1.0008 0.0
C276 C 0.32246 0.96355 0.99216 0.0
C277 C 0.32112 0.9766 0.03243 0.0
N278 N 0.30568 0.96917 0.01197 0.0
C279 C 0.3515 0.03708 0.03317 0.0
C280 C 0.34486 0.05529 0.08411 0.0
C281 C 0.33898 0.07234 0.06321 0.0
C282 C 0.34174 0.0627 0.03738 0.0
C283 C 0.35443 0.03003 0.07908 0.0
N284 N 0.35815 0.02125 0.05392 0.0
H285 H 0.35463 0.03024 0.01323 0.0
H286 H 0.36006 0.0182 0.09565 0.0
H287 H 0.36499 0.96564 0.98869 0.0
H288 H 0.31396 0.98306 0.05143 0.0
O289 O 0.39616 0.99645 0.01615 0.0
O290 O 0.39663 0.95768 0.03633 0.0
O291 O 0.35822 0.97043 0.07906 0.0
C292 C 0.4057 0.97259 0.01757 0.0
H293 H 0.46877 0.99383 0.08136 0.0
H294 H 0.31709 0.95798 0.9723 0.0
H295 H 0.34277 0.06168 0.10438 0.0
H296 H 0.33755 0.07521 0.02061 0.0
Co297 Co 0.26569 0.12611 0.2953 0.0
C298 C 0.23115 0.16634 0.31423 0.0
C299 C 0.27016 0.17377 0.32824 0.0
C300 C 0.25574 0.19678 0.33008 0.0
N301 N 0.25466 0.15461 0.31815 0.0
N302 N 0.23141 0.19208 0.32061 0.0
H303 H 0.21547 0.15733 0.30294 0.0
H304 H 0.29129 0.17223 0.33057 0.0
C305 C 0.28861 0.10914 0.34855 0.0
O306 O 0.2787 0.12951 0.36101 0.0
N307 N 0.27605 0.09826 0.27136 0.0
C308 C 0.28549 0.10036 0.24655 0.0
C309 C 0.28962 0.07559 0.2366 0.0
C310 C 0.27459 0.07217 0.27607 0.0
N311 N 0.28271 0.0579 0.25512 0.0
C312 C 0.21543 0.10287 0.28149 0.0
C313 C 0.19917 0.09392 0.33275 0.0
C314 C 0.18126 0.08921 0.31228 0.0
C315 C 0.18989 0.09316 0.28625 0.0
C316 C 0.22436 0.10341 0.32718 0.0
N317 N 0.23217 0.10823 0.30189 0.0
H318 H 0.22152 0.10694 0.26148 0.0
H319 H 0.23697 0.10817 0.34349 0.0
H320 H 0.28913 0.11841 0.23595 0.0
H321 H 0.26714 0.06388 0.29425 0.0
O322 O 0.25615 0.14848 0.26575 0.0
O323 O 0.29565 0.14682 0.28433 0.0
O324 O 0.28389 0.10539 0.32411 0.0
C325 C 0.28026 0.15739 0.2668 0.0
H326 H 0.26358 0.21611 0.33454 0.0
H327 H 0.29735 0.07103 0.21725 0.0
H328 H 0.19353 0.09096 0.35313 0.0
H329 H 0.17667 0.08994 0.26981 0.0
Co330 Co 0.12851 0.0148 0.54715 0.0
C331 C 0.0885 0.98018 0.56627 0.0
C332 C 0.08068 0.01922 0.57998 0.0
C333 C 0.05777 0.0046 0.58178 0.0
N334 N 0.10003 0.00382 0.57008 0.0
N335 N 0.06272 0.98023 0.57251 0.0
H336 H 0.09769 0.96448 0.55516 0.0
H337 H 0.08202 0.04037 0.58218 0.0
C338 C 0.14573 0.03795 0.60032 0.0
O339 O 0.12521 0.02848 0.61287 0.0
N340 N 0.15629 0.02479 0.523 0.0
C341 C 0.1546 0.02917 0.49681 0.0
C342 C 0.17945 0.03316 0.48697 0.0
C343 C 0.18218 0.02607 0.52861 0.0
N344 N 0.19685 0.03116 0.50696 0.0
C345 C 0.15116 0.96444 0.53309 0.0
C346 C 0.16105 0.9483 0.5842 0.0
C347 C 0.16513 0.93026 0.56368 0.0
C348 C 0.16072 0.93884 0.53771 0.0
C349 C 0.15159 0.97352 0.57876 0.0
N350 N 0.14628 0.98125 0.55355 0.0
H351 H 0.14671 0.97049 0.51315 0.0
H352 H 0.14724 0.98624 0.59512 0.0
H353 H 0.13684 0.02861 0.48514 0.0
H354 H 0.19005 0.02266 0.5481 0.0
O355 O 0.10586 0.0055 0.51775 0.0
O356 O 0.10815 0.045 0.53631 0.0
O357 O 0.1494 0.03289 0.57594 0.0
C358 C 0.09743 0.0298 0.51872 0.0
H359 H 0.03835 0.0123 0.58612 0.0
H360 H 0.18426 0.03616 0.46642 0.0
H361 H 0.16442 0.94271 0.60453 0.0
H362 H 0.16344 0.92555 0.52124 0.0
Co363 Co 0.23841 0.87971 0.79723 0.0
C364 C 0.27264 0.83865 0.81498 0.0
C365 C 0.23372 0.83161 0.82947 0.0
C366 C 0.24782 0.80836 0.83074 0.0
N367 N 0.24935 0.85068 0.81946 0.0
N368 N 0.2721 0.81281 0.82097 0.0
H369 H 0.28833 0.84767 0.80371 0.0
H370 H 0.21265 0.83343 0.83214 0.0
C371 C 0.21589 0.89597 0.85105 0.0
O372 O 0.22595 0.87555 0.86331 0.0
N373 N 0.22827 0.90802 0.77376 0.0
C374 C 0.22359 0.90678 0.7476 0.0
C375 C 0.21936 0.93176 0.73826 0.0
C376 C 0.22691 0.9338 0.77987 0.0
N377 N 0.22147 0.9488 0.75854 0.0
C378 C 0.28831 0.90319 0.78339 0.0
C379 C 0.30515 0.91132 0.83459 0.0
C380 C 0.3227 0.91659 0.81393 0.0
C381 C 0.31379 0.91303 0.78796 0.0
C382 C 0.28001 0.90166 0.8292 0.0
N383 N 0.27193 0.8973 0.80392 0.0
H384 H 0.282 0.89945 0.76339 0.0
H385 H 0.26763 0.89647 0.84556 0.0
H386 H 0.22411 0.88925 0.73557 0.0
H387 H 0.23048 0.94136 0.79946 0.0
O388 O 0.24782 0.85788 0.7673 0.0
O389 O 0.20829 0.85956 0.78595 0.0
O390 O 0.22037 0.89985 0.82658 0.0
C391 C 0.22357 0.84934 0.76811 0.0
H392 H 0.23977 0.7891 0.83512 0.0
H393 H 0.21616 0.93691 0.71783 0.0
H394 H 0.31104 0.91398 0.85493 0.0
H395 H 0.32674 0.91666 0.77139 0.0
Co396 Co 0.37632 0.01559 0.45726 0.0
C397 C 0.41625 0.98092 0.43797 0.0
C398 C 0.42388 0.01995 0.42416 0.0
C399 C 0.44682 0.00542 0.42228 0.0
N400 N 0.40463 0.00451 0.43417 0.0
N401 N 0.442 0.98106 0.43163 0.0
H402 H 0.40715 0.96524 0.44919 0.0
H403 H 0.42246 0.0411 0.42195 0.0
C404 C 0.35914 0.03853 0.40412 0.0
O405 O 0.37938 0.02848 0.39158 0.0
N406 N 0.34875 0.02584 0.48155 0.0
C407 C 0.35087 0.03097 0.50763 0.0
C408 C 0.32617 0.03489 0.51786 0.0
C409 C 0.32273 0.02675 0.47638 0.0
N410 N 0.3086 0.0322 0.49821 0.0
C411 C 0.3527 0.9657 0.47135 0.0
C412 C 0.34326 0.94926 0.42024 0.0
C413 C 0.33833 0.93159 0.44088 0.0
C414 C 0.34255 0.94031 0.46682 0.0
C415 C 0.35319 0.97432 0.42559 0.0
N416 N 0.35823 0.98221 0.45081 0.0
H417 H 0.35696 0.97184 0.49131 0.0
H418 H 0.35806 0.98678 0.4092 0.0
H419 H 0.36883 0.03108 0.51899 0.0
H420 H 0.31421 0.0222 0.45735 0.0
O421 O 0.39893 0.00588 0.48652 0.0
O422 O 0.39707 0.04551 0.46819 0.0
O423 O 0.3555 0.03392 0.4286 0.0
C424 C 0.40768 0.03006 0.48564 0.0
H425 H 0.4662 0.01319 0.41789 0.0
H426 H 0.32144 0.03893 0.53827 0.0
H427 H 0.34011 0.94352 0.39992 0.0
H428 H 0.3392 0.92726 0.48337 0.0
Co429 Co 0.23967 0.12712 0.70776 0.0
C430 C 0.27446 0.16662 0.68809 0.0
C431 C 0.23562 0.17378 0.67351 0.0
C432 C 0.24997 0.19683 0.67171 0.0
N433 N 0.25101 0.15479 0.68405 0.0
N434 N 0.27418 0.19233 0.68157 0.0
H435 H 0.28999 0.1578 0.69972 0.0
H436 H 0.21451 0.17219 0.67099 0.0
C437 C 0.21741 0.10848 0.65478 0.0
O438 O 0.22791 0.12822 0.64182 0.0
N439 N 0.22923 0.10021 0.73268 0.0
C440 C 0.22487 0.10282 0.75885 0.0
C441 C 0.22049 0.07838 0.76952 0.0
C442 C 0.22747 0.07417 0.7279 0.0
N443 N 0.22213 0.06049 0.75003 0.0
C444 C 0.28968 0.10527 0.72338 0.0
C445 C 0.30631 0.0914 0.67333 0.0
C446 C 0.32382 0.08797 0.69444 0.0
C447 C 0.31508 0.09488 0.71982 0.0
C448 C 0.28128 0.10203 0.6777 0.0
N449 N 0.27323 0.10899 0.70242 0.0
H450 H 0.28341 0.11101 0.74291 0.0
H451 H 0.26896 0.10569 0.66089 0.0
H452 H 0.22561 0.12094 0.76995 0.0
H453 H 0.23133 0.06525 0.70891 0.0
O454 O 0.24887 0.15057 0.73652 0.0
O455 O 0.2095 0.14804 0.71774 0.0
O456 O 0.22169 0.1055 0.67941 0.0
C457 C 0.22464 0.15911 0.73518 0.0
H458 H 0.24208 0.21611 0.66707 0.0
H459 H 0.21684 0.07402 0.79009 0.0
H460 H 0.31227 0.08696 0.65332 0.0
H461 H 0.32783 0.0925 0.73676 0.0
Co462 Co 0.12727 0.98996 0.95945 0.0
C463 C 0.08763 0.02415 0.93872 0.0
C464 C 0.07993 0.98475 0.92608 0.0
C465 C 0.05703 0.99928 0.92374 0.0
N466 N 0.09922 1.00041 0.93568 0.0
N467 N 0.06187 0.0239 0.93237 0.0
H468 H 0.09673 0.04015 0.94946 0.0
H469 H 0.08127 0.96354 0.9245 0.0
C470 C 0.14522 0.96628 0.90699 0.0
O471 O 0.12478 0.97583 0.89439 0.0
N472 N 0.15441 0.9806 0.98465 0.0
C473 C 0.15186 0.97826 0.0111 0.0
C474 C 0.17625 0.97439 0.02203 0.0
C475 C 0.18044 0.97812 0.97997 0.0
N476 N 0.19409 0.97431 0.00246 0.0
C477 C 0.14966 0.04053 0.97312 0.0
C478 C 0.16051 0.0558 0.92193 0.0
C479 C 0.16439 0.07409 0.94224 0.0
C480 C 0.15948 0.06598 0.96826 0.0
C481 C 0.15084 0.03073 0.9276 0.0
N482 N 0.14507 0.02343 0.95284 0.0
H483 H 0.14482 0.03485 0.99308 0.0
H484 H 0.1467 0.01781 0.91137 0.0
H485 H 0.13381 0.98011 0.02219 0.0
H486 H 0.18938 0.98035 0.96073 0.0
O487 O 0.1038 0.9997 0.98804 0.0
O488 O 0.10687 0.95986 0.97032 0.0
O489 O 0.14888 0.97143 0.93137 0.0
C490 C 0.09563 0.9753 0.98736 0.0
H491 H 0.03765 0.99141 0.91955 0.0
H492 H 0.18061 0.97218 0.0428 0.0
H493 H 0.16423 0.06107 0.90157 0.0
H494 H 0.16203 0.07953 0.98455 0.0
Co495 Co 0.26781 0.87727 0.20704 0.0
C496 C 0.23209 0.83672 0.19155 0.0
C497 C 0.26881 0.83121 0.17147 0.0
C498 C 0.25431 0.80814 0.16978 0.0
N499 N 0.2548 0.84892 0.18544 0.0
N500 N 0.23149 0.81165 0.18298 0.0
H501 H 0.21781 0.84493 0.2051 0.0
H502 H 0.28925 0.83362 0.16593 0.0
C503 C 0.31013 0.90045 0.17716 0.0
O504 O 0.32377 0.89266 0.19772 0.0
N505 N 0.28012 0.9056 0.22953 0.0
C506 C 0.29384 0.90405 0.2523 0.0
C507 C 0.29779 0.92905 0.26186 0.0
C508 C 0.27616 0.93153 0.22553 0.0
N509 N 0.2866 0.94626 0.24505 0.0
C510 C 0.21843 0.90191 0.22074 0.0
C511 C 0.20246 0.91076 0.16934 0.0
C512 C 0.18455 0.91574 0.18981 0.0
C513 C 0.19307 0.91186 0.21588 0.0
C514 C 0.22756 0.90102 0.17502 0.0
N515 N 0.23511 0.89626 0.2004 0.0
H516 H 0.2244 0.89782 0.24078 0.0
H517 H 0.24043 0.896 0.15883 0.0
H518 H 0.30076 0.88623 0.26157 0.0
H519 H 0.26543 0.93936 0.20887 0.0
O520 O 0.25794 0.85686 0.23804 0.0
O521 O 0.29659 0.85494 0.21802 0.0
O522 O 0.28555 0.89502 0.17607 0.0
C523 C 0.28132 0.8463 0.23658 0.0
H524 H 0.26131 0.78945 0.16225 0.0
H525 H 0.30836 0.93412 0.27968 0.0
H526 H 0.19687 0.91368 0.14895 0.0
H527 H 0.17985 0.91526 0.23229 0.0
Co528 Co 0.04497 0.37529 0.98906 0.0
C529 C 0.06541 0.41492 0.02335 0.0
C530 C 0.07853 0.42245 0.98406 0.0
C531 C 0.08065 0.44543 0.9985 0.0
N532 N 0.06876 0.40323 0.9997 0.0
N533 N 0.07171 0.44068 0.02303 0.0
H534 H 0.05438 0.40593 0.03922 0.0
H535 H 0.08034 0.42103 0.96287 0.0
C536 C 0.09754 0.35732 0.96583 0.0
O537 O 0.11014 0.37754 0.97584 0.0
N538 N 0.01974 0.34827 0.97947 0.0
C539 C 0.99335 0.35097 0.97677 0.0
C540 C 0.98232 0.32664 0.9728 0.0
C541 C 0.0243 0.32221 0.97711 0.0
N542 N 1.00179 0.30869 0.97303 0.0
C543 C 0.03077 0.3529 0.0395 0.0
C544 C 0.08179 0.34202 0.05531 0.0
C545 C 0.06129 0.3382 0.07339 0.0
C546 C 0.03536 0.34311 0.06501 0.0
C547 C 0.07638 0.35164 0.03016 0.0
N548 N 0.05123 0.35744 0.02259 0.0
H549 H 0.01089 0.35777 0.03361 0.0
H550 H 0.09274 0.35571 0.01738 0.0
H551 H 0.98235 0.36909 0.97843 0.0
H552 H 0.04346 0.31317 0.9796 0.0
O553 O 0.01641 0.39885 0.99863 0.0
O554 O 0.03444 0.39574 0.9589 0.0
O555 O 0.0731 0.35366 0.9707 0.0
C556 C 0.01737 0.40706 0.97424 0.0
H557 H 0.08484 0.46479 0.99059 0.0
H558 H 0.96157 0.3224 0.97034 0.0
H559 H 0.10208 0.33831 0.06081 0.0
H560 H 0.01894 0.34059 0.0784 0.0
Co561 Co 0.54618 0.13067 0.0136 0.0
C562 C 0.56488 0.0899 0.97949 0.0
C563 C 0.57863 0.08274 0.01864 0.0
C564 C 0.58032 0.05957 0.00446 0.0
N565 N 0.56881 0.10184 0.00291 0.0
N566 N 0.57102 0.0641 0.98002 0.0
H567 H 0.55378 0.09888 0.96366 0.0
H568 H 0.58088 0.08446 0.03977 0.0
C569 C 0.59958 0.14703 0.03661 0.0
O570 O 0.61192 0.12678 0.02631 0.0
N571 N 0.52231 0.15876 0.02344 0.0
C572 C 0.49603 0.15733 0.02735 0.0
C573 C 0.48643 0.18221 0.03163 0.0
C574 C 0.52822 0.18456 0.02529 0.0
N575 N 0.50666 0.19938 0.03031 0.0
C576 C 0.53256 0.15376 0.96347 0.0
C577 C 0.58377 0.16263 0.94707 0.0
C578 C 0.56321 0.16744 0.92927 0.0
C579 C 0.53722 0.16351 0.93797 0.0
C580 C 0.57829 0.15306 0.97224 0.0
N581 N 0.55301 0.14829 0.98009 0.0
H582 H 0.51256 0.14972 0.9696 0.0
H583 H 0.5946 0.14826 0.98482 0.0
H584 H 0.48413 0.13974 0.02627 0.0
H585 H 0.54786 0.19226 0.02239 0.0
O586 O 0.51658 0.10851 0.00393 0.0
O587 O 0.53481 0.11048 0.04364 0.0
O588 O 0.57517 0.15102 0.03197 0.0
C589 C 0.51724 0.10005 0.02822 0.0
H590 H 0.58459 0.04028 0.01251 0.0
H591 H 0.4659 0.18722 0.03435 0.0
H592 H 0.60412 0.16561 0.94136 0.0
H593 H 0.52073 0.16678 0.92483 0.0
Co594 Co 0.12664 0.29601 0.26559 0.0
C595 C 0.16636 0.31503 0.23055 0.0
C596 C 0.17424 0.32914 0.26943 0.0
C597 C 0.19711 0.33084 0.25474 0.0
N598 N 0.15488 0.31906 0.2542 0.0
N599 N 0.19213 0.3213 0.23048 0.0
H600 H 0.15714 0.30374 0.215 0.0
H601 H 0.17298 0.3315 0.29058 0.0
C602 C 0.10939 0.34909 0.28866 0.0
O603 O 0.12976 0.36166 0.2789 0.0
N604 N 0.09916 0.27175 0.27609 0.0
C605 C 0.10133 0.24571 0.28137 0.0
C606 C 0.07665 0.2355 0.28547 0.0
C607 C 0.07314 0.27692 0.27708 0.0
N608 N 0.05905 0.25513 0.28275 0.0
C609 C 0.10282 0.28175 0.21583 0.0
C610 C 0.09337 0.33286 0.1994 0.0
C611 C 0.08845 0.31221 0.18174 0.0
C612 C 0.09265 0.28627 0.19045 0.0
C613 C 0.10332 0.32752 0.22443 0.0
N614 N 0.10839 0.30231 0.2323 0.0
H615 H 0.10711 0.26181 0.22198 0.0
H616 H 0.10825 0.34392 0.23687 0.0
H617 H 0.1193 0.23437 0.28146 0.0
H618 H 0.06459 0.2959 0.27245 0.0
O619 O 0.14924 0.26676 0.25591 0.0
O620 O 0.14749 0.28534 0.29547 0.0
O621 O 0.10578 0.32467 0.28385 0.0
C622 C 0.15807 0.26782 0.28006 0.0
H623 H 0.21654 0.33526 0.26236 0.0
H624 H 0.07194 0.21512 0.28966 0.0
H625 H 0.09023 0.35317 0.19363 0.0
H626 H 0.08929 0.26973 0.1774 0.0
Co627 Co 0.95857 0.87532 0.51734 0.0
C628 C 0.94043 0.91607 0.48296 0.0
C629 C 0.92624 0.92345 0.52192 0.0
C630 C 0.92477 0.94656 0.50759 0.0
N631 N 0.93618 0.90424 0.50639 0.0
N632 N 0.93434 0.94188 0.48328 0.0
H633 H 0.95164 0.90696 0.46727 0.0
H634 H 0.92373 0.92184 0.54303 0.0
C635 C 0.90499 0.8589 0.54018 0.0
O636 O 0.8927 0.87934 0.53021 0.0
N637 N 0.98218 0.84708 0.52737 0.0
C638 C 0.00823 0.84846 0.5325 0.0
C639 C 0.01777 0.82345 0.53611 0.0
C640 C 0.97634 0.8212 0.52788 0.0
N641 N 0.99774 0.80621 0.53317 0.0
C642 C 0.97235 0.852 0.46724 0.0
C643 C 0.92114 0.84359 0.45059 0.0
C644 C 0.94174 0.8385 0.4329 0.0
C645 C 0.96772 0.84221 0.44173 0.0
C646 C 0.92659 0.85317 0.47578 0.0
N647 N 0.95187 0.8577 0.48377 0.0
H648 H 0.99235 0.85585 0.47347 0.0
H649 H 0.91026 0.85818 0.48828 0.0
H650 H 0.02005 0.86612 0.5327 0.0
H651 H 0.95688 0.81364 0.52373 0.0
O652 O 0.98836 0.89739 0.50796 0.0
O653 O 0.96981 0.89557 0.5475 0.0
O654 O 0.9294 0.85496 0.53549 0.0
C655 C 0.9875 0.90599 0.53221 0.0
H656 H 0.9204 0.9659 0.51548 0.0
H657 H 0.0382 0.81852 0.53956 0.0
H658 H 0.90079 0.84081 0.44479 0.0
H659 H 0.98425 0.83871 0.42869 0.0
Co660 Co 0.87868 0.20712 0.26536 0.0
C661 C 0.83835 0.18819 0.23102 0.0
C662 C 0.83069 0.17467 0.27016 0.0
C663 C 0.80767 0.17303 0.25571 0.0
N664 N 0.85 0.18435 0.2546 0.0
N665 N 0.81252 0.18218 0.23128 0.0
H666 H 0.84753 0.19918 0.21524 0.0
H667 H 0.83215 0.17253 0.29132 0.0
C668 C 0.89549 0.15388 0.28871 0.0
O669 O 0.87508 0.1414 0.27892 0.0
N670 N 0.90666 0.23111 0.27516 0.0
C671 C 0.90516 0.25737 0.27919 0.0
C672 C 0.93006 0.26703 0.28324 0.0
C673 C 0.93249 0.22528 0.27671 0.0
N674 N 0.94729 0.24687 0.28165 0.0
C675 C 0.90145 0.22075 0.21495 0.0
C676 C 0.91084 0.16954 0.19882 0.0
C677 C 0.9152 0.19001 0.18078 0.0
C678 C 0.91101 0.21601 0.18936 0.0
C679 C 0.90141 0.17509 0.22406 0.0
N680 N 0.89636 0.20036 0.23179 0.0
H681 H 0.89719 0.24074 0.22097 0.0
H682 H 0.89692 0.15881 0.23682 0.0
H683 H 0.88752 0.2692 0.27833 0.0
H684 H 0.94022 0.20569 0.27363 0.0
O685 O 0.85627 0.23666 0.25585 0.0
O686 O 0.85842 0.21841 0.29549 0.0
O687 O 0.89931 0.17826 0.28371 0.0
C688 C 0.84786 0.23599 0.28017 0.0
H689 H 0.78826 0.1689 0.26356 0.0
H690 H 0.93503 0.28757 0.28598 0.0
H691 H 0.91404 0.14918 0.19326 0.0
H692 H 0.91393 0.23245 0.17608 0.0
Co693 Co 0.45785 0.6277 0.48865 0.0
C694 C 0.43911 0.58686 0.52248 0.0
C695 C 0.42557 0.57968 0.48326 0.0
C696 C 0.42405 0.55646 0.49738 0.0
N697 N 0.43519 0.59882 0.49908 0.0
N698 N 0.43321 0.56102 0.52186 0.0
H699 H 0.45011 0.59587 0.53837 0.0
H700 H 0.42342 0.58143 0.46212 0.0
C701 C 0.40444 0.64446 0.46576 0.0
O702 O 0.39216 0.62385 0.47535 0.0
N703 N 0.48174 0.65587 0.4791 0.0
C704 C 0.50804 0.65446 0.47528 0.0
C705 C 0.51765 0.67937 0.4712 0.0
C706 C 0.47584 0.68169 0.4774 0.0
N707 N 0.49742 0.69655 0.47255 0.0
C708 C 0.47123 0.65075 0.53906 0.0
C709 C 0.41986 0.65919 0.55525 0.0
C710 C 0.44028 0.66428 0.57313 0.0
C711 C 0.46635 0.66053 0.56454 0.0
C712 C 0.42555 0.64961 0.53012 0.0
N713 N 0.4509 0.64509 0.52233 0.0
H714 H 0.49129 0.64689 0.53302 0.0
H715 H 0.40932 0.64462 0.5175 0.0
H716 H 0.51992 0.63685 0.47627 0.0
H717 H 0.45619 0.68937 0.48027 0.0
O718 O 0.48744 0.60533 0.49804 0.0
O719 O 0.46926 0.60772 0.45837 0.0
O720 O 0.42885 0.64834 0.47055 0.0
C721 C 0.48679 0.59704 0.47367 0.0
H722 H 0.42001 0.53715 0.48926 0.0
H723 H 0.53819 0.68438 0.46856 0.0
H724 H 0.39946 0.66198 0.56086 0.0
H725 H 0.48275 0.66401 0.57775 0.0
Co726 Co 0.12778 0.70647 0.23789 0.0
C727 C 0.16776 0.68748 0.27252 0.0
C728 C 0.17554 0.67362 0.23352 0.0
C729 C 0.19854 0.67218 0.24803 0.0
N730 N 0.15617 0.68344 0.24894 0.0
N731 N 0.1936 0.68156 0.27236 0.0
H732 H 0.15856 0.69867 0.28816 0.0
H733 H 0.17415 0.67134 0.21237 0.0
C734 C 0.11043 0.65337 0.21497 0.0
O735 O 0.13083 0.64083 0.2247 0.0
N736 N 0.10014 0.73072 0.22773 0.0
C737 C 0.1022 0.75677 0.22255 0.0
C738 C 0.07745 0.76696 0.21875 0.0
C739 C 0.07413 0.7255 0.22699 0.0
N740 N 0.05993 0.74728 0.22157 0.0
C741 C 0.1047 0.72082 0.2879 0.0
C742 C 0.09594 0.6698 0.30496 0.0
C743 C 0.09138 0.69057 0.32259 0.0
C744 C 0.09521 0.71645 0.31355 0.0
C745 C 0.10514 0.675 0.27957 0.0
N746 N 0.10994 0.70018 0.27142 0.0
H747 H 0.10879 0.74074 0.28153 0.0
H748 H 0.10978 0.65854 0.26707 0.0
H749 H 0.12015 0.76815 0.22231 0.0
H750 H 0.06567 0.70647 0.23162 0.0
O751 O 0.15046 0.7357 0.24737 0.0
O752 O 0.14834 0.7173 0.20777 0.0
O753 O 0.10681 0.6778 0.2198 0.0
C754 C 0.15907 0.73475 0.22314 0.0
H755 H 0.21798 0.66808 0.24024 0.0
H756 H 0.07266 0.78734 0.21469 0.0
H757 H 0.09306 0.64952 0.31097 0.0
H758 H 0.09208 0.73308 0.32655 0.0
Co759 Co 0.37708 0.29716 0.73872 0.0
C760 C 0.33703 0.31666 0.77304 0.0
C761 C 0.32949 0.33015 0.73388 0.0
C762 C 0.30646 0.33196 0.7483 0.0
N763 N 0.34873 0.32036 0.74946 0.0
N764 N 0.31124 0.32281 0.77274 0.0
H765 H 0.34609 0.30557 0.78882 0.0
H766 H 0.33097 0.3322 0.71271 0.0
C767 C 0.39459 0.35009 0.71556 0.0
O768 O 0.37412 0.36267 0.72509 0.0
N769 N 0.40465 0.27269 0.72889 0.0
C770 C 0.40258 0.24641 0.72495 0.0
C771 C 0.42723 0.23617 0.72076 0.0
C772 C 0.4306 0.27797 0.72707 0.0
N773 N 0.44472 0.25602 0.72211 0.0
C774 C 0.40004 0.2832 0.78901 0.0
C775 C 0.40956 0.33438 0.80519 0.0
C776 C 0.41414 0.31385 0.82308 0.0
C777 C 0.40989 0.28786 0.8145 0.0
C778 C 0.39993 0.32889 0.78004 0.0
N779 N 0.39483 0.30364 0.77228 0.0
H780 H 0.39574 0.26323 0.78296 0.0
H781 H 0.39529 0.34522 0.7674 0.0
H782 H 0.3847 0.23495 0.72583 0.0
H783 H 0.43914 0.2972 0.73057 0.0
O784 O 0.35418 0.26801 0.74814 0.0
O785 O 0.35676 0.28629 0.70852 0.0
O786 O 0.39823 0.3257 0.72057 0.0
C787 C 0.34589 0.26885 0.72378 0.0
H788 H 0.28708 0.33613 0.74041 0.0
H789 H 0.43199 0.21564 0.7174 0.0
H790 H 0.41275 0.35472 0.81082 0.0
H791 H 0.41299 0.27141 0.82772 0.0
Co792 Co 0.48729 0.54804 0.87483 0.0
C793 C 0.52414 0.5611 0.91539 0.0
C794 C 0.4891 0.58387 0.92116 0.0
C795 C 0.5042 0.58509 0.94384 0.0
N796 N 0.50168 0.56857 0.90344 0.0
N797 N 0.52593 0.57022 0.9402 0.0
H798 H 0.53742 0.54663 0.90709 0.0
H799 H 0.46921 0.59109 0.91916 0.0
C800 C 0.44987 0.59071 0.86182 0.0
O801 O 0.4363 0.5837 0.88266 0.0
N802 N 0.47337 0.52676 0.84641 0.0
C803 C 0.45714 0.50571 0.84788 0.0
C804 C 0.45266 0.49632 0.82291 0.0
C805 C 0.47815 0.53007 0.82052 0.0
N806 N 0.46595 0.51162 0.80579 0.0
C807 C 0.53644 0.53233 0.85011 0.0
C808 C 0.55414 0.58323 0.8417 0.0
C809 C 0.57145 0.56229 0.83668 0.0
C810 C 0.56206 0.53647 0.8403 0.0
C811 C 0.5289 0.5783 0.85138 0.0
N812 N 0.5204 0.55317 0.8559 0.0
H813 H 0.52977 0.51247 0.85402 0.0
H814 H 0.51674 0.59494 0.85665 0.0
H815 H 0.44883 0.49746 0.86562 0.0
H816 H 0.4907 0.54542 0.81267 0.0
O817 O 0.49547 0.51648 0.89493 0.0
O818 O 0.45779 0.53831 0.89697 0.0
O819 O 0.4718 0.57964 0.85657 0.0
C820 C 0.4722 0.51896 0.90551 0.0
H821 H 0.49825 0.59374 0.96242 0.0
H822 H 0.44034 0.4797 0.81776 0.0
H823 H 0.56035 0.60347 0.83898 0.0
H824 H 0.57478 0.51969 0.83684 0.0
Co825 Co 0.70909 0.23785 0.12599 0.0
C826 C 0.69072 0.27265 0.16634 0.0
C827 C 0.67621 0.23383 0.17381 0.0
C828 C 0.67456 0.24831 0.19681 0.0
N829 N 0.68647 0.24917 0.15462 0.0
N830 N 0.68433 0.27252 0.19209 0.0
H831 H 0.70215 0.28819 0.15728 0.0
H832 H 0.67361 0.21273 0.1723 0.0
C833 C 0.65562 0.21539 0.10901 0.0
O834 O 0.64326 0.22506 0.12956 0.0
N835 N 0.73278 0.22725 0.09801 0.0
C836 C 0.75732 0.2171 0.09995 0.0
C837 C 0.76721 0.21324 0.07509 0.0
C838 C 0.72815 0.22936 0.07196 0.0
N839 N 0.74889 0.22102 0.05753 0.0
C840 C 0.72335 0.28797 0.10283 0.0
C841 C 0.67221 0.30467 0.09397 0.0
C842 C 0.69284 0.3224 0.0893 0.0
C843 C 0.7188 0.31356 0.09319 0.0
C844 C 0.67757 0.27944 0.10341 0.0
N845 N 0.7028 0.27142 0.10818 0.0
H846 H 0.7433 0.2817 0.10687 0.0
H847 H 0.66117 0.26696 0.10821 0.0
H848 H 0.76777 0.2128 0.11794 0.0
H849 H 0.71019 0.23746 0.0638 0.0
O850 O 0.73878 0.24709 0.14822 0.0
O851 O 0.71978 0.20777 0.14665 0.0
O852 O 0.68006 0.22003 0.10529 0.0
C853 C 0.73749 0.223 0.15716 0.0
H854 H 0.66996 0.24057 0.21615 0.0
H855 H 0.78636 0.20514 0.07036 0.0
H856 H 0.65189 0.31049 0.09105 0.0
H857 H 0.73534 0.32665 0.08998 0.0
Co858 Co 0.01591 0.4577 0.37605 0.0
C859 C 0.98116 0.43882 0.41602 0.0
C860 C 0.02005 0.42455 0.42359 0.0
C861 C 0.00554 0.42289 0.44657 0.0
N862 N 0.00469 0.43476 0.40438 0.0
N863 N 0.98128 0.43251 0.44177 0.0
H864 H 0.96559 0.45023 0.40699 0.0
H865 H 0.04117 0.42206 0.42212 0.0
C866 C 0.03775 0.4042 0.35856 0.0
O867 O 0.02739 0.39168 0.37867 0.0
N868 N 0.02619 0.48177 0.34832 0.0
C869 C 0.03098 0.50787 0.34997 0.0
C870 C 0.03473 0.51765 0.32503 0.0
C871 C 0.02699 0.47614 0.32242 0.0
N872 N 0.03216 0.49769 0.30765 0.0
C873 C 0.96581 0.47317 0.35436 0.0
C874 C 0.94883 0.42301 0.34143 0.0
C875 C 0.93147 0.44418 0.33766 0.0
C876 C 0.94037 0.46961 0.34411 0.0
C877 C 0.97392 0.42739 0.35191 0.0
N878 N 0.98215 0.45217 0.35839 0.0
H879 H 0.97225 0.49276 0.35971 0.0
H880 H 0.98617 0.41057 0.35582 0.0
H881 H 0.03083 0.51952 0.36777 0.0
H882 H 0.02314 0.4567 0.31465 0.0
O883 O 0.00716 0.48706 0.39891 0.0
O884 O 0.04639 0.46797 0.39636 0.0
O885 O 0.03346 0.42874 0.35505 0.0
C886 C 0.03146 0.4857 0.40726 0.0
H887 H 0.01327 0.41843 0.46595 0.0
H888 H 0.03798 0.53814 0.32018 0.0
H889 H 0.94273 0.40298 0.33734 0.0
H890 H 0.92774 0.4866 0.34145 0.0
Co891 Co 0.79561 0.7656 0.62773 0.0
C892 C 0.81434 0.73061 0.66771 0.0
C893 C 0.82795 0.76959 0.67592 0.0
C894 C 0.82952 0.75483 0.69875 0.0
N895 N 0.81827 0.75434 0.65636 0.0
N896 N 0.82029 0.73048 0.69357 0.0
H897 H 0.80346 0.71494 0.65821 0.0
H898 H 0.83016 0.79076 0.67476 0.0
C899 C 0.84887 0.78899 0.61123 0.0
O900 O 0.86115 0.77937 0.63184 0.0
N901 N 0.7717 0.77591 0.59984 0.0
C902 C 0.74561 0.78103 0.60162 0.0
C903 C 0.73568 0.7849 0.57679 0.0
C904 C 0.7772 0.77677 0.57387 0.0
N905 N 0.75555 0.78219 0.55945 0.0
C906 C 0.782 0.71564 0.60388 0.0
C907 C 0.83333 0.69961 0.59489 0.0
C908 C 0.81289 0.68177 0.58976 0.0
C909 C 0.78683 0.69028 0.59376 0.0
C910 C 0.82768 0.72461 0.60481 0.0
N911 N 0.80236 0.73229 0.60963 0.0
H912 H 0.76196 0.72163 0.60796 0.0
H913 H 0.84393 0.73719 0.60988 0.0
H914 H 0.73402 0.78115 0.61944 0.0
H915 H 0.79633 0.77222 0.56559 0.0
O916 O 0.76602 0.75591 0.64996 0.0
O917 O 0.78445 0.79549 0.64839 0.0
O918 O 0.82453 0.78399 0.60724 0.0
C919 C 0.76682 0.78009 0.65875 0.0
H920 H 0.83371 0.7624 0.71825 0.0
H921 H 0.71534 0.78893 0.5718 0.0
H922 H 0.85372 0.69405 0.5919 0.0
H923 H 0.77042 0.67711 0.59024 0.0
Co924 Co 0.48864 0.45786 0.62731 0.0
C925 C 0.52394 0.4387 0.58787 0.0
C926 C 0.48521 0.42417 0.58008 0.0
C927 C 0.49994 0.42231 0.55726 0.0
N928 N 0.50032 0.43462 0.59934 0.0
N929 N 0.52411 0.43212 0.56217 0.0
H930 H 0.53938 0.45021 0.597 0.0
H931 H 0.46408 0.42164 0.58133 0.0
C932 C 0.46581 0.40479 0.64492 0.0
O933 O 0.47596 0.39207 0.62483 0.0
N934 N 0.47774 0.48225 0.65457 0.0
C935 C 0.46898 0.50726 0.65188 0.0
C936 C 0.46467 0.51775 0.6764 0.0
C937 C 0.47861 0.47796 0.68075 0.0
N938 N 0.4708 0.49936 0.6945 0.0
C939 C 0.53843 0.47257 0.65083 0.0
C940 C 0.555 0.42164 0.66095 0.0
C941 C 0.57273 0.44235 0.66527 0.0
C942 C 0.56394 0.46822 0.66078 0.0
C943 C 0.52985 0.42681 0.65119 0.0
N944 N 0.52192 0.45193 0.64575 0.0
H945 H 0.53223 0.49244 0.64627 0.0
H946 H 0.5174 0.41032 0.64665 0.0
H947 H 0.4661 0.5177 0.6336 0.0
H948 H 0.48558 0.45982 0.68952 0.0
O949 O 0.49822 0.48703 0.60454 0.0
O950 O 0.45884 0.46815 0.60607 0.0
O951 O 0.4704 0.42929 0.64833 0.0
C952 C 0.47421 0.48563 0.5954 0.0
H953 H 0.4924 0.41759 0.53787 0.0
H954 H 0.45749 0.5374 0.68054 0.0
H955 H 0.56081 0.40138 0.66433 0.0
H956 H 0.57703 0.48481 0.6637 0.0
Co957 Co 0.79698 0.2384 0.87688 0.0
C958 C 0.81259 0.27391 0.83621 0.0
C959 C 0.83237 0.23703 0.83073 0.0
C960 C 0.83382 0.25133 0.80752 0.0
N961 N 0.8187 0.25125 0.84853 0.0
N962 N 0.82079 0.27425 0.81101 0.0
H963 H 0.7992 0.2883 0.84448 0.0
H964 H 0.83775 0.21655 0.8332 0.0
C965 C 0.82642 0.19572 0.90011 0.0
O966 O 0.80569 0.18237 0.89229 0.0
N967 N 0.77432 0.22628 0.90516 0.0
C968 C 0.75133 0.21296 0.90349 0.0
C969 C 0.74176 0.20883 0.92845 0.0
C970 C 0.77843 0.22985 0.93114 0.0
N971 N 0.75878 0.21952 0.94578 0.0
C972 C 0.78372 0.28793 0.90166 0.0
C973 C 0.83525 0.30347 0.91042 0.0
C974 C 0.81495 0.32156 0.91553 0.0
C975 C 0.78881 0.31324 0.91168 0.0
C976 C 0.82933 0.27842 0.90064 0.0
N977 N 0.80389 0.27107 0.89592 0.0
H978 H 0.76362 0.28213 0.8976 0.0
H979 H 0.8454 0.26543 0.89555 0.0
H980 H 0.74191 0.20639 0.8856 0.0
H981 H 0.79529 0.24019 0.93908 0.0
O982 O 0.76606 0.24848 0.85633 0.0
O983 O 0.78579 0.20971 0.85448 0.0
O984 O 0.82781 0.22032 0.8947 0.0
C985 C 0.7674 0.2251 0.84572 0.0
H986 H 0.84101 0.2441 0.78878 0.0
H987 H 0.72381 0.19844 0.93342 0.0
H988 H 0.85569 0.30888 0.91329 0.0
H989 H 0.77252 0.32657 0.91516 0.0
Co990 Co 0.01635 0.54523 0.12733 0.0
C991 C 0.98171 0.56391 0.08706 0.0
C992 C 0.02068 0.5779 0.07941 0.0
C993 C 0.00616 0.57959 0.05643 0.0
N994 N 0.00527 0.56793 0.09869 0.0
N995 N 0.98184 0.57014 0.06127 0.0
H996 H 0.96605 0.55274 0.09623 0.0
H997 H 0.04182 0.58026 0.08084 0.0
C998 C 0.03948 0.59848 0.14417 0.0
O999 O 0.02975 0.61096 0.12373 0.0
N1000 N 0.02653 0.52135 0.15527 0.0
C1001 C 0.03187 0.4953 0.15353 0.0
C1002 C 0.03567 0.48544 0.17841 0.0
C1003 C 0.0272 0.52689 0.18123 0.0
N1004 N 0.03271 0.50531 0.1957 0.0
C1005 C 0.96628 0.53138 0.15067 0.0
C1006 C 0.94992 0.58259 0.15968 0.0
C1007 C 0.93212 0.56205 0.1645 0.0
C1008 C 0.94079 0.53605 0.16051 0.0
C1009 C 0.97506 0.5771 0.15003 0.0
N1010 N 0.9829 0.55183 0.14519 0.0
H1011 H 0.9724 0.51138 0.14658 0.0
H1012 H 0.98764 0.59342 0.14518 0.0
H1013 H 0.03221 0.48371 0.1357 0.0
H1014 H 0.02247 0.546 0.18946 0.0
O1015 O 0.00685 0.51568 0.10501 0.0
O1016 O 0.0464 0.53418 0.10684 0.0
O1017 O 0.03456 0.5741 0.14794 0.0
C1018 C 0.03107 0.51658 0.09634 0.0
H1019 H 0.0139 0.58401 0.03705 0.0
H1020 H 0.03986 0.46514 0.18344 0.0
H1021 H 0.94424 0.60295 0.16269 0.0
H1022 H 0.92765 0.51957 0.1638 0.0
Co1023 Co 0.70906 0.76519 0.37853 0.0
C1024 C 0.69058 0.73061 0.3381 0.0
C1025 C 0.67692 0.76966 0.33026 0.0
C1026 C 0.6753 0.75509 0.30731 0.0
N1027 N 0.68662 0.75422 0.34966 0.0
N1028 N 0.68453 0.73071 0.31228 0.0
H1029 H 0.70158 0.71489 0.34738 0.0
H1030 H 0.67467 0.79081 0.33164 0.0
C1031 C 0.65556 0.78822 0.3947 0.0
O1032 O 0.64338 0.77828 0.37419 0.0
N1033 N 0.73273 0.77522 0.40672 0.0
C1034 C 0.7589 0.77977 0.40539 0.0
C1035 C 0.76838 0.7837 0.4304 0.0
C1036 C 0.72675 0.77636 0.43255 0.0
N1037 N 0.74818 0.78152 0.44753 0.0
C1038 C 0.72267 0.71501 0.40175 0.0
C1039 C 0.67139 0.69869 0.41038 0.0
C1040 C 0.69189 0.68081 0.41517 0.0
C1041 C 0.71792 0.68948 0.41139 0.0
C1042 C 0.67697 0.72388 0.40093 0.0
N1043 N 0.70227 0.7317 0.39624 0.0
H1044 H 0.7427 0.72112 0.39778 0.0
H1045 H 0.66068 0.73649 0.39609 0.0
H1046 H 0.77082 0.77936 0.38779 0.0
H1047 H 0.70717 0.77282 0.44013 0.0
O1048 O 0.73881 0.75569 0.35644 0.0
O1049 O 0.72034 0.79527 0.35825 0.0
O1050 O 0.67993 0.78343 0.39881 0.0
C1051 C 0.73801 0.77993 0.34785 0.0
H1052 H 0.67108 0.76281 0.28787 0.0
H1053 H 0.78884 0.78679 0.43547 0.0
H1054 H 0.65102 0.69301 0.41325 0.0
H1055 H 0.73437 0.67629 0.41467 0.0
Co1056 Co 0.87637 0.48911 0.5449 0.0
C1057 C 0.91697 0.5228 0.56392 0.0
C1058 C 0.92405 0.48356 0.57746 0.0
C1059 C 0.94738 0.49749 0.57863 0.0
N1060 N 0.90492 0.49948 0.56796 0.0
N1061 N 0.94289 0.52195 0.5694 0.0
H1062 H 0.90798 0.53871 0.55296 0.0
H1063 H 0.92222 0.46244 0.5796 0.0
C1064 C 0.85909 0.46613 0.5979 0.0
O1065 O 0.87967 0.47561 0.61033 0.0
N1066 N 0.84863 0.47959 0.52056 0.0
C1067 C 0.85058 0.47557 0.49429 0.0
C1068 C 0.82586 0.47163 0.48415 0.0
C1069 C 0.82269 0.47807 0.52596 0.0
N1070 N 0.80845 0.47322 0.50407 0.0
C1071 C 0.85367 0.53962 0.53125 0.0
C1072 C 0.84457 0.55568 0.58255 0.0
C1073 C 0.83988 0.57364 0.56212 0.0
C1074 C 0.84394 0.56513 0.53607 0.0
C1075 C 0.8541 0.53053 0.57692 0.0
N1076 N 0.85895 0.52281 0.55161 0.0
H1077 H 0.8578 0.53361 0.51123 0.0
H1078 H 0.8588 0.51785 0.59319 0.0
H1079 H 0.86845 0.4762 0.48277 0.0
H1080 H 0.81427 0.48169 0.54522 0.0
O1081 O 0.89922 0.49845 0.51568 0.0
O1082 O 0.8964 0.45879 0.53386 0.0
O1083 O 0.85529 0.47108 0.57353 0.0
C1084 C 0.90742 0.47406 0.51651 0.0
H1085 H 0.96669 0.48922 0.5824 0.0
H1086 H 0.82099 0.46829 0.46365 0.0
H1087 H 0.84152 0.56124 0.60294 0.0
H1088 H 0.84075 0.5784 0.51967 0.0
Co1089 Co 0.76508 0.62522 0.79782 0.0
C1090 C 0.72804 0.66541 0.81138 0.0
C1091 C 0.76329 0.67146 0.83372 0.0
C1092 C 0.7481 0.69407 0.83498 0.0
N1093 N 0.75064 0.6536 0.81864 0.0
N1094 N 0.72624 0.69026 0.82038 0.0
H1095 H 0.71468 0.65702 0.79703 0.0
H1096 H 0.7833 0.66961 0.84065 0.0
C1097 C 0.80254 0.6119 0.84042 0.0
O1098 O 0.81608 0.63284 0.83364 0.0
N1099 N 0.77904 0.59704 0.77626 0.0
C1100 C 0.79517 0.59875 0.75513 0.0
C1101 C 0.79979 0.57389 0.74557 0.0
C1102 C 0.77446 0.57111 0.77944 0.0
N1103 N 0.78671 0.55659 0.76083 0.0
C1104 C 0.71596 0.60052 0.78203 0.0
C1105 C 0.69836 0.59171 0.83291 0.0
C1106 C 0.681 0.58689 0.81197 0.0
C1107 C 0.69034 0.5907 0.78614 0.0
C1108 C 0.72359 0.60141 0.82799 0.0
N1109 N 0.73204 0.60614 0.80288 0.0
H1110 H 0.72258 0.60459 0.76218 0.0
H1111 H 0.73578 0.60654 0.84465 0.0
H1112 H 0.80332 0.6166 0.74696 0.0
H1113 H 0.76206 0.56308 0.79481 0.0
O1114 O 0.75675 0.64555 0.76646 0.0
O1115 O 0.79448 0.64754 0.78818 0.0
O1116 O 0.78065 0.60672 0.82924 0.0
C1117 C 0.77999 0.65617 0.76893 0.0
H1118 H 0.75409 0.71273 0.84341 0.0
H1119 H 0.8121 0.56893 0.72887 0.0
H1120 H 0.69219 0.58883 0.85314 0.0
H1121 H 0.67758 0.5874 0.76937 0.0
Co1122 Co 0.62879 0.51511 0.04609 0.0
C1123 C 0.58814 0.4813 0.06532 0.0
C1124 C 0.58123 0.52051 0.07901 0.0
C1125 C 0.55794 0.5065 0.08062 0.0
N1126 N 0.60025 0.50465 0.06922 0.0
N1127 N 0.56231 0.48204 0.07133 0.0
H1128 H 0.59701 0.46542 0.05419 0.0
H1129 H 0.58306 0.54163 0.08117 0.0
C1130 C 0.64614 0.53842 0.09903 0.0
O1131 O 0.62579 0.52861 0.11158 0.0
N1132 N 0.65649 0.52468 0.02165 0.0
C1133 C 0.65442 0.52875 0.99538 0.0
C1134 C 0.6791 0.53251 0.98507 0.0
C1135 C 0.68249 0.52603 0.02686 0.0
N1136 N 0.69663 0.53076 0.00485 0.0
C1137 C 0.65177 0.46482 0.03246 0.0
C1138 C 0.66112 0.44876 0.0837 0.0
C1139 C 0.66594 0.43088 0.0632 0.0
C1140 C 0.66173 0.43941 0.03719 0.0
C1141 C 0.65136 0.47385 0.07815 0.0
N1142 N 0.6464 0.48156 0.05286 0.0
H1143 H 0.64756 0.47082 0.01246 0.0
H1144 H 0.64661 0.4865 0.09444 0.0
H1145 H 0.6365 0.52822 0.98396 0.0
H1146 H 0.69102 0.52234 0.04606 0.0
O1147 O 0.60605 0.50543 0.01696 0.0
O1148 O 0.60856 0.54524 0.03486 0.0
O1149 O 0.64984 0.5335 0.07461 0.0
C1150 C 0.59773 0.52978 0.01756 0.0
H1151 H 0.5387 0.51473 0.08477 0.0
H1152 H 0.68385 0.53583 0.96453 0.0
H1153 H 0.66428 0.44319 0.10407 0.0
H1154 H 0.66497 0.4262 0.02075 0.0
Co1155 Co 0.73974 0.3776 0.2958 0.0
C1156 C 0.77497 0.33802 0.31474 0.0
C1157 C 0.73626 0.33038 0.32944 0.0
C1158 C 0.7509 0.30749 0.33116 0.0
N1159 N 0.75141 0.34959 0.31896 0.0
N1160 N 0.77505 0.3123 0.32124 0.0
H1161 H 0.79041 0.3471 0.30319 0.0
H1162 H 0.71515 0.33174 0.33209 0.0
C1163 C 0.71712 0.39524 0.34905 0.0
O1164 O 0.7277 0.3754 0.36181 0.0
N1165 N 0.729 0.40492 0.27145 0.0
C1166 C 0.72395 0.40272 0.24537 0.0
C1167 C 0.71971 0.42738 0.23513 0.0
C1168 C 0.72776 0.43093 0.27661 0.0
N1169 N 0.72212 0.44499 0.25479 0.0
C1170 C 0.78951 0.40016 0.28055 0.0
C1171 C 0.80615 0.41303 0.33085 0.0
C1172 C 0.82362 0.41692 0.30978 0.0
C1173 C 0.81486 0.41057 0.28427 0.0
C1174 C 0.78115 0.40241 0.3263 0.0
N1175 N 0.77311 0.39592 0.30146 0.0
H1176 H 0.78322 0.3948 0.26091 0.0
H1177 H 0.76884 0.39834 0.34304 0.0
H1178 H 0.72414 0.38474 0.23402 0.0
H1179 H 0.73222 0.43952 0.29562 0.0
O1180 O 0.74917 0.35481 0.26659 0.0
O1181 O 0.70979 0.35655 0.28545 0.0
O1182 O 0.72154 0.39857 0.3245 0.0
C1183 C 0.72506 0.34596 0.26782 0.0
H1184 H 0.74329 0.28813 0.33589 0.0
H1185 H 0.71565 0.43206 0.21472 0.0
H1186 H 0.81213 0.41705 0.35094 0.0
H1187 H 0.82757 0.41334 0.26736 0.0
Co1188 Co 0.87706 0.51561 0.95657 0.0
C1189 C 0.9173 0.4808 0.93839 0.0
C1190 C 0.92489 0.51961 0.92389 0.0
C1191 C 0.9479 0.50512 0.92245 0.0
N1192 N 0.90568 0.50428 0.9341 0.0
N1193 N 0.94307 0.48093 0.93222 0.0
H1194 H 0.90817 0.46529 0.94982 0.0
H1195 H 0.92336 0.5407 0.92121 0.0
C1196 C 0.86105 0.53714 0.90252 0.0
O1197 O 0.88005 0.52465 0.89024 0.0
N1198 N 0.84905 0.52614 0.98021 0.0
C1199 C 0.85059 0.53154 0.00622 0.0
C1200 C 0.82564 0.53536 0.01587 0.0
C1201 C 0.82317 0.52672 0.97449 0.0
N1202 N 0.80835 0.53227 0.99594 0.0
C1203 C 0.85392 0.46564 0.97097 0.0
C1204 C 0.84489 0.44824 0.92013 0.0
C1205 C 0.84064 0.43065 0.94098 0.0
C1206 C 0.84456 0.43988 0.96679 0.0
C1207 C 0.85401 0.4737 0.92515 0.0
N1208 N 0.859 0.48207 0.95023 0.0
H1209 H 0.85806 0.47211 0.99084 0.0
H1210 H 0.85829 0.48601 0.90856 0.0
H1211 H 0.8683 0.53174 0.01797 0.0
H1212 H 0.81545 0.52245 0.9551 0.0
O1213 O 0.89906 0.50604 0.98639 0.0
O1214 O 0.89779 0.54549 0.96768 0.0
O1215 O 0.85727 0.53419 0.92725 0.0
C1216 C 0.908 0.53014 0.98545 0.0
H1217 H 0.96728 0.51285 0.91802 0.0
H1218 H 0.82072 0.53895 0.03629 0.0
H1219 H 0.84186 0.44215 0.8999 0.0
H1220 H 0.84163 0.42695 0.98351 0.0
Co1221 Co 0.73945 0.62574 0.20807 0.0
C1222 C 0.77425 0.66598 0.18973 0.0
C1223 C 0.73532 0.67397 0.17583 0.0
C1224 C 0.74997 0.69688 0.17435 0.0
N1225 N 0.75063 0.65452 0.18562 0.0
N1226 N 0.77427 0.69181 0.18373 0.0
H1227 H 0.78987 0.65664 0.20084 0.0
H1228 H 0.71417 0.67267 0.17347 0.0
C1229 C 0.71643 0.60943 0.15454 0.0
O1230 O 0.72621 0.62995 0.14223 0.0
N1231 N 0.7292 0.59761 0.2317 0.0
C1232 C 0.72454 0.59894 0.25786 0.0
C1233 C 0.7204 0.57396 0.26729 0.0
C1234 C 0.72791 0.57181 0.22569 0.0
N1235 N 0.72254 0.55684 0.24707 0.0
C1236 C 0.78945 0.60216 0.22178 0.0
C1237 C 0.80583 0.5935 0.17051 0.0
C1238 C 0.82361 0.5885 0.19104 0.0
C1239 C 0.81491 0.5923 0.21706 0.0
C1240 C 0.78071 0.60317 0.17605 0.0
N1241 N 0.77287 0.60784 0.20135 0.0
H1242 H 0.78332 0.60612 0.2418 0.0
H1243 H 0.76818 0.60819 0.15975 0.0
H1244 H 0.72502 0.61653 0.26981 0.0
H1245 H 0.73149 0.56422 0.20612 0.0
O1246 O 0.74896 0.64779 0.23784 0.0
O1247 O 0.70943 0.64618 0.21926 0.0
O1248 O 0.72125 0.60549 0.17892 0.0
C1249 C 0.72476 0.65649 0.23699 0.0
H1250 H 0.74233 0.71634 0.17013 0.0
H1251 H 0.71718 0.56888 0.28774 0.0
H1252 H 0.81153 0.59064 0.15013 0.0
H1253 H 0.82803 0.58886 0.23353 0.0
Co1254 Co 0.62788 0.48793 0.45732 0.0
C1255 C 0.58767 0.52277 0.439 0.0
C1256 C 0.57979 0.48391 0.42482 0.0
C1257 C 0.55687 0.49857 0.42333 0.0
N1258 N 0.59918 0.49918 0.43479 0.0
N1259 N 0.56187 0.52282 0.43288 0.0
H1260 H 0.59695 0.53833 0.45023 0.0
H1261 H 0.58112 0.46278 0.42233 0.0
C1262 C 0.6447 0.46489 0.40386 0.0
O1263 O 0.62413 0.47438 0.3914 0.0
N1264 N 0.6559 0.47766 0.48102 0.0
C1265 C 0.65452 0.47255 0.5071 0.0
C1266 C 0.67955 0.46878 0.5166 0.0
C1267 C 0.68174 0.47698 0.47513 0.0
N1268 N 0.69669 0.47164 0.4965 0.0
C1269 C 0.65137 0.53788 0.47134 0.0
C1270 C 0.6602 0.55448 0.42017 0.0
C1271 C 0.66517 0.57216 0.4408 0.0
C1272 C 0.66126 0.56335 0.46677 0.0
C1273 C 0.65049 0.52934 0.42556 0.0
N1274 N 0.64574 0.52139 0.45081 0.0
H1275 H 0.64734 0.53167 0.49132 0.0
H1276 H 0.64553 0.51685 0.40919 0.0
H1277 H 0.63687 0.47251 0.51895 0.0
H1278 H 0.68936 0.48103 0.45566 0.0
O1279 O 0.60572 0.4973 0.48704 0.0
O1280 O 0.60746 0.45784 0.46832 0.0
O1281 O 0.6484 0.46985 0.42825 0.0
C1282 C 0.5971 0.47307 0.4861 0.0
H1283 H 0.53744 0.49095 0.41895 0.0
H1284 H 0.68464 0.46539 0.53701 0.0
H1285 H 0.66313 0.56027 0.39983 0.0
H1286 H 0.66467 0.57639 0.48332 0.0
Co1287 Co 0.7656 0.37827 0.70632 0.0
C1288 C 0.73021 0.33915 0.68675 0.0
C1289 C 0.76905 0.33104 0.67265 0.0
C1290 C 0.75415 0.30836 0.67059 0.0
N1291 N 0.75397 0.35041 0.68297 0.0
N1292 N 0.72992 0.31348 0.68012 0.0
H1293 H 0.71472 0.34836 0.69813 0.0
H1294 H 0.79021 0.33213 0.67033 0.0
C1295 C 0.78823 0.39583 0.65325 0.0
O1296 O 0.77797 0.37576 0.64062 0.0
N1297 N 0.77646 0.40546 0.73077 0.0
C1298 C 0.78542 0.40272 0.75571 0.0
C1299 C 0.78955 0.42723 0.7663 0.0
C1300 C 0.77531 0.43165 0.72663 0.0
N1301 N 0.78312 0.44536 0.74804 0.0
C1302 C 0.71577 0.4017 0.72113 0.0
C1303 C 0.69922 0.41217 0.67026 0.0
C1304 C 0.68149 0.41637 0.691 0.0
C1305 C 0.69027 0.4117 0.71685 0.0
C1306 C 0.72436 0.40235 0.67536 0.0
N1307 N 0.73229 0.39674 0.70044 0.0
H1308 H 0.72198 0.39702 0.74097 0.0
H1309 H 0.7368 0.39793 0.65883 0.0
H1310 H 0.78856 0.38442 0.76603 0.0
H1311 H 0.76812 0.44044 0.70857 0.0
O1312 O 0.75599 0.35541 0.7354 0.0
O1313 O 0.79541 0.35702 0.71659 0.0
O1314 O 0.78379 0.39932 0.67778 0.0
C1315 C 0.78002 0.34631 0.73404 0.0
H1316 H 0.76159 0.28891 0.66595 0.0
H1317 H 0.7968 0.43134 0.78593 0.0
H1318 H 0.69341 0.41569 0.65002 0.0
H1319 H 0.67718 0.41452 0.73346 0.0
Co1320 Co 0.54591 0.87628 0.487 0.0
C1321 C 0.56474 0.91603 0.52218 0.0
C1322 C 0.57884 0.92408 0.48333 0.0
C1323 C 0.58061 0.94687 0.49815 0.0
N1324 N 0.56875 0.90466 0.49848 0.0
N1325 N 0.5711 0.94178 0.5224 0.0
H1326 H 0.55348 0.90674 0.53772 0.0
H1327 H 0.58124 0.9229 0.46218 0.0
C1328 C 0.59927 0.85931 0.46431 0.0
O1329 O 0.61163 0.87971 0.47427 0.0
N1330 N 0.52185 0.84862 0.47642 0.0
C1331 C 0.49587 0.85064 0.47086 0.0
C1332 C 0.48575 0.82587 0.46701 0.0
C1333 C 0.5271 0.8226 0.47584 0.0
N1334 N 0.5054 0.80837 0.47018 0.0
C1335 C 0.53142 0.85283 0.53683 0.0
C1336 C 0.58242 0.84339 0.5536 0.0
C1337 C 0.56168 0.83881 0.57124 0.0
C1338 C 0.53579 0.84299 0.56235 0.0
C1339 C 0.57723 0.85305 0.5284 0.0
N1340 N 0.55207 0.85815 0.52038 0.0
H1341 H 0.51152 0.85712 0.53055 0.0
H1342 H 0.5937 0.85776 0.51598 0.0
H1343 H 0.48448 0.86858 0.47042 0.0
H1344 H 0.54606 0.81417 0.48078 0.0
O1345 O 0.51648 0.89874 0.49646 0.0
O1346 O 0.53527 0.89706 0.45701 0.0
O1347 O 0.57482 0.85555 0.46891 0.0
C1348 C 0.51762 0.90757 0.47231 0.0
H1349 H 0.58513 0.96632 0.49065 0.0
H1350 H 0.46543 0.82106 0.4627 0.0
H1351 H 0.6027 0.84024 0.55947 0.0
H1352 H 0.51918 0.83986 0.57538 0.0
Co1353 Co 0.04694 0.62672 0.51445 0.0
C1354 C 0.06538 0.58685 0.47963 0.0
C1355 C 0.08302 0.58121 0.51752 0.0
C1356 C 0.08511 0.558 0.50328 0.0
N1357 N 0.0702 0.5991 0.50265 0.0
N1358 N 0.0734 0.56161 0.47969 0.0
H1359 H 0.05249 0.59499 0.46471 0.0
H1360 H 0.08707 0.58351 0.53833 0.0
C1361 C 0.0742 0.65175 0.55748 0.0
O1362 O 0.05306 0.64411 0.57029 0.0
N1363 N 0.02266 0.6542 0.5252 0.0
C1364 C 0.997 0.65192 0.53198 0.0
C1365 C 0.98673 0.67663 0.53596 0.0
C1366 C 0.02755 0.68029 0.52512 0.0
N1367 N 0.00599 0.69432 0.53169 0.0
C1368 C 0.03375 0.65067 0.46463 0.0
C1369 C 0.08524 0.6608 0.44977 0.0
C1370 C 0.06506 0.66516 0.43138 0.0
C1371 C 0.03892 0.66064 0.43934 0.0
C1372 C 0.07924 0.65107 0.4748 0.0
N1373 N 0.05384 0.6456 0.48177 0.0
H1374 H 0.0137 0.64604 0.47016 0.0
H1375 H 0.09523 0.6466 0.48812 0.0
H1376 H 0.98597 0.63381 0.53346 0.0
H1377 H 0.04626 0.68886 0.5195 0.0
O1378 O 0.01731 0.60455 0.50403 0.0
O1379 O 0.03605 0.60467 0.54337 0.0
O1380 O 0.07651 0.64591 0.53305 0.0
C1381 C 0.01847 0.59474 0.52778 0.0
H1382 H 0.09151 0.53916 0.51095 0.0
H1383 H 0.96663 0.68127 0.54142 0.0
H1384 H 0.10567 0.66423 0.4446 0.0
H1385 H 0.02274 0.66355 0.42573 0.0
Co1386 Co 0.62354 0.79593 0.76458 0.0
C1387 C 0.66421 0.81484 0.73054 0.0
C1388 C 0.67133 0.82858 0.76971 0.0
C1389 C 0.69453 0.83021 0.75556 0.0
N1390 N 0.65223 0.81879 0.75395 0.0
N1391 N 0.69003 0.8209 0.73112 0.0
H1392 H 0.65526 0.80373 0.7147 0.0
H1393 H 0.66959 0.83081 0.79084 0.0
C1394 C 0.60668 0.84914 0.78749 0.0
O1395 O 0.62704 0.86145 0.7774 0.0
N1396 N 0.59567 0.77173 0.77431 0.0
C1397 C 0.59763 0.74549 0.77857 0.0
C1398 C 0.5729 0.7353 0.78231 0.0
C1399 C 0.56967 0.77705 0.77553 0.0
N1400 N 0.55544 0.75513 0.78036 0.0
C1401 C 0.60077 0.7821 0.71429 0.0
C1402 C 0.5917 0.83327 0.69788 0.0
C1403 C 0.58711 0.8127 0.68004 0.0
C1404 C 0.59113 0.78673 0.68873 0.0
C1405 C 0.60114 0.82782 0.7231 0.0
N1406 N 0.60602 0.80257 0.73097 0.0
H1407 H 0.6049 0.76212 0.72042 0.0
H1408 H 0.60578 0.84416 0.73572 0.0
H1409 H 0.6155 0.73399 0.77819 0.0
H1410 H 0.56124 0.79626 0.7717 0.0
O1411 O 0.64613 0.7666 0.75511 0.0
O1412 O 0.64368 0.7848 0.7948 0.0
O1413 O 0.60273 0.82472 0.78279 0.0
C1414 C 0.65444 0.76735 0.77946 0.0
H1415 H 0.71381 0.83443 0.76365 0.0
H1416 H 0.56807 0.71482 0.78578 0.0
H1417 H 0.58867 0.85361 0.69216 0.0
H1418 H 0.58802 0.77024 0.67555 0.0
Co1419 Co 0.45714 0.37863 0.01549 0.0
C1420 C 0.43786 0.41803 0.98023 0.0
C1421 C 0.42416 0.42639 0.01916 0.0
C1422 C 0.42242 0.44911 0.00424 0.0
N1423 N 0.43404 0.40683 0.00404 0.0
N1424 N 0.43172 0.44384 0.97993 0.0
H1425 H 0.44886 0.40855 0.96463 0.0
H1426 H 0.42194 0.42535 0.04034 0.0
C1427 C 0.40407 0.3613 0.03876 0.0
O1428 O 0.39151 0.38176 0.02919 0.0
N1429 N 0.48148 0.35118 0.02596 0.0
C1430 C 0.50753 0.35339 0.03115 0.0
C1431 C 0.51783 0.32873 0.03511 0.0
C1432 C 0.47639 0.32515 0.02686 0.0
N1433 N 0.49824 0.3111 0.03238 0.0
C1434 C 0.4713 0.35497 0.96556 0.0
C1435 C 0.42017 0.34528 0.94935 0.0
C1436 C 0.44073 0.34064 0.93151 0.0
C1437 C 0.4667 0.34494 0.94012 0.0
C1438 C 0.42559 0.3551 0.97444 0.0
N1439 N 0.45081 0.36031 0.98219 0.0
H1440 H 0.49126 0.35935 0.97161 0.0
H1441 H 0.40922 0.35985 0.98701 0.0
H1442 H 0.51884 0.37138 0.03125 0.0
H1443 H 0.45742 0.31656 0.02223 0.0
O1444 O 0.48641 0.40129 0.00582 0.0
O1445 O 0.46788 0.39956 0.04536 0.0
O1446 O 0.42849 0.35771 0.03383 0.0
C1447 C 0.48543 0.41011 0.02999 0.0
H1448 H 0.41809 0.46862 0.01169 0.0
H1449 H 0.53824 0.32406 0.03918 0.0
H1450 H 0.39984 0.34204 0.94371 0.0
H1451 H 0.48319 0.34179 0.92694 0.0
Co1452 Co 0.375 0.70673 0.7657 0.0
C1453 C 0.33525 0.6882 0.73024 0.0
C1454 C 0.32706 0.67402 0.76906 0.0
C1455 C 0.30442 0.67199 0.75408 0.0
N1456 N 0.34644 0.68432 0.75401 0.0
N1457 N 0.30958 0.68155 0.72984 0.0
H1458 H 0.34468 0.69934 0.71471 0.0
H1459 H 0.32821 0.67148 0.79019 0.0
C1460 C 0.3907 0.65273 0.78758 0.0
O1461 O 0.37169 0.64045 0.77509 0.0
N1462 N 0.40296 0.7303 0.77652 0.0
C1463 C 0.4014 0.75626 0.78215 0.0
C1464 C 0.42634 0.76593 0.78588 0.0
C1465 C 0.42888 0.72465 0.77688 0.0
N1466 N 0.44368 0.74609 0.78248 0.0
C1467 C 0.39874 0.72089 0.71589 0.0
C1468 C 0.40871 0.66996 0.69933 0.0
C1469 C 0.41318 0.69062 0.6816 0.0
C1470 C 0.40875 0.71651 0.69039 0.0
C1471 C 0.39887 0.67517 0.72445 0.0
N1472 N 0.39346 0.70029 0.73241 0.0
H1473 H 0.39429 0.74079 0.72207 0.0
H1474 H 0.39441 0.65867 0.73681 0.0
H1475 H 0.38367 0.76798 0.78254 0.0
H1476 H 0.43661 0.70533 0.77236 0.0
O1477 O 0.35314 0.73661 0.75594 0.0
O1478 O 0.35401 0.71782 0.79538 0.0
O1479 O 0.39458 0.67741 0.7845 0.0
C1480 C 0.34403 0.73567 0.78 0.0
H1481 H 0.28498 0.66716 0.76143 0.0
H1482 H 0.43121 0.78634 0.78958 0.0
H1483 H 0.41211 0.64968 0.69357 0.0
H1484 H 0.41181 0.73309 0.67733 0.0
Co1485 Co 0.95537 0.12701 0.98684 0.0
C1486 C 0.93994 0.08647 0.02336 0.0
C1487 C 0.92615 0.07676 0.98477 0.0
C1488 C 0.92524 0.05438 1.00015 0.0
N1489 N 0.93518 0.09709 0.99945 0.0
N1490 N 0.93448 0.06051 0.02424 0.0
H1491 H 0.9507 0.09665 0.03869 0.0
H1492 H 0.92345 0.07735 0.96363 0.0
C1493 C 0.90002 0.13848 0.96652 0.0
O1494 O 0.89103 0.11726 0.97816 0.0
N1495 N 0.97714 0.15607 0.97502 0.0
C1496 C 0.00251 0.15512 0.96705 0.0
C1497 C 0.01137 0.18022 0.96288 0.0
C1498 C 0.97099 0.1819 0.97553 0.0
N1499 N 0.99162 0.19717 0.96823 0.0
C1500 C 0.96986 0.15163 0.03618 0.0
C1501 C 0.91895 0.15837 0.05443 0.0
C1502 C 0.93987 0.16407 0.07152 0.0
C1503 C 0.96569 0.16128 0.06186 0.0
C1504 C 0.92394 0.14893 0.0291 0.0
N1505 N 0.94909 0.14514 0.02032 0.0
H1506 H 0.98979 0.14843 0.02934 0.0
H1507 H 0.90737 0.14339 0.01721 0.0
H1508 H 0.01453 0.1377 0.96523 0.0
H1509 H 0.95199 0.18922 0.9818 0.0
O1510 O 0.98657 0.10678 0.99565 0.0
O1511 O 0.96652 0.10641 0.95681 0.0
O1512 O 0.92409 0.14539 0.96947 0.0
C1513 C 0.9852 0.09725 0.97178 0.0
H1514 H 0.9213 0.03459 0.99321 0.0
H1515 H 0.03131 0.18544 0.95748 0.0
H1516 H 0.8987 0.1605 0.06084 0.0
H1517 H 0.98247 0.16532 0.07439 0.0
Co1518 Co 0.62555 0.20949 0.73599 0.0
C1519 C 0.66593 0.19187 0.77102 0.0
C1520 C 0.67394 0.17744 0.73226 0.0
C1521 C 0.69686 0.17626 0.74691 0.0
N1522 N 0.65445 0.18734 0.74746 0.0
N1523 N 0.69179 0.18599 0.77109 0.0
H1524 H 0.65648 0.20298 0.78656 0.0
H1525 H 0.67262 0.17474 0.71115 0.0
C1526 C 0.60938 0.15574 0.7134 0.0
O1527 O 0.6301 0.14365 0.723 0.0
N1528 N 0.59735 0.2329 0.7255 0.0
C1529 C 0.59863 0.25889 0.72001 0.0
C1530 C 0.57357 0.26828 0.71624 0.0
C1531 C 0.57152 0.22693 0.72503 0.0
N1532 N 0.55648 0.24819 0.71947 0.0
C1533 C 0.60212 0.2237 0.78591 0.0
C1534 C 0.59373 0.17257 0.80283 0.0
C1535 C 0.58884 0.19326 0.82045 0.0
C1536 C 0.59249 0.2192 0.81149 0.0
C1537 C 0.60319 0.17788 0.77759 0.0
N1538 N 0.60775 0.20312 0.76949 0.0
H1539 H 0.606 0.24366 0.77956 0.0
H1540 H 0.60816 0.16148 0.76516 0.0
H1541 H 0.61624 0.27079 0.71971 0.0
H1542 H 0.56399 0.20751 0.72942 0.0
O1543 O 0.64745 0.23941 0.74515 0.0
O1544 O 0.64589 0.22035 0.70582 0.0
O1545 O 0.60531 0.18011 0.71816 0.0
C1546 C 0.65615 0.23828 0.72095 0.0
H1547 H 0.71631 0.17186 0.73933 0.0
H1548 H 0.56843 0.28864 0.7126 0.0
H1549 H 0.59096 0.15225 0.80875 0.0
H1550 H 0.58911 0.23578 0.8245 0.0
Co1551 Co 0.87951 0.7952 0.23961 0.0
C1552 C 0.83921 0.81411 0.27405 0.0
C1553 C 0.83155 0.82776 0.23496 0.0
C1554 C 0.80856 0.8295 0.24946 0.0
N1555 N 0.85084 0.81796 0.25046 0.0
N1556 N 0.81342 0.82027 0.27387 0.0
H1557 H 0.84837 0.80306 0.28981 0.0
H1558 H 0.83299 0.82995 0.2138 0.0
C1559 C 0.89638 0.84853 0.21668 0.0
O1560 O 0.87585 0.8609 0.22636 0.0
N1561 N 0.90748 0.77123 0.2297 0.0
C1562 C 0.90595 0.74502 0.22543 0.0
C1563 C 0.93085 0.73534 0.22137 0.0
C1564 C 0.93333 0.77702 0.22828 0.0
N1565 N 0.94812 0.75545 0.22319 0.0
C1566 C 0.90243 0.78135 0.28989 0.0
C1567 C 0.91143 0.83254 0.3063 0.0
C1568 C 0.91601 0.812 0.32417 0.0
C1569 C 0.91204 0.78601 0.31547 0.0
C1570 C 0.90201 0.82706 0.28106 0.0
N1571 N 0.89715 0.8018 0.2732 0.0
H1572 H 0.89832 0.76136 0.28376 0.0
H1573 H 0.89734 0.84339 0.26844 0.0
H1574 H 0.88827 0.73323 0.22611 0.0
H1575 H 0.94108 0.79657 0.23155 0.0
O1576 O 0.85705 0.76569 0.24898 0.0
O1577 O 0.85926 0.78414 0.20942 0.0
O1578 O 0.90021 0.82413 0.22152 0.0
C1579 C 0.84861 0.76656 0.22468 0.0
H1580 H 0.78916 0.83376 0.24167 0.0
H1581 H 0.93578 0.71482 0.21842 0.0
H1582 H 0.91444 0.85289 0.312 0.0
H1583 H 0.91515 0.76953 0.32865 0.0
C1584 C 0.04918 0.07586 0.48495 0.0
C1585 C 0.04195 0.06103 0.4628 0.0
H1586 H 0.07267 0.07764 0.52 0.0
C1587 C 0.05227 0.03545 0.45976 0.0
H1588 H 0.04129 0.09547 0.48778 0.0
C1589 C 0.0699 0.02512 0.47817 0.0
C1590 C 0.07774 0.04019 0.49995 0.0
H1591 H 0.04648 0.02326 0.44325 0.0
H1592 H 0.07762 0.00545 0.47515 0.0
C1593 C 0.0671 0.06561 0.50328 0.0
C1594 C 0.22821 0.82307 0.72674 0.0
C1595 C 0.21337 0.82995 0.74901 0.0
H1596 H 0.23025 0.80004 0.69153 0.0
C1597 C 0.18842 0.81845 0.75269 0.0
H1598 H 0.24751 0.83156 0.72342 0.0
C1599 C 0.17852 0.80036 0.73442 0.0
C1600 C 0.19321 0.79377 0.71196 0.0
H1601 H 0.17656 0.82333 0.76977 0.0
H1602 H 0.15933 0.79164 0.73767 0.0
C1603 C 0.21819 0.80525 0.70833 0.0
C1604 C 0.43172 0.97754 0.97612 0.0
C1605 C 0.42502 0.96249 0.99828 0.0
H1606 H 0.45464 0.98016 0.94095 0.0
C1607 C 0.43687 0.93764 1.00176 0.0
H1608 H 0.42309 0.99681 0.97298 0.0
C1609 C 0.45502 0.92802 0.98331 0.0
C1610 C 0.46133 0.94291 0.96091 0.0
H1611 H 0.43218 0.92564 0.01878 0.0
H1612 H 0.46393 0.90888 0.98635 0.0
C1613 C 0.44962 0.96785 0.95762 0.0
C1614 C 0.31563 0.1882 0.25118 0.0
C1615 C 0.29037 0.17718 0.24793 0.0
H1616 H 0.34514 0.2143 0.23551 0.0
C1617 C 0.2752 0.18467 0.22609 0.0
H1618 H 0.32773 0.1829 0.26794 0.0
C1619 C 0.2853 0.20231 0.20755 0.0
C1620 C 0.31073 0.21301 0.21051 0.0
H1621 H 0.25564 0.17667 0.22312 0.0
H1622 H 0.27304 0.20782 0.19099 0.0
C1623 C 0.32563 0.20613 0.23273 0.0
C1624 C 0.06781 0.98021 0.02765 0.0
C1625 C 0.07584 0.965 0.00604 0.0
H1626 H 0.04456 0.982 0.06273 0.0
C1627 C 0.06554 0.93942 0.00296 0.0
H1628 H 0.07528 1.0 0.03048 0.0
C1629 C 0.04787 0.92909 0.02146 0.0
C1630 C 0.04059 0.944 0.04352 0.0
H1631 H 0.07126 0.92729 0.98635 0.0
H1632 H 0.04031 0.9093 0.0189 0.0
C1633 C 0.05044 0.96979 0.04624 0.0
C1634 C 0.32567 0.79716 0.27112 0.0
C1635 C 0.31097 0.79127 0.29374 0.0
H1636 H 0.32783 0.81935 0.23532 0.0
C1637 C 0.28594 0.80287 0.29694 0.0
H1638 H 0.34485 0.78832 0.26815 0.0
C1639 C 0.27606 0.8204 0.27817 0.0
C1640 C 0.29102 0.82678 0.25586 0.0
H1641 H 0.27378 0.79812 0.3138 0.0
H1642 H 0.25681 0.8291 0.28128 0.0
C1643 C 0.31586 0.81489 0.25243 0.0
C1644 C 0.43816 0.06549 0.50164 0.0
C1645 C 0.42737 0.0401 0.50458 0.0
H1646 H 0.46397 0.09502 0.51772 0.0
C1647 C 0.43496 0.02472 0.52623 0.0
H1648 H 0.43276 0.07775 0.48503 0.0
C1649 C 0.45248 0.03472 0.54491 0.0
C1650 C 0.46294 0.06028 0.54227 0.0
H1651 H 0.42712 0.00505 0.52896 0.0
H1652 H 0.45808 0.0223 0.56132 0.0
C1653 C 0.45597 0.07541 0.52024 0.0
C1654 C 0.22939 0.1872 0.77528 0.0
C1655 C 0.21422 0.17904 0.75368 0.0
H1656 H 0.23121 0.21073 0.81015 0.0
C1657 C 0.18867 0.18938 0.75049 0.0
H1658 H 0.24917 0.17972 0.7782 0.0
C1659 C 0.17835 0.20723 0.76886 0.0
C1660 C 0.19325 0.21467 0.79089 0.0
H1661 H 0.17656 0.18354 0.73391 0.0
H1662 H 0.15859 0.21484 0.7662 0.0
C1663 C 0.21899 0.20475 0.79371 0.0
C1664 C 0.48391 0.05058 0.07301 0.0
C1665 C 0.46142 0.04408 0.05837 0.0
H1666 H 0.5192 0.07363 0.07498 0.0
C1667 C 0.45768 0.05571 0.03348 0.0
H1668 H 0.48725 0.04172 0.09212 0.0
C1669 C 0.476 0.07363 0.02349 0.0
C1670 C 0.49828 0.08047 0.03831 0.0
H1671 H 0.44083 0.05056 0.02146 0.0
H1672 H 0.47259 0.08226 0.00426 0.0
C1673 C 0.5021 0.0688 0.06317 0.0
C1674 C 0.20311 0.20881 0.28483 0.0
C1675 C 0.21343 0.21148 0.31044 0.0
H1676 H 0.17781 0.22465 0.25507 0.0
C1677 C 0.20635 0.23348 0.32555 0.0
H1678 H 0.20882 0.19242 0.27243 0.0
C1679 C 0.18852 0.25201 0.31557 0.0
C1680 C 0.17783 0.24901 0.29014 0.0
H1681 H 0.21426 0.23602 0.34521 0.0
H1682 H 0.18302 0.2686 0.32782 0.0
C1683 C 0.18557 0.22741 0.27476 0.0
C1684 C 0.00318 0.93668 0.56765 0.0
C1685 C 0.0064 0.92569 0.54235 0.0
H1686 H 0.01876 0.96296 0.59705 0.0
C1687 C 0.02809 0.93335 0.52706 0.0
H1688 H 0.98652 0.93126 0.57983 0.0
C1689 C 0.0465 0.95118 0.53704 0.0
C1690 C 0.04355 0.96189 0.56247 0.0
H1691 H 0.03102 0.92538 0.50747 0.0
H1692 H 0.06293 0.95683 0.52467 0.0
C1693 C 0.02151 0.95479 0.57753 0.0
C1694 C 0.30088 0.79619 0.78539 0.0
C1695 C 0.28988 0.79322 0.8107 0.0
H1696 H 0.32631 0.78021 0.75573 0.0
C1697 C 0.29596 0.77062 0.82536 0.0
H1698 H 0.29598 0.81306 0.77329 0.0
C1699 C 0.31337 0.75175 0.81525 0.0
C1700 C 0.32469 0.75497 0.79011 0.0
H1701 H 0.28754 0.76782 0.84477 0.0
H1702 H 0.31805 0.73468 0.82718 0.0
C1703 C 0.31802 0.77723 0.77518 0.0
C1704 C 0.47708 0.93495 0.47744 0.0
C1705 C 0.49878 0.92728 0.46215 0.0
H1706 H 0.44208 0.95821 0.4797 0.0
C1707 C 0.50188 0.93805 0.43676 0.0
H1708 H 0.47424 0.92714 0.4971 0.0
C1709 C 0.48338 0.95591 0.42675 0.0
C1710 C 0.46132 0.96296 0.44179 0.0
H1711 H 0.51853 0.93259 0.42457 0.0
H1712 H 0.48602 0.96391 0.40714 0.0
C1713 C 0.45852 0.95254 0.46734 0.0
C1714 C 0.30144 0.20941 0.71804 0.0
C1715 C 0.29176 0.21191 0.69216 0.0
H1716 H 0.32583 0.22558 0.74842 0.0
C1717 C 0.29902 0.23394 0.67719 0.0
H1718 H 0.29556 0.193 0.73034 0.0
C1719 C 0.31641 0.25267 0.6876 0.0
C1720 C 0.32648 0.24985 0.71331 0.0
H1721 H 0.29159 0.23636 0.65734 0.0
H1722 H 0.32208 0.26927 0.67544 0.0
C1723 C 0.31855 0.22821 0.72853 0.0
C1724 C 0.02008 0.0484 0.92709 0.0
C1725 C 0.04255 0.04235 0.94199 0.0
H1726 H 0.98432 0.07079 0.92475 0.0
C1727 C 0.0456 0.05396 0.96701 0.0
H1728 H 0.01721 0.03952 0.9079 0.0
C1729 C 0.02685 0.07154 0.97675 0.0
C1730 C 0.00464 0.07805 0.96167 0.0
H1731 H 0.06233 0.04911 0.97931 0.0
H1732 H 0.02985 0.08014 0.99606 0.0
C1733 C 1.00136 0.06626 0.93676 0.0
C1734 C 0.18786 0.75208 0.18684 0.0
C1735 C 0.17885 0.75358 0.21306 0.0
H1736 H 0.21198 0.76961 0.15667 0.0
C1737 C 0.18832 0.77374 0.22937 0.0
H1738 H 0.18101 0.73662 0.17383 0.0
C1739 C 0.2058 0.79249 0.21951 0.0
C1740 C 0.21427 0.79151 0.1931 0.0
H1741 H 0.18198 0.77528 0.2497 0.0
H1742 H 0.21279 0.80777 0.23266 0.0
C1743 C 0.20557 0.77084 0.17699 0.0
C1744 C 0.07664 0.48208 0.04813 0.0
C1745 C 0.06158 0.46004 0.04111 0.0
H1746 H 0.07885 0.51728 0.07138 0.0
C1747 C 0.03601 0.45732 0.05155 0.0
H1748 H 0.09625 0.48467 0.04013 0.0
C1749 C 0.02593 0.47593 0.0691 0.0
C1750 C 0.04124 0.49761 0.07673 0.0
H1751 H 0.02364 0.44088 0.0459 0.0
H1752 H 0.00626 0.47315 0.0769 0.0
C1753 C 0.06664 0.50063 0.06597 0.0
C1754 C 0.52528 0.0285 0.93421 0.0
C1755 C 0.54044 0.00653 0.92708 0.0
H1756 H 0.52315 0.06399 0.95673 0.0
C1757 C 0.56574 0.00347 0.93806 0.0
H1758 H 0.50571 0.03134 0.92619 0.0
C1759 C 0.57577 0.02224 0.95563 0.0
C1760 C 0.56086 0.04456 0.96215 0.0
H1761 H 0.57783 0.98662 0.93301 0.0
H1762 H 0.59529 0.0196 0.96381 0.0
C1763 C 0.53541 0.04734 0.95148 0.0
C1764 C 0.25179 0.31597 0.18715 0.0
C1765 C 0.24861 0.29058 0.17639 0.0
H1766 H 0.23612 0.34563 0.21308 0.0
C1767 C 0.22691 0.27537 0.18415 0.0
H1768 H 0.26845 0.32811 0.18163 0.0
C1769 C 0.20843 0.28553 0.20182 0.0
C1770 C 0.21132 0.31107 0.21226 0.0
H1771 H 0.224 0.25571 0.17634 0.0
H1772 H 0.19198 0.27322 0.20755 0.0
C1773 C 0.2334 0.32604 0.2051 0.0
C1774 C 0.93941 0.00201 0.44054 0.0
C1775 C 0.96467 0.99887 0.42948 0.0
H1776 H 0.90998 0.98617 0.46663 0.0
C1777 C 0.97992 0.97706 0.43689 0.0
H1778 H 0.92725 0.01874 0.4353 0.0
C1779 C 0.9699 0.95842 0.45447 0.0
C1780 C 0.94447 0.96128 0.46521 0.0
H1781 H 0.99948 0.97416 0.42883 0.0
H1782 H 0.98221 0.94187 0.4599 0.0
C1783 C 0.92949 0.98347 0.45843 0.0
C1784 C 0.77116 0.17751 0.20604 0.0
C1785 C 0.79331 0.19241 0.21308 0.0
H1786 H 0.73612 0.17545 0.18254 0.0
C1787 C 0.79637 0.21785 0.20245 0.0
H1788 H 0.76832 0.15799 0.21416 0.0
C1789 C 0.77799 0.22796 0.18468 0.0
C1790 C 0.75621 0.21281 0.177 0.0
H1791 H 0.81289 0.23009 0.20809 0.0
H1792 H 0.78103 0.24753 0.17672 0.0
C1793 C 0.75284 0.18754 0.18797 0.0
C1794 C 0.42871 0.51939 0.54666 0.0
C1795 C 0.44358 0.54159 0.53972 0.0
H1796 H 0.42671 0.48423 0.56997 0.0
C1797 C 0.4691 0.54453 0.55018 0.0
H1798 H 0.40913 0.51665 0.53863 0.0
C1799 C 0.47929 0.52602 0.56777 0.0
C1800 C 0.46412 0.50424 0.57542 0.0
H1801 H 0.48132 0.5611 0.54459 0.0
H1802 H 0.49889 0.52901 0.57568 0.0
C1803 C 0.43881 0.50095 0.56453 0.0
C1804 C 0.22775 0.72828 0.3183 0.0
C1805 C 0.24933 0.71318 0.32662 0.0
H1806 H 0.19319 0.73003 0.29434 0.0
C1807 C 0.25281 0.68771 0.31614 0.0
H1808 H 0.22464 0.748 0.32586 0.0
C1809 C 0.23474 0.67739 0.29802 0.0
C1810 C 0.21272 0.69219 0.29041 0.0
H1811 H 0.2694 0.67567 0.32208 0.0
H1812 H 0.23762 0.65769 0.29034 0.0
C1813 C 0.20961 0.71787 0.30045 0.0
C1814 C 0.25146 0.31731 0.81586 0.0
C1815 C 0.25462 0.29186 0.82647 0.0
H1816 H 0.26719 0.3471 0.79012 0.0
C1817 C 0.27632 0.27666 0.81865 0.0
H1818 H 0.23479 0.32943 0.82142 0.0
C1819 C 0.29481 0.28689 0.80106 0.0
C1820 C 0.29194 0.31249 0.79078 0.0
H1821 H 0.2792 0.25695 0.82632 0.0
H1822 H 0.31126 0.27461 0.79527 0.0
C1823 C 0.26988 0.32746 0.79799 0.0
C1824 C 0.55148 0.53356 0.95941 0.0
C1825 C 0.54331 0.56007 0.9602 0.0
H1826 H 0.57482 0.50319 0.97699 0.0
C1827 C 0.55219 0.57622 0.98078 0.0
H1828 H 0.54437 0.52037 0.94424 0.0
C1829 C 0.56964 0.56627 0.99969 0.0
C1830 C 0.57826 0.53993 0.99846 0.0
H1831 H 0.54605 0.59662 0.98188 0.0
H1832 H 0.57657 0.5793 0.01511 0.0
C1833 C 0.56874 0.5236 0.97833 0.0
C1834 C 0.67947 0.29762 0.23354 0.0
C1835 C 0.69452 0.29054 0.21149 0.0
H1836 H 0.67728 0.32096 0.2687 0.0
C1837 C 0.7201 0.3009 0.20876 0.0
H1838 H 0.65983 0.28969 0.23614 0.0
C1839 C 0.7302 0.31846 0.22735 0.0
C1840 C 0.7149 0.32618 0.24902 0.0
H1841 H 0.73247 0.29522 0.19233 0.0
H1842 H 0.74988 0.32623 0.22453 0.0
C1843 C 0.68948 0.31546 0.25207 0.0
C1844 C 0.9374 0.43804 0.50095 0.0
C1845 C 0.92727 0.4637 0.49793 0.0
H1846 H 0.96288 0.408 0.48524 0.0
C1847 C 0.93583 0.4791 0.47667 0.0
H1848 H 0.9313 0.42577 0.51731 0.0
C1849 C 0.95359 0.46882 0.45837 0.0
C1850 C 0.96331 0.44297 0.46103 0.0
H1851 H 0.92855 0.49898 0.47394 0.0
H1852 H 0.95991 0.48121 0.4422 0.0
C1853 C 0.95544 0.42783 0.48272 0.0
C1854 C 0.7756 0.68216 0.72733 0.0
C1855 C 0.79019 0.67576 0.74991 0.0
H1856 H 0.77364 0.70468 0.69187 0.0
C1857 C 0.81483 0.68788 0.75386 0.0
H1858 H 0.75651 0.67331 0.7238 0.0
C1859 C 0.82475 0.70592 0.73545 0.0
C1860 C 0.81037 0.71187 0.7126 0.0
H1861 H 0.8265 0.68342 0.77116 0.0
H1862 H 0.84375 0.71499 0.73883 0.0
C1863 C 0.78559 0.69995 0.70888 0.0
C1864 C 0.57007 0.47804 0.52694 0.0
C1865 C 0.57766 0.46279 0.50518 0.0
H1866 H 0.54696 0.48023 0.56205 0.0
C1867 C 0.567 0.43735 0.50218 0.0
H1868 H 0.5778 0.49773 0.52972 0.0
C1869 C 0.54928 0.42727 0.52078 0.0
C1870 C 0.54224 0.44229 0.54286 0.0
H1871 H 0.5724 0.42518 0.48549 0.0
H1872 H 0.54135 0.40764 0.51817 0.0
C1873 C 0.55261 0.46787 0.5456 0.0
C1874 C 0.77405 0.31728 0.7733 0.0
C1875 C 0.79011 0.3264 0.75277 0.0
H1876 H 0.77116 0.29326 0.8077 0.0
C1877 C 0.81621 0.31714 0.75094 0.0
H1878 H 0.75382 0.32383 0.77511 0.0
C1879 C 0.82624 0.29959 0.76975 0.0
C1880 C 0.81043 0.29129 0.79082 0.0
H1881 H 0.82903 0.32374 0.7352 0.0
H1882 H 0.84649 0.29302 0.76826 0.0
C1883 C 0.7841 0.29995 0.79212 0.0
C1884 C 0.93498 0.5249 0.0263 0.0
C1885 C 0.92767 0.54015 0.00446 0.0
H1886 H 0.95806 0.52247 0.06142 0.0
C1887 C 0.93886 0.56535 1.00128 0.0
H1888 H 0.92684 0.50538 0.02921 0.0
C1889 C 0.95683 0.57517 0.01979 0.0
C1890 C 0.96358 0.56016 0.04197 0.0
H1891 H 0.9337 0.57751 0.98453 0.0
H1892 H 0.96516 0.59462 0.01705 0.0
C1893 C 0.95267 0.53482 0.04488 0.0
C1894 C 0.71988 0.70142 0.2962 0.0
C1895 C 0.69456 0.71234 0.29312 0.0
H1896 H 0.74936 0.67548 0.28077 0.0
C1897 C 0.67962 0.70548 0.27094 0.0
H1898 H 0.73217 0.70691 0.31275 0.0
C1899 C 0.68949 0.68739 0.25258 0.0
C1900 C 0.71467 0.6762 0.25591 0.0
H1901 H 0.66018 0.71381 0.26809 0.0
H1902 H 0.67738 0.68215 0.23581 0.0
C1903 C 0.72986 0.68362 0.27775 0.0
C1904 C 0.95898 0.55033 0.53329 0.0
C1905 C 0.96231 0.53957 0.55867 0.0
H1906 H 0.9743 0.57597 0.50343 0.0
C1907 C 0.98495 0.5459 0.57308 0.0
H1908 H 0.94205 0.54515 0.5214 0.0
C1909 C 0.00344 0.56351 0.56274 0.0
C1910 C 0.99976 0.5748 0.53765 0.0
H1911 H 0.98801 0.53763 0.59251 0.0
H1912 H 0.02051 0.56848 0.57456 0.0
C1913 C 0.97756 0.56773 0.52285 0.0
C1914 C 0.68337 0.72804 0.77355 0.0
C1915 C 0.67385 0.74828 0.78974 0.0
H1916 H 0.70776 0.69395 0.77051 0.0
C1917 C 0.68247 0.74968 0.81608 0.0
H1918 H 0.67729 0.72657 0.75314 0.0
C1919 C 0.69993 0.73084 0.82614 0.0
C1920 C 0.70882 0.71016 0.81012 0.0
H1921 H 0.67555 0.76518 0.82902 0.0
H1922 H 0.70608 0.73208 0.84653 0.0
C1923 C 0.70063 0.70919 0.78362 0.0
C1924 C 0.52029 0.45786 0.07576 0.0
C1925 C 0.54266 0.46439 0.06095 0.0
H1926 H 0.4846 0.43534 0.07762 0.0
C1927 C 0.54542 0.45393 0.0354 0.0
H1928 H 0.51766 0.46589 0.09536 0.0
C1929 C 0.52652 0.4368 0.0251 0.0
C1930 C 0.50452 0.4296 0.04019 0.0
H1931 H 0.56211 0.4592 0.02321 0.0
H1932 H 0.52936 0.42889 0.00547 0.0
C1933 C 0.50147 0.44044 0.06557 0.0
C1934 C 0.80009 0.27081 0.32601 0.0
C1935 C 0.7931 0.29292 0.31102 0.0
H1936 H 0.82313 0.23547 0.32807 0.0
C1937 C 0.80348 0.29562 0.28542 0.0
H1938 H 0.79217 0.26821 0.34566 0.0
C1939 C 0.82087 0.2769 0.27522 0.0
C1940 C 0.82843 0.25512 0.29045 0.0
H1941 H 0.79788 0.31209 0.27308 0.0
H1942 H 0.82862 0.27965 0.25552 0.0
C1943 C 0.81777 0.25216 0.31591 0.0
C1944 C 0.95949 0.45345 0.96874 0.0
C1945 C 0.96229 0.46305 0.94287 0.0
H1946 H 0.97485 0.42846 0.99904 0.0
C1947 C 0.98407 0.45518 0.92786 0.0
H1948 H 0.94323 0.45979 0.98102 0.0
C1949 C 0.00222 0.43717 0.93821 0.0
C1950 C 0.99904 0.42711 0.96388 0.0
H1951 H 0.98669 0.46254 0.90801 0.0
H1952 H 0.01862 0.431 0.92603 0.0
C1953 C 0.97771 0.43572 0.97917 0.0
C1954 C 0.80322 0.70775 0.21942 0.0
C1955 C 0.79261 0.71088 0.19397 0.0
H1956 H 0.82898 0.72299 0.24915 0.0
C1957 C 0.7998 0.73299 0.17908 0.0
H1958 H 0.79749 0.69125 0.23165 0.0
C1959 C 0.81793 0.75121 0.18912 0.0
C1960 C 0.82883 0.74781 0.21442 0.0
H1961 H 0.7917 0.73588 0.15955 0.0
H1962 H 0.82343 0.76792 0.17705 0.0
C1963 C 0.82106 0.72606 0.22956 0.0
C1964 C 0.52736 0.56957 0.47864 0.0
C1965 C 0.50566 0.57734 0.46343 0.0
H1966 H 0.56219 0.54601 0.48084 0.0
C1967 C 0.5024 0.56647 0.43809 0.0
H1968 H 0.53033 0.57745 0.49826 0.0
C1969 C 0.52069 0.54836 0.42809 0.0
C1970 C 0.54274 0.54115 0.44307 0.0
H1971 H 0.48573 0.57198 0.42596 0.0
H1972 H 0.51788 0.54029 0.40854 0.0
C1973 C 0.54574 0.55175 0.46854 0.0
C1974 C 0.68633 0.25406 0.68519 0.0
C1975 C 0.67571 0.25716 0.71064 0.0
H1976 H 0.7122 0.26977 0.65551 0.0
C1977 C 0.68357 0.27876 0.72595 0.0
H1978 H 0.68073 0.23747 0.67299 0.0
C1979 C 0.70128 0.29718 0.71585 0.0
C1980 C 0.7116 0.29436 0.69024 0.0
H1981 H 0.67589 0.28158 0.74567 0.0
H1982 H 0.70716 0.3135 0.72825 0.0
C1983 C 0.70429 0.27243 0.67515 0.0
C1984 C 0.53563 0.95792 0.55151 0.0
C1985 C 0.56106 0.96088 0.54083 0.0
H1986 H 0.50602 0.97337 0.57726 0.0
C1987 C 0.57609 0.98294 0.54796 0.0
H1988 H 0.52327 0.9415 0.54582 0.0
C1989 C 0.56616 1.00127 0.56607 0.0
C1990 C 0.54086 0.99804 0.57701 0.0
H1991 H 0.59561 0.98571 0.53982 0.0
H1992 H 0.57831 0.01794 0.57152 0.0
C1993 C 0.52561 0.97632 0.56933 0.0
C1994 C 0.0259 0.52402 0.43754 0.0
C1995 C 0.04204 0.50419 0.42712 0.0
H1996 H 0.02322 0.55758 0.46279 0.0
C1997 C 0.06852 0.50265 0.43535 0.0
H1998 H 0.00538 0.52556 0.43187 0.0
C1999 C 0.0788 0.52111 0.45314 0.0
C2000 C 0.06284 0.54151 0.46272 0.0
H2001 H 0.08141 0.48742 0.42776 0.0
H2002 H 0.09931 0.51993 0.45889 0.0
C2003 C 0.03618 0.54246 0.45512 0.0
C2004 C 0.70679 0.78524 0.70257 0.0
C2005 C 0.70959 0.81069 0.71327 0.0
H2006 H 0.7228 0.75552 0.67725 0.0
C2007 C 0.73193 0.82556 0.70678 0.0
H2008 H 0.69011 0.77301 0.70779 0.0
C2009 C 0.75071 0.8155 0.68922 0.0
C2010 C 0.74764 0.79022 0.67819 0.0
H2011 H 0.73459 0.84507 0.71497 0.0
H2012 H 0.76757 0.82758 0.68421 0.0
C2013 C 0.72565 0.77509 0.68529 0.0
C2014 C 0.42723 0.48554 0.95511 0.0
C2015 C 0.44167 0.4628 0.96126 0.0
H2016 H 0.42548 0.52113 0.93241 0.0
C2017 C 0.46654 0.4591 0.94949 0.0
H2018 H 0.40816 0.48891 0.96406 0.0
C2019 C 0.47655 0.47747 0.93164 0.0
C2020 C 0.46192 0.49996 0.92506 0.0
H2021 H 0.47854 0.44217 0.95439 0.0
H2022 H 0.49572 0.47397 0.92293 0.0
C2023 C 0.43718 0.50389 0.93703 0.0
C2024 C 0.24925 0.6859 0.68727 0.0
C2025 C 0.25273 0.71066 0.67525 0.0
H2026 H 0.26484 0.65719 0.71425 0.0
C2027 C 0.27512 0.72557 0.6815 0.0
H2028 H 0.23208 0.674 0.6829 0.0
C2029 C 0.29379 0.71586 0.69918 0.0
C2030 C 0.29048 0.69104 0.71111 0.0
H2031 H 0.27828 0.74477 0.67273 0.0
H2032 H 0.31059 0.72812 0.70389 0.0
C2033 C 0.2679 0.67625 0.70518 0.0
C2034 C 0.92982 0.0197 0.05023 0.0
C2035 C 0.94441 0.04215 0.04342 0.0
H2036 H 0.92804 0.98459 0.07358 0.0
C2037 C 0.96941 0.04595 0.0548 0.0
H2038 H 0.91063 0.01631 0.04155 0.0
C2039 C 0.97954 0.02776 0.07278 0.0
C2040 C 0.96477 0.00554 0.07994 0.0
H2041 H 0.98139 0.06275 0.04941 0.0
H2042 H 0.99885 0.03122 0.08119 0.0
C2043 C 0.93981 1.00165 0.06851 0.0
C2044 C 0.73363 0.18132 0.79549 0.0
C2045 C 0.71089 0.19586 0.78965 0.0
H2046 H 0.76926 0.17913 0.81794 0.0
C2047 C 0.70731 0.22061 0.80173 0.0
H2048 H 0.7369 0.16233 0.78633 0.0
C2049 C 0.72585 0.23039 0.81961 0.0
C2050 C 0.74828 0.21556 0.82591 0.0
H2051 H 0.69034 0.23266 0.7971 0.0
H2052 H 0.72247 0.24943 0.82866 0.0
C2053 C 0.75206 0.19098 0.81357 0.0
C2054 C 0.77866 0.77478 0.32058 0.0
C2055 C 0.75694 0.79005 0.32817 0.0
H2056 H 0.81359 0.77243 0.29721 0.0
C2057 C 0.75373 0.81533 0.31718 0.0
H2058 H 0.78158 0.7552 0.32856 0.0
C2059 C 0.77211 0.82523 0.29913 0.0
C2060 C 0.79419 0.8102 0.29212 0.0
H2061 H 0.73704 0.8275 0.32255 0.0
H2062 H 0.76937 0.84475 0.29096 0.0
C2063 C 0.79712 0.78477 0.30282 0.0
C2064 C 0.13992 0.06192 0.30525 0.0
C2065 C 0.15337 0.08218 0.31861 0.0
H2066 H 0.10403 0.03955 0.30169 0.0
C2067 C 0.14008 0.09582 0.33875 0.0
H2068 H 0.14965 0.05098 0.28972 0.0
C2069 C 0.11418 0.0894 0.34548 0.0
C2070 C 0.10069 0.06906 0.33237 0.0
H2071 H 0.14968 0.11171 0.34927 0.0
H2072 H 0.10478 0.10026 0.36127 0.0
C2073 C 0.11391 0.05525 0.31224 0.0
C2074 C 0.19707 0.86193 0.56217 0.0
C2075 C 0.18367 0.84911 0.58281 0.0
H2076 H 0.20156 0.89759 0.5396 0.0
C2077 C 0.16451 0.86327 0.59696 0.0
H2078 H 0.21187 0.85153 0.55084 0.0
C2079 C 0.15869 0.88939 0.59061 0.0
C2080 C 0.17181 0.90227 0.56989 0.0
H2081 H 0.15402 0.85417 0.61317 0.0
H2082 H 0.14356 0.89944 0.60184 0.0
C2083 C 0.19102 0.8882 0.55561 0.0
C2084 C 0.36423 0.91007 0.83972 0.0
C2085 C 0.35058 0.92375 0.81989 0.0
H2086 H 0.39998 0.90553 0.86145 0.0
C2087 C 0.36374 0.94403 0.80628 0.0
H2088 H 0.35486 0.89414 0.85039 0.0
C2089 C 0.38989 0.95061 0.81267 0.0
C2090 C 0.40349 0.93671 0.83245 0.0
H2091 H 0.35371 0.955 0.79097 0.0
H2092 H 0.39959 0.96628 0.8019 0.0
C2093 C 0.39025 0.91643 0.84589 0.0
C2094 C 0.31116 0.11327 0.0557 0.0
C2095 C 0.33196 0.10039 0.06881 0.0
H2096 H 0.28841 0.14887 0.0517 0.0
C2097 C 0.34616 0.11445 0.088 0.0
H2098 H 0.29977 0.10296 0.04089 0.0
C2099 C 0.33974 0.14049 0.09413 0.0
C2100 C 0.31887 0.15342 0.08128 0.0
H2101 H 0.36249 0.10533 0.09828 0.0
H2102 H 0.35102 0.15043 0.10927 0.0
C2103 C 0.30453 0.13945 0.06204 0.0
C2104 C 0.11699 0.94908 0.1915 0.0
C2105 C 0.1035 0.93538 0.17151 0.0
H2106 H 0.15313 0.95352 0.21322 0.0
C2107 C 0.11699 0.91557 0.1576 0.0
H2108 H 0.10712 0.96439 0.20262 0.0
C2109 C 0.14317 0.90948 0.16354 0.0
C2110 C 0.15668 0.92291 0.18365 0.0
H2111 H 0.10733 0.90482 0.14189 0.0
H2112 H 0.15274 0.89388 0.15254 0.0
C2113 C 0.14325 0.94274 0.19768 0.0
C2114 C 0.33761 0.86412 0.4086 0.0
C2115 C 0.31733 0.85099 0.42214 0.0
H2116 H 0.36013 0.89939 0.40403 0.0
C2117 C 0.30369 0.86463 0.44208 0.0
H2118 H 0.34834 0.85434 0.39295 0.0
C2119 C 0.31056 0.89072 0.44856 0.0
C2120 C 0.33085 0.90378 0.43485 0.0
H2121 H 0.28803 0.85501 0.45293 0.0
H2122 H 0.29982 0.90077 0.46402 0.0
C2123 C 0.34422 0.89009 0.41481 0.0
C2124 C 0.35657 0.05882 0.67089 0.0
C2125 C 0.35138 0.07876 0.68948 0.0
H2126 H 0.38569 0.03722 0.64919 0.0
C2127 C 0.37288 0.09107 0.70192 0.0
H2128 H 0.34052 0.04871 0.66111 0.0
C2129 C 0.39883 0.0844 0.69514 0.0
C2130 C 0.40401 0.06511 0.67586 0.0
H2131 H 0.36969 0.10663 0.71617 0.0
H2132 H 0.41488 0.09469 0.70472 0.0
C2133 C 0.38252 0.05203 0.66423 0.0
C2134 C 0.16484 0.14051 0.90799 0.0
C2135 C 0.18451 0.1544 0.92168 0.0
H2136 H 0.14303 0.10475 0.90392 0.0
C2137 C 0.19774 0.14165 0.94246 0.0
H2138 H 0.15445 0.14959 0.8917 0.0
C2139 C 0.1911 0.11568 0.94956 0.0
C2140 C 0.17147 0.10186 0.93567 0.0
H2141 H 0.21291 0.15187 0.95345 0.0
H2142 H 0.20155 0.1063 0.96563 0.0
C2143 C 0.15845 0.11467 0.91485 0.0
C2144 C 0.06059 0.30481 0.14093 0.0
C2145 C 0.08107 0.31826 0.15394 0.0
H2146 H 0.03788 0.30079 0.1053 0.0
C2147 C 0.09468 0.33811 0.14025 0.0
H2148 H 0.04968 0.28948 0.15101 0.0
C2149 C 0.08806 0.34445 0.11432 0.0
C2150 C 0.06755 0.3312 0.10125 0.0
H2151 H 0.11073 0.34867 0.14954 0.0
H2152 H 0.09895 0.35998 0.10453 0.0
C2153 C 0.05371 0.31141 0.11489 0.0
C2154 C 0.55538 0.19443 0.88796 0.0
C2155 C 0.56931 0.17454 0.90139 0.0
H2156 H 0.55079 0.21628 0.85188 0.0
C2157 C 0.58952 0.16117 0.88798 0.0
H2158 H 0.53977 0.20517 0.89778 0.0
C2159 C 0.59573 0.16743 0.86193 0.0
C2160 C 0.58197 0.18731 0.84842 0.0
H2161 H 0.60045 0.14554 0.89756 0.0
H2162 H 0.61157 0.15676 0.85239 0.0
C2163 C 0.56182 0.20092 0.86178 0.0
C2164 C 0.90946 0.8384 0.3654 0.0
C2165 C 0.92294 0.81816 0.3521 0.0
H2166 H 0.90497 0.86069 0.40084 0.0
C2167 C 0.94287 0.80441 0.36565 0.0
H2168 H 0.8938 0.8492 0.35573 0.0
C2169 C 0.94935 0.81108 0.39178 0.0
C2170 C 0.93568 0.83129 0.40501 0.0
H2171 H 0.95369 0.78879 0.35592 0.0
H2172 H 0.96478 0.80021 0.40174 0.0
C2173 C 0.9157 0.84482 0.39141 0.0
C2174 C 0.94138 0.19808 0.13887 0.0
C2175 C 0.92209 0.18377 0.1528 0.0
H2176 H 0.96246 0.20295 0.10235 0.0
C2177 C 0.9091 0.16306 0.13978 0.0
H2178 H 0.95184 0.21408 0.14835 0.0
C2179 C 0.9151 0.15677 0.11366 0.0
C2180 C 0.93434 0.17095 0.09963 0.0
H2181 H 0.89392 0.1518 0.1497 0.0
H2182 H 0.9047 0.14056 0.10446 0.0
C2183 C 0.94761 0.19158 0.11261 0.0
C2184 C 0.44047 0.69843 0.64039 0.0
C2185 C 0.42043 0.68461 0.6537 0.0
H2186 H 0.46282 0.70268 0.60456 0.0
C2187 C 0.4072 0.66432 0.64025 0.0
H2188 H 0.45109 0.7141 0.65025 0.0
C2189 C 0.41381 0.65788 0.61433 0.0
C2190 C 0.43391 0.67147 0.60096 0.0
H2191 H 0.39148 0.65345 0.64974 0.0
H2192 H 0.40326 0.64197 0.60479 0.0
C2193 C 0.44732 0.69176 0.61434 0.0
C2194 C 0.05759 0.69195 0.38989 0.0
C2195 C 0.07164 0.67235 0.40361 0.0
H2196 H 0.053 0.71343 0.3536 0.0
C2197 C 0.09218 0.65916 0.3905 0.0
H2198 H 0.04173 0.70253 0.39948 0.0
C2199 C 0.09845 0.66523 0.36438 0.0
C2200 C 0.08452 0.6848 0.3506 0.0
H2201 H 0.10321 0.64375 0.40032 0.0
H2202 H 0.11443 0.65463 0.35499 0.0
C2203 C 0.06415 0.69831 0.36372 0.0
C2204 C 0.44147 0.30645 0.8643 0.0
C2205 C 0.42133 0.32007 0.85093 0.0
H2206 H 0.46377 0.30246 0.90019 0.0
C2207 C 0.4079 0.34029 0.86431 0.0
H2208 H 0.45224 0.29085 0.8545 0.0
C2209 C 0.41438 0.3468 0.89024 0.0
C2210 C 0.43455 0.33339 0.90367 0.0
H2211 H 0.39211 0.35101 0.85476 0.0
H2212 H 0.40365 0.36263 0.89975 0.0
C2213 C 0.44819 0.31322 0.89035 0.0
C2214 C 0.61318 0.58776 0.84364 0.0
C2215 C 0.59958 0.56791 0.82991 0.0
H2216 H 0.64893 0.60939 0.84853 0.0
C2217 C 0.61302 0.55409 0.80993 0.0
H2218 H 0.60365 0.59861 0.85936 0.0
C2219 C 0.63934 0.56032 0.80367 0.0
C2220 C 0.65286 0.58016 0.81761 0.0
H2221 H 0.60308 0.53875 0.79891 0.0
H2222 H 0.64922 0.5494 0.78822 0.0
C2223 C 0.63933 0.59378 0.8376 0.0
C2224 C 0.66021 0.38968 0.08979 0.0
C2225 C 0.67336 0.4031 0.06943 0.0
H2226 H 0.65622 0.35418 0.11205 0.0
C2227 C 0.69336 0.38978 0.05554 0.0
H2228 H 0.64451 0.39917 0.10071 0.0
C2229 C 0.70016 0.36371 0.06212 0.0
C2230 C 0.68674 0.35033 0.08239 0.0
H2231 H 0.70394 0.39961 0.03982 0.0
H2232 H 0.71558 0.35388 0.05111 0.0
C2233 C 0.66677 0.36374 0.09614 0.0
C2234 C 0.87263 0.41397 0.30201 0.0
C2235 C 0.8512 0.42599 0.31486 0.0
H2236 H 0.91461 0.41041 0.29888 0.0
C2237 C 0.85649 0.44548 0.3339 0.0
H2238 H 0.86938 0.39876 0.28741 0.0
C2239 C 0.88247 0.4521 0.34056 0.0
C2240 C 0.90389 0.43929 0.32849 0.0
H2241 H 0.84049 0.45535 0.34401 0.0
H2242 H 0.88573 0.46655 0.35593 0.0
C2243 C 0.89861 0.42047 0.3088 0.0
C2244 C 0.83944 0.64055 0.59557 0.0
C2245 C 0.81923 0.65403 0.58225 0.0
H2246 H 0.86184 0.60512 0.59949 0.0
C2247 C 0.80569 0.64085 0.56193 0.0
H2248 H 0.85009 0.64993 0.61152 0.0
C2249 C 0.81252 0.61488 0.55495 0.0
C2250 C 0.83267 0.60146 0.56849 0.0
H2251 H 0.7901 0.65072 0.55122 0.0
H2252 H 0.80179 0.60518 0.53926 0.0
C2253 C 0.84603 0.61471 0.58883 0.0
C2254 C 0.64019 0.44344 0.6989 0.0
C2255 C 0.65356 0.42343 0.68508 0.0
H2256 H 0.60418 0.46553 0.70325 0.0
C2257 C 0.64011 0.40999 0.66494 0.0
H2258 H 0.65005 0.45421 0.71446 0.0
C2259 C 0.6141 0.41632 0.65867 0.0
C2260 C 0.60066 0.43638 0.67226 0.0
H2261 H 0.64968 0.39429 0.65408 0.0
H2262 H 0.60453 0.40559 0.64289 0.0
C2263 C 0.61405 0.45004 0.69236 0.0
C2264 C 0.84773 0.38891 0.91545 0.0
C2265 C 0.83399 0.40253 0.9353 0.0
H2266 H 0.85246 0.35315 0.8937 0.0
C2267 C 0.81396 0.38914 0.94907 0.0
H2268 H 0.86346 0.39848 0.90464 0.0
C2269 C 0.80754 0.36292 0.94269 0.0
C2270 C 0.82138 0.34939 0.92278 0.0
H2271 H 0.80295 0.3991 0.96441 0.0
H2272 H 0.79194 0.35316 0.95349 0.0
C2273 C 0.84158 0.36277 0.90934 0.0
C2274 C 0.89088 0.55449 0.19174 0.0
C2275 C 0.90426 0.56822 0.17168 0.0
H2276 H 0.85496 0.55029 0.21394 0.0
C2277 C 0.89086 0.58843 0.15828 0.0
H2278 H 0.90069 0.53889 0.20249 0.0
C2279 C 0.8649 0.59486 0.16474 0.0
C2280 C 0.85146 0.58133 0.18483 0.0
H2281 H 0.9004 0.59921 0.14252 0.0
H2282 H 0.8554 0.61071 0.15406 0.0
C2283 C 0.8648 0.56115 0.19842 0.0
C2284 C 0.69255 0.61325 0.44859 0.0
C2285 C 0.67243 0.60003 0.43479 0.0
H2286 H 0.71482 0.64909 0.45305 0.0
C2287 C 0.65903 0.61362 0.41472 0.0
H2288 H 0.70331 0.60329 0.46409 0.0
C2289 C 0.66551 0.63962 0.4085 0.0
C2290 C 0.68566 0.65291 0.42211 0.0
H2291 H 0.64323 0.60421 0.40388 0.0
H2292 H 0.65482 0.64928 0.39276 0.0
C2293 C 0.69927 0.63937 0.44214 0.0
C2294 C 0.59376 0.83894 0.63878 0.0
C2295 C 0.58018 0.81883 0.65212 0.0
H2296 H 0.59841 0.86104 0.60325 0.0
C2297 C 0.56018 0.80512 0.63863 0.0
H2298 H 0.60946 0.84971 0.64842 0.0
C2299 C 0.55376 0.8117 0.61247 0.0
C2300 C 0.56756 0.83176 0.59918 0.0
H2301 H 0.5493 0.78959 0.64841 0.0
H2302 H 0.5383 0.80087 0.60252 0.0
C2303 C 0.58758 0.84528 0.61274 0.0
C2304 C 0.93127 0.15394 0.32292 0.0
C2305 C 0.91432 0.13976 0.30615 0.0
H2306 H 0.96045 0.1523 0.35343 0.0
C2307 C 0.91505 0.11209 0.30686 0.0
H2308 H 0.93121 0.17528 0.32292 0.0
C2309 C 0.93214 0.09891 0.32408 0.0
C2310 C 0.94855 0.1131 0.34139 0.0
H2311 H 0.90237 0.10057 0.29413 0.0
H2312 H 0.93206 0.07756 0.32423 0.0
C2313 C 0.94799 0.14077 0.3405 0.0
C2314 C 0.13619 0.69024 0.57559 0.0
C2315 C 0.12876 0.70111 0.60007 0.0
H2316 H 0.1247 0.66616 0.54257 0.0
C2317 C 0.10336 0.696 0.60971 0.0
H2318 H 0.15564 0.69387 0.56757 0.0
C2319 C 0.08598 0.68013 0.59565 0.0
C2320 C 0.09331 0.66895 0.57137 0.0
H2321 H 0.09687 0.70399 0.62841 0.0
H2322 H 0.06664 0.67666 0.60398 0.0
C2323 C 0.11852 0.67441 0.56126 0.0
C2324 C 0.57118 0.90477 0.82273 0.0
C2325 C 0.55483 0.89095 0.84036 0.0
H2326 H 0.60049 0.90248 0.79241 0.0
C2327 C 0.55494 0.86327 0.83969 0.0
H2328 H 0.57157 0.92611 0.8227 0.0
C2329 C 0.57123 0.84972 0.822 0.0
C2330 C 0.58815 0.86355 0.80492 0.0
H2331 H 0.54247 0.85203 0.85288 0.0
H2332 H 0.571 0.82838 0.82216 0.0
C2333 C 0.58782 0.89123 0.80539 0.0
C2334 C 0.36222 0.34105 0.056 0.0
C2335 C 0.3899 0.34195 0.05558 0.0
H2336 H 0.32762 0.32338 0.07255 0.0
C2337 C 0.40401 0.32454 0.07193 0.0
H2338 H 0.35075 0.35406 0.04356 0.0
C2339 C 0.39076 0.30723 0.08887 0.0
C2340 C 0.36308 0.30653 0.0895 0.0
H2341 H 0.42535 0.32467 0.0721 0.0
H2342 H 0.40223 0.29444 0.10152 0.0
C2343 C 0.34897 0.32338 0.07257 0.0
C2344 C 0.93287 0.84891 0.18325 0.0
C2345 C 0.91549 0.86286 0.19978 0.0
H2346 H 0.96272 0.85098 0.15342 0.0
C2347 C 0.91612 0.89054 0.1994 0.0
H2348 H 0.93289 0.82757 0.18302 0.0
C2349 C 0.93354 0.90395 0.18272 0.0
C2350 C 0.95039 0.89 0.16565 0.0
H2351 H 0.90311 0.90188 0.21196 0.0
H2352 H 0.93335 0.9253 0.18278 0.0
C2353 C 0.94993 0.86232 0.16621 0.0
C2354 C 0.40384 0.68112 0.43257 0.0
C2355 C 0.38999 0.66361 0.44902 0.0
H2356 H 0.40162 0.71106 0.40288 0.0
C2357 C 0.3623 0.66416 0.44871 0.0
H2358 H 0.42518 0.68122 0.43231 0.0
C2359 C 0.34878 0.6816 0.43212 0.0
C2360 C 0.36265 0.69853 0.41509 0.0
H2361 H 0.35103 0.65106 0.46123 0.0
H2362 H 0.32744 0.68134 0.43219 0.0
C2363 C 0.39033 0.69819 0.41564 0.0
C2364 C 0.55526 0.14136 0.6637 0.0
C2365 C 0.55518 0.11369 0.66298 0.0
H2366 H 0.57206 0.17627 0.6804 0.0
C2367 C 0.57256 0.0999 0.67966 0.0
H2368 H 0.54207 0.15259 0.65122 0.0
C2369 C 0.59007 0.11348 0.69612 0.0
C2370 C 0.59029 0.14116 0.69666 0.0
H2371 H 0.57305 0.07856 0.6796 0.0
H2372 H 0.60345 0.10227 0.70839 0.0
C2373 C 0.57243 0.15493 0.6805 0.0
C2374 C 0.15287 0.32141 0.93064 0.0
C2375 C 0.13896 0.30519 0.91296 0.0
H2376 H 0.15076 0.35066 0.96099 0.0
C2377 C 0.11127 0.30545 0.91362 0.0
H2378 H 0.17421 0.3217 0.93068 0.0
C2379 C 0.09781 0.32179 0.93134 0.0
C2380 C 0.11175 0.3386 0.94844 0.0
H2381 H 0.09998 0.29308 0.90039 0.0
H2382 H 0.07646 0.32173 0.93118 0.0
C2383 C 0.13942 0.33807 0.948 0.0
C2384 C 0.3117 0.9243 0.1332 0.0
C2385 C 0.32333 0.91758 0.15746 0.0
H2386 H 0.31594 0.94539 0.0966 0.0
C2387 C 0.34836 0.9278 0.16347 0.0
H2388 H 0.2924 0.91681 0.12804 0.0
C2389 C 0.36152 0.94419 0.14589 0.0
C2390 C 0.35025 0.95078 0.12152 0.0
H2391 H 0.35795 0.92331 0.182 0.0
H2392 H 0.3808 0.95146 0.15143 0.0
C2393 C 0.32516 0.94064 0.11525 0.0
C2394 C 0.30616 0.0896 0.39052 0.0
C2395 C 0.30567 0.09017 0.36284 0.0
H2396 H 0.32308 0.07257 0.42523 0.0
C2397 C 0.32224 0.07289 0.34883 0.0
H2398 H 0.29356 0.10253 0.4019 0.0
C2399 C 0.33946 0.05599 0.36219 0.0
C2400 C 0.34017 0.05563 0.38987 0.0
H2401 H 0.32235 0.07281 0.32748 0.0
H2402 H 0.35227 0.04326 0.3508 0.0
C2403 C 0.32304 0.07235 0.40388 0.0
C2404 C 0.18251 0.07103 0.60012 0.0
C2405 C 0.16497 0.05496 0.61438 0.0
H2406 H 0.21258 0.10065 0.60159 0.0
C2407 C 0.16557 0.05593 0.64206 0.0
H2408 H 0.18258 0.07081 0.57877 0.0
C2409 C 0.18309 0.07278 0.65515 0.0
C2410 C 0.20008 0.08942 0.64086 0.0
H2411 H 0.15244 0.04372 0.65364 0.0
H2412 H 0.18286 0.07319 0.67649 0.0
C2413 C 0.19969 0.08822 0.6132 0.0
C2414 C 0.18162 0.93267 0.9067 0.0
C2415 C 0.16434 0.9493 0.89277 0.0
H2416 H 0.21123 0.90258 0.90453 0.0
C2417 C 0.1649 0.94887 0.86508 0.0
H2418 H 0.18168 0.9325 0.92805 0.0
C2419 C 0.1821 0.93203 0.85163 0.0
C2420 C 0.19883 0.91483 0.86553 0.0
H2421 H 0.15197 0.96151 0.85374 0.0
H2422 H 0.18183 0.93208 0.83029 0.0
C2423 C 0.1985 0.91545 0.89323 0.0
C2424 C 0.61352 0.19852 0.08911 0.0
C2425 C 0.6412 0.19884 0.08968 0.0
H2426 H 0.57871 0.18229 0.07162 0.0
C2427 C 0.6551 0.18265 0.07194 0.0
H2428 H 0.60223 0.21084 0.10238 0.0
C2429 C 0.64163 0.16599 0.05457 0.0
C2430 C 0.61395 0.16548 0.05418 0.0
H2431 H 0.67644 0.18242 0.07184 0.0
H2432 H 0.65293 0.15346 0.04149 0.0
C2433 C 0.60005 0.18221 0.07139 0.0
C2434 C 0.0727 0.3491 0.32186 0.0
C2435 C 0.09019 0.36323 0.3056 0.0
H2436 H 0.04263 0.35088 0.3515 0.0
C2437 C 0.08954 0.39089 0.30623 0.0
H2438 H 0.07267 0.32776 0.32186 0.0
C2439 C 0.07203 0.40413 0.32294 0.0
C2440 C 0.05507 0.39001 0.33975 0.0
H2441 H 0.10262 0.40236 0.29387 0.0
H2442 H 0.07222 0.42547 0.32309 0.0
C2443 C 0.05551 0.36234 0.33891 0.0
C2444 C 0.90444 0.82318 0.57443 0.0
C2445 C 0.89056 0.84013 0.55742 0.0
H2446 H 0.90226 0.794 0.60491 0.0
C2447 C 0.86288 0.83944 0.55766 0.0
H2448 H 0.92579 0.8232 0.57477 0.0
C2449 C 0.8494 0.82237 0.57466 0.0
C2450 C 0.86328 0.80596 0.5922 0.0
H2451 H 0.85159 0.85213 0.54474 0.0
H2452 H 0.82805 0.82248 0.57445 0.0
C2453 C 0.89096 0.80648 0.59178 0.0
C2454 C 0.09055 0.61161 0.19728 0.0
C2455 C 0.09137 0.63928 0.19783 0.0
H2456 H 0.07324 0.57709 0.18029 0.0
C2457 C 0.07427 0.65346 0.18121 0.0
H2458 H 0.10333 0.60011 0.20991 0.0
C2459 C 0.0573 0.64027 0.1639 0.0
C2460 C 0.05667 0.61261 0.16317 0.0
H2461 H 0.07439 0.6748 0.18113 0.0
H2462 H 0.04472 0.65178 0.15106 0.0
C2463 C 0.07322 0.59843 0.18034 0.0
C2464 C 0.44817 0.36308 0.66494 0.0
C2465 C 0.4486 0.39074 0.66394 0.0
H2466 H 0.43116 0.32858 0.68231 0.0
C2467 C 0.43179 0.40496 0.68083 0.0
H2468 H 0.46096 0.35154 0.65233 0.0
C2469 C 0.41441 0.39181 0.69774 0.0
C2470 C 0.41376 0.36414 0.69852 0.0
H2471 H 0.43162 0.4263 0.68058 0.0
H2472 H 0.40141 0.40334 0.71014 0.0
C2473 C 0.43113 0.34993 0.68221 0.0
C2474 C 0.43314 0.59857 0.81637 0.0
C2475 C 0.43735 0.60792 0.84208 0.0
H2476 H 0.4143 0.60525 0.77904 0.0
C2477 C 0.42722 0.63259 0.84934 0.0
H2478 H 0.44052 0.57941 0.81048 0.0
C2479 C 0.41302 0.6477 0.83113 0.0
C2480 C 0.40778 0.63784 0.80579 0.0
H2481 H 0.43008 0.64003 0.86914 0.0
H2482 H 0.40518 0.66662 0.83719 0.0
C2483 C 0.41805 0.61321 0.7985 0.0
C2484 C 0.88837 0.17923 0.93984 0.0
C2485 C 0.88173 0.15416 0.94984 0.0
H2486 H 0.87603 0.21244 0.91634 0.0
C2487 C 0.85706 0.14347 0.94338 0.0
H2488 H 0.90724 0.18805 0.94449 0.0
C2489 C 0.8396 0.15712 0.92725 0.0
C2490 C 0.846 0.18211 0.91713 0.0
H2491 H 0.85118 0.12425 0.95055 0.0
H2492 H 0.82085 0.14793 0.92287 0.0
C2493 C 0.87054 0.19319 0.92375 0.0
C2494 C 0.59987 0.82289 0.43081 0.0
C2495 C 0.61371 0.84026 0.44743 0.0
H2496 H 0.60216 0.79307 0.40096 0.0
C2497 C 0.64139 0.83966 0.4472 0.0
H2498 H 0.57853 0.82283 0.43049 0.0
C2499 C 0.65492 0.82229 0.43055 0.0
C2500 C 0.64109 0.80546 0.41339 0.0
H2501 H 0.65265 0.85266 0.45984 0.0
H2502 H 0.67626 0.8225 0.43073 0.0
C2503 C 0.6134 0.80587 0.41381 0.0
C2504 C 0.82248 0.43293 0.59807 0.0
C2505 C 0.83999 0.44921 0.61213 0.0
H2506 H 0.79262 0.40315 0.59997 0.0
C2507 C 0.83957 0.44849 0.63981 0.0
H2508 H 0.82229 0.433 0.57672 0.0
C2509 C 0.82227 0.43165 0.65312 0.0
C2510 C 0.80533 0.4148 0.63905 0.0
H2511 H 0.85269 0.46087 0.65121 0.0
H2512 H 0.82261 0.43143 0.67447 0.0
C2513 C 0.80552 0.41575 0.61138 0.0
C2514 C 0.83357 0.54822 0.86312 0.0
C2515 C 0.84409 0.5555 0.88765 0.0
H2516 H 0.81109 0.56035 0.82938 0.0
C2517 C 0.83933 0.58099 0.89737 0.0
H2518 H 0.83698 0.52866 0.85527 0.0
C2519 C 0.82534 0.59933 0.88222 0.0
C2520 C 0.81495 0.59209 0.85765 0.0
H2521 H 0.84738 0.58705 0.9162 0.0
H2522 H 0.82284 0.61922 0.88956 0.0
C2523 C 0.81869 0.56624 0.84845 0.0
C2524 C 0.66571 0.55615 0.14088 0.0
C2525 C 0.66508 0.55563 0.1132 0.0
H2526 H 0.68266 0.57317 0.17556 0.0
C2527 C 0.68218 0.57237 0.09917 0.0
H2528 H 0.65292 0.54344 0.15229 0.0
C2529 C 0.69896 0.58976 0.11251 0.0
C2530 C 0.6994 0.59044 0.1402 0.0
H2531 H 0.68219 0.57248 0.07782 0.0
H2532 H 0.71156 0.60269 0.10113 0.0
C2533 C 0.68284 0.57316 0.15422 0.0
C2534 C 0.68244 0.43063 0.34888 0.0
C2535 C 0.69951 0.41399 0.36309 0.0
H2536 H 0.6516 0.45949 0.3505 0.0
C2537 C 0.69894 0.41491 0.39076 0.0
H2538 H 0.68234 0.43043 0.32753 0.0
C2539 C 0.68157 0.43187 0.4039 0.0
C2540 C 0.664 0.44799 0.38971 0.0
H2541 H 0.71187 0.40247 0.40231 0.0
H2542 H 0.68155 0.43192 0.42525 0.0
C2543 C 0.66473 0.44725 0.36203 0.0
C2544 C 0.96169 0.02097 0.23961 0.0
C2545 C 0.97252 0.99863 0.2272 0.0
H2546 H 0.95321 0.04044 0.27611 0.0
C2547 C 0.98252 0.97813 0.24294 0.0
H2548 H 0.95332 0.03693 0.22828 0.0
C2549 C 0.98196 0.98005 0.2703 0.0
C2550 C 0.97171 0.00261 0.28253 0.0
H2551 H 0.99139 0.9608 0.2343 0.0
H2552 H 0.99028 0.96421 0.28192 0.0
C2553 C 0.96151 0.02301 0.26701 0.0
C2554 C 0.22475 0.72637 0.48514 0.0
C2555 C 0.24976 0.7224 0.47391 0.0
H2556 H 0.20174 0.72763 0.52041 0.0
C2557 C 0.27135 0.7175 0.49044 0.0
H2558 H 0.20781 0.73058 0.47291 0.0
C2559 C 0.26791 0.71606 0.51765 0.0
C2560 C 0.24281 0.71955 0.52885 0.0
H2561 H 0.29081 0.71422 0.48233 0.0
H2562 H 0.28492 0.71225 0.52992 0.0
C2563 C 0.22131 0.72499 0.51236 0.0
C2564 C 0.52309 0.02531 0.74039 0.0
C2565 C 0.53323 0.00472 0.72482 0.0
H2566 H 0.51494 0.03948 0.7792 0.0
C2567 C 0.54365 0.98232 0.7375 0.0
H2568 H 0.51449 0.0427 0.73163 0.0
C2569 C 0.54344 0.9804 0.76492 0.0
C2570 C 0.53324 1.00098 0.78024 0.0
H2571 H 0.55208 0.96623 0.72638 0.0
H2572 H 0.55151 0.96297 0.77421 0.0
C2573 C 0.52326 0.02351 0.76777 0.0
C2574 C 0.22798 0.27269 0.98968 0.0
C2575 C 0.24828 0.28319 0.97399 0.0
H2576 H 0.21434 0.26406 0.02859 0.0
C2577 C 0.27068 0.29378 0.98652 0.0
H2578 H 0.21061 0.26398 0.98099 0.0
C2579 C 0.27292 0.29336 0.01391 0.0
C2580 C 0.25265 0.28279 0.02936 0.0
H2581 H 0.28654 0.3025 0.97529 0.0
H2582 H 0.29035 0.30158 0.02307 0.0
C2583 C 0.23009 0.27265 0.01705 0.0
C2584 C 0.2348 0.98427 0.02678 0.0
C2585 C 0.2221 0.97237 0.0053 0.0
H2586 H 0.27126 0.9931 0.04558 0.0
C2587 C 0.23701 0.95861 0.98663 0.0
H2588 H 0.22363 0.9952 0.0413 0.0
C2589 C 0.26428 0.95688 0.98929 0.0
C2590 C 0.2773 0.9694 0.01039 0.0
H2591 H 0.2275 0.94895 0.97015 0.0
H2592 H 0.27501 0.94571 0.97468 0.0
C2593 C 0.26214 0.98296 0.02923 0.0
C2594 C 0.28605 0.0137 0.27511 0.0
C2595 C 0.28348 0.0297 0.25269 0.0
H2596 H 0.28879 0.97455 0.29029 0.0
C2597 C 0.28187 0.01777 0.22775 0.0
H2598 H 0.28759 0.02229 0.29457 0.0
C2599 C 0.28296 0.99046 0.22525 0.0
C2600 C 0.28559 0.97444 0.24764 0.0
H2601 H 0.27953 0.02949 0.2101 0.0
H2602 H 0.28203 0.98195 0.20572 0.0
C2603 C 0.28709 0.98635 0.27261 0.0
C2604 C 0.23748 0.0428 0.48257 0.0
C2605 C 0.22517 0.03224 0.50509 0.0
H2606 H 0.27388 0.05093 0.46274 0.0
C2607 C 0.24104 0.02215 0.52547 0.0
H2608 H 0.22609 0.0512 0.46666 0.0
C2609 C 0.26838 0.02249 0.5233 0.0
C2610 C 0.28049 0.0326 0.50062 0.0
H2611 H 0.23253 0.01345 0.54293 0.0
H2612 H 0.28007 0.0142 0.5391 0.0
C2613 C 0.26487 0.04276 0.48027 0.0
C2614 C 0.23127 0.02013 0.77514 0.0
C2615 C 0.22087 0.03244 0.7527 0.0
H2616 H 0.24022 0.98402 0.79443 0.0
C2617 C 0.20978 0.01704 0.73268 0.0
H2618 H 0.24022 0.03165 0.79071 0.0
C2619 C 0.20931 0.98967 0.73492 0.0
C2620 C 0.22039 0.97713 0.75706 0.0
H2621 H 0.20132 0.02622 0.71537 0.0
H2622 H 0.2003 0.97846 0.71922 0.0
C2623 C 0.23118 0.99276 0.77726 0.0
C2624 C 0.97711 0.26819 0.98287 0.0
C2625 C 0.9988 0.2807 0.97116 0.0
H2626 H 0.95797 0.2319 0.99164 0.0
C2627 C 0.01752 0.26562 0.95768 0.0
H2628 H 0.96253 0.2795 0.99359 0.0
C2629 C 0.01471 0.23836 0.95603 0.0
C2630 C 0.99338 0.22553 0.96836 0.0
H2631 H 0.03417 0.27499 0.94817 0.0
H2632 H 0.02938 0.22749 0.94507 0.0
C2633 C 0.97449 0.24087 0.98164 0.0
C2634 C 0.5255 0.24356 0.02203 0.0
C2635 C 0.50503 0.22768 0.03187 0.0
H2636 H 0.53925 0.28264 0.01443 0.0
C2637 C 0.48255 0.23996 0.04257 0.0
H2638 H 0.54294 0.23504 0.01327 0.0
C2639 C 0.48034 0.26734 0.04278 0.0
C2640 C 0.50072 0.28299 0.03274 0.0
H2641 H 0.4666 0.22853 0.05084 0.0
H2642 H 0.46281 0.27633 0.05099 0.0
C2643 C 0.52341 0.27092 0.02261 0.0
C2644 C 0.99141 0.22799 0.27301 0.0
C2645 C 0.97562 0.24853 0.28288 0.0
H2646 H 0.0304 0.21413 0.26519 0.0
C2647 C 0.988 0.27106 0.29334 0.0
H2648 H 0.98282 0.21051 0.26441 0.0
C2649 C 0.01539 0.27322 0.29332 0.0
C2650 C 0.03095 0.25275 0.28329 0.0
H2651 H 0.97666 0.28708 0.3016 0.0
H2652 H 0.02447 0.29078 0.30136 0.0
C2653 C 0.01876 0.23003 0.27337 0.0
C2654 C 0.9805 0.73479 0.52413 0.0
C2655 C 0.00366 0.72242 0.53268 0.0
H2656 H 0.96052 0.77086 0.51696 0.0
C2657 C 0.02457 0.73778 0.54204 0.0
H2658 H 0.96421 0.72327 0.51657 0.0
C2659 C 0.02242 0.76516 0.54275 0.0
C2660 C 0.99944 0.77781 0.53363 0.0
H2661 H 0.04247 0.72855 0.5491 0.0
H2662 H 0.03887 0.77621 0.5505 0.0
C2663 C 0.97845 0.76218 0.52442 0.0
C2664 C 0.48029 0.7681 0.4798 0.0
C2665 C 0.50309 0.78024 0.46999 0.0
H2666 H 0.46075 0.73219 0.48894 0.0
C2667 C 0.52372 0.76461 0.4604 0.0
H2668 H 0.46426 0.77979 0.48764 0.0
C2669 C 0.52162 0.73721 0.46069 0.0
C2670 C 0.49901 0.72487 0.47103 0.0
H2671 H 0.54134 0.77363 0.45243 0.0
H2672 H 0.53777 0.72584 0.45273 0.0
C2673 C 0.47831 0.74073 0.48047 0.0
C2674 C 0.01623 0.72913 0.21125 0.0
C2675 C 0.0318 0.7496 0.22126 0.0
H2676 H 0.97748 0.71527 0.20308 0.0
C2677 C 0.01963 0.77225 0.23133 0.0
H2678 H 0.02529 0.71162 0.20309 0.0
C2679 C 0.99226 0.77427 0.23182 0.0
C2680 C 0.97645 0.75377 0.22193 0.0
H2681 H 0.03128 0.78814 0.2395 0.0
H2682 H 0.9837 0.79173 0.2405 0.0
C2683 C 0.98883 0.73128 0.21136 0.0
C2684 C 0.51524 0.2717 0.7082 0.0
C2685 C 0.52812 0.24974 0.71927 0.0
H2686 H 0.4784 0.29089 0.70059 0.0
C2687 C 0.51282 0.22971 0.73079 0.0
H2688 H 0.52619 0.28731 0.69871 0.0
C2689 C 0.48547 0.23166 0.73138 0.0
C2690 C 0.4728 0.2538 0.72078 0.0
H2691 H 0.5218 0.21271 0.73993 0.0
H2692 H 0.47422 0.21616 0.74077 0.0
C2693 C 0.48786 0.27379 0.70917 0.0
C2694 C 0.4728 0.52736 0.73413 0.0
C2695 C 0.4698 0.50236 0.72262 0.0
H2696 H 0.47361 0.54996 0.76965 0.0
C2697 C 0.46564 0.48042 0.73894 0.0
H2698 H 0.47636 0.5446 0.72211 0.0
C2699 C 0.46434 0.48347 0.76621 0.0
C2700 C 0.46725 0.5085 0.7777 0.0
H2701 H 0.46303 0.46096 0.73062 0.0
H2702 H 0.46133 0.46618 0.77831 0.0
C2703 C 0.47154 0.53041 0.76139 0.0
C2704 C 0.72885 0.21916 0.01327 0.0
C2705 C 0.75132 0.22086 0.0293 0.0
H2706 H 0.71358 0.2177 0.9741 0.0
C2707 C 0.77628 0.22227 0.01738 0.0
H2708 H 0.70937 0.2178 0.02185 0.0
C2709 C 0.77873 0.22184 0.99003 0.0
C2710 C 0.75627 0.22004 0.97399 0.0
H2711 H 0.79397 0.22394 0.02915 0.0
H2712 H 0.79825 0.22258 0.98149 0.0
C2713 C 0.73129 0.21876 0.9859 0.0
C2714 C 0.02292 0.47881 0.26362 0.0
C2715 C 0.03287 0.49943 0.27928 0.0
H2716 H 0.01505 0.46466 0.22474 0.0
C2717 C 0.04306 0.52197 0.26669 0.0
H2718 H 0.01447 0.46131 0.27228 0.0
C2719 C 0.04292 0.52397 0.23926 0.0
C2720 C 0.03302 0.50331 0.22386 0.0
H2721 H 0.05129 0.53811 0.27788 0.0
H2722 H 0.05087 0.54149 0.23004 0.0
C2723 C 0.02317 0.48069 0.23625 0.0
C2724 C 0.73096 0.77259 0.51888 0.0
C2725 C 0.7535 0.78263 0.5313 0.0
H2726 H 0.71174 0.76373 0.48274 0.0
C2727 C 0.77404 0.79282 0.51595 0.0
H2728 H 0.71501 0.76429 0.53035 0.0
C2729 C 0.77207 0.79296 0.48853 0.0
C2730 C 0.74968 0.78248 0.4759 0.0
H2731 H 0.79146 0.80094 0.5252 0.0
H2732 H 0.78813 0.80139 0.47737 0.0
C2733 C 0.72912 0.77236 0.49149 0.0
C2734 C 0.76523 0.46078 0.52202 0.0
C2735 C 0.78035 0.47222 0.50196 0.0
H2736 H 0.72681 0.45073 0.53563 0.0
C2737 C 0.76775 0.48297 0.47987 0.0
H2738 H 0.77465 0.45211 0.53909 0.0
C2739 C 0.7404 0.48265 0.47799 0.0
C2740 C 0.72504 0.47126 0.49805 0.0
H2741 H 0.77905 0.49224 0.46433 0.0
H2742 H 0.73146 0.49188 0.46101 0.0
C2743 C 0.73784 0.4601 0.52 0.0
C2744 C 0.78859 0.51719 0.73248 0.0
C2745 C 0.78568 0.52851 0.75759 0.0
H2746 H 0.79022 0.48173 0.70978 0.0
C2747 C 0.7817 0.51205 0.77944 0.0
H2748 H 0.79136 0.52941 0.71522 0.0
C2749 C 0.78077 0.4848 0.77627 0.0
C2750 C 0.78378 0.47346 0.75118 0.0
H2751 H 0.77964 0.5202 0.79904 0.0
H2752 H 0.77745 0.47265 0.79347 0.0
C2753 C 0.78762 0.48992 0.7293 0.0
C2754 C 0.76442 0.52116 0.97799 0.0
C2755 C 0.78001 0.53263 0.99782 0.0
H2756 H 0.72559 0.51151 0.96485 0.0
C2757 C 0.76745 0.54382 0.01991 0.0
H2758 H 0.77317 0.51193 0.96091 0.0
C2759 C 0.74008 0.54309 0.0223 0.0
C2760 C 0.72472 0.5316 0.00247 0.0
H2761 H 0.77863 0.55327 0.03538 0.0
H2762 H 0.73086 0.55181 0.03946 0.0
C2763 C 0.73708 0.52081 0.98023 0.0
C2764 C 0.73134 0.48547 0.22989 0.0
C2765 C 0.72133 0.4731 0.25248 0.0
H2766 H 0.74022 0.52156 0.21061 0.0
C2767 C 0.71102 0.4885 0.27294 0.0
H2768 H 0.73972 0.47396 0.214 0.0
C2769 C 0.71084 0.5159 0.27091 0.0
C2770 C 0.72142 0.52848 0.24854 0.0
H2771 H 0.7029 0.47929 0.29039 0.0
H2772 H 0.70238 0.52709 0.28693 0.0
C2773 C 0.73154 0.51285 0.22799 0.0
C2774 C 0.48761 0.72822 0.77111 0.0
C2775 C 0.47203 0.74807 0.78258 0.0
H2776 H 0.52642 0.71509 0.76132 0.0
C2777 C 0.48462 0.77026 0.79355 0.0
H2778 H 0.47886 0.71107 0.76204 0.0
C2779 C 0.51199 0.7727 0.79263 0.0
C2780 C 0.52733 0.75282 0.7812 0.0
H2781 H 0.47348 0.78577 0.80298 0.0
H2782 H 0.52122 0.78991 0.80121 0.0
C2783 C 0.51495 0.73052 0.77058 0.0
loop_
_geom_bond_atom_site_label_1
_geom_bond_atom_site_label_2
_geom_bond_distance
_geom_bond_site_symmetry_2
_ccdc_geom_bond_type
Co0 N4 2.148 . S
Co0 N10 2.128 . S
Co0 N20 2.194 1_655 S
Co0 O25 2.351 1_655 S
Co0 O26 2.155 . S
Co0 O27 2.096 . S
C1 N4 1.301 1_455 S
C1 N5 1.328 . S
C1 H6 0.930 . S
C2 C3 1.333 . S
C2 N4 1.317 . S
C2 H7 0.930 . S
C3 C2 1.333 . S
C3 N5 1.350 1_655 S
C3 H29 0.931 . S
N4 Co0 2.148 . S
N4 C1 1.301 1_655 S
N4 C2 1.317 . S
N5 C1 1.328 . S
N5 C3 1.350 1_455 S
H6 C1 0.930 . S
H7 C2 0.930 . S
C8 O9 1.224 . S
C8 O27 1.247 . S
O9 C8 1.224 . S
N10 Co0 2.128 . S
N10 C11 1.355 1_655 S
N10 C13 1.311 . S
C11 N10 1.355 1_455 S
C11 C12 1.363 . S
C11 H23 0.929 . S
C12 C11 1.363 . S
C12 N14 1.375 1_455 S
C12 H30 0.931 . S
C13 N10 1.311 . S
C13 N14 1.347 . S
C13 H24 0.929 . S
N14 C12 1.375 1_655 S
N14 C13 1.347 . S
C15 C18 1.365 . S
C15 N20 1.328 . S
C15 H21 0.929 . S
C16 C17 1.362 . S
C16 C19 1.378 . S
C16 H31 0.929 . S
C17 C16 1.362 . S
C17 C18 1.366 . S
C18 C15 1.365 . S
C18 C17 1.366 . S
C18 H32 0.930 . S
C19 C16 1.378 . S
C19 N20 1.315 . S
C19 H22 0.930 . S
N20 Co0 2.194 1_455 S
N20 C15 1.328 . S
N20 C19 1.315 . S
H21 C15 0.929 . S
H22 C19 0.930 . S
H23 C11 0.929 . S
H24 C13 0.929 . S
O25 Co0 2.351 1_455 S
O25 C28 1.244 1_455 S
O26 Co0 2.155 . S
O26 C28 1.240 . S
O27 Co0 2.096 . S
O27 C8 1.247 . S
C28 O25 1.244 1_655 S
C28 O26 1.240 . S
H29 C3 0.931 . S
H30 C12 0.931 . S
H31 C16 0.929 . S
H32 C18 0.930 . S
Co33 N37 2.148 . S
Co33 N43 2.128 . S
Co33 N53 2.194 . S
Co33 O58 2.351 . S
Co33 O59 2.155 . S
Co33 O60 2.096 . S
C34 N37 1.301 . S
C34 N38 1.328 . S
C34 H39 0.930 . S
C35 C36 1.333 . S
C35 N37 1.317 . S
C35 H40 0.930 . S
C36 C35 1.333 . S
C36 N38 1.350 . S
C36 H62 0.931 . S
N37 Co33 2.148 . S
N37 C34 1.301 . S
N37 C35 1.317 . S
N38 C34 1.328 . S
N38 C36 1.350 . S
H39 C34 0.930 . S
H40 C35 0.930 . S
C41 O42 1.224 . S
C41 O60 1.247 . S
O42 C41 1.224 . S
N43 Co33 2.128 . S
N43 C44 1.355 . S
N43 C46 1.311 . S
C44 N43 1.355 . S
C44 C45 1.363 . S
C44 H56 0.929 . S
C45 C44 1.363 . S
C45 N47 1.375 . S
C45 H63 0.931 . S
C46 N43 1.311 . S
C46 N47 1.347 . S
C46 H57 0.929 . S
N47 C45 1.375 . S
N47 C46 1.347 . S
C48 C51 1.365 . S
C48 N53 1.328 . S
C48 H54 0.929 . S
C49 C50 1.362 . S
C49 C52 1.378 . S
C49 H64 0.929 . S
C50 C49 1.362 . S
C50 C51 1.366 . S
C51 C48 1.365 . S
C51 C50 1.366 . S
C51 H65 0.930 . S
C52 C49 1.378 . S
C52 N53 1.315 . S
C52 H55 0.930 . S
N53 Co33 2.194 . S
N53 C48 1.328 . S
N53 C52 1.315 . S
H54 C48 0.929 . S
H55 C52 0.930 . S
H56 C44 0.929 . S
H57 C46 0.929 . S
O58 Co33 2.351 . S
O58 C61 1.244 . S
O59 Co33 2.155 . S
O59 C61 1.240 . S
O60 Co33 2.096 . S
O60 C41 1.247 . S
C61 O58 1.244 . S
C61 O59 1.240 . S
H62 C36 0.931 . S
H63 C45 0.931 . S
H64 C49 0.929 . S
H65 C51 0.930 . S
Co66 N70 2.148 . S
Co66 N76 2.128 . S
Co66 N86 2.194 . S
Co66 O91 2.351 . S
Co66 O92 2.155 . S
Co66 O93 2.096 . S
C67 N70 1.301 . S
C67 N71 1.328 . S
C67 H72 0.930 . S
C68 C69 1.333 . S
C68 N70 1.317 . S
C68 H73 0.930 . S
C69 C68 1.333 . S
C69 N71 1.350 . S
C69 H95 0.931 . S
N70 Co66 2.148 . S
N70 C67 1.301 . S
N70 C68 1.317 . S
N71 C67 1.328 . S
N71 C69 1.350 . S
H72 C67 0.930 . S
H73 C68 0.930 . S
C74 O75 1.224 . S
C74 O93 1.247 . S
O75 C74 1.224 . S
N76 Co66 2.128 . S
N76 C77 1.355 . S
N76 C79 1.311 . S
C77 N76 1.355 . S
C77 C78 1.363 . S
C77 H89 0.929 . S
C78 C77 1.363 . S
C78 N80 1.375 . S
C78 H96 0.931 . S
C79 N76 1.311 . S
C79 N80 1.347 . S
C79 H90 0.929 . S
N80 C78 1.375 . S
N80 C79 1.347 . S
C81 C84 1.365 . S
C81 N86 1.328 . S
C81 H87 0.929 . S
C82 C83 1.362 . S
C82 C85 1.378 . S
C82 H97 0.929 . S
C83 C82 1.362 . S
C83 C84 1.366 . S
C84 C81 1.365 . S
C84 C83 1.366 . S
C84 H98 0.930 . S
C85 C82 1.378 . S
C85 N86 1.315 . S
C85 H88 0.930 . S
N86 Co66 2.194 . S
N86 C81 1.328 . S
N86 C85 1.315 . S
H87 C81 0.929 . S
H88 C85 0.930 . S
H89 C77 0.929 . S
H90 C79 0.929 . S
O91 Co66 2.351 . S
O91 C94 1.244 . S
O92 Co66 2.155 . S
O92 C94 1.240 . S
O93 Co66 2.096 . S
O93 C74 1.247 . S
C94 O91 1.244 . S
C94 O92 1.240 . S
H95 C69 0.931 . S
H96 C78 0.931 . S
H97 C82 0.929 . S
H98 C84 0.930 . S
Co99 N103 2.148 . S
Co99 N109 2.128 . S
Co99 N119 2.194 . S
Co99 O124 2.351 . S
Co99 O125 2.155 . S
Co99 O126 2.096 . S
C100 N103 1.301 . S
C100 N104 1.328 . S
C100 H105 0.930 . S
C101 C102 1.333 . S
C101 N103 1.317 . S
C101 H106 0.930 . S
C102 C101 1.333 . S
C102 N104 1.350 . S
C102 H128 0.931 . S
N103 Co99 2.148 . S
N103 C100 1.301 . S
N103 C101 1.317 . S
N104 C100 1.328 . S
N104 C102 1.350 . S
H105 C100 0.930 . S
H106 C101 0.930 . S
C107 O108 1.224 . S
C107 O126 1.247 . S
O108 C107 1.224 . S
N109 Co99 2.128 . S
N109 C110 1.355 . S
N109 C112 1.311 . S
C110 N109 1.355 . S
C110 C111 1.363 . S
C110 H122 0.929 . S
C111 C110 1.363 . S
C111 N113 1.375 . S
C111 H129 0.931 . S
C112 N109 1.311 . S
C112 N113 1.347 . S
C112 H123 0.929 . S
N113 C111 1.375 . S
N113 C112 1.347 . S
C114 C117 1.365 . S
C114 N119 1.328 . S
C114 H120 0.929 . S
C115 C116 1.362 . S
C115 C118 1.378 . S
C115 H130 0.929 . S
C116 C115 1.362 . S
C116 C117 1.366 . S
C117 C114 1.365 . S
C117 C116 1.366 . S
C117 H131 0.930 . S
C118 C115 1.378 . S
C118 N119 1.315 . S
C118 H121 0.930 . S
N119 Co99 2.194 . S
N119 C114 1.328 . S
N119 C118 1.315 . S
H120 C114 0.929 . S
H121 C118 0.930 . S
H122 C110 0.929 . S
H123 C112 0.929 . S
O124 Co99 2.351 . S
O124 C127 1.244 . S
O125 Co99 2.155 . S
O125 C127 1.240 . S
O126 Co99 2.096 . S
O126 C107 1.247 . S
C127 O124 1.244 . S
C127 O125 1.240 . S
H128 C102 0.931 . S
H129 C111 0.931 . S
H130 C115 0.929 . S
H131 C117 0.930 . S
Co132 N136 2.148 . S
Co132 N142 2.128 . S
Co132 N152 2.194 1_655 S
Co132 O157 2.351 1_655 S
Co132 O158 2.155 . S
Co132 O159 2.096 . S
C133 N136 1.301 1_455 S
C133 N137 1.328 . S
C133 H138 0.930 . S
C134 C135 1.333 . S
C134 N136 1.317 . S
C134 H139 0.930 . S
C135 C134 1.333 . S
C135 N137 1.350 1_655 S
C135 H161 0.931 . S
N136 Co132 2.148 . S
N136 C133 1.301 1_655 S
N136 C134 1.317 . S
N137 C133 1.328 . S
N137 C135 1.350 1_455 S
H138 C133 0.930 . S
H139 C134 0.930 . S
C140 O141 1.224 . S
C140 O159 1.247 . S
O141 C140 1.224 . S
N142 Co132 2.128 . S
N142 C143 1.355 1_655 S
N142 C145 1.311 . S
C143 N142 1.355 1_455 S
C143 C144 1.363 . S
C143 H155 0.929 . S
C144 C143 1.363 . S
C144 N146 1.375 1_455 S
C144 H162 0.931 . S
C145 N142 1.311 . S
C145 N146 1.347 . S
C145 H156 0.929 . S
N146 C144 1.375 1_655 S
N146 C145 1.347 . S
C147 C150 1.365 . S
C147 N152 1.328 . S
C147 H153 0.929 . S
C148 C149 1.362 . S
C148 C151 1.378 . S
C148 H163 0.929 . S
C149 C148 1.362 . S
C149 C150 1.366 . S
C150 C147 1.365 . S
C150 C149 1.366 . S
C150 H164 0.930 . S
C151 C148 1.378 . S
C151 N152 1.315 . S
C151 H154 0.930 . S
N152 Co132 2.194 1_455 S
N152 C147 1.328 . S
N152 C151 1.315 . S
H153 C147 0.929 . S
H154 C151 0.930 . S
H155 C143 0.929 . S
H156 C145 0.929 . S
O157 Co132 2.351 1_455 S
O157 C160 1.244 1_455 S
O158 Co132 2.155 . S
O158 C160 1.240 . S
O159 Co132 2.096 . S
O159 C140 1.247 . S
C160 O157 1.244 1_655 S
C160 O158 1.240 . S
H161 C135 0.931 . S
H162 C144 0.931 . S
H163 C148 0.929 . S
H164 C150 0.930 . S
Co165 N169 2.148 . S
Co165 N175 2.128 . S
Co165 N185 2.194 . S
Co165 O190 2.351 . S
Co165 O191 2.155 . S
Co165 O192 2.096 . S
C166 N169 1.301 . S
C166 N170 1.328 . S
C166 H171 0.930 . S
C167 C168 1.333 . S
C167 N169 1.317 . S
C167 H172 0.930 . S
C168 C167 1.333 . S
C168 N170 1.350 . S
C168 H194 0.931 . S
N169 Co165 2.148 . S
N169 C166 1.301 . S
N169 C167 1.317 . S
N170 C166 1.328 . S
N170 C168 1.350 . S
H171 C166 0.930 . S
H172 C167 0.930 . S
C173 O174 1.224 . S
C173 O192 1.247 . S
O174 C173 1.224 . S
N175 Co165 2.128 . S
N175 C176 1.355 . S
N175 C178 1.311 . S
C176 N175 1.355 . S
C176 C177 1.363 . S
C176 H188 0.929 . S
C177 C176 1.363 . S
C177 N179 1.375 . S
C177 H195 0.931 . S
C178 N175 1.311 . S
C178 N179 1.347 . S
C178 H189 0.929 . S
N179 C177 1.375 . S
N179 C178 1.347 . S
C180 C183 1.365 . S
C180 N185 1.328 . S
C180 H186 0.929 . S
C181 C182 1.362 . S
C181 C184 1.378 . S
C181 H196 0.929 . S
C182 C181 1.362 . S
C182 C183 1.366 . S
C183 C180 1.365 . S
C183 C182 1.366 . S
C183 H197 0.930 . S
C184 C181 1.378 . S
C184 N185 1.315 . S
C184 H187 0.930 . S
N185 Co165 2.194 . S
N185 C180 1.328 . S
N185 C184 1.315 . S
H186 C180 0.929 . S
H187 C184 0.930 . S
H188 C176 0.929 . S
H189 C178 0.929 . S
O190 Co165 2.351 . S
O190 C193 1.244 . S
O191 Co165 2.155 . S
O191 C193 1.240 . S
O192 Co165 2.096 . S
O192 C173 1.247 . S
C193 O190 1.244 . S
C193 O191 1.240 . S
H194 C168 0.931 . S
H195 C177 0.931 . S
H196 C181 0.929 . S
H197 C183 0.930 . S
Co198 N202 2.148 . S
Co198 N208 2.128 . S
Co198 N218 2.194 . S
Co198 O223 2.351 . S
Co198 O224 2.155 . S
Co198 O225 2.096 . S
C199 N202 1.301 . S
C199 N203 1.328 . S
C199 H204 0.930 . S
C200 C201 1.333 . S
C200 N202 1.317 . S
C200 H205 0.930 . S
C201 C200 1.333 . S
C201 N203 1.350 . S
C201 H227 0.931 . S
N202 Co198 2.148 . S
N202 C199 1.301 . S
N202 C200 1.317 . S
N203 C199 1.328 . S
N203 C201 1.350 . S
H204 C199 0.930 . S
H205 C200 0.930 . S
C206 O207 1.224 . S
C206 O225 1.247 . S
O207 C206 1.224 . S
N208 Co198 2.128 . S
N208 C209 1.355 . S
N208 C211 1.311 . S
C209 N208 1.355 . S
C209 C210 1.363 . S
C209 H221 0.929 . S
C210 C209 1.363 . S
C210 N212 1.375 . S
C210 H228 0.931 . S
C211 N208 1.311 . S
C211 N212 1.347 . S
C211 H222 0.929 . S
N212 C210 1.375 . S
N212 C211 1.347 . S
C213 C216 1.365 . S
C213 N218 1.328 . S
C213 H219 0.929 . S
C214 C215 1.362 . S
C214 C217 1.378 . S
C214 H229 0.929 . S
C215 C214 1.362 . S
C215 C216 1.366 . S
C216 C213 1.365 . S
C216 C215 1.366 . S
C216 H230 0.930 . S
C217 C214 1.378 . S
C217 N218 1.315 . S
C217 H220 0.930 . S
N218 Co198 2.194 . S
N218 C213 1.328 . S
N218 C217 1.315 . S
H219 C213 0.929 . S
H220 C217 0.930 . S
H221 C209 0.929 . S
H222 C211 0.929 . S
O223 Co198 2.351 . S
O223 C226 1.244 . S
O224 Co198 2.155 . S
O224 C226 1.240 . S
O225 Co198 2.096 . S
O225 C206 1.247 . S
C226 O223 1.244 . S
C226 O224 1.240 . S
H227 C201 0.931 . S
H228 C210 0.931 . S
H229 C214 0.929 . S
H230 C216 0.930 . S
Co231 N235 2.148 . S
Co231 N241 2.128 . S
Co231 N251 2.194 . S
Co231 O256 2.351 . S
Co231 O257 2.155 . S
Co231 O258 2.096 . S
C232 N235 1.301 . S
C232 N236 1.328 . S
C232 H237 0.930 . S
C233 C234 1.333 . S
C233 N235 1.317 . S
C233 H238 0.930 . S
C234 C233 1.333 . S
C234 N236 1.350 . S
C234 H260 0.931 . S
N235 Co231 2.148 . S
N235 C232 1.301 . S
N235 C233 1.317 . S
N236 C232 1.328 . S
N236 C234 1.350 . S
H237 C232 0.930 . S
H238 C233 0.930 . S
C239 O240 1.224 . S
C239 O258 1.247 . S
O240 C239 1.224 . S
N241 Co231 2.128 . S
N241 C242 1.355 . S
N241 C244 1.311 . S
C242 N241 1.355 . S
C242 C243 1.363 . S
C242 H254 0.929 . S
C243 C242 1.363 . S
C243 N245 1.375 . S
C243 H261 0.931 . S
C244 N241 1.311 . S
C244 N245 1.347 . S
C244 H255 0.929 . S
N245 C243 1.375 . S
N245 C244 1.347 . S
C246 C249 1.365 . S
C246 N251 1.328 . S
C246 H252 0.929 . S
C247 C248 1.362 . S
C247 C250 1.378 . S
C247 H262 0.929 . S
C248 C247 1.362 . S
C248 C249 1.366 . S
C249 C246 1.365 . S
C249 C248 1.366 . S
C249 H263 0.930 . S
C250 C247 1.378 . S
C250 N251 1.315 . S
C250 H253 0.930 . S
N251 Co231 2.194 . S
N251 C246 1.328 . S
N251 C250 1.315 . S
H252 C246 0.929 . S
H253 C250 0.930 . S
H254 C242 0.929 . S
H255 C244 0.929 . S
O256 Co231 2.351 . S
O256 C259 1.244 . S
O257 Co231 2.155 . S
O257 C259 1.240 . S
O258 Co231 2.096 . S
O258 C239 1.247 . S
C259 O256 1.244 . S
C259 O257 1.240 . S
H260 C234 0.931 . S
H261 C243 0.931 . S
H262 C247 0.929 . S
H263 C249 0.930 . S
Co264 N268 2.148 . S
Co264 N274 2.128 . S
Co264 N284 2.194 1_565 S
Co264 O289 2.351 1_565 S
Co264 O290 2.155 . S
Co264 O291 2.096 . S
C265 N268 1.301 1_545 S
C265 N269 1.328 . S
C265 H270 0.930 . S
C266 C267 1.333 . S
C266 N268 1.317 . S
C266 H271 0.930 . S
C267 C266 1.333 . S
C267 N269 1.350 1_565 S
C267 H293 0.931 . S
N268 Co264 2.148 . S
N268 C265 1.301 1_565 S
N268 C266 1.317 . S
N269 C265 1.328 . S
N269 C267 1.350 1_545 S
H270 C265 0.930 . S
H271 C266 0.930 . S
C272 O273 1.224 . S
C272 O291 1.247 . S
O273 C272 1.224 . S
N274 Co264 2.128 . S
N274 C275 1.355 1_565 S
N274 C277 1.311 . S
C275 N274 1.355 1_545 S
C275 C276 1.363 . S
C275 H287 0.929 . S
C276 C275 1.363 . S
C276 N278 1.375 1_545 S
C276 H294 0.931 . S
C277 N274 1.311 . S
C277 N278 1.347 . S
C277 H288 0.929 . S
N278 C276 1.375 1_565 S
N278 C277 1.347 . S
C279 C282 1.365 . S
C279 N284 1.328 . S
C279 H285 0.929 . S
C280 C281 1.362 . S
C280 C283 1.378 . S
C280 H295 0.929 . S
C281 C280 1.362 . S
C281 C282 1.366 . S
C282 C279 1.365 . S
C282 C281 1.366 . S
C282 H296 0.930 . S
C283 C280 1.378 . S
C283 N284 1.315 . S
C283 H286 0.930 . S
N284 Co264 2.194 1_545 S
N284 C279 1.328 . S
N284 C283 1.315 . S
H285 C279 0.929 . S
H286 C283 0.930 . S
H287 C275 0.929 . S
H288 C277 0.929 . S
O289 Co264 2.351 1_545 S
O289 C292 1.244 1_545 S
O290 Co264 2.155 . S
O290 C292 1.240 . S
O291 Co264 2.096 . S
O291 C272 1.247 . S
C292 O289 1.244 1_565 S
C292 O290 1.240 . S
H293 C267 0.931 . S
H294 C276 0.931 . S
H295 C280 0.929 . S
H296 C282 0.930 . S
Co297 N301 2.148 . S
Co297 N307 2.128 . S
Co297 N317 2.194 . S
Co297 O322 2.351 . S
Co297 O323 2.155 . S
Co297 O324 2.096 . S
C298 N301 1.301 . S
C298 N302 1.328 . S
C298 H303 0.930 . S
C299 C300 1.333 . S
C299 N301 1.317 . S
C299 H304 0.930 . S
C300 C299 1.333 . S
C300 N302 1.350 . S
C300 H326 0.931 . S
N301 Co297 2.148 . S
N301 C298 1.301 . S
N301 C299 1.317 . S
N302 C298 1.328 . S
N302 C300 1.350 . S
H303 C298 0.930 . S
H304 C299 0.930 . S
C305 O306 1.224 . S
C305 O324 1.247 . S
O306 C305 1.224 . S
N307 Co297 2.128 . S
N307 C308 1.355 . S
N307 C310 1.311 . S
C308 N307 1.355 . S
C308 C309 1.363 . S
C308 H320 0.929 . S
C309 C308 1.363 . S
C309 N311 1.375 . S
C309 H327 0.931 . S
C310 N307 1.311 . S
C310 N311 1.347 . S
C310 H321 0.929 . S
N311 C309 1.375 . S
N311 C310 1.347 . S
C312 C315 1.365 . S
C312 N317 1.328 . S
C312 H318 0.929 . S
C313 C314 1.362 . S
C313 C316 1.378 . S
C313 H328 0.929 . S
C314 C313 1.362 . S
C314 C315 1.366 . S
C315 C312 1.365 . S
C315 C314 1.366 . S
C315 H329 0.930 . S
C316 C313 1.378 . S
C316 N317 1.315 . S
C316 H319 0.930 . S
N317 Co297 2.194 . S
N317 C312 1.328 . S
N317 C316 1.315 . S
H318 C312 0.929 . S
H319 C316 0.930 . S
H320 C308 0.929 . S
H321 C310 0.929 . S
O322 Co297 2.351 . S
O322 C325 1.244 . S
O323 Co297 2.155 . S
O323 C325 1.240 . S
O324 Co297 2.096 . S
O324 C305 1.247 . S
C325 O322 1.244 . S
C325 O323 1.240 . S
H326 C300 0.931 . S
H327 C309 0.931 . S
H328 C313 0.929 . S
H329 C315 0.930 . S
Co330 N334 2.148 . S
Co330 N340 2.128 . S
Co330 N350 2.194 1_545 S
Co330 O355 2.351 1_545 S
Co330 O356 2.155 . S
Co330 O357 2.096 . S
C331 N334 1.301 1_565 S
C331 N335 1.328 . S
C331 H336 0.930 . S
C332 C333 1.333 . S
C332 N334 1.317 . S
C332 H337 0.930 . S
C333 C332 1.333 . S
C333 N335 1.350 1_545 S
C333 H359 0.931 . S
N334 Co330 2.148 . S
N334 C331 1.301 1_545 S
N334 C332 1.317 . S
N335 C331 1.328 . S
N335 C333 1.350 1_565 S
H336 C331 0.930 . S
H337 C332 0.930 . S
C338 O339 1.224 . S
C338 O357 1.247 . S
O339 C338 1.224 . S
N340 Co330 2.128 . S
N340 C341 1.355 1_545 S
N340 C343 1.311 . S
C341 N340 1.355 1_565 S
C341 C342 1.363 . S
C341 H353 0.929 . S
C342 C341 1.363 . S
C342 N344 1.375 1_565 S
C342 H360 0.931 . S
C343 N340 1.311 . S
C343 N344 1.347 . S
C343 H354 0.929 . S
N344 C342 1.375 1_545 S
N344 C343 1.347 . S
C345 C348 1.365 . S
C345 N350 1.328 . S
C345 H351 0.929 . S
C346 C347 1.362 . S
C346 C349 1.378 . S
C346 H361 0.929 . S
C347 C346 1.362 . S
C347 C348 1.366 . S
C348 C345 1.365 . S
C348 C347 1.366 . S
C348 H362 0.930 . S
C349 C346 1.378 . S
C349 N350 1.315 . S
C349 H352 0.930 . S
N350 Co330 2.194 1_565 S
N350 C345 1.328 . S
N350 C349 1.315 . S
H351 C345 0.929 . S
H352 C349 0.930 . S
H353 C341 0.929 . S
H354 C343 0.929 . S
O355 Co330 2.351 1_565 S
O355 C358 1.244 1_565 S
O356 Co330 2.155 . S
O356 C358 1.240 . S
O357 Co330 2.096 . S
O357 C338 1.247 . S
C358 O355 1.244 1_545 S
C358 O356 1.240 . S
H359 C333 0.931 . S
H360 C342 0.931 . S
H361 C346 0.929 . S
H362 C348 0.930 . S
Co363 N367 2.148 . S
Co363 N373 2.128 . S
Co363 N383 2.194 . S
Co363 O388 2.351 . S
Co363 O389 2.155 . S
Co363 O390 2.096 . S
C364 N367 1.301 . S
C364 N368 1.328 . S
C364 H369 0.930 . S
C365 C366 1.333 . S
C365 N367 1.317 . S
C365 H370 0.930 . S
C366 C365 1.333 . S
C366 N368 1.350 . S
C366 H392 0.931 . S
N367 Co363 2.148 . S
N367 C364 1.301 . S
N367 C365 1.317 . S
N368 C364 1.328 . S
N368 C366 1.350 . S
H369 C364 0.930 . S
H370 C365 0.930 . S
C371 O372 1.224 . S
C371 O390 1.247 . S
O372 C371 1.224 . S
N373 Co363 2.128 . S
N373 C374 1.355 . S
N373 C376 1.311 . S
C374 N373 1.355 . S
C374 C375 1.363 . S
C374 H386 0.929 . S
C375 C374 1.363 . S
C375 N377 1.375 . S
C375 H393 0.931 . S
C376 N373 1.311 . S
C376 N377 1.347 . S
C376 H387 0.929 . S
N377 C375 1.375 . S
N377 C376 1.347 . S
C378 C381 1.365 . S
C378 N383 1.328 . S
C378 H384 0.929 . S
C379 C380 1.362 . S
C379 C382 1.378 . S
C379 H394 0.929 . S
C380 C379 1.362 . S
C380 C381 1.366 . S
C381 C378 1.365 . S
C381 C380 1.366 . S
C381 H395 0.930 . S
C382 C379 1.378 . S
C382 N383 1.315 . S
C382 H385 0.930 . S
N383 Co363 2.194 . S
N383 C378 1.328 . S
N383 C382 1.315 . S
H384 C378 0.929 . S
H385 C382 0.930 . S
H386 C374 0.929 . S
H387 C376 0.929 . S
O388 Co363 2.351 . S
O388 C391 1.244 . S
O389 Co363 2.155 . S
O389 C391 1.240 . S
O390 Co363 2.096 . S
O390 C371 1.247 . S
C391 O388 1.244 . S
C391 O389 1.240 . S
H392 C366 0.931 . S
H393 C375 0.931 . S
H394 C379 0.929 . S
H395 C381 0.930 . S
Co396 N400 2.148 . S
Co396 N406 2.128 . S
Co396 N416 2.194 1_545 S
Co396 O421 2.351 1_545 S
Co396 O422 2.155 . S
Co396 O423 2.096 . S
C397 N400 1.301 1_565 S
C397 N401 1.328 . S
C397 H402 0.930 . S
C398 C399 1.333 . S
C398 N400 1.317 . S
C398 H403 0.930 . S
C399 C398 1.333 . S
C399 N401 1.350 1_545 S
C399 H425 0.931 . S
N400 Co396 2.148 . S
N400 C397 1.301 1_545 S
N400 C398 1.317 . S
N401 C397 1.328 . S
N401 C399 1.350 1_565 S
H402 C397 0.930 . S
H403 C398 0.930 . S
C404 O405 1.224 . S
C404 O423 1.247 . S
O405 C404 1.224 . S
N406 Co396 2.128 . S
N406 C407 1.355 1_545 S
N406 C409 1.311 . S
C407 N406 1.355 1_565 S
C407 C408 1.363 . S
C407 H419 0.929 . S
C408 C407 1.363 . S
C408 N410 1.375 1_565 S
C408 H426 0.931 . S
C409 N406 1.311 . S
C409 N410 1.347 . S
C409 H420 0.929 . S
N410 C408 1.375 1_545 S
N410 C409 1.347 . S
C411 C414 1.365 . S
C411 N416 1.328 . S
C411 H417 0.929 . S
C412 C413 1.362 . S
C412 C415 1.378 . S
C412 H427 0.929 . S
C413 C412 1.362 . S
C413 C414 1.366 . S
C414 C411 1.365 . S
C414 C413 1.366 . S
C414 H428 0.930 . S
C415 C412 1.378 . S
C415 N416 1.315 . S
C415 H418 0.930 . S
N416 Co396 2.194 1_565 S
N416 C411 1.328 . S
N416 C415 1.315 . S
H417 C411 0.929 . S
H418 C415 0.930 . S
H419 C407 0.929 . S
H420 C409 0.929 . S
O421 Co396 2.351 1_565 S
O421 C424 1.244 1_565 S
O422 Co396 2.155 . S
O422 C424 1.240 . S
O423 Co396 2.096 . S
O423 C404 1.247 . S
C424 O421 1.244 1_545 S
C424 O422 1.240 . S
H425 C399 0.931 . S
H426 C408 0.931 . S
H427 C412 0.929 . S
H428 C414 0.930 . S
Co429 N433 2.148 . S
Co429 N439 2.128 . S
Co429 N449 2.194 . S
Co429 O454 2.351 . S
Co429 O455 2.155 . S
Co429 O456 2.096 . S
C430 N433 1.301 . S
C430 N434 1.328 . S
C430 H435 0.930 . S
C431 C432 1.333 . S
C431 N433 1.317 . S
C431 H436 0.930 . S
C432 C431 1.333 . S
C432 N434 1.350 . S
C432 H458 0.931 . S
N433 Co429 2.148 . S
N433 C430 1.301 . S
N433 C431 1.317 . S
N434 C430 1.328 . S
N434 C432 1.350 . S
H435 C430 0.930 . S
H436 C431 0.930 . S
C437 O438 1.224 . S
C437 O456 1.247 . S
O438 C437 1.224 . S
N439 Co429 2.128 . S
N439 C440 1.355 . S
N439 C442 1.311 . S
C440 N439 1.355 . S
C440 C441 1.363 . S
C440 H452 0.929 . S
C441 C440 1.363 . S
C441 N443 1.375 . S
C441 H459 0.931 . S
C442 N439 1.311 . S
C442 N443 1.347 . S
C442 H453 0.929 . S
N443 C441 1.375 . S
N443 C442 1.347 . S
C444 C447 1.365 . S
C444 N449 1.328 . S
C444 H450 0.929 . S
C445 C446 1.362 . S
C445 C448 1.378 . S
C445 H460 0.929 . S
C446 C445 1.362 . S
C446 C447 1.366 . S
C447 C444 1.365 . S
C447 C446 1.366 . S
C447 H461 0.930 . S
C448 C445 1.378 . S
C448 N449 1.315 . S
C448 H451 0.930 . S
N449 Co429 2.194 . S
N449 C444 1.328 . S
N449 C448 1.315 . S
H450 C444 0.929 . S
H451 C448 0.930 . S
H452 C440 0.929 . S
H453 C442 0.929 . S
O454 Co429 2.351 . S
O454 C457 1.244 . S
O455 Co429 2.155 . S
O455 C457 1.240 . S
O456 Co429 2.096 . S
O456 C437 1.247 . S
C457 O454 1.244 . S
C457 O455 1.240 . S
H458 C432 0.931 . S
H459 C441 0.931 . S
H460 C445 0.929 . S
H461 C447 0.930 . S
Co462 N466 2.148 . S
Co462 N472 2.128 . S
Co462 N482 2.194 1_565 S
Co462 O487 2.351 1_565 S
Co462 O488 2.155 . S
Co462 O489 2.096 . S
C463 N466 1.301 1_545 S
C463 N467 1.328 . S
C463 H468 0.930 . S
C464 C465 1.333 . S
C464 N466 1.317 . S
C464 H469 0.930 . S
C465 C464 1.333 . S
C465 N467 1.350 1_565 S
C465 H491 0.931 . S
N466 Co462 2.148 . S
N466 C463 1.301 1_565 S
N466 C464 1.317 . S
N467 C463 1.328 . S
N467 C465 1.350 1_545 S
H468 C463 0.930 . S
H469 C464 0.930 . S
C470 O471 1.224 . S
C470 O489 1.247 . S
O471 C470 1.224 . S
N472 Co462 2.128 . S
N472 C473 1.355 1_565 S
N472 C475 1.311 . S
C473 N472 1.355 1_545 S
C473 C474 1.363 . S
C473 H485 0.929 . S
C474 C473 1.363 . S
C474 N476 1.375 1_545 S
C474 H492 0.931 . S
C475 N472 1.311 . S
C475 N476 1.347 . S
C475 H486 0.929 . S
N476 C474 1.375 1_565 S
N476 C475 1.347 . S
C477 C480 1.365 . S
C477 N482 1.328 . S
C477 H483 0.929 . S
C478 C479 1.362 . S
C478 C481 1.378 . S
C478 H493 0.929 . S
C479 C478 1.362 . S
C479 C480 1.366 . S
C480 C477 1.365 . S
C480 C479 1.366 . S
C480 H494 0.930 . S
C481 C478 1.378 . S
C481 N482 1.315 . S
C481 H484 0.930 . S
N482 Co462 2.194 1_545 S
N482 C477 1.328 . S
N482 C481 1.315 . S
H483 C477 0.929 . S
H484 C481 0.930 . S
H485 C473 0.929 . S
H486 C475 0.929 . S
O487 Co462 2.351 1_545 S
O487 C490 1.244 1_545 S
O488 Co462 2.155 . S
O488 C490 1.240 . S
O489 Co462 2.096 . S
O489 C470 1.247 . S
C490 O487 1.244 1_565 S
C490 O488 1.240 . S
H491 C465 0.931 . S
H492 C474 0.931 . S
H493 C478 0.929 . S
H494 C480 0.930 . S
Co495 N499 2.148 . S
Co495 N505 2.128 . S
Co495 N515 2.194 . S
Co495 O520 2.351 . S
Co495 O521 2.155 . S
Co495 O522 2.096 . S
C496 N499 1.301 . S
C496 N500 1.328 . S
C496 H501 0.930 . S
C497 C498 1.333 . S
C497 N499 1.317 . S
C497 H502 0.930 . S
C498 C497 1.333 . S
C498 N500 1.350 . S
C498 H524 0.931 . S
N499 Co495 2.148 . S
N499 C496 1.301 . S
N499 C497 1.317 . S
N500 C496 1.328 . S
N500 C498 1.350 . S
H501 C496 0.930 . S
H502 C497 0.930 . S
C503 O504 1.224 . S
C503 O522 1.247 . S
O504 C503 1.224 . S
N505 Co495 2.128 . S
N505 C506 1.355 . S
N505 C508 1.311 . S
C506 N505 1.355 . S
C506 C507 1.363 . S
C506 H518 0.929 . S
C507 C506 1.363 . S
C507 N509 1.375 . S
C507 H525 0.931 . S
C508 N505 1.311 . S
C508 N509 1.347 . S
C508 H519 0.929 . S
N509 C507 1.375 . S
N509 C508 1.347 . S
C510 C513 1.365 . S
C510 N515 1.328 . S
C510 H516 0.929 . S
C511 C512 1.362 . S
C511 C514 1.378 . S
C511 H526 0.929 . S
C512 C511 1.362 . S
C512 C513 1.366 . S
C513 C510 1.365 . S
C513 C512 1.366 . S
C513 H527 0.930 . S
C514 C511 1.378 . S
C514 N515 1.315 . S
C514 H517 0.930 . S
N515 Co495 2.194 . S
N515 C510 1.328 . S
N515 C514 1.315 . S
H516 C510 0.929 . S
H517 C514 0.930 . S
H518 C506 0.929 . S
H519 C508 0.929 . S
O520 Co495 2.351 . S
O520 C523 1.244 . S
O521 Co495 2.155 . S
O521 C523 1.240 . S
O522 Co495 2.096 . S
O522 C503 1.247 . S
C523 O520 1.244 . S
C523 O521 1.240 . S
H524 C498 0.931 . S
H525 C507 0.931 . S
H526 C511 0.929 . S
H527 C513 0.930 . S
Co528 N532 2.148 . S
Co528 N538 2.128 . S
Co528 N548 2.194 1_556 S
Co528 O553 2.351 1_556 S
Co528 O554 2.155 . S
Co528 O555 2.096 . S
C529 N532 1.301 1_554 S
C529 N533 1.328 . S
C529 H534 0.930 . S
C530 C531 1.333 . S
C530 N532 1.317 . S
C530 H535 0.930 . S
C531 C530 1.333 . S
C531 N533 1.350 1_556 S
C531 H557 0.931 . S
N532 Co528 2.148 . S
N532 C529 1.301 1_556 S
N532 C530 1.317 . S
N533 C529 1.328 . S
N533 C531 1.350 1_554 S
H534 C529 0.930 . S
H535 C530 0.930 . S
C536 O537 1.224 . S
C536 O555 1.247 . S
O537 C536 1.224 . S
N538 Co528 2.128 . S
N538 C539 1.355 1_556 S
N538 C541 1.311 . S
C539 N538 1.355 1_554 S
C539 C540 1.363 . S
C539 H551 0.929 . S
C540 C539 1.363 . S
C540 N542 1.375 1_554 S
C540 H558 0.931 . S
C541 N538 1.311 . S
C541 N542 1.347 . S
C541 H552 0.929 . S
N542 C540 1.375 1_556 S
N542 C541 1.347 . S
C543 C546 1.365 . S
C543 N548 1.328 . S
C543 H549 0.929 . S
C544 C545 1.362 . S
C544 C547 1.378 . S
C544 H559 0.929 . S
C545 C544 1.362 . S
C545 C546 1.366 . S
C546 C543 1.365 . S
C546 C545 1.366 . S
C546 H560 0.930 . S
C547 C544 1.378 . S
C547 N548 1.315 . S
C547 H550 0.930 . S
N548 Co528 2.194 1_554 S
N548 C543 1.328 . S
N548 C547 1.315 . S
H549 C543 0.929 . S
H550 C547 0.930 . S
H551 C539 0.929 . S
H552 C541 0.929 . S
O553 Co528 2.351 1_554 S
O553 C556 1.244 1_554 S
O554 Co528 2.155 . S
O554 C556 1.240 . S
O555 Co528 2.096 . S
O555 C536 1.247 . S
C556 O553 1.244 1_556 S
C556 O554 1.240 . S
H557 C531 0.931 . S
H558 C540 0.931 . S
H559 C544 0.929 . S
H560 C546 0.930 . S
Co561 N565 2.148 . S
Co561 N571 2.128 . S
Co561 N581 2.194 1_554 S
Co561 O586 2.351 1_554 S
Co561 O587 2.155 . S
Co561 O588 2.096 . S
C562 N565 1.301 1_556 S
C562 N566 1.328 . S
C562 H567 0.930 . S
C563 C564 1.333 . S
C563 N565 1.317 . S
C563 H568 0.930 . S
C564 C563 1.333 . S
C564 N566 1.350 1_554 S
C564 H590 0.931 . S
N565 Co561 2.148 . S
N565 C562 1.301 1_554 S
N565 C563 1.317 . S
N566 C562 1.328 . S
N566 C564 1.350 1_556 S
H567 C562 0.930 . S
H568 C563 0.930 . S
C569 O570 1.224 . S
C569 O588 1.247 . S
O570 C569 1.224 . S
N571 Co561 2.128 . S
N571 C572 1.355 1_554 S
N571 C574 1.311 . S
C572 N571 1.355 1_556 S
C572 C573 1.363 . S
C572 H584 0.929 . S
C573 C572 1.363 . S
C573 N575 1.375 1_556 S
C573 H591 0.931 . S
C574 N571 1.311 . S
C574 N575 1.347 . S
C574 H585 0.929 . S
N575 C573 1.375 1_554 S
N575 C574 1.347 . S
C576 C579 1.365 . S
C576 N581 1.328 . S
C576 H582 0.929 . S
C577 C578 1.362 . S
C577 C580 1.378 . S
C577 H592 0.929 . S
C578 C577 1.362 . S
C578 C579 1.366 . S
C579 C576 1.365 . S
C579 C578 1.366 . S
C579 H593 0.930 . S
C580 C577 1.378 . S
C580 N581 1.315 . S
C580 H583 0.930 . S
N581 Co561 2.194 1_556 S
N581 C576 1.328 . S
N581 C580 1.315 . S
H582 C576 0.929 . S
H583 C580 0.930 . S
H584 C572 0.929 . S
H585 C574 0.929 . S
O586 Co561 2.351 1_556 S
O586 C589 1.244 1_556 S
O587 Co561 2.155 . S
O587 C589 1.240 . S
O588 Co561 2.096 . S
O588 C569 1.247 . S
C589 O586 1.244 1_554 S
C589 O587 1.240 . S
H590 C564 0.931 . S
H591 C573 0.931 . S
H592 C577 0.929 . S
H593 C579 0.930 . S
Co594 N598 2.148 . S
Co594 N604 2.128 . S
Co594 N614 2.194 . S
Co594 O619 2.351 . S
Co594 O620 2.155 . S
Co594 O621 2.096 . S
C595 N598 1.301 . S
C595 N599 1.328 . S
C595 H600 0.930 . S
C596 C597 1.333 . S
C596 N598 1.317 . S
C596 H601 0.930 . S
C597 C596 1.333 . S
C597 N599 1.350 . S
C597 H623 0.931 . S
N598 Co594 2.148 . S
N598 C595 1.301 . S
N598 C596 1.317 . S
N599 C595 1.328 . S
N599 C597 1.350 . S
H600 C595 0.930 . S
H601 C596 0.930 . S
C602 O603 1.224 . S
C602 O621 1.247 . S
O603 C602 1.224 . S
N604 Co594 2.128 . S
N604 C605 1.355 . S
N604 C607 1.311 . S
C605 N604 1.355 . S
C605 C606 1.363 . S
C605 H617 0.929 . S
C606 C605 1.363 . S
C606 N608 1.375 . S
C606 H624 0.931 . S
C607 N604 1.311 . S
C607 N608 1.347 . S
C607 H618 0.929 . S
N608 C606 1.375 . S
N608 C607 1.347 . S
C609 C612 1.365 . S
C609 N614 1.328 . S
C609 H615 0.929 . S
C610 C611 1.362 . S
C610 C613 1.378 . S
C610 H625 0.929 . S
C611 C610 1.362 . S
C611 C612 1.366 . S
C612 C609 1.365 . S
C612 C611 1.366 . S
C612 H626 0.930 . S
C613 C610 1.378 . S
C613 N614 1.315 . S
C613 H616 0.930 . S
N614 Co594 2.194 . S
N614 C609 1.328 . S
N614 C613 1.315 . S
H615 C609 0.929 . S
H616 C613 0.930 . S
H617 C605 0.929 . S
H618 C607 0.929 . S
O619 Co594 2.351 . S
O619 C622 1.244 . S
O620 Co594 2.155 . S
O620 C622 1.240 . S
O621 Co594 2.096 . S
O621 C602 1.247 . S
C622 O619 1.244 . S
C622 O620 1.240 . S
H623 C597 0.931 . S
H624 C606 0.931 . S
H625 C610 0.929 . S
H626 C612 0.930 . S
Co627 N631 2.148 . S
Co627 N637 2.128 . S
Co627 N647 2.194 . S
Co627 O652 2.351 . S
Co627 O653 2.155 . S
Co627 O654 2.096 . S
C628 N631 1.301 . S
C628 N632 1.328 . S
C628 H633 0.930 . S
C629 C630 1.333 . S
C629 N631 1.317 . S
C629 H634 0.930 . S
C630 C629 1.333 . S
C630 N632 1.350 . S
C630 H656 0.931 . S
N631 Co627 2.148 . S
N631 C628 1.301 . S
N631 C629 1.317 . S
N632 C628 1.328 . S
N632 C630 1.350 . S
H633 C628 0.930 . S
H634 C629 0.930 . S
C635 O636 1.224 . S
C635 O654 1.247 . S
O636 C635 1.224 . S
N637 Co627 2.128 . S
N637 C638 1.355 . S
N637 C640 1.311 . S
C638 N637 1.355 . S
C638 C639 1.363 . S
C638 H650 0.929 . S
C639 C638 1.363 . S
C639 N641 1.375 . S
C639 H657 0.931 . S
C640 N637 1.311 . S
C640 N641 1.347 . S
C640 H651 0.929 . S
N641 C639 1.375 . S
N641 C640 1.347 . S
C642 C645 1.365 . S
C642 N647 1.328 . S
C642 H648 0.929 . S
C643 C644 1.362 . S
C643 C646 1.378 . S
C643 H658 0.929 . S
C644 C643 1.362 . S
C644 C645 1.366 . S
C645 C642 1.365 . S
C645 C644 1.366 . S
C645 H659 0.930 . S
C646 C643 1.378 . S
C646 N647 1.315 . S
C646 H649 0.930 . S
N647 Co627 2.194 . S
N647 C642 1.328 . S
N647 C646 1.315 . S
H648 C642 0.929 . S
H649 C646 0.930 . S
H650 C638 0.929 . S
H651 C640 0.929 . S
O652 Co627 2.351 . S
O652 C655 1.244 . S
O653 Co627 2.155 . S
O653 C655 1.240 . S
O654 Co627 2.096 . S
O654 C635 1.247 . S
C655 O652 1.244 . S
C655 O653 1.240 . S
H656 C630 0.931 . S
H657 C639 0.931 . S
H658 C643 0.929 . S
H659 C645 0.930 . S
Co660 N664 2.148 . S
Co660 N670 2.128 . S
Co660 N680 2.194 . S
Co660 O685 2.351 . S
Co660 O686 2.155 . S
Co660 O687 2.096 . S
C661 N664 1.301 . S
C661 N665 1.328 . S
C661 H666 0.930 . S
C662 C663 1.333 . S
C662 N664 1.317 . S
C662 H667 0.930 . S
C663 C662 1.333 . S
C663 N665 1.350 . S
C663 H689 0.931 . S
N664 Co660 2.148 . S
N664 C661 1.301 . S
N664 C662 1.317 . S
N665 C661 1.328 . S
N665 C663 1.350 . S
H666 C661 0.930 . S
H667 C662 0.930 . S
C668 O669 1.224 . S
C668 O687 1.247 . S
O669 C668 1.224 . S
N670 Co660 2.128 . S
N670 C671 1.355 . S
N670 C673 1.311 . S
C671 N670 1.355 . S
C671 C672 1.363 . S
C671 H683 0.929 . S
C672 C671 1.363 . S
C672 N674 1.375 . S
C672 H690 0.931 . S
C673 N670 1.311 . S
C673 N674 1.347 . S
C673 H684 0.929 . S
N674 C672 1.375 . S
N674 C673 1.347 . S
C675 C678 1.365 . S
C675 N680 1.328 . S
C675 H681 0.929 . S
C676 C677 1.362 . S
C676 C679 1.378 . S
C676 H691 0.929 . S
C677 C676 1.362 . S
C677 C678 1.366 . S
C678 C675 1.365 . S
C678 C677 1.366 . S
C678 H692 0.930 . S
C679 C676 1.378 . S
C679 N680 1.315 . S
C679 H682 0.930 . S
N680 Co660 2.194 . S
N680 C675 1.328 . S
N680 C679 1.315 . S
H681 C675 0.929 . S
H682 C679 0.930 . S
H683 C671 0.929 . S
H684 C673 0.929 . S
O685 Co660 2.351 . S
O685 C688 1.244 . S
O686 Co660 2.155 . S
O686 C688 1.240 . S
O687 Co660 2.096 . S
O687 C668 1.247 . S
C688 O685 1.244 . S
C688 O686 1.240 . S
H689 C663 0.931 . S
H690 C672 0.931 . S
H691 C676 0.929 . S
H692 C678 0.930 . S
Co693 N697 2.148 . S
Co693 N703 2.128 . S
Co693 N713 2.194 . S
Co693 O718 2.351 . S
Co693 O719 2.155 . S
Co693 O720 2.096 . S
C694 N697 1.301 . S
C694 N698 1.328 . S
C694 H699 0.930 . S
C695 C696 1.333 . S
C695 N697 1.317 . S
C695 H700 0.930 . S
C696 C695 1.333 . S
C696 N698 1.350 . S
C696 H722 0.931 . S
N697 Co693 2.148 . S
N697 C694 1.301 . S
N697 C695 1.317 . S
N698 C694 1.328 . S
N698 C696 1.350 . S
H699 C694 0.930 . S
H700 C695 0.930 . S
C701 O702 1.224 . S
C701 O720 1.247 . S
O702 C701 1.224 . S
N703 Co693 2.128 . S
N703 C704 1.355 . S
N703 C706 1.311 . S
C704 N703 1.355 . S
C704 C705 1.363 . S
C704 H716 0.929 . S
C705 C704 1.363 . S
C705 N707 1.375 . S
C705 H723 0.931 . S
C706 N703 1.311 . S
C706 N707 1.347 . S
C706 H717 0.929 . S
N707 C705 1.375 . S
N707 C706 1.347 . S
C708 C711 1.365 . S
C708 N713 1.328 . S
C708 H714 0.929 . S
C709 C710 1.362 . S
C709 C712 1.378 . S
C709 H724 0.929 . S
C710 C709 1.362 . S
C710 C711 1.366 . S
C711 C708 1.365 . S
C711 C710 1.366 . S
C711 H725 0.930 . S
C712 C709 1.378 . S
C712 N713 1.315 . S
C712 H715 0.930 . S
N713 Co693 2.194 . S
N713 C708 1.328 . S
N713 C712 1.315 . S
H714 C708 0.929 . S
H715 C712 0.930 . S
H716 C704 0.929 . S
H717 C706 0.929 . S
O718 Co693 2.351 . S
O718 C721 1.244 . S
O719 Co693 2.155 . S
O719 C721 1.240 . S
O720 Co693 2.096 . S
O720 C701 1.247 . S
C721 O718 1.244 . S
C721 O719 1.240 . S
H722 C696 0.931 . S
H723 C705 0.931 . S
H724 C709 0.929 . S
H725 C711 0.930 . S
Co726 N730 2.148 . S
Co726 N736 2.128 . S
Co726 N746 2.194 . S
Co726 O751 2.351 . S
Co726 O752 2.155 . S
Co726 O753 2.096 . S
C727 N730 1.301 . S
C727 N731 1.328 . S
C727 H732 0.930 . S
C728 C729 1.333 . S
C728 N730 1.317 . S
C728 H733 0.930 . S
C729 C728 1.333 . S
C729 N731 1.350 . S
C729 H755 0.931 . S
N730 Co726 2.148 . S
N730 C727 1.301 . S
N730 C728 1.317 . S
N731 C727 1.328 . S
N731 C729 1.350 . S
H732 C727 0.930 . S
H733 C728 0.930 . S
C734 O735 1.224 . S
C734 O753 1.247 . S
O735 C734 1.224 . S
N736 Co726 2.128 . S
N736 C737 1.355 . S
N736 C739 1.311 . S
C737 N736 1.355 . S
C737 C738 1.363 . S
C737 H749 0.929 . S
C738 C737 1.363 . S
C738 N740 1.375 . S
C738 H756 0.931 . S
C739 N736 1.311 . S
C739 N740 1.347 . S
C739 H750 0.929 . S
N740 C738 1.375 . S
N740 C739 1.347 . S
C741 C744 1.365 . S
C741 N746 1.328 . S
C741 H747 0.929 . S
C742 C743 1.362 . S
C742 C745 1.378 . S
C742 H757 0.929 . S
C743 C742 1.362 . S
C743 C744 1.366 . S
C744 C741 1.365 . S
C744 C743 1.366 . S
C744 H758 0.930 . S
C745 C742 1.378 . S
C745 N746 1.315 . S
C745 H748 0.930 . S
N746 Co726 2.194 . S
N746 C741 1.328 . S
N746 C745 1.315 . S
H747 C741 0.929 . S
H748 C745 0.930 . S
H749 C737 0.929 . S
H750 C739 0.929 . S
O751 Co726 2.351 . S
O751 C754 1.244 . S
O752 Co726 2.155 . S
O752 C754 1.240 . S
O753 Co726 2.096 . S
O753 C734 1.247 . S
C754 O751 1.244 . S
C754 O752 1.240 . S
H755 C729 0.931 . S
H756 C738 0.931 . S
H757 C742 0.929 . S
H758 C744 0.930 . S
Co759 N763 2.148 . S
Co759 N769 2.128 . S
Co759 N779 2.194 . S
Co759 O784 2.351 . S
Co759 O785 2.155 . S
Co759 O786 2.096 . S
C760 N763 1.301 . S
C760 N764 1.328 . S
C760 H765 0.930 . S
C761 C762 1.333 . S
C761 N763 1.317 . S
C761 H766 0.930 . S
C762 C761 1.333 . S
C762 N764 1.350 . S
C762 H788 0.931 . S
N763 Co759 2.148 . S
N763 C760 1.301 . S
N763 C761 1.317 . S
N764 C760 1.328 . S
N764 C762 1.350 . S
H765 C760 0.930 . S
H766 C761 0.930 . S
C767 O768 1.224 . S
C767 O786 1.247 . S
O768 C767 1.224 . S
N769 Co759 2.128 . S
N769 C770 1.355 . S
N769 C772 1.311 . S
C770 N769 1.355 . S
C770 C771 1.363 . S
C770 H782 0.929 . S
C771 C770 1.363 . S
C771 N773 1.375 . S
C771 H789 0.931 . S
C772 N769 1.311 . S
C772 N773 1.347 . S
C772 H783 0.929 . S
N773 C771 1.375 . S
N773 C772 1.347 . S
C774 C777 1.365 . S
C774 N779 1.328 . S
C774 H780 0.929 . S
C775 C776 1.362 . S
C775 C778 1.378 . S
C775 H790 0.929 . S
C776 C775 1.362 . S
C776 C777 1.366 . S
C777 C774 1.365 . S
C777 C776 1.366 . S
C777 H791 0.930 . S
C778 C775 1.378 . S
C778 N779 1.315 . S
C778 H781 0.930 . S
N779 Co759 2.194 . S
N779 C774 1.328 . S
N779 C778 1.315 . S
H780 C774 0.929 . S
H781 C778 0.930 . S
H782 C770 0.929 . S
H783 C772 0.929 . S
O784 Co759 2.351 . S
O784 C787 1.244 . S
O785 Co759 2.155 . S
O785 C787 1.240 . S
O786 Co759 2.096 . S
O786 C767 1.247 . S
C787 O784 1.244 . S
C787 O785 1.240 . S
H788 C762 0.931 . S
H789 C771 0.931 . S
H790 C775 0.929 . S
H791 C777 0.930 . S
Co792 N796 2.148 . S
Co792 N802 2.128 . S
Co792 N812 2.194 . S
Co792 O817 2.351 . S
Co792 O818 2.155 . S
Co792 O819 2.096 . S
C793 N796 1.301 . S
C793 N797 1.328 . S
C793 H798 0.930 . S
C794 C795 1.333 . S
C794 N796 1.317 . S
C794 H799 0.930 . S
C795 C794 1.333 . S
C795 N797 1.350 . S
C795 H821 0.931 . S
N796 Co792 2.148 . S
N796 C793 1.301 . S
N796 C794 1.317 . S
N797 C793 1.328 . S
N797 C795 1.350 . S
H798 C793 0.930 . S
H799 C794 0.930 . S
C800 O801 1.224 . S
C800 O819 1.247 . S
O801 C800 1.224 . S
N802 Co792 2.128 . S
N802 C803 1.355 . S
N802 C805 1.311 . S
C803 N802 1.355 . S
C803 C804 1.363 . S
C803 H815 0.929 . S
C804 C803 1.363 . S
C804 N806 1.375 . S
C804 H822 0.931 . S
C805 N802 1.311 . S
C805 N806 1.347 . S
C805 H816 0.929 . S
N806 C804 1.375 . S
N806 C805 1.347 . S
C807 C810 1.365 . S
C807 N812 1.328 . S
C807 H813 0.929 . S
C808 C809 1.362 . S
C808 C811 1.378 . S
C808 H823 0.929 . S
C809 C808 1.362 . S
C809 C810 1.366 . S
C810 C807 1.365 . S
C810 C809 1.366 . S
C810 H824 0.930 . S
C811 C808 1.378 . S
C811 N812 1.315 . S
C811 H814 0.930 . S
N812 Co792 2.194 . S
N812 C807 1.328 . S
N812 C811 1.315 . S
H813 C807 0.929 . S
H814 C811 0.930 . S
H815 C803 0.929 . S
H816 C805 0.929 . S
O817 Co792 2.351 . S
O817 C820 1.244 . S
O818 Co792 2.155 . S
O818 C820 1.240 . S
O819 Co792 2.096 . S
O819 C800 1.247 . S
C820 O817 1.244 . S
C820 O818 1.240 . S
H821 C795 0.931 . S
H822 C804 0.931 . S
H823 C808 0.929 . S
H824 C810 0.930 . S
Co825 N829 2.148 . S
Co825 N835 2.128 . S
Co825 N845 2.194 . S
Co825 O850 2.351 . S
Co825 O851 2.155 . S
Co825 O852 2.096 . S
C826 N829 1.301 . S
C826 N830 1.328 . S
C826 H831 0.930 . S
C827 C828 1.333 . S
C827 N829 1.317 . S
C827 H832 0.930 . S
C828 C827 1.333 . S
C828 N830 1.350 . S
C828 H854 0.931 . S
N829 Co825 2.148 . S
N829 C826 1.301 . S
N829 C827 1.317 . S
N830 C826 1.328 . S
N830 C828 1.350 . S
H831 C826 0.930 . S
H832 C827 0.930 . S
C833 O834 1.224 . S
C833 O852 1.247 . S
O834 C833 1.224 . S
N835 Co825 2.128 . S
N835 C836 1.355 . S
N835 C838 1.311 . S
C836 N835 1.355 . S
C836 C837 1.363 . S
C836 H848 0.929 . S
C837 C836 1.363 . S
C837 N839 1.375 . S
C837 H855 0.931 . S
C838 N835 1.311 . S
C838 N839 1.347 . S
C838 H849 0.929 . S
N839 C837 1.375 . S
N839 C838 1.347 . S
C840 C843 1.365 . S
C840 N845 1.328 . S
C840 H846 0.929 . S
C841 C842 1.362 . S
C841 C844 1.378 . S
C841 H856 0.929 . S
C842 C841 1.362 . S
C842 C843 1.366 . S
C843 C840 1.365 . S
C843 C842 1.366 . S
C843 H857 0.930 . S
C844 C841 1.378 . S
C844 N845 1.315 . S
C844 H847 0.930 . S
N845 Co825 2.194 . S
N845 C840 1.328 . S
N845 C844 1.315 . S
H846 C840 0.929 . S
H847 C844 0.930 . S
H848 C836 0.929 . S
H849 C838 0.929 . S
O850 Co825 2.351 . S
O850 C853 1.244 . S
O851 Co825 2.155 . S
O851 C853 1.240 . S
O852 Co825 2.096 . S
O852 C833 1.247 . S
C853 O850 1.244 . S
C853 O851 1.240 . S
H854 C828 0.931 . S
H855 C837 0.931 . S
H856 C841 0.929 . S
H857 C843 0.930 . S
Co858 N862 2.148 . S
Co858 N868 2.128 . S
Co858 N878 2.194 1_455 S
Co858 O883 2.351 1_455 S
Co858 O884 2.155 . S
Co858 O885 2.096 . S
C859 N862 1.301 1_655 S
C859 N863 1.328 . S
C859 H864 0.930 . S
C860 C861 1.333 . S
C860 N862 1.317 . S
C860 H865 0.930 . S
C861 C860 1.333 . S
C861 N863 1.350 1_455 S
C861 H887 0.931 . S
N862 Co858 2.148 . S
N862 C859 1.301 1_455 S
N862 C860 1.317 . S
N863 C859 1.328 . S
N863 C861 1.350 1_655 S
H864 C859 0.930 . S
H865 C860 0.930 . S
C866 O867 1.224 . S
C866 O885 1.247 . S
O867 C866 1.224 . S
N868 Co858 2.128 . S
N868 C869 1.355 1_455 S
N868 C871 1.311 . S
C869 N868 1.355 1_655 S
C869 C870 1.363 . S
C869 H881 0.929 . S
C870 C869 1.363 . S
C870 N872 1.375 1_655 S
C870 H888 0.931 . S
C871 N868 1.311 . S
C871 N872 1.347 . S
C871 H882 0.929 . S
N872 C870 1.375 1_455 S
N872 C871 1.347 . S
C873 C876 1.365 . S
C873 N878 1.328 . S
C873 H879 0.929 . S
C874 C875 1.362 . S
C874 C877 1.378 . S
C874 H889 0.929 . S
C875 C874 1.362 . S
C875 C876 1.366 . S
C876 C873 1.365 . S
C876 C875 1.366 . S
C876 H890 0.930 . S
C877 C874 1.378 . S
C877 N878 1.315 . S
C877 H880 0.930 . S
N878 Co858 2.194 1_655 S
N878 C873 1.328 . S
N878 C877 1.315 . S
H879 C873 0.929 . S
H880 C877 0.930 . S
H881 C869 0.929 . S
H882 C871 0.929 . S
O883 Co858 2.351 1_655 S
O883 C886 1.244 1_655 S
O884 Co858 2.155 . S
O884 C886 1.240 . S
O885 Co858 2.096 . S
O885 C866 1.247 . S
C886 O883 1.244 1_455 S
C886 O884 1.240 . S
H887 C861 0.931 . S
H888 C870 0.931 . S
H889 C874 0.929 . S
H890 C876 0.930 . S
Co891 N895 2.148 . S
Co891 N901 2.128 . S
Co891 N911 2.194 . S
Co891 O916 2.351 . S
Co891 O917 2.155 . S
Co891 O918 2.096 . S
C892 N895 1.301 . S
C892 N896 1.328 . S
C892 H897 0.930 . S
C893 C894 1.333 . S
C893 N895 1.317 . S
C893 H898 0.930 . S
C894 C893 1.333 . S
C894 N896 1.350 . S
C894 H920 0.931 . S
N895 Co891 2.148 . S
N895 C892 1.301 . S
N895 C893 1.317 . S
N896 C892 1.328 . S
N896 C894 1.350 . S
H897 C892 0.930 . S
H898 C893 0.930 . S
C899 O900 1.224 . S
C899 O918 1.247 . S
O900 C899 1.224 . S
N901 Co891 2.128 . S
N901 C902 1.355 . S
N901 C904 1.311 . S
C902 N901 1.355 . S
C902 C903 1.363 . S
C902 H914 0.929 . S
C903 C902 1.363 . S
C903 N905 1.375 . S
C903 H921 0.931 . S
C904 N901 1.311 . S
C904 N905 1.347 . S
C904 H915 0.929 . S
N905 C903 1.375 . S
N905 C904 1.347 . S
C906 C909 1.365 . S
C906 N911 1.328 . S
C906 H912 0.929 . S
C907 C908 1.362 . S
C907 C910 1.378 . S
C907 H922 0.929 . S
C908 C907 1.362 . S
C908 C909 1.366 . S
C909 C906 1.365 . S
C909 C908 1.366 . S
C909 H923 0.930 . S
C910 C907 1.378 . S
C910 N911 1.315 . S
C910 H913 0.930 . S
N911 Co891 2.194 . S
N911 C906 1.328 . S
N911 C910 1.315 . S
H912 C906 0.929 . S
H913 C910 0.930 . S
H914 C902 0.929 . S
H915 C904 0.929 . S
O916 Co891 2.351 . S
O916 C919 1.244 . S
O917 Co891 2.155 . S
O917 C919 1.240 . S
O918 Co891 2.096 . S
O918 C899 1.247 . S
C919 O916 1.244 . S
C919 O917 1.240 . S
H920 C894 0.931 . S
H921 C903 0.931 . S
H922 C907 0.929 . S
H923 C909 0.930 . S
Co924 N928 2.148 . S
Co924 N934 2.128 . S
Co924 N944 2.194 . S
Co924 O949 2.351 . S
Co924 O950 2.155 . S
Co924 O951 2.096 . S
C925 N928 1.301 . S
C925 N929 1.328 . S
C925 H930 0.930 . S
C926 C927 1.333 . S
C926 N928 1.317 . S
C926 H931 0.930 . S
C927 C926 1.333 . S
C927 N929 1.350 . S
C927 H953 0.931 . S
N928 Co924 2.148 . S
N928 C925 1.301 . S
N928 C926 1.317 . S
N929 C925 1.328 . S
N929 C927 1.350 . S
H930 C925 0.930 . S
H931 C926 0.930 . S
C932 O933 1.224 . S
C932 O951 1.247 . S
O933 C932 1.224 . S
N934 Co924 2.128 . S
N934 C935 1.355 . S
N934 C937 1.311 . S
C935 N934 1.355 . S
C935 C936 1.363 . S
C935 H947 0.929 . S
C936 C935 1.363 . S
C936 N938 1.375 . S
C936 H954 0.931 . S
C937 N934 1.311 . S
C937 N938 1.347 . S
C937 H948 0.929 . S
N938 C936 1.375 . S
N938 C937 1.347 . S
C939 C942 1.365 . S
C939 N944 1.328 . S
C939 H945 0.929 . S
C940 C941 1.362 . S
C940 C943 1.378 . S
C940 H955 0.929 . S
C941 C940 1.362 . S
C941 C942 1.366 . S
C942 C939 1.365 . S
C942 C941 1.366 . S
C942 H956 0.930 . S
C943 C940 1.378 . S
C943 N944 1.315 . S
C943 H946 0.930 . S
N944 Co924 2.194 . S
N944 C939 1.328 . S
N944 C943 1.315 . S
H945 C939 0.929 . S
H946 C943 0.930 . S
H947 C935 0.929 . S
H948 C937 0.929 . S
O949 Co924 2.351 . S
O949 C952 1.244 . S
O950 Co924 2.155 . S
O950 C952 1.240 . S
O951 Co924 2.096 . S
O951 C932 1.247 . S
C952 O949 1.244 . S
C952 O950 1.240 . S
H953 C927 0.931 . S
H954 C936 0.931 . S
H955 C940 0.929 . S
H956 C942 0.930 . S
Co957 N961 2.148 . S
Co957 N967 2.128 . S
Co957 N977 2.194 . S
Co957 O982 2.351 . S
Co957 O983 2.155 . S
Co957 O984 2.096 . S
C958 N961 1.301 . S
C958 N962 1.328 . S
C958 H963 0.930 . S
C959 C960 1.333 . S
C959 N961 1.317 . S
C959 H964 0.930 . S
C960 C959 1.333 . S
C960 N962 1.350 . S
C960 H986 0.931 . S
N961 Co957 2.148 . S
N961 C958 1.301 . S
N961 C959 1.317 . S
N962 C958 1.328 . S
N962 C960 1.350 . S
H963 C958 0.930 . S
H964 C959 0.930 . S
C965 O966 1.224 . S
C965 O984 1.247 . S
O966 C965 1.224 . S
N967 Co957 2.128 . S
N967 C968 1.355 . S
N967 C970 1.311 . S
C968 N967 1.355 . S
C968 C969 1.363 . S
C968 H980 0.929 . S
C969 C968 1.363 . S
C969 N971 1.375 . S
C969 H987 0.931 . S
C970 N967 1.311 . S
C970 N971 1.347 . S
C970 H981 0.929 . S
N971 C969 1.375 . S
N971 C970 1.347 . S
C972 C975 1.365 . S
C972 N977 1.328 . S
C972 H978 0.929 . S
C973 C974 1.362 . S
C973 C976 1.378 . S
C973 H988 0.929 . S
C974 C973 1.362 . S
C974 C975 1.366 . S
C975 C972 1.365 . S
C975 C974 1.366 . S
C975 H989 0.930 . S
C976 C973 1.378 . S
C976 N977 1.315 . S
C976 H979 0.930 . S
N977 Co957 2.194 . S
N977 C972 1.328 . S
N977 C976 1.315 . S
H978 C972 0.929 . S
H979 C976 0.930 . S
H980 C968 0.929 . S
H981 C970 0.929 . S
O982 Co957 2.351 . S
O982 C985 1.244 . S
O983 Co957 2.155 . S
O983 C985 1.240 . S
O984 Co957 2.096 . S
O984 C965 1.247 . S
C985 O982 1.244 . S
C985 O983 1.240 . S
H986 C960 0.931 . S
H987 C969 0.931 . S
H988 C973 0.929 . S
H989 C975 0.930 . S
Co990 N994 2.148 . S
Co990 N1000 2.128 . S
Co990 N1010 2.194 1_455 S
Co990 O1015 2.351 1_455 S
Co990 O1016 2.155 . S
Co990 O1017 2.096 . S
C991 N994 1.301 1_655 S
C991 N995 1.328 . S
C991 H996 0.930 . S
C992 C993 1.333 . S
C992 N994 1.317 . S
C992 H997 0.930 . S
C993 C992 1.333 . S
C993 N995 1.350 1_455 S
C993 H1019 0.931 . S
N994 Co990 2.148 . S
N994 C991 1.301 1_455 S
N994 C992 1.317 . S
N995 C991 1.328 . S
N995 C993 1.350 1_655 S
H996 C991 0.930 . S
H997 C992 0.930 . S
C998 O999 1.224 . S
C998 O1017 1.247 . S
O999 C998 1.224 . S
N1000 Co990 2.128 . S
N1000 C1001 1.355 1_455 S
N1000 C1003 1.311 . S
C1001 N1000 1.355 1_655 S
C1001 C1002 1.363 . S
C1001 H1013 0.929 . S
C1002 C1001 1.363 . S
C1002 N1004 1.375 1_655 S
C1002 H1020 0.931 . S
C1003 N1000 1.311 . S
C1003 N1004 1.347 . S
C1003 H1014 0.929 . S
N1004 C1002 1.375 1_455 S
N1004 C1003 1.347 . S
C1005 C1008 1.365 . S
C1005 N1010 1.328 . S
C1005 H1011 0.929 . S
C1006 C1007 1.362 . S
C1006 C1009 1.378 . S
C1006 H1021 0.929 . S
C1007 C1006 1.362 . S
C1007 C1008 1.366 . S
C1008 C1005 1.365 . S
C1008 C1007 1.366 . S
C1008 H1022 0.930 . S
C1009 C1006 1.378 . S
C1009 N1010 1.315 . S
C1009 H1012 0.930 . S
N1010 Co990 2.194 1_655 S
N1010 C1005 1.328 . S
N1010 C1009 1.315 . S
H1011 C1005 0.929 . S
H1012 C1009 0.930 . S
H1013 C1001 0.929 . S
H1014 C1003 0.929 . S
O1015 Co990 2.351 1_655 S
O1015 C1018 1.244 1_655 S
O1016 Co990 2.155 . S
O1016 C1018 1.240 . S
O1017 Co990 2.096 . S
O1017 C998 1.247 . S
C1018 O1015 1.244 1_455 S
C1018 O1016 1.240 . S
H1019 C993 0.931 . S
H1020 C1002 0.931 . S
H1021 C1006 0.929 . S
H1022 C1008 0.930 . S
Co1023 N1027 2.148 . S
Co1023 N1033 2.128 . S
Co1023 N1043 2.194 . S
Co1023 O1048 2.351 . S
Co1023 O1049 2.155 . S
Co1023 O1050 2.096 . S
C1024 N1027 1.301 . S
C1024 N1028 1.328 . S
C1024 H1029 0.930 . S
C1025 C1026 1.333 . S
C1025 N1027 1.317 . S
C1025 H1030 0.930 . S
C1026 C1025 1.333 . S
C1026 N1028 1.350 . S
C1026 H1052 0.931 . S
N1027 Co1023 2.148 . S
N1027 C1024 1.301 . S
N1027 C1025 1.317 . S
N1028 C1024 1.328 . S
N1028 C1026 1.350 . S
H1029 C1024 0.930 . S
H1030 C1025 0.930 . S
C1031 O1032 1.224 . S
C1031 O1050 1.247 . S
O1032 C1031 1.224 . S
N1033 Co1023 2.128 . S
N1033 C1034 1.355 . S
N1033 C1036 1.311 . S
C1034 N1033 1.355 . S
C1034 C1035 1.363 . S
C1034 H1046 0.929 . S
C1035 C1034 1.363 . S
C1035 N1037 1.375 . S
C1035 H1053 0.931 . S
C1036 N1033 1.311 . S
C1036 N1037 1.347 . S
C1036 H1047 0.929 . S
N1037 C1035 1.375 . S
N1037 C1036 1.347 . S
C1038 C1041 1.365 . S
C1038 N1043 1.328 . S
C1038 H1044 0.929 . S
C1039 C1040 1.362 . S
C1039 C1042 1.378 . S
C1039 H1054 0.929 . S
C1040 C1039 1.362 . S
C1040 C1041 1.366 . S
C1041 C1038 1.365 . S
C1041 C1040 1.366 . S
C1041 H1055 0.930 . S
C1042 C1039 1.378 . S
C1042 N1043 1.315 . S
C1042 H1045 0.930 . S
N1043 Co1023 2.194 . S
N1043 C1038 1.328 . S
N1043 C1042 1.315 . S
H1044 C1038 0.929 . S
H1045 C1042 0.930 . S
H1046 C1034 0.929 . S
H1047 C1036 0.929 . S
O1048 Co1023 2.351 . S
O1048 C1051 1.244 . S
O1049 Co1023 2.155 . S
O1049 C1051 1.240 . S
O1050 Co1023 2.096 . S
O1050 C1031 1.247 . S
C1051 O1048 1.244 . S
C1051 O1049 1.240 . S
H1052 C1026 0.931 . S
H1053 C1035 0.931 . S
H1054 C1039 0.929 . S
H1055 C1041 0.930 . S
Co1056 N1060 2.148 . S
Co1056 N1066 2.128 . S
Co1056 N1076 2.194 . S
Co1056 O1081 2.351 . S
Co1056 O1082 2.155 . S
Co1056 O1083 2.096 . S
C1057 N1060 1.301 . S
C1057 N1061 1.328 . S
C1057 H1062 0.930 . S
C1058 C1059 1.333 . S
C1058 N1060 1.317 . S
C1058 H1063 0.930 . S
C1059 C1058 1.333 . S
C1059 N1061 1.350 . S
C1059 H1085 0.931 . S
N1060 Co1056 2.148 . S
N1060 C1057 1.301 . S
N1060 C1058 1.317 . S
N1061 C1057 1.328 . S
N1061 C1059 1.350 . S
H1062 C1057 0.930 . S
H1063 C1058 0.930 . S
C1064 O1065 1.224 . S
C1064 O1083 1.247 . S
O1065 C1064 1.224 . S
N1066 Co1056 2.128 . S
N1066 C1067 1.355 . S
N1066 C1069 1.311 . S
C1067 N1066 1.355 . S
C1067 C1068 1.363 . S
C1067 H1079 0.929 . S
C1068 C1067 1.363 . S
C1068 N1070 1.375 . S
C1068 H1086 0.931 . S
C1069 N1066 1.311 . S
C1069 N1070 1.347 . S
C1069 H1080 0.929 . S
N1070 C1068 1.375 . S
N1070 C1069 1.347 . S
C1071 C1074 1.365 . S
C1071 N1076 1.328 . S
C1071 H1077 0.929 . S
C1072 C1073 1.362 . S
C1072 C1075 1.378 . S
C1072 H1087 0.929 . S
C1073 C1072 1.362 . S
C1073 C1074 1.366 . S
C1074 C1071 1.365 . S
C1074 C1073 1.366 . S
C1074 H1088 0.930 . S
C1075 C1072 1.378 . S
C1075 N1076 1.315 . S
C1075 H1078 0.930 . S
N1076 Co1056 2.194 . S
N1076 C1071 1.328 . S
N1076 C1075 1.315 . S
H1077 C1071 0.929 . S
H1078 C1075 0.930 . S
H1079 C1067 0.929 . S
H1080 C1069 0.929 . S
O1081 Co1056 2.351 . S
O1081 C1084 1.244 . S
O1082 Co1056 2.155 . S
O1082 C1084 1.240 . S
O1083 Co1056 2.096 . S
O1083 C1064 1.247 . S
C1084 O1081 1.244 . S
C1084 O1082 1.240 . S
H1085 C1059 0.931 . S
H1086 C1068 0.931 . S
H1087 C1072 0.929 . S
H1088 C1074 0.930 . S
Co1089 N1093 2.148 . S
Co1089 N1099 2.128 . S
Co1089 N1109 2.194 . S
Co1089 O1114 2.351 . S
Co1089 O1115 2.155 . S
Co1089 O1116 2.096 . S
C1090 N1093 1.301 . S
C1090 N1094 1.328 . S
C1090 H1095 0.930 . S
C1091 C1092 1.333 . S
C1091 N1093 1.317 . S
C1091 H1096 0.930 . S
C1092 C1091 1.333 . S
C1092 N1094 1.350 . S
C1092 H1118 0.931 . S
N1093 Co1089 2.148 . S
N1093 C1090 1.301 . S
N1093 C1091 1.317 . S
N1094 C1090 1.328 . S
N1094 C1092 1.350 . S
H1095 C1090 0.930 . S
H1096 C1091 0.930 . S
C1097 O1098 1.224 . S
C1097 O1116 1.247 . S
O1098 C1097 1.224 . S
N1099 Co1089 2.128 . S
N1099 C1100 1.355 . S
N1099 C1102 1.311 . S
C1100 N1099 1.355 . S
C1100 C1101 1.363 . S
C1100 H1112 0.929 . S
C1101 C1100 1.363 . S
C1101 N1103 1.375 . S
C1101 H1119 0.931 . S
C1102 N1099 1.311 . S
C1102 N1103 1.347 . S
C1102 H1113 0.929 . S
N1103 C1101 1.375 . S
N1103 C1102 1.347 . S
C1104 C1107 1.365 . S
C1104 N1109 1.328 . S
C1104 H1110 0.929 . S
C1105 C1106 1.362 . S
C1105 C1108 1.378 . S
C1105 H1120 0.929 . S
C1106 C1105 1.362 . S
C1106 C1107 1.366 . S
C1107 C1104 1.365 . S
C1107 C1106 1.366 . S
C1107 H1121 0.930 . S
C1108 C1105 1.378 . S
C1108 N1109 1.315 . S
C1108 H1111 0.930 . S
N1109 Co1089 2.194 . S
N1109 C1104 1.328 . S
N1109 C1108 1.315 . S
H1110 C1104 0.929 . S
H1111 C1108 0.930 . S
H1112 C1100 0.929 . S
H1113 C1102 0.929 . S
O1114 Co1089 2.351 . S
O1114 C1117 1.244 . S
O1115 Co1089 2.155 . S
O1115 C1117 1.240 . S
O1116 Co1089 2.096 . S
O1116 C1097 1.247 . S
C1117 O1114 1.244 . S
C1117 O1115 1.240 . S
H1118 C1092 0.931 . S
H1119 C1101 0.931 . S
H1120 C1105 0.929 . S
H1121 C1107 0.930 . S
Co1122 N1126 2.148 . S
Co1122 N1132 2.128 . S
Co1122 N1142 2.194 . S
Co1122 O1147 2.351 . S
Co1122 O1148 2.155 . S
Co1122 O1149 2.096 . S
C1123 N1126 1.301 . S
C1123 N1127 1.328 . S
C1123 H1128 0.930 . S
C1124 C1125 1.333 . S
C1124 N1126 1.317 . S
C1124 H1129 0.930 . S
C1125 C1124 1.333 . S
C1125 N1127 1.350 . S
C1125 H1151 0.931 . S
N1126 Co1122 2.148 . S
N1126 C1123 1.301 . S
N1126 C1124 1.317 . S
N1127 C1123 1.328 . S
N1127 C1125 1.350 . S
H1128 C1123 0.930 . S
H1129 C1124 0.930 . S
C1130 O1131 1.224 . S
C1130 O1149 1.247 . S
O1131 C1130 1.224 . S
N1132 Co1122 2.128 . S
N1132 C1133 1.355 . S
N1132 C1135 1.311 . S
C1133 N1132 1.355 . S
C1133 C1134 1.363 . S
C1133 H1145 0.929 . S
C1134 C1133 1.363 . S
C1134 N1136 1.375 . S
C1134 H1152 0.931 . S
C1135 N1132 1.311 . S
C1135 N1136 1.347 . S
C1135 H1146 0.929 . S
N1136 C1134 1.375 . S
N1136 C1135 1.347 . S
C1137 C1140 1.365 . S
C1137 N1142 1.328 . S
C1137 H1143 0.929 . S
C1138 C1139 1.362 . S
C1138 C1141 1.378 . S
C1138 H1153 0.929 . S
C1139 C1138 1.362 . S
C1139 C1140 1.366 . S
C1140 C1137 1.365 . S
C1140 C1139 1.366 . S
C1140 H1154 0.930 . S
C1141 C1138 1.378 . S
C1141 N1142 1.315 . S
C1141 H1144 0.930 . S
N1142 Co1122 2.194 . S
N1142 C1137 1.328 . S
N1142 C1141 1.315 . S
H1143 C1137 0.929 . S
H1144 C1141 0.930 . S
H1145 C1133 0.929 . S
H1146 C1135 0.929 . S
O1147 Co1122 2.351 . S
O1147 C1150 1.244 . S
O1148 Co1122 2.155 . S
O1148 C1150 1.240 . S
O1149 Co1122 2.096 . S
O1149 C1130 1.247 . S
C1150 O1147 1.244 . S
C1150 O1148 1.240 . S
H1151 C1125 0.931 . S
H1152 C1134 0.931 . S
H1153 C1138 0.929 . S
H1154 C1140 0.930 . S
Co1155 N1159 2.148 . S
Co1155 N1165 2.128 . S
Co1155 N1175 2.194 . S
Co1155 O1180 2.351 . S
Co1155 O1181 2.155 . S
Co1155 O1182 2.096 . S
C1156 N1159 1.301 . S
C1156 N1160 1.328 . S
C1156 H1161 0.930 . S
C1157 C1158 1.333 . S
C1157 N1159 1.317 . S
C1157 H1162 0.930 . S
C1158 C1157 1.333 . S
C1158 N1160 1.350 . S
C1158 H1184 0.931 . S
N1159 Co1155 2.148 . S
N1159 C1156 1.301 . S
N1159 C1157 1.317 . S
N1160 C1156 1.328 . S
N1160 C1158 1.350 . S
H1161 C1156 0.930 . S
H1162 C1157 0.930 . S
C1163 O1164 1.224 . S
C1163 O1182 1.247 . S
O1164 C1163 1.224 . S
N1165 Co1155 2.128 . S
N1165 C1166 1.355 . S
N1165 C1168 1.311 . S
C1166 N1165 1.355 . S
C1166 C1167 1.363 . S
C1166 H1178 0.929 . S
C1167 C1166 1.363 . S
C1167 N1169 1.375 . S
C1167 H1185 0.931 . S
C1168 N1165 1.311 . S
C1168 N1169 1.347 . S
C1168 H1179 0.929 . S
N1169 C1167 1.375 . S
N1169 C1168 1.347 . S
C1170 C1173 1.365 . S
C1170 N1175 1.328 . S
C1170 H1176 0.929 . S
C1171 C1172 1.362 . S
C1171 C1174 1.378 . S
C1171 H1186 0.929 . S
C1172 C1171 1.362 . S
C1172 C1173 1.366 . S
C1173 C1170 1.365 . S
C1173 C1172 1.366 . S
C1173 H1187 0.930 . S
C1174 C1171 1.378 . S
C1174 N1175 1.315 . S
C1174 H1177 0.930 . S
N1175 Co1155 2.194 . S
N1175 C1170 1.328 . S
N1175 C1174 1.315 . S
H1176 C1170 0.929 . S
H1177 C1174 0.930 . S
H1178 C1166 0.929 . S
H1179 C1168 0.929 . S
O1180 Co1155 2.351 . S
O1180 C1183 1.244 . S
O1181 Co1155 2.155 . S
O1181 C1183 1.240 . S
O1182 Co1155 2.096 . S
O1182 C1163 1.247 . S
C1183 O1180 1.244 . S
C1183 O1181 1.240 . S
H1184 C1158 0.931 . S
H1185 C1167 0.931 . S
H1186 C1171 0.929 . S
H1187 C1173 0.930 . S
Co1188 N1192 2.148 . S
Co1188 N1198 2.128 . S
Co1188 N1208 2.194 . S
Co1188 O1213 2.351 . S
Co1188 O1214 2.155 . S
Co1188 O1215 2.096 . S
C1189 N1192 1.301 . S
C1189 N1193 1.328 . S
C1189 H1194 0.930 . S
C1190 C1191 1.333 . S
C1190 N1192 1.317 . S
C1190 H1195 0.930 . S
C1191 C1190 1.333 . S
C1191 N1193 1.350 . S
C1191 H1217 0.931 . S
N1192 Co1188 2.148 . S
N1192 C1189 1.301 . S
N1192 C1190 1.317 . S
N1193 C1189 1.328 . S
N1193 C1191 1.350 . S
H1194 C1189 0.930 . S
H1195 C1190 0.930 . S
C1196 O1197 1.224 . S
C1196 O1215 1.247 . S
O1197 C1196 1.224 . S
N1198 Co1188 2.128 . S
N1198 C1199 1.355 . S
N1198 C1201 1.311 . S
C1199 N1198 1.355 . S
C1199 C1200 1.363 . S
C1199 H1211 0.929 . S
C1200 C1199 1.363 . S
C1200 N1202 1.375 . S
C1200 H1218 0.931 . S
C1201 N1198 1.311 . S
C1201 N1202 1.347 . S
C1201 H1212 0.929 . S
N1202 C1200 1.375 . S
N1202 C1201 1.347 . S
C1203 C1206 1.365 . S
C1203 N1208 1.328 . S
C1203 H1209 0.929 . S
C1204 C1205 1.362 . S
C1204 C1207 1.378 . S
C1204 H1219 0.929 . S
C1205 C1204 1.362 . S
C1205 C1206 1.366 . S
C1206 C1203 1.365 . S
C1206 C1205 1.366 . S
C1206 H1220 0.930 . S
C1207 C1204 1.378 . S
C1207 N1208 1.315 . S
C1207 H1210 0.930 . S
N1208 Co1188 2.194 . S
N1208 C1203 1.328 . S
N1208 C1207 1.315 . S
H1209 C1203 0.929 . S
H1210 C1207 0.930 . S
H1211 C1199 0.929 . S
H1212 C1201 0.929 . S
O1213 Co1188 2.351 . S
O1213 C1216 1.244 . S
O1214 Co1188 2.155 . S
O1214 C1216 1.240 . S
O1215 Co1188 2.096 . S
O1215 C1196 1.247 . S
C1216 O1213 1.244 . S
C1216 O1214 1.240 . S
H1217 C1191 0.931 . S
H1218 C1200 0.931 . S
H1219 C1204 0.929 . S
H1220 C1206 0.930 . S
Co1221 N1225 2.148 . S
Co1221 N1231 2.128 . S
Co1221 N1241 2.194 . S
Co1221 O1246 2.351 . S
Co1221 O1247 2.155 . S
Co1221 O1248 2.096 . S
C1222 N1225 1.301 . S
C1222 N1226 1.328 . S
C1222 H1227 0.930 . S
C1223 C1224 1.333 . S
C1223 N1225 1.317 . S
C1223 H1228 0.930 . S
C1224 C1223 1.333 . S
C1224 N1226 1.350 . S
C1224 H1250 0.931 . S
N1225 Co1221 2.148 . S
N1225 C1222 1.301 . S
N1225 C1223 1.317 . S
N1226 C1222 1.328 . S
N1226 C1224 1.350 . S
H1227 C1222 0.930 . S
H1228 C1223 0.930 . S
C1229 O1230 1.224 . S
C1229 O1248 1.247 . S
O1230 C1229 1.224 . S
N1231 Co1221 2.128 . S
N1231 C1232 1.355 . S
N1231 C1234 1.311 . S
C1232 N1231 1.355 . S
C1232 C1233 1.363 . S
C1232 H1244 0.929 . S
C1233 C1232 1.363 . S
C1233 N1235 1.375 . S
C1233 H1251 0.931 . S
C1234 N1231 1.311 . S
C1234 N1235 1.347 . S
C1234 H1245 0.929 . S
N1235 C1233 1.375 . S
N1235 C1234 1.347 . S
C1236 C1239 1.365 . S
C1236 N1241 1.328 . S
C1236 H1242 0.929 . S
C1237 C1238 1.362 . S
C1237 C1240 1.378 . S
C1237 H1252 0.929 . S
C1238 C1237 1.362 . S
C1238 C1239 1.366 . S
C1239 C1236 1.365 . S
C1239 C1238 1.366 . S
C1239 H1253 0.930 . S
C1240 C1237 1.378 . S
C1240 N1241 1.315 . S
C1240 H1243 0.930 . S
N1241 Co1221 2.194 . S
N1241 C1236 1.328 . S
N1241 C1240 1.315 . S
H1242 C1236 0.929 . S
H1243 C1240 0.930 . S
H1244 C1232 0.929 . S
H1245 C1234 0.929 . S
O1246 Co1221 2.351 . S
O1246 C1249 1.244 . S
O1247 Co1221 2.155 . S
O1247 C1249 1.240 . S
O1248 Co1221 2.096 . S
O1248 C1229 1.247 . S
C1249 O1246 1.244 . S
C1249 O1247 1.240 . S
H1250 C1224 0.931 . S
H1251 C1233 0.931 . S
H1252 C1237 0.929 . S
H1253 C1239 0.930 . S
Co1254 N1258 2.148 . S
Co1254 N1264 2.128 . S
Co1254 N1274 2.194 . S
Co1254 O1279 2.351 . S
Co1254 O1280 2.155 . S
Co1254 O1281 2.096 . S
C1255 N1258 1.301 . S
C1255 N1259 1.328 . S
C1255 H1260 0.930 . S
C1256 C1257 1.333 . S
C1256 N1258 1.317 . S
C1256 H1261 0.930 . S
C1257 C1256 1.333 . S
C1257 N1259 1.350 . S
C1257 H1283 0.931 . S
N1258 Co1254 2.148 . S
N1258 C1255 1.301 . S
N1258 C1256 1.317 . S
N1259 C1255 1.328 . S
N1259 C1257 1.350 . S
H1260 C1255 0.930 . S
H1261 C1256 0.930 . S
C1262 O1263 1.224 . S
C1262 O1281 1.247 . S
O1263 C1262 1.224 . S
N1264 Co1254 2.128 . S
N1264 C1265 1.355 . S
N1264 C1267 1.311 . S
C1265 N1264 1.355 . S
C1265 C1266 1.363 . S
C1265 H1277 0.929 . S
C1266 C1265 1.363 . S
C1266 N1268 1.375 . S
C1266 H1284 0.931 . S
C1267 N1264 1.311 . S
C1267 N1268 1.347 . S
C1267 H1278 0.929 . S
N1268 C1266 1.375 . S
N1268 C1267 1.347 . S
C1269 C1272 1.365 . S
C1269 N1274 1.328 . S
C1269 H1275 0.929 . S
C1270 C1271 1.362 . S
C1270 C1273 1.378 . S
C1270 H1285 0.929 . S
C1271 C1270 1.362 . S
C1271 C1272 1.366 . S
C1272 C1269 1.365 . S
C1272 C1271 1.366 . S
C1272 H1286 0.930 . S
C1273 C1270 1.378 . S
C1273 N1274 1.315 . S
C1273 H1276 0.930 . S
N1274 Co1254 2.194 . S
N1274 C1269 1.328 . S
N1274 C1273 1.315 . S
H1275 C1269 0.929 . S
H1276 C1273 0.930 . S
H1277 C1265 0.929 . S
H1278 C1267 0.929 . S
O1279 Co1254 2.351 . S
O1279 C1282 1.244 . S
O1280 Co1254 2.155 . S
O1280 C1282 1.240 . S
O1281 Co1254 2.096 . S
O1281 C1262 1.247 . S
C1282 O1279 1.244 . S
C1282 O1280 1.240 . S
H1283 C1257 0.931 . S
H1284 C1266 0.931 . S
H1285 C1270 0.929 . S
H1286 C1272 0.930 . S
Co1287 N1291 2.148 . S
Co1287 N1297 2.128 . S
Co1287 N1307 2.194 . S
Co1287 O1312 2.351 . S
Co1287 O1313 2.155 . S
Co1287 O1314 2.096 . S
C1288 N1291 1.301 . S
C1288 N1292 1.328 . S
C1288 H1293 0.930 . S
C1289 C1290 1.333 . S
C1289 N1291 1.317 . S
C1289 H1294 0.930 . S
C1290 C1289 1.333 . S
C1290 N1292 1.350 . S
C1290 H1316 0.931 . S
N1291 Co1287 2.148 . S
N1291 C1288 1.301 . S
N1291 C1289 1.317 . S
N1292 C1288 1.328 . S
N1292 C1290 1.350 . S
H1293 C1288 0.930 . S
H1294 C1289 0.930 . S
C1295 O1296 1.224 . S
C1295 O1314 1.247 . S
O1296 C1295 1.224 . S
N1297 Co1287 2.128 . S
N1297 C1298 1.355 . S
N1297 C1300 1.311 . S
C1298 N1297 1.355 . S
C1298 C1299 1.363 . S
C1298 H1310 0.929 . S
C1299 C1298 1.363 . S
C1299 N1301 1.375 . S
C1299 H1317 0.931 . S
C1300 N1297 1.311 . S
C1300 N1301 1.347 . S
C1300 H1311 0.929 . S
N1301 C1299 1.375 . S
N1301 C1300 1.347 . S
C1302 C1305 1.365 . S
C1302 N1307 1.328 . S
C1302 H1308 0.929 . S
C1303 C1304 1.362 . S
C1303 C1306 1.378 . S
C1303 H1318 0.929 . S
C1304 C1303 1.362 . S
C1304 C1305 1.366 . S
C1305 C1302 1.365 . S
C1305 C1304 1.366 . S
C1305 H1319 0.930 . S
C1306 C1303 1.378 . S
C1306 N1307 1.315 . S
C1306 H1309 0.930 . S
N1307 Co1287 2.194 . S
N1307 C1302 1.328 . S
N1307 C1306 1.315 . S
H1308 C1302 0.929 . S
H1309 C1306 0.930 . S
H1310 C1298 0.929 . S
H1311 C1300 0.929 . S
O1312 Co1287 2.351 . S
O1312 C1315 1.244 . S
O1313 Co1287 2.155 . S
O1313 C1315 1.240 . S
O1314 Co1287 2.096 . S
O1314 C1295 1.247 . S
C1315 O1312 1.244 . S
C1315 O1313 1.240 . S
H1316 C1290 0.931 . S
H1317 C1299 0.931 . S
H1318 C1303 0.929 . S
H1319 C1305 0.930 . S
Co1320 N1324 2.148 . S
Co1320 N1330 2.128 . S
Co1320 N1340 2.194 . S
Co1320 O1345 2.351 . S
Co1320 O1346 2.155 . S
Co1320 O1347 2.096 . S
C1321 N1324 1.301 . S
C1321 N1325 1.328 . S
C1321 H1326 0.930 . S
C1322 C1323 1.333 . S
C1322 N1324 1.317 . S
C1322 H1327 0.930 . S
C1323 C1322 1.333 . S
C1323 N1325 1.350 . S
C1323 H1349 0.931 . S
N1324 Co1320 2.148 . S
N1324 C1321 1.301 . S
N1324 C1322 1.317 . S
N1325 C1321 1.328 . S
N1325 C1323 1.350 . S
H1326 C1321 0.930 . S
H1327 C1322 0.930 . S
C1328 O1329 1.224 . S
C1328 O1347 1.247 . S
O1329 C1328 1.224 . S
N1330 Co1320 2.128 . S
N1330 C1331 1.355 . S
N1330 C1333 1.311 . S
C1331 N1330 1.355 . S
C1331 C1332 1.363 . S
C1331 H1343 0.929 . S
C1332 C1331 1.363 . S
C1332 N1334 1.375 . S
C1332 H1350 0.931 . S
C1333 N1330 1.311 . S
C1333 N1334 1.347 . S
C1333 H1344 0.929 . S
N1334 C1332 1.375 . S
N1334 C1333 1.347 . S
C1335 C1338 1.365 . S
C1335 N1340 1.328 . S
C1335 H1341 0.929 . S
C1336 C1337 1.362 . S
C1336 C1339 1.378 . S
C1336 H1351 0.929 . S
C1337 C1336 1.362 . S
C1337 C1338 1.366 . S
C1338 C1335 1.365 . S
C1338 C1337 1.366 . S
C1338 H1352 0.930 . S
C1339 C1336 1.378 . S
C1339 N1340 1.315 . S
C1339 H1342 0.930 . S
N1340 Co1320 2.194 . S
N1340 C1335 1.328 . S
N1340 C1339 1.315 . S
H1341 C1335 0.929 . S
H1342 C1339 0.930 . S
H1343 C1331 0.929 . S
H1344 C1333 0.929 . S
O1345 Co1320 2.351 . S
O1345 C1348 1.244 . S
O1346 Co1320 2.155 . S
O1346 C1348 1.240 . S
O1347 Co1320 2.096 . S
O1347 C1328 1.247 . S
C1348 O1345 1.244 . S
C1348 O1346 1.240 . S
H1349 C1323 0.931 . S
H1350 C1332 0.931 . S
H1351 C1336 0.929 . S
H1352 C1338 0.930 . S
Co1353 N1357 2.148 . S
Co1353 N1363 2.128 . S
Co1353 N1373 2.194 . S
Co1353 O1378 2.351 . S
Co1353 O1379 2.155 . S
Co1353 O1380 2.096 . S
C1354 N1357 1.301 . S
C1354 N1358 1.328 . S
C1354 H1359 0.930 . S
C1355 C1356 1.333 . S
C1355 N1357 1.317 . S
C1355 H1360 0.930 . S
C1356 C1355 1.333 . S
C1356 N1358 1.350 . S
C1356 H1382 0.931 . S
N1357 Co1353 2.148 . S
N1357 C1354 1.301 . S
N1357 C1355 1.317 . S
N1358 C1354 1.328 . S
N1358 C1356 1.350 . S
H1359 C1354 0.930 . S
H1360 C1355 0.930 . S
C1361 O1362 1.224 . S
C1361 O1380 1.247 . S
O1362 C1361 1.224 . S
N1363 Co1353 2.128 . S
N1363 C1364 1.355 . S
N1363 C1366 1.311 . S
C1364 N1363 1.355 . S
C1364 C1365 1.363 . S
C1364 H1376 0.929 . S
C1365 C1364 1.363 . S
C1365 N1367 1.375 . S
C1365 H1383 0.931 . S
C1366 N1363 1.311 . S
C1366 N1367 1.347 . S
C1366 H1377 0.929 . S
N1367 C1365 1.375 . S
N1367 C1366 1.347 . S
C1368 C1371 1.365 . S
C1368 N1373 1.328 . S
C1368 H1374 0.929 . S
C1369 C1370 1.362 . S
C1369 C1372 1.378 . S
C1369 H1384 0.929 . S
C1370 C1369 1.362 . S
C1370 C1371 1.366 . S
C1371 C1368 1.365 . S
C1371 C1370 1.366 . S
C1371 H1385 0.930 . S
C1372 C1369 1.378 . S
C1372 N1373 1.315 . S
C1372 H1375 0.930 . S
N1373 Co1353 2.194 . S
N1373 C1368 1.328 . S
N1373 C1372 1.315 . S
H1374 C1368 0.929 . S
H1375 C1372 0.930 . S
H1376 C1364 0.929 . S
H1377 C1366 0.929 . S
O1378 Co1353 2.351 . S
O1378 C1381 1.244 . S
O1379 Co1353 2.155 . S
O1379 C1381 1.240 . S
O1380 Co1353 2.096 . S
O1380 C1361 1.247 . S
C1381 O1378 1.244 . S
C1381 O1379 1.240 . S
H1382 C1356 0.931 . S
H1383 C1365 0.931 . S
H1384 C1369 0.929 . S
H1385 C1371 0.930 . S
Co1386 N1390 2.148 . S
Co1386 N1396 2.128 . S
Co1386 N1406 2.194 . S
Co1386 O1411 2.351 . S
Co1386 O1412 2.155 . S
Co1386 O1413 2.096 . S
C1387 N1390 1.301 . S
C1387 N1391 1.328 . S
C1387 H1392 0.930 . S
C1388 C1389 1.333 . S
C1388 N1390 1.317 . S
C1388 H1393 0.930 . S
C1389 C1388 1.333 . S
C1389 N1391 1.350 . S
C1389 H1415 0.931 . S
N1390 Co1386 2.148 . S
N1390 C1387 1.301 . S
N1390 C1388 1.317 . S
N1391 C1387 1.328 . S
N1391 C1389 1.350 . S
H1392 C1387 0.930 . S
H1393 C1388 0.930 . S
C1394 O1395 1.224 . S
C1394 O1413 1.247 . S
O1395 C1394 1.224 . S
N1396 Co1386 2.128 . S
N1396 C1397 1.355 . S
N1396 C1399 1.311 . S
C1397 N1396 1.355 . S
C1397 C1398 1.363 . S
C1397 H1409 0.929 . S
C1398 C1397 1.363 . S
C1398 N1400 1.375 . S
C1398 H1416 0.931 . S
C1399 N1396 1.311 . S
C1399 N1400 1.347 . S
C1399 H1410 0.929 . S
N1400 C1398 1.375 . S
N1400 C1399 1.347 . S
C1401 C1404 1.365 . S
C1401 N1406 1.328 . S
C1401 H1407 0.929 . S
C1402 C1403 1.362 . S
C1402 C1405 1.378 . S
C1402 H1417 0.929 . S
C1403 C1402 1.362 . S
C1403 C1404 1.366 . S
C1404 C1401 1.365 . S
C1404 C1403 1.366 . S
C1404 H1418 0.930 . S
C1405 C1402 1.378 . S
C1405 N1406 1.315 . S
C1405 H1408 0.930 . S
N1406 Co1386 2.194 . S
N1406 C1401 1.328 . S
N1406 C1405 1.315 . S
H1407 C1401 0.929 . S
H1408 C1405 0.930 . S
H1409 C1397 0.929 . S
H1410 C1399 0.929 . S
O1411 Co1386 2.351 . S
O1411 C1414 1.244 . S
O1412 Co1386 2.155 . S
O1412 C1414 1.240 . S
O1413 Co1386 2.096 . S
O1413 C1394 1.247 . S
C1414 O1411 1.244 . S
C1414 O1412 1.240 . S
H1415 C1389 0.931 . S
H1416 C1398 0.931 . S
H1417 C1402 0.929 . S
H1418 C1404 0.930 . S
Co1419 N1423 2.148 . S
Co1419 N1429 2.128 . S
Co1419 N1439 2.194 1_554 S
Co1419 O1444 2.351 1_554 S
Co1419 O1445 2.155 . S
Co1419 O1446 2.096 . S
C1420 N1423 1.301 1_556 S
C1420 N1424 1.328 . S
C1420 H1425 0.930 . S
C1421 C1422 1.333 . S
C1421 N1423 1.317 . S
C1421 H1426 0.930 . S
C1422 C1421 1.333 . S
C1422 N1424 1.350 1_554 S
C1422 H1448 0.931 . S
N1423 Co1419 2.148 . S
N1423 C1420 1.301 1_554 S
N1423 C1421 1.317 . S
N1424 C1420 1.328 . S
N1424 C1422 1.350 1_556 S
H1425 C1420 0.930 . S
H1426 C1421 0.930 . S
C1427 O1428 1.224 . S
C1427 O1446 1.247 . S
O1428 C1427 1.224 . S
N1429 Co1419 2.128 . S
N1429 C1430 1.355 1_554 S
N1429 C1432 1.311 . S
C1430 N1429 1.355 1_556 S
C1430 C1431 1.363 . S
C1430 H1442 0.929 . S
C1431 C1430 1.363 . S
C1431 N1433 1.375 1_556 S
C1431 H1449 0.931 . S
C1432 N1429 1.311 . S
C1432 N1433 1.347 . S
C1432 H1443 0.929 . S
N1433 C1431 1.375 1_554 S
N1433 C1432 1.347 . S
C1434 C1437 1.365 . S
C1434 N1439 1.328 . S
C1434 H1440 0.929 . S
C1435 C1436 1.362 . S
C1435 C1438 1.378 . S
C1435 H1450 0.929 . S
C1436 C1435 1.362 . S
C1436 C1437 1.366 . S
C1437 C1434 1.365 . S
C1437 C1436 1.366 . S
C1437 H1451 0.930 . S
C1438 C1435 1.378 . S
C1438 N1439 1.315 . S
C1438 H1441 0.930 . S
N1439 Co1419 2.194 1_556 S
N1439 C1434 1.328 . S
N1439 C1438 1.315 . S
H1440 C1434 0.929 . S
H1441 C1438 0.930 . S
H1442 C1430 0.929 . S
H1443 C1432 0.929 . S
O1444 Co1419 2.351 1_556 S
O1444 C1447 1.244 1_556 S
O1445 Co1419 2.155 . S
O1445 C1447 1.240 . S
O1446 Co1419 2.096 . S
O1446 C1427 1.247 . S
C1447 O1444 1.244 1_554 S
C1447 O1445 1.240 . S
H1448 C1422 0.931 . S
H1449 C1431 0.931 . S
H1450 C1435 0.929 . S
H1451 C1437 0.930 . S
Co1452 N1456 2.148 . S
Co1452 N1462 2.128 . S
Co1452 N1472 2.194 . S
Co1452 O1477 2.351 . S
Co1452 O1478 2.155 . S
Co1452 O1479 2.096 . S
C1453 N1456 1.301 . S
C1453 N1457 1.328 . S
C1453 H1458 0.930 . S
C1454 C1455 1.333 . S
C1454 N1456 1.317 . S
C1454 H1459 0.930 . S
C1455 C1454 1.333 . S
C1455 N1457 1.350 . S
C1455 H1481 0.931 . S
N1456 Co1452 2.148 . S
N1456 C1453 1.301 . S
N1456 C1454 1.317 . S
N1457 C1453 1.328 . S
N1457 C1455 1.350 . S
H1458 C1453 0.930 . S
H1459 C1454 0.930 . S
C1460 O1461 1.224 . S
C1460 O1479 1.247 . S
O1461 C1460 1.224 . S
N1462 Co1452 2.128 . S
N1462 C1463 1.355 . S
N1462 C1465 1.311 . S
C1463 N1462 1.355 . S
C1463 C1464 1.363 . S
C1463 H1475 0.929 . S
C1464 C1463 1.363 . S
C1464 N1466 1.375 . S
C1464 H1482 0.931 . S
C1465 N1462 1.311 . S
C1465 N1466 1.347 . S
C1465 H1476 0.929 . S
N1466 C1464 1.375 . S
N1466 C1465 1.347 . S
C1467 C1470 1.365 . S
C1467 N1472 1.328 . S
C1467 H1473 0.929 . S
C1468 C1469 1.362 . S
C1468 C1471 1.378 . S
C1468 H1483 0.929 . S
C1469 C1468 1.362 . S
C1469 C1470 1.366 . S
C1470 C1467 1.365 . S
C1470 C1469 1.366 . S
C1470 H1484 0.930 . S
C1471 C1468 1.378 . S
C1471 N1472 1.315 . S
C1471 H1474 0.930 . S
N1472 Co1452 2.194 . S
N1472 C1467 1.328 . S
N1472 C1471 1.315 . S
H1473 C1467 0.929 . S
H1474 C1471 0.930 . S
H1475 C1463 0.929 . S
H1476 C1465 0.929 . S
O1477 Co1452 2.351 . S
O1477 C1480 1.244 . S
O1478 Co1452 2.155 . S
O1478 C1480 1.240 . S
O1479 Co1452 2.096 . S
O1479 C1460 1.247 . S
C1480 O1477 1.244 . S
C1480 O1478 1.240 . S
H1481 C1455 0.931 . S
H1482 C1464 0.931 . S
H1483 C1468 0.929 . S
H1484 C1470 0.930 . S
Co1485 N1489 2.148 . S
Co1485 N1495 2.128 . S
Co1485 N1505 2.194 1_556 S
Co1485 O1510 2.351 1_556 S
Co1485 O1511 2.155 . S
Co1485 O1512 2.096 . S
C1486 N1489 1.301 1_554 S
C1486 N1490 1.328 . S
C1486 H1491 0.930 . S
C1487 C1488 1.333 . S
C1487 N1489 1.317 . S
C1487 H1492 0.930 . S
C1488 C1487 1.333 . S
C1488 N1490 1.350 1_556 S
C1488 H1514 0.931 . S
N1489 Co1485 2.148 . S
N1489 C1486 1.301 1_556 S
N1489 C1487 1.317 . S
N1490 C1486 1.328 . S
N1490 C1488 1.350 1_554 S
H1491 C1486 0.930 . S
H1492 C1487 0.930 . S
C1493 O1494 1.224 . S
C1493 O1512 1.247 . S
O1494 C1493 1.224 . S
N1495 Co1485 2.128 . S
N1495 C1496 1.355 1_556 S
N1495 C1498 1.311 . S
C1496 N1495 1.355 1_554 S
C1496 C1497 1.363 . S
C1496 H1508 0.929 . S
C1497 C1496 1.363 . S
C1497 N1499 1.375 1_554 S
C1497 H1515 0.931 . S
C1498 N1495 1.311 . S
C1498 N1499 1.347 . S
C1498 H1509 0.929 . S
N1499 C1497 1.375 1_556 S
N1499 C1498 1.347 . S
C1500 C1503 1.365 . S
C1500 N1505 1.328 . S
C1500 H1506 0.929 . S
C1501 C1502 1.362 . S
C1501 C1504 1.378 . S
C1501 H1516 0.929 . S
C1502 C1501 1.362 . S
C1502 C1503 1.366 . S
C1503 C1500 1.365 . S
C1503 C1502 1.366 . S
C1503 H1517 0.930 . S
C1504 C1501 1.378 . S
C1504 N1505 1.315 . S
C1504 H1507 0.930 . S
N1505 Co1485 2.194 1_554 S
N1505 C1500 1.328 . S
N1505 C1504 1.315 . S
H1506 C1500 0.929 . S
H1507 C1504 0.930 . S
H1508 C1496 0.929 . S
H1509 C1498 0.929 . S
O1510 Co1485 2.351 1_554 S
O1510 C1513 1.244 1_554 S
O1511 Co1485 2.155 . S
O1511 C1513 1.240 . S
O1512 Co1485 2.096 . S
O1512 C1493 1.247 . S
C1513 O1510 1.244 1_556 S
C1513 O1511 1.240 . S
H1514 C1488 0.931 . S
H1515 C1497 0.931 . S
H1516 C1501 0.929 . S
H1517 C1503 0.930 . S
Co1518 N1522 2.148 . S
Co1518 N1528 2.128 . S
Co1518 N1538 2.194 . S
Co1518 O1543 2.351 . S
Co1518 O1544 2.155 . S
Co1518 O1545 2.096 . S
C1519 N1522 1.301 . S
C1519 N1523 1.328 . S
C1519 H1524 0.930 . S
C1520 C1521 1.333 . S
C1520 N1522 1.317 . S
C1520 H1525 0.930 . S
C1521 C1520 1.333 . S
C1521 N1523 1.350 . S
C1521 H1547 0.931 . S
N1522 Co1518 2.148 . S
N1522 C1519 1.301 . S
N1522 C1520 1.317 . S
N1523 C1519 1.328 . S
N1523 C1521 1.350 . S
H1524 C1519 0.930 . S
H1525 C1520 0.930 . S
C1526 O1527 1.224 . S
C1526 O1545 1.247 . S
O1527 C1526 1.224 . S
N1528 Co1518 2.128 . S
N1528 C1529 1.355 . S
N1528 C1531 1.311 . S
C1529 N1528 1.355 . S
C1529 C1530 1.363 . S
C1529 H1541 0.929 . S
C1530 C1529 1.363 . S
C1530 N1532 1.375 . S
C1530 H1548 0.931 . S
C1531 N1528 1.311 . S
C1531 N1532 1.347 . S
C1531 H1542 0.929 . S
N1532 C1530 1.375 . S
N1532 C1531 1.347 . S
C1533 C1536 1.365 . S
C1533 N1538 1.328 . S
C1533 H1539 0.929 . S
C1534 C1535 1.362 . S
C1534 C1537 1.378 . S
C1534 H1549 0.929 . S
C1535 C1534 1.362 . S
C1535 C1536 1.366 . S
C1536 C1533 1.365 . S
C1536 C1535 1.366 . S
C1536 H1550 0.930 . S
C1537 C1534 1.378 . S
C1537 N1538 1.315 . S
C1537 H1540 0.930 . S
N1538 Co1518 2.194 . S
N1538 C1533 1.328 . S
N1538 C1537 1.315 . S
H1539 C1533 0.929 . S
H1540 C1537 0.930 . S
H1541 C1529 0.929 . S
H1542 C1531 0.929 . S
O1543 Co1518 2.351 . S
O1543 C1546 1.244 . S
O1544 Co1518 2.155 . S
O1544 C1546 1.240 . S
O1545 Co1518 2.096 . S
O1545 C1526 1.247 . S
C1546 O1543 1.244 . S
C1546 O1544 1.240 . S
H1547 C1521 0.931 . S
H1548 C1530 0.931 . S
H1549 C1534 0.929 . S
H1550 C1536 0.930 . S
Co1551 N1555 2.148 . S
Co1551 N1561 2.128 . S
Co1551 N1571 2.194 . S
Co1551 O1576 2.351 . S
Co1551 O1577 2.155 . S
Co1551 O1578 2.096 . S
C1552 N1555 1.301 . S
C1552 N1556 1.328 . S
C1552 H1557 0.930 . S
C1553 C1554 1.333 . S
C1553 N1555 1.317 . S
C1553 H1558 0.930 . S
C1554 C1553 1.333 . S
C1554 N1556 1.350 . S
C1554 H1580 0.931 . S
N1555 Co1551 2.148 . S
N1555 C1552 1.301 . S
N1555 C1553 1.317 . S
N1556 C1552 1.328 . S
N1556 C1554 1.350 . S
H1557 C1552 0.930 . S
H1558 C1553 0.930 . S
C1559 O1560 1.224 . S
C1559 O1578 1.247 . S
O1560 C1559 1.224 . S
N1561 Co1551 2.128 . S
N1561 C1562 1.355 . S
N1561 C1564 1.311 . S
C1562 N1561 1.355 . S
C1562 C1563 1.363 . S
C1562 H1574 0.929 . S
C1563 C1562 1.363 . S
C1563 N1565 1.375 . S
C1563 H1581 0.931 . S
C1564 N1561 1.311 . S
C1564 N1565 1.347 . S
C1564 H1575 0.929 . S
N1565 C1563 1.375 . S
N1565 C1564 1.347 . S
C1566 C1569 1.365 . S
C1566 N1571 1.328 . S
C1566 H1572 0.929 . S
C1567 C1568 1.362 . S
C1567 C1570 1.378 . S
C1567 H1582 0.929 . S
C1568 C1567 1.362 . S
C1568 C1569 1.366 . S
C1569 C1566 1.365 . S
C1569 C1568 1.366 . S
C1569 H1583 0.930 . S
C1570 C1567 1.378 . S
C1570 N1571 1.315 . S
C1570 H1573 0.930 . S
N1571 Co1551 2.194 . S
N1571 C1566 1.328 . S
N1571 C1570 1.315 . S
H1572 C1566 0.929 . S
H1573 C1570 0.930 . S
H1574 C1562 0.929 . S
H1575 C1564 0.929 . S
O1576 Co1551 2.351 . S
O1576 C1579 1.244 . S
O1577 Co1551 2.155 . S
O1577 C1579 1.240 . S
O1578 Co1551 2.096 . S
O1578 C1559 1.247 . S
C1579 O1576 1.244 . S
C1579 O1577 1.240 . S
H1580 C1554 0.931 . S
H1581 C1563 0.931 . S
H1582 C1567 0.929 . S
H1583 C1569 0.930 . S
C1584 C1585 1.387 . S
C1584 H1588 0.950 . S
C1584 C1593 1.390 . S
C1585 C1584 1.387 . S
C1585 C1587 1.387 . S
H1586 C1593 0.950 . S
C1587 C1585 1.387 . S
C1587 C1589 1.390 . S
C1587 H1591 0.950 . S
H1588 C1584 0.950 . S
C1589 C1587 1.390 . S
C1589 C1590 1.387 . S
C1589 H1592 0.950 . S
C1590 C1589 1.387 . S
C1590 C1593 1.387 . S
H1591 C1587 0.950 . S
H1592 C1589 0.950 . S
C1593 C1584 1.390 . S
C1593 H1586 0.950 . S
C1593 C1590 1.387 . S
C1594 C1595 1.387 . S
C1594 H1598 0.950 . S
C1594 C1603 1.390 . S
C1595 C1594 1.387 . S
C1595 C1597 1.387 . S
H1596 C1603 0.950 . S
C1597 C1595 1.387 . S
C1597 C1599 1.390 . S
C1597 H1601 0.950 . S
H1598 C1594 0.950 . S
C1599 C1597 1.390 . S
C1599 C1600 1.387 . S
C1599 H1602 0.950 . S
C1600 C1599 1.387 . S
C1600 C1603 1.387 . S
H1601 C1597 0.950 . S
H1602 C1599 0.950 . S
C1603 C1594 1.390 . S
C1603 H1596 0.950 . S
C1603 C1600 1.387 . S
C1604 C1605 1.387 . S
C1604 H1608 0.950 . S
C1604 C1613 1.390 . S
C1605 C1604 1.387 . S
C1605 C1607 1.387 1_556 S
H1606 C1613 0.950 . S
C1607 C1605 1.387 1_554 S
C1607 C1609 1.390 . S
C1607 H1611 0.950 . S
H1608 C1604 0.950 . S
C1609 C1607 1.390 . S
C1609 C1610 1.387 1_554 S
C1609 H1612 0.950 . S
C1610 C1609 1.387 1_556 S
C1610 C1613 1.387 . S
H1611 C1607 0.950 . S
H1612 C1609 0.950 . S
C1613 C1604 1.390 . S
C1613 H1606 0.950 . S
C1613 C1610 1.387 . S
C1614 C1615 1.387 . S
C1614 H1618 0.950 . S
C1614 C1623 1.390 . S
C1615 C1614 1.387 . S
C1615 C1617 1.387 . S
H1616 C1623 0.950 . S
C1617 C1615 1.387 . S
C1617 C1619 1.390 . S
C1617 H1621 0.950 . S
H1618 C1614 0.950 . S
C1619 C1617 1.390 . S
C1619 C1620 1.387 . S
C1619 H1622 0.950 . S
C1620 C1619 1.387 . S
C1620 C1623 1.387 . S
H1621 C1617 0.950 . S
H1622 C1619 0.950 . S
C1623 C1614 1.390 . S
C1623 H1616 0.950 . S
C1623 C1620 1.387 . S
C1624 C1625 1.387 . S
C1624 H1628 0.950 . S
C1624 C1633 1.390 . S
C1625 C1624 1.387 . S
C1625 C1627 1.387 1_554 S
H1626 C1633 0.950 . S
C1627 C1625 1.387 1_556 S
C1627 C1629 1.390 . S
C1627 H1631 0.950 . S
H1628 C1624 0.950 . S
C1629 C1627 1.390 . S
C1629 C1630 1.387 1_556 S
C1629 H1632 0.950 . S
C1630 C1629 1.387 1_554 S
C1630 C1633 1.387 . S
H1631 C1627 0.950 . S
H1632 C1629 0.950 . S
C1633 C1624 1.390 . S
C1633 H1626 0.950 . S
C1633 C1630 1.387 . S
C1634 C1635 1.387 . S
C1634 H1638 0.950 . S
C1634 C1643 1.390 . S
C1635 C1634 1.387 . S
C1635 C1637 1.387 . S
H1636 C1643 0.950 . S
C1637 C1635 1.387 . S
C1637 C1639 1.390 . S
C1637 H1641 0.950 . S
H1638 C1634 0.950 . S
C1639 C1637 1.390 . S
C1639 C1640 1.387 . S
C1639 H1642 0.950 . S
C1640 C1639 1.387 . S
C1640 C1643 1.387 . S
H1641 C1637 0.950 . S
H1642 C1639 0.950 . S
C1643 C1634 1.390 . S
C1643 H1636 0.950 . S
C1643 C1640 1.387 . S
C1644 C1645 1.387 . S
C1644 H1648 0.950 . S
C1644 C1653 1.390 . S
C1645 C1644 1.387 . S
C1645 C1647 1.387 . S
H1646 C1653 0.950 . S
C1647 C1645 1.387 . S
C1647 C1649 1.390 . S
C1647 H1651 0.950 . S
H1648 C1644 0.950 . S
C1649 C1647 1.390 . S
C1649 C1650 1.387 . S
C1649 H1652 0.950 . S
C1650 C1649 1.387 . S
C1650 C1653 1.387 . S
H1651 C1647 0.950 . S
H1652 C1649 0.950 . S
C1653 C1644 1.390 . S
C1653 H1646 0.950 . S
C1653 C1650 1.387 . S
C1654 C1655 1.387 . S
C1654 H1658 0.950 . S
C1654 C1663 1.390 . S
C1655 C1654 1.387 . S
C1655 C1657 1.387 . S
H1656 C1663 0.950 . S
C1657 C1655 1.387 . S
C1657 C1659 1.390 . S
C1657 H1661 0.950 . S
H1658 C1654 0.950 . S
C1659 C1657 1.390 . S
C1659 C1660 1.387 . S
C1659 H1662 0.950 . S
C1660 C1659 1.387 . S
C1660 C1663 1.387 . S
H1661 C1657 0.950 . S
H1662 C1659 0.950 . S
C1663 C1654 1.390 . S
C1663 H1656 0.950 . S
C1663 C1660 1.387 . S
C1664 C1665 1.387 . S
C1664 H1668 0.950 . S
C1664 C1673 1.390 . S
C1665 C1664 1.387 . S
C1665 C1667 1.387 . S
H1666 C1673 0.950 . S
C1667 C1665 1.387 . S
C1667 C1669 1.390 . S
C1667 H1671 0.950 . S
H1668 C1664 0.950 . S
C1669 C1667 1.390 . S
C1669 C1670 1.387 . S
C1669 H1672 0.950 . S
C1670 C1669 1.387 . S
C1670 C1673 1.387 . S
H1671 C1667 0.950 . S
H1672 C1669 0.950 . S
C1673 C1664 1.390 . S
C1673 H1666 0.950 . S
C1673 C1670 1.387 . S
C1674 C1675 1.387 . S
C1674 H1678 0.950 . S
C1674 C1683 1.390 . S
C1675 C1674 1.387 . S
C1675 C1677 1.387 . S
H1676 C1683 0.950 . S
C1677 C1675 1.387 . S
C1677 C1679 1.390 . S
C1677 H1681 0.950 . S
H1678 C1674 0.950 . S
C1679 C1677 1.390 . S
C1679 C1680 1.387 . S
C1679 H1682 0.950 . S
C1680 C1679 1.387 . S
C1680 C1683 1.387 . S
H1681 C1677 0.950 . S
H1682 C1679 0.950 . S
C1683 C1674 1.390 . S
C1683 H1676 0.950 . S
C1683 C1680 1.387 . S
C1684 C1685 1.387 1_655 S
C1684 H1688 0.950 . S
C1684 C1693 1.390 . S
C1685 C1684 1.387 1_455 S
C1685 C1687 1.387 . S
H1686 C1693 0.950 . S
C1687 C1685 1.387 . S
C1687 C1689 1.390 . S
C1687 H1691 0.950 . S
H1688 C1684 0.950 . S
C1689 C1687 1.390 . S
C1689 C1690 1.387 . S
C1689 H1692 0.950 . S
C1690 C1689 1.387 . S
C1690 C1693 1.387 1_455 S
H1691 C1687 0.950 . S
H1692 C1689 0.950 . S
C1693 C1684 1.390 . S
C1693 H1686 0.950 . S
C1693 C1690 1.387 1_655 S
C1694 C1695 1.387 . S
C1694 H1698 0.950 . S
C1694 C1703 1.390 . S
C1695 C1694 1.387 . S
C1695 C1697 1.387 . S
H1696 C1703 0.950 . S
C1697 C1695 1.387 . S
C1697 C1699 1.390 . S
C1697 H1701 0.950 . S
H1698 C1694 0.950 . S
C1699 C1697 1.390 . S
C1699 C1700 1.387 . S
C1699 H1702 0.950 . S
C1700 C1699 1.387 . S
C1700 C1703 1.387 . S
H1701 C1697 0.950 . S
H1702 C1699 0.950 . S
C1703 C1694 1.390 . S
C1703 H1696 0.950 . S
C1703 C1700 1.387 . S
C1704 C1705 1.387 . S
C1704 H1708 0.950 . S
C1704 C1713 1.390 . S
C1705 C1704 1.387 . S
C1705 C1707 1.387 . S
H1706 C1713 0.950 . S
C1707 C1705 1.387 . S
C1707 C1709 1.390 . S
C1707 H1711 0.950 . S
H1708 C1704 0.950 . S
C1709 C1707 1.390 . S
C1709 C1710 1.387 . S
C1709 H1712 0.950 . S
C1710 C1709 1.387 . S
C1710 C1713 1.387 . S
H1711 C1707 0.950 . S
H1712 C1709 0.950 . S
C1713 C1704 1.390 . S
C1713 H1706 0.950 . S
C1713 C1710 1.387 . S
C1714 C1715 1.387 . S
C1714 H1718 0.950 . S
C1714 C1723 1.390 . S
C1715 C1714 1.387 . S
C1715 C1717 1.387 . S
H1716 C1723 0.950 . S
C1717 C1715 1.387 . S
C1717 C1719 1.390 . S
C1717 H1721 0.950 . S
H1718 C1714 0.950 . S
C1719 C1717 1.390 . S
C1719 C1720 1.387 . S
C1719 H1722 0.950 . S
C1720 C1719 1.387 . S
C1720 C1723 1.387 . S
H1721 C1717 0.950 . S
H1722 C1719 0.950 . S
C1723 C1714 1.390 . S
C1723 H1716 0.950 . S
C1723 C1720 1.387 . S
C1724 C1725 1.387 . S
C1724 H1728 0.950 . S
C1724 C1733 1.390 . S
C1725 C1724 1.387 . S
C1725 C1727 1.387 . S
H1726 C1733 0.950 . S
C1727 C1725 1.387 . S
C1727 C1729 1.390 1_455 S
C1727 H1731 0.950 1_455 S
H1728 C1724 0.950 . S
C1729 C1727 1.390 1_655 S
C1729 C1730 1.387 1_655 S
C1729 H1732 0.950 . S
C1730 C1729 1.387 1_455 S
C1730 C1733 1.387 . S
H1731 C1727 0.950 1_655 S
H1732 C1729 0.950 . S
C1733 C1724 1.390 . S
C1733 H1726 0.950 . S
C1733 C1730 1.387 . S
C1734 C1735 1.387 . S
C1734 H1738 0.950 . S
C1734 C1743 1.390 . S
C1735 C1734 1.387 . S
C1735 C1737 1.387 . S
H1736 C1743 0.950 . S
C1737 C1735 1.387 . S
C1737 C1739 1.390 . S
C1737 H1741 0.950 . S
H1738 C1734 0.950 . S
C1739 C1737 1.390 . S
C1739 C1740 1.387 . S
C1739 H1742 0.950 . S
C1740 C1739 1.387 . S
C1740 C1743 1.387 . S
H1741 C1737 0.950 . S
H1742 C1739 0.950 . S
C1743 C1734 1.390 . S
C1743 H1736 0.950 . S
C1743 C1740 1.387 . S
C1744 C1745 1.387 . S
C1744 H1748 0.950 . S
C1744 C1753 1.390 . S
C1745 C1744 1.387 . S
C1745 C1747 1.387 . S
H1746 C1753 0.950 . S
C1747 C1745 1.387 . S
C1747 C1749 1.390 . S
C1747 H1751 0.950 . S
H1748 C1744 0.950 . S
C1749 C1747 1.390 . S
C1749 C1750 1.387 . S
C1749 H1752 0.950 . S
C1750 C1749 1.387 . S
C1750 C1753 1.387 . S
H1751 C1747 0.950 . S
H1752 C1749 0.950 . S
C1753 C1744 1.390 . S
C1753 H1746 0.950 . S
C1753 C1750 1.387 . S
C1754 C1755 1.387 1_565 S
C1754 H1758 0.950 . S
C1754 C1763 1.390 . S
C1755 C1754 1.387 1_545 S
C1755 C1757 1.387 . S
H1756 C1763 0.950 . S
C1757 C1755 1.387 . S
C1757 C1759 1.390 . S
C1757 H1761 0.950 . S
H1758 C1754 0.950 . S
C1759 C1757 1.390 . S
C1759 C1760 1.387 . S
C1759 H1762 0.950 . S
C1760 C1759 1.387 . S
C1760 C1763 1.387 1_545 S
H1761 C1757 0.950 . S
H1762 C1759 0.950 . S
C1763 C1754 1.390 . S
C1763 H1756 0.950 . S
C1763 C1760 1.387 1_565 S
C1764 C1765 1.387 . S
C1764 H1768 0.950 . S
C1764 C1773 1.390 . S
C1765 C1764 1.387 . S
C1765 C1767 1.387 . S
H1766 C1773 0.950 . S
C1767 C1765 1.387 . S
C1767 C1769 1.390 . S
C1767 H1771 0.950 . S
H1768 C1764 0.950 . S
C1769 C1767 1.390 . S
C1769 C1770 1.387 . S
C1769 H1772 0.950 . S
C1770 C1769 1.387 . S
C1770 C1773 1.387 . S
H1771 C1767 0.950 . S
H1772 C1769 0.950 . S
C1773 C1764 1.390 . S
C1773 H1766 0.950 . S
C1773 C1770 1.387 . S
C1774 C1775 1.387 1_545 S
C1774 H1778 0.950 . S
C1774 C1783 1.390 . S
C1775 C1774 1.387 1_565 S
C1775 C1777 1.387 . S
H1776 C1783 0.950 . S
C1777 C1775 1.387 . S
C1777 C1779 1.390 . S
C1777 H1781 0.950 . S
H1778 C1774 0.950 . S
C1779 C1777 1.390 . S
C1779 C1780 1.387 . S
C1779 H1782 0.950 . S
C1780 C1779 1.387 . S
C1780 C1783 1.387 1_565 S
H1781 C1777 0.950 . S
H1782 C1779 0.950 . S
C1783 C1774 1.390 . S
C1783 H1776 0.950 . S
C1783 C1780 1.387 1_545 S
C1784 C1785 1.387 . S
C1784 H1788 0.950 . S
C1784 C1793 1.390 . S
C1785 C1784 1.387 . S
C1785 C1787 1.387 . S
H1786 C1793 0.950 . S
C1787 C1785 1.387 . S
C1787 C1789 1.390 . S
C1787 H1791 0.950 . S
H1788 C1784 0.950 . S
C1789 C1787 1.390 . S
C1789 C1790 1.387 . S
C1789 H1792 0.950 . S
C1790 C1789 1.387 . S
C1790 C1793 1.387 . S
H1791 C1787 0.950 . S
H1792 C1789 0.950 . S
C1793 C1784 1.390 . S
C1793 H1786 0.950 . S
C1793 C1790 1.387 . S
C1794 C1795 1.387 . S
C1794 H1798 0.950 . S
C1794 C1803 1.390 . S
C1795 C1794 1.387 . S
C1795 C1797 1.387 . S
H1796 C1803 0.950 . S
C1797 C1795 1.387 . S
C1797 C1799 1.390 . S
C1797 H1801 0.950 . S
H1798 C1794 0.950 . S
C1799 C1797 1.390 . S
C1799 C1800 1.387 . S
C1799 H1802 0.950 . S
C1800 C1799 1.387 . S
C1800 C1803 1.387 . S
H1801 C1797 0.950 . S
H1802 C1799 0.950 . S
C1803 C1794 1.390 . S
C1803 H1796 0.950 . S
C1803 C1800 1.387 . S
C1804 C1805 1.387 . S
C1804 H1808 0.950 . S
C1804 C1813 1.390 . S
C1805 C1804 1.387 . S
C1805 C1807 1.387 . S
H1806 C1813 0.950 . S
C1807 C1805 1.387 . S
C1807 C1809 1.390 . S
C1807 H1811 0.950 . S
H1808 C1804 0.950 . S
C1809 C1807 1.390 . S
C1809 C1810 1.387 . S
C1809 H1812 0.950 . S
C1810 C1809 1.387 . S
C1810 C1813 1.387 . S
H1811 C1807 0.950 . S
H1812 C1809 0.950 . S
C1813 C1804 1.390 . S
C1813 H1806 0.950 . S
C1813 C1810 1.387 . S
C1814 C1815 1.387 . S
C1814 H1818 0.950 . S
C1814 C1823 1.390 . S
C1815 C1814 1.387 . S
C1815 C1817 1.387 . S
H1816 C1823 0.950 . S
C1817 C1815 1.387 . S
C1817 C1819 1.390 . S
C1817 H1821 0.950 . S
H1818 C1814 0.950 . S
C1819 C1817 1.390 . S
C1819 C1820 1.387 . S
C1819 H1822 0.950 . S
C1820 C1819 1.387 . S
C1820 C1823 1.387 . S
H1821 C1817 0.950 . S
H1822 C1819 0.950 . S
C1823 C1814 1.390 . S
C1823 H1816 0.950 . S
C1823 C1820 1.387 . S
C1824 C1825 1.387 . S
C1824 H1828 0.950 . S
C1824 C1833 1.390 . S
C1825 C1824 1.387 . S
C1825 C1827 1.387 1_556 S
H1826 C1833 0.950 . S
C1827 C1825 1.387 1_554 S
C1827 C1829 1.390 . S
C1827 H1831 0.950 . S
H1828 C1824 0.950 . S
C1829 C1827 1.390 . S
C1829 C1830 1.387 1_554 S
C1829 H1832 0.950 . S
C1830 C1829 1.387 1_556 S
C1830 C1833 1.387 . S
H1831 C1827 0.950 . S
H1832 C1829 0.950 . S
C1833 C1824 1.390 . S
C1833 H1826 0.950 . S
C1833 C1830 1.387 . S
C1834 C1835 1.387 . S
C1834 H1838 0.950 . S
C1834 C1843 1.390 . S
C1835 C1834 1.387 . S
C1835 C1837 1.387 . S
H1836 C1843 0.950 . S
C1837 C1835 1.387 . S
C1837 C1839 1.390 . S
C1837 H1841 0.950 . S
H1838 C1834 0.950 . S
C1839 C1837 1.390 . S
C1839 C1840 1.387 . S
C1839 H1842 0.950 . S
C1840 C1839 1.387 . S
C1840 C1843 1.387 . S
H1841 C1837 0.950 . S
H1842 C1839 0.950 . S
C1843 C1834 1.390 . S
C1843 H1836 0.950 . S
C1843 C1840 1.387 . S
C1844 C1845 1.387 . S
C1844 H1848 0.950 . S
C1844 C1853 1.390 . S
C1845 C1844 1.387 . S
C1845 C1847 1.387 . S
H1846 C1853 0.950 . S
C1847 C1845 1.387 . S
C1847 C1849 1.390 . S
C1847 H1851 0.950 . S
H1848 C1844 0.950 . S
C1849 C1847 1.390 . S
C1849 C1850 1.387 . S
C1849 H1852 0.950 . S
C1850 C1849 1.387 . S
C1850 C1853 1.387 . S
H1851 C1847 0.950 . S
H1852 C1849 0.950 . S
C1853 C1844 1.390 . S
C1853 H1846 0.950 . S
C1853 C1850 1.387 . S
C1854 C1855 1.387 . S
C1854 H1858 0.950 . S
C1854 C1863 1.390 . S
C1855 C1854 1.387 . S
C1855 C1857 1.387 . S
H1856 C1863 0.950 . S
C1857 C1855 1.387 . S
C1857 C1859 1.390 . S
C1857 H1861 0.950 . S
H1858 C1854 0.950 . S
C1859 C1857 1.390 . S
C1859 C1860 1.387 . S
C1859 H1862 0.950 . S
C1860 C1859 1.387 . S
C1860 C1863 1.387 . S
H1861 C1857 0.950 . S
H1862 C1859 0.950 . S
C1863 C1854 1.390 . S
C1863 H1856 0.950 . S
C1863 C1860 1.387 . S
C1864 C1865 1.387 . S
C1864 H1868 0.950 . S
C1864 C1873 1.390 . S
C1865 C1864 1.387 . S
C1865 C1867 1.387 . S
H1866 C1873 0.950 . S
C1867 C1865 1.387 . S
C1867 C1869 1.390 . S
C1867 H1871 0.950 . S
H1868 C1864 0.950 . S
C1869 C1867 1.390 . S
C1869 C1870 1.387 . S
C1869 H1872 0.950 . S
C1870 C1869 1.387 . S
C1870 C1873 1.387 . S
H1871 C1867 0.950 . S
H1872 C1869 0.950 . S
C1873 C1864 1.390 . S
C1873 H1866 0.950 . S
C1873 C1870 1.387 . S
C1874 C1875 1.387 . S
C1874 H1878 0.950 . S
C1874 C1883 1.390 . S
C1875 C1874 1.387 . S
C1875 C1877 1.387 . S
H1876 C1883 0.950 . S
C1877 C1875 1.387 . S
C1877 C1879 1.390 . S
C1877 H1881 0.950 . S
H1878 C1874 0.950 . S
C1879 C1877 1.390 . S
C1879 C1880 1.387 . S
C1879 H1882 0.950 . S
C1880 C1879 1.387 . S
C1880 C1883 1.387 . S
H1881 C1877 0.950 . S
H1882 C1879 0.950 . S
C1883 C1874 1.390 . S
C1883 H1876 0.950 . S
C1883 C1880 1.387 . S
C1884 C1885 1.387 . S
C1884 H1888 0.950 . S
C1884 C1893 1.390 . S
C1885 C1884 1.387 . S
C1885 C1887 1.387 1_554 S
H1886 C1893 0.950 . S
C1887 C1885 1.387 1_556 S
C1887 C1889 1.390 . S
C1887 H1891 0.950 . S
H1888 C1884 0.950 . S
C1889 C1887 1.390 . S
C1889 C1890 1.387 1_556 S
C1889 H1892 0.950 . S
C1890 C1889 1.387 1_554 S
C1890 C1893 1.387 . S
H1891 C1887 0.950 . S
H1892 C1889 0.950 . S
C1893 C1884 1.390 . S
C1893 H1886 0.950 . S
C1893 C1890 1.387 . S
C1894 C1895 1.387 . S
C1894 H1898 0.950 . S
C1894 C1903 1.390 . S
C1895 C1894 1.387 . S
C1895 C1897 1.387 . S
H1896 C1903 0.950 . S
C1897 C1895 1.387 . S
C1897 C1899 1.390 . S
C1897 H1901 0.950 . S
H1898 C1894 0.950 . S
C1899 C1897 1.390 . S
C1899 C1900 1.387 . S
C1899 H1902 0.950 . S
C1900 C1899 1.387 . S
C1900 C1903 1.387 . S
H1901 C1897 0.950 . S
H1902 C1899 0.950 . S
C1903 C1894 1.390 . S
C1903 H1896 0.950 . S
C1903 C1900 1.387 . S
C1904 C1905 1.356 1_455 S
C1904 H1908 0.970 . S
C1904 C1913 1.404 . S
C1905 C1904 1.356 1_655 S
C1905 C1907 1.387 . S
H1906 C1913 0.950 . S
C1907 C1905 1.387 . S
C1907 C1909 1.390 . S
C1907 H1911 0.950 . S
H1908 C1904 0.970 . S
C1909 C1907 1.390 . S
C1909 C1910 1.387 . S
C1909 H1912 0.950 . S
C1910 C1909 1.387 . S
C1910 C1913 1.387 1_655 S
H1911 C1907 0.950 . S
H1912 C1909 0.950 . S
C1913 C1904 1.404 . S
C1913 H1906 0.950 . S
C1913 C1910 1.387 1_455 S
C1914 C1915 1.387 . S
C1914 H1918 0.950 . S
C1914 C1923 1.390 . S
C1915 C1914 1.387 . S
C1915 C1917 1.387 . S
H1916 C1923 0.950 . S
C1917 C1915 1.387 . S
C1917 C1919 1.390 . S
C1917 H1921 0.950 . S
H1918 C1914 0.950 . S
C1919 C1917 1.390 . S
C1919 C1920 1.387 . S
C1919 H1922 0.950 . S
C1920 C1919 1.387 . S
C1920 C1923 1.387 . S
H1921 C1917 0.950 . S
H1922 C1919 0.950 . S
C1923 C1914 1.390 . S
C1923 H1916 0.950 . S
C1923 C1920 1.387 . S
C1924 C1925 1.387 . S
C1924 H1928 0.950 . S
C1924 C1933 1.390 . S
C1925 C1924 1.387 . S
C1925 C1927 1.387 . S
H1926 C1933 0.950 . S
C1927 C1925 1.387 . S
C1927 C1929 1.390 . S
C1927 H1931 0.950 . S
H1928 C1924 0.950 . S
C1929 C1927 1.390 . S
C1929 C1930 1.387 . S
C1929 H1932 0.950 . S
C1930 C1929 1.387 . S
C1930 C1933 1.387 . S
H1931 C1927 0.950 . S
H1932 C1929 0.950 . S
C1933 C1924 1.390 . S
C1933 H1926 0.950 . S
C1933 C1930 1.387 . S
C1934 C1935 1.387 . S
C1934 H1938 0.950 . S
C1934 C1943 1.390 . S
C1935 C1934 1.387 . S
C1935 C1937 1.387 . S
H1936 C1943 0.950 . S
C1937 C1935 1.387 . S
C1937 C1939 1.390 . S
C1937 H1941 0.950 . S
H1938 C1934 0.950 . S
C1939 C1937 1.390 . S
C1939 C1940 1.387 . S
C1939 H1942 0.950 . S
C1940 C1939 1.387 . S
C1940 C1943 1.387 . S
H1941 C1937 0.950 . S
H1942 C1939 0.950 . S
C1943 C1934 1.390 . S
C1943 H1936 0.950 . S
C1943 C1940 1.387 . S
C1944 C1945 1.387 . S
C1944 H1948 0.950 . S
C1944 C1953 1.390 . S
C1945 C1944 1.387 . S
C1945 C1947 1.387 1_655 S
H1946 C1953 0.950 . S
C1947 C1945 1.387 1_455 S
C1947 C1949 1.390 . S
C1947 H1951 0.950 . S
H1948 C1944 0.950 . S
C1949 C1947 1.390 . S
C1949 C1950 1.387 1_455 S
C1949 H1952 0.950 . S
C1950 C1949 1.387 1_655 S
C1950 C1953 1.387 . S
H1951 C1947 0.950 . S
H1952 C1949 0.950 . S
C1953 C1944 1.390 . S
C1953 H1946 0.950 . S
C1953 C1950 1.387 . S
C1954 C1955 1.387 . S
C1954 H1958 0.950 . S
C1954 C1963 1.390 . S
C1955 C1954 1.387 . S
C1955 C1957 1.387 . S
H1956 C1963 0.950 . S
C1957 C1955 1.387 . S
C1957 C1959 1.390 . S
C1957 H1961 0.950 . S
H1958 C1954 0.950 . S
C1959 C1957 1.390 . S
C1959 C1960 1.387 . S
C1959 H1962 0.950 . S
C1960 C1959 1.387 . S
C1960 C1963 1.387 . S
H1961 C1957 0.950 . S
H1962 C1959 0.950 . S
C1963 C1954 1.390 . S
C1963 H1956 0.950 . S
C1963 C1960 1.387 . S
C1964 C1965 1.387 . S
C1964 H1968 0.950 . S
C1964 C1973 1.390 . S
C1965 C1964 1.387 . S
C1965 C1967 1.387 . S
H1966 C1973 0.950 . S
C1967 C1965 1.387 . S
C1967 C1969 1.390 . S
C1967 H1971 0.950 . S
H1968 C1964 0.950 . S
C1969 C1967 1.390 . S
C1969 C1970 1.387 . S
C1969 H1972 0.950 . S
C1970 C1969 1.387 . S
C1970 C1973 1.387 . S
H1971 C1967 0.950 . S
H1972 C1969 0.950 . S
C1973 C1964 1.390 . S
C1973 H1966 0.950 . S
C1973 C1970 1.387 . S
C1974 C1975 1.387 . S
C1974 H1978 0.950 . S
C1974 C1983 1.390 . S
C1975 C1974 1.387 . S
C1975 C1977 1.387 . S
H1976 C1983 0.950 . S
C1977 C1975 1.387 . S
C1977 C1979 1.390 . S
C1977 H1981 0.950 . S
H1978 C1974 0.950 . S
C1979 C1977 1.390 . S
C1979 C1980 1.387 . S
C1979 H1982 0.950 . S
C1980 C1979 1.387 . S
C1980 C1983 1.387 . S
H1981 C1977 0.950 . S
H1982 C1979 0.950 . S
C1983 C1974 1.390 . S
C1983 H1976 0.950 . S
C1983 C1980 1.387 . S
C1984 C1985 1.387 . S
C1984 H1988 0.950 . S
C1984 C1993 1.390 . S
C1985 C1984 1.387 . S
C1985 C1987 1.387 1_565 S
H1986 C1993 0.950 . S
C1987 C1985 1.387 1_545 S
C1987 C1989 1.390 . S
C1987 H1991 0.950 . S
H1988 C1984 0.950 . S
C1989 C1987 1.390 . S
C1989 C1990 1.387 1_545 S
C1989 H1992 0.950 . S
C1990 C1989 1.387 1_565 S
C1990 C1993 1.387 . S
H1991 C1987 0.950 . S
H1992 C1989 0.950 . S
C1993 C1984 1.390 . S
C1993 H1986 0.950 . S
C1993 C1990 1.387 . S
C1994 C1995 1.387 . S
C1994 H1998 0.950 . S
C1994 C2003 1.390 . S
C1995 C1994 1.387 . S
C1995 C1997 1.387 . S
H1996 C2003 0.950 . S
C1997 C1995 1.387 . S
C1997 C1999 1.390 . S
C1997 H2001 0.950 . S
H1998 C1994 0.950 . S
C1999 C1997 1.390 . S
C1999 C2000 1.387 . S
C1999 H2002 0.950 . S
C2000 C1999 1.387 . S
C2000 C2003 1.387 . S
H2001 C1997 0.950 . S
H2002 C1999 0.950 . S
C2003 C1994 1.390 . S
C2003 H1996 0.950 . S
C2003 C2000 1.387 . S
C2004 C2005 1.387 . S
C2004 H2008 0.950 . S
C2004 C2013 1.390 . S
C2005 C2004 1.387 . S
C2005 C2007 1.387 . S
H2006 C2013 0.950 . S
C2007 C2005 1.387 . S
C2007 C2009 1.390 . S
C2007 H2011 0.950 . S
H2008 C2004 0.950 . S
C2009 C2007 1.390 . S
C2009 C2010 1.387 . S
C2009 H2012 0.950 . S
C2010 C2009 1.387 . S
C2010 C2013 1.387 . S
H2011 C2007 0.950 . S
H2012 C2009 0.950 . S
C2013 C2004 1.390 . S
C2013 H2006 0.950 . S
C2013 C2010 1.387 . S
C2014 C2015 1.387 . S
C2014 H2018 0.950 . S
C2014 C2023 1.390 . S
C2015 C2014 1.387 . S
C2015 C2017 1.387 . S
H2016 C2023 0.950 . S
C2017 C2015 1.387 . S
C2017 C2019 1.390 . S
C2017 H2021 0.950 . S
H2018 C2014 0.950 . S
C2019 C2017 1.390 . S
C2019 C2020 1.387 . S
C2019 H2022 0.950 . S
C2020 C2019 1.387 . S
C2020 C2023 1.387 . S
H2021 C2017 0.950 . S
H2022 C2019 0.950 . S
C2023 C2014 1.390 . S
C2023 H2016 0.950 . S
C2023 C2020 1.387 . S
C2024 C2025 1.387 . S
C2024 H2028 0.950 . S
C2024 C2033 1.390 . S
C2025 C2024 1.387 . S
C2025 C2027 1.387 . S
H2026 C2033 0.950 . S
C2027 C2025 1.387 . S
C2027 C2029 1.390 . S
C2027 H2031 0.950 . S
H2028 C2024 0.950 . S
C2029 C2027 1.390 . S
C2029 C2030 1.387 . S
C2029 H2032 0.950 . S
C2030 C2029 1.387 . S
C2030 C2033 1.387 . S
H2031 C2027 0.950 . S
H2032 C2029 0.950 . S
C2033 C2024 1.390 . S
C2033 H2026 0.950 . S
C2033 C2030 1.387 . S
C2034 C2035 1.387 1_565 S
C2034 H2038 0.950 . S
C2034 C2043 1.390 . S
C2035 C2034 1.387 1_545 S
C2035 C2037 1.387 . S
H2036 C2043 0.950 . S
C2037 C2035 1.387 . S
C2037 C2039 1.390 . S
C2037 H2041 0.950 . S
H2038 C2034 0.950 . S
C2039 C2037 1.390 . S
C2039 C2040 1.387 . S
C2039 H2042 0.950 . S
C2040 C2039 1.387 . S
C2040 C2043 1.387 1_545 S
H2041 C2037 0.950 . S
H2042 C2039 0.950 . S
C2043 C2034 1.390 . S
C2043 H2036 0.950 . S
C2043 C2040 1.387 1_565 S
C2044 C2045 1.387 . S
C2044 H2048 0.950 . S
C2044 C2053 1.390 . S
C2045 C2044 1.387 . S
C2045 C2047 1.387 . S
H2046 C2053 0.950 . S
C2047 C2045 1.387 . S
C2047 C2049 1.390 . S
C2047 H2051 0.950 . S
H2048 C2044 0.950 . S
C2049 C2047 1.390 . S
C2049 C2050 1.387 . S
C2049 H2052 0.950 . S
C2050 C2049 1.387 . S
C2050 C2053 1.387 . S
H2051 C2047 0.950 . S
H2052 C2049 0.950 . S
C2053 C2044 1.390 . S
C2053 H2046 0.950 . S
C2053 C2050 1.387 . S
C2054 C2055 1.387 . S
C2054 H2058 0.950 . S
C2054 C2063 1.390 . S
C2055 C2054 1.387 . S
C2055 C2057 1.387 . S
H2056 C2063 0.950 . S
C2057 C2055 1.387 . S
C2057 C2059 1.390 . S
C2057 H2061 0.950 . S
H2058 C2054 0.950 . S
C2059 C2057 1.390 . S
C2059 C2060 1.387 . S
C2059 H2062 0.950 . S
C2060 C2059 1.387 . S
C2060 C2063 1.387 . S
H2061 C2057 0.950 . S
H2062 C2059 0.950 . S
C2063 C2054 1.390 . S
C2063 H2056 0.950 . S
C2063 C2060 1.387 . S
C2064 C2065 1.387 . S
C2064 H2068 0.950 . S
C2064 C2073 1.390 . S
C2065 C2064 1.387 . S
C2065 C2067 1.387 . S
H2066 C2073 0.950 . S
C2067 C2065 1.387 . S
C2067 C2069 1.390 . S
C2067 H2071 0.950 . S
H2068 C2064 0.950 . S
C2069 C2067 1.390 . S
C2069 C2070 1.387 . S
C2069 H2072 0.950 . S
C2070 C2069 1.387 . S
C2070 C2073 1.387 . S
H2071 C2067 0.950 . S
H2072 C2069 0.950 . S
C2073 C2064 1.390 . S
C2073 H2066 0.950 . S
C2073 C2070 1.387 . S
C2074 C2075 1.387 . S
C2074 H2078 0.950 . S
C2074 C2083 1.390 . S
C2075 C2074 1.387 . S
C2075 C2077 1.387 . S
H2076 C2083 0.950 . S
C2077 C2075 1.387 . S
C2077 C2079 1.390 . S
C2077 H2081 0.950 . S
H2078 C2074 0.950 . S
C2079 C2077 1.390 . S
C2079 C2080 1.387 . S
C2079 H2082 0.950 . S
C2080 C2079 1.387 . S
C2080 C2083 1.387 . S
H2081 C2077 0.950 . S
H2082 C2079 0.950 . S
C2083 C2074 1.390 . S
C2083 H2076 0.950 . S
C2083 C2080 1.387 . S
C2084 C2085 1.387 . S
C2084 H2088 0.950 . S
C2084 C2093 1.390 . S
C2085 C2084 1.387 . S
C2085 C2087 1.387 . S
H2086 C2093 0.950 . S
C2087 C2085 1.387 . S
C2087 C2089 1.390 . S
C2087 H2091 0.950 . S
H2088 C2084 0.950 . S
C2089 C2087 1.390 . S
C2089 C2090 1.387 . S
C2089 H2092 0.950 . S
C2090 C2089 1.387 . S
C2090 C2093 1.387 . S
H2091 C2087 0.950 . S
H2092 C2089 0.950 . S
C2093 C2084 1.390 . S
C2093 H2086 0.950 . S
C2093 C2090 1.387 . S
C2094 C2095 1.387 . S
C2094 H2098 0.950 . S
C2094 C2103 1.390 . S
C2095 C2094 1.387 . S
C2095 C2097 1.387 . S
H2096 C2103 0.950 . S
C2097 C2095 1.387 . S
C2097 C2099 1.390 . S
C2097 H2101 0.950 . S
H2098 C2094 0.950 . S
C2099 C2097 1.390 . S
C2099 C2100 1.387 . S
C2099 H2102 0.950 . S
C2100 C2099 1.387 . S
C2100 C2103 1.387 . S
H2101 C2097 0.950 . S
H2102 C2099 0.950 . S
C2103 C2094 1.390 . S
C2103 H2096 0.950 . S
C2103 C2100 1.387 . S
C2104 C2105 1.387 . S
C2104 H2108 0.950 . S
C2104 C2113 1.390 . S
C2105 C2104 1.387 . S
C2105 C2107 1.387 . S
H2106 C2113 0.950 . S
C2107 C2105 1.387 . S
C2107 C2109 1.390 . S
C2107 H2111 0.950 . S
H2108 C2104 0.950 . S
C2109 C2107 1.390 . S
C2109 C2110 1.387 . S
C2109 H2112 0.950 . S
C2110 C2109 1.387 . S
C2110 C2113 1.387 . S
H2111 C2107 0.950 . S
H2112 C2109 0.950 . S
C2113 C2104 1.390 . S
C2113 H2106 0.950 . S
C2113 C2110 1.387 . S
C2114 C2115 1.387 . S
C2114 H2118 0.950 . S
C2114 C2123 1.390 . S
C2115 C2114 1.387 . S
C2115 C2117 1.387 . S
H2116 C2123 0.950 . S
C2117 C2115 1.387 . S
C2117 C2119 1.390 . S
C2117 H2121 0.950 . S
H2118 C2114 0.950 . S
C2119 C2117 1.390 . S
C2119 C2120 1.387 . S
C2119 H2122 0.950 . S
C2120 C2119 1.387 . S
C2120 C2123 1.387 . S
H2121 C2117 0.950 . S
H2122 C2119 0.950 . S
C2123 C2114 1.390 . S
C2123 H2116 0.950 . S
C2123 C2120 1.387 . S
C2124 C2125 1.387 . S
C2124 H2128 0.950 . S
C2124 C2133 1.390 . S
C2125 C2124 1.387 . S
C2125 C2127 1.387 . S
H2126 C2133 0.950 . S
C2127 C2125 1.387 . S
C2127 C2129 1.390 . S
C2127 H2131 0.950 . S
H2128 C2124 0.950 . S
C2129 C2127 1.390 . S
C2129 C2130 1.387 . S
C2129 H2132 0.950 . S
C2130 C2129 1.387 . S
C2130 C2133 1.387 . S
H2131 C2127 0.950 . S
H2132 C2129 0.950 . S
C2133 C2124 1.390 . S
C2133 H2126 0.950 . S
C2133 C2130 1.387 . S
C2134 C2135 1.387 . S
C2134 H2138 0.950 . S
C2134 C2143 1.390 . S
C2135 C2134 1.387 . S
C2135 C2137 1.387 . S
H2136 C2143 0.950 . S
C2137 C2135 1.387 . S
C2137 C2139 1.390 . S
C2137 H2141 0.950 . S
H2138 C2134 0.950 . S
C2139 C2137 1.390 . S
C2139 C2140 1.387 . S
C2139 H2142 0.950 . S
C2140 C2139 1.387 . S
C2140 C2143 1.387 . S
H2141 C2137 0.950 . S
H2142 C2139 0.950 . S
C2143 C2134 1.390 . S
C2143 H2136 0.950 . S
C2143 C2140 1.387 . S
C2144 C2145 1.387 . S
C2144 H2148 0.950 . S
C2144 C2153 1.390 . S
C2145 C2144 1.387 . S
C2145 C2147 1.387 . S
H2146 C2153 0.950 . S
C2147 C2145 1.387 . S
C2147 C2149 1.390 . S
C2147 H2151 0.950 . S
H2148 C2144 0.950 . S
C2149 C2147 1.390 . S
C2149 C2150 1.387 . S
C2149 H2152 0.950 . S
C2150 C2149 1.387 . S
C2150 C2153 1.387 . S
H2151 C2147 0.950 . S
H2152 C2149 0.950 . S
C2153 C2144 1.390 . S
C2153 H2146 0.950 . S
C2153 C2150 1.387 . S
C2154 C2155 1.387 . S
C2154 H2158 0.950 . S
C2154 C2163 1.390 . S
C2155 C2154 1.387 . S
C2155 C2157 1.387 . S
H2156 C2163 0.950 . S
C2157 C2155 1.387 . S
C2157 C2159 1.390 . S
C2157 H2161 0.950 . S
H2158 C2154 0.950 . S
C2159 C2157 1.390 . S
C2159 C2160 1.387 . S
C2159 H2162 0.950 . S
C2160 C2159 1.387 . S
C2160 C2163 1.387 . S
H2161 C2157 0.950 . S
H2162 C2159 0.950 . S
C2163 C2154 1.390 . S
C2163 H2156 0.950 . S
C2163 C2160 1.387 . S
C2164 C2165 1.387 . S
C2164 H2168 0.950 . S
C2164 C2173 1.390 . S
C2165 C2164 1.387 . S
C2165 C2167 1.387 . S
H2166 C2173 0.950 . S
C2167 C2165 1.387 . S
C2167 C2169 1.390 . S
C2167 H2171 0.950 . S
H2168 C2164 0.950 . S
C2169 C2167 1.390 . S
C2169 C2170 1.387 . S
C2169 H2172 0.950 . S
C2170 C2169 1.387 . S
C2170 C2173 1.387 . S
H2171 C2167 0.950 . S
H2172 C2169 0.950 . S
C2173 C2164 1.390 . S
C2173 H2166 0.950 . S
C2173 C2170 1.387 . S
C2174 C2175 1.387 . S
C2174 H2178 0.950 . S
C2174 C2183 1.390 . S
C2175 C2174 1.387 . S
C2175 C2177 1.387 . S
H2176 C2183 0.950 . S
C2177 C2175 1.387 . S
C2177 C2179 1.390 . S
C2177 H2181 0.950 . S
H2178 C2174 0.950 . S
C2179 C2177 1.390 . S
C2179 C2180 1.387 . S
C2179 H2182 0.950 . S
C2180 C2179 1.387 . S
C2180 C2183 1.387 . S
H2181 C2177 0.950 . S
H2182 C2179 0.950 . S
C2183 C2174 1.390 . S
C2183 H2176 0.950 . S
C2183 C2180 1.387 . S
C2184 C2185 1.387 . S
C2184 H2188 0.950 . S
C2184 C2193 1.390 . S
C2185 C2184 1.387 . S
C2185 C2187 1.387 . S
H2186 C2193 0.950 . S
C2187 C2185 1.387 . S
C2187 C2189 1.390 . S
C2187 H2191 0.950 . S
H2188 C2184 0.950 . S
C2189 C2187 1.390 . S
C2189 C2190 1.387 . S
C2189 H2192 0.950 . S
C2190 C2189 1.387 . S
C2190 C2193 1.387 . S
H2191 C2187 0.950 . S
H2192 C2189 0.950 . S
C2193 C2184 1.390 . S
C2193 H2186 0.950 . S
C2193 C2190 1.387 . S
C2194 C2195 1.387 . S
C2194 H2198 0.950 . S
C2194 C2203 1.390 . S
C2195 C2194 1.387 . S
C2195 C2197 1.387 . S
H2196 C2203 0.950 . S
C2197 C2195 1.387 . S
C2197 C2199 1.390 . S
C2197 H2201 0.950 . S
H2198 C2194 0.950 . S
C2199 C2197 1.390 . S
C2199 C2200 1.387 . S
C2199 H2202 0.950 . S
C2200 C2199 1.387 . S
C2200 C2203 1.387 . S
H2201 C2197 0.950 . S
H2202 C2199 0.950 . S
C2203 C2194 1.390 . S
C2203 H2196 0.950 . S
C2203 C2200 1.387 . S
C2204 C2205 1.387 . S
C2204 H2208 0.950 . S
C2204 C2213 1.390 . S
C2205 C2204 1.387 . S
C2205 C2207 1.387 . S
H2206 C2213 0.950 . S
C2207 C2205 1.387 . S
C2207 C2209 1.390 . S
C2207 H2211 0.950 . S
H2208 C2204 0.950 . S
C2209 C2207 1.390 . S
C2209 C2210 1.387 . S
C2209 H2212 0.950 . S
C2210 C2209 1.387 . S
C2210 C2213 1.387 . S
H2211 C2207 0.950 . S
H2212 C2209 0.950 . S
C2213 C2204 1.390 . S
C2213 H2206 0.950 . S
C2213 C2210 1.387 . S
C2214 C2215 1.387 . S
C2214 H2218 0.950 . S
C2214 C2223 1.390 . S
C2215 C2214 1.387 . S
C2215 C2217 1.387 . S
H2216 C2223 0.950 . S
C2217 C2215 1.387 . S
C2217 C2219 1.390 . S
C2217 H2221 0.950 . S
H2218 C2214 0.950 . S
C2219 C2217 1.390 . S
C2219 C2220 1.387 . S
C2219 H2222 0.950 . S
C2220 C2219 1.387 . S
C2220 C2223 1.387 . S
H2221 C2217 0.950 . S
H2222 C2219 0.950 . S
C2223 C2214 1.390 . S
C2223 H2216 0.950 . S
C2223 C2220 1.387 . S
C2224 C2225 1.387 . S
C2224 H2228 0.950 . S
C2224 C2233 1.390 . S
C2225 C2224 1.387 . S
C2225 C2227 1.387 . S
H2226 C2233 0.950 . S
C2227 C2225 1.387 . S
C2227 C2229 1.390 . S
C2227 H2231 0.950 . S
H2228 C2224 0.950 . S
C2229 C2227 1.390 . S
C2229 C2230 1.387 . S
C2229 H2232 0.950 . S
C2230 C2229 1.387 . S
C2230 C2233 1.387 . S
H2231 C2227 0.950 . S
H2232 C2229 0.950 . S
C2233 C2224 1.390 . S
C2233 H2226 0.950 . S
C2233 C2230 1.387 . S
C2234 C2235 1.387 . S
C2234 H2238 0.950 . S
C2234 C2243 1.390 . S
C2235 C2234 1.387 . S
C2235 C2237 1.387 . S
H2236 C2243 0.950 . S
C2237 C2235 1.387 . S
C2237 C2239 1.390 . S
C2237 H2241 0.950 . S
H2238 C2234 0.950 . S
C2239 C2237 1.390 . S
C2239 C2240 1.387 . S
C2239 H2242 0.950 . S
C2240 C2239 1.387 . S
C2240 C2243 1.387 . S
H2241 C2237 0.950 . S
H2242 C2239 0.950 . S
C2243 C2234 1.390 . S
C2243 H2236 0.950 . S
C2243 C2240 1.387 . S
C2244 C2245 1.387 . S
C2244 H2248 0.950 . S
C2244 C2253 1.390 . S
C2245 C2244 1.387 . S
C2245 C2247 1.387 . S
H2246 C2253 0.950 . S
C2247 C2245 1.387 . S
C2247 C2249 1.390 . S
C2247 H2251 0.950 . S
H2248 C2244 0.950 . S
C2249 C2247 1.390 . S
C2249 C2250 1.387 . S
C2249 H2252 0.950 . S
C2250 C2249 1.387 . S
C2250 C2253 1.387 . S
H2251 C2247 0.950 . S
H2252 C2249 0.950 . S
C2253 C2244 1.390 . S
C2253 H2246 0.950 . S
C2253 C2250 1.387 . S
C2254 C2255 1.387 . S
C2254 H2258 0.950 . S
C2254 C2263 1.390 . S
C2255 C2254 1.387 . S
C2255 C2257 1.387 . S
H2256 C2263 0.950 . S
C2257 C2255 1.387 . S
C2257 C2259 1.390 . S
C2257 H2261 0.950 . S
H2258 C2254 0.950 . S
C2259 C2257 1.390 . S
C2259 C2260 1.387 . S
C2259 H2262 0.950 . S
C2260 C2259 1.387 . S
C2260 C2263 1.387 . S
H2261 C2257 0.950 . S
H2262 C2259 0.950 . S
C2263 C2254 1.390 . S
C2263 H2256 0.950 . S
C2263 C2260 1.387 . S
C2264 C2265 1.387 . S
C2264 H2268 0.950 . S
C2264 C2273 1.390 . S
C2265 C2264 1.387 . S
C2265 C2267 1.387 . S
H2266 C2273 0.950 . S
C2267 C2265 1.387 . S
C2267 C2269 1.390 . S
C2267 H2271 0.950 . S
H2268 C2264 0.950 . S
C2269 C2267 1.390 . S
C2269 C2270 1.387 . S
C2269 H2272 0.950 . S
C2270 C2269 1.387 . S
C2270 C2273 1.387 . S
H2271 C2267 0.950 . S
H2272 C2269 0.950 . S
C2273 C2264 1.390 . S
C2273 H2266 0.950 . S
C2273 C2270 1.387 . S
C2274 C2275 1.387 . S
C2274 H2278 0.950 . S
C2274 C2283 1.390 . S
C2275 C2274 1.387 . S
C2275 C2277 1.387 . S
H2276 C2283 0.950 . S
C2277 C2275 1.387 . S
C2277 C2279 1.390 . S
C2277 H2281 0.950 . S
H2278 C2274 0.950 . S
C2279 C2277 1.390 . S
C2279 C2280 1.387 . S
C2279 H2282 0.950 . S
C2280 C2279 1.387 . S
C2280 C2283 1.387 . S
H2281 C2277 0.950 . S
H2282 C2279 0.950 . S
C2283 C2274 1.390 . S
C2283 H2276 0.950 . S
C2283 C2280 1.387 . S
C2284 C2285 1.387 . S
C2284 H2288 0.950 . S
C2284 C2293 1.390 . S
C2285 C2284 1.387 . S
C2285 C2287 1.387 . S
H2286 C2293 0.950 . S
C2287 C2285 1.387 . S
C2287 C2289 1.390 . S
C2287 H2291 0.950 . S
H2288 C2284 0.950 . S
C2289 C2287 1.390 . S
C2289 C2290 1.387 . S
C2289 H2292 0.950 . S
C2290 C2289 1.387 . S
C2290 C2293 1.387 . S
H2291 C2287 0.950 . S
H2292 C2289 0.950 . S
C2293 C2284 1.390 . S
C2293 H2286 0.950 . S
C2293 C2290 1.387 . S
C2294 C2295 1.387 . S
C2294 H2298 0.950 . S
C2294 C2303 1.390 . S
C2295 C2294 1.387 . S
C2295 C2297 1.387 . S
H2296 C2303 0.950 . S
C2297 C2295 1.387 . S
C2297 C2299 1.390 . S
C2297 H2301 0.950 . S
H2298 C2294 0.950 . S
C2299 C2297 1.390 . S
C2299 C2300 1.387 . S
C2299 H2302 0.950 . S
C2300 C2299 1.387 . S
C2300 C2303 1.387 . S
H2301 C2297 0.950 . S
H2302 C2299 0.950 . S
C2303 C2294 1.390 . S
C2303 H2296 0.950 . S
C2303 C2300 1.387 . S
C2304 C2305 1.387 . S
C2304 H2308 0.950 . S
C2304 C2313 1.390 . S
C2305 C2304 1.387 . S
C2305 C2307 1.387 . S
H2306 C2313 0.950 . S
C2307 C2305 1.387 . S
C2307 C2309 1.390 . S
C2307 H2311 0.950 . S
H2308 C2304 0.950 . S
C2309 C2307 1.390 . S
C2309 C2310 1.387 . S
C2309 H2312 0.950 . S
C2310 C2309 1.387 . S
C2310 C2313 1.387 . S
H2311 C2307 0.950 . S
H2312 C2309 0.950 . S
C2313 C2304 1.390 . S
C2313 H2306 0.950 . S
C2313 C2310 1.387 . S
C2314 C2315 1.387 . S
C2314 H2318 0.950 . S
C2314 C2323 1.390 . S
C2315 C2314 1.387 . S
C2315 C2317 1.387 . S
H2316 C2323 0.950 . S
C2317 C2315 1.387 . S
C2317 C2319 1.390 . S
C2317 H2321 0.950 . S
H2318 C2314 0.950 . S
C2319 C2317 1.390 . S
C2319 C2320 1.387 . S
C2319 H2322 0.950 . S
C2320 C2319 1.387 . S
C2320 C2323 1.387 . S
H2321 C2317 0.950 . S
H2322 C2319 0.950 . S
C2323 C2314 1.390 . S
C2323 H2316 0.950 . S
C2323 C2320 1.387 . S
C2324 C2325 1.387 . S
C2324 H2328 0.950 . S
C2324 C2333 1.390 . S
C2325 C2324 1.387 . S
C2325 C2327 1.387 . S
H2326 C2333 0.950 . S
C2327 C2325 1.387 . S
C2327 C2329 1.390 . S
C2327 H2331 0.950 . S
H2328 C2324 0.950 . S
C2329 C2327 1.390 . S
C2329 C2330 1.387 . S
C2329 H2332 0.950 . S
C2330 C2329 1.387 . S
C2330 C2333 1.387 . S
H2331 C2327 0.950 . S
H2332 C2329 0.950 . S
C2333 C2324 1.390 . S
C2333 H2326 0.950 . S
C2333 C2330 1.387 . S
C2334 C2335 1.387 . S
C2334 H2338 0.950 . S
C2334 C2343 1.390 . S
C2335 C2334 1.387 . S
C2335 C2337 1.387 . S
H2336 C2343 0.950 . S
C2337 C2335 1.387 . S
C2337 C2339 1.390 . S
C2337 H2341 0.950 . S
H2338 C2334 0.950 . S
C2339 C2337 1.390 . S
C2339 C2340 1.387 . S
C2339 H2342 0.950 . S
C2340 C2339 1.387 . S
C2340 C2343 1.387 . S
H2341 C2337 0.950 . S
H2342 C2339 0.950 . S
C2343 C2334 1.390 . S
C2343 H2336 0.950 . S
C2343 C2340 1.387 . S
C2344 C2345 1.387 . S
C2344 H2348 0.950 . S
C2344 C2353 1.390 . S
C2345 C2344 1.387 . S
C2345 C2347 1.387 . S
H2346 C2353 0.950 . S
C2347 C2345 1.387 . S
C2347 C2349 1.390 . S
C2347 H2351 0.950 . S
H2348 C2344 0.950 . S
C2349 C2347 1.390 . S
C2349 C2350 1.387 . S
C2349 H2352 0.950 . S
C2350 C2349 1.387 . S
C2350 C2353 1.387 . S
H2351 C2347 0.950 . S
H2352 C2349 0.950 . S
C2353 C2344 1.390 . S
C2353 H2346 0.950 . S
C2353 C2350 1.387 . S
C2354 C2355 1.387 . S
C2354 H2358 0.950 . S
C2354 C2363 1.390 . S
C2355 C2354 1.387 . S
C2355 C2357 1.387 . S
H2356 C2363 0.950 . S
C2357 C2355 1.387 . S
C2357 C2359 1.390 . S
C2357 H2361 0.950 . S
H2358 C2354 0.950 . S
C2359 C2357 1.390 . S
C2359 C2360 1.387 . S
C2359 H2362 0.950 . S
C2360 C2359 1.387 . S
C2360 C2363 1.387 . S
H2361 C2357 0.950 . S
H2362 C2359 0.950 . S
C2363 C2354 1.390 . S
C2363 H2356 0.950 . S
C2363 C2360 1.387 . S
C2364 C2365 1.387 . S
C2364 H2368 0.950 . S
C2364 C2373 1.390 . S
C2365 C2364 1.387 . S
C2365 C2367 1.387 . S
H2366 C2373 0.950 . S
C2367 C2365 1.387 . S
C2367 C2369 1.390 . S
C2367 H2371 0.950 . S
H2368 C2364 0.950 . S
C2369 C2367 1.390 . S
C2369 C2370 1.387 . S
C2369 H2372 0.950 . S
C2370 C2369 1.387 . S
C2370 C2373 1.387 . S
H2371 C2367 0.950 . S
H2372 C2369 0.950 . S
C2373 C2364 1.390 . S
C2373 H2366 0.950 . S
C2373 C2370 1.387 . S
C2374 C2375 1.387 . S
C2374 H2378 0.950 . S
C2374 C2383 1.390 . S
C2375 C2374 1.387 . S
C2375 C2377 1.387 . S
H2376 C2383 0.950 . S
C2377 C2375 1.387 . S
C2377 C2379 1.390 . S
C2377 H2381 0.950 . S
H2378 C2374 0.950 . S
C2379 C2377 1.390 . S
C2379 C2380 1.387 . S
C2379 H2382 0.950 . S
C2380 C2379 1.387 . S
C2380 C2383 1.387 . S
H2381 C2377 0.950 . S
H2382 C2379 0.950 . S
C2383 C2374 1.390 . S
C2383 H2376 0.950 . S
C2383 C2380 1.387 . S
C2384 C2385 1.387 . S
C2384 H2388 0.950 . S
C2384 C2393 1.390 . S
C2385 C2384 1.387 . S
C2385 C2387 1.387 . S
H2386 C2393 0.950 . S
C2387 C2385 1.387 . S
C2387 C2389 1.390 . S
C2387 H2391 0.950 . S
H2388 C2384 0.950 . S
C2389 C2387 1.390 . S
C2389 C2390 1.387 . S
C2389 H2392 0.950 . S
C2390 C2389 1.387 . S
C2390 C2393 1.387 . S
H2391 C2387 0.950 . S
H2392 C2389 0.950 . S
C2393 C2384 1.390 . S
C2393 H2386 0.950 . S
C2393 C2390 1.387 . S
C2394 C2395 1.387 . S
C2394 H2398 0.950 . S
C2394 C2403 1.390 . S
C2395 C2394 1.387 . S
C2395 C2397 1.387 . S
H2396 C2403 0.950 . S
C2397 C2395 1.387 . S
C2397 C2399 1.390 . S
C2397 H2401 0.950 . S
H2398 C2394 0.950 . S
C2399 C2397 1.390 . S
C2399 C2400 1.387 . S
C2399 H2402 0.950 . S
C2400 C2399 1.387 . S
C2400 C2403 1.387 . S
H2401 C2397 0.950 . S
H2402 C2399 0.950 . S
C2403 C2394 1.390 . S
C2403 H2396 0.950 . S
C2403 C2400 1.387 . S
C2404 C2405 1.387 . S
C2404 H2408 0.950 . S
C2404 C2413 1.390 . S
C2405 C2404 1.387 . S
C2405 C2407 1.387 . S
H2406 C2413 0.950 . S
C2407 C2405 1.387 . S
C2407 C2409 1.390 . S
C2407 H2411 0.950 . S
H2408 C2404 0.950 . S
C2409 C2407 1.390 . S
C2409 C2410 1.387 . S
C2409 H2412 0.950 . S
C2410 C2409 1.387 . S
C2410 C2413 1.387 . S
H2411 C2407 0.950 . S
H2412 C2409 0.950 . S
C2413 C2404 1.390 . S
C2413 H2406 0.950 . S
C2413 C2410 1.387 . S
C2414 C2415 1.387 . S
C2414 H2418 0.950 . S
C2414 C2423 1.390 . S
C2415 C2414 1.387 . S
C2415 C2417 1.387 . S
H2416 C2423 0.950 . S
C2417 C2415 1.387 . S
C2417 C2419 1.390 . S
C2417 H2421 0.950 . S
H2418 C2414 0.950 . S
C2419 C2417 1.390 . S
C2419 C2420 1.387 . S
C2419 H2422 0.950 . S
C2420 C2419 1.387 . S
C2420 C2423 1.387 . S
H2421 C2417 0.950 . S
H2422 C2419 0.950 . S
C2423 C2414 1.390 . S
C2423 H2416 0.950 . S
C2423 C2420 1.387 . S
C2424 C2425 1.387 . S
C2424 H2428 0.950 . S
C2424 C2433 1.390 . S
C2425 C2424 1.387 . S
C2425 C2427 1.387 . S
H2426 C2433 0.950 . S
C2427 C2425 1.387 . S
C2427 C2429 1.390 . S
C2427 H2431 0.950 . S
H2428 C2424 0.950 . S
C2429 C2427 1.390 . S
C2429 C2430 1.387 . S
C2429 H2432 0.950 . S
C2430 C2429 1.387 . S
C2430 C2433 1.387 . S
H2431 C2427 0.950 . S
H2432 C2429 0.950 . S
C2433 C2424 1.390 . S
C2433 H2426 0.950 . S
C2433 C2430 1.387 . S
C2434 C2435 1.387 . S
C2434 H2438 0.950 . S
C2434 C2443 1.390 . S
C2435 C2434 1.387 . S
C2435 C2437 1.387 . S
H2436 C2443 0.950 . S
C2437 C2435 1.387 . S
C2437 C2439 1.390 . S
C2437 H2441 0.950 . S
H2438 C2434 0.950 . S
C2439 C2437 1.390 . S
C2439 C2440 1.387 . S
C2439 H2442 0.950 . S
C2440 C2439 1.387 . S
C2440 C2443 1.387 . S
H2441 C2437 0.950 . S
H2442 C2439 0.950 . S
C2443 C2434 1.390 . S
C2443 H2436 0.950 . S
C2443 C2440 1.387 . S
C2444 C2445 1.387 . S
C2444 H2448 0.950 . S
C2444 C2453 1.390 . S
C2445 C2444 1.387 . S
C2445 C2447 1.387 . S
H2446 C2453 0.950 . S
C2447 C2445 1.387 . S
C2447 C2449 1.390 . S
C2447 H2451 0.950 . S
H2448 C2444 0.950 . S
C2449 C2447 1.390 . S
C2449 C2450 1.387 . S
C2449 H2452 0.950 . S
C2450 C2449 1.387 . S
C2450 C2453 1.387 . S
H2451 C2447 0.950 . S
H2452 C2449 0.950 . S
C2453 C2444 1.390 . S
C2453 H2446 0.950 . S
C2453 C2450 1.387 . S
C2454 C2455 1.387 . S
C2454 H2458 0.950 . S
C2454 C2463 1.390 . S
C2455 C2454 1.387 . S
C2455 C2457 1.387 . S
H2456 C2463 0.950 . S
C2457 C2455 1.387 . S
C2457 C2459 1.390 . S
C2457 H2461 0.950 . S
H2458 C2454 0.950 . S
C2459 C2457 1.390 . S
C2459 C2460 1.387 . S
C2459 H2462 0.950 . S
C2460 C2459 1.387 . S
C2460 C2463 1.387 . S
H2461 C2457 0.950 . S
H2462 C2459 0.950 . S
C2463 C2454 1.390 . S
C2463 H2456 0.950 . S
C2463 C2460 1.387 . S
C2464 C2465 1.387 . S
C2464 H2468 0.950 . S
C2464 C2473 1.390 . S
C2465 C2464 1.387 . S
C2465 C2467 1.387 . S
H2466 C2473 0.950 . S
C2467 C2465 1.387 . S
C2467 C2469 1.390 . S
C2467 H2471 0.950 . S
H2468 C2464 0.950 . S
C2469 C2467 1.390 . S
C2469 C2470 1.387 . S
C2469 H2472 0.950 . S
C2470 C2469 1.387 . S
C2470 C2473 1.387 . S
H2471 C2467 0.950 . S
H2472 C2469 0.950 . S
C2473 C2464 1.390 . S
C2473 H2466 0.950 . S
C2473 C2470 1.387 . S
C2474 C2475 1.387 . S
C2474 H2478 0.950 . S
C2474 C2483 1.390 . S
C2475 C2474 1.387 . S
C2475 C2477 1.387 . S
H2476 C2483 0.950 . S
C2477 C2475 1.387 . S
C2477 C2479 1.390 . S
C2477 H2481 0.950 . S
H2478 C2474 0.950 . S
C2479 C2477 1.390 . S
C2479 C2480 1.387 . S
C2479 H2482 0.950 . S
C2480 C2479 1.387 . S
C2480 C2483 1.387 . S
H2481 C2477 0.950 . S
H2482 C2479 0.950 . S
C2483 C2474 1.390 . S
C2483 H2476 0.950 . S
C2483 C2480 1.387 . S
C2484 C2485 1.387 . S
C2484 H2488 0.950 . S
C2484 C2493 1.390 . S
C2485 C2484 1.387 . S
C2485 C2487 1.387 . S
H2486 C2493 0.950 . S
C2487 C2485 1.387 . S
C2487 C2489 1.390 . S
C2487 H2491 0.950 . S
H2488 C2484 0.950 . S
C2489 C2487 1.390 . S
C2489 C2490 1.387 . S
C2489 H2492 0.950 . S
C2490 C2489 1.387 . S
C2490 C2493 1.387 . S
H2491 C2487 0.950 . S
H2492 C2489 0.950 . S
C2493 C2484 1.390 . S
C2493 H2486 0.950 . S
C2493 C2490 1.387 . S
C2494 C2495 1.387 . S
C2494 H2498 0.950 . S
C2494 C2503 1.390 . S
C2495 C2494 1.387 . S
C2495 C2497 1.387 . S
H2496 C2503 0.950 . S
C2497 C2495 1.387 . S
C2497 C2499 1.390 . S
C2497 H2501 0.950 . S
H2498 C2494 0.950 . S
C2499 C2497 1.390 . S
C2499 C2500 1.387 . S
C2499 H2502 0.950 . S
C2500 C2499 1.387 . S
C2500 C2503 1.387 . S
H2501 C2497 0.950 . S
H2502 C2499 0.950 . S
C2503 C2494 1.390 . S
C2503 H2496 0.950 . S
C2503 C2500 1.387 . S
C2504 C2505 1.387 . S
C2504 H2508 0.950 . S
C2504 C2513 1.390 . S
C2505 C2504 1.387 . S
C2505 C2507 1.387 . S
H2506 C2513 0.950 . S
C2507 C2505 1.387 . S
C2507 C2509 1.390 . S
C2507 H2511 0.950 . S
H2508 C2504 0.950 . S
C2509 C2507 1.390 . S
C2509 C2510 1.387 . S
C2509 H2512 0.950 . S
C2510 C2509 1.387 . S
C2510 C2513 1.387 . S
H2511 C2507 0.950 . S
H2512 C2509 0.950 . S
C2513 C2504 1.390 . S
C2513 H2506 0.950 . S
C2513 C2510 1.387 . S
C2514 C2515 1.387 . S
C2514 H2518 0.950 . S
C2514 C2523 1.390 . S
C2515 C2514 1.387 . S
C2515 C2517 1.387 . S
H2516 C2523 0.950 . S
C2517 C2515 1.387 . S
C2517 C2519 1.390 . S
C2517 H2521 0.950 . S
H2518 C2514 0.950 . S
C2519 C2517 1.390 . S
C2519 C2520 1.387 . S
C2519 H2522 0.950 . S
C2520 C2519 1.387 . S
C2520 C2523 1.387 . S
H2521 C2517 0.950 . S
H2522 C2519 0.950 . S
C2523 C2514 1.390 . S
C2523 H2516 0.950 . S
C2523 C2520 1.387 . S
C2524 C2525 1.387 . S
C2524 H2528 0.950 . S
C2524 C2533 1.390 . S
C2525 C2524 1.387 . S
C2525 C2527 1.387 . S
H2526 C2533 0.950 . S
C2527 C2525 1.387 . S
C2527 C2529 1.390 . S
C2527 H2531 0.950 . S
H2528 C2524 0.950 . S
C2529 C2527 1.390 . S
C2529 C2530 1.387 . S
C2529 H2532 0.950 . S
C2530 C2529 1.387 . S
C2530 C2533 1.387 . S
H2531 C2527 0.950 . S
H2532 C2529 0.950 . S
C2533 C2524 1.390 . S
C2533 H2526 0.950 . S
C2533 C2530 1.387 . S
C2534 C2535 1.387 . S
C2534 H2538 0.950 . S
C2534 C2543 1.390 . S
C2535 C2534 1.387 . S
C2535 C2537 1.387 . S
H2536 C2543 0.950 . S
C2537 C2535 1.387 . S
C2537 C2539 1.390 . S
C2537 H2541 0.950 . S
H2538 C2534 0.950 . S
C2539 C2537 1.390 . S
C2539 C2540 1.387 . S
C2539 H2542 0.950 . S
C2540 C2539 1.387 . S
C2540 C2543 1.387 . S
H2541 C2537 0.950 . S
H2542 C2539 0.950 . S
C2543 C2534 1.390 . S
C2543 H2536 0.950 . S
C2543 C2540 1.387 . S
C2544 C2545 1.387 . S
C2544 H2548 0.950 . S
C2544 C2553 1.390 1_565 S
C2545 C2544 1.387 . S
C2545 C2547 1.387 . S
H2546 C2553 0.950 . S
C2547 C2545 1.387 . S
C2547 C2549 1.390 1_565 S
C2547 H2551 0.950 1_655 S
H2548 C2544 0.950 . S
C2549 C2547 1.390 1_545 S
C2549 C2550 1.387 . S
C2549 H2552 0.950 1_655 S
C2550 C2549 1.387 . S
C2550 C2553 1.387 . S
H2551 C2547 0.950 1_455 S
H2552 C2549 0.950 1_455 S
C2553 C2544 1.390 1_545 S
C2553 H2546 0.950 . S
C2553 C2550 1.387 . S
C2554 C2555 1.387 . S
C2554 H2558 0.950 . S
C2554 C2563 1.390 . S
C2555 C2554 1.387 . S
C2555 C2557 1.387 . S
H2556 C2563 0.950 . S
C2557 C2555 1.387 . S
C2557 C2559 1.390 . S
C2557 H2561 0.950 . S
H2558 C2554 0.950 . S
C2559 C2557 1.390 . S
C2559 C2560 1.387 . S
C2559 H2562 0.950 . S
C2560 C2559 1.387 . S
C2560 C2563 1.387 . S
H2561 C2557 0.950 . S
H2562 C2559 0.950 . S
C2563 C2554 1.390 . S
C2563 H2556 0.950 . S
C2563 C2560 1.387 . S
C2564 C2565 1.387 . S
C2564 H2568 0.950 . S
C2564 C2573 1.390 1_545 S
C2565 C2564 1.387 . S
C2565 C2567 1.387 . S
H2566 C2573 0.950 . S
C2567 C2565 1.387 . S
C2567 C2569 1.390 1_545 S
C2567 H2571 0.950 . S
H2568 C2564 0.950 . S
C2569 C2567 1.390 1_565 S
C2569 C2570 1.387 . S
C2569 H2572 0.950 . S
C2570 C2569 1.387 . S
C2570 C2573 1.387 . S
H2571 C2567 0.950 . S
H2572 C2569 0.950 . S
C2573 C2564 1.390 1_565 S
C2573 H2566 0.950 . S
C2573 C2570 1.387 . S
C2574 C2575 1.387 . S
C2574 H2578 0.950 . S
C2574 C2583 1.390 1_556 S
C2575 C2574 1.387 . S
C2575 C2577 1.387 . S
H2576 C2583 0.950 . S
C2577 C2575 1.387 . S
C2577 C2579 1.390 1_556 S
C2577 H2581 0.950 . S
H2578 C2574 0.950 . S
C2579 C2577 1.390 1_554 S
C2579 C2580 1.387 . S
C2579 H2582 0.950 . S
C2580 C2579 1.387 . S
C2580 C2583 1.387 . S
H2581 C2577 0.950 . S
H2582 C2579 0.950 . S
C2583 C2574 1.390 1_554 S
C2583 H2576 0.950 . S
C2583 C2580 1.387 . S
C2584 C2585 1.387 . S
C2584 H2588 0.950 1_565 S
C2584 C2593 1.390 1_556 S
C2585 C2584 1.387 . S
C2585 C2587 1.387 . S
H2586 C2593 0.950 1_545 S
C2587 C2585 1.387 . S
C2587 C2589 1.390 1_556 S
C2587 H2591 0.950 . S
H2588 C2584 0.950 1_545 S
C2589 C2587 1.390 1_554 S
C2589 C2590 1.387 . S
C2589 H2592 0.950 . S
C2590 C2589 1.387 . S
C2590 C2593 1.387 . S
H2591 C2587 0.950 . S
H2592 C2589 0.950 . S
C2593 C2584 1.390 1_554 S
C2593 H2586 0.950 1_565 S
C2593 C2590 1.387 . S
C2594 C2595 1.387 . S
C2594 H2598 0.950 . S
C2594 C2603 1.390 1_545 S
C2595 C2594 1.387 . S
C2595 C2597 1.387 . S
H2596 C2603 0.950 . S
C2597 C2595 1.387 . S
C2597 C2599 1.390 1_545 S
C2597 H2601 0.950 . S
H2598 C2594 0.950 . S
C2599 C2597 1.390 1_565 S
C2599 C2600 1.387 . S
C2599 H2602 0.950 . S
C2600 C2599 1.387 . S
C2600 C2603 1.387 . S
H2601 C2597 0.950 . S
H2602 C2599 0.950 . S
C2603 C2594 1.390 1_565 S
C2603 H2596 0.950 . S
C2603 C2600 1.387 . S
C2604 C2605 1.387 . S
C2604 H2608 0.950 . S
C2604 C2613 1.390 . S
C2605 C2604 1.387 . S
C2605 C2607 1.387 . S
H2606 C2613 0.950 . S
C2607 C2605 1.387 . S
C2607 C2609 1.390 . S
C2607 H2611 0.950 1_545 S
H2608 C2604 0.950 . S
C2609 C2607 1.390 . S
C2609 C2610 1.387 . S
C2609 H2612 0.950 1_545 S
C2610 C2609 1.387 . S
C2610 C2613 1.387 . S
H2611 C2607 0.950 1_565 S
H2612 C2609 0.950 1_565 S
C2613 C2604 1.390 . S
C2613 H2606 0.950 . S
C2613 C2610 1.387 . S
C2614 C2615 1.387 . S
C2614 H2618 0.950 . S
C2614 C2623 1.390 1_545 S
C2615 C2614 1.387 . S
C2615 C2617 1.387 . S
H2616 C2623 0.950 . S
C2617 C2615 1.387 . S
C2617 C2619 1.390 1_545 S
C2617 H2621 0.950 . S
H2618 C2614 0.950 . S
C2619 C2617 1.390 1_565 S
C2619 C2620 1.387 . S
C2619 H2622 0.950 . S
C2620 C2619 1.387 . S
C2620 C2623 1.387 . S
H2621 C2617 0.950 . S
H2622 C2619 0.950 . S
C2623 C2614 1.390 1_565 S
C2623 H2616 0.950 . S
C2623 C2620 1.387 . S
C2624 C2625 1.387 1_655 S
C2624 H2628 0.950 1_556 S
C2624 C2633 1.390 . S
C2625 C2624 1.387 1_455 S
C2625 C2627 1.387 . S
H2626 C2633 0.950 1_554 S
C2627 C2625 1.387 . S
C2627 C2629 1.408 . S
C2627 H2631 0.950 . S
H2628 C2624 0.950 1_554 S
C2629 C2627 1.408 . S
C2629 C2630 1.369 1_455 S
C2629 H2632 0.951 . S
C2630 C2629 1.369 1_655 S
C2630 C2633 1.387 . S
H2631 C2627 0.950 . S
H2632 C2629 0.951 . S
C2633 C2624 1.390 . S
C2633 H2626 0.950 1_556 S
C2633 C2630 1.387 . S
C2634 C2635 1.387 . S
C2634 H2638 0.950 1_554 S
C2634 C2643 1.390 . S
C2635 C2634 1.387 . S
C2635 C2637 1.387 . S
H2636 C2643 0.950 1_556 S
C2637 C2635 1.387 . S
C2637 C2639 1.390 . S
C2637 H2641 0.950 . S
H2638 C2634 0.950 1_556 S
C2639 C2637 1.390 . S
C2639 C2640 1.387 . S
C2639 H2642 0.950 . S
C2640 C2639 1.387 . S
C2640 C2643 1.387 . S
H2641 C2637 0.950 . S
H2642 C2639 0.950 . S
C2643 C2634 1.390 . S
C2643 H2636 0.950 1_554 S
C2643 C2640 1.387 . S
C2644 C2645 1.387 . S
C2644 H2648 0.950 . S
C2644 C2653 1.390 1_655 S
C2645 C2644 1.387 . S
C2645 C2647 1.387 . S
H2646 C2653 0.950 . S
C2647 C2645 1.387 . S
C2647 C2649 1.390 1_655 S
C2647 H2651 0.950 . S
H2648 C2644 0.950 . S
C2649 C2647 1.390 1_455 S
C2649 C2650 1.387 . S
C2649 H2652 0.950 . S
C2650 C2649 1.387 . S
C2650 C2653 1.387 . S
H2651 C2647 0.950 . S
H2652 C2649 0.950 . S
C2653 C2644 1.390 1_455 S
C2653 H2646 0.950 . S
C2653 C2650 1.387 . S
C2654 C2655 1.387 . S
C2654 H2658 0.950 . S
C2654 C2663 1.390 1_455 S
C2655 C2654 1.387 . S
C2655 C2657 1.387 . S
H2656 C2663 0.950 . S
C2657 C2655 1.387 . S
C2657 C2659 1.390 1_455 S
C2657 H2661 0.950 . S
H2658 C2654 0.950 . S
C2659 C2657 1.390 1_655 S
C2659 C2660 1.387 . S
C2659 H2662 0.950 . S
C2660 C2659 1.387 . S
C2660 C2663 1.387 . S
H2661 C2657 0.950 . S
H2662 C2659 0.950 . S
C2663 C2654 1.390 1_655 S
C2663 H2656 0.950 . S
C2663 C2660 1.387 . S
C2664 C2665 1.387 . S
C2664 H2668 0.950 . S
C2664 C2673 1.390 . S
C2665 C2664 1.387 . S
C2665 C2667 1.387 . S
H2666 C2673 0.950 . S
C2667 C2665 1.387 . S
C2667 C2669 1.390 . S
C2667 H2671 0.950 . S
H2668 C2664 0.950 . S
C2669 C2667 1.390 . S
C2669 C2670 1.387 . S
C2669 H2672 0.950 . S
C2670 C2669 1.387 . S
C2670 C2673 1.387 . S
H2671 C2667 0.950 . S
H2672 C2669 0.950 . S
C2673 C2664 1.390 . S
C2673 H2666 0.950 . S
C2673 C2670 1.387 . S
C2674 C2675 1.387 . S
C2674 H2678 0.950 . S
C2674 C2683 1.390 1_455 S
C2675 C2674 1.387 . S
C2675 C2677 1.387 . S
H2676 C2683 0.950 . S
C2677 C2675 1.387 . S
C2677 C2679 1.390 1_455 S
C2677 H2681 0.950 . S
H2678 C2674 0.950 . S
C2679 C2677 1.390 1_655 S
C2679 C2680 1.387 . S
C2679 H2682 0.950 . S
C2680 C2679 1.387 . S
C2680 C2683 1.387 . S
H2681 C2677 0.950 . S
H2682 C2679 0.950 . S
C2683 C2674 1.390 1_655 S
C2683 H2676 0.950 . S
C2683 C2680 1.387 . S
C2684 C2685 1.387 . S
C2684 H2688 0.950 . S
C2684 C2693 1.390 . S
C2685 C2684 1.387 . S
C2685 C2687 1.387 . S
H2686 C2693 0.950 . S
C2687 C2685 1.387 . S
C2687 C2689 1.390 . S
C2687 H2691 0.950 . S
H2688 C2684 0.950 . S
C2689 C2687 1.390 . S
C2689 C2690 1.387 . S
C2689 H2692 0.950 . S
C2690 C2689 1.387 . S
C2690 C2693 1.387 . S
H2691 C2687 0.950 . S
H2692 C2689 0.950 . S
C2693 C2684 1.390 . S
C2693 H2686 0.950 . S
C2693 C2690 1.387 . S
C2694 C2695 1.387 . S
C2694 H2698 0.950 . S
C2694 C2703 1.390 . S
C2695 C2694 1.387 . S
C2695 C2697 1.387 . S
H2696 C2703 0.950 . S
C2697 C2695 1.387 . S
C2697 C2699 1.390 . S
C2697 H2701 0.950 . S
H2698 C2694 0.950 . S
C2699 C2697 1.390 . S
C2699 C2700 1.387 . S
C2699 H2702 0.950 . S
C2700 C2699 1.387 . S
C2700 C2703 1.387 . S
H2701 C2697 0.950 . S
H2702 C2699 0.950 . S
C2703 C2694 1.390 . S
C2703 H2696 0.950 . S
C2703 C2700 1.387 . S
C2704 C2705 1.387 . S
C2704 H2708 0.950 . S
C2704 C2713 1.390 1_554 S
C2705 C2704 1.387 . S
C2705 C2707 1.387 . S
H2706 C2713 0.950 . S
C2707 C2705 1.387 . S
C2707 C2709 1.390 1_554 S
C2707 H2711 0.950 . S
H2708 C2704 0.950 . S
C2709 C2707 1.390 1_556 S
C2709 C2710 1.387 . S
C2709 H2712 0.950 . S
C2710 C2709 1.387 . S
C2710 C2713 1.387 . S
H2711 C2707 0.950 . S
H2712 C2709 0.950 . S
C2713 C2704 1.390 1_556 S
C2713 H2706 0.950 . S
C2713 C2710 1.387 . S
C2714 C2715 1.387 . S
C2714 H2718 0.950 1_455 S
C2714 C2723 1.390 . S
C2715 C2714 1.387 . S
C2715 C2717 1.387 . S
H2716 C2723 0.950 1_655 S
C2717 C2715 1.387 . S
C2717 C2719 1.390 . S
C2717 H2721 0.950 . S
H2718 C2714 0.950 1_655 S
C2719 C2717 1.390 . S
C2719 C2720 1.387 . S
C2719 H2722 0.950 . S
C2720 C2719 1.387 . S
C2720 C2723 1.387 . S
H2721 C2717 0.950 . S
H2722 C2719 0.950 . S
C2723 C2714 1.390 . S
C2723 H2716 0.950 1_455 S
C2723 C2720 1.387 . S
C2724 C2725 1.387 . S
C2724 H2728 0.950 . S
C2724 C2733 1.390 . S
C2725 C2724 1.387 . S
C2725 C2727 1.387 . S
H2726 C2733 0.950 . S
C2727 C2725 1.387 . S
C2727 C2729 1.390 . S
C2727 H2731 0.950 . S
H2728 C2724 0.950 . S
C2729 C2727 1.390 . S
C2729 C2730 1.387 . S
C2729 H2732 0.950 . S
C2730 C2729 1.387 . S
C2730 C2733 1.387 . S
H2731 C2727 0.950 . S
H2732 C2729 0.950 . S
C2733 C2724 1.390 . S
C2733 H2726 0.950 . S
C2733 C2730 1.387 . S
C2734 C2735 1.387 . S
C2734 H2738 0.950 . S
C2734 C2743 1.390 . S
C2735 C2734 1.387 . S
C2735 C2737 1.387 . S
H2736 C2743 0.950 . S
C2737 C2735 1.387 . S
C2737 C2739 1.390 . S
C2737 H2741 0.950 . S
H2738 C2734 0.950 . S
C2739 C2737 1.390 . S
C2739 C2740 1.387 . S
C2739 H2742 0.950 . S
C2740 C2739 1.387 . S
C2740 C2743 1.387 . S
H2741 C2737 0.950 . S
H2742 C2739 0.950 . S
C2743 C2734 1.390 . S
C2743 H2736 0.950 . S
C2743 C2740 1.387 . S
C2744 C2745 1.387 . S
C2744 H2748 0.950 . S
C2744 C2753 1.390 . S
C2745 C2744 1.387 . S
C2745 C2747 1.387 . S
H2746 C2753 0.950 . S
C2747 C2745 1.387 . S
C2747 C2749 1.390 . S
C2747 H2751 0.950 . S
H2748 C2744 0.950 . S
C2749 C2747 1.390 . S
C2749 C2750 1.387 . S
C2749 H2752 0.950 . S
C2750 C2749 1.387 . S
C2750 C2753 1.387 . S
H2751 C2747 0.950 . S
H2752 C2749 0.950 . S
C2753 C2744 1.390 . S
C2753 H2746 0.950 . S
C2753 C2750 1.387 . S
C2754 C2755 1.387 . S
C2754 H2758 0.950 . S
C2754 C2763 1.390 1_556 S
C2755 C2754 1.387 . S
C2755 C2757 1.387 . S
H2756 C2763 0.950 . S
C2757 C2755 1.387 . S
C2757 C2759 1.390 1_556 S
C2757 H2761 0.950 . S
H2758 C2754 0.950 . S
C2759 C2757 1.390 1_554 S
C2759 C2760 1.387 . S
C2759 H2762 0.950 . S
C2760 C2759 1.387 . S
C2760 C2763 1.387 . S
H2761 C2757 0.950 . S
H2762 C2759 0.950 . S
C2763 C2754 1.390 1_554 S
C2763 H2756 0.950 . S
C2763 C2760 1.387 . S
C2764 C2765 1.387 . S
C2764 H2768 0.950 . S
C2764 C2773 1.390 . S
C2765 C2764 1.387 . S
C2765 C2767 1.387 . S
H2766 C2773 0.950 . S
C2767 C2765 1.387 . S
C2767 C2769 1.390 . S
C2767 H2771 0.950 . S
H2768 C2764 0.950 . S
C2769 C2767 1.390 . S
C2769 C2770 1.387 . S
C2769 H2772 0.950 . S
C2770 C2769 1.387 . S
C2770 C2773 1.387 . S
H2771 C2767 0.950 . S
H2772 C2769 0.950 . S
C2773 C2764 1.390 . S
C2773 H2766 0.950 . S
C2773 C2770 1.387 . S
C2774 C2775 1.387 . S
C2774 H2778 0.950 . S
C2774 C2783 1.390 . S
C2775 C2774 1.387 . S
C2775 C2777 1.387 . S
H2776 C2783 0.950 . S
C2777 C2775 1.387 . S
C2777 C2779 1.390 . S
C2777 H2781 0.950 . S
H2778 C2774 0.950 . S
C2779 C2777 1.390 . S
C2779 C2780 1.387 . S
C2779 H2782 0.950 . S
C2780 C2779 1.387 . S
C2780 C2783 1.387 . S
H2781 C2777 0.950 . S
H2782 C2779 0.950 . S
C2783 C2774 1.390 . S
C2783 H2776 0.950 . S
C2783 C2780 1.387 . S
C1585 N5 1.989 . S
C1590 C358 2.072 . S
C1595 C391 2.161 . S
C1600 N38 2.072 . S
C1605 C292 2.146 1_556 S
C1610 N71 2.065 . S
C1615 C325 2.160 . S
C1620 N104 2.068 . S
C1625 C490 2.090 1_554 S
C1630 N137 2.006 . S
C1635 N170 2.032 . S
C1640 C523 2.120 . S
C1645 C424 2.127 . S
C1650 N203 2.044 . S
C1655 C457 2.198 . S
C1660 N236 2.104 . S
C1665 N269 1.987 . S
C1670 C589 2.071 . S
C1675 N302 2.069 . S
C1680 C622 2.161 . S
C1685 C655 2.037 1_455 S
C1690 N335 1.950 . S
C1695 N368 2.050 . S
C1700 C1480 2.142 . S
C1705 C1348 2.019 . S
C1710 N401 1.932 . S
C1715 N434 2.012 . S
C1720 C787 2.102 . S
C1725 N467 2.006 . S
C1730 C1513 2.088 1_455 S
C1735 C754 2.198 . S
C1740 N500 2.104 . S
C1745 N533 1.988 . S
C1750 C1018 2.071 . S
C1755 C94 2.038 1_545 S
C1760 N566 1.951 . S
C1765 C127 2.159 . S
C1770 N599 2.067 . S
C1775 C28 2.146 1_565 S
C1780 N632 2.066 . S
C1785 N665 2.105 . S
C1790 C853 2.198 . S
C1795 N698 1.989 . S
C1800 C952 2.074 . S
C1805 C193 2.103 . S
C1810 N731 2.013 . S
C1815 C259 2.120 . S
C1820 N764 2.032 . S
C1825 N797 2.011 . S
C1830 C1150 2.095 1_556 S
C1835 N830 2.013 . S
C1840 C1183 2.103 . S
C1845 C1084 2.017 . S
C1850 N863 1.928 . S
C1855 C1117 2.102 . S
C1860 N896 2.014 . S
C1865 C1282 2.075 . S
C1870 N929 1.990 . S
C1875 C1315 2.142 . S
C1880 N962 2.051 . S
C1885 C1216 2.037 1_554 S
C1890 N995 1.950 . S
C1895 N1028 1.976 . S
C1900 C1249 2.062 . S
C1905 N1061 2.012 . S
C1910 C1381 2.095 1_655 S
C1915 C1414 2.101 . S
C1920 N1094 2.014 . S
C1925 N1127 2.042 . S
C1930 C1447 2.129 . S
C1935 N1160 2.033 . S
C1940 C688 2.121 . S
C1945 N1193 2.062 . S
C1950 C556 2.148 1_655 S
C1955 N1226 2.071 . S
C1960 C1579 2.160 . S
C1965 C721 2.076 . S
C1970 N1259 1.991 . S
C1975 C1546 2.061 . S
C1980 N1292 1.974 . S
C1985 N1325 2.010 . S
C1990 C226 2.094 1_565 S
C1995 C886 2.129 . S
C2000 N1358 2.047 . S
C2005 N1391 2.015 . S
C2010 C919 2.102 . S
C2015 N1424 1.932 . S
C2020 C820 2.014 . S
C2025 C61 2.061 . S
C2030 N1457 1.975 . S
C2035 N1490 2.008 . S
C2040 C160 2.090 1_545 S
C2045 N1523 2.069 . S
C2050 C985 2.159 . S
C2055 C1051 2.142 . S
C2060 N1556 2.050 . S
C2065 C314 1.327 . S
C2070 C17 1.323 . S
C2075 C50 1.291 . S
C2080 C347 1.286 . S
C2085 C380 1.382 . S
C2090 C83 1.382 . S
C2095 C281 1.327 . S
C2100 C116 1.322 . S
C2105 C149 1.305 . S
C2110 C512 1.300 . S
C2115 C182 1.312 . S
C2120 C413 1.309 . S
C2125 C446 1.402 . S
C2130 C215 1.402 . S
C2135 C248 1.304 . S
C2140 C479 1.301 . S
C2145 C611 1.327 . S
C2150 C545 1.323 . S
C2155 C578 1.291 . S
C2160 C1535 1.286 . S
C2165 C1568 1.382 . S
C2170 C644 1.382 . S
C2175 C677 1.305 . S
C2180 C1502 1.301 . S
C2185 C1469 1.388 . S
C2190 C710 1.389 . S
C2195 C1370 1.403 . S
C2200 C743 1.402 . S
C2205 C776 1.313 . S
C2210 C1436 1.309 . S
C2215 C809 1.368 . S
C2220 C1106 1.367 . S
C2225 C1139 1.402 . S
C2230 C842 1.402 . S
C2235 C1172 1.312 . S
C2240 C875 1.309 . S
C2245 C908 1.367 . S
C2250 C1073 1.368 . S
C2255 C1304 1.389 . S
C2260 C941 1.389 . S
C2265 C1205 1.382 . S
C2270 C974 1.382 . S
C2275 C1007 1.292 . S
C2280 C1238 1.286 . S
C2285 C1271 1.388 . S
C2290 C1040 1.389 . S
C2295 C1403 1.368 . S
C2300 C1337 1.368 . S
C2305 C668 1.241 . S
C2310 C8 1.264 . S
C2315 C41 1.170 . S
C2320 C1361 1.175 . S
C2325 C74 1.172 . S
C2330 C1394 1.175 . S
C2335 C1427 1.221 . S
C2340 C107 1.203 . S
C2345 C1559 1.242 . S
C2350 C140 1.260 . S
C2355 C701 1.134 . S
C2360 C173 1.130 . S
C2365 C206 1.176 . S
C2370 C1526 1.170 . S
C2375 C239 1.241 . S
C2380 C536 1.262 . S
C2385 C503 1.244 . S
C2390 C272 1.265 . S
C2395 C305 1.204 . S
C2400 C404 1.224 . S
C2405 C338 1.216 . S
C2410 C437 1.207 . S
C2415 C470 1.254 . S
C2420 C371 1.247 . S
C2425 C833 1.206 . S
C2430 C569 1.222 . S
C2435 C602 1.201 . S
C2440 C866 1.225 . S
C2445 C635 1.170 . S
C2450 C899 1.172 . S
C2455 C734 1.206 . S
C2460 C998 1.222 . S
C2465 C932 1.138 . S
C2470 C767 1.129 . S
C2475 C800 1.134 . S
C2480 C1460 1.134 . S
C2485 C1493 1.253 . S
C2490 C965 1.245 . S
C2495 C1328 1.133 . S
C2500 C1031 1.133 . S
C2505 C1064 1.132 . S
C2510 C1295 1.132 . S
C2515 C1196 1.174 . S
C2520 C1097 1.174 . S
C2525 C1130 1.178 . S
C2530 C1229 1.172 . S
C2535 C1163 1.129 . S
C2540 C1262 1.138 . S
C2545 N146 2.018 . S
C2550 N14 2.016 . S
C2555 N179 2.064 . S
C2560 N47 2.062 . S
C2565 N212 2.031 . S
C2570 N80 2.033 . S
C2575 N245 2.035 . S
C2580 N113 2.038 . S
C2585 N476 2.021 . S
C2590 N278 2.019 . S
C2595 N311 2.035 . S
C2600 N509 2.033 . S
C2605 N344 2.027 . S
C2610 N410 2.025 . S
C2615 N443 2.014 . S
C2620 N377 2.011 . S
C2625 N542 2.018 . S
C2630 N1499 2.021 . S
C2635 N575 2.030 . S
C2640 N1433 2.028 . S
C2645 N674 2.035 . S
C2650 N608 2.038 . S
C2655 N1367 2.031 . S
C2660 N641 2.033 . S
C2665 N1334 2.043 . S
C2670 N707 2.041 . S
C2675 N740 2.011 . S
C2680 N1565 2.008 . S
C2685 N1532 2.059 . S
C2690 N773 2.061 . S
C2695 N938 2.038 . S
C2700 N806 2.040 . S
C2705 N839 2.014 . S
C2710 N971 2.011 . S
C2715 N872 2.029 . S
C2720 N1004 2.030 . S
C2725 N905 2.038 . S
C2730 N1037 2.040 . S
C2735 N1070 2.040 . S
C2740 N1268 2.038 . S
C2745 N1103 2.035 . S
C2750 N1301 2.038 . S
C2755 N1202 2.033 . S
C2760 N1136 2.031 . S
C2765 N1169 2.064 . S
C2770 N1235 2.062 . S
C2775 N1466 2.040 . S
C2780 N1400 2.038 . S
