# Generated by pormake.
# Topology upc, (4)-cn, num edge types: 1
# Building blocks:
#     Node 0, Type 0, BuildingBlock: GALJAG_clean_sbu_0, # of connection points: 4
#     Node 1, Type 0, BuildingBlock: GALJAG_clean_sbu_0, # of connection points: 4
#     Node 2, Type 0, BuildingBlock: GALJAG_clean_sbu_0, # of connection points: 4
#     Node 3, Type 0, BuildingBlock: GALJAG_clean_sbu_0, # of connection points: 4
#     Node 4, Type 0, BuildingBlock: GALJAG_clean_sbu_0, # of connection points: 4
#     Node 5, Type 0, BuildingBlock: GALJAG_clean_sbu_0, # of connection points: 4
#     Node 6, Type 0, BuildingBlock: GALJAG_clean_sbu_0, # of connection points: 4
#     Node 7, Type 0, BuildingBlock: GALJAG_clean_sbu_0, # of connection points: 4
#     Node 8, Type 0, BuildingBlock: GALJAG_clean_sbu_0, # of connection points: 4
#     Node 9, Type 0, BuildingBlock: GALJAG_clean_sbu_0, # of connection points: 4
#     Node 10, Type 0, BuildingBlock: GALJAG_clean_sbu_0, # of connection points: 4
#     Node 11, Type 0, BuildingBlock: GALJAG_clean_sbu_0, # of connection points: 4
#     Node 12, Type 0, BuildingBlock: GALJAG_clean_sbu_0, # of connection points: 4
#     Node 13, Type 0, BuildingBlock: GALJAG_clean_sbu_0, # of connection points: 4
#     Node 14, Type 0, BuildingBlock: GALJAG_clean_sbu_0, # of connection points: 4
#     Node 15, Type 0, BuildingBlock: GALJAG_clean_sbu_0, # of connection points: 4
#     Edge 16, Type (0, 0), BuildingBlock: ZUJKAS_clean_linker_0, # of connection points: 2
#     Edge 17, Type (0, 0), BuildingBlock: ZUJKAS_clean_linker_0, # of connection points: 2
#     Edge 18, Type (0, 0), BuildingBlock: ZUJKAS_clean_linker_0, # of connection points: 2
#     Edge 19, Type (0, 0), BuildingBlock: ZUJKAS_clean_linker_0, # of connection points: 2
#     Edge 20, Type (0, 0), BuildingBlock: ZUJKAS_clean_linker_0, # of connection points: 2
#     Edge 21, Type (0, 0), BuildingBlock: ZUJKAS_clean_linker_0, # of connection points: 2
#     Edge 22, Type (0, 0), BuildingBlock: ZUJKAS_clean_linker_0, # of connection points: 2
#     Edge 23, Type (0, 0), BuildingBlock: ZUJKAS_clean_linker_0, # of connection points: 2
#     Edge 24, Type (0, 0), BuildingBlock: ZUJKAS_clean_linker_0, # of connection points: 2
#     Edge 25, Type (0, 0), BuildingBlock: ZUJKAS_clean_linker_0, # of connection points: 2
#     Edge 26, Type (0, 0), BuildingBlock: ZUJKAS_clean_linker_0, # of connection points: 2
#     Edge 27, Type (0, 0), BuildingBlock: ZUJKAS_clean_linker_0, # of connection points: 2
#     Edge 28, Type (0, 0), BuildingBlock: ZUJKAS_clean_linker_0, # of connection points: 2
#     Edge 29, Type (0, 0), BuildingBlock: ZUJKAS_clean_linker_0, # of connection points: 2
#     Edge 30, Type (0, 0), BuildingBlock: ZUJKAS_clean_linker_0, # of connection points: 2
#     Edge 31, Type (0, 0), BuildingBlock: ZUJKAS_clean_linker_0, # of connection points: 2
#     Edge 32, Type (0, 0), BuildingBlock: ZUJKAS_clean_linker_0, # of connection points: 2
#     Edge 33, Type (0, 0), BuildingBlock: ZUJKAS_clean_linker_0, # of connection points: 2
#     Edge 34, Type (0, 0), BuildingBlock: ZUJKAS_clean_linker_0, # of connection points: 2
#     Edge 35, Type (0, 0), BuildingBlock: ZUJKAS_clean_linker_0, # of connection points: 2
#     Edge 36, Type (0, 0), BuildingBlock: ZUJKAS_clean_linker_0, # of connection points: 2
#     Edge 37, Type (0, 0), BuildingBlock: ZUJKAS_clean_linker_0, # of connection points: 2
#     Edge 38, Type (0, 0), BuildingBlock: ZUJKAS_clean_linker_0, # of connection points: 2
#     Edge 39, Type (0, 0), BuildingBlock: ZUJKAS_clean_linker_0, # of connection points: 2
#     Edge 40, Type (0, 0), BuildingBlock: ZUJKAS_clean_linker_0, # of connection points: 2
#     Edge 41, Type (0, 0), BuildingBlock: ZUJKAS_clean_linker_0, # of connection points: 2
#     Edge 42, Type (0, 0), BuildingBlock: ZUJKAS_clean_linker_0, # of connection points: 2
#     Edge 43, Type (0, 0), BuildingBlock: ZUJKAS_clean_linker_0, # of connection points: 2
#     Edge 44, Type (0, 0), BuildingBlock: ZUJKAS_clean_linker_0, # of connection points: 2
#     Edge 45, Type (0, 0), BuildingBlock: ZUJKAS_clean_linker_0, # of connection points: 2
#     Edge 46, Type (0, 0), BuildingBlock: ZUJKAS_clean_linker_0, # of connection points: 2
#     Edge 47, Type (0, 0), BuildingBlock: ZUJKAS_clean_linker_0, # of connection points: 2
# Relax obj value: 0.220
# Max RMSD: 0.228
# Mean RMSD: 0.228
data_MOF--net-upc--node1-GALJAG_clean_sbu_0--edge1-ZUJKAS_clean_linker_0
_symmetry_space_group_name_H-M    P1
_symmetry_Int_Tables_number       1
_symmetry_cell_setting            triclinic
loop_
_symmetry_equiv_pos_as_xyz
'x, y, z'
_cell_length_a     46.218978
_cell_length_b     46.220826
_cell_length_c     51.862524
_cell_angle_alpha  89.990242
_cell_angle_beta   89.981585
_cell_angle_gamma 89.973178
loop_
_atom_site_label
_atom_site_type_symbol
_atom_site_fract_x
_atom_site_fract_y
_atom_site_fract_z
_atom_type_partial_charge
In0 In 0.09781 0.60715 0.13102 0.0
O1 O 0.11695 0.56669 0.15069 0.0
O2 O 0.0713 0.57267 0.15049 0.0
C3 C 0.14507 0.63962 0.12075 0.0
C4 C 0.0775 0.58677 0.08605 0.0
C5 C 0.06979 0.64438 0.16221 0.0
O6 O 0.14518 0.61995 0.13766 0.0
O7 O 0.12166 0.64196 0.10848 0.0
O8 O 0.06299 0.64123 0.13882 0.0
O9 O 0.09063 0.62889 0.16967 0.0
C10 C 0.09236 0.55703 0.15711 0.0
O11 O 0.06394 0.60507 0.09951 0.0
O12 O 0.10197 0.57954 0.09482 0.0
In13 In 0.89429 0.10009 0.14018 0.0
O14 O 0.90383 0.06158 0.11426 0.0
O15 O 0.92163 0.10208 0.10339 0.0
C16 C 0.85286 0.06309 0.15601 0.0
C17 C 0.93808 0.10569 0.17443 0.0
C18 C 0.86353 0.14971 0.13568 0.0
O19 O 0.87879 0.06124 0.16345 0.0
O20 O 0.84806 0.08305 0.13996 0.0
O21 O 0.87501 0.1418 0.15658 0.0
O22 O 0.86884 0.13339 0.11678 0.0
C23 C 0.9192 0.07546 0.09849 0.0
O24 O 0.94009 0.11475 0.15155 0.0
O25 O 0.91376 0.09517 0.18012 0.0
In26 In 0.40349 0.89764 0.1378 0.0
O27 O 0.38385 0.9382 0.15689 0.0
O28 O 0.42928 0.93109 0.15927 0.0
C29 C 0.3555 0.86668 0.12637 0.0
C30 C 0.42652 0.91925 0.09435 0.0
C31 C 0.43094 0.85867 0.16773 0.0
O32 O 0.35647 0.88401 0.14515 0.0
O33 O 0.37815 0.86601 0.11287 0.0
O34 O 0.43624 0.86117 0.14396 0.0
O35 O 0.41184 0.87567 0.1762 0.0
C36 C 0.40815 0.94718 0.16481 0.0
O37 O 0.43897 0.90015 0.10775 0.0
O38 O 0.40177 0.92668 0.10233 0.0
In39 In 0.59714 0.40117 0.13699 0.0
O40 O 0.56241 0.37956 0.16252 0.0
O41 O 0.55514 0.42231 0.14902 0.0
C42 C 0.62738 0.35105 0.13541 0.0
C43 C 0.581 0.42068 0.09037 0.0
C44 C 0.63482 0.43711 0.16058 0.0
O45 O 0.62017 0.3632 0.1562 0.0
O46 O 0.61794 0.3633 0.11536 0.0
O47 O 0.61006 0.43175 0.16955 0.0
O48 O 0.64037 0.4248 0.13948 0.0
C49 C 0.54583 0.40131 0.16205 0.0
O50 O 0.59919 0.43368 0.10434 0.0
O51 O 0.57181 0.39704 0.09949 0.0
In52 In 0.10177 0.90129 0.35493 0.0
O53 O 0.06137 0.90918 0.37901 0.0
O54 O 0.10031 0.92934 0.39117 0.0
C55 C 0.06521 0.86249 0.33386 0.0
C56 C 0.11129 0.94544 0.32177 0.0
C57 C 0.14978 0.86962 0.36506 0.0
O58 O 0.06436 0.88908 0.32841 0.0
O59 O 0.08395 0.85566 0.35046 0.0
O60 O 0.14615 0.8828 0.344 0.0
O61 O 0.12998 0.87369 0.38137 0.0
C62 C 0.07361 0.92562 0.395 0.0
O63 O 0.11529 0.94794 0.34573 0.0
O64 O 0.10425 0.92036 0.31459 0.0
In65 In 0.60316 0.09718 0.3613 0.0
O66 O 0.60193 0.06387 0.39337 0.0
O67 O 0.57828 0.10292 0.39887 0.0
C68 C 0.63516 0.06809 0.32648 0.0
C69 C 0.55161 0.09521 0.33715 0.0
C70 C 0.63976 0.14125 0.37154 0.0
O71 O 0.63217 0.05942 0.3494 0.0
O72 O 0.62205 0.0913 0.32126 0.0
O73 O 0.616 0.14515 0.35998 0.0
O74 O 0.64435 0.11554 0.37852 0.0
C75 C 0.58513 0.07833 0.40759 0.0
O76 O 0.56485 0.11889 0.34048 0.0
O77 O 0.56439 0.07326 0.346 0.0
In78 In 0.39122 0.59652 0.35854 0.0
O79 O 0.38544 0.57608 0.31893 0.0
O80 O 0.3805 0.54879 0.35149 0.0
C81 C 0.34293 0.62779 0.3686 0.0
C82 C 0.42023 0.57402 0.3989 0.0
C83 C 0.42697 0.63498 0.33585 0.0
O84 O 0.34618 0.6136 0.34803 0.0
O85 O 0.36324 0.62485 0.38458 0.0
O86 O 0.40886 0.64202 0.35292 0.0
O87 O 0.42765 0.60833 0.33069 0.0
C88 C 0.38131 0.55079 0.32725 0.0
O89 O 0.43229 0.58913 0.38177 0.0
O90 O 0.3933 0.57078 0.39605 0.0
In91 In 0.89727 0.40218 0.35763 0.0
O92 O 0.93568 0.38258 0.3353 0.0
O93 O 0.93329 0.42826 0.33991 0.0
C94 C 0.86365 0.35594 0.36849 0.0
C95 C 0.91764 0.42095 0.40316 0.0
C96 C 0.86073 0.43088 0.32628 0.0
O97 O 0.88589 0.35393 0.35441 0.0
O98 O 0.85917 0.38082 0.37757 0.0
O99 O 0.86448 0.43798 0.34953 0.0
O100 O 0.87544 0.40942 0.31892 0.0
C101 C 0.94705 0.40699 0.33091 0.0
O102 O 0.90021 0.43541 0.38957 0.0
O103 O 0.92415 0.39639 0.39415 0.0
In104 In 0.89632 0.39611 0.85872 0.0
O105 O 0.93607 0.40323 0.88367 0.0
O106 O 0.89659 0.42238 0.896 0.0
C107 C 0.93374 0.35747 0.83854 0.0
C108 C 0.88878 0.44219 0.82728 0.0
C109 C 0.84714 0.36516 0.86572 0.0
O110 O 0.9335 0.38374 0.83198 0.0
O111 O 0.91564 0.35089 0.85578 0.0
O112 O 0.85301 0.37789 0.84487 0.0
O113 O 0.86522 0.36944 0.8835 0.0
C114 C 0.9233 0.41885 0.90004 0.0
O115 O 0.88684 0.44404 0.85147 0.0
O116 O 0.89284 0.41687 0.81898 0.0
In117 In 0.09704 0.89624 0.8597 0.0
O118 O 0.08905 0.93694 0.88329 0.0
O119 O 0.07178 0.89741 0.89752 0.0
C120 C 0.13427 0.93302 0.83664 0.0
C121 C 0.05157 0.88531 0.82837 0.0
C122 C 0.12887 0.84822 0.86954 0.0
O123 O 0.10756 0.93286 0.83167 0.0
O124 O 0.14199 0.91523 0.85374 0.0
O125 O 0.11444 0.85138 0.8491 0.0
O126 O 0.12607 0.86857 0.88551 0.0
C127 C 0.07456 0.92437 0.90057 0.0
O128 O 0.04919 0.88597 0.8526 0.0
O129 O 0.07703 0.88868 0.82019 0.0
In130 In 0.60631 0.09117 0.85665 0.0
O131 O 0.57222 0.093 0.88806 0.0
O132 O 0.60918 0.06638 0.89448 0.0
C133 C 0.57088 0.12761 0.83089 0.0
C134 C 0.60784 0.03961 0.83208 0.0
C135 C 0.65579 0.12222 0.86028 0.0
O136 O 0.58172 0.13382 0.85249 0.0
O137 O 0.57744 0.10286 0.82258 0.0
O138 O 0.64489 0.11478 0.83902 0.0
O139 O 0.64264 0.1126 0.8798 0.0
C140 C 0.58497 0.07522 0.90266 0.0
O141 O 0.62929 0.05656 0.83184 0.0
O142 O 0.58646 0.04862 0.84479 0.0
In143 In 0.39597 0.59861 0.85886 0.0
O144 O 0.43572 0.6187 0.83878 0.0
O145 O 0.43001 0.573 0.838 0.0
C146 C 0.3634 0.64554 0.87028 0.0
C147 C 0.4182 0.57687 0.90257 0.0
C148 C 0.35827 0.57019 0.82843 0.0
O149 O 0.38197 0.64571 0.85241 0.0
O150 O 0.36233 0.6223 0.88294 0.0
O151 O 0.36115 0.5643 0.85204 0.0
O152 O 0.3742 0.59038 0.82037 0.0
C153 C 0.44534 0.59436 0.83155 0.0
O154 O 0.399 0.56399 0.88963 0.0
O155 O 0.42537 0.60146 0.89402 0.0
In156 In 0.90432 0.10178 0.63756 0.0
O157 O 0.9382 0.09895 0.60617 0.0
O158 O 0.89896 0.07554 0.60068 0.0
C159 C 0.9333 0.13742 0.6696 0.0
C160 C 0.90733 0.05089 0.66281 0.0
C161 C 0.85836 0.13576 0.6264 0.0
O162 O 0.94023 0.13443 0.64623 0.0
O163 O 0.91193 0.12247 0.67667 0.0
O164 O 0.85688 0.11542 0.64262 0.0
O165 O 0.88253 0.13816 0.61538 0.0
C166 C 0.92377 0.08194 0.59213 0.0
O167 O 0.88337 0.06336 0.65881 0.0
O168 O 0.92911 0.06411 0.65415 0.0
In169 In 0.3929 0.9017 0.63606 0.0
O170 O 0.39711 0.9387 0.60756 0.0
O171 O 0.42301 0.90126 0.6013 0.0
C172 C 0.35267 0.92795 0.66531 0.0
C173 C 0.44083 0.90513 0.66551 0.0
C174 C 0.36133 0.85476 0.62277 0.0
O175 O 0.35776 0.93575 0.64241 0.0
O176 O 0.36775 0.90697 0.67321 0.0
O177 O 0.37904 0.85442 0.64131 0.0
O178 O 0.36073 0.87817 0.61033 0.0
C179 C 0.41637 0.92653 0.59415 0.0
O180 O 0.43464 0.88225 0.65331 0.0
O181 O 0.42277 0.92536 0.66301 0.0
In182 In 0.59994 0.39399 0.63404 0.0
O183 O 0.56451 0.3967 0.60395 0.0
O184 O 0.60233 0.42215 0.59801 0.0
C185 C 0.57301 0.35406 0.66329 0.0
C186 C 0.59417 0.44322 0.66137 0.0
C187 C 0.64849 0.36352 0.6236 0.0
O188 O 0.56757 0.3571 0.6396 0.0
O189 O 0.5919 0.37109 0.67205 0.0
O190 O 0.64699 0.38118 0.64213 0.0
O191 O 0.62609 0.36233 0.60981 0.0
C192 C 0.57744 0.41508 0.59014 0.0
O193 O 0.61854 0.43519 0.65285 0.0
O194 O 0.57352 0.4264 0.65622 0.0
In195 In 0.09792 0.60406 0.63628 0.0
O196 O 0.07844 0.61232 0.67607 0.0
O197 O 0.04969 0.6104 0.64428 0.0
C198 C 0.12706 0.65323 0.62475 0.0
C199 C 0.07572 0.57479 0.59605 0.0
C200 C 0.13723 0.56902 0.65878 0.0
O201 O 0.11386 0.64974 0.6458 0.0
O202 O 0.12423 0.63264 0.60905 0.0
O203 O 0.1439 0.58769 0.64209 0.0
O204 O 0.11056 0.56747 0.66369 0.0
C205 C 0.05257 0.61271 0.66836 0.0
O206 O 0.09217 0.56319 0.61247 0.0
O207 O 0.07105 0.60143 0.59953 0.0
H208 H 0.15069 0.68061 0.08334 0.0
H209 H 0.18721 0.71873 0.08054 0.0
H210 H 0.22915 0.6849 0.14846 0.0
H211 H 0.19306 0.64627 0.15099 0.0
H212 H 0.19689 0.76051 0.11557 0.0
H213 H 0.29739 0.69723 0.1011 0.0
H214 H 0.26187 0.68157 0.09735 0.0
H215 H 0.27736 0.68586 0.12895 0.0
C216 C 0.16802 0.68096 0.0974 0.0
C217 C 0.16909 0.66039 0.11734 0.0
C218 C 0.18881 0.70282 0.09582 0.0
C219 C 0.21108 0.70456 0.11414 0.0
C220 C 0.21256 0.68365 0.13377 0.0
H221 H 0.30901 0.85665 0.15772 0.0
H222 H 0.27277 0.8184 0.15328 0.0
C223 C 0.19186 0.66163 0.13525 0.0
C224 C 0.23152 0.72934 0.11369 0.0
H225 H 0.30326 0.74682 0.11294 0.0
C226 C 0.22015 0.75752 0.11479 0.0
C227 C 0.26184 0.72548 0.11235 0.0
C228 C 0.27536 0.69591 0.1096 0.0
C229 C 0.23827 0.78189 0.11515 0.0
C230 C 0.26862 0.77796 0.11498 0.0
C231 C 0.27998 0.74982 0.1133 0.0
C232 C 0.2891 0.80263 0.11674 0.0
C233 C 0.2247 0.81159 0.11538 0.0
C234 C 0.31044 0.80644 0.09778 0.0
C235 C 0.33132 0.82809 0.10041 0.0
C236 C 0.33127 0.84636 0.12208 0.0
C237 C 0.30941 0.8431 0.14068 0.0
C238 C 0.28862 0.8213 0.13812 0.0
H239 H 0.20228 0.81112 0.10768 0.0
H240 H 0.22367 0.81958 0.13553 0.0
H241 H 0.23761 0.82717 0.10384 0.0
H242 H 0.31126 0.79227 0.08115 0.0
H243 H 0.34794 0.83002 0.08578 0.0
H244 H 0.84346 0.18322 0.17517 0.0
H245 H 0.80304 0.21746 0.17389 0.0
H246 H 0.7943 0.20365 0.09206 0.0
H247 H 0.83478 0.16941 0.09313 0.0
H248 H 0.78987 0.26356 0.1092 0.0
H249 H 0.71827 0.18864 0.16356 0.0
H250 H 0.75263 0.1961 0.17835 0.0
H251 H 0.75137 0.17685 0.14829 0.0
C252 C 0.83323 0.1878 0.15683 0.0
C253 C 0.84219 0.17351 0.13427 0.0
C254 C 0.81002 0.20719 0.15618 0.0
C255 C 0.79539 0.21262 0.13297 0.0
C256 C 0.80521 0.19955 0.11018 0.0
H257 H 0.64805 0.3227 0.09292 0.0
H258 H 0.68777 0.28761 0.0914 0.0
C259 C 0.82837 0.18007 0.11083 0.0
C260 C 0.76926 0.23119 0.13264 0.0
H261 H 0.69994 0.23553 0.15515 0.0
C262 C 0.77013 0.25744 0.11911 0.0
C263 C 0.74358 0.22302 0.14558 0.0
C264 C 0.74116 0.19451 0.15962 0.0
C265 C 0.7462 0.27619 0.11877 0.0
C266 C 0.72051 0.26808 0.13181 0.0
C267 C 0.71961 0.24167 0.14513 0.0
C268 C 0.69473 0.28722 0.13267 0.0
C269 C 0.74898 0.30492 0.10515 0.0
C270 C 0.68448 0.29745 0.15645 0.0
C271 C 0.66156 0.31716 0.1574 0.0
C272 C 0.64845 0.32697 0.13456 0.0
C273 C 0.65781 0.31563 0.11084 0.0
C274 C 0.68068 0.2958 0.10991 0.0
H275 H 0.77197 0.31087 0.10183 0.0
H276 H 0.73816 0.30358 0.0861 0.0
H277 H 0.73846 0.32244 0.11641 0.0
H278 H 0.69485 0.29092 0.17426 0.0
H279 H 0.65485 0.3255 0.17598 0.0
H280 H 0.1925 0.85397 0.33135 0.0
H281 H 0.22553 0.81271 0.33521 0.0
H282 H 0.19173 0.79434 0.41096 0.0
H283 H 0.15857 0.83543 0.40723 0.0
H284 H 0.26835 0.79763 0.37337 0.0
H285 H 0.17737 0.71913 0.36879 0.0
H286 H 0.17339 0.75663 0.35972 0.0
H287 H 0.17427 0.74661 0.39316 0.0
C288 C 0.19243 0.84143 0.34899 0.0
C289 C 0.17281 0.84782 0.36892 0.0
C290 C 0.21125 0.81784 0.35114 0.0
C291 C 0.21064 0.80019 0.37316 0.0
C292 C 0.19215 0.80741 0.39362 0.0
H293 H 0.33467 0.66391 0.40957 0.0
H294 H 0.3014 0.70503 0.41213 0.0
C295 C 0.17337 0.83101 0.39152 0.0
C296 C 0.22852 0.7736 0.37424 0.0
H297 H 0.22413 0.69981 0.37557 0.0
C298 C 0.25874 0.77624 0.37395 0.0
C299 C 0.21582 0.74574 0.37464 0.0
C300 C 0.18344 0.74167 0.37388 0.0
C301 C 0.27666 0.7517 0.37424 0.0
C302 C 0.26397 0.72384 0.37511 0.0
C303 C 0.23375 0.72121 0.37519 0.0
C304 C 0.28184 0.69721 0.3749 0.0
C305 C 0.30904 0.75573 0.37301 0.0
C306 C 0.28086 0.67844 0.35365 0.0
C307 C 0.29973 0.65482 0.35218 0.0
C308 C 0.31976 0.64953 0.37202 0.0
C309 C 0.31954 0.66746 0.39394 0.0
C310 C 0.30071 0.69108 0.39536 0.0
H311 H 0.31503 0.77797 0.36691 0.0
H312 H 0.31842 0.75184 0.3924 0.0
H313 H 0.31895 0.74003 0.35942 0.0
H314 H 0.2663 0.68273 0.33774 0.0
H315 H 0.29939 0.64141 0.33506 0.0
H316 H 0.81378 0.35711 0.39634 0.0
H317 H 0.77697 0.31946 0.39947 0.0
H318 H 0.82947 0.26295 0.35262 0.0
H319 H 0.86633 0.30091 0.34898 0.0
H320 H 0.77352 0.26624 0.33571 0.0
H321 H 0.77507 0.24508 0.44084 0.0
H322 H 0.77026 0.28263 0.4332 0.0
H323 H 0.80349 0.26476 0.42464 0.0
C324 C 0.81772 0.33653 0.387 0.0
C325 C 0.84299 0.33193 0.37245 0.0
C326 C 0.7967 0.31495 0.38893 0.0
C327 C 0.80063 0.28824 0.37659 0.0
C328 C 0.82609 0.28337 0.36242 0.0
H329 H 0.69265 0.13624 0.39415 0.0
H330 H 0.7312 0.17232 0.39567 0.0
C331 C 0.84715 0.30502 0.36042 0.0
C332 C 0.77729 0.26622 0.37709 0.0
H333 H 0.7346 0.22645 0.41751 0.0
C334 C 0.76513 0.25739 0.35358 0.0
C335 C 0.76652 0.25454 0.40042 0.0
C336 C 0.77969 0.262 0.42619 0.0
C337 C 0.74215 0.23756 0.35277 0.0
C338 C 0.73064 0.22673 0.37614 0.0
C339 C 0.74316 0.23513 0.39964 0.0
C340 C 0.7064 0.20571 0.37653 0.0
C341 C 0.73077 0.228 0.32686 0.0
C342 C 0.67935 0.21277 0.36588 0.0
C343 C 0.65723 0.19212 0.36492 0.0
C344 C 0.66178 0.16416 0.37477 0.0
C345 C 0.68849 0.15758 0.38634 0.0
C346 C 0.71057 0.17817 0.38723 0.0
H347 H 0.74649 0.23247 0.31114 0.0
H348 H 0.72573 0.20452 0.32688 0.0
H349 H 0.71056 0.24001 0.32249 0.0
H350 H 0.67548 0.23413 0.35802 0.0
H351 H 0.63684 0.19785 0.35599 0.0
H352 H 0.8112 0.34614 0.82763 0.0
H353 H 0.77844 0.30459 0.82933 0.0
H354 H 0.79826 0.29273 0.90985 0.0
H355 H 0.83118 0.33425 0.90834 0.0
H356 H 0.7996 0.24691 0.84537 0.0
H357 H 0.70749 0.28734 0.90446 0.0
H358 H 0.73146 0.31139 0.88718 0.0
H359 H 0.74341 0.2943 0.91634 0.0
C360 C 0.80811 0.3351 0.84585 0.0
C361 C 0.82377 0.34345 0.86786 0.0
C362 C 0.7895 0.3113 0.84674 0.0
C363 C 0.78593 0.29568 0.86971 0.0
C364 C 0.80052 0.30471 0.89201 0.0
H365 H 0.68211 0.14258 0.90387 0.0
H366 H 0.71641 0.18284 0.90702 0.0
C367 C 0.8193 0.32842 0.89111 0.0
C368 C 0.76879 0.26863 0.86974 0.0
H369 H 0.70656 0.23816 0.8924 0.0
C370 C 0.77923 0.24494 0.85563 0.0
C371 C 0.74251 0.2661 0.88345 0.0
C372 C 0.73031 0.29112 0.89863 0.0
C373 C 0.76402 0.21868 0.85478 0.0
C374 C 0.73725 0.21635 0.86787 0.0
C375 C 0.72707 0.23995 0.88237 0.0
C376 C 0.71879 0.19015 0.86585 0.0
C377 C 0.77702 0.19361 0.84017 0.0
C378 C 0.70901 0.18064 0.84166 0.0
C379 C 0.6897 0.15749 0.83981 0.0
C380 C 0.67944 0.14365 0.86214 0.0
C381 C 0.68976 0.15272 0.88632 0.0
C382 C 0.70924 0.1758 0.88815 0.0
H383 H 0.80092 0.19563 0.83871 0.0
H384 H 0.77179 0.17264 0.84952 0.0
H385 H 0.76818 0.19335 0.82028 0.0
H386 H 0.7155 0.19178 0.82423 0.0
H387 H 0.68191 0.15123 0.82092 0.0
H388 H 0.32328 0.65013 0.90858 0.0
H389 H 0.28368 0.68507 0.91164 0.0
H390 H 0.31491 0.72825 0.84338 0.0
H391 H 0.35494 0.69361 0.84042 0.0
H392 H 0.29622 0.76642 0.88162 0.0
H393 H 0.21432 0.68116 0.86278 0.0
H394 H 0.23735 0.67394 0.88991 0.0
H395 H 0.25256 0.67534 0.85802 0.0
C396 C 0.32195 0.6673 0.89441 0.0
C397 C 0.34209 0.66901 0.87414 0.0
C398 C 0.29919 0.68711 0.89609 0.0
C399 C 0.29597 0.70881 0.87739 0.0
C400 C 0.31688 0.7115 0.85789 0.0
H401 H 0.14322 0.80571 0.8353 0.0
H402 H 0.18343 0.77143 0.83854 0.0
C403 C 0.33977 0.69175 0.85626 0.0
C404 C 0.27027 0.72804 0.87762 0.0
H405 H 0.19651 0.72777 0.87314 0.0
C406 C 0.27441 0.758 0.87982 0.0
C407 C 0.24186 0.717 0.87486 0.0
C408 C 0.23615 0.68513 0.87101 0.0
C409 C 0.25087 0.77724 0.87953 0.0
C410 C 0.22242 0.76613 0.87745 0.0
C411 C 0.21831 0.73618 0.87506 0.0
C412 C 0.19672 0.78536 0.87657 0.0
C413 C 0.25674 0.80933 0.88077 0.0
C414 C 0.19023 0.80384 0.89725 0.0
C415 C 0.16728 0.82347 0.89544 0.0
C416 C 0.15029 0.82476 0.87299 0.0
C417 C 0.15592 0.80522 0.85284 0.0
C418 C 0.17893 0.78567 0.85464 0.0
H419 H 0.27959 0.81447 0.87592 0.0
H420 H 0.24237 0.82137 0.86738 0.0
H421 H 0.2525 0.81718 0.90063 0.0
H422 H 0.20327 0.80348 0.9146 0.0
H423 H 0.16339 0.83818 0.91132 0.0
H424 H 0.69402 0.35408 0.65613 0.0
H425 H 0.73041 0.31579 0.65305 0.0
H426 H 0.69441 0.28872 0.58021 0.0
H427 H 0.65752 0.32648 0.58351 0.0
H428 H 0.70125 0.24373 0.61239 0.0
H429 H 0.80248 0.30767 0.60982 0.0
H430 H 0.78017 0.3165 0.63702 0.0
H431 H 0.76736 0.32383 0.6049 0.0
C432 C 0.69422 0.34033 0.63922 0.0
C433 C 0.67297 0.34331 0.62004 0.0
C434 C 0.7151 0.31849 0.63744 0.0
C435 C 0.71535 0.29955 0.61625 0.0
C436 C 0.69466 0.3031 0.5967 0.0
H437 H 0.85507 0.17698 0.58902 0.0
H438 H 0.81889 0.21527 0.58469 0.0
C439 C 0.67367 0.32477 0.59857 0.0
C440 C 0.73584 0.27481 0.61535 0.0
H441 H 0.80744 0.25717 0.61869 0.0
C442 C 0.7245 0.24668 0.61354 0.0
C443 C 0.76616 0.27865 0.61654 0.0
C444 C 0.7798 0.30831 0.61691 0.0
C445 C 0.74261 0.22228 0.61346 0.0
C446 C 0.77285 0.22607 0.61587 0.0
C447 C 0.78423 0.25423 0.6171 0.0
C448 C 0.79321 0.20125 0.61727 0.0
C449 C 0.72915 0.19274 0.61044 0.0
C450 C 0.79063 0.18038 0.63685 0.0
C451 C 0.81112 0.15823 0.63917 0.0
C452 C 0.83479 0.15686 0.62221 0.0
C453 C 0.83704 0.17745 0.60237 0.0
C454 C 0.81643 0.1994 0.59991 0.0
H455 H 0.7076 0.19404 0.60101 0.0
H456 H 0.7432 0.17818 0.5989 0.0
H457 H 0.72606 0.18294 0.62978 0.0
H458 H 0.77329 0.18172 0.65084 0.0
H459 H 0.80901 0.14285 0.65482 0.0
H460 H 0.15907 0.66403 0.58154 0.0
H461 H 0.19856 0.69894 0.5769 0.0
H462 H 0.18206 0.73055 0.65375 0.0
H463 H 0.14225 0.69606 0.65837 0.0
H464 H 0.19417 0.77443 0.61875 0.0
H465 H 0.27617 0.68669 0.61335 0.0
H466 H 0.24809 0.68459 0.58949 0.0
H467 H 0.23922 0.6802 0.62301 0.0
C468 C 0.16356 0.67874 0.59729 0.0
C469 C 0.14769 0.67718 0.62039 0.0
C470 C 0.18629 0.69849 0.59469 0.0
C471 C 0.19367 0.71684 0.61521 0.0
C472 C 0.17685 0.71641 0.63775 0.0
H473 H 0.35236 0.806 0.65155 0.0
H474 H 0.31214 0.77177 0.64764 0.0
C475 C 0.15407 0.69674 0.64034 0.0
C476 C 0.21951 0.73579 0.61367 0.0
H477 H 0.29322 0.73458 0.60836 0.0
C478 C 0.21582 0.76576 0.61636 0.0
C479 C 0.24777 0.72433 0.61094 0.0
C480 C 0.25322 0.69219 0.60926 0.0
C481 C 0.23961 0.78463 0.61639 0.0
C482 C 0.26783 0.77323 0.61318 0.0
C483 C 0.27154 0.74326 0.61052 0.0
C484 C 0.2938 0.79204 0.61375 0.0
C485 C 0.2344 0.81652 0.62064 0.0
C486 C 0.29745 0.81405 0.5954 0.0
C487 C 0.32035 0.83362 0.59761 0.0
C488 C 0.34015 0.83138 0.6181 0.0
C489 C 0.33745 0.80828 0.63557 0.0
C490 C 0.31445 0.78876 0.63339 0.0
H491 H 0.21258 0.82077 0.6288 0.0
H492 H 0.25087 0.82577 0.63385 0.0
H493 H 0.23597 0.82801 0.6019 0.0
H494 H 0.28212 0.81656 0.57977 0.0
H495 H 0.32196 0.85109 0.58376 0.0
H496 H 0.97835 0.36638 0.30378 0.0
H497 H 0.0197 0.37561 0.27502 0.0
H498 H 0.01577 0.46638 0.29422 0.0
H499 H 0.97551 0.4573 0.323 0.0
H500 H 0.01893 0.40698 0.23286 0.0
H501 H 0.10108 0.45553 0.29529 0.0
H502 H 0.0712 0.43499 0.30833 0.0
H503 H 0.06755 0.4733 0.30217 0.0
C504 C 0.98684 0.38815 0.30223 0.0
C505 C 0.97367 0.41113 0.31557 0.0
C506 C 0.01046 0.39338 0.28586 0.0
C507 C 0.02135 0.4216 0.28287 0.0
C508 C 0.00856 0.44427 0.29681 0.0
H509 H 0.04113 0.53186 0.16828 0.0
H510 H 0.03209 0.49034 0.19562 0.0
C511 C 0.98518 0.43909 0.31305 0.0
C512 C 0.04302 0.42876 0.26272 0.0
H513 H 0.09615 0.47837 0.25173 0.0
C514 C 0.03653 0.42177 0.23703 0.0
C515 C 0.06678 0.44719 0.26792 0.0
C516 C 0.0772 0.45282 0.29501 0.0
C517 C 0.05043 0.4359 0.21655 0.0
C518 C 0.0706 0.45811 0.22199 0.0
C519 C 0.08003 0.46201 0.24748 0.0
C520 C 0.07731 0.48099 0.20283 0.0
C521 C 0.04196 0.42821 0.18933 0.0
C522 C 0.10583 0.49019 0.19812 0.0
C523 C 0.1111 0.51448 0.18256 0.0
C524 C 0.08788 0.53003 0.17183 0.0
C525 C 0.05951 0.52035 0.1762 0.0
C526 C 0.05431 0.49627 0.1916 0.0
H527 H 0.03756 0.40466 0.18768 0.0
H528 H 0.02171 0.43977 0.18418 0.0
H529 H 0.05908 0.43418 0.17527 0.0
H530 H 0.1239 0.47899 0.20691 0.0
H531 H 0.13319 0.52153 0.17954 0.0
H532 H 0.9395 0.07942 0.22115 0.0
H533 H 0.9818 0.06761 0.2467 0.0
H534 H 0.03591 0.11518 0.19373 0.0
H535 H 0.99332 0.126 0.16717 0.0
H536 H 0.05874 0.06579 0.20111 0.0
H537 H 0.03198 0.10548 0.2976 0.0
H538 H 0.00185 0.08435 0.28704 0.0
H539 H 0.01166 0.11678 0.26963 0.0
C540 C 0.96026 0.08801 0.21521 0.0
C541 C 0.96308 0.10359 0.19211 0.0
C542 C 0.98453 0.08148 0.23006 0.0
C543 C 0.01215 0.09096 0.22255 0.0
C544 C 0.01485 0.10778 0.20007 0.0
H545 H 0.12397 0.0022 0.33229 0.0
H546 H 0.11037 0.04432 0.30624 0.0
C547 C 0.9905 0.11402 0.18494 0.0
C548 C 0.03805 0.07971 0.23633 0.0
H549 H 0.05921 0.05908 0.29649 0.0
C550 C 0.05933 0.06508 0.22201 0.0
C551 C 0.03986 0.07954 0.26357 0.0
C552 C 0.02024 0.09775 0.28023 0.0
C553 C 0.08014 0.04765 0.23417 0.0
C554 C 0.07888 0.04382 0.26123 0.0
C555 C 0.05983 0.06115 0.27567 0.0
C556 C 0.0934 0.01916 0.27442 0.0
C557 C 0.10258 0.03282 0.2177 0.0
C558 C 0.08941 0.99096 0.26493 0.0
C559 C 0.09766 0.967 0.27952 0.0
C560 C 0.1094 0.97062 0.30427 0.0
C561 C 0.11498 0.99876 0.31325 0.0
C562 C 0.10711 0.02284 0.29841 0.0
H563 H 0.10947 0.04719 0.20166 0.0
H564 H 0.12198 0.02655 0.22903 0.0
H565 H 0.09301 0.01315 0.20889 0.0
H566 H 0.07805 0.98726 0.24698 0.0
H567 H 0.09287 0.94561 0.27211 0.0
H568 H 0.5225 0.13691 0.30945 0.0
H569 H 0.48058 0.1293 0.28104 0.0
H570 H 0.47853 0.0393 0.30322 0.0
H571 H 0.51925 0.0469 0.33175 0.0
H572 H 0.48048 0.09728 0.24016 0.0
H573 H 0.39426 0.05377 0.30096 0.0
H574 H 0.42466 0.07298 0.31463 0.0
H575 H 0.42642 0.03437 0.30926 0.0
C576 C 0.51249 0.11574 0.30871 0.0
C577 C 0.52422 0.09246 0.32269 0.0
C578 C 0.48855 0.11142 0.29253 0.0
C579 C 0.47591 0.08384 0.29033 0.0
C580 C 0.48706 0.06101 0.30516 0.0
H581 H 0.45911 0.97102 0.1788 0.0
H582 H 0.46729 0.01303 0.20572 0.0
C583 C 0.51074 0.0653 0.32125 0.0
C584 C 0.45458 0.0771 0.26977 0.0
H585 H 0.40055 0.02863 0.2582 0.0
C586 C 0.46227 0.08316 0.24414 0.0
C587 C 0.43004 0.05958 0.27461 0.0
C588 C 0.41825 0.05518 0.30143 0.0
C589 C 0.44888 0.06875 0.22358 0.0
C590 C 0.42798 0.0472 0.2289 0.0
C591 C 0.41728 0.04443 0.25411 0.0
C592 C 0.42191 0.02368 0.21022 0.0
C593 C 0.45875 0.07525 0.19647 0.0
C594 C 0.39354 0.01502 0.20421 0.0
C595 C 0.38873 0.99048 0.18885 0.0
C596 C 0.41225 0.97413 0.17967 0.0
C597 C 0.4405 0.98315 0.1855 0.0
C598 C 0.44524 0.00748 0.20066 0.0
H599 H 0.46388 0.09861 0.19435 0.0
H600 H 0.47888 0.06297 0.19236 0.0
H601 H 0.44209 0.06925 0.18201 0.0
H602 H 0.37521 0.02694 0.21174 0.0
H603 H 0.36673 0.98394 0.18469 0.0
H604 H 0.52727 0.36676 0.20183 0.0
H605 H 0.48611 0.37617 0.23068 0.0
H606 H 0.4631 0.45078 0.18508 0.0
H607 H 0.50365 0.44145 0.15638 0.0
H608 H 0.48323 0.42556 0.25879 0.0
H609 H 0.3841 0.41762 0.20036 0.0
H610 H 0.41786 0.40122 0.19052 0.0
H611 H 0.41077 0.43886 0.18392 0.0
C612 C 0.51288 0.38465 0.19762 0.0
C613 C 0.51873 0.4035 0.177 0.0
C614 C 0.4894 0.38999 0.21407 0.0
C615 C 0.47123 0.41393 0.20983 0.0
C616 C 0.47627 0.43176 0.1884 0.0
H617 H 0.38695 0.55025 0.27501 0.0
H618 H 0.40222 0.50946 0.24846 0.0
C619 C 0.49972 0.42658 0.17215 0.0
C620 C 0.45017 0.42347 0.22966 0.0
H621 H 0.38278 0.45301 0.23563 0.0
C622 C 0.46094 0.43071 0.2541 0.0
C623 C 0.42111 0.43014 0.22349 0.0
C624 C 0.40774 0.42124 0.1982 0.0
C625 C 0.44443 0.44698 0.27156 0.0
C626 C 0.41612 0.45572 0.26453 0.0
C627 C 0.40451 0.44642 0.24094 0.0
C628 C 0.40048 0.47815 0.27946 0.0
C629 C 0.45835 0.45679 0.29641 0.0
C630 C 0.39288 0.47376 0.30538 0.0
C631 C 0.38428 0.49717 0.3207 0.0
C632 C 0.38301 0.52521 0.31021 0.0
C633 C 0.38792 0.52895 0.28369 0.0
C634 C 0.3966 0.50562 0.26846 0.0
H635 H 0.48182 0.4516 0.29713 0.0
H636 H 0.4557 0.4805 0.29896 0.0
H637 H 0.4477 0.44586 0.31292 0.0
H638 H 0.39521 0.4526 0.3141 0.0
H639 H 0.38043 0.4936 0.34105 0.0
H640 H 0.99638 0.60049 0.65654 0.0
H641 H 0.95939 0.58316 0.68635 0.0
H642 H 0.0159 0.60108 0.75056 0.0
H643 H 0.05332 0.61774 0.72076 0.0
H644 H 0.00117 0.54539 0.7481 0.0
H645 H 0.9016 0.6112 0.73938 0.0
H646 H 0.91525 0.59977 0.70863 0.0
H647 H 0.93645 0.62384 0.7283 0.0
C648 C 0.00056 0.60171 0.67706 0.0
C649 C 0.02788 0.61013 0.68632 0.0
C650 C 0.97926 0.59195 0.69413 0.0
C651 C 0.98479 0.59089 0.72073 0.0
C652 C 0.01114 0.60176 0.73011 0.0
H653 H 0.89199 0.49894 0.84186 0.0
H654 H 0.9105 0.53898 0.81564 0.0
C655 C 0.03252 0.61128 0.71306 0.0
C656 C 0.96581 0.57358 0.7379 0.0
H657 H 0.8957 0.56301 0.75688 0.0
C658 C 0.97822 0.54963 0.75034 0.0
C659 C 0.93581 0.57895 0.74072 0.0
C660 C 0.92154 0.60501 0.72874 0.0
C661 C 0.9614 0.53043 0.76482 0.0
C662 C 0.93127 0.53506 0.76673 0.0
C663 C 0.91881 0.55944 0.75506 0.0
C664 C 0.91291 0.51398 0.7805 0.0
C665 C 0.97584 0.50484 0.77757 0.0
C666 C 0.90699 0.48716 0.76903 0.0
C667 C 0.89658 0.46424 0.78392 0.0
C668 C 0.89198 0.46785 0.81051 0.0
C669 C 0.89536 0.49551 0.82141 0.0
C670 C 0.90586 0.51844 0.80648 0.0
H671 H -0.00019 0.50665 0.77735 0.0
H672 H 0.9685 0.50272 0.79787 0.0
H673 H 0.96968 0.48473 0.76726 0.0
H674 H 0.91243 0.48337 0.74898 0.0
H675 H 0.89408 0.44322 0.77496 0.0
H676 H 0.99415 0.88549 0.84137 0.0
H677 H 0.95367 0.89833 0.81312 0.0
H678 H 0.01198 0.90139 0.74817 0.0
H679 H 0.05206 0.88789 0.776 0.0
H680 H 0.95209 0.94917 0.79113 0.0
H681 H 0.94236 0.8691 0.71337 0.0
H682 H 0.96146 0.86125 0.74295 0.0
H683 H 0.97959 0.87914 0.71656 0.0
C684 C 0.99808 0.88784 0.82088 0.0
C685 C 0.02631 0.88593 0.81092 0.0
C686 C 0.97493 0.8952 0.80476 0.0
C687 C 0.97963 0.90063 0.77843 0.0
C688 C 0.00751 0.89662 0.76822 0.0
H689 H 0.95467 0.01654 0.6649 0.0
H690 H 0.96298 0.97511 0.69296 0.0
C691 C 0.03056 0.88914 0.78426 0.0
C692 C 0.95738 0.91563 0.76266 0.0
H693 H 0.93225 0.91986 0.7009 0.0
C694 C 0.94682 0.94227 0.77171 0.0
C695 C 0.9503 0.90662 0.73736 0.0
C696 C 0.95882 0.87728 0.72717 0.0
C697 C 0.93214 0.96143 0.75531 0.0
C698 C 0.92773 0.9536 0.72926 0.0
C699 C 0.93587 0.9259 0.72086 0.0
C700 C 0.92013 0.97568 0.70975 0.0
C701 C 0.92382 0.99096 0.76531 0.0
C702 C 0.89294 0.98926 0.70939 0.0
C703 C 0.88808 0.01312 0.69323 0.0
C704 C 0.91046 0.02369 0.67746 0.0
C705 C 0.9371 0.00906 0.67702 0.0
C706 C 0.94183 0.98526 0.69292 0.0
H707 H 0.93063 0.99433 0.78563 0.0
H708 H 0.93379 0.00808 0.75319 0.0
H709 H 0.89999 0.99359 0.76423 0.0
H710 H 0.87588 0.98204 0.72218 0.0
H711 H 0.86732 0.02397 0.69388 0.0
H712 H 0.56667 0.99825 0.83538 0.0
H713 H 0.55638 0.9605 0.80435 0.0
H714 H 0.63399 0.98227 0.76227 0.0
H715 H 0.64399 0.02114 0.7933 0.0
H716 H 0.59036 0.98459 0.73178 0.0
H717 H 0.57854 0.88168 0.78273 0.0
H718 H 0.55872 0.90798 0.80085 0.0
H719 H 0.59741 0.91189 0.79708 0.0
C720 C 0.58205 0.99453 0.81995 0.0
C721 C 0.60594 0.01288 0.81657 0.0
C722 C 0.57635 0.97254 0.80234 0.0
C723 C 0.59459 0.96809 0.78105 0.0
C724 C 0.61971 0.98509 0.77865 0.0
H725 H 0.48727 0.86802 0.67089 0.0
H726 H 0.53242 0.87746 0.69485 0.0
C727 C 0.62542 0.00729 0.79637 0.0
C728 C 0.5839 0.95012 0.75928 0.0
H729 H 0.54076 0.89136 0.74874 0.0
C730 C 0.58053 0.96363 0.73521 0.0
C731 C 0.57158 0.92239 0.76318 0.0
C732 C 0.57713 0.90511 0.78733 0.0
C733 C 0.562 0.95211 0.71648 0.0
C734 C 0.54604 0.92682 0.7222 0.0
C735 C 0.55239 0.91122 0.74468 0.0
C736 C 0.51924 0.91996 0.70784 0.0
C737 C 0.55792 0.96835 0.69152 0.0
C738 C 0.49674 0.94029 0.70796 0.0
C739 C 0.47124 0.93499 0.69456 0.0
C740 C 0.46749 0.90909 0.68082 0.0
C741 C 0.48966 0.88821 0.68127 0.0
C742 C 0.5154 0.89358 0.69484 0.0
H743 H 0.57799 0.98005 0.68603 0.0
H744 H 0.55172 0.95356 0.67558 0.0
H745 H 0.54052 0.98467 0.694 0.0
H746 H 0.49894 0.96044 0.71845 0.0
H747 H 0.45452 0.95142 0.69483 0.0
H748 H 0.63454 0.48286 0.67841 0.0
H749 H 0.62532 0.52563 0.70561 0.0
H750 H 0.53415 0.50561 0.70568 0.0
H751 H 0.54299 0.46377 0.6786 0.0
H752 H 0.54628 0.56494 0.69849 0.0
H753 H 0.605 0.51834 0.78282 0.0
H754 H 0.62368 0.52307 0.75264 0.0
H755 H 0.59593 0.49612 0.7554 0.0
C756 C 0.61255 0.48784 0.68413 0.0
C757 C 0.58951 0.46985 0.67657 0.0
C758 C 0.60734 0.51219 0.69966 0.0
C759 C 0.57906 0.51869 0.70776 0.0
C760 C 0.55612 0.50113 0.69955 0.0
H761 H 0.47049 0.54359 0.81891 0.0
H762 H 0.51126 0.5354 0.7904 0.0
C763 C 0.56125 0.47705 0.68417 0.0
C764 C 0.57246 0.54228 0.72619 0.0
H765 H 0.56926 0.55282 0.79118 0.0
C766 C 0.55202 0.56315 0.71871 0.0
C767 C 0.58031 0.54002 0.75246 0.0
C768 C 0.60239 0.51822 0.76152 0.0
C769 C 0.53639 0.57902 0.73711 0.0
C770 C 0.54185 0.57419 0.76359 0.0
C771 C 0.56503 0.55627 0.77083 0.0
C772 C 0.51957 0.5808 0.78329 0.0
C773 C 0.51198 0.59827 0.72817 0.0
C774 C 0.51089 0.60919 0.78921 0.0
C775 C 0.48713 0.61399 0.80556 0.0
C776 C 0.47191 0.59043 0.81611 0.0
C777 C 0.48156 0.56222 0.81094 0.0
C778 C 0.50506 0.55749 0.79476 0.0
H779 H 0.50969 0.59839 0.70684 0.0
H780 H 0.49122 0.59097 0.73675 0.0
H781 H 0.51597 0.62078 0.73466 0.0
H782 H 0.52201 0.62751 0.78078 0.0
H783 H 0.48023 0.63597 0.80937 0.0
H784 H 0.02718 0.68331 0.15013 0.0
H785 H 0.00709 0.72104 0.17827 0.0
H786 H 0.06027 0.69042 0.24093 0.0
H787 H 0.08011 0.6527 0.2132 0.0
H788 H 0.00174 0.70697 0.25529 0.0
H789 H 0.06 0.7903 0.1972 0.0
H790 H 0.03522 0.76661 0.18081 0.0
H791 H 0.06807 0.75228 0.19411 0.0
C792 C 0.03426 0.68445 0.17001 0.0
C793 C 0.05547 0.66535 0.17942 0.0
C794 C 0.02279 0.70596 0.18601 0.0
C795 C 0.03243 0.7086 0.21155 0.0
C796 C 0.05252 0.68866 0.22127 0.0
H797 H 0.06721 0.80405 0.33964 0.0
H798 H 0.04802 0.76796 0.3101 0.0
C799 C 0.06397 0.66725 0.20536 0.0
C800 C 0.02423 0.7336 0.22772 0.0
H801 H 0.0418 0.80437 0.23711 0.0
C802 C 0.00985 0.72849 0.25111 0.0
C803 C 0.0346 0.76166 0.22205 0.0
C804 C 0.05046 0.76824 0.19727 0.0
C805 C 0.00727 0.75032 0.26978 0.0
C806 C 0.01996 0.77764 0.26504 0.0
C807 C 0.03214 0.78338 0.24076 0.0
C808 C 0.0254 0.7988 0.28592 0.0
C809 C 0.99196 0.74355 0.29473 0.0
C810 C 0.01884 0.8282 0.28242 0.0
C811 C 0.03021 0.84899 0.29915 0.0
C812 C 0.04841 0.84066 0.31955 0.0
C813 C 0.05323 0.81111 0.32409 0.0
C814 C 0.04198 0.79039 0.30734 0.0
H815 H 0.97418 0.72778 0.29153 0.0
H816 H 0.00752 0.73353 0.30836 0.0
H817 H 0.98285 0.76334 0.30376 0.0
H818 H 0.00627 0.83518 0.26592 0.0
H819 H 0.02608 0.87164 0.29523 0.0
H820 H 0.85775 0.01906 0.19087 0.0
H821 H 0.81892 0.99892 0.21745 0.0
H822 H 0.75654 0.05028 0.17573 0.0
H823 H 0.79496 0.06968 0.14874 0.0
H824 H 0.79083 0.03323 0.24854 0.0
H825 H 0.70935 0.97941 0.18804 0.0
H826 H 0.74564 0.98635 0.17665 0.0
H827 H 0.71805 0.01386 0.17429 0.0
C828 C 0.83561 0.02524 0.18681 0.0
C829 C 0.82937 0.04617 0.16795 0.0
C830 C 0.81344 0.01368 0.20197 0.0
C831 C 0.78474 0.02288 0.19851 0.0
C832 C 0.77833 0.0422 0.1784 0.0
H833 H 0.64358 0.08286 0.27633 0.0
H834 H 0.67886 0.06251 0.24639 0.0
C835 C 0.80041 0.05356 0.16311 0.0
C836 C 0.76268 0.01725 0.21865 0.0
H837 H 0.69044 0.00478 0.2264 0.0
C838 C 0.7691 0.02604 0.24392 0.0
C839 C 0.73436 0.00783 0.21266 0.0
C840 C 0.7266 0.99605 0.18645 0.0
C841 C 0.74741 0.02837 0.26267 0.0
C842 C 0.7186 0.02136 0.256 0.0
C843 C 0.71255 0.01033 0.23137 0.0
C844 C 0.69426 0.02977 0.27288 0.0
C845 C 0.75507 0.04064 0.28878 0.0
C846 C 0.6907 0.0175 0.29742 0.0
C847 C 0.67063 0.02926 0.31469 0.0
C848 C 0.65387 0.05336 0.30755 0.0
C849 C 0.65636 0.06445 0.28244 0.0
C850 C 0.67637 0.05273 0.26526 0.0
H851 H 0.77785 0.04823 0.28972 0.0
H852 H 0.74062 0.05906 0.2936 0.0
H853 H 0.75204 0.02373 0.30373 0.0
H854 H 0.70417 -0.00042 0.30352 0.0
H855 H 0.66896 0.02014 0.33388 0.0
H856 H 0.42381 0.69351 0.34014 0.0
H857 H 0.44297 0.72919 0.31003 0.0
H858 H 0.48646 0.66153 0.2678 0.0
H859 H 0.4666 0.62542 0.29758 0.0
H860 H 0.49699 0.74631 0.29091 0.0
H861 H 0.42926 0.69357 0.2153 0.0
H862 H 0.4261 0.68412 0.24889 0.0
H863 H 0.45651 0.67165 0.23039 0.0
C864 C 0.4379 0.68624 0.32475 0.0
C865 C 0.44328 0.65665 0.32089 0.0
C866 C 0.44894 0.70667 0.30761 0.0
C867 C 0.46563 0.69791 0.2864 0.0
C868 C 0.47312 0.66863 0.28377 0.0
H869 H 0.46691 0.8146 0.15306 0.0
H870 H 0.4854 0.77533 0.18033 0.0
C871 C 0.46186 0.64808 0.30083 0.0
C872 C 0.47178 0.71911 0.26576 0.0
H873 H 0.44863 0.73875 0.20582 0.0
C874 C 0.48698 0.74443 0.27207 0.0
C875 C 0.45882 0.71653 0.24113 0.0
C876 C 0.44159 0.69014 0.23343 0.0
C877 C 0.48798 0.76797 0.25501 0.0
C878 C 0.4731 0.76616 0.23126 0.0
C879 C 0.45998 0.74003 0.22409 0.0
C880 C 0.46667 0.79206 0.21554 0.0
C881 C 0.50392 0.79496 0.263 0.0
C882 C 0.45017 0.81447 0.22636 0.0
C883 C 0.43943 0.83666 0.21088 0.0
C884 C 0.4449 0.8368 0.18425 0.0
C885 C 0.46238 0.815 0.17355 0.0
C886 C 0.47303 0.79265 0.18908 0.0
H887 H 0.52215 0.78972 0.27616 0.0
H888 H 0.51249 0.80683 0.24601 0.0
H889 H 0.48887 0.80944 0.27356 0.0
H890 H 0.44433 0.81405 0.24659 0.0
H891 H 0.42605 0.85319 0.21967 0.0
H892 H 0.62669 0.46978 0.2038 0.0
H893 H 0.66428 0.48855 0.23249 0.0
H894 H 0.72989 0.45787 0.1799 0.0
H895 H 0.69253 0.44023 0.15084 0.0
H896 H 0.69886 0.45343 0.25579 0.0
H897 H 0.76783 0.53033 0.20316 0.0
H898 H 0.73229 0.52039 0.19172 0.0
H899 H 0.76339 0.49834 0.18412 0.0
C900 C 0.64914 0.46793 0.19801 0.0
C901 C 0.65676 0.45334 0.17524 0.0
C902 C 0.67059 0.47871 0.21437 0.0
C903 C 0.69996 0.47489 0.2083 0.0
C904 C 0.70745 0.46188 0.18475 0.0
H905 H 0.8517 0.42108 0.27522 0.0
H906 H 0.81271 0.44034 0.24845 0.0
C907 C 0.68603 0.45148 0.16823 0.0
C908 C 0.72248 0.47923 0.22828 0.0
H909 H 0.79253 0.50089 0.23618 0.0
C910 C 0.71899 0.46465 0.25184 0.0
C911 C 0.74876 0.49387 0.2232 0.0
C912 C 0.7531 0.51185 0.19925 0.0
C913 C 0.74184 0.46218 0.26942 0.0
C914 C 0.76882 0.47478 0.26331 0.0
C915 C 0.77181 0.49109 0.24066 0.0
C916 C 0.79489 0.46758 0.27842 0.0
C917 C 0.73764 0.44425 0.29348 0.0
C918 C 0.79812 0.4772 0.3039 0.0
C919 C 0.82037 0.46615 0.3193 0.0
C920 C 0.83953 0.4453 0.30938 0.0
C921 C 0.83711 0.43695 0.28344 0.0
C922 C 0.81499 0.44806 0.26807 0.0
H923 H 0.71611 0.43359 0.29405 0.0
H924 H 0.75463 0.42732 0.29479 0.0
H925 H 0.73963 0.45833 0.31071 0.0
H926 H 0.7828 0.49235 0.31213 0.0
H927 H 0.82185 0.47308 0.33921 0.0
H928 H 0.92257 0.1456 0.72057 0.0
H929 H 0.94203 0.18343 0.74838 0.0
H930 H 0.99635 0.21348 0.68628 0.0
H931 H 0.97665 0.17567 0.65806 0.0
H932 H 0.00019 0.20082 0.76353 0.0
H933 H 0.94216 0.28245 0.70335 0.0
H934 H 0.93462 0.24428 0.70066 0.0
H935 H 0.96755 0.25878 0.68767 0.0
C936 C 0.93893 0.16 0.71289 0.0
C937 C 0.94779 0.15799 0.68705 0.0
C938 C 0.95016 0.18147 0.72885 0.0
C939 C 0.97039 0.20135 0.71927 0.0
C940 C 0.98054 0.19846 0.6939 0.0
H941 H 0.97313 0.36618 0.80003 0.0
H942 H 0.99393 0.32926 0.77172 0.0
C943 C 0.96928 0.17689 0.67786 0.0
C944 C 0.97798 0.2267 0.73522 0.0
H945 H 0.95951 0.29747 0.74323 0.0
C946 C 0.99194 0.22218 0.7589 0.0
C947 C 0.96743 0.25455 0.72897 0.0
C948 C 0.95197 0.2605 0.70387 0.0
C949 C 0.99396 0.2444 0.77725 0.0
C950 C 0.98111 0.27152 0.77189 0.0
C951 C 0.96931 0.27665 0.74737 0.0
C952 C 0.97515 0.29312 0.79232 0.0
C953 C 0.00894 0.23828 0.80249 0.0
C954 C 0.95847 0.28503 0.81378 0.0
C955 C 0.9467 0.30603 0.83001 0.0
C956 C 0.95105 0.33552 0.82483 0.0
C957 C 0.96934 0.34358 0.8044 0.0
C958 C 0.98128 0.32252 0.78825 0.0
H959 H 0.02698 0.22269 0.79975 0.0
H960 H 0.01761 0.25834 0.81137 0.0
H961 H 0.99328 0.22828 0.81605 0.0
H962 H 0.95275 0.2626 0.81698 0.0
H963 H 0.93267 0.29917 0.84559 0.0
H964 H 0.34174 0.91706 0.71579 0.0
H965 H 0.30293 0.93691 0.7423 0.0
H966 H 0.27461 0.98983 0.67862 0.0
H967 H 0.3136 0.96988 0.65172 0.0
H968 H 0.28688 0.99755 0.75477 0.0
H969 H 0.20439 0.93656 0.69799 0.0
H970 H 0.24233 0.92755 0.69616 0.0
H971 H 0.2292 0.96004 0.68132 0.0
C972 C 0.32744 0.9331 0.70744 0.0
C973 C 0.33047 0.94171 0.68162 0.0
C974 C 0.30541 0.94455 0.72266 0.0
C975 C 0.28592 0.9647 0.71234 0.0
C976 C 0.28942 0.97418 0.68683 0.0
H977 H 0.12322 0.96997 0.79667 0.0
H978 H 0.15859 0.98973 0.76622 0.0
C979 C 0.31163 0.96277 0.67154 0.0
C980 C 0.26071 0.97342 0.72799 0.0
H981 H 0.19036 0.95473 0.73801 0.0
C982 C 0.26552 0.98888 0.75086 0.0
C983 C 0.23286 0.96238 0.72262 0.0
C984 C 0.22665 0.94561 0.69827 0.0
C985 C 0.24365 0.99175 0.76945 0.0
C986 C 0.21665 0.97817 0.76522 0.0
C987 C 0.21111 0.96502 0.74131 0.0
C988 C 0.19588 0.97275 0.78644 0.0
C989 C 0.25009 0.00828 0.79384 0.0
C990 C 0.20514 0.95738 0.80829 0.0
C991 C 0.18505 0.94619 0.82569 0.0
C992 C 0.15529 0.94982 0.82137 0.0
C993 C 0.14605 0.96679 0.80043 0.0
C994 C 0.16622 0.97812 0.78305 0.0
H995 H 0.26518 0.02647 0.78991 0.0
H996 H 0.23008 0.01702 0.80277 0.0
H997 H 0.26085 0.99365 0.80785 0.0
H998 H 0.22779 0.95223 0.811 0.0
H999 H 0.1928 0.93317 0.84163 0.0
H1000 H 0.56503 0.18536 0.83967 0.0
H1001 H 0.54773 0.22163 0.80928 0.0
H1002 H 0.52328 0.15419 0.75603 0.0
H1003 H 0.54158 0.11775 0.78612 0.0
H1004 H 0.55856 0.19051 0.73422 0.0
H1005 H 0.47438 0.25531 0.78226 0.0
H1006 H 0.50538 0.2525 0.80281 0.0
H1007 H 0.48546 0.22033 0.7943 0.0
C1008 C 0.55521 0.17821 0.82181 0.0
C1009 C 0.55492 0.14879 0.81511 0.0
C1010 C 0.54502 0.19899 0.80452 0.0
C1011 C 0.53386 0.19067 0.78044 0.0
C1012 C 0.53168 0.1611 0.77453 0.0
H1013 H 0.53635 0.31082 0.64804 0.0
H1014 H 0.5187 0.27034 0.67435 0.0
C1015 C 0.54219 0.14032 0.79171 0.0
C1016 C 0.52956 0.21275 0.76006 0.0
H1017 H 0.50374 0.28104 0.75007 0.0
C1018 C 0.54582 0.20992 0.73732 0.0
C1019 C 0.51294 0.23807 0.76406 0.0
C1020 C 0.49333 0.24154 0.78709 0.0
C1021 C 0.54786 0.23264 0.71955 0.0
C1022 C 0.53304 0.25878 0.72458 0.0
C1023 C 0.5152 0.26097 0.74639 0.0
C1024 C 0.53927 0.28509 0.70943 0.0
C1025 C 0.56758 0.22933 0.69651 0.0
C1026 C 0.5558 0.30711 0.72073 0.0
C1027 C 0.56593 0.33007 0.70583 0.0
C1028 C 0.55959 0.33144 0.67938 0.0
C1029 C 0.5417 0.31018 0.66836 0.0
C1030 C 0.53161 0.2871 0.68332 0.0
H1031 H 0.58005 0.20877 0.69703 0.0
H1032 H 0.55449 0.2296 0.67858 0.0
H1033 H 0.58308 0.24765 0.69554 0.0
H1034 H 0.56197 0.30584 0.74086 0.0
H1035 H 0.57948 0.34625 0.71489 0.0
H1036 H 0.31595 0.53183 0.84233 0.0
H1037 H 0.27782 0.51195 0.81457 0.0
H1038 H 0.31485 0.55617 0.74916 0.0
H1039 H 0.35283 0.57586 0.77656 0.0
H1040 H 0.23965 0.54748 0.78941 0.0
H1041 H 0.29456 0.4778 0.71828 0.0
H1042 H 0.31094 0.48759 0.74871 0.0
H1043 H 0.31276 0.51186 0.72156 0.0
C1044 C 0.31623 0.53678 0.82191 0.0
C1045 C 0.33718 0.55554 0.81159 0.0
C1046 C 0.29455 0.52534 0.8061 0.0
C1047 C 0.29382 0.53217 0.77973 0.0
C1048 C 0.31543 0.54997 0.76929 0.0
H1049 H 0.19567 0.57415 0.65524 0.0
H1050 H 0.23153 0.55529 0.68533 0.0
C1051 C 0.33693 0.56151 0.78505 0.0
C1052 C 0.26837 0.5248 0.76377 0.0
H1053 H 0.25029 0.50151 0.70351 0.0
C1054 C 0.24162 0.53662 0.77095 0.0
C1055 C 0.2711 0.51055 0.73979 0.0
C1056 C 0.29886 0.49597 0.73177 0.0
C1057 C 0.21829 0.53721 0.7537 0.0
C1058 C 0.22175 0.52499 0.72885 0.0
C1059 C 0.24774 0.51096 0.72252 0.0
C1060 C 0.20067 0.53096 0.70806 0.0
C1061 C 0.19112 0.55317 0.76145 0.0
C1062 C 0.17162 0.52244 0.71016 0.0
C1063 C 0.15096 0.53354 0.69313 0.0
C1064 C 0.15921 0.55298 0.67361 0.0
C1065 C 0.18865 0.5594 0.67022 0.0
C1066 C 0.20919 0.54853 0.68734 0.0
H1067 H 0.19377 0.5651 0.7799 0.0
H1068 H 0.18472 0.56886 0.74627 0.0
H1069 H 0.17319 0.53746 0.76392 0.0
H1070 H 0.16474 0.50842 0.72572 0.0
H1071 H 0.12842 0.52798 0.69599 0.0
H1072 H 0.10086 0.54455 0.05564 0.0
H1073 H 0.07625 0.51681 0.02191 0.0
H1074 H -0.00072 0.56818 0.03289 0.0
H1075 H 0.02383 0.59627 0.06618 0.0
H1076 H 0.02742 0.48398 0.02979 0.0
H1077 H 0.00668 0.56704 0.95492 0.0
H1078 H 0.03235 0.57241 0.98071 0.0
H1079 H 0.99429 0.57758 0.98634 0.0
C1080 C 0.0789 0.55031 0.05046 0.0
C1081 C 0.06426 0.57259 0.06349 0.0
C1082 C 0.06486 0.53441 0.03127 0.0
C1083 C 0.03605 0.54064 0.02475 0.0
C1084 C 0.0217 0.56341 0.03723 0.0
H1085 H 0.90235 0.45967 0.93319 0.0
H1086 H 0.92996 0.48808 0.96459 0.0
C1087 C 0.03572 0.57936 0.05635 0.0
C1088 C 0.02021 0.52188 0.00646 0.0
H1089 H 0.98031 0.52281 0.95111 0.0
C1090 C 0.01735 0.49239 0.01245 0.0
C1091 C 0.007 0.53299 0.98395 0.0
C1092 C 0.01043 0.56418 0.97593 0.0
C1093 C 0.00107 0.4738 0.99678 0.0
C1094 C 0.98756 0.485 0.97449 0.0
C1095 C 0.99057 0.51441 0.96837 0.0
C1096 C 0.97059 0.46646 0.95694 0.0
C1097 C 0.99787 0.44247 0.00445 0.0
C1098 C 0.98435 0.44484 0.94249 0.0
C1099 C 0.9687 0.42865 0.92457 0.0
C1100 C 0.93903 0.43387 0.92082 0.0
C1101 C 0.92515 0.45508 0.93578 0.0
C1102 C 0.94088 0.47137 0.95362 0.0
H1103 H 0.00424 0.43874 0.02484 0.0
H1104 H 0.97521 0.4351 0.00175 0.0
H1105 H 0.01197 0.42896 0.99199 0.0
H1106 H 0.00736 0.44102 0.94458 0.0
H1107 H 0.97998 0.41252 0.91323 0.0
H1108 H 0.03858 0.90287 0.93766 0.0
H1109 H 0.01292 0.93012 0.9711 0.0
H1110 H 0.05356 0.00889 0.94509 0.0
H1111 H 0.07892 0.98191 0.91137 0.0
H1112 H 0.03464 0.96459 0.01108 0.0
H1113 H 0.96727 0.02894 0.94334 0.0
H1114 H 0.98717 0.99726 0.93333 0.0
H1115 H 0.00554 0.03117 0.93768 0.0
C1116 C 0.04211 0.92598 0.93913 0.0
C1117 C 0.06058 0.94032 0.92183 0.0
C1118 C 0.02745 0.9415 0.95821 0.0
C1119 C 0.03097 0.97156 0.96021 0.0
C1120 C 0.05007 0.98579 0.94346 0.0
H1121 H 0.95631 0.09993 0.06368 0.0
H1122 H 0.98404 0.07509 0.02995 0.0
C1123 C 0.06467 0.97032 0.92434 0.0
C1124 C 0.01467 0.98799 0.97991 0.0
H1125 H 0.96403 0.04111 0.9876 0.0
C1126 C 0.01916 0.98128 0.00598 0.0
C1127 C 0.99456 0.0098 0.97312 0.0
C1128 C 0.98809 0.01712 0.94535 0.0
C1129 C 0.0042 0.99598 0.02552 0.0
C1130 C 0.98391 0.01759 0.01872 0.0
C1131 C 0.97963 0.02453 0.99268 0.0
C1132 C 0.96645 0.03276 0.0384 0.0
C1133 C 0.01049 0.98852 0.05329 0.0
C1134 C 0.94694 0.01724 0.05379 0.0
C1135 C 0.93112 0.0313 0.07297 0.0
C1136 C 0.93444 0.06118 0.07698 0.0
C1137 C 0.95337 0.07687 0.06103 0.0
C1138 C 0.96921 0.06275 0.04181 0.0
H1139 H 0.03155 0.97717 0.0554 0.0
H1140 H 0.01077 0.00827 0.06549 0.0
H1141 H 0.99327 0.97398 0.06066 0.0
H1142 H 0.94408 0.99418 0.05106 0.0
H1143 H 0.91657 0.01868 0.08487 0.0
H1144 H 0.48 0.9076 0.07494 0.0
H1145 H 0.50672 0.93553 0.04275 0.0
H1146 H 0.4332 0.99194 0.03287 0.0
H1147 H 0.40637 0.96429 0.06532 0.0
H1148 H 0.49361 0.94852 0.99091 0.0
H1149 H 0.49977 0.04749 0.05155 0.0
H1150 H 0.48954 0.01267 0.06442 0.0
H1151 H 0.4639 0.03371 0.04634 0.0
C1152 C 0.46941 0.92579 0.06574 0.0
C1153 C 0.44117 0.9339 0.07274 0.0
C1154 C 0.48472 0.94172 0.04741 0.0
C1155 C 0.4721 0.96609 0.03587 0.0
C1156 C 0.44348 0.97354 0.042 0.0
H1157 H 0.5321 0.08914 0.92239 0.0
H1158 H 0.50551 0.06329 0.95606 0.0
C1159 C 0.42813 0.95759 0.06035 0.0
C1160 C 0.48915 0.98382 0.01767 0.0
H1161 H 0.51825 0.05102 0.00907 0.0
C1162 C 0.49908 0.9709 0.99487 0.0
C1163 C 0.49623 0.01298 0.02302 0.0
C1164 C 0.48706 0.02755 0.04775 0.0
C1165 C 0.51561 0.98654 0.97701 0.0
C1166 C 0.52278 0.01567 0.98238 0.0
C1167 C 0.51277 0.02864 0.00513 0.0
C1168 C 0.54012 0.03313 0.96421 0.0
C1169 C 0.52478 0.97195 0.95228 0.0
C1170 C 0.56874 0.02537 0.95845 0.0
C1171 C 0.58401 0.0401 0.93927 0.0
C1172 C 0.57085 0.06286 0.92565 0.0
C1173 C 0.54276 0.07163 0.93252 0.0
C1174 C 0.52753 0.05689 0.9517 0.0
H1175 H 0.51208 0.95199 0.94849 0.0
H1176 H 0.52227 0.98682 0.9356 0.0
H1177 H 0.54794 0.96581 0.95367 0.0
H1178 H 0.57897 0.0074 0.96829 0.0
H1179 H 0.60567 0.03295 0.93446 0.0
H1180 H 0.40662 0.52415 0.92358 0.0
H1181 H 0.4355 0.49796 0.95545 0.0
H1182 H 0.49364 0.57064 0.96124 0.0
H1183 H 0.46465 0.59716 0.92959 0.0
H1184 H 0.49394 0.48347 0.94908 0.0
H1185 H 0.47693 0.55042 0.03675 0.0
H1186 H 0.45377 0.55291 0.00881 0.0
H1187 H 0.48854 0.57028 0.00883 0.0
C1188 C 0.42525 0.53477 0.93199 0.0
C1189 C 0.43337 0.56272 0.92416 0.0
C1190 C 0.44176 0.51974 0.9501 0.0
C1191 C 0.46656 0.53244 0.96077 0.0
C1192 C 0.4743 0.56065 0.95353 0.0
H1193 H 0.5965 0.47185 0.06832 0.0
H1194 H 0.57075 0.49797 0.03434 0.0
C1195 C 0.45775 0.57574 0.93543 0.0
C1196 C 0.48524 0.51547 0.97828 0.0
H1197 H 0.51266 0.51376 0.03928 0.0
C1198 C 0.498 0.49001 0.96884 0.0
C1199 C 0.49053 0.52419 0.00395 0.0
C1200 C 0.47655 0.5508 0.01533 0.0
C1201 C 0.51618 0.4731 0.98439 0.0
C1202 C 0.52135 0.48175 0.0101 0.0
C1203 C 0.50873 0.5073 0.01948 0.0
C1204 C 0.53908 0.46427 0.02799 0.0
C1205 C 0.53004 0.44639 0.97309 0.0
C1206 C 0.53012 0.43642 0.03523 0.0
C1207 C 0.54484 0.4214 0.05457 0.0
C1208 C 0.56859 0.43413 0.06709 0.0
C1209 C 0.57827 0.46149 0.059 0.0
C1210 C 0.56356 0.47647 0.03966 0.0
H1211 H 0.5302 0.44702 0.95167 0.0
H1212 H 0.55261 0.44384 0.98006 0.0
H1213 H 0.51755 0.42706 0.97916 0.0
H1214 H 0.51097 0.42685 0.02674 0.0
H1215 H 0.5368 0.40042 0.06052 0.0
H1216 H 0.01675 0.91918 0.40759 0.0
H1217 H 0.98917 0.94659 0.43967 0.0
H1218 H 0.06626 0.99357 0.46059 0.0
H1219 H 0.09402 0.96631 0.4285 0.0
H1220 H 0.00014 0.952 0.4944 0.0
H1221 H 0.00537 0.057 0.44236 0.0
H1222 H 0.01271 0.0228 0.42683 0.0
H1223 H 0.03954 0.03919 0.44716 0.0
C1224 C 0.02785 0.93526 0.41911 0.0
C1225 C 0.05749 0.94072 0.41551 0.0
C1226 C 0.01208 0.95088 0.43737 0.0
C1227 C 0.02564 0.97235 0.45212 0.0
C1228 C 0.05536 0.97739 0.44903 0.0
H1229 H 0.97746 0.09056 0.57203 0.0
H1230 H 0.00028 0.06406 0.5367 0.0
C1231 C 0.0712 0.96169 0.43084 0.0
C1232 C 0.0087 0.98938 0.47089 0.0
H1233 H 0.98597 0.05789 0.48471 0.0
C1234 C 0.99682 0.97511 0.49226 0.0
C1235 C 0.00448 0.01947 0.46788 0.0
C1236 C 0.01596 0.03558 0.44472 0.0
C1237 C 0.9815 0.99037 0.51124 0.0
C1238 C 0.97748 0.02055 0.50836 0.0
C1239 C 0.98905 0.03473 0.48677 0.0
C1240 C 0.96259 0.03799 0.52823 0.0
C1241 C 0.97065 0.97423 0.53462 0.0
C1242 C 0.93356 0.0327 0.53459 0.0
C1243 C 0.92046 0.04776 0.55484 0.0
C1244 C 0.93619 0.06847 0.56886 0.0
C1245 C 0.96483 0.07466 0.56162 0.0
C1246 C 0.9779 0.05956 0.54145 0.0
H1247 H 0.98124 0.95277 0.53672 0.0
H1248 H 0.97445 0.98691 0.55249 0.0
H1249 H 0.94701 0.97063 0.5327 0.0
H1250 H 0.92121 0.01655 0.52421 0.0
H1251 H 0.89831 0.04267 0.55992 0.0
H1252 H 0.54331 0.1024 0.43796 0.0
H1253 H 0.51587 0.07845 0.47226 0.0
H1254 H 0.56825 0.00187 0.4632 0.0
H1255 H 0.59591 0.02568 0.42913 0.0
H1256 H 0.48426 0.02759 0.46358 0.0
H1257 H 0.56485 0.01213 0.54167 0.0
H1258 H 0.56994 0.03783 0.51582 0.0
H1259 H 0.57689 2e-05 0.51056 0.0
C1260 C 0.54941 0.0807 0.4437 0.0
C1261 C 0.5717 0.06587 0.43087 0.0
C1262 C 0.53367 0.06705 0.46322 0.0
C1263 C 0.54019 0.0385 0.47034 0.0
C1264 C 0.56322 0.02409 0.45829 0.0
H1265 H 0.46144 0.90647 0.56521 0.0
H1266 H 0.49044 0.9338 0.53408 0.0
C1267 C 0.57892 0.03769 0.43876 0.0
C1268 C 0.52122 0.02277 0.4885 0.0
H1269 H 0.521 0.9853 0.54517 0.0
C1270 C 0.49218 0.01856 0.48155 0.0
C1271 C 0.53176 0.01087 0.51177 0.0
C1272 C 0.5625 0.01562 0.52057 0.0
C1273 C 0.47348 0.00217 0.49703 0.0
C1274 C 0.48406 0.99011 0.52022 0.0
C1275 C 0.51304 0.99449 0.52727 0.0
C1276 C 0.46532 0.97312 0.53764 0.0
C1277 C 0.44279 0.99727 0.48811 0.0
C1278 C 0.44151 0.98617 0.54972 0.0
C1279 C 0.42488 0.97061 0.56739 0.0
C1280 C 0.43192 0.9418 0.57338 0.0
C1281 C 0.45543 0.92859 0.56086 0.0
C1282 C 0.47207 0.94418 0.54319 0.0
H1283 H 0.44026 0.00163 0.46716 0.0
H1284 H 0.43581 0.97472 0.49208 0.0
H1285 H 0.42813 0.0121 0.49872 0.0
H1286 H 0.43627 0.00863 0.546 0.0
H1287 H 0.40701 0.98141 0.57689 0.0
H1288 H 0.59986 0.45661 0.55836 0.0
H1289 H 0.57406 0.48392 0.52495 0.0
H1290 H 0.49732 0.43329 0.53896 0.0
H1291 H 0.52282 0.40593 0.57231 0.0
H1292 H 0.54188 0.4625 0.47901 0.0
H1293 H 0.47378 0.52026 0.55094 0.0
H1294 H 0.50714 0.50229 0.55949 0.0
H1295 H 0.47494 0.48151 0.55393 0.0
C1296 C 0.5776 0.45108 0.55409 0.0
C1297 C 0.56328 0.42928 0.56802 0.0
C1298 C 0.56293 0.46669 0.53506 0.0
C1299 C 0.53374 0.46083 0.52988 0.0
C1300 C 0.51975 0.43833 0.54301 0.0
H1301 H 0.40015 0.53548 0.43452 0.0
H1302 H 0.42854 0.50848 0.4663 0.0
C1303 C 0.5344 0.42266 0.56194 0.0
C1304 C 0.51756 0.47876 0.51127 0.0
H1305 H 0.46232 0.52751 0.50696 0.0
C1306 C 0.52458 0.47685 0.48504 0.0
C1307 C 0.49503 0.49735 0.51936 0.0
C1308 C 0.48731 0.50077 0.54748 0.0
C1309 C 0.50908 0.4926 0.46649 0.0
C1310 C 0.48648 0.51119 0.47457 0.0
C1311 C 0.47965 0.51323 0.50086 0.0
C1312 C 0.46932 0.52839 0.456 0.0
C1313 C 0.51649 0.48856 0.43837 0.0
C1314 C 0.48276 0.54902 0.4402 0.0
C1315 C 0.46664 0.56437 0.422 0.0
C1316 C 0.43675 0.55955 0.41952 0.0
C1317 C 0.42315 0.53962 0.436 0.0
C1318 C 0.43933 0.52418 0.45411 0.0
H1319 H 0.52887 0.46828 0.43505 0.0
H1320 H 0.49664 0.48805 0.42632 0.0
H1321 H 0.53007 0.50694 0.43183 0.0
H1322 H 0.50577 0.55309 0.4418 0.0
H1323 H 0.47765 0.57975 0.40966 0.0
H1324 H 0.90879 0.4742 0.42403 0.0
H1325 H 0.93613 0.49699 0.4588 0.0
H1326 H 0.98512 0.41844 0.46942 0.0
H1327 H 0.95814 0.39556 0.43422 0.0
H1328 H 0.94432 0.48247 0.51041 0.0
H1329 H 0.04767 0.47924 0.45549 0.0
H1330 H 0.01311 0.47208 0.44065 0.0
H1331 H 0.03036 0.44483 0.46 0.0
C1332 C 0.92518 0.46165 0.43393 0.0
C1333 C 0.93154 0.43319 0.42628 0.0
C1334 C 0.94077 0.47471 0.45378 0.0
C1335 C 0.96299 0.45957 0.46629 0.0
C1336 C 0.96845 0.43066 0.45959 0.0
H1337 H 0.08385 0.5179 0.58418 0.0
H1338 H 0.05673 0.48894 0.55288 0.0
C1339 C 0.9529 0.41757 0.43964 0.0
C1340 C 0.98094 0.47456 0.48572 0.0
H1341 H 0.04948 0.4987 0.49754 0.0
C1342 C 0.96732 0.48595 0.50766 0.0
C1343 C 0.01093 0.47911 0.48196 0.0
C1344 C 0.02642 0.46842 0.45817 0.0
C1345 C 0.98292 0.50186 0.52599 0.0
C1346 C 0.01278 0.50672 0.52204 0.0
C1347 C 0.02654 0.49489 0.50039 0.0
C1348 C 0.02997 0.52451 0.54001 0.0
C1349 C 0.96742 0.51327 0.54949 0.0
C1350 C 0.0243 0.55418 0.54253 0.0
C1351 C 0.03983 0.5708 0.56023 0.0
C1352 C 0.06123 0.55794 0.57568 0.0
C1353 C 0.06743 0.52837 0.57255 0.0
C1354 C 0.05197 0.5118 0.55475 0.0
H1355 H 0.94633 0.50227 0.55257 0.0
H1356 H 0.98091 0.51049 0.56703 0.0
H1357 H 0.96321 0.53674 0.54695 0.0
H1358 H 0.00766 0.5644 0.53097 0.0
H1359 H 0.03463 0.59355 0.56221 0.0
loop_
_geom_bond_atom_site_label_1
_geom_bond_atom_site_label_2
_geom_bond_distance
_geom_bond_site_symmetry_2
_ccdc_geom_bond_type
In0 O1 2.294 . S
In0 O2 2.326 . S
In0 O6 2.266 . S
In0 O7 2.326 . S
In0 O8 2.266 . S
In0 O9 2.326 . S
In0 O11 2.294 . S
In0 O12 2.326 . S
O1 In0 2.294 . S
O1 C10 1.240 . S
O2 In0 2.326 . S
O2 C10 1.252 . S
C3 O6 1.252 . S
C3 O7 1.260 . S
C4 O11 1.240 . S
C4 O12 1.252 . S
C5 O8 1.252 . S
C5 O9 1.260 . S
O6 In0 2.266 . S
O6 C3 1.252 . S
O7 In0 2.326 . S
O7 C3 1.260 . S
O8 In0 2.266 . S
O8 C5 1.252 . S
O9 In0 2.326 . S
O9 C5 1.260 . S
C10 O1 1.240 . S
C10 O2 1.252 . S
O11 In0 2.294 . S
O11 C4 1.240 . S
O12 In0 2.326 . S
O12 C4 1.252 . S
In13 O14 2.294 . S
In13 O15 2.326 . S
In13 O19 2.266 . S
In13 O20 2.326 . S
In13 O21 2.266 . S
In13 O22 2.326 . S
In13 O24 2.294 . S
In13 O25 2.326 . S
O14 In13 2.294 . S
O14 C23 1.240 . S
O15 In13 2.326 . S
O15 C23 1.252 . S
C16 O19 1.252 . S
C16 O20 1.260 . S
C17 O24 1.240 . S
C17 O25 1.252 . S
C18 O21 1.252 . S
C18 O22 1.260 . S
O19 In13 2.266 . S
O19 C16 1.252 . S
O20 In13 2.326 . S
O20 C16 1.260 . S
O21 In13 2.266 . S
O21 C18 1.252 . S
O22 In13 2.326 . S
O22 C18 1.260 . S
C23 O14 1.240 . S
C23 O15 1.252 . S
O24 In13 2.294 . S
O24 C17 1.240 . S
O25 In13 2.326 . S
O25 C17 1.252 . S
In26 O27 2.294 . S
In26 O28 2.326 . S
In26 O32 2.266 . S
In26 O33 2.326 . S
In26 O34 2.266 . S
In26 O35 2.326 . S
In26 O37 2.294 . S
In26 O38 2.326 . S
O27 In26 2.294 . S
O27 C36 1.240 . S
O28 In26 2.326 . S
O28 C36 1.252 . S
C29 O32 1.252 . S
C29 O33 1.260 . S
C30 O37 1.240 . S
C30 O38 1.252 . S
C31 O34 1.252 . S
C31 O35 1.260 . S
O32 In26 2.266 . S
O32 C29 1.252 . S
O33 In26 2.326 . S
O33 C29 1.260 . S
O34 In26 2.266 . S
O34 C31 1.252 . S
O35 In26 2.326 . S
O35 C31 1.260 . S
C36 O27 1.240 . S
C36 O28 1.252 . S
O37 In26 2.294 . S
O37 C30 1.240 . S
O38 In26 2.326 . S
O38 C30 1.252 . S
In39 O40 2.294 . S
In39 O41 2.326 . S
In39 O45 2.266 . S
In39 O46 2.326 . S
In39 O47 2.266 . S
In39 O48 2.326 . S
In39 O50 2.294 . S
In39 O51 2.326 . S
O40 In39 2.294 . S
O40 C49 1.240 . S
O41 In39 2.326 . S
O41 C49 1.252 . S
C42 O45 1.252 . S
C42 O46 1.260 . S
C43 O50 1.240 . S
C43 O51 1.252 . S
C44 O47 1.252 . S
C44 O48 1.260 . S
O45 In39 2.266 . S
O45 C42 1.252 . S
O46 In39 2.326 . S
O46 C42 1.260 . S
O47 In39 2.266 . S
O47 C44 1.252 . S
O48 In39 2.326 . S
O48 C44 1.260 . S
C49 O40 1.240 . S
C49 O41 1.252 . S
O50 In39 2.294 . S
O50 C43 1.240 . S
O51 In39 2.326 . S
O51 C43 1.252 . S
In52 O53 2.294 . S
In52 O54 2.326 . S
In52 O58 2.266 . S
In52 O59 2.326 . S
In52 O60 2.266 . S
In52 O61 2.326 . S
In52 O63 2.294 . S
In52 O64 2.326 . S
O53 In52 2.294 . S
O53 C62 1.240 . S
O54 In52 2.326 . S
O54 C62 1.252 . S
C55 O58 1.252 . S
C55 O59 1.260 . S
C56 O63 1.240 . S
C56 O64 1.252 . S
C57 O60 1.252 . S
C57 O61 1.260 . S
O58 In52 2.266 . S
O58 C55 1.252 . S
O59 In52 2.326 . S
O59 C55 1.260 . S
O60 In52 2.266 . S
O60 C57 1.252 . S
O61 In52 2.326 . S
O61 C57 1.260 . S
C62 O53 1.240 . S
C62 O54 1.252 . S
O63 In52 2.294 . S
O63 C56 1.240 . S
O64 In52 2.326 . S
O64 C56 1.252 . S
In65 O66 2.294 . S
In65 O67 2.326 . S
In65 O71 2.266 . S
In65 O72 2.326 . S
In65 O73 2.266 . S
In65 O74 2.326 . S
In65 O76 2.294 . S
In65 O77 2.326 . S
O66 In65 2.294 . S
O66 C75 1.240 . S
O67 In65 2.326 . S
O67 C75 1.252 . S
C68 O71 1.252 . S
C68 O72 1.260 . S
C69 O76 1.240 . S
C69 O77 1.252 . S
C70 O73 1.252 . S
C70 O74 1.260 . S
O71 In65 2.266 . S
O71 C68 1.252 . S
O72 In65 2.326 . S
O72 C68 1.260 . S
O73 In65 2.266 . S
O73 C70 1.252 . S
O74 In65 2.326 . S
O74 C70 1.260 . S
C75 O66 1.240 . S
C75 O67 1.252 . S
O76 In65 2.294 . S
O76 C69 1.240 . S
O77 In65 2.326 . S
O77 C69 1.252 . S
In78 O79 2.294 . S
In78 O80 2.326 . S
In78 O84 2.266 . S
In78 O85 2.326 . S
In78 O86 2.266 . S
In78 O87 2.326 . S
In78 O89 2.294 . S
In78 O90 2.326 . S
O79 In78 2.294 . S
O79 C88 1.240 . S
O80 In78 2.326 . S
O80 C88 1.252 . S
C81 O84 1.252 . S
C81 O85 1.260 . S
C82 O89 1.240 . S
C82 O90 1.252 . S
C83 O86 1.252 . S
C83 O87 1.260 . S
O84 In78 2.266 . S
O84 C81 1.252 . S
O85 In78 2.326 . S
O85 C81 1.260 . S
O86 In78 2.266 . S
O86 C83 1.252 . S
O87 In78 2.326 . S
O87 C83 1.260 . S
C88 O79 1.240 . S
C88 O80 1.252 . S
O89 In78 2.294 . S
O89 C82 1.240 . S
O90 In78 2.326 . S
O90 C82 1.252 . S
In91 O92 2.294 . S
In91 O93 2.326 . S
In91 O97 2.266 . S
In91 O98 2.326 . S
In91 O99 2.266 . S
In91 O100 2.326 . S
In91 O102 2.294 . S
In91 O103 2.326 . S
O92 In91 2.294 . S
O92 C101 1.240 . S
O93 In91 2.326 . S
O93 C101 1.252 . S
C94 O97 1.252 . S
C94 O98 1.260 . S
C95 O102 1.240 . S
C95 O103 1.252 . S
C96 O99 1.252 . S
C96 O100 1.260 . S
O97 In91 2.266 . S
O97 C94 1.252 . S
O98 In91 2.326 . S
O98 C94 1.260 . S
O99 In91 2.266 . S
O99 C96 1.252 . S
O100 In91 2.326 . S
O100 C96 1.260 . S
C101 O92 1.240 . S
C101 O93 1.252 . S
O102 In91 2.294 . S
O102 C95 1.240 . S
O103 In91 2.326 . S
O103 C95 1.252 . S
In104 O105 2.294 . S
In104 O106 2.326 . S
In104 O110 2.266 . S
In104 O111 2.326 . S
In104 O112 2.266 . S
In104 O113 2.326 . S
In104 O115 2.294 . S
In104 O116 2.326 . S
O105 In104 2.294 . S
O105 C114 1.240 . S
O106 In104 2.326 . S
O106 C114 1.252 . S
C107 O110 1.252 . S
C107 O111 1.260 . S
C108 O115 1.240 . S
C108 O116 1.252 . S
C109 O112 1.252 . S
C109 O113 1.260 . S
O110 In104 2.266 . S
O110 C107 1.252 . S
O111 In104 2.326 . S
O111 C107 1.260 . S
O112 In104 2.266 . S
O112 C109 1.252 . S
O113 In104 2.326 . S
O113 C109 1.260 . S
C114 O105 1.240 . S
C114 O106 1.252 . S
O115 In104 2.294 . S
O115 C108 1.240 . S
O116 In104 2.326 . S
O116 C108 1.252 . S
In117 O118 2.294 . S
In117 O119 2.326 . S
In117 O123 2.266 . S
In117 O124 2.326 . S
In117 O125 2.266 . S
In117 O126 2.326 . S
In117 O128 2.294 . S
In117 O129 2.326 . S
O118 In117 2.294 . S
O118 C127 1.240 . S
O119 In117 2.326 . S
O119 C127 1.252 . S
C120 O123 1.252 . S
C120 O124 1.260 . S
C121 O128 1.240 . S
C121 O129 1.252 . S
C122 O125 1.252 . S
C122 O126 1.260 . S
O123 In117 2.266 . S
O123 C120 1.252 . S
O124 In117 2.326 . S
O124 C120 1.260 . S
O125 In117 2.266 . S
O125 C122 1.252 . S
O126 In117 2.326 . S
O126 C122 1.260 . S
C127 O118 1.240 . S
C127 O119 1.252 . S
O128 In117 2.294 . S
O128 C121 1.240 . S
O129 In117 2.326 . S
O129 C121 1.252 . S
In130 O131 2.294 . S
In130 O132 2.326 . S
In130 O136 2.266 . S
In130 O137 2.326 . S
In130 O138 2.266 . S
In130 O139 2.326 . S
In130 O141 2.294 . S
In130 O142 2.326 . S
O131 In130 2.294 . S
O131 C140 1.240 . S
O132 In130 2.326 . S
O132 C140 1.252 . S
C133 O136 1.252 . S
C133 O137 1.260 . S
C134 O141 1.240 . S
C134 O142 1.252 . S
C135 O138 1.252 . S
C135 O139 1.260 . S
O136 In130 2.266 . S
O136 C133 1.252 . S
O137 In130 2.326 . S
O137 C133 1.260 . S
O138 In130 2.266 . S
O138 C135 1.252 . S
O139 In130 2.326 . S
O139 C135 1.260 . S
C140 O131 1.240 . S
C140 O132 1.252 . S
O141 In130 2.294 . S
O141 C134 1.240 . S
O142 In130 2.326 . S
O142 C134 1.252 . S
In143 O144 2.294 . S
In143 O145 2.326 . S
In143 O149 2.266 . S
In143 O150 2.326 . S
In143 O151 2.266 . S
In143 O152 2.326 . S
In143 O154 2.294 . S
In143 O155 2.326 . S
O144 In143 2.294 . S
O144 C153 1.240 . S
O145 In143 2.326 . S
O145 C153 1.252 . S
C146 O149 1.252 . S
C146 O150 1.260 . S
C147 O154 1.240 . S
C147 O155 1.252 . S
C148 O151 1.252 . S
C148 O152 1.260 . S
O149 In143 2.266 . S
O149 C146 1.252 . S
O150 In143 2.326 . S
O150 C146 1.260 . S
O151 In143 2.266 . S
O151 C148 1.252 . S
O152 In143 2.326 . S
O152 C148 1.260 . S
C153 O144 1.240 . S
C153 O145 1.252 . S
O154 In143 2.294 . S
O154 C147 1.240 . S
O155 In143 2.326 . S
O155 C147 1.252 . S
In156 O157 2.294 . S
In156 O158 2.326 . S
In156 O162 2.266 . S
In156 O163 2.326 . S
In156 O164 2.266 . S
In156 O165 2.326 . S
In156 O167 2.294 . S
In156 O168 2.326 . S
O157 In156 2.294 . S
O157 C166 1.240 . S
O158 In156 2.326 . S
O158 C166 1.252 . S
C159 O162 1.252 . S
C159 O163 1.260 . S
C160 O167 1.240 . S
C160 O168 1.252 . S
C161 O164 1.252 . S
C161 O165 1.260 . S
O162 In156 2.266 . S
O162 C159 1.252 . S
O163 In156 2.326 . S
O163 C159 1.260 . S
O164 In156 2.266 . S
O164 C161 1.252 . S
O165 In156 2.326 . S
O165 C161 1.260 . S
C166 O157 1.240 . S
C166 O158 1.252 . S
O167 In156 2.294 . S
O167 C160 1.240 . S
O168 In156 2.326 . S
O168 C160 1.252 . S
In169 O170 2.294 . S
In169 O171 2.326 . S
In169 O175 2.266 . S
In169 O176 2.326 . S
In169 O177 2.266 . S
In169 O178 2.326 . S
In169 O180 2.294 . S
In169 O181 2.326 . S
O170 In169 2.294 . S
O170 C179 1.240 . S
O171 In169 2.326 . S
O171 C179 1.252 . S
C172 O175 1.252 . S
C172 O176 1.260 . S
C173 O180 1.240 . S
C173 O181 1.252 . S
C174 O177 1.252 . S
C174 O178 1.260 . S
O175 In169 2.266 . S
O175 C172 1.252 . S
O176 In169 2.326 . S
O176 C172 1.260 . S
O177 In169 2.266 . S
O177 C174 1.252 . S
O178 In169 2.326 . S
O178 C174 1.260 . S
C179 O170 1.240 . S
C179 O171 1.252 . S
O180 In169 2.294 . S
O180 C173 1.240 . S
O181 In169 2.326 . S
O181 C173 1.252 . S
In182 O183 2.294 . S
In182 O184 2.326 . S
In182 O188 2.266 . S
In182 O189 2.326 . S
In182 O190 2.266 . S
In182 O191 2.326 . S
In182 O193 2.294 . S
In182 O194 2.326 . S
O183 In182 2.294 . S
O183 C192 1.240 . S
O184 In182 2.326 . S
O184 C192 1.252 . S
C185 O188 1.252 . S
C185 O189 1.260 . S
C186 O193 1.240 . S
C186 O194 1.252 . S
C187 O190 1.252 . S
C187 O191 1.260 . S
O188 In182 2.266 . S
O188 C185 1.252 . S
O189 In182 2.326 . S
O189 C185 1.260 . S
O190 In182 2.266 . S
O190 C187 1.252 . S
O191 In182 2.326 . S
O191 C187 1.260 . S
C192 O183 1.240 . S
C192 O184 1.252 . S
O193 In182 2.294 . S
O193 C186 1.240 . S
O194 In182 2.326 . S
O194 C186 1.252 . S
In195 O196 2.294 . S
In195 O197 2.326 . S
In195 O201 2.266 . S
In195 O202 2.326 . S
In195 O203 2.266 . S
In195 O204 2.326 . S
In195 O206 2.294 . S
In195 O207 2.326 . S
O196 In195 2.294 . S
O196 C205 1.240 . S
O197 In195 2.326 . S
O197 C205 1.252 . S
C198 O201 1.252 . S
C198 O202 1.260 . S
C199 O206 1.240 . S
C199 O207 1.252 . S
C200 O203 1.252 . S
C200 O204 1.260 . S
O201 In195 2.266 . S
O201 C198 1.252 . S
O202 In195 2.326 . S
O202 C198 1.260 . S
O203 In195 2.266 . S
O203 C200 1.252 . S
O204 In195 2.326 . S
O204 C200 1.260 . S
C205 O196 1.240 . S
C205 O197 1.252 . S
O206 In195 2.294 . S
O206 C199 1.240 . S
O207 In195 2.326 . S
O207 C199 1.252 . S
H208 C216 0.929 . S
H209 C218 0.930 . S
H210 C220 0.930 . S
H211 C223 0.929 . S
H212 C226 0.930 . S
H213 C228 0.960 . S
H214 C228 0.960 . S
H215 C228 0.960 . S
C216 H208 0.929 . S
C216 C217 1.377 . S
C216 C218 1.384 . S
C217 C216 1.377 . S
C217 C223 1.390 . S
C218 H209 0.930 . S
C218 C216 1.384 . S
C218 C219 1.372 . S
C219 C218 1.372 . S
C219 C220 1.400 . S
C219 C224 1.490 . S
C220 H210 0.930 . S
C220 C219 1.400 . S
C220 C223 1.386 . S
H221 C237 0.930 . S
H222 C238 0.931 . S
C223 H211 0.929 . S
C223 C217 1.390 . S
C223 C220 1.386 . S
C224 C219 1.490 . S
C224 C226 1.395 . S
C224 C227 1.403 . S
H225 C231 0.930 . S
C226 H212 0.930 . S
C226 C224 1.395 . S
C226 C229 1.403 . S
C227 C224 1.403 . S
C227 C228 1.524 . S
C227 C231 1.400 . S
C228 H213 0.960 . S
C228 H214 0.960 . S
C228 H215 0.960 . S
C228 C227 1.524 . S
C229 C226 1.403 . S
C229 C230 1.392 . S
C229 C233 1.495 . S
C230 C229 1.392 . S
C230 C231 1.385 . S
C230 C232 1.478 . S
C231 H225 0.930 . S
C231 C227 1.400 . S
C231 C230 1.385 . S
C232 C230 1.478 . S
C232 C234 1.381 . S
C232 C238 1.383 . S
C233 C229 1.495 . S
C233 H239 0.959 . S
C233 H240 0.961 . S
C233 H241 0.960 . S
C234 C232 1.381 . S
C234 C235 1.394 . S
C234 H242 0.930 . S
C235 C234 1.394 . S
C235 C236 1.383 . S
C235 H243 0.929 . S
C236 C235 1.383 . S
C236 C237 1.377 . S
C237 H221 0.930 . S
C237 C236 1.377 . S
C237 C238 1.379 . S
C238 H222 0.931 . S
C238 C232 1.383 . S
C238 C237 1.379 . S
H239 C233 0.959 . S
H240 C233 0.961 . S
H241 C233 0.960 . S
H242 C234 0.930 . S
H243 C235 0.929 . S
H244 C252 0.929 . S
H245 C254 0.930 . S
H246 C256 0.930 . S
H247 C259 0.929 . S
H248 C262 0.930 . S
H249 C264 0.960 . S
H250 C264 0.960 . S
H251 C264 0.960 . S
C252 H244 0.929 . S
C252 C253 1.377 . S
C252 C254 1.384 . S
C253 C252 1.377 . S
C253 C259 1.390 . S
C254 H245 0.930 . S
C254 C252 1.384 . S
C254 C255 1.372 . S
C255 C254 1.372 . S
C255 C256 1.400 . S
C255 C260 1.490 . S
C256 H246 0.930 . S
C256 C255 1.400 . S
C256 C259 1.386 . S
H257 C273 0.930 . S
H258 C274 0.931 . S
C259 H247 0.929 . S
C259 C253 1.390 . S
C259 C256 1.386 . S
C260 C255 1.490 . S
C260 C262 1.395 . S
C260 C263 1.403 . S
H261 C267 0.930 . S
C262 H248 0.930 . S
C262 C260 1.395 . S
C262 C265 1.403 . S
C263 C260 1.403 . S
C263 C264 1.524 . S
C263 C267 1.400 . S
C264 H249 0.960 . S
C264 H250 0.960 . S
C264 H251 0.960 . S
C264 C263 1.524 . S
C265 C262 1.403 . S
C265 C266 1.392 . S
C265 C269 1.495 . S
C266 C265 1.392 . S
C266 C267 1.385 . S
C266 C268 1.478 . S
C267 H261 0.930 . S
C267 C263 1.400 . S
C267 C266 1.385 . S
C268 C266 1.478 . S
C268 C270 1.381 . S
C268 C274 1.383 . S
C269 C265 1.495 . S
C269 H275 0.959 . S
C269 H276 0.961 . S
C269 H277 0.960 . S
C270 C268 1.381 . S
C270 C271 1.394 . S
C270 H278 0.930 . S
C271 C270 1.394 . S
C271 C272 1.383 . S
C271 H279 0.929 . S
C272 C271 1.383 . S
C272 C273 1.377 . S
C273 H257 0.930 . S
C273 C272 1.377 . S
C273 C274 1.379 . S
C274 H258 0.931 . S
C274 C268 1.383 . S
C274 C273 1.379 . S
H275 C269 0.959 . S
H276 C269 0.961 . S
H277 C269 0.960 . S
H278 C270 0.930 . S
H279 C271 0.929 . S
H280 C288 0.929 . S
H281 C290 0.930 . S
H282 C292 0.930 . S
H283 C295 0.929 . S
H284 C298 0.930 . S
H285 C300 0.960 . S
H286 C300 0.960 . S
H287 C300 0.960 . S
C288 H280 0.929 . S
C288 C289 1.377 . S
C288 C290 1.384 . S
C289 C288 1.377 . S
C289 C295 1.390 . S
C290 H281 0.930 . S
C290 C288 1.384 . S
C290 C291 1.372 . S
C291 C290 1.372 . S
C291 C292 1.400 . S
C291 C296 1.490 . S
C292 H282 0.930 . S
C292 C291 1.400 . S
C292 C295 1.386 . S
H293 C309 0.930 . S
H294 C310 0.931 . S
C295 H283 0.929 . S
C295 C289 1.390 . S
C295 C292 1.386 . S
C296 C291 1.490 . S
C296 C298 1.395 . S
C296 C299 1.403 . S
H297 C303 0.930 . S
C298 H284 0.930 . S
C298 C296 1.395 . S
C298 C301 1.403 . S
C299 C296 1.403 . S
C299 C300 1.524 . S
C299 C303 1.400 . S
C300 H285 0.960 . S
C300 H286 0.960 . S
C300 H287 0.960 . S
C300 C299 1.524 . S
C301 C298 1.403 . S
C301 C302 1.392 . S
C301 C305 1.495 . S
C302 C301 1.392 . S
C302 C303 1.385 . S
C302 C304 1.478 . S
C303 H297 0.930 . S
C303 C299 1.400 . S
C303 C302 1.385 . S
C304 C302 1.478 . S
C304 C306 1.381 . S
C304 C310 1.383 . S
C305 C301 1.495 . S
C305 H311 0.959 . S
C305 H312 0.961 . S
C305 H313 0.960 . S
C306 C304 1.381 . S
C306 C307 1.394 . S
C306 H314 0.930 . S
C307 C306 1.394 . S
C307 C308 1.383 . S
C307 H315 0.929 . S
C308 C307 1.383 . S
C308 C309 1.377 . S
C309 H293 0.930 . S
C309 C308 1.377 . S
C309 C310 1.379 . S
C310 H294 0.931 . S
C310 C304 1.383 . S
C310 C309 1.379 . S
H311 C305 0.959 . S
H312 C305 0.961 . S
H313 C305 0.960 . S
H314 C306 0.930 . S
H315 C307 0.929 . S
H316 C324 0.929 . S
H317 C326 0.930 . S
H318 C328 0.930 . S
H319 C331 0.929 . S
H320 C334 0.930 . S
H321 C336 0.960 . S
H322 C336 0.960 . S
H323 C336 0.960 . S
C324 H316 0.929 . S
C324 C325 1.377 . S
C324 C326 1.384 . S
C325 C324 1.377 . S
C325 C331 1.390 . S
C326 H317 0.930 . S
C326 C324 1.384 . S
C326 C327 1.372 . S
C327 C326 1.372 . S
C327 C328 1.400 . S
C327 C332 1.490 . S
C328 H318 0.930 . S
C328 C327 1.400 . S
C328 C331 1.386 . S
H329 C345 0.930 . S
H330 C346 0.931 . S
C331 H319 0.929 . S
C331 C325 1.390 . S
C331 C328 1.386 . S
C332 C327 1.490 . S
C332 C334 1.395 . S
C332 C335 1.403 . S
H333 C339 0.930 . S
C334 H320 0.930 . S
C334 C332 1.395 . S
C334 C337 1.403 . S
C335 C332 1.403 . S
C335 C336 1.524 . S
C335 C339 1.400 . S
C336 H321 0.960 . S
C336 H322 0.960 . S
C336 H323 0.960 . S
C336 C335 1.524 . S
C337 C334 1.403 . S
C337 C338 1.392 . S
C337 C341 1.495 . S
C338 C337 1.392 . S
C338 C339 1.385 . S
C338 C340 1.478 . S
C339 H333 0.930 . S
C339 C335 1.400 . S
C339 C338 1.385 . S
C340 C338 1.478 . S
C340 C342 1.381 . S
C340 C346 1.383 . S
C341 C337 1.495 . S
C341 H347 0.959 . S
C341 H348 0.961 . S
C341 H349 0.960 . S
C342 C340 1.381 . S
C342 C343 1.394 . S
C342 H350 0.930 . S
C343 C342 1.394 . S
C343 C344 1.383 . S
C343 H351 0.929 . S
C344 C343 1.383 . S
C344 C345 1.377 . S
C345 H329 0.930 . S
C345 C344 1.377 . S
C345 C346 1.379 . S
C346 H330 0.931 . S
C346 C340 1.383 . S
C346 C345 1.379 . S
H347 C341 0.959 . S
H348 C341 0.961 . S
H349 C341 0.960 . S
H350 C342 0.930 . S
H351 C343 0.929 . S
H352 C360 0.929 . S
H353 C362 0.930 . S
H354 C364 0.930 . S
H355 C367 0.929 . S
H356 C370 0.930 . S
H357 C372 0.960 . S
H358 C372 0.960 . S
H359 C372 0.960 . S
C360 H352 0.929 . S
C360 C361 1.377 . S
C360 C362 1.384 . S
C361 C360 1.377 . S
C361 C367 1.390 . S
C362 H353 0.930 . S
C362 C360 1.384 . S
C362 C363 1.372 . S
C363 C362 1.372 . S
C363 C364 1.400 . S
C363 C368 1.490 . S
C364 H354 0.930 . S
C364 C363 1.400 . S
C364 C367 1.386 . S
H365 C381 0.930 . S
H366 C382 0.931 . S
C367 H355 0.929 . S
C367 C361 1.390 . S
C367 C364 1.386 . S
C368 C363 1.490 . S
C368 C370 1.395 . S
C368 C371 1.403 . S
H369 C375 0.930 . S
C370 H356 0.930 . S
C370 C368 1.395 . S
C370 C373 1.403 . S
C371 C368 1.403 . S
C371 C372 1.524 . S
C371 C375 1.400 . S
C372 H357 0.960 . S
C372 H358 0.960 . S
C372 H359 0.960 . S
C372 C371 1.524 . S
C373 C370 1.403 . S
C373 C374 1.392 . S
C373 C377 1.495 . S
C374 C373 1.392 . S
C374 C375 1.385 . S
C374 C376 1.478 . S
C375 H369 0.930 . S
C375 C371 1.400 . S
C375 C374 1.385 . S
C376 C374 1.478 . S
C376 C378 1.381 . S
C376 C382 1.383 . S
C377 C373 1.495 . S
C377 H383 0.959 . S
C377 H384 0.961 . S
C377 H385 0.960 . S
C378 C376 1.381 . S
C378 C379 1.394 . S
C378 H386 0.930 . S
C379 C378 1.394 . S
C379 C380 1.383 . S
C379 H387 0.929 . S
C380 C379 1.383 . S
C380 C381 1.377 . S
C381 H365 0.930 . S
C381 C380 1.377 . S
C381 C382 1.379 . S
C382 H366 0.931 . S
C382 C376 1.383 . S
C382 C381 1.379 . S
H383 C377 0.959 . S
H384 C377 0.961 . S
H385 C377 0.960 . S
H386 C378 0.930 . S
H387 C379 0.929 . S
H388 C396 0.929 . S
H389 C398 0.930 . S
H390 C400 0.930 . S
H391 C403 0.929 . S
H392 C406 0.930 . S
H393 C408 0.960 . S
H394 C408 0.960 . S
H395 C408 0.960 . S
C396 H388 0.929 . S
C396 C397 1.377 . S
C396 C398 1.384 . S
C397 C396 1.377 . S
C397 C403 1.390 . S
C398 H389 0.930 . S
C398 C396 1.384 . S
C398 C399 1.372 . S
C399 C398 1.372 . S
C399 C400 1.400 . S
C399 C404 1.490 . S
C400 H390 0.930 . S
C400 C399 1.400 . S
C400 C403 1.386 . S
H401 C417 0.930 . S
H402 C418 0.931 . S
C403 H391 0.929 . S
C403 C397 1.390 . S
C403 C400 1.386 . S
C404 C399 1.490 . S
C404 C406 1.395 . S
C404 C407 1.403 . S
H405 C411 0.930 . S
C406 H392 0.930 . S
C406 C404 1.395 . S
C406 C409 1.403 . S
C407 C404 1.403 . S
C407 C408 1.524 . S
C407 C411 1.400 . S
C408 H393 0.960 . S
C408 H394 0.960 . S
C408 H395 0.960 . S
C408 C407 1.524 . S
C409 C406 1.403 . S
C409 C410 1.392 . S
C409 C413 1.495 . S
C410 C409 1.392 . S
C410 C411 1.385 . S
C410 C412 1.478 . S
C411 H405 0.930 . S
C411 C407 1.400 . S
C411 C410 1.385 . S
C412 C410 1.478 . S
C412 C414 1.381 . S
C412 C418 1.383 . S
C413 C409 1.495 . S
C413 H419 0.959 . S
C413 H420 0.961 . S
C413 H421 0.960 . S
C414 C412 1.381 . S
C414 C415 1.394 . S
C414 H422 0.930 . S
C415 C414 1.394 . S
C415 C416 1.383 . S
C415 H423 0.929 . S
C416 C415 1.383 . S
C416 C417 1.377 . S
C417 H401 0.930 . S
C417 C416 1.377 . S
C417 C418 1.379 . S
C418 H402 0.931 . S
C418 C412 1.383 . S
C418 C417 1.379 . S
H419 C413 0.959 . S
H420 C413 0.961 . S
H421 C413 0.960 . S
H422 C414 0.930 . S
H423 C415 0.929 . S
H424 C432 0.929 . S
H425 C434 0.930 . S
H426 C436 0.930 . S
H427 C439 0.929 . S
H428 C442 0.930 . S
H429 C444 0.960 . S
H430 C444 0.960 . S
H431 C444 0.960 . S
C432 H424 0.929 . S
C432 C433 1.377 . S
C432 C434 1.384 . S
C433 C432 1.377 . S
C433 C439 1.390 . S
C434 H425 0.930 . S
C434 C432 1.384 . S
C434 C435 1.372 . S
C435 C434 1.372 . S
C435 C436 1.400 . S
C435 C440 1.490 . S
C436 H426 0.930 . S
C436 C435 1.400 . S
C436 C439 1.386 . S
H437 C453 0.930 . S
H438 C454 0.931 . S
C439 H427 0.929 . S
C439 C433 1.390 . S
C439 C436 1.386 . S
C440 C435 1.490 . S
C440 C442 1.395 . S
C440 C443 1.403 . S
H441 C447 0.930 . S
C442 H428 0.930 . S
C442 C440 1.395 . S
C442 C445 1.403 . S
C443 C440 1.403 . S
C443 C444 1.524 . S
C443 C447 1.400 . S
C444 H429 0.960 . S
C444 H430 0.960 . S
C444 H431 0.960 . S
C444 C443 1.524 . S
C445 C442 1.403 . S
C445 C446 1.392 . S
C445 C449 1.495 . S
C446 C445 1.392 . S
C446 C447 1.385 . S
C446 C448 1.478 . S
C447 H441 0.930 . S
C447 C443 1.400 . S
C447 C446 1.385 . S
C448 C446 1.478 . S
C448 C450 1.381 . S
C448 C454 1.383 . S
C449 C445 1.495 . S
C449 H455 0.959 . S
C449 H456 0.961 . S
C449 H457 0.960 . S
C450 C448 1.381 . S
C450 C451 1.394 . S
C450 H458 0.930 . S
C451 C450 1.394 . S
C451 C452 1.383 . S
C451 H459 0.929 . S
C452 C451 1.383 . S
C452 C453 1.377 . S
C453 H437 0.930 . S
C453 C452 1.377 . S
C453 C454 1.379 . S
C454 H438 0.931 . S
C454 C448 1.383 . S
C454 C453 1.379 . S
H455 C449 0.959 . S
H456 C449 0.961 . S
H457 C449 0.960 . S
H458 C450 0.930 . S
H459 C451 0.929 . S
H460 C468 0.929 . S
H461 C470 0.930 . S
H462 C472 0.930 . S
H463 C475 0.929 . S
H464 C478 0.930 . S
H465 C480 0.960 . S
H466 C480 0.960 . S
H467 C480 0.960 . S
C468 H460 0.929 . S
C468 C469 1.377 . S
C468 C470 1.384 . S
C469 C468 1.377 . S
C469 C475 1.390 . S
C470 H461 0.930 . S
C470 C468 1.384 . S
C470 C471 1.372 . S
C471 C470 1.372 . S
C471 C472 1.400 . S
C471 C476 1.490 . S
C472 H462 0.930 . S
C472 C471 1.400 . S
C472 C475 1.386 . S
H473 C489 0.930 . S
H474 C490 0.931 . S
C475 H463 0.929 . S
C475 C469 1.390 . S
C475 C472 1.386 . S
C476 C471 1.490 . S
C476 C478 1.395 . S
C476 C479 1.403 . S
H477 C483 0.930 . S
C478 H464 0.930 . S
C478 C476 1.395 . S
C478 C481 1.403 . S
C479 C476 1.403 . S
C479 C480 1.524 . S
C479 C483 1.400 . S
C480 H465 0.960 . S
C480 H466 0.960 . S
C480 H467 0.960 . S
C480 C479 1.524 . S
C481 C478 1.403 . S
C481 C482 1.392 . S
C481 C485 1.495 . S
C482 C481 1.392 . S
C482 C483 1.385 . S
C482 C484 1.478 . S
C483 H477 0.930 . S
C483 C479 1.400 . S
C483 C482 1.385 . S
C484 C482 1.478 . S
C484 C486 1.381 . S
C484 C490 1.383 . S
C485 C481 1.495 . S
C485 H491 0.959 . S
C485 H492 0.961 . S
C485 H493 0.960 . S
C486 C484 1.381 . S
C486 C487 1.394 . S
C486 H494 0.930 . S
C487 C486 1.394 . S
C487 C488 1.383 . S
C487 H495 0.929 . S
C488 C487 1.383 . S
C488 C489 1.377 . S
C489 H473 0.930 . S
C489 C488 1.377 . S
C489 C490 1.379 . S
C490 H474 0.931 . S
C490 C484 1.383 . S
C490 C489 1.379 . S
H491 C485 0.959 . S
H492 C485 0.961 . S
H493 C485 0.960 . S
H494 C486 0.930 . S
H495 C487 0.929 . S
H496 C504 0.929 . S
H497 C506 0.930 . S
H498 C508 0.930 . S
H499 C511 0.929 . S
H500 C514 0.930 . S
H501 C516 0.960 . S
H502 C516 0.960 . S
H503 C516 0.936 1_655 S
C504 H496 0.929 . S
C504 C505 1.377 . S
C504 C506 1.384 . S
C505 C504 1.377 . S
C505 C511 1.390 . S
C506 H497 0.930 . S
C506 C504 1.384 . S
C506 C507 1.372 . S
C507 C506 1.372 . S
C507 C508 1.400 . S
C507 C512 1.490 . S
C508 H498 0.930 . S
C508 C507 1.400 . S
C508 C511 1.386 . S
H509 C525 0.930 . S
H510 C526 0.931 . S
C511 H499 0.929 . S
C511 C505 1.390 . S
C511 C508 1.386 . S
C512 C507 1.490 . S
C512 C514 1.395 . S
C512 C515 1.403 1_655 S
H513 C519 0.930 . S
C514 H500 0.930 . S
C514 C512 1.395 . S
C514 C517 1.403 . S
C515 C512 1.403 1_455 S
C515 C516 1.524 . S
C515 C519 1.400 . S
C516 H501 0.960 . S
C516 H502 0.960 . S
C516 H503 0.936 1_455 S
C516 C515 1.524 . S
C517 C514 1.403 . S
C517 C518 1.392 1_655 S
C517 C521 1.495 . S
C518 C517 1.392 1_455 S
C518 C519 1.385 . S
C518 C520 1.478 . S
C519 H513 0.930 . S
C519 C515 1.400 . S
C519 C518 1.385 . S
C520 C518 1.478 . S
C520 C522 1.381 . S
C520 C526 1.383 . S
C521 C517 1.495 . S
C521 H527 0.959 . S
C521 H528 0.961 . S
C521 H529 0.960 . S
C522 C520 1.381 . S
C522 C523 1.394 . S
C522 H530 0.930 . S
C523 C522 1.394 . S
C523 C524 1.383 . S
C523 H531 0.929 . S
C524 C523 1.383 . S
C524 C525 1.377 . S
C525 H509 0.930 . S
C525 C524 1.377 . S
C525 C526 1.379 . S
C526 H510 0.931 . S
C526 C520 1.383 . S
C526 C525 1.379 . S
H527 C521 0.959 . S
H528 C521 0.961 . S
H529 C521 0.960 . S
H530 C522 0.930 . S
H531 C523 0.929 . S
H532 C540 0.929 . S
H533 C542 0.930 . S
H534 C544 0.930 . S
H535 C547 0.929 . S
H536 C550 0.930 . S
H537 C552 0.973 . S
H538 C552 0.973 . S
H539 C552 0.936 1_545 S
C540 H532 0.929 . S
C540 C541 1.377 . S
C540 C542 1.384 . S
C541 C540 1.377 . S
C541 C547 1.390 . S
C542 H533 0.930 . S
C542 C540 1.384 . S
C542 C543 1.372 . S
C543 C542 1.372 . S
C543 C544 1.400 . S
C543 C548 1.490 . S
C544 H534 0.930 . S
C544 C543 1.400 . S
C544 C547 1.386 . S
H545 C561 0.930 . S
H546 C562 0.931 . S
C547 H535 0.929 . S
C547 C541 1.390 . S
C547 C544 1.386 . S
C548 C543 1.490 . S
C548 C550 1.395 1_655 S
C548 C551 1.393 1_545 S
H549 C555 0.930 . S
C550 H536 0.930 . S
C550 C548 1.395 1_455 S
C550 C553 1.403 1_545 S
C551 C548 1.393 1_565 S
C551 C552 1.524 . S
C551 C555 1.411 . S
C552 H537 0.973 . S
C552 H538 0.973 . S
C552 H539 0.936 1_565 S
C552 C551 1.524 . S
C553 C550 1.403 1_565 S
C553 C554 1.392 . S
C553 C557 1.495 . S
C554 C553 1.392 . S
C554 C555 1.385 1_455 S
C554 C556 1.478 . S
C555 H549 0.930 . S
C555 C551 1.411 . S
C555 C554 1.385 1_655 S
C556 C554 1.478 . S
C556 C558 1.381 . S
C556 C562 1.383 . S
C557 C553 1.495 . S
C557 H563 0.959 1_565 S
C557 H564 0.961 1_565 S
C557 H565 0.960 . S
C558 C556 1.381 . S
C558 C559 1.394 . S
C558 H566 0.930 . S
C559 C558 1.394 . S
C559 C560 1.383 . S
C559 H567 0.929 . S
C560 C559 1.383 . S
C560 C561 1.377 . S
C561 H545 0.930 . S
C561 C560 1.377 . S
C561 C562 1.379 . S
C562 H546 0.931 . S
C562 C556 1.383 . S
C562 C561 1.379 . S
H563 C557 0.959 1_545 S
H564 C557 0.961 1_545 S
H565 C557 0.960 . S
H566 C558 0.930 . S
H567 C559 0.929 . S
H568 C576 0.929 . S
H569 C578 0.930 . S
H570 C580 0.930 1_565 S
H571 C583 0.929 . S
H572 C586 0.930 . S
H573 C588 0.960 . S
H574 C588 0.960 . S
H575 C588 0.960 . S
C576 H568 0.929 . S
C576 C577 1.377 . S
C576 C578 1.384 . S
C577 C576 1.377 . S
C577 C583 1.390 . S
C578 H569 0.930 . S
C578 C576 1.384 . S
C578 C579 1.372 . S
C579 C578 1.372 . S
C579 C580 1.400 . S
C579 C584 1.490 . S
C580 H570 0.930 1_545 S
C580 C579 1.400 . S
C580 C583 1.386 . S
H581 C597 0.930 . S
H582 C598 0.931 . S
C583 H571 0.929 . S
C583 C577 1.390 . S
C583 C580 1.386 . S
C584 C579 1.490 . S
C584 C586 1.395 . S
C584 C587 1.403 1_545 S
H585 C591 0.930 . S
C586 H572 0.930 . S
C586 C584 1.395 . S
C586 C589 1.403 . S
C587 C584 1.403 1_565 S
C587 C588 1.524 . S
C587 C591 1.400 . S
C588 H573 0.960 . S
C588 H574 0.960 . S
C588 H575 0.960 . S
C588 C587 1.524 . S
C589 C586 1.403 . S
C589 C590 1.392 1_545 S
C589 C593 1.495 . S
C590 C589 1.392 1_565 S
C590 C591 1.385 . S
C590 C592 1.478 . S
C591 H585 0.930 . S
C591 C587 1.400 . S
C591 C590 1.385 . S
C592 C590 1.478 . S
C592 C594 1.381 . S
C592 C598 1.383 . S
C593 C589 1.495 . S
C593 H599 0.959 . S
C593 H600 0.961 . S
C593 H601 0.960 . S
C594 C592 1.381 . S
C594 C595 1.394 . S
C594 H602 0.903 1_565 S
C595 C594 1.394 . S
C595 C596 1.383 . S
C595 H603 0.929 . S
C596 C595 1.383 . S
C596 C597 1.377 . S
C597 H581 0.930 . S
C597 C596 1.377 . S
C597 C598 1.379 . S
C598 H582 0.931 . S
C598 C592 1.383 . S
C598 C597 1.379 . S
H599 C593 0.959 . S
H600 C593 0.961 . S
H601 C593 0.960 . S
H602 C594 0.903 1_545 S
H603 C595 0.929 . S
H604 C612 0.929 . S
H605 C614 0.930 . S
H606 C616 0.930 . S
H607 C619 0.929 . S
H608 C622 0.930 . S
H609 C624 0.960 . S
H610 C624 0.960 . S
H611 C624 0.960 . S
C612 H604 0.929 . S
C612 C613 1.377 . S
C612 C614 1.384 . S
C613 C612 1.377 . S
C613 C619 1.390 . S
C614 H605 0.930 . S
C614 C612 1.384 . S
C614 C615 1.372 . S
C615 C614 1.372 . S
C615 C616 1.400 . S
C615 C620 1.490 . S
C616 H606 0.930 . S
C616 C615 1.400 . S
C616 C619 1.386 . S
H617 C633 0.930 . S
H618 C634 0.931 . S
C619 H607 0.929 . S
C619 C613 1.390 . S
C619 C616 1.386 . S
C620 C615 1.490 . S
C620 C622 1.395 . S
C620 C623 1.403 . S
H621 C627 0.930 . S
C622 H608 0.930 . S
C622 C620 1.395 . S
C622 C625 1.403 . S
C623 C620 1.403 . S
C623 C624 1.524 . S
C623 C627 1.400 . S
C624 H609 0.960 . S
C624 H610 0.960 . S
C624 H611 0.960 . S
C624 C623 1.524 . S
C625 C622 1.403 . S
C625 C626 1.392 . S
C625 C629 1.495 . S
C626 C625 1.392 . S
C626 C627 1.385 . S
C626 C628 1.478 . S
C627 H621 0.930 . S
C627 C623 1.400 . S
C627 C626 1.385 . S
C628 C626 1.478 . S
C628 C630 1.381 . S
C628 C634 1.383 . S
C629 C625 1.495 . S
C629 H635 0.959 . S
C629 H636 0.961 . S
C629 H637 0.960 . S
C630 C628 1.381 . S
C630 C631 1.394 . S
C630 H638 0.930 . S
C631 C630 1.394 . S
C631 C632 1.383 . S
C631 H639 0.929 . S
C632 C631 1.383 . S
C632 C633 1.377 . S
C633 H617 0.930 . S
C633 C632 1.377 . S
C633 C634 1.379 . S
C634 H618 0.931 . S
C634 C628 1.383 . S
C634 C633 1.379 . S
H635 C629 0.959 . S
H636 C629 0.961 . S
H637 C629 0.960 . S
H638 C630 0.930 . S
H639 C631 0.929 . S
H640 C648 0.929 . S
H641 C650 0.930 . S
H642 C652 0.930 . S
H643 C655 0.929 . S
H644 C658 0.930 . S
H645 C660 0.960 . S
H646 C660 0.960 . S
H647 C660 0.960 . S
C648 H640 0.929 . S
C648 C649 1.377 . S
C648 C650 1.384 . S
C649 C648 1.377 . S
C649 C655 1.390 . S
C650 H641 0.930 . S
C650 C648 1.384 . S
C650 C651 1.372 . S
C651 C650 1.372 . S
C651 C652 1.400 . S
C651 C656 1.490 . S
C652 H642 0.930 . S
C652 C651 1.400 . S
C652 C655 1.386 . S
H653 C669 0.930 . S
H654 C670 0.931 . S
C655 H643 0.929 . S
C655 C649 1.390 . S
C655 C652 1.386 . S
C656 C651 1.490 . S
C656 C658 1.395 . S
C656 C659 1.403 1_455 S
H657 C663 0.930 . S
C658 H644 0.930 . S
C658 C656 1.395 . S
C658 C661 1.403 . S
C659 C656 1.403 1_655 S
C659 C660 1.524 . S
C659 C663 1.400 . S
C660 H645 0.960 . S
C660 H646 0.960 . S
C660 H647 0.960 . S
C660 C659 1.524 . S
C661 C658 1.403 . S
C661 C662 1.392 1_455 S
C661 C665 1.495 . S
C662 C661 1.392 1_655 S
C662 C663 1.385 . S
C662 C664 1.478 . S
C663 H657 0.930 . S
C663 C659 1.400 . S
C663 C662 1.385 . S
C664 C662 1.478 . S
C664 C666 1.381 . S
C664 C670 1.383 . S
C665 C661 1.495 . S
C665 H671 0.959 . S
C665 H672 0.961 . S
C665 H673 0.960 . S
C666 C664 1.381 . S
C666 C667 1.394 . S
C666 H674 0.930 . S
C667 C666 1.394 . S
C667 C668 1.383 . S
C667 H675 0.929 . S
C668 C667 1.383 . S
C668 C669 1.377 . S
C669 H653 0.930 . S
C669 C668 1.377 . S
C669 C670 1.379 . S
C670 H654 0.931 . S
C670 C664 1.383 . S
C670 C669 1.379 . S
H671 C665 0.959 . S
H672 C665 0.961 . S
H673 C665 0.960 . S
H674 C666 0.930 . S
H675 C667 0.929 . S
H676 C684 0.929 . S
H677 C686 0.930 1_655 S
H678 C688 0.930 . S
H679 C691 0.929 . S
H680 C694 0.930 . S
H681 C696 0.960 . S
H682 C696 0.960 . S
H683 C696 0.960 . S
C684 H676 0.929 . S
C684 C685 1.377 . S
C684 C686 1.384 . S
C685 C684 1.377 . S
C685 C691 1.390 . S
C686 H677 0.930 1_455 S
C686 C684 1.384 . S
C686 C687 1.372 . S
C687 C686 1.372 . S
C687 C688 1.400 . S
C687 C692 1.490 . S
C688 H678 0.930 . S
C688 C687 1.400 . S
C688 C691 1.386 . S
H689 C705 0.930 . S
H690 C706 0.931 1_455 S
C691 H679 0.929 . S
C691 C685 1.390 . S
C691 C688 1.386 . S
C692 C687 1.490 . S
C692 C694 1.395 1_565 S
C692 C695 1.403 . S
H693 C699 0.930 . S
C694 H680 0.930 . S
C694 C692 1.395 1_545 S
C694 C697 1.403 1_455 S
C695 C692 1.403 . S
C695 C696 1.524 . S
C695 C699 1.400 1_455 S
C696 H681 0.960 . S
C696 H682 0.960 . S
C696 H683 0.960 . S
C696 C695 1.524 . S
C697 C694 1.403 1_655 S
C697 C698 1.392 . S
C697 C701 1.495 . S
C698 C697 1.392 . S
C698 C699 1.385 1_545 S
C698 C700 1.478 . S
C699 H693 0.930 . S
C699 C695 1.400 1_655 S
C699 C698 1.385 1_565 S
C700 C698 1.478 . S
C700 C702 1.381 . S
C700 C706 1.383 . S
C701 C697 1.495 . S
C701 H707 0.959 . S
C701 H708 0.961 . S
C701 H709 0.960 . S
C702 C700 1.381 . S
C702 C703 1.394 . S
C702 H710 0.930 . S
C703 C702 1.394 . S
C703 C704 1.383 . S
C703 H711 0.929 . S
C704 C703 1.383 . S
C704 C705 1.377 . S
C705 H689 0.930 . S
C705 C704 1.377 . S
C705 C706 1.379 . S
C706 H690 0.931 1_655 S
C706 C700 1.383 . S
C706 C705 1.379 . S
H707 C701 0.959 . S
H708 C701 0.961 . S
H709 C701 0.960 . S
H710 C702 0.930 . S
H711 C703 0.929 . S
H712 C720 0.929 . S
H713 C722 0.930 . S
H714 C724 0.930 . S
H715 C727 0.929 . S
H716 C730 0.930 . S
H717 C732 0.960 . S
H718 C732 0.960 . S
H719 C732 0.960 . S
C720 H712 0.929 . S
C720 C721 1.377 . S
C720 C722 1.384 . S
C721 C720 1.377 . S
C721 C727 1.390 . S
C722 H713 0.930 . S
C722 C720 1.384 . S
C722 C723 1.372 . S
C723 C722 1.372 . S
C723 C724 1.400 . S
C723 C728 1.490 . S
C724 H714 0.930 . S
C724 C723 1.400 . S
C724 C727 1.386 . S
H725 C741 0.930 . S
H726 C742 0.931 . S
C727 H715 0.929 . S
C727 C721 1.390 . S
C727 C724 1.386 . S
C728 C723 1.490 . S
C728 C730 1.395 . S
C728 C731 1.403 1_545 S
H729 C735 0.930 . S
C730 H716 0.930 . S
C730 C728 1.395 . S
C730 C733 1.403 . S
C731 C728 1.403 1_565 S
C731 C732 1.524 . S
C731 C735 1.400 . S
C732 H717 0.960 . S
C732 H718 0.960 . S
C732 H719 0.960 . S
C732 C731 1.524 . S
C733 C730 1.403 . S
C733 C734 1.392 1_545 S
C733 C737 1.495 . S
C734 C733 1.392 1_565 S
C734 C735 1.385 . S
C734 C736 1.478 . S
C735 H729 0.930 . S
C735 C731 1.400 . S
C735 C734 1.385 . S
C736 C734 1.478 . S
C736 C738 1.381 . S
C736 C742 1.383 . S
C737 C733 1.495 . S
C737 H743 0.959 . S
C737 H744 0.961 . S
C737 H745 0.960 . S
C738 C736 1.381 . S
C738 C739 1.394 . S
C738 H746 0.930 . S
C739 C738 1.394 . S
C739 C740 1.383 . S
C739 H747 0.929 . S
C740 C739 1.383 . S
C740 C741 1.377 . S
C741 H725 0.930 . S
C741 C740 1.377 . S
C741 C742 1.379 . S
C742 H726 0.931 . S
C742 C736 1.383 . S
C742 C741 1.379 . S
H743 C737 0.959 . S
H744 C737 0.961 . S
H745 C737 0.960 . S
H746 C738 0.930 . S
H747 C739 0.929 . S
H748 C756 0.929 . S
H749 C758 0.930 . S
H750 C760 0.930 . S
H751 C763 0.929 . S
H752 C766 0.930 . S
H753 C768 0.960 . S
H754 C768 0.960 . S
H755 C768 0.960 . S
C756 H748 0.929 . S
C756 C757 1.377 . S
C756 C758 1.384 . S
C757 C756 1.377 . S
C757 C763 1.390 . S
C758 H749 0.930 . S
C758 C756 1.384 . S
C758 C759 1.372 . S
C759 C758 1.372 . S
C759 C760 1.400 . S
C759 C764 1.490 . S
C760 H750 0.930 . S
C760 C759 1.400 . S
C760 C763 1.386 . S
H761 C777 0.930 . S
H762 C778 0.931 . S
C763 H751 0.929 . S
C763 C757 1.390 . S
C763 C760 1.386 . S
C764 C759 1.490 . S
C764 C766 1.395 . S
C764 C767 1.403 . S
H765 C771 0.930 . S
C766 H752 0.930 . S
C766 C764 1.395 . S
C766 C769 1.403 . S
C767 C764 1.403 . S
C767 C768 1.524 . S
C767 C771 1.400 . S
C768 H753 0.960 . S
C768 H754 0.960 . S
C768 H755 0.960 . S
C768 C767 1.524 . S
C769 C766 1.403 . S
C769 C770 1.392 . S
C769 C773 1.495 . S
C770 C769 1.392 . S
C770 C771 1.385 . S
C770 C772 1.478 . S
C771 H765 0.930 . S
C771 C767 1.400 . S
C771 C770 1.385 . S
C772 C770 1.478 . S
C772 C774 1.381 . S
C772 C778 1.383 . S
C773 C769 1.495 . S
C773 H779 0.959 . S
C773 H780 0.961 . S
C773 H781 0.960 . S
C774 C772 1.381 . S
C774 C775 1.394 . S
C774 H782 0.930 . S
C775 C774 1.394 . S
C775 C776 1.383 . S
C775 H783 0.929 . S
C776 C775 1.383 . S
C776 C777 1.377 . S
C777 H761 0.930 . S
C777 C776 1.377 . S
C777 C778 1.379 . S
C778 H762 0.931 . S
C778 C772 1.383 . S
C778 C777 1.379 . S
H779 C773 0.959 . S
H780 C773 0.961 . S
H781 C773 0.960 . S
H782 C774 0.930 . S
H783 C775 0.929 . S
H784 C792 0.929 . S
H785 C794 0.930 . S
H786 C796 0.930 . S
H787 C799 0.929 . S
H788 C802 0.930 . S
H789 C804 0.960 . S
H790 C804 0.960 . S
H791 C804 0.960 . S
C792 H784 0.929 . S
C792 C793 1.377 . S
C792 C794 1.384 . S
C793 C792 1.377 . S
C793 C799 1.390 . S
C794 H785 0.930 . S
C794 C792 1.384 . S
C794 C795 1.372 . S
C795 C794 1.372 . S
C795 C796 1.400 . S
C795 C800 1.490 . S
C796 H786 0.930 . S
C796 C795 1.400 . S
C796 C799 1.386 . S
H797 C813 0.930 . S
H798 C814 0.931 . S
C799 H787 0.929 . S
C799 C793 1.390 . S
C799 C796 1.386 . S
C800 C795 1.490 . S
C800 C802 1.395 . S
C800 C803 1.403 . S
H801 C807 0.930 . S
C802 H788 0.930 . S
C802 C800 1.395 . S
C802 C805 1.403 . S
C803 C800 1.403 . S
C803 C804 1.524 . S
C803 C807 1.400 . S
C804 H789 0.960 . S
C804 H790 0.960 . S
C804 H791 0.960 . S
C804 C803 1.524 . S
C805 C802 1.403 . S
C805 C806 1.392 . S
C805 C809 1.495 . S
C806 C805 1.392 . S
C806 C807 1.385 . S
C806 C808 1.478 . S
C807 H801 0.930 . S
C807 C803 1.400 . S
C807 C806 1.385 . S
C808 C806 1.478 . S
C808 C810 1.381 . S
C808 C814 1.383 . S
C809 C805 1.495 . S
C809 H815 0.959 . S
C809 H816 0.961 . S
C809 H817 0.960 . S
C810 C808 1.381 . S
C810 C811 1.394 . S
C810 H818 0.930 . S
C811 C810 1.394 . S
C811 C812 1.383 . S
C811 H819 0.929 . S
C812 C811 1.383 . S
C812 C813 1.377 . S
C813 H797 0.930 . S
C813 C812 1.377 . S
C813 C814 1.379 . S
C814 H798 0.931 . S
C814 C808 1.383 . S
C814 C813 1.379 . S
H815 C809 0.959 . S
H816 C809 0.961 . S
H817 C809 0.960 . S
H818 C810 0.930 . S
H819 C811 0.929 . S
H820 C828 0.929 . S
H821 C830 0.930 . S
H822 C832 0.930 . S
H823 C835 0.929 . S
H824 C838 0.930 . S
H825 C840 0.960 . S
H826 C840 0.960 . S
H827 C840 0.960 . S
C828 H820 0.929 . S
C828 C829 1.377 . S
C828 C830 1.384 . S
C829 C828 1.377 . S
C829 C835 1.390 . S
C830 H821 0.930 . S
C830 C828 1.384 . S
C830 C831 1.372 . S
C831 C830 1.372 . S
C831 C832 1.400 . S
C831 C836 1.490 . S
C832 H822 0.930 . S
C832 C831 1.400 . S
C832 C835 1.386 . S
H833 C849 0.930 . S
H834 C850 0.931 . S
C835 H823 0.929 . S
C835 C829 1.390 . S
C835 C832 1.386 . S
C836 C831 1.490 . S
C836 C838 1.395 . S
C836 C839 1.403 . S
H837 C843 0.930 . S
C838 H824 0.930 . S
C838 C836 1.395 . S
C838 C841 1.403 . S
C839 C836 1.403 . S
C839 C840 1.524 . S
C839 C843 1.400 . S
C840 H825 0.960 . S
C840 H826 0.960 . S
C840 H827 0.960 . S
C840 C839 1.524 . S
C841 C838 1.403 . S
C841 C842 1.392 . S
C841 C845 1.495 . S
C842 C841 1.392 . S
C842 C843 1.385 . S
C842 C844 1.478 . S
C843 H837 0.930 . S
C843 C839 1.400 . S
C843 C842 1.385 . S
C844 C842 1.478 . S
C844 C846 1.381 . S
C844 C850 1.383 . S
C845 C841 1.495 . S
C845 H851 0.959 . S
C845 H852 0.961 . S
C845 H853 0.960 . S
C846 C844 1.381 . S
C846 C847 1.394 . S
C846 H854 0.930 . S
C847 C846 1.394 . S
C847 C848 1.383 . S
C847 H855 0.929 . S
C848 C847 1.383 . S
C848 C849 1.377 . S
C849 H833 0.930 . S
C849 C848 1.377 . S
C849 C850 1.379 . S
C850 H834 0.931 . S
C850 C844 1.383 . S
C850 C849 1.379 . S
H851 C845 0.959 . S
H852 C845 0.961 . S
H853 C845 0.960 . S
H854 C846 0.930 . S
H855 C847 0.929 . S
H856 C864 0.929 . S
H857 C866 0.930 . S
H858 C868 0.930 . S
H859 C871 0.929 . S
H860 C874 0.930 . S
H861 C876 0.960 . S
H862 C876 0.960 . S
H863 C876 0.960 . S
C864 H856 0.929 . S
C864 C865 1.377 . S
C864 C866 1.384 . S
C865 C864 1.377 . S
C865 C871 1.390 . S
C866 H857 0.930 . S
C866 C864 1.384 . S
C866 C867 1.372 . S
C867 C866 1.372 . S
C867 C868 1.400 . S
C867 C872 1.490 . S
C868 H858 0.930 . S
C868 C867 1.400 . S
C868 C871 1.386 . S
H869 C885 0.930 . S
H870 C886 0.931 . S
C871 H859 0.929 . S
C871 C865 1.390 . S
C871 C868 1.386 . S
C872 C867 1.490 . S
C872 C874 1.395 . S
C872 C875 1.403 . S
H873 C879 0.930 . S
C874 H860 0.930 . S
C874 C872 1.395 . S
C874 C877 1.403 . S
C875 C872 1.403 . S
C875 C876 1.524 . S
C875 C879 1.400 . S
C876 H861 0.960 . S
C876 H862 0.960 . S
C876 H863 0.960 . S
C876 C875 1.524 . S
C877 C874 1.403 . S
C877 C878 1.392 . S
C877 C881 1.495 . S
C878 C877 1.392 . S
C878 C879 1.385 . S
C878 C880 1.478 . S
C879 H873 0.930 . S
C879 C875 1.400 . S
C879 C878 1.385 . S
C880 C878 1.478 . S
C880 C882 1.381 . S
C880 C886 1.383 . S
C881 C877 1.495 . S
C881 H887 0.959 . S
C881 H888 0.961 . S
C881 H889 0.960 . S
C882 C880 1.381 . S
C882 C883 1.394 . S
C882 H890 0.930 . S
C883 C882 1.394 . S
C883 C884 1.383 . S
C883 H891 0.929 . S
C884 C883 1.383 . S
C884 C885 1.377 . S
C885 H869 0.930 . S
C885 C884 1.377 . S
C885 C886 1.379 . S
C886 H870 0.931 . S
C886 C880 1.383 . S
C886 C885 1.379 . S
H887 C881 0.959 . S
H888 C881 0.961 . S
H889 C881 0.960 . S
H890 C882 0.930 . S
H891 C883 0.929 . S
H892 C900 0.929 . S
H893 C902 0.930 . S
H894 C904 0.930 . S
H895 C907 0.929 . S
H896 C910 0.930 . S
H897 C912 0.960 . S
H898 C912 0.960 . S
H899 C912 0.960 . S
C900 H892 0.929 . S
C900 C901 1.377 . S
C900 C902 1.384 . S
C901 C900 1.377 . S
C901 C907 1.390 . S
C902 H893 0.930 . S
C902 C900 1.384 . S
C902 C903 1.372 . S
C903 C902 1.372 . S
C903 C904 1.400 . S
C903 C908 1.490 . S
C904 H894 0.930 . S
C904 C903 1.400 . S
C904 C907 1.386 . S
H905 C921 0.930 . S
H906 C922 0.931 . S
C907 H895 0.929 . S
C907 C901 1.390 . S
C907 C904 1.386 . S
C908 C903 1.490 . S
C908 C910 1.395 . S
C908 C911 1.403 . S
H909 C915 0.930 . S
C910 H896 0.930 . S
C910 C908 1.395 . S
C910 C913 1.403 . S
C911 C908 1.403 . S
C911 C912 1.524 . S
C911 C915 1.400 . S
C912 H897 0.960 . S
C912 H898 0.960 . S
C912 H899 0.960 . S
C912 C911 1.524 . S
C913 C910 1.403 . S
C913 C914 1.392 . S
C913 C917 1.495 . S
C914 C913 1.392 . S
C914 C915 1.385 . S
C914 C916 1.478 . S
C915 H909 0.930 . S
C915 C911 1.400 . S
C915 C914 1.385 . S
C916 C914 1.478 . S
C916 C918 1.381 . S
C916 C922 1.383 . S
C917 C913 1.495 . S
C917 H923 0.959 . S
C917 H924 0.961 . S
C917 H925 0.960 . S
C918 C916 1.381 . S
C918 C919 1.394 . S
C918 H926 0.930 . S
C919 C918 1.394 . S
C919 C920 1.383 . S
C919 H927 0.929 . S
C920 C919 1.383 . S
C920 C921 1.377 . S
C921 H905 0.930 . S
C921 C920 1.377 . S
C921 C922 1.379 . S
C922 H906 0.931 . S
C922 C916 1.383 . S
C922 C921 1.379 . S
H923 C917 0.959 . S
H924 C917 0.961 . S
H925 C917 0.960 . S
H926 C918 0.930 . S
H927 C919 0.929 . S
H928 C936 0.929 . S
H929 C938 0.930 . S
H930 C940 0.930 . S
H931 C943 0.929 . S
H932 C946 0.930 . S
H933 C948 0.960 . S
H934 C948 0.960 . S
H935 C948 0.960 . S
C936 H928 0.929 . S
C936 C937 1.377 . S
C936 C938 1.384 . S
C937 C936 1.377 . S
C937 C943 1.390 . S
C938 H929 0.930 . S
C938 C936 1.384 . S
C938 C939 1.372 . S
C939 C938 1.372 . S
C939 C940 1.400 . S
C939 C944 1.490 . S
C940 H930 0.930 . S
C940 C939 1.400 . S
C940 C943 1.386 . S
H941 C957 0.930 . S
H942 C958 0.931 . S
C943 H931 0.929 . S
C943 C937 1.390 . S
C943 C940 1.386 . S
C944 C939 1.490 . S
C944 C946 1.395 . S
C944 C947 1.403 . S
H945 C951 0.930 . S
C946 H932 0.930 . S
C946 C944 1.395 . S
C946 C949 1.403 . S
C947 C944 1.403 . S
C947 C948 1.524 . S
C947 C951 1.400 . S
C948 H933 0.960 . S
C948 H934 0.960 . S
C948 H935 0.960 . S
C948 C947 1.524 . S
C949 C946 1.403 . S
C949 C950 1.392 . S
C949 C953 1.495 . S
C950 C949 1.392 . S
C950 C951 1.385 . S
C950 C952 1.478 . S
C951 H945 0.930 . S
C951 C947 1.400 . S
C951 C950 1.385 . S
C952 C950 1.478 . S
C952 C954 1.381 . S
C952 C958 1.383 . S
C953 C949 1.495 . S
C953 H959 0.959 . S
C953 H960 0.961 . S
C953 H961 0.960 . S
C954 C952 1.381 . S
C954 C955 1.394 . S
C954 H962 0.930 . S
C955 C954 1.394 . S
C955 C956 1.383 . S
C955 H963 0.929 . S
C956 C955 1.383 . S
C956 C957 1.377 . S
C957 H941 0.930 . S
C957 C956 1.377 . S
C957 C958 1.379 . S
C958 H942 0.931 . S
C958 C952 1.383 . S
C958 C957 1.379 . S
H959 C953 0.959 . S
H960 C953 0.961 . S
H961 C953 0.960 . S
H962 C954 0.930 . S
H963 C955 0.929 . S
H964 C972 0.929 . S
H965 C974 0.930 . S
H966 C976 0.930 . S
H967 C979 0.929 . S
H968 C982 0.930 . S
H969 C984 0.960 . S
H970 C984 0.960 . S
H971 C984 0.960 . S
C972 H964 0.929 . S
C972 C973 1.377 . S
C972 C974 1.384 . S
C973 C972 1.377 . S
C973 C979 1.390 . S
C974 H965 0.930 . S
C974 C972 1.384 . S
C974 C975 1.372 . S
C975 C974 1.372 . S
C975 C976 1.400 . S
C975 C980 1.490 . S
C976 H966 0.930 . S
C976 C975 1.400 . S
C976 C979 1.386 . S
H977 C993 0.930 . S
H978 C994 0.931 . S
C979 H967 0.929 . S
C979 C973 1.390 . S
C979 C976 1.386 . S
C980 C975 1.490 . S
C980 C982 1.395 . S
C980 C983 1.403 . S
H981 C987 0.930 . S
C982 H968 0.930 . S
C982 C980 1.395 . S
C982 C985 1.403 . S
C983 C980 1.403 . S
C983 C984 1.524 . S
C983 C987 1.400 . S
C984 H969 0.960 . S
C984 H970 0.960 . S
C984 H971 0.960 . S
C984 C983 1.524 . S
C985 C982 1.403 . S
C985 C986 1.392 . S
C985 C989 1.495 . S
C986 C985 1.392 . S
C986 C987 1.385 . S
C986 C988 1.478 . S
C987 H981 0.930 . S
C987 C983 1.400 . S
C987 C986 1.385 . S
C988 C986 1.478 . S
C988 C990 1.381 . S
C988 C994 1.383 . S
C989 C985 1.495 . S
C989 H995 0.959 . S
C989 H996 0.961 . S
C989 H997 0.960 . S
C990 C988 1.381 . S
C990 C991 1.394 . S
C990 H998 0.930 . S
C991 C990 1.394 . S
C991 C992 1.383 . S
C991 H999 0.929 . S
C992 C991 1.383 . S
C992 C993 1.377 . S
C993 H977 0.930 . S
C993 C992 1.377 . S
C993 C994 1.379 . S
C994 H978 0.931 . S
C994 C988 1.383 . S
C994 C993 1.379 . S
H995 C989 0.959 . S
H996 C989 0.961 . S
H997 C989 0.960 . S
H998 C990 0.930 . S
H999 C991 0.929 . S
H1000 C1008 0.929 . S
H1001 C1010 0.930 . S
H1002 C1012 0.930 . S
H1003 C1015 0.929 . S
H1004 C1018 0.930 . S
H1005 C1020 0.960 . S
H1006 C1020 0.960 . S
H1007 C1020 0.960 . S
C1008 H1000 0.929 . S
C1008 C1009 1.377 . S
C1008 C1010 1.384 . S
C1009 C1008 1.377 . S
C1009 C1015 1.390 . S
C1010 H1001 0.930 . S
C1010 C1008 1.384 . S
C1010 C1011 1.372 . S
C1011 C1010 1.372 . S
C1011 C1012 1.400 . S
C1011 C1016 1.490 . S
C1012 H1002 0.930 . S
C1012 C1011 1.400 . S
C1012 C1015 1.386 . S
H1013 C1029 0.930 . S
H1014 C1030 0.931 . S
C1015 H1003 0.929 . S
C1015 C1009 1.390 . S
C1015 C1012 1.386 . S
C1016 C1011 1.490 . S
C1016 C1018 1.395 . S
C1016 C1019 1.403 . S
H1017 C1023 0.930 . S
C1018 H1004 0.930 . S
C1018 C1016 1.395 . S
C1018 C1021 1.403 . S
C1019 C1016 1.403 . S
C1019 C1020 1.524 . S
C1019 C1023 1.400 . S
C1020 H1005 0.960 . S
C1020 H1006 0.960 . S
C1020 H1007 0.960 . S
C1020 C1019 1.524 . S
C1021 C1018 1.403 . S
C1021 C1022 1.392 . S
C1021 C1025 1.495 . S
C1022 C1021 1.392 . S
C1022 C1023 1.385 . S
C1022 C1024 1.478 . S
C1023 H1017 0.930 . S
C1023 C1019 1.400 . S
C1023 C1022 1.385 . S
C1024 C1022 1.478 . S
C1024 C1026 1.381 . S
C1024 C1030 1.383 . S
C1025 C1021 1.495 . S
C1025 H1031 0.959 . S
C1025 H1032 0.961 . S
C1025 H1033 0.960 . S
C1026 C1024 1.381 . S
C1026 C1027 1.394 . S
C1026 H1034 0.930 . S
C1027 C1026 1.394 . S
C1027 C1028 1.383 . S
C1027 H1035 0.929 . S
C1028 C1027 1.383 . S
C1028 C1029 1.377 . S
C1029 H1013 0.930 . S
C1029 C1028 1.377 . S
C1029 C1030 1.379 . S
C1030 H1014 0.931 . S
C1030 C1024 1.383 . S
C1030 C1029 1.379 . S
H1031 C1025 0.959 . S
H1032 C1025 0.961 . S
H1033 C1025 0.960 . S
H1034 C1026 0.930 . S
H1035 C1027 0.929 . S
H1036 C1044 0.929 . S
H1037 C1046 0.930 . S
H1038 C1048 0.930 . S
H1039 C1051 0.929 . S
H1040 C1054 0.930 . S
H1041 C1056 0.960 . S
H1042 C1056 0.960 . S
H1043 C1056 0.960 . S
C1044 H1036 0.929 . S
C1044 C1045 1.377 . S
C1044 C1046 1.384 . S
C1045 C1044 1.377 . S
C1045 C1051 1.390 . S
C1046 H1037 0.930 . S
C1046 C1044 1.384 . S
C1046 C1047 1.372 . S
C1047 C1046 1.372 . S
C1047 C1048 1.400 . S
C1047 C1052 1.490 . S
C1048 H1038 0.930 . S
C1048 C1047 1.400 . S
C1048 C1051 1.386 . S
H1049 C1065 0.930 . S
H1050 C1066 0.931 . S
C1051 H1039 0.929 . S
C1051 C1045 1.390 . S
C1051 C1048 1.386 . S
C1052 C1047 1.490 . S
C1052 C1054 1.395 . S
C1052 C1055 1.403 . S
H1053 C1059 0.930 . S
C1054 H1040 0.930 . S
C1054 C1052 1.395 . S
C1054 C1057 1.403 . S
C1055 C1052 1.403 . S
C1055 C1056 1.524 . S
C1055 C1059 1.400 . S
C1056 H1041 0.960 . S
C1056 H1042 0.960 . S
C1056 H1043 0.960 . S
C1056 C1055 1.524 . S
C1057 C1054 1.403 . S
C1057 C1058 1.392 . S
C1057 C1061 1.495 . S
C1058 C1057 1.392 . S
C1058 C1059 1.385 . S
C1058 C1060 1.478 . S
C1059 H1053 0.930 . S
C1059 C1055 1.400 . S
C1059 C1058 1.385 . S
C1060 C1058 1.478 . S
C1060 C1062 1.381 . S
C1060 C1066 1.383 . S
C1061 C1057 1.495 . S
C1061 H1067 0.959 . S
C1061 H1068 0.961 . S
C1061 H1069 0.960 . S
C1062 C1060 1.381 . S
C1062 C1063 1.394 . S
C1062 H1070 0.930 . S
C1063 C1062 1.394 . S
C1063 C1064 1.383 . S
C1063 H1071 0.929 . S
C1064 C1063 1.383 . S
C1064 C1065 1.377 . S
C1065 H1049 0.930 . S
C1065 C1064 1.377 . S
C1065 C1066 1.379 . S
C1066 H1050 0.931 . S
C1066 C1060 1.383 . S
C1066 C1065 1.379 . S
H1067 C1061 0.959 . S
H1068 C1061 0.961 . S
H1069 C1061 0.960 . S
H1070 C1062 0.930 . S
H1071 C1063 0.929 . S
H1072 C1080 0.929 . S
H1073 C1082 0.930 . S
H1074 C1084 0.936 . S
H1075 C1087 0.929 . S
H1076 C1090 0.930 . S
H1077 C1092 0.960 . S
H1078 C1092 0.960 . S
H1079 C1092 0.960 . S
C1080 H1072 0.929 . S
C1080 C1081 1.377 . S
C1080 C1082 1.384 . S
C1081 C1080 1.377 . S
C1081 C1087 1.390 . S
C1082 H1073 0.930 . S
C1082 C1080 1.384 . S
C1082 C1083 1.372 . S
C1083 C1082 1.372 . S
C1083 C1084 1.400 . S
C1083 C1088 1.490 . S
C1084 H1074 0.936 . S
C1084 C1083 1.400 . S
C1084 C1087 1.386 . S
H1085 C1101 0.930 . S
H1086 C1102 0.931 . S
C1087 H1075 0.929 . S
C1087 C1081 1.390 . S
C1087 C1084 1.386 . S
C1088 C1083 1.490 . S
C1088 C1090 1.395 . S
C1088 C1091 1.403 1_455 S
H1089 C1095 0.930 . S
C1090 H1076 0.930 . S
C1090 C1088 1.395 . S
C1090 C1093 1.403 1_554 S
C1091 C1088 1.403 1_655 S
C1091 C1092 1.524 . S
C1091 C1095 1.400 1_554 S
C1092 H1077 0.960 . S
C1092 H1078 0.960 . S
C1092 H1079 0.960 . S
C1092 C1091 1.524 . S
C1093 C1090 1.403 1_556 S
C1093 C1094 1.392 1_455 S
C1093 C1097 1.495 . S
C1094 C1093 1.392 1_655 S
C1094 C1095 1.385 . S
C1094 C1096 1.478 . S
C1095 H1089 0.930 . S
C1095 C1091 1.400 1_556 S
C1095 C1094 1.385 . S
C1096 C1094 1.478 . S
C1096 C1098 1.381 . S
C1096 C1102 1.383 . S
C1097 C1093 1.495 . S
C1097 H1103 0.959 . S
C1097 H1104 0.961 . S
C1097 H1105 0.960 . S
C1098 C1096 1.381 . S
C1098 C1099 1.394 . S
C1098 H1106 0.901 1_655 S
C1099 C1098 1.394 . S
C1099 C1100 1.383 . S
C1099 H1107 0.929 . S
C1100 C1099 1.383 . S
C1100 C1101 1.377 . S
C1101 H1085 0.930 . S
C1101 C1100 1.377 . S
C1101 C1102 1.379 . S
C1102 H1086 0.931 . S
C1102 C1096 1.383 . S
C1102 C1101 1.379 . S
H1103 C1097 0.959 . S
H1104 C1097 0.961 . S
H1105 C1097 0.960 . S
H1106 C1098 0.901 1_455 S
H1107 C1099 0.929 . S
H1108 C1116 0.929 . S
H1109 C1118 0.930 . S
H1110 C1120 0.930 . S
H1111 C1123 0.929 . S
H1112 C1126 0.930 . S
H1113 C1128 0.960 . S
H1114 C1128 0.960 . S
H1115 C1128 0.960 . S
C1116 H1108 0.929 . S
C1116 C1117 1.377 . S
C1116 C1118 1.384 . S
C1117 C1116 1.377 . S
C1117 C1123 1.390 . S
C1118 H1109 0.930 . S
C1118 C1116 1.384 . S
C1118 C1119 1.372 . S
C1119 C1118 1.372 . S
C1119 C1120 1.400 . S
C1119 C1124 1.490 . S
C1120 H1110 0.930 . S
C1120 C1119 1.400 . S
C1120 C1123 1.386 . S
H1121 C1137 0.930 . S
H1122 C1138 0.931 . S
C1123 H1111 0.929 . S
C1123 C1117 1.390 . S
C1123 C1120 1.386 . S
C1124 C1119 1.490 . S
C1124 C1126 1.395 1_455 S
C1124 C1127 1.403 1_565 S
H1125 C1131 0.930 . S
C1126 H1112 0.930 . S
C1126 C1124 1.395 1_655 S
C1126 C1129 1.403 1_556 S
C1127 C1124 1.403 1_545 S
C1127 C1128 1.524 . S
C1127 C1131 1.400 1_556 S
C1128 H1113 0.960 . S
C1128 H1114 0.960 . S
C1128 H1115 0.960 . S
C1128 C1127 1.524 . S
C1129 C1126 1.403 1_554 S
C1129 C1130 1.392 1_565 S
C1129 C1133 1.495 . S
C1130 C1129 1.392 1_545 S
C1130 C1131 1.385 1_655 S
C1130 C1132 1.478 . S
C1131 H1125 0.930 . S
C1131 C1127 1.400 1_554 S
C1131 C1130 1.385 1_455 S
C1132 C1130 1.478 . S
C1132 C1134 1.381 . S
C1132 C1138 1.383 . S
C1133 C1129 1.495 . S
C1133 H1139 0.959 1_554 S
C1133 H1140 0.961 . S
C1133 H1141 0.960 . S
C1134 C1132 1.381 . S
C1134 C1135 1.394 . S
C1134 H1142 0.930 . S
C1135 C1134 1.394 . S
C1135 C1136 1.383 . S
C1135 H1143 0.929 . S
C1136 C1135 1.383 . S
C1136 C1137 1.377 . S
C1137 H1121 0.930 . S
C1137 C1136 1.377 . S
C1137 C1138 1.379 . S
C1138 H1122 0.931 . S
C1138 C1132 1.383 . S
C1138 C1137 1.379 . S
H1139 C1133 0.959 1_556 S
H1140 C1133 0.961 . S
H1141 C1133 0.960 . S
H1142 C1134 0.930 . S
H1143 C1135 0.929 . S
H1144 C1152 0.929 . S
H1145 C1154 0.930 . S
H1146 C1156 0.930 . S
H1147 C1159 0.929 . S
H1148 C1162 0.930 . S
H1149 C1164 0.960 . S
H1150 C1164 0.960 . S
H1151 C1164 0.960 . S
C1152 H1144 0.929 . S
C1152 C1153 1.377 . S
C1152 C1154 1.384 . S
C1153 C1152 1.377 . S
C1153 C1159 1.390 . S
C1154 H1145 0.930 . S
C1154 C1152 1.384 . S
C1154 C1155 1.372 . S
C1155 C1154 1.372 . S
C1155 C1156 1.400 . S
C1155 C1160 1.490 . S
C1156 H1146 0.930 . S
C1156 C1155 1.400 . S
C1156 C1159 1.386 . S
H1157 C1173 0.930 . S
H1158 C1174 0.931 . S
C1159 H1147 0.929 . S
C1159 C1153 1.390 . S
C1159 C1156 1.386 . S
C1160 C1155 1.490 . S
C1160 C1162 1.395 1_554 S
C1160 C1163 1.403 1_565 S
H1161 C1167 0.931 . S
C1162 H1148 0.930 . S
C1162 C1160 1.395 1_556 S
C1162 C1165 1.403 . S
C1163 C1160 1.403 1_545 S
C1163 C1164 1.524 . S
C1163 C1167 1.405 . S
C1164 H1149 0.960 . S
C1164 H1150 0.960 . S
C1164 H1151 0.960 . S
C1164 C1163 1.524 . S
C1165 C1162 1.403 . S
C1165 C1166 1.392 1_565 S
C1165 C1169 1.495 . S
C1166 C1165 1.392 1_545 S
C1166 C1167 1.380 1_556 S
C1166 C1168 1.478 . S
C1167 H1161 0.931 . S
C1167 C1163 1.405 . S
C1167 C1166 1.380 1_554 S
C1168 C1166 1.478 . S
C1168 C1170 1.381 . S
C1168 C1174 1.383 . S
C1169 C1165 1.495 . S
C1169 H1175 0.959 . S
C1169 H1176 0.961 . S
C1169 H1177 0.960 . S
C1170 C1168 1.381 . S
C1170 C1171 1.394 . S
C1170 H1178 0.930 . S
C1171 C1170 1.394 . S
C1171 C1172 1.383 . S
C1171 H1179 0.929 . S
C1172 C1171 1.383 . S
C1172 C1173 1.377 . S
C1173 H1157 0.930 . S
C1173 C1172 1.377 . S
C1173 C1174 1.379 . S
C1174 H1158 0.931 . S
C1174 C1168 1.383 . S
C1174 C1173 1.379 . S
H1175 C1169 0.959 . S
H1176 C1169 0.961 . S
H1177 C1169 0.960 . S
H1178 C1170 0.930 . S
H1179 C1171 0.929 . S
H1180 C1188 0.929 . S
H1181 C1190 0.930 . S
H1182 C1192 0.930 . S
H1183 C1195 0.929 . S
H1184 C1198 0.930 . S
H1185 C1200 0.960 . S
H1186 C1200 0.960 . S
H1187 C1200 0.960 1_556 S
C1188 H1180 0.929 . S
C1188 C1189 1.377 . S
C1188 C1190 1.384 . S
C1189 C1188 1.377 . S
C1189 C1195 1.390 . S
C1190 H1181 0.930 . S
C1190 C1188 1.384 . S
C1190 C1191 1.372 . S
C1191 C1190 1.372 . S
C1191 C1192 1.400 . S
C1191 C1196 1.490 . S
C1192 H1182 0.930 . S
C1192 C1191 1.400 . S
C1192 C1195 1.386 . S
H1193 C1209 0.930 . S
H1194 C1210 0.931 . S
C1195 H1183 0.929 . S
C1195 C1189 1.390 . S
C1195 C1192 1.386 . S
C1196 C1191 1.490 . S
C1196 C1198 1.395 . S
C1196 C1199 1.403 1_556 S
H1197 C1203 0.930 . S
C1198 H1184 0.930 . S
C1198 C1196 1.395 . S
C1198 C1201 1.403 . S
C1199 C1196 1.403 1_554 S
C1199 C1200 1.524 . S
C1199 C1203 1.400 . S
C1200 H1185 0.960 . S
C1200 H1186 0.960 . S
C1200 H1187 0.960 1_554 S
C1200 C1199 1.524 . S
C1201 C1198 1.403 . S
C1201 C1202 1.392 1_556 S
C1201 C1205 1.495 . S
C1202 C1201 1.392 1_554 S
C1202 C1203 1.385 . S
C1202 C1204 1.478 . S
C1203 H1197 0.930 . S
C1203 C1199 1.400 . S
C1203 C1202 1.385 . S
C1204 C1202 1.478 . S
C1204 C1206 1.381 . S
C1204 C1210 1.383 . S
C1205 C1201 1.495 . S
C1205 H1211 0.959 . S
C1205 H1212 0.961 . S
C1205 H1213 0.960 1_556 S
C1206 C1204 1.381 . S
C1206 C1207 1.394 . S
C1206 H1214 0.930 . S
C1207 C1206 1.394 . S
C1207 C1208 1.383 . S
C1207 H1215 0.929 . S
C1208 C1207 1.383 . S
C1208 C1209 1.377 . S
C1209 H1193 0.930 . S
C1209 C1208 1.377 . S
C1209 C1210 1.379 . S
C1210 H1194 0.931 . S
C1210 C1204 1.383 . S
C1210 C1209 1.379 . S
H1211 C1205 0.959 . S
H1212 C1205 0.961 . S
H1213 C1205 0.960 1_554 S
H1214 C1206 0.930 . S
H1215 C1207 0.929 . S
H1216 C1224 0.929 . S
H1217 C1226 0.930 1_655 S
H1218 C1228 0.930 . S
H1219 C1231 0.929 . S
H1220 C1234 0.930 . S
H1221 C1236 0.960 . S
H1222 C1236 0.960 . S
H1223 C1236 0.960 . S
C1224 H1216 0.929 . S
C1224 C1225 1.377 . S
C1224 C1226 1.384 . S
C1225 C1224 1.377 . S
C1225 C1231 1.390 . S
C1226 H1217 0.930 1_455 S
C1226 C1224 1.384 . S
C1226 C1227 1.372 . S
C1227 C1226 1.372 . S
C1227 C1228 1.400 . S
C1227 C1232 1.490 . S
C1228 H1218 0.930 . S
C1228 C1227 1.400 . S
C1228 C1231 1.386 . S
H1229 C1245 0.930 . S
H1230 C1246 0.931 1_455 S
C1231 H1219 0.929 . S
C1231 C1225 1.390 . S
C1231 C1228 1.386 . S
C1232 C1227 1.490 . S
C1232 C1234 1.395 1_455 S
C1232 C1235 1.403 1_565 S
H1233 C1239 0.930 . S
C1234 H1220 0.930 . S
C1234 C1232 1.395 1_655 S
C1234 C1237 1.403 . S
C1235 C1232 1.403 1_545 S
C1235 C1236 1.524 . S
C1235 C1239 1.400 1_455 S
C1236 H1221 0.960 . S
C1236 H1222 0.960 . S
C1236 H1223 0.960 . S
C1236 C1235 1.524 . S
C1237 C1234 1.403 . S
C1237 C1238 1.392 1_565 S
C1237 C1241 1.495 . S
C1238 C1237 1.392 1_545 S
C1238 C1239 1.385 . S
C1238 C1240 1.478 . S
C1239 H1233 0.930 . S
C1239 C1235 1.400 1_655 S
C1239 C1238 1.385 . S
C1240 C1238 1.478 . S
C1240 C1242 1.381 . S
C1240 C1246 1.383 . S
C1241 C1237 1.495 . S
C1241 H1247 0.959 . S
C1241 H1248 0.961 . S
C1241 H1249 0.960 . S
C1242 C1240 1.381 . S
C1242 C1243 1.394 . S
C1242 H1250 0.930 . S
C1243 C1242 1.394 . S
C1243 C1244 1.383 . S
C1243 H1251 0.929 . S
C1244 C1243 1.383 . S
C1244 C1245 1.377 . S
C1245 H1229 0.930 . S
C1245 C1244 1.377 . S
C1245 C1246 1.379 . S
C1246 H1230 0.931 1_655 S
C1246 C1240 1.383 . S
C1246 C1245 1.379 . S
H1247 C1241 0.959 . S
H1248 C1241 0.961 . S
H1249 C1241 0.960 . S
H1250 C1242 0.930 . S
H1251 C1243 0.929 . S
H1252 C1260 0.929 . S
H1253 C1262 0.930 . S
H1254 C1264 0.930 . S
H1255 C1267 0.929 . S
H1256 C1270 0.930 . S
H1257 C1272 0.960 . S
H1258 C1272 0.960 . S
H1259 C1272 0.960 . S
C1260 H1252 0.929 . S
C1260 C1261 1.377 . S
C1260 C1262 1.384 . S
C1261 C1260 1.377 . S
C1261 C1267 1.390 . S
C1262 H1253 0.930 . S
C1262 C1260 1.384 . S
C1262 C1263 1.372 . S
C1263 C1262 1.372 . S
C1263 C1264 1.400 . S
C1263 C1268 1.490 . S
C1264 H1254 0.930 . S
C1264 C1263 1.400 . S
C1264 C1267 1.386 . S
H1265 C1281 0.930 . S
H1266 C1282 0.931 . S
C1267 H1255 0.929 . S
C1267 C1261 1.390 . S
C1267 C1264 1.386 . S
C1268 C1263 1.490 . S
C1268 C1270 1.395 1_545 S
C1268 C1271 1.403 . S
H1269 C1275 0.930 . S
C1270 H1256 0.930 . S
C1270 C1268 1.395 1_565 S
C1270 C1273 1.403 . S
C1271 C1268 1.403 . S
C1271 C1272 1.524 . S
C1271 C1275 1.400 . S
C1272 H1257 0.960 . S
C1272 H1258 0.960 . S
C1272 H1259 0.960 . S
C1272 C1271 1.524 . S
C1273 C1270 1.403 . S
C1273 C1274 1.392 . S
C1273 C1277 1.495 . S
C1274 C1273 1.392 . S
C1274 C1275 1.385 1_565 S
C1274 C1276 1.478 . S
C1275 H1269 0.930 . S
C1275 C1271 1.400 . S
C1275 C1274 1.385 1_545 S
C1276 C1274 1.478 . S
C1276 C1278 1.381 . S
C1276 C1282 1.383 . S
C1277 C1273 1.495 . S
C1277 H1283 0.959 . S
C1277 H1284 0.961 . S
C1277 H1285 0.960 . S
C1278 C1276 1.381 . S
C1278 C1279 1.394 . S
C1278 H1286 0.930 . S
C1279 C1278 1.394 . S
C1279 C1280 1.383 . S
C1279 H1287 0.929 . S
C1280 C1279 1.383 . S
C1280 C1281 1.377 . S
C1281 H1265 0.930 . S
C1281 C1280 1.377 . S
C1281 C1282 1.379 . S
C1282 H1266 0.931 . S
C1282 C1276 1.383 . S
C1282 C1281 1.379 . S
H1283 C1277 0.959 . S
H1284 C1277 0.961 . S
H1285 C1277 0.960 . S
H1286 C1278 0.930 . S
H1287 C1279 0.929 . S
H1288 C1296 0.929 . S
H1289 C1298 0.930 . S
H1290 C1300 0.930 . S
H1291 C1303 0.929 . S
H1292 C1306 0.930 . S
H1293 C1308 0.960 . S
H1294 C1308 0.960 . S
H1295 C1308 0.960 . S
C1296 H1288 0.929 . S
C1296 C1297 1.377 . S
C1296 C1298 1.384 . S
C1297 C1296 1.377 . S
C1297 C1303 1.390 . S
C1298 H1289 0.930 . S
C1298 C1296 1.384 . S
C1298 C1299 1.372 . S
C1299 C1298 1.372 . S
C1299 C1300 1.400 . S
C1299 C1304 1.490 . S
C1300 H1290 0.930 . S
C1300 C1299 1.400 . S
C1300 C1303 1.386 . S
H1301 C1317 0.930 . S
H1302 C1318 0.931 . S
C1303 H1291 0.929 . S
C1303 C1297 1.390 . S
C1303 C1300 1.386 . S
C1304 C1299 1.490 . S
C1304 C1306 1.395 . S
C1304 C1307 1.403 . S
H1305 C1311 0.930 . S
C1306 H1292 0.930 . S
C1306 C1304 1.395 . S
C1306 C1309 1.403 . S
C1307 C1304 1.403 . S
C1307 C1308 1.524 . S
C1307 C1311 1.400 . S
C1308 H1293 0.960 . S
C1308 H1294 0.960 . S
C1308 H1295 0.960 . S
C1308 C1307 1.524 . S
C1309 C1306 1.403 . S
C1309 C1310 1.392 . S
C1309 C1313 1.495 . S
C1310 C1309 1.392 . S
C1310 C1311 1.385 . S
C1310 C1312 1.478 . S
C1311 H1305 0.930 . S
C1311 C1307 1.400 . S
C1311 C1310 1.385 . S
C1312 C1310 1.478 . S
C1312 C1314 1.381 . S
C1312 C1318 1.383 . S
C1313 C1309 1.495 . S
C1313 H1319 0.959 . S
C1313 H1320 0.961 . S
C1313 H1321 0.960 . S
C1314 C1312 1.381 . S
C1314 C1315 1.394 . S
C1314 H1322 0.930 . S
C1315 C1314 1.394 . S
C1315 C1316 1.383 . S
C1315 H1323 0.929 . S
C1316 C1315 1.383 . S
C1316 C1317 1.377 . S
C1317 H1301 0.930 . S
C1317 C1316 1.377 . S
C1317 C1318 1.379 . S
C1318 H1302 0.931 . S
C1318 C1312 1.383 . S
C1318 C1317 1.379 . S
H1319 C1313 0.959 . S
H1320 C1313 0.961 . S
H1321 C1313 0.960 . S
H1322 C1314 0.930 . S
H1323 C1315 0.929 . S
H1324 C1332 0.929 . S
H1325 C1334 0.930 . S
H1326 C1336 0.930 . S
H1327 C1339 0.929 . S
H1328 C1342 0.930 . S
H1329 C1344 0.960 . S
H1330 C1344 0.960 1_655 S
H1331 C1344 0.960 . S
C1332 H1324 0.929 . S
C1332 C1333 1.377 . S
C1332 C1334 1.384 . S
C1333 C1332 1.377 . S
C1333 C1339 1.390 . S
C1334 H1325 0.930 . S
C1334 C1332 1.384 . S
C1334 C1335 1.372 . S
C1335 C1334 1.372 . S
C1335 C1336 1.400 . S
C1335 C1340 1.490 . S
C1336 H1326 0.930 . S
C1336 C1335 1.400 . S
C1336 C1339 1.386 . S
H1337 C1353 0.930 . S
H1338 C1354 0.931 . S
C1339 H1327 0.929 . S
C1339 C1333 1.390 . S
C1339 C1336 1.386 . S
C1340 C1335 1.490 . S
C1340 C1342 1.395 . S
C1340 C1343 1.403 1_655 S
H1341 C1347 0.930 . S
C1342 H1328 0.930 . S
C1342 C1340 1.395 . S
C1342 C1345 1.403 . S
C1343 C1340 1.403 1_455 S
C1343 C1344 1.524 . S
C1343 C1347 1.400 . S
C1344 H1329 0.960 . S
C1344 H1330 0.960 1_455 S
C1344 H1331 0.960 . S
C1344 C1343 1.524 . S
C1345 C1342 1.403 . S
C1345 C1346 1.392 1_655 S
C1345 C1349 1.495 . S
C1346 C1345 1.392 1_455 S
C1346 C1347 1.385 . S
C1346 C1348 1.478 . S
C1347 H1341 0.930 . S
C1347 C1343 1.400 . S
C1347 C1346 1.385 . S
C1348 C1346 1.478 . S
C1348 C1350 1.381 . S
C1348 C1354 1.383 . S
C1349 C1345 1.495 . S
C1349 H1355 0.959 . S
C1349 H1356 0.961 1_655 S
C1349 H1357 0.960 . S
C1350 C1348 1.381 . S
C1350 C1351 1.394 . S
C1350 H1358 0.930 . S
C1351 C1350 1.394 . S
C1351 C1352 1.383 . S
C1351 H1359 0.929 . S
C1352 C1351 1.383 . S
C1352 C1353 1.377 . S
C1353 H1337 0.930 . S
C1353 C1352 1.377 . S
C1353 C1354 1.379 . S
C1354 H1338 0.931 . S
C1354 C1348 1.383 . S
C1354 C1353 1.379 . S
H1355 C1349 0.959 . S
H1356 C1349 0.961 1_455 S
H1357 C1349 0.960 . S
H1358 C1350 0.930 . S
H1359 C1351 0.929 . S
C217 C3 1.411 . S
C236 C29 1.431 . S
C253 C18 1.404 . S
C272 C42 1.388 . S
C289 C57 1.404 . S
C308 C81 1.386 . S
C325 C94 1.407 . S
C344 C70 1.414 . S
C361 C109 1.408 . S
C380 C135 1.425 . S
C397 C146 1.410 . S
C416 C122 1.376 . S
C433 C187 1.412 . S
C452 C161 1.400 . S
C469 C198 1.405 . S
C488 C174 1.377 . S
C505 C101 0.988 . S
C524 C10 0.990 . S
C541 C17 0.980 . S
C560 C56 0.991 . S
C577 C69 0.988 . S
C596 C36 0.996 . S
C613 C49 0.986 . S
C632 C88 0.971 . S
C649 C205 0.987 . S
C668 C108 0.961 . S
C685 C121 0.987 . S
C704 C160 0.963 . S
C721 C134 0.987 . S
C740 C173 0.963 . S
C757 C186 0.987 . S
C776 C153 0.962 . S
C793 C5 0.423 . S
C812 C55 0.470 . S
C829 C16 0.424 . S
C848 C68 0.489 . S
C865 C83 0.401 . S
C884 C31 0.363 . S
C901 C44 0.414 . S
C920 C96 0.456 . S
C937 C159 0.413 . S
C956 C107 0.478 . S
C973 C172 0.398 . S
C992 C120 0.487 . S
C1009 C133 0.418 . S
C1028 C185 0.464 . S
C1045 C148 0.407 . S
C1064 C200 0.338 . S
C1081 C4 1.555 . S
C1100 C114 1.553 . S
C1117 C127 1.549 . S
C1136 C23 1.553 . S
C1153 C30 1.549 . S
C1172 C140 1.534 . S
C1189 C147 1.555 . S
C1208 C43 1.558 . S
C1225 C62 1.549 . S
C1244 C166 1.533 . S
C1261 C75 1.552 . S
C1280 C179 1.564 . S
C1297 C192 1.550 . S
C1316 C82 1.531 . S
C1333 C95 1.551 . S
C1352 C199 1.532 . S
