# Generated by pormake.
# Topology snz, (6)-cn, num edge types: 1
# Building blocks:
#     Node 0, Type 0, BuildingBlock: KUMBUR_clean_sbu_1, # of connection points: 6
#     Node 1, Type 0, BuildingBlock: KUMBUR_clean_sbu_1, # of connection points: 6
#     Node 2, Type 0, BuildingBlock: KUMBUR_clean_sbu_1, # of connection points: 6
#     Node 3, Type 0, BuildingBlock: KUMBUR_clean_sbu_1, # of connection points: 6
#     Node 4, Type 0, BuildingBlock: KUMBUR_clean_sbu_1, # of connection points: 6
#     Node 5, Type 0, BuildingBlock: KUMBUR_clean_sbu_1, # of connection points: 6
#     Node 6, Type 0, BuildingBlock: KUMBUR_clean_sbu_1, # of connection points: 6
#     Node 7, Type 0, BuildingBlock: KUMBUR_clean_sbu_1, # of connection points: 6
#     Node 8, Type 0, BuildingBlock: KUMBUR_clean_sbu_1, # of connection points: 6
#     Edge 9, Type (0, 0), BuildingBlock: CIFDUS_clean_linker_0, # of connection points: 2
#     Edge 10, Type (0, 0), BuildingBlock: CIFDUS_clean_linker_0, # of connection points: 2
#     Edge 11, Type (0, 0), BuildingBlock: CIFDUS_clean_linker_0, # of connection points: 2
#     Edge 12, Type (0, 0), BuildingBlock: CIFDUS_clean_linker_0, # of connection points: 2
#     Edge 13, Type (0, 0), BuildingBlock: CIFDUS_clean_linker_0, # of connection points: 2
#     Edge 14, Type (0, 0), BuildingBlock: CIFDUS_clean_linker_0, # of connection points: 2
#     Edge 15, Type (0, 0), BuildingBlock: CIFDUS_clean_linker_0, # of connection points: 2
#     Edge 16, Type (0, 0), BuildingBlock: CIFDUS_clean_linker_0, # of connection points: 2
#     Edge 17, Type (0, 0), BuildingBlock: CIFDUS_clean_linker_0, # of connection points: 2
#     Edge 18, Type (0, 0), BuildingBlock: CIFDUS_clean_linker_0, # of connection points: 2
#     Edge 19, Type (0, 0), BuildingBlock: CIFDUS_clean_linker_0, # of connection points: 2
#     Edge 20, Type (0, 0), BuildingBlock: CIFDUS_clean_linker_0, # of connection points: 2
#     Edge 21, Type (0, 0), BuildingBlock: CIFDUS_clean_linker_0, # of connection points: 2
#     Edge 22, Type (0, 0), BuildingBlock: CIFDUS_clean_linker_0, # of connection points: 2
#     Edge 23, Type (0, 0), BuildingBlock: CIFDUS_clean_linker_0, # of connection points: 2
#     Edge 24, Type (0, 0), BuildingBlock: CIFDUS_clean_linker_0, # of connection points: 2
#     Edge 25, Type (0, 0), BuildingBlock: CIFDUS_clean_linker_0, # of connection points: 2
#     Edge 26, Type (0, 0), BuildingBlock: CIFDUS_clean_linker_0, # of connection points: 2
#     Edge 27, Type (0, 0), BuildingBlock: CIFDUS_clean_linker_0, # of connection points: 2
#     Edge 28, Type (0, 0), BuildingBlock: CIFDUS_clean_linker_0, # of connection points: 2
#     Edge 29, Type (0, 0), BuildingBlock: CIFDUS_clean_linker_0, # of connection points: 2
#     Edge 30, Type (0, 0), BuildingBlock: CIFDUS_clean_linker_0, # of connection points: 2
#     Edge 31, Type (0, 0), BuildingBlock: CIFDUS_clean_linker_0, # of connection points: 2
#     Edge 32, Type (0, 0), BuildingBlock: CIFDUS_clean_linker_0, # of connection points: 2
#     Edge 33, Type (0, 0), BuildingBlock: CIFDUS_clean_linker_0, # of connection points: 2
#     Edge 34, Type (0, 0), BuildingBlock: CIFDUS_clean_linker_0, # of connection points: 2
#     Edge 35, Type (0, 0), BuildingBlock: CIFDUS_clean_linker_0, # of connection points: 2
# Relax obj value: 0.294
# Max RMSD: 0.174
# Mean RMSD: 0.118
data_MOF--net-snz--node1-KUMBUR_clean_sbu_1--edge1-CIFDUS_clean_linker_0
_symmetry_space_group_name_H-M    P1
_symmetry_Int_Tables_number       1
_symmetry_cell_setting            triclinic
loop_
_symmetry_equiv_pos_as_xyz
'x, y, z'
_cell_length_a     60.144567
_cell_length_b     47.122989
_cell_length_c     14.788808
_cell_angle_alpha  96.632397
_cell_angle_beta   95.776037
_cell_angle_gamma 121.4139
loop_
_atom_site_label
_atom_site_type_symbol
_atom_site_fract_x
_atom_site_fract_y
_atom_site_fract_z
_atom_type_partial_charge
Tb0 Tb 0.03648 0.50568 0.16803 0.0
C1 C 0.15268 0.54437 0.14273 0.0
N2 N 0.12968 0.51364 0.11664 0.0
C3 C 0.14611 0.50006 0.98777 0.0
C4 C 0.17287 0.55499 0.08972 0.0
C5 C 0.12666 0.49079 1.0427 0.0
C6 C 0.16902 0.53264 1.00995 0.0
C7 C 0.18213 0.59321 0.26491 0.0
C8 C 0.15723 0.56311 0.22878 0.0
C9 C 0.20144 0.60569 0.20894 0.0
C10 C 0.19683 0.58653 0.12133 0.0
Tb11 Tb 0.09855 0.50134 0.20868 0.0
N12 N 0.13845 0.54938 0.28154 0.0
C13 C 0.1875 0.60842 0.35807 0.0
C14 C 0.14472 0.56213 0.37498 0.0
C15 C 0.16902 0.59221 0.41404 0.0
H16 H 0.10868 0.46592 1.02366 0.0
H17 H 0.17343 0.6029 0.48718 0.0
H18 H 1.00267 0.45871 0.31789 0.0
H19 H 0.99487 0.51334 0.83546 0.0
H20 H 0.13062 0.54989 0.41903 0.0
H21 H 0.20637 0.63157 0.38858 0.0
H22 H 0.02662 0.53598 0.98456 0.0
H23 H 0.14324 0.4822 0.92773 0.0
H24 H 0.22053 0.62908 0.23477 0.0
H25 H 0.21242 0.59544 0.08088 0.0
H26 H 0.96076 0.40441 0.30942 0.0
H27 H 0.18408 0.53973 0.96746 0.0
H28 H 0.95674 0.45376 0.80041 0.0
N29 N 0.99713 0.45682 0.17198 0.0
C30 C 0.97982 0.44073 0.08978 0.0
C31 C 0.96602 0.41417 0.24691 0.0
C32 C 0.95556 0.40959 0.08178 0.0
C33 C 0.98985 0.44502 0.25136 0.0
C34 C 0.94908 0.39596 0.16143 0.0
N35 N 1.00738 0.48903 1.0307 0.0
C36 C 1.01008 0.50983 0.96931 0.0
C37 C 0.96655 0.44343 0.93253 0.0
C38 C 0.98528 0.45734 1.0161 0.0
C39 C 0.9707 0.46346 0.86542 0.0
C40 C 0.99213 0.49715 0.88511 0.0
H41 H 0.93063 0.37212 0.15826 0.0
H42 H 0.91957 0.36971 0.98771 0.0
H43 H 0.92915 0.39947 0.85679 0.0
O44 O 1.00819 0.51973 0.16077 0.0
O45 O 0.03183 0.45605 0.17686 0.0
O46 O 0.06408 0.45975 0.10437 0.0
O47 O 0.04331 0.54696 0.26572 0.0
O48 O 0.05154 0.50757 1.02731 0.0
O49 O 0.08821 0.50309 1.05087 0.0
O50 O 0.08486 0.4557 0.25972 0.0
O51 O 0.10199 0.55046 0.26435 0.0
O52 O 0.07423 0.54991 0.14928 0.0
O53 O 0.12536 0.48664 0.24835 0.0
O54 O 0.08503 0.50287 0.35023 0.0
O55 O 0.04743 0.5052 0.32494 0.0
C56 C 0.03954 0.44144 0.11775 0.0
C57 C 0.02583 0.57896 0.21237 0.0
C58 C 1.00968 0.61215 0.14469 0.0
C59 C 0.03181 0.64177 0.20091 0.0
C60 C 0.04757 0.60936 0.26648 0.0
C61 C 0.05053 0.64035 0.26039 0.0
C62 C 1.00671 0.5805 0.15153 0.0
C63 C 0.07058 0.50551 0.99119 0.0
C64 C 0.02247 0.54612 0.22686 0.0
C65 C 0.93802 0.39401 0.99585 0.0
C66 C 0.94351 0.41094 0.92123 0.0
C67 C 0.09525 0.56769 0.21618 0.0
C68 C 0.10845 0.42771 0.23583 0.0
C69 C 0.12072 0.38514 0.25454 0.0
C70 C 0.11217 0.37329 0.15759 0.0
C71 C 0.09852 0.41278 0.14179 0.0
C72 C 0.11945 0.41358 0.29315 0.0
C73 C 0.10084 0.38639 0.10295 0.0
C74 C 0.06561 0.50417 0.38515 0.0
C75 C 0.10783 0.45855 0.27066 0.0
H76 H 0.0345 0.6663 0.20054 0.0
H77 H 0.06226 0.60928 0.31504 0.0
H78 H 0.06732 0.66344 0.3032 0.0
H79 H 0.9897 0.55728 0.10999 0.0
H80 H 0.11402 0.35336 0.12258 0.0
H81 H 0.08916 0.42187 0.09764 0.0
H82 H 0.12652 0.42426 0.3666 0.0
H83 H 0.0938 0.37593 1.02936 0.0
Tb84 Tb 0.54797 0.52709 1.05106 0.0
C85 C 0.62332 0.48472 0.18961 0.0
N86 N 0.62685 0.51579 0.1909 0.0
C87 C 0.65586 0.53729 0.3397 0.0
C88 C 0.63469 0.4783 0.26651 0.0
C89 C 0.6443 0.54261 0.26197 0.0
C90 C 0.6506 0.50486 0.3428 0.0
C91 C 0.60857 0.42896 0.10201 0.0
C92 C 0.61091 0.4605 0.10732 0.0
C93 C 0.61801 0.4216 0.18099 0.0
C94 C 0.63116 0.44625 0.2628 0.0
Tb95 Tb 0.60691 0.51994 1.05729 0.0
N96 N 0.60276 0.46869 1.03091 0.0
C97 C 0.59769 0.40621 1.01657 0.0
C98 C 0.59362 0.44745 0.94603 0.0
C99 C 0.59049 0.41567 0.93808 0.0
H100 H 0.64833 0.56771 0.25973 0.0
H101 H 0.58256 0.3985 0.87148 0.0
H102 H 0.51066 0.48871 0.8415 0.0
H103 H 0.5617 0.63612 0.2789 0.0
H104 H 0.58791 0.45473 0.88545 0.0
H105 H 0.59546 0.38167 1.00991 0.0
H106 H 0.55805 0.58135 0.24192 0.0
H107 H 0.66885 0.55819 0.39704 0.0
H108 H 0.61617 0.39737 0.17844 0.0
H109 H 0.6394 0.4407 0.32173 0.0
H110 H 0.49063 0.50226 0.71312 0.0
H111 H 0.65976 0.50092 0.4029 0.0
H112 H 0.55179 0.6606 0.15332 0.0
N113 N 0.52724 0.53668 0.93021 0.0
C114 C 0.52971 0.56716 0.94095 0.0
C115 C 0.50157 0.52079 0.7769 0.0
C116 C 0.51902 0.57632 0.86909 0.0
C117 C 0.51263 0.51301 0.8504 0.0
C118 C 0.50516 0.55283 0.78567 0.0
N119 N 0.54821 0.57585 0.09557 0.0
C120 C 0.55402 0.59186 0.18605 0.0
C121 C 0.54195 0.61855 1.04518 0.0
C122 C 0.54089 0.58777 1.02716 0.0
C123 C 0.55054 0.63675 0.13648 0.0
C124 C 0.55605 0.62295 0.20753 0.0
H125 H 0.49661 0.55882 0.7287 0.0
H126 H 0.51387 0.61576 0.82971 0.0
H127 H 0.53411 0.65293 0.98443 0.0
O128 O 0.52572 0.48355 0.10676 0.0
O129 O 0.58527 0.57137 0.13666 0.0
O130 O 0.61164 0.56973 1.04438 0.0
O131 O 0.50918 0.51239 1.06553 0.0
O132 O 0.56207 0.53098 0.20683 0.0
O133 O 0.59549 0.52086 0.20551 0.0
O134 O 0.63506 0.51713 0.98767 0.0
O135 O 0.568 0.46966 1.03892 0.0
O136 O 0.54086 0.48123 0.95798 0.0
O137 O 0.64619 0.56273 0.08019 0.0
O138 O 0.59127 0.51422 0.90141 0.0
O139 O 0.56337 0.5339 0.90887 0.0
C140 C 0.60709 0.58795 0.10483 0.0
C141 C 0.479 0.45397 1.0638 0.0
C142 C 0.43798 0.40778 0.09899 0.0
C143 C 0.42797 0.39578 1.00278 0.0
C144 C 0.46879 0.44105 0.96891 0.0
C145 C 0.44344 0.41201 0.93868 0.0
C146 C 0.46392 0.43684 0.12823 0.0
C147 C 0.57927 0.52544 0.25456 0.0
C148 C 0.50491 0.48579 0.09836 0.0
C149 C 0.52159 0.60798 0.88437 0.0
C150 C 0.53313 0.62915 0.9724 0.0
C151 C 0.54553 0.45845 0.98192 0.0
C152 C 0.6813 0.5546 1.05442 0.0
C153 C 0.72862 0.5825 1.04175 0.0
C154 C 0.73299 0.57189 0.12352 0.0
C155 C 0.68639 0.54181 0.12916 0.0
C156 C 0.70248 0.57442 1.00916 0.0
C157 C 0.71203 0.55113 0.16498 0.0
C158 C 0.57713 0.52497 0.85698 0.0
C159 C 0.65431 0.54804 1.02441 0.0
H160 H 0.40799 0.37426 0.97618 0.0
H161 H 0.48022 0.45348 0.91834 0.0
H162 H 0.43553 0.40236 0.86513 0.0
H163 H 0.47265 0.44652 0.20122 0.0
H164 H 0.75265 0.57921 0.15595 0.0
H165 H 0.67077 0.52471 0.1608 0.0
H166 H 0.69838 0.58288 0.94827 0.0
H167 H 0.71568 0.54208 0.22533 0.0
Tb168 Tb 0.60768 0.13326 0.95904 0.0
C169 C 0.51385 0.984 0.74832 0.0
N170 N 0.51616 0.01444 0.75827 0.0
C171 C 0.48876 0.99737 0.60811 0.0
C172 C 0.4993 0.95912 0.66681 0.0
C173 C 0.503 0.02095 0.69115 0.0
C174 C 0.48721 0.96648 0.59529 0.0
C175 C 0.51909 0.94399 0.82167 0.0
C176 C 0.52381 0.9767 0.82411 0.0
C177 C 0.50611 0.91969 0.73874 0.0
C178 C 0.49629 0.92729 0.66127 0.0
Tb179 Tb 0.54217 0.05245 0.89263 0.0
N180 N 0.53567 1.00064 0.90325 0.0
C181 C 0.52618 0.93619 0.9039 0.0
C182 C 0.5406 0.99227 0.98518 0.0
C183 C 0.53638 0.96017 0.98646 0.0
H184 H 0.5042 0.04484 0.70074 0.0
H185 H 0.54113 0.95404 1.05101 0.0
H186 H 0.64542 0.14672 0.1582 0.0
H187 H 0.59478 0.2201 0.78277 0.0
H188 H 0.54857 1.01059 1.04935 0.0
H189 H 0.52284 0.91132 0.90514 0.0
H190 H 0.59108 0.16647 0.7942 0.0
H191 H 0.47894 1.00298 0.55419 0.0
H192 H 0.50262 0.89455 0.73499 0.0
H193 H 0.48544 0.90791 0.59887 0.0
H194 H 0.67149 0.19273 0.2958 0.0
H195 H 0.4759 0.94809 0.53139 0.0
H196 H 0.61693 0.26767 0.91793 0.0
N197 N 0.63371 0.17491 0.08684 0.0
C198 C 0.63556 0.20488 0.08808 0.0
C199 C 0.66149 0.1965 0.23785 0.0
C200 C 0.65025 0.2319 0.16506 0.0
C201 C 0.64683 0.17057 0.15957 0.0
C202 C 0.66306 0.22725 0.24094 0.0
N203 N 0.61081 0.1826 0.93595 0.0
C204 C 0.60116 0.1868 0.854 0.0
C205 C 0.62635 0.24025 1.00593 0.0
C206 C 0.62378 0.20893 1.00976 0.0
C207 C 0.61544 0.24404 0.92365 0.0
C208 C 0.60301 0.21729 0.84715 0.0
H209 H 0.67452 0.24736 0.3015 0.0
H210 H 0.66318 0.28379 0.22161 0.0
H211 H 0.64222 0.29113 0.08209 0.0
O212 O 0.62673 0.11519 0.87878 0.0
O213 O 0.5718 0.13784 0.95515 0.0
O214 O 0.54164 0.0941 0.83959 0.0
O215 O 0.64871 0.16585 0.95948 0.0
O216 O 0.5946 0.11916 0.7975 0.0
O217 O 0.55493 0.06766 0.75279 0.0
O218 O 0.52449 0.06838 0.98412 0.0
O219 O 0.57638 0.04607 0.91031 0.0
O220 O 0.60705 0.09226 1.02019 0.0
O221 O 0.50169 0.01893 0.89225 0.0
O222 O 0.55543 0.0668 1.05495 0.0
O223 O 0.59512 0.11852 0.10008 0.0
C224 C 0.54954 0.12326 0.89235 0.0
C225 C 0.67321 0.13939 0.9368 0.0
C226 C 0.71669 0.14571 0.92436 0.0
C227 C 0.71503 0.13169 1.00442 0.0
C228 C 0.67331 0.1264 1.01705 0.0
C229 C 0.69374 0.12229 1.04991 0.0
C230 C 0.69513 0.14901 0.88954 0.0
C231 C 0.57562 0.09411 0.72763 0.0
C232 C 0.65032 0.14313 0.90603 0.0
C233 C 0.65213 0.26279 0.16294 0.0
C234 C 0.6402 0.26696 0.0835 0.0
C235 C 0.59681 0.06058 0.97959 0.0
C236 C 0.47817 0.04327 0.94258 0.0
C237 C 0.43955 0.03666 1.00028 0.0
C238 C 0.43447 0.05018 0.92675 0.0
C239 C 0.47254 0.05578 0.86803 0.0
C240 C 0.46154 0.03346 1.00776 0.0
C241 C 0.45083 0.05944 0.86062 0.0
C242 C 0.57421 0.09213 0.12523 0.0
C243 C 0.50124 0.04022 0.95554 0.0
H244 H 0.7303 0.12763 1.0322 0.0
H245 H 0.65742 0.11946 1.05479 0.0
H246 H 0.69311 0.11178 0.11165 0.0
H247 H 0.69562 0.15948 0.82779 0.0
H248 H 0.41769 0.05307 0.91978 0.0
H249 H 0.4849 0.06272 0.81614 0.0
H250 H 0.46599 0.02378 1.06541 0.0
H251 H 0.44664 0.06943 0.80347 0.0
Tb252 Tb 0.69125 0.8629 0.30931 0.0
C253 C 0.80893 0.92625 0.38519 0.0
N254 N 0.7898 0.90646 0.30861 0.0
C255 C 0.81584 0.94651 0.21688 0.0
C256 C 0.83154 0.95785 0.38159 0.0
C257 C 0.79373 0.91539 0.22388 0.0
C258 C 0.83457 0.96814 0.2963 0.0
C259 C 0.82647 0.93257 0.54596 0.0
C260 C 0.80636 0.91388 0.46623 0.0
C261 C 0.84807 0.96511 0.54479 0.0
C262 C 0.85062 0.97773 0.4626 0.0
Tb263 Tb 0.75316 0.85745 0.33154 0.0
N264 N 0.78549 0.88208 0.46395 0.0
C265 C 0.82499 0.91725 0.62264 0.0
C266 C 0.78572 0.8658 0.53472 0.0
C267 C 0.80491 0.88336 0.61597 0.0
H268 H 0.77981 0.89913 0.1613 0.0
H269 H 0.8044 0.87058 0.67276 0.0
H270 H 0.67809 0.88935 0.50503 0.0
H271 H 0.61942 0.76128 1.02472 0.0
H272 H 0.77107 0.83908 0.5278 0.0
H273 H 0.84003 0.93071 0.68519 0.0
H274 H 0.65904 0.81788 0.09505 0.0
H275 H 0.81843 0.95379 0.15006 0.0
H276 H 0.86346 0.98012 0.60586 0.0
H277 H 0.86784 1.00238 0.46166 0.0
H278 H 0.64578 0.86381 0.60746 0.0
H279 H 0.85163 0.99223 0.29058 0.0
H280 H 0.58988 0.72546 0.12398 0.0
N281 N 0.6606 0.84359 0.40496 0.0
C282 C 0.63965 0.81115 0.37684 0.0
C283 C 0.64389 0.84861 0.54296 0.0
C284 C 0.62064 0.79547 0.43273 0.0
C285 C 0.66201 0.86308 0.48427 0.0
C286 C 0.62343 0.81441 0.51806 0.0
N287 N 0.65294 0.81316 0.23347 0.0
C288 C 0.64627 0.80246 0.13895 0.0
C289 C 0.61257 0.76307 0.25024 0.0
C290 C 0.63565 0.79525 0.28727 0.0
C291 C 0.60734 0.75015 0.1552 0.0
C292 C 0.6239 0.77036 0.0989 0.0
H293 H 0.60928 0.80333 0.56319 0.0
H294 H 0.58417 0.7494 0.44179 0.0
H295 H 0.57713 0.72089 0.2815 0.0
O296 O 0.70138 0.90858 0.26234 0.0
O297 O 0.68951 0.81604 0.24306 0.0
O298 O 0.71605 0.81315 0.35356 0.0
O299 O 0.66199 0.87442 0.27897 0.0
O300 O 0.70582 0.86614 0.16886 0.0
O301 O 0.73822 0.85339 0.17368 0.0
O302 O 0.78142 0.84339 0.34885 0.0
O303 O 0.75683 0.90714 0.33031 0.0
O304 O 0.72627 0.90403 0.41165 0.0
O305 O 0.74939 0.81844 0.2329 0.0
O306 O 0.73724 0.85077 0.47091 0.0
O307 O 0.70505 0.86389 0.4667 0.0
C308 C 0.69474 0.79708 0.2884 0.0
C309 C 0.67457 0.93199 0.28871 0.0
C310 C 0.66161 0.97371 0.26588 0.0
C311 C 0.66553 0.98206 0.36345 0.0
C312 C 0.67963 0.94328 0.38452 0.0
C313 C 0.67474 0.96756 0.42131 0.0
C314 C 0.66559 0.94748 0.22852 0.0
C315 C 0.72172 0.8599 0.12319 0.0
C316 C 0.67756 0.90299 0.25444 0.0
C317 C 0.59875 0.76216 0.39931 0.0
C318 C 0.59474 0.74592 0.30805 0.0
C319 C 0.75054 0.92165 0.39574 0.0
C320 C 0.7642 0.78452 0.29269 0.0
C321 C 0.77986 0.74908 0.34976 0.0
C322 C 0.75571 0.72016 0.30034 0.0
C323 C 0.74031 0.75471 0.24728 0.0
C324 C 0.78393 0.78153 0.34472 0.0
C325 C 0.73618 0.72301 0.25129 0.0
C326 C 0.72123 0.85682 0.51708 0.0
C327 C 0.76892 0.81819 0.27902 0.0
H328 H 0.66164 1.00038 0.39633 0.0
H329 H 0.68705 0.93286 0.43143 0.0
H330 H 0.67811 0.97525 0.4958 0.0
H331 H 0.66213 0.93956 0.1541 0.0
H332 H 0.75181 0.69489 0.29715 0.0
H333 H 0.72485 0.75572 0.20641 0.0
H334 H 0.80227 0.80441 0.38054 0.0
H335 H 0.71781 0.70036 0.21437 0.0
Tb336 Tb 0.18779 0.84613 0.44284 0.0
C337 C 0.27151 0.80806 0.58014 0.0
N338 N 0.27318 0.83811 0.59193 0.0
C339 C 0.30278 0.85689 0.73791 0.0
C340 C 0.28518 0.80093 0.64759 0.0
C341 C 0.28902 0.86287 0.66845 0.0
C342 C 0.30065 0.82565 0.72789 0.0
C343 C 0.25682 0.75497 0.47845 0.0
C344 C 0.25749 0.78545 0.49713 0.0
C345 C 0.26936 0.74689 0.54698 0.0
C346 C 0.28351 0.76983 0.63145 0.0
Tb347 Tb 0.24751 0.84369 0.47993 0.0
N348 N 0.24593 0.79444 0.43252 0.0
C349 C 0.24435 0.73416 0.39051 0.0
C350 C 0.23541 0.77539 0.34446 0.0
C351 C 0.23399 0.74471 0.32278 0.0
H352 H 0.29053 0.88694 0.67658 0.0
H353 H 0.22483 0.72917 0.25391 0.0
H354 H 0.14589 0.80869 0.23974 0.0
H355 H 0.21426 0.96024 0.68027 0.0
H356 H 0.22705 0.78291 0.29153 0.0
H357 H 0.24329 0.71044 0.37341 0.0
H358 H 0.20758 0.90385 0.63802 0.0
H359 H 0.31498 0.87634 0.79911 0.0
H360 H 0.26883 0.72342 0.53437 0.0
H361 H 0.29366 0.76369 0.68275 0.0
H362 H 0.12664 0.8257 0.1176 0.0
H363 H 0.31144 0.82115 0.78153 0.0
H364 H 0.20247 0.98529 0.56077 0.0
N365 N 0.16704 0.85749 0.32767 0.0
C366 C 0.17173 0.88931 0.34254 0.0
C367 C 0.13939 0.84387 0.18036 0.0
C368 C 0.16103 0.90003 0.27528 0.0
C369 C 0.15017 0.83426 0.24969 0.0
C370 C 0.14517 0.87705 0.19255 0.0
N371 N 0.19317 0.89743 0.49466 0.0
C372 C 0.20225 0.91432 0.58506 0.0
C373 C 0.18832 0.94193 0.45065 0.0
C374 C 0.18513 0.90994 0.42923 0.0
C375 C 0.1996 0.96054 0.54154 0.0
C376 C 0.20617 0.94642 0.60931 0.0
H377 H 0.13659 0.88433 0.13905 0.0
H378 H 0.15777 0.94161 0.24315 0.0
H379 H 0.18172 0.97833 0.39666 0.0
O380 O 0.16033 0.80462 0.49751 0.0
O381 O 0.22698 0.89652 0.46304 0.0
O382 O 0.25426 0.89066 0.56416 0.0
O383 O 0.15069 0.83936 0.45288 0.0
O384 O 0.19969 0.84724 0.60028 0.0
O385 O 0.23763 0.84639 0.62748 0.0
O386 O 0.26621 0.88093 0.40063 0.0
O387 O 0.20999 0.79335 0.46409 0.0
O388 O 0.18043 0.79696 0.36621 0.0
O389 O 0.28697 0.86056 0.46961 0.0
O390 O 0.23377 0.83857 0.32092 0.0
O391 O 0.19753 0.84309 0.29538 0.0
C392 C 0.24848 0.91087 0.52874 0.0
C393 C 0.11467 0.78349 0.44146 0.0
C394 C 0.06651 0.75405 0.43769 0.0
C395 C 0.06239 0.7335 0.35265 0.0
C396 C 0.10981 0.76203 0.35808 0.0
C397 C 0.08384 0.73736 0.31386 0.0
C398 C 0.09301 0.77927 0.48143 0.0
C399 C 0.21762 0.84624 0.66145 0.0
C400 C 0.14202 0.81163 0.48468 0.0
C401 C 0.16554 0.93273 0.29437 0.0
C402 C 0.17918 0.95364 0.38187 0.0
C403 C 0.1879 0.778 0.40156 0.0
C404 C 0.31305 0.91579 0.43788 0.0
C405 C 0.35139 0.95831 0.38191 0.0
C406 C 0.35922 0.98079 0.46694 0.0
C407 C 0.32144 0.93815 0.52306 0.0
C408 C 0.3281 0.92588 0.36799 0.0
C409 C 0.34436 0.97064 0.53711 0.0
C410 C 0.2165 0.84094 0.26031 0.0
C411 C 0.28847 0.88204 0.4182 0.0
H412 H 0.04254 0.7147 0.31493 0.0
H413 H 0.12607 0.76467 0.32646 0.0
H414 H 0.08031 0.72136 0.2485 0.0
H415 H 0.09693 0.79562 0.54668 0.0
H416 H 0.37708 1.00593 0.4798 0.0
H417 H 0.31011 0.93073 0.57783 0.0
H418 H 0.32145 0.9085 0.30208 0.0
H419 H 0.35062 0.98803 0.60256 0.0
Tb420 Tb 0.25041 0.31738 0.60959 0.0
C421 C 0.15814 0.16144 0.4499 0.0
N422 N 0.15949 0.19069 0.44255 0.0
C423 C 0.13099 0.16438 0.29265 0.0
C424 C 0.14331 0.13245 0.37821 0.0
C425 C 0.1459 0.19241 0.36567 0.0
C426 C 0.12981 0.13431 0.29866 0.0
C427 C 0.16895 0.12985 0.54348 0.0
C428 C 0.17072 0.1602 0.53138 0.0
C429 C 0.15489 0.10117 0.47136 0.0
C430 C 0.14207 0.10246 0.38889 0.0
Tb431 Tb 0.18537 0.23562 0.56365 0.0
N432 N 0.18394 0.1884 0.59981 0.0
C433 C 0.18095 0.12902 0.62824 0.0
C434 C 0.19485 0.18713 0.68414 0.0
C435 C 0.19378 0.15771 0.699 0.0
H436 H 0.14722 0.21576 0.35904 0.0
H437 H 0.20298 0.15726 0.76516 0.0
H438 H 0.29141 0.32833 0.79694 0.0
H439 H 0.24609 0.41147 0.44465 0.0
H440 H 0.20543 0.20894 0.73978 0.0
H441 H 0.1801 0.10624 0.64018 0.0
H442 H 0.23972 0.35571 0.45062 0.0
H443 H 0.12059 0.16611 0.23151 0.0
H444 H 0.15344 0.07772 0.47925 0.0
H445 H 0.13092 0.07999 0.3344 0.0
H446 H 0.3193 0.37265 0.93671 0.0
H447 H 0.11823 0.11262 0.24202 0.0
H448 H 0.26679 0.45648 0.58617 0.0
N449 N 0.27829 0.35748 0.73843 0.0
C450 C 0.28039 0.38777 0.74637 0.0
C451 C 0.3084 0.37722 0.88379 0.0
C452 C 0.29621 0.41392 0.82447 0.0
C453 C 0.2927 0.35224 0.80427 0.0
C454 C 0.30986 0.40803 0.89462 0.0
N455 N 0.2557 0.36835 0.59513 0.0
C456 C 0.24878 0.37502 0.51295 0.0
C457 C 0.27294 0.42584 0.67135 0.0
C458 C 0.26876 0.39351 0.67149 0.0
C459 C 0.26393 0.43196 0.58934 0.0
C460 C 0.25237 0.40668 0.50921 0.0
H461 H 0.32221 0.42745 0.95587 0.0
H462 H 0.31064 0.4658 0.88767 0.0
H463 H 0.29036 0.47635 0.75304 0.0
O464 O 0.2675 0.29866 0.52239 0.0
O465 O 0.21554 0.32226 0.5974 0.0
O466 O 0.18405 0.2742 0.49529 0.0
O467 O 0.28934 0.35133 0.59449 0.0
O468 O 0.23513 0.30108 0.44831 0.0
O469 O 0.19666 0.24793 0.41928 0.0
O470 O 0.16592 0.25442 0.63932 0.0
O471 O 0.22135 0.23135 0.56807 0.0
O472 O 0.25315 0.27857 0.67172 0.0
O473 O 0.14468 0.20268 0.56647 0.0
O474 O 0.1998 0.25341 0.72464 0.0
O475 O 0.23981 0.30476 0.75362 0.0
C476 C 0.19413 0.3062 0.53207 0.0
C477 C 0.31472 0.32896 0.55484 0.0
C478 C 0.3573 0.34705 0.51018 0.0
C479 C 0.36553 0.33998 0.5922 0.0
C480 C 0.32288 0.32132 0.63563 0.0
C481 C 0.34815 0.32653 0.65374 0.0
C482 C 0.33177 0.34115 0.4915 0.0
C483 C 0.21585 0.27357 0.38504 0.0
C484 C 0.28996 0.32822 0.53916 0.0
C485 C 0.29882 0.44546 0.82784 0.0
C486 C 0.28724 0.45145 0.75123 0.0
C487 C 0.24451 0.24794 0.62676 0.0
C488 C 0.11904 0.22785 0.58023 0.0
C489 C 0.07637 0.22328 0.59414 0.0
C490 C 0.07445 0.22884 0.50332 0.0
C491 C 0.11606 0.23367 0.49042 0.0
C492 C 0.09897 0.22284 0.63306 0.0
C493 C 0.0941 0.23411 0.4524 0.0
C494 C 0.22008 0.27991 0.78764 0.0
C495 C 0.14261 0.22592 0.61496 0.0
H496 H 0.38536 0.34501 0.60876 0.0
H497 H 0.31006 0.31226 0.68548 0.0
H498 H 0.3545 0.32093 0.71667 0.0
H499 H 0.32564 0.34756 0.42957 0.0
H500 H 0.05772 0.22959 0.4719 0.0
H501 H 0.13079 0.23775 0.44913 0.0
H502 H 0.10086 0.2186 0.70305 0.0
H503 H 0.09231 0.23863 0.38269 0.0
Tb504 Tb 0.39049 0.17782 0.88102 0.0
C505 C 0.41476 0.15854 0.48844 0.0
N506 N 0.4269 0.18697 0.55485 0.0
C507 C 0.46925 0.20118 0.5212 0.0
C508 C 0.42936 0.14882 0.43957 0.0
C509 C 0.45377 0.20895 0.57057 0.0
C510 C 0.45703 0.17062 0.45667 0.0
C511 C 0.37362 0.10941 0.40194 0.0
C512 C 0.38747 0.13966 0.4686 0.0
C513 C 0.38789 0.09765 0.35916 0.0
C514 C 0.41578 0.11768 0.37629 0.0
Tb515 Tb 0.40029 0.19032 0.64847 0.0
N516 N 0.37461 0.15134 0.51479 0.0
C517 C 0.34597 0.09237 0.37915 0.0
C518 C 0.34771 0.136 0.48898 0.0
C519 C 0.33306 0.1064 0.42055 0.0
H520 H 0.46328 0.23167 0.62372 0.0
H521 H 0.31173 0.09381 0.40205 0.0
H522 H 0.32581 0.14415 0.87738 0.0
H523 H 0.4723 0.25269 0.17036 0.0
H524 H 0.33706 0.14506 0.52376 0.0
H525 H 0.33451 0.06893 0.32808 0.0
H526 H 0.44708 0.20692 1.03151 0.0
H527 H 0.49061 0.21826 0.53472 0.0
H528 H 0.37734 0.07385 0.31003 0.0
H529 H 0.42662 0.10915 0.3398 0.0
H530 H 0.29894 0.1614 0.95533 0.0
H531 H 0.46907 0.16425 0.42017 0.0
H532 H 0.45231 0.28247 0.2401 0.0
N533 N 0.36241 0.18362 0.96274 0.0
C534 C 0.37444 0.20984 1.03576 0.0
C535 C 0.32023 0.17537 0.97842 0.0
C536 C 0.36035 0.22175 0.07925 0.0
C537 C 0.33544 0.1654 0.93517 0.0
C538 C 0.33282 0.20419 1.04946 0.0
N539 N 0.4127 0.20953 1.02613 0.0
C540 C 0.43776 0.2187 1.06359 0.0
C541 C 0.41472 0.25091 0.14454 0.0
C542 C 0.40087 0.22371 1.06832 0.0
C543 C 0.44094 0.26182 0.18073 0.0
C544 C 0.45222 0.24492 0.14178 0.0
H545 H 0.32113 0.21234 0.08156 0.0
H546 H 0.36398 0.26093 0.18278 0.0
H547 H 0.41198 0.28717 0.23984 0.0
O548 O 0.37279 0.14086 0.95878 0.0
O549 O 0.3701 0.20206 0.82175 0.0
O550 O 0.36092 0.18251 0.66665 0.0
O551 O 0.39253 0.13419 0.84987 0.0
O552 O 0.42281 0.23209 0.8912 0.0
O553 O 0.43625 0.23229 0.75094 0.0
O554 O 0.4079 0.22108 0.55013 0.0
O555 O 0.42777 0.17597 0.70851 0.0
O556 O 0.42955 0.18334 0.86622 0.0
O557 O 0.40171 0.23575 0.68612 0.0
O558 O 0.37404 0.13475 0.65377 0.0
O559 O 0.35514 0.13991 0.77307 0.0
C560 C 0.3559 0.19587 0.73925 0.0
C561 C 0.38597 0.10205 0.96988 0.0
C562 C 0.37686 0.09748 0.12157 0.0
C563 C 0.36094 0.0619 0.09523 0.0
C564 C 0.37104 0.06659 0.94161 0.0
C565 C 0.35967 0.04632 1.00654 0.0
C566 C 0.39427 0.11568 1.06424 0.0
C567 C 0.43902 0.24846 0.83533 0.0
C568 C 0.37906 0.12106 0.91393 0.0
C569 C 0.37429 0.25062 0.15069 0.0
C570 C 0.4016 0.26554 0.1827 0.0
C571 C 0.43819 0.17647 0.79247 0.0
C572 C 0.38783 0.25267 0.56011 0.0
C573 C 0.3617 0.23551 0.40928 0.0
C574 C 0.37102 0.2695 0.40505 0.0
C575 C 0.39846 0.2869 0.55662 0.0
C576 C 0.36517 0.22785 0.49598 0.0
C577 C 0.38884 0.29523 0.48072 0.0
C578 C 0.35495 0.12021 0.70158 0.0
C579 C 0.40507 0.24283 0.60393 0.0
H580 H 0.34802 0.04673 0.13941 0.0
H581 H 0.36514 0.05496 0.86865 0.0
H582 H 0.34696 0.01904 0.98464 0.0
H583 H 0.40685 0.1431 0.08345 0.0
H584 H 0.36796 0.27637 0.3399 0.0
H585 H 0.41567 0.30677 0.60685 0.0
H586 H 0.35758 0.2016 0.49932 0.0
H587 H 0.39788 0.32153 0.47514 0.0
Tb588 Tb 0.89577 0.20256 0.65451 0.0
C589 C 0.94171 0.14392 0.88106 0.0
N590 N 0.91663 0.13014 0.83423 0.0
C591 C 0.91537 0.0801 0.76944 0.0
C592 C 0.95528 0.12721 0.86938 0.0
C593 C 0.90283 0.09786 0.78271 0.0
C594 C 0.94187 0.09509 0.81166 0.0
C595 C 0.97916 0.18935 0.99424 0.0
C596 C 0.95335 0.17446 0.94251 0.0
C597 C 0.99343 0.17383 0.97929 0.0
C598 C 0.98147 0.14273 0.91721 0.0
Tb599 Tb 0.89737 0.16044 0.86182 0.0
N600 N 0.93864 0.18823 0.95628 0.0
C601 C 0.9894 0.21854 1.06218 0.0
C602 C 0.94769 0.21478 1.02891 0.0
C603 C 0.97336 0.23084 0.08097 0.0
H604 H 0.88226 0.08603 0.75099 0.0
H605 H 0.98054 0.25231 0.13681 0.0
H606 H 0.93667 0.28732 0.72523 0.0
H607 H 0.79685 0.13161 0.44965 0.0
H608 H 0.93509 0.22339 1.04887 0.0
H609 H 1.00913 0.23074 0.10355 0.0
H610 H 0.84096 0.14244 0.51041 0.0
H611 H 0.90458 0.05487 0.72687 0.0
H612 H 0.01337 0.18506 1.01778 0.0
H613 H 0.99239 0.13052 0.90841 0.0
H614 H 0.93211 0.33577 0.76799 0.0
H615 H 0.95156 0.08133 0.80114 0.0
H616 H 0.7867 0.17546 0.49236 0.0
N617 N 0.89503 0.25116 0.68386 0.0
C618 C 0.87109 0.24728 0.65954 0.0
C619 C 0.91465 0.31086 0.73911 0.0
C620 C 0.86763 0.27461 0.67844 0.0
C621 C 0.91706 0.283 0.71707 0.0
C622 C 0.88971 0.3065 0.72164 0.0
N623 N 0.85525 0.19141 0.58898 0.0
C624 C 0.83669 0.16166 0.5297 0.0
C625 C 0.82572 0.21146 0.57574 0.0
C626 C 0.85053 0.2164 0.60869 0.0
C627 C 0.80605 0.18031 0.51919 0.0
C628 C 0.81171 0.15549 0.49496 0.0
H629 H 0.88794 0.32819 0.73761 0.0
H630 H 0.83943 0.29008 0.66491 0.0
H631 H 0.80262 0.2346 0.57507 0.0
O632 O 0.90131 0.18199 0.53174 0.0
O633 O 0.85926 0.17823 0.71697 0.0
O634 O 0.87678 0.18755 0.86911 0.0
O635 O 0.91032 0.23306 0.55464 0.0
O636 O 0.87823 0.14636 0.61672 0.0
O637 O 0.86348 0.12505 0.74617 0.0
O638 O 0.89554 0.15016 0.9962 0.0
O639 O 0.91804 0.15979 0.74608 0.0
O640 O 0.93451 0.21195 0.71624 0.0
O641 O 0.86342 0.11638 0.88357 0.0
O642 O 0.91113 0.21563 0.90275 0.0
O643 O 0.92781 0.23739 0.77686 0.0
C644 C 0.85754 0.18241 0.8051 0.0
C645 C 0.94172 0.22307 0.49742 0.0
C646 C 0.97257 0.20793 0.44955 0.0
C647 C 0.99405 0.24017 0.49422 0.0
C648 C 0.96349 0.25515 0.54339 0.0
C649 C 0.98945 0.26362 0.54114 0.0
C650 C 0.94655 0.19991 0.45022 0.0
C651 C 0.86264 0.12053 0.65565 0.0
C652 C 0.91415 0.21137 0.5078 0.0
C653 C 0.84258 0.26952 0.65008 0.0
C654 C 0.82164 0.23796 0.5987 0.0
C655 C 0.93776 0.18707 0.72602 0.0
C656 C 0.87708 0.09147 0.98798 0.0
C657 C 0.90271 0.07252 1.07076 0.0
C658 C 0.8847 0.03919 1.02246 0.0
C659 C 0.85933 0.05798 0.93901 0.0
C660 C 0.89857 0.09827 1.05366 0.0
C661 C 0.8632 0.03207 0.95622 0.0
C662 C 0.92728 0.24192 0.86632 0.0
C663 C 0.87453 0.11985 0.96749 0.0
H664 H 0.01424 0.24705 0.49342 0.0
H665 H 0.96053 0.27342 0.5825 0.0
H666 H 1.00608 0.28832 0.57683 0.0
H667 H 0.92981 0.17526 0.41416 0.0
H668 H 0.88716 0.01883 1.03651 0.0
H669 H 0.84263 0.05188 0.88708 0.0
H670 H 0.91206 0.12383 0.09347 0.0
H671 H 0.84938 1.00635 0.91845 0.0
Tb672 Tb 0.91504 0.72701 0.80034 0.0
C673 C 0.8188 0.57662 0.61221 0.0
N674 N 0.83855 0.58819 0.6864 0.0
C675 C 0.80784 0.54886 0.76898 0.0
C676 C 0.79244 0.55137 0.61439 0.0
C677 C 0.83373 0.57375 0.76281 0.0
C678 C 0.78701 0.53797 0.69495 0.0
C679 C 0.80587 0.57648 0.45161 0.0
C680 C 0.82543 0.58885 0.53213 0.0
C681 C 0.77932 0.55228 0.45419 0.0
C682 C 0.77261 0.53974 0.53546 0.0
Tb683 Tb 0.87948 0.63099 0.67266 0.0
N684 N 0.8513 0.61227 0.53276 0.0
C685 C 0.8137 0.58836 0.37073 0.0
C686 C 0.85921 0.62296 0.45299 0.0
C687 C 0.84053 0.61139 0.3712 0.0
H688 H 0.84991 0.58162 0.81917 0.0
H689 H 0.84685 0.62027 0.30857 0.0
H690 H 0.86376 0.73654 0.78909 0.0
H691 H 0.0182 0.81779 0.80464 0.0
H692 H 0.87983 0.64079 0.45215 0.0
H693 H 0.79929 0.57948 0.30729 0.0
H694 H 0.98006 0.76544 0.83613 0.0
H695 H 0.80398 0.53801 0.83056 0.0
H696 H 0.76393 0.54265 0.39327 0.0
H697 H 0.75216 0.52055 0.53591 0.0
H698 H 0.85261 0.77622 0.73683 0.0
H699 H 0.767 0.51856 0.69963 0.0
H700 H 1.01069 0.85789 0.73341 0.0
N701 N 0.90293 0.76328 0.76072 0.0
C702 C 0.92189 0.79159 0.73532 0.0
C703 C 0.87216 0.78078 0.73571 0.0
C704 C 0.91656 0.81519 0.70596 0.0
C705 C 0.87857 0.75829 0.76519 0.0
C706 C 0.89111 0.80909 0.70453 0.0
N707 N 0.9515 0.77549 0.77992 0.0
C708 C 0.97671 0.78279 0.80446 0.0
C709 C 0.96818 0.82813 0.72673 0.0
C710 C 0.94718 0.79789 0.74511 0.0
C711 C 0.99396 0.83492 0.74648 0.0
C712 C 0.99829 0.8124 0.78701 0.0
H713 H 0.88613 0.82652 0.68208 0.0
H714 H 0.93332 0.8629 0.65865 0.0
H715 H 0.97864 0.87432 0.6772 0.0
O716 O 0.90685 0.71601 0.93075 0.0
O717 O 0.9388 0.71461 0.72029 0.0
O718 O 0.9079 0.66992 0.60278 0.0
O719 O 0.93515 0.76708 0.9169 0.0
O720 O 0.93568 0.7002 0.82073 0.0
O721 O 0.90059 0.64693 0.81748 0.0
O722 O 0.91144 0.62538 0.65741 0.0
O723 O 0.87276 0.64433 0.80849 0.0
O724 O 0.8724 0.69211 0.80529 0.0
O725 O 0.87199 0.58164 0.64278 0.0
O726 O 0.86089 0.6579 0.62279 0.0
O727 O 0.89109 0.71649 0.66373 0.0
C728 C 0.93219 0.69622 0.63645 0.0
C729 C 0.94593 0.74809 1.04559 0.0
C730 C 0.96077 0.71923 0.13867 0.0
C731 C 0.98339 0.7509 0.18244 0.0
C732 C 0.96853 0.77943 0.09049 0.0
C733 C 0.98726 0.78073 0.15789 0.0
C734 C 0.94255 0.71823 1.06901 0.0
C735 C 0.92604 0.67021 0.84316 0.0
C736 C 0.926 0.74631 0.9739 0.0
C737 C 0.93704 0.84457 0.68229 0.0
C738 C 0.96284 0.85106 0.69279 0.0
C739 C 0.86124 0.66117 0.82203 0.0
C740 C 0.90121 0.57496 0.56182 0.0
C741 C 0.90785 0.57019 0.40268 0.0
C742 C 0.91664 0.54855 0.41872 0.0
C743 C 0.90963 0.55292 0.57717 0.0
C744 C 0.89934 0.58232 0.47376 0.0
C745 C 0.91696 0.5394 0.50533 0.0
C746 C 0.86862 0.68951 0.61673 0.0
C747 C 0.89658 0.59233 0.63953 0.0
H748 H 0.99766 0.75282 0.23762 0.0
H749 H 0.97171 0.80287 1.07345 0.0
H750 H 1.00461 0.80499 0.19245 0.0
H751 H 0.92545 0.69396 1.03321 0.0
H752 H 0.92367 0.53936 0.36513 0.0
H753 H 0.9111 0.54683 0.64507 0.0
H754 H 0.89325 0.59977 0.46279 0.0
H755 H 0.92378 0.52274 0.51777 0.0
H756 H 0.03676 0.50428 0.82024 0.0
H757 H 0.10921 0.50758 0.89047 0.0
H758 H 0.11442 0.50696 0.72869 0.0
H759 H 0.09944 0.50566 0.55547 0.0
H760 H 0.02726 0.50343 0.48529 0.0
H761 H 0.02194 0.50358 0.64753 0.0
C762 C 0.05396 0.50488 0.80256 0.0
C763 C 0.07242 0.50565 0.87862 0.0
C764 C 0.0572 0.50477 0.70272 0.0
C765 C 0.09395 0.50648 0.84258 0.0
C766 C 0.09711 0.50629 0.74613 0.0
C767 C 0.08226 0.50518 0.57346 0.0
C768 C 0.06381 0.50446 0.49759 0.0
C769 C 0.07902 0.50538 0.67325 0.0
C770 C 0.04235 0.50398 0.53338 0.0
C771 C 0.03916 0.50406 0.62989 0.0
H772 H 0.59735 0.5034 0.69856 0.0
H773 H 0.55475 0.55236 0.74469 0.0
H774 H 0.55077 0.5564 0.58098 0.0
H775 H 0.559 0.5471 0.4129 0.0
H776 H 0.60184 0.49851 0.36723 0.0
H777 H 0.60585 0.49448 0.53088 0.0
C778 C 0.58703 0.51512 0.67488 0.0
C779 C 0.57604 0.52699 0.74429 0.0
C780 C 0.58489 0.518 0.57428 0.0
C781 C 0.56325 0.54191 0.70148 0.0
C782 C 0.56106 0.54456 0.60415 0.0
C783 C 0.56944 0.53555 0.43677 0.0
C784 C 0.5806 0.52388 0.36754 0.0
C785 C 0.57167 0.5328 0.53749 0.0
C786 C 0.59347 0.50909 0.41051 0.0
C787 C 0.59558 0.50634 0.50774 0.0
H788 H 0.54214 0.04999 0.53968 0.0
H789 H 0.61491 0.14607 0.65083 0.0
H790 H 0.62145 0.15453 0.49302 0.0
H791 H 0.60767 0.13616 0.3131 0.0
H792 H 0.53486 0.04013 0.20188 0.0
H793 H 0.52833 0.03164 0.35971 0.0
C794 C 0.55967 0.07312 0.53161 0.0
C795 C 0.57788 0.09721 0.61721 0.0
C796 C 0.56371 0.07835 0.43465 0.0
C797 C 0.59994 0.12628 0.59433 0.0
C798 C 0.60386 0.13134 0.50058 0.0
C799 C 0.59013 0.11304 0.32117 0.0
C800 C 0.57191 0.08896 0.23558 0.0
C801 C 0.58608 0.1078 0.41811 0.0
C802 C 0.54984 0.05989 0.25841 0.0
C803 C 0.54593 0.05482 0.35216 0.0
H804 H 0.69964 0.87704 0.6757 0.0
H805 H 0.74476 0.83151 0.6321 0.0
H806 H 0.75056 0.82977 0.79607 0.0
H807 H 0.74331 0.83989 0.96477 0.0
H808 H 0.6956 0.88181 1.00773 0.0
H809 H 0.69088 0.88515 0.84371 0.0
C810 C 0.71088 0.86654 0.69984 0.0
C811 C 0.72231 0.85536 0.63047 0.0
C812 C 0.71386 0.86456 0.80125 0.0
C813 C 0.7362 0.84194 0.67459 0.0
C814 C 0.73937 0.84043 0.77247 0.0
C815 C 0.73176 0.84998 0.94047 0.0
C816 C 0.7201 0.86074 1.00964 0.0
C817 C 0.72851 0.85166 0.83904 0.0
C818 C 0.70535 0.87308 0.96536 0.0
C819 C 0.7025 0.87509 0.86762 0.0
H820 H 0.24791 0.84122 0.8299 0.0
H821 H 0.1808 0.85002 0.75999 0.0
H822 H 0.17413 0.84915 0.92064 0.0
H823 H 0.18626 0.84595 0.09183 0.0
H824 H 0.25317 0.83677 0.16166 0.0
H825 H 0.2599 0.83774 1.00105 0.0
C826 C 0.23162 0.84305 0.84778 0.0
C827 C 0.21507 0.84586 0.7728 0.0
C828 C 0.22744 0.84238 0.94637 0.0
C829 C 0.19448 0.84791 0.80783 0.0
C830 C 0.19048 0.84737 0.90327 0.0
C831 C 0.20248 0.84398 1.07393 0.0
C832 C 0.21895 0.84103 0.14884 0.0
C833 C 0.20663 0.84458 0.9753 0.0
C834 C 0.2395 0.83889 0.11379 0.0
C835 C 0.24355 0.83952 1.0184 0.0
H836 H 0.18732 0.23326 0.91259 0.0
H837 H 0.25704 0.33285 0.93776 0.0
H838 H 0.26256 0.34048 0.10668 0.0
H839 H 0.24853 0.3204 0.26014 0.0
H840 H 0.1789 0.22071 0.23471 0.0
H841 H 0.17335 0.21315 1.06592 0.0
C842 C 0.20397 0.257 0.95327 0.0
C843 C 0.22176 0.2823 0.90198 0.0
C844 C 0.20734 0.26174 1.05726 0.0
C845 C 0.24262 0.31204 0.96592 0.0
C846 C 0.24587 0.31666 1.06646 0.0
C847 C 0.23188 0.29667 0.21943 0.0
C848 C 0.21411 0.27131 0.27069 0.0
C849 C 0.22853 0.29193 0.11542 0.0
C850 C 0.1933 0.24155 0.20668 0.0
C851 C 0.19002 0.23698 0.10617 0.0
H852 H 0.32617 0.17424 0.29352 0.0
H853 H 0.40934 0.25207 0.37925 0.0
H854 H 0.42137 0.21347 0.31438 0.0
H855 H 0.40881 0.15788 0.23826 0.0
H856 H 0.32632 0.08094 0.13131 0.0
H857 H 0.31342 0.11863 0.2005 0.0
C858 C 0.3468 0.18305 0.29343 0.0
C859 C 0.36679 0.21618 0.33836 0.0
C860 C 0.35375 0.16073 0.25461 0.0
C861 C 0.39359 0.22698 0.34198 0.0
C862 C 0.40054 0.20479 0.30666 0.0
C863 C 0.38797 0.14924 0.23021 0.0
C864 C 0.36864 0.11647 0.18121 0.0
C865 C 0.38083 0.17158 0.26409 0.0
C866 C 0.34168 0.10571 0.17131 0.0
C867 C 0.33428 0.12751 0.20895 0.0
H868 H 0.94992 0.1417 0.45737 0.0
H869 H 1.00274 0.21807 0.3162 0.0
H870 H 0.99194 0.17421 0.18337 0.0
H871 H 0.95505 0.11962 0.0912 0.0
H872 H 0.89734 0.0462 0.22684 0.0
H873 H 0.92284 0.08226 0.3778 0.0
C874 C 0.96001 0.1485 0.39923 0.0
C875 C 0.97625 0.18292 0.3946 0.0
C876 C 0.95214 0.12344 0.3207 0.0
C877 C 0.98972 0.1917 0.32031 0.0
C878 C 0.98323 0.16663 0.24373 0.0
C879 C 0.94905 0.11076 0.15438 0.0
C880 C 0.92397 0.08121 0.14866 0.0
C881 C 0.96257 0.13302 0.24005 0.0
C882 C 0.91637 0.06926 0.2299 0.0
C883 C 0.93072 0.09024 0.31623 0.0
H884 H 0.95318 0.60407 0.33691 0.0
H885 H 0.87069 0.57152 0.28631 0.0
H886 H 0.87989 0.6133 0.1886 0.0
H887 H 0.91228 0.66579 0.14802 0.0
H888 H 0.99555 0.70112 0.20213 0.0
H889 H 0.98526 0.65215 0.27205 0.0
C890 C 0.93714 0.60536 0.30145 0.0
C891 C 0.91139 0.58522 0.31919 0.0
C892 C 0.94288 0.63077 0.24985 0.0
C893 C 0.89066 0.58696 0.27347 0.0
C894 C 0.896 0.61113 0.21884 0.0
C895 C 0.92826 0.66243 0.17163 0.0
C896 C 0.95473 0.6875 0.1703 0.0
C897 C 0.92223 0.63431 0.2111 0.0
C898 C 0.97505 0.68278 0.20432 0.0
C899 C 0.96916 0.65458 0.24348 0.0
H900 H 0.1531 0.28466 0.38412 0.0
H901 H 0.20653 0.3709 0.60259 0.0
H902 H 0.18977 0.40347 0.5395 0.0
H903 H 0.16028 0.40836 0.41628 0.0
H904 H 0.10096 0.31691 0.22092 0.0
H905 H 0.11887 0.2861 0.28226 0.0
C906 C 0.16074 0.31023 0.41998 0.0
C907 C 0.18168 0.32506 0.49772 0.0
C908 C 0.14983 0.32841 0.38652 0.0
C909 C 0.19106 0.35864 0.54124 0.0
C910 C 0.18124 0.37741 0.5054 0.0
C911 C 0.15097 0.38163 0.38772 0.0
C912 C 0.1299 0.36607 0.30934 0.0
C913 C 0.16069 0.36276 0.42703 0.0
C914 C 0.11807 0.33084 0.27676 0.0
C915 C 0.12816 0.3127 0.31274 0.0
H916 H 0.62353 0.63466 0.27216 0.0
H917 H 0.62852 0.63126 0.98319 0.0
H918 H 0.65352 0.69348 1.01025 0.0
H919 H 0.67508 0.75064 0.11702 0.0
H920 H 0.67497 0.75371 0.40902 0.0
H921 H 0.64767 0.69156 0.38023 0.0
C922 C 0.6301 0.6474 0.21479 0.0
C923 C 0.62363 0.6272 0.12484 0.0
C924 C 0.64567 0.68398 0.23176 0.0
C925 C 0.63292 0.64519 1.05295 0.0
C926 C 0.64732 0.6812 1.06859 0.0
C927 C 0.66904 0.73781 0.17458 0.0
C928 C 0.67725 0.75789 0.26589 0.0
C929 C 0.65397 0.70118 0.15776 0.0
C930 C 0.66925 0.73983 0.33836 0.0
C931 C 0.65347 0.70387 0.3217 0.0
H932 H 0.41715 0.97716 1.06096 0.0
H933 H 0.42406 0.07371 0.09825 0.0
H934 H 0.39834 0.05854 0.22107 0.0
H935 H 0.3732 0.0177 0.31862 0.0
H936 H 0.36584 0.92082 0.27937 0.0
H937 H 0.39189 0.93604 0.15664 0.0
C938 C 0.41285 0.99478 0.09606 0.0
C939 C 0.42244 0.02648 1.07073 0.0
C940 C 0.39771 0.98576 0.16621 0.0
C941 C 0.41667 0.04903 0.116 0.0
C942 C 0.40199 0.0404 0.18667 0.0
C943 C 0.37746 1.00006 0.28354 0.0
C944 C 0.36757 0.96817 0.3081 0.0
C945 C 0.39235 1.00888 0.2125 0.0
C946 C 0.37298 0.94538 0.26116 0.0
C947 C 0.38795 0.9541 0.19118 0.0
H948 H 0.51358 0.11727 0.74215 0.0
H949 H 0.54359 0.16196 1.03251 0.0
H950 H 0.51281 0.1814 1.03108 0.0
H951 H 0.47571 0.1853 0.94763 0.0
H952 H 0.44847 0.14335 0.65438 0.0
H953 H 0.47894 0.12404 0.65767 0.0
C954 C 0.51367 0.13148 0.8054 0.0
C955 C 0.53144 0.13765 0.88777 0.0
C956 C 0.49586 0.14335 0.80382 0.0
C957 C 0.53067 0.1565 0.96774 0.0
C958 C 0.51274 0.16764 0.967 0.0
C959 C 0.4764 0.1721 0.88405 0.0
C960 C 0.45903 0.16626 0.80041 0.0
C961 C 0.49494 0.16117 0.88557 0.0
C962 C 0.46109 0.14891 0.72002 0.0
C963 C 0.47875 0.13756 0.72172 0.0
H964 H 0.97451 0.29632 0.83511 0.0
H965 H 0.92317 0.26956 1.03549 0.0
H966 H 0.95214 0.32712 0.12927 0.0
H967 H 0.99287 0.38636 0.15639 0.0
H968 H 0.04369 0.41219 0.95436 0.0
H969 H 0.01477 0.35479 0.86202 0.0
C970 C 0.96942 0.3029 0.89906 0.0
C971 C 0.94606 0.2777 0.92655 0.0
C972 C 0.98643 0.33656 0.95356 0.0
C973 C 0.94068 0.28757 1.01126 0.0
C974 C 0.95738 0.32088 1.06527 0.0
C975 C 0.99746 0.37974 0.0915 0.0
C976 C 0.02072 0.40478 1.06302 0.0
C977 C 0.98039 0.34586 1.03739 0.0
C978 C 0.02628 0.39436 0.97946 0.0
C979 C 1.00953 0.36118 0.92586 0.0
H980 H 0.819 0.67014 0.81535 0.0
H981 H 0.8539 0.62197 0.94913 0.0
H982 H 0.81554 0.59195 1.02059 0.0
H983 H 0.7716 0.57672 1.03909 0.0
H984 H 0.7376 0.62964 0.92828 0.0
H985 H 0.77541 0.65911 0.85093 0.0
C986 C 0.81828 0.65343 0.86123 0.0
C987 C 0.83907 0.6476 0.87446 0.0
C988 C 0.79608 0.63652 0.90487 0.0
C989 C 0.83791 0.62615 0.93499 0.0
C990 C 0.81596 0.60897 0.97638 0.0
C991 C 0.77246 0.59547 1.00105 0.0
C992 C 0.75145 0.60097 0.99198 0.0
C993 C 0.7948 0.61357 0.96081 0.0
C994 C 0.75304 0.62428 0.93689 0.0
C995 C 0.77493 0.64155 0.89314 0.0
H996 H 0.91395 0.61461 0.92278 0.0
H997 H 0.97999 0.70901 0.88113 0.0
H998 H 1.01096 0.69802 0.96344 0.0
H999 H 0.01985 0.66232 1.04725 0.0
H1000 H 0.95483 0.56973 0.10123 0.0
H1001 H 0.92321 0.57874 1.01175 0.0
C1002 C 0.93512 0.6327 0.93137 0.0
C1003 C 0.94446 0.66261 0.89484 0.0
C1004 C 0.95314 0.62635 0.9801 0.0
C1005 C 0.97203 0.68581 0.90787 0.0
C1006 C 0.98987 0.6795 0.95493 0.0
C1007 C 0.99877 0.64406 1.04044 0.0
C1008 C 0.98999 0.61538 0.08214 0.0
C1009 C 0.9807 0.64993 0.99134 0.0
C1010 C 0.96244 0.59178 1.06938 0.0
C1011 C 0.94426 0.59714 1.01879 0.0
H1012 H 0.53697 0.39951 1.04813 0.0
H1013 H 0.5062 0.42856 0.82576 0.0
H1014 H 0.4728 0.36891 0.75974 0.0
H1015 H 0.45078 0.30671 0.76291 0.0
H1016 H 0.47867 0.27743 0.99164 0.0
H1017 H 0.5136 0.33707 1.05476 0.0
C1018 C 0.52309 0.393 0.98497 0.0
C1019 C 0.52497 0.41993 0.94276 0.0
C1020 C 0.50286 0.35764 0.94723 0.0
C1021 C 0.50599 0.40959 0.86121 0.0
C1022 C 0.48658 0.37494 0.82272 0.0
C1023 C 0.46459 0.31314 0.82622 0.0
C1024 C 0.46168 0.2863 0.87084 0.0
C1025 C 0.48462 0.34844 0.86459 0.0
C1026 C 0.47988 0.29649 0.95437 0.0
C1027 C 0.50014 0.33108 0.99091 0.0
H1028 H 0.80708 0.15871 0.70135 0.0
H1029 H 0.85334 0.20221 0.97923 0.0
H1030 H 0.81545 0.19778 1.03674 0.0
H1031 H 0.76863 0.17936 1.01271 0.0
H1032 H 0.72052 0.13454 0.73865 0.0
H1033 H 0.75947 0.14289 0.67564 0.0
C1034 C 0.80901 0.16766 0.77421 0.0
C1035 C 0.83355 0.18077 0.83534 0.0
C1036 C 0.78662 0.16495 0.80805 0.0
C1037 C 0.83509 0.19178 0.92984 0.0
C1038 C 0.81327 0.18934 0.96321 0.0
C1039 C 0.76648 0.17143 0.93887 0.0
C1040 C 0.74117 0.15594 0.88118 0.0
C1041 C 0.78885 0.1756 0.90354 0.0
C1042 C 0.73945 0.14667 0.78539 0.0
C1043 C 0.76181 0.15114 0.74937 0.0
H1044 H 0.63417 0.07838 0.13669 0.0
H1045 H 0.58483 0.99643 0.90324 0.0
H1046 H 0.59968 0.96197 0.96668 0.0
H1047 H 0.62624 0.9541 0.09437 0.0
H1048 H 0.68144 0.04157 0.30867 0.0
H1049 H 0.66572 0.0744 0.24525 0.0
C1050 C 0.62708 0.05338 0.09762 0.0
C1051 C 0.60791 0.04036 1.01498 0.0
C1052 C 0.63693 0.0342 0.13182 0.0
C1053 C 0.59904 1.00737 0.96784 0.0
C1054 C 0.60776 0.98753 1.00401 0.0
C1055 C 0.63519 0.98046 0.12649 0.0
C1056 C 0.65445 0.99431 0.20993 0.0
C1057 C 0.62665 1.00047 0.08685 0.0
C1058 C 0.66582 0.02906 0.24771 0.0
C1059 C 0.65692 0.04829 0.21094 0.0
H1060 H 0.14381 0.73002 0.25459 0.0
H1061 H 0.19496 0.73456 0.49004 0.0
H1062 H 0.17236 0.67314 0.45662 0.0
H1063 H 0.13737 0.61616 0.3626 0.0
H1064 H 0.08665 0.61018 0.12436 0.0
H1065 H 0.10874 0.672 0.15793 0.0
C1066 C 0.15004 0.71778 0.29927 0.0
C1067 C 0.17167 0.7385 0.37595 0.0
C1068 C 0.13664 0.68112 0.2792 0.0
C1069 C 0.17882 0.72069 0.4308 0.0
C1070 C 0.1657 0.68492 0.41165 0.0
C1071 C 0.13126 0.62809 0.31671 0.0
C1072 C 0.11006 0.60708 0.23954 0.0
C1073 C 0.14454 0.66456 0.33606 0.0
C1074 C 0.1027 0.62448 0.18379 0.0
C1075 C 0.1155 0.6604 0.20318 0.0
H1076 H 0.44014 0.43607 0.27624 0.0
H1077 H 0.39751 0.34047 0.07973 0.0
H1078 H 0.36805 0.31432 0.18651 0.0
H1079 H 0.35418 0.31807 0.33669 0.0
H1080 H 0.40096 0.41071 0.54089 0.0
H1081 H 0.4298 0.43809 0.43135 0.0
C1082 C 0.42506 0.40925 0.25678 0.0
C1083 C 0.4212 0.39078 0.16807 0.0
C1084 C 0.40902 0.39357 0.32075 0.0
C1085 C 0.40076 0.35608 0.14543 0.0
C1086 C 0.38402 0.34074 0.20729 0.0
C1087 C 0.37094 0.34411 0.35709 0.0
C1088 C 0.37566 0.36247 0.44617 0.0
C1089 C 0.38789 0.35923 0.29493 0.0
C1090 C 0.39722 0.39618 0.47256 0.0
C1091 C 0.41359 0.41178 0.40997 0.0
H1092 H 0.8786 0.74595 0.54525 0.0
H1093 H 0.81488 0.64653 0.56748 0.0
H1094 H 0.78251 0.65712 0.49397 0.0
H1095 H 0.77186 0.69489 0.42971 0.0
H1096 H 0.83497 0.79256 0.39253 0.0
H1097 H 0.86761 0.78305 0.47059 0.0
C1098 C 0.85764 0.72648 0.53343 0.0
C1099 C 0.84939 0.69536 0.56236 0.0
C1100 C 0.83884 0.73272 0.49036 0.0
C1101 C 0.82205 0.67053 0.54568 0.0
C1102 C 0.8034 0.67672 0.50422 0.0
C1103 C 0.79267 0.71404 0.43568 0.0
C1104 C 0.80041 0.74441 0.4027 0.0
C1105 C 0.81152 0.70776 0.47683 0.0
C1106 C 0.82785 0.76907 0.41703 0.0
C1107 C 0.84673 0.76345 0.46096 0.0
H1108 H 0.33979 0.06884 0.54266 0.0
H1109 H 0.32225 0.08113 0.81422 0.0
H1110 H 0.29017 0.02003 0.78988 0.0
H1111 H 0.26563 0.96112 0.6908 0.0
H1112 H 0.27806 0.95011 0.41067 0.0
H1113 H 0.31208 1.01096 0.43771 0.0
C1114 C 0.32863 0.05857 0.59601 0.0
C1115 C 0.33403 0.08119 0.68054 0.0
C1116 C 0.30871 0.0226 0.57969 0.0
C1117 C 0.31916 0.0657 0.74831 0.0
C1118 C 0.30049 0.03017 0.73431 0.0
C1119 C 0.27567 0.97189 0.63525 0.0
C1120 C 0.26895 0.94977 0.54833 0.0
C1121 C 0.29487 1.00804 0.65022 0.0
C1122 C 0.28235 0.96547 0.47815 0.0
C1123 C 0.30208 1.00073 0.49384 0.0
H1124 H 0.98953 0.24199 0.75403 0.0
H1125 H 0.94104 0.13426 0.64763 0.0
H1126 H 0.97965 0.13482 0.60676 0.0
H1127 H 0.02711 0.16665 0.59052 0.0
H1128 H 0.07611 0.27385 0.70236 0.0
H1129 H 0.03799 0.27282 0.7516 0.0
C1130 C 0.98743 0.21861 0.72219 0.0
C1131 C 0.96209 0.18809 0.70362 0.0
C1132 C 1.0101 0.21901 0.70008 0.0
C1133 C 0.96008 0.15809 0.66323 0.0
C1134 C 0.98228 0.15841 0.63965 0.0
C1135 C 0.02967 0.18954 0.62871 0.0
C1136 C 0.0549 0.22016 0.64515 0.0
C1137 C 1.00741 0.18874 0.65674 0.0
C1138 C 0.05734 0.24977 0.69142 0.0
C1139 C 0.03535 0.24924 0.71854 0.0
H1140 H 0.31363 0.17835 0.59174 0.0
H1141 H 0.35267 0.24073 0.8646 0.0
H1142 H 0.32325 0.26181 0.85547 0.0
H1143 H 0.28591 0.26369 0.77119 0.0
H1144 H 0.24453 0.19898 0.50295 0.0
H1145 H 0.27443 0.17819 0.51001 0.0
C1146 C 0.3158 0.19651 0.64957 0.0
C1147 C 0.33612 0.20763 0.72917 0.0
C1148 C 0.29793 0.20842 0.64495 0.0
C1149 C 0.33774 0.2312 0.80236 0.0
C1150 C 0.32068 0.24349 0.7972 0.0
C1151 C 0.28323 0.24496 0.71394 0.0
C1152 C 0.26249 0.23348 0.63586 0.0
C1153 C 0.3006 0.23244 0.71905 0.0
C1154 C 0.25985 0.20873 0.56407 0.0
C1155 C 0.27725 0.19677 0.568 0.0
H1156 H 0.79302 0.98007 0.34949 0.0
H1157 H 0.75312 0.94514 0.57678 0.0
H1158 H 0.78334 1.00115 0.67556 0.0
H1159 H 0.8214 0.06139 0.70026 0.0
H1160 H 0.86067 0.09739 0.47223 0.0
H1161 H 0.83132 0.04086 0.37431 0.0
C1162 C 0.79105 0.98449 0.42089 0.0
C1163 C 0.77046 0.95735 0.45454 0.0
C1164 C 0.80869 0.01766 0.47853 0.0
C1165 C 0.76838 0.96476 0.54743 0.0
C1166 C 0.78588 0.99713 0.60469 0.0
C1167 C 0.82366 0.05712 0.62911 0.0
C1168 C 0.84374 0.08473 0.59522 0.0
C1169 C 0.80615 0.02403 0.57145 0.0
C1170 C 0.84572 0.07756 0.5019 0.0
C1171 C 0.82875 0.04483 0.44515 0.0
H1172 H 0.97794 0.75648 0.63524 0.0
H1173 H 0.93555 0.64977 0.52023 0.0
H1174 H 0.97335 0.65781 0.45328 0.0
H1175 H 0.01881 0.69469 0.43008 0.0
H1176 H 0.06103 0.80243 0.53877 0.0
H1177 H 0.02324 0.79434 0.60654 0.0
C1178 C 0.97699 0.73499 0.59588 0.0
C1179 C 0.95395 0.70232 0.58497 0.0
C1180 C 0.99884 0.74001 0.55596 0.0
C1181 C 0.95283 0.67503 0.5303 0.0
C1182 C 0.97452 0.67967 0.49171 0.0
C1183 C 0.01979 0.71665 0.46721 0.0
C1184 C 0.04316 0.74919 0.4791 0.0
C1185 C 0.99771 0.71199 0.50447 0.0
C1186 C 0.04378 0.77695 0.52956 0.0
C1187 C 0.02197 0.77242 0.56772 0.0
loop_
_geom_bond_atom_site_label_1
_geom_bond_atom_site_label_2
_geom_bond_distance
_geom_bond_site_symmetry_2
_ccdc_geom_bond_type
Tb0 N29 2.617 . S
Tb0 N35 2.572 . S
Tb0 O44 2.465 . S
Tb0 O45 2.387 . S
Tb0 O47 2.428 . S
Tb0 O48 2.308 1_655 S
Tb0 O52 2.349 1_655 S
Tb0 O55 2.393 1_655 S
Tb0 C64 2.802 . S
C1 N2 1.379 . S
C1 C4 1.416 . S
C1 C8 1.424 . S
N2 C1 1.379 . S
N2 C5 1.334 . S
N2 Tb11 2.617 . S
C3 C5 1.390 1_556 S
C3 C6 1.339 1_556 S
C3 H23 0.930 . S
C4 C1 1.416 . S
C4 C6 1.416 . S
C4 C10 1.448 . S
C5 N2 1.334 . S
C5 C3 1.390 1_554 S
C5 H16 0.930 1_554 S
C6 C3 1.339 1_554 S
C6 C4 1.416 . S
C6 H27 0.930 . S
C7 C8 1.413 . S
C7 C9 1.427 . S
C7 C13 1.416 . S
C8 C1 1.424 . S
C8 C7 1.413 . S
C8 N12 1.361 . S
C9 C7 1.427 . S
C9 C10 1.328 . S
C9 H24 0.929 . S
C10 C4 1.448 . S
C10 C9 1.328 . S
C10 H25 0.930 . S
Tb11 N2 2.617 . S
Tb11 N12 2.572 . S
Tb11 O46 2.349 . S
Tb11 O49 2.393 . S
Tb11 O50 2.465 . S
Tb11 O51 2.387 . S
Tb11 O53 2.428 . S
Tb11 O54 2.308 . S
Tb11 C75 2.802 . S
N12 C8 1.361 . S
N12 Tb11 2.572 . S
N12 C14 1.340 . S
C13 C7 1.416 . S
C13 C15 1.332 . S
C13 H21 0.931 . S
C14 N12 1.340 . S
C14 C15 1.407 . S
C14 H20 0.930 . S
C15 C13 1.332 . S
C15 C14 1.407 . S
C15 H17 0.929 . S
H16 C5 0.930 1_556 S
H17 C15 0.929 . S
H18 C33 0.930 . S
H19 C40 0.929 . S
H20 C14 0.930 . S
H21 C13 0.931 . S
H22 C36 0.930 . S
H23 C3 0.930 . S
H24 C9 0.929 . S
H25 C10 0.930 . S
H26 C31 0.930 . S
H27 C6 0.930 . S
H28 C39 0.931 . S
N29 Tb0 2.617 . S
N29 C30 1.379 . S
N29 C33 1.334 . S
C30 N29 1.379 . S
C30 C32 1.416 . S
C30 C38 1.424 . S
C31 H26 0.930 . S
C31 C33 1.390 . S
C31 C34 1.339 . S
C32 C30 1.416 . S
C32 C34 1.416 . S
C32 C65 1.448 . S
C33 H18 0.930 . S
C33 N29 1.334 . S
C33 C31 1.390 . S
C34 C31 1.339 . S
C34 C32 1.416 . S
C34 H41 0.930 . S
N35 Tb0 2.572 . S
N35 C36 1.340 1_554 S
N35 C38 1.361 . S
C36 H22 0.930 . S
C36 N35 1.340 1_556 S
C36 C40 1.407 . S
C37 C38 1.413 1_556 S
C37 C39 1.416 . S
C37 C66 1.427 1_556 S
C38 C30 1.424 . S
C38 N35 1.361 . S
C38 C37 1.413 1_554 S
C39 H28 0.931 . S
C39 C37 1.416 . S
C39 C40 1.332 . S
C40 H19 0.929 . S
C40 C36 1.407 . S
C40 C39 1.332 . S
H41 C34 0.930 . S
H42 C65 0.930 . S
H43 C66 0.929 1_556 S
O44 Tb0 2.465 . S
O44 C64 1.264 . S
O45 Tb0 2.387 . S
O45 C56 1.264 . S
O46 Tb11 2.349 . S
O46 C56 1.243 1_455 S
O47 Tb0 2.428 . S
O47 C64 1.256 . S
O48 Tb0 2.308 1_455 S
O48 C63 1.266 1_554 S
O49 Tb11 2.393 . S
O49 C63 1.248 1_554 S
O50 Tb11 2.465 . S
O50 C75 1.264 . S
O51 Tb11 2.387 . S
O51 C67 1.264 . S
O52 Tb0 2.349 1_455 S
O52 C67 1.243 . S
O53 Tb11 2.428 . S
O53 C75 1.256 . S
O54 Tb11 2.308 . S
O54 C74 1.266 . S
O55 Tb0 2.393 1_455 S
O55 C74 1.248 . S
C56 O45 1.264 . S
C56 O46 1.243 1_655 S
C57 C60 1.399 . S
C57 C62 1.383 . S
C57 C64 1.496 . S
C58 C59 1.399 . S
C58 C62 1.389 . S
C59 C58 1.399 . S
C59 C61 1.380 . S
C59 H76 0.929 . S
C60 C57 1.399 . S
C60 C61 1.392 . S
C60 H77 0.929 . S
C61 C59 1.380 . S
C61 C60 1.392 . S
C61 H78 0.929 . S
C62 C57 1.383 . S
C62 C58 1.389 . S
C62 H79 0.931 1_554 S
C63 O48 1.266 1_556 S
C63 O49 1.248 1_556 S
C64 Tb0 2.802 . S
C64 O44 1.264 . S
C64 O47 1.256 . S
C64 C57 1.496 . S
C65 C32 1.448 . S
C65 H42 0.930 . S
C65 C66 1.328 . S
C66 C37 1.427 1_554 S
C66 H43 0.929 1_554 S
C66 C65 1.328 . S
C67 O51 1.264 . S
C67 O52 1.243 . S
C68 C71 1.399 . S
C68 C72 1.383 . S
C68 C75 1.496 . S
C69 C70 1.399 . S
C69 C72 1.389 . S
C70 C69 1.399 . S
C70 C73 1.380 . S
C70 H80 0.929 . S
C71 C68 1.399 . S
C71 C73 1.392 . S
C71 H81 0.929 . S
C72 C68 1.383 . S
C72 C69 1.389 . S
C72 H82 0.931 . S
C73 C70 1.380 . S
C73 C71 1.392 . S
C73 H83 0.929 . S
C74 O54 1.266 . S
C74 O55 1.248 . S
C75 Tb11 2.802 . S
C75 O50 1.264 . S
C75 O53 1.256 . S
C75 C68 1.496 . S
H76 C59 0.929 . S
H77 C60 0.929 . S
H78 C61 0.929 . S
H79 C62 0.931 1_556 S
H80 C70 0.929 . S
H81 C71 0.929 . S
H82 C72 0.931 . S
H83 C73 0.929 . S
Tb84 N113 2.617 1_554 S
Tb84 N119 2.572 . S
Tb84 O128 2.465 . S
Tb84 O129 2.387 . S
Tb84 O131 2.428 . S
Tb84 O132 2.308 . S
Tb84 O136 2.349 . S
Tb84 O139 2.393 1_554 S
Tb84 C148 2.802 . S
C85 N86 1.379 . S
C85 C88 1.416 . S
C85 C92 1.424 . S
N86 C85 1.379 . S
N86 C89 1.334 . S
N86 Tb95 2.617 . S
C87 C89 1.390 . S
C87 C90 1.339 . S
C87 H107 0.930 . S
C88 C85 1.416 . S
C88 C90 1.416 . S
C88 C94 1.448 . S
C89 N86 1.334 . S
C89 C87 1.390 . S
C89 H100 0.930 . S
C90 C87 1.339 . S
C90 C88 1.416 . S
C90 H111 0.930 . S
C91 C92 1.413 1_556 S
C91 C93 1.427 1_556 S
C91 C97 1.416 . S
C92 C85 1.424 . S
C92 C91 1.413 1_554 S
C92 N96 1.361 1_554 S
C93 C91 1.427 1_554 S
C93 C94 1.328 . S
C93 H108 0.929 1_554 S
C94 C88 1.448 . S
C94 C93 1.328 . S
C94 H109 0.930 . S
Tb95 N86 2.617 . S
Tb95 N96 2.572 1_554 S
Tb95 O130 2.349 . S
Tb95 O133 2.393 . S
Tb95 O134 2.465 . S
Tb95 O135 2.387 . S
Tb95 O137 2.428 . S
Tb95 O138 2.308 1_554 S
Tb95 C159 2.802 . S
N96 C92 1.361 1_556 S
N96 Tb95 2.572 1_556 S
N96 C98 1.340 . S
C97 C91 1.416 . S
C97 C99 1.332 . S
C97 H105 0.931 . S
C98 N96 1.340 . S
C98 C99 1.407 . S
C98 H104 0.930 . S
C99 C97 1.332 . S
C99 C98 1.407 . S
C99 H101 0.929 . S
H100 C89 0.930 . S
H101 C99 0.929 . S
H102 C117 0.930 . S
H103 C124 0.929 . S
H104 C98 0.930 . S
H105 C97 0.931 . S
H106 C120 0.930 . S
H107 C87 0.930 . S
H108 C93 0.929 1_556 S
H109 C94 0.930 . S
H110 C115 0.930 . S
H111 C90 0.930 . S
H112 C123 0.931 . S
N113 Tb84 2.617 1_556 S
N113 C114 1.379 1_556 S
N113 C117 1.334 . S
C114 N113 1.379 1_554 S
C114 C116 1.417 . S
C114 C122 1.424 . S
C115 H110 0.930 . S
C115 C117 1.390 . S
C115 C118 1.339 . S
C116 C114 1.417 . S
C116 C118 1.413 1_554 S
C116 C149 1.450 . S
C117 H102 0.930 . S
C117 N113 1.334 . S
C117 C115 1.390 . S
C118 C115 1.339 . S
C118 C116 1.413 1_556 S
C118 H125 0.930 . S
N119 Tb84 2.572 . S
N119 C120 1.340 . S
N119 C122 1.361 . S
C120 H106 0.930 . S
C120 N119 1.340 . S
C120 C124 1.407 . S
C121 C122 1.413 . S
C121 C123 1.416 . S
C121 C150 1.427 . S
C122 C114 1.424 . S
C122 N119 1.361 . S
C122 C121 1.413 . S
C123 H112 0.931 . S
C123 C121 1.416 . S
C123 C124 1.332 . S
C124 H103 0.929 . S
C124 C120 1.407 . S
C124 C123 1.332 . S
H125 C118 0.930 . S
H126 C149 0.930 . S
H127 C150 0.929 . S
O128 Tb84 2.465 . S
O128 C148 1.264 . S
O129 Tb84 2.387 . S
O129 C140 1.264 . S
O130 Tb95 2.349 . S
O130 C140 1.243 . S
O131 Tb84 2.428 . S
O131 C148 1.256 . S
O132 Tb84 2.308 . S
O132 C147 1.266 . S
O133 Tb95 2.393 . S
O133 C147 1.248 . S
O134 Tb95 2.465 . S
O134 C159 1.264 . S
O135 Tb95 2.387 . S
O135 C151 1.264 . S
O136 Tb84 2.349 . S
O136 C151 1.243 . S
O137 Tb95 2.428 . S
O137 C159 1.256 . S
O138 Tb95 2.308 1_556 S
O138 C158 1.266 . S
O139 Tb84 2.393 1_556 S
O139 C158 1.248 . S
C140 O129 1.264 . S
C140 O130 1.243 . S
C141 C144 1.399 . S
C141 C146 1.383 . S
C141 C148 1.496 . S
C142 C143 1.399 . S
C142 C146 1.389 . S
C143 C142 1.399 . S
C143 C145 1.380 . S
C143 H160 0.929 . S
C144 C141 1.399 . S
C144 C145 1.392 . S
C144 H161 0.929 1_554 S
C145 C143 1.380 . S
C145 C144 1.392 . S
C145 H162 0.929 1_554 S
C146 C141 1.383 . S
C146 C142 1.389 . S
C146 H163 0.931 . S
C147 O132 1.266 . S
C147 O133 1.248 . S
C148 Tb84 2.802 . S
C148 O128 1.264 . S
C148 O131 1.256 . S
C148 C141 1.496 . S
C149 C116 1.450 . S
C149 H126 0.930 . S
C149 C150 1.328 . S
C150 C121 1.427 . S
C150 H127 0.929 . S
C150 C149 1.328 . S
C151 O135 1.264 . S
C151 O136 1.243 . S
C152 C155 1.399 . S
C152 C156 1.383 1_554 S
C152 C159 1.496 . S
C153 C154 1.399 1_556 S
C153 C156 1.389 . S
C154 C153 1.399 1_554 S
C154 C157 1.380 . S
C154 H164 0.929 . S
C155 C152 1.399 . S
C155 C157 1.392 . S
C155 H165 0.929 . S
C156 C152 1.383 1_556 S
C156 C153 1.389 . S
C156 H166 0.931 . S
C157 C154 1.380 . S
C157 C155 1.392 . S
C157 H167 0.929 . S
C158 O138 1.266 . S
C158 O139 1.248 . S
C159 Tb95 2.802 . S
C159 O134 1.264 . S
C159 O137 1.256 . S
C159 C152 1.496 . S
H160 C143 0.929 . S
H161 C144 0.929 1_556 S
H162 C145 0.929 1_556 S
H163 C146 0.931 . S
H164 C154 0.929 . S
H165 C155 0.929 . S
H166 C156 0.931 . S
H167 C157 0.929 . S
Tb168 N197 2.617 . S
Tb168 N203 2.572 1_554 S
Tb168 O212 2.465 1_554 S
Tb168 O213 2.387 . S
Tb168 O215 2.428 . S
Tb168 O216 2.308 1_554 S
Tb168 O220 2.349 . S
Tb168 O223 2.393 . S
Tb168 C232 2.802 . S
C169 N170 1.379 . S
C169 C172 1.416 . S
C169 C176 1.424 1_556 S
N170 C169 1.379 . S
N170 C173 1.334 . S
N170 Tb179 2.617 1_565 S
C171 C173 1.390 . S
C171 C174 1.339 . S
C171 H191 0.930 . S
C172 C169 1.416 . S
C172 C174 1.416 . S
C172 C178 1.448 . S
C173 N170 1.334 . S
C173 C171 1.390 . S
C173 H184 0.930 . S
C174 C171 1.339 . S
C174 C172 1.416 . S
C174 H195 0.930 . S
C175 C176 1.413 . S
C175 C177 1.427 1_554 S
C175 C181 1.416 . S
C176 C169 1.424 1_554 S
C176 C175 1.413 . S
C176 N180 1.361 . S
C177 C175 1.427 1_556 S
C177 C178 1.328 . S
C177 H192 0.929 1_556 S
C178 C172 1.448 . S
C178 C177 1.328 . S
C178 H193 0.930 . S
Tb179 N170 2.617 1_545 S
Tb179 N180 2.572 1_546 S
Tb179 O214 2.349 . S
Tb179 O217 2.393 . S
Tb179 O218 2.465 1_556 S
Tb179 O219 2.387 . S
Tb179 O221 2.428 . S
Tb179 O222 2.308 1_556 S
Tb179 C243 2.802 . S
N180 C176 1.361 . S
N180 Tb179 2.572 1_564 S
N180 C182 1.340 . S
C181 C175 1.416 . S
C181 C183 1.332 . S
C181 H189 0.931 . S
C182 N180 1.340 . S
C182 C183 1.407 . S
C182 H188 0.930 1_565 S
C183 C181 1.332 . S
C183 C182 1.407 . S
C183 H185 0.929 . S
H184 C173 0.930 . S
H185 C183 0.929 . S
H186 C201 0.930 . S
H187 C208 0.929 . S
H188 C182 0.930 1_545 S
H189 C181 0.931 . S
H190 C204 0.930 . S
H191 C171 0.930 . S
H192 C177 0.929 1_554 S
H193 C178 0.930 . S
H194 C199 0.930 . S
H195 C174 0.930 . S
H196 C207 0.931 . S
N197 Tb168 2.617 . S
N197 C198 1.379 . S
N197 C201 1.334 . S
C198 N197 1.379 . S
C198 C200 1.416 . S
C198 C206 1.424 . S
C199 H194 0.930 . S
C199 C201 1.390 . S
C199 C202 1.339 . S
C200 C198 1.416 . S
C200 C202 1.416 . S
C200 C233 1.448 . S
C201 H186 0.930 . S
C201 N197 1.334 . S
C201 C199 1.390 . S
C202 C199 1.339 . S
C202 C200 1.416 . S
C202 H209 0.930 . S
N203 Tb168 2.572 1_556 S
N203 C204 1.340 . S
N203 C206 1.361 1_556 S
C204 H190 0.930 . S
C204 N203 1.340 . S
C204 C208 1.407 . S
C205 C206 1.413 1_556 S
C205 C207 1.416 . S
C205 C234 1.427 1_556 S
C206 C198 1.424 . S
C206 N203 1.361 1_554 S
C206 C205 1.413 1_554 S
C207 H196 0.931 . S
C207 C205 1.416 . S
C207 C208 1.332 . S
C208 H187 0.929 . S
C208 C204 1.407 . S
C208 C207 1.332 . S
H209 C202 0.930 . S
H210 C233 0.930 . S
H211 C234 0.929 . S
O212 Tb168 2.465 1_556 S
O212 C232 1.264 1_556 S
O213 Tb168 2.387 . S
O213 C224 1.264 . S
O214 Tb179 2.349 . S
O214 C224 1.243 1_556 S
O215 Tb168 2.428 . S
O215 C232 1.256 . S
O216 Tb168 2.308 1_556 S
O216 C231 1.266 . S
O217 Tb179 2.393 . S
O217 C231 1.248 . S
O218 Tb179 2.465 1_554 S
O218 C243 1.264 1_554 S
O219 Tb179 2.387 . S
O219 C235 1.264 1_556 S
O220 Tb168 2.349 . S
O220 C235 1.243 . S
O221 Tb179 2.428 . S
O221 C243 1.256 . S
O222 Tb179 2.308 1_554 S
O222 C242 1.266 . S
O223 Tb168 2.393 . S
O223 C242 1.248 . S
C224 O213 1.264 . S
C224 O214 1.243 1_554 S
C225 C228 1.399 . S
C225 C230 1.383 1_554 S
C225 C232 1.496 . S
C226 C227 1.399 1_556 S
C226 C230 1.389 . S
C227 C226 1.399 1_554 S
C227 C229 1.380 . S
C227 H244 0.929 . S
C228 C225 1.399 . S
C228 C229 1.392 . S
C228 H245 0.929 . S
C229 C227 1.380 . S
C229 C228 1.392 . S
C229 H246 0.929 . S
C230 C225 1.383 1_556 S
C230 C226 1.389 . S
C230 H247 0.931 . S
C231 O216 1.266 . S
C231 O217 1.248 . S
C232 Tb168 2.802 . S
C232 O212 1.264 1_554 S
C232 O215 1.256 . S
C232 C225 1.496 . S
C233 C200 1.448 . S
C233 H210 0.930 . S
C233 C234 1.328 . S
C234 C205 1.427 1_554 S
C234 H211 0.929 . S
C234 C233 1.328 . S
C235 O219 1.264 1_554 S
C235 O220 1.243 . S
C236 C239 1.399 1_545 S
C236 C240 1.383 1_556 S
C236 C243 1.496 . S
C237 C238 1.399 . S
C237 C240 1.389 1_565 S
C238 C237 1.399 . S
C238 C241 1.379 1_554 S
C238 H248 0.929 . S
C239 C236 1.399 1_565 S
C239 C241 1.392 . S
C239 H249 0.929 . S
C240 C236 1.383 1_554 S
C240 C237 1.389 1_545 S
C240 H250 0.931 . S
C241 C238 1.379 1_556 S
C241 C239 1.392 . S
C241 H251 0.929 . S
C242 O222 1.266 . S
C242 O223 1.248 . S
C243 Tb179 2.802 . S
C243 O218 1.264 1_556 S
C243 O221 1.256 . S
C243 C236 1.496 . S
H244 C227 0.929 . S
H245 C228 0.929 . S
H246 C229 0.929 . S
H247 C230 0.931 . S
H248 C238 0.929 . S
H249 C239 0.929 . S
H250 C240 0.931 . S
H251 C241 0.929 . S
Tb252 N281 2.617 . S
Tb252 N287 2.572 . S
Tb252 O296 2.465 . S
Tb252 O297 2.387 . S
Tb252 O299 2.428 . S
Tb252 O300 2.308 . S
Tb252 O304 2.349 . S
Tb252 O307 2.393 . S
Tb252 C316 2.802 . S
C253 N254 1.379 . S
C253 C256 1.416 . S
C253 C260 1.424 . S
N254 C253 1.379 . S
N254 C257 1.334 . S
N254 Tb263 2.617 . S
C255 C257 1.390 . S
C255 C258 1.339 . S
C255 H275 0.930 . S
C256 C253 1.416 . S
C256 C258 1.416 . S
C256 C262 1.448 . S
C257 N254 1.334 . S
C257 C255 1.390 . S
C257 H268 0.930 . S
C258 C255 1.339 . S
C258 C256 1.416 . S
C258 H279 0.930 . S
C259 C260 1.413 . S
C259 C261 1.427 . S
C259 C265 1.416 . S
C260 C253 1.424 . S
C260 C259 1.413 . S
C260 N264 1.361 . S
C261 C259 1.427 . S
C261 C262 1.328 . S
C261 H276 0.929 . S
C262 C256 1.448 . S
C262 C261 1.328 . S
C262 H277 0.930 . S
Tb263 N254 2.617 . S
Tb263 N264 2.572 . S
Tb263 O298 2.349 . S
Tb263 O301 2.393 . S
Tb263 O302 2.465 . S
Tb263 O303 2.387 . S
Tb263 O305 2.428 . S
Tb263 O306 2.308 . S
Tb263 C327 2.802 . S
N264 C260 1.361 . S
N264 Tb263 2.572 . S
N264 C266 1.340 . S
C265 C259 1.416 . S
C265 C267 1.332 . S
C265 H273 0.931 . S
C266 N264 1.340 . S
C266 C267 1.407 . S
C266 H272 0.930 . S
C267 C265 1.332 . S
C267 C266 1.407 . S
C267 H269 0.929 . S
H268 C257 0.930 . S
H269 C267 0.929 . S
H270 C285 0.930 . S
H271 C292 0.929 . S
H272 C266 0.930 . S
H273 C265 0.931 . S
H274 C288 0.938 . S
H275 C255 0.930 . S
H276 C261 0.929 . S
H277 C262 0.930 . S
H278 C283 0.930 . S
H279 C258 0.930 . S
H280 C291 0.931 . S
N281 Tb252 2.617 . S
N281 C282 1.379 . S
N281 C285 1.334 . S
C282 N281 1.379 . S
C282 C284 1.416 . S
C282 C290 1.424 . S
C283 H278 0.930 . S
C283 C285 1.390 . S
C283 C286 1.339 . S
C284 C282 1.416 . S
C284 C286 1.416 . S
C284 C317 1.448 . S
C285 H270 0.930 . S
C285 N281 1.334 . S
C285 C283 1.390 . S
C286 C283 1.339 . S
C286 C284 1.416 . S
C286 H293 0.930 . S
N287 Tb252 2.572 . S
N287 C288 1.340 . S
N287 C290 1.361 . S
C288 H274 0.938 . S
C288 N287 1.340 . S
C288 C292 1.407 1_554 S
C289 C290 1.413 . S
C289 C291 1.416 1_554 S
C289 C318 1.427 . S
C290 C282 1.424 . S
C290 N287 1.361 . S
C290 C289 1.413 . S
C291 H280 0.931 . S
C291 C289 1.416 1_556 S
C291 C292 1.332 . S
C292 H271 0.929 . S
C292 C288 1.407 1_556 S
C292 C291 1.332 . S
H293 C286 0.930 . S
H294 C317 0.930 . S
H295 C318 0.929 . S
O296 Tb252 2.465 . S
O296 C316 1.264 . S
O297 Tb252 2.387 . S
O297 C308 1.264 . S
O298 Tb263 2.349 . S
O298 C308 1.243 . S
O299 Tb252 2.428 . S
O299 C316 1.256 . S
O300 Tb252 2.308 . S
O300 C315 1.266 . S
O301 Tb263 2.393 . S
O301 C315 1.248 . S
O302 Tb263 2.465 . S
O302 C327 1.264 . S
O303 Tb263 2.387 . S
O303 C319 1.264 . S
O304 Tb252 2.349 . S
O304 C319 1.243 . S
O305 Tb263 2.428 . S
O305 C327 1.256 . S
O306 Tb263 2.308 . S
O306 C326 1.266 . S
O307 Tb252 2.393 . S
O307 C326 1.248 . S
C308 O297 1.264 . S
C308 O298 1.243 . S
C309 C312 1.399 . S
C309 C314 1.383 . S
C309 C316 1.496 . S
C310 C311 1.399 . S
C310 C314 1.389 . S
C311 C310 1.399 . S
C311 C313 1.380 . S
C311 H328 0.929 . S
C312 C309 1.399 . S
C312 C313 1.392 . S
C312 H329 0.929 . S
C313 C311 1.380 . S
C313 C312 1.392 . S
C313 H330 0.929 . S
C314 C309 1.383 . S
C314 C310 1.389 . S
C314 H331 0.931 . S
C315 O300 1.266 . S
C315 O301 1.248 . S
C316 Tb252 2.802 . S
C316 O296 1.264 . S
C316 O299 1.256 . S
C316 C309 1.496 . S
C317 C284 1.448 . S
C317 H294 0.930 . S
C317 C318 1.328 . S
C318 C289 1.427 . S
C318 H295 0.929 . S
C318 C317 1.328 . S
C319 O303 1.264 . S
C319 O304 1.243 . S
C320 C323 1.399 . S
C320 C324 1.383 . S
C320 C327 1.496 . S
C321 C322 1.399 . S
C321 C324 1.389 . S
C322 C321 1.399 . S
C322 C325 1.380 . S
C322 H332 0.929 . S
C323 C320 1.399 . S
C323 C325 1.392 . S
C323 H333 0.929 . S
C324 C320 1.383 . S
C324 C321 1.389 . S
C324 H334 0.931 . S
C325 C322 1.380 . S
C325 C323 1.392 . S
C325 H335 0.929 . S
C326 O306 1.266 . S
C326 O307 1.248 . S
C327 Tb263 2.802 . S
C327 O302 1.264 . S
C327 O305 1.256 . S
C327 C320 1.496 . S
H328 C311 0.929 . S
H329 C312 0.929 . S
H330 C313 0.929 . S
H331 C314 0.931 . S
H332 C322 0.929 . S
H333 C323 0.929 . S
H334 C324 0.931 . S
H335 C325 0.929 . S
Tb336 N365 2.617 . S
Tb336 N371 2.572 . S
Tb336 O380 2.465 . S
Tb336 O381 2.387 . S
Tb336 O383 2.428 . S
Tb336 O384 2.308 . S
Tb336 O388 2.349 . S
Tb336 O391 2.393 . S
Tb336 C400 2.802 . S
C337 N338 1.379 . S
C337 C340 1.416 . S
C337 C344 1.424 . S
N338 C337 1.379 . S
N338 C341 1.334 . S
N338 Tb347 2.617 . S
C339 C341 1.390 . S
C339 C342 1.339 . S
C339 H359 0.930 . S
C340 C337 1.416 . S
C340 C342 1.416 . S
C340 C346 1.448 . S
C341 N338 1.334 . S
C341 C339 1.390 . S
C341 H352 0.930 . S
C342 C339 1.339 . S
C342 C340 1.416 . S
C342 H363 0.930 . S
C343 C344 1.413 . S
C343 C345 1.427 . S
C343 C349 1.416 . S
C344 C337 1.424 . S
C344 C343 1.413 . S
C344 N348 1.361 . S
C345 C343 1.427 . S
C345 C346 1.328 . S
C345 H360 0.929 . S
C346 C340 1.448 . S
C346 C345 1.328 . S
C346 H361 0.930 . S
Tb347 N338 2.617 . S
Tb347 N348 2.572 . S
Tb347 O382 2.349 . S
Tb347 O385 2.393 . S
Tb347 O386 2.465 . S
Tb347 O387 2.387 . S
Tb347 O389 2.428 . S
Tb347 O390 2.308 . S
Tb347 C411 2.802 . S
N348 C344 1.361 . S
N348 Tb347 2.572 . S
N348 C350 1.340 . S
C349 C343 1.416 . S
C349 C351 1.332 . S
C349 H357 0.931 . S
C350 N348 1.340 . S
C350 C351 1.407 . S
C350 H356 0.930 . S
C351 C349 1.332 . S
C351 C350 1.407 . S
C351 H353 0.929 . S
H352 C341 0.930 . S
H353 C351 0.929 . S
H354 C369 0.930 . S
H355 C376 0.929 . S
H356 C350 0.930 . S
H357 C349 0.931 . S
H358 C372 0.930 . S
H359 C339 0.930 . S
H360 C345 0.929 . S
H361 C346 0.930 . S
H362 C367 0.930 . S
H363 C342 0.930 . S
H364 C375 0.931 . S
N365 Tb336 2.617 . S
N365 C366 1.379 . S
N365 C369 1.334 . S
C366 N365 1.379 . S
C366 C368 1.416 . S
C366 C374 1.424 . S
C367 H362 0.930 . S
C367 C369 1.390 . S
C367 C370 1.339 . S
C368 C366 1.416 . S
C368 C370 1.416 . S
C368 C401 1.448 . S
C369 H354 0.930 . S
C369 N365 1.334 . S
C369 C367 1.390 . S
C370 C367 1.339 . S
C370 C368 1.416 . S
C370 H377 0.930 . S
N371 Tb336 2.572 . S
N371 C372 1.340 . S
N371 C374 1.361 . S
C372 H358 0.930 . S
C372 N371 1.340 . S
C372 C376 1.407 . S
C373 C374 1.413 . S
C373 C375 1.416 . S
C373 C402 1.427 . S
C374 C366 1.424 . S
C374 N371 1.361 . S
C374 C373 1.413 . S
C375 H364 0.931 . S
C375 C373 1.416 . S
C375 C376 1.332 . S
C376 H355 0.929 . S
C376 C372 1.407 . S
C376 C375 1.332 . S
H377 C370 0.930 . S
H378 C401 0.930 . S
H379 C402 0.929 . S
O380 Tb336 2.465 . S
O380 C400 1.264 . S
O381 Tb336 2.387 . S
O381 C392 1.264 . S
O382 Tb347 2.349 . S
O382 C392 1.243 . S
O383 Tb336 2.428 . S
O383 C400 1.256 . S
O384 Tb336 2.308 . S
O384 C399 1.266 . S
O385 Tb347 2.393 . S
O385 C399 1.248 . S
O386 Tb347 2.465 . S
O386 C411 1.264 . S
O387 Tb347 2.387 . S
O387 C403 1.264 . S
O388 Tb336 2.349 . S
O388 C403 1.243 . S
O389 Tb347 2.428 . S
O389 C411 1.256 . S
O390 Tb347 2.308 . S
O390 C410 1.266 . S
O391 Tb336 2.393 . S
O391 C410 1.248 . S
C392 O381 1.264 . S
C392 O382 1.243 . S
C393 C396 1.399 . S
C393 C398 1.383 . S
C393 C400 1.496 . S
C394 C395 1.399 . S
C394 C398 1.389 . S
C395 C394 1.399 . S
C395 C397 1.380 . S
C395 H412 0.929 1_455 S
C396 C393 1.399 . S
C396 C397 1.392 . S
C396 H413 0.929 . S
C397 C395 1.380 . S
C397 C396 1.392 . S
C397 H414 0.929 . S
C398 C393 1.383 . S
C398 C394 1.389 . S
C398 H415 0.931 . S
C399 O384 1.266 . S
C399 O385 1.248 . S
C400 Tb336 2.802 . S
C400 O380 1.264 . S
C400 O383 1.256 . S
C400 C393 1.496 . S
C401 C368 1.448 . S
C401 H378 0.930 . S
C401 C402 1.328 . S
C402 C373 1.427 . S
C402 H379 0.929 . S
C402 C401 1.328 . S
C403 O387 1.264 . S
C403 O388 1.243 . S
C404 C407 1.399 . S
C404 C408 1.383 . S
C404 C411 1.496 . S
C405 C406 1.399 . S
C405 C408 1.389 . S
C406 C405 1.399 . S
C406 C409 1.380 . S
C406 H416 0.929 . S
C407 C404 1.399 . S
C407 C409 1.392 . S
C407 H417 0.929 . S
C408 C404 1.383 . S
C408 C405 1.389 . S
C408 H418 0.931 . S
C409 C406 1.380 . S
C409 C407 1.392 . S
C409 H419 0.929 . S
C410 O390 1.266 . S
C410 O391 1.248 . S
C411 Tb347 2.802 . S
C411 O386 1.264 . S
C411 O389 1.256 . S
C411 C404 1.496 . S
H412 C395 0.929 1_655 S
H413 C396 0.929 . S
H414 C397 0.929 . S
H415 C398 0.931 . S
H416 C406 0.929 . S
H417 C407 0.929 . S
H418 C408 0.931 . S
H419 C409 0.929 . S
Tb420 N449 2.617 . S
Tb420 N455 2.572 . S
Tb420 O464 2.465 . S
Tb420 O465 2.387 . S
Tb420 O467 2.428 . S
Tb420 O468 2.308 . S
Tb420 O472 2.349 . S
Tb420 O475 2.393 . S
Tb420 C484 2.802 . S
C421 N422 1.379 . S
C421 C424 1.416 . S
C421 C428 1.424 . S
N422 C421 1.379 . S
N422 C425 1.334 . S
N422 Tb431 2.617 . S
C423 C425 1.390 . S
C423 C426 1.339 . S
C423 H443 0.930 . S
C424 C421 1.416 . S
C424 C426 1.416 . S
C424 C430 1.448 . S
C425 N422 1.334 . S
C425 C423 1.390 . S
C425 H436 0.930 . S
C426 C423 1.339 . S
C426 C424 1.416 . S
C426 H447 0.930 . S
C427 C428 1.413 . S
C427 C429 1.427 . S
C427 C433 1.416 . S
C428 C421 1.424 . S
C428 C427 1.413 . S
C428 N432 1.361 . S
C429 C427 1.427 . S
C429 C430 1.328 . S
C429 H444 0.929 . S
C430 C424 1.448 . S
C430 C429 1.328 . S
C430 H445 0.930 . S
Tb431 N422 2.617 . S
Tb431 N432 2.572 . S
Tb431 O466 2.349 . S
Tb431 O469 2.393 . S
Tb431 O470 2.465 . S
Tb431 O471 2.387 . S
Tb431 O473 2.428 . S
Tb431 O474 2.308 . S
Tb431 C495 2.802 . S
N432 C428 1.361 . S
N432 Tb431 2.572 . S
N432 C434 1.340 . S
C433 C427 1.416 . S
C433 C435 1.332 . S
C433 H441 0.931 . S
C434 N432 1.340 . S
C434 C435 1.407 . S
C434 H440 0.930 . S
C435 C433 1.332 . S
C435 C434 1.407 . S
C435 H437 0.929 . S
H436 C425 0.930 . S
H437 C435 0.929 . S
H438 C453 0.930 . S
H439 C460 0.929 . S
H440 C434 0.930 . S
H441 C433 0.931 . S
H442 C456 0.930 . S
H443 C423 0.930 . S
H444 C429 0.929 . S
H445 C430 0.930 . S
H446 C451 0.930 . S
H447 C426 0.930 . S
H448 C459 0.931 . S
N449 Tb420 2.617 . S
N449 C450 1.379 . S
N449 C453 1.334 . S
C450 N449 1.379 . S
C450 C452 1.416 . S
C450 C458 1.424 . S
C451 H446 0.930 . S
C451 C453 1.390 . S
C451 C454 1.339 . S
C452 C450 1.416 . S
C452 C454 1.416 . S
C452 C485 1.448 . S
C453 H438 0.930 . S
C453 N449 1.334 . S
C453 C451 1.390 . S
C454 C451 1.339 . S
C454 C452 1.416 . S
C454 H461 0.930 . S
N455 Tb420 2.572 . S
N455 C456 1.340 . S
N455 C458 1.361 . S
C456 H442 0.930 . S
C456 N455 1.340 . S
C456 C460 1.407 . S
C457 C458 1.413 . S
C457 C459 1.416 . S
C457 C486 1.427 . S
C458 C450 1.424 . S
C458 N455 1.361 . S
C458 C457 1.413 . S
C459 H448 0.931 . S
C459 C457 1.416 . S
C459 C460 1.332 . S
C460 H439 0.929 . S
C460 C456 1.407 . S
C460 C459 1.332 . S
H461 C454 0.930 . S
H462 C485 0.930 . S
H463 C486 0.929 . S
O464 Tb420 2.465 . S
O464 C484 1.264 . S
O465 Tb420 2.387 . S
O465 C476 1.264 . S
O466 Tb431 2.349 . S
O466 C476 1.243 . S
O467 Tb420 2.428 . S
O467 C484 1.256 . S
O468 Tb420 2.308 . S
O468 C483 1.266 . S
O469 Tb431 2.393 . S
O469 C483 1.248 . S
O470 Tb431 2.465 . S
O470 C495 1.264 . S
O471 Tb431 2.387 . S
O471 C487 1.264 . S
O472 Tb420 2.349 . S
O472 C487 1.243 . S
O473 Tb431 2.428 . S
O473 C495 1.256 . S
O474 Tb431 2.308 . S
O474 C494 1.266 . S
O475 Tb420 2.393 . S
O475 C494 1.248 . S
C476 O465 1.264 . S
C476 O466 1.243 . S
C477 C480 1.399 . S
C477 C482 1.383 . S
C477 C484 1.496 . S
C478 C479 1.399 . S
C478 C482 1.389 . S
C479 C478 1.399 . S
C479 C481 1.380 . S
C479 H496 0.929 . S
C480 C477 1.399 . S
C480 C481 1.392 . S
C480 H497 0.929 . S
C481 C479 1.380 . S
C481 C480 1.392 . S
C481 H498 0.929 . S
C482 C477 1.383 . S
C482 C478 1.389 . S
C482 H499 0.931 . S
C483 O468 1.266 . S
C483 O469 1.248 . S
C484 Tb420 2.802 . S
C484 O464 1.264 . S
C484 O467 1.256 . S
C484 C477 1.496 . S
C485 C452 1.448 . S
C485 H462 0.930 . S
C485 C486 1.328 . S
C486 C457 1.427 . S
C486 H463 0.929 . S
C486 C485 1.328 . S
C487 O471 1.264 . S
C487 O472 1.243 . S
C488 C491 1.399 . S
C488 C492 1.383 . S
C488 C495 1.496 . S
C489 C490 1.399 . S
C489 C492 1.389 . S
C490 C489 1.399 . S
C490 C493 1.380 . S
C490 H500 0.929 . S
C491 C488 1.399 . S
C491 C493 1.392 . S
C491 H501 0.929 . S
C492 C488 1.383 . S
C492 C489 1.389 . S
C492 H502 0.931 . S
C493 C490 1.380 . S
C493 C491 1.392 . S
C493 H503 0.929 . S
C494 O474 1.266 . S
C494 O475 1.248 . S
C495 Tb431 2.802 . S
C495 O470 1.264 . S
C495 O473 1.256 . S
C495 C488 1.496 . S
H496 C479 0.929 . S
H497 C480 0.929 . S
H498 C481 0.929 . S
H499 C482 0.931 . S
H500 C490 0.929 . S
H501 C491 0.929 . S
H502 C492 0.931 . S
H503 C493 0.929 . S
Tb504 N533 2.617 . S
Tb504 N539 2.572 . S
Tb504 O548 2.465 . S
Tb504 O549 2.387 . S
Tb504 O551 2.428 . S
Tb504 O552 2.308 . S
Tb504 O556 2.349 . S
Tb504 O559 2.393 . S
Tb504 C568 2.802 . S
C505 N506 1.379 . S
C505 C508 1.416 . S
C505 C512 1.424 . S
N506 C505 1.379 . S
N506 C509 1.334 . S
N506 Tb515 2.617 . S
C507 C509 1.390 . S
C507 C510 1.339 . S
C507 H527 0.930 . S
C508 C505 1.416 . S
C508 C510 1.416 . S
C508 C514 1.448 . S
C509 N506 1.334 . S
C509 C507 1.390 . S
C509 H520 0.930 . S
C510 C507 1.339 . S
C510 C508 1.416 . S
C510 H531 0.930 . S
C511 C512 1.413 . S
C511 C513 1.427 . S
C511 C517 1.416 . S
C512 C505 1.424 . S
C512 C511 1.413 . S
C512 N516 1.361 . S
C513 C511 1.427 . S
C513 C514 1.328 . S
C513 H528 0.929 . S
C514 C508 1.448 . S
C514 C513 1.328 . S
C514 H529 0.930 . S
Tb515 N506 2.617 . S
Tb515 N516 2.572 . S
Tb515 O550 2.349 . S
Tb515 O553 2.393 . S
Tb515 O554 2.465 . S
Tb515 O555 2.387 . S
Tb515 O557 2.428 . S
Tb515 O558 2.308 . S
Tb515 C579 2.802 . S
N516 C512 1.361 . S
N516 Tb515 2.572 . S
N516 C518 1.340 . S
C517 C511 1.416 . S
C517 C519 1.332 . S
C517 H525 0.931 . S
C518 N516 1.340 . S
C518 C519 1.407 . S
C518 H524 0.930 . S
C519 C517 1.332 . S
C519 C518 1.407 . S
C519 H521 0.929 . S
H520 C509 0.930 . S
H521 C519 0.929 . S
H522 C537 0.930 . S
H523 C544 0.929 . S
H524 C518 0.930 . S
H525 C517 0.931 . S
H526 C540 0.930 . S
H527 C507 0.930 . S
H528 C513 0.929 . S
H529 C514 0.930 . S
H530 C535 0.930 . S
H531 C510 0.930 . S
H532 C543 0.931 . S
N533 Tb504 2.617 . S
N533 C534 1.379 . S
N533 C537 1.334 . S
C534 N533 1.379 . S
C534 C536 1.416 . S
C534 C542 1.424 . S
C535 H530 0.930 . S
C535 C537 1.390 . S
C535 C538 1.339 . S
C536 C534 1.416 . S
C536 C538 1.416 . S
C536 C569 1.448 . S
C537 H522 0.930 . S
C537 N533 1.334 . S
C537 C535 1.390 . S
C538 C535 1.339 . S
C538 C536 1.416 . S
C538 H545 0.930 . S
N539 Tb504 2.572 . S
N539 C540 1.340 . S
N539 C542 1.361 . S
C540 H526 0.930 . S
C540 N539 1.340 . S
C540 C544 1.407 . S
C541 C542 1.413 . S
C541 C543 1.416 . S
C541 C570 1.427 . S
C542 C534 1.424 . S
C542 N539 1.361 . S
C542 C541 1.413 . S
C543 H532 0.931 . S
C543 C541 1.416 . S
C543 C544 1.332 . S
C544 H523 0.929 . S
C544 C540 1.407 . S
C544 C543 1.332 . S
H545 C538 0.930 . S
H546 C569 0.930 . S
H547 C570 0.929 . S
O548 Tb504 2.465 . S
O548 C568 1.264 . S
O549 Tb504 2.387 . S
O549 C560 1.264 . S
O550 Tb515 2.349 . S
O550 C560 1.243 . S
O551 Tb504 2.428 . S
O551 C568 1.256 . S
O552 Tb504 2.308 . S
O552 C567 1.266 . S
O553 Tb515 2.393 . S
O553 C567 1.248 . S
O554 Tb515 2.465 . S
O554 C579 1.264 . S
O555 Tb515 2.387 . S
O555 C571 1.264 . S
O556 Tb504 2.349 . S
O556 C571 1.243 . S
O557 Tb515 2.428 . S
O557 C579 1.256 . S
O558 Tb515 2.308 . S
O558 C578 1.266 . S
O559 Tb504 2.393 . S
O559 C578 1.248 . S
C560 O549 1.264 . S
C560 O550 1.243 . S
C561 C564 1.399 . S
C561 C566 1.383 . S
C561 C568 1.496 1_554 S
C562 C563 1.399 . S
C562 C566 1.389 . S
C563 C562 1.399 . S
C563 C565 1.380 . S
C563 H580 0.929 . S
C564 C561 1.399 . S
C564 C565 1.392 . S
C564 H581 0.929 1_554 S
C565 C563 1.380 . S
C565 C564 1.392 . S
C565 H582 0.929 . S
C566 C561 1.383 . S
C566 C562 1.389 . S
C566 H583 0.931 . S
C567 O552 1.266 . S
C567 O553 1.248 . S
C568 Tb504 2.802 . S
C568 O548 1.264 . S
C568 O551 1.256 . S
C568 C561 1.496 1_556 S
C569 C536 1.448 . S
C569 H546 0.930 . S
C569 C570 1.328 . S
C570 C541 1.427 . S
C570 H547 0.929 . S
C570 C569 1.328 . S
C571 O555 1.264 . S
C571 O556 1.243 . S
C572 C575 1.399 . S
C572 C576 1.383 . S
C572 C579 1.496 . S
C573 C574 1.399 . S
C573 C576 1.389 . S
C574 C573 1.399 . S
C574 C577 1.380 . S
C574 H584 0.929 . S
C575 C572 1.399 . S
C575 C577 1.392 . S
C575 H585 0.929 . S
C576 C572 1.383 . S
C576 C573 1.389 . S
C576 H586 0.931 . S
C577 C574 1.380 . S
C577 C575 1.392 . S
C577 H587 0.929 . S
C578 O558 1.266 . S
C578 O559 1.248 . S
C579 Tb515 2.802 . S
C579 O554 1.264 . S
C579 O557 1.256 . S
C579 C572 1.496 . S
H580 C563 0.929 . S
H581 C564 0.929 1_556 S
H582 C565 0.929 . S
H583 C566 0.931 . S
H584 C574 0.929 . S
H585 C575 0.929 . S
H586 C576 0.931 . S
H587 C577 0.929 . S
Tb588 N617 2.617 . S
Tb588 N623 2.572 . S
Tb588 O632 2.465 . S
Tb588 O633 2.387 . S
Tb588 O635 2.428 . S
Tb588 O636 2.308 . S
Tb588 O640 2.349 . S
Tb588 O643 2.393 . S
Tb588 C652 2.802 . S
C589 N590 1.379 . S
C589 C592 1.416 . S
C589 C596 1.424 . S
N590 C589 1.379 . S
N590 C593 1.334 . S
N590 Tb599 2.617 . S
C591 C593 1.390 . S
C591 C594 1.339 . S
C591 H611 0.930 . S
C592 C589 1.416 . S
C592 C594 1.416 . S
C592 C598 1.448 . S
C593 N590 1.334 . S
C593 C591 1.390 . S
C593 H604 0.930 . S
C594 C591 1.339 . S
C594 C592 1.416 . S
C594 H615 0.930 . S
C595 C596 1.413 . S
C595 C597 1.427 . S
C595 C601 1.416 . S
C596 C589 1.424 . S
C596 C595 1.413 . S
C596 N600 1.361 . S
C597 C595 1.427 . S
C597 C598 1.328 . S
C597 H612 0.929 1_655 S
C598 C592 1.448 . S
C598 C597 1.328 . S
C598 H613 0.930 . S
Tb599 N590 2.617 . S
Tb599 N600 2.572 . S
Tb599 O634 2.349 . S
Tb599 O637 2.393 . S
Tb599 O638 2.465 . S
Tb599 O639 2.387 . S
Tb599 O641 2.428 . S
Tb599 O642 2.308 . S
Tb599 C663 2.802 . S
N600 C596 1.361 . S
N600 Tb599 2.572 . S
N600 C602 1.340 . S
C601 C595 1.416 . S
C601 C603 1.332 . S
C601 H609 0.931 1_655 S
C602 N600 1.340 . S
C602 C603 1.407 . S
C602 H608 0.930 . S
C603 C601 1.332 . S
C603 C602 1.407 . S
C603 H605 0.929 . S
H604 C593 0.930 . S
H605 C603 0.929 . S
H606 C621 0.930 . S
H607 C628 0.929 . S
H608 C602 0.930 . S
H609 C601 0.931 1_455 S
H610 C624 0.930 . S
H611 C591 0.930 . S
H612 C597 0.929 1_455 S
H613 C598 0.930 . S
H614 C619 0.930 . S
H615 C594 0.930 . S
H616 C627 0.931 . S
N617 Tb588 2.617 . S
N617 C618 1.379 . S
N617 C621 1.334 . S
C618 N617 1.379 . S
C618 C620 1.416 . S
C618 C626 1.424 . S
C619 H614 0.930 . S
C619 C621 1.390 . S
C619 C622 1.339 . S
C620 C618 1.416 . S
C620 C622 1.416 . S
C620 C653 1.448 . S
C621 H606 0.930 . S
C621 N617 1.334 . S
C621 C619 1.390 . S
C622 C619 1.339 . S
C622 C620 1.416 . S
C622 H629 0.930 . S
N623 Tb588 2.572 . S
N623 C624 1.340 . S
N623 C626 1.361 . S
C624 H610 0.930 . S
C624 N623 1.340 . S
C624 C628 1.407 . S
C625 C626 1.413 . S
C625 C627 1.416 . S
C625 C654 1.427 . S
C626 C618 1.424 . S
C626 N623 1.361 . S
C626 C625 1.413 . S
C627 H616 0.931 . S
C627 C625 1.416 . S
C627 C628 1.332 . S
C628 H607 0.929 . S
C628 C624 1.407 . S
C628 C627 1.332 . S
H629 C622 0.930 . S
H630 C653 0.930 . S
H631 C654 0.929 . S
O632 Tb588 2.465 . S
O632 C652 1.264 . S
O633 Tb588 2.387 . S
O633 C644 1.264 . S
O634 Tb599 2.349 . S
O634 C644 1.243 . S
O635 Tb588 2.428 . S
O635 C652 1.256 . S
O636 Tb588 2.308 . S
O636 C651 1.266 . S
O637 Tb599 2.393 . S
O637 C651 1.248 . S
O638 Tb599 2.465 . S
O638 C663 1.264 . S
O639 Tb599 2.387 . S
O639 C655 1.264 . S
O640 Tb588 2.349 . S
O640 C655 1.243 . S
O641 Tb599 2.428 . S
O641 C663 1.256 . S
O642 Tb599 2.308 . S
O642 C662 1.266 . S
O643 Tb588 2.393 . S
O643 C662 1.248 . S
C644 O633 1.264 . S
C644 O634 1.243 . S
C645 C648 1.399 . S
C645 C650 1.383 . S
C645 C652 1.496 . S
C646 C647 1.399 . S
C646 C650 1.389 . S
C647 C646 1.399 . S
C647 C649 1.380 . S
C647 H664 0.929 . S
C648 C645 1.399 . S
C648 C649 1.392 . S
C648 H665 0.929 . S
C649 C647 1.380 . S
C649 C648 1.392 . S
C649 H666 0.929 . S
C650 C645 1.383 . S
C650 C646 1.389 . S
C650 H667 0.931 . S
C651 O636 1.266 . S
C651 O637 1.248 . S
C652 Tb588 2.802 . S
C652 O632 1.264 . S
C652 O635 1.256 . S
C652 C645 1.496 . S
C653 C620 1.448 . S
C653 H630 0.930 . S
C653 C654 1.328 . S
C654 C625 1.427 . S
C654 H631 0.929 . S
C654 C653 1.328 . S
C655 O639 1.264 . S
C655 O640 1.243 . S
C656 C659 1.399 . S
C656 C660 1.383 . S
C656 C663 1.496 1_554 S
C657 C658 1.399 . S
C657 C660 1.389 . S
C658 C657 1.399 . S
C658 C661 1.380 . S
C658 H668 0.929 . S
C659 C656 1.399 . S
C659 C661 1.392 . S
C659 H669 0.929 1_554 S
C660 C656 1.383 . S
C660 C657 1.389 . S
C660 H670 0.931 . S
C661 C658 1.380 . S
C661 C659 1.392 . S
C661 H671 0.929 . S
C662 O642 1.266 . S
C662 O643 1.248 . S
C663 Tb599 2.802 . S
C663 O638 1.264 . S
C663 O641 1.256 . S
C663 C656 1.496 1_556 S
H664 C647 0.929 . S
H665 C648 0.929 . S
H666 C649 0.929 . S
H667 C650 0.931 . S
H668 C658 0.929 . S
H669 C659 0.929 1_556 S
H670 C660 0.931 . S
H671 C661 0.929 . S
Tb672 N701 2.617 . S
Tb672 N707 2.572 . S
Tb672 O716 2.465 . S
Tb672 O717 2.387 . S
Tb672 O719 2.428 . S
Tb672 O720 2.308 . S
Tb672 O724 2.349 . S
Tb672 O727 2.393 . S
Tb672 C736 2.802 . S
C673 N674 1.379 . S
C673 C676 1.416 . S
C673 C680 1.424 . S
N674 C673 1.379 . S
N674 C677 1.334 . S
N674 Tb683 2.617 . S
C675 C677 1.390 . S
C675 C678 1.339 . S
C675 H695 0.930 . S
C676 C673 1.416 . S
C676 C678 1.416 . S
C676 C682 1.448 . S
C677 N674 1.334 . S
C677 C675 1.390 . S
C677 H688 0.930 . S
C678 C675 1.339 . S
C678 C676 1.416 . S
C678 H699 0.930 . S
C679 C680 1.413 . S
C679 C681 1.427 . S
C679 C685 1.416 . S
C680 C673 1.424 . S
C680 C679 1.413 . S
C680 N684 1.361 . S
C681 C679 1.427 . S
C681 C682 1.328 . S
C681 H696 0.929 . S
C682 C676 1.448 . S
C682 C681 1.328 . S
C682 H697 0.930 . S
Tb683 N674 2.617 . S
Tb683 N684 2.572 . S
Tb683 O718 2.349 . S
Tb683 O721 2.393 . S
Tb683 O722 2.465 . S
Tb683 O723 2.387 . S
Tb683 O725 2.428 . S
Tb683 O726 2.308 . S
Tb683 C747 2.802 . S
N684 C680 1.361 . S
N684 Tb683 2.572 . S
N684 C686 1.340 . S
C685 C679 1.416 . S
C685 C687 1.332 . S
C685 H693 0.931 . S
C686 N684 1.340 . S
C686 C687 1.407 . S
C686 H692 0.930 . S
C687 C685 1.332 . S
C687 C686 1.407 . S
C687 H689 0.929 . S
H688 C677 0.930 . S
H689 C687 0.929 . S
H690 C705 0.930 . S
H691 C712 0.929 . S
H692 C686 0.930 . S
H693 C685 0.931 . S
H694 C708 0.930 . S
H695 C675 0.930 . S
H696 C681 0.929 . S
H697 C682 0.930 . S
H698 C703 0.930 . S
H699 C678 0.930 . S
H700 C711 0.931 . S
N701 Tb672 2.617 . S
N701 C702 1.379 . S
N701 C705 1.334 . S
C702 N701 1.379 . S
C702 C704 1.416 . S
C702 C710 1.424 . S
C703 H698 0.930 . S
C703 C705 1.390 . S
C703 C706 1.339 . S
C704 C702 1.416 . S
C704 C706 1.416 . S
C704 C737 1.443 1_655 S
C705 H690 0.930 . S
C705 N701 1.334 . S
C705 C703 1.390 . S
C706 C703 1.339 . S
C706 C704 1.416 . S
C706 H713 0.930 . S
N707 Tb672 2.572 . S
N707 C708 1.340 . S
N707 C710 1.361 . S
C708 H694 0.930 . S
C708 N707 1.340 . S
C708 C712 1.407 . S
C709 C710 1.413 . S
C709 C711 1.416 1_655 S
C709 C738 1.427 1_655 S
C710 C702 1.424 . S
C710 N707 1.361 . S
C710 C709 1.413 . S
C711 H700 0.931 . S
C711 C709 1.416 1_455 S
C711 C712 1.332 1_455 S
C712 H691 0.929 . S
C712 C708 1.407 . S
C712 C711 1.332 1_655 S
H713 C706 0.930 . S
H714 C737 0.931 . S
H715 C738 0.929 . S
O716 Tb672 2.465 . S
O716 C736 1.264 . S
O717 Tb672 2.387 . S
O717 C728 1.264 . S
O718 Tb683 2.349 . S
O718 C728 1.243 . S
O719 Tb672 2.428 . S
O719 C736 1.256 . S
O720 Tb672 2.308 . S
O720 C735 1.266 . S
O721 Tb683 2.393 . S
O721 C735 1.248 . S
O722 Tb683 2.465 . S
O722 C747 1.264 . S
O723 Tb683 2.387 . S
O723 C739 1.264 . S
O724 Tb672 2.349 . S
O724 C739 1.243 . S
O725 Tb683 2.428 . S
O725 C747 1.256 . S
O726 Tb683 2.308 . S
O726 C746 1.266 . S
O727 Tb672 2.393 . S
O727 C746 1.248 . S
C728 O717 1.264 . S
C728 O718 1.243 . S
C729 C732 1.399 . S
C729 C734 1.383 . S
C729 C736 1.496 1_554 S
C730 C731 1.399 . S
C730 C734 1.389 . S
C731 C730 1.399 . S
C731 C733 1.380 . S
C731 H748 0.929 . S
C732 C729 1.399 . S
C732 C733 1.392 . S
C732 H749 0.929 . S
C733 C731 1.380 . S
C733 C732 1.392 . S
C733 H750 0.929 . S
C734 C729 1.383 . S
C734 C730 1.389 . S
C734 H751 0.931 . S
C735 O720 1.266 . S
C735 O721 1.248 . S
C736 Tb672 2.802 . S
C736 O716 1.264 . S
C736 O719 1.256 . S
C736 C729 1.496 1_556 S
C737 C704 1.443 1_455 S
C737 H714 0.931 . S
C737 C738 1.333 . S
C738 C709 1.427 1_455 S
C738 H715 0.929 . S
C738 C737 1.333 . S
C739 O723 1.264 . S
C739 O724 1.243 . S
C740 C743 1.399 . S
C740 C744 1.383 . S
C740 C747 1.496 . S
C741 C742 1.399 . S
C741 C744 1.389 . S
C742 C741 1.399 . S
C742 C745 1.380 . S
C742 H752 0.929 . S
C743 C740 1.399 . S
C743 C745 1.392 . S
C743 H753 0.929 . S
C744 C740 1.383 . S
C744 C741 1.389 . S
C744 H754 0.931 . S
C745 C742 1.380 . S
C745 C743 1.392 . S
C745 H755 0.929 . S
C746 O726 1.266 . S
C746 O727 1.248 . S
C747 Tb683 2.802 . S
C747 O722 1.264 . S
C747 O725 1.256 . S
C747 C740 1.496 . S
H748 C731 0.929 . S
H749 C732 0.929 . S
H750 C733 0.929 . S
H751 C734 0.931 . S
H752 C742 0.929 . S
H753 C743 0.929 . S
H754 C744 0.931 . S
H755 C745 0.929 . S
H756 C762 0.930 1_655 S
H757 C765 0.930 . S
H758 C766 0.930 . S
H759 C767 0.930 . S
H760 C770 0.930 . S
H761 C771 0.930 . S
C762 H756 0.930 1_455 S
C762 C763 1.355 . S
C762 C764 1.415 . S
C763 C762 1.355 . S
C763 C765 1.419 . S
C764 C762 1.415 . S
C764 C769 1.425 . S
C764 C771 1.409 1_455 S
C765 H757 0.930 . S
C765 C763 1.419 . S
C765 C766 1.362 . S
C766 H758 0.930 . S
C766 C765 1.362 . S
C766 C769 1.409 . S
C767 H759 0.930 . S
C767 C768 1.355 . S
C767 C769 1.415 . S
C768 C767 1.355 . S
C768 C770 1.419 1_455 S
C769 C764 1.425 . S
C769 C766 1.409 . S
C769 C767 1.415 . S
C770 H760 0.930 . S
C770 C768 1.419 1_655 S
C770 C771 1.362 . S
C771 H761 0.930 . S
C771 C764 1.409 1_655 S
C771 C770 1.362 . S
H772 C778 0.930 . S
H773 C781 0.930 . S
H774 C782 0.930 . S
H775 C783 0.930 . S
H776 C786 0.930 . S
H777 C787 0.930 . S
C778 H772 0.930 . S
C778 C779 1.355 . S
C778 C780 1.415 . S
C779 C778 1.355 . S
C779 C781 1.419 . S
C780 C778 1.415 . S
C780 C785 1.425 . S
C780 C787 1.409 . S
C781 H773 0.930 . S
C781 C779 1.419 . S
C781 C782 1.362 . S
C782 H774 0.930 . S
C782 C781 1.362 . S
C782 C785 1.409 . S
C783 H775 0.930 . S
C783 C784 1.355 . S
C783 C785 1.415 . S
C784 C783 1.355 . S
C784 C786 1.419 . S
C785 C780 1.425 . S
C785 C782 1.409 . S
C785 C783 1.415 . S
C786 H776 0.930 . S
C786 C784 1.419 . S
C786 C787 1.362 . S
C787 H777 0.930 . S
C787 C780 1.409 . S
C787 C786 1.362 . S
H788 C794 0.930 . S
H789 C797 0.930 . S
H790 C798 0.930 . S
H791 C799 0.930 . S
H792 C802 0.930 . S
H793 C803 0.930 . S
C794 H788 0.930 . S
C794 C795 1.355 . S
C794 C796 1.415 . S
C795 C794 1.355 . S
C795 C797 1.419 . S
C796 C794 1.415 . S
C796 C801 1.425 . S
C796 C803 1.409 . S
C797 H789 0.930 . S
C797 C795 1.419 . S
C797 C798 1.362 . S
C798 H790 0.930 . S
C798 C797 1.362 . S
C798 C801 1.409 . S
C799 H791 0.930 . S
C799 C800 1.355 . S
C799 C801 1.415 . S
C800 C799 1.355 . S
C800 C802 1.419 . S
C801 C796 1.425 . S
C801 C798 1.409 . S
C801 C799 1.415 . S
C802 H792 0.930 . S
C802 C800 1.419 . S
C802 C803 1.362 . S
C803 H793 0.930 . S
C803 C796 1.409 . S
C803 C802 1.362 . S
H804 C810 0.930 . S
H805 C813 0.930 . S
H806 C814 0.930 . S
H807 C815 0.930 . S
H808 C818 0.930 . S
H809 C819 0.930 . S
C810 H804 0.930 . S
C810 C811 1.355 . S
C810 C812 1.415 . S
C811 C810 1.355 . S
C811 C813 1.419 . S
C812 C810 1.415 . S
C812 C817 1.425 . S
C812 C819 1.409 . S
C813 H805 0.930 . S
C813 C811 1.419 . S
C813 C814 1.362 . S
C814 H806 0.930 . S
C814 C813 1.362 . S
C814 C817 1.409 . S
C815 H807 0.930 . S
C815 C816 1.355 . S
C815 C817 1.415 . S
C816 C815 1.355 . S
C816 C818 1.419 . S
C817 C812 1.425 . S
C817 C814 1.409 . S
C817 C815 1.415 . S
C818 H808 0.930 . S
C818 C816 1.419 . S
C818 C819 1.362 . S
C819 H809 0.930 . S
C819 C812 1.409 . S
C819 C818 1.362 . S
H820 C826 0.930 . S
H821 C829 0.930 . S
H822 C830 0.930 . S
H823 C831 0.930 . S
H824 C834 0.930 . S
H825 C835 0.930 . S
C826 H820 0.930 . S
C826 C827 1.355 . S
C826 C828 1.415 . S
C827 C826 1.355 . S
C827 C829 1.419 . S
C828 C826 1.415 . S
C828 C833 1.425 . S
C828 C835 1.409 . S
C829 H821 0.930 . S
C829 C827 1.419 . S
C829 C830 1.362 . S
C830 H822 0.930 . S
C830 C829 1.362 . S
C830 C833 1.409 . S
C831 H823 0.930 . S
C831 C832 1.355 . S
C831 C833 1.415 . S
C832 C831 1.355 . S
C832 C834 1.419 . S
C833 C828 1.425 . S
C833 C830 1.409 . S
C833 C831 1.415 . S
C834 H824 0.930 . S
C834 C832 1.419 . S
C834 C835 1.362 . S
C835 H825 0.930 . S
C835 C828 1.409 . S
C835 C834 1.362 . S
H836 C842 0.930 . S
H837 C845 0.930 . S
H838 C846 0.930 . S
H839 C847 0.930 . S
H840 C850 0.930 1_554 S
H841 C851 0.930 . S
C842 H836 0.930 . S
C842 C843 1.355 . S
C842 C844 1.415 . S
C843 C842 1.355 . S
C843 C845 1.419 . S
C844 C842 1.415 . S
C844 C849 1.425 . S
C844 C851 1.409 . S
C845 H837 0.930 . S
C845 C843 1.419 . S
C845 C846 1.362 . S
C846 H838 0.930 . S
C846 C845 1.362 . S
C846 C849 1.409 . S
C847 H839 0.930 . S
C847 C848 1.355 . S
C847 C849 1.415 . S
C848 C847 1.355 . S
C848 C850 1.419 . S
C849 C844 1.425 . S
C849 C846 1.409 . S
C849 C847 1.415 . S
C850 H840 0.930 1_556 S
C850 C848 1.419 . S
C850 C851 1.362 . S
C851 H841 0.930 . S
C851 C844 1.409 . S
C851 C850 1.362 . S
H852 C858 0.930 . S
H853 C861 0.930 . S
H854 C862 0.930 . S
H855 C863 0.930 . S
H856 C866 0.930 . S
H857 C867 0.930 . S
C858 H852 0.930 . S
C858 C859 1.355 . S
C858 C860 1.415 . S
C859 C858 1.355 . S
C859 C861 1.419 . S
C860 C858 1.415 . S
C860 C865 1.425 . S
C860 C867 1.409 . S
C861 H853 0.930 . S
C861 C859 1.419 . S
C861 C862 1.362 . S
C862 H854 0.930 . S
C862 C861 1.362 . S
C862 C865 1.409 . S
C863 H855 0.930 . S
C863 C864 1.355 . S
C863 C865 1.415 . S
C864 C863 1.355 . S
C864 C866 1.419 . S
C865 C860 1.425 . S
C865 C862 1.409 . S
C865 C863 1.415 . S
C866 H856 0.930 . S
C866 C864 1.419 . S
C866 C867 1.362 . S
C867 H857 0.930 . S
C867 C860 1.409 . S
C867 C866 1.362 . S
H868 C874 0.930 . S
H869 C877 0.930 . S
H870 C878 0.930 . S
H871 C879 0.930 . S
H872 C882 0.930 . S
H873 C883 0.930 . S
C874 H868 0.930 . S
C874 C875 1.355 . S
C874 C876 1.415 . S
C875 C874 1.355 . S
C875 C877 1.419 . S
C876 C874 1.415 . S
C876 C881 1.425 . S
C876 C883 1.409 . S
C877 H869 0.930 . S
C877 C875 1.419 . S
C877 C878 1.362 . S
C878 H870 0.930 . S
C878 C877 1.362 . S
C878 C881 1.409 . S
C879 H871 0.930 . S
C879 C880 1.355 . S
C879 C881 1.415 . S
C880 C879 1.355 . S
C880 C882 1.419 . S
C881 C876 1.425 . S
C881 C878 1.409 . S
C881 C879 1.415 . S
C882 H872 0.930 . S
C882 C880 1.419 . S
C882 C883 1.362 . S
C883 H873 0.930 . S
C883 C876 1.409 . S
C883 C882 1.362 . S
H884 C890 0.930 . S
H885 C893 0.930 . S
H886 C894 0.930 . S
H887 C895 0.930 . S
H888 C898 0.930 . S
H889 C899 0.930 . S
C890 H884 0.930 . S
C890 C891 1.355 . S
C890 C892 1.415 . S
C891 C890 1.355 . S
C891 C893 1.419 . S
C892 C890 1.415 . S
C892 C897 1.425 . S
C892 C899 1.409 . S
C893 H885 0.930 . S
C893 C891 1.419 . S
C893 C894 1.362 . S
C894 H886 0.930 . S
C894 C893 1.362 . S
C894 C897 1.409 . S
C895 H887 0.930 . S
C895 C896 1.355 . S
C895 C897 1.415 . S
C896 C895 1.355 . S
C896 C898 1.419 . S
C897 C892 1.425 . S
C897 C894 1.409 . S
C897 C895 1.415 . S
C898 H888 0.930 . S
C898 C896 1.419 . S
C898 C899 1.362 . S
C899 H889 0.930 . S
C899 C892 1.409 . S
C899 C898 1.362 . S
H900 C906 0.930 . S
H901 C909 0.930 . S
H902 C910 0.930 . S
H903 C911 0.930 . S
H904 C914 0.930 . S
H905 C915 0.930 . S
C906 H900 0.930 . S
C906 C907 1.355 . S
C906 C908 1.415 . S
C907 C906 1.355 . S
C907 C909 1.419 . S
C908 C906 1.415 . S
C908 C913 1.425 . S
C908 C915 1.409 . S
C909 H901 0.930 . S
C909 C907 1.419 . S
C909 C910 1.362 . S
C910 H902 0.930 . S
C910 C909 1.362 . S
C910 C913 1.409 . S
C911 H903 0.930 . S
C911 C912 1.355 . S
C911 C913 1.415 . S
C912 C911 1.355 . S
C912 C914 1.419 . S
C913 C908 1.425 . S
C913 C910 1.409 . S
C913 C911 1.415 . S
C914 H904 0.930 . S
C914 C912 1.419 . S
C914 C915 1.362 . S
C915 H905 0.930 . S
C915 C908 1.409 . S
C915 C914 1.362 . S
H916 C922 0.930 . S
H917 C925 0.930 . S
H918 C926 0.930 . S
H919 C927 0.930 . S
H920 C930 0.930 . S
H921 C931 0.930 . S
C922 H916 0.930 . S
C922 C923 1.355 . S
C922 C924 1.415 . S
C923 C922 1.355 . S
C923 C925 1.419 . S
C924 C922 1.415 . S
C924 C929 1.425 . S
C924 C931 1.409 . S
C925 H917 0.930 . S
C925 C923 1.419 . S
C925 C926 1.362 . S
C926 H918 0.930 . S
C926 C925 1.362 . S
C926 C929 1.409 . S
C927 H919 0.930 . S
C927 C928 1.355 . S
C927 C929 1.415 . S
C928 C927 1.355 . S
C928 C930 1.419 . S
C929 C924 1.425 . S
C929 C926 1.409 . S
C929 C927 1.415 . S
C930 H920 0.930 . S
C930 C928 1.419 . S
C930 C931 1.362 . S
C931 H921 0.930 . S
C931 C924 1.409 . S
C931 C930 1.362 . S
H932 C938 0.930 . S
H933 C941 0.930 . S
H934 C942 0.945 . S
H935 C943 0.930 . S
H936 C946 0.930 . S
H937 C947 0.930 . S
C938 H932 0.930 . S
C938 C939 1.355 . S
C938 C940 1.415 . S
C939 C938 1.355 . S
C939 C941 1.419 1_565 S
C940 C938 1.415 . S
C940 C945 1.425 . S
C940 C947 1.409 . S
C941 H933 0.930 . S
C941 C939 1.419 1_545 S
C941 C942 1.361 . S
C942 H934 0.945 . S
C942 C941 1.361 . S
C942 C945 1.396 1_545 S
C943 H935 0.930 . S
C943 C944 1.355 . S
C943 C945 1.415 . S
C944 C943 1.355 . S
C944 C946 1.419 . S
C945 C940 1.425 . S
C945 C942 1.396 1_565 S
C945 C943 1.415 . S
C946 H936 0.930 . S
C946 C944 1.419 . S
C946 C947 1.362 . S
C947 H937 0.930 . S
C947 C940 1.409 . S
C947 C946 1.362 . S
H948 C954 0.930 . S
H949 C957 0.930 . S
H950 C958 0.930 1_554 S
H951 C959 0.930 . S
H952 C962 0.930 . S
H953 C963 0.930 . S
C954 H948 0.930 . S
C954 C955 1.355 . S
C954 C956 1.415 . S
C955 C954 1.355 . S
C955 C957 1.419 1_556 S
C956 C954 1.415 . S
C956 C961 1.425 . S
C956 C963 1.409 . S
C957 H949 0.930 . S
C957 C955 1.419 1_554 S
C957 C958 1.362 1_554 S
C958 H950 0.930 1_556 S
C958 C957 1.362 1_556 S
C958 C961 1.409 . S
C959 H951 0.930 . S
C959 C960 1.355 . S
C959 C961 1.415 . S
C960 C959 1.355 . S
C960 C962 1.419 . S
C961 C956 1.425 . S
C961 C958 1.409 . S
C961 C959 1.415 . S
C962 H952 0.930 . S
C962 C960 1.419 . S
C962 C963 1.362 . S
C963 H953 0.930 . S
C963 C956 1.409 . S
C963 C962 1.362 . S
H964 C970 0.930 . S
H965 C973 0.930 . S
H966 C974 0.930 1_554 S
H967 C975 0.930 . S
H968 C978 0.918 1_455 S
H969 C979 0.930 . S
C970 H964 0.930 . S
C970 C971 1.355 . S
C970 C972 1.415 . S
C971 C970 1.355 . S
C971 C973 1.419 . S
C972 C970 1.415 . S
C972 C977 1.425 . S
C972 C979 1.409 . S
C973 H965 0.930 . S
C973 C971 1.419 . S
C973 C974 1.362 . S
C974 H966 0.930 1_556 S
C974 C973 1.362 . S
C974 C977 1.409 . S
C975 H967 0.930 . S
C975 C976 1.355 . S
C975 C977 1.415 1_554 S
C976 C975 1.355 . S
C976 C978 1.419 1_554 S
C977 C972 1.425 . S
C977 C974 1.409 . S
C977 C975 1.415 1_556 S
C978 H968 0.918 1_655 S
C978 C976 1.419 1_556 S
C978 C979 1.362 . S
C979 H969 0.930 . S
C979 C972 1.409 . S
C979 C978 1.362 . S
H980 C986 0.930 . S
H981 C989 0.930 . S
H982 C990 0.930 . S
H983 C991 0.930 . S
H984 C994 0.930 1_554 S
H985 C995 0.930 . S
C986 H980 0.930 . S
C986 C987 1.355 . S
C986 C988 1.415 . S
C987 C986 1.355 . S
C987 C989 1.419 . S
C988 C986 1.415 . S
C988 C993 1.425 . S
C988 C995 1.409 . S
C989 H981 0.930 . S
C989 C987 1.419 . S
C989 C990 1.362 . S
C990 H982 0.930 . S
C990 C989 1.362 . S
C990 C993 1.409 . S
C991 H983 0.930 . S
C991 C992 1.355 . S
C991 C993 1.415 . S
C992 C991 1.355 . S
C992 C994 1.419 . S
C993 C988 1.425 . S
C993 C990 1.409 . S
C993 C991 1.415 . S
C994 H984 0.930 1_556 S
C994 C992 1.419 . S
C994 C995 1.362 . S
C995 H985 0.930 . S
C995 C988 1.409 . S
C995 C994 1.362 . S
H996 C1002 0.930 . S
H997 C1005 0.930 . S
H998 C1006 0.930 . S
H999 C1007 0.930 . S
H1000 C1010 0.930 . S
H1001 C1011 0.930 . S
C1002 H996 0.930 . S
C1002 C1003 1.355 . S
C1002 C1004 1.415 . S
C1003 C1002 1.355 . S
C1003 C1005 1.419 . S
C1004 C1002 1.415 . S
C1004 C1009 1.425 . S
C1004 C1011 1.409 . S
C1005 H997 0.930 . S
C1005 C1003 1.419 . S
C1005 C1006 1.362 . S
C1006 H998 0.930 . S
C1006 C1005 1.362 . S
C1006 C1009 1.409 . S
C1007 H999 0.930 . S
C1007 C1008 1.355 . S
C1007 C1009 1.415 . S
C1008 C1007 1.355 . S
C1008 C1010 1.419 . S
C1009 C1004 1.425 . S
C1009 C1006 1.409 . S
C1009 C1007 1.415 . S
C1010 H1000 0.930 . S
C1010 C1008 1.419 . S
C1010 C1011 1.362 . S
C1011 H1001 0.930 . S
C1011 C1004 1.409 . S
C1011 C1010 1.362 . S
H1012 C1018 0.930 . S
H1013 C1021 0.930 . S
H1014 C1022 0.930 . S
H1015 C1023 0.930 . S
H1016 C1026 0.930 . S
H1017 C1027 0.930 . S
C1018 H1012 0.930 . S
C1018 C1019 1.355 . S
C1018 C1020 1.415 . S
C1019 C1018 1.355 . S
C1019 C1021 1.419 . S
C1020 C1018 1.415 . S
C1020 C1025 1.425 . S
C1020 C1027 1.409 . S
C1021 H1013 0.930 . S
C1021 C1019 1.419 . S
C1021 C1022 1.362 . S
C1022 H1014 0.930 . S
C1022 C1021 1.362 . S
C1022 C1025 1.409 . S
C1023 H1015 0.930 . S
C1023 C1024 1.355 . S
C1023 C1025 1.415 . S
C1024 C1023 1.355 . S
C1024 C1026 1.419 . S
C1025 C1020 1.425 . S
C1025 C1022 1.409 . S
C1025 C1023 1.415 . S
C1026 H1016 0.930 . S
C1026 C1024 1.419 . S
C1026 C1027 1.362 . S
C1027 H1017 0.930 . S
C1027 C1020 1.409 . S
C1027 C1026 1.362 . S
H1028 C1034 0.930 . S
H1029 C1037 0.930 . S
H1030 C1038 0.930 . S
H1031 C1039 0.930 . S
H1032 C1042 0.930 1_554 S
H1033 C1043 0.930 . S
C1034 H1028 0.930 . S
C1034 C1035 1.355 . S
C1034 C1036 1.415 . S
C1035 C1034 1.355 . S
C1035 C1037 1.419 . S
C1036 C1034 1.415 . S
C1036 C1041 1.425 . S
C1036 C1043 1.409 . S
C1037 H1029 0.930 . S
C1037 C1035 1.419 . S
C1037 C1038 1.362 . S
C1038 H1030 0.930 . S
C1038 C1037 1.362 . S
C1038 C1041 1.409 . S
C1039 H1031 0.930 . S
C1039 C1040 1.355 . S
C1039 C1041 1.415 . S
C1040 C1039 1.355 . S
C1040 C1042 1.419 . S
C1041 C1036 1.425 . S
C1041 C1038 1.409 . S
C1041 C1039 1.415 . S
C1042 H1032 0.930 1_556 S
C1042 C1040 1.419 . S
C1042 C1043 1.362 . S
C1043 H1033 0.930 . S
C1043 C1036 1.409 . S
C1043 C1042 1.362 . S
H1044 C1050 0.930 . S
H1045 C1053 0.930 . S
H1046 C1054 0.930 . S
H1047 C1055 0.930 . S
H1048 C1058 0.924 . S
H1049 C1059 0.930 . S
C1050 H1044 0.930 . S
C1050 C1051 1.355 . S
C1050 C1052 1.415 . S
C1051 C1050 1.355 . S
C1051 C1053 1.419 1_554 S
C1052 C1050 1.415 . S
C1052 C1057 1.425 1_545 S
C1052 C1059 1.409 . S
C1053 H1045 0.930 . S
C1053 C1051 1.419 1_556 S
C1053 C1054 1.362 1_545 S
C1054 H1046 0.930 . S
C1054 C1053 1.362 1_565 S
C1054 C1057 1.409 1_556 S
C1055 H1047 0.930 . S
C1055 C1056 1.355 1_556 S
C1055 C1057 1.415 1_556 S
C1056 C1055 1.355 1_554 S
C1056 C1058 1.411 1_565 S
C1057 C1052 1.425 1_565 S
C1057 C1054 1.409 1_554 S
C1057 C1055 1.415 1_554 S
C1058 H1048 0.924 . S
C1058 C1056 1.411 1_545 S
C1058 C1059 1.376 . S
C1059 H1049 0.930 . S
C1059 C1052 1.409 . S
C1059 C1058 1.376 . S
H1060 C1066 0.930 . S
H1061 C1069 0.930 . S
H1062 C1070 0.930 . S
H1063 C1071 0.930 . S
H1064 C1074 0.930 . S
H1065 C1075 0.930 . S
C1066 H1060 0.930 . S
C1066 C1067 1.355 . S
C1066 C1068 1.415 . S
C1067 C1066 1.355 . S
C1067 C1069 1.419 . S
C1068 C1066 1.415 . S
C1068 C1073 1.425 . S
C1068 C1075 1.409 . S
C1069 H1061 0.930 . S
C1069 C1067 1.419 . S
C1069 C1070 1.362 . S
C1070 H1062 0.930 . S
C1070 C1069 1.362 . S
C1070 C1073 1.409 . S
C1071 H1063 0.930 . S
C1071 C1072 1.355 . S
C1071 C1073 1.415 . S
C1072 C1071 1.355 . S
C1072 C1074 1.419 . S
C1073 C1068 1.425 . S
C1073 C1070 1.409 . S
C1073 C1071 1.415 . S
C1074 H1064 0.930 . S
C1074 C1072 1.419 . S
C1074 C1075 1.362 . S
C1075 H1065 0.930 . S
C1075 C1068 1.409 . S
C1075 C1074 1.362 . S
H1076 C1082 0.930 . S
H1077 C1085 0.930 . S
H1078 C1086 0.930 . S
H1079 C1087 0.930 . S
H1080 C1090 0.930 . S
H1081 C1091 0.930 . S
C1082 H1076 0.930 . S
C1082 C1083 1.355 . S
C1082 C1084 1.415 . S
C1083 C1082 1.355 . S
C1083 C1085 1.419 . S
C1084 C1082 1.415 . S
C1084 C1089 1.425 . S
C1084 C1091 1.409 . S
C1085 H1077 0.930 . S
C1085 C1083 1.419 . S
C1085 C1086 1.362 . S
C1086 H1078 0.930 . S
C1086 C1085 1.362 . S
C1086 C1089 1.409 . S
C1087 H1079 0.930 . S
C1087 C1088 1.355 . S
C1087 C1089 1.415 . S
C1088 C1087 1.355 . S
C1088 C1090 1.419 . S
C1089 C1084 1.425 . S
C1089 C1086 1.409 . S
C1089 C1087 1.415 . S
C1090 H1080 0.930 . S
C1090 C1088 1.419 . S
C1090 C1091 1.362 . S
C1091 H1081 0.930 . S
C1091 C1084 1.409 . S
C1091 C1090 1.362 . S
H1092 C1098 0.930 . S
H1093 C1101 0.930 . S
H1094 C1102 0.930 . S
H1095 C1103 0.930 . S
H1096 C1106 0.930 . S
H1097 C1107 0.930 . S
C1098 H1092 0.930 . S
C1098 C1099 1.355 . S
C1098 C1100 1.415 . S
C1099 C1098 1.355 . S
C1099 C1101 1.419 . S
C1100 C1098 1.415 . S
C1100 C1105 1.425 . S
C1100 C1107 1.409 . S
C1101 H1093 0.930 . S
C1101 C1099 1.419 . S
C1101 C1102 1.362 . S
C1102 H1094 0.930 . S
C1102 C1101 1.362 . S
C1102 C1105 1.409 . S
C1103 H1095 0.930 . S
C1103 C1104 1.355 . S
C1103 C1105 1.415 . S
C1104 C1103 1.355 . S
C1104 C1106 1.419 . S
C1105 C1100 1.425 . S
C1105 C1102 1.409 . S
C1105 C1103 1.415 . S
C1106 H1096 0.930 . S
C1106 C1104 1.419 . S
C1106 C1107 1.362 . S
C1107 H1097 0.930 . S
C1107 C1100 1.409 . S
C1107 C1106 1.362 . S
H1108 C1114 0.930 . S
H1109 C1117 0.930 . S
H1110 C1118 0.930 . S
H1111 C1119 0.930 . S
H1112 C1122 0.930 . S
H1113 C1123 0.930 1_545 S
C1114 H1108 0.930 . S
C1114 C1115 1.355 . S
C1114 C1116 1.415 . S
C1115 C1114 1.355 . S
C1115 C1117 1.419 . S
C1116 C1114 1.415 . S
C1116 C1121 1.425 . S
C1116 C1123 1.409 1_545 S
C1117 H1109 0.930 . S
C1117 C1115 1.419 . S
C1117 C1118 1.362 . S
C1118 H1110 0.930 . S
C1118 C1117 1.362 . S
C1118 C1121 1.409 . S
C1119 H1111 0.930 . S
C1119 C1120 1.355 . S
C1119 C1121 1.415 1_565 S
C1120 C1119 1.355 . S
C1120 C1122 1.419 . S
C1121 C1116 1.425 . S
C1121 C1118 1.409 . S
C1121 C1119 1.415 1_545 S
C1122 H1112 0.930 . S
C1122 C1120 1.419 . S
C1122 C1123 1.362 . S
C1123 H1113 0.930 1_565 S
C1123 C1116 1.409 1_565 S
C1123 C1122 1.362 . S
H1124 C1130 0.930 . S
H1125 C1133 0.930 . S
H1126 C1134 0.930 . S
H1127 C1135 0.930 . S
H1128 C1138 0.930 . S
H1129 C1139 0.930 . S
C1130 H1124 0.930 . S
C1130 C1131 1.355 . S
C1130 C1132 1.415 . S
C1131 C1130 1.355 . S
C1131 C1133 1.419 . S
C1132 C1130 1.415 . S
C1132 C1137 1.425 . S
C1132 C1139 1.409 . S
C1133 H1125 0.930 . S
C1133 C1131 1.419 . S
C1133 C1134 1.362 . S
C1134 H1126 0.930 . S
C1134 C1133 1.362 . S
C1134 C1137 1.409 . S
C1135 H1127 0.930 . S
C1135 C1136 1.355 . S
C1135 C1137 1.415 1_455 S
C1136 C1135 1.355 . S
C1136 C1138 1.419 . S
C1137 C1132 1.425 . S
C1137 C1134 1.409 . S
C1137 C1135 1.415 1_655 S
C1138 H1128 0.930 . S
C1138 C1136 1.419 . S
C1138 C1139 1.362 1_455 S
C1139 H1129 0.930 . S
C1139 C1132 1.409 . S
C1139 C1138 1.362 1_655 S
H1140 C1146 0.930 . S
H1141 C1149 0.930 . S
H1142 C1150 0.930 . S
H1143 C1151 0.930 . S
H1144 C1154 0.930 . S
H1145 C1155 0.930 . S
C1146 H1140 0.930 . S
C1146 C1147 1.355 . S
C1146 C1148 1.415 . S
C1147 C1146 1.355 . S
C1147 C1149 1.419 . S
C1148 C1146 1.415 . S
C1148 C1153 1.425 . S
C1148 C1155 1.409 . S
C1149 H1141 0.930 . S
C1149 C1147 1.419 . S
C1149 C1150 1.362 . S
C1150 H1142 0.930 . S
C1150 C1149 1.362 . S
C1150 C1153 1.409 . S
C1151 H1143 0.930 . S
C1151 C1152 1.355 . S
C1151 C1153 1.415 . S
C1152 C1151 1.355 . S
C1152 C1154 1.419 . S
C1153 C1148 1.425 . S
C1153 C1150 1.409 . S
C1153 C1151 1.415 . S
C1154 H1144 0.930 . S
C1154 C1152 1.419 . S
C1154 C1155 1.362 . S
C1155 H1145 0.930 . S
C1155 C1148 1.409 . S
C1155 C1154 1.362 . S
H1156 C1162 0.930 . S
H1157 C1165 0.930 . S
H1158 C1166 0.930 . S
H1159 C1167 0.930 . S
H1160 C1170 0.930 . S
H1161 C1171 0.930 . S
C1162 H1156 0.930 . S
C1162 C1163 1.355 . S
C1162 C1164 1.415 1_565 S
C1163 C1162 1.355 . S
C1163 C1165 1.419 . S
C1164 C1162 1.415 1_545 S
C1164 C1169 1.425 . S
C1164 C1171 1.409 . S
C1165 H1157 0.930 . S
C1165 C1163 1.419 . S
C1165 C1166 1.362 . S
C1166 H1158 0.930 . S
C1166 C1165 1.362 . S
C1166 C1169 1.409 1_565 S
C1167 H1159 0.930 . S
C1167 C1168 1.355 . S
C1167 C1169 1.415 . S
C1168 C1167 1.355 . S
C1168 C1170 1.419 . S
C1169 C1164 1.425 . S
C1169 C1166 1.409 1_545 S
C1169 C1167 1.415 . S
C1170 H1160 0.930 . S
C1170 C1168 1.419 . S
C1170 C1171 1.362 . S
C1171 H1161 0.930 . S
C1171 C1164 1.409 . S
C1171 C1170 1.362 . S
H1172 C1178 0.930 . S
H1173 C1181 0.930 . S
H1174 C1182 0.963 . S
H1175 C1183 0.930 . S
H1176 C1186 0.930 . S
H1177 C1187 0.930 . S
C1178 H1172 0.930 . S
C1178 C1179 1.355 . S
C1178 C1180 1.415 . S
C1179 C1178 1.355 . S
C1179 C1181 1.419 . S
C1180 C1178 1.415 . S
C1180 C1185 1.425 . S
C1180 C1187 1.409 . S
C1181 H1173 0.930 . S
C1181 C1179 1.419 . S
C1181 C1182 1.362 . S
C1182 H1174 0.963 . S
C1182 C1181 1.362 . S
C1182 C1185 1.409 . S
C1183 H1175 0.930 . S
C1183 C1184 1.355 . S
C1183 C1185 1.415 1_455 S
C1184 C1183 1.355 . S
C1184 C1186 1.419 1_455 S
C1185 C1180 1.425 . S
C1185 C1182 1.409 . S
C1185 C1183 1.415 1_655 S
C1186 H1176 0.930 . S
C1186 C1184 1.419 1_655 S
C1186 C1187 1.362 . S
C1187 H1177 0.930 . S
C1187 C1180 1.409 . S
C1187 C1186 1.362 . S
C763 C63 3.481 . S
C768 C74 3.481 . S
C779 C158 3.515 . S
C784 C147 3.515 . S
C795 C231 3.546 . S
C800 C242 3.546 . S
C811 C326 3.497 . S
C816 C315 3.497 1_556 S
C827 C399 3.511 . S
C832 C410 3.511 1_556 S
C843 C494 3.521 . S
C848 C483 3.521 1_556 S
C859 C573 1.763 . S
C864 C562 1.763 . S
C875 C646 2.773 . S
C880 C657 2.773 . S
C891 C741 1.251 . S
C896 C730 1.251 . S
C907 C476 1.613 . S
C912 C69 1.375 . S
C923 C140 2.107 . S
C928 C308 2.101 . S
C939 C237 0.991 . S
C944 C405 0.957 . S
C955 C224 2.404 1_556 S
C960 C571 2.406 . S
C971 C662 1.592 . S
C976 C56 1.554 . S
C987 C739 1.302 . S
C992 C153 1.279 . S
C1003 C735 0.997 . S
C1008 C58 0.964 1_556 S
C1019 C151 1.956 1_556 S
C1024 C567 1.979 . S
C1035 C644 1.900 . S
C1040 C226 1.806 . S
C1051 C235 1.590 . S
C1056 C310 1.272 . S
C1067 C403 2.107 . S
C1072 C67 2.108 . S
C1083 C142 1.080 . S
C1088 C478 1.066 . S
C1099 C746 0.993 . S
C1104 C321 0.936 . S
C1115 C578 1.954 . S
C1120 C392 1.962 . S
C1131 C655 1.878 . S
C1136 C489 1.813 . S
C1147 C560 2.413 . S
C1152 C487 2.410 . S
C1163 C319 1.555 . S
C1168 C651 1.594 . S
C1179 C728 1.306 . S
C1184 C394 1.253 . S
