# Generated by pormake.
# Topology bsn, (6)-cn, num edge types: 1
# Building blocks:
#     Node 0, Type 0, BuildingBlock: VOLQOD_clean_sbu_1, # of connection points: 6
#     Node 1, Type 0, BuildingBlock: VOLQOD_clean_sbu_1, # of connection points: 6
#     Node 2, Type 0, BuildingBlock: VOLQOD_clean_sbu_1, # of connection points: 6
#     Node 3, Type 0, BuildingBlock: VOLQOD_clean_sbu_1, # of connection points: 6
#     Edge 4, Type (0, 0), BuildingBlock: MIFKUJ_clean_linker_0, # of connection points: 2
#     Edge 5, Type (0, 0), BuildingBlock: MIFKUJ_clean_linker_0, # of connection points: 2
#     Edge 6, Type (0, 0), BuildingBlock: MIFKUJ_clean_linker_0, # of connection points: 2
#     Edge 7, Type (0, 0), BuildingBlock: MIFKUJ_clean_linker_0, # of connection points: 2
#     Edge 8, Type (0, 0), BuildingBlock: MIFKUJ_clean_linker_0, # of connection points: 2
#     Edge 9, Type (0, 0), BuildingBlock: MIFKUJ_clean_linker_0, # of connection points: 2
#     Edge 10, Type (0, 0), BuildingBlock: MIFKUJ_clean_linker_0, # of connection points: 2
#     Edge 11, Type (0, 0), BuildingBlock: MIFKUJ_clean_linker_0, # of connection points: 2
#     Edge 12, Type (0, 0), BuildingBlock: MIFKUJ_clean_linker_0, # of connection points: 2
#     Edge 13, Type (0, 0), BuildingBlock: MIFKUJ_clean_linker_0, # of connection points: 2
#     Edge 14, Type (0, 0), BuildingBlock: MIFKUJ_clean_linker_0, # of connection points: 2
#     Edge 15, Type (0, 0), BuildingBlock: MIFKUJ_clean_linker_0, # of connection points: 2
# Relax obj value: 0.019
# Max RMSD: 0.063
# Mean RMSD: 0.061
data_MOF--net-bsn--node1-VOLQOD_clean_sbu_1--edge1-MIFKUJ_clean_linker_0
_symmetry_space_group_name_H-M    P1
_symmetry_Int_Tables_number       1
_symmetry_cell_setting            triclinic
loop_
_symmetry_equiv_pos_as_xyz
'x, y, z'
_cell_length_a     41.751299
_cell_length_b     41.58921
_cell_length_c     21.610628
_cell_angle_alpha  90.197111
_cell_angle_beta   90.014151
_cell_angle_gamma 89.898298
loop_
_atom_site_label
_atom_site_type_symbol
_atom_site_fract_x
_atom_site_fract_y
_atom_site_fract_z
_atom_type_partial_charge
O0 O 0.02989 0.26193 0.49529 0.0
Zn1 Zn 0.03595 0.27365 0.40602 0.0
O2 O 0.00327 0.25303 0.35605 0.0
Zn3 Zn 0.02273 0.22079 0.30318 0.0
Zn4 Zn 0.97144 0.2325 0.4077 0.0
Zn5 Zn 0.98291 0.2852 0.30491 0.0
O6 O 0.00828 0.22705 0.21552 0.0
O7 O 0.99605 0.27924 0.21604 0.0
O8 O 0.08033 0.26256 0.37558 0.0
O9 O 0.07044 0.22665 0.30181 0.0
O10 O 0.01314 0.17561 0.33202 0.0
O11 O 0.97507 0.18461 0.40155 0.0
O12 O 0.92641 0.24475 0.38263 0.0
O13 O 0.03134 0.3217 0.40313 0.0
O14 O 0.93531 0.27951 0.30687 0.0
O15 O 0.99224 0.33016 0.3354 0.0
C16 C 0.00554 0.2516 0.5247 0.0
C17 C 0.00197 0.25312 0.18715 0.0
C18 C 0.99291 0.16532 0.37136 0.0
C19 C 0.09001 0.24381 0.3327 0.0
C20 C 0.91613 0.26326 0.34009 0.0
C21 C 0.01262 0.34064 0.37438 0.0
O22 O 0.98029 0.24218 0.49694 0.0
O23 O 0.0282 0.74563 0.47379 0.0
Zn24 Zn 0.0345 0.73235 0.56205 0.0
O25 O 0.00299 0.75337 0.614 0.0
Zn26 Zn 0.02465 0.78598 0.663 0.0
Zn27 Zn 0.97033 0.77298 0.56242 0.0
Zn28 Zn 0.98273 0.72188 0.66689 0.0
O29 O 0.0146 0.77968 0.75287 0.0
O30 O 0.99525 0.72975 0.75527 0.0
O31 O 0.07962 0.74159 0.58961 0.0
O32 O 0.07243 0.78067 0.65819 0.0
O33 O 0.01327 0.83081 0.63404 0.0
O34 O 0.97534 0.82095 0.56447 0.0
O35 O 0.92538 0.76261 0.59162 0.0
O36 O 0.0287 0.68453 0.5649 0.0
O37 O 0.93513 0.72731 0.66592 0.0
O38 O 0.99256 0.67644 0.63871 0.0
C39 C 0.00271 0.75332 0.44495 0.0
C40 C 0.00533 0.75498 0.78266 0.0
C41 C 0.9931 0.8406 0.59395 0.0
C42 C 0.09083 0.76175 0.62838 0.0
C43 C 0.91556 0.74407 0.63443 0.0
C44 C 0.01142 0.66574 0.59704 0.0
O45 O 0.97684 0.76034 0.47332 0.0
O46 O 0.49239 0.72274 0.72118 0.0
Zn47 Zn 0.48203 0.71719 0.81193 0.0
O48 O 0.50116 0.7515 0.86104 0.0
Zn49 Zn 0.53365 0.73373 0.91507 0.0
Zn50 Zn 0.52073 0.78205 0.80589 0.0
Zn51 Zn 0.46877 0.7738 0.90919 0.0
O52 O 0.5264 0.74816 0.00285 0.0
O53 O 0.4763 0.76665 -6e-05 0.0
O54 O 0.49484 0.67308 0.84356 0.0
O55 O 0.52904 0.6859 0.91837 0.0
O56 O 0.57848 0.74376 0.88413 0.0
O57 O 0.56822 0.77556 0.80419 0.0
O58 O 0.51194 0.82776 0.83156 0.0
O59 O 0.43397 0.72068 0.8165 0.0
O60 O 0.47179 0.82157 0.89768 0.0
O61 O 0.42447 0.7601 0.88368 0.0
C62 C 0.49731 0.74882 0.69184 0.0
C63 C 0.50127 0.75846 0.03002 0.0
C64 C 0.58798 0.76025 0.83797 0.0
C65 C 0.5133 0.665 0.88791 0.0
C66 C 0.49073 0.83954 0.86738 0.0
C67 C 0.41451 0.73876 0.84588 0.0
O68 O 0.50484 0.77478 0.71963 0.0
O69 O 0.50907 0.22159 0.25074 0.0
Zn70 Zn 0.52361 0.21724 0.16295 0.0
O71 O 0.50305 0.2494 0.11259 0.0
Zn72 Zn 0.47048 0.2285 0.06297 0.0
Zn73 Zn 0.4844 0.28205 0.16621 0.0
Zn74 Zn 0.53468 0.26914 0.05985 0.0
O75 O 0.47899 0.2356 0.97255 0.0
O76 O 0.52879 0.2549 0.97194 0.0
O77 O 0.51525 0.17234 0.13162 0.0
O78 O 0.47295 0.18064 0.07159 0.0
O79 O 0.4262 0.24273 0.08838 0.0
O80 O 0.4364 0.27846 0.16248 0.0
O81 O 0.49631 0.32734 0.13898 0.0
O82 O 0.57085 0.22473 0.16465 0.0
O83 O 0.52774 0.31657 0.05853 0.0
O84 O 0.57968 0.26075 0.09108 0.0
C85 C 0.50197 0.24671 0.28175 0.0
C86 C 0.50428 0.24395 0.94381 0.0
C87 C 0.41662 0.26234 0.12995 0.0
C88 C 0.49292 0.16173 0.09708 0.0
C89 C 0.51281 0.33655 0.09266 0.0
C90 C 0.58987 0.24257 0.13424 0.0
O91 O 0.49607 0.2735 0.25542 0.0
H92 H 0.96205 0.38205 0.37648 0.0
H93 H 0.96132 0.43707 0.41624 0.0
H94 H 0.06341 0.43225 0.44744 0.0
H95 H 0.06371 0.37645 0.4115 0.0
H96 H 0.03927 0.45803 0.54093 0.0
H97 H 0.02524 0.47783 0.32486 0.0
H98 H 0.00096 0.47233 0.22133 0.0
H99 H 0.91111 0.50673 0.29225 0.0
H100 H 0.93475 0.51206 0.39642 0.0
H101 H 0.06091 0.63116 0.5486 0.0
H102 H 0.06026 0.57489 0.51466 0.0
H103 H 0.96226 0.56621 0.57494 0.0
H104 H 0.96297 0.6223 0.61083 0.0
H105 H 0.9831 0.54832 0.43769 0.0
H106 H 0.00192 0.52867 0.65634 0.0
H107 H 0.03084 0.53667 0.75468 0.0
H108 H 0.11821 0.50477 0.66935 0.0
H109 H 0.08988 0.49705 0.57018 0.0
C110 C 0.98439 0.39294 0.39103 0.0
C111 C 0.01297 0.3751 0.39072 0.0
C112 C 0.984 0.42448 0.41358 0.0
C113 C 0.0124 0.43917 0.4342 0.0
C114 C 0.04114 0.42153 0.43212 0.0
C115 C 0.04136 0.38972 0.41122 0.0
C116 C 0.01198 0.47229 0.46061 0.0
C117 C 0.02729 0.47775 0.51768 0.0
C118 C 0.99598 0.49817 0.43118 0.0
C119 C 0.98169 0.49504 0.36857 0.0
C120 C 0.00024 0.484 0.31847 0.0
C121 C 0.9866 0.48095 0.25966 0.0
C122 C 0.95449 0.48909 0.25026 0.0
C123 C 0.93597 0.50039 0.29962 0.0
C124 C 0.94948 0.50346 0.35854 0.0
C125 C 0.03936 0.61713 0.55541 0.0
C126 C 0.01199 0.63104 0.5824 0.0
C127 C 0.03905 0.58508 0.53603 0.0
C128 C 0.0112 0.56663 0.54228 0.0
C129 C 0.98395 0.58021 0.56993 0.0
C130 C 0.98447 0.6121 0.59066 0.0
C131 C 0.01031 0.53359 0.51721 0.0
C132 C 0.99489 0.52833 0.4605 0.0
C133 C 0.02684 0.50812 0.54607 0.0
C134 C 0.04385 0.51264 0.60569 0.0
C135 C 0.02737 0.5237 0.65837 0.0
C136 C 0.04363 0.5281 0.7143 0.0
C137 C 0.07637 0.52133 0.71822 0.0
C138 C 0.09287 0.51005 0.66623 0.0
C139 C 0.07671 0.50564 0.61017 0.0
H140 H 0.08892 0.52474 0.76157 0.0
H141 H 0.94397 0.48671 0.20469 0.0
H142 H 0.63804 0.72915 0.89498 0.0
H143 H 0.69386 0.72659 0.8606 0.0
H144 H 0.6714 0.78865 0.70703 0.0
H145 H 0.61574 0.79121 0.74053 0.0
H146 H 0.70538 0.737 0.66981 0.0
H147 H 0.71269 0.81689 0.8296 0.0
H148 H 0.70585 0.83944 0.93443 0.0
H149 H 0.76522 0.76463 0.00915 0.0
H150 H 0.77204 0.74134 0.9048 0.0
H151 H 0.8655 0.77559 0.57835 0.0
H152 H 0.80961 0.77754 0.61251 0.0
H153 H 0.83201 0.71366 0.76328 0.0
H154 H 0.88771 0.71157 0.72984 0.0
H155 H 0.79815 0.76601 0.80199 0.0
H156 H 0.79082 0.68622 0.6419 0.0
H157 H 0.79787 0.664 0.53686 0.0
H158 H 0.73871 0.73909 0.46255 0.0
H159 H 0.73168 0.76204 0.56713 0.0
C160 C 0.64502 0.74248 0.85421 0.0
C161 C 0.62234 0.76035 0.82055 0.0
C162 C 0.67695 0.74104 0.83468 0.0
C163 C 0.68678 0.75751 0.78131 0.0
C164 C 0.66431 0.77568 0.74819 0.0
C165 C 0.63249 0.77719 0.76767 0.0
C166 C 0.72026 0.75516 0.75879 0.0
C167 C 0.72566 0.74374 0.69843 0.0
C168 C 0.74671 0.76327 0.79662 0.0
C169 C 0.74257 0.77716 0.85946 0.0
C170 C 0.72404 0.80506 0.86845 0.0
C171 C 0.72021 0.81802 0.92777 0.0
C172 C 0.73501 0.80342 0.97845 0.0
C173 C 0.75373 0.77587 0.96987 0.0
C174 C 0.75759 0.7628 0.91064 0.0
C175 C 0.85848 0.7617 0.6184 0.0
C176 C 0.88115 0.74345 0.65132 0.0
C177 C 0.82652 0.76281 0.63782 0.0
C178 C 0.81669 0.7457 0.6904 0.0
C179 C 0.83913 0.72711 0.72271 0.0
C180 C 0.87096 0.72586 0.70325 0.0
C181 C 0.78324 0.74788 0.71305 0.0
C182 C 0.77786 0.75926 0.77341 0.0
C183 C 0.75681 0.73978 0.67521 0.0
C184 C 0.76101 0.72605 0.61227 0.0
C185 C 0.77956 0.69817 0.6031 0.0
C186 C 0.7835 0.6854 0.54365 0.0
C187 C 0.76883 0.70017 0.49304 0.0
C188 C 0.75011 0.7277 0.50179 0.0
C189 C 0.74611 0.74059 0.56115 0.0
H190 H 0.7719 0.69025 0.44705 0.0
H191 H 0.73204 0.8135 0.02433 0.0
H192 H 0.51697 0.36031 0.97667 0.0
H193 H 0.5175 0.41628 0.94463 0.0
H194 H 0.51153 0.44642 0.13572 0.0
H195 H 0.50894 0.38985 0.16781 0.0
H196 H 0.47646 0.48379 0.07293 0.0
H197 H 0.58393 0.44917 0.04622 0.0
H198 H 0.62837 0.4144 0.01152 0.0
H199 H 0.60272 0.43128 0.82196 0.0
H200 H 0.55783 0.46582 0.85552 0.0
H201 H 0.53231 0.64242 0.00016 0.0
H202 H 0.53256 0.58681 0.03611 0.0
H203 H 0.49876 0.55494 0.85773 0.0
H204 H 0.49769 0.61086 0.82142 0.0
H205 H 0.55602 0.52029 0.91777 0.0
H206 H 0.4463 0.55571 0.95437 0.0
H207 H 0.4061 0.59319 -0.00291 0.0
H208 H 0.44294 0.57769 0.18014 0.0
H209 H 0.48369 0.54046 0.13832 0.0
C210 C 0.51587 0.37885 0.01196 0.0
C211 C 0.51329 0.37078 0.07482 0.0
C212 C 0.51639 0.41092 -0.00642 0.0
C213 C 0.51553 0.43574 0.03774 0.0
C214 C 0.51247 0.42774 0.10071 0.0
C215 C 0.51106 0.39548 0.11908 0.0
C216 C 0.51724 0.46989 0.01757 0.0
C217 C 0.49421 0.49175 0.03972 0.0
C218 C 0.54027 0.48054 0.97391 0.0
C219 C 0.56734 0.45988 0.95344 0.0
C220 C 0.58763 0.4453 -0.00286 0.0
C221 C 0.61292 0.42565 0.97767 0.0
C222 C 0.61832 0.42058 0.91459 0.0
C223 C 0.59849 0.43521 0.87082 0.0
C224 C 0.57314 0.45486 0.89003 0.0
C225 C 0.52511 0.62362 0.96828 0.0
C226 C 0.51501 0.63103 0.90782 0.0
C227 C 0.52517 0.5919 -0.01093 0.0
C228 C 0.51558 0.56695 0.9496 0.0
C229 C 0.50621 0.57402 0.88876 0.0
C230 C 0.50556 0.6059 0.86819 0.0
C231 C 0.51504 0.53352 0.97243 0.0
C232 C 0.5384 0.51202 0.951 0.0
C233 C 0.49297 0.52348 0.01796 0.0
C234 C 0.46824 0.54557 0.04313 0.0
C235 C 0.44601 0.56052 0.00365 0.0
C236 C 0.42308 0.58166 0.02772 0.0
C237 C 0.42202 0.58788 0.09127 0.0
C238 C 0.44381 0.57288 0.13091 0.0
C239 C 0.46681 0.55173 0.10706 0.0
H240 H 0.40425 0.60427 0.10982 0.0
H241 H 0.63791 0.40535 0.89961 0.0
H242 H 0.88643 0.29775 0.24924 0.0
H243 H 0.83043 0.29544 0.21831 0.0
H244 H 0.81094 0.2291 0.36659 0.0
H245 H 0.86733 0.23073 0.39734 0.0
H246 H 0.78674 0.20782 0.26016 0.0
H247 H 0.78402 0.30725 0.37192 0.0
H248 H 0.80143 0.36194 0.40051 0.0
H249 H 0.78181 0.39459 0.21605 0.0
H250 H 0.76469 0.33997 0.18608 0.0
H251 H 0.61814 0.21099 0.2304 0.0
H252 H 0.67311 0.21565 0.26659 0.0
H253 H 0.69423 0.28105 0.11761 0.0
H254 H 0.63875 0.27711 0.08153 0.0
H255 H 0.71722 0.30301 0.22614 0.0
H256 H 0.72089 0.20295 0.11445 0.0
H257 H 0.70327 0.14819 0.08678 0.0
H258 H 0.72096 0.11677 0.27276 0.0
H259 H 0.7383 0.17147 0.30177 0.0
C260 C 0.87025 0.28293 0.27587 0.0
C261 C 0.88145 0.26434 0.32573 0.0
C262 C 0.83814 0.28176 0.25823 0.0
C263 C 0.81644 0.26229 0.29042 0.0
C264 C 0.82732 0.24429 0.34113 0.0
C265 C 0.85952 0.24535 0.35874 0.0
C266 C 0.78289 0.25931 0.26872 0.0
C267 C 0.77135 0.22859 0.25372 0.0
C268 C 0.76315 0.28651 0.25868 0.0
C269 C 0.77333 0.31943 0.27662 0.0
C270 C 0.78365 0.32603 0.33731 0.0
C271 C 0.79342 0.35703 0.35379 0.0
C272 C 0.7928 0.3817 0.31009 0.0
C273 C 0.78231 0.37544 0.24984 0.0
C274 C 0.77253 0.34447 0.2331 0.0
C275 C 0.63446 0.22617 0.20479 0.0
C276 C 0.624 0.24361 0.15282 0.0
C277 C 0.66596 0.22873 0.22557 0.0
C278 C 0.68786 0.24842 0.19444 0.0
C279 C 0.67768 0.26568 0.14225 0.0
C280 C 0.64603 0.26327 0.12153 0.0
C281 C 0.72115 0.25154 0.21751 0.0
C282 C 0.73263 0.28226 0.23272 0.0
C283 C 0.74084 0.22435 0.22787 0.0
C284 C 0.73063 0.19138 0.2104 0.0
C285 C 0.72081 0.18442 0.14956 0.0
C286 C 0.71091 0.15338 0.13361 0.0
C287 C 0.71092 0.12904 0.17802 0.0
C288 C 0.72093 0.13566 0.23843 0.0
C289 C 0.73083 0.16666 0.25463 0.0
H290 H 0.70323 0.10503 0.16559 0.0
H291 H 0.80038 0.40568 0.32294 0.0
H292 H 0.36682 0.23136 0.07246 0.0
H293 H 0.31082 0.23 0.10524 0.0
H294 H 0.3321 0.29598 0.25402 0.0
H295 H 0.3881 0.29741 0.22198 0.0
H296 H 0.29984 0.24341 0.29428 0.0
H297 H 0.28936 0.32084 0.13168 0.0
H298 H 0.29538 0.34201 0.0259 0.0
H299 H 0.23861 0.26427 0.95455 0.0
H300 H 0.23263 0.24236 0.05987 0.0
H301 H 0.13941 0.2768 0.38716 0.0
H302 H 0.19486 0.28019 0.35155 0.0
H303 H 0.17361 0.21459 0.20214 0.0
H304 H 0.11814 0.21115 0.237 0.0
H305 H 0.20575 0.26725 0.16182 0.0
H306 H 0.21667 0.1894 0.32321 0.0
H307 H 0.21076 0.16761 0.42854 0.0
H308 H 0.26687 0.24542 0.50156 0.0
H309 H 0.27274 0.26794 0.39669 0.0
C310 C 0.35954 0.24595 0.11164 0.0
C311 C 0.38203 0.26439 0.14472 0.0
C312 C 0.32749 0.24518 0.13022 0.0
C313 C 0.31734 0.2629 0.18205 0.0
C314 C 0.3395 0.28205 0.21402 0.0
C315 C 0.37149 0.28292 0.19541 0.0
C316 C 0.28405 0.26011 0.20504 0.0
C317 C 0.27925 0.2491 0.26565 0.0
C318 C 0.25727 0.26667 0.16702 0.0
C319 C 0.26083 0.27978 0.10362 0.0
C320 C 0.2784 0.30809 0.09338 0.0
C321 C 0.28176 0.32026 0.03351 0.0
C322 C 0.26746 0.30445 0.98352 0.0
C323 C 0.24971 0.27647 -0.00669 0.0
C324 C 0.24631 0.26418 0.05309 0.0
C325 C 0.14657 0.26282 0.34711 0.0
C326 C 0.12428 0.24371 0.31497 0.0
C327 C 0.17829 0.26477 0.32686 0.0
C328 C 0.18832 0.24758 0.27428 0.0
C329 C 0.1663 0.22811 0.24271 0.0
C330 C 0.13464 0.22606 0.26298 0.0
C331 C 0.22156 0.25063 0.2511 0.0
C332 C 0.22635 0.26163 0.19046 0.0
C333 C 0.24836 0.24399 0.28902 0.0
C334 C 0.24485 0.23054 0.35217 0.0
C335 C 0.22751 0.20203 0.36179 0.0
C336 C 0.22421 0.18951 0.4214 0.0
C337 C 0.23835 0.20517 0.47174 0.0
C338 C 0.25589 0.23334 0.46253 0.0
C339 C 0.25922 0.24598 0.40301 0.0
H340 H 0.23579 0.19544 0.51785 0.0
H341 H 0.27008 0.31391 0.9372 0.0
H342 H 0.3841 0.69541 0.77058 0.0
H343 H 0.32866 0.6973 0.73484 0.0
H344 H 0.31136 0.78067 0.8494 0.0
H345 H 0.3666 0.77867 0.88635 0.0
H346 H 0.26069 0.74064 0.85021 0.0
H347 H 0.32921 0.78846 0.69667 0.0
H348 H 0.37498 0.78954 0.62459 0.0
H349 H 0.33575 0.70934 0.52471 0.0
H350 H 0.29 0.70743 0.59688 0.0
H351 H 0.1235 0.80258 0.70508 0.0
H352 H 0.17871 0.79741 0.74072 0.0
H353 H 0.19156 0.71402 0.62408 0.0
H354 H 0.13643 0.71925 0.58726 0.0
H355 H 0.24427 0.75207 0.6238 0.0
H356 H 0.17506 0.70505 0.77584 0.0
H357 H 0.12924 0.70408 0.8478 0.0
H358 H 0.16969 0.78275 0.95033 0.0
H359 H 0.21554 0.78452 0.87838 0.0
C360 C 0.36842 0.71389 0.78892 0.0
C361 C 0.37993 0.73711 0.83086 0.0
C362 C 0.33676 0.71501 0.76818 0.0
C363 C 0.31611 0.73953 0.78847 0.0
C364 C 0.32697 0.76165 0.83289 0.0
C365 C 0.35859 0.76047 0.85392 0.0
C366 C 0.28373 0.74314 0.76121 0.0
C367 C 0.25711 0.74346 0.80079 0.0
C368 C 0.27907 0.74619 0.69655 0.0
C369 C 0.30634 0.7476 0.65257 0.0
C370 C 0.33045 0.77091 0.6596 0.0
C371 C 0.35639 0.77168 0.61872 0.0
C372 C 0.35833 0.74946 0.57022 0.0
C373 C 0.33426 0.72649 0.56238 0.0
C374 C 0.30831 0.72556 0.60325 0.0
C375 C 0.13813 0.78335 0.68632 0.0
C376 C 0.1254 0.76113 0.64374 0.0
C377 C 0.16966 0.78035 0.70701 0.0
C378 C 0.18899 0.75492 0.68603 0.0
C379 C 0.17696 0.7337 0.64113 0.0
C380 C 0.14542 0.73674 0.62017 0.0
C381 C 0.22126 0.74976 0.71284 0.0
C382 C 0.24784 0.74913 0.67319 0.0
C383 C 0.2259 0.74643 0.77744 0.0
C384 C 0.19859 0.7451 0.82137 0.0
C385 C 0.17408 0.72228 0.8135 0.0
C386 C 0.14812 0.72157 0.85431 0.0
C387 C 0.14651 0.7434 0.90351 0.0
C388 C 0.17094 0.76589 0.91214 0.0
C389 C 0.19694 0.76674 0.87139 0.0
H390 H 0.12637 0.74284 0.93502 0.0
H391 H 0.37842 0.7501 0.53864 0.0
H392 H 0.53967 0.88248 0.85634 0.0
H393 H 0.53972 0.93884 0.88998 0.0
H394 H 0.43958 0.93198 0.93642 0.0
H395 H 0.43947 0.87537 0.90461 0.0
H396 H 0.47074 0.99483 0.8651 0.0
H397 H 0.47118 0.92396 0.05072 0.0
H398 H 0.49407 0.87636 0.10258 0.0
H399 H 0.58814 0.91737 0.08973 0.0
H400 H 0.56579 0.96502 0.03701 0.0
H401 H 0.44166 0.12788 0.05434 0.0
H402 H 0.44154 0.07316 0.01325 0.0
H403 H 0.54185 0.06355 0.05803 0.0
H404 H 0.54179 0.11796 0.10146 0.0
H405 H 0.5137 0.00903 0.07783 0.0
H406 H 0.5164 0.08244 0.91035 0.0
H407 H 0.49978 0.12907 0.84779 0.0
H408 H 0.40856 0.08489 0.8139 0.0
H409 H 0.42442 0.0382 0.87716 0.0
C410 C 0.51751 0.89317 0.8725 0.0
C411 C 0.48961 0.87455 0.8783 0.0
C412 C 0.51759 0.92529 0.89161 0.0
C413 C 0.48965 0.93932 0.91549 0.0
C414 C 0.46128 0.92143 0.91776 0.0
C415 C 0.46133 0.88914 0.89992 0.0
C416 C 0.4909 0.97137 0.94461 0.0
C417 C 0.47972 0.99809 0.9118 0.0
C418 C 0.50381 0.97543 0.00449 0.0
C419 C 0.51689 0.94783 0.03954 0.0
C420 C 0.49675 0.92276 0.05887 0.0
C421 C 0.50961 0.89579 0.08836 0.0
C422 C 0.54256 0.89377 0.09904 0.0
C423 C 0.56264 0.91893 0.08119 0.0
C424 C 0.54989 0.94593 0.05161 0.0
C425 C 0.46358 0.11394 0.05626 0.0
C426 C 0.49181 0.12728 0.08061 0.0
C427 C 0.46354 0.08275 0.03238 0.0
C428 C 0.49191 0.06459 0.03095 0.0
C429 C 0.51973 0.07722 0.05822 0.0
C430 C 0.51966 0.10828 0.08313 0.0
C431 C 0.49269 0.03295 -0.00091 0.0
C432 C 0.50452 0.00614 0.03118 0.0
C433 C 0.48106 0.02904 0.93779 0.0
C434 C 0.4715 0.05692 0.89903 0.0
C435 C 0.49271 0.08275 0.88992 0.0
C436 C 0.48344 0.10919 0.8543 0.0
C437 C 0.45311 0.10998 0.82701 0.0
C438 C 0.43203 0.08426 0.83514 0.0
C439 C 0.44116 0.05779 0.87085 0.0
H440 H 0.44597 0.13048 0.79947 0.0
H441 H 0.55253 0.87269 0.12105 0.0
H442 H 0.94993 0.87034 0.51827 0.0
H443 H 0.95104 0.92567 0.48159 0.0
H444 H 0.03452 0.94445 0.59351 0.0
H445 H 0.03339 0.88903 0.63137 0.0
H446 H 0.9934 0.99486 0.59575 0.0
H447 H 0.04313 0.92867 0.44177 0.0
H448 H 0.04715 0.88256 0.37013 0.0
H449 H 0.96436 0.91604 0.27144 0.0
H450 H 0.95954 0.96211 0.3431 0.0
H451 H 0.0359 0.11812 0.33953 0.0
H452 H 0.03709 0.06264 0.3771 0.0
H453 H 0.94829 0.07871 0.47449 0.0
H454 H 0.94721 0.13415 0.43837 0.0
H455 H 0.99847 0.01106 0.36839 0.0
H456 H 0.95101 0.04245 0.61279 0.0
H457 H 0.94922 0.08957 0.68242 0.0
H458 H 0.03527 0.12621 0.60017 0.0
H459 H 0.03785 0.07909 0.53069 0.0
C460 C 0.96839 0.88625 0.53568 0.0
C461 C 0.99178 0.87512 0.57737 0.0
C462 C 0.96903 0.91787 0.51443 0.0
C463 C 0.99323 0.93897 0.53388 0.0
C464 C 0.01574 0.92847 0.57767 0.0
C465 C 0.01505 0.89679 0.59923 0.0
C466 C 0.99557 0.97156 0.50667 0.0
C467 C 0.99458 0.99841 0.5461 0.0
C468 C 0.99775 0.97616 0.44187 0.0
C469 C 0.00083 0.94872 0.39813 0.0
C470 C 0.02566 0.9261 0.40503 0.0
C471 C 0.02809 0.89997 0.3644 0.0
C472 C 0.00598 0.89633 0.31635 0.0
C473 C 0.98145 0.91888 0.30871 0.0
C474 C 0.97888 0.94502 0.34929 0.0
C475 C 0.01643 0.10972 0.36831 0.0
C476 C 0.99167 0.13068 0.38657 0.0
C477 C 0.01715 0.07802 0.38975 0.0
C478 C 0.99314 0.06679 0.42964 0.0
C479 C 0.96746 0.08711 0.44491 0.0
C480 C 0.96683 0.11878 0.42398 0.0
C481 C 0.99544 0.03432 0.45737 0.0
C482 C 0.9974 0.0075 0.41806 0.0
C483 C 0.99478 0.02977 0.52231 0.0
C484 C 0.99442 0.05736 0.56614 0.0
C485 C 0.9697 0.06041 0.60993 0.0
C486 C 0.96852 0.08716 0.64928 0.0
C487 C 0.992 0.11095 0.64544 0.0
C488 C 0.017 0.10784 0.60285 0.0
C489 C 0.01833 0.08112 0.56349 0.0
H490 H 0.99081 0.13182 0.67541 0.0
H491 H 0.00789 0.87608 0.28497 0.0
H492 H 0.02055 0.30134 0.11067 0.0
H493 H 0.02224 0.30035 -0.00233 0.0
H494 H 0.98321 0.2042 -0.00204 0.0
H495 H 0.9836 0.20443 0.11107 0.0
H496 H 0.02624 0.20577 0.91722 0.0
H497 H 0.93781 0.27517 0.96111 0.0
H498 H 0.90919 0.32088 0.00877 0.0
H499 H 0.97301 0.38695 0.91951 0.0
H500 H 0.00229 0.34161 0.87192 0.0
H501 H 0.97195 0.21197 0.60086 0.0
H502 H 0.97285 0.21121 0.71421 0.0
H503 H 0.04147 0.2886 0.71506 0.0
H504 H 0.04127 0.2891 0.60169 0.0
H505 H 0.98326 0.29618 0.79297 0.0
H506 H 0.06918 0.22176 0.74512 0.0
H507 H 0.09244 0.17366 0.69542 0.0
H508 H 0.02535 0.11364 0.79128 0.0
H509 H 0.00115 0.16147 0.84043 0.0
C510 C 0.01227 0.28008 0.08641 0.0
C511 C 0.00184 0.253 0.11921 0.0
C512 C 0.01305 0.27957 0.0219 0.0
C513 C 0.00224 0.25243 -0.01089 0.0
C514 C 0.99169 0.2254 0.02211 0.0
C515 C 0.99181 0.22557 0.08664 0.0
C516 C 0.00252 0.25191 0.92051 0.0
C517 C 0.01638 0.22537 0.8902 0.0
C518 C 0.99003 0.27762 0.88498 0.0
C519 C 0.97243 0.30497 0.91343 0.0
C520 C 0.94588 0.29944 0.95199 0.0
C521 C 0.92952 0.32528 0.97894 0.0
C522 C 0.93932 0.35679 0.9673 0.0
C523 C 0.96547 0.36253 0.92855 0.0
C524 C 0.98194 0.33677 0.90152 0.0
C525 C 0.98727 0.22877 0.62525 0.0
C526 C 0.00649 0.25067 0.59271 0.0
C527 C 0.98784 0.2282 0.68977 0.0
C528 C 0.00725 0.24983 0.72247 0.0
C529 C 0.0264 0.27174 0.69023 0.0
C530 C 0.02633 0.27192 0.6257 0.0
C531 C 0.00688 0.25019 0.79054 0.0
C532 C 0.99299 0.27667 0.82045 0.0
C533 C 0.0185 0.22405 0.82554 0.0
C534 C 0.0331 0.19528 0.79594 0.0
C535 C 0.05912 0.19836 0.75507 0.0
C536 C 0.07253 0.17112 0.72708 0.0
C537 C 0.06035 0.14062 0.74013 0.0
C538 C 0.03478 0.13728 0.78128 0.0
C539 C 0.02117 0.16446 0.8091 0.0
H540 H 0.07074 0.11957 0.71838 0.0
H541 H 0.92662 0.37677 -0.01178 0.0
H542 H 0.96685 0.72203 0.86169 0.0
H543 H 0.96734 0.72412 0.975 0.0
H544 H 0.04621 0.79086 0.97021 0.0
H545 H 0.04539 0.78959 0.85673 0.0
H546 H 0.05035 0.73145 0.05393 0.0
H547 H 0.98529 0.82429 0.00208 0.0
H548 H 0.94069 0.8514 0.94849 0.0
H549 H 0.87341 0.78869 0.03728 0.0
H550 H 0.9177 0.76088 0.09072 0.0
H551 H 0.05285 0.76993 0.37184 0.0
H552 H 0.05398 0.77247 0.25898 0.0
H553 H 0.95566 0.74045 0.25236 0.0
H554 H 0.95393 0.73989 0.36549 0.0
H555 H 0.96248 0.78377 0.17191 0.0
H556 H 0.02339 0.68962 0.22169 0.0
H557 H 0.06572 0.65789 0.27269 0.0
H558 H 0.13781 0.71595 0.18625 0.0
H559 H 0.09587 0.74832 0.13535 0.0
C560 C 0.98431 0.73711 0.88482 0.0
C561 C 0.00603 0.75573 0.85068 0.0
C562 C 0.98448 0.73833 0.94929 0.0
C563 C 0.00673 0.75772 0.98037 0.0
C564 C 0.02886 0.77586 0.9466 0.0
C565 C 0.02826 0.77519 0.88205 0.0
C566 C 0.00678 0.75893 0.04837 0.0
C567 C 0.03147 0.74325 0.08008 0.0
C568 C 0.98149 0.77344 0.08161 0.0
C569 C 0.95484 0.79029 0.04986 0.0
C570 C 0.96102 0.81608 0.00971 0.0
C571 C 0.93579 0.83162 0.97948 0.0
C572 C 0.90424 0.82172 -0.01066 0.0
C573 C 0.89786 0.79631 0.02962 0.0
C574 C 0.92301 0.78067 0.05993 0.0
C575 C 0.03152 0.76342 0.34614 0.0
C576 C 0.00336 0.7545 0.37703 0.0
C577 C 0.03223 0.76471 0.2817 0.0
C578 C 0.00513 0.75594 0.24702 0.0
C579 C 0.97689 0.74727 0.27805 0.0
C580 C 0.97591 0.74686 0.34258 0.0
C581 C 0.00611 0.75604 0.17846 0.0
C582 C 0.98154 0.77196 0.14632 0.0
C583 C 0.0312 0.74107 0.14476 0.0
C584 C 0.05648 0.7216 0.17523 0.0
C585 C 0.04826 0.69577 0.21392 0.0
C586 C 0.07219 0.67765 0.24275 0.0
C587 C 0.10443 0.68496 0.23286 0.0
C588 C 0.11282 0.71036 0.19396 0.0
C589 C 0.08899 0.72858 0.16506 0.0
H590 H 0.12292 0.6709 0.25522 0.0
H591 H 0.88474 0.83377 0.96589 0.0
H592 H 0.46437 0.79696 0.10379 0.0
H593 H 0.46155 0.79667 0.2172 0.0
H594 H 0.53264 0.72141 0.22296 0.0
H595 H 0.53619 0.72201 0.10987 0.0
H596 H 0.47021 0.71238 0.29414 0.0
H597 H 0.55914 0.78691 0.26007 0.0
H598 H 0.58369 0.83583 0.21678 0.0
H599 H 0.51158 0.89402 0.30419 0.0
H600 H 0.48639 0.84539 0.34744 0.0
H601 H 0.51129 0.70076 0.61002 0.0
H602 H 0.50891 0.70335 0.49707 0.0
H603 H 0.47164 0.80016 0.50882 0.0
H604 H 0.47597 0.79825 0.62142 0.0
H605 H 0.51322 0.79997 0.42631 0.0
H606 H 0.42484 0.73185 0.46566 0.0
H607 H 0.39502 0.68619 0.50966 0.0
H608 H 0.45576 0.61994 0.41178 0.0
H609 H 0.4863 0.66519 0.36799 0.0
C610 C 0.47951 0.78048 0.12931 0.0
C611 C 0.50052 0.75951 0.09818 0.0
C612 C 0.47788 0.78038 0.19386 0.0
C613 C 0.49683 0.75895 0.22794 0.0
C614 C 0.51783 0.73805 0.1971 0.0
C615 C 0.51995 0.73857 0.13269 0.0
C616 C 0.49447 0.75795 0.2959 0.0
C617 C 0.47984 0.73129 0.3234 0.0
C618 C 0.50578 0.78339 0.33325 0.0
C619 C 0.52071 0.8125 0.30646 0.0
C620 C 0.54833 0.8101 0.26951 0.0
C621 C 0.56243 0.83779 0.24519 0.0
C622 C 0.54921 0.86801 0.25778 0.0
C623 C 0.52181 0.8706 0.29454 0.0
C624 C 0.50763 0.843 0.319 0.0
C625 C 0.50244 0.72247 0.58829 0.0
C626 C 0.49397 0.74935 0.62411 0.0
C627 C 0.50085 0.72389 0.5238 0.0
C628 C 0.48968 0.75183 0.49422 0.0
C629 C 0.48048 0.7784 0.53037 0.0
C630 C 0.48291 0.77728 0.59466 0.0
C631 C 0.48919 0.75402 0.42566 0.0
C632 C 0.50326 0.78099 0.39768 0.0
C633 C 0.47637 0.72929 0.38785 0.0
C634 C 0.45805 0.70194 0.41399 0.0
C635 C 0.432 0.70754 0.45389 0.0
C636 C 0.41494 0.68173 0.47873 0.0
C637 C 0.42352 0.65019 0.46361 0.0
C638 C 0.44915 0.64439 0.4235 0.0
C639 C 0.46634 0.67011 0.39862 0.0
H640 H 0.41028 0.63024 0.48287 0.0
H641 H 0.56023 0.88942 0.23912 0.0
H642 H 0.50894 0.29553 0.36546 0.0
H643 H 0.5098 0.29121 0.47851 0.0
H644 H 0.49329 0.18913 0.46451 0.0
H645 H 0.49302 0.19304 0.3515 0.0
H646 H 0.45337 0.22555 0.55459 0.0
H647 H 0.56274 0.20591 0.49404 0.0
H648 H 0.61284 0.21816 0.43863 0.0
H649 H 0.62065 0.30764 0.53715 0.0
H650 H 0.57026 0.29615 0.59243 0.0
H651 H 0.48048 0.19553 0.87264 0.0
H652 H 0.48165 0.19149 0.75966 0.0
H653 H 0.52927 0.28354 0.75027 0.0
H654 H 0.53018 0.28632 0.86323 0.0
H655 H 0.55398 0.24764 0.66931 0.0
H656 H 0.4438 0.27106 0.7236 0.0
H657 H 0.39272 0.26144 0.77781 0.0
H658 H 0.38509 0.16871 0.69106 0.0
H659 H 0.43627 0.1777 0.63672 0.0
C660 C 0.50534 0.27221 0.38648 0.0
C661 C 0.50106 0.2446 0.34978 0.0
C662 C 0.50591 0.26978 0.45087 0.0
C663 C 0.50173 0.23984 0.47936 0.0
C664 C 0.49657 0.21239 0.44304 0.0
C665 C 0.49658 0.21468 0.37865 0.0
C666 C 0.50341 0.23716 0.54723 0.0
C667 C 0.47539 0.22996 0.57991 0.0
C668 C 0.53208 0.24349 0.57966 0.0
C669 C 0.56255 0.25031 0.54691 0.0
C670 C 0.57497 0.22833 0.50348 0.0
C671 C 0.60346 0.23511 0.47217 0.0
C672 C 0.61987 0.2637 0.48424 0.0
C673 C 0.60788 0.28552 0.52779 0.0
C674 C 0.57937 0.27888 0.55915 0.0
C675 C 0.49125 0.21478 0.84617 0.0
C676 C 0.50505 0.24134 0.87612 0.0
C677 C 0.49176 0.21258 0.78171 0.0
C678 C 0.50485 0.2376 0.74621 0.0
C679 C 0.519 0.26394 0.77649 0.0
C680 C 0.51943 0.26561 0.84093 0.0
C681 C 0.50364 0.23674 0.6776 0.0
C682 C 0.53185 0.24315 0.64445 0.0
C683 C 0.47498 0.23013 0.64476 0.0
C684 C 0.44395 0.22495 0.67653 0.0
C685 C 0.43126 0.24858 0.71627 0.0
C686 C 0.4023 0.24324 0.747 0.0
C687 C 0.38571 0.21445 0.73799 0.0
C688 C 0.39798 0.19099 0.69803 0.0
C689 C 0.42692 0.19622 0.66717 0.0
H690 H 0.36331 0.21035 0.76188 0.0
H691 H 0.64192 0.26891 0.45995 0.0
loop_
_geom_bond_atom_site_label_1
_geom_bond_atom_site_label_2
_geom_bond_distance
_geom_bond_site_symmetry_2
_ccdc_geom_bond_type
O0 Zn1 1.953 . S
O0 C16 1.225 . S
Zn1 O0 1.953 . S
Zn1 O2 1.949 . S
Zn1 O8 1.919 . S
Zn1 O13 1.924 . S
O2 Zn1 1.949 . S
O2 Zn3 1.923 . S
O2 Zn4 1.950 1_455 S
O2 Zn5 1.945 1_455 S
Zn3 O2 1.923 . S
Zn3 O6 1.933 . S
Zn3 O9 1.941 . S
Zn3 O10 1.965 . S
Zn4 O2 1.950 1_655 S
Zn4 O11 1.938 . S
Zn4 O12 1.906 . S
Zn4 O22 1.953 . S
Zn5 O2 1.945 1_655 S
Zn5 O7 1.932 . S
Zn5 O14 1.977 . S
Zn5 O15 1.910 . S
O6 Zn3 1.933 . S
O6 C17 1.226 . S
O7 Zn5 1.932 . S
O7 C17 1.307 1_655 S
O8 Zn1 1.919 . S
O8 C19 1.253 . S
O9 Zn3 1.941 . S
O9 C19 1.283 . S
O10 Zn3 1.965 . S
O10 C18 1.303 . S
O11 Zn4 1.938 . S
O11 C18 1.247 1_655 S
O12 Zn4 1.906 . S
O12 C20 1.304 . S
O13 Zn1 1.924 . S
O13 C21 1.311 . S
O14 Zn5 1.977 . S
O14 C20 1.272 . S
O15 Zn5 1.910 . S
O15 C21 1.231 1_655 S
C16 O0 1.225 . S
C16 O22 1.298 1_455 S
C17 O6 1.226 . S
C17 O7 1.307 1_455 S
C18 O10 1.303 . S
C18 O11 1.247 1_455 S
C19 O8 1.253 . S
C19 O9 1.283 . S
C20 O12 1.304 . S
C20 O14 1.272 . S
C21 O13 1.311 . S
C21 O15 1.231 1_455 S
O22 Zn4 1.953 . S
O22 C16 1.298 1_655 S
O23 Zn24 1.953 . S
O23 C39 1.225 . S
Zn24 O23 1.953 . S
Zn24 O25 1.949 . S
Zn24 O31 1.919 . S
Zn24 O36 1.924 . S
O25 Zn24 1.949 . S
O25 Zn26 1.923 . S
O25 Zn27 1.950 1_455 S
O25 Zn28 1.945 1_455 S
Zn26 O25 1.923 . S
Zn26 O29 1.933 . S
Zn26 O32 1.941 . S
Zn26 O33 1.965 . S
Zn27 O25 1.950 1_655 S
Zn27 O34 1.938 . S
Zn27 O35 1.906 . S
Zn27 O45 1.953 . S
Zn28 O25 1.945 1_655 S
Zn28 O30 1.932 . S
Zn28 O37 1.977 . S
Zn28 O38 1.910 . S
O29 Zn26 1.933 . S
O29 C40 1.226 . S
O30 Zn28 1.932 . S
O30 C40 1.307 1_655 S
O31 Zn24 1.919 . S
O31 C42 1.253 . S
O32 Zn26 1.941 . S
O32 C42 1.283 . S
O33 Zn26 1.965 . S
O33 C41 1.303 1_455 S
O34 Zn27 1.938 . S
O34 C41 1.247 . S
O35 Zn27 1.906 . S
O35 C43 1.304 . S
O36 Zn24 1.924 . S
O36 C44 1.311 . S
O37 Zn28 1.977 . S
O37 C43 1.272 . S
O38 Zn28 1.910 . S
O38 C44 1.231 1_655 S
C39 O23 1.225 . S
C39 O45 1.298 1_455 S
C40 O29 1.226 . S
C40 O30 1.307 1_455 S
C41 O33 1.303 1_655 S
C41 O34 1.247 . S
C42 O31 1.253 . S
C42 O32 1.283 . S
C43 O35 1.304 . S
C43 O37 1.272 . S
C44 O36 1.311 . S
C44 O38 1.231 1_455 S
O45 Zn27 1.953 . S
O45 C39 1.298 1_655 S
O46 Zn47 1.953 . S
O46 C62 1.225 . S
Zn47 O46 1.953 . S
Zn47 O48 1.949 . S
Zn47 O54 1.919 . S
Zn47 O59 1.924 . S
O48 Zn47 1.949 . S
O48 Zn49 1.923 . S
O48 Zn50 1.950 . S
O48 Zn51 1.945 . S
Zn49 O48 1.923 . S
Zn49 O52 1.933 1_556 S
Zn49 O55 1.941 . S
Zn49 O56 1.965 . S
Zn50 O48 1.950 . S
Zn50 O57 1.938 . S
Zn50 O58 1.906 . S
Zn50 O68 1.953 . S
Zn51 O48 1.945 . S
Zn51 O53 1.932 1_556 S
Zn51 O60 1.977 . S
Zn51 O61 1.910 . S
O52 Zn49 1.933 1_554 S
O52 C63 1.226 . S
O53 Zn51 1.932 1_554 S
O53 C63 1.307 . S
O54 Zn47 1.919 . S
O54 C65 1.253 . S
O55 Zn49 1.941 . S
O55 C65 1.283 . S
O56 Zn49 1.965 . S
O56 C64 1.303 . S
O57 Zn50 1.938 . S
O57 C64 1.247 . S
O58 Zn50 1.906 . S
O58 C66 1.304 . S
O59 Zn47 1.924 . S
O59 C67 1.311 . S
O60 Zn51 1.977 . S
O60 C66 1.272 . S
O61 Zn51 1.910 . S
O61 C67 1.231 . S
C62 O46 1.225 . S
C62 O68 1.298 . S
C63 O52 1.226 . S
C63 O53 1.307 . S
C64 O56 1.303 . S
C64 O57 1.247 . S
C65 O54 1.253 . S
C65 O55 1.283 . S
C66 O58 1.304 . S
C66 O60 1.272 . S
C67 O59 1.311 . S
C67 O61 1.231 . S
O68 Zn50 1.953 . S
O68 C62 1.298 . S
O69 Zn70 1.953 . S
O69 C85 1.225 . S
Zn70 O69 1.953 . S
Zn70 O71 1.949 . S
Zn70 O77 1.919 . S
Zn70 O82 1.924 . S
O71 Zn70 1.949 . S
O71 Zn72 1.923 . S
O71 Zn73 1.950 . S
O71 Zn74 1.945 . S
Zn72 O71 1.923 . S
Zn72 O75 1.933 1_554 S
Zn72 O78 1.941 . S
Zn72 O79 1.965 . S
Zn73 O71 1.950 . S
Zn73 O80 1.938 . S
Zn73 O81 1.906 . S
Zn73 O91 1.953 . S
Zn74 O71 1.945 . S
Zn74 O76 1.932 1_554 S
Zn74 O83 1.977 . S
Zn74 O84 1.910 . S
O75 Zn72 1.933 1_556 S
O75 C86 1.226 . S
O76 Zn74 1.932 1_556 S
O76 C86 1.307 . S
O77 Zn70 1.919 . S
O77 C88 1.253 . S
O78 Zn72 1.941 . S
O78 C88 1.283 . S
O79 Zn72 1.965 . S
O79 C87 1.303 . S
O80 Zn73 1.938 . S
O80 C87 1.247 . S
O81 Zn73 1.906 . S
O81 C89 1.304 . S
O82 Zn70 1.924 . S
O82 C90 1.311 . S
O83 Zn74 1.977 . S
O83 C89 1.272 . S
O84 Zn74 1.910 . S
O84 C90 1.231 . S
C85 O69 1.225 . S
C85 O91 1.298 . S
C86 O75 1.226 . S
C86 O76 1.307 . S
C87 O79 1.303 . S
C87 O80 1.247 . S
C88 O77 1.253 . S
C88 O78 1.283 . S
C89 O81 1.304 . S
C89 O83 1.272 . S
C90 O82 1.311 . S
C90 O84 1.231 . S
O91 Zn73 1.953 . S
O91 C85 1.298 . S
H92 C110 0.951 . S
H93 C112 0.951 . S
H94 C114 0.950 . S
H95 C115 0.950 . S
H96 C117 0.950 . S
H97 C120 0.950 . S
H98 C121 0.950 . S
H99 C123 0.950 . S
H100 C124 0.950 . S
H101 C125 0.951 . S
H102 C127 0.951 . S
H103 C129 0.950 . S
H104 C130 0.950 . S
H105 C132 0.950 . S
H106 C135 0.950 . S
H107 C136 0.950 . S
H108 C138 0.950 . S
H109 C139 0.950 . S
C110 H92 0.951 . S
C110 C111 1.366 1_655 S
C110 C112 1.388 . S
C111 C110 1.366 1_455 S
C111 C115 1.385 . S
C112 H93 0.951 . S
C112 C110 1.388 . S
C112 C113 1.366 1_655 S
C113 C112 1.366 1_455 S
C113 C114 1.414 . S
C113 C116 1.499 . S
C114 H94 0.950 . S
C114 C113 1.414 . S
C114 C115 1.374 . S
C115 H95 0.950 . S
C115 C111 1.385 . S
C115 C114 1.374 . S
C116 C113 1.499 . S
C116 C117 1.373 . S
C116 C118 1.389 1_455 S
C117 H96 0.950 . S
C117 C116 1.373 . S
C117 C133 1.377 . S
C118 C116 1.389 1_655 S
C118 C119 1.524 . S
C118 C132 1.377 . S
C119 C118 1.524 . S
C119 C120 1.397 . S
C119 C124 1.363 . S
C120 H97 0.950 . S
C120 C119 1.397 . S
C120 C121 1.334 . S
C121 H98 0.950 . S
C121 C120 1.334 . S
C121 C122 1.287 . S
C122 C121 1.287 . S
C122 C123 1.524 . S
C122 H141 0.913 . S
C123 H99 0.950 . S
C123 C122 1.524 . S
C123 C124 1.415 . S
C124 H100 0.950 . S
C124 C119 1.363 . S
C124 C123 1.415 . S
C125 H101 0.951 . S
C125 C126 1.366 . S
C125 C127 1.388 . S
C126 C125 1.366 . S
C126 C130 1.385 1_455 S
C127 H102 0.951 . S
C127 C125 1.388 . S
C127 C128 1.366 . S
C128 C127 1.366 . S
C128 C129 1.414 1_455 S
C128 C131 1.499 . S
C129 H103 0.950 . S
C129 C128 1.414 1_655 S
C129 C130 1.374 . S
C130 H104 0.950 . S
C130 C126 1.385 1_655 S
C130 C129 1.374 . S
C131 C128 1.499 . S
C131 C132 1.373 1_455 S
C131 C133 1.389 . S
C132 H105 0.950 . S
C132 C118 1.377 . S
C132 C131 1.373 1_655 S
C133 C117 1.377 . S
C133 C131 1.389 . S
C133 C134 1.524 . S
C134 C133 1.524 . S
C134 C135 1.397 . S
C134 C139 1.363 . S
C135 H106 0.950 . S
C135 C134 1.397 . S
C135 C136 1.334 . S
C136 H107 0.950 . S
C136 C135 1.334 . S
C136 C137 1.287 . S
C137 C136 1.287 . S
C137 C138 1.524 . S
C137 H140 0.999 . S
C138 H108 0.950 . S
C138 C137 1.524 . S
C138 C139 1.415 . S
C139 H109 0.950 . S
C139 C134 1.363 . S
C139 C138 1.415 . S
H140 C137 0.999 . S
H141 C122 0.913 . S
H142 C160 0.951 . S
H143 C162 0.951 . S
H144 C164 0.950 . S
H145 C165 0.950 . S
H146 C167 0.950 . S
H147 C170 0.950 . S
H148 C171 0.950 . S
H149 C173 0.950 . S
H150 C174 0.950 . S
H151 C175 0.951 . S
H152 C177 0.951 . S
H153 C179 0.950 . S
H154 C180 0.950 . S
H155 C182 0.950 . S
H156 C185 0.950 . S
H157 C186 0.950 . S
H158 C188 0.950 . S
H159 C189 0.950 . S
C160 H142 0.951 . S
C160 C161 1.366 . S
C160 C162 1.388 . S
C161 C160 1.366 . S
C161 C165 1.385 . S
C162 H143 0.951 . S
C162 C160 1.388 . S
C162 C163 1.366 . S
C163 C162 1.366 . S
C163 C164 1.414 . S
C163 C166 1.499 . S
C164 H144 0.950 . S
C164 C163 1.414 . S
C164 C165 1.374 . S
C165 H145 0.950 . S
C165 C161 1.385 . S
C165 C164 1.374 . S
C166 C163 1.499 . S
C166 C167 1.373 . S
C166 C168 1.389 . S
C167 H146 0.950 . S
C167 C166 1.373 . S
C167 C183 1.377 . S
C168 C166 1.389 . S
C168 C169 1.524 . S
C168 C182 1.377 . S
C169 C168 1.524 . S
C169 C170 1.397 . S
C169 C174 1.363 . S
C170 H147 0.950 . S
C170 C169 1.397 . S
C170 C171 1.334 . S
C171 H148 0.950 . S
C171 C170 1.334 . S
C171 C172 1.287 . S
C172 C171 1.287 . S
C172 C173 1.524 . S
C172 H191 0.913 . S
C173 H149 0.950 . S
C173 C172 1.524 . S
C173 C174 1.415 . S
C174 H150 0.950 . S
C174 C169 1.363 . S
C174 C173 1.415 . S
C175 H151 0.951 . S
C175 C176 1.366 . S
C175 C177 1.388 . S
C176 C175 1.366 . S
C176 C180 1.385 . S
C177 H152 0.951 . S
C177 C175 1.388 . S
C177 C178 1.366 . S
C178 C177 1.366 . S
C178 C179 1.414 . S
C178 C181 1.499 . S
C179 H153 0.950 . S
C179 C178 1.414 . S
C179 C180 1.374 . S
C180 H154 0.950 . S
C180 C176 1.385 . S
C180 C179 1.374 . S
C181 C178 1.499 . S
C181 C182 1.373 . S
C181 C183 1.389 . S
C182 H155 0.950 . S
C182 C168 1.377 . S
C182 C181 1.373 . S
C183 C167 1.377 . S
C183 C181 1.389 . S
C183 C184 1.524 . S
C184 C183 1.524 . S
C184 C185 1.397 . S
C184 C189 1.363 . S
C185 H156 0.950 . S
C185 C184 1.397 . S
C185 C186 1.334 . S
C186 H157 0.950 . S
C186 C185 1.334 . S
C186 C187 1.287 . S
C187 C186 1.287 . S
C187 C188 1.524 . S
C187 H190 0.999 . S
C188 H158 0.950 . S
C188 C187 1.524 . S
C188 C189 1.415 . S
C189 H159 0.950 . S
C189 C184 1.363 . S
C189 C188 1.415 . S
H190 C187 0.999 . S
H191 C172 0.913 . S
H192 C210 0.951 1_556 S
H193 C212 0.951 . S
H194 C214 0.950 . S
H195 C215 0.950 . S
H196 C217 0.950 . S
H197 C220 0.950 1_554 S
H198 C221 0.950 . S
H199 C223 0.950 . S
H200 C224 0.950 . S
H201 C225 0.951 1_554 S
H202 C227 0.951 . S
H203 C229 0.950 . S
H204 C230 0.950 . S
H205 C232 0.950 . S
H206 C235 0.950 1_556 S
H207 C236 0.950 . S
H208 C238 0.950 . S
H209 C239 0.950 . S
C210 H192 0.951 1_554 S
C210 C211 1.366 . S
C210 C212 1.388 1_554 S
C211 C210 1.366 . S
C211 C215 1.385 . S
C212 H193 0.951 . S
C212 C210 1.388 1_556 S
C212 C213 1.366 1_556 S
C213 C212 1.366 1_554 S
C213 C214 1.414 . S
C213 C216 1.499 . S
C214 H194 0.950 . S
C214 C213 1.414 . S
C214 C215 1.374 . S
C215 H195 0.950 . S
C215 C211 1.385 . S
C215 C214 1.374 . S
C216 C213 1.499 . S
C216 C217 1.373 . S
C216 C218 1.389 1_554 S
C217 H196 0.950 . S
C217 C216 1.373 . S
C217 C233 1.377 . S
C218 C216 1.389 1_556 S
C218 C219 1.524 . S
C218 C232 1.377 . S
C219 C218 1.524 . S
C219 C220 1.397 . S
C219 C224 1.363 . S
C220 H197 0.950 1_556 S
C220 C219 1.397 . S
C220 C221 1.334 . S
C221 H198 0.950 . S
C221 C220 1.334 . S
C221 C222 1.287 . S
C222 C221 1.287 . S
C222 C223 1.524 . S
C222 H241 0.913 . S
C223 H199 0.950 . S
C223 C222 1.524 . S
C223 C224 1.415 . S
C224 H200 0.950 . S
C224 C219 1.363 . S
C224 C223 1.415 . S
C225 H201 0.951 1_556 S
C225 C226 1.366 . S
C225 C227 1.388 1_556 S
C226 C225 1.366 . S
C226 C230 1.385 . S
C227 H202 0.951 . S
C227 C225 1.388 1_554 S
C227 C228 1.366 1_554 S
C228 C227 1.366 1_556 S
C228 C229 1.414 . S
C228 C231 1.499 . S
C229 H203 0.950 . S
C229 C228 1.414 . S
C229 C230 1.374 . S
C230 H204 0.950 . S
C230 C226 1.385 . S
C230 C229 1.374 . S
C231 C228 1.499 . S
C231 C232 1.373 . S
C231 C233 1.389 1_556 S
C232 H205 0.950 . S
C232 C218 1.377 . S
C232 C231 1.373 . S
C233 C217 1.377 . S
C233 C231 1.389 1_554 S
C233 C234 1.524 . S
C234 C233 1.524 . S
C234 C235 1.397 . S
C234 C239 1.363 . S
C235 H206 0.950 1_554 S
C235 C234 1.397 . S
C235 C236 1.334 . S
C236 H207 0.950 . S
C236 C235 1.334 . S
C236 C237 1.287 . S
C237 C236 1.287 . S
C237 C238 1.524 . S
C237 H240 0.999 . S
C238 H208 0.950 . S
C238 C237 1.524 . S
C238 C239 1.415 . S
C239 H209 0.950 . S
C239 C234 1.363 . S
C239 C238 1.415 . S
H240 C237 0.999 . S
H241 C222 0.913 . S
H242 C260 0.951 . S
H243 C262 0.951 . S
H244 C264 0.950 . S
H245 C265 0.950 . S
H246 C267 0.950 . S
H247 C270 0.950 . S
H248 C271 0.950 . S
H249 C273 0.950 . S
H250 C274 0.950 . S
H251 C275 0.951 . S
H252 C277 0.951 . S
H253 C279 0.950 . S
H254 C280 0.950 . S
H255 C282 0.950 . S
H256 C285 0.950 . S
H257 C286 0.950 . S
H258 C288 0.950 . S
H259 C289 0.950 . S
C260 H242 0.951 . S
C260 C261 1.366 . S
C260 C262 1.388 . S
C261 C260 1.366 . S
C261 C265 1.385 . S
C262 H243 0.951 . S
C262 C260 1.388 . S
C262 C263 1.366 . S
C263 C262 1.366 . S
C263 C264 1.414 . S
C263 C266 1.499 . S
C264 H244 0.950 . S
C264 C263 1.414 . S
C264 C265 1.374 . S
C265 H245 0.950 . S
C265 C261 1.385 . S
C265 C264 1.374 . S
C266 C263 1.499 . S
C266 C267 1.373 . S
C266 C268 1.389 . S
C267 H246 0.950 . S
C267 C266 1.373 . S
C267 C283 1.377 . S
C268 C266 1.389 . S
C268 C269 1.524 . S
C268 C282 1.377 . S
C269 C268 1.524 . S
C269 C270 1.397 . S
C269 C274 1.363 . S
C270 H247 0.950 . S
C270 C269 1.397 . S
C270 C271 1.334 . S
C271 H248 0.950 . S
C271 C270 1.334 . S
C271 C272 1.287 . S
C272 C271 1.287 . S
C272 C273 1.524 . S
C272 H291 0.913 . S
C273 H249 0.950 . S
C273 C272 1.524 . S
C273 C274 1.415 . S
C274 H250 0.950 . S
C274 C269 1.363 . S
C274 C273 1.415 . S
C275 H251 0.951 . S
C275 C276 1.366 . S
C275 C277 1.388 . S
C276 C275 1.366 . S
C276 C280 1.385 . S
C277 H252 0.951 . S
C277 C275 1.388 . S
C277 C278 1.366 . S
C278 C277 1.366 . S
C278 C279 1.414 . S
C278 C281 1.499 . S
C279 H253 0.950 . S
C279 C278 1.414 . S
C279 C280 1.374 . S
C280 H254 0.950 . S
C280 C276 1.385 . S
C280 C279 1.374 . S
C281 C278 1.499 . S
C281 C282 1.373 . S
C281 C283 1.389 . S
C282 H255 0.950 . S
C282 C268 1.377 . S
C282 C281 1.373 . S
C283 C267 1.377 . S
C283 C281 1.389 . S
C283 C284 1.524 . S
C284 C283 1.524 . S
C284 C285 1.397 . S
C284 C289 1.363 . S
C285 H256 0.950 . S
C285 C284 1.397 . S
C285 C286 1.334 . S
C286 H257 0.950 . S
C286 C285 1.334 . S
C286 C287 1.287 . S
C287 C286 1.287 . S
C287 C288 1.524 . S
C287 H290 0.999 . S
C288 H258 0.950 . S
C288 C287 1.524 . S
C288 C289 1.415 . S
C289 H259 0.950 . S
C289 C284 1.363 . S
C289 C288 1.415 . S
H290 C287 0.999 . S
H291 C272 0.913 . S
H292 C310 0.951 . S
H293 C312 0.951 . S
H294 C314 0.950 . S
H295 C315 0.950 . S
H296 C317 0.950 . S
H297 C320 0.950 . S
H298 C321 0.950 . S
H299 C323 0.950 . S
H300 C324 0.950 . S
H301 C325 0.951 . S
H302 C327 0.951 . S
H303 C329 0.950 . S
H304 C330 0.950 . S
H305 C332 0.950 . S
H306 C335 0.950 . S
H307 C336 0.950 . S
H308 C338 0.950 . S
H309 C339 0.950 . S
C310 H292 0.951 . S
C310 C311 1.366 . S
C310 C312 1.388 . S
C311 C310 1.366 . S
C311 C315 1.385 . S
C312 H293 0.951 . S
C312 C310 1.388 . S
C312 C313 1.366 . S
C313 C312 1.366 . S
C313 C314 1.414 . S
C313 C316 1.499 . S
C314 H294 0.950 . S
C314 C313 1.414 . S
C314 C315 1.374 . S
C315 H295 0.950 . S
C315 C311 1.385 . S
C315 C314 1.374 . S
C316 C313 1.499 . S
C316 C317 1.373 . S
C316 C318 1.389 . S
C317 H296 0.950 . S
C317 C316 1.373 . S
C317 C333 1.377 . S
C318 C316 1.389 . S
C318 C319 1.524 . S
C318 C332 1.377 . S
C319 C318 1.524 . S
C319 C320 1.397 . S
C319 C324 1.363 . S
C320 H297 0.950 . S
C320 C319 1.397 . S
C320 C321 1.334 . S
C321 H298 0.950 . S
C321 C320 1.334 . S
C321 C322 1.287 . S
C322 C321 1.287 . S
C322 C323 1.524 . S
C322 H341 0.913 . S
C323 H299 0.950 . S
C323 C322 1.524 . S
C323 C324 1.415 . S
C324 H300 0.950 . S
C324 C319 1.363 . S
C324 C323 1.415 . S
C325 H301 0.951 . S
C325 C326 1.366 . S
C325 C327 1.388 . S
C326 C325 1.366 . S
C326 C330 1.385 . S
C327 H302 0.951 . S
C327 C325 1.388 . S
C327 C328 1.366 . S
C328 C327 1.366 . S
C328 C329 1.414 . S
C328 C331 1.499 . S
C329 H303 0.950 . S
C329 C328 1.414 . S
C329 C330 1.374 . S
C330 H304 0.950 . S
C330 C326 1.385 . S
C330 C329 1.374 . S
C331 C328 1.499 . S
C331 C332 1.373 . S
C331 C333 1.389 . S
C332 H305 0.950 . S
C332 C318 1.377 . S
C332 C331 1.373 . S
C333 C317 1.377 . S
C333 C331 1.389 . S
C333 C334 1.524 . S
C334 C333 1.524 . S
C334 C335 1.397 . S
C334 C339 1.363 . S
C335 H306 0.950 . S
C335 C334 1.397 . S
C335 C336 1.334 . S
C336 H307 0.950 . S
C336 C335 1.334 . S
C336 C337 1.287 . S
C337 C336 1.287 . S
C337 C338 1.524 . S
C337 H340 0.999 . S
C338 H308 0.950 . S
C338 C337 1.524 . S
C338 C339 1.415 . S
C339 H309 0.950 . S
C339 C334 1.363 . S
C339 C338 1.415 . S
H340 C337 0.999 . S
H341 C322 0.913 . S
H342 C360 0.951 . S
H343 C362 0.951 . S
H344 C364 0.950 . S
H345 C365 0.950 . S
H346 C367 0.950 . S
H347 C370 0.950 . S
H348 C371 0.950 . S
H349 C373 0.950 . S
H350 C374 0.950 . S
H351 C375 0.951 . S
H352 C377 0.951 . S
H353 C379 0.950 . S
H354 C380 0.950 . S
H355 C382 0.950 . S
H356 C385 0.950 . S
H357 C386 0.950 . S
H358 C388 0.950 . S
H359 C389 0.950 . S
C360 H342 0.951 . S
C360 C361 1.366 . S
C360 C362 1.388 . S
C361 C360 1.366 . S
C361 C365 1.385 . S
C362 H343 0.951 . S
C362 C360 1.388 . S
C362 C363 1.366 . S
C363 C362 1.366 . S
C363 C364 1.414 . S
C363 C366 1.499 . S
C364 H344 0.950 . S
C364 C363 1.414 . S
C364 C365 1.374 . S
C365 H345 0.950 . S
C365 C361 1.385 . S
C365 C364 1.374 . S
C366 C363 1.499 . S
C366 C367 1.373 . S
C366 C368 1.389 . S
C367 H346 0.950 . S
C367 C366 1.373 . S
C367 C383 1.377 . S
C368 C366 1.389 . S
C368 C369 1.524 . S
C368 C382 1.377 . S
C369 C368 1.524 . S
C369 C370 1.397 . S
C369 C374 1.363 . S
C370 H347 0.950 . S
C370 C369 1.397 . S
C370 C371 1.334 . S
C371 H348 0.950 . S
C371 C370 1.334 . S
C371 C372 1.287 . S
C372 C371 1.287 . S
C372 C373 1.524 . S
C372 H391 0.913 . S
C373 H349 0.950 . S
C373 C372 1.524 . S
C373 C374 1.415 . S
C374 H350 0.950 . S
C374 C369 1.363 . S
C374 C373 1.415 . S
C375 H351 0.951 . S
C375 C376 1.366 . S
C375 C377 1.388 . S
C376 C375 1.366 . S
C376 C380 1.385 . S
C377 H352 0.951 . S
C377 C375 1.388 . S
C377 C378 1.366 . S
C378 C377 1.366 . S
C378 C379 1.414 . S
C378 C381 1.499 . S
C379 H353 0.950 . S
C379 C378 1.414 . S
C379 C380 1.374 . S
C380 H354 0.950 . S
C380 C376 1.385 . S
C380 C379 1.374 . S
C381 C378 1.499 . S
C381 C382 1.373 . S
C381 C383 1.389 . S
C382 H355 0.950 . S
C382 C368 1.377 . S
C382 C381 1.373 . S
C383 C367 1.377 . S
C383 C381 1.389 . S
C383 C384 1.524 . S
C384 C383 1.524 . S
C384 C385 1.397 . S
C384 C389 1.363 . S
C385 H356 0.950 . S
C385 C384 1.397 . S
C385 C386 1.334 . S
C386 H357 0.950 . S
C386 C385 1.334 . S
C386 C387 1.287 . S
C387 C386 1.287 . S
C387 C388 1.524 . S
C387 H390 0.999 . S
C388 H358 0.950 . S
C388 C387 1.524 . S
C388 C389 1.415 . S
C389 H359 0.950 . S
C389 C384 1.363 . S
C389 C388 1.415 . S
H390 C387 0.999 . S
H391 C372 0.913 . S
H392 C410 0.951 . S
H393 C412 0.951 . S
H394 C414 0.950 1_554 S
H395 C415 0.950 . S
H396 C417 0.950 . S
H397 C420 0.950 . S
H398 C421 0.950 . S
H399 C423 0.950 . S
H400 C424 0.950 1_545 S
H401 C425 0.951 . S
H402 C427 0.951 . S
H403 C429 0.950 1_556 S
H404 C430 0.950 . S
H405 C432 0.950 . S
H406 C435 0.950 . S
H407 C436 0.950 . S
H408 C438 0.950 . S
H409 C439 0.950 . S
C410 H392 0.951 . S
C410 C411 1.366 . S
C410 C412 1.388 . S
C411 C410 1.366 . S
C411 C415 1.385 . S
C412 H393 0.951 . S
C412 C410 1.388 . S
C412 C413 1.366 . S
C413 C412 1.366 . S
C413 C414 1.414 . S
C413 C416 1.499 . S
C414 H394 0.950 1_556 S
C414 C413 1.414 . S
C414 C415 1.374 . S
C415 H395 0.950 . S
C415 C411 1.385 . S
C415 C414 1.374 . S
C416 C413 1.499 . S
C416 C417 1.373 . S
C416 C418 1.389 . S
C417 H396 0.950 . S
C417 C416 1.373 . S
C417 C433 1.377 1_566 S
C418 C416 1.389 . S
C418 C419 1.524 1_556 S
C418 C432 1.377 1_566 S
C419 C418 1.524 1_554 S
C419 C420 1.397 . S
C419 C424 1.363 1_554 S
C420 H397 0.950 . S
C420 C419 1.397 . S
C420 C421 1.334 . S
C421 H398 0.950 . S
C421 C420 1.334 . S
C421 C422 1.287 . S
C422 C421 1.287 . S
C422 C423 1.524 1_554 S
C422 H441 0.913 . S
C423 H399 0.950 . S
C423 C422 1.524 1_556 S
C423 C424 1.415 . S
C424 H400 0.950 1_565 S
C424 C419 1.363 1_556 S
C424 C423 1.415 . S
C425 H401 0.951 . S
C425 C426 1.366 . S
C425 C427 1.388 . S
C426 C425 1.366 . S
C426 C430 1.385 . S
C427 H402 0.951 . S
C427 C425 1.388 . S
C427 C428 1.366 . S
C428 C427 1.366 . S
C428 C429 1.414 . S
C428 C431 1.499 . S
C429 H403 0.950 1_554 S
C429 C428 1.414 . S
C429 C430 1.374 . S
C430 H404 0.950 . S
C430 C426 1.385 . S
C430 C429 1.374 . S
C431 C428 1.499 . S
C431 C432 1.373 . S
C431 C433 1.389 . S
C432 H405 0.950 . S
C432 C418 1.377 1_544 S
C432 C431 1.373 . S
C433 C417 1.377 1_544 S
C433 C431 1.389 . S
C433 C434 1.524 1_554 S
C434 C433 1.524 1_556 S
C434 C435 1.398 . S
C434 C439 1.362 1_556 S
C435 H406 0.950 . S
C435 C434 1.398 . S
C435 C436 1.334 . S
C436 H407 0.950 . S
C436 C435 1.334 . S
C436 C437 1.287 . S
C437 C436 1.287 . S
C437 C438 1.524 1_556 S
C437 H440 0.999 . S
C438 H408 0.950 . S
C438 C437 1.524 1_554 S
C438 C439 1.415 . S
C439 H409 0.950 . S
C439 C434 1.362 1_554 S
C439 C438 1.415 . S
H440 C437 0.999 . S
H441 C422 0.913 . S
H442 C460 0.951 . S
H443 C462 0.951 . S
H444 C464 0.950 . S
H445 C465 0.950 . S
H446 C467 0.950 . S
H447 C470 0.950 . S
H448 C471 0.950 . S
H449 C473 0.950 . S
H450 C474 0.950 . S
H451 C475 0.951 . S
H452 C477 0.951 . S
H453 C479 0.950 . S
H454 C480 0.950 . S
H455 C482 0.945 1_655 S
H456 C485 0.950 . S
H457 C486 0.950 . S
H458 C488 0.950 . S
H459 C489 0.950 . S
C460 H442 0.951 . S
C460 C461 1.366 1_655 S
C460 C462 1.388 . S
C461 C460 1.366 1_455 S
C461 C465 1.385 . S
C462 H443 0.951 . S
C462 C460 1.388 . S
C462 C463 1.366 1_655 S
C463 C462 1.366 1_455 S
C463 C464 1.414 . S
C463 C466 1.499 . S
C464 H444 0.950 . S
C464 C463 1.414 . S
C464 C465 1.374 . S
C465 H445 0.950 . S
C465 C461 1.385 . S
C465 C464 1.374 . S
C466 C463 1.499 . S
C466 C467 1.373 . S
C466 C468 1.389 . S
C467 H446 0.950 . S
C467 C466 1.373 . S
C467 C483 1.377 1_565 S
C468 C466 1.389 . S
C468 C469 1.524 . S
C468 C482 1.379 1_565 S
C469 C468 1.524 . S
C469 C470 1.397 . S
C469 C474 1.363 1_455 S
C470 H447 0.950 . S
C470 C469 1.397 . S
C470 C471 1.334 . S
C471 H448 0.950 . S
C471 C470 1.334 . S
C471 C472 1.287 . S
C472 C471 1.287 . S
C472 C473 1.524 1_455 S
C472 H491 0.913 . S
C473 H449 0.950 . S
C473 C472 1.524 1_655 S
C473 C474 1.415 . S
C474 H450 0.950 . S
C474 C469 1.363 1_655 S
C474 C473 1.415 . S
C475 H451 0.951 . S
C475 C476 1.366 . S
C475 C477 1.388 . S
C476 C475 1.366 . S
C476 C480 1.385 1_455 S
C477 H452 0.951 . S
C477 C475 1.388 . S
C477 C478 1.366 . S
C478 C477 1.366 . S
C478 C479 1.414 1_455 S
C478 C481 1.499 . S
C479 H453 0.950 . S
C479 C478 1.414 1_655 S
C479 C480 1.374 . S
C480 H454 0.950 . S
C480 C476 1.385 1_655 S
C480 C479 1.374 . S
C481 C478 1.499 . S
C481 C482 1.377 . S
C481 C483 1.389 . S
C482 H455 0.945 1_455 S
C482 C468 1.379 1_545 S
C482 C481 1.377 . S
C483 C467 1.377 1_545 S
C483 C481 1.389 . S
C483 C484 1.524 . S
C484 C483 1.524 . S
C484 C485 1.397 1_455 S
C484 C489 1.363 . S
C485 H456 0.950 . S
C485 C484 1.397 1_655 S
C485 C486 1.334 . S
C486 H457 0.950 . S
C486 C485 1.334 . S
C486 C487 1.287 1_655 S
C487 C486 1.287 1_455 S
C487 C488 1.524 . S
C487 H490 0.999 . S
C488 H458 0.950 . S
C488 C487 1.524 . S
C488 C489 1.415 . S
C489 H459 0.950 . S
C489 C484 1.363 . S
C489 C488 1.415 . S
H490 C487 0.999 . S
H491 C472 0.913 . S
H492 C510 0.951 . S
H493 C512 0.951 . S
H494 C514 0.950 . S
H495 C515 0.950 . S
H496 C517 0.950 . S
H497 C520 0.950 . S
H498 C521 0.950 1_554 S
H499 C523 0.950 . S
H500 C524 0.950 . S
H501 C525 0.951 . S
H502 C527 0.951 . S
H503 C529 0.950 . S
H504 C530 0.950 . S
H505 C532 0.950 . S
H506 C535 0.950 . S
H507 C536 0.950 . S
H508 C538 0.950 1_655 S
H509 C539 0.950 . S
C510 H492 0.951 . S
C510 C511 1.366 . S
C510 C512 1.388 . S
C511 C510 1.366 . S
C511 C515 1.385 1_455 S
C512 H493 0.951 . S
C512 C510 1.388 . S
C512 C513 1.366 . S
C513 C512 1.366 . S
C513 C514 1.414 1_455 S
C513 C516 1.499 1_554 S
C514 H494 0.950 . S
C514 C513 1.414 1_655 S
C514 C515 1.374 . S
C515 H495 0.950 . S
C515 C511 1.385 1_655 S
C515 C514 1.374 . S
C516 C513 1.499 1_556 S
C516 C517 1.373 . S
C516 C518 1.389 . S
C517 H496 0.950 . S
C517 C516 1.373 . S
C517 C533 1.377 . S
C518 C516 1.389 . S
C518 C519 1.524 1_455 S
C518 C532 1.377 . S
C519 C518 1.524 1_655 S
C519 C520 1.397 . S
C519 C524 1.363 1_655 S
C520 H497 0.950 . S
C520 C519 1.397 . S
C520 C521 1.334 . S
C521 H498 0.950 1_556 S
C521 C520 1.334 . S
C521 C522 1.287 . S
C522 C521 1.287 . S
C522 C523 1.524 1_655 S
C522 H541 0.913 1_556 S
C523 H499 0.950 . S
C523 C522 1.524 1_455 S
C523 C524 1.415 . S
C524 H500 0.950 . S
C524 C519 1.363 1_455 S
C524 C523 1.415 . S
C525 H501 0.951 . S
C525 C526 1.366 1_655 S
C525 C527 1.388 . S
C526 C525 1.366 1_455 S
C526 C530 1.385 . S
C527 H502 0.951 . S
C527 C525 1.388 . S
C527 C528 1.366 1_655 S
C528 C527 1.366 1_455 S
C528 C529 1.414 . S
C528 C531 1.499 . S
C529 H503 0.950 . S
C529 C528 1.414 . S
C529 C530 1.374 . S
C530 H504 0.950 . S
C530 C526 1.385 . S
C530 C529 1.374 . S
C531 C528 1.499 . S
C531 C532 1.373 . S
C531 C533 1.389 . S
C532 H505 0.950 . S
C532 C518 1.377 . S
C532 C531 1.373 . S
C533 C517 1.377 . S
C533 C531 1.389 . S
C533 C534 1.524 . S
C534 C533 1.524 . S
C534 C535 1.397 . S
C534 C539 1.363 1_455 S
C535 H506 0.950 . S
C535 C534 1.397 . S
C535 C536 1.334 . S
C536 H507 0.950 . S
C536 C535 1.334 . S
C536 C537 1.287 . S
C537 C536 1.287 . S
C537 C538 1.524 . S
C537 H540 0.999 . S
C538 H508 0.950 1_455 S
C538 C537 1.524 . S
C538 C539 1.415 1_455 S
C539 H509 0.950 . S
C539 C534 1.363 1_655 S
C539 C538 1.415 1_655 S
H540 C537 0.999 . S
H541 C522 0.913 1_554 S
H542 C560 0.951 . S
H543 C562 0.951 . S
H544 C564 0.950 . S
H545 C565 0.950 . S
H546 C567 0.950 . S
H547 C570 0.950 . S
H548 C571 0.939 1_556 S
H549 C573 0.950 . S
H550 C574 0.950 . S
H551 C575 0.951 . S
H552 C577 0.951 . S
H553 C579 0.950 . S
H554 C580 0.950 . S
H555 C582 0.950 . S
H556 C585 0.950 . S
H557 C586 0.950 . S
H558 C588 0.950 . S
H559 C589 0.950 . S
C560 H542 0.951 . S
C560 C561 1.366 1_655 S
C560 C562 1.388 . S
C561 C560 1.366 1_455 S
C561 C565 1.385 . S
C562 H543 0.951 . S
C562 C560 1.388 . S
C562 C563 1.366 1_655 S
C563 C562 1.366 1_455 S
C563 C564 1.414 . S
C563 C566 1.499 1_556 S
C564 H544 0.950 . S
C564 C563 1.414 . S
C564 C565 1.374 . S
C565 H545 0.950 . S
C565 C561 1.385 . S
C565 C564 1.374 . S
C566 C563 1.499 1_554 S
C566 C567 1.373 . S
C566 C568 1.389 1_455 S
C567 H546 0.950 . S
C567 C566 1.373 . S
C567 C583 1.377 . S
C568 C566 1.389 1_655 S
C568 C569 1.524 . S
C568 C582 1.377 . S
C569 C568 1.524 . S
C569 C570 1.397 . S
C569 C574 1.363 . S
C570 H547 0.950 . S
C570 C569 1.397 . S
C570 C571 1.341 . S
C571 H548 0.939 1_554 S
C571 C570 1.341 . S
C571 C572 1.291 . S
C572 C571 1.291 . S
C572 C573 1.524 . S
C572 H591 0.913 1_554 S
C573 H549 0.950 . S
C573 C572 1.524 . S
C573 C574 1.415 . S
C574 H550 0.950 . S
C574 C569 1.363 . S
C574 C573 1.415 . S
C575 H551 0.951 . S
C575 C576 1.366 . S
C575 C577 1.388 . S
C576 C575 1.366 . S
C576 C580 1.385 1_455 S
C577 H552 0.951 . S
C577 C575 1.388 . S
C577 C578 1.366 . S
C578 C577 1.366 . S
C578 C579 1.414 1_455 S
C578 C581 1.499 . S
C579 H553 0.950 . S
C579 C578 1.414 1_655 S
C579 C580 1.374 . S
C580 H554 0.950 . S
C580 C576 1.385 1_655 S
C580 C579 1.374 . S
C581 C578 1.499 . S
C581 C582 1.373 1_455 S
C581 C583 1.389 . S
C582 H555 0.950 . S
C582 C568 1.377 . S
C582 C581 1.373 1_655 S
C583 C567 1.377 . S
C583 C581 1.389 . S
C583 C584 1.524 . S
C584 C583 1.524 . S
C584 C585 1.397 . S
C584 C589 1.363 . S
C585 H556 0.950 . S
C585 C584 1.397 . S
C585 C586 1.334 . S
C586 H557 0.950 . S
C586 C585 1.334 . S
C586 C587 1.287 . S
C587 C586 1.287 . S
C587 C588 1.524 . S
C587 H590 0.999 . S
C588 H558 0.950 . S
C588 C587 1.524 . S
C588 C589 1.415 . S
C589 H559 0.950 . S
C589 C584 1.363 . S
C589 C588 1.415 . S
H590 C587 0.999 . S
H591 C572 0.913 1_556 S
H592 C610 0.951 . S
H593 C612 0.951 . S
H594 C614 0.950 . S
H595 C615 0.950 . S
H596 C617 0.950 . S
H597 C620 0.950 . S
H598 C621 0.950 . S
H599 C623 0.950 . S
H600 C624 0.950 . S
H601 C625 0.951 . S
H602 C627 0.951 . S
H603 C629 0.950 . S
H604 C630 0.950 . S
H605 C632 0.950 . S
H606 C635 0.950 . S
H607 C636 0.950 . S
H608 C638 0.950 . S
H609 C639 0.950 . S
C610 H592 0.951 . S
C610 C611 1.366 . S
C610 C612 1.388 . S
C611 C610 1.366 . S
C611 C615 1.385 . S
C612 H593 0.951 . S
C612 C610 1.388 . S
C612 C613 1.366 . S
C613 C612 1.366 . S
C613 C614 1.414 . S
C613 C616 1.499 . S
C614 H594 0.950 . S
C614 C613 1.414 . S
C614 C615 1.374 . S
C615 H595 0.950 . S
C615 C611 1.385 . S
C615 C614 1.374 . S
C616 C613 1.499 . S
C616 C617 1.373 . S
C616 C618 1.389 . S
C617 H596 0.950 . S
C617 C616 1.373 . S
C617 C633 1.377 . S
C618 C616 1.389 . S
C618 C619 1.524 . S
C618 C632 1.377 . S
C619 C618 1.524 . S
C619 C620 1.397 . S
C619 C624 1.363 . S
C620 H597 0.950 . S
C620 C619 1.397 . S
C620 C621 1.334 . S
C621 H598 0.950 . S
C621 C620 1.334 . S
C621 C622 1.287 . S
C622 C621 1.287 . S
C622 C623 1.524 . S
C622 H641 0.913 . S
C623 H599 0.950 . S
C623 C622 1.524 . S
C623 C624 1.415 . S
C624 H600 0.950 . S
C624 C619 1.363 . S
C624 C623 1.415 . S
C625 H601 0.951 . S
C625 C626 1.366 . S
C625 C627 1.388 . S
C626 C625 1.366 . S
C626 C630 1.385 . S
C627 H602 0.951 . S
C627 C625 1.388 . S
C627 C628 1.366 . S
C628 C627 1.366 . S
C628 C629 1.414 . S
C628 C631 1.499 . S
C629 H603 0.950 . S
C629 C628 1.414 . S
C629 C630 1.374 . S
C630 H604 0.950 . S
C630 C626 1.385 . S
C630 C629 1.374 . S
C631 C628 1.499 . S
C631 C632 1.373 . S
C631 C633 1.389 . S
C632 H605 0.950 . S
C632 C618 1.377 . S
C632 C631 1.373 . S
C633 C617 1.377 . S
C633 C631 1.389 . S
C633 C634 1.524 . S
C634 C633 1.524 . S
C634 C635 1.397 . S
C634 C639 1.363 . S
C635 H606 0.950 . S
C635 C634 1.397 . S
C635 C636 1.334 . S
C636 H607 0.950 . S
C636 C635 1.334 . S
C636 C637 1.287 . S
C637 C636 1.287 . S
C637 C638 1.524 . S
C637 H640 0.999 . S
C638 H608 0.950 . S
C638 C637 1.524 . S
C638 C639 1.415 . S
C639 H609 0.950 . S
C639 C634 1.363 . S
C639 C638 1.415 . S
H640 C637 0.999 . S
H641 C622 0.913 . S
H642 C660 0.951 . S
H643 C662 0.951 . S
H644 C664 0.950 . S
H645 C665 0.950 . S
H646 C667 0.950 . S
H647 C670 0.950 . S
H648 C671 0.950 . S
H649 C673 0.950 . S
H650 C674 0.950 . S
H651 C675 0.951 . S
H652 C677 0.951 . S
H653 C679 0.950 . S
H654 C680 0.950 . S
H655 C682 0.950 . S
H656 C685 0.950 . S
H657 C686 0.950 . S
H658 C688 0.950 . S
H659 C689 0.950 . S
C660 H642 0.951 . S
C660 C661 1.366 . S
C660 C662 1.388 . S
C661 C660 1.366 . S
C661 C665 1.385 . S
C662 H643 0.951 . S
C662 C660 1.388 . S
C662 C663 1.366 . S
C663 C662 1.366 . S
C663 C664 1.414 . S
C663 C666 1.499 . S
C664 H644 0.950 . S
C664 C663 1.414 . S
C664 C665 1.374 . S
C665 H645 0.950 . S
C665 C661 1.385 . S
C665 C664 1.374 . S
C666 C663 1.499 . S
C666 C667 1.373 . S
C666 C668 1.389 . S
C667 H646 0.950 . S
C667 C666 1.373 . S
C667 C683 1.377 . S
C668 C666 1.389 . S
C668 C669 1.524 . S
C668 C682 1.377 . S
C669 C668 1.524 . S
C669 C670 1.397 . S
C669 C674 1.363 . S
C670 H647 0.950 . S
C670 C669 1.397 . S
C670 C671 1.334 . S
C671 H648 0.950 . S
C671 C670 1.334 . S
C671 C672 1.287 . S
C672 C671 1.287 . S
C672 C673 1.524 . S
C672 H691 0.913 . S
C673 H649 0.950 . S
C673 C672 1.524 . S
C673 C674 1.415 . S
C674 H650 0.950 . S
C674 C669 1.363 . S
C674 C673 1.415 . S
C675 H651 0.951 . S
C675 C676 1.366 . S
C675 C677 1.388 . S
C676 C675 1.366 . S
C676 C680 1.385 . S
C677 H652 0.951 . S
C677 C675 1.388 . S
C677 C678 1.366 . S
C678 C677 1.366 . S
C678 C679 1.414 . S
C678 C681 1.499 . S
C679 H653 0.950 . S
C679 C678 1.414 . S
C679 C680 1.374 . S
C680 H654 0.950 . S
C680 C676 1.385 . S
C680 C679 1.374 . S
C681 C678 1.499 . S
C681 C682 1.373 . S
C681 C683 1.389 . S
C682 H655 0.950 . S
C682 C668 1.377 . S
C682 C681 1.373 . S
C683 C667 1.377 . S
C683 C681 1.389 . S
C683 C684 1.524 . S
C684 C683 1.524 . S
C684 C685 1.397 . S
C684 C689 1.363 . S
C685 H656 0.950 . S
C685 C684 1.397 . S
C685 C686 1.334 . S
C686 H657 0.950 . S
C686 C685 1.334 . S
C686 C687 1.287 . S
C687 C686 1.287 . S
C687 C688 1.524 . S
C687 H690 0.999 . S
C688 H658 0.950 . S
C688 C687 1.524 . S
C688 C689 1.415 . S
C689 H659 0.950 . S
C689 C684 1.363 . S
C689 C688 1.415 . S
H690 C687 0.999 . S
H691 C672 0.913 . S
C111 C21 1.601 . S
C126 C44 1.600 . S
C161 C64 1.638 . S
C176 C43 1.653 . S
C211 C89 1.637 . S
C226 C65 1.635 . S
C261 C20 1.579 . S
C276 C90 1.579 . S
C311 C87 1.642 . S
C326 C19 1.655 . S
C361 C67 1.582 . S
C376 C42 1.581 . S
C411 C66 1.562 . S
C426 C88 1.560 . S
C461 C41 1.659 1_455 S
C476 C18 1.656 . S
C511 C17 1.229 . S
C526 C16 1.229 . S
C561 C40 1.229 . S
C576 C39 1.229 . S
C611 C63 1.229 . S
C626 C62 1.229 . S
C661 C85 1.229 . S
C676 C86 1.229 . S
