# Generated by pormake.
# Topology uoj, (4)-cn, num edge types: 1
# Building blocks:
#     Node 0, Type 0, BuildingBlock: KOZSID_clean_sbu_0, # of connection points: 4
#     Node 1, Type 0, BuildingBlock: KOZSID_clean_sbu_0, # of connection points: 4
#     Node 2, Type 0, BuildingBlock: KOZSID_clean_sbu_0, # of connection points: 4
#     Node 3, Type 0, BuildingBlock: KOZSID_clean_sbu_0, # of connection points: 4
#     Node 4, Type 0, BuildingBlock: KOZSID_clean_sbu_0, # of connection points: 4
#     Node 5, Type 0, BuildingBlock: KOZSID_clean_sbu_0, # of connection points: 4
#     Node 6, Type 0, BuildingBlock: KOZSID_clean_sbu_0, # of connection points: 4
#     Node 7, Type 0, BuildingBlock: KOZSID_clean_sbu_0, # of connection points: 4
#     Edge 8, Type (0, 0), BuildingBlock: OJICUG_clean_linker_0, # of connection points: 2
#     Edge 9, Type (0, 0), BuildingBlock: OJICUG_clean_linker_0, # of connection points: 2
#     Edge 10, Type (0, 0), BuildingBlock: OJICUG_clean_linker_0, # of connection points: 2
#     Edge 11, Type (0, 0), BuildingBlock: OJICUG_clean_linker_0, # of connection points: 2
#     Edge 12, Type (0, 0), BuildingBlock: OJICUG_clean_linker_0, # of connection points: 2
#     Edge 13, Type (0, 0), BuildingBlock: OJICUG_clean_linker_0, # of connection points: 2
#     Edge 14, Type (0, 0), BuildingBlock: OJICUG_clean_linker_0, # of connection points: 2
#     Edge 15, Type (0, 0), BuildingBlock: OJICUG_clean_linker_0, # of connection points: 2
#     Edge 16, Type (0, 0), BuildingBlock: OJICUG_clean_linker_0, # of connection points: 2
#     Edge 17, Type (0, 0), BuildingBlock: OJICUG_clean_linker_0, # of connection points: 2
#     Edge 18, Type (0, 0), BuildingBlock: OJICUG_clean_linker_0, # of connection points: 2
#     Edge 19, Type (0, 0), BuildingBlock: OJICUG_clean_linker_0, # of connection points: 2
#     Edge 20, Type (0, 0), BuildingBlock: OJICUG_clean_linker_0, # of connection points: 2
#     Edge 21, Type (0, 0), BuildingBlock: OJICUG_clean_linker_0, # of connection points: 2
#     Edge 22, Type (0, 0), BuildingBlock: OJICUG_clean_linker_0, # of connection points: 2
#     Edge 23, Type (0, 0), BuildingBlock: OJICUG_clean_linker_0, # of connection points: 2
# Relax obj value: 0.040
# Max RMSD: 0.327
# Mean RMSD: 0.302
data_MOF--net-uoj--node1-KOZSID_clean_sbu_0--edge1-OJICUG_clean_linker_0
_symmetry_space_group_name_H-M    P1
_symmetry_Int_Tables_number       1
_symmetry_cell_setting            triclinic
loop_
_symmetry_equiv_pos_as_xyz
'x, y, z'
_cell_length_a     28.824419
_cell_length_b     31.198955
_cell_length_c     37.144549
_cell_angle_alpha  90.001943
_cell_angle_beta   89.998773
_cell_angle_gamma 95.950679
loop_
_atom_site_label
_atom_site_type_symbol
_atom_site_fract_x
_atom_site_fract_y
_atom_site_fract_z
_atom_type_partial_charge
C0 C 0.16571 0.33051 0.38644 0.0
C1 C 0.2037 0.36107 0.39131 0.0
C2 C 0.20092 0.37627 0.4258 0.0
C3 C 0.1615 0.35426 0.44013 0.0
N4 N 0.13981 0.32532 0.41714 0.0
Co5 Co 0.07838 0.29137 0.42645 0.0
N6 N 0.08034 0.30395 0.47922 0.0
C7 C 0.11008 0.33392 0.49549 0.0
C8 C 0.10577 0.33317 0.53233 0.0
C9 C 0.07093 0.30089 0.53969 0.0
C10 C 0.0553 0.28392 0.50683 0.0
N11 N 1.01597 0.25935 0.43505 0.0
C12 C 0.99382 0.24716 0.46615 0.0
C13 C 0.94778 0.23087 0.45965 0.0
C14 C 0.94152 0.23145 0.42326 0.0
C15 C 0.98349 0.24873 0.40965 0.0
N16 N 0.07606 0.27663 0.37407 0.0
C17 C 0.03816 0.25912 0.35604 0.0
C18 C 0.04632 0.25165 0.32042 0.0
C19 C 0.09207 0.2662 0.3152 0.0
C20 C 0.10935 0.2822 0.34809 0.0
N21 N 0.11022 0.23937 0.4365 0.0
C22 C 0.15919 0.168 0.45477 0.0
C23 C 0.11713 0.16253 0.43495 0.0
C24 C 0.09334 0.19863 0.42595 0.0
C25 C 0.17606 0.21023 0.46411 0.0
C26 C 0.1511 0.24468 0.45546 0.0
N27 N 0.04896 0.34516 0.41741 0.0
C28 C 0.05676 0.41367 0.38644 0.0
C29 C 1.0348 0.43369 0.41464 0.0
C30 C 1.016 0.40687 0.44272 0.0
C31 C 1.02308 0.3628 0.44342 0.0
C32 C 0.06258 0.3698 0.38803 0.0
H33 H 1.0098 0.34371 0.46611 0.0
H34 H 0.0814 0.35701 0.3664 0.0
H35 H 0.0612 0.19358 0.41088 0.0
H36 H 0.16535 0.2758 0.46468 0.0
C37 C 0.14579 0.35717 0.47575 0.0
C38 C 0.15316 0.31062 0.35125 0.0
C39 C 1.01471 0.2511 0.50223 0.0
C40 C 0.99577 0.24907 0.3735 0.0
H41 H 0.22994 0.37205 0.37159 0.0
H42 H 0.22482 0.40048 0.43883 0.0
H43 H 0.12677 0.35253 0.55167 0.0
H44 H 0.05879 0.29103 0.56625 0.0
H45 H 0.92129 0.21962 0.47905 0.0
H46 H 0.91054 0.21938 0.40845 0.0
H47 H 1.02172 0.238 0.30045 0.0
H48 H 0.10961 0.26727 0.28944 0.0
H49 H 0.10219 0.1307 0.42697 0.0
H50 H 0.20883 0.21725 0.4782 0.0
H51 H 0.07208 0.43197 0.3639 0.0
H52 H 0.99693 0.41986 0.46456 0.0
C53 C 0.42735 0.94971 0.58567 0.0
C54 C 0.46254 0.92731 0.57168 0.0
C55 C 0.44132 0.89344 0.55276 0.0
C56 C 0.39457 0.89638 0.55675 0.0
N57 N 0.3844 0.92987 0.57718 0.0
Co58 Co 0.32015 0.94225 0.59202 0.0
N59 N 0.29106 0.88472 0.57452 0.0
C60 C 0.31314 0.85631 0.55531 0.0
C61 C 0.28558 0.81979 0.54597 0.0
C62 C 0.24277 0.82533 0.55945 0.0
C63 C 0.24646 0.86527 0.57664 0.0
N64 N 0.25566 0.95519 0.6053 0.0
C65 C 0.21362 0.93072 0.60313 0.0
C66 C 0.17756 0.95446 0.61315 0.0
C67 C 0.19719 0.99541 0.62033 0.0
C68 C 0.24409 0.99449 0.61468 0.0
N69 N 0.35037 0.99874 0.61079 0.0
C70 C 0.32748 0.03242 0.62043 0.0
C71 C 0.35663 0.06744 0.63172 0.0
C72 C 0.40088 0.05531 0.62885 0.0
C73 C 0.39639 1.01337 0.61596 0.0
N74 N 0.30941 0.96922 0.54457 0.0
C75 C 0.26866 0.02947 0.50142 0.0
C76 C 0.31419 0.03844 0.51491 0.0
C77 C 0.33453 1.00731 0.53532 0.0
C78 C 0.24741 0.98736 0.50512 0.0
C79 C 0.26852 0.95771 0.52639 0.0
N80 N 0.32888 0.91749 0.64044 0.0
C81 C 0.31689 0.92337 0.70456 0.0
C82 C 0.34517 0.89056 0.71195 0.0
C83 C 0.36346 0.86996 0.68207 0.0
C84 C 0.35447 0.88356 0.64662 0.0
C85 C 0.31025 0.93676 0.66937 0.0
H86 H 0.36908 0.86719 0.62445 0.0
H87 H 0.29056 0.96373 0.66616 0.0
H88 H 0.36877 1.01593 0.54644 0.0
H89 H 0.2488 0.92716 0.53071 0.0
C90 C 0.36014 0.86414 0.54729 0.0
C91 C 0.43683 0.9905 0.60546 0.0
C92 C 0.20549 0.8865 0.58843 0.0
C93 C 0.27866 0.02874 0.62067 0.0
H94 H 0.49983 0.93424 0.5751 0.0
H95 H 0.45799 0.8683 0.53935 0.0
H96 H 0.29526 0.79263 0.53057 0.0
H97 H 0.21234 0.80285 0.55504 0.0
H98 H 0.14069 0.94359 0.61412 0.0
H99 H 0.17935 1.0226 0.62874 0.0
H100 H 0.3469 0.0981 0.64112 0.0
H101 H 0.43287 0.07538 0.63476 0.0
H102 H 0.33296 0.07008 0.51142 0.0
H103 H 0.21279 0.97838 0.49445 0.0
H104 H 0.29993 0.93952 0.72587 0.0
H105 H 0.38549 0.84428 0.68584 0.0
C106 C 0.90448 0.72594 0.38662 0.0
C107 C 0.86647 0.6954 0.39148 0.0
C108 C 0.86927 0.68018 0.42596 0.0
C109 C 0.90871 0.70215 0.44028 0.0
N110 N 0.9304 0.7311 0.4173 0.0
Co111 Co 0.99185 0.76501 0.4266 0.0
N112 N 0.98989 0.75243 0.47937 0.0
C113 C 0.96016 0.72246 0.49564 0.0
C114 C 0.96446 0.72321 0.53247 0.0
C115 C 0.9993 0.7555 0.53984 0.0
C116 C 1.01493 0.77246 0.50697 0.0
N117 N 0.05427 0.797 0.4352 0.0
C118 C 0.07641 0.8092 0.4663 0.0
C119 C 0.12245 0.82548 0.45979 0.0
C120 C 0.12873 0.82488 0.4234 0.0
C121 C 0.08676 0.8076 0.40979 0.0
N122 N 0.99417 0.77976 0.37423 0.0
C123 C 1.03208 0.79723 0.35618 0.0
C124 C 1.02391 0.80472 0.32057 0.0
C125 C 0.97814 0.79022 0.31536 0.0
C126 C 0.96086 0.77423 0.34826 0.0
N127 N 0.96004 0.81703 0.43666 0.0
C128 C 0.91107 0.8884 0.45487 0.0
C129 C 0.95311 0.89385 0.43504 0.0
C130 C 0.97691 0.85775 0.42607 0.0
C131 C 0.89421 0.84619 0.46427 0.0
C132 C 0.91918 0.81174 0.45564 0.0
N133 N 1.02124 0.71121 0.41754 0.0
C134 C 1.01342 0.64272 0.38654 0.0
C135 C 0.0354 0.62268 0.41472 0.0
C136 C 0.0542 0.64948 0.4428 0.0
C137 C 0.04712 0.69355 0.44354 0.0
C138 C 1.0076 0.68659 0.38816 0.0
H139 H 0.06041 0.71263 0.46623 0.0
H140 H 0.98876 0.69939 0.36654 0.0
H141 H 1.00904 0.86279 0.41098 0.0
H142 H 0.90494 0.78062 0.46489 0.0
C143 C 0.92444 0.69922 0.4759 0.0
C144 C 0.91702 0.74585 0.35143 0.0
C145 C 0.05551 0.8053 0.50236 0.0
C146 C 0.07448 0.80725 0.37364 0.0
H147 H 0.84021 0.68446 0.37178 0.0
H148 H 0.84536 0.65598 0.43899 0.0
H149 H 0.94346 0.70385 0.55182 0.0
H150 H 1.01143 0.76537 0.5664 0.0
H151 H 0.14894 0.83674 0.4792 0.0
H152 H 0.15972 0.83694 0.4086 0.0
H153 H 0.04851 0.81835 0.3006 0.0
H154 H 0.96059 0.78918 0.28962 0.0
H155 H 0.96804 0.92567 0.42702 0.0
H156 H 0.86145 0.83919 0.47836 0.0
H157 H 0.99809 0.62444 0.36398 0.0
H158 H 0.07328 0.63647 0.46464 0.0
C159 C 0.64281 0.10675 0.58554 0.0
C160 C 0.60762 0.12912 0.57153 0.0
C161 C 0.62885 0.16297 0.55258 0.0
C162 C 0.6756 0.16005 0.55658 0.0
N163 N 0.68576 0.12658 0.57704 0.0
Co164 Co 0.75001 0.11422 0.59192 0.0
N165 N 0.7791 0.17175 0.57439 0.0
C166 C 0.75701 0.20014 0.55517 0.0
C167 C 0.78457 0.23665 0.54581 0.0
C168 C 0.82738 0.23114 0.55931 0.0
C169 C 0.8237 0.19121 0.57652 0.0
N170 N 0.8145 0.10131 0.60523 0.0
C171 C 0.85654 0.12579 0.60304 0.0
C172 C 0.8926 0.10206 0.61309 0.0
C173 C 0.87298 0.06111 0.62029 0.0
C174 C 0.82607 0.06202 0.61463 0.0
N175 N 0.7198 0.05774 0.6107 0.0
C176 C 0.74269 1.02408 0.62036 0.0
C177 C 0.71354 0.98907 0.63167 0.0
C178 C 0.6693 1.00119 0.62879 0.0
C179 C 0.67378 0.04312 0.61588 0.0
N180 N 0.76078 0.08723 0.54448 0.0
C181 C 0.80155 1.02695 0.50137 0.0
C182 C 0.75601 1.01799 0.51485 0.0
C183 C 0.73566 0.04913 0.53524 0.0
C184 C 0.82279 0.06907 0.50506 0.0
C185 C 0.80168 0.09873 0.52631 0.0
N186 N 0.74123 0.13901 0.64031 0.0
C187 C 0.75306 0.13311 0.70446 0.0
C188 C 0.72471 0.16588 0.7118 0.0
C189 C 0.7065 0.18649 0.68189 0.0
C190 C 0.7156 0.17292 0.64646 0.0
C191 C 0.75983 0.11975 0.66927 0.0
H192 H 0.70102 0.18928 0.62427 0.0
H193 H 0.77956 0.09281 0.66608 0.0
H194 H 0.70142 0.04052 0.54635 0.0
H195 H 0.82139 0.12928 0.53062 0.0
C196 C 0.71002 0.19228 0.54713 0.0
C197 C 0.63334 0.06599 0.60537 0.0
C198 C 0.86467 0.16999 0.58832 0.0
C199 C 0.79151 1.02777 0.62062 0.0
H200 H 0.57034 0.1222 0.57495 0.0
H201 H 0.61218 0.1881 0.53916 0.0
H202 H 0.77489 0.2638 0.5304 0.0
H203 H 0.85781 0.25362 0.5549 0.0
H204 H 0.92947 0.11294 0.61406 0.0
H205 H 0.89082 0.03394 0.62871 0.0
H206 H 0.72327 0.95841 0.6411 0.0
H207 H 0.63731 0.98113 0.63472 0.0
H208 H 0.73725 0.98635 0.51137 0.0
H209 H 0.85742 0.07805 0.49439 0.0
H210 H 0.76996 0.11696 0.72579 0.0
H211 H 0.68443 0.21214 0.68564 0.0
C212 C 0.3928 0.74366 0.99483 0.0
C213 C 0.35377 0.73319 1.01637 0.0
C214 C 0.343 0.77051 0.03154 0.0
C215 C 0.3761 0.80137 1.01883 0.0
N216 N 0.40755 0.78647 0.9965 0.0
Co217 Co 0.4619 0.82183 0.97332 0.0
N218 N 0.44938 0.87551 1.00054 0.0
C219 C 0.41262 0.87877 1.02253 0.0
C220 C 0.40813 0.91946 0.03444 0.0
C221 C 0.44398 0.94435 1.01897 0.0
C222 C 0.46966 0.91716 0.99908 0.0
N223 N 0.51381 0.8589 0.94856 0.0
C224 C 0.52969 0.90179 0.95219 0.0
C225 C 0.5673 0.91275 0.92949 0.0
C226 C 0.57431 0.87651 0.9103 0.0
C227 C 0.54115 0.84514 0.92245 0.0
N228 N 0.4747 0.76789 0.94739 0.0
C229 C 0.50756 0.76532 0.92204 0.0
C230 C 0.50993 0.72414 0.90959 0.0
C231 C 0.47637 0.6989 0.92829 0.0
C232 C 0.45539 0.72615 0.95119 0.0
N233 N 0.42045 0.83637 0.9332 0.0
C234 C 0.38666 0.85281 0.86328 0.0
C235 C 0.37878 0.81172 0.87903 0.0
C236 C 0.39556 0.80432 0.91385 0.0
C237 C 0.40799 0.88604 0.88503 0.0
C238 C 0.42344 0.87737 0.9197 0.0
N239 N 0.50618 0.80467 1.01184 0.0
C240 C 0.58627 0.79002 0.0233 0.0
C241 C 0.57187 0.75524 0.04575 0.0
C242 C 0.5243 0.74895 0.05439 0.0
C243 C 0.49229 0.77404 0.0375 0.0
C244 C 0.55354 0.81477 1.00769 0.0
H245 H 0.4563 0.76685 0.04472 0.0
H246 H 0.56794 0.84086 0.99112 0.0
H247 H 0.39017 0.77201 0.92416 0.0
H248 H 0.44047 0.90397 0.93426 0.0
C249 C 0.38053 0.84384 0.02945 0.0
C250 C 0.41514 0.71154 0.97424 0.0
C251 C 0.50967 0.9334 0.97612 0.0
C252 C 0.53642 0.80198 0.91172 0.0
H253 H 0.33532 0.70177 1.02133 0.0
H254 H 0.31516 0.77451 0.05042 0.0
H255 H 0.38049 0.93014 0.05084 0.0
H256 H 0.44811 0.97904 1.02073 0.0
H257 H 0.5878 0.94366 0.92706 0.0
H258 H 0.60094 0.87329 0.89022 0.0
H259 H 0.53341 0.71364 0.88945 0.0
H260 H 0.46786 0.66449 0.92519 0.0
H261 H 0.36071 0.78501 0.86439 0.0
H262 H 0.41524 0.91858 0.87501 0.0
H263 H 0.62292 0.79756 1.01702 0.0
H264 H 0.51146 0.72342 0.07269 0.0
C265 C 0.72931 0.61888 0.10957 0.0
C266 C 0.69149 0.59751 0.12737 0.0
C267 C 0.70736 0.5626 0.14394 0.0
C268 C 0.75386 0.56443 0.13532 0.0
N269 N 0.76871 0.59831 0.11445 0.0
Co270 Co 0.83362 0.61019 0.0942 0.0
N271 N 0.85702 0.55808 0.11751 0.0
C272 C 0.83101 0.52944 0.13817 0.0
C273 C 0.85493 0.49654 0.15045 0.0
C274 C 0.89912 0.50475 0.13686 0.0
C275 C 0.90002 0.54255 0.11713 0.0
N276 N 0.89833 0.62225 0.07328 0.0
C277 C 0.93772 0.60146 0.07661 0.0
C278 C 0.97574 0.62477 0.06022 0.0
C279 C 0.96004 0.66038 0.04544 0.0
C280 C 0.91373 0.65755 0.05404 0.0
N281 N 0.81162 0.66327 0.07157 0.0
C282 C 0.83855 0.69378 0.05338 0.0
C283 C 0.81622 0.72857 0.04343 0.0
C284 C 0.77189 0.71989 0.05599 0.0
C285 C 0.76963 0.67986 0.07264 0.0
N286 N 0.85269 0.64435 0.13813 0.0
C287 C 0.8702 0.679 0.20808 0.0
C288 C 0.90284 0.65603 0.19036 0.0
C289 C 0.89362 0.63936 0.15566 0.0
C290 C 0.82999 0.6865 0.18888 0.0
C291 C 0.82215 0.66932 0.15425 0.0
N292 N 0.81204 0.57415 0.05155 0.0
C293 C 0.74436 0.5463 1.01657 0.0
C294 C 0.76226 0.50677 1.01147 0.0
C295 C 0.80827 0.50376 0.02305 0.0
C296 C 0.83259 0.53784 0.04261 0.0
C297 C 0.77 0.57951 0.03572 0.0
H298 H 0.867 0.53343 0.05204 0.0
H299 H 0.75377 0.60838 0.03922 0.0
H300 H 0.91937 0.62138 0.14385 0.0
H301 H 0.79018 0.6752 0.14144 0.0
C302 C 0.78423 0.53434 0.14507 0.0
C303 C 0.72631 0.65858 0.0882 0.0
C304 C 0.94208 0.56167 0.09738 0.0
C305 C 0.88476 0.68898 0.04631 0.0
H306 H 0.65609 0.60611 0.1281 0.0
H307 H 0.68719 0.53839 0.15997 0.0
H308 H 0.8417 0.46953 0.1671 0.0
H309 H 0.92726 0.48482 0.14071 0.0
H310 H 1.01178 0.61811 0.06009 0.0
H311 H 0.98041 0.68621 0.03129 0.0
H312 H 0.83058 0.75702 0.02895 0.0
H313 H 0.74438 0.74078 0.05326 0.0
H314 H 0.93537 0.65049 0.20327 0.0
H315 H 0.80357 0.70419 0.20094 0.0
H316 H 0.70989 0.55121 1.0068 0.0
H317 H 0.82449 0.47435 1.01896 0.0
C318 C 0.67873 0.31242 0.99425 0.0
C319 C 0.71806 0.32272 1.0155 0.0
C320 C 0.72841 0.28543 0.03098 0.0
C321 C 0.69479 0.25477 1.01872 0.0
N322 N 0.66342 0.26974 0.99635 0.0
Co323 Co 0.6085 0.23464 0.97365 0.0
N324 N 0.62118 0.18083 1.00063 0.0
C325 C 0.65793 0.17751 1.02262 0.0
C326 C 0.66246 0.13677 0.03438 0.0
C327 C 0.62664 0.11192 1.01885 0.0
C328 C 0.60089 0.13919 0.99909 0.0
N329 N 0.55598 0.19782 0.94935 0.0
C330 C 0.54028 0.15486 0.95277 0.0
C331 C 0.5021 0.14412 0.93059 0.0
C332 C 0.49442 0.18061 0.91201 0.0
C333 C 0.5278 0.2119 0.92398 0.0
N334 N 0.59552 0.2887 0.94799 0.0
C335 C 0.56183 0.29158 0.92335 0.0
C336 C 0.55938 0.33283 0.91111 0.0
C337 C 0.59373 0.35781 0.92921 0.0
C338 C 0.61522 0.33035 0.95158 0.0
N339 N 0.64925 0.22002 0.93307 0.0
C340 C 0.68278 0.20354 0.86305 0.0
C341 C 0.69078 0.24461 0.87881 0.0
C342 C 0.67412 0.25202 0.91366 0.0
C343 C 0.66134 0.17036 0.88479 0.0
C344 C 0.64601 0.17904 0.9195 0.0
N345 N 0.56495 0.25191 1.01266 0.0
C346 C 0.48455 0.26452 0.02539 0.0
C347 C 0.49862 0.30085 0.04624 0.0
C348 C 0.54638 0.30909 0.05358 0.0
C349 C 0.57871 0.28424 0.0369 0.0
C350 C 0.51771 0.23999 1.01001 0.0
H351 H 0.61475 0.29302 0.04309 0.0
H352 H 0.50375 0.2125 0.99481 0.0
H353 H 0.67968 0.28432 0.92395 0.0
H354 H 0.62902 0.15245 0.93407 0.0
C355 C 0.69012 0.21236 0.02949 0.0
C356 C 0.6562 0.34468 0.97396 0.0
C357 C 0.56068 0.12307 0.9763 0.0
C358 C 0.53238 0.25512 0.91346 0.0
H359 H 0.73691 0.35402 1.02017 0.0
H360 H 0.75635 0.28135 0.04974 0.0
H361 H 0.69015 0.12603 0.0507 0.0
H362 H 0.62253 0.07722 1.0205 0.0
H363 H 0.48161 0.1132 0.92816 0.0
H364 H 0.46727 0.18404 0.8924 0.0
H365 H 0.53533 0.34354 0.89148 0.0
H366 H 0.60238 0.3922 0.92608 0.0
H367 H 0.70892 0.27128 0.86417 0.0
H368 H 0.65399 0.13783 0.87475 0.0
H369 H 0.44783 0.25555 1.02021 0.0
H370 H 0.55903 0.33593 0.07066 0.0
C371 C 0.3409 0.43733 0.10922 0.0
C372 C 0.3788 0.45865 0.12696 0.0
C373 C 0.36304 0.49359 0.14358 0.0
C374 C 0.31653 0.49184 0.13503 0.0
N375 N 0.30156 0.45799 0.11417 0.0
Co376 Co 0.23661 0.44627 0.09398 0.0
N377 N 0.21339 0.49843 0.11734 0.0
C378 C 0.23948 0.52699 0.13801 0.0
C379 C 0.21567 0.55993 0.15035 0.0
C380 C 0.17144 0.55182 0.13679 0.0
C381 C 0.17043 0.51405 0.11701 0.0
N382 N 0.17186 0.43438 0.07309 0.0
C383 C 0.13255 0.45527 0.07645 0.0
C384 C 0.09445 0.43205 0.06008 0.0
C385 C 0.11002 0.39639 0.0453 0.0
C386 C 0.15633 0.3991 0.05387 0.0
N387 N 0.25842 0.39313 0.0713 0.0
C388 C 0.23136 0.36264 0.05319 0.0
C389 C 0.25352 0.32773 0.04329 0.0
C390 C 0.29788 0.3363 0.05582 0.0
C391 C 0.30033 0.3764 0.07236 0.0
N392 N 0.2175 0.41212 0.1379 0.0
C393 C 0.19997 0.37749 0.20788 0.0
C394 C 0.16736 0.40051 0.19016 0.0
C395 C 0.17659 0.41717 0.15545 0.0
C396 C 0.24016 0.36994 0.18866 0.0
C397 C 0.248 0.38712 0.15402 0.0
N398 N 0.25827 0.48232 0.05133 0.0
C399 C 0.32603 0.51001 1.01635 0.0
C400 C 0.30835 0.54966 1.01137 0.0
C401 C 0.26238 0.55282 1.023 0.0
C402 C 0.23791 0.51877 0.04249 0.0
C403 C 0.30024 0.47682 0.03544 0.0
H404 H 0.20355 0.5233 0.05196 0.0
H405 H 0.31631 0.44785 0.03886 0.0
H406 H 0.15087 0.43519 0.14365 0.0
H407 H 0.27995 0.38119 0.1412 0.0
C408 C 0.28626 0.52199 0.14485 0.0
C409 C 0.34375 0.39761 0.08784 0.0
C410 C 0.12832 0.49506 0.09726 0.0
C411 C 0.18517 0.36756 0.04615 0.0
H412 H 0.41418 0.45001 0.12762 0.0
H413 H 0.3833 0.51776 0.15958 0.0
H414 H 0.22897 0.5869 0.16701 0.0
H415 H 0.14336 0.57181 0.14069 0.0
H416 H 0.05844 0.43879 0.05999 0.0
H417 H 0.08956 0.37059 0.03118 0.0
H418 H 0.23903 0.29927 0.0289 0.0
H419 H 0.32527 0.31528 0.05313 0.0
H420 H 0.13485 0.40609 0.20308 0.0
H421 H 0.26656 0.35222 0.20071 0.0
H422 H 0.36044 0.50497 1.00654 0.0
H423 H 0.24632 0.58233 1.019 0.0
C424 C 0.20677 0.32237 0.25757 0.0
C425 C 0.19233 0.362 0.24602 0.0
H426 H 0.20663 0.27553 0.30014 0.0
C427 C 0.17003 0.38664 0.27131 0.0
H428 H 0.22374 0.30221 0.23907 0.0
C429 C 0.16045 0.37126 0.30631 0.0
C430 C 0.173 0.33088 0.31715 0.0
H431 H 0.15933 0.41772 0.26396 0.0
H432 H 0.14146 0.39022 0.32448 0.0
C433 C 0.19725 0.30706 0.29268 0.0
C434 C 0.36528 0.83823 0.76135 0.0
C435 C 0.3559 0.87981 0.75056 0.0
H436 H 0.3828 0.79708 0.8045 0.0
C437 C 0.35617 0.91173 0.7775 0.0
H438 H 0.36521 0.81247 0.74183 0.0
C439 C 0.36419 0.90246 0.81365 0.0
C440 C 0.37424 0.86122 0.82457 0.0
H441 H 0.35066 0.94459 0.7709 0.0
H442 H 0.36244 0.92816 0.83299 0.0
C443 C 0.37457 0.82916 0.7977 0.0
C444 C 0.9097 0.68522 0.30651 0.0
C445 C 0.89717 0.72561 0.31734 0.0
H446 H 0.91081 0.63875 0.26415 0.0
C447 C 0.87293 0.74943 0.29288 0.0
H448 H 0.92869 0.66625 0.32468 0.0
C449 C 0.8634 0.73412 0.25777 0.0
C450 C 0.87783 0.69449 0.24622 0.0
H451 H 0.86356 0.78097 0.30034 0.0
H452 H 0.84643 0.75429 0.23926 0.0
C453 C 0.90012 0.66984 0.2715 0.0
C454 C 0.70525 0.15387 0.81344 0.0
C455 C 0.69523 0.19512 0.82435 0.0
H456 H 0.71893 0.11178 0.77069 0.0
C457 C 0.69504 0.22721 0.7975 0.0
H458 H 0.70689 0.12815 0.83277 0.0
C459 C 0.70446 0.21817 0.76117 0.0
C460 C 0.71384 0.17659 0.75039 0.0
H461 H 0.68684 0.2593 0.8043 0.0
H462 H 0.70464 0.24395 0.74167 0.0
C463 C 0.71342 0.14463 0.7773 0.0
C464 C 0.2139 0.06031 0.45662 0.0
C465 C 0.24139 0.06468 0.48807 0.0
H466 H 0.16733 0.08928 0.42088 0.0
C467 C 0.2399 0.10205 0.50888 0.0
H468 H 0.21378 0.03163 0.44019 0.0
C469 C 0.21223 0.13427 0.4986 0.0
C470 C 0.18582 0.13108 0.46648 0.0
H471 H 0.25926 0.10589 0.53388 0.0
H472 H 0.21137 0.16164 0.51638 0.0
C473 C 0.18682 0.09325 0.44577 0.0
C474 C 0.13848 0.82676 0.58211 0.0
C475 C 0.15776 0.86918 0.57445 0.0
H476 H 0.09333 0.77194 0.56405 0.0
C477 C 0.1349 0.89266 0.54879 0.0
H478 H 0.15468 0.80798 0.60217 0.0
C479 C 0.09689 0.87303 0.52903 0.0
C480 C 0.08224 0.82869 0.53284 0.0
H481 H 0.14847 0.92535 0.54205 0.0
H482 H 0.08226 0.89139 0.50787 0.0
C483 C 0.10242 0.80622 0.56068 0.0
C484 C 0.8563 0.99607 0.4566 0.0
C485 C 0.82882 0.99174 0.48805 0.0
H486 H 0.90288 0.96706 0.42089 0.0
C487 C 0.83034 0.95442 0.50891 0.0
H488 H 0.8564 1.02472 0.44013 0.0
C489 C 0.85802 0.92219 0.49867 0.0
C490 C 0.88442 0.92533 0.46654 0.0
H491 H 0.81099 0.95061 0.53391 0.0
H492 H 0.85891 0.89485 0.51648 0.0
C493 C 0.8834 0.96312 0.44578 0.0
C494 C 0.93168 0.22972 0.58196 0.0
C495 C 0.9124 0.1873 0.57433 0.0
H496 H 0.97686 0.28452 0.56388 0.0
C497 C 0.93527 0.16379 0.54869 0.0
H498 H 0.91548 0.24853 0.60201 0.0
C499 C 0.97329 0.1834 0.52893 0.0
C500 C 0.98796 0.22774 0.53271 0.0
H501 H 0.9217 0.13109 0.54197 0.0
H502 H 0.98793 0.16501 0.50779 0.0
C503 C 0.96776 0.25024 0.56053 0.0
C504 C 0.38503 0.59744 1.00885 0.0
C505 C 0.33875 0.58785 0.99654 0.0
H506 H 0.44579 0.64384 1.011 0.0
C507 C 0.32136 0.61651 0.97189 0.0
H508 H 0.39965 0.57642 0.02804 0.0
C509 C 0.34851 0.65456 0.96134 0.0
C510 C 0.39343 0.66553 0.97575 0.0
H511 H 0.28619 0.61015 0.96155 0.0
H512 H 0.33307 0.67711 0.94399 0.0
C513 C 0.41182 0.63592 0.99884 0.0
C514 C 0.66784 0.67961 0.04251 0.0
C515 C 0.68066 0.67609 0.0789 0.0
H516 H 0.6244 0.70751 1.00382 0.0
C517 C 0.65412 0.69563 0.10494 0.0
H518 H 0.68758 0.66524 1.02172 0.0
C519 C 0.61714 0.71956 0.09462 0.0
C520 C 0.60646 0.72521 0.05798 0.0
H521 H 0.6634 0.69415 0.13313 0.0
H522 H 0.59848 0.73545 0.11517 0.0
C523 C 0.63178 0.70411 0.03222 0.0
C524 C 0.68582 0.45866 1.00898 0.0
C525 C 0.73203 0.46853 0.99659 0.0
H526 H 0.62531 0.41199 1.0111 0.0
C527 C 0.74954 0.44009 0.9718 0.0
H528 H 0.67113 0.47952 0.02826 0.0
C529 C 0.72256 0.40198 0.96119 0.0
C530 C 0.67775 0.39072 0.97567 0.0
H531 H 0.78464 0.44668 0.9614 0.0
H532 H 0.73808 0.37961 0.9437 0.0
C533 C 0.65922 0.42012 0.9989 0.0
C534 C 0.453 0.33677 0.09471 0.0
C535 C 0.46354 0.33056 0.05812 0.0
H536 H 0.40688 0.36273 0.13301 0.0
C537 C 0.43801 0.35108 0.03215 0.0
H538 H 0.47189 0.32136 0.1154 0.0
C539 C 0.40194 0.37569 0.04222 0.0
C540 C 0.3893 0.37985 0.07861 0.0
H541 H 0.44531 0.34723 1.00378 0.0
H542 H 0.38209 0.38971 1.02131 0.0
C543 C 0.416 0.36077 0.10482 0.0
C544 C 0.03619 0.55075 0.38263 0.0
C545 C 0.03665 0.57434 0.41504 0.0
H546 H 1.03249 0.48945 0.35682 0.0
C547 C 0.03573 0.55081 0.44753 0.0
H548 H 0.03771 0.56698 0.35685 0.0
C549 C 1.03449 0.50554 0.44751 0.0
C550 C 1.03356 0.48204 0.415 0.0
H551 H 0.03528 0.56718 0.47319 0.0
H552 H 1.03494 0.48913 0.47316 0.0
C553 C 1.03401 0.50565 0.38261 0.0
C554 C 0.559 0.03638 0.63899 0.0
C555 C 0.58357 0.0444 0.60642 0.0
H556 H 0.49357 1.0135 0.66445 0.0
C557 C 0.55892 0.03562 0.57405 0.0
H558 H 0.57665 0.04307 0.66442 0.0
C559 C 0.51121 1.02082 0.57407 0.0
C560 C 0.48659 1.01209 0.60646 0.0
H561 H 0.57649 0.04134 0.54845 0.0
H562 H 0.49362 1.01507 0.54849 0.0
C563 C 0.51119 1.02016 0.63901 0.0
C564 C 0.54052 0.05101 0.94262 0.0
C565 C 0.54498 0.07462 0.97515 0.0
H566 H 0.52356 0.98926 0.91703 0.0
C567 C 0.53846 0.05083 1.00735 0.0
H568 H 0.54585 0.06752 0.9171 0.0
C569 C 0.53212 1.00553 1.00728 0.0
C570 C 0.52527 0.98187 0.97504 0.0
H571 H 0.54046 0.06731 0.03305 0.0
H572 H 0.53039 0.98894 0.03294 0.0
C573 C 0.52926 1.00565 0.94258 0.0
C574 C 0.05804 0.52221 0.06593 0.0
C575 C 0.08146 0.51424 0.09822 0.0
H576 H 0.99569 0.53934 0.04033 0.0
C577 C 0.05779 0.52111 0.13072 0.0
H578 H 0.07472 0.51761 0.04029 0.0
C579 C 1.01268 0.53563 0.13075 0.0
C580 C 0.98899 0.54256 0.09828 0.0
H581 H 0.07402 0.5149 0.15622 0.0
H582 H 0.99646 0.54176 0.15627 0.0
C583 C 1.0124 0.53468 0.06596 0.0
loop_
_geom_bond_atom_site_label_1
_geom_bond_atom_site_label_2
_geom_bond_distance
_geom_bond_site_symmetry_2
_ccdc_geom_bond_type
C0 C1 1.443 . S
C0 N4 1.376 . S
C0 C38 1.389 . S
C1 C0 1.443 . S
C1 C2 1.340 . S
C1 H41 0.951 . S
C2 C1 1.340 . S
C2 C3 1.439 . S
C2 H42 0.950 . S
C3 C2 1.439 . S
C3 N4 1.374 . S
C3 C37 1.395 . S
N4 C0 1.376 . S
N4 C3 1.374 . S
N4 Co5 2.008 . S
Co5 N4 2.008 . S
Co5 N6 1.995 . S
Co5 N11 2.008 1_455 S
Co5 N16 1.995 . S
Co5 N21 2.282 . S
Co5 N27 2.282 1_455 S
N6 Co5 1.995 . S
N6 C7 1.376 . S
N6 C10 1.383 1_455 S
C7 N6 1.376 . S
C7 C8 1.446 . S
C7 C37 1.391 . S
C8 C7 1.446 . S
C8 C9 1.339 . S
C8 H43 0.949 . S
C9 C8 1.339 . S
C9 C10 1.439 1_455 S
C9 H44 0.950 1_455 S
C10 N6 1.383 1_655 S
C10 C9 1.439 1_655 S
C10 C39 1.392 . S
N11 Co5 2.008 1_655 S
N11 C12 1.376 . S
N11 C15 1.374 . S
C12 N11 1.376 . S
C12 C13 1.443 . S
C12 C39 1.389 . S
C13 C12 1.443 . S
C13 C14 1.340 . S
C13 H45 0.951 . S
C14 C13 1.340 . S
C14 C15 1.439 . S
C14 H46 0.950 . S
C15 N11 1.374 . S
C15 C14 1.439 . S
C15 C40 1.395 . S
N16 Co5 1.995 . S
N16 C17 1.376 1_455 S
N16 C20 1.383 . S
C17 N16 1.376 1_655 S
C17 C18 1.446 1_655 S
C17 C40 1.391 . S
C18 C17 1.446 1_455 S
C18 C19 1.339 . S
C18 H47 0.949 1_455 S
C19 C18 1.339 . S
C19 C20 1.439 . S
C19 H48 0.950 . S
C20 N16 1.383 . S
C20 C19 1.439 . S
C20 C38 1.392 . S
N21 Co5 2.282 . S
N21 C24 1.332 . S
N21 C26 1.332 . S
C22 C23 1.386 . S
C22 C25 1.388 . S
C23 C22 1.386 . S
C23 C24 1.382 . S
C23 H49 0.950 . S
C24 N21 1.332 . S
C24 C23 1.382 . S
C24 H35 0.952 . S
C25 C22 1.388 . S
C25 C26 1.382 . S
C25 H50 0.950 . S
C26 N21 1.332 . S
C26 C25 1.382 . S
C26 H36 0.948 . S
N27 Co5 2.282 1_655 S
N27 C31 1.330 1_655 S
N27 C32 1.332 . S
C28 C29 1.388 . S
C28 C32 1.382 . S
C28 H51 0.950 . S
C29 C28 1.388 . S
C29 C30 1.386 . S
C30 C29 1.386 . S
C30 C31 1.375 1_655 S
C30 H52 0.950 . S
C31 N27 1.330 1_455 S
C31 C30 1.375 1_455 S
C31 H33 0.961 . S
C32 N27 1.332 . S
C32 C28 1.382 . S
C32 H34 0.948 . S
H33 C31 0.961 . S
H34 C32 0.948 . S
H35 C24 0.952 . S
H36 C26 0.948 . S
C37 C3 1.395 . S
C37 C7 1.391 . S
C38 C0 1.389 . S
C38 C20 1.392 . S
C39 C10 1.392 . S
C39 C12 1.389 . S
C40 C15 1.395 . S
C40 C17 1.391 . S
H41 C1 0.951 . S
H42 C2 0.950 . S
H43 C8 0.949 . S
H44 C9 0.950 1_655 S
H45 C13 0.951 . S
H46 C14 0.950 . S
H47 C18 0.949 1_655 S
H48 C19 0.950 . S
H49 C23 0.950 . S
H50 C25 0.950 . S
H51 C28 0.950 . S
H52 C30 0.950 . S
C53 C54 1.443 . S
C53 N57 1.376 . S
C53 C91 1.389 . S
C54 C53 1.443 . S
C54 C55 1.340 . S
C54 H94 0.951 . S
C55 C54 1.340 . S
C55 C56 1.439 . S
C55 H95 0.950 . S
C56 C55 1.439 . S
C56 N57 1.374 . S
C56 C90 1.395 . S
N57 C53 1.376 . S
N57 C56 1.374 . S
N57 Co58 2.008 . S
Co58 N57 2.008 . S
Co58 N59 1.995 . S
Co58 N64 2.008 . S
Co58 N69 1.995 . S
Co58 N74 2.282 . S
Co58 N80 2.282 . S
N59 Co58 1.995 . S
N59 C60 1.376 . S
N59 C63 1.383 . S
C60 N59 1.376 . S
C60 C61 1.446 . S
C60 C90 1.391 . S
C61 C60 1.446 . S
C61 C62 1.339 . S
C61 H96 0.949 . S
C62 C61 1.339 . S
C62 C63 1.439 . S
C62 H97 0.950 . S
C63 N59 1.383 . S
C63 C62 1.439 . S
C63 C92 1.392 . S
N64 Co58 2.008 . S
N64 C65 1.376 . S
N64 C68 1.374 . S
C65 N64 1.376 . S
C65 C66 1.443 . S
C65 C92 1.389 . S
C66 C65 1.443 . S
C66 C67 1.340 . S
C66 H98 0.951 . S
C67 C66 1.340 . S
C67 C68 1.439 . S
C67 H99 0.950 . S
C68 N64 1.374 . S
C68 C67 1.439 . S
C68 C93 1.395 . S
N69 Co58 1.995 . S
N69 C70 1.376 . S
N69 C73 1.383 . S
C70 N69 1.376 . S
C70 C71 1.446 1_565 S
C70 C93 1.391 . S
C71 C70 1.446 1_545 S
C71 C72 1.339 . S
C71 H100 0.949 . S
C72 C71 1.339 . S
C72 C73 1.439 1_545 S
C72 H101 0.950 . S
C73 N69 1.383 . S
C73 C72 1.439 1_565 S
C73 C91 1.392 . S
N74 Co58 2.282 . S
N74 C77 1.332 1_565 S
N74 C79 1.332 . S
C75 C76 1.386 . S
C75 C78 1.388 1_545 S
C76 C75 1.386 . S
C76 C77 1.382 . S
C76 H102 0.950 . S
C77 N74 1.332 1_545 S
C77 C76 1.382 . S
C77 H88 0.952 . S
C78 C75 1.388 1_565 S
C78 C79 1.382 . S
C78 H103 0.950 . S
C79 N74 1.332 . S
C79 C78 1.382 . S
C79 H89 0.948 . S
N80 Co58 2.282 . S
N80 C84 1.332 . S
N80 C85 1.332 . S
C81 C82 1.388 . S
C81 C85 1.382 . S
C81 H104 0.950 . S
C82 C81 1.388 . S
C82 C83 1.386 . S
C83 C82 1.386 . S
C83 C84 1.382 . S
C83 H105 0.950 . S
C84 N80 1.332 . S
C84 C83 1.382 . S
C84 H86 0.952 . S
C85 N80 1.332 . S
C85 C81 1.382 . S
C85 H87 0.948 . S
H86 C84 0.952 . S
H87 C85 0.948 . S
H88 C77 0.952 . S
H89 C79 0.948 . S
C90 C56 1.395 . S
C90 C60 1.391 . S
C91 C53 1.389 . S
C91 C73 1.392 . S
C92 C63 1.392 . S
C92 C65 1.389 . S
C93 C68 1.395 . S
C93 C70 1.391 . S
H94 C54 0.951 . S
H95 C55 0.950 . S
H96 C61 0.949 . S
H97 C62 0.950 . S
H98 C66 0.951 . S
H99 C67 0.950 . S
H100 C71 0.949 . S
H101 C72 0.950 . S
H102 C76 0.950 . S
H103 C78 0.950 . S
H104 C81 0.950 . S
H105 C83 0.950 . S
C106 C107 1.443 . S
C106 N110 1.376 . S
C106 C144 1.389 . S
C107 C106 1.443 . S
C107 C108 1.340 . S
C107 H147 0.951 . S
C108 C107 1.340 . S
C108 C109 1.439 . S
C108 H148 0.950 . S
C109 C108 1.439 . S
C109 N110 1.374 . S
C109 C143 1.395 . S
N110 C106 1.376 . S
N110 C109 1.374 . S
N110 Co111 2.008 . S
Co111 N110 2.008 . S
Co111 N112 1.995 . S
Co111 N117 2.008 1_655 S
Co111 N122 1.995 . S
Co111 N127 2.282 . S
Co111 N133 2.282 1_655 S
N112 Co111 1.995 . S
N112 C113 1.376 . S
N112 C116 1.383 1_655 S
C113 N112 1.376 . S
C113 C114 1.446 . S
C113 C143 1.391 . S
C114 C113 1.446 . S
C114 C115 1.339 . S
C114 H149 0.949 . S
C115 C114 1.339 . S
C115 C116 1.439 1_655 S
C115 H150 0.950 1_655 S
C116 N112 1.383 1_455 S
C116 C115 1.439 1_455 S
C116 C145 1.392 . S
N117 Co111 2.008 1_455 S
N117 C118 1.376 . S
N117 C121 1.374 . S
C118 N117 1.376 . S
C118 C119 1.443 . S
C118 C145 1.389 . S
C119 C118 1.443 . S
C119 C120 1.340 . S
C119 H151 0.951 . S
C120 C119 1.340 . S
C120 C121 1.439 . S
C120 H152 0.950 . S
C121 N117 1.374 . S
C121 C120 1.439 . S
C121 C146 1.395 . S
N122 Co111 1.995 . S
N122 C123 1.376 1_655 S
N122 C126 1.383 . S
C123 N122 1.376 1_455 S
C123 C124 1.446 1_455 S
C123 C146 1.391 . S
C124 C123 1.446 1_655 S
C124 C125 1.339 . S
C124 H153 0.949 1_655 S
C125 C124 1.339 . S
C125 C126 1.439 . S
C125 H154 0.950 . S
C126 N122 1.383 . S
C126 C125 1.439 . S
C126 C144 1.392 . S
N127 Co111 2.282 . S
N127 C130 1.332 . S
N127 C132 1.332 . S
C128 C129 1.386 . S
C128 C131 1.388 . S
C129 C128 1.386 . S
C129 C130 1.382 . S
C129 H155 0.950 . S
C130 N127 1.332 . S
C130 C129 1.382 . S
C130 H141 0.952 . S
C131 C128 1.388 . S
C131 C132 1.382 . S
C131 H156 0.950 . S
C132 N127 1.332 . S
C132 C131 1.382 . S
C132 H142 0.948 . S
N133 Co111 2.282 1_455 S
N133 C137 1.330 1_455 S
N133 C138 1.332 . S
C134 C135 1.388 . S
C134 C138 1.382 . S
C134 H157 0.950 . S
C135 C134 1.388 . S
C135 C136 1.386 . S
C136 C135 1.386 . S
C136 C137 1.375 1_455 S
C136 H158 0.950 . S
C137 N133 1.330 1_655 S
C137 C136 1.375 1_655 S
C137 H139 0.961 . S
C138 N133 1.332 . S
C138 C134 1.382 . S
C138 H140 0.948 . S
H139 C137 0.961 . S
H140 C138 0.948 . S
H141 C130 0.952 . S
H142 C132 0.948 . S
C143 C109 1.395 . S
C143 C113 1.391 . S
C144 C106 1.389 . S
C144 C126 1.392 . S
C145 C116 1.392 . S
C145 C118 1.389 . S
C146 C121 1.395 . S
C146 C123 1.391 . S
H147 C107 0.951 . S
H148 C108 0.950 . S
H149 C114 0.949 . S
H150 C115 0.950 1_455 S
H151 C119 0.951 . S
H152 C120 0.950 . S
H153 C124 0.949 1_455 S
H154 C125 0.950 . S
H155 C129 0.950 . S
H156 C131 0.950 . S
H157 C134 0.950 . S
H158 C136 0.950 . S
C159 C160 1.443 . S
C159 N163 1.376 . S
C159 C197 1.389 . S
C160 C159 1.443 . S
C160 C161 1.340 . S
C160 H200 0.951 . S
C161 C160 1.340 . S
C161 C162 1.439 . S
C161 H201 0.950 . S
C162 C161 1.439 . S
C162 N163 1.374 . S
C162 C196 1.395 . S
N163 C159 1.376 . S
N163 C162 1.374 . S
N163 Co164 2.008 . S
Co164 N163 2.008 . S
Co164 N165 1.995 . S
Co164 N170 2.008 . S
Co164 N175 1.995 . S
Co164 N180 2.282 . S
Co164 N186 2.282 . S
N165 Co164 1.995 . S
N165 C166 1.376 . S
N165 C169 1.383 . S
C166 N165 1.376 . S
C166 C167 1.446 . S
C166 C196 1.391 . S
C167 C166 1.446 . S
C167 C168 1.339 . S
C167 H202 0.949 . S
C168 C167 1.339 . S
C168 C169 1.439 . S
C168 H203 0.950 . S
C169 N165 1.383 . S
C169 C168 1.439 . S
C169 C198 1.392 . S
N170 Co164 2.008 . S
N170 C171 1.376 . S
N170 C174 1.374 . S
C171 N170 1.376 . S
C171 C172 1.443 . S
C171 C198 1.389 . S
C172 C171 1.443 . S
C172 C173 1.340 . S
C172 H204 0.951 . S
C173 C172 1.340 . S
C173 C174 1.439 . S
C173 H205 0.950 . S
C174 N170 1.374 . S
C174 C173 1.439 . S
C174 C199 1.395 . S
N175 Co164 1.995 . S
N175 C176 1.376 . S
N175 C179 1.383 . S
C176 N175 1.376 . S
C176 C177 1.446 1_545 S
C176 C199 1.391 . S
C177 C176 1.446 1_565 S
C177 C178 1.339 . S
C177 H206 0.949 . S
C178 C177 1.339 . S
C178 C179 1.439 1_565 S
C178 H207 0.950 . S
C179 N175 1.383 . S
C179 C178 1.439 1_545 S
C179 C197 1.392 . S
N180 Co164 2.282 . S
N180 C183 1.332 1_545 S
N180 C185 1.332 . S
C181 C182 1.386 . S
C181 C184 1.388 1_565 S
C182 C181 1.386 . S
C182 C183 1.382 . S
C182 H208 0.950 . S
C183 N180 1.332 1_565 S
C183 C182 1.382 . S
C183 H194 0.952 . S
C184 C181 1.388 1_545 S
C184 C185 1.382 . S
C184 H209 0.950 . S
C185 N180 1.332 . S
C185 C184 1.382 . S
C185 H195 0.948 . S
N186 Co164 2.282 . S
N186 C190 1.332 . S
N186 C191 1.332 . S
C187 C188 1.388 . S
C187 C191 1.382 . S
C187 H210 0.950 . S
C188 C187 1.388 . S
C188 C189 1.386 . S
C189 C188 1.386 . S
C189 C190 1.382 . S
C189 H211 0.950 . S
C190 N186 1.332 . S
C190 C189 1.382 . S
C190 H192 0.952 . S
C191 N186 1.332 . S
C191 C187 1.382 . S
C191 H193 0.948 . S
H192 C190 0.952 . S
H193 C191 0.948 . S
H194 C183 0.952 . S
H195 C185 0.948 . S
C196 C162 1.395 . S
C196 C166 1.391 . S
C197 C159 1.389 . S
C197 C179 1.392 . S
C198 C169 1.392 . S
C198 C171 1.389 . S
C199 C174 1.395 . S
C199 C176 1.391 . S
H200 C160 0.951 . S
H201 C161 0.950 . S
H202 C167 0.949 . S
H203 C168 0.950 . S
H204 C172 0.951 . S
H205 C173 0.950 . S
H206 C177 0.949 . S
H207 C178 0.950 . S
H208 C182 0.950 . S
H209 C184 0.950 . S
H210 C187 0.950 . S
H211 C189 0.950 . S
C212 C213 1.449 . S
C212 N216 1.376 . S
C212 C250 1.389 . S
C213 C212 1.449 . S
C213 C214 1.337 1_556 S
C213 H253 0.949 1_556 S
C214 C213 1.337 1_554 S
C214 C215 1.439 1_554 S
C214 H254 0.950 . S
C215 C214 1.439 1_556 S
C215 N216 1.374 . S
C215 C249 1.395 1_556 S
N216 C212 1.376 . S
N216 C215 1.374 . S
N216 Co217 2.008 . S
Co217 N216 2.008 . S
Co217 N218 1.995 . S
Co217 N223 2.008 . S
Co217 N228 1.995 . S
Co217 N233 2.282 . S
Co217 N239 2.282 . S
N218 Co217 1.995 . S
N218 C219 1.376 . S
N218 C222 1.383 . S
C219 N218 1.376 . S
C219 C220 1.446 . S
C219 C249 1.391 1_556 S
C220 C219 1.446 . S
C220 C221 1.339 . S
C220 H255 0.949 1_556 S
C221 C220 1.339 . S
C221 C222 1.439 . S
C221 H256 0.950 . S
C222 N218 1.383 . S
C222 C221 1.439 . S
C222 C251 1.392 . S
N223 Co217 2.008 . S
N223 C224 1.376 . S
N223 C227 1.374 . S
C224 N223 1.376 . S
C224 C225 1.443 . S
C224 C251 1.389 . S
C225 C224 1.443 . S
C225 C226 1.340 . S
C225 H257 0.951 . S
C226 C225 1.340 . S
C226 C227 1.439 . S
C226 H258 0.950 . S
C227 N223 1.374 . S
C227 C226 1.439 . S
C227 C252 1.395 . S
N228 Co217 1.995 . S
N228 C229 1.376 . S
N228 C232 1.383 . S
C229 N228 1.376 . S
C229 C230 1.446 . S
C229 C252 1.391 . S
C230 C229 1.446 . S
C230 C231 1.339 . S
C230 H259 0.949 . S
C231 C230 1.339 . S
C231 C232 1.439 . S
C231 H260 0.950 . S
C232 N228 1.383 . S
C232 C231 1.439 . S
C232 C250 1.392 . S
N233 Co217 2.282 . S
N233 C236 1.332 . S
N233 C238 1.332 . S
C234 C235 1.386 . S
C234 C237 1.388 . S
C235 C234 1.386 . S
C235 C236 1.382 . S
C235 H261 0.950 . S
C236 N233 1.332 . S
C236 C235 1.382 . S
C236 H247 0.952 . S
C237 C234 1.388 . S
C237 C238 1.382 . S
C237 H262 0.950 . S
C238 N233 1.332 . S
C238 C237 1.382 . S
C238 H248 0.948 . S
N239 Co217 2.282 . S
N239 C243 1.332 1_556 S
N239 C244 1.332 . S
C240 C241 1.388 1_556 S
C240 C244 1.382 . S
C240 H263 0.950 . S
C241 C240 1.388 1_554 S
C241 C242 1.386 . S
C242 C241 1.386 . S
C242 C243 1.382 . S
C242 H264 0.950 . S
C243 N239 1.332 1_554 S
C243 C242 1.382 . S
C243 H245 0.952 . S
C244 N239 1.332 . S
C244 C240 1.382 . S
C244 H246 0.948 . S
H245 C243 0.952 . S
H246 C244 0.948 . S
H247 C236 0.952 . S
H248 C238 0.948 . S
C249 C215 1.395 1_554 S
C249 C219 1.391 1_554 S
C250 C212 1.389 . S
C250 C232 1.392 . S
C251 C222 1.392 . S
C251 C224 1.389 . S
C252 C227 1.395 . S
C252 C229 1.391 . S
H253 C213 0.949 1_554 S
H254 C214 0.950 . S
H255 C220 0.949 1_554 S
H256 C221 0.950 . S
H257 C225 0.951 . S
H258 C226 0.950 . S
H259 C230 0.949 . S
H260 C231 0.950 . S
H261 C235 0.950 . S
H262 C237 0.950 . S
H263 C240 0.950 . S
H264 C242 0.950 . S
C265 C266 1.443 . S
C265 N269 1.376 . S
C265 C303 1.389 . S
C266 C265 1.443 . S
C266 C267 1.340 . S
C266 H306 0.951 . S
C267 C266 1.340 . S
C267 C268 1.439 . S
C267 H307 0.950 . S
C268 C267 1.439 . S
C268 N269 1.374 . S
C268 C302 1.395 . S
N269 C265 1.376 . S
N269 C268 1.374 . S
N269 Co270 2.008 . S
Co270 N269 2.008 . S
Co270 N271 1.995 . S
Co270 N276 2.008 . S
Co270 N281 1.995 . S
Co270 N286 2.282 . S
Co270 N292 2.282 . S
N271 Co270 1.995 . S
N271 C272 1.376 . S
N271 C275 1.383 . S
C272 N271 1.376 . S
C272 C273 1.446 . S
C272 C302 1.391 . S
C273 C272 1.446 . S
C273 C274 1.339 . S
C273 H308 0.949 . S
C274 C273 1.339 . S
C274 C275 1.439 . S
C274 H309 0.950 . S
C275 N271 1.383 . S
C275 C274 1.439 . S
C275 C304 1.392 . S
N276 Co270 2.008 . S
N276 C277 1.376 . S
N276 C280 1.374 . S
C277 N276 1.376 . S
C277 C278 1.443 . S
C277 C304 1.389 . S
C278 C277 1.443 . S
C278 C279 1.340 . S
C278 H310 0.951 . S
C279 C278 1.340 . S
C279 C280 1.439 . S
C279 H311 0.950 . S
C280 N276 1.374 . S
C280 C279 1.439 . S
C280 C305 1.395 . S
N281 Co270 1.995 . S
N281 C282 1.376 . S
N281 C285 1.383 . S
C282 N281 1.376 . S
C282 C283 1.446 . S
C282 C305 1.391 . S
C283 C282 1.446 . S
C283 C284 1.339 . S
C283 H312 0.929 1_554 S
C284 C283 1.339 . S
C284 C285 1.439 . S
C284 H313 0.950 . S
C285 N281 1.383 . S
C285 C284 1.439 . S
C285 C303 1.392 . S
N286 Co270 2.282 . S
N286 C289 1.332 . S
N286 C291 1.332 . S
C287 C288 1.386 . S
C287 C290 1.388 . S
C288 C287 1.386 . S
C288 C289 1.382 . S
C288 H314 0.950 . S
C289 N286 1.332 . S
C289 C288 1.382 . S
C289 H300 0.952 . S
C290 C287 1.388 . S
C290 C291 1.382 . S
C290 H315 0.950 . S
C291 N286 1.332 . S
C291 C290 1.382 . S
C291 H301 0.948 . S
N292 Co270 2.282 . S
N292 C296 1.332 . S
N292 C297 1.332 . S
C293 C294 1.388 1_556 S
C293 C297 1.382 1_556 S
C293 H316 0.950 . S
C294 C293 1.388 1_554 S
C294 C295 1.386 . S
C295 C294 1.386 . S
C295 C296 1.382 . S
C295 H317 0.950 . S
C296 N292 1.332 . S
C296 C295 1.382 . S
C296 H298 0.952 . S
C297 N292 1.332 . S
C297 C293 1.382 1_554 S
C297 H299 0.948 . S
H298 C296 0.952 . S
H299 C297 0.948 . S
H300 C289 0.952 . S
H301 C291 0.948 . S
C302 C268 1.395 . S
C302 C272 1.391 . S
C303 C265 1.389 . S
C303 C285 1.392 . S
C304 C275 1.392 . S
C304 C277 1.389 . S
C305 C280 1.395 . S
C305 C282 1.391 . S
H306 C266 0.951 . S
H307 C267 0.950 . S
H308 C273 0.949 . S
H309 C274 0.950 . S
H310 C278 0.951 . S
H311 C279 0.950 . S
H312 C283 0.929 1_556 S
H313 C284 0.950 . S
H314 C288 0.950 . S
H315 C290 0.950 . S
H316 C293 0.950 . S
H317 C295 0.950 . S
C318 C319 1.449 . S
C318 N322 1.376 . S
C318 C356 1.389 . S
C319 C318 1.449 . S
C319 C320 1.337 1_556 S
C319 H359 0.949 1_556 S
C320 C319 1.337 1_554 S
C320 C321 1.439 1_554 S
C320 H360 0.950 . S
C321 C320 1.439 1_556 S
C321 N322 1.374 . S
C321 C355 1.395 1_556 S
N322 C318 1.376 . S
N322 C321 1.374 . S
N322 Co323 2.008 . S
Co323 N322 2.008 . S
Co323 N324 1.995 . S
Co323 N329 2.008 . S
Co323 N334 1.995 . S
Co323 N339 2.282 . S
Co323 N345 2.282 . S
N324 Co323 1.995 . S
N324 C325 1.376 . S
N324 C328 1.383 . S
C325 N324 1.376 . S
C325 C326 1.446 . S
C325 C355 1.391 1_556 S
C326 C325 1.446 . S
C326 C327 1.339 . S
C326 H361 0.949 1_556 S
C327 C326 1.339 . S
C327 C328 1.439 . S
C327 H362 0.950 . S
C328 N324 1.383 . S
C328 C327 1.439 . S
C328 C357 1.392 . S
N329 Co323 2.008 . S
N329 C330 1.376 . S
N329 C333 1.374 . S
C330 N329 1.376 . S
C330 C331 1.443 . S
C330 C357 1.389 . S
C331 C330 1.443 . S
C331 C332 1.340 . S
C331 H363 0.951 . S
C332 C331 1.340 . S
C332 C333 1.439 . S
C332 H364 0.950 . S
C333 N329 1.374 . S
C333 C332 1.439 . S
C333 C358 1.395 . S
N334 Co323 1.995 . S
N334 C335 1.376 . S
N334 C338 1.383 . S
C335 N334 1.376 . S
C335 C336 1.446 . S
C335 C358 1.391 . S
C336 C335 1.446 . S
C336 C337 1.339 . S
C336 H365 0.949 . S
C337 C336 1.339 . S
C337 C338 1.439 . S
C337 H366 0.950 . S
C338 N334 1.383 . S
C338 C337 1.439 . S
C338 C356 1.392 . S
N339 Co323 2.282 . S
N339 C342 1.332 . S
N339 C344 1.332 . S
C340 C341 1.386 . S
C340 C343 1.388 . S
C341 C340 1.386 . S
C341 C342 1.382 . S
C341 H367 0.950 . S
C342 N339 1.332 . S
C342 C341 1.382 . S
C342 H353 0.952 . S
C343 C340 1.388 . S
C343 C344 1.382 . S
C343 H368 0.950 . S
C344 N339 1.332 . S
C344 C343 1.382 . S
C344 H354 0.948 . S
N345 Co323 2.282 . S
N345 C349 1.332 1_556 S
N345 C350 1.332 . S
C346 C347 1.388 1_556 S
C346 C350 1.382 . S
C346 H369 0.950 . S
C347 C346 1.388 1_554 S
C347 C348 1.386 . S
C348 C347 1.386 . S
C348 C349 1.382 . S
C348 H370 0.950 . S
C349 N345 1.332 1_554 S
C349 C348 1.382 . S
C349 H351 0.952 . S
C350 N345 1.332 . S
C350 C346 1.382 . S
C350 H352 0.948 . S
H351 C349 0.952 . S
H352 C350 0.948 . S
H353 C342 0.952 . S
H354 C344 0.948 . S
C355 C321 1.395 1_554 S
C355 C325 1.391 1_554 S
C356 C318 1.389 . S
C356 C338 1.392 . S
C357 C328 1.392 . S
C357 C330 1.389 . S
C358 C333 1.395 . S
C358 C335 1.391 . S
H359 C319 0.949 1_554 S
H360 C320 0.950 . S
H361 C326 0.949 1_554 S
H362 C327 0.950 . S
H363 C331 0.951 . S
H364 C332 0.950 . S
H365 C336 0.949 . S
H366 C337 0.950 . S
H367 C341 0.950 . S
H368 C343 0.950 . S
H369 C346 0.950 . S
H370 C348 0.950 . S
C371 C372 1.443 . S
C371 N375 1.376 . S
C371 C409 1.389 . S
C372 C371 1.443 . S
C372 C373 1.340 . S
C372 H412 0.951 . S
C373 C372 1.340 . S
C373 C374 1.439 . S
C373 H413 0.950 . S
C374 C373 1.439 . S
C374 N375 1.374 . S
C374 C408 1.395 . S
N375 C371 1.376 . S
N375 C374 1.374 . S
N375 Co376 2.008 . S
Co376 N375 2.008 . S
Co376 N377 1.995 . S
Co376 N382 2.008 . S
Co376 N387 1.995 . S
Co376 N392 2.282 . S
Co376 N398 2.282 . S
N377 Co376 1.995 . S
N377 C378 1.376 . S
N377 C381 1.383 . S
C378 N377 1.376 . S
C378 C379 1.446 . S
C378 C408 1.391 . S
C379 C378 1.446 . S
C379 C380 1.339 . S
C379 H414 0.949 . S
C380 C379 1.339 . S
C380 C381 1.439 . S
C380 H415 0.950 . S
C381 N377 1.383 . S
C381 C380 1.439 . S
C381 C410 1.392 . S
N382 Co376 2.008 . S
N382 C383 1.376 . S
N382 C386 1.374 . S
C383 N382 1.376 . S
C383 C384 1.443 . S
C383 C410 1.389 . S
C384 C383 1.443 . S
C384 C385 1.340 . S
C384 H416 0.951 . S
C385 C384 1.340 . S
C385 C386 1.439 . S
C385 H417 0.950 . S
C386 N382 1.374 . S
C386 C385 1.439 . S
C386 C411 1.395 . S
N387 Co376 1.995 . S
N387 C388 1.376 . S
N387 C391 1.383 . S
C388 N387 1.376 . S
C388 C389 1.446 . S
C388 C411 1.391 . S
C389 C388 1.446 . S
C389 C390 1.339 . S
C389 H418 0.929 1_554 S
C390 C389 1.339 . S
C390 C391 1.439 . S
C390 H419 0.950 . S
C391 N387 1.383 . S
C391 C390 1.439 . S
C391 C409 1.392 . S
N392 Co376 2.282 . S
N392 C395 1.332 . S
N392 C397 1.332 . S
C393 C394 1.386 . S
C393 C396 1.388 . S
C394 C393 1.386 . S
C394 C395 1.382 . S
C394 H420 0.950 . S
C395 N392 1.332 . S
C395 C394 1.382 . S
C395 H406 0.952 . S
C396 C393 1.388 . S
C396 C397 1.382 . S
C396 H421 0.950 . S
C397 N392 1.332 . S
C397 C396 1.382 . S
C397 H407 0.948 . S
N398 Co376 2.282 . S
N398 C402 1.332 . S
N398 C403 1.332 . S
C399 C400 1.388 1_556 S
C399 C403 1.382 1_556 S
C399 H422 0.950 . S
C400 C399 1.388 1_554 S
C400 C401 1.386 . S
C401 C400 1.386 . S
C401 C402 1.382 . S
C401 H423 0.950 . S
C402 N398 1.332 . S
C402 C401 1.382 . S
C402 H404 0.952 . S
C403 N398 1.332 . S
C403 C399 1.382 1_554 S
C403 H405 0.948 . S
H404 C402 0.952 . S
H405 C403 0.948 . S
H406 C395 0.952 . S
H407 C397 0.948 . S
C408 C374 1.395 . S
C408 C378 1.391 . S
C409 C371 1.389 . S
C409 C391 1.392 . S
C410 C381 1.392 . S
C410 C383 1.389 . S
C411 C386 1.395 . S
C411 C388 1.391 . S
H412 C372 0.951 . S
H413 C373 0.950 . S
H414 C379 0.949 . S
H415 C380 0.950 . S
H416 C384 0.951 . S
H417 C385 0.950 . S
H418 C389 0.929 1_556 S
H419 C390 0.950 . S
H420 C394 0.950 . S
H421 C396 0.950 . S
H422 C399 0.950 . S
H423 C401 0.950 . S
C424 C425 1.387 . S
C424 H428 0.950 . S
C424 C433 1.390 . S
C425 C424 1.387 . S
C425 C427 1.387 . S
H426 C433 0.950 . S
C427 C425 1.387 . S
C427 C429 1.390 . S
C427 H431 0.950 . S
H428 C424 0.950 . S
C429 C427 1.390 . S
C429 C430 1.387 . S
C429 H432 0.950 . S
C430 C429 1.387 . S
C430 C433 1.387 . S
H431 C427 0.950 . S
H432 C429 0.950 . S
C433 C424 1.390 . S
C433 H426 0.950 . S
C433 C430 1.387 . S
C434 C435 1.387 . S
C434 H438 0.950 . S
C434 C443 1.390 . S
C435 C434 1.387 . S
C435 C437 1.387 . S
H436 C443 0.950 . S
C437 C435 1.387 . S
C437 C439 1.390 . S
C437 H441 0.950 . S
H438 C434 0.950 . S
C439 C437 1.390 . S
C439 C440 1.387 . S
C439 H442 0.950 . S
C440 C439 1.387 . S
C440 C443 1.387 . S
H441 C437 0.950 . S
H442 C439 0.950 . S
C443 C434 1.390 . S
C443 H436 0.950 . S
C443 C440 1.387 . S
C444 C445 1.387 . S
C444 H448 0.950 . S
C444 C453 1.390 . S
C445 C444 1.387 . S
C445 C447 1.387 . S
H446 C453 0.950 . S
C447 C445 1.387 . S
C447 C449 1.390 . S
C447 H451 0.950 . S
H448 C444 0.950 . S
C449 C447 1.390 . S
C449 C450 1.387 . S
C449 H452 0.950 . S
C450 C449 1.387 . S
C450 C453 1.387 . S
H451 C447 0.950 . S
H452 C449 0.950 . S
C453 C444 1.390 . S
C453 H446 0.950 . S
C453 C450 1.387 . S
C454 C455 1.387 . S
C454 H458 0.950 . S
C454 C463 1.390 . S
C455 C454 1.387 . S
C455 C457 1.387 . S
H456 C463 0.950 . S
C457 C455 1.387 . S
C457 C459 1.390 . S
C457 H461 0.950 . S
H458 C454 0.950 . S
C459 C457 1.390 . S
C459 C460 1.387 . S
C459 H462 0.950 . S
C460 C459 1.387 . S
C460 C463 1.387 . S
H461 C457 0.950 . S
H462 C459 0.950 . S
C463 C454 1.390 . S
C463 H456 0.950 . S
C463 C460 1.387 . S
C464 C465 1.387 . S
C464 H468 0.950 . S
C464 C473 1.390 . S
C465 C464 1.387 . S
C465 C467 1.387 . S
H466 C473 0.950 . S
C467 C465 1.387 . S
C467 C469 1.390 . S
C467 H471 0.950 . S
H468 C464 0.950 . S
C469 C467 1.390 . S
C469 C470 1.387 . S
C469 H472 0.950 . S
C470 C469 1.387 . S
C470 C473 1.387 . S
H471 C467 0.950 . S
H472 C469 0.950 . S
C473 C464 1.390 . S
C473 H466 0.950 . S
C473 C470 1.387 . S
C474 C475 1.387 . S
C474 H478 0.950 . S
C474 C483 1.390 . S
C475 C474 1.387 . S
C475 C477 1.387 . S
H476 C483 0.950 . S
C477 C475 1.387 . S
C477 C479 1.390 . S
C477 H481 0.950 . S
H478 C474 0.950 . S
C479 C477 1.390 . S
C479 C480 1.387 . S
C479 H482 0.950 . S
C480 C479 1.387 . S
C480 C483 1.387 . S
H481 C477 0.950 . S
H482 C479 0.950 . S
C483 C474 1.390 . S
C483 H476 0.950 . S
C483 C480 1.387 . S
C484 C485 1.387 . S
C484 H488 0.950 . S
C484 C493 1.390 . S
C485 C484 1.387 . S
C485 C487 1.387 . S
H486 C493 0.950 . S
C487 C485 1.387 . S
C487 C489 1.390 . S
C487 H491 0.950 . S
H488 C484 0.950 . S
C489 C487 1.390 . S
C489 C490 1.387 . S
C489 H492 0.950 . S
C490 C489 1.387 . S
C490 C493 1.387 . S
H491 C487 0.950 . S
H492 C489 0.950 . S
C493 C484 1.390 . S
C493 H486 0.950 . S
C493 C490 1.387 . S
C494 C495 1.387 . S
C494 H498 0.950 . S
C494 C503 1.390 . S
C495 C494 1.387 . S
C495 C497 1.387 . S
H496 C503 0.950 . S
C497 C495 1.387 . S
C497 C499 1.390 . S
C497 H501 0.950 . S
H498 C494 0.950 . S
C499 C497 1.390 . S
C499 C500 1.387 . S
C499 H502 0.950 . S
C500 C499 1.387 . S
C500 C503 1.387 . S
H501 C497 0.950 . S
H502 C499 0.950 . S
C503 C494 1.390 . S
C503 H496 0.950 . S
C503 C500 1.387 . S
C504 C505 1.387 1_554 S
C504 H508 0.950 . S
C504 C513 1.390 1_554 S
C505 C504 1.387 1_556 S
C505 C507 1.387 . S
H506 C513 0.950 1_554 S
C507 C505 1.387 . S
C507 C509 1.390 . S
C507 H511 0.950 . S
H508 C504 0.950 . S
C509 C507 1.390 . S
C509 C510 1.387 . S
C509 H512 0.950 . S
C510 C509 1.387 . S
C510 C513 1.387 . S
H511 C507 0.950 . S
H512 C509 0.950 . S
C513 C504 1.390 1_556 S
C513 H506 0.950 1_556 S
C513 C510 1.387 . S
C514 C515 1.387 . S
C514 H518 0.950 . S
C514 C523 1.390 . S
C515 C514 1.387 . S
C515 C517 1.387 . S
H516 C523 0.950 1_556 S
C517 C515 1.387 . S
C517 C519 1.390 . S
C517 H521 0.950 . S
H518 C514 0.950 . S
C519 C517 1.390 . S
C519 C520 1.387 . S
C519 H522 0.950 . S
C520 C519 1.387 . S
C520 C523 1.387 . S
H521 C517 0.950 . S
H522 C519 0.950 . S
C523 C514 1.390 . S
C523 H516 0.950 1_554 S
C523 C520 1.387 . S
C524 C525 1.387 1_554 S
C524 H528 0.950 . S
C524 C533 1.390 1_554 S
C525 C524 1.387 1_556 S
C525 C527 1.387 . S
H526 C533 0.950 1_554 S
C527 C525 1.387 . S
C527 C529 1.390 . S
C527 H531 0.950 . S
H528 C524 0.950 . S
C529 C527 1.390 . S
C529 C530 1.387 . S
C529 H532 0.950 . S
C530 C529 1.387 . S
C530 C533 1.387 . S
H531 C527 0.950 . S
H532 C529 0.950 . S
C533 C524 1.390 1_556 S
C533 H526 0.950 1_556 S
C533 C530 1.387 . S
C534 C535 1.387 . S
C534 H538 0.950 . S
C534 C543 1.390 . S
C535 C534 1.387 . S
C535 C537 1.387 . S
H536 C543 0.950 . S
C537 C535 1.387 . S
C537 C539 1.390 . S
C537 H541 0.950 1_554 S
H538 C534 0.950 . S
C539 C537 1.390 . S
C539 C540 1.387 . S
C539 H542 0.950 . S
C540 C539 1.387 . S
C540 C543 1.387 . S
H541 C537 0.950 1_556 S
H542 C539 0.950 . S
C543 C534 1.390 . S
C543 H536 0.950 . S
C543 C540 1.387 . S
C544 C545 1.387 . S
C544 H548 0.950 . S
C544 C553 1.390 1_455 S
C545 C544 1.387 . S
C545 C547 1.387 . S
H546 C553 0.950 . S
C547 C545 1.387 . S
C547 C549 1.390 1_455 S
C547 H551 0.950 . S
H548 C544 0.950 . S
C549 C547 1.390 1_655 S
C549 C550 1.387 . S
C549 H552 0.950 . S
C550 C549 1.387 . S
C550 C553 1.387 . S
H551 C547 0.950 . S
H552 C549 0.950 . S
C553 C544 1.390 1_655 S
C553 H546 0.950 . S
C553 C550 1.387 . S
C554 C555 1.387 . S
C554 H558 0.950 . S
C554 C563 1.390 1_545 S
C555 C554 1.387 . S
C555 C557 1.387 . S
H556 C563 0.950 . S
C557 C555 1.387 . S
C557 C559 1.390 1_545 S
C557 H561 0.950 . S
H558 C554 0.950 . S
C559 C557 1.390 1_565 S
C559 C560 1.387 . S
C559 H562 0.950 . S
C560 C559 1.387 . S
C560 C563 1.387 . S
H561 C557 0.950 . S
H562 C559 0.950 . S
C563 C554 1.390 1_565 S
C563 H556 0.950 . S
C563 C560 1.387 . S
C564 C565 1.387 . S
C564 H568 0.950 . S
C564 C573 1.390 1_545 S
C565 C564 1.387 . S
C565 C567 1.387 . S
H566 C573 0.950 . S
C567 C565 1.387 . S
C567 C569 1.390 1_545 S
C567 H571 0.950 . S
H568 C564 0.950 . S
C569 C567 1.390 1_565 S
C569 C570 1.387 . S
C569 H572 0.950 . S
C570 C569 1.387 . S
C570 C573 1.387 . S
H571 C567 0.950 . S
H572 C569 0.950 . S
C573 C564 1.390 1_565 S
C573 H566 0.950 . S
C573 C570 1.387 . S
C574 C575 1.387 . S
C574 H578 0.950 . S
C574 C583 1.390 1_455 S
C575 C574 1.387 . S
C575 C577 1.387 . S
H576 C583 0.950 . S
C577 C575 1.387 . S
C577 C579 1.390 1_455 S
C577 H581 0.950 . S
H578 C574 0.950 . S
C579 C577 1.390 1_655 S
C579 C580 1.387 . S
C579 H582 0.950 . S
C580 C579 1.387 . S
C580 C583 1.387 . S
H581 C577 0.950 . S
H582 C579 0.950 . S
C583 C574 1.390 1_655 S
C583 H576 0.950 . S
C583 C580 1.387 . S
C425 C393 1.848 . S
C430 C38 1.882 . S
C435 C82 2.135 . S
C440 C234 2.163 . S
C445 C144 1.880 . S
C450 C287 1.845 . S
C455 C340 2.163 . S
C460 C188 2.135 . S
C465 C75 1.858 . S
C470 C22 1.832 . S
C475 C92 1.767 . S
C480 C145 1.791 . S
C485 C181 1.858 . S
C490 C128 1.832 . S
C495 C198 1.768 . S
C500 C39 1.791 . S
C505 C400 1.925 1_556 S
C510 C250 1.923 . S
C515 C303 2.066 . S
C520 C241 2.025 . S
C525 C294 1.925 1_556 S
C530 C356 1.923 . S
C535 C347 2.026 . S
C540 C409 2.067 . S
C545 C135 1.950 . S
C550 C29 1.950 . S
C555 C197 2.052 . S
C560 C91 2.052 . S
C565 C357 2.505 . S
C570 C251 2.505 . S
C575 C410 2.044 . S
C580 C304 2.044 . S
