# Generated by pormake.
# Topology wlj, (5)-cn, num edge types: 1
# Building blocks:
#     Node 0, Type 0, BuildingBlock: XOMCOT_clean_sbu_0, # of connection points: 5
#     Node 1, Type 0, BuildingBlock: XOMCOT_clean_sbu_0, # of connection points: 5
#     Node 2, Type 0, BuildingBlock: XOMCOT_clean_sbu_0, # of connection points: 5
#     Node 3, Type 0, BuildingBlock: XOMCOT_clean_sbu_0, # of connection points: 5
#     Node 4, Type 0, BuildingBlock: XOMCOT_clean_sbu_0, # of connection points: 5
#     Node 5, Type 0, BuildingBlock: XOMCOT_clean_sbu_0, # of connection points: 5
#     Edge 6, Type (0, 0), BuildingBlock: ZUJKAS_clean_linker_0, # of connection points: 2
#     Edge 7, Type (0, 0), BuildingBlock: ZUJKAS_clean_linker_0, # of connection points: 2
#     Edge 8, Type (0, 0), BuildingBlock: ZUJKAS_clean_linker_0, # of connection points: 2
#     Edge 9, Type (0, 0), BuildingBlock: ZUJKAS_clean_linker_0, # of connection points: 2
#     Edge 10, Type (0, 0), BuildingBlock: ZUJKAS_clean_linker_0, # of connection points: 2
#     Edge 11, Type (0, 0), BuildingBlock: ZUJKAS_clean_linker_0, # of connection points: 2
#     Edge 12, Type (0, 0), BuildingBlock: ZUJKAS_clean_linker_0, # of connection points: 2
#     Edge 13, Type (0, 0), BuildingBlock: ZUJKAS_clean_linker_0, # of connection points: 2
#     Edge 14, Type (0, 0), BuildingBlock: ZUJKAS_clean_linker_0, # of connection points: 2
#     Edge 15, Type (0, 0), BuildingBlock: ZUJKAS_clean_linker_0, # of connection points: 2
#     Edge 16, Type (0, 0), BuildingBlock: ZUJKAS_clean_linker_0, # of connection points: 2
#     Edge 17, Type (0, 0), BuildingBlock: ZUJKAS_clean_linker_0, # of connection points: 2
#     Edge 18, Type (0, 0), BuildingBlock: ZUJKAS_clean_linker_0, # of connection points: 2
#     Edge 19, Type (0, 0), BuildingBlock: ZUJKAS_clean_linker_0, # of connection points: 2
#     Edge 20, Type (0, 0), BuildingBlock: ZUJKAS_clean_linker_0, # of connection points: 2
# Relax obj value: 0.141
# Max RMSD: 0.206
# Mean RMSD: 0.206
data_MOF--net-wlj--node1-XOMCOT_clean_sbu_0--edge1-ZUJKAS_clean_linker_0
_symmetry_space_group_name_H-M    P1
_symmetry_Int_Tables_number       1
_symmetry_cell_setting            triclinic
loop_
_symmetry_equiv_pos_as_xyz
'x, y, z'
_cell_length_a     32.294037
_cell_length_b     32.380186
_cell_length_c     69.406228
_cell_angle_alpha  89.909576
_cell_angle_beta   89.977493
_cell_angle_gamma 119.95379
loop_
_atom_site_label
_atom_site_type_symbol
_atom_site_fract_x
_atom_site_fract_y
_atom_site_fract_z
_atom_type_partial_charge
Co0 Co 0.55209 0.29945 0.25453 0.0
C1 C 0.53473 0.36713 0.23015 0.0
C2 C 0.4753 0.29591 0.23153 0.0
C3 C 0.46215 0.32279 0.22066 0.0
N4 N 0.52135 0.32298 0.23699 0.0
N5 N 0.49945 0.36749 0.21979 0.0
H6 H 0.56842 0.39871 0.23303 0.0
H7 H 0.45225 0.25908 0.23563 0.0
C8 C 0.51816 0.23203 0.22185 0.0
O9 O 0.53892 0.27039 0.21095 0.0
N10 N 0.58 0.27457 0.27247 0.0
C11 C 0.62058 0.29986 0.28261 0.0
C12 C 0.62747 0.26891 0.29401 0.0
C13 C 0.56284 0.22869 0.27769 0.0
N14 N 0.59124 0.22423 0.29084 0.0
C15 C 0.63811 0.37073 0.236 0.0
C16 C 0.66647 0.30915 0.22164 0.0
C17 C 0.69436 0.35792 0.21753 0.0
C18 C 0.68007 0.38891 0.22518 0.0
C19 C 0.62475 0.29252 0.23257 0.0
N20 N 0.60946 0.32286 0.23866 0.0
H21 H 0.62981 0.3955 0.24285 0.0
H22 H 0.6049 0.2551 0.23621 0.0
H23 H 0.64354 0.33811 0.28176 0.0
H24 H 0.52989 0.19928 0.27226 0.0
O25 O 0.57261 0.35482 0.27045 0.0
O26 O 0.50265 0.28849 0.27326 0.0
O27 O 0.51988 0.23628 0.24025 0.0
C28 C 0.53148 0.33199 0.27904 0.0
H29 H 0.42717 0.31089 0.21452 0.0
H30 H 0.65714 0.27845 0.3037 0.0
H31 H 0.67658 0.28391 0.21644 0.0
H32 H 0.70183 0.42713 0.22331 0.0
Co33 Co 0.71979 0.25494 0.92117 0.0
C34 C 0.65755 0.17282 0.89629 0.0
C35 C 0.73098 0.19005 0.89528 0.0
C36 C 0.70459 0.151 0.8838 0.0
N37 N 0.70157 0.20387 0.90296 0.0
N38 N 0.65847 0.14012 0.88448 0.0
H39 H 0.62562 0.17387 0.90015 0.0
H40 H 0.76877 0.20627 0.89825 0.0
C41 C 0.81265 0.33344 0.90536 0.0
O42 O 0.79884 0.36411 0.90988 0.0
N43 N 0.73965 0.30602 0.93996 0.0
C44 C 0.71512 0.3256 0.94773 0.0
C45 C 0.74432 0.36074 0.96047 0.0
C46 C 0.78273 0.32839 0.94874 0.0
N47 N 0.78703 0.36278 0.96095 0.0
C48 C 0.65366 0.28348 0.90827 0.0
C49 C 0.69293 0.31671 0.8723 0.0
C50 C 0.65175 0.31806 0.87763 0.0
C51 C 0.63198 0.30075 0.89582 0.0
C52 C 0.71328 0.29852 0.88521 0.0
N53 N 0.69508 0.28442 0.90339 0.0
H54 H 0.63584 0.26788 0.92167 0.0
H55 H 0.74261 0.29437 0.8802 0.0
H56 H 0.67857 0.31544 0.94475 0.0
H57 H 0.81061 0.31983 0.94608 0.0
O58 O 0.66197 0.21624 0.93545 0.0
O59 O 0.72999 0.21712 0.94055 0.0
O60 O 0.7856 0.28904 0.90894 0.0
C61 C 0.68498 0.19953 0.94494 0.0
H62 H 0.71805 0.13099 0.87617 0.0
H63 H 0.73501 0.38363 0.96846 0.0
H64 H 0.70829 0.32807 0.85807 0.0
H65 H 0.59969 0.30028 0.90044 0.0
Co66 Co 0.76614 0.46434 0.58618 0.0
C67 C 0.85427 0.48716 0.564 0.0
C68 C 0.81803 0.52152 0.55203 0.0
C69 C 0.85968 0.53625 0.54195 0.0
N70 N 0.81433 0.49058 0.56589 0.0
N71 N 0.88269 0.51495 0.54955 0.0
H72 H 0.86311 0.46581 0.57326 0.0
H73 H 0.79327 0.53421 0.54962 0.0
C74 C 0.68756 0.47703 0.56968 0.0
O75 O 0.65768 0.43265 0.57464 0.0
N76 N 0.71882 0.44006 0.60701 0.0
C77 C 0.70854 0.40401 0.61944 0.0
C78 C 0.67507 0.40082 0.63254 0.0
C79 C 0.69348 0.46008 0.61371 0.0
N80 N 0.66536 0.43594 0.62885 0.0
C81 C 0.72311 0.36443 0.57814 0.0
C82 C 0.69506 0.36702 0.54079 0.0
C83 C 0.68556 0.32313 0.54859 0.0
C84 C 0.70002 0.32239 0.56755 0.0
C85 C 0.71822 0.40842 0.552 0.0
N86 N 0.73021 0.40656 0.57078 0.0
H87 H 0.73701 0.36301 0.59199 0.0
H88 H 0.72705 0.44202 0.54539 0.0
H89 H 0.72575 0.38284 0.61993 0.0
H90 H 0.69572 0.49196 0.60773 0.0
O91 O 0.80458 0.44474 0.60024 0.0
O92 O 0.81002 0.51536 0.60321 0.0
O93 O 0.73198 0.49585 0.57381 0.0
C94 C 0.82555 0.48655 0.60817 0.0
H95 H 0.87314 0.56262 0.53055 0.0
H96 H 0.66038 0.37564 0.64434 0.0
H97 H 0.68605 0.36967 0.52599 0.0
H98 H 0.69415 0.2896 0.57419 0.0
Co99 Co 0.30875 0.55445 0.7598 0.0
C100 C 0.36255 0.51214 0.779 0.0
C101 C 0.32164 0.52826 0.7988 0.0
C102 C 0.34544 0.51015 0.80902 0.0
N103 N 0.33218 0.52951 0.77995 0.0
N104 N 0.37117 0.49993 0.79658 0.0
H105 H 0.37814 0.50837 0.76583 0.0
H106 H 0.2991 0.54089 0.80481 0.0
C107 C 0.20373 0.51804 0.7713 0.0
O108 O 0.19759 0.54294 0.75787 0.0
N109 N 0.2863 0.58001 0.73957 0.0
C110 C 0.30527 0.62642 0.73492 0.0
C111 C 0.27941 0.63042 0.72004 0.0
C112 C 0.25103 0.55624 0.72659 0.0
N113 N 0.24476 0.58633 0.71499 0.0
C114 C 0.37674 0.63717 0.77966 0.0
C115 C 0.31656 0.67047 0.79093 0.0
C116 C 0.36541 0.69764 0.79518 0.0
C117 C 0.39548 0.68012 0.78963 0.0
C118 C 0.29923 0.6276 0.78085 0.0
N119 N 0.32932 0.61164 0.7752 0.0
H120 H 0.40051 0.6244 0.77535 0.0
H121 H 0.26211 0.60865 0.77702 0.0
H122 H 0.3353 0.65564 0.74209 0.0
H123 H 0.22875 0.51782 0.72642 0.0
O124 O 0.36631 0.57588 0.74499 0.0
O125 O 0.30203 0.50432 0.74239 0.0
O126 O 0.24413 0.5201 0.77348 0.0
C127 C 0.34538 0.53448 0.73665 0.0
H128 H 0.34479 0.50617 0.82452 0.0
H129 H 0.28429 0.6635 0.71411 0.0
H130 H 0.2922 0.683 0.79475 0.0
H131 H 0.43331 0.69952 0.7929 0.0
Co132 Co 0.47282 0.75842 0.42585 0.0
C133 C 0.49733 0.8449 0.44887 0.0
C134 C 0.55 0.82315 0.45132 0.0
C135 C 0.56654 0.86574 0.46076 0.0
N136 N 0.50666 0.81003 0.44388 0.0
N137 N 0.53366 0.87961 0.45909 0.0
H138 H 0.46614 0.84633 0.44413 0.0
H139 H 0.56954 0.80447 0.4492 0.0
C140 C 0.48336 0.68027 0.44379 0.0
O141 O 0.43754 0.65201 0.44047 0.0
N142 N 0.44116 0.70723 0.40697 0.0
C143 C 0.40374 0.69731 0.39537 0.0
C144 C 0.39693 0.66171 0.38274 0.0
C145 C 0.45813 0.67928 0.40026 0.0
N146 N 0.43106 0.65014 0.38591 0.0
C147 C 0.37509 0.71958 0.43785 0.0
C148 C 0.38719 0.70058 0.47561 0.0
C149 C 0.34106 0.68713 0.46909 0.0
C150 C 0.33555 0.69786 0.45005 0.0
C151 C 0.42587 0.72202 0.4628 0.0
N152 N 0.41911 0.72884 0.44384 0.0
H153 H 0.37025 0.73018 0.42377 0.0
H154 H 0.46128 0.73286 0.46813 0.0
H155 H 0.3842 0.71627 0.39504 0.0
H156 H 0.49104 0.68173 0.40516 0.0
O157 O 0.45311 0.79685 0.41181 0.0
O158 O 0.52023 0.79598 0.40628 0.0
O159 O 0.50392 0.72376 0.43818 0.0
C160 C 0.49259 0.81346 0.40209 0.0
H161 H 0.60087 0.88575 0.4678 0.0
H162 H 0.36945 0.64632 0.37182 0.0
H163 H 0.39328 0.69413 0.49037 0.0
H164 H 0.30102 0.69053 0.4447 0.0
Co165 Co 0.25911 0.71243 0.09209 0.0
C166 C 0.16937 0.64403 0.11365 0.0
C167 C 0.18633 0.71685 0.11515 0.0
C168 C 0.14251 0.68918 0.12351 0.0
N169 N 0.20421 0.68905 0.10936 0.0
N170 N 0.13177 0.64342 0.12251 0.0
H171 H 0.16895 0.61211 0.10894 0.0
H172 H 0.20268 0.75468 0.1124 0.0
C173 C 0.29354 0.77947 0.12484 0.0
O174 O 0.27556 0.74093 0.13563 0.0
N175 N 0.31234 0.73716 0.07433 0.0
C176 C 0.32774 0.71186 0.06428 0.0
C177 C 0.36575 0.74278 0.05292 0.0
C178 C 0.34113 0.78302 0.06907 0.0
N179 N 0.37417 0.78746 0.05601 0.0
C180 C 0.27157 0.64092 0.11167 0.0
C181 C 0.36417 0.70107 0.12385 0.0
C182 C 0.34259 0.65237 0.1282 0.0
C183 C 0.29564 0.62221 0.12192 0.0
C184 C 0.33874 0.7183 0.11355 0.0
N185 N 0.2923 0.68863 0.10818 0.0
H186 H 0.23707 0.61652 0.10583 0.0
H187 H 0.35689 0.75552 0.10954 0.0
H188 H 0.3124 0.67361 0.06515 0.0
H189 H 0.33748 0.81243 0.07441 0.0
O190 O 0.22451 0.65717 0.07614 0.0
O191 O 0.22127 0.72362 0.07314 0.0
O192 O 0.2904 0.77548 0.10644 0.0
C193 C 0.20649 0.68004 0.06742 0.0
H194 H 0.1195 0.70161 0.12924 0.0
H195 H 0.38598 0.73324 0.04328 0.0
H196 H 0.40094 0.72547 0.12779 0.0
H197 H 0.27768 0.58421 0.12467 0.0
H198 H 0.50521 0.2137 0.18343 0.0
H199 H 0.46588 0.13665 0.16743 0.0
H200 H 0.43566 0.06562 0.22252 0.0
H201 H 0.47577 0.14327 0.23886 0.0
H202 H 0.47505 0.03066 0.19465 0.0
H203 H 0.32197 0.04228 0.16464 0.0
H204 H 0.37922 0.09301 0.15921 0.0
H205 H 0.35904 0.08054 0.1838 0.0
C206 C 0.4901 0.18182 0.19225 0.0
C207 C 0.49348 0.18469 0.21247 0.0
C208 C 0.46731 0.13774 0.18303 0.0
C209 C 0.44712 0.09547 0.19379 0.0
C210 C 0.45071 0.09795 0.21398 0.0
H211 H 0.30408 0.79734 0.16333 0.0
H212 H 0.34229 0.87421 0.17949 0.0
C213 C 0.47354 0.14226 0.22328 0.0
C214 C 0.42384 0.0489 0.18375 0.0
H215 H 0.33389 0.98034 0.15242 0.0
C216 C 0.44397 0.01943 0.18554 0.0
C217 C 0.38354 0.03462 0.17173 0.0
C218 C 0.35935 0.06403 0.16983 0.0
C219 C 0.42536 0.97637 0.17536 0.0
C220 C 0.38512 0.96212 0.16333 0.0
C221 C 0.36495 0.99156 0.16155 0.0
C222 C 0.36208 0.91569 0.1532 0.0
C223 C 0.44948 0.9469 0.17729 0.0
C224 C 0.35946 0.91345 0.13299 0.0
C225 C 0.33731 0.86926 0.1236 0.0
C226 C 0.31713 0.8267 0.13433 0.0
C227 C 0.31946 0.82933 0.15457 0.0
C228 C 0.34154 0.8733 0.16389 0.0
H229 H 0.48669 0.96846 0.18269 0.0
H230 H 0.42923 0.91758 0.18773 0.0
H231 H 0.45023 0.9308 0.16327 0.0
H232 H 0.37485 0.94589 0.1245 0.0
H233 H 0.33602 0.86843 0.108 0.0
H234 H 0.10863 0.48439 0.76626 0.0
H235 H 0.04533 0.44948 0.79046 0.0
H236 H 0.14775 0.46079 0.83303 0.0
H237 H 0.21101 0.49387 0.80859 0.0
H238 H 0.06568 0.38023 0.83798 0.0
H239 H 0.02658 0.52732 0.83032 0.0
H240 H 0.01937 0.4971 0.8079 0.0
H241 H 0.07752 0.52882 0.81897 0.0
C242 C 0.11764 0.47911 0.78074 0.0
C243 C 0.16496 0.49245 0.78557 0.0
C244 C 0.08146 0.45948 0.79461 0.0
C245 C 0.09197 0.45394 0.81375 0.0
C246 C 0.13881 0.46519 0.81842 0.0
H247 H 0.8914 0.42227 0.90473 0.0
H248 H 0.96256 0.45068 0.88446 0.0
C249 C 0.17496 0.48408 0.80443 0.0
C250 C 0.05427 0.4374 0.82889 0.0
H251 H 0.96927 0.45898 0.84777 0.0
C252 C 0.04483 0.39766 0.84024 0.0
C253 C 0.02775 0.46078 0.83222 0.0
C254 C 0.03867 0.50616 0.82186 0.0
C255 C 1.00874 0.37987 0.85439 0.0
C256 C 0.98021 0.40147 0.85684 0.0
C257 C 0.99059 0.44195 0.84582 0.0
C258 C 0.93908 0.38274 0.8705 0.0
C259 C 1.00233 0.33871 0.86675 0.0
C260 C 0.90218 0.33496 0.86963 0.0
C261 C 0.86193 0.31847 0.8815 0.0
C262 C 0.85713 0.34973 0.89413 0.0
C263 C 0.89408 0.39741 0.8951 0.0
C264 C 0.93474 0.41365 0.8835 0.0
H265 H 0.0361 0.33761 0.86784 0.0
H266 H 0.99031 0.34085 0.88152 0.0
H267 H 0.97512 0.30478 0.86009 0.0
H268 H 0.90369 0.31067 0.85933 0.0
H269 H 0.8337 0.28171 0.88022 0.0
H270 H 0.44875 0.59145 0.45921 0.0
H271 H 0.48934 0.56394 0.48095 0.0
H272 H 0.61764 0.70113 0.47736 0.0
H273 H 0.57727 0.72919 0.45544 0.0
H274 H 0.6312 0.61886 0.47443 0.0
H275 H 0.52173 0.6091 0.53775 0.0
H276 H 0.4875 0.5787 0.51678 0.0
H277 H 0.52557 0.64236 0.51625 0.0
C278 C 0.48569 0.61584 0.46292 0.0
C279 C 0.50961 0.66271 0.45567 0.0
C280 C 0.50875 0.60007 0.47544 0.0
C281 C 0.55618 0.63076 0.48104 0.0
C282 C 0.58087 0.67702 0.47333 0.0
H283 H 0.73868 0.56907 0.5562 0.0
H284 H 0.71017 0.61056 0.53523 0.0
C285 C 0.55773 0.69296 0.4608 0.0
C286 C 0.57945 0.61429 0.49511 0.0
H287 H 0.56868 0.57156 0.54095 0.0
C288 C 0.618 0.60902 0.48905 0.0
C289 C 0.56217 0.60165 0.51418 0.0
C290 C 0.52225 0.6086 0.52174 0.0
C291 C 0.63835 0.58933 0.50131 0.0
C292 C 0.62014 0.57544 0.52024 0.0
C293 C 0.5825 0.58207 0.52644 0.0
C294 C 0.63769 0.55144 0.53348 0.0
C295 C 0.67776 0.58171 0.49365 0.0
C296 C 0.60611 0.50505 0.53999 0.0
C297 C 0.62216 0.48139 0.55206 0.0
C298 C 0.6702 0.50367 0.55795 0.0
C299 C 0.70156 0.55068 0.55182 0.0
C300 C 0.6854 0.57438 0.53973 0.0
H301 H 0.6804 0.58454 0.47769 0.0
H302 H 0.71243 0.60924 0.49973 0.0
H303 H 0.67199 0.54619 0.49799 0.0
H304 H 0.56908 0.48676 0.53544 0.0
H305 H 0.59695 0.44529 0.55651 0.0
H306 H 0.34291 0.56982 0.12037 0.0
H307 H 0.3848 0.53595 0.13764 0.0
H308 H 0.44705 0.65714 0.17575 0.0
H309 H 0.40375 0.69068 0.15891 0.0
H310 H 0.48324 0.57406 0.14356 0.0
H311 H 0.38502 0.54322 0.21292 0.0
H312 H 0.36442 0.55626 0.1908 0.0
H313 H 0.41407 0.60297 0.20353 0.0
C314 C 0.36499 0.58907 0.13257 0.0
C315 C 0.36945 0.63268 0.13841 0.0
C316 C 0.3893 0.56987 0.14231 0.0
C317 C 0.41858 0.59374 0.15811 0.0
C318 C 0.42404 0.63778 0.16377 0.0
H319 H 0.54009 0.45879 0.23246 0.0
H320 H 0.53124 0.52335 0.21784 0.0
C321 C 0.39962 0.65708 0.15402 0.0
C322 C 0.44263 0.57164 0.16859 0.0
H323 H 0.43975 0.51577 0.21076 0.0
C324 C 0.47427 0.5619 0.15835 0.0
C325 C 0.43115 0.55615 0.18793 0.0
C326 C 0.39659 0.56478 0.19948 0.0
C327 C 0.4931 0.53527 0.16665 0.0
C328 C 0.47949 0.51749 0.18559 0.0
C329 C 0.45014 0.52957 0.19624 0.0
C330 C 0.48972 0.48108 0.19357 0.0
C331 C 0.52633 0.52518 0.15489 0.0
C332 C 0.46946 0.43626 0.18474 0.0
C333 C 0.4742 0.39966 0.19307 0.0
C334 C 0.49934 0.40707 0.2104 0.0
C335 C 0.52099 0.4524 0.21898 0.0
C336 C 0.51578 0.48909 0.21071 0.0
H337 H 0.54483 0.55269 0.14356 0.0
H338 H 0.55356 0.52364 0.16415 0.0
H339 H 0.50527 0.4902 0.14764 0.0
H340 H 0.44852 0.42907 0.1717 0.0
H341 H 0.45742 0.36513 0.18613 0.0
H342 H 0.32929 0.72219 0.82615 0.0
H343 H 0.36458 0.79999 0.84225 0.0
H344 H 0.48235 0.85643 0.80212 0.0
H345 H 0.44706 0.77959 0.78581 0.0
H346 H 0.45524 0.84852 0.85968 0.0
H347 H 0.44107 0.95718 0.80127 0.0
H348 H 0.40657 0.89283 0.80147 0.0
H349 H 0.46759 0.92299 0.79322 0.0
C350 C 0.36235 0.75145 0.82062 0.0
C351 C 0.38549 0.74476 0.80475 0.0
C352 C 0.38249 0.79573 0.82985 0.0
C353 C 0.42566 0.83413 0.82318 0.0
C354 C 0.44853 0.82756 0.80727 0.0
H355 H 0.65978 0.09902 0.85089 0.0
H356 H 0.59537 0.02544 0.83726 0.0
C357 C 0.42862 0.78343 0.79812 0.0
C358 C 0.44894 0.88039 0.83342 0.0
H359 H 0.50034 1.00017 0.82569 0.0
C360 C 0.46422 0.88169 0.85245 0.0
C361 C 0.46038 0.92351 0.82395 0.0
C362 C 0.44262 0.92412 0.80391 0.0
C363 C 0.49361 0.92521 0.86177 0.0
C364 C 0.50738 0.96838 0.85185 0.0
C365 C 0.48984 0.96699 0.83323 0.0
C366 C 0.54431 0.01492 0.85962 0.0
C367 C 0.51217 0.92473 0.88168 0.0
C368 C 0.53655 0.034 0.87648 0.0
C369 C 0.57352 0.07614 0.88437 0.0
C370 C 0.61877 0.09964 0.8755 0.0
C371 C 0.62562 0.0813 0.85821 0.0
C372 C 0.58875 0.03946 0.85034 0.0
H373 H 0.50369 0.88839 0.88619 0.0
H374 H 0.55151 0.94869 0.88226 0.0
H375 H 0.49572 0.938 0.89222 0.0
H376 H 0.50226 0.01584 0.88372 0.0
H377 H 0.56725 0.08931 0.89774 0.0
H378 H 0.94829 0.51062 0.5729 0.0
H379 H 0.03153 0.53556 0.56468 0.0
H380 H 1.0083 0.568 0.50681 0.0
H381 H 0.92525 0.54234 0.5147 0.0
H382 H 0.07024 0.5034 0.5307 0.0
H383 H 0.12295 0.69498 0.53111 0.0
H384 H 0.07083 0.64993 0.5437 0.0
H385 H 0.06902 0.65673 0.51808 0.0
C386 C 0.96063 0.52217 0.55833 0.0
C387 C 0.93016 0.52488 0.54448 0.0
C388 C 1.00826 0.53667 0.55371 0.0
C389 C 0.02607 0.55422 0.53523 0.0
C390 C 0.99532 0.5552 0.52123 0.0
H391 H 0.25393 0.61096 0.46068 0.0
H392 H 0.18146 0.5767 0.48029 0.0
C393 C 0.94791 0.54065 0.52579 0.0
C394 C 0.07705 0.57299 0.53039 0.0
H395 H 0.17657 0.67488 0.51577 0.0
C396 C 0.09386 0.54097 0.52774 0.0
C397 C 0.10789 0.62208 0.52682 0.0
C398 C 0.09206 0.65813 0.53021 0.0
C399 C 0.14 0.55653 0.52046 0.0
C400 C 0.16964 0.60518 0.51558 0.0
C401 C 0.15376 0.63755 0.5194 0.0
C402 C 0.2151 0.62261 0.50481 0.0
C403 C 0.15625 0.52063 0.5177 0.0
C404 C 0.25818 0.66009 0.51201 0.0
C405 C 0.29976 0.68001 0.50074 0.0
C406 C 0.2987 0.66322 0.48197 0.0
C407 C 0.25577 0.62491 0.47503 0.0
C408 C 0.21444 0.6049 0.48631 0.0
H409 H 0.13705 0.4897 0.52758 0.0
H410 H 0.14843 0.50704 0.50271 0.0
H411 H 0.19529 0.53696 0.52017 0.0
H412 H 0.25933 0.67462 0.52618 0.0
H413 H 0.33218 0.70975 0.50641 0.0
H414 H 0.69383 0.40015 0.85615 0.0
H415 H 0.65351 0.43415 0.83732 0.0
H416 H 0.51696 0.31132 0.85061 0.0
H417 H 0.55684 0.27706 0.86921 0.0
H418 H 0.5295 0.34651 0.81066 0.0
H419 H 0.57465 0.48568 0.8667 0.0
H420 H 0.62308 0.47995 0.85683 0.0
H421 H 0.57831 0.43269 0.87125 0.0
C422 C 0.65529 0.38009 0.85475 0.0
C423 C 0.62842 0.33627 0.86435 0.0
C424 C 0.63233 0.39962 0.84409 0.0
C425 C 0.58225 0.37545 0.84278 0.0
C426 C 0.55562 0.3306 0.85151 0.0
H427 H 0.36656 0.44885 0.82835 0.0
H428 H 0.42138 0.42104 0.83745 0.0
C429 C 0.57843 0.31125 0.86223 0.0
C430 C 0.55692 0.39792 0.83362 0.0
H431 H 0.52595 0.48321 0.84113 0.0
C432 C 0.52922 0.37685 0.81711 0.0
C433 C 0.55629 0.43714 0.84224 0.0
C434 C 0.58436 0.46021 0.8603 0.0
C435 C 0.50011 0.39348 0.80922 0.0
C436 C 0.49877 0.43204 0.81811 0.0
C437 C 0.52731 0.45377 0.83433 0.0
C438 C 0.46506 0.44791 0.81185 0.0
C439 C 0.46943 0.36858 0.79195 0.0
C440 C 0.47142 0.4722 0.79437 0.0
C441 C 0.44028 0.48872 0.78916 0.0
C442 C 0.40227 0.48125 0.80138 0.0
C443 C 0.3958 0.45613 0.81873 0.0
C444 C 0.42696 0.43989 0.82393 0.0
H445 H 0.47044 0.33579 0.78812 0.0
H446 H 0.43179 0.35891 0.79478 0.0
H447 H 0.48222 0.39309 0.77939 0.0
H448 H 0.50097 0.47915 0.78495 0.0
H449 H 0.44679 0.50831 0.77581 0.0
H450 H 0.61123 0.29308 0.52282 0.0
H451 H 0.57167 0.2175 0.505 0.0
H452 H 0.66783 0.17694 0.53052 0.0
H453 H 0.70823 0.25231 0.54785 0.0
H454 H 0.61613 0.17778 0.47876 0.0
H455 H 0.52896 0.06511 0.54295 0.0
H456 H 0.55011 0.12838 0.54241 0.0
H457 H 0.59144 0.1072 0.54608 0.0
C458 C 0.62424 0.26826 0.52448 0.0
C459 C 0.6625 0.27853 0.537 0.0
C460 C 0.60142 0.22504 0.51439 0.0
C461 C 0.61628 0.19137 0.51678 0.0
C462 C 0.65516 0.20205 0.52882 0.0
H463 H 0.61593 0.96396 0.46032 0.0
H464 H 0.62718 0.03954 0.47237 0.0
C465 C 0.67809 0.24514 0.53878 0.0
C466 C 0.59211 0.14505 0.50662 0.0
H467 H 0.53561 0.02523 0.51506 0.0
C468 C 0.59767 0.14435 0.4866 0.0
C469 C 0.56748 0.10155 0.51686 0.0
C470 C 0.55866 0.10036 0.53825 0.0
C471 C 0.58205 0.1012 0.47675 0.0
C472 C 0.56075 0.05791 0.48726 0.0
C473 C 0.55222 0.05846 0.50705 0.0
C474 C 0.55232 0.01261 0.47852 0.0
C475 C 0.58977 0.10237 0.45528 0.0
C476 C 0.50647 0.9721 0.47819 0.0
C477 C 0.49994 0.92852 0.47133 0.0
C478 C 0.53933 0.92471 0.46511 0.0
C479 C 0.58499 0.96557 0.46527 0.0
C480 C 0.59139 0.00898 0.47191 0.0
H481 H 0.59208 0.13472 0.44865 0.0
H482 H 0.62396 0.10315 0.4524 0.0
H483 H 0.56052 0.0703 0.44822 0.0
H484 H 0.47592 0.9741 0.48343 0.0
H485 H 0.46446 0.89753 0.47144 0.0
H486 H 0.11903 0.56152 0.1385 0.0
H487 H 0.04398 0.49652 0.15192 0.0
H488 H 0.96993 0.56959 0.13344 0.0
H489 H 0.04408 0.63374 0.11999 0.0
H490 H 0.99147 0.51109 0.18121 0.0
H491 H 0.8795 0.43181 0.11655 0.0
H492 H 0.94386 0.46784 0.11537 0.0
H493 H 0.90764 0.49562 0.11684 0.0
C494 C 0.08641 0.56296 0.13698 0.0
C495 C 0.08733 0.60272 0.12837 0.0
C496 C 0.04372 0.52604 0.14467 0.0
C497 C 1.00131 0.52802 0.14347 0.0
C498 C 1.002 0.56688 0.13423 0.0
H499 H 0.72686 0.42801 0.19017 0.0
H500 H 0.80184 0.46236 0.17217 0.0
C501 C 0.04451 0.6038 0.12675 0.0
C502 C 0.95721 0.49251 0.15349 0.0
H503 H 0.83735 0.4201 0.1466 0.0
C504 C 0.95788 0.49025 0.17367 0.0
C505 C 0.91352 0.46557 0.14357 0.0
C506 C 0.91107 0.46491 0.12186 0.0
C507 C 0.91548 0.46428 0.18428 0.0
C508 C 0.87144 0.43924 0.17439 0.0
C509 C 0.87113 0.43951 0.15416 0.0
C510 C 0.82508 0.41616 0.18475 0.0
C511 C 0.91786 0.46627 0.20601 0.0
C512 C 0.81291 0.37826 0.1976 0.0
C513 C 0.77021 0.35884 0.20809 0.0
C514 C 0.73881 0.37684 0.20583 0.0
C515 C 0.7506 0.41389 0.19252 0.0
C516 C 0.79324 0.43328 0.18209 0.0
H517 H 0.95328 0.49445 0.2113 0.0
H518 H 0.88989 0.473 0.212 0.0
H519 H 0.91145 0.43151 0.21169 0.0
H520 H 0.83666 0.36404 0.19965 0.0
H521 H 0.76239 0.33051 0.21829 0.0
H522 H 0.45054 0.86723 0.39766 0.0
H523 H 0.47157 0.93275 0.37541 0.0
H524 H 0.58478 0.91404 0.3519 0.0
H525 H 0.56474 0.84872 0.37491 0.0
H526 H 0.61478 1.00593 0.35689 0.0
H527 H 0.44136 0.92737 0.31958 0.0
H528 H 0.43267 0.9288 0.345 0.0
H529 H 0.45645 0.89296 0.3356 0.0
C530 C 0.47968 0.87659 0.38766 0.0
C531 C 0.50565 0.85234 0.38791 0.0
C532 C 0.49146 0.914 0.37481 0.0
C533 C 0.52885 0.92759 0.36153 0.0
C534 C 0.55537 0.90384 0.36184 0.0
H535 H 0.55353 0.13681 0.2746 0.0
H536 H 0.54289 0.06373 0.28982 0.0
C537 C 0.5439 0.86653 0.37496 0.0
C538 C 0.54102 0.968 0.34807 0.0
H539 H 0.49002 0.01325 0.31783 0.0
C540 C 0.58768 0.00721 0.34811 0.0
C541 C 0.50612 0.96949 0.33618 0.0
C542 C 0.45655 0.92711 0.33391 0.0
C543 C 0.59964 0.04871 0.33745 0.0
C544 C 0.56356 0.05179 0.32699 0.0
C545 C 0.5176 0.01156 0.32612 0.0
C546 C 0.57205 0.09667 0.31741 0.0
C547 C 0.65094 0.08862 0.33752 0.0
C548 C 0.5914 0.13954 0.32781 0.0
C549 C 0.59808 0.18135 0.31903 0.0
C550 C 0.58441 0.18104 0.29979 0.0
C551 C 0.56414 0.13802 0.28947 0.0
C552 C 0.55823 0.09631 0.29816 0.0
H553 H 0.67582 0.0747 0.3398 0.0
H554 H 0.66061 0.10905 0.32381 0.0
H555 H 0.65628 0.11327 0.34957 0.0
H556 H 0.60066 0.1406 0.34286 0.0
H557 H 0.61297 0.21377 0.32744 0.0
H558 H 0.87952 0.39523 0.95093 0.0
H559 H 0.95094 0.45362 0.96821 0.0
H560 H 0.86227 0.46766 0.01114 0.0
H561 H 0.79065 0.40839 0.99423 0.0
H562 H 0.97976 0.54996 0.97815 0.0
H563 H 0.95181 0.43699 0.04268 0.0
H564 H 0.92054 0.41292 0.02031 0.0
H565 H 0.90199 0.44434 0.03623 0.0
C566 C 0.87514 0.41017 0.96419 0.0
C567 C 0.82925 0.3967 0.97128 0.0
C568 C 0.91603 0.44394 0.97394 0.0
C569 C 0.91193 0.46469 0.99105 0.0
C570 C 0.86627 0.45168 0.99809 0.0
H571 H 0.14383 0.70681 0.05306 0.0
H572 H 0.07245 0.65788 0.03337 0.0
C573 C 0.82535 0.41801 0.98833 0.0
C574 C 0.95548 0.49957 1.00159 0.0
H575 H 0.01612 0.5161 0.04378 0.0
C576 C 0.98773 0.5427 0.99252 0.0
C577 C 0.9659 0.48983 0.02028 0.0
C578 C 0.93353 0.44338 0.03044 0.0
C579 C 0.0302 0.57633 1.00167 0.0
C580 C 0.04043 0.56662 0.02039 0.0
C581 C 1.00804 0.5236 0.02946 0.0
C582 C 0.0858 0.59896 0.0305 0.0
C583 C 0.06444 0.62135 0.99108 0.0
C584 C 0.11713 0.58234 0.03522 0.0
C585 C 0.15757 0.61001 0.0464 0.0
C586 C 0.16762 0.65496 0.05321 0.0
C587 C 0.13727 0.67253 0.04788 0.0
C588 C 0.09651 0.64461 0.03664 0.0
H589 H 0.0556 0.61947 0.97552 0.0
H590 H 0.06282 0.65191 0.99747 0.0
H591 H 0.10168 0.62846 0.99254 0.0
H592 H 0.10964 0.54731 0.03062 0.0
H593 H 0.18024 0.59542 0.0502 0.0
H594 H 0.42718 0.5952 0.71779 0.0
H595 H 0.47703 0.57557 0.69779 0.0
H596 H 0.37606 0.42576 0.70498 0.0
H597 H 0.32514 0.44539 0.72472 0.0
H598 H 0.52054 0.52765 0.70921 0.0
H599 H 0.40109 0.43287 0.64764 0.0
H600 H 0.38848 0.46743 0.66457 0.0
H601 H 0.37574 0.40825 0.67075 0.0
C602 C 0.41511 0.55804 0.71487 0.0
C603 C 0.37214 0.52181 0.7228 0.0
C604 C 0.44375 0.54687 0.70345 0.0
C605 C 0.43027 0.49921 0.69971 0.0
C606 C 0.3868 0.46283 0.70728 0.0
H607 H 0.58446 0.3714 0.64712 0.0
H608 H 0.52726 0.38664 0.66431 0.0
C609 C 0.35777 0.47406 0.71862 0.0
C610 C 0.46355 0.48817 0.68902 0.0
H611 H 0.4739 0.43144 0.64934 0.0
C612 C 0.51033 0.50679 0.69607 0.0
C613 C 0.45027 0.4608 0.6719 0.0
C614 C 0.40131 0.44152 0.66314 0.0
C615 C 0.544 0.49867 0.68656 0.0
C616 C 0.53077 0.47149 0.66945 0.0
C617 C 0.48393 0.45237 0.66247 0.0
C618 C 0.56518 0.46244 0.65868 0.0
C619 C 0.59335 0.51868 0.69504 0.0
C620 C 0.60527 0.49998 0.64965 0.0
C621 C 0.63811 0.49141 0.63982 0.0
C622 C 0.63157 0.44511 0.63889 0.0
C623 C 0.59105 0.40757 0.64783 0.0
C624 C 0.55809 0.41613 0.65753 0.0
H625 H 0.59482 0.53017 0.71022 0.0
H626 H 0.60523 0.49189 0.69449 0.0
H627 H 0.61898 0.55013 0.68648 0.0
H628 H 0.61115 0.53595 0.65022 0.0
H629 H 0.66896 0.52114 0.6332 0.0
H630 H 0.24322 0.6376 0.68435 0.0
H631 H 0.17287 0.62539 0.66635 0.0
H632 H 0.08471 0.49792 0.69924 0.0
H633 H 0.15457 0.51063 0.71769 0.0
H634 H 0.10737 0.55033 0.6438 0.0
H635 H 0.01845 0.57641 0.70726 0.0
H636 H 0.08049 0.59196 0.70744 0.0
H637 H 0.03419 0.53096 0.71058 0.0
C638 C 0.20889 0.60694 0.68775 0.0
C639 C 0.20459 0.57539 0.70261 0.0
C640 C 0.16872 0.59994 0.67741 0.0
C641 C 0.12336 0.56138 0.68175 0.0
C642 C 0.11921 0.52855 0.69594 0.0
H643 H 0.86074 0.4305 0.62026 0.0
H644 H 0.93409 0.45376 0.63804 0.0
C645 C 0.15938 0.5355 0.7063 0.0
C646 C 0.08041 0.55569 0.67151 0.0
H647 H 0.97153 0.54702 0.6787 0.0
C648 C 0.07787 0.54998 0.65142 0.0
C649 C 0.04221 0.55605 0.68142 0.0
C650 C 0.044 0.56464 0.70284 0.0
C651 C 0.03735 0.54269 0.6411 0.0
C652 C 0.99837 0.54088 0.65113 0.0
C653 C 1.0015 0.5483 0.67109 0.0
C654 C 0.95272 0.52741 0.64125 0.0
C655 C 0.03607 0.53629 0.61953 0.0
C656 C 0.93825 0.56102 0.63759 0.0
C657 C 0.896 0.54784 0.6273 0.0
C658 C 0.86765 0.50079 0.62071 0.0
C659 C 0.88172 0.46709 0.62505 0.0
C660 C 0.92376 0.48029 0.63517 0.0
H661 H 0.07217 0.5481 0.6135 0.0
H662 H 0.01267 0.49802 0.61603 0.0
H663 H 0.02094 0.55653 0.61237 0.0
H664 H 0.96018 0.59759 0.64228 0.0
H665 H 0.88618 0.57459 0.62413 0.0
H666 H 0.59047 0.41366 0.29805 0.0
H667 H 0.56854 0.46171 0.31798 0.0
H668 H 0.41945 0.35666 0.31155 0.0
H669 H 0.4414 0.30764 0.29174 0.0
H670 H 0.5159 0.50059 0.3053 0.0
H671 H 0.42912 0.38585 0.36917 0.0
H672 H 0.46546 0.37476 0.35254 0.0
H673 H 0.40509 0.35809 0.34635 0.0
C674 C 0.553 0.40025 0.30115 0.0
C675 C 0.51763 0.35683 0.29332 0.0
C676 C 0.54053 0.42786 0.31253 0.0
C677 C 0.49239 0.41283 0.31634 0.0
C678 C 0.45689 0.36864 0.30909 0.0
H679 H 0.39986 0.61425 0.35 0.0
H680 H 0.41151 0.5546 0.33324 0.0
C681 C 0.46944 0.34068 0.29775 0.0
C682 C 0.47995 0.44548 0.3266 0.0
H683 H 0.42585 0.45728 0.36689 0.0
C684 C 0.49615 0.49106 0.31877 0.0
C685 C 0.45451 0.43319 0.34423 0.0
C686 C 0.43783 0.38549 0.35371 0.0
C687 C 0.48794 0.52476 0.32809 0.0
C688 C 0.46184 0.51227 0.34556 0.0
C689 C 0.44553 0.46667 0.35342 0.0
C690 C 0.45249 0.54668 0.35614 0.0
C691 C 0.5085 0.57391 0.31939 0.0
C692 C 0.47039 0.56111 0.37484 0.0
C693 C 0.46333 0.59491 0.38458 0.0
C694 C 0.43804 0.61496 0.37586 0.0
C695 C 0.41935 0.59964 0.35724 0.0
C696 C 0.42636 0.56577 0.34754 0.0
H697 H 0.53746 0.58146 0.3089 0.0
H698 H 0.47987 0.57652 0.31162 0.0
H699 H 0.523 0.60177 0.33073 0.0
H700 H 0.49042 0.54665 0.38181 0.0
H701 H 0.4774 0.605 0.39902 0.0
H702 H 0.58916 0.14511 0.94939 0.0
H703 H 0.54499 0.07923 0.97154 0.0
H704 H 0.67735 0.0986 0.99481 0.0
H705 H 0.72234 0.16429 0.9719 0.0
H706 H 0.6157 1.0066 0.98978 0.0
H707 H 0.52033 0.08413 0.02742 0.0
H708 H 0.51005 0.08278 1.00202 0.0
H709 H 0.56973 0.11882 0.01137 0.0
C710 C 0.60911 0.13581 0.95932 0.0
C711 C 0.65936 0.16037 0.95904 0.0
C712 C 0.58366 0.09819 0.97211 0.0
C713 C 0.60767 0.08469 0.9853 0.0
C714 C 0.65798 0.10872 0.98494 0.0
H715 H 0.42382 0.87489 0.07224 0.0
H716 H 0.48615 0.94805 0.05699 0.0
C717 C 0.68366 0.14625 0.97188 0.0
C718 C 0.5796 0.04414 0.99874 0.0
H719 H 0.48342 0.99829 0.02908 0.0
C720 C 0.58726 1.0051 0.99862 0.0
C721 C 0.54316 0.04236 0.0107 0.0
C722 C 0.53574 0.08456 0.01305 0.0
C723 C 0.5579 0.96349 0.00926 0.0
C724 C 0.51868 0.96012 0.0198 0.0
C725 C 0.51274 1.00019 0.02074 0.0
C726 C 0.48248 0.91514 0.0294 0.0
C727 C 0.56955 0.9238 0.00911 0.0
C728 C 0.45907 0.87223 0.01902 0.0
C729 C 0.42401 0.83035 0.02782 0.0
C730 C 0.41059 0.83065 0.04705 0.0
C731 C 0.43327 0.8737 0.05736 0.0
C732 C 0.469 0.91545 0.04866 0.0
H733 H 0.60839 0.93794 0.00678 0.0
H734 H 0.55892 0.9033 0.02281 0.0
H735 H 0.55026 0.89915 0.99706 0.0
H736 H 0.46726 0.87117 1.00397 0.0
H737 H 0.40653 0.7979 0.01943 0.0
loop_
_geom_bond_atom_site_label_1
_geom_bond_atom_site_label_2
_geom_bond_distance
_geom_bond_site_symmetry_2
_ccdc_geom_bond_type
Co0 N4 2.148 . S
Co0 N10 2.128 . S
Co0 N20 2.194 . S
Co0 O25 2.351 . S
Co0 O26 2.155 . S
Co0 O27 2.096 . S
C1 N4 1.301 . S
C1 N5 1.328 . S
C1 H6 0.930 . S
C2 C3 1.333 . S
C2 N4 1.317 . S
C2 H7 0.930 . S
C3 C2 1.333 . S
C3 N5 1.350 . S
C3 H29 0.931 . S
N4 Co0 2.148 . S
N4 C1 1.301 . S
N4 C2 1.317 . S
N5 C1 1.328 . S
N5 C3 1.350 . S
H6 C1 0.930 . S
H7 C2 0.930 . S
C8 O9 1.224 . S
C8 O27 1.247 . S
O9 C8 1.224 . S
N10 Co0 2.128 . S
N10 C11 1.355 . S
N10 C13 1.311 . S
C11 N10 1.355 . S
C11 C12 1.363 . S
C11 H23 0.929 . S
C12 C11 1.363 . S
C12 N14 1.375 . S
C12 H30 0.931 . S
C13 N10 1.311 . S
C13 N14 1.347 . S
C13 H24 0.929 . S
N14 C12 1.375 . S
N14 C13 1.347 . S
C15 C18 1.365 . S
C15 N20 1.328 . S
C15 H21 0.929 . S
C16 C17 1.362 . S
C16 C19 1.378 . S
C16 H31 0.929 . S
C17 C16 1.362 . S
C17 C18 1.366 . S
C18 C15 1.365 . S
C18 C17 1.366 . S
C18 H32 0.930 . S
C19 C16 1.378 . S
C19 N20 1.315 . S
C19 H22 0.930 . S
N20 Co0 2.194 . S
N20 C15 1.328 . S
N20 C19 1.315 . S
H21 C15 0.929 . S
H22 C19 0.930 . S
H23 C11 0.929 . S
H24 C13 0.929 . S
O25 Co0 2.351 . S
O25 C28 1.244 . S
O26 Co0 2.155 . S
O26 C28 1.240 . S
O27 Co0 2.096 . S
O27 C8 1.247 . S
C28 O25 1.244 . S
C28 O26 1.240 . S
H29 C3 0.931 . S
H30 C12 0.931 . S
H31 C16 0.929 . S
H32 C18 0.930 . S
Co33 N37 2.148 . S
Co33 N43 2.128 . S
Co33 N53 2.194 . S
Co33 O58 2.351 . S
Co33 O59 2.155 . S
Co33 O60 2.096 . S
C34 N37 1.301 . S
C34 N38 1.328 . S
C34 H39 0.930 . S
C35 C36 1.333 . S
C35 N37 1.317 . S
C35 H40 0.930 . S
C36 C35 1.333 . S
C36 N38 1.350 . S
C36 H62 0.931 . S
N37 Co33 2.148 . S
N37 C34 1.301 . S
N37 C35 1.317 . S
N38 C34 1.328 . S
N38 C36 1.350 . S
H39 C34 0.930 . S
H40 C35 0.930 . S
C41 O42 1.224 . S
C41 O60 1.247 . S
O42 C41 1.224 . S
N43 Co33 2.128 . S
N43 C44 1.355 . S
N43 C46 1.311 . S
C44 N43 1.355 . S
C44 C45 1.363 . S
C44 H56 0.929 . S
C45 C44 1.363 . S
C45 N47 1.375 . S
C45 H63 0.931 . S
C46 N43 1.311 . S
C46 N47 1.347 . S
C46 H57 0.929 . S
N47 C45 1.375 . S
N47 C46 1.347 . S
C48 C51 1.365 . S
C48 N53 1.328 . S
C48 H54 0.929 . S
C49 C50 1.362 . S
C49 C52 1.378 . S
C49 H64 0.929 . S
C50 C49 1.362 . S
C50 C51 1.366 . S
C51 C48 1.365 . S
C51 C50 1.366 . S
C51 H65 0.930 . S
C52 C49 1.378 . S
C52 N53 1.315 . S
C52 H55 0.930 . S
N53 Co33 2.194 . S
N53 C48 1.328 . S
N53 C52 1.315 . S
H54 C48 0.929 . S
H55 C52 0.930 . S
H56 C44 0.929 . S
H57 C46 0.929 . S
O58 Co33 2.351 . S
O58 C61 1.244 . S
O59 Co33 2.155 . S
O59 C61 1.240 . S
O60 Co33 2.096 . S
O60 C41 1.247 . S
C61 O58 1.244 . S
C61 O59 1.240 . S
H62 C36 0.931 . S
H63 C45 0.931 . S
H64 C49 0.929 . S
H65 C51 0.930 . S
Co66 N70 2.148 . S
Co66 N76 2.128 . S
Co66 N86 2.194 . S
Co66 O91 2.351 . S
Co66 O92 2.155 . S
Co66 O93 2.096 . S
C67 N70 1.301 . S
C67 N71 1.328 . S
C67 H72 0.930 . S
C68 C69 1.333 . S
C68 N70 1.317 . S
C68 H73 0.930 . S
C69 C68 1.333 . S
C69 N71 1.350 . S
C69 H95 0.931 . S
N70 Co66 2.148 . S
N70 C67 1.301 . S
N70 C68 1.317 . S
N71 C67 1.328 . S
N71 C69 1.350 . S
H72 C67 0.930 . S
H73 C68 0.930 . S
C74 O75 1.224 . S
C74 O93 1.247 . S
O75 C74 1.224 . S
N76 Co66 2.128 . S
N76 C77 1.355 . S
N76 C79 1.311 . S
C77 N76 1.355 . S
C77 C78 1.363 . S
C77 H89 0.929 . S
C78 C77 1.363 . S
C78 N80 1.375 . S
C78 H96 0.931 . S
C79 N76 1.311 . S
C79 N80 1.347 . S
C79 H90 0.929 . S
N80 C78 1.375 . S
N80 C79 1.347 . S
C81 C84 1.365 . S
C81 N86 1.328 . S
C81 H87 0.929 . S
C82 C83 1.362 . S
C82 C85 1.378 . S
C82 H97 0.929 . S
C83 C82 1.362 . S
C83 C84 1.366 . S
C84 C81 1.365 . S
C84 C83 1.366 . S
C84 H98 0.930 . S
C85 C82 1.378 . S
C85 N86 1.315 . S
C85 H88 0.930 . S
N86 Co66 2.194 . S
N86 C81 1.328 . S
N86 C85 1.315 . S
H87 C81 0.929 . S
H88 C85 0.930 . S
H89 C77 0.929 . S
H90 C79 0.929 . S
O91 Co66 2.351 . S
O91 C94 1.244 . S
O92 Co66 2.155 . S
O92 C94 1.240 . S
O93 Co66 2.096 . S
O93 C74 1.247 . S
C94 O91 1.244 . S
C94 O92 1.240 . S
H95 C69 0.931 . S
H96 C78 0.931 . S
H97 C82 0.929 . S
H98 C84 0.930 . S
Co99 N103 2.148 . S
Co99 N109 2.128 . S
Co99 N119 2.194 . S
Co99 O124 2.351 . S
Co99 O125 2.155 . S
Co99 O126 2.096 . S
C100 N103 1.301 . S
C100 N104 1.328 . S
C100 H105 0.930 . S
C101 C102 1.333 . S
C101 N103 1.317 . S
C101 H106 0.930 . S
C102 C101 1.333 . S
C102 N104 1.350 . S
C102 H128 0.931 . S
N103 Co99 2.148 . S
N103 C100 1.301 . S
N103 C101 1.317 . S
N104 C100 1.328 . S
N104 C102 1.350 . S
H105 C100 0.930 . S
H106 C101 0.930 . S
C107 O108 1.224 . S
C107 O126 1.247 . S
O108 C107 1.224 . S
N109 Co99 2.128 . S
N109 C110 1.355 . S
N109 C112 1.311 . S
C110 N109 1.355 . S
C110 C111 1.363 . S
C110 H122 0.929 . S
C111 C110 1.363 . S
C111 N113 1.375 . S
C111 H129 0.931 . S
C112 N109 1.311 . S
C112 N113 1.347 . S
C112 H123 0.929 . S
N113 C111 1.375 . S
N113 C112 1.347 . S
C114 C117 1.365 . S
C114 N119 1.328 . S
C114 H120 0.929 . S
C115 C116 1.362 . S
C115 C118 1.378 . S
C115 H130 0.929 . S
C116 C115 1.362 . S
C116 C117 1.366 . S
C117 C114 1.365 . S
C117 C116 1.366 . S
C117 H131 0.930 . S
C118 C115 1.378 . S
C118 N119 1.315 . S
C118 H121 0.930 . S
N119 Co99 2.194 . S
N119 C114 1.328 . S
N119 C118 1.315 . S
H120 C114 0.929 . S
H121 C118 0.930 . S
H122 C110 0.929 . S
H123 C112 0.929 . S
O124 Co99 2.351 . S
O124 C127 1.244 . S
O125 Co99 2.155 . S
O125 C127 1.240 . S
O126 Co99 2.096 . S
O126 C107 1.247 . S
C127 O124 1.244 . S
C127 O125 1.240 . S
H128 C102 0.931 . S
H129 C111 0.931 . S
H130 C115 0.929 . S
H131 C117 0.930 . S
Co132 N136 2.148 . S
Co132 N142 2.128 . S
Co132 N152 2.194 . S
Co132 O157 2.351 . S
Co132 O158 2.155 . S
Co132 O159 2.096 . S
C133 N136 1.301 . S
C133 N137 1.328 . S
C133 H138 0.930 . S
C134 C135 1.333 . S
C134 N136 1.317 . S
C134 H139 0.930 . S
C135 C134 1.333 . S
C135 N137 1.350 . S
C135 H161 0.931 . S
N136 Co132 2.148 . S
N136 C133 1.301 . S
N136 C134 1.317 . S
N137 C133 1.328 . S
N137 C135 1.350 . S
H138 C133 0.930 . S
H139 C134 0.930 . S
C140 O141 1.224 . S
C140 O159 1.247 . S
O141 C140 1.224 . S
N142 Co132 2.128 . S
N142 C143 1.355 . S
N142 C145 1.311 . S
C143 N142 1.355 . S
C143 C144 1.363 . S
C143 H155 0.929 . S
C144 C143 1.363 . S
C144 N146 1.375 . S
C144 H162 0.931 . S
C145 N142 1.311 . S
C145 N146 1.347 . S
C145 H156 0.929 . S
N146 C144 1.375 . S
N146 C145 1.347 . S
C147 C150 1.365 . S
C147 N152 1.328 . S
C147 H153 0.929 . S
C148 C149 1.362 . S
C148 C151 1.378 . S
C148 H163 0.929 . S
C149 C148 1.362 . S
C149 C150 1.366 . S
C150 C147 1.365 . S
C150 C149 1.366 . S
C150 H164 0.930 . S
C151 C148 1.378 . S
C151 N152 1.315 . S
C151 H154 0.930 . S
N152 Co132 2.194 . S
N152 C147 1.328 . S
N152 C151 1.315 . S
H153 C147 0.929 . S
H154 C151 0.930 . S
H155 C143 0.929 . S
H156 C145 0.929 . S
O157 Co132 2.351 . S
O157 C160 1.244 . S
O158 Co132 2.155 . S
O158 C160 1.240 . S
O159 Co132 2.096 . S
O159 C140 1.247 . S
C160 O157 1.244 . S
C160 O158 1.240 . S
H161 C135 0.931 . S
H162 C144 0.931 . S
H163 C148 0.929 . S
H164 C150 0.930 . S
Co165 N169 2.148 . S
Co165 N175 2.128 . S
Co165 N185 2.194 . S
Co165 O190 2.351 . S
Co165 O191 2.155 . S
Co165 O192 2.096 . S
C166 N169 1.301 . S
C166 N170 1.328 . S
C166 H171 0.930 . S
C167 C168 1.333 . S
C167 N169 1.317 . S
C167 H172 0.930 . S
C168 C167 1.333 . S
C168 N170 1.350 . S
C168 H194 0.931 . S
N169 Co165 2.148 . S
N169 C166 1.301 . S
N169 C167 1.317 . S
N170 C166 1.328 . S
N170 C168 1.350 . S
H171 C166 0.930 . S
H172 C167 0.930 . S
C173 O174 1.224 . S
C173 O192 1.247 . S
O174 C173 1.224 . S
N175 Co165 2.128 . S
N175 C176 1.355 . S
N175 C178 1.311 . S
C176 N175 1.355 . S
C176 C177 1.363 . S
C176 H188 0.929 . S
C177 C176 1.363 . S
C177 N179 1.375 . S
C177 H195 0.931 . S
C178 N175 1.311 . S
C178 N179 1.347 . S
C178 H189 0.929 . S
N179 C177 1.375 . S
N179 C178 1.347 . S
C180 C183 1.365 . S
C180 N185 1.328 . S
C180 H186 0.929 . S
C181 C182 1.362 . S
C181 C184 1.378 . S
C181 H196 0.929 . S
C182 C181 1.362 . S
C182 C183 1.366 . S
C183 C180 1.365 . S
C183 C182 1.366 . S
C183 H197 0.930 . S
C184 C181 1.378 . S
C184 N185 1.315 . S
C184 H187 0.930 . S
N185 Co165 2.194 . S
N185 C180 1.328 . S
N185 C184 1.315 . S
H186 C180 0.929 . S
H187 C184 0.930 . S
H188 C176 0.929 . S
H189 C178 0.929 . S
O190 Co165 2.351 . S
O190 C193 1.244 . S
O191 Co165 2.155 . S
O191 C193 1.240 . S
O192 Co165 2.096 . S
O192 C173 1.247 . S
C193 O190 1.244 . S
C193 O191 1.240 . S
H194 C168 0.931 . S
H195 C177 0.931 . S
H196 C181 0.929 . S
H197 C183 0.930 . S
H198 C206 0.929 . S
H199 C208 0.930 . S
H200 C210 0.930 . S
H201 C213 0.929 . S
H202 C216 0.930 . S
H203 C218 0.960 . S
H204 C218 0.960 . S
H205 C218 0.960 . S
C206 H198 0.929 . S
C206 C207 1.377 . S
C206 C208 1.384 . S
C207 C206 1.377 . S
C207 C213 1.390 . S
C208 H199 0.930 . S
C208 C206 1.384 . S
C208 C209 1.372 . S
C209 C208 1.372 . S
C209 C210 1.400 . S
C209 C214 1.490 . S
C210 H200 0.930 . S
C210 C209 1.400 . S
C210 C213 1.386 . S
H211 C227 0.930 . S
H212 C228 0.931 . S
C213 H201 0.929 . S
C213 C207 1.390 . S
C213 C210 1.386 . S
C214 C209 1.490 . S
C214 C216 1.395 . S
C214 C217 1.403 . S
H215 C221 0.930 . S
C216 H202 0.930 . S
C216 C214 1.395 . S
C216 C219 1.403 1_545 S
C217 C214 1.403 . S
C217 C218 1.524 . S
C217 C221 1.400 1_545 S
C218 H203 0.960 . S
C218 H204 0.960 . S
C218 H205 0.960 . S
C218 C217 1.524 . S
C219 C216 1.403 1_565 S
C219 C220 1.392 . S
C219 C223 1.495 . S
C220 C219 1.392 . S
C220 C221 1.385 . S
C220 C222 1.478 . S
C221 H215 0.930 . S
C221 C217 1.400 1_565 S
C221 C220 1.385 . S
C222 C220 1.478 . S
C222 C224 1.381 . S
C222 C228 1.383 . S
C223 C219 1.495 . S
C223 H229 0.959 . S
C223 H230 0.961 . S
C223 H231 0.960 . S
C224 C222 1.381 . S
C224 C225 1.394 . S
C224 H232 0.930 . S
C225 C224 1.394 . S
C225 C226 1.383 . S
C225 H233 0.929 . S
C226 C225 1.383 . S
C226 C227 1.377 . S
C227 H211 0.930 . S
C227 C226 1.377 . S
C227 C228 1.379 . S
C228 H212 0.931 . S
C228 C222 1.383 . S
C228 C227 1.379 . S
H229 C223 0.959 . S
H230 C223 0.961 . S
H231 C223 0.960 . S
H232 C224 0.930 . S
H233 C225 0.929 . S
H234 C242 0.929 . S
H235 C244 0.930 . S
H236 C246 0.930 . S
H237 C249 0.929 . S
H238 C252 0.930 . S
H239 C254 0.960 . S
H240 C254 0.960 . S
H241 C254 0.960 . S
C242 H234 0.929 . S
C242 C243 1.377 . S
C242 C244 1.384 . S
C243 C242 1.377 . S
C243 C249 1.390 . S
C244 H235 0.930 . S
C244 C242 1.384 . S
C244 C245 1.372 . S
C245 C244 1.372 . S
C245 C246 1.400 . S
C245 C250 1.490 . S
C246 H236 0.930 . S
C246 C245 1.400 . S
C246 C249 1.386 . S
H247 C263 0.930 . S
H248 C264 0.931 . S
C249 H237 0.929 . S
C249 C243 1.390 . S
C249 C246 1.386 . S
C250 C245 1.490 . S
C250 C252 1.395 . S
C250 C253 1.403 . S
H251 C257 0.930 . S
C252 H238 0.930 . S
C252 C250 1.395 . S
C252 C255 1.403 1_455 S
C253 C250 1.403 . S
C253 C254 1.524 . S
C253 C257 1.400 1_455 S
C254 H239 0.960 . S
C254 H240 0.960 . S
C254 H241 0.960 . S
C254 C253 1.524 . S
C255 C252 1.403 1_655 S
C255 C256 1.392 . S
C255 C259 1.495 . S
C256 C255 1.392 . S
C256 C257 1.385 . S
C256 C258 1.478 . S
C257 H251 0.930 . S
C257 C253 1.400 1_655 S
C257 C256 1.385 . S
C258 C256 1.478 . S
C258 C260 1.381 . S
C258 C264 1.383 . S
C259 C255 1.495 . S
C259 H265 0.959 . S
C259 H266 0.961 . S
C259 H267 0.960 . S
C260 C258 1.381 . S
C260 C261 1.394 . S
C260 H268 0.930 . S
C261 C260 1.394 . S
C261 C262 1.383 . S
C261 H269 0.929 . S
C262 C261 1.383 . S
C262 C263 1.377 . S
C263 H247 0.930 . S
C263 C262 1.377 . S
C263 C264 1.379 . S
C264 H248 0.931 . S
C264 C258 1.383 . S
C264 C263 1.379 . S
H265 C259 0.959 . S
H266 C259 0.961 . S
H267 C259 0.960 . S
H268 C260 0.930 . S
H269 C261 0.929 . S
H270 C278 0.929 . S
H271 C280 0.930 . S
H272 C282 0.930 . S
H273 C285 0.929 . S
H274 C288 0.930 . S
H275 C290 0.960 . S
H276 C290 0.960 . S
H277 C290 0.960 . S
C278 H270 0.929 . S
C278 C279 1.377 . S
C278 C280 1.384 . S
C279 C278 1.377 . S
C279 C285 1.390 . S
C280 H271 0.930 . S
C280 C278 1.384 . S
C280 C281 1.372 . S
C281 C280 1.372 . S
C281 C282 1.400 . S
C281 C286 1.490 . S
C282 H272 0.930 . S
C282 C281 1.400 . S
C282 C285 1.386 . S
H283 C299 0.930 . S
H284 C300 0.931 . S
C285 H273 0.929 . S
C285 C279 1.390 . S
C285 C282 1.386 . S
C286 C281 1.490 . S
C286 C288 1.395 . S
C286 C289 1.403 . S
H287 C293 0.930 . S
C288 H274 0.930 . S
C288 C286 1.395 . S
C288 C291 1.403 . S
C289 C286 1.403 . S
C289 C290 1.524 . S
C289 C293 1.400 . S
C290 H275 0.960 . S
C290 H276 0.960 . S
C290 H277 0.960 . S
C290 C289 1.524 . S
C291 C288 1.403 . S
C291 C292 1.392 . S
C291 C295 1.495 . S
C292 C291 1.392 . S
C292 C293 1.385 . S
C292 C294 1.478 . S
C293 H287 0.930 . S
C293 C289 1.400 . S
C293 C292 1.385 . S
C294 C292 1.478 . S
C294 C296 1.381 . S
C294 C300 1.383 . S
C295 C291 1.495 . S
C295 H301 0.959 . S
C295 H302 0.961 . S
C295 H303 0.960 . S
C296 C294 1.381 . S
C296 C297 1.394 . S
C296 H304 0.930 . S
C297 C296 1.394 . S
C297 C298 1.383 . S
C297 H305 0.929 . S
C298 C297 1.383 . S
C298 C299 1.377 . S
C299 H283 0.930 . S
C299 C298 1.377 . S
C299 C300 1.379 . S
C300 H284 0.931 . S
C300 C294 1.383 . S
C300 C299 1.379 . S
H301 C295 0.959 . S
H302 C295 0.961 . S
H303 C295 0.960 . S
H304 C296 0.930 . S
H305 C297 0.929 . S
H306 C314 0.929 . S
H307 C316 0.930 . S
H308 C318 0.930 . S
H309 C321 0.929 . S
H310 C324 0.930 . S
H311 C326 0.960 . S
H312 C326 0.960 . S
H313 C326 0.960 . S
C314 H306 0.929 . S
C314 C315 1.377 . S
C314 C316 1.384 . S
C315 C314 1.377 . S
C315 C321 1.390 . S
C316 H307 0.930 . S
C316 C314 1.384 . S
C316 C317 1.372 . S
C317 C316 1.372 . S
C317 C318 1.400 . S
C317 C322 1.490 . S
C318 H308 0.930 . S
C318 C317 1.400 . S
C318 C321 1.386 . S
H319 C335 0.930 . S
H320 C336 0.931 . S
C321 H309 0.929 . S
C321 C315 1.390 . S
C321 C318 1.386 . S
C322 C317 1.490 . S
C322 C324 1.395 . S
C322 C325 1.403 . S
H323 C329 0.930 . S
C324 H310 0.930 . S
C324 C322 1.395 . S
C324 C327 1.403 . S
C325 C322 1.403 . S
C325 C326 1.524 . S
C325 C329 1.400 . S
C326 H311 0.960 . S
C326 H312 0.960 . S
C326 H313 0.960 . S
C326 C325 1.524 . S
C327 C324 1.403 . S
C327 C328 1.392 . S
C327 C331 1.495 . S
C328 C327 1.392 . S
C328 C329 1.385 . S
C328 C330 1.478 . S
C329 H323 0.930 . S
C329 C325 1.400 . S
C329 C328 1.385 . S
C330 C328 1.478 . S
C330 C332 1.381 . S
C330 C336 1.383 . S
C331 C327 1.495 . S
C331 H337 0.959 . S
C331 H338 0.961 . S
C331 H339 0.960 . S
C332 C330 1.381 . S
C332 C333 1.394 . S
C332 H340 0.930 . S
C333 C332 1.394 . S
C333 C334 1.383 . S
C333 H341 0.929 . S
C334 C333 1.383 . S
C334 C335 1.377 . S
C335 H319 0.930 . S
C335 C334 1.377 . S
C335 C336 1.379 . S
C336 H320 0.931 . S
C336 C330 1.383 . S
C336 C335 1.379 . S
H337 C331 0.959 . S
H338 C331 0.961 . S
H339 C331 0.960 . S
H340 C332 0.930 . S
H341 C333 0.929 . S
H342 C350 0.929 . S
H343 C352 0.930 . S
H344 C354 0.930 . S
H345 C357 0.929 . S
H346 C360 0.930 . S
H347 C362 0.960 . S
H348 C362 0.960 . S
H349 C362 0.960 . S
C350 H342 0.929 . S
C350 C351 1.377 . S
C350 C352 1.384 . S
C351 C350 1.377 . S
C351 C357 1.390 . S
C352 H343 0.930 . S
C352 C350 1.384 . S
C352 C353 1.372 . S
C353 C352 1.372 . S
C353 C354 1.400 . S
C353 C358 1.490 . S
C354 H344 0.930 . S
C354 C353 1.400 . S
C354 C357 1.386 . S
H355 C371 0.930 . S
H356 C372 0.931 . S
C357 H345 0.929 . S
C357 C351 1.390 . S
C357 C354 1.386 . S
C358 C353 1.490 . S
C358 C360 1.395 . S
C358 C361 1.403 . S
H359 C365 0.930 . S
C360 H346 0.930 . S
C360 C358 1.395 . S
C360 C363 1.403 . S
C361 C358 1.403 . S
C361 C362 1.524 . S
C361 C365 1.400 . S
C362 H347 0.960 . S
C362 H348 0.960 . S
C362 H349 0.960 . S
C362 C361 1.524 . S
C363 C360 1.403 . S
C363 C364 1.392 . S
C363 C367 1.495 . S
C364 C363 1.392 . S
C364 C365 1.385 . S
C364 C366 1.478 . S
C365 H359 0.930 . S
C365 C361 1.400 . S
C365 C364 1.385 . S
C366 C364 1.478 . S
C366 C368 1.381 . S
C366 C372 1.383 1_565 S
C367 C363 1.495 . S
C367 H373 0.959 . S
C367 H374 0.961 . S
C367 H375 0.960 . S
C368 C366 1.381 . S
C368 C369 1.394 1_565 S
C368 H376 0.930 . S
C369 C368 1.394 1_545 S
C369 C370 1.383 . S
C369 H377 0.929 . S
C370 C369 1.383 . S
C370 C371 1.377 . S
C371 H355 0.930 . S
C371 C370 1.377 . S
C371 C372 1.379 . S
C372 H356 0.931 . S
C372 C366 1.383 1_545 S
C372 C371 1.379 . S
H373 C367 0.959 . S
H374 C367 0.961 . S
H375 C367 0.960 . S
H376 C368 0.930 . S
H377 C369 0.929 . S
H378 C386 0.929 . S
H379 C388 0.930 . S
H380 C390 0.930 . S
H381 C393 0.929 . S
H382 C396 0.930 . S
H383 C398 0.960 . S
H384 C398 0.960 . S
H385 C398 0.960 . S
C386 H378 0.929 . S
C386 C387 1.377 . S
C386 C388 1.384 1_655 S
C387 C386 1.377 . S
C387 C393 1.390 . S
C388 H379 0.930 . S
C388 C386 1.384 1_455 S
C388 C389 1.372 . S
C389 C388 1.372 . S
C389 C390 1.400 1_455 S
C389 C394 1.490 . S
C390 H380 0.930 . S
C390 C389 1.400 1_655 S
C390 C393 1.386 . S
H391 C407 0.930 . S
H392 C408 0.931 . S
C393 H381 0.929 . S
C393 C387 1.390 . S
C393 C390 1.386 . S
C394 C389 1.490 . S
C394 C396 1.395 . S
C394 C397 1.403 . S
H395 C401 0.930 . S
C396 H382 0.930 . S
C396 C394 1.395 . S
C396 C399 1.403 . S
C397 C394 1.403 . S
C397 C398 1.524 . S
C397 C401 1.400 . S
C398 H383 0.960 . S
C398 H384 0.960 . S
C398 H385 0.960 . S
C398 C397 1.524 . S
C399 C396 1.403 . S
C399 C400 1.392 . S
C399 C403 1.495 . S
C400 C399 1.392 . S
C400 C401 1.385 . S
C400 C402 1.478 . S
C401 H395 0.930 . S
C401 C397 1.400 . S
C401 C400 1.385 . S
C402 C400 1.478 . S
C402 C404 1.381 . S
C402 C408 1.383 . S
C403 C399 1.495 . S
C403 H409 0.959 . S
C403 H410 0.961 . S
C403 H411 0.960 . S
C404 C402 1.381 . S
C404 C405 1.394 . S
C404 H412 0.930 . S
C405 C404 1.394 . S
C405 C406 1.383 . S
C405 H413 0.929 . S
C406 C405 1.383 . S
C406 C407 1.377 . S
C407 H391 0.930 . S
C407 C406 1.377 . S
C407 C408 1.379 . S
C408 H392 0.931 . S
C408 C402 1.383 . S
C408 C407 1.379 . S
H409 C403 0.959 . S
H410 C403 0.961 . S
H411 C403 0.960 . S
H412 C404 0.930 . S
H413 C405 0.929 . S
H414 C422 0.929 . S
H415 C424 0.930 . S
H416 C426 0.930 . S
H417 C429 0.929 . S
H418 C432 0.930 . S
H419 C434 0.960 . S
H420 C434 0.960 . S
H421 C434 0.960 . S
C422 H414 0.929 . S
C422 C423 1.377 . S
C422 C424 1.384 . S
C423 C422 1.377 . S
C423 C429 1.390 . S
C424 H415 0.930 . S
C424 C422 1.384 . S
C424 C425 1.372 . S
C425 C424 1.372 . S
C425 C426 1.400 . S
C425 C430 1.490 . S
C426 H416 0.930 . S
C426 C425 1.400 . S
C426 C429 1.386 . S
H427 C443 0.930 . S
H428 C444 0.931 . S
C429 H417 0.929 . S
C429 C423 1.390 . S
C429 C426 1.386 . S
C430 C425 1.490 . S
C430 C432 1.395 . S
C430 C433 1.403 . S
H431 C437 0.930 . S
C432 H418 0.930 . S
C432 C430 1.395 . S
C432 C435 1.403 . S
C433 C430 1.403 . S
C433 C434 1.524 . S
C433 C437 1.400 . S
C434 H419 0.960 . S
C434 H420 0.960 . S
C434 H421 0.960 . S
C434 C433 1.524 . S
C435 C432 1.403 . S
C435 C436 1.392 . S
C435 C439 1.495 . S
C436 C435 1.392 . S
C436 C437 1.385 . S
C436 C438 1.478 . S
C437 H431 0.930 . S
C437 C433 1.400 . S
C437 C436 1.385 . S
C438 C436 1.478 . S
C438 C440 1.381 . S
C438 C444 1.383 . S
C439 C435 1.495 . S
C439 H445 0.959 . S
C439 H446 0.961 . S
C439 H447 0.960 . S
C440 C438 1.381 . S
C440 C441 1.394 . S
C440 H448 0.930 . S
C441 C440 1.394 . S
C441 C442 1.383 . S
C441 H449 0.929 . S
C442 C441 1.383 . S
C442 C443 1.377 . S
C443 H427 0.930 . S
C443 C442 1.377 . S
C443 C444 1.379 . S
C444 H428 0.931 . S
C444 C438 1.383 . S
C444 C443 1.379 . S
H445 C439 0.959 . S
H446 C439 0.961 . S
H447 C439 0.960 . S
H448 C440 0.930 . S
H449 C441 0.929 . S
H450 C458 0.929 . S
H451 C460 0.930 . S
H452 C462 0.930 . S
H453 C465 0.929 . S
H454 C468 0.930 . S
H455 C470 0.960 . S
H456 C470 0.960 . S
H457 C470 0.960 . S
C458 H450 0.929 . S
C458 C459 1.377 . S
C458 C460 1.384 . S
C459 C458 1.377 . S
C459 C465 1.390 . S
C460 H451 0.930 . S
C460 C458 1.384 . S
C460 C461 1.372 . S
C461 C460 1.372 . S
C461 C462 1.400 . S
C461 C466 1.490 . S
C462 H452 0.930 . S
C462 C461 1.400 . S
C462 C465 1.386 . S
H463 C479 0.930 . S
H464 C480 0.929 1_545 S
C465 H453 0.929 . S
C465 C459 1.390 . S
C465 C462 1.386 . S
C466 C461 1.490 . S
C466 C468 1.395 . S
C466 C469 1.403 . S
H467 C473 0.930 . S
C468 H454 0.930 . S
C468 C466 1.395 . S
C468 C471 1.403 . S
C469 C466 1.403 . S
C469 C470 1.524 . S
C469 C473 1.400 . S
C470 H455 0.960 . S
C470 H456 0.960 . S
C470 H457 0.960 . S
C470 C469 1.524 . S
C471 C468 1.403 . S
C471 C472 1.392 . S
C471 C475 1.495 . S
C472 C471 1.392 . S
C472 C473 1.385 . S
C472 C474 1.478 . S
C473 H467 0.930 . S
C473 C469 1.400 . S
C473 C472 1.385 . S
C474 C472 1.478 . S
C474 C476 1.381 1_545 S
C474 C480 1.361 1_545 S
C475 C471 1.495 . S
C475 H481 0.959 . S
C475 H482 0.961 . S
C475 H483 0.960 . S
C476 C474 1.381 1_565 S
C476 C477 1.394 . S
C476 H484 0.925 1_565 S
C477 C476 1.394 . S
C477 C478 1.383 . S
C477 H485 0.929 . S
C478 C477 1.383 . S
C478 C479 1.377 . S
C479 H463 0.930 . S
C479 C478 1.377 . S
C479 C480 1.403 . S
C480 H464 0.929 1_565 S
C480 C474 1.361 1_565 S
C480 C479 1.403 . S
H481 C475 0.959 . S
H482 C475 0.961 . S
H483 C475 0.960 . S
H484 C476 0.925 1_545 S
H485 C477 0.929 . S
H486 C494 0.929 . S
H487 C496 0.930 . S
H488 C498 0.930 1_655 S
H489 C501 0.929 . S
H490 C504 0.930 . S
H491 C506 0.960 . S
H492 C506 0.960 . S
H493 C506 0.960 . S
C494 H486 0.929 . S
C494 C495 1.377 . S
C494 C496 1.384 . S
C495 C494 1.377 . S
C495 C501 1.390 . S
C496 H487 0.930 . S
C496 C494 1.384 . S
C496 C497 1.372 1_455 S
C497 C496 1.372 1_655 S
C497 C498 1.400 1_655 S
C497 C502 1.490 . S
C498 H488 0.930 1_455 S
C498 C497 1.400 1_455 S
C498 C501 1.386 . S
H499 C515 0.930 . S
H500 C516 0.931 . S
C501 H489 0.929 . S
C501 C495 1.390 . S
C501 C498 1.386 . S
C502 C497 1.490 . S
C502 C504 1.395 . S
C502 C505 1.403 . S
H503 C509 0.930 . S
C504 H490 0.930 . S
C504 C502 1.395 . S
C504 C507 1.403 . S
C505 C502 1.403 . S
C505 C506 1.524 . S
C505 C509 1.400 . S
C506 H491 0.960 . S
C506 H492 0.960 . S
C506 H493 0.960 . S
C506 C505 1.524 . S
C507 C504 1.403 . S
C507 C508 1.392 . S
C507 C511 1.495 . S
C508 C507 1.392 . S
C508 C509 1.385 . S
C508 C510 1.478 . S
C509 H503 0.930 . S
C509 C505 1.400 . S
C509 C508 1.385 . S
C510 C508 1.478 . S
C510 C512 1.381 . S
C510 C516 1.383 . S
C511 C507 1.495 . S
C511 H517 0.959 . S
C511 H518 0.961 . S
C511 H519 0.960 . S
C512 C510 1.381 . S
C512 C513 1.394 . S
C512 H520 0.930 . S
C513 C512 1.394 . S
C513 C514 1.383 . S
C513 H521 0.929 . S
C514 C513 1.383 . S
C514 C515 1.377 . S
C515 H499 0.930 . S
C515 C514 1.377 . S
C515 C516 1.379 . S
C516 H500 0.931 . S
C516 C510 1.383 . S
C516 C515 1.379 . S
H517 C511 0.959 . S
H518 C511 0.961 . S
H519 C511 0.960 . S
H520 C512 0.930 . S
H521 C513 0.929 . S
H522 C530 0.929 . S
H523 C532 0.930 . S
H524 C534 0.930 . S
H525 C537 0.929 . S
H526 C540 0.930 . S
H527 C542 0.960 . S
H528 C542 0.960 . S
H529 C542 0.960 . S
C530 H522 0.929 . S
C530 C531 1.377 . S
C530 C532 1.384 . S
C531 C530 1.377 . S
C531 C537 1.390 . S
C532 H523 0.930 . S
C532 C530 1.384 . S
C532 C533 1.372 . S
C533 C532 1.372 . S
C533 C534 1.400 . S
C533 C538 1.490 . S
C534 H524 0.930 . S
C534 C533 1.400 . S
C534 C537 1.386 . S
H535 C551 0.930 . S
H536 C552 0.931 . S
C537 H525 0.929 . S
C537 C531 1.390 . S
C537 C534 1.386 . S
C538 C533 1.490 . S
C538 C540 1.395 1_565 S
C538 C541 1.403 . S
H539 C545 0.930 . S
C540 H526 0.930 . S
C540 C538 1.395 1_545 S
C540 C543 1.403 . S
C541 C538 1.403 . S
C541 C542 1.524 . S
C541 C545 1.400 1_565 S
C542 H527 0.960 . S
C542 H528 0.960 . S
C542 H529 0.960 . S
C542 C541 1.524 . S
C543 C540 1.403 . S
C543 C544 1.392 . S
C543 C547 1.495 . S
C544 C543 1.392 . S
C544 C545 1.385 . S
C544 C546 1.478 . S
C545 H539 0.930 . S
C545 C541 1.400 1_545 S
C545 C544 1.385 . S
C546 C544 1.478 . S
C546 C548 1.381 . S
C546 C552 1.383 . S
C547 C543 1.495 . S
C547 H553 0.959 . S
C547 H554 0.961 . S
C547 H555 0.960 . S
C548 C546 1.381 . S
C548 C549 1.394 . S
C548 H556 0.930 . S
C549 C548 1.394 . S
C549 C550 1.383 . S
C549 H557 0.929 . S
C550 C549 1.383 . S
C550 C551 1.377 . S
C551 H535 0.930 . S
C551 C550 1.377 . S
C551 C552 1.379 . S
C552 H536 0.931 . S
C552 C546 1.383 . S
C552 C551 1.379 . S
H553 C547 0.959 . S
H554 C547 0.961 . S
H555 C547 0.960 . S
H556 C548 0.930 . S
H557 C549 0.929 . S
H558 C566 0.929 . S
H559 C568 0.930 . S
H560 C570 0.930 . S
H561 C573 0.929 . S
H562 C576 0.930 . S
H563 C578 0.960 . S
H564 C578 0.960 . S
H565 C578 0.960 . S
C566 H558 0.929 . S
C566 C567 1.377 . S
C566 C568 1.384 . S
C567 C566 1.377 . S
C567 C573 1.390 . S
C568 H559 0.930 . S
C568 C566 1.384 . S
C568 C569 1.372 . S
C569 C568 1.372 . S
C569 C570 1.400 . S
C569 C574 1.490 . S
C570 H560 0.930 . S
C570 C569 1.400 . S
C570 C573 1.386 . S
H571 C587 0.930 . S
H572 C588 0.931 . S
C573 H561 0.929 . S
C573 C567 1.390 . S
C573 C570 1.386 . S
C574 C569 1.490 . S
C574 C576 1.395 . S
C574 C577 1.403 1_556 S
H575 C581 0.930 . S
C576 H562 0.930 . S
C576 C574 1.395 . S
C576 C579 1.403 1_655 S
C577 C574 1.403 1_554 S
C577 C578 1.524 . S
C577 C581 1.400 . S
C578 H563 0.960 . S
C578 H564 0.960 . S
C578 H565 0.960 . S
C578 C577 1.524 . S
C579 C576 1.403 1_455 S
C579 C580 1.392 1_556 S
C579 C583 1.495 . S
C580 C579 1.392 1_554 S
C580 C581 1.385 1_455 S
C580 C582 1.478 . S
C581 H575 0.930 . S
C581 C577 1.400 . S
C581 C580 1.385 1_655 S
C582 C580 1.478 . S
C582 C584 1.381 . S
C582 C588 1.383 . S
C583 C579 1.495 . S
C583 H589 0.959 . S
C583 H590 0.991 . S
C583 H591 0.960 . S
C584 C582 1.381 . S
C584 C585 1.394 . S
C584 H592 0.930 . S
C585 C584 1.394 . S
C585 C586 1.383 . S
C585 H593 0.929 . S
C586 C585 1.383 . S
C586 C587 1.377 . S
C587 H571 0.930 . S
C587 C586 1.377 . S
C587 C588 1.379 . S
C588 H572 0.931 . S
C588 C582 1.383 . S
C588 C587 1.379 . S
H589 C583 0.959 . S
H590 C583 0.991 . S
H591 C583 0.960 . S
H592 C584 0.930 . S
H593 C585 0.929 . S
H594 C602 0.929 . S
H595 C604 0.930 . S
H596 C606 0.930 . S
H597 C609 0.929 . S
H598 C612 0.930 . S
H599 C614 0.960 . S
H600 C614 0.960 . S
H601 C614 0.960 . S
C602 H594 0.929 . S
C602 C603 1.377 . S
C602 C604 1.384 . S
C603 C602 1.377 . S
C603 C609 1.390 . S
C604 H595 0.930 . S
C604 C602 1.384 . S
C604 C605 1.372 . S
C605 C604 1.372 . S
C605 C606 1.400 . S
C605 C610 1.490 . S
C606 H596 0.930 . S
C606 C605 1.400 . S
C606 C609 1.386 . S
H607 C623 0.930 . S
H608 C624 0.931 . S
C609 H597 0.929 . S
C609 C603 1.390 . S
C609 C606 1.386 . S
C610 C605 1.490 . S
C610 C612 1.395 . S
C610 C613 1.403 . S
H611 C617 0.930 . S
C612 H598 0.930 . S
C612 C610 1.395 . S
C612 C615 1.403 . S
C613 C610 1.403 . S
C613 C614 1.524 . S
C613 C617 1.400 . S
C614 H599 0.960 . S
C614 H600 0.960 . S
C614 H601 0.960 . S
C614 C613 1.524 . S
C615 C612 1.403 . S
C615 C616 1.392 . S
C615 C619 1.495 . S
C616 C615 1.392 . S
C616 C617 1.385 . S
C616 C618 1.478 . S
C617 H611 0.930 . S
C617 C613 1.400 . S
C617 C616 1.385 . S
C618 C616 1.478 . S
C618 C620 1.381 . S
C618 C624 1.383 . S
C619 C615 1.495 . S
C619 H625 0.959 . S
C619 H626 0.961 . S
C619 H627 0.960 . S
C620 C618 1.381 . S
C620 C621 1.394 . S
C620 H628 0.930 . S
C621 C620 1.394 . S
C621 C622 1.383 . S
C621 H629 0.929 . S
C622 C621 1.383 . S
C622 C623 1.377 . S
C623 H607 0.930 . S
C623 C622 1.377 . S
C623 C624 1.379 . S
C624 H608 0.931 . S
C624 C618 1.383 . S
C624 C623 1.379 . S
H625 C619 0.959 . S
H626 C619 0.961 . S
H627 C619 0.960 . S
H628 C620 0.930 . S
H629 C621 0.929 . S
H630 C638 0.929 . S
H631 C640 0.930 . S
H632 C642 0.930 . S
H633 C645 0.929 . S
H634 C648 0.930 . S
H635 C650 0.960 . S
H636 C650 0.960 1_455 S
H637 C650 0.950 1_455 S
C638 H630 0.929 . S
C638 C639 1.377 . S
C638 C640 1.384 . S
C639 C638 1.377 . S
C639 C645 1.390 . S
C640 H631 0.930 . S
C640 C638 1.384 . S
C640 C641 1.372 . S
C641 C640 1.372 . S
C641 C642 1.400 . S
C641 C646 1.490 . S
C642 H632 0.930 . S
C642 C641 1.400 . S
C642 C645 1.386 . S
H643 C659 0.930 . S
H644 C660 0.931 . S
C645 H633 0.929 . S
C645 C639 1.390 . S
C645 C642 1.386 . S
C646 C641 1.490 . S
C646 C648 1.395 . S
C646 C649 1.403 . S
H647 C653 0.930 . S
C648 H634 0.930 . S
C648 C646 1.395 . S
C648 C651 1.403 . S
C649 C646 1.403 . S
C649 C650 1.524 1_455 S
C649 C653 1.400 1_455 S
C650 H635 0.960 . S
C650 H636 0.960 1_655 S
C650 H637 0.950 1_655 S
C650 C649 1.524 1_655 S
C651 C648 1.403 . S
C651 C652 1.392 1_455 S
C651 C655 1.495 . S
C652 C651 1.392 1_655 S
C652 C653 1.385 . S
C652 C654 1.478 . S
C653 H647 0.930 . S
C653 C649 1.400 1_655 S
C653 C652 1.385 . S
C654 C652 1.478 . S
C654 C656 1.381 . S
C654 C660 1.383 . S
C655 C651 1.495 . S
C655 H661 0.959 . S
C655 H662 0.961 . S
C655 H663 0.960 . S
C656 C654 1.381 . S
C656 C657 1.394 . S
C656 H664 0.930 . S
C657 C656 1.394 . S
C657 C658 1.383 . S
C657 H665 0.929 . S
C658 C657 1.383 . S
C658 C659 1.377 . S
C659 H643 0.930 . S
C659 C658 1.377 . S
C659 C660 1.379 . S
C660 H644 0.931 . S
C660 C654 1.383 . S
C660 C659 1.379 . S
H661 C655 0.959 . S
H662 C655 0.961 . S
H663 C655 0.960 . S
H664 C656 0.930 . S
H665 C657 0.929 . S
H666 C674 0.929 . S
H667 C676 0.930 . S
H668 C678 0.930 . S
H669 C681 0.929 . S
H670 C684 0.930 . S
H671 C686 0.960 . S
H672 C686 0.960 . S
H673 C686 0.960 . S
C674 H666 0.929 . S
C674 C675 1.377 . S
C674 C676 1.384 . S
C675 C674 1.377 . S
C675 C681 1.390 . S
C676 H667 0.930 . S
C676 C674 1.384 . S
C676 C677 1.372 . S
C677 C676 1.372 . S
C677 C678 1.400 . S
C677 C682 1.490 . S
C678 H668 0.930 . S
C678 C677 1.400 . S
C678 C681 1.386 . S
H679 C695 0.930 . S
H680 C696 0.931 . S
C681 H669 0.929 . S
C681 C675 1.390 . S
C681 C678 1.386 . S
C682 C677 1.490 . S
C682 C684 1.395 . S
C682 C685 1.403 . S
H683 C689 0.930 . S
C684 H670 0.930 . S
C684 C682 1.395 . S
C684 C687 1.403 . S
C685 C682 1.403 . S
C685 C686 1.524 . S
C685 C689 1.400 . S
C686 H671 0.960 . S
C686 H672 0.960 . S
C686 H673 0.960 . S
C686 C685 1.524 . S
C687 C684 1.403 . S
C687 C688 1.392 . S
C687 C691 1.495 . S
C688 C687 1.392 . S
C688 C689 1.385 . S
C688 C690 1.478 . S
C689 H683 0.930 . S
C689 C685 1.400 . S
C689 C688 1.385 . S
C690 C688 1.478 . S
C690 C692 1.381 . S
C690 C696 1.383 . S
C691 C687 1.495 . S
C691 H697 0.959 . S
C691 H698 0.961 . S
C691 H699 0.960 . S
C692 C690 1.381 . S
C692 C693 1.394 . S
C692 H700 0.930 . S
C693 C692 1.394 . S
C693 C694 1.383 . S
C693 H701 0.929 . S
C694 C693 1.383 . S
C694 C695 1.377 . S
C695 H679 0.930 . S
C695 C694 1.377 . S
C695 C696 1.379 . S
C696 H680 0.931 . S
C696 C690 1.383 . S
C696 C695 1.379 . S
H697 C691 0.959 . S
H698 C691 0.961 . S
H699 C691 0.960 . S
H700 C692 0.930 . S
H701 C693 0.929 . S
H702 C710 0.929 . S
H703 C712 0.930 . S
H704 C714 0.930 . S
H705 C717 0.929 . S
H706 C720 0.930 . S
H707 C722 0.960 . S
H708 C722 0.960 1_556 S
H709 C722 0.960 . S
C710 H702 0.929 . S
C710 C711 1.377 . S
C710 C712 1.384 . S
C711 C710 1.377 . S
C711 C717 1.390 . S
C712 H703 0.930 . S
C712 C710 1.384 . S
C712 C713 1.372 . S
C713 C712 1.372 . S
C713 C714 1.400 . S
C713 C718 1.490 . S
C714 H704 0.930 . S
C714 C713 1.400 . S
C714 C717 1.386 . S
H715 C731 0.930 . S
H716 C732 0.931 . S
C717 H705 0.929 . S
C717 C711 1.390 . S
C717 C714 1.386 . S
C718 C713 1.490 . S
C718 C720 1.395 1_545 S
C718 C721 1.424 . S
H719 C725 0.930 . S
C720 H706 0.930 . S
C720 C718 1.395 1_565 S
C720 C723 1.403 . S
C721 C718 1.424 . S
C721 C722 1.519 1_556 S
C721 C725 1.384 1_546 S
C722 H707 0.960 . S
C722 H708 0.960 1_554 S
C722 H709 0.960 . S
C722 C721 1.519 1_554 S
C723 C720 1.403 . S
C723 C724 1.392 1_556 S
C723 C727 1.495 . S
C724 C723 1.392 1_554 S
C724 C725 1.385 . S
C724 C726 1.478 . S
C725 H719 0.930 . S
C725 C721 1.384 1_564 S
C725 C724 1.385 . S
C726 C724 1.478 . S
C726 C728 1.381 . S
C726 C732 1.383 . S
C727 C723 1.495 . S
C727 H733 0.959 . S
C727 H734 0.965 1_556 S
C727 H735 0.960 . S
C728 C726 1.381 . S
C728 C729 1.394 . S
C728 H736 0.930 . S
C729 C728 1.394 . S
C729 C730 1.383 . S
C729 H737 0.929 . S
C730 C729 1.383 . S
C730 C731 1.377 . S
C731 H715 0.930 . S
C731 C730 1.377 . S
C731 C732 1.379 . S
C732 H716 0.931 . S
C732 C726 1.383 . S
C732 C731 1.379 . S
H733 C727 0.959 . S
H734 C727 0.965 1_554 S
H735 C727 0.960 . S
H736 C728 0.930 . S
H737 C729 0.929 . S
C207 C8 1.243 . S
C226 C173 1.223 . S
C243 C107 1.247 . S
C262 C41 1.259 . S
C279 C140 1.243 . S
C298 C74 1.238 . S
C315 C182 1.119 . S
C334 N5 1.098 . S
C351 C116 1.123 . S
C370 N38 1.080 . S
C387 N71 1.094 . S
C406 C149 1.125 . S
C423 C50 1.123 . S
C442 N104 1.118 . S
C459 C83 1.124 . S
C478 N137 1.110 . S
C495 N170 1.104 . S
C514 C17 1.129 . S
C531 C160 1.677 . S
C550 N14 1.644 . S
C567 N47 1.657 . S
C586 C193 1.681 . S
C603 C127 1.678 . S
C622 N80 1.642 . S
C639 N113 1.659 . S
C658 C94 1.674 . S
C675 C28 1.679 . S
C694 N146 1.644 . S
C711 C61 1.676 . S
C730 N179 1.644 . S
