# Generated by pormake.
# Topology fcj, (5)-cn, num edge types: 1
# Building blocks:
#     Node 0, Type 0, BuildingBlock: BEQFEK_clean_sbu_0, # of connection points: 5
#     Node 1, Type 0, BuildingBlock: BEQFEK_clean_sbu_0, # of connection points: 5
#     Node 2, Type 0, BuildingBlock: BEQFEK_clean_sbu_0, # of connection points: 5
#     Node 3, Type 0, BuildingBlock: BEQFEK_clean_sbu_0, # of connection points: 5
#     Node 4, Type 0, BuildingBlock: BEQFEK_clean_sbu_0, # of connection points: 5
#     Node 5, Type 0, BuildingBlock: BEQFEK_clean_sbu_0, # of connection points: 5
#     Node 6, Type 0, BuildingBlock: BEQFEK_clean_sbu_0, # of connection points: 5
#     Node 7, Type 0, BuildingBlock: BEQFEK_clean_sbu_0, # of connection points: 5
#     Node 8, Type 0, BuildingBlock: BEQFEK_clean_sbu_0, # of connection points: 5
#     Node 9, Type 0, BuildingBlock: BEQFEK_clean_sbu_0, # of connection points: 5
#     Node 10, Type 0, BuildingBlock: BEQFEK_clean_sbu_0, # of connection points: 5
#     Node 11, Type 0, BuildingBlock: BEQFEK_clean_sbu_0, # of connection points: 5
#     Node 12, Type 0, BuildingBlock: BEQFEK_clean_sbu_0, # of connection points: 5
#     Node 13, Type 0, BuildingBlock: BEQFEK_clean_sbu_0, # of connection points: 5
#     Node 14, Type 0, BuildingBlock: BEQFEK_clean_sbu_0, # of connection points: 5
#     Node 15, Type 0, BuildingBlock: BEQFEK_clean_sbu_0, # of connection points: 5
#     Node 16, Type 0, BuildingBlock: BEQFEK_clean_sbu_0, # of connection points: 5
#     Node 17, Type 0, BuildingBlock: BEQFEK_clean_sbu_0, # of connection points: 5
#     Node 18, Type 0, BuildingBlock: BEQFEK_clean_sbu_0, # of connection points: 5
#     Node 19, Type 0, BuildingBlock: BEQFEK_clean_sbu_0, # of connection points: 5
#     Node 20, Type 0, BuildingBlock: BEQFEK_clean_sbu_0, # of connection points: 5
#     Node 21, Type 0, BuildingBlock: BEQFEK_clean_sbu_0, # of connection points: 5
#     Node 22, Type 0, BuildingBlock: BEQFEK_clean_sbu_0, # of connection points: 5
#     Node 23, Type 0, BuildingBlock: BEQFEK_clean_sbu_0, # of connection points: 5
#     Edge 24, Type (0, 0), None
#     Edge 25, Type (0, 0), None
#     Edge 26, Type (0, 0), None
#     Edge 27, Type (0, 0), None
#     Edge 28, Type (0, 0), None
#     Edge 29, Type (0, 0), None
#     Edge 30, Type (0, 0), None
#     Edge 31, Type (0, 0), None
#     Edge 32, Type (0, 0), None
#     Edge 33, Type (0, 0), None
#     Edge 34, Type (0, 0), None
#     Edge 35, Type (0, 0), None
#     Edge 36, Type (0, 0), None
#     Edge 37, Type (0, 0), None
#     Edge 38, Type (0, 0), None
#     Edge 39, Type (0, 0), None
#     Edge 40, Type (0, 0), None
#     Edge 41, Type (0, 0), None
#     Edge 42, Type (0, 0), None
#     Edge 43, Type (0, 0), None
#     Edge 44, Type (0, 0), None
#     Edge 45, Type (0, 0), None
#     Edge 46, Type (0, 0), None
#     Edge 47, Type (0, 0), None
#     Edge 48, Type (0, 0), None
#     Edge 49, Type (0, 0), None
#     Edge 50, Type (0, 0), None
#     Edge 51, Type (0, 0), None
#     Edge 52, Type (0, 0), None
#     Edge 53, Type (0, 0), None
#     Edge 54, Type (0, 0), None
#     Edge 55, Type (0, 0), None
#     Edge 56, Type (0, 0), None
#     Edge 57, Type (0, 0), None
#     Edge 58, Type (0, 0), None
#     Edge 59, Type (0, 0), None
#     Edge 60, Type (0, 0), None
#     Edge 61, Type (0, 0), None
#     Edge 62, Type (0, 0), None
#     Edge 63, Type (0, 0), None
#     Edge 64, Type (0, 0), None
#     Edge 65, Type (0, 0), None
#     Edge 66, Type (0, 0), None
#     Edge 67, Type (0, 0), None
#     Edge 68, Type (0, 0), None
#     Edge 69, Type (0, 0), None
#     Edge 70, Type (0, 0), None
#     Edge 71, Type (0, 0), None
#     Edge 72, Type (0, 0), None
#     Edge 73, Type (0, 0), None
#     Edge 74, Type (0, 0), None
#     Edge 75, Type (0, 0), None
#     Edge 76, Type (0, 0), None
#     Edge 77, Type (0, 0), None
#     Edge 78, Type (0, 0), None
#     Edge 79, Type (0, 0), None
#     Edge 80, Type (0, 0), None
#     Edge 81, Type (0, 0), None
#     Edge 82, Type (0, 0), None
#     Edge 83, Type (0, 0), None
# Relax obj value: 0.316
# Max RMSD: 0.227
# Mean RMSD: 0.227
data_MOF--net-fcj--node1-BEQFEK_clean_sbu_0--edge1-none
_symmetry_space_group_name_H-M    P1
_symmetry_Int_Tables_number       1
_symmetry_cell_setting            triclinic
loop_
_symmetry_equiv_pos_as_xyz
'x, y, z'
_cell_length_a     27.731999
_cell_length_b     27.752582
_cell_length_c     27.657072
_cell_angle_alpha  89.999843
_cell_angle_beta   90.084141
_cell_angle_gamma 89.99868
loop_
_atom_site_label
_atom_site_type_symbol
_atom_site_fract_x
_atom_site_fract_y
_atom_site_fract_z
_atom_type_partial_charge
Co0 Co 0.10669 0.15163 0.26875 0.0
Co1 Co 0.02013 0.18085 0.3305 0.0
C2 C -0.00017 0.11796 0.25663 0.0
O3 O 0.0432 0.12426 0.24211 0.0
O4 O 0.98712 0.12887 0.29929 0.0
C5 C 0.19388 0.08913 0.2571 0.0
O6 O 0.1854 0.06569 0.2974 0.0
C7 C 0.93321 0.23201 0.3592 0.0
C8 C 0.94031 0.24045 0.43782 0.0
C9 C 0.9103 0.25122 0.39936 0.0
N10 N 0.97426 0.21041 0.37323 0.0
N11 N 0.97799 0.21543 0.42057 0.0
C12 C 0.91982 0.24044 0.30749 0.0
H13 H 0.9302 0.20893 0.28513 0.0
H14 H 0.88055 0.24744 0.30398 0.0
H15 H 0.93972 0.27235 0.29387 0.0
C16 C 0.1558 0.1522 0.36103 0.0
N17 N 0.11512 0.15584 0.33498 0.0
N18 N 0.07756 0.15785 0.36357 0.0
C19 C 0.09326 0.14841 0.40914 0.0
C20 C 0.14333 0.14554 0.40857 0.0
C21 C 0.20493 0.1654 0.34268 0.0
H22 H 0.22917 0.13374 0.34345 0.0
H23 H 0.22124 0.19294 0.36681 0.0
H24 H 0.20284 0.18015 0.30546 0.0
O25 O 0.10657 0.215 0.24512 0.0
O26 O 0.03136 0.22479 0.27049 0.0
H27 H 0.06364 0.15972 0.47966 0.0
H28 H 0.07676 0.09847 0.46568 0.0
C29 C 0.06223 0.13248 0.45032 0.0
H30 H 0.0246 0.12617 0.43819 0.0
H31 H 0.0081 0.20648 0.44081 0.0
O32 O 0.16418 0.12038 0.24106 0.0
C33 C 0.06568 0.23467 0.24104 0.0
Co34 Co 0.54561 0.3784 0.03401 0.0
Co35 Co 0.50706 0.29128 0.08988 0.0
C36 C 0.57275 0.26997 0.01943 0.0
O37 O 0.56913 0.31402 0.00586 0.0
O38 O 0.55901 0.25639 0.06086 0.0
C39 C 0.61237 0.4617 0.02041 0.0
O40 O 0.638 0.44881 0.05818 0.0
C41 C 0.46984 0.1993 0.12435 0.0
C42 C 0.42615 0.21964 0.18738 0.0
C43 C 0.43934 0.18041 0.15926 0.0
N44 N 0.47447 0.24698 0.13154 0.0
N45 N 0.44898 0.25879 0.17005 0.0
C46 C 0.48844 0.17363 0.08051 0.0
H47 H 0.4822 0.19599 0.04782 0.0
H48 H 0.52789 0.16826 0.08448 0.0
H49 H 0.47119 0.13784 0.07585 0.0
C50 C 0.55582 0.41943 0.13065 0.0
N51 N 0.54422 0.38298 0.1009 0.0
N52 N 0.53365 0.34441 0.12613 0.0
C53 C 0.54389 0.35378 0.17309 0.0
C54 C 0.55879 0.40153 0.17699 0.0
C55 C 0.55022 0.47169 0.11784 0.0
H56 H 0.58537 0.49042 0.1187 0.0
H57 H 0.52702 0.48974 0.14508 0.0
H58 H 0.53337 0.47584 0.08168 0.0
O59 O 0.4815 0.38375 0.01282 0.0
O60 O 0.46592 0.30715 0.0283 0.0
H61 H 0.50984 0.3229 0.23491 0.0
H62 H 0.57436 0.32239 0.23713 0.0
C63 C 0.54279 0.31739 0.2129 0.0
H64 H 0.54292 0.28028 0.19801 0.0
H65 H 0.44459 0.29397 0.18257 0.0
O66 O 0.57791 0.43536 0.0054 0.0
C67 C 0.45999 0.34508 0.00243 0.0
Co68 Co 0.37682 0.83323 0.76709 0.0
Co69 Co 0.45848 0.79495 0.83219 0.0
C70 C 0.48516 0.86058 0.76039 0.0
O71 O 0.44165 0.85843 0.74532 0.0
O72 O 0.49689 0.84558 0.80225 0.0
C73 C 0.29016 0.89647 0.7574 0.0
O74 O 0.29515 0.91377 0.8013 0.0
C75 C 0.54488 0.75208 0.87578 0.0
C76 C 0.51428 0.70785 0.93411 0.0
C77 C 0.55735 0.71896 0.91137 0.0
N78 N 0.49713 0.76026 0.87783 0.0
N79 N 0.47917 0.734 0.9133 0.0
C80 C 0.57645 0.76996 0.83575 0.0
H81 H 0.55845 0.76378 0.80041 0.0
H82 H 0.58158 0.80939 0.83993 0.0
H83 H 0.61227 0.75212 0.83616 0.0
C84 C 0.32255 0.82211 0.85462 0.0
N85 N 0.3651 0.82419 0.83196 0.0
N86 N 0.40029 0.81847 0.86295 0.0
C87 C 0.38092 0.82 0.90805 0.0
C88 C 0.33074 0.82215 0.90382 0.0
C89 C 0.27598 0.81003 0.8296 0.0
H90 H 0.24839 0.83792 0.83741 0.0
H91 H 0.26216 0.77508 0.8432 0.0
H92 H 0.28117 0.80559 0.79018 0.0
O93 O 0.37629 0.77186 0.739 0.0
O94 O 0.44691 0.7521 0.77188 0.0
H95 H 0.40031 0.78365 0.97347 0.0
H96 H 0.39822 0.84767 0.9782 0.0
C97 C 0.409 0.8176 0.95416 0.0
H98 H 0.44827 0.82001 0.94708 0.0
H99 H 0.44247 0.73053 0.92054 0.0
O100 O 0.32182 0.86861 0.73903 0.0
C101 C 0.41435 0.74674 0.73929 0.0
Co102 Co 0.92701 0.60328 0.53803 0.0
Co103 Co 0.96943 0.69064 0.59259 0.0
C104 C 0.90389 0.71206 0.52064 0.0
O105 O 0.90482 0.66741 0.50863 0.0
O106 O 0.91916 0.72646 0.56135 0.0
C107 C 0.85918 0.51694 0.52418 0.0
O108 O 0.82931 0.52803 0.55924 0.0
C109 C 0.00959 0.78175 0.62671 0.0
C110 C 0.0515 0.76036 0.69075 0.0
C111 C 0.04013 0.79982 0.66216 0.0
N112 N 0.00311 0.73434 0.63417 0.0
N113 N 0.02762 0.72192 0.6732 0.0
C114 C -0.00708 0.80757 0.58215 0.0
H115 H -0.00062 0.78473 0.54985 0.0
H116 H 0.95354 0.81405 0.58486 0.0
H117 H 0.01132 0.84281 0.57773 0.0
C118 C 0.91822 0.56426 0.63456 0.0
N119 N 0.93017 0.60027 0.60461 0.0
N120 N 0.94141 0.6389 0.62945 0.0
C121 C 0.93141 0.62997 0.67655 0.0
C122 C 0.916 0.58244 0.68075 0.0
C123 C 0.92213 0.51185 0.62182 0.0
H124 H 0.88622 0.49467 0.62137 0.0
H125 H 0.94368 0.49277 0.64977 0.0
H126 H 0.93992 0.50708 0.58626 0.0
O127 O 0.99035 0.59695 0.5147 0.0
O128 O 0.01077 0.67215 0.53239 0.0
H129 H 0.96568 0.66039 0.73859 0.0
H130 H 0.90121 0.66229 0.7401 0.0
C131 C 0.93305 0.66653 0.71617 0.0
H132 H 0.93378 0.70357 0.70112 0.0
H133 H 0.03069 0.68669 0.68596 0.0
O134 O 0.89379 0.54499 0.51279 0.0
C135 C 0.01463 0.63441 0.50588 0.0
Co136 Co 0.60285 0.33332 0.71531 0.0
Co137 Co 0.52117 0.29502 0.65023 0.0
C138 C 0.49451 0.36064 0.72205 0.0
O139 O 0.53802 0.35851 0.73711 0.0
O140 O 0.48276 0.34563 0.6802 0.0
C141 C 0.68954 0.39655 0.72497 0.0
O142 O 0.68455 0.41384 0.68106 0.0
C143 C 0.43479 0.25212 0.60666 0.0
C144 C 0.46542 0.20789 0.54833 0.0
C145 C 0.42234 0.21899 0.57107 0.0
N146 N 0.48254 0.26032 0.60461 0.0
N147 N 0.50051 0.23406 0.56915 0.0
C148 C 0.40322 0.27 0.64668 0.0
H149 H 0.42121 0.26381 0.68203 0.0
H150 H 0.39808 0.30943 0.6425 0.0
H151 H 0.36739 0.25215 0.64625 0.0
C152 C 0.65709 0.32218 0.62774 0.0
N153 N 0.61455 0.32428 0.65043 0.0
N154 N 0.57934 0.31856 0.61946 0.0
C155 C 0.59869 0.32007 0.57435 0.0
C156 C 0.64887 0.3222 0.57856 0.0
C157 C 0.70367 0.3101 0.65274 0.0
H158 H 0.73126 0.33799 0.6449 0.0
H159 H 0.71749 0.27515 0.63914 0.0
H160 H 0.69851 0.30568 0.69216 0.0
O161 O 0.60339 0.27195 0.7434 0.0
O162 O 0.53278 0.25216 0.71053 0.0
H163 H 0.57925 0.28376 0.50892 0.0
H164 H 0.58135 0.34779 0.50423 0.0
C165 C 0.57058 0.3177 0.52826 0.0
H166 H 0.53131 0.32012 0.53537 0.0
H167 H 0.53721 0.2306 0.56191 0.0
O168 O 0.65787 0.3687 0.74334 0.0
C169 C 0.56535 0.2468 0.74312 0.0
Co170 Co 0.43417 0.87841 0.44842 0.0
Co171 Co 0.4727 0.79129 0.39254 0.0
C172 C 0.407 0.76998 0.46296 0.0
O173 O 0.41064 0.81402 0.47655 0.0
O174 O 0.42073 0.7564 0.42152 0.0
C175 C 0.36742 0.9617 0.46204 0.0
O176 O 0.34179 0.9488 0.42427 0.0
C177 C 0.50991 0.6993 0.35807 0.0
C178 C 0.5536 0.71962 0.29504 0.0
C179 C 0.54041 0.6804 0.32316 0.0
N180 N 0.5053 0.74698 0.35088 0.0
N181 N 0.53078 0.75878 0.31237 0.0
C182 C 0.4913 0.67363 0.40191 0.0
H183 H 0.49752 0.696 0.4346 0.0
H184 H 0.45185 0.66826 0.39793 0.0
H185 H 0.50855 0.63785 0.40658 0.0
C186 C 0.42395 0.91945 0.35179 0.0
N187 N 0.43555 0.883 0.38152 0.0
N188 N 0.44612 0.84443 0.35629 0.0
C189 C 0.43588 0.85381 0.30933 0.0
C190 C 0.42098 0.90157 0.30544 0.0
C191 C 0.42956 0.97171 0.36461 0.0
H192 H 0.3944 0.99044 0.36376 0.0
H193 H 0.45275 0.98976 0.33737 0.0
H194 H 0.44642 0.97586 0.40076 0.0
O195 O 0.49829 0.88375 0.46958 0.0
O196 O 0.51382 0.80713 0.45415 0.0
H197 H 0.46994 0.82295 0.24751 0.0
H198 H 0.40542 0.82244 0.24528 0.0
C199 C 0.43698 0.81743 0.26951 0.0
H200 H 0.43686 0.78032 0.28439 0.0
H201 H 0.53518 0.79395 0.29984 0.0
O202 O 0.40188 0.93536 0.47705 0.0
C203 C 0.51976 0.84506 0.48001 0.0
Co204 Co 0.87311 0.65144 0.21366 0.0
Co205 Co 0.95968 0.68073 0.15195 0.0
C206 C 0.97998 0.61778 0.22579 0.0
O207 O 0.9366 0.62406 0.24029 0.0
O208 O -0.00729 0.62874 0.18314 0.0
C209 C 0.78588 0.589 0.22533 0.0
O210 O 0.79433 0.56553 0.18503 0.0
C211 C 0.04663 0.73182 0.12322 0.0
C212 C 0.03927 0.74065 0.04467 0.0
C213 C 0.06942 0.75119 0.08307 0.0
N214 N 0.00551 0.71034 0.10922 0.0
N215 N 0.00162 0.7156 0.06191 0.0
C216 C 0.06017 0.74004 0.17492 0.0
H217 H 0.04974 0.7085 0.19721 0.0
H218 H 0.09947 0.74691 0.17836 0.0
H219 H 0.0404 0.77198 0.18868 0.0
C220 C 0.82402 0.65203 0.12138 0.0
N221 N 0.86469 0.65567 0.14744 0.0
N222 N 0.90226 0.65773 0.11885 0.0
C223 C 0.88658 0.64835 0.07327 0.0
C224 C 0.83651 0.64543 0.07382 0.0
C225 C 0.77488 0.66523 0.13971 0.0
H226 H 0.75065 0.63357 0.13892 0.0
H227 H 0.75858 0.69278 0.1156 0.0
H228 H 0.77697 0.67996 0.17694 0.0
O229 O 0.87324 0.7148 0.23732 0.0
O230 O 0.94844 0.72468 0.21196 0.0
H231 H 0.91613 0.65981 0.00274 0.0
H232 H 0.9032 0.59851 0.01667 0.0
C233 C 0.91763 0.63255 0.03206 0.0
H234 H 0.9553 0.62634 0.04416 0.0
H235 H 0.9714 0.70682 0.04175 0.0
O236 O 0.81561 0.62021 0.24136 0.0
C237 C 0.91411 0.73451 0.24139 0.0
Co238 Co 0.05248 0.10317 0.94437 0.0
Co239 Co 0.01021 0.19057 0.88978 0.0
C240 C 0.07572 0.21195 0.96173 0.0
O241 O 0.07469 0.16731 0.97376 0.0
O242 O 0.06052 0.22636 0.92099 0.0
C243 C 0.12026 0.01685 0.95829 0.0
O244 O 0.15007 0.02792 0.92318 0.0
C245 C 0.9701 0.28171 0.85565 0.0
C246 C 0.92822 0.26035 0.79157 0.0
C247 C 0.93959 0.2998 0.82018 0.0
N248 N 0.97657 0.23429 0.84818 0.0
N249 N 0.95208 0.22189 0.80914 0.0
C250 C 0.98675 0.30751 0.90022 0.0
H251 H 0.98027 0.28466 0.93251 0.0
H252 H 0.02613 0.31398 0.89753 0.0
H253 H 0.96835 0.34275 0.90464 0.0
C254 C 0.06137 0.06415 0.84783 0.0
N255 N 0.04941 0.10016 0.87778 0.0
N256 N 0.03821 0.1388 0.85293 0.0
C257 C 0.04826 0.12988 0.80585 0.0
C258 C 0.06364 0.08234 0.80165 0.0
C259 C 0.05739 0.01174 0.86056 0.0
H260 H 0.09328 -0.00549 0.861 0.0
H261 H 0.03581 -0.0073 0.83261 0.0
H262 H 0.0396 0.00698 0.89612 0.0
O263 O 0.9891 0.09686 0.96757 0.0
O264 O 0.96889 0.17215 0.95002 0.0
H265 H 0.01407 0.16033 0.74378 0.0
H266 H 0.07853 0.1622 0.74234 0.0
C267 C 0.04667 0.16645 0.76623 0.0
H268 H 0.04595 0.20349 0.78129 0.0
H269 H 0.94901 0.18667 0.79636 0.0
O270 O 0.08565 0.0449 0.9697 0.0
C271 C 0.96494 0.13438 0.97648 0.0
Co272 Co 0.26835 0.10498 0.1244 0.0
Co273 Co 0.31882 0.02819 0.19418 0.0
C274 C 0.24912 0.00294 0.1124 0.0
O275 O 0.24422 0.04535 0.09507 0.0
O276 O 0.27729 -0.00656 0.14743 0.0
C277 C 0.24174 0.19516 0.06447 0.0
O278 O 0.26176 0.17988 0.02433 0.0
C279 C 0.36337 0.9586 0.26096 0.0
C280 C 0.42687 0.93391 0.21944 0.0
C281 C 0.4033 0.92839 0.26307 0.0
N282 N 0.36362 0.98146 0.21831 0.0
N283 N 0.40135 0.96617 0.1934 0.0
C284 C 0.32351 0.96342 0.29704 0.0
H285 H 0.32469 -7e-05 0.31335 0.0
H286 H 0.28829 0.95993 0.27826 0.0
H287 H 0.32604 0.93567 0.32578 0.0
C288 C 0.36671 0.14222 0.12107 0.0
N289 N 0.33552 0.10722 0.13322 0.0
N290 N 0.35459 0.0807 0.16768 0.0
C291 C 0.39737 0.1002 0.18057 0.0
C292 C 0.40647 0.13967 0.15107 0.0
C293 C 0.35599 0.1814 0.08569 0.0
H294 H 0.34163 0.1648 0.05238 0.0
H295 H 0.38831 0.20242 0.07565 0.0
H296 H 0.32957 0.20664 0.10175 0.0
O297 O 0.23711 0.09919 0.18665 0.0
O298 O 0.26995 0.05085 0.24167 0.0
H299 H 0.40207 0.06916 0.25162 0.0
H300 H 0.44701 0.11516 0.23883 0.0
C301 C 0.42614 0.08459 0.22357 0.0
H302 H 0.45198 0.05627 0.2122 0.0
H303 H 0.41 0.97819 0.15872 0.0
O304 O 0.24084 0.16832 0.1018 0.0
C305 C 0.23666 0.07954 0.22799 0.0
Co306 Co 0.61168 0.5398 0.88621 0.0
Co307 Co 0.6872 0.58053 0.9636 0.0
C308 C 0.71162 0.51038 0.88236 0.0
O309 O 0.67113 0.51088 0.86006 0.0
O310 O 0.71961 0.5353 0.91991 0.0
C311 C 0.51632 0.52449 0.82189 0.0
O312 O 0.52891 0.54434 0.78073 0.0
C313 C 0.76446 0.60673 0.03083 0.0
C314 C 0.79863 0.6683 -0.0066 0.0
C315 C 0.80269 0.63883 0.03346 0.0
N316 N 0.73883 0.61669 0.99094 0.0
N317 N 0.75959 0.65332 0.96852 0.0
C318 C 0.75495 0.56427 0.06273 0.0
H319 H 0.72133 0.57057 0.0835 0.0
H320 H 0.74914 0.53177 0.04008 0.0
H321 H 0.78535 0.55773 0.08798 0.0
C322 C 0.59072 0.64247 0.87756 0.0
N323 N 0.61803 0.60666 0.89524 0.0
N324 N 0.64292 0.62276 0.9323 0.0
C325 C 0.62902 0.66847 0.94156 0.0
C326 C 0.59554 0.68257 0.90683 0.0
C327 C 0.55608 0.63658 0.83671 0.0
H328 H 0.57324 0.61398 0.80867 0.0
H329 H 0.54626 0.67158 0.82023 0.0
H330 H 0.52267 0.61933 0.85024 0.0
O331 O 0.60907 0.50593 0.94893 0.0
O332 O 0.6554 0.53505 0.00795 0.0
H333 H 0.65626 0.67126 0.01441 0.0
H334 H 0.61296 0.71814 -0.00082 0.0
C335 C 0.64351 0.69611 0.98566 0.0
H336 H 0.67336 0.72095 0.97608 0.0
H337 H 0.74759 0.66755 0.93571 0.0
O338 O 0.54627 0.52196 0.85708 0.0
C339 C 0.62551 0.50402 0.99185 0.0
Co340 Co 0.21262 0.8749 0.62634 0.0
Co341 Co 0.16297 0.95083 0.6962 0.0
C342 C 0.23231 0.97475 0.61354 0.0
O343 O 0.23365 0.93345 0.59321 0.0
O344 O 0.20694 0.98316 0.65071 0.0
C345 C 0.23934 0.78621 0.56636 0.0
O346 O 0.2183 0.80255 0.52711 0.0
C347 C 0.12115 0.02563 0.75785 0.0
C348 C 0.05539 0.0463 0.71756 0.0
C349 C 0.08112 0.05561 0.75935 0.0
N350 N 0.11904 -0.00064 0.71734 0.0
N351 N 0.0801 0.01243 0.69292 0.0
C352 C 0.16223 0.02324 0.79293 0.0
H353 H 0.16245 0.98746 0.8108 0.0
H354 H 0.19674 0.02664 0.77293 0.0
H355 H 0.15997 0.05214 0.82055 0.0
C356 C 0.11467 0.8355 0.6252 0.0
N357 N 0.14589 0.87076 0.6367 0.0
N358 N 0.12681 0.89811 0.67042 0.0
C359 C 0.08368 0.87934 0.68314 0.0
C360 C 0.07452 0.83932 0.65442 0.0
C361 C 0.12562 0.7949 0.59149 0.0
H362 H 0.13753 0.81018 0.55663 0.0
H363 H 0.09402 0.77171 0.58419 0.0
H364 H 0.15409 0.77196 0.60754 0.0
O365 O 0.24551 0.88479 0.6878 0.0
O366 O 0.21102 0.92946 0.7448 0.0
H367 H 0.07783 0.9143 0.75229 0.0
H368 H 0.0348 0.86586 0.74215 0.0
C369 C 0.0544 0.89634 0.72517 0.0
H370 H 0.02734 0.92279 0.71213 0.0
H371 H 0.06987 -0.00251 0.65983 0.0
O372 O 0.24096 0.81198 0.6044 0.0
C373 C 0.24615 0.90404 0.7294 0.0
Co374 Co 0.87206 0.44085 0.39742 0.0
Co375 Co 0.78598 0.39368 0.45661 0.0
C376 C 0.76383 0.4656 0.38598 0.0
O377 O 0.80892 0.4713 0.37725 0.0
O378 O 0.74757 0.43155 0.41202 0.0
C379 C 0.96239 0.45431 0.32887 0.0
O380 O 0.95165 0.42516 0.29305 0.0
C381 C 0.6994 0.35975 0.5103 0.0
C382 C 0.72909 0.29557 0.54638 0.0
C383 C 0.68722 0.32231 0.54155 0.0
N384 N 0.74573 0.35421 0.49664 0.0
N385 N 0.76321 0.31597 0.51893 0.0
C386 C 0.67018 0.4037 0.49925 0.0
H387 H 0.64329 0.41079 0.52806 0.0
H388 H 0.69415 0.43545 0.49502 0.0
H389 H 0.65079 0.39807 0.46458 0.0
C390 C 0.90268 0.3409 0.39217 0.0
N391 N 0.86989 0.37433 0.40436 0.0
N392 N 0.83144 0.35324 0.42236 0.0
C393 C 0.83722 0.30495 0.41745 0.0
C394 C 0.88262 0.29604 0.39876 0.0
C395 C 0.95493 0.35106 0.38281 0.0
H396 H 0.96147 0.35096 0.34336 0.0
H397 H 0.97842 0.32278 0.39849 0.0
H398 H 0.96567 0.38582 0.39916 0.0
O399 O 0.88068 0.47016 0.45865 0.0
O400 O 0.81503 0.44703 0.4984 0.0
H401 H 0.80838 0.24664 0.45912 0.0
H402 H 0.79916 0.24151 0.39561 0.0
C403 C 0.7994 0.26752 0.42612 0.0
H404 H 0.76319 0.28412 0.42924 0.0
H405 H 0.7993 0.30552 0.51783 0.0
O406 O 0.93296 0.46111 0.36368 0.0
C407 C 0.85187 0.47432 0.49376 0.0
Co408 Co 0.76711 0.37492 0.856 0.0
Co409 Co 0.81676 0.45086 0.78616 0.0
C410 C 0.74745 0.47475 0.86886 0.0
O411 O 0.7461 0.43344 0.88917 0.0
O412 O 0.77279 0.48318 0.83168 0.0
C413 C 0.74037 0.28626 0.91597 0.0
O414 O 0.76139 0.30262 0.95523 0.0
C415 C 0.85851 0.52574 0.72458 0.0
C416 C 0.92436 0.5463 0.76478 0.0
C417 C 0.89856 0.55571 0.72306 0.0
N418 N 0.86068 0.49939 0.76503 0.0
N419 N 0.89967 0.5124 0.78941 0.0
C420 C 0.81737 0.52343 0.68957 0.0
H421 H 0.8171 0.48768 0.67164 0.0
H422 H 0.7829 0.52683 0.70962 0.0
H423 H 0.81961 0.55236 0.66197 0.0
C424 C 0.86505 0.33549 0.85713 0.0
N425 N 0.83383 0.37077 0.84564 0.0
N426 N 0.85292 0.39812 0.81192 0.0
C427 C 0.89604 0.37933 0.7992 0.0
C428 C 0.9052 0.33931 0.82792 0.0
C429 C 0.85408 0.29488 0.89082 0.0
H430 H 0.84216 0.31016 0.92568 0.0
H431 H 0.88566 0.27168 0.89812 0.0
H432 H 0.82561 0.27196 0.87476 0.0
O433 O 0.7342 0.38484 0.79456 0.0
O434 O 0.76869 0.42951 0.73757 0.0
H435 H 0.90193 0.41437 0.73008 0.0
H436 H 0.94487 0.36583 0.74015 0.0
C437 C 0.92534 0.39633 0.75718 0.0
H438 H 0.95245 0.42271 0.77023 0.0
H439 H 0.90996 0.49739 0.82245 0.0
O440 O 0.73876 0.31201 0.87792 0.0
C441 C 0.73356 0.40411 0.75296 0.0
Co442 Co 0.36805 0.03982 0.59624 0.0
Co443 Co 0.29257 0.08052 0.51882 0.0
C444 C 0.26812 0.01039 0.60005 0.0
O445 O 0.3086 0.0109 0.62236 0.0
O446 O 0.26014 0.0353 0.56249 0.0
C447 C 0.4634 0.02453 0.6606 0.0
O448 O 0.45086 0.04442 0.70175 0.0
C449 C 0.21537 0.1068 0.45154 0.0
C450 C 0.18116 0.16831 0.48904 0.0
C451 C 0.17714 0.1389 0.44892 0.0
N452 N 0.24096 0.1167 0.49147 0.0
N453 N 0.22018 0.15329 0.51393 0.0
C454 C 0.22491 0.06438 0.4196 0.0
H455 H 0.25851 0.07072 0.39883 0.0
H456 H 0.23073 0.03185 0.44221 0.0
H457 H 0.19451 0.05785 0.39434 0.0
C458 C 0.389 0.14249 0.60488 0.0
N459 N 0.3617 0.10668 0.5872 0.0
N460 N 0.33682 0.12276 0.55013 0.0
C461 C 0.35071 0.16848 0.54086 0.0
C462 C 0.38417 0.18259 0.57561 0.0
C463 C 0.42363 0.13662 0.64574 0.0
H464 H 0.40646 0.11402 0.67379 0.0
H465 H 0.43343 0.17163 0.66222 0.0
H466 H 0.45704 0.11937 0.63223 0.0
O467 O 0.3707 0.00594 0.53352 0.0
O468 O 0.32439 0.03505 0.47448 0.0
H469 H 0.32354 0.17124 0.46799 0.0
H470 H 0.36675 0.21818 0.48326 0.0
C471 C 0.33622 0.1961 0.49676 0.0
H472 H 0.30633 0.2209 0.50631 0.0
H473 H 0.23215 0.16747 0.54677 0.0
O474 O 0.43343 0.02199 0.62543 0.0
C475 C 0.35428 0.00402 0.49059 0.0
Co476 Co 0.71139 0.60497 0.35801 0.0
Co477 Co 0.66091 0.52814 0.28828 0.0
C478 C 0.7306 0.50294 0.37009 0.0
O479 O 0.73553 0.54537 0.38736 0.0
O480 O 0.70242 0.49342 0.33508 0.0
C481 C 0.73798 0.6952 0.41792 0.0
O482 O 0.71804 0.67992 0.45809 0.0
C483 C 0.61638 0.45855 0.22149 0.0
C484 C 0.55287 0.43387 0.26299 0.0
C485 C 0.57645 0.42834 0.21937 0.0
N486 N 0.61612 0.48142 0.26415 0.0
N487 N 0.57838 0.46613 0.28905 0.0
C488 C 0.65626 0.46337 0.18543 0.0
H489 H 0.65509 0.49988 0.16913 0.0
H490 H 0.69147 0.45986 0.20422 0.0
H491 H 0.65373 0.43562 0.15669 0.0
C492 C 0.61302 0.64219 0.36136 0.0
N493 N 0.64422 0.60719 0.3492 0.0
N494 N 0.62514 0.58067 0.31475 0.0
C495 C 0.58236 0.60018 0.30186 0.0
C496 C 0.57326 0.63965 0.33135 0.0
C497 C 0.62374 0.68136 0.39675 0.0
H498 H 0.63818 0.66475 0.43003 0.0
H499 H 0.5914 0.70232 0.40686 0.0
H500 H 0.65009 0.70665 0.38067 0.0
O501 O 0.74265 0.59915 0.29577 0.0
O502 O 0.7098 0.55076 0.2408 0.0
H503 H 0.57765 0.56911 0.23082 0.0
H504 H 0.53272 0.61514 0.24359 0.0
C505 C 0.55358 0.58456 0.25886 0.0
H506 H 0.52774 0.55625 0.27024 0.0
H507 H 0.56971 0.47815 0.32372 0.0
O508 O 0.73884 0.66835 0.38059 0.0
C509 C 0.7431 0.57946 0.25445 0.0
Co510 Co 0.10768 0.94084 0.08525 0.0
Co511 Co 0.19364 0.89371 0.02579 0.0
C512 C 0.21587 0.9656 0.09654 0.0
O513 O 0.17081 0.97125 0.10542 0.0
O514 O 0.23207 0.93166 0.07031 0.0
C515 C 0.01734 0.95444 0.15385 0.0
O516 O 0.02812 0.92552 0.18984 0.0
C517 C 0.28022 0.85972 0.97208 0.0
C518 C 0.25044 0.79564 0.9359 0.0
C519 C 0.29235 0.8223 0.9408 0.0
N520 N 0.23387 0.85425 0.98571 0.0
N521 N 0.21634 0.81608 0.96336 0.0
C522 C 0.3095 0.90362 0.9832 0.0
H523 H 0.33643 0.91069 0.95442 0.0
H524 H 0.28557 0.9354 0.98743 0.0
H525 H 0.32884 0.89794 0.01788 0.0
C526 C 0.07713 0.84085 0.09055 0.0
N527 N 0.10986 0.8743 0.07827 0.0
N528 N 0.14825 0.85323 0.06011 0.0
C529 C 0.14248 0.80493 0.06494 0.0
C530 C 0.09714 0.796 0.08379 0.0
C531 C 0.02494 0.851 0.10027 0.0
H532 H 0.01874 0.85115 0.13978 0.0
H533 H 0.00134 0.82262 0.08498 0.0
H534 H 0.01404 0.88566 0.08381 0.0
O535 O 0.09905 0.97023 0.02404 0.0
O536 O 0.16447 0.94695 0.98399 0.0
H537 H 0.1712 0.74674 0.02303 0.0
H538 H 0.18053 0.74139 0.08651 0.0
C539 C 0.18025 0.7675 0.05609 0.0
H540 H 0.21648 0.78409 0.05296 0.0
H541 H 0.18023 0.80569 0.96443 0.0
O542 O 0.04676 0.96107 0.11899 0.0
C543 C 0.12769 0.97429 0.98877 0.0
Co544 Co 0.11532 0.27516 0.09711 0.0
Co545 Co 0.17282 0.3212 0.00809 0.0
C546 C 0.09451 0.24763 -0.00428 0.0
O547 O 0.08546 0.24289 0.04076 0.0
O548 O 0.12202 0.2805 0.97925 0.0
C549 C 0.05599 0.2576 0.19417 0.0
O550 O 0.01228 0.27132 0.18211 0.0
C551 C 0.24041 0.35461 0.93273 0.0
C552 C 0.20418 0.41938 0.90383 0.0
C553 C 0.24546 0.3918 0.89934 0.0
N554 N 0.19848 0.3602 0.95626 0.0
N555 N 0.17656 0.39855 0.93815 0.0
C556 C 0.27347 0.3127 0.94056 0.0
H557 H 0.25248 0.27876 0.93793 0.0
H558 H 0.30304 0.31191 0.9136 0.0
H559 H 0.2887 0.31446 0.97763 0.0
C560 C 0.11089 0.37665 0.12542 0.0
N561 N 0.12166 0.34295 0.09212 0.0
N562 N 0.15156 0.36141 0.06032 0.0
C563 C 0.1632 0.4066 0.07469 0.0
C564 C 0.13716 0.41796 0.11626 0.0
C565 C 0.0808 0.36755 0.16919 0.0
H566 H 0.04752 0.34884 0.15782 0.0
H567 H 0.07014 0.40115 0.18781 0.0
H568 H 0.10154 0.34526 0.19517 0.0
O569 O 0.17833 0.24207 0.0945 0.0
O570 O 0.21742 0.26941 0.02952 0.0
H571 H 0.23015 0.41263 0.03606 0.0
H572 H 0.21891 0.4607 0.07927 0.0
C573 C 0.20221 0.43627 0.05223 0.0
H574 H 0.18632 0.45872 0.0231 0.0
H575 H 0.14314 0.41115 0.94997 0.0
O576 O 0.09019 0.25783 0.16323 0.0
C577 C 0.21279 0.23946 0.06421 0.0
Co578 Co 0.61391 0.2046 0.8862 0.0
Co579 Co 0.67259 0.16145 0.97562 0.0
C580 C 0.5926 0.23403 0.9864 0.0
O581 O 0.58311 0.23727 0.94134 0.0
O582 O 0.6213 0.20247 0.00356 0.0
C583 C 0.55565 0.22024 0.78778 0.0
O584 O 0.51251 0.20306 0.79699 0.0
C585 C 0.74138 0.1289 0.05035 0.0
C586 C 0.70552 0.0645 0.08043 0.0
C587 C 0.7471 0.09183 0.08376 0.0
N588 N 0.6988 0.12344 0.02786 0.0
N589 N 0.67713 0.08533 0.04667 0.0
C590 C 0.77457 0.17044 0.04133 0.0
H591 H 0.75394 0.20459 0.04406 0.0
H592 H 0.80482 0.17126 0.06762 0.0
H593 H 0.78886 0.16816 0.00396 0.0
C594 C 0.61124 0.10275 0.85944 0.0
N595 N 0.62129 0.13711 0.89229 0.0
N596 N 0.65198 0.11993 0.92411 0.0
C597 C 0.66493 0.07498 0.91012 0.0
C598 C 0.63893 0.06239 0.86879 0.0
C599 C 0.58033 0.1105 0.81593 0.0
H600 H 0.5469 0.1287 0.82754 0.0
H601 H 0.57004 0.07639 0.79803 0.0
H602 H 0.60022 0.13275 0.78933 0.0
O603 O 0.67641 0.23863 0.88834 0.0
O604 O 0.71695 0.21283 0.95314 0.0
H605 H 0.73263 0.07157 0.94791 0.0
H606 H 0.72197 0.02222 0.90596 0.0
C607 C 0.70508 0.04683 0.93267 0.0
H608 H 0.69027 0.0247 0.96256 0.0
H609 H 0.64343 0.07275 0.03555 0.0
O610 O 0.58831 0.22114 0.82037 0.0
C611 C 0.71146 0.24204 0.91795 0.0
Co612 Co 0.54543 0.90897 0.62157 0.0
Co613 Co 0.59435 0.95147 0.71569 0.0
C614 C 0.52227 0.88031 0.72815 0.0
O615 O 0.51487 0.8804 0.6823 0.0
O616 O 0.55919 0.89991 0.747 0.0
C617 C 0.54016 0.84324 0.5292 0.0
O618 O 0.56947 0.8087 0.54297 0.0
C619 C 0.6179 -0.00553 0.81023 0.0
C620 C 0.68397 0.03555 0.79523 0.0
C621 C 0.65065 0.02621 0.83137 0.0
N622 N 0.63139 0.98546 0.76433 0.0
N623 N 0.67152 0.00968 0.75594 0.0
C624 C 0.57076 0.97836 0.83104 0.0
H625 H 0.54145 0.98442 0.80434 0.0
H626 H 0.57255 0.93909 0.83832 0.0
H627 H 0.56241 -0.00256 0.8653 0.0
C628 C 0.64431 0.9079 0.58846 0.0
N629 N 0.6122 0.91753 0.62345 0.0
N630 N 0.63472 0.92694 0.66416 0.0
C631 C 0.68243 0.9186 0.65699 0.0
C632 C 0.68962 0.9058 0.60876 0.0
C633 C 0.63363 0.91184 0.53544 0.0
H634 H 0.63135 0.8757 0.51894 0.0
H635 H 0.66323 0.93134 0.5168 0.0
H636 H 0.59935 0.93152 0.5293 0.0
O637 O 0.51381 0.97043 0.62024 0.0
O638 O 0.53695 -0.00652 0.69386 0.0
H639 H 0.74293 0.95147 0.69159 0.0
H640 H 0.74386 0.88705 0.69183 0.0
C641 C 0.72003 0.91896 0.69574 0.0
H642 H 0.70316 0.91876 0.73209 0.0
H643 H 0.68835 0.0117 0.72232 0.0
O644 O 0.52913 0.87786 0.55773 0.0
C645 C 0.50878 -0.00297 0.65718 0.0
Co646 Co 0.86423 0.77519 0.38516 0.0
Co647 Co 0.80696 0.82132 0.47428 0.0
C648 C 0.88511 0.74776 0.48666 0.0
O649 O 0.89398 0.74292 0.44159 0.0
O650 O 0.85781 0.78076 0.50318 0.0
C651 C 0.92373 0.75754 0.28823 0.0
O652 O 0.96739 0.77143 0.30028 0.0
C653 C 0.73916 0.8548 0.5494 0.0
C654 C 0.77557 0.91928 0.57875 0.0
C655 C 0.73411 0.89192 0.58287 0.0
N656 N 0.78123 0.86028 0.52609 0.0
N657 N 0.80324 0.89846 0.54446 0.0
C658 C 0.70603 0.81299 0.54137 0.0
H659 H 0.72693 0.77899 0.54399 0.0
H660 H 0.67638 0.81219 0.56825 0.0
H661 H 0.69091 0.81488 0.50426 0.0
C662 C 0.86852 0.87666 0.35668 0.0
N663 N 0.85786 0.84299 0.39005 0.0
N664 N 0.82819 0.86153 0.42203 0.0
C665 C 0.81665 0.90679 0.40777 0.0
C666 C 0.8425 0.91808 0.36606 0.0
C667 C 0.89818 0.86744 0.31263 0.0
H668 H 0.93172 0.84906 0.32378 0.0
H669 H 0.90839 0.90095 0.2936 0.0
H670 H 0.87732 0.84478 0.28708 0.0
O671 O 0.80121 0.74218 0.38765 0.0
O672 O 0.76244 0.7694 0.45288 0.0
H673 H 0.7498 0.91306 0.44651 0.0
H674 H 0.76137 0.96137 0.40366 0.0
C675 C 0.7779 0.93661 0.43049 0.0
H676 H 0.794 0.95869 0.45979 0.0
H677 H 0.8368 0.91092 0.53288 0.0
O678 O 0.88951 0.75776 0.31914 0.0
C679 C 0.76691 0.73951 0.41811 0.0
Co680 Co 0.93669 0.072 0.11822 0.0
Co681 Co 0.88888 0.02781 0.21244 0.0
C682 C 0.96333 0.09811 0.22376 0.0
O683 O 0.96965 0.10011 0.17784 0.0
O684 O 0.92679 0.07779 0.24261 0.0
C685 C 0.9425 0.13571 0.02468 0.0
O686 O 0.91362 0.1708 0.03788 0.0
C687 C 0.86524 0.98535 0.30737 0.0
C688 C 0.79791 0.94616 0.29262 0.0
C689 C 0.83169 0.95457 0.32863 0.0
N690 N 0.85164 -0.00518 0.26155 0.0
N691 N 0.81084 0.97165 0.2533 0.0
C692 C 0.9131 -0.00021 0.32784 0.0
H693 H 0.92083 0.98091 0.36237 0.0
H694 H 0.94198 -0.00793 0.30118 0.0
H695 H 0.91304 0.03923 0.33445 0.0
C696 C 0.83699 0.07536 0.08712 0.0
N697 N 0.8698 0.06464 0.12124 0.0
N698 N 0.84809 0.05442 0.16213 0.0
C699 C 0.80035 0.06365 0.15618 0.0
C700 C 0.7922 0.07758 0.10843 0.0
C701 C 0.84621 0.07161 0.03384 0.0
H702 H 0.84883 0.10781 0.01755 0.0
H703 H 0.81575 0.05287 0.01572 0.0
H704 H 0.87988 0.05125 0.02676 0.0
O705 O 0.9668 0.01037 0.11729 0.0
O706 O 0.94458 0.98432 0.19014 0.0
H707 H 0.74014 0.03137 0.19172 0.0
H708 H 0.74033 0.09576 0.19273 0.0
C709 C 0.76371 0.06342 0.19575 0.0
H710 H 0.78145 0.06299 0.23171 0.0
H711 H 0.79382 0.96998 0.21972 0.0
O712 O 0.95325 0.10153 0.05384 0.0
C713 C 0.97232 0.98249 0.15318 0.0
Co714 Co 0.36584 0.70458 0.59615 0.0
Co715 Co 0.30716 0.66141 0.50674 0.0
C716 C 0.38715 0.73402 0.49599 0.0
O717 O 0.39667 0.73725 0.54104 0.0
O718 O 0.35844 0.70248 0.47882 0.0
C719 C 0.42407 0.72021 0.6946 0.0
O720 O 0.46722 0.70307 0.68539 0.0
C721 C 0.23846 0.62882 0.43194 0.0
C722 C 0.27425 0.56428 0.40208 0.0
C723 C 0.23272 0.59167 0.39862 0.0
N724 N 0.28099 0.62336 0.45449 0.0
N725 N 0.30263 0.58516 0.43581 0.0
C726 C 0.20531 0.67043 0.44082 0.0
H727 H 0.22599 0.70454 0.43806 0.0
H728 H 0.1751 0.67124 0.41448 0.0
H729 H 0.19096 0.66824 0.47817 0.0
C730 C 0.36856 0.60273 0.62289 0.0
N731 N 0.3585 0.63709 0.59005 0.0
N732 N 0.32776 0.61991 0.55826 0.0
C733 C 0.31479 0.57498 0.57229 0.0
C734 C 0.34083 0.56239 0.61359 0.0
C735 C 0.39954 0.61046 0.66635 0.0
H736 H 0.43292 0.62873 0.6547 0.0
H737 H 0.40992 0.57634 0.68417 0.0
H738 H 0.37967 0.63263 0.69302 0.0
O739 O 0.30333 0.73861 0.59397 0.0
O740 O 0.26276 0.71277 0.5292 0.0
H741 H 0.24711 0.57162 0.53446 0.0
H742 H 0.25764 0.52238 0.57657 0.0
C743 C 0.27459 0.54686 0.5498 0.0
H744 H 0.28937 0.52461 0.51998 0.0
H745 H 0.33629 0.57255 0.44702 0.0
O746 O 0.39141 0.7211 0.66202 0.0
C747 C 0.26826 0.742 0.56438 0.0
Co748 Co 0.0431 0.57194 0.36423 0.0
Co749 Co 0.09085 0.52752 0.27007 0.0
C750 C 0.01646 0.59792 0.25866 0.0
O751 O 0.01015 0.60001 0.30458 0.0
O752 O 0.05295 0.5775 0.23984 0.0
C753 C 0.0372 0.63571 0.45774 0.0
O754 O 0.06607 0.67082 0.44459 0.0
C755 C 0.11454 0.48517 0.1751 0.0
C756 C 0.18162 0.44558 0.18996 0.0
C757 C 0.14799 0.45426 0.15387 0.0
N758 N 0.12804 0.49445 0.22098 0.0
N759 N 0.1687 0.47105 0.22931 0.0
C760 C 0.06686 0.5 0.15447 0.0
H761 H 0.05912 0.48122 0.11988 0.0
H762 H 0.03783 0.49246 0.18101 0.0
H763 H 0.06725 0.53944 0.1479 0.0
C764 C 0.1428 0.57531 0.39529 0.0
N765 N 0.10998 0.56454 0.3612 0.0
N766 N 0.13168 0.55416 0.32034 0.0
C767 C 0.17943 0.56331 0.32627 0.0
C768 C 0.1876 0.57739 0.37397 0.0
C769 C 0.13358 0.57172 0.44858 0.0
H770 H 0.13094 0.60797 0.46475 0.0
H771 H 0.16405 0.55305 0.46676 0.0
H772 H 0.09992 0.55137 0.45571 0.0
O773 O 0.01294 0.51034 0.36523 0.0
O774 O 0.03515 0.48408 0.29245 0.0
H775 H 0.23946 0.53059 0.29084 0.0
H776 H 0.23967 0.59499 0.28969 0.0
C777 C 0.21609 0.56278 0.28673 0.0
H778 H 0.19838 0.56237 0.25076 0.0
H779 H 0.18562 0.46924 0.26293 0.0
O780 O 0.02652 0.60153 0.42857 0.0
C781 C 0.00741 0.48236 0.32941 0.0
Co782 Co 0.43421 0.409 0.86089 0.0
Co783 Co 0.38535 0.45153 0.76676 0.0
C784 C 0.4574 0.38036 0.7543 0.0
O785 O 0.4648 0.38045 0.80016 0.0
O786 O 0.42048 0.39996 0.73545 0.0
C787 C 0.43953 0.34326 0.95326 0.0
O788 O 0.41029 0.30866 0.93949 0.0
C789 C 0.36182 0.4945 0.6722 0.0
C790 C 0.2958 0.53566 0.6872 0.0
C791 C 0.32909 0.52626 0.65106 0.0
N792 N 0.34833 0.48554 0.71811 0.0
N793 N 0.30823 0.50981 0.72651 0.0
C794 C 0.40891 0.47831 0.65137 0.0
H795 H 0.41727 0.49735 0.6171 0.0
H796 H 0.43825 0.48432 0.67805 0.0
H797 H 0.40706 0.43903 0.64411 0.0
C798 C 0.33527 0.40783 0.89391 0.0
N799 N 0.36742 0.41753 0.85898 0.0
N800 N 0.34495 0.42699 0.81825 0.0
C801 C 0.29723 0.41863 0.82535 0.0
C802 C 0.28998 0.40575 0.87355 0.0
C803 C 0.34588 0.4116 0.94695 0.0
H804 H 0.34817 0.3754 0.96331 0.0
H805 H 0.31624 0.431 0.96563 0.0
H806 H 0.38013 0.43128 0.9532 0.0
O807 O 0.46583 0.47047 0.86225 0.0
O808 O 0.44276 0.4935 0.78861 0.0
H809 H 0.2368 0.45157 0.79069 0.0
H810 H 0.23582 0.38715 0.79041 0.0
C811 C 0.25968 0.41905 0.78655 0.0
H812 H 0.27659 0.41886 0.75023 0.0
H813 H 0.29141 0.51186 0.76013 0.0
O814 O 0.4505 0.37789 0.92472 0.0
C815 C 0.47091 0.49704 0.8253 0.0
loop_
_geom_bond_atom_site_label_1
_geom_bond_atom_site_label_2
_geom_bond_distance
_geom_bond_site_symmetry_2
_ccdc_geom_bond_type
Co0 O3 1.970 . S
Co0 N17 1.989 . S
Co0 O25 1.967 . S
Co0 O32 1.920 . S
Co1 O4 1.971 . S
Co1 N10 2.022 1_455 S
Co1 N18 1.993 . S
Co1 O26 1.941 . S
C2 O3 1.258 . S
C2 O4 1.265 . S
O3 Co0 1.970 . S
O3 C2 1.258 . S
O4 Co1 1.971 . S
O4 C2 1.265 . S
C5 O6 1.235 . S
C5 O32 1.289 . S
O6 C5 1.235 . S
C7 C9 1.400 . S
C7 N10 1.351 . S
C7 C12 1.501 . S
C8 C9 1.387 . S
C8 N11 1.341 1_655 S
C9 C7 1.400 . S
C9 C8 1.387 . S
N10 Co1 2.022 1_655 S
N10 C7 1.351 . S
N10 N11 1.365 1_655 S
N11 C8 1.341 1_455 S
N11 N10 1.365 1_455 S
N11 H31 0.862 . S
C12 C7 1.501 . S
C12 H13 0.961 . S
C12 H14 0.961 . S
C12 H15 0.960 . S
H13 C12 0.961 . S
H14 C12 0.961 . S
H15 C12 0.960 . S
C16 N17 1.342 . S
C16 C20 1.401 . S
C16 C21 1.499 . S
N17 Co0 1.989 . S
N17 C16 1.342 . S
N17 N18 1.388 . S
N18 Co1 1.993 . S
N18 N17 1.388 . S
N18 C19 1.346 . S
C19 N18 1.346 . S
C19 C20 1.396 . S
C19 C29 1.510 . S
C20 C16 1.401 . S
C20 C19 1.396 . S
C21 C16 1.499 . S
C21 H22 0.959 . S
C21 H23 0.960 . S
C21 H24 0.961 . S
H22 C21 0.959 . S
H23 C21 0.960 . S
H24 C21 0.961 . S
O25 Co0 1.967 . S
O25 C33 1.258 . S
O26 Co1 1.941 . S
O26 C33 1.266 . S
H27 C29 0.959 . S
H28 C29 0.961 . S
C29 C19 1.510 . S
C29 H27 0.959 . S
C29 H28 0.961 . S
C29 H30 0.960 . S
H30 C29 0.960 . S
H31 N11 0.862 . S
O32 Co0 1.920 . S
O32 C5 1.289 . S
C33 O25 1.258 . S
C33 O26 1.266 . S
Co34 O37 1.970 . S
Co34 N51 1.989 . S
Co34 O59 1.967 1_554 S
Co34 O66 1.920 1_554 S
Co35 O38 1.966 . S
Co35 N44 2.022 . S
Co35 N52 1.993 . S
Co35 O60 1.941 . S
C36 O37 1.258 . S
C36 O38 1.263 . S
O37 Co34 1.970 . S
O37 C36 1.258 . S
O38 Co35 1.966 . S
O38 C36 1.263 . S
C39 O40 1.235 . S
C39 O66 1.289 1_554 S
O40 C39 1.235 . S
C41 C43 1.400 . S
C41 N44 1.351 . S
C41 C46 1.501 . S
C42 C43 1.387 . S
C42 N45 1.341 . S
C43 C41 1.400 . S
C43 C42 1.387 . S
N44 Co35 2.022 . S
N44 C41 1.351 . S
N44 N45 1.365 . S
N45 C42 1.341 . S
N45 N44 1.365 . S
N45 H65 0.862 . S
C46 C41 1.501 . S
C46 H47 0.961 . S
C46 H48 0.961 . S
C46 H49 0.960 . S
H47 C46 0.961 . S
H48 C46 0.961 . S
H49 C46 0.960 . S
C50 N51 1.342 . S
C50 C54 1.401 . S
C50 C55 1.499 . S
N51 Co34 1.989 . S
N51 C50 1.342 . S
N51 N52 1.388 . S
N52 Co35 1.993 . S
N52 N51 1.388 . S
N52 C53 1.346 . S
C53 N52 1.346 . S
C53 C54 1.396 . S
C53 C63 1.510 . S
C54 C50 1.401 . S
C54 C53 1.396 . S
C55 C50 1.499 . S
C55 H56 0.959 . S
C55 H57 0.960 . S
C55 H58 0.961 . S
H56 C55 0.959 . S
H57 C55 0.960 . S
H58 C55 0.961 . S
O59 Co34 1.967 1_556 S
O59 C67 1.258 . S
O60 Co35 1.941 . S
O60 C67 1.266 1_554 S
H61 C63 0.959 . S
H62 C63 0.961 . S
C63 C53 1.510 . S
C63 H61 0.959 . S
C63 H62 0.961 . S
C63 H64 0.960 . S
H64 C63 0.960 . S
H65 N45 0.862 . S
O66 Co34 1.920 1_556 S
O66 C39 1.289 1_556 S
C67 O59 1.258 . S
C67 O60 1.266 1_556 S
Co68 O71 1.970 . S
Co68 N85 1.989 . S
Co68 O93 1.967 . S
Co68 O100 1.920 . S
Co69 O72 1.966 . S
Co69 N78 2.022 . S
Co69 N86 1.993 . S
Co69 O94 1.941 . S
C70 O71 1.258 . S
C70 O72 1.263 . S
O71 Co68 1.970 . S
O71 C70 1.258 . S
O72 Co69 1.966 . S
O72 C70 1.263 . S
C73 O74 1.235 . S
C73 O100 1.289 . S
O74 C73 1.235 . S
C75 C77 1.400 . S
C75 N78 1.351 . S
C75 C80 1.501 . S
C76 C77 1.387 . S
C76 N79 1.341 . S
C77 C75 1.400 . S
C77 C76 1.387 . S
N78 Co69 2.022 . S
N78 C75 1.351 . S
N78 N79 1.365 . S
N79 C76 1.341 . S
N79 N78 1.365 . S
N79 H99 0.862 . S
C80 C75 1.501 . S
C80 H81 0.961 . S
C80 H82 0.961 . S
C80 H83 0.960 . S
H81 C80 0.961 . S
H82 C80 0.961 . S
H83 C80 0.960 . S
C84 N85 1.342 . S
C84 C88 1.401 . S
C84 C89 1.499 . S
N85 Co68 1.989 . S
N85 C84 1.342 . S
N85 N86 1.388 . S
N86 Co69 1.993 . S
N86 N85 1.388 . S
N86 C87 1.346 . S
C87 N86 1.346 . S
C87 C88 1.396 . S
C87 C97 1.510 . S
C88 C84 1.401 . S
C88 C87 1.396 . S
C89 C84 1.499 . S
C89 H90 0.959 . S
C89 H91 0.960 . S
C89 H92 0.961 . S
H90 C89 0.959 . S
H91 C89 0.960 . S
H92 C89 0.961 . S
O93 Co68 1.967 . S
O93 C101 1.258 . S
O94 Co69 1.941 . S
O94 C101 1.266 . S
H95 C97 0.959 . S
H96 C97 0.961 . S
C97 C87 1.510 . S
C97 H95 0.959 . S
C97 H96 0.961 . S
C97 H98 0.960 . S
H98 C97 0.960 . S
H99 N79 0.862 . S
O100 Co68 1.920 . S
O100 C73 1.289 . S
C101 O93 1.258 . S
C101 O94 1.266 . S
Co102 O105 1.970 . S
Co102 N119 1.989 . S
Co102 O127 1.967 . S
Co102 O134 1.920 . S
Co103 O106 1.966 . S
Co103 N112 2.022 1_655 S
Co103 N120 1.993 . S
Co103 O128 1.941 1_655 S
C104 O105 1.258 . S
C104 O106 1.263 . S
O105 Co102 1.970 . S
O105 C104 1.258 . S
O106 Co103 1.966 . S
O106 C104 1.263 . S
C107 O108 1.235 . S
C107 O134 1.289 . S
O108 C107 1.235 . S
C109 C111 1.400 1_655 S
C109 N112 1.351 1_655 S
C109 C114 1.501 . S
C110 C111 1.387 . S
C110 N113 1.341 . S
C111 C109 1.400 1_455 S
C111 C110 1.387 . S
N112 Co103 2.022 1_455 S
N112 C109 1.351 1_455 S
N112 N113 1.365 . S
N113 C110 1.341 . S
N113 N112 1.365 . S
N113 H133 0.862 . S
C114 C109 1.501 . S
C114 H115 0.961 . S
C114 H116 0.961 . S
C114 H117 0.960 . S
H115 C114 0.961 . S
H116 C114 0.961 . S
H117 C114 0.960 . S
C118 N119 1.342 . S
C118 C122 1.401 . S
C118 C123 1.499 . S
N119 Co102 1.989 . S
N119 C118 1.342 . S
N119 N120 1.388 . S
N120 Co103 1.993 . S
N120 N119 1.388 . S
N120 C121 1.346 . S
C121 N120 1.346 . S
C121 C122 1.396 . S
C121 C131 1.510 . S
C122 C118 1.401 . S
C122 C121 1.396 . S
C123 C118 1.499 . S
C123 H124 0.959 . S
C123 H125 0.960 . S
C123 H126 0.961 . S
H124 C123 0.959 . S
H125 C123 0.960 . S
H126 C123 0.961 . S
O127 Co102 1.967 . S
O127 C135 1.258 . S
O128 Co103 1.941 1_455 S
O128 C135 1.266 1_455 S
H129 C131 0.959 . S
H130 C131 0.961 . S
C131 C121 1.510 . S
C131 H129 0.959 . S
C131 H130 0.961 . S
C131 H132 0.960 . S
H132 C131 0.960 . S
H133 N113 0.862 . S
O134 Co102 1.920 . S
O134 C107 1.289 . S
C135 O127 1.258 . S
C135 O128 1.266 1_655 S
Co136 O139 1.970 . S
Co136 N153 1.989 . S
Co136 O161 1.967 . S
Co136 O168 1.920 . S
Co137 O140 1.966 . S
Co137 N146 2.022 . S
Co137 N154 1.993 . S
Co137 O162 1.941 . S
C138 O139 1.258 . S
C138 O140 1.263 . S
O139 Co136 1.970 . S
O139 C138 1.258 . S
O140 Co137 1.966 . S
O140 C138 1.263 . S
C141 O142 1.235 . S
C141 O168 1.289 . S
O142 C141 1.235 . S
C143 C145 1.400 . S
C143 N146 1.351 . S
C143 C148 1.501 . S
C144 C145 1.387 . S
C144 N147 1.341 . S
C145 C143 1.400 . S
C145 C144 1.387 . S
N146 Co137 2.022 . S
N146 C143 1.351 . S
N146 N147 1.365 . S
N147 C144 1.341 . S
N147 N146 1.365 . S
N147 H167 0.862 . S
C148 C143 1.501 . S
C148 H149 0.961 . S
C148 H150 0.961 . S
C148 H151 0.960 . S
H149 C148 0.961 . S
H150 C148 0.961 . S
H151 C148 0.960 . S
C152 N153 1.342 . S
C152 C156 1.401 . S
C152 C157 1.499 . S
N153 Co136 1.989 . S
N153 C152 1.342 . S
N153 N154 1.388 . S
N154 Co137 1.993 . S
N154 N153 1.388 . S
N154 C155 1.346 . S
C155 N154 1.346 . S
C155 C156 1.396 . S
C155 C165 1.510 . S
C156 C152 1.401 . S
C156 C155 1.396 . S
C157 C152 1.499 . S
C157 H158 0.959 . S
C157 H159 0.960 . S
C157 H160 0.961 . S
H158 C157 0.959 . S
H159 C157 0.960 . S
H160 C157 0.961 . S
O161 Co136 1.967 . S
O161 C169 1.258 . S
O162 Co137 1.941 . S
O162 C169 1.266 . S
H163 C165 0.959 . S
H164 C165 0.961 . S
C165 C155 1.510 . S
C165 H163 0.959 . S
C165 H164 0.961 . S
C165 H166 0.960 . S
H166 C165 0.960 . S
H167 N147 0.862 . S
O168 Co136 1.920 . S
O168 C141 1.289 . S
C169 O161 1.258 . S
C169 O162 1.266 . S
Co170 O173 1.970 . S
Co170 N187 1.989 . S
Co170 O195 1.967 . S
Co170 O202 1.920 . S
Co171 O174 1.966 . S
Co171 N180 2.022 . S
Co171 N188 1.993 . S
Co171 O196 1.941 . S
C172 O173 1.258 . S
C172 O174 1.263 . S
O173 Co170 1.970 . S
O173 C172 1.258 . S
O174 Co171 1.966 . S
O174 C172 1.263 . S
C175 O176 1.235 . S
C175 O202 1.289 . S
O176 C175 1.235 . S
C177 C179 1.400 . S
C177 N180 1.351 . S
C177 C182 1.501 . S
C178 C179 1.387 . S
C178 N181 1.341 . S
C179 C177 1.400 . S
C179 C178 1.387 . S
N180 Co171 2.022 . S
N180 C177 1.351 . S
N180 N181 1.365 . S
N181 C178 1.341 . S
N181 N180 1.365 . S
N181 H201 0.862 . S
C182 C177 1.501 . S
C182 H183 0.961 . S
C182 H184 0.961 . S
C182 H185 0.960 . S
H183 C182 0.961 . S
H184 C182 0.961 . S
H185 C182 0.960 . S
C186 N187 1.342 . S
C186 C190 1.401 . S
C186 C191 1.499 . S
N187 Co170 1.989 . S
N187 C186 1.342 . S
N187 N188 1.388 . S
N188 Co171 1.993 . S
N188 N187 1.388 . S
N188 C189 1.346 . S
C189 N188 1.346 . S
C189 C190 1.396 . S
C189 C199 1.510 . S
C190 C186 1.401 . S
C190 C189 1.396 . S
C191 C186 1.499 . S
C191 H192 0.959 . S
C191 H193 0.960 . S
C191 H194 0.961 . S
H192 C191 0.959 . S
H193 C191 0.960 . S
H194 C191 0.961 . S
O195 Co170 1.967 . S
O195 C203 1.258 . S
O196 Co171 1.941 . S
O196 C203 1.266 . S
H197 C199 0.959 . S
H198 C199 0.961 . S
C199 C189 1.510 . S
C199 H197 0.959 . S
C199 H198 0.961 . S
C199 H200 0.960 . S
H200 C199 0.960 . S
H201 N181 0.862 . S
O202 Co170 1.920 . S
O202 C175 1.289 . S
C203 O195 1.258 . S
C203 O196 1.266 . S
Co204 O207 1.970 . S
Co204 N221 1.989 . S
Co204 O229 1.967 . S
Co204 O236 1.920 . S
Co205 O208 1.966 . S
Co205 N214 2.022 1_655 S
Co205 N222 1.993 . S
Co205 O230 1.941 . S
C206 O207 1.258 . S
C206 O208 1.263 . S
O207 Co204 1.970 . S
O207 C206 1.258 . S
O208 Co205 1.966 . S
O208 C206 1.263 . S
C209 O210 1.235 . S
C209 O236 1.289 . S
O210 C209 1.235 . S
C211 C213 1.400 . S
C211 N214 1.351 . S
C211 C216 1.501 . S
C212 C213 1.387 . S
C212 N215 1.341 1_455 S
C213 C211 1.400 . S
C213 C212 1.387 . S
N214 Co205 2.022 1_455 S
N214 C211 1.351 . S
N214 N215 1.365 1_455 S
N215 C212 1.341 1_655 S
N215 N214 1.365 1_655 S
N215 H235 0.862 . S
C216 C211 1.501 . S
C216 H217 0.961 . S
C216 H218 0.961 . S
C216 H219 0.960 . S
H217 C216 0.961 . S
H218 C216 0.961 . S
H219 C216 0.960 . S
C220 N221 1.342 . S
C220 C224 1.401 . S
C220 C225 1.499 . S
N221 Co204 1.989 . S
N221 C220 1.342 . S
N221 N222 1.388 . S
N222 Co205 1.993 . S
N222 N221 1.388 . S
N222 C223 1.346 . S
C223 N222 1.346 . S
C223 C224 1.396 . S
C223 C233 1.510 . S
C224 C220 1.401 . S
C224 C223 1.396 . S
C225 C220 1.499 . S
C225 H226 0.959 . S
C225 H227 0.960 . S
C225 H228 0.961 . S
H226 C225 0.959 . S
H227 C225 0.960 . S
H228 C225 0.961 . S
O229 Co204 1.967 . S
O229 C237 1.258 . S
O230 Co205 1.941 . S
O230 C237 1.266 . S
H231 C233 0.959 . S
H232 C233 0.961 . S
C233 C223 1.510 . S
C233 H231 0.959 . S
C233 H232 0.961 . S
C233 H234 0.960 . S
H234 C233 0.960 . S
H235 N215 0.862 . S
O236 Co204 1.920 . S
O236 C209 1.289 . S
C237 O229 1.258 . S
C237 O230 1.266 . S
Co238 O241 1.970 . S
Co238 N255 1.989 . S
Co238 O263 1.967 1_556 S
Co238 O270 1.920 . S
Co239 O242 1.966 . S
Co239 N248 2.022 1_455 S
Co239 N256 1.993 . S
Co239 O264 1.941 1_455 S
C240 O241 1.258 . S
C240 O242 1.263 . S
O241 Co238 1.970 . S
O241 C240 1.258 . S
O242 Co239 1.966 . S
O242 C240 1.263 . S
C243 O244 1.235 . S
C243 O270 1.289 . S
O244 C243 1.235 . S
C245 C247 1.395 1_455 S
C245 N248 1.349 1_455 S
C245 C250 1.508 . S
C246 C247 1.387 . S
C246 N249 1.341 . S
C247 C245 1.395 1_655 S
C247 C246 1.387 . S
N248 Co239 2.022 1_655 S
N248 C245 1.349 1_655 S
N248 N249 1.365 . S
N249 C246 1.341 . S
N249 N248 1.365 . S
N249 H269 0.862 . S
C250 C245 1.508 . S
C250 H251 0.961 . S
C250 H252 0.961 . S
C250 H253 0.960 . S
H251 C250 0.961 . S
H252 C250 0.961 . S
H253 C250 0.960 . S
C254 N255 1.342 . S
C254 C258 1.401 . S
C254 C259 1.499 . S
N255 Co238 1.989 . S
N255 C254 1.342 . S
N255 N256 1.388 . S
N256 Co239 1.993 . S
N256 N255 1.388 . S
N256 C257 1.346 . S
C257 N256 1.346 . S
C257 C258 1.396 . S
C257 C267 1.510 . S
C258 C254 1.401 . S
C258 C257 1.396 . S
C259 C254 1.499 . S
C259 H260 0.959 . S
C259 H261 0.960 . S
C259 H262 0.961 . S
H260 C259 0.959 . S
H261 C259 0.960 . S
H262 C259 0.961 . S
O263 Co238 1.967 1_554 S
O263 C271 1.258 . S
O264 Co239 1.941 1_655 S
O264 C271 1.266 1_656 S
H265 C267 0.959 . S
H266 C267 0.961 . S
C267 C257 1.510 . S
C267 H265 0.959 . S
C267 H266 0.961 . S
C267 H268 0.960 . S
H268 C267 0.960 . S
H269 N249 0.862 . S
O270 Co238 1.920 . S
O270 C243 1.289 . S
C271 O263 1.258 . S
C271 O264 1.266 1_454 S
Co272 O275 1.970 . S
Co272 N289 1.989 . S
Co272 O297 1.967 . S
Co272 O304 1.920 . S
Co273 O276 1.971 . S
Co273 N282 2.022 1_545 S
Co273 N290 1.993 . S
Co273 O298 1.941 . S
C274 O275 1.258 . S
C274 O276 1.265 . S
O275 Co272 1.970 . S
O275 C274 1.258 . S
O276 Co273 1.971 . S
O276 C274 1.265 . S
C277 O278 1.235 . S
C277 O304 1.289 . S
O278 C277 1.235 . S
C279 C281 1.400 . S
C279 N282 1.351 . S
C279 C284 1.501 . S
C280 C281 1.387 . S
C280 N283 1.341 1_565 S
C281 C279 1.400 . S
C281 C280 1.387 . S
N282 Co273 2.022 1_565 S
N282 C279 1.351 . S
N282 N283 1.365 1_565 S
N283 C280 1.341 1_545 S
N283 N282 1.365 1_545 S
N283 H303 0.862 . S
C284 C279 1.501 . S
C284 H285 0.961 . S
C284 H286 0.961 . S
C284 H287 0.960 . S
H285 C284 0.961 . S
H286 C284 0.961 . S
H287 C284 0.960 . S
C288 N289 1.342 . S
C288 C292 1.401 . S
C288 C293 1.499 . S
N289 Co272 1.989 . S
N289 C288 1.342 . S
N289 N290 1.388 . S
N290 Co273 1.993 . S
N290 N289 1.388 . S
N290 C291 1.346 . S
C291 N290 1.346 . S
C291 C292 1.396 . S
C291 C301 1.510 . S
C292 C288 1.401 . S
C292 C291 1.396 . S
C293 C288 1.499 . S
C293 H294 0.959 . S
C293 H295 0.960 . S
C293 H296 0.961 . S
H294 C293 0.959 . S
H295 C293 0.960 . S
H296 C293 0.961 . S
O297 Co272 1.967 . S
O297 C305 1.258 . S
O298 Co273 1.941 . S
O298 C305 1.266 . S
H299 C301 0.959 . S
H300 C301 0.961 . S
C301 C291 1.510 . S
C301 H299 0.959 . S
C301 H300 0.961 . S
C301 H302 0.960 . S
H302 C301 0.960 . S
H303 N283 0.862 . S
O304 Co272 1.920 . S
O304 C277 1.289 . S
C305 O297 1.258 . S
C305 O298 1.266 . S
Co306 O309 1.970 . S
Co306 N323 1.989 . S
Co306 O331 1.967 . S
Co306 O338 1.920 . S
Co307 O310 1.966 . S
Co307 N316 2.022 1_556 S
Co307 N324 1.993 . S
Co307 O332 1.941 1_556 S
C308 O309 1.258 . S
C308 O310 1.263 . S
O309 Co306 1.970 . S
O309 C308 1.258 . S
O310 Co307 1.966 . S
O310 C308 1.263 . S
C311 O312 1.235 . S
C311 O338 1.289 . S
O312 C311 1.235 . S
C313 C315 1.400 1_556 S
C313 N316 1.351 1_556 S
C313 C318 1.501 . S
C314 C315 1.387 . S
C314 N317 1.341 . S
C315 C313 1.400 1_554 S
C315 C314 1.387 . S
N316 Co307 2.022 1_554 S
N316 C313 1.351 1_554 S
N316 N317 1.365 . S
N317 C314 1.341 . S
N317 N316 1.365 . S
N317 H337 0.862 . S
C318 C313 1.501 . S
C318 H319 0.961 . S
C318 H320 0.961 . S
C318 H321 0.960 . S
H319 C318 0.961 . S
H320 C318 0.961 . S
H321 C318 0.960 . S
C322 N323 1.342 . S
C322 C326 1.401 . S
C322 C327 1.499 . S
N323 Co306 1.989 . S
N323 C322 1.342 . S
N323 N324 1.388 . S
N324 Co307 1.993 . S
N324 N323 1.388 . S
N324 C325 1.346 . S
C325 N324 1.346 . S
C325 C326 1.396 . S
C325 C335 1.510 . S
C326 C322 1.401 . S
C326 C325 1.396 . S
C327 C322 1.499 . S
C327 H328 0.959 . S
C327 H329 0.960 . S
C327 H330 0.961 . S
H328 C327 0.959 . S
H329 C327 0.960 . S
H330 C327 0.961 . S
O331 Co306 1.967 . S
O331 C339 1.258 . S
O332 Co307 1.941 1_554 S
O332 C339 1.266 1_554 S
H333 C335 0.959 . S
H334 C335 0.961 . S
C335 C325 1.510 . S
C335 H333 0.959 . S
C335 H334 0.961 . S
C335 H336 0.960 . S
H336 C335 0.960 . S
H337 N317 0.862 . S
O338 Co306 1.920 . S
O338 C311 1.289 . S
C339 O331 1.258 . S
C339 O332 1.266 1_556 S
Co340 O343 1.970 . S
Co340 N357 1.989 . S
Co340 O365 1.967 . S
Co340 O372 1.920 . S
Co341 O344 1.966 . S
Co341 N350 2.022 1_565 S
Co341 N358 1.993 . S
Co341 O366 1.941 . S
C342 O343 1.258 . S
C342 O344 1.263 . S
O343 Co340 1.970 . S
O343 C342 1.258 . S
O344 Co341 1.966 . S
O344 C342 1.263 . S
C345 O346 1.235 . S
C345 O372 1.289 . S
O346 C345 1.235 . S
C347 C349 1.400 . S
C347 N350 1.351 . S
C347 C352 1.501 . S
C348 C349 1.387 . S
C348 N351 1.341 1_545 S
C349 C347 1.400 . S
C349 C348 1.387 . S
N350 Co341 2.022 1_545 S
N350 C347 1.351 . S
N350 N351 1.365 1_545 S
N351 C348 1.341 1_565 S
N351 N350 1.365 1_565 S
N351 H371 0.862 . S
C352 C347 1.501 . S
C352 H353 0.961 . S
C352 H354 0.961 . S
C352 H355 0.960 . S
H353 C352 0.961 . S
H354 C352 0.961 . S
H355 C352 0.960 . S
C356 N357 1.342 . S
C356 C360 1.401 . S
C356 C361 1.499 . S
N357 Co340 1.989 . S
N357 C356 1.342 . S
N357 N358 1.388 . S
N358 Co341 1.993 . S
N358 N357 1.388 . S
N358 C359 1.346 . S
C359 N358 1.346 . S
C359 C360 1.396 . S
C359 C369 1.510 . S
C360 C356 1.401 . S
C360 C359 1.396 . S
C361 C356 1.499 . S
C361 H362 0.959 . S
C361 H363 0.960 . S
C361 H364 0.961 . S
H362 C361 0.959 . S
H363 C361 0.960 . S
H364 C361 0.961 . S
O365 Co340 1.967 . S
O365 C373 1.258 . S
O366 Co341 1.941 . S
O366 C373 1.266 . S
H367 C369 0.959 . S
H368 C369 0.961 . S
C369 C359 1.510 . S
C369 H367 0.959 . S
C369 H368 0.961 . S
C369 H370 0.960 . S
H370 C369 0.960 . S
H371 N351 0.862 . S
O372 Co340 1.920 . S
O372 C345 1.289 . S
C373 O365 1.258 . S
C373 O366 1.266 . S
Co374 O377 1.970 . S
Co374 N391 1.989 . S
Co374 O399 1.967 . S
Co374 O406 1.920 . S
Co375 O378 1.966 . S
Co375 N384 2.022 . S
Co375 N392 1.993 . S
Co375 O400 1.941 . S
C376 O377 1.258 . S
C376 O378 1.263 . S
O377 Co374 1.970 . S
O377 C376 1.258 . S
O378 Co375 1.966 . S
O378 C376 1.263 . S
C379 O380 1.235 . S
C379 O406 1.289 . S
O380 C379 1.235 . S
C381 C383 1.400 . S
C381 N384 1.351 . S
C381 C386 1.501 . S
C382 C383 1.387 . S
C382 N385 1.341 . S
C383 C381 1.400 . S
C383 C382 1.387 . S
N384 Co375 2.022 . S
N384 C381 1.351 . S
N384 N385 1.365 . S
N385 C382 1.341 . S
N385 N384 1.365 . S
N385 H405 0.862 . S
C386 C381 1.501 . S
C386 H387 0.961 . S
C386 H388 0.961 . S
C386 H389 0.960 . S
H387 C386 0.961 . S
H388 C386 0.961 . S
H389 C386 0.960 . S
C390 N391 1.342 . S
C390 C394 1.401 . S
C390 C395 1.499 . S
N391 Co374 1.989 . S
N391 C390 1.342 . S
N391 N392 1.388 . S
N392 Co375 1.993 . S
N392 N391 1.388 . S
N392 C393 1.346 . S
C393 N392 1.346 . S
C393 C394 1.396 . S
C393 C403 1.510 . S
C394 C390 1.401 . S
C394 C393 1.396 . S
C395 C390 1.499 . S
C395 H396 0.959 . S
C395 H397 0.960 . S
C395 H398 0.961 . S
H396 C395 0.959 . S
H397 C395 0.960 . S
H398 C395 0.961 . S
O399 Co374 1.967 . S
O399 C407 1.258 . S
O400 Co375 1.941 . S
O400 C407 1.266 . S
H401 C403 0.959 . S
H402 C403 0.961 . S
C403 C393 1.510 . S
C403 H401 0.959 . S
C403 H402 0.961 . S
C403 H404 0.960 . S
H404 C403 0.960 . S
H405 N385 0.862 . S
O406 Co374 1.920 . S
O406 C379 1.289 . S
C407 O399 1.258 . S
C407 O400 1.266 . S
Co408 O411 1.970 . S
Co408 N425 1.989 . S
Co408 O433 1.967 . S
Co408 O440 1.920 . S
Co409 O412 1.966 . S
Co409 N418 2.022 . S
Co409 N426 1.993 . S
Co409 O434 1.941 . S
C410 O411 1.258 . S
C410 O412 1.263 . S
O411 Co408 1.970 . S
O411 C410 1.258 . S
O412 Co409 1.966 . S
O412 C410 1.263 . S
C413 O414 1.235 . S
C413 O440 1.289 . S
O414 C413 1.235 . S
C415 C417 1.400 . S
C415 N418 1.351 . S
C415 C420 1.501 . S
C416 C417 1.387 . S
C416 N419 1.341 . S
C417 C415 1.400 . S
C417 C416 1.387 . S
N418 Co409 2.022 . S
N418 C415 1.351 . S
N418 N419 1.365 . S
N419 C416 1.341 . S
N419 N418 1.365 . S
N419 H439 0.862 . S
C420 C415 1.501 . S
C420 H421 0.961 . S
C420 H422 0.961 . S
C420 H423 0.960 . S
H421 C420 0.961 . S
H422 C420 0.961 . S
H423 C420 0.960 . S
C424 N425 1.342 . S
C424 C428 1.401 . S
C424 C429 1.499 . S
N425 Co408 1.989 . S
N425 C424 1.342 . S
N425 N426 1.388 . S
N426 Co409 1.993 . S
N426 N425 1.388 . S
N426 C427 1.346 . S
C427 N426 1.346 . S
C427 C428 1.396 . S
C427 C437 1.510 . S
C428 C424 1.401 . S
C428 C427 1.396 . S
C429 C424 1.499 . S
C429 H430 0.959 . S
C429 H431 0.960 . S
C429 H432 0.961 . S
H430 C429 0.959 . S
H431 C429 0.960 . S
H432 C429 0.961 . S
O433 Co408 1.967 . S
O433 C441 1.258 . S
O434 Co409 1.941 . S
O434 C441 1.266 . S
H435 C437 0.959 . S
H436 C437 0.961 . S
C437 C427 1.510 . S
C437 H435 0.959 . S
C437 H436 0.961 . S
C437 H438 0.960 . S
H438 C437 0.960 . S
H439 N419 0.862 . S
O440 Co408 1.920 . S
O440 C413 1.289 . S
C441 O433 1.258 . S
C441 O434 1.266 . S
Co442 O445 1.970 . S
Co442 N459 1.989 . S
Co442 O467 1.967 1_545 S
Co442 O474 1.920 1_545 S
Co443 O446 1.966 . S
Co443 N452 2.022 . S
Co443 N460 1.993 . S
Co443 O468 1.941 . S
C444 O445 1.258 . S
C444 O446 1.263 . S
O445 Co442 1.970 . S
O445 C444 1.258 . S
O446 Co443 1.966 . S
O446 C444 1.263 . S
C447 O448 1.235 . S
C447 O474 1.289 1_545 S
O448 C447 1.235 . S
C449 C451 1.400 . S
C449 N452 1.351 . S
C449 C454 1.501 . S
C450 C451 1.387 . S
C450 N453 1.341 . S
C451 C449 1.400 . S
C451 C450 1.387 . S
N452 Co443 2.022 . S
N452 C449 1.351 . S
N452 N453 1.365 . S
N453 C450 1.341 . S
N453 N452 1.365 . S
N453 H473 0.862 . S
C454 C449 1.501 . S
C454 H455 0.961 . S
C454 H456 0.961 . S
C454 H457 0.960 . S
H455 C454 0.961 . S
H456 C454 0.961 . S
H457 C454 0.960 . S
C458 N459 1.342 . S
C458 C462 1.401 . S
C458 C463 1.499 . S
N459 Co442 1.989 . S
N459 C458 1.342 . S
N459 N460 1.388 . S
N460 Co443 1.993 . S
N460 N459 1.388 . S
N460 C461 1.346 . S
C461 N460 1.346 . S
C461 C462 1.396 . S
C461 C471 1.510 . S
C462 C458 1.401 . S
C462 C461 1.396 . S
C463 C458 1.499 . S
C463 H464 0.959 . S
C463 H465 0.960 . S
C463 H466 0.961 . S
H464 C463 0.959 . S
H465 C463 0.960 . S
H466 C463 0.961 . S
O467 Co442 1.967 1_565 S
O467 C475 1.258 . S
O468 Co443 1.941 . S
O468 C475 1.266 1_545 S
H469 C471 0.959 . S
H470 C471 0.961 . S
C471 C461 1.510 . S
C471 H469 0.959 . S
C471 H470 0.961 . S
C471 H472 0.960 . S
H472 C471 0.960 . S
H473 N453 0.862 . S
O474 Co442 1.920 1_565 S
O474 C447 1.289 1_565 S
C475 O467 1.258 . S
C475 O468 1.266 1_565 S
Co476 O479 1.970 . S
Co476 N493 1.989 . S
Co476 O501 1.967 . S
Co476 O508 1.920 . S
Co477 O480 1.966 . S
Co477 N486 2.022 . S
Co477 N494 1.993 . S
Co477 O502 1.941 . S
C478 O479 1.258 . S
C478 O480 1.263 . S
O479 Co476 1.970 . S
O479 C478 1.258 . S
O480 Co477 1.966 . S
O480 C478 1.263 . S
C481 O482 1.235 . S
C481 O508 1.289 . S
O482 C481 1.235 . S
C483 C485 1.400 . S
C483 N486 1.351 . S
C483 C488 1.501 . S
C484 C485 1.387 . S
C484 N487 1.341 . S
C485 C483 1.400 . S
C485 C484 1.387 . S
N486 Co477 2.022 . S
N486 C483 1.351 . S
N486 N487 1.365 . S
N487 C484 1.341 . S
N487 N486 1.365 . S
N487 H507 0.862 . S
C488 C483 1.501 . S
C488 H489 0.961 . S
C488 H490 0.961 . S
C488 H491 0.960 . S
H489 C488 0.961 . S
H490 C488 0.961 . S
H491 C488 0.960 . S
C492 N493 1.342 . S
C492 C496 1.401 . S
C492 C497 1.499 . S
N493 Co476 1.989 . S
N493 C492 1.342 . S
N493 N494 1.388 . S
N494 Co477 1.993 . S
N494 N493 1.388 . S
N494 C495 1.346 . S
C495 N494 1.346 . S
C495 C496 1.396 . S
C495 C505 1.510 . S
C496 C492 1.401 . S
C496 C495 1.396 . S
C497 C492 1.499 . S
C497 H498 0.959 . S
C497 H499 0.960 . S
C497 H500 0.961 . S
H498 C497 0.959 . S
H499 C497 0.960 . S
H500 C497 0.961 . S
O501 Co476 1.967 . S
O501 C509 1.258 . S
O502 Co477 1.941 . S
O502 C509 1.266 . S
H503 C505 0.959 . S
H504 C505 0.961 . S
C505 C495 1.510 . S
C505 H503 0.959 . S
C505 H504 0.961 . S
C505 H506 0.960 . S
H506 C505 0.960 . S
H507 N487 0.862 . S
O508 Co476 1.920 . S
O508 C481 1.289 . S
C509 O501 1.258 . S
C509 O502 1.266 . S
Co510 O513 1.970 . S
Co510 N527 1.989 . S
Co510 O535 1.967 1_565 S
Co510 O542 1.920 . S
Co511 O514 1.966 . S
Co511 N520 2.022 1_554 S
Co511 N528 1.993 . S
Co511 O536 1.941 1_554 S
C512 O513 1.258 . S
C512 O514 1.263 . S
O513 Co510 1.970 . S
O513 C512 1.258 . S
O514 Co511 1.966 . S
O514 C512 1.263 . S
C515 O516 1.235 . S
C515 O542 1.289 . S
O516 C515 1.235 . S
C517 C519 1.395 1_554 S
C517 N520 1.349 1_554 S
C517 C522 1.508 . S
C518 C519 1.387 . S
C518 N521 1.341 . S
C519 C517 1.395 1_556 S
C519 C518 1.387 . S
N520 Co511 2.022 1_556 S
N520 C517 1.349 1_556 S
N520 N521 1.365 . S
N521 C518 1.341 . S
N521 N520 1.365 . S
N521 H541 0.862 . S
C522 C517 1.508 . S
C522 H523 0.961 . S
C522 H524 0.961 . S
C522 H525 0.960 . S
H523 C522 0.961 . S
H524 C522 0.961 . S
H525 C522 0.960 . S
C526 N527 1.342 . S
C526 C530 1.401 . S
C526 C531 1.499 . S
N527 Co510 1.989 . S
N527 C526 1.342 . S
N527 N528 1.388 . S
N528 Co511 1.993 . S
N528 N527 1.388 . S
N528 C529 1.346 . S
C529 N528 1.346 . S
C529 C530 1.396 . S
C529 C539 1.510 . S
C530 C526 1.401 . S
C530 C529 1.396 . S
C531 C526 1.499 . S
C531 H532 0.959 . S
C531 H533 0.960 . S
C531 H534 0.961 . S
H532 C531 0.959 . S
H533 C531 0.960 . S
H534 C531 0.961 . S
O535 Co510 1.967 1_545 S
O535 C543 1.258 . S
O536 Co511 1.941 1_556 S
O536 C543 1.266 1_566 S
H537 C539 0.959 . S
H538 C539 0.961 . S
C539 C529 1.510 . S
C539 H537 0.959 . S
C539 H538 0.961 . S
C539 H540 0.960 . S
H540 C539 0.960 . S
H541 N521 0.862 . S
O542 Co510 1.920 . S
O542 C515 1.289 . S
C543 O535 1.258 . S
C543 O536 1.266 1_544 S
Co544 O547 1.970 . S
Co544 N561 1.989 . S
Co544 O569 1.967 . S
Co544 O576 1.920 . S
Co545 O548 1.971 . S
Co545 N554 2.022 1_554 S
Co545 N562 1.993 . S
Co545 O570 1.941 . S
C546 O547 1.258 . S
C546 O548 1.265 . S
O547 Co544 1.970 . S
O547 C546 1.258 . S
O548 Co545 1.971 . S
O548 C546 1.265 . S
C549 O550 1.235 . S
C549 O576 1.289 . S
O550 C549 1.235 . S
C551 C553 1.400 . S
C551 N554 1.351 . S
C551 C556 1.501 . S
C552 C553 1.387 . S
C552 N555 1.341 1_556 S
C553 C551 1.400 . S
C553 C552 1.387 . S
N554 Co545 2.022 1_556 S
N554 C551 1.351 . S
N554 N555 1.365 1_556 S
N555 C552 1.341 1_554 S
N555 N554 1.365 1_554 S
N555 H575 0.862 . S
C556 C551 1.501 . S
C556 H557 0.961 . S
C556 H558 0.961 . S
C556 H559 0.960 . S
H557 C556 0.961 . S
H558 C556 0.961 . S
H559 C556 0.960 . S
C560 N561 1.342 . S
C560 C564 1.401 . S
C560 C565 1.499 . S
N561 Co544 1.989 . S
N561 C560 1.342 . S
N561 N562 1.388 . S
N562 Co545 1.993 . S
N562 N561 1.388 . S
N562 C563 1.346 . S
C563 N562 1.346 . S
C563 C564 1.396 . S
C563 C573 1.510 . S
C564 C560 1.401 . S
C564 C563 1.396 . S
C565 C560 1.499 . S
C565 H566 0.959 . S
C565 H567 0.960 . S
C565 H568 0.961 . S
H566 C565 0.959 . S
H567 C565 0.960 . S
H568 C565 0.961 . S
O569 Co544 1.967 . S
O569 C577 1.258 . S
O570 Co545 1.941 . S
O570 C577 1.266 . S
H571 C573 0.959 . S
H572 C573 0.961 . S
C573 C563 1.510 . S
C573 H571 0.959 . S
C573 H572 0.961 . S
C573 H574 0.960 . S
H574 C573 0.960 . S
H575 N555 0.862 . S
O576 Co544 1.920 . S
O576 C549 1.289 . S
C577 O569 1.258 . S
C577 O570 1.266 . S
Co578 O581 1.970 . S
Co578 N595 1.989 . S
Co578 O603 1.967 . S
Co578 O610 1.920 . S
Co579 O582 1.966 . S
Co579 N588 2.022 1_556 S
Co579 N596 1.993 . S
Co579 O604 1.941 . S
C580 O581 1.258 . S
C580 O582 1.263 . S
O581 Co578 1.970 . S
O581 C580 1.258 . S
O582 Co579 1.966 . S
O582 C580 1.263 . S
C583 O584 1.235 . S
C583 O610 1.289 . S
O584 C583 1.235 . S
C585 C587 1.400 . S
C585 N588 1.351 . S
C585 C590 1.501 . S
C586 C587 1.387 . S
C586 N589 1.341 1_554 S
C587 C585 1.400 . S
C587 C586 1.387 . S
N588 Co579 2.022 1_554 S
N588 C585 1.351 . S
N588 N589 1.365 1_554 S
N589 C586 1.341 1_556 S
N589 N588 1.365 1_556 S
N589 H609 0.862 . S
C590 C585 1.501 . S
C590 H591 0.961 . S
C590 H592 0.961 . S
C590 H593 0.960 . S
H591 C590 0.961 . S
H592 C590 0.961 . S
H593 C590 0.960 . S
C594 N595 1.342 . S
C594 C598 1.401 . S
C594 C599 1.499 . S
N595 Co578 1.989 . S
N595 C594 1.342 . S
N595 N596 1.388 . S
N596 Co579 1.993 . S
N596 N595 1.388 . S
N596 C597 1.346 . S
C597 N596 1.346 . S
C597 C598 1.396 . S
C597 C607 1.510 . S
C598 C594 1.401 . S
C598 C597 1.396 . S
C599 C594 1.499 . S
C599 H600 0.959 . S
C599 H601 0.960 . S
C599 H602 0.961 . S
H600 C599 0.959 . S
H601 C599 0.960 . S
H602 C599 0.961 . S
O603 Co578 1.967 . S
O603 C611 1.258 . S
O604 Co579 1.941 . S
O604 C611 1.266 . S
H605 C607 0.959 . S
H606 C607 0.961 . S
C607 C597 1.510 . S
C607 H605 0.959 . S
C607 H606 0.961 . S
C607 H608 0.960 . S
H608 C607 0.960 . S
H609 N589 0.862 . S
O610 Co578 1.920 . S
O610 C583 1.289 . S
C611 O603 1.258 . S
C611 O604 1.266 . S
Co612 O615 1.970 . S
Co612 N629 1.989 . S
Co612 O637 1.967 . S
Co612 O644 1.920 . S
Co613 O616 1.966 . S
Co613 N622 2.022 1_565 S
Co613 N630 1.993 . S
Co613 O638 1.941 1_565 S
C614 O615 1.258 . S
C614 O616 1.263 . S
O615 Co612 1.970 . S
O615 C614 1.258 . S
O616 Co613 1.966 . S
O616 C614 1.263 . S
C617 O618 1.235 . S
C617 O644 1.289 . S
O618 C617 1.235 . S
C619 C621 1.400 1_565 S
C619 N622 1.351 1_565 S
C619 C624 1.501 . S
C620 C621 1.387 . S
C620 N623 1.341 . S
C621 C619 1.400 1_545 S
C621 C620 1.387 . S
N622 Co613 2.022 1_545 S
N622 C619 1.351 1_545 S
N622 N623 1.365 . S
N623 C620 1.341 . S
N623 N622 1.365 . S
N623 H643 0.862 . S
C624 C619 1.501 . S
C624 H625 0.961 . S
C624 H626 0.961 . S
C624 H627 0.960 . S
H625 C624 0.961 . S
H626 C624 0.961 . S
H627 C624 0.960 . S
C628 N629 1.342 . S
C628 C632 1.401 . S
C628 C633 1.499 . S
N629 Co612 1.989 . S
N629 C628 1.342 . S
N629 N630 1.388 . S
N630 Co613 1.993 . S
N630 N629 1.388 . S
N630 C631 1.346 . S
C631 N630 1.346 . S
C631 C632 1.396 . S
C631 C641 1.510 . S
C632 C628 1.401 . S
C632 C631 1.396 . S
C633 C628 1.499 . S
C633 H634 0.959 . S
C633 H635 0.960 . S
C633 H636 0.961 . S
H634 C633 0.959 . S
H635 C633 0.960 . S
H636 C633 0.961 . S
O637 Co612 1.967 . S
O637 C645 1.258 . S
O638 Co613 1.941 1_545 S
O638 C645 1.266 1_545 S
H639 C641 0.959 . S
H640 C641 0.961 . S
C641 C631 1.510 . S
C641 H639 0.959 . S
C641 H640 0.961 . S
C641 H642 0.960 . S
H642 C641 0.960 . S
H643 N623 0.862 . S
O644 Co612 1.920 . S
O644 C617 1.289 . S
C645 O637 1.258 . S
C645 O638 1.266 1_565 S
Co646 O649 1.970 . S
Co646 N663 1.989 . S
Co646 O671 1.967 . S
Co646 O678 1.920 . S
Co647 O650 1.966 . S
Co647 N656 2.022 . S
Co647 N664 1.993 . S
Co647 O672 1.941 . S
C648 O649 1.258 . S
C648 O650 1.263 . S
O649 Co646 1.970 . S
O649 C648 1.258 . S
O650 Co647 1.966 . S
O650 C648 1.263 . S
C651 O652 1.235 . S
C651 O678 1.289 . S
O652 C651 1.235 . S
C653 C655 1.400 . S
C653 N656 1.351 . S
C653 C658 1.501 . S
C654 C655 1.387 . S
C654 N657 1.341 . S
C655 C653 1.400 . S
C655 C654 1.387 . S
N656 Co647 2.022 . S
N656 C653 1.351 . S
N656 N657 1.365 . S
N657 C654 1.341 . S
N657 N656 1.365 . S
N657 H677 0.862 . S
C658 C653 1.501 . S
C658 H659 0.961 . S
C658 H660 0.961 . S
C658 H661 0.960 . S
H659 C658 0.961 . S
H660 C658 0.961 . S
H661 C658 0.960 . S
C662 N663 1.342 . S
C662 C666 1.401 . S
C662 C667 1.499 . S
N663 Co646 1.989 . S
N663 C662 1.342 . S
N663 N664 1.388 . S
N664 Co647 1.993 . S
N664 N663 1.388 . S
N664 C665 1.346 . S
C665 N664 1.346 . S
C665 C666 1.396 . S
C665 C675 1.510 . S
C666 C662 1.401 . S
C666 C665 1.396 . S
C667 C662 1.499 . S
C667 H668 0.959 . S
C667 H669 0.960 . S
C667 H670 0.961 . S
H668 C667 0.959 . S
H669 C667 0.960 . S
H670 C667 0.961 . S
O671 Co646 1.967 . S
O671 C679 1.258 . S
O672 Co647 1.941 . S
O672 C679 1.266 . S
H673 C675 0.959 . S
H674 C675 0.961 . S
C675 C665 1.510 . S
C675 H673 0.959 . S
C675 H674 0.961 . S
C675 H676 0.960 . S
H676 C675 0.960 . S
H677 N657 0.862 . S
O678 Co646 1.920 . S
O678 C651 1.289 . S
C679 O671 1.258 . S
C679 O672 1.266 . S
Co680 O683 1.970 . S
Co680 N697 1.989 . S
Co680 O705 1.967 1_655 S
Co680 O712 1.920 . S
Co681 O684 1.966 . S
Co681 N690 2.022 1_545 S
Co681 N698 1.993 . S
Co681 O706 1.941 1_545 S
C682 O683 1.258 . S
C682 O684 1.263 . S
O683 Co680 1.970 . S
O683 C682 1.258 . S
O684 Co681 1.966 . S
O684 C682 1.263 . S
C685 O686 1.235 . S
C685 O712 1.289 . S
O686 C685 1.235 . S
C687 C689 1.395 1_545 S
C687 N690 1.349 1_545 S
C687 C692 1.508 . S
C688 C689 1.387 . S
C688 N691 1.341 . S
C689 C687 1.395 1_565 S
C689 C688 1.387 . S
N690 Co681 2.022 1_565 S
N690 C687 1.349 1_565 S
N690 N691 1.365 . S
N691 C688 1.341 . S
N691 N690 1.365 . S
N691 H711 0.862 . S
C692 C687 1.508 . S
C692 H693 0.961 . S
C692 H694 0.961 . S
C692 H695 0.960 . S
H693 C692 0.961 . S
H694 C692 0.961 . S
H695 C692 0.960 . S
C696 N697 1.342 . S
C696 C700 1.401 . S
C696 C701 1.499 . S
N697 Co680 1.989 . S
N697 C696 1.342 . S
N697 N698 1.388 . S
N698 Co681 1.993 . S
N698 N697 1.388 . S
N698 C699 1.346 . S
C699 N698 1.346 . S
C699 C700 1.396 . S
C699 C709 1.510 . S
C700 C696 1.401 . S
C700 C699 1.396 . S
C701 C696 1.499 . S
C701 H702 0.959 . S
C701 H703 0.960 . S
C701 H704 0.961 . S
H702 C701 0.959 . S
H703 C701 0.960 . S
H704 C701 0.961 . S
O705 Co680 1.967 1_455 S
O705 C713 1.258 . S
O706 Co681 1.941 1_565 S
O706 C713 1.266 1_665 S
H707 C709 0.959 . S
H708 C709 0.961 . S
C709 C699 1.510 . S
C709 H707 0.959 . S
C709 H708 0.961 . S
C709 H710 0.960 . S
H710 C709 0.960 . S
H711 N691 0.862 . S
O712 Co680 1.920 . S
O712 C685 1.289 . S
C713 O705 1.258 . S
C713 O706 1.266 1_445 S
Co714 O717 1.970 . S
Co714 N731 1.989 . S
Co714 O739 1.967 . S
Co714 O746 1.920 . S
Co715 O718 1.966 . S
Co715 N724 2.022 . S
Co715 N732 1.993 . S
Co715 O740 1.941 . S
C716 O717 1.258 . S
C716 O718 1.263 . S
O717 Co714 1.970 . S
O717 C716 1.258 . S
O718 Co715 1.966 . S
O718 C716 1.263 . S
C719 O720 1.235 . S
C719 O746 1.289 . S
O720 C719 1.235 . S
C721 C723 1.400 . S
C721 N724 1.351 . S
C721 C726 1.501 . S
C722 C723 1.387 . S
C722 N725 1.341 . S
C723 C721 1.400 . S
C723 C722 1.387 . S
N724 Co715 2.022 . S
N724 C721 1.351 . S
N724 N725 1.365 . S
N725 C722 1.341 . S
N725 N724 1.365 . S
N725 H745 0.862 . S
C726 C721 1.501 . S
C726 H727 0.961 . S
C726 H728 0.961 . S
C726 H729 0.960 . S
H727 C726 0.961 . S
H728 C726 0.961 . S
H729 C726 0.960 . S
C730 N731 1.342 . S
C730 C734 1.401 . S
C730 C735 1.499 . S
N731 Co714 1.989 . S
N731 C730 1.342 . S
N731 N732 1.388 . S
N732 Co715 1.993 . S
N732 N731 1.388 . S
N732 C733 1.346 . S
C733 N732 1.346 . S
C733 C734 1.396 . S
C733 C743 1.510 . S
C734 C730 1.401 . S
C734 C733 1.396 . S
C735 C730 1.499 . S
C735 H736 0.959 . S
C735 H737 0.960 . S
C735 H738 0.961 . S
H736 C735 0.959 . S
H737 C735 0.960 . S
H738 C735 0.961 . S
O739 Co714 1.967 . S
O739 C747 1.258 . S
O740 Co715 1.941 . S
O740 C747 1.266 . S
H741 C743 0.959 . S
H742 C743 0.961 . S
C743 C733 1.510 . S
C743 H741 0.959 . S
C743 H742 0.961 . S
C743 H744 0.960 . S
H744 C743 0.960 . S
H745 N725 0.862 . S
O746 Co714 1.920 . S
O746 C719 1.289 . S
C747 O739 1.258 . S
C747 O740 1.266 . S
Co748 O751 1.970 . S
Co748 N765 1.989 . S
Co748 O773 1.967 1_455 S
Co748 O780 1.920 1_455 S
Co749 O752 1.966 . S
Co749 N758 2.022 . S
Co749 N766 1.993 . S
Co749 O774 1.941 . S
C750 O751 1.258 . S
C750 O752 1.263 . S
O751 Co748 1.970 . S
O751 C750 1.258 . S
O752 Co749 1.966 . S
O752 C750 1.263 . S
C753 O754 1.235 . S
C753 O780 1.289 1_455 S
O754 C753 1.235 . S
C755 C757 1.400 . S
C755 N758 1.351 . S
C755 C760 1.501 . S
C756 C757 1.387 . S
C756 N759 1.341 . S
C757 C755 1.400 . S
C757 C756 1.387 . S
N758 Co749 2.022 . S
N758 C755 1.351 . S
N758 N759 1.365 . S
N759 C756 1.341 . S
N759 N758 1.365 . S
N759 H779 0.862 . S
C760 C755 1.501 . S
C760 H761 0.961 . S
C760 H762 0.961 . S
C760 H763 0.960 . S
H761 C760 0.961 . S
H762 C760 0.961 . S
H763 C760 0.960 . S
C764 N765 1.342 . S
C764 C768 1.401 . S
C764 C769 1.499 . S
N765 Co748 1.989 . S
N765 C764 1.342 . S
N765 N766 1.388 . S
N766 Co749 1.993 . S
N766 N765 1.388 . S
N766 C767 1.346 . S
C767 N766 1.346 . S
C767 C768 1.396 . S
C767 C777 1.510 . S
C768 C764 1.401 . S
C768 C767 1.396 . S
C769 C764 1.499 . S
C769 H770 0.959 . S
C769 H771 0.960 . S
C769 H772 0.961 . S
H770 C769 0.959 . S
H771 C769 0.960 . S
H772 C769 0.961 . S
O773 Co748 1.967 1_655 S
O773 C781 1.258 . S
O774 Co749 1.941 . S
O774 C781 1.266 1_455 S
H775 C777 0.959 . S
H776 C777 0.961 . S
C777 C767 1.510 . S
C777 H775 0.959 . S
C777 H776 0.961 . S
C777 H778 0.960 . S
H778 C777 0.960 . S
H779 N759 0.862 . S
O780 Co748 1.920 1_655 S
O780 C753 1.289 1_655 S
C781 O773 1.258 . S
C781 O774 1.266 1_655 S
Co782 O785 1.970 . S
Co782 N799 1.989 . S
Co782 O807 1.967 . S
Co782 O814 1.920 . S
Co783 O786 1.966 . S
Co783 N792 2.022 . S
Co783 N800 1.993 . S
Co783 O808 1.941 . S
C784 O785 1.258 . S
C784 O786 1.263 . S
O785 Co782 1.970 . S
O785 C784 1.258 . S
O786 Co783 1.966 . S
O786 C784 1.263 . S
C787 O788 1.235 . S
C787 O814 1.289 . S
O788 C787 1.235 . S
C789 C791 1.400 . S
C789 N792 1.351 . S
C789 C794 1.501 . S
C790 C791 1.387 . S
C790 N793 1.341 . S
C791 C789 1.400 . S
C791 C790 1.387 . S
N792 Co783 2.022 . S
N792 C789 1.351 . S
N792 N793 1.365 . S
N793 C790 1.341 . S
N793 N792 1.365 . S
N793 H813 0.862 . S
C794 C789 1.501 . S
C794 H795 0.961 . S
C794 H796 0.961 . S
C794 H797 0.960 . S
H795 C794 0.961 . S
H796 C794 0.961 . S
H797 C794 0.960 . S
C798 N799 1.342 . S
C798 C802 1.401 . S
C798 C803 1.499 . S
N799 Co782 1.989 . S
N799 C798 1.342 . S
N799 N800 1.388 . S
N800 Co783 1.993 . S
N800 N799 1.388 . S
N800 C801 1.346 . S
C801 N800 1.346 . S
C801 C802 1.396 . S
C801 C811 1.510 . S
C802 C798 1.401 . S
C802 C801 1.396 . S
C803 C798 1.499 . S
C803 H804 0.959 . S
C803 H805 0.960 . S
C803 H806 0.961 . S
H804 C803 0.959 . S
H805 C803 0.960 . S
H806 C803 0.961 . S
O807 Co782 1.967 . S
O807 C815 1.258 . S
O808 Co783 1.941 . S
O808 C815 1.266 . S
H809 C811 0.959 . S
H810 C811 0.961 . S
C811 C801 1.510 . S
C811 H809 0.959 . S
C811 H810 0.961 . S
C811 H812 0.960 . S
H812 C811 0.960 . S
H813 N793 0.862 . S
O814 Co782 1.920 . S
O814 C787 1.289 . S
C815 O807 1.258 . S
C815 O808 1.266 . S
C451 C20 1.652 . S
C54 C485 1.652 . S
C88 C519 1.652 . S
C417 C122 1.652 . S
C383 C156 1.652 . S
C281 C190 1.652 . S
C224 C315 1.652 . S
C349 C258 1.652 . S
C292 C43 1.652 . S
C326 C77 1.652 . S
C360 C111 1.652 . S
C9 C394 1.652 . S
C247 C428 1.652 . S
C462 C145 1.652 . S
C496 C179 1.652 . S
C213 C530 1.652 . S
C757 C564 1.652 . S
C598 C621 1.652 . S
C632 C655 1.652 . S
C689 C666 1.652 . S
C700 C587 1.652 . S
C791 C734 1.652 . S
C768 C723 1.652 . S
C553 C802 1.652 . S
C549 C33 2.315 . S
C787 C67 2.315 . S
C101 C719 2.315 . S
C753 C135 2.315 1_455 S
C583 C169 2.315 . S
C617 C203 2.315 . S
C651 C237 2.315 . S
C271 C685 2.315 1_455 S
C305 C5 2.315 . S
C339 C39 2.315 1_556 S
C373 C73 2.315 . S
C407 C107 2.315 . S
C441 C141 2.315 . S
C175 C475 2.315 . S
C209 C509 2.315 . S
C543 C243 2.315 1_554 S
C277 C577 2.315 . S
C413 C611 2.315 . S
C447 C645 2.315 1_545 S
C481 C679 2.315 . S
C713 C515 2.315 1_545 S
C747 C345 2.315 . S
C781 C379 2.315 . S
C311 C815 2.315 . S
C682 C2 1.099 1_655 S
C36 C580 1.098 1_554 S
C614 C70 1.098 . S
C104 C648 1.098 . S
C784 C138 1.099 . S
C716 C172 1.099 . S
C206 C750 1.098 1_655 S
C546 C240 1.099 1_554 S
C512 C274 1.099 1_565 S
C410 C308 1.098 . S
C444 C342 1.098 1_545 S
C478 C376 1.099 . S
