# Generated by pormake.
# Topology wme, (6)-cn, num edge types: 1
# Building blocks:
#     Node 0, Type 0, BuildingBlock: FUNLAD_clean_sbu_0, # of connection points: 6
#     Node 1, Type 0, BuildingBlock: FUNLAD_clean_sbu_0, # of connection points: 6
#     Node 2, Type 0, BuildingBlock: FUNLAD_clean_sbu_0, # of connection points: 6
#     Node 3, Type 0, BuildingBlock: FUNLAD_clean_sbu_0, # of connection points: 6
#     Node 4, Type 0, BuildingBlock: FUNLAD_clean_sbu_0, # of connection points: 6
#     Node 5, Type 0, BuildingBlock: FUNLAD_clean_sbu_0, # of connection points: 6
#     Node 6, Type 0, BuildingBlock: FUNLAD_clean_sbu_0, # of connection points: 6
#     Node 7, Type 0, BuildingBlock: FUNLAD_clean_sbu_0, # of connection points: 6
#     Node 8, Type 0, BuildingBlock: FUNLAD_clean_sbu_0, # of connection points: 6
#     Node 9, Type 0, BuildingBlock: FUNLAD_clean_sbu_0, # of connection points: 6
#     Node 10, Type 0, BuildingBlock: FUNLAD_clean_sbu_0, # of connection points: 6
#     Node 11, Type 0, BuildingBlock: FUNLAD_clean_sbu_0, # of connection points: 6
#     Edge 12, Type (0, 0), None
#     Edge 13, Type (0, 0), None
#     Edge 14, Type (0, 0), None
#     Edge 15, Type (0, 0), None
#     Edge 16, Type (0, 0), None
#     Edge 17, Type (0, 0), None
#     Edge 18, Type (0, 0), None
#     Edge 19, Type (0, 0), None
#     Edge 20, Type (0, 0), None
#     Edge 21, Type (0, 0), None
#     Edge 22, Type (0, 0), None
#     Edge 23, Type (0, 0), None
#     Edge 24, Type (0, 0), None
#     Edge 25, Type (0, 0), None
#     Edge 26, Type (0, 0), None
#     Edge 27, Type (0, 0), None
#     Edge 28, Type (0, 0), None
#     Edge 29, Type (0, 0), None
#     Edge 30, Type (0, 0), None
#     Edge 31, Type (0, 0), None
#     Edge 32, Type (0, 0), None
#     Edge 33, Type (0, 0), None
#     Edge 34, Type (0, 0), None
#     Edge 35, Type (0, 0), None
#     Edge 36, Type (0, 0), None
#     Edge 37, Type (0, 0), None
#     Edge 38, Type (0, 0), None
#     Edge 39, Type (0, 0), None
#     Edge 40, Type (0, 0), None
#     Edge 41, Type (0, 0), None
#     Edge 42, Type (0, 0), None
#     Edge 43, Type (0, 0), None
#     Edge 44, Type (0, 0), None
#     Edge 45, Type (0, 0), None
#     Edge 46, Type (0, 0), None
#     Edge 47, Type (0, 0), None
# Relax obj value: 0.067
# Max RMSD: 0.197
# Mean RMSD: 0.197
data_MOF--net-wme--node1-FUNLAD_clean_sbu_0--edge1-none
_symmetry_space_group_name_H-M    P1
_symmetry_Int_Tables_number       1
_symmetry_cell_setting            triclinic
loop_
_symmetry_equiv_pos_as_xyz
'x, y, z'
_cell_length_a     13.610261
_cell_length_b     13.609454
_cell_length_c     52.495156
_cell_angle_alpha  90.00005
_cell_angle_beta   89.999874
_cell_angle_gamma 119.99906
loop_
_atom_site_label
_atom_site_type_symbol
_atom_site_fract_x
_atom_site_fract_y
_atom_site_fract_z
_atom_type_partial_charge
C0 C 0.14944 0.1104 0.15336 0.0
N1 N 0.11815 0.26495 0.09006 0.0
C2 C 0.21222 0.2556 0.08553 0.0
C3 C 0.23445 0.2276 0.06159 0.0
C4 C 0.1633 0.21481 0.0413 0.0
C5 C 0.07164 0.23335 0.04564 0.0
C6 C 0.04831 0.25547 0.07048 0.0
Zn7 Zn 0.09875 0.28192 0.12913 0.0
C8 C 0.87628 0.11825 0.15226 0.0
N9 N 0.10556 0.29757 0.21101 0.0
C10 C 0.17982 0.27871 0.22453 0.0
C11 C 0.03245 0.32295 0.22303 0.0
C12 C 0.0322 0.33007 0.24957 0.0
C13 C 0.10525 0.30711 0.26417 0.0
C14 C 0.17986 0.28122 0.25111 0.0
Zn15 Zn 0.1035 0.28533 0.17195 0.0
O16 O 0.13789 0.15187 0.13291 0.0
C17 C 0.32338 0.45671 0.14902 0.0
O18 O 0.14469 0.15357 0.17441 0.0
H19 H -0.02639 0.3374 0.21208 0.0
H20 H 0.27043 0.26692 0.10071 0.0
H21 H 0.23845 0.26008 0.21473 0.0
O22 O 0.26943 0.41277 0.12871 0.0
O23 O 0.27694 0.41544 0.17041 0.0
H24 H -0.02521 0.26426 0.07406 0.0
O25 O 0.0586 0.41194 0.16868 0.0
O26 O 0.05299 0.41035 0.12662 0.0
O27 O -0.06889 0.15962 0.17278 0.0
O28 O -0.07478 0.15389 0.13071 0.0
C29 C 0.04209 0.44955 0.14794 0.0
H30 H 0.30825 0.21815 0.05891 0.0
H31 H 0.01865 0.22951 0.02995 0.0
H32 H -0.02503 0.35344 0.25839 0.0
H33 H 0.2366 0.2606 0.26115 0.0
C34 C -0.01042 0.17481 0.65336 0.0
N35 N 0.80374 0.14353 0.59006 0.0
C36 C 0.90717 0.23761 0.58553 0.0
C37 C -0.0426 0.25983 0.56159 0.0
C38 C 0.89904 0.18868 0.5413 0.0
C39 C 0.78884 0.09703 0.54564 0.0
C40 C 0.74338 0.0737 0.57048 0.0
Zn41 Zn 0.76737 0.12413 0.62913 0.0
C42 C 0.70857 0.90166 0.65226 0.0
N43 N 0.75854 0.13094 0.71101 0.0
C44 C 0.85165 0.2052 0.72453 0.0
C45 C 0.66005 0.05784 0.72303 0.0
C46 C 0.65269 0.05759 0.74957 0.0
C47 C 0.74869 0.13063 0.76417 0.0
C48 C 0.84919 0.20525 0.75111 0.0
Zn49 Zn 0.76872 0.12888 0.67195 0.0
O50 O -0.06345 0.16326 0.63291 0.0
C51 C 0.81723 0.34877 0.64902 0.0
O52 O -0.05835 0.17006 0.67441 0.0
H53 H 0.58675 -0.00101 0.71208 0.0
H54 H -0.04594 0.29581 0.60071 0.0
H55 H -0.07108 0.26384 0.71473 0.0
O56 O 0.80722 0.29482 0.62871 0.0
O57 O 0.81205 0.30233 0.67041 0.0
H58 H 0.66108 0.00018 0.57406 0.0
O59 O 0.59721 0.08399 0.66868 0.0
O60 O 0.59318 0.07838 0.62662 0.0
O61 O 0.72203 -0.04351 0.67278 0.0
O62 O 0.72186 -0.04941 0.63071 0.0
C63 C 0.54309 0.06748 0.64794 0.0
H64 H 0.04065 0.33363 0.55891 0.0
H65 H 0.73969 0.04403 0.52995 0.0
H66 H 0.57208 0.00036 0.75839 0.0
H67 H -0.07345 0.26199 0.76115 0.0
C68 C 0.76531 0.01495 0.15336 0.0
N69 N 0.61077 0.82912 0.09006 0.0
C70 C 0.62013 0.93256 0.08553 0.0
C71 C 0.64813 -0.01721 0.06159 0.0
C72 C 0.66092 0.92442 0.0413 0.0
C73 C 0.64237 0.81422 0.04564 0.0
C74 C 0.62025 0.76876 0.07048 0.0
Zn75 Zn 0.5938 0.79275 0.12913 0.0
C76 C 0.75748 0.73396 0.15226 0.0
N77 N 0.57816 0.78391 0.21101 0.0
C78 C 0.59701 0.87703 0.22453 0.0
C79 C 0.55278 0.68542 0.22303 0.0
C80 C 0.54567 0.67806 0.24957 0.0
C81 C 0.56863 0.77407 0.26417 0.0
C82 C 0.59451 0.87457 0.25111 0.0
Zn83 Zn 0.5904 0.7941 0.17195 0.0
O84 O 0.72385 -0.03806 0.1329 0.0
C85 C 0.41901 0.84259 0.14902 0.0
O86 O 0.72215 -0.03296 0.17441 0.0
H87 H 0.53834 0.61212 0.21208 0.0
H88 H 0.6088 -0.02055 0.10071 0.0
H89 H 0.61564 -0.0457 0.21474 0.0
O90 O 0.46295 0.83259 0.12871 0.0
O91 O 0.46028 0.83742 0.17041 0.0
H92 H 0.61146 0.68645 0.07406 0.0
O93 O 0.46379 0.62258 0.16868 0.0
O94 O 0.46537 0.61856 0.12662 0.0
O95 O 0.71611 0.74741 0.17278 0.0
O96 O 0.72184 0.74725 0.13071 0.0
C97 C 0.42619 0.56847 0.14794 0.0
H98 H 0.65758 0.06604 0.05891 0.0
H99 H 0.64621 0.76506 0.02995 0.0
H100 H 0.5223 0.59745 0.25839 0.0
H101 H 0.61512 -0.04807 0.26115 0.0
C102 C 0.7009 0.79069 0.65336 0.0
N103 N 0.73219 0.63615 0.59006 0.0
C104 C 0.63812 0.6455 0.58553 0.0
C105 C 0.61589 0.6735 0.56159 0.0
C106 C 0.68705 0.6863 0.5413 0.0
C107 C 0.77871 0.66776 0.54564 0.0
C108 C 0.80204 0.64564 0.57048 0.0
Zn109 Zn 0.75159 0.61918 0.62913 0.0
C110 C -0.02594 0.78286 0.65226 0.0
N111 N 0.74479 0.60354 0.71101 0.0
C112 C 0.67053 0.62239 0.72453 0.0
C113 C 0.81789 0.57816 0.72303 0.0
C114 C 0.81815 0.57104 0.74957 0.0
C115 C 0.7451 0.594 0.76417 0.0
C116 C 0.67048 0.61988 0.75111 0.0
Zn117 Zn 0.74684 0.61578 0.67195 0.0
O118 O 0.71245 0.74923 0.6329 0.0
C119 C 0.52697 0.4444 0.64902 0.0
O120 O 0.70566 0.74753 0.67441 0.0
H121 H 0.87674 0.56371 0.71208 0.0
H122 H 0.57991 0.63418 0.60071 0.0
H123 H 0.61189 0.64102 0.71474 0.0
O124 O 0.58092 0.48833 0.62871 0.0
O125 O 0.57341 0.48566 0.67041 0.0
H126 H 0.87556 0.63686 0.57406 0.0
O127 O 0.79175 0.48917 0.66868 0.0
O128 O 0.79736 0.49075 0.62662 0.0
O129 O 0.91923 0.74149 0.67278 0.0
O130 O -0.07487 0.74722 0.63071 0.0
C131 C 0.80827 0.45157 0.64794 0.0
H132 H 0.54209 0.68295 0.5589 0.0
H133 H 0.83171 0.67161 0.52995 0.0
H134 H 0.87538 0.54767 0.75839 0.0
H135 H 0.61374 0.6405 0.76115 0.0
C136 C 0.86078 0.7263 0.15336 0.0
N137 N 0.0466 0.75757 0.09006 0.0
C138 C -0.05683 0.6635 0.08553 0.0
C139 C 0.89295 0.64128 0.06159 0.0
C140 C -0.04869 0.71243 0.0413 0.0
C141 C 0.0615 0.80408 0.04563 0.0
C142 C 0.10696 0.82741 0.07048 0.0
Zn143 Zn 0.08297 0.77697 0.12913 0.0
C144 C 0.14178 -0.00056 0.15226 0.0
N145 N 0.09181 0.77016 0.21101 0.0
C146 C -0.0013 0.69591 0.22453 0.0
C147 C 0.19029 0.84327 0.22303 0.0
C148 C 0.19766 0.84352 0.24957 0.0
C149 C 0.10165 0.77047 0.26417 0.0
C150 C 0.00116 0.69586 0.25111 0.0
Zn151 Zn 0.08163 0.77222 0.17195 0.0
O152 O 0.91379 0.73785 0.1329 0.0
C153 C 0.03312 0.55235 0.14902 0.0
O154 O 0.90869 0.73104 0.17441 0.0
H155 H 0.26359 0.90212 0.21208 0.0
H156 H 0.89629 0.60529 0.10071 0.0
H157 H 0.92143 0.63727 0.21474 0.0
O158 O 0.04313 0.60629 0.1287 0.0
O159 O 0.03829 0.59877 0.17041 0.0
H160 H 0.18927 0.90093 0.07405 0.0
O161 O 0.25314 0.81711 0.16868 0.0
O162 O 0.25716 0.82273 0.12662 0.0
O163 O 0.12832 0.94461 0.17278 0.0
O164 O 0.12849 -0.04948 0.13071 0.0
C165 C 0.30725 0.83363 0.14794 0.0
H166 H 0.8097 0.56748 0.05891 0.0
H167 H 0.11066 0.85708 0.02995 0.0
H168 H 0.27826 0.90075 0.25839 0.0
H169 H 0.9238 0.63912 0.26115 0.0
C170 C 0.08503 0.88616 0.65336 0.0
N171 N 0.23958 0.07198 0.59006 0.0
C172 C 0.23022 -0.03145 0.58553 0.0
C173 C 0.20222 0.91832 0.56159 0.0
C174 C 0.18943 -0.02331 0.5413 0.0
C175 C 0.20798 0.08689 0.54564 0.0
C176 C 0.23011 0.13235 0.57048 0.0
Zn177 Zn 0.25655 0.10835 0.62913 0.0
C178 C 0.09288 0.16716 0.65226 0.0
N179 N 0.27219 0.11719 0.71101 0.0
C180 C 0.25333 0.02408 0.72453 0.0
C181 C 0.29757 0.21568 0.72303 0.0
C182 C 0.30468 0.22305 0.74957 0.0
C183 C 0.28172 0.12704 0.76417 0.0
C184 C 0.25584 0.02654 0.75111 0.0
Zn185 Zn 0.25995 0.10701 0.67195 0.0
O186 O 0.12649 0.93917 0.6329 0.0
C187 C 0.43132 0.0585 0.64902 0.0
O188 O 0.1282 0.93407 0.67441 0.0
H189 H 0.31201 0.28898 0.71208 0.0
H190 H 0.24153 0.92166 0.60071 0.0
H191 H 0.23471 0.94681 0.71474 0.0
O192 O 0.38739 0.06851 0.6287 0.0
O193 O 0.39007 0.06368 0.67041 0.0
H194 H 0.2389 0.21466 0.57405 0.0
O195 O 0.38656 0.27852 0.66868 0.0
O196 O 0.38498 0.28255 0.62662 0.0
O197 O 0.13424 0.1537 0.67278 0.0
O198 O 0.12851 0.15387 0.63071 0.0
C199 C 0.42416 0.33264 0.64794 0.0
H200 H 0.19276 0.83506 0.55891 0.0
H201 H 0.20415 0.13605 0.52995 0.0
H202 H 0.32805 0.30366 0.75839 0.0
H203 H 0.23523 0.94918 0.76115 0.0
C204 C 0.76533 0.72629 0.4035 0.0
N205 N 0.61077 0.75757 0.46679 0.0
C206 C 0.62014 0.66351 0.47133 0.0
C207 C 0.64814 0.64128 0.49527 0.0
C208 C 0.6609 0.71243 0.51556 0.0
C209 C 0.64234 0.80408 0.51122 0.0
C210 C 0.62022 0.82741 0.48638 0.0
Zn211 Zn 0.5938 0.77697 0.42773 0.0
C212 C 0.75748 -0.00055 0.4046 0.0
N213 N 0.57816 0.77017 0.34585 0.0
C214 C 0.59702 0.69591 0.33233 0.0
C215 C 0.55278 0.84328 0.33383 0.0
C216 C 0.54566 0.84353 0.30729 0.0
C217 C 0.56863 0.77048 0.29269 0.0
C218 C 0.59451 0.69586 0.30575 0.0
Zn219 Zn 0.5904 0.77222 0.38491 0.0
O220 O 0.72385 0.73784 0.42395 0.0
C221 C 0.41902 0.55234 0.40784 0.0
O222 O 0.72215 0.73103 0.38245 0.0
H223 H 0.53833 0.90213 0.34478 0.0
H224 H 0.60883 0.6053 0.45615 0.0
H225 H 0.61565 0.63727 0.34212 0.0
O226 O 0.46296 0.60628 0.42815 0.0
O227 O 0.46028 0.59878 0.38645 0.0
H228 H 0.61143 0.90092 0.4828 0.0
O229 O 0.46378 0.81712 0.38818 0.0
O230 O 0.46537 0.82273 0.43023 0.0
O231 O 0.71611 0.94462 0.38408 0.0
O232 O 0.72183 -0.04948 0.42615 0.0
C233 C 0.42617 0.83363 0.40892 0.0
H234 H 0.6576 0.56749 0.49795 0.0
H235 H 0.64616 0.85707 0.52691 0.0
H236 H 0.52229 0.90076 0.29847 0.0
H237 H 0.61513 0.63912 0.29571 0.0
C238 C -0.01042 0.79071 0.9035 0.0
N239 N 0.80374 0.63615 0.96679 0.0
C240 C 0.90717 0.64552 0.97133 0.0
C241 C -0.0426 0.67352 0.99527 0.0
C242 C 0.89902 0.68629 1.01556 0.0
C243 C 0.78883 0.66773 1.01122 0.0
C244 C 0.74338 0.64561 0.98638 0.0
Zn245 Zn 0.76737 0.61918 0.92773 0.0
C246 C 0.70858 0.78286 0.9046 0.0
N247 N 0.75854 0.60354 0.84585 0.0
C248 C 0.85165 0.62239 0.83233 0.0
C249 C 0.66005 0.57816 0.83383 0.0
C250 C 0.65268 0.57104 0.80729 0.0
C251 C 0.74869 0.594 0.79269 0.0
C252 C 0.84918 0.61989 0.80575 0.0
Zn253 Zn 0.76872 0.61578 0.88491 0.0
O254 O -0.06345 0.74924 0.92395 0.0
C255 C 0.81722 0.4444 0.90784 0.0
O256 O -0.05835 0.74753 0.88245 0.0
H257 H 0.58675 0.56371 0.84478 0.0
H258 H -0.04594 0.63421 0.95615 0.0
H259 H -0.07109 0.64102 0.84212 0.0
O260 O 0.80721 0.48834 0.92815 0.0
O261 O 0.81204 0.48566 0.88645 0.0
H262 H 0.66107 0.63682 0.9828 0.0
O263 O 0.59721 0.48916 0.88818 0.0
O264 O 0.59318 0.49075 0.93024 0.0
O265 O 0.72203 0.74149 0.88408 0.0
O266 O 0.72187 0.74722 0.92615 0.0
C267 C 0.54309 0.45156 0.90892 0.0
H268 H 0.04065 0.68297 0.99795 0.0
H269 H 0.73966 0.67156 1.02691 0.0
H270 H 0.57208 0.54767 0.79847 0.0
H271 H -0.07346 0.6405 0.79571 0.0
C272 C 0.14944 0.01496 0.4035 0.0
N273 N 0.11815 0.82912 0.4668 0.0
C274 C 0.21221 0.93255 0.47133 0.0
C275 C 0.23444 -0.01722 0.49527 0.0
C276 C 0.1633 0.9244 0.51556 0.0
C277 C 0.07165 0.8142 0.51122 0.0
C278 C 0.04832 0.76875 0.48638 0.0
Zn279 Zn 0.09875 0.79275 0.42773 0.0
C280 C 0.87629 0.73395 0.4046 0.0
N281 N 0.10556 0.78391 0.34585 0.0
C282 C 0.17981 0.87702 0.33233 0.0
C283 C 0.03245 0.68542 0.33383 0.0
C284 C 0.0322 0.67805 0.30729 0.0
C285 C 0.10524 0.77406 0.29269 0.0
C286 C 0.17986 0.87456 0.30575 0.0
Zn287 Zn 0.1035 0.7941 0.38491 0.0
O288 O 0.13788 -0.03807 0.42395 0.0
C289 C 0.32337 0.8426 0.40784 0.0
O290 O 0.14469 -0.03296 0.38245 0.0
H291 H -0.0264 0.61212 0.34478 0.0
H292 H 0.27042 -0.02056 0.45615 0.0
H293 H 0.23845 -0.04571 0.34212 0.0
O294 O 0.26943 0.83259 0.42815 0.0
O295 O 0.27694 0.83742 0.38645 0.0
H296 H -0.02519 0.68643 0.4828 0.0
O297 O 0.0586 0.62258 0.38818 0.0
O298 O 0.05299 0.61856 0.43024 0.0
O299 O -0.06889 0.74741 0.38408 0.0
O300 O -0.07479 0.74724 0.42615 0.0
C301 C 0.04209 0.56846 0.40892 0.0
H302 H 0.30823 0.06603 0.49795 0.0
H303 H 0.01866 0.76503 0.52691 0.0
H304 H -0.02503 0.59745 0.29847 0.0
H305 H 0.2366 -0.04808 0.29571 0.0
C306 C 0.08502 0.17481 0.9035 0.0
N307 N 0.23958 0.14353 0.9668 0.0
C308 C 0.2302 0.2376 0.97133 0.0
C309 C 0.2022 0.25982 0.99527 0.0
C310 C 0.18944 0.18867 1.01556 0.0
C311 C 0.20801 0.09703 1.01122 0.0
C312 C 0.23013 0.0737 0.98638 0.0
Zn313 Zn 0.25655 0.12413 0.92773 0.0
C314 C 0.09289 0.90166 0.9046 0.0
N315 N 0.27219 0.13094 0.84585 0.0
C316 C 0.25333 0.2052 0.83233 0.0
C317 C 0.29757 0.05783 0.83383 0.0
C318 C 0.30469 0.05758 0.80729 0.0
C319 C 0.28172 0.13063 0.79269 0.0
C320 C 0.25584 0.20525 0.80575 0.0
Zn321 Zn 0.25995 0.12889 0.88491 0.0
O322 O 0.12649 0.16326 0.92395 0.0
C323 C 0.43132 0.34876 0.90784 0.0
O324 O 0.1282 0.17007 0.88245 0.0
H325 H 0.31203 -0.00101 0.84478 0.0
H326 H 0.24151 0.2958 0.95615 0.0
H327 H 0.2347 0.26384 0.84212 0.0
O328 O 0.38739 0.29482 0.92815 0.0
O329 O 0.39007 0.30233 0.88645 0.0
H330 H 0.23893 0.00019 0.9828 0.0
O331 O 0.38657 0.08399 0.88818 0.0
O332 O 0.38498 0.07838 0.93023 0.0
O333 O 0.13425 -0.04351 0.88408 0.0
O334 O 0.12852 -0.04941 0.92615 0.0
C335 C 0.42418 0.06748 0.90892 0.0
H336 H 0.19274 0.33361 0.99796 0.0
H337 H 0.20419 0.04404 1.02691 0.0
H338 H 0.32806 0.00035 0.79847 0.0
H339 H 0.23522 0.26199 0.79571 0.0
C340 C 0.86078 0.11041 0.4035 0.0
N341 N 0.04661 0.26495 0.4668 0.0
C342 C -0.05682 0.25559 0.47133 0.0
C343 C 0.89295 0.22759 0.49527 0.0
C344 C -0.04868 0.21482 0.51556 0.0
C345 C 0.06152 0.23337 0.51123 0.0
C346 C 0.10697 0.25549 0.48638 0.0
Zn347 Zn 0.08297 0.28192 0.42773 0.0
C348 C 0.14178 0.11826 0.4046 0.0
N349 N 0.09181 0.29757 0.34585 0.0
C350 C -0.0013 0.27871 0.33233 0.0
C351 C 0.1903 0.32295 0.33383 0.0
C352 C 0.19766 0.33007 0.30729 0.0
C353 C 0.10166 0.3071 0.29268 0.0
C354 C 0.00116 0.28122 0.30575 0.0
Zn355 Zn 0.08163 0.28533 0.38491 0.0
O356 O 0.91379 0.15187 0.42396 0.0
C357 C 0.03312 0.45669 0.40784 0.0
O358 O 0.90869 0.15357 0.38245 0.0
H359 H 0.26359 0.3374 0.34478 0.0
H360 H 0.89629 0.2669 0.45615 0.0
H361 H 0.92144 0.26008 0.34212 0.0
O362 O 0.04313 0.41277 0.42815 0.0
O363 O 0.0383 0.41544 0.38645 0.0
H364 H 0.18928 0.26428 0.48281 0.0
O365 O 0.25314 0.41194 0.38818 0.0
O366 O 0.25716 0.41036 0.43024 0.0
O367 O 0.12831 0.15962 0.38408 0.0
O368 O 0.12848 0.15389 0.42615 0.0
C369 C 0.30725 0.44954 0.40892 0.0
H370 H 0.8097 0.21814 0.49795 0.0
H371 H 0.11068 0.22955 0.52691 0.0
H372 H 0.27827 0.35344 0.29847 0.0
H373 H 0.92381 0.26061 0.29571 0.0
C374 C 0.70091 0.88616 0.9035 0.0
N375 N 0.7322 0.07199 0.9668 0.0
C376 C 0.63813 -0.03144 0.97133 0.0
C377 C 0.61591 0.91833 0.99527 0.0
C378 C 0.68705 -0.02329 1.01556 0.0
C379 C 0.7787 0.08691 1.01122 0.0
C380 C 0.80203 0.13236 0.98638 0.0
Zn381 Zn 0.75159 0.10836 0.92773 0.0
C382 C -0.02594 0.16715 0.9046 0.0
N383 N 0.74479 0.11719 0.84585 0.0
C384 C 0.67053 0.02408 0.83233 0.0
C385 C 0.8179 0.21569 0.83383 0.0
C386 C 0.81815 0.22305 0.80729 0.0
C387 C 0.7451 0.12704 0.79268 0.0
C388 C 0.67049 0.02654 0.80575 0.0
Zn389 Zn 0.74685 0.10701 0.88491 0.0
O390 O 0.71246 0.93917 0.92396 0.0
C391 C 0.52698 0.05851 0.90784 0.0
O392 O 0.70566 0.93407 0.88245 0.0
H393 H 0.87675 0.28898 0.84478 0.0
H394 H 0.57993 0.92167 0.95615 0.0
H395 H 0.61189 0.94681 0.84212 0.0
O396 O 0.58092 0.06852 0.92815 0.0
O397 O 0.57341 0.06369 0.88645 0.0
H398 H 0.87555 0.21467 0.9828 0.0
O399 O 0.79175 0.27852 0.88818 0.0
O400 O 0.79736 0.28255 0.93024 0.0
O401 O 0.91924 0.15369 0.88408 0.0
O402 O -0.07487 0.15386 0.92615 0.0
C403 C 0.80826 0.33264 0.90892 0.0
H404 H 0.54211 0.83508 0.99796 0.0
H405 H 0.83169 0.13607 1.02691 0.0
H406 H 0.87538 0.30366 0.79847 0.0
H407 H 0.61374 0.94918 0.79571 0.0
loop_
_geom_bond_atom_site_label_1
_geom_bond_atom_site_label_2
_geom_bond_distance
_geom_bond_site_symmetry_2
_ccdc_geom_bond_type
C0 O16 1.251 . S
C0 O18 1.254 . S
N1 C2 1.333 . S
N1 C6 1.307 . S
N1 Zn7 2.020 . S
C2 N1 1.333 . S
C2 C3 1.379 . S
C2 H20 0.952 . S
C3 C2 1.379 . S
C3 C4 1.390 . S
C3 H30 0.949 . S
C4 C3 1.390 . S
C4 C5 1.357 . S
C5 C4 1.357 . S
C5 C6 1.370 . S
C5 H31 0.950 . S
C6 N1 1.307 . S
C6 C5 1.370 . S
C6 H24 0.948 . S
Zn7 N1 2.020 . S
Zn7 O16 2.039 . S
Zn7 O22 2.034 . S
Zn7 O26 2.025 . S
Zn7 O28 2.024 . S
C8 O27 1.246 1_655 S
C8 O28 1.249 1_655 S
N9 C10 1.307 . S
N9 C11 1.333 . S
N9 Zn15 2.020 . S
C10 N9 1.307 . S
C10 C14 1.370 . S
C10 H21 0.948 . S
C11 N9 1.333 . S
C11 C12 1.379 . S
C11 H19 0.952 . S
C12 C11 1.379 . S
C12 C13 1.390 . S
C12 H32 0.949 . S
C13 C12 1.390 . S
C13 C14 1.357 . S
C14 C10 1.370 . S
C14 C13 1.357 . S
C14 H33 0.950 . S
Zn15 N9 2.020 . S
Zn15 O18 2.025 . S
Zn15 O23 2.024 . S
Zn15 O25 2.039 . S
Zn15 O27 2.034 . S
O16 C0 1.251 . S
O16 Zn7 2.039 . S
C17 O22 1.246 . S
C17 O23 1.249 . S
O18 C0 1.254 . S
O18 Zn15 2.025 . S
H19 C11 0.952 . S
H20 C2 0.952 . S
H21 C10 0.948 . S
O22 Zn7 2.034 . S
O22 C17 1.246 . S
O23 Zn15 2.024 . S
O23 C17 1.249 . S
H24 C6 0.948 . S
O25 Zn15 2.039 . S
O25 C29 1.251 . S
O26 Zn7 2.025 . S
O26 C29 1.254 . S
O27 C8 1.246 1_455 S
O27 Zn15 2.034 . S
O28 Zn7 2.024 . S
O28 C8 1.249 1_455 S
C29 O25 1.251 . S
C29 O26 1.254 . S
H30 C3 0.949 . S
H31 C5 0.950 . S
H32 C12 0.949 . S
H33 C14 0.950 . S
C34 O50 1.251 . S
C34 O52 1.254 . S
N35 C36 1.333 . S
N35 C40 1.307 . S
N35 Zn41 2.020 . S
C36 N35 1.333 . S
C36 C37 1.379 1_655 S
C36 H54 0.952 1_655 S
C37 C36 1.379 1_455 S
C37 C38 1.390 1_455 S
C37 H64 0.949 . S
C38 C37 1.390 1_655 S
C38 C39 1.357 . S
C39 C38 1.357 . S
C39 C40 1.370 . S
C39 H65 0.950 . S
C40 N35 1.307 . S
C40 C39 1.370 . S
C40 H58 0.948 . S
Zn41 N35 2.020 . S
Zn41 O50 2.039 1_655 S
Zn41 O56 2.034 . S
Zn41 O60 2.025 . S
Zn41 O62 2.024 . S
C42 O61 1.246 1_565 S
C42 O62 1.249 1_565 S
N43 C44 1.307 . S
N43 C45 1.333 . S
N43 Zn49 2.020 . S
C44 N43 1.307 . S
C44 C48 1.370 . S
C44 H55 0.948 1_655 S
C45 N43 1.333 . S
C45 C46 1.379 . S
C45 H53 0.952 . S
C46 C45 1.379 . S
C46 C47 1.390 . S
C46 H66 0.949 . S
C47 C46 1.390 . S
C47 C48 1.357 . S
C48 C44 1.370 . S
C48 C47 1.357 . S
C48 H67 0.950 . S
Zn49 N43 2.020 . S
Zn49 O52 2.025 1_655 S
Zn49 O57 2.024 . S
Zn49 O59 2.039 . S
Zn49 O61 2.034 . S
O50 C34 1.251 . S
O50 Zn41 2.039 1_455 S
C51 O56 1.246 . S
C51 O57 1.249 . S
O52 C34 1.254 . S
O52 Zn49 2.025 1_455 S
H53 C45 0.952 . S
H54 C36 0.952 1_455 S
H55 C44 0.948 1_455 S
O56 Zn41 2.034 . S
O56 C51 1.246 . S
O57 Zn49 2.024 . S
O57 C51 1.249 . S
H58 C40 0.948 . S
O59 Zn49 2.039 . S
O59 C63 1.251 . S
O60 Zn41 2.025 . S
O60 C63 1.254 . S
O61 C42 1.246 1_545 S
O61 Zn49 2.034 . S
O62 Zn41 2.024 . S
O62 C42 1.249 1_545 S
C63 O59 1.251 . S
C63 O60 1.254 . S
H64 C37 0.949 . S
H65 C39 0.950 . S
H66 C46 0.949 . S
H67 C48 0.950 . S
C68 O84 1.251 . S
C68 O86 1.254 . S
N69 C70 1.333 . S
N69 C74 1.307 . S
N69 Zn75 2.020 . S
C70 N69 1.333 . S
C70 C71 1.379 1_565 S
C70 H88 0.952 1_565 S
C71 C70 1.379 1_545 S
C71 C72 1.390 1_545 S
C71 H98 0.949 . S
C72 C71 1.390 1_565 S
C72 C73 1.357 . S
C73 C72 1.357 . S
C73 C74 1.370 . S
C73 H99 0.950 . S
C74 N69 1.307 . S
C74 C73 1.370 . S
C74 H92 0.948 . S
Zn75 N69 2.020 . S
Zn75 O84 2.039 1_565 S
Zn75 O90 2.034 . S
Zn75 O94 2.025 . S
Zn75 O96 2.024 . S
C76 O95 1.246 . S
C76 O96 1.249 . S
N77 C78 1.307 . S
N77 C79 1.333 . S
N77 Zn83 2.020 . S
C78 N77 1.307 . S
C78 C82 1.370 . S
C78 H89 0.948 1_565 S
C79 N77 1.333 . S
C79 C80 1.379 . S
C79 H87 0.952 . S
C80 C79 1.379 . S
C80 C81 1.390 . S
C80 H100 0.949 . S
C81 C80 1.390 . S
C81 C82 1.357 . S
C82 C78 1.370 . S
C82 C81 1.357 . S
C82 H101 0.950 . S
Zn83 N77 2.020 . S
Zn83 O86 2.025 1_565 S
Zn83 O91 2.024 . S
Zn83 O93 2.039 . S
Zn83 O95 2.034 . S
O84 C68 1.251 . S
O84 Zn75 2.039 1_545 S
C85 O90 1.246 . S
C85 O91 1.249 . S
O86 C68 1.254 . S
O86 Zn83 2.025 1_545 S
H87 C79 0.952 . S
H88 C70 0.952 1_545 S
H89 C78 0.948 1_545 S
O90 Zn75 2.034 . S
O90 C85 1.246 . S
O91 Zn83 2.024 . S
O91 C85 1.249 . S
H92 C74 0.948 . S
O93 Zn83 2.039 . S
O93 C97 1.251 . S
O94 Zn75 2.025 . S
O94 C97 1.254 . S
O95 C76 1.246 . S
O95 Zn83 2.034 . S
O96 Zn75 2.024 . S
O96 C76 1.249 . S
C97 O93 1.251 . S
C97 O94 1.254 . S
H98 C71 0.949 . S
H99 C73 0.950 . S
H100 C80 0.949 . S
H101 C82 0.950 . S
C102 O118 1.251 . S
C102 O120 1.254 . S
N103 C104 1.333 . S
N103 C108 1.307 . S
N103 Zn109 2.020 . S
C104 N103 1.333 . S
C104 C105 1.379 . S
C104 H122 0.952 . S
C105 C104 1.379 . S
C105 C106 1.390 . S
C105 H132 0.949 . S
C106 C105 1.390 . S
C106 C107 1.357 . S
C107 C106 1.357 . S
C107 C108 1.370 . S
C107 H133 0.950 . S
C108 N103 1.307 . S
C108 C107 1.370 . S
C108 H126 0.948 . S
Zn109 N103 2.020 . S
Zn109 O118 2.039 . S
Zn109 O124 2.034 . S
Zn109 O128 2.025 . S
Zn109 O130 2.024 . S
C110 O129 1.246 1_455 S
C110 O130 1.249 1_455 S
N111 C112 1.307 . S
N111 C113 1.333 . S
N111 Zn117 2.020 . S
C112 N111 1.307 . S
C112 C116 1.370 . S
C112 H123 0.948 . S
C113 N111 1.333 . S
C113 C114 1.379 . S
C113 H121 0.952 . S
C114 C113 1.379 . S
C114 C115 1.390 . S
C114 H134 0.949 . S
C115 C114 1.390 . S
C115 C116 1.357 . S
C116 C112 1.370 . S
C116 C115 1.357 . S
C116 H135 0.950 . S
Zn117 N111 2.020 . S
Zn117 O120 2.025 . S
Zn117 O125 2.024 . S
Zn117 O127 2.039 . S
Zn117 O129 2.034 . S
O118 C102 1.251 . S
O118 Zn109 2.039 . S
C119 O124 1.246 . S
C119 O125 1.249 . S
O120 C102 1.254 . S
O120 Zn117 2.025 . S
H121 C113 0.952 . S
H122 C104 0.952 . S
H123 C112 0.948 . S
O124 Zn109 2.034 . S
O124 C119 1.246 . S
O125 Zn117 2.024 . S
O125 C119 1.249 . S
H126 C108 0.948 . S
O127 Zn117 2.039 . S
O127 C131 1.251 . S
O128 Zn109 2.025 . S
O128 C131 1.254 . S
O129 C110 1.246 1_655 S
O129 Zn117 2.034 . S
O130 Zn109 2.024 . S
O130 C110 1.249 1_655 S
C131 O127 1.251 . S
C131 O128 1.254 . S
H132 C105 0.949 . S
H133 C107 0.950 . S
H134 C114 0.949 . S
H135 C116 0.950 . S
C136 O152 1.251 . S
C136 O154 1.254 . S
N137 C138 1.333 . S
N137 C142 1.307 . S
N137 Zn143 2.020 . S
C138 N137 1.333 . S
C138 C139 1.379 1_455 S
C138 H156 0.952 1_455 S
C139 C138 1.379 1_655 S
C139 C140 1.390 1_655 S
C139 H166 0.949 . S
C140 C139 1.390 1_455 S
C140 C141 1.357 . S
C141 C140 1.357 . S
C141 C142 1.370 . S
C141 H167 0.950 . S
C142 N137 1.307 . S
C142 C141 1.370 . S
C142 H160 0.948 . S
Zn143 N137 2.020 . S
Zn143 O152 2.039 1_455 S
Zn143 O158 2.034 . S
Zn143 O162 2.025 . S
Zn143 O164 2.024 . S
C144 O163 1.246 1_545 S
C144 O164 1.249 1_545 S
N145 C146 1.307 . S
N145 C147 1.333 . S
N145 Zn151 2.020 . S
C146 N145 1.307 . S
C146 C150 1.370 . S
C146 H157 0.948 1_455 S
C147 N145 1.333 . S
C147 C148 1.379 . S
C147 H155 0.952 . S
C148 C147 1.379 . S
C148 C149 1.390 . S
C148 H168 0.949 . S
C149 C148 1.390 . S
C149 C150 1.357 . S
C150 C146 1.370 . S
C150 C149 1.357 . S
C150 H169 0.950 . S
Zn151 N145 2.020 . S
Zn151 O154 2.025 1_455 S
Zn151 O159 2.024 . S
Zn151 O161 2.039 . S
Zn151 O163 2.034 . S
O152 C136 1.251 . S
O152 Zn143 2.039 1_655 S
C153 O158 1.246 . S
C153 O159 1.249 . S
O154 C136 1.254 . S
O154 Zn151 2.025 1_655 S
H155 C147 0.952 . S
H156 C138 0.952 1_655 S
H157 C146 0.948 1_655 S
O158 Zn143 2.034 . S
O158 C153 1.246 . S
O159 Zn151 2.024 . S
O159 C153 1.249 . S
H160 C142 0.948 . S
O161 Zn151 2.039 . S
O161 C165 1.251 . S
O162 Zn143 2.025 . S
O162 C165 1.254 . S
O163 C144 1.246 1_565 S
O163 Zn151 2.034 . S
O164 Zn143 2.024 . S
O164 C144 1.249 1_565 S
C165 O161 1.251 . S
C165 O162 1.254 . S
H166 C139 0.949 . S
H167 C141 0.950 . S
H168 C148 0.949 . S
H169 C150 0.950 . S
C170 O186 1.251 . S
C170 O188 1.254 . S
N171 C172 1.333 . S
N171 C176 1.307 . S
N171 Zn177 2.020 . S
C172 N171 1.333 . S
C172 C173 1.379 1_545 S
C172 H190 0.952 1_545 S
C173 C172 1.379 1_565 S
C173 C174 1.390 1_565 S
C173 H200 0.949 . S
C174 C173 1.390 1_545 S
C174 C175 1.357 . S
C175 C174 1.357 . S
C175 C176 1.370 . S
C175 H201 0.950 . S
C176 N171 1.307 . S
C176 C175 1.370 . S
C176 H194 0.948 . S
Zn177 N171 2.020 . S
Zn177 O186 2.039 1_545 S
Zn177 O192 2.034 . S
Zn177 O196 2.025 . S
Zn177 O198 2.024 . S
C178 O197 1.246 . S
C178 O198 1.249 . S
N179 C180 1.307 . S
N179 C181 1.333 . S
N179 Zn185 2.020 . S
C180 N179 1.307 . S
C180 C184 1.370 . S
C180 H191 0.948 1_545 S
C181 N179 1.333 . S
C181 C182 1.379 . S
C181 H189 0.952 . S
C182 C181 1.379 . S
C182 C183 1.390 . S
C182 H202 0.949 . S
C183 C182 1.390 . S
C183 C184 1.357 . S
C184 C180 1.370 . S
C184 C183 1.357 . S
C184 H203 0.950 . S
Zn185 N179 2.020 . S
Zn185 O188 2.025 1_545 S
Zn185 O193 2.024 . S
Zn185 O195 2.039 . S
Zn185 O197 2.034 . S
O186 C170 1.251 . S
O186 Zn177 2.039 1_565 S
C187 O192 1.246 . S
C187 O193 1.249 . S
O188 C170 1.254 . S
O188 Zn185 2.025 1_565 S
H189 C181 0.952 . S
H190 C172 0.952 1_565 S
H191 C180 0.948 1_565 S
O192 Zn177 2.034 . S
O192 C187 1.246 . S
O193 Zn185 2.024 . S
O193 C187 1.249 . S
H194 C176 0.948 . S
O195 Zn185 2.039 . S
O195 C199 1.251 . S
O196 Zn177 2.025 . S
O196 C199 1.254 . S
O197 C178 1.246 . S
O197 Zn185 2.034 . S
O198 Zn177 2.024 . S
O198 C178 1.249 . S
C199 O195 1.251 . S
C199 O196 1.254 . S
H200 C173 0.949 . S
H201 C175 0.950 . S
H202 C182 0.949 . S
H203 C184 0.950 . S
C204 O220 1.251 . S
C204 O222 1.254 . S
N205 C206 1.333 . S
N205 C210 1.307 . S
N205 Zn211 2.020 . S
C206 N205 1.333 . S
C206 C207 1.379 . S
C206 H224 0.952 . S
C207 C206 1.379 . S
C207 C208 1.390 . S
C207 H234 0.949 . S
C208 C207 1.390 . S
C208 C209 1.357 . S
C209 C208 1.357 . S
C209 C210 1.370 . S
C209 H235 0.950 . S
C210 N205 1.307 . S
C210 C209 1.370 . S
C210 H228 0.948 . S
Zn211 N205 2.020 . S
Zn211 O220 2.039 . S
Zn211 O226 2.034 . S
Zn211 O230 2.025 . S
Zn211 O232 2.024 . S
C212 O231 1.246 1_545 S
C212 O232 1.249 1_545 S
N213 C214 1.307 . S
N213 C215 1.333 . S
N213 Zn219 2.020 . S
C214 N213 1.307 . S
C214 C218 1.370 . S
C214 H225 0.948 . S
C215 N213 1.333 . S
C215 C216 1.379 . S
C215 H223 0.952 . S
C216 C215 1.379 . S
C216 C217 1.390 . S
C216 H236 0.949 . S
C217 C216 1.390 . S
C217 C218 1.357 . S
C218 C214 1.370 . S
C218 C217 1.357 . S
C218 H237 0.950 . S
Zn219 N213 2.020 . S
Zn219 O222 2.025 . S
Zn219 O227 2.024 . S
Zn219 O229 2.039 . S
Zn219 O231 2.034 . S
O220 C204 1.251 . S
O220 Zn211 2.039 . S
C221 O226 1.246 . S
C221 O227 1.249 . S
O222 C204 1.254 . S
O222 Zn219 2.025 . S
H223 C215 0.952 . S
H224 C206 0.952 . S
H225 C214 0.948 . S
O226 Zn211 2.034 . S
O226 C221 1.246 . S
O227 Zn219 2.024 . S
O227 C221 1.249 . S
H228 C210 0.948 . S
O229 Zn219 2.039 . S
O229 C233 1.251 . S
O230 Zn211 2.025 . S
O230 C233 1.254 . S
O231 C212 1.246 1_565 S
O231 Zn219 2.034 . S
O232 Zn211 2.024 . S
O232 C212 1.249 1_565 S
C233 O229 1.251 . S
C233 O230 1.254 . S
H234 C207 0.949 . S
H235 C209 0.950 . S
H236 C216 0.949 . S
H237 C218 0.950 . S
C238 O254 1.251 . S
C238 O256 1.254 . S
N239 C240 1.333 . S
N239 C244 1.307 . S
N239 Zn245 2.020 . S
C240 N239 1.333 . S
C240 C241 1.379 1_655 S
C240 H258 0.952 1_655 S
C241 C240 1.379 1_455 S
C241 C242 1.390 1_455 S
C241 H268 0.949 . S
C242 C241 1.390 1_655 S
C242 C243 1.357 . S
C243 C242 1.357 . S
C243 C244 1.370 . S
C243 H269 0.950 . S
C244 N239 1.307 . S
C244 C243 1.370 . S
C244 H262 0.948 . S
Zn245 N239 2.020 . S
Zn245 O254 2.039 1_655 S
Zn245 O260 2.034 . S
Zn245 O264 2.025 . S
Zn245 O266 2.024 . S
C246 O265 1.246 . S
C246 O266 1.249 . S
N247 C248 1.307 . S
N247 C249 1.333 . S
N247 Zn253 2.020 . S
C248 N247 1.307 . S
C248 C252 1.370 . S
C248 H259 0.948 1_655 S
C249 N247 1.333 . S
C249 C250 1.379 . S
C249 H257 0.952 . S
C250 C249 1.379 . S
C250 C251 1.390 . S
C250 H270 0.949 . S
C251 C250 1.390 . S
C251 C252 1.357 . S
C252 C248 1.370 . S
C252 C251 1.357 . S
C252 H271 0.950 . S
Zn253 N247 2.020 . S
Zn253 O256 2.025 1_655 S
Zn253 O261 2.024 . S
Zn253 O263 2.039 . S
Zn253 O265 2.034 . S
O254 C238 1.251 . S
O254 Zn245 2.039 1_455 S
C255 O260 1.246 . S
C255 O261 1.249 . S
O256 C238 1.254 . S
O256 Zn253 2.025 1_455 S
H257 C249 0.952 . S
H258 C240 0.952 1_455 S
H259 C248 0.948 1_455 S
O260 Zn245 2.034 . S
O260 C255 1.246 . S
O261 Zn253 2.024 . S
O261 C255 1.249 . S
H262 C244 0.948 . S
O263 Zn253 2.039 . S
O263 C267 1.251 . S
O264 Zn245 2.025 . S
O264 C267 1.254 . S
O265 C246 1.246 . S
O265 Zn253 2.034 . S
O266 Zn245 2.024 . S
O266 C246 1.249 . S
C267 O263 1.251 . S
C267 O264 1.254 . S
H268 C241 0.949 . S
H269 C243 0.950 . S
H270 C250 0.949 . S
H271 C252 0.950 . S
C272 O288 1.251 . S
C272 O290 1.254 . S
N273 C274 1.333 . S
N273 C278 1.307 . S
N273 Zn279 2.020 . S
C274 N273 1.333 . S
C274 C275 1.379 1_565 S
C274 H292 0.952 1_565 S
C275 C274 1.379 1_545 S
C275 C276 1.390 1_545 S
C275 H302 0.949 . S
C276 C275 1.390 1_565 S
C276 C277 1.357 . S
C277 C276 1.357 . S
C277 C278 1.370 . S
C277 H303 0.950 . S
C278 N273 1.307 . S
C278 C277 1.370 . S
C278 H296 0.948 . S
Zn279 N273 2.020 . S
Zn279 O288 2.039 1_565 S
Zn279 O294 2.034 . S
Zn279 O298 2.025 . S
Zn279 O300 2.024 . S
C280 O299 1.246 1_655 S
C280 O300 1.249 1_655 S
N281 C282 1.307 . S
N281 C283 1.333 . S
N281 Zn287 2.020 . S
C282 N281 1.307 . S
C282 C286 1.370 . S
C282 H293 0.948 1_565 S
C283 N281 1.333 . S
C283 C284 1.379 . S
C283 H291 0.952 . S
C284 C283 1.379 . S
C284 C285 1.390 . S
C284 H304 0.949 . S
C285 C284 1.390 . S
C285 C286 1.357 . S
C286 C282 1.370 . S
C286 C285 1.357 . S
C286 H305 0.950 . S
Zn287 N281 2.020 . S
Zn287 O290 2.025 1_565 S
Zn287 O295 2.024 . S
Zn287 O297 2.039 . S
Zn287 O299 2.034 . S
O288 C272 1.251 . S
O288 Zn279 2.039 1_545 S
C289 O294 1.246 . S
C289 O295 1.249 . S
O290 C272 1.254 . S
O290 Zn287 2.025 1_545 S
H291 C283 0.952 . S
H292 C274 0.952 1_545 S
H293 C282 0.948 1_545 S
O294 Zn279 2.034 . S
O294 C289 1.246 . S
O295 Zn287 2.024 . S
O295 C289 1.249 . S
H296 C278 0.948 . S
O297 Zn287 2.039 . S
O297 C301 1.251 . S
O298 Zn279 2.025 . S
O298 C301 1.254 . S
O299 C280 1.246 1_455 S
O299 Zn287 2.034 . S
O300 Zn279 2.024 . S
O300 C280 1.249 1_455 S
C301 O297 1.251 . S
C301 O298 1.254 . S
H302 C275 0.949 . S
H303 C277 0.950 . S
H304 C284 0.949 . S
H305 C286 0.950 . S
C306 O322 1.251 . S
C306 O324 1.254 . S
N307 C308 1.333 . S
N307 C312 1.307 . S
N307 Zn313 2.020 . S
C308 N307 1.333 . S
C308 C309 1.379 . S
C308 H326 0.952 . S
C309 C308 1.379 . S
C309 C310 1.390 . S
C309 H336 0.949 . S
C310 C309 1.390 . S
C310 C311 1.357 . S
C311 C310 1.357 . S
C311 C312 1.370 . S
C311 H337 0.950 . S
C312 N307 1.307 . S
C312 C311 1.370 . S
C312 H330 0.948 . S
Zn313 N307 2.020 . S
Zn313 O322 2.039 . S
Zn313 O328 2.034 . S
Zn313 O332 2.025 . S
Zn313 O334 2.024 . S
C314 O333 1.246 1_565 S
C314 O334 1.249 1_565 S
N315 C316 1.307 . S
N315 C317 1.333 . S
N315 Zn321 2.020 . S
C316 N315 1.307 . S
C316 C320 1.370 . S
C316 H327 0.948 . S
C317 N315 1.333 . S
C317 C318 1.379 . S
C317 H325 0.952 . S
C318 C317 1.379 . S
C318 C319 1.390 . S
C318 H338 0.949 . S
C319 C318 1.390 . S
C319 C320 1.357 . S
C320 C316 1.370 . S
C320 C319 1.357 . S
C320 H339 0.950 . S
Zn321 N315 2.020 . S
Zn321 O324 2.025 . S
Zn321 O329 2.024 . S
Zn321 O331 2.039 . S
Zn321 O333 2.034 . S
O322 C306 1.251 . S
O322 Zn313 2.039 . S
C323 O328 1.246 . S
C323 O329 1.249 . S
O324 C306 1.254 . S
O324 Zn321 2.025 . S
H325 C317 0.952 . S
H326 C308 0.952 . S
H327 C316 0.948 . S
O328 Zn313 2.034 . S
O328 C323 1.246 . S
O329 Zn321 2.024 . S
O329 C323 1.249 . S
H330 C312 0.948 . S
O331 Zn321 2.039 . S
O331 C335 1.251 . S
O332 Zn313 2.025 . S
O332 C335 1.254 . S
O333 C314 1.246 1_545 S
O333 Zn321 2.034 . S
O334 Zn313 2.024 . S
O334 C314 1.249 1_545 S
C335 O331 1.251 . S
C335 O332 1.254 . S
H336 C309 0.949 . S
H337 C311 0.950 . S
H338 C318 0.949 . S
H339 C320 0.950 . S
C340 O356 1.251 . S
C340 O358 1.254 . S
N341 C342 1.333 . S
N341 C346 1.307 . S
N341 Zn347 2.020 . S
C342 N341 1.333 . S
C342 C343 1.379 1_455 S
C342 H360 0.952 1_455 S
C343 C342 1.379 1_655 S
C343 C344 1.390 1_655 S
C343 H370 0.949 . S
C344 C343 1.390 1_455 S
C344 C345 1.357 . S
C345 C344 1.357 . S
C345 C346 1.370 . S
C345 H371 0.950 . S
C346 N341 1.307 . S
C346 C345 1.370 . S
C346 H364 0.948 . S
Zn347 N341 2.020 . S
Zn347 O356 2.039 1_455 S
Zn347 O362 2.034 . S
Zn347 O366 2.025 . S
Zn347 O368 2.024 . S
C348 O367 1.246 . S
C348 O368 1.249 . S
N349 C350 1.307 . S
N349 C351 1.333 . S
N349 Zn355 2.020 . S
C350 N349 1.307 . S
C350 C354 1.370 . S
C350 H361 0.948 1_455 S
C351 N349 1.333 . S
C351 C352 1.379 . S
C351 H359 0.952 . S
C352 C351 1.379 . S
C352 C353 1.390 . S
C352 H372 0.949 . S
C353 C352 1.390 . S
C353 C354 1.357 . S
C354 C350 1.370 . S
C354 C353 1.357 . S
C354 H373 0.950 . S
Zn355 N349 2.020 . S
Zn355 O358 2.025 1_455 S
Zn355 O363 2.024 . S
Zn355 O365 2.039 . S
Zn355 O367 2.034 . S
O356 C340 1.251 . S
O356 Zn347 2.039 1_655 S
C357 O362 1.246 . S
C357 O363 1.249 . S
O358 C340 1.254 . S
O358 Zn355 2.025 1_655 S
H359 C351 0.952 . S
H360 C342 0.952 1_655 S
H361 C350 0.948 1_655 S
O362 Zn347 2.034 . S
O362 C357 1.246 . S
O363 Zn355 2.024 . S
O363 C357 1.249 . S
H364 C346 0.948 . S
O365 Zn355 2.039 . S
O365 C369 1.251 . S
O366 Zn347 2.025 . S
O366 C369 1.254 . S
O367 C348 1.246 . S
O367 Zn355 2.034 . S
O368 Zn347 2.024 . S
O368 C348 1.249 . S
C369 O365 1.251 . S
C369 O366 1.254 . S
H370 C343 0.949 . S
H371 C345 0.950 . S
H372 C352 0.949 . S
H373 C354 0.950 . S
C374 O390 1.251 . S
C374 O392 1.254 . S
N375 C376 1.333 . S
N375 C380 1.307 . S
N375 Zn381 2.020 . S
C376 N375 1.333 . S
C376 C377 1.379 1_545 S
C376 H394 0.952 1_545 S
C377 C376 1.379 1_565 S
C377 C378 1.390 1_565 S
C377 H404 0.949 . S
C378 C377 1.390 1_545 S
C378 C379 1.357 . S
C379 C378 1.357 . S
C379 C380 1.370 . S
C379 H405 0.950 . S
C380 N375 1.307 . S
C380 C379 1.370 . S
C380 H398 0.948 . S
Zn381 N375 2.020 . S
Zn381 O390 2.039 1_545 S
Zn381 O396 2.034 . S
Zn381 O400 2.025 . S
Zn381 O402 2.024 . S
C382 O401 1.246 1_455 S
C382 O402 1.249 1_455 S
N383 C384 1.307 . S
N383 C385 1.333 . S
N383 Zn389 2.020 . S
C384 N383 1.307 . S
C384 C388 1.370 . S
C384 H395 0.948 1_545 S
C385 N383 1.333 . S
C385 C386 1.379 . S
C385 H393 0.952 . S
C386 C385 1.379 . S
C386 C387 1.390 . S
C386 H406 0.949 . S
C387 C386 1.390 . S
C387 C388 1.357 . S
C388 C384 1.370 . S
C388 C387 1.357 . S
C388 H407 0.950 . S
Zn389 N383 2.020 . S
Zn389 O392 2.025 1_545 S
Zn389 O397 2.024 . S
Zn389 O399 2.039 . S
Zn389 O401 2.034 . S
O390 C374 1.251 . S
O390 Zn381 2.039 1_565 S
C391 O396 1.246 . S
C391 O397 1.249 . S
O392 C374 1.254 . S
O392 Zn389 2.025 1_565 S
H393 C385 0.952 . S
H394 C376 0.952 1_565 S
H395 C384 0.948 1_565 S
O396 Zn381 2.034 . S
O396 C391 1.246 . S
O397 Zn389 2.024 . S
O397 C391 1.249 . S
H398 C380 0.948 . S
O399 Zn389 2.039 . S
O399 C403 1.251 . S
O400 Zn381 2.025 . S
O400 C403 1.254 . S
O401 C382 1.246 1_655 S
O401 Zn389 2.034 . S
O402 Zn381 2.024 . S
O402 C382 1.249 1_655 S
C403 O399 1.251 . S
C403 O400 1.254 . S
H404 C377 0.949 . S
H405 C379 0.950 . S
H406 C386 0.949 . S
H407 C388 0.950 . S
C144 C0 1.164 . S
C178 C34 1.166 . S
C68 C8 1.165 . S
C102 C42 1.165 . S
C136 C76 1.166 . S
C110 C170 1.165 . S
C280 C204 1.165 . S
C238 C314 1.165 . S
C348 C272 1.166 . S
C306 C382 1.164 . S
C340 C212 1.165 . S
C246 C374 1.166 . S
C153 C29 1.389 . S
C63 C187 1.387 . S
C97 C17 1.388 . S
C131 C51 1.388 . S
C85 C165 1.387 . S
C119 C199 1.388 . S
C289 C233 1.388 . S
C267 C323 1.388 . S
C301 C357 1.387 . S
C391 C335 1.389 . S
C369 C221 1.388 . S
C255 C403 1.387 . S
C353 C13 1.607 . S
C47 C387 1.607 . S
C81 C217 1.607 . S
C115 C251 1.607 . S
C149 C285 1.607 . S
C319 C183 1.607 . S
C310 C4 2.177 1_556 S
C344 C38 2.179 1_455 S
C72 C378 2.179 1_564 S
C106 C208 2.178 . S
C242 C140 2.179 1_656 S
C276 C174 2.179 1_565 S
