# Generated by pormake.
# Topology wgp, (5)-cn, num edge types: 1
# Building blocks:
#     Node 0, Type 0, BuildingBlock: BEQFEK_clean_sbu_0, # of connection points: 5
#     Node 1, Type 0, BuildingBlock: BEQFEK_clean_sbu_0, # of connection points: 5
#     Node 2, Type 0, BuildingBlock: BEQFEK_clean_sbu_0, # of connection points: 5
#     Node 3, Type 0, BuildingBlock: BEQFEK_clean_sbu_0, # of connection points: 5
#     Node 4, Type 0, BuildingBlock: BEQFEK_clean_sbu_0, # of connection points: 5
#     Node 5, Type 0, BuildingBlock: BEQFEK_clean_sbu_0, # of connection points: 5
#     Node 6, Type 0, BuildingBlock: BEQFEK_clean_sbu_0, # of connection points: 5
#     Node 7, Type 0, BuildingBlock: BEQFEK_clean_sbu_0, # of connection points: 5
#     Node 8, Type 0, BuildingBlock: BEQFEK_clean_sbu_0, # of connection points: 5
#     Node 9, Type 0, BuildingBlock: BEQFEK_clean_sbu_0, # of connection points: 5
#     Node 10, Type 0, BuildingBlock: BEQFEK_clean_sbu_0, # of connection points: 5
#     Node 11, Type 0, BuildingBlock: BEQFEK_clean_sbu_0, # of connection points: 5
#     Node 12, Type 0, BuildingBlock: BEQFEK_clean_sbu_0, # of connection points: 5
#     Node 13, Type 0, BuildingBlock: BEQFEK_clean_sbu_0, # of connection points: 5
#     Node 14, Type 0, BuildingBlock: BEQFEK_clean_sbu_0, # of connection points: 5
#     Node 15, Type 0, BuildingBlock: BEQFEK_clean_sbu_0, # of connection points: 5
#     Node 16, Type 0, BuildingBlock: BEQFEK_clean_sbu_0, # of connection points: 5
#     Node 17, Type 0, BuildingBlock: BEQFEK_clean_sbu_0, # of connection points: 5
#     Node 18, Type 0, BuildingBlock: BEQFEK_clean_sbu_0, # of connection points: 5
#     Node 19, Type 0, BuildingBlock: BEQFEK_clean_sbu_0, # of connection points: 5
#     Node 20, Type 0, BuildingBlock: BEQFEK_clean_sbu_0, # of connection points: 5
#     Node 21, Type 0, BuildingBlock: BEQFEK_clean_sbu_0, # of connection points: 5
#     Node 22, Type 0, BuildingBlock: BEQFEK_clean_sbu_0, # of connection points: 5
#     Node 23, Type 0, BuildingBlock: BEQFEK_clean_sbu_0, # of connection points: 5
#     Node 24, Type 0, BuildingBlock: BEQFEK_clean_sbu_0, # of connection points: 5
#     Node 25, Type 0, BuildingBlock: BEQFEK_clean_sbu_0, # of connection points: 5
#     Node 26, Type 0, BuildingBlock: BEQFEK_clean_sbu_0, # of connection points: 5
#     Node 27, Type 0, BuildingBlock: BEQFEK_clean_sbu_0, # of connection points: 5
#     Node 28, Type 0, BuildingBlock: BEQFEK_clean_sbu_0, # of connection points: 5
#     Node 29, Type 0, BuildingBlock: BEQFEK_clean_sbu_0, # of connection points: 5
#     Node 30, Type 0, BuildingBlock: BEQFEK_clean_sbu_0, # of connection points: 5
#     Node 31, Type 0, BuildingBlock: BEQFEK_clean_sbu_0, # of connection points: 5
#     Edge 32, Type (0, 0), None
#     Edge 33, Type (0, 0), None
#     Edge 34, Type (0, 0), None
#     Edge 35, Type (0, 0), None
#     Edge 36, Type (0, 0), None
#     Edge 37, Type (0, 0), None
#     Edge 38, Type (0, 0), None
#     Edge 39, Type (0, 0), None
#     Edge 40, Type (0, 0), None
#     Edge 41, Type (0, 0), None
#     Edge 42, Type (0, 0), None
#     Edge 43, Type (0, 0), None
#     Edge 44, Type (0, 0), None
#     Edge 45, Type (0, 0), None
#     Edge 46, Type (0, 0), None
#     Edge 47, Type (0, 0), None
#     Edge 48, Type (0, 0), None
#     Edge 49, Type (0, 0), None
#     Edge 50, Type (0, 0), None
#     Edge 51, Type (0, 0), None
#     Edge 52, Type (0, 0), None
#     Edge 53, Type (0, 0), None
#     Edge 54, Type (0, 0), None
#     Edge 55, Type (0, 0), None
#     Edge 56, Type (0, 0), None
#     Edge 57, Type (0, 0), None
#     Edge 58, Type (0, 0), None
#     Edge 59, Type (0, 0), None
#     Edge 60, Type (0, 0), None
#     Edge 61, Type (0, 0), None
#     Edge 62, Type (0, 0), None
#     Edge 63, Type (0, 0), None
#     Edge 64, Type (0, 0), None
#     Edge 65, Type (0, 0), None
#     Edge 66, Type (0, 0), None
#     Edge 67, Type (0, 0), None
#     Edge 68, Type (0, 0), None
#     Edge 69, Type (0, 0), None
#     Edge 70, Type (0, 0), None
#     Edge 71, Type (0, 0), None
#     Edge 72, Type (0, 0), None
#     Edge 73, Type (0, 0), None
#     Edge 74, Type (0, 0), None
#     Edge 75, Type (0, 0), None
#     Edge 76, Type (0, 0), None
#     Edge 77, Type (0, 0), None
#     Edge 78, Type (0, 0), None
#     Edge 79, Type (0, 0), None
#     Edge 80, Type (0, 0), None
#     Edge 81, Type (0, 0), None
#     Edge 82, Type (0, 0), None
#     Edge 83, Type (0, 0), None
#     Edge 84, Type (0, 0), None
#     Edge 85, Type (0, 0), None
#     Edge 86, Type (0, 0), None
#     Edge 87, Type (0, 0), None
#     Edge 88, Type (0, 0), None
#     Edge 89, Type (0, 0), None
#     Edge 90, Type (0, 0), None
#     Edge 91, Type (0, 0), None
#     Edge 92, Type (0, 0), None
#     Edge 93, Type (0, 0), None
#     Edge 94, Type (0, 0), None
#     Edge 95, Type (0, 0), None
#     Edge 96, Type (0, 0), None
#     Edge 97, Type (0, 0), None
#     Edge 98, Type (0, 0), None
#     Edge 99, Type (0, 0), None
#     Edge 100, Type (0, 0), None
#     Edge 101, Type (0, 0), None
#     Edge 102, Type (0, 0), None
#     Edge 103, Type (0, 0), None
#     Edge 104, Type (0, 0), None
#     Edge 105, Type (0, 0), None
#     Edge 106, Type (0, 0), None
#     Edge 107, Type (0, 0), None
#     Edge 108, Type (0, 0), None
#     Edge 109, Type (0, 0), None
#     Edge 110, Type (0, 0), None
#     Edge 111, Type (0, 0), None
# Relax obj value: 0.464
# Max RMSD: 0.199
# Mean RMSD: 0.199
data_MOF--net-wgp--node1-BEQFEK_clean_sbu_0--edge1-none
_symmetry_space_group_name_H-M    P1
_symmetry_Int_Tables_number       1
_symmetry_cell_setting            triclinic
loop_
_symmetry_equiv_pos_as_xyz
'x, y, z'
_cell_length_a     17.893315
_cell_length_b     17.896249
_cell_length_c     51.294875
_cell_angle_alpha  89.999999
_cell_angle_beta   89.999998
_cell_angle_gamma 89.996511
loop_
_atom_site_label
_atom_site_type_symbol
_atom_site_fract_x
_atom_site_fract_y
_atom_site_fract_z
_atom_type_partial_charge
Co0 Co 0.34617 0.28915 0.08211 0.0
Co1 Co 0.42417 0.13969 0.07223 0.0
C2 C 0.32417 0.20389 0.03211 0.0
O3 O 0.31778 0.26106 0.04638 0.0
O4 O 0.36574 0.1498 0.03891 0.0
C5 C 0.20311 0.35501 0.07906 0.0
O6 O 0.18166 0.28778 0.07211 0.0
C7 C 0.43475 0.98159 0.06142 0.0
C8 C 0.50614 0.94351 0.09365 0.0
C9 C 0.45613 0.91857 0.07506 0.0
N10 N 0.46613 1.04168 0.07258 0.0
N11 N 0.5122 1.01823 0.09096 0.0
C12 C 0.37609 0.98479 0.04065 0.0
H13 H 0.32575 1.01412 0.04796 0.0
H14 H 0.36021 0.92788 0.03406 0.0
H15 H 0.39807 1.01645 0.02371 0.0
C16 C 0.27265 0.20232 0.12581 0.0
N17 N 0.32263 0.21054 0.10605 0.0
N18 N 0.35303 0.14545 0.10087 0.0
C19 C 0.32094 0.09384 0.11656 0.0
C20 C 0.27016 0.12746 0.1333 0.0
C21 C 0.22758 0.26448 0.13709 0.0
H22 H 0.25961 0.31757 0.13654 0.0
H23 H 0.17577 0.27167 0.12551 0.0
H24 H 0.21112 0.25057 0.15731 0.0
O25 O 0.45668 0.32425 0.08302 0.0
O26 O 0.51172 0.21516 0.07555 0.0
H27 H 0.38516 0.99425 0.11913 0.0
H28 H 0.28667 0.97966 0.12425 0.0
C29 C 0.32865 1.01192 0.11303 0.0
H30 H 0.31903 1.00006 0.09229 0.0
H31 H 0.54066 1.0538 0.10365 0.0
O32 O 0.27067 0.36712 0.08598 0.0
C33 C 0.51654 0.28567 0.07974 0.0
Co34 Co 0.07 0.09612 0.3321 0.0
Co35 Co 0.21948 0.17407 0.32222 0.0
C36 C 0.15529 0.07408 0.2821 0.0
O37 O 0.0981 0.06773 0.29637 0.0
O38 O 0.20939 0.11563 0.2889 0.0
C39 C 1.00423 0.95305 0.32905 0.0
O40 O 0.07149 0.93164 0.32211 0.0
C41 C 0.3776 0.18467 0.31142 0.0
C42 C 0.41568 0.25597 0.34367 0.0
C43 C 0.44063 0.206 0.32506 0.0
N44 N 0.3175 0.21602 0.32258 0.0
N45 N 0.34095 0.26204 0.34097 0.0
C46 C 0.37442 0.12606 0.29063 0.0
H47 H 0.34513 0.07569 0.29793 0.0
H48 H 0.43134 0.11022 0.28403 0.0
H49 H 0.34272 0.14805 0.2737 0.0
C50 C 0.15683 1.0226 0.3758 0.0
N51 N 0.14861 0.07258 0.35604 0.0
N52 N 0.21372 0.10295 0.35086 0.0
C53 C 0.26533 0.07085 0.36655 0.0
C54 C 0.2317 1.02009 0.38329 0.0
C55 C 0.09466 0.97754 0.38708 0.0
H56 H 1.04156 1.00957 0.38653 0.0
H57 H 0.08748 0.92574 0.37551 0.0
H58 H 0.10857 0.96109 0.4073 0.0
O59 O 1.03487 0.2066 0.33301 0.0
O60 O 0.14398 0.26162 0.32553 0.0
H61 H 0.36498 0.13497 0.36912 0.0
H62 H 0.37951 1.03648 0.37422 0.0
C63 C 0.34727 0.0785 0.36301 0.0
H64 H 0.35911 0.06892 0.34227 0.0
H65 H 0.30537 0.29047 0.35367 0.0
O66 O 0.99207 1.0206 0.33597 0.0
C67 C 0.07346 0.26646 0.32972 0.0
Co68 Co 0.26312 0.81997 0.58211 0.0
Co69 Co 0.18512 0.96943 0.57223 0.0
C70 C 0.28512 0.90523 0.53211 0.0
O71 O 0.29151 0.84805 0.54638 0.0
O72 O 0.24355 0.95932 0.53891 0.0
C73 C 0.40618 0.7541 0.57906 0.0
O74 O 0.42763 0.82133 0.57211 0.0
C75 C 0.17454 0.12752 0.56142 0.0
C76 C 0.10315 0.1656 0.59365 0.0
C77 C 0.15316 0.19054 0.57506 0.0
N78 N 0.14316 0.06744 0.57258 0.0
N79 N 0.09709 0.09089 0.59096 0.0
C80 C 0.2332 0.12432 0.54065 0.0
H81 H 0.28354 0.095 0.54796 0.0
H82 H 0.24908 0.18124 0.53406 0.0
H83 H 0.21122 0.09266 0.52371 0.0
C84 C 0.33664 0.90679 0.62581 0.0
N85 N 0.28666 0.89857 0.60605 0.0
N86 N 0.25626 0.96366 0.60087 0.0
C87 C 0.28835 1.01528 0.61656 0.0
C88 C 0.33913 0.98165 0.6333 0.0
C89 C 0.38171 0.84463 0.63709 0.0
H90 H 0.34968 0.79154 0.63654 0.0
H91 H 0.43352 0.83744 0.62551 0.0
H92 H 0.39817 0.85854 0.65731 0.0
O93 O 0.15261 0.78486 0.58302 0.0
O94 O 0.09757 0.89395 0.57555 0.0
H95 H 0.22413 0.11487 0.61913 0.0
H96 H 0.32262 0.12945 0.62425 0.0
C97 C 0.28064 0.0972 0.61303 0.0
H98 H 0.29026 0.10906 0.59229 0.0
H99 H 0.06863 0.05532 0.60365 0.0
O100 O 0.33862 0.742 0.58598 0.0
C101 C 0.09275 0.82345 0.57974 0.0
Co102 Co 0.53929 1.013 0.8321 0.0
Co103 Co 0.38981 0.93504 0.82222 0.0
C104 C 0.454 1.03504 0.7821 0.0
O105 O 0.5112 1.04139 0.79637 0.0
O106 O 0.3999 0.99348 0.7889 0.0
C107 C 0.60506 0.15607 0.82905 0.0
O108 O 0.5378 0.17748 0.82211 0.0
C109 C 0.23169 0.92445 0.81142 0.0
C110 C 0.19361 0.85315 0.84367 0.0
C111 C 0.16866 0.90311 0.82506 0.0
N112 N 0.29179 0.89309 0.82258 0.0
N113 N 0.26834 0.84708 0.84097 0.0
C114 C 0.23487 0.98306 0.79063 0.0
H115 H 0.26416 1.03343 0.79793 0.0
H116 H 0.17795 0.9989 0.78403 0.0
H117 H 0.26657 0.96106 0.7737 0.0
C118 C 0.45246 0.08651 0.8758 0.0
N119 N 0.46068 1.03653 0.85604 0.0
N120 N 0.39557 1.00616 0.85086 0.0
C121 C 0.34396 1.03827 0.86655 0.0
C122 C 0.37759 0.08903 0.88329 0.0
C123 C 0.51463 0.13157 0.88708 0.0
H124 H 0.56773 0.09955 0.88653 0.0
H125 H 0.52181 0.18338 0.87551 0.0
H126 H 0.50072 0.14803 0.9073 0.0
O127 O 0.57442 0.90251 0.83301 0.0
O128 O 0.46531 0.8475 0.82553 0.0
H129 H 0.24431 0.97414 0.86912 0.0
H130 H 0.22978 0.07263 0.87422 0.0
C131 C 0.26202 1.03062 0.86301 0.0
H132 H 0.25019 1.0402 0.84227 0.0
H133 H 0.30392 0.81865 0.85367 0.0
O134 O 0.61722 0.08851 0.83597 0.0
C135 C 0.53583 0.84266 0.82972 0.0
Co136 Co 0.34616 0.81995 0.45689 0.0
Co137 Co 0.42414 0.96942 0.46676 0.0
C138 C 0.32414 0.90523 0.50688 0.0
O139 O 0.31777 0.84804 0.49262 0.0
O140 O 0.3657 0.95932 0.50008 0.0
C141 C 0.20309 0.75411 0.45994 0.0
O142 O 0.18164 0.82134 0.46689 0.0
C143 C 0.43469 0.12752 0.47754 0.0
C144 C 0.50614 0.16557 0.44533 0.0
C145 C 0.4561 0.19053 0.46391 0.0
N146 N 0.46609 0.06742 0.4664 0.0
N147 N 0.51219 0.09085 0.44803 0.0
C148 C 0.37598 0.12434 0.4983 0.0
H149 H 0.32567 0.09499 0.49098 0.0
H150 H 0.36007 0.18126 0.50487 0.0
H151 H 0.39795 0.09271 0.51525 0.0
C152 C 0.27268 0.90673 0.41317 0.0
N153 N 0.32263 0.89854 0.43294 0.0
N154 N 0.35303 0.96363 0.43811 0.0
C155 C 0.32098 1.01522 0.4224 0.0
C156 C 0.27026 0.98156 0.40564 0.0
C157 C 0.22761 0.84456 0.4019 0.0
H158 H 0.25965 0.79148 0.40245 0.0
H159 H 0.17581 0.83737 0.41348 0.0
H160 H 0.21114 0.85846 0.38168 0.0
O161 O 0.45668 0.78485 0.45598 0.0
O162 O 0.51171 0.89395 0.46345 0.0
H163 H 0.3852 0.1148 0.41982 0.0
H164 H 0.28672 0.12939 0.41468 0.0
C165 C 0.32869 0.09715 0.42591 0.0
H166 H 0.31905 0.10905 0.44665 0.0
H167 H 0.54068 0.05527 0.43535 0.0
O168 O 0.27066 0.74199 0.45302 0.0
C169 C 0.51654 0.82344 0.45926 0.0
Co170 Co 0.53929 0.09612 0.70689 0.0
Co171 Co 0.38981 0.17408 0.71676 0.0
C172 C 0.454 0.07407 0.75688 0.0
O173 O 0.5112 0.06772 0.74262 0.0
O174 O 0.3999 0.11563 0.75008 0.0
C175 C 0.60507 0.95304 0.70993 0.0
O176 O 0.53781 0.93163 0.71688 0.0
C177 C 0.23168 0.18463 0.72755 0.0
C178 C 0.1936 0.25599 0.69532 0.0
C179 C 0.16865 0.20598 0.71391 0.0
N180 N 0.29178 0.21602 0.7164 0.0
N181 N 0.26832 0.26207 0.69802 0.0
C182 C 0.23487 0.12597 0.74833 0.0
H183 H 0.2642 0.07563 0.74101 0.0
H184 H 0.17795 0.11009 0.75491 0.0
H185 H 0.26654 0.14795 0.76526 0.0
C186 C 0.45251 1.02264 0.66317 0.0
N187 N 0.4607 0.07259 0.68294 0.0
N188 N 0.39559 0.10298 0.68812 0.0
C189 C 0.34399 0.07092 0.67241 0.0
C190 C 0.37766 1.02021 0.65565 0.0
C191 C 0.51469 0.97757 0.6519 0.0
H192 H 0.56778 1.0096 0.65245 0.0
H193 H 0.52187 0.92578 0.66348 0.0
H194 H 0.50079 0.96111 0.63168 0.0
O195 O 0.57443 0.2066 0.70598 0.0
O196 O 0.46531 0.26162 0.71345 0.0
H197 H 0.24435 0.13506 0.66983 0.0
H198 H 0.22982 1.03658 0.66472 0.0
C199 C 0.26205 0.07858 0.67593 0.0
H200 H 0.25019 0.06898 0.69667 0.0
H201 H 0.3039 0.29053 0.68533 0.0
O202 O 0.61722 1.02059 0.70302 0.0
C203 C 0.53583 0.26646 0.70927 0.0
Co204 Co 0.26313 0.28917 0.95689 0.0
Co205 Co 0.18515 0.1397 0.96676 0.0
C206 C 0.28515 0.20389 1.00688 0.0
O207 O 0.29152 0.26107 0.99262 0.0
O208 O 0.24359 0.1498 1.00008 0.0
C209 C 0.4062 0.35501 0.95994 0.0
O210 O 0.42765 0.28777 0.96689 0.0
C211 C 0.1746 0.98159 0.97754 0.0
C212 C 0.10315 0.94355 0.94533 0.0
C213 C 0.1532 0.91859 0.96391 0.0
N214 N 0.1432 1.04169 0.9664 0.0
N215 N 0.0971 1.01826 0.94803 0.0
C216 C 0.23331 0.98477 0.9983 0.0
H217 H 0.28362 1.01413 0.99098 0.0
H218 H 0.24922 0.92785 1.00487 0.0
H219 H 0.21134 1.0164 1.01525 0.0
C220 C 0.33661 0.20238 0.91317 0.0
N221 N 0.28666 0.21057 0.93294 0.0
N222 N 0.25626 0.14548 0.93811 0.0
C223 C 0.28831 0.09389 0.9224 0.0
C224 C 0.33903 0.12755 0.90564 0.0
C225 C 0.38168 0.26455 0.9019 0.0
H226 H 0.34964 0.31764 0.90245 0.0
H227 H 0.43348 0.27174 0.91348 0.0
H228 H 0.39815 0.25066 0.88168 0.0
O229 O 0.15261 0.32426 0.95598 0.0
O230 O 0.09758 0.21517 0.96345 0.0
H231 H 0.22409 0.99431 0.91982 0.0
H232 H 0.32257 0.97972 0.91468 0.0
C233 C 0.2806 1.01196 0.92591 0.0
H234 H 0.29024 1.00006 0.94665 0.0
H235 H 0.06861 1.05384 0.93535 0.0
O236 O 0.33863 0.36712 0.95302 0.0
C237 C 0.09275 0.28567 0.95926 0.0
Co238 Co 0.07 1.013 0.20689 0.0
Co239 Co 0.21948 0.93504 0.21676 0.0
C240 C 0.15529 1.03504 0.25688 0.0
O241 O 0.09809 1.04139 0.24262 0.0
O242 O 0.20939 0.99349 0.25008 0.0
C243 C 1.00422 0.15608 0.20993 0.0
O244 O 0.07148 0.17748 0.21688 0.0
C245 C 0.37761 0.92449 0.22755 0.0
C246 C 0.41569 0.85313 0.19532 0.0
C247 C 0.44064 0.90313 0.21391 0.0
N248 N 0.31751 0.8931 0.2164 0.0
N249 N 0.34097 0.84704 0.19802 0.0
C250 C 0.37442 0.98314 0.24833 0.0
H251 H 0.34509 1.03348 0.24101 0.0
H252 H 0.43134 0.99902 0.25491 0.0
H253 H 0.34275 0.96117 0.26526 0.0
C254 C 0.15678 0.08647 0.16317 0.0
N255 N 0.14859 1.03652 0.18294 0.0
N256 N 0.2137 1.00613 0.18812 0.0
C257 C 0.2653 1.03819 0.17241 0.0
C258 C 0.23163 0.08891 0.15565 0.0
C259 C 0.0946 0.13154 0.1519 0.0
H260 H 1.04151 0.09952 0.15245 0.0
H261 H 0.08742 0.18334 0.16348 0.0
H262 H 0.1085 0.14801 0.13168 0.0
O263 O 1.03486 0.90251 0.20598 0.0
O264 O 0.14398 0.84749 0.21345 0.0
H265 H 0.36494 0.97405 0.16983 0.0
H266 H 0.37947 0.07254 0.16472 0.0
C267 C 0.34724 1.03053 0.17593 0.0
H268 H 0.3591 1.04014 0.19667 0.0
H269 H 0.30539 0.81858 0.18533 0.0
O270 O 0.99207 0.08852 0.20302 0.0
C271 C 0.07346 0.84266 0.20927 0.0
Co272 Co 0.76312 0.81996 0.95686 0.0
Co273 Co 0.68514 0.96942 0.96674 0.0
C274 C 0.78512 0.90522 1.00687 0.0
O275 O 0.79151 0.84805 0.9926 0.0
O276 O 0.74355 0.95931 1.00006 0.0
C277 C 0.90619 0.7541 0.95991 0.0
O278 O 0.92764 0.82134 0.96686 0.0
C279 C 0.67453 0.12752 0.97755 0.0
C280 C 0.6032 0.16559 0.9453 0.0
C281 C 0.65317 0.19054 0.96391 0.0
N282 N 0.64318 0.06743 0.96638 0.0
N283 N 0.59715 0.09087 0.948 0.0
C284 C 0.73314 0.12434 0.99834 0.0
H285 H 0.78351 0.09502 0.99104 0.0
H286 H 0.74899 0.18125 1.00493 0.0
H287 H 0.71113 0.09266 1.01527 0.0
C288 C 0.83667 0.90679 0.91317 0.0
N289 N 0.78667 0.89857 0.93292 0.0
N290 N 0.7563 0.96367 0.93811 0.0
C291 C 0.78843 1.01528 0.92243 0.0
C292 C 0.83919 0.98166 0.90568 0.0
C293 C 0.88173 0.84463 0.90188 0.0
H294 H 0.8497 0.79154 0.90244 0.0
H295 H 0.93355 0.83745 0.91345 0.0
H296 H 0.89816 0.85854 0.88166 0.0
O297 O 0.65262 0.78486 0.95595 0.0
O298 O 0.59758 0.89395 0.96342 0.0
H299 H 0.72428 0.11492 0.91987 0.0
H300 H 0.82279 0.12945 0.91477 0.0
C301 C 0.78077 0.09721 0.92598 0.0
H302 H 0.79036 0.10903 0.94672 0.0
H303 H 0.56871 0.0553 0.9353 0.0
O304 O 0.83862 0.74199 0.95299 0.0
C305 C 0.59275 0.82345 0.95923 0.0
Co306 Co 1.03933 1.01301 0.70687 0.0
Co307 Co 0.88984 0.93504 0.71675 0.0
C308 C 0.95405 1.03503 0.75687 0.0
O309 O 1.01124 1.04138 0.74261 0.0
O310 O 0.89994 0.99348 0.75007 0.0
C311 C 0.10501 0.15611 0.70995 0.0
O312 O 1.03772 0.17743 0.71689 0.0
C313 C 0.73175 0.92457 0.72754 0.0
C314 C 0.69364 0.85308 0.69532 0.0
C315 C 0.66879 0.90326 0.71387 0.0
N316 N 0.79183 0.89308 0.7164 0.0
N317 N 0.76836 0.84696 0.69804 0.0
C318 C 0.73494 0.98327 0.74829 0.0
H319 H 0.76433 1.03356 0.74097 0.0
H320 H 0.67802 0.99921 0.75485 0.0
H321 H 0.76655 0.9613 0.76524 0.0
C322 C 0.9525 0.08653 0.66317 0.0
N323 N 0.96071 1.03655 0.68293 0.0
N324 N 0.89561 1.00616 0.68811 0.0
C325 C 0.844 1.03824 0.67241 0.0
C326 C 0.87764 0.08902 0.65567 0.0
C327 C 1.01467 0.13161 0.6519 0.0
H328 H 0.06777 0.09958 0.65245 0.0
H329 H 1.02184 0.1834 0.66348 0.0
H330 H 1.00077 0.14807 0.63168 0.0
O331 O 0.07444 0.90251 0.70596 0.0
O332 O 0.96533 0.84751 0.71344 0.0
H333 H 0.74442 0.974 0.66984 0.0
H334 H 0.7298 0.07246 0.66468 0.0
C335 C 0.76206 1.03052 0.67592 0.0
H336 H 0.75016 1.0402 0.69665 0.0
H337 H 0.80394 0.81839 0.68538 0.0
O338 O 0.11726 0.08858 0.70302 0.0
C339 C 1.03584 0.84266 0.70924 0.0
Co340 Co 0.84617 0.28916 0.45686 0.0
Co341 Co 0.92415 0.13969 0.46674 0.0
C342 C 0.82417 0.20389 0.50687 0.0
O343 O 0.81778 0.26107 0.4926 0.0
O344 O 0.86574 0.1498 0.50006 0.0
C345 C 0.7031 0.35501 0.45991 0.0
O346 O 0.68165 0.28777 0.46686 0.0
C347 C 0.93476 0.98159 0.47755 0.0
C348 C 1.00609 0.94353 0.4453 0.0
C349 C 0.95612 0.91858 0.46391 0.0
N350 N 0.96611 1.04169 0.46638 0.0
N351 N 1.01215 1.01824 0.448 0.0
C352 C 0.87615 0.98478 0.49834 0.0
H353 H 0.82578 1.01409 0.49104 0.0
H354 H 0.8603 0.92787 0.50493 0.0
H355 H 0.89816 1.01646 0.51527 0.0
C356 C 0.77262 0.20232 0.41317 0.0
N357 N 0.82262 0.21055 0.43292 0.0
N358 N 0.85299 0.14545 0.43811 0.0
C359 C 0.82087 0.09383 0.42243 0.0
C360 C 0.7701 0.12746 0.40568 0.0
C361 C 0.72756 0.26449 0.40188 0.0
H362 H 0.75959 0.31758 0.40244 0.0
H363 H 0.67574 0.27167 0.41345 0.0
H364 H 0.71113 0.25058 0.38166 0.0
O365 O 0.95667 0.32426 0.45595 0.0
O366 O 1.01171 0.21517 0.46342 0.0
H367 H 0.88501 0.99419 0.41987 0.0
H368 H 0.7865 0.97967 0.41477 0.0
C369 C 0.82852 1.01191 0.42598 0.0
H370 H 0.81893 1.00008 0.44672 0.0
H371 H 1.04058 1.05382 0.4353 0.0
O372 O 0.77067 0.36712 0.45299 0.0
C373 C 1.01654 0.28567 0.45923 0.0
Co374 Co 0.56996 0.0961 0.20687 0.0
Co375 Co 0.71945 0.17407 0.21675 0.0
C376 C 0.65524 0.07408 0.25687 0.0
O377 O 0.59805 0.06774 0.24261 0.0
O378 O 0.70935 0.11563 0.25007 0.0
C379 C 0.50428 0.953 0.20995 0.0
O380 O 0.57157 0.93169 0.21689 0.0
C381 C 0.87754 0.18455 0.22754 0.0
C382 C 0.91565 0.25603 0.19532 0.0
C383 C 0.9405 0.20585 0.21387 0.0
N384 N 0.81746 0.21604 0.2164 0.0
N385 N 0.84093 0.26216 0.19804 0.0
C386 C 0.87435 0.12584 0.24829 0.0
H387 H 0.84496 0.07555 0.24097 0.0
H388 H 0.93127 0.1099 0.25485 0.0
H389 H 0.84274 0.14781 0.26524 0.0
C390 C 0.65679 1.02259 0.16317 0.0
N391 N 0.64858 0.07256 0.18293 0.0
N392 N 0.71368 0.10296 0.18811 0.0
C393 C 0.76529 0.07088 0.17241 0.0
C394 C 0.73165 1.0201 0.15567 0.0
C395 C 0.59462 0.97751 0.1519 0.0
H396 H 0.54152 1.00953 0.15245 0.0
H397 H 0.58745 0.92572 0.16348 0.0
H398 H 0.60852 0.96104 0.13168 0.0
O399 O 0.53485 0.2066 0.20596 0.0
O400 O 0.64396 0.26161 0.21344 0.0
H401 H 0.86487 0.13511 0.16984 0.0
H402 H 0.87949 1.03666 0.16468 0.0
C403 C 0.84723 0.07859 0.17592 0.0
H404 H 0.85913 0.06891 0.19665 0.0
H405 H 0.80535 0.29072 0.18538 0.0
O406 O 0.49203 1.02054 0.20302 0.0
C407 C 0.57345 0.26645 0.20924 0.0
Co408 Co 0.76313 0.28917 0.58209 0.0
Co409 Co 0.68517 0.1397 0.57221 0.0
C410 C 0.78514 0.20389 0.53209 0.0
O411 O 0.79151 0.26108 0.54635 0.0
O412 O 0.74359 0.1498 0.5389 0.0
C413 C 0.90621 0.355 0.57904 0.0
O414 O 0.92766 0.28776 0.57209 0.0
C415 C 0.67459 0.9816 0.56143 0.0
C416 C 0.6032 0.94357 0.59367 0.0
C417 C 0.6532 0.91859 0.57507 0.0
N418 N 0.64322 1.0417 0.57258 0.0
N419 N 0.59715 1.01828 0.59096 0.0
C420 C 0.73325 0.98476 0.54065 0.0
H421 H 0.78359 1.0141 0.54796 0.0
H422 H 0.74914 0.92784 0.53408 0.0
H423 H 0.71126 1.0164 0.52372 0.0
C424 C 0.83664 0.20238 0.6258 0.0
N425 N 0.78668 0.21058 0.60603 0.0
N426 N 0.7563 0.14548 0.60085 0.0
C427 C 0.78838 0.09389 0.61655 0.0
C428 C 0.83909 0.12754 0.63332 0.0
C429 C 0.8817 0.26456 0.63708 0.0
H430 H 0.84966 0.31764 0.63652 0.0
H431 H 0.93351 0.27174 0.6255 0.0
H432 H 0.89815 0.25066 0.6573 0.0
O433 O 0.65261 0.32427 0.583 0.0
O434 O 0.5976 0.21517 0.57553 0.0
H435 H 0.72423 0.99426 0.61913 0.0
H436 H 0.82273 0.97973 0.62424 0.0
C437 C 0.78073 1.01196 0.61303 0.0
H438 H 0.79034 1.00009 0.59229 0.0
H439 H 0.56869 1.05387 0.60365 0.0
O440 O 0.83863 0.36713 0.58595 0.0
C441 C 0.59275 0.28567 0.57972 0.0
Co442 Co 0.56995 1.01302 0.33208 0.0
Co443 Co 0.71945 0.93503 0.32221 0.0
C444 C 0.65524 1.03504 0.28209 0.0
O445 O 0.59804 1.04138 0.29635 0.0
O446 O 0.70935 0.99349 0.2889 0.0
C447 C 0.50427 0.15612 0.32902 0.0
O448 O 0.57156 0.17743 0.32207 0.0
C449 C 0.87755 0.92461 0.31144 0.0
C450 C 0.91566 0.85306 0.34364 0.0
C451 C 0.9405 0.90328 0.32511 0.0
N452 N 0.81747 0.89308 0.32256 0.0
N453 N 0.84094 0.84692 0.34091 0.0
C454 C 0.87435 0.98335 0.2907 0.0
H455 H 0.84492 1.03362 0.29803 0.0
H456 H 0.93127 0.99934 0.28415 0.0
H457 H 0.84277 0.96141 0.27374 0.0
C458 C 0.65674 0.08649 0.3758 0.0
N459 N 0.64856 1.03654 0.35603 0.0
N460 N 0.71367 1.00613 0.35086 0.0
C461 C 0.76525 1.03816 0.36658 0.0
C462 C 0.73158 0.0889 0.38334 0.0
C463 C 0.59456 0.13157 0.38706 0.0
H464 H 0.54146 0.09955 0.38651 0.0
H465 H 0.58739 0.18336 0.37548 0.0
H466 H 0.60845 0.14805 0.40728 0.0
O467 O 0.53484 0.90251 0.33299 0.0
O468 O 0.64397 0.8475 0.32552 0.0
H469 H 0.86483 0.97391 0.36916 0.0
H470 H 0.87945 0.07236 0.37433 0.0
C471 C 0.8472 1.03044 0.36308 0.0
H472 H 0.85913 1.04015 0.34236 0.0
H473 H 0.80537 0.81833 0.35356 0.0
O474 O 0.49203 0.08859 0.33594 0.0
C475 C 0.57345 0.84266 0.32971 0.0
Co476 Co 0.84616 0.81994 0.08209 0.0
Co477 Co 0.92412 0.96941 0.07221 0.0
C478 C 0.82415 0.90522 0.03209 0.0
O479 O 0.81778 0.84804 0.04635 0.0
O480 O 0.8657 0.95932 0.0389 0.0
C481 C 0.70308 0.75411 0.07904 0.0
O482 O 0.68163 0.82135 0.07209 0.0
C483 C 0.9347 0.12752 0.06143 0.0
C484 C 1.00609 0.16555 0.09367 0.0
C485 C 0.95609 0.19052 0.07507 0.0
N486 N 0.96607 0.06742 0.07258 0.0
N487 N 1.01214 0.09084 0.09096 0.0
C488 C 0.87604 0.12435 0.04065 0.0
H489 H 0.8257 0.09501 0.04796 0.0
H490 H 0.86015 0.18127 0.03408 0.0
H491 H 0.89803 0.09271 0.02372 0.0
C492 C 0.77265 0.90673 0.1258 0.0
N493 N 0.82261 0.89854 0.10603 0.0
N494 N 0.85299 0.96363 0.10085 0.0
C495 C 0.82091 1.01523 0.11655 0.0
C496 C 0.7702 0.98157 0.13332 0.0
C497 C 0.72759 0.84456 0.13708 0.0
H498 H 0.75963 0.79147 0.13652 0.0
H499 H 0.67578 0.83738 0.1255 0.0
H500 H 0.71114 0.85845 0.1573 0.0
O501 O 0.95668 0.78485 0.083 0.0
O502 O 1.0117 0.89394 0.07553 0.0
H503 H 0.88506 0.11486 0.11913 0.0
H504 H 0.78656 0.12939 0.12424 0.0
C505 C 0.82857 0.09716 0.11303 0.0
H506 H 0.81895 0.10903 0.09229 0.0
H507 H 1.0406 0.05525 0.10365 0.0
O508 O 0.77066 0.74199 0.08595 0.0
C509 C 1.01654 0.82344 0.07972 0.0
Co510 Co 1.03934 0.0961 0.83208 0.0
Co511 Co 0.88984 0.17408 0.82221 0.0
C512 C 0.95405 0.07408 0.78209 0.0
O513 O 1.01125 0.06773 0.79635 0.0
O514 O 0.89994 0.11563 0.7889 0.0
C515 C 0.10502 0.95299 0.82902 0.0
O516 O 1.03773 0.93168 0.82207 0.0
C517 C 0.73174 0.18451 0.81144 0.0
C518 C 0.69363 0.25606 0.84364 0.0
C519 C 0.66879 0.20583 0.82511 0.0
N520 N 0.79182 0.21604 0.82256 0.0
N521 N 0.76835 0.26219 0.84091 0.0
C522 C 0.73494 0.12576 0.7907 0.0
H523 H 0.76437 0.0755 0.79803 0.0
H524 H 0.67802 0.10978 0.78415 0.0
H525 H 0.76652 0.14771 0.77374 0.0
C526 C 0.95255 1.02263 0.8758 0.0
N527 N 0.96073 0.07258 0.85603 0.0
N528 N 0.89562 0.10299 0.85086 0.0
C529 C 0.84404 0.07095 0.86658 0.0
C530 C 0.87771 1.02022 0.88334 0.0
C531 C 1.01473 0.97754 0.88706 0.0
H532 H 0.06783 1.00956 0.88651 0.0
H533 H 1.0219 0.92576 0.87548 0.0
H534 H 1.00084 0.96106 0.90728 0.0
O535 O 0.07445 0.2066 0.83299 0.0
O536 O 0.96532 0.26162 0.82552 0.0
H537 H 0.74446 0.13521 0.86916 0.0
H538 H 0.72984 1.03676 0.87433 0.0
C539 C 0.76209 0.07868 0.86308 0.0
H540 H 0.75016 0.06897 0.84236 0.0
H541 H 0.80392 0.29079 0.85356 0.0
O542 O 0.11726 1.02053 0.83594 0.0
C543 C 1.03584 0.26645 0.82971 0.0
Co544 Co 0.84615 0.78922 0.58211 0.0
Co545 Co 0.92419 0.63977 0.57223 0.0
C546 C 0.82417 0.70398 0.53211 0.0
O547 O 0.81778 0.76116 0.54637 0.0
O548 O 0.86575 0.6499 0.53891 0.0
C549 C 0.70305 0.85494 0.57904 0.0
O550 O 0.68172 0.78767 0.57208 0.0
C551 C 0.93461 0.4817 0.56144 0.0
C552 C 1.00622 0.44357 0.59362 0.0
C553 C 0.95596 0.41874 0.5751 0.0
N554 N 0.96616 0.54176 0.57256 0.0
N555 N 1.01235 0.51828 0.5909 0.0
C556 C 0.87583 0.48492 0.54071 0.0
H557 H 0.82558 0.51437 0.54805 0.0
H558 H 0.85981 0.42801 0.53417 0.0
H559 H 0.89777 0.51647 0.52374 0.0
C560 C 0.77265 0.70237 0.62581 0.0
N561 N 0.82263 0.71059 0.60605 0.0
N562 N 0.85306 0.64551 0.60088 0.0
C563 C 0.82101 0.59391 0.61658 0.0
C564 C 0.77019 0.62753 0.63332 0.0
C565 C 0.72755 0.76453 0.63708 0.0
H566 H 0.75957 0.81762 0.63654 0.0
H567 H 0.67575 0.7717 0.6255 0.0
H568 H 0.71106 0.75062 0.6573 0.0
O569 O 0.95665 0.82435 0.58302 0.0
O570 O 1.01172 0.71527 0.57555 0.0
H571 H 0.88537 0.49441 0.61914 0.0
H572 H 0.78693 0.4797 0.62434 0.0
C573 C 0.8288 0.51198 0.61308 0.0
H574 H 0.81906 0.50004 0.59236 0.0
H575 H 1.04098 0.55383 0.60355 0.0
O576 O 0.77058 0.86715 0.58598 0.0
C577 C 1.01653 0.78577 0.57974 0.0
Co578 Co 0.57003 0.59611 0.8321 0.0
Co579 Co 0.71951 0.67404 0.82222 0.0
C580 C 0.65532 0.57408 0.7821 0.0
O581 O 0.59813 0.56773 0.79637 0.0
O582 O 0.70943 0.61563 0.7889 0.0
C583 C 0.50425 0.45305 0.82906 0.0
O584 O 0.57151 0.43164 0.8221 0.0
C585 C 0.87764 0.68468 0.81142 0.0
C586 C 0.91568 0.75591 0.84369 0.0
C587 C 0.94065 0.706 0.82507 0.0
N588 N 0.81753 0.716 0.82259 0.0
N589 N 0.84096 0.76197 0.841 0.0
C590 C 0.87447 0.62613 0.79061 0.0
H591 H 0.8452 0.57573 0.7979 0.0
H592 H 0.9314 0.61034 0.784 0.0
H593 H 0.84275 0.64817 0.77369 0.0
C594 C 0.65685 0.52259 0.87581 0.0
N595 N 0.64864 0.57257 0.85605 0.0
N596 N 0.71375 0.6029 0.85085 0.0
C597 C 0.76538 0.57074 0.86652 0.0
C598 C 0.73173 0.52002 0.88328 0.0
C599 C 0.59466 0.47758 0.8871 0.0
H600 H 0.54159 0.50965 0.88656 0.0
H601 H 0.58742 0.42578 0.87553 0.0
H602 H 0.6086 0.46111 0.90731 0.0
O603 O 0.5349 0.70659 0.83301 0.0
O604 O 0.64401 0.76159 0.82553 0.0
H605 H 0.86509 0.63477 0.86908 0.0
H606 H 0.87953 0.53625 0.87416 0.0
C607 C 0.84731 0.57832 0.86296 0.0
H608 H 0.8591 0.56877 0.84222 0.0
H609 H 0.80537 0.79036 0.8537 0.0
O610 O 0.4921 0.5206 0.83597 0.0
C611 C 0.57349 0.76644 0.82973 0.0
Co612 Co 0.76314 0.31989 0.08211 0.0
Co613 Co 0.6851 0.46934 0.07223 0.0
C614 C 0.78512 0.40514 0.03211 0.0
O615 O 0.79151 0.34796 0.04637 0.0
O616 O 0.74354 0.45922 0.03891 0.0
C617 C 0.90624 0.25418 0.07904 0.0
O618 O 0.92757 0.32144 0.07208 0.0
C619 C 0.67468 0.62741 0.06144 0.0
C620 C 0.60307 0.66555 0.09362 0.0
C621 C 0.65333 0.69037 0.0751 0.0
N622 N 0.64313 0.56735 0.07256 0.0
N623 N 0.59694 0.59084 0.0909 0.0
C624 C 0.73346 0.62419 0.04071 0.0
H625 H 0.78371 0.59475 0.04805 0.0
H626 H 0.74948 0.6811 0.03417 0.0
H627 H 0.71152 0.59264 0.02374 0.0
C628 C 0.83664 0.40674 0.12581 0.0
N629 N 0.78666 0.39852 0.10605 0.0
N630 N 0.75623 0.4636 0.10088 0.0
C631 C 0.78828 0.51521 0.11658 0.0
C632 C 0.8391 0.48159 0.13332 0.0
C633 C 0.88174 0.34459 0.13708 0.0
H634 H 0.84972 0.29149 0.13654 0.0
H635 H 0.93354 0.33741 0.1255 0.0
H636 H 0.89823 0.3585 0.1573 0.0
O637 O 0.65264 0.28476 0.08302 0.0
O638 O 0.59757 0.39385 0.07555 0.0
H639 H 0.72392 0.61471 0.11914 0.0
H640 H 0.82236 0.62942 0.12434 0.0
C641 C 0.78049 0.59714 0.11308 0.0
H642 H 0.79023 0.60908 0.09236 0.0
H643 H 0.56831 0.55528 0.10355 0.0
O644 O 0.83871 0.24197 0.08598 0.0
C645 C 0.59276 0.32334 0.07974 0.0
Co646 Co 1.03926 0.513 0.3321 0.0
Co647 Co 0.88978 0.43507 0.32222 0.0
C648 C 0.95397 0.53503 0.2821 0.0
O649 O 1.01116 0.54139 0.29637 0.0
O650 O 0.89986 0.49349 0.2889 0.0
C651 C 0.10504 0.65606 0.32906 0.0
O652 O 1.03778 0.67747 0.3221 0.0
C653 C 0.73165 0.42443 0.31142 0.0
C654 C 0.69361 0.35321 0.34369 0.0
C655 C 0.66864 0.40311 0.32507 0.0
N656 N 0.79176 0.39312 0.32259 0.0
N657 N 0.76833 0.34715 0.341 0.0
C658 C 0.73482 0.48298 0.29061 0.0
H659 H 0.76409 0.53338 0.2979 0.0
H660 H 0.67789 0.49878 0.284 0.0
H661 H 0.76654 0.46095 0.27369 0.0
C662 C 0.95244 0.58653 0.37581 0.0
N663 N 0.96065 0.53655 0.35605 0.0
N664 N 0.89554 0.50622 0.35085 0.0
C665 C 0.84392 0.53837 0.36652 0.0
C666 C 0.87756 0.5891 0.38328 0.0
C667 C 1.01463 0.63154 0.3871 0.0
H668 H 0.0677 0.59947 0.38656 0.0
H669 H 1.02187 0.68333 0.37553 0.0
H670 H 1.00069 0.648 0.40731 0.0
O671 O 0.07439 0.40252 0.33301 0.0
O672 O 0.96528 0.34752 0.32553 0.0
H673 H 0.7442 0.47435 0.36908 0.0
H674 H 0.72976 0.57286 0.37415 0.0
C675 C 0.76198 0.53079 0.36296 0.0
H676 H 0.75019 0.54034 0.34222 0.0
H677 H 0.80392 0.31876 0.3537 0.0
O678 O 0.11719 0.58851 0.33597 0.0
C679 C 1.0358 0.34267 0.32973 0.0
Co680 Co 0.84614 0.31988 0.95689 0.0
Co681 Co 0.92416 0.46933 0.96676 0.0
C682 C 0.82415 0.40513 1.00688 0.0
O683 O 0.81778 0.34795 0.99262 0.0
O684 O 0.86571 0.45922 1.00008 0.0
C685 C 0.70303 0.25418 0.95996 0.0
O686 O 0.6817 0.32145 0.96692 0.0
C687 C 0.93455 0.62741 0.97753 0.0
C688 C 1.00622 0.66551 0.94535 0.0
C689 C 0.95592 0.69035 0.96386 0.0
N690 N 0.96612 0.56734 0.96642 0.0
N691 N 1.01235 0.5908 0.94809 0.0
C692 C 0.87573 0.62421 0.99824 0.0
H693 H 0.8255 0.59474 0.9909 0.0
H694 H 0.85967 0.68113 1.00477 0.0
H695 H 0.89765 0.59269 1.01522 0.0
C696 C 0.77267 0.40668 0.91317 0.0
N697 N 0.82262 0.39849 0.93294 0.0
N698 N 0.85306 0.46357 0.9381 0.0
C699 C 0.82105 0.51515 0.92238 0.0
C700 C 0.77029 0.4815 0.90563 0.0
C701 C 0.72758 0.34452 0.90191 0.0
H702 H 0.75961 0.29143 0.90245 0.0
H703 H 0.67579 0.33734 0.91349 0.0
H704 H 0.71108 0.35841 0.88169 0.0
O705 O 0.95666 0.28475 0.95598 0.0
O706 O 1.0117 0.39384 0.96345 0.0
H707 H 0.88542 0.61464 0.9198 0.0
H708 H 0.78699 0.62936 0.91459 0.0
C709 C 0.82884 0.59709 0.92586 0.0
H710 H 0.81907 0.60907 0.94658 0.0
H711 H 1.041 0.55523 0.93545 0.0
O712 O 0.77057 0.24196 0.95303 0.0
C713 C 1.01652 0.32334 0.95926 0.0
Co714 Co 1.03927 0.59612 0.20689 0.0
Co715 Co 0.88978 0.67405 0.21676 0.0
C716 C 0.95397 0.57408 0.25688 0.0
O717 O 1.01117 0.56773 0.24262 0.0
O718 O 0.89986 0.61562 0.25008 0.0
C719 C 0.10504 0.45304 0.20993 0.0
O720 O 1.03779 0.43164 0.21688 0.0
C721 C 0.73164 0.68465 0.22755 0.0
C722 C 0.69359 0.75593 0.19529 0.0
C723 C 0.66863 0.70598 0.2139 0.0
N724 N 0.79175 0.716 0.21639 0.0
N725 N 0.76832 0.762 0.198 0.0
C726 C 0.73482 0.62605 0.24835 0.0
H727 H 0.76412 0.57568 0.24105 0.0
H728 H 0.67789 0.61022 0.25494 0.0
H729 H 0.76651 0.64807 0.26527 0.0
C730 C 0.95249 0.52263 0.16317 0.0
N731 N 0.96068 0.57258 0.18294 0.0
N732 N 0.89556 0.60292 0.18813 0.0
C733 C 0.84396 0.57082 0.17243 0.0
C734 C 0.87763 0.52014 0.15566 0.0
C735 C 1.01469 0.47761 0.15188 0.0
H736 H 0.06776 0.50968 0.15242 0.0
H737 H 1.02193 0.42582 0.16346 0.0
H738 H 1.00076 0.46114 0.13167 0.0
O739 O 0.0744 0.70659 0.20598 0.0
O740 O 0.96528 0.7616 0.21345 0.0
H741 H 0.74424 0.63486 0.16987 0.0
H742 H 0.72981 0.53635 0.16478 0.0
C743 C 0.76201 0.57841 0.17598 0.0
H744 H 0.75019 0.56883 0.19672 0.0
H745 H 0.80391 0.79042 0.1853 0.0
O746 O 0.1172 0.5206 0.20302 0.0
C747 C 1.0358 0.76644 0.20926 0.0
Co748 Co 0.76315 0.78924 0.45689 0.0
Co749 Co 0.68513 0.63978 0.46676 0.0
C750 C 0.78514 0.70398 0.50688 0.0
O751 O 0.79151 0.76117 0.49262 0.0
O752 O 0.74358 0.64989 0.50008 0.0
C753 C 0.90626 0.85493 0.45996 0.0
O754 O 0.92759 0.78766 0.46692 0.0
C755 C 0.67474 0.48171 0.47753 0.0
C756 C 0.60307 0.44361 0.44535 0.0
C757 C 0.65337 0.41876 0.46386 0.0
N758 N 0.64317 0.54177 0.46642 0.0
N759 N 0.59694 0.51831 0.44809 0.0
C760 C 0.73357 0.4849 0.49824 0.0
H761 H 0.78379 0.51438 0.4909 0.0
H762 H 0.74962 0.42799 0.50477 0.0
H763 H 0.71164 0.51642 0.51522 0.0
C764 C 0.83662 0.70244 0.41317 0.0
N765 N 0.78667 0.71063 0.43294 0.0
N766 N 0.75623 0.64554 0.4381 0.0
C767 C 0.78824 0.59396 0.42238 0.0
C768 C 0.839 0.62761 0.40563 0.0
C769 C 0.88171 0.7646 0.40191 0.0
H770 H 0.84968 0.81769 0.40245 0.0
H771 H 0.9335 0.77177 0.41349 0.0
H772 H 0.89821 0.7507 0.38169 0.0
O773 O 0.65263 0.82436 0.45598 0.0
O774 O 0.59759 0.71527 0.46345 0.0
H775 H 0.72387 0.49447 0.4198 0.0
H776 H 0.82231 0.47976 0.41459 0.0
C777 C 0.78045 0.51203 0.42586 0.0
H778 H 0.79022 0.50004 0.44658 0.0
H779 H 0.56829 0.55388 0.43545 0.0
O780 O 0.83872 0.86715 0.45303 0.0
C781 C 0.59277 0.78578 0.45926 0.0
Co782 Co 0.57002 0.513 0.70689 0.0
Co783 Co 0.71951 0.43506 0.71676 0.0
C784 C 0.65532 0.53504 0.75688 0.0
O785 O 0.59812 0.54139 0.74262 0.0
O786 O 0.70943 0.49349 0.75008 0.0
C787 C 0.50425 0.65607 0.70993 0.0
O788 O 0.5715 0.67748 0.71688 0.0
C789 C 0.87765 0.42447 0.72755 0.0
C790 C 0.9157 0.35318 0.69529 0.0
C791 C 0.94066 0.40313 0.7139 0.0
N792 N 0.81754 0.39312 0.71639 0.0
N793 N 0.84097 0.34711 0.698 0.0
C794 C 0.87447 0.48306 0.74835 0.0
H795 H 0.84517 0.53343 0.74105 0.0
H796 H 0.9314 0.4989 0.75494 0.0
H797 H 0.84278 0.46105 0.76527 0.0
C798 C 0.6568 0.58648 0.66317 0.0
N799 N 0.64861 0.53653 0.68294 0.0
N800 N 0.71373 0.50619 0.68813 0.0
C801 C 0.76534 0.5383 0.67243 0.0
C802 C 0.73166 0.58898 0.65566 0.0
C803 C 0.5946 0.6315 0.65188 0.0
H804 H 0.54153 0.59944 0.65242 0.0
H805 H 0.58736 0.68329 0.66346 0.0
H806 H 0.60853 0.64798 0.63167 0.0
O807 O 0.53489 0.40252 0.70598 0.0
O808 O 0.64401 0.34751 0.71345 0.0
H809 H 0.86505 0.47426 0.66987 0.0
H810 H 0.87948 0.57276 0.66478 0.0
C811 C 0.84728 0.53071 0.67598 0.0
H812 H 0.8591 0.54028 0.69672 0.0
H813 H 0.80538 0.31869 0.6853 0.0
O814 O 0.49209 0.58852 0.70302 0.0
C815 C 0.57349 0.34267 0.70926 0.0
Co816 Co 0.26314 0.31989 0.45686 0.0
Co817 Co 0.18512 0.46934 0.46674 0.0
C818 C 0.28512 0.40513 0.50687 0.0
O819 O 0.2915 0.34796 0.4926 0.0
O820 O 0.24354 0.45922 0.50006 0.0
C821 C 0.40625 0.25418 0.45993 0.0
O822 O 0.42757 0.32145 0.46689 0.0
C823 C 0.17467 0.62741 0.47753 0.0
C824 C 0.10311 0.66553 0.44533 0.0
C825 C 0.15334 0.69037 0.46387 0.0
N826 N 0.14315 0.56735 0.4664 0.0
N827 N 0.09699 0.59082 0.44806 0.0
C828 C 0.2334 0.6242 0.49828 0.0
H829 H 0.28368 0.59478 0.49096 0.0
H830 H 0.24939 0.68112 0.50483 0.0
H831 H 0.21143 0.59264 0.51524 0.0
C832 C 0.33667 0.40674 0.41317 0.0
N833 N 0.28668 0.39852 0.43292 0.0
N834 N 0.25627 0.4636 0.4381 0.0
C835 C 0.28836 0.51522 0.42241 0.0
C836 C 0.33915 0.4816 0.40567 0.0
C837 C 0.38176 0.34458 0.40189 0.0
H838 H 0.34974 0.29149 0.40244 0.0
H839 H 0.43357 0.33742 0.41347 0.0
H840 H 0.39822 0.35849 0.38167 0.0
O841 O 0.15264 0.28476 0.45595 0.0
O842 O 0.09758 0.39384 0.46342 0.0
H843 H 0.22407 0.61476 0.41986 0.0
H844 H 0.32252 0.62941 0.41468 0.0
C845 C 0.28061 0.59714 0.42593 0.0
H846 H 0.29034 0.60906 0.44665 0.0
H847 H 0.06839 0.55526 0.4354 0.0
O848 O 0.33871 0.24197 0.453 0.0
C849 C 0.09276 0.32334 0.45923 0.0
Co850 Co 0.53931 0.51302 0.20687 0.0
Co851 Co 0.38981 0.43507 0.21675 0.0
C852 C 0.45402 0.53503 0.25687 0.0
O853 O 0.51121 0.54138 0.24261 0.0
O854 O 0.39991 0.49349 0.25007 0.0
C855 C 0.60499 0.65611 0.20994 0.0
O856 O 0.5377 0.67742 0.21689 0.0
C857 C 0.23172 0.42455 0.22754 0.0
C858 C 0.19364 0.35314 0.19529 0.0
C859 C 0.16877 0.40326 0.21386 0.0
N860 N 0.29181 0.3931 0.21639 0.0
N861 N 0.26836 0.34703 0.19802 0.0
C862 C 0.23489 0.48319 0.24831 0.0
H863 H 0.26425 0.53352 0.24101 0.0
H864 H 0.17796 0.49909 0.25488 0.0
H865 H 0.26652 0.46119 0.26525 0.0
C866 C 0.45248 0.58654 0.16317 0.0
N867 N 0.46069 0.53657 0.18293 0.0
N868 N 0.39557 0.50621 0.18812 0.0
C869 C 0.34396 0.53834 0.17243 0.0
C870 C 0.37761 0.58909 0.15568 0.0
C871 C 0.51467 0.63157 0.15189 0.0
H872 H 0.56774 0.5995 0.15242 0.0
H873 H 0.5219 0.68336 0.16346 0.0
H874 H 0.50074 0.64805 0.13167 0.0
O875 O 0.57442 0.40252 0.20596 0.0
O876 O 0.4653 0.34753 0.21343 0.0
H877 H 0.24432 0.47421 0.16988 0.0
H878 H 0.22978 0.57268 0.16474 0.0
C879 C 0.26202 0.5307 0.17597 0.0
H880 H 0.25016 0.54035 0.1967 0.0
H881 H 0.30395 0.3185 0.18535 0.0
O882 O 0.61723 0.58858 0.20302 0.0
C883 C 0.53581 0.34268 0.20924 0.0
Co884 Co 0.34615 0.78923 0.95686 0.0
Co885 Co 0.42417 0.63978 0.96674 0.0
C886 C 0.32417 0.70398 1.00687 0.0
O887 O 0.31779 0.76116 0.9926 0.0
O888 O 0.36575 0.6499 1.00006 0.0
C889 C 0.20304 0.85493 0.95993 0.0
O890 O 0.18172 0.78766 0.96689 0.0
C891 C 0.43462 0.4817 0.97753 0.0
C892 C 0.50618 0.44358 0.94533 0.0
C893 C 0.45595 0.41875 0.96387 0.0
N894 N 0.46614 0.54177 0.9664 0.0
N895 N 0.5123 0.51829 0.94806 0.0
C896 C 0.37589 0.48491 0.99828 0.0
H897 H 0.32561 0.51434 0.99096 0.0
H898 H 0.3599 0.428 1.00483 0.0
H899 H 0.39786 0.51648 1.01524 0.0
C900 C 0.27262 0.70238 0.91317 0.0
N901 N 0.32261 0.7106 0.93292 0.0
N902 N 0.35302 0.64551 0.9381 0.0
C903 C 0.32093 0.5939 0.92241 0.0
C904 C 0.27014 0.62752 0.90567 0.0
C905 C 0.22753 0.76453 0.90189 0.0
H906 H 0.25955 0.81763 0.90244 0.0
H907 H 0.17572 0.7717 0.91347 0.0
H908 H 0.21107 0.75062 0.88167 0.0
O909 O 0.45665 0.82436 0.95595 0.0
O910 O 0.51171 0.71527 0.96342 0.0
H911 H 0.38522 0.49436 0.91986 0.0
H912 H 0.28677 0.4797 0.91468 0.0
C913 C 0.32868 0.51197 0.92593 0.0
H914 H 0.31895 0.50006 0.94665 0.0
H915 H 0.5409 0.55386 0.9354 0.0
O916 O 0.27058 0.86715 0.953 0.0
C917 C 0.51653 0.78578 0.95923 0.0
Co918 Co 0.06998 0.5961 0.70687 0.0
Co919 Co 0.21948 0.67405 0.71675 0.0
C920 C 0.15527 0.57408 0.75687 0.0
O921 O 0.09808 0.56774 0.74261 0.0
O922 O 0.20938 0.61563 0.75007 0.0
C923 C 1.0043 0.45301 0.70994 0.0
O924 O 0.07159 0.43169 0.71689 0.0
C925 C 0.37757 0.68457 0.72754 0.0
C926 C 0.41565 0.75597 0.69529 0.0
C927 C 0.44052 0.70585 0.71386 0.0
N928 N 0.31749 0.71601 0.71639 0.0
N929 N 0.34093 0.76209 0.69802 0.0
C930 C 0.3744 0.62592 0.74831 0.0
H931 H 0.34504 0.5756 0.74101 0.0
H932 H 0.43133 0.61003 0.75488 0.0
H933 H 0.34277 0.64793 0.76525 0.0
C934 C 0.15681 0.52257 0.66317 0.0
N935 N 0.1486 0.57255 0.68293 0.0
N936 N 0.21372 0.6029 0.68812 0.0
C937 C 0.26533 0.57077 0.67243 0.0
C938 C 0.23168 0.52003 0.65568 0.0
C939 C 0.09462 0.47755 0.65189 0.0
H940 H 1.04155 0.50961 0.65242 0.0
H941 H 0.08739 0.42576 0.66346 0.0
H942 H 0.10855 0.46107 0.63167 0.0
O943 O 1.03487 0.70659 0.70596 0.0
O944 O 0.144 0.76159 0.71343 0.0
H945 H 0.36497 0.63491 0.66988 0.0
H946 H 0.37951 0.53643 0.66474 0.0
C947 C 0.34727 0.57842 0.67597 0.0
H948 H 0.35913 0.56877 0.6967 0.0
H949 H 0.30534 0.79061 0.68535 0.0
O950 O 0.99206 0.52054 0.70302 0.0
C951 C 0.07348 0.76644 0.70924 0.0
Co952 Co 0.26315 0.78925 0.08209 0.0
Co953 Co 0.18515 0.63979 0.07221 0.0
C954 C 0.28514 0.70399 0.03209 0.0
O955 O 0.29151 0.76117 0.04635 0.0
O956 O 0.24358 0.64989 0.0389 0.0
C957 C 0.40627 0.85493 0.07902 0.0
O958 O 0.4276 0.78765 0.07207 0.0
C959 C 0.17473 0.48171 0.06145 0.0
C960 C 0.10311 0.44362 0.09364 0.0
C961 C 0.15337 0.41877 0.07511 0.0
N962 N 0.14319 0.54178 0.07256 0.0
N963 N 0.09699 0.51833 0.0909 0.0
C964 C 0.23351 0.48489 0.04072 0.0
H965 H 0.28375 0.51435 0.04804 0.0
H966 H 0.24953 0.42797 0.03418 0.0
H967 H 0.21156 0.51642 0.02375 0.0
C968 C 0.33664 0.70244 0.1258 0.0
N969 N 0.28669 0.71063 0.10603 0.0
N970 N 0.25627 0.64554 0.10086 0.0
C971 C 0.28832 0.59395 0.11658 0.0
C972 C 0.33906 0.62761 0.13333 0.0
C973 C 0.38173 0.7646 0.13707 0.0
H974 H 0.3497 0.81769 0.13652 0.0
H975 H 0.43353 0.77177 0.12549 0.0
H976 H 0.39821 0.75071 0.15729 0.0
O977 O 0.15263 0.82437 0.083 0.0
O978 O 0.0976 0.71528 0.07553 0.0
H979 H 0.22402 0.49442 0.11914 0.0
H980 H 0.32247 0.47976 0.12434 0.0
C981 C 0.28058 0.51202 0.11308 0.0
H982 H 0.29032 0.50007 0.09236 0.0
H983 H 0.06837 0.55391 0.10355 0.0
O984 O 0.33872 0.86716 0.08595 0.0
C985 C 0.09277 0.78578 0.07972 0.0
Co986 Co 0.06998 0.51302 0.83209 0.0
Co987 Co 0.21948 0.43506 0.82221 0.0
C988 C 0.15527 0.53504 0.78209 0.0
O989 O 0.09807 0.54138 0.79635 0.0
O990 O 0.20938 0.49349 0.7889 0.0
C991 C 1.0043 0.65612 0.82902 0.0
O992 O 0.07159 0.67743 0.82207 0.0
C993 C 0.37758 0.42459 0.81144 0.0
C994 C 0.41567 0.35312 0.84367 0.0
C995 C 0.44053 0.40328 0.82512 0.0
N996 N 0.3175 0.3931 0.82257 0.0
N997 N 0.34095 0.34699 0.84094 0.0
C998 C 0.3744 0.48327 0.79068 0.0
H999 H 0.345 0.53357 0.79799 0.0
H1000 H 0.43133 0.49921 0.78412 0.0
H1001 H 0.34281 0.46129 0.77373 0.0
C1002 C 0.15676 0.5865 0.8758 0.0
N1003 N 0.14858 0.53655 0.85603 0.0
N1004 N 0.2137 0.50619 0.85085 0.0
C1005 C 0.26529 0.53827 0.86656 0.0
C1006 C 0.23161 0.58897 0.88332 0.0
C1007 C 0.09457 0.63153 0.88708 0.0
H1008 H 1.04149 0.59947 0.88654 0.0
H1009 H 0.08733 0.68332 0.8755 0.0
H1010 H 0.10848 0.64802 0.90729 0.0
O1011 O 1.03487 0.40252 0.833 0.0
O1012 O 0.144 0.34752 0.82552 0.0
H1013 H 0.36493 0.47412 0.86912 0.0
H1014 H 0.37946 0.57258 0.87427 0.0
C1015 C 0.34724 0.53062 0.86304 0.0
H1016 H 0.35912 0.54029 0.8423 0.0
H1017 H 0.30536 0.31844 0.8536 0.0
O1018 O 0.99206 0.58859 0.83594 0.0
C1019 C 0.07348 0.34268 0.82971 0.0
Co1020 Co 0.34614 0.31987 0.58209 0.0
Co1021 Co 0.42414 0.46933 0.57221 0.0
C1022 C 0.32415 0.40513 0.53209 0.0
O1023 O 0.31778 0.34795 0.54635 0.0
O1024 O 0.36571 0.45922 0.5389 0.0
C1025 C 0.20302 0.25419 0.57902 0.0
O1026 O 0.18169 0.32146 0.57207 0.0
C1027 C 0.43456 0.62741 0.56145 0.0
C1028 C 0.50618 0.66549 0.59364 0.0
C1029 C 0.45592 0.69035 0.57511 0.0
N1030 N 0.4661 0.56733 0.57256 0.0
N1031 N 0.5123 0.59079 0.5909 0.0
C1032 C 0.37578 0.62422 0.54072 0.0
H1033 H 0.32554 0.59476 0.54804 0.0
H1034 H 0.35976 0.68114 0.53418 0.0
H1035 H 0.39773 0.59269 0.52375 0.0
C1036 C 0.27265 0.40668 0.6258 0.0
N1037 N 0.3226 0.39848 0.60603 0.0
N1038 N 0.35302 0.46357 0.60086 0.0
C1039 C 0.32097 0.51516 0.61658 0.0
C1040 C 0.27023 0.48151 0.63333 0.0
C1041 C 0.22756 0.34451 0.63707 0.0
H1042 H 0.25959 0.29142 0.63652 0.0
H1043 H 0.17576 0.33735 0.62549 0.0
H1044 H 0.21108 0.35841 0.65729 0.0
O1045 O 0.45666 0.28475 0.583 0.0
O1046 O 0.51169 0.39384 0.57553 0.0
H1047 H 0.38527 0.61469 0.61914 0.0
H1048 H 0.28682 0.62935 0.62434 0.0
C1049 C 0.32872 0.5971 0.61308 0.0
H1050 H 0.31897 0.60905 0.59236 0.0
H1051 H 0.54092 0.55521 0.60355 0.0
O1052 O 0.27057 0.24196 0.58595 0.0
C1053 C 0.51652 0.32333 0.57972 0.0
Co1054 Co 0.53931 0.5961 0.33209 0.0
Co1055 Co 0.38981 0.67405 0.32221 0.0
C1056 C 0.45402 0.57408 0.28209 0.0
O1057 O 0.51122 0.56774 0.29635 0.0
O1058 O 0.39991 0.61562 0.2889 0.0
C1059 C 0.60499 0.453 0.32902 0.0
O1060 O 0.5377 0.43169 0.32207 0.0
C1061 C 0.23171 0.68453 0.31144 0.0
C1062 C 0.19363 0.756 0.34367 0.0
C1063 C 0.16876 0.70583 0.32512 0.0
N1064 N 0.29179 0.71601 0.32257 0.0
N1065 N 0.26834 0.76212 0.34094 0.0
C1066 C 0.23489 0.62584 0.29068 0.0
H1067 H 0.26429 0.57554 0.29799 0.0
H1068 H 0.17796 0.60991 0.28412 0.0
H1069 H 0.26648 0.64782 0.27373 0.0
C1070 C 0.45253 0.52261 0.3758 0.0
N1071 N 0.46071 0.57256 0.35603 0.0
N1072 N 0.39559 0.60293 0.35085 0.0
C1073 C 0.344 0.57085 0.36656 0.0
C1074 C 0.37768 0.52015 0.38332 0.0
C1075 C 0.51472 0.47758 0.38708 0.0
H1076 H 0.5678 0.50965 0.38654 0.0
H1077 H 0.52196 0.4258 0.3755 0.0
H1078 H 0.50081 0.46109 0.40729 0.0
O1079 O 0.57442 0.70659 0.333 0.0
O1080 O 0.46529 0.7616 0.32552 0.0
H1081 H 0.24436 0.635 0.36912 0.0
H1082 H 0.22983 0.53653 0.37427 0.0
C1083 C 0.26205 0.5785 0.36304 0.0
H1084 H 0.25017 0.56883 0.3423 0.0
H1085 H 0.30393 0.79068 0.3536 0.0
O1086 O 0.61723 0.52053 0.33594 0.0
C1087 C 0.53581 0.76644 0.32971 0.0
loop_
_geom_bond_atom_site_label_1
_geom_bond_atom_site_label_2
_geom_bond_distance
_geom_bond_site_symmetry_2
_ccdc_geom_bond_type
Co0 O3 1.970 . S
Co0 N17 1.989 . S
Co0 O25 1.967 . S
Co0 O32 1.920 . S
Co1 O4 1.966 . S
Co1 N10 2.022 . S
Co1 N18 1.993 . S
Co1 O26 1.941 . S
C2 O3 1.258 . S
C2 O4 1.263 . S
O3 Co0 1.970 . S
O3 C2 1.258 . S
O4 Co1 1.966 . S
O4 C2 1.263 . S
C5 O6 1.235 . S
C5 O32 1.289 . S
O6 C5 1.235 . S
C7 C9 1.400 . S
C7 N10 1.351 1_565 S
C7 C12 1.501 . S
C8 C9 1.387 . S
C8 N11 1.341 . S
C9 C7 1.400 . S
C9 C8 1.387 . S
N10 Co1 2.022 . S
N10 C7 1.351 1_545 S
N10 N11 1.365 1_545 S
N11 C8 1.341 . S
N11 N10 1.365 1_565 S
N11 H31 0.862 . S
C12 C7 1.501 . S
C12 H13 0.961 1_565 S
C12 H14 0.961 . S
C12 H15 0.960 . S
H13 C12 0.961 1_545 S
H14 C12 0.961 . S
H15 C12 0.960 . S
C16 N17 1.342 . S
C16 C20 1.401 . S
C16 C21 1.499 . S
N17 Co0 1.989 . S
N17 C16 1.342 . S
N17 N18 1.388 . S
N18 Co1 1.993 . S
N18 N17 1.388 . S
N18 C19 1.346 . S
C19 N18 1.346 . S
C19 C20 1.396 . S
C19 C29 1.510 . S
C20 C16 1.401 . S
C20 C19 1.396 . S
C21 C16 1.499 . S
C21 H22 0.959 . S
C21 H23 0.960 . S
C21 H24 0.961 . S
H22 C21 0.959 . S
H23 C21 0.960 . S
H24 C21 0.961 . S
O25 Co0 1.967 . S
O25 C33 1.258 . S
O26 Co1 1.941 . S
O26 C33 1.266 . S
H27 C29 0.959 . S
H28 C29 0.961 . S
C29 C19 1.510 . S
C29 H27 0.959 . S
C29 H28 0.961 . S
C29 H30 0.960 . S
H30 C29 0.960 . S
H31 N11 0.862 . S
O32 Co0 1.920 . S
O32 C5 1.289 . S
C33 O25 1.258 . S
C33 O26 1.266 . S
Co34 O37 1.970 . S
Co34 N51 1.989 1_645 S
Co34 O59 1.967 . S
Co34 O66 1.920 . S
Co35 O38 1.966 . S
Co35 N44 2.022 . S
Co35 N52 1.993 . S
Co35 O60 1.941 . S
C36 O37 1.258 1_455 S
C36 O38 1.263 . S
O37 Co34 1.970 . S
O37 C36 1.258 1_655 S
O38 Co35 1.966 . S
O38 C36 1.263 . S
C39 O40 1.235 . S
C39 O66 1.289 1_565 S
O40 C39 1.235 . S
C41 C43 1.400 . S
C41 N44 1.351 . S
C41 C46 1.501 . S
C42 C43 1.387 . S
C42 N45 1.341 . S
C43 C41 1.400 . S
C43 C42 1.387 . S
N44 Co35 2.022 . S
N44 C41 1.351 . S
N44 N45 1.365 . S
N45 C42 1.341 . S
N45 N44 1.365 . S
N45 H65 0.862 . S
C46 C41 1.501 . S
C46 H47 0.961 . S
C46 H48 0.961 1_545 S
C46 H49 0.960 . S
H47 C46 0.961 . S
H48 C46 0.961 1_565 S
H49 C46 0.960 . S
C50 N51 1.342 . S
C50 C54 1.401 . S
C50 C55 1.499 1_455 S
N51 Co34 1.989 1_465 S
N51 C50 1.342 . S
N51 N52 1.388 1_565 S
N52 Co35 1.993 . S
N52 N51 1.388 1_545 S
N52 C53 1.346 1_545 S
C53 N52 1.346 1_565 S
C53 C54 1.396 . S
C53 C63 1.510 . S
C54 C50 1.401 . S
C54 C53 1.396 . S
C55 C50 1.499 1_655 S
C55 H56 0.959 . S
C55 H57 0.960 . S
C55 H58 0.961 . S
H56 C55 0.959 . S
H57 C55 0.960 . S
H58 C55 0.961 . S
O59 Co34 1.967 . S
O59 C67 1.258 1_655 S
O60 Co35 1.941 . S
O60 C67 1.266 . S
H61 C63 0.959 . S
H62 C63 0.961 . S
C63 C53 1.510 . S
C63 H61 0.959 . S
C63 H62 0.961 . S
C63 H64 0.960 . S
H64 C63 0.960 . S
H65 N45 0.862 . S
O66 Co34 1.920 . S
O66 C39 1.289 1_545 S
C67 O59 1.258 1_455 S
C67 O60 1.266 . S
Co68 O71 1.970 . S
Co68 N85 1.989 . S
Co68 O93 1.967 . S
Co68 O100 1.920 . S
Co69 O72 1.966 . S
Co69 N78 2.022 . S
Co69 N86 1.993 . S
Co69 O94 1.941 . S
C70 O71 1.258 . S
C70 O72 1.263 . S
O71 Co68 1.970 . S
O71 C70 1.258 . S
O72 Co69 1.966 . S
O72 C70 1.263 . S
C73 O74 1.235 . S
C73 O100 1.289 . S
O74 C73 1.235 . S
C75 C77 1.400 . S
C75 N78 1.351 1_545 S
C75 C80 1.501 . S
C76 C77 1.387 . S
C76 N79 1.341 . S
C77 C75 1.400 . S
C77 C76 1.387 . S
N78 Co69 2.022 . S
N78 C75 1.351 1_565 S
N78 N79 1.365 1_565 S
N79 C76 1.341 . S
N79 N78 1.365 1_545 S
N79 H99 0.862 . S
C80 C75 1.501 . S
C80 H81 0.961 1_545 S
C80 H82 0.961 . S
C80 H83 0.960 . S
H81 C80 0.961 1_565 S
H82 C80 0.961 . S
H83 C80 0.960 . S
C84 N85 1.342 . S
C84 C88 1.401 . S
C84 C89 1.499 . S
N85 Co68 1.989 . S
N85 C84 1.342 . S
N85 N86 1.388 . S
N86 Co69 1.993 . S
N86 N85 1.388 . S
N86 C87 1.346 . S
C87 N86 1.346 . S
C87 C88 1.396 . S
C87 C97 1.510 . S
C88 C84 1.401 . S
C88 C87 1.396 . S
C89 C84 1.499 . S
C89 H90 0.959 . S
C89 H91 0.960 . S
C89 H92 0.961 . S
H90 C89 0.959 . S
H91 C89 0.960 . S
H92 C89 0.961 . S
O93 Co68 1.967 . S
O93 C101 1.258 . S
O94 Co69 1.941 . S
O94 C101 1.266 . S
H95 C97 0.959 . S
H96 C97 0.961 . S
C97 C87 1.510 . S
C97 H95 0.959 . S
C97 H96 0.961 . S
C97 H98 0.960 . S
H98 C97 0.960 . S
H99 N79 0.862 . S
O100 Co68 1.920 . S
O100 C73 1.289 . S
C101 O93 1.258 . S
C101 O94 1.266 . S
Co102 O105 1.970 . S
Co102 N119 1.989 1_565 S
Co102 O127 1.967 . S
Co102 O134 1.920 . S
Co103 O106 1.966 . S
Co103 N112 2.022 . S
Co103 N120 1.993 . S
Co103 O128 1.941 . S
C104 O105 1.258 . S
C104 O106 1.263 . S
O105 Co102 1.970 . S
O105 C104 1.258 . S
O106 Co103 1.966 . S
O106 C104 1.263 . S
C107 O108 1.235 . S
C107 O134 1.289 1_545 S
O108 C107 1.235 . S
C109 C111 1.400 . S
C109 N112 1.351 . S
C109 C114 1.501 . S
C110 C111 1.387 . S
C110 N113 1.341 . S
C111 C109 1.400 . S
C111 C110 1.387 . S
N112 Co103 2.022 . S
N112 C109 1.351 . S
N112 N113 1.365 . S
N113 C110 1.341 . S
N113 N112 1.365 . S
N113 H133 0.862 . S
C114 C109 1.501 . S
C114 H115 0.961 . S
C114 H116 0.961 1_565 S
C114 H117 0.960 . S
H115 C114 0.961 . S
H116 C114 0.961 1_545 S
H117 C114 0.960 . S
C118 N119 1.342 . S
C118 C122 1.401 . S
C118 C123 1.499 . S
N119 Co102 1.989 1_545 S
N119 C118 1.342 . S
N119 N120 1.388 1_545 S
N120 Co103 1.993 . S
N120 N119 1.388 1_565 S
N120 C121 1.346 1_565 S
C121 N120 1.346 1_545 S
C121 C122 1.396 . S
C121 C131 1.510 . S
C122 C118 1.401 . S
C122 C121 1.396 . S
C123 C118 1.499 . S
C123 H124 0.959 . S
C123 H125 0.960 . S
C123 H126 0.961 . S
H124 C123 0.959 . S
H125 C123 0.960 . S
H126 C123 0.961 . S
O127 Co102 1.967 . S
O127 C135 1.258 . S
O128 Co103 1.941 . S
O128 C135 1.266 . S
H129 C131 0.959 . S
H130 C131 0.961 . S
C131 C121 1.510 . S
C131 H129 0.959 . S
C131 H130 0.961 . S
C131 H132 0.960 . S
H132 C131 0.960 . S
H133 N113 0.862 . S
O134 Co102 1.920 . S
O134 C107 1.289 1_565 S
C135 O127 1.258 . S
C135 O128 1.266 . S
Co136 O139 1.970 . S
Co136 N153 1.989 . S
Co136 O161 1.967 . S
Co136 O168 1.920 . S
Co137 O140 1.966 . S
Co137 N146 2.022 . S
Co137 N154 1.993 . S
Co137 O162 1.941 . S
C138 O139 1.258 . S
C138 O140 1.263 . S
O139 Co136 1.970 . S
O139 C138 1.258 . S
O140 Co137 1.966 . S
O140 C138 1.263 . S
C141 O142 1.235 . S
C141 O168 1.289 . S
O142 C141 1.235 . S
C143 C145 1.400 . S
C143 N146 1.351 1_545 S
C143 C148 1.501 . S
C144 C145 1.387 . S
C144 N147 1.341 . S
C145 C143 1.400 . S
C145 C144 1.387 . S
N146 Co137 2.022 . S
N146 C143 1.351 1_565 S
N146 N147 1.365 1_565 S
N147 C144 1.341 . S
N147 N146 1.365 1_545 S
N147 H167 0.862 . S
C148 C143 1.501 . S
C148 H149 0.961 1_545 S
C148 H150 0.961 . S
C148 H151 0.960 . S
H149 C148 0.961 1_565 S
H150 C148 0.961 . S
H151 C148 0.960 . S
C152 N153 1.342 . S
C152 C156 1.401 . S
C152 C157 1.499 . S
N153 Co136 1.989 . S
N153 C152 1.342 . S
N153 N154 1.388 . S
N154 Co137 1.993 . S
N154 N153 1.388 . S
N154 C155 1.346 . S
C155 N154 1.346 . S
C155 C156 1.396 . S
C155 C165 1.510 . S
C156 C152 1.401 . S
C156 C155 1.396 . S
C157 C152 1.499 . S
C157 H158 0.959 . S
C157 H159 0.960 . S
C157 H160 0.961 . S
H158 C157 0.959 . S
H159 C157 0.960 . S
H160 C157 0.961 . S
O161 Co136 1.967 . S
O161 C169 1.258 . S
O162 Co137 1.941 . S
O162 C169 1.266 . S
H163 C165 0.959 . S
H164 C165 0.961 . S
C165 C155 1.510 . S
C165 H163 0.959 . S
C165 H164 0.961 . S
C165 H166 0.960 . S
H166 C165 0.960 . S
H167 N147 0.862 . S
O168 Co136 1.920 . S
O168 C141 1.289 . S
C169 O161 1.258 . S
C169 O162 1.266 . S
Co170 O173 1.970 . S
Co170 N187 1.989 1_545 S
Co170 O195 1.967 . S
Co170 O202 1.920 . S
Co171 O174 1.966 . S
Co171 N180 2.022 . S
Co171 N188 1.993 . S
Co171 O196 1.941 . S
C172 O173 1.258 . S
C172 O174 1.263 . S
O173 Co170 1.970 . S
O173 C172 1.258 . S
O174 Co171 1.966 . S
O174 C172 1.263 . S
C175 O176 1.235 . S
C175 O202 1.289 1_565 S
O176 C175 1.235 . S
C177 C179 1.400 . S
C177 N180 1.351 . S
C177 C182 1.501 . S
C178 C179 1.387 . S
C178 N181 1.341 . S
C179 C177 1.400 . S
C179 C178 1.387 . S
N180 Co171 2.022 . S
N180 C177 1.351 . S
N180 N181 1.365 . S
N181 C178 1.341 . S
N181 N180 1.365 . S
N181 H201 0.862 . S
C182 C177 1.501 . S
C182 H183 0.961 . S
C182 H184 0.961 1_545 S
C182 H185 0.960 . S
H183 C182 0.961 . S
H184 C182 0.961 1_565 S
H185 C182 0.960 . S
C186 N187 1.342 . S
C186 C190 1.401 . S
C186 C191 1.499 . S
N187 Co170 1.989 1_565 S
N187 C186 1.342 . S
N187 N188 1.388 1_565 S
N188 Co171 1.993 . S
N188 N187 1.388 1_545 S
N188 C189 1.346 1_545 S
C189 N188 1.346 1_565 S
C189 C190 1.396 . S
C189 C199 1.510 . S
C190 C186 1.401 . S
C190 C189 1.396 . S
C191 C186 1.499 . S
C191 H192 0.959 . S
C191 H193 0.960 . S
C191 H194 0.961 . S
H192 C191 0.959 . S
H193 C191 0.960 . S
H194 C191 0.961 . S
O195 Co170 1.967 . S
O195 C203 1.258 . S
O196 Co171 1.941 . S
O196 C203 1.266 . S
H197 C199 0.959 . S
H198 C199 0.961 . S
C199 C189 1.510 . S
C199 H197 0.959 . S
C199 H198 0.961 . S
C199 H200 0.960 . S
H200 C199 0.960 . S
H201 N181 0.862 . S
O202 Co170 1.920 . S
O202 C175 1.289 1_545 S
C203 O195 1.258 . S
C203 O196 1.266 . S
Co204 O207 1.970 . S
Co204 N221 1.989 . S
Co204 O229 1.967 . S
Co204 O236 1.920 . S
Co205 O208 1.966 . S
Co205 N214 2.022 . S
Co205 N222 1.993 . S
Co205 O230 1.941 . S
C206 O207 1.258 . S
C206 O208 1.263 . S
O207 Co204 1.970 . S
O207 C206 1.258 . S
O208 Co205 1.966 . S
O208 C206 1.263 . S
C209 O210 1.235 . S
C209 O236 1.289 . S
O210 C209 1.235 . S
C211 C213 1.400 . S
C211 N214 1.351 1_565 S
C211 C216 1.501 . S
C212 C213 1.387 . S
C212 N215 1.341 . S
C213 C211 1.400 . S
C213 C212 1.387 . S
N214 Co205 2.022 . S
N214 C211 1.351 1_545 S
N214 N215 1.365 1_545 S
N215 C212 1.341 . S
N215 N214 1.365 1_565 S
N215 H235 0.862 . S
C216 C211 1.501 . S
C216 H217 0.961 1_565 S
C216 H218 0.961 . S
C216 H219 0.960 . S
H217 C216 0.961 1_545 S
H218 C216 0.961 . S
H219 C216 0.960 . S
C220 N221 1.342 . S
C220 C224 1.401 . S
C220 C225 1.499 . S
N221 Co204 1.989 . S
N221 C220 1.342 . S
N221 N222 1.388 . S
N222 Co205 1.993 . S
N222 N221 1.388 . S
N222 C223 1.346 . S
C223 N222 1.346 . S
C223 C224 1.396 . S
C223 C233 1.510 . S
C224 C220 1.401 . S
C224 C223 1.396 . S
C225 C220 1.499 . S
C225 H226 0.959 . S
C225 H227 0.960 . S
C225 H228 0.961 . S
H226 C225 0.959 . S
H227 C225 0.960 . S
H228 C225 0.961 . S
O229 Co204 1.967 . S
O229 C237 1.258 . S
O230 Co205 1.941 . S
O230 C237 1.266 . S
H231 C233 0.959 . S
H232 C233 0.961 . S
C233 C223 1.510 . S
C233 H231 0.959 . S
C233 H232 0.961 . S
C233 H234 0.960 . S
H234 C233 0.960 . S
H235 N215 0.862 . S
O236 Co204 1.920 . S
O236 C209 1.289 . S
C237 O229 1.258 . S
C237 O230 1.266 . S
Co238 O241 1.970 . S
Co238 N255 1.989 1_665 S
Co238 O263 1.967 . S
Co238 O270 1.920 . S
Co239 O242 1.966 . S
Co239 N248 2.022 . S
Co239 N256 1.993 . S
Co239 O264 1.941 . S
C240 O241 1.258 1_455 S
C240 O242 1.263 . S
O241 Co238 1.970 . S
O241 C240 1.258 1_655 S
O242 Co239 1.966 . S
O242 C240 1.263 . S
C243 O244 1.235 . S
C243 O270 1.289 1_545 S
O244 C243 1.235 . S
C245 C247 1.400 . S
C245 N248 1.351 . S
C245 C250 1.501 . S
C246 C247 1.387 . S
C246 N249 1.341 . S
C247 C245 1.400 . S
C247 C246 1.387 . S
N248 Co239 2.022 . S
N248 C245 1.351 . S
N248 N249 1.365 . S
N249 C246 1.341 . S
N249 N248 1.365 . S
N249 H269 0.862 . S
C250 C245 1.501 . S
C250 H251 0.961 . S
C250 H252 0.961 1_565 S
C250 H253 0.960 . S
H251 C250 0.961 . S
H252 C250 0.961 1_545 S
H253 C250 0.960 . S
C254 N255 1.342 . S
C254 C258 1.401 . S
C254 C259 1.499 1_455 S
N255 Co238 1.989 1_445 S
N255 C254 1.342 . S
N255 N256 1.388 1_545 S
N256 Co239 1.993 . S
N256 N255 1.388 1_565 S
N256 C257 1.346 1_565 S
C257 N256 1.346 1_545 S
C257 C258 1.396 . S
C257 C267 1.510 . S
C258 C254 1.401 . S
C258 C257 1.396 . S
C259 C254 1.499 1_655 S
C259 H260 0.959 . S
C259 H261 0.960 . S
C259 H262 0.961 . S
H260 C259 0.959 . S
H261 C259 0.960 . S
H262 C259 0.961 . S
O263 Co238 1.967 . S
O263 C271 1.258 1_655 S
O264 Co239 1.941 . S
O264 C271 1.266 . S
H265 C267 0.959 . S
H266 C267 0.961 . S
C267 C257 1.510 . S
C267 H265 0.959 . S
C267 H266 0.961 . S
C267 H268 0.960 . S
H268 C267 0.960 . S
H269 N249 0.862 . S
O270 Co238 1.920 . S
O270 C243 1.289 1_565 S
C271 O263 1.258 1_455 S
C271 O264 1.266 . S
Co272 O275 1.970 . S
Co272 N289 1.989 . S
Co272 O297 1.967 . S
Co272 O304 1.920 . S
Co273 O276 1.966 . S
Co273 N282 2.022 . S
Co273 N290 1.993 . S
Co273 O298 1.941 . S
C274 O275 1.258 . S
C274 O276 1.263 . S
O275 Co272 1.970 . S
O275 C274 1.258 . S
O276 Co273 1.966 . S
O276 C274 1.263 . S
C277 O278 1.235 . S
C277 O304 1.289 . S
O278 C277 1.235 . S
C279 C281 1.400 . S
C279 N282 1.351 1_545 S
C279 C284 1.501 . S
C280 C281 1.387 . S
C280 N283 1.341 . S
C281 C279 1.400 . S
C281 C280 1.387 . S
N282 Co273 2.022 . S
N282 C279 1.351 1_565 S
N282 N283 1.365 1_565 S
N283 C280 1.341 . S
N283 N282 1.365 1_545 S
N283 H303 0.862 . S
C284 C279 1.501 . S
C284 H285 0.961 1_545 S
C284 H286 0.961 . S
C284 H287 0.960 . S
H285 C284 0.961 1_565 S
H286 C284 0.961 . S
H287 C284 0.960 . S
C288 N289 1.342 . S
C288 C292 1.401 . S
C288 C293 1.499 . S
N289 Co272 1.989 . S
N289 C288 1.342 . S
N289 N290 1.388 . S
N290 Co273 1.993 . S
N290 N289 1.388 . S
N290 C291 1.346 . S
C291 N290 1.346 . S
C291 C292 1.396 . S
C291 C301 1.510 . S
C292 C288 1.401 . S
C292 C291 1.396 . S
C293 C288 1.499 . S
C293 H294 0.959 . S
C293 H295 0.960 . S
C293 H296 0.961 . S
H294 C293 0.959 . S
H295 C293 0.960 . S
H296 C293 0.961 . S
O297 Co272 1.967 . S
O297 C305 1.258 . S
O298 Co273 1.941 . S
O298 C305 1.266 . S
H299 C301 0.959 . S
H300 C301 0.961 . S
C301 C291 1.510 . S
C301 H299 0.959 . S
C301 H300 0.961 . S
C301 H302 0.960 . S
H302 C301 0.960 . S
H303 N283 0.862 . S
O304 Co272 1.920 . S
O304 C277 1.289 . S
C305 O297 1.258 . S
C305 O298 1.266 . S
Co306 O309 1.970 . S
Co306 N323 1.989 1_465 S
Co306 O331 1.967 . S
Co306 O338 1.920 . S
Co307 O310 1.966 . S
Co307 N316 2.022 . S
Co307 N324 1.993 . S
Co307 O332 1.941 . S
C308 O309 1.258 1_655 S
C308 O310 1.263 . S
O309 Co306 1.970 . S
O309 C308 1.258 1_455 S
O310 Co307 1.966 . S
O310 C308 1.263 . S
C311 O312 1.235 . S
C311 O338 1.289 1_545 S
O312 C311 1.235 . S
C313 C315 1.400 . S
C313 N316 1.351 . S
C313 C318 1.501 . S
C314 C315 1.387 . S
C314 N317 1.341 . S
C315 C313 1.400 . S
C315 C314 1.387 . S
N316 Co307 2.022 . S
N316 C313 1.351 . S
N316 N317 1.365 . S
N317 C314 1.341 . S
N317 N316 1.365 . S
N317 H337 0.862 . S
C318 C313 1.501 . S
C318 H319 0.961 . S
C318 H320 0.961 1_565 S
C318 H321 0.960 . S
H319 C318 0.961 . S
H320 C318 0.961 1_545 S
H321 C318 0.960 . S
C322 N323 1.342 . S
C322 C326 1.401 . S
C322 C327 1.499 1_655 S
N323 Co306 1.989 1_645 S
N323 C322 1.342 . S
N323 N324 1.388 1_545 S
N324 Co307 1.993 . S
N324 N323 1.388 1_565 S
N324 C325 1.346 1_565 S
C325 N324 1.346 1_545 S
C325 C326 1.396 . S
C325 C335 1.510 . S
C326 C322 1.401 . S
C326 C325 1.396 . S
C327 C322 1.499 1_455 S
C327 H328 0.959 . S
C327 H329 0.960 . S
C327 H330 0.961 . S
H328 C327 0.959 . S
H329 C327 0.960 . S
H330 C327 0.961 . S
O331 Co306 1.967 . S
O331 C339 1.258 1_455 S
O332 Co307 1.941 . S
O332 C339 1.266 . S
H333 C335 0.959 . S
H334 C335 0.961 . S
C335 C325 1.510 . S
C335 H333 0.959 . S
C335 H334 0.961 . S
C335 H336 0.960 . S
H336 C335 0.960 . S
H337 N317 0.862 . S
O338 Co306 1.920 . S
O338 C311 1.289 1_565 S
C339 O331 1.258 1_655 S
C339 O332 1.266 . S
Co340 O343 1.970 . S
Co340 N357 1.989 . S
Co340 O365 1.967 . S
Co340 O372 1.920 . S
Co341 O344 1.966 . S
Co341 N350 2.022 . S
Co341 N358 1.993 . S
Co341 O366 1.941 . S
C342 O343 1.258 . S
C342 O344 1.263 . S
O343 Co340 1.970 . S
O343 C342 1.258 . S
O344 Co341 1.966 . S
O344 C342 1.263 . S
C345 O346 1.235 . S
C345 O372 1.289 . S
O346 C345 1.235 . S
C347 C349 1.400 . S
C347 N350 1.351 1_565 S
C347 C352 1.501 . S
C348 C349 1.387 . S
C348 N351 1.341 . S
C349 C347 1.400 . S
C349 C348 1.387 . S
N350 Co341 2.022 . S
N350 C347 1.351 1_545 S
N350 N351 1.365 1_545 S
N351 C348 1.341 . S
N351 N350 1.365 1_565 S
N351 H371 0.862 . S
C352 C347 1.501 . S
C352 H353 0.961 1_565 S
C352 H354 0.961 . S
C352 H355 0.960 . S
H353 C352 0.961 1_545 S
H354 C352 0.961 . S
H355 C352 0.960 . S
C356 N357 1.342 . S
C356 C360 1.401 . S
C356 C361 1.499 . S
N357 Co340 1.989 . S
N357 C356 1.342 . S
N357 N358 1.388 . S
N358 Co341 1.993 . S
N358 N357 1.388 . S
N358 C359 1.346 . S
C359 N358 1.346 . S
C359 C360 1.396 . S
C359 C369 1.510 . S
C360 C356 1.401 . S
C360 C359 1.396 . S
C361 C356 1.499 . S
C361 H362 0.959 . S
C361 H363 0.960 . S
C361 H364 0.961 . S
H362 C361 0.959 . S
H363 C361 0.960 . S
H364 C361 0.961 . S
O365 Co340 1.967 . S
O365 C373 1.258 . S
O366 Co341 1.941 . S
O366 C373 1.266 . S
H367 C369 0.959 . S
H368 C369 0.961 . S
C369 C359 1.510 . S
C369 H367 0.959 . S
C369 H368 0.961 . S
C369 H370 0.960 . S
H370 C369 0.960 . S
H371 N351 0.862 . S
O372 Co340 1.920 . S
O372 C345 1.289 . S
C373 O365 1.258 . S
C373 O366 1.266 . S
Co374 O377 1.970 . S
Co374 N391 1.989 1_545 S
Co374 O399 1.967 . S
Co374 O406 1.920 . S
Co375 O378 1.966 . S
Co375 N384 2.022 . S
Co375 N392 1.993 . S
Co375 O400 1.941 . S
C376 O377 1.258 . S
C376 O378 1.263 . S
O377 Co374 1.970 . S
O377 C376 1.258 . S
O378 Co375 1.966 . S
O378 C376 1.263 . S
C379 O380 1.235 . S
C379 O406 1.289 1_565 S
O380 C379 1.235 . S
C381 C383 1.400 . S
C381 N384 1.351 . S
C381 C386 1.501 . S
C382 C383 1.387 . S
C382 N385 1.341 . S
C383 C381 1.400 . S
C383 C382 1.387 . S
N384 Co375 2.022 . S
N384 C381 1.351 . S
N384 N385 1.365 . S
N385 C382 1.341 . S
N385 N384 1.365 . S
N385 H405 0.862 . S
C386 C381 1.501 . S
C386 H387 0.961 . S
C386 H388 0.961 1_545 S
C386 H389 0.960 . S
H387 C386 0.961 . S
H388 C386 0.961 1_565 S
H389 C386 0.960 . S
C390 N391 1.342 . S
C390 C394 1.401 . S
C390 C395 1.499 . S
N391 Co374 1.989 1_565 S
N391 C390 1.342 . S
N391 N392 1.388 1_565 S
N392 Co375 1.993 . S
N392 N391 1.388 1_545 S
N392 C393 1.346 1_545 S
C393 N392 1.346 1_565 S
C393 C394 1.396 . S
C393 C403 1.510 . S
C394 C390 1.401 . S
C394 C393 1.396 . S
C395 C390 1.499 . S
C395 H396 0.959 . S
C395 H397 0.960 . S
C395 H398 0.961 . S
H396 C395 0.959 . S
H397 C395 0.960 . S
H398 C395 0.961 . S
O399 Co374 1.967 . S
O399 C407 1.258 . S
O400 Co375 1.941 . S
O400 C407 1.266 . S
H401 C403 0.959 . S
H402 C403 0.961 . S
C403 C393 1.510 . S
C403 H401 0.959 . S
C403 H402 0.961 . S
C403 H404 0.960 . S
H404 C403 0.960 . S
H405 N385 0.862 . S
O406 Co374 1.920 . S
O406 C379 1.289 1_545 S
C407 O399 1.258 . S
C407 O400 1.266 . S
Co408 O411 1.970 . S
Co408 N425 1.989 . S
Co408 O433 1.967 . S
Co408 O440 1.920 . S
Co409 O412 1.966 . S
Co409 N418 2.022 . S
Co409 N426 1.993 . S
Co409 O434 1.941 . S
C410 O411 1.258 . S
C410 O412 1.263 . S
O411 Co408 1.970 . S
O411 C410 1.258 . S
O412 Co409 1.966 . S
O412 C410 1.263 . S
C413 O414 1.235 . S
C413 O440 1.289 . S
O414 C413 1.235 . S
C415 C417 1.400 . S
C415 N418 1.351 1_565 S
C415 C420 1.501 . S
C416 C417 1.387 . S
C416 N419 1.341 . S
C417 C415 1.400 . S
C417 C416 1.387 . S
N418 Co409 2.022 . S
N418 C415 1.351 1_545 S
N418 N419 1.365 1_545 S
N419 C416 1.341 . S
N419 N418 1.365 1_565 S
N419 H439 0.862 . S
C420 C415 1.501 . S
C420 H421 0.961 1_565 S
C420 H422 0.961 . S
C420 H423 0.960 . S
H421 C420 0.961 1_545 S
H422 C420 0.961 . S
H423 C420 0.960 . S
C424 N425 1.342 . S
C424 C428 1.401 . S
C424 C429 1.499 . S
N425 Co408 1.989 . S
N425 C424 1.342 . S
N425 N426 1.388 . S
N426 Co409 1.993 . S
N426 N425 1.388 . S
N426 C427 1.346 . S
C427 N426 1.346 . S
C427 C428 1.396 . S
C427 C437 1.510 . S
C428 C424 1.401 . S
C428 C427 1.396 . S
C429 C424 1.499 . S
C429 H430 0.959 . S
C429 H431 0.960 . S
C429 H432 0.961 . S
H430 C429 0.959 . S
H431 C429 0.960 . S
H432 C429 0.961 . S
O433 Co408 1.967 . S
O433 C441 1.258 . S
O434 Co409 1.941 . S
O434 C441 1.266 . S
H435 C437 0.959 . S
H436 C437 0.961 . S
C437 C427 1.510 . S
C437 H435 0.959 . S
C437 H436 0.961 . S
C437 H438 0.960 . S
H438 C437 0.960 . S
H439 N419 0.862 . S
O440 Co408 1.920 . S
O440 C413 1.289 . S
C441 O433 1.258 . S
C441 O434 1.266 . S
Co442 O445 1.970 . S
Co442 N459 1.989 1_565 S
Co442 O467 1.967 . S
Co442 O474 1.920 . S
Co443 O446 1.966 . S
Co443 N452 2.022 . S
Co443 N460 1.993 . S
Co443 O468 1.941 . S
C444 O445 1.258 . S
C444 O446 1.263 . S
O445 Co442 1.970 . S
O445 C444 1.258 . S
O446 Co443 1.966 . S
O446 C444 1.263 . S
C447 O448 1.235 . S
C447 O474 1.289 1_545 S
O448 C447 1.235 . S
C449 C451 1.400 . S
C449 N452 1.351 . S
C449 C454 1.501 . S
C450 C451 1.387 . S
C450 N453 1.341 . S
C451 C449 1.400 . S
C451 C450 1.387 . S
N452 Co443 2.022 . S
N452 C449 1.351 . S
N452 N453 1.365 . S
N453 C450 1.341 . S
N453 N452 1.365 . S
N453 H473 0.862 . S
C454 C449 1.501 . S
C454 H455 0.961 . S
C454 H456 0.961 1_565 S
C454 H457 0.960 . S
H455 C454 0.961 . S
H456 C454 0.961 1_545 S
H457 C454 0.960 . S
C458 N459 1.342 . S
C458 C462 1.401 . S
C458 C463 1.499 . S
N459 Co442 1.989 1_545 S
N459 C458 1.342 . S
N459 N460 1.388 1_545 S
N460 Co443 1.993 . S
N460 N459 1.388 1_565 S
N460 C461 1.346 1_565 S
C461 N460 1.346 1_545 S
C461 C462 1.396 . S
C461 C471 1.510 . S
C462 C458 1.401 . S
C462 C461 1.396 . S
C463 C458 1.499 . S
C463 H464 0.959 . S
C463 H465 0.960 . S
C463 H466 0.961 . S
H464 C463 0.959 . S
H465 C463 0.960 . S
H466 C463 0.961 . S
O467 Co442 1.967 . S
O467 C475 1.258 . S
O468 Co443 1.941 . S
O468 C475 1.266 . S
H469 C471 0.959 . S
H470 C471 0.961 . S
C471 C461 1.510 . S
C471 H469 0.959 . S
C471 H470 0.961 . S
C471 H472 0.960 . S
H472 C471 0.960 . S
H473 N453 0.862 . S
O474 Co442 1.920 . S
O474 C447 1.289 1_565 S
C475 O467 1.258 . S
C475 O468 1.266 . S
Co476 O479 1.970 . S
Co476 N493 1.989 . S
Co476 O501 1.967 . S
Co476 O508 1.920 . S
Co477 O480 1.966 . S
Co477 N486 2.022 . S
Co477 N494 1.993 . S
Co477 O502 1.941 . S
C478 O479 1.258 . S
C478 O480 1.263 . S
O479 Co476 1.970 . S
O479 C478 1.258 . S
O480 Co477 1.966 . S
O480 C478 1.263 . S
C481 O482 1.235 . S
C481 O508 1.289 . S
O482 C481 1.235 . S
C483 C485 1.400 . S
C483 N486 1.351 1_545 S
C483 C488 1.501 . S
C484 C485 1.387 . S
C484 N487 1.341 . S
C485 C483 1.400 . S
C485 C484 1.387 . S
N486 Co477 2.022 . S
N486 C483 1.351 1_565 S
N486 N487 1.365 1_565 S
N487 C484 1.341 . S
N487 N486 1.365 1_545 S
N487 H507 0.862 . S
C488 C483 1.501 . S
C488 H489 0.961 1_545 S
C488 H490 0.961 . S
C488 H491 0.960 . S
H489 C488 0.961 1_565 S
H490 C488 0.961 . S
H491 C488 0.960 . S
C492 N493 1.342 . S
C492 C496 1.401 . S
C492 C497 1.499 . S
N493 Co476 1.989 . S
N493 C492 1.342 . S
N493 N494 1.388 . S
N494 Co477 1.993 . S
N494 N493 1.388 . S
N494 C495 1.346 . S
C495 N494 1.346 . S
C495 C496 1.396 . S
C495 C505 1.510 . S
C496 C492 1.401 . S
C496 C495 1.396 . S
C497 C492 1.499 . S
C497 H498 0.959 . S
C497 H499 0.960 . S
C497 H500 0.961 . S
H498 C497 0.959 . S
H499 C497 0.960 . S
H500 C497 0.961 . S
O501 Co476 1.967 . S
O501 C509 1.258 . S
O502 Co477 1.941 . S
O502 C509 1.266 . S
H503 C505 0.959 . S
H504 C505 0.961 . S
C505 C495 1.510 . S
C505 H503 0.959 . S
C505 H504 0.961 . S
C505 H506 0.960 . S
H506 C505 0.960 . S
H507 N487 0.862 . S
O508 Co476 1.920 . S
O508 C481 1.289 . S
C509 O501 1.258 . S
C509 O502 1.266 . S
Co510 O513 1.970 . S
Co510 N527 1.989 1_445 S
Co510 O535 1.967 . S
Co510 O542 1.920 . S
Co511 O514 1.966 . S
Co511 N520 2.022 . S
Co511 N528 1.993 . S
Co511 O536 1.941 . S
C512 O513 1.258 1_655 S
C512 O514 1.263 . S
O513 Co510 1.970 . S
O513 C512 1.258 1_455 S
O514 Co511 1.966 . S
O514 C512 1.263 . S
C515 O516 1.235 . S
C515 O542 1.289 1_565 S
O516 C515 1.235 . S
C517 C519 1.400 . S
C517 N520 1.351 . S
C517 C522 1.501 . S
C518 C519 1.387 . S
C518 N521 1.341 . S
C519 C517 1.400 . S
C519 C518 1.387 . S
N520 Co511 2.022 . S
N520 C517 1.351 . S
N520 N521 1.365 . S
N521 C518 1.341 . S
N521 N520 1.365 . S
N521 H541 0.862 . S
C522 C517 1.501 . S
C522 H523 0.961 . S
C522 H524 0.961 1_545 S
C522 H525 0.960 . S
H523 C522 0.961 . S
H524 C522 0.961 1_565 S
H525 C522 0.960 . S
C526 N527 1.342 . S
C526 C530 1.401 . S
C526 C531 1.499 1_655 S
N527 Co510 1.989 1_665 S
N527 C526 1.342 . S
N527 N528 1.388 1_565 S
N528 Co511 1.993 . S
N528 N527 1.388 1_545 S
N528 C529 1.346 1_545 S
C529 N528 1.346 1_565 S
C529 C530 1.396 . S
C529 C539 1.510 . S
C530 C526 1.401 . S
C530 C529 1.396 . S
C531 C526 1.499 1_455 S
C531 H532 0.959 . S
C531 H533 0.960 . S
C531 H534 0.961 . S
H532 C531 0.959 . S
H533 C531 0.960 . S
H534 C531 0.961 . S
O535 Co510 1.967 . S
O535 C543 1.258 1_455 S
O536 Co511 1.941 . S
O536 C543 1.266 . S
H537 C539 0.959 . S
H538 C539 0.961 . S
C539 C529 1.510 . S
C539 H537 0.959 . S
C539 H538 0.961 . S
C539 H540 0.960 . S
H540 C539 0.960 . S
H541 N521 0.862 . S
O542 Co510 1.920 . S
O542 C515 1.289 1_545 S
C543 O535 1.258 1_655 S
C543 O536 1.266 . S
Co544 O547 1.970 . S
Co544 N561 1.989 . S
Co544 O569 1.967 . S
Co544 O576 1.920 . S
Co545 O548 1.966 . S
Co545 N554 2.022 . S
Co545 N562 1.993 . S
Co545 O570 1.941 . S
C546 O547 1.258 . S
C546 O548 1.263 . S
O547 Co544 1.970 . S
O547 C546 1.258 . S
O548 Co545 1.966 . S
O548 C546 1.263 . S
C549 O550 1.235 . S
C549 O576 1.289 . S
O550 C549 1.235 . S
C551 C553 1.400 . S
C551 N554 1.351 . S
C551 C556 1.501 . S
C552 C553 1.387 . S
C552 N555 1.341 . S
C553 C551 1.400 . S
C553 C552 1.387 . S
N554 Co545 2.022 . S
N554 C551 1.351 . S
N554 N555 1.365 . S
N555 C552 1.341 . S
N555 N554 1.365 . S
N555 H575 0.862 . S
C556 C551 1.501 . S
C556 H557 0.961 . S
C556 H558 0.961 . S
C556 H559 0.960 . S
H557 C556 0.961 . S
H558 C556 0.961 . S
H559 C556 0.960 . S
C560 N561 1.342 . S
C560 C564 1.401 . S
C560 C565 1.499 . S
N561 Co544 1.989 . S
N561 C560 1.342 . S
N561 N562 1.388 . S
N562 Co545 1.993 . S
N562 N561 1.388 . S
N562 C563 1.346 . S
C563 N562 1.346 . S
C563 C564 1.396 . S
C563 C573 1.510 . S
C564 C560 1.401 . S
C564 C563 1.396 . S
C565 C560 1.499 . S
C565 H566 0.959 . S
C565 H567 0.960 . S
C565 H568 0.961 . S
H566 C565 0.959 . S
H567 C565 0.960 . S
H568 C565 0.961 . S
O569 Co544 1.967 . S
O569 C577 1.258 . S
O570 Co545 1.941 . S
O570 C577 1.266 . S
H571 C573 0.959 . S
H572 C573 0.961 . S
C573 C563 1.510 . S
C573 H571 0.959 . S
C573 H572 0.961 . S
C573 H574 0.960 . S
H574 C573 0.960 . S
H575 N555 0.862 . S
O576 Co544 1.920 . S
O576 C549 1.289 . S
C577 O569 1.258 . S
C577 O570 1.266 . S
Co578 O581 1.970 . S
Co578 N595 1.989 . S
Co578 O603 1.967 . S
Co578 O610 1.920 . S
Co579 O582 1.966 . S
Co579 N588 2.022 . S
Co579 N596 1.993 . S
Co579 O604 1.941 . S
C580 O581 1.258 . S
C580 O582 1.263 . S
O581 Co578 1.970 . S
O581 C580 1.258 . S
O582 Co579 1.966 . S
O582 C580 1.263 . S
C583 O584 1.235 . S
C583 O610 1.289 . S
O584 C583 1.235 . S
C585 C587 1.400 . S
C585 N588 1.351 . S
C585 C590 1.501 . S
C586 C587 1.387 . S
C586 N589 1.341 . S
C587 C585 1.400 . S
C587 C586 1.387 . S
N588 Co579 2.022 . S
N588 C585 1.351 . S
N588 N589 1.365 . S
N589 C586 1.341 . S
N589 N588 1.365 . S
N589 H609 0.862 . S
C590 C585 1.501 . S
C590 H591 0.961 . S
C590 H592 0.961 . S
C590 H593 0.960 . S
H591 C590 0.961 . S
H592 C590 0.961 . S
H593 C590 0.960 . S
C594 N595 1.342 . S
C594 C598 1.401 . S
C594 C599 1.499 . S
N595 Co578 1.989 . S
N595 C594 1.342 . S
N595 N596 1.388 . S
N596 Co579 1.993 . S
N596 N595 1.388 . S
N596 C597 1.346 . S
C597 N596 1.346 . S
C597 C598 1.396 . S
C597 C607 1.510 . S
C598 C594 1.401 . S
C598 C597 1.396 . S
C599 C594 1.499 . S
C599 H600 0.959 . S
C599 H601 0.960 . S
C599 H602 0.961 . S
H600 C599 0.959 . S
H601 C599 0.960 . S
H602 C599 0.961 . S
O603 Co578 1.967 . S
O603 C611 1.258 . S
O604 Co579 1.941 . S
O604 C611 1.266 . S
H605 C607 0.959 . S
H606 C607 0.961 . S
C607 C597 1.510 . S
C607 H605 0.959 . S
C607 H606 0.961 . S
C607 H608 0.960 . S
H608 C607 0.960 . S
H609 N589 0.862 . S
O610 Co578 1.920 . S
O610 C583 1.289 . S
C611 O603 1.258 . S
C611 O604 1.266 . S
Co612 O615 1.970 . S
Co612 N629 1.989 . S
Co612 O637 1.967 . S
Co612 O644 1.920 . S
Co613 O616 1.966 . S
Co613 N622 2.022 . S
Co613 N630 1.993 . S
Co613 O638 1.941 . S
C614 O615 1.258 . S
C614 O616 1.263 . S
O615 Co612 1.970 . S
O615 C614 1.258 . S
O616 Co613 1.966 . S
O616 C614 1.263 . S
C617 O618 1.235 . S
C617 O644 1.289 . S
O618 C617 1.235 . S
C619 C621 1.400 . S
C619 N622 1.351 . S
C619 C624 1.501 . S
C620 C621 1.387 . S
C620 N623 1.341 . S
C621 C619 1.400 . S
C621 C620 1.387 . S
N622 Co613 2.022 . S
N622 C619 1.351 . S
N622 N623 1.365 . S
N623 C620 1.341 . S
N623 N622 1.365 . S
N623 H643 0.862 . S
C624 C619 1.501 . S
C624 H625 0.961 . S
C624 H626 0.961 . S
C624 H627 0.960 . S
H625 C624 0.961 . S
H626 C624 0.961 . S
H627 C624 0.960 . S
C628 N629 1.342 . S
C628 C632 1.401 . S
C628 C633 1.499 . S
N629 Co612 1.989 . S
N629 C628 1.342 . S
N629 N630 1.388 . S
N630 Co613 1.993 . S
N630 N629 1.388 . S
N630 C631 1.346 . S
C631 N630 1.346 . S
C631 C632 1.396 . S
C631 C641 1.510 . S
C632 C628 1.401 . S
C632 C631 1.396 . S
C633 C628 1.499 . S
C633 H634 0.959 . S
C633 H635 0.960 . S
C633 H636 0.961 . S
H634 C633 0.959 . S
H635 C633 0.960 . S
H636 C633 0.961 . S
O637 Co612 1.967 . S
O637 C645 1.258 . S
O638 Co613 1.941 . S
O638 C645 1.266 . S
H639 C641 0.959 . S
H640 C641 0.961 . S
C641 C631 1.510 . S
C641 H639 0.959 . S
C641 H640 0.961 . S
C641 H642 0.960 . S
H642 C641 0.960 . S
H643 N623 0.862 . S
O644 Co612 1.920 . S
O644 C617 1.289 . S
C645 O637 1.258 . S
C645 O638 1.266 . S
Co646 O649 1.970 . S
Co646 N663 1.989 1_455 S
Co646 O671 1.967 . S
Co646 O678 1.920 . S
Co647 O650 1.966 . S
Co647 N656 2.022 . S
Co647 N664 1.993 . S
Co647 O672 1.941 . S
C648 O649 1.258 1_655 S
C648 O650 1.263 . S
O649 Co646 1.970 . S
O649 C648 1.258 1_455 S
O650 Co647 1.966 . S
O650 C648 1.263 . S
C651 O652 1.235 . S
C651 O678 1.289 . S
O652 C651 1.235 . S
C653 C655 1.400 . S
C653 N656 1.351 . S
C653 C658 1.501 . S
C654 C655 1.387 . S
C654 N657 1.341 . S
C655 C653 1.400 . S
C655 C654 1.387 . S
N656 Co647 2.022 . S
N656 C653 1.351 . S
N656 N657 1.365 . S
N657 C654 1.341 . S
N657 N656 1.365 . S
N657 H677 0.862 . S
C658 C653 1.501 . S
C658 H659 0.961 . S
C658 H660 0.961 . S
C658 H661 0.960 . S
H659 C658 0.961 . S
H660 C658 0.961 . S
H661 C658 0.960 . S
C662 N663 1.342 . S
C662 C666 1.401 . S
C662 C667 1.499 1_655 S
N663 Co646 1.989 1_655 S
N663 C662 1.342 . S
N663 N664 1.388 . S
N664 Co647 1.993 . S
N664 N663 1.388 . S
N664 C665 1.346 . S
C665 N664 1.346 . S
C665 C666 1.396 . S
C665 C675 1.510 . S
C666 C662 1.401 . S
C666 C665 1.396 . S
C667 C662 1.499 1_455 S
C667 H668 0.959 . S
C667 H669 0.960 . S
C667 H670 0.961 . S
H668 C667 0.959 . S
H669 C667 0.960 . S
H670 C667 0.961 . S
O671 Co646 1.967 . S
O671 C679 1.258 1_455 S
O672 Co647 1.941 . S
O672 C679 1.266 . S
H673 C675 0.959 . S
H674 C675 0.961 . S
C675 C665 1.510 . S
C675 H673 0.959 . S
C675 H674 0.961 . S
C675 H676 0.960 . S
H676 C675 0.960 . S
H677 N657 0.862 . S
O678 Co646 1.920 . S
O678 C651 1.289 . S
C679 O671 1.258 1_655 S
C679 O672 1.266 . S
Co680 O683 1.970 . S
Co680 N697 1.989 . S
Co680 O705 1.967 . S
Co680 O712 1.920 . S
Co681 O684 1.966 . S
Co681 N690 2.022 . S
Co681 N698 1.993 . S
Co681 O706 1.941 . S
C682 O683 1.258 . S
C682 O684 1.263 . S
O683 Co680 1.970 . S
O683 C682 1.258 . S
O684 Co681 1.966 . S
O684 C682 1.263 . S
C685 O686 1.235 . S
C685 O712 1.289 . S
O686 C685 1.235 . S
C687 C689 1.400 . S
C687 N690 1.351 . S
C687 C692 1.501 . S
C688 C689 1.387 . S
C688 N691 1.341 . S
C689 C687 1.400 . S
C689 C688 1.387 . S
N690 Co681 2.022 . S
N690 C687 1.351 . S
N690 N691 1.365 . S
N691 C688 1.341 . S
N691 N690 1.365 . S
N691 H711 0.862 . S
C692 C687 1.501 . S
C692 H693 0.961 . S
C692 H694 0.961 . S
C692 H695 0.960 . S
H693 C692 0.961 . S
H694 C692 0.961 . S
H695 C692 0.960 . S
C696 N697 1.342 . S
C696 C700 1.401 . S
C696 C701 1.499 . S
N697 Co680 1.989 . S
N697 C696 1.342 . S
N697 N698 1.388 . S
N698 Co681 1.993 . S
N698 N697 1.388 . S
N698 C699 1.346 . S
C699 N698 1.346 . S
C699 C700 1.396 . S
C699 C709 1.510 . S
C700 C696 1.401 . S
C700 C699 1.396 . S
C701 C696 1.499 . S
C701 H702 0.959 . S
C701 H703 0.960 . S
C701 H704 0.961 . S
H702 C701 0.959 . S
H703 C701 0.960 . S
H704 C701 0.961 . S
O705 Co680 1.967 . S
O705 C713 1.258 . S
O706 Co681 1.941 . S
O706 C713 1.266 . S
H707 C709 0.959 . S
H708 C709 0.961 . S
C709 C699 1.510 . S
C709 H707 0.959 . S
C709 H708 0.961 . S
C709 H710 0.960 . S
H710 C709 0.960 . S
H711 N691 0.862 . S
O712 Co680 1.920 . S
O712 C685 1.289 . S
C713 O705 1.258 . S
C713 O706 1.266 . S
Co714 O717 1.970 . S
Co714 N731 1.989 1_455 S
Co714 O739 1.967 . S
Co714 O746 1.920 . S
Co715 O718 1.966 . S
Co715 N724 2.022 . S
Co715 N732 1.993 . S
Co715 O740 1.941 . S
C716 O717 1.258 1_655 S
C716 O718 1.263 . S
O717 Co714 1.970 . S
O717 C716 1.258 1_455 S
O718 Co715 1.966 . S
O718 C716 1.263 . S
C719 O720 1.235 . S
C719 O746 1.289 . S
O720 C719 1.235 . S
C721 C723 1.400 . S
C721 N724 1.351 . S
C721 C726 1.501 . S
C722 C723 1.387 . S
C722 N725 1.341 . S
C723 C721 1.400 . S
C723 C722 1.387 . S
N724 Co715 2.022 . S
N724 C721 1.351 . S
N724 N725 1.365 . S
N725 C722 1.341 . S
N725 N724 1.365 . S
N725 H745 0.862 . S
C726 C721 1.501 . S
C726 H727 0.961 . S
C726 H728 0.961 . S
C726 H729 0.960 . S
H727 C726 0.961 . S
H728 C726 0.961 . S
H729 C726 0.960 . S
C730 N731 1.342 . S
C730 C734 1.401 . S
C730 C735 1.499 1_655 S
N731 Co714 1.989 1_655 S
N731 C730 1.342 . S
N731 N732 1.388 . S
N732 Co715 1.993 . S
N732 N731 1.388 . S
N732 C733 1.346 . S
C733 N732 1.346 . S
C733 C734 1.396 . S
C733 C743 1.510 . S
C734 C730 1.401 . S
C734 C733 1.396 . S
C735 C730 1.499 1_455 S
C735 H736 0.959 . S
C735 H737 0.960 . S
C735 H738 0.961 . S
H736 C735 0.959 . S
H737 C735 0.960 . S
H738 C735 0.961 . S
O739 Co714 1.967 . S
O739 C747 1.258 1_455 S
O740 Co715 1.941 . S
O740 C747 1.266 . S
H741 C743 0.959 . S
H742 C743 0.961 . S
C743 C733 1.510 . S
C743 H741 0.959 . S
C743 H742 0.961 . S
C743 H744 0.960 . S
H744 C743 0.960 . S
H745 N725 0.862 . S
O746 Co714 1.920 . S
O746 C719 1.289 . S
C747 O739 1.258 1_655 S
C747 O740 1.266 . S
Co748 O751 1.970 . S
Co748 N765 1.989 . S
Co748 O773 1.967 . S
Co748 O780 1.920 . S
Co749 O752 1.966 . S
Co749 N758 2.022 . S
Co749 N766 1.993 . S
Co749 O774 1.941 . S
C750 O751 1.258 . S
C750 O752 1.263 . S
O751 Co748 1.970 . S
O751 C750 1.258 . S
O752 Co749 1.966 . S
O752 C750 1.263 . S
C753 O754 1.235 . S
C753 O780 1.289 . S
O754 C753 1.235 . S
C755 C757 1.400 . S
C755 N758 1.351 . S
C755 C760 1.501 . S
C756 C757 1.387 . S
C756 N759 1.341 . S
C757 C755 1.400 . S
C757 C756 1.387 . S
N758 Co749 2.022 . S
N758 C755 1.351 . S
N758 N759 1.365 . S
N759 C756 1.341 . S
N759 N758 1.365 . S
N759 H779 0.862 . S
C760 C755 1.501 . S
C760 H761 0.961 . S
C760 H762 0.961 . S
C760 H763 0.960 . S
H761 C760 0.961 . S
H762 C760 0.961 . S
H763 C760 0.960 . S
C764 N765 1.342 . S
C764 C768 1.401 . S
C764 C769 1.499 . S
N765 Co748 1.989 . S
N765 C764 1.342 . S
N765 N766 1.388 . S
N766 Co749 1.993 . S
N766 N765 1.388 . S
N766 C767 1.346 . S
C767 N766 1.346 . S
C767 C768 1.396 . S
C767 C777 1.510 . S
C768 C764 1.401 . S
C768 C767 1.396 . S
C769 C764 1.499 . S
C769 H770 0.959 . S
C769 H771 0.960 . S
C769 H772 0.961 . S
H770 C769 0.959 . S
H771 C769 0.960 . S
H772 C769 0.961 . S
O773 Co748 1.967 . S
O773 C781 1.258 . S
O774 Co749 1.941 . S
O774 C781 1.266 . S
H775 C777 0.959 . S
H776 C777 0.961 . S
C777 C767 1.510 . S
C777 H775 0.959 . S
C777 H776 0.961 . S
C777 H778 0.960 . S
H778 C777 0.960 . S
H779 N759 0.862 . S
O780 Co748 1.920 . S
O780 C753 1.289 . S
C781 O773 1.258 . S
C781 O774 1.266 . S
Co782 O785 1.970 . S
Co782 N799 1.989 . S
Co782 O807 1.967 . S
Co782 O814 1.920 . S
Co783 O786 1.966 . S
Co783 N792 2.022 . S
Co783 N800 1.993 . S
Co783 O808 1.941 . S
C784 O785 1.258 . S
C784 O786 1.263 . S
O785 Co782 1.970 . S
O785 C784 1.258 . S
O786 Co783 1.966 . S
O786 C784 1.263 . S
C787 O788 1.235 . S
C787 O814 1.289 . S
O788 C787 1.235 . S
C789 C791 1.400 . S
C789 N792 1.351 . S
C789 C794 1.501 . S
C790 C791 1.387 . S
C790 N793 1.341 . S
C791 C789 1.400 . S
C791 C790 1.387 . S
N792 Co783 2.022 . S
N792 C789 1.351 . S
N792 N793 1.365 . S
N793 C790 1.341 . S
N793 N792 1.365 . S
N793 H813 0.862 . S
C794 C789 1.501 . S
C794 H795 0.961 . S
C794 H796 0.961 . S
C794 H797 0.960 . S
H795 C794 0.961 . S
H796 C794 0.961 . S
H797 C794 0.960 . S
C798 N799 1.342 . S
C798 C802 1.401 . S
C798 C803 1.499 . S
N799 Co782 1.989 . S
N799 C798 1.342 . S
N799 N800 1.388 . S
N800 Co783 1.993 . S
N800 N799 1.388 . S
N800 C801 1.346 . S
C801 N800 1.346 . S
C801 C802 1.396 . S
C801 C811 1.510 . S
C802 C798 1.401 . S
C802 C801 1.396 . S
C803 C798 1.499 . S
C803 H804 0.959 . S
C803 H805 0.960 . S
C803 H806 0.961 . S
H804 C803 0.959 . S
H805 C803 0.960 . S
H806 C803 0.961 . S
O807 Co782 1.967 . S
O807 C815 1.258 . S
O808 Co783 1.941 . S
O808 C815 1.266 . S
H809 C811 0.959 . S
H810 C811 0.961 . S
C811 C801 1.510 . S
C811 H809 0.959 . S
C811 H810 0.961 . S
C811 H812 0.960 . S
H812 C811 0.960 . S
H813 N793 0.862 . S
O814 Co782 1.920 . S
O814 C787 1.289 . S
C815 O807 1.258 . S
C815 O808 1.266 . S
Co816 O819 1.970 . S
Co816 N833 1.989 . S
Co816 O841 1.967 . S
Co816 O848 1.920 . S
Co817 O820 1.966 . S
Co817 N826 2.022 . S
Co817 N834 1.993 . S
Co817 O842 1.941 . S
C818 O819 1.258 . S
C818 O820 1.263 . S
O819 Co816 1.970 . S
O819 C818 1.258 . S
O820 Co817 1.966 . S
O820 C818 1.263 . S
C821 O822 1.235 . S
C821 O848 1.289 . S
O822 C821 1.235 . S
C823 C825 1.400 . S
C823 N826 1.351 . S
C823 C828 1.501 . S
C824 C825 1.387 . S
C824 N827 1.341 . S
C825 C823 1.400 . S
C825 C824 1.387 . S
N826 Co817 2.022 . S
N826 C823 1.351 . S
N826 N827 1.365 . S
N827 C824 1.341 . S
N827 N826 1.365 . S
N827 H847 0.862 . S
C828 C823 1.501 . S
C828 H829 0.961 . S
C828 H830 0.961 . S
C828 H831 0.960 . S
H829 C828 0.961 . S
H830 C828 0.961 . S
H831 C828 0.960 . S
C832 N833 1.342 . S
C832 C836 1.401 . S
C832 C837 1.499 . S
N833 Co816 1.989 . S
N833 C832 1.342 . S
N833 N834 1.388 . S
N834 Co817 1.993 . S
N834 N833 1.388 . S
N834 C835 1.346 . S
C835 N834 1.346 . S
C835 C836 1.396 . S
C835 C845 1.510 . S
C836 C832 1.401 . S
C836 C835 1.396 . S
C837 C832 1.499 . S
C837 H838 0.959 . S
C837 H839 0.960 . S
C837 H840 0.961 . S
H838 C837 0.959 . S
H839 C837 0.960 . S
H840 C837 0.961 . S
O841 Co816 1.967 . S
O841 C849 1.258 . S
O842 Co817 1.941 . S
O842 C849 1.266 . S
H843 C845 0.959 . S
H844 C845 0.961 . S
C845 C835 1.510 . S
C845 H843 0.959 . S
C845 H844 0.961 . S
C845 H846 0.960 . S
H846 C845 0.960 . S
H847 N827 0.862 . S
O848 Co816 1.920 . S
O848 C821 1.289 . S
C849 O841 1.258 . S
C849 O842 1.266 . S
Co850 O853 1.970 . S
Co850 N867 1.989 . S
Co850 O875 1.967 . S
Co850 O882 1.920 . S
Co851 O854 1.966 . S
Co851 N860 2.022 . S
Co851 N868 1.993 . S
Co851 O876 1.941 . S
C852 O853 1.258 . S
C852 O854 1.263 . S
O853 Co850 1.970 . S
O853 C852 1.258 . S
O854 Co851 1.966 . S
O854 C852 1.263 . S
C855 O856 1.235 . S
C855 O882 1.289 . S
O856 C855 1.235 . S
C857 C859 1.400 . S
C857 N860 1.351 . S
C857 C862 1.501 . S
C858 C859 1.387 . S
C858 N861 1.341 . S
C859 C857 1.400 . S
C859 C858 1.387 . S
N860 Co851 2.022 . S
N860 C857 1.351 . S
N860 N861 1.365 . S
N861 C858 1.341 . S
N861 N860 1.365 . S
N861 H881 0.862 . S
C862 C857 1.501 . S
C862 H863 0.961 . S
C862 H864 0.961 . S
C862 H865 0.960 . S
H863 C862 0.961 . S
H864 C862 0.961 . S
H865 C862 0.960 . S
C866 N867 1.342 . S
C866 C870 1.401 . S
C866 C871 1.499 . S
N867 Co850 1.989 . S
N867 C866 1.342 . S
N867 N868 1.388 . S
N868 Co851 1.993 . S
N868 N867 1.388 . S
N868 C869 1.346 . S
C869 N868 1.346 . S
C869 C870 1.396 . S
C869 C879 1.510 . S
C870 C866 1.401 . S
C870 C869 1.396 . S
C871 C866 1.499 . S
C871 H872 0.959 . S
C871 H873 0.960 . S
C871 H874 0.961 . S
H872 C871 0.959 . S
H873 C871 0.960 . S
H874 C871 0.961 . S
O875 Co850 1.967 . S
O875 C883 1.258 . S
O876 Co851 1.941 . S
O876 C883 1.266 . S
H877 C879 0.959 . S
H878 C879 0.961 . S
C879 C869 1.510 . S
C879 H877 0.959 . S
C879 H878 0.961 . S
C879 H880 0.960 . S
H880 C879 0.960 . S
H881 N861 0.862 . S
O882 Co850 1.920 . S
O882 C855 1.289 . S
C883 O875 1.258 . S
C883 O876 1.266 . S
Co884 O887 1.970 . S
Co884 N901 1.989 . S
Co884 O909 1.967 . S
Co884 O916 1.920 . S
Co885 O888 1.966 . S
Co885 N894 2.022 . S
Co885 N902 1.993 . S
Co885 O910 1.941 . S
C886 O887 1.258 . S
C886 O888 1.263 . S
O887 Co884 1.970 . S
O887 C886 1.258 . S
O888 Co885 1.966 . S
O888 C886 1.263 . S
C889 O890 1.235 . S
C889 O916 1.289 . S
O890 C889 1.235 . S
C891 C893 1.400 . S
C891 N894 1.351 . S
C891 C896 1.501 . S
C892 C893 1.387 . S
C892 N895 1.341 . S
C893 C891 1.400 . S
C893 C892 1.387 . S
N894 Co885 2.022 . S
N894 C891 1.351 . S
N894 N895 1.365 . S
N895 C892 1.341 . S
N895 N894 1.365 . S
N895 H915 0.862 . S
C896 C891 1.501 . S
C896 H897 0.961 . S
C896 H898 0.961 . S
C896 H899 0.960 . S
H897 C896 0.961 . S
H898 C896 0.961 . S
H899 C896 0.960 . S
C900 N901 1.342 . S
C900 C904 1.401 . S
C900 C905 1.499 . S
N901 Co884 1.989 . S
N901 C900 1.342 . S
N901 N902 1.388 . S
N902 Co885 1.993 . S
N902 N901 1.388 . S
N902 C903 1.346 . S
C903 N902 1.346 . S
C903 C904 1.396 . S
C903 C913 1.510 . S
C904 C900 1.401 . S
C904 C903 1.396 . S
C905 C900 1.499 . S
C905 H906 0.959 . S
C905 H907 0.960 . S
C905 H908 0.961 . S
H906 C905 0.959 . S
H907 C905 0.960 . S
H908 C905 0.961 . S
O909 Co884 1.967 . S
O909 C917 1.258 . S
O910 Co885 1.941 . S
O910 C917 1.266 . S
H911 C913 0.959 . S
H912 C913 0.961 . S
C913 C903 1.510 . S
C913 H911 0.959 . S
C913 H912 0.961 . S
C913 H914 0.960 . S
H914 C913 0.960 . S
H915 N895 0.862 . S
O916 Co884 1.920 . S
O916 C889 1.289 . S
C917 O909 1.258 . S
C917 O910 1.266 . S
Co918 O921 1.970 . S
Co918 N935 1.989 1_655 S
Co918 O943 1.967 . S
Co918 O950 1.920 . S
Co919 O922 1.966 . S
Co919 N928 2.022 . S
Co919 N936 1.993 . S
Co919 O944 1.941 . S
C920 O921 1.258 1_455 S
C920 O922 1.263 . S
O921 Co918 1.970 . S
O921 C920 1.258 1_655 S
O922 Co919 1.966 . S
O922 C920 1.263 . S
C923 O924 1.235 . S
C923 O950 1.289 . S
O924 C923 1.235 . S
C925 C927 1.400 . S
C925 N928 1.351 . S
C925 C930 1.501 . S
C926 C927 1.387 . S
C926 N929 1.341 . S
C927 C925 1.400 . S
C927 C926 1.387 . S
N928 Co919 2.022 . S
N928 C925 1.351 . S
N928 N929 1.365 . S
N929 C926 1.341 . S
N929 N928 1.365 . S
N929 H949 0.862 . S
C930 C925 1.501 . S
C930 H931 0.961 . S
C930 H932 0.961 . S
C930 H933 0.960 . S
H931 C930 0.961 . S
H932 C930 0.961 . S
H933 C930 0.960 . S
C934 N935 1.342 . S
C934 C938 1.401 . S
C934 C939 1.499 1_455 S
N935 Co918 1.989 1_455 S
N935 C934 1.342 . S
N935 N936 1.388 . S
N936 Co919 1.993 . S
N936 N935 1.388 . S
N936 C937 1.346 . S
C937 N936 1.346 . S
C937 C938 1.396 . S
C937 C947 1.510 . S
C938 C934 1.401 . S
C938 C937 1.396 . S
C939 C934 1.499 1_655 S
C939 H940 0.959 . S
C939 H941 0.960 . S
C939 H942 0.961 . S
H940 C939 0.959 . S
H941 C939 0.960 . S
H942 C939 0.961 . S
O943 Co918 1.967 . S
O943 C951 1.258 1_655 S
O944 Co919 1.941 . S
O944 C951 1.266 . S
H945 C947 0.959 . S
H946 C947 0.961 . S
C947 C937 1.510 . S
C947 H945 0.959 . S
C947 H946 0.961 . S
C947 H948 0.960 . S
H948 C947 0.960 . S
H949 N929 0.862 . S
O950 Co918 1.920 . S
O950 C923 1.289 . S
C951 O943 1.258 1_455 S
C951 O944 1.266 . S
Co952 O955 1.970 . S
Co952 N969 1.989 . S
Co952 O977 1.967 . S
Co952 O984 1.920 . S
Co953 O956 1.966 . S
Co953 N962 2.022 . S
Co953 N970 1.993 . S
Co953 O978 1.941 . S
C954 O955 1.258 . S
C954 O956 1.263 . S
O955 Co952 1.970 . S
O955 C954 1.258 . S
O956 Co953 1.966 . S
O956 C954 1.263 . S
C957 O958 1.235 . S
C957 O984 1.289 . S
O958 C957 1.235 . S
C959 C961 1.400 . S
C959 N962 1.351 . S
C959 C964 1.501 . S
C960 C961 1.387 . S
C960 N963 1.341 . S
C961 C959 1.400 . S
C961 C960 1.387 . S
N962 Co953 2.022 . S
N962 C959 1.351 . S
N962 N963 1.365 . S
N963 C960 1.341 . S
N963 N962 1.365 . S
N963 H983 0.862 . S
C964 C959 1.501 . S
C964 H965 0.961 . S
C964 H966 0.961 . S
C964 H967 0.960 . S
H965 C964 0.961 . S
H966 C964 0.961 . S
H967 C964 0.960 . S
C968 N969 1.342 . S
C968 C972 1.401 . S
C968 C973 1.499 . S
N969 Co952 1.989 . S
N969 C968 1.342 . S
N969 N970 1.388 . S
N970 Co953 1.993 . S
N970 N969 1.388 . S
N970 C971 1.346 . S
C971 N970 1.346 . S
C971 C972 1.396 . S
C971 C981 1.510 . S
C972 C968 1.401 . S
C972 C971 1.396 . S
C973 C968 1.499 . S
C973 H974 0.959 . S
C973 H975 0.960 . S
C973 H976 0.961 . S
H974 C973 0.959 . S
H975 C973 0.960 . S
H976 C973 0.961 . S
O977 Co952 1.967 . S
O977 C985 1.258 . S
O978 Co953 1.941 . S
O978 C985 1.266 . S
H979 C981 0.959 . S
H980 C981 0.961 . S
C981 C971 1.510 . S
C981 H979 0.959 . S
C981 H980 0.961 . S
C981 H982 0.960 . S
H982 C981 0.960 . S
H983 N963 0.862 . S
O984 Co952 1.920 . S
O984 C957 1.289 . S
C985 O977 1.258 . S
C985 O978 1.266 . S
Co986 O989 1.970 . S
Co986 N1003 1.989 1_655 S
Co986 O1011 1.967 . S
Co986 O1018 1.920 . S
Co987 O990 1.966 . S
Co987 N996 2.022 . S
Co987 N1004 1.993 . S
Co987 O1012 1.941 . S
C988 O989 1.258 1_455 S
C988 O990 1.263 . S
O989 Co986 1.970 . S
O989 C988 1.258 1_655 S
O990 Co987 1.966 . S
O990 C988 1.263 . S
C991 O992 1.235 . S
C991 O1018 1.289 . S
O992 C991 1.235 . S
C993 C995 1.400 . S
C993 N996 1.351 . S
C993 C998 1.501 . S
C994 C995 1.387 . S
C994 N997 1.341 . S
C995 C993 1.400 . S
C995 C994 1.387 . S
N996 Co987 2.022 . S
N996 C993 1.351 . S
N996 N997 1.365 . S
N997 C994 1.341 . S
N997 N996 1.365 . S
N997 H1017 0.862 . S
C998 C993 1.501 . S
C998 H999 0.961 . S
C998 H1000 0.961 . S
C998 H1001 0.960 . S
H999 C998 0.961 . S
H1000 C998 0.961 . S
H1001 C998 0.960 . S
C1002 N1003 1.342 . S
C1002 C1006 1.401 . S
C1002 C1007 1.499 1_455 S
N1003 Co986 1.989 1_455 S
N1003 C1002 1.342 . S
N1003 N1004 1.388 . S
N1004 Co987 1.993 . S
N1004 N1003 1.388 . S
N1004 C1005 1.346 . S
C1005 N1004 1.346 . S
C1005 C1006 1.396 . S
C1005 C1015 1.510 . S
C1006 C1002 1.401 . S
C1006 C1005 1.396 . S
C1007 C1002 1.499 1_655 S
C1007 H1008 0.959 . S
C1007 H1009 0.960 . S
C1007 H1010 0.961 . S
H1008 C1007 0.959 . S
H1009 C1007 0.960 . S
H1010 C1007 0.961 . S
O1011 Co986 1.967 . S
O1011 C1019 1.258 1_655 S
O1012 Co987 1.941 . S
O1012 C1019 1.266 . S
H1013 C1015 0.959 . S
H1014 C1015 0.961 . S
C1015 C1005 1.510 . S
C1015 H1013 0.959 . S
C1015 H1014 0.961 . S
C1015 H1016 0.960 . S
H1016 C1015 0.960 . S
H1017 N997 0.862 . S
O1018 Co986 1.920 . S
O1018 C991 1.289 . S
C1019 O1011 1.258 1_455 S
C1019 O1012 1.266 . S
Co1020 O1023 1.970 . S
Co1020 N1037 1.989 . S
Co1020 O1045 1.967 . S
Co1020 O1052 1.920 . S
Co1021 O1024 1.966 . S
Co1021 N1030 2.022 . S
Co1021 N1038 1.993 . S
Co1021 O1046 1.941 . S
C1022 O1023 1.258 . S
C1022 O1024 1.263 . S
O1023 Co1020 1.970 . S
O1023 C1022 1.258 . S
O1024 Co1021 1.966 . S
O1024 C1022 1.263 . S
C1025 O1026 1.235 . S
C1025 O1052 1.289 . S
O1026 C1025 1.235 . S
C1027 C1029 1.400 . S
C1027 N1030 1.351 . S
C1027 C1032 1.501 . S
C1028 C1029 1.387 . S
C1028 N1031 1.341 . S
C1029 C1027 1.400 . S
C1029 C1028 1.387 . S
N1030 Co1021 2.022 . S
N1030 C1027 1.351 . S
N1030 N1031 1.365 . S
N1031 C1028 1.341 . S
N1031 N1030 1.365 . S
N1031 H1051 0.862 . S
C1032 C1027 1.501 . S
C1032 H1033 0.961 . S
C1032 H1034 0.961 . S
C1032 H1035 0.960 . S
H1033 C1032 0.961 . S
H1034 C1032 0.961 . S
H1035 C1032 0.960 . S
C1036 N1037 1.342 . S
C1036 C1040 1.401 . S
C1036 C1041 1.499 . S
N1037 Co1020 1.989 . S
N1037 C1036 1.342 . S
N1037 N1038 1.388 . S
N1038 Co1021 1.993 . S
N1038 N1037 1.388 . S
N1038 C1039 1.346 . S
C1039 N1038 1.346 . S
C1039 C1040 1.396 . S
C1039 C1049 1.510 . S
C1040 C1036 1.401 . S
C1040 C1039 1.396 . S
C1041 C1036 1.499 . S
C1041 H1042 0.959 . S
C1041 H1043 0.960 . S
C1041 H1044 0.961 . S
H1042 C1041 0.959 . S
H1043 C1041 0.960 . S
H1044 C1041 0.961 . S
O1045 Co1020 1.967 . S
O1045 C1053 1.258 . S
O1046 Co1021 1.941 . S
O1046 C1053 1.266 . S
H1047 C1049 0.959 . S
H1048 C1049 0.961 . S
C1049 C1039 1.510 . S
C1049 H1047 0.959 . S
C1049 H1048 0.961 . S
C1049 H1050 0.960 . S
H1050 C1049 0.960 . S
H1051 N1031 0.862 . S
O1052 Co1020 1.920 . S
O1052 C1025 1.289 . S
C1053 O1045 1.258 . S
C1053 O1046 1.266 . S
Co1054 O1057 1.970 . S
Co1054 N1071 1.989 . S
Co1054 O1079 1.967 . S
Co1054 O1086 1.920 . S
Co1055 O1058 1.966 . S
Co1055 N1064 2.022 . S
Co1055 N1072 1.993 . S
Co1055 O1080 1.941 . S
C1056 O1057 1.258 . S
C1056 O1058 1.263 . S
O1057 Co1054 1.970 . S
O1057 C1056 1.258 . S
O1058 Co1055 1.966 . S
O1058 C1056 1.263 . S
C1059 O1060 1.235 . S
C1059 O1086 1.289 . S
O1060 C1059 1.235 . S
C1061 C1063 1.400 . S
C1061 N1064 1.351 . S
C1061 C1066 1.501 . S
C1062 C1063 1.387 . S
C1062 N1065 1.341 . S
C1063 C1061 1.400 . S
C1063 C1062 1.387 . S
N1064 Co1055 2.022 . S
N1064 C1061 1.351 . S
N1064 N1065 1.365 . S
N1065 C1062 1.341 . S
N1065 N1064 1.365 . S
N1065 H1085 0.862 . S
C1066 C1061 1.501 . S
C1066 H1067 0.961 . S
C1066 H1068 0.961 . S
C1066 H1069 0.960 . S
H1067 C1066 0.961 . S
H1068 C1066 0.961 . S
H1069 C1066 0.960 . S
C1070 N1071 1.342 . S
C1070 C1074 1.401 . S
C1070 C1075 1.499 . S
N1071 Co1054 1.989 . S
N1071 C1070 1.342 . S
N1071 N1072 1.388 . S
N1072 Co1055 1.993 . S
N1072 N1071 1.388 . S
N1072 C1073 1.346 . S
C1073 N1072 1.346 . S
C1073 C1074 1.396 . S
C1073 C1083 1.510 . S
C1074 C1070 1.401 . S
C1074 C1073 1.396 . S
C1075 C1070 1.499 . S
C1075 H1076 0.959 . S
C1075 H1077 0.960 . S
C1075 H1078 0.961 . S
H1076 C1075 0.959 . S
H1077 C1075 0.960 . S
H1078 C1075 0.961 . S
O1079 Co1054 1.967 . S
O1079 C1087 1.258 . S
O1080 Co1055 1.941 . S
O1080 C1087 1.266 . S
H1081 C1083 0.959 . S
H1082 C1083 0.961 . S
C1083 C1073 1.510 . S
C1083 H1081 0.959 . S
C1083 H1082 0.961 . S
C1083 H1084 0.960 . S
H1084 C1083 0.960 . S
H1085 N1065 0.862 . S
O1086 Co1054 1.920 . S
O1086 C1059 1.289 . S
C1087 O1079 1.258 . S
C1087 O1080 1.266 . S
C20 C258 2.991 . S
C54 C156 2.991 . S
C88 C190 2.991 . S
C122 C224 2.991 . S
C530 C292 2.991 . S
C326 C428 2.991 . S
C462 C360 2.991 . S
C394 C496 2.991 . S
C564 C802 2.991 . S
C700 C598 2.991 . S
C632 C734 2.991 . S
C666 C768 2.991 . S
C836 C1074 2.991 . S
C870 C972 2.991 . S
C1006 C904 2.991 . S
C1040 C938 2.991 . S
C206 C2 1.917 1_556 S
C36 C240 1.917 1_545 S
C70 C138 1.917 . S
C104 C172 1.916 1_565 S
C274 C478 1.917 1_556 S
C512 C308 1.917 1_545 S
C410 C342 1.917 . S
C444 C376 1.916 1_565 S
C546 C750 1.917 . S
C784 C580 1.917 . S
C682 C614 1.917 1_556 S
C648 C716 1.917 . S
C1022 C818 1.917 . S
C852 C1056 1.917 . S
C954 C886 1.917 1_554 S
C988 C920 1.917 . S
C957 C9 0.773 . S
C447 C43 0.773 . S
C1025 C77 0.773 . S
C111 C515 0.773 . S
C821 C145 0.773 . S
C311 C179 0.773 . S
C889 C213 0.773 . S
C247 C379 0.772 . S
C281 C685 0.773 . S
C315 C175 0.773 . S
C349 C753 0.773 . S
C243 C383 0.773 . S
C549 C417 0.773 . S
C451 C39 0.773 . S
C485 C617 0.773 . S
C519 C107 0.772 . S
C413 C553 0.773 . S
C587 C991 0.773 . S
C481 C621 0.773 . S
C655 C1059 0.773 . S
C689 C277 0.773 . S
C723 C855 0.773 . S
C345 C757 0.773 . S
C791 C923 0.773 . S
C141 C825 0.773 . S
C719 C859 0.773 . S
C209 C893 0.773 . S
C787 C927 0.773 . S
C5 C961 0.773 . S
C583 C995 0.773 . S
C1029 C73 0.773 . S
C651 C1063 0.773 . S
C645 C33 3.344 . S
C679 C67 3.344 1_655 S
C101 C577 3.344 1_455 S
C135 C611 3.344 . S
C781 C169 3.344 . S
C203 C815 3.344 . S
C713 C237 3.344 1_655 S
C747 C271 3.344 1_655 S
C917 C305 3.344 . S
C951 C339 3.344 1_455 S
C373 C849 3.344 1_655 S
C407 C883 3.344 . S
C441 C1053 3.344 . S
C475 C1087 3.344 . S
C985 C509 3.344 1_455 S
C1019 C543 3.344 1_455 S
