# Generated by pormake.
# Topology umb, (4)-cn, num edge types: 1
# Building blocks:
#     Node 0, Type 0, BuildingBlock: ESEHIV_clean_sbu_0, # of connection points: 4
#     Node 1, Type 0, BuildingBlock: ESEHIV_clean_sbu_0, # of connection points: 4
#     Node 2, Type 0, BuildingBlock: ESEHIV_clean_sbu_0, # of connection points: 4
#     Node 3, Type 0, BuildingBlock: ESEHIV_clean_sbu_0, # of connection points: 4
#     Node 4, Type 0, BuildingBlock: ESEHIV_clean_sbu_0, # of connection points: 4
#     Node 5, Type 0, BuildingBlock: ESEHIV_clean_sbu_0, # of connection points: 4
#     Node 6, Type 0, BuildingBlock: ESEHIV_clean_sbu_0, # of connection points: 4
#     Node 7, Type 0, BuildingBlock: ESEHIV_clean_sbu_0, # of connection points: 4
#     Node 8, Type 0, BuildingBlock: ESEHIV_clean_sbu_0, # of connection points: 4
#     Node 9, Type 0, BuildingBlock: ESEHIV_clean_sbu_0, # of connection points: 4
#     Node 10, Type 0, BuildingBlock: ESEHIV_clean_sbu_0, # of connection points: 4
#     Node 11, Type 0, BuildingBlock: ESEHIV_clean_sbu_0, # of connection points: 4
#     Edge 12, Type (0, 0), BuildingBlock: MIFKUJ_clean_linker_0, # of connection points: 2
#     Edge 13, Type (0, 0), BuildingBlock: MIFKUJ_clean_linker_0, # of connection points: 2
#     Edge 14, Type (0, 0), BuildingBlock: MIFKUJ_clean_linker_0, # of connection points: 2
#     Edge 15, Type (0, 0), BuildingBlock: MIFKUJ_clean_linker_0, # of connection points: 2
#     Edge 16, Type (0, 0), BuildingBlock: MIFKUJ_clean_linker_0, # of connection points: 2
#     Edge 17, Type (0, 0), BuildingBlock: MIFKUJ_clean_linker_0, # of connection points: 2
#     Edge 18, Type (0, 0), BuildingBlock: MIFKUJ_clean_linker_0, # of connection points: 2
#     Edge 19, Type (0, 0), BuildingBlock: MIFKUJ_clean_linker_0, # of connection points: 2
#     Edge 20, Type (0, 0), BuildingBlock: MIFKUJ_clean_linker_0, # of connection points: 2
#     Edge 21, Type (0, 0), BuildingBlock: MIFKUJ_clean_linker_0, # of connection points: 2
#     Edge 22, Type (0, 0), BuildingBlock: MIFKUJ_clean_linker_0, # of connection points: 2
#     Edge 23, Type (0, 0), BuildingBlock: MIFKUJ_clean_linker_0, # of connection points: 2
#     Edge 24, Type (0, 0), BuildingBlock: MIFKUJ_clean_linker_0, # of connection points: 2
#     Edge 25, Type (0, 0), BuildingBlock: MIFKUJ_clean_linker_0, # of connection points: 2
#     Edge 26, Type (0, 0), BuildingBlock: MIFKUJ_clean_linker_0, # of connection points: 2
#     Edge 27, Type (0, 0), BuildingBlock: MIFKUJ_clean_linker_0, # of connection points: 2
#     Edge 28, Type (0, 0), BuildingBlock: MIFKUJ_clean_linker_0, # of connection points: 2
#     Edge 29, Type (0, 0), BuildingBlock: MIFKUJ_clean_linker_0, # of connection points: 2
#     Edge 30, Type (0, 0), BuildingBlock: MIFKUJ_clean_linker_0, # of connection points: 2
#     Edge 31, Type (0, 0), BuildingBlock: MIFKUJ_clean_linker_0, # of connection points: 2
#     Edge 32, Type (0, 0), BuildingBlock: MIFKUJ_clean_linker_0, # of connection points: 2
#     Edge 33, Type (0, 0), BuildingBlock: MIFKUJ_clean_linker_0, # of connection points: 2
#     Edge 34, Type (0, 0), BuildingBlock: MIFKUJ_clean_linker_0, # of connection points: 2
#     Edge 35, Type (0, 0), BuildingBlock: MIFKUJ_clean_linker_0, # of connection points: 2
# Relax obj value: 0.166
# Max RMSD: 0.156
# Mean RMSD: 0.143
data_MOF--net-umb--node1-ESEHIV_clean_sbu_0--edge1-MIFKUJ_clean_linker_0
_symmetry_space_group_name_H-M    P1
_symmetry_Int_Tables_number       1
_symmetry_cell_setting            triclinic
loop_
_symmetry_equiv_pos_as_xyz
'x, y, z'
_cell_length_a     64.823433
_cell_length_b     68.472247
_cell_length_c     52.219669
_cell_angle_alpha  89.531881
_cell_angle_beta   90.217825
_cell_angle_gamma 118.17746
loop_
_atom_site_label
_atom_site_type_symbol
_atom_site_fract_x
_atom_site_fract_y
_atom_site_fract_z
_atom_type_partial_charge
Cu0 Cu 0.56721 0.17607 0.34443 0.0
N1 N 0.59344 0.17553 0.3307 0.0
N2 N 0.62976 0.18877 0.31564 0.0
C3 C 0.61256 0.19351 0.32227 0.0
C4 C 0.62127 0.16693 0.32027 0.0
C5 C 0.5987 0.15872 0.32938 0.0
O6 O 0.56261 0.19846 0.32512 0.0
C7 C 0.55991 0.17482 0.39903 0.0
O8 O 0.53796 0.1609 0.3939 0.0
H9 H 0.61433 0.21005 0.32254 0.0
H10 H 0.58741 0.14191 0.33558 0.0
N11 N 0.54133 0.14815 0.34035 0.0
N12 N 0.51978 0.11132 0.33865 0.0
C13 C 0.53922 0.12849 0.3482 0.0
C14 C 0.52239 0.14328 0.32576 0.0
C15 C 0.50909 0.12058 0.32463 0.0
C16 C 0.56436 0.19874 0.30075 0.0
O17 O 0.56797 0.18343 0.28973 0.0
H18 H 0.5523 0.1268 0.35952 0.0
H19 H 0.51905 0.15538 0.31573 0.0
O20 O 0.57433 0.18352 0.38062 0.0
H21 H 0.63098 0.1578 0.31821 0.0
H22 H 0.49316 0.11159 0.31371 0.0
Cu23 Cu 0.36254 0.54461 0.67747 0.0
N24 N 0.38572 0.57323 0.6701 0.0
N25 N 0.41132 0.60885 0.67546 0.0
C26 C 0.3965 0.58966 0.68702 0.0
C27 C 0.41019 0.60422 0.65026 0.0
C28 C 0.39436 0.58215 0.64702 0.0
O29 O 0.33647 0.53686 0.65383 0.0
C30 C 0.35019 0.55668 0.72495 0.0
O31 O 0.3453 0.56985 0.71069 0.0
H32 H 0.39324 0.58775 0.7074 0.0
H33 H 0.38889 0.57339 0.62906 0.0
N34 N 0.37533 0.52597 0.67098 0.0
N35 N 0.40194 0.51412 0.66763 0.0
C36 C 0.39696 0.52964 0.67739 0.0
C37 C 0.36613 0.50752 0.65677 0.0
C38 C 0.38247 0.50013 0.65469 0.0
C39 C 0.32971 0.55062 0.64615 0.0
O40 O 0.33863 0.57029 0.65666 0.0
H41 H 0.40883 0.54371 0.68862 0.0
H42 H 0.34905 0.50039 0.64785 0.0
O43 O 0.35557 0.54313 0.71403 0.0
H44 H 0.41915 0.61617 0.63517 0.0
H45 H 0.38035 0.486 0.64366 0.0
Cu46 Cu 0.83076 0.38794 0.9974 0.0
N47 N 0.82889 0.38016 0.03214 0.0
N48 N 0.82343 0.38146 0.07433 0.0
C49 C 0.82563 0.39146 0.05135 0.0
C50 C 0.82526 0.36302 0.06934 0.0
C51 C 0.82865 0.36227 0.0433 0.0
O52 O 0.8629 0.40988 0.98929 0.0
C53 C 0.81187 0.41798 0.98591 0.0
O54 O 0.83186 0.43179 0.97522 0.0
H55 H 0.82417 0.40642 0.04838 0.0
H56 H 0.83044 0.34942 0.03321 0.0
N57 N 0.8216 0.36313 0.97627 0.0
N58 N 0.80364 0.33732 0.94608 0.0
C59 C 0.8042 0.3548 0.95873 0.0
C60 C 0.83246 0.35065 0.9746 0.0
C61 C 0.82149 0.33479 0.95614 0.0
C62 C 0.87381 0.42784 1.00175 0.0
O63 O 0.8628 0.43233 1.01995 0.0
H64 H 0.79232 0.36154 0.95532 0.0
H65 H 0.84763 0.35321 0.98573 0.0
O66 O 0.80866 0.39922 0.99407 0.0
H67 H 0.8243 0.35097 0.08348 0.0
H68 H 0.82681 0.32275 0.95018 0.0
Cu69 Cu 0.43381 0.82169 0.33791 0.0
N70 N 0.40484 0.82043 0.33262 0.0
N71 N 0.36602 0.80629 0.33184 0.0
C72 C 0.38421 0.80187 0.33172 0.0
C73 C 0.37559 0.82856 0.33258 0.0
C74 C 0.3996 0.83726 0.33295 0.0
O75 O 0.43454 0.79803 0.31763 0.0
C76 C 0.42201 0.80164 0.38716 0.0
O77 O 0.40684 0.78442 0.37425 0.0
H78 H 0.38258 0.78541 0.33286 0.0
H79 H 0.41225 0.85456 0.33472 0.0
N80 N 0.45634 0.84959 0.32662 0.0
N81 N 0.47459 0.88646 0.3222 0.0
C82 C 0.46165 0.86909 0.33775 0.0
C83 C 0.46644 0.8548 0.30335 0.0
C84 C 0.47777 0.87752 0.3006 0.0
C85 C 0.4532 0.79782 0.31048 0.0
O86 O 0.47349 0.81344 0.31855 0.0
H87 H 0.45443 0.87041 0.35593 0.0
H88 H 0.46438 0.8429 0.28875 0.0
O89 O 0.43651 0.81881 0.37487 0.0
H90 H 0.36595 0.83781 0.33387 0.0
H91 H 0.48666 0.88669 0.28356 0.0
Cu92 Cu 0.63849 0.45368 0.6854 0.0
N93 N 0.60958 0.42834 0.68405 0.0
N94 N 0.58213 0.39389 0.67529 0.0
C95 C 0.60358 0.41049 0.66927 0.0
C96 C 0.57439 0.40187 0.69449 0.0
C97 C 0.59138 0.42307 0.69988 0.0
O98 O 0.65755 0.45187 0.65763 0.0
C99 C 0.64765 0.43705 0.73111 0.0
O100 O 0.64123 0.41918 0.71725 0.0
H101 H 0.6152 0.40949 0.65515 0.0
H102 H 0.59099 0.43356 0.71505 0.0
N103 N 0.63315 0.47785 0.68012 0.0
N104 N 0.61309 0.49659 0.67431 0.0
C105 C 0.61217 0.47649 0.67508 0.0
C106 C 0.64804 0.49959 0.68251 0.0
C107 C 0.6357 0.51123 0.67895 0.0
C108 C 0.67837 0.46626 0.65203 0.0
O109 O 0.68952 0.48344 0.66699 0.0
H110 H 0.59634 0.46094 0.6731 0.0
H111 H 0.66641 0.50644 0.68721 0.0
O112 O 0.65008 0.45471 0.72015 0.0
H113 H 0.55829 0.39263 0.70509 0.0
H114 H 0.64279 0.52902 0.68008 0.0
Cu115 Cu 0.164 0.61143 0.99676 0.0
N116 N 0.16694 0.62252 0.02992 0.0
N117 N 0.17128 0.62353 0.07258 0.0
C118 C 0.16918 0.6121 0.0509 0.0
C119 C 0.1703 0.64196 0.06478 0.0
C120 C 0.1676 0.64128 0.03846 0.0
O121 O 0.13066 0.59221 0.99125 0.0
C122 C 0.19086 0.58783 0.98358 0.0
O123 O 0.18985 0.59113 0.9589 0.0
H124 H 0.16962 0.59652 0.0501 0.0
H125 H 0.16625 0.65357 1.02647 0.0
N126 N 0.17619 0.63475 0.97253 0.0
N127 N 0.19728 0.65942 0.94204 0.0
C128 C 0.19447 0.64158 0.95609 0.0
C129 C 0.16723 0.64867 0.96855 0.0
C130 C 0.18013 0.66384 0.94994 0.0
C131 C 0.12194 0.57386 0.97939 0.0
O132 O 0.13598 0.56734 0.96881 0.0
H133 H 0.20569 0.63394 0.95471 0.0
H134 H 0.1522 0.64775 0.97852 0.0
O135 O 0.18108 0.59478 0.99944 0.0
H136 H 0.1712 0.65494 0.07714 0.0
H137 H 0.17685 0.67691 0.94244 0.0
Cu138 Cu 0.81037 0.4599 0.3733 0.0
N139 N 0.80774 0.4325 0.38187 0.0
N140 N 0.79586 0.39632 0.37885 0.0
C141 C 0.79338 0.41362 0.36998 0.0
C142 C 0.8126 0.40468 0.39704 0.0
C143 C 0.8199 0.42712 0.39891 0.0
O144 O 0.79317 0.46707 0.39885 0.0
C145 C 0.81106 0.46777 0.31915 0.0
O146 O 0.83074 0.48586 0.32353 0.0
H147 H 0.78171 0.41275 0.35464 0.0
H148 H 0.83331 0.43874 0.41148 0.0
N149 N 0.8419 0.48049 0.37513 0.0
N150 N 0.88074 0.49421 0.37536 0.0
C151 C 0.85992 0.47665 0.36971 0.0
C152 C 0.85148 0.50119 0.38437 0.0
C153 C 0.87547 0.50974 0.3845 0.0
C154 C 0.77241 0.45342 0.40568 0.0
O155 O 0.76101 0.43483 0.393 0.0
H156 H 0.85762 0.46108 0.3622 0.0
H157 H 0.84167 0.50918 0.39132 0.0
O158 O 0.79885 0.45628 0.33805 0.0
H159 H 0.81897 0.39528 0.40826 0.0
H160 H 0.88792 0.52578 0.39179 0.0
Cu161 Cu 0.38111 0.82336 0.70769 0.0
N162 N 0.40911 0.82417 0.71828 0.0
N163 N 0.43381 0.81131 0.72959 0.0
C164 C 0.41122 0.80687 0.72771 0.0
C165 C 0.44642 0.83238 0.72118 0.0
C166 C 0.43117 0.84019 0.71407 0.0
O167 O 0.35597 0.80337 0.7307 0.0
C168 C 0.39112 0.82862 0.65566 0.0
O169 O 0.40659 0.84803 0.66434 0.0
H170 H 0.39643 0.79075 0.73108 0.0
H171 H 0.43592 0.85592 0.70483 0.0
N172 N 0.38369 0.85175 0.70981 0.0
N173 N 0.39963 0.88859 0.71367 0.0
C174 C 0.40165 0.87025 0.71926 0.0
C175 C 0.36949 0.8585 0.69843 0.0
C176 C 0.37925 0.88118 0.70075 0.0
C177 C 0.34697 0.78231 0.73085 0.0
O178 O 0.35337 0.77264 0.71326 0.0
H179 H 0.41653 0.87044 0.72883 0.0
H180 H 0.35374 0.84779 0.68804 0.0
O181 O 0.37685 0.81447 0.67157 0.0
H182 H 0.46524 0.84114 0.71891 0.0
H183 H 0.37221 0.89142 0.69275 0.0
Cu184 Cu 0.56865 0.39998 0.06696 0.0
N185 N 0.5652 0.38938 0.03333 0.0
N186 N 0.57254 0.38808 0.99165 0.0
C187 C 0.57912 0.40019 1.01328 0.0
C188 C 0.55389 0.36874 0.99841 0.0
C189 C 0.54939 0.36962 1.02412 0.0
O190 O 0.55527 0.42022 0.07076 0.0
C191 C 0.61516 0.43434 0.06468 0.0
O192 O 0.60564 0.44551 0.05378 0.0
H193 H 0.5939 0.4166 1.01454 0.0
H194 H 0.5356 0.35674 0.03533 0.0
N195 N 0.55391 0.37644 0.09036 0.0
N196 N 0.54729 0.35157 0.1217 0.0
C197 C 0.5634 0.3668 0.10574 0.0
C198 C 0.53112 0.36687 0.0967 0.0
C199 C 0.52699 0.3516 0.11596 0.0
C200 C 0.55153 0.43018 0.05201 0.0
O201 O 0.55694 0.42708 0.02874 0.0
H202 H 0.58183 0.37137 0.10581 0.0
H203 H 0.51847 0.37107 0.08819 0.0
O204 O 0.60196 0.41501 0.07348 0.0
H205 H 0.54398 0.3551 0.98563 0.0
H206 H 0.5103 0.34131 0.12507 0.0
Cu207 Cu 0.17809 0.54354 0.38141 0.0
N208 N 0.1807 0.56873 0.39762 0.0
N209 N 0.19371 0.60439 0.40674 0.0
C210 C 0.1974 0.5896 0.39326 0.0
C211 C 0.174 0.5923 0.42034 0.0
C212 C 0.16608 0.57024 0.41477 0.0
O213 O 0.19617 0.5334 0.40224 0.0
C214 C 0.18183 0.56369 0.33363 0.0
O215 O 0.16975 0.57161 0.34582 0.0
H216 H 0.21128 0.59387 0.37942 0.0
H217 H 0.15047 0.55632 0.42223 0.0
N218 N 0.14677 0.52229 0.38216 0.0
N219 N 0.10785 0.50772 0.3811 0.0
C220 C 0.12856 0.52602 0.37727 0.0
C221 C 0.13741 0.50086 0.38915 0.0
C222 C 0.11336 0.49178 0.38848 0.0
C223 C 0.21796 0.54555 0.40616 0.0
O224 O 0.2293 0.56383 0.39264 0.0
H225 H 0.13058 0.542 0.37135 0.0
H226 H 0.14739 0.49261 0.39495 0.0
O227 O 0.18776 0.55071 0.34545 0.0
H228 H 0.16574 0.59891 0.43309 0.0
H229 H 0.10097 0.47499 0.39386 0.0
Cu230 Cu 0.61751 0.17516 0.71253 0.0
N231 N 0.59077 0.17871 0.71244 0.0
N232 N 0.56766 0.19333 0.70131 0.0
C233 C 0.58987 0.19698 0.70448 0.0
C234 C 0.55401 0.17197 0.70813 0.0
C235 C 0.56833 0.16296 0.71487 0.0
O236 O 0.64147 0.19861 0.73354 0.0
C237 C 0.63284 0.19402 0.66332 0.0
O238 O 0.63945 0.21279 0.67542 0.0
H239 H 0.60529 0.21247 0.70041 0.0
H240 H 0.56273 0.14583 0.71986 0.0
N241 N 0.60903 0.14711 0.72628 0.0
N242 N 0.58791 0.11046 0.73233 0.0
C243 C 0.59391 0.12761 0.71579 0.0
C244 C 0.61289 0.1422 0.75022 0.0
C245 C 0.60004 0.11964 0.75395 0.0
C246 C 0.65934 0.19776 0.74252 0.0
O247 O 0.66302 0.18115 0.73609 0.0
H248 H 0.58659 0.12631 0.69684 0.0
H249 H 0.62315 0.15429 0.76449 0.0
O250 O 0.62549 0.17618 0.67637 0.0
H251 H 0.5351 0.16315 0.70707 0.0
H252 H 0.59857 0.11095 0.77181 0.0
Cu253 Cu 0.44214 0.61218 0.05321 0.0
N254 N 0.44784 0.62462 1.02038 0.0
N255 N 0.44224 0.62629 0.97825 0.0
C256 C 0.4385 0.613 0.99887 0.0
C257 C 0.45452 0.64714 0.98718 0.0
C258 C 0.45794 0.64606 1.0132 0.0
O259 O 0.45488 0.59155 0.05468 0.0
C260 C 0.39449 0.58997 0.07388 0.0
O261 O 0.40266 0.59349 0.09739 0.0
H262 H 0.42794 0.59515 0.99871 0.0
H263 H 0.46626 0.6599 1.02615 0.0
N264 N 0.45573 0.63403 0.07847 0.0
N265 N 0.46213 0.65858 0.10975 0.0
C266 C 0.44621 0.64376 0.09339 0.0
C267 C 0.47826 0.64293 0.08565 0.0
C268 C 0.48226 0.65797 0.10481 0.0
C269 C 0.45479 0.58078 0.07469 0.0
O270 O 0.44574 0.58355 0.09595 0.0
H271 H 0.42808 0.64013 0.09217 0.0
H272 H 0.49086 0.63853 0.07763 0.0
O273 O 0.40848 0.59638 0.05499 0.0
H274 H 0.46016 0.66212 0.97587 0.0
H275 H 0.49869 0.66733 0.11475 0.0
H276 H 0.60496 0.19895 0.41661 0.0
H277 H 0.6187 0.20362 0.46092 0.0
H278 H 0.54769 0.16419 0.48709 0.0
H279 H 0.53376 0.15977 0.44286 0.0
H280 H 0.57064 0.19866 0.5182 0.0
H281 H 0.58488 0.14184 0.48196 0.0
H282 H 0.60071 0.12598 0.45017 0.0
H283 H 0.67053 0.17639 0.46702 0.0
H284 H 0.65508 0.19272 0.4987 0.0
H285 H 0.61771 0.15789 0.63179 0.0
H286 H 0.60694 0.15579 0.5865 0.0
H287 H 0.62899 0.22586 0.58561 0.0
H288 H 0.63975 0.22813 0.63079 0.0
H289 H 0.62988 0.17525 0.54217 0.0
H290 H 0.58887 0.23413 0.5489 0.0
H291 H 0.56997 0.24683 0.58092 0.0
H292 H 0.54921 0.18702 0.62451 0.0
H293 H 0.56754 0.17376 0.59254 0.0
C294 C 0.5922 0.19148 0.43177 0.0
C295 C 0.56822 0.17895 0.42607 0.0
C296 C 0.60013 0.19404 0.45715 0.0
C297 C 0.58429 0.18403 0.47743 0.0
C298 C 0.56029 0.17207 0.47184 0.0
C299 C 0.55234 0.1695 0.44648 0.0
C300 C 0.59273 0.18544 0.50435 0.0
C301 C 0.58368 0.19366 0.52339 0.0
C302 C 0.60946 0.17854 0.51134 0.0
C303 C 0.61881 0.16861 0.49252 0.0
C304 C 0.6036 0.14962 0.47877 0.0
C305 C 0.6125 0.14054 0.46079 0.0
C306 C 0.63661 0.15021 0.45653 0.0
C307 C 0.65186 0.16894 0.47032 0.0
C308 C 0.64304 0.1781 0.4883 0.0
C309 C 0.62063 0.17293 0.62188 0.0
C310 C 0.62953 0.19316 0.63505 0.0
C311 C 0.61445 0.1717 0.59595 0.0
C312 C 0.61682 0.1906 0.58271 0.0
C313 C 0.62668 0.21099 0.59549 0.0
C314 C 0.63297 0.21226 0.62134 0.0
C315 C 0.60808 0.18882 0.55592 0.0
C316 C 0.61701 0.18047 0.53693 0.0
C317 C 0.59097 0.19528 0.54907 0.0
C318 C 0.57981 0.20306 0.56842 0.0
C319 C 0.58021 0.22366 0.56528 0.0
C320 C 0.56958 0.23094 0.5834 0.0
C321 C 0.5584 0.21772 0.6047 0.0
C322 C 0.55789 0.19723 0.608 0.0
C323 C 0.56842 0.18984 0.58989 0.0
H324 H 0.55002 0.22329 0.61858 0.0
H325 H 0.64347 0.14316 0.44259 0.0
H326 H 0.36233 0.53399 0.76036 0.0
H327 H 0.37576 0.54504 0.80431 0.0
H328 H 0.36306 0.60118 0.79629 0.0
H329 H 0.34967 0.59032 0.75238 0.0
H330 H 0.40657 0.61327 0.81473 0.0
H331 H 0.32828 0.55761 0.8343 0.0
H332 H 0.29398 0.52047 0.83275 0.0
H333 H 0.33441 0.49211 0.86636 0.0
H334 H 0.36907 0.52906 0.86779 0.0
H335 H 0.42912 0.64859 0.94428 0.0
H336 H 0.41181 0.63617 0.90196 0.0
H337 H 0.41706 0.57605 0.91189 0.0
H338 H 0.43391 0.58825 0.95447 0.0
H339 H 0.37659 0.56601 0.89237 0.0
H340 H 0.45494 0.62066 0.87215 0.0
H341 H 0.49006 0.65728 0.87281 0.0
H342 H 0.45087 0.68698 0.83938 0.0
H343 H 0.41539 0.6506 0.83889 0.0
C344 C 0.36197 0.54846 0.76809 0.0
C345 C 0.35487 0.56123 0.75277 0.0
C346 C 0.36966 0.55476 0.79326 0.0
C347 C 0.37043 0.57396 0.80367 0.0
C348 C 0.36268 0.58634 0.78869 0.0
C349 C 0.35487 0.58 0.7636 0.0
C350 C 0.38053 0.58184 0.82958 0.0
C351 C 0.39978 0.60307 0.83179 0.0
C352 C 0.37216 0.56831 0.85173 0.0
C353 C 0.35133 0.54608 0.85092 0.0
C354 C 0.32992 0.54343 0.84116 0.0
C355 C 0.31039 0.52242 0.84035 0.0
C356 C 0.31203 0.50393 0.84939 0.0
C357 C 0.33318 0.50644 0.85933 0.0
C358 C 0.35276 0.52741 0.86017 0.0
C359 C 0.42685 0.63285 0.93733 0.0
C360 C 0.43299 0.61946 0.95274 0.0
C361 C 0.41692 0.62573 0.91308 0.0
C362 C 0.41334 0.60524 0.90344 0.0
C363 C 0.41956 0.59189 0.91881 0.0
C364 C 0.42921 0.59889 0.94317 0.0
C365 C 0.40273 0.5975 0.8776 0.0
C366 C 0.38339 0.57627 0.87537 0.0
C367 C 0.41116 0.61098 0.85536 0.0
C368 C 0.43243 0.63293 0.85577 0.0
C369 C 0.45375 0.63503 0.86516 0.0
C370 C 0.47373 0.65575 0.86547 0.0
C371 C 0.47266 0.67446 0.85622 0.0
C372 C 0.45163 0.67249 0.84659 0.0
C373 C 0.43159 0.65182 0.84629 0.0
H374 H 0.48815 0.69048 0.85645 0.0
H375 H 0.29689 0.48768 0.84874 0.0
H376 H 0.82958 0.48928 0.27389 0.0
H377 H 0.8261 0.47277 0.23168 0.0
H378 H 0.77827 0.40859 0.26262 0.0
H379 H 0.78148 0.42501 0.30488 0.0
H380 H 0.81462 0.40803 0.23677 0.0
H381 H 0.75859 0.43295 0.221 0.0
H382 H 0.74239 0.45904 0.21886 0.0
H383 H 0.79563 0.49958 0.16498 0.0
H384 H 0.81242 0.47393 0.16712 0.0
H385 H 0.7994 0.35603 0.11503 0.0
H386 H 0.79255 0.36881 0.15622 0.0
H387 H 0.83234 0.43663 0.13058 0.0
H388 H 0.83866 0.42386 0.08924 0.0
H389 H 0.79568 0.43252 0.15444 0.0
H390 H 0.85405 0.40953 0.17391 0.0
H391 H 0.87028 0.38344 0.17631 0.0
H392 H 0.81253 0.33935 0.22335 0.0
H393 H 0.79587 0.36511 0.2211 0.0
C394 C 0.81791 0.47173 0.27162 0.0
C395 C 0.80582 0.45851 0.29282 0.0
C396 C 0.81591 0.4623 0.24743 0.0
C397 C 0.80191 0.43941 0.24392 0.0
C398 C 0.78916 0.42629 0.26484 0.0
C399 C 0.79092 0.43575 0.28898 0.0
C400 C 0.80222 0.42902 0.21903 0.0
C401 C 0.81008 0.41311 0.21879 0.0
C402 C 0.79676 0.43594 0.1955 0.0
C403 C 0.78695 0.45163 0.19447 0.0
C404 C 0.76703 0.44756 0.20893 0.0
C405 C 0.7577 0.46225 0.20767 0.0
C406 C 0.76805 0.48101 0.1919 0.0
C407 C 0.78769 0.48508 0.17727 0.0
C408 C 0.79711 0.47046 0.17849 0.0
C409 C 0.80681 0.37366 0.11826 0.0
C410 C 0.81963 0.38892 0.09884 0.0
C411 C 0.80291 0.38098 0.14186 0.0
C412 C 0.81218 0.40376 0.14681 0.0
C413 C 0.82491 0.41898 0.12735 0.0
C414 C 0.82853 0.41166 0.10366 0.0
C415 C 0.80863 0.41188 0.17208 0.0
C416 C 0.80012 0.42735 0.17241 0.0
C417 C 0.81358 0.40462 0.19572 0.0
C418 C 0.82358 0.38912 0.19707 0.0
C419 C 0.84473 0.3942 0.18462 0.0
C420 C 0.85404 0.37949 0.18601 0.0
C421 C 0.84242 0.35973 0.19994 0.0
C422 C 0.82151 0.35466 0.21257 0.0
C423 C 0.81214 0.36932 0.21127 0.0
H424 H 0.84965 0.34837 0.20099 0.0
H425 H 0.76079 0.49235 0.19094 0.0
H426 H 0.44606 0.83648 0.41971 0.0
H427 H 0.4398 0.83795 0.46563 0.0
H428 H 0.38691 0.76936 0.46488 0.0
H429 H 0.39293 0.76784 0.41891 0.0
H430 H 0.3717 0.79297 0.49109 0.0
H431 H 0.44142 0.78571 0.49195 0.0
H432 H 0.48174 0.79471 0.4801 0.0
H433 H 0.50729 0.85997 0.51107 0.0
H434 H 0.46707 0.85147 0.5228 0.0
H435 H 0.36535 0.78906 0.63007 0.0
H436 H 0.36916 0.78132 0.58487 0.0
H437 H 0.42218 0.84914 0.57396 0.0
H438 H 0.41864 0.85688 0.61857 0.0
H439 H 0.43629 0.82174 0.55445 0.0
H440 H 0.36612 0.82943 0.55152 0.0
H441 H 0.32566 0.82055 0.56251 0.0
H442 H 0.30079 0.75428 0.53497 0.0
H443 H 0.34117 0.76266 0.5242 0.0
C444 C 0.43332 0.82161 0.42934 0.0
C445 C 0.42005 0.80203 0.41554 0.0
C446 C 0.42976 0.82246 0.45568 0.0
C447 C 0.41299 0.8037 0.4689 0.0
C448 C 0.39995 0.78406 0.45521 0.0
C449 C 0.40351 0.7832 0.42888 0.0
C450 C 0.40861 0.80483 0.49678 0.0
C451 C 0.38577 0.79891 0.50502 0.0
C452 C 0.42696 0.81285 0.51501 0.0
C453 C 0.45119 0.81801 0.50806 0.0
C454 C 0.45561 0.80204 0.49607 0.0
C455 C 0.47846 0.80704 0.4894 0.0
C456 C 0.49706 0.82791 0.49478 0.0
C457 C 0.49286 0.84382 0.5069 0.0
C458 C 0.47005 0.83891 0.51358 0.0
C459 C 0.37767 0.80233 0.61794 0.0
C460 C 0.39172 0.82357 0.62806 0.0
C461 C 0.37982 0.7979 0.5921 0.0
C462 C 0.396 0.81466 0.57592 0.0
C463 C 0.40969 0.83588 0.58599 0.0
C464 C 0.40756 0.84029 0.61161 0.0
C465 C 0.39945 0.81033 0.54868 0.0
C466 C 0.42216 0.81562 0.54057 0.0
C467 C 0.38096 0.80171 0.53062 0.0
C468 C 0.35673 0.79658 0.53743 0.0
C469 C 0.35207 0.81288 0.5481 0.0
C470 C 0.32913 0.80795 0.55423 0.0
C471 C 0.31067 0.78683 0.54955 0.0
C472 C 0.31511 0.77061 0.53867 0.0
C473 C 0.33802 0.77544 0.53256 0.0
H474 H 0.29293 0.78306 0.55427 0.0
H475 H 0.51473 0.83175 0.4896 0.0
H476 H 0.5756 0.36173 0.95502 0.0
H477 H 0.59307 0.37306 0.91232 0.0
H478 H 0.61039 0.44072 0.92854 0.0
H479 H 0.59303 0.42949 0.97126 0.0
H480 H 0.58871 0.42579 0.88044 0.0
H481 H 0.65289 0.42857 0.92869 0.0
H482 H 0.67164 0.41372 0.95858 0.0
H483 H 0.65848 0.36091 0.90648 0.0
H484 H 0.63922 0.3752 0.87646 0.0
H485 H 0.65308 0.46873 0.7664 0.0
H486 H 0.64533 0.46336 0.81245 0.0
H487 H 0.63219 0.39569 0.80624 0.0
H488 H 0.64027 0.401 0.76037 0.0
H489 H 0.65423 0.4134 0.85076 0.0
H490 H 0.58752 0.40846 0.80449 0.0
H491 H 0.56703 0.42184 0.775 0.0
H492 H 0.5839 0.47765 0.82363 0.0
H493 H 0.60484 0.46479 0.8532 0.0
C494 C 0.58309 0.379 0.94946 0.0
C495 C 0.58297 0.39471 0.96655 0.0
C496 C 0.5932 0.38548 0.92513 0.0
C497 C 0.60317 0.40777 0.91728 0.0
C498 C 0.60288 0.42346 0.9342 0.0
C499 C 0.59308 0.41704 0.95867 0.0
C500 C 0.61346 0.41457 0.89122 0.0
C501 C 0.60331 0.42345 0.87409 0.0
C502 C 0.63222 0.41113 0.88278 0.0
C503 C 0.64435 0.40281 0.90045 0.0
C504 C 0.65382 0.41368 0.92369 0.0
C505 C 0.66452 0.40536 0.94067 0.0
C506 C 0.66608 0.38628 0.93452 0.0
C507 C 0.65715 0.37562 0.91127 0.0
C508 C 0.64634 0.38383 0.89425 0.0
C509 C 0.64902 0.45283 0.77489 0.0
C510 C 0.64708 0.43523 0.75955 0.0
C511 C 0.64446 0.44975 0.80125 0.0
C512 C 0.63771 0.42898 0.81279 0.0
C513 C 0.63725 0.41184 0.79782 0.0
C514 C 0.64184 0.41491 0.77151 0.0
C515 C 0.62938 0.42452 0.83987 0.0
C516 C 0.63982 0.41599 0.85718 0.0
C517 C 0.61078 0.42818 0.84849 0.0
C518 C 0.59797 0.4358 0.8309 0.0
C519 C 0.587 0.42367 0.8088 0.0
C520 C 0.57529 0.43115 0.79208 0.0
C521 C 0.57422 0.45061 0.79741 0.0
C522 C 0.58479 0.4626 0.81951 0.0
C523 C 0.59657 0.45523 0.83625 0.0
H524 H 0.56515 0.45638 0.78444 0.0
H525 H 0.67435 0.37984 0.9477 0.0
H526 H 0.19897 0.60457 0.31287 0.0
H527 H 0.20111 0.61436 0.26747 0.0
H528 H 0.1774 0.54609 0.24734 0.0
H529 H 0.17645 0.53646 0.29302 0.0
H530 H 0.20669 0.57244 0.21151 0.0
H531 H 0.13942 0.56773 0.25349 0.0
H532 H 0.11698 0.5755 0.28617 0.0
H533 H 0.15078 0.64414 0.26404 0.0
H534 H 0.1739 0.63691 0.23166 0.0
H535 H 0.15948 0.58211 0.0906 0.0
H536 H 0.1646 0.57169 0.13397 0.0
H537 H 0.19423 0.63991 0.15719 0.0
H538 H 0.18946 0.6506 0.1137 0.0
H539 H 0.16128 0.61199 0.1907 0.0
H540 H 0.22879 0.61499 0.14783 0.0
H541 H 0.24766 0.6048 0.11324 0.0
H542 H 0.209 0.5363 0.13525 0.0
H543 H 0.18966 0.54604 0.16976 0.0
C544 C 0.19478 0.59177 0.29871 0.0
C545 C 0.18745 0.56977 0.30637 0.0
C546 C 0.19581 0.59733 0.27278 0.0
C547 C 0.18866 0.58087 0.25395 0.0
C548 C 0.18282 0.55907 0.26148 0.0
C549 C 0.18233 0.55358 0.28755 0.0
C550 C 0.18564 0.58628 0.22688 0.0
C551 C 0.19657 0.5809 0.20697 0.0
C552 C 0.17246 0.59738 0.22077 0.0
C553 C 0.1586 0.60181 0.24031 0.0
C554 C 0.14225 0.58453 0.25575 0.0
C555 C 0.1294 0.58884 0.27423 0.0
C556 C 0.13249 0.61031 0.27722 0.0
C557 C 0.1484 0.62751 0.26169 0.0
C558 C 0.16143 0.62333 0.24332 0.0
C559 C 0.16738 0.59502 0.10474 0.0
C560 C 0.17413 0.61729 0.09841 0.0
C561 C 0.17027 0.58898 0.12963 0.0
C562 C 0.18007 0.60503 0.14882 0.0
C563 C 0.18666 0.62722 0.1427 0.0
C564 C 0.1838 0.6333 0.11779 0.0
C565 C 0.18274 0.59864 0.1755 0.0
C566 C 0.17155 0.60369 0.19531 0.0
C567 C 0.19533 0.58697 0.18138 0.0
C568 C 0.20762 0.58122 0.16124 0.0
C569 C 0.22425 0.59774 0.14523 0.0
C570 C 0.23502 0.59205 0.12563 0.0
C571 C 0.22944 0.56991 0.12197 0.0
C572 C 0.21326 0.55344 0.13807 0.0
C573 C 0.20241 0.55904 0.15767 0.0
H574 H 0.23765 0.56549 0.10668 0.0
H575 H 0.12254 0.61361 0.29154 0.0
H576 H 0.81064 0.36522 0.37813 0.0
H577 H 0.78846 0.32701 0.3626 0.0
H578 H 0.73029 0.33877 0.3442 0.0
H579 H 0.75191 0.37638 0.36017 0.0
H580 H 0.71612 0.30116 0.36999 0.0
H581 H 0.76495 0.33744 0.2975 0.0
H582 H 0.80206 0.35943 0.27439 0.0
H583 H 0.82401 0.31086 0.29298 0.0
H584 H 0.78709 0.28867 0.31645 0.0
H585 H 0.64405 0.2251 0.28606 0.0
H586 H 0.68194 0.25831 0.28963 0.0
H587 H 0.70681 0.22279 0.33843 0.0
H588 H 0.66887 0.18946 0.33481 0.0
H589 H 0.74131 0.26975 0.29859 0.0
H590 H 0.68986 0.23787 0.37898 0.0
H591 H 0.64917 0.2165 0.39457 0.0
H592 H 0.62982 0.25958 0.35261 0.0
H593 H 0.67036 0.28107 0.33672 0.0
C594 C 0.79306 0.35952 0.37094 0.0
C595 C 0.78303 0.37379 0.37029 0.0
C596 C 0.78054 0.33783 0.36186 0.0
C597 C 0.75782 0.33017 0.35211 0.0
C598 C 0.74782 0.34438 0.3516 0.0
C599 C 0.76027 0.36594 0.36058 0.0
C600 C 0.74381 0.30713 0.34322 0.0
C601 C 0.72187 0.29432 0.3546 0.0
C602 C 0.75115 0.29819 0.32297 0.0
C603 C 0.77341 0.31156 0.30905 0.0
C604 C 0.77779 0.33156 0.2969 0.0
C605 C 0.79876 0.34404 0.28367 0.0
C606 C 0.81543 0.33661 0.28234 0.0
C607 C 0.81111 0.31663 0.29411 0.0
C608 C 0.79016 0.30409 0.30736 0.0
C609 C 0.65801 0.22413 0.2965 0.0
C610 C 0.65351 0.20499 0.31059 0.0
C611 C 0.6797 0.24299 0.2983 0.0
C612 C 0.69702 0.24293 0.31439 0.0
C613 C 0.69368 0.223 0.32568 0.0
C614 C 0.67197 0.20402 0.32372 0.0
C615 C 0.71406 0.26411 0.32563 0.0
C616 C 0.73621 0.27653 0.3146 0.0
C617 C 0.7069 0.27305 0.34589 0.0
C618 C 0.68303 0.26104 0.35679 0.0
C619 C 0.67691 0.24282 0.37326 0.0
C620 C 0.65389 0.23066 0.38207 0.0
C621 C 0.63694 0.2367 0.3746 0.0
C622 C 0.64299 0.25496 0.35843 0.0
C623 C 0.66597 0.26716 0.34958 0.0
H624 H 0.6191 0.22722 0.38128 0.0
H625 H 0.83165 0.34628 0.27209 0.0
H626 H 0.41252 0.7734 0.75747 0.0
H627 H 0.42095 0.74233 0.7557 0.0
H628 H 0.48214 0.7815 0.70971 0.0
H629 H 0.47326 0.8123 0.71046 0.0
H630 H 0.45308 0.7451 0.68591 0.0
H631 H 0.48671 0.76058 0.76968 0.0
H632 H 0.48884 0.76947 0.8156 0.0
H633 H 0.42568 0.70888 0.82953 0.0
H634 H 0.42308 0.69967 0.7837 0.0
H635 H 0.45221 0.64401 0.66131 0.0
H636 H 0.46844 0.68186 0.6778 0.0
H637 H 0.41124 0.66012 0.73153 0.0
H638 H 0.39547 0.62249 0.71567 0.0
H639 H 0.4489 0.69141 0.75265 0.0
H640 H 0.40913 0.68103 0.67115 0.0
H641 H 0.40237 0.67139 0.62537 0.0
H642 H 0.47203 0.72192 0.60765 0.0
H643 H 0.47928 0.73166 0.65342 0.0
C644 C 0.42799 0.77554 0.74734 0.0
C645 C 0.44187 0.79518 0.73363 0.0
C646 C 0.43301 0.75785 0.74666 0.0
C647 C 0.45221 0.75958 0.73256 0.0
C648 C 0.46725 0.77983 0.72072 0.0
C649 C 0.46216 0.79749 0.72127 0.0
C650 C 0.454 0.73934 0.72645 0.0
C651 C 0.45295 0.73369 0.70053 0.0
C652 C 0.45303 0.72413 0.74552 0.0
C653 C 0.45468 0.72948 0.77319 0.0
C654 C 0.47322 0.74919 0.78251 0.0
C655 C 0.47453 0.75427 0.80854 0.0
C656 C 0.4574 0.73976 0.82547 0.0
C657 C 0.43895 0.7201 0.81641 0.0
C658 C 0.4376 0.7149 0.79042 0.0
C659 C 0.44338 0.64735 0.67689 0.0
C660 C 0.42249 0.63039 0.68702 0.0
C661 C 0.45265 0.6689 0.68634 0.0
C662 C 0.44082 0.67389 0.7056 0.0
C663 C 0.42073 0.65668 0.71673 0.0
C664 C 0.41169 0.63514 0.70758 0.0
C665 C 0.44747 0.69713 0.71221 0.0
C666 C 0.44993 0.70324 0.7381 0.0
C667 C 0.44918 0.71266 0.69318 0.0
C668 C 0.44485 0.70686 0.66569 0.0
C669 C 0.42305 0.68996 0.65749 0.0
C670 C 0.41913 0.6845 0.63156 0.0
C671 C 0.43679 0.69598 0.61363 0.0
C672 C 0.45839 0.713 0.62158 0.0
C673 C 0.46242 0.7185 0.6475 0.0
H674 H 0.43372 0.69173 0.59355 0.0
H675 H 0.45844 0.74373 0.84561 0.0
H676 H 0.64057 0.41569 0.0853 0.0
H677 H 0.6799 0.4232 0.07316 0.0
H678 H 0.68636 0.47694 1.02434 0.0
H679 H 0.64681 0.46939 0.03625 0.0
H680 H 0.6954 0.44856 0.99854 0.0
H681 H 0.72149 0.48718 0.07632 0.0
H682 H 0.72241 0.49474 0.12248 0.0
H683 H 0.73443 0.43949 0.13947 0.0
H684 H 0.73302 0.43123 0.09344 0.0
H685 H 0.809 0.45481 0.96866 0.0
H686 H 0.78046 0.46691 0.9821 0.0
H687 H 0.74705 0.40954 0.0314 0.0
H688 H 0.77481 0.39723 1.01801 0.0
H689 H 0.75801 0.45081 0.05525 0.0
H690 H 0.72466 0.40928 0.97722 0.0
H691 H 0.72377 0.40225 0.93095 0.0
H692 H 0.72542 0.46453 0.91465 0.0
H693 H 0.72719 0.47231 0.96089 0.0
C694 C 0.65054 0.42946 0.07246 0.0
C695 C 0.64047 0.44181 0.06157 0.0
C696 C 0.67311 0.43382 0.06562 0.0
C697 C 0.68611 0.45067 0.04786 0.0
C698 C 0.67663 0.46386 0.03808 0.0
C699 C 0.65405 0.45957 0.045 0.0
C700 C 0.7082 0.45252 0.03736 0.0
C701 C 0.70943 0.44969 1.01088 0.0
C702 C 0.72638 0.45379 0.05349 0.0
C703 C 0.72698 0.45849 0.08132 0.0
C704 C 0.72408 0.47648 0.08987 0.0
C705 C 0.72471 0.4809 0.11604 0.0
C706 C 0.7284 0.46756 0.13389 0.0
C707 C 0.73152 0.44978 0.12561 0.0
C708 C 0.73081 0.44522 0.09947 0.0
C709 C 0.79543 0.44473 0.98219 0.0
C710 C 0.79414 0.42503 0.99217 0.0
C711 C 0.77924 0.45169 0.98988 0.0
C712 C 0.76182 0.43916 1.00786 0.0
C713 C 0.76048 0.4195 1.01765 0.0
C714 C 0.77631 0.41242 1.00977 0.0
C715 C 0.7446 0.44601 1.01677 0.0
C716 C 0.7443 0.45041 0.04293 0.0
C717 C 0.72733 0.44624 1.00036 0.0
C718 C 0.72661 0.44162 0.97255 0.0
C719 C 0.72535 0.42171 0.9638 0.0
C720 C 0.72467 0.41757 0.93756 0.0
C721 C 0.7247 0.433 0.91986 0.0
C722 C 0.72552 0.45264 0.92838 0.0
C723 C 0.72646 0.45696 0.9546 0.0
H724 H 0.72394 0.42966 0.89956 0.0
H725 H 0.72884 0.471 0.15412 0.0
H726 H 0.33344 0.81137 0.35933 0.0
H727 H 0.29517 0.7817 0.37271 0.0
H728 H 0.30648 0.7351 0.32752 0.0
H729 H 0.34423 0.76474 0.31356 0.0
H730 H 0.26158 0.72437 0.32704 0.0
H731 H 0.32367 0.74547 0.39008 0.0
H732 H 0.35379 0.77106 0.41976 0.0
H733 H 0.30157 0.77989 0.46083 0.0
H734 H 0.27116 0.75466 0.431 0.0
H735 H 0.2395 0.62821 0.395 0.0
H736 H 0.26056 0.66767 0.38485 0.0
H737 H 0.19951 0.67426 0.40382 0.0
H738 H 0.17786 0.63439 0.41327 0.0
H739 H 0.25973 0.70927 0.42038 0.0
H740 H 0.19627 0.68127 0.3553 0.0
H741 H 0.17025 0.65097 0.32674 0.0
H742 H 0.23001 0.65163 0.29073 0.0
H743 H 0.25634 0.68175 0.31927 0.0
C744 C 0.32739 0.79495 0.3516 0.0
C745 C 0.34193 0.79023 0.33572 0.0
C746 C 0.30561 0.778 0.35939 0.0
C747 C 0.29819 0.75614 0.35148 0.0
C748 C 0.31187 0.75183 0.33395 0.0
C749 C 0.33353 0.76871 0.32615 0.0
C750 C 0.27787 0.73723 0.36351 0.0
C751 C 0.26086 0.72135 0.34753 0.0
C752 C 0.27694 0.7332 0.39028 0.0
C753 C 0.29522 0.7485 0.40806 0.0
C754 C 0.31865 0.75306 0.40527 0.0
C755 C 0.33577 0.76746 0.42215 0.0
C756 C 0.32963 0.77716 0.44213 0.0
C757 C 0.30632 0.77244 0.44528 0.0
C758 C 0.28914 0.75812 0.42837 0.0
C759 C 0.23053 0.63801 0.39712 0.0
C760 C 0.20691 0.62811 0.40452 0.0
C761 C 0.24264 0.66055 0.39154 0.0
C762 C 0.23145 0.67366 0.39346 0.0
C763 C 0.20832 0.66426 0.40226 0.0
C764 C 0.19607 0.64155 0.40773 0.0
C765 C 0.24378 0.69662 0.38387 0.0
C766 C 0.25958 0.71302 0.40017 0.0
C767 C 0.24395 0.701 0.3574 0.0
C768 C 0.22822 0.68365 0.33947 0.0
C769 C 0.20383 0.6749 0.34132 0.0
C770 C 0.18904 0.65778 0.32515 0.0
C771 C 0.19848 0.64937 0.307 0.0
C772 C 0.22273 0.65818 0.3048 0.0
C773 C 0.23759 0.67529 0.32093 0.0
H774 H 0.18702 0.63598 0.2947 0.0
H775 H 0.3429 0.78829 0.45518 0.0
H776 H 0.60397 0.37308 0.65241 0.0
H777 H 0.5879 0.33369 0.64535 0.0
H778 H 0.52046 0.32298 0.67209 0.0
H779 H 0.53636 0.36278 0.67882 0.0
H780 H 0.53661 0.30015 0.69966 0.0
H781 H 0.5258 0.3078 0.61162 0.0
H782 H 0.535 0.32365 0.56804 0.0
H783 H 0.59193 0.30837 0.56345 0.0
H784 H 0.58339 0.29277 0.60715 0.0
H785 H 0.52554 0.19239 0.70745 0.0
H786 H 0.51466 0.22021 0.69236 0.0
H787 H 0.58264 0.25714 0.65733 0.0
H788 H 0.59299 0.22891 0.67073 0.0
H789 H 0.55087 0.26039 0.62865 0.0
H790 H 0.57035 0.26716 0.72019 0.0
H791 H 0.56432 0.25349 0.76485 0.0
H792 H 0.49385 0.24376 0.76281 0.0
H793 H 0.49944 0.25718 0.71802 0.0
C794 C 0.58553 0.36263 0.65602 0.0
C795 C 0.57162 0.37122 0.66671 0.0
C796 C 0.57629 0.33996 0.65183 0.0
C797 C 0.55295 0.32537 0.65813 0.0
C798 C 0.53854 0.33397 0.6671 0.0
C799 C 0.54775 0.35672 0.67118 0.0
C800 C 0.54525 0.3013 0.65966 0.0
C801 C 0.53894 0.29117 0.68387 0.0
C802 C 0.54863 0.28972 0.63917 0.0
C803 C 0.55396 0.29915 0.6128 0.0
C804 C 0.5404 0.30796 0.60143 0.0
C805 C 0.54549 0.31689 0.57666 0.0
C806 C 0.56405 0.31703 0.56299 0.0
C807 C 0.57755 0.30823 0.57405 0.0
C808 C 0.57256 0.29931 0.59882 0.0
C809 C 0.53798 0.20619 0.69609 0.0
C810 C 0.5604 0.20869 0.69095 0.0
C811 C 0.53177 0.22213 0.68757 0.0
C812 C 0.548 0.24097 0.67414 0.0
C813 C 0.56986 0.24283 0.6678 0.0
C814 C 0.57592 0.22681 0.67593 0.0
C815 C 0.54365 0.26001 0.6689 0.0
C816 C 0.54763 0.26909 0.64408 0.0
C817 C 0.53853 0.27089 0.68888 0.0
C818 C 0.5352 0.26286 0.71573 0.0
C819 C 0.55353 0.26196 0.72925 0.0
C820 C 0.5502 0.25429 0.75456 0.0
C821 C 0.52868 0.24768 0.76662 0.0
C822 C 0.51048 0.24882 0.75341 0.0
C823 C 0.51371 0.25645 0.72808 0.0
H824 H 0.52614 0.24175 0.78623 0.0
H825 H 0.56795 0.32395 0.54382 0.0
H826 H 0.2237 0.58037 0.95847 0.0
H827 H 0.25233 0.571 0.97816 0.0
H828 H 0.22023 0.56524 0.05199 0.0
H829 H 0.19174 0.57453 0.03263 0.0
H830 H 0.26617 0.59374 0.05301 0.0
H831 H 0.21793 0.51999 1.02447 0.0
H832 H 0.19462 0.49059 0.9937 0.0
H833 H 0.25584 0.50871 0.94768 0.0
H834 H 0.27947 0.53844 0.97797 0.0
H835 H 0.35848 0.58002 0.10804 0.0
H836 H 0.3177 0.56973 0.0975 0.0
H837 H 0.33302 0.56976 1.01714 0.0
H838 H 0.37313 0.57917 0.02743 0.0
H839 H 0.29057 0.53844 1.02594 0.0
H840 H 0.33584 0.61646 0.04781 0.0
H841 H 0.35995 0.64756 0.07635 0.0
H842 H 0.30493 0.62283 0.1324 0.0
H843 H 0.28071 0.59139 0.10432 0.0
C844 C 0.22242 0.57659 0.97877 0.0
C845 C 0.20564 0.57848 0.994 0.0
C846 C 0.23874 0.57118 0.99 0.0
C847 C 0.23841 0.56746 1.01657 0.0
C848 C 0.22085 0.56812 0.0315 0.0
C849 C 0.20459 0.57347 1.02034 0.0
C850 C 0.25784 0.56541 0.02918 0.0
C851 C 0.27118 0.58131 0.0475 0.0
C852 C 0.26459 0.54945 1.02171 0.0
C853 C 0.25045 0.53156 1.00343 0.0
C854 C 0.2264 0.51783 1.00768 0.0
C855 C 0.21313 0.50108 0.99034 0.0
C856 C 0.22373 0.49781 0.96873 0.0
C857 C 0.24764 0.51126 0.96443 0.0
C858 C 0.26099 0.52805 0.9817 0.0
C859 C 0.35299 0.57738 0.08819 0.0
C860 C 0.36916 0.58079 0.06857 0.0
C861 C 0.32972 0.5716 0.08218 0.0
C862 C 0.32241 0.5694 0.05647 0.0
C863 C 0.3382 0.5714 0.03709 0.0
C864 C 0.36126 0.57697 0.04305 0.0
C865 C 0.29924 0.56717 0.04916 0.0
C866 C 0.2852 0.55052 0.03184 0.0
C867 C 0.29197 0.58265 0.05724 0.0
C868 C 0.30656 0.6015 0.07411 0.0
C869 C 0.32897 0.6176 0.0663 0.0
C870 C 0.34266 0.63528 0.08238 0.0
C871 C 0.33401 0.63714 0.1062 0.0
C872 C 0.31164 0.62135 0.11397 0.0
C873 C 0.29792 0.6036 0.09798 0.0
H874 H 0.34463 0.65085 0.11862 0.0
H875 H 0.21343 0.48483 0.95533 0.0
H876 H 0.49859 0.08047 0.30204 0.0
H877 H 0.49012 0.04182 0.30334 0.0
H878 H 0.5186 0.05076 0.37976 0.0
H879 H 0.52768 0.08982 0.3782 0.0
H880 H 0.53369 0.02816 0.35366 0.0
H881 H 0.45815 0.02102 0.36755 0.0
H882 H 0.42399 0.02705 0.36012 0.0
H883 H 0.41352 0.99665 0.28628 0.0
H884 H 0.44782 0.99071 0.29311 0.0
H885 H 0.48588 0.90898 0.36686 0.0
H886 H 0.49332 0.94728 0.37349 0.0
H887 H 0.4823 0.95332 0.29297 0.0
H888 H 0.47501 0.9153 0.28626 0.0
H889 H 0.45691 0.96723 0.32657 0.0
H890 H 0.53544 0.97726 0.31357 0.0
H891 H 0.56889 0.97067 0.3234 0.0
H892 H 0.57197 0.9947 0.39977 0.0
H893 H 0.5383 1.00114 0.39048 0.0
C894 C 0.50272 0.07415 0.31928 0.0
C895 C 0.51364 0.08817 0.34011 0.0
C896 C 0.49785 0.05199 0.32003 0.0
C897 C 0.50331 0.04316 0.34183 0.0
C898 C 0.51416 0.05712 0.36273 0.0
C899 C 0.51933 0.07942 0.36185 0.0
C900 C 0.49844 0.01961 0.34225 0.0
C901 C 0.51674 0.01481 0.34821 0.0
C902 C 0.47639 0.00209 0.33498 0.0
C903 C 0.45569 0.00558 0.33078 0.0
C904 C 0.44867 0.01576 0.34965 0.0
C905 C 0.42926 0.01914 0.34555 0.0
C906 C 0.41662 0.01228 0.32272 0.0
C907 C 0.42333 0.00197 0.30395 0.0
C908 C 0.44275 0.99857 0.30794 0.0
C909 C 0.48515 0.91856 0.35062 0.0
C910 C 0.48002 0.90921 0.32604 0.0
C911 C 0.48945 0.9404 0.3544 0.0
C912 C 0.48837 0.9531 0.33369 0.0
C913 C 0.48322 0.94378 0.30918 0.0
C914 C 0.47928 0.92213 0.30534 0.0
C915 C 0.49225 0.97604 0.33743 0.0
C916 C 0.47373 0.98063 0.33229 0.0
C917 C 0.51393 0.99326 0.34588 0.0
C918 C 0.53418 0.98943 0.35143 0.0
C919 C 0.54311 0.98094 0.33254 0.0
C920 C 0.56214 0.97727 0.33799 0.0
C921 C 0.5725 0.98219 0.36222 0.0
C922 C 0.5639 0.99085 0.38102 0.0
C923 C 0.54485 0.99453 0.37567 0.0
H924 H 0.58724 0.97936 0.36641 0.0
H925 H 0.4016 0.01491 0.31959 0.0
H926 H 0.40952 0.4791 0.6573 0.0
H927 H 0.44657 0.47828 0.65874 0.0
H928 H 0.48133 0.54601 0.68449 0.0
H929 H 0.44464 0.54748 0.68167 0.0
H930 H 0.50716 0.54076 0.65018 0.0
H931 H 0.46848 0.50152 0.72591 0.0
H932 H 0.43634 0.47362 0.75209 0.0
H933 H 0.43923 0.4214 0.7099 0.0
H934 H 0.47118 0.449 0.68322 0.0
H935 H 0.60967 0.53256 0.69098 0.0
H936 H 0.57485 0.53778 0.68966 0.0
H937 H 0.53675 0.47532 0.65106 0.0
H938 H 0.57149 0.47025 0.65152 0.0
H939 H 0.51394 0.47976 0.69469 0.0
H940 H 0.55267 0.52087 0.61815 0.0
H941 H 0.58565 0.54982 0.59389 0.0
H942 H 0.58375 0.6 0.6411 0.0
H943 H 0.55095 0.5713 0.66588 0.0
C944 C 0.42497 0.49394 0.66306 0.0
C945 C 0.42382 0.51335 0.66938 0.0
C946 C 0.44619 0.49334 0.66418 0.0
C947 C 0.46671 0.51197 0.67213 0.0
C948 C 0.46571 0.53138 0.67841 0.0
C949 C 0.44455 0.53209 0.67702 0.0
C950 C 0.48925 0.51127 0.67341 0.0
C951 C 0.50872 0.52761 0.66028 0.0
C952 C 0.4913 0.49402 0.68637 0.0
C953 C 0.4721 0.47735 0.70241 0.0
C954 C 0.46215 0.48409 0.72209 0.0
C955 C 0.44398 0.46833 0.73704 0.0
C956 C 0.43571 0.44575 0.73263 0.0
C957 C 0.44564 0.43889 0.71328 0.0
C958 C 0.46379 0.45459 0.69826 0.0
C959 C 0.59406 0.52012 0.68176 0.0
C960 C 0.59339 0.50084 0.67162 0.0
C961 C 0.57414 0.5231 0.68114 0.0
C962 C 0.55323 0.50685 0.6704 0.0
C963 C 0.55268 0.48793 0.65966 0.0
C964 C 0.57257 0.48504 0.66007 0.0
C965 C 0.53157 0.509 0.67116 0.0
C966 C 0.51233 0.49296 0.68475 0.0
C967 C 0.52986 0.52668 0.65897 0.0
C968 C 0.54953 0.54392 0.64404 0.0
C969 C 0.55942 0.53806 0.62351 0.0
C970 C 0.57805 0.55443 0.60963 0.0
C971 C 0.58683 0.57673 0.616 0.0
C972 C 0.57696 0.58272 0.63621 0.0
C973 C 0.55834 0.56641 0.65017 0.0
H974 H 0.60125 0.58938 0.60523 0.0
H975 H 0.42165 0.43358 0.74423 0.0
H976 H 0.90081 0.46885 1.02213 0.0
H977 H 0.94245 0.49355 1.01518 0.0
H978 H 0.94557 0.44653 0.963 0.0
H979 H 0.9038 0.42159 0.96992 0.0
H980 H 0.98168 0.46196 0.99746 0.0
H981 H 0.94723 0.49346 0.94022 0.0
H982 H 0.92091 0.50869 0.92781 0.0
H983 H 0.95433 0.56109 0.98228 0.0
H984 H 0.98064 0.54599 0.99529 0.0
H985 H 0.09723 0.53416 0.95488 0.0
H986 H 0.05498 0.50962 0.95579 0.0
H987 H 0.04601 0.55584 1.00413 0.0
H988 H 0.08816 0.58067 1.00287 0.0
H989 H 0.01256 0.54016 0.96926 0.0
H990 H 0.04522 0.50822 0.02844 0.0
H991 H 0.07123 0.49308 0.04245 0.0
H992 H 0.04095 0.44173 0.98623 0.0
H993 H 0.01497 0.45676 0.97164 0.0
C994 C 0.91027 0.46376 1.00904 0.0
C995 C 0.89891 0.44321 0.99655 0.0
C996 C 0.9341 0.47798 1.00502 0.0
C997 C 0.94714 0.47201 0.9884 0.0
C998 C 0.93587 0.45151 0.97587 0.0
C999 C 0.91196 0.43731 0.97978 0.0
C1000 C 0.97265 0.48693 0.9847 0.0
C1001 C 0.98842 0.47895 0.99086 0.0
C1002 C 0.9815 0.50928 0.97675 0.0
C1003 C 0.96577 0.51847 0.96888 0.0
C1004 C 0.94885 0.50813 0.9497 0.0
C1005 C 0.93395 0.51676 0.94253 0.0
C1006 C 0.93591 0.53582 0.95429 0.0
C1007 C 0.95281 0.54632 0.97321 0.0
C1008 C 0.96774 0.53774 0.98046 0.0
C1009 C 0.08628 0.53918 0.96561 0.0
C1010 C 0.09616 0.55938 0.9789 0.0
C1011 C 0.06209 0.52505 0.96622 0.0
C1012 C 0.04727 0.53068 0.98036 0.0
C1013 C 0.05704 0.55108 0.99312 0.0
C1014 C 0.08119 0.56526 0.99243 0.0
C1015 C 0.02165 0.51524 0.98215 0.0
C1016 C 0.00584 0.52313 0.97568 0.0
C1017 C 0.01275 0.49284 0.99002 0.0
C1018 C 0.02834 0.48376 0.99876 0.0
C1019 C 0.04425 0.49381 1.01892 0.0
C1020 C 0.05896 0.48523 0.02699 0.0
C1021 C 0.05779 0.46649 1.01518 0.0
C1022 C 0.04186 0.45627 0.99533 0.0
C1023 C 0.02713 0.4648 0.98716 0.0
H1024 H 0.06919 0.45987 1.02146 0.0
H1025 H 0.92436 0.54247 0.94872 0.0
H1026 H 0.06647 0.47044 0.37398 0.0
H1027 H 0.02756 0.46778 0.37187 0.0
H1028 H 0.05809 0.53856 0.38102 0.0
H1029 H 0.09677 0.54125 0.38433 0.0
H1030 H 0.02126 0.51836 0.41071 0.0
H1031 H 0.0382 0.5135 0.32238 0.0
H1032 H 0.04948 0.49863 0.28523 0.0
H1033 H 0.98986 0.43489 0.29751 0.0
H1034 H 0.97839 0.44931 0.33498 0.0
H1035 H 0.92297 0.53136 0.37386 0.0
H1036 H 0.96153 0.53323 0.37374 0.0
H1037 H 0.92924 0.46191 0.37302 0.0
H1038 H 0.89067 0.45977 0.37378 0.0
H1039 H 0.9665 0.48189 0.33879 0.0
H1040 H 0.94993 0.48744 0.42738 0.0
H1041 H 0.93886 0.50295 0.46409 0.0
H1042 H 0.99839 0.56648 0.45044 0.0
H1043 H 0.00963 0.55142 0.4134 0.0
C1044 C 0.06492 0.48542 0.37572 0.0
C1045 C 0.08486 0.50607 0.37921 0.0
C1046 C 0.04266 0.4839 0.37423 0.0
C1047 C 0.03994 0.50302 0.37596 0.0
C1048 C 0.05978 0.5236 0.37953 0.0
C1049 C 0.08197 0.52512 0.38115 0.0
C1050 C 0.01641 0.50161 0.37468 0.0
C1051 C 0.00943 0.51066 0.3948 0.0
C1052 C 0.00076 0.49113 0.35419 0.0
C1053 C 0.00758 0.48243 0.33164 0.0
C1054 C 0.0276 0.49626 0.31728 0.0
C1055 C 0.03401 0.48793 0.29615 0.0
C1056 C 0.02043 0.46581 0.28906 0.0
C1057 C 0.00038 0.45201 0.30305 0.0
C1058 C 0.99391 0.46026 0.32422 0.0
C1059 C 0.92398 0.51604 0.37384 0.0
C1060 C 0.90357 0.49542 0.37397 0.0
C1061 C 0.94607 0.51716 0.37365 0.0
C1062 C 0.94819 0.4977 0.37356 0.0
C1063 C 0.92795 0.47712 0.37301 0.0
C1064 C 0.90586 0.47596 0.37335 0.0
C1065 C 0.97153 0.49878 0.37471 0.0
C1066 C 0.97841 0.48963 0.35464 0.0
C1067 C 0.98717 0.50928 0.39515 0.0
C1068 C 0.98048 0.51835 0.41746 0.0
C1069 C 0.96055 0.50476 0.43208 0.0
C1070 C 0.95426 0.51346 0.45297 0.0
C1071 C 0.96788 0.5357 0.45955 0.0
C1072 C 0.98784 0.54927 0.44529 0.0
C1073 C 0.99419 0.54065 0.42436 0.0
H1074 H 0.96299 0.5424 0.47574 0.0
H1075 H 0.02542 0.45939 0.27269 0.0
H1076 H 0.55132 0.09495 0.69884 0.0
H1077 H 0.51969 0.05714 0.69553 0.0
H1078 H 0.55083 0.03651 0.75595 0.0
H1079 H 0.58319 0.07418 0.75864 0.0
H1080 H 0.53442 0.00612 0.71943 0.0
H1081 H 0.50431 0.04665 0.7674 0.0
H1082 H 0.49524 0.0772 0.77554 0.0
H1083 H 0.45155 0.0596 0.70867 0.0
H1084 H 0.46062 0.02912 0.69992 0.0
H1085 H 0.43419 0.90443 0.74945 0.0
H1086 H 0.46622 0.94222 0.75275 0.0
H1087 H 0.43749 0.96243 0.68955 0.0
H1088 H 0.40562 0.92469 0.68585 0.0
H1089 H 0.45258 0.99291 0.72778 0.0
H1090 H 0.4828 0.95231 0.68 0.0
H1091 H 0.49171 0.92161 0.6722 0.0
H1092 H 0.53513 0.93927 0.73929 0.0
H1093 H 0.52619 0.96988 0.74771 0.0
C1094 C 0.55178 0.0824 0.71116 0.0
C1095 C 0.56987 0.08779 0.72916 0.0
C1096 C 0.53345 0.06075 0.70944 0.0
C1097 C 0.5326 0.04403 0.72585 0.0
C1098 C 0.55099 0.04915 0.74322 0.0
C1099 C 0.56941 0.07078 0.74487 0.0
C1100 C 0.51234 0.02133 0.72521 0.0
C1101 C 0.51655 0.00322 0.72161 0.0
C1102 C 0.48896 0.01752 0.72754 0.0
C1103 C 0.48332 0.03573 0.73288 0.0
C1104 C 0.49289 0.04939 0.75433 0.0
C1105 C 0.48774 0.06668 0.75907 0.0
C1106 C 0.47288 0.07038 0.7426 0.0
C1107 C 0.46308 0.05674 0.72139 0.0
C1108 C 0.46821 0.03944 0.71655 0.0
C1109 C 0.43466 0.91686 0.7362 0.0
C1110 C 0.41733 0.91134 0.71723 0.0
C1111 C 0.45299 0.93849 0.73815 0.0
C1112 C 0.45444 0.95509 0.72115 0.0
C1113 C 0.43674 0.94989 0.70285 0.0
C1114 C 0.41842 0.92825 0.70085 0.0
C1115 C 0.47469 0.97775 0.72203 0.0
C1116 C 0.47046 0.99583 0.72566 0.0
C1117 C 0.49805 0.98152 0.71978 0.0
C1118 C 0.50363 0.96325 0.71463 0.0
C1119 C 0.4941 0.94954 0.6932 0.0
C1120 C 0.49918 0.93217 0.68865 0.0
C1121 C 0.51393 0.92845 0.70528 0.0
C1122 C 0.52368 0.94215 0.72645 0.0
C1123 C 0.51863 0.95952 0.73111 0.0
H1124 H 0.51783 0.91499 0.70173 0.0
H1125 H 0.46891 0.08378 0.74629 0.0
H1126 H 0.47527 0.57167 0.034 0.0
H1127 H 0.49091 0.54552 0.03234 0.0
H1128 H 0.4721 0.52793 0.11152 0.0
H1129 H 0.45668 0.55436 0.11346 0.0
H1130 H 0.51517 0.53279 0.10171 0.0
H1131 H 0.43913 0.49364 0.06364 0.0
H1132 H 0.40732 0.48827 0.03382 0.0
H1133 H 0.45159 0.49491 0.9698 0.0
H1134 H 0.48379 0.50063 0.99924 0.0
H1135 H 0.53378 0.43768 0.09646 0.0
H1136 H 0.51653 0.4624 0.10236 0.0
H1137 H 0.52953 0.48195 1.02284 0.0
H1138 H 0.54619 0.45702 1.01669 0.0
H1139 H 0.48739 0.47454 0.0352 0.0
H1140 H 0.56396 0.51558 0.07276 0.0
H1141 H 0.5962 0.52153 0.10222 0.0
H1142 H 0.5514 0.51172 0.16675 0.0
H1143 H 0.51879 0.50543 0.13765 0.0
C1144 C 0.47444 0.56227 0.0511 0.0
C1145 C 0.46458 0.56507 0.07384 0.0
C1146 C 0.48332 0.54723 0.05009 0.0
C1147 C 0.48239 0.53449 0.0717 0.0
C1148 C 0.47295 0.53751 0.09457 0.0
C1149 C 0.46407 0.5526 0.09562 0.0
C1150 C 0.49126 0.51803 0.07032 0.0
C1151 C 0.50884 0.51983 0.08743 0.0
C1152 C 0.48333 0.50135 0.05141 0.0
C1153 C 0.46393 0.49775 0.03365 0.0
C1154 C 0.44214 0.49411 0.0432 0.0
C1155 C 0.42403 0.49098 1.02637 0.0
C1156 C 0.42745 0.4913 0.99993 0.0
C1157 C 0.44897 0.49469 0.99028 0.0
C1158 C 0.46715 0.49785 1.00703 0.0
C1159 C 0.533 0.44729 0.08026 0.0
C1160 C 0.54139 0.44536 0.05611 0.0
C1161 C 0.52321 0.46149 0.08367 0.0
C1162 C 0.5219 0.47426 0.0631 0.0
C1163 C 0.53027 0.47229 0.03901 0.0
C1164 C 0.53987 0.45802 0.03555 0.0
C1165 C 0.5116 0.48948 0.06632 0.0
C1166 C 0.49367 0.48742 0.04959 0.0
C1167 C 0.51927 0.50595 0.08552 0.0
C1168 C 0.53887 0.5098 0.10303 0.0
C1169 C 0.56094 0.51453 0.09323 0.0
C1170 C 0.57929 0.51799 0.10986 0.0
C1171 C 0.57583 0.51694 0.13634 0.0
C1172 C 0.55404 0.51249 0.14624 0.0
C1173 C 0.53562 0.50899 0.12969 0.0
H1174 H 0.59006 0.51962 0.14918 0.0
H1175 H 0.41341 0.48888 0.98693 0.0
H1176 H 0.58168 0.21133 0.25264 0.0
H1177 H 0.57996 0.23953 0.22516 0.0
H1178 H 0.54307 0.25413 0.28417 0.0
H1179 H 0.54513 0.22599 0.31223 0.0
H1180 H 0.52267 0.24717 0.23241 0.0
H1181 H 0.59576 0.28997 0.27569 0.0
H1182 H 0.6348 0.2976 0.29122 0.0
H1183 H 0.65756 0.29882 0.21384 0.0
H1184 H 0.61851 0.29079 0.19785 0.0
H1185 H 0.52484 0.33875 0.1672 0.0
H1186 H 0.52902 0.31503 0.19969 0.0
H1187 H 0.58141 0.31023 0.15339 0.0
H1188 H 0.57771 0.33465 0.12109 0.0
H1189 H 0.594 0.31295 0.20096 0.0
H1190 H 0.52245 0.26775 0.15701 0.0
H1191 H 0.48329 0.25724 0.13936 0.0
H1192 H 0.45753 0.25756 0.21491 0.0
H1193 H 0.49665 0.26837 0.23298 0.0
C1194 C 0.57322 0.22053 0.25989 0.0
C1195 C 0.56348 0.21635 0.28465 0.0
C1196 C 0.57234 0.23673 0.24414 0.0
C1197 C 0.56146 0.249 0.2526 0.0
C1198 C 0.55158 0.24486 0.27727 0.0
C1199 C 0.55283 0.22885 0.2933 0.0
C1200 C 0.56013 0.26577 0.23526 0.0
C1201 C 0.5382 0.26181 0.2259 0.0
C1202 C 0.58049 0.2844 0.22605 0.0
C1203 C 0.60412 0.28959 0.23558 0.0
C1204 C 0.60903 0.29169 0.26198 0.0
C1205 C 0.63117 0.29611 0.27087 0.0
C1206 C 0.64864 0.29864 0.25353 0.0
C1207 C 0.64401 0.29683 0.22725 0.0
C1208 C 0.62187 0.29236 0.21826 0.0
C1209 C 0.53722 0.33261 0.1639 0.0
C1210 C 0.55075 0.33839 0.14139 0.0
C1211 C 0.53958 0.31897 0.18251 0.0
C1212 C 0.55514 0.31029 0.17887 0.0
C1213 C 0.56919 0.31657 0.15672 0.0
C1214 C 0.56709 0.33055 0.13822 0.0
C1215 C 0.55643 0.29444 0.19797 0.0
C1216 C 0.57838 0.29847 0.20758 0.0
C1217 C 0.53609 0.27561 0.2071 0.0
C1218 C 0.51254 0.2691 0.19631 0.0
C1219 C 0.50848 0.26575 0.16984 0.0
C1220 C 0.48628 0.25971 0.15976 0.0
C1221 C 0.46795 0.2568 0.176 0.0
C1222 C 0.47176 0.25986 0.20236 0.0
C1223 C 0.49394 0.26593 0.21253 0.0
H1224 H 0.45077 0.25212 0.16816 0.0
H1225 H 0.66576 0.30204 0.26045 0.0
H1226 H 0.2648 0.56331 0.41614 0.0
H1227 H 0.28338 0.56034 0.45577 0.0
H1228 H 0.21542 0.51716 0.48786 0.0
H1229 H 0.19692 0.51925 0.44791 0.0
H1230 H 0.28253 0.57419 0.49987 0.0
H1231 H 0.21794 0.4852 0.53554 0.0
H1232 H 0.193 0.44816 0.51752 0.0
H1233 H 0.23681 0.46532 0.45082 0.0
H1234 H 0.26218 0.50234 0.46858 0.0
H1235 H 0.30386 0.57064 0.63086 0.0
H1236 H 0.28345 0.56621 0.59014 0.0
H1237 H 0.30303 0.51676 0.56736 0.0
H1238 H 0.32245 0.52036 0.6086 0.0
H1239 H 0.26235 0.50533 0.54927 0.0
H1240 H 0.33402 0.5731 0.54759 0.0
H1241 H 0.36358 0.60972 0.56291 0.0
H1242 H 0.31383 0.63422 0.55597 0.0
H1243 H 0.28386 0.59764 0.54094 0.0
C1244 C 0.25386 0.5528 0.43146 0.0
C1245 C 0.22939 0.54145 0.42878 0.0
C1246 C 0.26449 0.55121 0.45421 0.0
C1247 C 0.25091 0.53845 0.47497 0.0
C1248 C 0.22645 0.52673 0.47209 0.0
C1249 C 0.21584 0.52799 0.44917 0.0
C1250 C 0.26218 0.53858 0.50006 0.0
C1251 C 0.27812 0.55907 0.51055 0.0
C1252 C 0.25688 0.51892 0.51405 0.0
C1253 C 0.24182 0.49662 0.5033 0.0
C1254 C 0.2223 0.48103 0.51707 0.0
C1255 C 0.20808 0.46005 0.5069 0.0
C1256 C 0.21327 0.45441 0.48301 0.0
C1257 C 0.23275 0.46973 0.46928 0.0
C1258 C 0.24704 0.49073 0.47937 0.0
C1259 C 0.30351 0.55858 0.61733 0.0
C1260 C 0.3149 0.54596 0.62292 0.0
C1261 C 0.29198 0.55617 0.59393 0.0
C1262 C 0.29219 0.54158 0.57524 0.0
C1263 C 0.30265 0.52822 0.5813 0.0
C1264 C 0.31378 0.53029 0.60494 0.0
C1265 C 0.28242 0.54093 0.5491 0.0
C1266 C 0.26676 0.5204 0.53848 0.0
C1267 C 0.28862 0.56049 0.53453 0.0
C1268 C 0.30664 0.58257 0.54335 0.0
C1269 C 0.32935 0.58626 0.54947 0.0
C1270 C 0.34618 0.60701 0.55809 0.0
C1271 C 0.34057 0.62427 0.56047 0.0
C1272 C 0.31814 0.62083 0.55415 0.0
C1273 C 0.30123 0.6001 0.54556 0.0
H1274 H 0.35362 0.64032 0.56716 0.0
H1275 H 0.20224 0.43816 0.47516 0.0
H1276 H 0.7769 0.34869 0.91488 0.0
H1277 H 0.75198 0.32719 0.87934 0.0
H1278 H 0.77018 0.27527 0.89458 0.0
H1279 H 0.79461 0.29625 0.93026 0.0
H1280 H 0.77409 0.28613 0.84373 0.0
H1281 H 0.71687 0.26954 0.91119 0.0
H1282 H 0.69621 0.27925 0.94419 0.0
H1283 H 0.67439 0.31121 0.88717 0.0
H1284 H 0.69518 0.30191 0.85387 0.0
H1285 H 0.69282 0.19559 0.77259 0.0
H1286 H 0.71678 0.22128 0.80564 0.0
H1287 H 0.68534 0.26322 0.78915 0.0
H1288 H 0.66054 0.23698 0.75653 0.0
H1289 H 0.68886 0.2611 0.83826 0.0
H1290 H 0.74324 0.27684 0.77039 0.0
H1291 H 0.76454 0.26905 0.73636 0.0
H1292 H 0.79291 0.24179 0.79205 0.0
H1293 H 0.77153 0.24915 0.8264 0.0
C1294 C 0.77543 0.3326 0.91095 0.0
C1295 C 0.78807 0.32441 0.92557 0.0
C1296 C 0.76117 0.32031 0.8905 0.0
C1297 C 0.75917 0.29956 0.8842 0.0
C1298 C 0.77155 0.29129 0.89887 0.0
C1299 C 0.78566 0.30345 0.91932 0.0
C1300 C 0.74461 0.28646 0.86212 0.0
C1301 C 0.7554 0.28047 0.84266 0.0
C1302 C 0.72039 0.27977 0.86011 0.0
C1303 C 0.70779 0.28524 0.8801 0.0
C1304 C 0.70782 0.27878 0.90573 0.0
C1305 C 0.69606 0.28418 0.92448 0.0
C1306 C 0.68406 0.2959 0.91779 0.0
C1307 C 0.68373 0.30217 0.89233 0.0
C1308 C 0.69548 0.29682 0.87351 0.0
C1309 C 0.69107 0.21035 0.7758 0.0
C1310 C 0.6748 0.21423 0.7617 0.0
C1311 C 0.70493 0.22516 0.79471 0.0
C1312 C 0.70332 0.24455 0.79974 0.0
C1313 C 0.68705 0.24847 0.78569 0.0
C1314 C 0.67293 0.23348 0.76693 0.0
C1315 C 0.71824 0.2603 0.82004 0.0
C1316 C 0.70756 0.26686 0.83914 0.0
C1317 C 0.74269 0.26783 0.82154 0.0
C1318 C 0.75562 0.26339 0.80095 0.0
C1319 C 0.75389 0.26904 0.77536 0.0
C1320 C 0.766 0.26472 0.75602 0.0
C1321 C 0.78003 0.25489 0.76203 0.0
C1322 C 0.78202 0.24939 0.78742 0.0
C1323 C 0.76993 0.25366 0.80684 0.0
H1324 H 0.78939 0.25156 0.74702 0.0
H1325 H 0.67497 0.30007 0.93234 0.0
H1326 H 0.49515 0.6973 0.12971 0.0
H1327 H 0.49051 0.7184 0.16444 0.0
H1328 H 0.4169 0.67209 0.1686 0.0
H1329 H 0.42146 0.65054 0.13377 0.0
H1330 H 0.4256 0.71574 0.17312 0.0
H1331 H 0.45317 0.66904 0.21242 0.0
H1332 H 0.47917 0.65217 0.21774 0.0
H1333 H 0.53778 0.71647 0.22966 0.0
H1334 H 0.51219 0.73377 0.22405 0.0
H1335 H 0.41446 0.76143 0.29182 0.0
H1336 H 0.41313 0.73566 0.25881 0.0
H1337 H 0.48833 0.77166 0.25207 0.0
H1338 H 0.48981 0.79697 0.2855 0.0
H1339 H 0.47538 0.72974 0.2503 0.0
H1340 H 0.44905 0.77682 0.20789 0.0
H1341 H 0.42375 0.79435 0.2016 0.0
H1342 H 0.36362 0.73025 0.19482 0.0
H1343 H 0.38853 0.71234 0.2014 0.0
C1344 C 0.47795 0.6914 0.13803 0.0
C1345 C 0.45876 0.67191 0.12907 0.0
C1346 C 0.47532 0.70359 0.15792 0.0
C1347 C 0.45345 0.69666 0.16954 0.0
C1348 C 0.434 0.67773 0.16005 0.0
C1349 C 0.43663 0.66544 0.14006 0.0
C1350 C 0.45128 0.7091 0.19185 0.0
C1351 C 0.43618 0.71849 0.19019 0.0
C1352 C 0.46537 0.71307 0.214 0.0
C1353 C 0.48078 0.70271 0.21762 0.0
C1354 C 0.47164 0.6796 0.216 0.0
C1355 C 0.4863 0.66996 0.2191 0.0
C1356 C 0.51012 0.68325 0.22399 0.0
C1357 C 0.51933 0.7062 0.22586 0.0
C1358 C 0.50475 0.71593 0.22275 0.0
C1359 C 0.43073 0.76378 0.28341 0.0
C1360 C 0.45224 0.78136 0.29135 0.0
C1361 C 0.42994 0.74909 0.26436 0.0
C1362 C 0.4506 0.75183 0.25249 0.0
C1363 C 0.4721 0.76911 0.2608 0.0
C1364 C 0.47292 0.78364 0.27997 0.0
C1365 C 0.45005 0.73686 0.23143 0.0
C1366 C 0.46464 0.72691 0.23334 0.0
C1367 C 0.43558 0.7325 0.20948 0.0
C1368 C 0.42061 0.74325 0.20542 0.0
C1369 C 0.43041 0.76647 0.20524 0.0
C1370 C 0.41614 0.77647 0.2016 0.0
C1371 C 0.39208 0.76342 0.19789 0.0
C1372 C 0.38225 0.74034 0.19774 0.0
C1373 C 0.39643 0.73025 0.20141 0.0
H1374 H 0.38107 0.77119 0.19508 0.0
H1375 H 0.52145 0.67575 0.22637 0.0
H1376 H 0.7239 0.49076 0.63601 0.0
H1377 H 0.74063 0.48912 0.59465 0.0
H1378 H 0.67345 0.43699 0.57073 0.0
H1379 H 0.6569 0.43799 0.61229 0.0
H1380 H 0.70558 0.42769 0.5552 0.0
H1381 H 0.69646 0.49369 0.55119 0.0
H1382 H 0.70233 0.53013 0.56579 0.0
H1383 H 0.77673 0.5567 0.55827 0.0
H1384 H 0.77131 0.52033 0.54392 0.0
H1385 H 0.72709 0.43104 0.42247 0.0
H1386 H 0.71155 0.43421 0.4639 0.0
H1387 H 0.77976 0.486 0.48545 0.0
H1388 H 0.7952 0.48346 0.44366 0.0
H1389 H 0.74814 0.4958 0.50259 0.0
H1390 H 0.75737 0.43015 0.50601 0.0
H1391 H 0.75171 0.39376 0.49148 0.0
H1392 H 0.67736 0.36653 0.50037 0.0
H1393 H 0.68256 0.40284 0.51465 0.0
C1394 C 0.71273 0.47886 0.622 0.0
C1395 C 0.68902 0.46457 0.6275 0.0
C1396 C 0.72228 0.47804 0.59823 0.0
C1397 C 0.70823 0.46324 0.57921 0.0
C1398 C 0.6847 0.44862 0.58494 0.0
C1399 C 0.67523 0.44923 0.60878 0.0
C1400 C 0.71787 0.4629 0.55334 0.0
C1401 C 0.71462 0.44257 0.5436 0.0
C1402 C 0.73024 0.48234 0.53829 0.0
C1403 C 0.73349 0.50425 0.54671 0.0
C1404 C 0.71408 0.50727 0.5528 0.0
C1405 C 0.71732 0.52792 0.56101 0.0
C1406 C 0.73989 0.5457 0.56302 0.0
C1407 C 0.75926 0.5429 0.55674 0.0
C1408 C 0.75611 0.52229 0.54854 0.0
C1409 C 0.73874 0.44327 0.43591 0.0
C1410 C 0.76243 0.45691 0.42975 0.0
C1411 C 0.72986 0.44496 0.45973 0.0
C1412 C 0.74457 0.45997 0.47819 0.0
C1413 C 0.76803 0.47419 0.47168 0.0
C1414 C 0.77685 0.47273 0.44772 0.0
C1415 C 0.73566 0.46056 0.50439 0.0
C1416 C 0.73909 0.48093 0.5142 0.0
C1417 C 0.72348 0.44116 0.51954 0.0
C1418 C 0.72035 0.41926 0.51118 0.0
C1419 C 0.73981 0.41643 0.50472 0.0
C1420 C 0.73668 0.39582 0.49655 0.0
C1421 C 0.71419 0.37786 0.49495 0.0
C1422 C 0.69477 0.38046 0.50159 0.0
C1423 C 0.6978 0.40105 0.50975 0.0
H1424 H 0.71181 0.36192 0.4886 0.0
H1425 H 0.74237 0.56167 0.56939 0.0
H1426 H 0.21665 0.70317 0.93098 0.0
H1427 H 0.24265 0.72294 0.89541 0.0
H1428 H 0.24251 0.66262 0.87197 0.0
H1429 H 0.21671 0.6428 0.90816 0.0
H1430 H 0.28501 0.69655 0.86542 0.0
H1431 H 0.208 0.68256 0.84145 0.0
H1432 H 0.17017 0.68254 0.84646 0.0
H1433 H 0.20559 0.75359 0.84999 0.0
H1434 H 0.24367 0.75403 0.84535 0.0
H1435 H 0.32835 0.73761 0.73986 0.0
H1436 H 0.30356 0.71601 0.77558 0.0
H1437 H 0.30457 0.7749 0.80568 0.0
H1438 H 0.32925 0.79662 0.7699 0.0
H1439 H 0.26103 0.74013 0.80764 0.0
H1440 H 0.33833 0.75357 0.83177 0.0
H1441 H 0.37575 0.753 0.82574 0.0
H1442 H 0.33917 0.68205 0.82056 0.0
H1443 H 0.30147 0.68221 0.82617 0.0
C1444 C 0.22216 0.69409 0.91829 0.0
C1445 C 0.21433 0.67131 0.92225 0.0
C1446 C 0.23702 0.70542 0.89786 0.0
C1447 C 0.24416 0.69423 0.88045 0.0
C1448 C 0.23718 0.67166 0.88495 0.0
C1449 C 0.22245 0.66032 0.90568 0.0
C1450 C 0.25837 0.70608 0.85736 0.0
C1451 C 0.27956 0.7058 0.8526 0.0
C1452 C 0.25158 0.7185 0.84066 0.0
C1453 C 0.2287 0.71831 0.84327 0.0
C1454 C 0.20773 0.69818 0.84346 0.0
C1455 C 0.18625 0.69809 0.84622 0.0
C1456 C 0.18548 0.71805 0.8486 0.0
C1457 C 0.20621 0.73814 0.84816 0.0
C1458 C 0.22775 0.73832 0.84545 0.0
C1459 C 0.32323 0.746 0.75398 0.0
C1460 C 0.33088 0.76893 0.75193 0.0
C1461 C 0.30914 0.7336 0.77454 0.0
C1462 C 0.30238 0.74382 0.79361 0.0
C1463 C 0.30957 0.7666 0.79131 0.0
C1464 C 0.32373 0.77903 0.77081 0.0
C1465 C 0.28775 0.7308 0.81588 0.0
C1466 C 0.26644 0.73084 0.82044 0.0
C1467 C 0.29438 0.71807 0.83223 0.0
C1468 C 0.31705 0.71792 0.82913 0.0
C1469 C 0.33824 0.73785 0.82916 0.0
C1470 C 0.35951 0.7376 0.82584 0.0
C1471 C 0.35984 0.71751 0.8227 0.0
C1472 C 0.33889 0.69761 0.82296 0.0
C1473 C 0.31757 0.69777 0.82622 0.0
H1474 H 0.37632 0.71735 0.82013 0.0
H1475 H 0.16883 0.71795 0.85073 0.0
loop_
_geom_bond_atom_site_label_1
_geom_bond_atom_site_label_2
_geom_bond_distance
_geom_bond_site_symmetry_2
_ccdc_geom_bond_type
Cu0 N1 1.999 . S
Cu0 O6 1.974 . S
Cu0 N11 1.985 . S
Cu0 O20 1.959 . S
N1 Cu0 1.999 . S
N1 C3 1.263 . S
N1 C5 1.389 . S
N2 C3 1.358 . S
N2 C4 1.400 . S
C3 N1 1.263 . S
C3 N2 1.358 . S
C3 H9 0.930 . S
C4 N2 1.400 . S
C4 C5 1.351 . S
C4 H21 0.930 . S
C5 N1 1.389 . S
C5 C4 1.351 . S
C5 H10 0.930 . S
O6 Cu0 1.974 . S
O6 C16 1.282 . S
C7 O8 1.261 . S
C7 O20 1.251 . S
O8 C7 1.261 . S
H9 C3 0.930 . S
H10 C5 0.930 . S
N11 Cu0 1.985 . S
N11 C13 1.335 . S
N11 C14 1.390 . S
N12 C13 1.345 . S
N12 C15 1.336 . S
C13 N11 1.335 . S
C13 N12 1.345 . S
C13 H18 0.930 . S
C14 N11 1.390 . S
C14 C15 1.346 . S
C14 H19 0.930 . S
C15 N12 1.336 . S
C15 C14 1.346 . S
C15 H22 0.929 . S
C16 O6 1.282 . S
C16 O17 1.216 . S
O17 C16 1.216 . S
H18 C13 0.930 . S
H19 C14 0.930 . S
O20 Cu0 1.959 . S
O20 C7 1.251 . S
H21 C4 0.930 . S
H22 C15 0.929 . S
Cu23 N24 1.999 . S
Cu23 O29 1.974 . S
Cu23 N34 1.985 . S
Cu23 O43 1.959 . S
N24 Cu23 1.999 . S
N24 C26 1.263 . S
N24 C28 1.389 . S
N25 C26 1.358 . S
N25 C27 1.400 . S
C26 N24 1.263 . S
C26 N25 1.358 . S
C26 H32 0.930 . S
C27 N25 1.400 . S
C27 C28 1.351 . S
C27 H44 0.930 . S
C28 N24 1.389 . S
C28 C27 1.351 . S
C28 H33 0.930 . S
O29 Cu23 1.974 . S
O29 C39 1.282 . S
C30 O31 1.261 . S
C30 O43 1.251 . S
O31 C30 1.261 . S
H32 C26 0.930 . S
H33 C28 0.930 . S
N34 Cu23 1.985 . S
N34 C36 1.335 . S
N34 C37 1.390 . S
N35 C36 1.345 . S
N35 C38 1.336 . S
C36 N34 1.335 . S
C36 N35 1.345 . S
C36 H41 0.930 . S
C37 N34 1.390 . S
C37 C38 1.346 . S
C37 H42 0.930 . S
C38 N35 1.336 . S
C38 C37 1.346 . S
C38 H45 0.929 . S
C39 O29 1.282 . S
C39 O40 1.216 . S
O40 C39 1.216 . S
H41 C36 0.930 . S
H42 C37 0.930 . S
O43 Cu23 1.959 . S
O43 C30 1.251 . S
H44 C27 0.930 . S
H45 C38 0.929 . S
Cu46 N47 1.999 . S
Cu46 O52 1.974 . S
Cu46 N57 1.985 1_554 S
Cu46 O66 1.959 . S
N47 Cu46 1.999 . S
N47 C49 1.263 . S
N47 C51 1.389 . S
N48 C49 1.358 . S
N48 C50 1.400 . S
C49 N47 1.263 . S
C49 N48 1.358 . S
C49 H55 0.930 . S
C50 N48 1.400 . S
C50 C51 1.351 . S
C50 H67 0.930 . S
C51 N47 1.389 . S
C51 C50 1.351 . S
C51 H56 0.930 . S
O52 Cu46 1.974 . S
O52 C62 1.282 1_554 S
C53 O54 1.261 . S
C53 O66 1.251 1_556 S
O54 C53 1.261 . S
H55 C49 0.930 . S
H56 C51 0.930 . S
N57 Cu46 1.985 1_556 S
N57 C59 1.335 . S
N57 C60 1.390 . S
N58 C59 1.345 . S
N58 C61 1.336 . S
C59 N57 1.335 . S
C59 N58 1.345 . S
C59 H64 0.930 . S
C60 N57 1.390 . S
C60 C61 1.346 . S
C60 H65 0.930 . S
C61 N58 1.336 . S
C61 C60 1.346 . S
C61 H68 0.929 . S
C62 O52 1.282 1_556 S
C62 O63 1.216 . S
O63 C62 1.216 . S
H64 C59 0.930 . S
H65 C60 0.930 . S
O66 Cu46 1.959 . S
O66 C53 1.251 1_554 S
H67 C50 0.930 . S
H68 C61 0.929 . S
Cu69 N70 1.999 . S
Cu69 O75 1.974 . S
Cu69 N80 1.985 . S
Cu69 O89 1.959 . S
N70 Cu69 1.999 . S
N70 C72 1.263 . S
N70 C74 1.389 . S
N71 C72 1.358 . S
N71 C73 1.400 . S
C72 N70 1.263 . S
C72 N71 1.358 . S
C72 H78 0.930 . S
C73 N71 1.400 . S
C73 C74 1.351 . S
C73 H90 0.930 . S
C74 N70 1.389 . S
C74 C73 1.351 . S
C74 H79 0.930 . S
O75 Cu69 1.974 . S
O75 C85 1.282 . S
C76 O77 1.261 . S
C76 O89 1.251 . S
O77 C76 1.261 . S
H78 C72 0.930 . S
H79 C74 0.930 . S
N80 Cu69 1.985 . S
N80 C82 1.335 . S
N80 C83 1.390 . S
N81 C82 1.345 . S
N81 C84 1.336 . S
C82 N80 1.335 . S
C82 N81 1.345 . S
C82 H87 0.930 . S
C83 N80 1.390 . S
C83 C84 1.346 . S
C83 H88 0.930 . S
C84 N81 1.336 . S
C84 C83 1.346 . S
C84 H91 0.929 . S
C85 O75 1.282 . S
C85 O86 1.216 . S
O86 C85 1.216 . S
H87 C82 0.930 . S
H88 C83 0.930 . S
O89 Cu69 1.959 . S
O89 C76 1.251 . S
H90 C73 0.930 . S
H91 C84 0.929 . S
Cu92 N93 1.999 . S
Cu92 O98 1.974 . S
Cu92 N103 1.985 . S
Cu92 O112 1.959 . S
N93 Cu92 1.999 . S
N93 C95 1.263 . S
N93 C97 1.389 . S
N94 C95 1.358 . S
N94 C96 1.400 . S
C95 N93 1.263 . S
C95 N94 1.358 . S
C95 H101 0.930 . S
C96 N94 1.400 . S
C96 C97 1.351 . S
C96 H113 0.930 . S
C97 N93 1.389 . S
C97 C96 1.351 . S
C97 H102 0.930 . S
O98 Cu92 1.974 . S
O98 C108 1.282 . S
C99 O100 1.261 . S
C99 O112 1.251 . S
O100 C99 1.261 . S
H101 C95 0.930 . S
H102 C97 0.930 . S
N103 Cu92 1.985 . S
N103 C105 1.335 . S
N103 C106 1.390 . S
N104 C105 1.345 . S
N104 C107 1.336 . S
C105 N103 1.335 . S
C105 N104 1.345 . S
C105 H110 0.930 . S
C106 N103 1.390 . S
C106 C107 1.346 . S
C106 H111 0.930 . S
C107 N104 1.336 . S
C107 C106 1.346 . S
C107 H114 0.929 . S
C108 O98 1.282 . S
C108 O109 1.216 . S
O109 C108 1.216 . S
H110 C105 0.930 . S
H111 C106 0.930 . S
O112 Cu92 1.959 . S
O112 C99 1.251 . S
H113 C96 0.930 . S
H114 C107 0.929 . S
Cu115 N116 1.999 . S
Cu115 O121 1.974 . S
Cu115 N126 1.985 1_554 S
Cu115 O135 1.959 . S
N116 Cu115 1.999 . S
N116 C118 1.263 . S
N116 C120 1.389 . S
N117 C118 1.358 . S
N117 C119 1.400 . S
C118 N116 1.263 . S
C118 N117 1.358 . S
C118 H124 0.930 . S
C119 N117 1.400 . S
C119 C120 1.351 . S
C119 H136 0.930 . S
C120 N116 1.389 . S
C120 C119 1.351 . S
C120 H125 0.930 . S
O121 Cu115 1.974 . S
O121 C131 1.282 1_554 S
C122 O123 1.261 . S
C122 O135 1.251 1_556 S
O123 C122 1.261 . S
H124 C118 0.930 . S
H125 C120 0.930 . S
N126 Cu115 1.985 1_556 S
N126 C128 1.335 . S
N126 C129 1.390 . S
N127 C128 1.345 . S
N127 C130 1.336 . S
C128 N126 1.335 . S
C128 N127 1.345 . S
C128 H133 0.930 . S
C129 N126 1.390 . S
C129 C130 1.346 . S
C129 H134 0.930 . S
C130 N127 1.336 . S
C130 C129 1.346 . S
C130 H137 0.929 . S
C131 O121 1.282 1_556 S
C131 O132 1.216 . S
O132 C131 1.216 . S
H133 C128 0.930 . S
H134 C129 0.930 . S
O135 Cu115 1.959 . S
O135 C122 1.251 1_554 S
H136 C119 0.930 . S
H137 C130 0.929 . S
Cu138 N139 1.999 . S
Cu138 O144 1.974 . S
Cu138 N149 1.985 . S
Cu138 O158 1.959 . S
N139 Cu138 1.999 . S
N139 C141 1.263 . S
N139 C143 1.389 . S
N140 C141 1.358 . S
N140 C142 1.400 . S
C141 N139 1.263 . S
C141 N140 1.358 . S
C141 H147 0.930 . S
C142 N140 1.400 . S
C142 C143 1.351 . S
C142 H159 0.930 . S
C143 N139 1.389 . S
C143 C142 1.351 . S
C143 H148 0.930 . S
O144 Cu138 1.974 . S
O144 C154 1.282 . S
C145 O146 1.261 . S
C145 O158 1.251 . S
O146 C145 1.261 . S
H147 C141 0.930 . S
H148 C143 0.930 . S
N149 Cu138 1.985 . S
N149 C151 1.335 . S
N149 C152 1.390 . S
N150 C151 1.345 . S
N150 C153 1.336 . S
C151 N149 1.335 . S
C151 N150 1.345 . S
C151 H156 0.930 . S
C152 N149 1.390 . S
C152 C153 1.346 . S
C152 H157 0.930 . S
C153 N150 1.336 . S
C153 C152 1.346 . S
C153 H160 0.929 . S
C154 O144 1.282 . S
C154 O155 1.216 . S
O155 C154 1.216 . S
H156 C151 0.930 . S
H157 C152 0.930 . S
O158 Cu138 1.959 . S
O158 C145 1.251 . S
H159 C142 0.930 . S
H160 C153 0.929 . S
Cu161 N162 1.999 . S
Cu161 O167 1.974 . S
Cu161 N172 1.985 . S
Cu161 O181 1.959 . S
N162 Cu161 1.999 . S
N162 C164 1.263 . S
N162 C166 1.389 . S
N163 C164 1.358 . S
N163 C165 1.400 . S
C164 N162 1.263 . S
C164 N163 1.358 . S
C164 H170 0.930 . S
C165 N163 1.400 . S
C165 C166 1.351 . S
C165 H182 0.930 . S
C166 N162 1.389 . S
C166 C165 1.351 . S
C166 H171 0.930 . S
O167 Cu161 1.974 . S
O167 C177 1.282 . S
C168 O169 1.261 . S
C168 O181 1.251 . S
O169 C168 1.261 . S
H170 C164 0.930 . S
H171 C166 0.930 . S
N172 Cu161 1.985 . S
N172 C174 1.335 . S
N172 C175 1.390 . S
N173 C174 1.345 . S
N173 C176 1.336 . S
C174 N172 1.335 . S
C174 N173 1.345 . S
C174 H179 0.930 . S
C175 N172 1.390 . S
C175 C176 1.346 . S
C175 H180 0.930 . S
C176 N173 1.336 . S
C176 C175 1.346 . S
C176 H183 0.929 . S
C177 O167 1.282 . S
C177 O178 1.216 . S
O178 C177 1.216 . S
H179 C174 0.930 . S
H180 C175 0.930 . S
O181 Cu161 1.959 . S
O181 C168 1.251 . S
H182 C165 0.930 . S
H183 C176 0.929 . S
Cu184 N185 1.999 . S
Cu184 O190 1.974 . S
Cu184 N195 1.985 1_556 S
Cu184 O204 1.959 . S
N185 Cu184 1.999 . S
N185 C187 1.263 . S
N185 C189 1.389 . S
N186 C187 1.358 . S
N186 C188 1.400 . S
C187 N185 1.263 . S
C187 N186 1.358 . S
C187 H193 0.930 . S
C188 N186 1.400 . S
C188 C189 1.351 . S
C188 H205 0.930 . S
C189 N185 1.389 . S
C189 C188 1.351 . S
C189 H194 0.930 . S
O190 Cu184 1.974 . S
O190 C200 1.282 1_556 S
C191 O192 1.261 . S
C191 O204 1.251 1_554 S
O192 C191 1.261 . S
H193 C187 0.930 . S
H194 C189 0.930 . S
N195 Cu184 1.985 1_554 S
N195 C197 1.335 . S
N195 C198 1.390 . S
N196 C197 1.345 . S
N196 C199 1.336 . S
C197 N195 1.335 . S
C197 N196 1.345 . S
C197 H202 0.930 . S
C198 N195 1.390 . S
C198 C199 1.346 . S
C198 H203 0.930 . S
C199 N196 1.336 . S
C199 C198 1.346 . S
C199 H206 0.929 . S
C200 O190 1.282 1_554 S
C200 O201 1.216 . S
O201 C200 1.216 . S
H202 C197 0.930 . S
H203 C198 0.930 . S
O204 Cu184 1.959 . S
O204 C191 1.251 1_556 S
H205 C188 0.930 . S
H206 C199 0.929 . S
Cu207 N208 1.999 . S
Cu207 O213 1.974 . S
Cu207 N218 1.985 . S
Cu207 O227 1.959 . S
N208 Cu207 1.999 . S
N208 C210 1.263 . S
N208 C212 1.389 . S
N209 C210 1.358 . S
N209 C211 1.400 . S
C210 N208 1.263 . S
C210 N209 1.358 . S
C210 H216 0.930 . S
C211 N209 1.400 . S
C211 C212 1.351 . S
C211 H228 0.930 . S
C212 N208 1.389 . S
C212 C211 1.351 . S
C212 H217 0.930 . S
O213 Cu207 1.974 . S
O213 C223 1.282 . S
C214 O215 1.261 . S
C214 O227 1.251 . S
O215 C214 1.261 . S
H216 C210 0.930 . S
H217 C212 0.930 . S
N218 Cu207 1.985 . S
N218 C220 1.335 . S
N218 C221 1.390 . S
N219 C220 1.345 . S
N219 C222 1.336 . S
C220 N218 1.335 . S
C220 N219 1.345 . S
C220 H225 0.930 . S
C221 N218 1.390 . S
C221 C222 1.346 . S
C221 H226 0.930 . S
C222 N219 1.336 . S
C222 C221 1.346 . S
C222 H229 0.929 . S
C223 O213 1.282 . S
C223 O224 1.216 . S
O224 C223 1.216 . S
H225 C220 0.930 . S
H226 C221 0.930 . S
O227 Cu207 1.959 . S
O227 C214 1.251 . S
H228 C211 0.930 . S
H229 C222 0.929 . S
Cu230 N231 1.999 . S
Cu230 O236 1.974 . S
Cu230 N241 1.985 . S
Cu230 O250 1.959 . S
N231 Cu230 1.999 . S
N231 C233 1.263 . S
N231 C235 1.389 . S
N232 C233 1.358 . S
N232 C234 1.400 . S
C233 N231 1.263 . S
C233 N232 1.358 . S
C233 H239 0.930 . S
C234 N232 1.400 . S
C234 C235 1.351 . S
C234 H251 0.930 . S
C235 N231 1.389 . S
C235 C234 1.351 . S
C235 H240 0.930 . S
O236 Cu230 1.974 . S
O236 C246 1.282 . S
C237 O238 1.261 . S
C237 O250 1.251 . S
O238 C237 1.261 . S
H239 C233 0.930 . S
H240 C235 0.930 . S
N241 Cu230 1.985 . S
N241 C243 1.335 . S
N241 C244 1.390 . S
N242 C243 1.345 . S
N242 C245 1.336 . S
C243 N241 1.335 . S
C243 N242 1.345 . S
C243 H248 0.930 . S
C244 N241 1.390 . S
C244 C245 1.346 . S
C244 H249 0.930 . S
C245 N242 1.336 . S
C245 C244 1.346 . S
C245 H252 0.929 . S
C246 O236 1.282 . S
C246 O247 1.216 . S
O247 C246 1.216 . S
H248 C243 0.930 . S
H249 C244 0.930 . S
O250 Cu230 1.959 . S
O250 C237 1.251 . S
H251 C234 0.930 . S
H252 C245 0.929 . S
Cu253 N254 1.999 . S
Cu253 O259 1.974 . S
Cu253 N264 1.985 1_556 S
Cu253 O273 1.959 . S
N254 Cu253 1.999 . S
N254 C256 1.263 . S
N254 C258 1.389 . S
N255 C256 1.358 . S
N255 C257 1.400 . S
C256 N254 1.263 . S
C256 N255 1.358 . S
C256 H262 0.930 . S
C257 N255 1.400 . S
C257 C258 1.351 . S
C257 H274 0.930 . S
C258 N254 1.389 . S
C258 C257 1.351 . S
C258 H263 0.930 . S
O259 Cu253 1.974 . S
O259 C269 1.282 1_556 S
C260 O261 1.261 . S
C260 O273 1.251 1_554 S
O261 C260 1.261 . S
H262 C256 0.930 . S
H263 C258 0.930 . S
N264 Cu253 1.985 1_554 S
N264 C266 1.335 . S
N264 C267 1.390 . S
N265 C266 1.345 . S
N265 C268 1.336 . S
C266 N264 1.335 . S
C266 N265 1.345 . S
C266 H271 0.930 . S
C267 N264 1.390 . S
C267 C268 1.346 . S
C267 H272 0.930 . S
C268 N265 1.336 . S
C268 C267 1.346 . S
C268 H275 0.929 . S
C269 O259 1.282 1_554 S
C269 O270 1.216 . S
O270 C269 1.216 . S
H271 C266 0.930 . S
H272 C267 0.930 . S
O273 Cu253 1.959 . S
O273 C260 1.251 1_556 S
H274 C257 0.930 . S
H275 C268 0.929 . S
H276 C294 0.951 . S
H277 C296 0.951 . S
H278 C298 0.950 . S
H279 C299 0.950 . S
H280 C301 0.950 . S
H281 C304 0.950 . S
H282 C305 0.950 . S
H283 C307 0.950 . S
H284 C308 0.950 . S
H285 C309 0.951 . S
H286 C311 0.951 . S
H287 C313 0.950 . S
H288 C314 0.950 . S
H289 C316 0.950 . S
H290 C319 0.950 . S
H291 C320 0.950 . S
H292 C322 0.950 . S
H293 C323 0.950 . S
C294 H276 0.951 . S
C294 C295 1.366 . S
C294 C296 1.388 . S
C295 C294 1.366 . S
C295 C299 1.385 . S
C296 H277 0.951 . S
C296 C294 1.388 . S
C296 C297 1.366 . S
C297 C296 1.366 . S
C297 C298 1.414 . S
C297 C300 1.499 . S
C298 H278 0.950 . S
C298 C297 1.414 . S
C298 C299 1.374 . S
C299 H279 0.950 . S
C299 C295 1.385 . S
C299 C298 1.374 . S
C300 C297 1.499 . S
C300 C301 1.373 . S
C300 C302 1.389 . S
C301 H280 0.950 . S
C301 C300 1.373 . S
C301 C317 1.377 . S
C302 C300 1.389 . S
C302 C303 1.524 . S
C302 C316 1.377 . S
C303 C302 1.524 . S
C303 C304 1.397 . S
C303 C308 1.363 . S
C304 H281 0.950 . S
C304 C303 1.397 . S
C304 C305 1.334 . S
C305 H282 0.950 . S
C305 C304 1.334 . S
C305 C306 1.287 . S
C306 C305 1.287 . S
C306 C307 1.524 . S
C306 H325 0.913 . S
C307 H283 0.950 . S
C307 C306 1.524 . S
C307 C308 1.415 . S
C308 H284 0.950 . S
C308 C303 1.363 . S
C308 C307 1.415 . S
C309 H285 0.951 . S
C309 C310 1.366 . S
C309 C311 1.388 . S
C310 C309 1.366 . S
C310 C314 1.385 . S
C311 H286 0.951 . S
C311 C309 1.388 . S
C311 C312 1.366 . S
C312 C311 1.366 . S
C312 C313 1.414 . S
C312 C315 1.499 . S
C313 H287 0.950 . S
C313 C312 1.414 . S
C313 C314 1.374 . S
C314 H288 0.950 . S
C314 C310 1.385 . S
C314 C313 1.374 . S
C315 C312 1.499 . S
C315 C316 1.373 . S
C315 C317 1.389 . S
C316 H289 0.950 . S
C316 C302 1.377 . S
C316 C315 1.373 . S
C317 C301 1.377 . S
C317 C315 1.389 . S
C317 C318 1.524 . S
C318 C317 1.524 . S
C318 C319 1.397 . S
C318 C323 1.363 . S
C319 H290 0.950 . S
C319 C318 1.397 . S
C319 C320 1.334 . S
C320 H291 0.950 . S
C320 C319 1.334 . S
C320 C321 1.287 . S
C321 C320 1.287 . S
C321 C322 1.524 . S
C321 H324 0.999 . S
C322 H292 0.950 . S
C322 C321 1.524 . S
C322 C323 1.415 . S
C323 H293 0.950 . S
C323 C318 1.363 . S
C323 C322 1.415 . S
H324 C321 0.999 . S
H325 C306 0.913 . S
H326 C344 0.951 . S
H327 C346 0.951 . S
H328 C348 0.950 . S
H329 C349 0.950 . S
H330 C351 0.950 . S
H331 C354 0.950 . S
H332 C355 0.950 . S
H333 C357 0.950 . S
H334 C358 0.950 . S
H335 C359 0.951 . S
H336 C361 0.951 . S
H337 C363 0.950 . S
H338 C364 0.950 . S
H339 C366 0.950 . S
H340 C369 0.950 . S
H341 C370 0.950 . S
H342 C372 0.950 . S
H343 C373 0.950 . S
C344 H326 0.951 . S
C344 C345 1.366 . S
C344 C346 1.388 . S
C345 C344 1.366 . S
C345 C349 1.385 . S
C346 H327 0.951 . S
C346 C344 1.388 . S
C346 C347 1.366 . S
C347 C346 1.366 . S
C347 C348 1.414 . S
C347 C350 1.499 . S
C348 H328 0.950 . S
C348 C347 1.414 . S
C348 C349 1.374 . S
C349 H329 0.950 . S
C349 C345 1.385 . S
C349 C348 1.374 . S
C350 C347 1.499 . S
C350 C351 1.373 . S
C350 C352 1.389 . S
C351 H330 0.950 . S
C351 C350 1.373 . S
C351 C367 1.377 . S
C352 C350 1.389 . S
C352 C353 1.524 . S
C352 C366 1.377 . S
C353 C352 1.524 . S
C353 C354 1.397 . S
C353 C358 1.363 . S
C354 H331 0.950 . S
C354 C353 1.397 . S
C354 C355 1.334 . S
C355 H332 0.950 . S
C355 C354 1.334 . S
C355 C356 1.287 . S
C356 C355 1.287 . S
C356 C357 1.524 . S
C356 H375 0.913 . S
C357 H333 0.950 . S
C357 C356 1.524 . S
C357 C358 1.415 . S
C358 H334 0.950 . S
C358 C353 1.363 . S
C358 C357 1.415 . S
C359 H335 0.951 . S
C359 C360 1.366 . S
C359 C361 1.388 . S
C360 C359 1.366 . S
C360 C364 1.385 . S
C361 H336 0.951 . S
C361 C359 1.388 . S
C361 C362 1.366 . S
C362 C361 1.366 . S
C362 C363 1.414 . S
C362 C365 1.499 . S
C363 H337 0.950 . S
C363 C362 1.414 . S
C363 C364 1.374 . S
C364 H338 0.950 . S
C364 C360 1.385 . S
C364 C363 1.374 . S
C365 C362 1.499 . S
C365 C366 1.373 . S
C365 C367 1.389 . S
C366 H339 0.950 . S
C366 C352 1.377 . S
C366 C365 1.373 . S
C367 C351 1.377 . S
C367 C365 1.389 . S
C367 C368 1.524 . S
C368 C367 1.524 . S
C368 C369 1.397 . S
C368 C373 1.363 . S
C369 H340 0.950 . S
C369 C368 1.397 . S
C369 C370 1.334 . S
C370 H341 0.950 . S
C370 C369 1.334 . S
C370 C371 1.287 . S
C371 C370 1.287 . S
C371 C372 1.524 . S
C371 H374 0.999 . S
C372 H342 0.950 . S
C372 C371 1.524 . S
C372 C373 1.415 . S
C373 H343 0.950 . S
C373 C368 1.363 . S
C373 C372 1.415 . S
H374 C371 0.999 . S
H375 C356 0.913 . S
H376 C394 0.951 . S
H377 C396 0.951 . S
H378 C398 0.950 . S
H379 C399 0.950 . S
H380 C401 0.950 . S
H381 C404 0.950 . S
H382 C405 0.950 . S
H383 C407 0.950 . S
H384 C408 0.950 . S
H385 C409 0.951 . S
H386 C411 0.951 . S
H387 C413 0.950 . S
H388 C414 0.950 . S
H389 C416 0.950 . S
H390 C419 0.950 . S
H391 C420 0.950 . S
H392 C422 0.950 . S
H393 C423 0.950 . S
C394 H376 0.951 . S
C394 C395 1.366 . S
C394 C396 1.388 . S
C395 C394 1.366 . S
C395 C399 1.385 . S
C396 H377 0.951 . S
C396 C394 1.388 . S
C396 C397 1.366 . S
C397 C396 1.366 . S
C397 C398 1.414 . S
C397 C400 1.499 . S
C398 H378 0.950 . S
C398 C397 1.414 . S
C398 C399 1.374 . S
C399 H379 0.950 . S
C399 C395 1.385 . S
C399 C398 1.374 . S
C400 C397 1.499 . S
C400 C401 1.373 . S
C400 C402 1.389 . S
C401 H380 0.950 . S
C401 C400 1.373 . S
C401 C417 1.377 . S
C402 C400 1.389 . S
C402 C403 1.524 . S
C402 C416 1.377 . S
C403 C402 1.524 . S
C403 C404 1.397 . S
C403 C408 1.363 . S
C404 H381 0.950 . S
C404 C403 1.397 . S
C404 C405 1.334 . S
C405 H382 0.950 . S
C405 C404 1.334 . S
C405 C406 1.287 . S
C406 C405 1.287 . S
C406 C407 1.524 . S
C406 H425 0.913 . S
C407 H383 0.950 . S
C407 C406 1.524 . S
C407 C408 1.415 . S
C408 H384 0.950 . S
C408 C403 1.363 . S
C408 C407 1.415 . S
C409 H385 0.951 . S
C409 C410 1.366 . S
C409 C411 1.388 . S
C410 C409 1.366 . S
C410 C414 1.385 . S
C411 H386 0.951 . S
C411 C409 1.388 . S
C411 C412 1.366 . S
C412 C411 1.366 . S
C412 C413 1.414 . S
C412 C415 1.499 . S
C413 H387 0.950 . S
C413 C412 1.414 . S
C413 C414 1.374 . S
C414 H388 0.950 . S
C414 C410 1.385 . S
C414 C413 1.374 . S
C415 C412 1.499 . S
C415 C416 1.373 . S
C415 C417 1.389 . S
C416 H389 0.950 . S
C416 C402 1.377 . S
C416 C415 1.373 . S
C417 C401 1.377 . S
C417 C415 1.389 . S
C417 C418 1.524 . S
C418 C417 1.524 . S
C418 C419 1.397 . S
C418 C423 1.363 . S
C419 H390 0.950 . S
C419 C418 1.397 . S
C419 C420 1.334 . S
C420 H391 0.950 . S
C420 C419 1.334 . S
C420 C421 1.287 . S
C421 C420 1.287 . S
C421 C422 1.524 . S
C421 H424 0.999 . S
C422 H392 0.950 . S
C422 C421 1.524 . S
C422 C423 1.415 . S
C423 H393 0.950 . S
C423 C418 1.363 . S
C423 C422 1.415 . S
H424 C421 0.999 . S
H425 C406 0.913 . S
H426 C444 0.951 . S
H427 C446 0.951 . S
H428 C448 0.950 . S
H429 C449 0.950 . S
H430 C451 0.950 . S
H431 C454 0.950 . S
H432 C455 0.950 . S
H433 C457 0.950 . S
H434 C458 0.950 . S
H435 C459 0.951 . S
H436 C461 0.951 . S
H437 C463 0.950 . S
H438 C464 0.950 . S
H439 C466 0.950 . S
H440 C469 0.950 . S
H441 C470 0.950 . S
H442 C472 0.950 . S
H443 C473 0.950 . S
C444 H426 0.951 . S
C444 C445 1.366 . S
C444 C446 1.388 . S
C445 C444 1.366 . S
C445 C449 1.385 . S
C446 H427 0.951 . S
C446 C444 1.388 . S
C446 C447 1.366 . S
C447 C446 1.366 . S
C447 C448 1.414 . S
C447 C450 1.499 . S
C448 H428 0.950 . S
C448 C447 1.414 . S
C448 C449 1.374 . S
C449 H429 0.950 . S
C449 C445 1.385 . S
C449 C448 1.374 . S
C450 C447 1.499 . S
C450 C451 1.373 . S
C450 C452 1.389 . S
C451 H430 0.950 . S
C451 C450 1.373 . S
C451 C467 1.377 . S
C452 C450 1.389 . S
C452 C453 1.524 . S
C452 C466 1.377 . S
C453 C452 1.524 . S
C453 C454 1.397 . S
C453 C458 1.363 . S
C454 H431 0.950 . S
C454 C453 1.397 . S
C454 C455 1.334 . S
C455 H432 0.950 . S
C455 C454 1.334 . S
C455 C456 1.287 . S
C456 C455 1.287 . S
C456 C457 1.524 . S
C456 H475 0.913 . S
C457 H433 0.950 . S
C457 C456 1.524 . S
C457 C458 1.415 . S
C458 H434 0.950 . S
C458 C453 1.363 . S
C458 C457 1.415 . S
C459 H435 0.951 . S
C459 C460 1.366 . S
C459 C461 1.388 . S
C460 C459 1.366 . S
C460 C464 1.385 . S
C461 H436 0.951 . S
C461 C459 1.388 . S
C461 C462 1.366 . S
C462 C461 1.366 . S
C462 C463 1.414 . S
C462 C465 1.499 . S
C463 H437 0.950 . S
C463 C462 1.414 . S
C463 C464 1.374 . S
C464 H438 0.950 . S
C464 C460 1.385 . S
C464 C463 1.374 . S
C465 C462 1.499 . S
C465 C466 1.373 . S
C465 C467 1.389 . S
C466 H439 0.950 . S
C466 C452 1.377 . S
C466 C465 1.373 . S
C467 C451 1.377 . S
C467 C465 1.389 . S
C467 C468 1.524 . S
C468 C467 1.524 . S
C468 C469 1.397 . S
C468 C473 1.363 . S
C469 H440 0.950 . S
C469 C468 1.397 . S
C469 C470 1.334 . S
C470 H441 0.950 . S
C470 C469 1.334 . S
C470 C471 1.287 . S
C471 C470 1.287 . S
C471 C472 1.524 . S
C471 H474 0.999 . S
C472 H442 0.950 . S
C472 C471 1.524 . S
C472 C473 1.415 . S
C473 H443 0.950 . S
C473 C468 1.363 . S
C473 C472 1.415 . S
H474 C471 0.999 . S
H475 C456 0.913 . S
H476 C494 0.951 . S
H477 C496 0.951 . S
H478 C498 0.950 . S
H479 C499 0.950 . S
H480 C501 0.950 . S
H481 C504 0.950 . S
H482 C505 0.950 . S
H483 C507 0.950 . S
H484 C508 0.950 . S
H485 C509 0.951 . S
H486 C511 0.951 . S
H487 C513 0.950 . S
H488 C514 0.950 . S
H489 C516 0.950 . S
H490 C519 0.950 . S
H491 C520 0.950 . S
H492 C522 0.950 . S
H493 C523 0.950 . S
C494 H476 0.951 . S
C494 C495 1.366 . S
C494 C496 1.388 . S
C495 C494 1.366 . S
C495 C499 1.385 . S
C496 H477 0.951 . S
C496 C494 1.388 . S
C496 C497 1.366 . S
C497 C496 1.366 . S
C497 C498 1.414 . S
C497 C500 1.499 . S
C498 H478 0.950 . S
C498 C497 1.414 . S
C498 C499 1.374 . S
C499 H479 0.950 . S
C499 C495 1.385 . S
C499 C498 1.374 . S
C500 C497 1.499 . S
C500 C501 1.373 . S
C500 C502 1.389 . S
C501 H480 0.950 . S
C501 C500 1.373 . S
C501 C517 1.377 . S
C502 C500 1.389 . S
C502 C503 1.524 . S
C502 C516 1.377 . S
C503 C502 1.524 . S
C503 C504 1.397 . S
C503 C508 1.363 . S
C504 H481 0.950 . S
C504 C503 1.397 . S
C504 C505 1.334 . S
C505 H482 0.950 . S
C505 C504 1.334 . S
C505 C506 1.287 . S
C506 C505 1.287 . S
C506 C507 1.524 . S
C506 H525 0.913 . S
C507 H483 0.950 . S
C507 C506 1.524 . S
C507 C508 1.415 . S
C508 H484 0.950 . S
C508 C503 1.363 . S
C508 C507 1.415 . S
C509 H485 0.951 . S
C509 C510 1.366 . S
C509 C511 1.388 . S
C510 C509 1.366 . S
C510 C514 1.385 . S
C511 H486 0.951 . S
C511 C509 1.388 . S
C511 C512 1.366 . S
C512 C511 1.366 . S
C512 C513 1.414 . S
C512 C515 1.499 . S
C513 H487 0.950 . S
C513 C512 1.414 . S
C513 C514 1.374 . S
C514 H488 0.950 . S
C514 C510 1.385 . S
C514 C513 1.374 . S
C515 C512 1.499 . S
C515 C516 1.373 . S
C515 C517 1.389 . S
C516 H489 0.950 . S
C516 C502 1.377 . S
C516 C515 1.373 . S
C517 C501 1.377 . S
C517 C515 1.389 . S
C517 C518 1.524 . S
C518 C517 1.524 . S
C518 C519 1.397 . S
C518 C523 1.363 . S
C519 H490 0.950 . S
C519 C518 1.397 . S
C519 C520 1.334 . S
C520 H491 0.950 . S
C520 C519 1.334 . S
C520 C521 1.287 . S
C521 C520 1.287 . S
C521 C522 1.524 . S
C521 H524 0.999 . S
C522 H492 0.950 . S
C522 C521 1.524 . S
C522 C523 1.415 . S
C523 H493 0.950 . S
C523 C518 1.363 . S
C523 C522 1.415 . S
H524 C521 0.999 . S
H525 C506 0.913 . S
H526 C544 0.951 . S
H527 C546 0.951 . S
H528 C548 0.950 . S
H529 C549 0.950 . S
H530 C551 0.950 . S
H531 C554 0.950 . S
H532 C555 0.950 . S
H533 C557 0.950 . S
H534 C558 0.950 . S
H535 C559 0.951 . S
H536 C561 0.951 . S
H537 C563 0.950 . S
H538 C564 0.950 . S
H539 C566 0.950 . S
H540 C569 0.950 . S
H541 C570 0.950 . S
H542 C572 0.950 . S
H543 C573 0.950 . S
C544 H526 0.951 . S
C544 C545 1.366 . S
C544 C546 1.388 . S
C545 C544 1.366 . S
C545 C549 1.385 . S
C546 H527 0.951 . S
C546 C544 1.388 . S
C546 C547 1.366 . S
C547 C546 1.366 . S
C547 C548 1.414 . S
C547 C550 1.499 . S
C548 H528 0.950 . S
C548 C547 1.414 . S
C548 C549 1.374 . S
C549 H529 0.950 . S
C549 C545 1.385 . S
C549 C548 1.374 . S
C550 C547 1.499 . S
C550 C551 1.373 . S
C550 C552 1.389 . S
C551 H530 0.950 . S
C551 C550 1.373 . S
C551 C567 1.377 . S
C552 C550 1.389 . S
C552 C553 1.524 . S
C552 C566 1.377 . S
C553 C552 1.524 . S
C553 C554 1.397 . S
C553 C558 1.363 . S
C554 H531 0.950 . S
C554 C553 1.397 . S
C554 C555 1.334 . S
C555 H532 0.950 . S
C555 C554 1.334 . S
C555 C556 1.287 . S
C556 C555 1.287 . S
C556 C557 1.524 . S
C556 H575 0.913 . S
C557 H533 0.950 . S
C557 C556 1.524 . S
C557 C558 1.415 . S
C558 H534 0.950 . S
C558 C553 1.363 . S
C558 C557 1.415 . S
C559 H535 0.951 . S
C559 C560 1.366 . S
C559 C561 1.388 . S
C560 C559 1.366 . S
C560 C564 1.385 . S
C561 H536 0.951 . S
C561 C559 1.388 . S
C561 C562 1.366 . S
C562 C561 1.366 . S
C562 C563 1.414 . S
C562 C565 1.499 . S
C563 H537 0.950 . S
C563 C562 1.414 . S
C563 C564 1.374 . S
C564 H538 0.950 . S
C564 C560 1.385 . S
C564 C563 1.374 . S
C565 C562 1.499 . S
C565 C566 1.373 . S
C565 C567 1.389 . S
C566 H539 0.950 . S
C566 C552 1.377 . S
C566 C565 1.373 . S
C567 C551 1.377 . S
C567 C565 1.389 . S
C567 C568 1.524 . S
C568 C567 1.524 . S
C568 C569 1.397 . S
C568 C573 1.363 . S
C569 H540 0.950 . S
C569 C568 1.397 . S
C569 C570 1.334 . S
C570 H541 0.950 . S
C570 C569 1.334 . S
C570 C571 1.287 . S
C571 C570 1.287 . S
C571 C572 1.524 . S
C571 H574 0.999 . S
C572 H542 0.950 . S
C572 C571 1.524 . S
C572 C573 1.415 . S
C573 H543 0.950 . S
C573 C568 1.363 . S
C573 C572 1.415 . S
H574 C571 0.999 . S
H575 C556 0.913 . S
H576 C594 0.951 . S
H577 C596 0.951 . S
H578 C598 0.950 . S
H579 C599 0.950 . S
H580 C601 0.950 . S
H581 C604 0.950 . S
H582 C605 0.950 . S
H583 C607 0.950 . S
H584 C608 0.950 . S
H585 C609 0.951 . S
H586 C611 0.951 . S
H587 C613 0.950 . S
H588 C614 0.950 . S
H589 C616 0.950 . S
H590 C619 0.950 . S
H591 C620 0.950 . S
H592 C622 0.950 . S
H593 C623 0.950 . S
C594 H576 0.951 . S
C594 C595 1.366 . S
C594 C596 1.388 . S
C595 C594 1.366 . S
C595 C599 1.385 . S
C596 H577 0.951 . S
C596 C594 1.388 . S
C596 C597 1.366 . S
C597 C596 1.366 . S
C597 C598 1.414 . S
C597 C600 1.499 . S
C598 H578 0.950 . S
C598 C597 1.414 . S
C598 C599 1.374 . S
C599 H579 0.950 . S
C599 C595 1.385 . S
C599 C598 1.374 . S
C600 C597 1.499 . S
C600 C601 1.373 . S
C600 C602 1.389 . S
C601 H580 0.950 . S
C601 C600 1.373 . S
C601 C617 1.377 . S
C602 C600 1.389 . S
C602 C603 1.524 . S
C602 C616 1.377 . S
C603 C602 1.524 . S
C603 C604 1.397 . S
C603 C608 1.363 . S
C604 H581 0.950 . S
C604 C603 1.397 . S
C604 C605 1.334 . S
C605 H582 0.950 . S
C605 C604 1.334 . S
C605 C606 1.287 . S
C606 C605 1.287 . S
C606 C607 1.524 . S
C606 H625 0.913 . S
C607 H583 0.950 . S
C607 C606 1.524 . S
C607 C608 1.415 . S
C608 H584 0.950 . S
C608 C603 1.363 . S
C608 C607 1.415 . S
C609 H585 0.951 . S
C609 C610 1.366 . S
C609 C611 1.388 . S
C610 C609 1.366 . S
C610 C614 1.385 . S
C611 H586 0.951 . S
C611 C609 1.388 . S
C611 C612 1.366 . S
C612 C611 1.366 . S
C612 C613 1.414 . S
C612 C615 1.499 . S
C613 H587 0.950 . S
C613 C612 1.414 . S
C613 C614 1.374 . S
C614 H588 0.950 . S
C614 C610 1.385 . S
C614 C613 1.374 . S
C615 C612 1.499 . S
C615 C616 1.373 . S
C615 C617 1.389 . S
C616 H589 0.950 . S
C616 C602 1.377 . S
C616 C615 1.373 . S
C617 C601 1.377 . S
C617 C615 1.389 . S
C617 C618 1.524 . S
C618 C617 1.524 . S
C618 C619 1.397 . S
C618 C623 1.363 . S
C619 H590 0.950 . S
C619 C618 1.397 . S
C619 C620 1.334 . S
C620 H591 0.950 . S
C620 C619 1.334 . S
C620 C621 1.287 . S
C621 C620 1.287 . S
C621 C622 1.524 . S
C621 H624 0.999 . S
C622 H592 0.950 . S
C622 C621 1.524 . S
C622 C623 1.415 . S
C623 H593 0.950 . S
C623 C618 1.363 . S
C623 C622 1.415 . S
H624 C621 0.999 . S
H625 C606 0.913 . S
H626 C644 0.951 . S
H627 C646 0.951 . S
H628 C648 0.950 . S
H629 C649 0.950 . S
H630 C651 0.950 . S
H631 C654 0.950 . S
H632 C655 0.950 . S
H633 C657 0.950 . S
H634 C658 0.950 . S
H635 C659 0.951 . S
H636 C661 0.951 . S
H637 C663 0.950 . S
H638 C664 0.950 . S
H639 C666 0.950 . S
H640 C669 0.950 . S
H641 C670 0.950 . S
H642 C672 0.950 . S
H643 C673 0.950 . S
C644 H626 0.951 . S
C644 C645 1.366 . S
C644 C646 1.388 . S
C645 C644 1.366 . S
C645 C649 1.385 . S
C646 H627 0.951 . S
C646 C644 1.388 . S
C646 C647 1.366 . S
C647 C646 1.366 . S
C647 C648 1.414 . S
C647 C650 1.499 . S
C648 H628 0.950 . S
C648 C647 1.414 . S
C648 C649 1.374 . S
C649 H629 0.950 . S
C649 C645 1.385 . S
C649 C648 1.374 . S
C650 C647 1.499 . S
C650 C651 1.373 . S
C650 C652 1.389 . S
C651 H630 0.950 . S
C651 C650 1.373 . S
C651 C667 1.377 . S
C652 C650 1.389 . S
C652 C653 1.524 . S
C652 C666 1.377 . S
C653 C652 1.524 . S
C653 C654 1.397 . S
C653 C658 1.363 . S
C654 H631 0.950 . S
C654 C653 1.397 . S
C654 C655 1.334 . S
C655 H632 0.950 . S
C655 C654 1.334 . S
C655 C656 1.287 . S
C656 C655 1.287 . S
C656 C657 1.524 . S
C656 H675 0.913 . S
C657 H633 0.950 . S
C657 C656 1.524 . S
C657 C658 1.415 . S
C658 H634 0.950 . S
C658 C653 1.363 . S
C658 C657 1.415 . S
C659 H635 0.951 . S
C659 C660 1.366 . S
C659 C661 1.388 . S
C660 C659 1.366 . S
C660 C664 1.385 . S
C661 H636 0.951 . S
C661 C659 1.388 . S
C661 C662 1.366 . S
C662 C661 1.366 . S
C662 C663 1.414 . S
C662 C665 1.499 . S
C663 H637 0.950 . S
C663 C662 1.414 . S
C663 C664 1.374 . S
C664 H638 0.950 . S
C664 C660 1.385 . S
C664 C663 1.374 . S
C665 C662 1.499 . S
C665 C666 1.373 . S
C665 C667 1.389 . S
C666 H639 0.950 . S
C666 C652 1.377 . S
C666 C665 1.373 . S
C667 C651 1.377 . S
C667 C665 1.389 . S
C667 C668 1.524 . S
C668 C667 1.524 . S
C668 C669 1.397 . S
C668 C673 1.363 . S
C669 H640 0.950 . S
C669 C668 1.397 . S
C669 C670 1.334 . S
C670 H641 0.950 . S
C670 C669 1.334 . S
C670 C671 1.287 . S
C671 C670 1.287 . S
C671 C672 1.524 . S
C671 H674 0.999 . S
C672 H642 0.950 . S
C672 C671 1.524 . S
C672 C673 1.415 . S
C673 H643 0.950 . S
C673 C668 1.363 . S
C673 C672 1.415 . S
H674 C671 0.999 . S
H675 C656 0.913 . S
H676 C694 0.951 . S
H677 C696 0.951 . S
H678 C698 0.950 . S
H679 C699 0.950 . S
H680 C701 0.950 . S
H681 C704 0.950 . S
H682 C705 0.950 . S
H683 C707 0.950 . S
H684 C708 0.950 . S
H685 C709 0.951 . S
H686 C711 0.951 . S
H687 C713 0.950 . S
H688 C714 0.950 . S
H689 C716 0.950 . S
H690 C719 0.950 . S
H691 C720 0.950 . S
H692 C722 0.950 . S
H693 C723 0.950 . S
C694 H676 0.951 . S
C694 C695 1.366 1_556 S
C694 C696 1.388 . S
C695 C694 1.366 1_554 S
C695 C699 1.385 . S
C696 H677 0.951 . S
C696 C694 1.388 . S
C696 C697 1.366 1_556 S
C697 C696 1.366 1_554 S
C697 C698 1.414 . S
C697 C700 1.499 . S
C698 H678 0.950 . S
C698 C697 1.414 . S
C698 C699 1.374 . S
C699 H679 0.950 . S
C699 C695 1.385 . S
C699 C698 1.374 . S
C700 C697 1.499 . S
C700 C701 1.373 1_554 S
C700 C702 1.389 . S
C701 H680 0.950 . S
C701 C700 1.373 1_556 S
C701 C717 1.377 . S
C702 C700 1.389 . S
C702 C703 1.524 . S
C702 C716 1.377 . S
C703 C702 1.524 . S
C703 C704 1.397 . S
C703 C708 1.363 . S
C704 H681 0.950 . S
C704 C703 1.397 . S
C704 C705 1.334 . S
C705 H682 0.950 . S
C705 C704 1.334 . S
C705 C706 1.287 . S
C706 C705 1.287 . S
C706 C707 1.524 . S
C706 H725 0.913 . S
C707 H683 0.950 . S
C707 C706 1.524 . S
C707 C708 1.415 . S
C708 H684 0.950 . S
C708 C703 1.363 . S
C708 C707 1.415 . S
C709 H685 0.951 . S
C709 C710 1.366 1_554 S
C709 C711 1.388 . S
C710 C709 1.366 1_556 S
C710 C714 1.385 . S
C711 H686 0.951 . S
C711 C709 1.388 . S
C711 C712 1.366 1_554 S
C712 C711 1.366 1_556 S
C712 C713 1.414 . S
C712 C715 1.499 . S
C713 H687 0.950 . S
C713 C712 1.414 . S
C713 C714 1.374 . S
C714 H688 0.950 . S
C714 C710 1.385 . S
C714 C713 1.374 . S
C715 C712 1.499 . S
C715 C716 1.373 1_556 S
C715 C717 1.389 . S
C716 H689 0.950 . S
C716 C702 1.377 . S
C716 C715 1.373 1_554 S
C717 C701 1.377 . S
C717 C715 1.389 . S
C717 C718 1.524 . S
C718 C717 1.524 . S
C718 C719 1.397 . S
C718 C723 1.363 . S
C719 H690 0.950 . S
C719 C718 1.397 . S
C719 C720 1.334 . S
C720 H691 0.950 . S
C720 C719 1.334 . S
C720 C721 1.287 . S
C721 C720 1.287 . S
C721 C722 1.524 . S
C721 H724 0.999 . S
C722 H692 0.950 . S
C722 C721 1.524 . S
C722 C723 1.415 . S
C723 H693 0.950 . S
C723 C718 1.363 . S
C723 C722 1.415 . S
H724 C721 0.999 . S
H725 C706 0.913 . S
H726 C744 0.951 . S
H727 C746 0.951 . S
H728 C748 0.950 . S
H729 C749 0.950 . S
H730 C751 0.950 . S
H731 C754 0.950 . S
H732 C755 0.950 . S
H733 C757 0.950 . S
H734 C758 0.950 . S
H735 C759 0.951 . S
H736 C761 0.951 . S
H737 C763 0.950 . S
H738 C764 0.950 . S
H739 C766 0.950 . S
H740 C769 0.950 . S
H741 C770 0.950 . S
H742 C772 0.950 . S
H743 C773 0.950 . S
C744 H726 0.951 . S
C744 C745 1.366 . S
C744 C746 1.388 . S
C745 C744 1.366 . S
C745 C749 1.385 . S
C746 H727 0.951 . S
C746 C744 1.388 . S
C746 C747 1.366 . S
C747 C746 1.366 . S
C747 C748 1.414 . S
C747 C750 1.499 . S
C748 H728 0.950 . S
C748 C747 1.414 . S
C748 C749 1.374 . S
C749 H729 0.950 . S
C749 C745 1.385 . S
C749 C748 1.374 . S
C750 C747 1.499 . S
C750 C751 1.373 . S
C750 C752 1.389 . S
C751 H730 0.950 . S
C751 C750 1.373 . S
C751 C767 1.377 . S
C752 C750 1.389 . S
C752 C753 1.524 . S
C752 C766 1.377 . S
C753 C752 1.524 . S
C753 C754 1.397 . S
C753 C758 1.363 . S
C754 H731 0.950 . S
C754 C753 1.397 . S
C754 C755 1.334 . S
C755 H732 0.950 . S
C755 C754 1.334 . S
C755 C756 1.287 . S
C756 C755 1.287 . S
C756 C757 1.524 . S
C756 H775 0.913 . S
C757 H733 0.950 . S
C757 C756 1.524 . S
C757 C758 1.415 . S
C758 H734 0.950 . S
C758 C753 1.363 . S
C758 C757 1.415 . S
C759 H735 0.951 . S
C759 C760 1.366 . S
C759 C761 1.388 . S
C760 C759 1.366 . S
C760 C764 1.385 . S
C761 H736 0.951 . S
C761 C759 1.388 . S
C761 C762 1.366 . S
C762 C761 1.366 . S
C762 C763 1.414 . S
C762 C765 1.499 . S
C763 H737 0.950 . S
C763 C762 1.414 . S
C763 C764 1.374 . S
C764 H738 0.950 . S
C764 C760 1.385 . S
C764 C763 1.374 . S
C765 C762 1.499 . S
C765 C766 1.373 . S
C765 C767 1.389 . S
C766 H739 0.950 . S
C766 C752 1.377 . S
C766 C765 1.373 . S
C767 C751 1.377 . S
C767 C765 1.389 . S
C767 C768 1.524 . S
C768 C767 1.524 . S
C768 C769 1.397 . S
C768 C773 1.363 . S
C769 H740 0.950 . S
C769 C768 1.397 . S
C769 C770 1.334 . S
C770 H741 0.950 . S
C770 C769 1.334 . S
C770 C771 1.287 . S
C771 C770 1.287 . S
C771 C772 1.524 . S
C771 H774 0.999 . S
C772 H742 0.950 . S
C772 C771 1.524 . S
C772 C773 1.415 . S
C773 H743 0.950 . S
C773 C768 1.363 . S
C773 C772 1.415 . S
H774 C771 0.999 . S
H775 C756 0.913 . S
H776 C794 0.951 . S
H777 C796 0.951 . S
H778 C798 0.950 . S
H779 C799 0.950 . S
H780 C801 0.950 . S
H781 C804 0.950 . S
H782 C805 0.950 . S
H783 C807 0.950 . S
H784 C808 0.950 . S
H785 C809 0.951 . S
H786 C811 0.951 . S
H787 C813 0.950 . S
H788 C814 0.950 . S
H789 C816 0.950 . S
H790 C819 0.950 . S
H791 C820 0.950 . S
H792 C822 0.950 . S
H793 C823 0.950 . S
C794 H776 0.951 . S
C794 C795 1.366 . S
C794 C796 1.388 . S
C795 C794 1.366 . S
C795 C799 1.385 . S
C796 H777 0.951 . S
C796 C794 1.388 . S
C796 C797 1.366 . S
C797 C796 1.366 . S
C797 C798 1.414 . S
C797 C800 1.499 . S
C798 H778 0.950 . S
C798 C797 1.414 . S
C798 C799 1.374 . S
C799 H779 0.950 . S
C799 C795 1.385 . S
C799 C798 1.374 . S
C800 C797 1.499 . S
C800 C801 1.373 . S
C800 C802 1.389 . S
C801 H780 0.950 . S
C801 C800 1.373 . S
C801 C817 1.377 . S
C802 C800 1.389 . S
C802 C803 1.524 . S
C802 C816 1.377 . S
C803 C802 1.524 . S
C803 C804 1.397 . S
C803 C808 1.363 . S
C804 H781 0.950 . S
C804 C803 1.397 . S
C804 C805 1.334 . S
C805 H782 0.950 . S
C805 C804 1.334 . S
C805 C806 1.287 . S
C806 C805 1.287 . S
C806 C807 1.524 . S
C806 H825 0.913 . S
C807 H783 0.950 . S
C807 C806 1.524 . S
C807 C808 1.415 . S
C808 H784 0.950 . S
C808 C803 1.363 . S
C808 C807 1.415 . S
C809 H785 0.951 . S
C809 C810 1.366 . S
C809 C811 1.388 . S
C810 C809 1.366 . S
C810 C814 1.385 . S
C811 H786 0.951 . S
C811 C809 1.388 . S
C811 C812 1.366 . S
C812 C811 1.366 . S
C812 C813 1.414 . S
C812 C815 1.499 . S
C813 H787 0.950 . S
C813 C812 1.414 . S
C813 C814 1.374 . S
C814 H788 0.950 . S
C814 C810 1.385 . S
C814 C813 1.374 . S
C815 C812 1.499 . S
C815 C816 1.373 . S
C815 C817 1.389 . S
C816 H789 0.950 . S
C816 C802 1.377 . S
C816 C815 1.373 . S
C817 C801 1.377 . S
C817 C815 1.389 . S
C817 C818 1.524 . S
C818 C817 1.524 . S
C818 C819 1.397 . S
C818 C823 1.363 . S
C819 H790 0.950 . S
C819 C818 1.397 . S
C819 C820 1.334 . S
C820 H791 0.950 . S
C820 C819 1.334 . S
C820 C821 1.287 . S
C821 C820 1.287 . S
C821 C822 1.524 . S
C821 H824 0.999 . S
C822 H792 0.950 . S
C822 C821 1.524 . S
C822 C823 1.415 . S
C823 H793 0.950 . S
C823 C818 1.363 . S
C823 C822 1.415 . S
H824 C821 0.999 . S
H825 C806 0.913 . S
H826 C844 0.951 . S
H827 C846 0.951 . S
H828 C848 0.950 . S
H829 C849 0.950 . S
H830 C851 0.950 . S
H831 C854 0.950 1_554 S
H832 C855 0.950 . S
H833 C857 0.950 . S
H834 C858 0.950 . S
H835 C859 0.951 . S
H836 C861 0.951 . S
H837 C863 0.950 . S
H838 C864 0.950 . S
H839 C866 0.950 . S
H840 C869 0.950 1_556 S
H841 C870 0.950 . S
H842 C872 0.950 . S
H843 C873 0.950 . S
C844 H826 0.951 . S
C844 C845 1.366 . S
C844 C846 1.388 . S
C845 C844 1.366 . S
C845 C849 1.385 1_556 S
C846 H827 0.951 . S
C846 C844 1.388 . S
C846 C847 1.366 . S
C847 C846 1.366 . S
C847 C848 1.414 1_556 S
C847 C850 1.499 . S
C848 H828 0.950 . S
C848 C847 1.414 1_554 S
C848 C849 1.374 . S
C849 H829 0.950 . S
C849 C845 1.385 1_554 S
C849 C848 1.374 . S
C850 C847 1.499 . S
C850 C851 1.373 1_556 S
C850 C852 1.389 . S
C851 H830 0.950 . S
C851 C850 1.373 1_554 S
C851 C867 1.377 . S
C852 C850 1.389 . S
C852 C853 1.524 . S
C852 C866 1.377 . S
C853 C852 1.524 . S
C853 C854 1.397 . S
C853 C858 1.363 . S
C854 H831 0.950 1_556 S
C854 C853 1.397 . S
C854 C855 1.334 . S
C855 H832 0.950 . S
C855 C854 1.334 . S
C855 C856 1.287 . S
C856 C855 1.287 . S
C856 C857 1.524 . S
C856 H875 0.913 . S
C857 H833 0.950 . S
C857 C856 1.524 . S
C857 C858 1.415 . S
C858 H834 0.950 . S
C858 C853 1.363 . S
C858 C857 1.415 . S
C859 H835 0.951 . S
C859 C860 1.366 . S
C859 C861 1.388 . S
C860 C859 1.366 . S
C860 C864 1.385 1_554 S
C861 H836 0.951 . S
C861 C859 1.388 . S
C861 C862 1.366 . S
C862 C861 1.366 . S
C862 C863 1.414 1_554 S
C862 C865 1.499 1_554 S
C863 H837 0.950 . S
C863 C862 1.414 1_556 S
C863 C864 1.374 . S
C864 H838 0.950 . S
C864 C860 1.385 1_556 S
C864 C863 1.374 . S
C865 C862 1.499 1_556 S
C865 C866 1.373 . S
C865 C867 1.389 1_556 S
C866 H839 0.950 . S
C866 C852 1.377 . S
C866 C865 1.373 . S
C867 C851 1.377 . S
C867 C865 1.389 1_554 S
C867 C868 1.524 . S
C868 C867 1.524 . S
C868 C869 1.397 . S
C868 C873 1.363 . S
C869 H840 0.950 1_554 S
C869 C868 1.397 . S
C869 C870 1.334 . S
C870 H841 0.950 . S
C870 C869 1.334 . S
C870 C871 1.287 . S
C871 C870 1.287 . S
C871 C872 1.524 . S
C871 H874 0.999 . S
C872 H842 0.950 . S
C872 C871 1.524 . S
C872 C873 1.415 . S
C873 H843 0.950 . S
C873 C868 1.363 . S
C873 C872 1.415 . S
H874 C871 0.999 . S
H875 C856 0.913 . S
H876 C894 0.951 . S
H877 C896 0.951 . S
H878 C898 0.950 . S
H879 C899 0.950 . S
H880 C901 0.950 . S
H881 C904 0.950 1_545 S
H882 C905 0.950 . S
H883 C907 0.950 . S
H884 C908 0.950 . S
H885 C909 0.951 . S
H886 C911 0.951 . S
H887 C913 0.950 . S
H888 C914 0.950 . S
H889 C916 0.950 . S
H890 C919 0.950 1_565 S
H891 C920 0.950 . S
H892 C922 0.950 . S
H893 C923 0.950 . S
C894 H876 0.951 . S
C894 C895 1.366 . S
C894 C896 1.388 . S
C895 C894 1.366 . S
C895 C899 1.385 . S
C896 H877 0.951 . S
C896 C894 1.388 . S
C896 C897 1.366 . S
C897 C896 1.366 . S
C897 C898 1.414 . S
C897 C900 1.499 . S
C898 H878 0.950 . S
C898 C897 1.414 . S
C898 C899 1.374 . S
C899 H879 0.950 . S
C899 C895 1.385 . S
C899 C898 1.374 . S
C900 C897 1.499 . S
C900 C901 1.373 . S
C900 C902 1.389 1_545 S
C901 H880 0.950 . S
C901 C900 1.373 . S
C901 C917 1.377 . S
C902 C900 1.389 1_565 S
C902 C903 1.524 . S
C902 C916 1.377 . S
C903 C902 1.524 . S
C903 C904 1.397 . S
C903 C908 1.363 . S
C904 H881 0.950 1_565 S
C904 C903 1.397 . S
C904 C905 1.334 . S
C905 H882 0.950 . S
C905 C904 1.334 . S
C905 C906 1.287 . S
C906 C905 1.287 . S
C906 C907 1.524 . S
C906 H925 0.913 . S
C907 H883 0.950 . S
C907 C906 1.524 . S
C907 C908 1.415 . S
C908 H884 0.950 . S
C908 C903 1.363 . S
C908 C907 1.415 . S
C909 H885 0.951 . S
C909 C910 1.366 . S
C909 C911 1.388 . S
C910 C909 1.366 . S
C910 C914 1.385 . S
C911 H886 0.951 . S
C911 C909 1.388 . S
C911 C912 1.366 . S
C912 C911 1.366 . S
C912 C913 1.414 . S
C912 C915 1.499 . S
C913 H887 0.950 . S
C913 C912 1.414 . S
C913 C914 1.374 . S
C914 H888 0.950 . S
C914 C910 1.385 . S
C914 C913 1.374 . S
C915 C912 1.499 . S
C915 C916 1.373 . S
C915 C917 1.389 1_565 S
C916 H889 0.950 . S
C916 C902 1.377 . S
C916 C915 1.373 . S
C917 C901 1.377 . S
C917 C915 1.389 1_545 S
C917 C918 1.524 . S
C918 C917 1.524 . S
C918 C919 1.397 . S
C918 C923 1.363 . S
C919 H890 0.950 1_545 S
C919 C918 1.397 . S
C919 C920 1.334 . S
C920 H891 0.950 . S
C920 C919 1.334 . S
C920 C921 1.287 . S
C921 C920 1.287 . S
C921 C922 1.524 . S
C921 H924 0.999 . S
C922 H892 0.950 . S
C922 C921 1.524 . S
C922 C923 1.415 . S
C923 H893 0.950 . S
C923 C918 1.363 . S
C923 C922 1.415 . S
H924 C921 0.999 . S
H925 C906 0.913 . S
H926 C944 0.951 . S
H927 C946 0.951 . S
H928 C948 0.950 . S
H929 C949 0.950 . S
H930 C951 0.950 . S
H931 C954 0.950 . S
H932 C955 0.950 . S
H933 C957 0.950 . S
H934 C958 0.950 . S
H935 C959 0.951 . S
H936 C961 0.951 . S
H937 C963 0.950 . S
H938 C964 0.950 . S
H939 C966 0.950 . S
H940 C969 0.950 . S
H941 C970 0.950 . S
H942 C972 0.950 . S
H943 C973 0.950 . S
C944 H926 0.951 . S
C944 C945 1.366 . S
C944 C946 1.388 . S
C945 C944 1.366 . S
C945 C949 1.385 . S
C946 H927 0.951 . S
C946 C944 1.388 . S
C946 C947 1.366 . S
C947 C946 1.366 . S
C947 C948 1.414 . S
C947 C950 1.499 . S
C948 H928 0.950 . S
C948 C947 1.414 . S
C948 C949 1.374 . S
C949 H929 0.950 . S
C949 C945 1.385 . S
C949 C948 1.374 . S
C950 C947 1.499 . S
C950 C951 1.373 . S
C950 C952 1.389 . S
C951 H930 0.950 . S
C951 C950 1.373 . S
C951 C967 1.377 . S
C952 C950 1.389 . S
C952 C953 1.524 . S
C952 C966 1.377 . S
C953 C952 1.524 . S
C953 C954 1.397 . S
C953 C958 1.363 . S
C954 H931 0.950 . S
C954 C953 1.397 . S
C954 C955 1.334 . S
C955 H932 0.950 . S
C955 C954 1.334 . S
C955 C956 1.287 . S
C956 C955 1.287 . S
C956 C957 1.524 . S
C956 H975 0.913 . S
C957 H933 0.950 . S
C957 C956 1.524 . S
C957 C958 1.415 . S
C958 H934 0.950 . S
C958 C953 1.363 . S
C958 C957 1.415 . S
C959 H935 0.951 . S
C959 C960 1.366 . S
C959 C961 1.388 . S
C960 C959 1.366 . S
C960 C964 1.385 . S
C961 H936 0.951 . S
C961 C959 1.388 . S
C961 C962 1.366 . S
C962 C961 1.366 . S
C962 C963 1.414 . S
C962 C965 1.499 . S
C963 H937 0.950 . S
C963 C962 1.414 . S
C963 C964 1.374 . S
C964 H938 0.950 . S
C964 C960 1.385 . S
C964 C963 1.374 . S
C965 C962 1.499 . S
C965 C966 1.373 . S
C965 C967 1.389 . S
C966 H939 0.950 . S
C966 C952 1.377 . S
C966 C965 1.373 . S
C967 C951 1.377 . S
C967 C965 1.389 . S
C967 C968 1.524 . S
C968 C967 1.524 . S
C968 C969 1.397 . S
C968 C973 1.363 . S
C969 H940 0.950 . S
C969 C968 1.397 . S
C969 C970 1.334 . S
C970 H941 0.950 . S
C970 C969 1.334 . S
C970 C971 1.287 . S
C971 C970 1.287 . S
C971 C972 1.524 . S
C971 H974 0.999 . S
C972 H942 0.950 . S
C972 C971 1.524 . S
C972 C973 1.415 . S
C973 H943 0.950 . S
C973 C968 1.363 . S
C973 C972 1.415 . S
H974 C971 0.999 . S
H975 C956 0.913 . S
H976 C994 0.951 . S
H977 C996 0.951 . S
H978 C998 0.950 . S
H979 C999 0.950 . S
H980 C1001 0.938 . S
H981 C1004 0.950 . S
H982 C1005 0.950 . S
H983 C1007 0.944 1_554 S
H984 C1008 0.950 . S
H985 C1009 0.951 . S
H986 C1011 0.951 . S
H987 C1013 0.950 . S
H988 C1014 0.950 . S
H989 C1016 0.938 . S
H990 C1019 0.950 . S
H991 C1020 0.950 . S
H992 C1022 0.926 1_556 S
H993 C1023 0.950 . S
C994 H976 0.951 . S
C994 C995 1.374 . S
C994 C996 1.388 . S
C995 C994 1.374 . S
C995 C999 1.376 1_554 S
C996 H977 0.951 . S
C996 C994 1.388 . S
C996 C997 1.347 1_554 S
C997 C996 1.347 1_556 S
C997 C998 1.432 . S
C997 C1000 1.500 . S
C998 H978 0.950 . S
C998 C997 1.432 . S
C998 C999 1.374 . S
C999 H979 0.950 . S
C999 C995 1.376 1_556 S
C999 C998 1.374 . S
C1000 C997 1.500 . S
C1000 C1001 1.367 1_656 S
C1000 C1002 1.389 . S
C1001 H980 0.938 . S
C1001 C1000 1.367 1_454 S
C1001 C1017 1.380 . S
C1002 C1000 1.389 . S
C1002 C1003 1.524 . S
C1002 C1016 1.380 . S
C1003 C1002 1.524 . S
C1003 C1004 1.397 . S
C1003 C1008 1.363 1_556 S
C1004 H981 0.950 . S
C1004 C1003 1.397 . S
C1004 C1005 1.334 . S
C1005 H982 0.950 . S
C1005 C1004 1.334 . S
C1005 C1006 1.287 . S
C1006 C1005 1.287 . S
C1006 C1007 1.532 . S
C1006 H1025 0.913 . S
C1007 H983 0.944 1_556 S
C1007 C1006 1.532 . S
C1007 C1008 1.413 1_556 S
C1008 H984 0.950 . S
C1008 C1003 1.363 1_554 S
C1008 C1007 1.413 1_554 S
C1009 H985 0.951 . S
C1009 C1010 1.359 1_556 S
C1009 C1011 1.388 . S
C1010 C1009 1.359 1_554 S
C1010 C1014 1.391 . S
C1011 H986 0.951 . S
C1011 C1009 1.388 . S
C1011 C1012 1.366 1_556 S
C1012 C1011 1.366 1_554 S
C1012 C1013 1.414 . S
C1012 C1015 1.499 . S
C1013 H987 0.950 . S
C1013 C1012 1.414 . S
C1013 C1014 1.374 . S
C1014 H988 0.950 . S
C1014 C1010 1.391 . S
C1014 C1013 1.374 . S
C1015 C1012 1.499 . S
C1015 C1016 1.367 1_454 S
C1015 C1017 1.389 . S
C1016 H989 0.938 . S
C1016 C1002 1.380 . S
C1016 C1015 1.367 1_656 S
C1017 C1001 1.380 . S
C1017 C1015 1.389 . S
C1017 C1018 1.524 . S
C1018 C1017 1.524 . S
C1018 C1019 1.397 . S
C1018 C1023 1.363 1_554 S
C1019 H990 0.950 . S
C1019 C1018 1.397 . S
C1019 C1020 1.334 . S
C1020 H991 0.950 . S
C1020 C1019 1.334 . S
C1020 C1021 1.287 . S
C1021 C1020 1.287 . S
C1021 C1022 1.562 . S
C1021 H1024 0.999 . S
C1022 H992 0.926 1_554 S
C1022 C1021 1.562 . S
C1022 C1023 1.406 1_554 S
C1023 H993 0.950 . S
C1023 C1018 1.363 1_556 S
C1023 C1022 1.406 1_556 S
H1024 C1021 0.999 . S
H1025 C1006 0.913 . S
H1026 C1044 0.951 . S
H1027 C1046 0.951 . S
H1028 C1048 0.950 . S
H1029 C1049 0.950 . S
H1030 C1051 0.950 . S
H1031 C1054 0.950 . S
H1032 C1055 0.950 . S
H1033 C1057 0.950 . S
H1034 C1058 0.950 . S
H1035 C1059 0.951 . S
H1036 C1061 0.951 . S
H1037 C1063 0.950 . S
H1038 C1064 0.950 . S
H1039 C1066 0.950 . S
H1040 C1069 0.950 . S
H1041 C1070 0.950 . S
H1042 C1072 0.950 . S
H1043 C1073 0.950 . S
C1044 H1026 0.951 . S
C1044 C1045 1.366 . S
C1044 C1046 1.388 . S
C1045 C1044 1.366 . S
C1045 C1049 1.385 . S
C1046 H1027 0.951 . S
C1046 C1044 1.388 . S
C1046 C1047 1.366 . S
C1047 C1046 1.366 . S
C1047 C1048 1.414 . S
C1047 C1050 1.499 . S
C1048 H1028 0.950 . S
C1048 C1047 1.414 . S
C1048 C1049 1.374 . S
C1049 H1029 0.950 . S
C1049 C1045 1.385 . S
C1049 C1048 1.374 . S
C1050 C1047 1.499 . S
C1050 C1051 1.373 . S
C1050 C1052 1.389 . S
C1051 H1030 0.950 . S
C1051 C1050 1.373 . S
C1051 C1067 1.377 1_455 S
C1052 C1050 1.389 . S
C1052 C1053 1.524 . S
C1052 C1066 1.377 1_455 S
C1053 C1052 1.524 . S
C1053 C1054 1.397 . S
C1053 C1058 1.363 1_455 S
C1054 H1031 0.950 . S
C1054 C1053 1.397 . S
C1054 C1055 1.334 . S
C1055 H1032 0.950 . S
C1055 C1054 1.334 . S
C1055 C1056 1.287 . S
C1056 C1055 1.287 . S
C1056 C1057 1.524 1_455 S
C1056 H1075 0.913 . S
C1057 H1033 0.950 . S
C1057 C1056 1.524 1_655 S
C1057 C1058 1.415 . S
C1058 H1034 0.950 . S
C1058 C1053 1.363 1_655 S
C1058 C1057 1.415 . S
C1059 H1035 0.951 . S
C1059 C1060 1.366 . S
C1059 C1061 1.388 . S
C1060 C1059 1.366 . S
C1060 C1064 1.385 . S
C1061 H1036 0.951 . S
C1061 C1059 1.388 . S
C1061 C1062 1.366 . S
C1062 C1061 1.366 . S
C1062 C1063 1.414 . S
C1062 C1065 1.499 . S
C1063 H1037 0.950 . S
C1063 C1062 1.414 . S
C1063 C1064 1.374 . S
C1064 H1038 0.950 . S
C1064 C1060 1.385 . S
C1064 C1063 1.374 . S
C1065 C1062 1.499 . S
C1065 C1066 1.373 . S
C1065 C1067 1.389 . S
C1066 H1039 0.950 . S
C1066 C1052 1.377 1_655 S
C1066 C1065 1.373 . S
C1067 C1051 1.377 1_655 S
C1067 C1065 1.389 . S
C1067 C1068 1.524 . S
C1068 C1067 1.524 . S
C1068 C1069 1.397 . S
C1068 C1073 1.363 1_655 S
C1069 H1040 0.950 . S
C1069 C1068 1.397 . S
C1069 C1070 1.334 . S
C1070 H1041 0.950 . S
C1070 C1069 1.334 . S
C1070 C1071 1.287 . S
C1071 C1070 1.287 . S
C1071 C1072 1.524 1_655 S
C1071 H1074 0.999 . S
C1072 H1042 0.950 . S
C1072 C1071 1.524 1_455 S
C1072 C1073 1.415 . S
C1073 H1043 0.950 . S
C1073 C1068 1.363 1_455 S
C1073 C1072 1.415 . S
H1074 C1071 0.999 . S
H1075 C1056 0.913 . S
H1076 C1094 0.951 . S
H1077 C1096 0.951 . S
H1078 C1098 0.950 . S
H1079 C1099 0.950 . S
H1080 C1101 0.950 . S
H1081 C1104 0.950 . S
H1082 C1105 0.950 . S
H1083 C1107 0.950 . S
H1084 C1108 0.950 . S
H1085 C1109 0.951 . S
H1086 C1111 0.951 . S
H1087 C1113 0.950 . S
H1088 C1114 0.950 . S
H1089 C1116 0.950 . S
H1090 C1119 0.950 . S
H1091 C1120 0.950 . S
H1092 C1122 0.950 . S
H1093 C1123 0.950 . S
C1094 H1076 0.951 . S
C1094 C1095 1.366 . S
C1094 C1096 1.388 . S
C1095 C1094 1.366 . S
C1095 C1099 1.385 . S
C1096 H1077 0.951 . S
C1096 C1094 1.388 . S
C1096 C1097 1.366 . S
C1097 C1096 1.366 . S
C1097 C1098 1.414 . S
C1097 C1100 1.499 . S
C1098 H1078 0.950 . S
C1098 C1097 1.414 . S
C1098 C1099 1.374 . S
C1099 H1079 0.950 . S
C1099 C1095 1.385 . S
C1099 C1098 1.374 . S
C1100 C1097 1.499 . S
C1100 C1101 1.373 1_545 S
C1100 C1102 1.389 . S
C1101 H1080 0.950 . S
C1101 C1100 1.373 1_565 S
C1101 C1117 1.377 . S
C1102 C1100 1.389 . S
C1102 C1103 1.524 . S
C1102 C1116 1.377 . S
C1103 C1102 1.524 . S
C1103 C1104 1.397 . S
C1103 C1108 1.363 . S
C1104 H1081 0.950 . S
C1104 C1103 1.397 . S
C1104 C1105 1.334 . S
C1105 H1082 0.950 . S
C1105 C1104 1.334 . S
C1105 C1106 1.287 . S
C1106 C1105 1.287 . S
C1106 C1107 1.524 . S
C1106 H1125 0.913 . S
C1107 H1083 0.950 . S
C1107 C1106 1.524 . S
C1107 C1108 1.415 . S
C1108 H1084 0.950 . S
C1108 C1103 1.363 . S
C1108 C1107 1.415 . S
C1109 H1085 0.951 . S
C1109 C1110 1.366 . S
C1109 C1111 1.388 . S
C1110 C1109 1.366 . S
C1110 C1114 1.385 . S
C1111 H1086 0.951 . S
C1111 C1109 1.388 . S
C1111 C1112 1.366 . S
C1112 C1111 1.366 . S
C1112 C1113 1.414 . S
C1112 C1115 1.499 . S
C1113 H1087 0.950 . S
C1113 C1112 1.414 . S
C1113 C1114 1.374 . S
C1114 H1088 0.950 . S
C1114 C1110 1.385 . S
C1114 C1113 1.374 . S
C1115 C1112 1.499 . S
C1115 C1116 1.373 1_565 S
C1115 C1117 1.389 . S
C1116 H1089 0.950 . S
C1116 C1102 1.377 . S
C1116 C1115 1.373 1_545 S
C1117 C1101 1.377 . S
C1117 C1115 1.389 . S
C1117 C1118 1.524 . S
C1118 C1117 1.524 . S
C1118 C1119 1.397 . S
C1118 C1123 1.363 . S
C1119 H1090 0.950 . S
C1119 C1118 1.397 . S
C1119 C1120 1.334 . S
C1120 H1091 0.950 . S
C1120 C1119 1.334 . S
C1120 C1121 1.287 . S
C1121 C1120 1.287 . S
C1121 C1122 1.524 . S
C1121 H1124 0.999 . S
C1122 H1092 0.950 . S
C1122 C1121 1.524 . S
C1122 C1123 1.415 . S
C1123 H1093 0.950 . S
C1123 C1118 1.363 . S
C1123 C1122 1.415 . S
H1124 C1121 0.999 . S
H1125 C1106 0.913 . S
H1126 C1144 0.951 . S
H1127 C1146 0.951 . S
H1128 C1148 0.950 . S
H1129 C1149 0.950 . S
H1130 C1151 0.950 . S
H1131 C1154 0.950 . S
H1132 C1155 0.950 . S
H1133 C1157 0.950 . S
H1134 C1158 0.950 . S
H1135 C1159 0.951 . S
H1136 C1161 0.951 . S
H1137 C1163 0.950 . S
H1138 C1164 0.950 . S
H1139 C1166 0.950 . S
H1140 C1169 0.950 . S
H1141 C1170 0.950 . S
H1142 C1172 0.950 . S
H1143 C1173 0.950 . S
C1144 H1126 0.951 . S
C1144 C1145 1.374 . S
C1144 C1146 1.388 . S
C1145 C1144 1.374 . S
C1145 C1149 1.376 1_556 S
C1146 H1127 0.951 . S
C1146 C1144 1.388 . S
C1146 C1147 1.395 . S
C1147 C1146 1.395 . S
C1147 C1148 1.384 1_556 S
C1147 C1150 1.498 . S
C1148 H1128 0.950 . S
C1148 C1147 1.384 1_554 S
C1148 C1149 1.374 . S
C1149 H1129 0.950 . S
C1149 C1145 1.376 1_554 S
C1149 C1148 1.374 . S
C1150 C1147 1.498 . S
C1150 C1151 1.372 1_556 S
C1150 C1152 1.391 . S
C1151 H1130 0.950 . S
C1151 C1150 1.372 1_554 S
C1151 C1167 1.377 . S
C1152 C1150 1.391 . S
C1152 C1153 1.524 . S
C1152 C1166 1.377 . S
C1153 C1152 1.524 . S
C1153 C1154 1.397 . S
C1153 C1158 1.363 . S
C1154 H1131 0.950 . S
C1154 C1153 1.397 . S
C1154 C1155 1.334 . S
C1155 H1132 0.950 . S
C1155 C1154 1.334 . S
C1155 C1156 1.287 . S
C1156 C1155 1.287 . S
C1156 C1157 1.524 . S
C1156 H1175 0.913 . S
C1157 H1133 0.950 . S
C1157 C1156 1.524 . S
C1157 C1158 1.415 . S
C1158 H1134 0.950 . S
C1158 C1153 1.363 . S
C1158 C1157 1.415 . S
C1159 H1135 0.951 . S
C1159 C1160 1.355 1_554 S
C1159 C1161 1.388 . S
C1160 C1159 1.355 1_556 S
C1160 C1164 1.395 . S
C1161 H1136 0.951 . S
C1161 C1159 1.388 . S
C1161 C1162 1.367 . S
C1162 C1161 1.367 . S
C1162 C1163 1.413 1_554 S
C1162 C1165 1.498 1_554 S
C1163 H1137 0.950 . S
C1163 C1162 1.413 1_556 S
C1163 C1164 1.374 . S
C1164 H1138 0.950 . S
C1164 C1160 1.395 . S
C1164 C1163 1.374 . S
C1165 C1162 1.498 1_556 S
C1165 C1166 1.391 . S
C1165 C1167 1.372 1_556 S
C1166 H1139 0.950 . S
C1166 C1152 1.377 . S
C1166 C1165 1.391 . S
C1167 C1151 1.377 . S
C1167 C1165 1.372 1_554 S
C1167 C1168 1.524 . S
C1168 C1167 1.524 . S
C1168 C1169 1.397 . S
C1168 C1173 1.363 . S
C1169 H1140 0.950 . S
C1169 C1168 1.397 . S
C1169 C1170 1.334 . S
C1170 H1141 0.950 . S
C1170 C1169 1.334 . S
C1170 C1171 1.287 . S
C1171 C1170 1.287 . S
C1171 C1172 1.524 . S
C1171 H1174 0.999 . S
C1172 H1142 0.950 . S
C1172 C1171 1.524 . S
C1172 C1173 1.415 . S
C1173 H1143 0.950 . S
C1173 C1168 1.363 . S
C1173 C1172 1.415 . S
H1174 C1171 0.999 . S
H1175 C1156 0.913 . S
H1176 C1194 0.951 . S
H1177 C1196 0.951 . S
H1178 C1198 0.950 . S
H1179 C1199 0.950 . S
H1180 C1201 0.950 . S
H1181 C1204 0.950 . S
H1182 C1205 0.950 . S
H1183 C1207 0.950 . S
H1184 C1208 0.950 . S
H1185 C1209 0.951 . S
H1186 C1211 0.951 . S
H1187 C1213 0.950 . S
H1188 C1214 0.950 . S
H1189 C1216 0.950 . S
H1190 C1219 0.950 . S
H1191 C1220 0.950 . S
H1192 C1222 0.950 . S
H1193 C1223 0.950 . S
C1194 H1176 0.951 . S
C1194 C1195 1.366 . S
C1194 C1196 1.388 . S
C1195 C1194 1.366 . S
C1195 C1199 1.385 . S
C1196 H1177 0.951 . S
C1196 C1194 1.388 . S
C1196 C1197 1.366 . S
C1197 C1196 1.366 . S
C1197 C1198 1.414 . S
C1197 C1200 1.499 . S
C1198 H1178 0.950 . S
C1198 C1197 1.414 . S
C1198 C1199 1.374 . S
C1199 H1179 0.950 . S
C1199 C1195 1.385 . S
C1199 C1198 1.374 . S
C1200 C1197 1.499 . S
C1200 C1201 1.373 . S
C1200 C1202 1.389 . S
C1201 H1180 0.950 . S
C1201 C1200 1.373 . S
C1201 C1217 1.377 . S
C1202 C1200 1.389 . S
C1202 C1203 1.524 . S
C1202 C1216 1.377 . S
C1203 C1202 1.524 . S
C1203 C1204 1.397 . S
C1203 C1208 1.363 . S
C1204 H1181 0.950 . S
C1204 C1203 1.397 . S
C1204 C1205 1.334 . S
C1205 H1182 0.950 . S
C1205 C1204 1.334 . S
C1205 C1206 1.287 . S
C1206 C1205 1.287 . S
C1206 C1207 1.524 . S
C1206 H1225 0.913 . S
C1207 H1183 0.950 . S
C1207 C1206 1.524 . S
C1207 C1208 1.415 . S
C1208 H1184 0.950 . S
C1208 C1203 1.363 . S
C1208 C1207 1.415 . S
C1209 H1185 0.951 . S
C1209 C1210 1.366 . S
C1209 C1211 1.388 . S
C1210 C1209 1.366 . S
C1210 C1214 1.385 . S
C1211 H1186 0.951 . S
C1211 C1209 1.388 . S
C1211 C1212 1.366 . S
C1212 C1211 1.366 . S
C1212 C1213 1.414 . S
C1212 C1215 1.499 . S
C1213 H1187 0.950 . S
C1213 C1212 1.414 . S
C1213 C1214 1.374 . S
C1214 H1188 0.950 . S
C1214 C1210 1.385 . S
C1214 C1213 1.374 . S
C1215 C1212 1.499 . S
C1215 C1216 1.373 . S
C1215 C1217 1.389 . S
C1216 H1189 0.950 . S
C1216 C1202 1.377 . S
C1216 C1215 1.373 . S
C1217 C1201 1.377 . S
C1217 C1215 1.389 . S
C1217 C1218 1.524 . S
C1218 C1217 1.524 . S
C1218 C1219 1.397 . S
C1218 C1223 1.363 . S
C1219 H1190 0.950 . S
C1219 C1218 1.397 . S
C1219 C1220 1.334 . S
C1220 H1191 0.950 . S
C1220 C1219 1.334 . S
C1220 C1221 1.287 . S
C1221 C1220 1.287 . S
C1221 C1222 1.524 . S
C1221 H1224 0.999 . S
C1222 H1192 0.950 . S
C1222 C1221 1.524 . S
C1222 C1223 1.415 . S
C1223 H1193 0.950 . S
C1223 C1218 1.363 . S
C1223 C1222 1.415 . S
H1224 C1221 0.999 . S
H1225 C1206 0.913 . S
H1226 C1244 0.951 . S
H1227 C1246 0.951 . S
H1228 C1248 0.950 . S
H1229 C1249 0.950 . S
H1230 C1251 0.950 . S
H1231 C1254 0.950 . S
H1232 C1255 0.950 . S
H1233 C1257 0.950 . S
H1234 C1258 0.950 . S
H1235 C1259 0.951 . S
H1236 C1261 0.951 . S
H1237 C1263 0.950 . S
H1238 C1264 0.950 . S
H1239 C1266 0.950 . S
H1240 C1269 0.950 . S
H1241 C1270 0.950 . S
H1242 C1272 0.950 . S
H1243 C1273 0.950 . S
C1244 H1226 0.951 . S
C1244 C1245 1.366 . S
C1244 C1246 1.388 . S
C1245 C1244 1.366 . S
C1245 C1249 1.385 . S
C1246 H1227 0.951 . S
C1246 C1244 1.388 . S
C1246 C1247 1.366 . S
C1247 C1246 1.366 . S
C1247 C1248 1.414 . S
C1247 C1250 1.499 . S
C1248 H1228 0.950 . S
C1248 C1247 1.414 . S
C1248 C1249 1.374 . S
C1249 H1229 0.950 . S
C1249 C1245 1.385 . S
C1249 C1248 1.374 . S
C1250 C1247 1.499 . S
C1250 C1251 1.373 . S
C1250 C1252 1.389 . S
C1251 H1230 0.950 . S
C1251 C1250 1.373 . S
C1251 C1267 1.377 . S
C1252 C1250 1.389 . S
C1252 C1253 1.524 . S
C1252 C1266 1.377 . S
C1253 C1252 1.524 . S
C1253 C1254 1.397 . S
C1253 C1258 1.363 . S
C1254 H1231 0.950 . S
C1254 C1253 1.397 . S
C1254 C1255 1.334 . S
C1255 H1232 0.950 . S
C1255 C1254 1.334 . S
C1255 C1256 1.287 . S
C1256 C1255 1.287 . S
C1256 C1257 1.524 . S
C1256 H1275 0.913 . S
C1257 H1233 0.950 . S
C1257 C1256 1.524 . S
C1257 C1258 1.415 . S
C1258 H1234 0.950 . S
C1258 C1253 1.363 . S
C1258 C1257 1.415 . S
C1259 H1235 0.951 . S
C1259 C1260 1.366 . S
C1259 C1261 1.388 . S
C1260 C1259 1.366 . S
C1260 C1264 1.385 . S
C1261 H1236 0.951 . S
C1261 C1259 1.388 . S
C1261 C1262 1.366 . S
C1262 C1261 1.366 . S
C1262 C1263 1.414 . S
C1262 C1265 1.499 . S
C1263 H1237 0.950 . S
C1263 C1262 1.414 . S
C1263 C1264 1.374 . S
C1264 H1238 0.950 . S
C1264 C1260 1.385 . S
C1264 C1263 1.374 . S
C1265 C1262 1.499 . S
C1265 C1266 1.373 . S
C1265 C1267 1.389 . S
C1266 H1239 0.950 . S
C1266 C1252 1.377 . S
C1266 C1265 1.373 . S
C1267 C1251 1.377 . S
C1267 C1265 1.389 . S
C1267 C1268 1.524 . S
C1268 C1267 1.524 . S
C1268 C1269 1.397 . S
C1268 C1273 1.363 . S
C1269 H1240 0.950 . S
C1269 C1268 1.397 . S
C1269 C1270 1.334 . S
C1270 H1241 0.950 . S
C1270 C1269 1.334 . S
C1270 C1271 1.287 . S
C1271 C1270 1.287 . S
C1271 C1272 1.524 . S
C1271 H1274 0.999 . S
C1272 H1242 0.950 . S
C1272 C1271 1.524 . S
C1272 C1273 1.415 . S
C1273 H1243 0.950 . S
C1273 C1268 1.363 . S
C1273 C1272 1.415 . S
H1274 C1271 0.999 . S
H1275 C1256 0.913 . S
H1276 C1294 0.951 . S
H1277 C1296 0.951 . S
H1278 C1298 0.950 . S
H1279 C1299 0.950 . S
H1280 C1301 0.950 . S
H1281 C1304 0.950 . S
H1282 C1305 0.950 . S
H1283 C1307 0.950 . S
H1284 C1308 0.950 . S
H1285 C1309 0.951 . S
H1286 C1311 0.951 . S
H1287 C1313 0.950 . S
H1288 C1314 0.950 . S
H1289 C1316 0.950 . S
H1290 C1319 0.950 . S
H1291 C1320 0.950 . S
H1292 C1322 0.950 . S
H1293 C1323 0.950 . S
C1294 H1276 0.951 . S
C1294 C1295 1.366 . S
C1294 C1296 1.388 . S
C1295 C1294 1.366 . S
C1295 C1299 1.385 . S
C1296 H1277 0.951 . S
C1296 C1294 1.388 . S
C1296 C1297 1.366 . S
C1297 C1296 1.366 . S
C1297 C1298 1.414 . S
C1297 C1300 1.499 . S
C1298 H1278 0.950 . S
C1298 C1297 1.414 . S
C1298 C1299 1.374 . S
C1299 H1279 0.950 . S
C1299 C1295 1.385 . S
C1299 C1298 1.374 . S
C1300 C1297 1.499 . S
C1300 C1301 1.373 . S
C1300 C1302 1.389 . S
C1301 H1280 0.950 . S
C1301 C1300 1.373 . S
C1301 C1317 1.377 . S
C1302 C1300 1.389 . S
C1302 C1303 1.524 . S
C1302 C1316 1.377 . S
C1303 C1302 1.524 . S
C1303 C1304 1.397 . S
C1303 C1308 1.363 . S
C1304 H1281 0.950 . S
C1304 C1303 1.397 . S
C1304 C1305 1.334 . S
C1305 H1282 0.950 . S
C1305 C1304 1.334 . S
C1305 C1306 1.287 . S
C1306 C1305 1.287 . S
C1306 C1307 1.524 . S
C1306 H1325 0.913 . S
C1307 H1283 0.950 . S
C1307 C1306 1.524 . S
C1307 C1308 1.415 . S
C1308 H1284 0.950 . S
C1308 C1303 1.363 . S
C1308 C1307 1.415 . S
C1309 H1285 0.951 . S
C1309 C1310 1.366 . S
C1309 C1311 1.388 . S
C1310 C1309 1.366 . S
C1310 C1314 1.385 . S
C1311 H1286 0.951 . S
C1311 C1309 1.388 . S
C1311 C1312 1.366 . S
C1312 C1311 1.366 . S
C1312 C1313 1.414 . S
C1312 C1315 1.499 . S
C1313 H1287 0.950 . S
C1313 C1312 1.414 . S
C1313 C1314 1.374 . S
C1314 H1288 0.950 . S
C1314 C1310 1.385 . S
C1314 C1313 1.374 . S
C1315 C1312 1.499 . S
C1315 C1316 1.373 . S
C1315 C1317 1.389 . S
C1316 H1289 0.950 . S
C1316 C1302 1.377 . S
C1316 C1315 1.373 . S
C1317 C1301 1.377 . S
C1317 C1315 1.389 . S
C1317 C1318 1.524 . S
C1318 C1317 1.524 . S
C1318 C1319 1.397 . S
C1318 C1323 1.363 . S
C1319 H1290 0.950 . S
C1319 C1318 1.397 . S
C1319 C1320 1.334 . S
C1320 H1291 0.950 . S
C1320 C1319 1.334 . S
C1320 C1321 1.287 . S
C1321 C1320 1.287 . S
C1321 C1322 1.524 . S
C1321 H1324 0.999 . S
C1322 H1292 0.950 . S
C1322 C1321 1.524 . S
C1322 C1323 1.415 . S
C1323 H1293 0.950 . S
C1323 C1318 1.363 . S
C1323 C1322 1.415 . S
H1324 C1321 0.999 . S
H1325 C1306 0.913 . S
H1326 C1344 0.951 . S
H1327 C1346 0.951 . S
H1328 C1348 0.950 . S
H1329 C1349 0.950 . S
H1330 C1351 0.950 . S
H1331 C1354 0.950 . S
H1332 C1355 0.950 . S
H1333 C1357 0.950 . S
H1334 C1358 0.950 . S
H1335 C1359 0.951 . S
H1336 C1361 0.951 . S
H1337 C1363 0.950 . S
H1338 C1364 0.950 . S
H1339 C1366 0.950 . S
H1340 C1369 0.950 . S
H1341 C1370 0.950 . S
H1342 C1372 0.950 . S
H1343 C1373 0.950 . S
C1344 H1326 0.951 . S
C1344 C1345 1.366 . S
C1344 C1346 1.388 . S
C1345 C1344 1.366 . S
C1345 C1349 1.385 . S
C1346 H1327 0.951 . S
C1346 C1344 1.388 . S
C1346 C1347 1.366 . S
C1347 C1346 1.366 . S
C1347 C1348 1.414 . S
C1347 C1350 1.499 . S
C1348 H1328 0.950 . S
C1348 C1347 1.414 . S
C1348 C1349 1.374 . S
C1349 H1329 0.950 . S
C1349 C1345 1.385 . S
C1349 C1348 1.374 . S
C1350 C1347 1.499 . S
C1350 C1351 1.373 . S
C1350 C1352 1.389 . S
C1351 H1330 0.950 . S
C1351 C1350 1.373 . S
C1351 C1367 1.377 . S
C1352 C1350 1.389 . S
C1352 C1353 1.524 . S
C1352 C1366 1.377 . S
C1353 C1352 1.524 . S
C1353 C1354 1.397 . S
C1353 C1358 1.363 . S
C1354 H1331 0.950 . S
C1354 C1353 1.397 . S
C1354 C1355 1.334 . S
C1355 H1332 0.950 . S
C1355 C1354 1.334 . S
C1355 C1356 1.287 . S
C1356 C1355 1.287 . S
C1356 C1357 1.524 . S
C1356 H1375 0.913 . S
C1357 H1333 0.950 . S
C1357 C1356 1.524 . S
C1357 C1358 1.415 . S
C1358 H1334 0.950 . S
C1358 C1353 1.363 . S
C1358 C1357 1.415 . S
C1359 H1335 0.951 . S
C1359 C1360 1.366 . S
C1359 C1361 1.388 . S
C1360 C1359 1.366 . S
C1360 C1364 1.385 . S
C1361 H1336 0.951 . S
C1361 C1359 1.388 . S
C1361 C1362 1.366 . S
C1362 C1361 1.366 . S
C1362 C1363 1.414 . S
C1362 C1365 1.499 . S
C1363 H1337 0.950 . S
C1363 C1362 1.414 . S
C1363 C1364 1.374 . S
C1364 H1338 0.950 . S
C1364 C1360 1.385 . S
C1364 C1363 1.374 . S
C1365 C1362 1.499 . S
C1365 C1366 1.373 . S
C1365 C1367 1.389 . S
C1366 H1339 0.950 . S
C1366 C1352 1.377 . S
C1366 C1365 1.373 . S
C1367 C1351 1.377 . S
C1367 C1365 1.389 . S
C1367 C1368 1.524 . S
C1368 C1367 1.524 . S
C1368 C1369 1.397 . S
C1368 C1373 1.363 . S
C1369 H1340 0.950 . S
C1369 C1368 1.397 . S
C1369 C1370 1.334 . S
C1370 H1341 0.950 . S
C1370 C1369 1.334 . S
C1370 C1371 1.287 . S
C1371 C1370 1.287 . S
C1371 C1372 1.524 . S
C1371 H1374 0.999 . S
C1372 H1342 0.950 . S
C1372 C1371 1.524 . S
C1372 C1373 1.415 . S
C1373 H1343 0.950 . S
C1373 C1368 1.363 . S
C1373 C1372 1.415 . S
H1374 C1371 0.999 . S
H1375 C1356 0.913 . S
H1376 C1394 0.951 . S
H1377 C1396 0.951 . S
H1378 C1398 0.950 . S
H1379 C1399 0.950 . S
H1380 C1401 0.950 . S
H1381 C1404 0.950 . S
H1382 C1405 0.950 . S
H1383 C1407 0.950 . S
H1384 C1408 0.950 . S
H1385 C1409 0.951 . S
H1386 C1411 0.951 . S
H1387 C1413 0.950 . S
H1388 C1414 0.950 . S
H1389 C1416 0.950 . S
H1390 C1419 0.950 . S
H1391 C1420 0.950 . S
H1392 C1422 0.950 . S
H1393 C1423 0.950 . S
C1394 H1376 0.951 . S
C1394 C1395 1.366 . S
C1394 C1396 1.388 . S
C1395 C1394 1.366 . S
C1395 C1399 1.385 . S
C1396 H1377 0.951 . S
C1396 C1394 1.388 . S
C1396 C1397 1.366 . S
C1397 C1396 1.366 . S
C1397 C1398 1.414 . S
C1397 C1400 1.499 . S
C1398 H1378 0.950 . S
C1398 C1397 1.414 . S
C1398 C1399 1.374 . S
C1399 H1379 0.950 . S
C1399 C1395 1.385 . S
C1399 C1398 1.374 . S
C1400 C1397 1.499 . S
C1400 C1401 1.373 . S
C1400 C1402 1.389 . S
C1401 H1380 0.950 . S
C1401 C1400 1.373 . S
C1401 C1417 1.377 . S
C1402 C1400 1.389 . S
C1402 C1403 1.524 . S
C1402 C1416 1.377 . S
C1403 C1402 1.524 . S
C1403 C1404 1.397 . S
C1403 C1408 1.363 . S
C1404 H1381 0.950 . S
C1404 C1403 1.397 . S
C1404 C1405 1.334 . S
C1405 H1382 0.950 . S
C1405 C1404 1.334 . S
C1405 C1406 1.287 . S
C1406 C1405 1.287 . S
C1406 C1407 1.524 . S
C1406 H1425 0.913 . S
C1407 H1383 0.950 . S
C1407 C1406 1.524 . S
C1407 C1408 1.415 . S
C1408 H1384 0.950 . S
C1408 C1403 1.363 . S
C1408 C1407 1.415 . S
C1409 H1385 0.951 . S
C1409 C1410 1.366 . S
C1409 C1411 1.388 . S
C1410 C1409 1.366 . S
C1410 C1414 1.385 . S
C1411 H1386 0.951 . S
C1411 C1409 1.388 . S
C1411 C1412 1.366 . S
C1412 C1411 1.366 . S
C1412 C1413 1.414 . S
C1412 C1415 1.499 . S
C1413 H1387 0.950 . S
C1413 C1412 1.414 . S
C1413 C1414 1.374 . S
C1414 H1388 0.950 . S
C1414 C1410 1.385 . S
C1414 C1413 1.374 . S
C1415 C1412 1.499 . S
C1415 C1416 1.373 . S
C1415 C1417 1.389 . S
C1416 H1389 0.950 . S
C1416 C1402 1.377 . S
C1416 C1415 1.373 . S
C1417 C1401 1.377 . S
C1417 C1415 1.389 . S
C1417 C1418 1.524 . S
C1418 C1417 1.524 . S
C1418 C1419 1.397 . S
C1418 C1423 1.363 . S
C1419 H1390 0.950 . S
C1419 C1418 1.397 . S
C1419 C1420 1.334 . S
C1420 H1391 0.950 . S
C1420 C1419 1.334 . S
C1420 C1421 1.287 . S
C1421 C1420 1.287 . S
C1421 C1422 1.524 . S
C1421 H1424 0.999 . S
C1422 H1392 0.950 . S
C1422 C1421 1.524 . S
C1422 C1423 1.415 . S
C1423 H1393 0.950 . S
C1423 C1418 1.363 . S
C1423 C1422 1.415 . S
H1424 C1421 0.999 . S
H1425 C1406 0.913 . S
H1426 C1444 0.951 . S
H1427 C1446 0.951 . S
H1428 C1448 0.950 . S
H1429 C1449 0.950 . S
H1430 C1451 0.950 . S
H1431 C1454 0.950 . S
H1432 C1455 0.950 . S
H1433 C1457 0.950 . S
H1434 C1458 0.950 . S
H1435 C1459 0.951 . S
H1436 C1461 0.951 . S
H1437 C1463 0.950 . S
H1438 C1464 0.950 . S
H1439 C1466 0.950 . S
H1440 C1469 0.950 . S
H1441 C1470 0.950 . S
H1442 C1472 0.950 . S
H1443 C1473 0.950 . S
C1444 H1426 0.951 . S
C1444 C1445 1.366 . S
C1444 C1446 1.388 . S
C1445 C1444 1.366 . S
C1445 C1449 1.385 . S
C1446 H1427 0.951 . S
C1446 C1444 1.388 . S
C1446 C1447 1.366 . S
C1447 C1446 1.366 . S
C1447 C1448 1.414 . S
C1447 C1450 1.499 . S
C1448 H1428 0.950 . S
C1448 C1447 1.414 . S
C1448 C1449 1.374 . S
C1449 H1429 0.950 . S
C1449 C1445 1.385 . S
C1449 C1448 1.374 . S
C1450 C1447 1.499 . S
C1450 C1451 1.373 . S
C1450 C1452 1.389 . S
C1451 H1430 0.950 . S
C1451 C1450 1.373 . S
C1451 C1467 1.377 . S
C1452 C1450 1.389 . S
C1452 C1453 1.524 . S
C1452 C1466 1.377 . S
C1453 C1452 1.524 . S
C1453 C1454 1.397 . S
C1453 C1458 1.363 . S
C1454 H1431 0.950 . S
C1454 C1453 1.397 . S
C1454 C1455 1.334 . S
C1455 H1432 0.950 . S
C1455 C1454 1.334 . S
C1455 C1456 1.287 . S
C1456 C1455 1.287 . S
C1456 C1457 1.524 . S
C1456 H1475 0.913 . S
C1457 H1433 0.950 . S
C1457 C1456 1.524 . S
C1457 C1458 1.415 . S
C1458 H1434 0.950 . S
C1458 C1453 1.363 . S
C1458 C1457 1.415 . S
C1459 H1435 0.951 . S
C1459 C1460 1.366 . S
C1459 C1461 1.388 . S
C1460 C1459 1.366 . S
C1460 C1464 1.385 . S
C1461 H1436 0.951 . S
C1461 C1459 1.388 . S
C1461 C1462 1.366 . S
C1462 C1461 1.366 . S
C1462 C1463 1.414 . S
C1462 C1465 1.499 . S
C1463 H1437 0.950 . S
C1463 C1462 1.414 . S
C1463 C1464 1.374 . S
C1464 H1438 0.950 . S
C1464 C1460 1.385 . S
C1464 C1463 1.374 . S
C1465 C1462 1.499 . S
C1465 C1466 1.373 . S
C1465 C1467 1.389 . S
C1466 H1439 0.950 . S
C1466 C1452 1.377 . S
C1466 C1465 1.373 . S
C1467 C1451 1.377 . S
C1467 C1465 1.389 . S
C1467 C1468 1.524 . S
C1468 C1467 1.524 . S
C1468 C1469 1.397 . S
C1468 C1473 1.363 . S
C1469 H1440 0.950 . S
C1469 C1468 1.397 . S
C1469 C1470 1.334 . S
C1470 H1441 0.950 . S
C1470 C1469 1.334 . S
C1470 C1471 1.287 . S
C1471 C1470 1.287 . S
C1471 C1472 1.524 . S
C1471 H1474 0.999 . S
C1472 H1442 0.950 . S
C1472 C1471 1.524 . S
C1472 C1473 1.415 . S
C1473 H1443 0.950 . S
C1473 C1468 1.363 . S
C1473 C1472 1.415 . S
H1474 C1471 0.999 . S
H1475 C1456 0.913 . S
C295 C7 1.641 . S
C310 C237 1.642 . S
C345 C30 1.303 . S
C360 N255 1.257 . S
C395 C145 1.303 . S
C410 N48 1.256 . S
C445 C76 1.641 . S
C460 C168 1.641 . S
C495 N186 1.252 . S
C510 C99 1.309 . S
C545 C214 1.303 . S
C560 N117 1.257 . S
C595 N140 0.844 . S
C610 N2 0.849 . S
C645 N163 0.850 . S
C660 N25 0.842 . S
C695 C191 1.378 . S
C710 C53 1.378 . S
C745 N71 0.850 . S
C760 N209 0.842 . S
C795 N94 0.842 . S
C810 N232 0.850 . S
C845 C122 1.379 . S
C860 C260 1.377 . S
C895 N12 2.508 . S
C910 N81 2.508 . S
C945 N35 2.252 . S
C960 N104 2.253 . S
C995 C62 2.580 1_554 S
C1010 C131 2.580 1_554 S
C1045 N219 2.252 . S
C1060 N150 2.253 . S
C1095 N242 2.509 . S
C1110 N173 2.508 . S
C1145 C269 2.581 1_556 S
C1160 C200 2.581 1_556 S
C1195 C16 2.335 . S
C1210 N196 2.334 . S
C1245 C223 2.085 . S
C1260 C39 2.085 . S
C1295 N58 2.338 . S
C1310 C246 2.331 . S
C1345 N265 2.338 . S
C1360 C85 2.330 . S
C1395 C108 2.085 . S
C1410 C154 2.085 . S
C1445 N127 2.338 . S
C1460 C177 2.330 . S
