# Generated by pormake.
# Topology snk, (6)-cn, num edge types: 1
# Building blocks:
#     Node 0, Type 0, BuildingBlock: KUMBUR_clean_sbu_0, # of connection points: 6
#     Node 1, Type 0, BuildingBlock: KUMBUR_clean_sbu_0, # of connection points: 6
#     Node 2, Type 0, BuildingBlock: KUMBUR_clean_sbu_0, # of connection points: 6
#     Node 3, Type 0, BuildingBlock: KUMBUR_clean_sbu_0, # of connection points: 6
#     Node 4, Type 0, BuildingBlock: KUMBUR_clean_sbu_0, # of connection points: 6
#     Node 5, Type 0, BuildingBlock: KUMBUR_clean_sbu_0, # of connection points: 6
#     Node 6, Type 0, BuildingBlock: KUMBUR_clean_sbu_0, # of connection points: 6
#     Node 7, Type 0, BuildingBlock: KUMBUR_clean_sbu_0, # of connection points: 6
#     Edge 8, Type (0, 0), BuildingBlock: XUDNAN_clean_linker_2, # of connection points: 2
#     Edge 9, Type (0, 0), BuildingBlock: XUDNAN_clean_linker_2, # of connection points: 2
#     Edge 10, Type (0, 0), BuildingBlock: XUDNAN_clean_linker_2, # of connection points: 2
#     Edge 11, Type (0, 0), BuildingBlock: XUDNAN_clean_linker_2, # of connection points: 2
#     Edge 12, Type (0, 0), BuildingBlock: XUDNAN_clean_linker_2, # of connection points: 2
#     Edge 13, Type (0, 0), BuildingBlock: XUDNAN_clean_linker_2, # of connection points: 2
#     Edge 14, Type (0, 0), BuildingBlock: XUDNAN_clean_linker_2, # of connection points: 2
#     Edge 15, Type (0, 0), BuildingBlock: XUDNAN_clean_linker_2, # of connection points: 2
#     Edge 16, Type (0, 0), BuildingBlock: XUDNAN_clean_linker_2, # of connection points: 2
#     Edge 17, Type (0, 0), BuildingBlock: XUDNAN_clean_linker_2, # of connection points: 2
#     Edge 18, Type (0, 0), BuildingBlock: XUDNAN_clean_linker_2, # of connection points: 2
#     Edge 19, Type (0, 0), BuildingBlock: XUDNAN_clean_linker_2, # of connection points: 2
#     Edge 20, Type (0, 0), BuildingBlock: XUDNAN_clean_linker_2, # of connection points: 2
#     Edge 21, Type (0, 0), BuildingBlock: XUDNAN_clean_linker_2, # of connection points: 2
#     Edge 22, Type (0, 0), BuildingBlock: XUDNAN_clean_linker_2, # of connection points: 2
#     Edge 23, Type (0, 0), BuildingBlock: XUDNAN_clean_linker_2, # of connection points: 2
#     Edge 24, Type (0, 0), BuildingBlock: XUDNAN_clean_linker_2, # of connection points: 2
#     Edge 25, Type (0, 0), BuildingBlock: XUDNAN_clean_linker_2, # of connection points: 2
#     Edge 26, Type (0, 0), BuildingBlock: XUDNAN_clean_linker_2, # of connection points: 2
#     Edge 27, Type (0, 0), BuildingBlock: XUDNAN_clean_linker_2, # of connection points: 2
#     Edge 28, Type (0, 0), BuildingBlock: XUDNAN_clean_linker_2, # of connection points: 2
#     Edge 29, Type (0, 0), BuildingBlock: XUDNAN_clean_linker_2, # of connection points: 2
#     Edge 30, Type (0, 0), BuildingBlock: XUDNAN_clean_linker_2, # of connection points: 2
#     Edge 31, Type (0, 0), BuildingBlock: XUDNAN_clean_linker_2, # of connection points: 2
# Relax obj value: 0.006
# Max RMSD: 0.053
# Mean RMSD: 0.050
data_MOF--net-snk--node1-KUMBUR_clean_sbu_0--edge1-XUDNAN_clean_linker_2
_symmetry_space_group_name_H-M    P1
_symmetry_Int_Tables_number       1
_symmetry_cell_setting            triclinic
loop_
_symmetry_equiv_pos_as_xyz
'x, y, z'
_cell_length_a     37.299437
_cell_length_b     37.40559
_cell_length_c     24.270166
_cell_angle_alpha  87.486864
_cell_angle_beta   86.944398
_cell_angle_gamma 89.96568
loop_
_atom_site_label
_atom_site_type_symbol
_atom_site_fract_x
_atom_site_fract_y
_atom_site_fract_z
_atom_type_partial_charge
Tb0 Tb 1.01039 0.9781 0.46722 0.0
C1 C 1.00231 0.12426 0.57583 0.0
C2 C 0.06184 0.1497 0.57504 0.0
C3 C 1.0098 0.18883 0.57572 0.0
C4 C 0.03897 0.1198 0.5735 0.0
C5 C 0.98716 0.15877 0.57765 0.0
C6 C 0.04711 0.18429 0.57495 0.0
C7 C 0.92868 0.13109 0.5902 0.0
N8 N 0.9815 0.09448 0.58037 0.0
C9 C 0.94506 0.09745 0.58983 0.0
C10 C 0.9498 0.16192 0.58363 0.0
Tb11 Tb 1.01071 0.04034 0.57872 0.0
N12 N 0.05204 0.08595 0.57455 0.0
C13 C 0.08797 0.08024 0.57961 0.0
C14 C 0.09869 0.14389 0.5786 0.0
C15 C 0.1118 0.10899 0.58086 0.0
H16 H 0.92837 0.07387 0.59508 0.0
H17 H 0.14023 0.10416 0.58415 0.0
H18 H 0.06429 0.20761 0.5754 0.0
H19 H 0.8998 0.13321 0.59593 0.0
H20 H 0.09866 0.05353 0.58244 0.0
H21 H 0.8808 0.91268 0.48425 0.0
H22 H 0.11712 0.16611 0.58062 0.0
H23 H 0.09222 0.94529 0.44212 0.0
H24 H 0.92221 0.96385 0.47409 0.0
H25 H 0.12125 0.88619 0.43968 0.0
H26 H 0.99872 0.2156 0.57678 0.0
H27 H 0.90463 0.85098 0.49078 0.0
H28 H 0.95834 0.81011 0.48807 0.0
H29 H 0.93709 0.18795 0.58479 0.0
H30 H 0.02391 0.80288 0.4757 0.0
N31 N 0.96951 0.93203 0.47574 0.0
C32 C 0.9332 0.93727 0.4764 0.0
C33 C 0.92303 0.87345 0.4861 0.0
C34 C 0.96018 0.86811 0.48244 0.0
C35 C 0.90949 0.9082 0.48232 0.0
C36 C 0.98288 0.89833 0.47666 0.0
H37 H 0.0849 0.83114 0.45695 0.0
N38 N 0.03975 0.92423 0.46174 0.0
C39 C 0.09254 0.88807 0.44813 0.0
C40 C 0.0194 0.89426 0.46936 0.0
C41 C 0.07589 0.92158 0.44928 0.0
C42 C 0.07196 0.85706 0.45802 0.0
C43 C 0.03482 0.85988 0.46815 0.0
O44 O 0.03352 0.98299 0.38608 0.0
O45 O 0.03053 0.02782 0.49693 0.0
O46 O 0.98338 0.06593 0.50889 0.0
O47 O 0.96367 0.01422 0.47 0.0
O48 O 0.06168 1.00299 0.43928 0.0
O49 O 0.97612 0.98457 0.40131 0.0
O50 O 0.98481 0.03663 0.65811 0.0
O51 O 0.9927 0.98948 0.55073 0.0
O52 O 0.03998 0.95289 0.53442 0.0
O53 O 0.05799 1.00416 0.57723 0.0
O54 O 0.95799 0.01567 0.60168 0.0
O55 O 0.04218 0.03318 0.64806 0.0
C56 C 0.05971 0.03107 0.46771 0.0
C57 C 0.99824 0.96468 0.31425 0.0
C58 C 1.00297 0.96219 0.21318 0.0
C59 C 1.00677 0.98098 0.26179 0.0
C60 C 0.99017 0.92675 0.21832 0.0
C61 C 0.98574 0.9293 0.31824 0.0
C62 C 0.98167 0.91053 0.27043 0.0
C63 C 0.96141 0.04912 0.47741 0.0
C64 C 1.00255 0.98534 0.36389 0.0
C65 C 0.01259 0.82956 0.47606 0.0
C66 C 0.97528 0.83368 0.48315 0.0
C67 C 0.96219 0.98666 0.57584 0.0
C68 C 0.018 0.05677 0.73095 0.0
C69 C 0.02123 0.04122 0.78454 0.0
C70 C 0.02525 0.06305 0.82985 0.0
C71 C 0.02537 0.10045 0.82079 0.0
C72 C 0.018 0.09412 0.72333 0.0
C73 C 0.02162 0.11579 0.76798 0.0
C74 C 0.06114 0.96949 0.56743 0.0
C75 C 0.01468 0.03396 0.68333 0.0
H76 H 0.01605 1.00849 0.25898 0.0
H77 H 0.98735 0.91127 0.18212 0.0
H78 H 0.97909 0.91624 0.35815 0.0
H79 H 0.97206 0.88318 0.27376 0.0
H80 H 0.02132 0.01235 0.79076 0.0
H81 H 0.02811 0.1179 0.8548 0.0
H82 H 0.01516 0.10659 0.68295 0.0
H83 H 0.0216 0.14461 0.76161 0.0
Tb84 Tb 0.29109 0.74901 0.69946 0.0
C85 C 0.16094 0.77424 0.84798 0.0
C86 C 0.14197 0.83486 0.82775 0.0
C87 C 0.09741 0.78889 0.85336 0.0
C88 C 0.16928 0.80893 0.83167 0.0
C89 C 0.12503 0.76383 0.8605 0.0
C90 C 0.10589 0.82444 0.83705 0.0
C91 C 0.14686 0.70613 0.89199 0.0
N92 N 0.18856 0.75112 0.85465 0.0
C93 C 0.18207 0.71788 0.8793 0.0
C94 C 0.11815 0.72899 0.88165 0.0
Tb95 Tb 0.24552 0.77186 0.82829 0.0
N96 N 0.20446 0.81776 0.82402 0.0
C97 C 0.21423 0.853 0.81739 0.0
C98 C 0.15186 0.87063 0.81709 0.0
C99 C 0.18818 0.87983 0.81329 0.0
H100 H 0.20385 0.69982 0.88762 0.0
H101 H 0.19619 0.90755 0.80665 0.0
H102 H 0.08447 0.84386 0.83356 0.0
H103 H 0.1419 0.67946 0.90985 0.0
H104 H 0.24213 0.86074 0.81399 0.0
H105 H 0.22231 0.6718 0.55426 0.0
H106 H 0.13175 0.89142 0.81368 0.0
H107 H 0.37215 0.73686 0.74763 0.0
H108 H 0.23372 0.72428 0.60826 0.0
H109 H 0.4168 0.68897 0.75493 0.0
H110 H 0.06957 0.78137 0.8621 0.0
H111 H 0.26024 0.61784 0.5638 0.0
H112 H 0.31309 0.58765 0.60594 0.0
H113 H 0.09093 0.71989 0.8918 0.0
H114 H 0.3661 0.59219 0.66158 0.0
N115 N 0.27661 0.69993 0.65101 0.0
C116 C 0.25024 0.70085 0.61368 0.0
C117 C 0.26507 0.64069 0.58834 0.0
C118 C 0.29322 0.64057 0.6241 0.0
C119 C 0.24369 0.67112 0.58273 0.0
C120 C 0.29867 0.67119 0.65447 0.0
H121 H 0.40568 0.63042 0.7155 0.0
N122 N 0.33414 0.70537 0.70879 0.0
C123 C 0.39187 0.68418 0.73557 0.0
C124 C 0.32834 0.67387 0.6852 0.0
C125 C 0.36619 0.71132 0.73173 0.0
C126 C 0.3854 0.65112 0.71366 0.0
C127 C 0.35361 0.64581 0.68715 0.0
O128 O 0.33903 0.76438 0.65457 0.0
O129 O 0.25734 0.78785 0.74247 0.0
O130 O 0.20984 0.74088 0.77958 0.0
O131 O 0.24986 0.70846 0.72361 0.0
O132 O 0.24343 0.77403 0.66587 0.0
O133 O 0.28839 0.77739 0.62234 0.0
O134 O 0.26086 0.75339 0.90728 0.0
O135 O 0.2905 0.74409 0.78839 0.0
O136 O 0.32641 0.7817 0.74759 0.0
O137 O 0.28531 0.81338 0.80104 0.0
O138 O 0.26252 0.71718 0.85043 0.0
O139 O 0.25526 0.80906 0.88892 0.0
C140 C 0.23453 0.7936 0.70627 0.0
C141 C 0.33343 0.75855 0.5579 0.0
C142 C 0.32871 0.75452 0.45745 0.0
C143 C 0.32021 0.7718 0.50731 0.0
C144 C 0.35089 0.72409 0.4592 0.0
C145 C 0.35556 0.7281 0.55777 0.0
C146 C 0.36413 0.71111 0.50885 0.0
C147 C 0.21749 0.71425 0.7467 0.0
C148 C 0.32259 0.77513 0.61096 0.0
C149 C 0.3472 0.61418 0.66009 0.0
C150 C 0.31705 0.6116 0.62842 0.0
C151 C 0.28984 0.71476 0.81645 0.0
C152 C 0.24184 0.78864 0.98144 0.0
C153 C 0.2606 0.78879 0.03058 0.0
C154 C 0.24171 0.79174 0.0822 0.0
C155 C 0.20415 0.79442 0.08412 0.0
C156 C 0.20429 0.79159 0.98463 0.0
C157 C 0.18562 0.79438 0.03564 0.0
C158 C 0.31832 0.80854 0.77998 0.0
C159 C 0.2613 0.7849 0.9272 0.0
H160 H 0.3028 0.795 0.50703 0.0
H161 H 0.35853 0.7105 0.42187 0.0
H162 H 0.36616 0.7171 0.59554 0.0
H163 H 0.38119 0.68768 0.50942 0.0
H164 H 0.28962 0.78668 1.02868 0.0
H165 H 0.18916 0.7968 0.12327 0.0
H166 H 0.18937 0.7918 0.94771 0.0
H167 H 0.15665 0.7966 0.03759 0.0
Tb168 Tb 0.51151 0.97444 0.10231 0.0
C169 C 0.50266 0.11908 0.97566 0.0
C170 C 0.44005 0.13579 0.9792 0.0
C171 C 0.48614 0.18195 0.97357 0.0
C172 C 0.46703 0.10939 0.97992 0.0
C173 C 0.51279 0.15543 0.9713 0.0
C174 C 0.44979 0.17214 0.97723 0.0
C175 C 0.5743 0.13646 0.95619 0.0
N176 N 0.5274 0.09261 0.97199 0.0
C177 C 0.56282 0.10079 0.96008 0.0
C178 C 0.54924 0.16392 0.96261 0.0
Tb179 Tb 0.50634 0.03488 0.98086 0.0
N180 N 0.45893 0.07404 0.98014 0.0
C181 C 0.42421 0.06347 0.97513 0.0
C182 C 0.40426 0.12489 0.97813 0.0
C183 C 0.39638 0.08859 0.97505 0.0
H184 H 0.58245 0.07979 0.95533 0.0
H185 H 0.36885 0.07989 0.97271 0.0
H186 H 0.42945 0.19284 0.97713 0.0
H187 H 0.60247 0.14274 0.94822 0.0
H188 H 0.41753 0.03555 0.9727 0.0
H189 H 0.65116 0.93464 0.0937 0.0
H190 H 0.38269 0.1443 0.97783 0.0
H191 H 0.43781 0.9266 0.13368 0.0
H192 H 0.60102 0.97712 0.09987 0.0
H193 H 0.42023 0.86295 0.14089 0.0
H194 H 0.49331 0.21007 0.97072 0.0
H195 H 0.63924 0.86978 0.08966 0.0
H196 H 0.5941 0.81957 0.09365 0.0
H197 H 0.55817 0.19153 0.95917 0.0
H198 H 0.53106 0.79993 0.10698 0.0
N199 N 0.56041 0.93705 0.09869 0.0
C200 C 0.59509 0.94898 0.09858 0.0
C201 C 0.61698 0.88835 0.09252 0.0
C202 C 0.5815 0.87612 0.09568 0.0
C203 C 0.62379 0.92491 0.09499 0.0
C204 C 0.55357 0.90146 0.09942 0.0
H205 H 0.46597 0.81594 0.12557 0.0
N206 N 0.49295 0.91595 0.11332 0.0
C207 C 0.44798 0.87032 0.13116 0.0
C208 C 0.51848 0.89046 0.10721 0.0
C209 C 0.45809 0.9064 0.12725 0.0
C210 C 0.47385 0.84386 0.12236 0.0
C211 C 0.50974 0.85376 0.11103 0.0
O212 O 0.48453 0.97583 0.18078 0.0
O213 O 0.48709 0.0212 0.06457 0.0
O214 O 0.52781 0.06505 0.04705 0.0
O215 O 0.55128 0.0179 0.09997 0.0
O216 O 0.45535 0.99021 0.11827 0.0
O217 O 0.54156 0.98471 0.17078 0.0
O218 O 0.53364 0.03555 0.90256 0.0
O219 O 0.52982 0.98798 1.01844 0.0
O220 O 0.48719 0.94505 0.03871 0.0
O221 O 0.46524 0.99176 0.98262 0.0
O222 O 0.5622 0.01657 0.9646 0.0
O223 O 0.47718 0.02363 0.91164 0.0
C224 C 0.45582 0.01876 0.08694 0.0
C225 C 0.51881 0.96108 0.25768 0.0
C226 C 0.5142 0.95796 0.35891 0.0
C227 C 0.50944 0.9767 0.30809 0.0
C228 C 0.5288 0.92327 0.35816 0.0
C229 C 0.53311 0.92643 0.25791 0.0
C230 C 0.53811 0.9077 0.308 0.0
C231 C 0.54834 0.05235 0.08615 0.0
C232 C 0.51385 0.98177 0.20565 0.0
C233 C 0.53719 0.82829 0.1047 0.0
C234 C 0.57306 0.83947 0.09705 0.0
C235 C 0.56092 0.98776 0.99542 0.0
C236 C 0.49846 0.05182 0.82725 0.0
C237 C 0.49574 0.03647 0.77557 0.0
C238 C 0.48865 0.05815 0.72833 0.0
C239 C 0.48492 0.0953 0.73351 0.0
C240 C 0.49472 0.08893 0.8311 0.0
C241 C 0.48807 0.1105 0.78449 0.0
C242 C 0.46659 0.95743 0.9994 0.0
C243 C 0.5047 0.02897 0.87692 0.0
H244 H 0.49883 1.0037 0.30758 0.0
H245 H 0.53246 0.9079 0.39629 0.0
H246 H 0.54051 0.91397 0.21953 0.0
H247 H 0.54915 0.88093 0.30798 0.0
H248 H 0.49839 1.00777 0.77237 0.0
H249 H 0.47983 0.11268 0.6979 0.0
H250 H 0.49691 0.10127 0.87003 0.0
H251 H 0.48524 0.13913 0.78792 0.0
Tb252 Tb 0.29458 0.25926 0.33698 0.0
C253 C 0.14758 0.27441 0.22999 0.0
C254 C 0.1192 0.21638 0.2294 0.0
C255 C 0.08253 0.27008 0.22943 0.0
C256 C 0.15026 0.23769 0.23131 0.0
C257 C 0.11373 0.29116 0.2284 0.0
C258 C 0.08528 0.23273 0.22957 0.0
C259 C 0.14421 0.34815 0.21954 0.0
N260 N 0.17842 0.29374 0.22724 0.0
C261 C 0.17715 0.3303 0.22007 0.0
C262 C 0.11234 0.32852 0.22403 0.0
Tb263 Tb 0.23124 0.26182 0.22748 0.0
N264 N 0.18349 0.22297 0.23093 0.0
C265 C 0.18747 0.18685 0.22627 0.0
C266 C 0.12323 0.1794 0.22573 0.0
C267 C 0.15753 0.16456 0.22426 0.0
H268 H 0.20142 0.34604 0.21657 0.0
H269 H 0.16099 0.13598 0.22116 0.0
H270 H 0.06109 0.21677 0.22878 0.0
H271 H 0.14345 0.37707 0.21538 0.0
H272 H 0.21373 0.1749 0.22414 0.0
H273 H 0.36152 0.38768 0.32523 0.0
H274 H 0.10008 0.16215 0.22342 0.0
H275 H 0.32637 0.17732 0.35794 0.0
H276 H 0.30972 0.34691 0.33427 0.0
H277 H 0.38543 0.14753 0.35819 0.0
H278 H 0.05627 0.28242 0.22856 0.0
H279 H 0.42314 0.36336 0.31587 0.0
H280 H 0.46358 0.30936 0.31498 0.0
H281 H 0.08687 0.34241 0.22294 0.0
H282 H 0.47012 0.24384 0.32428 0.0
N283 N 0.34115 0.29952 0.32875 0.0
C284 C 0.33628 0.3357 0.33054 0.0
C285 C 0.40041 0.34524 0.31992 0.0
C286 C 0.40537 0.30815 0.32139 0.0
C287 C 0.36569 0.35905 0.32532 0.0
C288 C 0.37481 0.28583 0.32649 0.0
H289 H 0.44107 0.18322 0.34121 0.0
N290 N 0.34824 0.22936 0.33962 0.0
C291 C 0.38387 0.17621 0.35075 0.0
C292 C 0.37851 0.24933 0.33211 0.0
C293 C 0.35045 0.19323 0.35081 0.0
C294 C 0.41522 0.19643 0.34098 0.0
C295 C 0.41282 0.23356 0.33219 0.0
O296 O 0.29411 0.23649 0.41824 0.0
O297 O 0.24492 0.23966 0.30695 0.0
O298 O 0.20607 0.28792 0.29925 0.0
O299 O 0.25866 0.30613 0.33728 0.0
O300 O 0.26781 0.20934 0.36643 0.0
O301 O 0.28514 0.29297 0.40307 0.0
O302 O 0.24054 0.28768 0.14935 0.0
O303 O 0.28311 0.27813 0.25455 0.0
O304 O 0.31834 0.22912 0.26806 0.0
O305 O 0.26571 0.21361 0.22689 0.0
O306 O 0.25668 0.31421 0.20697 0.0
O307 O 0.23284 0.23084 0.15652 0.0
C308 C 0.24002 0.21152 0.3376 0.0
C309 C 0.30912 0.27539 0.48839 0.0
C310 C 0.31246 0.27618 0.58872 0.0
C311 C 0.29511 0.26556 0.54194 0.0
C312 C 0.34426 0.29629 0.58134 0.0
C313 C 0.34127 0.29496 0.48189 0.0
C314 C 0.35872 0.30528 0.52821 0.0
C315 C 0.2235 0.30872 0.33177 0.0
C316 C 0.28838 0.26722 0.44042 0.0
C317 C 0.44347 0.25542 0.32476 0.0
C318 C 0.43975 0.29271 0.31941 0.0
C319 C 0.28601 0.30904 0.2314 0.0
C320 C 0.21634 0.26115 0.07361 0.0
C321 C 0.23272 0.2554 1.02111 0.0
C322 C 0.21351 0.26147 0.9732 0.0
C323 C 0.17768 0.27285 0.97831 0.0
C324 C 0.18036 0.27213 0.07789 0.0
C325 C 0.16115 0.27783 0.03044 0.0
C326 C 0.30052 0.20909 0.23483 0.0
C327 C 0.23797 0.25852 0.12269 0.0
H328 H 0.27019 0.25059 0.54726 0.0
H329 H 0.35809 0.30472 0.61672 0.0
H330 H 0.35257 0.30279 0.44121 0.0
H331 H 0.38336 0.3206 0.52291 0.0
H332 H 0.2606 0.24718 1.01739 0.0
H333 H 0.16246 0.27767 0.94192 0.0
H334 H 0.16735 0.27696 0.11768 0.0
H335 H 0.13348 0.28653 0.03404 0.0
Tb336 Tb 0.78387 0.2487 0.23017 0.0
C337 C 0.64786 0.28365 0.36741 0.0
C338 C 0.63876 0.34586 0.3415 0.0
C339 C 0.58732 0.30763 0.36696 0.0
C340 C 0.66166 0.31628 0.34925 0.0
C341 C 0.61065 0.2791 0.37858 0.0
C342 C 0.6014 0.34105 0.34839 0.0
C343 C 0.62314 0.22073 0.41959 0.0
N344 N 0.67146 0.25734 0.37943 0.0
C345 C 0.65986 0.2268 0.40798 0.0
C346 C 0.59833 0.24671 0.40376 0.0
Tb347 Tb 0.73099 0.26827 0.35638 0.0
N348 N 0.69785 0.31975 0.34469 0.0
C349 C 0.71297 0.35304 0.33686 0.0
C350 C 0.65416 0.37959 0.33005 0.0
C351 C 0.69143 0.3833 0.32888 0.0
H352 H 0.67888 0.20646 0.41985 0.0
H353 H 0.70364 0.40943 0.32154 0.0
H354 H 0.58329 0.36331 0.34181 0.0
H355 H 0.61403 0.19601 0.44059 0.0
H356 H 0.74169 0.35654 0.33535 0.0
H357 H 0.81935 0.1085 0.23725 0.0
H358 H 0.63752 0.40306 0.32422 0.0
H359 H 0.8325 0.32127 0.19469 0.0
H360 H 0.77809 0.1598 0.23806 0.0
H361 H 0.8964 0.33662 0.17592 0.0
H362 H 0.55856 0.30459 0.37446 0.0
H363 H 0.88497 0.11844 0.22711 0.0
H364 H 0.93639 0.16175 0.21042 0.0
H365 H 0.56994 0.24209 0.41313 0.0
H366 H 0.95742 0.22387 0.19364 0.0
N367 N 0.81976 0.19894 0.23074 0.0
C368 C 0.8066 0.16477 0.23389 0.0
C369 C 0.86696 0.14118 0.22766 0.0
C370 C 0.8802 0.17615 0.22095 0.0
C371 C 0.82995 0.13547 0.23329 0.0
C372 C 0.85558 0.20475 0.22235 0.0
H373 H 0.94266 0.28929 0.18034 0.0
N374 N 0.8424 0.2658 0.21104 0.0
C375 C 0.88859 0.30916 0.18609 0.0
C376 C 0.86733 0.23941 0.21185 0.0
C377 C 0.85235 0.30032 0.19655 0.0
C378 C 0.91463 0.28239 0.18874 0.0
C379 C 0.90411 0.2469 0.20099 0.0
O380 O 0.78192 0.2715 0.14946 0.0
O381 O 0.73955 0.27723 0.26834 0.0
O382 O 0.69676 0.2354 0.30831 0.0
O383 O 0.73835 0.21118 0.24354 0.0
O384 O 0.76872 0.30431 0.20793 0.0
O385 O 0.76841 0.2159 0.16739 0.0
O386 O 0.7342 0.24905 0.43901 0.0
O387 O 0.77267 0.2372 0.31693 0.0
O388 O 0.81941 0.26911 0.28962 0.0
O389 O 0.77816 0.30364 0.33884 0.0
O390 O 0.74547 0.21347 0.38364 0.0
O391 O 0.74835 0.30331 0.41511 0.0
C392 C 0.74056 0.30638 0.24042 0.0
C393 C 0.79253 0.23193 0.07711 0.0
C394 C 0.79894 0.23848 0.97613 0.0
C395 C 0.78133 0.24698 1.02677 0.0
C396 C 0.82798 0.21448 0.97687 0.0
C397 C 0.82162 0.20815 0.07679 0.0
C398 C 0.83919 0.19951 1.02688 0.0
C399 C 0.70599 0.21284 0.26918 0.0
C400 C 0.77312 0.24127 0.12904 0.0
C401 C 0.92899 0.2187 0.20163 0.0
C402 C 0.91702 0.18335 0.21126 0.0
C403 C 0.77095 0.20885 0.34696 0.0
C404 C 0.72258 0.2924 0.50521 0.0
C405 C 0.73664 0.2888 0.55793 0.0
C406 C 0.71724 0.3016 0.60453 0.0
C407 C 0.68336 0.31723 0.59767 0.0
C408 C 0.68883 0.30827 0.49959 0.0
C409 C 0.66929 0.32042 0.54559 0.0
C410 C 0.81159 0.29527 0.32301 0.0
C411 C 0.74329 0.28001 0.45622 0.0
H412 H 0.75855 0.265 1.02714 0.0
H413 H 0.84243 0.20768 0.93888 0.0
H414 H 0.83068 0.19614 0.1149 0.0
H415 H 0.86166 0.18119 1.02694 0.0
H416 H 0.76287 0.27685 0.56244 0.0
H417 H 0.66762 0.32688 0.63276 0.0
H418 H 0.67763 0.31152 0.45965 0.0
H419 H 0.64322 0.33255 0.54082 0.0
Tb420 Tb 0.79024 0.76405 0.8384 0.0
C421 C 0.65076 0.75066 0.72251 0.0
C422 C 0.63329 0.68869 0.73824 0.0
C423 C 0.58754 0.73455 0.7289 0.0
C424 C 0.66004 0.7154 0.73203 0.0
C425 C 0.61447 0.7607 0.71978 0.0
C426 C 0.59694 0.69856 0.73808 0.0
C427 C 0.63442 0.82098 0.69481 0.0
N428 N 0.67762 0.77495 0.71357 0.0
C429 C 0.67004 0.8096 0.69761 0.0
C430 C 0.60648 0.79652 0.7066 0.0
Tb431 Tb 0.73505 0.75421 0.72188 0.0
N432 N 0.69546 0.70706 0.73135 0.0
C433 C 0.70591 0.67196 0.73227 0.0
C434 C 0.64393 0.65286 0.74251 0.0
C435 C 0.6804 0.64447 0.7384 0.0
H436 H 0.69147 0.82875 0.68887 0.0
H437 H 0.68897 0.61683 0.74013 0.0
H438 H 0.57597 0.67848 0.7435 0.0
H439 H 0.62855 0.84861 0.6836 0.0
H440 H 0.73391 0.66478 0.72963 0.0
H441 H 0.83549 0.90174 0.81752 0.0
H442 H 0.62425 0.63151 0.74741 0.0
H443 H 0.83418 0.68981 0.87203 0.0
H444 H 0.79082 0.85356 0.82866 0.0
H445 H 0.89715 0.67038 0.87815 0.0
H446 H 0.55944 0.74173 0.72751 0.0
H447 H 0.90031 0.88747 0.81311 0.0
H448 H 0.94885 0.84089 0.81933 0.0
H449 H 0.57892 0.80537 0.70418 0.0
H450 H 0.96572 0.77778 0.83582 0.0
N451 N 0.82955 0.81151 0.82984 0.0
C452 C 0.81886 0.84653 0.82729 0.0
C453 C 0.88076 0.86602 0.81828 0.0
C454 C 0.89159 0.83031 0.8239 0.0
C455 C 0.84421 0.87417 0.82083 0.0
C456 C 0.86499 0.80345 0.83018 0.0
H457 H 0.94657 0.71398 0.85851 0.0
N458 N 0.84776 0.74374 0.84771 0.0
C459 C 0.89115 0.69798 0.86696 0.0
C460 C 0.87447 0.76822 0.83933 0.0
C461 C 0.85549 0.70913 0.86366 0.0
C462 C 0.91898 0.72264 0.8557 0.0
C463 C 0.9108 0.75842 0.84257 0.0
O464 O 0.78619 0.7403 0.9187 0.0
O465 O 0.74312 0.74014 0.80727 0.0
O466 O 0.70314 0.78159 0.78539 0.0
O467 O 0.74817 0.80607 0.83504 0.0
O468 O 0.77064 0.70937 0.86104 0.0
O469 O 0.77903 0.79712 0.90515 0.0
O470 O 0.73745 0.77753 0.6411 0.0
O471 O 0.78234 0.77788 0.75282 0.0
O472 O 0.82209 0.73618 0.77554 0.0
O473 O 0.77707 0.71213 0.72511 0.0
O474 O 0.75532 0.80859 0.69857 0.0
O475 O 0.74608 0.72102 0.6553 0.0
C476 C 0.74255 0.70993 0.83265 0.0
C477 C 0.80127 0.777 0.99056 0.0
C478 C 0.80218 0.78193 0.09069 0.0
C479 C 0.78327 0.77665 0.04291 0.0
C480 C 0.83954 0.78742 0.08504 0.0
C481 C 0.83845 0.7827 0.98586 0.0
C482 C 0.85745 0.78783 0.03294 0.0
C483 C 0.71429 0.80448 0.82099 0.0
C484 C 0.78072 0.77072 0.94179 0.0
C485 C 0.93759 0.78477 0.83403 0.0
C486 C 0.92799 0.8207 0.82467 0.0
C487 C 0.78342 0.8079 0.72695 0.0
C488 C 0.71896 0.73965 0.5728 0.0
C489 C 0.72935 0.75133 0.51835 0.0
C490 C 0.70659 0.74588 0.47494 0.0
C491 C 0.67354 0.72839 0.48661 0.0
C492 C 0.68607 0.72177 0.5832 0.0
C493 C 0.66351 0.71627 0.54037 0.0
C494 C 0.81078 0.71323 0.74016 0.0
C495 C 0.74225 0.7469 0.61832 0.0
H496 H 0.75457 0.77177 0.0464 0.0
H497 H 0.85485 0.79195 0.12078 0.0
H498 H 0.85279 0.78315 0.94604 0.0
H499 H 0.88617 0.79225 1.02902 0.0
H500 H 0.75472 0.76516 0.50995 0.0
H501 H 0.65567 0.72366 0.45393 0.0
H502 H 0.67776 0.71196 0.62425 0.0
H503 H 0.63815 0.70254 0.54889 0.0
Tb504 Tb 0.5079 0.48289 0.97146 0.0
C505 C 0.52451 0.62003 0.09392 0.0
C506 C 0.58679 0.63671 0.07625 0.0
C507 C 0.5417 0.68278 0.09089 0.0
C508 C 0.5596 0.61042 0.08209 0.0
C509 C 0.5151 0.65623 0.09953 0.0
C510 C 0.57752 0.67302 0.07927 0.0
C511 C 0.45459 0.63689 0.12605 0.0
N512 N 0.49976 0.59356 0.10224 0.0
C513 C 0.46533 0.60134 0.12029 0.0
C514 C 0.47948 0.66451 0.115 0.0
Tb515 Tb 0.51954 0.53624 0.08992 0.0
N516 N 0.56738 0.57505 0.08013 0.0
C517 C 0.60242 0.56409 0.0769 0.0
C518 C 0.6225 0.62563 0.06953 0.0
C519 C 0.63036 0.58913 0.07097 0.0
H520 H 0.44585 0.58017 0.12854 0.0
H521 H 0.65794 0.58019 0.06736 0.0
H522 H 0.59796 0.69365 0.07422 0.0
H523 H 0.42712 0.64295 0.13899 0.0
H524 H 0.6092 0.53608 0.07752 0.0
H525 H 0.36893 0.44058 0.99496 0.0
H526 H 0.64421 0.64494 0.06481 0.0
H527 H 0.58121 0.43793 0.93398 0.0
H528 H 0.41818 0.48416 0.98392 0.0
H529 H 0.59936 0.37482 0.92528 0.0
H530 H 0.535 0.7108 0.09448 0.0
H531 H 0.38192 0.3757 0.99699 0.0
H532 H 0.42762 0.32643 0.988 0.0
H533 H 0.47113 0.692 0.11969 0.0
H534 H 0.49047 0.30844 0.96908 0.0
N535 N 0.45951 0.4447 0.9803 0.0
C536 C 0.42462 0.45607 0.98419 0.0
C537 C 0.40382 0.39476 0.99181 0.0
C538 C 0.43939 0.38327 0.98484 0.0
C539 C 0.3964 0.43135 0.99061 0.0
C540 C 0.46687 0.40924 0.97862 0.0
H541 H 0.55473 0.32636 0.9449 0.0
N542 N 0.52704 0.42529 0.9597 0.0
C543 C 0.57188 0.38129 0.93759 0.0
C544 C 0.50196 0.39913 0.96806 0.0
C545 C 0.56147 0.41701 0.94232 0.0
C546 C 0.54664 0.354 0.94883 0.0
C547 C 0.51101 0.36278 0.96338 0.0
O548 O 0.53103 0.48642 0.89038 0.0
O549 O 0.53274 0.52913 1.00365 0.0
O550 O 0.49168 0.56942 0.02928 0.0
O551 O 0.46676 0.52587 0.97702 0.0
O552 O 0.56283 0.50203 0.94767 0.0
O553 O 0.47441 0.49547 0.9063 0.0
O554 O 0.49711 0.53318 0.1716 0.0
O555 O 0.49474 0.49001 0.05773 0.0
O556 O 0.53575 0.44984 0.03227 0.0
O557 O 0.56105 0.49373 0.08352 0.0
O558 O 0.46488 0.51648 0.11444 0.0
O559 O 0.55352 0.52386 0.15447 0.0
C560 C 0.56279 0.52973 0.97712 0.0
C561 C 0.49272 0.47275 0.8199 0.0
C562 C 0.48693 0.47194 0.72002 0.0
C563 C 0.49385 0.49052 0.76765 0.0
C564 C 0.47898 0.43515 0.7257 0.0
C565 C 0.48459 0.43614 0.82462 0.0
C566 C 0.47781 0.41747 0.7777 0.0
C567 C 0.46873 0.55933 0.99306 0.0
C568 C 0.50041 0.49294 0.86862 0.0
C569 C 0.48406 0.33658 0.97194 0.0
C570 C 0.44828 0.34682 0.98268 0.0
C571 C 0.46483 0.48896 0.08463 0.0
C572 C 0.53641 0.55072 0.23849 0.0
C573 C 0.52327 0.54146 0.29269 0.0
C574 C 0.52981 0.56383 0.33631 0.0
C575 C 0.54979 0.5954 0.32509 0.0
C576 C 0.55683 0.58208 0.22859 0.0
C577 C 0.56334 0.6043 0.2716 0.0
C578 C 0.55914 0.46027 0.06754 0.0
C579 C 0.52813 0.52786 0.19275 0.0
H580 H 0.50057 0.51875 0.76411 0.0
H581 H 0.47313 0.42014 0.69009 0.0
H582 H 0.48345 0.422 0.86435 0.0
H583 H 0.4715 0.3892 0.78166 0.0
H584 H 0.50755 0.51723 0.30074 0.0
H585 H 0.55542 0.61293 0.35795 0.0
H586 H 0.56792 0.58944 0.1878 0.0
H587 H 0.57903 0.62848 0.26346 0.0
Tb588 Tb 0.0196 0.48082 0.5871 0.0
C589 C 0.99618 0.62162 0.45563 0.0
C590 C 0.93284 0.63321 0.47112 0.0
C591 C 0.97467 0.68294 0.4562 0.0
C592 C 0.96183 0.60913 0.46681 0.0
C593 C 1.0031 0.65863 0.4491 0.0
C594 C 0.93953 0.67023 0.46712 0.0
C595 C 0.06494 0.64451 0.42447 0.0
N596 N 0.02266 0.5972 0.44861 0.0
C597 C 0.05658 0.60805 0.43102 0.0
C598 C 0.03817 0.66995 0.43421 0.0
Tb599 Tb 1.00709 0.53812 0.46376 0.0
N600 N 0.95666 0.57325 0.46997 0.0
C601 C 0.92255 0.5596 0.47343 0.0
C602 C 0.898 0.61933 0.47729 0.0
C603 C 0.89282 0.58236 0.47751 0.0
H604 H 0.07752 0.58861 0.42381 0.0
H605 H 0.86594 0.57134 0.48117 0.0
H606 H 0.91765 0.68918 0.47095 0.0
H607 H 0.09201 0.65295 0.41193 0.0
H608 H 0.91797 0.53113 0.47415 0.0
H609 H 0.15846 0.43981 0.59012 0.0
H610 H 0.87496 0.63691 0.48036 0.0
H611 H 0.94427 0.43414 0.61112 0.0
H612 H 0.10858 0.48289 0.59009 0.0
H613 H 0.92596 0.37069 0.6193 0.0
H614 H 0.97942 0.71153 0.45188 0.0
H615 H 0.14612 0.37487 0.5893 0.0
H616 H 0.10055 0.32504 0.594 0.0
H617 H 0.04467 0.69816 0.42887 0.0
H618 H 0.03716 0.30614 0.60179 0.0
N619 N 0.06803 0.44303 0.58715 0.0
C620 C 0.10261 0.45469 0.58956 0.0
C621 C 0.12403 0.39369 0.58904 0.0
C622 C 0.08846 0.38178 0.59007 0.0
C623 C 0.13108 0.43031 0.58966 0.0
C624 C 0.06079 0.40744 0.58929 0.0
H625 H 0.97177 0.32302 0.6117 0.0
N626 N 0.99991 0.42266 0.59752 0.0
C627 C 0.95404 0.37768 0.61238 0.0
C628 C 0.02539 0.39681 0.59486 0.0
C629 C 0.96455 0.41364 0.60798 0.0
C630 C 0.97996 0.35084 0.60787 0.0
C631 C 0.01624 0.36024 0.59991 0.0
O632 O 0.99463 0.4796 0.667 0.0
O633 O 0.99269 0.52567 0.54935 0.0
O634 O 0.03343 0.56979 0.52297 0.0
O635 O 0.05897 0.52526 0.57961 0.0
O636 O 0.96355 0.4974 0.60758 0.0
O637 O 0.05025 0.49472 0.65337 0.0
O638 O 0.03124 0.53591 0.38351 0.0
O639 O 0.03558 0.49469 0.50248 0.0
O640 O 1.00135 0.4486 0.52154 0.0
O641 O 0.96971 0.49209 0.47314 0.0
O642 O 0.06315 0.52385 0.44161 0.0
O643 O 0.97487 0.52479 0.39911 0.0
C644 C 0.96256 0.52543 0.57522 0.0
C645 C 0.03289 0.46645 0.73964 0.0
C646 C 0.04296 0.46165 0.83847 0.0
C647 C 0.03351 0.48217 0.7913 0.0
C648 C 0.05128 0.42523 0.83329 0.0
C649 C 0.04103 0.43003 0.73577 0.0
C650 C 0.05016 0.40958 0.78231 0.0
C651 C 0.05586 0.55906 0.56095 0.0
C652 C 0.02401 0.48822 0.69011 0.0
C653 C 0.04359 0.33442 0.59825 0.0
C654 C 0.07967 0.34518 0.59374 0.0
C655 C 0.06555 0.49708 0.47611 0.0
C656 C 0.99353 0.54911 0.31041 0.0
C657 C 1.00595 0.53602 0.25947 0.0
C658 C 0.99926 0.55478 0.20938 0.0
C659 C 0.97963 0.58687 0.21133 0.0
C660 C 0.97423 0.58127 0.31141 0.0
C661 C 0.96728 0.59996 0.26201 0.0
C662 C 0.97692 0.45818 0.48638 0.0
C663 C 1.00112 0.52866 0.3617 0.0
H664 H 0.02729 0.51034 0.79457 0.0
H665 H 0.05831 0.40874 0.86891 0.0
H666 H 0.04033 0.41735 0.69691 0.0
H667 H 0.05642 0.38148 0.77885 0.0
H668 H 0.02054 0.51094 0.25896 0.0
H669 H 0.97434 0.60221 0.17375 0.0
H670 H 0.96449 0.59187 0.35018 0.0
H671 H 0.95239 0.62479 0.26301 0.0
H672 H 0.05742 0.1064 0.4476 0.0
H673 H 0.12898 0.01599 0.46958 0.0
H674 H 0.17941 0.05193 0.4289 0.0
H675 H 0.09498 0.14108 0.32294 0.0
H676 H 0.09322 0.18817 0.3372 0.0
H677 H 0.0619 0.15735 0.37238 0.0
H678 H 0.08148 0.17698 0.46618 0.0
H679 H 0.11173 0.20875 0.43081 0.0
H680 H 0.12871 0.17667 0.4802 0.0
H681 H 0.21955 0.09208 0.37291 0.0
H682 H 0.25547 0.14259 0.33294 0.0
H683 H 0.16438 0.21344 0.35728 0.0
C684 C 0.08406 0.09487 0.44631 0.0
C685 C 0.0892 0.05817 0.46259 0.0
C686 C 0.12433 0.04389 0.45817 0.0
C687 C 0.15319 0.06404 0.43447 0.0
C688 C 0.14712 0.09917 0.41622 0.0
C689 C 0.11411 0.11542 0.42449 0.0
C690 C 0.11636 0.15434 0.40167 0.0
C691 C 0.09009 0.16061 0.35569 0.0
C692 C 0.10913 0.18069 0.44761 0.0
C693 C 0.15554 0.15685 0.37911 0.0
C694 C 0.17197 0.12403 0.38666 0.0
C695 C 0.20728 0.11816 0.36794 0.0
C696 C 0.22741 0.14706 0.3446 0.0
C697 C 0.21296 0.18204 0.34121 0.0
C698 C 0.17607 0.18694 0.35786 0.0
H699 H 0.06462 0.89685 0.59186 0.0
H700 H 0.12481 0.99551 0.60003 0.0
H701 H 0.17455 0.96188 0.64086 0.0
H702 H 0.09275 0.85822 0.72302 0.0
H703 H 0.09532 0.81307 0.70003 0.0
H704 H 0.06387 0.84422 0.67079 0.0
H705 H 0.09036 0.83379 0.57287 0.0
H706 H 0.12195 0.80221 0.60025 0.0
H707 H 0.13779 0.84002 0.55709 0.0
H708 H 0.22008 0.91656 0.67417 0.0
H709 H 0.25551 0.86354 0.70355 0.0
H710 H 0.16465 0.79518 0.67973 0.0
C711 C 0.08826 0.91137 0.60233 0.0
C712 C 0.09076 0.94893 0.59264 0.0
C713 C 0.12207 0.96689 0.60732 0.0
C714 C 0.15057 0.94796 0.63047 0.0
C715 C 0.14726 0.91103 0.63965 0.0
C716 C 0.11673 0.89295 0.62658 0.0
C717 C 0.11982 0.85324 0.64132 0.0
C718 C 0.09124 0.84149 0.68647 0.0
C719 C 0.11737 0.83101 0.5898 0.0
C720 C 0.15718 0.8517 0.66329 0.0
C721 C 0.17261 0.88532 0.66195 0.0
C722 C 0.20788 0.89026 0.67681 0.0
C723 C 0.22773 0.86012 0.69385 0.0
C724 C 0.212 0.82564 0.69731 0.0
C725 C 0.17653 0.82147 0.68077 0.0
H726 H 0.31721 0.87813 0.8124 0.0
H727 H 0.38508 0.78422 0.80066 0.0
H728 H 0.4291 0.81211 0.85706 0.0
H729 H 0.39494 0.94226 0.80129 0.0
H730 H 0.37268 0.97285 0.84714 0.0
H731 H 0.34668 0.94589 0.80411 0.0
H732 H 0.30983 0.92132 0.89109 0.0
H733 H 0.33617 0.94759 0.93451 0.0
H734 H 0.33282 0.89981 0.94699 0.0
H735 H 0.45896 0.84448 0.92863 0.0
H736 H 0.48435 0.88732 0.98946 0.0
H737 H 0.405 0.96629 0.94168 0.0
C738 C 0.34178 0.86391 0.82067 0.0
C739 C 0.34754 0.82878 0.80283 0.0
C740 C 0.38001 0.811 0.81399 0.0
C741 C 0.40512 0.82656 0.84634 0.0
C742 C 0.39802 0.86054 0.86523 0.0
C743 C 0.36804 0.87977 0.85094 0.0
C744 C 0.36801 0.91652 0.87519 0.0
C745 C 0.37075 0.94613 0.82918 0.0
C746 C 0.33472 0.92159 0.91426 0.0
C747 C 0.40203 0.91427 0.90678 0.0
C748 C 0.41825 0.8813 0.90141 0.0
C749 C 0.44753 0.87098 0.93135 0.0
C750 C 0.46171 0.89561 0.96592 0.0
C751 C 0.44765 0.93076 0.96847 0.0
C752 C 0.417 0.94 0.93912 0.0
H753 H 0.46568 0.08811 0.1195 0.0
H754 H 0.38481 0.01132 0.08094 0.0
H755 H 0.33704 0.05332 0.10962 0.0
H756 H 0.42007 0.11409 0.24312 0.0
H757 H 0.43317 0.16051 0.23625 0.0
H758 H 0.46126 0.12697 0.2051 0.0
H759 H 0.45778 0.16055 0.10841 0.0
H760 H 0.43129 0.19431 0.1424 0.0
H761 H 0.41413 0.17251 0.08466 0.0
H762 H 0.29815 0.10132 0.14531 0.0
H763 H 0.26931 0.15174 0.19114 0.0
H764 H 0.37398 0.19734 0.2162 0.0
C765 C 0.43788 0.0809 0.11533 0.0
C766 C 0.42874 0.04711 0.09572 0.0
C767 C 0.39218 0.0375 0.09417 0.0
C768 C 0.36492 0.06115 0.11047 0.0
C769 C 0.37456 0.09406 0.13003 0.0
C770 C 0.41007 0.10402 0.13304 0.0
C771 C 0.41257 0.13948 0.16136 0.0
C772 C 0.43298 0.13496 0.21463 0.0
C773 C 0.43003 0.16841 0.12183 0.0
C774 C 0.373 0.14755 0.17395 0.0
C775 C 0.35175 0.12112 0.15457 0.0
C776 C 0.31448 0.12225 0.16056 0.0
C777 C 0.2983 0.15119 0.18677 0.0
C778 C 0.31916 0.17873 0.20755 0.0
C779 C 0.35718 0.1767 0.20111 0.0
H780 H 0.89061 0.98142 0.60192 0.0
H781 H 0.98778 0.91801 0.59567 0.0
H782 H 0.95315 0.86505 0.63371 0.0
H783 H 0.85394 0.94328 0.72983 0.0
H784 H 0.80801 0.94448 0.71018 0.0
H785 H 0.83988 0.9768 0.67991 0.0
H786 H 0.82621 0.95832 0.58156 0.0
H787 H 0.79353 0.92661 0.61128 0.0
H788 H 0.8294 0.91187 0.565 0.0
H789 H 0.90644 0.81865 0.67449 0.0
H790 H 0.85336 0.78417 0.71197 0.0
H791 H 0.78716 0.87856 0.69355 0.0
C792 C 0.90449 0.95622 0.60792 0.0
C793 C 0.94173 0.9536 0.59415 0.0
C794 C 0.95912 0.92043 0.60411 0.0
C795 C 0.93964 0.89027 0.62621 0.0
C796 C 0.90279 0.89374 0.63892 0.0
C797 C 0.88547 0.92598 0.62994 0.0
C798 C 0.8459 0.92313 0.64788 0.0
C799 C 0.83638 0.94843 0.69473 0.0
C800 C 0.82237 0.93041 0.59849 0.0
C801 C 0.84343 0.88426 0.66842 0.0
C802 C 0.8765 0.86767 0.66306 0.0
C803 C 0.88058 0.83163 0.67908 0.0
C804 C 0.85025 0.81222 0.70092 0.0
C805 C 0.81621 0.82881 0.70744 0.0
C806 C 0.81293 0.86525 0.69013 0.0
H807 H 0.95342 0.12225 0.45247 0.0
H808 H 0.89884 0.0199 0.44884 0.0
H809 H 0.84699 0.04956 0.40938 0.0
H810 H 0.87531 0.17477 0.48793 0.0
H811 H 0.88825 0.21306 0.44357 0.0
H812 H 0.92213 0.18423 0.47142 0.0
H813 H 0.94875 0.17567 0.37369 0.0
H814 H 0.91434 0.20255 0.3428 0.0
H815 H 0.92165 0.15708 0.32288 0.0
H816 H 0.79884 0.08948 0.37874 0.0
H817 H 0.75788 0.13834 0.35203 0.0
H818 H 0.84314 0.21558 0.36509 0.0
C819 C 0.93054 0.10618 0.44327 0.0
C820 C 0.93046 0.06854 0.45379 0.0
C821 C 0.89997 0.04855 0.44093 0.0
C822 C 0.87016 0.0652 0.41849 0.0
C823 C 0.8711 0.10204 0.40823 0.0
C824 C 0.90043 0.12245 0.41976 0.0
C825 C 0.89397 0.16172 0.40396 0.0
C826 C 0.89495 0.1848 0.45476 0.0
C827 C 0.92129 0.17509 0.35809 0.0
C828 C 0.85626 0.15999 0.38286 0.0
C829 C 0.84368 0.12518 0.38625 0.0
C830 C 0.80862 0.11673 0.37442 0.0
C831 C 0.78558 0.14457 0.35915 0.0
C832 C 0.79789 0.18033 0.35381 0.0
C833 C 0.83374 0.1882 0.36582 0.0
H834 H 0.69608 0.19245 0.16443 0.0
H835 H 0.6541 0.17753 0.33378 0.0
H836 H 0.60654 0.13827 0.30387 0.0
H837 H 0.60993 0.19241 0.1005 0.0
H838 H 0.6267 0.16807 0.04211 0.0
H839 H 0.65639 0.19665 0.07656 0.0
H840 H 0.69968 0.14334 0.09218 0.0
H841 H 0.67016 0.11472 0.0576 0.0
H842 H 0.68273 0.10263 0.12665 0.0
H843 H 0.56568 0.0985 0.25667 0.0
H844 H 0.53405 0.05995 0.19471 0.0
H845 H 0.6026 0.09974 0.05577 0.0
C846 C 0.67683 0.18088 0.19514 0.0
C847 C 0.67824 0.18853 0.25146 0.0
C848 C 0.6527 0.17301 0.29042 0.0
C849 C 0.6258 0.15041 0.27378 0.0
C850 C 0.62488 0.14369 0.21792 0.0
C851 C 0.6497 0.15839 0.1791 0.0
C852 C 0.64323 0.14599 0.12185 0.0
C853 C 0.63348 0.17767 0.08297 0.0
C854 C 0.67589 0.12544 0.0982 0.0
C855 C 0.61133 0.12146 0.13481 0.0
C856 C 0.6011 0.12073 0.19047 0.0
C857 C 0.57323 0.09904 0.21296 0.0
C858 C 0.55556 0.07722 0.17766 0.0
C859 C 0.5658 0.07743 0.12077 0.0
C860 C 0.59377 0.09996 0.0989 0.0
H861 H 0.72402 0.86845 0.87256 0.0
H862 H 0.64216 0.79301 0.83132 0.0
H863 H 0.59578 0.8297 0.87699 0.0
H864 H 0.68344 0.89164 1.00645 0.0
H865 H 0.69457 0.93852 0.99815 0.0
H866 H 0.72275 0.90579 0.96485 0.0
H867 H 0.71547 0.93817 0.86987 0.0
H868 H 0.68781 0.97147 0.90258 0.0
H869 H 0.67106 0.94712 0.84683 0.0
H870 H 0.5578 0.87432 0.92415 0.0
H871 H 0.5298 0.9272 0.96386 0.0
H872 H 0.63375 0.97631 0.97511 0.0
C873 C 0.69636 0.85959 0.87353 0.0
C874 C 0.68688 0.82763 0.84842 0.0
C875 C 0.65027 0.81729 0.84997 0.0
C876 C 0.62364 0.83789 0.87619 0.0
C877 C 0.63377 0.86909 0.90048 0.0
C878 C 0.66911 0.88028 0.89896 0.0
C879 C 0.67202 0.91621 0.92562 0.0
C880 C 0.69453 0.91284 0.97682 0.0
C881 C 0.6875 0.94494 0.88372 0.0
C882 C 0.63277 0.9235 0.94169 0.0
C883 C 0.61144 0.89552 0.9275 0.0
C884 C 0.57433 0.89602 0.93653 0.0
C885 C 0.5585 0.92597 0.96028 0.0
C886 C 0.57935 0.95504 0.97564 0.0
C887 C 0.61711 0.95398 0.96532 0.0
H888 H 0.63436 0.53344 0.94564 0.0
H889 H 0.53906 0.59915 0.96195 0.0
H890 H 0.5741 0.65213 0.92669 0.0
H891 H 0.69823 0.60084 0.98608 0.0
H892 H 0.73276 0.58622 0.93749 0.0
H893 H 0.69947 0.55488 0.96646 0.0
H894 H 0.68516 0.54026 0.86654 0.0
H895 H 0.71645 0.57351 0.83735 0.0
H896 H 0.67001 0.57537 0.82025 0.0
H897 H 0.62036 0.69853 0.8885 0.0
H898 H 0.67328 0.73368 0.85236 0.0
H899 H 0.73884 0.6382 0.86025 0.0
C900 C 0.62099 0.55908 0.94216 0.0
C901 C 0.58408 0.56225 0.9582 0.0
C902 C 0.56741 0.59612 0.95178 0.0
C903 C 0.58714 0.6264 0.93128 0.0
C904 C 0.62362 0.6225 0.91675 0.0
C905 C 0.64042 0.58967 0.92213 0.0
C906 C 0.67987 0.59259 0.90328 0.0
C907 C 0.70399 0.58305 0.95119 0.0
C908 C 0.68838 0.56904 0.85391 0.0
C909 C 0.68272 0.63212 0.8863 0.0
C910 C 0.64995 0.64892 0.89427 0.0
C911 C 0.64603 0.68548 0.88187 0.0
C912 C 0.67625 0.70528 0.86085 0.0
C913 C 0.71003 0.6886 0.85179 0.0
C914 C 0.71322 0.65159 0.86571 0.0
H915 H 0.73441 0.37666 0.20396 0.0
H916 H 0.67427 0.27761 0.22876 0.0
H917 H 0.62209 0.30633 0.1875 0.0
H918 H 0.65713 0.43629 0.23631 0.0
H919 H 0.6728 0.47002 0.1856 0.0
H920 H 0.70456 0.44125 0.21914 0.0
H921 H 0.72986 0.42367 0.12208 0.0
H922 H 0.69695 0.45143 0.08939 0.0
H923 H 0.70005 0.40462 0.07511 0.0
H924 H 0.57901 0.34347 0.13423 0.0
H925 H 0.54346 0.38953 0.08653 0.0
H926 H 0.62742 0.4677 0.10515 0.0
C927 C 0.71002 0.36128 0.20126 0.0
C928 C 0.70822 0.32501 0.22048 0.0
C929 C 0.67609 0.30554 0.21563 0.0
C930 C 0.64633 0.32161 0.19181 0.0
C931 C 0.6489 0.35736 0.17336 0.0
C932 C 0.67957 0.37729 0.17886 0.0
C933 C 0.67478 0.41549 0.15632 0.0
C934 C 0.67749 0.44233 0.2021 0.0
C935 C 0.70203 0.42431 0.10784 0.0
C936 C 0.63679 0.41371 0.13682 0.0
C937 C 0.62275 0.37967 0.14613 0.0
C938 C 0.58932 0.37047 0.12803 0.0
C939 C 0.5693 0.3969 0.10085 0.0
C940 C 0.58217 0.43252 0.09331 0.0
C941 C 0.61652 0.44092 0.11142 0.0
H942 H 0.90868 0.46027 0.45008 0.0
H943 H 1.00165 0.39147 0.46606 0.0
H944 H 0.97011 0.34319 0.42238 0.0
H945 H 0.84411 0.39078 0.48545 0.0
H946 H 0.81168 0.40789 0.43858 0.0
H947 H 0.84239 0.43805 0.46773 0.0
H948 H 0.86412 0.46121 0.36935 0.0
H949 H 0.83346 0.4311 0.33989 0.0
H950 H 0.88066 0.42977 0.31985 0.0
H951 H 0.92953 0.30327 0.37457 0.0
H952 H 0.8797 0.27135 0.33533 0.0
H953 H 0.81094 0.36384 0.35813 0.0
C954 C 0.92241 0.43513 0.44383 0.0
C955 C 0.95769 0.42965 0.46054 0.0
C956 C 0.97466 0.39621 0.45307 0.0
C957 C 0.95703 0.36868 0.42822 0.0
C958 C 0.92226 0.37489 0.41207 0.0
C959 C 0.90486 0.40702 0.4203 0.0
C960 C 0.86666 0.40584 0.40232 0.0
C961 C 0.83962 0.41093 0.45145 0.0
C962 C 0.86091 0.43363 0.35503 0.0
C963 C 0.86541 0.36808 0.3825 0.0
C964 C 0.89796 0.35094 0.38769 0.0
C965 C 0.90379 0.31625 0.37073 0.0
C966 C 0.87537 0.2984 0.34843 0.0
C967 C 0.84147 0.31509 0.34435 0.0
C968 C 0.8365 0.35037 0.36147 0.0
H969 H 0.8006 0.64683 0.69669 0.0
H970 H 0.88256 0.72524 0.72572 0.0
H971 H 0.92847 0.68718 0.68169 0.0
H972 H 0.85619 0.57016 0.72858 0.0
H973 H 0.83813 0.5427 0.67747 0.0
H974 H 0.81083 0.57702 0.70825 0.0
H975 H 0.79978 0.60409 0.61131 0.0
H976 H 0.82799 0.57088 0.57929 0.0
H977 H 0.8373 0.61782 0.56559 0.0
H978 H 0.96577 0.64145 0.63679 0.0
H979 H 0.99367 0.58776 0.60018 0.0
H980 H 0.89008 0.53584 0.60071 0.0
C981 C 0.82818 0.65602 0.69331 0.0
C982 C 0.83786 0.6893 0.71412 0.0
C983 C 0.87436 0.70004 0.70996 0.0
C984 C 0.90069 0.67864 0.68478 0.0
C985 C 0.89036 0.64617 0.66457 0.0
C986 C 0.85517 0.63447 0.66923 0.0
C987 C 0.85213 0.59717 0.64713 0.0
C988 C 0.83852 0.57017 0.69311 0.0
C989 C 0.82787 0.5975 0.59788 0.0
C990 C 0.8911 0.58997 0.62918 0.0
C991 C 0.91239 0.61896 0.63918 0.0
C992 C 0.94928 0.61886 0.62777 0.0
C993 C 0.96498 0.58833 0.60582 0.0
C994 C 0.94414 0.55823 0.59455 0.0
C995 C 0.90663 0.55886 0.60742 0.0
H996 H 0.29123 0.38063 0.20936 0.0
H997 H 0.35468 0.28366 0.20795 0.0
H998 H 0.40772 0.31877 0.17049 0.0
H999 H 0.32875 0.41934 0.08253 0.0
H1000 H 0.32776 0.4647 0.10479 0.0
H1001 H 0.29544 0.43254 0.13421 0.0
H1002 H 0.31457 0.4443 0.23282 0.0
H1003 H 0.34628 0.47728 0.20411 0.0
H1004 H 0.36126 0.44072 0.24792 0.0
H1005 H 0.4541 0.3659 0.13166 0.0
H1006 H 0.48844 0.41926 0.09603 0.0
H1007 H 0.39404 0.48503 0.12044 0.0
C1008 C 0.31646 0.36687 0.2018 0.0
C1009 C 0.31913 0.32955 0.21323 0.0
C1010 C 0.3523 0.31235 0.20126 0.0
C1011 C 0.38248 0.33211 0.17953 0.0
C1012 C 0.37897 0.36903 0.16923 0.0
C1013 C 0.3467 0.38616 0.18009 0.0
C1014 C 0.34949 0.42585 0.16436 0.0
C1015 C 0.32383 0.43621 0.11877 0.0
C1016 C 0.34249 0.44836 0.21534 0.0
C1017 C 0.38838 0.42863 0.14288 0.0
C1018 C 0.40501 0.39559 0.14596 0.0
C1019 C 0.44107 0.39173 0.12881 0.0
C1020 C 0.46043 0.42222 0.10803 0.0
C1021 C 0.44382 0.45621 0.10358 0.0
C1022 C 0.40738 0.45931 0.12219 0.0
H1023 H 0.40837 0.55114 0.93204 0.0
H1024 H 0.47728 0.63171 0.99518 0.0
H1025 H 0.4409 0.67913 0.95286 0.0
H1026 H 0.39406 0.59677 0.80301 0.0
H1027 H 0.3471 0.58602 0.79964 0.0
H1028 H 0.37654 0.55592 0.83569 0.0
H1029 H 0.33819 0.5576 0.92628 0.0
H1030 H 0.30637 0.58553 0.89141 0.0
H1031 H 0.32527 0.60006 0.95352 0.0
H1032 H 0.39646 0.71837 0.9068 0.0
H1033 H 0.34531 0.74679 0.86144 0.0
H1034 H 0.30477 0.64253 0.82491 0.0
C1035 C 0.41581 0.57876 0.9369 0.0
C1036 C 0.44574 0.58749 0.96748 0.0
C1037 C 0.45438 0.62407 0.97277 0.0
C1038 C 0.43395 0.65136 0.94847 0.0
C1039 C 0.40474 0.64192 0.91874 0.0
C1040 C 0.39543 0.60657 0.91306 0.0
C1041 C 0.36205 0.60408 0.87995 0.0
C1042 C 0.3704 0.58456 0.82635 0.0
C1043 C 0.33114 0.58574 0.91488 0.0
C1044 C 0.35413 0.64353 0.86813 0.0
C1045 C 0.37929 0.66479 0.89085 0.0
C1046 C 0.37701 0.70202 0.88793 0.0
C1047 C 0.34814 0.71801 0.86156 0.0
C1048 C 0.32217 0.69698 0.83749 0.0
C1049 C 0.32501 0.65921 0.84133 0.0
H1050 H 0.2147 0.643 0.72287 0.0
H1051 H 0.15192 0.74062 0.72629 0.0
H1052 H 0.10422 0.71153 0.67798 0.0
H1053 H 0.19203 0.61054 0.59563 0.0
H1054 H 0.18671 0.5646 0.61975 0.0
H1055 H 0.21616 0.59346 0.65389 0.0
H1056 H 0.18059 0.57789 0.74682 0.0
H1057 H 0.15097 0.54956 0.71172 0.0
H1058 H 0.13279 0.58528 0.75208 0.0
H1059 H 0.0689 0.67559 0.61647 0.0
H1060 H 0.03904 0.62985 0.56545 0.0
H1061 H 0.11832 0.55147 0.61565 0.0
C1062 C 0.1906 0.6579 0.71411 0.0
C1063 C 0.18719 0.69426 0.72688 0.0
C1064 C 0.15521 0.71294 0.71585 0.0
C1065 C 0.12801 0.69667 0.68844 0.0
C1066 C 0.13259 0.6612 0.67467 0.0
C1067 C 0.16228 0.64148 0.68906 0.0
C1068 C 0.15897 0.60301 0.67247 0.0
C1069 C 0.19039 0.59234 0.6331 0.0
C1070 C 0.15562 0.57742 0.72383 0.0
C1071 C 0.1241 0.60507 0.64324 0.0
C1072 C 0.10959 0.63902 0.64465 0.0
C1073 C 0.07928 0.64856 0.61648 0.0
C1074 C 0.06269 0.6224 0.58727 0.0
C1075 C 0.07592 0.58687 0.58758 0.0
C1076 C 0.10719 0.57822 0.61567 0.0
H1077 H 0.14994 0.31848 0.35318 0.0
H1078 H 0.25392 0.36731 0.37278 0.0
H1079 H 0.22456 0.41765 0.41774 0.0
H1080 H 0.10191 0.39948 0.32459 0.0
H1081 H 0.06139 0.38652 0.36435 0.0
H1082 H 0.08986 0.35287 0.33438 0.0
H1083 H 0.09369 0.32119 0.4289 0.0
H1084 H 0.06691 0.35485 0.46263 0.0
H1085 H 0.11126 0.34439 0.48497 0.0
H1086 H 0.18511 0.46555 0.45197 0.0
H1087 H 0.13656 0.50705 0.47973 0.0
H1088 H 0.05725 0.4271 0.44794 0.0
C1089 C 0.16646 0.33976 0.36704 0.0
C1090 C 0.20442 0.3387 0.35916 0.0
C1091 C 0.22496 0.3671 0.37823 0.0
C1092 C 0.20851 0.39602 0.40396 0.0
C1093 C 0.17131 0.39626 0.41126 0.0
C1094 C 0.15038 0.3689 0.39379 0.0
C1095 C 0.11079 0.37626 0.40731 0.0
C1096 C 0.08976 0.37898 0.35449 0.0
C1097 C 0.09465 0.34748 0.44842 0.0
C1098 C 0.11297 0.41233 0.43377 0.0
C1099 C 0.14827 0.42327 0.43522 0.0
C1100 C 0.15739 0.45695 0.45254 0.0
C1101 C 0.12974 0.4803 0.46834 0.0
C1102 C 0.09344 0.46955 0.46858 0.0
C1103 C 0.0849 0.43509 0.45113 0.0
H1104 H 0.98325 0.01281 0.89019 0.0
H1105 H 0.07766 0.07957 0.89825 0.0
H1106 H 0.08327 0.05952 0.99567 0.0
H1107 H 0.94631 0.03002 1.02413 0.0
H1108 H 0.9293 0.98539 0.0394 0.0
H1109 H 0.93414 1.00249 0.96888 0.0
H1110 H 0.97405 0.94836 0.94344 0.0
H1111 H 0.96915 0.93095 1.01387 0.0
H1112 H 0.0133 0.9386 0.98164 0.0
H1113 H 0.07712 0.03489 0.09323 0.0
H1114 H 0.06032 1.00636 0.1844 0.0
H1115 H 0.96868 0.95649 0.11533 0.0
C1116 C 1.00548 0.02256 0.91226 0.0
C1117 C 0.03015 0.04765 0.8866 0.0
C1118 C 0.05847 0.06041 0.91714 0.0
C1119 C 0.0619 0.04913 0.97246 0.0
C1120 C 0.03675 0.02504 0.99699 0.0
C1121 C 1.00915 0.01175 0.96796 0.0
C1122 C 0.98485 0.98739 1.0052 0.0
C1123 C 0.94638 1.00222 1.00966 0.0
C1124 C 0.98538 0.94905 0.98481 0.0
C1125 C 1.00296 0.98938 0.05962 0.0
C1126 C 0.03293 0.01115 0.05379 0.0
C1127 C 0.05373 0.01774 0.09829 0.0
C1128 C 0.04374 1.00162 0.15016 0.0
C1129 C 0.01305 0.97921 0.15753 0.0
C1130 C 0.99253 0.97307 0.11125 0.0
H1131 H 0.30299 0.7149 0.37488 0.0
H1132 H 0.32439 0.82419 0.41648 0.0
H1133 H 0.30696 0.84546 0.32361 0.0
H1134 H 0.33727 0.72283 0.23405 0.0
H1135 H 0.30338 0.69442 0.20866 0.0
H1136 H 0.31674 0.68793 0.27863 0.0
H1137 H 0.2507 0.69483 0.31531 0.0
H1138 H 0.23708 0.70091 0.24545 0.0
H1139 H 0.22587 0.73418 0.29503 0.0
H1140 H 0.28856 0.8545 0.2241 0.0
H1141 H 0.26593 0.85083 0.13017 0.0
H1142 H 0.25673 0.73577 0.15389 0.0
C1143 C 0.3041 0.74335 0.36455 0.0
C1144 C 0.31529 0.76786 0.4032 0.0
C1145 C 0.31567 0.80489 0.38802 0.0
C1146 C 0.3061 0.81718 0.3351 0.0
C1147 C 0.29601 0.79218 0.2977 0.0
C1148 C 0.29458 0.75604 0.31206 0.0
C1149 C 0.28234 0.73464 0.26475 0.0
C1150 C 0.31169 0.70841 0.24539 0.0
C1151 C 0.24689 0.71499 0.28112 0.0
C1152 C 0.27706 0.76431 0.22133 0.0
C1153 C 0.28534 0.79732 0.24096 0.0
C1154 C 0.28216 0.82876 0.2084 0.0
C1155 C 0.26956 0.82645 0.15502 0.0
C1156 C 0.26032 0.79301 0.13465 0.0
C1157 C 0.26435 0.76157 0.16818 0.0
H1158 H 0.53356 0.01123 0.67342 0.0
H1159 H 0.43459 0.07102 0.65902 0.0
H1160 H 0.4295 0.05036 0.56454 0.0
H1161 H 0.56793 0.03045 0.5361 0.0
H1162 H 0.5878 0.98705 0.52672 0.0
H1163 H 0.58254 1.00422 0.59483 0.0
H1164 H 0.54667 0.94755 0.62917 0.0
H1165 H 0.55199 0.9301 0.56118 0.0
H1166 H 0.50774 0.9348 0.59364 0.0
H1167 H 0.43639 0.02584 0.47035 0.0
H1168 H 0.45426 0.99806 0.38281 0.0
H1169 H 0.54961 0.9549 0.45635 0.0
C1170 C 0.51051 0.01935 0.65067 0.0
C1171 C 0.4844 0.04268 0.67358 0.0
C1172 C 0.45496 0.05331 0.64215 0.0
C1173 C 0.45179 0.04164 0.58852 0.0
C1174 C 0.4783 0.01931 0.56665 0.0
C1175 C 0.50705 1.00812 0.59667 0.0
C1176 C 0.53257 0.98532 0.56228 0.0
C1177 C 0.56991 1.00282 0.55453 0.0
C1178 C 0.53486 0.94717 0.58811 0.0
C1179 C 0.51377 0.9857 0.50826 0.0
C1180 C 0.48247 1.00539 0.51184 0.0
C1181 C 0.46082 0.01029 0.46707 0.0
C1182 C 0.47138 0.99462 0.4173 0.0
C1183 C 0.50342 0.97433 0.41234 0.0
C1184 C 0.52475 0.96984 0.45879 0.0
H1185 H 0.23276 0.31303 0.89391 0.0
H1186 H 0.23203 0.19838 0.92762 0.0
H1187 H 0.25653 0.18927 0.83215 0.0
H1188 H 0.20798 0.31281 0.75384 0.0
H1189 H 0.23749 0.34903 0.72997 0.0
H1190 H 0.21999 0.34641 0.80064 0.0
H1191 H 0.28465 0.34779 0.83456 0.0
H1192 H 0.30236 0.35068 0.76398 0.0
H1193 H 0.31698 0.31538 0.81049 0.0
H1194 H 0.27757 0.19295 0.73083 0.0
H1195 H 0.29998 0.20922 0.63493 0.0
H1196 H 0.29121 0.32161 0.66963 0.0
C1197 C 0.23806 0.28608 0.88107 0.0
C1198 C 0.23059 0.2563 0.91766 0.0
C1199 C 0.2378 0.2214 0.89994 0.0
C1200 C 0.25154 0.21605 0.84586 0.0
C1201 C 0.25834 0.24595 0.81041 0.0
C1202 C 0.25239 0.28033 0.82759 0.0
C1203 C 0.26279 0.30792 0.7819 0.0
C1204 C 0.23011 0.33036 0.76564 0.0
C1205 C 0.29353 0.33184 0.79875 0.0
C1206 C 0.27522 0.28376 0.73613 0.0
C1207 C 0.27202 0.24809 0.75315 0.0
C1208 C 0.28054 0.22079 0.7173 0.0
C1209 C 0.29307 0.23022 0.66295 0.0
C1210 C 0.29748 0.26657 0.64528 0.0
C1211 C 0.28838 0.2936 0.68241 0.0
H1212 H 0.79327 0.2064 0.87655 0.0
H1213 H 0.77846 0.30791 0.95487 0.0
H1214 H 0.7586 0.33531 0.86738 0.0
H1215 H 0.82713 0.24367 0.74242 0.0
H1216 H 0.80433 0.21113 0.70421 0.0
H1217 H 0.81822 0.19948 0.77267 0.0
H1218 H 0.75293 0.18131 0.80336 0.0
H1219 H 0.73886 0.19282 0.73502 0.0
H1220 H 0.71717 0.21308 0.794 0.0
H1221 H 0.7389 0.35146 0.77263 0.0
H1222 H 0.71939 0.35508 0.67699 0.0
H1223 H 0.74775 0.24358 0.65852 0.0
C1224 C 0.78627 0.23451 0.87517 0.0
C1225 C 0.78737 0.25495 0.92286 0.0
C1226 C 0.77738 0.29151 0.91931 0.0
C1227 C 0.76634 0.30742 0.86962 0.0
C1228 C 0.76551 0.28651 0.82358 0.0
C1229 C 0.77519 0.25085 0.8258 0.0
C1230 C 0.77095 0.23419 0.77055 0.0
C1231 C 0.80733 0.22137 0.74602 0.0
C1232 C 0.74333 0.20354 0.77609 0.0
C1233 C 0.75706 0.266 0.73709 0.0
C1234 C 0.75427 0.29591 0.76855 0.0
C1235 C 0.74108 0.32826 0.74755 0.0
C1236 C 0.72996 0.33002 0.69325 0.0
C1237 C 0.73203 0.29964 0.66033 0.0
C1238 C 0.74628 0.26735 0.68245 0.0
H1239 H 0.76908 0.7325 0.41427 0.0
H1240 H 0.66644 0.78635 0.40548 0.0
H1241 H 0.68068 0.80329 0.30715 0.0
H1242 H 0.82107 0.79483 0.32066 0.0
H1243 H 0.84726 0.75983 0.28946 0.0
H1244 H 0.83011 0.75417 0.36013 0.0
H1245 H 0.79891 0.69524 0.33697 0.0
H1246 H 0.8158 0.70079 0.26623 0.0
H1247 H 0.76826 0.69566 0.28197 0.0
H1248 H 0.70476 0.81213 0.20917 0.0
H1249 H 0.73721 0.81261 0.11784 0.0
H1250 H 0.82363 0.7514 0.18904 0.0
C1251 C 0.74999 0.74844 0.39179 0.0
C1252 C 0.71676 0.75836 0.41737 0.0
C1253 C 0.69202 0.77851 0.38647 0.0
C1254 C 0.6999 0.78829 0.33073 0.0
C1255 C 0.7326 0.77757 0.30637 0.0
C1256 C 0.75729 0.75812 0.33582 0.0
C1257 C 0.78963 0.74846 0.29892 0.0
C1258 C 0.82405 0.76534 0.31846 0.0
C1259 C 0.79335 0.70762 0.29585 0.0
C1260 C 0.77921 0.76549 0.24421 0.0
C1261 C 0.74626 0.78221 0.2495 0.0
C1262 C 0.73062 0.79917 0.20451 0.0
C1263 C 0.74915 0.79906 0.15269 0.0
C1264 C 0.78296 0.782 0.14608 0.0
C1265 C 0.79809 0.7651 0.19274 0.0
H1266 H 0.51537 0.44817 0.62112 0.0
H1267 H 0.46052 0.53861 0.69361 0.0
H1268 H 0.46297 0.57063 0.60238 0.0
H1269 H 0.57476 0.49854 0.52847 0.0
H1270 H 0.57293 0.46799 0.47327 0.0
H1271 H 0.56583 0.4517 0.5439 0.0
H1272 H 0.50451 0.42507 0.52117 0.0
H1273 H 0.51141 0.44137 0.45043 0.0
H1274 H 0.47149 0.45367 0.49028 0.0
H1275 H 0.47362 0.59386 0.5044 0.0
H1276 H 0.49194 0.60677 0.40614 0.0
H1277 H 0.53809 0.50068 0.39626 0.0
C1278 C 0.50342 0.47451 0.61771 0.0
C1279 C 0.48781 0.49089 0.6647 0.0
C1280 C 0.47307 0.52568 0.65849 0.0
C1281 C 0.47407 0.54398 0.60673 0.0
C1282 C 0.48977 0.52711 0.56141 0.0
C1283 C 0.50412 0.49314 0.56631 0.0
C1284 C 0.52034 0.48147 0.51134 0.0
C1285 C 0.56086 0.47453 0.51445 0.0
C1286 C 0.50076 0.44844 0.49218 0.0
C1287 C 0.51312 0.51433 0.47484 0.0
C1288 C 0.49541 0.54031 0.5046 0.0
C1289 C 0.48722 0.57363 0.48058 0.0
C1290 C 0.49777 0.58074 0.42487 0.0
C1291 C 0.51618 0.55464 0.3937 0.0
C1292 C 0.52349 0.52085 0.41893 0.0
H1293 H 0.99157 0.5019 0.89306 0.0
H1294 H 0.09778 0.45645 0.90809 0.0
H1295 H 0.09912 0.47768 1.00287 0.0
H1296 H 1.00551 0.58116 0.97465 0.0
H1297 H 0.96071 0.5794 1.0064 0.0
H1298 H 0.96923 0.56325 0.93806 0.0
H1299 H 0.94146 0.50195 0.97055 0.0
H1300 H 0.93304 0.51782 0.03899 0.0
H1301 H 0.95901 0.47774 1.02906 0.0
H1302 H 0.08783 0.50065 0.09736 0.0
H1303 H 0.06494 0.52459 0.18551 0.0
H1304 H 0.9652 0.55406 0.11103 0.0
C1305 C 0.01536 0.49713 0.916 0.0
C1306 C 0.04466 0.47766 0.89324 0.0
C1307 C 0.07504 0.47123 0.92487 0.0
C1308 C 0.07608 0.48326 0.97865 0.0
C1309 C 0.0465 0.50169 1.00038 0.0
C1310 C 0.01672 0.50875 0.97011 0.0
C1311 C 0.98783 0.5275 1.00449 0.0
C1312 C 0.98039 0.56506 0.9794 0.0
C1313 C 0.9533 0.50489 1.01116 0.0
C1314 C 1.00588 0.52949 0.05887 0.0
C1315 C 0.03978 0.51461 0.05541 0.0
C1316 C 0.06136 0.51248 0.10055 0.0
C1317 C 0.04797 0.5259 0.15064 0.0
C1318 C 0.0132 0.54113 0.1555 0.0
C1319 C 0.99205 0.54302 0.10865 0.0
loop_
_geom_bond_atom_site_label_1
_geom_bond_atom_site_label_2
_geom_bond_distance
_geom_bond_site_symmetry_2
_ccdc_geom_bond_type
Tb0 N31 2.652 1_455 S
Tb0 N38 2.600 1_455 S
Tb0 O44 2.550 . S
Tb0 O45 2.612 1_565 S
Tb0 O47 2.314 1_465 S
Tb0 O48 2.557 1_565 S
Tb0 O49 2.412 1_455 S
Tb0 O51 2.359 1_455 S
Tb0 O52 2.427 . S
Tb0 C64 2.834 . S
C1 C4 1.432 . S
C1 C5 1.414 . S
C1 N8 1.359 . S
C2 C4 1.417 . S
C2 C6 1.432 . S
C2 C14 1.410 . S
C3 C5 1.444 . S
C3 C6 1.317 . S
C3 H26 0.929 . S
C4 C1 1.432 . S
C4 C2 1.417 . S
C4 N12 1.360 . S
C5 C1 1.414 . S
C5 C3 1.444 . S
C5 C10 1.385 . S
C6 C2 1.432 . S
C6 C3 1.317 . S
C6 H18 0.930 . S
C7 C9 1.392 . S
C7 C10 1.370 1_655 S
C7 H19 0.931 . S
N8 C1 1.359 . S
N8 C9 1.327 1_455 S
N8 Tb11 2.600 1_455 S
C9 C7 1.392 . S
C9 N8 1.327 1_655 S
C9 H16 0.930 . S
C10 C5 1.385 . S
C10 C7 1.370 1_455 S
C10 H29 0.930 . S
Tb11 N8 2.600 1_655 S
Tb11 N12 2.659 1_655 S
Tb11 O45 2.361 1_655 S
Tb11 O46 2.421 . S
Tb11 O50 2.546 . S
Tb11 O51 2.610 1_545 S
Tb11 O53 2.319 1_645 S
Tb11 O54 2.552 1_545 S
Tb11 O55 2.413 1_655 S
Tb11 C75 2.833 . S
N12 C4 1.360 . S
N12 Tb11 2.659 1_455 S
N12 C13 1.305 . S
C13 N12 1.305 . S
C13 C15 1.407 . S
C13 H20 0.930 . S
C14 C2 1.410 . S
C14 C15 1.345 . S
C14 H22 0.930 . S
C15 C13 1.407 . S
C15 C14 1.345 . S
C15 H17 0.930 . S
H16 C9 0.930 . S
H17 C15 0.930 . S
H18 C6 0.930 . S
H19 C7 0.931 . S
H20 C13 0.930 . S
H21 C35 0.930 . S
H22 C14 0.930 . S
H23 C41 0.930 . S
H24 C32 0.930 . S
H25 C39 0.931 . S
H26 C3 0.929 . S
H27 C33 0.930 . S
H28 C66 0.930 . S
H29 C10 0.930 . S
H30 C65 0.929 . S
N31 Tb0 2.652 1_655 S
N31 C32 1.305 . S
N31 C36 1.360 . S
C32 H24 0.930 . S
C32 N31 1.305 . S
C32 C35 1.407 . S
C33 H27 0.930 . S
C33 C34 1.410 . S
C33 C35 1.345 . S
C34 C33 1.410 . S
C34 C36 1.417 . S
C34 C66 1.432 . S
C35 H21 0.930 . S
C35 C32 1.407 . S
C35 C33 1.345 . S
C36 N31 1.360 . S
C36 C34 1.417 . S
C36 C40 1.432 . S
H37 C42 0.929 . S
N38 Tb0 2.600 1_655 S
N38 C40 1.359 . S
N38 C41 1.327 1_655 S
C39 H25 0.931 . S
C39 C41 1.392 . S
C39 C42 1.343 1_455 S
C40 C36 1.432 . S
C40 N38 1.359 . S
C40 C43 1.414 . S
C41 H23 0.930 . S
C41 N38 1.327 1_455 S
C41 C39 1.392 . S
C42 H37 0.929 . S
C42 C39 1.343 1_655 S
C42 C43 1.412 . S
C43 C40 1.414 . S
C43 C42 1.412 . S
C43 C65 1.444 . S
O44 Tb0 2.550 . S
O44 C64 1.251 . S
O45 Tb0 2.612 1_545 S
O45 Tb11 2.361 1_455 S
O45 C56 1.283 . S
O46 Tb11 2.421 . S
O46 C63 1.262 . S
O47 Tb0 2.314 1_645 S
O47 C63 1.260 . S
O48 Tb0 2.557 1_545 S
O48 C56 1.243 . S
O49 Tb0 2.412 1_655 S
O49 C64 1.256 1_655 S
O50 Tb11 2.546 . S
O50 C75 1.251 . S
O51 Tb0 2.359 1_655 S
O51 Tb11 2.610 1_565 S
O51 C67 1.283 . S
O52 Tb0 2.427 . S
O52 C74 1.262 . S
O53 Tb11 2.319 1_465 S
O53 C74 1.260 . S
O54 Tb11 2.552 1_565 S
O54 C67 1.243 . S
O55 Tb11 2.413 1_455 S
O55 C75 1.256 1_455 S
C56 O45 1.283 . S
C56 O48 1.243 . S
C57 C59 1.382 . S
C57 C61 1.393 . S
C57 C64 1.500 . S
C58 C59 1.400 . S
C58 C60 1.384 . S
C59 C57 1.382 . S
C59 C58 1.400 . S
C59 H76 0.930 1_465 S
C60 C58 1.384 . S
C60 C62 1.392 . S
C60 H77 0.931 . S
C61 C57 1.393 . S
C61 C62 1.401 . S
C61 H78 0.930 . S
C62 C60 1.392 . S
C62 C61 1.401 . S
C62 H79 0.930 . S
C63 O46 1.262 . S
C63 O47 1.260 . S
C64 Tb0 2.834 . S
C64 O44 1.251 . S
C64 O49 1.256 1_455 S
C64 C57 1.500 . S
C65 H30 0.929 . S
C65 C43 1.444 . S
C65 C66 1.317 . S
C66 H28 0.930 . S
C66 C34 1.432 . S
C66 C65 1.317 . S
C67 O51 1.283 . S
C67 O54 1.243 . S
C68 C69 1.382 . S
C68 C72 1.393 . S
C68 C75 1.500 . S
C69 C68 1.382 . S
C69 C70 1.400 . S
C69 H80 0.930 1_645 S
C70 C69 1.400 . S
C70 C71 1.384 . S
C71 C70 1.384 . S
C71 C73 1.392 . S
C71 H81 0.931 . S
C72 C68 1.393 . S
C72 C73 1.401 . S
C72 H82 0.930 . S
C73 C71 1.392 . S
C73 C72 1.401 . S
C73 H83 0.930 . S
C74 O52 1.262 . S
C74 O53 1.260 . S
C75 Tb11 2.833 . S
C75 O50 1.251 . S
C75 O55 1.256 1_655 S
C75 C68 1.500 . S
H76 C59 0.930 1_645 S
H77 C60 0.931 . S
H78 C61 0.930 . S
H79 C62 0.930 . S
H80 C69 0.930 1_465 S
H81 C71 0.931 . S
H82 C72 0.930 . S
H83 C73 0.930 . S
Tb84 N115 2.660 . S
Tb84 N122 2.600 . S
Tb84 O128 2.546 . S
Tb84 O129 2.610 . S
Tb84 O131 2.320 . S
Tb84 O132 2.552 . S
Tb84 O133 2.413 . S
Tb84 O135 2.362 . S
Tb84 O136 2.421 . S
Tb84 C148 2.833 . S
C85 C88 1.432 . S
C85 C89 1.414 . S
C85 N92 1.359 . S
C86 C88 1.417 . S
C86 C90 1.432 . S
C86 C98 1.410 . S
C87 C89 1.444 . S
C87 C90 1.317 . S
C87 H110 0.929 . S
C88 C85 1.432 . S
C88 C86 1.417 . S
C88 N96 1.360 . S
C89 C85 1.414 . S
C89 C87 1.444 . S
C89 C94 1.385 . S
C90 C86 1.432 . S
C90 C87 1.317 . S
C90 H102 0.930 . S
C91 C93 1.392 . S
C91 C94 1.370 . S
C91 H103 0.931 . S
N92 C85 1.359 . S
N92 C93 1.327 . S
N92 Tb95 2.600 . S
C93 C91 1.392 . S
C93 N92 1.327 . S
C93 H100 0.930 . S
C94 C89 1.385 . S
C94 C91 1.370 . S
C94 H113 0.930 . S
Tb95 N92 2.600 . S
Tb95 N96 2.660 . S
Tb95 O129 2.362 . S
Tb95 O130 2.421 . S
Tb95 O134 2.546 . S
Tb95 O135 2.610 . S
Tb95 O137 2.320 . S
Tb95 O138 2.552 . S
Tb95 O139 2.413 . S
Tb95 C159 2.833 . S
N96 C88 1.360 . S
N96 Tb95 2.660 . S
N96 C97 1.305 . S
C97 N96 1.305 . S
C97 C99 1.407 . S
C97 H104 0.930 . S
C98 C86 1.410 . S
C98 C99 1.345 . S
C98 H106 0.930 . S
C99 C97 1.407 . S
C99 C98 1.345 . S
C99 H101 0.930 . S
H100 C93 0.930 . S
H101 C99 0.930 . S
H102 C90 0.930 . S
H103 C91 0.931 . S
H104 C97 0.930 . S
H105 C119 0.930 . S
H106 C98 0.930 . S
H107 C125 0.930 . S
H108 C116 0.930 . S
H109 C123 0.931 . S
H110 C87 0.929 . S
H111 C117 0.930 . S
H112 C150 0.930 . S
H113 C94 0.930 . S
H114 C149 0.929 . S
N115 Tb84 2.660 . S
N115 C116 1.305 . S
N115 C120 1.360 . S
C116 H108 0.930 . S
C116 N115 1.305 . S
C116 C119 1.407 . S
C117 H111 0.930 . S
C117 C118 1.410 . S
C117 C119 1.345 . S
C118 C117 1.410 . S
C118 C120 1.417 . S
C118 C150 1.432 . S
C119 H105 0.930 . S
C119 C116 1.407 . S
C119 C117 1.345 . S
C120 N115 1.360 . S
C120 C118 1.417 . S
C120 C124 1.432 . S
H121 C126 0.930 . S
N122 Tb84 2.600 . S
N122 C124 1.359 . S
N122 C125 1.327 . S
C123 H109 0.931 . S
C123 C125 1.392 . S
C123 C126 1.370 . S
C124 C120 1.432 . S
C124 N122 1.359 . S
C124 C127 1.414 . S
C125 H107 0.930 . S
C125 N122 1.327 . S
C125 C123 1.392 . S
C126 H121 0.930 . S
C126 C123 1.370 . S
C126 C127 1.385 . S
C127 C124 1.414 . S
C127 C126 1.385 . S
C127 C149 1.444 . S
O128 Tb84 2.546 . S
O128 C148 1.251 . S
O129 Tb84 2.610 . S
O129 Tb95 2.362 . S
O129 C140 1.283 . S
O130 Tb95 2.421 . S
O130 C147 1.262 . S
O131 Tb84 2.320 . S
O131 C147 1.260 . S
O132 Tb84 2.552 . S
O132 C140 1.243 . S
O133 Tb84 2.413 . S
O133 C148 1.256 . S
O134 Tb95 2.546 . S
O134 C159 1.251 . S
O135 Tb84 2.362 . S
O135 Tb95 2.610 . S
O135 C151 1.283 . S
O136 Tb84 2.421 . S
O136 C158 1.262 . S
O137 Tb95 2.320 . S
O137 C158 1.260 . S
O138 Tb95 2.552 . S
O138 C151 1.243 . S
O139 Tb95 2.413 . S
O139 C159 1.256 . S
C140 O129 1.283 . S
C140 O132 1.243 . S
C141 C143 1.382 . S
C141 C145 1.393 . S
C141 C148 1.500 . S
C142 C143 1.400 . S
C142 C144 1.384 . S
C143 C141 1.382 . S
C143 C142 1.400 . S
C143 H160 0.930 . S
C144 C142 1.384 . S
C144 C146 1.392 . S
C144 H161 0.931 . S
C145 C141 1.393 . S
C145 C146 1.401 . S
C145 H162 0.930 . S
C146 C144 1.392 . S
C146 C145 1.401 . S
C146 H163 0.930 . S
C147 O130 1.262 . S
C147 O131 1.260 . S
C148 Tb84 2.833 . S
C148 O128 1.251 . S
C148 O133 1.256 . S
C148 C141 1.500 . S
C149 H114 0.929 . S
C149 C127 1.444 . S
C149 C150 1.317 . S
C150 H112 0.930 . S
C150 C118 1.432 . S
C150 C149 1.317 . S
C151 O135 1.283 . S
C151 O138 1.243 . S
C152 C153 1.382 1_556 S
C152 C156 1.393 1_556 S
C152 C159 1.500 . S
C153 C152 1.382 1_554 S
C153 C154 1.400 . S
C153 H164 0.930 1_554 S
C154 C153 1.400 . S
C154 C155 1.384 . S
C155 C154 1.384 . S
C155 C157 1.392 . S
C155 H165 0.931 . S
C156 C152 1.393 1_554 S
C156 C157 1.401 . S
C156 H166 0.930 1_554 S
C157 C155 1.392 . S
C157 C156 1.401 . S
C157 H167 0.930 . S
C158 O136 1.262 . S
C158 O137 1.260 . S
C159 Tb95 2.833 . S
C159 O134 1.251 . S
C159 O139 1.256 . S
C159 C152 1.500 . S
H160 C143 0.930 . S
H161 C144 0.931 . S
H162 C145 0.930 . S
H163 C146 0.930 . S
H164 C153 0.930 1_556 S
H165 C155 0.931 . S
H166 C156 0.930 1_556 S
H167 C157 0.930 . S
Tb168 N199 2.660 . S
Tb168 N206 2.600 . S
Tb168 O212 2.546 . S
Tb168 O213 2.610 1_565 S
Tb168 O215 2.320 1_565 S
Tb168 O216 2.552 1_565 S
Tb168 O217 2.413 . S
Tb168 O219 2.362 1_554 S
Tb168 O220 2.421 . S
Tb168 C232 2.833 . S
C169 C172 1.432 . S
C169 C173 1.414 . S
C169 N176 1.359 . S
C170 C172 1.417 . S
C170 C174 1.432 . S
C170 C182 1.410 . S
C171 C173 1.444 . S
C171 C174 1.317 . S
C171 H194 0.929 . S
C172 C169 1.432 . S
C172 C170 1.417 . S
C172 N180 1.360 . S
C173 C169 1.414 . S
C173 C171 1.444 . S
C173 C178 1.385 . S
C174 C170 1.432 . S
C174 C171 1.317 . S
C174 H186 0.930 . S
C175 C177 1.392 . S
C175 C178 1.370 . S
C175 H187 0.931 . S
N176 C169 1.359 . S
N176 C177 1.327 . S
N176 Tb179 2.600 . S
C177 C175 1.392 . S
C177 N176 1.327 . S
C177 H184 0.930 . S
C178 C173 1.385 . S
C178 C175 1.370 . S
C178 H197 0.930 . S
Tb179 N176 2.600 . S
Tb179 N180 2.660 . S
Tb179 O213 2.362 1_556 S
Tb179 O214 2.421 . S
Tb179 O218 2.546 . S
Tb179 O219 2.610 1_545 S
Tb179 O221 2.320 1_545 S
Tb179 O222 2.552 1_545 S
Tb179 O223 2.413 . S
Tb179 C243 2.833 . S
N180 C172 1.360 . S
N180 Tb179 2.660 . S
N180 C181 1.305 . S
C181 N180 1.305 . S
C181 C183 1.407 . S
C181 H188 0.930 . S
C182 C170 1.410 . S
C182 C183 1.345 . S
C182 H190 0.930 . S
C183 C181 1.407 . S
C183 C182 1.345 . S
C183 H185 0.930 . S
H184 C177 0.930 . S
H185 C183 0.930 . S
H186 C174 0.930 . S
H187 C175 0.931 . S
H188 C181 0.930 . S
H189 C203 0.930 . S
H190 C182 0.930 . S
H191 C209 0.930 . S
H192 C200 0.930 . S
H193 C207 0.931 . S
H194 C171 0.929 . S
H195 C201 0.930 . S
H196 C234 0.930 . S
H197 C178 0.930 . S
H198 C233 0.929 . S
N199 Tb168 2.660 . S
N199 C200 1.305 . S
N199 C204 1.360 . S
C200 H192 0.930 . S
C200 N199 1.305 . S
C200 C203 1.407 . S
C201 H195 0.930 . S
C201 C202 1.410 . S
C201 C203 1.345 . S
C202 C201 1.410 . S
C202 C204 1.417 . S
C202 C234 1.432 . S
C203 H189 0.930 . S
C203 C200 1.407 . S
C203 C201 1.345 . S
C204 N199 1.360 . S
C204 C202 1.417 . S
C204 C208 1.432 . S
H205 C210 0.930 . S
N206 Tb168 2.600 . S
N206 C208 1.359 . S
N206 C209 1.327 . S
C207 H193 0.931 . S
C207 C209 1.392 . S
C207 C210 1.370 . S
C208 C204 1.432 . S
C208 N206 1.359 . S
C208 C211 1.414 . S
C209 H191 0.930 . S
C209 N206 1.327 . S
C209 C207 1.392 . S
C210 H205 0.930 . S
C210 C207 1.370 . S
C210 C211 1.385 . S
C211 C208 1.414 . S
C211 C210 1.385 . S
C211 C233 1.444 . S
O212 Tb168 2.546 . S
O212 C232 1.251 . S
O213 Tb168 2.610 1_545 S
O213 Tb179 2.362 1_554 S
O213 C224 1.283 . S
O214 Tb179 2.421 . S
O214 C231 1.262 1_556 S
O215 Tb168 2.320 1_545 S
O215 C231 1.260 . S
O216 Tb168 2.552 1_545 S
O216 C224 1.243 . S
O217 Tb168 2.413 . S
O217 C232 1.256 . S
O218 Tb179 2.546 . S
O218 C243 1.251 . S
O219 Tb168 2.362 1_556 S
O219 Tb179 2.610 1_565 S
O219 C235 1.283 . S
O220 Tb168 2.421 . S
O220 C242 1.262 1_554 S
O221 Tb179 2.320 1_565 S
O221 C242 1.260 . S
O222 Tb179 2.552 1_565 S
O222 C235 1.243 . S
O223 Tb179 2.413 . S
O223 C243 1.256 . S
C224 O213 1.283 . S
C224 O216 1.243 . S
C225 C227 1.382 . S
C225 C229 1.393 . S
C225 C232 1.500 . S
C226 C227 1.400 . S
C226 C228 1.384 . S
C227 C225 1.382 . S
C227 C226 1.400 . S
C227 H244 0.930 1_565 S
C228 C226 1.384 . S
C228 C230 1.392 . S
C228 H245 0.931 . S
C229 C225 1.393 . S
C229 C230 1.401 . S
C229 H246 0.930 . S
C230 C228 1.392 . S
C230 C229 1.401 . S
C230 H247 0.930 . S
C231 O214 1.262 1_554 S
C231 O215 1.260 . S
C232 Tb168 2.833 . S
C232 O212 1.251 . S
C232 O217 1.256 . S
C232 C225 1.500 . S
C233 H198 0.929 . S
C233 C211 1.444 . S
C233 C234 1.317 . S
C234 H196 0.930 . S
C234 C202 1.432 . S
C234 C233 1.317 . S
C235 O219 1.283 . S
C235 O222 1.243 . S
C236 C237 1.382 . S
C236 C240 1.393 . S
C236 C243 1.500 . S
C237 C236 1.382 . S
C237 C238 1.400 . S
C237 H248 0.930 1_545 S
C238 C237 1.400 . S
C238 C239 1.384 . S
C239 C238 1.384 . S
C239 C241 1.392 . S
C239 H249 0.931 . S
C240 C236 1.393 . S
C240 C241 1.401 . S
C240 H250 0.930 . S
C241 C239 1.392 . S
C241 C240 1.401 . S
C241 H251 0.930 . S
C242 O220 1.262 1_556 S
C242 O221 1.260 . S
C243 Tb179 2.833 . S
C243 O218 1.251 . S
C243 O223 1.256 . S
C243 C236 1.500 . S
H244 C227 0.930 1_545 S
H245 C228 0.931 . S
H246 C229 0.930 . S
H247 C230 0.930 . S
H248 C237 0.930 1_565 S
H249 C239 0.931 . S
H250 C240 0.930 . S
H251 C241 0.930 . S
Tb252 N283 2.660 . S
Tb252 N290 2.600 . S
Tb252 O296 2.546 . S
Tb252 O297 2.610 . S
Tb252 O299 2.320 . S
Tb252 O300 2.552 . S
Tb252 O301 2.413 . S
Tb252 O303 2.362 . S
Tb252 O304 2.421 . S
Tb252 C316 2.833 . S
C253 C256 1.432 . S
C253 C257 1.414 . S
C253 N260 1.359 . S
C254 C256 1.417 . S
C254 C258 1.432 . S
C254 C266 1.410 . S
C255 C257 1.444 . S
C255 C258 1.317 . S
C255 H278 0.929 . S
C256 C253 1.432 . S
C256 C254 1.417 . S
C256 N264 1.360 . S
C257 C253 1.414 . S
C257 C255 1.444 . S
C257 C262 1.385 . S
C258 C254 1.432 . S
C258 C255 1.317 . S
C258 H270 0.930 . S
C259 C261 1.392 . S
C259 C262 1.370 . S
C259 H271 0.931 . S
N260 C253 1.359 . S
N260 C261 1.327 . S
N260 Tb263 2.600 . S
C261 C259 1.392 . S
C261 N260 1.327 . S
C261 H268 0.930 . S
C262 C257 1.385 . S
C262 C259 1.370 . S
C262 H281 0.930 . S
Tb263 N260 2.600 . S
Tb263 N264 2.660 . S
Tb263 O297 2.362 . S
Tb263 O298 2.421 . S
Tb263 O302 2.546 . S
Tb263 O303 2.610 . S
Tb263 O305 2.320 . S
Tb263 O306 2.552 . S
Tb263 O307 2.413 . S
Tb263 C327 2.833 . S
N264 C256 1.360 . S
N264 Tb263 2.660 . S
N264 C265 1.305 . S
C265 N264 1.305 . S
C265 C267 1.407 . S
C265 H272 0.930 . S
C266 C254 1.410 . S
C266 C267 1.345 . S
C266 H274 0.930 . S
C267 C265 1.407 . S
C267 C266 1.345 . S
C267 H269 0.930 . S
H268 C261 0.930 . S
H269 C267 0.930 . S
H270 C258 0.930 . S
H271 C259 0.931 . S
H272 C265 0.930 . S
H273 C287 0.930 . S
H274 C266 0.930 . S
H275 C293 0.930 . S
H276 C284 0.930 . S
H277 C291 0.931 . S
H278 C255 0.929 . S
H279 C285 0.930 . S
H280 C318 0.930 . S
H281 C262 0.930 . S
H282 C317 0.929 . S
N283 Tb252 2.660 . S
N283 C284 1.305 . S
N283 C288 1.360 . S
C284 H276 0.930 . S
C284 N283 1.305 . S
C284 C287 1.407 . S
C285 H279 0.930 . S
C285 C286 1.410 . S
C285 C287 1.345 . S
C286 C285 1.410 . S
C286 C288 1.417 . S
C286 C318 1.432 . S
C287 H273 0.930 . S
C287 C284 1.407 . S
C287 C285 1.345 . S
C288 N283 1.360 . S
C288 C286 1.417 . S
C288 C292 1.432 . S
H289 C294 0.930 . S
N290 Tb252 2.600 . S
N290 C292 1.359 . S
N290 C293 1.327 . S
C291 H277 0.931 . S
C291 C293 1.392 . S
C291 C294 1.370 . S
C292 C288 1.432 . S
C292 N290 1.359 . S
C292 C295 1.414 . S
C293 H275 0.930 . S
C293 N290 1.327 . S
C293 C291 1.392 . S
C294 H289 0.930 . S
C294 C291 1.370 . S
C294 C295 1.385 . S
C295 C292 1.414 . S
C295 C294 1.385 . S
C295 C317 1.444 . S
O296 Tb252 2.546 . S
O296 C316 1.251 . S
O297 Tb252 2.610 . S
O297 Tb263 2.362 . S
O297 C308 1.283 . S
O298 Tb263 2.421 . S
O298 C315 1.262 . S
O299 Tb252 2.320 . S
O299 C315 1.260 . S
O300 Tb252 2.552 . S
O300 C308 1.243 . S
O301 Tb252 2.413 . S
O301 C316 1.256 . S
O302 Tb263 2.546 . S
O302 C327 1.251 . S
O303 Tb252 2.362 . S
O303 Tb263 2.610 . S
O303 C319 1.283 . S
O304 Tb252 2.421 . S
O304 C326 1.262 . S
O305 Tb263 2.320 . S
O305 C326 1.260 . S
O306 Tb263 2.552 . S
O306 C319 1.243 . S
O307 Tb263 2.413 . S
O307 C327 1.256 . S
C308 O297 1.283 . S
C308 O300 1.243 . S
C309 C311 1.382 . S
C309 C313 1.393 . S
C309 C316 1.500 . S
C310 C311 1.400 . S
C310 C312 1.384 . S
C311 C309 1.382 . S
C311 C310 1.400 . S
C311 H328 0.930 . S
C312 C310 1.384 . S
C312 C314 1.392 . S
C312 H329 0.931 . S
C313 C309 1.393 . S
C313 C314 1.401 . S
C313 H330 0.930 . S
C314 C312 1.392 . S
C314 C313 1.401 . S
C314 H331 0.930 . S
C315 O298 1.262 . S
C315 O299 1.260 . S
C316 Tb252 2.833 . S
C316 O296 1.251 . S
C316 O301 1.256 . S
C316 C309 1.500 . S
C317 H282 0.929 . S
C317 C295 1.444 . S
C317 C318 1.317 . S
C318 H280 0.930 . S
C318 C286 1.432 . S
C318 C317 1.317 . S
C319 O303 1.283 . S
C319 O306 1.243 . S
C320 C321 1.382 1_554 S
C320 C324 1.393 1_554 S
C320 C327 1.500 . S
C321 C320 1.382 1_556 S
C321 C322 1.400 . S
C321 H332 0.930 1_556 S
C322 C321 1.400 . S
C322 C323 1.384 . S
C323 C322 1.384 . S
C323 C325 1.392 . S
C323 H333 0.931 . S
C324 C320 1.393 1_556 S
C324 C325 1.401 . S
C324 H334 0.930 1_556 S
C325 C323 1.392 . S
C325 C324 1.401 . S
C325 H335 0.930 . S
C326 O304 1.262 . S
C326 O305 1.260 . S
C327 Tb263 2.833 . S
C327 O302 1.251 . S
C327 O307 1.256 . S
C327 C320 1.500 . S
H328 C311 0.930 . S
H329 C312 0.931 . S
H330 C313 0.930 . S
H331 C314 0.930 . S
H332 C321 0.930 1_554 S
H333 C323 0.931 . S
H334 C324 0.930 1_554 S
H335 C325 0.930 . S
Tb336 N367 2.660 . S
Tb336 N374 2.600 . S
Tb336 O380 2.546 . S
Tb336 O381 2.610 . S
Tb336 O383 2.320 . S
Tb336 O384 2.552 . S
Tb336 O385 2.413 . S
Tb336 O387 2.362 . S
Tb336 O388 2.421 . S
Tb336 C400 2.833 . S
C337 C340 1.432 . S
C337 C341 1.414 . S
C337 N344 1.359 . S
C338 C340 1.417 . S
C338 C342 1.432 . S
C338 C350 1.410 . S
C339 C341 1.444 . S
C339 C342 1.317 . S
C339 H362 0.929 . S
C340 C337 1.432 . S
C340 C338 1.417 . S
C340 N348 1.360 . S
C341 C337 1.414 . S
C341 C339 1.444 . S
C341 C346 1.385 . S
C342 C338 1.432 . S
C342 C339 1.317 . S
C342 H354 0.930 . S
C343 C345 1.392 . S
C343 C346 1.370 . S
C343 H355 0.931 . S
N344 C337 1.359 . S
N344 C345 1.327 . S
N344 Tb347 2.600 . S
C345 C343 1.392 . S
C345 N344 1.327 . S
C345 H352 0.930 . S
C346 C341 1.385 . S
C346 C343 1.370 . S
C346 H365 0.930 . S
Tb347 N344 2.600 . S
Tb347 N348 2.660 . S
Tb347 O381 2.362 . S
Tb347 O382 2.421 . S
Tb347 O386 2.546 . S
Tb347 O387 2.610 . S
Tb347 O389 2.320 . S
Tb347 O390 2.552 . S
Tb347 O391 2.413 . S
Tb347 C411 2.833 . S
N348 C340 1.360 . S
N348 Tb347 2.660 . S
N348 C349 1.305 . S
C349 N348 1.305 . S
C349 C351 1.407 . S
C349 H356 0.930 . S
C350 C338 1.410 . S
C350 C351 1.345 . S
C350 H358 0.930 . S
C351 C349 1.407 . S
C351 C350 1.345 . S
C351 H353 0.930 . S
H352 C345 0.930 . S
H353 C351 0.930 . S
H354 C342 0.930 . S
H355 C343 0.931 . S
H356 C349 0.930 . S
H357 C371 0.930 . S
H358 C350 0.930 . S
H359 C377 0.930 . S
H360 C368 0.930 . S
H361 C375 0.931 . S
H362 C339 0.929 . S
H363 C369 0.930 . S
H364 C402 0.930 . S
H365 C346 0.930 . S
H366 C401 0.929 . S
N367 Tb336 2.660 . S
N367 C368 1.305 . S
N367 C372 1.360 . S
C368 H360 0.930 . S
C368 N367 1.305 . S
C368 C371 1.407 . S
C369 H363 0.930 . S
C369 C370 1.410 . S
C369 C371 1.345 . S
C370 C369 1.410 . S
C370 C372 1.417 . S
C370 C402 1.432 . S
C371 H357 0.930 . S
C371 C368 1.407 . S
C371 C369 1.345 . S
C372 N367 1.360 . S
C372 C370 1.417 . S
C372 C376 1.432 . S
H373 C378 0.930 . S
N374 Tb336 2.600 . S
N374 C376 1.359 . S
N374 C377 1.327 . S
C375 H361 0.931 . S
C375 C377 1.392 . S
C375 C378 1.370 . S
C376 C372 1.432 . S
C376 N374 1.359 . S
C376 C379 1.414 . S
C377 H359 0.930 . S
C377 N374 1.327 . S
C377 C375 1.392 . S
C378 H373 0.930 . S
C378 C375 1.370 . S
C378 C379 1.385 . S
C379 C376 1.414 . S
C379 C378 1.385 . S
C379 C401 1.444 . S
O380 Tb336 2.546 . S
O380 C400 1.251 . S
O381 Tb336 2.610 . S
O381 Tb347 2.362 . S
O381 C392 1.283 . S
O382 Tb347 2.421 . S
O382 C399 1.262 . S
O383 Tb336 2.320 . S
O383 C399 1.260 . S
O384 Tb336 2.552 . S
O384 C392 1.243 . S
O385 Tb336 2.413 . S
O385 C400 1.256 . S
O386 Tb347 2.546 . S
O386 C411 1.251 . S
O387 Tb336 2.362 . S
O387 Tb347 2.610 . S
O387 C403 1.283 . S
O388 Tb336 2.421 . S
O388 C410 1.262 . S
O389 Tb347 2.320 . S
O389 C410 1.260 . S
O390 Tb347 2.552 . S
O390 C403 1.243 . S
O391 Tb347 2.413 . S
O391 C411 1.256 . S
C392 O381 1.283 . S
C392 O384 1.243 . S
C393 C395 1.382 1_554 S
C393 C397 1.393 1_554 S
C393 C400 1.500 . S
C394 C395 1.400 . S
C394 C396 1.384 . S
C395 C393 1.382 1_556 S
C395 C394 1.400 . S
C395 H412 0.930 1_556 S
C396 C394 1.384 . S
C396 C398 1.392 . S
C396 H413 0.931 . S
C397 C393 1.393 1_556 S
C397 C398 1.401 . S
C397 H414 0.930 1_556 S
C398 C396 1.392 . S
C398 C397 1.401 . S
C398 H415 0.930 . S
C399 O382 1.262 . S
C399 O383 1.260 . S
C400 Tb336 2.833 . S
C400 O380 1.251 . S
C400 O385 1.256 . S
C400 C393 1.500 . S
C401 H366 0.929 . S
C401 C379 1.444 . S
C401 C402 1.317 . S
C402 H364 0.930 . S
C402 C370 1.432 . S
C402 C401 1.317 . S
C403 O387 1.283 . S
C403 O390 1.243 . S
C404 C405 1.382 . S
C404 C408 1.393 . S
C404 C411 1.500 . S
C405 C404 1.382 . S
C405 C406 1.400 . S
C405 H416 0.930 . S
C406 C405 1.400 . S
C406 C407 1.384 . S
C407 C406 1.384 . S
C407 C409 1.392 . S
C407 H417 0.931 . S
C408 C404 1.393 . S
C408 C409 1.401 . S
C408 H418 0.930 . S
C409 C407 1.392 . S
C409 C408 1.401 . S
C409 H419 0.930 . S
C410 O388 1.262 . S
C410 O389 1.260 . S
C411 Tb347 2.833 . S
C411 O386 1.251 . S
C411 O391 1.256 . S
C411 C404 1.500 . S
H412 C395 0.930 1_554 S
H413 C396 0.931 . S
H414 C397 0.930 1_554 S
H415 C398 0.930 . S
H416 C405 0.930 . S
H417 C407 0.931 . S
H418 C408 0.930 . S
H419 C409 0.930 . S
Tb420 N451 2.660 . S
Tb420 N458 2.600 . S
Tb420 O464 2.546 . S
Tb420 O465 2.610 . S
Tb420 O467 2.320 . S
Tb420 O468 2.552 . S
Tb420 O469 2.413 . S
Tb420 O471 2.362 . S
Tb420 O472 2.421 . S
Tb420 C484 2.833 . S
C421 C424 1.432 . S
C421 C425 1.414 . S
C421 N428 1.359 . S
C422 C424 1.417 . S
C422 C426 1.432 . S
C422 C434 1.410 . S
C423 C425 1.444 . S
C423 C426 1.317 . S
C423 H446 0.929 . S
C424 C421 1.432 . S
C424 C422 1.417 . S
C424 N432 1.360 . S
C425 C421 1.414 . S
C425 C423 1.444 . S
C425 C430 1.385 . S
C426 C422 1.432 . S
C426 C423 1.317 . S
C426 H438 0.930 . S
C427 C429 1.392 . S
C427 C430 1.370 . S
C427 H439 0.931 . S
N428 C421 1.359 . S
N428 C429 1.327 . S
N428 Tb431 2.600 . S
C429 C427 1.392 . S
C429 N428 1.327 . S
C429 H436 0.930 . S
C430 C425 1.385 . S
C430 C427 1.370 . S
C430 H449 0.930 . S
Tb431 N428 2.600 . S
Tb431 N432 2.660 . S
Tb431 O465 2.362 . S
Tb431 O466 2.421 . S
Tb431 O470 2.546 . S
Tb431 O471 2.610 . S
Tb431 O473 2.320 . S
Tb431 O474 2.552 . S
Tb431 O475 2.413 . S
Tb431 C495 2.833 . S
N432 C424 1.360 . S
N432 Tb431 2.660 . S
N432 C433 1.305 . S
C433 N432 1.305 . S
C433 C435 1.407 . S
C433 H440 0.930 . S
C434 C422 1.410 . S
C434 C435 1.345 . S
C434 H442 0.930 . S
C435 C433 1.407 . S
C435 C434 1.345 . S
C435 H437 0.930 . S
H436 C429 0.930 . S
H437 C435 0.930 . S
H438 C426 0.930 . S
H439 C427 0.931 . S
H440 C433 0.930 . S
H441 C455 0.930 . S
H442 C434 0.930 . S
H443 C461 0.930 . S
H444 C452 0.930 . S
H445 C459 0.931 . S
H446 C423 0.929 . S
H447 C453 0.930 . S
H448 C486 0.930 . S
H449 C430 0.930 . S
H450 C485 0.929 . S
N451 Tb420 2.660 . S
N451 C452 1.305 . S
N451 C456 1.360 . S
C452 H444 0.930 . S
C452 N451 1.305 . S
C452 C455 1.407 . S
C453 H447 0.930 . S
C453 C454 1.410 . S
C453 C455 1.345 . S
C454 C453 1.410 . S
C454 C456 1.417 . S
C454 C486 1.432 . S
C455 H441 0.930 . S
C455 C452 1.407 . S
C455 C453 1.345 . S
C456 N451 1.360 . S
C456 C454 1.417 . S
C456 C460 1.432 . S
H457 C462 0.930 . S
N458 Tb420 2.600 . S
N458 C460 1.359 . S
N458 C461 1.327 . S
C459 H445 0.931 . S
C459 C461 1.392 . S
C459 C462 1.370 . S
C460 C456 1.432 . S
C460 N458 1.359 . S
C460 C463 1.414 . S
C461 H443 0.930 . S
C461 N458 1.327 . S
C461 C459 1.392 . S
C462 H457 0.930 . S
C462 C459 1.370 . S
C462 C463 1.385 . S
C463 C460 1.414 . S
C463 C462 1.385 . S
C463 C485 1.444 . S
O464 Tb420 2.546 . S
O464 C484 1.251 . S
O465 Tb420 2.610 . S
O465 Tb431 2.362 . S
O465 C476 1.283 . S
O466 Tb431 2.421 . S
O466 C483 1.262 . S
O467 Tb420 2.320 . S
O467 C483 1.260 . S
O468 Tb420 2.552 . S
O468 C476 1.243 . S
O469 Tb420 2.413 . S
O469 C484 1.256 . S
O470 Tb431 2.546 . S
O470 C495 1.251 . S
O471 Tb420 2.362 . S
O471 Tb431 2.610 . S
O471 C487 1.283 . S
O472 Tb420 2.421 . S
O472 C494 1.262 . S
O473 Tb431 2.320 . S
O473 C494 1.260 . S
O474 Tb431 2.552 . S
O474 C487 1.243 . S
O475 Tb431 2.413 . S
O475 C495 1.256 . S
C476 O465 1.283 . S
C476 O468 1.243 . S
C477 C479 1.382 1_556 S
C477 C481 1.393 1_556 S
C477 C484 1.500 . S
C478 C479 1.400 . S
C478 C480 1.384 . S
C479 C477 1.382 1_554 S
C479 C478 1.400 . S
C479 H496 0.930 1_554 S
C480 C478 1.384 . S
C480 C482 1.392 . S
C480 H497 0.931 . S
C481 C477 1.393 1_554 S
C481 C482 1.401 . S
C481 H498 0.930 1_554 S
C482 C480 1.392 . S
C482 C481 1.401 . S
C482 H499 0.930 . S
C483 O466 1.262 . S
C483 O467 1.260 . S
C484 Tb420 2.833 . S
C484 O464 1.251 . S
C484 O469 1.256 . S
C484 C477 1.500 . S
C485 H450 0.929 . S
C485 C463 1.444 . S
C485 C486 1.317 . S
C486 H448 0.930 . S
C486 C454 1.432 . S
C486 C485 1.317 . S
C487 O471 1.283 . S
C487 O474 1.243 . S
C488 C489 1.382 . S
C488 C492 1.393 . S
C488 C495 1.500 . S
C489 C488 1.382 . S
C489 C490 1.400 . S
C489 H500 0.930 . S
C490 C489 1.400 . S
C490 C491 1.384 . S
C491 C490 1.384 . S
C491 C493 1.392 . S
C491 H501 0.931 . S
C492 C488 1.393 . S
C492 C493 1.401 . S
C492 H502 0.930 . S
C493 C491 1.392 . S
C493 C492 1.401 . S
C493 H503 0.930 . S
C494 O472 1.262 . S
C494 O473 1.260 . S
C495 Tb431 2.833 . S
C495 O470 1.251 . S
C495 O475 1.256 . S
C495 C488 1.500 . S
H496 C479 0.930 1_556 S
H497 C480 0.931 . S
H498 C481 0.930 1_556 S
H499 C482 0.930 . S
H500 C489 0.930 . S
H501 C491 0.931 . S
H502 C492 0.930 . S
H503 C493 0.930 . S
Tb504 N535 2.660 . S
Tb504 N542 2.600 . S
Tb504 O548 2.546 . S
Tb504 O549 2.610 . S
Tb504 O551 2.320 . S
Tb504 O552 2.552 . S
Tb504 O553 2.413 . S
Tb504 O555 2.362 1_556 S
Tb504 O556 2.421 . S
Tb504 C568 2.833 . S
C505 C508 1.432 . S
C505 C509 1.414 . S
C505 N512 1.359 . S
C506 C508 1.417 . S
C506 C510 1.432 . S
C506 C518 1.410 . S
C507 C509 1.444 . S
C507 C510 1.317 . S
C507 H530 0.929 . S
C508 C505 1.432 . S
C508 C506 1.417 . S
C508 N516 1.360 . S
C509 C505 1.414 . S
C509 C507 1.444 . S
C509 C514 1.385 . S
C510 C506 1.432 . S
C510 C507 1.317 . S
C510 H522 0.930 . S
C511 C513 1.392 . S
C511 C514 1.370 . S
C511 H523 0.931 . S
N512 C505 1.359 . S
N512 C513 1.327 . S
N512 Tb515 2.600 . S
C513 C511 1.392 . S
C513 N512 1.327 . S
C513 H520 0.930 . S
C514 C509 1.385 . S
C514 C511 1.370 . S
C514 H533 0.930 . S
Tb515 N512 2.600 . S
Tb515 N516 2.660 . S
Tb515 O549 2.362 1_554 S
Tb515 O550 2.421 . S
Tb515 O554 2.546 . S
Tb515 O555 2.610 . S
Tb515 O557 2.320 . S
Tb515 O558 2.552 . S
Tb515 O559 2.413 . S
Tb515 C579 2.833 . S
N516 C508 1.360 . S
N516 Tb515 2.660 . S
N516 C517 1.305 . S
C517 N516 1.305 . S
C517 C519 1.407 . S
C517 H524 0.930 . S
C518 C506 1.410 . S
C518 C519 1.345 . S
C518 H526 0.930 . S
C519 C517 1.407 . S
C519 C518 1.345 . S
C519 H521 0.930 . S
H520 C513 0.930 . S
H521 C519 0.930 . S
H522 C510 0.930 . S
H523 C511 0.931 . S
H524 C517 0.930 . S
H525 C539 0.930 . S
H526 C518 0.930 . S
H527 C545 0.930 . S
H528 C536 0.930 . S
H529 C543 0.931 . S
H530 C507 0.929 . S
H531 C537 0.930 . S
H532 C570 0.930 . S
H533 C514 0.930 . S
H534 C569 0.929 . S
N535 Tb504 2.660 . S
N535 C536 1.305 . S
N535 C540 1.360 . S
C536 H528 0.930 . S
C536 N535 1.305 . S
C536 C539 1.407 . S
C537 H531 0.930 . S
C537 C538 1.410 . S
C537 C539 1.345 . S
C538 C537 1.410 . S
C538 C540 1.417 . S
C538 C570 1.432 . S
C539 H525 0.930 . S
C539 C536 1.407 . S
C539 C537 1.345 . S
C540 N535 1.360 . S
C540 C538 1.417 . S
C540 C544 1.432 . S
H541 C546 0.930 . S
N542 Tb504 2.600 . S
N542 C544 1.359 . S
N542 C545 1.327 . S
C543 H529 0.931 . S
C543 C545 1.392 . S
C543 C546 1.370 . S
C544 C540 1.432 . S
C544 N542 1.359 . S
C544 C547 1.414 . S
C545 H527 0.930 . S
C545 N542 1.327 . S
C545 C543 1.392 . S
C546 H541 0.930 . S
C546 C543 1.370 . S
C546 C547 1.385 . S
C547 C544 1.414 . S
C547 C546 1.385 . S
C547 C569 1.444 . S
O548 Tb504 2.546 . S
O548 C568 1.251 . S
O549 Tb504 2.610 . S
O549 Tb515 2.362 1_556 S
O549 C560 1.283 . S
O550 Tb515 2.421 . S
O550 C567 1.262 1_554 S
O551 Tb504 2.320 . S
O551 C567 1.260 . S
O552 Tb504 2.552 . S
O552 C560 1.243 . S
O553 Tb504 2.413 . S
O553 C568 1.256 . S
O554 Tb515 2.546 . S
O554 C579 1.251 . S
O555 Tb504 2.362 1_554 S
O555 Tb515 2.610 . S
O555 C571 1.283 . S
O556 Tb504 2.421 . S
O556 C578 1.262 1_556 S
O557 Tb515 2.320 . S
O557 C578 1.260 . S
O558 Tb515 2.552 . S
O558 C571 1.243 . S
O559 Tb515 2.413 . S
O559 C579 1.256 . S
C560 O549 1.283 . S
C560 O552 1.243 . S
C561 C563 1.382 . S
C561 C565 1.393 . S
C561 C568 1.500 . S
C562 C563 1.400 . S
C562 C564 1.384 . S
C563 C561 1.382 . S
C563 C562 1.400 . S
C563 H580 0.930 . S
C564 C562 1.384 . S
C564 C566 1.392 . S
C564 H581 0.931 . S
C565 C561 1.393 . S
C565 C566 1.401 . S
C565 H582 0.930 . S
C566 C564 1.392 . S
C566 C565 1.401 . S
C566 H583 0.930 . S
C567 O550 1.262 1_556 S
C567 O551 1.260 . S
C568 Tb504 2.833 . S
C568 O548 1.251 . S
C568 O553 1.256 . S
C568 C561 1.500 . S
C569 H534 0.929 . S
C569 C547 1.444 . S
C569 C570 1.317 . S
C570 H532 0.930 . S
C570 C538 1.432 . S
C570 C569 1.317 . S
C571 O555 1.283 . S
C571 O558 1.243 . S
C572 C573 1.382 . S
C572 C576 1.393 . S
C572 C579 1.500 . S
C573 C572 1.382 . S
C573 C574 1.400 . S
C573 H584 0.930 . S
C574 C573 1.400 . S
C574 C575 1.384 . S
C575 C574 1.384 . S
C575 C577 1.392 . S
C575 H585 0.931 . S
C576 C572 1.393 . S
C576 C577 1.401 . S
C576 H586 0.930 . S
C577 C575 1.392 . S
C577 C576 1.401 . S
C577 H587 0.930 . S
C578 O556 1.262 1_554 S
C578 O557 1.260 . S
C579 Tb515 2.833 . S
C579 O554 1.251 . S
C579 O559 1.256 . S
C579 C572 1.500 . S
H580 C563 0.930 . S
H581 C564 0.931 . S
H582 C565 0.930 . S
H583 C566 0.930 . S
H584 C573 0.930 . S
H585 C575 0.931 . S
H586 C576 0.930 . S
H587 C577 0.930 . S
Tb588 N619 2.659 1_655 S
Tb588 N626 2.600 1_655 S
Tb588 O632 2.546 . S
Tb588 O633 2.610 . S
Tb588 O635 2.319 1_655 S
Tb588 O636 2.552 . S
Tb588 O637 2.413 1_655 S
Tb588 O639 2.361 1_655 S
Tb588 O640 2.421 . S
Tb588 C652 2.833 . S
C589 C592 1.432 . S
C589 C593 1.414 . S
C589 N596 1.359 . S
C590 C592 1.417 . S
C590 C594 1.432 . S
C590 C602 1.410 . S
C591 C593 1.444 . S
C591 C594 1.317 . S
C591 H614 0.929 . S
C592 C589 1.432 . S
C592 C590 1.417 . S
C592 N600 1.360 . S
C593 C589 1.414 . S
C593 C591 1.444 . S
C593 C598 1.412 . S
C594 C590 1.432 . S
C594 C591 1.317 . S
C594 H606 0.930 . S
C595 C597 1.392 . S
C595 C598 1.343 1_455 S
C595 H607 0.931 . S
N596 C589 1.359 . S
N596 C597 1.327 1_655 S
N596 Tb599 2.600 1_655 S
C597 C595 1.392 . S
C597 N596 1.327 1_455 S
C597 H604 0.930 . S
C598 C593 1.412 . S
C598 C595 1.343 1_655 S
C598 H617 0.929 . S
Tb599 N596 2.600 1_455 S
Tb599 N600 2.652 1_455 S
Tb599 O633 2.359 1_455 S
Tb599 O634 2.427 . S
Tb599 O638 2.550 . S
Tb599 O639 2.612 . S
Tb599 O641 2.314 1_455 S
Tb599 O642 2.557 . S
Tb599 O643 2.412 1_455 S
Tb599 C663 2.834 . S
N600 C592 1.360 . S
N600 Tb599 2.652 1_655 S
N600 C601 1.305 . S
C601 N600 1.305 . S
C601 C603 1.407 . S
C601 H608 0.930 . S
C602 C590 1.410 . S
C602 C603 1.345 . S
C602 H610 0.930 . S
C603 C601 1.407 . S
C603 C602 1.345 . S
C603 H605 0.930 . S
H604 C597 0.930 . S
H605 C603 0.930 . S
H606 C594 0.930 . S
H607 C595 0.931 . S
H608 C601 0.930 . S
H609 C623 0.930 . S
H610 C602 0.930 . S
H611 C629 0.930 . S
H612 C620 0.930 . S
H613 C627 0.931 . S
H614 C591 0.929 . S
H615 C621 0.930 . S
H616 C654 0.930 . S
H617 C598 0.929 . S
H618 C653 0.929 . S
N619 Tb588 2.659 1_455 S
N619 C620 1.305 . S
N619 C624 1.360 . S
C620 H612 0.930 . S
C620 N619 1.305 . S
C620 C623 1.407 . S
C621 H615 0.930 . S
C621 C622 1.410 . S
C621 C623 1.345 . S
C622 C621 1.410 . S
C622 C624 1.417 . S
C622 C654 1.432 . S
C623 H609 0.930 . S
C623 C620 1.407 . S
C623 C621 1.345 . S
C624 N619 1.360 . S
C624 C622 1.417 . S
C624 C628 1.432 . S
H625 C630 0.930 . S
N626 Tb588 2.600 1_455 S
N626 C628 1.359 . S
N626 C629 1.327 1_455 S
C627 H613 0.931 . S
C627 C629 1.392 . S
C627 C630 1.370 1_655 S
C628 C624 1.432 . S
C628 N626 1.359 . S
C628 C631 1.414 . S
C629 H611 0.930 . S
C629 N626 1.327 1_655 S
C629 C627 1.392 . S
C630 H625 0.930 . S
C630 C627 1.370 1_455 S
C630 C631 1.385 . S
C631 C628 1.414 . S
C631 C630 1.385 . S
C631 C653 1.444 . S
O632 Tb588 2.546 . S
O632 C652 1.251 . S
O633 Tb588 2.610 . S
O633 Tb599 2.359 1_655 S
O633 C644 1.283 . S
O634 Tb599 2.427 . S
O634 C651 1.262 . S
O635 Tb588 2.319 1_455 S
O635 C651 1.260 . S
O636 Tb588 2.552 . S
O636 C644 1.243 . S
O637 Tb588 2.413 1_455 S
O637 C652 1.256 1_455 S
O638 Tb599 2.550 . S
O638 C663 1.251 . S
O639 Tb588 2.361 1_455 S
O639 Tb599 2.612 . S
O639 C655 1.283 . S
O640 Tb588 2.421 . S
O640 C662 1.262 . S
O641 Tb599 2.314 1_655 S
O641 C662 1.260 . S
O642 Tb599 2.557 . S
O642 C655 1.243 . S
O643 Tb599 2.412 1_655 S
O643 C663 1.256 1_655 S
C644 O633 1.283 . S
C644 O636 1.243 . S
C645 C647 1.382 . S
C645 C649 1.393 . S
C645 C652 1.500 . S
C646 C647 1.400 . S
C646 C648 1.384 . S
C647 C645 1.382 . S
C647 C646 1.400 . S
C647 H664 0.930 1_655 S
C648 C646 1.384 . S
C648 C650 1.392 . S
C648 H665 0.931 . S
C649 C645 1.393 . S
C649 C650 1.401 . S
C649 H666 0.930 . S
C650 C648 1.392 . S
C650 C649 1.401 . S
C650 H667 0.930 . S
C651 O634 1.262 . S
C651 O635 1.260 . S
C652 Tb588 2.833 . S
C652 O632 1.251 . S
C652 O637 1.256 1_655 S
C652 C645 1.500 . S
C653 H618 0.929 . S
C653 C631 1.444 . S
C653 C654 1.317 . S
C654 H616 0.930 . S
C654 C622 1.432 . S
C654 C653 1.317 . S
C655 O639 1.283 . S
C655 O642 1.243 . S
C656 C657 1.382 . S
C656 C660 1.393 . S
C656 C663 1.500 . S
C657 C656 1.382 . S
C657 C658 1.400 . S
C657 H668 0.930 1_455 S
C658 C657 1.400 . S
C658 C659 1.384 . S
C659 C658 1.384 . S
C659 C661 1.392 . S
C659 H669 0.931 . S
C660 C656 1.393 . S
C660 C661 1.401 . S
C660 H670 0.930 . S
C661 C659 1.392 . S
C661 C660 1.401 . S
C661 H671 0.930 . S
C662 O640 1.262 . S
C662 O641 1.260 . S
C663 Tb599 2.834 . S
C663 O638 1.251 . S
C663 O643 1.256 1_455 S
C663 C656 1.500 . S
H664 C647 0.930 1_455 S
H665 C648 0.931 . S
H666 C649 0.930 . S
H667 C650 0.930 . S
H668 C657 0.930 1_655 S
H669 C659 0.931 . S
H670 C660 0.930 . S
H671 C661 0.930 . S
H672 C684 0.930 . S
H673 C686 0.930 . S
H674 C687 0.930 . S
H675 C691 0.959 . S
H676 C691 0.959 . S
H677 C691 0.961 . S
H678 C692 0.960 . S
H679 C692 0.961 . S
H680 C692 0.959 . S
H681 C695 0.929 . S
H682 C696 0.931 . S
H683 C698 0.930 . S
C684 H672 0.930 . S
C684 C685 1.399 . S
C684 C689 1.399 . S
C685 C684 1.399 . S
C685 C686 1.376 . S
C686 H673 0.930 . S
C686 C685 1.376 . S
C686 C687 1.388 . S
C687 H674 0.930 . S
C687 C686 1.388 . S
C687 C688 1.390 . S
C688 C687 1.390 . S
C688 C689 1.394 . S
C688 C694 1.465 . S
C689 C684 1.399 . S
C689 C688 1.394 . S
C689 C690 1.516 . S
C690 C689 1.516 . S
C690 C691 1.502 . S
C690 C692 1.561 . S
C690 C693 1.526 . S
C691 H675 0.959 . S
C691 H676 0.959 . S
C691 H677 0.961 . S
C691 C690 1.502 . S
C692 H678 0.960 . S
C692 H679 0.961 . S
C692 H680 0.959 . S
C692 C690 1.561 . S
C693 C690 1.526 . S
C693 C694 1.396 . S
C693 C698 1.390 . S
C694 C688 1.465 . S
C694 C693 1.396 . S
C694 C695 1.399 . S
C695 H681 0.929 . S
C695 C694 1.399 . S
C695 C696 1.385 . S
C696 H682 0.931 . S
C696 C695 1.385 . S
C696 C697 1.389 . S
C697 C696 1.389 . S
C697 C698 1.387 . S
C698 H683 0.930 . S
C698 C693 1.390 . S
C698 C697 1.387 . S
H699 C711 0.930 . S
H700 C713 0.930 . S
H701 C714 0.930 . S
H702 C718 0.959 . S
H703 C718 0.959 . S
H704 C718 0.961 . S
H705 C719 0.960 . S
H706 C719 0.961 . S
H707 C719 0.959 . S
H708 C722 0.929 . S
H709 C723 0.931 . S
H710 C725 0.930 . S
C711 H699 0.930 . S
C711 C712 1.399 . S
C711 C716 1.399 . S
C712 C711 1.399 . S
C712 C713 1.376 . S
C713 H700 0.930 . S
C713 C712 1.376 . S
C713 C714 1.388 . S
C714 H701 0.930 . S
C714 C713 1.388 . S
C714 C715 1.390 . S
C715 C714 1.390 . S
C715 C716 1.394 . S
C715 C721 1.465 . S
C716 C711 1.399 . S
C716 C715 1.394 . S
C716 C717 1.516 . S
C717 C716 1.516 . S
C717 C718 1.502 . S
C717 C719 1.561 . S
C717 C720 1.526 . S
C718 H702 0.959 . S
C718 H703 0.959 . S
C718 H704 0.961 . S
C718 C717 1.502 . S
C719 H705 0.960 . S
C719 H706 0.961 . S
C719 H707 0.959 . S
C719 C717 1.561 . S
C720 C717 1.526 . S
C720 C721 1.396 . S
C720 C725 1.390 . S
C721 C715 1.465 . S
C721 C720 1.396 . S
C721 C722 1.399 . S
C722 H708 0.929 . S
C722 C721 1.399 . S
C722 C723 1.385 . S
C723 H709 0.931 . S
C723 C722 1.385 . S
C723 C724 1.389 . S
C724 C723 1.389 . S
C724 C725 1.387 . S
C725 H710 0.930 . S
C725 C720 1.390 . S
C725 C724 1.387 . S
H726 C738 0.930 . S
H727 C740 0.930 . S
H728 C741 0.930 . S
H729 C745 0.959 . S
H730 C745 0.959 . S
H731 C745 0.961 . S
H732 C746 0.960 . S
H733 C746 0.961 . S
H734 C746 0.959 . S
H735 C749 0.929 . S
H736 C750 0.931 1_554 S
H737 C752 0.930 . S
C738 H726 0.930 . S
C738 C739 1.399 . S
C738 C743 1.399 . S
C739 C738 1.399 . S
C739 C740 1.376 . S
C740 H727 0.930 . S
C740 C739 1.376 . S
C740 C741 1.388 . S
C741 H728 0.930 . S
C741 C740 1.388 . S
C741 C742 1.390 . S
C742 C741 1.390 . S
C742 C743 1.394 . S
C742 C748 1.465 . S
C743 C738 1.399 . S
C743 C742 1.394 . S
C743 C744 1.516 . S
C744 C743 1.516 . S
C744 C745 1.502 . S
C744 C746 1.561 . S
C744 C747 1.526 . S
C745 H729 0.959 . S
C745 H730 0.959 . S
C745 H731 0.961 . S
C745 C744 1.502 . S
C746 H732 0.960 . S
C746 H733 0.961 . S
C746 H734 0.959 . S
C746 C744 1.561 . S
C747 C744 1.526 . S
C747 C748 1.396 . S
C747 C752 1.390 . S
C748 C742 1.465 . S
C748 C747 1.396 . S
C748 C749 1.399 . S
C749 H735 0.929 . S
C749 C748 1.399 . S
C749 C750 1.385 . S
C750 H736 0.931 1_556 S
C750 C749 1.385 . S
C750 C751 1.389 . S
C751 C750 1.389 . S
C751 C752 1.387 . S
C752 H737 0.930 . S
C752 C747 1.390 . S
C752 C751 1.387 . S
H753 C765 0.930 . S
H754 C767 0.930 . S
H755 C768 0.930 . S
H756 C772 0.959 . S
H757 C772 0.959 . S
H758 C772 0.961 . S
H759 C773 0.960 1_556 S
H760 C773 0.961 . S
H761 C773 0.959 . S
H762 C776 0.929 . S
H763 C777 0.931 . S
H764 C779 0.930 . S
C765 H753 0.930 . S
C765 C766 1.399 . S
C765 C770 1.399 . S
C766 C765 1.399 . S
C766 C767 1.376 . S
C767 H754 0.930 . S
C767 C766 1.376 . S
C767 C768 1.388 . S
C768 H755 0.930 . S
C768 C767 1.388 . S
C768 C769 1.390 . S
C769 C768 1.390 . S
C769 C770 1.394 . S
C769 C775 1.465 . S
C770 C765 1.399 . S
C770 C769 1.394 . S
C770 C771 1.516 . S
C771 C770 1.516 . S
C771 C772 1.502 . S
C771 C773 1.561 . S
C771 C774 1.526 . S
C772 H756 0.959 . S
C772 H757 0.959 . S
C772 H758 0.961 . S
C772 C771 1.502 . S
C773 H759 0.960 1_554 S
C773 H760 0.961 . S
C773 H761 0.959 . S
C773 C771 1.561 . S
C774 C771 1.526 . S
C774 C775 1.396 . S
C774 C779 1.390 . S
C775 C769 1.465 . S
C775 C774 1.396 . S
C775 C776 1.399 . S
C776 H762 0.929 . S
C776 C775 1.399 . S
C776 C777 1.385 . S
C777 H763 0.931 . S
C777 C776 1.385 . S
C777 C778 1.389 . S
C778 C777 1.389 . S
C778 C779 1.387 . S
C779 H764 0.930 . S
C779 C774 1.390 . S
C779 C778 1.387 . S
H780 C792 0.930 . S
H781 C794 0.930 . S
H782 C795 0.930 . S
H783 C799 0.959 . S
H784 C799 0.959 . S
H785 C799 0.961 . S
H786 C800 0.960 . S
H787 C800 0.961 . S
H788 C800 0.959 . S
H789 C803 0.929 . S
H790 C804 0.931 . S
H791 C806 0.930 . S
C792 H780 0.930 . S
C792 C793 1.399 . S
C792 C797 1.399 . S
C793 C792 1.399 . S
C793 C794 1.376 . S
C794 H781 0.930 . S
C794 C793 1.376 . S
C794 C795 1.388 . S
C795 H782 0.930 . S
C795 C794 1.388 . S
C795 C796 1.390 . S
C796 C795 1.390 . S
C796 C797 1.394 . S
C796 C802 1.465 . S
C797 C792 1.399 . S
C797 C796 1.394 . S
C797 C798 1.516 . S
C798 C797 1.516 . S
C798 C799 1.502 . S
C798 C800 1.561 . S
C798 C801 1.526 . S
C799 H783 0.959 . S
C799 H784 0.959 . S
C799 H785 0.961 . S
C799 C798 1.502 . S
C800 H786 0.960 . S
C800 H787 0.961 . S
C800 H788 0.959 . S
C800 C798 1.561 . S
C801 C798 1.526 . S
C801 C802 1.396 . S
C801 C806 1.390 . S
C802 C796 1.465 . S
C802 C801 1.396 . S
C802 C803 1.399 . S
C803 H789 0.929 . S
C803 C802 1.399 . S
C803 C804 1.385 . S
C804 H790 0.931 . S
C804 C803 1.385 . S
C804 C805 1.389 . S
C805 C804 1.389 . S
C805 C806 1.387 . S
C806 H791 0.930 . S
C806 C801 1.390 . S
C806 C805 1.387 . S
H807 C819 0.930 . S
H808 C821 0.930 . S
H809 C822 0.930 . S
H810 C826 0.959 . S
H811 C826 0.959 . S
H812 C826 0.961 . S
H813 C827 0.960 . S
H814 C827 0.961 . S
H815 C827 0.959 . S
H816 C830 0.929 . S
H817 C831 0.931 . S
H818 C833 0.930 . S
C819 H807 0.930 . S
C819 C820 1.399 . S
C819 C824 1.399 . S
C820 C819 1.399 . S
C820 C821 1.376 . S
C821 H808 0.930 . S
C821 C820 1.376 . S
C821 C822 1.388 . S
C822 H809 0.930 . S
C822 C821 1.388 . S
C822 C823 1.390 . S
C823 C822 1.390 . S
C823 C824 1.394 . S
C823 C829 1.465 . S
C824 C819 1.399 . S
C824 C823 1.394 . S
C824 C825 1.516 . S
C825 C824 1.516 . S
C825 C826 1.502 . S
C825 C827 1.561 . S
C825 C828 1.526 . S
C826 H810 0.959 . S
C826 H811 0.959 . S
C826 H812 0.961 . S
C826 C825 1.502 . S
C827 H813 0.960 . S
C827 H814 0.961 . S
C827 H815 0.959 . S
C827 C825 1.561 . S
C828 C825 1.526 . S
C828 C829 1.396 . S
C828 C833 1.390 . S
C829 C823 1.465 . S
C829 C828 1.396 . S
C829 C830 1.399 . S
C830 H816 0.929 . S
C830 C829 1.399 . S
C830 C831 1.385 . S
C831 H817 0.931 . S
C831 C830 1.385 . S
C831 C832 1.389 . S
C832 C831 1.389 . S
C832 C833 1.387 . S
C833 H818 0.930 . S
C833 C828 1.390 . S
C833 C832 1.387 . S
H834 C846 0.930 . S
H835 C848 0.930 . S
H836 C849 0.930 . S
H837 C853 0.959 . S
H838 C853 0.959 . S
H839 C853 0.961 . S
H840 C854 0.960 . S
H841 C854 0.961 1_556 S
H842 C854 0.959 . S
H843 C857 0.929 . S
H844 C858 0.931 . S
H845 C860 0.930 . S
C846 H834 0.930 . S
C846 C847 1.399 . S
C846 C851 1.399 . S
C847 C846 1.399 . S
C847 C848 1.376 . S
C848 H835 0.930 . S
C848 C847 1.376 . S
C848 C849 1.388 . S
C849 H836 0.930 . S
C849 C848 1.388 . S
C849 C850 1.390 . S
C850 C849 1.390 . S
C850 C851 1.394 . S
C850 C856 1.465 . S
C851 C846 1.399 . S
C851 C850 1.394 . S
C851 C852 1.516 . S
C852 C851 1.516 . S
C852 C853 1.502 . S
C852 C854 1.561 . S
C852 C855 1.526 . S
C853 H837 0.959 . S
C853 H838 0.959 . S
C853 H839 0.961 . S
C853 C852 1.502 . S
C854 H840 0.960 . S
C854 H841 0.961 1_554 S
C854 H842 0.959 . S
C854 C852 1.561 . S
C855 C852 1.526 . S
C855 C856 1.396 . S
C855 C860 1.390 . S
C856 C850 1.465 . S
C856 C855 1.396 . S
C856 C857 1.399 . S
C857 H843 0.929 . S
C857 C856 1.399 . S
C857 C858 1.385 . S
C858 H844 0.931 . S
C858 C857 1.385 . S
C858 C859 1.389 . S
C859 C858 1.389 . S
C859 C860 1.387 . S
C860 H845 0.930 . S
C860 C855 1.390 . S
C860 C859 1.387 . S
H861 C873 0.930 . S
H862 C875 0.930 . S
H863 C876 0.930 . S
H864 C880 0.959 . S
H865 C880 0.959 . S
H866 C880 0.961 . S
H867 C881 0.960 . S
H868 C881 0.961 . S
H869 C881 0.959 . S
H870 C884 0.929 . S
H871 C885 0.931 . S
H872 C887 0.930 . S
C873 H861 0.930 . S
C873 C874 1.399 . S
C873 C878 1.399 . S
C874 C873 1.399 . S
C874 C875 1.376 . S
C875 H862 0.930 . S
C875 C874 1.376 . S
C875 C876 1.388 . S
C876 H863 0.930 . S
C876 C875 1.388 . S
C876 C877 1.390 . S
C877 C876 1.390 . S
C877 C878 1.394 . S
C877 C883 1.465 . S
C878 C873 1.399 . S
C878 C877 1.394 . S
C878 C879 1.516 . S
C879 C878 1.516 . S
C879 C880 1.502 . S
C879 C881 1.561 . S
C879 C882 1.526 . S
C880 H864 0.959 . S
C880 H865 0.959 . S
C880 H866 0.961 . S
C880 C879 1.502 . S
C881 H867 0.960 . S
C881 H868 0.961 . S
C881 H869 0.959 . S
C881 C879 1.561 . S
C882 C879 1.526 . S
C882 C883 1.396 . S
C882 C887 1.390 . S
C883 C877 1.465 . S
C883 C882 1.396 . S
C883 C884 1.399 . S
C884 H870 0.929 . S
C884 C883 1.399 . S
C884 C885 1.385 . S
C885 H871 0.931 . S
C885 C884 1.385 . S
C885 C886 1.389 . S
C886 C885 1.389 . S
C886 C887 1.387 . S
C887 H872 0.930 . S
C887 C882 1.390 . S
C887 C886 1.387 . S
H888 C900 0.930 . S
H889 C902 0.930 . S
H890 C903 0.930 . S
H891 C907 0.959 . S
H892 C907 0.959 . S
H893 C907 0.961 1_554 S
H894 C908 0.960 . S
H895 C908 0.961 . S
H896 C908 0.959 . S
H897 C911 0.929 . S
H898 C912 0.931 . S
H899 C914 0.930 . S
C900 H888 0.930 . S
C900 C901 1.399 . S
C900 C905 1.399 . S
C901 C900 1.399 . S
C901 C902 1.376 . S
C902 H889 0.930 . S
C902 C901 1.376 . S
C902 C903 1.388 . S
C903 H890 0.930 . S
C903 C902 1.388 . S
C903 C904 1.390 . S
C904 C903 1.390 . S
C904 C905 1.394 . S
C904 C910 1.465 . S
C905 C900 1.399 . S
C905 C904 1.394 . S
C905 C906 1.516 . S
C906 C905 1.516 . S
C906 C907 1.502 . S
C906 C908 1.561 . S
C906 C909 1.526 . S
C907 H891 0.959 . S
C907 H892 0.959 . S
C907 H893 0.961 1_556 S
C907 C906 1.502 . S
C908 H894 0.960 . S
C908 H895 0.961 . S
C908 H896 0.959 . S
C908 C906 1.561 . S
C909 C906 1.526 . S
C909 C910 1.396 . S
C909 C914 1.390 . S
C910 C904 1.465 . S
C910 C909 1.396 . S
C910 C911 1.399 . S
C911 H897 0.929 . S
C911 C910 1.399 . S
C911 C912 1.385 . S
C912 H898 0.931 . S
C912 C911 1.385 . S
C912 C913 1.389 . S
C913 C912 1.389 . S
C913 C914 1.387 . S
C914 H899 0.930 . S
C914 C909 1.390 . S
C914 C913 1.387 . S
H915 C927 0.930 . S
H916 C929 0.930 . S
H917 C930 0.930 . S
H918 C934 0.959 . S
H919 C934 0.959 . S
H920 C934 0.961 . S
H921 C935 0.960 . S
H922 C935 0.961 . S
H923 C935 0.959 . S
H924 C938 0.929 . S
H925 C939 0.931 1_556 S
H926 C941 0.930 . S
C927 H915 0.930 . S
C927 C928 1.399 . S
C927 C932 1.399 . S
C928 C927 1.399 . S
C928 C929 1.376 . S
C929 H916 0.930 . S
C929 C928 1.376 . S
C929 C930 1.388 . S
C930 H917 0.930 . S
C930 C929 1.388 . S
C930 C931 1.390 . S
C931 C930 1.390 . S
C931 C932 1.394 . S
C931 C937 1.465 . S
C932 C927 1.399 . S
C932 C931 1.394 . S
C932 C933 1.516 . S
C933 C932 1.516 . S
C933 C934 1.502 . S
C933 C935 1.561 . S
C933 C936 1.526 . S
C934 H918 0.959 . S
C934 H919 0.959 . S
C934 H920 0.961 . S
C934 C933 1.502 . S
C935 H921 0.960 . S
C935 H922 0.961 . S
C935 H923 0.959 . S
C935 C933 1.561 . S
C936 C933 1.526 . S
C936 C937 1.396 . S
C936 C941 1.390 . S
C937 C931 1.465 . S
C937 C936 1.396 . S
C937 C938 1.399 . S
C938 H924 0.929 . S
C938 C937 1.399 . S
C938 C939 1.385 . S
C939 H925 0.931 1_554 S
C939 C938 1.385 . S
C939 C940 1.389 . S
C940 C939 1.389 . S
C940 C941 1.387 . S
C941 H926 0.930 . S
C941 C936 1.390 . S
C941 C940 1.387 . S
H942 C954 0.930 . S
H943 C956 0.930 . S
H944 C957 0.930 . S
H945 C961 0.959 . S
H946 C961 0.959 . S
H947 C961 0.961 . S
H948 C962 0.960 . S
H949 C962 0.961 . S
H950 C962 0.959 . S
H951 C965 0.929 . S
H952 C966 0.931 . S
H953 C968 0.930 . S
C954 H942 0.930 . S
C954 C955 1.399 . S
C954 C959 1.399 . S
C955 C954 1.399 . S
C955 C956 1.376 . S
C956 H943 0.930 . S
C956 C955 1.376 . S
C956 C957 1.388 . S
C957 H944 0.930 . S
C957 C956 1.388 . S
C957 C958 1.390 . S
C958 C957 1.390 . S
C958 C959 1.394 . S
C958 C964 1.465 . S
C959 C954 1.399 . S
C959 C958 1.394 . S
C959 C960 1.516 . S
C960 C959 1.516 . S
C960 C961 1.502 . S
C960 C962 1.561 . S
C960 C963 1.526 . S
C961 H945 0.959 . S
C961 H946 0.959 . S
C961 H947 0.961 . S
C961 C960 1.502 . S
C962 H948 0.960 . S
C962 H949 0.961 . S
C962 H950 0.959 . S
C962 C960 1.561 . S
C963 C960 1.526 . S
C963 C964 1.396 . S
C963 C968 1.390 . S
C964 C958 1.465 . S
C964 C963 1.396 . S
C964 C965 1.399 . S
C965 H951 0.929 . S
C965 C964 1.399 . S
C965 C966 1.385 . S
C966 H952 0.931 . S
C966 C965 1.385 . S
C966 C967 1.389 . S
C967 C966 1.389 . S
C967 C968 1.387 . S
C968 H953 0.930 . S
C968 C963 1.390 . S
C968 C967 1.387 . S
H969 C981 0.930 . S
H970 C983 0.930 . S
H971 C984 0.930 . S
H972 C988 0.959 . S
H973 C988 0.959 . S
H974 C988 0.961 . S
H975 C989 0.960 . S
H976 C989 0.961 . S
H977 C989 0.959 . S
H978 C992 0.929 . S
H979 C993 0.931 . S
H980 C995 0.930 . S
C981 H969 0.930 . S
C981 C982 1.399 . S
C981 C986 1.399 . S
C982 C981 1.399 . S
C982 C983 1.376 . S
C983 H970 0.930 . S
C983 C982 1.376 . S
C983 C984 1.388 . S
C984 H971 0.930 . S
C984 C983 1.388 . S
C984 C985 1.390 . S
C985 C984 1.390 . S
C985 C986 1.394 . S
C985 C991 1.465 . S
C986 C981 1.399 . S
C986 C985 1.394 . S
C986 C987 1.516 . S
C987 C986 1.516 . S
C987 C988 1.502 . S
C987 C989 1.561 . S
C987 C990 1.526 . S
C988 H972 0.959 . S
C988 H973 0.959 . S
C988 H974 0.961 . S
C988 C987 1.502 . S
C989 H975 0.960 . S
C989 H976 0.961 . S
C989 H977 0.959 . S
C989 C987 1.561 . S
C990 C987 1.526 . S
C990 C991 1.396 . S
C990 C995 1.390 . S
C991 C985 1.465 . S
C991 C990 1.396 . S
C991 C992 1.399 . S
C992 H978 0.929 . S
C992 C991 1.399 . S
C992 C993 1.385 . S
C993 H979 0.931 . S
C993 C992 1.385 . S
C993 C994 1.389 . S
C994 C993 1.389 . S
C994 C995 1.387 . S
C995 H980 0.930 . S
C995 C990 1.390 . S
C995 C994 1.387 . S
H996 C1008 0.930 . S
H997 C1010 0.930 . S
H998 C1011 0.930 . S
H999 C1015 0.959 . S
H1000 C1015 0.959 . S
H1001 C1015 0.961 . S
H1002 C1016 0.960 . S
H1003 C1016 0.961 . S
H1004 C1016 0.959 . S
H1005 C1019 0.929 . S
H1006 C1020 0.931 . S
H1007 C1022 0.930 . S
C1008 H996 0.930 . S
C1008 C1009 1.399 . S
C1008 C1013 1.399 . S
C1009 C1008 1.399 . S
C1009 C1010 1.376 . S
C1010 H997 0.930 . S
C1010 C1009 1.376 . S
C1010 C1011 1.388 . S
C1011 H998 0.930 . S
C1011 C1010 1.388 . S
C1011 C1012 1.390 . S
C1012 C1011 1.390 . S
C1012 C1013 1.394 . S
C1012 C1018 1.465 . S
C1013 C1008 1.399 . S
C1013 C1012 1.394 . S
C1013 C1014 1.516 . S
C1014 C1013 1.516 . S
C1014 C1015 1.502 . S
C1014 C1016 1.561 . S
C1014 C1017 1.526 . S
C1015 H999 0.959 . S
C1015 H1000 0.959 . S
C1015 H1001 0.961 . S
C1015 C1014 1.502 . S
C1016 H1002 0.960 . S
C1016 H1003 0.961 . S
C1016 H1004 0.959 . S
C1016 C1014 1.561 . S
C1017 C1014 1.526 . S
C1017 C1018 1.396 . S
C1017 C1022 1.390 . S
C1018 C1012 1.465 . S
C1018 C1017 1.396 . S
C1018 C1019 1.399 . S
C1019 H1005 0.929 . S
C1019 C1018 1.399 . S
C1019 C1020 1.385 . S
C1020 H1006 0.931 . S
C1020 C1019 1.385 . S
C1020 C1021 1.389 . S
C1021 C1020 1.389 . S
C1021 C1022 1.387 . S
C1022 H1007 0.930 . S
C1022 C1017 1.390 . S
C1022 C1021 1.387 . S
H1023 C1035 0.930 . S
H1024 C1037 0.930 1_554 S
H1025 C1038 0.930 . S
H1026 C1042 0.959 . S
H1027 C1042 0.959 . S
H1028 C1042 0.961 . S
H1029 C1043 0.960 . S
H1030 C1043 0.961 . S
H1031 C1043 0.959 . S
H1032 C1046 0.929 . S
H1033 C1047 0.931 . S
H1034 C1049 0.930 . S
C1035 H1023 0.930 . S
C1035 C1036 1.399 . S
C1035 C1040 1.399 . S
C1036 C1035 1.399 . S
C1036 C1037 1.376 . S
C1037 H1024 0.930 1_556 S
C1037 C1036 1.376 . S
C1037 C1038 1.388 . S
C1038 H1025 0.930 . S
C1038 C1037 1.388 . S
C1038 C1039 1.390 . S
C1039 C1038 1.390 . S
C1039 C1040 1.394 . S
C1039 C1045 1.465 . S
C1040 C1035 1.399 . S
C1040 C1039 1.394 . S
C1040 C1041 1.516 . S
C1041 C1040 1.516 . S
C1041 C1042 1.502 . S
C1041 C1043 1.561 . S
C1041 C1044 1.526 . S
C1042 H1026 0.959 . S
C1042 H1027 0.959 . S
C1042 H1028 0.961 . S
C1042 C1041 1.502 . S
C1043 H1029 0.960 . S
C1043 H1030 0.961 . S
C1043 H1031 0.959 . S
C1043 C1041 1.561 . S
C1044 C1041 1.526 . S
C1044 C1045 1.396 . S
C1044 C1049 1.390 . S
C1045 C1039 1.465 . S
C1045 C1044 1.396 . S
C1045 C1046 1.399 . S
C1046 H1032 0.929 . S
C1046 C1045 1.399 . S
C1046 C1047 1.385 . S
C1047 H1033 0.931 . S
C1047 C1046 1.385 . S
C1047 C1048 1.389 . S
C1048 C1047 1.389 . S
C1048 C1049 1.387 . S
C1049 H1034 0.930 . S
C1049 C1044 1.390 . S
C1049 C1048 1.387 . S
H1050 C1062 0.930 . S
H1051 C1064 0.930 . S
H1052 C1065 0.930 . S
H1053 C1069 0.959 . S
H1054 C1069 0.959 . S
H1055 C1069 0.961 . S
H1056 C1070 0.960 . S
H1057 C1070 0.961 . S
H1058 C1070 0.959 . S
H1059 C1073 0.929 . S
H1060 C1074 0.931 . S
H1061 C1076 0.930 . S
C1062 H1050 0.930 . S
C1062 C1063 1.399 . S
C1062 C1067 1.399 . S
C1063 C1062 1.399 . S
C1063 C1064 1.376 . S
C1064 H1051 0.930 . S
C1064 C1063 1.376 . S
C1064 C1065 1.388 . S
C1065 H1052 0.930 . S
C1065 C1064 1.388 . S
C1065 C1066 1.390 . S
C1066 C1065 1.390 . S
C1066 C1067 1.394 . S
C1066 C1072 1.465 . S
C1067 C1062 1.399 . S
C1067 C1066 1.394 . S
C1067 C1068 1.516 . S
C1068 C1067 1.516 . S
C1068 C1069 1.502 . S
C1068 C1070 1.561 . S
C1068 C1071 1.526 . S
C1069 H1053 0.959 . S
C1069 H1054 0.959 . S
C1069 H1055 0.961 . S
C1069 C1068 1.502 . S
C1070 H1056 0.960 . S
C1070 H1057 0.961 . S
C1070 H1058 0.959 . S
C1070 C1068 1.561 . S
C1071 C1068 1.526 . S
C1071 C1072 1.396 . S
C1071 C1076 1.390 . S
C1072 C1066 1.465 . S
C1072 C1071 1.396 . S
C1072 C1073 1.399 . S
C1073 H1059 0.929 . S
C1073 C1072 1.399 . S
C1073 C1074 1.385 . S
C1074 H1060 0.931 . S
C1074 C1073 1.385 . S
C1074 C1075 1.389 . S
C1075 C1074 1.389 . S
C1075 C1076 1.387 . S
C1076 H1061 0.930 . S
C1076 C1071 1.390 . S
C1076 C1075 1.387 . S
H1077 C1089 0.930 . S
H1078 C1091 0.930 . S
H1079 C1092 0.930 . S
H1080 C1096 0.959 . S
H1081 C1096 0.959 . S
H1082 C1096 0.961 . S
H1083 C1097 0.960 . S
H1084 C1097 0.961 . S
H1085 C1097 0.959 . S
H1086 C1100 0.929 . S
H1087 C1101 0.931 . S
H1088 C1103 0.930 . S
C1089 H1077 0.930 . S
C1089 C1090 1.399 . S
C1089 C1094 1.399 . S
C1090 C1089 1.399 . S
C1090 C1091 1.376 . S
C1091 H1078 0.930 . S
C1091 C1090 1.376 . S
C1091 C1092 1.388 . S
C1092 H1079 0.930 . S
C1092 C1091 1.388 . S
C1092 C1093 1.390 . S
C1093 C1092 1.390 . S
C1093 C1094 1.394 . S
C1093 C1099 1.465 . S
C1094 C1089 1.399 . S
C1094 C1093 1.394 . S
C1094 C1095 1.516 . S
C1095 C1094 1.516 . S
C1095 C1096 1.502 . S
C1095 C1097 1.561 . S
C1095 C1098 1.526 . S
C1096 H1080 0.959 . S
C1096 H1081 0.959 . S
C1096 H1082 0.961 . S
C1096 C1095 1.502 . S
C1097 H1083 0.960 . S
C1097 H1084 0.961 . S
C1097 H1085 0.959 . S
C1097 C1095 1.561 . S
C1098 C1095 1.526 . S
C1098 C1099 1.396 . S
C1098 C1103 1.390 . S
C1099 C1093 1.465 . S
C1099 C1098 1.396 . S
C1099 C1100 1.399 . S
C1100 H1086 0.929 . S
C1100 C1099 1.399 . S
C1100 C1101 1.385 . S
C1101 H1087 0.931 . S
C1101 C1100 1.385 . S
C1101 C1102 1.389 . S
C1102 C1101 1.389 . S
C1102 C1103 1.387 . S
C1103 H1088 0.930 . S
C1103 C1098 1.390 . S
C1103 C1102 1.387 . S
H1104 C1116 0.930 . S
H1105 C1118 0.930 . S
H1106 C1119 0.930 . S
H1107 C1123 0.959 . S
H1108 C1123 0.959 . S
H1109 C1123 0.961 1_556 S
H1110 C1124 0.942 1_556 S
H1111 C1124 0.978 . S
H1112 C1124 0.960 . S
H1113 C1127 0.929 . S
H1114 C1128 0.931 . S
H1115 C1130 0.930 . S
C1116 H1104 0.930 . S
C1116 C1117 1.399 1_565 S
C1116 C1121 1.399 . S
C1117 C1116 1.399 1_545 S
C1117 C1118 1.376 1_655 S
C1118 H1105 0.930 . S
C1118 C1117 1.376 1_455 S
C1118 C1119 1.388 . S
C1119 H1106 0.930 . S
C1119 C1118 1.388 . S
C1119 C1120 1.390 . S
C1120 C1119 1.390 . S
C1120 C1121 1.394 1_445 S
C1120 C1126 1.465 1_556 S
C1121 C1116 1.399 . S
C1121 C1120 1.394 1_665 S
C1121 C1122 1.516 1_556 S
C1122 C1121 1.516 1_554 S
C1122 C1123 1.502 . S
C1122 C1124 1.561 1_655 S
C1122 C1125 1.526 . S
C1123 H1107 0.959 . S
C1123 H1108 0.959 . S
C1123 H1109 0.961 1_554 S
C1123 C1122 1.502 . S
C1124 H1110 0.942 1_554 S
C1124 H1111 0.978 . S
C1124 H1112 0.960 . S
C1124 C1122 1.561 1_455 S
C1125 C1122 1.526 . S
C1125 C1126 1.396 1_665 S
C1125 C1130 1.390 . S
C1126 C1120 1.465 1_554 S
C1126 C1125 1.396 1_445 S
C1126 C1127 1.399 . S
C1127 H1113 0.929 . S
C1127 C1126 1.399 . S
C1127 C1128 1.385 . S
C1128 H1114 0.931 . S
C1128 C1127 1.385 . S
C1128 C1129 1.389 . S
C1129 C1128 1.389 . S
C1129 C1130 1.387 1_445 S
C1130 H1115 0.930 . S
C1130 C1125 1.390 . S
C1130 C1129 1.387 1_665 S
H1131 C1143 0.930 . S
H1132 C1145 0.930 . S
H1133 C1146 0.930 . S
H1134 C1150 0.959 . S
H1135 C1150 0.959 . S
H1136 C1150 0.961 . S
H1137 C1151 0.960 . S
H1138 C1151 0.961 . S
H1139 C1151 0.959 . S
H1140 C1154 0.929 . S
H1141 C1155 0.931 . S
H1142 C1157 0.930 . S
C1143 H1131 0.930 . S
C1143 C1144 1.399 . S
C1143 C1148 1.399 . S
C1144 C1143 1.399 . S
C1144 C1145 1.376 . S
C1145 H1132 0.930 . S
C1145 C1144 1.376 . S
C1145 C1146 1.388 . S
C1146 H1133 0.930 . S
C1146 C1145 1.388 . S
C1146 C1147 1.390 . S
C1147 C1146 1.390 . S
C1147 C1148 1.394 . S
C1147 C1153 1.465 . S
C1148 C1143 1.399 . S
C1148 C1147 1.394 . S
C1148 C1149 1.516 . S
C1149 C1148 1.516 . S
C1149 C1150 1.502 . S
C1149 C1151 1.561 . S
C1149 C1152 1.526 . S
C1150 H1134 0.959 . S
C1150 H1135 0.959 . S
C1150 H1136 0.961 . S
C1150 C1149 1.502 . S
C1151 H1137 0.960 . S
C1151 H1138 0.961 . S
C1151 H1139 0.959 . S
C1151 C1149 1.561 . S
C1152 C1149 1.526 . S
C1152 C1153 1.396 . S
C1152 C1157 1.390 . S
C1153 C1147 1.465 . S
C1153 C1152 1.396 . S
C1153 C1154 1.399 . S
C1154 H1140 0.929 . S
C1154 C1153 1.399 . S
C1154 C1155 1.385 . S
C1155 H1141 0.931 . S
C1155 C1154 1.385 . S
C1155 C1156 1.389 . S
C1156 C1155 1.389 . S
C1156 C1157 1.387 . S
C1157 H1142 0.930 . S
C1157 C1152 1.390 . S
C1157 C1156 1.387 . S
H1158 C1170 0.930 . S
H1159 C1172 0.930 . S
H1160 C1173 0.930 . S
H1161 C1177 0.959 . S
H1162 C1177 0.959 . S
H1163 C1177 0.961 . S
H1164 C1178 0.960 . S
H1165 C1178 0.961 . S
H1166 C1178 0.959 . S
H1167 C1181 0.929 . S
H1168 C1182 0.931 . S
H1169 C1184 0.930 . S
C1170 H1158 0.930 . S
C1170 C1171 1.412 . S
C1170 C1175 1.399 . S
C1171 C1170 1.412 . S
C1171 C1172 1.360 1_565 S
C1172 H1159 0.930 . S
C1172 C1171 1.360 1_545 S
C1172 C1173 1.388 . S
C1173 H1160 0.930 . S
C1173 C1172 1.388 . S
C1173 C1174 1.390 . S
C1174 C1173 1.390 . S
C1174 C1175 1.394 1_545 S
C1174 C1180 1.465 . S
C1175 C1170 1.399 . S
C1175 C1174 1.394 1_565 S
C1175 C1176 1.516 . S
C1176 C1175 1.516 . S
C1176 C1177 1.502 . S
C1176 C1178 1.561 . S
C1176 C1179 1.526 . S
C1177 H1161 0.959 . S
C1177 H1162 0.959 . S
C1177 H1163 0.961 . S
C1177 C1176 1.502 . S
C1178 H1164 0.960 . S
C1178 H1165 0.961 . S
C1178 H1166 0.959 . S
C1178 C1176 1.561 . S
C1179 C1176 1.526 . S
C1179 C1180 1.396 1_565 S
C1179 C1184 1.390 . S
C1180 C1174 1.465 . S
C1180 C1179 1.396 1_545 S
C1180 C1181 1.399 . S
C1181 H1167 0.929 . S
C1181 C1180 1.399 . S
C1181 C1182 1.385 . S
C1182 H1168 0.931 . S
C1182 C1181 1.385 . S
C1182 C1183 1.389 . S
C1183 C1182 1.389 . S
C1183 C1184 1.387 1_545 S
C1184 H1169 0.930 . S
C1184 C1179 1.390 . S
C1184 C1183 1.387 1_565 S
H1185 C1197 0.930 . S
H1186 C1199 0.930 . S
H1187 C1200 0.930 . S
H1188 C1204 0.959 . S
H1189 C1204 0.959 . S
H1190 C1204 0.961 . S
H1191 C1205 0.960 . S
H1192 C1205 0.961 . S
H1193 C1205 0.959 . S
H1194 C1208 0.929 . S
H1195 C1209 0.931 . S
H1196 C1211 0.930 . S
C1197 H1185 0.930 . S
C1197 C1198 1.399 . S
C1197 C1202 1.399 . S
C1198 C1197 1.399 . S
C1198 C1199 1.376 . S
C1199 H1186 0.930 . S
C1199 C1198 1.376 . S
C1199 C1200 1.388 . S
C1200 H1187 0.930 . S
C1200 C1199 1.388 . S
C1200 C1201 1.390 . S
C1201 C1200 1.390 . S
C1201 C1202 1.394 . S
C1201 C1207 1.465 . S
C1202 C1197 1.399 . S
C1202 C1201 1.394 . S
C1202 C1203 1.516 . S
C1203 C1202 1.516 . S
C1203 C1204 1.502 . S
C1203 C1205 1.561 . S
C1203 C1206 1.526 . S
C1204 H1188 0.959 . S
C1204 H1189 0.959 . S
C1204 H1190 0.961 . S
C1204 C1203 1.502 . S
C1205 H1191 0.960 . S
C1205 H1192 0.961 . S
C1205 H1193 0.959 . S
C1205 C1203 1.561 . S
C1206 C1203 1.526 . S
C1206 C1207 1.396 . S
C1206 C1211 1.390 . S
C1207 C1201 1.465 . S
C1207 C1206 1.396 . S
C1207 C1208 1.399 . S
C1208 H1194 0.929 . S
C1208 C1207 1.399 . S
C1208 C1209 1.385 . S
C1209 H1195 0.931 . S
C1209 C1208 1.385 . S
C1209 C1210 1.389 . S
C1210 C1209 1.389 . S
C1210 C1211 1.387 . S
C1211 H1196 0.930 . S
C1211 C1206 1.390 . S
C1211 C1210 1.387 . S
H1212 C1224 0.930 . S
H1213 C1226 0.930 . S
H1214 C1227 0.930 . S
H1215 C1231 0.959 . S
H1216 C1231 0.959 . S
H1217 C1231 0.961 . S
H1218 C1232 0.960 . S
H1219 C1232 0.961 . S
H1220 C1232 0.959 . S
H1221 C1235 0.929 . S
H1222 C1236 0.931 . S
H1223 C1238 0.930 . S
C1224 H1212 0.930 . S
C1224 C1225 1.399 . S
C1224 C1229 1.399 . S
C1225 C1224 1.399 . S
C1225 C1226 1.376 . S
C1226 H1213 0.930 . S
C1226 C1225 1.376 . S
C1226 C1227 1.388 . S
C1227 H1214 0.930 . S
C1227 C1226 1.388 . S
C1227 C1228 1.390 . S
C1228 C1227 1.390 . S
C1228 C1229 1.394 . S
C1228 C1234 1.465 . S
C1229 C1224 1.399 . S
C1229 C1228 1.394 . S
C1229 C1230 1.516 . S
C1230 C1229 1.516 . S
C1230 C1231 1.502 . S
C1230 C1232 1.561 . S
C1230 C1233 1.526 . S
C1231 H1215 0.959 . S
C1231 H1216 0.959 . S
C1231 H1217 0.961 . S
C1231 C1230 1.502 . S
C1232 H1218 0.960 . S
C1232 H1219 0.961 . S
C1232 H1220 0.959 . S
C1232 C1230 1.561 . S
C1233 C1230 1.526 . S
C1233 C1234 1.396 . S
C1233 C1238 1.390 . S
C1234 C1228 1.465 . S
C1234 C1233 1.396 . S
C1234 C1235 1.399 . S
C1235 H1221 0.929 . S
C1235 C1234 1.399 . S
C1235 C1236 1.385 . S
C1236 H1222 0.931 . S
C1236 C1235 1.385 . S
C1236 C1237 1.389 . S
C1237 C1236 1.389 . S
C1237 C1238 1.387 . S
C1238 H1223 0.930 . S
C1238 C1233 1.390 . S
C1238 C1237 1.387 . S
H1239 C1251 0.930 . S
H1240 C1253 0.930 . S
H1241 C1254 0.930 . S
H1242 C1258 0.959 . S
H1243 C1258 0.959 . S
H1244 C1258 0.961 . S
H1245 C1259 0.960 . S
H1246 C1259 0.961 . S
H1247 C1259 0.959 . S
H1248 C1262 0.929 . S
H1249 C1263 0.931 . S
H1250 C1265 0.930 . S
C1251 H1239 0.930 . S
C1251 C1252 1.399 . S
C1251 C1256 1.399 . S
C1252 C1251 1.399 . S
C1252 C1253 1.376 . S
C1253 H1240 0.930 . S
C1253 C1252 1.376 . S
C1253 C1254 1.388 . S
C1254 H1241 0.930 . S
C1254 C1253 1.388 . S
C1254 C1255 1.390 . S
C1255 C1254 1.390 . S
C1255 C1256 1.394 . S
C1255 C1261 1.465 . S
C1256 C1251 1.399 . S
C1256 C1255 1.394 . S
C1256 C1257 1.516 . S
C1257 C1256 1.516 . S
C1257 C1258 1.502 . S
C1257 C1259 1.561 . S
C1257 C1260 1.526 . S
C1258 H1242 0.959 . S
C1258 H1243 0.959 . S
C1258 H1244 0.961 . S
C1258 C1257 1.502 . S
C1259 H1245 0.960 . S
C1259 H1246 0.961 . S
C1259 H1247 0.959 . S
C1259 C1257 1.561 . S
C1260 C1257 1.526 . S
C1260 C1261 1.396 . S
C1260 C1265 1.390 . S
C1261 C1255 1.465 . S
C1261 C1260 1.396 . S
C1261 C1262 1.399 . S
C1262 H1248 0.929 . S
C1262 C1261 1.399 . S
C1262 C1263 1.385 . S
C1263 H1249 0.931 . S
C1263 C1262 1.385 . S
C1263 C1264 1.389 . S
C1264 C1263 1.389 . S
C1264 C1265 1.387 . S
C1265 H1250 0.930 . S
C1265 C1260 1.390 . S
C1265 C1264 1.387 . S
H1266 C1278 0.930 . S
H1267 C1280 0.930 . S
H1268 C1281 0.930 . S
H1269 C1285 0.959 . S
H1270 C1285 0.959 . S
H1271 C1285 0.961 . S
H1272 C1286 0.960 . S
H1273 C1286 0.961 . S
H1274 C1286 0.959 . S
H1275 C1289 0.929 . S
H1276 C1290 0.931 . S
H1277 C1292 0.930 . S
C1278 H1266 0.930 . S
C1278 C1279 1.399 . S
C1278 C1283 1.399 . S
C1279 C1278 1.399 . S
C1279 C1280 1.376 . S
C1280 H1267 0.930 . S
C1280 C1279 1.376 . S
C1280 C1281 1.388 . S
C1281 H1268 0.930 . S
C1281 C1280 1.388 . S
C1281 C1282 1.390 . S
C1282 C1281 1.390 . S
C1282 C1283 1.394 . S
C1282 C1288 1.465 . S
C1283 C1278 1.399 . S
C1283 C1282 1.394 . S
C1283 C1284 1.516 . S
C1284 C1283 1.516 . S
C1284 C1285 1.502 . S
C1284 C1286 1.561 . S
C1284 C1287 1.526 . S
C1285 H1269 0.959 . S
C1285 H1270 0.959 . S
C1285 H1271 0.961 . S
C1285 C1284 1.502 . S
C1286 H1272 0.960 . S
C1286 H1273 0.961 . S
C1286 H1274 0.959 . S
C1286 C1284 1.561 . S
C1287 C1284 1.526 . S
C1287 C1288 1.396 . S
C1287 C1292 1.390 . S
C1288 C1282 1.465 . S
C1288 C1287 1.396 . S
C1288 C1289 1.399 . S
C1289 H1275 0.929 . S
C1289 C1288 1.399 . S
C1289 C1290 1.385 . S
C1290 H1276 0.931 . S
C1290 C1289 1.385 . S
C1290 C1291 1.389 . S
C1291 C1290 1.389 . S
C1291 C1292 1.387 . S
C1292 H1277 0.930 . S
C1292 C1287 1.390 . S
C1292 C1291 1.387 . S
H1293 C1305 0.930 . S
H1294 C1307 0.930 . S
H1295 C1308 0.930 . S
H1296 C1312 0.959 . S
H1297 C1312 0.959 . S
H1298 C1312 0.961 1_556 S
H1299 C1313 0.960 1_556 S
H1300 C1313 0.961 . S
H1301 C1313 0.959 . S
H1302 C1316 0.929 . S
H1303 C1317 0.931 . S
H1304 C1319 0.930 . S
C1305 H1293 0.930 . S
C1305 C1306 1.399 1_455 S
C1305 C1310 1.399 . S
C1306 C1305 1.399 1_655 S
C1306 C1307 1.376 . S
C1307 H1294 0.930 . S
C1307 C1306 1.376 . S
C1307 C1308 1.388 . S
C1308 H1295 0.930 . S
C1308 C1307 1.388 . S
C1308 C1309 1.390 . S
C1309 C1308 1.390 . S
C1309 C1310 1.394 1_655 S
C1309 C1315 1.465 1_556 S
C1310 C1305 1.399 . S
C1310 C1309 1.394 1_455 S
C1310 C1311 1.516 1_556 S
C1311 C1310 1.516 1_554 S
C1311 C1312 1.502 . S
C1311 C1313 1.561 1_455 S
C1311 C1314 1.526 . S
C1312 H1296 0.959 . S
C1312 H1297 0.959 . S
C1312 H1298 0.961 1_554 S
C1312 C1311 1.502 . S
C1313 H1299 0.960 1_554 S
C1313 H1300 0.961 . S
C1313 H1301 0.959 . S
C1313 C1311 1.561 1_655 S
C1314 C1311 1.526 . S
C1314 C1315 1.396 1_455 S
C1314 C1319 1.390 . S
C1315 C1309 1.465 1_554 S
C1315 C1314 1.396 1_655 S
C1315 C1316 1.399 . S
C1316 H1302 0.929 . S
C1316 C1315 1.399 . S
C1316 C1317 1.385 . S
C1317 H1303 0.931 . S
C1317 C1316 1.385 . S
C1317 C1318 1.389 1_655 S
C1318 C1317 1.389 1_455 S
C1318 C1319 1.387 . S
C1319 H1304 0.930 . S
C1319 C1314 1.390 . S
C1319 C1318 1.387 . S
C685 C56 1.553 . S
C697 C308 1.587 . S
C712 C74 1.432 . S
C724 C140 1.415 . S
C739 C158 1.329 . S
C751 C242 1.302 . S
C766 C224 1.403 . S
C778 C326 1.430 . S
C793 C67 1.620 . S
C805 C487 1.582 . S
C820 C63 1.431 . S
C832 C403 1.403 . S
C847 C399 1.280 . S
C859 C231 1.308 . S
C874 C483 1.495 . S
C886 C235 1.484 . S
C901 C560 1.560 . S
C913 C476 1.621 . S
C928 C392 1.403 . S
C940 C578 1.441 . S
C955 C662 1.313 . S
C967 C410 1.289 . S
C982 C494 1.478 . S
C994 C644 1.478 . S
C1009 C319 1.600 . S
C1021 C571 1.622 . S
C1036 C567 1.435 . S
C1048 C151 1.410 . S
C1063 C147 1.345 . S
C1075 C651 1.336 . S
C1090 C315 1.490 . S
C1102 C655 1.472 . S
C1117 C70 1.397 . S
C1129 C58 1.448 1_545 S
C1144 C142 1.438 . S
C1156 C154 1.384 . S
C1171 C238 1.357 1_565 S
C1183 C226 1.453 1_545 S
C1198 C322 1.445 . S
C1210 C310 1.391 . S
C1225 C394 1.434 . S
C1237 C406 1.389 . S
C1252 C490 1.348 . S
C1264 C478 1.455 . S
C1279 C562 1.458 . S
C1291 C574 1.348 . S
C1306 C646 1.342 . S
C1318 C658 1.465 . S
