# Generated by pormake.
# Topology ukk, (4)-cn, num edge types: 1
# Building blocks:
#     Node 0, Type 0, BuildingBlock: ESEHIV_clean_sbu_0, # of connection points: 4
#     Node 1, Type 0, BuildingBlock: ESEHIV_clean_sbu_0, # of connection points: 4
#     Node 2, Type 0, BuildingBlock: ESEHIV_clean_sbu_0, # of connection points: 4
#     Node 3, Type 0, BuildingBlock: ESEHIV_clean_sbu_0, # of connection points: 4
#     Node 4, Type 0, BuildingBlock: ESEHIV_clean_sbu_0, # of connection points: 4
#     Node 5, Type 0, BuildingBlock: ESEHIV_clean_sbu_0, # of connection points: 4
#     Node 6, Type 0, BuildingBlock: ESEHIV_clean_sbu_0, # of connection points: 4
#     Node 7, Type 0, BuildingBlock: ESEHIV_clean_sbu_0, # of connection points: 4
#     Node 8, Type 0, BuildingBlock: ESEHIV_clean_sbu_0, # of connection points: 4
#     Node 9, Type 0, BuildingBlock: ESEHIV_clean_sbu_0, # of connection points: 4
#     Node 10, Type 0, BuildingBlock: ESEHIV_clean_sbu_0, # of connection points: 4
#     Node 11, Type 0, BuildingBlock: ESEHIV_clean_sbu_0, # of connection points: 4
#     Node 12, Type 0, BuildingBlock: ESEHIV_clean_sbu_0, # of connection points: 4
#     Node 13, Type 0, BuildingBlock: ESEHIV_clean_sbu_0, # of connection points: 4
#     Node 14, Type 0, BuildingBlock: ESEHIV_clean_sbu_0, # of connection points: 4
#     Node 15, Type 0, BuildingBlock: ESEHIV_clean_sbu_0, # of connection points: 4
#     Edge 16, Type (0, 0), BuildingBlock: EZIPEK_clean_linker_0, # of connection points: 2
#     Edge 17, Type (0, 0), BuildingBlock: EZIPEK_clean_linker_0, # of connection points: 2
#     Edge 18, Type (0, 0), BuildingBlock: EZIPEK_clean_linker_0, # of connection points: 2
#     Edge 19, Type (0, 0), BuildingBlock: EZIPEK_clean_linker_0, # of connection points: 2
#     Edge 20, Type (0, 0), BuildingBlock: EZIPEK_clean_linker_0, # of connection points: 2
#     Edge 21, Type (0, 0), BuildingBlock: EZIPEK_clean_linker_0, # of connection points: 2
#     Edge 22, Type (0, 0), BuildingBlock: EZIPEK_clean_linker_0, # of connection points: 2
#     Edge 23, Type (0, 0), BuildingBlock: EZIPEK_clean_linker_0, # of connection points: 2
#     Edge 24, Type (0, 0), BuildingBlock: EZIPEK_clean_linker_0, # of connection points: 2
#     Edge 25, Type (0, 0), BuildingBlock: EZIPEK_clean_linker_0, # of connection points: 2
#     Edge 26, Type (0, 0), BuildingBlock: EZIPEK_clean_linker_0, # of connection points: 2
#     Edge 27, Type (0, 0), BuildingBlock: EZIPEK_clean_linker_0, # of connection points: 2
#     Edge 28, Type (0, 0), BuildingBlock: EZIPEK_clean_linker_0, # of connection points: 2
#     Edge 29, Type (0, 0), BuildingBlock: EZIPEK_clean_linker_0, # of connection points: 2
#     Edge 30, Type (0, 0), BuildingBlock: EZIPEK_clean_linker_0, # of connection points: 2
#     Edge 31, Type (0, 0), BuildingBlock: EZIPEK_clean_linker_0, # of connection points: 2
#     Edge 32, Type (0, 0), BuildingBlock: EZIPEK_clean_linker_0, # of connection points: 2
#     Edge 33, Type (0, 0), BuildingBlock: EZIPEK_clean_linker_0, # of connection points: 2
#     Edge 34, Type (0, 0), BuildingBlock: EZIPEK_clean_linker_0, # of connection points: 2
#     Edge 35, Type (0, 0), BuildingBlock: EZIPEK_clean_linker_0, # of connection points: 2
#     Edge 36, Type (0, 0), BuildingBlock: EZIPEK_clean_linker_0, # of connection points: 2
#     Edge 37, Type (0, 0), BuildingBlock: EZIPEK_clean_linker_0, # of connection points: 2
#     Edge 38, Type (0, 0), BuildingBlock: EZIPEK_clean_linker_0, # of connection points: 2
#     Edge 39, Type (0, 0), BuildingBlock: EZIPEK_clean_linker_0, # of connection points: 2
#     Edge 40, Type (0, 0), BuildingBlock: EZIPEK_clean_linker_0, # of connection points: 2
#     Edge 41, Type (0, 0), BuildingBlock: EZIPEK_clean_linker_0, # of connection points: 2
#     Edge 42, Type (0, 0), BuildingBlock: EZIPEK_clean_linker_0, # of connection points: 2
#     Edge 43, Type (0, 0), BuildingBlock: EZIPEK_clean_linker_0, # of connection points: 2
#     Edge 44, Type (0, 0), BuildingBlock: EZIPEK_clean_linker_0, # of connection points: 2
#     Edge 45, Type (0, 0), BuildingBlock: EZIPEK_clean_linker_0, # of connection points: 2
#     Edge 46, Type (0, 0), BuildingBlock: EZIPEK_clean_linker_0, # of connection points: 2
#     Edge 47, Type (0, 0), BuildingBlock: EZIPEK_clean_linker_0, # of connection points: 2
# Relax obj value: 0.037
# Max RMSD: 0.121
# Mean RMSD: 0.121
data_MOF--net-ukk--node1-ESEHIV_clean_sbu_0--edge1-EZIPEK_clean_linker_0
_symmetry_space_group_name_H-M    P1
_symmetry_Int_Tables_number       1
_symmetry_cell_setting            triclinic
loop_
_symmetry_equiv_pos_as_xyz
'x, y, z'
_cell_length_a     42.78436
_cell_length_b     42.917766
_cell_length_c     18.266969
_cell_angle_alpha  90.30591
_cell_angle_beta   90.235183
_cell_angle_gamma 89.902654
loop_
_atom_site_label
_atom_site_type_symbol
_atom_site_fract_x
_atom_site_fract_y
_atom_site_fract_z
_atom_type_partial_charge
Cu0 Cu 0.4 0.14055 0.12157 0.0
N1 N 0.44371 0.13929 0.10799 0.0
N2 N 0.49482 0.14113 0.13566 0.0
C3 C 0.46533 0.14229 0.16177 0.0
C4 C 0.49177 0.13734 0.06265 0.0
C5 C 0.46021 0.13632 0.04568 0.0
O6 O 0.39034 0.11175 0.20123 0.0
C7 C 0.39424 0.20298 0.092 0.0
O8 O 0.40296 0.19241 0.02761 0.0
H9 H 0.45958 0.1452 0.21905 0.0
H10 H 0.45003 0.13366 0.99173 0.0
N11 N 0.37644 0.12908 0.03781 0.0
N12 N 0.33693 0.12644 0.95656 0.0
C13 C 0.34872 0.1413 0.0161 0.0
C14 C 0.38228 0.10577 0.99015 0.0
C15 C 0.35802 0.10411 0.94008 0.0
C16 C 0.40222 0.08449 0.19768 0.0
O17 O 0.42002 0.07714 0.14179 0.0
H18 H 0.33706 0.16027 0.04423 0.0
H19 H 0.40251 0.09066 0.99244 0.0
O20 O 0.39034 0.18379 0.14416 0.0
H21 H 0.51099 0.13529 0.02456 0.0
H22 H 0.35577 0.08752 0.89552 0.0
Cu23 Cu 0.16238 0.66681 0.89387 0.0
N24 N 0.1769 0.64476 0.8109 0.0
N25 N 0.18591 0.6012 0.74516 0.0
C26 C 0.16665 0.61595 0.79247 0.0
C27 C 0.20938 0.62152 0.73317 0.0
C28 C 0.2038 0.6483 0.77381 0.0
O29 O 0.11915 0.65354 0.90594 0.0
C30 C 0.21884 0.67203 0.96367 0.0
O31 O 0.22006 0.6957 0.91867 0.0
H32 H 0.14669 0.605 0.81742 0.0
H33 H 0.21943 0.66792 0.77996 0.0
N34 N 0.16045 0.71073 0.8896 0.0
N35 N 0.1552 0.75948 0.93245 0.0
C36 C 0.15343 0.72885 0.94801 0.0
C37 C 0.16673 0.7307 0.83496 0.0
C38 C 0.16352 0.76088 0.86138 0.0
C39 C 0.10301 0.66059 0.84943 0.0
O40 O 0.11674 0.67501 0.79514 0.0
H41 H 0.14768 0.71972 1.00141 0.0
H42 H 0.17368 0.72383 0.78034 0.0
O43 O 0.19341 0.65659 0.96864 0.0
H44 H 0.2297 0.61681 0.69973 0.0
H45 H 0.16729 0.78216 0.83116 0.0
Cu46 Cu 0.64694 0.88765 0.10628 0.0
N47 N 0.60362 0.88149 0.09357 0.0
N48 N 0.55249 0.87837 0.11907 0.0
C49 C 0.58144 0.88415 0.14581 0.0
C50 C 0.5565 0.8718 0.04749 0.0
C51 C 0.58804 0.8737 0.03192 0.0
O52 O 0.64945 0.92123 0.18086 0.0
C53 C 0.66216 0.82407 0.09133 0.0
O54 O 0.64984 0.8288 0.02636 0.0
H55 H 0.58635 0.89043 0.20217 0.0
H56 H 0.59884 0.86981 0.97922 0.0
N57 N 0.66552 0.9004 0.01708 0.0
N58 N 0.69774 0.90558 0.92072 0.0
C59 C 0.69348 0.89243 0.98741 0.0
C60 C 0.65202 0.91931 0.96756 0.0
C61 C 0.67169 0.9225 0.9084 0.0
C62 C 0.67275 0.93837 0.1979 0.0
O63 O 0.69999 0.93284 0.16749 0.0
H64 H 0.71022 0.87715 0.01363 0.0
H65 H 0.6292 0.92987 0.97384 0.0
O66 O 0.66447 0.84707 0.13593 0.0
H67 H 0.5379 0.86625 1.00925 0.0
H68 H 0.66723 0.93618 0.85982 0.0
Cu69 Cu 0.90722 0.40028 0.89352 0.0
N70 N 0.90382 0.44114 0.93049 0.0
N71 N 0.89605 0.49267 0.93566 0.0
C72 C 0.89741 0.46719 0.89217 0.0
C73 C 0.9018 0.48246 1.00402 0.0
C74 C 0.90639 0.45059 1.00073 0.0
O75 O 0.94062 0.39706 0.81928 0.0
C76 C 0.85382 0.40292 0.79941 0.0
O77 O 0.87124 0.42075 0.75808 0.0
H78 H 0.89476 0.46773 0.83329 0.0
H79 H 0.91151 0.43539 0.04628 0.0
N80 N 0.91866 0.37309 0.96991 0.0
N81 N 0.92139 0.33392 0.05066 0.0
C82 C 0.90322 0.34907 1.00118 0.0
C83 C 0.9472 0.37306 1.00113 0.0
C84 C 0.94895 0.34907 0.05072 0.0
C85 C 0.96145 0.41806 0.8111 0.0
O86 O 0.95941 0.44382 0.84969 0.0
H87 H 0.87958 0.34237 0.98695 0.0
H88 H 0.96572 0.38912 0.98753 0.0
O89 O 0.86566 0.38997 0.85577 0.0
H90 H 0.90316 0.49709 0.05237 0.0
H91 H 0.96906 0.34291 0.08382 0.0
Cu92 Cu 0.39811 0.39924 0.09887 0.0
N93 N 0.44155 0.3997 0.10888 0.0
N94 N 0.49126 0.39845 0.07216 0.0
C95 C 0.46113 0.395 0.05223 0.0
C96 C 0.49083 0.40563 0.14412 0.0
C97 C 0.45997 0.40647 0.16674 0.0
O98 O 0.39151 0.42819 0.01966 0.0
C99 C 0.39124 0.33684 0.12965 0.0
O100 O 0.40254 0.34673 0.19253 0.0
H101 H 0.45342 0.38938 0.99721 0.0
H102 H 0.45157 0.412 0.22105 0.0
N103 N 0.37671 0.41468 0.18107 0.0
N104 N 0.33736 0.42392 0.25894 0.0
C105 C 0.34993 0.40367 0.21017 0.0
C106 C 0.38123 0.44267 0.21286 0.0
C107 C 0.35705 0.44843 0.26084 0.0
C108 C 0.36589 0.44111 1.00214 0.0
O109 O 0.33953 0.4308 0.02946 0.0
H110 H 0.33884 0.38223 0.19273 0.0
H111 H 0.39984 0.45856 0.19887 0.0
O112 O 0.38618 0.35638 0.07867 0.0
H113 H 0.51131 0.40998 0.1776 0.0
H114 H 0.35347 0.46951 0.29256 0.0
Cu115 Cu 0.40558 0.65138 0.90048 0.0
N116 N 0.39945 0.61041 0.86633 0.0
N117 N 0.38728 0.5597 0.86745 0.0
C118 C 0.39883 0.58401 0.90612 0.0
C119 C 0.38071 0.57097 0.80042 0.0
C120 C 0.38843 0.60221 0.79976 0.0
O121 O 0.44198 0.65298 0.96685 0.0
C122 C 0.34943 0.6489 0.98492 0.0
O123 O 0.36119 0.62305 0.0111 0.0
H124 H 0.40463 0.58289 0.96362 0.0
H125 H 0.38426 0.61833 0.75545 0.0
N126 N 0.41538 0.67697 0.8204 0.0
N127 N 0.41594 0.71534 0.7375 0.0
C128 C 0.39941 0.70116 0.79099 0.0
C129 C 0.44257 0.67578 0.78374 0.0
C130 C 0.443 0.69933 0.73281 0.0
C131 C 0.4453 0.63947 0.0284 0.0
O132 O 0.42207 0.62369 0.05643 0.0
H133 H 0.37664 0.70877 0.80962 0.0
H134 H 0.46114 0.6593 0.79465 0.0
O135 O 0.36565 0.66544 0.94152 0.0
H136 H 0.36971 0.55792 0.75651 0.0
H137 H 0.46194 0.7047 0.69586 0.0
Cu138 Cu 0.65768 0.63322 0.19575 0.0
N139 N 0.61418 0.63117 0.20843 0.0
N140 N 0.5632 0.63337 0.18151 0.0
C141 C 0.59251 0.63239 0.15456 0.0
C142 C 0.56637 0.63279 0.2549 0.0
C143 C 0.5979 0.63153 0.27141 0.0
O144 O 0.67095 0.59642 0.13636 0.0
C145 C 0.68712 0.69245 0.14568 0.0
O146 O 0.71518 0.68036 0.15263 0.0
H147 H 0.59811 0.6332 0.09686 0.0
H148 H 0.60825 0.63165 0.32553 0.0
N149 N 0.67853 0.62961 0.28667 0.0
N150 N 0.71632 0.63134 0.37236 0.0
C151 C 0.7039 0.64512 0.3123 0.0
C152 C 0.6745 0.60582 0.33339 0.0
C153 C 0.69771 0.60673 0.38583 0.0
C154 C 0.65736 0.57021 0.14746 0.0
O155 O 0.63357 0.56947 0.19262 0.0
H156 H 0.71415 0.66501 0.28568 0.0
H157 H 0.65676 0.58808 0.32759 0.0
O158 O 0.66302 0.6756 0.1562 0.0
H159 H 0.54727 0.63367 0.29354 0.0
H160 H 0.70139 0.58994 0.42904 0.0
Cu161 Cu 0.66687 0.37976 0.88346 0.0
N162 N 0.67929 0.40254 0.96803 0.0
N163 N 0.68509 0.44633 0.03554 0.0
C164 C 0.66894 0.43188 0.98145 0.0
C165 C 0.70663 0.42522 0.05724 0.0
C166 C 0.70305 0.39832 0.01559 0.0
O167 O 0.6225 0.39034 0.8746 0.0
C168 C 0.7247 0.38188 0.82375 0.0
O169 O 0.72791 0.36168 0.87682 0.0
H170 H 0.6509 0.44311 0.94948 0.0
H171 H 0.7177 0.37779 0.01771 0.0
N172 N 0.6682 0.33535 0.88194 0.0
N173 N 0.66491 0.28727 0.83179 0.0
C174 C 0.65747 0.31784 0.8252 0.0
C175 C 0.68256 0.31495 0.92673 0.0
C176 C 0.68076 0.28543 0.89575 0.0
C177 C 0.60785 0.38118 0.93149 0.0
O178 O 0.62344 0.36563 0.98154 0.0
H179 H 0.64551 0.32758 0.77823 0.0
H180 H 0.69472 0.32126 0.97666 0.0
O181 O 0.69755 0.39323 0.81073 0.0
H182 H 0.72414 0.42923 0.09917 0.0
H183 H 0.69096 0.26433 0.91765 0.0
Cu184 Cu 0.88848 0.65891 0.70526 0.0
N185 N 0.9322 0.65683 0.69617 0.0
N186 N 0.98275 0.65481 0.72694 0.0
C187 C 0.95315 0.6542 0.75127 0.0
C188 C 0.98074 0.65789 0.65375 0.0
C189 C 0.94943 0.65911 0.63483 0.0
O190 O 0.87603 0.62423 0.768 0.0
C191 C 0.8944 0.71853 0.77654 0.0
O192 O 0.91667 0.70543 0.81515 0.0
H193 H 0.9471 0.65242 0.80835 0.0
H194 H 0.93991 0.6621 0.58039 0.0
N195 N 0.86922 0.64975 0.61497 0.0
N196 N 0.83155 0.64307 0.53048 0.0
C197 C 0.84153 0.66019 0.5886 0.0
C198 C 0.87702 0.62556 0.57157 0.0
C199 C 0.85396 0.62141 0.5196 0.0
C200 C 0.88416 0.61903 0.83389 0.0
O201 O 0.8976 0.6411 0.87266 0.0
H202 H 0.828 0.67854 0.6143 0.0
H203 H 0.89716 0.61071 0.58011 0.0
O204 O 0.8778 0.70191 0.73322 0.0
H205 H 1.00045 0.65978 0.6171 0.0
H206 H 0.85297 0.60302 0.47885 0.0
Cu207 Cu 0.64763 0.13727 0.43421 0.0
N208 N 0.65077 0.09324 0.43769 0.0
N209 N 0.65826 0.0443 0.39578 0.0
C210 C 0.64807 0.07341 0.37997 0.0
C211 C 0.66772 0.04582 0.46628 0.0
C212 C 0.66313 0.07591 0.49184 0.0
O213 O 0.61237 0.14687 0.3678 0.0
C214 C 0.70245 0.17653 0.41112 0.0
O215 O 0.68578 0.20076 0.43144 0.0
H216 H 0.64065 0.0805 0.32595 0.0
H217 H 0.67011 0.08497 0.54479 0.0
N218 N 0.63787 0.15609 0.5264 0.0
N219 N 0.63746 0.18936 0.6228 0.0
C220 C 0.65514 0.17488 0.57105 0.0
C221 C 0.6085 0.15862 0.55207 0.0
C222 C 0.60816 0.17896 0.61085 0.0
C223 C 0.61119 0.14297 0.29854 0.0
O224 O 0.63648 0.13471 0.26291 0.0
H225 H 0.67976 0.17934 0.56373 0.0
H226 H 0.58831 0.14778 0.52689 0.0
O227 O 0.68945 0.15003 0.40329 0.0
H228 H 0.67842 0.02684 0.49614 0.0
H229 H 0.58771 0.18654 0.64082 0.0
Cu230 Cu 0.16246 0.41558 0.58126 0.0
N231 N 0.11834 0.41478 0.57806 0.0
N232 N 0.06904 0.41388 0.61987 0.0
C233 C 0.09946 0.40768 0.63471 0.0
C234 C 0.06876 0.42475 0.55072 0.0
C235 C 0.09904 0.42501 0.5249 0.0
O236 O 0.17527 0.45163 0.64245 0.0
C237 C 0.16959 0.35104 0.57265 0.0
O238 O 0.15454 0.35634 0.51112 0.0
H239 H 0.10803 0.39976 0.68729 0.0
H240 H 0.10647 0.43343 0.47218 0.0
N241 N 0.18101 0.42268 0.48949 0.0
N242 N 0.21938 0.42615 0.40656 0.0
C243 C 0.20911 0.41169 0.46753 0.0
C244 C 0.17334 0.44475 0.44039 0.0
C245 C 0.19687 0.44688 0.38928 0.0
C246 C 0.16193 0.47783 0.62992 0.0
O247 O 0.13925 0.47888 0.58139 0.0
H248 H 0.22278 0.39508 0.49847 0.0
H249 H 0.15316 0.45982 0.44409 0.0
O250 O 0.17635 0.37416 0.61431 0.0
H251 H 0.04818 0.43291 0.52185 0.0
H252 H 0.19809 0.46339 0.34476 0.0
Cu253 Cu 0.39394 0.88511 0.39512 0.0
N254 N 0.39528 0.92837 0.41184 0.0
N255 N 0.39478 0.97954 0.38906 0.0
C256 C 0.39214 0.95065 0.36045 0.0
C257 C 0.39929 0.97557 0.46146 0.0
C258 C 0.39944 0.94393 0.47544 0.0
O259 O 0.42834 0.87498 0.32734 0.0
C260 C 0.32916 0.87939 0.40835 0.0
O261 O 0.33669 0.88361 0.4775 0.0
H262 H 0.38827 0.94598 0.303 0.0
H263 H 0.40265 0.93307 0.52822 0.0
N264 N 0.40336 0.86322 0.48186 0.0
N265 N 0.40795 0.82567 0.56635 0.0
C266 C 0.39132 0.83637 0.50828 0.0
C267 C 0.42824 0.86946 0.52477 0.0
C268 C 0.43106 0.84653 0.5768 0.0
C269 C 0.43241 0.88532 0.26275 0.0
O270 O 0.41028 0.90169 0.23109 0.0
H271 H 0.37172 0.82422 0.48373 0.0
H272 H 0.44408 0.88874 0.51671 0.0
O273 O 0.35106 0.87678 0.3613 0.0
H274 H 0.40286 0.99417 0.50085 0.0
H275 H 0.44925 0.84474 0.61795 0.0
Cu276 Cu 0.8849 0.90377 0.64024 0.0
N277 N 0.90627 0.89167 0.55394 0.0
N278 N 0.9483 0.88704 0.48075 0.0
C279 C 0.93579 0.90123 0.54 0.0
C280 C 0.92576 0.86754 0.45627 0.0
C281 C 0.89987 0.87046 0.5014 0.0
O282 O 0.89485 0.94825 0.64866 0.0
C283 C 0.88653 0.8465 0.69924 0.0
O284 O 0.86801 0.84335 0.64227 0.0
H285 H 0.94838 0.91753 0.57438 0.0
H286 H 0.87836 0.85735 0.49735 0.0
N287 N 0.84075 0.90144 0.64607 0.0
N288 N 0.79428 0.90004 0.70304 0.0
C289 C 0.82546 0.90385 0.71057 0.0
C290 C 0.81833 0.89588 0.5957 0.0
C291 C 0.78961 0.89506 0.63077 0.0
C292 C 0.88453 0.96303 0.59282 0.0
O293 O 0.8682 0.9476 0.54358 0.0
H294 H 0.83708 0.90797 0.76247 0.0
H295 H 0.82256 0.89226 0.53794 0.0
O296 O 0.89854 0.87324 0.71295 0.0
H297 H 0.92801 0.85204 0.40965 0.0
H298 H 0.76709 0.8909 0.60536 0.0
Cu299 Cu 0.9013 0.17114 0.40673 0.0
N300 N 0.90216 0.12722 0.40562 0.0
N301 N 0.90053 0.0784 0.44837 0.0
C302 C 0.8951 0.10877 0.46297 0.0
C303 C 0.91116 0.07747 0.37904 0.0
C304 C 0.9121 0.10762 0.35274 0.0
O305 O 0.93519 0.18367 0.47339 0.0
C306 C 0.83749 0.17715 0.38488 0.0
O307 O 0.84578 0.16522 0.32152 0.0
H308 H 0.88636 0.11731 0.51474 0.0
H309 H 0.92003 0.11468 0.29927 0.0
N310 N 0.91125 0.18885 0.31529 0.0
N311 N 0.91584 0.22434 0.22601 0.0
C312 C 0.89972 0.21545 0.28605 0.0
C313 C 0.93545 0.18085 0.27217 0.0
C314 C 0.93822 0.20253 0.21706 0.0
C315 C 0.93817 0.17537 0.53995 0.0
O316 O 0.91472 0.16203 0.57342 0.0
H317 H 0.88114 0.22901 0.3106 0.0
H318 H 0.95113 0.16156 0.28244 0.0
O319 O 0.85855 0.18306 0.43279 0.0
H320 H 0.91814 0.05654 0.35006 0.0
H321 H 0.95612 0.20301 0.17535 0.0
Cu322 Cu 0.15363 0.15912 0.64967 0.0
N323 N 0.11217 0.15996 0.68184 0.0
N324 N 0.06019 0.16446 0.67336 0.0
C325 C 0.0877 0.16694 0.63813 0.0
C326 C 0.06749 0.15556 0.74206 0.0
C327 C 0.0997 0.15289 0.74725 0.0
O328 O 0.15173 0.12903 0.56793 0.0
C329 C 0.18695 0.21795 0.61605 0.0
O330 O 0.21387 0.20324 0.61773 0.0
H331 H 0.08994 0.1728 0.58082 0.0
H332 H 0.11299 0.14562 0.7947 0.0
N333 N 0.18077 0.14312 0.72266 0.0
N334 N 0.22135 0.13393 0.79823 0.0
C335 C 0.2064 0.1553 0.75609 0.0
C336 C 0.17952 0.11338 0.74553 0.0
C337 C 0.20436 0.10766 0.79173 0.0
C338 C 0.17408 0.11208 0.5443 0.0
O339 O 0.20267 0.11768 0.56728 0.0
H340 H 0.21452 0.17889 0.74832 0.0
H341 H 0.16219 0.09664 0.72759 0.0
O342 O 0.16157 0.20295 0.62482 0.0
H343 H 0.05071 0.15059 0.7846 0.0
H344 H 0.21 0.08566 0.81739 0.0
Cu345 Cu 0.13527 0.91066 0.31991 0.0
N346 N 0.14078 0.95456 0.32113 0.0
N347 N 0.14969 1.00344 0.36137 0.0
C348 C 0.14062 0.9742 0.37954 0.0
C349 C 0.15587 1.00211 0.28915 0.0
C350 C 0.15045 0.97211 0.26466 0.0
O351 O 0.09668 0.89876 0.37289 0.0
C352 C 0.19915 0.89643 0.32289 0.0
O353 O 0.19742 0.90987 0.25859 0.0
H354 H 0.13525 0.96695 0.43474 0.0
H355 H 0.1547 0.9634 0.20996 0.0
N356 N 0.13124 0.89495 0.22346 0.0
N357 N 0.13372 0.86282 0.12626 0.0
C358 C 0.14032 0.86663 0.19828 0.0
C359 C 0.1181 0.9092 0.16544 0.0
C360 C 0.11974 0.88954 0.10545 0.0
C361 C 0.07164 0.9149 0.36609 0.0
O362 O 0.07266 0.94063 0.32752 0.0
H363 H 0.15146 0.84914 0.232 0.0
H364 H 0.10778 0.93221 0.16679 0.0
O365 O 0.17419 0.89318 0.36044 0.0
H366 H 0.16471 1.02126 0.25699 0.0
H367 H 0.11106 0.89429 0.05089 0.0
C368 C 0.36779 1.02074 0.31856 0.0
C369 C 0.3957 1.00832 0.34861 0.0
C370 C 0.42549 0.0514 0.29607 0.0
C371 C 0.39845 0.06137 0.25749 0.0
N372 N 0.34383 0.05488 0.22848 0.0
N373 N 0.45169 1.00922 0.35935 0.0
C374 C 0.36941 0.04611 0.26845 0.0
C375 C 0.4247 1.02312 0.33611 0.0
N376 N 0.3398 1.00827 0.33875 0.0
N377 N 0.45175 0.06946 0.29565 0.0
H378 H 0.45191 0.9883 0.3881 0.0
H379 H 0.47386 1.01698 0.34486 0.0
H380 H 0.45264 0.09076 0.26853 0.0
H381 H 0.47132 0.06501 0.32805 0.0
H382 H 0.31825 1.01778 0.32444 0.0
H383 H 0.33828 0.98961 0.37498 0.0
H384 H 0.32289 0.04256 0.22776 0.0
H385 H 0.34408 0.07366 0.1925 0.0
C386 C 0.04979 0.68285 0.84397 0.0
C387 C 0.06881 0.65587 0.8439 0.0
C388 C 0.02731 0.62645 0.78154 0.0
C389 C 1.01071 0.65467 0.77111 0.0
N390 N 1.00477 0.70959 0.79269 0.0
N391 N 0.07515 0.60103 0.82269 0.0
C392 C 1.02131 0.68278 0.80364 0.0
C393 C 0.05711 0.62716 0.81677 0.0
N394 N 0.0594 0.70846 0.88261 0.0
N395 N 1.01433 0.59921 0.75736 0.0
H396 H 0.09559 0.60082 0.85393 0.0
H397 H 0.07006 0.57981 0.79764 0.0
H398 H 0.99285 0.59857 0.73018 0.0
H399 H 1.02378 0.57727 0.76696 0.0
H400 H 0.04598 0.72848 0.8897 0.0
H401 H 0.08004 0.70842 0.91333 0.0
H402 H 1.01248 0.73161 0.80845 0.0
H403 H 0.98372 0.70996 0.76391 0.0
C404 C 0.68024 0.99568 0.22946 0.0
C405 C 0.66869 0.96576 0.2491 0.0
C406 C 0.64668 0.98917 0.36143 0.0
C407 C 0.66158 1.0179 0.34596 0.0
N408 N 0.69869 0.0459 0.27273 0.0
N409 N 0.64595 0.93323 0.34231 0.0
C410 C 0.6801 1.02042 0.282 0.0
C411 C 0.6532 0.96229 0.31746 0.0
N412 N 0.68997 1.00112 0.15954 0.0
N413 N 0.62542 0.98783 0.41681 0.0
H414 H 0.65136 0.91289 0.31356 0.0
H415 H 0.63749 0.92913 0.39478 0.0
H416 H 0.61953 1.00725 0.44846 0.0
H417 H 0.61146 0.96842 0.42638 0.0
H418 H 0.69572 1.02325 0.1407 0.0
H419 H 0.6889 0.98436 0.11808 0.0
H420 H 0.71493 0.04764 0.2306 0.0
H421 H 0.70038 0.06369 0.3116 0.0
C422 C 0.04402 0.42767 0.73866 0.0
C423 C 0.04262 0.41263 0.66946 0.0
C424 C 0.98705 0.401 0.69095 0.0
C425 C 0.98953 0.41325 0.7633 0.0
N426 N 1.0243 0.42823 0.86219 0.0
N427 N 1.01476 0.37796 0.5884 0.0
C428 C 1.01924 0.42349 0.7891 0.0
C429 C 1.01469 0.39711 0.64825 0.0
N430 N 0.068 0.44747 0.75509 0.0
N431 N 0.95844 0.39461 0.66112 0.0
H432 H 0.03492 0.3736 0.55808 0.0
H433 H 0.99584 0.3639 0.57402 0.0
H434 H 0.93751 0.39831 0.68876 0.0
H435 H 0.95538 0.38858 0.60622 0.0
H436 H 0.0685 0.46097 0.80271 0.0
H437 H 0.08527 0.45333 0.71756 0.0
H438 H 0.04631 0.43333 0.88378 0.0
H439 H 1.00758 0.42317 0.90178 0.0
C440 C 0.35446 0.49864 0.9921 0.0
C441 C 0.36729 0.47096 0.96129 0.0
C442 C 0.3938 0.50224 0.86796 0.0
C443 C 0.37915 0.52941 0.89574 0.0
N444 N 0.33873 0.55189 0.97029 0.0
N445 N 0.39358 0.4458 0.86039 0.0
C446 C 0.3573 0.52705 0.95343 0.0
C447 C 0.38522 0.47259 0.89606 0.0
N448 N 0.34156 0.49855 0.06047 0.0
N449 N 0.41698 0.50492 0.81725 0.0
H450 H 0.38703 0.42377 0.87864 0.0
H451 H 0.40424 0.44557 0.80923 0.0
H452 H 0.42415 0.52638 0.79679 0.0
H453 H 0.43084 0.48627 0.80037 0.0
H454 H 0.33503 0.51889 0.08789 0.0
H455 H 0.34031 0.47886 0.09334 0.0
H456 H 0.32029 0.5507 1.00727 0.0
H457 H 0.33965 0.57257 0.94102 0.0
C458 C 0.48929 0.66583 0.09734 0.0
C459 C 0.47651 0.6385 0.06482 0.0
C460 C 0.52095 0.60781 0.11104 0.0
C461 C 0.53433 0.63526 0.14055 0.0
N462 N 0.5344 0.69087 0.15402 0.0
N463 N 0.48271 0.58468 0.0288 0.0
C464 C 0.51937 0.66446 0.13131 0.0
C465 C 0.49306 0.60978 0.06842 0.0
N466 N 0.47216 0.69275 0.09812 0.0
N467 N 0.53464 0.57973 0.12568 0.0
H468 H 0.46268 0.58535 0.99613 0.0
H469 H 0.49529 0.56404 0.02309 0.0
H470 H 0.55536 0.5778 0.15565 0.0
H471 H 0.52448 0.55836 0.11286 0.0
H472 H 0.47857 0.71263 0.12736 0.0
H473 H 0.45025 0.69462 0.07325 0.0
H474 H 0.5265 0.71331 0.14293 0.0
H475 H 0.55622 0.69027 0.17971 0.0
C476 C 0.67383 0.483 0.13819 0.0
C477 C 0.68056 0.47794 0.06323 0.0
C478 C 0.67378 0.53441 0.04137 0.0
C479 C 0.66927 0.5396 0.11757 0.0
N480 N 0.67485 0.51926 0.23993 0.0
N481 N 0.69421 0.5 0.9469 0.0
C482 C 0.67232 0.51398 0.16634 0.0
C483 C 0.68269 0.50405 0.01578 0.0
N484 N 0.66726 0.45824 0.1821 0.0
N485 N 0.66818 0.55789 0.99288 0.0
H486 H 0.70174 0.47837 0.92774 0.0
H487 H 0.69922 0.51841 0.91193 0.0
H488 H 0.6615 0.58023 1.00909 0.0
H489 H 0.66775 0.5545 0.93637 0.0
H490 H 0.6591 0.46075 0.23549 0.0
H491 H 0.66671 0.43536 0.16271 0.0
H492 H 0.67982 0.5017 0.27742 0.0
H493 H 0.6758 0.54163 0.26236 0.0
C494 C 0.53339 0.42092 0.99645 0.0
C495 C 0.51829 0.3945 0.02602 0.0
C496 C 0.55571 0.36032 0.96376 0.0
C497 C 0.57393 0.38663 0.94484 0.0
N498 N 0.57974 0.44239 0.93927 0.0
N499 N 0.51535 0.33914 0.04198 0.0
C500 C 0.56237 0.41715 0.95883 0.0
C501 C 0.52928 0.36416 1.00987 0.0
N502 N 0.5197 0.44951 1.00416 0.0
N503 N 0.56395 0.33164 0.93726 0.0
H504 H 0.49636 0.34149 0.07719 0.0
H505 H 0.52398 0.31649 0.03851 0.0
H506 H 0.58296 0.32851 0.90225 0.0
H507 H 0.55042 0.31172 0.94383 0.0
H508 H 0.52772 0.46958 0.97867 0.0
H509 H 0.49874 0.45266 0.03233 0.0
H510 H 0.57495 0.46507 0.95635 0.0
H511 H 0.59953 0.44049 0.90663 0.0
C512 C 0.91668 0.53793 0.86917 0.0
C513 C 0.89291 0.52459 0.91219 0.0
C514 C 0.86375 0.57401 0.90861 0.0
C515 C 0.88616 0.58618 0.85932 0.0
N516 N 0.9303 0.57666 0.77979 0.0
N517 N 0.84164 0.52775 0.96474 0.0
C518 C 0.91152 0.56722 0.83566 0.0
C519 C 0.86581 0.54208 0.92995 0.0
N520 N 0.94481 0.52311 0.8629 0.0
N521 N 0.84067 0.59293 0.93505 0.0
H522 H 0.84257 0.50437 0.98004 0.0
H523 H 0.81995 0.53816 0.97319 0.0
H524 H 0.83797 0.616 0.91841 0.0
H525 H 0.82549 0.5864 0.97664 0.0
H526 H 0.96423 0.5331 0.83812 0.0
H527 H 0.9497 0.50229 0.8898 0.0
H528 H 0.94695 0.56225 0.75551 0.0
H529 H 0.92703 0.59755 0.7523 0.0
C530 C 0.57227 0.16894 0.21338 0.0
C531 C 0.58037 0.14351 0.25935 0.0
C532 C 0.53286 0.11583 0.219 0.0
C533 C 0.52366 0.14207 0.17752 0.0
N534 N 0.53185 0.19515 0.14217 0.0
N535 N 0.56577 0.09477 0.31512 0.0
C536 C 0.54268 0.16908 0.17659 0.0
C537 C 0.5598 0.11761 0.2651 0.0
N538 N 0.593 0.19279 0.20439 0.0
N539 N 0.51657 0.08867 0.21141 0.0
H540 H 0.58539 0.09485 0.34905 0.0
H541 H 0.55002 0.0771 0.32736 0.0
H542 H 0.49716 0.08663 0.17695 0.0
H543 H 0.52375 0.06758 0.2339 0.0
H544 H 0.59013 0.21037 0.16589 0.0
H545 H 0.61417 0.19404 0.23279 0.0
H546 H 0.54288 0.21672 0.14494 0.0
H547 H 0.51034 0.1957 0.11508 0.0
C548 C 0.18091 0.56414 0.64072 0.0
C549 C 0.18294 0.56956 0.71715 0.0
C550 C 0.1735 0.5136 0.7386 0.0
C551 C 0.17326 0.50805 0.66188 0.0
N552 N 0.18586 0.5269 0.5414 0.0
N553 N 0.18884 0.54821 0.83798 0.0
C554 C 0.17984 0.53302 0.61346 0.0
C555 C 0.18153 0.54386 0.7659 0.0
N556 N 0.17829 0.58878 0.59413 0.0
N557 N 0.16463 0.49056 0.78538 0.0
H558 H 0.19572 0.56976 0.85889 0.0
H559 H 0.19115 0.52998 0.87505 0.0
H560 H 0.15866 0.46821 0.76767 0.0
H561 H 0.16092 0.4943 0.84107 0.0
H562 H 0.1735 0.58623 0.53845 0.0
H563 H 0.17771 0.61184 0.6123 0.0
H564 H 0.19354 0.5438 0.50493 0.0
H565 H 0.1866 0.5043 0.52015 0.0
C566 C 0.48167 0.91073 0.217 0.0
C567 C 0.46393 0.88312 0.22791 0.0
C568 C 0.5069 0.85213 0.17515 0.0
C569 C 0.52305 0.87993 0.15781 0.0
N570 N 0.52433 0.93578 0.15272 0.0
N571 N 0.45811 0.82771 0.21112 0.0
C572 C 0.51003 0.90927 0.17635 0.0
C573 C 0.47621 0.85379 0.20559 0.0
N574 N 0.47208 0.93817 0.24804 0.0
N575 N 0.52143 0.82416 0.16403 0.0
H576 H 0.43571 0.82808 0.23348 0.0
H577 H 0.46426 0.80617 0.18896 0.0
H578 H 0.54385 0.82248 0.14203 0.0
H579 H 0.51251 0.80296 0.1817 0.0
H580 H 0.48558 0.95834 0.24868 0.0
H581 H 0.45181 0.94016 0.2792 0.0
H582 H 0.51443 0.95788 0.1573 0.0
H583 H 0.54508 0.93538 0.12295 0.0
C584 C 0.8635 1.01547 0.56275 0.0
C585 C 0.89003 0.99683 0.5791 0.0
C586 C 0.92379 0.03692 0.52534 0.0
C587 C 0.89696 0.05235 0.49754 0.0
N588 N 0.84111 0.05608 0.48671 0.0
N589 N 0.94595 0.99012 0.57884 0.0
C590 C 0.86672 0.04187 0.51652 0.0
C591 C 0.92044 1.00794 0.56252 0.0
N592 N 0.8352 1.00761 0.59164 0.0
N593 N 0.95242 0.05038 0.51674 0.0
H594 H 0.94455 0.97011 0.61059 0.0
H595 H 0.96832 0.99464 0.55942 0.0
H596 H 0.95526 0.07149 0.48961 0.0
H597 H 0.9728 0.04214 0.54127 0.0
H598 H 0.81527 1.02143 0.58712 0.0
H599 H 0.83255 0.98859 0.62651 0.0
H600 H 0.81842 0.04772 0.49214 0.0
H601 H 0.84282 0.07507 0.4516 0.0
C602 C 0.97918 0.19485 0.62908 0.0
C603 C 0.96999 0.17354 0.57329 0.0
C604 C 1.01914 0.14458 0.58999 0.0
C605 C 0.02939 0.16725 0.64117 0.0
N606 N 1.02161 0.21604 0.70318 0.0
N607 N 0.98301 0.13049 0.4931 0.0
C608 C 1.00999 0.19294 0.65923 0.0
C609 C 0.99057 0.14916 0.55136 0.0
N610 N 0.95838 0.2167 0.65355 0.0
N611 N 0.03618 0.11789 0.5809 0.0
H612 H 0.96184 0.13201 0.46506 0.0
H613 H 0.99863 0.11492 0.46905 0.0
H614 H 0.05686 0.11363 0.6096 0.0
H615 H 0.02848 0.09879 0.55045 0.0
H616 H 0.96233 0.23082 0.69914 0.0
H617 H 0.93616 0.21944 0.63066 0.0
H618 H 1.01008 0.23701 0.71311 0.0
H619 H 0.04406 0.21511 0.72557 0.0
C620 C 0.17781 0.02911 0.46492 0.0
C621 C 0.15481 0.0302 0.40904 0.0
C622 C 0.14681 0.08598 0.43583 0.0
C623 C 0.16729 0.08394 0.49731 0.0
N624 N 0.1954 0.05019 0.58078 0.0
N625 N 0.11315 0.0582 0.35024 0.0
C626 C 0.18089 0.05454 0.51484 0.0
C627 C 0.13803 0.05826 0.39722 0.0
N628 N 0.19777 1.00436 0.46838 0.0
N629 N 0.13687 0.11444 0.41188 0.0
H630 H 0.1059 0.03813 0.32255 0.0
H631 H 0.09801 0.07707 0.34441 0.0
H632 H 0.14381 0.13534 0.43625 0.0
H633 H 0.12439 0.11749 0.36336 0.0
H634 H 0.21697 1.00365 0.50367 0.0
H635 H 0.19715 0.98627 0.4302 0.0
H636 H 0.20311 0.02843 0.59846 0.0
H637 H 0.19643 0.06728 0.62143 0.0
C638 C 0.98333 0.90239 0.37842 0.0
C639 C 0.9795 0.89165 0.45105 0.0
C640 C 0.03658 0.8956 0.46978 0.0
C641 C 0.04056 0.90411 0.39517 0.0
N642 N 1.01776 0.9064 0.2741 0.0
N643 N 1.00324 0.87094 0.55997 0.0
C644 C 1.01391 0.90474 0.3482 0.0
C645 C 1.00641 0.88614 0.49499 0.0
N646 N 0.95783 0.91182 0.33917 0.0
N647 N 0.06107 0.89797 0.51766 0.0
H648 H 0.98171 0.86284 0.57843 0.0
H649 H 1.02218 0.86358 0.59146 0.0
H650 H 0.08325 0.90535 0.50212 0.0
H651 H 0.05866 0.89527 0.57399 0.0
H652 H 0.9595 0.92283 0.28863 0.0
H653 H 0.93526 0.91161 0.36045 0.0
H654 H 0.99931 0.9041 0.23704 0.0
H655 H 0.03969 0.90636 0.24936 0.0
C656 C 0.36462 0.2848 0.13911 0.0
C657 C 0.39034 0.30287 0.1152 0.0
C658 C 0.4197 0.25526 0.08748 0.0
C659 C 0.39298 0.23716 0.10446 0.0
N660 N 0.33839 0.23467 0.13642 0.0
N661 N 0.4402 0.30576 0.05457 0.0
C662 C 0.36496 0.25189 0.12787 0.0
C663 C 0.41716 0.28821 0.08542 0.0
N664 N 0.34008 0.29906 0.17337 0.0
N665 N 0.448 0.24104 0.07719 0.0
H666 H 0.43943 0.33002 0.05294 0.0
H667 H 0.45859 0.29619 0.02473 0.0
H668 H 0.45122 0.21702 0.08154 0.0
H669 H 0.46892 0.25322 0.07221 0.0
H670 H 0.32232 0.28694 0.19958 0.0
H671 H 0.33849 0.32319 0.17949 0.0
H672 H 0.31647 0.24446 0.14567 0.0
H673 H 0.33775 0.21059 0.12865 0.0
C674 C 0.26324 0.63584 0.94668 0.0
C675 C 0.24929 0.65966 0.9893 0.0
C676 C 0.30099 0.67324 0.0395 0.0
C677 C 0.31504 0.65313 0.98727 0.0
N678 N 0.30944 0.6196 0.88151 0.0
N679 N 0.25431 0.70167 0.07607 0.0
C680 C 0.29614 0.63538 0.93859 0.0
C681 C 0.26803 0.67833 0.03644 0.0
N682 N 0.24505 0.61398 0.91269 0.0
N683 N 0.31911 0.68741 0.0916 0.0
H684 H 0.23009 0.70465 0.0776 0.0
H685 H 0.26681 0.71858 0.10484 0.0
H686 H 0.34335 0.6847 0.09364 0.0
H687 H 0.31 0.70008 0.13536 0.0
H688 H 0.25418 0.59457 0.88571 0.0
H689 H 0.22088 0.61332 0.91864 0.0
H690 H 0.29654 0.60905 0.83976 0.0
H691 H 0.33341 0.61963 0.87192 0.0
C692 C 0.65758 0.77613 0.17131 0.0
C693 C 0.6718 0.79162 0.11154 0.0
C694 C 0.69593 0.74193 0.0728 0.0
C695 C 0.68313 0.72688 0.13492 0.0
N696 N 0.65875 0.73196 0.2534 0.0
N697 N 0.70998 0.79075 0.01489 0.0
C698 C 0.66603 0.74469 0.18718 0.0
C699 C 0.69266 0.77491 0.0652 0.0
N700 N 0.63467 0.7907 0.21073 0.0
N701 N 0.70993 0.72459 0.01919 0.0
H702 H 0.70866 0.81488 1.00887 0.0
H703 H 0.7278 0.78052 0.98437 0.0
H704 H 0.71251 0.70047 0.02231 0.0
H705 H 0.71659 0.73369 0.96888 0.0
H706 H 0.62094 0.77924 0.24906 0.0
H707 H 0.62738 0.81347 0.2008 0.0
H708 H 0.64919 0.74481 0.29638 0.0
H709 H 0.66528 0.70944 0.2683 0.0
C710 C 0.76703 0.42176 0.81202 0.0
C711 C 0.75397 0.39299 0.78903 0.0
C712 C 0.80619 0.37317 0.75811 0.0
C713 C 0.81951 0.40101 0.78623 0.0
N714 N 0.81285 0.45484 0.82221 0.0
N715 N 0.75903 0.34576 0.71995 0.0
C716 C 0.79994 0.42644 0.80666 0.0
C717 C 0.77304 0.37024 0.75489 0.0
N718 N 0.74822 0.44368 0.84381 0.0
N719 N 0.82524 0.34923 0.73677 0.0
H720 H 0.73474 0.34417 0.71595 0.0
H721 H 0.77099 0.32904 0.68948 0.0
H722 H 0.84954 0.35122 0.73547 0.0
H723 H 0.81721 0.32705 0.72328 0.0
H724 H 0.75649 0.4633 0.87139 0.0
H725 H 0.72397 0.44161 0.84447 0.0
H726 H 0.79983 0.47505 0.83049 0.0
H727 H 0.83683 0.45888 0.82152 0.0
C728 C 0.87105 0.77168 0.80015 0.0
C729 C 0.89469 0.753 0.76788 0.0
C730 C 0.91985 0.80006 0.71952 0.0
C731 C 0.89367 0.81789 0.74127 0.0
N732 N 0.84431 0.82174 0.80301 0.0
N733 N 0.94006 0.74879 0.69012 0.0
C734 C 0.86945 0.80404 0.78286 0.0
C735 C 0.91901 0.76708 0.72671 0.0
N736 N 0.85032 0.75847 0.84743 0.0
N737 N 0.94515 0.81475 0.69018 0.0
H738 H 0.93955 0.72454 0.6915 0.0
H739 H 0.95631 0.75742 0.65318 0.0
H740 H 0.94602 0.83888 0.68398 0.0
H741 H 0.96621 0.80357 0.67884 0.0
H742 H 0.83424 0.77118 0.87808 0.0
H743 H 0.85071 0.73477 0.85998 0.0
H744 H 0.82396 0.81265 0.82539 0.0
H745 H 0.84357 0.84578 0.79474 0.0
C746 C 0.78871 0.15889 0.44794 0.0
C747 C 0.80353 0.18042 0.4008 0.0
C748 C 0.75208 0.19941 0.35944 0.0
C749 C 0.73726 0.17871 0.40872 0.0
N750 N 0.74169 0.14386 0.51188 0.0
N751 N 0.8 0.22512 0.32228 0.0
C752 C 0.75565 0.15996 0.45652 0.0
C753 C 0.78535 0.20193 0.35988 0.0
N754 N 0.806 0.13632 0.48188 0.0
N755 N 0.73449 0.2155 0.30968 0.0
H756 H 0.82424 0.2276 0.32198 0.0
H757 H 0.78824 0.24345 0.29714 0.0
H758 H 0.71017 0.21408 0.30731 0.0
H759 H 0.74399 0.2283 0.26697 0.0
H760 H 0.79616 0.11743 0.50887 0.0
H761 H 0.83028 0.13513 0.47871 0.0
H762 H 0.75413 0.13281 0.55343 0.0
H763 H 0.71765 0.1438 0.52051 0.0
C764 C 0.16562 0.30323 0.65319 0.0
C765 C 0.17832 0.31816 0.59081 0.0
C766 C 0.19744 0.26742 0.54524 0.0
C767 C 0.18582 0.25268 0.60895 0.0
N768 N 0.16575 0.25775 0.73164 0.0
N769 N 0.21248 0.31564 0.48638 0.0
C770 C 0.172 0.27099 0.66539 0.0
C771 C 0.19616 0.30055 0.53966 0.0
N772 N 0.14605 0.31929 0.69881 0.0
N773 N 0.20824 0.24971 0.48824 0.0
H774 H 0.21238 0.33982 0.48122 0.0
H775 H 0.22846 0.30459 0.45207 0.0
H776 H 0.2094 0.22546 0.48985 0.0
H777 H 0.2136 0.25882 0.43709 0.0
H778 H 0.13307 0.30871 0.73986 0.0
H779 H 0.14081 0.34283 0.6922 0.0
H780 H 0.1587 0.27052 0.77734 0.0
H781 H 0.17059 0.23445 0.74314 0.0
C782 C 0.24503 0.90901 0.40361 0.0
C783 C 0.23077 0.88854 0.35243 0.0
C784 C 0.28053 0.85971 0.34184 0.0
C785 C 0.29559 0.88264 0.38591 0.0
N786 N 0.29309 0.93361 0.44263 0.0
N787 N 0.23555 0.84596 0.26667 0.0
C788 C 0.27804 0.90844 0.41279 0.0
C789 C 0.24876 0.86435 0.31962 0.0
N790 N 0.22712 0.92925 0.44335 0.0
N791 N 0.29608 0.83296 0.3236 0.0
H792 H 0.21195 0.84743 0.2524 0.0
H793 H 0.2483 0.83049 0.23433 0.0
H794 H 0.31908 0.82859 0.33963 0.0
H795 H 0.2854 0.81402 0.29798 0.0
H796 H 0.23597 0.94243 0.48679 0.0
H797 H 0.20291 0.93057 0.4379 0.0
H798 H 0.2817 0.9543 0.4563 0.0
H799 H 0.31737 0.93538 0.44553 0.0
C800 C 0.27924 0.14077 0.80299 0.0
C801 C 0.2503 0.13682 0.8395 0.0
C802 C 0.27866 0.12653 0.95449 0.0
C803 C 0.30752 0.13211 0.91888 0.0
N804 N 0.33488 0.15127 0.81389 0.0
N805 N 0.22219 0.13273 0.95243 0.0
C806 C 0.30762 0.14137 0.84444 0.0
C807 C 0.25002 0.1319 0.91622 0.0
N808 N 0.27982 0.14211 0.72836 0.0
N809 N 0.27863 0.1144 0.02342 0.0
H810 H 0.20107 0.13715 0.92561 0.0
H811 H 0.2204 0.1321 1.00925 0.0
H812 H 0.29912 0.1093 0.05205 0.0
H813 H 0.25847 0.10682 0.0496 0.0
H814 H 0.30039 0.14167 0.69807 0.0
H815 H 0.25966 0.14099 0.69627 0.0
H816 H 0.33615 0.16107 0.76195 0.0
H817 H 0.35576 0.15241 0.84352 0.0
C818 C 0.11379 0.81828 0.05277 0.0
C819 C 0.13942 0.83571 0.0805 0.0
C820 C 0.17567 0.80071 0.01542 0.0
C821 C 0.14993 0.78526 0.98237 0.0
N822 N 0.09468 0.7812 0.96199 0.0
N823 N 0.19458 0.8462 0.08195 0.0
C824 C 0.11899 0.79457 0.99914 0.0
C825 C 0.17039 0.82752 0.0604 0.0
N826 N 0.08459 0.82385 0.07982 0.0
N827 N 0.20508 0.7892 1.00479 0.0
H828 H 0.19133 0.86609 0.114 0.0
H829 H 0.21745 0.84338 0.06372 0.0
H830 H 0.20943 0.76982 0.97168 0.0
H831 H 0.22473 0.79729 0.03281 0.0
H832 H 0.06517 0.81022 0.06716 0.0
H833 H 0.08035 0.84056 0.12021 0.0
H834 H 0.07161 0.78878 0.96611 0.0
H835 H 0.09806 0.76397 0.92239 0.0
C836 C 0.74222 0.92992 0.85576 0.0
C837 C 0.72424 0.90303 0.87143 0.0
C838 C 0.75558 0.87319 0.78225 0.0
C839 C 0.77098 0.90092 0.76071 0.0
N840 N 0.77657 0.95645 0.77072 0.0
N841 N 0.71125 0.84975 0.84397 0.0
C842 C 0.76375 0.9295 0.79617 0.0
C843 C 0.73039 0.87473 0.83347 0.0
N844 N 0.73913 0.95566 0.8994 0.0
N845 N 0.76569 0.84528 0.75499 0.0
H846 H 0.69259 0.85027 0.8805 0.0
H847 H 0.71236 0.82942 0.81277 0.0
H848 H 0.78415 0.84358 0.71803 0.0
H849 H 0.75771 0.82384 0.77357 0.0
H850 H 0.75343 0.97518 0.89566 0.0
H851 H 0.72401 0.95623 0.94409 0.0
H852 H 0.77003 0.97851 0.78906 0.0
H853 H 0.79199 0.95684 0.72665 0.0
C854 C 0.91811 0.28222 0.21583 0.0
C855 C 0.91251 0.25261 0.1834 0.0
C856 C 0.9102 0.27714 0.06195 0.0
C857 C 0.91431 0.30688 0.09487 0.0
N858 N 0.91451 0.33844 0.20367 0.0
N859 N 0.8962 0.22278 0.0785 0.0
C860 C 0.91568 0.30956 0.17218 0.0
C861 C 0.90626 0.25043 0.10721 0.0
N862 N 0.9278 0.28415 0.28701 0.0
N863 N 0.91192 0.27411 0.98766 0.0
H864 H 0.89268 0.20314 0.11087 0.0
H865 H 0.88854 0.22019 0.02462 0.0
H866 H 0.91538 0.29302 0.9531 0.0
H867 H 0.91245 0.25265 0.96081 0.0
H868 H 0.93529 0.30481 0.31148 0.0
H869 H 0.9312 0.26463 0.31975 0.0
H870 H 0.91261 0.34205 0.25991 0.0
H871 H 0.91225 0.35868 0.17265 0.0
C872 C 0.25059 0.41589 0.29496 0.0
C873 C 0.24941 0.42295 0.3708 0.0
C874 C 0.30679 0.42437 0.37395 0.0
C875 C 0.30768 0.42178 0.29658 0.0
N876 N 0.27943 0.42149 0.18208 0.0
N877 N 0.27658 0.44033 0.4795 0.0
C878 C 0.27929 0.41908 0.25655 0.0
C879 C 0.2776 0.42877 0.40979 0.0
N880 N 0.22431 0.40555 0.25996 0.0
N881 N 0.33387 0.42204 0.41327 0.0
H882 H 0.25572 0.4457 0.506 0.0
H883 H 0.2964 0.44772 0.50795 0.0
H884 H 0.35543 0.41791 0.3885 0.0
H885 H 0.33443 0.42096 0.47023 0.0
H886 H 0.22435 0.39738 0.20614 0.0
H887 H 0.20323 0.40214 0.28729 0.0
H888 H 0.25907 0.42263 0.15071 0.0
H889 H 0.29969 0.42574 0.15236 0.0
C890 C 0.39987 0.79912 0.68458 0.0
C891 C 0.40406 0.7972 0.60772 0.0
C892 C 0.40685 0.74018 0.61739 0.0
C893 C 0.408 0.74263 0.69478 0.0
N894 N 0.40949 0.77523 0.8025 0.0
N895 N 0.41566 0.7658 0.50142 0.0
C896 C 0.40514 0.77231 0.72872 0.0
C897 C 0.40824 0.76763 0.57392 0.0
N898 N 0.39068 0.82673 0.71509 0.0
N899 N 0.40427 0.71143 0.5857 0.0
H900 H 0.41805 0.78536 0.46843 0.0
H901 H 0.42217 0.74511 0.47559 0.0
H902 H 0.40268 0.69113 0.61667 0.0
H903 H 0.40055 0.70806 0.52982 0.0
H904 H 0.38457 0.82915 0.76997 0.0
H905 H 0.38615 0.84644 0.68352 0.0
H906 H 0.41097 0.79668 0.82925 0.0
H907 H 0.41436 0.75633 0.83624 0.0
C908 C 0.77418 0.63942 0.3739 0.0
C909 C 0.7451 0.63871 0.41111 0.0
C910 C 0.77313 0.64123 0.52874 0.0
C911 C 0.80197 0.64462 0.49138 0.0
N912 N 0.82858 0.65511 0.37856 0.0
N913 N 0.71681 0.64726 0.52287 0.0
C914 C 0.80197 0.64642 0.41389 0.0
C915 C 0.74461 0.64237 0.4883 0.0
N916 N 0.77578 0.63129 0.30168 0.0
N917 N 0.77285 0.63473 0.60179 0.0
H918 H 0.69574 0.64916 0.49424 0.0
H919 H 0.71521 0.65274 0.57839 0.0
H920 H 0.79314 0.6316 0.63254 0.0
H921 H 0.75252 0.62913 0.63 0.0
H922 H 0.79685 0.6286 0.27393 0.0
H923 H 0.75645 0.62389 0.27151 0.0
H924 H 0.82933 0.65943 0.32251 0.0
H925 H 0.84896 0.66121 0.40676 0.0
C926 C 0.63981 0.20921 0.75126 0.0
C927 C 0.64645 0.21333 0.67579 0.0
C928 C 0.66942 0.2645 0.7058 0.0
C929 C 0.65898 0.26213 0.77934 0.0
N930 N 0.62877 0.23405 0.86804 0.0
N931 N 0.66147 0.24846 0.5797 0.0
C932 C 0.64274 0.23488 0.80105 0.0
C933 C 0.6597 0.24195 0.65258 0.0
N934 N 0.63148 0.18043 0.77575 0.0
N935 N 0.68965 0.28764 0.68725 0.0
H936 H 0.65293 0.23344 0.5394 0.0
H937 H 0.66824 0.27014 0.55984 0.0
H938 H 0.69842 0.30341 0.72565 0.0
H939 H 0.7003 0.28894 0.63615 0.0
H940 H 0.62906 0.17516 0.83104 0.0
H941 H 0.6302 0.16106 0.7411 0.0
H942 H 0.61413 0.21603 0.88436 0.0
H943 H 0.6292 0.25289 0.90427 0.0
loop_
_geom_bond_atom_site_label_1
_geom_bond_atom_site_label_2
_geom_bond_distance
_geom_bond_site_symmetry_2
_ccdc_geom_bond_type
Cu0 N1 1.999 . S
Cu0 O6 1.974 . S
Cu0 N11 1.985 . S
Cu0 O20 1.959 . S
N1 Cu0 1.999 . S
N1 C3 1.263 . S
N1 C5 1.389 . S
N2 C3 1.358 . S
N2 C4 1.400 . S
C3 N1 1.263 . S
C3 N2 1.358 . S
C3 H9 0.930 . S
C4 N2 1.400 . S
C4 C5 1.351 . S
C4 H21 0.930 . S
C5 N1 1.389 . S
C5 C4 1.351 . S
C5 H10 0.930 . S
O6 Cu0 1.974 . S
O6 C16 1.282 . S
C7 O8 1.261 . S
C7 O20 1.251 . S
O8 C7 1.261 . S
H9 C3 0.930 . S
H10 C5 0.930 . S
N11 Cu0 1.985 . S
N11 C13 1.335 . S
N11 C14 1.390 . S
N12 C13 1.345 . S
N12 C15 1.336 . S
C13 N11 1.335 . S
C13 N12 1.345 . S
C13 H18 0.930 . S
C14 N11 1.390 . S
C14 C15 1.346 . S
C14 H19 0.930 . S
C15 N12 1.336 . S
C15 C14 1.346 . S
C15 H22 0.929 . S
C16 O6 1.282 . S
C16 O17 1.216 . S
O17 C16 1.216 . S
H18 C13 0.930 . S
H19 C14 0.930 . S
O20 Cu0 1.959 . S
O20 C7 1.251 . S
H21 C4 0.930 . S
H22 C15 0.929 . S
Cu23 N24 1.999 . S
Cu23 O29 1.974 . S
Cu23 N34 1.985 . S
Cu23 O43 1.959 . S
N24 Cu23 1.999 . S
N24 C26 1.263 . S
N24 C28 1.389 . S
N25 C26 1.358 . S
N25 C27 1.400 . S
C26 N24 1.263 . S
C26 N25 1.358 . S
C26 H32 0.930 . S
C27 N25 1.400 . S
C27 C28 1.351 . S
C27 H44 0.930 . S
C28 N24 1.389 . S
C28 C27 1.351 . S
C28 H33 0.930 . S
O29 Cu23 1.974 . S
O29 C39 1.282 . S
C30 O31 1.261 . S
C30 O43 1.251 . S
O31 C30 1.261 . S
H32 C26 0.930 . S
H33 C28 0.930 . S
N34 Cu23 1.985 . S
N34 C36 1.335 . S
N34 C37 1.390 . S
N35 C36 1.345 . S
N35 C38 1.336 . S
C36 N34 1.335 . S
C36 N35 1.345 . S
C36 H41 0.930 . S
C37 N34 1.390 . S
C37 C38 1.346 . S
C37 H42 0.930 . S
C38 N35 1.336 . S
C38 C37 1.346 . S
C38 H45 0.929 . S
C39 O29 1.282 . S
C39 O40 1.216 . S
O40 C39 1.216 . S
H41 C36 0.930 . S
H42 C37 0.930 . S
O43 Cu23 1.959 . S
O43 C30 1.251 . S
H44 C27 0.930 . S
H45 C38 0.929 . S
Cu46 N47 1.999 . S
Cu46 O52 1.974 . S
Cu46 N57 1.985 . S
Cu46 O66 1.959 . S
N47 Cu46 1.999 . S
N47 C49 1.263 . S
N47 C51 1.389 . S
N48 C49 1.358 . S
N48 C50 1.400 . S
C49 N47 1.263 . S
C49 N48 1.358 . S
C49 H55 0.930 . S
C50 N48 1.400 . S
C50 C51 1.351 . S
C50 H67 0.930 . S
C51 N47 1.389 . S
C51 C50 1.351 . S
C51 H56 0.930 . S
O52 Cu46 1.974 . S
O52 C62 1.282 . S
C53 O54 1.261 . S
C53 O66 1.251 . S
O54 C53 1.261 . S
H55 C49 0.930 . S
H56 C51 0.930 . S
N57 Cu46 1.985 . S
N57 C59 1.335 . S
N57 C60 1.390 . S
N58 C59 1.345 . S
N58 C61 1.336 . S
C59 N57 1.335 . S
C59 N58 1.345 . S
C59 H64 0.930 . S
C60 N57 1.390 . S
C60 C61 1.346 . S
C60 H65 0.930 . S
C61 N58 1.336 . S
C61 C60 1.346 . S
C61 H68 0.929 . S
C62 O52 1.282 . S
C62 O63 1.216 . S
O63 C62 1.216 . S
H64 C59 0.930 . S
H65 C60 0.930 . S
O66 Cu46 1.959 . S
O66 C53 1.251 . S
H67 C50 0.930 . S
H68 C61 0.929 . S
Cu69 N70 1.999 . S
Cu69 O75 1.974 . S
Cu69 N80 1.985 . S
Cu69 O89 1.959 . S
N70 Cu69 1.999 . S
N70 C72 1.263 . S
N70 C74 1.389 . S
N71 C72 1.358 . S
N71 C73 1.400 . S
C72 N70 1.263 . S
C72 N71 1.358 . S
C72 H78 0.930 . S
C73 N71 1.400 . S
C73 C74 1.351 . S
C73 H90 0.930 . S
C74 N70 1.389 . S
C74 C73 1.351 . S
C74 H79 0.930 . S
O75 Cu69 1.974 . S
O75 C85 1.282 . S
C76 O77 1.261 . S
C76 O89 1.251 . S
O77 C76 1.261 . S
H78 C72 0.930 . S
H79 C74 0.930 . S
N80 Cu69 1.985 . S
N80 C82 1.335 . S
N80 C83 1.390 . S
N81 C82 1.345 . S
N81 C84 1.336 . S
C82 N80 1.335 . S
C82 N81 1.345 . S
C82 H87 0.930 . S
C83 N80 1.390 . S
C83 C84 1.346 . S
C83 H88 0.930 . S
C84 N81 1.336 . S
C84 C83 1.346 . S
C84 H91 0.929 . S
C85 O75 1.282 . S
C85 O86 1.216 . S
O86 C85 1.216 . S
H87 C82 0.930 . S
H88 C83 0.930 . S
O89 Cu69 1.959 . S
O89 C76 1.251 . S
H90 C73 0.930 . S
H91 C84 0.929 . S
Cu92 N93 1.999 . S
Cu92 O98 1.974 . S
Cu92 N103 1.985 . S
Cu92 O112 1.959 . S
N93 Cu92 1.999 . S
N93 C95 1.263 . S
N93 C97 1.389 . S
N94 C95 1.358 . S
N94 C96 1.400 . S
C95 N93 1.263 . S
C95 N94 1.358 . S
C95 H101 0.930 . S
C96 N94 1.400 . S
C96 C97 1.351 . S
C96 H113 0.930 . S
C97 N93 1.389 . S
C97 C96 1.351 . S
C97 H102 0.930 . S
O98 Cu92 1.974 . S
O98 C108 1.282 . S
C99 O100 1.261 . S
C99 O112 1.251 . S
O100 C99 1.261 . S
H101 C95 0.930 . S
H102 C97 0.930 . S
N103 Cu92 1.985 . S
N103 C105 1.335 . S
N103 C106 1.390 . S
N104 C105 1.345 . S
N104 C107 1.336 . S
C105 N103 1.335 . S
C105 N104 1.345 . S
C105 H110 0.930 . S
C106 N103 1.390 . S
C106 C107 1.346 . S
C106 H111 0.930 . S
C107 N104 1.336 . S
C107 C106 1.346 . S
C107 H114 0.929 . S
C108 O98 1.282 . S
C108 O109 1.216 . S
O109 C108 1.216 . S
H110 C105 0.930 . S
H111 C106 0.930 . S
O112 Cu92 1.959 . S
O112 C99 1.251 . S
H113 C96 0.930 . S
H114 C107 0.929 . S
Cu115 N116 1.999 . S
Cu115 O121 1.974 . S
Cu115 N126 1.985 . S
Cu115 O135 1.959 . S
N116 Cu115 1.999 . S
N116 C118 1.263 . S
N116 C120 1.389 . S
N117 C118 1.358 . S
N117 C119 1.400 . S
C118 N116 1.263 . S
C118 N117 1.358 . S
C118 H124 0.930 . S
C119 N117 1.400 . S
C119 C120 1.351 . S
C119 H136 0.930 . S
C120 N116 1.389 . S
C120 C119 1.351 . S
C120 H125 0.930 . S
O121 Cu115 1.974 . S
O121 C131 1.282 . S
C122 O123 1.261 . S
C122 O135 1.251 . S
O123 C122 1.261 . S
H124 C118 0.930 . S
H125 C120 0.930 . S
N126 Cu115 1.985 . S
N126 C128 1.335 . S
N126 C129 1.390 . S
N127 C128 1.345 . S
N127 C130 1.336 . S
C128 N126 1.335 . S
C128 N127 1.345 . S
C128 H133 0.930 . S
C129 N126 1.390 . S
C129 C130 1.346 . S
C129 H134 0.930 . S
C130 N127 1.336 . S
C130 C129 1.346 . S
C130 H137 0.929 . S
C131 O121 1.282 . S
C131 O132 1.216 . S
O132 C131 1.216 . S
H133 C128 0.930 . S
H134 C129 0.930 . S
O135 Cu115 1.959 . S
O135 C122 1.251 . S
H136 C119 0.930 . S
H137 C130 0.929 . S
Cu138 N139 1.999 . S
Cu138 O144 1.974 . S
Cu138 N149 1.985 . S
Cu138 O158 1.959 . S
N139 Cu138 1.999 . S
N139 C141 1.263 . S
N139 C143 1.389 . S
N140 C141 1.358 . S
N140 C142 1.400 . S
C141 N139 1.263 . S
C141 N140 1.358 . S
C141 H147 0.930 . S
C142 N140 1.400 . S
C142 C143 1.351 . S
C142 H159 0.930 . S
C143 N139 1.389 . S
C143 C142 1.351 . S
C143 H148 0.930 . S
O144 Cu138 1.974 . S
O144 C154 1.282 . S
C145 O146 1.261 . S
C145 O158 1.251 . S
O146 C145 1.261 . S
H147 C141 0.930 . S
H148 C143 0.930 . S
N149 Cu138 1.985 . S
N149 C151 1.335 . S
N149 C152 1.390 . S
N150 C151 1.345 . S
N150 C153 1.336 . S
C151 N149 1.335 . S
C151 N150 1.345 . S
C151 H156 0.930 . S
C152 N149 1.390 . S
C152 C153 1.346 . S
C152 H157 0.930 . S
C153 N150 1.336 . S
C153 C152 1.346 . S
C153 H160 0.929 . S
C154 O144 1.282 . S
C154 O155 1.216 . S
O155 C154 1.216 . S
H156 C151 0.930 . S
H157 C152 0.930 . S
O158 Cu138 1.959 . S
O158 C145 1.251 . S
H159 C142 0.930 . S
H160 C153 0.929 . S
Cu161 N162 1.999 . S
Cu161 O167 1.974 . S
Cu161 N172 1.985 . S
Cu161 O181 1.959 . S
N162 Cu161 1.999 . S
N162 C164 1.263 . S
N162 C166 1.389 . S
N163 C164 1.358 . S
N163 C165 1.400 . S
C164 N162 1.263 . S
C164 N163 1.358 . S
C164 H170 0.930 . S
C165 N163 1.400 . S
C165 C166 1.351 . S
C165 H182 0.930 . S
C166 N162 1.389 . S
C166 C165 1.351 . S
C166 H171 0.930 . S
O167 Cu161 1.974 . S
O167 C177 1.282 . S
C168 O169 1.261 . S
C168 O181 1.251 . S
O169 C168 1.261 . S
H170 C164 0.930 . S
H171 C166 0.930 . S
N172 Cu161 1.985 . S
N172 C174 1.335 . S
N172 C175 1.390 . S
N173 C174 1.345 . S
N173 C176 1.336 . S
C174 N172 1.335 . S
C174 N173 1.345 . S
C174 H179 0.930 . S
C175 N172 1.390 . S
C175 C176 1.346 . S
C175 H180 0.930 . S
C176 N173 1.336 . S
C176 C175 1.346 . S
C176 H183 0.929 . S
C177 O167 1.282 . S
C177 O178 1.216 . S
O178 C177 1.216 . S
H179 C174 0.930 . S
H180 C175 0.930 . S
O181 Cu161 1.959 . S
O181 C168 1.251 . S
H182 C165 0.930 . S
H183 C176 0.929 . S
Cu184 N185 1.999 . S
Cu184 O190 1.974 . S
Cu184 N195 1.985 . S
Cu184 O204 1.959 . S
N185 Cu184 1.999 . S
N185 C187 1.263 . S
N185 C189 1.389 . S
N186 C187 1.358 . S
N186 C188 1.400 . S
C187 N185 1.263 . S
C187 N186 1.358 . S
C187 H193 0.930 . S
C188 N186 1.400 . S
C188 C189 1.351 . S
C188 H205 0.930 . S
C189 N185 1.389 . S
C189 C188 1.351 . S
C189 H194 0.930 . S
O190 Cu184 1.974 . S
O190 C200 1.282 . S
C191 O192 1.261 . S
C191 O204 1.251 . S
O192 C191 1.261 . S
H193 C187 0.930 . S
H194 C189 0.930 . S
N195 Cu184 1.985 . S
N195 C197 1.335 . S
N195 C198 1.390 . S
N196 C197 1.345 . S
N196 C199 1.336 . S
C197 N195 1.335 . S
C197 N196 1.345 . S
C197 H202 0.930 . S
C198 N195 1.390 . S
C198 C199 1.346 . S
C198 H203 0.930 . S
C199 N196 1.336 . S
C199 C198 1.346 . S
C199 H206 0.929 . S
C200 O190 1.282 . S
C200 O201 1.216 . S
O201 C200 1.216 . S
H202 C197 0.930 . S
H203 C198 0.930 . S
O204 Cu184 1.959 . S
O204 C191 1.251 . S
H205 C188 0.930 . S
H206 C199 0.929 . S
Cu207 N208 1.999 . S
Cu207 O213 1.974 . S
Cu207 N218 1.985 . S
Cu207 O227 1.959 . S
N208 Cu207 1.999 . S
N208 C210 1.263 . S
N208 C212 1.389 . S
N209 C210 1.358 . S
N209 C211 1.400 . S
C210 N208 1.263 . S
C210 N209 1.358 . S
C210 H216 0.930 . S
C211 N209 1.400 . S
C211 C212 1.351 . S
C211 H228 0.930 . S
C212 N208 1.389 . S
C212 C211 1.351 . S
C212 H217 0.930 . S
O213 Cu207 1.974 . S
O213 C223 1.282 . S
C214 O215 1.261 . S
C214 O227 1.251 . S
O215 C214 1.261 . S
H216 C210 0.930 . S
H217 C212 0.930 . S
N218 Cu207 1.985 . S
N218 C220 1.335 . S
N218 C221 1.390 . S
N219 C220 1.345 . S
N219 C222 1.336 . S
C220 N218 1.335 . S
C220 N219 1.345 . S
C220 H225 0.930 . S
C221 N218 1.390 . S
C221 C222 1.346 . S
C221 H226 0.930 . S
C222 N219 1.336 . S
C222 C221 1.346 . S
C222 H229 0.929 . S
C223 O213 1.282 . S
C223 O224 1.216 . S
O224 C223 1.216 . S
H225 C220 0.930 . S
H226 C221 0.930 . S
O227 Cu207 1.959 . S
O227 C214 1.251 . S
H228 C211 0.930 . S
H229 C222 0.929 . S
Cu230 N231 1.999 . S
Cu230 O236 1.974 . S
Cu230 N241 1.985 . S
Cu230 O250 1.959 . S
N231 Cu230 1.999 . S
N231 C233 1.263 . S
N231 C235 1.389 . S
N232 C233 1.358 . S
N232 C234 1.400 . S
C233 N231 1.263 . S
C233 N232 1.358 . S
C233 H239 0.930 . S
C234 N232 1.400 . S
C234 C235 1.351 . S
C234 H251 0.930 . S
C235 N231 1.389 . S
C235 C234 1.351 . S
C235 H240 0.930 . S
O236 Cu230 1.974 . S
O236 C246 1.282 . S
C237 O238 1.261 . S
C237 O250 1.251 . S
O238 C237 1.261 . S
H239 C233 0.930 . S
H240 C235 0.930 . S
N241 Cu230 1.985 . S
N241 C243 1.335 . S
N241 C244 1.390 . S
N242 C243 1.345 . S
N242 C245 1.336 . S
C243 N241 1.335 . S
C243 N242 1.345 . S
C243 H248 0.930 . S
C244 N241 1.390 . S
C244 C245 1.346 . S
C244 H249 0.930 . S
C245 N242 1.336 . S
C245 C244 1.346 . S
C245 H252 0.929 . S
C246 O236 1.282 . S
C246 O247 1.216 . S
O247 C246 1.216 . S
H248 C243 0.930 . S
H249 C244 0.930 . S
O250 Cu230 1.959 . S
O250 C237 1.251 . S
H251 C234 0.930 . S
H252 C245 0.929 . S
Cu253 N254 1.999 . S
Cu253 O259 1.974 . S
Cu253 N264 1.985 . S
Cu253 O273 1.959 . S
N254 Cu253 1.999 . S
N254 C256 1.263 . S
N254 C258 1.389 . S
N255 C256 1.358 . S
N255 C257 1.400 . S
C256 N254 1.263 . S
C256 N255 1.358 . S
C256 H262 0.930 . S
C257 N255 1.400 . S
C257 C258 1.351 . S
C257 H274 0.930 . S
C258 N254 1.389 . S
C258 C257 1.351 . S
C258 H263 0.930 . S
O259 Cu253 1.974 . S
O259 C269 1.282 . S
C260 O261 1.261 . S
C260 O273 1.251 . S
O261 C260 1.261 . S
H262 C256 0.930 . S
H263 C258 0.930 . S
N264 Cu253 1.985 . S
N264 C266 1.335 . S
N264 C267 1.390 . S
N265 C266 1.345 . S
N265 C268 1.336 . S
C266 N264 1.335 . S
C266 N265 1.345 . S
C266 H271 0.930 . S
C267 N264 1.390 . S
C267 C268 1.346 . S
C267 H272 0.930 . S
C268 N265 1.336 . S
C268 C267 1.346 . S
C268 H275 0.929 . S
C269 O259 1.282 . S
C269 O270 1.216 . S
O270 C269 1.216 . S
H271 C266 0.930 . S
H272 C267 0.930 . S
O273 Cu253 1.959 . S
O273 C260 1.251 . S
H274 C257 0.930 . S
H275 C268 0.929 . S
Cu276 N277 1.999 . S
Cu276 O282 1.974 . S
Cu276 N287 1.985 . S
Cu276 O296 1.959 . S
N277 Cu276 1.999 . S
N277 C279 1.263 . S
N277 C281 1.389 . S
N278 C279 1.358 . S
N278 C280 1.400 . S
C279 N277 1.263 . S
C279 N278 1.358 . S
C279 H285 0.930 . S
C280 N278 1.400 . S
C280 C281 1.351 . S
C280 H297 0.930 . S
C281 N277 1.389 . S
C281 C280 1.351 . S
C281 H286 0.930 . S
O282 Cu276 1.974 . S
O282 C292 1.282 . S
C283 O284 1.261 . S
C283 O296 1.251 . S
O284 C283 1.261 . S
H285 C279 0.930 . S
H286 C281 0.930 . S
N287 Cu276 1.985 . S
N287 C289 1.335 . S
N287 C290 1.390 . S
N288 C289 1.345 . S
N288 C291 1.336 . S
C289 N287 1.335 . S
C289 N288 1.345 . S
C289 H294 0.930 . S
C290 N287 1.390 . S
C290 C291 1.346 . S
C290 H295 0.930 . S
C291 N288 1.336 . S
C291 C290 1.346 . S
C291 H298 0.929 . S
C292 O282 1.282 . S
C292 O293 1.216 . S
O293 C292 1.216 . S
H294 C289 0.930 . S
H295 C290 0.930 . S
O296 Cu276 1.959 . S
O296 C283 1.251 . S
H297 C280 0.930 . S
H298 C291 0.929 . S
Cu299 N300 1.999 . S
Cu299 O305 1.974 . S
Cu299 N310 1.985 . S
Cu299 O319 1.959 . S
N300 Cu299 1.999 . S
N300 C302 1.263 . S
N300 C304 1.389 . S
N301 C302 1.358 . S
N301 C303 1.400 . S
C302 N300 1.263 . S
C302 N301 1.358 . S
C302 H308 0.930 . S
C303 N301 1.400 . S
C303 C304 1.351 . S
C303 H320 0.930 . S
C304 N300 1.389 . S
C304 C303 1.351 . S
C304 H309 0.930 . S
O305 Cu299 1.974 . S
O305 C315 1.282 . S
C306 O307 1.261 . S
C306 O319 1.251 . S
O307 C306 1.261 . S
H308 C302 0.930 . S
H309 C304 0.930 . S
N310 Cu299 1.985 . S
N310 C312 1.335 . S
N310 C313 1.390 . S
N311 C312 1.345 . S
N311 C314 1.336 . S
C312 N310 1.335 . S
C312 N311 1.345 . S
C312 H317 0.930 . S
C313 N310 1.390 . S
C313 C314 1.346 . S
C313 H318 0.930 . S
C314 N311 1.336 . S
C314 C313 1.346 . S
C314 H321 0.929 . S
C315 O305 1.282 . S
C315 O316 1.216 . S
O316 C315 1.216 . S
H317 C312 0.930 . S
H318 C313 0.930 . S
O319 Cu299 1.959 . S
O319 C306 1.251 . S
H320 C303 0.930 . S
H321 C314 0.929 . S
Cu322 N323 1.999 . S
Cu322 O328 1.974 . S
Cu322 N333 1.985 . S
Cu322 O342 1.959 . S
N323 Cu322 1.999 . S
N323 C325 1.263 . S
N323 C327 1.389 . S
N324 C325 1.358 . S
N324 C326 1.400 . S
C325 N323 1.263 . S
C325 N324 1.358 . S
C325 H331 0.930 . S
C326 N324 1.400 . S
C326 C327 1.351 . S
C326 H343 0.930 . S
C327 N323 1.389 . S
C327 C326 1.351 . S
C327 H332 0.930 . S
O328 Cu322 1.974 . S
O328 C338 1.282 . S
C329 O330 1.261 . S
C329 O342 1.251 . S
O330 C329 1.261 . S
H331 C325 0.930 . S
H332 C327 0.930 . S
N333 Cu322 1.985 . S
N333 C335 1.335 . S
N333 C336 1.390 . S
N334 C335 1.345 . S
N334 C337 1.336 . S
C335 N333 1.335 . S
C335 N334 1.345 . S
C335 H340 0.930 . S
C336 N333 1.390 . S
C336 C337 1.346 . S
C336 H341 0.930 . S
C337 N334 1.336 . S
C337 C336 1.346 . S
C337 H344 0.929 . S
C338 O328 1.282 . S
C338 O339 1.216 . S
O339 C338 1.216 . S
H340 C335 0.930 . S
H341 C336 0.930 . S
O342 Cu322 1.959 . S
O342 C329 1.251 . S
H343 C326 0.930 . S
H344 C337 0.929 . S
Cu345 N346 1.999 . S
Cu345 O351 1.974 . S
Cu345 N356 1.985 . S
Cu345 O365 1.959 . S
N346 Cu345 1.999 . S
N346 C348 1.263 . S
N346 C350 1.389 . S
N347 C348 1.358 . S
N347 C349 1.400 . S
C348 N346 1.263 . S
C348 N347 1.358 . S
C348 H354 0.930 . S
C349 N347 1.400 . S
C349 C350 1.351 . S
C349 H366 0.930 . S
C350 N346 1.389 . S
C350 C349 1.351 . S
C350 H355 0.930 . S
O351 Cu345 1.974 . S
O351 C361 1.282 . S
C352 O353 1.261 . S
C352 O365 1.251 . S
O353 C352 1.261 . S
H354 C348 0.930 . S
H355 C350 0.930 . S
N356 Cu345 1.985 . S
N356 C358 1.335 . S
N356 C359 1.390 . S
N357 C358 1.345 . S
N357 C360 1.336 . S
C358 N356 1.335 . S
C358 N357 1.345 . S
C358 H363 0.930 . S
C359 N356 1.390 . S
C359 C360 1.346 . S
C359 H364 0.930 . S
C360 N357 1.336 . S
C360 C359 1.346 . S
C360 H367 0.929 . S
C361 O351 1.282 . S
C361 O362 1.216 . S
O362 C361 1.216 . S
H363 C358 0.930 . S
H364 C359 0.930 . S
O365 Cu345 1.959 . S
O365 C352 1.251 . S
H366 C349 0.930 . S
H367 C360 0.929 . S
C368 C369 1.363 . S
C368 C374 1.379 1_565 S
C368 N376 1.356 . S
C369 C368 1.363 . S
C369 C375 1.363 . S
C370 C371 1.363 . S
C370 C375 1.379 1_545 S
C370 N377 1.356 . S
C371 C370 1.363 . S
C371 C374 1.363 . S
N372 C374 1.356 . S
N372 H384 0.984 . S
N372 H385 0.985 . S
N373 C375 1.356 . S
N373 H378 0.984 . S
N373 H379 0.985 . S
C374 C368 1.379 1_545 S
C374 C371 1.363 . S
C374 N372 1.356 . S
C375 C369 1.363 . S
C375 C370 1.379 1_565 S
C375 N373 1.356 . S
N376 C368 1.356 . S
N376 H382 0.984 . S
N376 H383 0.984 . S
N377 C370 1.356 . S
N377 H380 0.984 . S
N377 H381 0.985 . S
H378 N373 0.984 . S
H379 N373 0.985 . S
H380 N377 0.984 . S
H381 N377 0.985 . S
H382 N376 0.984 . S
H383 N376 0.984 . S
H384 N372 0.984 . S
H385 N372 0.985 . S
C386 C387 1.363 . S
C386 C392 1.379 1_455 S
C386 N394 1.356 . S
C387 C386 1.363 . S
C387 C393 1.363 . S
C388 C389 1.363 . S
C388 C393 1.379 1_655 S
C388 N395 1.356 . S
C389 C388 1.363 . S
C389 C392 1.363 . S
N390 C392 1.356 . S
N390 H402 0.984 . S
N390 H403 0.985 . S
N391 C393 1.356 . S
N391 H396 0.984 . S
N391 H397 0.985 . S
C392 C386 1.379 1_655 S
C392 C389 1.363 . S
C392 N390 1.356 . S
C393 C387 1.363 . S
C393 C388 1.379 1_455 S
C393 N391 1.356 . S
N394 C386 1.356 . S
N394 H400 0.984 . S
N394 H401 0.984 . S
N395 C388 1.356 . S
N395 H398 0.984 . S
N395 H399 0.985 . S
H396 N391 0.984 . S
H397 N391 0.985 . S
H398 N395 0.984 . S
H399 N395 0.985 . S
H400 N394 0.984 . S
H401 N394 0.984 . S
H402 N390 0.984 . S
H403 N390 0.985 . S
C404 C405 1.363 . S
C404 C410 1.379 1_565 S
C404 N412 1.356 . S
C405 C404 1.363 . S
C405 C411 1.363 . S
C406 C407 1.363 . S
C406 C411 1.379 1_545 S
C406 N413 1.356 . S
C407 C406 1.363 . S
C407 C410 1.363 . S
N408 C410 1.356 . S
N408 H420 0.984 . S
N408 H421 0.985 . S
N409 C411 1.356 . S
N409 H414 0.984 . S
N409 H415 0.985 . S
C410 C404 1.379 1_545 S
C410 C407 1.363 . S
C410 N408 1.356 . S
C411 C405 1.363 . S
C411 C406 1.379 1_565 S
C411 N409 1.356 . S
N412 C404 1.356 . S
N412 H418 0.984 . S
N412 H419 0.984 . S
N413 C406 1.356 . S
N413 H416 0.984 . S
N413 H417 0.985 . S
H414 N409 0.984 . S
H415 N409 0.985 . S
H416 N413 0.984 . S
H417 N413 0.985 . S
H418 N412 0.984 . S
H419 N412 0.984 . S
H420 N408 0.984 . S
H421 N408 0.985 . S
C422 C423 1.363 . S
C422 C428 1.379 1_455 S
C422 N430 1.356 . S
C423 C422 1.363 . S
C423 C429 1.363 . S
C424 C425 1.363 . S
C424 C429 1.379 1_655 S
C424 N431 1.356 . S
C425 C424 1.363 . S
C425 C428 1.363 . S
N426 C428 1.356 . S
N426 H438 0.984 . S
N426 H439 0.985 . S
N427 C429 1.356 . S
N427 H432 0.984 . S
N427 H433 0.985 . S
C428 C422 1.379 1_655 S
C428 C425 1.363 . S
C428 N426 1.356 . S
C429 C423 1.363 . S
C429 C424 1.379 1_455 S
C429 N427 1.356 . S
N430 C422 1.356 . S
N430 H436 0.984 . S
N430 H437 0.984 . S
N431 C424 1.356 . S
N431 H434 0.984 . S
N431 H435 0.985 . S
H432 N427 0.984 . S
H433 N427 0.985 . S
H434 N431 0.984 . S
H435 N431 0.985 . S
H436 N430 0.984 . S
H437 N430 0.984 . S
H438 N426 0.984 . S
H439 N426 0.985 . S
C440 C441 1.363 . S
C440 C446 1.379 . S
C440 N448 1.356 . S
C441 C440 1.363 . S
C441 C447 1.363 1_554 S
C442 C443 1.363 1_556 S
C442 C447 1.379 . S
C442 N449 1.356 . S
C443 C442 1.363 1_554 S
C443 C446 1.363 . S
N444 C446 1.356 . S
N444 H456 0.984 . S
N444 H457 0.985 . S
N445 C447 1.356 . S
N445 H450 0.984 . S
N445 H451 0.985 . S
C446 C440 1.379 . S
C446 C443 1.363 . S
C446 N444 1.356 . S
C447 C441 1.363 1_556 S
C447 C442 1.379 . S
C447 N445 1.356 . S
N448 C440 1.356 . S
N448 H454 0.984 . S
N448 H455 0.984 . S
N449 C442 1.356 . S
N449 H452 0.984 . S
N449 H453 0.985 . S
H450 N445 0.984 . S
H451 N445 0.985 . S
H452 N449 0.984 . S
H453 N449 0.985 . S
H454 N448 0.984 . S
H455 N448 0.984 . S
H456 N444 0.984 . S
H457 N444 0.985 . S
C458 C459 1.363 . S
C458 C464 1.379 . S
C458 N466 1.356 . S
C459 C458 1.363 . S
C459 C465 1.363 . S
C460 C461 1.363 . S
C460 C465 1.379 . S
C460 N467 1.356 1_556 S
C461 C460 1.363 . S
C461 C464 1.363 . S
N462 C464 1.356 . S
N462 H474 0.984 . S
N462 H475 0.985 . S
N463 C465 1.356 . S
N463 H468 0.984 . S
N463 H469 0.985 . S
C464 C458 1.379 . S
C464 C461 1.363 . S
C464 N462 1.356 . S
C465 C459 1.363 . S
C465 C460 1.379 . S
C465 N463 1.356 . S
N466 C458 1.356 . S
N466 H472 0.984 . S
N466 H473 0.984 . S
N467 C460 1.356 1_554 S
N467 H470 0.984 . S
N467 H471 0.985 . S
H468 N463 0.984 . S
H469 N463 0.985 . S
H470 N467 0.984 . S
H471 N467 0.985 . S
H472 N466 0.984 . S
H473 N466 0.984 . S
H474 N462 0.984 . S
H475 N462 0.985 . S
C476 C477 1.363 . S
C476 C482 1.379 . S
C476 N484 1.356 . S
C477 C476 1.363 . S
C477 C483 1.363 1_554 S
C478 C479 1.363 1_556 S
C478 C483 1.379 . S
C478 N485 1.356 . S
C479 C478 1.363 1_554 S
C479 C482 1.363 . S
N480 C482 1.356 . S
N480 H492 0.984 . S
N480 H493 0.985 . S
N481 C483 1.356 . S
N481 H486 0.984 . S
N481 H487 0.985 . S
C482 C476 1.379 . S
C482 C479 1.363 . S
C482 N480 1.356 . S
C483 C477 1.363 1_556 S
C483 C478 1.379 . S
C483 N481 1.356 . S
N484 C476 1.356 . S
N484 H490 0.984 . S
N484 H491 0.984 . S
N485 C478 1.356 . S
N485 H488 0.984 . S
N485 H489 0.985 . S
H486 N481 0.984 . S
H487 N481 0.985 . S
H488 N485 0.984 . S
H489 N485 0.985 . S
H490 N484 0.984 . S
H491 N484 0.984 . S
H492 N480 0.984 . S
H493 N480 0.985 . S
C494 C495 1.363 . S
C494 C500 1.379 . S
C494 N502 1.356 . S
C495 C494 1.363 . S
C495 C501 1.363 1_556 S
C496 C497 1.363 1_554 S
C496 C501 1.379 . S
C496 N503 1.356 . S
C497 C496 1.363 1_556 S
C497 C500 1.363 . S
N498 C500 1.356 . S
N498 H510 0.984 . S
N498 H511 0.985 . S
N499 C501 1.356 . S
N499 H504 0.984 . S
N499 H505 0.985 . S
C500 C494 1.379 . S
C500 C497 1.363 . S
C500 N498 1.356 . S
C501 C495 1.363 1_554 S
C501 C496 1.379 . S
C501 N499 1.356 . S
N502 C494 1.356 . S
N502 H508 0.984 . S
N502 H509 0.984 . S
N503 C496 1.356 . S
N503 H506 0.984 . S
N503 H507 0.985 . S
H504 N499 0.984 . S
H505 N499 0.985 . S
H506 N503 0.984 . S
H507 N503 0.985 . S
H508 N502 0.984 . S
H509 N502 0.984 . S
H510 N498 0.984 . S
H511 N498 0.985 . S
C512 C513 1.363 . S
C512 C518 1.379 . S
C512 N520 1.356 . S
C513 C512 1.363 . S
C513 C519 1.363 . S
C514 C515 1.363 . S
C514 C519 1.379 . S
C514 N521 1.356 . S
C515 C514 1.363 . S
C515 C518 1.363 . S
N516 C518 1.356 . S
N516 H528 0.984 . S
N516 H529 0.985 . S
N517 C519 1.356 . S
N517 H522 0.984 . S
N517 H523 0.985 . S
C518 C512 1.379 . S
C518 C515 1.363 . S
C518 N516 1.356 . S
C519 C513 1.363 . S
C519 C514 1.379 . S
C519 N517 1.356 . S
N520 C512 1.356 . S
N520 H526 0.984 . S
N520 H527 0.984 . S
N521 C514 1.356 . S
N521 H524 0.984 . S
N521 H525 0.985 . S
H522 N517 0.984 . S
H523 N517 0.985 . S
H524 N521 0.984 . S
H525 N521 0.985 . S
H526 N520 0.984 . S
H527 N520 0.984 . S
H528 N516 0.984 . S
H529 N516 0.985 . S
C530 C531 1.363 . S
C530 C536 1.379 . S
C530 N538 1.356 . S
C531 C530 1.363 . S
C531 C537 1.363 . S
C532 C533 1.363 . S
C532 C537 1.379 . S
C532 N539 1.356 . S
C533 C532 1.363 . S
C533 C536 1.363 . S
N534 C536 1.356 . S
N534 H546 0.984 . S
N534 H547 0.985 . S
N535 C537 1.356 . S
N535 H540 0.984 . S
N535 H541 0.985 . S
C536 C530 1.379 . S
C536 C533 1.363 . S
C536 N534 1.356 . S
C537 C531 1.363 . S
C537 C532 1.379 . S
C537 N535 1.356 . S
N538 C530 1.356 . S
N538 H544 0.984 . S
N538 H545 0.984 . S
N539 C532 1.356 . S
N539 H542 0.984 . S
N539 H543 0.985 . S
H540 N535 0.984 . S
H541 N535 0.985 . S
H542 N539 0.984 . S
H543 N539 0.985 . S
H544 N538 0.984 . S
H545 N538 0.984 . S
H546 N534 0.984 . S
H547 N534 0.985 . S
C548 C549 1.363 . S
C548 C554 1.379 . S
C548 N556 1.356 . S
C549 C548 1.363 . S
C549 C555 1.363 . S
C550 C551 1.363 . S
C550 C555 1.379 . S
C550 N557 1.356 . S
C551 C550 1.363 . S
C551 C554 1.363 . S
N552 C554 1.356 . S
N552 H564 0.984 . S
N552 H565 0.985 . S
N553 C555 1.356 . S
N553 H558 0.984 . S
N553 H559 0.985 . S
C554 C548 1.379 . S
C554 C551 1.363 . S
C554 N552 1.356 . S
C555 C549 1.363 . S
C555 C550 1.379 . S
C555 N553 1.356 . S
N556 C548 1.356 . S
N556 H562 0.984 . S
N556 H563 0.984 . S
N557 C550 1.356 . S
N557 H560 0.984 . S
N557 H561 0.985 . S
H558 N553 0.984 . S
H559 N553 0.985 . S
H560 N557 0.984 . S
H561 N557 0.985 . S
H562 N556 0.984 . S
H563 N556 0.984 . S
H564 N552 0.984 . S
H565 N552 0.985 . S
C566 C567 1.363 . S
C566 C572 1.379 . S
C566 N574 1.356 . S
C567 C566 1.363 . S
C567 C573 1.363 . S
C568 C569 1.363 . S
C568 C573 1.379 . S
C568 N575 1.356 . S
C569 C568 1.363 . S
C569 C572 1.363 . S
N570 C572 1.356 . S
N570 H582 0.984 . S
N570 H583 0.985 . S
N571 C573 1.356 . S
N571 H576 0.984 . S
N571 H577 0.985 . S
C572 C566 1.379 . S
C572 C569 1.363 . S
C572 N570 1.356 . S
C573 C567 1.363 . S
C573 C568 1.379 . S
C573 N571 1.356 . S
N574 C566 1.356 . S
N574 H580 0.984 . S
N574 H581 0.984 . S
N575 C568 1.356 . S
N575 H578 0.984 . S
N575 H579 0.985 . S
H576 N571 0.984 . S
H577 N571 0.985 . S
H578 N575 0.984 . S
H579 N575 0.985 . S
H580 N574 0.984 . S
H581 N574 0.984 . S
H582 N570 0.984 . S
H583 N570 0.985 . S
C584 C585 1.363 . S
C584 C590 1.379 1_565 S
C584 N592 1.356 . S
C585 C584 1.363 . S
C585 C591 1.363 . S
C586 C587 1.363 . S
C586 C591 1.379 1_545 S
C586 N593 1.356 . S
C587 C586 1.363 . S
C587 C590 1.363 . S
N588 C590 1.356 . S
N588 H600 0.984 . S
N588 H601 0.985 . S
N589 C591 1.356 . S
N589 H594 0.984 . S
N589 H595 0.985 . S
C590 C584 1.379 1_545 S
C590 C587 1.363 . S
C590 N588 1.356 . S
C591 C585 1.363 . S
C591 C586 1.379 1_565 S
C591 N589 1.356 . S
N592 C584 1.356 . S
N592 H598 0.984 . S
N592 H599 0.984 . S
N593 C586 1.356 . S
N593 H596 0.984 . S
N593 H597 0.985 . S
H594 N589 0.984 . S
H595 N589 0.985 . S
H596 N593 0.984 . S
H597 N593 0.985 . S
H598 N592 0.984 . S
H599 N592 0.984 . S
H600 N588 0.984 . S
H601 N588 0.985 . S
C602 C603 1.363 . S
C602 C608 1.379 1_655 S
C602 N610 1.356 . S
C603 C602 1.363 . S
C603 C609 1.363 . S
C604 C605 1.363 . S
C604 C609 1.379 1_455 S
C604 N611 1.356 . S
C605 C604 1.363 . S
C605 C608 1.363 . S
N606 C608 1.356 . S
N606 H618 0.984 . S
N606 H619 0.985 . S
N607 C609 1.356 . S
N607 H612 0.984 . S
N607 H613 0.985 . S
C608 C602 1.379 1_455 S
C608 C605 1.363 . S
C608 N606 1.356 . S
C609 C603 1.363 . S
C609 C604 1.379 1_655 S
C609 N607 1.356 . S
N610 C602 1.356 . S
N610 H616 0.984 . S
N610 H617 0.984 . S
N611 C604 1.356 . S
N611 H614 0.984 . S
N611 H615 0.985 . S
H612 N607 0.984 . S
H613 N607 0.985 . S
H614 N611 0.984 . S
H615 N611 0.985 . S
H616 N610 0.984 . S
H617 N610 0.984 . S
H618 N606 0.984 . S
H619 N606 0.985 . S
C620 C621 1.363 . S
C620 C626 1.379 1_565 S
C620 N628 1.356 . S
C621 C620 1.363 . S
C621 C627 1.363 . S
C622 C623 1.363 . S
C622 C627 1.379 1_545 S
C622 N629 1.356 . S
C623 C622 1.363 . S
C623 C626 1.363 . S
N624 C626 1.356 . S
N624 H636 0.984 . S
N624 H637 0.985 . S
N625 C627 1.356 . S
N625 H630 0.984 . S
N625 H631 0.985 . S
C626 C620 1.379 1_545 S
C626 C623 1.363 . S
C626 N624 1.356 . S
C627 C621 1.363 . S
C627 C622 1.379 1_565 S
C627 N625 1.356 . S
N628 C620 1.356 . S
N628 H634 0.984 . S
N628 H635 0.984 . S
N629 C622 1.356 . S
N629 H632 0.984 . S
N629 H633 0.985 . S
H630 N625 0.984 . S
H631 N625 0.985 . S
H632 N629 0.984 . S
H633 N629 0.985 . S
H634 N628 0.984 . S
H635 N628 0.984 . S
H636 N624 0.984 . S
H637 N624 0.985 . S
C638 C639 1.363 . S
C638 C644 1.379 1_655 S
C638 N646 1.356 . S
C639 C638 1.363 . S
C639 C645 1.363 . S
C640 C641 1.363 . S
C640 C645 1.379 1_455 S
C640 N647 1.356 . S
C641 C640 1.363 . S
C641 C644 1.363 . S
N642 C644 1.356 . S
N642 H654 0.984 . S
N642 H655 0.985 . S
N643 C645 1.356 . S
N643 H648 0.984 . S
N643 H649 0.985 . S
C644 C638 1.379 1_455 S
C644 C641 1.363 . S
C644 N642 1.356 . S
C645 C639 1.363 . S
C645 C640 1.379 1_655 S
C645 N643 1.356 . S
N646 C638 1.356 . S
N646 H652 0.984 . S
N646 H653 0.984 . S
N647 C640 1.356 . S
N647 H650 0.984 . S
N647 H651 0.985 . S
H648 N643 0.984 . S
H649 N643 0.985 . S
H650 N647 0.984 . S
H651 N647 0.985 . S
H652 N646 0.984 . S
H653 N646 0.984 . S
H654 N642 0.984 . S
H655 N642 0.985 . S
C656 C657 1.363 . S
C656 C662 1.379 . S
C656 N664 1.356 . S
C657 C656 1.363 . S
C657 C663 1.363 . S
C658 C659 1.363 . S
C658 C663 1.379 . S
C658 N665 1.356 . S
C659 C658 1.363 . S
C659 C662 1.363 . S
N660 C662 1.356 . S
N660 H672 0.984 . S
N660 H673 0.985 . S
N661 C663 1.356 . S
N661 H666 0.984 . S
N661 H667 0.985 1_554 S
C662 C656 1.379 . S
C662 C659 1.363 . S
C662 N660 1.356 . S
C663 C657 1.363 . S
C663 C658 1.379 . S
C663 N661 1.356 . S
N664 C656 1.356 . S
N664 H670 0.984 . S
N664 H671 0.984 . S
N665 C658 1.356 . S
N665 H668 0.984 . S
N665 H669 0.985 1_554 S
H666 N661 0.984 . S
H667 N661 0.985 1_556 S
H668 N665 0.984 . S
H669 N665 0.985 1_556 S
H670 N664 0.984 . S
H671 N664 0.984 . S
H672 N660 0.984 . S
H673 N660 0.985 . S
C674 C675 1.363 . S
C674 C680 1.379 . S
C674 N682 1.356 . S
C675 C674 1.363 . S
C675 C681 1.363 . S
C676 C677 1.363 . S
C676 C681 1.379 . S
C676 N683 1.356 . S
C677 C676 1.363 . S
C677 C680 1.363 . S
N678 C680 1.356 . S
N678 H690 0.984 . S
N678 H691 0.985 . S
N679 C681 1.356 . S
N679 H684 0.984 . S
N679 H685 0.985 . S
C680 C674 1.379 . S
C680 C677 1.363 . S
C680 N678 1.356 . S
C681 C675 1.363 . S
C681 C676 1.379 . S
C681 N679 1.356 . S
N682 C674 1.356 . S
N682 H688 0.984 . S
N682 H689 0.984 . S
N683 C676 1.356 . S
N683 H686 0.984 . S
N683 H687 0.985 . S
H684 N679 0.984 . S
H685 N679 0.985 . S
H686 N683 0.984 . S
H687 N683 0.985 . S
H688 N682 0.984 . S
H689 N682 0.984 . S
H690 N678 0.984 . S
H691 N678 0.985 . S
C692 C693 1.363 . S
C692 C698 1.379 . S
C692 N700 1.356 . S
C693 C692 1.363 . S
C693 C699 1.363 . S
C694 C695 1.363 . S
C694 C699 1.379 . S
C694 N701 1.356 . S
C695 C694 1.363 . S
C695 C698 1.363 . S
N696 C698 1.356 . S
N696 H708 0.984 . S
N696 H709 0.985 . S
N697 C699 1.356 . S
N697 H702 0.984 . S
N697 H703 0.985 1_554 S
C698 C692 1.379 . S
C698 C695 1.363 . S
C698 N696 1.356 . S
C699 C693 1.363 . S
C699 C694 1.379 . S
C699 N697 1.356 . S
N700 C692 1.356 . S
N700 H706 0.984 . S
N700 H707 0.984 . S
N701 C694 1.356 . S
N701 H704 0.984 . S
N701 H705 0.985 1_554 S
H702 N697 0.984 . S
H703 N697 0.985 1_556 S
H704 N701 0.984 . S
H705 N701 0.985 1_556 S
H706 N700 0.984 . S
H707 N700 0.984 . S
H708 N696 0.984 . S
H709 N696 0.985 . S
C710 C711 1.363 . S
C710 C716 1.379 . S
C710 N718 1.356 . S
C711 C710 1.363 . S
C711 C717 1.363 . S
C712 C713 1.363 . S
C712 C717 1.379 . S
C712 N719 1.356 . S
C713 C712 1.363 . S
C713 C716 1.363 . S
N714 C716 1.356 . S
N714 H726 0.984 . S
N714 H727 0.985 . S
N715 C717 1.356 . S
N715 H720 0.984 . S
N715 H721 0.985 . S
C716 C710 1.379 . S
C716 C713 1.363 . S
C716 N714 1.356 . S
C717 C711 1.363 . S
C717 C712 1.379 . S
C717 N715 1.356 . S
N718 C710 1.356 . S
N718 H724 0.984 . S
N718 H725 0.984 . S
N719 C712 1.356 . S
N719 H722 0.984 . S
N719 H723 0.985 . S
H720 N715 0.984 . S
H721 N715 0.985 . S
H722 N719 0.984 . S
H723 N719 0.985 . S
H724 N718 0.984 . S
H725 N718 0.984 . S
H726 N714 0.984 . S
H727 N714 0.985 . S
C728 C729 1.363 . S
C728 C734 1.379 . S
C728 N736 1.356 . S
C729 C728 1.363 . S
C729 C735 1.363 . S
C730 C731 1.363 . S
C730 C735 1.379 . S
C730 N737 1.356 . S
C731 C730 1.363 . S
C731 C734 1.363 . S
N732 C734 1.356 . S
N732 H744 0.984 . S
N732 H745 0.985 . S
N733 C735 1.356 . S
N733 H738 0.984 . S
N733 H739 0.985 . S
C734 C728 1.379 . S
C734 C731 1.363 . S
C734 N732 1.356 . S
C735 C729 1.363 . S
C735 C730 1.379 . S
C735 N733 1.356 . S
N736 C728 1.356 . S
N736 H742 0.984 . S
N736 H743 0.984 . S
N737 C730 1.356 . S
N737 H740 0.984 . S
N737 H741 0.985 . S
H738 N733 0.984 . S
H739 N733 0.985 . S
H740 N737 0.984 . S
H741 N737 0.985 . S
H742 N736 0.984 . S
H743 N736 0.984 . S
H744 N732 0.984 . S
H745 N732 0.985 . S
C746 C747 1.363 . S
C746 C752 1.379 . S
C746 N754 1.356 . S
C747 C746 1.363 . S
C747 C753 1.363 . S
C748 C749 1.363 . S
C748 C753 1.379 . S
C748 N755 1.356 . S
C749 C748 1.363 . S
C749 C752 1.363 . S
N750 C752 1.356 . S
N750 H762 0.984 . S
N750 H763 0.985 . S
N751 C753 1.356 . S
N751 H756 0.984 . S
N751 H757 0.985 . S
C752 C746 1.379 . S
C752 C749 1.363 . S
C752 N750 1.356 . S
C753 C747 1.363 . S
C753 C748 1.379 . S
C753 N751 1.356 . S
N754 C746 1.356 . S
N754 H760 0.984 . S
N754 H761 0.984 . S
N755 C748 1.356 . S
N755 H758 0.984 . S
N755 H759 0.985 . S
H756 N751 0.984 . S
H757 N751 0.985 . S
H758 N755 0.984 . S
H759 N755 0.985 . S
H760 N754 0.984 . S
H761 N754 0.984 . S
H762 N750 0.984 . S
H763 N750 0.985 . S
C764 C765 1.363 . S
C764 C770 1.379 . S
C764 N772 1.356 . S
C765 C764 1.363 . S
C765 C771 1.363 . S
C766 C767 1.363 . S
C766 C771 1.379 . S
C766 N773 1.356 . S
C767 C766 1.363 . S
C767 C770 1.363 . S
N768 C770 1.356 . S
N768 H780 0.984 . S
N768 H781 0.985 . S
N769 C771 1.356 . S
N769 H774 0.984 . S
N769 H775 0.985 . S
C770 C764 1.379 . S
C770 C767 1.363 . S
C770 N768 1.356 . S
C771 C765 1.363 . S
C771 C766 1.379 . S
C771 N769 1.356 . S
N772 C764 1.356 . S
N772 H778 0.984 . S
N772 H779 0.984 . S
N773 C766 1.356 . S
N773 H776 0.984 . S
N773 H777 0.985 . S
H774 N769 0.984 . S
H775 N769 0.985 . S
H776 N773 0.984 . S
H777 N773 0.985 . S
H778 N772 0.984 . S
H779 N772 0.984 . S
H780 N768 0.984 . S
H781 N768 0.985 . S
C782 C783 1.363 . S
C782 C788 1.379 . S
C782 N790 1.356 . S
C783 C782 1.363 . S
C783 C789 1.363 . S
C784 C785 1.363 . S
C784 C789 1.379 . S
C784 N791 1.356 . S
C785 C784 1.363 . S
C785 C788 1.363 . S
N786 C788 1.356 . S
N786 H798 0.984 . S
N786 H799 0.985 . S
N787 C789 1.356 . S
N787 H792 0.984 . S
N787 H793 0.985 . S
C788 C782 1.379 . S
C788 C785 1.363 . S
C788 N786 1.356 . S
C789 C783 1.363 . S
C789 C784 1.379 . S
C789 N787 1.356 . S
N790 C782 1.356 . S
N790 H796 0.984 . S
N790 H797 0.984 . S
N791 C784 1.356 . S
N791 H794 0.984 . S
N791 H795 0.985 . S
H792 N787 0.984 . S
H793 N787 0.985 . S
H794 N791 0.984 . S
H795 N791 0.985 . S
H796 N790 0.984 . S
H797 N790 0.984 . S
H798 N786 0.984 . S
H799 N786 0.985 . S
C800 C801 1.363 . S
C800 C806 1.379 . S
C800 N808 1.356 . S
C801 C800 1.363 . S
C801 C807 1.363 . S
C802 C803 1.363 . S
C802 C807 1.379 . S
C802 N809 1.356 . S
C803 C802 1.363 . S
C803 C806 1.363 . S
N804 C806 1.356 . S
N804 H816 0.984 . S
N804 H817 0.985 . S
N805 C807 1.356 . S
N805 H810 0.984 . S
N805 H811 0.985 . S
C806 C800 1.379 . S
C806 C803 1.363 . S
C806 N804 1.356 . S
C807 C801 1.363 . S
C807 C802 1.379 . S
C807 N805 1.356 . S
N808 C800 1.356 . S
N808 H814 0.984 . S
N808 H815 0.984 . S
N809 C802 1.356 . S
N809 H812 0.984 1_556 S
N809 H813 0.985 . S
H810 N805 0.984 . S
H811 N805 0.985 . S
H812 N809 0.984 1_554 S
H813 N809 0.985 . S
H814 N808 0.984 . S
H815 N808 0.984 . S
H816 N804 0.984 . S
H817 N804 0.985 . S
C818 C819 1.363 . S
C818 C824 1.379 . S
C818 N826 1.356 . S
C819 C818 1.363 . S
C819 C825 1.363 . S
C820 C821 1.363 . S
C820 C825 1.379 . S
C820 N827 1.356 1_554 S
C821 C820 1.363 . S
C821 C824 1.363 . S
N822 C824 1.356 . S
N822 H834 0.984 . S
N822 H835 0.985 . S
N823 C825 1.356 . S
N823 H828 0.984 . S
N823 H829 0.985 . S
C824 C818 1.379 . S
C824 C821 1.363 . S
C824 N822 1.356 . S
C825 C819 1.363 . S
C825 C820 1.379 . S
C825 N823 1.356 . S
N826 C818 1.356 . S
N826 H832 0.984 . S
N826 H833 0.984 . S
N827 C820 1.356 1_556 S
N827 H830 0.984 . S
N827 H831 0.985 . S
H828 N823 0.984 . S
H829 N823 0.985 . S
H830 N827 0.984 . S
H831 N827 0.985 . S
H832 N826 0.984 . S
H833 N826 0.984 . S
H834 N822 0.984 . S
H835 N822 0.985 . S
C836 C837 1.363 . S
C836 C842 1.379 . S
C836 N844 1.356 . S
C837 C836 1.363 . S
C837 C843 1.363 . S
C838 C839 1.363 . S
C838 C843 1.379 . S
C838 N845 1.356 . S
C839 C838 1.363 . S
C839 C842 1.363 . S
N840 C842 1.356 . S
N840 H852 0.984 . S
N840 H853 0.985 . S
N841 C843 1.356 . S
N841 H846 0.984 . S
N841 H847 0.985 . S
C842 C836 1.379 . S
C842 C839 1.363 . S
C842 N840 1.356 . S
C843 C837 1.363 . S
C843 C838 1.379 . S
C843 N841 1.356 . S
N844 C836 1.356 . S
N844 H850 0.984 . S
N844 H851 0.984 1_556 S
N845 C838 1.356 . S
N845 H848 0.984 . S
N845 H849 0.985 . S
H846 N841 0.984 . S
H847 N841 0.985 . S
H848 N845 0.984 . S
H849 N845 0.985 . S
H850 N844 0.984 . S
H851 N844 0.984 1_554 S
H852 N840 0.984 . S
H853 N840 0.985 . S
C854 C855 1.363 . S
C854 C860 1.379 . S
C854 N862 1.356 . S
C855 C854 1.363 . S
C855 C861 1.363 . S
C856 C857 1.363 . S
C856 C861 1.379 . S
C856 N863 1.356 . S
C857 C856 1.363 . S
C857 C860 1.363 . S
N858 C860 1.356 . S
N858 H870 0.984 . S
N858 H871 0.985 . S
N859 C861 1.356 . S
N859 H864 0.984 . S
N859 H865 0.985 . S
C860 C854 1.379 . S
C860 C857 1.363 . S
C860 N858 1.356 . S
C861 C855 1.363 . S
C861 C856 1.379 . S
C861 N859 1.356 . S
N862 C854 1.356 . S
N862 H868 0.984 . S
N862 H869 0.984 . S
N863 C856 1.356 . S
N863 H866 0.984 1_554 S
N863 H867 0.985 1_554 S
H864 N859 0.984 . S
H865 N859 0.985 . S
H866 N863 0.984 1_556 S
H867 N863 0.985 1_556 S
H868 N862 0.984 . S
H869 N862 0.984 . S
H870 N858 0.984 . S
H871 N858 0.985 . S
C872 C873 1.363 . S
C872 C878 1.379 . S
C872 N880 1.356 . S
C873 C872 1.363 . S
C873 C879 1.363 . S
C874 C875 1.363 . S
C874 C879 1.379 . S
C874 N881 1.356 . S
C875 C874 1.363 . S
C875 C878 1.363 . S
N876 C878 1.356 . S
N876 H888 0.984 . S
N876 H889 0.985 . S
N877 C879 1.356 . S
N877 H882 0.984 . S
N877 H883 0.985 . S
C878 C872 1.379 . S
C878 C875 1.363 . S
C878 N876 1.356 . S
C879 C873 1.363 . S
C879 C874 1.379 . S
C879 N877 1.356 . S
N880 C872 1.356 . S
N880 H886 0.984 . S
N880 H887 0.984 . S
N881 C874 1.356 . S
N881 H884 0.984 . S
N881 H885 0.985 . S
H882 N877 0.984 . S
H883 N877 0.985 . S
H884 N881 0.984 . S
H885 N881 0.985 . S
H886 N880 0.984 . S
H887 N880 0.984 . S
H888 N876 0.984 . S
H889 N876 0.985 . S
C890 C891 1.363 . S
C890 C896 1.379 . S
C890 N898 1.356 . S
C891 C890 1.363 . S
C891 C897 1.363 . S
C892 C893 1.363 . S
C892 C897 1.379 . S
C892 N899 1.356 . S
C893 C892 1.363 . S
C893 C896 1.363 . S
N894 C896 1.356 . S
N894 H906 0.984 . S
N894 H907 0.985 . S
N895 C897 1.356 . S
N895 H900 0.984 . S
N895 H901 0.985 . S
C896 C890 1.379 . S
C896 C893 1.363 . S
C896 N894 1.356 . S
C897 C891 1.363 . S
C897 C892 1.379 . S
C897 N895 1.356 . S
N898 C890 1.356 . S
N898 H904 0.984 . S
N898 H905 0.984 . S
N899 C892 1.356 . S
N899 H902 0.984 . S
N899 H903 0.985 . S
H900 N895 0.984 . S
H901 N895 0.985 . S
H902 N899 0.984 . S
H903 N899 0.985 . S
H904 N898 0.984 . S
H905 N898 0.984 . S
H906 N894 0.984 . S
H907 N894 0.985 . S
C908 C909 1.363 . S
C908 C914 1.379 . S
C908 N916 1.356 . S
C909 C908 1.363 . S
C909 C915 1.363 . S
C910 C911 1.363 . S
C910 C915 1.379 . S
C910 N917 1.356 . S
C911 C910 1.363 . S
C911 C914 1.363 . S
N912 C914 1.356 . S
N912 H924 0.984 . S
N912 H925 0.985 . S
N913 C915 1.356 . S
N913 H918 0.984 . S
N913 H919 0.985 . S
C914 C908 1.379 . S
C914 C911 1.363 . S
C914 N912 1.356 . S
C915 C909 1.363 . S
C915 C910 1.379 . S
C915 N913 1.356 . S
N916 C908 1.356 . S
N916 H922 0.984 . S
N916 H923 0.984 . S
N917 C910 1.356 . S
N917 H920 0.984 . S
N917 H921 0.985 . S
H918 N913 0.984 . S
H919 N913 0.985 . S
H920 N917 0.984 . S
H921 N917 0.985 . S
H922 N916 0.984 . S
H923 N916 0.984 . S
H924 N912 0.984 . S
H925 N912 0.985 . S
C926 C927 1.363 . S
C926 C932 1.379 . S
C926 N934 1.356 . S
C927 C926 1.363 . S
C927 C933 1.363 . S
C928 C929 1.363 . S
C928 C933 1.379 . S
C928 N935 1.356 . S
C929 C928 1.363 . S
C929 C932 1.363 . S
N930 C932 1.356 . S
N930 H942 0.984 . S
N930 H943 0.985 . S
N931 C933 1.356 . S
N931 H936 0.984 . S
N931 H937 0.985 . S
C932 C926 1.379 . S
C932 C929 1.363 . S
C932 N930 1.356 . S
C933 C927 1.363 . S
C933 C928 1.379 . S
C933 N931 1.356 . S
N934 C926 1.356 . S
N934 H940 0.984 . S
N934 H941 0.984 . S
N935 C928 1.356 . S
N935 H938 0.984 . S
N935 H939 0.985 . S
H936 N931 0.984 . S
H937 N931 0.985 . S
H938 N935 0.984 . S
H939 N935 0.985 . S
H940 N934 0.984 . S
H941 N934 0.984 . S
H942 N930 0.984 . S
H943 N930 0.985 . S
C369 N255 1.476 . S
C371 C16 1.618 . S
C387 C39 1.618 . S
C389 N186 1.476 . S
C405 C62 1.618 . S
C407 N209 1.476 . S
C423 N232 1.476 . S
C425 C85 1.618 . S
C441 C108 1.618 . S
C443 N117 1.476 1_554 S
C459 C131 1.618 . S
C461 N140 1.476 1_556 S
C477 N163 1.476 1_554 S
C479 C154 1.618 . S
C495 N94 1.476 1_556 S
C497 C177 1.618 . S
C513 N71 1.476 . S
C515 C200 1.618 . S
C531 C223 1.618 . S
C533 N2 1.476 . S
C549 N25 1.476 . S
C551 C246 1.618 . S
C567 C269 1.618 . S
C569 N48 1.476 . S
C585 C292 1.618 . S
C587 N301 1.476 . S
C603 C315 1.618 . S
C605 N324 1.476 . S
C621 N347 1.476 . S
C623 C338 1.618 . S
C639 N278 1.476 . S
C641 C361 1.618 . S
C657 C99 1.411 . S
C659 C7 1.411 . S
C675 C30 1.411 . S
C677 C122 1.411 . S
C693 C53 1.411 . S
C695 C145 1.411 . S
C711 C168 1.411 . S
C713 C76 1.411 . S
C729 C191 1.411 . S
C731 C283 1.411 . S
C747 C306 1.411 . S
C749 C214 1.411 . S
C765 C237 1.411 . S
C767 C329 1.411 . S
C783 C352 1.411 . S
C785 C260 1.411 . S
C801 N334 1.786 . S
C803 N12 1.786 1_556 S
C819 N357 1.786 . S
C821 N35 1.786 1_554 S
C837 N58 1.786 1_556 S
C839 N288 1.786 . S
C855 N311 1.786 . S
C857 N81 1.786 1_554 S
C873 N242 1.786 . S
C875 N104 1.786 . S
C891 N265 1.786 . S
C893 N127 1.786 . S
C909 N150 1.786 . S
C911 N196 1.786 . S
C927 N219 1.786 . S
C929 N173 1.786 . S
