# Generated by pormake.
# Topology irl, (4)-cn, num edge types: 1
# Building blocks:
#     Node 0, Type 0, BuildingBlock: QUQFOY_clean_sbu_3, # of connection points: 4
#     Node 1, Type 0, BuildingBlock: QUQFOY_clean_sbu_3, # of connection points: 4
#     Node 2, Type 0, BuildingBlock: QUQFOY_clean_sbu_3, # of connection points: 4
#     Node 3, Type 0, BuildingBlock: QUQFOY_clean_sbu_3, # of connection points: 4
#     Node 4, Type 0, BuildingBlock: QUQFOY_clean_sbu_3, # of connection points: 4
#     Node 5, Type 0, BuildingBlock: QUQFOY_clean_sbu_3, # of connection points: 4
#     Node 6, Type 0, BuildingBlock: QUQFOY_clean_sbu_3, # of connection points: 4
#     Node 7, Type 0, BuildingBlock: QUQFOY_clean_sbu_3, # of connection points: 4
#     Edge 8, Type (0, 0), BuildingBlock: EZIPEK_clean_linker_0, # of connection points: 2
#     Edge 9, Type (0, 0), BuildingBlock: EZIPEK_clean_linker_0, # of connection points: 2
#     Edge 10, Type (0, 0), BuildingBlock: EZIPEK_clean_linker_0, # of connection points: 2
#     Edge 11, Type (0, 0), BuildingBlock: EZIPEK_clean_linker_0, # of connection points: 2
#     Edge 12, Type (0, 0), BuildingBlock: EZIPEK_clean_linker_0, # of connection points: 2
#     Edge 13, Type (0, 0), BuildingBlock: EZIPEK_clean_linker_0, # of connection points: 2
#     Edge 14, Type (0, 0), BuildingBlock: EZIPEK_clean_linker_0, # of connection points: 2
#     Edge 15, Type (0, 0), BuildingBlock: EZIPEK_clean_linker_0, # of connection points: 2
#     Edge 16, Type (0, 0), BuildingBlock: EZIPEK_clean_linker_0, # of connection points: 2
#     Edge 17, Type (0, 0), BuildingBlock: EZIPEK_clean_linker_0, # of connection points: 2
#     Edge 18, Type (0, 0), BuildingBlock: EZIPEK_clean_linker_0, # of connection points: 2
#     Edge 19, Type (0, 0), BuildingBlock: EZIPEK_clean_linker_0, # of connection points: 2
#     Edge 20, Type (0, 0), BuildingBlock: EZIPEK_clean_linker_0, # of connection points: 2
#     Edge 21, Type (0, 0), BuildingBlock: EZIPEK_clean_linker_0, # of connection points: 2
#     Edge 22, Type (0, 0), BuildingBlock: EZIPEK_clean_linker_0, # of connection points: 2
#     Edge 23, Type (0, 0), BuildingBlock: EZIPEK_clean_linker_0, # of connection points: 2
# Relax obj value: 0.061
# Max RMSD: 0.123
# Mean RMSD: 0.123
data_MOF--net-irl--node1-QUQFOY_clean_sbu_3--edge1-EZIPEK_clean_linker_0
_symmetry_space_group_name_H-M    P1
_symmetry_Int_Tables_number       1
_symmetry_cell_setting            triclinic
loop_
_symmetry_equiv_pos_as_xyz
'x, y, z'
_cell_length_a     27.556868
_cell_length_b     33.275857
_cell_length_c     21.290777
_cell_angle_alpha  89.398132
_cell_angle_beta   90.312271
_cell_angle_gamma 90.235024
loop_
_atom_site_label
_atom_site_type_symbol
_atom_site_fract_x
_atom_site_fract_y
_atom_site_fract_z
_atom_type_partial_charge
C0 C -0.01903 0.18833 0.84716 0.0
O1 O 0.93751 0.18972 0.86638 0.0
Cd2 Cd 0.91748 0.17012 0.97334 0.0
O3 O 0.01513 0.17844 0.88407 0.0
Cd4 Cd 0.02789 0.16143 -0.00683 0.0
C5 C 0.96409 0.07519 -0.01309 0.0
O6 O -0.03141 0.20313 0.04933 0.0
O7 O 0.00701 0.15585 0.10015 0.0
O8 O 0.08924 0.21225 -0.00971 0.0
C9 C -0.02177 0.18541 0.10116 0.0
O10 O 0.9268 0.09762 -0.01326 0.0
C11 C 0.12416 0.18897 0.00338 0.0
O12 O 0.00678 0.08998 -0.01574 0.0
O13 O 0.11476 0.15191 0.01249 0.0
C14 C -0.00916 0.79928 0.96043 0.0
O15 O 0.0235 0.79969 0.00271 0.0
Cd16 Cd 0.00148 0.82466 0.105 0.0
O17 O 0.94661 0.80468 0.97393 0.0
Cd18 Cd 0.88925 0.81423 0.05794 0.0
C19 C 0.9381 0.9074 0.04806 0.0
O20 O 0.93416 0.78781 0.14702 0.0
O21 O 0.87068 0.82374 0.16725 0.0
O22 O 0.85028 0.75338 0.02278 0.0
C23 C 0.90666 0.80363 0.1876 0.0
O24 O -0.02482 0.89244 0.07548 0.0
C25 C 0.80868 0.76925 0.01682 0.0
O26 O 0.90116 0.88597 0.03412 0.0
O27 O 0.8046 0.8065 0.02854 0.0
C28 C -0.01768 0.81412 0.69511 0.0
O29 O 0.93912 0.81485 0.67423 0.0
Cd30 Cd 0.92023 0.83443 0.56713 0.0
O31 O 0.01797 0.82109 0.65922 0.0
Cd32 Cd 0.03156 0.83427 0.54833 0.0
C33 C -0.02142 0.92507 0.55315 0.0
O34 O 0.96663 0.79775 0.49184 0.0
O35 O 0.00946 0.84246 0.44151 0.0
O36 O 0.08771 0.77914 0.54898 0.0
C37 C -0.02262 0.81514 0.44016 0.0
O38 O 0.93869 0.90568 0.55382 0.0
C39 C 0.12398 0.80005 0.53203 0.0
O40 O 0.01931 0.90706 0.5558 0.0
O41 O 0.11792 0.83762 0.52403 0.0
C42 C 0.00193 0.20737 0.58519 0.0
O43 O 0.03528 0.20751 0.54425 0.0
Cd44 Cd 0.0175 0.18059 0.44098 0.0
O45 O 0.95841 0.19933 0.57044 0.0
Cd46 Cd 0.90374 0.18441 0.48577 0.0
C47 C 0.96043 0.09415 0.49512 0.0
O48 O 0.94705 0.21193 0.39622 0.0
O49 O 0.88361 0.17499 0.37792 0.0
O50 O 0.85846 0.24263 0.51611 0.0
C51 C 0.91914 0.19506 0.35647 0.0
O52 O -0.00329 0.11133 0.46925 0.0
C53 C 0.81833 0.22392 0.51998 0.0
O54 O 0.92184 0.11341 0.50811 0.0
O55 O 0.8184 0.18611 0.5114 0.0
C56 C 0.47879 0.69227 0.8042 0.0
O57 O 0.43638 0.69348 0.82705 0.0
Cd58 Cd 0.41901 0.6742 0.93459 0.0
O59 O 0.51494 0.68233 0.83798 0.0
Cd60 Cd 0.53219 0.66464 0.94688 0.0
C61 C 0.4657 0.57903 0.9444 0.0
O62 O 0.47453 0.70614 0.00588 0.0
O63 O 0.51456 0.65951 0.05555 0.0
O64 O 0.59669 0.71337 0.94487 0.0
C65 C 0.48512 0.68858 0.05751 0.0
O66 O 0.42859 0.60163 0.94577 0.0
C67 C 0.63008 0.68872 0.9589 0.0
O68 O 0.50845 0.59357 0.93984 0.0
O69 O 0.61852 0.65186 0.96504 0.0
C70 C 0.47215 0.30327 0.89817 0.0
O71 O 0.5105 0.30149 0.93139 0.0
Cd72 Cd 0.50838 0.32551 0.03758 0.0
O73 O 0.43123 0.31024 0.92256 0.0
Cd74 Cd 0.39141 0.31852 0.02237 0.0
C75 C 0.44026 0.41065 0.00183 0.0
O76 O 0.44866 0.28972 0.09654 0.0
O77 O 0.39429 0.33042 0.13246 0.0
O78 O 0.3458 0.25821 0.00244 0.0
C79 C 0.42969 0.30704 0.14326 0.0
O80 O 0.48028 0.39423 0.01764 0.0
C81 C 0.30477 0.27451 0.0104 0.0
O82 O 0.40093 0.39042 -0.00209 0.0
O83 O 0.30379 0.31195 0.02202 0.0
C84 C 0.46726 0.32333 0.6307 0.0
O85 O 0.42857 0.3233 0.59803 0.0
Cd86 Cd 0.42896 0.34176 0.48787 0.0
O87 O 0.50813 0.33122 0.60635 0.0
Cd88 Cd 0.54726 0.34505 0.50748 0.0
C89 C 0.48811 0.43377 0.49411 0.0
O90 O 0.49389 0.30637 0.43981 0.0
O91 O 0.54865 0.34382 0.39543 0.0
O92 O 0.60121 0.29219 0.53878 0.0
C93 C 0.51342 0.31953 0.38972 0.0
O94 O 0.44992 0.41315 0.48361 0.0
C95 C 0.63976 0.31212 0.52894 0.0
O96 O 0.52852 0.4172 0.50797 0.0
O97 O 0.63566 0.34861 0.51138 0.0
C98 C 0.48755 0.71315 0.5387 0.0
O99 O 0.52156 0.71707 0.49899 0.0
Cd100 Cd 0.50924 0.69335 0.39262 0.0
O101 O 0.44509 0.70299 0.52187 0.0
Cd102 Cd 0.39176 0.68831 0.43472 0.0
C103 C 0.45839 0.60219 0.43997 0.0
O104 O 0.43543 0.72003 0.35058 0.0
O105 O 0.37409 0.68291 0.32428 0.0
O106 O 0.34207 0.74244 0.47066 0.0
C107 C 0.41056 0.70363 0.30729 0.0
O108 O 0.49379 0.62273 0.41817 0.0
C109 C 0.3037 0.72133 0.47478 0.0
O110 O 0.4172 0.61812 0.45091 0.0
O111 O 0.30644 0.68413 0.46183 0.0
C112 C 0.93746 0.9795 0.07822 0.0
C113 C 0.93969 0.95044 0.03029 0.0
C114 C 0.95493 0.00362 0.9519 0.0
C115 C 0.95756 0.03196 0.00105 0.0
N116 N 0.9598 0.04631 0.1119 0.0
N117 N 0.95561 0.9333 0.92251 0.0
C118 C 0.95114 0.01974 0.06452 0.0
C119 C 0.94955 0.96205 0.96719 0.0
N120 N 0.92098 0.96874 0.13646 0.0
N121 N 0.95691 0.01654 0.89081 0.0
H122 H 0.95091 0.90267 0.93168 0.0
H123 H -0.03175 0.93945 0.87743 0.0
H124 H 0.96236 0.04663 0.87833 0.0
H125 H 0.95008 0.99803 0.85262 0.0
H126 H 0.91398 0.98929 0.17181 0.0
H127 H 0.90953 0.93961 0.14731 0.0
H128 H 0.96042 0.03816 0.15925 0.0
H129 H -0.02905 0.07587 0.10373 0.0
C130 C -0.03122 0.99619 0.58896 0.0
C131 C -0.02297 0.96868 0.5398 0.0
C132 C -0.0309 0.02281 0.46158 0.0
C133 C 0.96414 0.05086 0.51082 0.0
N134 N -0.03254 0.06589 0.62144 0.0
N135 N -0.00724 0.95592 0.43043 0.0
C136 C 0.96606 0.03803 0.57466 0.0
C137 C -0.02036 0.98208 0.47642 0.0
N138 N 0.96295 0.98224 0.64908 0.0
N139 N 0.96178 0.03485 0.40066 0.0
H140 H -6e-05 0.92563 0.43917 0.0
H141 H 0.00043 0.96474 0.38448 0.0
H142 H 0.95379 0.06443 0.38799 0.0
H143 H 0.95938 0.01511 0.36315 0.0
H144 H 0.9514 1.0001 0.68592 0.0
H145 H 0.96688 0.95199 0.66146 0.0
H146 H -0.02587 0.05871 0.66839 0.0
H147 H 0.96572 0.09677 0.61284 0.0
C148 C 0.4649 0.52152 0.02044 0.0
C149 C 0.45901 0.5357 0.95775 0.0
C150 C 0.43719 0.46775 0.92363 0.0
C151 C 0.44075 0.45418 -0.01304 0.0
N152 N 0.44625 0.46938 0.09696 0.0
N153 N 0.43306 0.52454 0.85109 0.0
C154 C 0.45125 0.48148 0.03577 0.0
C155 C 0.44298 0.50948 0.90973 0.0
N156 N 0.48422 0.54615 0.06521 0.0
N157 N 0.43024 0.44059 0.87664 0.0
H158 H 0.43902 0.55459 0.83873 0.0
H159 H 0.41625 0.508 0.81584 0.0
H160 H 0.42447 0.41003 0.88516 0.0
H161 H 0.43305 0.44779 0.8291 0.0
H162 H 0.49422 0.53623 0.10996 0.0
H163 H 0.49403 0.57594 0.05628 0.0
H164 H 0.4489 0.48874 0.13493 0.0
H165 H 0.43414 0.44067 0.10937 0.0
C166 C 0.46449 0.50254 0.5298 0.0
C167 C 0.48566 0.47768 0.48386 0.0
C168 C 0.48489 0.53339 0.40794 0.0
C169 C 0.46663 0.55913 0.45499 0.0
N170 N 0.45023 0.57051 0.5648 0.0
N171 N 0.52615 0.4713 0.38435 0.0
C172 C 0.45942 0.54438 0.51718 0.0
C173 C 0.49922 0.49376 0.4246 0.0
N174 N 0.44885 0.48612 0.58524 0.0
N175 N 0.48638 0.54609 0.34669 0.0
H176 H 0.53762 0.4422 0.39509 0.0
H177 H 0.54116 0.48282 0.3431 0.0
H178 H 0.47523 0.57458 0.33215 0.0
H179 H 0.49419 0.52716 0.30945 0.0
H180 H 0.42804 0.50177 0.61748 0.0
H181 H 0.45421 0.45598 0.59726 0.0
H182 H 0.44977 0.56194 0.61199 0.0
H183 H 0.44772 0.60151 0.55803 0.0
C184 C 0.92685 0.16134 0.18747 0.0
C185 C 0.95218 0.19372 0.15966 0.0
C186 C 0.94484 0.23131 0.25711 0.0
C187 C 0.92944 0.19543 0.28824 0.0
N188 N 0.91662 0.12321 0.2827 0.0
N189 N -0.01214 0.25968 0.16783 0.0
C190 C 0.92275 0.1596 0.25333 0.0
C191 C 0.96153 0.22907 0.19413 0.0
N192 N 0.90746 0.13189 0.15077 0.0
N193 N 0.94208 0.26748 0.28659 0.0
H194 H -0.00068 0.25934 0.12122 0.0
H195 H 0.00058 0.28415 0.19336 0.0
H196 H 0.92779 0.27062 0.3315 0.0
H197 H 0.94907 0.29478 0.26393 0.0
H198 H 0.88537 0.10901 0.1686 0.0
H199 H 0.90928 0.13317 0.10182 0.0
H200 H 0.91588 0.09615 0.25845 0.0
H201 H 0.91873 0.11924 0.33118 0.0
C202 C 0.93028 0.84306 0.35121 0.0
C203 C 0.94995 0.80876 0.38145 0.0
C204 C 0.93169 0.76885 0.28825 0.0
C205 C 0.92046 0.80483 0.25479 0.0
N206 N 0.92028 0.87763 0.25227 0.0
N207 N -0.02668 0.73903 0.37783 0.0
C208 C 0.92231 0.84239 0.28573 0.0
C209 C 0.95131 0.77141 0.35009 0.0
N210 N 0.91936 0.87639 0.38522 0.0
N211 N 0.92264 0.73237 0.26166 0.0
H212 H -0.01256 0.73966 0.42339 0.0
H213 H -0.01959 0.71246 0.35419 0.0
H214 H 0.90754 0.72941 0.21692 0.0
H215 H 0.92585 0.70524 0.28616 0.0
H216 H 0.9013 0.90113 0.36614 0.0
H217 H 0.92355 0.87724 0.43398 0.0
H218 H 0.92603 0.90565 0.27254 0.0
H219 H 0.91897 0.87879 0.20341 0.0
C220 C 0.01141 0.83931 0.79883 0.0
C221 C -0.00836 0.80752 0.76268 0.0
C222 C -0.01628 0.76551 0.85711 0.0
C223 C 0.00297 0.79744 0.89321 0.0
N224 N 0.0464 0.86045 0.89781 0.0
N225 N -0.03047 0.73767 0.75366 0.0
C226 C 0.02107 0.83275 0.86364 0.0
C227 C -0.01889 0.76967 0.79069 0.0
N228 N 0.01784 0.87658 0.77222 0.0
N229 N 0.96645 0.73183 0.88688 0.0
H230 H -0.03266 0.73984 0.7048 0.0
H231 H 0.96588 0.70837 0.77063 0.0
H232 H -0.02912 0.72698 0.9351 0.0
H233 H 0.94631 0.70957 0.86455 0.0
H234 H 0.02666 0.90211 0.79774 0.0
H235 H 0.01038 0.88301 0.72512 0.0
H236 H 0.06451 0.88488 0.87778 0.0
H237 H 0.05327 0.85714 0.94572 0.0
C238 C -0.01692 0.23472 0.7535 0.0
C239 C -0.00731 0.19644 0.78068 0.0
C240 C 0.0306 0.17493 0.68303 0.0
C241 C 0.01269 0.20996 0.65281 0.0
N242 N -0.02722 0.27391 0.65756 0.0
N243 N 0.02071 0.12811 0.76959 0.0
C244 C -0.01025 0.24037 0.68786 0.0
C245 C 0.01587 0.16615 0.74533 0.0
N246 N -0.03137 0.26573 0.79052 0.0
N247 N 0.06047 0.14949 0.65155 0.0
H248 H 0.00854 0.1197 0.81414 0.0
H249 H 0.03241 0.10377 0.74339 0.0
H250 H 0.07182 0.155 0.60568 0.0
H251 H 0.07807 0.12529 0.67298 0.0
H252 H 0.96541 0.29524 0.77438 0.0
H253 H 0.96371 0.26262 0.83888 0.0
H254 H 0.95027 0.29493 0.67842 0.0
H255 H -0.02 0.27973 0.61022 0.0
C256 C 0.43686 0.66258 0.14639 0.0
C257 C 0.45879 0.696 0.11632 0.0
C258 C 0.44192 0.73704 0.20841 0.0
C259 C 0.42785 0.70167 0.24176 0.0
N260 N 0.42444 0.62883 0.2453 0.0
N261 N 0.48663 0.76476 0.12003 0.0
C262 C 0.4285 0.66386 0.21153 0.0
C263 C 0.46228 0.73339 0.14739 0.0
N264 N 0.42362 0.62965 0.11246 0.0
N265 N 0.43456 0.77399 0.23396 0.0
H266 H 0.5013 0.76329 0.07508 0.0
H267 H 0.49505 0.79119 0.14359 0.0
H268 H 0.41888 0.77785 0.27794 0.0
H269 H 0.43987 0.80079 0.20918 0.0
H270 H 0.40387 0.60572 0.13152 0.0
H271 H 0.42749 0.62858 0.06381 0.0
H272 H 0.42917 0.60063 0.22539 0.0
H273 H 0.42259 0.62782 0.29415 0.0
C274 C 0.47851 0.34972 0.29283 0.0
C275 C 0.49008 0.31466 0.32793 0.0
C276 C 0.4605 0.27294 0.24164 0.0
C277 C 0.45432 0.30828 0.20466 0.0
N278 N 0.47171 0.37883 0.1893 0.0
N279 N 0.49898 0.24257 0.3332 0.0
C280 C 0.46765 0.34626 0.22852 0.0
C281 C 0.48295 0.27602 0.30178 0.0
N282 N 0.47569 0.38619 0.32145 0.0
N283 N 0.44363 0.23688 0.22033 0.0
H284 H 0.51551 0.24379 0.37733 0.0
H285 H 0.49928 0.21406 0.31349 0.0
H286 H 0.42746 0.23358 0.17627 0.0
H287 H 0.44251 0.21092 0.24805 0.0
H288 H 0.46329 0.41204 0.29851 0.0
H289 H 0.47998 0.38952 0.36976 0.0
H290 H 0.48553 0.40644 0.2039 0.0
H291 H 0.46685 0.37681 0.14085 0.0
C292 C 0.48929 0.34322 0.80206 0.0
C293 C 0.47525 0.30592 0.82945 0.0
C294 C 0.45494 0.27941 0.7257 0.0
C295 C 0.46557 0.31768 0.69918 0.0
N296 N 0.4832 0.38814 0.71227 0.0
N297 N 0.43906 0.24019 0.82018 0.0
C298 C 0.4802 0.35018 0.73742 0.0
C299 C 0.45632 0.27446 0.79207 0.0
N300 N 0.51113 0.37213 0.83785 0.0
N301 N 0.44538 0.24757 0.68742 0.0
H302 H 0.44196 0.23479 0.86844 0.0
H303 H 0.4196 0.21816 0.79636 0.0
H304 H 0.44339 0.25031 0.63863 0.0
H305 H 0.44262 0.21801 0.70353 0.0
H306 H 0.52722 0.3979 0.81901 0.0
H307 H 0.51644 0.36933 0.88618 0.0
H308 H 0.48846 0.41385 0.73895 0.0
H309 H 0.4757 0.39456 0.66515 0.0
C310 C 0.47614 0.73849 0.7104 0.0
C311 C 0.48641 0.70005 0.73659 0.0
C312 C 0.51463 0.67687 0.63441 0.0
C313 C 0.49756 0.71307 0.60666 0.0
N314 N 0.46035 0.77798 0.61601 0.0
N315 N 0.50935 0.6307 0.72263 0.0
C316 C 0.47818 0.74398 0.64416 0.0
C317 C 0.5047 0.66882 0.69858 0.0
N318 N 0.46558 0.76984 0.74892 0.0
N319 N 0.53931 0.64976 0.59898 0.0
H320 H 0.50109 0.62304 0.76898 0.0
H321 H 0.51698 0.60576 0.69533 0.0
H322 H 0.54624 0.65417 0.55133 0.0
H323 H 0.55677 0.62468 0.6179 0.0
H324 H 0.46234 0.79944 0.73316 0.0
H325 H 0.46401 0.76683 0.79769 0.0
H326 H 0.44021 0.79947 0.63955 0.0
H327 H 0.46398 0.78372 0.56796 0.0
C328 C 0.23239 0.2465 0.06566 0.0
C329 C 0.2601 0.2501 0.00988 0.0
C330 C 0.20429 0.20456 0.95569 0.0
C331 C 0.17351 0.20537 0.00868 0.0
N332 N 0.15536 0.22856 0.11282 0.0
N333 N 0.27112 0.236 0.89993 0.0
C334 C 0.18681 0.22664 0.06346 0.0
C335 C 0.24605 0.22969 0.95446 0.0
N336 N 0.25055 0.26062 0.12118 0.0
N337 N 0.19339 0.17987 0.9066 0.0
H338 H 0.30157 0.25464 0.89698 0.0
H339 H 0.25969 0.22545 0.85642 0.0
H340 H 0.16247 0.16168 0.9057 0.0
H341 H 0.21678 0.17482 0.86929 0.0
H342 H 0.23437 0.25514 0.16452 0.0
H343 H 0.28424 0.27482 0.12496 0.0
H344 H 0.16019 0.24775 0.15068 0.0
H345 H 0.12278 0.21248 0.11434 0.0
C346 C 0.69916 0.7011 0.033 0.0
C347 C 0.67967 0.7035 0.97122 0.0
C348 C 0.74621 0.74784 0.93836 0.0
C349 C 0.7661 0.74478 -0.00026 0.0
N350 N 0.76792 0.71269 0.10194 0.0
N351 N 0.68897 0.72137 0.86206 0.0
C352 C 0.74479 0.71927 0.04578 0.0
C353 C 0.70458 0.72457 0.9229 0.0
N354 N 0.67263 0.68396 0.08045 0.0
N355 N 0.76668 0.77346 0.89532 0.0
H356 H 0.659 0.70393 0.84931 0.0
H357 H 0.70793 0.73287 0.8237 0.0
H358 H 0.79861 0.78946 0.90411 0.0
H359 H 0.75077 0.78064 0.85221 0.0
H360 H 0.68218 0.68583 0.12771 0.0
H361 H 0.63892 0.67038 0.07354 0.0
H362 H 0.75711 0.69076 0.13426 0.0
H363 H 0.8002 0.72703 0.11454 0.0
C364 C 0.20964 0.78287 0.56018 0.0
C365 C 0.17026 0.78052 0.51729 0.0
C366 C 0.21908 0.74076 0.44533 0.0
C367 C 0.25713 0.74026 0.4905 0.0
N368 N 0.28686 0.75531 0.5944 0.0
N369 N 0.13429 0.75364 0.42285 0.0
C370 C 0.25204 0.75995 0.54888 0.0
C371 C 0.17396 0.75821 0.46112 0.0
N372 N 0.20652 0.80714 0.61143 0.0
N373 N 0.22692 0.72666 0.3861 0.0
H374 H 0.10132 0.76805 0.4304 0.0
H375 H 0.13301 0.73353 0.38572 0.0
H376 H 0.25971 0.71421 0.37202 0.0
H377 H 0.2025 0.73047 0.34905 0.0
H378 H 0.23582 0.81366 0.64071 0.0
H379 H 0.17526 0.82314 0.6224 0.0
H380 H 0.28312 0.76546 0.64019 0.0
H381 H 0.31805 0.73818 0.58808 0.0
C382 C 0.71956 0.29354 0.57772 0.0
C383 C 0.68655 0.29123 0.52663 0.0
C384 C 0.74171 0.24734 0.47002 0.0
C385 C 0.77259 0.24638 0.52354 0.0
N386 N 0.79018 0.26507 0.6303 0.0
N387 N 0.66263 0.26308 0.42689 0.0
C388 C 0.7615 0.26872 0.57795 0.0
C389 C 0.69654 0.2672 0.47365 0.0
N390 N 0.71085 0.31962 0.62551 0.0
N391 N 0.75673 0.23121 0.41453 0.0
H392 H 0.63024 0.27918 0.42523 0.0
H393 H 0.66512 0.24176 0.39159 0.0
H394 H 0.78998 0.21685 0.40913 0.0
H395 H 0.73833 0.2352 0.37209 0.0
H396 H 0.73566 0.32577 0.66117 0.0
H397 H 0.67977 0.33738 0.62719 0.0
H398 H 0.7817 0.27741 0.67356 0.0
H399 H 0.82109 0.24707 0.6318 0.0
loop_
_geom_bond_atom_site_label_1
_geom_bond_atom_site_label_2
_geom_bond_distance
_geom_bond_site_symmetry_2
_ccdc_geom_bond_type
C0 O1 1.306 1_455 S
C0 O3 1.160 . S
O1 C0 1.306 1_655 S
O1 Cd2 2.228 1_556 S
Cd2 O1 2.228 1_554 S
Cd2 O6 2.273 . S
Cd2 O10 2.277 . S
O3 C0 1.160 . S
O3 Cd4 2.203 1_556 S
Cd4 O3 2.203 1_554 S
Cd4 O6 2.411 1_455 S
Cd4 O7 2.333 . S
Cd4 O8 2.352 . S
Cd4 O12 2.277 . S
Cd4 O13 2.356 . S
C5 O10 1.209 1_455 S
C5 O12 1.226 . S
O6 Cd2 2.273 . S
O6 Cd4 2.411 1_655 S
O6 C9 1.320 1_655 S
O7 Cd4 2.333 . S
O7 C9 1.214 . S
O8 Cd4 2.352 . S
O8 C11 1.258 . S
C9 O6 1.320 1_455 S
C9 O7 1.214 . S
O10 Cd2 2.277 . S
O10 C5 1.209 1_655 S
C11 O8 1.258 . S
C11 O13 1.282 . S
O12 Cd4 2.277 . S
O12 C5 1.226 . S
O13 Cd4 2.356 . S
O13 C11 1.282 . S
C14 O15 1.306 1_655 S
C14 O17 1.160 . S
O15 C14 1.306 1_455 S
O15 Cd16 2.228 1_556 S
Cd16 O15 2.228 1_554 S
Cd16 O20 2.273 . S
Cd16 O24 2.277 . S
O17 C14 1.160 . S
O17 Cd18 2.203 1_556 S
Cd18 O17 2.203 1_554 S
Cd18 O20 2.411 1_655 S
Cd18 O21 2.333 . S
Cd18 O22 2.352 . S
Cd18 O26 2.277 . S
Cd18 O27 2.356 . S
C19 O24 1.209 1_655 S
C19 O26 1.226 . S
O20 Cd16 2.273 . S
O20 Cd18 2.411 1_455 S
O20 C23 1.320 1_455 S
O21 Cd18 2.333 . S
O21 C23 1.214 . S
O22 Cd18 2.352 . S
O22 C25 1.258 . S
C23 O20 1.320 1_655 S
C23 O21 1.214 . S
O24 Cd16 2.277 . S
O24 C19 1.209 1_455 S
C25 O22 1.258 . S
C25 O27 1.282 . S
O26 Cd18 2.277 . S
O26 C19 1.226 . S
O27 Cd18 2.356 . S
O27 C25 1.282 . S
C28 O29 1.306 1_455 S
C28 O31 1.160 . S
O29 C28 1.306 1_655 S
O29 Cd30 2.228 . S
Cd30 O29 2.228 . S
Cd30 O34 2.273 . S
Cd30 O38 2.277 . S
O31 C28 1.160 . S
O31 Cd32 2.203 . S
Cd32 O31 2.203 . S
Cd32 O34 2.411 1_455 S
Cd32 O35 2.333 . S
Cd32 O36 2.352 . S
Cd32 O40 2.277 . S
Cd32 O41 2.356 . S
C33 O38 1.209 1_455 S
C33 O40 1.226 . S
O34 Cd30 2.273 . S
O34 Cd32 2.411 1_655 S
O34 C37 1.320 1_655 S
O35 Cd32 2.333 . S
O35 C37 1.214 . S
O36 Cd32 2.352 . S
O36 C39 1.258 . S
C37 O34 1.320 1_455 S
C37 O35 1.214 . S
O38 Cd30 2.277 . S
O38 C33 1.209 1_655 S
C39 O36 1.258 . S
C39 O41 1.282 . S
O40 Cd32 2.277 . S
O40 C33 1.226 . S
O41 Cd32 2.356 . S
O41 C39 1.282 . S
C42 O43 1.306 1_655 S
C42 O45 1.160 . S
O43 C42 1.306 1_455 S
O43 Cd44 2.228 . S
Cd44 O43 2.228 . S
Cd44 O48 2.273 . S
Cd44 O52 2.277 . S
O45 C42 1.160 . S
O45 Cd46 2.203 . S
Cd46 O45 2.203 . S
Cd46 O48 2.411 1_655 S
Cd46 O49 2.333 . S
Cd46 O50 2.352 . S
Cd46 O54 2.277 . S
Cd46 O55 2.356 . S
C47 O52 1.209 1_655 S
C47 O54 1.226 . S
O48 Cd44 2.273 . S
O48 Cd46 2.411 1_455 S
O48 C51 1.320 1_455 S
O49 Cd46 2.333 . S
O49 C51 1.214 . S
O50 Cd46 2.352 . S
O50 C53 1.258 . S
C51 O48 1.320 1_655 S
C51 O49 1.214 . S
O52 Cd44 2.277 . S
O52 C47 1.209 1_455 S
C53 O50 1.258 . S
C53 O55 1.282 . S
O54 Cd46 2.277 . S
O54 C47 1.226 . S
O55 Cd46 2.356 . S
O55 C53 1.282 . S
C56 O57 1.306 . S
C56 O59 1.160 . S
O57 C56 1.306 . S
O57 Cd58 2.228 1_556 S
Cd58 O57 2.228 1_554 S
Cd58 O62 2.273 . S
Cd58 O66 2.277 . S
O59 C56 1.160 . S
O59 Cd60 2.203 1_556 S
Cd60 O59 2.203 1_554 S
Cd60 O62 2.411 . S
Cd60 O63 2.333 . S
Cd60 O64 2.352 . S
Cd60 O68 2.277 . S
Cd60 O69 2.356 . S
C61 O66 1.209 . S
C61 O68 1.226 . S
O62 Cd58 2.273 . S
O62 Cd60 2.411 . S
O62 C65 1.320 . S
O63 Cd60 2.333 . S
O63 C65 1.214 . S
O64 Cd60 2.352 . S
O64 C67 1.258 . S
C65 O62 1.320 . S
C65 O63 1.214 . S
O66 Cd58 2.277 . S
O66 C61 1.209 . S
C67 O64 1.258 . S
C67 O69 1.282 . S
O68 Cd60 2.277 . S
O68 C61 1.226 . S
O69 Cd60 2.356 . S
O69 C67 1.282 . S
C70 O71 1.306 . S
C70 O73 1.160 . S
O71 C70 1.306 . S
O71 Cd72 2.228 1_556 S
Cd72 O71 2.228 1_554 S
Cd72 O76 2.273 . S
Cd72 O80 2.277 . S
O73 C70 1.160 . S
O73 Cd74 2.203 1_556 S
Cd74 O73 2.203 1_554 S
Cd74 O76 2.411 . S
Cd74 O77 2.333 . S
Cd74 O78 2.352 . S
Cd74 O82 2.277 . S
Cd74 O83 2.356 . S
C75 O80 1.209 . S
C75 O82 1.226 . S
O76 Cd72 2.273 . S
O76 Cd74 2.411 . S
O76 C79 1.320 . S
O77 Cd74 2.333 . S
O77 C79 1.214 . S
O78 Cd74 2.352 . S
O78 C81 1.258 . S
C79 O76 1.320 . S
C79 O77 1.214 . S
O80 Cd72 2.277 . S
O80 C75 1.209 . S
C81 O78 1.258 . S
C81 O83 1.282 . S
O82 Cd74 2.277 . S
O82 C75 1.226 . S
O83 Cd74 2.356 . S
O83 C81 1.282 . S
C84 O85 1.306 . S
C84 O87 1.160 . S
O85 C84 1.306 . S
O85 Cd86 2.228 . S
Cd86 O85 2.228 . S
Cd86 O90 2.273 . S
Cd86 O94 2.277 . S
O87 C84 1.160 . S
O87 Cd88 2.203 . S
Cd88 O87 2.203 . S
Cd88 O90 2.411 . S
Cd88 O91 2.333 . S
Cd88 O92 2.352 . S
Cd88 O96 2.277 . S
Cd88 O97 2.356 . S
C89 O94 1.209 . S
C89 O96 1.226 . S
O90 Cd86 2.273 . S
O90 Cd88 2.411 . S
O90 C93 1.320 . S
O91 Cd88 2.333 . S
O91 C93 1.214 . S
O92 Cd88 2.352 . S
O92 C95 1.258 . S
C93 O90 1.320 . S
C93 O91 1.214 . S
O94 Cd86 2.277 . S
O94 C89 1.209 . S
C95 O92 1.258 . S
C95 O97 1.282 . S
O96 Cd88 2.277 . S
O96 C89 1.226 . S
O97 Cd88 2.356 . S
O97 C95 1.282 . S
C98 O99 1.306 . S
C98 O101 1.160 . S
O99 C98 1.306 . S
O99 Cd100 2.228 . S
Cd100 O99 2.228 . S
Cd100 O104 2.273 . S
Cd100 O108 2.277 . S
O101 C98 1.160 . S
O101 Cd102 2.203 . S
Cd102 O101 2.203 . S
Cd102 O104 2.411 . S
Cd102 O105 2.333 . S
Cd102 O106 2.352 . S
Cd102 O110 2.277 . S
Cd102 O111 2.356 . S
C103 O108 1.209 . S
C103 O110 1.226 . S
O104 Cd100 2.273 . S
O104 Cd102 2.411 . S
O104 C107 1.320 . S
O105 Cd102 2.333 . S
O105 C107 1.214 . S
O106 Cd102 2.352 . S
O106 C109 1.258 . S
C107 O104 1.320 . S
C107 O105 1.214 . S
O108 Cd100 2.277 . S
O108 C103 1.209 . S
C109 O106 1.258 . S
C109 O111 1.282 . S
O110 Cd102 2.277 . S
O110 C103 1.226 . S
O111 Cd102 2.356 . S
O111 C109 1.282 . S
C112 C113 1.363 . S
C112 C118 1.379 1_565 S
C112 N120 1.356 . S
C113 C112 1.363 . S
C113 C119 1.363 1_654 S
C114 C115 1.363 1_556 S
C114 C119 1.379 1_545 S
C114 N121 1.356 . S
C115 C114 1.363 1_554 S
C115 C118 1.363 1_455 S
N116 C118 1.356 . S
N116 H128 0.984 . S
N116 H129 0.985 . S
N117 C119 1.356 . S
N117 H122 0.984 . S
N117 H123 0.985 . S
C118 C112 1.379 1_545 S
C118 C115 1.363 1_655 S
C118 N116 1.356 . S
C119 C113 1.363 1_456 S
C119 C114 1.379 1_565 S
C119 N117 1.356 . S
N120 C112 1.356 . S
N120 H126 0.984 . S
N120 H127 0.984 . S
N121 C114 1.356 . S
N121 H124 0.984 . S
N121 H125 0.985 . S
H122 N117 0.984 . S
H123 N117 0.985 . S
H124 N121 0.984 . S
H125 N121 0.985 . S
H126 N120 0.984 . S
H127 N120 0.984 . S
H128 N116 0.984 . S
H129 N116 0.985 . S
C130 C131 1.363 1_655 S
C130 C136 1.379 1_565 S
C130 N138 1.356 . S
C131 C130 1.363 1_455 S
C131 C137 1.363 . S
C132 C133 1.363 1_455 S
C132 C137 1.379 1_545 S
C132 N139 1.356 . S
C133 C132 1.363 1_655 S
C133 C136 1.363 . S
N134 C136 1.356 . S
N134 H146 0.984 . S
N134 H147 0.985 . S
N135 C137 1.356 . S
N135 H140 0.984 . S
N135 H141 0.985 . S
C136 C130 1.379 1_545 S
C136 C133 1.363 . S
C136 N134 1.356 . S
C137 C131 1.363 . S
C137 C132 1.379 1_565 S
C137 N135 1.356 . S
N138 C130 1.356 . S
N138 H144 0.984 . S
N138 H145 0.984 . S
N139 C132 1.356 . S
N139 H142 0.984 . S
N139 H143 0.985 . S
H140 N135 0.984 . S
H141 N135 0.985 . S
H142 N139 0.984 . S
H143 N139 0.985 . S
H144 N138 0.984 . S
H145 N138 0.984 . S
H146 N134 0.984 . S
H147 N134 0.985 . S
C148 C149 1.363 . S
C148 C154 1.379 . S
C148 N156 1.356 . S
C149 C148 1.363 . S
C149 C155 1.363 1_554 S
C150 C151 1.363 1_556 S
C150 C155 1.379 . S
C150 N157 1.356 . S
C151 C150 1.363 1_554 S
C151 C154 1.363 . S
N152 C154 1.356 . S
N152 H164 0.984 . S
N152 H165 0.985 . S
N153 C155 1.356 . S
N153 H158 0.984 . S
N153 H159 0.985 . S
C154 C148 1.379 . S
C154 C151 1.363 . S
C154 N152 1.356 . S
C155 C149 1.363 1_556 S
C155 C150 1.379 . S
C155 N153 1.356 . S
N156 C148 1.356 . S
N156 H162 0.984 . S
N156 H163 0.984 . S
N157 C150 1.356 . S
N157 H160 0.984 . S
N157 H161 0.985 . S
H158 N153 0.984 . S
H159 N153 0.985 . S
H160 N157 0.984 . S
H161 N157 0.985 . S
H162 N156 0.984 . S
H163 N156 0.984 . S
H164 N152 0.984 . S
H165 N152 0.985 . S
C166 C167 1.363 . S
C166 C172 1.379 . S
C166 N174 1.356 . S
C167 C166 1.363 . S
C167 C173 1.363 . S
C168 C169 1.363 . S
C168 C173 1.379 . S
C168 N175 1.356 . S
C169 C168 1.363 . S
C169 C172 1.363 . S
N170 C172 1.356 . S
N170 H182 0.984 . S
N170 H183 0.985 . S
N171 C173 1.356 . S
N171 H176 0.984 . S
N171 H177 0.985 . S
C172 C166 1.379 . S
C172 C169 1.363 . S
C172 N170 1.356 . S
C173 C167 1.363 . S
C173 C168 1.379 . S
C173 N171 1.356 . S
N174 C166 1.356 . S
N174 H180 0.984 . S
N174 H181 0.984 . S
N175 C168 1.356 . S
N175 H178 0.984 . S
N175 H179 0.985 . S
H176 N171 0.984 . S
H177 N171 0.985 . S
H178 N175 0.984 . S
H179 N175 0.985 . S
H180 N174 0.984 . S
H181 N174 0.984 . S
H182 N170 0.984 . S
H183 N170 0.985 . S
C184 C185 1.354 1_655 S
C184 C190 1.379 . S
C184 N192 1.356 . S
C185 C184 1.354 1_455 S
C185 C191 1.372 . S
C186 C187 1.354 1_455 S
C186 C191 1.379 . S
C186 N193 1.356 . S
C187 C186 1.354 1_655 S
C187 C190 1.372 . S
N188 C190 1.356 . S
N188 H200 0.984 . S
N188 H201 0.985 . S
N189 C191 1.356 . S
N189 H194 0.984 . S
N189 H195 0.985 . S
C190 C184 1.379 . S
C190 C187 1.372 . S
C190 N188 1.356 . S
C191 C185 1.372 . S
C191 C186 1.379 . S
C191 N189 1.356 . S
N192 C184 1.356 . S
N192 H198 0.984 . S
N192 H199 0.984 . S
N193 C186 1.356 . S
N193 H196 0.984 . S
N193 H197 0.985 . S
H194 N189 0.984 . S
H195 N189 0.985 . S
H196 N193 0.984 . S
H197 N193 0.985 . S
H198 N192 0.984 . S
H199 N192 0.984 . S
H200 N188 0.984 . S
H201 N188 0.985 . S
C202 C203 1.354 1_655 S
C202 C208 1.379 . S
C202 N210 1.356 . S
C203 C202 1.354 1_455 S
C203 C209 1.372 . S
C204 C205 1.354 1_455 S
C204 C209 1.379 . S
C204 N211 1.356 . S
C205 C204 1.354 1_655 S
C205 C208 1.372 . S
N206 C208 1.356 . S
N206 H218 0.984 . S
N206 H219 0.985 . S
N207 C209 1.356 . S
N207 H212 0.984 . S
N207 H213 0.985 . S
C208 C202 1.379 . S
C208 C205 1.372 . S
C208 N206 1.356 . S
C209 C203 1.372 . S
C209 C204 1.379 . S
C209 N207 1.356 . S
N210 C202 1.356 . S
N210 H216 0.984 . S
N210 H217 0.984 . S
N211 C204 1.356 . S
N211 H214 0.984 . S
N211 H215 0.985 . S
H212 N207 0.984 . S
H213 N207 0.985 . S
H214 N211 0.984 . S
H215 N211 0.985 . S
H216 N210 0.984 . S
H217 N210 0.984 . S
H218 N206 0.984 . S
H219 N206 0.985 . S
C220 C221 1.353 1_455 S
C220 C226 1.379 . S
C220 N228 1.356 . S
C221 C220 1.353 1_655 S
C221 C227 1.373 . S
C222 C223 1.353 1_655 S
C222 C227 1.379 . S
C222 N229 1.356 . S
C223 C222 1.353 1_455 S
C223 C226 1.373 . S
N224 C226 1.356 . S
N224 H236 0.984 . S
N224 H237 0.985 . S
N225 C227 1.356 . S
N225 H230 0.984 . S
N225 H231 0.985 . S
C226 C220 1.379 . S
C226 C223 1.373 . S
C226 N224 1.356 . S
C227 C221 1.373 . S
C227 C222 1.379 . S
C227 N225 1.356 . S
N228 C220 1.356 . S
N228 H234 0.984 . S
N228 H235 0.984 . S
N229 C222 1.356 . S
N229 H232 0.984 . S
N229 H233 0.985 . S
H230 N225 0.984 . S
H231 N225 0.985 . S
H232 N229 0.984 . S
H233 N229 0.985 . S
H234 N228 0.984 . S
H235 N228 0.984 . S
H236 N224 0.984 . S
H237 N224 0.985 . S
C238 C239 1.373 . S
C238 C244 1.379 . S
C238 N246 1.356 . S
C239 C238 1.373 . S
C239 C245 1.353 1_655 S
C240 C241 1.373 . S
C240 C245 1.379 . S
C240 N247 1.356 . S
C241 C240 1.373 . S
C241 C244 1.353 1_455 S
N242 C244 1.356 . S
N242 H254 0.984 . S
N242 H255 0.985 . S
N243 C245 1.356 . S
N243 H248 0.984 . S
N243 H249 0.985 . S
C244 C238 1.379 . S
C244 C241 1.353 1_655 S
C244 N242 1.356 . S
C245 C239 1.353 1_455 S
C245 C240 1.379 . S
C245 N243 1.356 . S
N246 C238 1.356 . S
N246 H252 0.984 . S
N246 H253 0.984 . S
N247 C240 1.356 . S
N247 H250 0.984 . S
N247 H251 0.985 . S
H248 N243 0.984 . S
H249 N243 0.985 . S
H250 N247 0.984 . S
H251 N247 0.985 . S
H252 N246 0.984 . S
H253 N246 0.984 . S
H254 N242 0.984 . S
H255 N242 0.985 . S
C256 C257 1.363 . S
C256 C262 1.379 . S
C256 N264 1.356 . S
C257 C256 1.363 . S
C257 C263 1.363 . S
C258 C259 1.363 . S
C258 C263 1.379 . S
C258 N265 1.356 . S
C259 C258 1.363 . S
C259 C262 1.363 . S
N260 C262 1.356 . S
N260 H272 0.984 . S
N260 H273 0.985 . S
N261 C263 1.356 . S
N261 H266 0.984 . S
N261 H267 0.985 . S
C262 C256 1.379 . S
C262 C259 1.363 . S
C262 N260 1.356 . S
C263 C257 1.363 . S
C263 C258 1.379 . S
C263 N261 1.356 . S
N264 C256 1.356 . S
N264 H270 0.984 . S
N264 H271 0.984 . S
N265 C258 1.356 . S
N265 H268 0.984 . S
N265 H269 0.985 . S
H266 N261 0.984 . S
H267 N261 0.985 . S
H268 N265 0.984 . S
H269 N265 0.985 . S
H270 N264 0.984 . S
H271 N264 0.984 . S
H272 N260 0.984 . S
H273 N260 0.985 . S
C274 C275 1.363 . S
C274 C280 1.379 . S
C274 N282 1.356 . S
C275 C274 1.363 . S
C275 C281 1.363 . S
C276 C277 1.363 . S
C276 C281 1.379 . S
C276 N283 1.356 . S
C277 C276 1.363 . S
C277 C280 1.363 . S
N278 C280 1.356 . S
N278 H290 0.984 . S
N278 H291 0.985 . S
N279 C281 1.356 . S
N279 H284 0.984 . S
N279 H285 0.985 . S
C280 C274 1.379 . S
C280 C277 1.363 . S
C280 N278 1.356 . S
C281 C275 1.363 . S
C281 C276 1.379 . S
C281 N279 1.356 . S
N282 C274 1.356 . S
N282 H288 0.984 . S
N282 H289 0.984 . S
N283 C276 1.356 . S
N283 H286 0.984 . S
N283 H287 0.985 . S
H284 N279 0.984 . S
H285 N279 0.985 . S
H286 N283 0.984 . S
H287 N283 0.985 . S
H288 N282 0.984 . S
H289 N282 0.984 . S
H290 N278 0.984 . S
H291 N278 0.985 . S
C292 C293 1.363 . S
C292 C298 1.379 . S
C292 N300 1.356 . S
C293 C292 1.363 . S
C293 C299 1.363 . S
C294 C295 1.363 . S
C294 C299 1.379 . S
C294 N301 1.356 . S
C295 C294 1.363 . S
C295 C298 1.363 . S
N296 C298 1.356 . S
N296 H308 0.984 . S
N296 H309 0.985 . S
N297 C299 1.356 . S
N297 H302 0.984 . S
N297 H303 0.985 . S
C298 C292 1.379 . S
C298 C295 1.363 . S
C298 N296 1.356 . S
C299 C293 1.363 . S
C299 C294 1.379 . S
C299 N297 1.356 . S
N300 C292 1.356 . S
N300 H306 0.984 . S
N300 H307 0.984 . S
N301 C294 1.356 . S
N301 H304 0.984 . S
N301 H305 0.985 . S
H302 N297 0.984 . S
H303 N297 0.985 . S
H304 N301 0.984 . S
H305 N301 0.985 . S
H306 N300 0.984 . S
H307 N300 0.984 . S
H308 N296 0.984 . S
H309 N296 0.985 . S
C310 C311 1.363 . S
C310 C316 1.379 . S
C310 N318 1.356 . S
C311 C310 1.363 . S
C311 C317 1.363 . S
C312 C313 1.363 . S
C312 C317 1.379 . S
C312 N319 1.356 . S
C313 C312 1.363 . S
C313 C316 1.363 . S
N314 C316 1.356 . S
N314 H326 0.984 . S
N314 H327 0.985 . S
N315 C317 1.356 . S
N315 H320 0.984 . S
N315 H321 0.985 . S
C316 C310 1.379 . S
C316 C313 1.363 . S
C316 N314 1.356 . S
C317 C311 1.363 . S
C317 C312 1.379 . S
C317 N315 1.356 . S
N318 C310 1.356 . S
N318 H324 0.984 . S
N318 H325 0.984 . S
N319 C312 1.356 . S
N319 H322 0.984 . S
N319 H323 0.985 . S
H320 N315 0.984 . S
H321 N315 0.985 . S
H322 N319 0.984 . S
H323 N319 0.985 . S
H324 N318 0.984 . S
H325 N318 0.984 . S
H326 N314 0.984 . S
H327 N314 0.985 . S
C328 C329 1.363 . S
C328 C334 1.379 . S
C328 N336 1.356 . S
C329 C328 1.363 . S
C329 C335 1.363 1_554 S
C330 C331 1.363 1_556 S
C330 C335 1.379 . S
C330 N337 1.356 . S
C331 C330 1.363 1_554 S
C331 C334 1.363 . S
N332 C334 1.356 . S
N332 H344 0.984 . S
N332 H345 0.985 . S
N333 C335 1.356 . S
N333 H338 0.984 . S
N333 H339 0.985 . S
C334 C328 1.379 . S
C334 C331 1.363 . S
C334 N332 1.356 . S
C335 C329 1.363 1_556 S
C335 C330 1.379 . S
C335 N333 1.356 . S
N336 C328 1.356 . S
N336 H342 0.984 . S
N336 H343 0.984 . S
N337 C330 1.356 . S
N337 H340 0.984 . S
N337 H341 0.985 . S
H338 N333 0.984 . S
H339 N333 0.985 . S
H340 N337 0.984 . S
H341 N337 0.985 . S
H342 N336 0.984 . S
H343 N336 0.984 . S
H344 N332 0.984 . S
H345 N332 0.985 . S
C346 C347 1.363 . S
C346 C352 1.379 . S
C346 N354 1.356 . S
C347 C346 1.363 . S
C347 C353 1.363 1_554 S
C348 C349 1.363 1_556 S
C348 C353 1.379 . S
C348 N355 1.356 . S
C349 C348 1.363 1_554 S
C349 C352 1.363 . S
N350 C352 1.356 . S
N350 H362 0.984 . S
N350 H363 0.985 . S
N351 C353 1.356 . S
N351 H356 0.984 . S
N351 H357 0.985 . S
C352 C346 1.379 . S
C352 C349 1.363 . S
C352 N350 1.356 . S
C353 C347 1.363 1_556 S
C353 C348 1.379 . S
C353 N351 1.356 . S
N354 C346 1.356 . S
N354 H360 0.984 . S
N354 H361 0.984 . S
N355 C348 1.356 . S
N355 H358 0.984 . S
N355 H359 0.985 . S
H356 N351 0.984 . S
H357 N351 0.985 . S
H358 N355 0.984 . S
H359 N355 0.985 . S
H360 N354 0.984 . S
H361 N354 0.984 . S
H362 N350 0.984 . S
H363 N350 0.985 . S
C364 C365 1.363 . S
C364 C370 1.379 . S
C364 N372 1.356 . S
C365 C364 1.363 . S
C365 C371 1.363 . S
C366 C367 1.363 . S
C366 C371 1.379 . S
C366 N373 1.356 . S
C367 C366 1.363 . S
C367 C370 1.363 . S
N368 C370 1.356 . S
N368 H380 0.984 . S
N368 H381 0.985 . S
N369 C371 1.356 . S
N369 H374 0.984 . S
N369 H375 0.985 . S
C370 C364 1.379 . S
C370 C367 1.363 . S
C370 N368 1.356 . S
C371 C365 1.363 . S
C371 C366 1.379 . S
C371 N369 1.356 . S
N372 C364 1.356 . S
N372 H378 0.984 . S
N372 H379 0.984 . S
N373 C366 1.356 . S
N373 H376 0.984 . S
N373 H377 0.985 . S
H374 N369 0.984 . S
H375 N369 0.985 . S
H376 N373 0.984 . S
H377 N373 0.985 . S
H378 N372 0.984 . S
H379 N372 0.984 . S
H380 N368 0.984 . S
H381 N368 0.985 . S
C382 C383 1.363 . S
C382 C388 1.379 . S
C382 N390 1.356 . S
C383 C382 1.363 . S
C383 C389 1.363 . S
C384 C385 1.363 . S
C384 C389 1.379 . S
C384 N391 1.356 . S
C385 C384 1.363 . S
C385 C388 1.363 . S
N386 C388 1.356 . S
N386 H398 0.984 . S
N386 H399 0.985 . S
N387 C389 1.356 . S
N387 H392 0.984 . S
N387 H393 0.985 . S
C388 C382 1.379 . S
C388 C385 1.363 . S
C388 N386 1.356 . S
C389 C383 1.363 . S
C389 C384 1.379 . S
C389 N387 1.356 . S
N390 C382 1.356 . S
N390 H396 0.984 . S
N390 H397 0.984 . S
N391 C384 1.356 . S
N391 H394 0.984 . S
N391 H395 0.985 . S
H392 N387 0.984 . S
H393 N387 0.985 . S
H394 N391 0.984 . S
H395 N391 0.985 . S
H396 N390 0.984 . S
H397 N390 0.984 . S
H398 N386 0.984 . S
H399 N386 0.985 . S
C113 C19 1.503 . S
C115 C5 1.503 . S
C131 C33 1.503 . S
C133 C47 1.503 . S
C149 C61 1.503 . S
C151 C75 1.503 . S
C167 C89 1.503 . S
C169 C103 1.503 . S
C185 C9 1.359 . S
C187 C51 1.359 . S
C203 C37 1.359 . S
C205 C23 1.359 . S
C221 C28 1.409 1_655 S
C223 C14 1.409 1_455 S
C239 C0 1.409 1_655 S
C241 C42 1.409 1_455 S
C257 C65 1.354 . S
C259 C107 1.354 . S
C275 C93 1.354 . S
C277 C79 1.354 . S
C293 C70 1.411 . S
C295 C84 1.411 . S
C311 C56 1.411 . S
C313 C98 1.411 . S
C329 C81 1.506 . S
C331 C11 1.506 . S
C347 C67 1.506 . S
C349 C25 1.506 . S
C365 C39 1.506 . S
C367 C109 1.506 . S
C383 C95 1.506 . S
C385 C53 1.506 . S
