# Generated by pormake.
# Topology sxa, (6)-cn, num edge types: 1
# Building blocks:
#     Node 0, Type 0, BuildingBlock: JUFBIX_clean_sbu_0, # of connection points: 6
#     Node 1, Type 0, BuildingBlock: JUFBIX_clean_sbu_0, # of connection points: 6
#     Node 2, Type 0, BuildingBlock: JUFBIX_clean_sbu_0, # of connection points: 6
#     Node 3, Type 0, BuildingBlock: JUFBIX_clean_sbu_0, # of connection points: 6
#     Edge 4, Type (0, 0), BuildingBlock: TEMPAE_clean_linker_10, # of connection points: 2
#     Edge 5, Type (0, 0), BuildingBlock: TEMPAE_clean_linker_10, # of connection points: 2
#     Edge 6, Type (0, 0), BuildingBlock: TEMPAE_clean_linker_10, # of connection points: 2
#     Edge 7, Type (0, 0), BuildingBlock: TEMPAE_clean_linker_10, # of connection points: 2
#     Edge 8, Type (0, 0), BuildingBlock: TEMPAE_clean_linker_10, # of connection points: 2
#     Edge 9, Type (0, 0), BuildingBlock: TEMPAE_clean_linker_10, # of connection points: 2
#     Edge 10, Type (0, 0), BuildingBlock: TEMPAE_clean_linker_10, # of connection points: 2
#     Edge 11, Type (0, 0), BuildingBlock: TEMPAE_clean_linker_10, # of connection points: 2
#     Edge 12, Type (0, 0), BuildingBlock: TEMPAE_clean_linker_10, # of connection points: 2
#     Edge 13, Type (0, 0), BuildingBlock: TEMPAE_clean_linker_10, # of connection points: 2
#     Edge 14, Type (0, 0), BuildingBlock: TEMPAE_clean_linker_10, # of connection points: 2
#     Edge 15, Type (0, 0), BuildingBlock: TEMPAE_clean_linker_10, # of connection points: 2
# Relax obj value: 0.393
# Max RMSD: 0.293
# Mean RMSD: 0.293
data_MOF--net-sxa--node1-JUFBIX_clean_sbu_0--edge1-TEMPAE_clean_linker_10
_symmetry_space_group_name_H-M    P1
_symmetry_Int_Tables_number       1
_symmetry_cell_setting            triclinic
loop_
_symmetry_equiv_pos_as_xyz
'x, y, z'
_cell_length_a     27.876626
_cell_length_b     27.833441
_cell_length_c     17.049552
_cell_angle_alpha  89.445603
_cell_angle_beta   73.896461
_cell_angle_gamma 86.464907
loop_
_atom_site_label
_atom_site_type_symbol
_atom_site_fract_x
_atom_site_fract_y
_atom_site_fract_z
_atom_type_partial_charge
Co0 Co 0.02826 0.76493 0.1308 0.0
C1 C 0.058 0.85221 0.17589 0.0
Co2 Co 0.0675 0.75737 0.22745 0.0
C3 C 0.96415 0.81512 0.05389 0.0
C4 C 1.0043 0.75785 0.97566 0.0
N5 N 0.99777 0.77789 0.04982 0.0
N6 N 0.94898 0.81961 0.98582 0.0
C7 C 0.97372 0.78322 0.93632 0.0
H8 H 0.94965 0.8377 0.10763 0.0
H9 H 0.02921 0.72675 0.95218 0.0
C10 C 0.03738 0.67043 0.16351 0.0
N11 N 0.10193 0.74608 0.31136 0.0
C12 C 0.14662 0.75931 0.32097 0.0
C13 C 0.08271 0.72047 0.37918 0.0
N14 N 0.15498 0.74356 0.39264 0.0
C15 C 0.11443 0.71917 0.42854 0.0
C16 C 0.96363 0.77125 0.28982 0.0
O17 O 0.01527 0.7013 0.12895 0.0
O18 O 0.06266 0.68526 0.21085 0.0
O19 O 1.00432 0.76116 0.30801 0.0
O20 O 0.96504 0.77734 0.21489 0.0
O21 O 0.07189 0.82931 0.23267 0.0
H22 H 0.04748 0.70354 0.39233 0.0
H23 H 0.17213 0.78073 0.27696 0.0
O24 O 0.04065 0.82898 0.12839 0.0
O25 O 0.09167 0.7508 0.05041 0.0
O26 O 0.12723 0.75327 0.15043 0.0
C27 C 0.1306 0.74692 0.07575 0.0
H28 H 0.9691 0.77479 0.87711 0.0
H29 H 0.10822 0.70099 0.48661 0.0
Co30 Co 0.52687 0.28487 0.13721 0.0
C31 C 0.55228 0.36726 0.19635 0.0
Co32 Co 0.57256 0.26549 0.22029 0.0
C33 C 0.45059 0.33278 0.08585 0.0
C34 C 0.50023 0.29586 0.98303 0.0
N35 N 0.49177 0.30286 0.064 0.0
N36 N 0.43274 0.34546 1.02276 0.0
C37 C 0.46326 0.32163 0.95753 0.0
H38 H 0.43312 0.34431 0.14824 0.0
H39 H 0.53106 0.27364 0.9453 0.0
C40 C 0.54827 0.18608 0.1371 0.0
N41 N 0.6103 0.25008 0.29862 0.0
C42 C 0.65293 0.26562 0.31312 0.0
C43 C 0.59634 0.21559 0.35491 0.0
N44 N 0.6658 0.24161 0.37569 0.0
C45 C 0.62956 0.21044 0.40141 0.0
C46 C 0.46798 0.26947 0.29299 0.0
O47 O 0.53098 0.22144 0.10402 0.0
O48 O 0.56615 0.19482 0.19747 0.0
O49 O 0.51059 0.26713 0.30727 0.0
O50 O 0.46597 0.27487 0.2198 0.0
O51 O 0.57949 0.33835 0.22862 0.0
H52 H 0.56376 0.19503 0.36175 0.0
H53 H 0.67463 0.29325 0.27741 0.0
O54 O 0.52123 0.34883 0.16699 0.0
O55 O 0.58946 0.29536 0.05653 0.0
O56 O 0.63078 0.26328 0.13845 0.0
C57 C 0.63083 0.28229 0.07089 0.0
H58 H 0.45873 0.32214 0.8965 0.0
H59 H 0.62668 0.18555 0.45144 0.0
Co60 Co 0.03916 0.25894 0.80905 0.0
C61 C 0.06181 0.35498 0.85451 0.0
Co62 Co 0.08047 0.26534 0.90293 0.0
C63 C 0.96 0.25167 0.71393 0.0
C64 C 0.02989 0.27739 0.64601 0.0
N65 N 0.00667 0.26077 0.72069 0.0
N66 N 0.95438 0.26113 0.6377 0.0
C67 C 0.99877 0.27732 0.59597 0.0
H68 H 0.93069 0.23856 0.7639 0.0
H69 H 0.06715 0.29026 0.6287 0.0
C70 C 0.05379 0.17108 0.88225 0.0
N71 N 0.10875 0.26417 0.98878 0.0
C72 C 0.10448 0.29866 0.04562 0.0
C73 C 0.13818 0.22854 1.00822 0.0
N74 N 0.13127 0.28692 0.09878 0.0
C75 C 0.15198 0.24228 0.07544 0.0
C76 C 0.97608 0.2766 0.95636 0.0
O77 O 0.03744 0.18614 0.82197 0.0
O78 O 0.07331 0.20082 0.91725 0.0
O79 O 0.01578 0.27863 0.97874 0.0
O80 O 0.97835 0.26513 0.88377 0.0
O81 O 0.08779 0.33014 0.89167 0.0
H82 H 0.15059 0.19551 0.97367 0.0
H83 H 0.08417 0.33283 0.04508 0.0
O84 O 0.03924 0.33272 0.81016 0.0
O85 O 0.10477 0.25257 0.73107 0.0
O86 O 0.1444 0.25393 0.82581 0.0
C87 C 0.14578 0.2512 0.75067 0.0
H88 H 0.00795 0.2898 0.53354 0.0
H89 H 0.17913 0.22248 0.09993 0.0
Co90 Co 0.5343 0.76798 0.81024 0.0
C91 C 0.54509 0.86215 0.86493 0.0
Co92 Co 0.57434 0.77108 0.90642 0.0
C93 C 0.45495 0.75356 0.71882 0.0
C94 C 0.51814 0.7915 0.65424 0.0
N95 N 0.5003 0.76754 0.72454 0.0
N96 N 0.44448 0.76842 0.64815 0.0
C97 C 0.48462 0.79212 0.60823 0.0
H98 H 0.429 0.7352 0.76724 0.0
H99 H 0.55269 0.80967 0.63856 0.0
C100 C 0.56384 0.67662 0.86851 0.0
N101 N 0.60499 0.7739 0.99032 0.0
C102 C 0.60463 0.81227 0.03854 0.0
C103 C 0.63731 0.74096 1.00951 0.0
N104 N 0.63744 0.8059 0.08328 0.0
C105 C 0.65706 0.76036 0.06647 0.0
C106 C 0.47165 0.76455 0.96223 0.0
O107 O 0.5382 0.69445 0.8212 0.0
O108 O 0.58499 0.70533 0.90295 0.0
O109 O 0.51125 0.76363 0.98562 0.0
O110 O 0.47399 0.77006 0.88751 0.0
O111 O 0.56376 0.83702 0.91177 0.0
H112 H 0.64932 0.70664 0.97919 0.0
H113 H 0.58393 0.84613 0.03623 0.0
O114 O 0.53053 0.84079 0.8098 0.0
O115 O 0.59843 0.76555 0.73072 0.0
O116 O 0.63745 0.77739 0.82407 0.0
C117 C 0.6389 0.77204 0.74903 0.0
H118 H 0.48898 0.80986 0.55007 0.0
H119 H 0.68838 0.74427 0.08544 0.0
C120 C 0.05953 0.44749 0.84906 0.0
C121 C 0.04598 0.4045 0.89087 0.0
C122 C 0.05594 0.49184 0.89224 0.0
C123 C 0.04166 0.49286 0.97954 0.0
C124 C 0.02788 0.44935 1.02106 0.0
C125 C 0.02797 0.407 0.97661 0.0
C126 C 0.06966 0.53685 0.84351 0.0
C127 C 0.01632 0.44641 0.11296 0.0
C128 C 0.08364 0.59393 0.09591 0.0
C129 C 0.03826 0.61956 0.13391 0.0
C130 C 0.08574 0.55407 0.04336 0.0
C131 C 0.04124 0.53822 0.02907 0.0
C132 C 0.99539 0.56416 0.06725 0.0
C133 C 0.99448 0.60379 0.11904 0.0
C134 C 0.13631 0.53179 0.998 0.0
C135 C 0.94755 0.55228 0.04859 0.0
H136 H 0.07453 0.44636 0.78323 0.0
H137 H 0.01721 0.37426 1.00997 0.0
H138 H 0.05201 0.56991 0.87817 0.0
H139 H 0.11087 0.53896 0.82643 0.0
H140 H 0.0584 0.53573 0.78597 0.0
H141 H 0.01171 0.40888 0.13533 0.0
H142 H 0.04698 0.46121 0.13342 0.0
H143 H 0.98148 0.46827 0.14229 0.0
H144 H 0.11806 0.60701 0.10247 0.0
H145 H 0.95942 0.62452 0.1445 0.0
H146 H 0.14838 0.5487 0.9371 0.0
H147 H 0.13513 0.49257 0.9885 0.0
H148 H 0.16494 0.53836 0.03015 0.0
H149 H 0.95322 0.55214 0.98148 0.0
H150 H 0.91584 0.57838 0.077 0.0
H151 H 0.93705 0.51579 0.07075 0.0
C152 C 0.58904 0.41439 0.07207 0.0
C153 C 0.56718 0.41511 0.15736 0.0
C154 C 0.58778 0.45477 1.02207 0.0
C155 C 0.56412 0.49898 0.05677 0.0
C156 C 0.54306 0.50119 0.14322 0.0
C157 C 0.54375 0.45921 0.19194 0.0
C158 C 0.6095 0.44904 0.93077 0.0
C159 C 0.51825 0.54759 0.18394 0.0
C160 C 0.60713 0.61047 0.92793 0.0
C161 C 0.56639 0.62505 0.89728 0.0
C162 C 0.60604 0.571 0.98075 0.0
C163 C 0.56395 0.54267 1.00212 0.0
C164 C 0.52411 0.55448 0.96633 0.0
C165 C 0.52557 0.59555 0.91504 0.0
C166 C 0.6496 0.56078 1.01625 0.0
C167 C 0.47916 0.52448 0.98414 0.0
H168 H 0.60382 0.3807 0.04213 0.0
H169 H 0.52394 0.46042 0.25635 0.0
H170 H 0.57963 0.45664 0.89998 0.0
H171 H 0.63841 0.47526 0.90751 0.0
H172 H 0.6267 0.41227 0.9129 0.0
H173 H 0.50747 0.54501 0.25158 0.0
H174 H 0.5437 0.57731 0.16504 0.0
H175 H 0.48416 0.55714 0.16424 0.0
H176 H 0.63948 0.63201 0.91414 0.0
H177 H 0.49394 0.60545 0.89186 0.0
H178 H 0.66757 0.52457 0.99668 0.0
H179 H 0.63607 0.56076 0.08393 0.0
H180 H 0.67839 0.58767 0.99737 0.0
H181 H 0.49117 0.48582 0.97258 0.0
H182 H 0.45351 0.53533 0.94665 0.0
H183 H 0.45815 0.52833 0.04955 0.0
C184 C 0.49797 0.9332 0.94447 0.0
C185 C 0.53969 0.91493 0.88282 0.0
C186 C 0.49924 0.97599 0.98809 0.0
C187 C 0.54355 1.00154 0.97082 0.0
C188 C 0.58534 0.98396 0.90685 0.0
C189 C 0.58297 0.94104 0.86444 0.0
C190 C 0.4536 0.99283 0.05513 0.0
C191 C 0.63309 1.01003 0.88336 0.0
C192 C 0.53212 0.13554 0.02673 0.0
C193 C 0.54785 0.13717 0.09874 0.0
C194 C 0.53071 0.09227 0.98563 0.0
C195 C 0.54514 0.04798 1.0161 0.0
C196 C 0.56126 0.04873 0.08861 0.0
C197 C 0.5625 0.09314 0.12898 0.0
C198 C 0.5138 0.09421 0.90869 0.0
C199 C 0.57705 1.00248 0.12368 0.0
H200 H 0.46525 0.91216 0.96244 0.0
H201 H 0.61623 0.92627 0.81976 0.0
H202 H 0.46283 0.99266 0.11439 0.0
H203 H 0.44166 0.03041 0.0438 0.0
H204 H 0.42173 0.96979 0.06032 0.0
H205 H 0.66545 0.98626 0.84906 0.0
H206 H 0.62854 0.04086 0.84379 0.0
H207 H 0.64175 1.02467 0.93779 0.0
H208 H 0.52086 0.16868 1.00105 0.0
H209 H 0.57477 0.09329 0.18396 0.0
H210 H 0.48122 0.07194 0.91575 0.0
H211 H 0.54422 0.079 0.85666 0.0
H212 H 0.50313 0.13145 0.89311 0.0
H213 H 0.54394 0.981 0.14779 0.0
H214 H 0.59425 1.00893 0.17382 0.0
H215 H 0.60412 0.9806 0.07529 0.0
C216 C 0.01258 0.92915 0.15994 0.0
C217 C 0.05856 0.90509 0.15984 0.0
C218 C 0.00977 0.97059 0.11249 0.0
C219 C 0.0541 0.98967 0.06322 0.0
C220 C 0.10085 0.96724 0.06634 0.0
C221 C 0.10251 0.92502 0.11332 0.0
C222 C 0.95896 0.99255 0.11205 0.0
C223 C 0.14928 0.98692 1.01761 0.0
C224 C 0.04963 0.07796 0.88613 0.0
C225 C 0.04703 0.12284 0.92461 0.0
C226 C 0.0511 0.03418 0.9303 0.0
C227 C 0.05125 0.03514 1.0141 0.0
C228 C 0.04742 0.08036 0.0528 0.0
C229 C 0.04422 0.12277 1.00879 0.0
C230 C 0.05329 0.98681 0.88709 0.0
C231 C 0.04807 0.08431 0.14091 0.0
H232 H 0.97826 0.91305 0.19244 0.0
H233 H 0.13816 0.9058 0.10925 0.0
H234 H 0.9552 0.03105 0.13012 0.0
H235 H 0.95472 0.99097 0.04931 0.0
H236 H 0.92803 0.97384 0.1541 0.0
H237 H 0.18242 0.96731 0.02965 0.0
H238 H 0.15243 0.98421 0.95148 0.0
H239 H 0.14978 1.02562 0.03229 0.0
H240 H 0.05197 0.07691 0.82167 0.0
H241 H 0.04108 0.15677 0.0409 0.0
H242 H 0.02284 0.96464 0.92197 0.0
H243 H 0.08925 0.96644 0.88404 0.0
H244 H 0.04986 0.99164 0.82408 0.0
H245 H 0.01556 0.06699 0.18131 0.0
H246 H 0.04697 0.12225 0.16131 0.0
H247 H 0.08236 0.0651 0.14934 0.0
C248 C 0.3786 0.72091 0.61529 0.0
C249 C 0.39958 0.76508 0.62013 0.0
C250 C 0.33968 0.71699 0.57665 0.0
C251 C 0.31996 0.75832 0.54308 0.0
C252 C 0.34012 0.80316 0.55047 0.0
C253 C 0.37961 0.80579 0.58745 0.0
C254 C 0.32049 0.66819 0.56983 0.0
C255 C 0.32007 0.84872 0.51885 0.0
C256 C 0.24681 0.74752 0.38023 0.0
C257 C 0.1966 0.75049 0.42777 0.0
C258 C 0.28706 0.74931 0.41648 0.0
C259 C 0.27749 0.75525 0.50264 0.0
C260 C 0.22675 0.75961 0.55022 0.0
C261 C 0.18751 0.7567 0.51275 0.0
C262 C 0.34003 0.74383 0.36247 0.0
C263 C 0.21368 0.76755 0.64136 0.0
H264 H 0.39403 0.68905 0.63879 0.0
H265 H 0.39533 0.84013 0.59057 0.0
H266 H 0.27981 0.66872 0.60061 0.0
H267 H 0.3257 0.65918 0.5046 0.0
H268 H 0.33988 0.63938 0.5973 0.0
H269 H 0.33825 0.88103 0.5316 0.0
H270 H 0.32604 0.84571 0.45196 0.0
H271 H 0.27915 0.85405 0.54722 0.0
H272 H 0.25469 0.74217 0.31491 0.0
H273 H 0.14913 0.75953 0.55047 0.0
H274 H 0.35994 0.71221 0.38211 0.0
H275 H 0.36044 0.77592 0.36862 0.0
H276 H 0.34166 0.73912 0.29711 0.0
H277 H 0.22938 0.73689 0.67036 0.0
H278 H 0.17264 0.77149 0.66985 0.0
H279 H 0.23061 0.80043 0.65497 0.0
C280 C 0.2336 0.27677 0.69631 0.0
C281 C 0.19439 0.25048 0.68596 0.0
C282 C 0.27817 0.28026 0.63292 0.0
C283 C 0.28476 0.25526 0.55816 0.0
C284 C 0.2458 0.22738 0.5485 0.0
C285 C 0.20078 0.22619 0.61169 0.0
C286 C 0.31749 0.31213 0.645 0.0
C287 C 0.25161 0.19878 0.4713 0.0
C288 C 0.37833 0.29531 0.36196 0.0
C289 C 0.4213 0.26595 0.3607 0.0
C290 C 0.33421 0.2931 0.4267 0.0
C291 C 0.33198 0.25892 0.48979 0.0
C292 C 0.37504 0.22835 0.48746 0.0
C293 C 0.41943 0.23303 0.42412 0.0
C294 C 0.29018 0.32778 0.42789 0.0
C295 C 0.37398 0.19008 0.55114 0.0
H296 H 0.22861 0.2963 0.75302 0.0
H297 H 0.17063 0.20582 0.60327 0.0
H298 H 0.35334 0.29079 0.63815 0.0
H299 H 0.32443 0.34034 0.59737 0.0
H300 H 0.30634 0.32992 0.70598 0.0
H301 H 0.22011 0.17528 0.47637 0.0
H302 H 0.25347 0.22356 0.41939 0.0
H303 H 0.28712 0.17601 0.45663 0.0
H304 H 0.37964 0.32097 0.31324 0.0
H305 H 0.4524 0.20993 0.42295 0.0
H306 H 0.27519 0.34488 0.48905 0.0
H307 H 0.25975 0.30805 0.41525 0.0
H308 H 0.30027 0.35654 0.38168 0.0
H309 H 0.36669 0.20697 0.61229 0.0
H310 H 0.40966 0.1676 0.5385 0.0
H311 H 0.34305 0.16631 0.55372 0.0
C312 C 0.92004 0.24673 0.51968 0.0
C313 C 0.91175 0.25672 0.6036 0.0
C314 C 0.88047 0.24594 0.48247 0.0
C315 C 0.83009 0.25557 0.52921 0.0
C316 C 0.82119 0.26538 0.61427 0.0
C317 C 0.86174 0.26556 0.65026 0.0
C318 C 0.89284 0.2345 0.39242 0.0
C319 C 0.76863 0.27597 0.6675 0.0
C320 C 0.7312 0.28935 0.41144 0.0
C321 C 0.70844 0.24568 0.40998 0.0
C322 C 0.76984 0.29342 0.45077 0.0
C323 C 0.78721 0.25288 0.48943 0.0
C324 C 0.76494 0.20867 0.48654 0.0
C325 C 0.72642 0.20569 0.44754 0.0
C326 C 0.79186 0.34146 0.45167 0.0
C327 C 0.78206 0.16394 0.52452 0.0
H328 H 0.95805 0.23918 0.48241 0.0
H329 H 0.85437 0.2739 0.71452 0.0
H330 H 0.87435 0.20171 0.38298 0.0
H331 H 0.87828 0.26437 0.36021 0.0
H332 H 0.93372 0.22852 0.36387 0.0
H333 H 0.7678 0.2875 0.73008 0.0
H334 H 0.74927 0.30462 0.63979 0.0
H335 H 0.74718 0.24329 0.67202 0.0
H336 H 0.71801 0.3207 0.3835 0.0
H337 H 0.71047 0.17135 0.44607 0.0
H338 H 0.83255 0.3383 0.4206 0.0
H339 H 0.78739 0.35288 0.51561 0.0
H340 H 0.77398 0.36987 0.42104 0.0
H341 H 0.8224 0.15506 0.49532 0.0
H342 H 0.76088 0.13235 0.51828 0.0
H343 H 0.77757 0.1704 0.59033 0.0
C344 C 0.91052 0.74351 0.42437 0.0
C345 C 0.9154 0.77319 0.35585 0.0
C346 C 0.86565 0.74387 0.48783 0.0
C347 C 0.82476 0.77608 0.48492 0.0
C348 C 0.82976 0.80687 0.41644 0.0
C349 C 0.87457 0.80434 0.352 0.0
C350 C 0.86174 0.70895 0.55737 0.0
C351 C 0.78792 0.84277 0.41145 0.0
C352 C 0.69307 0.74701 0.60992 0.0
C353 C 0.68682 0.77308 0.68258 0.0
C354 C 0.73758 0.74754 0.54569 0.0
C355 C 0.77656 0.77626 0.55246 0.0
C356 C 0.77006 0.80343 0.62521 0.0
C357 C 0.72575 0.80085 0.68981 0.0
C358 C 0.74323 0.71652 0.47112 0.0
C359 C 0.80974 0.83569 0.63448 0.0
H360 H 0.94168 0.71897 0.42752 0.0
H361 H 0.87809 0.82756 0.29953 0.0
H362 H 0.85445 0.72886 0.61592 0.0
H363 H 0.82975 0.68615 0.56237 0.0
H364 H 0.89626 0.68514 0.54936 0.0
H365 H 0.79958 0.86778 0.35938 0.0
H366 H 0.75573 0.82354 0.40416 0.0
H367 H 0.7747 0.86418 0.46883 0.0
H368 H 0.66333 0.72525 0.60384 0.0
H369 H 0.72107 0.82152 0.74529 0.0
H370 H 0.77695 0.69149 0.46167 0.0
H371 H 0.74862 0.7393 0.41602 0.0
H372 H 0.71021 0.69506 0.47626 0.0
H373 H 0.84469 0.81388 0.63267 0.0
H374 H 0.79795 0.85656 0.6926 0.0
H375 H 0.81862 0.86122 0.58276 0.0
C376 C 0.38657 0.77192 0.05549 0.0
C377 C 0.42699 0.74284 1.01019 0.0
C378 C 0.33774 0.75874 0.06372 0.0
C379 C 0.33031 0.71811 1.01951 0.0
C380 C 0.37125 0.6862 0.98126 0.0
C381 C 0.41906 0.698 0.9812 0.0
C382 C 0.29441 0.79052 0.1137 0.0
C383 C 0.36666 0.64229 0.933 0.0
C384 C 0.19741 0.68615 0.06523 0.0
C385 C 0.17821 0.72493 0.02763 0.0
C386 C 0.24828 0.68072 0.05904 0.0
C387 C 0.28049 0.71233 1.00816 0.0
C388 C 0.26231 0.7443 0.95606 0.0
C389 C 0.2105 0.75157 0.96846 0.0
C390 C 0.2661 0.64604 0.11526 0.0
C391 C 0.29695 0.77444 0.89384 0.0
H392 H 0.3929 0.80658 0.0781 0.0
H393 H 0.45085 0.67583 0.94614 0.0
H394 H 0.28044 0.81557 0.07284 0.0
H395 H 0.26309 0.76867 0.14655 0.0
H396 H 0.30577 0.81234 0.15902 0.0
H397 H 0.39264 0.64371 0.87055 0.0
H398 H 0.37851 0.60961 0.96239 0.0
H399 H 0.32843 0.63825 0.9275 0.0
H400 H 0.17187 0.66561 0.11092 0.0
H401 H 0.19553 0.78115 0.93872 0.0
H402 H 0.28183 0.66621 0.15729 0.0
H403 H 0.29622 0.62069 0.07937 0.0
H404 H 0.23555 0.62471 0.1524 0.0
H405 H 0.30524 0.80675 0.92416 0.0
H406 H 0.27971 0.78673 0.84509 0.0
H407 H 0.33292 0.75382 0.86546 0.0
C408 C 0.18347 0.30298 0.18921 0.0
C409 C 0.1502 0.32031 0.14552 0.0
C410 C 0.2245 0.32926 0.19014 0.0
C411 C 0.23025 0.37376 0.14884 0.0
C412 C 0.18868 0.39706 0.12998 0.0
C413 C 0.14846 0.36981 0.12803 0.0
C414 C 0.26599 0.30522 0.22019 0.0
C415 C 0.19055 0.44739 0.0974 0.0
C416 C 0.365 0.4019 0.09784 0.0
C417 C 0.38446 0.36957 0.03226 0.0
C418 C 0.31335 0.4088 0.13276 0.0
C419 C 0.28108 0.38405 0.09893 0.0
C420 C 0.30059 0.35949 1.02286 0.0
C421 C 0.35242 0.35224 0.99067 0.0
C422 C 0.29467 0.43788 0.21064 0.0
C423 C 0.26732 0.33538 0.98064 0.0
H424 H 0.18218 0.26625 0.21092 0.0
H425 H 0.12024 0.38578 0.1016 0.0
H426 H 0.29418 0.28715 0.16806 0.0
H427 H 0.285 0.33205 0.24658 0.0
H428 H 0.25164 0.27761 0.26692 0.0
H429 H 0.15302 0.4664 0.11931 0.0
H430 H 0.21821 0.46813 0.11646 0.0
H431 H 0.2012 0.4458 0.0297 0.0
H432 H 0.39015 0.41744 0.12761 0.0
H433 H 0.36741 0.32839 0.93865 0.0
H434 H 0.304 0.41741 0.26121 0.0
H435 H 0.25371 0.44654 0.2275 0.0
H436 H 0.31408 0.47196 0.20452 0.0
H437 H 0.25175 0.30354 1.01611 0.0
H438 H 0.288 0.32303 0.91792 0.0
H439 H 0.23566 0.36044 0.97644 0.0
C440 C 0.71401 0.2799 0.97027 0.0
C441 C 0.67681 0.30487 0.03029 0.0
C442 C 0.76436 0.28881 0.95985 0.0
C443 C 0.77669 0.32196 1.01296 0.0
C444 C 0.73894 0.3508 0.06713 0.0
C445 C 0.68939 0.34204 0.07452 0.0
C446 C 0.80433 0.25897 0.8987 0.0
C447 C 0.75014 0.38569 0.1262 0.0
C448 C 0.89445 0.27256 0.05708 0.0
C449 C 0.92909 0.29976 1.00301 0.0
C450 C 0.84328 0.28329 0.06849 0.0
C451 C 0.82785 0.32028 1.02128 0.0
C452 C 0.8627 0.35143 0.97485 0.0
C453 C 0.91324 0.34146 0.96827 0.0
C454 C 0.80624 0.25179 0.12383 0.0
C455 C 0.84789 0.39091 0.92319 0.0
H456 H 0.70426 0.25053 0.93744 0.0
H457 H 0.66093 0.35992 0.12352 0.0
H458 H 0.8355 0.28134 0.86727 0.0
H459 H 0.81991 0.22978 0.93093 0.0
H460 H 0.78926 0.24224 0.85231 0.0
H461 H 0.71909 0.41369 0.14719 0.0
H462 H 0.75458 0.3656 0.18058 0.0
H463 H 0.78525 0.4037 0.09904 0.0
H464 H 0.90719 0.24028 0.08344 0.0
H465 H 0.94072 0.36212 0.92596 0.0
H466 H 0.79285 0.22613 0.08636 0.0
H467 H 0.77321 0.27386 0.16032 0.0
H468 H 0.82323 0.23079 0.16618 0.0
H469 H 0.84405 0.37477 0.8661 0.0
H470 H 0.87658 0.41803 0.90628 0.0
H471 H 0.81139 0.40947 0.95482 0.0
C472 C 0.89244 0.89169 0.02705 0.0
C473 C 0.90591 0.84909 0.98052 0.0
C474 C 0.84259 0.90996 0.0517 0.0
C475 C 0.80619 0.88497 0.02837 0.0
C476 C 0.8215 0.84795 0.96815 0.0
C477 C 0.8715 0.83031 0.94508 0.0
C478 C 0.82891 0.95253 0.10929 0.0
C479 C 0.78437 0.82239 0.93618 0.0
C480 C 0.6952 0.83185 0.15689 0.0
C481 C 0.66377 0.84352 0.10731 0.0
C482 C 0.74076 0.85345 0.14328 0.0
C483 C 0.75367 0.88744 0.07961 0.0
C484 C 0.71604 0.90871 0.04759 0.0
C485 C 0.67091 0.88621 0.06158 0.0
C486 C 0.77842 0.83324 0.1856 0.0
C487 C 0.72621 0.94944 0.98759 0.0
H488 H 0.91986 0.90782 0.05103 0.0
H489 H 0.88207 0.79832 0.90706 0.0
H490 H 0.78984 0.96714 0.11792 0.0
H491 H 0.834 0.94181 0.1695 0.0
H492 H 0.85452 0.9816 0.08559 0.0
H493 H 0.80311 0.798 0.88402 0.0
H494 H 0.76119 0.80054 0.98547 0.0
H495 H 0.75907 0.84882 0.91565 0.0
H496 H 0.68806 0.80083 0.19643 0.0
H497 H 0.64543 0.8979 0.02649 0.0
H498 H 0.79881 0.86255 0.2028 0.0
H499 H 0.80623 0.80831 0.14347 0.0
H500 H 0.76033 0.81304 0.24143 0.0
H501 H 0.69495 0.97738 1.0046 0.0
H502 H 0.72804 0.93598 0.92568 0.0
H503 H 0.76158 0.96631 0.98558 0.0
loop_
_geom_bond_atom_site_label_1
_geom_bond_atom_site_label_2
_geom_bond_distance
_geom_bond_site_symmetry_2
_ccdc_geom_bond_type
Co0 N5 2.057 1_455 S
Co0 O17 2.021 . S
Co0 O20 2.062 1_455 S
Co0 O24 2.117 . S
Co0 O25 2.020 . S
C1 O21 1.259 . S
C1 O24 1.258 . S
Co2 N11 2.057 . S
Co2 O18 2.117 . S
Co2 O19 2.020 1_455 S
Co2 O21 2.021 . S
Co2 O26 2.062 . S
C3 N5 1.316 . S
C3 N6 1.347 1_554 S
C3 H8 0.931 . S
C4 N5 1.375 . S
C4 C7 1.350 1_554 S
C4 H9 0.930 . S
N5 Co0 2.057 1_655 S
N5 C3 1.316 . S
N5 C4 1.375 . S
N6 C3 1.347 1_556 S
N6 C7 1.373 . S
C7 C4 1.350 1_556 S
C7 N6 1.373 . S
C7 H28 0.931 . S
H8 C3 0.931 . S
H9 C4 0.930 . S
C10 O17 1.259 . S
C10 O18 1.258 . S
N11 Co2 2.057 . S
N11 C12 1.316 . S
N11 C13 1.375 . S
C12 N11 1.316 . S
C12 N14 1.347 . S
C12 H23 0.931 . S
C13 N11 1.375 . S
C13 C15 1.350 . S
C13 H22 0.930 . S
N14 C12 1.347 . S
N14 C15 1.373 . S
C15 C13 1.350 . S
C15 N14 1.373 . S
C15 H29 0.931 . S
C16 O19 1.256 . S
C16 O20 1.255 . S
O17 Co0 2.021 . S
O17 C10 1.259 . S
O18 Co2 2.117 . S
O18 C10 1.258 . S
O19 Co2 2.020 1_655 S
O19 C16 1.256 . S
O20 Co0 2.062 1_655 S
O20 C16 1.255 . S
O21 C1 1.259 . S
O21 Co2 2.021 . S
H22 C13 0.930 . S
H23 C12 0.931 . S
O24 Co0 2.117 . S
O24 C1 1.258 . S
O25 Co0 2.020 . S
O25 C27 1.256 . S
O26 Co2 2.062 . S
O26 C27 1.255 . S
C27 O25 1.256 . S
C27 O26 1.255 . S
H28 C7 0.931 . S
H29 C15 0.931 . S
Co30 N35 2.057 . S
Co30 O47 2.021 . S
Co30 O50 2.062 . S
Co30 O54 2.117 . S
Co30 O55 2.020 . S
C31 O51 1.259 . S
C31 O54 1.258 . S
Co32 N41 2.057 . S
Co32 O48 2.117 . S
Co32 O49 2.020 . S
Co32 O51 2.021 . S
Co32 O56 2.062 . S
C33 N35 1.316 . S
C33 N36 1.347 1_554 S
C33 H38 0.931 . S
C34 N35 1.375 . S
C34 C37 1.350 1_554 S
C34 H39 0.930 . S
N35 Co30 2.057 . S
N35 C33 1.316 . S
N35 C34 1.375 . S
N36 C33 1.347 1_556 S
N36 C37 1.373 . S
C37 C34 1.350 1_556 S
C37 N36 1.373 . S
C37 H58 0.931 . S
H38 C33 0.931 . S
H39 C34 0.930 . S
C40 O47 1.259 . S
C40 O48 1.258 . S
N41 Co32 2.057 . S
N41 C42 1.316 . S
N41 C43 1.375 . S
C42 N41 1.316 . S
C42 N44 1.347 . S
C42 H53 0.931 . S
C43 N41 1.375 . S
C43 C45 1.350 . S
C43 H52 0.930 . S
N44 C42 1.347 . S
N44 C45 1.373 . S
C45 C43 1.350 . S
C45 N44 1.373 . S
C45 H59 0.931 . S
C46 O49 1.256 . S
C46 O50 1.255 . S
O47 Co30 2.021 . S
O47 C40 1.259 . S
O48 Co32 2.117 . S
O48 C40 1.258 . S
O49 Co32 2.020 . S
O49 C46 1.256 . S
O50 Co30 2.062 . S
O50 C46 1.255 . S
O51 C31 1.259 . S
O51 Co32 2.021 . S
H52 C43 0.930 . S
H53 C42 0.931 . S
O54 Co30 2.117 . S
O54 C31 1.258 . S
O55 Co30 2.020 . S
O55 C57 1.256 . S
O56 Co32 2.062 . S
O56 C57 1.255 . S
C57 O55 1.256 . S
C57 O56 1.255 . S
H58 C37 0.931 . S
H59 C45 0.931 . S
Co60 N65 2.057 1_455 S
Co60 O77 2.021 . S
Co60 O80 2.062 1_455 S
Co60 O84 2.117 . S
Co60 O85 2.020 . S
C61 O81 1.259 . S
C61 O84 1.258 . S
Co62 N71 2.057 . S
Co62 O78 2.117 . S
Co62 O79 2.020 1_455 S
Co62 O81 2.021 . S
Co62 O86 2.062 . S
C63 N65 1.316 . S
C63 N66 1.347 . S
C63 H68 0.931 . S
C64 N65 1.375 . S
C64 C67 1.350 . S
C64 H69 0.930 . S
N65 Co60 2.057 1_655 S
N65 C63 1.316 . S
N65 C64 1.375 . S
N66 C63 1.347 . S
N66 C67 1.373 . S
C67 C64 1.350 . S
C67 N66 1.373 . S
C67 H88 0.931 . S
H68 C63 0.931 . S
H69 C64 0.930 . S
C70 O77 1.259 . S
C70 O78 1.258 . S
N71 Co62 2.057 . S
N71 C72 1.316 . S
N71 C73 1.375 . S
C72 N71 1.316 . S
C72 N74 1.347 1_556 S
C72 H83 0.931 . S
C73 N71 1.375 . S
C73 C75 1.350 1_556 S
C73 H82 0.930 . S
N74 C72 1.347 1_554 S
N74 C75 1.373 . S
C75 C73 1.350 1_554 S
C75 N74 1.373 . S
C75 H89 0.931 . S
C76 O79 1.256 . S
C76 O80 1.255 . S
O77 Co60 2.021 . S
O77 C70 1.259 . S
O78 Co62 2.117 . S
O78 C70 1.258 . S
O79 Co62 2.020 1_655 S
O79 C76 1.256 . S
O80 Co60 2.062 1_655 S
O80 C76 1.255 . S
O81 C61 1.259 . S
O81 Co62 2.021 . S
H82 C73 0.930 . S
H83 C72 0.931 . S
O84 Co60 2.117 . S
O84 C61 1.258 . S
O85 Co60 2.020 . S
O85 C87 1.256 . S
O86 Co62 2.062 . S
O86 C87 1.255 . S
C87 O85 1.256 . S
C87 O86 1.255 . S
H88 C67 0.931 . S
H89 C75 0.931 . S
Co90 N95 2.057 . S
Co90 O107 2.021 . S
Co90 O110 2.062 . S
Co90 O114 2.117 . S
Co90 O115 2.020 . S
C91 O111 1.259 . S
C91 O114 1.258 . S
Co92 N101 2.057 . S
Co92 O108 2.117 . S
Co92 O109 2.020 . S
Co92 O111 2.021 . S
Co92 O116 2.062 . S
C93 N95 1.316 . S
C93 N96 1.347 . S
C93 H98 0.931 . S
C94 N95 1.375 . S
C94 C97 1.350 . S
C94 H99 0.930 . S
N95 Co90 2.057 . S
N95 C93 1.316 . S
N95 C94 1.375 . S
N96 C93 1.347 . S
N96 C97 1.373 . S
C97 C94 1.350 . S
C97 N96 1.373 . S
C97 H118 0.931 . S
H98 C93 0.931 . S
H99 C94 0.930 . S
C100 O107 1.259 . S
C100 O108 1.258 . S
N101 Co92 2.057 . S
N101 C102 1.316 . S
N101 C103 1.375 . S
C102 N101 1.316 . S
C102 N104 1.347 1_556 S
C102 H113 0.931 . S
C103 N101 1.375 . S
C103 C105 1.350 1_556 S
C103 H112 0.930 . S
N104 C102 1.347 1_554 S
N104 C105 1.373 . S
C105 C103 1.350 1_554 S
C105 N104 1.373 . S
C105 H119 0.931 . S
C106 O109 1.256 . S
C106 O110 1.255 . S
O107 Co90 2.021 . S
O107 C100 1.259 . S
O108 Co92 2.117 . S
O108 C100 1.258 . S
O109 Co92 2.020 . S
O109 C106 1.256 . S
O110 Co90 2.062 . S
O110 C106 1.255 . S
O111 C91 1.259 . S
O111 Co92 2.021 . S
H112 C103 0.930 . S
H113 C102 0.931 . S
O114 Co90 2.117 . S
O114 C91 1.258 . S
O115 Co90 2.020 . S
O115 C117 1.256 . S
O116 Co92 2.062 . S
O116 C117 1.255 . S
C117 O115 1.256 . S
C117 O116 1.255 . S
H118 C97 0.931 . S
H119 C105 0.931 . S
C120 C121 1.391 . S
C120 C122 1.394 . S
C120 H136 0.931 . S
C121 C120 1.391 . S
C121 C125 1.376 . S
C122 C120 1.394 . S
C122 C123 1.369 . S
C122 C126 1.531 . S
C123 C122 1.369 . S
C123 C124 1.410 1_556 S
C123 C131 1.503 1_556 S
C124 C123 1.410 1_554 S
C124 C125 1.392 1_554 S
C124 C127 1.511 . S
C125 C121 1.376 . S
C125 C124 1.392 1_556 S
C125 H137 0.929 . S
C126 C122 1.531 . S
C126 H138 0.960 1_455 S
C126 H139 0.962 . S
C126 H140 0.960 1_455 S
C127 C124 1.511 . S
C127 H141 0.961 . S
C127 H142 0.961 . S
C127 H143 0.961 . S
C128 C129 1.370 . S
C128 C130 1.363 . S
C128 H144 0.931 . S
C129 C128 1.370 . S
C129 C133 1.408 1_455 S
C130 C128 1.363 . S
C130 C131 1.370 . S
C130 C134 1.524 1_554 S
C131 C123 1.503 1_554 S
C131 C130 1.370 . S
C131 C132 1.403 1_455 S
C132 C131 1.403 1_655 S
C132 C133 1.404 . S
C132 C135 1.539 . S
C133 C129 1.408 1_655 S
C133 C132 1.404 . S
C133 H145 0.930 . S
C134 C130 1.524 1_556 S
C134 H146 0.956 . S
C134 H147 0.961 . S
C134 H148 0.961 . S
C135 C132 1.539 . S
C135 H149 0.958 . S
C135 H150 0.961 . S
C135 H151 0.960 . S
H136 C120 0.931 . S
H137 C125 0.929 . S
H138 C126 0.960 1_655 S
H139 C126 0.962 . S
H140 C126 0.960 1_655 S
H141 C127 0.961 . S
H142 C127 0.961 . S
H143 C127 0.961 . S
H144 C128 0.931 . S
H145 C133 0.930 . S
H146 C134 0.956 . S
H147 C134 0.961 . S
H148 C134 0.961 . S
H149 C135 0.958 . S
H150 C135 0.961 . S
H151 C135 0.960 . S
C152 C153 1.391 . S
C152 C154 1.394 1_554 S
C152 H168 0.931 . S
C153 C152 1.391 . S
C153 C157 1.376 . S
C154 C152 1.394 1_556 S
C154 C155 1.369 1_556 S
C154 C158 1.531 . S
C155 C154 1.369 1_554 S
C155 C156 1.410 . S
C155 C163 1.503 1_554 S
C156 C155 1.410 . S
C156 C157 1.392 . S
C156 C159 1.511 . S
C157 C153 1.376 . S
C157 C156 1.392 . S
C157 H169 0.929 . S
C158 C154 1.531 . S
C158 H170 0.960 . S
C158 H171 0.962 . S
C158 H172 0.960 . S
C159 C156 1.511 . S
C159 H173 0.961 . S
C159 H174 0.961 . S
C159 H175 0.961 . S
C160 C161 1.370 . S
C160 C162 1.363 . S
C160 H176 0.931 . S
C161 C160 1.370 . S
C161 C165 1.408 . S
C162 C160 1.363 . S
C162 C163 1.370 . S
C162 C166 1.524 1_556 S
C163 C155 1.503 1_556 S
C163 C162 1.370 . S
C163 C164 1.403 . S
C164 C163 1.403 . S
C164 C165 1.404 . S
C164 C167 1.539 . S
C165 C161 1.408 . S
C165 C164 1.404 . S
C165 H177 0.930 . S
C166 C162 1.524 1_554 S
C166 H178 0.956 . S
C166 H179 0.961 . S
C166 H180 0.961 . S
C167 C164 1.539 . S
C167 H181 0.958 . S
C167 H182 0.961 . S
C167 H183 0.960 . S
H168 C152 0.931 . S
H169 C157 0.929 . S
H170 C158 0.960 . S
H171 C158 0.962 . S
H172 C158 0.960 . S
H173 C159 0.961 . S
H174 C159 0.961 . S
H175 C159 0.961 . S
H176 C160 0.931 . S
H177 C165 0.930 . S
H178 C166 0.956 . S
H179 C166 0.961 . S
H180 C166 0.961 . S
H181 C167 0.958 . S
H182 C167 0.961 . S
H183 C167 0.960 . S
C184 C185 1.391 . S
C184 C186 1.394 . S
C184 H200 0.931 . S
C185 C184 1.391 . S
C185 C189 1.376 . S
C186 C184 1.394 . S
C186 C187 1.369 . S
C186 C190 1.531 1_556 S
C187 C186 1.369 . S
C187 C188 1.410 . S
C187 C195 1.503 1_566 S
C188 C187 1.410 . S
C188 C189 1.392 . S
C188 C191 1.511 . S
C189 C185 1.376 . S
C189 C188 1.392 . S
C189 H201 0.929 . S
C190 C186 1.531 1_554 S
C190 H202 0.960 1_565 S
C190 H203 0.962 1_564 S
C190 H204 0.960 . S
C191 C188 1.511 . S
C191 H205 0.961 . S
C191 H206 0.961 . S
C191 H207 0.961 1_556 S
C192 C193 1.370 . S
C192 C194 1.360 1_554 S
C192 H208 0.931 . S
C193 C192 1.370 . S
C193 C197 1.408 . S
C194 C192 1.360 1_556 S
C194 C195 1.369 1_556 S
C194 C198 1.529 . S
C195 C187 1.503 1_544 S
C195 C194 1.369 1_554 S
C195 C196 1.403 . S
C196 C195 1.403 . S
C196 C197 1.404 . S
C196 C199 1.539 1_545 S
C197 C193 1.408 . S
C197 C196 1.404 . S
C197 H209 0.930 . S
C198 C194 1.529 . S
C198 H210 0.956 . S
C198 H211 0.961 . S
C198 H212 0.961 . S
C199 C196 1.539 1_565 S
C199 H213 0.958 . S
C199 H214 0.961 . S
C199 H215 0.960 . S
H200 C184 0.931 . S
H201 C189 0.929 . S
H202 C190 0.960 1_545 S
H203 C190 0.962 1_546 S
H204 C190 0.960 . S
H205 C191 0.961 . S
H206 C191 0.961 . S
H207 C191 0.961 1_554 S
H208 C192 0.931 . S
H209 C197 0.930 . S
H210 C198 0.956 . S
H211 C198 0.961 . S
H212 C198 0.961 . S
H213 C199 0.958 . S
H214 C199 0.961 . S
H215 C199 0.960 . S
C216 C217 1.410 . S
C216 C218 1.391 . S
C216 H232 0.915 1_455 S
C217 C216 1.410 . S
C217 C221 1.376 . S
C218 C216 1.391 . S
C218 C219 1.369 . S
C218 C222 1.537 1_455 S
C219 C218 1.369 . S
C219 C220 1.410 . S
C219 C227 1.503 1_564 S
C220 C219 1.410 . S
C220 C221 1.392 . S
C220 C223 1.511 1_554 S
C221 C217 1.376 . S
C221 C220 1.392 . S
C221 H233 0.929 . S
C222 C218 1.537 1_655 S
C222 H234 0.946 1_565 S
C222 H235 0.967 . S
C222 H236 0.962 . S
C223 C220 1.511 1_556 S
C223 H237 0.961 . S
C223 H238 0.961 . S
C223 H239 0.979 1_556 S
C224 C225 1.370 . S
C224 C226 1.363 . S
C224 H240 0.931 . S
C225 C224 1.370 . S
C225 C229 1.408 . S
C226 C224 1.363 . S
C226 C227 1.370 . S
C226 C230 1.524 1_545 S
C227 C219 1.503 1_546 S
C227 C226 1.370 . S
C227 C228 1.403 1_556 S
C228 C227 1.403 1_554 S
C228 C229 1.404 1_554 S
C228 C231 1.539 . S
C229 C225 1.408 . S
C229 C228 1.404 1_556 S
C229 H241 0.930 . S
C230 C226 1.524 1_565 S
C230 H242 0.956 . S
C230 H243 0.961 . S
C230 H244 0.961 . S
C231 C228 1.539 . S
C231 H245 0.958 . S
C231 H246 0.961 . S
C231 H247 0.960 . S
H232 C216 0.915 1_655 S
H233 C221 0.929 . S
H234 C222 0.946 1_545 S
H235 C222 0.967 . S
H236 C222 0.962 . S
H237 C223 0.961 . S
H238 C223 0.961 . S
H239 C223 0.979 1_554 S
H240 C224 0.931 . S
H241 C229 0.930 . S
H242 C230 0.956 . S
H243 C230 0.961 . S
H244 C230 0.961 . S
H245 C231 0.958 . S
H246 C231 0.961 . S
H247 C231 0.960 . S
C248 C249 1.391 . S
C248 C250 1.394 . S
C248 H264 0.931 . S
C249 C248 1.391 . S
C249 C253 1.376 . S
C250 C248 1.394 . S
C250 C251 1.369 . S
C250 C254 1.531 . S
C251 C250 1.369 . S
C251 C252 1.410 . S
C251 C259 1.503 . S
C252 C251 1.410 . S
C252 C253 1.392 . S
C252 C255 1.511 . S
C253 C249 1.376 . S
C253 C252 1.392 . S
C253 H265 0.929 . S
C254 C250 1.531 . S
C254 H266 0.960 . S
C254 H267 0.962 . S
C254 H268 0.960 . S
C255 C252 1.511 . S
C255 H269 0.961 . S
C255 H270 0.961 . S
C255 H271 0.961 . S
C256 C257 1.370 . S
C256 C258 1.363 . S
C256 H272 0.931 . S
C257 C256 1.370 . S
C257 C261 1.408 . S
C258 C256 1.363 . S
C258 C259 1.370 . S
C258 C262 1.524 . S
C259 C251 1.503 . S
C259 C258 1.370 . S
C259 C260 1.403 . S
C260 C259 1.403 . S
C260 C261 1.404 . S
C260 C263 1.539 . S
C261 C257 1.408 . S
C261 C260 1.404 . S
C261 H273 0.930 . S
C262 C258 1.524 . S
C262 H274 0.956 . S
C262 H275 0.961 . S
C262 H276 0.961 . S
C263 C260 1.539 . S
C263 H277 0.958 . S
C263 H278 0.961 . S
C263 H279 0.960 . S
H264 C248 0.931 . S
H265 C253 0.929 . S
H266 C254 0.960 . S
H267 C254 0.962 . S
H268 C254 0.960 . S
H269 C255 0.961 . S
H270 C255 0.961 . S
H271 C255 0.961 . S
H272 C256 0.931 . S
H273 C261 0.930 . S
H274 C262 0.956 . S
H275 C262 0.961 . S
H276 C262 0.961 . S
H277 C263 0.958 . S
H278 C263 0.961 . S
H279 C263 0.960 . S
C280 C281 1.391 . S
C280 C282 1.394 . S
C280 H296 0.931 . S
C281 C280 1.391 . S
C281 C285 1.376 . S
C282 C280 1.394 . S
C282 C283 1.369 . S
C282 C286 1.531 . S
C283 C282 1.369 . S
C283 C284 1.410 . S
C283 C291 1.503 . S
C284 C283 1.410 . S
C284 C285 1.392 . S
C284 C287 1.511 . S
C285 C281 1.376 . S
C285 C284 1.392 . S
C285 H297 0.929 . S
C286 C282 1.531 . S
C286 H298 0.960 . S
C286 H299 0.962 . S
C286 H300 0.960 . S
C287 C284 1.511 . S
C287 H301 0.961 . S
C287 H302 0.961 . S
C287 H303 0.961 . S
C288 C289 1.370 . S
C288 C290 1.363 . S
C288 H304 0.931 . S
C289 C288 1.370 . S
C289 C293 1.408 . S
C290 C288 1.363 . S
C290 C291 1.370 . S
C290 C294 1.524 . S
C291 C283 1.503 . S
C291 C290 1.370 . S
C291 C292 1.403 . S
C292 C291 1.403 . S
C292 C293 1.404 . S
C292 C295 1.539 . S
C293 C289 1.408 . S
C293 C292 1.404 . S
C293 H305 0.930 . S
C294 C290 1.524 . S
C294 H306 0.956 . S
C294 H307 0.961 . S
C294 H308 0.961 . S
C295 C292 1.539 . S
C295 H309 0.958 . S
C295 H310 0.961 . S
C295 H311 0.960 . S
H296 C280 0.931 . S
H297 C285 0.929 . S
H298 C286 0.960 . S
H299 C286 0.962 . S
H300 C286 0.960 . S
H301 C287 0.961 . S
H302 C287 0.961 . S
H303 C287 0.961 . S
H304 C288 0.931 . S
H305 C293 0.930 . S
H306 C294 0.956 . S
H307 C294 0.961 . S
H308 C294 0.961 . S
H309 C295 0.958 . S
H310 C295 0.961 . S
H311 C295 0.960 . S
C312 C313 1.391 . S
C312 C314 1.394 . S
C312 H328 0.931 . S
C313 C312 1.391 . S
C313 C317 1.376 . S
C314 C312 1.394 . S
C314 C315 1.369 . S
C314 C318 1.531 . S
C315 C314 1.369 . S
C315 C316 1.410 . S
C315 C323 1.503 . S
C316 C315 1.410 . S
C316 C317 1.392 . S
C316 C319 1.511 . S
C317 C313 1.376 . S
C317 C316 1.392 . S
C317 H329 0.929 . S
C318 C314 1.531 . S
C318 H330 0.960 . S
C318 H331 0.962 . S
C318 H332 0.960 . S
C319 C316 1.511 . S
C319 H333 0.961 . S
C319 H334 0.961 . S
C319 H335 0.961 . S
C320 C321 1.370 . S
C320 C322 1.363 . S
C320 H336 0.931 . S
C321 C320 1.370 . S
C321 C325 1.408 . S
C322 C320 1.363 . S
C322 C323 1.370 . S
C322 C326 1.524 . S
C323 C315 1.503 . S
C323 C322 1.370 . S
C323 C324 1.403 . S
C324 C323 1.403 . S
C324 C325 1.404 . S
C324 C327 1.539 . S
C325 C321 1.408 . S
C325 C324 1.404 . S
C325 H337 0.930 . S
C326 C322 1.524 . S
C326 H338 0.956 . S
C326 H339 0.961 . S
C326 H340 0.961 . S
C327 C324 1.539 . S
C327 H341 0.958 . S
C327 H342 0.961 . S
C327 H343 0.960 . S
H328 C312 0.931 . S
H329 C317 0.929 . S
H330 C318 0.960 . S
H331 C318 0.962 . S
H332 C318 0.960 . S
H333 C319 0.961 . S
H334 C319 0.961 . S
H335 C319 0.961 . S
H336 C320 0.931 . S
H337 C325 0.930 . S
H338 C326 0.956 . S
H339 C326 0.961 . S
H340 C326 0.961 . S
H341 C327 0.958 . S
H342 C327 0.961 . S
H343 C327 0.960 . S
C344 C345 1.391 . S
C344 C346 1.394 . S
C344 H360 0.931 . S
C345 C344 1.391 . S
C345 C349 1.376 . S
C346 C344 1.394 . S
C346 C347 1.369 . S
C346 C350 1.531 . S
C347 C346 1.369 . S
C347 C348 1.410 . S
C347 C355 1.503 . S
C348 C347 1.410 . S
C348 C349 1.392 . S
C348 C351 1.511 . S
C349 C345 1.376 . S
C349 C348 1.392 . S
C349 H361 0.929 . S
C350 C346 1.531 . S
C350 H362 0.960 . S
C350 H363 0.962 . S
C350 H364 0.960 . S
C351 C348 1.511 . S
C351 H365 0.961 . S
C351 H366 0.961 . S
C351 H367 0.961 . S
C352 C353 1.370 . S
C352 C354 1.363 . S
C352 H368 0.931 . S
C353 C352 1.370 . S
C353 C357 1.408 . S
C354 C352 1.363 . S
C354 C355 1.370 . S
C354 C358 1.524 . S
C355 C347 1.503 . S
C355 C354 1.370 . S
C355 C356 1.403 . S
C356 C355 1.403 . S
C356 C357 1.404 . S
C356 C359 1.539 . S
C357 C353 1.408 . S
C357 C356 1.404 . S
C357 H369 0.930 . S
C358 C354 1.524 . S
C358 H370 0.956 . S
C358 H371 0.961 . S
C358 H372 0.961 . S
C359 C356 1.539 . S
C359 H373 0.958 . S
C359 H374 0.961 . S
C359 H375 0.960 . S
H360 C344 0.931 . S
H361 C349 0.929 . S
H362 C350 0.960 . S
H363 C350 0.962 . S
H364 C350 0.960 . S
H365 C351 0.961 . S
H366 C351 0.961 . S
H367 C351 0.961 . S
H368 C352 0.931 . S
H369 C357 0.930 . S
H370 C358 0.956 . S
H371 C358 0.961 . S
H372 C358 0.961 . S
H373 C359 0.958 . S
H374 C359 0.961 . S
H375 C359 0.960 . S
C376 C377 1.391 1_554 S
C376 C378 1.394 . S
C376 H392 0.931 . S
C377 C376 1.391 1_556 S
C377 C381 1.376 . S
C378 C376 1.394 . S
C378 C379 1.369 1_554 S
C378 C382 1.531 . S
C379 C378 1.369 1_556 S
C379 C380 1.410 . S
C379 C387 1.503 1_556 S
C380 C379 1.410 . S
C380 C381 1.392 . S
C380 C383 1.511 . S
C381 C377 1.376 . S
C381 C380 1.392 . S
C381 H393 0.929 . S
C382 C378 1.531 . S
C382 H394 0.960 . S
C382 H395 0.962 . S
C382 H396 0.960 . S
C383 C380 1.511 . S
C383 H397 0.961 . S
C383 H398 0.961 . S
C383 H399 0.961 . S
C384 C385 1.370 . S
C384 C386 1.363 . S
C384 H400 0.931 . S
C385 C384 1.370 . S
C385 C389 1.408 . S
C386 C384 1.363 . S
C386 C387 1.370 . S
C386 C390 1.524 . S
C387 C379 1.503 1_554 S
C387 C386 1.370 . S
C387 C388 1.399 1_554 S
C388 C387 1.399 1_556 S
C388 C389 1.406 1_556 S
C388 C391 1.542 . S
C389 C385 1.408 . S
C389 C388 1.406 1_554 S
C389 H401 0.930 . S
C390 C386 1.524 . S
C390 H402 0.956 . S
C390 H403 0.961 1_554 S
C390 H404 0.961 . S
C391 C388 1.542 . S
C391 H405 0.958 1_556 S
C391 H406 0.961 . S
C391 H407 0.960 . S
H392 C376 0.931 . S
H393 C381 0.929 . S
H394 C382 0.960 . S
H395 C382 0.962 . S
H396 C382 0.960 . S
H397 C383 0.961 . S
H398 C383 0.961 . S
H399 C383 0.961 . S
H400 C384 0.931 . S
H401 C389 0.930 . S
H402 C390 0.956 . S
H403 C390 0.961 1_556 S
H404 C390 0.961 . S
H405 C391 0.958 1_554 S
H406 C391 0.961 . S
H407 C391 0.960 . S
C408 C409 1.391 . S
C408 C410 1.394 . S
C408 H424 0.931 . S
C409 C408 1.391 . S
C409 C413 1.376 1_554 S
C410 C408 1.394 . S
C410 C411 1.371 . S
C410 C414 1.531 . S
C411 C410 1.371 . S
C411 C412 1.407 1_554 S
C411 C419 1.504 1_554 S
C412 C411 1.407 1_556 S
C412 C413 1.392 . S
C412 C415 1.511 . S
C413 C409 1.376 1_556 S
C413 C412 1.392 . S
C413 H425 0.929 . S
C414 C410 1.531 . S
C414 H426 0.960 . S
C414 H427 0.962 . S
C414 H428 0.960 . S
C415 C412 1.511 . S
C415 H429 0.961 . S
C415 H430 0.961 . S
C415 H431 0.961 . S
C416 C417 1.370 1_554 S
C416 C418 1.363 . S
C416 H432 0.931 . S
C417 C416 1.370 1_556 S
C417 C421 1.408 . S
C418 C416 1.363 . S
C418 C419 1.370 1_554 S
C418 C422 1.524 . S
C419 C411 1.504 1_556 S
C419 C418 1.370 1_556 S
C419 C420 1.403 . S
C420 C419 1.403 . S
C420 C421 1.404 . S
C420 C423 1.539 . S
C421 C417 1.408 . S
C421 C420 1.404 . S
C421 H433 0.930 . S
C422 C418 1.524 . S
C422 H434 0.956 . S
C422 H435 0.961 . S
C422 H436 0.961 . S
C423 C420 1.539 . S
C423 H437 0.958 . S
C423 H438 0.961 . S
C423 H439 0.960 . S
H424 C408 0.931 . S
H425 C413 0.929 . S
H426 C414 0.960 . S
H427 C414 0.962 . S
H428 C414 0.960 . S
H429 C415 0.961 . S
H430 C415 0.961 . S
H431 C415 0.961 . S
H432 C416 0.931 . S
H433 C421 0.930 . S
H434 C422 0.956 . S
H435 C422 0.961 . S
H436 C422 0.961 . S
H437 C423 0.958 . S
H438 C423 0.961 . S
H439 C423 0.960 . S
C440 C441 1.391 1_556 S
C440 C442 1.394 . S
C440 H456 0.931 . S
C441 C440 1.391 1_554 S
C441 C445 1.376 . S
C442 C440 1.394 . S
C442 C443 1.369 . S
C442 C446 1.531 . S
C443 C442 1.369 . S
C443 C444 1.410 1_556 S
C443 C451 1.503 . S
C444 C443 1.410 1_554 S
C444 C445 1.392 . S
C444 C447 1.511 . S
C445 C441 1.376 . S
C445 C444 1.392 . S
C445 H457 0.929 . S
C446 C442 1.531 . S
C446 H458 0.960 . S
C446 H459 0.962 . S
C446 H460 0.960 . S
C447 C444 1.511 . S
C447 H461 0.961 . S
C447 H462 0.961 . S
C447 H463 0.961 . S
C448 C449 1.370 1_554 S
C448 C450 1.363 . S
C448 H464 0.931 . S
C449 C448 1.370 1_556 S
C449 C453 1.408 . S
C450 C448 1.363 . S
C450 C451 1.370 1_554 S
C450 C454 1.524 . S
C451 C443 1.503 . S
C451 C450 1.370 1_556 S
C451 C452 1.403 . S
C452 C451 1.403 . S
C452 C453 1.404 . S
C452 C455 1.539 . S
C453 C449 1.408 . S
C453 C452 1.404 . S
C453 H465 0.930 . S
C454 C450 1.524 . S
C454 H466 0.956 . S
C454 H467 0.961 . S
C454 H468 0.961 . S
C455 C452 1.539 . S
C455 H469 0.958 . S
C455 H470 0.961 . S
C455 H471 0.960 . S
H456 C440 0.931 . S
H457 C445 0.929 . S
H458 C446 0.960 . S
H459 C446 0.962 . S
H460 C446 0.960 . S
H461 C447 0.961 . S
H462 C447 0.961 . S
H463 C447 0.961 . S
H464 C448 0.931 . S
H465 C453 0.930 . S
H466 C454 0.956 . S
H467 C454 0.961 . S
H468 C454 0.961 . S
H469 C455 0.958 . S
H470 C455 0.961 . S
H471 C455 0.960 . S
C472 C473 1.391 1_554 S
C472 C474 1.394 . S
C472 H488 0.931 . S
C473 C472 1.391 1_556 S
C473 C477 1.376 . S
C474 C472 1.394 . S
C474 C475 1.369 1_554 S
C474 C478 1.531 . S
C475 C474 1.369 1_556 S
C475 C476 1.410 . S
C475 C483 1.505 1_556 S
C476 C475 1.410 . S
C476 C477 1.392 . S
C476 C479 1.511 . S
C477 C473 1.376 . S
C477 C476 1.392 . S
C477 H489 0.929 . S
C478 C474 1.531 . S
C478 H490 0.960 . S
C478 H491 0.962 . S
C478 H492 0.960 . S
C479 C476 1.511 . S
C479 H493 0.961 . S
C479 H494 0.961 . S
C479 H495 0.961 . S
C480 C481 1.370 . S
C480 C482 1.363 . S
C480 H496 0.931 . S
C481 C480 1.370 . S
C481 C485 1.408 1_554 S
C482 C480 1.363 . S
C482 C483 1.377 . S
C482 C486 1.524 . S
C483 C475 1.505 1_554 S
C483 C482 1.377 . S
C483 C484 1.395 1_554 S
C484 C483 1.395 1_556 S
C484 C485 1.404 . S
C484 C487 1.539 . S
C485 C481 1.408 1_556 S
C485 C484 1.404 . S
C485 H497 0.930 . S
C486 C482 1.524 . S
C486 H498 0.956 . S
C486 H499 0.961 . S
C486 H500 0.961 . S
C487 C484 1.539 . S
C487 H501 0.958 . S
C487 H502 0.961 . S
C487 H503 0.960 . S
H488 C472 0.931 . S
H489 C477 0.929 . S
H490 C478 0.960 . S
H491 C478 0.962 . S
H492 C478 0.960 . S
H493 C479 0.961 . S
H494 C479 0.961 . S
H495 C479 0.961 . S
H496 C480 0.931 . S
H497 C485 0.930 . S
H498 C486 0.956 . S
H499 C486 0.961 . S
H500 C486 0.961 . S
H501 C487 0.958 . S
H502 C487 0.961 . S
H503 C487 0.960 . S
C121 C61 2.227 . S
C129 C10 2.242 . S
C153 C31 2.284 . S
C161 C100 2.313 . S
C185 C91 2.205 . S
C193 C40 2.249 . S
C217 C1 2.321 . S
C225 C70 2.299 . S
C249 N96 1.551 . S
C257 N14 1.558 . S
C281 C87 1.579 . S
C289 C46 1.580 . S
C313 N66 1.573 . S
C321 N44 1.548 . S
C345 C16 1.576 . S
C353 C117 1.582 . S
C377 C106 0.948 . S
C385 C27 0.966 . S
C409 N74 0.443 . S
C417 N36 0.578 . S
C441 C57 0.990 . S
C449 C76 0.948 . S
C473 N6 0.550 . S
C481 N104 0.529 . S
