# Generated by pormake.
# Topology wgl, (5)-cn, num edge types: 1
# Building blocks:
#     Node 0, Type 0, BuildingBlock: BEQFEK_clean_sbu_0, # of connection points: 5
#     Node 1, Type 0, BuildingBlock: BEQFEK_clean_sbu_0, # of connection points: 5
#     Node 2, Type 0, BuildingBlock: BEQFEK_clean_sbu_0, # of connection points: 5
#     Node 3, Type 0, BuildingBlock: BEQFEK_clean_sbu_0, # of connection points: 5
#     Node 4, Type 0, BuildingBlock: BEQFEK_clean_sbu_0, # of connection points: 5
#     Node 5, Type 0, BuildingBlock: BEQFEK_clean_sbu_0, # of connection points: 5
#     Node 6, Type 0, BuildingBlock: BEQFEK_clean_sbu_0, # of connection points: 5
#     Node 7, Type 0, BuildingBlock: BEQFEK_clean_sbu_0, # of connection points: 5
#     Node 8, Type 0, BuildingBlock: BEQFEK_clean_sbu_0, # of connection points: 5
#     Node 9, Type 0, BuildingBlock: BEQFEK_clean_sbu_0, # of connection points: 5
#     Node 10, Type 0, BuildingBlock: BEQFEK_clean_sbu_0, # of connection points: 5
#     Node 11, Type 0, BuildingBlock: BEQFEK_clean_sbu_0, # of connection points: 5
#     Node 12, Type 0, BuildingBlock: BEQFEK_clean_sbu_0, # of connection points: 5
#     Node 13, Type 0, BuildingBlock: BEQFEK_clean_sbu_0, # of connection points: 5
#     Node 14, Type 0, BuildingBlock: BEQFEK_clean_sbu_0, # of connection points: 5
#     Node 15, Type 0, BuildingBlock: BEQFEK_clean_sbu_0, # of connection points: 5
#     Node 16, Type 0, BuildingBlock: BEQFEK_clean_sbu_0, # of connection points: 5
#     Node 17, Type 0, BuildingBlock: BEQFEK_clean_sbu_0, # of connection points: 5
#     Node 18, Type 0, BuildingBlock: BEQFEK_clean_sbu_0, # of connection points: 5
#     Node 19, Type 0, BuildingBlock: BEQFEK_clean_sbu_0, # of connection points: 5
#     Node 20, Type 0, BuildingBlock: BEQFEK_clean_sbu_0, # of connection points: 5
#     Node 21, Type 0, BuildingBlock: BEQFEK_clean_sbu_0, # of connection points: 5
#     Node 22, Type 0, BuildingBlock: BEQFEK_clean_sbu_0, # of connection points: 5
#     Node 23, Type 0, BuildingBlock: BEQFEK_clean_sbu_0, # of connection points: 5
#     Node 24, Type 0, BuildingBlock: BEQFEK_clean_sbu_0, # of connection points: 5
#     Node 25, Type 0, BuildingBlock: BEQFEK_clean_sbu_0, # of connection points: 5
#     Node 26, Type 0, BuildingBlock: BEQFEK_clean_sbu_0, # of connection points: 5
#     Node 27, Type 0, BuildingBlock: BEQFEK_clean_sbu_0, # of connection points: 5
#     Node 28, Type 0, BuildingBlock: BEQFEK_clean_sbu_0, # of connection points: 5
#     Node 29, Type 0, BuildingBlock: BEQFEK_clean_sbu_0, # of connection points: 5
#     Node 30, Type 0, BuildingBlock: BEQFEK_clean_sbu_0, # of connection points: 5
#     Node 31, Type 0, BuildingBlock: BEQFEK_clean_sbu_0, # of connection points: 5
#     Edge 32, Type (0, 0), BuildingBlock: XIVTED_clean_linker_0, # of connection points: 2
#     Edge 33, Type (0, 0), BuildingBlock: XIVTED_clean_linker_0, # of connection points: 2
#     Edge 34, Type (0, 0), BuildingBlock: XIVTED_clean_linker_0, # of connection points: 2
#     Edge 35, Type (0, 0), BuildingBlock: XIVTED_clean_linker_0, # of connection points: 2
#     Edge 36, Type (0, 0), BuildingBlock: XIVTED_clean_linker_0, # of connection points: 2
#     Edge 37, Type (0, 0), BuildingBlock: XIVTED_clean_linker_0, # of connection points: 2
#     Edge 38, Type (0, 0), BuildingBlock: XIVTED_clean_linker_0, # of connection points: 2
#     Edge 39, Type (0, 0), BuildingBlock: XIVTED_clean_linker_0, # of connection points: 2
#     Edge 40, Type (0, 0), BuildingBlock: XIVTED_clean_linker_0, # of connection points: 2
#     Edge 41, Type (0, 0), BuildingBlock: XIVTED_clean_linker_0, # of connection points: 2
#     Edge 42, Type (0, 0), BuildingBlock: XIVTED_clean_linker_0, # of connection points: 2
#     Edge 43, Type (0, 0), BuildingBlock: XIVTED_clean_linker_0, # of connection points: 2
#     Edge 44, Type (0, 0), BuildingBlock: XIVTED_clean_linker_0, # of connection points: 2
#     Edge 45, Type (0, 0), BuildingBlock: XIVTED_clean_linker_0, # of connection points: 2
#     Edge 46, Type (0, 0), BuildingBlock: XIVTED_clean_linker_0, # of connection points: 2
#     Edge 47, Type (0, 0), BuildingBlock: XIVTED_clean_linker_0, # of connection points: 2
#     Edge 48, Type (0, 0), BuildingBlock: XIVTED_clean_linker_0, # of connection points: 2
#     Edge 49, Type (0, 0), BuildingBlock: XIVTED_clean_linker_0, # of connection points: 2
#     Edge 50, Type (0, 0), BuildingBlock: XIVTED_clean_linker_0, # of connection points: 2
#     Edge 51, Type (0, 0), BuildingBlock: XIVTED_clean_linker_0, # of connection points: 2
#     Edge 52, Type (0, 0), BuildingBlock: XIVTED_clean_linker_0, # of connection points: 2
#     Edge 53, Type (0, 0), BuildingBlock: XIVTED_clean_linker_0, # of connection points: 2
#     Edge 54, Type (0, 0), BuildingBlock: XIVTED_clean_linker_0, # of connection points: 2
#     Edge 55, Type (0, 0), BuildingBlock: XIVTED_clean_linker_0, # of connection points: 2
#     Edge 56, Type (0, 0), BuildingBlock: XIVTED_clean_linker_0, # of connection points: 2
#     Edge 57, Type (0, 0), BuildingBlock: XIVTED_clean_linker_0, # of connection points: 2
#     Edge 58, Type (0, 0), BuildingBlock: XIVTED_clean_linker_0, # of connection points: 2
#     Edge 59, Type (0, 0), BuildingBlock: XIVTED_clean_linker_0, # of connection points: 2
#     Edge 60, Type (0, 0), BuildingBlock: XIVTED_clean_linker_0, # of connection points: 2
#     Edge 61, Type (0, 0), BuildingBlock: XIVTED_clean_linker_0, # of connection points: 2
#     Edge 62, Type (0, 0), BuildingBlock: XIVTED_clean_linker_0, # of connection points: 2
#     Edge 63, Type (0, 0), BuildingBlock: XIVTED_clean_linker_0, # of connection points: 2
#     Edge 64, Type (0, 0), BuildingBlock: XIVTED_clean_linker_0, # of connection points: 2
#     Edge 65, Type (0, 0), BuildingBlock: XIVTED_clean_linker_0, # of connection points: 2
#     Edge 66, Type (0, 0), BuildingBlock: XIVTED_clean_linker_0, # of connection points: 2
#     Edge 67, Type (0, 0), BuildingBlock: XIVTED_clean_linker_0, # of connection points: 2
#     Edge 68, Type (0, 0), BuildingBlock: XIVTED_clean_linker_0, # of connection points: 2
#     Edge 69, Type (0, 0), BuildingBlock: XIVTED_clean_linker_0, # of connection points: 2
#     Edge 70, Type (0, 0), BuildingBlock: XIVTED_clean_linker_0, # of connection points: 2
#     Edge 71, Type (0, 0), BuildingBlock: XIVTED_clean_linker_0, # of connection points: 2
#     Edge 72, Type (0, 0), BuildingBlock: XIVTED_clean_linker_0, # of connection points: 2
#     Edge 73, Type (0, 0), BuildingBlock: XIVTED_clean_linker_0, # of connection points: 2
#     Edge 74, Type (0, 0), BuildingBlock: XIVTED_clean_linker_0, # of connection points: 2
#     Edge 75, Type (0, 0), BuildingBlock: XIVTED_clean_linker_0, # of connection points: 2
#     Edge 76, Type (0, 0), BuildingBlock: XIVTED_clean_linker_0, # of connection points: 2
#     Edge 77, Type (0, 0), BuildingBlock: XIVTED_clean_linker_0, # of connection points: 2
#     Edge 78, Type (0, 0), BuildingBlock: XIVTED_clean_linker_0, # of connection points: 2
#     Edge 79, Type (0, 0), BuildingBlock: XIVTED_clean_linker_0, # of connection points: 2
#     Edge 80, Type (0, 0), BuildingBlock: XIVTED_clean_linker_0, # of connection points: 2
#     Edge 81, Type (0, 0), BuildingBlock: XIVTED_clean_linker_0, # of connection points: 2
#     Edge 82, Type (0, 0), BuildingBlock: XIVTED_clean_linker_0, # of connection points: 2
#     Edge 83, Type (0, 0), BuildingBlock: XIVTED_clean_linker_0, # of connection points: 2
#     Edge 84, Type (0, 0), BuildingBlock: XIVTED_clean_linker_0, # of connection points: 2
#     Edge 85, Type (0, 0), BuildingBlock: XIVTED_clean_linker_0, # of connection points: 2
#     Edge 86, Type (0, 0), BuildingBlock: XIVTED_clean_linker_0, # of connection points: 2
#     Edge 87, Type (0, 0), BuildingBlock: XIVTED_clean_linker_0, # of connection points: 2
#     Edge 88, Type (0, 0), BuildingBlock: XIVTED_clean_linker_0, # of connection points: 2
#     Edge 89, Type (0, 0), BuildingBlock: XIVTED_clean_linker_0, # of connection points: 2
#     Edge 90, Type (0, 0), BuildingBlock: XIVTED_clean_linker_0, # of connection points: 2
#     Edge 91, Type (0, 0), BuildingBlock: XIVTED_clean_linker_0, # of connection points: 2
#     Edge 92, Type (0, 0), BuildingBlock: XIVTED_clean_linker_0, # of connection points: 2
#     Edge 93, Type (0, 0), BuildingBlock: XIVTED_clean_linker_0, # of connection points: 2
#     Edge 94, Type (0, 0), BuildingBlock: XIVTED_clean_linker_0, # of connection points: 2
#     Edge 95, Type (0, 0), BuildingBlock: XIVTED_clean_linker_0, # of connection points: 2
#     Edge 96, Type (0, 0), BuildingBlock: XIVTED_clean_linker_0, # of connection points: 2
#     Edge 97, Type (0, 0), BuildingBlock: XIVTED_clean_linker_0, # of connection points: 2
#     Edge 98, Type (0, 0), BuildingBlock: XIVTED_clean_linker_0, # of connection points: 2
#     Edge 99, Type (0, 0), BuildingBlock: XIVTED_clean_linker_0, # of connection points: 2
#     Edge 100, Type (0, 0), BuildingBlock: XIVTED_clean_linker_0, # of connection points: 2
#     Edge 101, Type (0, 0), BuildingBlock: XIVTED_clean_linker_0, # of connection points: 2
#     Edge 102, Type (0, 0), BuildingBlock: XIVTED_clean_linker_0, # of connection points: 2
#     Edge 103, Type (0, 0), BuildingBlock: XIVTED_clean_linker_0, # of connection points: 2
#     Edge 104, Type (0, 0), BuildingBlock: XIVTED_clean_linker_0, # of connection points: 2
#     Edge 105, Type (0, 0), BuildingBlock: XIVTED_clean_linker_0, # of connection points: 2
#     Edge 106, Type (0, 0), BuildingBlock: XIVTED_clean_linker_0, # of connection points: 2
#     Edge 107, Type (0, 0), BuildingBlock: XIVTED_clean_linker_0, # of connection points: 2
#     Edge 108, Type (0, 0), BuildingBlock: XIVTED_clean_linker_0, # of connection points: 2
#     Edge 109, Type (0, 0), BuildingBlock: XIVTED_clean_linker_0, # of connection points: 2
#     Edge 110, Type (0, 0), BuildingBlock: XIVTED_clean_linker_0, # of connection points: 2
#     Edge 111, Type (0, 0), BuildingBlock: XIVTED_clean_linker_0, # of connection points: 2
# Relax obj value: 0.070
# Max RMSD: 0.100
# Mean RMSD: 0.100
data_MOF--net-wgl--node1-BEQFEK_clean_sbu_0--edge1-XIVTED_clean_linker_0
_symmetry_space_group_name_H-M    P1
_symmetry_Int_Tables_number       1
_symmetry_cell_setting            triclinic
loop_
_symmetry_equiv_pos_as_xyz
'x, y, z'
_cell_length_a     57.256305
_cell_length_b     57.237648
_cell_length_c     60.229719
_cell_angle_alpha  89.998776
_cell_angle_beta   90.002366
_cell_angle_gamma 89.993108
loop_
_atom_site_label
_atom_site_type_symbol
_atom_site_fract_x
_atom_site_fract_y
_atom_site_fract_z
_atom_type_partial_charge
Co0 Co 0.31037 0.26624 0.11847 0.0
Co1 Co 0.2783 0.30962 0.12486 0.0
C2 C 0.27763 0.28243 0.08242 0.0
O3 O 0.29247 0.26751 0.08949 0.0
O4 O 0.27111 0.29946 0.09449 0.0
C5 C 0.32194 0.21697 0.11572 0.0
O6 O 0.29984 0.21395 0.11055 0.0
C7 C 0.23621 0.33845 0.12632 0.0
C8 C 0.24622 0.3652 0.15106 0.0
C9 C 0.22803 0.35791 0.13758 0.0
N10 N 0.25819 0.33435 0.133 0.0
N11 N 0.26415 0.35048 0.14764 0.0
C12 C 0.22292 0.32273 0.11101 0.0
H13 H 0.22901 0.30444 0.11292 0.0
H14 H 0.20388 0.32366 0.11435 0.0
H15 H 0.22618 0.32821 0.09361 0.0
C16 C 0.28837 0.25396 0.16233 0.0
N17 N 0.29008 0.2671 0.14374 0.0
N18 N 0.27568 0.28492 0.14547 0.0
C19 C 0.26394 0.28338 0.16478 0.0
C20 C 0.27179 0.26397 0.17629 0.0
C21 C 0.30422 0.23398 0.16777 0.0
H22 H 0.32225 0.23795 0.16222 0.0
H23 H 0.2981 0.21818 0.15884 0.0
H24 H 0.30433 0.23022 0.18584 0.0
O25 O 0.3332 0.29256 0.12043 0.0
O26 O 0.30988 0.32287 0.12599 0.0
H27 H 0.25424 0.31667 0.17798 0.0
H28 H 0.23516 0.29314 0.18619 0.0
C29 C 0.24569 0.30034 0.17233 0.0
H30 H 0.23378 0.30445 0.1584 0.0
H31 H 0.28034 0.35118 0.15556 0.0
O32 O 0.32951 0.23747 0.11934 0.0
C33 C 0.33023 0.31432 0.12389 0.0
Co34 Co 0.9798 0.0599 0.36746 0.0
Co35 Co 0.93655 0.02766 0.37413 0.0
C36 C 0.96374 0.027 0.3316 0.0
O37 O 0.97848 0.04209 0.33854 0.0
O38 O 0.94684 0.02031 0.34376 0.0
C39 C 0.02867 0.07263 0.36245 0.0
O40 O 0.03154 0.05141 0.35458 0.0
C41 C 0.90796 0.98536 0.3762 0.0
C42 C 0.87994 0.99645 0.39918 0.0
C43 C 0.88786 0.9777 0.38676 0.0
N44 N 0.91178 0.0076 0.38226 0.0
N45 N 0.89491 0.01419 0.39586 0.0
C46 C 0.92421 0.97157 0.36183 0.0
H47 H 0.9424 0.97789 0.364 0.0
H48 H 0.92325 0.95267 0.36585 0.0
H49 H 0.91923 0.97408 0.34419 0.0
C50 C 0.99316 0.03704 0.41051 0.0
N51 N 0.97927 0.03934 0.39252 0.0
N52 N 0.96129 0.02521 0.39471 0.0
C53 C 0.96334 0.0132 0.41385 0.0
C54 C 0.98358 0.02027 0.42452 0.0
C55 C 0.01469 0.05122 0.41454 0.0
H56 H 0.02815 0.04627 0.40218 0.0
H57 H 0.02191 0.04826 0.4314 0.0
H58 H 0.01068 0.07004 0.4123 0.0
O59 O 0.95333 0.08267 0.36959 0.0
O60 O 0.92319 0.05912 0.375 0.0
H61 H 0.94991 0.9894 0.43899 0.0
H62 H 0.94105 0.98338 0.41085 0.0
C63 C 0.94481 -0.00257 0.42299 0.0
H64 H 0.92863 0.00766 0.42571 0.0
H65 H 0.89377 0.03073 0.40304 0.0
O66 O 0.00845 0.07922 0.36845 0.0
C67 C 0.93157 0.07953 0.37293 0.0
Co68 Co 0.18422 0.72752 0.61979 0.0
Co69 Co 0.21627 0.6841 0.62555 0.0
C70 C 0.21643 0.71168 0.5833 0.0
O71 O 0.20171 0.72654 0.59066 0.0
O72 O 0.22306 0.69452 0.59515 0.0
C73 C 0.17227 0.7765 0.61601 0.0
O74 O 0.19397 0.77933 0.60945 0.0
C75 C 0.25839 0.65536 0.62612 0.0
C76 C 0.24878 0.62819 0.65058 0.0
C77 C 0.26674 0.63569 0.63692 0.0
N78 N 0.23654 0.65935 0.6332 0.0
N79 N 0.23081 0.64299 0.64768 0.0
C80 C 0.27143 0.67132 0.61083 0.0
H81 H 0.2654 0.68959 0.61313 0.0
H82 H 0.29052 0.67032 0.61383 0.0
H83 H 0.26783 0.66615 0.5934 0.0
C84 C 0.20691 0.73971 0.66329 0.0
N85 N 0.20486 0.72655 0.64475 0.0
N86 N 0.21915 0.70863 0.64632 0.0
C87 C 0.23111 0.71007 0.66551 0.0
C88 C 0.22356 0.72956 0.6771 0.0
C89 C 0.19138 0.75993 0.66874 0.0
H90 H 0.17312 0.75582 0.66399 0.0
H91 H 0.19709 0.77537 0.65903 0.0
H92 H 0.19205 0.76432 0.68667 0.0
O93 O 0.16143 0.70119 0.62183 0.0
O94 O 0.18475 0.67079 0.62698 0.0
H95 H 0.24058 0.6766 0.67845 0.0
H96 H 0.25989 0.69991 0.68677 0.0
C97 C 0.24925 0.6929 0.6729 0.0
H98 H 0.26107 0.6888 0.6589 0.0
H99 H 0.21475 0.64215 0.65582 0.0
O100 O 0.16506 0.75619 0.62096 0.0
C101 C 0.1644 0.6794 0.62514 0.0
Co102 Co 0.51483 0.93328 0.86819 0.0
Co103 Co 0.55737 0.96682 0.87214 0.0
C104 C 0.52803 0.96701 0.8314 0.0
O105 O 0.51521 0.95063 0.83906 0.0
O106 O 0.54493 0.97535 0.84261 0.0
C107 C 0.46563 0.9219 0.86691 0.0
O108 O 0.4626 0.94406 0.86199 0.0
C109 C 0.58752 0.00837 0.87352 0.0
C110 C 0.61368 0.99723 0.89841 0.0
C111 C 0.60719 0.01574 0.88496 0.0
N112 N 0.58254 0.9865 0.88008 0.0
N113 N 0.59833 0.9799 0.89481 0.0
C114 C 0.57249 0.02232 0.85811 0.0
H115 H 0.55392 0.01718 0.86008 0.0
H116 H 0.57439 0.04132 0.86129 0.0
H117 H 0.57777 0.0186 0.84074 0.0
C118 C 0.50392 0.95545 0.91224 0.0
N119 N 0.51642 0.95374 0.89327 0.0
N120 N 0.53389 0.96863 0.89417 0.0
C121 C 0.53269 0.98073 0.91332 0.0
C122 C 0.5139 0.97259 0.9256 0.0
C123 C 0.48448 0.93926 0.91848 0.0
H124 H 0.48829 0.92137 0.91243 0.0
H125 H 0.46808 0.94538 0.91058 0.0
H126 H 0.48186 0.93877 0.93673 0.0
O127 O 0.54112 0.91087 0.86938 0.0
O128 O 0.57119 0.93506 0.87172 0.0
H129 H 0.56567 0.99249 0.92565 0.0
H130 H 0.54148 0.01112 0.93301 0.0
C131 C 0.54899 6e-05 0.91967 0.0
H132 H 0.55254 0.01124 0.90507 0.0
H133 H 0.59836 0.96365 0.90267 0.0
O134 O 0.48618 0.91415 0.86988 0.0
C135 C 0.563 0.91443 0.87085 0.0
Co136 Co 0.3093 0.73024 0.39055 0.0
Co137 Co 0.27683 0.68711 0.38404 0.0
C138 C 0.27693 0.71395 0.42676 0.0
O139 O 0.29188 0.72872 0.41964 0.0
O140 O 0.27005 0.69706 0.41467 0.0
C141 C 0.32225 0.77912 0.3956 0.0
O142 O 0.30107 0.78216 0.40347 0.0
C143 C 0.23445 0.65847 0.38223 0.0
C144 C 0.24481 0.63148 0.35786 0.0
C145 C 0.22642 0.63891 0.37102 0.0
N146 N 0.25654 0.6625 0.37581 0.0
N147 N 0.2627 0.64622 0.3614 0.0
C148 C 0.22104 0.67412 0.3975 0.0
H149 H 0.22721 0.69242 0.39574 0.0
H150 H 0.20203 0.67321 0.394 0.0
H151 H 0.22414 0.66854 0.41489 0.0
C152 C 0.2859 0.744 0.34794 0.0
N153 N 0.28837 0.73 0.36583 0.0
N154 N 0.27397 0.7122 0.36384 0.0
C155 C 0.26149 0.7146 0.34501 0.0
C156 C 0.26863 0.73478 0.33429 0.0
C157 C 0.30051 0.76515 0.34352 0.0
H158 H 0.31924 0.76084 0.34593 0.0
H159 H 0.29577 0.779 0.35557 0.0
H160 H 0.29775 0.772 0.32649 0.0
O161 O 0.33192 0.70378 0.38787 0.0
O162 O 0.30833 0.67369 0.38235 0.0
H163 H 0.255 0.68039 0.33229 0.0
H164 H 0.23612 0.7023 0.3208 0.0
C165 C 0.24507 0.6965 0.33614 0.0
H166 H 0.23174 0.69237 0.34887 0.0
H167 H 0.27902 0.64539 0.35374 0.0
O168 O 0.32868 0.75885 0.38958 0.0
C169 C 0.32877 0.68209 0.38423 0.0
Co170 Co 0.51295 0.06152 0.63922 0.0
Co171 Co 0.55598 0.02848 0.63474 0.0
C172 C 0.52738 0.02782 0.67584 0.0
O173 O 0.51438 0.0442 0.66838 0.0
O174 O 0.54412 0.01947 0.66436 0.0
C175 C 0.46362 0.07345 0.6429 0.0
O176 O 0.46053 0.05203 0.65016 0.0
C177 C 0.59192 0.99087 0.63312 0.0
C178 C 0.61378 0.00484 0.60587 0.0
C179 C 0.61198 0.98656 0.62077 0.0
N180 N 0.58224 0.01075 0.62554 0.0
N181 N 0.59542 0.01894 0.6093 0.0
C182 C 0.58312 0.97763 0.65284 0.0
H183 H 0.57701 0.98995 0.66577 0.0
H184 H 0.56805 0.96671 0.6477 0.0
H185 H 0.59685 0.96626 0.66004 0.0
C186 C 0.50124 0.0383 0.59592 0.0
N187 N 0.51442 0.04076 0.61436 0.0
N188 N 0.53201 0.026 0.61329 0.0
C189 C 0.5301 0.0131 0.59466 0.0
C190 C 0.51067 0.02057 0.58291 0.0
C191 C 0.48039 0.05304 0.59064 0.0
H192 H 0.48455 0.07171 0.59358 0.0
H193 H 0.46587 0.04809 0.60188 0.0
H194 H 0.47451 0.05057 0.57325 0.0
O195 O 0.53862 0.08464 0.63749 0.0
O196 O 0.56873 0.0606 0.63531 0.0
H197 H 0.56298 0.00444 0.58011 0.0
H198 H 0.54052 0.98344 0.57452 0.0
C199 C 0.54768 0.99533 0.58733 0.0
H200 H 0.55352 0.9848 0.60175 0.0
H201 H 0.59199 0.0344 0.60072 0.0
O202 O 0.484 0.08027 0.63771 0.0
C203 C 0.56049 0.08119 0.63603 0.0
Co204 Co 0.18334 0.265 0.89008 0.0
Co205 Co 0.21548 0.30828 0.88347 0.0
C206 C 0.21542 0.28163 0.92635 0.0
O207 O 0.20071 0.26667 0.91915 0.0
O208 O 0.22214 0.29864 0.91431 0.0
C209 C 0.1703 0.21642 0.89615 0.0
O210 O 0.19119 0.21375 0.90483 0.0
C211 C 0.25564 0.34015 0.88381 0.0
C212 C 0.24724 0.36302 0.85529 0.0
C213 C 0.26371 0.359 0.87165 0.0
N214 N 0.23531 0.33317 0.87493 0.0
N215 N 0.2303 0.34701 0.858 0.0
C216 C 0.26742 0.32834 0.90292 0.0
H217 H 0.2653 0.30912 0.9015 0.0
H218 H 0.28627 0.33278 0.90358 0.0
H219 H 0.25901 0.33406 0.91859 0.0
C220 C 0.20684 0.25115 0.84761 0.0
N221 N 0.2043 0.26524 0.86542 0.0
N222 N 0.21884 0.28292 0.86352 0.0
C223 C 0.23164 0.28024 0.84491 0.0
C224 C 0.22435 0.26014 0.83408 0.0
C225 C 0.19208 0.23009 0.84319 0.0
H226 H 0.17336 0.23471 0.845 0.0
H227 H 0.19624 0.21647 0.85567 0.0
H228 H 0.19528 0.22282 0.82639 0.0
O229 O 0.16054 0.29117 0.88734 0.0
O230 O 0.18382 0.32139 0.88147 0.0
H231 H 0.23903 0.31275 0.82906 0.0
H232 H 0.26025 0.29053 0.82337 0.0
C233 C 0.24874 0.29788 0.83638 0.0
H234 H 0.25975 0.30435 0.85019 0.0
H235 H 0.21533 0.34542 0.84824 0.0
O236 O 0.16407 0.2364 0.88918 0.0
C237 C 0.16347 0.31284 0.88348 0.0
Co238 Co 0.98039 0.93301 0.13916 0.0
Co239 Co 0.93696 0.96512 0.1331 0.0
C240 C 0.96463 0.96567 0.17535 0.0
O241 O 0.97934 0.9507 0.16813 0.0
O242 O 0.9475 0.97236 0.16345 0.0
C243 C 0.02923 0.91964 0.14383 0.0
O244 O 0.03255 0.94067 0.15199 0.0
C245 C 0.90776 0.00711 0.13135 0.0
C246 C 0.88031 0.99596 0.10777 0.0
C247 C 0.88777 0.01465 0.12053 0.0
N248 N 0.91199 0.985 0.12509 0.0
N249 N 0.89544 0.97838 0.11115 0.0
C250 C 0.92355 0.02095 0.14612 0.0
H251 H 0.94188 0.01501 0.14408 0.0
H252 H 0.92229 0.0399 0.1424 0.0
H253 H 0.91839 0.01803 0.16367 0.0
C254 C 0.9933 0.95622 0.09619 0.0
N255 N 0.97955 0.95369 0.11425 0.0
N256 N 0.96154 0.96785 0.11235 0.0
C257 C 0.96349 0.98015 0.09337 0.0
C258 C 0.98364 0.97321 0.08248 0.0
C259 C 0.01478 0.94207 0.09183 0.0
H260 H 0.02833 0.94679 0.10419 0.0
H261 H 0.02186 0.94528 0.07496 0.0
H262 H 0.01075 0.92323 0.09384 0.0
O263 O 0.95402 0.91023 0.13724 0.0
O264 O 0.9237 0.9336 0.13215 0.0
H265 H 0.95028 0.00488 0.06895 0.0
H266 H 0.94111 0.00981 0.09719 0.0
C267 C 0.94502 0.99623 0.08462 0.0
H268 H 0.9289 0.98609 0.08138 0.0
H269 H 0.89468 0.96192 0.10373 0.0
O270 O 0.00889 0.91354 0.13778 0.0
C271 C 0.93223 0.91323 0.13408 0.0
Co272 Co 0.68413 0.72984 0.88954 0.0
Co273 Co 0.71637 0.68628 0.88424 0.0
C274 C 0.71659 0.7144 0.9261 0.0
O275 O 0.70172 0.72906 0.91861 0.0
O276 O 0.72332 0.69712 0.91444 0.0
C277 C 0.67262 0.77919 0.89187 0.0
O278 O 0.69459 0.78218 0.8975 0.0
C279 C 0.75813 0.65668 0.88377 0.0
C280 C 0.74798 0.62986 0.85916 0.0
C281 C 0.76606 0.63686 0.87291 0.0
N282 N 0.73638 0.66123 0.87663 0.0
N283 N 0.73035 0.64507 0.86205 0.0
C284 C 0.77144 0.67221 0.89924 0.0
H285 H 0.76581 0.69063 0.89709 0.0
H286 H 0.79052 0.67082 0.89627 0.0
H287 H 0.76768 0.66694 0.9166 0.0
C288 C 0.7067 0.74132 0.84585 0.0
N289 N 0.70473 0.72844 0.86457 0.0
N290 N 0.71912 0.71057 0.86323 0.0
C291 C 0.73108 0.71181 0.84403 0.0
C292 C 0.72342 0.73109 0.83221 0.0
C293 C 0.69098 0.7613 0.84004 0.0
H294 H 0.67286 0.75741 0.84539 0.0
H295 H 0.697 0.77716 0.84893 0.0
H296 H 0.69113 0.76489 0.82194 0.0
O297 O 0.6613 0.7035 0.88776 0.0
O298 O 0.68476 0.67312 0.88313 0.0
H299 H 0.74087 0.67839 0.83121 0.0
H300 H 0.76023 0.70177 0.8232 0.0
C301 C 0.7494 0.6947 0.83692 0.0
H302 H 0.761 0.69061 0.8511 0.0
H303 H 0.7143 0.64462 0.85387 0.0
O304 O 0.66511 0.75869 0.88809 0.0
C305 C 0.66437 0.68168 0.88479 0.0
Co306 Co 0.01781 0.93428 0.63889 0.0
Co307 Co 0.06091 0.96674 0.63266 0.0
C308 C 0.03327 0.96682 0.67506 0.0
O309 O 0.01863 0.9518 0.66785 0.0
O310 O 0.0503 0.97364 0.66311 0.0
C311 C 0.96958 0.9207 0.64476 0.0
O312 O 0.967 0.94145 0.65374 0.0
C313 C 0.08758 0.01012 0.63077 0.0
C314 C 0.11689 0.00018 0.60881 0.0
C315 C 0.10753 0.0187 0.62063 0.0
N316 N 0.0852 0.9876 0.62505 0.0
N317 N 0.10284 0.98168 0.61206 0.0
C318 C 0.07009 0.0233 0.64433 0.0
H319 H 0.05238 0.01587 0.6418 0.0
H320 H 0.07009 0.04212 0.63989 0.0
H321 H 0.07462 0.02152 0.66217 0.0
C322 C 0.00432 0.9574 0.59612 0.0
N323 N 0.01826 0.95502 0.61406 0.0
N324 N 0.03628 0.9691 0.61188 0.0
C325 C 0.03427 0.98107 0.59271 0.0
C326 C 0.01394 0.97411 0.58208 0.0
C327 C 0.98268 0.94336 0.5922 0.0
H328 H 0.96969 0.9476 0.60524 0.0
H329 H 0.97484 0.9471 0.57573 0.0
H330 H 0.98684 0.92447 0.59348 0.0
O331 O 0.04453 0.91196 0.63685 0.0
O332 O 0.07477 0.93543 0.63151 0.0
H333 H 0.04832 0.00371 0.56691 0.0
H334 H 0.05598 0.01137 0.595 0.0
C335 C 0.05292 0.99662 0.58345 0.0
H336 H 0.06934 0.98654 0.5818 0.0
H337 H 0.10508 0.96511 0.60518 0.0
O338 O 0.98952 0.91457 0.63761 0.0
C339 C 0.06629 0.91504 0.63356 0.0
Co340 Co 0.81108 0.26531 0.38986 0.0
Co341 Co 0.77861 0.30884 0.38418 0.0
C342 C 0.778 0.28079 0.42608 0.0
O343 O 0.79306 0.26626 0.4187 0.0
O344 O 0.77116 0.29805 0.41441 0.0
C345 C 0.82339 0.21612 0.39269 0.0
O346 O 0.80153 0.2127 0.39845 0.0
C347 C 0.74033 0.34392 0.38359 0.0
C348 C 0.74829 0.36159 0.35183 0.0
C349 C 0.73236 0.36117 0.36913 0.0
N350 N 0.75958 0.33421 0.37472 0.0
N351 N 0.76443 0.34515 0.35597 0.0
C352 C 0.73137 0.33814 0.40627 0.0
H353 H 0.74601 0.33307 0.41722 0.0
H354 H 0.71904 0.32324 0.40512 0.0
H355 H 0.72241 0.35333 0.4139 0.0
C356 C 0.78856 0.25332 0.34627 0.0
N357 N 0.79072 0.26654 0.36475 0.0
N358 N 0.77584 0.28402 0.36358 0.0
C359 C 0.76307 0.28189 0.34491 0.0
C360 C 0.77103 0.26277 0.33305 0.0
C361 C 0.80449 0.23354 0.34042 0.0
H362 H 0.82256 0.23756 0.34582 0.0
H363 H 0.7986 0.21757 0.34923 0.0
H364 H 0.80438 0.23003 0.32231 0.0
O365 O 0.83385 0.29145 0.38836 0.0
O366 O 0.81042 0.32177 0.38348 0.0
H367 H 0.74914 0.3122 0.32888 0.0
H368 H 0.73009 0.28736 0.32847 0.0
C369 C 0.74283 0.29715 0.33878 0.0
H370 H 0.73388 0.30359 0.3539 0.0
H371 H 0.77863 0.34111 0.34582 0.0
O372 O 0.83042 0.23672 0.38865 0.0
C373 C 0.8308 0.31325 0.38538 0.0
Co374 Co 0.47828 0.0612 0.1396 0.0
Co375 Co 0.43498 0.02871 0.13494 0.0
C376 C 0.4639 0.0268 0.17569 0.0
O377 O 0.47695 0.04323 0.16844 0.0
O378 O 0.447 0.01884 0.1642 0.0
C379 C 0.52779 0.07152 0.14177 0.0
O380 O 0.53041 0.04931 0.1467 0.0
C381 C 0.39939 0.9911 0.13304 0.0
C382 C 0.37725 0.00498 0.10593 0.0
C383 C 0.37941 0.98659 0.12068 0.0
N384 N 0.40872 0.01118 0.12561 0.0
N385 N 0.3954 0.01934 0.10946 0.0
C386 C 0.40852 0.97787 0.15264 0.0
H387 H 0.4125 0.9902 0.16631 0.0
H388 H 0.42504 0.96901 0.14793 0.0
H389 H 0.3958 0.96475 0.15872 0.0
C390 C 0.48904 0.03911 0.09541 0.0
N391 N 0.47635 0.04115 0.11423 0.0
N392 N 0.45859 0.02663 0.11317 0.0
C393 C 0.45981 0.01436 0.09413 0.0
C394 C 0.47888 0.02209 0.08201 0.0
C395 C 0.50902 0.05475 0.08945 0.0
H396 H 0.50573 0.07269 0.09565 0.0
H397 H 0.52515 0.04805 0.09742 0.0
H398 H 0.51179 0.05532 0.07122 0.0
O399 O 0.45284 0.08455 0.13851 0.0
O400 O 0.42243 0.06089 0.13623 0.0
H401 H 0.42755 0.00259 0.0802 0.0
H402 H 0.45166 0.98293 0.07584 0.0
C403 C 0.44344 0.99505 0.08791 0.0
H404 H 0.43832 0.98504 0.10289 0.0
H405 H 0.39862 0.0349 0.10097 0.0
O406 O 0.50743 0.07957 0.13844 0.0
C407 C 0.43092 0.08136 0.1372 0.0
Co408 Co 0.68408 0.26439 0.61845 0.0
Co409 Co 0.71627 0.30783 0.62469 0.0
C410 C 0.71696 0.28034 0.58243 0.0
O411 O 0.70201 0.26552 0.58949 0.0
O412 O 0.72352 0.29738 0.59446 0.0
C413 C 0.67187 0.21512 0.61556 0.0
O414 O 0.69381 0.21176 0.61006 0.0
C415 C 0.75802 0.33738 0.62588 0.0
C416 C 0.74777 0.36371 0.65094 0.0
C417 C 0.76591 0.35697 0.63714 0.0
N418 N 0.73624 0.33272 0.63283 0.0
N419 N 0.73015 0.34858 0.64768 0.0
C420 C 0.77141 0.32217 0.61019 0.0
H421 H 0.76581 0.3037 0.61201 0.0
H422 H 0.79048 0.32353 0.61324 0.0
H423 H 0.7677 0.32776 0.59291 0.0
C424 C 0.70629 0.25223 0.66226 0.0
N425 N 0.70441 0.26539 0.6437 0.0
N426 N 0.7188 0.28324 0.64537 0.0
C427 C 0.73068 0.28169 0.66459 0.0
C428 C 0.72294 0.26226 0.67612 0.0
C429 C 0.69064 0.23209 0.66767 0.0
H430 H 0.67251 0.23603 0.66236 0.0
H431 H 0.69672 0.21644 0.65848 0.0
H432 H 0.69079 0.22812 0.6857 0.0
O433 O 0.66133 0.29078 0.62023 0.0
O434 O 0.68472 0.32106 0.62563 0.0
H435 H 0.74071 0.31482 0.67791 0.0
H436 H 0.75995 0.29119 0.6855 0.0
C437 C 0.74911 0.29856 0.67192 0.0
H438 H 0.76071 0.30281 0.65779 0.0
H439 H 0.71406 0.34888 0.6558 0.0
O440 O 0.66471 0.23572 0.61946 0.0
C441 C 0.66436 0.31255 0.62355 0.0
Co442 Co 0.47793 0.93394 0.36834 0.0
Co443 Co 0.43597 0.96801 0.37361 0.0
C444 C 0.46407 0.96758 0.3319 0.0
O445 O 0.47696 0.95103 0.33914 0.0
O446 O 0.44765 0.97611 0.34364 0.0
C447 C 0.52625 0.9204 0.36315 0.0
O448 O 0.52915 0.94145 0.35492 0.0
C449 C 0.40763 0.01069 0.37615 0.0
C450 C 0.38019 -0.00044 0.39975 0.0
C451 C 0.38793 0.0184 0.38735 0.0
N452 N 0.41143 0.98834 0.38188 0.0
N453 N 0.39488 0.98174 0.39582 0.0
C454 C 0.42358 0.02458 0.36158 0.0
H455 H 0.44181 0.01827 0.3634 0.0
H456 H 0.42268 0.04346 0.3657 0.0
H457 H 0.41827 0.02216 0.34401 0.0
C458 C 0.49137 0.95681 0.41132 0.0
N459 N 0.4777 0.9548 0.39315 0.0
N460 N 0.46026 0.96967 0.39485 0.0
C461 C 0.46257 0.98197 0.4138 0.0
C462 C 0.48232 0.97424 0.4249 0.0
C463 C 0.51222 0.9418 0.41588 0.0
H464 H 0.50752 0.92315 0.41363 0.0
H465 H 0.52615 0.94612 0.40377 0.0
H466 H 0.51912 0.94459 0.43288 0.0
O467 O 0.45127 0.91204 0.37056 0.0
O468 O 0.42159 0.93656 0.37391 0.0
H469 H 0.42826 0.98975 0.42556 0.0
H470 H 0.45049 0.00766 0.43783 0.0
C471 C 0.44487 -0.00095 0.42226 0.0
H472 H 0.44167 0.01263 0.4095 0.0
H473 H 0.39385 0.96515 0.40292 0.0
O474 O 0.5061 0.91409 0.36958 0.0
C475 C 0.42951 0.91585 0.37282 0.0
Co476 Co 0.81004 0.72909 0.11851 0.0
Co477 Co 0.7781 0.68556 0.12461 0.0
C478 C 0.77712 0.71333 0.08252 0.0
O479 O 0.79203 0.72813 0.08967 0.0
O480 O 0.77066 0.69614 0.09443 0.0
C481 C 0.82219 0.77813 0.11491 0.0
O482 O 0.80041 0.78122 0.1087 0.0
C483 C 0.73643 0.656 0.12586 0.0
C484 C 0.74677 0.62962 0.15084 0.0
C485 C 0.72858 0.63642 0.13715 0.0
N486 N 0.75824 0.66062 0.13273 0.0
N487 N 0.7644 0.64472 0.14752 0.0
C488 C 0.72296 0.67126 0.11028 0.0
H489 H 0.72848 0.68973 0.11222 0.0
H490 H 0.7039 0.66979 0.1133 0.0
H491 H 0.72672 0.66582 0.09296 0.0
C492 C 0.78791 0.74111 0.16231 0.0
N493 N 0.78982 0.72795 0.14377 0.0
N494 N 0.77556 0.71001 0.14546 0.0
C495 C 0.76375 0.71147 0.16473 0.0
C496 C 0.7714 0.73095 0.17624 0.0
C497 C 0.80339 0.76142 0.16759 0.0
H498 H 0.8216 0.75745 0.16259 0.0
H499 H 0.79741 0.77686 0.15802 0.0
H500 H 0.80296 0.76575 0.18555 0.0
O501 O 0.83287 0.70283 0.12007 0.0
O502 O 0.80968 0.67238 0.12537 0.0
H503 H 0.75402 0.67823 0.17801 0.0
H504 H 0.7347 0.70172 0.18581 0.0
C505 C 0.74547 0.69447 0.17214 0.0
H506 H 0.73378 0.6902 0.15807 0.0
H507 H 0.78053 0.6444 0.15558 0.0
O508 O 0.8293 0.7577 0.11956 0.0
C509 C 0.82998 0.68102 0.12327 0.0
Co510 Co 0.01684 0.05852 0.86806 0.0
Co511 Co 0.06003 0.02632 0.87484 0.0
C512 C 0.03346 0.02644 0.8319 0.0
O513 O 0.01851 0.04126 0.83893 0.0
O514 O 0.05028 0.01963 0.84412 0.0
C515 C 0.96839 0.07222 0.86198 0.0
O516 O 0.96545 0.05148 0.85307 0.0
C517 C 0.08814 0.98373 0.8769 0.0
C518 C 0.1159 0.99426 0.90039 0.0
C519 C 0.1079 0.97569 0.88777 0.0
N520 N 0.08456 0.00599 0.88299 0.0
N521 N 0.10129 0.01226 0.89688 0.0
C522 C 0.07189 0.97023 0.86227 0.0
H523 H 0.05379 0.97689 0.86414 0.0
H524 H 0.07243 0.95132 0.86631 0.0
H525 H 0.07723 0.97263 0.84471 0.0
C526 C 0.00272 0.03489 0.91044 0.0
N527 N 0.01693 0.03752 0.89272 0.0
N528 N 0.0349 0.02339 0.89497 0.0
C529 C 0.03252 0.01103 0.91387 0.0
C530 C 0.01206 0.01787 0.92431 0.0
C531 C 0.98117 0.04906 0.9144 0.0
H532 H 0.96808 0.04478 0.90146 0.0
H533 H 0.97344 0.04546 0.93093 0.0
H534 H 0.9854 0.06792 0.91297 0.0
O535 O 0.04323 0.08112 0.87088 0.0
O536 O 0.07343 0.05775 0.87665 0.0
H537 H 0.04556 0.98696 0.93896 0.0
H538 H 0.05476 0.98117 0.91089 0.0
C539 C 0.0509 0.99513 0.92309 0.0
H540 H 0.06706 0.00528 0.92608 0.0
H541 H 0.10252 0.02873 0.9042 0.0
O542 O 0.98844 0.0781 0.86903 0.0
C543 C 0.06491 0.07812 0.87467 0.0
Co544 Co 0.81111 0.76669 0.61852 0.0
Co545 Co 0.78038 0.8113 0.62402 0.0
C546 C 0.77798 0.78297 0.58254 0.0
O547 O 0.79281 0.76814 0.58983 0.0
O548 O 0.77177 0.80052 0.59414 0.0
C549 C 0.82203 0.71697 0.61553 0.0
O550 O 0.8002 0.71395 0.60944 0.0
C551 C 0.74255 0.84633 0.62521 0.0
C552 C 0.75659 0.87037 0.65072 0.0
C553 C 0.73802 0.86707 0.63636 0.0
N554 N 0.76285 0.83775 0.63285 0.0
N555 N 0.77107 0.85214 0.64813 0.0
C556 C 0.72934 0.83585 0.60623 0.0
H557 H 0.72548 0.81725 0.60994 0.0
H558 H 0.71293 0.84536 0.60264 0.0
H559 H 0.7405 0.83626 0.59119 0.0
C560 C 0.78859 0.75607 0.66246 0.0
N561 N 0.79103 0.76894 0.6438 0.0
N562 N 0.77722 0.78726 0.64515 0.0
C563 C 0.76512 0.78634 0.66427 0.0
C564 C 0.77214 0.7668 0.67609 0.0
C565 C 0.80344 0.73539 0.66806 0.0
H566 H 0.82171 0.73859 0.66276 0.0
H567 H 0.79681 0.71991 0.65895 0.0
H568 H 0.80312 0.73157 0.68612 0.0
O569 O 0.83508 0.79192 0.6197 0.0
O570 O 0.81254 0.82295 0.62397 0.0
H571 H 0.75574 0.81946 0.67804 0.0
H572 H 0.73517 0.79645 0.68393 0.0
C573 C 0.74701 0.80378 0.67111 0.0
H574 H 0.73646 0.80905 0.65652 0.0
H575 H 0.78683 0.84967 0.65652 0.0
O576 O 0.82936 0.73741 0.6198 0.0
C577 C 0.83266 0.81385 0.62226 0.0
Co578 Co 0.48069 0.55912 0.86881 0.0
Co579 Co 0.43751 0.52663 0.87591 0.0
C580 C 0.46368 0.52639 0.83288 0.0
O581 O 0.47851 0.54137 0.83988 0.0
O582 O 0.44692 0.51939 0.84512 0.0
C583 C 0.52948 0.57194 0.86303 0.0
O584 O 0.53244 0.55068 0.85529 0.0
C585 C 0.40155 0.48925 0.87702 0.0
C586 C 0.38587 0.49635 0.9099 0.0
C587 C 0.38484 0.48121 0.89199 0.0
N588 N 0.41237 0.50776 0.88614 0.0
N589 N 0.40261 0.51212 0.90558 0.0
C590 C 0.40563 0.48131 0.85367 0.0
H591 H 0.41023 0.49641 0.84309 0.0
H592 H 0.42036 0.46871 0.85338 0.0
H593 H 0.38982 0.47296 0.84659 0.0
C594 C 0.49485 0.53601 0.9114 0.0
N595 N 0.48058 0.53847 0.8937 0.0
N596 N 0.46335 0.52336 0.89544 0.0
C597 C 0.46686 0.50996 0.91356 0.0
C598 C 0.48668 0.51776 0.92449 0.0
C599 C 0.51547 0.5513 0.91599 0.0
H600 H 0.52968 0.54679 0.90423 0.0
H601 H 0.52209 0.54891 0.93316 0.0
H602 H 0.51069 0.56987 0.91329 0.0
O603 O 0.45473 0.58197 0.87132 0.0
O604 O 0.42468 0.55852 0.87723 0.0
H605 H 0.43741 0.4984 0.93238 0.0
H606 H 0.46043 0.47738 0.93065 0.0
C607 C 0.45084 0.49091 0.92119 0.0
H608 H 0.44233 0.48241 0.9068 0.0
H609 H 0.40757 0.52582 0.916 0.0
O610 O 0.50932 0.57839 0.86928 0.0
C611 C 0.43308 0.57892 0.87503 0.0
Co612 Co 0.68483 0.22706 0.11821 0.0
Co613 Co 0.71677 0.18348 0.12452 0.0
C614 C 0.71811 0.21137 0.08247 0.0
O615 O 0.70314 0.22618 0.08951 0.0
O616 O 0.72446 0.19417 0.09442 0.0
C617 C 0.6726 0.27622 0.11513 0.0
O618 O 0.6945 0.2795 0.10942 0.0
C619 C 0.75853 0.154 0.12597 0.0
C620 C 0.74809 0.1275 0.15079 0.0
C621 C 0.76636 0.13438 0.13721 0.0
N622 N 0.73666 0.15856 0.13272 0.0
N623 N 0.73045 0.14259 0.14743 0.0
C624 C 0.77205 0.16936 0.11052 0.0
H625 H 0.76646 0.18781 0.11249 0.0
H626 H 0.7911 0.16794 0.11366 0.0
H627 H 0.76844 0.16398 0.09316 0.0
C628 C 0.70638 0.23887 0.16234 0.0
N629 N 0.70474 0.2258 0.1437 0.0
N630 N 0.71903 0.20789 0.14548 0.0
C631 C 0.73064 0.2093 0.16486 0.0
C632 C 0.72279 0.22871 0.17639 0.0
C633 C 0.69072 0.25905 0.16758 0.0
H634 H 0.67265 0.25516 0.16208 0.0
H635 H 0.69694 0.27469 0.15844 0.0
H636 H 0.69064 0.26303 0.18561 0.0
O637 O 0.66208 0.20073 0.11946 0.0
O638 O 0.68517 0.17022 0.12487 0.0
H639 H 0.74058 0.17611 0.17813 0.0
H640 H 0.75973 0.19973 0.18597 0.0
C641 C 0.74902 0.19242 0.17228 0.0
H642 H 0.76075 0.18823 0.15823 0.0
H643 H 0.71428 0.14221 0.15539 0.0
O644 O 0.66546 0.25567 0.11923 0.0
C645 C 0.66491 0.1789 0.12257 0.0
Co646 Co 0.01545 0.43431 0.36869 0.0
Co647 Co 0.05834 0.46747 0.37292 0.0
C648 C 0.02876 0.46779 0.33211 0.0
O649 O 0.01578 0.45148 0.33962 0.0
O650 O 0.04573 0.47591 0.3434 0.0
C651 C 0.96688 0.42146 0.36416 0.0
O652 O 0.96426 0.4424 0.35556 0.0
C653 C 0.08686 0.51 0.37489 0.0
C654 C 0.1156 0.49844 0.39684 0.0
C655 C 0.10714 0.51752 0.38521 0.0
N656 N 0.08341 0.48752 0.38036 0.0
N657 N 0.10074 0.48066 0.39331 0.0
C658 C 0.07008 0.52418 0.36144 0.0
H659 H 0.05201 0.51765 0.36389 0.0
H660 H 0.07103 0.54293 0.36605 0.0
H661 H 0.07454 0.52236 0.3436 0.0
C662 C 0.00367 0.45739 0.4119 0.0
N663 N 0.01691 0.45505 0.39349 0.0
N664 N 0.03482 0.46937 0.39491 0.0
C665 C 0.03335 0.48156 0.41401 0.0
C666 C 0.01358 0.47439 0.42542 0.0
C667 C 0.98229 0.44322 0.41662 0.0
H668 H 0.9864 0.42437 0.41482 0.0
H669 H 0.96862 0.44767 0.40429 0.0
H670 H 0.97533 0.44664 0.4335 0.0
O671 O 0.04182 0.41196 0.36995 0.0
O672 O 0.07214 0.4358 0.37252 0.0
H673 H 0.06845 0.48822 0.4242 0.0
H674 H 0.04731 0.50581 0.43847 0.0
C675 C 0.05184 0.49791 0.42224 0.0
H676 H 0.0545 0.51205 0.40994 0.0
H677 H 0.10218 0.46393 0.40004 0.0
O678 O 0.98696 0.41497 0.37062 0.0
C679 C 0.06372 0.41528 0.37151 0.0
Co680 Co 0.81185 0.22712 0.88973 0.0
Co681 Co 0.77936 0.18389 0.88417 0.0
C682 C 0.77917 0.2117 0.92618 0.0
O683 O 0.79419 0.22625 0.91877 0.0
O684 O 0.77229 0.19452 0.91446 0.0
C685 C 0.82417 0.27611 0.89333 0.0
O686 O 0.80251 0.27916 0.89992 0.0
C687 C 0.73757 0.15431 0.88282 0.0
C688 C 0.74799 0.12818 0.85762 0.0
C689 C 0.72973 0.13486 0.87129 0.0
N690 N 0.75943 0.15897 0.87608 0.0
N691 N 0.76563 0.1432 0.86118 0.0
C692 C 0.72406 0.16946 0.89846 0.0
H693 H 0.72983 0.1879 0.89689 0.0
H694 H 0.70503 0.16827 0.89515 0.0
H695 H 0.72747 0.16367 0.91574 0.0
C696 C 0.78918 0.23929 0.84624 0.0
N697 N 0.79123 0.22614 0.86477 0.0
N698 N 0.77673 0.20837 0.86333 0.0
C699 C 0.76462 0.20995 0.84423 0.0
C700 C 0.77231 0.22932 0.83258 0.0
C701 C 0.80481 0.25941 0.8407 0.0
H702 H 0.82305 0.25526 0.84551 0.0
H703 H 0.79913 0.27495 0.85029 0.0
H704 H 0.8042 0.26367 0.82274 0.0
O705 O 0.83452 0.20072 0.88777 0.0
O706 O 0.81088 0.17053 0.88303 0.0
H707 H 0.75424 0.17682 0.83113 0.0
H708 H 0.73509 0.20055 0.82361 0.0
C709 C 0.746 0.19317 0.83713 0.0
H710 H 0.73451 0.18907 0.85137 0.0
H711 H 0.78178 0.14297 0.85316 0.0
O712 O 0.8312 0.25571 0.88847 0.0
C713 C 0.83132 0.17895 0.88469 0.0
Co714 Co 0.01449 0.55967 0.13937 0.0
Co715 Co 0.0565 0.52559 0.13465 0.0
C716 C 0.02775 0.52591 0.17585 0.0
O717 O 0.01504 0.54252 0.1685 0.0
O718 O 0.04431 0.51736 0.16432 0.0
C719 C 0.96617 0.5729 0.14427 0.0
O720 O 0.96348 0.55181 0.15252 0.0
C721 C 0.08512 0.48311 0.13269 0.0
C722 C 0.11293 0.49432 0.10953 0.0
C723 C 0.1051 0.47552 0.12192 0.0
N724 N 0.08122 0.50538 0.12675 0.0
N725 N 0.09799 0.51203 0.11306 0.0
C726 C 0.06906 0.4692 0.14715 0.0
H727 H 0.05078 0.47518 0.14485 0.0
H728 H 0.07035 0.45027 0.14333 0.0
H729 H 0.07392 0.47201 0.16478 0.0
C730 C 0.00186 0.53707 0.09611 0.0
N731 N 0.01516 0.53891 0.11454 0.0
N732 N 0.03264 0.52407 0.11302 0.0
C733 C 0.03077 0.51198 0.09391 0.0
C734 C 0.01124 0.51983 0.0825 0.0
C735 C 0.98109 0.55211 0.09134 0.0
H736 H 0.98585 0.57076 0.09348 0.0
H737 H 0.96709 0.54796 0.10342 0.0
H738 H 0.97424 0.54921 0.07433 0.0
O739 O 0.04117 0.58159 0.13765 0.0
O740 O 0.07083 0.55697 0.13482 0.0
H741 H 0.06533 0.50473 0.08254 0.0
H742 H 0.04355 0.48661 0.06988 0.0
C743 C 0.04881 0.49518 0.08558 0.0
H744 H 0.052 0.48157 0.09829 0.0
H745 H 0.09903 0.52859 0.1059 0.0
O746 O 0.98626 0.5794 0.13787 0.0
C747 C 0.06296 0.5777 0.13582 0.0
Co748 Co 0.68373 0.76638 0.39029 0.0
Co749 Co 0.71603 0.80971 0.38411 0.0
C750 C 0.71621 0.78235 0.4265 0.0
O751 O 0.70135 0.76749 0.41937 0.0
O752 O 0.72287 0.79935 0.41445 0.0
C753 C 0.67086 0.71745 0.39439 0.0
O754 O 0.69238 0.71418 0.4013 0.0
C755 C 0.75816 0.83862 0.38327 0.0
C756 C 0.7484 0.86546 0.35853 0.0
C757 C 0.76639 0.85823 0.37229 0.0
N758 N 0.73632 0.8344 0.37621 0.0
N759 N 0.73052 0.85057 0.36155 0.0
C760 C 0.77126 0.82294 0.39877 0.0
H761 H 0.76529 0.80462 0.39674 0.0
H762 H 0.79035 0.82397 0.39573 0.0
H763 H 0.76767 0.82838 0.41612 0.0
C764 C 0.70631 0.75384 0.34684 0.0
N765 N 0.70432 0.76716 0.36527 0.0
N766 N 0.71865 0.78504 0.36352 0.0
C767 C 0.73057 0.7834 0.34434 0.0
C768 C 0.72294 0.76383 0.33293 0.0
C769 C 0.69077 0.73356 0.34161 0.0
H770 H 0.67248 0.73782 0.34614 0.0
H771 H 0.69634 0.71829 0.35164 0.0
H772 H 0.69158 0.72883 0.32377 0.0
O773 O 0.66114 0.79286 0.3882 0.0
O774 O 0.68456 0.82312 0.38279 0.0
H775 H 0.74024 0.81667 0.33107 0.0
H776 H 0.75948 0.79317 0.32308 0.0
C777 C 0.74881 0.80039 0.33684 0.0
H778 H 0.7606 0.80461 0.35084 0.0
H779 H 0.71445 0.85124 0.35341 0.0
O780 O 0.66419 0.73788 0.38918 0.0
C781 C 0.66419 0.81461 0.38478 0.0
Co782 Co 0.48046 0.43494 0.63937 0.0
Co783 Co 0.4369 0.46673 0.63346 0.0
C784 C 0.46459 0.46726 0.67573 0.0
O785 O 0.47939 0.45243 0.66844 0.0
O786 O 0.44745 0.47391 0.66384 0.0
C787 C 0.5291 0.42191 0.64473 0.0
O788 O 0.53184 0.44275 0.65349 0.0
C789 C 0.40828 0.50894 0.63185 0.0
C790 C 0.37985 0.49788 0.60932 0.0
C791 C 0.38804 0.51663 0.62157 0.0
N792 N 0.41193 0.48668 0.62578 0.0
N793 N 0.39482 0.4801 0.61246 0.0
C794 C 0.42484 0.52274 0.64588 0.0
H795 H 0.44296 0.51631 0.64348 0.0
H796 H 0.42391 0.54162 0.64177 0.0
H797 H 0.42015 0.52037 0.66362 0.0
C798 C 0.49302 0.45806 0.59625 0.0
N799 N 0.47946 0.45565 0.61446 0.0
N800 N 0.46134 0.46963 0.61257 0.0
C801 C 0.46296 0.48168 0.59341 0.0
C802 C 0.48307 0.47477 0.5824 0.0
C803 C 0.51449 0.44392 0.59183 0.0
H804 H 0.52791 0.44828 0.60443 0.0
H805 H 0.52175 0.44745 0.57509 0.0
H806 H 0.51034 0.42506 0.59346 0.0
O807 O 0.45425 0.41201 0.63744 0.0
O808 O 0.42375 0.43516 0.63237 0.0
H809 H 0.44891 0.50533 0.56845 0.0
H810 H 0.44047 0.51132 0.5967 0.0
C811 C 0.44414 0.49727 0.58454 0.0
H812 H 0.42801 0.4869 0.58208 0.0
H813 H 0.39353 0.46355 0.60531 0.0
O814 O 0.50906 0.4157 0.63795 0.0
C815 C 0.43245 0.41486 0.63427 0.0
Co816 Co 0.18291 0.22949 0.38953 0.0
Co817 Co 0.21625 0.18662 0.38654 0.0
C818 C 0.21602 0.2167 0.42682 0.0
O819 O 0.19982 0.22952 0.41883 0.0
O820 O 0.22432 0.19953 0.41596 0.0
C821 C 0.17184 0.2787 0.39082 0.0
O822 O 0.19384 0.2814 0.39649 0.0
C823 C 0.25823 0.15716 0.3859 0.0
C824 C 0.24753 0.1299 0.36192 0.0
C825 C 0.26601 0.13733 0.37495 0.0
N826 N 0.23619 0.16135 0.37942 0.0
N827 N 0.22982 0.14489 0.36528 0.0
C828 C 0.27201 0.17311 0.40059 0.0
H829 H 0.2662 0.19144 0.39824 0.0
H830 H 0.29098 0.17174 0.39706 0.0
H831 H 0.26889 0.16822 0.41817 0.0
C832 C 0.2058 0.23967 0.34573 0.0
N833 N 0.20379 0.22744 0.36483 0.0
N834 N 0.21847 0.20976 0.36425 0.0
C835 C 0.23067 0.21052 0.34515 0.0
C836 C 0.22286 0.22924 0.33261 0.0
C837 C 0.18995 0.25928 0.33917 0.0
H838 H 0.17185 0.2555 0.34464 0.0
H839 H 0.19585 0.27554 0.34748 0.0
H840 H 0.19011 0.26214 0.32095 0.0
O841 O 0.16044 0.20323 0.38827 0.0
O842 O 0.18447 0.17296 0.3865 0.0
H843 H 0.24167 0.1769 0.33375 0.0
H844 H 0.26044 0.2005 0.3251 0.0
C845 C 0.2496 0.1937 0.33893 0.0
H846 H 0.2611 0.19059 0.3534 0.0
H847 H 0.21352 0.14421 0.35755 0.0
O848 O 0.164 0.25829 0.38729 0.0
C849 C 0.16389 0.18131 0.38697 0.0
Co850 Co 0.51708 0.43311 0.13997 0.0
Co851 Co 0.56023 0.46543 0.13368 0.0
C852 C 0.53253 0.46635 0.1759 0.0
O853 O 0.51797 0.45115 0.16882 0.0
O854 O 0.54961 0.47302 0.16394 0.0
C855 C 0.46842 0.42 0.14514 0.0
O856 O 0.46555 0.44108 0.15334 0.0
C857 C 0.58883 0.50771 0.13153 0.0
C858 C 0.61659 0.49668 0.10824 0.0
C859 C 0.60875 0.51541 0.12072 0.0
N860 N 0.585 0.48546 0.12553 0.0
N861 N 0.60172 0.4789 0.11176 0.0
C862 C 0.57269 0.52152 0.146 0.0
H863 H 0.55448 0.51526 0.14391 0.0
H864 H 0.57368 0.54043 0.14202 0.0
H865 H 0.57775 0.51895 0.16362 0.0
C866 C 0.50406 0.45576 0.0967 0.0
N867 N 0.51779 0.45352 0.11482 0.0
N868 N 0.53566 0.46781 0.11285 0.0
C869 C 0.53364 0.47995 0.09378 0.0
C870 C 0.51358 0.47274 0.08289 0.0
C871 C 0.48277 0.44134 0.09236 0.0
H872 H 0.46905 0.44611 0.10454 0.0
H873 H 0.47585 0.44422 0.07537 0.0
H874 H 0.48696 0.42257 0.09468 0.0
O875 O 0.54356 0.41042 0.13819 0.0
O876 O 0.57374 0.43395 0.13301 0.0
H877 H 0.54655 0.50465 0.06922 0.0
H878 H 0.55555 0.50997 0.09744 0.0
C879 C 0.55191 0.49622 0.08497 0.0
H880 H 0.56819 0.48629 0.08188 0.0
H881 H 0.60279 0.46236 0.10454 0.0
O882 O 0.48858 0.41362 0.1388 0.0
C883 C 0.56534 0.41354 0.13504 0.0
Co884 Co 0.3121 0.76396 0.89081 0.0
Co885 Co 0.27855 0.80663 0.88735 0.0
C886 C 0.27826 0.77637 0.92753 0.0
O887 O 0.29472 0.76366 0.91987 0.0
O888 O 0.27007 0.79348 0.91651 0.0
C889 C 0.32408 0.71504 0.89316 0.0
O890 O 0.30233 0.71221 0.89957 0.0
C891 C 0.23634 0.83565 0.88658 0.0
C892 C 0.24703 0.86346 0.86319 0.0
C893 C 0.22852 0.85567 0.87599 0.0
N894 N 0.25845 0.83172 0.88015 0.0
N895 N 0.2648 0.84848 0.86633 0.0
C896 C 0.22261 0.81935 0.90096 0.0
H897 H 0.22847 0.80109 0.89824 0.0
H898 H 0.20364 0.82073 0.89745 0.0
H899 H 0.22572 0.82385 0.91863 0.0
C900 C 0.28991 0.75361 0.84672 0.0
N901 N 0.29162 0.76592 0.8658 0.0
N902 N 0.27697 0.78361 0.86493 0.0
C903 C 0.26514 0.78284 0.84562 0.0
C904 C 0.27313 0.76405 0.83328 0.0
C905 C 0.30572 0.73382 0.8406 0.0
H906 H 0.32387 0.73785 0.84576 0.0
H907 H 0.30002 0.71786 0.84954 0.0
H908 H 0.30534 0.73031 0.82249 0.0
O909 O 0.3343 0.79045 0.89005 0.0
O910 O 0.31013 0.82059 0.88804 0.0
H911 H 0.25445 0.81652 0.83414 0.0
H912 H 0.23586 0.79298 0.82497 0.0
C913 C 0.24638 0.7997 0.83906 0.0
H914 H 0.23453 0.80276 0.85328 0.0
H915 H 0.28116 0.84945 0.85874 0.0
O916 O 0.33144 0.73544 0.88873 0.0
C917 C 0.33074 0.81236 0.88886 0.0
Co918 Co 0.9777 0.5603 0.63955 0.0
Co919 Co 0.93478 0.52766 0.63287 0.0
C920 C 0.96186 0.52738 0.67548 0.0
O921 O 0.97644 0.54255 0.66843 0.0
O922 O 0.94497 0.52046 0.6634 0.0
C923 C 0.02604 0.57385 0.6458 0.0
O924 O 0.02875 0.55302 0.65458 0.0
C925 C 0.90627 0.48525 0.63077 0.0
C926 C 0.87897 0.49591 0.60684 0.0
C927 C 0.88652 0.47739 0.61976 0.0
N928 N 0.91026 0.50739 0.62449 0.0
N929 N 0.89382 0.51372 0.61031 0.0
C930 C 0.92205 0.4717 0.64581 0.0
H931 H 0.94033 0.47783 0.64389 0.0
H932 H 0.92105 0.45271 0.64221 0.0
H933 H 0.91668 0.47472 0.66328 0.0
C934 C 0.99176 0.53717 0.59691 0.0
N935 N 0.97755 0.53962 0.61465 0.0
N936 N 0.95974 0.52529 0.61244 0.0
C937 C 0.96224 0.51297 0.59353 0.0
C938 C 0.98259 0.52007 0.58303 0.0
C939 C 0.01328 0.55142 0.59306 0.0
H940 H 0.00903 0.57025 0.59467 0.0
H941 H 0.0264 0.54701 0.60594 0.0
H942 H 0.021 0.548 0.57649 0.0
O943 O 0.95108 0.58273 0.6373 0.0
O944 O 0.92108 0.55905 0.63181 0.0
H945 H 0.92793 0.50655 0.58105 0.0
H946 H 0.94979 0.48813 0.56885 0.0
C947 C 0.94415 0.49664 0.58447 0.0
H948 H 0.94026 0.48296 0.59694 0.0
H949 H 0.8929 0.53014 0.60284 0.0
O950 O 0.00608 0.57995 0.63868 0.0
C951 C 0.92937 0.5795 0.63389 0.0
Co952 Co 0.1837 0.76278 0.11903 0.0
Co953 Co 0.21716 0.80532 0.1238 0.0
C954 C 0.21816 0.77654 0.08292 0.0
O955 O 0.20151 0.76377 0.09016 0.0
O956 O 0.22645 0.79329 0.09442 0.0
C957 C 0.1715 0.71366 0.1154 0.0
O958 O 0.19305 0.71048 0.10854 0.0
C959 C 0.25515 0.84036 0.12468 0.0
C960 C 0.24199 0.86324 0.15156 0.0
C961 C 0.25993 0.86072 0.13637 0.0
N962 N 0.23532 0.83123 0.13285 0.0
N963 N 0.22762 0.84495 0.1489 0.0
C964 C 0.26754 0.83091 0.10472 0.0
H965 H 0.27399 0.81305 0.10845 0.0
H966 H 0.2823 0.84216 0.09951 0.0
H967 H 0.25501 0.82947 0.09075 0.0
C968 C 0.20621 0.75088 0.1626 0.0
N969 N 0.20413 0.76403 0.1441 0.0
N970 N 0.21912 0.78141 0.14525 0.0
C971 C 0.23181 0.77939 0.16398 0.0
C972 C 0.22394 0.76011 0.17571 0.0
C973 C 0.19107 0.73032 0.16787 0.0
H974 H 0.17252 0.7347 0.16454 0.0
H975 H 0.19603 0.71556 0.15692 0.0
H976 H 0.19311 0.72466 0.18538 0.0
O977 O 0.16093 0.78877 0.12042 0.0
O978 O 0.18532 0.81856 0.123 0.0
H979 H 0.24072 0.81222 0.17851 0.0
H980 H 0.26136 0.78951 0.18439 0.0
C981 C 0.24971 0.79677 0.17144 0.0
H982 H 0.26047 0.80242 0.15712 0.0
H983 H 0.21222 0.84202 0.15775 0.0
O984 O 0.16464 0.73409 0.12038 0.0
C985 C 0.16465 0.81059 0.12202 0.0
Co986 Co 0.97858 0.43397 0.8678 0.0
Co987 Co 0.93524 0.46605 0.87481 0.0
C988 C 0.96186 0.46643 0.8319 0.0
O989 O 0.97681 0.45155 0.83881 0.0
O990 O 0.94504 0.47311 0.84419 0.0
C991 C 0.02713 0.42081 0.86133 0.0
O992 O 0.02965 0.4416 0.85241 0.0
C993 C 0.90667 0.50839 0.87688 0.0
C994 C 0.87893 0.49754 0.90026 0.0
C995 C 0.88669 0.51617 0.88758 0.0
N996 N 0.91055 0.4862 0.88308 0.0
N997 N 0.89385 0.47976 0.89693 0.0
C998 C 0.92276 0.52203 0.86223 0.0
H999 H 0.94096 0.51569 0.86424 0.0
H1000 H 0.92189 0.54096 0.86612 0.0
H1001 H 0.91757 0.51938 0.84466 0.0
C1002 C 0.99248 0.45721 0.91045 0.0
N1003 N 0.97833 0.45474 0.89267 0.0
N1004 N 0.96032 0.4688 0.89501 0.0
C1005 C 0.9626 0.48094 0.91406 0.0
C1006 C 0.98304 0.47402 0.9245 0.0
C1007 C 0.01407 0.44306 0.91428 0.0
H1008 H 0.00987 0.4242 0.9128 0.0
H1009 H 0.0271 0.4474 0.90131 0.0
H1010 H 0.02187 0.44661 0.9308 0.0
O1011 O 0.95223 0.41121 0.87036 0.0
O1012 O 0.92199 0.43453 0.87617 0.0
H1013 H 0.92805 0.48635 0.92638 0.0
H1014 H 0.94945 0.50482 0.93926 0.0
C1015 C 0.94412 0.49665 0.92338 0.0
H1016 H 0.94008 0.51061 0.91122 0.0
H1017 H 0.89279 0.46329 0.90427 0.0
O1018 O 0.00724 0.41463 0.86857 0.0
C1019 C 0.93052 0.41417 0.87404 0.0
Co1020 Co 0.31001 0.23075 0.61896 0.0
Co1021 Co 0.27552 0.18893 0.62314 0.0
C1022 C 0.27645 0.21815 0.58215 0.0
O1023 O 0.29307 0.23069 0.58973 0.0
O1024 O 0.26774 0.20151 0.59348 0.0
C1025 C 0.3237 0.27893 0.61428 0.0
O1026 O 0.30271 0.28171 0.60586 0.0
C1027 C 0.23238 0.16135 0.62437 0.0
C1028 C 0.24268 0.13269 0.64698 0.0
C1029 C 0.22417 0.14132 0.63466 0.0
N1030 N 0.2547 0.16449 0.63051 0.0
N1031 N 0.26081 0.14723 0.64388 0.0
C1032 C 0.219 0.17813 0.61021 0.0
H1033 H 0.22549 0.19618 0.61289 0.0
H1034 H 0.20003 0.1773 0.61395 0.0
H1035 H 0.22171 0.17358 0.59249 0.0
C1036 C 0.28731 0.24312 0.66222 0.0
N1037 N 0.28907 0.23002 0.64366 0.0
N1038 N 0.2741 0.21264 0.64497 0.0
C1039 C 0.26201 0.21438 0.6641 0.0
C1040 C 0.26998 0.23372 0.67571 0.0
C1041 C 0.30255 0.26368 0.66726 0.0
H1042 H 0.32116 0.25869 0.66526 0.0
H1043 H 0.29871 0.27781 0.65521 0.0
H1044 H 0.29956 0.27045 0.68428 0.0
O1045 O 0.33157 0.20376 0.62059 0.0
O1046 O 0.30679 0.1742 0.62319 0.0
H1047 H 0.2545 0.17966 0.6749 0.0
H1048 H 0.23674 0.20141 0.68811 0.0
C1049 C 0.24511 0.19635 0.67225 0.0
H1050 H 0.23135 0.19356 0.6596 0.0
H1051 H 0.27728 0.14556 0.6511 0.0
O1052 O 0.33002 0.2588 0.62079 0.0
C1053 C 0.32756 0.18198 0.62232 0.0
Co1054 Co 0.51461 0.56157 0.36795 0.0
Co1055 Co 0.55747 0.52881 0.37492 0.0
C1056 C 0.53146 0.52945 0.33169 0.0
O1057 O 0.51644 0.54424 0.33871 0.0
O1058 O 0.54816 0.52253 0.344 0.0
C1059 C 0.46605 0.57525 0.36206 0.0
O1060 O 0.46301 0.55429 0.35365 0.0
C1061 C 0.5892 0.48852 0.37434 0.0
C1062 C 0.61169 0.49631 0.40327 0.0
C1063 C 0.60789 0.48019 0.38657 0.0
N1064 N 0.58209 0.50866 0.38353 0.0
N1065 N 0.5957 0.51331 0.40071 0.0
C1066 C 0.57774 0.4772 0.35479 0.0
H1067 H 0.5585 0.47916 0.35602 0.0
H1068 H 0.58231 0.45839 0.35371 0.0
H1069 H 0.58362 0.48609 0.33941 0.0
C1070 C 0.50027 0.53817 0.41043 0.0
N1071 N 0.51443 0.54051 0.39263 0.0
N1072 N 0.53189 0.5257 0.39459 0.0
C1073 C 0.52895 0.5129 0.41317 0.0
C1074 C 0.50895 0.52049 0.42397 0.0
C1075 C 0.47946 0.55327 0.41484 0.0
H1076 H 0.46572 0.54922 0.40246 0.0
H1077 H 0.47223 0.5503 0.43169 0.0
H1078 H 0.48434 0.57192 0.41288 0.0
O1079 O 0.54112 0.58404 0.37091 0.0
O1080 O 0.57091 0.56027 0.37705 0.0
H1081 H 0.53867 0.48386 0.43445 0.0
H1082 H 0.55292 0.48465 0.40786 0.0
C1083 C 0.54632 0.49552 0.42171 0.0
H1084 H 0.56112 0.50499 0.42941 0.0
H1085 H 0.59403 0.5281 0.4107 0.0
O1086 O 0.4862 0.58128 0.36874 0.0
C1087 C 0.5627 0.58075 0.37495 0.0
H1088 H 0.27452 0.29284 0.21198 0.0
H1089 H 0.22281 0.19921 0.29762 0.0
H1090 H 0.25703 0.22224 0.1936 0.0
H1091 H 0.23713 0.27086 0.31484 0.0
H1092 H 0.23587 0.20697 0.25966 0.0
H1093 H 0.26222 0.28468 0.25004 0.0
C1094 C 0.2681 0.27556 0.21606 0.0
C1095 C 0.26649 0.25823 0.19969 0.0
C1096 C 0.23615 0.22104 0.27168 0.0
C1097 C 0.25243 0.24869 0.24318 0.0
C1098 C 0.22872 0.21661 0.29332 0.0
C1099 C 0.22913 0.23441 0.30931 0.0
C1100 C 0.24403 0.24347 0.26597 0.0
C1101 C 0.23657 0.25671 0.30292 0.0
C1102 C 0.26108 0.27091 0.23776 0.0
C1103 C 0.25847 0.23604 0.20581 0.0
N1104 N 0.24384 0.2606 0.28173 0.0
N1105 N 0.2516 0.23191 0.22709 0.0
H1106 H 0.00958 0.94501 0.54654 0.0
H1107 H 0.98706 0.04936 0.46016 0.0
H1108 H 0.00365 0.01723 0.56579 0.0
H1109 H 0.99458 0.97731 0.4408 0.0
H1110 H 0.9935 0.0381 0.49897 0.0
H1111 H 0.00305 0.9563 0.50776 0.0
C1112 C 0.00648 0.9632 0.54256 0.0
C1113 C 0.00697 0.98025 0.55922 0.0
C1114 C 0.99393 0.02474 0.48624 0.0
C1115 C 7e-05 0.99342 0.51504 0.0
C1116 C 0.99049 0.03122 0.46413 0.0
C1117 C 0.99048 0.01421 0.44742 0.0
C1118 C -0.00274 0.00106 0.49163 0.0
C1119 C 0.99457 0.99089 0.45332 0.0
C1120 C 0.003 0.96969 0.52045 0.0
C1121 C 0.00329 0.00363 0.5533 0.0
N1122 N -0.0023 0.98496 0.47496 0.0
N1123 N 8e-05 0.00956 0.53167 0.0
H1124 H 0.27412 0.7938 0.79811 0.0
H1125 H 0.2207 0.70076 0.71282 0.0
H1126 H 0.25849 0.72251 0.81561 0.0
H1127 H 0.23917 0.77106 0.69424 0.0
H1128 H 0.23342 0.70878 0.75079 0.0
H1129 H 0.26112 0.78606 0.76012 0.0
C1130 C 0.26797 0.77647 0.79385 0.0
C1131 C 0.26716 0.75877 0.80994 0.0
C1132 C 0.23468 0.72251 0.73848 0.0
C1133 C 0.25227 0.74975 0.76658 0.0
C1134 C 0.22742 0.71795 0.71683 0.0
C1135 C 0.22916 0.73525 0.70044 0.0
C1136 C 0.24371 0.7446 0.74382 0.0
C1137 C 0.23759 0.7573 0.70648 0.0
C1138 C 0.26056 0.77206 0.7722 0.0
C1139 C 0.25938 0.73657 0.80362 0.0
N1140 N 0.24469 0.76134 0.72771 0.0
N1141 N 0.25211 0.7327 0.78242 0.0
H1142 H 0.52151 0.00954 0.06509 0.0
H1143 H 0.47131 0.98478 0.94269 0.0
H1144 H 0.44958 0.01996 0.04647 0.0
H1145 H 0.54332 0.97452 0.9611 0.0
H1146 H 0.46278 0.99714 0.98087 0.0
H1147 H 0.53008 0.99696 0.02697 0.0
C1148 C 0.50759 0.00927 0.05291 0.0
C1149 C 0.48481 0.01557 0.05889 0.0
C1150 C 0.48046 0.99218 0.97657 0.0
C1151 C 0.49429 0.00107 0.01544 0.0
C1152 C 0.48526 0.98503 0.95485 0.0
C1153 C 0.50805 0.97886 0.94879 0.0
C1154 C 0.49861 0.99309 0.99232 0.0
C1155 C 0.52557 0.97951 0.96507 0.0
C1156 C 0.51241 0.00198 0.03122 0.0
C1157 C 0.46732 0.01485 0.04258 0.0
N1158 N 0.52051 0.98657 0.98606 0.0
N1159 N 0.4724 0.00768 0.02164 0.0
H1160 H 0.26612 0.74554 0.19129 0.0
H1161 H 0.22613 0.7484 0.31888 0.0
H1162 H 0.19614 0.76205 0.21228 0.0
H1163 H 0.29684 0.73528 0.29794 0.0
H1164 H 0.21473 0.75382 0.27997 0.0
H1165 H 0.27757 0.74077 0.23026 0.0
C1166 C 0.25314 0.74785 0.20419 0.0
C1167 C 0.2302 0.75408 0.19876 0.0
C1168 C 0.2328 0.74999 0.28384 0.0
C1169 C 0.24308 0.74904 0.24323 0.0
C1170 C 0.23929 0.74708 0.30601 0.0
C1171 C 0.26242 0.7416 0.31143 0.0
C1172 C 0.24959 0.74722 0.26702 0.0
C1173 C 0.27886 0.73976 0.29431 0.0
C1174 C 0.25967 0.74529 0.22639 0.0
C1175 C 0.21397 0.75701 0.21592 0.0
N1176 N 0.27211 0.74244 0.27282 0.0
N1177 N 0.22073 0.75455 0.23743 0.0
H1178 H 0.49614 0.01687 0.4399 0.0
H1179 H 0.49682 0.97787 0.56788 0.0
H1180 H 0.48315 0.94637 0.4616 0.0
H1181 H 0.51144 0.04798 0.54597 0.0
H1182 H 0.49124 0.96599 0.5291 0.0
H1183 H 0.50242 0.02856 0.47861 0.0
C1184 C 0.49497 0.00382 0.45289 0.0
C1185 C 0.48928 0.98066 0.44771 0.0
C1186 C 0.49553 0.98401 0.53273 0.0
C1187 C 0.49598 0.99383 0.49195 0.0
C1188 C 0.49859 0.99077 0.55482 0.0
C1189 C 0.50449 0.01389 0.55996 0.0
C1190 C 0.49845 0.00053 0.51568 0.0
C1191 C 0.50668 0.03002 0.54259 0.0
C1192 C 0.49839 0.01048 0.47495 0.0
C1193 C 0.48775 0.96437 0.465 0.0
N1194 N 0.50374 0.02302 0.5212 0.0
N1195 N 0.49096 0.97128 0.4864 0.0
H1196 H 0.29887 0.2337 0.71164 0.0
H1197 H 0.19554 0.25975 0.79821 0.0
H1198 H 0.2276 0.24641 0.69223 0.0
H1199 H 0.26667 0.2466 0.81781 0.0
H1200 H 0.20672 0.25406 0.75929 0.0
H1201 H 0.28767 0.23894 0.75064 0.0
C1202 C 0.28093 0.23799 0.71566 0.0
C1203 C 0.26411 0.23979 0.69887 0.0
C1204 C 0.21989 0.25223 0.77207 0.0
C1205 C 0.25101 0.24527 0.74327 0.0
C1206 C 0.21344 0.25526 0.79425 0.0
C1207 C 0.23024 0.25352 0.81106 0.0
C1208 C 0.24333 0.24754 0.76673 0.0
C1209 C 0.25327 0.24804 0.80519 0.0
C1210 C 0.27448 0.24075 0.73787 0.0
C1211 C 0.24103 0.24497 0.70481 0.0
N1212 N 0.25919 0.24535 0.78349 0.0
N1213 N 0.23512 0.24745 0.72654 0.0
H1214 H 0.00025 0.97484 0.93977 0.0
H1215 H 0.99531 0.01624 0.06692 0.0
H1216 H 0.00896 0.04635 0.96042 0.0
H1217 H 0.98596 0.94483 0.04625 0.0
H1218 H 0.00095 0.02762 0.02804 0.0
H1219 H 0.99424 0.9635 0.97861 0.0
C1220 C 0.00049 0.98816 0.95255 0.0
C1221 C 0.00493 0.01152 0.94706 0.0
C1222 C -0.00215 0.00942 0.03196 0.0
C1223 C -0.00143 -0.00122 0.99142 0.0
C1224 C 0.99482 0.00295 0.05412 0.0
C1225 C 0.99034 0.97961 0.05962 0.0
C1226 C 0.99631 0.99239 0.01522 0.0
C1227 C 0.98964 0.96298 0.04258 0.0
C1228 C 0.99725 0.98172 0.97468 0.0
C1229 C 0.00532 0.02819 0.96408 0.0
N1230 N 0.99248 0.9697 0.0211 0.0
N1231 N 0.00232 0.02148 0.98554 0.0
H1232 H 0.7215 0.70195 0.79663 0.0
H1233 H 0.77375 0.79591 0.71168 0.0
H1234 H 0.73821 0.77277 0.81497 0.0
H1235 H 0.75665 0.72524 0.69314 0.0
H1236 H 0.76097 0.78774 0.74959 0.0
H1237 H 0.73386 0.7102 0.75859 0.0
C1238 C 0.72779 0.71928 0.79256 0.0
C1239 C 0.72911 0.73668 0.80889 0.0
C1240 C 0.76 0.77397 0.73729 0.0
C1241 C 0.74321 0.7463 0.76544 0.0
C1242 C 0.76725 0.77864 0.71566 0.0
C1243 C 0.766 0.76124 0.69932 0.0
C1244 C 0.75145 0.7517 0.74265 0.0
C1245 C 0.75788 0.73907 0.70535 0.0
C1246 C 0.73482 0.72398 0.77086 0.0
C1247 C 0.73697 0.75892 0.80278 0.0
N1248 N 0.75081 0.73493 0.72655 0.0
N1249 N 0.74385 0.76309 0.78152 0.0
H1250 H 0.75801 0.22028 0.31605 0.0
H1251 H 0.73681 0.27085 0.19321 0.0
H1252 H 0.76987 0.29205 0.29762 0.0
H1253 H 0.72134 0.19997 0.21232 0.0
H1254 H 0.74885 0.27913 0.23153 0.0
H1255 H 0.74535 0.21206 0.27785 0.0
C1256 C 0.75804 0.23422 0.30389 0.0
C1257 C 0.76473 0.25687 0.30992 0.0
C1258 C 0.74278 0.26176 0.22736 0.0
C1259 C 0.75021 0.24783 0.26645 0.0
C1260 C 0.7358 0.25713 0.20556 0.0
C1261 C 0.72833 0.23469 0.19968 0.0
C1262 C 0.74223 0.24379 0.24332 0.0
C1263 C 0.72737 0.21742 0.21619 0.0
C1264 C 0.75071 0.22962 0.28217 0.0
C1265 C 0.76443 0.27443 0.29367 0.0
N1266 N 0.73434 0.22229 0.23724 0.0
N1267 N 0.75725 0.26956 0.2727 0.0
H1268 H 0.73788 0.22039 0.69283 0.0
H1269 H 0.75728 0.27118 0.81588 0.0
H1270 H 0.72102 0.29092 0.71203 0.0
H1271 H 0.77386 0.20056 0.79674 0.0
H1272 H 0.74443 0.27909 0.77769 0.0
H1273 H 0.75057 0.21243 0.73106 0.0
C1274 C 0.73669 0.23409 0.70519 0.0
C1275 C 0.72865 0.25635 0.69938 0.0
C1276 C 0.75091 0.26186 0.78183 0.0
C1277 C 0.74327 0.24764 0.74286 0.0
C1278 C 0.75836 0.25745 0.80354 0.0
C1279 C 0.76639 0.23519 0.80936 0.0
C1280 C 0.7516 0.24385 0.76592 0.0
C1281 C 0.76745 0.21789 0.79289 0.0
C1282 C 0.74405 0.22965 0.72693 0.0
C1283 C 0.72746 0.2736 0.71588 0.0
N1284 N 0.76005 0.22254 0.77194 0.0
N1285 N 0.73478 0.26893 0.73685 0.0
H1286 H 0.73853 0.72214 0.31634 0.0
H1287 H 0.75601 0.77267 0.19293 0.0
H1288 H 0.72023 0.79225 0.29692 0.0
H1289 H 0.77383 0.70238 0.21217 0.0
H1290 H 0.74345 0.78055 0.2312 0.0
H1291 H 0.75109 0.71422 0.27806 0.0
C1292 C 0.737 0.73575 0.30391 0.0
C1293 C 0.72858 0.75788 0.30967 0.0
C1294 C 0.75014 0.7634 0.22707 0.0
C1295 C 0.74304 0.74922 0.26614 0.0
C1296 C 0.75743 0.75901 0.20531 0.0
C1297 C 0.76572 0.73684 0.1995 0.0
C1298 C 0.75125 0.74546 0.24304 0.0
C1299 C 0.76721 0.71963 0.21602 0.0
C1300 C 0.74428 0.73133 0.28216 0.0
C1301 C 0.72695 0.77502 0.2931 0.0
N1302 N 0.75996 0.72426 0.23702 0.0
N1303 N 0.73421 0.77038 0.27211 0.0
H1304 H 0.50269 0.47583 0.93974 0.0
H1305 H 0.50048 0.51541 0.06751 0.0
H1306 H 0.48503 0.54541 0.96114 0.0
H1307 H 0.5127 0.44456 0.04644 0.0
H1308 H 0.49504 0.52693 0.02863 0.0
H1309 H 0.50802 0.46431 0.97865 0.0
C1310 C 0.50024 0.48872 0.95271 0.0
C1311 C 0.49349 0.51155 0.9474 0.0
C1312 C 0.49869 0.50881 0.03247 0.0
C1313 C 0.49922 0.4986 0.99181 0.0
C1314 C 0.50161 0.50225 0.05462 0.0
C1315 C 0.50684 0.47904 0.06001 0.0
C1316 C 0.5012 0.49201 0.0156 0.0
C1317 C 0.50843 0.4626 0.04285 0.0
C1318 C 0.50314 0.48215 0.97487 0.0
C1319 C 0.49047 0.52768 0.96466 0.0
N1320 N 0.50575 0.46942 0.02137 0.0
N1321 N 0.49326 0.52087 0.98612 0.0
H1322 H 0.99482 0.47697 0.56797 0.0
H1323 H 0.00251 0.5177 0.44073 0.0
H1324 H 0.98607 0.5483 0.54677 0.0
H1325 H 0.01093 0.44632 0.46188 0.0
H1326 H 0.99632 0.52933 0.47947 0.0
H1327 H 0.00179 0.46546 0.52932 0.0
C1328 C 0.99473 0.49021 0.55511 0.0
C1329 C 0.99001 0.51357 0.56039 0.0
C1330 C -0.00063 0.51109 0.47568 0.0
C1331 C -0.00248 0.50063 0.51624 0.0
C1332 C 0.00275 0.50448 0.4536 0.0
C1333 C 0.00707 0.48106 0.44828 0.0
C1334 C 0.0004 0.49413 0.49252 0.0
C1335 C 0.00739 0.46453 0.46541 0.0
C1336 C -0.00146 0.48367 0.53309 0.0
C1337 C 0.98988 0.53013 0.54328 0.0
N1338 N 0.00419 0.47138 0.48681 0.0
N1339 N 0.99346 0.52333 0.52192 0.0
H1340 H 0.01032 0.5488 0.04663 0.0
H1341 H 0.98644 0.4449 0.96009 0.0
H1342 H -0.00105 0.47728 0.06606 0.0
H1343 H 0.9944 0.5169 0.94076 0.0
H1344 H 0.99265 0.45614 0.99893 0.0
H1345 H 0.00472 0.53759 0.00769 0.0
C1346 C 0.00625 0.5308 0.04264 0.0
C1347 C 0.00494 0.51391 0.05941 0.0
C1348 C 0.99323 0.46949 0.98621 0.0
C1349 C -0.00093 0.50081 0.01507 0.0
C1350 C 0.98994 0.46302 0.96407 0.0
C1351 C 0.99007 0.48004 0.94737 0.0
C1352 C 0.99662 0.49315 0.99162 0.0
C1353 C 0.99427 0.50333 0.95328 0.0
C1354 C 0.00327 0.52435 0.02045 0.0
C1355 C 2e-05 0.49076 0.05349 0.0
N1356 N -0.00272 0.50925 0.97495 0.0
N1357 N -0.00263 0.48485 0.03178 0.0
H1358 H 0.50887 0.54939 0.45983 0.0
H1359 H 0.48525 0.4457 0.54666 0.0
H1360 H 0.49508 0.47832 0.44037 0.0
H1361 H 0.49397 0.51765 0.56585 0.0
H1362 H 0.49034 0.45699 0.50766 0.0
H1363 H 0.50346 0.53825 0.4988 0.0
C1364 C 0.50427 0.53152 0.46382 0.0
C1365 C 0.5023 0.51472 0.44702 0.0
C1366 C 0.49132 0.47032 0.52038 0.0
C1367 C 0.49669 0.50166 0.49143 0.0
C1368 C 0.48867 0.46382 0.5426 0.0
C1369 C 0.48938 0.4808 0.55932 0.0
C1370 C 0.49467 0.49398 0.51492 0.0
C1371 C 0.49343 0.50409 0.55332 0.0
C1372 C 0.50142 0.52509 0.48603 0.0
C1373 C 0.49671 0.49172 0.45296 0.0
N1374 N 0.49585 0.51003 0.53159 0.0
N1375 N 0.49424 0.48581 0.47469 0.0
H1376 H 0.31124 0.17031 0.11296 0.0
H1377 H 0.44187 0.12807 0.13903 0.0
H1378 H 0.36855 0.21748 0.12567 0.0
H1379 H 0.38351 0.08096 0.13121 0.0
H1380 H 0.4153 0.16108 0.13405 0.0
H1381 H 0.33758 0.13729 0.11907 0.0
C1382 C 0.32936 0.17374 0.11697 0.0
C1383 C 0.33769 0.19671 0.11877 0.0
C1384 C 0.40831 0.14352 0.13351 0.0
C1385 C 0.36793 0.159 0.12586 0.0
C1386 C 0.42347 0.12464 0.13639 0.0
C1387 C 0.41495 0.10167 0.13553 0.0
C1388 C 0.38445 0.13941 0.12964 0.0
C1389 C 0.39091 0.09835 0.13203 0.0
C1390 C 0.34439 0.15488 0.12052 0.0
C1391 C 0.36134 0.20008 0.12409 0.0
N1392 N 0.37654 0.11699 0.12914 0.0
N1393 N 0.37561 0.18145 0.12742 0.0
H1394 H 0.07521 0.06297 0.35643 0.0
H1395 H 0.11719 0.19178 0.38972 0.0
H1396 H 0.02818 0.11811 0.37631 0.0
H1397 H 0.16459 0.13422 0.37876 0.0
H1398 H 0.08433 0.16528 0.38386 0.0
H1399 H 0.10823 0.08918 0.36315 0.0
C1400 C 0.07181 0.0806 0.36212 0.0
C1401 C 0.04888 0.08835 0.36578 0.0
C1402 C 0.10192 0.15843 0.38282 0.0
C1403 C 0.08657 0.11841 0.37355 0.0
C1404 C 0.12071 0.17356 0.38619 0.0
C1405 C 0.14373 0.16525 0.38473 0.0
C1406 C 0.10613 0.13482 0.37782 0.0
C1407 C 0.14717 0.14143 0.38009 0.0
C1408 C 0.09067 0.09553 0.36604 0.0
C1409 C 0.04555 0.11136 0.37326 0.0
N1410 N 0.12859 0.1271 0.37671 0.0
N1411 N 0.06416 0.12556 0.37686 0.0
H1412 H 0.11309 0.91526 0.62438 0.0
H1413 H 0.12629 0.77622 0.62834 0.0
H1414 H 0.05567 0.86839 0.63784 0.0
H1415 H 0.18212 0.82292 0.60955 0.0
H1416 H 0.10048 0.80977 0.63294 0.0
H1417 H 0.13886 0.88169 0.62012 0.0
C1418 C 0.10587 0.89791 0.62651 0.0
C1419 C 0.08211 0.89468 0.63148 0.0
C1420 C 0.11835 0.8127 0.62778 0.0
C1421 C 0.11167 0.85607 0.62656 0.0
C1422 C 0.13314 0.79354 0.62514 0.0
C1423 C 0.15644 0.79675 0.61851 0.0
C1424 C 0.1269 0.8353 0.62384 0.0
C1425 C 0.16429 0.81961 0.61464 0.0
C1426 C 0.12063 0.87873 0.62402 0.0
C1427 C 0.07383 0.87175 0.63399 0.0
N1428 N 0.14956 0.83801 0.61739 0.0
N1429 N 0.0886 0.85332 0.63151 0.0
H1430 H 0.41896 0.93273 0.8649 0.0
H1431 H 0.37745 0.80185 0.89078 0.0
H1432 H 0.46625 0.87529 0.87676 0.0
H1433 H 0.32987 0.85983 0.88288 0.0
H1434 H 0.41021 0.82864 0.88586 0.0
H1435 H 0.38601 0.90634 0.87126 0.0
C1436 C 0.42243 0.91458 0.86879 0.0
C1437 C 0.44541 0.90621 0.87025 0.0
C1438 C 0.3926 0.83552 0.88529 0.0
C1439 C 0.40781 0.87595 0.87761 0.0
C1440 C 0.37387 0.82022 0.88813 0.0
C1441 C 0.35084 0.82855 0.88721 0.0
C1442 C 0.38832 0.85935 0.88141 0.0
C1443 C 0.34731 0.85258 0.88372 0.0
C1444 C 0.40361 0.89953 0.87247 0.0
C1445 C 0.44884 0.88253 0.87542 0.0
N1446 N 0.36584 0.8671 0.88087 0.0
N1447 N 0.43027 0.86825 0.87888 0.0
H1448 H 0.38262 0.91721 0.38194 0.0
H1449 H 0.36762 0.77823 0.38152 0.0
H1450 H 0.43915 0.86901 0.36941 0.0
H1451 H 0.31321 0.82575 0.40211 0.0
H1452 H 0.39349 0.81142 0.37535 0.0
H1453 H 0.35635 0.8841 0.38743 0.0
C1454 C 0.38952 0.89968 0.38022 0.0
C1455 C 0.41319 0.89592 0.37521 0.0
C1456 C 0.37592 0.81462 0.38126 0.0
C1457 C 0.38314 0.85791 0.38157 0.0
C1458 C 0.3611 0.79565 0.3848 0.0
C1459 C 0.33819 0.79919 0.39239 0.0
C1460 C 0.36779 0.83737 0.38523 0.0
C1461 C 0.33075 0.82219 0.39632 0.0
C1462 C 0.3745 0.88078 0.38345 0.0
C1463 C 0.42108 0.87278 0.37327 0.0
N1464 N 0.3455 0.84042 0.39265 0.0
N1465 N 0.4061 0.85468 0.37646 0.0
H1466 H 0.32582 0.13482 0.63021 0.0
H1467 H 0.46467 0.11914 0.62982 0.0
H1468 H 0.37443 0.19134 0.61914 0.0
H1469 H 0.41689 0.0642 0.64855 0.0
H1470 H 0.43161 0.14524 0.62408 0.0
H1471 H 0.35873 0.10813 0.63497 0.0
C1472 C 0.3434 0.14163 0.62867 0.0
C1473 C 0.34734 0.16542 0.62428 0.0
C1474 C 0.42832 0.12749 0.62947 0.0
C1475 C 0.3851 0.13489 0.6298 0.0
C1476 C 0.44721 0.11254 0.63276 0.0
C1477 C 0.44356 0.08942 0.63974 0.0
C1478 C 0.40553 0.11931 0.63308 0.0
C1479 C 0.42053 0.08189 0.64324 0.0
C1480 C 0.36218 0.12636 0.63147 0.0
C1481 C 0.37052 0.17319 0.62253 0.0
N1482 N 0.40237 0.0968 0.63984 0.0
N1483 N 0.3885 0.15797 0.62531 0.0
H1484 H 0.12537 0.2167 0.88077 0.0
H1485 H 0.11115 0.0779 0.88602 0.0
H1486 H 0.17902 0.1702 0.90497 0.0
H1487 H 0.05449 0.12478 0.86991 0.0
H1488 H 0.13667 0.11144 0.89147 0.0
H1489 H 0.09961 0.18323 0.87538 0.0
C1490 C 0.13174 0.19945 0.885 0.0
C1491 C 0.15442 0.19626 0.89336 0.0
C1492 C 0.11866 0.11442 0.88675 0.0
C1493 C 0.12497 0.15782 0.8871 0.0
C1494 C 0.10404 0.09525 0.88355 0.0
C1495 C 0.08057 0.09849 0.87747 0.0
C1496 C 0.10985 0.13707 0.88377 0.0
C1497 C 0.07243 0.12143 0.87459 0.0
C1498 C 0.11699 0.18034 0.88192 0.0
C1499 C 0.16168 0.17349 0.89853 0.0
N1500 N 0.08707 0.13985 0.87775 0.0
N1501 N 0.14702 0.15513 0.89526 0.0
H1502 H 0.16632 0.85767 0.1298 0.0
H1503 H 0.02765 0.87428 0.12968 0.0
H1504 H 0.11769 0.80113 0.11894 0.0
H1505 H 0.07597 0.928 0.15023 0.0
H1506 H 0.06047 0.84788 0.12354 0.0
H1507 H 0.13351 0.8843 0.13487 0.0
C1508 C 0.14874 0.85084 0.12835 0.0
C1509 C 0.14479 0.82705 0.12395 0.0
C1510 C 0.06391 0.86542 0.12943 0.0
C1511 C 0.10708 0.85757 0.12984 0.0
C1512 C 0.04517 0.88054 0.13294 0.0
C1513 C 0.04905 0.90342 0.14054 0.0
C1514 C 0.08676 0.87322 0.13341 0.0
C1515 C 0.07215 0.91052 0.14444 0.0
C1516 C 0.13001 0.86608 0.13134 0.0
C1517 C 0.1216 0.81928 0.12233 0.0
N1518 N 0.09013 0.89548 0.14079 0.0
N1519 N 0.10362 0.8345 0.12529 0.0
H1520 H 0.68311 0.82586 0.89541 0.0
H1521 H 0.5526 0.8677 0.86831 0.0
H1522 H 0.62624 0.7787 0.88105 0.0
H1523 H 0.61034 0.91524 0.87773 0.0
H1524 H 0.57937 0.83488 0.87313 0.0
H1525 H 0.6567 0.8589 0.8895 0.0
C1526 C 0.66508 0.82244 0.89107 0.0
C1527 C 0.65689 0.79946 0.88877 0.0
C1528 C 0.58621 0.85249 0.87407 0.0
C1529 C 0.62657 0.83718 0.88192 0.0
C1530 C 0.57091 0.87127 0.87129 0.0
C1531 C 0.57919 0.89431 0.87263 0.0
C1532 C 0.60997 0.85674 0.87831 0.0
C1533 C 0.60314 0.8978 0.87654 0.0
C1534 C 0.65001 0.84131 0.88764 0.0
C1535 C 0.63334 0.79609 0.88303 0.0
N1536 N 0.61765 0.87923 0.87931 0.0
N1537 N 0.61904 0.81472 0.87984 0.0
H1538 H 0.92348 0.92977 0.65335 0.0
H1539 H 0.87918 0.80229 0.61817 0.0
H1540 H 0.96961 0.87575 0.62923 0.0
H1541 H 0.83329 0.8605 0.63166 0.0
H1542 H 0.91278 0.82817 0.62366 0.0
H1543 H 0.89031 0.90368 0.64738 0.0
C1544 C 0.92665 0.91241 0.64686 0.0
C1545 C 0.94935 0.90495 0.64178 0.0
C1546 C 0.89533 0.83524 0.62532 0.0
C1547 C 0.91146 0.87497 0.63487 0.0
C1548 C 0.87615 0.82048 0.62218 0.0
C1549 C 0.85336 0.82919 0.62444 0.0
C1550 C 0.89166 0.85881 0.63091 0.0
C1551 C 0.85051 0.85295 0.6297 0.0
C1552 C 0.90769 0.89753 0.64338 0.0
C1553 C 0.9524 0.88225 0.63336 0.0
N1554 N 0.8694 0.86686 0.63283 0.0
N1555 N 0.93367 0.86806 0.6302 0.0
H1556 H 0.88464 0.07867 0.3811 0.0
H1557 H 0.86973 0.21758 0.38163 0.0
H1558 H 0.94183 0.12648 0.36998 0.0
H1559 H 0.81412 0.16932 0.39716 0.0
H1560 H 0.89619 0.1846 0.37638 0.0
H1561 H 0.85847 0.11176 0.38584 0.0
C1562 C 0.89174 0.09614 0.37958 0.0
C1563 C 0.91556 0.09975 0.37513 0.0
C1564 C 0.87821 0.18122 0.38096 0.0
C1565 C 0.88547 0.13788 0.38065 0.0
C1566 C 0.86307 0.20004 0.38398 0.0
C1567 C 0.83964 0.19622 0.38989 0.0
C1568 C 0.8699 0.15835 0.38379 0.0
C1569 C 0.83203 0.17311 0.39266 0.0
C1570 C 0.87672 0.11506 0.38235 0.0
C1571 C 0.92363 0.12284 0.37339 0.0
N1572 N 0.84711 0.15506 0.38956 0.0
N1573 N 0.90861 0.14103 0.37616 0.0
H1574 H 0.57423 0.06026 0.14539 0.0
H1575 H 0.61839 0.19026 0.11907 0.0
H1576 H 0.52798 0.11809 0.1317 0.0
H1577 H 0.66463 0.13181 0.13033 0.0
H1578 H 0.58499 0.16407 0.12354 0.0
H1579 H 0.60764 0.08629 0.14008 0.0
C1580 C 0.57109 0.07842 0.14132 0.0
C1581 C 0.54827 0.087 0.13902 0.0
C1582 C 0.60246 0.15699 0.12497 0.0
C1583 C 0.5864 0.11688 0.13287 0.0
C1584 C 0.62155 0.17194 0.1224 0.0
C1585 C 0.64438 0.16327 0.12434 0.0
C1586 C 0.60622 0.1332 0.12958 0.0
C1587 C 0.64737 0.13932 0.12869 0.0
C1588 C 0.59017 0.09327 0.13825 0.0
C1589 C 0.54526 0.1107 0.13366 0.0
N1590 N 0.62853 0.12517 0.13121 0.0
N1591 N 0.56409 0.12479 0.13078 0.0
H1592 H 0.68159 0.16831 0.61199 0.0
H1593 H 0.55024 0.12808 0.63782 0.0
H1594 H 0.62532 0.21638 0.62581 0.0
H1595 H 0.60782 0.08009 0.6296 0.0
H1596 H 0.57734 0.1607 0.63296 0.0
H1597 H 0.6546 0.13572 0.61758 0.0
C1598 C 0.66356 0.17203 0.61614 0.0
C1599 C 0.65573 0.19513 0.6184 0.0
C1600 C 0.58404 0.14302 0.63229 0.0
C1601 C 0.62472 0.1579 0.62488 0.0
C1602 C 0.56857 0.12438 0.63509 0.0
C1603 C 0.57672 0.10127 0.63413 0.0
C1604 C 0.60784 0.13856 0.6284 0.0
C1605 C 0.60069 0.09758 0.63051 0.0
C1606 C 0.64816 0.15341 0.61939 0.0
C1607 C 0.63216 0.19887 0.62388 0.0
N1608 N 0.61536 0.11601 0.62772 0.0
N1609 N 0.61751 0.18047 0.6269 0.0
H1610 H 0.66451 0.86112 0.37449 0.0
H1611 H 0.52567 0.87522 0.37798 0.0
H1612 H 0.6175 0.80413 0.38911 0.0
H1613 H 0.57258 0.92924 0.35529 0.0
H1614 H 0.55905 0.84938 0.38363 0.0
H1615 H 0.63104 0.88675 0.36917 0.0
C1616 C 0.64715 0.85397 0.37667 0.0
C1617 C 0.64385 0.83037 0.38226 0.0
C1618 C 0.56205 0.86686 0.37737 0.0
C1619 C 0.60534 0.85977 0.3761 0.0
C1620 C 0.54299 0.88166 0.37413 0.0
C1621 C 0.54633 0.90446 0.36611 0.0
C1622 C 0.58465 0.87493 0.37268 0.0
C1623 C 0.56918 0.9118 0.36145 0.0
C1624 C 0.62802 0.86865 0.37355 0.0
C1625 C 0.6209 0.82217 0.3848 0.0
N1626 N 0.58747 0.8971 0.36485 0.0
N1627 N 0.60251 0.83687 0.3817 0.0
H1628 H 0.94285 0.86647 0.1377 0.0
H1629 H 0.81257 0.82469 0.10923 0.0
H1630 H 0.88538 0.91363 0.12537 0.0
H1631 H 0.86838 0.77733 0.12654 0.0
H1632 H 0.83939 0.8575 0.1142 0.0
H1633 H 0.91613 0.83346 0.13301 0.0
C1634 C 0.92464 0.86991 0.13407 0.0
C1635 C 0.91639 0.89289 0.13194 0.0
C1636 C 0.84577 0.83992 0.11691 0.0
C1637 C 0.88575 0.8552 0.12646 0.0
C1638 C 0.83046 0.82118 0.11402 0.0
C1639 C 0.83822 0.79822 0.11745 0.0
C1640 C 0.86903 0.83569 0.12321 0.0
C1641 C 0.86161 0.79473 0.12371 0.0
C1642 C 0.90939 0.85105 0.13138 0.0
C1643 C 0.89259 0.89625 0.1272 0.0
N1644 N 0.87618 0.81325 0.12637 0.0
N1645 N 0.87816 0.87764 0.12458 0.0
H1646 H 0.96929 0.11711 0.87754 0.0
H1647 H 0.8306 0.13246 0.87433 0.0
H1648 H 0.92201 0.06402 0.85359 0.0
H1649 H 0.87812 0.18906 0.88881 0.0
H1650 H 0.86385 0.10662 0.86868 0.0
H1651 H 0.93613 0.14316 0.88345 0.0
C1652 C 0.95193 0.11092 0.87347 0.0
C1653 C 0.94843 0.08831 0.86503 0.0
C1654 C 0.86703 0.12468 0.8731 0.0
C1655 C 0.91035 0.11809 0.87189 0.0
C1656 C 0.84803 0.13948 0.87642 0.0
C1657 C 0.85153 0.16304 0.88207 0.0
C1658 C 0.88979 0.13339 0.87552 0.0
C1659 C 0.87457 0.17106 0.88447 0.0
C1660 C 0.933 0.12584 0.87685 0.0
C1661 C 0.92554 0.08129 0.86008 0.0
N1662 N 0.89283 0.15624 0.88119 0.0
N1663 N 0.90737 0.09611 0.86364 0.0
H1664 H 0.88253 0.57877 0.62492 0.0
H1665 H 0.86816 0.71773 0.62724 0.0
H1666 H 0.93954 0.62631 0.63777 0.0
H1667 H 0.81236 0.67031 0.6101 0.0
H1668 H 0.89427 0.68447 0.63207 0.0
H1669 H 0.8564 0.61203 0.62052 0.0
C1670 C 0.88959 0.5962 0.62688 0.0
C1671 C 0.91335 0.59971 0.63173 0.0
C1672 C 0.87633 0.68132 0.62723 0.0
C1673 C 0.88335 0.63798 0.62663 0.0
C1674 C 0.86137 0.70031 0.62446 0.0
C1675 C 0.83799 0.69683 0.61821 0.0
C1676 C 0.8679 0.65858 0.6238 0.0
C1677 C 0.83023 0.67384 0.61488 0.0
C1678 C 0.87461 0.61521 0.62431 0.0
C1679 C 0.92139 0.62274 0.63403 0.0
N1680 N 0.84515 0.6556 0.61773 0.0
N1681 N 0.90642 0.641 0.63146 0.0
H1682 H 0.61761 0.69214 0.88859 0.0
H1683 H 0.5759 0.56306 0.8555 0.0
H1684 H 0.66484 0.63503 0.87509 0.0
H1685 H 0.52871 0.61747 0.87681 0.0
H1686 H 0.60867 0.58981 0.86106 0.0
H1687 H 0.58464 0.66554 0.8831 0.0
C1688 C 0.62107 0.67403 0.88455 0.0
C1689 C 0.64406 0.66585 0.88232 0.0
C1690 C 0.59114 0.5959 0.86451 0.0
C1691 C 0.60643 0.63535 0.87588 0.0
C1692 C 0.57241 0.58064 0.86128 0.0
C1693 C 0.54952 0.58801 0.86569 0.0
C1694 C 0.58694 0.61873 0.87213 0.0
C1695 C 0.54607 0.611 0.8732 0.0
C1696 C 0.60224 0.65885 0.8814 0.0
C1697 C 0.64745 0.64217 0.87703 0.0
N1698 N 0.56456 0.62553 0.87617 0.0
N1699 N 0.62887 0.62781 0.87394 0.0
H1700 H 0.61233 0.41418 0.12699 0.0
H1701 H 0.62626 0.27513 0.12623 0.0
H1702 H 0.55488 0.36668 0.13804 0.0
H1703 H 0.68222 0.32295 0.11065 0.0
H1704 H 0.60009 0.30831 0.13158 0.0
H1705 H 0.63833 0.38091 0.12221 0.0
C1706 C 0.60514 0.39675 0.12849 0.0
C1707 C 0.5813 0.39327 0.13292 0.0
C1708 C 0.61807 0.31156 0.12696 0.0
C1709 C 0.61116 0.35496 0.12736 0.0
C1710 C 0.63306 0.29261 0.12388 0.0
C1711 C 0.65651 0.29625 0.11794 0.0
C1712 C 0.62657 0.33437 0.12415 0.0
C1713 C 0.66429 0.3193 0.11517 0.0
C1714 C 0.62005 0.37773 0.1257 0.0
C1715 C 0.5731 0.37022 0.13465 0.0
N1716 N 0.64936 0.33748 0.11833 0.0
N1717 N 0.58801 0.35194 0.13185 0.0
H1718 H 0.92068 0.43073 0.356 0.0
H1719 H 0.87735 0.30265 0.3903 0.0
H1720 H 0.96693 0.37644 0.37937 0.0
H1721 H 0.8307 0.35985 0.37534 0.0
H1722 H 0.91055 0.32901 0.3853 0.0
H1723 H 0.88753 0.40448 0.36169 0.0
C1724 C 0.92388 0.41329 0.36228 0.0
C1725 C 0.94661 0.40578 0.3672 0.0
C1726 C 0.89303 0.33579 0.38318 0.0
C1727 C 0.90878 0.37564 0.37376 0.0
C1728 C 0.87406 0.32074 0.38604 0.0
C1729 C 0.85117 0.32901 0.38325 0.0
C1730 C 0.88909 0.35924 0.37736 0.0
C1731 C 0.84801 0.35266 0.37771 0.0
C1732 C 0.90494 0.39832 0.36558 0.0
C1733 C 0.9497 0.38299 0.37536 0.0
N1734 N 0.86674 0.36689 0.37488 0.0
N1735 N 0.93101 0.36873 0.37834 0.0
H1736 H 0.8839 0.41445 0.88382 0.0
H1737 H 0.8701 0.27545 0.88075 0.0
H1738 H 0.94108 0.36743 0.86992 0.0
H1739 H 0.81471 0.32263 0.89964 0.0
H1740 H 0.89611 0.30882 0.8758 0.0
H1741 H 0.85815 0.38099 0.88857 0.0
C1742 C 0.89108 0.39708 0.8817 0.0
C1743 C 0.91476 0.39379 0.87644 0.0
C1744 C 0.87828 0.31188 0.88106 0.0
C1745 C 0.8852 0.35526 0.88194 0.0
C1746 C 0.86339 0.29283 0.8839 0.0
C1747 C 0.84015 0.29623 0.89066 0.0
C1748 C 0.8699 0.33456 0.88492 0.0
C1749 C 0.83248 0.31916 0.89445 0.0
C1750 C 0.87632 0.37795 0.88447 0.0
C1751 C 0.92297 0.37083 0.87397 0.0
N1752 N 0.84731 0.33745 0.8915 0.0
N1753 N 0.9082 0.35243 0.87673 0.0
H1754 H 0.87653 0.69182 0.11842 0.0
H1755 H 0.91998 0.56365 0.15238 0.0
H1756 H 0.83007 0.63446 0.13332 0.0
H1757 H 0.9663 0.6181 0.12952 0.0
H1758 H 0.88687 0.58995 0.14683 0.0
H1759 H 0.90982 0.66554 0.12348 0.0
C1760 C 0.8733 0.67372 0.12268 0.0
C1761 C 0.85044 0.66537 0.12544 0.0
C1762 C 0.90429 0.59614 0.14302 0.0
C1763 C 0.88845 0.63526 0.13139 0.0
C1764 C 0.9232 0.58114 0.14625 0.0
C1765 C 0.94595 0.58867 0.14142 0.0
C1766 C 0.90814 0.61888 0.135 0.0
C1767 C 0.94907 0.61153 0.13345 0.0
C1768 C 0.89232 0.65873 0.12558 0.0
C1769 C 0.84735 0.64172 0.13098 0.0
N1770 N 0.93039 0.62583 0.13052 0.0
N1771 N 0.86612 0.62755 0.13383 0.0
H1772 H 0.6251 0.71861 0.38127 0.0
H1773 H 0.60909 0.57987 0.38573 0.0
H1774 H 0.67951 0.67087 0.40144 0.0
H1775 H 0.55292 0.62762 0.37047 0.0
H1776 H 0.63526 0.61299 0.39063 0.0
H1777 H 0.59865 0.68557 0.37647 0.0
C1778 C 0.63151 0.70118 0.38474 0.0
C1779 C 0.6546 0.69752 0.3918 0.0
C1780 C 0.61722 0.61626 0.38621 0.0
C1781 C 0.62433 0.65956 0.38624 0.0
C1782 C 0.60222 0.59732 0.38336 0.0
C1783 C 0.57869 0.60092 0.37765 0.0
C1784 C 0.60875 0.63906 0.38331 0.0
C1785 C 0.57088 0.62399 0.37487 0.0
C1786 C 0.61635 0.68231 0.38198 0.0
C1787 C 0.66187 0.67453 0.396 0.0
N1788 N 0.58589 0.64218 0.37771 0.0
N1789 N 0.64679 0.65643 0.39312 0.0
H1790 H 0.6177 0.30224 0.61849 0.0
H1791 H 0.57532 0.4305 0.6535 0.0
H1792 H 0.66466 0.35898 0.63412 0.0
H1793 H 0.52867 0.37696 0.62933 0.0
H1794 H 0.60819 0.40386 0.648 0.0
H1795 H 0.58464 0.32881 0.62365 0.0
C1796 C 0.62108 0.32026 0.62294 0.0
C1797 C 0.64402 0.32835 0.62585 0.0
C1798 C 0.59076 0.39795 0.64389 0.0
C1799 C 0.60628 0.3588 0.63191 0.0
C1800 C 0.57197 0.41314 0.64709 0.0
C1801 C 0.54921 0.40597 0.64188 0.0
C1802 C 0.58674 0.37537 0.63552 0.0
C1803 C 0.54593 0.38326 0.63356 0.0
C1804 C 0.6022 0.33543 0.62588 0.0
C1805 C 0.64731 0.35192 0.63164 0.0
N1806 N 0.56448 0.36877 0.63067 0.0
N1807 N 0.62868 0.36625 0.63453 0.0
H1808 H 0.05278 0.36871 0.36856 0.0
H1809 H 0.18296 0.3252 0.39445 0.0
H1810 H 0.11108 0.41551 0.37824 0.0
H1811 H 0.12547 0.27881 0.37998 0.0
H1812 H 0.15691 0.35858 0.38891 0.0
H1813 H 0.07923 0.33556 0.3728 0.0
C1814 C 0.07115 0.37205 0.37149 0.0
C1815 C 0.07968 0.39497 0.37306 0.0
C1816 C 0.15002 0.34108 0.38693 0.0
C1817 C 0.11008 0.35703 0.37806 0.0
C1818 C 0.16487 0.32202 0.39014 0.0
C1819 C 0.15639 0.29916 0.38773 0.0
C1820 C 0.12649 0.33726 0.38133 0.0
C1821 C 0.13279 0.29611 0.38205 0.0
C1822 C 0.08625 0.35309 0.37393 0.0
C1823 C 0.10368 0.39817 0.37688 0.0
N1824 N 0.11869 0.31492 0.37909 0.0
N1825 N 0.11801 0.37942 0.37932 0.0
H1826 H 0.46891 0.37481 0.13032 0.0
H1827 H 0.33003 0.36084 0.13418 0.0
H1828 H 0.42208 0.4289 0.15302 0.0
H1829 H 0.37692 0.30379 0.11939 0.0
H1830 H 0.36354 0.38642 0.13937 0.0
H1831 H 0.43548 0.349 0.12474 0.0
C1832 C 0.4516 0.38127 0.13418 0.0
C1833 C 0.4483 0.40409 0.14219 0.0
C1834 C 0.36653 0.36832 0.13498 0.0
C1835 C 0.40992 0.37458 0.13571 0.0
C1836 C 0.34738 0.35366 0.13194 0.0
C1837 C 0.35062 0.33005 0.12633 0.0
C1838 C 0.3892 0.35943 0.13235 0.0
C1839 C 0.37356 0.32184 0.12371 0.0
C1840 C 0.43252 0.36649 0.13098 0.0
C1841 C 0.42546 0.41146 0.14687 0.0
N1842 N 0.39198 0.33652 0.12674 0.0
N1843 N 0.40715 0.39677 0.14351 0.0
H1844 H 0.31404 0.66865 0.89939 0.0
H1845 H 0.44369 0.6255 0.87037 0.0
H1846 H 0.37009 0.71521 0.88087 0.0
H1847 H 0.3864 0.57881 0.8848 0.0
H1848 H 0.41717 0.65867 0.87468 0.0
H1849 H 0.34053 0.63551 0.89473 0.0
C1850 C 0.33191 0.67192 0.89437 0.0
C1851 C 0.33984 0.69475 0.89055 0.0
C1852 C 0.41041 0.64116 0.87686 0.0
C1853 C 0.37027 0.6569 0.88517 0.0
C1854 C 0.42555 0.6222 0.87441 0.0
C1855 C 0.4173 0.5993 0.87721 0.0
C1856 C 0.38685 0.63721 0.88223 0.0
C1857 C 0.39359 0.59613 0.88245 0.0
C1858 C 0.34702 0.65299 0.89168 0.0
C1859 C 0.36319 0.69792 0.88402 0.0
N1860 N 0.37924 0.61485 0.88481 0.0
N1861 N 0.37757 0.67922 0.88157 0.0
H1862 H 0.16452 0.63296 0.63577 0.0
H1863 H 0.02575 0.61882 0.63038 0.0
H1864 H 0.11775 0.68995 0.62044 0.0
H1865 H 0.07222 0.56521 0.65473 0.0
H1866 H 0.05923 0.64462 0.62506 0.0
H1867 H 0.13095 0.60743 0.64093 0.0
C1868 C 0.14719 0.64014 0.6334 0.0
C1869 C 0.14399 0.66371 0.62765 0.0
C1870 C 0.0621 0.62724 0.63162 0.0
C1871 C 0.10537 0.63441 0.63362 0.0
C1872 C 0.04299 0.61247 0.63466 0.0
C1873 C 0.04618 0.58979 0.64304 0.0
C1874 C 0.08461 0.61927 0.63687 0.0
C1875 C 0.06893 0.58255 0.64828 0.0
C1876 C 0.128 0.62551 0.63644 0.0
C1877 C 0.12107 0.67193 0.62489 0.0
N1878 N 0.08728 0.59723 0.64505 0.0
N1879 N 0.10263 0.65729 0.62788 0.0
H1880 H 0.11012 0.57602 0.12828 0.0
H1881 H 0.12562 0.71489 0.12775 0.0
H1882 H 0.05342 0.6246 0.13868 0.0
H1883 H 0.18082 0.66689 0.11023 0.0
H1884 H 0.09943 0.68188 0.13343 0.0
H1885 H 0.13675 0.60893 0.12352 0.0
C1886 C 0.10326 0.5936 0.12968 0.0
C1887 C 0.07944 0.59752 0.13388 0.0
C1888 C 0.11725 0.67853 0.12832 0.0
C1889 C 0.10992 0.6353 0.12834 0.0
C1890 C 0.13225 0.69739 0.12506 0.0
C1891 C 0.15547 0.69366 0.11845 0.0
C1892 C 0.1255 0.6557 0.12505 0.0
C1893 C 0.16305 0.67059 0.11526 0.0
C1894 C 0.1185 0.61238 0.12687 0.0
C1895 C 0.07161 0.6207 0.13544 0.0
N1896 N 0.1481 0.65247 0.11862 0.0
N1897 N 0.0868 0.6387 0.13266 0.0
H1898 H 0.07315 0.4295 0.85169 0.0
H1899 H 0.11693 0.30233 0.88879 0.0
H1900 H 0.02725 0.37602 0.87722 0.0
H1901 H 0.16337 0.35893 0.87146 0.0
H1902 H 0.08365 0.32847 0.88314 0.0
H1903 H 0.10631 0.40318 0.85714 0.0
C1904 C 0.07002 0.41222 0.85838 0.0
C1905 C 0.04738 0.40498 0.86401 0.0
C1906 C 0.10114 0.33516 0.88062 0.0
C1907 C 0.08525 0.37475 0.8703 0.0
C1908 C 0.12015 0.32023 0.88384 0.0
C1909 C 0.14302 0.32842 0.88063 0.0
C1910 C 0.10499 0.3584 0.87403 0.0
C1911 C 0.14609 0.35182 0.8742 0.0
C1912 C 0.08897 0.39721 0.86154 0.0
C1913 C 0.0444 0.38237 0.87266 0.0
N1914 N 0.12731 0.36594 0.87107 0.0
N1915 N 0.0631 0.36808 0.87552 0.0
H1916 H 0.44318 0.36826 0.63918 0.0
H1917 H 0.3148 0.32509 0.60571 0.0
H1918 H 0.38595 0.4148 0.62406 0.0
H1919 H 0.36885 0.27865 0.62921 0.0
H1920 H 0.34132 0.35807 0.61088 0.0
H1921 H 0.4168 0.33498 0.63435 0.0
C1922 C 0.4251 0.3715 0.6349 0.0
C1923 C 0.41681 0.39438 0.63204 0.0
C1924 C 0.34738 0.34066 0.61492 0.0
C1925 C 0.38657 0.35641 0.62638 0.0
C1926 C 0.33225 0.32181 0.61192 0.0
C1927 C 0.33961 0.29907 0.61702 0.0
C1928 C 0.37008 0.33675 0.623 0.0
C1929 C 0.36243 0.29589 0.62506 0.0
C1930 C 0.41004 0.3525 0.63215 0.0
C1931 C 0.39317 0.3975 0.62649 0.0
N1932 N 0.37686 0.31451 0.62777 0.0
N1933 N 0.37894 0.37876 0.62379 0.0
H1934 H 0.32817 0.63574 0.37322 0.0
H1935 H 0.46692 0.62035 0.37715 0.0
H1936 H 0.37558 0.69217 0.38858 0.0
H1937 H 0.41965 0.56697 0.35379 0.0
H1938 H 0.43374 0.64648 0.38277 0.0
H1939 H 0.36146 0.60993 0.36764 0.0
C1940 C 0.34559 0.64274 0.3755 0.0
C1941 C 0.34903 0.66624 0.38141 0.0
C1942 C 0.43062 0.62908 0.37636 0.0
C1943 C 0.38736 0.6366 0.37495 0.0
C1944 C 0.44957 0.61412 0.37315 0.0
C1945 C 0.44608 0.5914 0.36496 0.0
C1946 C 0.40796 0.62127 0.37148 0.0
C1947 C 0.42319 0.58433 0.36009 0.0
C1948 C 0.36462 0.62795 0.37223 0.0
C1949 C 0.37206 0.67422 0.38404 0.0
N1950 N 0.405 0.59919 0.36348 0.0
N1951 N 0.39034 0.65942 0.38081 0.0
H1952 H 0.25714 0.31728 0.05878 0.0
H1953 H 0.2176 0.24308 0.95396 0.0
H1954 H 0.27651 0.24457 0.0537 0.0
H1955 H 0.23412 0.3166 0.95122 0.0
H1956 H 0.23313 0.24183 0.99217 0.0
H1957 H 0.242 0.31585 0.0211 0.0
C1958 C 0.25815 0.30092 0.04979 0.0
C1959 C 0.26823 0.28101 0.05947 0.0
C1960 C 0.23337 0.25814 0.98306 0.0
C1961 C 0.25064 0.2793 0.01608 0.0
C1962 C 0.22443 0.25891 0.96137 0.0
C1963 C 0.22457 0.27998 0.94936 0.0
C1964 C 0.24195 0.27869 0.99287 0.0
C1965 C 0.23374 0.29994 0.95973 0.0
C1966 C 0.24957 0.30018 0.02819 0.0
C1967 C 0.26903 0.26036 0.04683 0.0
N1968 N 0.24183 0.29883 0.98087 0.0
N1969 N 0.26021 0.25997 0.02576 0.0
H1970 H 0.00306 0.96672 0.20322 0.0
H1971 H 0.92908 0.00623 0.30793 0.0
H1972 H 0.93017 0.98572 0.19985 0.0
H1973 H 0.00164 0.02615 0.30301 0.0
H1974 H 0.93067 0.99137 0.27012 0.0
H1975 H 0.00437 0.98198 0.24154 0.0
C1976 C 0.98738 0.97405 0.21049 0.0
C1977 C 0.96646 0.97492 0.1983 0.0
C1978 C 0.94627 -0.00102 0.27729 0.0
C1979 C 0.96781 0.99193 0.24193 0.0
C1980 C 0.94544 0.0074 0.29894 0.0
C1981 C 0.96525 0.01759 0.30868 0.0
C1982 C 0.96715 0.0003 0.26522 0.0
C1983 C 0.98591 0.01859 0.29608 0.0
C1984 C 0.9882 0.98282 0.23225 0.0
C1985 C 0.9467 0.98471 0.20852 0.0
N1986 N 0.9864 0.00992 0.27497 0.0
N1987 N 0.94782 0.99259 0.22973 0.0
H1988 H 0.23595 0.67691 0.55885 0.0
H1989 H 0.27649 0.75196 0.45517 0.0
H1990 H 0.21784 0.75004 0.55527 0.0
H1991 H 0.25649 0.67937 0.45085 0.0
H1992 H 0.26132 0.75292 0.49352 0.0
H1993 H 0.25056 0.6788 0.52099 0.0
C1994 C 0.23512 0.69345 0.55014 0.0
C1995 C 0.22553 0.71335 0.56029 0.0
C1996 C 0.26024 0.73689 0.48402 0.0
C1997 C 0.24253 0.7156 0.51673 0.0
C1998 C 0.26897 0.73628 0.46225 0.0
C1999 C 0.2678 0.71554 0.44978 0.0
C2000 C 0.25086 0.71649 0.49344 0.0
C2001 C 0.25775 0.69577 0.45974 0.0
C2002 C 0.24339 0.69446 0.52845 0.0
C2003 C 0.22493 0.73426 0.54802 0.0
N2004 N 0.24991 0.69669 0.48097 0.0
N2005 N 0.23346 0.7349 0.52686 0.0
H2006 H 0.5121 0.94313 0.79501 0.0
H2007 H 0.51142 0.05155 0.71231 0.0
H2008 H 0.53518 0.01135 0.81607 0.0
H2009 H 0.53527 0.98359 0.69121 0.0
H2010 H 0.50879 0.03686 0.75062 0.0
H2011 H 0.50922 0.95779 0.75669 0.0
C2012 C 0.5162 0.96125 0.79162 0.0
C2013 C 0.52399 0.97604 0.80868 0.0
C2014 C 0.51437 0.02518 0.7375 0.0
C2015 C 0.52034 0.99289 0.76518 0.0
C2016 C 0.51576 0.03347 0.71568 0.0
C2017 C 0.52368 0.01878 0.69861 0.0
C2018 C 0.52029 0.00188 0.74212 0.0
C2019 C 0.52924 0.99553 0.70392 0.0
C2020 C 0.51468 0.96953 0.76981 0.0
C2021 C 0.52925 -0.00065 0.80336 0.0
N2022 N 0.52732 0.98775 0.72519 0.0
N2023 N 0.52722 0.00711 0.78209 0.0
H2024 H 0.75619 0.6789 0.05871 0.0
H2025 H 0.71736 0.75299 0.95386 0.0
H2026 H 0.77635 0.75145 0.05413 0.0
H2027 H 0.73647 0.68008 0.95084 0.0
H2028 H 0.73232 0.75442 0.9923 0.0
H2029 H 0.74138 0.68072 0.02094 0.0
C2030 C 0.75742 0.69531 0.04982 0.0
C2031 C 0.76767 0.71505 0.05964 0.0
C2032 C 0.73325 0.73822 0.98305 0.0
C2033 C 0.75047 0.71719 0.01617 0.0
C2034 C 0.72465 0.73735 0.96123 0.0
C2035 C 0.72563 0.71638 0.9491 0.0
C2036 C 0.7423 0.71786 0.99283 0.0
C2037 C 0.73537 0.69666 0.95944 0.0
C2038 C 0.74903 0.69627 0.02818 0.0
C2039 C 0.76874 0.73578 0.04713 0.0
N2040 N 0.74308 0.69784 0.98068 0.0
N2041 N 0.76012 0.73638 0.026 0.0
H2042 H 0.06858 0.00678 0.80794 0.0
H2043 H 0.99497 0.96723 0.70304 0.0
H2044 H 0.99566 0.02538 0.80327 0.0
H2045 H 0.06757 0.98726 0.69952 0.0
H2046 H 0.9936 0.98216 0.74145 0.0
H2047 H 0.06727 0.99247 0.7699 0.0
C2048 C 0.05222 0.00779 0.79895 0.0
C2049 C 0.03221 0.01743 0.80883 0.0
C2050 C 0.00972 0.98331 0.73211 0.0
C2051 C 0.03061 0.00077 0.76514 0.0
C2052 C 0.01057 0.97473 0.7103 0.0
C2053 C 0.03142 0.97596 0.69804 0.0
C2054 C 0.03002 0.99261 0.74178 0.0
C2055 C 0.05109 0.98596 0.70825 0.0
C2056 C 0.05154 -0.00031 0.77718 0.0
C2057 C 0.01153 0.01824 0.79624 0.0
N2058 N 0.04995 0.99365 0.72952 0.0
N2059 N 0.0112 0.00987 0.77502 0.0
H2060 H 0.7388 0.3147 0.55928 0.0
H2061 H 0.7749 0.24149 0.45272 0.0
H2062 H 0.71683 0.24279 0.55326 0.0
H2063 H 0.76065 0.31553 0.45196 0.0
H2064 H 0.75977 0.23971 0.49109 0.0
H2065 H 0.75376 0.3133 0.5216 0.0
C2066 C 0.73719 0.29851 0.55008 0.0
C2067 C 0.72641 0.27884 0.55951 0.0
C2068 C 0.75991 0.25624 0.48235 0.0
C2069 C 0.74376 0.27718 0.51605 0.0
C2070 C 0.76861 0.25731 0.46057 0.0
C2071 C 0.76894 0.27868 0.44907 0.0
C2072 C 0.75209 0.27679 0.49273 0.0
C2073 C 0.76054 0.29863 0.46001 0.0
C2074 C 0.74567 0.29779 0.52847 0.0
C2075 C 0.72487 0.25841 0.54659 0.0
N2076 N 0.75268 0.29722 0.4812 0.0
N2077 N 0.73356 0.25805 0.52548 0.0
H2078 H 0.45707 0.01214 0.31718 0.0
H2079 H 0.45549 0.98243 0.19036 0.0
H2080 H 0.47868 0.94388 0.29486 0.0
H2081 H 0.48025 0.04967 0.21252 0.0
H2082 H 0.45881 0.96778 0.22854 0.0
H2083 H 0.46035 0.02655 0.27893 0.0
C2084 C 0.46261 0.00023 0.30423 0.0
C2085 C 0.46762 0.97678 0.30916 0.0
C2086 C 0.46372 0.98566 0.22496 0.0
C2087 C 0.47088 0.99302 0.26543 0.0
C2088 C 0.46177 0.99405 0.20325 0.0
C2089 C 0.46764 0.01729 0.19829 0.0
C2090 C 0.4709 0.00081 0.24195 0.0
C2091 C 0.47568 0.03161 0.21561 0.0
C2092 C 0.46457 0.00848 0.28248 0.0
C2093 C 0.47478 0.9621 0.29177 0.0
N2094 N 0.4767 0.02325 0.23677 0.0
N2095 N 0.47582 0.97036 0.27058 0.0
H2096 H 0.77535 0.74383 0.55564 0.0
H2097 H 0.73705 0.81706 0.44997 0.0
H2098 H 0.75901 0.81744 0.55732 0.0
H2099 H 0.71665 0.74466 0.45545 0.0
H2100 H 0.75189 0.81573 0.4877 0.0
H2101 H 0.75981 0.74205 0.51743 0.0
C2102 C 0.76851 0.75955 0.54803 0.0
C2103 C 0.76845 0.78082 0.55972 0.0
C2104 C 0.74416 0.80011 0.4807 0.0
C2105 C 0.7511 0.77892 0.51624 0.0
C2106 C 0.73575 0.80079 0.45907 0.0
C2107 C 0.72546 0.78094 0.44948 0.0
C2108 C 0.74268 0.77935 0.49297 0.0
C2109 C 0.7243 0.7604 0.46225 0.0
C2110 C 0.75957 0.75848 0.52634 0.0
C2111 C 0.7593 0.80063 0.5491 0.0
N2112 N 0.73294 0.76007 0.48339 0.0
N2113 N 0.75123 0.79923 0.52798 0.0
H2114 H 0.42804 0.50937 0.80784 0.0
H2115 H 0.50253 0.46684 0.70424 0.0
H2116 H 0.50205 0.52336 0.80512 0.0
H2117 H 0.43045 0.48852 0.69982 0.0
H2118 H 0.50366 0.48166 0.74269 0.0
H2119 H 0.4295 0.49513 0.76979 0.0
C2120 C 0.44468 0.5093 0.7993 0.0
C2121 C 0.46497 0.51755 0.80975 0.0
C2122 C 0.48771 0.4832 0.73315 0.0
C2123 C 0.46673 0.50113 0.76596 0.0
C2124 C 0.487 0.47468 0.7113 0.0
C2125 C 0.46635 0.47639 0.69876 0.0
C2126 C 0.46749 0.49296 0.74258 0.0
C2127 C 0.44677 0.48682 0.70874 0.0
C2128 C 0.44545 0.5013 0.77749 0.0
C2129 C 0.48597 0.51724 0.79765 0.0
N2130 N 0.44778 0.49447 0.73004 0.0
N2131 N 0.48637 0.509 0.77638 0.0
H2132 H 0.73909 0.17683 0.05884 0.0
H2133 H 0.77858 0.25033 0.95389 0.0
H2134 H 0.71911 0.2494 0.05394 0.0
H2135 H 0.75896 0.17756 0.95092 0.0
H2136 H 0.7635 0.25195 0.99227 0.0
H2137 H 0.75401 0.17844 0.02111 0.0
C2138 C 0.73793 0.1932 0.04989 0.0
C2139 C 0.72769 0.213 0.05962 0.0
C2140 C 0.76248 0.23574 0.98305 0.0
C2141 C 0.74502 0.21492 0.01617 0.0
C2142 C 0.77115 0.23475 0.96126 0.0
C2143 C 0.77006 0.21376 0.94916 0.0
C2144 C 0.75326 0.21547 0.99285 0.0
C2145 C 0.76015 0.19414 0.9595 0.0
C2146 C 0.74638 0.19405 0.02827 0.0
C2147 C 0.72671 0.23369 0.04703 0.0
N2148 N 0.75238 0.19543 0.98073 0.0
N2149 N 0.73539 0.23417 0.02591 0.0
H2150 H 0.03655 0.51212 0.31714 0.0
H2151 H 0.03454 0.48138 0.19068 0.0
H2152 H 0.01234 0.44445 0.29562 0.0
H2153 H 0.01284 0.54974 0.21266 0.0
H2154 H 0.03127 0.46719 0.229 0.0
H2155 H 0.03275 0.52645 0.27891 0.0
C2156 C 0.03031 0.50033 0.30438 0.0
C2157 C 0.02477 0.47706 0.3095 0.0
C2158 C 0.027 0.48522 0.22535 0.0
C2159 C 0.02089 0.49319 0.26582 0.0
C2160 C 0.02895 0.49335 0.20357 0.0
C2161 C 0.02395 0.51677 0.19854 0.0
C2162 C 0.0207 0.50078 0.24231 0.0
C2163 C 0.01673 0.53154 0.21584 0.0
C2164 C 0.02805 0.50855 0.28264 0.0
C2165 C 0.01669 0.46253 0.29236 0.0
N2166 N 0.0157 0.5234 0.23706 0.0
N2167 N 0.01537 0.47072 0.27118 0.0
H2168 H 0.30063 0.23341 0.54569 0.0
H2169 H 0.19217 0.23361 0.46284 0.0
H2170 H 0.23199 0.21182 0.56693 0.0
H2171 H 0.26024 0.2096 0.4423 0.0
H2172 H 0.2068 0.23716 0.50111 0.0
H2173 H 0.28602 0.23623 0.50736 0.0
C2174 C 0.28243 0.22962 0.54234 0.0
C2175 C 0.26751 0.22222 0.55943 0.0
C2176 C 0.21852 0.23135 0.48811 0.0
C2177 C 0.25073 0.22581 0.51594 0.0
C2178 C 0.21026 0.22944 0.46632 0.0
C2179 C 0.225 0.22116 0.44946 0.0
C2180 C 0.24182 0.22557 0.49287 0.0
C2181 C 0.24827 0.21586 0.45488 0.0
C2182 C 0.27418 0.23112 0.52052 0.0
C2183 C 0.2441 0.21739 0.55417 0.0
N2184 N 0.256 0.21824 0.47611 0.0
N2185 N 0.23639 0.21935 0.5329 0.0
H2186 H 0.56737 0.51221 0.30725 0.0
H2187 H 0.49429 0.46646 0.20408 0.0
H2188 H 0.4934 0.52615 0.30346 0.0
H2189 H 0.56628 0.48844 0.19978 0.0
H2190 H 0.4926 0.48255 0.24206 0.0
H2191 H 0.56636 0.49713 0.26949 0.0
C2192 C 0.55085 0.51203 0.2985 0.0
C2193 C 0.53043 0.52051 0.30858 0.0
C2194 C 0.50866 0.48387 0.23264 0.0
C2195 C 0.52917 0.503 0.26514 0.0
C2196 C 0.50969 0.47462 0.21107 0.0
C2197 C 0.53047 0.47605 0.1987 0.0
C2198 C 0.5287 0.49409 0.24199 0.0
C2199 C 0.54986 0.48693 0.20857 0.0
C2200 C 0.55033 0.5035 0.27687 0.0
C2201 C 0.50956 0.51992 0.29626 0.0
N2202 N 0.54854 0.49529 0.22961 0.0
N2203 N 0.50941 0.51113 0.27518 0.0
H2204 H 0.23349 0.78236 0.9418 0.0
H2205 H 0.26264 0.78442 0.06843 0.0
H2206 H 0.30171 0.76101 0.9644 0.0
H2207 H 0.19534 0.75989 0.0462 0.0
H2208 H 0.27748 0.78047 0.0304 0.0
H2209 H 0.21882 0.77866 0.9799 0.0
C2210 C 0.24532 0.77672 0.95477 0.0
C2211 C 0.26884 0.77198 0.95 0.0
C2212 C 0.25955 0.77573 0.03394 0.0
C2213 C 0.25232 0.76827 0.99355 0.0
C2214 C 0.25104 0.77807 0.05556 0.0
C2215 C 0.22772 0.77249 0.06043 0.0
C2216 C 0.24445 0.76843 0.01696 0.0
C2217 C 0.21345 0.76428 0.04315 0.0
C2218 C 0.23693 0.77453 0.97644 0.0
C2219 C 0.28343 0.76469 0.9674 0.0
N2220 N 0.22193 0.76288 0.02207 0.0
N2221 N 0.27504 0.76346 0.98852 0.0
H2222 H 0.00013 0.52682 0.70348 0.0
H2223 H 0.92666 0.4862 0.80812 0.0
H2224 H 0.92754 0.50679 0.69983 0.0
H2225 H -0.00038 0.46784 0.80324 0.0
H2226 H 0.92789 0.50085 0.7702 0.0
H2227 H 0.00152 0.51158 0.74177 0.0
C2228 C 0.98454 0.51927 0.71069 0.0
C2229 C 0.96368 0.51811 0.69842 0.0
C2230 C 0.94365 0.49362 0.7774 0.0
C2231 C 0.96511 0.5011 0.74205 0.0
C2232 C 0.94302 0.48532 0.79912 0.0
C2233 C 0.96306 0.47565 0.8089 0.0
C2234 C 0.96456 0.49271 0.76534 0.0
C2235 C 0.98373 0.47501 0.79629 0.0
C2236 C 0.98539 0.5105 0.73244 0.0
C2237 C 0.94402 0.50803 0.70856 0.0
N2238 N 0.98401 0.48357 0.77513 0.0
N2239 N 0.94518 0.50016 0.72978 0.0
H2240 H 0.20222 0.37669 0.17087 0.0
H2241 H 0.12519 0.45098 0.08855 0.0
H2242 H 0.20274 0.36644 0.09993 0.0
H2243 H 0.11329 0.44955 0.15923 0.0
H2244 H 0.15079 0.41707 0.09217 0.0
H2245 H 0.16704 0.40056 0.16714 0.0
C2246 C 0.19466 0.3792 0.15455 0.0
C2247 C 0.20526 0.36959 0.13569 0.0
C2248 C 0.14222 0.42384 0.10685 0.0
C2249 C 0.16537 0.39706 0.13121 0.0
C2250 C 0.12767 0.44319 0.10478 0.0
C2251 C 0.11718 0.45295 0.12361 0.0
C2252 C 0.14672 0.41458 0.12801 0.0
C2253 C 0.12086 0.44232 0.14427 0.0
C2254 C 0.17456 0.39272 0.15243 0.0
C2255 C 0.19488 0.37326 0.11492 0.0
N2256 N 0.13566 0.42388 0.14598 0.0
N2257 N 0.17565 0.387 0.11319 0.0
H2258 H 0.88106 0.95132 0.34937 0.0
H2259 H 0.79102 0.86652 0.41044 0.0
H2260 H 0.86643 0.95343 0.41961 0.0
H2261 H 0.79245 0.87791 0.33965 0.0
H2262 H 0.8259 0.89081 0.41422 0.0
H2263 H 0.85601 0.91692 0.34599 0.0
C2264 C 0.8731 0.94415 0.36418 0.0
C2265 C 0.87581 0.9551 0.38482 0.0
C2266 C 0.8188 0.88766 0.39782 0.0
C2267 C 0.84684 0.91622 0.381 0.0
C2268 C 0.79904 0.87363 0.39564 0.0
C2269 C 0.78898 0.87019 0.37469 0.0
C2270 C 0.82844 0.8983 0.37892 0.0
C2271 C 0.79968 0.88032 0.35611 0.0
C2272 C 0.85863 0.92467 0.36221 0.0
C2273 C 0.86461 0.94549 0.40338 0.0
N2274 N 0.81879 0.89406 0.35867 0.0
N2275 N 0.85046 0.92666 0.40102 0.0
H2276 H 0.29134 0.62793 0.59868 0.0
H2277 H 0.38186 0.5431 0.65896 0.0
H2278 H 0.29302 0.61601 0.66939 0.0
H2279 H 0.36645 0.54097 0.58888 0.0
H2280 H 0.357 0.57763 0.66255 0.0
H2281 H 0.32639 0.60393 0.59466 0.0
C2282 C 0.29945 0.62077 0.61342 0.0
C2283 C 0.28941 0.62395 0.63441 0.0
C2284 C 0.35942 0.56985 0.64633 0.0
C2285 C 0.32906 0.59618 0.6299 0.0
C2286 C 0.37377 0.5503 0.64423 0.0
C2287 C 0.37618 0.5393 0.62358 0.0
C2288 C 0.34745 0.57831 0.62763 0.0
C2289 C 0.36484 0.54894 0.60512 0.0
C2290 C 0.31931 0.60691 0.61109 0.0
C2291 C 0.30023 0.61378 0.6529 0.0
N2292 N 0.35081 0.56784 0.6076 0.0
N2293 N 0.31943 0.6002 0.65021 0.0
H2294 H 0.62658 0.04043 0.91865 0.0
H2295 H 0.70446 0.11618 0.83762 0.0
H2296 H 0.61731 0.04099 0.84759 0.0
H2297 H 0.70441 0.12517 0.90871 0.0
H2298 H 0.66983 0.09147 0.84077 0.0
H2299 H 0.65231 0.07431 0.9155 0.0
C2300 C 0.62971 0.04798 0.90242 0.0
C2301 C 0.61983 0.03803 0.88336 0.0
C2302 C 0.67711 0.09919 0.85566 0.0
C2303 C 0.64947 0.07643 0.87954 0.0
C2304 C 0.69689 0.11321 0.85386 0.0
C2305 C 0.70718 0.12271 0.87292 0.0
C2306 C 0.6679 0.09427 0.87675 0.0
C2307 C 0.69678 0.11843 0.89358 0.0
C2308 C 0.64431 0.06733 0.90062 0.0
C2309 C 0.62433 0.04837 0.86272 0.0
N2310 N 0.67785 0.10424 0.89498 0.0
N2311 N 0.63911 0.06686 0.86131 0.0
H2312 H 0.12782 0.5412 0.41885 0.0
H2313 H 0.20086 0.6201 0.33761 0.0
H2314 H 0.11353 0.54516 0.34866 0.0
H2315 H 0.20118 0.62983 0.4086 0.0
H2316 H 0.16644 0.59513 0.3412 0.0
H2317 H 0.15222 0.57607 0.41579 0.0
C2318 C 0.12953 0.54972 0.40286 0.0
C2319 C 0.11871 0.54041 0.38398 0.0
C2320 C 0.17372 0.60311 0.35596 0.0
C2321 C 0.14685 0.57992 0.38022 0.0
C2322 C 0.19337 0.61727 0.35391 0.0
C2323 C 0.20375 0.627 0.37283 0.0
C2324 C 0.16478 0.59821 0.37716 0.0
C2325 C 0.19349 0.62289 0.39358 0.0
C2326 C 0.14337 0.56963 0.40112 0.0
C2327 C 0.12138 0.55199 0.36365 0.0
N2328 N 0.17474 0.60847 0.39524 0.0
N2329 N 0.13552 0.57098 0.36222 0.0
H2330 H 0.60523 0.93965 0.62872 0.0
H2331 H 0.74247 0.91368 0.63159 0.0
H2332 H 0.65877 0.99143 0.61784 0.0
H2333 H 0.69081 0.85897 0.63437 0.0
H2334 H 0.71139 0.94245 0.62774 0.0
H2335 H 0.6357 0.90967 0.63217 0.0
C2336 C 0.62339 0.94472 0.62738 0.0
C2337 C 0.6296 0.96805 0.62343 0.0
C2338 C 0.70675 0.92415 0.629 0.0
C2339 C 0.66429 0.93403 0.62683 0.0
C2340 C 0.7245 0.90777 0.63121 0.0
C2341 C 0.7191 0.884 0.63288 0.0
C2342 C 0.68337 0.91675 0.62876 0.0
C2343 C 0.6956 0.87716 0.63253 0.0
C2344 C 0.64072 0.92762 0.6291 0.0
C2345 C 0.65327 0.97364 0.62101 0.0
N2346 N 0.67849 0.89351 0.63054 0.0
N2347 N 0.66974 0.95678 0.62284 0.0
H2348 H 0.34271 0.47651 0.91226 0.0
H2349 H 0.29704 0.37186 0.84205 0.0
H2350 H 0.39034 0.43963 0.86905 0.0
H2351 H 0.27624 0.37973 0.91043 0.0
H2352 H 0.32906 0.39968 0.8484 0.0
H2353 H 0.3153 0.44401 0.90913 0.0
C2354 C 0.34738 0.4617 0.90198 0.0
C2355 C 0.3685 0.4613 0.89015 0.0
C2356 C 0.31767 0.39499 0.86205 0.0
C2357 C 0.33716 0.42425 0.8865 0.0
C2358 C 0.29947 0.37928 0.85844 0.0
C2359 C 0.2843 0.37355 0.87582 0.0
C2360 C 0.32004 0.40549 0.88296 0.0
C2361 C 0.28787 0.3836 0.89674 0.0
C2362 C 0.33176 0.44317 0.9003 0.0
C2363 C 0.37374 0.44142 0.87741 0.0
N2364 N 0.30522 0.39945 0.89968 0.0
N2365 N 0.35797 0.4238 0.8756 0.0
H2366 H 0.86737 0.0393 0.08737 0.0
H2367 H 0.79195 0.11491 0.1703 0.0
H2368 H 0.87941 0.04027 0.15805 0.0
H2369 H 0.79108 0.12513 0.09936 0.0
H2370 H 0.82643 0.09008 0.16631 0.0
H2371 H 0.84195 0.07334 0.09122 0.0
C2372 C 0.86493 0.04699 0.10365 0.0
C2373 C 0.87547 0.0371 0.12241 0.0
C2374 C 0.81899 0.09812 0.15165 0.0
C2375 C 0.84618 0.07565 0.12705 0.0
C2376 C 0.79929 0.11219 0.15393 0.0
C2377 C 0.7888 0.12209 0.13514 0.0
C2378 C 0.82788 0.09352 0.13037 0.0
C2379 C 0.79889 0.11811 0.11429 0.0
C2380 C 0.8505 0.06642 0.10585 0.0
C2381 C 0.87185 0.04761 0.14314 0.0
N2382 N 0.81772 0.10385 0.11242 0.0
N2383 N 0.85719 0.06615 0.14496 0.0
H2384 H 0.87963 0.5423 0.85008 0.0
H2385 H 0.79059 0.6283 0.91109 0.0
H2386 H 0.86545 0.5407 0.9204 0.0
H2387 H 0.7918 0.61666 0.84034 0.0
H2388 H 0.82513 0.60348 0.91491 0.0
H2389 H 0.85473 0.5768 0.84665 0.0
C2390 C 0.8718 0.5496 0.86489 0.0
C2391 C 0.87462 0.53877 0.88558 0.0
C2392 C 0.81805 0.60669 0.89851 0.0
C2393 C 0.84578 0.57777 0.88171 0.0
C2394 C 0.79849 0.62101 0.89631 0.0
C2395 C 0.78847 0.62455 0.87535 0.0
C2396 C 0.82753 0.59586 0.87963 0.0
C2397 C 0.799 0.6142 0.8568 0.0
C2398 C 0.8574 0.56913 0.86289 0.0
C2399 C 0.86355 0.54853 0.90414 0.0
N2400 N 0.81791 0.60019 0.85937 0.0
N2401 N 0.84947 0.56742 0.90175 0.0
H2402 H 0.11192 0.04602 0.65768 0.0
H2403 H 0.19827 0.13479 0.59699 0.0
H2404 H 0.12796 0.0438 0.58773 0.0
H2405 H 0.1988 0.12107 0.66741 0.0
H2406 H 0.16369 0.10994 0.59327 0.0
H2407 H 0.13487 0.08189 0.661 0.0
C2408 C 0.11972 0.05345 0.64291 0.0
C2409 C 0.1181 0.04204 0.62239 0.0
C2410 C 0.17112 0.11278 0.60959 0.0
C2411 C 0.1446 0.08264 0.62613 0.0
C2412 C 0.19069 0.1271 0.61175 0.0
C2413 C 0.2013 0.12989 0.63254 0.0
C2414 C 0.16221 0.10129 0.62837 0.0
C2415 C 0.19115 0.11913 0.65107 0.0
C2416 C 0.13296 0.07379 0.64485 0.0
C2417 C 0.129 0.05206 0.60387 0.0
N2418 N 0.17223 0.10513 0.64853 0.0
N2419 N 0.14196 0.07175 0.6062 0.0
H2420 H 0.62921 0.46894 0.34771 0.0
H2421 H 0.69009 0.35317 0.39032 0.0
H2422 H 0.62059 0.44603 0.41541 0.0
H2423 H 0.72665 0.40377 0.35001 0.0
H2424 H 0.65749 0.38052 0.39371 0.0
H2425 H 0.65782 0.43755 0.34187 0.0
C2426 C 0.633 0.45695 0.36115 0.0
C2427 C 0.62266 0.45983 0.38203 0.0
C2428 C 0.67277 0.38551 0.38422 0.0
C2429 C 0.65491 0.42424 0.37549 0.0
C2430 C 0.69159 0.37014 0.38261 0.0
C2431 C 0.71173 0.37664 0.37081 0.0
C2432 C 0.67377 0.40703 0.37322 0.0
C2433 C 0.71171 0.39819 0.35966 0.0
C2434 C 0.64934 0.43925 0.35787 0.0
C2435 C 0.62834 0.44422 0.3991 0.0
N2436 N 0.69301 0.41264 0.36114 0.0
N2437 N 0.64412 0.42694 0.39546 0.0
H2438 H 0.33248 0.99052 0.11901 0.0
H2439 H 0.30704 0.85367 0.13082 0.0
H2440 H 0.38748 0.93964 0.12662 0.0
H2441 H 0.25441 0.90744 0.13441 0.0
H2442 H 0.33702 0.88407 0.12639 0.0
H2443 H 0.30368 0.95937 0.12172 0.0
C2444 C 0.33845 0.97272 0.12138 0.0
C2445 C 0.36228 0.96762 0.12306 0.0
C2446 C 0.31889 0.88915 0.12803 0.0
C2447 C 0.32949 0.93181 0.126 0.0
C2448 C 0.30182 0.87186 0.13033 0.0
C2449 C 0.2783 0.87819 0.13261 0.0
C2450 C 0.3122 0.91277 0.12803 0.0
C2451 C 0.27239 0.90191 0.13259 0.0
C2452 C 0.32203 0.95495 0.12296 0.0
C2453 C 0.36917 0.9443 0.1259 0.0
N2454 N 0.28922 0.91833 0.13027 0.0
N2455 N 0.3528 0.92715 0.12729 0.0
H2456 H 0.7917 0.37643 0.67008 0.0
H2457 H 0.86644 0.45232 0.58669 0.0
H2458 H 0.79028 0.36644 0.59912 0.0
H2459 H 0.8782 0.45196 0.65741 0.0
H2460 H 0.84126 0.41812 0.59068 0.0
H2461 H 0.82602 0.40143 0.6659 0.0
C2462 C 0.79889 0.37924 0.65365 0.0
C2463 C 0.78829 0.36935 0.63492 0.0
C2464 C 0.8497 0.42521 0.60529 0.0
C2465 C 0.82719 0.39813 0.62994 0.0
C2466 C 0.86401 0.44473 0.60301 0.0
C2467 C 0.8744 0.45483 0.62174 0.0
C2468 C 0.84537 0.41611 0.62654 0.0
C2469 C 0.87077 0.44446 0.64252 0.0
C2470 C 0.81849 0.39342 0.65127 0.0
C2471 C 0.79818 0.37345 0.61401 0.0
N2472 N 0.85625 0.42581 0.64441 0.0
N2473 N 0.81693 0.38781 0.61204 0.0
H2474 H 0.29097 0.11855 0.34113 0.0
H2475 H 0.36861 0.04267 0.42134 0.0
H2476 H 0.29225 0.12885 0.41205 0.0
H2477 H 0.37954 0.0451 0.35054 0.0
H2478 H 0.34342 0.07699 0.41854 0.0
H2479 H 0.32601 0.09439 0.34408 0.0
C2480 C 0.29891 0.11598 0.35729 0.0
C2481 C 0.28882 0.12564 0.37638 0.0
C2482 C 0.3517 0.07035 0.40366 0.0
C2483 C 0.32856 0.09781 0.37997 0.0
C2484 C 0.36601 0.05075 0.40526 0.0
C2485 C 0.37611 0.04115 0.38614 0.0
C2486 C 0.34704 0.08001 0.38271 0.0
C2487 C 0.37229 0.05218 0.3657 0.0
C2488 C 0.31893 0.1023 0.35896 0.0
C2489 C 0.29969 0.12191 0.39691 0.0
N2490 N 0.35772 0.07085 0.36446 0.0
N2491 N 0.31882 0.10796 0.39822 0.0
H2492 H 0.70277 0.61724 0.17021 0.0
H2493 H 0.62905 0.53998 0.08744 0.0
H2494 H 0.70418 0.62682 0.0992 0.0
H2495 H 0.61635 0.54162 0.158 0.0
H2496 H 0.65387 0.57447 0.09112 0.0
H2497 H 0.66848 0.59219 0.16617 0.0
C2498 C 0.69557 0.61433 0.1538 0.0
C2499 C 0.70617 0.62409 0.13501 0.0
C2500 C 0.6453 0.5676 0.10575 0.0
C2501 C 0.66732 0.59526 0.13018 0.0
C2502 C 0.6312 0.54791 0.10365 0.0
C2503 C 0.62066 0.53808 0.12243 0.0
C2504 C 0.64928 0.57714 0.12689 0.0
C2505 C 0.62392 0.5489 0.14307 0.0
C2506 C 0.67598 0.60013 0.1515 0.0
C2507 C 0.69628 0.61988 0.11412 0.0
N2508 N 0.63825 0.56769 0.1448 0.0
N2509 N 0.67756 0.60548 0.11223 0.0
H2510 H 0.11504 0.94922 0.85053 0.0
H2511 H 0.20228 0.8629 0.91334 0.0
H2512 H 0.12794 0.95091 0.92107 0.0
H2513 H 0.20367 0.8758 0.84279 0.0
H2514 H 0.16724 0.88719 0.91631 0.0
H2515 H 0.13957 0.91437 0.84764 0.0
C2516 C 0.1225 0.94187 0.86549 0.0
C2517 C 0.1195 0.95284 0.88608 0.0
C2518 C 0.17499 0.88434 0.90013 0.0
C2519 C 0.14784 0.91345 0.88284 0.0
C2520 C 0.19484 0.87035 0.89841 0.0
C2521 C 0.20576 0.86739 0.87778 0.0
C2522 C 0.16613 0.8954 0.8811 0.0
C2523 C 0.19578 0.87785 0.85902 0.0
C2524 C 0.13666 0.92213 0.8638 0.0
C2525 C 0.13002 0.94298 0.90487 0.0
N2526 N 0.17658 0.89155 0.86113 0.0
N2527 N 0.14389 0.92389 0.90279 0.0
loop_
_geom_bond_atom_site_label_1
_geom_bond_atom_site_label_2
_geom_bond_distance
_geom_bond_site_symmetry_2
_ccdc_geom_bond_type
Co0 O3 1.970 . S
Co0 N17 1.989 . S
Co0 O25 1.967 . S
Co0 O32 1.920 . S
Co1 O4 1.966 . S
Co1 N10 2.022 . S
Co1 N18 1.993 . S
Co1 O26 1.941 . S
C2 O3 1.258 . S
C2 O4 1.263 . S
O3 Co0 1.970 . S
O3 C2 1.258 . S
O4 Co1 1.966 . S
O4 C2 1.263 . S
C5 O6 1.235 . S
C5 O32 1.289 . S
O6 C5 1.235 . S
C7 C9 1.400 . S
C7 N10 1.351 . S
C7 C12 1.501 . S
C8 C9 1.387 . S
C8 N11 1.341 . S
C9 C7 1.400 . S
C9 C8 1.387 . S
N10 Co1 2.022 . S
N10 C7 1.351 . S
N10 N11 1.365 . S
N11 C8 1.341 . S
N11 N10 1.365 . S
N11 H31 0.862 . S
C12 C7 1.501 . S
C12 H13 0.961 . S
C12 H14 0.961 . S
C12 H15 0.960 . S
H13 C12 0.961 . S
H14 C12 0.961 . S
H15 C12 0.960 . S
C16 N17 1.342 . S
C16 C20 1.401 . S
C16 C21 1.499 . S
N17 Co0 1.989 . S
N17 C16 1.342 . S
N17 N18 1.388 . S
N18 Co1 1.993 . S
N18 N17 1.388 . S
N18 C19 1.346 . S
C19 N18 1.346 . S
C19 C20 1.396 . S
C19 C29 1.510 . S
C20 C16 1.401 . S
C20 C19 1.396 . S
C21 C16 1.499 . S
C21 H22 0.959 . S
C21 H23 0.960 . S
C21 H24 0.961 . S
H22 C21 0.959 . S
H23 C21 0.960 . S
H24 C21 0.961 . S
O25 Co0 1.967 . S
O25 C33 1.258 . S
O26 Co1 1.941 . S
O26 C33 1.266 . S
H27 C29 0.959 . S
H28 C29 0.961 . S
C29 C19 1.510 . S
C29 H27 0.959 . S
C29 H28 0.961 . S
C29 H30 0.960 . S
H30 C29 0.960 . S
H31 N11 0.862 . S
O32 Co0 1.920 . S
O32 C5 1.289 . S
C33 O25 1.258 . S
C33 O26 1.266 . S
Co34 O37 1.970 . S
Co34 N51 1.989 . S
Co34 O59 1.967 . S
Co34 O66 1.920 1_655 S
Co35 O38 1.966 . S
Co35 N44 2.022 . S
Co35 N52 1.993 . S
Co35 O60 1.941 . S
C36 O37 1.258 . S
C36 O38 1.263 . S
O37 Co34 1.970 . S
O37 C36 1.258 . S
O38 Co35 1.966 . S
O38 C36 1.263 . S
C39 O40 1.235 . S
C39 O66 1.289 . S
O40 C39 1.235 . S
C41 C43 1.400 . S
C41 N44 1.351 1_565 S
C41 C46 1.501 . S
C42 C43 1.387 . S
C42 N45 1.341 1_565 S
C43 C41 1.400 . S
C43 C42 1.387 . S
N44 Co35 2.022 . S
N44 C41 1.351 1_545 S
N44 N45 1.365 . S
N45 C42 1.341 1_545 S
N45 N44 1.365 . S
N45 H65 0.862 . S
C46 C41 1.501 . S
C46 H47 0.961 . S
C46 H48 0.961 . S
C46 H49 0.960 . S
H47 C46 0.961 . S
H48 C46 0.961 . S
H49 C46 0.960 . S
C50 N51 1.342 . S
C50 C54 1.401 . S
C50 C55 1.499 1_655 S
N51 Co34 1.989 . S
N51 C50 1.342 . S
N51 N52 1.388 . S
N52 Co35 1.993 . S
N52 N51 1.388 . S
N52 C53 1.346 . S
C53 N52 1.346 . S
C53 C54 1.396 . S
C53 C63 1.510 1_545 S
C54 C50 1.401 . S
C54 C53 1.396 . S
C55 C50 1.499 1_455 S
C55 H56 0.959 . S
C55 H57 0.960 . S
C55 H58 0.961 . S
H56 C55 0.959 . S
H57 C55 0.960 . S
H58 C55 0.961 . S
O59 Co34 1.967 . S
O59 C67 1.258 . S
O60 Co35 1.941 . S
O60 C67 1.266 . S
H61 C63 0.959 . S
H62 C63 0.961 . S
C63 C53 1.510 1_565 S
C63 H61 0.959 . S
C63 H62 0.961 . S
C63 H64 0.960 . S
H64 C63 0.960 . S
H65 N45 0.862 . S
O66 Co34 1.920 1_455 S
O66 C39 1.289 . S
C67 O59 1.258 . S
C67 O60 1.266 . S
Co68 O71 1.970 . S
Co68 N85 1.989 . S
Co68 O93 1.967 . S
Co68 O100 1.920 . S
Co69 O72 1.966 . S
Co69 N78 2.022 . S
Co69 N86 1.993 . S
Co69 O94 1.941 . S
C70 O71 1.258 . S
C70 O72 1.263 . S
O71 Co68 1.970 . S
O71 C70 1.258 . S
O72 Co69 1.966 . S
O72 C70 1.263 . S
C73 O74 1.235 . S
C73 O100 1.289 . S
O74 C73 1.235 . S
C75 C77 1.400 . S
C75 N78 1.351 . S
C75 C80 1.501 . S
C76 C77 1.387 . S
C76 N79 1.341 . S
C77 C75 1.400 . S
C77 C76 1.387 . S
N78 Co69 2.022 . S
N78 C75 1.351 . S
N78 N79 1.365 . S
N79 C76 1.341 . S
N79 N78 1.365 . S
N79 H99 0.862 . S
C80 C75 1.501 . S
C80 H81 0.961 . S
C80 H82 0.961 . S
C80 H83 0.960 . S
H81 C80 0.961 . S
H82 C80 0.961 . S
H83 C80 0.960 . S
C84 N85 1.342 . S
C84 C88 1.401 . S
C84 C89 1.499 . S
N85 Co68 1.989 . S
N85 C84 1.342 . S
N85 N86 1.388 . S
N86 Co69 1.993 . S
N86 N85 1.388 . S
N86 C87 1.346 . S
C87 N86 1.346 . S
C87 C88 1.396 . S
C87 C97 1.510 . S
C88 C84 1.401 . S
C88 C87 1.396 . S
C89 C84 1.499 . S
C89 H90 0.959 . S
C89 H91 0.960 . S
C89 H92 0.961 . S
H90 C89 0.959 . S
H91 C89 0.960 . S
H92 C89 0.961 . S
O93 Co68 1.967 . S
O93 C101 1.258 . S
O94 Co69 1.941 . S
O94 C101 1.266 . S
H95 C97 0.959 . S
H96 C97 0.961 . S
C97 C87 1.510 . S
C97 H95 0.959 . S
C97 H96 0.961 . S
C97 H98 0.960 . S
H98 C97 0.960 . S
H99 N79 0.862 . S
O100 Co68 1.920 . S
O100 C73 1.289 . S
C101 O93 1.258 . S
C101 O94 1.266 . S
Co102 O105 1.970 . S
Co102 N119 1.989 . S
Co102 O127 1.967 . S
Co102 O134 1.920 . S
Co103 O106 1.966 . S
Co103 N112 2.022 . S
Co103 N120 1.993 . S
Co103 O128 1.941 . S
C104 O105 1.258 . S
C104 O106 1.263 . S
O105 Co102 1.970 . S
O105 C104 1.258 . S
O106 Co103 1.966 . S
O106 C104 1.263 . S
C107 O108 1.235 . S
C107 O134 1.289 . S
O108 C107 1.235 . S
C109 C111 1.400 . S
C109 N112 1.351 1_545 S
C109 C114 1.501 . S
C110 C111 1.387 . S
C110 N113 1.341 1_545 S
C111 C109 1.400 . S
C111 C110 1.387 . S
N112 Co103 2.022 . S
N112 C109 1.351 1_565 S
N112 N113 1.365 . S
N113 C110 1.341 1_565 S
N113 N112 1.365 . S
N113 H133 0.862 . S
C114 C109 1.501 . S
C114 H115 0.961 . S
C114 H116 0.961 . S
C114 H117 0.960 . S
H115 C114 0.961 . S
H116 C114 0.961 . S
H117 C114 0.960 . S
C118 N119 1.342 . S
C118 C122 1.401 . S
C118 C123 1.499 . S
N119 Co102 1.989 . S
N119 C118 1.342 . S
N119 N120 1.388 . S
N120 Co103 1.993 . S
N120 N119 1.388 . S
N120 C121 1.346 . S
C121 N120 1.346 . S
C121 C122 1.396 . S
C121 C131 1.510 1_565 S
C122 C118 1.401 . S
C122 C121 1.396 . S
C123 C118 1.499 . S
C123 H124 0.959 . S
C123 H125 0.960 . S
C123 H126 0.961 . S
H124 C123 0.959 . S
H125 C123 0.960 . S
H126 C123 0.961 . S
O127 Co102 1.967 . S
O127 C135 1.258 . S
O128 Co103 1.941 . S
O128 C135 1.266 . S
H129 C131 0.959 . S
H130 C131 0.961 . S
C131 C121 1.510 1_545 S
C131 H129 0.959 . S
C131 H130 0.961 . S
C131 H132 0.960 . S
H132 C131 0.960 . S
H133 N113 0.862 . S
O134 Co102 1.920 . S
O134 C107 1.289 . S
C135 O127 1.258 . S
C135 O128 1.266 . S
Co136 O139 1.970 . S
Co136 N153 1.989 . S
Co136 O161 1.967 . S
Co136 O168 1.920 . S
Co137 O140 1.966 . S
Co137 N146 2.022 . S
Co137 N154 1.993 . S
Co137 O162 1.941 . S
C138 O139 1.258 . S
C138 O140 1.263 . S
O139 Co136 1.970 . S
O139 C138 1.258 . S
O140 Co137 1.966 . S
O140 C138 1.263 . S
C141 O142 1.235 . S
C141 O168 1.289 . S
O142 C141 1.235 . S
C143 C145 1.400 . S
C143 N146 1.351 . S
C143 C148 1.501 . S
C144 C145 1.387 . S
C144 N147 1.341 . S
C145 C143 1.400 . S
C145 C144 1.387 . S
N146 Co137 2.022 . S
N146 C143 1.351 . S
N146 N147 1.365 . S
N147 C144 1.341 . S
N147 N146 1.365 . S
N147 H167 0.862 . S
C148 C143 1.501 . S
C148 H149 0.961 . S
C148 H150 0.961 . S
C148 H151 0.960 . S
H149 C148 0.961 . S
H150 C148 0.961 . S
H151 C148 0.960 . S
C152 N153 1.342 . S
C152 C156 1.401 . S
C152 C157 1.499 . S
N153 Co136 1.989 . S
N153 C152 1.342 . S
N153 N154 1.388 . S
N154 Co137 1.993 . S
N154 N153 1.388 . S
N154 C155 1.346 . S
C155 N154 1.346 . S
C155 C156 1.396 . S
C155 C165 1.510 . S
C156 C152 1.401 . S
C156 C155 1.396 . S
C157 C152 1.499 . S
C157 H158 0.959 . S
C157 H159 0.960 . S
C157 H160 0.961 . S
H158 C157 0.959 . S
H159 C157 0.960 . S
H160 C157 0.961 . S
O161 Co136 1.967 . S
O161 C169 1.258 . S
O162 Co137 1.941 . S
O162 C169 1.266 . S
H163 C165 0.959 . S
H164 C165 0.961 . S
C165 C155 1.510 . S
C165 H163 0.959 . S
C165 H164 0.961 . S
C165 H166 0.960 . S
H166 C165 0.960 . S
H167 N147 0.862 . S
O168 Co136 1.920 . S
O168 C141 1.289 . S
C169 O161 1.258 . S
C169 O162 1.266 . S
Co170 O173 1.970 . S
Co170 N187 1.989 . S
Co170 O195 1.967 . S
Co170 O202 1.920 . S
Co171 O174 1.966 . S
Co171 N180 2.022 . S
Co171 N188 1.993 . S
Co171 O196 1.941 . S
C172 O173 1.258 . S
C172 O174 1.263 . S
O173 Co170 1.970 . S
O173 C172 1.258 . S
O174 Co171 1.966 . S
O174 C172 1.263 . S
C175 O176 1.235 . S
C175 O202 1.289 . S
O176 C175 1.235 . S
C177 C179 1.400 . S
C177 N180 1.351 1_565 S
C177 C182 1.501 . S
C178 C179 1.387 . S
C178 N181 1.341 1_565 S
C179 C177 1.400 . S
C179 C178 1.387 . S
N180 Co171 2.022 . S
N180 C177 1.351 1_545 S
N180 N181 1.365 . S
N181 C178 1.341 1_545 S
N181 N180 1.365 . S
N181 H201 0.862 . S
C182 C177 1.501 . S
C182 H183 0.961 . S
C182 H184 0.961 . S
C182 H185 0.960 . S
H183 C182 0.961 . S
H184 C182 0.961 . S
H185 C182 0.960 . S
C186 N187 1.342 . S
C186 C190 1.401 . S
C186 C191 1.499 . S
N187 Co170 1.989 . S
N187 C186 1.342 . S
N187 N188 1.388 . S
N188 Co171 1.993 . S
N188 N187 1.388 . S
N188 C189 1.346 . S
C189 N188 1.346 . S
C189 C190 1.396 . S
C189 C199 1.510 1_545 S
C190 C186 1.401 . S
C190 C189 1.396 . S
C191 C186 1.499 . S
C191 H192 0.959 . S
C191 H193 0.960 . S
C191 H194 0.961 . S
H192 C191 0.959 . S
H193 C191 0.960 . S
H194 C191 0.961 . S
O195 Co170 1.967 . S
O195 C203 1.258 . S
O196 Co171 1.941 . S
O196 C203 1.266 . S
H197 C199 0.959 . S
H198 C199 0.961 . S
C199 C189 1.510 1_565 S
C199 H197 0.959 . S
C199 H198 0.961 . S
C199 H200 0.960 . S
H200 C199 0.960 . S
H201 N181 0.862 . S
O202 Co170 1.920 . S
O202 C175 1.289 . S
C203 O195 1.258 . S
C203 O196 1.266 . S
Co204 O207 1.970 . S
Co204 N221 1.989 . S
Co204 O229 1.967 . S
Co204 O236 1.920 . S
Co205 O208 1.966 . S
Co205 N214 2.022 . S
Co205 N222 1.993 . S
Co205 O230 1.941 . S
C206 O207 1.258 . S
C206 O208 1.263 . S
O207 Co204 1.970 . S
O207 C206 1.258 . S
O208 Co205 1.966 . S
O208 C206 1.263 . S
C209 O210 1.235 . S
C209 O236 1.289 . S
O210 C209 1.235 . S
C211 C213 1.400 . S
C211 N214 1.351 . S
C211 C216 1.501 . S
C212 C213 1.387 . S
C212 N215 1.341 . S
C213 C211 1.400 . S
C213 C212 1.387 . S
N214 Co205 2.022 . S
N214 C211 1.351 . S
N214 N215 1.365 . S
N215 C212 1.341 . S
N215 N214 1.365 . S
N215 H235 0.862 . S
C216 C211 1.501 . S
C216 H217 0.961 . S
C216 H218 0.961 . S
C216 H219 0.960 . S
H217 C216 0.961 . S
H218 C216 0.961 . S
H219 C216 0.960 . S
C220 N221 1.342 . S
C220 C224 1.401 . S
C220 C225 1.499 . S
N221 Co204 1.989 . S
N221 C220 1.342 . S
N221 N222 1.388 . S
N222 Co205 1.993 . S
N222 N221 1.388 . S
N222 C223 1.346 . S
C223 N222 1.346 . S
C223 C224 1.396 . S
C223 C233 1.510 . S
C224 C220 1.401 . S
C224 C223 1.396 . S
C225 C220 1.499 . S
C225 H226 0.959 . S
C225 H227 0.960 . S
C225 H228 0.961 . S
H226 C225 0.959 . S
H227 C225 0.960 . S
H228 C225 0.961 . S
O229 Co204 1.967 . S
O229 C237 1.258 . S
O230 Co205 1.941 . S
O230 C237 1.266 . S
H231 C233 0.959 . S
H232 C233 0.961 . S
C233 C223 1.510 . S
C233 H231 0.959 . S
C233 H232 0.961 . S
C233 H234 0.960 . S
H234 C233 0.960 . S
H235 N215 0.862 . S
O236 Co204 1.920 . S
O236 C209 1.289 . S
C237 O229 1.258 . S
C237 O230 1.266 . S
Co238 O241 1.970 . S
Co238 N255 1.989 . S
Co238 O263 1.967 . S
Co238 O270 1.920 1_655 S
Co239 O242 1.966 . S
Co239 N248 2.022 . S
Co239 N256 1.993 . S
Co239 O264 1.941 . S
C240 O241 1.258 . S
C240 O242 1.263 . S
O241 Co238 1.970 . S
O241 C240 1.258 . S
O242 Co239 1.966 . S
O242 C240 1.263 . S
C243 O244 1.235 . S
C243 O270 1.289 . S
O244 C243 1.235 . S
C245 C247 1.400 . S
C245 N248 1.351 1_545 S
C245 C250 1.501 . S
C246 C247 1.387 . S
C246 N249 1.341 1_545 S
C247 C245 1.400 . S
C247 C246 1.387 . S
N248 Co239 2.022 . S
N248 C245 1.351 1_565 S
N248 N249 1.365 . S
N249 C246 1.341 1_565 S
N249 N248 1.365 . S
N249 H269 0.862 . S
C250 C245 1.501 . S
C250 H251 0.961 . S
C250 H252 0.961 . S
C250 H253 0.960 . S
H251 C250 0.961 . S
H252 C250 0.961 . S
H253 C250 0.960 . S
C254 N255 1.342 . S
C254 C258 1.401 . S
C254 C259 1.499 1_655 S
N255 Co238 1.989 . S
N255 C254 1.342 . S
N255 N256 1.388 . S
N256 Co239 1.993 . S
N256 N255 1.388 . S
N256 C257 1.346 . S
C257 N256 1.346 . S
C257 C258 1.396 . S
C257 C267 1.510 1_565 S
C258 C254 1.401 . S
C258 C257 1.396 . S
C259 C254 1.499 1_455 S
C259 H260 0.959 . S
C259 H261 0.960 . S
C259 H262 0.961 . S
H260 C259 0.959 . S
H261 C259 0.960 . S
H262 C259 0.961 . S
O263 Co238 1.967 . S
O263 C271 1.258 . S
O264 Co239 1.941 . S
O264 C271 1.266 . S
H265 C267 0.959 . S
H266 C267 0.961 . S
C267 C257 1.510 1_545 S
C267 H265 0.959 . S
C267 H266 0.961 . S
C267 H268 0.960 . S
H268 C267 0.960 . S
H269 N249 0.862 . S
O270 Co238 1.920 1_455 S
O270 C243 1.289 . S
C271 O263 1.258 . S
C271 O264 1.266 . S
Co272 O275 1.970 . S
Co272 N289 1.989 . S
Co272 O297 1.967 . S
Co272 O304 1.920 . S
Co273 O276 1.966 . S
Co273 N282 2.022 . S
Co273 N290 1.993 . S
Co273 O298 1.941 . S
C274 O275 1.258 . S
C274 O276 1.263 . S
O275 Co272 1.970 . S
O275 C274 1.258 . S
O276 Co273 1.966 . S
O276 C274 1.263 . S
C277 O278 1.235 . S
C277 O304 1.289 . S
O278 C277 1.235 . S
C279 C281 1.400 . S
C279 N282 1.351 . S
C279 C284 1.501 . S
C280 C281 1.387 . S
C280 N283 1.341 . S
C281 C279 1.400 . S
C281 C280 1.387 . S
N282 Co273 2.022 . S
N282 C279 1.351 . S
N282 N283 1.365 . S
N283 C280 1.341 . S
N283 N282 1.365 . S
N283 H303 0.862 . S
C284 C279 1.501 . S
C284 H285 0.961 . S
C284 H286 0.961 . S
C284 H287 0.960 . S
H285 C284 0.961 . S
H286 C284 0.961 . S
H287 C284 0.960 . S
C288 N289 1.342 . S
C288 C292 1.401 . S
C288 C293 1.499 . S
N289 Co272 1.989 . S
N289 C288 1.342 . S
N289 N290 1.388 . S
N290 Co273 1.993 . S
N290 N289 1.388 . S
N290 C291 1.346 . S
C291 N290 1.346 . S
C291 C292 1.396 . S
C291 C301 1.510 . S
C292 C288 1.401 . S
C292 C291 1.396 . S
C293 C288 1.499 . S
C293 H294 0.959 . S
C293 H295 0.960 . S
C293 H296 0.961 . S
H294 C293 0.959 . S
H295 C293 0.960 . S
H296 C293 0.961 . S
O297 Co272 1.967 . S
O297 C305 1.258 . S
O298 Co273 1.941 . S
O298 C305 1.266 . S
H299 C301 0.959 . S
H300 C301 0.961 . S
C301 C291 1.510 . S
C301 H299 0.959 . S
C301 H300 0.961 . S
C301 H302 0.960 . S
H302 C301 0.960 . S
H303 N283 0.862 . S
O304 Co272 1.920 . S
O304 C277 1.289 . S
C305 O297 1.258 . S
C305 O298 1.266 . S
Co306 O309 1.970 . S
Co306 N323 1.989 . S
Co306 O331 1.967 . S
Co306 O338 1.920 1_455 S
Co307 O310 1.966 . S
Co307 N316 2.022 . S
Co307 N324 1.993 . S
Co307 O332 1.941 . S
C308 O309 1.258 . S
C308 O310 1.263 . S
O309 Co306 1.970 . S
O309 C308 1.258 . S
O310 Co307 1.966 . S
O310 C308 1.263 . S
C311 O312 1.235 . S
C311 O338 1.289 . S
O312 C311 1.235 . S
C313 C315 1.400 . S
C313 N316 1.351 1_545 S
C313 C318 1.501 . S
C314 C315 1.387 . S
C314 N317 1.341 1_545 S
C315 C313 1.400 . S
C315 C314 1.387 . S
N316 Co307 2.022 . S
N316 C313 1.351 1_565 S
N316 N317 1.365 . S
N317 C314 1.341 1_565 S
N317 N316 1.365 . S
N317 H337 0.862 . S
C318 C313 1.501 . S
C318 H319 0.961 . S
C318 H320 0.961 . S
C318 H321 0.960 . S
H319 C318 0.961 . S
H320 C318 0.961 . S
H321 C318 0.960 . S
C322 N323 1.342 . S
C322 C326 1.401 . S
C322 C327 1.499 1_455 S
N323 Co306 1.989 . S
N323 C322 1.342 . S
N323 N324 1.388 . S
N324 Co307 1.993 . S
N324 N323 1.388 . S
N324 C325 1.346 . S
C325 N324 1.346 . S
C325 C326 1.396 . S
C325 C335 1.510 1_565 S
C326 C322 1.401 . S
C326 C325 1.396 . S
C327 C322 1.499 1_655 S
C327 H328 0.959 . S
C327 H329 0.960 . S
C327 H330 0.961 . S
H328 C327 0.959 . S
H329 C327 0.960 . S
H330 C327 0.961 . S
O331 Co306 1.967 . S
O331 C339 1.258 . S
O332 Co307 1.941 . S
O332 C339 1.266 . S
H333 C335 0.959 . S
H334 C335 0.961 . S
C335 C325 1.510 1_545 S
C335 H333 0.959 . S
C335 H334 0.961 . S
C335 H336 0.960 . S
H336 C335 0.960 . S
H337 N317 0.862 . S
O338 Co306 1.920 1_655 S
O338 C311 1.289 . S
C339 O331 1.258 . S
C339 O332 1.266 . S
Co340 O343 1.970 . S
Co340 N357 1.989 . S
Co340 O365 1.967 . S
Co340 O372 1.920 . S
Co341 O344 1.966 . S
Co341 N350 2.022 . S
Co341 N358 1.993 . S
Co341 O366 1.941 . S
C342 O343 1.258 . S
C342 O344 1.263 . S
O343 Co340 1.970 . S
O343 C342 1.258 . S
O344 Co341 1.966 . S
O344 C342 1.263 . S
C345 O346 1.235 . S
C345 O372 1.289 . S
O346 C345 1.235 . S
C347 C349 1.400 . S
C347 N350 1.351 . S
C347 C352 1.501 . S
C348 C349 1.387 . S
C348 N351 1.341 . S
C349 C347 1.400 . S
C349 C348 1.387 . S
N350 Co341 2.022 . S
N350 C347 1.351 . S
N350 N351 1.365 . S
N351 C348 1.341 . S
N351 N350 1.365 . S
N351 H371 0.862 . S
C352 C347 1.501 . S
C352 H353 0.961 . S
C352 H354 0.961 . S
C352 H355 0.960 . S
H353 C352 0.961 . S
H354 C352 0.961 . S
H355 C352 0.960 . S
C356 N357 1.342 . S
C356 C360 1.401 . S
C356 C361 1.499 . S
N357 Co340 1.989 . S
N357 C356 1.342 . S
N357 N358 1.388 . S
N358 Co341 1.993 . S
N358 N357 1.388 . S
N358 C359 1.346 . S
C359 N358 1.346 . S
C359 C360 1.396 . S
C359 C369 1.510 . S
C360 C356 1.401 . S
C360 C359 1.396 . S
C361 C356 1.499 . S
C361 H362 0.959 . S
C361 H363 0.960 . S
C361 H364 0.961 . S
H362 C361 0.959 . S
H363 C361 0.960 . S
H364 C361 0.961 . S
O365 Co340 1.967 . S
O365 C373 1.258 . S
O366 Co341 1.941 . S
O366 C373 1.266 . S
H367 C369 0.959 . S
H368 C369 0.961 . S
C369 C359 1.510 . S
C369 H367 0.959 . S
C369 H368 0.961 . S
C369 H370 0.960 . S
H370 C369 0.960 . S
H371 N351 0.862 . S
O372 Co340 1.920 . S
O372 C345 1.289 . S
C373 O365 1.258 . S
C373 O366 1.266 . S
Co374 O377 1.970 . S
Co374 N391 1.989 . S
Co374 O399 1.967 . S
Co374 O406 1.920 . S
Co375 O378 1.966 . S
Co375 N384 2.022 . S
Co375 N392 1.993 . S
Co375 O400 1.941 . S
C376 O377 1.258 . S
C376 O378 1.263 . S
O377 Co374 1.970 . S
O377 C376 1.258 . S
O378 Co375 1.966 . S
O378 C376 1.263 . S
C379 O380 1.235 . S
C379 O406 1.289 . S
O380 C379 1.235 . S
C381 C383 1.400 . S
C381 N384 1.351 1_565 S
C381 C386 1.501 . S
C382 C383 1.387 . S
C382 N385 1.341 1_565 S
C383 C381 1.400 . S
C383 C382 1.387 . S
N384 Co375 2.022 . S
N384 C381 1.351 1_545 S
N384 N385 1.365 . S
N385 C382 1.341 1_545 S
N385 N384 1.365 . S
N385 H405 0.862 . S
C386 C381 1.501 . S
C386 H387 0.961 . S
C386 H388 0.961 . S
C386 H389 0.960 . S
H387 C386 0.961 . S
H388 C386 0.961 . S
H389 C386 0.960 . S
C390 N391 1.342 . S
C390 C394 1.401 . S
C390 C395 1.499 . S
N391 Co374 1.989 . S
N391 C390 1.342 . S
N391 N392 1.388 . S
N392 Co375 1.993 . S
N392 N391 1.388 . S
N392 C393 1.346 . S
C393 N392 1.346 . S
C393 C394 1.396 . S
C393 C403 1.510 1_545 S
C394 C390 1.401 . S
C394 C393 1.396 . S
C395 C390 1.499 . S
C395 H396 0.959 . S
C395 H397 0.960 . S
C395 H398 0.961 . S
H396 C395 0.959 . S
H397 C395 0.960 . S
H398 C395 0.961 . S
O399 Co374 1.967 . S
O399 C407 1.258 . S
O400 Co375 1.941 . S
O400 C407 1.266 . S
H401 C403 0.959 . S
H402 C403 0.961 . S
C403 C393 1.510 1_565 S
C403 H401 0.959 . S
C403 H402 0.961 . S
C403 H404 0.960 . S
H404 C403 0.960 . S
H405 N385 0.862 . S
O406 Co374 1.920 . S
O406 C379 1.289 . S
C407 O399 1.258 . S
C407 O400 1.266 . S
Co408 O411 1.970 . S
Co408 N425 1.989 . S
Co408 O433 1.967 . S
Co408 O440 1.920 . S
Co409 O412 1.966 . S
Co409 N418 2.022 . S
Co409 N426 1.993 . S
Co409 O434 1.941 . S
C410 O411 1.258 . S
C410 O412 1.263 . S
O411 Co408 1.970 . S
O411 C410 1.258 . S
O412 Co409 1.966 . S
O412 C410 1.263 . S
C413 O414 1.235 . S
C413 O440 1.289 . S
O414 C413 1.235 . S
C415 C417 1.400 . S
C415 N418 1.351 . S
C415 C420 1.501 . S
C416 C417 1.387 . S
C416 N419 1.341 . S
C417 C415 1.400 . S
C417 C416 1.387 . S
N418 Co409 2.022 . S
N418 C415 1.351 . S
N418 N419 1.365 . S
N419 C416 1.341 . S
N419 N418 1.365 . S
N419 H439 0.862 . S
C420 C415 1.501 . S
C420 H421 0.961 . S
C420 H422 0.961 . S
C420 H423 0.960 . S
H421 C420 0.961 . S
H422 C420 0.961 . S
H423 C420 0.960 . S
C424 N425 1.342 . S
C424 C428 1.401 . S
C424 C429 1.499 . S
N425 Co408 1.989 . S
N425 C424 1.342 . S
N425 N426 1.388 . S
N426 Co409 1.993 . S
N426 N425 1.388 . S
N426 C427 1.346 . S
C427 N426 1.346 . S
C427 C428 1.396 . S
C427 C437 1.510 . S
C428 C424 1.401 . S
C428 C427 1.396 . S
C429 C424 1.499 . S
C429 H430 0.959 . S
C429 H431 0.960 . S
C429 H432 0.961 . S
H430 C429 0.959 . S
H431 C429 0.960 . S
H432 C429 0.961 . S
O433 Co408 1.967 . S
O433 C441 1.258 . S
O434 Co409 1.941 . S
O434 C441 1.266 . S
H435 C437 0.959 . S
H436 C437 0.961 . S
C437 C427 1.510 . S
C437 H435 0.959 . S
C437 H436 0.961 . S
C437 H438 0.960 . S
H438 C437 0.960 . S
H439 N419 0.862 . S
O440 Co408 1.920 . S
O440 C413 1.289 . S
C441 O433 1.258 . S
C441 O434 1.266 . S
Co442 O445 1.970 . S
Co442 N459 1.989 . S
Co442 O467 1.967 . S
Co442 O474 1.920 . S
Co443 O446 1.966 . S
Co443 N452 2.022 . S
Co443 N460 1.993 . S
Co443 O468 1.941 . S
C444 O445 1.258 . S
C444 O446 1.263 . S
O445 Co442 1.970 . S
O445 C444 1.258 . S
O446 Co443 1.966 . S
O446 C444 1.263 . S
C447 O448 1.235 . S
C447 O474 1.289 . S
O448 C447 1.235 . S
C449 C451 1.400 . S
C449 N452 1.351 1_545 S
C449 C454 1.501 . S
C450 C451 1.387 . S
C450 N453 1.341 1_545 S
C451 C449 1.400 . S
C451 C450 1.387 . S
N452 Co443 2.022 . S
N452 C449 1.351 1_565 S
N452 N453 1.365 . S
N453 C450 1.341 1_565 S
N453 N452 1.365 . S
N453 H473 0.862 . S
C454 C449 1.501 . S
C454 H455 0.961 . S
C454 H456 0.961 . S
C454 H457 0.960 . S
H455 C454 0.961 . S
H456 C454 0.961 . S
H457 C454 0.960 . S
C458 N459 1.342 . S
C458 C462 1.401 . S
C458 C463 1.499 . S
N459 Co442 1.989 . S
N459 C458 1.342 . S
N459 N460 1.388 . S
N460 Co443 1.993 . S
N460 N459 1.388 . S
N460 C461 1.346 . S
C461 N460 1.346 . S
C461 C462 1.396 . S
C461 C471 1.510 1_565 S
C462 C458 1.401 . S
C462 C461 1.396 . S
C463 C458 1.499 . S
C463 H464 0.959 . S
C463 H465 0.960 . S
C463 H466 0.961 . S
H464 C463 0.959 . S
H465 C463 0.960 . S
H466 C463 0.961 . S
O467 Co442 1.967 . S
O467 C475 1.258 . S
O468 Co443 1.941 . S
O468 C475 1.266 . S
H469 C471 0.959 . S
H470 C471 0.961 . S
C471 C461 1.510 1_545 S
C471 H469 0.959 . S
C471 H470 0.961 . S
C471 H472 0.960 . S
H472 C471 0.960 . S
H473 N453 0.862 . S
O474 Co442 1.920 . S
O474 C447 1.289 . S
C475 O467 1.258 . S
C475 O468 1.266 . S
Co476 O479 1.970 . S
Co476 N493 1.989 . S
Co476 O501 1.967 . S
Co476 O508 1.920 . S
Co477 O480 1.966 . S
Co477 N486 2.022 . S
Co477 N494 1.993 . S
Co477 O502 1.941 . S
C478 O479 1.258 . S
C478 O480 1.263 . S
O479 Co476 1.970 . S
O479 C478 1.258 . S
O480 Co477 1.966 . S
O480 C478 1.263 . S
C481 O482 1.235 . S
C481 O508 1.289 . S
O482 C481 1.235 . S
C483 C485 1.400 . S
C483 N486 1.351 . S
C483 C488 1.501 . S
C484 C485 1.387 . S
C484 N487 1.341 . S
C485 C483 1.400 . S
C485 C484 1.387 . S
N486 Co477 2.022 . S
N486 C483 1.351 . S
N486 N487 1.365 . S
N487 C484 1.341 . S
N487 N486 1.365 . S
N487 H507 0.862 . S
C488 C483 1.501 . S
C488 H489 0.961 . S
C488 H490 0.961 . S
C488 H491 0.960 . S
H489 C488 0.961 . S
H490 C488 0.961 . S
H491 C488 0.960 . S
C492 N493 1.342 . S
C492 C496 1.401 . S
C492 C497 1.499 . S
N493 Co476 1.989 . S
N493 C492 1.342 . S
N493 N494 1.388 . S
N494 Co477 1.993 . S
N494 N493 1.388 . S
N494 C495 1.346 . S
C495 N494 1.346 . S
C495 C496 1.396 . S
C495 C505 1.510 . S
C496 C492 1.401 . S
C496 C495 1.396 . S
C497 C492 1.499 . S
C497 H498 0.959 . S
C497 H499 0.960 . S
C497 H500 0.961 . S
H498 C497 0.959 . S
H499 C497 0.960 . S
H500 C497 0.961 . S
O501 Co476 1.967 . S
O501 C509 1.258 . S
O502 Co477 1.941 . S
O502 C509 1.266 . S
H503 C505 0.959 . S
H504 C505 0.961 . S
C505 C495 1.510 . S
C505 H503 0.959 . S
C505 H504 0.961 . S
C505 H506 0.960 . S
H506 C505 0.960 . S
H507 N487 0.862 . S
O508 Co476 1.920 . S
O508 C481 1.289 . S
C509 O501 1.258 . S
C509 O502 1.266 . S
Co510 O513 1.970 . S
Co510 N527 1.989 . S
Co510 O535 1.967 . S
Co510 O542 1.920 1_455 S
Co511 O514 1.966 . S
Co511 N520 2.022 . S
Co511 N528 1.993 . S
Co511 O536 1.941 . S
C512 O513 1.258 . S
C512 O514 1.263 . S
O513 Co510 1.970 . S
O513 C512 1.258 . S
O514 Co511 1.966 . S
O514 C512 1.263 . S
C515 O516 1.235 . S
C515 O542 1.289 . S
O516 C515 1.235 . S
C517 C519 1.400 . S
C517 N520 1.351 1_565 S
C517 C522 1.501 . S
C518 C519 1.387 . S
C518 N521 1.341 1_565 S
C519 C517 1.400 . S
C519 C518 1.387 . S
N520 Co511 2.022 . S
N520 C517 1.351 1_545 S
N520 N521 1.365 . S
N521 C518 1.341 1_545 S
N521 N520 1.365 . S
N521 H541 0.862 . S
C522 C517 1.501 . S
C522 H523 0.961 . S
C522 H524 0.961 . S
C522 H525 0.960 . S
H523 C522 0.961 . S
H524 C522 0.961 . S
H525 C522 0.960 . S
C526 N527 1.342 . S
C526 C530 1.401 . S
C526 C531 1.499 1_455 S
N527 Co510 1.989 . S
N527 C526 1.342 . S
N527 N528 1.388 . S
N528 Co511 1.993 . S
N528 N527 1.388 . S
N528 C529 1.346 . S
C529 N528 1.346 . S
C529 C530 1.396 . S
C529 C539 1.510 1_545 S
C530 C526 1.401 . S
C530 C529 1.396 . S
C531 C526 1.499 1_655 S
C531 H532 0.959 . S
C531 H533 0.960 . S
C531 H534 0.961 . S
H532 C531 0.959 . S
H533 C531 0.960 . S
H534 C531 0.961 . S
O535 Co510 1.967 . S
O535 C543 1.258 . S
O536 Co511 1.941 . S
O536 C543 1.266 . S
H537 C539 0.959 . S
H538 C539 0.961 . S
C539 C529 1.510 1_565 S
C539 H537 0.959 . S
C539 H538 0.961 . S
C539 H540 0.960 . S
H540 C539 0.960 . S
H541 N521 0.862 . S
O542 Co510 1.920 1_655 S
O542 C515 1.289 . S
C543 O535 1.258 . S
C543 O536 1.266 . S
Co544 O547 1.970 . S
Co544 N561 1.989 . S
Co544 O569 1.967 . S
Co544 O576 1.920 . S
Co545 O548 1.966 . S
Co545 N554 2.022 . S
Co545 N562 1.993 . S
Co545 O570 1.941 . S
C546 O547 1.258 . S
C546 O548 1.263 . S
O547 Co544 1.970 . S
O547 C546 1.258 . S
O548 Co545 1.966 . S
O548 C546 1.263 . S
C549 O550 1.235 . S
C549 O576 1.289 . S
O550 C549 1.235 . S
C551 C553 1.400 . S
C551 N554 1.351 . S
C551 C556 1.501 . S
C552 C553 1.387 . S
C552 N555 1.341 . S
C553 C551 1.400 . S
C553 C552 1.387 . S
N554 Co545 2.022 . S
N554 C551 1.351 . S
N554 N555 1.365 . S
N555 C552 1.341 . S
N555 N554 1.365 . S
N555 H575 0.862 . S
C556 C551 1.501 . S
C556 H557 0.961 . S
C556 H558 0.961 . S
C556 H559 0.960 . S
H557 C556 0.961 . S
H558 C556 0.961 . S
H559 C556 0.960 . S
C560 N561 1.342 . S
C560 C564 1.401 . S
C560 C565 1.499 . S
N561 Co544 1.989 . S
N561 C560 1.342 . S
N561 N562 1.388 . S
N562 Co545 1.993 . S
N562 N561 1.388 . S
N562 C563 1.346 . S
C563 N562 1.346 . S
C563 C564 1.396 . S
C563 C573 1.510 . S
C564 C560 1.401 . S
C564 C563 1.396 . S
C565 C560 1.499 . S
C565 H566 0.959 . S
C565 H567 0.960 . S
C565 H568 0.961 . S
H566 C565 0.959 . S
H567 C565 0.960 . S
H568 C565 0.961 . S
O569 Co544 1.967 . S
O569 C577 1.258 . S
O570 Co545 1.941 . S
O570 C577 1.266 . S
H571 C573 0.959 . S
H572 C573 0.961 . S
C573 C563 1.510 . S
C573 H571 0.959 . S
C573 H572 0.961 . S
C573 H574 0.960 . S
H574 C573 0.960 . S
H575 N555 0.862 . S
O576 Co544 1.920 . S
O576 C549 1.289 . S
C577 O569 1.258 . S
C577 O570 1.266 . S
Co578 O581 1.970 . S
Co578 N595 1.989 . S
Co578 O603 1.967 . S
Co578 O610 1.920 . S
Co579 O582 1.966 . S
Co579 N588 2.022 . S
Co579 N596 1.993 . S
Co579 O604 1.941 . S
C580 O581 1.258 . S
C580 O582 1.263 . S
O581 Co578 1.970 . S
O581 C580 1.258 . S
O582 Co579 1.966 . S
O582 C580 1.263 . S
C583 O584 1.235 . S
C583 O610 1.289 . S
O584 C583 1.235 . S
C585 C587 1.400 . S
C585 N588 1.351 . S
C585 C590 1.501 . S
C586 C587 1.387 . S
C586 N589 1.341 . S
C587 C585 1.400 . S
C587 C586 1.387 . S
N588 Co579 2.022 . S
N588 C585 1.351 . S
N588 N589 1.365 . S
N589 C586 1.341 . S
N589 N588 1.365 . S
N589 H609 0.862 . S
C590 C585 1.501 . S
C590 H591 0.961 . S
C590 H592 0.961 . S
C590 H593 0.960 . S
H591 C590 0.961 . S
H592 C590 0.961 . S
H593 C590 0.960 . S
C594 N595 1.342 . S
C594 C598 1.401 . S
C594 C599 1.499 . S
N595 Co578 1.989 . S
N595 C594 1.342 . S
N595 N596 1.388 . S
N596 Co579 1.993 . S
N596 N595 1.388 . S
N596 C597 1.346 . S
C597 N596 1.346 . S
C597 C598 1.396 . S
C597 C607 1.510 . S
C598 C594 1.401 . S
C598 C597 1.396 . S
C599 C594 1.499 . S
C599 H600 0.959 . S
C599 H601 0.960 . S
C599 H602 0.961 . S
H600 C599 0.959 . S
H601 C599 0.960 . S
H602 C599 0.961 . S
O603 Co578 1.967 . S
O603 C611 1.258 . S
O604 Co579 1.941 . S
O604 C611 1.266 . S
H605 C607 0.959 . S
H606 C607 0.961 . S
C607 C597 1.510 . S
C607 H605 0.959 . S
C607 H606 0.961 . S
C607 H608 0.960 . S
H608 C607 0.960 . S
H609 N589 0.862 . S
O610 Co578 1.920 . S
O610 C583 1.289 . S
C611 O603 1.258 . S
C611 O604 1.266 . S
Co612 O615 1.970 . S
Co612 N629 1.989 . S
Co612 O637 1.967 . S
Co612 O644 1.920 . S
Co613 O616 1.966 . S
Co613 N622 2.022 . S
Co613 N630 1.993 . S
Co613 O638 1.941 . S
C614 O615 1.258 . S
C614 O616 1.263 . S
O615 Co612 1.970 . S
O615 C614 1.258 . S
O616 Co613 1.966 . S
O616 C614 1.263 . S
C617 O618 1.235 . S
C617 O644 1.289 . S
O618 C617 1.235 . S
C619 C621 1.400 . S
C619 N622 1.351 . S
C619 C624 1.501 . S
C620 C621 1.387 . S
C620 N623 1.341 . S
C621 C619 1.400 . S
C621 C620 1.387 . S
N622 Co613 2.022 . S
N622 C619 1.351 . S
N622 N623 1.365 . S
N623 C620 1.341 . S
N623 N622 1.365 . S
N623 H643 0.862 . S
C624 C619 1.501 . S
C624 H625 0.961 . S
C624 H626 0.961 . S
C624 H627 0.960 . S
H625 C624 0.961 . S
H626 C624 0.961 . S
H627 C624 0.960 . S
C628 N629 1.342 . S
C628 C632 1.401 . S
C628 C633 1.499 . S
N629 Co612 1.989 . S
N629 C628 1.342 . S
N629 N630 1.388 . S
N630 Co613 1.993 . S
N630 N629 1.388 . S
N630 C631 1.346 . S
C631 N630 1.346 . S
C631 C632 1.396 . S
C631 C641 1.510 . S
C632 C628 1.401 . S
C632 C631 1.396 . S
C633 C628 1.499 . S
C633 H634 0.959 . S
C633 H635 0.960 . S
C633 H636 0.961 . S
H634 C633 0.959 . S
H635 C633 0.960 . S
H636 C633 0.961 . S
O637 Co612 1.967 . S
O637 C645 1.258 . S
O638 Co613 1.941 . S
O638 C645 1.266 . S
H639 C641 0.959 . S
H640 C641 0.961 . S
C641 C631 1.510 . S
C641 H639 0.959 . S
C641 H640 0.961 . S
C641 H642 0.960 . S
H642 C641 0.960 . S
H643 N623 0.862 . S
O644 Co612 1.920 . S
O644 C617 1.289 . S
C645 O637 1.258 . S
C645 O638 1.266 . S
Co646 O649 1.970 . S
Co646 N663 1.989 . S
Co646 O671 1.967 . S
Co646 O678 1.920 1_455 S
Co647 O650 1.966 . S
Co647 N656 2.022 . S
Co647 N664 1.993 . S
Co647 O672 1.941 . S
C648 O649 1.258 . S
C648 O650 1.263 . S
O649 Co646 1.970 . S
O649 C648 1.258 . S
O650 Co647 1.966 . S
O650 C648 1.263 . S
C651 O652 1.235 . S
C651 O678 1.289 . S
O652 C651 1.235 . S
C653 C655 1.400 . S
C653 N656 1.351 . S
C653 C658 1.501 . S
C654 C655 1.387 . S
C654 N657 1.341 . S
C655 C653 1.400 . S
C655 C654 1.387 . S
N656 Co647 2.022 . S
N656 C653 1.351 . S
N656 N657 1.365 . S
N657 C654 1.341 . S
N657 N656 1.365 . S
N657 H677 0.862 . S
C658 C653 1.501 . S
C658 H659 0.961 . S
C658 H660 0.961 . S
C658 H661 0.960 . S
H659 C658 0.961 . S
H660 C658 0.961 . S
H661 C658 0.960 . S
C662 N663 1.342 . S
C662 C666 1.401 . S
C662 C667 1.499 1_455 S
N663 Co646 1.989 . S
N663 C662 1.342 . S
N663 N664 1.388 . S
N664 Co647 1.993 . S
N664 N663 1.388 . S
N664 C665 1.346 . S
C665 N664 1.346 . S
C665 C666 1.396 . S
C665 C675 1.510 . S
C666 C662 1.401 . S
C666 C665 1.396 . S
C667 C662 1.499 1_655 S
C667 H668 0.959 . S
C667 H669 0.960 . S
C667 H670 0.961 . S
H668 C667 0.959 . S
H669 C667 0.960 . S
H670 C667 0.961 . S
O671 Co646 1.967 . S
O671 C679 1.258 . S
O672 Co647 1.941 . S
O672 C679 1.266 . S
H673 C675 0.959 . S
H674 C675 0.961 . S
C675 C665 1.510 . S
C675 H673 0.959 . S
C675 H674 0.961 . S
C675 H676 0.960 . S
H676 C675 0.960 . S
H677 N657 0.862 . S
O678 Co646 1.920 1_655 S
O678 C651 1.289 . S
C679 O671 1.258 . S
C679 O672 1.266 . S
Co680 O683 1.970 . S
Co680 N697 1.989 . S
Co680 O705 1.967 . S
Co680 O712 1.920 . S
Co681 O684 1.966 . S
Co681 N690 2.022 . S
Co681 N698 1.993 . S
Co681 O706 1.941 . S
C682 O683 1.258 . S
C682 O684 1.263 . S
O683 Co680 1.970 . S
O683 C682 1.258 . S
O684 Co681 1.966 . S
O684 C682 1.263 . S
C685 O686 1.235 . S
C685 O712 1.289 . S
O686 C685 1.235 . S
C687 C689 1.400 . S
C687 N690 1.351 . S
C687 C692 1.501 . S
C688 C689 1.387 . S
C688 N691 1.341 . S
C689 C687 1.400 . S
C689 C688 1.387 . S
N690 Co681 2.022 . S
N690 C687 1.351 . S
N690 N691 1.365 . S
N691 C688 1.341 . S
N691 N690 1.365 . S
N691 H711 0.862 . S
C692 C687 1.501 . S
C692 H693 0.961 . S
C692 H694 0.961 . S
C692 H695 0.960 . S
H693 C692 0.961 . S
H694 C692 0.961 . S
H695 C692 0.960 . S
C696 N697 1.342 . S
C696 C700 1.401 . S
C696 C701 1.499 . S
N697 Co680 1.989 . S
N697 C696 1.342 . S
N697 N698 1.388 . S
N698 Co681 1.993 . S
N698 N697 1.388 . S
N698 C699 1.346 . S
C699 N698 1.346 . S
C699 C700 1.396 . S
C699 C709 1.510 . S
C700 C696 1.401 . S
C700 C699 1.396 . S
C701 C696 1.499 . S
C701 H702 0.959 . S
C701 H703 0.960 . S
C701 H704 0.961 . S
H702 C701 0.959 . S
H703 C701 0.960 . S
H704 C701 0.961 . S
O705 Co680 1.967 . S
O705 C713 1.258 . S
O706 Co681 1.941 . S
O706 C713 1.266 . S
H707 C709 0.959 . S
H708 C709 0.961 . S
C709 C699 1.510 . S
C709 H707 0.959 . S
C709 H708 0.961 . S
C709 H710 0.960 . S
H710 C709 0.960 . S
H711 N691 0.862 . S
O712 Co680 1.920 . S
O712 C685 1.289 . S
C713 O705 1.258 . S
C713 O706 1.266 . S
Co714 O717 1.970 . S
Co714 N731 1.989 . S
Co714 O739 1.967 . S
Co714 O746 1.920 1_455 S
Co715 O718 1.966 . S
Co715 N724 2.022 . S
Co715 N732 1.993 . S
Co715 O740 1.941 . S
C716 O717 1.258 . S
C716 O718 1.263 . S
O717 Co714 1.970 . S
O717 C716 1.258 . S
O718 Co715 1.966 . S
O718 C716 1.263 . S
C719 O720 1.235 . S
C719 O746 1.289 . S
O720 C719 1.235 . S
C721 C723 1.400 . S
C721 N724 1.351 . S
C721 C726 1.501 . S
C722 C723 1.387 . S
C722 N725 1.341 . S
C723 C721 1.400 . S
C723 C722 1.387 . S
N724 Co715 2.022 . S
N724 C721 1.351 . S
N724 N725 1.365 . S
N725 C722 1.341 . S
N725 N724 1.365 . S
N725 H745 0.862 . S
C726 C721 1.501 . S
C726 H727 0.961 . S
C726 H728 0.961 . S
C726 H729 0.960 . S
H727 C726 0.961 . S
H728 C726 0.961 . S
H729 C726 0.960 . S
C730 N731 1.342 . S
C730 C734 1.401 . S
C730 C735 1.499 1_455 S
N731 Co714 1.989 . S
N731 C730 1.342 . S
N731 N732 1.388 . S
N732 Co715 1.993 . S
N732 N731 1.388 . S
N732 C733 1.346 . S
C733 N732 1.346 . S
C733 C734 1.396 . S
C733 C743 1.510 . S
C734 C730 1.401 . S
C734 C733 1.396 . S
C735 C730 1.499 1_655 S
C735 H736 0.959 . S
C735 H737 0.960 . S
C735 H738 0.961 . S
H736 C735 0.959 . S
H737 C735 0.960 . S
H738 C735 0.961 . S
O739 Co714 1.967 . S
O739 C747 1.258 . S
O740 Co715 1.941 . S
O740 C747 1.266 . S
H741 C743 0.959 . S
H742 C743 0.961 . S
C743 C733 1.510 . S
C743 H741 0.959 . S
C743 H742 0.961 . S
C743 H744 0.960 . S
H744 C743 0.960 . S
H745 N725 0.862 . S
O746 Co714 1.920 1_655 S
O746 C719 1.289 . S
C747 O739 1.258 . S
C747 O740 1.266 . S
Co748 O751 1.970 . S
Co748 N765 1.989 . S
Co748 O773 1.967 . S
Co748 O780 1.920 . S
Co749 O752 1.966 . S
Co749 N758 2.022 . S
Co749 N766 1.993 . S
Co749 O774 1.941 . S
C750 O751 1.258 . S
C750 O752 1.263 . S
O751 Co748 1.970 . S
O751 C750 1.258 . S
O752 Co749 1.966 . S
O752 C750 1.263 . S
C753 O754 1.235 . S
C753 O780 1.289 . S
O754 C753 1.235 . S
C755 C757 1.400 . S
C755 N758 1.351 . S
C755 C760 1.501 . S
C756 C757 1.387 . S
C756 N759 1.341 . S
C757 C755 1.400 . S
C757 C756 1.387 . S
N758 Co749 2.022 . S
N758 C755 1.351 . S
N758 N759 1.365 . S
N759 C756 1.341 . S
N759 N758 1.365 . S
N759 H779 0.862 . S
C760 C755 1.501 . S
C760 H761 0.961 . S
C760 H762 0.961 . S
C760 H763 0.960 . S
H761 C760 0.961 . S
H762 C760 0.961 . S
H763 C760 0.960 . S
C764 N765 1.342 . S
C764 C768 1.401 . S
C764 C769 1.499 . S
N765 Co748 1.989 . S
N765 C764 1.342 . S
N765 N766 1.388 . S
N766 Co749 1.993 . S
N766 N765 1.388 . S
N766 C767 1.346 . S
C767 N766 1.346 . S
C767 C768 1.396 . S
C767 C777 1.510 . S
C768 C764 1.401 . S
C768 C767 1.396 . S
C769 C764 1.499 . S
C769 H770 0.959 . S
C769 H771 0.960 . S
C769 H772 0.961 . S
H770 C769 0.959 . S
H771 C769 0.960 . S
H772 C769 0.961 . S
O773 Co748 1.967 . S
O773 C781 1.258 . S
O774 Co749 1.941 . S
O774 C781 1.266 . S
H775 C777 0.959 . S
H776 C777 0.961 . S
C777 C767 1.510 . S
C777 H775 0.959 . S
C777 H776 0.961 . S
C777 H778 0.960 . S
H778 C777 0.960 . S
H779 N759 0.862 . S
O780 Co748 1.920 . S
O780 C753 1.289 . S
C781 O773 1.258 . S
C781 O774 1.266 . S
Co782 O785 1.970 . S
Co782 N799 1.989 . S
Co782 O807 1.967 . S
Co782 O814 1.920 . S
Co783 O786 1.966 . S
Co783 N792 2.022 . S
Co783 N800 1.993 . S
Co783 O808 1.941 . S
C784 O785 1.258 . S
C784 O786 1.263 . S
O785 Co782 1.970 . S
O785 C784 1.258 . S
O786 Co783 1.966 . S
O786 C784 1.263 . S
C787 O788 1.235 . S
C787 O814 1.289 . S
O788 C787 1.235 . S
C789 C791 1.400 . S
C789 N792 1.351 . S
C789 C794 1.501 . S
C790 C791 1.387 . S
C790 N793 1.341 . S
C791 C789 1.400 . S
C791 C790 1.387 . S
N792 Co783 2.022 . S
N792 C789 1.351 . S
N792 N793 1.365 . S
N793 C790 1.341 . S
N793 N792 1.365 . S
N793 H813 0.862 . S
C794 C789 1.501 . S
C794 H795 0.961 . S
C794 H796 0.961 . S
C794 H797 0.960 . S
H795 C794 0.961 . S
H796 C794 0.961 . S
H797 C794 0.960 . S
C798 N799 1.342 . S
C798 C802 1.401 . S
C798 C803 1.499 . S
N799 Co782 1.989 . S
N799 C798 1.342 . S
N799 N800 1.388 . S
N800 Co783 1.993 . S
N800 N799 1.388 . S
N800 C801 1.346 . S
C801 N800 1.346 . S
C801 C802 1.396 . S
C801 C811 1.510 . S
C802 C798 1.401 . S
C802 C801 1.396 . S
C803 C798 1.499 . S
C803 H804 0.959 . S
C803 H805 0.960 . S
C803 H806 0.961 . S
H804 C803 0.959 . S
H805 C803 0.960 . S
H806 C803 0.961 . S
O807 Co782 1.967 . S
O807 C815 1.258 . S
O808 Co783 1.941 . S
O808 C815 1.266 . S
H809 C811 0.959 . S
H810 C811 0.961 . S
C811 C801 1.510 . S
C811 H809 0.959 . S
C811 H810 0.961 . S
C811 H812 0.960 . S
H812 C811 0.960 . S
H813 N793 0.862 . S
O814 Co782 1.920 . S
O814 C787 1.289 . S
C815 O807 1.258 . S
C815 O808 1.266 . S
Co816 O819 1.970 . S
Co816 N833 1.989 . S
Co816 O841 1.967 . S
Co816 O848 1.920 . S
Co817 O820 1.966 . S
Co817 N826 2.022 . S
Co817 N834 1.993 . S
Co817 O842 1.941 . S
C818 O819 1.258 . S
C818 O820 1.263 . S
O819 Co816 1.970 . S
O819 C818 1.258 . S
O820 Co817 1.966 . S
O820 C818 1.263 . S
C821 O822 1.235 . S
C821 O848 1.289 . S
O822 C821 1.235 . S
C823 C825 1.400 . S
C823 N826 1.351 . S
C823 C828 1.501 . S
C824 C825 1.387 . S
C824 N827 1.341 . S
C825 C823 1.400 . S
C825 C824 1.387 . S
N826 Co817 2.022 . S
N826 C823 1.351 . S
N826 N827 1.365 . S
N827 C824 1.341 . S
N827 N826 1.365 . S
N827 H847 0.862 . S
C828 C823 1.501 . S
C828 H829 0.961 . S
C828 H830 0.961 . S
C828 H831 0.960 . S
H829 C828 0.961 . S
H830 C828 0.961 . S
H831 C828 0.960 . S
C832 N833 1.342 . S
C832 C836 1.401 . S
C832 C837 1.499 . S
N833 Co816 1.989 . S
N833 C832 1.342 . S
N833 N834 1.388 . S
N834 Co817 1.993 . S
N834 N833 1.388 . S
N834 C835 1.346 . S
C835 N834 1.346 . S
C835 C836 1.396 . S
C835 C845 1.510 . S
C836 C832 1.401 . S
C836 C835 1.396 . S
C837 C832 1.499 . S
C837 H838 0.959 . S
C837 H839 0.960 . S
C837 H840 0.961 . S
H838 C837 0.959 . S
H839 C837 0.960 . S
H840 C837 0.961 . S
O841 Co816 1.967 . S
O841 C849 1.258 . S
O842 Co817 1.941 . S
O842 C849 1.266 . S
H843 C845 0.959 . S
H844 C845 0.961 . S
C845 C835 1.510 . S
C845 H843 0.959 . S
C845 H844 0.961 . S
C845 H846 0.960 . S
H846 C845 0.960 . S
H847 N827 0.862 . S
O848 Co816 1.920 . S
O848 C821 1.289 . S
C849 O841 1.258 . S
C849 O842 1.266 . S
Co850 O853 1.970 . S
Co850 N867 1.989 . S
Co850 O875 1.967 . S
Co850 O882 1.920 . S
Co851 O854 1.966 . S
Co851 N860 2.022 . S
Co851 N868 1.993 . S
Co851 O876 1.941 . S
C852 O853 1.258 . S
C852 O854 1.263 . S
O853 Co850 1.970 . S
O853 C852 1.258 . S
O854 Co851 1.966 . S
O854 C852 1.263 . S
C855 O856 1.235 . S
C855 O882 1.289 . S
O856 C855 1.235 . S
C857 C859 1.400 . S
C857 N860 1.351 . S
C857 C862 1.501 . S
C858 C859 1.387 . S
C858 N861 1.341 . S
C859 C857 1.400 . S
C859 C858 1.387 . S
N860 Co851 2.022 . S
N860 C857 1.351 . S
N860 N861 1.365 . S
N861 C858 1.341 . S
N861 N860 1.365 . S
N861 H881 0.862 . S
C862 C857 1.501 . S
C862 H863 0.961 . S
C862 H864 0.961 . S
C862 H865 0.960 . S
H863 C862 0.961 . S
H864 C862 0.961 . S
H865 C862 0.960 . S
C866 N867 1.342 . S
C866 C870 1.401 . S
C866 C871 1.499 . S
N867 Co850 1.989 . S
N867 C866 1.342 . S
N867 N868 1.388 . S
N868 Co851 1.993 . S
N868 N867 1.388 . S
N868 C869 1.346 . S
C869 N868 1.346 . S
C869 C870 1.396 . S
C869 C879 1.510 . S
C870 C866 1.401 . S
C870 C869 1.396 . S
C871 C866 1.499 . S
C871 H872 0.959 . S
C871 H873 0.960 . S
C871 H874 0.961 . S
H872 C871 0.959 . S
H873 C871 0.960 . S
H874 C871 0.961 . S
O875 Co850 1.967 . S
O875 C883 1.258 . S
O876 Co851 1.941 . S
O876 C883 1.266 . S
H877 C879 0.959 . S
H878 C879 0.961 . S
C879 C869 1.510 . S
C879 H877 0.959 . S
C879 H878 0.961 . S
C879 H880 0.960 . S
H880 C879 0.960 . S
H881 N861 0.862 . S
O882 Co850 1.920 . S
O882 C855 1.289 . S
C883 O875 1.258 . S
C883 O876 1.266 . S
Co884 O887 1.970 . S
Co884 N901 1.989 . S
Co884 O909 1.967 . S
Co884 O916 1.920 . S
Co885 O888 1.966 . S
Co885 N894 2.022 . S
Co885 N902 1.993 . S
Co885 O910 1.941 . S
C886 O887 1.258 . S
C886 O888 1.263 . S
O887 Co884 1.970 . S
O887 C886 1.258 . S
O888 Co885 1.966 . S
O888 C886 1.263 . S
C889 O890 1.235 . S
C889 O916 1.289 . S
O890 C889 1.235 . S
C891 C893 1.400 . S
C891 N894 1.351 . S
C891 C896 1.501 . S
C892 C893 1.387 . S
C892 N895 1.341 . S
C893 C891 1.400 . S
C893 C892 1.387 . S
N894 Co885 2.022 . S
N894 C891 1.351 . S
N894 N895 1.365 . S
N895 C892 1.341 . S
N895 N894 1.365 . S
N895 H915 0.862 . S
C896 C891 1.501 . S
C896 H897 0.961 . S
C896 H898 0.961 . S
C896 H899 0.960 . S
H897 C896 0.961 . S
H898 C896 0.961 . S
H899 C896 0.960 . S
C900 N901 1.342 . S
C900 C904 1.401 . S
C900 C905 1.499 . S
N901 Co884 1.989 . S
N901 C900 1.342 . S
N901 N902 1.388 . S
N902 Co885 1.993 . S
N902 N901 1.388 . S
N902 C903 1.346 . S
C903 N902 1.346 . S
C903 C904 1.396 . S
C903 C913 1.510 . S
C904 C900 1.401 . S
C904 C903 1.396 . S
C905 C900 1.499 . S
C905 H906 0.959 . S
C905 H907 0.960 . S
C905 H908 0.961 . S
H906 C905 0.959 . S
H907 C905 0.960 . S
H908 C905 0.961 . S
O909 Co884 1.967 . S
O909 C917 1.258 . S
O910 Co885 1.941 . S
O910 C917 1.266 . S
H911 C913 0.959 . S
H912 C913 0.961 . S
C913 C903 1.510 . S
C913 H911 0.959 . S
C913 H912 0.961 . S
C913 H914 0.960 . S
H914 C913 0.960 . S
H915 N895 0.862 . S
O916 Co884 1.920 . S
O916 C889 1.289 . S
C917 O909 1.258 . S
C917 O910 1.266 . S
Co918 O921 1.970 . S
Co918 N935 1.989 . S
Co918 O943 1.967 . S
Co918 O950 1.920 1_655 S
Co919 O922 1.966 . S
Co919 N928 2.022 . S
Co919 N936 1.993 . S
Co919 O944 1.941 . S
C920 O921 1.258 . S
C920 O922 1.263 . S
O921 Co918 1.970 . S
O921 C920 1.258 . S
O922 Co919 1.966 . S
O922 C920 1.263 . S
C923 O924 1.235 . S
C923 O950 1.289 . S
O924 C923 1.235 . S
C925 C927 1.400 . S
C925 N928 1.351 . S
C925 C930 1.501 . S
C926 C927 1.387 . S
C926 N929 1.341 . S
C927 C925 1.400 . S
C927 C926 1.387 . S
N928 Co919 2.022 . S
N928 C925 1.351 . S
N928 N929 1.365 . S
N929 C926 1.341 . S
N929 N928 1.365 . S
N929 H949 0.862 . S
C930 C925 1.501 . S
C930 H931 0.961 . S
C930 H932 0.961 . S
C930 H933 0.960 . S
H931 C930 0.961 . S
H932 C930 0.961 . S
H933 C930 0.960 . S
C934 N935 1.342 . S
C934 C938 1.401 . S
C934 C939 1.499 1_655 S
N935 Co918 1.989 . S
N935 C934 1.342 . S
N935 N936 1.388 . S
N936 Co919 1.993 . S
N936 N935 1.388 . S
N936 C937 1.346 . S
C937 N936 1.346 . S
C937 C938 1.396 . S
C937 C947 1.510 . S
C938 C934 1.401 . S
C938 C937 1.396 . S
C939 C934 1.499 1_455 S
C939 H940 0.959 . S
C939 H941 0.960 . S
C939 H942 0.961 . S
H940 C939 0.959 . S
H941 C939 0.960 . S
H942 C939 0.961 . S
O943 Co918 1.967 . S
O943 C951 1.258 . S
O944 Co919 1.941 . S
O944 C951 1.266 . S
H945 C947 0.959 . S
H946 C947 0.961 . S
C947 C937 1.510 . S
C947 H945 0.959 . S
C947 H946 0.961 . S
C947 H948 0.960 . S
H948 C947 0.960 . S
H949 N929 0.862 . S
O950 Co918 1.920 1_455 S
O950 C923 1.289 . S
C951 O943 1.258 . S
C951 O944 1.266 . S
Co952 O955 1.970 . S
Co952 N969 1.989 . S
Co952 O977 1.967 . S
Co952 O984 1.920 . S
Co953 O956 1.966 . S
Co953 N962 2.022 . S
Co953 N970 1.993 . S
Co953 O978 1.941 . S
C954 O955 1.258 . S
C954 O956 1.263 . S
O955 Co952 1.970 . S
O955 C954 1.258 . S
O956 Co953 1.966 . S
O956 C954 1.263 . S
C957 O958 1.235 . S
C957 O984 1.289 . S
O958 C957 1.235 . S
C959 C961 1.400 . S
C959 N962 1.351 . S
C959 C964 1.501 . S
C960 C961 1.387 . S
C960 N963 1.341 . S
C961 C959 1.400 . S
C961 C960 1.387 . S
N962 Co953 2.022 . S
N962 C959 1.351 . S
N962 N963 1.365 . S
N963 C960 1.341 . S
N963 N962 1.365 . S
N963 H983 0.862 . S
C964 C959 1.501 . S
C964 H965 0.961 . S
C964 H966 0.961 . S
C964 H967 0.960 . S
H965 C964 0.961 . S
H966 C964 0.961 . S
H967 C964 0.960 . S
C968 N969 1.342 . S
C968 C972 1.401 . S
C968 C973 1.499 . S
N969 Co952 1.989 . S
N969 C968 1.342 . S
N969 N970 1.388 . S
N970 Co953 1.993 . S
N970 N969 1.388 . S
N970 C971 1.346 . S
C971 N970 1.346 . S
C971 C972 1.396 . S
C971 C981 1.510 . S
C972 C968 1.401 . S
C972 C971 1.396 . S
C973 C968 1.499 . S
C973 H974 0.959 . S
C973 H975 0.960 . S
C973 H976 0.961 . S
H974 C973 0.959 . S
H975 C973 0.960 . S
H976 C973 0.961 . S
O977 Co952 1.967 . S
O977 C985 1.258 . S
O978 Co953 1.941 . S
O978 C985 1.266 . S
H979 C981 0.959 . S
H980 C981 0.961 . S
C981 C971 1.510 . S
C981 H979 0.959 . S
C981 H980 0.961 . S
C981 H982 0.960 . S
H982 C981 0.960 . S
H983 N963 0.862 . S
O984 Co952 1.920 . S
O984 C957 1.289 . S
C985 O977 1.258 . S
C985 O978 1.266 . S
Co986 O989 1.970 . S
Co986 N1003 1.989 . S
Co986 O1011 1.967 . S
Co986 O1018 1.920 1_655 S
Co987 O990 1.966 . S
Co987 N996 2.022 . S
Co987 N1004 1.993 . S
Co987 O1012 1.941 . S
C988 O989 1.258 . S
C988 O990 1.263 . S
O989 Co986 1.970 . S
O989 C988 1.258 . S
O990 Co987 1.966 . S
O990 C988 1.263 . S
C991 O992 1.235 . S
C991 O1018 1.289 . S
O992 C991 1.235 . S
C993 C995 1.400 . S
C993 N996 1.351 . S
C993 C998 1.501 . S
C994 C995 1.387 . S
C994 N997 1.341 . S
C995 C993 1.400 . S
C995 C994 1.387 . S
N996 Co987 2.022 . S
N996 C993 1.351 . S
N996 N997 1.365 . S
N997 C994 1.341 . S
N997 N996 1.365 . S
N997 H1017 0.862 . S
C998 C993 1.501 . S
C998 H999 0.961 . S
C998 H1000 0.961 . S
C998 H1001 0.960 . S
H999 C998 0.961 . S
H1000 C998 0.961 . S
H1001 C998 0.960 . S
C1002 N1003 1.342 . S
C1002 C1006 1.401 . S
C1002 C1007 1.499 1_655 S
N1003 Co986 1.989 . S
N1003 C1002 1.342 . S
N1003 N1004 1.388 . S
N1004 Co987 1.993 . S
N1004 N1003 1.388 . S
N1004 C1005 1.346 . S
C1005 N1004 1.346 . S
C1005 C1006 1.396 . S
C1005 C1015 1.510 . S
C1006 C1002 1.401 . S
C1006 C1005 1.396 . S
C1007 C1002 1.499 1_455 S
C1007 H1008 0.959 . S
C1007 H1009 0.960 . S
C1007 H1010 0.961 . S
H1008 C1007 0.959 . S
H1009 C1007 0.960 . S
H1010 C1007 0.961 . S
O1011 Co986 1.967 . S
O1011 C1019 1.258 . S
O1012 Co987 1.941 . S
O1012 C1019 1.266 . S
H1013 C1015 0.959 . S
H1014 C1015 0.961 . S
C1015 C1005 1.510 . S
C1015 H1013 0.959 . S
C1015 H1014 0.961 . S
C1015 H1016 0.960 . S
H1016 C1015 0.960 . S
H1017 N997 0.862 . S
O1018 Co986 1.920 1_455 S
O1018 C991 1.289 . S
C1019 O1011 1.258 . S
C1019 O1012 1.266 . S
Co1020 O1023 1.970 . S
Co1020 N1037 1.989 . S
Co1020 O1045 1.967 . S
Co1020 O1052 1.920 . S
Co1021 O1024 1.966 . S
Co1021 N1030 2.022 . S
Co1021 N1038 1.993 . S
Co1021 O1046 1.941 . S
C1022 O1023 1.258 . S
C1022 O1024 1.263 . S
O1023 Co1020 1.970 . S
O1023 C1022 1.258 . S
O1024 Co1021 1.966 . S
O1024 C1022 1.263 . S
C1025 O1026 1.235 . S
C1025 O1052 1.289 . S
O1026 C1025 1.235 . S
C1027 C1029 1.400 . S
C1027 N1030 1.351 . S
C1027 C1032 1.501 . S
C1028 C1029 1.387 . S
C1028 N1031 1.341 . S
C1029 C1027 1.400 . S
C1029 C1028 1.387 . S
N1030 Co1021 2.022 . S
N1030 C1027 1.351 . S
N1030 N1031 1.365 . S
N1031 C1028 1.341 . S
N1031 N1030 1.365 . S
N1031 H1051 0.862 . S
C1032 C1027 1.501 . S
C1032 H1033 0.961 . S
C1032 H1034 0.961 . S
C1032 H1035 0.960 . S
H1033 C1032 0.961 . S
H1034 C1032 0.961 . S
H1035 C1032 0.960 . S
C1036 N1037 1.342 . S
C1036 C1040 1.401 . S
C1036 C1041 1.499 . S
N1037 Co1020 1.989 . S
N1037 C1036 1.342 . S
N1037 N1038 1.388 . S
N1038 Co1021 1.993 . S
N1038 N1037 1.388 . S
N1038 C1039 1.346 . S
C1039 N1038 1.346 . S
C1039 C1040 1.396 . S
C1039 C1049 1.510 . S
C1040 C1036 1.401 . S
C1040 C1039 1.396 . S
C1041 C1036 1.499 . S
C1041 H1042 0.959 . S
C1041 H1043 0.960 . S
C1041 H1044 0.961 . S
H1042 C1041 0.959 . S
H1043 C1041 0.960 . S
H1044 C1041 0.961 . S
O1045 Co1020 1.967 . S
O1045 C1053 1.258 . S
O1046 Co1021 1.941 . S
O1046 C1053 1.266 . S
H1047 C1049 0.959 . S
H1048 C1049 0.961 . S
C1049 C1039 1.510 . S
C1049 H1047 0.959 . S
C1049 H1048 0.961 . S
C1049 H1050 0.960 . S
H1050 C1049 0.960 . S
H1051 N1031 0.862 . S
O1052 Co1020 1.920 . S
O1052 C1025 1.289 . S
C1053 O1045 1.258 . S
C1053 O1046 1.266 . S
Co1054 O1057 1.970 . S
Co1054 N1071 1.989 . S
Co1054 O1079 1.967 . S
Co1054 O1086 1.920 . S
Co1055 O1058 1.966 . S
Co1055 N1064 2.022 . S
Co1055 N1072 1.993 . S
Co1055 O1080 1.941 . S
C1056 O1057 1.258 . S
C1056 O1058 1.263 . S
O1057 Co1054 1.970 . S
O1057 C1056 1.258 . S
O1058 Co1055 1.966 . S
O1058 C1056 1.263 . S
C1059 O1060 1.235 . S
C1059 O1086 1.289 . S
O1060 C1059 1.235 . S
C1061 C1063 1.400 . S
C1061 N1064 1.351 . S
C1061 C1066 1.501 . S
C1062 C1063 1.387 . S
C1062 N1065 1.341 . S
C1063 C1061 1.400 . S
C1063 C1062 1.387 . S
N1064 Co1055 2.022 . S
N1064 C1061 1.351 . S
N1064 N1065 1.365 . S
N1065 C1062 1.341 . S
N1065 N1064 1.365 . S
N1065 H1085 0.862 . S
C1066 C1061 1.501 . S
C1066 H1067 0.961 . S
C1066 H1068 0.961 . S
C1066 H1069 0.960 . S
H1067 C1066 0.961 . S
H1068 C1066 0.961 . S
H1069 C1066 0.960 . S
C1070 N1071 1.342 . S
C1070 C1074 1.401 . S
C1070 C1075 1.499 . S
N1071 Co1054 1.989 . S
N1071 C1070 1.342 . S
N1071 N1072 1.388 . S
N1072 Co1055 1.993 . S
N1072 N1071 1.388 . S
N1072 C1073 1.346 . S
C1073 N1072 1.346 . S
C1073 C1074 1.396 . S
C1073 C1083 1.510 . S
C1074 C1070 1.401 . S
C1074 C1073 1.396 . S
C1075 C1070 1.499 . S
C1075 H1076 0.959 . S
C1075 H1077 0.960 . S
C1075 H1078 0.961 . S
H1076 C1075 0.959 . S
H1077 C1075 0.960 . S
H1078 C1075 0.961 . S
O1079 Co1054 1.967 . S
O1079 C1087 1.258 . S
O1080 Co1055 1.941 . S
O1080 C1087 1.266 . S
H1081 C1083 0.959 . S
H1082 C1083 0.961 . S
C1083 C1073 1.510 . S
C1083 H1081 0.959 . S
C1083 H1082 0.961 . S
C1083 H1084 0.960 . S
H1084 C1083 0.960 . S
H1085 N1065 0.862 . S
O1086 Co1054 1.920 . S
O1086 C1059 1.289 . S
C1087 O1079 1.258 . S
C1087 O1080 1.266 . S
H1088 C1094 0.930 . S
H1089 C1098 0.930 . S
H1090 C1103 0.929 . S
H1091 C1101 0.929 . S
H1092 C1096 0.929 . S
H1093 C1102 0.929 . S
C1094 H1088 0.930 . S
C1094 C1095 1.367 . S
C1094 C1102 1.378 . S
C1095 C1094 1.367 . S
C1095 C1103 1.433 . S
C1096 H1092 0.929 . S
C1096 C1098 1.378 . S
C1096 C1100 1.350 . S
C1097 C1100 1.463 . S
C1097 C1102 1.350 . S
C1097 N1105 1.427 . S
C1098 H1089 0.930 . S
C1098 C1096 1.378 . S
C1098 C1099 1.367 . S
C1099 C1098 1.367 . S
C1099 C1101 1.433 . S
C1100 C1096 1.350 . S
C1100 C1097 1.463 . S
C1100 N1104 1.427 . S
C1101 H1091 0.929 . S
C1101 C1099 1.433 . S
C1101 N1104 1.384 . S
C1102 H1093 0.929 . S
C1102 C1094 1.378 . S
C1102 C1097 1.350 . S
C1103 H1090 0.929 . S
C1103 C1095 1.433 . S
C1103 N1105 1.384 . S
N1104 C1100 1.427 . S
N1104 C1101 1.384 . S
N1105 C1097 1.427 . S
N1105 C1103 1.384 . S
H1106 C1112 0.919 1_655 S
H1107 C1116 0.919 1_455 S
H1108 C1121 0.929 . S
H1109 C1119 0.929 . S
H1110 C1114 0.929 . S
H1111 C1120 0.929 . S
C1112 H1106 0.919 1_455 S
C1112 C1113 1.390 . S
C1112 C1120 1.369 1_455 S
C1113 C1112 1.390 . S
C1113 C1121 1.433 1_565 S
C1114 H1110 0.929 . S
C1114 C1116 1.369 1_455 S
C1114 C1118 1.350 1_455 S
C1115 C1118 1.463 1_465 S
C1115 C1120 1.350 1_455 S
C1115 N1123 1.427 1_565 S
C1116 H1107 0.919 1_655 S
C1116 C1114 1.369 1_655 S
C1116 C1117 1.390 . S
C1117 C1116 1.390 . S
C1117 C1119 1.433 1_545 S
C1118 C1114 1.350 1_655 S
C1118 C1115 1.463 1_645 S
C1118 N1122 1.427 1_545 S
C1119 H1109 0.929 . S
C1119 C1117 1.433 1_565 S
C1119 N1122 1.384 . S
C1120 H1111 0.929 . S
C1120 C1112 1.369 1_655 S
C1120 C1115 1.350 1_655 S
C1121 H1108 0.929 . S
C1121 C1113 1.433 1_545 S
C1121 N1123 1.384 . S
N1122 C1118 1.427 1_565 S
N1122 C1119 1.384 . S
N1123 C1115 1.427 1_545 S
N1123 C1121 1.384 . S
H1124 C1130 0.930 . S
H1125 C1134 0.930 . S
H1126 C1139 0.929 . S
H1127 C1137 0.929 . S
H1128 C1132 0.929 . S
H1129 C1138 0.929 . S
C1130 H1124 0.930 . S
C1130 C1131 1.367 . S
C1130 C1138 1.378 . S
C1131 C1130 1.367 . S
C1131 C1139 1.433 . S
C1132 H1128 0.929 . S
C1132 C1134 1.378 . S
C1132 C1136 1.350 . S
C1133 C1136 1.463 . S
C1133 C1138 1.350 . S
C1133 N1141 1.427 . S
C1134 H1125 0.930 . S
C1134 C1132 1.378 . S
C1134 C1135 1.367 . S
C1135 C1134 1.367 . S
C1135 C1137 1.433 . S
C1136 C1132 1.350 . S
C1136 C1133 1.463 . S
C1136 N1140 1.427 . S
C1137 H1127 0.929 . S
C1137 C1135 1.433 . S
C1137 N1140 1.384 . S
C1138 H1129 0.929 . S
C1138 C1130 1.378 . S
C1138 C1133 1.350 . S
C1139 H1126 0.929 . S
C1139 C1131 1.433 . S
C1139 N1141 1.384 . S
N1140 C1136 1.427 . S
N1140 C1137 1.384 . S
N1141 C1133 1.427 . S
N1141 C1139 1.384 . S
H1142 C1148 0.930 . S
H1143 C1152 0.930 . S
H1144 C1157 0.929 . S
H1145 C1155 0.929 . S
H1146 C1150 0.929 . S
H1147 C1156 0.929 . S
C1148 H1142 0.930 . S
C1148 C1149 1.367 . S
C1148 C1156 1.378 . S
C1149 C1148 1.367 . S
C1149 C1157 1.433 1_545 S
C1150 H1146 0.929 . S
C1150 C1152 1.378 . S
C1150 C1154 1.350 . S
C1151 C1154 1.463 1_544 S
C1151 C1156 1.350 . S
C1151 N1159 1.427 1_545 S
C1152 H1143 0.930 . S
C1152 C1150 1.378 . S
C1152 C1153 1.367 . S
C1153 C1152 1.367 . S
C1153 C1155 1.433 1_565 S
C1154 C1150 1.350 . S
C1154 C1151 1.463 1_566 S
C1154 N1158 1.427 1_565 S
C1155 H1145 0.929 . S
C1155 C1153 1.433 1_545 S
C1155 N1158 1.384 . S
C1156 H1147 0.929 . S
C1156 C1148 1.378 . S
C1156 C1151 1.350 . S
C1157 H1144 0.929 . S
C1157 C1149 1.433 1_565 S
C1157 N1159 1.384 . S
N1158 C1154 1.427 1_545 S
N1158 C1155 1.384 . S
N1159 C1151 1.427 1_565 S
N1159 C1157 1.384 . S
H1160 C1166 0.930 . S
H1161 C1170 0.930 . S
H1162 C1175 0.929 . S
H1163 C1173 0.929 . S
H1164 C1168 0.929 . S
H1165 C1174 0.929 . S
C1166 H1160 0.930 . S
C1166 C1167 1.367 . S
C1166 C1174 1.378 . S
C1167 C1166 1.367 . S
C1167 C1175 1.433 . S
C1168 H1164 0.929 . S
C1168 C1170 1.378 . S
C1168 C1172 1.350 . S
C1169 C1172 1.463 . S
C1169 C1174 1.350 . S
C1169 N1177 1.427 . S
C1170 H1161 0.930 . S
C1170 C1168 1.378 . S
C1170 C1171 1.367 . S
C1171 C1170 1.367 . S
C1171 C1173 1.433 . S
C1172 C1168 1.350 . S
C1172 C1169 1.463 . S
C1172 N1176 1.427 . S
C1173 H1163 0.929 . S
C1173 C1171 1.433 . S
C1173 N1176 1.384 . S
C1174 H1165 0.929 . S
C1174 C1166 1.378 . S
C1174 C1169 1.350 . S
C1175 H1162 0.929 . S
C1175 C1167 1.433 . S
C1175 N1177 1.384 . S
N1176 C1172 1.427 . S
N1176 C1173 1.384 . S
N1177 C1169 1.427 . S
N1177 C1175 1.384 . S
H1178 C1184 0.930 . S
H1179 C1188 0.930 . S
H1180 C1193 0.929 . S
H1181 C1191 0.929 . S
H1182 C1186 0.929 . S
H1183 C1192 0.929 . S
C1184 H1178 0.930 . S
C1184 C1185 1.367 1_545 S
C1184 C1192 1.378 . S
C1185 C1184 1.367 1_565 S
C1185 C1193 1.433 . S
C1186 H1182 0.929 . S
C1186 C1188 1.378 . S
C1186 C1190 1.350 1_565 S
C1187 C1190 1.463 1_565 S
C1187 C1192 1.350 1_565 S
C1187 N1195 1.427 . S
C1188 H1179 0.930 . S
C1188 C1186 1.378 . S
C1188 C1189 1.367 1_565 S
C1189 C1188 1.367 1_545 S
C1189 C1191 1.433 . S
C1190 C1186 1.350 1_545 S
C1190 C1187 1.463 1_545 S
C1190 N1194 1.427 . S
C1191 H1181 0.929 . S
C1191 C1189 1.433 . S
C1191 N1194 1.384 . S
C1192 H1183 0.929 . S
C1192 C1184 1.378 . S
C1192 C1187 1.350 1_545 S
C1193 H1180 0.929 . S
C1193 C1185 1.433 . S
C1193 N1195 1.384 . S
N1194 C1190 1.427 . S
N1194 C1191 1.384 . S
N1195 C1187 1.427 . S
N1195 C1193 1.384 . S
H1196 C1202 0.930 . S
H1197 C1206 0.930 . S
H1198 C1211 0.929 . S
H1199 C1209 0.929 . S
H1200 C1204 0.929 . S
H1201 C1210 0.929 . S
C1202 H1196 0.930 . S
C1202 C1203 1.367 . S
C1202 C1210 1.378 . S
C1203 C1202 1.367 . S
C1203 C1211 1.433 . S
C1204 H1200 0.929 . S
C1204 C1206 1.378 . S
C1204 C1208 1.350 . S
C1205 C1208 1.463 . S
C1205 C1210 1.350 . S
C1205 N1213 1.427 . S
C1206 H1197 0.930 . S
C1206 C1204 1.378 . S
C1206 C1207 1.367 . S
C1207 C1206 1.367 . S
C1207 C1209 1.433 . S
C1208 C1204 1.350 . S
C1208 C1205 1.463 . S
C1208 N1212 1.427 . S
C1209 H1199 0.929 . S
C1209 C1207 1.433 . S
C1209 N1212 1.384 . S
C1210 H1201 0.929 . S
C1210 C1202 1.378 . S
C1210 C1205 1.350 . S
C1211 H1198 0.929 . S
C1211 C1203 1.433 . S
C1211 N1213 1.384 . S
N1212 C1208 1.427 . S
N1212 C1209 1.384 . S
N1213 C1205 1.427 . S
N1213 C1211 1.384 . S
H1214 C1220 0.930 . S
H1215 C1224 0.930 . S
H1216 C1229 0.929 . S
H1217 C1227 0.929 . S
H1218 C1222 0.929 . S
H1219 C1228 0.929 . S
C1220 H1214 0.930 . S
C1220 C1221 1.367 1_565 S
C1220 C1228 1.378 . S
C1221 C1220 1.367 1_545 S
C1221 C1229 1.433 1_455 S
C1222 H1218 0.929 . S
C1222 C1224 1.378 . S
C1222 C1226 1.350 1_545 S
C1223 C1226 1.463 1_446 S
C1223 C1228 1.350 1_545 S
C1223 N1231 1.427 1_455 S
C1224 H1215 0.930 . S
C1224 C1222 1.378 . S
C1224 C1225 1.367 1_545 S
C1225 C1224 1.367 1_565 S
C1225 C1227 1.433 1_655 S
C1226 C1222 1.350 1_565 S
C1226 C1223 1.463 1_664 S
C1226 N1230 1.427 1_655 S
C1227 H1217 0.929 . S
C1227 C1225 1.433 1_455 S
C1227 N1230 1.384 . S
C1228 H1219 0.929 . S
C1228 C1220 1.378 . S
C1228 C1223 1.350 1_565 S
C1229 H1216 0.929 . S
C1229 C1221 1.433 1_655 S
C1229 N1231 1.384 . S
N1230 C1226 1.427 1_455 S
N1230 C1227 1.384 . S
N1231 C1223 1.427 1_655 S
N1231 C1229 1.384 . S
H1232 C1238 0.930 . S
H1233 C1242 0.930 . S
H1234 C1247 0.929 . S
H1235 C1245 0.929 . S
H1236 C1240 0.929 . S
H1237 C1246 0.929 . S
C1238 H1232 0.930 . S
C1238 C1239 1.367 . S
C1238 C1246 1.378 . S
C1239 C1238 1.367 . S
C1239 C1247 1.433 . S
C1240 H1236 0.929 . S
C1240 C1242 1.378 . S
C1240 C1244 1.350 . S
C1241 C1244 1.463 . S
C1241 C1246 1.350 . S
C1241 N1249 1.427 . S
C1242 H1233 0.930 . S
C1242 C1240 1.378 . S
C1242 C1243 1.367 . S
C1243 C1242 1.367 . S
C1243 C1245 1.433 . S
C1244 C1240 1.350 . S
C1244 C1241 1.463 . S
C1244 N1248 1.427 . S
C1245 H1235 0.929 . S
C1245 C1243 1.433 . S
C1245 N1248 1.384 . S
C1246 H1237 0.929 . S
C1246 C1238 1.378 . S
C1246 C1241 1.350 . S
C1247 H1234 0.929 . S
C1247 C1239 1.433 . S
C1247 N1249 1.384 . S
N1248 C1244 1.427 . S
N1248 C1245 1.384 . S
N1249 C1241 1.427 . S
N1249 C1247 1.384 . S
H1250 C1256 0.930 . S
H1251 C1260 0.930 . S
H1252 C1265 0.929 . S
H1253 C1263 0.929 . S
H1254 C1258 0.929 . S
H1255 C1264 0.929 . S
C1256 H1250 0.930 . S
C1256 C1257 1.367 . S
C1256 C1264 1.378 . S
C1257 C1256 1.367 . S
C1257 C1265 1.433 . S
C1258 H1254 0.929 . S
C1258 C1260 1.378 . S
C1258 C1262 1.350 . S
C1259 C1262 1.463 . S
C1259 C1264 1.350 . S
C1259 N1267 1.427 . S
C1260 H1251 0.930 . S
C1260 C1258 1.378 . S
C1260 C1261 1.367 . S
C1261 C1260 1.367 . S
C1261 C1263 1.433 . S
C1262 C1258 1.350 . S
C1262 C1259 1.463 . S
C1262 N1266 1.427 . S
C1263 H1253 0.929 . S
C1263 C1261 1.433 . S
C1263 N1266 1.384 . S
C1264 H1255 0.929 . S
C1264 C1256 1.378 . S
C1264 C1259 1.350 . S
C1265 H1252 0.929 . S
C1265 C1257 1.433 . S
C1265 N1267 1.384 . S
N1266 C1262 1.427 . S
N1266 C1263 1.384 . S
N1267 C1259 1.427 . S
N1267 C1265 1.384 . S
H1268 C1274 0.930 . S
H1269 C1278 0.930 . S
H1270 C1283 0.929 . S
H1271 C1281 0.929 . S
H1272 C1276 0.929 . S
H1273 C1282 0.929 . S
C1274 H1268 0.930 . S
C1274 C1275 1.367 . S
C1274 C1282 1.378 . S
C1275 C1274 1.367 . S
C1275 C1283 1.433 . S
C1276 H1272 0.929 . S
C1276 C1278 1.378 . S
C1276 C1280 1.350 . S
C1277 C1280 1.463 . S
C1277 C1282 1.350 . S
C1277 N1285 1.427 . S
C1278 H1269 0.930 . S
C1278 C1276 1.378 . S
C1278 C1279 1.367 . S
C1279 C1278 1.367 . S
C1279 C1281 1.433 . S
C1280 C1276 1.350 . S
C1280 C1277 1.463 . S
C1280 N1284 1.427 . S
C1281 H1271 0.929 . S
C1281 C1279 1.433 . S
C1281 N1284 1.384 . S
C1282 H1273 0.929 . S
C1282 C1274 1.378 . S
C1282 C1277 1.350 . S
C1283 H1270 0.929 . S
C1283 C1275 1.433 . S
C1283 N1285 1.384 . S
N1284 C1280 1.427 . S
N1284 C1281 1.384 . S
N1285 C1277 1.427 . S
N1285 C1283 1.384 . S
H1286 C1292 0.930 . S
H1287 C1296 0.930 . S
H1288 C1301 0.929 . S
H1289 C1299 0.929 . S
H1290 C1294 0.929 . S
H1291 C1300 0.929 . S
C1292 H1286 0.930 . S
C1292 C1293 1.367 . S
C1292 C1300 1.378 . S
C1293 C1292 1.367 . S
C1293 C1301 1.433 . S
C1294 H1290 0.929 . S
C1294 C1296 1.378 . S
C1294 C1298 1.350 . S
C1295 C1298 1.463 . S
C1295 C1300 1.350 . S
C1295 N1303 1.427 . S
C1296 H1287 0.930 . S
C1296 C1294 1.378 . S
C1296 C1297 1.367 . S
C1297 C1296 1.367 . S
C1297 C1299 1.433 . S
C1298 C1294 1.350 . S
C1298 C1295 1.463 . S
C1298 N1302 1.427 . S
C1299 H1289 0.929 . S
C1299 C1297 1.433 . S
C1299 N1302 1.384 . S
C1300 H1291 0.929 . S
C1300 C1292 1.378 . S
C1300 C1295 1.350 . S
C1301 H1288 0.929 . S
C1301 C1293 1.433 . S
C1301 N1303 1.384 . S
N1302 C1298 1.427 . S
N1302 C1299 1.384 . S
N1303 C1295 1.427 . S
N1303 C1301 1.384 . S
H1304 C1310 0.930 . S
H1305 C1314 0.930 . S
H1306 C1319 0.929 . S
H1307 C1317 0.929 . S
H1308 C1312 0.929 . S
H1309 C1318 0.929 . S
C1310 H1304 0.930 . S
C1310 C1311 1.367 . S
C1310 C1318 1.378 . S
C1311 C1310 1.367 . S
C1311 C1319 1.433 . S
C1312 H1308 0.929 . S
C1312 C1314 1.378 . S
C1312 C1316 1.350 . S
C1313 C1316 1.463 1_556 S
C1313 C1318 1.350 . S
C1313 N1321 1.427 . S
C1314 H1305 0.930 . S
C1314 C1312 1.378 . S
C1314 C1315 1.367 . S
C1315 C1314 1.367 . S
C1315 C1317 1.433 . S
C1316 C1312 1.350 . S
C1316 C1313 1.463 1_554 S
C1316 N1320 1.427 . S
C1317 H1307 0.929 . S
C1317 C1315 1.433 . S
C1317 N1320 1.384 . S
C1318 H1309 0.929 . S
C1318 C1310 1.378 . S
C1318 C1313 1.350 . S
C1319 H1306 0.929 . S
C1319 C1311 1.433 . S
C1319 N1321 1.384 . S
N1320 C1316 1.427 . S
N1320 C1317 1.384 . S
N1321 C1313 1.427 . S
N1321 C1319 1.384 . S
H1322 C1328 0.930 . S
H1323 C1332 0.930 . S
H1324 C1337 0.929 . S
H1325 C1335 0.929 . S
H1326 C1330 0.929 . S
H1327 C1336 0.929 . S
C1328 H1322 0.930 . S
C1328 C1329 1.367 . S
C1328 C1336 1.378 . S
C1329 C1328 1.367 . S
C1329 C1337 1.433 . S
C1330 H1326 0.929 . S
C1330 C1332 1.378 . S
C1330 C1334 1.350 . S
C1331 C1334 1.463 1_655 S
C1331 C1336 1.350 . S
C1331 N1339 1.427 . S
C1332 H1323 0.930 . S
C1332 C1330 1.378 . S
C1332 C1333 1.367 . S
C1333 C1332 1.367 . S
C1333 C1335 1.433 . S
C1334 C1330 1.350 . S
C1334 C1331 1.463 1_455 S
C1334 N1338 1.427 . S
C1335 H1325 0.929 . S
C1335 C1333 1.433 . S
C1335 N1338 1.384 . S
C1336 H1327 0.929 . S
C1336 C1328 1.378 . S
C1336 C1331 1.350 . S
C1337 H1324 0.929 . S
C1337 C1329 1.433 . S
C1337 N1339 1.384 . S
N1338 C1334 1.427 . S
N1338 C1335 1.384 . S
N1339 C1331 1.427 . S
N1339 C1337 1.384 . S
H1340 C1346 0.930 . S
H1341 C1350 0.930 . S
H1342 C1355 0.929 . S
H1343 C1353 0.929 . S
H1344 C1348 0.929 . S
H1345 C1354 0.929 . S
C1346 H1340 0.930 . S
C1346 C1347 1.367 . S
C1346 C1354 1.378 . S
C1347 C1346 1.367 . S
C1347 C1355 1.433 . S
C1348 H1344 0.929 . S
C1348 C1350 1.378 . S
C1348 C1352 1.350 . S
C1349 C1352 1.463 1_454 S
C1349 C1354 1.350 . S
C1349 N1357 1.427 . S
C1350 H1341 0.930 . S
C1350 C1348 1.378 . S
C1350 C1351 1.367 . S
C1351 C1350 1.367 . S
C1351 C1353 1.433 . S
C1352 C1348 1.350 . S
C1352 C1349 1.463 1_656 S
C1352 N1356 1.427 . S
C1353 H1343 0.929 . S
C1353 C1351 1.433 . S
C1353 N1356 1.384 . S
C1354 H1345 0.929 . S
C1354 C1346 1.378 . S
C1354 C1349 1.350 . S
C1355 H1342 0.929 . S
C1355 C1347 1.433 . S
C1355 N1357 1.384 . S
N1356 C1352 1.427 . S
N1356 C1353 1.384 . S
N1357 C1349 1.427 . S
N1357 C1355 1.384 . S
H1358 C1364 0.930 . S
H1359 C1368 0.930 . S
H1360 C1373 0.929 . S
H1361 C1371 0.929 . S
H1362 C1366 0.929 . S
H1363 C1372 0.929 . S
C1364 H1358 0.930 . S
C1364 C1365 1.367 . S
C1364 C1372 1.378 . S
C1365 C1364 1.367 . S
C1365 C1373 1.433 . S
C1366 H1362 0.929 . S
C1366 C1368 1.378 . S
C1366 C1370 1.350 . S
C1367 C1370 1.463 . S
C1367 C1372 1.350 . S
C1367 N1375 1.427 . S
C1368 H1359 0.930 . S
C1368 C1366 1.378 . S
C1368 C1369 1.367 . S
C1369 C1368 1.367 . S
C1369 C1371 1.433 . S
C1370 C1366 1.350 . S
C1370 C1367 1.463 . S
C1370 N1374 1.427 . S
C1371 H1361 0.929 . S
C1371 C1369 1.433 . S
C1371 N1374 1.384 . S
C1372 H1363 0.929 . S
C1372 C1364 1.378 . S
C1372 C1367 1.350 . S
C1373 H1360 0.929 . S
C1373 C1365 1.433 . S
C1373 N1375 1.384 . S
N1374 C1370 1.427 . S
N1374 C1371 1.384 . S
N1375 C1367 1.427 . S
N1375 C1373 1.384 . S
H1376 C1382 0.930 . S
H1377 C1386 0.930 . S
H1378 C1391 0.929 . S
H1379 C1389 0.929 . S
H1380 C1384 0.929 . S
H1381 C1390 0.929 . S
C1382 H1376 0.930 . S
C1382 C1383 1.367 . S
C1382 C1390 1.378 . S
C1383 C1382 1.367 . S
C1383 C1391 1.433 . S
C1384 H1380 0.929 . S
C1384 C1386 1.378 . S
C1384 C1388 1.350 . S
C1385 C1388 1.463 . S
C1385 C1390 1.350 . S
C1385 N1393 1.427 . S
C1386 H1377 0.930 . S
C1386 C1384 1.378 . S
C1386 C1387 1.367 . S
C1387 C1386 1.367 . S
C1387 C1389 1.433 . S
C1388 C1384 1.350 . S
C1388 C1385 1.463 . S
C1388 N1392 1.427 . S
C1389 H1379 0.929 . S
C1389 C1387 1.433 . S
C1389 N1392 1.384 . S
C1390 H1381 0.929 . S
C1390 C1382 1.378 . S
C1390 C1385 1.350 . S
C1391 H1378 0.929 . S
C1391 C1383 1.433 . S
C1391 N1393 1.384 . S
N1392 C1388 1.427 . S
N1392 C1389 1.384 . S
N1393 C1385 1.427 . S
N1393 C1391 1.384 . S
H1394 C1400 0.930 . S
H1395 C1404 0.930 . S
H1396 C1409 0.929 . S
H1397 C1407 0.929 . S
H1398 C1402 0.929 . S
H1399 C1408 0.929 . S
C1400 H1394 0.930 . S
C1400 C1401 1.367 . S
C1400 C1408 1.378 . S
C1401 C1400 1.367 . S
C1401 C1409 1.433 . S
C1402 H1398 0.929 . S
C1402 C1404 1.378 . S
C1402 C1406 1.350 . S
C1403 C1406 1.463 . S
C1403 C1408 1.350 . S
C1403 N1411 1.427 . S
C1404 H1395 0.930 . S
C1404 C1402 1.378 . S
C1404 C1405 1.367 . S
C1405 C1404 1.367 . S
C1405 C1407 1.433 . S
C1406 C1402 1.350 . S
C1406 C1403 1.463 . S
C1406 N1410 1.427 . S
C1407 H1397 0.929 . S
C1407 C1405 1.433 . S
C1407 N1410 1.384 . S
C1408 H1399 0.929 . S
C1408 C1400 1.378 . S
C1408 C1403 1.350 . S
C1409 H1396 0.929 . S
C1409 C1401 1.433 . S
C1409 N1411 1.384 . S
N1410 C1406 1.427 . S
N1410 C1407 1.384 . S
N1411 C1403 1.427 . S
N1411 C1409 1.384 . S
H1412 C1418 0.930 . S
H1413 C1422 0.930 . S
H1414 C1427 0.929 . S
H1415 C1425 0.929 . S
H1416 C1420 0.929 . S
H1417 C1426 0.929 . S
C1418 H1412 0.930 . S
C1418 C1419 1.367 . S
C1418 C1426 1.378 . S
C1419 C1418 1.367 . S
C1419 C1427 1.433 . S
C1420 H1416 0.929 . S
C1420 C1422 1.378 . S
C1420 C1424 1.350 . S
C1421 C1424 1.463 . S
C1421 C1426 1.350 . S
C1421 N1429 1.427 . S
C1422 H1413 0.930 . S
C1422 C1420 1.378 . S
C1422 C1423 1.367 . S
C1423 C1422 1.367 . S
C1423 C1425 1.433 . S
C1424 C1420 1.350 . S
C1424 C1421 1.463 . S
C1424 N1428 1.427 . S
C1425 H1415 0.929 . S
C1425 C1423 1.433 . S
C1425 N1428 1.384 . S
C1426 H1417 0.929 . S
C1426 C1418 1.378 . S
C1426 C1421 1.350 . S
C1427 H1414 0.929 . S
C1427 C1419 1.433 . S
C1427 N1429 1.384 . S
N1428 C1424 1.427 . S
N1428 C1425 1.384 . S
N1429 C1421 1.427 . S
N1429 C1427 1.384 . S
H1430 C1436 0.930 . S
H1431 C1440 0.930 . S
H1432 C1445 0.929 . S
H1433 C1443 0.929 . S
H1434 C1438 0.929 . S
H1435 C1444 0.929 . S
C1436 H1430 0.930 . S
C1436 C1437 1.367 . S
C1436 C1444 1.378 . S
C1437 C1436 1.367 . S
C1437 C1445 1.433 . S
C1438 H1434 0.929 . S
C1438 C1440 1.378 . S
C1438 C1442 1.350 . S
C1439 C1442 1.463 . S
C1439 C1444 1.350 . S
C1439 N1447 1.427 . S
C1440 H1431 0.930 . S
C1440 C1438 1.378 . S
C1440 C1441 1.367 . S
C1441 C1440 1.367 . S
C1441 C1443 1.433 . S
C1442 C1438 1.350 . S
C1442 C1439 1.463 . S
C1442 N1446 1.427 . S
C1443 H1433 0.929 . S
C1443 C1441 1.433 . S
C1443 N1446 1.384 . S
C1444 H1435 0.929 . S
C1444 C1436 1.378 . S
C1444 C1439 1.350 . S
C1445 H1432 0.929 . S
C1445 C1437 1.433 . S
C1445 N1447 1.384 . S
N1446 C1442 1.427 . S
N1446 C1443 1.384 . S
N1447 C1439 1.427 . S
N1447 C1445 1.384 . S
H1448 C1454 0.930 . S
H1449 C1458 0.930 . S
H1450 C1463 0.929 . S
H1451 C1461 0.929 . S
H1452 C1456 0.929 . S
H1453 C1462 0.929 . S
C1454 H1448 0.930 . S
C1454 C1455 1.367 . S
C1454 C1462 1.378 . S
C1455 C1454 1.367 . S
C1455 C1463 1.433 . S
C1456 H1452 0.929 . S
C1456 C1458 1.378 . S
C1456 C1460 1.350 . S
C1457 C1460 1.463 . S
C1457 C1462 1.350 . S
C1457 N1465 1.427 . S
C1458 H1449 0.930 . S
C1458 C1456 1.378 . S
C1458 C1459 1.367 . S
C1459 C1458 1.367 . S
C1459 C1461 1.433 . S
C1460 C1456 1.350 . S
C1460 C1457 1.463 . S
C1460 N1464 1.427 . S
C1461 H1451 0.929 . S
C1461 C1459 1.433 . S
C1461 N1464 1.384 . S
C1462 H1453 0.929 . S
C1462 C1454 1.378 . S
C1462 C1457 1.350 . S
C1463 H1450 0.929 . S
C1463 C1455 1.433 . S
C1463 N1465 1.384 . S
N1464 C1460 1.427 . S
N1464 C1461 1.384 . S
N1465 C1457 1.427 . S
N1465 C1463 1.384 . S
H1466 C1472 0.930 . S
H1467 C1476 0.930 . S
H1468 C1481 0.929 . S
H1469 C1479 0.929 . S
H1470 C1474 0.929 . S
H1471 C1480 0.929 . S
C1472 H1466 0.930 . S
C1472 C1473 1.367 . S
C1472 C1480 1.378 . S
C1473 C1472 1.367 . S
C1473 C1481 1.433 . S
C1474 H1470 0.929 . S
C1474 C1476 1.378 . S
C1474 C1478 1.350 . S
C1475 C1478 1.463 . S
C1475 C1480 1.350 . S
C1475 N1483 1.427 . S
C1476 H1467 0.930 . S
C1476 C1474 1.378 . S
C1476 C1477 1.367 . S
C1477 C1476 1.367 . S
C1477 C1479 1.433 . S
C1478 C1474 1.350 . S
C1478 C1475 1.463 . S
C1478 N1482 1.427 . S
C1479 H1469 0.929 . S
C1479 C1477 1.433 . S
C1479 N1482 1.384 . S
C1480 H1471 0.929 . S
C1480 C1472 1.378 . S
C1480 C1475 1.350 . S
C1481 H1468 0.929 . S
C1481 C1473 1.433 . S
C1481 N1483 1.384 . S
N1482 C1478 1.427 . S
N1482 C1479 1.384 . S
N1483 C1475 1.427 . S
N1483 C1481 1.384 . S
H1484 C1490 0.930 . S
H1485 C1494 0.930 . S
H1486 C1499 0.929 . S
H1487 C1497 0.929 . S
H1488 C1492 0.929 . S
H1489 C1498 0.929 . S
C1490 H1484 0.930 . S
C1490 C1491 1.367 . S
C1490 C1498 1.378 . S
C1491 C1490 1.367 . S
C1491 C1499 1.433 . S
C1492 H1488 0.929 . S
C1492 C1494 1.378 . S
C1492 C1496 1.350 . S
C1493 C1496 1.463 . S
C1493 C1498 1.350 . S
C1493 N1501 1.427 . S
C1494 H1485 0.930 . S
C1494 C1492 1.378 . S
C1494 C1495 1.367 . S
C1495 C1494 1.367 . S
C1495 C1497 1.433 . S
C1496 C1492 1.350 . S
C1496 C1493 1.463 . S
C1496 N1500 1.427 . S
C1497 H1487 0.929 . S
C1497 C1495 1.433 . S
C1497 N1500 1.384 . S
C1498 H1489 0.929 . S
C1498 C1490 1.378 . S
C1498 C1493 1.350 . S
C1499 H1486 0.929 . S
C1499 C1491 1.433 . S
C1499 N1501 1.384 . S
N1500 C1496 1.427 . S
N1500 C1497 1.384 . S
N1501 C1493 1.427 . S
N1501 C1499 1.384 . S
H1502 C1508 0.930 . S
H1503 C1512 0.930 . S
H1504 C1517 0.929 . S
H1505 C1515 0.929 . S
H1506 C1510 0.929 . S
H1507 C1516 0.929 . S
C1508 H1502 0.930 . S
C1508 C1509 1.367 . S
C1508 C1516 1.378 . S
C1509 C1508 1.367 . S
C1509 C1517 1.433 . S
C1510 H1506 0.929 . S
C1510 C1512 1.378 . S
C1510 C1514 1.350 . S
C1511 C1514 1.463 . S
C1511 C1516 1.350 . S
C1511 N1519 1.427 . S
C1512 H1503 0.930 . S
C1512 C1510 1.378 . S
C1512 C1513 1.367 . S
C1513 C1512 1.367 . S
C1513 C1515 1.433 . S
C1514 C1510 1.350 . S
C1514 C1511 1.463 . S
C1514 N1518 1.427 . S
C1515 H1505 0.929 . S
C1515 C1513 1.433 . S
C1515 N1518 1.384 . S
C1516 H1507 0.929 . S
C1516 C1508 1.378 . S
C1516 C1511 1.350 . S
C1517 H1504 0.929 . S
C1517 C1509 1.433 . S
C1517 N1519 1.384 . S
N1518 C1514 1.427 . S
N1518 C1515 1.384 . S
N1519 C1511 1.427 . S
N1519 C1517 1.384 . S
H1520 C1526 0.930 . S
H1521 C1530 0.930 . S
H1522 C1535 0.929 . S
H1523 C1533 0.929 . S
H1524 C1528 0.929 . S
H1525 C1534 0.929 . S
C1526 H1520 0.930 . S
C1526 C1527 1.367 . S
C1526 C1534 1.378 . S
C1527 C1526 1.367 . S
C1527 C1535 1.433 . S
C1528 H1524 0.929 . S
C1528 C1530 1.378 . S
C1528 C1532 1.350 . S
C1529 C1532 1.463 . S
C1529 C1534 1.350 . S
C1529 N1537 1.427 . S
C1530 H1521 0.930 . S
C1530 C1528 1.378 . S
C1530 C1531 1.367 . S
C1531 C1530 1.367 . S
C1531 C1533 1.433 . S
C1532 C1528 1.350 . S
C1532 C1529 1.463 . S
C1532 N1536 1.427 . S
C1533 H1523 0.929 . S
C1533 C1531 1.433 . S
C1533 N1536 1.384 . S
C1534 H1525 0.929 . S
C1534 C1526 1.378 . S
C1534 C1529 1.350 . S
C1535 H1522 0.929 . S
C1535 C1527 1.433 . S
C1535 N1537 1.384 . S
N1536 C1532 1.427 . S
N1536 C1533 1.384 . S
N1537 C1529 1.427 . S
N1537 C1535 1.384 . S
H1538 C1544 0.930 . S
H1539 C1548 0.930 . S
H1540 C1553 0.929 . S
H1541 C1551 0.929 . S
H1542 C1546 0.929 . S
H1543 C1552 0.929 . S
C1544 H1538 0.930 . S
C1544 C1545 1.367 . S
C1544 C1552 1.378 . S
C1545 C1544 1.367 . S
C1545 C1553 1.433 . S
C1546 H1542 0.929 . S
C1546 C1548 1.378 . S
C1546 C1550 1.350 . S
C1547 C1550 1.463 . S
C1547 C1552 1.350 . S
C1547 N1555 1.427 . S
C1548 H1539 0.930 . S
C1548 C1546 1.378 . S
C1548 C1549 1.367 . S
C1549 C1548 1.367 . S
C1549 C1551 1.433 . S
C1550 C1546 1.350 . S
C1550 C1547 1.463 . S
C1550 N1554 1.427 . S
C1551 H1541 0.929 . S
C1551 C1549 1.433 . S
C1551 N1554 1.384 . S
C1552 H1543 0.929 . S
C1552 C1544 1.378 . S
C1552 C1547 1.350 . S
C1553 H1540 0.929 . S
C1553 C1545 1.433 . S
C1553 N1555 1.384 . S
N1554 C1550 1.427 . S
N1554 C1551 1.384 . S
N1555 C1547 1.427 . S
N1555 C1553 1.384 . S
H1556 C1562 0.930 . S
H1557 C1566 0.930 . S
H1558 C1571 0.929 . S
H1559 C1569 0.929 . S
H1560 C1564 0.929 . S
H1561 C1570 0.929 . S
C1562 H1556 0.930 . S
C1562 C1563 1.367 . S
C1562 C1570 1.378 . S
C1563 C1562 1.367 . S
C1563 C1571 1.433 . S
C1564 H1560 0.929 . S
C1564 C1566 1.378 . S
C1564 C1568 1.350 . S
C1565 C1568 1.463 . S
C1565 C1570 1.350 . S
C1565 N1573 1.427 . S
C1566 H1557 0.930 . S
C1566 C1564 1.378 . S
C1566 C1567 1.367 . S
C1567 C1566 1.367 . S
C1567 C1569 1.433 . S
C1568 C1564 1.350 . S
C1568 C1565 1.463 . S
C1568 N1572 1.427 . S
C1569 H1559 0.929 . S
C1569 C1567 1.433 . S
C1569 N1572 1.384 . S
C1570 H1561 0.929 . S
C1570 C1562 1.378 . S
C1570 C1565 1.350 . S
C1571 H1558 0.929 . S
C1571 C1563 1.433 . S
C1571 N1573 1.384 . S
N1572 C1568 1.427 . S
N1572 C1569 1.384 . S
N1573 C1565 1.427 . S
N1573 C1571 1.384 . S
H1574 C1580 0.930 . S
H1575 C1584 0.930 . S
H1576 C1589 0.929 . S
H1577 C1587 0.929 . S
H1578 C1582 0.929 . S
H1579 C1588 0.929 . S
C1580 H1574 0.930 . S
C1580 C1581 1.367 . S
C1580 C1588 1.378 . S
C1581 C1580 1.367 . S
C1581 C1589 1.433 . S
C1582 H1578 0.929 . S
C1582 C1584 1.378 . S
C1582 C1586 1.350 . S
C1583 C1586 1.463 . S
C1583 C1588 1.350 . S
C1583 N1591 1.427 . S
C1584 H1575 0.930 . S
C1584 C1582 1.378 . S
C1584 C1585 1.367 . S
C1585 C1584 1.367 . S
C1585 C1587 1.433 . S
C1586 C1582 1.350 . S
C1586 C1583 1.463 . S
C1586 N1590 1.427 . S
C1587 H1577 0.929 . S
C1587 C1585 1.433 . S
C1587 N1590 1.384 . S
C1588 H1579 0.929 . S
C1588 C1580 1.378 . S
C1588 C1583 1.350 . S
C1589 H1576 0.929 . S
C1589 C1581 1.433 . S
C1589 N1591 1.384 . S
N1590 C1586 1.427 . S
N1590 C1587 1.384 . S
N1591 C1583 1.427 . S
N1591 C1589 1.384 . S
H1592 C1598 0.930 . S
H1593 C1602 0.930 . S
H1594 C1607 0.929 . S
H1595 C1605 0.929 . S
H1596 C1600 0.929 . S
H1597 C1606 0.929 . S
C1598 H1592 0.930 . S
C1598 C1599 1.367 . S
C1598 C1606 1.378 . S
C1599 C1598 1.367 . S
C1599 C1607 1.433 . S
C1600 H1596 0.929 . S
C1600 C1602 1.378 . S
C1600 C1604 1.350 . S
C1601 C1604 1.463 . S
C1601 C1606 1.350 . S
C1601 N1609 1.427 . S
C1602 H1593 0.930 . S
C1602 C1600 1.378 . S
C1602 C1603 1.367 . S
C1603 C1602 1.367 . S
C1603 C1605 1.433 . S
C1604 C1600 1.350 . S
C1604 C1601 1.463 . S
C1604 N1608 1.427 . S
C1605 H1595 0.929 . S
C1605 C1603 1.433 . S
C1605 N1608 1.384 . S
C1606 H1597 0.929 . S
C1606 C1598 1.378 . S
C1606 C1601 1.350 . S
C1607 H1594 0.929 . S
C1607 C1599 1.433 . S
C1607 N1609 1.384 . S
N1608 C1604 1.427 . S
N1608 C1605 1.384 . S
N1609 C1601 1.427 . S
N1609 C1607 1.384 . S
H1610 C1616 0.930 . S
H1611 C1620 0.930 . S
H1612 C1625 0.929 . S
H1613 C1623 0.929 . S
H1614 C1618 0.929 . S
H1615 C1624 0.929 . S
C1616 H1610 0.930 . S
C1616 C1617 1.367 . S
C1616 C1624 1.378 . S
C1617 C1616 1.367 . S
C1617 C1625 1.433 . S
C1618 H1614 0.929 . S
C1618 C1620 1.378 . S
C1618 C1622 1.350 . S
C1619 C1622 1.463 . S
C1619 C1624 1.350 . S
C1619 N1627 1.427 . S
C1620 H1611 0.930 . S
C1620 C1618 1.378 . S
C1620 C1621 1.367 . S
C1621 C1620 1.367 . S
C1621 C1623 1.433 . S
C1622 C1618 1.350 . S
C1622 C1619 1.463 . S
C1622 N1626 1.427 . S
C1623 H1613 0.929 . S
C1623 C1621 1.433 . S
C1623 N1626 1.384 . S
C1624 H1615 0.929 . S
C1624 C1616 1.378 . S
C1624 C1619 1.350 . S
C1625 H1612 0.929 . S
C1625 C1617 1.433 . S
C1625 N1627 1.384 . S
N1626 C1622 1.427 . S
N1626 C1623 1.384 . S
N1627 C1619 1.427 . S
N1627 C1625 1.384 . S
H1628 C1634 0.930 . S
H1629 C1638 0.930 . S
H1630 C1643 0.929 . S
H1631 C1641 0.929 . S
H1632 C1636 0.929 . S
H1633 C1642 0.929 . S
C1634 H1628 0.930 . S
C1634 C1635 1.367 . S
C1634 C1642 1.378 . S
C1635 C1634 1.367 . S
C1635 C1643 1.433 . S
C1636 H1632 0.929 . S
C1636 C1638 1.378 . S
C1636 C1640 1.350 . S
C1637 C1640 1.463 . S
C1637 C1642 1.350 . S
C1637 N1645 1.427 . S
C1638 H1629 0.930 . S
C1638 C1636 1.378 . S
C1638 C1639 1.367 . S
C1639 C1638 1.367 . S
C1639 C1641 1.433 . S
C1640 C1636 1.350 . S
C1640 C1637 1.463 . S
C1640 N1644 1.427 . S
C1641 H1631 0.929 . S
C1641 C1639 1.433 . S
C1641 N1644 1.384 . S
C1642 H1633 0.929 . S
C1642 C1634 1.378 . S
C1642 C1637 1.350 . S
C1643 H1630 0.929 . S
C1643 C1635 1.433 . S
C1643 N1645 1.384 . S
N1644 C1640 1.427 . S
N1644 C1641 1.384 . S
N1645 C1637 1.427 . S
N1645 C1643 1.384 . S
H1646 C1652 0.930 . S
H1647 C1656 0.930 . S
H1648 C1661 0.929 . S
H1649 C1659 0.929 . S
H1650 C1654 0.929 . S
H1651 C1660 0.929 . S
C1652 H1646 0.930 . S
C1652 C1653 1.367 . S
C1652 C1660 1.378 . S
C1653 C1652 1.367 . S
C1653 C1661 1.433 . S
C1654 H1650 0.929 . S
C1654 C1656 1.378 . S
C1654 C1658 1.350 . S
C1655 C1658 1.463 . S
C1655 C1660 1.350 . S
C1655 N1663 1.427 . S
C1656 H1647 0.930 . S
C1656 C1654 1.378 . S
C1656 C1657 1.367 . S
C1657 C1656 1.367 . S
C1657 C1659 1.433 . S
C1658 C1654 1.350 . S
C1658 C1655 1.463 . S
C1658 N1662 1.427 . S
C1659 H1649 0.929 . S
C1659 C1657 1.433 . S
C1659 N1662 1.384 . S
C1660 H1651 0.929 . S
C1660 C1652 1.378 . S
C1660 C1655 1.350 . S
C1661 H1648 0.929 . S
C1661 C1653 1.433 . S
C1661 N1663 1.384 . S
N1662 C1658 1.427 . S
N1662 C1659 1.384 . S
N1663 C1655 1.427 . S
N1663 C1661 1.384 . S
H1664 C1670 0.930 . S
H1665 C1674 0.930 . S
H1666 C1679 0.929 . S
H1667 C1677 0.929 . S
H1668 C1672 0.929 . S
H1669 C1678 0.929 . S
C1670 H1664 0.930 . S
C1670 C1671 1.367 . S
C1670 C1678 1.378 . S
C1671 C1670 1.367 . S
C1671 C1679 1.433 . S
C1672 H1668 0.929 . S
C1672 C1674 1.378 . S
C1672 C1676 1.350 . S
C1673 C1676 1.463 . S
C1673 C1678 1.350 . S
C1673 N1681 1.427 . S
C1674 H1665 0.930 . S
C1674 C1672 1.378 . S
C1674 C1675 1.367 . S
C1675 C1674 1.367 . S
C1675 C1677 1.433 . S
C1676 C1672 1.350 . S
C1676 C1673 1.463 . S
C1676 N1680 1.427 . S
C1677 H1667 0.929 . S
C1677 C1675 1.433 . S
C1677 N1680 1.384 . S
C1678 H1669 0.929 . S
C1678 C1670 1.378 . S
C1678 C1673 1.350 . S
C1679 H1666 0.929 . S
C1679 C1671 1.433 . S
C1679 N1681 1.384 . S
N1680 C1676 1.427 . S
N1680 C1677 1.384 . S
N1681 C1673 1.427 . S
N1681 C1679 1.384 . S
H1682 C1688 0.930 . S
H1683 C1692 0.930 . S
H1684 C1697 0.929 . S
H1685 C1695 0.929 . S
H1686 C1690 0.929 . S
H1687 C1696 0.929 . S
C1688 H1682 0.930 . S
C1688 C1689 1.367 . S
C1688 C1696 1.378 . S
C1689 C1688 1.367 . S
C1689 C1697 1.433 . S
C1690 H1686 0.929 . S
C1690 C1692 1.378 . S
C1690 C1694 1.350 . S
C1691 C1694 1.463 . S
C1691 C1696 1.350 . S
C1691 N1699 1.427 . S
C1692 H1683 0.930 . S
C1692 C1690 1.378 . S
C1692 C1693 1.367 . S
C1693 C1692 1.367 . S
C1693 C1695 1.433 . S
C1694 C1690 1.350 . S
C1694 C1691 1.463 . S
C1694 N1698 1.427 . S
C1695 H1685 0.929 . S
C1695 C1693 1.433 . S
C1695 N1698 1.384 . S
C1696 H1687 0.929 . S
C1696 C1688 1.378 . S
C1696 C1691 1.350 . S
C1697 H1684 0.929 . S
C1697 C1689 1.433 . S
C1697 N1699 1.384 . S
N1698 C1694 1.427 . S
N1698 C1695 1.384 . S
N1699 C1691 1.427 . S
N1699 C1697 1.384 . S
H1700 C1706 0.930 . S
H1701 C1710 0.930 . S
H1702 C1715 0.929 . S
H1703 C1713 0.929 . S
H1704 C1708 0.929 . S
H1705 C1714 0.929 . S
C1706 H1700 0.930 . S
C1706 C1707 1.367 . S
C1706 C1714 1.378 . S
C1707 C1706 1.367 . S
C1707 C1715 1.433 . S
C1708 H1704 0.929 . S
C1708 C1710 1.378 . S
C1708 C1712 1.350 . S
C1709 C1712 1.463 . S
C1709 C1714 1.350 . S
C1709 N1717 1.427 . S
C1710 H1701 0.930 . S
C1710 C1708 1.378 . S
C1710 C1711 1.367 . S
C1711 C1710 1.367 . S
C1711 C1713 1.433 . S
C1712 C1708 1.350 . S
C1712 C1709 1.463 . S
C1712 N1716 1.427 . S
C1713 H1703 0.929 . S
C1713 C1711 1.433 . S
C1713 N1716 1.384 . S
C1714 H1705 0.929 . S
C1714 C1706 1.378 . S
C1714 C1709 1.350 . S
C1715 H1702 0.929 . S
C1715 C1707 1.433 . S
C1715 N1717 1.384 . S
N1716 C1712 1.427 . S
N1716 C1713 1.384 . S
N1717 C1709 1.427 . S
N1717 C1715 1.384 . S
H1718 C1724 0.930 . S
H1719 C1728 0.930 . S
H1720 C1733 0.929 . S
H1721 C1731 0.929 . S
H1722 C1726 0.929 . S
H1723 C1732 0.929 . S
C1724 H1718 0.930 . S
C1724 C1725 1.367 . S
C1724 C1732 1.378 . S
C1725 C1724 1.367 . S
C1725 C1733 1.433 . S
C1726 H1722 0.929 . S
C1726 C1728 1.378 . S
C1726 C1730 1.350 . S
C1727 C1730 1.463 . S
C1727 C1732 1.350 . S
C1727 N1735 1.427 . S
C1728 H1719 0.930 . S
C1728 C1726 1.378 . S
C1728 C1729 1.367 . S
C1729 C1728 1.367 . S
C1729 C1731 1.433 . S
C1730 C1726 1.350 . S
C1730 C1727 1.463 . S
C1730 N1734 1.427 . S
C1731 H1721 0.929 . S
C1731 C1729 1.433 . S
C1731 N1734 1.384 . S
C1732 H1723 0.929 . S
C1732 C1724 1.378 . S
C1732 C1727 1.350 . S
C1733 H1720 0.929 . S
C1733 C1725 1.433 . S
C1733 N1735 1.384 . S
N1734 C1730 1.427 . S
N1734 C1731 1.384 . S
N1735 C1727 1.427 . S
N1735 C1733 1.384 . S
H1736 C1742 0.930 . S
H1737 C1746 0.930 . S
H1738 C1751 0.929 . S
H1739 C1749 0.929 . S
H1740 C1744 0.929 . S
H1741 C1750 0.929 . S
C1742 H1736 0.930 . S
C1742 C1743 1.367 . S
C1742 C1750 1.378 . S
C1743 C1742 1.367 . S
C1743 C1751 1.433 . S
C1744 H1740 0.929 . S
C1744 C1746 1.378 . S
C1744 C1748 1.350 . S
C1745 C1748 1.463 . S
C1745 C1750 1.350 . S
C1745 N1753 1.427 . S
C1746 H1737 0.930 . S
C1746 C1744 1.378 . S
C1746 C1747 1.367 . S
C1747 C1746 1.367 . S
C1747 C1749 1.433 . S
C1748 C1744 1.350 . S
C1748 C1745 1.463 . S
C1748 N1752 1.427 . S
C1749 H1739 0.929 . S
C1749 C1747 1.433 . S
C1749 N1752 1.384 . S
C1750 H1741 0.929 . S
C1750 C1742 1.378 . S
C1750 C1745 1.350 . S
C1751 H1738 0.929 . S
C1751 C1743 1.433 . S
C1751 N1753 1.384 . S
N1752 C1748 1.427 . S
N1752 C1749 1.384 . S
N1753 C1745 1.427 . S
N1753 C1751 1.384 . S
H1754 C1760 0.930 . S
H1755 C1764 0.930 . S
H1756 C1769 0.929 . S
H1757 C1767 0.929 . S
H1758 C1762 0.929 . S
H1759 C1768 0.929 . S
C1760 H1754 0.930 . S
C1760 C1761 1.367 . S
C1760 C1768 1.378 . S
C1761 C1760 1.367 . S
C1761 C1769 1.433 . S
C1762 H1758 0.929 . S
C1762 C1764 1.378 . S
C1762 C1766 1.350 . S
C1763 C1766 1.463 . S
C1763 C1768 1.350 . S
C1763 N1771 1.427 . S
C1764 H1755 0.930 . S
C1764 C1762 1.378 . S
C1764 C1765 1.367 . S
C1765 C1764 1.367 . S
C1765 C1767 1.433 . S
C1766 C1762 1.350 . S
C1766 C1763 1.463 . S
C1766 N1770 1.427 . S
C1767 H1757 0.929 . S
C1767 C1765 1.433 . S
C1767 N1770 1.384 . S
C1768 H1759 0.929 . S
C1768 C1760 1.378 . S
C1768 C1763 1.350 . S
C1769 H1756 0.929 . S
C1769 C1761 1.433 . S
C1769 N1771 1.384 . S
N1770 C1766 1.427 . S
N1770 C1767 1.384 . S
N1771 C1763 1.427 . S
N1771 C1769 1.384 . S
H1772 C1778 0.930 . S
H1773 C1782 0.930 . S
H1774 C1787 0.929 . S
H1775 C1785 0.929 . S
H1776 C1780 0.929 . S
H1777 C1786 0.929 . S
C1778 H1772 0.930 . S
C1778 C1779 1.367 . S
C1778 C1786 1.378 . S
C1779 C1778 1.367 . S
C1779 C1787 1.433 . S
C1780 H1776 0.929 . S
C1780 C1782 1.378 . S
C1780 C1784 1.350 . S
C1781 C1784 1.463 . S
C1781 C1786 1.350 . S
C1781 N1789 1.427 . S
C1782 H1773 0.930 . S
C1782 C1780 1.378 . S
C1782 C1783 1.367 . S
C1783 C1782 1.367 . S
C1783 C1785 1.433 . S
C1784 C1780 1.350 . S
C1784 C1781 1.463 . S
C1784 N1788 1.427 . S
C1785 H1775 0.929 . S
C1785 C1783 1.433 . S
C1785 N1788 1.384 . S
C1786 H1777 0.929 . S
C1786 C1778 1.378 . S
C1786 C1781 1.350 . S
C1787 H1774 0.929 . S
C1787 C1779 1.433 . S
C1787 N1789 1.384 . S
N1788 C1784 1.427 . S
N1788 C1785 1.384 . S
N1789 C1781 1.427 . S
N1789 C1787 1.384 . S
H1790 C1796 0.930 . S
H1791 C1800 0.930 . S
H1792 C1805 0.929 . S
H1793 C1803 0.929 . S
H1794 C1798 0.929 . S
H1795 C1804 0.929 . S
C1796 H1790 0.930 . S
C1796 C1797 1.367 . S
C1796 C1804 1.378 . S
C1797 C1796 1.367 . S
C1797 C1805 1.433 . S
C1798 H1794 0.929 . S
C1798 C1800 1.378 . S
C1798 C1802 1.350 . S
C1799 C1802 1.463 . S
C1799 C1804 1.350 . S
C1799 N1807 1.427 . S
C1800 H1791 0.930 . S
C1800 C1798 1.378 . S
C1800 C1801 1.367 . S
C1801 C1800 1.367 . S
C1801 C1803 1.433 . S
C1802 C1798 1.350 . S
C1802 C1799 1.463 . S
C1802 N1806 1.427 . S
C1803 H1793 0.929 . S
C1803 C1801 1.433 . S
C1803 N1806 1.384 . S
C1804 H1795 0.929 . S
C1804 C1796 1.378 . S
C1804 C1799 1.350 . S
C1805 H1792 0.929 . S
C1805 C1797 1.433 . S
C1805 N1807 1.384 . S
N1806 C1802 1.427 . S
N1806 C1803 1.384 . S
N1807 C1799 1.427 . S
N1807 C1805 1.384 . S
H1808 C1814 0.930 . S
H1809 C1818 0.930 . S
H1810 C1823 0.929 . S
H1811 C1821 0.929 . S
H1812 C1816 0.929 . S
H1813 C1822 0.929 . S
C1814 H1808 0.930 . S
C1814 C1815 1.367 . S
C1814 C1822 1.378 . S
C1815 C1814 1.367 . S
C1815 C1823 1.433 . S
C1816 H1812 0.929 . S
C1816 C1818 1.378 . S
C1816 C1820 1.350 . S
C1817 C1820 1.463 . S
C1817 C1822 1.350 . S
C1817 N1825 1.427 . S
C1818 H1809 0.930 . S
C1818 C1816 1.378 . S
C1818 C1819 1.367 . S
C1819 C1818 1.367 . S
C1819 C1821 1.433 . S
C1820 C1816 1.350 . S
C1820 C1817 1.463 . S
C1820 N1824 1.427 . S
C1821 H1811 0.929 . S
C1821 C1819 1.433 . S
C1821 N1824 1.384 . S
C1822 H1813 0.929 . S
C1822 C1814 1.378 . S
C1822 C1817 1.350 . S
C1823 H1810 0.929 . S
C1823 C1815 1.433 . S
C1823 N1825 1.384 . S
N1824 C1820 1.427 . S
N1824 C1821 1.384 . S
N1825 C1817 1.427 . S
N1825 C1823 1.384 . S
H1826 C1832 0.930 . S
H1827 C1836 0.930 . S
H1828 C1841 0.929 . S
H1829 C1839 0.929 . S
H1830 C1834 0.929 . S
H1831 C1840 0.929 . S
C1832 H1826 0.930 . S
C1832 C1833 1.367 . S
C1832 C1840 1.378 . S
C1833 C1832 1.367 . S
C1833 C1841 1.433 . S
C1834 H1830 0.929 . S
C1834 C1836 1.378 . S
C1834 C1838 1.350 . S
C1835 C1838 1.463 . S
C1835 C1840 1.350 . S
C1835 N1843 1.427 . S
C1836 H1827 0.930 . S
C1836 C1834 1.378 . S
C1836 C1837 1.367 . S
C1837 C1836 1.367 . S
C1837 C1839 1.433 . S
C1838 C1834 1.350 . S
C1838 C1835 1.463 . S
C1838 N1842 1.427 . S
C1839 H1829 0.929 . S
C1839 C1837 1.433 . S
C1839 N1842 1.384 . S
C1840 H1831 0.929 . S
C1840 C1832 1.378 . S
C1840 C1835 1.350 . S
C1841 H1828 0.929 . S
C1841 C1833 1.433 . S
C1841 N1843 1.384 . S
N1842 C1838 1.427 . S
N1842 C1839 1.384 . S
N1843 C1835 1.427 . S
N1843 C1841 1.384 . S
H1844 C1850 0.930 . S
H1845 C1854 0.930 . S
H1846 C1859 0.929 . S
H1847 C1857 0.929 . S
H1848 C1852 0.929 . S
H1849 C1858 0.929 . S
C1850 H1844 0.930 . S
C1850 C1851 1.367 . S
C1850 C1858 1.378 . S
C1851 C1850 1.367 . S
C1851 C1859 1.433 . S
C1852 H1848 0.929 . S
C1852 C1854 1.378 . S
C1852 C1856 1.350 . S
C1853 C1856 1.463 . S
C1853 C1858 1.350 . S
C1853 N1861 1.427 . S
C1854 H1845 0.930 . S
C1854 C1852 1.378 . S
C1854 C1855 1.367 . S
C1855 C1854 1.367 . S
C1855 C1857 1.433 . S
C1856 C1852 1.350 . S
C1856 C1853 1.463 . S
C1856 N1860 1.427 . S
C1857 H1847 0.929 . S
C1857 C1855 1.433 . S
C1857 N1860 1.384 . S
C1858 H1849 0.929 . S
C1858 C1850 1.378 . S
C1858 C1853 1.350 . S
C1859 H1846 0.929 . S
C1859 C1851 1.433 . S
C1859 N1861 1.384 . S
N1860 C1856 1.427 . S
N1860 C1857 1.384 . S
N1861 C1853 1.427 . S
N1861 C1859 1.384 . S
H1862 C1868 0.930 . S
H1863 C1872 0.930 . S
H1864 C1877 0.929 . S
H1865 C1875 0.929 . S
H1866 C1870 0.929 . S
H1867 C1876 0.929 . S
C1868 H1862 0.930 . S
C1868 C1869 1.367 . S
C1868 C1876 1.378 . S
C1869 C1868 1.367 . S
C1869 C1877 1.433 . S
C1870 H1866 0.929 . S
C1870 C1872 1.378 . S
C1870 C1874 1.350 . S
C1871 C1874 1.463 . S
C1871 C1876 1.350 . S
C1871 N1879 1.427 . S
C1872 H1863 0.930 . S
C1872 C1870 1.378 . S
C1872 C1873 1.367 . S
C1873 C1872 1.367 . S
C1873 C1875 1.433 . S
C1874 C1870 1.350 . S
C1874 C1871 1.463 . S
C1874 N1878 1.427 . S
C1875 H1865 0.929 . S
C1875 C1873 1.433 . S
C1875 N1878 1.384 . S
C1876 H1867 0.929 . S
C1876 C1868 1.378 . S
C1876 C1871 1.350 . S
C1877 H1864 0.929 . S
C1877 C1869 1.433 . S
C1877 N1879 1.384 . S
N1878 C1874 1.427 . S
N1878 C1875 1.384 . S
N1879 C1871 1.427 . S
N1879 C1877 1.384 . S
H1880 C1886 0.930 . S
H1881 C1890 0.930 . S
H1882 C1895 0.929 . S
H1883 C1893 0.929 . S
H1884 C1888 0.929 . S
H1885 C1894 0.929 . S
C1886 H1880 0.930 . S
C1886 C1887 1.367 . S
C1886 C1894 1.378 . S
C1887 C1886 1.367 . S
C1887 C1895 1.433 . S
C1888 H1884 0.929 . S
C1888 C1890 1.378 . S
C1888 C1892 1.350 . S
C1889 C1892 1.463 . S
C1889 C1894 1.350 . S
C1889 N1897 1.427 . S
C1890 H1881 0.930 . S
C1890 C1888 1.378 . S
C1890 C1891 1.367 . S
C1891 C1890 1.367 . S
C1891 C1893 1.433 . S
C1892 C1888 1.350 . S
C1892 C1889 1.463 . S
C1892 N1896 1.427 . S
C1893 H1883 0.929 . S
C1893 C1891 1.433 . S
C1893 N1896 1.384 . S
C1894 H1885 0.929 . S
C1894 C1886 1.378 . S
C1894 C1889 1.350 . S
C1895 H1882 0.929 . S
C1895 C1887 1.433 . S
C1895 N1897 1.384 . S
N1896 C1892 1.427 . S
N1896 C1893 1.384 . S
N1897 C1889 1.427 . S
N1897 C1895 1.384 . S
H1898 C1904 0.930 . S
H1899 C1908 0.930 . S
H1900 C1913 0.929 . S
H1901 C1911 0.929 . S
H1902 C1906 0.929 . S
H1903 C1912 0.929 . S
C1904 H1898 0.930 . S
C1904 C1905 1.367 . S
C1904 C1912 1.378 . S
C1905 C1904 1.367 . S
C1905 C1913 1.433 . S
C1906 H1902 0.929 . S
C1906 C1908 1.378 . S
C1906 C1910 1.350 . S
C1907 C1910 1.463 . S
C1907 C1912 1.350 . S
C1907 N1915 1.427 . S
C1908 H1899 0.930 . S
C1908 C1906 1.378 . S
C1908 C1909 1.367 . S
C1909 C1908 1.367 . S
C1909 C1911 1.433 . S
C1910 C1906 1.350 . S
C1910 C1907 1.463 . S
C1910 N1914 1.427 . S
C1911 H1901 0.929 . S
C1911 C1909 1.433 . S
C1911 N1914 1.384 . S
C1912 H1903 0.929 . S
C1912 C1904 1.378 . S
C1912 C1907 1.350 . S
C1913 H1900 0.929 . S
C1913 C1905 1.433 . S
C1913 N1915 1.384 . S
N1914 C1910 1.427 . S
N1914 C1911 1.384 . S
N1915 C1907 1.427 . S
N1915 C1913 1.384 . S
H1916 C1922 0.930 . S
H1917 C1926 0.930 . S
H1918 C1931 0.929 . S
H1919 C1929 0.929 . S
H1920 C1924 0.929 . S
H1921 C1930 0.929 . S
C1922 H1916 0.930 . S
C1922 C1923 1.367 . S
C1922 C1930 1.378 . S
C1923 C1922 1.367 . S
C1923 C1931 1.433 . S
C1924 H1920 0.929 . S
C1924 C1926 1.378 . S
C1924 C1928 1.350 . S
C1925 C1928 1.463 . S
C1925 C1930 1.350 . S
C1925 N1933 1.427 . S
C1926 H1917 0.930 . S
C1926 C1924 1.378 . S
C1926 C1927 1.367 . S
C1927 C1926 1.367 . S
C1927 C1929 1.433 . S
C1928 C1924 1.350 . S
C1928 C1925 1.463 . S
C1928 N1932 1.427 . S
C1929 H1919 0.929 . S
C1929 C1927 1.433 . S
C1929 N1932 1.384 . S
C1930 H1921 0.929 . S
C1930 C1922 1.378 . S
C1930 C1925 1.350 . S
C1931 H1918 0.929 . S
C1931 C1923 1.433 . S
C1931 N1933 1.384 . S
N1932 C1928 1.427 . S
N1932 C1929 1.384 . S
N1933 C1925 1.427 . S
N1933 C1931 1.384 . S
H1934 C1940 0.930 . S
H1935 C1944 0.930 . S
H1936 C1949 0.929 . S
H1937 C1947 0.929 . S
H1938 C1942 0.929 . S
H1939 C1948 0.929 . S
C1940 H1934 0.930 . S
C1940 C1941 1.367 . S
C1940 C1948 1.378 . S
C1941 C1940 1.367 . S
C1941 C1949 1.433 . S
C1942 H1938 0.929 . S
C1942 C1944 1.378 . S
C1942 C1946 1.350 . S
C1943 C1946 1.463 . S
C1943 C1948 1.350 . S
C1943 N1951 1.427 . S
C1944 H1935 0.930 . S
C1944 C1942 1.378 . S
C1944 C1945 1.367 . S
C1945 C1944 1.367 . S
C1945 C1947 1.433 . S
C1946 C1942 1.350 . S
C1946 C1943 1.463 . S
C1946 N1950 1.427 . S
C1947 H1937 0.929 . S
C1947 C1945 1.433 . S
C1947 N1950 1.384 . S
C1948 H1939 0.929 . S
C1948 C1940 1.378 . S
C1948 C1943 1.350 . S
C1949 H1936 0.929 . S
C1949 C1941 1.433 . S
C1949 N1951 1.384 . S
N1950 C1946 1.427 . S
N1950 C1947 1.384 . S
N1951 C1943 1.427 . S
N1951 C1949 1.384 . S
H1952 C1958 0.930 . S
H1953 C1962 0.930 . S
H1954 C1967 0.929 . S
H1955 C1965 0.929 . S
H1956 C1960 0.929 . S
H1957 C1966 0.929 . S
C1958 H1952 0.930 . S
C1958 C1959 1.367 . S
C1958 C1966 1.378 . S
C1959 C1958 1.367 . S
C1959 C1967 1.433 . S
C1960 H1956 0.929 . S
C1960 C1962 1.378 . S
C1960 C1964 1.350 . S
C1961 C1964 1.463 1_554 S
C1961 C1966 1.350 . S
C1961 N1969 1.427 . S
C1962 H1953 0.930 . S
C1962 C1960 1.378 . S
C1962 C1963 1.367 . S
C1963 C1962 1.367 . S
C1963 C1965 1.433 . S
C1964 C1960 1.350 . S
C1964 C1961 1.463 1_556 S
C1964 N1968 1.427 . S
C1965 H1955 0.929 . S
C1965 C1963 1.433 . S
C1965 N1968 1.384 . S
C1966 H1957 0.929 . S
C1966 C1958 1.378 . S
C1966 C1961 1.350 . S
C1967 H1954 0.929 . S
C1967 C1959 1.433 . S
C1967 N1969 1.384 . S
N1968 C1964 1.427 . S
N1968 C1965 1.384 . S
N1969 C1961 1.427 . S
N1969 C1967 1.384 . S
H1970 C1976 0.930 1_455 S
H1971 C1980 0.930 . S
H1972 C1985 0.929 . S
H1973 C1983 0.929 1_455 S
H1974 C1978 0.929 . S
H1975 C1984 0.929 1_455 S
C1976 H1970 0.930 1_655 S
C1976 C1977 1.367 . S
C1976 C1984 1.378 . S
C1977 C1976 1.367 . S
C1977 C1985 1.433 . S
C1978 H1974 0.929 . S
C1978 C1980 1.378 . S
C1978 C1982 1.350 . S
C1979 C1982 1.463 1_565 S
C1979 C1984 1.350 . S
C1979 N1987 1.427 . S
C1980 H1971 0.930 . S
C1980 C1978 1.378 . S
C1980 C1981 1.367 . S
C1981 C1980 1.367 . S
C1981 C1983 1.433 . S
C1982 C1978 1.350 . S
C1982 C1979 1.463 1_545 S
C1982 N1986 1.427 . S
C1983 H1973 0.929 1_655 S
C1983 C1981 1.433 . S
C1983 N1986 1.384 . S
C1984 H1975 0.929 1_655 S
C1984 C1976 1.378 . S
C1984 C1979 1.350 . S
C1985 H1972 0.929 . S
C1985 C1977 1.433 . S
C1985 N1987 1.384 . S
N1986 C1982 1.427 . S
N1986 C1983 1.384 . S
N1987 C1979 1.427 . S
N1987 C1985 1.384 . S
H1988 C1994 0.930 . S
H1989 C1998 0.930 . S
H1990 C2003 0.929 . S
H1991 C2001 0.929 . S
H1992 C1996 0.929 . S
H1993 C2002 0.929 . S
C1994 H1988 0.930 . S
C1994 C1995 1.367 . S
C1994 C2002 1.378 . S
C1995 C1994 1.367 . S
C1995 C2003 1.433 . S
C1996 H1992 0.929 . S
C1996 C1998 1.378 . S
C1996 C2000 1.350 . S
C1997 C2000 1.463 . S
C1997 C2002 1.350 . S
C1997 N2005 1.427 . S
C1998 H1989 0.930 . S
C1998 C1996 1.378 . S
C1998 C1999 1.367 . S
C1999 C1998 1.367 . S
C1999 C2001 1.433 . S
C2000 C1996 1.350 . S
C2000 C1997 1.463 . S
C2000 N2004 1.427 . S
C2001 H1991 0.929 . S
C2001 C1999 1.433 . S
C2001 N2004 1.384 . S
C2002 H1993 0.929 . S
C2002 C1994 1.378 . S
C2002 C1997 1.350 . S
C2003 H1990 0.929 . S
C2003 C1995 1.433 . S
C2003 N2005 1.384 . S
N2004 C2000 1.427 . S
N2004 C2001 1.384 . S
N2005 C1997 1.427 . S
N2005 C2003 1.384 . S
H2006 C2012 0.930 . S
H2007 C2016 0.930 . S
H2008 C2021 0.929 . S
H2009 C2019 0.929 . S
H2010 C2014 0.929 . S
H2011 C2020 0.929 . S
C2012 H2006 0.930 . S
C2012 C2013 1.367 . S
C2012 C2020 1.378 . S
C2013 C2012 1.367 . S
C2013 C2021 1.433 1_565 S
C2014 H2010 0.929 . S
C2014 C2016 1.378 . S
C2014 C2018 1.350 . S
C2015 C2018 1.463 1_565 S
C2015 C2020 1.350 . S
C2015 N2023 1.427 1_565 S
C2016 H2007 0.930 . S
C2016 C2014 1.378 . S
C2016 C2017 1.367 . S
C2017 C2016 1.367 . S
C2017 C2019 1.433 1_545 S
C2018 C2014 1.350 . S
C2018 C2015 1.463 1_545 S
C2018 N2022 1.427 1_545 S
C2019 H2009 0.929 . S
C2019 C2017 1.433 1_565 S
C2019 N2022 1.384 . S
C2020 H2011 0.929 . S
C2020 C2012 1.378 . S
C2020 C2015 1.350 . S
C2021 H2008 0.929 . S
C2021 C2013 1.433 1_545 S
C2021 N2023 1.384 . S
N2022 C2018 1.427 1_565 S
N2022 C2019 1.384 . S
N2023 C2015 1.427 1_545 S
N2023 C2021 1.384 . S
H2024 C2030 0.930 . S
H2025 C2034 0.930 . S
H2026 C2039 0.929 . S
H2027 C2037 0.929 . S
H2028 C2032 0.929 . S
H2029 C2038 0.929 . S
C2030 H2024 0.930 . S
C2030 C2031 1.367 . S
C2030 C2038 1.378 . S
C2031 C2030 1.367 . S
C2031 C2039 1.433 . S
C2032 H2028 0.929 . S
C2032 C2034 1.378 . S
C2032 C2036 1.350 . S
C2033 C2036 1.463 1_554 S
C2033 C2038 1.350 . S
C2033 N2041 1.427 . S
C2034 H2025 0.930 . S
C2034 C2032 1.378 . S
C2034 C2035 1.367 . S
C2035 C2034 1.367 . S
C2035 C2037 1.433 . S
C2036 C2032 1.350 . S
C2036 C2033 1.463 1_556 S
C2036 N2040 1.427 . S
C2037 H2027 0.929 . S
C2037 C2035 1.433 . S
C2037 N2040 1.384 . S
C2038 H2029 0.929 . S
C2038 C2030 1.378 . S
C2038 C2033 1.350 . S
C2039 H2026 0.929 . S
C2039 C2031 1.433 . S
C2039 N2041 1.384 . S
N2040 C2036 1.427 . S
N2040 C2037 1.384 . S
N2041 C2033 1.427 . S
N2041 C2039 1.384 . S
H2042 C2048 0.930 1_565 S
H2043 C2052 0.930 1_545 S
H2044 C2057 0.929 . S
H2045 C2055 0.929 . S
H2046 C2050 0.929 . S
H2047 C2056 0.929 . S
C2048 H2042 0.930 1_545 S
C2048 C2049 1.367 . S
C2048 C2056 1.378 1_545 S
C2049 C2048 1.367 . S
C2049 C2057 1.433 . S
C2050 H2046 0.929 . S
C2050 C2052 1.378 1_545 S
C2050 C2054 1.350 1_545 S
C2051 C2054 1.463 1_545 S
C2051 C2056 1.350 1_545 S
C2051 N2059 1.427 . S
C2052 H2043 0.930 1_565 S
C2052 C2050 1.378 1_565 S
C2052 C2053 1.367 . S
C2053 C2052 1.367 . S
C2053 C2055 1.433 . S
C2054 C2050 1.350 1_565 S
C2054 C2051 1.463 1_565 S
C2054 N2058 1.427 . S
C2055 H2045 0.929 . S
C2055 C2053 1.433 . S
C2055 N2058 1.384 . S
C2056 H2047 0.929 . S
C2056 C2048 1.378 1_565 S
C2056 C2051 1.350 1_565 S
C2057 H2044 0.929 . S
C2057 C2049 1.433 . S
C2057 N2059 1.384 . S
N2058 C2054 1.427 . S
N2058 C2055 1.384 . S
N2059 C2051 1.427 . S
N2059 C2057 1.384 . S
H2060 C2066 0.930 . S
H2061 C2070 0.930 . S
H2062 C2075 0.929 . S
H2063 C2073 0.929 . S
H2064 C2068 0.929 . S
H2065 C2074 0.929 . S
C2066 H2060 0.930 . S
C2066 C2067 1.367 . S
C2066 C2074 1.378 . S
C2067 C2066 1.367 . S
C2067 C2075 1.433 . S
C2068 H2064 0.929 . S
C2068 C2070 1.378 . S
C2068 C2072 1.350 . S
C2069 C2072 1.463 . S
C2069 C2074 1.350 . S
C2069 N2077 1.427 . S
C2070 H2061 0.930 . S
C2070 C2068 1.378 . S
C2070 C2071 1.367 . S
C2071 C2070 1.367 . S
C2071 C2073 1.433 . S
C2072 C2068 1.350 . S
C2072 C2069 1.463 . S
C2072 N2076 1.427 . S
C2073 H2063 0.929 . S
C2073 C2071 1.433 . S
C2073 N2076 1.384 . S
C2074 H2065 0.929 . S
C2074 C2066 1.378 . S
C2074 C2069 1.350 . S
C2075 H2062 0.929 . S
C2075 C2067 1.433 . S
C2075 N2077 1.384 . S
N2076 C2072 1.427 . S
N2076 C2073 1.384 . S
N2077 C2069 1.427 . S
N2077 C2075 1.384 . S
H2078 C2084 0.930 . S
H2079 C2088 0.930 . S
H2080 C2093 0.929 . S
H2081 C2091 0.929 . S
H2082 C2086 0.929 . S
H2083 C2092 0.929 . S
C2084 H2078 0.930 . S
C2084 C2085 1.367 1_545 S
C2084 C2092 1.378 . S
C2085 C2084 1.367 1_565 S
C2085 C2093 1.433 . S
C2086 H2082 0.929 . S
C2086 C2088 1.378 . S
C2086 C2090 1.350 1_565 S
C2087 C2090 1.463 1_565 S
C2087 C2092 1.350 1_565 S
C2087 N2095 1.427 . S
C2088 H2079 0.930 . S
C2088 C2086 1.378 . S
C2088 C2089 1.367 1_565 S
C2089 C2088 1.367 1_545 S
C2089 C2091 1.433 . S
C2090 C2086 1.350 1_545 S
C2090 C2087 1.463 1_545 S
C2090 N2094 1.427 . S
C2091 H2081 0.929 . S
C2091 C2089 1.433 . S
C2091 N2094 1.384 . S
C2092 H2083 0.929 . S
C2092 C2084 1.378 . S
C2092 C2087 1.350 1_545 S
C2093 H2080 0.929 . S
C2093 C2085 1.433 . S
C2093 N2095 1.384 . S
N2094 C2090 1.427 . S
N2094 C2091 1.384 . S
N2095 C2087 1.427 . S
N2095 C2093 1.384 . S
H2096 C2102 0.930 . S
H2097 C2106 0.930 . S
H2098 C2111 0.929 . S
H2099 C2109 0.929 . S
H2100 C2104 0.929 . S
H2101 C2110 0.929 . S
C2102 H2096 0.930 . S
C2102 C2103 1.367 . S
C2102 C2110 1.378 . S
C2103 C2102 1.367 . S
C2103 C2111 1.433 . S
C2104 H2100 0.929 . S
C2104 C2106 1.378 . S
C2104 C2108 1.350 . S
C2105 C2108 1.463 . S
C2105 C2110 1.350 . S
C2105 N2113 1.427 . S
C2106 H2097 0.930 . S
C2106 C2104 1.378 . S
C2106 C2107 1.367 . S
C2107 C2106 1.367 . S
C2107 C2109 1.433 . S
C2108 C2104 1.350 . S
C2108 C2105 1.463 . S
C2108 N2112 1.427 . S
C2109 H2099 0.929 . S
C2109 C2107 1.433 . S
C2109 N2112 1.384 . S
C2110 H2101 0.929 . S
C2110 C2102 1.378 . S
C2110 C2105 1.350 . S
C2111 H2098 0.929 . S
C2111 C2103 1.433 . S
C2111 N2113 1.384 . S
N2112 C2108 1.427 . S
N2112 C2109 1.384 . S
N2113 C2105 1.427 . S
N2113 C2111 1.384 . S
H2114 C2120 0.930 . S
H2115 C2124 0.930 . S
H2116 C2129 0.929 . S
H2117 C2127 0.929 . S
H2118 C2122 0.929 . S
H2119 C2128 0.929 . S
C2120 H2114 0.930 . S
C2120 C2121 1.367 . S
C2120 C2128 1.378 . S
C2121 C2120 1.367 . S
C2121 C2129 1.433 . S
C2122 H2118 0.929 . S
C2122 C2124 1.378 . S
C2122 C2126 1.350 . S
C2123 C2126 1.463 . S
C2123 C2128 1.350 . S
C2123 N2131 1.427 . S
C2124 H2115 0.930 . S
C2124 C2122 1.378 . S
C2124 C2125 1.367 . S
C2125 C2124 1.367 . S
C2125 C2127 1.433 . S
C2126 C2122 1.350 . S
C2126 C2123 1.463 . S
C2126 N2130 1.427 . S
C2127 H2117 0.929 . S
C2127 C2125 1.433 . S
C2127 N2130 1.384 . S
C2128 H2119 0.929 . S
C2128 C2120 1.378 . S
C2128 C2123 1.350 . S
C2129 H2116 0.929 . S
C2129 C2121 1.433 . S
C2129 N2131 1.384 . S
N2130 C2126 1.427 . S
N2130 C2127 1.384 . S
N2131 C2123 1.427 . S
N2131 C2129 1.384 . S
H2132 C2138 0.930 . S
H2133 C2142 0.930 . S
H2134 C2147 0.929 . S
H2135 C2145 0.929 . S
H2136 C2140 0.929 . S
H2137 C2146 0.929 . S
C2138 H2132 0.930 . S
C2138 C2139 1.367 . S
C2138 C2146 1.378 . S
C2139 C2138 1.367 . S
C2139 C2147 1.433 . S
C2140 H2136 0.929 . S
C2140 C2142 1.378 . S
C2140 C2144 1.350 . S
C2141 C2144 1.463 1_554 S
C2141 C2146 1.350 . S
C2141 N2149 1.427 . S
C2142 H2133 0.930 . S
C2142 C2140 1.378 . S
C2142 C2143 1.367 . S
C2143 C2142 1.367 . S
C2143 C2145 1.433 . S
C2144 C2140 1.350 . S
C2144 C2141 1.463 1_556 S
C2144 N2148 1.427 . S
C2145 H2135 0.929 . S
C2145 C2143 1.433 . S
C2145 N2148 1.384 . S
C2146 H2137 0.929 . S
C2146 C2138 1.378 . S
C2146 C2141 1.350 . S
C2147 H2134 0.929 . S
C2147 C2139 1.433 . S
C2147 N2149 1.384 . S
N2148 C2144 1.427 . S
N2148 C2145 1.384 . S
N2149 C2141 1.427 . S
N2149 C2147 1.384 . S
H2150 C2156 0.930 . S
H2151 C2160 0.930 . S
H2152 C2165 0.929 . S
H2153 C2163 0.929 . S
H2154 C2158 0.929 . S
H2155 C2164 0.929 . S
C2156 H2150 0.930 . S
C2156 C2157 1.367 . S
C2156 C2164 1.378 . S
C2157 C2156 1.367 . S
C2157 C2165 1.433 . S
C2158 H2154 0.929 . S
C2158 C2160 1.378 . S
C2158 C2162 1.350 . S
C2159 C2162 1.463 . S
C2159 C2164 1.350 . S
C2159 N2167 1.427 . S
C2160 H2151 0.930 . S
C2160 C2158 1.378 . S
C2160 C2161 1.367 . S
C2161 C2160 1.367 . S
C2161 C2163 1.433 . S
C2162 C2158 1.350 . S
C2162 C2159 1.463 . S
C2162 N2166 1.427 . S
C2163 H2153 0.929 . S
C2163 C2161 1.433 . S
C2163 N2166 1.384 . S
C2164 H2155 0.929 . S
C2164 C2156 1.378 . S
C2164 C2159 1.350 . S
C2165 H2152 0.929 . S
C2165 C2157 1.433 . S
C2165 N2167 1.384 . S
N2166 C2162 1.427 . S
N2166 C2163 1.384 . S
N2167 C2159 1.427 . S
N2167 C2165 1.384 . S
H2168 C2174 0.930 . S
H2169 C2178 0.930 . S
H2170 C2183 0.929 . S
H2171 C2181 0.929 . S
H2172 C2176 0.929 . S
H2173 C2182 0.929 . S
C2174 H2168 0.930 . S
C2174 C2175 1.367 . S
C2174 C2182 1.378 . S
C2175 C2174 1.367 . S
C2175 C2183 1.433 . S
C2176 H2172 0.929 . S
C2176 C2178 1.378 . S
C2176 C2180 1.350 . S
C2177 C2180 1.463 . S
C2177 C2182 1.350 . S
C2177 N2185 1.427 . S
C2178 H2169 0.930 . S
C2178 C2176 1.378 . S
C2178 C2179 1.367 . S
C2179 C2178 1.367 . S
C2179 C2181 1.433 . S
C2180 C2176 1.350 . S
C2180 C2177 1.463 . S
C2180 N2184 1.427 . S
C2181 H2171 0.929 . S
C2181 C2179 1.433 . S
C2181 N2184 1.384 . S
C2182 H2173 0.929 . S
C2182 C2174 1.378 . S
C2182 C2177 1.350 . S
C2183 H2170 0.929 . S
C2183 C2175 1.433 . S
C2183 N2185 1.384 . S
N2184 C2180 1.427 . S
N2184 C2181 1.384 . S
N2185 C2177 1.427 . S
N2185 C2183 1.384 . S
H2186 C2192 0.930 . S
H2187 C2196 0.930 . S
H2188 C2201 0.929 . S
H2189 C2199 0.929 . S
H2190 C2194 0.929 . S
H2191 C2200 0.929 . S
C2192 H2186 0.930 . S
C2192 C2193 1.367 . S
C2192 C2200 1.378 . S
C2193 C2192 1.367 . S
C2193 C2201 1.433 . S
C2194 H2190 0.929 . S
C2194 C2196 1.378 . S
C2194 C2198 1.350 . S
C2195 C2198 1.463 . S
C2195 C2200 1.350 . S
C2195 N2203 1.427 . S
C2196 H2187 0.930 . S
C2196 C2194 1.378 . S
C2196 C2197 1.367 . S
C2197 C2196 1.367 . S
C2197 C2199 1.433 . S
C2198 C2194 1.350 . S
C2198 C2195 1.463 . S
C2198 N2202 1.427 . S
C2199 H2189 0.929 . S
C2199 C2197 1.433 . S
C2199 N2202 1.384 . S
C2200 H2191 0.929 . S
C2200 C2192 1.378 . S
C2200 C2195 1.350 . S
C2201 H2188 0.929 . S
C2201 C2193 1.433 . S
C2201 N2203 1.384 . S
N2202 C2198 1.427 . S
N2202 C2199 1.384 . S
N2203 C2195 1.427 . S
N2203 C2201 1.384 . S
H2204 C2210 0.930 . S
H2205 C2214 0.930 . S
H2206 C2219 0.929 . S
H2207 C2217 0.929 . S
H2208 C2212 0.929 . S
H2209 C2218 0.929 . S
C2210 H2204 0.930 . S
C2210 C2211 1.367 . S
C2210 C2218 1.378 . S
C2211 C2210 1.367 . S
C2211 C2219 1.433 . S
C2212 H2208 0.929 . S
C2212 C2214 1.378 . S
C2212 C2216 1.350 . S
C2213 C2216 1.463 1_556 S
C2213 C2218 1.350 . S
C2213 N2221 1.427 . S
C2214 H2205 0.930 . S
C2214 C2212 1.378 . S
C2214 C2215 1.367 . S
C2215 C2214 1.367 . S
C2215 C2217 1.433 . S
C2216 C2212 1.350 . S
C2216 C2213 1.463 1_554 S
C2216 N2220 1.427 . S
C2217 H2207 0.929 . S
C2217 C2215 1.433 . S
C2217 N2220 1.384 . S
C2218 H2209 0.929 . S
C2218 C2210 1.378 . S
C2218 C2213 1.350 . S
C2219 H2206 0.929 . S
C2219 C2211 1.433 . S
C2219 N2221 1.384 . S
N2220 C2216 1.427 . S
N2220 C2217 1.384 . S
N2221 C2213 1.427 . S
N2221 C2219 1.384 . S
H2222 C2228 0.930 1_455 S
H2223 C2232 0.930 . S
H2224 C2237 0.929 . S
H2225 C2235 0.929 1_455 S
H2226 C2230 0.929 . S
H2227 C2236 0.929 1_455 S
C2228 H2222 0.930 1_655 S
C2228 C2229 1.367 . S
C2228 C2236 1.378 . S
C2229 C2228 1.367 . S
C2229 C2237 1.433 . S
C2230 H2226 0.929 . S
C2230 C2232 1.378 . S
C2230 C2234 1.350 . S
C2231 C2234 1.463 . S
C2231 C2236 1.350 . S
C2231 N2239 1.427 . S
C2232 H2223 0.930 . S
C2232 C2230 1.378 . S
C2232 C2233 1.367 . S
C2233 C2232 1.367 . S
C2233 C2235 1.433 . S
C2234 C2230 1.350 . S
C2234 C2231 1.463 . S
C2234 N2238 1.427 . S
C2235 H2225 0.929 1_655 S
C2235 C2233 1.433 . S
C2235 N2238 1.384 . S
C2236 H2227 0.929 1_655 S
C2236 C2228 1.378 . S
C2236 C2231 1.350 . S
C2237 H2224 0.929 . S
C2237 C2229 1.433 . S
C2237 N2239 1.384 . S
N2238 C2234 1.427 . S
N2238 C2235 1.384 . S
N2239 C2231 1.427 . S
N2239 C2237 1.384 . S
H2240 C2246 0.930 . S
H2241 C2250 0.930 . S
H2242 C2255 0.929 . S
H2243 C2253 0.929 . S
H2244 C2248 0.929 . S
H2245 C2254 0.929 . S
C2246 H2240 0.930 . S
C2246 C2247 1.367 . S
C2246 C2254 1.378 . S
C2247 C2246 1.367 . S
C2247 C2255 1.433 . S
C2248 H2244 0.929 . S
C2248 C2250 1.378 . S
C2248 C2252 1.350 . S
C2249 C2252 1.463 . S
C2249 C2254 1.350 . S
C2249 N2257 1.427 . S
C2250 H2241 0.930 . S
C2250 C2248 1.378 . S
C2250 C2251 1.367 . S
C2251 C2250 1.367 . S
C2251 C2253 1.433 . S
C2252 C2248 1.350 . S
C2252 C2249 1.463 . S
C2252 N2256 1.427 . S
C2253 H2243 0.929 . S
C2253 C2251 1.433 . S
C2253 N2256 1.384 . S
C2254 H2245 0.929 . S
C2254 C2246 1.378 . S
C2254 C2249 1.350 . S
C2255 H2242 0.929 . S
C2255 C2247 1.433 . S
C2255 N2257 1.384 . S
N2256 C2252 1.427 . S
N2256 C2253 1.384 . S
N2257 C2249 1.427 . S
N2257 C2255 1.384 . S
H2258 C2264 0.930 . S
H2259 C2268 0.930 . S
H2260 C2273 0.929 . S
H2261 C2271 0.929 . S
H2262 C2266 0.929 . S
H2263 C2272 0.929 . S
C2264 H2258 0.930 . S
C2264 C2265 1.367 . S
C2264 C2272 1.378 . S
C2265 C2264 1.367 . S
C2265 C2273 1.433 . S
C2266 H2262 0.929 . S
C2266 C2268 1.378 . S
C2266 C2270 1.350 . S
C2267 C2270 1.463 . S
C2267 C2272 1.350 . S
C2267 N2275 1.427 . S
C2268 H2259 0.930 . S
C2268 C2266 1.378 . S
C2268 C2269 1.367 . S
C2269 C2268 1.367 . S
C2269 C2271 1.433 . S
C2270 C2266 1.350 . S
C2270 C2267 1.463 . S
C2270 N2274 1.427 . S
C2271 H2261 0.929 . S
C2271 C2269 1.433 . S
C2271 N2274 1.384 . S
C2272 H2263 0.929 . S
C2272 C2264 1.378 . S
C2272 C2267 1.350 . S
C2273 H2260 0.929 . S
C2273 C2265 1.433 . S
C2273 N2275 1.384 . S
N2274 C2270 1.427 . S
N2274 C2271 1.384 . S
N2275 C2267 1.427 . S
N2275 C2273 1.384 . S
H2276 C2282 0.930 . S
H2277 C2286 0.930 . S
H2278 C2291 0.929 . S
H2279 C2289 0.929 . S
H2280 C2284 0.929 . S
H2281 C2290 0.929 . S
C2282 H2276 0.930 . S
C2282 C2283 1.367 . S
C2282 C2290 1.378 . S
C2283 C2282 1.367 . S
C2283 C2291 1.433 . S
C2284 H2280 0.929 . S
C2284 C2286 1.378 . S
C2284 C2288 1.350 . S
C2285 C2288 1.463 . S
C2285 C2290 1.350 . S
C2285 N2293 1.427 . S
C2286 H2277 0.930 . S
C2286 C2284 1.378 . S
C2286 C2287 1.367 . S
C2287 C2286 1.367 . S
C2287 C2289 1.433 . S
C2288 C2284 1.350 . S
C2288 C2285 1.463 . S
C2288 N2292 1.427 . S
C2289 H2279 0.929 . S
C2289 C2287 1.433 . S
C2289 N2292 1.384 . S
C2290 H2281 0.929 . S
C2290 C2282 1.378 . S
C2290 C2285 1.350 . S
C2291 H2278 0.929 . S
C2291 C2283 1.433 . S
C2291 N2293 1.384 . S
N2292 C2288 1.427 . S
N2292 C2289 1.384 . S
N2293 C2285 1.427 . S
N2293 C2291 1.384 . S
H2294 C2300 0.930 . S
H2295 C2304 0.930 . S
H2296 C2309 0.929 . S
H2297 C2307 0.929 . S
H2298 C2302 0.929 . S
H2299 C2308 0.929 . S
C2300 H2294 0.930 . S
C2300 C2301 1.367 . S
C2300 C2308 1.378 . S
C2301 C2300 1.367 . S
C2301 C2309 1.433 . S
C2302 H2298 0.929 . S
C2302 C2304 1.378 . S
C2302 C2306 1.350 . S
C2303 C2306 1.463 . S
C2303 C2308 1.350 . S
C2303 N2311 1.427 . S
C2304 H2295 0.930 . S
C2304 C2302 1.378 . S
C2304 C2305 1.367 . S
C2305 C2304 1.367 . S
C2305 C2307 1.433 . S
C2306 C2302 1.350 . S
C2306 C2303 1.463 . S
C2306 N2310 1.427 . S
C2307 H2297 0.929 . S
C2307 C2305 1.433 . S
C2307 N2310 1.384 . S
C2308 H2299 0.929 . S
C2308 C2300 1.378 . S
C2308 C2303 1.350 . S
C2309 H2296 0.929 . S
C2309 C2301 1.433 . S
C2309 N2311 1.384 . S
N2310 C2306 1.427 . S
N2310 C2307 1.384 . S
N2311 C2303 1.427 . S
N2311 C2309 1.384 . S
H2312 C2318 0.930 . S
H2313 C2322 0.930 . S
H2314 C2327 0.929 . S
H2315 C2325 0.929 . S
H2316 C2320 0.929 . S
H2317 C2326 0.929 . S
C2318 H2312 0.930 . S
C2318 C2319 1.367 . S
C2318 C2326 1.378 . S
C2319 C2318 1.367 . S
C2319 C2327 1.433 . S
C2320 H2316 0.929 . S
C2320 C2322 1.378 . S
C2320 C2324 1.350 . S
C2321 C2324 1.463 . S
C2321 C2326 1.350 . S
C2321 N2329 1.427 . S
C2322 H2313 0.930 . S
C2322 C2320 1.378 . S
C2322 C2323 1.367 . S
C2323 C2322 1.367 . S
C2323 C2325 1.433 . S
C2324 C2320 1.350 . S
C2324 C2321 1.463 . S
C2324 N2328 1.427 . S
C2325 H2315 0.929 . S
C2325 C2323 1.433 . S
C2325 N2328 1.384 . S
C2326 H2317 0.929 . S
C2326 C2318 1.378 . S
C2326 C2321 1.350 . S
C2327 H2314 0.929 . S
C2327 C2319 1.433 . S
C2327 N2329 1.384 . S
N2328 C2324 1.427 . S
N2328 C2325 1.384 . S
N2329 C2321 1.427 . S
N2329 C2327 1.384 . S
H2330 C2336 0.930 . S
H2331 C2340 0.930 . S
H2332 C2345 0.929 . S
H2333 C2343 0.929 . S
H2334 C2338 0.929 . S
H2335 C2344 0.929 . S
C2336 H2330 0.930 . S
C2336 C2337 1.367 . S
C2336 C2344 1.378 . S
C2337 C2336 1.367 . S
C2337 C2345 1.433 . S
C2338 H2334 0.929 . S
C2338 C2340 1.378 . S
C2338 C2342 1.350 . S
C2339 C2342 1.463 . S
C2339 C2344 1.350 . S
C2339 N2347 1.427 . S
C2340 H2331 0.930 . S
C2340 C2338 1.378 . S
C2340 C2341 1.367 . S
C2341 C2340 1.367 . S
C2341 C2343 1.433 . S
C2342 C2338 1.350 . S
C2342 C2339 1.463 . S
C2342 N2346 1.427 . S
C2343 H2333 0.929 . S
C2343 C2341 1.433 . S
C2343 N2346 1.384 . S
C2344 H2335 0.929 . S
C2344 C2336 1.378 . S
C2344 C2339 1.350 . S
C2345 H2332 0.929 . S
C2345 C2337 1.433 . S
C2345 N2347 1.384 . S
N2346 C2342 1.427 . S
N2346 C2343 1.384 . S
N2347 C2339 1.427 . S
N2347 C2345 1.384 . S
H2348 C2354 0.930 . S
H2349 C2358 0.930 . S
H2350 C2363 0.929 . S
H2351 C2361 0.929 . S
H2352 C2356 0.929 . S
H2353 C2362 0.929 . S
C2354 H2348 0.930 . S
C2354 C2355 1.367 . S
C2354 C2362 1.378 . S
C2355 C2354 1.367 . S
C2355 C2363 1.433 . S
C2356 H2352 0.929 . S
C2356 C2358 1.378 . S
C2356 C2360 1.350 . S
C2357 C2360 1.463 . S
C2357 C2362 1.350 . S
C2357 N2365 1.427 . S
C2358 H2349 0.930 . S
C2358 C2356 1.378 . S
C2358 C2359 1.367 . S
C2359 C2358 1.367 . S
C2359 C2361 1.433 . S
C2360 C2356 1.350 . S
C2360 C2357 1.463 . S
C2360 N2364 1.427 . S
C2361 H2351 0.929 . S
C2361 C2359 1.433 . S
C2361 N2364 1.384 . S
C2362 H2353 0.929 . S
C2362 C2354 1.378 . S
C2362 C2357 1.350 . S
C2363 H2350 0.929 . S
C2363 C2355 1.433 . S
C2363 N2365 1.384 . S
N2364 C2360 1.427 . S
N2364 C2361 1.384 . S
N2365 C2357 1.427 . S
N2365 C2363 1.384 . S
H2366 C2372 0.930 . S
H2367 C2376 0.930 . S
H2368 C2381 0.929 . S
H2369 C2379 0.929 . S
H2370 C2374 0.929 . S
H2371 C2380 0.929 . S
C2372 H2366 0.930 . S
C2372 C2373 1.367 . S
C2372 C2380 1.378 . S
C2373 C2372 1.367 . S
C2373 C2381 1.433 . S
C2374 H2370 0.929 . S
C2374 C2376 1.378 . S
C2374 C2378 1.350 . S
C2375 C2378 1.463 . S
C2375 C2380 1.350 . S
C2375 N2383 1.427 . S
C2376 H2367 0.930 . S
C2376 C2374 1.378 . S
C2376 C2377 1.367 . S
C2377 C2376 1.367 . S
C2377 C2379 1.433 . S
C2378 C2374 1.350 . S
C2378 C2375 1.463 . S
C2378 N2382 1.427 . S
C2379 H2369 0.929 . S
C2379 C2377 1.433 . S
C2379 N2382 1.384 . S
C2380 H2371 0.929 . S
C2380 C2372 1.378 . S
C2380 C2375 1.350 . S
C2381 H2368 0.929 . S
C2381 C2373 1.433 . S
C2381 N2383 1.384 . S
N2382 C2378 1.427 . S
N2382 C2379 1.384 . S
N2383 C2375 1.427 . S
N2383 C2381 1.384 . S
H2384 C2390 0.930 . S
H2385 C2394 0.930 . S
H2386 C2399 0.929 . S
H2387 C2397 0.929 . S
H2388 C2392 0.929 . S
H2389 C2398 0.929 . S
C2390 H2384 0.930 . S
C2390 C2391 1.367 . S
C2390 C2398 1.378 . S
C2391 C2390 1.367 . S
C2391 C2399 1.433 . S
C2392 H2388 0.929 . S
C2392 C2394 1.378 . S
C2392 C2396 1.350 . S
C2393 C2396 1.463 . S
C2393 C2398 1.350 . S
C2393 N2401 1.427 . S
C2394 H2385 0.930 . S
C2394 C2392 1.378 . S
C2394 C2395 1.367 . S
C2395 C2394 1.367 . S
C2395 C2397 1.433 . S
C2396 C2392 1.350 . S
C2396 C2393 1.463 . S
C2396 N2400 1.427 . S
C2397 H2387 0.929 . S
C2397 C2395 1.433 . S
C2397 N2400 1.384 . S
C2398 H2389 0.929 . S
C2398 C2390 1.378 . S
C2398 C2393 1.350 . S
C2399 H2386 0.929 . S
C2399 C2391 1.433 . S
C2399 N2401 1.384 . S
N2400 C2396 1.427 . S
N2400 C2397 1.384 . S
N2401 C2393 1.427 . S
N2401 C2399 1.384 . S
H2402 C2408 0.930 . S
H2403 C2412 0.930 . S
H2404 C2417 0.929 . S
H2405 C2415 0.929 . S
H2406 C2410 0.929 . S
H2407 C2416 0.929 . S
C2408 H2402 0.930 . S
C2408 C2409 1.367 . S
C2408 C2416 1.378 . S
C2409 C2408 1.367 . S
C2409 C2417 1.433 . S
C2410 H2406 0.929 . S
C2410 C2412 1.378 . S
C2410 C2414 1.350 . S
C2411 C2414 1.463 . S
C2411 C2416 1.350 . S
C2411 N2419 1.427 . S
C2412 H2403 0.930 . S
C2412 C2410 1.378 . S
C2412 C2413 1.367 . S
C2413 C2412 1.367 . S
C2413 C2415 1.433 . S
C2414 C2410 1.350 . S
C2414 C2411 1.463 . S
C2414 N2418 1.427 . S
C2415 H2405 0.929 . S
C2415 C2413 1.433 . S
C2415 N2418 1.384 . S
C2416 H2407 0.929 . S
C2416 C2408 1.378 . S
C2416 C2411 1.350 . S
C2417 H2404 0.929 . S
C2417 C2409 1.433 . S
C2417 N2419 1.384 . S
N2418 C2414 1.427 . S
N2418 C2415 1.384 . S
N2419 C2411 1.427 . S
N2419 C2417 1.384 . S
H2420 C2426 0.930 . S
H2421 C2430 0.930 . S
H2422 C2435 0.929 . S
H2423 C2433 0.929 . S
H2424 C2428 0.929 . S
H2425 C2434 0.929 . S
C2426 H2420 0.930 . S
C2426 C2427 1.367 . S
C2426 C2434 1.378 . S
C2427 C2426 1.367 . S
C2427 C2435 1.433 . S
C2428 H2424 0.929 . S
C2428 C2430 1.378 . S
C2428 C2432 1.350 . S
C2429 C2432 1.463 . S
C2429 C2434 1.350 . S
C2429 N2437 1.427 . S
C2430 H2421 0.930 . S
C2430 C2428 1.378 . S
C2430 C2431 1.367 . S
C2431 C2430 1.367 . S
C2431 C2433 1.433 . S
C2432 C2428 1.350 . S
C2432 C2429 1.463 . S
C2432 N2436 1.427 . S
C2433 H2423 0.929 . S
C2433 C2431 1.433 . S
C2433 N2436 1.384 . S
C2434 H2425 0.929 . S
C2434 C2426 1.378 . S
C2434 C2429 1.350 . S
C2435 H2422 0.929 . S
C2435 C2427 1.433 . S
C2435 N2437 1.384 . S
N2436 C2432 1.427 . S
N2436 C2433 1.384 . S
N2437 C2429 1.427 . S
N2437 C2435 1.384 . S
H2438 C2444 0.930 . S
H2439 C2448 0.930 . S
H2440 C2453 0.929 . S
H2441 C2451 0.929 . S
H2442 C2446 0.929 . S
H2443 C2452 0.929 . S
C2444 H2438 0.930 . S
C2444 C2445 1.367 . S
C2444 C2452 1.378 . S
C2445 C2444 1.367 . S
C2445 C2453 1.433 . S
C2446 H2442 0.929 . S
C2446 C2448 1.378 . S
C2446 C2450 1.350 . S
C2447 C2450 1.463 . S
C2447 C2452 1.350 . S
C2447 N2455 1.427 . S
C2448 H2439 0.930 . S
C2448 C2446 1.378 . S
C2448 C2449 1.367 . S
C2449 C2448 1.367 . S
C2449 C2451 1.433 . S
C2450 C2446 1.350 . S
C2450 C2447 1.463 . S
C2450 N2454 1.427 . S
C2451 H2441 0.929 . S
C2451 C2449 1.433 . S
C2451 N2454 1.384 . S
C2452 H2443 0.929 . S
C2452 C2444 1.378 . S
C2452 C2447 1.350 . S
C2453 H2440 0.929 . S
C2453 C2445 1.433 . S
C2453 N2455 1.384 . S
N2454 C2450 1.427 . S
N2454 C2451 1.384 . S
N2455 C2447 1.427 . S
N2455 C2453 1.384 . S
H2456 C2462 0.930 . S
H2457 C2466 0.930 . S
H2458 C2471 0.929 . S
H2459 C2469 0.929 . S
H2460 C2464 0.929 . S
H2461 C2470 0.929 . S
C2462 H2456 0.930 . S
C2462 C2463 1.367 . S
C2462 C2470 1.378 . S
C2463 C2462 1.367 . S
C2463 C2471 1.433 . S
C2464 H2460 0.929 . S
C2464 C2466 1.378 . S
C2464 C2468 1.350 . S
C2465 C2468 1.463 . S
C2465 C2470 1.350 . S
C2465 N2473 1.427 . S
C2466 H2457 0.930 . S
C2466 C2464 1.378 . S
C2466 C2467 1.367 . S
C2467 C2466 1.367 . S
C2467 C2469 1.433 . S
C2468 C2464 1.350 . S
C2468 C2465 1.463 . S
C2468 N2472 1.427 . S
C2469 H2459 0.929 . S
C2469 C2467 1.433 . S
C2469 N2472 1.384 . S
C2470 H2461 0.929 . S
C2470 C2462 1.378 . S
C2470 C2465 1.350 . S
C2471 H2458 0.929 . S
C2471 C2463 1.433 . S
C2471 N2473 1.384 . S
N2472 C2468 1.427 . S
N2472 C2469 1.384 . S
N2473 C2465 1.427 . S
N2473 C2471 1.384 . S
H2474 C2480 0.930 . S
H2475 C2484 0.930 . S
H2476 C2489 0.929 . S
H2477 C2487 0.929 . S
H2478 C2482 0.929 . S
H2479 C2488 0.929 . S
C2480 H2474 0.930 . S
C2480 C2481 1.367 . S
C2480 C2488 1.378 . S
C2481 C2480 1.367 . S
C2481 C2489 1.433 . S
C2482 H2478 0.929 . S
C2482 C2484 1.378 . S
C2482 C2486 1.350 . S
C2483 C2486 1.463 . S
C2483 C2488 1.350 . S
C2483 N2491 1.427 . S
C2484 H2475 0.930 . S
C2484 C2482 1.378 . S
C2484 C2485 1.367 . S
C2485 C2484 1.367 . S
C2485 C2487 1.433 . S
C2486 C2482 1.350 . S
C2486 C2483 1.463 . S
C2486 N2490 1.427 . S
C2487 H2477 0.929 . S
C2487 C2485 1.433 . S
C2487 N2490 1.384 . S
C2488 H2479 0.929 . S
C2488 C2480 1.378 . S
C2488 C2483 1.350 . S
C2489 H2476 0.929 . S
C2489 C2481 1.433 . S
C2489 N2491 1.384 . S
N2490 C2486 1.427 . S
N2490 C2487 1.384 . S
N2491 C2483 1.427 . S
N2491 C2489 1.384 . S
H2492 C2498 0.930 . S
H2493 C2502 0.930 . S
H2494 C2507 0.929 . S
H2495 C2505 0.929 . S
H2496 C2500 0.929 . S
H2497 C2506 0.929 . S
C2498 H2492 0.930 . S
C2498 C2499 1.367 . S
C2498 C2506 1.378 . S
C2499 C2498 1.367 . S
C2499 C2507 1.433 . S
C2500 H2496 0.929 . S
C2500 C2502 1.378 . S
C2500 C2504 1.350 . S
C2501 C2504 1.463 . S
C2501 C2506 1.350 . S
C2501 N2509 1.427 . S
C2502 H2493 0.930 . S
C2502 C2500 1.378 . S
C2502 C2503 1.367 . S
C2503 C2502 1.367 . S
C2503 C2505 1.433 . S
C2504 C2500 1.350 . S
C2504 C2501 1.463 . S
C2504 N2508 1.427 . S
C2505 H2495 0.929 . S
C2505 C2503 1.433 . S
C2505 N2508 1.384 . S
C2506 H2497 0.929 . S
C2506 C2498 1.378 . S
C2506 C2501 1.350 . S
C2507 H2494 0.929 . S
C2507 C2499 1.433 . S
C2507 N2509 1.384 . S
N2508 C2504 1.427 . S
N2508 C2505 1.384 . S
N2509 C2501 1.427 . S
N2509 C2507 1.384 . S
H2510 C2516 0.930 . S
H2511 C2520 0.930 . S
H2512 C2525 0.929 . S
H2513 C2523 0.929 . S
H2514 C2518 0.929 . S
H2515 C2524 0.929 . S
C2516 H2510 0.930 . S
C2516 C2517 1.367 . S
C2516 C2524 1.378 . S
C2517 C2516 1.367 . S
C2517 C2525 1.433 . S
C2518 H2514 0.929 . S
C2518 C2520 1.378 . S
C2518 C2522 1.350 . S
C2519 C2522 1.463 . S
C2519 C2524 1.350 . S
C2519 N2527 1.427 . S
C2520 H2511 0.930 . S
C2520 C2518 1.378 . S
C2520 C2521 1.367 . S
C2521 C2520 1.367 . S
C2521 C2523 1.433 . S
C2522 C2518 1.350 . S
C2522 C2519 1.463 . S
C2522 N2526 1.427 . S
C2523 H2513 0.929 . S
C2523 C2521 1.433 . S
C2523 N2526 1.384 . S
C2524 H2515 0.929 . S
C2524 C2516 1.378 . S
C2524 C2519 1.350 . S
C2525 H2512 0.929 . S
C2525 C2517 1.433 . S
C2525 N2527 1.384 . S
N2526 C2522 1.427 . S
N2526 C2523 1.384 . S
N2527 C2519 1.427 . S
N2527 C2525 1.384 . S
C1095 C20 1.188 . S
C1099 C836 1.188 . S
C1113 C326 1.186 . S
C1117 C54 1.186 . S
C1131 C904 1.186 . S
C1135 C88 1.186 . S
C1149 C394 1.186 . S
C1153 C122 1.186 . S
C1167 C972 1.188 . S
C1171 C156 1.188 . S
C1185 C462 1.188 . S
C1189 C190 1.188 . S
C1203 C1040 1.186 . S
C1207 C224 1.186 . S
C1221 C530 1.188 . S
C1225 C258 1.188 . S
C1239 C292 1.187 . S
C1243 C564 1.187 . S
C1257 C360 1.187 . S
C1261 C632 1.187 . S
C1275 C428 1.187 . S
C1279 C700 1.187 . S
C1293 C768 1.187 . S
C1297 C496 1.187 . S
C1311 C598 1.188 . S
C1315 C870 1.188 . S
C1329 C938 1.188 . S
C1333 C666 1.188 . S
C1347 C734 1.186 . S
C1351 C1006 1.186 . S
C1365 C1074 1.186 . S
C1369 C802 1.186 . S
C1383 C5 1.694 . S
C1387 C407 1.697 . S
C1401 C39 1.694 . S
C1405 C849 1.698 . S
C1419 C339 1.695 . S
C1423 C73 1.695 . S
C1437 C107 1.694 . S
C1441 C917 1.696 . S
C1455 C475 1.695 . S
C1459 C141 1.698 . S
C1473 C1053 1.694 . S
C1477 C175 1.697 . S
C1491 C209 1.698 . S
C1495 C543 1.696 . S
C1509 C985 1.695 . S
C1513 C243 1.695 . S
C1527 C277 1.697 . S
C1531 C135 1.699 . S
C1545 C311 1.695 . S
C1549 C577 1.699 . S
C1563 C67 1.698 . S
C1567 C345 1.698 . S
C1581 C379 1.694 . S
C1585 C645 1.696 . S
C1599 C413 1.696 . S
C1603 C203 1.699 . S
C1617 C781 1.695 . S
C1621 C447 1.698 . S
C1635 C271 1.696 . S
C1639 C481 1.695 . S
C1653 C515 1.695 . S
C1657 C713 1.695 . S
C1671 C951 1.695 . S
C1675 C549 1.696 . S
C1689 C305 1.699 . S
C1693 C583 1.696 . S
C1707 C883 1.695 . S
C1711 C617 1.698 . S
C1725 C651 1.694 . S
C1729 C373 1.697 . S
C1743 C1019 1.695 . S
C1747 C685 1.696 . S
C1761 C509 1.697 . S
C1765 C719 1.694 . S
C1779 C753 1.695 . S
C1783 C1087 1.695 . S
C1797 C441 1.698 . S
C1801 C787 1.694 . S
C1815 C679 1.699 . S
C1819 C821 1.694 . S
C1833 C855 1.697 . S
C1837 C33 1.694 . S
C1851 C889 1.696 . S
C1855 C611 1.699 . S
C1869 C101 1.697 . S
C1873 C923 1.698 . S
C1887 C747 1.698 . S
C1891 C957 1.698 . S
C1905 C991 1.694 . S
C1909 C237 1.697 . S
C1923 C815 1.699 . S
C1927 C1025 1.696 . S
C1941 C169 1.697 . S
C1945 C1059 1.698 . S
C1959 C2 1.891 . S
C1963 C206 1.891 . S
C1977 C240 1.891 . S
C1981 C36 1.891 . S
C1995 C70 1.891 . S
C1999 C138 1.892 . S
C2013 C104 1.892 . S
C2017 C172 1.892 . S
C2031 C478 1.889 . S
C2035 C274 1.890 . S
C2049 C512 1.889 . S
C2053 C308 1.890 . S
C2067 C410 1.890 . S
C2071 C342 1.890 . S
C2085 C444 1.889 . S
C2089 C376 1.890 . S
C2103 C546 1.891 . S
C2107 C750 1.890 . S
C2121 C580 1.891 . S
C2125 C784 1.892 . S
C2139 C614 1.890 . S
C2143 C682 1.891 . S
C2157 C648 1.889 . S
C2161 C716 1.890 . S
C2175 C1022 1.892 . S
C2179 C818 1.892 . S
C2193 C1056 1.891 . S
C2197 C852 1.892 . S
C2211 C886 1.889 . S
C2215 C954 1.890 . S
C2229 C920 1.891 . S
C2233 C988 1.891 . S
C2247 C9 1.162 . S
C2251 C723 1.172 . S
C2265 C43 1.172 . S
C2269 C757 1.170 . S
C2283 C77 1.176 . S
C2287 C791 1.165 . S
C2301 C111 1.163 . S
C2305 C689 1.170 . S
C2319 C655 1.162 . S
C2323 C145 1.171 . S
C2337 C179 1.178 . S
C2341 C553 1.160 . S
C2355 C587 1.159 . S
C2359 C213 1.176 . S
C2373 C247 1.171 . S
C2377 C621 1.162 . S
C2391 C995 1.166 . S
C2395 C281 1.175 . S
C2409 C315 1.171 . S
C2413 C1029 1.171 . S
C2427 C1063 1.163 . S
C2431 C349 1.177 . S
C2445 C383 1.159 . S
C2449 C961 1.177 . S
C2463 C417 1.167 . S
C2467 C927 1.166 . S
C2481 C825 1.174 . S
C2485 C451 1.160 . S
C2499 C485 1.167 . S
C2503 C859 1.166 . S
C2517 C519 1.171 . S
C2521 C893 1.171 . S
