# Generated by pormake.
# Topology tsi, (8)-cn, num edge types: 1
# Building blocks:
#     Node 0, Type 0, BuildingBlock: LIZSOE_clean_sbu_0, # of connection points: 8
#     Node 1, Type 0, BuildingBlock: LIZSOE_clean_sbu_0, # of connection points: 8
#     Node 2, Type 0, BuildingBlock: LIZSOE_clean_sbu_0, # of connection points: 8
#     Node 3, Type 0, BuildingBlock: LIZSOE_clean_sbu_0, # of connection points: 8
#     Edge 4, Type (0, 0), BuildingBlock: AJUNOK_clean_linker_0, # of connection points: 2
#     Edge 5, Type (0, 0), BuildingBlock: AJUNOK_clean_linker_0, # of connection points: 2
#     Edge 6, Type (0, 0), BuildingBlock: AJUNOK_clean_linker_0, # of connection points: 2
#     Edge 7, Type (0, 0), BuildingBlock: AJUNOK_clean_linker_0, # of connection points: 2
#     Edge 8, Type (0, 0), BuildingBlock: AJUNOK_clean_linker_0, # of connection points: 2
#     Edge 9, Type (0, 0), BuildingBlock: AJUNOK_clean_linker_0, # of connection points: 2
#     Edge 10, Type (0, 0), BuildingBlock: AJUNOK_clean_linker_0, # of connection points: 2
#     Edge 11, Type (0, 0), BuildingBlock: AJUNOK_clean_linker_0, # of connection points: 2
#     Edge 12, Type (0, 0), BuildingBlock: AJUNOK_clean_linker_0, # of connection points: 2
#     Edge 13, Type (0, 0), BuildingBlock: AJUNOK_clean_linker_0, # of connection points: 2
#     Edge 14, Type (0, 0), BuildingBlock: AJUNOK_clean_linker_0, # of connection points: 2
#     Edge 15, Type (0, 0), BuildingBlock: AJUNOK_clean_linker_0, # of connection points: 2
#     Edge 16, Type (0, 0), BuildingBlock: AJUNOK_clean_linker_0, # of connection points: 2
#     Edge 17, Type (0, 0), BuildingBlock: AJUNOK_clean_linker_0, # of connection points: 2
#     Edge 18, Type (0, 0), BuildingBlock: AJUNOK_clean_linker_0, # of connection points: 2
#     Edge 19, Type (0, 0), BuildingBlock: AJUNOK_clean_linker_0, # of connection points: 2
# Relax obj value: 0.282
# Max RMSD: 0.259
# Mean RMSD: 0.254
data_MOF--net-tsi--node1-LIZSOE_clean_sbu_0--edge1-AJUNOK_clean_linker_0
_symmetry_space_group_name_H-M    P1
_symmetry_Int_Tables_number       1
_symmetry_cell_setting            triclinic
loop_
_symmetry_equiv_pos_as_xyz
'x, y, z'
_cell_length_a     11.503674
_cell_length_b     11.454046
_cell_length_c     51.559018
_cell_angle_alpha  101.11582
_cell_angle_beta   100.50586
_cell_angle_gamma 90.179571
loop_
_atom_site_label
_atom_site_type_symbol
_atom_site_fract_x
_atom_site_fract_y
_atom_site_fract_z
_atom_type_partial_charge
Co0 Co 0.29751 0.46105 0.5043 0.0
N1 N 0.42765 0.39196 0.52206 0.0
C2 C 0.5338 0.44998 0.53212 0.0
N3 N 0.55392 0.27108 0.54124 0.0
C4 C 0.44298 0.28245 0.52822 0.0
C5 C 0.61111 0.37607 0.54392 0.0
Co6 Co 1.00247 0.58562 0.39099 0.0
N7 N 0.91197 0.67468 0.36857 0.0
N8 N 0.81569 0.70766 0.32868 0.0
C9 C 0.85695 0.81305 0.34422 0.0
C10 C 0.91686 0.79266 0.36856 0.0
C11 C 0.84867 0.62569 0.34412 0.0
Co12 Co 0.13953 0.51874 0.44843 0.0
C13 C 0.15956 0.50754 0.38984 0.0
H14 H 0.967 0.85941 0.38435 0.0
O15 O 0.17055 0.53502 0.4898 0.0
O16 O 0.96509 0.52408 0.44985 0.0
O17 O 0.12961 0.34113 0.44351 0.0
O18 O 0.30987 0.5175 0.44394 0.0
O19 O 0.40225 0.5076 0.48445 0.0
O20 O 0.87896 0.57564 0.41076 0.0
O21 O 0.09759 0.49588 0.40824 0.0
O22 O 1.06038 0.72572 0.41437 0.0
O23 O 0.26083 0.31726 0.47946 0.0
O24 O 0.32604 0.59715 0.52561 0.0
O25 O 0.15291 0.69717 0.45417 0.0
O26 O 0.1274 0.58744 0.37537 0.0
C27 C 0.19268 0.27515 0.45736 0.0
C28 C 0.81943 0.49487 0.33559 0.0
H29 H 0.83046 0.45183 0.35337 0.0
H30 H 0.7273 0.47919 0.32425 0.0
H31 H 0.87948 0.45394 0.32214 0.0
C32 C 0.87351 0.54891 0.43357 0.0
C33 C 0.40469 0.52094 0.46101 0.0
H34 H 0.55349 0.54141 0.53126 0.0
H35 H 0.34088 0.16081 0.5429 0.0
H36 H 0.3748 0.10457 0.51094 0.0
H37 H 0.2601 0.21051 0.51404 0.0
C38 C 0.34795 0.18588 0.5235 0.0
C39 C 0.21746 0.55705 0.51604 0.0
C40 C 0.11591 0.7653 0.43788 0.0
H41 H 0.70071 0.39866 0.55458 0.0
H42 H 0.84916 0.89806 0.33795 0.0
Co43 Co 0.1955 0.56029 0.73112 0.0
N44 N 0.10776 0.4527 0.74433 0.0
C45 C 0.08911 0.33698 0.73172 0.0
N46 N 0.99393 0.35622 0.76514 0.0
C47 C 1.04613 0.46175 0.76466 0.0
C48 C 1.02018 0.27824 0.74437 0.0
Co49 Co 0.36124 0.70913 0.62985 0.0
N50 N 0.48012 0.78752 0.61857 0.0
N51 N 0.58248 0.89594 0.59782 0.0
C52 C 0.65083 0.88543 0.62121 0.0
C53 C 0.58825 0.81973 0.63386 0.0
C54 C 0.47985 0.83524 0.59659 0.0
Co55 Co 0.26508 0.64606 0.68002 0.0
C56 C 0.19395 0.70046 0.62136 0.0
H57 H 0.61708 0.80491 0.65404 0.0
O58 O 0.28016 0.66499 0.72098 0.0
O59 O 0.2634 0.82326 0.68537 0.0
O60 O 0.08849 0.64997 0.67512 0.0
O61 O 0.26954 0.46106 0.67557 0.0
O62 O 0.28418 0.44039 0.71823 0.0
O63 O 0.40095 0.8287 0.66166 0.0
O64 O 0.24394 0.63443 0.63876 0.0
O65 O 0.46763 0.60739 0.64169 0.0
O66 O 0.07661 0.52028 0.7004 0.0
O67 O 0.11629 0.68972 0.74067 0.0
O68 O 0.44933 0.64038 0.6845 0.0
O69 O 0.24698 0.79911 0.61995 0.0
C70 C 1.02671 0.58396 0.68482 0.0
C71 C 0.37366 0.83121 0.57492 0.0
H72 H 0.31437 0.9032 0.5812 0.0
H73 H 0.39875 0.84301 0.55578 0.0
H74 H 0.32625 0.74432 0.5719 0.0
C75 C 0.33446 0.88254 0.67643 0.0
C76 C 0.29669 0.39921 0.69437 0.0
H77 H 0.11674 0.29804 0.71318 0.0
H78 H 0.09395 0.64342 0.78413 0.0
H79 H 1.01094 0.56476 0.80201 0.0
H80 H 0.9388 0.61186 0.77207 0.0
C81 C 1.02201 0.5771 0.78179 0.0
C82 C 0.22593 0.71854 0.74058 0.0
C83 C 0.51073 0.60548 0.66584 0.0
H84 H 0.98497 0.18741 0.73775 0.0
H85 H 0.73479 0.93292 0.62983 0.0
Co86 Co 0.28592 0.88989 0.97093 0.0
N87 N 0.22216 1.00705 0.99349 0.0
C88 C 0.21699 0.12498 0.99424 0.0
N89 N 0.17418 0.09596 1.03281 0.0
C90 C 0.19291 0.99145 1.01683 0.0
C91 C 0.18712 0.17915 1.01811 0.0
Co92 Co 0.40968 0.58315 0.85836 0.0
N93 N 0.48655 0.45502 0.84163 0.0
N94 N 0.61802 0.35066 0.82086 0.0
C95 C 0.53955 0.27281 0.8251 0.0
C96 C 0.45817 0.33741 0.83786 0.0
C97 C 0.58311 0.45999 0.8304 0.0
Co98 Co 0.34277 0.74119 0.91321 0.0
C99 C 0.30764 0.63485 0.84772 0.0
H100 H 0.38291 0.30096 0.84397 0.0
O101 O 0.35641 0.77828 0.9532 0.0
O102 O 0.5215 0.7345 0.91821 0.0
O103 O 0.35859 0.91326 0.91068 0.0
O104 O 0.16451 0.75116 0.90892 0.0
O105 O 0.13902 0.84995 0.9496 0.0
O106 O 0.55391 0.65042 0.87727 0.0
O107 O 0.33045 0.70586 0.87206 0.0
O108 O 0.40651 0.49011 0.88409 0.0
O109 O 0.31234 1.00066 0.94967 0.0
O110 O 0.43309 0.91652 0.98928 0.0
O111 O 0.32418 0.57251 0.91743 0.0
O112 O 0.26642 0.52497 0.84333 0.0
C113 C 0.33965 1.00628 0.92722 0.0
C114 C 0.63617 0.57268 0.82578 0.0
H115 H 0.58373 0.65112 0.83157 0.0
H116 H 0.72826 0.58738 0.83715 0.0
H117 H 0.64069 0.56317 0.80416 0.0
C118 C 0.59082 0.70325 0.90138 0.0
C119 C 0.09818 0.79654 0.92563 0.0
H120 H 0.24394 0.17091 0.97981 0.0
H121 H 0.14252 0.87437 1.04166 0.0
H122 H 0.26788 0.82897 1.02542 0.0
H123 H 0.1218 0.81249 1.00599 0.0
C124 C 0.18037 0.87031 1.02319 0.0
C125 C 0.44431 0.81627 0.97316 0.0
C126 C 0.36939 0.4835 0.9051 0.0
H127 H 0.18852 0.27451 1.02539 0.0
H128 H 0.54035 0.17694 0.81909 0.0
Co129 Co 0.4417 0.35016 0.23741 0.0
N130 N 0.36633 0.28597 0.26133 0.0
C131 C 0.28595 0.19473 0.25527 0.0
N132 N 0.31075 0.25521 0.29949 0.0
C133 C 0.37918 0.32229 0.28845 0.0
C134 C 0.25251 0.17525 0.27839 0.0
Co135 Co 0.54379 0.43903 0.11953 0.0
N136 N 0.60788 0.5074 0.09437 0.0
N137 N 0.62538 0.57716 0.05704 0.0
C138 C 0.72198 0.51638 0.06398 0.0
C139 C 0.71062 0.4731 0.08659 0.0
C140 C 0.55794 0.57173 0.07588 0.0
Co141 Co 0.49253 0.39712 0.17872 0.0
C142 C 0.37987 0.37378 0.12056 0.0
H143 H 0.76979 0.41259 0.09553 0.0
O144 O 0.51977 0.4248 0.21882 0.0
O145 O 0.49405 0.57315 0.18056 0.0
O146 O 0.31541 0.39774 0.17574 0.0
O147 O 0.49116 0.21912 0.17703 0.0
O148 O 0.46155 0.19562 0.21777 0.0
O149 O 0.5256 0.59309 0.13999 0.0
O150 O 0.47141 0.36697 0.13914 0.0
O151 O 0.69576 0.4339 0.1408 0.0
O152 O 0.29436 0.35769 0.21513 0.0
O153 O 0.42682 0.5002 0.25229 0.0
O154 O 0.66905 0.39802 0.18079 0.0
O155 O 0.39368 0.43388 0.10224 0.0
C156 C 0.25016 0.37872 0.1922 0.0
C157 C 0.44022 0.62798 0.07577 0.0
H158 H 0.42264 0.65443 0.09648 0.0
H159 H 0.43695 0.70763 0.06638 0.0
H160 H 0.3695 0.56317 0.06378 0.0
C161 C 0.50705 0.63732 0.16345 0.0
C162 C 0.47863 0.15312 0.19398 0.0
H163 H 0.24652 0.15169 0.23512 0.0
H164 H 0.5293 0.44397 0.29504 0.0
H165 H 0.4713 0.44329 0.32494 0.0
H166 H 0.39169 0.5123 0.29964 0.0
C167 C 0.44712 0.43564 0.30306 0.0
C168 C 0.50048 0.51637 0.23687 0.0
C169 C 0.73632 0.41462 0.16432 0.0
H170 H 0.18342 0.11264 0.27934 0.0
H171 H 0.79199 0.49788 1.05247 0.0
C172 C 0.09824 0.67831 0.54704 0.0
C173 C 0.14213 0.56724 0.53724 0.0
C174 C 0.0902 0.71328 0.57452 0.0
C175 C 0.13164 0.64084 0.59354 0.0
H176 H 0.08524 0.74439 0.53443 0.0
H177 H 0.06971 0.80488 0.58155 0.0
S178 S 0.20736 0.32554 0.5759 0.0
N179 N 0.18926 0.37259 0.54713 0.0
N180 N 0.18059 0.4399 0.59853 0.0
C181 C 0.15295 0.52243 0.58291 0.0
C182 C 0.15799 0.48598 0.55488 0.0
C183 C 0.6913 0.3142 0.77873 0.0
C184 C 0.71322 0.32553 0.80674 0.0
C185 C 0.78464 0.31943 0.76503 0.0
C186 C 0.90171 0.33723 0.77914 0.0
H187 H 0.6014 0.30943 0.76773 0.0
H188 H 0.76532 0.31576 0.74352 0.0
S189 S 1.00468 0.36338 0.85231 0.0
N190 N 0.85891 0.34921 0.848 0.0
N191 N 1.03587 0.35718 0.82202 0.0
C192 C 0.92511 0.34265 0.80694 0.0
C193 C 0.83009 0.33746 0.82086 0.0
C194 C 0.45179 0.63046 0.99131 0.0
C195 C 0.51328 0.72977 0.98708 0.0
C196 C 0.49117 0.57797 1.01371 0.0
C197 C 0.59434 0.62147 1.03237 0.0
H198 H 0.36647 0.60067 0.9789 0.0
H199 H 0.43784 0.50645 1.01717 0.0
S200 S 0.79846 0.86412 1.02784 0.0
N201 N 0.69022 0.8591 1.00166 0.0
N202 N 0.76576 0.75759 1.04317 0.0
C203 C 0.66299 0.71185 1.02685 0.0
C204 C 0.62224 0.76642 1.00428 0.0
C205 C 0.78784 0.59951 0.2814 0.0
C206 C 0.75266 0.68745 0.30123 0.0
C207 C 0.71199 0.55827 0.25664 0.0
C208 C 0.59806 0.60271 0.25114 0.0
H209 H 0.87076 0.55653 0.28581 0.0
H210 H 0.73648 0.48053 0.24352 0.0
S211 S 0.47919 0.85653 0.29348 0.0
N212 N 0.60885 0.83531 0.31146 0.0
N213 N 0.46607 0.75773 0.26507 0.0
C214 C 0.5711 0.70394 0.26904 0.0
C215 C 0.648 0.7456 0.29423 0.0
C216 C 0.15435 0.29265 0.32665 0.0
C217 C 0.27518 0.28405 0.32545 0.0
C218 C 0.11753 0.34625 0.35041 0.0
C219 C 0.1997 0.40006 0.37336 0.0
H220 H 0.08781 0.26633 0.30862 0.0
H221 H 1.02407 0.35916 0.34974 0.0
S222 S 0.52253 0.35646 0.38372 0.0
N223 N 0.47371 0.29163 0.35204 0.0
N224 N 0.4056 0.41202 0.39547 0.0
C225 C 0.31961 0.37713 0.37354 0.0
C226 C 0.35688 0.31429 0.3498 0.0
C227 C 0.35035 0.63311 0.7759 0.0
C228 C 0.29361 0.73377 0.76895 0.0
C229 C 0.3506 0.60358 0.80094 0.0
C230 C 0.31359 0.68163 0.82237 0.0
H231 H 0.37883 0.56659 0.76073 0.0
H232 H 0.3737 0.51414 0.80253 0.0
S233 S 0.18722 0.97538 0.81726 0.0
N234 N 0.20982 0.92078 0.78653 0.0
N235 N 0.23544 0.87627 0.83579 0.0
C236 C 0.27449 0.79281 0.81719 0.0
C237 C 0.26132 0.81742 0.79031 0.0
C238 C 0.12803 0.226 0.07291 0.0
C239 C 0.18642 0.12605 0.06175 0.0
C240 C 0.18 0.3002 0.09726 0.0
C241 C 0.29056 0.27484 0.11135 0.0
H242 H 1.0521 0.25719 0.06073 0.0
H243 H 0.14388 0.387 0.10248 0.0
S244 S 0.45532 1.00067 0.09632 0.0
N245 N 0.34474 0.99015 0.07055 0.0
N246 N 0.43574 0.12447 0.11717 0.0
C247 C 0.33374 0.16117 0.10379 0.0
C248 C 0.28394 0.08795 0.07847 0.0
C249 C 0.6077 1.06649 0.54408 0.0
C250 C 0.58772 0.18253 0.55684 0.0
C251 C 0.61159 0.97224 0.55795 0.0
C252 C 0.59481 0.99283 0.5847 0.0
H253 H 0.61385 1.04821 0.52298 0.0
H254 H 0.62246 0.88252 0.54753 0.0
S255 S 0.53642 0.27973 0.62632 0.0
N256 N 0.54996 0.31238 0.59715 0.0
N257 N 0.55807 0.13569 0.62335 0.0
C258 C 0.57862 0.10894 0.59778 0.0
C259 C 0.57496 0.20402 0.58377 0.0
C260 C 1.06112 0.09261 0.44353 0.0
C261 C 0.17597 0.14461 0.45025 0.0
C262 C 1.04266 0.96965 0.44097 0.0
C263 C 0.13821 0.89487 0.44528 0.0
H264 H 0.98498 0.14758 0.44095 0.0
H265 H 0.9528 0.93239 0.43539 0.0
S266 S 0.45632 0.98569 0.46034 0.0
N267 N 0.38705 0.1113 0.45909 0.0
N268 N 0.35155 0.87991 0.45467 0.0
C269 C 0.25345 0.94531 0.45155 0.0
C270 C 0.27247 1.07034 0.45386 0.0
C271 C 0.70859 0.5953 0.69691 0.0
C272 C 0.64188 0.58658 0.67086 0.0
C273 C 0.83326 0.59191 0.70121 0.0
C274 C 0.89593 0.58419 0.67977 0.0
H275 H 0.66476 0.60671 0.71408 0.0
H276 H 0.88129 0.59897 0.72159 0.0
S277 S 0.76784 0.55045 0.6077 0.0
N278 N 0.65275 0.5576 0.62278 0.0
N279 N 0.88455 0.56209 0.63198 0.0
C280 C 0.83168 0.57307 0.65382 0.0
C281 C 0.70555 0.57097 0.6491 0.0
C282 C 0.27284 0.32749 0.92308 0.0
C283 C 0.36794 0.36501 0.91266 0.0
C284 C 0.26308 0.21008 0.92698 0.0
C285 C 0.34826 0.12609 0.92077 0.0
H286 H 0.20356 0.38795 0.92744 0.0
H287 H 0.18692 0.18417 0.93449 0.0
S288 S 0.61858 0.18175 0.8948 0.0
N289 N 0.55264 0.31029 0.89757 0.0
N290 N 0.5326 0.08971 0.90462 0.0
C291 C 0.44421 0.16262 0.91059 0.0
C292 C 0.45472 0.28218 0.90675 0.0
C293 C 1.06625 0.42938 0.1624 0.0
C294 C 0.11892 0.38636 0.18536 0.0
C295 C 0.94319 0.4397 0.15601 0.0
C296 C 0.86698 0.40691 0.17222 0.0
H297 H 0.12048 0.45697 0.14939 0.0
H298 H 0.90796 0.47434 0.1382 0.0
S299 S 0.95955 0.2905 0.23497 0.0
N300 N 0.08401 0.31384 0.22486 0.0
N301 N 0.85413 0.32903 0.21231 0.0
C302 C 0.91845 0.36414 0.1953 0.0
C303 C 1.04371 0.35492 0.20198 0.0
C304 C 0.32003 0.07474 0.65935 0.0
C305 C 0.33492 1.01423 0.68113 0.0
C306 C 0.31204 0.19979 0.66339 0.0
C307 C 0.32365 0.26914 0.68945 0.0
H308 H 0.30997 1.02483 0.63894 0.0
H309 H 0.29347 0.24161 0.64602 0.0
S310 S 0.38255 0.15094 0.75335 0.0
N311 N 0.36891 1.03125 0.72928 0.0
N312 N 0.3669 0.26444 0.73775 0.0
C313 C 0.34832 0.20828 0.71147 0.0
C314 C 0.35028 0.08152 0.7071 0.0
C315 C 0.79601 0.64893 0.89666 0.0
C316 C 0.71969 0.72745 0.90926 0.0
C317 C 0.91776 0.6746 0.90096 0.0
C318 C 0.96815 0.77898 0.9184 0.0
H319 H 0.76132 0.56617 0.88342 0.0
H320 H 0.97305 0.61046 0.89122 0.0
S321 S 0.80676 1.01509 0.95601 0.0
N322 N 0.70265 0.91457 0.9395 0.0
N323 N 0.93215 0.96294 0.94814 0.0
C324 C 0.89284 0.85829 0.93127 0.0
C325 C 0.76858 0.8322 0.92671 0.0
C326 C 0.55982 0.8461 0.15969 0.0
C327 C 0.4979 0.76813 0.17095 0.0
C328 C 0.55284 0.97045 0.16703 0.0
C329 C 0.48308 1.02132 0.18575 0.0
H330 H 0.61552 0.81092 0.14542 0.0
H331 H 0.60393 1.02703 0.15832 0.0
S332 S 0.2897 0.85487 0.21769 0.0
N333 N 0.35599 0.7503 0.19963 0.0
N334 N 0.34271 0.98192 0.21324 0.0
C335 C 0.41822 0.94352 0.19638 0.0
C336 C 0.42551 0.8176 0.18902 0.0
C337 C 0.66475 0.61749 0.4323 0.0
C338 C 0.75474 0.54238 0.44095 0.0
C339 C 0.55094 0.61034 0.43855 0.0
C340 C 0.5227 0.52666 0.45335 0.0
H341 H 0.68271 0.68302 0.42079 0.0
H342 H 0.48494 0.67072 0.43186 0.0
S343 S 0.72175 0.30105 0.47815 0.0
N344 N 0.80472 0.37755 0.46383 0.0
N345 N 0.59115 0.36147 0.4747 0.0
C346 C 0.61099 0.44944 0.46153 0.0
C347 C 0.72678 0.45785 0.45555 0.0
loop_
_geom_bond_atom_site_label_1
_geom_bond_atom_site_label_2
_geom_bond_distance
_geom_bond_site_symmetry_2
_ccdc_geom_bond_type
Co0 N1 2.034 . S
Co0 O15 2.262 . S
Co0 O19 1.958 . S
Co0 O23 1.950 . S
Co0 O24 2.057 . S
N1 Co0 2.034 . S
N1 C2 1.366 . S
N1 C4 1.332 . S
C2 N1 1.366 . S
C2 C5 1.377 . S
C2 H34 0.931 . S
N3 C4 1.346 . S
N3 C5 1.337 . S
C4 N1 1.332 . S
C4 N3 1.346 . S
C4 C38 1.361 . S
C5 C2 1.377 . S
C5 N3 1.337 . S
C5 H41 0.930 . S
Co6 N7 2.034 . S
Co6 O20 1.950 . S
Co6 O21 2.262 1_655 S
Co6 O22 1.958 1_655 S
Co6 O26 2.057 1_655 S
N7 Co6 2.034 . S
N7 C10 1.366 . S
N7 C11 1.332 . S
N8 C9 1.337 . S
N8 C11 1.346 . S
C9 N8 1.337 . S
C9 C10 1.377 . S
C9 H42 0.930 . S
C10 N7 1.366 . S
C10 C9 1.377 . S
C10 H14 0.931 . S
C11 N7 1.332 . S
C11 N8 1.346 . S
C11 C28 1.361 . S
Co12 O15 2.097 . S
Co12 O16 2.065 1_455 S
Co12 O17 2.065 . S
Co12 O18 2.042 . S
Co12 O21 2.097 . S
Co12 O25 2.042 . S
C13 O21 1.253 . S
C13 O26 1.263 . S
H14 C10 0.931 . S
O15 Co0 2.262 . S
O15 Co12 2.097 . S
O15 C39 1.253 . S
O16 Co12 2.065 1_655 S
O16 C32 1.221 . S
O17 Co12 2.065 . S
O17 C27 1.221 . S
O18 Co12 2.042 . S
O18 C33 1.237 . S
O19 Co0 1.958 . S
O19 C33 1.278 . S
O20 Co6 1.950 . S
O20 C32 1.277 . S
O21 Co6 2.262 1_455 S
O21 Co12 2.097 . S
O21 C13 1.253 . S
O22 Co6 1.958 1_455 S
O22 C40 1.278 . S
O23 Co0 1.950 . S
O23 C27 1.277 . S
O24 Co0 2.057 . S
O24 C39 1.263 . S
O25 Co12 2.042 . S
O25 C40 1.237 . S
O26 Co6 2.057 1_455 S
O26 C13 1.263 . S
C27 O17 1.221 . S
C27 O23 1.277 . S
C28 C11 1.361 . S
C28 H29 0.960 . S
C28 H30 0.961 . S
C28 H31 0.961 . S
H29 C28 0.960 . S
H30 C28 0.961 . S
H31 C28 0.961 . S
C32 O16 1.221 . S
C32 O20 1.277 . S
C33 O18 1.237 . S
C33 O19 1.278 . S
H34 C2 0.931 . S
H35 C38 0.961 . S
H36 C38 0.961 . S
H37 C38 0.960 . S
C38 C4 1.361 . S
C38 H35 0.961 . S
C38 H36 0.961 . S
C38 H37 0.960 . S
C39 O15 1.253 . S
C39 O24 1.263 . S
C40 O22 1.278 . S
C40 O25 1.237 . S
H41 C5 0.930 . S
H42 C9 0.930 . S
Co43 N44 2.034 . S
Co43 O58 2.262 . S
Co43 O62 1.958 . S
Co43 O66 1.947 1_455 S
Co43 O67 2.057 . S
N44 Co43 2.034 . S
N44 C45 1.366 . S
N44 C47 1.332 1_455 S
C45 N44 1.366 . S
C45 C48 1.377 1_455 S
C45 H77 0.931 . S
N46 C47 1.346 . S
N46 C48 1.337 . S
C47 N44 1.332 1_655 S
C47 N46 1.346 . S
C47 C81 1.361 . S
C48 C45 1.377 1_655 S
C48 N46 1.337 . S
C48 H84 0.930 . S
Co49 N50 2.034 . S
Co49 O63 1.950 . S
Co49 O64 2.262 . S
Co49 O65 1.958 . S
Co49 O69 2.057 . S
N50 Co49 2.034 . S
N50 C53 1.366 . S
N50 C54 1.332 . S
N51 C52 1.337 . S
N51 C54 1.346 . S
C52 N51 1.337 . S
C52 C53 1.377 . S
C52 H85 0.930 . S
C53 N50 1.366 . S
C53 C52 1.377 . S
C53 H57 0.931 . S
C54 N50 1.332 . S
C54 N51 1.346 . S
C54 C71 1.361 . S
Co55 O58 2.097 . S
Co55 O59 2.065 . S
Co55 O60 2.065 . S
Co55 O61 2.042 . S
Co55 O64 2.097 . S
Co55 O68 2.042 . S
C56 O64 1.253 . S
C56 O69 1.263 . S
H57 C53 0.931 . S
O58 Co43 2.262 . S
O58 Co55 2.097 . S
O58 C82 1.253 . S
O59 Co55 2.065 . S
O59 C75 1.221 . S
O60 Co55 2.065 . S
O60 C70 1.221 1_455 S
O61 Co55 2.042 . S
O61 C76 1.237 . S
O62 Co43 1.958 . S
O62 C76 1.278 . S
O63 Co49 1.950 . S
O63 C75 1.277 . S
O64 Co49 2.262 . S
O64 Co55 2.097 . S
O64 C56 1.253 . S
O65 Co49 1.958 . S
O65 C83 1.278 . S
O66 Co43 1.947 1_655 S
O66 C70 1.277 . S
O67 Co43 2.057 . S
O67 C82 1.263 . S
O68 Co55 2.042 . S
O68 C83 1.237 . S
O69 Co49 2.057 . S
O69 C56 1.263 . S
C70 O60 1.221 1_655 S
C70 O66 1.277 . S
C71 C54 1.361 . S
C71 H72 0.960 . S
C71 H73 0.961 . S
C71 H74 0.961 . S
H72 C71 0.960 . S
H73 C71 0.961 . S
H74 C71 0.961 . S
C75 O59 1.221 . S
C75 O63 1.277 . S
C76 O61 1.237 . S
C76 O62 1.278 . S
H77 C45 0.931 . S
H78 C81 0.961 . S
H79 C81 0.961 . S
H80 C81 0.960 . S
C81 C47 1.361 . S
C81 H78 0.961 . S
C81 H79 0.961 . S
C81 H80 0.960 . S
C82 O58 1.253 . S
C82 O67 1.263 . S
C83 O65 1.278 . S
C83 O68 1.237 . S
H84 C48 0.930 . S
H85 C52 0.930 . S
Co86 N87 2.034 . S
Co86 O101 2.262 . S
Co86 O105 1.958 . S
Co86 O109 1.950 . S
Co86 O110 2.057 . S
N87 Co86 2.034 . S
N87 C88 1.366 . S
N87 C90 1.332 . S
C88 N87 1.366 . S
C88 C91 1.377 1_455 S
C88 H120 0.931 1_455 S
N89 C90 1.346 1_545 S
N89 C91 1.337 1_445 S
C90 N87 1.332 . S
C90 N89 1.346 1_565 S
C90 C124 1.361 1_565 S
C91 C88 1.377 1_655 S
C91 N89 1.337 1_665 S
C91 H127 0.930 . S
Co92 N93 2.034 . S
Co92 O106 1.950 . S
Co92 O107 2.262 . S
Co92 O108 1.958 . S
Co92 O112 2.057 . S
N93 Co92 2.034 . S
N93 C96 1.366 . S
N93 C97 1.332 . S
N94 C95 1.337 . S
N94 C97 1.346 . S
C95 N94 1.337 . S
C95 C96 1.377 . S
C95 H128 0.930 . S
C96 N93 1.366 . S
C96 C95 1.377 . S
C96 H100 0.931 . S
C97 N93 1.332 . S
C97 N94 1.346 . S
C97 C114 1.361 . S
Co98 O101 2.097 . S
Co98 O102 2.065 . S
Co98 O103 2.065 . S
Co98 O104 2.042 . S
Co98 O107 2.097 . S
Co98 O111 2.042 . S
C99 O107 1.253 . S
C99 O112 1.263 . S
H100 C96 0.931 . S
O101 Co86 2.262 . S
O101 Co98 2.097 . S
O101 C125 1.253 . S
O102 Co98 2.065 . S
O102 C118 1.221 . S
O103 Co98 2.065 . S
O103 C113 1.221 . S
O104 Co98 2.042 . S
O104 C119 1.237 . S
O105 Co86 1.958 . S
O105 C119 1.278 . S
O106 Co92 1.950 . S
O106 C118 1.277 . S
O107 Co92 2.262 . S
O107 Co98 2.097 . S
O107 C99 1.253 . S
O108 Co92 1.958 . S
O108 C126 1.278 . S
O109 Co86 1.950 . S
O109 C113 1.277 . S
O110 Co86 2.057 . S
O110 C125 1.263 . S
O111 Co98 2.042 . S
O111 C126 1.237 . S
O112 Co92 2.057 . S
O112 C99 1.263 . S
C113 O103 1.221 . S
C113 O109 1.277 . S
C114 C97 1.361 . S
C114 H115 0.960 . S
C114 H116 0.961 . S
C114 H117 0.961 . S
H115 C114 0.960 . S
H116 C114 0.961 . S
H117 C114 0.961 . S
C118 O102 1.221 . S
C118 O106 1.277 . S
C119 O104 1.237 . S
C119 O105 1.278 . S
H120 C88 0.931 1_655 S
H121 C124 0.961 . S
H122 C124 0.961 . S
H123 C124 0.960 1_565 S
C124 C90 1.361 1_545 S
C124 H121 0.961 . S
C124 H122 0.961 . S
C124 H123 0.960 1_545 S
C125 O101 1.253 . S
C125 O110 1.263 . S
C126 O108 1.278 . S
C126 O111 1.237 . S
H127 C91 0.930 . S
H128 C95 0.930 . S
Co129 N130 2.034 . S
Co129 O144 2.262 . S
Co129 O148 1.958 . S
Co129 O152 1.950 . S
Co129 O153 2.057 . S
N130 Co129 2.034 . S
N130 C131 1.366 . S
N130 C133 1.332 . S
C131 N130 1.366 . S
C131 C134 1.377 . S
C131 H163 0.931 . S
N132 C133 1.346 . S
N132 C134 1.337 . S
C133 N130 1.332 . S
C133 N132 1.346 . S
C133 C167 1.361 . S
C134 C131 1.377 . S
C134 N132 1.337 . S
C134 H170 0.930 . S
Co135 N136 2.034 . S
Co135 O149 1.950 . S
Co135 O150 2.262 . S
Co135 O151 1.958 . S
Co135 O155 2.057 . S
N136 Co135 2.034 . S
N136 C139 1.366 . S
N136 C140 1.332 . S
N137 C138 1.337 . S
N137 C140 1.346 . S
C138 N137 1.337 . S
C138 C139 1.377 . S
C138 H171 0.930 . S
C139 N136 1.366 . S
C139 C138 1.377 . S
C139 H143 0.931 . S
C140 N136 1.332 . S
C140 N137 1.346 . S
C140 C157 1.361 . S
Co141 O144 2.097 . S
Co141 O145 2.065 . S
Co141 O146 2.065 . S
Co141 O147 2.042 . S
Co141 O150 2.097 . S
Co141 O154 2.042 . S
C142 O150 1.253 . S
C142 O155 1.263 . S
H143 C139 0.931 . S
O144 Co129 2.262 . S
O144 Co141 2.097 . S
O144 C168 1.253 . S
O145 Co141 2.065 . S
O145 C161 1.221 . S
O146 Co141 2.065 . S
O146 C156 1.221 . S
O147 Co141 2.042 . S
O147 C162 1.237 . S
O148 Co129 1.958 . S
O148 C162 1.278 . S
O149 Co135 1.950 . S
O149 C161 1.277 . S
O150 Co135 2.262 . S
O150 Co141 2.097 . S
O150 C142 1.253 . S
O151 Co135 1.958 . S
O151 C169 1.278 . S
O152 Co129 1.950 . S
O152 C156 1.277 . S
O153 Co129 2.057 . S
O153 C168 1.263 . S
O154 Co141 2.042 . S
O154 C169 1.237 . S
O155 Co135 2.057 . S
O155 C142 1.263 . S
C156 O146 1.221 . S
C156 O152 1.277 . S
C157 C140 1.361 . S
C157 H158 0.960 . S
C157 H159 0.961 . S
C157 H160 0.961 . S
H158 C157 0.960 . S
H159 C157 0.961 . S
H160 C157 0.961 . S
C161 O145 1.221 . S
C161 O149 1.277 . S
C162 O147 1.237 . S
C162 O148 1.278 . S
H163 C131 0.931 . S
H164 C167 0.961 . S
H165 C167 0.961 . S
H166 C167 0.960 . S
C167 C133 1.361 . S
C167 H164 0.961 . S
C167 H165 0.961 . S
C167 H166 0.960 . S
C168 O144 1.253 . S
C168 O153 1.263 . S
C169 O151 1.278 . S
C169 O154 1.237 . S
H170 C134 0.930 . S
H171 C138 0.930 . S
C172 C173 1.369 . S
C172 C174 1.419 . S
C172 H176 0.930 . S
C173 C172 1.369 . S
C173 C182 1.429 . S
C174 C172 1.419 . S
C174 C175 1.363 . S
C174 H177 0.929 . S
C175 C174 1.363 . S
C175 C181 1.428 . S
H176 C172 0.930 . S
H177 C174 0.929 . S
S178 N179 1.613 . S
S178 N180 1.610 . S
N179 S178 1.613 . S
N179 C182 1.350 . S
N180 S178 1.610 . S
N180 C181 1.351 . S
C181 C175 1.428 . S
C181 N180 1.351 . S
C181 C182 1.434 . S
C182 C173 1.429 . S
C182 N179 1.350 . S
C182 C181 1.434 . S
C183 C184 1.369 . S
C183 C185 1.419 . S
C183 H187 0.930 . S
C184 C183 1.369 . S
C184 C193 1.429 . S
C185 C183 1.419 . S
C185 C186 1.363 . S
C185 H188 0.929 . S
C186 C185 1.363 . S
C186 C192 1.428 . S
H187 C183 0.930 . S
H188 C185 0.929 . S
S189 N190 1.613 . S
S189 N191 1.610 . S
N190 S189 1.613 . S
N190 C193 1.350 . S
N191 S189 1.610 . S
N191 C192 1.351 . S
C192 C186 1.428 . S
C192 N191 1.351 . S
C192 C193 1.434 . S
C193 C184 1.429 . S
C193 N190 1.350 . S
C193 C192 1.434 . S
C194 C195 1.369 . S
C194 C196 1.419 . S
C194 H198 0.930 . S
C195 C194 1.369 . S
C195 C204 1.429 . S
C196 C194 1.419 . S
C196 C197 1.363 . S
C196 H199 0.929 . S
C197 C196 1.363 . S
C197 C203 1.428 . S
H198 C194 0.930 . S
H199 C196 0.929 . S
S200 N201 1.613 . S
S200 N202 1.610 . S
N201 S200 1.613 . S
N201 C204 1.350 . S
N202 S200 1.610 . S
N202 C203 1.351 . S
C203 C197 1.428 . S
C203 N202 1.351 . S
C203 C204 1.434 . S
C204 C195 1.429 . S
C204 N201 1.350 . S
C204 C203 1.434 . S
C205 C206 1.369 . S
C205 C207 1.419 . S
C205 H209 0.930 . S
C206 C205 1.369 . S
C206 C215 1.429 . S
C207 C205 1.419 . S
C207 C208 1.363 . S
C207 H210 0.929 . S
C208 C207 1.363 . S
C208 C214 1.428 . S
H209 C205 0.930 . S
H210 C207 0.929 . S
S211 N212 1.613 . S
S211 N213 1.610 . S
N212 S211 1.613 . S
N212 C215 1.350 . S
N213 S211 1.610 . S
N213 C214 1.351 . S
C214 C208 1.428 . S
C214 N213 1.351 . S
C214 C215 1.434 . S
C215 C206 1.429 . S
C215 N212 1.350 . S
C215 C214 1.434 . S
C216 C217 1.369 . S
C216 C218 1.419 . S
C216 H220 0.930 1_455 S
C217 C216 1.369 . S
C217 C226 1.429 . S
C218 C216 1.419 . S
C218 C219 1.363 . S
C218 H221 0.929 1_455 S
C219 C218 1.363 . S
C219 C225 1.428 . S
H220 C216 0.930 1_655 S
H221 C218 0.929 1_655 S
S222 N223 1.613 . S
S222 N224 1.610 . S
N223 S222 1.613 . S
N223 C226 1.350 . S
N224 S222 1.610 . S
N224 C225 1.351 . S
C225 C219 1.428 . S
C225 N224 1.351 . S
C225 C226 1.434 . S
C226 C217 1.429 . S
C226 N223 1.350 . S
C226 C225 1.434 . S
C227 C228 1.369 . S
C227 C229 1.419 . S
C227 H231 0.930 . S
C228 C227 1.369 . S
C228 C237 1.429 . S
C229 C227 1.419 . S
C229 C230 1.363 . S
C229 H232 0.929 . S
C230 C229 1.363 . S
C230 C236 1.428 . S
H231 C227 0.930 . S
H232 C229 0.929 . S
S233 N234 1.613 . S
S233 N235 1.610 . S
N234 S233 1.613 . S
N234 C237 1.350 . S
N235 S233 1.610 . S
N235 C236 1.351 . S
C236 C230 1.428 . S
C236 N235 1.351 . S
C236 C237 1.434 . S
C237 C228 1.429 . S
C237 N234 1.350 . S
C237 C236 1.434 . S
C238 C239 1.369 1_554 S
C238 C240 1.419 . S
C238 H242 0.930 . S
C239 C238 1.369 1_556 S
C239 C248 1.429 . S
C240 C238 1.419 . S
C240 C241 1.363 . S
C240 H243 0.929 . S
C241 C240 1.363 . S
C241 C247 1.428 . S
H242 C238 0.930 . S
H243 C240 0.929 . S
S244 N245 1.626 . S
S244 N246 1.562 1_556 S
N245 S244 1.626 . S
N245 C248 1.350 . S
N246 S244 1.562 1_554 S
N246 C247 1.351 . S
C247 C241 1.428 . S
C247 N246 1.351 . S
C247 C248 1.434 1_554 S
C248 C239 1.429 . S
C248 N245 1.350 . S
C248 C247 1.434 1_556 S
C249 C250 1.369 1_565 S
C249 C251 1.419 . S
C249 H253 0.930 . S
C250 C249 1.369 1_545 S
C250 C259 1.429 . S
C251 C249 1.419 . S
C251 C252 1.363 . S
C251 H254 0.929 . S
C252 C251 1.363 . S
C252 C258 1.428 . S
H253 C249 0.930 . S
H254 C251 0.929 . S
S255 N256 1.613 . S
S255 N257 1.610 1_545 S
N256 S255 1.613 . S
N256 C259 1.350 . S
N257 S255 1.610 1_565 S
N257 C258 1.351 . S
C258 C252 1.428 . S
C258 N257 1.351 . S
C258 C259 1.434 1_565 S
C259 C250 1.429 . S
C259 N256 1.350 . S
C259 C258 1.434 1_545 S
C260 C261 1.369 1_565 S
C260 C262 1.419 . S
C260 H264 0.930 1_465 S
C261 C260 1.369 1_545 S
C261 C270 1.429 1_545 S
C262 C260 1.419 . S
C262 C263 1.363 . S
C262 H265 0.929 1_455 S
C263 C262 1.363 . S
C263 C269 1.428 . S
H264 C260 0.930 1_645 S
H265 C262 0.929 1_655 S
S266 N267 1.613 1_565 S
S266 N268 1.610 . S
N267 S266 1.613 1_545 S
N267 C270 1.350 1_545 S
N268 S266 1.610 . S
N268 C269 1.351 . S
C269 C263 1.428 . S
C269 N268 1.351 . S
C269 C270 1.434 . S
C270 C261 1.429 1_565 S
C270 N267 1.350 1_565 S
C270 C269 1.434 . S
C271 C272 1.369 . S
C271 C273 1.419 . S
C271 H275 0.930 . S
C272 C271 1.369 . S
C272 C281 1.429 . S
C273 C271 1.419 . S
C273 C274 1.363 . S
C273 H276 0.929 . S
C274 C273 1.363 . S
C274 C280 1.428 . S
H275 C271 0.930 . S
H276 C273 0.929 . S
S277 N278 1.613 . S
S277 N279 1.610 . S
N278 S277 1.613 . S
N278 C281 1.350 . S
N279 S277 1.610 . S
N279 C280 1.351 . S
C280 C274 1.428 . S
C280 N279 1.351 . S
C280 C281 1.434 . S
C281 C272 1.429 . S
C281 N278 1.350 . S
C281 C280 1.434 . S
C282 C283 1.369 . S
C282 C284 1.419 . S
C282 H286 0.930 . S
C283 C282 1.369 . S
C283 C292 1.429 . S
C284 C282 1.419 . S
C284 C285 1.363 . S
C284 H287 0.929 . S
C285 C284 1.363 . S
C285 C291 1.428 . S
H286 C282 0.930 . S
H287 C284 0.929 . S
S288 N289 1.613 . S
S288 N290 1.610 1_545 S
N289 S288 1.613 . S
N289 C292 1.350 . S
N290 S288 1.610 1_565 S
N290 C291 1.351 1_565 S
C291 C285 1.428 . S
C291 N290 1.351 1_545 S
C291 C292 1.434 . S
C292 C283 1.429 . S
C292 N289 1.350 . S
C292 C291 1.434 . S
C293 C294 1.369 . S
C293 C295 1.419 . S
C293 H297 0.930 . S
C294 C293 1.369 . S
C294 C303 1.429 . S
C295 C293 1.419 . S
C295 C296 1.363 . S
C295 H298 0.929 . S
C296 C295 1.363 . S
C296 C302 1.428 . S
H297 C293 0.930 . S
H298 C295 0.929 . S
S299 N300 1.613 . S
S299 N301 1.610 . S
N300 S299 1.613 . S
N300 C303 1.350 . S
N301 S299 1.610 . S
N301 C302 1.351 . S
C302 C296 1.428 . S
C302 N301 1.351 . S
C302 C303 1.434 . S
C303 C294 1.429 . S
C303 N300 1.350 . S
C303 C302 1.434 . S
C304 C305 1.369 . S
C304 C306 1.419 1_565 S
C304 H308 0.930 . S
C305 C304 1.369 . S
C305 C314 1.429 . S
C306 C304 1.419 1_545 S
C306 C307 1.363 . S
C306 H309 0.929 . S
C307 C306 1.363 . S
C307 C313 1.428 . S
H308 C304 0.930 . S
H309 C306 0.929 . S
S310 N311 1.613 1_545 S
S310 N312 1.610 . S
N311 S310 1.613 1_565 S
N311 C314 1.350 . S
N312 S310 1.610 . S
N312 C313 1.351 . S
C313 C307 1.428 . S
C313 N312 1.351 . S
C313 C314 1.434 1_545 S
C314 C305 1.429 . S
C314 N311 1.350 . S
C314 C313 1.434 1_565 S
C315 C316 1.369 . S
C315 C317 1.419 . S
C315 H319 0.930 . S
C316 C315 1.369 . S
C316 C325 1.429 . S
C317 C315 1.419 . S
C317 C318 1.363 . S
C317 H320 0.929 . S
C318 C317 1.363 . S
C318 C324 1.428 . S
H319 C315 0.930 . S
H320 C317 0.929 . S
S321 N322 1.613 . S
S321 N323 1.610 . S
N322 S321 1.613 . S
N322 C325 1.350 . S
N323 S321 1.610 . S
N323 C324 1.351 . S
C324 C318 1.428 . S
C324 N323 1.351 . S
C324 C325 1.434 . S
C325 C316 1.429 . S
C325 N322 1.350 . S
C325 C324 1.434 . S
C326 C327 1.369 . S
C326 C328 1.419 . S
C326 H330 0.930 . S
C327 C326 1.369 . S
C327 C336 1.429 . S
C328 C326 1.419 . S
C328 C329 1.363 1_565 S
C328 H331 0.929 1_565 S
C329 C328 1.363 1_545 S
C329 C335 1.428 1_545 S
H330 C326 0.930 . S
H331 C328 0.929 1_545 S
S332 N333 1.613 . S
S332 N334 1.610 1_565 S
N333 S332 1.613 . S
N333 C336 1.350 . S
N334 S332 1.610 1_545 S
N334 C335 1.351 1_545 S
C335 C329 1.428 1_565 S
C335 N334 1.351 1_565 S
C335 C336 1.434 . S
C336 C327 1.429 . S
C336 N333 1.350 . S
C336 C335 1.434 . S
C337 C338 1.369 . S
C337 C339 1.419 . S
C337 H341 0.930 . S
C338 C337 1.369 . S
C338 C347 1.429 . S
C339 C337 1.419 . S
C339 C340 1.363 . S
C339 H342 0.929 . S
C340 C339 1.363 . S
C340 C346 1.428 . S
H341 C337 0.930 . S
H342 C339 0.929 . S
S343 N344 1.613 . S
S343 N345 1.610 . S
N344 S343 1.613 . S
N344 C347 1.350 . S
N345 S343 1.610 . S
N345 C346 1.351 . S
C346 C340 1.428 . S
C346 N345 1.351 . S
C346 C347 1.434 . S
C347 C338 1.429 . S
C347 N344 1.350 . S
C347 C346 1.434 . S
C173 C39 2.049 . S
C175 C56 2.047 . S
C184 N94 1.347 . S
C186 N46 1.346 . S
C195 C125 1.400 . S
C197 N137 1.612 1_556 S
C206 N8 1.855 . S
C208 C168 1.667 . S
C217 N132 1.612 . S
C219 C13 1.398 . S
C228 C82 2.046 . S
C230 C99 2.058 . S
C239 N89 1.853 . S
C241 C142 1.664 . S
C250 N3 1.355 . S
C252 N51 1.339 . S
C261 C27 1.483 . S
C263 C40 1.485 . S
C272 C83 1.487 . S
C274 C70 1.494 . S
C283 C126 1.728 . S
C285 C113 1.708 1_545 S
C294 C156 1.570 1_655 S
C296 C169 1.589 . S
C305 C75 1.496 . S
C307 C76 1.488 . S
C316 C118 1.484 . S
C318 C119 1.485 1_655 S
C327 C161 1.577 . S
C329 C162 1.585 . S
C338 C32 1.708 . S
C340 C33 1.729 . S
