# Generated by pormake.
# Topology dft, (4)-cn, num edge types: 1
# Building blocks:
#     Node 0, Type 0, BuildingBlock: QUQFOY_clean_sbu_3, # of connection points: 4
#     Node 1, Type 0, BuildingBlock: QUQFOY_clean_sbu_3, # of connection points: 4
#     Node 2, Type 0, BuildingBlock: QUQFOY_clean_sbu_3, # of connection points: 4
#     Node 3, Type 0, BuildingBlock: QUQFOY_clean_sbu_3, # of connection points: 4
#     Node 4, Type 0, BuildingBlock: QUQFOY_clean_sbu_3, # of connection points: 4
#     Node 5, Type 0, BuildingBlock: QUQFOY_clean_sbu_3, # of connection points: 4
#     Node 6, Type 0, BuildingBlock: QUQFOY_clean_sbu_3, # of connection points: 4
#     Node 7, Type 0, BuildingBlock: QUQFOY_clean_sbu_3, # of connection points: 4
#     Edge 8, Type (0, 0), BuildingBlock: XUDNAN_clean_linker_2, # of connection points: 2
#     Edge 9, Type (0, 0), BuildingBlock: XUDNAN_clean_linker_2, # of connection points: 2
#     Edge 10, Type (0, 0), BuildingBlock: XUDNAN_clean_linker_2, # of connection points: 2
#     Edge 11, Type (0, 0), BuildingBlock: XUDNAN_clean_linker_2, # of connection points: 2
#     Edge 12, Type (0, 0), BuildingBlock: XUDNAN_clean_linker_2, # of connection points: 2
#     Edge 13, Type (0, 0), BuildingBlock: XUDNAN_clean_linker_2, # of connection points: 2
#     Edge 14, Type (0, 0), BuildingBlock: XUDNAN_clean_linker_2, # of connection points: 2
#     Edge 15, Type (0, 0), BuildingBlock: XUDNAN_clean_linker_2, # of connection points: 2
#     Edge 16, Type (0, 0), BuildingBlock: XUDNAN_clean_linker_2, # of connection points: 2
#     Edge 17, Type (0, 0), BuildingBlock: XUDNAN_clean_linker_2, # of connection points: 2
#     Edge 18, Type (0, 0), BuildingBlock: XUDNAN_clean_linker_2, # of connection points: 2
#     Edge 19, Type (0, 0), BuildingBlock: XUDNAN_clean_linker_2, # of connection points: 2
#     Edge 20, Type (0, 0), BuildingBlock: XUDNAN_clean_linker_2, # of connection points: 2
#     Edge 21, Type (0, 0), BuildingBlock: XUDNAN_clean_linker_2, # of connection points: 2
#     Edge 22, Type (0, 0), BuildingBlock: XUDNAN_clean_linker_2, # of connection points: 2
#     Edge 23, Type (0, 0), BuildingBlock: XUDNAN_clean_linker_2, # of connection points: 2
# Relax obj value: 0.179
# Max RMSD: 0.170
# Mean RMSD: 0.170
data_MOF--net-dft--node1-QUQFOY_clean_sbu_3--edge1-XUDNAN_clean_linker_2
_symmetry_space_group_name_H-M    P1
_symmetry_Int_Tables_number       1
_symmetry_cell_setting            triclinic
loop_
_symmetry_equiv_pos_as_xyz
'x, y, z'
_cell_length_a     35.436358
_cell_length_b     35.258939
_cell_length_c     41.151194
_cell_angle_alpha  89.900143
_cell_angle_beta   89.941136
_cell_angle_gamma 90.281905
loop_
_atom_site_label
_atom_site_type_symbol
_atom_site_fract_x
_atom_site_fract_y
_atom_site_fract_z
_atom_type_partial_charge
C0 C 0.2674 0.95026 0.16896 0.0
O1 O 0.25128 0.95943 0.14255 0.0
Cd2 Cd 0.27321 0.01097 0.10908 0.0
O3 O 0.29619 0.96859 0.1789 0.0
Cd4 Cd 0.33622 0.02224 0.16201 0.0
C5 C 0.26312 0.08359 0.16309 0.0
O6 O 0.34033 0.00248 0.10544 0.0
O7 O 0.36375 0.05752 0.11611 0.0
O8 O 0.38683 0.98865 0.18985 0.0
C9 C 0.35874 0.03116 0.09566 0.0
O10 O 0.25318 0.06993 0.13576 0.0
C11 C 0.40034 0.01805 0.20341 0.0
O12 O 0.29053 0.06943 0.17881 0.0
O13 O 0.38363 0.04919 0.19801 0.0
C14 C 0.11325 0.27744 0.67667 0.0
O15 O 0.0943 0.26859 0.65146 0.0
Cd16 Cd 0.03223 0.28745 0.63129 0.0
O17 O 0.10248 0.30368 0.69577 0.0
Cd18 Cd 0.05157 0.34849 0.68773 0.0
C19 C 0.98632 0.2734 0.69962 0.0
O20 O 0.02898 0.35494 0.63227 0.0
O21 O 0.08363 0.37947 0.64259 0.0
O22 O 0.07371 0.39794 0.72471 0.0
C23 C 0.05773 0.37311 0.62208 0.0
O24 O 0.9878 0.26165 0.67047 0.0
C25 C 0.04081 0.4107 0.73017 0.0
O26 O 0.00646 0.30142 0.70862 0.0
O27 O 0.01337 0.3937 0.71663 0.0
C28 C 0.79335 0.13162 0.20796 0.0
O29 O 0.80737 0.13004 0.17959 0.0
Cd30 Cd 0.78747 0.08708 0.13839 0.0
O31 O 0.766 0.11 0.21613 0.0
Cd32 Cd 0.72776 0.06062 0.18874 0.0
C33 C 0.80479 0.00569 0.18015 0.0
O34 O 0.72031 0.09399 0.13782 0.0
O35 O 0.70652 0.03463 0.1357 0.0
O36 O 0.67069 0.08005 0.21729 0.0
C37 C 0.70569 0.06693 0.12212 0.0
O38 O 0.81268 0.02484 0.15475 0.0
C39 C 0.6618 0.04673 0.22641 0.0
O40 O 0.777 0.01461 0.19802 0.0
O41 O 0.68456 0.02038 0.21918 0.0
C42 C 0.95901 0.80893 0.69212 0.0
O43 O 0.96449 0.82534 0.665 0.0
Cd44 Cd 0.00905 0.80241 0.62544 0.0
O45 O 0.97705 0.77902 0.69946 0.0
Cd46 Cd 0.02446 0.73673 0.6763 0.0
C47 C 0.08896 0.80747 0.6715 0.0
O48 O -0.0029 0.73554 0.62188 0.0
O49 O 0.05078 0.70781 0.62716 0.0
O50 O -0.00838 0.68719 0.70654 0.0
C51 C 0.02284 0.71565 0.6092 0.0
O52 O 0.07224 0.81862 0.64585 0.0
C53 C 0.02145 0.67213 0.71764 0.0
O54 O 0.07574 0.78035 0.68848 0.0
O55 O 0.05262 0.68746 0.70968 0.0
C56 C 0.27883 0.09382 0.77658 0.0
O57 O 0.26119 0.08474 0.80233 0.0
Cd58 Cd 0.28059 0.03409 0.83623 0.0
O59 O 0.30889 0.07658 0.76832 0.0
Cd60 Cd 0.3496 0.02608 0.79162 0.0
C61 C 0.2791 0.96315 0.77979 0.0
O62 O 0.34535 0.05219 0.84533 0.0
O63 O 0.3696 -0.00363 0.84414 0.0
O64 O 0.40043 0.06258 0.76646 0.0
C65 C 0.36351 0.02661 0.85987 0.0
O66 O 0.26369 0.97662 0.8052 0.0
C67 C 0.41998 0.03388 0.75881 0.0
O68 O 0.30991 0.97701 0.76928 0.0
O69 O 0.40636 0.00153 0.76584 0.0
C70 C -0.0086 0.25796 0.32652 0.0
O71 O 0.00973 0.24041 0.34833 0.0
Cd72 Cd 0.06928 0.26165 0.36766 0.0
O73 O 0.00428 0.28842 0.31375 0.0
Cd74 Cd 0.05978 0.3313 0.32028 0.0
C75 C 0.11982 0.26175 0.29678 0.0
O76 O 0.05161 0.32614 0.37776 0.0
O77 O 0.09945 0.36033 0.36437 0.0
O78 O 0.01472 0.37826 0.30051 0.0
C79 C 0.07742 0.34857 0.38652 0.0
O80 O 0.11469 0.24631 0.32442 0.0
C81 C 0.03948 0.39925 0.28713 0.0
O82 O 0.10246 0.29194 0.28926 0.0
O83 O 0.07343 0.38811 0.28854 0.0
C84 C 0.80872 0.97525 0.82864 0.0
O85 O 0.81899 0.98439 0.85713 0.0
Cd86 Cd 0.79723 0.03944 0.88479 0.0
O87 O 0.78427 -0.00531 0.81329 0.0
Cd88 Cd 0.74373 0.05033 0.82389 0.0
C89 C 0.82055 0.107 0.82796 0.0
O90 O 0.7303 0.03412 0.87974 0.0
O91 O 0.71356 0.09038 0.86612 0.0
O92 O 0.69278 0.0182 0.79534 0.0
C93 C 0.71344 0.0643 0.88736 0.0
O94 O 0.82589 0.09392 0.85646 0.0
C95 C 0.68364 0.04666 0.77816 0.0
O96 O 0.79394 0.09436 0.81028 0.0
O97 O 0.7035 0.07648 0.78144 0.0
C98 C 0.09422 0.80212 0.29731 0.0
O99 O 0.08433 0.82098 0.3221 0.0
Cd100 Cd 0.02788 0.8086 0.35112 0.0
O101 O 0.07444 0.77431 0.28702 0.0
Cd102 Cd 0.01623 0.74097 0.30647 0.0
C103 C 0.96462 0.81862 0.28956 0.0
O104 O 0.03731 0.74219 0.36178 0.0
O105 O 0.97918 0.72515 0.35698 0.0
O106 O 0.04503 0.68272 0.28659 0.0
C107 C 0.00863 0.72687 0.37439 0.0
O108 O 0.97633 0.83233 0.31632 0.0
C109 C 0.01454 0.66866 0.27563 0.0
O110 O 0.97612 0.78655 0.27992 0.0
O111 O 0.98519 0.68895 0.27795 0.0
H112 H 0.3543 0.97769 0.04764 0.0
H113 H 0.38645 0.09474 0.06568 0.0
H114 H 0.39843 0.1038 0.00708 0.0
H115 H 0.4232 0.96088 0.98066 0.0
H116 H 0.39029 0.9316 0.95853 0.0
H117 H 0.38855 0.93299 0.0023 0.0
H118 H 0.31809 0.9521 -0.00016 0.0
H119 H 0.31962 0.95087 0.95617 0.0
H120 H 0.30462 -0.00666 0.9767 0.0
H121 H 0.39786 0.10287 0.94676 0.0
H122 H 0.38793 0.09115 0.88825 0.0
H123 H 0.35973 0.97377 0.9088 0.0
C124 C 0.36456 0.00502 0.03933 0.0
C125 C 0.36941 0.03556 0.06116 0.0
C126 C 0.38264 0.07094 0.04938 0.0
C127 C 0.3896 0.07633 0.01616 0.0
C128 C 0.38378 0.04587 0.99519 0.0
C129 C 0.37202 0.01076 0.0063 0.0
C130 C 0.36568 0.98342 0.97842 0.0
C131 C 0.3936 0.95026 0.98008 0.0
C132 C 0.32456 0.96912 0.97775 0.0
C133 C 0.37421 0.00912 0.9498 0.0
C134 C 0.38484 0.04496 0.9601 0.0
C135 C 0.3905 0.07473 0.93835 0.0
C136 C 0.38468 0.06785 0.90526 0.0
C137 C 0.37372 0.03146 0.89422 0.0
C138 C 0.36917 0.00153 0.91667 0.0
H139 H 0.015 0.34751 0.57143 0.0
H140 H 0.11599 0.41246 0.59376 0.0
H141 H 0.13079 0.41686 0.53513 0.0
H142 H 0.05498 0.29227 0.51076 0.0
H143 H 0.01363 0.29102 0.4853 0.0
H144 H 0.00869 0.29692 0.5285 0.0
H145 H 0.97109 0.35896 0.51942 0.0
H146 H 0.97559 0.35304 0.47611 0.0
H147 H -0.00864 0.39638 0.49501 0.0
H148 H 0.13693 0.40963 0.47383 0.0
H149 H 0.13293 0.39199 0.41556 0.0
H150 H 0.02869 0.33093 0.43513 0.0
C151 C 0.03977 0.36339 0.564 0.0
C152 C 0.06423 0.37976 0.58709 0.0
C153 C 0.09675 0.39977 0.57639 0.0
C154 C 0.10541 0.40245 0.54317 0.0
C155 C 0.08118 0.38505 0.52104 0.0
C156 C 0.0489 0.36613 0.53106 0.0
C157 C 0.02873 0.34778 0.50283 0.0
C158 C 0.0264 0.30444 0.50712 0.0
C159 C -0.01064 0.36509 0.49806 0.0
C160 C 0.05506 0.35865 0.47544 0.0
C161 C 0.085 0.38044 0.4862 0.0
C162 C 0.11342 0.39282 0.4651 0.0
C163 C 0.11102 0.38262 0.43212 0.0
C164 C 0.08061 0.36004 0.42088 0.0
C165 C 0.05236 0.34818 0.44293 0.0
H166 H 0.71015 0.01228 0.93631 0.0
H167 H 0.68957 0.1309 0.91474 0.0
H168 H 0.6766 0.14266 0.97289 0.0
H169 H 0.63908 0.00291 0.00326 0.0
H170 H 0.66944 0.97189 0.02613 0.0
H171 H 0.67114 0.97178 0.98234 0.0
H172 H 0.74304 0.98538 0.98432 0.0
H173 H 0.74158 0.98574 0.02796 0.0
H174 H 0.7601 0.02622 0.00627 0.0
H175 H 0.67594 0.14333 0.0336 0.0
H176 H 0.6854 0.13261 0.09234 0.0
H177 H 0.70451 0.01309 0.07427 0.0
C178 C 0.70201 0.04057 0.94368 0.0
C179 C 0.70086 0.07073 0.92108 0.0
C180 C 0.69046 0.10739 0.93166 0.0
C181 C 0.68296 0.11428 0.96461 0.0
C182 C 0.68546 0.08408 0.98643 0.0
C183 C 0.69428 0.04784 0.97634 0.0
C184 C 0.69836 0.02101 0.00486 0.0
C185 C 0.66767 0.99007 0.00409 0.0
C186 C 0.73813 0.0036 0.0059 0.0
C187 C 0.69216 0.04817 0.03273 0.0
C188 C 0.68432 0.08433 0.02157 0.0
C189 C 0.68118 0.11501 0.04265 0.0
C190 C 0.68675 0.10868 0.07591 0.0
C191 C 0.6953 0.07197 0.08774 0.0
C192 C 0.69715 0.04125 0.06592 0.0
H193 H 0.9597 0.74034 0.42483 0.0
H194 H 0.0636 0.68338 0.39924 0.0
H195 H 0.07391 0.66668 0.45677 0.0
H196 H -0.00464 0.78389 0.49297 0.0
H197 H 0.95336 0.78042 0.51756 0.0
H198 H 0.94958 0.78128 0.474 0.0
H199 H 0.91246 0.7178 0.47516 0.0
H200 H 0.91585 0.71689 0.51887 0.0
H201 H 0.93247 0.67721 0.49538 0.0
H202 H 0.07762 0.6633 0.51663 0.0
H203 H 0.07514 0.67455 0.57573 0.0
H204 H 0.97013 0.7359 0.56364 0.0
C205 C 0.98375 0.72312 0.43139 0.0
C206 C 0.01054 0.7124 0.40782 0.0
C207 C 0.04262 0.69133 0.41712 0.0
C208 C 0.04863 0.68164 0.44966 0.0
C209 C 0.02242 0.69356 0.47262 0.0
C210 C -0.00945 0.7138 0.46402 0.0
C211 C 0.96951 0.72721 0.49394 0.0
C212 C 0.96682 0.77077 0.49464 0.0
C213 C 0.93024 0.70866 0.49595 0.0
C214 C -0.00475 0.71252 0.52049 0.0
C215 C 0.02518 0.69258 0.50764 0.0
C216 C 0.05401 0.67835 0.52709 0.0
C217 C 0.05243 0.685 0.56061 0.0
C218 C 0.02243 0.70602 0.57427 0.0
C219 C -0.00678 0.71941 0.55393 0.0
H220 H 0.44601 0.0775 0.21886 0.0
H221 H 0.43584 0.95537 0.22762 0.0
H222 H 0.50074 0.95233 0.24907 0.0
H223 H 0.53041 0.07772 0.18525 0.0
H224 H 0.549 0.11979 0.2044 0.0
H225 H 0.49903 0.11409 0.19977 0.0
H226 H 0.48987 0.12272 0.26181 0.0
H227 H 0.54015 0.12857 0.26664 0.0
H228 H 0.5153 0.09283 0.28973 0.0
H229 H 0.56923 0.9604 0.25716 0.0
H230 H 0.63574 0.9782 0.24833 0.0
H231 H 0.60261 0.09516 0.23335 0.0
C232 C 0.4569 0.05034 0.22667 0.0
C233 C 0.43593 0.01671 0.22188 0.0
C234 C 0.45144 0.98149 0.23131 0.0
C235 C 0.48818 0.97956 0.24376 0.0
C236 C 0.50891 0.0131 0.24674 0.0
C237 C 0.4937 0.04794 0.23866 0.0
C238 C 0.52361 0.07875 0.23832 0.0
C239 C 0.52562 0.0987 0.20496 0.0
C240 C 0.51682 0.1074 0.26577 0.0
C241 C 0.55845 0.05532 0.24487 0.0
C242 C 0.54923 0.01777 0.25086 0.0
C243 C 0.57679 0.98986 0.25338 0.0
C244 C 0.61454 0.00022 0.24822 0.0
C245 C 0.62426 0.03809 0.2402 0.0
C246 C 0.59603 0.06616 0.24004 0.0
H247 H 0.09222 0.46695 0.73981 0.0
H248 H 0.97507 0.4368 0.75609 0.0
H249 H 0.96089 0.50321 0.76958 0.0
H250 H 0.09585 0.55256 0.80012 0.0
H251 H 0.12553 0.57817 0.77196 0.0
H252 H 0.12951 0.52735 0.77551 0.0
H253 H 0.11853 0.52106 0.71355 0.0
H254 H 0.11397 0.57142 0.70983 0.0
H255 H 0.07643 0.54086 0.69585 0.0
H256 H 0.95537 0.57218 0.76502 0.0
H257 H 0.95945 0.63771 0.74437 0.0
H258 H 0.08002 0.62485 0.7307 0.0
C259 C 0.0641 0.47406 0.74802 0.0
C260 C 0.03479 0.44691 0.74714 0.0
C261 C -0.00203 0.45726 0.75683 0.0
C262 C -0.01029 0.49492 0.7647 0.0
C263 C 0.01865 0.52177 0.76297 0.0
C264 C 0.05537 0.51172 0.75543 0.0
C265 C 0.07961 0.54644 0.74896 0.0
C266 C 0.10938 0.55142 0.77574 0.0
C267 C 0.09815 0.54482 0.71504 0.0
C268 C 0.05002 0.57716 0.75087 0.0
C269 C 0.01534 0.56254 0.76013 0.0
C270 C 0.98258 0.58426 0.75884 0.0
C271 C 0.9851 0.62139 0.74685 0.0
C272 C 0.02009 0.63629 0.73611 0.0
C273 C 0.05307 0.61439 0.73942 0.0
H274 H 0.63339 0.98854 0.77099 0.0
H275 H 0.65391 0.10557 0.74337 0.0
H276 H 0.58879 0.11016 0.72287 0.0
H277 H 0.56094 0.96612 0.70343 0.0
H278 H 0.53405 0.93732 0.73142 0.0
H279 H 0.58476 0.93964 0.73474 0.0
H280 H 0.57826 0.96017 0.79489 0.0
H281 H 0.52785 0.95837 0.79173 0.0
H282 H 0.55076 0.00154 0.80466 0.0
H283 H 0.51922 0.10764 0.71953 0.0
H284 H 0.45164 0.09701 0.73107 0.0
H285 H 0.47565 0.98112 0.75931 0.0
C286 C 0.62468 0.01458 0.75928 0.0
C287 C 0.64862 0.04667 0.75876 0.0
C288 C 0.63607 0.08055 0.74388 0.0
C289 C 0.59912 0.08338 0.73204 0.0
C290 C 0.57538 0.05189 0.73476 0.0
C291 C 0.58789 0.01781 0.74742 0.0
C292 C 0.55557 0.99016 0.75234 0.0
C293 C 0.55904 0.95631 0.72909 0.0
C294 C 0.55297 0.97684 0.78801 0.0
C295 C 0.52262 0.01505 0.74312 0.0
C296 C 0.53465 0.05024 0.73223 0.0
C297 C 0.50941 0.07982 0.72692 0.0
C298 C 0.4711 0.07362 0.73372 0.0
C299 C 0.45851 0.03814 0.74576 0.0
C300 C 0.48443 0.0082 0.74931 0.0
H301 H 0.08699 0.45882 0.27648 0.0
H302 H 0.96973 0.42435 0.26873 0.0
H303 H 0.95238 0.4899 0.25383 0.0
H304 H 0.07015 0.5397 0.31727 0.0
H305 H 0.10699 0.56792 0.29888 0.0
H306 H 0.11159 0.5173 0.30077 0.0
H307 H 0.12058 0.51472 0.2383 0.0
H308 H 0.11613 0.56559 0.23621 0.0
H309 H 0.0857 0.53576 0.21209 0.0
H310 H 0.94641 0.56001 0.24878 0.0
H311 H 0.95156 0.62908 0.25712 0.0
H312 H 0.07252 0.61825 0.27021 0.0
C313 C 0.05788 0.46478 0.27041 0.0
C314 C 0.02973 0.43655 0.27334 0.0
C315 C -0.00826 0.44561 0.26635 0.0
C316 C 0.98169 0.48269 0.25769 0.0
C317 C 0.00997 0.51027 0.25614 0.0
C318 C 0.04736 0.50173 0.26225 0.0
C319 C 0.07143 0.53725 0.26395 0.0
C320 C 0.09116 0.54073 0.29719 0.0
C321 C 0.10016 0.53839 0.23596 0.0
C322 C 0.04146 0.56722 0.2596 0.0
C323 C 0.00638 0.55109 0.25418 0.0
C324 C 0.97382 0.57299 0.25236 0.0
C325 C 0.97703 0.61222 0.25719 0.0
C326 C 0.01246 0.629 0.26427 0.0
C327 C 0.04514 0.60628 0.26443 0.0
H328 H 0.17047 0.20382 0.30581 0.0
H329 H 0.12158 0.27601 0.2315 0.0
H330 H 0.15514 0.23998 0.18921 0.0
H331 H 0.26298 0.1932 0.26571 0.0
H332 H 0.26772 0.14461 0.27869 0.0
H333 H 0.24168 0.17767 0.30329 0.0
H334 H 0.1835 0.13289 0.30168 0.0
H335 H 0.20921 0.09986 0.27691 0.0
H336 H 0.16469 0.11823 0.26297 0.0
H337 H 0.18821 0.19182 0.15468 0.0
H338 H 0.22396 0.13861 0.1307 0.0
H339 H 0.25436 0.10034 0.22741 0.0
C340 C 0.16727 0.21241 0.28069 0.0
C341 C 0.14335 0.24272 0.272 0.0
C342 C 0.13989 0.25303 0.23882 0.0
C343 C 0.15876 0.23267 0.21457 0.0
C344 C 0.18146 0.20245 0.2239 0.0
C345 C 0.18633 0.19275 0.25619 0.0
C346 C 0.21184 0.15864 0.25963 0.0
C347 C 0.24822 0.16917 0.27791 0.0
C348 C 0.19105 0.12545 0.27627 0.0
C349 C 0.21975 0.15017 0.22422 0.0
C350 C 0.20183 0.17566 0.20398 0.0
C351 C 0.20294 0.17207 0.17026 0.0
C352 C 0.22311 0.14171 0.15687 0.0
C353 C 0.24221 0.11571 0.17719 0.0
C354 C 0.2406 0.12023 0.21127 0.0
H355 H 0.93076 0.21996 0.68884 0.0
H356 H 0.98806 0.28208 0.76552 0.0
H357 H 0.95074 0.2475 0.8066 0.0
H358 H 0.83848 0.21813 0.72802 0.0
H359 H 0.82734 0.17106 0.71382 0.0
H360 H 0.85799 0.20137 0.69023 0.0
H361 H 0.9097 0.14964 0.69119 0.0
H362 H 0.87927 0.11923 0.71481 0.0
H363 H 0.92566 0.13118 0.72965 0.0
H364 H 0.91029 0.2035 0.83956 0.0
H365 H 0.86633 0.15547 0.86197 0.0
H366 H 0.83332 0.12412 0.76402 0.0
C367 C 0.9353 0.22645 0.71425 0.0
C368 C 0.96239 0.25371 0.72391 0.0
C369 C 0.96739 0.26142 0.75746 0.0
C370 C 0.94638 0.24188 0.78103 0.0
C371 C 0.92017 0.215 0.77071 0.0
C372 C 0.91425 0.20751 0.73814 0.0
C373 C 0.88438 0.17712 0.73363 0.0
C374 C 0.85001 0.19288 0.71535 0.0
C375 C 0.90074 0.14223 0.7163 0.0
C376 C 0.87487 0.16841 0.76875 0.0
C377 C 0.89594 0.19045 0.78976 0.0
C378 C 0.8933 0.18634 0.82338 0.0
C379 C 0.86837 0.15895 0.83587 0.0
C380 C 0.84621 0.13634 0.81476 0.0
C381 C 0.84947 0.14139 0.78079 0.0
H382 H 0.91638 0.87634 0.30634 0.0
H383 H 0.95808 0.81231 0.22388 0.0
H384 H 0.92113 0.8526 0.18676 0.0
H385 H 0.82102 0.88851 0.27434 0.0
H386 H 0.81623 0.93556 0.29085 0.0
H387 H 0.84573 0.90136 0.31101 0.0
H388 H 0.90224 0.94819 0.3078 0.0
H389 H 0.87298 0.98243 0.2875 0.0
H390 H 0.91634 0.96709 0.26888 0.0
H391 H 0.88396 0.90327 0.15822 0.0
H392 H 0.84321 0.95653 0.1409 0.0
H393 H 0.82171 0.98398 0.24192 0.0
C394 C 0.91749 0.87067 0.2805 0.0
C395 C 0.94013 0.84127 0.26799 0.0
C396 C 0.94073 0.83456 0.23403 0.0
C397 C 0.91998 0.85738 0.21271 0.0
C398 C 0.89824 0.88638 0.22575 0.0
C399 C 0.8963 0.89269 0.25888 0.0
C400 C 0.87027 0.92538 0.26659 0.0
C401 C 0.8363 0.91188 0.28689 0.0
C402 C 0.89175 0.95768 0.2837 0.0
C403 C 0.8584 0.93678 0.23262 0.0
C404 C 0.87515 0.91422 0.20937 0.0
C405 C 0.87017 0.92077 0.1762 0.0
C406 C 0.84717 0.95108 0.16658 0.0
C407 C 0.82902 0.97386 0.19008 0.0
C408 C 0.83469 0.96646 0.22346 0.0
H409 H 0.10781 0.82631 0.73354 0.0
H410 H 0.14674 0.8339 0.63383 0.0
H411 H 0.20386 0.86845 0.65218 0.0
H412 H 0.13401 0.91973 0.75406 0.0
H413 H 0.1472 0.90874 0.79529 0.0
H414 H 0.11225 0.88027 0.77492 0.0
H415 H 0.15157 0.81995 0.78647 0.0
H416 H 0.18678 0.84831 0.8068 0.0
H417 H 0.20012 0.8181 0.77346 0.0
H418 H 0.25529 0.90345 0.68103 0.0
H419 H 0.29365 0.944 0.71684 0.0
H420 H 0.2185 0.91837 0.79747 0.0
C421 C 0.12879 0.83466 0.71572 0.0
C422 C 0.12343 0.82706 0.68237 0.0
C423 C 0.15067 0.83936 0.6595 0.0
C424 C 0.1832 0.85872 0.66973 0.0
C425 C 0.18761 0.866 0.70281 0.0
C426 C 0.1609 0.85486 0.72543 0.0
C427 C 0.17034 0.86982 0.75896 0.0
C428 C 0.1391 0.89621 0.77153 0.0
C429 C 0.17764 0.83709 0.78283 0.0
C430 C 0.2063 0.89157 0.7516 0.0
C431 C 0.21619 0.88821 0.71922 0.0
C432 C 0.2479 0.90624 0.70643 0.0
C433 C 0.26958 0.92914 0.72706 0.0
C434 C 0.25906 0.93444 0.75999 0.0
C435 C 0.22732 0.91483 0.77246 0.0
H436 H 0.82097 0.96511 0.76376 0.0
H437 H 0.8378 0.91259 0.85802 0.0
H438 H 0.87244 0.86019 0.83194 0.0
H439 H 0.81294 0.87671 0.71533 0.0
H440 H 0.83921 0.89665 0.68183 0.0
H441 H 0.81086 0.92691 0.70719 0.0
H442 H 0.86942 0.9691 0.71873 0.0
H443 H 0.89794 0.93894 0.69359 0.0
H444 H 0.91144 0.94773 0.73513 0.0
H445 H 0.90909 0.81669 0.79669 0.0
H446 H 0.94865 0.78639 0.75506 0.0
H447 H 0.91074 0.86893 0.68383 0.0
C448 C 0.83112 0.94204 0.77875 0.0
C449 C 0.82646 0.94252 0.81279 0.0
C450 C 0.84105 0.91255 0.83185 0.0
C451 C 0.86053 0.88262 0.81725 0.0
C452 C 0.86533 0.88334 0.78366 0.0
C453 C 0.8512 0.91231 0.76462 0.0
C454 C 0.86369 0.9084 0.7296 0.0
C455 C 0.82964 0.90176 0.70717 0.0
C456 C 0.88701 0.9431 0.71865 0.0
C457 C 0.88785 0.87326 0.73212 0.0
C458 C 0.88779 0.85888 0.76338 0.0
C459 C 0.90912 0.82744 0.77204 0.0
C460 C 0.93155 0.81048 0.74819 0.0
C461 C 0.93285 0.82534 0.71617 0.0
C462 C 0.91028 0.85686 0.70804 0.0
H463 H 0.20413 0.90705 0.1574 0.0
H464 H 0.29421 0.92497 0.22732 0.0
H465 H 0.26367 0.87979 0.26472 0.0
H466 H 0.13161 0.90655 0.21155 0.0
H467 H 0.10379 0.87001 0.19233 0.0
H468 H 0.13587 0.89821 0.16848 0.0
H469 H 0.1691 0.83731 0.14833 0.0
H470 H 0.13692 0.80879 0.1721 0.0
H471 H 0.18712 0.80377 0.17749 0.0
H472 H 0.21851 0.8434 0.29815 0.0
H473 H 0.16241 0.81507 0.32456 0.0
H474 H 0.10274 0.81701 0.23276 0.0
C475 C 0.21798 0.90068 0.18019 0.0
C476 C 0.25154 0.9196 0.18942 0.0
C477 C 0.26851 0.91085 0.21966 0.0
C478 C 0.25148 0.88505 0.24105 0.0
C479 C 0.21782 0.86779 0.23165 0.0
C480 C 0.20145 0.87479 0.20178 0.0
C481 C 0.16338 0.85532 0.19896 0.0
C482 C 0.13183 0.88425 0.19247 0.0
C483 C 0.1642 0.82446 0.17266 0.0
C484 C 0.16003 0.83808 0.23256 0.0
C485 C 0.19201 0.84525 0.25087 0.0
C486 C 0.19381 0.83651 0.28385 0.0
C487 C 0.16188 0.82062 0.29865 0.0
C488 C 0.12891 0.8133 0.28038 0.0
C489 C 0.12824 0.82123 0.24683 0.0
H490 H 0.13958 0.26196 0.73721 0.0
H491 H 0.1606 0.24038 0.63509 0.0
H492 H 0.21213 0.19654 0.64987 0.0
H493 H 0.23847 0.25239 0.76677 0.0
H494 H 0.22326 0.2283 0.8032 0.0
H495 H 0.19323 0.26318 0.78448 0.0
H496 H 0.13908 0.2136 0.78142 0.0
H497 H 0.1689 0.17859 0.79989 0.0
H498 H 0.14718 0.16908 0.76114 0.0
H499 H 0.25717 0.15077 0.67593 0.0
H500 H 0.28856 0.10338 0.71104 0.0
H501 H 0.23437 0.15234 0.79561 0.0
C502 C 0.15586 0.24893 0.71797 0.0
C503 C 0.14664 0.25484 0.68506 0.0
C504 C 0.16755 0.23631 0.66049 0.0
C505 C 0.19693 0.21158 0.66863 0.0
C506 C 0.20472 0.20558 0.70142 0.0
C507 C 0.18465 0.22365 0.7257 0.0
C508 C 0.19506 0.20878 0.75894 0.0
C509 C 0.21362 0.24003 0.77956 0.0
C510 C 0.1605 0.19148 0.77634 0.0
C511 C 0.22323 0.17871 0.74955 0.0
C512 C 0.2292 0.17789 0.71637 0.0
C513 C 0.25301 0.15138 0.70198 0.0
C514 C 0.27069 0.12463 0.72205 0.0
C515 C 0.26366 0.12422 0.75591 0.0
C516 C 0.24012 0.15199 0.76976 0.0
H517 H 0.95911 0.26434 0.26665 0.0
H518 H 0.94161 0.21659 0.36271 0.0
H519 H 0.88167 0.18776 0.34437 0.0
H520 H 0.85769 0.27998 0.24546 0.0
H521 H 0.86511 0.26538 0.20399 0.0
H522 H 0.90267 0.28832 0.22615 0.0
H523 H 0.94672 0.23153 0.21411 0.0
H524 H 0.90946 0.2086 0.1919 0.0
H525 H 0.93177 0.18431 0.22527 0.0
H526 H 0.82769 0.15886 0.31452 0.0
H527 H 0.78754 0.12641 0.27414 0.0
H528 H 0.842 0.19047 0.19692 0.0
C529 C 0.94208 0.24866 0.28399 0.0
C530 C 0.9546 0.2429 0.3161 0.0
C531 C 0.93232 0.2213 0.33797 0.0
C532 C 0.89812 0.20516 0.32788 0.0
C533 C 0.8868 0.21077 0.29584 0.0
C534 C 0.90824 0.23178 0.27414 0.0
C535 C 0.89259 0.22916 0.24004 0.0
C536 C 0.87868 0.26803 0.22823 0.0
C537 C 0.92187 0.21238 0.21647 0.0
C538 C 0.85994 0.20216 0.24574 0.0
C539 C 0.85638 0.19278 0.27822 0.0
C540 C 0.82982 0.16636 0.28907 0.0
C541 C 0.80711 0.14812 0.26597 0.0
C542 C 0.81175 0.15591 0.23244 0.0
C543 C 0.83773 0.18408 0.22242 0.0
loop_
_geom_bond_atom_site_label_1
_geom_bond_atom_site_label_2
_geom_bond_distance
_geom_bond_site_symmetry_2
_ccdc_geom_bond_type
C0 O1 1.306 . S
C0 O3 1.160 . S
O1 C0 1.306 . S
O1 Cd2 2.228 1_565 S
Cd2 O1 2.228 1_545 S
Cd2 O6 2.273 . S
Cd2 O10 2.277 . S
O3 C0 1.160 . S
O3 Cd4 2.203 1_565 S
Cd4 O3 2.203 1_545 S
Cd4 O6 2.411 . S
Cd4 O7 2.333 . S
Cd4 O8 2.352 . S
Cd4 O12 2.277 . S
Cd4 O13 2.356 . S
C5 O10 1.209 . S
C5 O12 1.226 . S
O6 Cd2 2.273 . S
O6 Cd4 2.411 . S
O6 C9 1.320 . S
O7 Cd4 2.333 . S
O7 C9 1.214 . S
O8 Cd4 2.352 . S
O8 C11 1.258 . S
C9 O6 1.320 . S
C9 O7 1.214 . S
O10 Cd2 2.277 . S
O10 C5 1.209 . S
C11 O8 1.258 . S
C11 O13 1.282 . S
O12 Cd4 2.277 . S
O12 C5 1.226 . S
O13 Cd4 2.356 . S
O13 C11 1.282 . S
C14 O15 1.306 . S
C14 O17 1.160 . S
O15 C14 1.306 . S
O15 Cd16 2.228 . S
Cd16 O15 2.228 . S
Cd16 O20 2.273 . S
Cd16 O24 2.277 . S
O17 C14 1.160 . S
O17 Cd18 2.203 . S
Cd18 O17 2.203 . S
Cd18 O20 2.411 . S
Cd18 O21 2.333 . S
Cd18 O22 2.352 . S
Cd18 O26 2.277 . S
Cd18 O27 2.356 . S
C19 O24 1.209 . S
C19 O26 1.226 . S
O20 Cd16 2.273 . S
O20 Cd18 2.411 . S
O20 C23 1.320 . S
O21 Cd18 2.333 . S
O21 C23 1.214 . S
O22 Cd18 2.352 . S
O22 C25 1.258 . S
C23 O20 1.320 . S
C23 O21 1.214 . S
O24 Cd16 2.277 . S
O24 C19 1.209 . S
C25 O22 1.258 . S
C25 O27 1.282 . S
O26 Cd18 2.277 . S
O26 C19 1.226 . S
O27 Cd18 2.356 . S
O27 C25 1.282 . S
C28 O29 1.306 . S
C28 O31 1.160 . S
O29 C28 1.306 . S
O29 Cd30 2.228 . S
Cd30 O29 2.228 . S
Cd30 O34 2.273 . S
Cd30 O38 2.277 . S
O31 C28 1.160 . S
O31 Cd32 2.203 . S
Cd32 O31 2.203 . S
Cd32 O34 2.411 . S
Cd32 O35 2.333 . S
Cd32 O36 2.352 . S
Cd32 O40 2.277 . S
Cd32 O41 2.356 . S
C33 O38 1.209 . S
C33 O40 1.226 . S
O34 Cd30 2.273 . S
O34 Cd32 2.411 . S
O34 C37 1.320 . S
O35 Cd32 2.333 . S
O35 C37 1.214 . S
O36 Cd32 2.352 . S
O36 C39 1.258 . S
C37 O34 1.320 . S
C37 O35 1.214 . S
O38 Cd30 2.277 . S
O38 C33 1.209 . S
C39 O36 1.258 . S
C39 O41 1.282 . S
O40 Cd32 2.277 . S
O40 C33 1.226 . S
O41 Cd32 2.356 . S
O41 C39 1.282 . S
C42 O43 1.306 . S
C42 O45 1.160 . S
O43 C42 1.306 . S
O43 Cd44 2.228 1_655 S
Cd44 O43 2.228 1_455 S
Cd44 O48 2.273 . S
Cd44 O52 2.277 . S
O45 C42 1.160 . S
O45 Cd46 2.203 1_655 S
Cd46 O45 2.203 1_455 S
Cd46 O48 2.411 . S
Cd46 O49 2.333 . S
Cd46 O50 2.352 . S
Cd46 O54 2.277 . S
Cd46 O55 2.356 . S
C47 O52 1.209 . S
C47 O54 1.226 . S
O48 Cd44 2.273 . S
O48 Cd46 2.411 . S
O48 C51 1.320 . S
O49 Cd46 2.333 . S
O49 C51 1.214 . S
O50 Cd46 2.352 . S
O50 C53 1.258 . S
C51 O48 1.320 . S
C51 O49 1.214 . S
O52 Cd44 2.277 . S
O52 C47 1.209 . S
C53 O50 1.258 . S
C53 O55 1.282 . S
O54 Cd46 2.277 . S
O54 C47 1.226 . S
O55 Cd46 2.356 . S
O55 C53 1.282 . S
C56 O57 1.306 . S
C56 O59 1.160 . S
O57 C56 1.306 . S
O57 Cd58 2.228 . S
Cd58 O57 2.228 . S
Cd58 O62 2.273 . S
Cd58 O66 2.277 . S
O59 C56 1.160 . S
O59 Cd60 2.203 . S
Cd60 O59 2.203 . S
Cd60 O62 2.411 . S
Cd60 O63 2.333 . S
Cd60 O64 2.352 . S
Cd60 O68 2.277 . S
Cd60 O69 2.356 . S
C61 O66 1.209 . S
C61 O68 1.226 . S
O62 Cd58 2.273 . S
O62 Cd60 2.411 . S
O62 C65 1.320 . S
O63 Cd60 2.333 . S
O63 C65 1.214 . S
O64 Cd60 2.352 . S
O64 C67 1.258 . S
C65 O62 1.320 . S
C65 O63 1.214 . S
O66 Cd58 2.277 . S
O66 C61 1.209 . S
C67 O64 1.258 . S
C67 O69 1.282 . S
O68 Cd60 2.277 . S
O68 C61 1.226 . S
O69 Cd60 2.356 . S
O69 C67 1.282 . S
C70 O71 1.306 . S
C70 O73 1.160 . S
O71 C70 1.306 . S
O71 Cd72 2.228 1_655 S
Cd72 O71 2.228 1_455 S
Cd72 O76 2.273 . S
Cd72 O80 2.277 . S
O73 C70 1.160 . S
O73 Cd74 2.203 1_655 S
Cd74 O73 2.203 1_455 S
Cd74 O76 2.411 . S
Cd74 O77 2.333 . S
Cd74 O78 2.352 . S
Cd74 O82 2.277 . S
Cd74 O83 2.356 . S
C75 O80 1.209 . S
C75 O82 1.226 . S
O76 Cd72 2.273 . S
O76 Cd74 2.411 . S
O76 C79 1.320 . S
O77 Cd74 2.333 . S
O77 C79 1.214 . S
O78 Cd74 2.352 . S
O78 C81 1.258 . S
C79 O76 1.320 . S
C79 O77 1.214 . S
O80 Cd72 2.277 . S
O80 C75 1.209 . S
C81 O78 1.258 . S
C81 O83 1.282 . S
O82 Cd74 2.277 . S
O82 C75 1.226 . S
O83 Cd74 2.356 . S
O83 C81 1.282 . S
C84 O85 1.306 . S
C84 O87 1.160 . S
O85 C84 1.306 . S
O85 Cd86 2.228 1_565 S
Cd86 O85 2.228 1_545 S
Cd86 O90 2.273 . S
Cd86 O94 2.277 . S
O87 C84 1.160 . S
O87 Cd88 2.203 1_565 S
Cd88 O87 2.203 1_545 S
Cd88 O90 2.411 . S
Cd88 O91 2.333 . S
Cd88 O92 2.352 . S
Cd88 O96 2.277 . S
Cd88 O97 2.356 . S
C89 O94 1.209 . S
C89 O96 1.226 . S
O90 Cd86 2.273 . S
O90 Cd88 2.411 . S
O90 C93 1.320 . S
O91 Cd88 2.333 . S
O91 C93 1.214 . S
O92 Cd88 2.352 . S
O92 C95 1.258 . S
C93 O90 1.320 . S
C93 O91 1.214 . S
O94 Cd86 2.277 . S
O94 C89 1.209 . S
C95 O92 1.258 . S
C95 O97 1.282 . S
O96 Cd88 2.277 . S
O96 C89 1.226 . S
O97 Cd88 2.356 . S
O97 C95 1.282 . S
C98 O99 1.306 . S
C98 O101 1.160 . S
O99 C98 1.306 . S
O99 Cd100 2.228 . S
Cd100 O99 2.228 . S
Cd100 O104 2.273 . S
Cd100 O108 2.277 . S
O101 C98 1.160 . S
O101 Cd102 2.203 . S
Cd102 O101 2.203 . S
Cd102 O104 2.411 . S
Cd102 O105 2.333 . S
Cd102 O106 2.352 . S
Cd102 O110 2.277 . S
Cd102 O111 2.356 . S
C103 O108 1.209 . S
C103 O110 1.226 . S
O104 Cd100 2.273 . S
O104 Cd102 2.411 . S
O104 C107 1.320 . S
O105 Cd102 2.333 . S
O105 C107 1.214 . S
O106 Cd102 2.352 . S
O106 C109 1.258 . S
C107 O104 1.320 . S
C107 O105 1.214 . S
O108 Cd100 2.277 . S
O108 C103 1.209 . S
C109 O106 1.258 . S
C109 O111 1.282 . S
O110 Cd102 2.277 . S
O110 C103 1.226 . S
O111 Cd102 2.356 . S
O111 C109 1.282 . S
H112 C124 0.930 . S
H113 C126 0.930 . S
H114 C127 0.930 . S
H115 C131 0.959 . S
H116 C131 0.959 . S
H117 C131 0.961 1_554 S
H118 C132 0.959 . S
H119 C132 0.962 1_556 S
H120 C132 0.959 1_566 S
H121 C135 0.929 . S
H122 C136 0.931 . S
H123 C138 0.930 . S
C124 H112 0.930 . S
C124 C125 1.399 . S
C124 C129 1.399 . S
C125 C124 1.399 . S
C125 C126 1.376 . S
C126 H113 0.930 . S
C126 C125 1.376 . S
C126 C127 1.388 . S
C127 H114 0.930 . S
C127 C126 1.388 . S
C127 C128 1.390 . S
C128 C127 1.390 . S
C128 C129 1.394 . S
C128 C134 1.465 1_554 S
C129 C124 1.399 . S
C129 C128 1.394 . S
C129 C130 1.514 1_554 S
C130 C129 1.514 1_556 S
C130 C131 1.502 . S
C130 C132 1.561 1_556 S
C130 C133 1.528 . S
C131 H115 0.959 . S
C131 H116 0.959 . S
C131 H117 0.961 1_556 S
C131 C130 1.502 . S
C132 H118 0.959 . S
C132 H119 0.962 1_554 S
C132 H120 0.959 1_544 S
C132 C130 1.561 1_554 S
C133 C130 1.528 . S
C133 C134 1.396 . S
C133 C138 1.390 . S
C134 C128 1.465 1_556 S
C134 C133 1.396 . S
C134 C135 1.399 . S
C135 H121 0.929 . S
C135 C134 1.399 . S
C135 C136 1.385 . S
C136 H122 0.931 . S
C136 C135 1.385 . S
C136 C137 1.389 . S
C137 C136 1.389 . S
C137 C138 1.387 . S
C138 H123 0.930 . S
C138 C133 1.390 . S
C138 C137 1.387 . S
H139 C151 0.930 . S
H140 C153 0.930 . S
H141 C154 0.930 . S
H142 C158 0.959 1_655 S
H143 C158 0.959 . S
H144 C158 0.964 . S
H145 C159 0.960 . S
H146 C159 0.961 . S
H147 C159 0.959 . S
H148 C162 0.929 . S
H149 C163 0.931 . S
H150 C165 0.930 . S
C151 H139 0.930 . S
C151 C152 1.399 . S
C151 C156 1.399 . S
C152 C151 1.399 . S
C152 C153 1.376 . S
C153 H140 0.930 . S
C153 C152 1.376 . S
C153 C154 1.388 . S
C154 H141 0.930 . S
C154 C153 1.388 . S
C154 C155 1.390 . S
C155 C154 1.390 . S
C155 C156 1.394 . S
C155 C161 1.465 . S
C156 C151 1.399 . S
C156 C155 1.394 . S
C156 C157 1.516 . S
C157 C156 1.516 . S
C157 C158 1.502 . S
C157 C159 1.561 . S
C157 C160 1.526 . S
C158 H142 0.959 1_455 S
C158 H143 0.959 . S
C158 H144 0.964 . S
C158 C157 1.502 . S
C159 H145 0.960 . S
C159 H146 0.961 . S
C159 H147 0.959 . S
C159 C157 1.561 . S
C160 C157 1.526 . S
C160 C161 1.396 . S
C160 C165 1.390 . S
C161 C155 1.465 . S
C161 C160 1.396 . S
C161 C162 1.399 . S
C162 H148 0.929 . S
C162 C161 1.399 . S
C162 C163 1.385 . S
C163 H149 0.931 . S
C163 C162 1.385 . S
C163 C164 1.389 . S
C164 C163 1.389 . S
C164 C165 1.387 . S
C165 H150 0.930 . S
C165 C160 1.390 . S
C165 C164 1.387 . S
H166 C178 0.941 . S
H167 C180 0.930 . S
H168 C181 0.930 . S
H169 C185 0.960 1_545 S
H170 C185 0.960 . S
H171 C185 0.960 1_556 S
H172 C186 0.976 . S
H173 C186 0.946 1_554 S
H174 C186 0.957 1_554 S
H175 C189 0.929 . S
H176 C190 0.931 . S
H177 C192 0.930 1_565 S
C178 H166 0.941 . S
C178 C179 1.399 . S
C178 C183 1.399 . S
C179 C178 1.399 . S
C179 C180 1.376 . S
C180 H167 0.930 . S
C180 C179 1.376 . S
C180 C181 1.388 . S
C181 H168 0.930 . S
C181 C180 1.388 . S
C181 C182 1.390 . S
C182 C181 1.390 . S
C182 C183 1.394 . S
C182 C188 1.465 1_556 S
C183 C178 1.399 . S
C183 C182 1.394 . S
C183 C184 1.523 . S
C184 C183 1.523 . S
C184 C185 1.502 1_546 S
C184 C186 1.561 1_545 S
C184 C187 1.518 1_556 S
C185 H169 0.960 1_565 S
C185 H170 0.960 . S
C185 H171 0.960 1_554 S
C185 C184 1.502 1_564 S
C186 H172 0.976 . S
C186 H173 0.946 1_556 S
C186 H174 0.957 1_556 S
C186 C184 1.561 1_565 S
C187 C184 1.518 1_554 S
C187 C188 1.396 . S
C187 C192 1.390 . S
C188 C182 1.465 1_554 S
C188 C187 1.396 . S
C188 C189 1.399 . S
C189 H175 0.929 . S
C189 C188 1.399 . S
C189 C190 1.385 . S
C190 H176 0.931 . S
C190 C189 1.385 . S
C190 C191 1.389 . S
C191 C190 1.389 . S
C191 C192 1.387 . S
C192 H177 0.930 1_545 S
C192 C187 1.390 . S
C192 C191 1.387 . S
H193 C205 0.930 . S
H194 C207 0.930 . S
H195 C208 0.930 . S
H196 C212 0.959 1_655 S
H197 C212 0.960 . S
H198 C212 0.961 1_655 S
H199 C213 0.960 . S
H200 C213 0.961 . S
H201 C213 0.959 . S
H202 C216 0.929 . S
H203 C217 0.931 . S
H204 C219 0.930 . S
C205 H193 0.930 . S
C205 C206 1.399 . S
C205 C210 1.399 . S
C206 C205 1.399 . S
C206 C207 1.376 . S
C207 H194 0.930 . S
C207 C206 1.376 . S
C207 C208 1.388 . S
C208 H195 0.930 . S
C208 C207 1.388 . S
C208 C209 1.390 . S
C209 C208 1.390 . S
C209 C210 1.394 . S
C209 C215 1.465 . S
C210 C205 1.399 . S
C210 C209 1.394 . S
C210 C211 1.516 . S
C211 C210 1.516 . S
C211 C212 1.502 . S
C211 C213 1.561 . S
C211 C214 1.526 . S
C212 H196 0.959 1_455 S
C212 H197 0.960 . S
C212 H198 0.961 1_455 S
C212 C211 1.502 . S
C213 H199 0.960 . S
C213 H200 0.961 . S
C213 H201 0.959 . S
C213 C211 1.561 . S
C214 C211 1.526 . S
C214 C215 1.396 . S
C214 C219 1.390 . S
C215 C209 1.465 . S
C215 C214 1.396 . S
C215 C216 1.399 . S
C216 H202 0.929 . S
C216 C215 1.399 . S
C216 C217 1.385 . S
C217 H203 0.931 . S
C217 C216 1.385 . S
C217 C218 1.389 . S
C218 C217 1.389 . S
C218 C219 1.387 . S
C219 H204 0.930 . S
C219 C214 1.390 . S
C219 C218 1.387 . S
H220 C232 0.930 . S
H221 C234 0.930 . S
H222 C235 0.930 . S
H223 C239 0.959 . S
H224 C239 0.959 . S
H225 C239 0.961 . S
H226 C240 0.960 . S
H227 C240 0.961 . S
H228 C240 0.959 . S
H229 C243 0.929 . S
H230 C244 0.931 . S
H231 C246 0.930 . S
C232 H220 0.930 . S
C232 C233 1.399 . S
C232 C237 1.399 . S
C233 C232 1.399 . S
C233 C234 1.376 . S
C234 H221 0.930 . S
C234 C233 1.376 . S
C234 C235 1.388 . S
C235 H222 0.930 . S
C235 C234 1.388 . S
C235 C236 1.390 . S
C236 C235 1.390 . S
C236 C237 1.394 . S
C236 C242 1.465 . S
C237 C232 1.399 . S
C237 C236 1.394 . S
C237 C238 1.516 . S
C238 C237 1.516 . S
C238 C239 1.502 . S
C238 C240 1.561 . S
C238 C241 1.526 . S
C239 H223 0.959 . S
C239 H224 0.959 . S
C239 H225 0.961 . S
C239 C238 1.502 . S
C240 H226 0.960 . S
C240 H227 0.961 . S
C240 H228 0.959 . S
C240 C238 1.561 . S
C241 C238 1.526 . S
C241 C242 1.396 . S
C241 C246 1.390 . S
C242 C236 1.465 . S
C242 C241 1.396 . S
C242 C243 1.399 . S
C243 H229 0.929 . S
C243 C242 1.399 . S
C243 C244 1.385 . S
C244 H230 0.931 . S
C244 C243 1.385 . S
C244 C245 1.389 . S
C245 C244 1.389 . S
C245 C246 1.387 . S
C246 H231 0.930 . S
C246 C241 1.390 . S
C246 C245 1.387 . S
H247 C259 0.930 . S
H248 C261 0.930 . S
H249 C262 0.930 . S
H250 C266 0.959 . S
H251 C266 0.959 . S
H252 C266 0.961 . S
H253 C267 0.960 . S
H254 C267 0.961 . S
H255 C267 0.958 . S
H256 C270 0.929 . S
H257 C271 0.931 . S
H258 C273 0.930 . S
C259 H247 0.930 . S
C259 C260 1.399 . S
C259 C264 1.399 . S
C260 C259 1.399 . S
C260 C261 1.376 . S
C261 H248 0.930 . S
C261 C260 1.376 . S
C261 C262 1.388 . S
C262 H249 0.930 . S
C262 C261 1.388 . S
C262 C263 1.390 . S
C263 C262 1.390 . S
C263 C264 1.394 . S
C263 C269 1.465 . S
C264 C259 1.399 . S
C264 C263 1.394 . S
C264 C265 1.516 . S
C265 C264 1.516 . S
C265 C266 1.502 . S
C265 C267 1.561 . S
C265 C268 1.526 . S
C266 H250 0.959 . S
C266 H251 0.959 . S
C266 H252 0.961 . S
C266 C265 1.502 . S
C267 H253 0.960 . S
C267 H254 0.961 . S
C267 H255 0.958 . S
C267 C265 1.561 . S
C268 C265 1.526 . S
C268 C269 1.396 . S
C268 C273 1.390 . S
C269 C263 1.465 . S
C269 C268 1.396 . S
C269 C270 1.399 . S
C270 H256 0.929 . S
C270 C269 1.399 . S
C270 C271 1.385 . S
C271 H257 0.931 . S
C271 C270 1.385 . S
C271 C272 1.389 . S
C272 C271 1.389 . S
C272 C273 1.387 . S
C273 H258 0.930 . S
C273 C268 1.390 . S
C273 C272 1.387 . S
H274 C286 0.930 1_565 S
H275 C288 0.930 . S
H276 C289 0.930 . S
H277 C293 0.959 . S
H278 C293 0.959 . S
H279 C293 0.961 . S
H280 C294 0.960 1_565 S
H281 C294 0.961 1_565 S
H282 C294 0.959 . S
H283 C297 0.929 . S
H284 C298 0.931 . S
H285 C300 0.930 . S
C286 H274 0.930 1_545 S
C286 C287 1.399 . S
C286 C291 1.399 . S
C287 C286 1.399 . S
C287 C288 1.376 . S
C288 H275 0.930 . S
C288 C287 1.376 . S
C288 C289 1.388 . S
C289 H276 0.930 . S
C289 C288 1.388 . S
C289 C290 1.390 . S
C290 C289 1.390 . S
C290 C291 1.394 . S
C290 C296 1.465 . S
C291 C286 1.399 . S
C291 C290 1.394 . S
C291 C292 1.516 . S
C292 C291 1.516 . S
C292 C293 1.502 1_545 S
C292 C294 1.561 . S
C292 C295 1.526 . S
C293 H277 0.959 . S
C293 H278 0.959 . S
C293 H279 0.961 . S
C293 C292 1.502 1_565 S
C294 H280 0.960 1_545 S
C294 H281 0.961 1_545 S
C294 H282 0.959 . S
C294 C292 1.561 . S
C295 C292 1.526 . S
C295 C296 1.396 . S
C295 C300 1.390 . S
C296 C290 1.465 . S
C296 C295 1.396 . S
C296 C297 1.399 . S
C297 H283 0.929 . S
C297 C296 1.399 . S
C297 C298 1.385 . S
C298 H284 0.931 . S
C298 C297 1.385 . S
C298 C299 1.389 . S
C299 C298 1.389 . S
C299 C300 1.387 . S
C300 H285 0.930 . S
C300 C295 1.390 . S
C300 C299 1.387 . S
H301 C313 0.930 . S
H302 C315 0.930 1_655 S
H303 C316 0.930 . S
H304 C320 0.959 . S
H305 C320 0.959 . S
H306 C320 0.961 . S
H307 C321 0.960 . S
H308 C321 0.961 . S
H309 C321 0.959 . S
H310 C324 0.929 . S
H311 C325 0.931 . S
H312 C327 0.930 . S
C313 H301 0.930 . S
C313 C314 1.399 . S
C313 C318 1.399 . S
C314 C313 1.399 . S
C314 C315 1.376 . S
C315 H302 0.930 1_455 S
C315 C314 1.376 . S
C315 C316 1.388 . S
C316 H303 0.930 . S
C316 C315 1.388 . S
C316 C317 1.390 . S
C317 C316 1.390 . S
C317 C318 1.394 . S
C317 C323 1.465 . S
C318 C313 1.399 . S
C318 C317 1.394 . S
C318 C319 1.516 . S
C319 C318 1.516 . S
C319 C320 1.502 . S
C319 C321 1.561 . S
C319 C322 1.526 . S
C320 H304 0.959 . S
C320 H305 0.959 . S
C320 H306 0.961 . S
C320 C319 1.502 . S
C321 H307 0.960 . S
C321 H308 0.961 . S
C321 H309 0.959 . S
C321 C319 1.561 . S
C322 C319 1.526 . S
C322 C323 1.396 . S
C322 C327 1.390 . S
C323 C317 1.465 . S
C323 C322 1.396 . S
C323 C324 1.399 . S
C324 H310 0.929 . S
C324 C323 1.399 . S
C324 C325 1.385 . S
C325 H311 0.931 . S
C325 C324 1.385 . S
C325 C326 1.389 . S
C326 C325 1.389 . S
C326 C327 1.387 . S
C327 H312 0.930 . S
C327 C322 1.390 . S
C327 C326 1.387 . S
H328 C340 0.930 . S
H329 C342 0.930 . S
H330 C343 0.930 . S
H331 C347 0.959 . S
H332 C347 0.959 . S
H333 C347 0.961 . S
H334 C348 0.960 . S
H335 C348 0.961 . S
H336 C348 0.959 . S
H337 C351 0.929 . S
H338 C352 0.931 . S
H339 C354 0.930 . S
C340 H328 0.930 . S
C340 C341 1.399 . S
C340 C345 1.399 . S
C341 C340 1.399 . S
C341 C342 1.376 . S
C342 H329 0.930 . S
C342 C341 1.376 . S
C342 C343 1.388 . S
C343 H330 0.930 . S
C343 C342 1.388 . S
C343 C344 1.390 . S
C344 C343 1.390 . S
C344 C345 1.394 . S
C344 C350 1.465 . S
C345 C340 1.399 . S
C345 C344 1.394 . S
C345 C346 1.516 . S
C346 C345 1.516 . S
C346 C347 1.502 . S
C346 C348 1.561 . S
C346 C349 1.526 . S
C347 H331 0.959 . S
C347 H332 0.959 . S
C347 H333 0.961 . S
C347 C346 1.502 . S
C348 H334 0.960 . S
C348 H335 0.961 . S
C348 H336 0.959 . S
C348 C346 1.561 . S
C349 C346 1.526 . S
C349 C350 1.396 . S
C349 C354 1.390 . S
C350 C344 1.465 . S
C350 C349 1.396 . S
C350 C351 1.399 . S
C351 H337 0.929 . S
C351 C350 1.399 . S
C351 C352 1.385 . S
C352 H338 0.931 . S
C352 C351 1.385 . S
C352 C353 1.389 . S
C353 C352 1.389 . S
C353 C354 1.387 . S
C354 H339 0.930 . S
C354 C349 1.390 . S
C354 C353 1.387 . S
H355 C367 0.930 . S
H356 C369 0.930 . S
H357 C370 0.930 . S
H358 C374 0.959 . S
H359 C374 0.959 . S
H360 C374 0.961 . S
H361 C375 0.960 . S
H362 C375 0.961 . S
H363 C375 0.959 . S
H364 C378 0.929 . S
H365 C379 0.931 . S
H366 C381 0.930 . S
C367 H355 0.930 . S
C367 C368 1.399 . S
C367 C372 1.399 . S
C368 C367 1.399 . S
C368 C369 1.376 . S
C369 H356 0.930 . S
C369 C368 1.376 . S
C369 C370 1.388 . S
C370 H357 0.930 . S
C370 C369 1.388 . S
C370 C371 1.390 . S
C371 C370 1.390 . S
C371 C372 1.394 . S
C371 C377 1.465 . S
C372 C367 1.399 . S
C372 C371 1.394 . S
C372 C373 1.516 . S
C373 C372 1.516 . S
C373 C374 1.502 . S
C373 C375 1.561 . S
C373 C376 1.526 . S
C374 H358 0.959 . S
C374 H359 0.959 . S
C374 H360 0.961 . S
C374 C373 1.502 . S
C375 H361 0.960 . S
C375 H362 0.961 . S
C375 H363 0.959 . S
C375 C373 1.561 . S
C376 C373 1.526 . S
C376 C377 1.396 . S
C376 C381 1.390 . S
C377 C371 1.465 . S
C377 C376 1.396 . S
C377 C378 1.399 . S
C378 H364 0.929 . S
C378 C377 1.399 . S
C378 C379 1.385 . S
C379 H365 0.931 . S
C379 C378 1.385 . S
C379 C380 1.389 . S
C380 C379 1.389 . S
C380 C381 1.387 . S
C381 H366 0.930 . S
C381 C376 1.390 . S
C381 C380 1.387 . S
H382 C394 0.930 . S
H383 C396 0.930 . S
H384 C397 0.930 . S
H385 C401 0.959 . S
H386 C401 0.959 . S
H387 C401 0.961 . S
H388 C402 0.960 . S
H389 C402 0.961 . S
H390 C402 0.959 . S
H391 C405 0.929 . S
H392 C406 0.931 . S
H393 C408 0.930 . S
C394 H382 0.930 . S
C394 C395 1.399 . S
C394 C399 1.399 . S
C395 C394 1.399 . S
C395 C396 1.376 . S
C396 H383 0.930 . S
C396 C395 1.376 . S
C396 C397 1.388 . S
C397 H384 0.930 . S
C397 C396 1.388 . S
C397 C398 1.390 . S
C398 C397 1.390 . S
C398 C399 1.394 . S
C398 C404 1.465 . S
C399 C394 1.399 . S
C399 C398 1.394 . S
C399 C400 1.516 . S
C400 C399 1.516 . S
C400 C401 1.502 . S
C400 C402 1.561 . S
C400 C403 1.526 . S
C401 H385 0.959 . S
C401 H386 0.959 . S
C401 H387 0.961 . S
C401 C400 1.502 . S
C402 H388 0.960 . S
C402 H389 0.961 . S
C402 H390 0.959 . S
C402 C400 1.561 . S
C403 C400 1.526 . S
C403 C404 1.396 . S
C403 C408 1.390 . S
C404 C398 1.465 . S
C404 C403 1.396 . S
C404 C405 1.399 . S
C405 H391 0.929 . S
C405 C404 1.399 . S
C405 C406 1.385 . S
C406 H392 0.931 . S
C406 C405 1.385 . S
C406 C407 1.389 . S
C407 C406 1.389 . S
C407 C408 1.387 . S
C408 H393 0.930 . S
C408 C403 1.390 . S
C408 C407 1.387 . S
H409 C421 0.930 . S
H410 C423 0.930 . S
H411 C424 0.930 . S
H412 C428 0.959 . S
H413 C428 0.959 . S
H414 C428 0.961 . S
H415 C429 0.960 . S
H416 C429 0.961 . S
H417 C429 0.959 . S
H418 C432 0.929 . S
H419 C433 0.931 . S
H420 C435 0.930 . S
C421 H409 0.930 . S
C421 C422 1.399 . S
C421 C426 1.399 . S
C422 C421 1.399 . S
C422 C423 1.376 . S
C423 H410 0.930 . S
C423 C422 1.376 . S
C423 C424 1.388 . S
C424 H411 0.930 . S
C424 C423 1.388 . S
C424 C425 1.390 . S
C425 C424 1.390 . S
C425 C426 1.394 . S
C425 C431 1.465 . S
C426 C421 1.399 . S
C426 C425 1.394 . S
C426 C427 1.516 . S
C427 C426 1.516 . S
C427 C428 1.502 . S
C427 C429 1.561 . S
C427 C430 1.526 . S
C428 H412 0.959 . S
C428 H413 0.959 . S
C428 H414 0.961 . S
C428 C427 1.502 . S
C429 H415 0.960 . S
C429 H416 0.961 . S
C429 H417 0.959 . S
C429 C427 1.561 . S
C430 C427 1.526 . S
C430 C431 1.396 . S
C430 C435 1.390 . S
C431 C425 1.465 . S
C431 C430 1.396 . S
C431 C432 1.399 . S
C432 H418 0.929 . S
C432 C431 1.399 . S
C432 C433 1.385 . S
C433 H419 0.931 . S
C433 C432 1.385 . S
C433 C434 1.389 . S
C434 C433 1.389 . S
C434 C435 1.387 . S
C435 H420 0.930 . S
C435 C430 1.390 . S
C435 C434 1.387 . S
H436 C448 0.930 . S
H437 C450 0.930 . S
H438 C451 0.930 . S
H439 C455 0.959 . S
H440 C455 0.959 . S
H441 C455 0.961 . S
H442 C456 0.960 . S
H443 C456 0.961 . S
H444 C456 0.959 . S
H445 C459 0.929 . S
H446 C460 0.931 . S
H447 C462 0.930 . S
C448 H436 0.930 . S
C448 C449 1.399 . S
C448 C453 1.399 . S
C449 C448 1.399 . S
C449 C450 1.376 . S
C450 H437 0.930 . S
C450 C449 1.376 . S
C450 C451 1.388 . S
C451 H438 0.930 . S
C451 C450 1.388 . S
C451 C452 1.390 . S
C452 C451 1.390 . S
C452 C453 1.394 . S
C452 C458 1.465 . S
C453 C448 1.399 . S
C453 C452 1.394 . S
C453 C454 1.516 . S
C454 C453 1.516 . S
C454 C455 1.502 . S
C454 C456 1.561 . S
C454 C457 1.526 . S
C455 H439 0.959 . S
C455 H440 0.959 . S
C455 H441 0.961 . S
C455 C454 1.502 . S
C456 H442 0.960 . S
C456 H443 0.961 . S
C456 H444 0.959 . S
C456 C454 1.561 . S
C457 C454 1.526 . S
C457 C458 1.396 . S
C457 C462 1.390 . S
C458 C452 1.465 . S
C458 C457 1.396 . S
C458 C459 1.399 . S
C459 H445 0.929 . S
C459 C458 1.399 . S
C459 C460 1.385 . S
C460 H446 0.931 . S
C460 C459 1.385 . S
C460 C461 1.389 . S
C461 C460 1.389 . S
C461 C462 1.387 . S
C462 H447 0.930 . S
C462 C457 1.390 . S
C462 C461 1.387 . S
H463 C475 0.930 . S
H464 C477 0.930 . S
H465 C478 0.930 . S
H466 C482 0.959 . S
H467 C482 0.959 . S
H468 C482 0.961 . S
H469 C483 0.960 . S
H470 C483 0.961 . S
H471 C483 0.959 . S
H472 C486 0.929 . S
H473 C487 0.931 . S
H474 C489 0.930 . S
C475 H463 0.930 . S
C475 C476 1.399 . S
C475 C480 1.399 . S
C476 C475 1.399 . S
C476 C477 1.376 . S
C477 H464 0.930 . S
C477 C476 1.376 . S
C477 C478 1.388 . S
C478 H465 0.930 . S
C478 C477 1.388 . S
C478 C479 1.390 . S
C479 C478 1.390 . S
C479 C480 1.394 . S
C479 C485 1.465 . S
C480 C475 1.399 . S
C480 C479 1.394 . S
C480 C481 1.516 . S
C481 C480 1.516 . S
C481 C482 1.502 . S
C481 C483 1.561 . S
C481 C484 1.526 . S
C482 H466 0.959 . S
C482 H467 0.959 . S
C482 H468 0.961 . S
C482 C481 1.502 . S
C483 H469 0.960 . S
C483 H470 0.961 . S
C483 H471 0.959 . S
C483 C481 1.561 . S
C484 C481 1.526 . S
C484 C485 1.396 . S
C484 C489 1.390 . S
C485 C479 1.465 . S
C485 C484 1.396 . S
C485 C486 1.399 . S
C486 H472 0.929 . S
C486 C485 1.399 . S
C486 C487 1.385 . S
C487 H473 0.931 . S
C487 C486 1.385 . S
C487 C488 1.389 . S
C488 C487 1.389 . S
C488 C489 1.387 . S
C489 H474 0.930 . S
C489 C484 1.390 . S
C489 C488 1.387 . S
H490 C502 0.930 . S
H491 C504 0.930 . S
H492 C505 0.930 . S
H493 C509 0.959 . S
H494 C509 0.959 . S
H495 C509 0.961 . S
H496 C510 0.960 . S
H497 C510 0.961 . S
H498 C510 0.959 . S
H499 C513 0.929 . S
H500 C514 0.931 . S
H501 C516 0.930 . S
C502 H490 0.930 . S
C502 C503 1.399 . S
C502 C507 1.399 . S
C503 C502 1.399 . S
C503 C504 1.376 . S
C504 H491 0.930 . S
C504 C503 1.376 . S
C504 C505 1.388 . S
C505 H492 0.930 . S
C505 C504 1.388 . S
C505 C506 1.390 . S
C506 C505 1.390 . S
C506 C507 1.394 . S
C506 C512 1.465 . S
C507 C502 1.399 . S
C507 C506 1.394 . S
C507 C508 1.516 . S
C508 C507 1.516 . S
C508 C509 1.502 . S
C508 C510 1.561 . S
C508 C511 1.526 . S
C509 H493 0.959 . S
C509 H494 0.959 . S
C509 H495 0.961 . S
C509 C508 1.502 . S
C510 H496 0.960 . S
C510 H497 0.961 . S
C510 H498 0.959 . S
C510 C508 1.561 . S
C511 C508 1.526 . S
C511 C512 1.396 . S
C511 C516 1.390 . S
C512 C506 1.465 . S
C512 C511 1.396 . S
C512 C513 1.399 . S
C513 H499 0.929 . S
C513 C512 1.399 . S
C513 C514 1.385 . S
C514 H500 0.931 . S
C514 C513 1.385 . S
C514 C515 1.389 . S
C515 C514 1.389 . S
C515 C516 1.387 . S
C516 H501 0.930 . S
C516 C511 1.390 . S
C516 C515 1.387 . S
H517 C529 0.930 . S
H518 C531 0.930 . S
H519 C532 0.930 . S
H520 C536 0.959 . S
H521 C536 0.959 . S
H522 C536 0.961 . S
H523 C537 0.960 . S
H524 C537 0.961 . S
H525 C537 0.959 . S
H526 C540 0.929 . S
H527 C541 0.931 . S
H528 C543 0.930 . S
C529 H517 0.930 . S
C529 C530 1.399 . S
C529 C534 1.399 . S
C530 C529 1.399 . S
C530 C531 1.376 . S
C531 H518 0.930 . S
C531 C530 1.376 . S
C531 C532 1.388 . S
C532 H519 0.930 . S
C532 C531 1.388 . S
C532 C533 1.390 . S
C533 C532 1.390 . S
C533 C534 1.394 . S
C533 C539 1.465 . S
C534 C529 1.399 . S
C534 C533 1.394 . S
C534 C535 1.516 . S
C535 C534 1.516 . S
C535 C536 1.502 . S
C535 C537 1.561 . S
C535 C538 1.526 . S
C536 H520 0.959 . S
C536 H521 0.959 . S
C536 H522 0.961 . S
C536 C535 1.502 . S
C537 H523 0.960 . S
C537 H524 0.961 . S
C537 H525 0.959 . S
C537 C535 1.561 . S
C538 C535 1.526 . S
C538 C539 1.396 . S
C538 C543 1.390 . S
C539 C533 1.465 . S
C539 C538 1.396 . S
C539 C540 1.399 . S
C540 H526 0.929 . S
C540 C539 1.399 . S
C540 C541 1.385 . S
C541 H527 0.931 . S
C541 C540 1.385 . S
C541 C542 1.389 . S
C542 C541 1.389 . S
C542 C543 1.387 . S
C543 H528 0.930 . S
C543 C538 1.390 . S
C543 C542 1.387 . S
C125 C9 1.574 . S
C137 C65 1.582 . S
C152 C23 1.574 . S
C164 C79 1.582 . S
C179 C93 1.582 . S
C191 C37 1.569 . S
C206 C107 1.573 . S
C218 C51 1.582 . S
C233 C11 1.261 . S
C245 C39 1.276 . S
C260 C25 1.246 . S
C272 C53 1.288 . S
C287 C95 1.221 . S
C299 C67 1.300 . S
C314 C81 1.280 . S
C326 C109 1.230 . S
C341 C75 1.517 . S
C353 C5 1.531 . S
C368 C19 1.518 1_655 S
C380 C89 1.533 . S
C395 C103 1.519 1_655 S
C407 C33 1.534 1_565 S
C422 C47 1.535 . S
C434 C61 1.522 1_565 S
C449 C84 1.063 . S
C461 C42 1.151 . S
C476 C0 1.157 . S
C488 C98 1.078 . S
C503 C14 1.049 . S
C515 C56 1.114 . S
C530 C70 1.049 . S
C542 C28 1.113 . S
