# Generated by pormake.
# Topology sxc, (6)-cn, num edge types: 1
# Building blocks:
#     Node 0, Type 0, BuildingBlock: KUMJIN_clean_sbu_1, # of connection points: 6
#     Node 1, Type 0, BuildingBlock: KUMJIN_clean_sbu_1, # of connection points: 6
#     Node 2, Type 0, BuildingBlock: KUMJIN_clean_sbu_1, # of connection points: 6
#     Edge 3, Type (0, 0), BuildingBlock: TEMPAE_clean_linker_10, # of connection points: 2
#     Edge 4, Type (0, 0), BuildingBlock: TEMPAE_clean_linker_10, # of connection points: 2
#     Edge 5, Type (0, 0), BuildingBlock: TEMPAE_clean_linker_10, # of connection points: 2
#     Edge 6, Type (0, 0), BuildingBlock: TEMPAE_clean_linker_10, # of connection points: 2
#     Edge 7, Type (0, 0), BuildingBlock: TEMPAE_clean_linker_10, # of connection points: 2
#     Edge 8, Type (0, 0), BuildingBlock: TEMPAE_clean_linker_10, # of connection points: 2
#     Edge 9, Type (0, 0), BuildingBlock: TEMPAE_clean_linker_10, # of connection points: 2
#     Edge 10, Type (0, 0), BuildingBlock: TEMPAE_clean_linker_10, # of connection points: 2
#     Edge 11, Type (0, 0), BuildingBlock: TEMPAE_clean_linker_10, # of connection points: 2
# Relax obj value: 0.256
# Max RMSD: 0.160
# Mean RMSD: 0.117
data_MOF--net-sxc--node1-KUMJIN_clean_sbu_1--edge1-TEMPAE_clean_linker_10
_symmetry_space_group_name_H-M    P1
_symmetry_Int_Tables_number       1
_symmetry_cell_setting            triclinic
loop_
_symmetry_equiv_pos_as_xyz
'x, y, z'
_cell_length_a     15.873006
_cell_length_b     17.61839
_cell_length_c     45.398713
_cell_angle_alpha  110.17565
_cell_angle_beta   98.769598
_cell_angle_gamma 98.391615
loop_
_atom_site_label
_atom_site_type_symbol
_atom_site_fract_x
_atom_site_fract_y
_atom_site_fract_z
_atom_type_partial_charge
Eu0 Eu 0.97134 0.14914 -0.00265 0.0
C1 C 0.30522 1.05549 0.01948 0.0
N2 N 0.27812 0.11298 0.04277 0.0
C3 C 0.32501 1.05302 0.08079 0.0
C4 C 0.33443 0.98911 0.02518 0.0
C5 C 0.29383 0.11656 0.07379 0.0
C6 C 0.34289 0.98771 0.05617 0.0
C7 C 0.3317 1.00519 0.96563 0.0
C8 C 0.30215 1.06294 0.98986 0.0
C9 C 0.3541 0.93521 0.97027 0.0
C10 C 0.35461 0.92689 -8e-05 0.0
Eu11 Eu 0.21519 0.21128 0.02733 0.0
N12 N 0.27756 0.13015 0.98575 0.0
C13 C 0.34088 1.0212 0.93803 0.0
C14 C 0.29868 0.15166 0.96114 0.0
C15 C 0.32753 0.09631 0.93636 0.0
H16 H 0.27703 0.16572 0.09247 0.0
H17 H 0.33972 0.11181 0.91608 0.0
H18 H 0.94083 0.11932 0.91842 0.0
H19 H 0.84243 0.35418 0.09274 0.0
H20 H 0.29197 0.21097 0.96017 0.0
H21 H 0.36274 0.9783 0.91873 0.0
H22 H 0.92534 0.2494 0.06997 0.0
H23 H 0.33359 1.05355 0.10498 0.0
H24 H 0.37352 0.88841 0.95146 0.0
H25 H 0.3724 0.87306 0.0033 0.0
H26 H 0.86801 0.17602 0.88141 0.0
H27 H 0.36515 0.93764 0.06151 0.0
H28 H 0.76237 0.41376 0.05811 0.0
N29 N 0.90553 0.1991 0.95954 0.0
C30 C 0.85564 0.25504 0.97071 0.0
C31 C 0.86501 0.1996 0.90654 0.0
C32 C 0.8107 0.28738 0.9501 0.0
C33 C 0.90822 0.16907 0.92776 0.0
C34 C 0.81659 0.25945 0.91778 0.0
N35 N 0.89756 0.25209 0.02302 0.0
C36 C 0.89344 0.27626 0.05464 0.0
C37 C 0.80194 0.3416 0.0153 0.0
C38 C 0.85117 0.28187 0.00316 0.0
C39 C 0.79959 0.36813 0.04792 0.0
C40 C 0.84513 0.335 0.0676 0.0
H41 H 0.783 0.28282 0.90123 0.0
H42 H 0.72686 0.37209 0.94675 0.0
H43 H 0.71923 0.41949 0.0037 0.0
O44 O 0.85306 0.0918 0.00783 0.0
O45 O 1.02447 0.2967 0.0054 0.0
O46 O 0.17421 0.33481 0.02155 0.0
O47 O 0.87274 1.05349 0.9588 0.0
O48 O 1.01798 0.15258 0.04782 0.0
O49 O 0.13784 0.25654 0.06493 0.0
O50 O 0.35211 0.26063 0.03158 0.0
O51 O 0.15162 0.07544 0.02917 0.0
O52 O 1.01895 1.02271 -0.00523 0.0
O53 O 0.29588 0.30239 0.07311 0.0
O54 O 0.15911 0.22001 0.97971 0.0
O55 O 1.0544 0.10418 0.96172 0.0
C56 C 0.09803 0.35732 0.01388 0.0
C57 C 0.72838 1.01729 0.96492 0.0
C58 C 0.59746 0.91403 0.95532 0.0
C59 C 0.55406 0.94278 0.93338 0.0
C60 C 0.68463 1.04723 0.9434 0.0
C61 C 0.59724 1.01033 0.92791 0.0
C62 C 0.68396 0.95219 0.97124 0.0
C63 C 0.07903 0.20811 0.0712 0.0
C64 C 0.82264 1.04286 0.97782 0.0
C65 C 0.76156 0.34654 0.96226 0.0
C66 C 0.75717 0.3735 -0.00529 0.0
C67 C 0.08664 1.00771 0.01207 0.0
C68 C 0.41466 0.39526 0.0696 0.0
C69 C 0.47994 0.5057 0.05397 0.0
C70 C 0.52203 0.55142 0.08633 0.0
C71 C 0.4571 0.44182 0.1017 0.0
C72 C 0.42545 0.42783 0.04581 0.0
C73 C 0.51026 0.51969 0.11 0.0
C74 C 0.10772 0.15746 0.9557 0.0
C75 C 0.36469 0.31086 0.06126 0.0
H76 H 0.48758 0.91288 0.92049 0.0
H77 H 0.71837 0.09703 0.93794 0.0
H78 H 0.56364 1.03271 0.91104 0.0
H79 H 0.71824 0.92814 0.98748 0.0
H80 H 0.56307 0.61234 0.09342 0.0
H81 H 0.4499 0.41744 0.12028 0.0
H82 H 0.39318 0.39204 0.02091 0.0
H83 H 0.54282 0.5554 0.13483 0.0
Eu84 Eu 0.12299 0.09581 0.33369 0.0
C85 C 0.37338 0.42587 0.41788 0.0
N86 N 0.29817 0.38574 0.4217 0.0
C87 C 0.36575 0.41214 0.47632 0.0
C88 C 0.44899 0.45752 0.44289 0.0
C89 C 0.29226 0.38278 0.45099 0.0
C90 C 0.44488 0.44844 0.47209 0.0
C91 C 0.44985 0.48217 0.38498 0.0
C92 C 0.37402 0.43829 0.3893 0.0
C93 C 0.52587 0.51144 0.40945 0.0
C94 C 0.52551 0.49897 0.43829 0.0
Eu95 Eu 0.17893 0.33623 0.3766 0.0
N96 N 0.30068 0.40627 0.36545 0.0
C97 C 0.44714 0.49447 0.35599 0.0
C98 C 0.29676 0.41977 0.3375 0.0
C99 C 0.3701 0.46351 0.33223 0.0
H100 H 0.23056 0.36048 0.4554 0.0
H101 H 0.36717 0.47338 0.30988 0.0
H102 H 1.00755 1.06538 0.26141 0.0
H103 H 1.02987 0.97049 0.42222 0.0
H104 H 0.23701 0.39684 0.31927 0.0
H105 H 0.50405 0.52779 0.35173 0.0
H106 H 0.13221 1.02087 0.39402 0.0
H107 H 0.36085 0.40819 0.49929 0.0
H108 H 0.58513 0.54421 0.40638 0.0
H109 H 0.58435 0.52293 0.45712 0.0
H110 H 0.85537 1.00778 0.22969 0.0
H111 H 0.50149 0.47188 0.49188 0.0
H112 H 0.87083 0.93994 0.40037 0.0
N113 N 0.97889 1.04551 0.30268 0.0
C114 C 0.91901 1.01157 0.31555 0.0
C115 C 0.87222 1.00938 0.25394 0.0
C116 C 0.83129 0.98028 0.29881 0.0
C117 C 0.95795 1.04209 0.27188 0.0
C118 C 0.8083 0.97942 0.26763 0.0
N119 N 1.03265 1.03218 0.35967 0.0
C120 C 0.06317 1.01329 0.3855 0.0
C121 C 0.88513 0.97453 0.35973 0.0
C122 C 0.94613 1.00791 0.34547 0.0
C123 C 0.91555 0.96516 0.3886 0.0
C124 C 1.00523 0.98253 0.40106 0.0
H125 H 0.74169 0.95516 0.25385 0.0
H126 H 0.7016 0.9283 0.30147 0.0
H127 H 0.74856 0.92404 0.35499 0.0
O128 O 0.16262 1.02841 0.28961 0.0
O129 O 1.01026 0.16769 0.33207 0.0
O130 O 1.04648 0.27187 0.38103 0.0
O131 O 0.13415 0.96703 0.32173 0.0
O132 O 0.19182 0.14486 0.3867 0.0
O133 O 0.13697 0.26117 0.40545 0.0
O134 O 0.11136 0.42212 0.3628 0.0
O135 O 0.29039 0.27621 0.35596 0.0
O136 O 0.26955 0.1467 0.35825 0.0
O137 O 0.17233 0.4539 0.4127 0.0
O138 O 0.11542 0.28781 0.32313 0.0
O139 O 0.16846 0.1702 0.3052 0.0
C140 C 0.98543 0.21848 0.35667 0.0
C141 C 0.08504 0.88978 0.26553 0.0
C142 C 0.95762 0.77556 0.24446 0.0
C143 C 0.96769 0.76205 0.21307 0.0
C144 C 0.09393 0.87629 0.23389 0.0
C145 C 1.03522 0.81305 0.20784 0.0
C146 C 1.01581 0.83955 0.27051 0.0
C147 C 0.16884 0.20065 0.41009 0.0
C148 C 0.14594 0.95781 0.29301 0.0
C149 C 0.76975 0.95076 0.31362 0.0
C150 C 0.79649 0.94862 0.34415 0.0
C151 C 0.32211 0.21159 0.35753 0.0
C152 C 1.03572 0.48861 0.40128 0.0
C153 C 0.9037 0.53768 0.38976 0.0
C154 C 0.86823 0.50858 0.41126 0.0
C155 C 1.00048 0.46055 0.42324 0.0
C156 C 0.98732 0.52778 0.38502 0.0
C157 C 0.91738 0.47123 0.42833 0.0
C158 C 0.13484 0.22891 0.29977 0.0
C159 C 0.11844 0.47116 0.3925 0.0
H160 H 0.92443 0.71155 0.19282 0.0
H161 H 0.1462 0.91468 0.22933 0.0
H162 H 1.04291 0.80278 0.18357 0.0
H163 H 1.00805 0.84837 0.29472 0.0
H164 H 0.80342 0.51521 0.41493 0.0
H165 H 1.0361 0.42901 0.43593 0.0
H166 H 1.01374 0.54835 0.36769 0.0
H167 H 0.89058 0.44941 0.4452 0.0
Eu168 Eu 0.16145 0.22689 0.70055 0.0
C169 C 0.24336 0.88503 0.62536 0.0
N170 N 0.19872 0.93779 0.61711 0.0
C171 C 0.26722 0.92275 0.57245 0.0
C172 C 0.30364 0.85075 0.60768 0.0
C173 C 0.20789 0.95487 0.59054 0.0
C174 C 0.31584 0.871 0.58119 0.0
C175 C 0.27536 0.8115 0.66084 0.0
C176 C 0.2298 0.86609 0.65194 0.0
C177 C 0.33557 0.77778 0.64331 0.0
C178 C 0.34979 0.79748 0.61688 0.0
Eu179 Eu 0.10007 0.98765 0.64943 0.0
N180 N 0.17216 0.90059 0.66897 0.0
C181 C 0.25859 0.7917 0.687 0.0
C182 C 0.15265 0.87828 0.69353 0.0
C183 C 0.19637 0.82459 0.70318 0.0
H184 H 0.16827 0.99142 0.58269 0.0
H185 H 0.18128 0.80783 0.72288 0.0
H186 H 0.13991 0.24802 0.77465 0.0
H187 H 0.97584 0.3281 0.61333 0.0
H188 H 0.10211 0.90004 0.70546 0.0
H189 H 0.29215 0.74991 0.69451 0.0
H190 H 0.1014 0.28516 0.63637 0.0
H191 H 0.27465 0.9372 0.55154 0.0
H192 H 0.37138 0.73613 0.64995 0.0
H193 H 0.39652 0.77091 0.60362 0.0
H194 H 1.0369 0.29091 0.80985 0.0
H195 H 0.36166 0.84607 0.56706 0.0
H196 H 0.85822 0.35796 0.64268 0.0
N197 N 0.06912 0.27051 0.73606 0.0
C198 C 1.00292 0.30286 0.72588 0.0
C199 C 1.02622 0.29392 0.78622 0.0
C200 C 0.9421 0.3271 0.74499 0.0
C201 C 0.08377 0.26881 0.76616 0.0
C202 C 0.95446 0.32229 0.77546 0.0
N203 N 1.05244 0.28153 0.67718 0.0
C204 C 1.04931 0.29374 0.64894 0.0
C205 C 0.9206 0.33311 0.68325 0.0
C206 C 0.99282 0.30603 0.69528 0.0
C207 C 0.9131 0.33818 0.65292 0.0
C208 C 0.97892 0.32051 0.63611 0.0
H209 H 0.90899 0.34018 0.79081 0.0
H210 H 0.82075 0.36919 0.74666 0.0
H211 H 0.80079 0.37178 0.69254 0.0
O212 O 0.21124 0.35791 0.71199 0.0
O213 O 1.02539 0.15142 0.69819 0.0
O214 O 0.98982 1.05925 0.64688 0.0
O215 O 0.25754 0.30167 0.74505 0.0
O216 O 0.18273 0.19334 0.64956 0.0
O217 O 0.08436 1.06932 0.6207 0.0
O218 O 0.99205 0.89302 0.6478 0.0
O219 O 0.24997 1.04129 0.66949 0.0
O220 O 0.27744 0.1816 0.67961 0.0
O221 O 1.03352 0.88797 0.60395 0.0
O222 O 0.08636 1.02902 0.70157 0.0
O223 O 0.20099 0.14041 0.72472 0.0
C224 C 0.96474 0.10564 0.6722 0.0
C225 C 0.35507 0.41453 0.74362 0.0
C226 C 0.47121 0.47924 0.72495 0.0
C227 C 0.52334 0.50999 0.75628 0.0
C228 C 0.40798 0.44605 0.77471 0.0
C229 C 0.49186 0.49319 0.78092 0.0
C230 C 0.38729 0.43054 0.71865 0.0
C231 C 0.13756 0.13573 0.62215 0.0
C232 C 0.26567 0.36802 0.73826 0.0
C233 C 0.86944 0.35229 0.73269 0.0
C234 C 0.85824 0.35416 0.70181 0.0
C235 C 0.30483 0.11136 0.67443 0.0
C236 C 0.9692 0.76103 0.60676 0.0
C237 C 0.87804 0.63185 0.60193 0.0
C238 C 0.9414 0.58912 0.59013 0.0
C239 C 1.03179 0.71774 0.59454 0.0
C240 C 0.89212 0.71758 0.60989 0.0
C241 C 1.01751 0.63197 0.58614 0.0
C242 C 0.14527 0.08093 0.72689 0.0
C243 C 0.98223 0.85138 0.6171 0.0
H244 H 0.58889 0.54642 0.76165 0.0
H245 H 0.38413 0.43452 0.79423 0.0
H246 H 0.53246 0.51712 0.80495 0.0
H247 H 0.34677 0.40676 0.69458 0.0
H248 H 0.93232 0.52306 0.58438 0.0
H249 H 0.09163 0.74997 0.59171 0.0
H250 H 0.84444 0.7512 0.61984 0.0
H251 H 0.06616 0.59883 0.57699 0.0
C252 C 1.0193 0.48141 0.00369 0.0
C253 C 0.09563 0.4533 0.01405 0.0
C254 C 1.01635 0.56614 0.00394 0.0
C255 C 0.09201 0.63535 0.01437 0.0
C256 C 0.16925 0.60749 0.02527 0.0
C257 C 0.16985 0.52234 0.02498 0.0
C258 C 0.92738 0.58021 0.99336 0.0
C259 C 0.25519 0.66891 0.03834 0.0
C260 C 1.05865 0.83513 0.98556 0.0
C261 C 0.08849 0.91277 0.01287 0.0
C262 C 0.06135 0.75062 0.98553 0.0
C263 C 0.0906 0.73198 0.014 0.0
C264 C 0.11837 0.8105 0.04192 0.0
C265 C 0.11921 0.89448 0.04082 0.0
C266 C 1.03277 0.68041 0.95329 0.0
C267 C 0.14567 0.8086 0.07481 0.0
H268 H 0.95841 0.436 -0.00486 0.0
H269 H 0.2316 0.51031 0.03402 0.0
H270 H 0.92536 0.64682 0.00149 0.0
H271 H 0.90788 0.55213 0.96672 0.0
H272 H 0.87818 0.54879 0.00273 0.0
H273 H 0.31043 0.6379 0.03432 0.0
H274 H 0.25874 0.71679 0.02759 0.0
H275 H 0.2642 0.69964 0.06474 0.0
H276 H 1.03397 0.83985 0.9628 0.0
H277 H 0.14247 0.94744 0.06325 0.0
H278 H 0.96042 0.66333 0.94681 0.0
H279 H 1.05843 0.62499 0.9531 0.0
H280 H 1.05461 0.69989 0.93438 0.0
H281 H 0.11678 0.85259 0.09235 0.0
H282 H 0.21762 0.82978 0.08294 0.0
H283 H 0.12574 0.7462 0.07538 0.0
C284 C 0.47391 0.27316 0.35153 0.0
C285 C 0.41939 0.21095 0.35714 0.0
C286 C 0.56446 0.27528 0.35184 0.0
C287 C 0.60448 0.21213 0.3569 0.0
C288 C 0.54947 0.14777 0.36175 0.0
C289 C 0.45929 0.14823 0.36205 0.0
C290 C 0.61785 0.34634 0.34698 0.0
C291 C 0.58614 0.07768 0.36666 0.0
C292 C 0.82242 0.18047 0.32819 0.0
C293 C 0.88798 0.21725 0.35671 0.0
C294 C 0.7317 0.17726 0.32794 0.0
C295 C 0.70271 0.21333 0.3569 0.0
C296 C 0.7688 0.25173 0.38576 0.0
C297 C 0.85904 0.25302 0.38533 0.0
C298 C 0.66639 0.13419 0.29638 0.0
C299 C 0.74432 0.29284 0.41738 0.0
H300 H 0.44546 0.32044 0.34641 0.0
H301 H 0.41982 0.09879 0.36614 0.0
H302 H 0.66841 0.38319 0.36919 0.0
H303 H 0.65216 0.32278 0.32724 0.0
H304 H 0.57749 0.38792 0.34125 0.0
H305 H 0.536 1.03122 0.36949 0.0
H306 H 0.61405 1.04622 0.34587 0.0
H307 H 0.64007 0.10235 0.38836 0.0
H308 H 0.84216 0.15449 0.30568 0.0
H309 H 0.9073 0.28199 0.40776 0.0
H310 H 0.6238 0.17591 0.29235 0.0
H311 H 0.62379 0.07926 0.29708 0.0
H312 H 0.69826 0.11352 0.27568 0.0
H313 H 0.72127 0.34943 0.41748 0.0
H314 H 0.80017 0.31056 0.43815 0.0
H315 H 0.68998 0.25129 0.42063 0.0
C316 C 0.71756 0.59728 0.59882 0.0
C317 C 0.80239 0.59042 0.61004 0.0
C318 C 0.6477 0.57177 0.61131 0.0
C319 C 0.66427 0.54145 0.63624 0.0
C320 C 0.74937 0.53168 0.64663 0.0
C321 C 0.81713 0.55496 0.63301 0.0
C322 C 0.5579 0.58251 0.59934 0.0
C323 C 0.77013 0.50225 0.67383 0.0
C324 C 0.54974 0.57832 0.70503 0.0
C325 C 0.50564 0.49784 0.69907 0.0
C326 C 0.59489 0.59495 0.683 0.0
C327 C 0.59691 0.52915 0.65453 0.0
C328 C 0.54622 0.44915 0.64709 0.0
C329 C 0.50033 0.43457 0.6694 0.0
C330 C 0.64646 0.68162 0.69155 0.0
C331 C 0.54599 0.37764 0.61684 0.0
H332 H 0.70656 0.62524 0.5811 0.0
H333 H 0.88303 0.55093 0.64198 0.0
H334 H 0.50678 0.52991 0.59752 0.0
H335 H 0.54545 0.63977 0.6166 0.0
H336 H 0.55158 0.58796 0.57547 0.0
H337 H 0.83853 0.49448 0.67806 0.0
H338 H 0.76022 0.54757 0.69636 0.0
H339 H 0.72485 0.44269 0.66853 0.0
H340 H 0.55163 0.62785 0.72756 0.0
H341 H 0.46495 0.37252 0.66448 0.0
H342 H 0.63516 0.70103 0.67075 0.0
H343 H 0.71721 0.68299 0.69775 0.0
H344 H 0.62924 0.7274 0.71234 0.0
H345 H 0.53721 0.39616 0.59575 0.0
H346 H 0.49373 0.32299 0.61228 0.0
H347 H 0.60981 0.35908 0.61911 0.0
C348 C 0.80351 0.08158 0.6436 0.0
C349 C 0.86755 0.10509 0.67221 0.0
C350 C 0.71356 0.08325 0.64368 0.0
C351 C 0.68391 0.10829 0.67303 0.0
C352 C 0.74841 0.13156 0.70194 0.0
C353 C 0.83775 0.12945 0.70116 0.0
C354 C 0.64986 1.05869 0.61207 0.0
C355 C 0.72311 0.15938 0.73407 0.0
C356 C 0.46189 0.1812 0.67598 0.0
C357 C 0.40213 0.11106 0.67426 0.0
C358 C 0.55211 0.18143 0.67584 0.0
C359 C 0.58638 0.10952 0.67353 0.0
C360 C 0.52651 1.03881 0.67201 0.0
C361 C 0.43694 1.0406 0.67254 0.0
C362 C 0.61085 0.25935 0.67795 0.0
C363 C 0.55703 0.96024 0.66972 0.0
H364 H 0.82391 1.06277 0.6209 0.0
H365 H 0.8847 0.14659 0.72357 0.0
H366 H 0.59684 1.00637 0.60917 0.0
H367 H 0.61915 0.11123 0.61182 0.0
H368 H 0.68152 1.04015 0.59123 0.0
H369 H 0.77946 0.17403 0.75439 0.0
H370 H 0.69538 0.21534 0.73754 0.0
H371 H 0.67175 0.1104 0.73476 0.0
H372 H 0.43819 0.23676 0.67744 0.0
H373 H 0.39418 0.98615 0.67193 0.0
H374 H 0.62428 0.25154 0.65391 0.0
H375 H 0.67419 0.2719 0.69478 0.0
H376 H 0.58107 0.31402 0.68624 0.0
H377 H 0.57523 0.93331 0.64622 0.0
H378 H 0.50606 0.9133 0.67189 0.0
H379 H 0.61603 0.97365 0.68881 0.0
C380 C 0.53938 0.85405 0.99175 0.0
C381 C 0.55632 0.84213 0.96137 0.0
C382 C 0.51772 0.78674 0.00084 0.0
C383 C 0.51641 0.70584 0.97937 0.0
C384 C 0.53059 0.69319 0.94812 0.0
C385 C 0.54986 0.76188 0.93938 0.0
C386 C 0.5006 0.80275 0.03408 0.0
C387 C 0.53292 0.60866 0.92488 0.0
C388 C 0.57423 0.58164 0.02933 0.0
C389 C 0.49131 0.54119 0.02924 0.0
C390 C 0.58422 0.62868 0.01025 0.0
C391 C 0.50916 0.63735 0.99143 0.0
C392 C 0.42626 0.59025 0.98886 0.0
C393 C 0.41862 0.54118 0.00739 0.0
C394 C 0.67446 0.67433 0.01226 0.0
C395 C 0.34499 0.59699 0.96863 0.0
H396 H 0.54607 0.91658 0.0088 0.0
H397 H 0.56555 0.75338 0.91618 0.0
H398 H 0.4379 0.76268 0.03248 0.0
H399 H 0.55296 0.78727 0.04873 0.0
H400 H 0.49791 0.86837 0.04685 0.0
H401 H 0.52176 0.60554 0.89969 0.0
H402 H 0.59818 0.5954 0.93095 0.0
H403 H 0.48375 0.55941 0.92645 0.0
H404 H 0.63107 0.57903 0.04528 0.0
H405 H 0.35471 0.50804 0.00661 0.0
H406 H 0.68281 0.74084 0.02728 0.0
H407 H 0.68354 0.67001 0.98802 0.0
H408 H 0.72628 0.64971 0.0231 0.0
H409 H 0.33433 0.66105 0.97841 0.0
H410 H 0.28599 0.55344 0.96803 0.0
H411 H 0.3529 0.58441 0.94365 0.0
C412 C 0.89373 0.65552 0.37336 0.0
C413 C 0.85531 0.57628 0.3707 0.0
C414 C 0.87557 0.68119 0.34765 0.0
C415 C 0.81529 0.62676 0.31906 0.0
C416 C 0.76588 0.55235 0.3185 0.0
C417 C 0.78763 0.52711 0.34433 0.0
C418 C 0.93099 0.76079 0.3495 0.0
C419 C 0.69724 0.49475 0.28947 0.0
C420 C 0.82387 0.74069 0.26359 0.0
C421 C 0.89594 0.71684 0.25146 0.0
C422 C 0.78479 0.70062 0.28157 0.0
C423 C 0.82238 0.63939 0.28879 0.0
C424 C 0.88745 0.60809 0.27287 0.0
C425 C 0.92287 0.64697 0.25402 0.0
C426 C 0.71015 0.72975 0.29586 0.0
C427 C 0.92863 0.54176 0.2794 0.0
H428 H 0.94591 0.69321 0.39398 0.0
H429 H 0.75808 0.46565 0.34236 0.0
H430 H 0.89001 0.79776 0.34083 0.0
H431 H 0.96816 0.79919 0.37436 0.0
H432 H 0.97843 0.74634 0.33383 0.0
H433 H 0.64244 0.46482 0.29703 0.0
H434 H 0.67122 0.52736 0.27429 0.0
H435 H 0.72581 0.4448 0.27472 0.0
H436 H 0.80268 0.79442 0.26118 0.0
H437 H 0.97864 0.62893 0.24446 0.0
H438 H 0.73408 0.76786 0.32185 0.0
H439 H 0.66016 0.67593 0.29374 0.0
H440 H 0.67913 0.76722 0.2839 0.0
H441 H 0.975 0.52163 0.26376 0.0
H442 H 0.87757 0.48704 0.27549 0.0
H443 H 0.96474 0.56548 0.30484 0.0
C444 C 0.15537 0.17346 0.2431 0.0
C445 C 0.12303 0.22981 0.26665 0.0
C446 C 0.14506 0.17215 0.21162 0.0
C447 C 0.10052 0.22808 0.20306 0.0
C448 C 0.06664 0.28452 0.22655 0.0
C449 C 0.07892 0.2852 0.25809 0.0
C450 C 0.18248 0.11098 0.18751 0.0
C451 C 1.01816 0.34489 0.21853 0.0
C452 C 0.15059 0.27141 0.13008 0.0
C453 C 0.08124 0.21682 0.10522 0.0
C454 C 0.15639 0.27727 0.16207 0.0
C455 C 0.09107 0.22771 0.16964 0.0
C456 C 1.01968 0.17407 0.14482 0.0
C457 C 1.01581 0.16898 0.11296 0.0
C458 C 0.23381 0.33501 0.18766 0.0
C459 C 0.94806 0.12089 0.15186 0.0
H460 H 0.18954 0.13021 0.24925 0.0
H461 H 1.0534 0.32883 0.27598 0.0
H462 H 0.12995 1.07044 0.16647 0.0
H463 H 0.23075 0.14451 0.17853 0.0
H464 H 0.21498 1.07134 0.19789 0.0
H465 H 0.98209 0.37303 0.23721 0.0
H466 H 0.06536 0.39521 0.21669 0.0
H467 H 0.97113 0.3141 0.19501 0.0
H468 H 0.20164 0.3087 0.1245 0.0
H469 H 0.96174 0.12682 0.09406 0.0
H470 H 0.21126 0.37833 0.20757 0.0
H471 H 0.27738 0.37165 0.17815 0.0
H472 H 0.2723 0.29883 0.19798 0.0
H473 H 0.97521 0.07576 0.16042 0.0
H474 H 0.89436 0.08626 0.13038 0.0
H475 H 0.92057 0.15988 0.17136 0.0
C476 C 0.22035 0.1435 0.45205 0.0
C477 C 0.16908 0.19165 0.4416 0.0
C478 C 0.21863 0.13454 0.48166 0.0
C479 C 0.16592 0.17621 0.50165 0.0
C480 C 0.11559 0.22626 0.49148 0.0
C481 C 0.1171 0.23263 0.46158 0.0
C482 C 0.27222 0.07958 0.49138 0.0
C483 C 1.0593 0.27267 0.51209 0.0
C484 C 0.08609 0.09553 0.56251 0.0
C485 C 0.14423 0.14765 0.59149 0.0
C486 C 0.09385 0.10299 0.53315 0.0
C487 C 0.16027 0.1653 0.53261 0.0
C488 C 0.21844 0.21904 0.56179 0.0
C489 C 0.21011 0.20923 0.5908 0.0
C490 C 1.03101 1.04378 0.50261 0.0
C491 C 0.28939 0.2871 0.56241 0.0
H492 H 0.26138 0.11236 0.43697 0.0
H493 H 0.07696 0.26992 0.45382 0.0
H494 H 0.31823 0.11558 0.51482 0.0
H495 H 0.22883 1.02895 0.49458 0.0
H496 H 0.31008 1.05176 0.47329 0.0
H497 H 1.02766 0.31241 0.50151 0.0
H498 H 1.00762 0.22817 0.51518 0.0
H499 H 0.0992 0.31222 0.53639 0.0
H500 H 1.03479 1.04785 0.56265 0.0
H501 H 0.25561 0.24974 0.61295 0.0
H502 H 0.06774 1.00969 0.48535 0.0
H503 H 0.99418 0.07856 0.49096 0.0
H504 H 0.98362 0.9981 0.50702 0.0
H505 H 0.33521 0.2599 0.54776 0.0
H506 H 0.32705 0.32578 0.58719 0.0
H507 H 0.26061 0.3277 0.55158 0.0
C508 C 1.05815 0.07568 0.76793 0.0
C509 C 0.13935 0.08258 0.75937 0.0
C510 C 1.05236 0.08867 0.79989 0.0
C511 C 0.12927 0.10496 0.82354 0.0
C512 C 0.21115 0.10893 0.81464 0.0
C513 C 0.21532 0.0994 0.78284 0.0
C514 C 0.96434 0.08838 0.80862 0.0
C515 C 0.29457 0.12518 0.83893 0.0
C516 C 0.13121 0.21187 0.91272 0.0
C517 C 0.11418 0.14431 0.92208 0.0
C518 C 0.13558 0.20021 0.88076 0.0
C519 C 0.12441 0.11887 0.85768 0.0
C520 C 0.109 1.05056 0.86733 0.0
C521 C 0.10262 1.06403 0.89924 0.0
C522 C 0.14869 0.27531 0.87178 0.0
C523 C 0.10021 0.96319 0.844 0.0
H524 H 0.99947 1.06469 0.74998 0.0
H525 H 0.27816 0.10527 0.77628 0.0
H526 H 0.9497 1.04088 0.81907 0.0
H527 H 0.96528 0.14933 0.82723 0.0
H528 H 0.91094 0.07591 0.78756 0.0
H529 H 0.3523 0.12136 0.82782 0.0
H530 H 0.30531 0.18778 0.85789 0.0
H531 H 0.28946 0.07985 0.85088 0.0
H532 H 0.13902 0.27398 0.93026 0.0
H533 H 0.09031 1.0117 0.90653 0.0
H534 H 0.0838 0.28439 0.86237 0.0
H535 H 0.18699 0.2681 0.85286 0.0
H536 H 0.18195 0.33215 0.89299 0.0
H537 H 1.04324 0.94697 0.82382 0.0
H538 H 0.09189 0.91717 0.85557 0.0
H539 H 0.15899 0.95834 0.83357 0.0
loop_
_geom_bond_atom_site_label_1
_geom_bond_atom_site_label_2
_geom_bond_distance
_geom_bond_site_symmetry_2
_ccdc_geom_bond_type
Eu0 N29 2.600 . S
Eu0 N35 2.562 1_556 S
Eu0 O44 2.462 1_546 S
Eu0 O45 2.373 1_556 S
Eu0 O47 2.432 1_545 S
Eu0 O48 2.291 1_556 S
Eu0 O52 2.335 1_545 S
Eu0 O55 2.372 . S
Eu0 C64 2.787 1_545 S
C1 N2 1.365 . S
C1 C4 1.405 . S
C1 C8 1.448 . S
N2 C1 1.365 . S
N2 C5 1.319 . S
N2 Eu11 2.600 . S
C3 C5 1.397 . S
C3 C6 1.367 . S
C3 H23 0.931 . S
C4 C1 1.405 . S
C4 C6 1.403 . S
C4 C10 1.439 . S
C5 N2 1.319 . S
C5 C3 1.397 . S
C5 H16 0.930 . S
C6 C3 1.367 . S
C6 C4 1.403 . S
C6 H27 0.929 . S
C7 C8 1.430 . S
C7 C9 1.387 . S
C7 C13 1.404 1_554 S
C8 C1 1.448 . S
C8 C7 1.430 . S
C8 N12 1.351 . S
C9 C7 1.387 . S
C9 C10 1.374 . S
C9 H24 0.931 1_545 S
C10 C4 1.439 . S
C10 C9 1.374 . S
C10 H25 0.931 . S
Eu11 N2 2.600 . S
Eu11 N12 2.562 . S
Eu11 O46 2.335 . S
Eu11 O49 2.372 . S
Eu11 O50 2.462 . S
Eu11 O51 2.373 . S
Eu11 O53 2.432 . S
Eu11 O54 2.291 1_554 S
Eu11 C75 2.787 . S
N12 C8 1.351 . S
N12 Eu11 2.562 . S
N12 C14 1.325 1_554 S
C13 C7 1.404 1_556 S
C13 C15 1.366 . S
C13 H21 0.930 1_545 S
C14 N12 1.325 1_556 S
C14 C15 1.416 . S
C14 H20 0.929 . S
C15 C13 1.366 . S
C15 C14 1.416 . S
C15 H17 0.930 . S
H16 C5 0.930 . S
H17 C15 0.930 . S
H18 C33 0.930 . S
H19 C40 0.930 . S
H20 C14 0.929 . S
H21 C13 0.930 1_565 S
H22 C36 0.929 . S
H23 C3 0.931 . S
H24 C9 0.931 1_565 S
H25 C10 0.931 . S
H26 C31 0.931 . S
H27 C6 0.929 . S
H28 C39 0.930 . S
N29 Eu0 2.600 . S
N29 C30 1.365 . S
N29 C33 1.319 . S
C30 N29 1.365 . S
C30 C32 1.405 . S
C30 C38 1.448 . S
C31 H26 0.931 . S
C31 C33 1.397 . S
C31 C34 1.367 . S
C32 C30 1.405 . S
C32 C34 1.403 . S
C32 C65 1.439 . S
C33 H18 0.930 . S
C33 N29 1.319 . S
C33 C31 1.397 . S
C34 C31 1.367 . S
C34 C32 1.403 . S
C34 H41 0.929 . S
N35 Eu0 2.562 1_554 S
N35 C36 1.325 . S
N35 C38 1.351 1_554 S
C36 H22 0.929 . S
C36 N35 1.325 . S
C36 C40 1.416 . S
C37 C38 1.430 1_554 S
C37 C39 1.404 . S
C37 C66 1.387 1_554 S
C38 C30 1.448 . S
C38 N35 1.351 1_556 S
C38 C37 1.430 1_556 S
C39 H28 0.930 . S
C39 C37 1.404 . S
C39 C40 1.366 . S
C40 H19 0.930 . S
C40 C36 1.416 . S
C40 C39 1.366 . S
H41 C34 0.929 . S
H42 C65 0.931 . S
H43 C66 0.931 . S
O44 Eu0 2.462 1_564 S
O44 C64 1.252 1_554 S
O45 Eu0 2.373 1_554 S
O45 C56 1.249 . S
O46 Eu11 2.335 . S
O46 C56 1.264 1_455 S
O47 Eu0 2.432 1_565 S
O47 C64 1.268 . S
O48 Eu0 2.291 1_554 S
O48 C63 1.255 . S
O49 Eu11 2.372 . S
O49 C63 1.257 1_455 S
O50 Eu11 2.462 . S
O50 C75 1.252 . S
O51 Eu11 2.373 . S
O51 C67 1.249 1_545 S
O52 Eu0 2.335 1_565 S
O52 C67 1.264 1_656 S
O53 Eu11 2.432 . S
O53 C75 1.268 . S
O54 Eu11 2.291 1_556 S
O54 C74 1.255 . S
O55 Eu0 2.372 . S
O55 C74 1.257 1_655 S
C56 O45 1.249 . S
C56 O46 1.264 1_655 S
C57 C60 1.382 . S
C57 C62 1.390 1_556 S
C57 C64 1.506 . S
C58 C59 1.398 1_554 S
C58 C62 1.392 . S
C59 C58 1.398 1_556 S
C59 C61 1.372 . S
C59 H76 0.931 . S
C60 C57 1.382 . S
C60 C61 1.390 . S
C60 H77 0.931 . S
C61 C59 1.372 . S
C61 C60 1.390 . S
C61 H78 0.929 . S
C62 C57 1.390 1_554 S
C62 C58 1.392 . S
C62 H79 0.930 . S
C63 O48 1.255 . S
C63 O49 1.257 1_655 S
C64 Eu0 2.787 1_565 S
C64 O44 1.252 1_556 S
C64 O47 1.268 . S
C64 C57 1.506 . S
C65 C32 1.439 . S
C65 H42 0.931 . S
C65 C66 1.374 . S
C66 C37 1.387 1_556 S
C66 H43 0.931 . S
C66 C65 1.374 . S
C67 O51 1.249 1_565 S
C67 O52 1.264 1_454 S
C68 C71 1.382 . S
C68 C72 1.390 . S
C68 C75 1.506 . S
C69 C70 1.398 . S
C69 C72 1.392 . S
C70 C69 1.398 . S
C70 C73 1.372 . S
C70 H80 0.931 . S
C71 C68 1.382 . S
C71 C73 1.390 . S
C71 H81 0.931 . S
C72 C68 1.390 . S
C72 C69 1.392 . S
C72 H82 0.930 1_554 S
C73 C70 1.372 . S
C73 C71 1.390 . S
C73 H83 0.929 . S
C74 O54 1.255 . S
C74 O55 1.257 1_455 S
C75 Eu11 2.787 . S
C75 O50 1.252 . S
C75 O53 1.268 . S
C75 C68 1.506 . S
H76 C59 0.931 . S
H77 C60 0.931 . S
H78 C61 0.929 . S
H79 C62 0.930 . S
H80 C70 0.931 . S
H81 C71 0.931 . S
H82 C72 0.930 1_556 S
H83 C73 0.929 . S
Eu84 N113 2.600 1_545 S
Eu84 N119 2.562 1_545 S
Eu84 O128 2.462 1_645 S
Eu84 O129 2.373 . S
Eu84 O131 2.432 1_645 S
Eu84 O132 2.291 . S
Eu84 O136 2.335 1_655 S
Eu84 O139 2.372 1_655 S
Eu84 C148 2.787 1_645 S
C85 N86 1.365 . S
C85 C88 1.405 . S
C85 C92 1.448 . S
N86 C85 1.365 . S
N86 C89 1.319 . S
N86 Eu95 2.600 . S
C87 C89 1.397 . S
C87 C90 1.367 . S
C87 H107 0.931 . S
C88 C85 1.405 . S
C88 C90 1.403 . S
C88 C94 1.439 . S
C89 N86 1.319 . S
C89 C87 1.397 . S
C89 H100 0.930 . S
C90 C87 1.367 . S
C90 C88 1.403 . S
C90 H111 0.929 . S
C91 C92 1.430 . S
C91 C93 1.387 . S
C91 C97 1.404 . S
C92 C85 1.448 . S
C92 C91 1.430 . S
C92 N96 1.351 . S
C93 C91 1.387 . S
C93 C94 1.374 . S
C93 H108 0.931 . S
C94 C88 1.439 . S
C94 C93 1.374 . S
C94 H109 0.931 . S
Eu95 N86 2.600 . S
Eu95 N96 2.562 . S
Eu95 O130 2.335 1_455 S
Eu95 O133 2.372 . S
Eu95 O134 2.462 . S
Eu95 O135 2.373 . S
Eu95 O137 2.432 . S
Eu95 O138 2.291 . S
Eu95 C159 2.787 . S
N96 C92 1.351 . S
N96 Eu95 2.562 . S
N96 C98 1.325 . S
C97 C91 1.404 . S
C97 C99 1.366 . S
C97 H105 0.930 . S
C98 N96 1.325 . S
C98 C99 1.416 . S
C98 H104 0.929 . S
C99 C97 1.366 . S
C99 C98 1.416 . S
C99 H101 0.930 . S
H100 C89 0.930 . S
H101 C99 0.930 . S
H102 C117 0.930 . S
H103 C124 0.930 . S
H104 C98 0.929 . S
H105 C97 0.930 . S
H106 C120 0.929 . S
H107 C87 0.931 . S
H108 C93 0.931 . S
H109 C94 0.931 . S
H110 C115 0.931 . S
H111 C90 0.929 . S
H112 C123 0.930 . S
N113 Eu84 2.600 1_565 S
N113 C114 1.365 . S
N113 C117 1.319 . S
C114 N113 1.365 . S
C114 C116 1.405 . S
C114 C122 1.448 . S
C115 H110 0.931 . S
C115 C117 1.397 . S
C115 C118 1.367 . S
C116 C114 1.405 . S
C116 C118 1.403 . S
C116 C149 1.439 . S
C117 H102 0.930 . S
C117 N113 1.319 . S
C117 C115 1.397 . S
C118 C115 1.367 . S
C118 C116 1.403 . S
C118 H125 0.929 . S
N119 Eu84 2.562 1_565 S
N119 C120 1.325 . S
N119 C122 1.351 . S
C120 H106 0.929 . S
C120 N119 1.325 . S
C120 C124 1.416 . S
C121 C122 1.430 . S
C121 C123 1.404 . S
C121 C150 1.387 . S
C122 C114 1.448 . S
C122 N119 1.351 . S
C122 C121 1.430 . S
C123 H112 0.930 . S
C123 C121 1.404 . S
C123 C124 1.366 . S
C124 H103 0.930 . S
C124 C120 1.416 . S
C124 C123 1.366 . S
H125 C118 0.929 . S
H126 C149 0.931 . S
H127 C150 0.931 . S
O128 Eu84 2.462 1_465 S
O128 C148 1.252 . S
O129 Eu84 2.373 . S
O129 C140 1.249 . S
O130 Eu95 2.335 1_655 S
O130 C140 1.264 . S
O131 Eu84 2.432 1_465 S
O131 C148 1.268 . S
O132 Eu84 2.291 . S
O132 C147 1.255 1_655 S
O133 Eu95 2.372 . S
O133 C147 1.257 . S
O134 Eu95 2.462 . S
O134 C159 1.252 . S
O135 Eu95 2.373 . S
O135 C151 1.249 . S
O136 Eu84 2.335 1_455 S
O136 C151 1.264 . S
O137 Eu95 2.432 . S
O137 C159 1.268 . S
O138 Eu95 2.291 . S
O138 C158 1.255 . S
O139 Eu84 2.372 1_455 S
O139 C158 1.257 . S
C140 O129 1.249 . S
C140 O130 1.264 . S
C141 C144 1.382 . S
C141 C146 1.390 . S
C141 C148 1.506 . S
C142 C143 1.398 . S
C142 C146 1.392 . S
C143 C142 1.398 . S
C143 C145 1.372 . S
C143 H160 0.931 . S
C144 C141 1.382 . S
C144 C145 1.390 . S
C144 H161 0.931 . S
C145 C143 1.372 . S
C145 C144 1.390 . S
C145 H162 0.929 . S
C146 C141 1.390 . S
C146 C142 1.392 . S
C146 H163 0.930 . S
C147 O132 1.255 1_455 S
C147 O133 1.257 . S
C148 Eu84 2.787 1_465 S
C148 O128 1.252 . S
C148 O131 1.268 . S
C148 C141 1.506 . S
C149 C116 1.439 . S
C149 H126 0.931 . S
C149 C150 1.374 . S
C150 C121 1.387 . S
C150 H127 0.931 . S
C150 C149 1.374 . S
C151 O135 1.249 . S
C151 O136 1.264 . S
C152 C155 1.382 . S
C152 C156 1.390 1_455 S
C152 C159 1.506 . S
C153 C154 1.398 . S
C153 C156 1.392 . S
C154 C153 1.398 . S
C154 C157 1.371 1_655 S
C154 H164 0.931 . S
C155 C152 1.382 . S
C155 C157 1.393 . S
C155 H165 0.931 . S
C156 C152 1.390 1_655 S
C156 C153 1.392 . S
C156 H166 0.930 . S
C157 C154 1.371 1_455 S
C157 C155 1.393 . S
C157 H167 0.927 1_455 S
C158 O138 1.255 . S
C158 O139 1.257 . S
C159 Eu95 2.787 . S
C159 O134 1.252 . S
C159 O137 1.268 . S
C159 C152 1.506 . S
H160 C143 0.931 . S
H161 C144 0.931 . S
H162 C145 0.929 . S
H163 C146 0.930 . S
H164 C154 0.931 . S
H165 C155 0.931 . S
H166 C156 0.930 . S
H167 C157 0.927 1_655 S
Eu168 N197 2.600 . S
Eu168 N203 2.562 . S
Eu168 O212 2.462 . S
Eu168 O213 2.373 1_455 S
Eu168 O215 2.432 . S
Eu168 O216 2.291 . S
Eu168 O220 2.335 . S
Eu168 O223 2.372 . S
Eu168 C232 2.787 . S
C169 N170 1.365 . S
C169 C172 1.405 . S
C169 C176 1.448 . S
N170 C169 1.365 . S
N170 C173 1.319 . S
N170 Eu179 2.600 . S
C171 C173 1.397 . S
C171 C174 1.367 . S
C171 H191 0.931 . S
C172 C169 1.405 . S
C172 C174 1.403 . S
C172 C178 1.439 . S
C173 N170 1.319 . S
C173 C171 1.397 . S
C173 H184 0.930 . S
C174 C171 1.367 . S
C174 C172 1.403 . S
C174 H195 0.929 . S
C175 C176 1.430 . S
C175 C177 1.387 . S
C175 C181 1.404 . S
C176 C169 1.448 . S
C176 C175 1.430 . S
C176 N180 1.351 . S
C177 C175 1.387 . S
C177 C178 1.374 . S
C177 H192 0.931 . S
C178 C172 1.439 . S
C178 C177 1.374 . S
C178 H193 0.931 . S
Eu179 N170 2.600 . S
Eu179 N180 2.562 . S
Eu179 O214 2.335 1_455 S
Eu179 O217 2.372 . S
Eu179 O218 2.462 1_455 S
Eu179 O219 2.373 . S
Eu179 O221 2.432 1_455 S
Eu179 O222 2.291 . S
Eu179 C243 2.787 1_455 S
N180 C176 1.351 . S
N180 Eu179 2.562 . S
N180 C182 1.325 . S
C181 C175 1.404 . S
C181 C183 1.366 . S
C181 H189 0.930 . S
C182 N180 1.325 . S
C182 C183 1.416 . S
C182 H188 0.929 . S
C183 C181 1.366 . S
C183 C182 1.416 . S
C183 H185 0.930 . S
H184 C173 0.930 . S
H185 C183 0.930 . S
H186 C201 0.930 . S
H187 C208 0.930 . S
H188 C182 0.929 . S
H189 C181 0.930 . S
H190 C204 0.929 . S
H191 C171 0.931 . S
H192 C177 0.931 . S
H193 C178 0.931 . S
H194 C199 0.931 . S
H195 C174 0.929 . S
H196 C207 0.930 . S
N197 Eu168 2.600 . S
N197 C198 1.365 . S
N197 C201 1.319 . S
C198 N197 1.365 . S
C198 C200 1.405 . S
C198 C206 1.448 . S
C199 H194 0.931 . S
C199 C201 1.397 . S
C199 C202 1.367 . S
C200 C198 1.405 . S
C200 C202 1.403 . S
C200 C233 1.439 1_455 S
C201 H186 0.930 . S
C201 N197 1.319 . S
C201 C199 1.397 . S
C202 C199 1.367 . S
C202 C200 1.403 . S
C202 H209 0.929 . S
N203 Eu168 2.562 . S
N203 C204 1.325 . S
N203 C206 1.351 . S
C204 H190 0.929 . S
C204 N203 1.325 . S
C204 C208 1.416 1_455 S
C205 C206 1.430 1_655 S
C205 C207 1.404 . S
C205 C234 1.387 . S
C206 C198 1.448 . S
C206 N203 1.351 . S
C206 C205 1.430 1_455 S
C207 H196 0.930 . S
C207 C205 1.404 . S
C207 C208 1.366 . S
C208 H187 0.930 . S
C208 C204 1.416 1_655 S
C208 C207 1.366 . S
H209 C202 0.929 . S
H210 C233 0.931 . S
H211 C234 0.931 . S
O212 Eu168 2.462 . S
O212 C232 1.252 . S
O213 Eu168 2.373 1_655 S
O213 C224 1.249 . S
O214 Eu179 2.335 1_655 S
O214 C224 1.264 1_565 S
O215 Eu168 2.432 . S
O215 C232 1.268 . S
O216 Eu168 2.291 . S
O216 C231 1.255 . S
O217 Eu179 2.372 . S
O217 C231 1.257 1_565 S
O218 Eu179 2.462 1_655 S
O218 C243 1.252 . S
O219 Eu179 2.373 . S
O219 C235 1.249 1_565 S
O220 Eu168 2.335 . S
O220 C235 1.264 . S
O221 Eu179 2.432 1_655 S
O221 C243 1.268 . S
O222 Eu179 2.291 . S
O222 C242 1.255 1_565 S
O223 Eu168 2.372 . S
O223 C242 1.257 . S
C224 O213 1.249 . S
C224 O214 1.264 1_545 S
C225 C228 1.382 . S
C225 C230 1.390 . S
C225 C232 1.506 . S
C226 C227 1.398 . S
C226 C230 1.392 . S
C227 C226 1.398 . S
C227 C229 1.372 . S
C227 H244 0.931 . S
C228 C225 1.382 . S
C228 C229 1.390 . S
C228 H245 0.931 . S
C229 C227 1.372 . S
C229 C228 1.390 . S
C229 H246 0.929 . S
C230 C225 1.390 . S
C230 C226 1.392 . S
C230 H247 0.930 . S
C231 O216 1.255 . S
C231 O217 1.257 1_545 S
C232 Eu168 2.787 . S
C232 O212 1.252 . S
C232 O215 1.268 . S
C232 C225 1.506 . S
C233 C200 1.439 1_655 S
C233 H210 0.931 . S
C233 C234 1.374 . S
C234 C205 1.387 . S
C234 H211 0.931 . S
C234 C233 1.374 . S
C235 O219 1.249 1_545 S
C235 O220 1.264 . S
C236 C239 1.382 . S
C236 C240 1.390 . S
C236 C243 1.506 . S
C237 C238 1.398 . S
C237 C240 1.392 . S
C238 C237 1.398 . S
C238 C241 1.372 . S
C238 H248 0.931 . S
C239 C236 1.382 . S
C239 C241 1.390 . S
C239 H249 0.931 . S
C240 C236 1.390 . S
C240 C237 1.392 . S
C240 H250 0.930 . S
C241 C238 1.372 . S
C241 C239 1.390 . S
C241 H251 0.929 . S
C242 O222 1.255 1_545 S
C242 O223 1.257 . S
C243 Eu179 2.787 1_655 S
C243 O218 1.252 . S
C243 O221 1.268 . S
C243 C236 1.506 . S
H244 C227 0.931 . S
H245 C228 0.931 . S
H246 C229 0.929 . S
H247 C230 0.930 . S
H248 C238 0.931 . S
H249 C239 0.931 . S
H250 C240 0.930 . S
H251 C241 0.929 . S
C252 C253 1.391 . S
C252 C254 1.394 . S
C252 H268 0.931 . S
C253 C252 1.391 . S
C253 C257 1.376 1_655 S
C254 C252 1.394 . S
C254 C255 1.358 1_655 S
C254 C258 1.531 . S
C255 C254 1.358 1_455 S
C255 C256 1.424 . S
C255 C263 1.501 . S
C256 C255 1.424 . S
C256 C257 1.392 . S
C256 C259 1.511 . S
C257 C253 1.376 1_455 S
C257 C256 1.392 . S
C257 H269 0.929 . S
C258 C254 1.531 . S
C258 H270 0.960 . S
C258 H271 0.962 1_554 S
C258 H272 0.960 . S
C259 C256 1.511 . S
C259 H273 0.961 . S
C259 H274 0.961 . S
C259 H275 0.961 . S
C260 C261 1.370 1_556 S
C260 C262 1.363 . S
C260 H276 0.931 . S
C261 C260 1.370 1_554 S
C261 C265 1.408 . S
C262 C260 1.363 . S
C262 C263 1.370 1_556 S
C262 C266 1.524 1_455 S
C263 C255 1.501 . S
C263 C262 1.370 1_554 S
C263 C264 1.403 . S
C264 C263 1.403 . S
C264 C265 1.404 . S
C264 C267 1.539 . S
C265 C261 1.408 . S
C265 C264 1.404 . S
C265 H277 0.930 . S
C266 C262 1.524 1_655 S
C266 H278 0.956 . S
C266 H279 0.961 1_655 S
C266 H280 0.961 . S
C267 C264 1.539 . S
C267 H281 0.958 1_455 S
C267 H282 0.961 . S
C267 H283 0.960 . S
H268 C252 0.931 . S
H269 C257 0.929 . S
H270 C258 0.960 . S
H271 C258 0.962 1_556 S
H272 C258 0.960 . S
H273 C259 0.961 . S
H274 C259 0.961 . S
H275 C259 0.961 . S
H276 C260 0.931 . S
H277 C265 0.930 . S
H278 C266 0.956 . S
H279 C266 0.961 1_455 S
H280 C266 0.961 . S
H281 C267 0.958 1_655 S
H282 C267 0.961 . S
H283 C267 0.960 . S
C284 C285 1.391 . S
C284 C286 1.394 . S
C284 H300 0.931 . S
C285 C284 1.391 . S
C285 C289 1.376 . S
C286 C284 1.394 . S
C286 C287 1.369 . S
C286 C290 1.531 . S
C287 C286 1.369 . S
C287 C288 1.410 . S
C287 C295 1.503 . S
C288 C287 1.410 . S
C288 C289 1.392 . S
C288 C291 1.511 . S
C289 C285 1.376 . S
C289 C288 1.392 . S
C289 H301 0.929 . S
C290 C286 1.531 . S
C290 H302 0.960 . S
C290 H303 0.962 . S
C290 H304 0.960 . S
C291 C288 1.511 . S
C291 H305 0.961 1_545 S
C291 H306 0.961 . S
C291 H307 0.961 . S
C292 C293 1.370 . S
C292 C294 1.363 . S
C292 H308 0.931 . S
C293 C292 1.370 . S
C293 C297 1.408 . S
C294 C292 1.363 . S
C294 C295 1.370 . S
C294 C298 1.524 . S
C295 C287 1.503 . S
C295 C294 1.370 . S
C295 C296 1.403 . S
C296 C295 1.403 . S
C296 C297 1.404 . S
C296 C299 1.539 . S
C297 C293 1.408 . S
C297 C296 1.404 . S
C297 H309 0.930 . S
C298 C294 1.524 . S
C298 H310 0.956 . S
C298 H311 0.961 . S
C298 H312 0.961 . S
C299 C296 1.539 . S
C299 H313 0.958 . S
C299 H314 0.961 . S
C299 H315 0.960 . S
H300 C284 0.931 . S
H301 C289 0.929 . S
H302 C290 0.960 . S
H303 C290 0.962 . S
H304 C290 0.960 . S
H305 C291 0.961 1_565 S
H306 C291 0.961 . S
H307 C291 0.961 . S
H308 C292 0.931 . S
H309 C297 0.930 . S
H310 C298 0.956 . S
H311 C298 0.961 . S
H312 C298 0.961 . S
H313 C299 0.958 . S
H314 C299 0.961 . S
H315 C299 0.960 . S
C316 C317 1.391 . S
C316 C318 1.394 . S
C316 H332 0.931 . S
C317 C316 1.391 . S
C317 C321 1.376 . S
C318 C316 1.394 . S
C318 C319 1.369 . S
C318 C322 1.531 . S
C319 C318 1.369 . S
C319 C320 1.410 . S
C319 C327 1.503 . S
C320 C319 1.410 . S
C320 C321 1.392 . S
C320 C323 1.511 . S
C321 C317 1.376 . S
C321 C320 1.392 . S
C321 H333 0.929 . S
C322 C318 1.531 . S
C322 H334 0.960 . S
C322 H335 0.962 . S
C322 H336 0.960 . S
C323 C320 1.511 . S
C323 H337 0.961 . S
C323 H338 0.961 . S
C323 H339 0.961 . S
C324 C325 1.370 . S
C324 C326 1.363 . S
C324 H340 0.931 . S
C325 C324 1.370 . S
C325 C329 1.408 . S
C326 C324 1.363 . S
C326 C327 1.370 . S
C326 C330 1.524 . S
C327 C319 1.503 . S
C327 C326 1.370 . S
C327 C328 1.403 . S
C328 C327 1.403 . S
C328 C329 1.404 . S
C328 C331 1.539 . S
C329 C325 1.408 . S
C329 C328 1.404 . S
C329 H341 0.930 . S
C330 C326 1.524 . S
C330 H342 0.956 . S
C330 H343 0.961 . S
C330 H344 0.961 . S
C331 C328 1.539 . S
C331 H345 0.958 . S
C331 H346 0.961 . S
C331 H347 0.960 . S
H332 C316 0.931 . S
H333 C321 0.929 . S
H334 C322 0.960 . S
H335 C322 0.962 . S
H336 C322 0.960 . S
H337 C323 0.961 . S
H338 C323 0.961 . S
H339 C323 0.961 . S
H340 C324 0.931 . S
H341 C329 0.930 . S
H342 C330 0.956 . S
H343 C330 0.961 . S
H344 C330 0.961 . S
H345 C331 0.958 . S
H346 C331 0.961 . S
H347 C331 0.960 . S
C348 C349 1.391 1_565 S
C348 C350 1.394 . S
C348 H364 0.931 . S
C349 C348 1.391 1_545 S
C349 C353 1.376 . S
C350 C348 1.394 . S
C350 C351 1.369 . S
C350 C354 1.531 . S
C351 C350 1.369 . S
C351 C352 1.410 1_565 S
C351 C359 1.499 1_565 S
C352 C351 1.410 1_545 S
C352 C353 1.392 . S
C352 C355 1.511 . S
C353 C349 1.376 . S
C353 C352 1.392 . S
C353 H365 0.929 . S
C354 C350 1.531 . S
C354 H366 0.960 . S
C354 H367 0.962 . S
C354 H368 0.960 . S
C355 C352 1.511 . S
C355 H369 0.961 . S
C355 H370 0.961 . S
C355 H371 0.961 . S
C356 C357 1.370 . S
C356 C358 1.363 . S
C356 H372 0.931 . S
C357 C356 1.370 . S
C357 C361 1.408 1_545 S
C358 C356 1.363 . S
C358 C359 1.388 . S
C358 C362 1.524 . S
C359 C351 1.499 1_545 S
C359 C358 1.388 . S
C359 C360 1.390 1_545 S
C360 C359 1.390 1_565 S
C360 C361 1.404 . S
C360 C363 1.539 . S
C361 C357 1.408 1_565 S
C361 C360 1.404 . S
C361 H373 0.930 . S
C362 C358 1.524 . S
C362 H374 0.956 . S
C362 H375 0.961 . S
C362 H376 0.961 . S
C363 C360 1.539 . S
C363 H377 0.958 . S
C363 H378 0.961 . S
C363 H379 0.960 . S
H364 C348 0.931 . S
H365 C353 0.929 . S
H366 C354 0.960 . S
H367 C354 0.962 . S
H368 C354 0.960 . S
H369 C355 0.961 . S
H370 C355 0.961 . S
H371 C355 0.961 . S
H372 C356 0.931 . S
H373 C361 0.930 . S
H374 C362 0.956 . S
H375 C362 0.961 . S
H376 C362 0.961 . S
H377 C363 0.958 . S
H378 C363 0.961 . S
H379 C363 0.960 . S
C380 C381 1.391 . S
C380 C382 1.394 . S
C380 H396 0.931 . S
C381 C380 1.391 . S
C381 C385 1.376 1_554 S
C382 C380 1.394 . S
C382 C383 1.369 . S
C382 C386 1.531 . S
C383 C382 1.369 . S
C383 C384 1.410 1_554 S
C383 C391 1.503 . S
C384 C383 1.410 1_556 S
C384 C385 1.392 . S
C384 C387 1.511 . S
C385 C381 1.376 1_556 S
C385 C384 1.392 . S
C385 H397 0.929 . S
C386 C382 1.531 . S
C386 H398 0.960 . S
C386 H399 0.962 . S
C386 H400 0.960 . S
C387 C384 1.511 . S
C387 H401 0.961 . S
C387 H402 0.961 . S
C387 H403 0.961 . S
C388 C389 1.370 1_554 S
C388 C390 1.363 . S
C388 H404 0.931 . S
C389 C388 1.370 1_556 S
C389 C393 1.408 . S
C390 C388 1.363 . S
C390 C391 1.370 . S
C390 C394 1.524 . S
C391 C383 1.503 . S
C391 C390 1.370 . S
C391 C392 1.403 1_554 S
C392 C391 1.403 1_556 S
C392 C393 1.404 . S
C392 C395 1.539 . S
C393 C389 1.408 . S
C393 C392 1.404 . S
C393 H405 0.930 . S
C394 C390 1.524 . S
C394 H406 0.956 . S
C394 H407 0.961 . S
C394 H408 0.961 . S
C395 C392 1.539 . S
C395 H409 0.958 . S
C395 H410 0.961 . S
C395 H411 0.960 . S
H396 C380 0.931 . S
H397 C385 0.929 . S
H398 C386 0.960 . S
H399 C386 0.962 . S
H400 C386 0.960 . S
H401 C387 0.961 . S
H402 C387 0.961 . S
H403 C387 0.961 . S
H404 C388 0.931 . S
H405 C393 0.930 . S
H406 C394 0.956 . S
H407 C394 0.961 . S
H408 C394 0.961 . S
H409 C395 0.958 . S
H410 C395 0.961 . S
H411 C395 0.960 . S
C412 C413 1.391 . S
C412 C414 1.394 . S
C412 H428 0.931 . S
C413 C412 1.391 . S
C413 C417 1.376 . S
C414 C412 1.394 . S
C414 C415 1.369 1_655 S
C414 C418 1.531 . S
C415 C414 1.369 1_455 S
C415 C416 1.410 . S
C415 C423 1.503 . S
C416 C415 1.410 . S
C416 C417 1.392 1_455 S
C416 C419 1.511 . S
C417 C413 1.376 . S
C417 C416 1.392 1_655 S
C417 H429 0.929 . S
C418 C414 1.531 . S
C418 H430 0.960 1_655 S
C418 H431 0.962 . S
C418 H432 0.960 . S
C419 C416 1.511 . S
C419 H433 0.961 . S
C419 H434 0.961 . S
C419 H435 0.961 . S
C420 C421 1.370 . S
C420 C422 1.363 . S
C420 H436 0.931 . S
C421 C420 1.370 . S
C421 C425 1.408 . S
C422 C420 1.363 . S
C422 C423 1.370 . S
C422 C426 1.524 1_455 S
C423 C415 1.503 . S
C423 C422 1.370 . S
C423 C424 1.403 . S
C424 C423 1.403 . S
C424 C425 1.404 . S
C424 C427 1.539 . S
C425 C421 1.408 . S
C425 C424 1.404 . S
C425 H437 0.930 . S
C426 C422 1.524 1_655 S
C426 H438 0.956 . S
C426 H439 0.961 . S
C426 H440 0.961 . S
C427 C424 1.539 . S
C427 H441 0.958 . S
C427 H442 0.961 . S
C427 H443 0.960 . S
H428 C412 0.931 . S
H429 C417 0.929 . S
H430 C418 0.960 1_455 S
H431 C418 0.962 . S
H432 C418 0.960 . S
H433 C419 0.961 . S
H434 C419 0.961 . S
H435 C419 0.961 . S
H436 C420 0.931 . S
H437 C425 0.930 . S
H438 C426 0.956 . S
H439 C426 0.961 . S
H440 C426 0.961 . S
H441 C427 0.958 . S
H442 C427 0.961 . S
H443 C427 0.960 . S
C444 C445 1.391 1_655 S
C444 C446 1.394 . S
C444 H460 0.931 . S
C445 C444 1.391 1_455 S
C445 C449 1.376 . S
C446 C444 1.394 . S
C446 C447 1.369 . S
C446 C450 1.531 . S
C447 C446 1.369 . S
C447 C448 1.410 1_655 S
C447 C455 1.503 . S
C448 C447 1.410 1_455 S
C448 C449 1.392 . S
C448 C451 1.511 . S
C449 C445 1.376 . S
C449 C448 1.392 . S
C449 H461 0.929 . S
C450 C446 1.531 . S
C450 H462 0.960 . S
C450 H463 0.962 1_545 S
C450 H464 0.960 1_545 S
C451 C448 1.511 . S
C451 H465 0.961 . S
C451 H466 0.961 . S
C451 H467 0.961 1_455 S
C452 C453 1.370 1_455 S
C452 C454 1.363 . S
C452 H468 0.931 . S
C453 C452 1.370 1_655 S
C453 C457 1.408 . S
C454 C452 1.363 . S
C454 C455 1.370 1_455 S
C454 C458 1.524 . S
C455 C447 1.503 . S
C455 C454 1.370 1_655 S
C455 C456 1.403 . S
C456 C455 1.403 . S
C456 C457 1.404 . S
C456 C459 1.539 . S
C457 C453 1.408 . S
C457 C456 1.404 . S
C457 H469 0.930 . S
C458 C454 1.524 . S
C458 H470 0.956 . S
C458 H471 0.961 . S
C458 H472 0.961 . S
C459 C456 1.539 . S
C459 H473 0.958 . S
C459 H474 0.961 . S
C459 H475 0.960 . S
H460 C444 0.931 . S
H461 C449 0.929 . S
H462 C450 0.960 . S
H463 C450 0.962 1_565 S
H464 C450 0.960 1_565 S
H465 C451 0.961 . S
H466 C451 0.961 . S
H467 C451 0.961 1_655 S
H468 C452 0.931 . S
H469 C457 0.930 . S
H470 C458 0.956 . S
H471 C458 0.961 . S
H472 C458 0.961 . S
H473 C459 0.958 . S
H474 C459 0.961 . S
H475 C459 0.960 . S
C476 C477 1.391 . S
C476 C478 1.394 . S
C476 H492 0.931 . S
C477 C476 1.391 . S
C477 C481 1.376 1_455 S
C478 C476 1.394 . S
C478 C479 1.369 . S
C478 C482 1.531 . S
C479 C478 1.369 . S
C479 C480 1.410 . S
C479 C487 1.503 . S
C480 C479 1.410 . S
C480 C481 1.392 1_455 S
C480 C483 1.511 1_455 S
C481 C477 1.376 1_655 S
C481 C480 1.392 1_655 S
C481 H493 0.929 . S
C482 C478 1.531 . S
C482 H494 0.960 . S
C482 H495 0.962 1_545 S
C482 H496 0.960 . S
C483 C480 1.511 1_655 S
C483 H497 0.961 . S
C483 H498 0.961 . S
C483 H499 0.961 . S
C484 C485 1.370 1_565 S
C484 C486 1.363 1_565 S
C484 H500 0.931 1_455 S
C485 C484 1.370 1_545 S
C485 C489 1.408 . S
C486 C484 1.363 1_545 S
C486 C487 1.370 . S
C486 C490 1.524 1_445 S
C487 C479 1.503 . S
C487 C486 1.370 . S
C487 C488 1.403 . S
C488 C487 1.403 . S
C488 C489 1.404 . S
C488 C491 1.539 . S
C489 C485 1.408 . S
C489 C488 1.404 . S
C489 H501 0.930 . S
C490 C486 1.524 1_665 S
C490 H502 0.956 1_655 S
C490 H503 0.961 . S
C490 H504 0.961 . S
C491 C488 1.539 . S
C491 H505 0.958 . S
C491 H506 0.961 . S
C491 H507 0.960 . S
H492 C476 0.931 . S
H493 C481 0.929 . S
H494 C482 0.960 . S
H495 C482 0.962 1_565 S
H496 C482 0.960 . S
H497 C483 0.961 . S
H498 C483 0.961 . S
H499 C483 0.961 . S
H500 C484 0.931 1_655 S
H501 C489 0.930 . S
H502 C490 0.956 1_455 S
H503 C490 0.961 . S
H504 C490 0.961 . S
H505 C491 0.958 . S
H506 C491 0.961 . S
H507 C491 0.960 . S
C508 C509 1.391 . S
C508 C510 1.394 1_455 S
C508 H524 0.931 1_455 S
C509 C508 1.391 . S
C509 C513 1.376 . S
C510 C508 1.394 1_655 S
C510 C511 1.369 1_655 S
C510 C514 1.531 . S
C511 C510 1.369 1_455 S
C511 C512 1.410 . S
C511 C519 1.503 . S
C512 C511 1.410 . S
C512 C513 1.392 . S
C512 C515 1.511 . S
C513 C509 1.376 . S
C513 C512 1.392 . S
C513 H525 0.927 1_545 S
C514 C510 1.531 . S
C514 H526 0.960 . S
C514 H527 0.962 . S
C514 H528 0.960 . S
C515 C512 1.511 . S
C515 H529 0.961 . S
C515 H530 0.961 . S
C515 H531 0.961 1_545 S
C516 C517 1.370 . S
C516 C518 1.363 . S
C516 H532 0.931 . S
C517 C516 1.370 . S
C517 C521 1.409 1_445 S
C518 C516 1.363 . S
C518 C519 1.370 . S
C518 C522 1.524 . S
C519 C511 1.503 . S
C519 C518 1.370 . S
C519 C520 1.403 1_545 S
C520 C519 1.403 1_565 S
C520 C521 1.401 1_455 S
C520 C523 1.539 1_455 S
C521 C517 1.409 1_665 S
C521 C520 1.401 1_655 S
C521 H533 0.932 . S
C522 C518 1.524 . S
C522 H534 0.956 . S
C522 H535 0.961 . S
C522 H536 0.961 . S
C523 C520 1.539 1_655 S
C523 H537 0.958 . S
C523 H538 0.961 . S
C523 H539 0.960 1_655 S
H524 C508 0.931 1_655 S
H525 C513 0.927 1_565 S
H526 C514 0.960 . S
H527 C514 0.962 . S
H528 C514 0.960 . S
H529 C515 0.961 . S
H530 C515 0.961 . S
H531 C515 0.961 1_565 S
H532 C516 0.931 . S
H533 C521 0.932 . S
H534 C522 0.956 . S
H535 C522 0.961 . S
H536 C522 0.961 . S
H537 C523 0.958 . S
H538 C523 0.961 . S
H539 C523 0.960 1_455 S
C253 C56 4.286 . S
C261 C67 4.283 . S
C285 C151 2.597 . S
C293 C140 2.607 . S
C317 C237 0.573 . S
C325 C226 0.663 . S
C349 C224 2.561 . S
C357 C235 2.577 . S
C381 C58 0.753 . S
C389 C69 0.807 1_556 S
C413 C153 1.177 . S
C421 C142 1.237 . S
C445 C158 1.530 . S
C453 C63 1.537 . S
C477 C147 1.595 . S
C485 C231 1.581 . S
C509 C242 1.585 . S
C517 C74 1.569 . S
