# Generated by pormake.
# Topology yfm, (5)-cn, num edge types: 1
# Building blocks:
#     Node 0, Type 0, BuildingBlock: BEQFEK_clean_sbu_0, # of connection points: 5
#     Node 1, Type 0, BuildingBlock: BEQFEK_clean_sbu_0, # of connection points: 5
#     Node 2, Type 0, BuildingBlock: BEQFEK_clean_sbu_0, # of connection points: 5
#     Node 3, Type 0, BuildingBlock: BEQFEK_clean_sbu_0, # of connection points: 5
#     Node 4, Type 0, BuildingBlock: BEQFEK_clean_sbu_0, # of connection points: 5
#     Node 5, Type 0, BuildingBlock: BEQFEK_clean_sbu_0, # of connection points: 5
#     Node 6, Type 0, BuildingBlock: BEQFEK_clean_sbu_0, # of connection points: 5
#     Node 7, Type 0, BuildingBlock: BEQFEK_clean_sbu_0, # of connection points: 5
#     Node 8, Type 0, BuildingBlock: BEQFEK_clean_sbu_0, # of connection points: 5
#     Node 9, Type 0, BuildingBlock: BEQFEK_clean_sbu_0, # of connection points: 5
#     Node 10, Type 0, BuildingBlock: BEQFEK_clean_sbu_0, # of connection points: 5
#     Node 11, Type 0, BuildingBlock: BEQFEK_clean_sbu_0, # of connection points: 5
#     Node 12, Type 0, BuildingBlock: BEQFEK_clean_sbu_0, # of connection points: 5
#     Node 13, Type 0, BuildingBlock: BEQFEK_clean_sbu_0, # of connection points: 5
#     Node 14, Type 0, BuildingBlock: BEQFEK_clean_sbu_0, # of connection points: 5
#     Node 15, Type 0, BuildingBlock: BEQFEK_clean_sbu_0, # of connection points: 5
#     Node 16, Type 0, BuildingBlock: BEQFEK_clean_sbu_0, # of connection points: 5
#     Node 17, Type 0, BuildingBlock: BEQFEK_clean_sbu_0, # of connection points: 5
#     Node 18, Type 0, BuildingBlock: BEQFEK_clean_sbu_0, # of connection points: 5
#     Node 19, Type 0, BuildingBlock: BEQFEK_clean_sbu_0, # of connection points: 5
#     Node 20, Type 0, BuildingBlock: BEQFEK_clean_sbu_0, # of connection points: 5
#     Node 21, Type 0, BuildingBlock: BEQFEK_clean_sbu_0, # of connection points: 5
#     Node 22, Type 0, BuildingBlock: BEQFEK_clean_sbu_0, # of connection points: 5
#     Node 23, Type 0, BuildingBlock: BEQFEK_clean_sbu_0, # of connection points: 5
#     Node 24, Type 0, BuildingBlock: BEQFEK_clean_sbu_0, # of connection points: 5
#     Node 25, Type 0, BuildingBlock: BEQFEK_clean_sbu_0, # of connection points: 5
#     Node 26, Type 0, BuildingBlock: BEQFEK_clean_sbu_0, # of connection points: 5
#     Node 27, Type 0, BuildingBlock: BEQFEK_clean_sbu_0, # of connection points: 5
#     Node 28, Type 0, BuildingBlock: BEQFEK_clean_sbu_0, # of connection points: 5
#     Node 29, Type 0, BuildingBlock: BEQFEK_clean_sbu_0, # of connection points: 5
#     Node 30, Type 0, BuildingBlock: BEQFEK_clean_sbu_0, # of connection points: 5
#     Node 31, Type 0, BuildingBlock: BEQFEK_clean_sbu_0, # of connection points: 5
#     Edge 32, Type (0, 0), BuildingBlock: KIFKEQ_clean_linker_1, # of connection points: 2
#     Edge 33, Type (0, 0), BuildingBlock: KIFKEQ_clean_linker_1, # of connection points: 2
#     Edge 34, Type (0, 0), BuildingBlock: KIFKEQ_clean_linker_1, # of connection points: 2
#     Edge 35, Type (0, 0), BuildingBlock: KIFKEQ_clean_linker_1, # of connection points: 2
#     Edge 36, Type (0, 0), BuildingBlock: KIFKEQ_clean_linker_1, # of connection points: 2
#     Edge 37, Type (0, 0), BuildingBlock: KIFKEQ_clean_linker_1, # of connection points: 2
#     Edge 38, Type (0, 0), BuildingBlock: KIFKEQ_clean_linker_1, # of connection points: 2
#     Edge 39, Type (0, 0), BuildingBlock: KIFKEQ_clean_linker_1, # of connection points: 2
#     Edge 40, Type (0, 0), BuildingBlock: KIFKEQ_clean_linker_1, # of connection points: 2
#     Edge 41, Type (0, 0), BuildingBlock: KIFKEQ_clean_linker_1, # of connection points: 2
#     Edge 42, Type (0, 0), BuildingBlock: KIFKEQ_clean_linker_1, # of connection points: 2
#     Edge 43, Type (0, 0), BuildingBlock: KIFKEQ_clean_linker_1, # of connection points: 2
#     Edge 44, Type (0, 0), BuildingBlock: KIFKEQ_clean_linker_1, # of connection points: 2
#     Edge 45, Type (0, 0), BuildingBlock: KIFKEQ_clean_linker_1, # of connection points: 2
#     Edge 46, Type (0, 0), BuildingBlock: KIFKEQ_clean_linker_1, # of connection points: 2
#     Edge 47, Type (0, 0), BuildingBlock: KIFKEQ_clean_linker_1, # of connection points: 2
#     Edge 48, Type (0, 0), BuildingBlock: KIFKEQ_clean_linker_1, # of connection points: 2
#     Edge 49, Type (0, 0), BuildingBlock: KIFKEQ_clean_linker_1, # of connection points: 2
#     Edge 50, Type (0, 0), BuildingBlock: KIFKEQ_clean_linker_1, # of connection points: 2
#     Edge 51, Type (0, 0), BuildingBlock: KIFKEQ_clean_linker_1, # of connection points: 2
#     Edge 52, Type (0, 0), BuildingBlock: KIFKEQ_clean_linker_1, # of connection points: 2
#     Edge 53, Type (0, 0), BuildingBlock: KIFKEQ_clean_linker_1, # of connection points: 2
#     Edge 54, Type (0, 0), BuildingBlock: KIFKEQ_clean_linker_1, # of connection points: 2
#     Edge 55, Type (0, 0), BuildingBlock: KIFKEQ_clean_linker_1, # of connection points: 2
#     Edge 56, Type (0, 0), BuildingBlock: KIFKEQ_clean_linker_1, # of connection points: 2
#     Edge 57, Type (0, 0), BuildingBlock: KIFKEQ_clean_linker_1, # of connection points: 2
#     Edge 58, Type (0, 0), BuildingBlock: KIFKEQ_clean_linker_1, # of connection points: 2
#     Edge 59, Type (0, 0), BuildingBlock: KIFKEQ_clean_linker_1, # of connection points: 2
#     Edge 60, Type (0, 0), BuildingBlock: KIFKEQ_clean_linker_1, # of connection points: 2
#     Edge 61, Type (0, 0), BuildingBlock: KIFKEQ_clean_linker_1, # of connection points: 2
#     Edge 62, Type (0, 0), BuildingBlock: KIFKEQ_clean_linker_1, # of connection points: 2
#     Edge 63, Type (0, 0), BuildingBlock: KIFKEQ_clean_linker_1, # of connection points: 2
#     Edge 64, Type (0, 0), BuildingBlock: KIFKEQ_clean_linker_1, # of connection points: 2
#     Edge 65, Type (0, 0), BuildingBlock: KIFKEQ_clean_linker_1, # of connection points: 2
#     Edge 66, Type (0, 0), BuildingBlock: KIFKEQ_clean_linker_1, # of connection points: 2
#     Edge 67, Type (0, 0), BuildingBlock: KIFKEQ_clean_linker_1, # of connection points: 2
#     Edge 68, Type (0, 0), BuildingBlock: KIFKEQ_clean_linker_1, # of connection points: 2
#     Edge 69, Type (0, 0), BuildingBlock: KIFKEQ_clean_linker_1, # of connection points: 2
#     Edge 70, Type (0, 0), BuildingBlock: KIFKEQ_clean_linker_1, # of connection points: 2
#     Edge 71, Type (0, 0), BuildingBlock: KIFKEQ_clean_linker_1, # of connection points: 2
#     Edge 72, Type (0, 0), BuildingBlock: KIFKEQ_clean_linker_1, # of connection points: 2
#     Edge 73, Type (0, 0), BuildingBlock: KIFKEQ_clean_linker_1, # of connection points: 2
#     Edge 74, Type (0, 0), BuildingBlock: KIFKEQ_clean_linker_1, # of connection points: 2
#     Edge 75, Type (0, 0), BuildingBlock: KIFKEQ_clean_linker_1, # of connection points: 2
#     Edge 76, Type (0, 0), BuildingBlock: KIFKEQ_clean_linker_1, # of connection points: 2
#     Edge 77, Type (0, 0), BuildingBlock: KIFKEQ_clean_linker_1, # of connection points: 2
#     Edge 78, Type (0, 0), BuildingBlock: KIFKEQ_clean_linker_1, # of connection points: 2
#     Edge 79, Type (0, 0), BuildingBlock: KIFKEQ_clean_linker_1, # of connection points: 2
#     Edge 80, Type (0, 0), BuildingBlock: KIFKEQ_clean_linker_1, # of connection points: 2
#     Edge 81, Type (0, 0), BuildingBlock: KIFKEQ_clean_linker_1, # of connection points: 2
#     Edge 82, Type (0, 0), BuildingBlock: KIFKEQ_clean_linker_1, # of connection points: 2
#     Edge 83, Type (0, 0), BuildingBlock: KIFKEQ_clean_linker_1, # of connection points: 2
#     Edge 84, Type (0, 0), BuildingBlock: KIFKEQ_clean_linker_1, # of connection points: 2
#     Edge 85, Type (0, 0), BuildingBlock: KIFKEQ_clean_linker_1, # of connection points: 2
#     Edge 86, Type (0, 0), BuildingBlock: KIFKEQ_clean_linker_1, # of connection points: 2
#     Edge 87, Type (0, 0), BuildingBlock: KIFKEQ_clean_linker_1, # of connection points: 2
#     Edge 88, Type (0, 0), BuildingBlock: KIFKEQ_clean_linker_1, # of connection points: 2
#     Edge 89, Type (0, 0), BuildingBlock: KIFKEQ_clean_linker_1, # of connection points: 2
#     Edge 90, Type (0, 0), BuildingBlock: KIFKEQ_clean_linker_1, # of connection points: 2
#     Edge 91, Type (0, 0), BuildingBlock: KIFKEQ_clean_linker_1, # of connection points: 2
#     Edge 92, Type (0, 0), BuildingBlock: KIFKEQ_clean_linker_1, # of connection points: 2
#     Edge 93, Type (0, 0), BuildingBlock: KIFKEQ_clean_linker_1, # of connection points: 2
#     Edge 94, Type (0, 0), BuildingBlock: KIFKEQ_clean_linker_1, # of connection points: 2
#     Edge 95, Type (0, 0), BuildingBlock: KIFKEQ_clean_linker_1, # of connection points: 2
#     Edge 96, Type (0, 0), BuildingBlock: KIFKEQ_clean_linker_1, # of connection points: 2
#     Edge 97, Type (0, 0), BuildingBlock: KIFKEQ_clean_linker_1, # of connection points: 2
#     Edge 98, Type (0, 0), BuildingBlock: KIFKEQ_clean_linker_1, # of connection points: 2
#     Edge 99, Type (0, 0), BuildingBlock: KIFKEQ_clean_linker_1, # of connection points: 2
#     Edge 100, Type (0, 0), BuildingBlock: KIFKEQ_clean_linker_1, # of connection points: 2
#     Edge 101, Type (0, 0), BuildingBlock: KIFKEQ_clean_linker_1, # of connection points: 2
#     Edge 102, Type (0, 0), BuildingBlock: KIFKEQ_clean_linker_1, # of connection points: 2
#     Edge 103, Type (0, 0), BuildingBlock: KIFKEQ_clean_linker_1, # of connection points: 2
#     Edge 104, Type (0, 0), BuildingBlock: KIFKEQ_clean_linker_1, # of connection points: 2
#     Edge 105, Type (0, 0), BuildingBlock: KIFKEQ_clean_linker_1, # of connection points: 2
#     Edge 106, Type (0, 0), BuildingBlock: KIFKEQ_clean_linker_1, # of connection points: 2
#     Edge 107, Type (0, 0), BuildingBlock: KIFKEQ_clean_linker_1, # of connection points: 2
#     Edge 108, Type (0, 0), BuildingBlock: KIFKEQ_clean_linker_1, # of connection points: 2
#     Edge 109, Type (0, 0), BuildingBlock: KIFKEQ_clean_linker_1, # of connection points: 2
#     Edge 110, Type (0, 0), BuildingBlock: KIFKEQ_clean_linker_1, # of connection points: 2
#     Edge 111, Type (0, 0), BuildingBlock: KIFKEQ_clean_linker_1, # of connection points: 2
# Relax obj value: 0.526
# Max RMSD: 0.229
# Mean RMSD: 0.229
data_MOF--net-yfm--node1-BEQFEK_clean_sbu_0--edge1-KIFKEQ_clean_linker_1
_symmetry_space_group_name_H-M    P1
_symmetry_Int_Tables_number       1
_symmetry_cell_setting            triclinic
loop_
_symmetry_equiv_pos_as_xyz
'x, y, z'
_cell_length_a     65.086615
_cell_length_b     65.080969
_cell_length_c     50.976092
_cell_angle_alpha  89.984324
_cell_angle_beta   89.993166
_cell_angle_gamma 90.014287
loop_
_atom_site_label
_atom_site_type_symbol
_atom_site_fract_x
_atom_site_fract_y
_atom_site_fract_z
_atom_type_partial_charge
Co0 Co 0.22815 0.13737 0.11976 0.0
Co1 Co 0.22943 0.11474 0.06476 0.0
C2 C 0.26566 0.11536 0.10099 0.0
O3 O 0.25597 0.12582 0.11794 0.0
O4 O 0.25721 0.11007 0.07955 0.0
C5 C 0.24461 0.16247 0.15995 0.0
O6 O 0.26081 0.16161 0.14463 0.0
C7 C 0.24801 0.10587 0.0138 0.0
C8 C 0.22374 0.08936 0.99221 0.0
C9 C 0.24402 0.09578 0.9903 0.0
N10 N 0.2311 0.10515 0.02899 0.0
N11 N 0.21657 0.09536 0.01587 0.0
C12 C 0.26726 0.11699 0.02135 0.0
H13 H 0.26366 0.12981 0.03495 0.0
H14 H 0.27521 0.1231 1.00373 0.0
H15 H 0.27774 0.10622 0.03158 0.0
C16 C 0.21902 0.17279 0.08611 0.0
N17 N 0.22222 0.15256 0.08928 0.0
N18 N 0.22256 0.14351 0.06615 0.0
C19 C 0.21953 0.15798 0.04747 0.0
C20 C 0.2173 0.17698 0.0596 0.0
C21 C 0.21865 0.18803 0.10809 0.0
H22 H 0.20918 0.18201 0.12446 0.0
H23 H 0.23454 0.19036 0.1154 0.0
H24 H 0.21237 0.20305 0.10159 0.0
O25 O 0.2088 0.11431 0.12414 0.0
O26 O 0.21006 0.0971 0.08639 0.0
H27 H 0.21111 0.14012 0.01388 0.0
H28 H 0.21425 0.16734 0.00738 0.0
C29 C 0.22025 0.15401 0.01861 0.0
H30 H 0.23638 0.15117 0.01262 0.0
H31 H 0.2019 0.09243 0.02323 0.0
O32 O 0.22789 0.15425 0.15236 0.0
C33 C 0.20344 0.09913 0.10991 0.0
Co34 Co 0.11485 0.97881 0.36962 0.0
Co35 Co 0.13745 0.98069 0.31465 0.0
C36 C 0.13631 0.01674 0.35126 0.0
O37 O 0.1257 0.00694 0.36799 0.0
O38 O 0.14191 0.00839 0.32986 0.0
C39 C 0.08862 0.99349 0.41012 0.0
O40 O 0.08754 0.00953 0.39453 0.0
C41 C 0.14552 0.99857 0.26253 0.0
C42 C 0.16246 0.97391 0.24217 0.0
C43 C 0.15535 0.99386 0.23899 0.0
N44 N 0.14672 0.98217 0.27863 0.0
N45 N 0.15671 0.96742 0.26621 0.0
C46 C 0.1372 0.01894 0.27113 0.0
H47 H 0.12416 0.01663 0.28484 0.0
H48 H 0.1321 0.02857 0.25453 0.0
H49 H 0.14948 0.02741 0.28164 0.0
C50 C 0.07981 0.96768 0.33622 0.0
N51 N 0.09978 0.97233 0.33927 0.0
N52 N 0.10874 0.9734 0.31613 0.0
C53 C 0.0944 0.96983 0.29749 0.0
C54 C 0.07565 0.96594 0.30963 0.0
C55 C 0.06473 0.96702 0.3584 0.0
H56 H 0.07101 0.9575 0.37456 0.0
H57 H 0.06241 0.98283 0.36594 0.0
H58 H 0.04962 0.96081 0.35235 0.0
O59 O 0.13809 0.95989 0.3736 0.0
O60 O 0.15536 0.96113 0.3359 0.0
H61 H 0.11215 0.96134 0.26386 0.0
H62 H 0.08504 0.9649 0.25727 0.0
C63 C 0.0984 0.97067 0.26862 0.0
H64 H 0.10156 0.98679 0.26284 0.0
H65 H 0.16007 0.95311 0.27438 0.0
O66 O 0.09844 0.97768 0.40248 0.0
C67 C 0.15322 0.95447 0.35939 0.0
Co68 Co 0.27641 0.86523 0.62143 0.0
Co69 Co 0.27158 0.88694 0.56621 0.0
C70 C 0.23701 0.88516 0.60454 0.0
O71 O 0.24817 0.87591 0.6212 0.0
O72 O 0.24389 0.89005 0.58204 0.0
C73 C 0.26288 0.83888 0.66225 0.0
O74 O 0.24684 0.83728 0.64673 0.0
C75 C 0.25218 0.89544 0.51528 0.0
C76 C 0.27634 0.91178 0.49324 0.0
C77 C 0.25606 0.90532 0.49156 0.0
N78 N 0.26915 0.89632 0.53034 0.0
N79 N 0.2836 0.90602 0.51694 0.0
C80 C 0.23299 0.88437 0.52315 0.0
H81 H 0.23666 0.87169 0.53693 0.0
H82 H 0.22496 0.87809 0.5057 0.0
H83 H 0.22258 0.89529 0.53324 0.0
C84 C 0.28729 0.83009 0.58788 0.0
N85 N 0.28222 0.84997 0.59088 0.0
N86 N 0.28006 0.85862 0.56767 0.0
C87 C 0.28335 0.84419 0.54907 0.0
C88 C 0.28815 0.82567 0.56127 0.0
C89 C 0.28909 0.81527 0.61025 0.0
H90 H 0.27356 0.81223 0.61828 0.0
H91 H 0.29594 0.80044 0.60424 0.0
H92 H 0.29857 0.82216 0.62604 0.0
O93 O 0.29496 0.88883 0.62435 0.0
O94 O 0.29068 0.90581 0.58681 0.0
H95 H 0.28734 0.83466 0.50875 0.0
H96 H 0.26498 0.85028 0.51527 0.0
C97 C 0.28139 0.84787 0.52022 0.0
H98 H 0.28996 0.86196 0.51476 0.0
H99 H 0.29831 0.90901 0.52413 0.0
O100 O 0.27842 0.84905 0.65442 0.0
C101 C 0.29868 0.90421 0.60968 0.0
Co102 Co 0.38681 0.02344 0.86899 0.0
Co103 Co 0.36419 0.02159 0.81404 0.0
C104 C 0.36636 0.98513 0.84993 0.0
O105 O 0.37672 0.99505 0.86682 0.0
O106 O 0.36045 0.99357 0.82871 0.0
C107 C 0.41293 0.00926 0.91017 0.0
O108 O 0.41421 0.99297 0.89505 0.0
C109 C 0.356 0.00446 0.76153 0.0
C110 C 0.33877 0.02937 0.74203 0.0
C111 C 0.346 0.00954 0.73823 0.0
N112 N 0.35479 0.02056 0.77809 0.0
N113 N 0.34462 0.03545 0.76619 0.0
C114 C 0.3645 0.98398 0.76942 0.0
H115 H 0.37777 0.98612 0.7828 0.0
H116 H 0.36927 0.97461 0.75242 0.0
H117 H 0.35243 0.97536 0.78014 0.0
C118 C 0.42167 0.0352 0.83566 0.0
N119 N 0.40171 0.03051 0.83871 0.0
N120 N 0.39274 0.02944 0.81558 0.0
C121 C 0.40706 0.03312 0.79693 0.0
C122 C 0.42581 0.03701 0.80906 0.0
C123 C 0.43678 0.03555 0.8578 0.0
H124 H 0.43885 0.01968 0.86528 0.0
H125 H 0.45198 0.04156 0.85176 0.0
H126 H 0.43066 0.0451 0.87403 0.0
O127 O 0.36314 0.04179 0.87323 0.0
O128 O 0.34591 0.04053 0.83554 0.0
H129 H 0.41639 0.03805 0.7567 0.0
H130 H 0.40016 0.01596 0.76236 0.0
C131 C 0.4031 0.03214 0.76807 0.0
H132 H 0.38923 0.04128 0.76323 0.0
H133 H 0.34121 0.04959 0.77481 0.0
O134 O 0.40308 0.02489 0.90198 0.0
C135 C 0.3479 0.04703 0.8591 0.0
Co136 Co 0.22978 0.86604 0.8957 0.0
Co137 Co 0.23314 0.88746 0.95133 0.0
C138 C 0.26884 0.88559 0.91461 0.0
O139 O 0.25827 0.87603 0.8976 0.0
O140 O 0.26109 0.89089 0.9365 0.0
C141 C 0.24386 0.83985 0.85488 0.0
O142 O 0.25972 0.83807 0.87067 0.0
C143 C 0.25062 0.89543 1.00383 0.0
C144 C 0.22528 0.9114 0.02415 0.0
C145 C 0.24539 0.90484 0.02748 0.0
N146 N 0.23433 0.89632 0.98753 0.0
N147 N 0.21919 0.90574 0.99992 0.0
C148 C 0.27131 0.88783 0.9954 0.0
H149 H 0.27892 0.90002 0.98374 0.0
H150 H 0.26952 0.87409 0.98271 0.0
H151 H 0.28144 0.88407 0.01211 0.0
C152 C 0.21762 0.83082 0.92829 0.0
N153 N 0.2229 0.85068 0.92571 0.0
N154 N 0.22465 0.85913 0.94909 0.0
C155 C 0.22093 0.84456 0.96739 0.0
C156 C 0.21621 0.82618 0.9548 0.0
C157 C 0.21621 0.81619 0.90568 0.0
H158 H 0.2319 0.81311 0.89816 0.0
H159 H 0.20914 0.80135 0.91128 0.0
H160 H 0.20712 0.82325 0.88965 0.0
O161 O 0.21158 0.88995 0.89224 0.0
O162 O 0.21465 0.90651 0.93031 0.0
H163 H 0.21715 0.83436 0.00751 0.0
H164 H 0.23879 0.85116 1.00148 0.0
C165 C 0.22255 0.84796 0.99632 0.0
H166 H 0.21326 0.86155 1.00193 0.0
H167 H 0.20485 0.90876 0.99161 0.0
O168 O 0.22832 0.85011 0.86247 0.0
C169 C 0.2074 0.90512 0.90705 0.0
Co170 Co 0.38773 0.9789 0.14485 0.0
Co171 Co 0.3659 0.98098 0.20036 0.0
C172 C 0.36631 0.0168 0.16328 0.0
O173 O 0.37666 0.00692 0.14634 0.0
O174 O 0.36113 0.00859 0.18496 0.0
C175 C 0.41339 0.99329 0.10342 0.0
O176 O 0.41467 0.00955 0.11861 0.0
C177 C 0.35768 0.99893 0.25248 0.0
C178 C 0.34175 0.97379 0.27324 0.0
C179 C 0.34818 0.99398 0.27617 0.0
N180 N 0.35694 0.98242 0.23652 0.0
N181 N 0.34755 0.96739 0.24919 0.0
C182 C 0.36522 0.01955 0.24366 0.0
H183 H 0.35263 0.02746 0.23305 0.0
H184 H 0.37835 0.01767 0.22998 0.0
H185 H 0.36993 0.02948 0.26017 0.0
C186 C 0.42359 0.96973 0.17787 0.0
N187 N 0.40335 0.97315 0.17503 0.0
N188 N 0.39461 0.97397 0.19834 0.0
C189 C 0.40929 0.97114 0.21679 0.0
C190 C 0.42809 0.96844 0.20434 0.0
C191 C 0.43855 0.96868 0.15563 0.0
H192 H 0.43195 0.95953 0.13934 0.0
H193 H 0.4416 0.98445 0.14835 0.0
H194 H 0.45331 0.96168 0.1619 0.0
O195 O 0.36453 0.95973 0.14159 0.0
O196 O 0.34787 0.96131 0.17968 0.0
H197 H 0.3925 0.96283 0.25128 0.0
H198 H 0.41952 0.96792 0.25693 0.0
C199 C 0.40571 0.97267 0.24569 0.0
H200 H 0.40186 0.98878 0.25078 0.0
H201 H 0.34463 0.95294 0.24116 0.0
O202 O 0.40368 0.97758 0.11163 0.0
C203 C 0.3496 0.95445 0.15625 0.0
Co204 Co 0.27393 0.13741 0.39432 0.0
Co205 Co 0.27256 0.11511 0.44955 0.0
C206 C 0.2362 0.11594 0.41365 0.0
O207 O 0.24597 0.12621 0.39657 0.0
O208 O 0.24465 0.11065 0.43509 0.0
C209 C 0.25757 0.16224 0.35372 0.0
O210 O 0.24129 0.1614 0.36892 0.0
C211 C 0.25426 0.10695 0.5009 0.0
C212 C 0.27811 0.08941 0.52193 0.0
C213 C 0.2581 0.09656 0.52429 0.0
N214 N 0.27097 0.10566 0.48541 0.0
N215 N 0.28525 0.09526 0.4982 0.0
C216 C 0.23539 0.11881 0.49364 0.0
H217 H 0.23937 0.13144 0.47991 0.0
H218 H 0.22789 0.12526 0.51136 0.0
H219 H 0.22439 0.10844 0.4836 0.0
C220 C 0.28503 0.17263 0.42726 0.0
N221 N 0.28053 0.1526 0.42455 0.0
N222 N 0.27984 0.14379 0.44781 0.0
C223 C 0.28368 0.15826 0.4662 0.0
C224 C 0.2872 0.17697 0.45375 0.0
C225 C 0.28515 0.18756 0.40489 0.0
H226 H 0.29548 0.18182 0.38922 0.0
H227 H 0.26943 0.18863 0.39663 0.0
H228 H 0.29011 0.20314 0.41093 0.0
O229 O 0.29297 0.11416 0.38998 0.0
O230 O 0.29172 0.09717 0.42792 0.0
H231 H 0.29219 0.14009 0.49951 0.0
H232 H 0.29059 0.16744 0.50597 0.0
C233 C 0.28361 0.15441 0.49512 0.0
H234 H 0.26755 0.15235 0.50187 0.0
H235 H 0.2997 0.09177 0.49054 0.0
O236 O 0.27429 0.15414 0.36153 0.0
C237 C 0.29828 0.09904 0.40434 0.0
Co238 Co 0.1157 0.02569 0.64305 0.0
Co239 Co 0.13744 0.0202 0.69829 0.0
C240 C 0.13575 0.98612 0.65944 0.0
O241 O 0.12685 0.99759 0.64279 0.0
O242 O 0.14023 0.99259 0.68227 0.0
C243 C 0.08906 0.01228 0.60251 0.0
O244 O 0.08742 0.99627 0.61808 0.0
C245 C 0.15473 0.00201 0.74696 0.0
C246 C 0.14982 0.0266 0.77603 0.0
C247 C 0.15641 0.00642 0.77366 0.0
N248 N 0.14675 0.01845 0.73448 0.0
N249 N 0.14433 0.03325 0.75197 0.0
C250 C 0.1623 0.98322 0.73306 0.0
H251 H 0.14921 0.97262 0.7297 0.0
H252 H 0.17431 0.9752 0.74462 0.0
H253 H 0.169 0.98753 0.71384 0.0
C254 C 0.08017 0.03471 0.67651 0.0
N255 N 0.10031 0.03074 0.67363 0.0
N256 N 0.10874 0.0279 0.69688 0.0
C257 C 0.09374 0.02928 0.71524 0.0
C258 C 0.0753 0.0339 0.70287 0.0
C259 C 0.06551 0.03796 0.65429 0.0
H260 H 0.06109 0.02283 0.64604 0.0
H261 H 0.05138 0.04591 0.66105 0.0
H262 H 0.07294 0.04718 0.63865 0.0
O263 O 0.13878 0.0447 0.64051 0.0
O264 O 0.15612 0.03967 0.6776 0.0
H265 H 0.10225 0.03728 0.75433 0.0
H266 H 0.08134 0.01935 0.75245 0.0
C267 C 0.09627 0.02376 0.74354 0.0
H268 H 0.10728 0.01087 0.74564 0.0
H269 H 0.13837 0.04774 0.74761 0.0
O270 O 0.09946 0.02772 0.61016 0.0
C271 C 0.15424 0.04821 0.65507 0.0
Co272 Co 0.77742 0.86523 0.89552 0.0
Co273 Co 0.77411 0.88754 0.9506 0.0
C274 C 0.73862 0.88558 0.91337 0.0
O275 O 0.74906 0.87545 0.89679 0.0
O276 O 0.74639 0.89125 0.9351 0.0
C277 C 0.76352 0.83896 0.85463 0.0
O278 O 0.74747 0.83737 0.87013 0.0
C279 C 0.75592 0.89584 1.00264 0.0
C280 C 0.7808 0.91233 0.0232 0.0
C281 C 0.76073 0.90555 0.02624 0.0
N282 N 0.7724 0.89679 0.98664 0.0
N283 N 0.78726 0.90653 0.99918 0.0
C284 C 0.73544 0.88787 0.99393 0.0
H285 H 0.72751 0.9001 0.9827 0.0
H286 H 0.73756 0.87443 0.98081 0.0
H287 H 0.72543 0.8835 0.01052 0.0
C288 C 0.78862 0.83025 0.92895 0.0
N289 N 0.78387 0.8502 0.92591 0.0
N290 N 0.78208 0.85899 0.94909 0.0
C291 C 0.78523 0.84453 0.96772 0.0
C292 C 0.78962 0.8259 0.95555 0.0
C293 C 0.78982 0.8153 0.90668 0.0
H294 H 0.7741 0.81239 0.89916 0.0
H295 H 0.79662 0.80043 0.91266 0.0
H296 H 0.79909 0.82198 0.89054 0.0
O297 O 0.79577 0.88892 0.89192 0.0
O298 O 0.79328 0.90608 0.92958 0.0
H299 H 0.78845 0.83474 0.00806 0.0
H300 H 0.7669 0.85144 1.0013 0.0
C301 C 0.78322 0.84824 0.99655 0.0
H302 H 0.79242 0.86189 1.00215 0.0
H303 H 0.80167 0.90965 0.99112 0.0
O304 O 0.7791 0.84905 0.86251 0.0
C305 C 0.8004 0.90423 0.90628 0.0
Co306 Co 0.88652 0.02621 0.64463 0.0
Co307 Co 0.8642 0.02414 0.69984 0.0
C308 C 0.86581 0.98798 0.66374 0.0
O309 O 0.87589 0.998 0.64672 0.0
O310 O 0.8603 0.99626 0.68518 0.0
C311 C 0.91174 0.01039 0.60411 0.0
O312 O 0.9113 0.99414 0.61938 0.0
C313 C 0.85623 0.00531 0.75098 0.0
C314 C 0.83892 0.02899 0.7726 0.0
C315 C 0.84609 0.00897 0.77456 0.0
N316 N 0.85482 0.02215 0.73573 0.0
N317 N 0.84455 0.03633 0.74887 0.0
C318 C 0.86804 0.98649 0.7434 0.0
H319 H 0.8806 0.99054 0.72961 0.0
H320 H 0.87459 0.97885 0.76098 0.0
H321 H 0.85761 0.97555 0.73336 0.0
C322 C 0.92157 0.03747 0.67777 0.0
N323 N 0.90155 0.03296 0.67493 0.0
N324 N 0.89276 0.03187 0.69818 0.0
C325 C 0.90724 0.03537 0.71666 0.0
C326 C 0.92592 0.03914 0.7043 0.0
C327 C 0.93654 0.03787 0.65546 0.0
H328 H 0.93829 0.02208 0.64761 0.0
H329 H 0.95187 0.04356 0.6615 0.0
H330 H 0.93047 0.04775 0.63952 0.0
O331 O 0.86291 0.04479 0.64037 0.0
O332 O 0.8459 0.04306 0.67827 0.0
H333 H 0.88922 0.04284 0.75049 0.0
H334 H 0.91659 0.04114 0.75665 0.0
C335 C 0.90352 0.03444 0.74558 0.0
H336 H 0.90157 0.01818 0.75159 0.0
H337 H 0.84104 0.05086 0.74147 0.0
O338 O 0.90325 0.02693 0.61185 0.0
C339 C 0.84767 0.04974 0.65473 0.0
Co340 Co 0.72624 0.13669 0.39415 0.0
Co341 Co 0.7292 0.11494 0.44965 0.0
C342 C 0.76503 0.11685 0.41295 0.0
O343 O 0.75472 0.12674 0.39599 0.0
O344 O 0.75704 0.11134 0.43461 0.0
C345 C 0.74021 0.16288 0.35311 0.0
O346 O 0.75623 0.16455 0.36863 0.0
C347 C 0.74708 0.10716 0.50198 0.0
C348 C 0.72236 0.09023 0.52229 0.0
C349 C 0.74229 0.09734 0.52553 0.0
N350 N 0.73072 0.10593 0.48581 0.0
N351 N 0.71594 0.09595 0.49821 0.0
C352 C 0.76749 0.11545 0.49348 0.0
H353 H 0.76525 0.12853 0.47981 0.0
H354 H 0.77708 0.12048 0.51015 0.0
H355 H 0.77593 0.10317 0.48297 0.0
C356 C 0.71459 0.17194 0.42701 0.0
N357 N 0.7194 0.15196 0.42429 0.0
N358 N 0.72103 0.14338 0.44761 0.0
C359 C 0.7177 0.15796 0.46601 0.0
C360 C 0.71339 0.1765 0.45356 0.0
C361 C 0.7136 0.18673 0.40454 0.0
H362 H 0.72938 0.18956 0.39719 0.0
H363 H 0.70677 0.20166 0.41024 0.0
H364 H 0.70445 0.17994 0.38836 0.0
O365 O 0.70811 0.11273 0.39051 0.0
O366 O 0.71042 0.09611 0.4286 0.0
H367 H 0.7139 0.16795 0.50618 0.0
H368 H 0.73577 0.15154 0.49997 0.0
C369 C 0.71946 0.15446 0.49491 0.0
H370 H 0.7104 0.14071 0.50051 0.0
H371 H 0.70166 0.09255 0.48998 0.0
O372 O 0.72468 0.15269 0.36095 0.0
C373 C 0.70353 0.09755 0.40514 0.0
Co374 Co 0.61671 0.97722 0.14531 0.0
Co375 Co 0.63899 0.97915 0.20063 0.0
C376 C 0.63745 0.01543 0.16473 0.0
O377 O 0.62738 0.0054 0.14768 0.0
O378 O 0.64296 0.00715 0.18621 0.0
C379 C 0.59194 0.99285 0.10399 0.0
O380 O 0.59273 0.00948 0.11856 0.0
C381 C 0.64685 0.99641 0.25315 0.0
C382 C 0.66427 0.97175 0.27287 0.0
C383 C 0.65687 0.99154 0.27652 0.0
N384 N 0.64822 0.98023 0.23671 0.0
N385 N 0.6585 0.96548 0.24875 0.0
C386 C 0.63821 0.01678 0.24506 0.0
H387 H 0.65034 0.02558 0.23471 0.0
H388 H 0.62517 0.01448 0.23135 0.0
H389 H 0.63302 0.02606 0.26193 0.0
C390 C 0.58164 0.96583 0.17832 0.0
N391 N 0.60166 0.97038 0.17554 0.0
N392 N 0.61043 0.97145 0.1988 0.0
C393 C 0.59593 0.96787 0.21725 0.0
C394 C 0.57727 0.96405 0.20485 0.0
C395 C 0.56672 0.96554 0.15596 0.0
H396 H 0.57252 0.95518 0.14035 0.0
H397 H 0.56558 0.98123 0.14759 0.0
H398 H 0.55118 0.96052 0.16204 0.0
O399 O 0.64027 0.95863 0.14103 0.0
O400 O 0.65728 0.9603 0.17891 0.0
H401 H 0.6135 0.95969 0.25116 0.0
H402 H 0.58628 0.96287 0.25734 0.0
C403 C 0.59966 0.96881 0.24616 0.0
H404 H 0.60252 0.98499 0.25194 0.0
H405 H 0.66207 0.95134 0.24024 0.0
O406 O 0.60006 0.97634 0.11246 0.0
C407 C 0.6555 0.95364 0.15537 0.0
Co408 Co 0.77253 0.13801 0.11944 0.0
Co409 Co 0.77058 0.11533 0.06454 0.0
C410 C 0.73471 0.11642 0.10168 0.0
O411 O 0.74446 0.12711 0.11836 0.0
O412 O 0.74306 0.11083 0.08029 0.0
C413 C 0.75823 0.16417 0.16025 0.0
O414 O 0.7421 0.16541 0.14483 0.0
C415 C 0.7511 0.10652 0.01395 0.0
C416 C 0.77523 0.09044 0.99158 0.0
C417 C 0.75487 0.09667 0.99021 0.0
N418 N 0.76823 0.10585 0.02874 0.0
N419 N 0.78266 0.09631 0.01515 0.0
C420 C 0.73188 0.11744 0.02203 0.0
H421 H 0.73557 0.13022 0.03565 0.0
H422 H 0.72364 0.12357 1.00465 0.0
H423 H 0.72163 0.10651 0.03239 0.0
C424 C 0.78186 0.17335 0.08561 0.0
N425 N 0.77835 0.15317 0.0889 0.0
N426 N 0.77767 0.14407 0.06581 0.0
C427 C 0.7807 0.15846 0.04703 0.0
C428 C 0.78336 0.17744 0.05905 0.0
C429 C 0.78281 0.18864 0.10749 0.0
H430 H 0.79188 0.18227 0.12401 0.0
H431 H 0.767 0.19179 0.11456 0.0
H432 H 0.78984 0.20331 0.10092 0.0
O433 O 0.7916 0.11477 0.12305 0.0
O434 O 0.79034 0.09749 0.08537 0.0
H435 H 0.78887 0.14067 0.0133 0.0
H436 H 0.78524 0.16782 1.00678 0.0
C437 C 0.7796 0.15444 0.0182 0.0
H438 H 0.76343 0.15131 0.01264 0.0
H439 H 0.79747 0.09349 0.02212 0.0
O440 O 0.77395 0.15433 0.15235 0.0
C441 C 0.79706 0.09966 0.10881 0.0
Co442 Co 0.61445 0.01952 0.86874 0.0
Co443 Co 0.63713 0.01975 0.81367 0.0
C444 C 0.63771 0.98302 0.84915 0.0
O445 O 0.62686 0.99217 0.86622 0.0
O446 O 0.64283 0.99189 0.82789 0.0
C447 C 0.59045 0.00222 0.90975 0.0
O448 O 0.59212 0.98577 0.895 0.0
C449 C 0.64574 0.0033 0.76105 0.0
C450 C 0.66186 0.02888 0.74143 0.0
C451 C 0.65537 0.00879 0.73765 0.0
N452 N 0.64643 0.01941 0.77764 0.0
N453 N 0.65594 0.03471 0.76568 0.0
C454 C 0.6381 0.98249 0.769 0.0
H455 H 0.65059 0.9743 0.77946 0.0
H456 H 0.62489 0.98409 0.78261 0.0
H457 H 0.63349 0.97297 0.75205 0.0
C458 C 0.57879 0.02815 0.83551 0.0
N459 N 0.59908 0.02532 0.83851 0.0
N460 N 0.60812 0.02564 0.81536 0.0
C461 C 0.59356 0.02875 0.79683 0.0
C462 C 0.57454 0.03032 0.80907 0.0
C463 C 0.56367 0.0281 0.85764 0.0
H464 H 0.56187 0.01216 0.86503 0.0
H465 H 0.54844 0.03396 0.85133 0.0
H466 H 0.56953 0.03774 0.87392 0.0
O467 O 0.63672 0.03963 0.87324 0.0
O468 O 0.65412 0.03958 0.83559 0.0
H469 H 0.58384 0.03396 0.75683 0.0
H470 H 0.60153 0.01294 0.76161 0.0
C471 C 0.59754 0.02874 0.76795 0.0
H472 H 0.61076 0.0389 0.76346 0.0
H473 H 0.65886 0.04896 0.7743 0.0
O474 O 0.59772 0.01919 0.90151 0.0
C475 C 0.65167 0.04583 0.8592 0.0
Co476 Co 0.72973 0.86662 0.62099 0.0
Co477 Co 0.73188 0.88787 0.56509 0.0
C478 C 0.76776 0.88757 0.60191 0.0
O479 O 0.7578 0.87752 0.61906 0.0
O480 O 0.75956 0.89262 0.58018 0.0
C481 C 0.74447 0.8409 0.66197 0.0
O482 O 0.76036 0.83942 0.64618 0.0
C483 C 0.74973 0.89587 0.5128 0.0
C484 C 0.72434 0.91118 0.4918 0.0
C485 C 0.74463 0.90506 0.48896 0.0
N486 N 0.73321 0.89649 0.52876 0.0
N487 N 0.71803 0.9055 0.51595 0.0
C488 C 0.77048 0.88878 0.52173 0.0
H489 H 0.77801 0.90149 0.53253 0.0
H490 H 0.76882 0.87553 0.53526 0.0
H491 H 0.78062 0.88443 0.50527 0.0
C492 C 0.72037 0.83049 0.5887 0.0
N493 N 0.72376 0.85076 0.59112 0.0
N494 N 0.7248 0.85917 0.56762 0.0
C495 C 0.72225 0.84422 0.54948 0.0
C496 C 0.71948 0.82557 0.56233 0.0
C497 C 0.71892 0.81586 0.61128 0.0
H498 H 0.71007 0.82295 0.6275 0.0
H499 H 0.73462 0.81232 0.61846 0.0
H500 H 0.71139 0.80128 0.60534 0.0
O501 O 0.71066 0.88987 0.62407 0.0
O502 O 0.71235 0.90618 0.58572 0.0
H503 H 0.71446 0.86034 0.51428 0.0
H504 H 0.72005 0.83333 0.50949 0.0
C505 C 0.72435 0.84737 0.52055 0.0
H506 H 0.74051 0.85139 0.51592 0.0
H507 H 0.70353 0.90827 0.52392 0.0
O508 O 0.72874 0.85086 0.65438 0.0
C509 C 0.70548 0.90469 0.60918 0.0
Co510 Co 0.88702 0.98071 0.37002 0.0
Co511 Co 0.86447 0.98154 0.31495 0.0
C512 C 0.86481 0.01796 0.35096 0.0
O513 O 0.87536 0.00846 0.368 0.0
O514 O 0.85955 0.00932 0.32964 0.0
C515 C 0.91194 0.99738 0.41029 0.0
O516 O 0.911 0.01357 0.39495 0.0
C517 C 0.85584 1.0001 0.26391 0.0
C518 C 0.83941 0.97586 0.24218 0.0
C519 C 0.84587 0.99613 0.24031 0.0
N520 N 0.85501 0.9832 0.2791 0.0
N521 N 0.84526 0.96868 0.2659 0.0
C522 C 0.86698 0.01932 0.27155 0.0
H523 H 0.87972 0.01569 0.28525 0.0
H524 H 0.8732 0.02726 0.25398 0.0
H525 H 0.85618 0.02984 0.28168 0.0
C526 C 0.92255 0.97163 0.33656 0.0
N527 N 0.9023 0.97476 0.33963 0.0
N528 N 0.89328 0.97488 0.31648 0.0
C529 C 0.90778 0.97174 0.29788 0.0
C530 C 0.92677 0.96972 0.31007 0.0
C531 C 0.93774 0.97137 0.35859 0.0
H532 H 0.9317 0.96193 0.37498 0.0
H533 H 0.94 0.98728 0.36584 0.0
H534 H 0.95278 0.96509 0.3522 0.0
O535 O 0.86409 0.9612 0.37437 0.0
O536 O 0.84694 0.96201 0.33654 0.0
H537 H 0.88996 0.96291 0.26442 0.0
H538 H 0.91716 0.96607 0.25788 0.0
C539 C 0.90382 0.97215 0.269 0.0
H540 H 0.90094 0.9882 0.26273 0.0
H541 H 0.84226 0.95402 0.27324 0.0
O542 O 0.90384 0.9806 0.4027 0.0
C543 C 0.84902 0.95556 0.36013 0.0
Co544 Co 0.72428 0.63558 0.62031 0.0
Co545 Co 0.72926 0.61371 0.56496 0.0
C546 C 0.76421 0.61683 0.60275 0.0
O547 O 0.75295 0.62601 0.61938 0.0
O548 O 0.75714 0.61135 0.58055 0.0
C549 C 0.73752 0.66229 0.66102 0.0
O550 O 0.75338 0.6644 0.64528 0.0
C551 C 0.74722 0.59728 0.51566 0.0
C552 C 0.72205 0.60128 0.48721 0.0
C553 C 0.74253 0.59557 0.48906 0.0
N554 N 0.73067 0.60451 0.52861 0.0
N555 N 0.71552 0.60636 0.51149 0.0
C556 C 0.76641 0.59026 0.52904 0.0
H557 H 0.76245 0.58297 0.54804 0.0
H558 H 0.77645 0.60373 0.53273 0.0
H559 H 0.77485 0.57883 0.51703 0.0
C560 C 0.71308 0.67059 0.58702 0.0
N561 N 0.71782 0.65061 0.58984 0.0
N562 N 0.72093 0.64228 0.56659 0.0
C563 C 0.71916 0.65725 0.54827 0.0
C564 C 0.7138 0.67556 0.5606 0.0
C565 C 0.71053 0.68514 0.60953 0.0
H566 H 0.70176 0.6776 0.6255 0.0
H567 H 0.72592 0.6894 0.61713 0.0
H568 H 0.70248 0.6994 0.6036 0.0
O569 O 0.70642 0.61157 0.62364 0.0
O570 O 0.7105 0.59468 0.58604 0.0
H571 H 0.72725 0.66949 0.51011 0.0
H572 H 0.73745 0.64426 0.51739 0.0
C573 C 0.72403 0.65457 0.51978 0.0
H574 H 0.71058 0.64762 0.50984 0.0
H575 H 0.70085 0.61166 0.51624 0.0
O576 O 0.72223 0.65167 0.65338 0.0
C577 C 0.70273 0.59616 0.60905 0.0
Co578 Co 0.61511 0.47741 0.86982 0.0
Co579 Co 0.63691 0.47954 0.81433 0.0
C580 C 0.63539 0.5158 0.85037 0.0
O581 O 0.62538 0.50574 0.86747 0.0
O582 O 0.64084 0.50755 0.82884 0.0
C583 C 0.58935 0.49194 0.91107 0.0
O584 O 0.58795 0.50806 0.89565 0.0
C585 C 0.64491 0.4965 0.76159 0.0
C586 C 0.66199 0.47145 0.74218 0.0
C587 C 0.65489 0.49132 0.73831 0.0
N588 N 0.64603 0.48043 0.77822 0.0
N589 N 0.6561 0.46544 0.76637 0.0
C590 C 0.63657 0.51705 0.7694 0.0
H591 H 0.64881 0.52574 0.77969 0.0
H592 H 0.62347 0.51506 0.7831 0.0
H593 H 0.63157 0.52628 0.75235 0.0
C594 C 0.57981 0.46564 0.8372 0.0
N595 N 0.59978 0.47045 0.83981 0.0
N596 N 0.6084 0.47166 0.81647 0.0
C597 C 0.59384 0.46799 0.79815 0.0
C598 C 0.57528 0.46393 0.8107 0.0
C599 C 0.56503 0.46501 0.85971 0.0
H600 H 0.57155 0.45555 0.87578 0.0
H601 H 0.56279 0.48083 0.86725 0.0
H602 H 0.54985 0.45875 0.85401 0.0
O603 O 0.63881 0.459 0.87374 0.0
O604 O 0.65544 0.46072 0.83564 0.0
H605 H 0.61116 0.45984 0.76403 0.0
H606 H 0.58394 0.46326 0.75809 0.0
C607 C 0.59742 0.46905 0.7692 0.0
H608 H 0.6004 0.48523 0.76352 0.0
H609 H 0.65945 0.45132 0.77505 0.0
O610 O 0.59914 0.47622 0.90306 0.0
C611 C 0.6539 0.45405 0.85918 0.0
Co612 Co 0.77444 0.36601 0.11869 0.0
Co613 Co 0.77192 0.38802 0.06338 0.0
C614 C 0.73592 0.38635 0.1 0.0
O615 O 0.74604 0.3762 0.1169 0.0
O616 O 0.74408 0.39193 0.07846 0.0
C617 C 0.76058 0.34003 0.16012 0.0
O618 O 0.74424 0.33861 0.14508 0.0
C619 C 0.75429 0.39605 0.01107 0.0
C620 C 0.77926 0.41268 0.99085 0.0
C621 C 0.75926 0.40577 0.98753 0.0
N622 N 0.7706 0.39712 0.02731 0.0
N623 N 0.78553 0.40692 0.01498 0.0
C624 C 0.73377 0.38799 0.01949 0.0
H625 H 0.7256 0.40023 0.03045 0.0
H626 H 0.73584 0.37465 0.0328 0.0
H627 H 0.72398 0.38343 1.00277 0.0
C628 C 0.78593 0.33083 0.08569 0.0
N629 N 0.78115 0.35079 0.08851 0.0
N630 N 0.77979 0.35952 0.06525 0.0
C631 C 0.78334 0.34505 0.04677 0.0
C632 C 0.78748 0.32644 0.05913 0.0
C633 C 0.78668 0.31593 0.10807 0.0
H634 H 0.79632 0.32233 0.12404 0.0
H635 H 0.77092 0.31374 0.11583 0.0
H636 H 0.7928 0.30075 0.10218 0.0
O637 O 0.79284 0.38975 0.12238 0.0
O638 O 0.79102 0.40647 0.08435 0.0
H639 H 0.79136 0.36249 0.01269 0.0
H640 H 0.78775 0.33533 1.00658 0.0
C641 C 0.7821 0.34877 0.01787 0.0
H642 H 0.76591 0.35187 0.01239 0.0
H643 H 0.79983 0.41015 0.02327 0.0
O644 O 0.77612 0.34996 0.15181 0.0
C645 C 0.79781 0.40484 0.10782 0.0
Co646 Co 0.8849 0.52662 0.36816 0.0
Co647 Co 0.86405 0.52229 0.3123 0.0
C648 C 0.8664 0.48694 0.34947 0.0
O649 O 0.87556 0.49786 0.36649 0.0
O650 O 0.86113 0.49438 0.32739 0.0
C651 C 0.91092 0.51366 0.40991 0.0
O652 O 0.91314 0.4975 0.39472 0.0
C653 C 0.85622 0.5045 0.25987 0.0
C654 C 0.8406 0.52989 0.2392 0.0
C655 C 0.84698 0.50971 0.23611 0.0
N656 N 0.8554 0.52087 0.27603 0.0
N657 N 0.84619 0.53604 0.26343 0.0
C658 C 0.86356 0.48377 0.26851 0.0
H659 H 0.8513 0.47643 0.28035 0.0
H660 H 0.87737 0.48545 0.28108 0.0
H661 H 0.86709 0.47346 0.2519 0.0
C662 C 0.92031 0.53871 0.33581 0.0
N663 N 0.90041 0.5335 0.33823 0.0
N664 N 0.8922 0.53127 0.31478 0.0
C665 C 0.90698 0.53456 0.29662 0.0
C666 C 0.92524 0.53952 0.30935 0.0
C667 C 0.93476 0.54038 0.35857 0.0
H668 H 0.92749 0.54945 0.37447 0.0
H669 H 0.938 0.52476 0.36621 0.0
H670 H 0.94954 0.54763 0.35307 0.0
O671 O 0.86057 0.54431 0.37107 0.0
O672 O 0.84441 0.54045 0.33286 0.0
H673 H 0.89048 0.5412 0.26134 0.0
H674 H 0.91771 0.53704 0.25656 0.0
C675 C 0.90395 0.53204 0.26772 0.0
H676 H 0.90074 0.51566 0.26333 0.0
H677 H 0.84328 0.55045 0.2716 0.0
O678 O 0.90045 0.52884 0.40161 0.0
C679 C 0.84542 0.54796 0.35602 0.0
Co680 Co 0.73082 0.36636 0.39457 0.0
Co681 Co 0.73245 0.38815 0.4501 0.0
C682 C 0.76876 0.3873 0.4138 0.0
O683 O 0.759 0.37704 0.39667 0.0
O684 O 0.7603 0.39264 0.43525 0.0
C685 C 0.74525 0.34053 0.35329 0.0
O686 O 0.76146 0.33917 0.36855 0.0
C687 C 0.74988 0.39659 0.50251 0.0
C688 C 0.72428 0.41201 0.52298 0.0
C689 C 0.74456 0.40593 0.52617 0.0
N690 N 0.73349 0.39708 0.48632 0.0
N691 N 0.7182 0.40617 0.49881 0.0
C692 C 0.7707 0.38944 0.49395 0.0
H693 H 0.77813 0.40192 0.48257 0.0
H694 H 0.76916 0.37584 0.48098 0.0
H695 H 0.78087 0.38564 0.51059 0.0
C696 C 0.7209 0.33056 0.42729 0.0
N697 N 0.7245 0.35078 0.42459 0.0
N698 N 0.72521 0.35946 0.44794 0.0
C699 C 0.72218 0.34474 0.46629 0.0
C700 C 0.71943 0.32598 0.45372 0.0
C701 C 0.7199 0.31567 0.40496 0.0
H702 H 0.73571 0.3125 0.3979 0.0
H703 H 0.71272 0.30096 0.41107 0.0
H704 H 0.71095 0.3224 0.38858 0.0
O705 O 0.71194 0.38975 0.39089 0.0
O706 O 0.71316 0.40638 0.42901 0.0
H707 H 0.71902 0.33432 0.50637 0.0
H708 H 0.7397 0.35224 0.50035 0.0
C709 C 0.72364 0.34822 0.49521 0.0
H710 H 0.71366 0.3613 0.50085 0.0
H711 H 0.70376 0.40885 0.4906 0.0
O712 O 0.72961 0.35041 0.36137 0.0
C713 C 0.70659 0.40471 0.40543 0.0
Co714 Co 0.88608 0.48242 0.64468 0.0
Co715 Co 0.86452 0.48251 0.70037 0.0
C716 C 0.86473 0.5196 0.66522 0.0
O717 O 0.87514 0.51045 0.64769 0.0
O718 O 0.85951 0.51049 0.68629 0.0
C719 C 0.91129 0.49778 0.60323 0.0
O720 O 0.91242 0.51392 0.61863 0.0
C721 C 0.85662 0.49926 0.75313 0.0
C722 C 0.84066 0.47375 0.77313 0.0
C723 C 0.84716 0.49386 0.77668 0.0
N724 N 0.85579 0.48307 0.73665 0.0
N725 N 0.8464 0.46782 0.74885 0.0
C726 C 0.86417 0.52004 0.74494 0.0
H727 H 0.85161 0.52814 0.73451 0.0
H728 H 0.87733 0.51839 0.73126 0.0
H729 H 0.86884 0.52966 0.76176 0.0
C730 C 0.92221 0.47258 0.67685 0.0
N731 N 0.90191 0.4758 0.67438 0.0
N732 N 0.8933 0.47578 0.69779 0.0
C733 C 0.90812 0.47257 0.71595 0.0
C734 C 0.9269 0.47056 0.7032 0.0
C735 C 0.93702 0.47236 0.6544 0.0
H736 H 0.93044 0.46352 0.63782 0.0
H737 H 0.93973 0.48836 0.64774 0.0
H738 H 0.95194 0.46546 0.66019 0.0
O739 O 0.86288 0.46327 0.64072 0.0
O740 O 0.84651 0.46324 0.67906 0.0
H741 H 0.89151 0.46322 0.75015 0.0
H742 H 0.91856 0.46816 0.75582 0.0
C743 C 0.90469 0.47322 0.74493 0.0
H744 H 0.90086 0.48917 0.75083 0.0
H745 H 0.84339 0.45354 0.74036 0.0
O746 O 0.90182 0.48187 0.61127 0.0
C747 C 0.84815 0.45725 0.65523 0.0
Co748 Co 0.77249 0.63635 0.89423 0.0
Co749 Co 0.77075 0.61447 0.94971 0.0
C750 C 0.7346 0.61508 0.91332 0.0
O751 O 0.74448 0.62531 0.89626 0.0
O752 O 0.74289 0.60985 0.93492 0.0
C753 C 0.75742 0.66222 0.85357 0.0
O754 O 0.74156 0.66351 0.86944 0.0
C755 C 0.75359 0.60601 1.00222 0.0
C756 C 0.77923 0.59044 0.02243 0.0
C757 C 0.75901 0.59664 0.02583 0.0
N758 N 0.76986 0.60544 0.98587 0.0
N759 N 0.78518 0.59625 0.99819 0.0
C760 C 0.73275 0.61329 0.99391 0.0
H761 H 0.72511 0.60081 0.98278 0.0
H762 H 0.73428 0.6268 0.98076 0.0
H763 H 0.72279 0.61729 0.01069 0.0
C764 C 0.78206 0.67216 0.92712 0.0
N765 N 0.77858 0.65193 0.92433 0.0
N766 N 0.77785 0.6432 0.94765 0.0
C767 C 0.78079 0.65787 0.96607 0.0
C768 C 0.78345 0.67668 0.95358 0.0
C769 C 0.78314 0.68711 0.90485 0.0
H770 H 0.76735 0.6905 0.89793 0.0
H771 H 0.79053 0.70171 0.91099 0.0
H772 H 0.79195 0.68033 0.88837 0.0
O773 O 0.79162 0.61315 0.89052 0.0
O774 O 0.79012 0.59642 0.92858 0.0
H775 H 0.78928 0.64118 1.00056 0.0
H776 H 0.78398 0.66816 1.0062 0.0
C777 C 0.77933 0.6543 0.99498 0.0
H778 H 0.76326 0.65032 1.00011 0.0
H779 H 0.79956 0.5935 0.98983 0.0
O780 O 0.77327 0.65239 0.86106 0.0
C781 C 0.79687 0.59816 0.9051 0.0
Co782 Co 0.61649 0.5236 0.14509 0.0
Co783 Co 0.6386 0.5213 0.20039 0.0
C784 C 0.63696 0.48519 0.16399 0.0
O785 O 0.62676 0.49524 0.14706 0.0
O786 O 0.64255 0.49342 0.18548 0.0
C787 C 0.59037 0.50939 0.10406 0.0
O788 O 0.58895 0.49325 0.11944 0.0
C789 C 0.6469 0.50378 0.25279 0.0
C790 C 0.66334 0.52894 0.27286 0.0
C791 C 0.65664 0.50887 0.27628 0.0
N792 N 0.64777 0.52009 0.2365 0.0
N793 N 0.65747 0.53513 0.24875 0.0
C794 C 0.639 0.48318 0.24446 0.0
H795 H 0.65125 0.47516 0.23336 0.0
H796 H 0.62555 0.48512 0.2313 0.0
H797 H 0.63466 0.47334 0.26122 0.0
C798 C 0.58136 0.53524 0.17811 0.0
N799 N 0.60132 0.53042 0.17528 0.0
N800 N 0.61005 0.5291 0.19854 0.0
C801 C 0.59559 0.5327 0.21702 0.0
C802 C 0.57698 0.53684 0.20466 0.0
C803 C 0.56647 0.53606 0.15574 0.0
H804 H 0.57298 0.5455 0.13965 0.0
H805 H 0.56403 0.52027 0.14818 0.0
H806 H 0.55138 0.54244 0.16161 0.0
O807 O 0.64016 0.54205 0.14118 0.0
O808 O 0.657 0.54037 0.17915 0.0
H809 H 0.61296 0.54088 0.25107 0.0
H810 H 0.58583 0.53702 0.25721 0.0
C811 C 0.59933 0.5315 0.24592 0.0
H812 H 0.60259 0.51533 0.2514 0.0
H813 H 0.66055 0.54945 0.24041 0.0
O814 O 0.60035 0.52502 0.11201 0.0
C815 C 0.65529 0.54708 0.15563 0.0
Co816 Co 0.27559 0.36593 0.39326 0.0
Co817 Co 0.27098 0.38797 0.44841 0.0
C818 C 0.2364 0.38632 0.41009 0.0
O819 O 0.24748 0.37696 0.39343 0.0
O820 O 0.24331 0.39121 0.43259 0.0
C821 C 0.26205 0.33926 0.35269 0.0
O822 O 0.24596 0.33773 0.36815 0.0
C823 C 0.25255 0.39788 0.50004 0.0
C824 C 0.2788 0.41074 0.522 0.0
C825 C 0.25804 0.40623 0.52421 0.0
N826 N 0.26931 0.3973 0.48448 0.0
N827 N 0.28495 0.40496 0.49783 0.0
C828 C 0.23142 0.39257 0.4906 0.0
H829 H 0.2265 0.4044 0.47626 0.0
H830 H 0.23175 0.37752 0.48037 0.0
H831 H 0.21993 0.39219 0.50656 0.0
C832 C 0.28494 0.33058 0.4272 0.0
N833 N 0.28093 0.35068 0.42392 0.0
N834 N 0.27894 0.3595 0.44706 0.0
C835 C 0.28136 0.34499 0.46581 0.0
C836 C 0.28528 0.32625 0.45376 0.0
C837 C 0.28716 0.31549 0.40526 0.0
H838 H 0.2963 0.32236 0.38913 0.0
H839 H 0.2717 0.31158 0.39758 0.0
H840 H 0.29471 0.30114 0.41204 0.0
O841 O 0.29447 0.38925 0.3902 0.0
O842 O 0.29026 0.40653 0.42752 0.0
H843 H 0.28851 0.36113 0.50115 0.0
H844 H 0.28137 0.33451 0.50609 0.0
C845 C 0.27821 0.3486 0.49449 0.0
H846 H 0.26213 0.35354 0.49794 0.0
H847 H 0.29979 0.40647 0.49033 0.0
O848 O 0.27751 0.34957 0.36044 0.0
C849 C 0.29829 0.40471 0.40469 0.0
Co850 Co 0.38794 0.52323 0.14504 0.0
Co851 Co 0.36545 0.52176 0.20011 0.0
C852 C 0.36626 0.48554 0.16367 0.0
O853 O 0.37684 0.49524 0.1468 0.0
O854 O 0.36078 0.49397 0.18509 0.0
C855 C 0.41379 0.5086 0.10389 0.0
O856 O 0.41485 0.4923 0.11905 0.0
C857 C 0.35694 0.50441 0.25248 0.0
C858 C 0.3404 0.52958 0.27237 0.0
C859 C 0.34712 0.50954 0.27588 0.0
N860 N 0.35612 0.52068 0.23613 0.0
N861 N 0.34636 0.53573 0.24827 0.0
C862 C 0.36489 0.48379 0.24431 0.0
H863 H 0.35247 0.47541 0.23395 0.0
H864 H 0.37798 0.48567 0.23056 0.0
H865 H 0.36979 0.47431 0.26117 0.0
C866 C 0.42347 0.53256 0.1784 0.0
N867 N 0.40325 0.52924 0.17533 0.0
N868 N 0.39428 0.52866 0.19852 0.0
C869 C 0.40882 0.53154 0.21713 0.0
C870 C 0.42776 0.53402 0.20491 0.0
C871 C 0.43864 0.53327 0.15636 0.0
H872 H 0.43229 0.54241 0.13989 0.0
H873 H 0.44152 0.51741 0.14929 0.0
H874 H 0.45344 0.5401 0.16275 0.0
O875 O 0.3649 0.54242 0.14114 0.0
O876 O 0.34765 0.54134 0.17882 0.0
H877 H 0.39161 0.53995 0.25125 0.0
H878 H 0.41866 0.53531 0.25734 0.0
C879 C 0.405 0.53026 0.246 0.0
H880 H 0.40136 0.51414 0.25132 0.0
H881 H 0.3433 0.55002 0.23986 0.0
O882 O 0.40416 0.52436 0.11204 0.0
C883 C 0.34981 0.54796 0.15533 0.0
Co884 Co 0.22826 0.63701 0.89388 0.0
Co885 Co 0.23063 0.6148 0.94906 0.0
C886 C 0.26659 0.61648 0.91216 0.0
O887 O 0.25662 0.62675 0.89526 0.0
O888 O 0.2583 0.61089 0.93361 0.0
C889 C 0.24213 0.66336 0.85297 0.0
O890 O 0.25825 0.66492 0.86836 0.0
C891 C 0.24998 0.60648 0.99991 0.0
C892 C 0.226 0.58999 0.02208 0.0
C893 C 0.24624 0.59658 0.02365 0.0
N894 N 0.23296 0.60547 0.98494 0.0
N895 N 0.21862 0.59569 0.99841 0.0
C896 C 0.26906 0.61773 0.99197 0.0
H897 H 0.26524 0.63035 0.97818 0.0
H898 H 0.27704 0.62411 0.0094 0.0
H899 H 0.2796 0.60695 0.98186 0.0
C900 C 0.21829 0.67243 0.92733 0.0
N901 N 0.22201 0.65226 0.92426 0.0
N902 N 0.22294 0.64337 0.94747 0.0
C903 C 0.2199 0.65788 0.96608 0.0
C904 C 0.21695 0.67674 0.95384 0.0
C905 C 0.21728 0.68759 0.90529 0.0
H906 H 0.23308 0.69088 0.8983 0.0
H907 H 0.21009 0.70222 0.91171 0.0
H908 H 0.20833 0.68105 0.88878 0.0
O909 O 0.20973 0.61329 0.89022 0.0
O910 O 0.21142 0.59641 0.92816 0.0
H911 H 0.21553 0.66748 1.00625 0.0
H912 H 0.23774 0.65158 1.00028 0.0
C913 C 0.22143 0.65416 0.99495 0.0
H914 H 0.21261 0.64018 1.00024 0.0
H915 H 0.20391 0.59259 0.9913 0.0
O916 O 0.22661 0.65319 0.86088 0.0
C917 C 0.20469 0.59814 0.90466 0.0
Co918 Co 0.11537 0.47913 0.64454 0.0
Co919 Co 0.13785 0.48103 0.69957 0.0
C920 C 0.13607 0.51735 0.66352 0.0
O921 O 0.12569 0.50745 0.64665 0.0
O922 O 0.14181 0.50896 0.68483 0.0
C923 C 0.08881 0.49379 0.60439 0.0
O924 O 0.08748 0.50965 0.62024 0.0
C925 C 0.14612 0.49842 0.75197 0.0
C926 C 0.16315 0.47352 0.77177 0.0
C927 C 0.15609 0.49344 0.77534 0.0
N928 N 0.14721 0.48218 0.73559 0.0
N929 N 0.15725 0.46729 0.74768 0.0
C930 C 0.1378 0.5189 0.74381 0.0
H931 H 0.15001 0.52741 0.73323 0.0
H932 H 0.12462 0.51677 0.73028 0.0
H933 H 0.13292 0.52839 0.76065 0.0
C934 C 0.08045 0.46729 0.67777 0.0
N935 N 0.10039 0.4721 0.6748 0.0
N936 N 0.10925 0.47332 0.69799 0.0
C937 C 0.09486 0.46974 0.71657 0.0
C938 C 0.07618 0.46565 0.70434 0.0
C939 C 0.06542 0.46653 0.65555 0.0
H940 H 0.07199 0.45749 0.63913 0.0
H941 H 0.06256 0.48238 0.64846 0.0
H942 H 0.05053 0.4597 0.66142 0.0
O943 O 0.13899 0.46073 0.64015 0.0
O944 O 0.15607 0.462 0.67796 0.0
H945 H 0.11242 0.46172 0.75054 0.0
H946 H 0.08526 0.46533 0.7568 0.0
C947 C 0.09868 0.47097 0.74544 0.0
H948 H 0.1018 0.48717 0.7509 0.0
H949 H 0.16055 0.45307 0.73924 0.0
O950 O 0.09895 0.47809 0.61171 0.0
C951 C 0.1542 0.45552 0.65435 0.0
Co952 Co 0.27399 0.63632 0.61951 0.0
Co953 Co 0.27192 0.61429 0.56418 0.0
C954 C 0.23572 0.61576 0.60051 0.0
O955 O 0.24572 0.6259 0.61753 0.0
O956 O 0.244 0.61025 0.57902 0.0
C957 C 0.25961 0.66257 0.66027 0.0
O958 O 0.24358 0.66402 0.64471 0.0
C959 C 0.25446 0.60629 0.51174 0.0
C960 C 0.2794 0.58949 0.49173 0.0
C961 C 0.25946 0.59651 0.48827 0.0
N962 N 0.27071 0.60516 0.52809 0.0
N963 N 0.28562 0.59525 0.51587 0.0
C964 C 0.23395 0.61449 0.51997 0.0
H965 H 0.23601 0.62756 0.5337 0.0
H966 H 0.2245 0.61949 0.50314 0.0
H967 H 0.22545 0.60217 0.53036 0.0
C968 C 0.28419 0.67185 0.58646 0.0
N969 N 0.28045 0.65167 0.58934 0.0
N970 N 0.27951 0.64291 0.56606 0.0
C971 C 0.28252 0.65754 0.54758 0.0
C972 C 0.28551 0.67632 0.55999 0.0
C973 C 0.28526 0.68687 0.60864 0.0
H974 H 0.26947 0.69025 0.61557 0.0
H975 H 0.2926 0.70147 0.60239 0.0
H976 H 0.2941 0.68017 0.62513 0.0
O977 O 0.2926 0.61275 0.62341 0.0
O978 O 0.29095 0.59592 0.58545 0.0
H979 H 0.28594 0.66766 0.50743 0.0
H980 H 0.26455 0.65068 0.51368 0.0
C981 C 0.28079 0.654 0.51869 0.0
H982 H 0.29018 0.64049 0.51304 0.0
H983 H 0.29987 0.59193 0.52426 0.0
O984 O 0.27522 0.65246 0.65256 0.0
C985 C 0.29765 0.59762 0.60897 0.0
Co986 Co 0.11486 0.5267 0.37184 0.0
Co987 Co 0.1367 0.52178 0.31673 0.0
C988 C 0.13521 0.48744 0.35551 0.0
O989 O 0.12586 0.4986 0.37207 0.0
O990 O 0.14004 0.49423 0.33294 0.0
C991 C 0.08814 0.51331 0.41227 0.0
O992 O 0.08653 0.49731 0.39668 0.0
C993 C 0.14582 0.50212 0.26608 0.0
C994 C 0.16111 0.52667 0.24354 0.0
C995 C 0.15541 0.50615 0.24221 0.0
N996 N 0.14616 0.51925 0.28089 0.0
N997 N 0.15524 0.53392 0.26719 0.0
C998 C 0.13549 0.4826 0.27429 0.0
H999 H 0.12269 0.48593 0.28803 0.0
H1000 H 0.12947 0.47417 0.257 0.0
H1001 H 0.1468 0.47271 0.28453 0.0
C1002 C 0.07938 0.53576 0.338 0.0
N1003 N 0.09949 0.53183 0.34118 0.0
N1004 N 0.10825 0.52985 0.318 0.0
C1005 C 0.0937 0.53233 0.29931 0.0
C1006 C 0.07496 0.53609 0.31147 0.0
C1007 C 0.06435 0.5381 0.36001 0.0
H1008 H 0.07132 0.5472 0.37609 0.0
H1009 H 0.06032 0.52268 0.3677 0.0
H1010 H 0.05006 0.54577 0.35327 0.0
O1011 O 0.13824 0.54557 0.37463 0.0
O1012 O 0.15537 0.54115 0.33724 0.0
H1013 H 0.11086 0.53857 0.26441 0.0
H1014 H 0.08367 0.53433 0.25897 0.0
C1015 C 0.09727 0.5295 0.27057 0.0
H1016 H 0.10048 0.51307 0.26655 0.0
H1017 H 0.15769 0.54881 0.27411 0.0
O1018 O 0.09854 0.52875 0.40466 0.0
C1019 C 0.15366 0.54928 0.36002 0.0
Co1020 Co 0.22892 0.36485 0.11951 0.0
Co1021 Co 0.23039 0.38766 0.06461 0.0
C1022 C 0.26677 0.3862 0.10068 0.0
O1023 O 0.25706 0.37557 0.11748 0.0
O1024 O 0.25827 0.39194 0.07943 0.0
C1025 C 0.24375 0.33868 0.16011 0.0
O1026 O 0.25985 0.33766 0.14461 0.0
C1027 C 0.24772 0.39604 0.01221 0.0
C1028 C 0.22282 0.41314 0.99252 0.0
C1029 C 0.24273 0.40607 0.98888 0.0
N1030 N 0.2315 0.39711 0.02863 0.0
N1031 N 0.21661 0.4072 0.0166 0.0
C1032 C 0.26819 0.38767 0.02032 0.0
H1033 H 0.27676 0.39987 0.03083 0.0
H1034 H 0.26604 0.37452 0.03391 0.0
H1035 H 0.27761 0.38271 1.00346 0.0
C1036 C 0.21741 0.32997 0.08611 0.0
N1037 N 0.22213 0.34993 0.08917 0.0
N1038 N 0.22302 0.35895 0.06606 0.0
C1039 C 0.21922 0.34467 0.04741 0.0
C1040 C 0.21539 0.32589 0.05954 0.0
C1041 C 0.21694 0.31484 0.10825 0.0
H1042 H 0.20733 0.32098 0.12441 0.0
H1043 H 0.23276 0.31274 0.11583 0.0
H1044 H 0.21094 0.29965 0.10215 0.0
O1045 O 0.21014 0.38815 0.12385 0.0
O1046 O 0.21107 0.40555 0.08624 0.0
H1047 H 0.21041 0.36253 0.014 0.0
H1048 H 0.21391 0.33543 0.00722 0.0
C1049 C 0.21979 0.34876 0.01855 0.0
H1050 H 0.23585 0.35195 0.01254 0.0
H1051 H 0.2024 0.41049 0.02508 0.0
O1052 O 0.22791 0.3484 0.15236 0.0
C1053 C 0.20462 0.40335 0.10981 0.0
Co1054 Co 0.38588 0.47857 0.86979 0.0
Co1055 Co 0.36388 0.48048 0.81439 0.0
C1056 C 0.36538 0.51678 0.85064 0.0
O1057 O 0.37555 0.50688 0.86775 0.0
O1058 O 0.35987 0.50838 0.82922 0.0
C1059 C 0.41208 0.49268 0.91087 0.0
O1060 O 0.41358 0.50887 0.89559 0.0
C1061 C 0.35579 0.49799 0.76195 0.0
C1062 C 0.3393 0.4729 0.74181 0.0
C1063 C 0.3461 0.49294 0.73842 0.0
N1064 N 0.3548 0.48169 0.77825 0.0
N1065 N 0.34508 0.46669 0.76595 0.0
C1066 C 0.36374 0.51858 0.77028 0.0
H1067 H 0.35135 0.52683 0.78084 0.0
H1068 H 0.3769 0.51662 0.78389 0.0
H1069 H 0.36853 0.52821 0.75353 0.0
C1070 C 0.42142 0.46829 0.83678 0.0
N1071 N 0.40124 0.47205 0.83965 0.0
N1072 N 0.39248 0.47289 0.81636 0.0
C1073 C 0.40709 0.4698 0.79789 0.0
C1074 C 0.42587 0.46685 0.81032 0.0
C1075 C 0.43644 0.46732 0.85896 0.0
H1076 H 0.4298 0.4584 0.87544 0.0
H1077 H 0.43969 0.48313 0.86593 0.0
H1078 H 0.45111 0.4601 0.85272 0.0
O1079 O 0.36225 0.45999 0.87365 0.0
O1080 O 0.34548 0.46146 0.83564 0.0
H1081 H 0.39012 0.46188 0.76341 0.0
H1082 H 0.41725 0.46638 0.75776 0.0
C1083 C 0.40354 0.47142 0.769 0.0
H1084 H 0.40005 0.48762 0.76392 0.0
H1085 H 0.34192 0.45239 0.77428 0.0
O1086 O 0.40196 0.47716 0.90289 0.0
C1087 C 0.34715 0.45486 0.8592 0.0
H1088 H 0.1291 0.01963 0.21221 0.0
H1089 H 0.19165 0.99777 0.21301 0.0
H1090 H 0.1379 0.04408 0.17748 0.0
H1091 H 0.20023 0.0215 0.17744 0.0
H1092 H 0.20599 0.05763 0.1013 0.0
H1093 H 0.19229 0.03031 0.1295 0.0
H1094 H 0.16109 0.07578 0.1765 0.0
H1095 H 0.17496 0.10297 0.14869 0.0
C1096 C 0.1448 0.02027 0.20529 0.0
C1097 C 0.15993 0.00747 0.21626 0.0
C1098 C 0.14975 0.03403 0.18508 0.0
C1099 C 0.16981 0.03486 0.17485 0.0
C1100 C 0.18462 0.02118 0.18478 0.0
C1101 C 0.17973 0.00766 0.20524 0.0
C1102 C 0.19573 0.06172 0.1172 0.0
C1103 C 0.19155 0.08246 0.12276 0.0
C1104 C 0.18807 0.0461 0.13351 0.0
C1105 C 0.17573 0.0509 0.15536 0.0
C1106 C 0.17044 0.07154 0.15978 0.0
C1107 C 0.17841 0.08713 0.14384 0.0
H1108 H 0.14778 0.92408 0.39502 0.0
H1109 H 0.19513 0.95756 0.35404 0.0
H1110 H 0.17339 0.90957 0.42441 0.0
H1111 H 0.22093 0.94357 0.38419 0.0
H1112 H 0.26408 0.90662 0.4388 0.0
H1113 H 0.24024 0.91508 0.4031 0.0
H1114 H 0.1919 0.92436 0.45995 0.0
H1115 H 0.21549 0.916 0.49509 0.0
C1116 C 0.16378 0.92801 0.39198 0.0
C1117 C 0.16942 0.94203 0.37229 0.0
C1118 C 0.17847 0.91989 0.40905 0.0
C1119 C 0.19921 0.92581 0.40722 0.0
C1120 C 0.20512 0.93864 0.38623 0.0
C1121 C 0.19035 0.94662 0.36885 0.0
C1122 C 0.24828 0.91029 0.44353 0.0
C1123 C 0.24154 0.90995 0.46976 0.0
C1124 C 0.23464 0.91521 0.4231 0.0
C1125 C 0.21397 0.92003 0.42849 0.0
C1126 C 0.20745 0.92002 0.45483 0.0
C1127 C 0.22102 0.91511 0.47512 0.0
H1128 H 0.32951 0.90163 0.64543 0.0
H1129 H 0.29344 0.94561 0.60193 0.0
H1130 H 0.34308 0.92915 0.67278 0.0
H1131 H 0.30701 0.97335 0.62956 0.0
H1132 H 0.30944 0.00514 0.71304 0.0
H1133 H 0.30098 0.98179 0.67704 0.0
H1134 H 0.36402 0.96125 0.67468 0.0
H1135 H 0.37255 0.98509 0.71015 0.0
C1136 C 0.32491 0.9173 0.64126 0.0
C1137 C 0.3104 0.92144 0.62152 0.0
C1138 C 0.33271 0.93309 0.65694 0.0
C1139 C 0.32598 0.95344 0.65355 0.0
C1140 C 0.31234 0.95779 0.63283 0.0
C1141 C 0.30475 0.94196 0.6168 0.0
C1142 C 0.32152 0.99577 0.70464 0.0
C1143 C 0.34147 0.99631 0.71517 0.0
C1144 C 0.31671 0.98248 0.68391 0.0
C1145 C 0.33177 0.96946 0.67316 0.0
C1146 C 0.35197 0.97076 0.68288 0.0
C1147 C 0.3568 0.9842 0.70345 0.0
H1148 H 0.30605 0.04366 0.85325 0.0
H1149 H 0.35288 0.07709 0.89526 0.0
H1150 H 0.2799 0.05736 0.88316 0.0
H1151 H 0.32694 0.09131 0.92439 0.0
H1152 H 0.28432 0.08447 0.99431 0.0
H1153 H 0.30814 0.07604 0.95947 0.0
H1154 H 0.26037 0.08591 0.902 0.0
H1155 H 0.23628 0.09446 0.93744 0.0
C1156 C 0.31064 0.05451 0.86826 0.0
C1157 C 0.33152 0.05918 0.87206 0.0
C1158 C 0.29568 0.06233 0.88548 0.0
C1159 C 0.30135 0.07506 0.90666 0.0
C1160 C 0.32204 0.08105 0.90886 0.0
C1161 C 0.33692 0.07308 0.89197 0.0
C1162 C 0.27897 0.08546 0.97427 0.0
C1163 C 0.25856 0.09086 0.96865 0.0
C1164 C 0.29266 0.0805 0.95416 0.0
C1165 C 0.28638 0.08069 0.92773 0.0
C1166 C 0.26579 0.08566 0.92208 0.0
C1167 C 0.25201 0.09062 0.94235 0.0
H1168 H 0.21957 0.94497 0.90292 0.0
H1169 H 0.17051 0.90356 0.8824 0.0
H1170 H 0.20596 0.97053 0.87254 0.0
H1171 H 0.15577 0.92949 0.85359 0.0
H1172 H 0.15087 0.96459 0.77789 0.0
H1173 H 0.16166 0.9421 0.81283 0.0
H1174 H 0.18277 0.99461 0.85733 0.0
H1175 H 0.17372 0.01701 0.82071 0.0
C1176 C 0.20532 0.94173 0.89273 0.0
C1177 C 0.19602 0.92236 0.89504 0.0
C1178 C 0.19747 0.95638 0.87518 0.0
C1179 C 0.1799 0.95209 0.85988 0.0
C1180 C 0.16972 0.93324 0.86409 0.0
C1181 C 0.17791 0.91844 0.88103 0.0
C1182 C 0.15849 0.97136 0.79462 0.0
C1183 C 0.16231 0.99259 0.79578 0.0
C1184 C 0.16416 0.95842 0.81528 0.0
C1185 C 0.17318 0.96632 0.8383 0.0
C1186 C 0.17629 0.98773 0.83986 0.0
C1187 C 0.17096 1.00066 0.81888 0.0
H1188 H 0.24831 0.94101 0.05392 0.0
H1189 H 0.27141 0.8789 0.05423 0.0
H1190 H 0.27164 0.94982 0.08981 0.0
H1191 H 0.29531 0.88787 0.08949 0.0
H1192 H 0.35351 0.9252 0.11857 0.0
H1193 H 0.32643 0.91086 0.09111 0.0
H1194 H 0.28081 0.94267 0.13724 0.0
H1195 H 0.30809 0.95695 0.16504 0.0
C1196 C 0.25835 0.92922 0.06172 0.0
C1197 C 0.25865 0.9095 0.05048 0.0
C1198 C 0.27164 0.93423 0.08237 0.0
C1199 C 0.28552 0.91961 0.09232 0.0
C1200 C 0.28509 0.89959 0.08191 0.0
C1201 C 0.27163 0.89453 0.06145 0.0
C1202 C 0.33766 0.92868 0.12333 0.0
C1203 C 0.33295 0.9422 0.14399 0.0
C1204 C 0.32212 0.92043 0.10759 0.0
C1205 C 0.30147 0.92576 0.11182 0.0
C1206 C 0.29661 0.93842 0.13335 0.0
C1207 C 0.3122 0.94641 0.14945 0.0
H1208 H 0.32686 0.10297 0.36577 0.0
H1209 H 0.29594 0.05751 0.41313 0.0
H1210 H 0.34112 0.07586 0.33825 0.0
H1211 H 0.3101 0.03022 0.38525 0.0
H1212 H 0.31186 0.99704 0.3023 0.0
H1213 H 0.30277 0.02072 0.3377 0.0
H1214 H 0.36456 0.04481 0.33725 0.0
H1215 H 0.37384 0.02052 0.30258 0.0
C1216 C 0.32351 0.08712 0.37067 0.0
C1217 C 0.31029 0.08239 0.39165 0.0
C1218 C 0.33171 0.07157 0.3549 0.0
C1219 C 0.32661 0.05088 0.35941 0.0
C1220 C 0.31417 0.04603 0.38116 0.0
C1221 C 0.30625 0.06163 0.39729 0.0
C1222 C 0.32355 0.00726 0.30995 0.0
C1223 C 0.34332 0.00754 0.29884 0.0
C1224 C 0.31838 0.02076 0.33032 0.0
C1225 C 0.33288 0.03484 0.34009 0.0
C1226 C 0.35293 0.03444 0.32979 0.0
C1227 C 0.35816 0.02076 0.30963 0.0
H1228 H 0.15055 0.08111 0.62289 0.0
H1229 H 0.19589 0.04213 0.65937 0.0
H1230 H 0.17675 0.09533 0.59408 0.0
H1231 H 0.22225 0.05599 0.62986 0.0
H1232 H 0.21693 0.08806 0.52144 0.0
H1233 H 0.19348 0.08 0.55681 0.0
H1234 H 0.24317 0.0847 0.61264 0.0
H1235 H 0.26687 0.09311 0.57672 0.0
C1236 C 0.16628 0.07593 0.62515 0.0
C1237 C 0.17113 0.06043 0.64332 0.0
C1238 C 0.18128 0.08391 0.60842 0.0
C1239 C 0.20154 0.07642 0.6091 0.0
C1240 C 0.20681 0.06211 0.62875 0.0
C1241 C 0.19174 0.05422 0.64578 0.0
C1242 C 0.22284 0.08809 0.54125 0.0
C1243 C 0.24369 0.09201 0.54626 0.0
C1244 C 0.20934 0.0833 0.56167 0.0
C1245 C 0.21628 0.08208 0.58777 0.0
C1246 C 0.23726 0.08558 0.59281 0.0
C1247 C 0.25082 0.09045 0.57226 0.0
H1248 H 0.8442 0.01704 0.8273 0.0
H1249 H 0.8368 0.96805 0.7711 0.0
H1250 H 0.83652 0.99292 0.86303 0.0
H1251 H 0.82928 0.9442 0.80624 0.0
H1252 H 0.79553 0.94595 0.91171 0.0
H1253 H 0.80862 0.97237 0.88173 0.0
H1254 H 0.84495 0.9264 0.84194 0.0
H1255 H 0.83137 0.90015 0.87116 0.0
C1256 C 0.84113 1.00111 0.82259 0.0
C1257 C 0.84183 0.99435 0.79638 0.0
C1258 C 0.83667 0.9873 0.84304 0.0
C1259 C 0.83268 0.96645 0.83767 0.0
C1260 C 0.83299 0.95992 0.81134 0.0
C1261 C 0.83744 0.97364 0.79105 0.0
C1262 C 0.8068 0.94168 0.89705 0.0
C1263 C 0.81232 0.92096 0.89366 0.0
C1264 C 0.81425 0.9568 0.87977 0.0
C1265 C 0.82747 0.95146 0.85893 0.0
C1266 C 0.83432 0.93101 0.85719 0.0
C1267 C 0.82673 0.91596 0.87416 0.0
H1268 H 0.74628 0.06099 0.55138 0.0
H1269 H 0.76787 0.12364 0.55251 0.0
H1270 H 0.7699 0.05243 0.58705 0.0
H1271 H 0.79214 0.11491 0.58745 0.0
H1272 H 0.85112 0.07877 0.61663 0.0
H1273 H 0.82386 0.09242 0.58884 0.0
H1274 H 0.77872 0.05974 0.63478 0.0
H1275 H 0.80615 0.0462 0.66294 0.0
C1276 C 0.75608 0.07294 0.55926 0.0
C1277 C 0.75585 0.09277 0.54832 0.0
C1278 C 0.76954 0.06807 0.5798 0.0
C1279 C 0.78309 0.08293 0.5899 0.0
C1280 C 0.78219 0.10301 0.57974 0.0
C1281 C 0.76853 0.10793 0.55942 0.0
C1282 C 0.83532 0.07494 0.62126 0.0
C1283 C 0.8308 0.06143 0.64202 0.0
C1284 C 0.81969 0.08278 0.60533 0.0
C1285 C 0.79912 0.07704 0.60943 0.0
C1286 C 0.79444 0.06432 0.63099 0.0
C1287 C 0.81011 0.05675 0.64729 0.0
H1288 H 0.70816 0.05613 0.41332 0.0
H1289 H 0.6738 0.10028 0.36789 0.0
H1290 H 0.69489 0.02837 0.38545 0.0
H1291 H 0.66044 0.07271 0.34039 0.0
H1292 H 0.63028 0.01627 0.30421 0.0
H1293 H 0.63879 0.04052 0.33925 0.0
H1294 H 0.70175 0.01974 0.33764 0.0
H1295 H 0.69337 0.9961 0.3019 0.0
C1296 C 0.69728 0.05983 0.39795 0.0
C1297 C 0.69201 0.08039 0.39281 0.0
C1298 C 0.68986 0.04398 0.38181 0.0
C1299 C 0.67673 0.04835 0.36057 0.0
C1300 C 0.6704 0.06876 0.35665 0.0
C1301 C 0.67808 0.08458 0.37241 0.0
C1302 C 0.64602 0.01723 0.31091 0.0
C1303 C 0.66136 0.00497 0.29944 0.0
C1304 C 0.65083 0.03089 0.33127 0.0
C1305 C 0.67099 0.03221 0.3411 0.0
C1306 C 0.68605 0.01904 0.33065 0.0
C1307 C 0.68127 0.00557 0.31008 0.0
H1308 H 0.7571 0.94184 0.05231 0.0
H1309 H 0.73475 0.87945 0.05288 0.0
H1310 H 0.73349 0.95051 0.08796 0.0
H1311 H 0.71054 0.88828 0.08785 0.0
H1312 H 0.65193 0.92469 0.11723 0.0
H1313 H 0.67912 0.91093 0.08944 0.0
H1314 H 0.72442 0.94326 0.13548 0.0
H1315 H 0.69704 0.95694 0.16362 0.0
C1316 C 0.74714 0.92997 0.06007 0.0
C1317 C 0.74716 0.91019 0.04899 0.0
C1318 C 0.73369 0.9349 0.0806 0.0
C1319 C 0.71994 0.92015 0.09056 0.0
C1320 C 0.72064 0.9001 0.08025 0.0
C1321 C 0.73428 0.89512 0.05994 0.0
C1322 C 0.66774 0.92843 0.12188 0.0
C1323 C 0.67233 0.94189 0.14265 0.0
C1324 C 0.68334 0.92051 0.10595 0.0
C1325 C 0.70393 0.92613 0.11008 0.0
C1326 C 0.70867 0.93879 0.13167 0.0
C1327 C 0.69303 0.94644 0.14796 0.0
H1328 H 0.79421 0.0578 0.10286 0.0
H1329 H 0.82715 0.10493 0.14492 0.0
H1330 H 0.80806 0.03179 0.13282 0.0
H1331 H 0.84154 0.07912 0.17412 0.0
H1332 H 0.8347 0.0365 0.24414 0.0
H1333 H 0.82644 0.06028 0.20918 0.0
H1334 H 0.83646 0.0124 0.1519 0.0
H1335 H 0.84482 0.98835 0.18745 0.0
C1336 C 0.80501 0.06249 0.11788 0.0
C1337 C 0.80947 0.08342 0.12167 0.0
C1338 C 0.81291 0.0476 0.13514 0.0
C1339 C 0.82554 0.05338 0.15637 0.0
C1340 C 0.83136 0.07413 0.15856 0.0
C1341 C 0.82331 0.08894 0.14161 0.0
C1342 C 0.83576 0.03111 0.22412 0.0
C1343 C 0.84112 0.01067 0.21859 0.0
C1344 C 0.83091 0.04479 0.20394 0.0
C1345 C 0.83117 0.03846 0.17753 0.0
C1346 C 0.83614 0.01786 0.17196 0.0
C1347 C 0.84099 0.00409 0.1923 0.0
H1348 H 0.69356 0.04469 0.85285 0.0
H1349 H 0.64549 0.07492 0.89646 0.0
H1350 H 0.71922 0.05905 0.88283 0.0
H1351 H 0.67095 0.08993 0.92566 0.0
H1352 H 0.71472 0.08487 0.99473 0.0
H1353 H 0.69077 0.07606 0.96017 0.0
H1354 H 0.7378 0.08738 0.90209 0.0
H1355 H 0.76202 0.09611 0.93723 0.0
C1356 C 0.68856 0.05501 0.86825 0.0
C1357 C 0.6675 0.05856 0.87243 0.0
C1358 C 0.70326 0.06322 0.88553 0.0
C1359 C 0.69718 0.07529 0.90716 0.0
C1360 C 0.67622 0.08018 0.9098 0.0
C1361 C 0.6616 0.07178 0.89285 0.0
C1362 C 0.71986 0.08606 0.97461 0.0
C1363 C 0.74013 0.09183 0.96875 0.0
C1364 C 0.70608 0.08092 0.95465 0.0
C1365 C 0.71212 0.08135 0.92812 0.0
C1366 C 0.73255 0.08686 0.92223 0.0
C1367 C 0.74641 0.09194 0.94234 0.0
H1368 H 0.62951 0.98335 0.70995 0.0
H1369 H 0.69186 0.00577 0.71189 0.0
H1370 H 0.6387 0.95959 0.67465 0.0
H1371 H 0.70091 0.98257 0.67595 0.0
H1372 H 0.70866 0.94619 0.60063 0.0
H1373 H 0.69437 0.97358 0.62827 0.0
H1374 H 0.6613 0.92823 0.67342 0.0
H1375 H 0.67566 0.90105 0.64614 0.0
C1376 C 0.64524 0.98301 0.70307 0.0
C1377 C 0.6602 0.99575 0.71451 0.0
C1378 C 0.65043 0.96963 0.68258 0.0
C1379 C 0.67059 0.96903 0.67263 0.0
C1380 C 0.68522 0.9827 0.68303 0.0
C1381 C 0.68007 0.99592 0.70371 0.0
C1382 C 0.69785 0.94219 0.61595 0.0
C1383 C 0.69327 0.92148 0.62121 0.0
C1384 C 0.68985 0.95783 0.63197 0.0
C1385 C 0.67683 0.95307 0.65319 0.0
C1386 C 0.67116 0.93247 0.65718 0.0
C1387 C 0.67941 0.91687 0.64154 0.0
H1388 H 0.74713 0.94118 0.46225 0.0
H1389 H 0.77161 0.8796 0.46298 0.0
H1390 H 0.77072 0.95032 0.42675 0.0
H1391 H 0.79582 0.88895 0.42822 0.0
H1392 H 0.8534 0.92741 0.3992 0.0
H1393 H 0.82649 0.91295 0.42691 0.0
H1394 H 0.7804 0.94268 0.37933 0.0
H1395 H 0.80747 0.95703 0.35126 0.0
C1396 C 0.75755 0.92958 0.4548 0.0
C1397 C 0.75813 0.90992 0.46622 0.0
C1398 C 0.771 0.93479 0.43438 0.0
C1399 C 0.78534 0.92044 0.42487 0.0
C1400 C 0.78525 0.90048 0.43547 0.0
C1401 C 0.7716 0.89521 0.45567 0.0
C1402 C 0.8375 0.93043 0.39421 0.0
C1403 C 0.83258 0.94336 0.37301 0.0
C1404 C 0.82207 0.92211 0.41009 0.0
C1405 C 0.8013 0.9268 0.40548 0.0
C1406 C 0.79627 0.93893 0.38351 0.0
C1407 C 0.81175 0.94696 0.36727 0.0
H1408 H 0.62859 0.51588 0.71 0.0
H1409 H 0.69158 0.49548 0.71331 0.0
H1410 H 0.63737 0.53952 0.67438 0.0
H1411 H 0.7003 0.51866 0.67723 0.0
H1412 H 0.70835 0.55471 0.60195 0.0
H1413 H 0.69474 0.52709 0.62981 0.0
H1414 H 0.65819 0.57143 0.67211 0.0
H1415 H 0.67176 0.59879 0.64452 0.0
C1416 C 0.64437 0.51666 0.70337 0.0
C1417 C 0.65959 0.50449 0.71523 0.0
C1418 C 0.64935 0.52999 0.68271 0.0
C1419 C 0.66959 0.53115 0.67307 0.0
C1420 C 0.68454 0.51809 0.68401 0.0
C1421 C 0.67958 0.50489 0.7048 0.0
C1422 C 0.69692 0.5584 0.61666 0.0
C1423 C 0.69112 0.57892 0.62104 0.0
C1424 C 0.68932 0.54264 0.63283 0.0
C1425 C 0.67551 0.54707 0.65337 0.0
C1426 C 0.66867 0.56741 0.65642 0.0
C1427 C 0.67648 0.58312 0.6406 0.0
H1428 H 0.65058 0.42482 0.89699 0.0
H1429 H 0.69537 0.45753 0.85057 0.0
H1430 H 0.67794 0.41095 0.9244 0.0
H1431 H 0.72293 0.44375 0.87834 0.0
H1432 H 0.75557 0.44214 0.96166 0.0
H1433 H 0.73199 0.45083 0.92598 0.0
H1434 H 0.70951 0.38842 0.92548 0.0
H1435 H 0.73369 0.37958 0.96049 0.0
C1436 C 0.66636 0.42863 0.89225 0.0
C1437 C 0.67081 0.44226 0.87159 0.0
C1438 C 0.68205 0.42066 0.90795 0.0
C1439 C 0.70261 0.42637 0.90371 0.0
C1440 C 0.70721 0.43919 0.88223 0.0
C1441 C 0.69147 0.4469 0.86615 0.0
C1442 C 0.74574 0.43023 0.95373 0.0
C1443 C 0.74585 0.4104 0.96467 0.0
C1444 C 0.73231 0.43517 0.9332 0.0
C1445 C 0.71869 0.42037 0.92309 0.0
C1446 C 0.71952 0.40027 0.9332 0.0
C1447 C 0.73313 0.39529 0.95353 0.0
H1448 H 0.87288 0.48348 0.20973 0.0
H1449 H 0.81088 0.50684 0.2095 0.0
H1450 H 0.86394 0.45949 0.17455 0.0
H1451 H 0.80207 0.48337 0.17377 0.0
H1452 H 0.79494 0.44635 0.09894 0.0
H1453 H 0.80909 0.4738 0.12658 0.0
H1454 H 0.84109 0.42849 0.17302 0.0
H1455 H 0.82692 0.40126 0.1457 0.0
C1456 C 0.85728 0.48331 0.20239 0.0
C1457 C 0.84233 0.49639 0.21317 0.0
C1458 C 0.85223 0.46978 0.18199 0.0
C1459 C 0.83224 0.46937 0.1715 0.0
C1460 C 0.81764 0.48335 0.18126 0.0
C1461 C 0.82265 0.49672 0.20184 0.0
C1462 C 0.80548 0.44235 0.11458 0.0
C1463 C 0.80981 0.42165 0.12016 0.0
C1464 C 0.81339 0.45804 0.13058 0.0
C1465 C 0.82609 0.45332 0.15215 0.0
C1466 C 0.83149 0.4327 0.15652 0.0
C1467 C 0.82333 0.41707 0.14086 0.0
H1468 H 0.78388 0.60336 0.48412 0.0
H1469 H 0.73237 0.57768 0.44214 0.0
H1470 H 0.80666 0.59345 0.44908 0.0
H1471 H 0.75496 0.5695 0.40535 0.0
H1472 H 0.80607 0.53436 0.36021 0.0
H1473 H 0.77995 0.54732 0.39026 0.0
H1474 H 0.81896 0.59931 0.40827 0.0
H1475 H 0.84551 0.58523 0.37985 0.0
C1476 C 0.77739 0.59532 0.46752 0.0
C1477 C 0.75638 0.59041 0.46667 0.0
C1478 C 0.79046 0.59016 0.4468 0.0
C1479 C 0.78288 0.58056 0.42398 0.0
C1480 C 0.76162 0.57644 0.42266 0.0
C1481 C 0.74857 0.58127 0.44373 0.0
C1482 C 0.80872 0.54885 0.37011 0.0
C1483 C 0.82773 0.55885 0.36768 0.0
C1484 C 0.79375 0.55633 0.38748 0.0
C1485 C 0.79733 0.57422 0.40244 0.0
C1486 C 0.81578 0.5851 0.39805 0.0
C1487 C 0.83092 0.57728 0.38131 0.0
H1488 H 0.69307 0.50574 0.30213 0.0
H1489 H 0.63086 0.48292 0.30348 0.0
H1490 H 0.70212 0.48242 0.33794 0.0
H1491 H 0.64008 0.45898 0.33861 0.0
H1492 H 0.67736 0.40074 0.36774 0.0
H1493 H 0.66306 0.42774 0.34007 0.0
H1494 H 0.69518 0.47348 0.38565 0.0
H1495 H 0.70938 0.44629 0.4137 0.0
C1496 C 0.68132 0.49574 0.3101 0.0
C1497 C 0.66148 0.49553 0.29918 0.0
C1498 C 0.68647 0.48246 0.33072 0.0
C1499 C 0.67188 0.46865 0.34094 0.0
C1500 C 0.65177 0.46913 0.33081 0.0
C1501 C 0.64658 0.48261 0.3104 0.0
C1502 C 0.68092 0.4166 0.37234 0.0
C1503 C 0.69448 0.42138 0.39294 0.0
C1504 C 0.67271 0.43209 0.35647 0.0
C1505 C 0.67812 0.45276 0.36049 0.0
C1506 C 0.69086 0.45767 0.38193 0.0
C1507 C 0.69881 0.44214 0.39817 0.0
H1508 H 0.85261 0.42882 0.61666 0.0
H1509 H 0.80657 0.45883 0.66398 0.0
H1510 H 0.8258 0.41414 0.58902 0.0
H1511 H 0.77955 0.44426 0.63595 0.0
H1512 H 0.74677 0.44218 0.55262 0.0
H1513 H 0.77006 0.45153 0.58835 0.0
H1514 H 0.79519 0.39017 0.58779 0.0
H1515 H 0.7713 0.38062 0.55276 0.0
C1516 C 0.8367 0.43187 0.62153 0.0
C1517 C 0.83171 0.44496 0.64254 0.0
C1518 C 0.82132 0.42343 0.60569 0.0
C1519 C 0.80054 0.42816 0.61014 0.0
C1520 C 0.79544 0.44047 0.63192 0.0
C1521 C 0.81088 0.44862 0.64814 0.0
C1522 C 0.75713 0.43063 0.56032 0.0
C1523 C 0.75783 0.41092 0.54908 0.0
C1524 C 0.77039 0.43595 0.58089 0.0
C1525 C 0.78467 0.42167 0.59071 0.0
C1526 C 0.78466 0.40165 0.5803 0.0
C1527 C 0.77121 0.39627 0.55995 0.0
H1528 H 0.81077 0.49674 0.80267 0.0
H1529 H 0.87291 0.51975 0.80393 0.0
H1530 H 0.80165 0.52011 0.8384 0.0
H1531 H 0.86363 0.54372 0.83897 0.0
H1532 H 0.82606 0.60203 0.86729 0.0
H1533 H 0.84048 0.5749 0.83994 0.0
H1534 H 0.80858 0.52933 0.88608 0.0
H1535 H 0.79425 0.55664 0.9138 0.0
C1536 C 0.8225 0.50677 0.81063 0.0
C1537 C 0.84232 0.50704 0.7997 0.0
C1538 C 0.81731 0.52008 0.8312 0.0
C1539 C 0.83185 0.53397 0.84132 0.0
C1540 C 0.85196 0.53351 0.83124 0.0
C1541 C 0.8572 0.52001 0.81089 0.0
C1542 C 0.82256 0.58618 0.87207 0.0
C1543 C 0.80903 0.58148 0.89273 0.0
C1544 C 0.83085 0.57062 0.8564 0.0
C1545 C 0.82555 0.54996 0.86068 0.0
C1546 C 0.81282 0.54513 0.88217 0.0
C1547 C 0.8048 0.56073 0.89821 0.0
H1548 H 0.69689 0.54397 0.16369 0.0
H1549 H 0.65143 0.57641 0.11808 0.0
H1550 H 0.72409 0.55811 0.1356 0.0
H1551 H 0.6784 0.59058 0.09032 0.0
H1552 H 0.73303 0.6224 0.05282 0.0
H1553 H 0.70939 0.6133 0.08831 0.0
H1554 H 0.73322 0.5514 0.08823 0.0
H1555 H 0.75636 0.56038 0.05219 0.0
C1556 C 0.69277 0.55461 0.14822 0.0
C1557 C 0.67202 0.55908 0.1431 0.0
C1558 C 0.7083 0.56252 0.13195 0.0
C1559 C 0.7034 0.57535 0.11057 0.0
C1560 C 0.68276 0.58088 0.10667 0.0
C1561 C 0.66727 0.57272 0.12258 0.0
C1562 C 0.73291 0.60675 0.06003 0.0
C1563 C 0.74589 0.59185 0.04892 0.0
C1564 C 0.71958 0.60161 0.08061 0.0
C1565 C 0.71926 0.58156 0.09096 0.0
C1566 C 0.73314 0.56701 0.08085 0.0
C1567 C 0.74632 0.57211 0.0601 0.0
H1568 H 0.37317 0.4843 0.30359 0.0
H1569 H 0.31052 0.50577 0.30121 0.0
H1570 H 0.36423 0.46051 0.33897 0.0
H1571 H 0.30165 0.48245 0.33709 0.0
H1572 H 0.29361 0.44622 0.4122 0.0
H1573 H 0.3075 0.4737 0.38439 0.0
H1574 H 0.34281 0.4289 0.34118 0.0
H1575 H 0.32895 0.40165 0.36873 0.0
C1576 C 0.35742 0.48372 0.31037 0.0
C1577 C 0.34234 0.49624 0.29883 0.0
C1578 C 0.35236 0.47031 0.33089 0.0
C1579 C 0.33217 0.46941 0.34074 0.0
C1580 C 0.31737 0.48281 0.33014 0.0
C1581 C 0.32242 0.49609 0.30946 0.0
C1582 C 0.30482 0.44237 0.39729 0.0
C1583 C 0.31018 0.42176 0.39266 0.0
C1584 C 0.31259 0.45806 0.38115 0.0
C1585 C 0.32612 0.45348 0.36038 0.0
C1586 C 0.33254 0.43303 0.35705 0.0
C1587 C 0.32457 0.41738 0.37285 0.0
H1588 H 0.30793 0.54512 0.16111 0.0
H1589 H 0.35518 0.57802 0.11918 0.0
H1590 H 0.28201 0.55897 0.13105 0.0
H1591 H 0.32944 0.59243 0.08989 0.0
H1592 H 0.2868 0.58599 0.01978 0.0
H1593 H 0.31062 0.57776 0.05471 0.0
H1594 H 0.26262 0.58717 0.11201 0.0
H1595 H 0.23854 0.59544 0.0765 0.0
C1596 C 0.31266 0.55591 0.14609 0.0
C1597 C 0.3336 0.56037 0.14238 0.0
C1598 C 0.29782 0.56381 0.12876 0.0
C1599 C 0.30365 0.57645 0.10755 0.0
C1600 C 0.32441 0.58225 0.10542 0.0
C1601 C 0.33918 0.57419 0.12243 0.0
C1602 C 0.28139 0.58692 0.0398 0.0
C1603 C 0.26089 0.59205 0.04534 0.0
C1604 C 0.2951 0.58209 0.05997 0.0
C1605 C 0.28875 0.58216 0.08639 0.0
C1606 C 0.2681 0.58698 0.09195 0.0
C1607 C 0.25432 0.59178 0.07163 0.0
H1608 H 0.17535 0.60174 0.86703 0.0
H1609 H 0.2082 0.5566 0.91269 0.0
H1610 H 0.16145 0.57458 0.83927 0.0
H1611 H 0.19442 0.52926 0.88456 0.0
H1612 H 0.19262 0.49725 0.80084 0.0
H1613 H 0.20141 0.52067 0.83665 0.0
H1614 H 0.13893 0.54285 0.83799 0.0
H1615 H 0.12997 0.51879 0.80292 0.0
C1616 C 0.17918 0.58593 0.87154 0.0
C1617 C 0.19284 0.58132 0.89209 0.0
C1618 C 0.1712 0.57035 0.85562 0.0
C1619 C 0.17696 0.54976 0.85955 0.0
C1620 C 0.18983 0.545 0.88092 0.0
C1621 C 0.19753 0.56062 0.89721 0.0
C1622 C 0.18071 0.50699 0.80896 0.0
C1623 C 0.16081 0.50682 0.79824 0.0
C1624 C 0.18572 0.52033 0.82957 0.0
C1625 C 0.17093 0.53382 0.83997 0.0
C1626 C 0.15078 0.53296 0.83005 0.0
C1627 C 0.14572 0.51941 0.80966 0.0
H1628 H 0.15 0.42756 0.61523 0.0
H1629 H 0.19586 0.45722 0.66321 0.0
H1630 H 0.17679 0.41352 0.58726 0.0
H1631 H 0.22296 0.44304 0.63501 0.0
H1632 H 0.25723 0.44139 0.55319 0.0
H1633 H 0.23389 0.45025 0.58908 0.0
H1634 H 0.20624 0.39006 0.58384 0.0
H1635 H 0.22982 0.38119 0.54823 0.0
C1636 C 0.16589 0.43066 0.62019 0.0
C1637 C 0.17079 0.44353 0.64145 0.0
C1638 C 0.18129 0.42255 0.60414 0.0
C1639 C 0.20206 0.42726 0.60871 0.0
C1640 C 0.20709 0.43929 0.63079 0.0
C1641 C 0.1916 0.44721 0.64714 0.0
C1642 C 0.24627 0.43002 0.55989 0.0
C1643 C 0.2448 0.41089 0.54723 0.0
C1644 C 0.23298 0.43503 0.58058 0.0
C1645 C 0.21798 0.42096 0.58917 0.0
C1646 C 0.21729 0.40142 0.57735 0.0
C1647 C 0.23065 0.3964 0.55678 0.0
H1648 H 0.30973 0.49644 0.71248 0.0
H1649 H 0.37219 0.51858 0.71126 0.0
H1650 H 0.301 0.51986 0.67664 0.0
H1651 H 0.3633 0.54259 0.6761 0.0
H1652 H 0.32688 0.60123 0.64672 0.0
H1653 H 0.34075 0.57408 0.6745 0.0
H1654 H 0.30804 0.52872 0.62897 0.0
H1655 H 0.29426 0.55606 0.60084 0.0
C1656 C 0.32161 0.5063 0.70452 0.0
C1657 C 0.34143 0.5063 0.71549 0.0
C1658 C 0.31664 0.51964 0.68389 0.0
C1659 C 0.33139 0.53328 0.6737 0.0
C1660 C 0.35148 0.53258 0.68387 0.0
C1661 C 0.35649 0.51905 0.7043 0.0
C1662 C 0.32309 0.58541 0.64217 0.0
C1663 C 0.30949 0.5808 0.62155 0.0
C1664 C 0.33106 0.56984 0.6581 0.0
C1665 C 0.32537 0.54924 0.65412 0.0
C1666 C 0.31258 0.54447 0.63267 0.0
C1667 C 0.30487 0.56009 0.61638 0.0
H1668 H 0.23456 0.62301 0.46075 0.0
H1669 H 0.25515 0.56006 0.46277 0.0
H1670 H 0.21053 0.6145 0.42547 0.0
H1671 H 0.23161 0.55162 0.42696 0.0
H1672 H 0.19507 0.54428 0.35207 0.0
H1673 H 0.22282 0.5578 0.37969 0.0
H1674 H 0.1786 0.59343 0.42346 0.0
H1675 H 0.15106 0.57991 0.39609 0.0
C1676 C 0.23374 0.60729 0.45391 0.0
C1677 C 0.24608 0.592 0.46533 0.0
C1678 C 0.22019 0.60247 0.43344 0.0
C1679 C 0.21899 0.58233 0.42352 0.0
C1680 C 0.23221 0.56731 0.43398 0.0
C1681 C 0.24562 0.57211 0.4546 0.0
C1682 C 0.1914 0.55549 0.36706 0.0
C1683 C 0.17087 0.56102 0.3719 0.0
C1684 C 0.20725 0.56304 0.38309 0.0
C1685 C 0.20291 0.57655 0.40397 0.0
C1686 C 0.18254 0.58317 0.4075 0.0
C1687 C 0.16673 0.5754 0.39181 0.0
H1688 H 0.15592 0.51388 0.18935 0.0
H1689 H 0.1674 0.46595 0.24596 0.0
H1690 H 0.16454 0.49002 0.15373 0.0
H1691 H 0.17587 0.44233 0.21088 0.0
H1692 H 0.17492 0.39776 0.14633 0.0
H1693 H 0.16059 0.42334 0.17588 0.0
H1694 H 0.19334 0.47109 0.1344 0.0
H1695 H 0.2072 0.4453 0.10412 0.0
C1696 C 0.16011 0.49822 0.19418 0.0
C1697 C 0.16028 0.49165 0.22048 0.0
C1698 C 0.1651 0.48457 0.17379 0.0
C1699 C 0.17052 0.46407 0.1793 0.0
C1700 C 0.17108 0.45774 0.20571 0.0
C1701 C 0.1661 0.47132 0.22595 0.0
C1702 C 0.17864 0.41379 0.14307 0.0
C1703 C 0.19227 0.41949 0.12298 0.0
C1704 C 0.1706 0.42846 0.16022 0.0
C1705 C 0.17623 0.44926 0.15805 0.0
C1706 C 0.18866 0.45523 0.13671 0.0
C1707 C 0.19656 0.44047 0.11926 0.0
H1708 H 0.2465 0.44264 0.96344 0.0
H1709 H 0.26806 0.38 0.96119 0.0
H1710 H 0.26983 0.45148 0.92754 0.0
H1711 H 0.29204 0.38902 0.92603 0.0
H1712 H 0.35083 0.42547 0.89677 0.0
H1713 H 0.32374 0.41154 0.92462 0.0
H1714 H 0.27832 0.44456 0.87959 0.0
H1715 H 0.30559 0.45838 0.85135 0.0
C1716 C 0.25622 0.43075 0.95526 0.0
C1717 C 0.25609 0.41083 0.96596 0.0
C1718 C 0.26951 0.43579 0.9346 0.0
C1719 C 0.28298 0.42101 0.92412 0.0
C1720 C 0.28216 0.40085 0.93403 0.0
C1721 C 0.26867 0.39576 0.95448 0.0
C1722 C 0.33501 0.42931 0.89233 0.0
C1723 C 0.33035 0.443 0.87182 0.0
C1724 C 0.31947 0.42131 0.9083 0.0
C1725 C 0.29888 0.42707 0.90448 0.0
C1726 C 0.29406 0.43997 0.88315 0.0
C1727 C 0.30964 0.44769 0.8668 0.0
H1728 H 0.22294 0.16133 0.32427 0.0
H1729 H 0.28715 0.1776 0.32096 0.0
H1730 H 0.21999 0.16619 0.27744 0.0
H1731 H 0.284 0.18422 0.27402 0.0
H1732 H 0.2793 0.16135 0.18926 0.0
H1733 H 0.28235 0.16607 0.23613 0.0
H1734 H 0.21848 0.18455 0.23971 0.0
H1735 H 0.21522 0.17807 0.19277 0.0
C1736 C 0.23631 0.16662 0.31356 0.0
C1737 C 0.25534 0.16885 0.32617 0.0
C1738 C 0.23461 0.1696 0.28654 0.0
C1739 C 0.2518 0.17541 0.27148 0.0
C1740 C 0.27052 0.17911 0.28462 0.0
C1741 C 0.27235 0.17553 0.3116 0.0
C1742 C 0.26599 0.16672 0.20003 0.0
C1743 C 0.24696 0.16911 0.18746 0.0
C1744 C 0.26775 0.16961 0.22705 0.0
C1745 C 0.25061 0.17549 0.24217 0.0
C1746 C 0.2319 0.17938 0.22907 0.0
C1747 C 0.23002 0.17588 0.20209 0.0
H1748 H 0.09194 0.96471 0.44901 0.0
H1749 H 0.06991 0.02621 0.43382 0.0
H1750 H 0.08654 0.96986 0.49575 0.0
H1751 H 0.06411 0.03121 0.48064 0.0
H1752 H 0.09347 0.04092 0.56362 0.0
H1753 H 0.08784 0.03598 0.51688 0.0
H1754 H 0.06304 0.97554 0.53202 0.0
H1755 H 0.06906 0.98031 0.57884 0.0
C1756 C 0.08548 0.97916 0.45556 0.0
C1757 C 0.08166 0.99515 0.4377 0.0
C1758 C 0.08226 0.98208 0.48241 0.0
C1759 C 0.07511 1.00105 0.49199 0.0
C1760 C 0.06998 0.01655 0.47393 0.0
C1761 C 0.0732 0.01363 0.44707 0.0
C1762 C 0.08645 0.02673 0.55707 0.0
C1763 C 0.08202 0.01089 0.57494 0.0
C1764 C 0.0831 0.02393 0.53023 0.0
C1765 C 0.0752 0.00525 0.52066 0.0
C1766 C 0.06948 0.98996 0.53872 0.0
C1767 C 0.07283 0.99276 0.56558 0.0
H1768 H 0.29158 0.84326 0.70107 0.0
H1769 H 0.23061 0.81964 0.68626 0.0
H1770 H 0.28653 0.8382 0.74792 0.0
H1771 H 0.2257 0.81424 0.73318 0.0
H1772 H 0.21532 0.84392 0.81583 0.0
H1773 H 0.22046 0.83833 0.7691 0.0
H1774 H 0.28129 0.81466 0.78447 0.0
H1775 H 0.2763 0.82059 0.83127 0.0
C1776 C 0.27728 0.83653 0.70774 0.0
C1777 C 0.26139 0.83215 0.68994 0.0
C1778 C 0.27441 0.83352 0.73464 0.0
C1779 C 0.2556 0.82603 0.74433 0.0
C1780 C 0.24023 0.82037 0.72637 0.0
C1781 C 0.2431 0.82337 0.69946 0.0
C1782 C 0.22965 0.83716 0.80933 0.0
C1783 C 0.2455 0.83298 0.82726 0.0
C1784 C 0.23257 0.83384 0.7825 0.0
C1785 C 0.25139 0.82624 0.77301 0.0
C1786 C 0.26675 0.82084 0.79112 0.0
C1787 C 0.26382 0.82415 0.81796 0.0
H1788 H 0.4321 0.97725 0.93486 0.0
H1789 H 0.40884 0.03854 0.94832 0.0
H1790 H 0.43789 0.97313 0.98183 0.0
H1791 H 0.41421 0.03425 0.99521 0.0
H1792 H 0.40946 0.96401 0.06526 0.0
H1793 H 0.4146 0.96839 0.01834 0.0
H1794 H 0.43765 0.02977 0.03162 0.0
H1795 H 0.43208 0.02556 0.07862 0.0
C1796 C 0.42851 0.98997 0.94777 0.0
C1797 C 0.41975 0.00813 0.93786 0.0
C1798 C 0.43173 0.98755 0.97472 0.0
C1799 C 0.42627 0.00324 0.99234 0.0
C1800 C 0.41875 0.02189 0.98222 0.0
C1801 C 0.41556 0.02432 0.95529 0.0
C1802 C 0.41598 0.97831 0.05826 0.0
C1803 C 0.42006 0.99454 0.07568 0.0
C1804 C 0.41905 0.98079 0.03131 0.0
C1805 C 0.42634 0.99953 0.02116 0.0
C1806 C 0.43168 0.01528 0.03876 0.0
C1807 C 0.42859 0.01281 0.06573 0.0
H1808 H 0.71593 0.84463 0.70107 0.0
H1809 H 0.77705 0.82177 0.68545 0.0
H1810 H 0.72107 0.83881 0.74774 0.0
H1811 H 0.78204 0.81556 0.7322 0.0
H1812 H 0.79223 0.8435 0.81585 0.0
H1813 H 0.7872 0.83871 0.76898 0.0
H1814 H 0.72635 0.81471 0.7835 0.0
H1815 H 0.73123 0.81988 0.83046 0.0
C1816 C 0.73029 0.83793 0.70752 0.0
C1817 C 0.74618 0.83395 0.68956 0.0
C1818 C 0.73321 0.83446 0.73432 0.0
C1819 C 0.75207 0.82691 0.74376 0.0
C1820 C 0.76747 0.82172 0.7256 0.0
C1821 C 0.76455 0.82518 0.69879 0.0
C1822 C 0.77793 0.83682 0.80913 0.0
C1823 C 0.76202 0.83237 0.82689 0.0
C1824 C 0.77507 0.83396 0.7822 0.0
C1825 C 0.75626 0.82654 0.77244 0.0
C1826 C 0.74088 0.8208 0.79036 0.0
C1827 C 0.74374 0.82366 0.81729 0.0
H1828 H 0.92779 0.96815 0.44314 0.0
H1829 H 0.91042 0.03205 0.4396 0.0
H1830 H 0.93425 0.97148 0.49008 0.0
H1831 H 0.9151 0.03516 0.48646 0.0
H1832 H 0.92664 0.04015 0.57126 0.0
H1833 H 0.93321 0.03705 0.52432 0.0
H1834 H 0.91602 0.9728 0.52787 0.0
H1835 H 0.91123 0.97573 0.57473 0.0
C1836 C 0.92545 0.98292 0.45245 0.0
C1837 C 0.91851 0.99979 0.43782 0.0
C1838 C 0.92893 0.98485 0.47944 0.0
C1839 C 0.92486 0.00352 0.49252 0.0
C1840 C 0.91879 0.02059 0.4774 0.0
C1841 C 0.91592 0.0188 0.45037 0.0
C1842 C 0.92475 0.02532 0.56193 0.0
C1843 C 0.91833 0.00823 0.57655 0.0
C1844 C 0.9283 0.02351 0.53494 0.0
C1845 C 0.92482 0.00473 0.52184 0.0
C1846 C 0.91926 0.98747 0.53695 0.0
C1847 C 0.91632 0.98916 0.56397 0.0
H1848 H 0.71147 0.15848 0.31434 0.0
H1849 H 0.77227 0.18253 0.32915 0.0
H1850 H 0.71625 0.16413 0.26757 0.0
H1851 H 0.77689 0.18856 0.28231 0.0
H1852 H 0.72567 0.18271 0.18454 0.0
H1853 H 0.72091 0.18804 0.23149 0.0
H1854 H 0.78228 0.16533 0.24573 0.0
H1855 H 0.78718 0.16038 0.19885 0.0
C1856 C 0.72568 0.16542 0.30769 0.0
C1857 C 0.7416 0.16977 0.32547 0.0
C1858 C 0.72839 0.16877 0.28083 0.0
C1859 C 0.74706 0.1766 0.27114 0.0
C1860 C 0.76246 0.18218 0.2891 0.0
C1861 C 0.75976 0.17882 0.31597 0.0
C1862 C 0.73831 0.17924 0.19763 0.0
C1863 C 0.75672 0.17085 0.18796 0.0
C1864 C 0.73552 0.1822 0.22457 0.0
C1865 C 0.7511 0.17686 0.24241 0.0
C1866 C 0.77 0.16976 0.23256 0.0
C1867 C 0.77278 0.1668 0.20564 0.0
H1868 H 0.59287 0.96811 0.94013 0.0
H1869 H 0.57405 0.03165 0.94185 0.0
H1870 H 0.58853 0.9658 0.98714 0.0
H1871 H 0.56801 0.02908 0.98896 0.0
H1872 H 0.59188 0.02692 0.0734 0.0
H1873 H 0.58678 0.02884 0.02651 0.0
H1874 H 0.57047 0.96432 0.02525 0.0
H1875 H 0.57728 0.96226 0.07224 0.0
C1876 C 0.58713 0.98144 0.95054 0.0
C1877 C 0.58404 1.00014 0.93741 0.0
C1878 C 0.58446 0.9801 0.97765 0.0
C1879 C 0.57812 0.99732 0.9923 0.0
C1880 C 0.57354 0.01563 0.97867 0.0
C1881 C 0.57679 0.01711 0.95159 0.0
C1882 C 0.58692 0.01321 0.06315 0.0
C1883 C 0.58522 0.99438 0.0764 0.0
C1884 C 0.5838 0.01431 0.03611 0.0
C1885 C 0.57839 0.99669 0.02164 0.0
C1886 C 0.57524 0.97813 0.03539 0.0
C1887 C 0.57894 0.97692 0.0624 0.0
H1888 H 0.70916 0.65721 0.70012 0.0
H1889 H 0.76946 0.68229 0.68473 0.0
H1890 H 0.71431 0.6625 0.7469 0.0
H1891 H 0.77444 0.68793 0.73158 0.0
H1892 H 0.72437 0.68053 0.83008 0.0
H1893 H 0.71905 0.68621 0.78328 0.0
H1894 H 0.78047 0.66421 0.76765 0.0
H1895 H 0.78593 0.6589 0.81436 0.0
C1896 C 0.72333 0.6643 0.70665 0.0
C1897 C 0.73901 0.66905 0.6887 0.0
C1898 C 0.72624 0.66744 0.73351 0.0
C1899 C 0.7449 0.67543 0.74303 0.0
C1900 C 0.76004 0.68142 0.72492 0.0
C1901 C 0.75712 0.67829 0.69804 0.0
C1902 C 0.73689 0.67729 0.81671 0.0
C1903 C 0.75549 0.669 0.82594 0.0
C1904 C 0.73379 0.68045 0.78987 0.0
C1905 C 0.74923 0.67543 0.77168 0.0
C1906 C 0.76829 0.6684 0.7811 0.0
C1907 C 0.77139 0.66524 0.80792 0.0
H1908 H 0.57076 0.52441 0.9355 0.0
H1909 H 0.59334 0.46295 0.9496 0.0
H1910 H 0.56534 0.52901 0.98246 0.0
H1911 H 0.58833 0.46771 0.99648 0.0
H1912 H 0.57097 0.47729 0.07989 0.0
H1913 H 0.56504 0.47281 0.03301 0.0
H1914 H 0.58902 0.5337 0.01868 0.0
H1915 H 0.59454 0.53834 0.06549 0.0
C1916 C 0.57427 0.51175 0.94855 0.0
C1917 C 0.58274 0.4934 0.93882 0.0
C1918 C 0.57126 0.51445 0.97549 0.0
C1919 C 0.57663 0.49884 0.99329 0.0
C1920 C 0.58386 0.48001 0.98336 0.0
C1921 C 0.58685 0.47731 0.95644 0.0
C1922 C 0.5746 0.48988 0.06679 0.0
C1923 C 0.58349 0.50807 0.07641 0.0
C1924 C 0.57129 0.48726 0.0399 0.0
C1925 C 0.57679 0.50278 0.02204 0.0
C1926 C 0.58444 0.52148 0.03186 0.0
C1927 C 0.58773 0.5241 0.05875 0.0
H1928 H 0.77748 0.32171 0.3286 0.0
H1929 H 0.71588 0.34416 0.31522 0.0
H1930 H 0.78156 0.3158 0.28165 0.0
H1931 H 0.72012 0.33867 0.26836 0.0
H1932 H 0.72874 0.32077 0.18508 0.0
H1933 H 0.7248 0.31512 0.2321 0.0
H1934 H 0.78588 0.33909 0.245 0.0
H1935 H 0.78999 0.34432 0.19806 0.0
C1936 C 0.76469 0.32509 0.31572 0.0
C1937 C 0.74644 0.33367 0.32563 0.0
C1938 C 0.76708 0.3218 0.28878 0.0
C1939 C 0.75128 0.32699 0.27119 0.0
C1940 C 0.73256 0.33433 0.28133 0.0
C1941 C 0.73016 0.33761 0.30824 0.0
C1942 C 0.74149 0.32445 0.19789 0.0
C1943 C 0.75958 0.33327 0.18784 0.0
C1944 C 0.73918 0.3213 0.22487 0.0
C1945 C 0.75491 0.3269 0.24237 0.0
C1946 C 0.7735 0.33445 0.2321 0.0
C1947 C 0.77582 0.33757 0.20514 0.0
H1948 H 0.92888 0.53069 0.57849 0.0
H1949 H 0.90833 0.46842 0.56503 0.0
H1950 H 0.93438 0.53509 0.53149 0.0
H1951 H 0.91343 0.47297 0.51814 0.0
H1952 H 0.90542 0.54274 0.44801 0.0
H1953 H 0.91074 0.53868 0.49496 0.0
H1954 H 0.93685 0.47853 0.48181 0.0
H1955 H 0.93114 0.48241 0.4348 0.0
C1956 C 0.92583 0.51783 0.56557 0.0
C1957 C 0.9179 0.49929 0.57549 0.0
C1958 C 0.92888 0.52041 0.53862 0.0
C1959 C 0.92411 0.50449 0.521 0.0
C1960 C 0.91743 0.48552 0.53112 0.0
C1961 C 0.91438 0.48294 0.55806 0.0
C1962 C 0.91265 0.52879 0.45505 0.0
C1963 C 0.91757 0.51278 0.43768 0.0
C1964 C 0.91582 0.52651 0.48201 0.0
C1965 C 0.92402 0.50817 0.4922 0.0
C1966 C 0.93017 0.49269 0.47464 0.0
C1967 C 0.92699 0.49498 0.44767 0.0
H1968 H 0.27647 0.32012 0.18403 0.0
H1969 H 0.21486 0.34199 0.19887 0.0
H1970 H 0.28135 0.31441 0.2309 0.0
H1971 H 0.2199 0.33669 0.24565 0.0
H1972 H 0.23013 0.31931 0.32884 0.0
H1973 H 0.22549 0.31331 0.282 0.0
H1974 H 0.28599 0.33805 0.26718 0.0
H1975 H 0.2908 0.34366 0.31394 0.0
C1976 C 0.26384 0.3234 0.19722 0.0
C1977 C 0.24537 0.33178 0.18773 0.0
C1978 C 0.26669 0.32023 0.22411 0.0
C1979 C 0.25113 0.32534 0.24208 0.0
C1980 C 0.23217 0.33243 0.23238 0.0
C1981 C 0.22931 0.33559 0.20551 0.0
C1982 C 0.24261 0.32308 0.31564 0.0
C1983 C 0.26073 0.33224 0.32511 0.0
C1984 C 0.23989 0.31974 0.28877 0.0
C1985 C 0.25524 0.32545 0.27079 0.0
C1986 C 0.2739 0.33332 0.28046 0.0
C1987 C 0.27662 0.33665 0.30731 0.0
H1988 H 0.40797 0.4635 0.94913 0.0
H1989 H 0.43182 0.52451 0.93522 0.0
H1990 H 0.41382 0.46774 0.99592 0.0
H1991 H 0.43811 0.52858 0.9821 0.0
H1992 H 0.43217 0.47619 0.07905 0.0
H1993 H 0.43757 0.47196 0.03202 0.0
H1994 H 0.41518 0.5336 0.01889 0.0
H1995 H 0.41023 0.538 0.06581 0.0
C1996 C 0.41491 0.47764 0.95598 0.0
C1997 C 0.41913 0.49378 0.93847 0.0
C1998 C 0.4184 0.48004 0.98285 0.0
C1999 C 0.42624 0.49861 0.99283 0.0
C2000 C 0.43172 0.51423 0.9751 0.0
C2001 C 0.42821 0.51184 0.94821 0.0
C2002 C 0.4288 0.48899 0.06618 0.0
C2003 C 0.42049 0.50734 0.07617 0.0
C2004 C 0.4318 0.48651 0.0392 0.0
C2005 C 0.42656 0.50232 0.02163 0.0
C2006 C 0.41955 0.52115 0.03182 0.0
C2007 C 0.41658 0.52363 0.05878 0.0
H2008 H 0.28855 0.65893 0.69889 0.0
H2009 H 0.22725 0.68172 0.68423 0.0
H2010 H 0.28379 0.66459 0.74564 0.0
H2011 H 0.22265 0.68779 0.73107 0.0
H2012 H 0.27423 0.6827 0.82868 0.0
H2013 H 0.27873 0.68836 0.78174 0.0
H2014 H 0.21781 0.6644 0.76764 0.0
H2015 H 0.21315 0.65915 0.8145 0.0
C2016 C 0.27423 0.6656 0.70556 0.0
C2017 C 0.25817 0.66957 0.68785 0.0
C2018 C 0.27153 0.66898 0.73241 0.0
C2019 C 0.25274 0.67644 0.74215 0.0
C2020 C 0.23718 0.68169 0.72424 0.0
C2021 C 0.23987 0.67831 0.69737 0.0
C2022 C 0.26163 0.67904 0.81562 0.0
C2023 C 0.24343 0.6702 0.82531 0.0
C2024 C 0.26427 0.68218 0.78869 0.0
C2025 C 0.24875 0.67659 0.77089 0.0
C2026 C 0.23003 0.66904 0.78078 0.0
C2027 C 0.22739 0.66591 0.80769 0.0
H2028 H 0.06818 0.48128 0.43588 0.0
H2029 H 0.09255 0.54187 0.45123 0.0
H2030 H 0.06236 0.47634 0.48271 0.0
H2031 H 0.08711 0.53677 0.49797 0.0
H2032 H 0.09202 0.46524 0.56525 0.0
H2033 H 0.08623 0.47058 0.51862 0.0
H2034 H 0.06357 0.53173 0.53446 0.0
H2035 H 0.06974 0.52653 0.58117 0.0
C2036 C 0.07198 0.49369 0.44917 0.0
C2037 C 0.08112 0.51186 0.43984 0.0
C2038 C 0.06874 0.4908 0.47603 0.0
C2039 C 0.07452 0.50603 0.49412 0.0
C2040 C 0.08233 0.52476 0.4846 0.0
C2041 C 0.08557 0.52765 0.45775 0.0
C2042 C 0.08543 0.47968 0.55888 0.0
C2043 C 0.08165 0.49556 0.57691 0.0
C2044 C 0.08198 0.48271 0.53211 0.0
C2045 C 0.07464 0.50168 0.52276 0.0
C2046 C 0.06957 0.51707 0.54099 0.0
C2047 C 0.07301 0.51403 0.56778 0.0
H2048 H 0.33939 0.04053 0.19113 0.0
H2049 H 0.37422 0.03908 0.11889 0.0
H2050 H 0.32026 0.06994 0.17509 0.0
H2051 H 0.35508 0.06874 0.10294 0.0
H2052 H 0.28906 0.08811 0.07318 0.0
H2053 H 0.319 0.06955 0.08883 0.0
H2054 H 0.31884 0.10567 0.15994 0.0
H2055 H 0.28865 0.12416 0.14445 0.0
C2056 C 0.34342 0.04684 0.17216 0.0
C2057 C 0.35805 0.03719 0.15611 0.0
C2058 C 0.3325 0.06382 0.16299 0.0
C2059 C 0.336 0.07148 0.13759 0.0
C2060 C 0.35185 0.06294 0.12243 0.0
C2061 C 0.36281 0.04597 0.13163 0.0
C2062 C 0.29569 0.0925 0.09184 0.0
C2063 C 0.2862 0.1073 0.10779 0.0
C2064 C 0.31297 0.08193 0.10076 0.0
C2065 C 0.3211 0.08598 0.12579 0.0
C2066 C 0.31269 0.10201 0.14075 0.0
C2067 C 0.29541 0.1126 0.13183 0.0
H2068 H 0.12803 0.03906 0.3955 0.0
H2069 H 0.16322 0.04062 0.32356 0.0
H2070 H 0.14688 0.06889 0.4115 0.0
H2071 H 0.18208 0.07018 0.33965 0.0
H2072 H 0.21328 0.12457 0.37008 0.0
H2073 H 0.18321 0.10591 0.35455 0.0
H2074 H 0.1828 0.07021 0.42602 0.0
H2075 H 0.2126 0.08899 0.44174 0.0
C2076 C 0.13945 0.04601 0.38284 0.0
C2077 C 0.1444 0.03721 0.35843 0.0
C2078 C 0.15026 0.06308 0.39206 0.0
C2079 C 0.16614 0.0717 0.37701 0.0
C2080 C 0.16983 0.06401 0.35167 0.0
C2081 C 0.15906 0.04694 0.34247 0.0
C2082 C 0.20648 0.11308 0.38277 0.0
C2083 C 0.21561 0.10794 0.40692 0.0
C2084 C 0.18927 0.10239 0.37382 0.0
C2085 C 0.18085 0.08639 0.38885 0.0
C2086 C 0.18884 0.08254 0.41401 0.0
C2087 C 0.20605 0.09323 0.42298 0.0
H2088 H 0.20325 0.89323 0.57417 0.0
H2089 H 0.22525 0.8947 0.65401 0.0
H2090 H 0.17238 0.9117 0.58747 0.0
H2091 H 0.19551 0.91432 0.66707 0.0
H2092 H 0.14339 0.952 0.68933 0.0
H2093 H 0.1619 0.92122 0.6758 0.0
H2094 H 0.1655 0.94524 0.59668 0.0
H2095 H 0.14583 0.9749 0.60992 0.0
C2096 C 0.20138 0.8974 0.59458 0.0
C2097 C 0.21678 0.8929 0.61294 0.0
C2098 C 0.18376 0.90811 0.60225 0.0
C2099 C 0.18153 0.91509 0.62828 0.0
C2100 C 0.19635 0.90916 0.64692 0.0
C2101 C 0.21362 0.89799 0.63938 0.0
C2102 C 0.14778 0.95035 0.66895 0.0
C2103 C 0.14353 0.96597 0.65079 0.0
C2104 C 0.15852 0.93278 0.66116 0.0
C2105 C 0.16578 0.93082 0.63523 0.0
C2106 C 0.16011 0.94587 0.61675 0.0
C2107 C 0.14892 0.9631 0.62439 0.0
H2108 H 0.33918 0.96122 0.82271 0.0
H2109 H 0.37649 0.96205 0.89289 0.0
H2110 H 0.32123 0.9311 0.8389 0.0
H2111 H 0.35861 0.93165 0.90893 0.0
H2112 H 0.29381 0.91163 0.94208 0.0
H2113 H 0.32335 0.93013 0.92528 0.0
H2114 H 0.32032 0.89525 0.85327 0.0
H2115 H 0.29049 0.87679 0.86999 0.0
C2116 C 0.344 0.95463 0.84121 0.0
C2117 C 0.35894 0.96433 0.85676 0.0
C2118 C 0.33377 0.93723 0.85046 0.0
C2119 C 0.33831 0.92918 0.8754 0.0
C2120 C 0.35456 0.93774 0.88984 0.0
C2121 C 0.3648 0.95515 0.8806 0.0
C2122 C 0.29976 0.90743 0.923 0.0
C2123 C 0.28949 0.89306 0.90718 0.0
C2124 C 0.31682 0.91799 0.91338 0.0
C2125 C 0.32397 0.91436 0.88776 0.0
C2126 C 0.31491 0.89861 0.87291 0.0
C2127 C 0.29784 0.88803 0.88254 0.0
H2128 H 0.62874 0.95905 0.89166 0.0
H2129 H 0.66647 0.96106 0.82185 0.0
H2130 H 0.64805 0.92945 0.90729 0.0
H2131 H 0.68584 0.93164 0.83767 0.0
H2132 H 0.71758 0.87712 0.86819 0.0
H2133 H 0.68764 0.89531 0.85134 0.0
H2134 H 0.68356 0.92955 0.92375 0.0
H2135 H 0.71329 0.91139 0.94066 0.0
C2136 C 0.64086 0.95294 0.87937 0.0
C2137 C 0.64636 0.96268 0.85574 0.0
C2138 C 0.65191 0.93599 0.88838 0.0
C2139 C 0.66863 0.92843 0.87392 0.0
C2140 C 0.67295 0.93703 0.84921 0.0
C2141 C 0.6619 0.95399 0.84019 0.0
C2142 C 0.71001 0.88818 0.88078 0.0
C2143 C 0.71807 0.8931 0.90562 0.0
C2144 C 0.69288 0.8986 0.87107 0.0
C2145 C 0.68344 0.91403 0.88606 0.0
C2146 C 0.6904 0.91763 0.91177 0.0
C2147 C 0.70755 0.90727 0.92145 0.0
H2148 H 0.87489 0.96532 0.62007 0.0
H2149 H 0.83951 0.96374 0.69187 0.0
H2150 H 0.85683 0.93488 0.60453 0.0
H2151 H 0.82136 0.93358 0.67617 0.0
H2152 H 0.79139 0.91458 0.57404 0.0
H2153 H 0.82107 0.93336 0.58985 0.0
H2154 H 0.82045 0.89778 0.66142 0.0
H2155 H 0.79049 0.879 0.64569 0.0
C2156 C 0.86359 0.95825 0.63279 0.0
C2157 C 0.8583 0.96722 0.65698 0.0
C2158 C 0.85325 0.94082 0.62385 0.0
C2159 C 0.83747 0.93205 0.63892 0.0
C2160 C 0.83354 0.93989 0.66413 0.0
C2161 C 0.84387 0.95731 0.67308 0.0
C2162 C 0.79789 0.9103 0.5928 0.0
C2163 C 0.7883 0.89559 0.60881 0.0
C2164 C 0.81503 0.92102 0.60184 0.0
C2165 C 0.82293 0.91722 0.62705 0.0
C2166 C 0.81447 0.90124 0.64208 0.0
C2167 C 0.79732 0.89049 0.63303 0.0
H2168 H 0.87379 0.04149 0.39389 0.0
H2169 H 0.83715 0.04085 0.32312 0.0
H2170 H 0.85514 0.07164 0.40915 0.0
H2171 H 0.8184 0.07073 0.33856 0.0
H2172 H 0.78684 0.12522 0.3683 0.0
H2173 H 0.81691 0.1068 0.35224 0.0
H2174 H 0.81967 0.07269 0.42488 0.0
H2175 H 0.78989 0.09112 0.44102 0.0
C2176 C 0.86206 0.04801 0.38133 0.0
C2177 C 0.85664 0.0385 0.35752 0.0
C2178 C 0.85138 0.06527 0.39012 0.0
C2179 C 0.83512 0.07337 0.37527 0.0
C2180 C 0.83095 0.06496 0.35041 0.0
C2181 C 0.84163 0.04771 0.34161 0.0
C2182 C 0.79417 0.11415 0.38112 0.0
C2183 C 0.7857 0.10933 0.40576 0.0
C2184 C 0.81138 0.10359 0.37186 0.0
C2185 C 0.82046 0.08809 0.38711 0.0
C2186 C 0.81313 0.08464 0.41269 0.0
C2187 C 0.79593 0.09516 0.42192 0.0
H2188 H 0.66409 0.03958 0.19247 0.0
H2189 H 0.62801 0.03818 0.12125 0.0
H2190 H 0.68208 0.06978 0.17658 0.0
H2191 H 0.64593 0.06863 0.10551 0.0
H2192 H 0.71101 0.08933 0.07408 0.0
H2193 H 0.68161 0.07028 0.0903 0.0
H2194 H 0.68262 0.10572 0.16195 0.0
H2195 H 0.71229 0.12476 0.14583 0.0
C2196 C 0.65954 0.04606 0.17379 0.0
C2197 C 0.64494 0.03619 0.1579 0.0
C2198 C 0.66979 0.0635 0.16471 0.0
C2199 C 0.6656 0.0714 0.1396 0.0
C2200 C 0.64969 0.06265 0.12475 0.0
C2201 C 0.63943 0.04521 0.13382 0.0
C2202 C 0.70466 0.0935 0.09297 0.0
C2203 C 0.71428 0.10826 0.10887 0.0
C2204 C 0.68767 0.08263 0.10224 0.0
C2205 C 0.67998 0.08632 0.12758 0.0
C2206 C 0.68845 0.10234 0.14252 0.0
C2207 C 0.70543 0.11324 0.13323 0.0
H2208 H 0.78363 0.62432 0.64944 0.0
H2209 H 0.79194 0.59404 0.57474 0.0
H2210 H 0.81395 0.60686 0.66637 0.0
H2211 H 0.82177 0.57634 0.59176 0.0
H2212 H 0.87481 0.54491 0.62435 0.0
H2213 H 0.85605 0.57524 0.60981 0.0
H2214 H 0.81692 0.57092 0.6781 0.0
H2215 H 0.83582 0.54099 0.69285 0.0
C2216 C 0.79212 0.61428 0.63641 0.0
C2217 C 0.78499 0.61013 0.61089 0.0
C2218 C 0.80948 0.60425 0.64618 0.0
C2219 C 0.82004 0.58992 0.6306 0.0
C2220 C 0.81407 0.58734 0.6043 0.0
C2221 C 0.79677 0.59738 0.59455 0.0
C2222 C 0.86253 0.55075 0.63659 0.0
C2223 C 0.85652 0.54028 0.65949 0.0
C2224 C 0.85177 0.56811 0.62823 0.0
C2225 C 0.83478 0.57528 0.64254 0.0
C2226 C 0.83002 0.56592 0.66666 0.0
C2227 C 0.8408 0.54862 0.67507 0.0
H2228 H 0.71181 0.624 0.86971 0.0
H2229 H 0.71098 0.58781 0.94086 0.0
H2230 H 0.68179 0.60544 0.8538 0.0
H2231 H 0.6812 0.56922 0.92484 0.0
H2232 H 0.66184 0.54003 0.8224 0.0
H2233 H 0.68051 0.56974 0.83851 0.0
H2234 H 0.64528 0.56821 0.91032 0.0
H2235 H 0.62667 0.53825 0.89435 0.0
C2236 C 0.70499 0.6124 0.88222 0.0
C2237 C 0.71405 0.60709 0.90636 0.0
C2238 C 0.6878 0.60177 0.87306 0.0
C2239 C 0.67932 0.58569 0.88788 0.0
C2240 C 0.68727 0.58164 0.91301 0.0
C2241 C 0.70446 0.59224 0.92216 0.0
C2242 C 0.65764 0.54633 0.8413 0.0
C2243 C 0.6431 0.53647 0.85731 0.0
C2244 C 0.66828 0.56348 0.85051 0.0
C2245 C 0.66457 0.57112 0.87588 0.0
C2246 C 0.6487 0.56243 0.89088 0.0
C2247 C 0.63803 0.54528 0.88167 0.0
H2248 H 0.66383 0.46112 0.19146 0.0
H2249 H 0.62783 0.46266 0.1202 0.0
H2250 H 0.68228 0.43136 0.1752 0.0
H2251 H 0.64625 0.43263 0.10404 0.0
H2252 H 0.71167 0.41306 0.0725 0.0
H2253 H 0.68191 0.43147 0.08882 0.0
H2254 H 0.68351 0.39566 0.16018 0.0
H2255 H 0.71355 0.37729 0.14397 0.0
C2256 C 0.65939 0.45475 0.17269 0.0
C2257 C 0.64466 0.46455 0.15692 0.0
C2258 C 0.66992 0.43756 0.16339 0.0
C2259 C 0.66591 0.42982 0.13815 0.0
C2260 C 0.64989 0.43848 0.12338 0.0
C2261 C 0.63933 0.45567 0.13269 0.0
C2262 C 0.70538 0.40866 0.09134 0.0
C2263 C 0.71528 0.39401 0.10714 0.0
C2264 C 0.68818 0.41916 0.10067 0.0
C2265 C 0.68054 0.41521 0.12598 0.0
C2266 C 0.68929 0.39926 0.14079 0.0
C2267 C 0.70648 0.38873 0.13145 0.0
H2268 H 0.84122 0.46117 0.3219 0.0
H2269 H 0.87529 0.46579 0.39447 0.0
H2270 H 0.82332 0.43128 0.33869 0.0
H2271 H 0.85744 0.43558 0.41119 0.0
H2272 H 0.79177 0.41525 0.44099 0.0
H2273 H 0.82156 0.43382 0.42506 0.0
H2274 H 0.82242 0.39612 0.3553 0.0
H2275 H 0.79232 0.3776 0.37112 0.0
C2276 C 0.84539 0.45544 0.3411 0.0
C2277 C 0.85936 0.46616 0.35702 0.0
C2278 C 0.83518 0.43817 0.35072 0.0
C2279 C 0.83875 0.43125 0.37645 0.0
C2280 C 0.85413 0.44079 0.39145 0.0
C2281 C 0.86436 0.45808 0.38182 0.0
C2282 C 0.79862 0.41047 0.42263 0.0
C2283 C 0.78939 0.39523 0.4071 0.0
C2284 C 0.81583 0.42107 0.41352 0.0
C2285 C 0.82417 0.41662 0.38872 0.0
C2286 C 0.81609 0.40011 0.37428 0.0
C2287 C 0.79886 0.38951 0.38339 0.0
H2288 H 0.22478 0.39614 0.36068 0.0
H2289 H 0.20259 0.39424 0.44044 0.0
H2290 H 0.19505 0.41578 0.34766 0.0
H2291 H 0.17174 0.41278 0.42716 0.0
H2292 H 0.1453 0.47612 0.40495 0.0
H2293 H 0.16494 0.44641 0.41811 0.0
H2294 H 0.1614 0.42261 0.3389 0.0
H2295 H 0.14291 0.45344 0.32547 0.0
C2296 C 0.21311 0.39935 0.37529 0.0
C2297 C 0.21621 0.39413 0.4017 0.0
C2298 C 0.19584 0.41053 0.36778 0.0
C2299 C 0.18098 0.41635 0.38641 0.0
C2300 C 0.18317 0.40926 0.4124 0.0
C2301 C 0.20078 0.39853 0.42005 0.0
C2302 C 0.1484 0.46436 0.39044 0.0
C2303 C 0.14305 0.46729 0.36405 0.0
C2304 C 0.15957 0.4471 0.39804 0.0
C2305 C 0.16524 0.4321 0.37951 0.0
C2306 C 0.15801 0.43414 0.35357 0.0
C2307 C 0.1473 0.45173 0.34583 0.0
H2308 H 0.2894 0.3775 0.14452 0.0
H2309 H 0.29055 0.41324 0.07299 0.0
H2310 H 0.31929 0.39626 0.16049 0.0
H2311 H 0.32021 0.43199 0.08907 0.0
H2312 H 0.37491 0.46284 0.1199 0.0
H2313 H 0.35615 0.43294 0.10399 0.0
H2314 H 0.32024 0.43226 0.17526 0.0
H2315 H 0.33901 0.46194 0.1913 0.0
C2316 C 0.29628 0.38902 0.13193 0.0
C2317 C 0.28733 0.39417 0.10767 0.0
C2318 C 0.31338 0.39976 0.14114 0.0
C2319 C 0.3219 0.41577 0.12622 0.0
C2320 C 0.31409 0.41964 0.10098 0.0
C2321 C 0.29697 0.40894 0.09179 0.0
C2322 C 0.36334 0.45602 0.13247 0.0
C2323 C 0.35816 0.46504 0.15668 0.0
C2324 C 0.3526 0.43891 0.1233 0.0
C2325 C 0.33655 0.43045 0.13819 0.0
C2326 C 0.33263 0.43834 0.16337 0.0
C2327 C 0.34333 0.45547 0.17253 0.0
H2328 H 0.33865 0.54061 0.82263 0.0
H2329 H 0.37451 0.53978 0.89403 0.0
H2330 H 0.32037 0.57068 0.83817 0.0
H2331 H 0.35625 0.57014 0.90947 0.0
H2332 H 0.29074 0.59011 0.94028 0.0
H2333 H 0.32058 0.57157 0.9245 0.0
H2334 H 0.31923 0.60656 0.85247 0.0
H2335 H 0.28909 0.62507 0.86814 0.0
C2336 C 0.3431 0.5472 0.84128 0.0
C2337 C 0.35773 0.53751 0.85731 0.0
C2338 C 0.33268 0.56457 0.85016 0.0
C2339 C 0.33668 0.57262 0.87523 0.0
C2340 C 0.35262 0.56406 0.89025 0.0
C2341 C 0.36307 0.54668 0.88136 0.0
C2342 C 0.2971 0.5943 0.92139 0.0
C2343 C 0.28724 0.60875 0.90525 0.0
C2344 C 0.31434 0.58373 0.91238 0.0
C2345 C 0.32208 0.58741 0.88706 0.0
C2346 C 0.31338 0.60318 0.87189 0.0
C2347 C 0.29612 0.61378 0.88092 0.0
H2348 H 0.21166 0.589 0.57282 0.0
H2349 H 0.213 0.62504 0.64407 0.0
H2350 H 0.18165 0.57076 0.58882 0.0
H2351 H 0.18274 0.60684 0.65994 0.0
H2352 H 0.12717 0.53992 0.61967 0.0
H2353 H 0.14578 0.56988 0.60362 0.0
H2354 H 0.18141 0.57111 0.6751 0.0
H2355 H 0.1628 0.5414 0.69125 0.0
C2356 C 0.2052 0.59349 0.59153 0.0
C2357 C 0.21501 0.60815 0.60739 0.0
C2358 C 0.18788 0.58309 0.60067 0.0
C2359 C 0.18001 0.58718 0.62583 0.0
C2360 C 0.18869 0.60315 0.64066 0.0
C2361 C 0.20601 0.61356 0.63152 0.0
C2362 C 0.13862 0.54689 0.63226 0.0
C2363 C 0.14381 0.538 0.65654 0.0
C2364 C 0.14928 0.56404 0.62301 0.0
C2365 C 0.16525 0.57265 0.6379 0.0
C2366 C 0.1691 0.56493 0.6632 0.0
C2367 C 0.15847 0.54777 0.67243 0.0
H2368 H 0.18565 0.19678 0.03537 0.0
H2369 H 0.24882 0.2038 0.05893 0.0
H2370 H 0.18383 0.23366 0.02537 0.0
H2371 H 0.24716 0.24045 0.04944 0.0
H2372 H 0.24307 0.30563 0.02909 0.0
H2373 H 0.24309 0.26881 0.01905 0.0
H2374 H 0.18317 0.26303 0.0549 0.0
H2375 H 0.18315 0.29979 0.06426 0.0
C2376 C 0.19929 0.20616 0.03758 0.0
C2377 C 0.21739 0.19765 0.04776 0.0
C2378 C 0.19824 0.22725 0.0321 0.0
C2379 C 0.21531 0.24007 0.03674 0.0
C2380 C 0.23381 0.23108 0.04524 0.0
C2381 C 0.23479 0.2101 0.05078 0.0
C2382 C 0.22965 0.29653 0.03389 0.0
C2383 C 0.21318 0.30534 0.0476 0.0
C2384 C 0.2297 0.27545 0.02839 0.0
C2385 C 0.21327 0.26288 0.03652 0.0
C2386 C 0.19602 0.2722 0.04816 0.0
C2387 C 0.196 0.29323 0.05364 0.0
H2388 H 0.94612 0.93804 0.28526 0.0
H2389 H 0.95405 1.00083 0.30998 0.0
H2390 H 0.98296 0.93582 0.27516 0.0
H2391 H 0.99065 0.99878 0.30038 0.0
H2392 H 0.05566 0.99415 0.2797 0.0
H2393 H 0.01884 0.99468 0.26974 0.0
H2394 H 0.01242 0.93447 0.3046 0.0
H2395 H 0.04919 0.93393 0.31386 0.0
C2396 C 0.9557 0.95152 0.28771 0.0
C2397 C 0.94745 0.96961 0.29826 0.0
C2398 C 0.97676 0.95025 0.28217 0.0
C2399 C 0.98982 0.96709 0.28708 0.0
C2400 C 0.98109 0.9856 0.29596 0.0
C2401 C 0.96015 0.98681 0.30158 0.0
C2402 C 0.04641 0.98078 0.2843 0.0
C2403 C 0.05505 0.96408 0.29773 0.0
C2404 C 0.02534 0.98113 0.27884 0.0
C2405 C 0.01259 0.96476 0.28674 0.0
C2406 C 0.02172 0.94728 0.29805 0.0
C2407 C 0.04276 0.94696 0.30349 0.0
H2408 H 0.31674 0.69635 0.53511 0.0
H2409 H 0.25413 0.70325 0.56101 0.0
H2410 H 0.31848 0.73334 0.52575 0.0
H2411 H 0.25571 0.74 0.55222 0.0
H2412 H 0.25945 0.80534 0.53248 0.0
H2413 H 0.25905 0.76857 0.5223 0.0
H2414 H 0.31996 0.76258 0.55523 0.0
H2415 H 0.32039 0.79934 0.56459 0.0
C2416 C 0.30319 0.70574 0.53799 0.0
C2417 C 0.28528 0.69715 0.54861 0.0
C2418 C 0.30419 0.72689 0.53289 0.0
C2419 C 0.28727 0.73971 0.53836 0.0
C2420 C 0.26894 0.73065 0.54736 0.0
C2421 C 0.268 0.70961 0.55251 0.0
C2422 C 0.27297 0.7962 0.53665 0.0
C2423 C 0.28986 0.80497 0.54955 0.0
C2424 C 0.27271 0.77515 0.53107 0.0
C2425 C 0.28934 0.76252 0.53833 0.0
C2426 C 0.30693 0.77178 0.54918 0.0
C2427 C 0.30718 0.79281 0.5547 0.0
H2428 H 0.44518 0.00851 0.77896 0.0
H2429 H 0.45294 0.06847 0.81339 0.0
H2430 H 0.48195 0.00727 0.76884 0.0
H2431 H 0.48967 0.06722 0.80396 0.0
H2432 H 0.55583 0.06233 0.78419 0.0
H2433 H 0.51902 0.06531 0.7742 0.0
H2434 H 0.51007 0.00255 0.79955 0.0
H2435 H 0.54663 0.99974 0.80908 0.0
C2436 C 0.4547 0.02168 0.78359 0.0
C2437 C 0.44644 0.03851 0.79713 0.0
C2438 C 0.47575 0.02093 0.77803 0.0
C2439 C 0.48884 0.03701 0.78595 0.0
C2440 C 0.48009 0.05463 0.79739 0.0
C2441 C 0.45907 0.05535 0.80293 0.0
C2442 C 0.54598 0.04906 0.7867 0.0
C2443 C 0.55386 0.03081 0.79729 0.0
C2444 C 0.52494 0.05077 0.78121 0.0
C2445 C 0.51155 0.03421 0.7862 0.0
C2446 C 0.5199 0.01552 0.79509 0.0
C2447 C 0.54082 0.01389 0.80066 0.0
H2448 H 0.1837 0.80031 0.95034 0.0
H2449 H 0.2443 0.80519 0.98379 0.0
H2450 H 0.18355 0.76344 0.95904 0.0
H2451 H 0.24411 0.7683 0.99331 0.0
H2452 H 0.24866 0.7033 0.95373 0.0
H2453 H 0.24743 0.73999 0.96299 0.0
H2454 H 0.18426 0.7339 0.98808 0.0
H2455 H 0.18564 0.69697 0.97825 0.0
C2456 C 0.1967 0.7935 0.96039 0.0
C2457 C 0.21409 0.80539 0.96614 0.0
C2458 C 0.19661 0.77241 0.96553 0.0
C2459 C 0.21395 0.76281 0.97657 0.0
C2460 C 0.23065 0.77514 0.98439 0.0
C2461 C 0.23071 0.79627 0.9792 0.0
C2462 C 0.23476 0.70977 0.96203 0.0
C2463 C 0.21728 0.69749 0.96543 0.0
C2464 C 0.23403 0.73077 0.96744 0.0
C2465 C 0.2157 0.73998 0.9762 0.0
C2466 C 0.19855 0.72733 0.98113 0.0
C2467 C 0.19934 0.70622 0.97576 0.0
H2468 H 0.55057 0.93228 0.20022 0.0
H2469 H 0.55724 0.99245 0.23443 0.0
H2470 H 0.51375 0.93305 0.20922 0.0
H2471 H 0.52035 0.99325 0.24399 0.0
H2472 H 0.45559 0.99936 0.20328 0.0
H2473 H 0.49224 0.99725 0.2127 0.0
H2474 H 0.48435 0.93465 0.23925 0.0
H2475 H 0.44746 0.93695 0.22945 0.0
C2476 C 0.54418 0.94535 0.21054 0.0
C2477 C 0.55655 0.96236 0.21647 0.0
C2478 C 0.52311 0.9458 0.21581 0.0
C2479 C 0.51403 0.96333 0.22705 0.0
C2480 C 0.52683 0.97964 0.23499 0.0
C2481 C 0.54794 0.97914 0.22976 0.0
C2482 C 0.46166 0.98541 0.21193 0.0
C2483 C 0.44889 0.96834 0.21577 0.0
C2484 C 0.48263 0.98418 0.21743 0.0
C2485 C 0.49129 0.96574 0.22666 0.0
C2486 C 0.47818 0.94902 0.23199 0.0
C2487 C 0.4571 0.95033 0.2266 0.0
H2488 H 0.25982 0.19737 0.4845 0.0
H2489 H 0.31921 0.20319 0.44793 0.0
H2490 H 0.25979 0.23427 0.49413 0.0
H2491 H 0.31921 0.24 0.45693 0.0
H2492 H 0.31716 0.30619 0.47696 0.0
H2493 H 0.31901 0.26926 0.4866 0.0
H2494 H 0.25537 0.26275 0.46378 0.0
H2495 H 0.25369 0.29949 0.45465 0.0
C2496 C 0.27313 0.20649 0.4793 0.0
C2497 C 0.28946 0.19764 0.46535 0.0
C2498 C 0.27307 0.22761 0.48455 0.0
C2499 C 0.28937 0.24018 0.47598 0.0
C2500 C 0.30648 0.23084 0.46403 0.0
C2501 C 0.30649 0.20977 0.45876 0.0
C2502 C 0.30347 0.29685 0.47495 0.0
C2503 C 0.28525 0.30549 0.46531 0.0
C2504 C 0.30453 0.27574 0.48022 0.0
C2505 C 0.28737 0.26299 0.47585 0.0
C2506 C 0.26879 0.27207 0.46778 0.0
C2507 C 0.26779 0.2931 0.46246 0.0
H2508 H 0.05606 0.06419 0.73028 0.0
H2509 H 0.04737 0.00349 0.69848 0.0
H2510 H 0.01916 0.06634 0.74011 0.0
H2511 H 0.01069 0.00544 0.70804 0.0
H2512 H 0.9459 0.00955 0.73185 0.0
H2513 H 0.9829 0.00808 0.74068 0.0
H2514 H 0.98964 0.06958 0.70984 0.0
H2515 H 0.95273 0.07094 0.7014 0.0
C2516 C 0.04628 0.05111 0.72616 0.0
C2517 C 0.05434 0.03365 0.7138 0.0
C2518 C 0.02521 0.05235 0.73158 0.0
C2519 C 0.01197 0.03608 0.72482 0.0
C2520 C 0.02044 0.01813 0.7139 0.0
C2521 C 0.04141 0.01699 0.70831 0.0
C2522 C 0.95527 0.02297 0.72792 0.0
C2523 C 0.94667 0.04033 0.71589 0.0
C2524 C 0.97643 0.02209 0.73273 0.0
C2525 C 0.98926 0.03861 0.72566 0.0
C2526 C 0.98022 0.05665 0.71573 0.0
C2527 C 0.95911 0.05746 0.71083 0.0
H2528 H 0.82142 0.79903 0.95311 0.0
H2529 H 0.75991 0.80596 0.98306 0.0
H2530 H 0.81997 0.76215 0.96163 0.0
H2531 H 0.75842 0.76904 0.99225 0.0
H2532 H 0.75308 0.70471 0.95082 0.0
H2533 H 0.75537 0.74127 0.96062 0.0
H2534 H 0.81682 0.73241 0.99075 0.0
H2535 H 0.81437 0.69558 0.98052 0.0
C2536 C 0.80787 0.79268 0.96242 0.0
C2537 C 0.79072 0.80514 0.96722 0.0
C2538 C 0.80703 0.77157 0.96742 0.0
C2539 C 0.78895 0.76256 0.9773 0.0
C2540 C 0.77245 0.77545 0.98426 0.0
C2541 C 0.77333 0.79658 0.97925 0.0
C2542 C 0.76681 0.71055 0.96027 0.0
C2543 C 0.78354 0.69751 0.96499 0.0
C2544 C 0.76813 0.73146 0.96601 0.0
C2545 C 0.78632 0.73984 0.97642 0.0
C2546 C 0.80266 0.72647 0.98257 0.0
C2547 C 0.80124 0.70543 0.97694 0.0
H2548 H 0.7426 0.19639 0.48198 0.0
H2549 H 0.68179 0.20357 0.44988 0.0
H2550 H 0.7439 0.23323 0.49161 0.0
H2551 H 0.68309 0.24039 0.4588 0.0
H2552 H 0.68795 0.30668 0.47907 0.0
H2553 H 0.6854 0.26973 0.48847 0.0
H2554 H 0.7477 0.26152 0.46099 0.0
H2555 H 0.75009 0.29821 0.45206 0.0
C2556 C 0.72929 0.20581 0.47772 0.0
C2557 C 0.71217 0.19733 0.46501 0.0
C2558 C 0.73007 0.2269 0.48299 0.0
C2559 C 0.71373 0.23986 0.47563 0.0
C2560 C 0.6959 0.23093 0.46493 0.0
C2561 C 0.69515 0.20986 0.45968 0.0
C2562 C 0.70123 0.29695 0.47594 0.0
C2563 C 0.71923 0.3051 0.465 0.0
C2564 C 0.69976 0.27583 0.48107 0.0
C2565 C 0.71631 0.26261 0.47537 0.0
C2566 C 0.73475 0.2712 0.46601 0.0
C2567 C 0.73614 0.2922 0.46079 0.0
H2568 H 0.81517 0.19685 0.03464 0.0
H2569 H 0.75218 0.20461 0.05859 0.0
H2570 H 0.81746 0.23374 0.02482 0.0
H2571 H 0.7543 0.24126 0.0493 0.0
H2572 H 0.75923 0.30645 0.02923 0.0
H2573 H 0.75863 0.26966 0.01914 0.0
H2574 H 0.81865 0.263 0.05442 0.0
H2575 H 0.81928 0.29976 0.06376 0.0
C2576 C 0.80166 0.2064 0.03696 0.0
C2577 C 0.78348 0.19809 0.04718 0.0
C2578 C 0.80297 0.22749 0.03159 0.0
C2579 C 0.7861 0.24052 0.03641 0.0
C2580 C 0.76751 0.23174 0.04496 0.0
C2581 C 0.76626 0.21075 0.05038 0.0
C2582 C 0.77254 0.29716 0.03393 0.0
C2583 C 0.78922 0.30573 0.04746 0.0
C2584 C 0.77215 0.2761 0.02839 0.0
C2585 C 0.78845 0.26329 0.03632 0.0
C2586 C 0.80589 0.27235 0.04783 0.0
C2587 C 0.80625 0.29338 0.05333 0.0
H2588 H 0.69024 0.80602 0.53307 0.0
H2589 H 0.74974 0.79781 0.56859 0.0
H2590 H 0.68864 0.76904 0.52352 0.0
H2591 H 0.74821 0.76113 0.55973 0.0
H2592 H 0.68194 0.70243 0.55969 0.0
H2593 H 0.68381 0.73938 0.55172 0.0
H2594 H 0.74758 0.73305 0.5294 0.0
H2595 H 0.74571 0.69619 0.53844 0.0
C2596 C 0.70318 0.79633 0.53814 0.0
C2597 C 0.72011 0.80456 0.5515 0.0
C2598 C 0.70223 0.77519 0.53293 0.0
C2599 C 0.71825 0.76204 0.54098 0.0
C2600 C 0.73572 0.77072 0.55286 0.0
C2601 C 0.7366 0.79173 0.55809 0.0
C2602 C 0.69615 0.70895 0.5524 0.0
C2603 C 0.71368 0.69661 0.54973 0.0
C2604 C 0.69724 0.73009 0.54768 0.0
C2605 C 0.71593 0.73927 0.54018 0.0
C2606 C 0.73304 0.72654 0.53555 0.0
C2607 C 0.73195 0.70542 0.54043 0.0
H2608 H 0.54883 0.43197 0.8157 0.0
H2609 H 0.55493 0.49202 0.78095 0.0
H2610 H 0.51202 0.4323 0.80663 0.0
H2611 H 0.51807 0.49235 0.77118 0.0
H2612 H 0.45288 0.4982 0.81037 0.0
H2613 H 0.48961 0.4964 0.80144 0.0
H2614 H 0.48275 0.43317 0.77693 0.0
H2615 H 0.44579 0.43515 0.78636 0.0
C2616 C 0.54231 0.44493 0.80528 0.0
C2617 C 0.55452 0.46204 0.79924 0.0
C2618 C 0.52125 0.44513 0.79995 0.0
C2619 C 0.512 0.46248 0.78845 0.0
C2620 C 0.52465 0.47888 0.78041 0.0
C2621 C 0.54575 0.47865 0.78576 0.0
C2622 C 0.4592 0.48417 0.80225 0.0
C2623 C 0.44669 0.46684 0.7989 0.0
C2624 C 0.48022 0.4831 0.79704 0.0
C2625 C 0.48921 0.46459 0.78855 0.0
C2626 C 0.47634 0.4476 0.78366 0.0
C2627 C 0.45522 0.44873 0.78881 0.0
H2628 H 0.04775 0.50498 0.31375 0.0
H2629 H 0.05524 0.56684 0.28527 0.0
H2630 H 0.01107 0.50654 0.30444 0.0
H2631 H 0.01832 0.56856 0.27544 0.0
H2632 H 0.95174 0.57162 0.31262 0.0
H2633 H 0.98869 0.5708 0.30447 0.0
H2634 H 0.98297 0.50925 0.27348 0.0
H2635 H 0.946 0.51007 0.28238 0.0
C2636 C 0.04153 0.51867 0.30461 0.0
C2637 C 0.05414 0.53575 0.30006 0.0
C2638 C 0.02054 0.51959 0.29917 0.0
C2639 C 0.01167 0.53772 0.28925 0.0
C2640 C 0.02463 0.55443 0.28327 0.0
C2641 C 0.04573 0.55344 0.28864 0.0
C2642 C 0.95838 0.55818 0.30339 0.0
C2643 C 0.94621 0.54085 0.29835 0.0
C2644 C 0.97952 0.55771 0.29858 0.0
C2645 C 0.98888 0.53985 0.28861 0.0
C2646 C 0.97631 0.52312 0.28155 0.0
C2647 C 0.95514 0.52363 0.28639 0.0
H2648 H 0.04958 0.43368 0.701 0.0
H2649 H 0.0561 0.49464 0.73286 0.0
H2650 H 0.01271 0.43465 0.70969 0.0
H2651 H 0.01918 0.49564 0.74219 0.0
H2652 H 0.9547 0.5012 0.70115 0.0
H2653 H 0.9913 0.49904 0.7107 0.0
H2654 H 0.98303 0.43699 0.73908 0.0
H2655 H 0.94616 0.43931 0.7291 0.0
C2656 C 0.04314 0.44698 0.71077 0.0
C2657 C 0.05548 0.46414 0.71607 0.0
C2658 C 0.02204 0.44755 0.71586 0.0
C2659 C 0.01291 0.46535 0.72633 0.0
C2660 C 0.02569 0.48183 0.73375 0.0
C2661 C 0.04682 0.48122 0.72866 0.0
C2662 C 0.96067 0.48735 0.71016 0.0
C2663 C 0.94779 0.47043 0.71445 0.0
C2664 C 0.98162 0.4861 0.71577 0.0
C2665 C 0.99017 0.4678 0.72561 0.0
C2666 C 0.97695 0.45124 0.73134 0.0
C2667 C 0.95588 0.45258 0.72584 0.0
H2668 H 0.45473 0.50264 0.20471 0.0
H2669 H 0.44757 0.56549 0.22953 0.0
H2670 H 0.49142 0.50438 0.21383 0.0
H2671 H 0.4845 0.5674 0.23916 0.0
H2672 H 0.55059 0.56891 0.20028 0.0
H2673 H 0.5138 0.56853 0.2095 0.0
H2674 H 0.51986 0.5082 0.24414 0.0
H2675 H 0.55669 0.50857 0.23421 0.0
C2676 C 0.46101 0.51661 0.21306 0.0
C2677 C 0.4485 0.5339 0.21656 0.0
C2678 C 0.48202 0.51764 0.21838 0.0
C2679 C 0.49099 0.53608 0.22714 0.0
C2680 C 0.47811 0.55303 0.23222 0.0
C2681 C 0.457 0.55193 0.22696 0.0
C2682 C 0.54408 0.55587 0.21056 0.0
C2683 C 0.55627 0.5387 0.21632 0.0
C2684 C 0.52303 0.55565 0.21598 0.0
C2685 C 0.51378 0.53821 0.22727 0.0
C2686 C 0.52643 0.52174 0.23506 0.0
C2687 C 0.54752 0.52199 0.22963 0.0
loop_
_geom_bond_atom_site_label_1
_geom_bond_atom_site_label_2
_geom_bond_distance
_geom_bond_site_symmetry_2
_ccdc_geom_bond_type
Co0 O3 1.970 . S
Co0 N17 1.989 . S
Co0 O25 1.967 . S
Co0 O32 1.920 . S
Co1 O4 1.966 . S
Co1 N10 2.022 . S
Co1 N18 1.993 . S
Co1 O26 1.941 . S
C2 O3 1.258 . S
C2 O4 1.263 . S
O3 Co0 1.970 . S
O3 C2 1.258 . S
O4 Co1 1.966 . S
O4 C2 1.263 . S
C5 O6 1.235 . S
C5 O32 1.289 . S
O6 C5 1.235 . S
C7 C9 1.400 1_554 S
C7 N10 1.351 . S
C7 C12 1.501 . S
C8 C9 1.387 . S
C8 N11 1.341 1_556 S
C9 C7 1.400 1_556 S
C9 C8 1.387 . S
N10 Co1 2.022 . S
N10 C7 1.351 . S
N10 N11 1.365 . S
N11 C8 1.341 1_554 S
N11 N10 1.365 . S
N11 H31 0.862 . S
C12 C7 1.501 . S
C12 H13 0.961 . S
C12 H14 0.961 . S
C12 H15 0.960 . S
H13 C12 0.961 . S
H14 C12 0.961 . S
H15 C12 0.960 . S
C16 N17 1.342 . S
C16 C20 1.401 . S
C16 C21 1.499 . S
N17 Co0 1.989 . S
N17 C16 1.342 . S
N17 N18 1.388 . S
N18 Co1 1.993 . S
N18 N17 1.388 . S
N18 C19 1.346 . S
C19 N18 1.346 . S
C19 C20 1.396 . S
C19 C29 1.510 . S
C20 C16 1.401 . S
C20 C19 1.396 . S
C21 C16 1.499 . S
C21 H22 0.959 . S
C21 H23 0.960 . S
C21 H24 0.961 . S
H22 C21 0.959 . S
H23 C21 0.960 . S
H24 C21 0.961 . S
O25 Co0 1.967 . S
O25 C33 1.258 . S
O26 Co1 1.941 . S
O26 C33 1.266 . S
H27 C29 0.959 . S
H28 C29 0.961 . S
C29 C19 1.510 . S
C29 H27 0.959 . S
C29 H28 0.961 . S
C29 H30 0.960 . S
H30 C29 0.960 . S
H31 N11 0.862 . S
O32 Co0 1.920 . S
O32 C5 1.289 . S
C33 O25 1.258 . S
C33 O26 1.266 . S
Co34 O37 1.970 1_565 S
Co34 N51 1.989 . S
Co34 O59 1.967 . S
Co34 O66 1.920 . S
Co35 O38 1.966 . S
Co35 N44 2.022 . S
Co35 N52 1.993 . S
Co35 O60 1.941 . S
C36 O37 1.258 . S
C36 O38 1.263 1_545 S
O37 Co34 1.970 1_545 S
O37 C36 1.258 . S
O38 Co35 1.966 . S
O38 C36 1.263 1_565 S
C39 O40 1.235 1_565 S
C39 O66 1.289 . S
O40 C39 1.235 1_545 S
C41 C43 1.400 . S
C41 N44 1.351 . S
C41 C46 1.501 1_565 S
C42 C43 1.387 . S
C42 N45 1.341 . S
C43 C41 1.400 . S
C43 C42 1.387 . S
N44 Co35 2.022 . S
N44 C41 1.351 . S
N44 N45 1.365 . S
N45 C42 1.341 . S
N45 N44 1.365 . S
N45 H65 0.862 . S
C46 C41 1.501 1_545 S
C46 H47 0.961 . S
C46 H48 0.961 . S
C46 H49 0.960 . S
H47 C46 0.961 . S
H48 C46 0.961 . S
H49 C46 0.960 . S
C50 N51 1.342 . S
C50 C54 1.401 . S
C50 C55 1.499 . S
N51 Co34 1.989 . S
N51 C50 1.342 . S
N51 N52 1.388 . S
N52 Co35 1.993 . S
N52 N51 1.388 . S
N52 C53 1.346 . S
C53 N52 1.346 . S
C53 C54 1.396 . S
C53 C63 1.510 . S
C54 C50 1.401 . S
C54 C53 1.396 . S
C55 C50 1.499 . S
C55 H56 0.959 . S
C55 H57 0.960 . S
C55 H58 0.961 . S
H56 C55 0.959 . S
H57 C55 0.960 . S
H58 C55 0.961 . S
O59 Co34 1.967 . S
O59 C67 1.258 . S
O60 Co35 1.941 . S
O60 C67 1.266 . S
H61 C63 0.959 . S
H62 C63 0.961 . S
C63 C53 1.510 . S
C63 H61 0.959 . S
C63 H62 0.961 . S
C63 H64 0.960 . S
H64 C63 0.960 . S
H65 N45 0.862 . S
O66 Co34 1.920 . S
O66 C39 1.289 . S
C67 O59 1.258 . S
C67 O60 1.266 . S
Co68 O71 1.970 . S
Co68 N85 1.989 . S
Co68 O93 1.967 . S
Co68 O100 1.920 . S
Co69 O72 1.966 . S
Co69 N78 2.022 . S
Co69 N86 1.993 . S
Co69 O94 1.941 . S
C70 O71 1.258 . S
C70 O72 1.263 . S
O71 Co68 1.970 . S
O71 C70 1.258 . S
O72 Co69 1.966 . S
O72 C70 1.263 . S
C73 O74 1.235 . S
C73 O100 1.289 . S
O74 C73 1.235 . S
C75 C77 1.400 . S
C75 N78 1.351 . S
C75 C80 1.501 . S
C76 C77 1.387 . S
C76 N79 1.341 . S
C77 C75 1.400 . S
C77 C76 1.387 . S
N78 Co69 2.022 . S
N78 C75 1.351 . S
N78 N79 1.365 . S
N79 C76 1.341 . S
N79 N78 1.365 . S
N79 H99 0.862 . S
C80 C75 1.501 . S
C80 H81 0.961 . S
C80 H82 0.961 . S
C80 H83 0.960 . S
H81 C80 0.961 . S
H82 C80 0.961 . S
H83 C80 0.960 . S
C84 N85 1.342 . S
C84 C88 1.401 . S
C84 C89 1.499 . S
N85 Co68 1.989 . S
N85 C84 1.342 . S
N85 N86 1.388 . S
N86 Co69 1.993 . S
N86 N85 1.388 . S
N86 C87 1.346 . S
C87 N86 1.346 . S
C87 C88 1.396 . S
C87 C97 1.510 . S
C88 C84 1.401 . S
C88 C87 1.396 . S
C89 C84 1.499 . S
C89 H90 0.959 . S
C89 H91 0.960 . S
C89 H92 0.961 . S
H90 C89 0.959 . S
H91 C89 0.960 . S
H92 C89 0.961 . S
O93 Co68 1.967 . S
O93 C101 1.258 . S
O94 Co69 1.941 . S
O94 C101 1.266 . S
H95 C97 0.959 . S
H96 C97 0.961 . S
C97 C87 1.510 . S
C97 H95 0.959 . S
C97 H96 0.961 . S
C97 H98 0.960 . S
H98 C97 0.960 . S
H99 N79 0.862 . S
O100 Co68 1.920 . S
O100 C73 1.289 . S
C101 O93 1.258 . S
C101 O94 1.266 . S
Co102 O105 1.970 1_545 S
Co102 N119 1.989 . S
Co102 O127 1.967 . S
Co102 O134 1.920 . S
Co103 O106 1.966 . S
Co103 N112 2.022 . S
Co103 N120 1.993 . S
Co103 O128 1.941 . S
C104 O105 1.258 . S
C104 O106 1.263 1_565 S
O105 Co102 1.970 1_565 S
O105 C104 1.258 . S
O106 Co103 1.966 . S
O106 C104 1.263 1_545 S
C107 O108 1.235 1_545 S
C107 O134 1.289 . S
O108 C107 1.235 1_565 S
C109 C111 1.400 . S
C109 N112 1.351 . S
C109 C114 1.501 1_545 S
C110 C111 1.387 . S
C110 N113 1.341 . S
C111 C109 1.400 . S
C111 C110 1.387 . S
N112 Co103 2.022 . S
N112 C109 1.351 . S
N112 N113 1.365 . S
N113 C110 1.341 . S
N113 N112 1.365 . S
N113 H133 0.862 . S
C114 C109 1.501 1_565 S
C114 H115 0.961 . S
C114 H116 0.961 . S
C114 H117 0.960 . S
H115 C114 0.961 . S
H116 C114 0.961 . S
H117 C114 0.960 . S
C118 N119 1.342 . S
C118 C122 1.401 . S
C118 C123 1.499 . S
N119 Co102 1.989 . S
N119 C118 1.342 . S
N119 N120 1.388 . S
N120 Co103 1.993 . S
N120 N119 1.388 . S
N120 C121 1.346 . S
C121 N120 1.346 . S
C121 C122 1.396 . S
C121 C131 1.510 . S
C122 C118 1.401 . S
C122 C121 1.396 . S
C123 C118 1.499 . S
C123 H124 0.959 . S
C123 H125 0.960 . S
C123 H126 0.961 . S
H124 C123 0.959 . S
H125 C123 0.960 . S
H126 C123 0.961 . S
O127 Co102 1.967 . S
O127 C135 1.258 . S
O128 Co103 1.941 . S
O128 C135 1.266 . S
H129 C131 0.959 . S
H130 C131 0.961 . S
C131 C121 1.510 . S
C131 H129 0.959 . S
C131 H130 0.961 . S
C131 H132 0.960 . S
H132 C131 0.960 . S
H133 N113 0.862 . S
O134 Co102 1.920 . S
O134 C107 1.289 . S
C135 O127 1.258 . S
C135 O128 1.266 . S
Co136 O139 1.970 . S
Co136 N153 1.989 . S
Co136 O161 1.967 . S
Co136 O168 1.920 . S
Co137 O140 1.966 . S
Co137 N146 2.022 . S
Co137 N154 1.993 . S
Co137 O162 1.941 . S
C138 O139 1.258 . S
C138 O140 1.263 . S
O139 Co136 1.970 . S
O139 C138 1.258 . S
O140 Co137 1.966 . S
O140 C138 1.263 . S
C141 O142 1.235 . S
C141 O168 1.289 . S
O142 C141 1.235 . S
C143 C145 1.400 1_556 S
C143 N146 1.351 . S
C143 C148 1.501 . S
C144 C145 1.387 . S
C144 N147 1.341 1_554 S
C145 C143 1.400 1_554 S
C145 C144 1.387 . S
N146 Co137 2.022 . S
N146 C143 1.351 . S
N146 N147 1.365 . S
N147 C144 1.341 1_556 S
N147 N146 1.365 . S
N147 H167 0.862 . S
C148 C143 1.501 . S
C148 H149 0.961 . S
C148 H150 0.961 . S
C148 H151 0.960 . S
H149 C148 0.961 . S
H150 C148 0.961 . S
H151 C148 0.960 . S
C152 N153 1.342 . S
C152 C156 1.401 . S
C152 C157 1.499 . S
N153 Co136 1.989 . S
N153 C152 1.342 . S
N153 N154 1.388 . S
N154 Co137 1.993 . S
N154 N153 1.388 . S
N154 C155 1.346 . S
C155 N154 1.346 . S
C155 C156 1.396 . S
C155 C165 1.510 . S
C156 C152 1.401 . S
C156 C155 1.396 . S
C157 C152 1.499 . S
C157 H158 0.959 . S
C157 H159 0.960 . S
C157 H160 0.961 . S
H158 C157 0.959 . S
H159 C157 0.960 . S
H160 C157 0.961 . S
O161 Co136 1.967 . S
O161 C169 1.258 . S
O162 Co137 1.941 . S
O162 C169 1.266 . S
H163 C165 0.959 . S
H164 C165 0.961 . S
C165 C155 1.510 . S
C165 H163 0.959 . S
C165 H164 0.961 . S
C165 H166 0.960 . S
H166 C165 0.960 . S
H167 N147 0.862 . S
O168 Co136 1.920 . S
O168 C141 1.289 . S
C169 O161 1.258 . S
C169 O162 1.266 . S
Co170 O173 1.970 1_565 S
Co170 N187 1.989 . S
Co170 O195 1.967 . S
Co170 O202 1.920 . S
Co171 O174 1.966 . S
Co171 N180 2.022 . S
Co171 N188 1.993 . S
Co171 O196 1.941 . S
C172 O173 1.258 . S
C172 O174 1.263 1_545 S
O173 Co170 1.970 1_545 S
O173 C172 1.258 . S
O174 Co171 1.966 . S
O174 C172 1.263 1_565 S
C175 O176 1.235 1_565 S
C175 O202 1.289 . S
O176 C175 1.235 1_545 S
C177 C179 1.400 . S
C177 N180 1.351 . S
C177 C182 1.501 1_565 S
C178 C179 1.387 . S
C178 N181 1.341 . S
C179 C177 1.400 . S
C179 C178 1.387 . S
N180 Co171 2.022 . S
N180 C177 1.351 . S
N180 N181 1.365 . S
N181 C178 1.341 . S
N181 N180 1.365 . S
N181 H201 0.862 . S
C182 C177 1.501 1_545 S
C182 H183 0.961 . S
C182 H184 0.961 . S
C182 H185 0.960 . S
H183 C182 0.961 . S
H184 C182 0.961 . S
H185 C182 0.960 . S
C186 N187 1.342 . S
C186 C190 1.401 . S
C186 C191 1.499 . S
N187 Co170 1.989 . S
N187 C186 1.342 . S
N187 N188 1.388 . S
N188 Co171 1.993 . S
N188 N187 1.388 . S
N188 C189 1.346 . S
C189 N188 1.346 . S
C189 C190 1.396 . S
C189 C199 1.510 . S
C190 C186 1.401 . S
C190 C189 1.396 . S
C191 C186 1.499 . S
C191 H192 0.959 . S
C191 H193 0.960 . S
C191 H194 0.961 . S
H192 C191 0.959 . S
H193 C191 0.960 . S
H194 C191 0.961 . S
O195 Co170 1.967 . S
O195 C203 1.258 . S
O196 Co171 1.941 . S
O196 C203 1.266 . S
H197 C199 0.959 . S
H198 C199 0.961 . S
C199 C189 1.510 . S
C199 H197 0.959 . S
C199 H198 0.961 . S
C199 H200 0.960 . S
H200 C199 0.960 . S
H201 N181 0.862 . S
O202 Co170 1.920 . S
O202 C175 1.289 . S
C203 O195 1.258 . S
C203 O196 1.266 . S
Co204 O207 1.970 . S
Co204 N221 1.989 . S
Co204 O229 1.967 . S
Co204 O236 1.920 . S
Co205 O208 1.966 . S
Co205 N214 2.022 . S
Co205 N222 1.993 . S
Co205 O230 1.941 . S
C206 O207 1.258 . S
C206 O208 1.263 . S
O207 Co204 1.970 . S
O207 C206 1.258 . S
O208 Co205 1.966 . S
O208 C206 1.263 . S
C209 O210 1.235 . S
C209 O236 1.289 . S
O210 C209 1.235 . S
C211 C213 1.400 . S
C211 N214 1.351 . S
C211 C216 1.501 . S
C212 C213 1.387 . S
C212 N215 1.341 . S
C213 C211 1.400 . S
C213 C212 1.387 . S
N214 Co205 2.022 . S
N214 C211 1.351 . S
N214 N215 1.365 . S
N215 C212 1.341 . S
N215 N214 1.365 . S
N215 H235 0.862 . S
C216 C211 1.501 . S
C216 H217 0.961 . S
C216 H218 0.961 . S
C216 H219 0.960 . S
H217 C216 0.961 . S
H218 C216 0.961 . S
H219 C216 0.960 . S
C220 N221 1.342 . S
C220 C224 1.401 . S
C220 C225 1.499 . S
N221 Co204 1.989 . S
N221 C220 1.342 . S
N221 N222 1.388 . S
N222 Co205 1.993 . S
N222 N221 1.388 . S
N222 C223 1.346 . S
C223 N222 1.346 . S
C223 C224 1.396 . S
C223 C233 1.510 . S
C224 C220 1.401 . S
C224 C223 1.396 . S
C225 C220 1.499 . S
C225 H226 0.959 . S
C225 H227 0.960 . S
C225 H228 0.961 . S
H226 C225 0.959 . S
H227 C225 0.960 . S
H228 C225 0.961 . S
O229 Co204 1.967 . S
O229 C237 1.258 . S
O230 Co205 1.941 . S
O230 C237 1.266 . S
H231 C233 0.959 . S
H232 C233 0.961 . S
C233 C223 1.510 . S
C233 H231 0.959 . S
C233 H232 0.961 . S
C233 H234 0.960 . S
H234 C233 0.960 . S
H235 N215 0.862 . S
O236 Co204 1.920 . S
O236 C209 1.289 . S
C237 O229 1.258 . S
C237 O230 1.266 . S
Co238 O241 1.970 1_545 S
Co238 N255 1.989 . S
Co238 O263 1.967 . S
Co238 O270 1.920 . S
Co239 O242 1.966 . S
Co239 N248 2.022 . S
Co239 N256 1.993 . S
Co239 O264 1.941 . S
C240 O241 1.258 . S
C240 O242 1.263 1_565 S
O241 Co238 1.970 1_565 S
O241 C240 1.258 . S
O242 Co239 1.966 . S
O242 C240 1.263 1_545 S
C243 O244 1.235 1_545 S
C243 O270 1.289 . S
O244 C243 1.235 1_565 S
C245 C247 1.400 . S
C245 N248 1.351 . S
C245 C250 1.501 1_545 S
C246 C247 1.387 . S
C246 N249 1.341 . S
C247 C245 1.400 . S
C247 C246 1.387 . S
N248 Co239 2.022 . S
N248 C245 1.351 . S
N248 N249 1.365 . S
N249 C246 1.341 . S
N249 N248 1.365 . S
N249 H269 0.862 . S
C250 C245 1.501 1_565 S
C250 H251 0.961 . S
C250 H252 0.961 . S
C250 H253 0.960 . S
H251 C250 0.961 . S
H252 C250 0.961 . S
H253 C250 0.960 . S
C254 N255 1.342 . S
C254 C258 1.401 . S
C254 C259 1.499 . S
N255 Co238 1.989 . S
N255 C254 1.342 . S
N255 N256 1.388 . S
N256 Co239 1.993 . S
N256 N255 1.388 . S
N256 C257 1.346 . S
C257 N256 1.346 . S
C257 C258 1.396 . S
C257 C267 1.510 . S
C258 C254 1.401 . S
C258 C257 1.396 . S
C259 C254 1.499 . S
C259 H260 0.959 . S
C259 H261 0.960 . S
C259 H262 0.961 . S
H260 C259 0.959 . S
H261 C259 0.960 . S
H262 C259 0.961 . S
O263 Co238 1.967 . S
O263 C271 1.258 . S
O264 Co239 1.941 . S
O264 C271 1.266 . S
H265 C267 0.959 . S
H266 C267 0.961 . S
C267 C257 1.510 . S
C267 H265 0.959 . S
C267 H266 0.961 . S
C267 H268 0.960 . S
H268 C267 0.960 . S
H269 N249 0.862 . S
O270 Co238 1.920 . S
O270 C243 1.289 . S
C271 O263 1.258 . S
C271 O264 1.266 . S
Co272 O275 1.970 . S
Co272 N289 1.989 . S
Co272 O297 1.967 . S
Co272 O304 1.920 . S
Co273 O276 1.966 . S
Co273 N282 2.022 . S
Co273 N290 1.993 . S
Co273 O298 1.941 . S
C274 O275 1.258 . S
C274 O276 1.263 . S
O275 Co272 1.970 . S
O275 C274 1.258 . S
O276 Co273 1.966 . S
O276 C274 1.263 . S
C277 O278 1.235 . S
C277 O304 1.289 . S
O278 C277 1.235 . S
C279 C281 1.400 1_556 S
C279 N282 1.351 . S
C279 C284 1.501 . S
C280 C281 1.387 . S
C280 N283 1.341 1_554 S
C281 C279 1.400 1_554 S
C281 C280 1.387 . S
N282 Co273 2.022 . S
N282 C279 1.351 . S
N282 N283 1.365 . S
N283 C280 1.341 1_556 S
N283 N282 1.365 . S
N283 H303 0.862 . S
C284 C279 1.501 . S
C284 H285 0.961 . S
C284 H286 0.961 . S
C284 H287 0.960 . S
H285 C284 0.961 . S
H286 C284 0.961 . S
H287 C284 0.960 . S
C288 N289 1.342 . S
C288 C292 1.401 . S
C288 C293 1.499 . S
N289 Co272 1.989 . S
N289 C288 1.342 . S
N289 N290 1.388 . S
N290 Co273 1.993 . S
N290 N289 1.388 . S
N290 C291 1.346 . S
C291 N290 1.346 . S
C291 C292 1.396 . S
C291 C301 1.510 . S
C292 C288 1.401 . S
C292 C291 1.396 . S
C293 C288 1.499 . S
C293 H294 0.959 . S
C293 H295 0.960 . S
C293 H296 0.961 . S
H294 C293 0.959 . S
H295 C293 0.960 . S
H296 C293 0.961 . S
O297 Co272 1.967 . S
O297 C305 1.258 . S
O298 Co273 1.941 . S
O298 C305 1.266 . S
H299 C301 0.959 . S
H300 C301 0.961 . S
C301 C291 1.510 . S
C301 H299 0.959 . S
C301 H300 0.961 . S
C301 H302 0.960 . S
H302 C301 0.960 . S
H303 N283 0.862 . S
O304 Co272 1.920 . S
O304 C277 1.289 . S
C305 O297 1.258 . S
C305 O298 1.266 . S
Co306 O309 1.970 1_545 S
Co306 N323 1.989 . S
Co306 O331 1.967 . S
Co306 O338 1.920 . S
Co307 O310 1.966 . S
Co307 N316 2.022 . S
Co307 N324 1.993 . S
Co307 O332 1.941 . S
C308 O309 1.258 . S
C308 O310 1.263 1_565 S
O309 Co306 1.970 1_565 S
O309 C308 1.258 . S
O310 Co307 1.966 . S
O310 C308 1.263 1_545 S
C311 O312 1.235 1_545 S
C311 O338 1.289 . S
O312 C311 1.235 1_565 S
C313 C315 1.400 . S
C313 N316 1.351 . S
C313 C318 1.501 1_545 S
C314 C315 1.387 . S
C314 N317 1.341 . S
C315 C313 1.400 . S
C315 C314 1.387 . S
N316 Co307 2.022 . S
N316 C313 1.351 . S
N316 N317 1.365 . S
N317 C314 1.341 . S
N317 N316 1.365 . S
N317 H337 0.862 . S
C318 C313 1.501 1_565 S
C318 H319 0.961 . S
C318 H320 0.961 . S
C318 H321 0.960 . S
H319 C318 0.961 . S
H320 C318 0.961 . S
H321 C318 0.960 . S
C322 N323 1.342 . S
C322 C326 1.401 . S
C322 C327 1.499 . S
N323 Co306 1.989 . S
N323 C322 1.342 . S
N323 N324 1.388 . S
N324 Co307 1.993 . S
N324 N323 1.388 . S
N324 C325 1.346 . S
C325 N324 1.346 . S
C325 C326 1.396 . S
C325 C335 1.510 . S
C326 C322 1.401 . S
C326 C325 1.396 . S
C327 C322 1.499 . S
C327 H328 0.959 . S
C327 H329 0.960 . S
C327 H330 0.961 . S
H328 C327 0.959 . S
H329 C327 0.960 . S
H330 C327 0.961 . S
O331 Co306 1.967 . S
O331 C339 1.258 . S
O332 Co307 1.941 . S
O332 C339 1.266 . S
H333 C335 0.959 . S
H334 C335 0.961 . S
C335 C325 1.510 . S
C335 H333 0.959 . S
C335 H334 0.961 . S
C335 H336 0.960 . S
H336 C335 0.960 . S
H337 N317 0.862 . S
O338 Co306 1.920 . S
O338 C311 1.289 . S
C339 O331 1.258 . S
C339 O332 1.266 . S
Co340 O343 1.970 . S
Co340 N357 1.989 . S
Co340 O365 1.967 . S
Co340 O372 1.920 . S
Co341 O344 1.966 . S
Co341 N350 2.022 . S
Co341 N358 1.993 . S
Co341 O366 1.941 . S
C342 O343 1.258 . S
C342 O344 1.263 . S
O343 Co340 1.970 . S
O343 C342 1.258 . S
O344 Co341 1.966 . S
O344 C342 1.263 . S
C345 O346 1.235 . S
C345 O372 1.289 . S
O346 C345 1.235 . S
C347 C349 1.400 . S
C347 N350 1.351 . S
C347 C352 1.501 . S
C348 C349 1.387 . S
C348 N351 1.341 . S
C349 C347 1.400 . S
C349 C348 1.387 . S
N350 Co341 2.022 . S
N350 C347 1.351 . S
N350 N351 1.365 . S
N351 C348 1.341 . S
N351 N350 1.365 . S
N351 H371 0.862 . S
C352 C347 1.501 . S
C352 H353 0.961 . S
C352 H354 0.961 . S
C352 H355 0.960 . S
H353 C352 0.961 . S
H354 C352 0.961 . S
H355 C352 0.960 . S
C356 N357 1.342 . S
C356 C360 1.401 . S
C356 C361 1.499 . S
N357 Co340 1.989 . S
N357 C356 1.342 . S
N357 N358 1.388 . S
N358 Co341 1.993 . S
N358 N357 1.388 . S
N358 C359 1.346 . S
C359 N358 1.346 . S
C359 C360 1.396 . S
C359 C369 1.510 . S
C360 C356 1.401 . S
C360 C359 1.396 . S
C361 C356 1.499 . S
C361 H362 0.959 . S
C361 H363 0.960 . S
C361 H364 0.961 . S
H362 C361 0.959 . S
H363 C361 0.960 . S
H364 C361 0.961 . S
O365 Co340 1.967 . S
O365 C373 1.258 . S
O366 Co341 1.941 . S
O366 C373 1.266 . S
H367 C369 0.959 . S
H368 C369 0.961 . S
C369 C359 1.510 . S
C369 H367 0.959 . S
C369 H368 0.961 . S
C369 H370 0.960 . S
H370 C369 0.960 . S
H371 N351 0.862 . S
O372 Co340 1.920 . S
O372 C345 1.289 . S
C373 O365 1.258 . S
C373 O366 1.266 . S
Co374 O377 1.970 1_565 S
Co374 N391 1.989 . S
Co374 O399 1.967 . S
Co374 O406 1.920 . S
Co375 O378 1.966 . S
Co375 N384 2.022 . S
Co375 N392 1.993 . S
Co375 O400 1.941 . S
C376 O377 1.258 . S
C376 O378 1.263 1_545 S
O377 Co374 1.970 1_545 S
O377 C376 1.258 . S
O378 Co375 1.966 . S
O378 C376 1.263 1_565 S
C379 O380 1.235 1_565 S
C379 O406 1.289 . S
O380 C379 1.235 1_545 S
C381 C383 1.400 . S
C381 N384 1.351 . S
C381 C386 1.501 1_565 S
C382 C383 1.387 . S
C382 N385 1.341 . S
C383 C381 1.400 . S
C383 C382 1.387 . S
N384 Co375 2.022 . S
N384 C381 1.351 . S
N384 N385 1.365 . S
N385 C382 1.341 . S
N385 N384 1.365 . S
N385 H405 0.862 . S
C386 C381 1.501 1_545 S
C386 H387 0.961 . S
C386 H388 0.961 . S
C386 H389 0.960 . S
H387 C386 0.961 . S
H388 C386 0.961 . S
H389 C386 0.960 . S
C390 N391 1.342 . S
C390 C394 1.401 . S
C390 C395 1.499 . S
N391 Co374 1.989 . S
N391 C390 1.342 . S
N391 N392 1.388 . S
N392 Co375 1.993 . S
N392 N391 1.388 . S
N392 C393 1.346 . S
C393 N392 1.346 . S
C393 C394 1.396 . S
C393 C403 1.510 . S
C394 C390 1.401 . S
C394 C393 1.396 . S
C395 C390 1.499 . S
C395 H396 0.959 . S
C395 H397 0.960 . S
C395 H398 0.961 . S
H396 C395 0.959 . S
H397 C395 0.960 . S
H398 C395 0.961 . S
O399 Co374 1.967 . S
O399 C407 1.258 . S
O400 Co375 1.941 . S
O400 C407 1.266 . S
H401 C403 0.959 . S
H402 C403 0.961 . S
C403 C393 1.510 . S
C403 H401 0.959 . S
C403 H402 0.961 . S
C403 H404 0.960 . S
H404 C403 0.960 . S
H405 N385 0.862 . S
O406 Co374 1.920 . S
O406 C379 1.289 . S
C407 O399 1.258 . S
C407 O400 1.266 . S
Co408 O411 1.970 . S
Co408 N425 1.989 . S
Co408 O433 1.967 . S
Co408 O440 1.920 . S
Co409 O412 1.966 . S
Co409 N418 2.022 . S
Co409 N426 1.993 . S
Co409 O434 1.941 . S
C410 O411 1.258 . S
C410 O412 1.263 . S
O411 Co408 1.970 . S
O411 C410 1.258 . S
O412 Co409 1.966 . S
O412 C410 1.263 . S
C413 O414 1.235 . S
C413 O440 1.289 . S
O414 C413 1.235 . S
C415 C417 1.400 1_554 S
C415 N418 1.351 . S
C415 C420 1.501 . S
C416 C417 1.387 . S
C416 N419 1.341 1_556 S
C417 C415 1.400 1_556 S
C417 C416 1.387 . S
N418 Co409 2.022 . S
N418 C415 1.351 . S
N418 N419 1.365 . S
N419 C416 1.341 1_554 S
N419 N418 1.365 . S
N419 H439 0.862 . S
C420 C415 1.501 . S
C420 H421 0.961 . S
C420 H422 0.961 . S
C420 H423 0.960 . S
H421 C420 0.961 . S
H422 C420 0.961 . S
H423 C420 0.960 . S
C424 N425 1.342 . S
C424 C428 1.401 . S
C424 C429 1.499 . S
N425 Co408 1.989 . S
N425 C424 1.342 . S
N425 N426 1.388 . S
N426 Co409 1.993 . S
N426 N425 1.388 . S
N426 C427 1.346 . S
C427 N426 1.346 . S
C427 C428 1.396 . S
C427 C437 1.510 . S
C428 C424 1.401 . S
C428 C427 1.396 . S
C429 C424 1.499 . S
C429 H430 0.959 . S
C429 H431 0.960 . S
C429 H432 0.961 . S
H430 C429 0.959 . S
H431 C429 0.960 . S
H432 C429 0.961 . S
O433 Co408 1.967 . S
O433 C441 1.258 . S
O434 Co409 1.941 . S
O434 C441 1.266 . S
H435 C437 0.959 . S
H436 C437 0.961 . S
C437 C427 1.510 . S
C437 H435 0.959 . S
C437 H436 0.961 . S
C437 H438 0.960 . S
H438 C437 0.960 . S
H439 N419 0.862 . S
O440 Co408 1.920 . S
O440 C413 1.289 . S
C441 O433 1.258 . S
C441 O434 1.266 . S
Co442 O445 1.970 1_545 S
Co442 N459 1.989 . S
Co442 O467 1.967 . S
Co442 O474 1.920 . S
Co443 O446 1.966 . S
Co443 N452 2.022 . S
Co443 N460 1.993 . S
Co443 O468 1.941 . S
C444 O445 1.258 . S
C444 O446 1.263 1_565 S
O445 Co442 1.970 1_565 S
O445 C444 1.258 . S
O446 Co443 1.966 . S
O446 C444 1.263 1_545 S
C447 O448 1.235 1_545 S
C447 O474 1.289 . S
O448 C447 1.235 1_565 S
C449 C451 1.400 . S
C449 N452 1.351 . S
C449 C454 1.501 1_545 S
C450 C451 1.387 . S
C450 N453 1.341 . S
C451 C449 1.400 . S
C451 C450 1.387 . S
N452 Co443 2.022 . S
N452 C449 1.351 . S
N452 N453 1.365 . S
N453 C450 1.341 . S
N453 N452 1.365 . S
N453 H473 0.862 . S
C454 C449 1.501 1_565 S
C454 H455 0.961 . S
C454 H456 0.961 . S
C454 H457 0.960 . S
H455 C454 0.961 . S
H456 C454 0.961 . S
H457 C454 0.960 . S
C458 N459 1.342 . S
C458 C462 1.401 . S
C458 C463 1.499 . S
N459 Co442 1.989 . S
N459 C458 1.342 . S
N459 N460 1.388 . S
N460 Co443 1.993 . S
N460 N459 1.388 . S
N460 C461 1.346 . S
C461 N460 1.346 . S
C461 C462 1.396 . S
C461 C471 1.510 . S
C462 C458 1.401 . S
C462 C461 1.396 . S
C463 C458 1.499 . S
C463 H464 0.959 . S
C463 H465 0.960 . S
C463 H466 0.961 . S
H464 C463 0.959 . S
H465 C463 0.960 . S
H466 C463 0.961 . S
O467 Co442 1.967 . S
O467 C475 1.258 . S
O468 Co443 1.941 . S
O468 C475 1.266 . S
H469 C471 0.959 . S
H470 C471 0.961 . S
C471 C461 1.510 . S
C471 H469 0.959 . S
C471 H470 0.961 . S
C471 H472 0.960 . S
H472 C471 0.960 . S
H473 N453 0.862 . S
O474 Co442 1.920 . S
O474 C447 1.289 . S
C475 O467 1.258 . S
C475 O468 1.266 . S
Co476 O479 1.970 . S
Co476 N493 1.989 . S
Co476 O501 1.967 . S
Co476 O508 1.920 . S
Co477 O480 1.966 . S
Co477 N486 2.022 . S
Co477 N494 1.993 . S
Co477 O502 1.941 . S
C478 O479 1.258 . S
C478 O480 1.263 . S
O479 Co476 1.970 . S
O479 C478 1.258 . S
O480 Co477 1.966 . S
O480 C478 1.263 . S
C481 O482 1.235 . S
C481 O508 1.289 . S
O482 C481 1.235 . S
C483 C485 1.400 . S
C483 N486 1.351 . S
C483 C488 1.501 . S
C484 C485 1.387 . S
C484 N487 1.341 . S
C485 C483 1.400 . S
C485 C484 1.387 . S
N486 Co477 2.022 . S
N486 C483 1.351 . S
N486 N487 1.365 . S
N487 C484 1.341 . S
N487 N486 1.365 . S
N487 H507 0.862 . S
C488 C483 1.501 . S
C488 H489 0.961 . S
C488 H490 0.961 . S
C488 H491 0.960 . S
H489 C488 0.961 . S
H490 C488 0.961 . S
H491 C488 0.960 . S
C492 N493 1.342 . S
C492 C496 1.401 . S
C492 C497 1.499 . S
N493 Co476 1.989 . S
N493 C492 1.342 . S
N493 N494 1.388 . S
N494 Co477 1.993 . S
N494 N493 1.388 . S
N494 C495 1.346 . S
C495 N494 1.346 . S
C495 C496 1.396 . S
C495 C505 1.510 . S
C496 C492 1.401 . S
C496 C495 1.396 . S
C497 C492 1.499 . S
C497 H498 0.959 . S
C497 H499 0.960 . S
C497 H500 0.961 . S
H498 C497 0.959 . S
H499 C497 0.960 . S
H500 C497 0.961 . S
O501 Co476 1.967 . S
O501 C509 1.258 . S
O502 Co477 1.941 . S
O502 C509 1.266 . S
H503 C505 0.959 . S
H504 C505 0.961 . S
C505 C495 1.510 . S
C505 H503 0.959 . S
C505 H504 0.961 . S
C505 H506 0.960 . S
H506 C505 0.960 . S
H507 N487 0.862 . S
O508 Co476 1.920 . S
O508 C481 1.289 . S
C509 O501 1.258 . S
C509 O502 1.266 . S
Co510 O513 1.970 1_565 S
Co510 N527 1.989 . S
Co510 O535 1.967 . S
Co510 O542 1.920 . S
Co511 O514 1.966 . S
Co511 N520 2.022 . S
Co511 N528 1.993 . S
Co511 O536 1.941 . S
C512 O513 1.258 . S
C512 O514 1.263 1_545 S
O513 Co510 1.970 1_545 S
O513 C512 1.258 . S
O514 Co511 1.966 . S
O514 C512 1.263 1_565 S
C515 O516 1.235 1_565 S
C515 O542 1.289 . S
O516 C515 1.235 1_545 S
C517 C519 1.400 . S
C517 N520 1.351 . S
C517 C522 1.501 1_565 S
C518 C519 1.387 . S
C518 N521 1.341 . S
C519 C517 1.400 . S
C519 C518 1.387 . S
N520 Co511 2.022 . S
N520 C517 1.351 . S
N520 N521 1.365 . S
N521 C518 1.341 . S
N521 N520 1.365 . S
N521 H541 0.862 . S
C522 C517 1.501 1_545 S
C522 H523 0.961 . S
C522 H524 0.961 . S
C522 H525 0.960 . S
H523 C522 0.961 . S
H524 C522 0.961 . S
H525 C522 0.960 . S
C526 N527 1.342 . S
C526 C530 1.401 . S
C526 C531 1.499 . S
N527 Co510 1.989 . S
N527 C526 1.342 . S
N527 N528 1.388 . S
N528 Co511 1.993 . S
N528 N527 1.388 . S
N528 C529 1.346 . S
C529 N528 1.346 . S
C529 C530 1.396 . S
C529 C539 1.510 . S
C530 C526 1.401 . S
C530 C529 1.396 . S
C531 C526 1.499 . S
C531 H532 0.959 . S
C531 H533 0.960 . S
C531 H534 0.961 . S
H532 C531 0.959 . S
H533 C531 0.960 . S
H534 C531 0.961 . S
O535 Co510 1.967 . S
O535 C543 1.258 . S
O536 Co511 1.941 . S
O536 C543 1.266 . S
H537 C539 0.959 . S
H538 C539 0.961 . S
C539 C529 1.510 . S
C539 H537 0.959 . S
C539 H538 0.961 . S
C539 H540 0.960 . S
H540 C539 0.960 . S
H541 N521 0.862 . S
O542 Co510 1.920 . S
O542 C515 1.289 . S
C543 O535 1.258 . S
C543 O536 1.266 . S
Co544 O547 1.970 . S
Co544 N561 1.989 . S
Co544 O569 1.967 . S
Co544 O576 1.920 . S
Co545 O548 1.966 . S
Co545 N554 2.022 . S
Co545 N562 1.993 . S
Co545 O570 1.941 . S
C546 O547 1.258 . S
C546 O548 1.263 . S
O547 Co544 1.970 . S
O547 C546 1.258 . S
O548 Co545 1.966 . S
O548 C546 1.263 . S
C549 O550 1.235 . S
C549 O576 1.289 . S
O550 C549 1.235 . S
C551 C553 1.400 . S
C551 N554 1.351 . S
C551 C556 1.501 . S
C552 C553 1.387 . S
C552 N555 1.341 . S
C553 C551 1.400 . S
C553 C552 1.387 . S
N554 Co545 2.022 . S
N554 C551 1.351 . S
N554 N555 1.365 . S
N555 C552 1.341 . S
N555 N554 1.365 . S
N555 H575 0.862 . S
C556 C551 1.501 . S
C556 H557 0.961 . S
C556 H558 0.961 . S
C556 H559 0.960 . S
H557 C556 0.961 . S
H558 C556 0.961 . S
H559 C556 0.960 . S
C560 N561 1.342 . S
C560 C564 1.401 . S
C560 C565 1.499 . S
N561 Co544 1.989 . S
N561 C560 1.342 . S
N561 N562 1.388 . S
N562 Co545 1.993 . S
N562 N561 1.388 . S
N562 C563 1.346 . S
C563 N562 1.346 . S
C563 C564 1.396 . S
C563 C573 1.510 . S
C564 C560 1.401 . S
C564 C563 1.396 . S
C565 C560 1.499 . S
C565 H566 0.959 . S
C565 H567 0.960 . S
C565 H568 0.961 . S
H566 C565 0.959 . S
H567 C565 0.960 . S
H568 C565 0.961 . S
O569 Co544 1.967 . S
O569 C577 1.258 . S
O570 Co545 1.941 . S
O570 C577 1.266 . S
H571 C573 0.959 . S
H572 C573 0.961 . S
C573 C563 1.510 . S
C573 H571 0.959 . S
C573 H572 0.961 . S
C573 H574 0.960 . S
H574 C573 0.960 . S
H575 N555 0.862 . S
O576 Co544 1.920 . S
O576 C549 1.289 . S
C577 O569 1.258 . S
C577 O570 1.266 . S
Co578 O581 1.970 . S
Co578 N595 1.989 . S
Co578 O603 1.967 . S
Co578 O610 1.920 . S
Co579 O582 1.966 . S
Co579 N588 2.022 . S
Co579 N596 1.993 . S
Co579 O604 1.941 . S
C580 O581 1.258 . S
C580 O582 1.263 . S
O581 Co578 1.970 . S
O581 C580 1.258 . S
O582 Co579 1.966 . S
O582 C580 1.263 . S
C583 O584 1.235 . S
C583 O610 1.289 . S
O584 C583 1.235 . S
C585 C587 1.400 . S
C585 N588 1.351 . S
C585 C590 1.501 . S
C586 C587 1.387 . S
C586 N589 1.341 . S
C587 C585 1.400 . S
C587 C586 1.387 . S
N588 Co579 2.022 . S
N588 C585 1.351 . S
N588 N589 1.365 . S
N589 C586 1.341 . S
N589 N588 1.365 . S
N589 H609 0.862 . S
C590 C585 1.501 . S
C590 H591 0.961 . S
C590 H592 0.961 . S
C590 H593 0.960 . S
H591 C590 0.961 . S
H592 C590 0.961 . S
H593 C590 0.960 . S
C594 N595 1.342 . S
C594 C598 1.401 . S
C594 C599 1.499 . S
N595 Co578 1.989 . S
N595 C594 1.342 . S
N595 N596 1.388 . S
N596 Co579 1.993 . S
N596 N595 1.388 . S
N596 C597 1.346 . S
C597 N596 1.346 . S
C597 C598 1.396 . S
C597 C607 1.510 . S
C598 C594 1.401 . S
C598 C597 1.396 . S
C599 C594 1.499 . S
C599 H600 0.959 . S
C599 H601 0.960 . S
C599 H602 0.961 . S
H600 C599 0.959 . S
H601 C599 0.960 . S
H602 C599 0.961 . S
O603 Co578 1.967 . S
O603 C611 1.258 . S
O604 Co579 1.941 . S
O604 C611 1.266 . S
H605 C607 0.959 . S
H606 C607 0.961 . S
C607 C597 1.510 . S
C607 H605 0.959 . S
C607 H606 0.961 . S
C607 H608 0.960 . S
H608 C607 0.960 . S
H609 N589 0.862 . S
O610 Co578 1.920 . S
O610 C583 1.289 . S
C611 O603 1.258 . S
C611 O604 1.266 . S
Co612 O615 1.970 . S
Co612 N629 1.989 . S
Co612 O637 1.967 . S
Co612 O644 1.920 . S
Co613 O616 1.966 . S
Co613 N622 2.022 . S
Co613 N630 1.993 . S
Co613 O638 1.941 . S
C614 O615 1.258 . S
C614 O616 1.263 . S
O615 Co612 1.970 . S
O615 C614 1.258 . S
O616 Co613 1.966 . S
O616 C614 1.263 . S
C617 O618 1.235 . S
C617 O644 1.289 . S
O618 C617 1.235 . S
C619 C621 1.400 1_554 S
C619 N622 1.351 . S
C619 C624 1.501 . S
C620 C621 1.387 . S
C620 N623 1.341 1_556 S
C621 C619 1.400 1_556 S
C621 C620 1.387 . S
N622 Co613 2.022 . S
N622 C619 1.351 . S
N622 N623 1.365 . S
N623 C620 1.341 1_554 S
N623 N622 1.365 . S
N623 H643 0.862 . S
C624 C619 1.501 . S
C624 H625 0.961 . S
C624 H626 0.961 . S
C624 H627 0.960 . S
H625 C624 0.961 . S
H626 C624 0.961 . S
H627 C624 0.960 . S
C628 N629 1.342 . S
C628 C632 1.401 . S
C628 C633 1.499 . S
N629 Co612 1.989 . S
N629 C628 1.342 . S
N629 N630 1.388 . S
N630 Co613 1.993 . S
N630 N629 1.388 . S
N630 C631 1.346 . S
C631 N630 1.346 . S
C631 C632 1.396 . S
C631 C641 1.510 . S
C632 C628 1.401 . S
C632 C631 1.396 . S
C633 C628 1.499 . S
C633 H634 0.959 . S
C633 H635 0.960 . S
C633 H636 0.961 . S
H634 C633 0.959 . S
H635 C633 0.960 . S
H636 C633 0.961 . S
O637 Co612 1.967 . S
O637 C645 1.258 . S
O638 Co613 1.941 . S
O638 C645 1.266 . S
H639 C641 0.959 . S
H640 C641 0.961 . S
C641 C631 1.510 . S
C641 H639 0.959 . S
C641 H640 0.961 . S
C641 H642 0.960 . S
H642 C641 0.960 . S
H643 N623 0.862 . S
O644 Co612 1.920 . S
O644 C617 1.289 . S
C645 O637 1.258 . S
C645 O638 1.266 . S
Co646 O649 1.970 . S
Co646 N663 1.989 . S
Co646 O671 1.967 . S
Co646 O678 1.920 . S
Co647 O650 1.966 . S
Co647 N656 2.022 . S
Co647 N664 1.993 . S
Co647 O672 1.941 . S
C648 O649 1.258 . S
C648 O650 1.263 . S
O649 Co646 1.970 . S
O649 C648 1.258 . S
O650 Co647 1.966 . S
O650 C648 1.263 . S
C651 O652 1.235 . S
C651 O678 1.289 . S
O652 C651 1.235 . S
C653 C655 1.400 . S
C653 N656 1.351 . S
C653 C658 1.501 . S
C654 C655 1.387 . S
C654 N657 1.341 . S
C655 C653 1.400 . S
C655 C654 1.387 . S
N656 Co647 2.022 . S
N656 C653 1.351 . S
N656 N657 1.365 . S
N657 C654 1.341 . S
N657 N656 1.365 . S
N657 H677 0.862 . S
C658 C653 1.501 . S
C658 H659 0.961 . S
C658 H660 0.961 . S
C658 H661 0.960 . S
H659 C658 0.961 . S
H660 C658 0.961 . S
H661 C658 0.960 . S
C662 N663 1.342 . S
C662 C666 1.401 . S
C662 C667 1.499 . S
N663 Co646 1.989 . S
N663 C662 1.342 . S
N663 N664 1.388 . S
N664 Co647 1.993 . S
N664 N663 1.388 . S
N664 C665 1.346 . S
C665 N664 1.346 . S
C665 C666 1.396 . S
C665 C675 1.510 . S
C666 C662 1.401 . S
C666 C665 1.396 . S
C667 C662 1.499 . S
C667 H668 0.959 . S
C667 H669 0.960 . S
C667 H670 0.961 . S
H668 C667 0.959 . S
H669 C667 0.960 . S
H670 C667 0.961 . S
O671 Co646 1.967 . S
O671 C679 1.258 . S
O672 Co647 1.941 . S
O672 C679 1.266 . S
H673 C675 0.959 . S
H674 C675 0.961 . S
C675 C665 1.510 . S
C675 H673 0.959 . S
C675 H674 0.961 . S
C675 H676 0.960 . S
H676 C675 0.960 . S
H677 N657 0.862 . S
O678 Co646 1.920 . S
O678 C651 1.289 . S
C679 O671 1.258 . S
C679 O672 1.266 . S
Co680 O683 1.970 . S
Co680 N697 1.989 . S
Co680 O705 1.967 . S
Co680 O712 1.920 . S
Co681 O684 1.966 . S
Co681 N690 2.022 . S
Co681 N698 1.993 . S
Co681 O706 1.941 . S
C682 O683 1.258 . S
C682 O684 1.263 . S
O683 Co680 1.970 . S
O683 C682 1.258 . S
O684 Co681 1.966 . S
O684 C682 1.263 . S
C685 O686 1.235 . S
C685 O712 1.289 . S
O686 C685 1.235 . S
C687 C689 1.400 . S
C687 N690 1.351 . S
C687 C692 1.501 . S
C688 C689 1.387 . S
C688 N691 1.341 . S
C689 C687 1.400 . S
C689 C688 1.387 . S
N690 Co681 2.022 . S
N690 C687 1.351 . S
N690 N691 1.365 . S
N691 C688 1.341 . S
N691 N690 1.365 . S
N691 H711 0.862 . S
C692 C687 1.501 . S
C692 H693 0.961 . S
C692 H694 0.961 . S
C692 H695 0.960 . S
H693 C692 0.961 . S
H694 C692 0.961 . S
H695 C692 0.960 . S
C696 N697 1.342 . S
C696 C700 1.401 . S
C696 C701 1.499 . S
N697 Co680 1.989 . S
N697 C696 1.342 . S
N697 N698 1.388 . S
N698 Co681 1.993 . S
N698 N697 1.388 . S
N698 C699 1.346 . S
C699 N698 1.346 . S
C699 C700 1.396 . S
C699 C709 1.510 . S
C700 C696 1.401 . S
C700 C699 1.396 . S
C701 C696 1.499 . S
C701 H702 0.959 . S
C701 H703 0.960 . S
C701 H704 0.961 . S
H702 C701 0.959 . S
H703 C701 0.960 . S
H704 C701 0.961 . S
O705 Co680 1.967 . S
O705 C713 1.258 . S
O706 Co681 1.941 . S
O706 C713 1.266 . S
H707 C709 0.959 . S
H708 C709 0.961 . S
C709 C699 1.510 . S
C709 H707 0.959 . S
C709 H708 0.961 . S
C709 H710 0.960 . S
H710 C709 0.960 . S
H711 N691 0.862 . S
O712 Co680 1.920 . S
O712 C685 1.289 . S
C713 O705 1.258 . S
C713 O706 1.266 . S
Co714 O717 1.970 . S
Co714 N731 1.989 . S
Co714 O739 1.967 . S
Co714 O746 1.920 . S
Co715 O718 1.966 . S
Co715 N724 2.022 . S
Co715 N732 1.993 . S
Co715 O740 1.941 . S
C716 O717 1.258 . S
C716 O718 1.263 . S
O717 Co714 1.970 . S
O717 C716 1.258 . S
O718 Co715 1.966 . S
O718 C716 1.263 . S
C719 O720 1.235 . S
C719 O746 1.289 . S
O720 C719 1.235 . S
C721 C723 1.400 . S
C721 N724 1.351 . S
C721 C726 1.501 . S
C722 C723 1.387 . S
C722 N725 1.341 . S
C723 C721 1.400 . S
C723 C722 1.387 . S
N724 Co715 2.022 . S
N724 C721 1.351 . S
N724 N725 1.365 . S
N725 C722 1.341 . S
N725 N724 1.365 . S
N725 H745 0.862 . S
C726 C721 1.501 . S
C726 H727 0.961 . S
C726 H728 0.961 . S
C726 H729 0.960 . S
H727 C726 0.961 . S
H728 C726 0.961 . S
H729 C726 0.960 . S
C730 N731 1.342 . S
C730 C734 1.401 . S
C730 C735 1.499 . S
N731 Co714 1.989 . S
N731 C730 1.342 . S
N731 N732 1.388 . S
N732 Co715 1.993 . S
N732 N731 1.388 . S
N732 C733 1.346 . S
C733 N732 1.346 . S
C733 C734 1.396 . S
C733 C743 1.510 . S
C734 C730 1.401 . S
C734 C733 1.396 . S
C735 C730 1.499 . S
C735 H736 0.959 . S
C735 H737 0.960 . S
C735 H738 0.961 . S
H736 C735 0.959 . S
H737 C735 0.960 . S
H738 C735 0.961 . S
O739 Co714 1.967 . S
O739 C747 1.258 . S
O740 Co715 1.941 . S
O740 C747 1.266 . S
H741 C743 0.959 . S
H742 C743 0.961 . S
C743 C733 1.510 . S
C743 H741 0.959 . S
C743 H742 0.961 . S
C743 H744 0.960 . S
H744 C743 0.960 . S
H745 N725 0.862 . S
O746 Co714 1.920 . S
O746 C719 1.289 . S
C747 O739 1.258 . S
C747 O740 1.266 . S
Co748 O751 1.970 . S
Co748 N765 1.989 . S
Co748 O773 1.967 . S
Co748 O780 1.920 . S
Co749 O752 1.966 . S
Co749 N758 2.022 . S
Co749 N766 1.993 . S
Co749 O774 1.941 . S
C750 O751 1.258 . S
C750 O752 1.263 . S
O751 Co748 1.970 . S
O751 C750 1.258 . S
O752 Co749 1.966 . S
O752 C750 1.263 . S
C753 O754 1.235 . S
C753 O780 1.289 . S
O754 C753 1.235 . S
C755 C757 1.400 1_556 S
C755 N758 1.351 . S
C755 C760 1.501 . S
C756 C757 1.387 . S
C756 N759 1.341 1_554 S
C757 C755 1.400 1_554 S
C757 C756 1.387 . S
N758 Co749 2.022 . S
N758 C755 1.351 . S
N758 N759 1.365 . S
N759 C756 1.341 1_556 S
N759 N758 1.365 . S
N759 H779 0.862 . S
C760 C755 1.501 . S
C760 H761 0.961 . S
C760 H762 0.961 . S
C760 H763 0.960 . S
H761 C760 0.961 . S
H762 C760 0.961 . S
H763 C760 0.960 . S
C764 N765 1.342 . S
C764 C768 1.401 . S
C764 C769 1.499 . S
N765 Co748 1.989 . S
N765 C764 1.342 . S
N765 N766 1.388 . S
N766 Co749 1.993 . S
N766 N765 1.388 . S
N766 C767 1.346 . S
C767 N766 1.346 . S
C767 C768 1.396 . S
C767 C777 1.510 . S
C768 C764 1.401 . S
C768 C767 1.396 . S
C769 C764 1.499 . S
C769 H770 0.959 . S
C769 H771 0.960 . S
C769 H772 0.961 . S
H770 C769 0.959 . S
H771 C769 0.960 . S
H772 C769 0.961 . S
O773 Co748 1.967 . S
O773 C781 1.258 . S
O774 Co749 1.941 . S
O774 C781 1.266 . S
H775 C777 0.959 . S
H776 C777 0.961 . S
C777 C767 1.510 . S
C777 H775 0.959 . S
C777 H776 0.961 . S
C777 H778 0.960 . S
H778 C777 0.960 . S
H779 N759 0.862 . S
O780 Co748 1.920 . S
O780 C753 1.289 . S
C781 O773 1.258 . S
C781 O774 1.266 . S
Co782 O785 1.970 . S
Co782 N799 1.989 . S
Co782 O807 1.967 . S
Co782 O814 1.920 . S
Co783 O786 1.966 . S
Co783 N792 2.022 . S
Co783 N800 1.993 . S
Co783 O808 1.941 . S
C784 O785 1.258 . S
C784 O786 1.263 . S
O785 Co782 1.970 . S
O785 C784 1.258 . S
O786 Co783 1.966 . S
O786 C784 1.263 . S
C787 O788 1.235 . S
C787 O814 1.289 . S
O788 C787 1.235 . S
C789 C791 1.400 . S
C789 N792 1.351 . S
C789 C794 1.501 . S
C790 C791 1.387 . S
C790 N793 1.341 . S
C791 C789 1.400 . S
C791 C790 1.387 . S
N792 Co783 2.022 . S
N792 C789 1.351 . S
N792 N793 1.365 . S
N793 C790 1.341 . S
N793 N792 1.365 . S
N793 H813 0.862 . S
C794 C789 1.501 . S
C794 H795 0.961 . S
C794 H796 0.961 . S
C794 H797 0.960 . S
H795 C794 0.961 . S
H796 C794 0.961 . S
H797 C794 0.960 . S
C798 N799 1.342 . S
C798 C802 1.401 . S
C798 C803 1.499 . S
N799 Co782 1.989 . S
N799 C798 1.342 . S
N799 N800 1.388 . S
N800 Co783 1.993 . S
N800 N799 1.388 . S
N800 C801 1.346 . S
C801 N800 1.346 . S
C801 C802 1.396 . S
C801 C811 1.510 . S
C802 C798 1.401 . S
C802 C801 1.396 . S
C803 C798 1.499 . S
C803 H804 0.959 . S
C803 H805 0.960 . S
C803 H806 0.961 . S
H804 C803 0.959 . S
H805 C803 0.960 . S
H806 C803 0.961 . S
O807 Co782 1.967 . S
O807 C815 1.258 . S
O808 Co783 1.941 . S
O808 C815 1.266 . S
H809 C811 0.959 . S
H810 C811 0.961 . S
C811 C801 1.510 . S
C811 H809 0.959 . S
C811 H810 0.961 . S
C811 H812 0.960 . S
H812 C811 0.960 . S
H813 N793 0.862 . S
O814 Co782 1.920 . S
O814 C787 1.289 . S
C815 O807 1.258 . S
C815 O808 1.266 . S
Co816 O819 1.970 . S
Co816 N833 1.989 . S
Co816 O841 1.967 . S
Co816 O848 1.920 . S
Co817 O820 1.966 . S
Co817 N826 2.022 . S
Co817 N834 1.993 . S
Co817 O842 1.941 . S
C818 O819 1.258 . S
C818 O820 1.263 . S
O819 Co816 1.970 . S
O819 C818 1.258 . S
O820 Co817 1.966 . S
O820 C818 1.263 . S
C821 O822 1.235 . S
C821 O848 1.289 . S
O822 C821 1.235 . S
C823 C825 1.400 . S
C823 N826 1.351 . S
C823 C828 1.501 . S
C824 C825 1.387 . S
C824 N827 1.341 . S
C825 C823 1.400 . S
C825 C824 1.387 . S
N826 Co817 2.022 . S
N826 C823 1.351 . S
N826 N827 1.365 . S
N827 C824 1.341 . S
N827 N826 1.365 . S
N827 H847 0.862 . S
C828 C823 1.501 . S
C828 H829 0.961 . S
C828 H830 0.961 . S
C828 H831 0.960 . S
H829 C828 0.961 . S
H830 C828 0.961 . S
H831 C828 0.960 . S
C832 N833 1.342 . S
C832 C836 1.401 . S
C832 C837 1.499 . S
N833 Co816 1.989 . S
N833 C832 1.342 . S
N833 N834 1.388 . S
N834 Co817 1.993 . S
N834 N833 1.388 . S
N834 C835 1.346 . S
C835 N834 1.346 . S
C835 C836 1.396 . S
C835 C845 1.510 . S
C836 C832 1.401 . S
C836 C835 1.396 . S
C837 C832 1.499 . S
C837 H838 0.959 . S
C837 H839 0.960 . S
C837 H840 0.961 . S
H838 C837 0.959 . S
H839 C837 0.960 . S
H840 C837 0.961 . S
O841 Co816 1.967 . S
O841 C849 1.258 . S
O842 Co817 1.941 . S
O842 C849 1.266 . S
H843 C845 0.959 . S
H844 C845 0.961 . S
C845 C835 1.510 . S
C845 H843 0.959 . S
C845 H844 0.961 . S
C845 H846 0.960 . S
H846 C845 0.960 . S
H847 N827 0.862 . S
O848 Co816 1.920 . S
O848 C821 1.289 . S
C849 O841 1.258 . S
C849 O842 1.266 . S
Co850 O853 1.970 . S
Co850 N867 1.989 . S
Co850 O875 1.967 . S
Co850 O882 1.920 . S
Co851 O854 1.966 . S
Co851 N860 2.022 . S
Co851 N868 1.993 . S
Co851 O876 1.941 . S
C852 O853 1.258 . S
C852 O854 1.263 . S
O853 Co850 1.970 . S
O853 C852 1.258 . S
O854 Co851 1.966 . S
O854 C852 1.263 . S
C855 O856 1.235 . S
C855 O882 1.289 . S
O856 C855 1.235 . S
C857 C859 1.400 . S
C857 N860 1.351 . S
C857 C862 1.501 . S
C858 C859 1.387 . S
C858 N861 1.341 . S
C859 C857 1.400 . S
C859 C858 1.387 . S
N860 Co851 2.022 . S
N860 C857 1.351 . S
N860 N861 1.365 . S
N861 C858 1.341 . S
N861 N860 1.365 . S
N861 H881 0.862 . S
C862 C857 1.501 . S
C862 H863 0.961 . S
C862 H864 0.961 . S
C862 H865 0.960 . S
H863 C862 0.961 . S
H864 C862 0.961 . S
H865 C862 0.960 . S
C866 N867 1.342 . S
C866 C870 1.401 . S
C866 C871 1.499 . S
N867 Co850 1.989 . S
N867 C866 1.342 . S
N867 N868 1.388 . S
N868 Co851 1.993 . S
N868 N867 1.388 . S
N868 C869 1.346 . S
C869 N868 1.346 . S
C869 C870 1.396 . S
C869 C879 1.510 . S
C870 C866 1.401 . S
C870 C869 1.396 . S
C871 C866 1.499 . S
C871 H872 0.959 . S
C871 H873 0.960 . S
C871 H874 0.961 . S
H872 C871 0.959 . S
H873 C871 0.960 . S
H874 C871 0.961 . S
O875 Co850 1.967 . S
O875 C883 1.258 . S
O876 Co851 1.941 . S
O876 C883 1.266 . S
H877 C879 0.959 . S
H878 C879 0.961 . S
C879 C869 1.510 . S
C879 H877 0.959 . S
C879 H878 0.961 . S
C879 H880 0.960 . S
H880 C879 0.960 . S
H881 N861 0.862 . S
O882 Co850 1.920 . S
O882 C855 1.289 . S
C883 O875 1.258 . S
C883 O876 1.266 . S
Co884 O887 1.970 . S
Co884 N901 1.989 . S
Co884 O909 1.967 . S
Co884 O916 1.920 . S
Co885 O888 1.966 . S
Co885 N894 2.022 . S
Co885 N902 1.993 . S
Co885 O910 1.941 . S
C886 O887 1.258 . S
C886 O888 1.263 . S
O887 Co884 1.970 . S
O887 C886 1.258 . S
O888 Co885 1.966 . S
O888 C886 1.263 . S
C889 O890 1.235 . S
C889 O916 1.289 . S
O890 C889 1.235 . S
C891 C893 1.400 1_556 S
C891 N894 1.351 . S
C891 C896 1.501 . S
C892 C893 1.387 . S
C892 N895 1.341 1_554 S
C893 C891 1.400 1_554 S
C893 C892 1.387 . S
N894 Co885 2.022 . S
N894 C891 1.351 . S
N894 N895 1.365 . S
N895 C892 1.341 1_556 S
N895 N894 1.365 . S
N895 H915 0.862 . S
C896 C891 1.501 . S
C896 H897 0.961 . S
C896 H898 0.961 . S
C896 H899 0.960 . S
H897 C896 0.961 . S
H898 C896 0.961 . S
H899 C896 0.960 . S
C900 N901 1.342 . S
C900 C904 1.401 . S
C900 C905 1.499 . S
N901 Co884 1.989 . S
N901 C900 1.342 . S
N901 N902 1.388 . S
N902 Co885 1.993 . S
N902 N901 1.388 . S
N902 C903 1.346 . S
C903 N902 1.346 . S
C903 C904 1.396 . S
C903 C913 1.510 . S
C904 C900 1.401 . S
C904 C903 1.396 . S
C905 C900 1.499 . S
C905 H906 0.959 . S
C905 H907 0.960 . S
C905 H908 0.961 . S
H906 C905 0.959 . S
H907 C905 0.960 . S
H908 C905 0.961 . S
O909 Co884 1.967 . S
O909 C917 1.258 . S
O910 Co885 1.941 . S
O910 C917 1.266 . S
H911 C913 0.959 . S
H912 C913 0.961 . S
C913 C903 1.510 . S
C913 H911 0.959 . S
C913 H912 0.961 . S
C913 H914 0.960 . S
H914 C913 0.960 . S
H915 N895 0.862 . S
O916 Co884 1.920 . S
O916 C889 1.289 . S
C917 O909 1.258 . S
C917 O910 1.266 . S
Co918 O921 1.970 . S
Co918 N935 1.989 . S
Co918 O943 1.967 . S
Co918 O950 1.920 . S
Co919 O922 1.966 . S
Co919 N928 2.022 . S
Co919 N936 1.993 . S
Co919 O944 1.941 . S
C920 O921 1.258 . S
C920 O922 1.263 . S
O921 Co918 1.970 . S
O921 C920 1.258 . S
O922 Co919 1.966 . S
O922 C920 1.263 . S
C923 O924 1.235 . S
C923 O950 1.289 . S
O924 C923 1.235 . S
C925 C927 1.400 . S
C925 N928 1.351 . S
C925 C930 1.501 . S
C926 C927 1.387 . S
C926 N929 1.341 . S
C927 C925 1.400 . S
C927 C926 1.387 . S
N928 Co919 2.022 . S
N928 C925 1.351 . S
N928 N929 1.365 . S
N929 C926 1.341 . S
N929 N928 1.365 . S
N929 H949 0.862 . S
C930 C925 1.501 . S
C930 H931 0.961 . S
C930 H932 0.961 . S
C930 H933 0.960 . S
H931 C930 0.961 . S
H932 C930 0.961 . S
H933 C930 0.960 . S
C934 N935 1.342 . S
C934 C938 1.401 . S
C934 C939 1.499 . S
N935 Co918 1.989 . S
N935 C934 1.342 . S
N935 N936 1.388 . S
N936 Co919 1.993 . S
N936 N935 1.388 . S
N936 C937 1.346 . S
C937 N936 1.346 . S
C937 C938 1.396 . S
C937 C947 1.510 . S
C938 C934 1.401 . S
C938 C937 1.396 . S
C939 C934 1.499 . S
C939 H940 0.959 . S
C939 H941 0.960 . S
C939 H942 0.961 . S
H940 C939 0.959 . S
H941 C939 0.960 . S
H942 C939 0.961 . S
O943 Co918 1.967 . S
O943 C951 1.258 . S
O944 Co919 1.941 . S
O944 C951 1.266 . S
H945 C947 0.959 . S
H946 C947 0.961 . S
C947 C937 1.510 . S
C947 H945 0.959 . S
C947 H946 0.961 . S
C947 H948 0.960 . S
H948 C947 0.960 . S
H949 N929 0.862 . S
O950 Co918 1.920 . S
O950 C923 1.289 . S
C951 O943 1.258 . S
C951 O944 1.266 . S
Co952 O955 1.970 . S
Co952 N969 1.989 . S
Co952 O977 1.967 . S
Co952 O984 1.920 . S
Co953 O956 1.966 . S
Co953 N962 2.022 . S
Co953 N970 1.993 . S
Co953 O978 1.941 . S
C954 O955 1.258 . S
C954 O956 1.263 . S
O955 Co952 1.970 . S
O955 C954 1.258 . S
O956 Co953 1.966 . S
O956 C954 1.263 . S
C957 O958 1.235 . S
C957 O984 1.289 . S
O958 C957 1.235 . S
C959 C961 1.400 . S
C959 N962 1.351 . S
C959 C964 1.501 . S
C960 C961 1.387 . S
C960 N963 1.341 . S
C961 C959 1.400 . S
C961 C960 1.387 . S
N962 Co953 2.022 . S
N962 C959 1.351 . S
N962 N963 1.365 . S
N963 C960 1.341 . S
N963 N962 1.365 . S
N963 H983 0.862 . S
C964 C959 1.501 . S
C964 H965 0.961 . S
C964 H966 0.961 . S
C964 H967 0.960 . S
H965 C964 0.961 . S
H966 C964 0.961 . S
H967 C964 0.960 . S
C968 N969 1.342 . S
C968 C972 1.401 . S
C968 C973 1.499 . S
N969 Co952 1.989 . S
N969 C968 1.342 . S
N969 N970 1.388 . S
N970 Co953 1.993 . S
N970 N969 1.388 . S
N970 C971 1.346 . S
C971 N970 1.346 . S
C971 C972 1.396 . S
C971 C981 1.510 . S
C972 C968 1.401 . S
C972 C971 1.396 . S
C973 C968 1.499 . S
C973 H974 0.959 . S
C973 H975 0.960 . S
C973 H976 0.961 . S
H974 C973 0.959 . S
H975 C973 0.960 . S
H976 C973 0.961 . S
O977 Co952 1.967 . S
O977 C985 1.258 . S
O978 Co953 1.941 . S
O978 C985 1.266 . S
H979 C981 0.959 . S
H980 C981 0.961 . S
C981 C971 1.510 . S
C981 H979 0.959 . S
C981 H980 0.961 . S
C981 H982 0.960 . S
H982 C981 0.960 . S
H983 N963 0.862 . S
O984 Co952 1.920 . S
O984 C957 1.289 . S
C985 O977 1.258 . S
C985 O978 1.266 . S
Co986 O989 1.970 . S
Co986 N1003 1.989 . S
Co986 O1011 1.967 . S
Co986 O1018 1.920 . S
Co987 O990 1.966 . S
Co987 N996 2.022 . S
Co987 N1004 1.993 . S
Co987 O1012 1.941 . S
C988 O989 1.258 . S
C988 O990 1.263 . S
O989 Co986 1.970 . S
O989 C988 1.258 . S
O990 Co987 1.966 . S
O990 C988 1.263 . S
C991 O992 1.235 . S
C991 O1018 1.289 . S
O992 C991 1.235 . S
C993 C995 1.400 . S
C993 N996 1.351 . S
C993 C998 1.501 . S
C994 C995 1.387 . S
C994 N997 1.341 . S
C995 C993 1.400 . S
C995 C994 1.387 . S
N996 Co987 2.022 . S
N996 C993 1.351 . S
N996 N997 1.365 . S
N997 C994 1.341 . S
N997 N996 1.365 . S
N997 H1017 0.862 . S
C998 C993 1.501 . S
C998 H999 0.961 . S
C998 H1000 0.961 . S
C998 H1001 0.960 . S
H999 C998 0.961 . S
H1000 C998 0.961 . S
H1001 C998 0.960 . S
C1002 N1003 1.342 . S
C1002 C1006 1.401 . S
C1002 C1007 1.499 . S
N1003 Co986 1.989 . S
N1003 C1002 1.342 . S
N1003 N1004 1.388 . S
N1004 Co987 1.993 . S
N1004 N1003 1.388 . S
N1004 C1005 1.346 . S
C1005 N1004 1.346 . S
C1005 C1006 1.396 . S
C1005 C1015 1.510 . S
C1006 C1002 1.401 . S
C1006 C1005 1.396 . S
C1007 C1002 1.499 . S
C1007 H1008 0.959 . S
C1007 H1009 0.960 . S
C1007 H1010 0.961 . S
H1008 C1007 0.959 . S
H1009 C1007 0.960 . S
H1010 C1007 0.961 . S
O1011 Co986 1.967 . S
O1011 C1019 1.258 . S
O1012 Co987 1.941 . S
O1012 C1019 1.266 . S
H1013 C1015 0.959 . S
H1014 C1015 0.961 . S
C1015 C1005 1.510 . S
C1015 H1013 0.959 . S
C1015 H1014 0.961 . S
C1015 H1016 0.960 . S
H1016 C1015 0.960 . S
H1017 N997 0.862 . S
O1018 Co986 1.920 . S
O1018 C991 1.289 . S
C1019 O1011 1.258 . S
C1019 O1012 1.266 . S
Co1020 O1023 1.970 . S
Co1020 N1037 1.989 . S
Co1020 O1045 1.967 . S
Co1020 O1052 1.920 . S
Co1021 O1024 1.966 . S
Co1021 N1030 2.022 . S
Co1021 N1038 1.993 . S
Co1021 O1046 1.941 . S
C1022 O1023 1.258 . S
C1022 O1024 1.263 . S
O1023 Co1020 1.970 . S
O1023 C1022 1.258 . S
O1024 Co1021 1.966 . S
O1024 C1022 1.263 . S
C1025 O1026 1.235 . S
C1025 O1052 1.289 . S
O1026 C1025 1.235 . S
C1027 C1029 1.400 1_554 S
C1027 N1030 1.351 . S
C1027 C1032 1.501 . S
C1028 C1029 1.387 . S
C1028 N1031 1.341 1_556 S
C1029 C1027 1.400 1_556 S
C1029 C1028 1.387 . S
N1030 Co1021 2.022 . S
N1030 C1027 1.351 . S
N1030 N1031 1.365 . S
N1031 C1028 1.341 1_554 S
N1031 N1030 1.365 . S
N1031 H1051 0.862 . S
C1032 C1027 1.501 . S
C1032 H1033 0.961 . S
C1032 H1034 0.961 . S
C1032 H1035 0.960 . S
H1033 C1032 0.961 . S
H1034 C1032 0.961 . S
H1035 C1032 0.960 . S
C1036 N1037 1.342 . S
C1036 C1040 1.401 . S
C1036 C1041 1.499 . S
N1037 Co1020 1.989 . S
N1037 C1036 1.342 . S
N1037 N1038 1.388 . S
N1038 Co1021 1.993 . S
N1038 N1037 1.388 . S
N1038 C1039 1.346 . S
C1039 N1038 1.346 . S
C1039 C1040 1.396 . S
C1039 C1049 1.510 . S
C1040 C1036 1.401 . S
C1040 C1039 1.396 . S
C1041 C1036 1.499 . S
C1041 H1042 0.959 . S
C1041 H1043 0.960 . S
C1041 H1044 0.961 . S
H1042 C1041 0.959 . S
H1043 C1041 0.960 . S
H1044 C1041 0.961 . S
O1045 Co1020 1.967 . S
O1045 C1053 1.258 . S
O1046 Co1021 1.941 . S
O1046 C1053 1.266 . S
H1047 C1049 0.959 . S
H1048 C1049 0.961 . S
C1049 C1039 1.510 . S
C1049 H1047 0.959 . S
C1049 H1048 0.961 . S
C1049 H1050 0.960 . S
H1050 C1049 0.960 . S
H1051 N1031 0.862 . S
O1052 Co1020 1.920 . S
O1052 C1025 1.289 . S
C1053 O1045 1.258 . S
C1053 O1046 1.266 . S
Co1054 O1057 1.970 . S
Co1054 N1071 1.989 . S
Co1054 O1079 1.967 . S
Co1054 O1086 1.920 . S
Co1055 O1058 1.966 . S
Co1055 N1064 2.022 . S
Co1055 N1072 1.993 . S
Co1055 O1080 1.941 . S
C1056 O1057 1.258 . S
C1056 O1058 1.263 . S
O1057 Co1054 1.970 . S
O1057 C1056 1.258 . S
O1058 Co1055 1.966 . S
O1058 C1056 1.263 . S
C1059 O1060 1.235 . S
C1059 O1086 1.289 . S
O1060 C1059 1.235 . S
C1061 C1063 1.400 . S
C1061 N1064 1.351 . S
C1061 C1066 1.501 . S
C1062 C1063 1.387 . S
C1062 N1065 1.341 . S
C1063 C1061 1.400 . S
C1063 C1062 1.387 . S
N1064 Co1055 2.022 . S
N1064 C1061 1.351 . S
N1064 N1065 1.365 . S
N1065 C1062 1.341 . S
N1065 N1064 1.365 . S
N1065 H1085 0.862 . S
C1066 C1061 1.501 . S
C1066 H1067 0.961 . S
C1066 H1068 0.961 . S
C1066 H1069 0.960 . S
H1067 C1066 0.961 . S
H1068 C1066 0.961 . S
H1069 C1066 0.960 . S
C1070 N1071 1.342 . S
C1070 C1074 1.401 . S
C1070 C1075 1.499 . S
N1071 Co1054 1.989 . S
N1071 C1070 1.342 . S
N1071 N1072 1.388 . S
N1072 Co1055 1.993 . S
N1072 N1071 1.388 . S
N1072 C1073 1.346 . S
C1073 N1072 1.346 . S
C1073 C1074 1.396 . S
C1073 C1083 1.510 . S
C1074 C1070 1.401 . S
C1074 C1073 1.396 . S
C1075 C1070 1.499 . S
C1075 H1076 0.959 . S
C1075 H1077 0.960 . S
C1075 H1078 0.961 . S
H1076 C1075 0.959 . S
H1077 C1075 0.960 . S
H1078 C1075 0.961 . S
O1079 Co1054 1.967 . S
O1079 C1087 1.258 . S
O1080 Co1055 1.941 . S
O1080 C1087 1.266 . S
H1081 C1083 0.959 . S
H1082 C1083 0.961 . S
C1083 C1073 1.510 . S
C1083 H1081 0.959 . S
C1083 H1082 0.961 . S
C1083 H1084 0.960 . S
H1084 C1083 0.960 . S
H1085 N1065 0.862 . S
O1086 Co1054 1.920 . S
O1086 C1059 1.289 . S
C1087 O1079 1.258 . S
C1087 O1080 1.266 . S
H1088 C1096 0.950 . S
H1089 C1101 0.950 1_565 S
H1090 C1098 0.950 . S
H1091 C1100 0.950 . S
H1092 C1102 0.950 . S
H1093 C1104 0.950 . S
H1094 C1106 0.950 . S
H1095 C1107 0.950 . S
C1096 H1088 0.950 . S
C1096 C1097 1.401 . S
C1096 C1098 1.391 . S
C1097 C1096 1.401 . S
C1097 C1101 1.398 . S
C1098 H1090 0.950 . S
C1098 C1096 1.391 . S
C1098 C1099 1.400 . S
C1099 C1098 1.400 . S
C1099 C1100 1.398 . S
C1099 C1105 1.491 . S
C1100 H1091 0.950 . S
C1100 C1099 1.398 . S
C1100 C1101 1.391 . S
C1101 H1089 0.950 1_545 S
C1101 C1097 1.398 . S
C1101 C1100 1.391 . S
C1102 H1092 0.950 . S
C1102 C1103 1.386 . S
C1102 C1104 1.391 . S
C1103 C1102 1.386 . S
C1103 C1107 1.393 . S
C1104 H1093 0.950 . S
C1104 C1102 1.391 . S
C1104 C1105 1.400 . S
C1105 C1099 1.491 . S
C1105 C1104 1.400 . S
C1105 C1106 1.398 . S
C1106 H1094 0.950 . S
C1106 C1105 1.398 . S
C1106 C1107 1.391 . S
C1107 H1095 0.950 . S
C1107 C1103 1.393 . S
C1107 C1106 1.391 . S
H1108 C1116 0.950 . S
H1109 C1121 0.950 . S
H1110 C1118 0.950 . S
H1111 C1120 0.950 . S
H1112 C1122 0.950 . S
H1113 C1124 0.950 . S
H1114 C1126 0.950 . S
H1115 C1127 0.950 . S
C1116 H1108 0.950 . S
C1116 C1117 1.386 . S
C1116 C1118 1.391 . S
C1117 C1116 1.386 . S
C1117 C1121 1.393 . S
C1118 H1110 0.950 . S
C1118 C1116 1.391 . S
C1118 C1119 1.400 . S
C1119 C1118 1.400 . S
C1119 C1120 1.398 . S
C1119 C1125 1.491 . S
C1120 H1111 0.950 . S
C1120 C1119 1.398 . S
C1120 C1121 1.391 . S
C1121 H1109 0.950 . S
C1121 C1117 1.393 . S
C1121 C1120 1.391 . S
C1122 H1112 0.950 . S
C1122 C1123 1.386 . S
C1122 C1124 1.391 . S
C1123 C1122 1.386 . S
C1123 C1127 1.393 . S
C1124 H1113 0.950 . S
C1124 C1122 1.391 . S
C1124 C1125 1.400 . S
C1125 C1119 1.491 . S
C1125 C1124 1.400 . S
C1125 C1126 1.398 . S
C1126 H1114 0.950 . S
C1126 C1125 1.398 . S
C1126 C1127 1.391 . S
C1127 H1115 0.950 . S
C1127 C1123 1.393 . S
C1127 C1126 1.391 . S
H1128 C1136 0.950 . S
H1129 C1141 0.950 . S
H1130 C1138 0.950 . S
H1131 C1140 0.950 . S
H1132 C1142 0.950 1_545 S
H1133 C1144 0.950 . S
H1134 C1146 0.950 . S
H1135 C1147 0.950 . S
C1136 H1128 0.950 . S
C1136 C1137 1.386 . S
C1136 C1138 1.391 . S
C1137 C1136 1.386 . S
C1137 C1141 1.393 . S
C1138 H1130 0.950 . S
C1138 C1136 1.391 . S
C1138 C1139 1.400 . S
C1139 C1138 1.400 . S
C1139 C1140 1.398 . S
C1139 C1145 1.491 . S
C1140 H1131 0.950 . S
C1140 C1139 1.398 . S
C1140 C1141 1.391 . S
C1141 H1129 0.950 . S
C1141 C1137 1.393 . S
C1141 C1140 1.391 . S
C1142 H1132 0.950 1_565 S
C1142 C1143 1.392 . S
C1142 C1144 1.391 . S
C1143 C1142 1.392 . S
C1143 C1147 1.410 . S
C1144 H1133 0.950 . S
C1144 C1142 1.391 . S
C1144 C1145 1.400 . S
C1145 C1139 1.491 . S
C1145 C1144 1.400 . S
C1145 C1146 1.398 . S
C1146 H1134 0.950 . S
C1146 C1145 1.398 . S
C1146 C1147 1.391 . S
C1147 H1135 0.950 . S
C1147 C1143 1.410 . S
C1147 C1146 1.391 . S
H1148 C1156 0.950 . S
H1149 C1161 0.950 . S
H1150 C1158 0.950 . S
H1151 C1160 0.950 . S
H1152 C1162 0.950 . S
H1153 C1164 0.950 . S
H1154 C1166 0.950 . S
H1155 C1167 0.950 . S
C1156 H1148 0.950 . S
C1156 C1157 1.386 . S
C1156 C1158 1.391 . S
C1157 C1156 1.386 . S
C1157 C1161 1.393 . S
C1158 H1150 0.950 . S
C1158 C1156 1.391 . S
C1158 C1159 1.400 . S
C1159 C1158 1.400 . S
C1159 C1160 1.398 . S
C1159 C1165 1.491 . S
C1160 H1151 0.950 . S
C1160 C1159 1.398 . S
C1160 C1161 1.391 . S
C1161 H1149 0.950 . S
C1161 C1157 1.393 . S
C1161 C1160 1.391 . S
C1162 H1152 0.950 . S
C1162 C1163 1.386 . S
C1162 C1164 1.391 . S
C1163 C1162 1.386 . S
C1163 C1167 1.393 . S
C1164 H1153 0.950 . S
C1164 C1162 1.391 . S
C1164 C1165 1.400 . S
C1165 C1159 1.491 . S
C1165 C1164 1.400 . S
C1165 C1166 1.398 . S
C1166 H1154 0.950 . S
C1166 C1165 1.398 . S
C1166 C1167 1.391 . S
C1167 H1155 0.950 . S
C1167 C1163 1.393 . S
C1167 C1166 1.391 . S
H1168 C1176 0.950 . S
H1169 C1181 0.950 . S
H1170 C1178 0.950 . S
H1171 C1180 0.950 . S
H1172 C1182 0.951 1_545 S
H1173 C1184 0.950 . S
H1174 C1186 0.950 . S
H1175 C1187 0.950 . S
C1176 H1168 0.950 . S
C1176 C1177 1.386 . S
C1176 C1178 1.391 . S
C1177 C1176 1.386 . S
C1177 C1181 1.393 . S
C1178 H1170 0.950 . S
C1178 C1176 1.391 . S
C1178 C1179 1.400 . S
C1179 C1178 1.400 . S
C1179 C1180 1.398 . S
C1179 C1185 1.491 . S
C1180 H1171 0.950 . S
C1180 C1179 1.398 . S
C1180 C1181 1.391 . S
C1181 H1169 0.950 . S
C1181 C1177 1.393 . S
C1181 C1180 1.391 . S
C1182 H1172 0.951 1_565 S
C1182 C1183 1.378 1_565 S
C1182 C1184 1.391 . S
C1183 C1182 1.378 1_545 S
C1183 C1187 1.383 1_545 S
C1184 H1173 0.950 . S
C1184 C1182 1.391 . S
C1184 C1185 1.400 . S
C1185 C1179 1.491 . S
C1185 C1184 1.400 . S
C1185 C1186 1.398 . S
C1186 H1174 0.950 . S
C1186 C1185 1.398 . S
C1186 C1187 1.391 . S
C1187 H1175 0.950 . S
C1187 C1183 1.383 1_565 S
C1187 C1186 1.391 . S
H1188 C1196 0.950 . S
H1189 C1201 0.950 . S
H1190 C1198 0.950 . S
H1191 C1200 0.950 . S
H1192 C1202 0.950 . S
H1193 C1204 0.950 . S
H1194 C1206 0.950 . S
H1195 C1207 0.950 . S
C1196 H1188 0.950 . S
C1196 C1197 1.386 . S
C1196 C1198 1.391 . S
C1197 C1196 1.386 . S
C1197 C1201 1.393 . S
C1198 H1190 0.950 . S
C1198 C1196 1.391 . S
C1198 C1199 1.400 . S
C1199 C1198 1.400 . S
C1199 C1200 1.398 . S
C1199 C1205 1.491 . S
C1200 H1191 0.950 . S
C1200 C1199 1.398 . S
C1200 C1201 1.391 . S
C1201 H1189 0.950 . S
C1201 C1197 1.393 . S
C1201 C1200 1.391 . S
C1202 H1192 0.950 . S
C1202 C1203 1.386 . S
C1202 C1204 1.391 . S
C1203 C1202 1.386 . S
C1203 C1207 1.393 . S
C1204 H1193 0.950 . S
C1204 C1202 1.391 . S
C1204 C1205 1.400 . S
C1205 C1199 1.491 . S
C1205 C1204 1.400 . S
C1205 C1206 1.398 . S
C1206 H1194 0.950 . S
C1206 C1205 1.398 . S
C1206 C1207 1.391 . S
C1207 H1195 0.950 . S
C1207 C1203 1.393 . S
C1207 C1206 1.391 . S
H1208 C1216 0.950 . S
H1209 C1221 0.950 . S
H1210 C1218 0.950 . S
H1211 C1220 0.950 . S
H1212 C1222 0.950 . S
H1213 C1224 0.950 . S
H1214 C1226 0.950 . S
H1215 C1227 0.950 . S
C1216 H1208 0.950 . S
C1216 C1217 1.386 . S
C1216 C1218 1.391 . S
C1217 C1216 1.386 . S
C1217 C1221 1.393 . S
C1218 H1210 0.950 . S
C1218 C1216 1.391 . S
C1218 C1219 1.400 . S
C1219 C1218 1.400 . S
C1219 C1220 1.398 . S
C1219 C1225 1.491 . S
C1220 H1211 0.950 . S
C1220 C1219 1.398 . S
C1220 C1221 1.391 . S
C1221 H1209 0.950 . S
C1221 C1217 1.393 . S
C1221 C1220 1.391 . S
C1222 H1212 0.950 . S
C1222 C1223 1.384 1_565 S
C1222 C1224 1.391 1_565 S
C1223 C1222 1.384 1_545 S
C1223 C1227 1.398 . S
C1224 H1213 0.950 . S
C1224 C1222 1.391 1_545 S
C1224 C1225 1.400 . S
C1225 C1219 1.491 . S
C1225 C1224 1.400 . S
C1225 C1226 1.398 . S
C1226 H1214 0.950 . S
C1226 C1225 1.398 . S
C1226 C1227 1.391 . S
C1227 H1215 0.950 . S
C1227 C1223 1.398 . S
C1227 C1226 1.391 . S
H1228 C1236 0.950 . S
H1229 C1241 0.950 . S
H1230 C1238 0.950 . S
H1231 C1240 0.950 . S
H1232 C1242 0.950 . S
H1233 C1244 0.950 . S
H1234 C1246 0.950 . S
H1235 C1247 0.950 . S
C1236 H1228 0.950 . S
C1236 C1237 1.386 . S
C1236 C1238 1.391 . S
C1237 C1236 1.386 . S
C1237 C1241 1.393 . S
C1238 H1230 0.950 . S
C1238 C1236 1.391 . S
C1238 C1239 1.400 . S
C1239 C1238 1.400 . S
C1239 C1240 1.398 . S
C1239 C1245 1.491 . S
C1240 H1231 0.950 . S
C1240 C1239 1.398 . S
C1240 C1241 1.391 . S
C1241 H1229 0.950 . S
C1241 C1237 1.393 . S
C1241 C1240 1.391 . S
C1242 H1232 0.950 . S
C1242 C1243 1.386 . S
C1242 C1244 1.391 . S
C1243 C1242 1.386 . S
C1243 C1247 1.393 . S
C1244 H1233 0.950 . S
C1244 C1242 1.391 . S
C1244 C1245 1.400 . S
C1245 C1239 1.491 . S
C1245 C1244 1.400 . S
C1245 C1246 1.398 . S
C1246 H1234 0.950 . S
C1246 C1245 1.398 . S
C1246 C1247 1.391 . S
C1247 H1235 0.950 . S
C1247 C1243 1.393 . S
C1247 C1246 1.391 . S
H1248 C1256 0.950 . S
H1249 C1261 0.929 1_545 S
H1250 C1258 0.950 . S
H1251 C1260 0.950 . S
H1252 C1262 0.950 . S
H1253 C1264 0.950 . S
H1254 C1266 0.950 . S
H1255 C1267 0.950 . S
C1256 H1248 0.950 . S
C1256 C1257 1.375 1_565 S
C1256 C1258 1.391 . S
C1257 C1256 1.375 1_545 S
C1257 C1261 1.386 1_545 S
C1258 H1250 0.950 . S
C1258 C1256 1.391 . S
C1258 C1259 1.400 . S
C1259 C1258 1.400 . S
C1259 C1260 1.398 . S
C1259 C1265 1.491 . S
C1260 H1251 0.950 . S
C1260 C1259 1.398 . S
C1260 C1261 1.391 . S
C1261 H1249 0.929 1_565 S
C1261 C1257 1.386 1_565 S
C1261 C1260 1.391 . S
C1262 H1252 0.950 . S
C1262 C1263 1.386 . S
C1262 C1264 1.391 . S
C1263 C1262 1.386 . S
C1263 C1267 1.393 . S
C1264 H1253 0.950 . S
C1264 C1262 1.391 . S
C1264 C1265 1.400 . S
C1265 C1259 1.491 . S
C1265 C1264 1.400 . S
C1265 C1266 1.398 . S
C1266 H1254 0.950 . S
C1266 C1265 1.398 . S
C1266 C1267 1.391 . S
C1267 H1255 0.950 . S
C1267 C1263 1.393 . S
C1267 C1266 1.391 . S
H1268 C1276 0.950 . S
H1269 C1281 0.950 . S
H1270 C1278 0.950 . S
H1271 C1280 0.950 . S
H1272 C1282 0.950 . S
H1273 C1284 0.950 . S
H1274 C1286 0.950 . S
H1275 C1287 0.950 . S
C1276 H1268 0.950 . S
C1276 C1277 1.386 . S
C1276 C1278 1.391 . S
C1277 C1276 1.386 . S
C1277 C1281 1.393 . S
C1278 H1270 0.950 . S
C1278 C1276 1.391 . S
C1278 C1279 1.400 . S
C1279 C1278 1.400 . S
C1279 C1280 1.398 . S
C1279 C1285 1.491 . S
C1280 H1271 0.950 . S
C1280 C1279 1.398 . S
C1280 C1281 1.391 . S
C1281 H1269 0.950 . S
C1281 C1277 1.393 . S
C1281 C1280 1.391 . S
C1282 H1272 0.950 . S
C1282 C1283 1.386 . S
C1282 C1284 1.391 . S
C1283 C1282 1.386 . S
C1283 C1287 1.393 . S
C1284 H1273 0.950 . S
C1284 C1282 1.391 . S
C1284 C1285 1.400 . S
C1285 C1279 1.491 . S
C1285 C1284 1.400 . S
C1285 C1286 1.398 . S
C1286 H1274 0.950 . S
C1286 C1285 1.398 . S
C1286 C1287 1.391 . S
C1287 H1275 0.950 . S
C1287 C1283 1.393 . S
C1287 C1286 1.391 . S
H1288 C1296 0.950 . S
H1289 C1301 0.950 . S
H1290 C1298 0.950 . S
H1291 C1300 0.950 . S
H1292 C1302 0.950 . S
H1293 C1304 0.950 . S
H1294 C1306 0.950 . S
H1295 C1307 0.950 1_565 S
C1296 H1288 0.950 . S
C1296 C1297 1.386 . S
C1296 C1298 1.391 . S
C1297 C1296 1.386 . S
C1297 C1301 1.393 . S
C1298 H1290 0.950 . S
C1298 C1296 1.391 . S
C1298 C1299 1.400 . S
C1299 C1298 1.400 . S
C1299 C1300 1.398 . S
C1299 C1305 1.491 . S
C1300 H1291 0.950 . S
C1300 C1299 1.398 . S
C1300 C1301 1.391 . S
C1301 H1289 0.950 . S
C1301 C1297 1.393 . S
C1301 C1300 1.391 . S
C1302 H1292 0.950 . S
C1302 C1303 1.402 . S
C1302 C1304 1.391 . S
C1303 C1302 1.402 . S
C1303 C1307 1.397 . S
C1304 H1293 0.950 . S
C1304 C1302 1.391 . S
C1304 C1305 1.400 . S
C1305 C1299 1.491 . S
C1305 C1304 1.400 . S
C1305 C1306 1.398 . S
C1306 H1294 0.950 . S
C1306 C1305 1.398 . S
C1306 C1307 1.391 . S
C1307 H1295 0.950 1_545 S
C1307 C1303 1.397 . S
C1307 C1306 1.391 . S
H1308 C1316 0.950 . S
H1309 C1321 0.950 . S
H1310 C1318 0.950 . S
H1311 C1320 0.950 . S
H1312 C1322 0.950 . S
H1313 C1324 0.950 . S
H1314 C1326 0.950 . S
H1315 C1327 0.950 . S
C1316 H1308 0.950 . S
C1316 C1317 1.386 . S
C1316 C1318 1.391 . S
C1317 C1316 1.386 . S
C1317 C1321 1.393 . S
C1318 H1310 0.950 . S
C1318 C1316 1.391 . S
C1318 C1319 1.400 . S
C1319 C1318 1.400 . S
C1319 C1320 1.398 . S
C1319 C1325 1.491 . S
C1320 H1311 0.950 . S
C1320 C1319 1.398 . S
C1320 C1321 1.391 . S
C1321 H1309 0.950 . S
C1321 C1317 1.393 . S
C1321 C1320 1.391 . S
C1322 H1312 0.950 . S
C1322 C1323 1.386 . S
C1322 C1324 1.391 . S
C1323 C1322 1.386 . S
C1323 C1327 1.393 . S
C1324 H1313 0.950 . S
C1324 C1322 1.391 . S
C1324 C1325 1.400 . S
C1325 C1319 1.491 . S
C1325 C1324 1.400 . S
C1325 C1326 1.398 . S
C1326 H1314 0.950 . S
C1326 C1325 1.398 . S
C1326 C1327 1.391 . S
C1327 H1315 0.950 . S
C1327 C1323 1.393 . S
C1327 C1326 1.391 . S
H1328 C1336 0.950 . S
H1329 C1341 0.950 . S
H1330 C1338 0.950 . S
H1331 C1340 0.950 . S
H1332 C1342 0.950 . S
H1333 C1344 0.950 . S
H1334 C1346 0.950 . S
H1335 C1347 0.924 1_565 S
C1336 H1328 0.950 . S
C1336 C1337 1.386 . S
C1336 C1338 1.391 . S
C1337 C1336 1.386 . S
C1337 C1341 1.393 . S
C1338 H1330 0.950 . S
C1338 C1336 1.391 . S
C1338 C1339 1.400 . S
C1339 C1338 1.400 . S
C1339 C1340 1.398 . S
C1339 C1345 1.491 . S
C1340 H1331 0.950 . S
C1340 C1339 1.398 . S
C1340 C1341 1.391 . S
C1341 H1329 0.950 . S
C1341 C1337 1.393 . S
C1341 C1340 1.391 . S
C1342 H1332 0.950 . S
C1342 C1343 1.371 1_545 S
C1342 C1344 1.391 . S
C1343 C1342 1.371 1_565 S
C1343 C1347 1.391 1_565 S
C1344 H1333 0.950 . S
C1344 C1342 1.391 . S
C1344 C1345 1.400 . S
C1345 C1339 1.491 . S
C1345 C1344 1.400 . S
C1345 C1346 1.398 . S
C1346 H1334 0.950 . S
C1346 C1345 1.398 . S
C1346 C1347 1.419 . S
C1347 H1335 0.924 1_545 S
C1347 C1343 1.391 1_545 S
C1347 C1346 1.419 . S
H1348 C1356 0.950 . S
H1349 C1361 0.950 . S
H1350 C1358 0.950 . S
H1351 C1360 0.950 . S
H1352 C1362 0.950 . S
H1353 C1364 0.950 . S
H1354 C1366 0.950 . S
H1355 C1367 0.950 . S
C1356 H1348 0.950 . S
C1356 C1357 1.386 . S
C1356 C1358 1.391 . S
C1357 C1356 1.386 . S
C1357 C1361 1.393 . S
C1358 H1350 0.950 . S
C1358 C1356 1.391 . S
C1358 C1359 1.400 . S
C1359 C1358 1.400 . S
C1359 C1360 1.398 . S
C1359 C1365 1.491 . S
C1360 H1351 0.950 . S
C1360 C1359 1.398 . S
C1360 C1361 1.391 . S
C1361 H1349 0.950 . S
C1361 C1357 1.393 . S
C1361 C1360 1.391 . S
C1362 H1352 0.950 . S
C1362 C1363 1.386 . S
C1362 C1364 1.391 . S
C1363 C1362 1.386 . S
C1363 C1367 1.393 . S
C1364 H1353 0.950 . S
C1364 C1362 1.391 . S
C1364 C1365 1.400 . S
C1365 C1359 1.491 . S
C1365 C1364 1.400 . S
C1365 C1366 1.398 . S
C1366 H1354 0.950 . S
C1366 C1365 1.398 . S
C1366 C1367 1.391 . S
C1367 H1355 0.950 . S
C1367 C1363 1.393 . S
C1367 C1366 1.391 . S
H1368 C1376 0.950 . S
H1369 C1381 0.950 . S
H1370 C1378 0.950 . S
H1371 C1380 0.950 . S
H1372 C1382 0.950 . S
H1373 C1384 0.950 . S
H1374 C1386 0.950 . S
H1375 C1387 0.950 . S
C1376 H1368 0.950 . S
C1376 C1377 1.375 1_565 S
C1376 C1378 1.391 . S
C1377 C1376 1.375 1_545 S
C1377 C1381 1.395 . S
C1378 H1370 0.950 . S
C1378 C1376 1.391 . S
C1378 C1379 1.400 . S
C1379 C1378 1.400 . S
C1379 C1380 1.398 . S
C1379 C1385 1.491 . S
C1380 H1371 0.950 . S
C1380 C1379 1.398 . S
C1380 C1381 1.391 1_565 S
C1381 H1369 0.950 . S
C1381 C1377 1.395 . S
C1381 C1380 1.391 1_545 S
C1382 H1372 0.950 . S
C1382 C1383 1.386 . S
C1382 C1384 1.391 . S
C1383 C1382 1.386 . S
C1383 C1387 1.393 . S
C1384 H1373 0.950 . S
C1384 C1382 1.391 . S
C1384 C1385 1.400 . S
C1385 C1379 1.491 . S
C1385 C1384 1.400 . S
C1385 C1386 1.398 . S
C1386 H1374 0.950 . S
C1386 C1385 1.398 . S
C1386 C1387 1.391 . S
C1387 H1375 0.950 . S
C1387 C1383 1.393 . S
C1387 C1386 1.391 . S
H1388 C1396 0.950 . S
H1389 C1401 0.950 . S
H1390 C1398 0.950 . S
H1391 C1400 0.950 . S
H1392 C1402 0.950 . S
H1393 C1404 0.950 . S
H1394 C1406 0.950 . S
H1395 C1407 0.950 . S
C1396 H1388 0.950 . S
C1396 C1397 1.386 . S
C1396 C1398 1.391 . S
C1397 C1396 1.386 . S
C1397 C1401 1.393 . S
C1398 H1390 0.950 . S
C1398 C1396 1.391 . S
C1398 C1399 1.400 . S
C1399 C1398 1.400 . S
C1399 C1400 1.398 . S
C1399 C1405 1.491 . S
C1400 H1391 0.950 . S
C1400 C1399 1.398 . S
C1400 C1401 1.391 . S
C1401 H1389 0.950 . S
C1401 C1397 1.393 . S
C1401 C1400 1.391 . S
C1402 H1392 0.950 . S
C1402 C1403 1.386 . S
C1402 C1404 1.391 . S
C1403 C1402 1.386 . S
C1403 C1407 1.393 . S
C1404 H1393 0.950 . S
C1404 C1402 1.391 . S
C1404 C1405 1.400 . S
C1405 C1399 1.491 . S
C1405 C1404 1.400 . S
C1405 C1406 1.398 . S
C1406 H1394 0.950 . S
C1406 C1405 1.398 . S
C1406 C1407 1.391 . S
C1407 H1395 0.950 . S
C1407 C1403 1.393 . S
C1407 C1406 1.391 . S
H1408 C1416 0.950 . S
H1409 C1421 0.950 . S
H1410 C1418 0.950 . S
H1411 C1420 0.950 . S
H1412 C1422 0.950 . S
H1413 C1424 0.950 . S
H1414 C1426 0.950 . S
H1415 C1427 0.950 . S
C1416 H1408 0.950 . S
C1416 C1417 1.386 . S
C1416 C1418 1.391 . S
C1417 C1416 1.386 . S
C1417 C1421 1.393 . S
C1418 H1410 0.950 . S
C1418 C1416 1.391 . S
C1418 C1419 1.400 . S
C1419 C1418 1.400 . S
C1419 C1420 1.398 . S
C1419 C1425 1.491 . S
C1420 H1411 0.950 . S
C1420 C1419 1.398 . S
C1420 C1421 1.391 . S
C1421 H1409 0.950 . S
C1421 C1417 1.393 . S
C1421 C1420 1.391 . S
C1422 H1412 0.950 . S
C1422 C1423 1.386 . S
C1422 C1424 1.391 . S
C1423 C1422 1.386 . S
C1423 C1427 1.393 . S
C1424 H1413 0.950 . S
C1424 C1422 1.391 . S
C1424 C1425 1.400 . S
C1425 C1419 1.491 . S
C1425 C1424 1.400 . S
C1425 C1426 1.398 . S
C1426 H1414 0.950 . S
C1426 C1425 1.398 . S
C1426 C1427 1.391 . S
C1427 H1415 0.950 . S
C1427 C1423 1.393 . S
C1427 C1426 1.391 . S
H1428 C1436 0.950 . S
H1429 C1441 0.950 . S
H1430 C1438 0.950 . S
H1431 C1440 0.950 . S
H1432 C1442 0.950 . S
H1433 C1444 0.950 . S
H1434 C1446 0.950 . S
H1435 C1447 0.950 . S
C1436 H1428 0.950 . S
C1436 C1437 1.386 . S
C1436 C1438 1.391 . S
C1437 C1436 1.386 . S
C1437 C1441 1.393 . S
C1438 H1430 0.950 . S
C1438 C1436 1.391 . S
C1438 C1439 1.400 . S
C1439 C1438 1.400 . S
C1439 C1440 1.398 . S
C1439 C1445 1.491 . S
C1440 H1431 0.950 . S
C1440 C1439 1.398 . S
C1440 C1441 1.391 . S
C1441 H1429 0.950 . S
C1441 C1437 1.393 . S
C1441 C1440 1.391 . S
C1442 H1432 0.950 . S
C1442 C1443 1.386 . S
C1442 C1444 1.391 . S
C1443 C1442 1.386 . S
C1443 C1447 1.393 . S
C1444 H1433 0.950 . S
C1444 C1442 1.391 . S
C1444 C1445 1.400 . S
C1445 C1439 1.491 . S
C1445 C1444 1.400 . S
C1445 C1446 1.398 . S
C1446 H1434 0.950 . S
C1446 C1445 1.398 . S
C1446 C1447 1.391 . S
C1447 H1435 0.950 . S
C1447 C1443 1.393 . S
C1447 C1446 1.391 . S
H1448 C1456 0.950 . S
H1449 C1461 0.950 . S
H1450 C1458 0.950 . S
H1451 C1460 0.950 . S
H1452 C1462 0.950 . S
H1453 C1464 0.950 . S
H1454 C1466 0.950 . S
H1455 C1467 0.950 . S
C1456 H1448 0.950 . S
C1456 C1457 1.386 . S
C1456 C1458 1.391 . S
C1457 C1456 1.386 . S
C1457 C1461 1.393 . S
C1458 H1450 0.950 . S
C1458 C1456 1.391 . S
C1458 C1459 1.400 . S
C1459 C1458 1.400 . S
C1459 C1460 1.398 . S
C1459 C1465 1.491 . S
C1460 H1451 0.950 . S
C1460 C1459 1.398 . S
C1460 C1461 1.391 . S
C1461 H1449 0.950 . S
C1461 C1457 1.393 . S
C1461 C1460 1.391 . S
C1462 H1452 0.950 . S
C1462 C1463 1.386 . S
C1462 C1464 1.391 . S
C1463 C1462 1.386 . S
C1463 C1467 1.393 . S
C1464 H1453 0.950 . S
C1464 C1462 1.391 . S
C1464 C1465 1.400 . S
C1465 C1459 1.491 . S
C1465 C1464 1.400 . S
C1465 C1466 1.398 . S
C1466 H1454 0.950 . S
C1466 C1465 1.398 . S
C1466 C1467 1.391 . S
C1467 H1455 0.950 . S
C1467 C1463 1.393 . S
C1467 C1466 1.391 . S
H1468 C1476 0.950 . S
H1469 C1481 0.950 . S
H1470 C1478 0.950 . S
H1471 C1480 0.950 . S
H1472 C1482 0.950 . S
H1473 C1484 0.950 . S
H1474 C1486 0.950 . S
H1475 C1487 0.950 . S
C1476 H1468 0.950 . S
C1476 C1477 1.386 . S
C1476 C1478 1.391 . S
C1477 C1476 1.386 . S
C1477 C1481 1.393 . S
C1478 H1470 0.950 . S
C1478 C1476 1.391 . S
C1478 C1479 1.400 . S
C1479 C1478 1.400 . S
C1479 C1480 1.398 . S
C1479 C1485 1.491 . S
C1480 H1471 0.950 . S
C1480 C1479 1.398 . S
C1480 C1481 1.391 . S
C1481 H1469 0.950 . S
C1481 C1477 1.393 . S
C1481 C1480 1.391 . S
C1482 H1472 0.950 . S
C1482 C1483 1.386 . S
C1482 C1484 1.391 . S
C1483 C1482 1.386 . S
C1483 C1487 1.393 . S
C1484 H1473 0.950 . S
C1484 C1482 1.391 . S
C1484 C1485 1.400 . S
C1485 C1479 1.491 . S
C1485 C1484 1.400 . S
C1485 C1486 1.398 . S
C1486 H1474 0.950 . S
C1486 C1485 1.398 . S
C1486 C1487 1.391 . S
C1487 H1475 0.950 . S
C1487 C1483 1.393 . S
C1487 C1486 1.391 . S
H1488 C1496 0.950 . S
H1489 C1501 0.950 . S
H1490 C1498 0.950 . S
H1491 C1500 0.950 . S
H1492 C1502 0.950 . S
H1493 C1504 0.950 . S
H1494 C1506 0.950 . S
H1495 C1507 0.950 . S
C1496 H1488 0.950 . S
C1496 C1497 1.386 . S
C1496 C1498 1.391 . S
C1497 C1496 1.386 . S
C1497 C1501 1.393 . S
C1498 H1490 0.950 . S
C1498 C1496 1.391 . S
C1498 C1499 1.400 . S
C1499 C1498 1.400 . S
C1499 C1500 1.398 . S
C1499 C1505 1.491 . S
C1500 H1491 0.950 . S
C1500 C1499 1.398 . S
C1500 C1501 1.391 . S
C1501 H1489 0.950 . S
C1501 C1497 1.393 . S
C1501 C1500 1.391 . S
C1502 H1492 0.950 . S
C1502 C1503 1.386 . S
C1502 C1504 1.391 . S
C1503 C1502 1.386 . S
C1503 C1507 1.393 . S
C1504 H1493 0.950 . S
C1504 C1502 1.391 . S
C1504 C1505 1.400 . S
C1505 C1499 1.491 . S
C1505 C1504 1.400 . S
C1505 C1506 1.398 . S
C1506 H1494 0.950 . S
C1506 C1505 1.398 . S
C1506 C1507 1.391 . S
C1507 H1495 0.950 . S
C1507 C1503 1.393 . S
C1507 C1506 1.391 . S
H1508 C1516 0.950 . S
H1509 C1521 0.950 . S
H1510 C1518 0.950 . S
H1511 C1520 0.950 . S
H1512 C1522 0.950 . S
H1513 C1524 0.950 . S
H1514 C1526 0.950 . S
H1515 C1527 0.950 . S
C1516 H1508 0.950 . S
C1516 C1517 1.386 . S
C1516 C1518 1.391 . S
C1517 C1516 1.386 . S
C1517 C1521 1.393 . S
C1518 H1510 0.950 . S
C1518 C1516 1.391 . S
C1518 C1519 1.400 . S
C1519 C1518 1.400 . S
C1519 C1520 1.398 . S
C1519 C1525 1.491 . S
C1520 H1511 0.950 . S
C1520 C1519 1.398 . S
C1520 C1521 1.391 . S
C1521 H1509 0.950 . S
C1521 C1517 1.393 . S
C1521 C1520 1.391 . S
C1522 H1512 0.950 . S
C1522 C1523 1.386 . S
C1522 C1524 1.391 . S
C1523 C1522 1.386 . S
C1523 C1527 1.393 . S
C1524 H1513 0.950 . S
C1524 C1522 1.391 . S
C1524 C1525 1.400 . S
C1525 C1519 1.491 . S
C1525 C1524 1.400 . S
C1525 C1526 1.398 . S
C1526 H1514 0.950 . S
C1526 C1525 1.398 . S
C1526 C1527 1.391 . S
C1527 H1515 0.950 . S
C1527 C1523 1.393 . S
C1527 C1526 1.391 . S
H1528 C1536 0.950 . S
H1529 C1541 0.950 . S
H1530 C1538 0.950 . S
H1531 C1540 0.950 . S
H1532 C1542 0.950 . S
H1533 C1544 0.950 . S
H1534 C1546 0.950 . S
H1535 C1547 0.950 . S
C1536 H1528 0.950 . S
C1536 C1537 1.386 . S
C1536 C1538 1.391 . S
C1537 C1536 1.386 . S
C1537 C1541 1.393 . S
C1538 H1530 0.950 . S
C1538 C1536 1.391 . S
C1538 C1539 1.400 . S
C1539 C1538 1.400 . S
C1539 C1540 1.398 . S
C1539 C1545 1.491 . S
C1540 H1531 0.950 . S
C1540 C1539 1.398 . S
C1540 C1541 1.391 . S
C1541 H1529 0.950 . S
C1541 C1537 1.393 . S
C1541 C1540 1.391 . S
C1542 H1532 0.950 . S
C1542 C1543 1.386 . S
C1542 C1544 1.391 . S
C1543 C1542 1.386 . S
C1543 C1547 1.393 . S
C1544 H1533 0.950 . S
C1544 C1542 1.391 . S
C1544 C1545 1.400 . S
C1545 C1539 1.491 . S
C1545 C1544 1.400 . S
C1545 C1546 1.398 . S
C1546 H1534 0.950 . S
C1546 C1545 1.398 . S
C1546 C1547 1.391 . S
C1547 H1535 0.950 . S
C1547 C1543 1.393 . S
C1547 C1546 1.391 . S
H1548 C1556 0.950 . S
H1549 C1561 0.950 . S
H1550 C1558 0.950 . S
H1551 C1560 0.950 . S
H1552 C1562 0.950 . S
H1553 C1564 0.950 . S
H1554 C1566 0.950 . S
H1555 C1567 0.950 . S
C1556 H1548 0.950 . S
C1556 C1557 1.386 . S
C1556 C1558 1.391 . S
C1557 C1556 1.386 . S
C1557 C1561 1.393 . S
C1558 H1550 0.950 . S
C1558 C1556 1.391 . S
C1558 C1559 1.400 . S
C1559 C1558 1.400 . S
C1559 C1560 1.398 . S
C1559 C1565 1.491 . S
C1560 H1551 0.950 . S
C1560 C1559 1.398 . S
C1560 C1561 1.391 . S
C1561 H1549 0.950 . S
C1561 C1557 1.393 . S
C1561 C1560 1.391 . S
C1562 H1552 0.950 . S
C1562 C1563 1.386 . S
C1562 C1564 1.391 . S
C1563 C1562 1.386 . S
C1563 C1567 1.393 . S
C1564 H1553 0.950 . S
C1564 C1562 1.391 . S
C1564 C1565 1.400 . S
C1565 C1559 1.491 . S
C1565 C1564 1.400 . S
C1565 C1566 1.398 . S
C1566 H1554 0.950 . S
C1566 C1565 1.398 . S
C1566 C1567 1.391 . S
C1567 H1555 0.950 . S
C1567 C1563 1.393 . S
C1567 C1566 1.391 . S
H1568 C1576 0.950 . S
H1569 C1581 0.950 . S
H1570 C1578 0.950 . S
H1571 C1580 0.950 . S
H1572 C1582 0.950 . S
H1573 C1584 0.950 . S
H1574 C1586 0.950 . S
H1575 C1587 0.950 . S
C1576 H1568 0.950 . S
C1576 C1577 1.386 . S
C1576 C1578 1.391 . S
C1577 C1576 1.386 . S
C1577 C1581 1.393 . S
C1578 H1570 0.950 . S
C1578 C1576 1.391 . S
C1578 C1579 1.400 . S
C1579 C1578 1.400 . S
C1579 C1580 1.398 . S
C1579 C1585 1.491 . S
C1580 H1571 0.950 . S
C1580 C1579 1.398 . S
C1580 C1581 1.391 . S
C1581 H1569 0.950 . S
C1581 C1577 1.393 . S
C1581 C1580 1.391 . S
C1582 H1572 0.950 . S
C1582 C1583 1.386 . S
C1582 C1584 1.391 . S
C1583 C1582 1.386 . S
C1583 C1587 1.393 . S
C1584 H1573 0.950 . S
C1584 C1582 1.391 . S
C1584 C1585 1.400 . S
C1585 C1579 1.491 . S
C1585 C1584 1.400 . S
C1585 C1586 1.398 . S
C1586 H1574 0.950 . S
C1586 C1585 1.398 . S
C1586 C1587 1.391 . S
C1587 H1575 0.950 . S
C1587 C1583 1.393 . S
C1587 C1586 1.391 . S
H1588 C1596 0.950 . S
H1589 C1601 0.950 . S
H1590 C1598 0.950 . S
H1591 C1600 0.950 . S
H1592 C1602 0.950 . S
H1593 C1604 0.950 . S
H1594 C1606 0.950 . S
H1595 C1607 0.950 . S
C1596 H1588 0.950 . S
C1596 C1597 1.386 . S
C1596 C1598 1.391 . S
C1597 C1596 1.386 . S
C1597 C1601 1.393 . S
C1598 H1590 0.950 . S
C1598 C1596 1.391 . S
C1598 C1599 1.400 . S
C1599 C1598 1.400 . S
C1599 C1600 1.398 . S
C1599 C1605 1.491 . S
C1600 H1591 0.950 . S
C1600 C1599 1.398 . S
C1600 C1601 1.391 . S
C1601 H1589 0.950 . S
C1601 C1597 1.393 . S
C1601 C1600 1.391 . S
C1602 H1592 0.950 . S
C1602 C1603 1.386 . S
C1602 C1604 1.391 . S
C1603 C1602 1.386 . S
C1603 C1607 1.393 . S
C1604 H1593 0.950 . S
C1604 C1602 1.391 . S
C1604 C1605 1.400 . S
C1605 C1599 1.491 . S
C1605 C1604 1.400 . S
C1605 C1606 1.398 . S
C1606 H1594 0.950 . S
C1606 C1605 1.398 . S
C1606 C1607 1.391 . S
C1607 H1595 0.950 . S
C1607 C1603 1.393 . S
C1607 C1606 1.391 . S
H1608 C1616 0.950 . S
H1609 C1621 0.950 . S
H1610 C1618 0.950 . S
H1611 C1620 0.950 . S
H1612 C1622 0.950 . S
H1613 C1624 0.950 . S
H1614 C1626 0.950 . S
H1615 C1627 0.950 . S
C1616 H1608 0.950 . S
C1616 C1617 1.386 . S
C1616 C1618 1.391 . S
C1617 C1616 1.386 . S
C1617 C1621 1.393 . S
C1618 H1610 0.950 . S
C1618 C1616 1.391 . S
C1618 C1619 1.400 . S
C1619 C1618 1.400 . S
C1619 C1620 1.398 . S
C1619 C1625 1.491 . S
C1620 H1611 0.950 . S
C1620 C1619 1.398 . S
C1620 C1621 1.391 . S
C1621 H1609 0.950 . S
C1621 C1617 1.393 . S
C1621 C1620 1.391 . S
C1622 H1612 0.950 . S
C1622 C1623 1.386 . S
C1622 C1624 1.391 . S
C1623 C1622 1.386 . S
C1623 C1627 1.393 . S
C1624 H1613 0.950 . S
C1624 C1622 1.391 . S
C1624 C1625 1.400 . S
C1625 C1619 1.491 . S
C1625 C1624 1.400 . S
C1625 C1626 1.398 . S
C1626 H1614 0.950 . S
C1626 C1625 1.398 . S
C1626 C1627 1.391 . S
C1627 H1615 0.950 . S
C1627 C1623 1.393 . S
C1627 C1626 1.391 . S
H1628 C1636 0.950 . S
H1629 C1641 0.950 . S
H1630 C1638 0.950 . S
H1631 C1640 0.950 . S
H1632 C1642 0.950 . S
H1633 C1644 0.950 . S
H1634 C1646 0.950 . S
H1635 C1647 0.950 . S
C1636 H1628 0.950 . S
C1636 C1637 1.386 . S
C1636 C1638 1.391 . S
C1637 C1636 1.386 . S
C1637 C1641 1.393 . S
C1638 H1630 0.950 . S
C1638 C1636 1.391 . S
C1638 C1639 1.400 . S
C1639 C1638 1.400 . S
C1639 C1640 1.398 . S
C1639 C1645 1.491 . S
C1640 H1631 0.950 . S
C1640 C1639 1.398 . S
C1640 C1641 1.391 . S
C1641 H1629 0.950 . S
C1641 C1637 1.393 . S
C1641 C1640 1.391 . S
C1642 H1632 0.950 . S
C1642 C1643 1.386 . S
C1642 C1644 1.391 . S
C1643 C1642 1.386 . S
C1643 C1647 1.393 . S
C1644 H1633 0.950 . S
C1644 C1642 1.391 . S
C1644 C1645 1.400 . S
C1645 C1639 1.491 . S
C1645 C1644 1.400 . S
C1645 C1646 1.398 . S
C1646 H1634 0.950 . S
C1646 C1645 1.398 . S
C1646 C1647 1.391 . S
C1647 H1635 0.950 . S
C1647 C1643 1.393 . S
C1647 C1646 1.391 . S
H1648 C1656 0.950 . S
H1649 C1661 0.950 . S
H1650 C1658 0.950 . S
H1651 C1660 0.950 . S
H1652 C1662 0.950 . S
H1653 C1664 0.950 . S
H1654 C1666 0.950 . S
H1655 C1667 0.950 . S
C1656 H1648 0.950 . S
C1656 C1657 1.386 . S
C1656 C1658 1.391 . S
C1657 C1656 1.386 . S
C1657 C1661 1.393 . S
C1658 H1650 0.950 . S
C1658 C1656 1.391 . S
C1658 C1659 1.400 . S
C1659 C1658 1.400 . S
C1659 C1660 1.398 . S
C1659 C1665 1.491 . S
C1660 H1651 0.950 . S
C1660 C1659 1.398 . S
C1660 C1661 1.391 . S
C1661 H1649 0.950 . S
C1661 C1657 1.393 . S
C1661 C1660 1.391 . S
C1662 H1652 0.950 . S
C1662 C1663 1.386 . S
C1662 C1664 1.391 . S
C1663 C1662 1.386 . S
C1663 C1667 1.393 . S
C1664 H1653 0.950 . S
C1664 C1662 1.391 . S
C1664 C1665 1.400 . S
C1665 C1659 1.491 . S
C1665 C1664 1.400 . S
C1665 C1666 1.398 . S
C1666 H1654 0.950 . S
C1666 C1665 1.398 . S
C1666 C1667 1.391 . S
C1667 H1655 0.950 . S
C1667 C1663 1.393 . S
C1667 C1666 1.391 . S
H1668 C1676 0.950 . S
H1669 C1681 0.950 . S
H1670 C1678 0.950 . S
H1671 C1680 0.950 . S
H1672 C1682 0.950 . S
H1673 C1684 0.950 . S
H1674 C1686 0.950 . S
H1675 C1687 0.950 . S
C1676 H1668 0.950 . S
C1676 C1677 1.386 . S
C1676 C1678 1.391 . S
C1677 C1676 1.386 . S
C1677 C1681 1.393 . S
C1678 H1670 0.950 . S
C1678 C1676 1.391 . S
C1678 C1679 1.400 . S
C1679 C1678 1.400 . S
C1679 C1680 1.398 . S
C1679 C1685 1.491 . S
C1680 H1671 0.950 . S
C1680 C1679 1.398 . S
C1680 C1681 1.391 . S
C1681 H1669 0.950 . S
C1681 C1677 1.393 . S
C1681 C1680 1.391 . S
C1682 H1672 0.950 . S
C1682 C1683 1.386 . S
C1682 C1684 1.391 . S
C1683 C1682 1.386 . S
C1683 C1687 1.393 . S
C1684 H1673 0.950 . S
C1684 C1682 1.391 . S
C1684 C1685 1.400 . S
C1685 C1679 1.491 . S
C1685 C1684 1.400 . S
C1685 C1686 1.398 . S
C1686 H1674 0.950 . S
C1686 C1685 1.398 . S
C1686 C1687 1.391 . S
C1687 H1675 0.950 . S
C1687 C1683 1.393 . S
C1687 C1686 1.391 . S
H1688 C1696 0.950 . S
H1689 C1701 0.950 . S
H1690 C1698 0.950 . S
H1691 C1700 0.950 . S
H1692 C1702 0.950 . S
H1693 C1704 0.950 . S
H1694 C1706 0.950 . S
H1695 C1707 0.950 . S
C1696 H1688 0.950 . S
C1696 C1697 1.386 . S
C1696 C1698 1.391 . S
C1697 C1696 1.386 . S
C1697 C1701 1.393 . S
C1698 H1690 0.950 . S
C1698 C1696 1.391 . S
C1698 C1699 1.400 . S
C1699 C1698 1.400 . S
C1699 C1700 1.398 . S
C1699 C1705 1.491 . S
C1700 H1691 0.950 . S
C1700 C1699 1.398 . S
C1700 C1701 1.391 . S
C1701 H1689 0.950 . S
C1701 C1697 1.393 . S
C1701 C1700 1.391 . S
C1702 H1692 0.950 . S
C1702 C1703 1.386 . S
C1702 C1704 1.391 . S
C1703 C1702 1.386 . S
C1703 C1707 1.393 . S
C1704 H1693 0.950 . S
C1704 C1702 1.391 . S
C1704 C1705 1.400 . S
C1705 C1699 1.491 . S
C1705 C1704 1.400 . S
C1705 C1706 1.398 . S
C1706 H1694 0.950 . S
C1706 C1705 1.398 . S
C1706 C1707 1.391 . S
C1707 H1695 0.950 . S
C1707 C1703 1.393 . S
C1707 C1706 1.391 . S
H1708 C1716 0.950 . S
H1709 C1721 0.950 . S
H1710 C1718 0.950 . S
H1711 C1720 0.950 . S
H1712 C1722 0.950 . S
H1713 C1724 0.950 . S
H1714 C1726 0.950 . S
H1715 C1727 0.950 . S
C1716 H1708 0.950 . S
C1716 C1717 1.386 . S
C1716 C1718 1.391 . S
C1717 C1716 1.386 . S
C1717 C1721 1.393 . S
C1718 H1710 0.950 . S
C1718 C1716 1.391 . S
C1718 C1719 1.400 . S
C1719 C1718 1.400 . S
C1719 C1720 1.398 . S
C1719 C1725 1.491 . S
C1720 H1711 0.950 . S
C1720 C1719 1.398 . S
C1720 C1721 1.391 . S
C1721 H1709 0.950 . S
C1721 C1717 1.393 . S
C1721 C1720 1.391 . S
C1722 H1712 0.950 . S
C1722 C1723 1.386 . S
C1722 C1724 1.391 . S
C1723 C1722 1.386 . S
C1723 C1727 1.393 . S
C1724 H1713 0.950 . S
C1724 C1722 1.391 . S
C1724 C1725 1.400 . S
C1725 C1719 1.491 . S
C1725 C1724 1.400 . S
C1725 C1726 1.398 . S
C1726 H1714 0.950 . S
C1726 C1725 1.398 . S
C1726 C1727 1.391 . S
C1727 H1715 0.950 . S
C1727 C1723 1.393 . S
C1727 C1726 1.391 . S
H1728 C1736 0.950 . S
H1729 C1741 0.950 . S
H1730 C1738 0.950 . S
H1731 C1740 0.950 . S
H1732 C1742 0.950 . S
H1733 C1744 0.950 . S
H1734 C1746 0.950 . S
H1735 C1747 0.950 . S
C1736 H1728 0.950 . S
C1736 C1737 1.386 . S
C1736 C1738 1.391 . S
C1737 C1736 1.386 . S
C1737 C1741 1.393 . S
C1738 H1730 0.950 . S
C1738 C1736 1.391 . S
C1738 C1739 1.400 . S
C1739 C1738 1.400 . S
C1739 C1740 1.398 . S
C1739 C1745 1.491 . S
C1740 H1731 0.950 . S
C1740 C1739 1.398 . S
C1740 C1741 1.391 . S
C1741 H1729 0.950 . S
C1741 C1737 1.393 . S
C1741 C1740 1.391 . S
C1742 H1732 0.950 . S
C1742 C1743 1.386 . S
C1742 C1744 1.391 . S
C1743 C1742 1.386 . S
C1743 C1747 1.393 . S
C1744 H1733 0.950 . S
C1744 C1742 1.391 . S
C1744 C1745 1.400 . S
C1745 C1739 1.491 . S
C1745 C1744 1.400 . S
C1745 C1746 1.398 . S
C1746 H1734 0.950 . S
C1746 C1745 1.398 . S
C1746 C1747 1.391 . S
C1747 H1735 0.950 . S
C1747 C1743 1.393 . S
C1747 C1746 1.391 . S
H1748 C1756 0.950 . S
H1749 C1761 0.950 . S
H1750 C1758 0.950 . S
H1751 C1760 0.950 . S
H1752 C1762 0.950 . S
H1753 C1764 0.950 . S
H1754 C1766 0.950 . S
H1755 C1767 0.950 . S
C1756 H1748 0.950 . S
C1756 C1757 1.386 . S
C1756 C1758 1.391 . S
C1757 C1756 1.386 . S
C1757 C1761 1.393 1_565 S
C1758 H1750 0.950 . S
C1758 C1756 1.391 . S
C1758 C1759 1.400 . S
C1759 C1758 1.400 . S
C1759 C1760 1.398 1_565 S
C1759 C1765 1.491 1_565 S
C1760 H1751 0.950 . S
C1760 C1759 1.398 1_545 S
C1760 C1761 1.391 . S
C1761 H1749 0.950 . S
C1761 C1757 1.393 1_545 S
C1761 C1760 1.391 . S
C1762 H1752 0.950 . S
C1762 C1763 1.386 . S
C1762 C1764 1.391 . S
C1763 C1762 1.386 . S
C1763 C1767 1.393 1_545 S
C1764 H1753 0.950 . S
C1764 C1762 1.391 . S
C1764 C1765 1.400 . S
C1765 C1759 1.491 1_545 S
C1765 C1764 1.400 . S
C1765 C1766 1.398 1_545 S
C1766 H1754 0.950 . S
C1766 C1765 1.398 1_565 S
C1766 C1767 1.391 . S
C1767 H1755 0.950 . S
C1767 C1763 1.393 1_565 S
C1767 C1766 1.391 . S
H1768 C1776 0.950 . S
H1769 C1781 0.950 . S
H1770 C1778 0.950 . S
H1771 C1780 0.950 . S
H1772 C1782 0.950 . S
H1773 C1784 0.950 . S
H1774 C1786 0.950 . S
H1775 C1787 0.950 . S
C1776 H1768 0.950 . S
C1776 C1777 1.386 . S
C1776 C1778 1.391 . S
C1777 C1776 1.386 . S
C1777 C1781 1.393 . S
C1778 H1770 0.950 . S
C1778 C1776 1.391 . S
C1778 C1779 1.400 . S
C1779 C1778 1.400 . S
C1779 C1780 1.398 . S
C1779 C1785 1.491 . S
C1780 H1771 0.950 . S
C1780 C1779 1.398 . S
C1780 C1781 1.391 . S
C1781 H1769 0.950 . S
C1781 C1777 1.393 . S
C1781 C1780 1.391 . S
C1782 H1772 0.950 . S
C1782 C1783 1.386 . S
C1782 C1784 1.391 . S
C1783 C1782 1.386 . S
C1783 C1787 1.393 . S
C1784 H1773 0.950 . S
C1784 C1782 1.391 . S
C1784 C1785 1.400 . S
C1785 C1779 1.491 . S
C1785 C1784 1.400 . S
C1785 C1786 1.398 . S
C1786 H1774 0.950 . S
C1786 C1785 1.398 . S
C1786 C1787 1.391 . S
C1787 H1775 0.950 . S
C1787 C1783 1.393 . S
C1787 C1786 1.391 . S
H1788 C1796 0.950 . S
H1789 C1801 0.950 . S
H1790 C1798 0.941 1_565 S
H1791 C1800 0.950 . S
H1792 C1802 0.950 . S
H1793 C1804 0.941 1_545 S
H1794 C1806 0.950 . S
H1795 C1807 0.950 . S
C1796 H1788 0.950 . S
C1796 C1797 1.386 . S
C1796 C1798 1.398 . S
C1797 C1796 1.386 . S
C1797 C1801 1.393 . S
C1798 H1790 0.941 1_545 S
C1798 C1796 1.398 . S
C1798 C1799 1.403 . S
C1799 C1798 1.403 . S
C1799 C1800 1.398 . S
C1799 C1805 1.491 1_546 S
C1800 H1791 0.950 . S
C1800 C1799 1.398 . S
C1800 C1801 1.391 . S
C1801 H1789 0.950 . S
C1801 C1797 1.393 . S
C1801 C1800 1.391 . S
C1802 H1792 0.950 . S
C1802 C1803 1.386 . S
C1802 C1804 1.398 . S
C1803 C1802 1.386 . S
C1803 C1807 1.393 . S
C1804 H1793 0.941 1_565 S
C1804 C1802 1.398 . S
C1804 C1805 1.403 . S
C1805 C1799 1.491 1_564 S
C1805 C1804 1.403 . S
C1805 C1806 1.398 . S
C1806 H1794 0.950 . S
C1806 C1805 1.398 . S
C1806 C1807 1.391 . S
C1807 H1795 0.950 . S
C1807 C1803 1.393 . S
C1807 C1806 1.391 . S
H1808 C1816 0.950 . S
H1809 C1821 0.950 . S
H1810 C1818 0.950 . S
H1811 C1820 0.950 . S
H1812 C1822 0.950 . S
H1813 C1824 0.950 . S
H1814 C1826 0.950 . S
H1815 C1827 0.950 . S
C1816 H1808 0.950 . S
C1816 C1817 1.386 . S
C1816 C1818 1.391 . S
C1817 C1816 1.386 . S
C1817 C1821 1.393 . S
C1818 H1810 0.950 . S
C1818 C1816 1.391 . S
C1818 C1819 1.400 . S
C1819 C1818 1.400 . S
C1819 C1820 1.398 . S
C1819 C1825 1.491 . S
C1820 H1811 0.950 . S
C1820 C1819 1.398 . S
C1820 C1821 1.391 . S
C1821 H1809 0.950 . S
C1821 C1817 1.393 . S
C1821 C1820 1.391 . S
C1822 H1812 0.950 . S
C1822 C1823 1.386 . S
C1822 C1824 1.391 . S
C1823 C1822 1.386 . S
C1823 C1827 1.393 . S
C1824 H1813 0.950 . S
C1824 C1822 1.391 . S
C1824 C1825 1.400 . S
C1825 C1819 1.491 . S
C1825 C1824 1.400 . S
C1825 C1826 1.398 . S
C1826 H1814 0.950 . S
C1826 C1825 1.398 . S
C1826 C1827 1.391 . S
C1827 H1815 0.950 . S
C1827 C1823 1.393 . S
C1827 C1826 1.391 . S
H1828 C1836 0.950 . S
H1829 C1841 0.950 . S
H1830 C1838 0.950 . S
H1831 C1840 0.950 . S
H1832 C1842 0.950 . S
H1833 C1844 0.950 . S
H1834 C1846 0.950 . S
H1835 C1847 0.950 . S
C1836 H1828 0.950 . S
C1836 C1837 1.386 . S
C1836 C1838 1.391 . S
C1837 C1836 1.386 . S
C1837 C1841 1.393 1_565 S
C1838 H1830 0.950 . S
C1838 C1836 1.391 . S
C1838 C1839 1.400 . S
C1839 C1838 1.400 . S
C1839 C1840 1.398 1_565 S
C1839 C1845 1.491 1_565 S
C1840 H1831 0.950 . S
C1840 C1839 1.398 1_545 S
C1840 C1841 1.391 . S
C1841 H1829 0.950 . S
C1841 C1837 1.393 1_545 S
C1841 C1840 1.391 . S
C1842 H1832 0.950 . S
C1842 C1843 1.386 . S
C1842 C1844 1.391 . S
C1843 C1842 1.386 . S
C1843 C1847 1.393 1_545 S
C1844 H1833 0.950 . S
C1844 C1842 1.391 . S
C1844 C1845 1.400 . S
C1845 C1839 1.491 1_545 S
C1845 C1844 1.400 . S
C1845 C1846 1.398 1_545 S
C1846 H1834 0.950 . S
C1846 C1845 1.398 1_565 S
C1846 C1847 1.391 . S
C1847 H1835 0.950 . S
C1847 C1843 1.393 1_565 S
C1847 C1846 1.391 . S
H1848 C1856 0.950 . S
H1849 C1861 0.950 . S
H1850 C1858 0.950 . S
H1851 C1860 0.950 . S
H1852 C1862 0.950 . S
H1853 C1864 0.950 . S
H1854 C1866 0.950 . S
H1855 C1867 0.950 . S
C1856 H1848 0.950 . S
C1856 C1857 1.386 . S
C1856 C1858 1.391 . S
C1857 C1856 1.386 . S
C1857 C1861 1.393 . S
C1858 H1850 0.950 . S
C1858 C1856 1.391 . S
C1858 C1859 1.400 . S
C1859 C1858 1.400 . S
C1859 C1860 1.398 . S
C1859 C1865 1.491 . S
C1860 H1851 0.950 . S
C1860 C1859 1.398 . S
C1860 C1861 1.391 . S
C1861 H1849 0.950 . S
C1861 C1857 1.393 . S
C1861 C1860 1.391 . S
C1862 H1852 0.950 . S
C1862 C1863 1.386 . S
C1862 C1864 1.391 . S
C1863 C1862 1.386 . S
C1863 C1867 1.393 . S
C1864 H1853 0.950 . S
C1864 C1862 1.391 . S
C1864 C1865 1.400 . S
C1865 C1859 1.491 . S
C1865 C1864 1.400 . S
C1865 C1866 1.398 . S
C1866 H1854 0.950 . S
C1866 C1865 1.398 . S
C1866 C1867 1.391 . S
C1867 H1855 0.950 . S
C1867 C1863 1.393 . S
C1867 C1866 1.391 . S
H1868 C1876 0.950 . S
H1869 C1881 0.950 . S
H1870 C1878 0.950 . S
H1871 C1880 0.950 . S
H1872 C1882 0.950 . S
H1873 C1884 0.950 . S
H1874 C1886 0.950 . S
H1875 C1887 0.950 . S
C1876 H1868 0.950 . S
C1876 C1877 1.386 1_565 S
C1876 C1878 1.391 . S
C1877 C1876 1.386 1_545 S
C1877 C1881 1.393 . S
C1878 H1870 0.950 . S
C1878 C1876 1.391 . S
C1878 C1879 1.400 1_565 S
C1879 C1878 1.400 1_545 S
C1879 C1880 1.398 . S
C1879 C1885 1.491 1_546 S
C1880 H1871 0.950 . S
C1880 C1879 1.398 . S
C1880 C1881 1.391 . S
C1881 H1869 0.950 . S
C1881 C1877 1.393 . S
C1881 C1880 1.391 . S
C1882 H1872 0.950 . S
C1882 C1883 1.386 1_545 S
C1882 C1884 1.391 . S
C1883 C1882 1.386 1_565 S
C1883 C1887 1.393 . S
C1884 H1873 0.950 . S
C1884 C1882 1.391 . S
C1884 C1885 1.400 1_545 S
C1885 C1879 1.491 1_564 S
C1885 C1884 1.400 1_565 S
C1885 C1886 1.398 . S
C1886 H1874 0.950 . S
C1886 C1885 1.398 . S
C1886 C1887 1.391 . S
C1887 H1875 0.950 . S
C1887 C1883 1.393 . S
C1887 C1886 1.391 . S
H1888 C1896 0.950 . S
H1889 C1901 0.950 . S
H1890 C1898 0.950 . S
H1891 C1900 0.950 . S
H1892 C1902 0.950 . S
H1893 C1904 0.950 . S
H1894 C1906 0.950 . S
H1895 C1907 0.950 . S
C1896 H1888 0.950 . S
C1896 C1897 1.386 . S
C1896 C1898 1.391 . S
C1897 C1896 1.386 . S
C1897 C1901 1.393 . S
C1898 H1890 0.950 . S
C1898 C1896 1.391 . S
C1898 C1899 1.400 . S
C1899 C1898 1.400 . S
C1899 C1900 1.398 . S
C1899 C1905 1.491 . S
C1900 H1891 0.950 . S
C1900 C1899 1.398 . S
C1900 C1901 1.391 . S
C1901 H1889 0.950 . S
C1901 C1897 1.393 . S
C1901 C1900 1.391 . S
C1902 H1892 0.950 . S
C1902 C1903 1.386 . S
C1902 C1904 1.391 . S
C1903 C1902 1.386 . S
C1903 C1907 1.393 . S
C1904 H1893 0.950 . S
C1904 C1902 1.391 . S
C1904 C1905 1.400 . S
C1905 C1899 1.491 . S
C1905 C1904 1.400 . S
C1905 C1906 1.398 . S
C1906 H1894 0.950 . S
C1906 C1905 1.398 . S
C1906 C1907 1.391 . S
C1907 H1895 0.950 . S
C1907 C1903 1.393 . S
C1907 C1906 1.391 . S
H1908 C1916 0.950 . S
H1909 C1921 0.950 . S
H1910 C1918 0.950 . S
H1911 C1920 0.950 . S
H1912 C1922 0.950 . S
H1913 C1924 0.950 . S
H1914 C1926 0.950 . S
H1915 C1927 0.950 . S
C1916 H1908 0.950 . S
C1916 C1917 1.386 . S
C1916 C1918 1.391 . S
C1917 C1916 1.386 . S
C1917 C1921 1.393 . S
C1918 H1910 0.950 . S
C1918 C1916 1.391 . S
C1918 C1919 1.400 . S
C1919 C1918 1.400 . S
C1919 C1920 1.398 . S
C1919 C1925 1.491 1_556 S
C1920 H1911 0.950 . S
C1920 C1919 1.398 . S
C1920 C1921 1.391 . S
C1921 H1909 0.950 . S
C1921 C1917 1.393 . S
C1921 C1920 1.391 . S
C1922 H1912 0.950 . S
C1922 C1923 1.386 . S
C1922 C1924 1.391 . S
C1923 C1922 1.386 . S
C1923 C1927 1.393 . S
C1924 H1913 0.950 . S
C1924 C1922 1.391 . S
C1924 C1925 1.400 . S
C1925 C1919 1.491 1_554 S
C1925 C1924 1.400 . S
C1925 C1926 1.398 . S
C1926 H1914 0.950 . S
C1926 C1925 1.398 . S
C1926 C1927 1.391 . S
C1927 H1915 0.950 . S
C1927 C1923 1.393 . S
C1927 C1926 1.391 . S
H1928 C1936 0.950 . S
H1929 C1941 0.950 . S
H1930 C1938 0.950 . S
H1931 C1940 0.950 . S
H1932 C1942 0.950 . S
H1933 C1944 0.950 . S
H1934 C1946 0.950 . S
H1935 C1947 0.950 . S
C1936 H1928 0.950 . S
C1936 C1937 1.386 . S
C1936 C1938 1.391 . S
C1937 C1936 1.386 . S
C1937 C1941 1.393 . S
C1938 H1930 0.950 . S
C1938 C1936 1.391 . S
C1938 C1939 1.400 . S
C1939 C1938 1.400 . S
C1939 C1940 1.398 . S
C1939 C1945 1.491 . S
C1940 H1931 0.950 . S
C1940 C1939 1.398 . S
C1940 C1941 1.391 . S
C1941 H1929 0.950 . S
C1941 C1937 1.393 . S
C1941 C1940 1.391 . S
C1942 H1932 0.950 . S
C1942 C1943 1.386 . S
C1942 C1944 1.391 . S
C1943 C1942 1.386 . S
C1943 C1947 1.393 . S
C1944 H1933 0.950 . S
C1944 C1942 1.391 . S
C1944 C1945 1.400 . S
C1945 C1939 1.491 . S
C1945 C1944 1.400 . S
C1945 C1946 1.398 . S
C1946 H1934 0.950 . S
C1946 C1945 1.398 . S
C1946 C1947 1.391 . S
C1947 H1935 0.950 . S
C1947 C1943 1.393 . S
C1947 C1946 1.391 . S
H1948 C1956 0.950 . S
H1949 C1961 0.950 . S
H1950 C1958 0.950 . S
H1951 C1960 0.950 . S
H1952 C1962 0.950 . S
H1953 C1964 0.950 . S
H1954 C1966 0.950 . S
H1955 C1967 0.950 . S
C1956 H1948 0.950 . S
C1956 C1957 1.386 . S
C1956 C1958 1.391 . S
C1957 C1956 1.386 . S
C1957 C1961 1.393 . S
C1958 H1950 0.950 . S
C1958 C1956 1.391 . S
C1958 C1959 1.400 . S
C1959 C1958 1.400 . S
C1959 C1960 1.398 . S
C1959 C1965 1.491 . S
C1960 H1951 0.950 . S
C1960 C1959 1.398 . S
C1960 C1961 1.391 . S
C1961 H1949 0.950 . S
C1961 C1957 1.393 . S
C1961 C1960 1.391 . S
C1962 H1952 0.950 . S
C1962 C1963 1.386 . S
C1962 C1964 1.391 . S
C1963 C1962 1.386 . S
C1963 C1967 1.393 . S
C1964 H1953 0.950 . S
C1964 C1962 1.391 . S
C1964 C1965 1.400 . S
C1965 C1959 1.491 . S
C1965 C1964 1.400 . S
C1965 C1966 1.398 . S
C1966 H1954 0.950 . S
C1966 C1965 1.398 . S
C1966 C1967 1.391 . S
C1967 H1955 0.950 . S
C1967 C1963 1.393 . S
C1967 C1966 1.391 . S
H1968 C1976 0.950 . S
H1969 C1981 0.950 . S
H1970 C1978 0.950 . S
H1971 C1980 0.950 . S
H1972 C1982 0.950 . S
H1973 C1984 0.950 . S
H1974 C1986 0.950 . S
H1975 C1987 0.950 . S
C1976 H1968 0.950 . S
C1976 C1977 1.386 . S
C1976 C1978 1.391 . S
C1977 C1976 1.386 . S
C1977 C1981 1.393 . S
C1978 H1970 0.950 . S
C1978 C1976 1.391 . S
C1978 C1979 1.400 . S
C1979 C1978 1.400 . S
C1979 C1980 1.398 . S
C1979 C1985 1.491 . S
C1980 H1971 0.950 . S
C1980 C1979 1.398 . S
C1980 C1981 1.391 . S
C1981 H1969 0.950 . S
C1981 C1977 1.393 . S
C1981 C1980 1.391 . S
C1982 H1972 0.950 . S
C1982 C1983 1.386 . S
C1982 C1984 1.391 . S
C1983 C1982 1.386 . S
C1983 C1987 1.393 . S
C1984 H1973 0.950 . S
C1984 C1982 1.391 . S
C1984 C1985 1.400 . S
C1985 C1979 1.491 . S
C1985 C1984 1.400 . S
C1985 C1986 1.398 . S
C1986 H1974 0.950 . S
C1986 C1985 1.398 . S
C1986 C1987 1.391 . S
C1987 H1975 0.950 . S
C1987 C1983 1.393 . S
C1987 C1986 1.391 . S
H1988 C1996 0.950 . S
H1989 C2001 0.950 . S
H1990 C1998 0.950 . S
H1991 C2000 0.950 . S
H1992 C2002 0.950 . S
H1993 C2004 0.950 . S
H1994 C2006 0.950 . S
H1995 C2007 0.950 . S
C1996 H1988 0.950 . S
C1996 C1997 1.386 . S
C1996 C1998 1.391 . S
C1997 C1996 1.386 . S
C1997 C2001 1.393 . S
C1998 H1990 0.950 . S
C1998 C1996 1.391 . S
C1998 C1999 1.400 . S
C1999 C1998 1.400 . S
C1999 C2000 1.398 . S
C1999 C2005 1.491 1_556 S
C2000 H1991 0.950 . S
C2000 C1999 1.398 . S
C2000 C2001 1.391 . S
C2001 H1989 0.950 . S
C2001 C1997 1.393 . S
C2001 C2000 1.391 . S
C2002 H1992 0.950 . S
C2002 C2003 1.386 . S
C2002 C2004 1.391 . S
C2003 C2002 1.386 . S
C2003 C2007 1.393 . S
C2004 H1993 0.950 . S
C2004 C2002 1.391 . S
C2004 C2005 1.400 . S
C2005 C1999 1.491 1_554 S
C2005 C2004 1.400 . S
C2005 C2006 1.398 . S
C2006 H1994 0.950 . S
C2006 C2005 1.398 . S
C2006 C2007 1.391 . S
C2007 H1995 0.950 . S
C2007 C2003 1.393 . S
C2007 C2006 1.391 . S
H2008 C2016 0.950 . S
H2009 C2021 0.950 . S
H2010 C2018 0.950 . S
H2011 C2020 0.950 . S
H2012 C2022 0.950 . S
H2013 C2024 0.950 . S
H2014 C2026 0.950 . S
H2015 C2027 0.950 . S
C2016 H2008 0.950 . S
C2016 C2017 1.386 . S
C2016 C2018 1.391 . S
C2017 C2016 1.386 . S
C2017 C2021 1.393 . S
C2018 H2010 0.950 . S
C2018 C2016 1.391 . S
C2018 C2019 1.400 . S
C2019 C2018 1.400 . S
C2019 C2020 1.398 . S
C2019 C2025 1.491 . S
C2020 H2011 0.950 . S
C2020 C2019 1.398 . S
C2020 C2021 1.391 . S
C2021 H2009 0.950 . S
C2021 C2017 1.393 . S
C2021 C2020 1.391 . S
C2022 H2012 0.950 . S
C2022 C2023 1.386 . S
C2022 C2024 1.391 . S
C2023 C2022 1.386 . S
C2023 C2027 1.393 . S
C2024 H2013 0.950 . S
C2024 C2022 1.391 . S
C2024 C2025 1.400 . S
C2025 C2019 1.491 . S
C2025 C2024 1.400 . S
C2025 C2026 1.398 . S
C2026 H2014 0.950 . S
C2026 C2025 1.398 . S
C2026 C2027 1.391 . S
C2027 H2015 0.950 . S
C2027 C2023 1.393 . S
C2027 C2026 1.391 . S
H2028 C2036 0.950 . S
H2029 C2041 0.950 . S
H2030 C2038 0.950 . S
H2031 C2040 0.950 . S
H2032 C2042 0.950 . S
H2033 C2044 0.950 . S
H2034 C2046 0.950 . S
H2035 C2047 0.950 . S
C2036 H2028 0.950 . S
C2036 C2037 1.386 . S
C2036 C2038 1.391 . S
C2037 C2036 1.386 . S
C2037 C2041 1.393 . S
C2038 H2030 0.950 . S
C2038 C2036 1.391 . S
C2038 C2039 1.400 . S
C2039 C2038 1.400 . S
C2039 C2040 1.398 . S
C2039 C2045 1.491 . S
C2040 H2031 0.950 . S
C2040 C2039 1.398 . S
C2040 C2041 1.391 . S
C2041 H2029 0.950 . S
C2041 C2037 1.393 . S
C2041 C2040 1.391 . S
C2042 H2032 0.950 . S
C2042 C2043 1.386 . S
C2042 C2044 1.391 . S
C2043 C2042 1.386 . S
C2043 C2047 1.393 . S
C2044 H2033 0.950 . S
C2044 C2042 1.391 . S
C2044 C2045 1.400 . S
C2045 C2039 1.491 . S
C2045 C2044 1.400 . S
C2045 C2046 1.398 . S
C2046 H2034 0.950 . S
C2046 C2045 1.398 . S
C2046 C2047 1.391 . S
C2047 H2035 0.950 . S
C2047 C2043 1.393 . S
C2047 C2046 1.391 . S
H2048 C2056 0.950 . S
H2049 C2061 0.950 . S
H2050 C2058 0.950 . S
H2051 C2060 0.950 . S
H2052 C2062 0.950 . S
H2053 C2064 0.950 . S
H2054 C2066 0.950 . S
H2055 C2067 0.950 . S
C2056 H2048 0.950 . S
C2056 C2057 1.386 . S
C2056 C2058 1.391 . S
C2057 C2056 1.386 . S
C2057 C2061 1.393 . S
C2058 H2050 0.950 . S
C2058 C2056 1.391 . S
C2058 C2059 1.400 . S
C2059 C2058 1.400 . S
C2059 C2060 1.398 . S
C2059 C2065 1.491 . S
C2060 H2051 0.950 . S
C2060 C2059 1.398 . S
C2060 C2061 1.391 . S
C2061 H2049 0.950 . S
C2061 C2057 1.393 . S
C2061 C2060 1.391 . S
C2062 H2052 0.950 . S
C2062 C2063 1.386 . S
C2062 C2064 1.391 . S
C2063 C2062 1.386 . S
C2063 C2067 1.393 . S
C2064 H2053 0.950 . S
C2064 C2062 1.391 . S
C2064 C2065 1.400 . S
C2065 C2059 1.491 . S
C2065 C2064 1.400 . S
C2065 C2066 1.398 . S
C2066 H2054 0.950 . S
C2066 C2065 1.398 . S
C2066 C2067 1.391 . S
C2067 H2055 0.950 . S
C2067 C2063 1.393 . S
C2067 C2066 1.391 . S
H2068 C2076 0.937 1_565 S
H2069 C2081 0.950 . S
H2070 C2078 0.950 . S
H2071 C2080 0.950 . S
H2072 C2082 0.950 . S
H2073 C2084 0.950 . S
H2074 C2086 0.950 . S
H2075 C2087 0.950 . S
C2076 H2068 0.937 1_545 S
C2076 C2077 1.386 . S
C2076 C2078 1.391 . S
C2077 C2076 1.386 . S
C2077 C2081 1.393 . S
C2078 H2070 0.950 . S
C2078 C2076 1.391 . S
C2078 C2079 1.400 . S
C2079 C2078 1.400 . S
C2079 C2080 1.398 . S
C2079 C2085 1.491 . S
C2080 H2071 0.950 . S
C2080 C2079 1.398 . S
C2080 C2081 1.391 . S
C2081 H2069 0.950 . S
C2081 C2077 1.393 . S
C2081 C2080 1.391 . S
C2082 H2072 0.950 . S
C2082 C2083 1.386 . S
C2082 C2084 1.391 . S
C2083 C2082 1.386 . S
C2083 C2087 1.393 . S
C2084 H2073 0.950 . S
C2084 C2082 1.391 . S
C2084 C2085 1.400 . S
C2085 C2079 1.491 . S
C2085 C2084 1.400 . S
C2085 C2086 1.398 . S
C2086 H2074 0.950 . S
C2086 C2085 1.398 . S
C2086 C2087 1.391 . S
C2087 H2075 0.950 . S
C2087 C2083 1.393 . S
C2087 C2086 1.391 . S
H2088 C2096 0.950 . S
H2089 C2101 0.950 . S
H2090 C2098 0.950 . S
H2091 C2100 0.950 . S
H2092 C2102 0.950 . S
H2093 C2104 0.950 . S
H2094 C2106 0.950 . S
H2095 C2107 0.950 . S
C2096 H2088 0.950 . S
C2096 C2097 1.386 . S
C2096 C2098 1.391 . S
C2097 C2096 1.386 . S
C2097 C2101 1.393 . S
C2098 H2090 0.950 . S
C2098 C2096 1.391 . S
C2098 C2099 1.400 . S
C2099 C2098 1.400 . S
C2099 C2100 1.398 . S
C2099 C2105 1.491 . S
C2100 H2091 0.950 . S
C2100 C2099 1.398 . S
C2100 C2101 1.391 . S
C2101 H2089 0.950 . S
C2101 C2097 1.393 . S
C2101 C2100 1.391 . S
C2102 H2092 0.950 . S
C2102 C2103 1.386 . S
C2102 C2104 1.391 . S
C2103 C2102 1.386 . S
C2103 C2107 1.393 . S
C2104 H2093 0.950 . S
C2104 C2102 1.391 . S
C2104 C2105 1.400 . S
C2105 C2099 1.491 . S
C2105 C2104 1.400 . S
C2105 C2106 1.398 . S
C2106 H2094 0.950 . S
C2106 C2105 1.398 . S
C2106 C2107 1.391 . S
C2107 H2095 0.950 . S
C2107 C2103 1.393 . S
C2107 C2106 1.391 . S
H2108 C2116 0.950 . S
H2109 C2121 0.950 . S
H2110 C2118 0.950 . S
H2111 C2120 0.950 . S
H2112 C2122 0.950 . S
H2113 C2124 0.950 . S
H2114 C2126 0.950 . S
H2115 C2127 0.950 . S
C2116 H2108 0.950 . S
C2116 C2117 1.386 . S
C2116 C2118 1.391 . S
C2117 C2116 1.386 . S
C2117 C2121 1.393 . S
C2118 H2110 0.950 . S
C2118 C2116 1.391 . S
C2118 C2119 1.400 . S
C2119 C2118 1.400 . S
C2119 C2120 1.398 . S
C2119 C2125 1.491 . S
C2120 H2111 0.950 . S
C2120 C2119 1.398 . S
C2120 C2121 1.391 . S
C2121 H2109 0.950 . S
C2121 C2117 1.393 . S
C2121 C2120 1.391 . S
C2122 H2112 0.950 . S
C2122 C2123 1.386 . S
C2122 C2124 1.391 . S
C2123 C2122 1.386 . S
C2123 C2127 1.393 . S
C2124 H2113 0.950 . S
C2124 C2122 1.391 . S
C2124 C2125 1.400 . S
C2125 C2119 1.491 . S
C2125 C2124 1.400 . S
C2125 C2126 1.398 . S
C2126 H2114 0.950 . S
C2126 C2125 1.398 . S
C2126 C2127 1.391 . S
C2127 H2115 0.950 . S
C2127 C2123 1.393 . S
C2127 C2126 1.391 . S
H2128 C2136 0.950 . S
H2129 C2141 0.950 . S
H2130 C2138 0.950 . S
H2131 C2140 0.950 . S
H2132 C2142 0.950 . S
H2133 C2144 0.950 . S
H2134 C2146 0.950 . S
H2135 C2147 0.950 . S
C2136 H2128 0.950 . S
C2136 C2137 1.386 . S
C2136 C2138 1.391 . S
C2137 C2136 1.386 . S
C2137 C2141 1.393 . S
C2138 H2130 0.950 . S
C2138 C2136 1.391 . S
C2138 C2139 1.400 . S
C2139 C2138 1.400 . S
C2139 C2140 1.398 . S
C2139 C2145 1.491 . S
C2140 H2131 0.950 . S
C2140 C2139 1.398 . S
C2140 C2141 1.391 . S
C2141 H2129 0.950 . S
C2141 C2137 1.393 . S
C2141 C2140 1.391 . S
C2142 H2132 0.950 . S
C2142 C2143 1.386 . S
C2142 C2144 1.391 . S
C2143 C2142 1.386 . S
C2143 C2147 1.393 . S
C2144 H2133 0.950 . S
C2144 C2142 1.391 . S
C2144 C2145 1.400 . S
C2145 C2139 1.491 . S
C2145 C2144 1.400 . S
C2145 C2146 1.398 . S
C2146 H2134 0.950 . S
C2146 C2145 1.398 . S
C2146 C2147 1.391 . S
C2147 H2135 0.950 . S
C2147 C2143 1.393 . S
C2147 C2146 1.391 . S
H2148 C2156 0.950 . S
H2149 C2161 0.950 1_545 S
H2150 C2158 0.950 . S
H2151 C2160 0.950 . S
H2152 C2162 0.950 . S
H2153 C2164 0.950 . S
H2154 C2166 0.950 . S
H2155 C2167 0.950 . S
C2156 H2148 0.950 . S
C2156 C2157 1.386 . S
C2156 C2158 1.391 . S
C2157 C2156 1.386 . S
C2157 C2161 1.393 . S
C2158 H2150 0.950 . S
C2158 C2156 1.391 . S
C2158 C2159 1.400 . S
C2159 C2158 1.400 . S
C2159 C2160 1.398 . S
C2159 C2165 1.491 . S
C2160 H2151 0.950 . S
C2160 C2159 1.398 . S
C2160 C2161 1.391 . S
C2161 H2149 0.950 1_565 S
C2161 C2157 1.393 . S
C2161 C2160 1.391 . S
C2162 H2152 0.950 . S
C2162 C2163 1.386 . S
C2162 C2164 1.391 . S
C2163 C2162 1.386 . S
C2163 C2167 1.393 . S
C2164 H2153 0.950 . S
C2164 C2162 1.391 . S
C2164 C2165 1.400 . S
C2165 C2159 1.491 . S
C2165 C2164 1.400 . S
C2165 C2166 1.398 . S
C2166 H2154 0.950 . S
C2166 C2165 1.398 . S
C2166 C2167 1.391 . S
C2167 H2155 0.950 . S
C2167 C2163 1.393 . S
C2167 C2166 1.391 . S
H2168 C2176 0.950 1_565 S
H2169 C2181 0.950 . S
H2170 C2178 0.950 . S
H2171 C2180 0.950 . S
H2172 C2182 0.950 . S
H2173 C2184 0.950 . S
H2174 C2186 0.950 . S
H2175 C2187 0.950 . S
C2176 H2168 0.950 1_545 S
C2176 C2177 1.386 . S
C2176 C2178 1.391 . S
C2177 C2176 1.386 . S
C2177 C2181 1.393 . S
C2178 H2170 0.950 . S
C2178 C2176 1.391 . S
C2178 C2179 1.400 . S
C2179 C2178 1.400 . S
C2179 C2180 1.398 . S
C2179 C2185 1.491 . S
C2180 H2171 0.950 . S
C2180 C2179 1.398 . S
C2180 C2181 1.391 . S
C2181 H2169 0.950 . S
C2181 C2177 1.393 . S
C2181 C2180 1.391 . S
C2182 H2172 0.950 . S
C2182 C2183 1.386 . S
C2182 C2184 1.391 . S
C2183 C2182 1.386 . S
C2183 C2187 1.393 . S
C2184 H2173 0.950 . S
C2184 C2182 1.391 . S
C2184 C2185 1.400 . S
C2185 C2179 1.491 . S
C2185 C2184 1.400 . S
C2185 C2186 1.398 . S
C2186 H2174 0.950 . S
C2186 C2185 1.398 . S
C2186 C2187 1.391 . S
C2187 H2175 0.950 . S
C2187 C2183 1.393 . S
C2187 C2186 1.391 . S
H2188 C2196 0.950 . S
H2189 C2201 0.950 1_565 S
H2190 C2198 0.950 . S
H2191 C2200 0.950 . S
H2192 C2202 0.950 . S
H2193 C2204 0.950 . S
H2194 C2206 0.950 . S
H2195 C2207 0.950 . S
C2196 H2188 0.950 . S
C2196 C2197 1.386 . S
C2196 C2198 1.391 . S
C2197 C2196 1.386 . S
C2197 C2201 1.393 . S
C2198 H2190 0.950 . S
C2198 C2196 1.391 . S
C2198 C2199 1.400 . S
C2199 C2198 1.400 . S
C2199 C2200 1.398 . S
C2199 C2205 1.491 . S
C2200 H2191 0.950 . S
C2200 C2199 1.398 . S
C2200 C2201 1.391 . S
C2201 H2189 0.950 1_545 S
C2201 C2197 1.393 . S
C2201 C2200 1.391 . S
C2202 H2192 0.950 . S
C2202 C2203 1.386 . S
C2202 C2204 1.391 . S
C2203 C2202 1.386 . S
C2203 C2207 1.393 . S
C2204 H2193 0.950 . S
C2204 C2202 1.391 . S
C2204 C2205 1.400 . S
C2205 C2199 1.491 . S
C2205 C2204 1.400 . S
C2205 C2206 1.398 . S
C2206 H2194 0.950 . S
C2206 C2205 1.398 . S
C2206 C2207 1.391 . S
C2207 H2195 0.950 . S
C2207 C2203 1.393 . S
C2207 C2206 1.391 . S
H2208 C2216 0.950 . S
H2209 C2221 0.950 . S
H2210 C2218 0.950 . S
H2211 C2220 0.950 . S
H2212 C2222 0.950 . S
H2213 C2224 0.950 . S
H2214 C2226 0.950 . S
H2215 C2227 0.950 . S
C2216 H2208 0.950 . S
C2216 C2217 1.386 . S
C2216 C2218 1.391 . S
C2217 C2216 1.386 . S
C2217 C2221 1.393 . S
C2218 H2210 0.950 . S
C2218 C2216 1.391 . S
C2218 C2219 1.400 . S
C2219 C2218 1.400 . S
C2219 C2220 1.398 . S
C2219 C2225 1.491 . S
C2220 H2211 0.950 . S
C2220 C2219 1.398 . S
C2220 C2221 1.391 . S
C2221 H2209 0.950 . S
C2221 C2217 1.393 . S
C2221 C2220 1.391 . S
C2222 H2212 0.950 . S
C2222 C2223 1.386 . S
C2222 C2224 1.391 . S
C2223 C2222 1.386 . S
C2223 C2227 1.393 . S
C2224 H2213 0.950 . S
C2224 C2222 1.391 . S
C2224 C2225 1.400 . S
C2225 C2219 1.491 . S
C2225 C2224 1.400 . S
C2225 C2226 1.398 . S
C2226 H2214 0.950 . S
C2226 C2225 1.398 . S
C2226 C2227 1.391 . S
C2227 H2215 0.950 . S
C2227 C2223 1.393 . S
C2227 C2226 1.391 . S
H2228 C2236 0.950 . S
H2229 C2241 0.950 . S
H2230 C2238 0.950 . S
H2231 C2240 0.950 . S
H2232 C2242 0.950 . S
H2233 C2244 0.950 . S
H2234 C2246 0.950 . S
H2235 C2247 0.950 . S
C2236 H2228 0.950 . S
C2236 C2237 1.386 . S
C2236 C2238 1.391 . S
C2237 C2236 1.386 . S
C2237 C2241 1.393 . S
C2238 H2230 0.950 . S
C2238 C2236 1.391 . S
C2238 C2239 1.400 . S
C2239 C2238 1.400 . S
C2239 C2240 1.398 . S
C2239 C2245 1.491 . S
C2240 H2231 0.950 . S
C2240 C2239 1.398 . S
C2240 C2241 1.391 . S
C2241 H2229 0.950 . S
C2241 C2237 1.393 . S
C2241 C2240 1.391 . S
C2242 H2232 0.950 . S
C2242 C2243 1.386 . S
C2242 C2244 1.391 . S
C2243 C2242 1.386 . S
C2243 C2247 1.393 . S
C2244 H2233 0.950 . S
C2244 C2242 1.391 . S
C2244 C2245 1.400 . S
C2245 C2239 1.491 . S
C2245 C2244 1.400 . S
C2245 C2246 1.398 . S
C2246 H2234 0.950 . S
C2246 C2245 1.398 . S
C2246 C2247 1.391 . S
C2247 H2235 0.950 . S
C2247 C2243 1.393 . S
C2247 C2246 1.391 . S
H2248 C2256 0.950 . S
H2249 C2261 0.950 . S
H2250 C2258 0.950 . S
H2251 C2260 0.950 . S
H2252 C2262 0.950 . S
H2253 C2264 0.950 . S
H2254 C2266 0.950 . S
H2255 C2267 0.950 . S
C2256 H2248 0.950 . S
C2256 C2257 1.386 . S
C2256 C2258 1.391 . S
C2257 C2256 1.386 . S
C2257 C2261 1.393 . S
C2258 H2250 0.950 . S
C2258 C2256 1.391 . S
C2258 C2259 1.400 . S
C2259 C2258 1.400 . S
C2259 C2260 1.398 . S
C2259 C2265 1.491 . S
C2260 H2251 0.950 . S
C2260 C2259 1.398 . S
C2260 C2261 1.391 . S
C2261 H2249 0.950 . S
C2261 C2257 1.393 . S
C2261 C2260 1.391 . S
C2262 H2252 0.950 . S
C2262 C2263 1.386 . S
C2262 C2264 1.391 . S
C2263 C2262 1.386 . S
C2263 C2267 1.393 . S
C2264 H2253 0.950 . S
C2264 C2262 1.391 . S
C2264 C2265 1.400 . S
C2265 C2259 1.491 . S
C2265 C2264 1.400 . S
C2265 C2266 1.398 . S
C2266 H2254 0.950 . S
C2266 C2265 1.398 . S
C2266 C2267 1.391 . S
C2267 H2255 0.950 . S
C2267 C2263 1.393 . S
C2267 C2266 1.391 . S
H2268 C2276 0.950 . S
H2269 C2281 0.950 . S
H2270 C2278 0.950 . S
H2271 C2280 0.950 . S
H2272 C2282 0.950 . S
H2273 C2284 0.950 . S
H2274 C2286 0.950 . S
H2275 C2287 0.950 . S
C2276 H2268 0.950 . S
C2276 C2277 1.386 . S
C2276 C2278 1.391 . S
C2277 C2276 1.386 . S
C2277 C2281 1.393 . S
C2278 H2270 0.950 . S
C2278 C2276 1.391 . S
C2278 C2279 1.400 . S
C2279 C2278 1.400 . S
C2279 C2280 1.398 . S
C2279 C2285 1.491 . S
C2280 H2271 0.950 . S
C2280 C2279 1.398 . S
C2280 C2281 1.391 . S
C2281 H2269 0.950 . S
C2281 C2277 1.393 . S
C2281 C2280 1.391 . S
C2282 H2272 0.950 . S
C2282 C2283 1.386 . S
C2282 C2284 1.391 . S
C2283 C2282 1.386 . S
C2283 C2287 1.393 . S
C2284 H2273 0.950 . S
C2284 C2282 1.391 . S
C2284 C2285 1.400 . S
C2285 C2279 1.491 . S
C2285 C2284 1.400 . S
C2285 C2286 1.398 . S
C2286 H2274 0.950 . S
C2286 C2285 1.398 . S
C2286 C2287 1.391 . S
C2287 H2275 0.950 . S
C2287 C2283 1.393 . S
C2287 C2286 1.391 . S
H2288 C2296 0.950 . S
H2289 C2301 0.950 . S
H2290 C2298 0.950 . S
H2291 C2300 0.950 . S
H2292 C2302 0.950 . S
H2293 C2304 0.950 . S
H2294 C2306 0.950 . S
H2295 C2307 0.950 . S
C2296 H2288 0.950 . S
C2296 C2297 1.386 . S
C2296 C2298 1.391 . S
C2297 C2296 1.386 . S
C2297 C2301 1.393 . S
C2298 H2290 0.950 . S
C2298 C2296 1.391 . S
C2298 C2299 1.400 . S
C2299 C2298 1.400 . S
C2299 C2300 1.398 . S
C2299 C2305 1.491 . S
C2300 H2291 0.950 . S
C2300 C2299 1.398 . S
C2300 C2301 1.391 . S
C2301 H2289 0.950 . S
C2301 C2297 1.393 . S
C2301 C2300 1.391 . S
C2302 H2292 0.950 . S
C2302 C2303 1.386 . S
C2302 C2304 1.391 . S
C2303 C2302 1.386 . S
C2303 C2307 1.393 . S
C2304 H2293 0.950 . S
C2304 C2302 1.391 . S
C2304 C2305 1.400 . S
C2305 C2299 1.491 . S
C2305 C2304 1.400 . S
C2305 C2306 1.398 . S
C2306 H2294 0.950 . S
C2306 C2305 1.398 . S
C2306 C2307 1.391 . S
C2307 H2295 0.950 . S
C2307 C2303 1.393 . S
C2307 C2306 1.391 . S
H2308 C2316 0.950 . S
H2309 C2321 0.950 . S
H2310 C2318 0.950 . S
H2311 C2320 0.950 . S
H2312 C2322 0.950 . S
H2313 C2324 0.950 . S
H2314 C2326 0.950 . S
H2315 C2327 0.950 . S
C2316 H2308 0.950 . S
C2316 C2317 1.386 . S
C2316 C2318 1.391 . S
C2317 C2316 1.386 . S
C2317 C2321 1.393 . S
C2318 H2310 0.950 . S
C2318 C2316 1.391 . S
C2318 C2319 1.400 . S
C2319 C2318 1.400 . S
C2319 C2320 1.398 . S
C2319 C2325 1.491 . S
C2320 H2311 0.950 . S
C2320 C2319 1.398 . S
C2320 C2321 1.391 . S
C2321 H2309 0.950 . S
C2321 C2317 1.393 . S
C2321 C2320 1.391 . S
C2322 H2312 0.950 . S
C2322 C2323 1.386 . S
C2322 C2324 1.391 . S
C2323 C2322 1.386 . S
C2323 C2327 1.393 . S
C2324 H2313 0.950 . S
C2324 C2322 1.391 . S
C2324 C2325 1.400 . S
C2325 C2319 1.491 . S
C2325 C2324 1.400 . S
C2325 C2326 1.398 . S
C2326 H2314 0.950 . S
C2326 C2325 1.398 . S
C2326 C2327 1.391 . S
C2327 H2315 0.950 . S
C2327 C2323 1.393 . S
C2327 C2326 1.391 . S
H2328 C2336 0.950 . S
H2329 C2341 0.950 . S
H2330 C2338 0.950 . S
H2331 C2340 0.950 . S
H2332 C2342 0.950 . S
H2333 C2344 0.950 . S
H2334 C2346 0.950 . S
H2335 C2347 0.950 . S
C2336 H2328 0.950 . S
C2336 C2337 1.386 . S
C2336 C2338 1.391 . S
C2337 C2336 1.386 . S
C2337 C2341 1.393 . S
C2338 H2330 0.950 . S
C2338 C2336 1.391 . S
C2338 C2339 1.400 . S
C2339 C2338 1.400 . S
C2339 C2340 1.398 . S
C2339 C2345 1.491 . S
C2340 H2331 0.950 . S
C2340 C2339 1.398 . S
C2340 C2341 1.391 . S
C2341 H2329 0.950 . S
C2341 C2337 1.393 . S
C2341 C2340 1.391 . S
C2342 H2332 0.950 . S
C2342 C2343 1.386 . S
C2342 C2344 1.391 . S
C2343 C2342 1.386 . S
C2343 C2347 1.393 . S
C2344 H2333 0.950 . S
C2344 C2342 1.391 . S
C2344 C2345 1.400 . S
C2345 C2339 1.491 . S
C2345 C2344 1.400 . S
C2345 C2346 1.398 . S
C2346 H2334 0.950 . S
C2346 C2345 1.398 . S
C2346 C2347 1.391 . S
C2347 H2335 0.950 . S
C2347 C2343 1.393 . S
C2347 C2346 1.391 . S
H2348 C2356 0.950 . S
H2349 C2361 0.950 . S
H2350 C2358 0.950 . S
H2351 C2360 0.950 . S
H2352 C2362 0.950 . S
H2353 C2364 0.950 . S
H2354 C2366 0.950 . S
H2355 C2367 0.950 . S
C2356 H2348 0.950 . S
C2356 C2357 1.386 . S
C2356 C2358 1.391 . S
C2357 C2356 1.386 . S
C2357 C2361 1.393 . S
C2358 H2350 0.950 . S
C2358 C2356 1.391 . S
C2358 C2359 1.400 . S
C2359 C2358 1.400 . S
C2359 C2360 1.398 . S
C2359 C2365 1.491 . S
C2360 H2351 0.950 . S
C2360 C2359 1.398 . S
C2360 C2361 1.391 . S
C2361 H2349 0.950 . S
C2361 C2357 1.393 . S
C2361 C2360 1.391 . S
C2362 H2352 0.950 . S
C2362 C2363 1.386 . S
C2362 C2364 1.391 . S
C2363 C2362 1.386 . S
C2363 C2367 1.393 . S
C2364 H2353 0.950 . S
C2364 C2362 1.391 . S
C2364 C2365 1.400 . S
C2365 C2359 1.491 . S
C2365 C2364 1.400 . S
C2365 C2366 1.398 . S
C2366 H2354 0.950 . S
C2366 C2365 1.398 . S
C2366 C2367 1.391 . S
C2367 H2355 0.950 . S
C2367 C2363 1.393 . S
C2367 C2366 1.391 . S
H2368 C2376 0.950 . S
H2369 C2381 0.950 . S
H2370 C2378 0.950 . S
H2371 C2380 0.950 . S
H2372 C2382 0.950 . S
H2373 C2384 0.950 . S
H2374 C2386 0.950 . S
H2375 C2387 0.950 . S
C2376 H2368 0.950 . S
C2376 C2377 1.386 . S
C2376 C2378 1.391 . S
C2377 C2376 1.386 . S
C2377 C2381 1.393 . S
C2378 H2370 0.950 . S
C2378 C2376 1.391 . S
C2378 C2379 1.400 . S
C2379 C2378 1.400 . S
C2379 C2380 1.398 . S
C2379 C2385 1.491 . S
C2380 H2371 0.950 . S
C2380 C2379 1.398 . S
C2380 C2381 1.391 . S
C2381 H2369 0.950 . S
C2381 C2377 1.393 . S
C2381 C2380 1.391 . S
C2382 H2372 0.950 . S
C2382 C2383 1.386 . S
C2382 C2384 1.391 . S
C2383 C2382 1.386 . S
C2383 C2387 1.393 . S
C2384 H2373 0.950 . S
C2384 C2382 1.391 . S
C2384 C2385 1.400 . S
C2385 C2379 1.491 . S
C2385 C2384 1.400 . S
C2385 C2386 1.398 . S
C2386 H2374 0.950 . S
C2386 C2385 1.398 . S
C2386 C2387 1.391 . S
C2387 H2375 0.950 . S
C2387 C2383 1.393 . S
C2387 C2386 1.391 . S
H2388 C2396 0.950 . S
H2389 C2401 0.950 . S
H2390 C2398 0.950 . S
H2391 C2400 0.950 . S
H2392 C2402 0.950 . S
H2393 C2404 0.950 . S
H2394 C2406 0.950 . S
H2395 C2407 0.950 . S
C2396 H2388 0.950 . S
C2396 C2397 1.386 . S
C2396 C2398 1.391 . S
C2397 C2396 1.386 . S
C2397 C2401 1.393 . S
C2398 H2390 0.950 . S
C2398 C2396 1.391 . S
C2398 C2399 1.400 . S
C2399 C2398 1.400 . S
C2399 C2400 1.398 . S
C2399 C2405 1.491 1_655 S
C2400 H2391 0.950 . S
C2400 C2399 1.398 . S
C2400 C2401 1.391 . S
C2401 H2389 0.950 . S
C2401 C2397 1.393 . S
C2401 C2400 1.391 . S
C2402 H2392 0.950 . S
C2402 C2403 1.386 . S
C2402 C2404 1.391 . S
C2403 C2402 1.386 . S
C2403 C2407 1.393 . S
C2404 H2393 0.950 . S
C2404 C2402 1.391 . S
C2404 C2405 1.400 . S
C2405 C2399 1.491 1_455 S
C2405 C2404 1.400 . S
C2405 C2406 1.398 . S
C2406 H2394 0.950 . S
C2406 C2405 1.398 . S
C2406 C2407 1.391 . S
C2407 H2395 0.950 . S
C2407 C2403 1.393 . S
C2407 C2406 1.391 . S
H2408 C2416 0.950 . S
H2409 C2421 0.950 . S
H2410 C2418 0.950 . S
H2411 C2420 0.950 . S
H2412 C2422 0.950 . S
H2413 C2424 0.950 . S
H2414 C2426 0.950 . S
H2415 C2427 0.950 . S
C2416 H2408 0.950 . S
C2416 C2417 1.386 . S
C2416 C2418 1.391 . S
C2417 C2416 1.386 . S
C2417 C2421 1.393 . S
C2418 H2410 0.950 . S
C2418 C2416 1.391 . S
C2418 C2419 1.400 . S
C2419 C2418 1.400 . S
C2419 C2420 1.398 . S
C2419 C2425 1.491 . S
C2420 H2411 0.950 . S
C2420 C2419 1.398 . S
C2420 C2421 1.391 . S
C2421 H2409 0.950 . S
C2421 C2417 1.393 . S
C2421 C2420 1.391 . S
C2422 H2412 0.950 . S
C2422 C2423 1.386 . S
C2422 C2424 1.391 . S
C2423 C2422 1.386 . S
C2423 C2427 1.393 . S
C2424 H2413 0.950 . S
C2424 C2422 1.391 . S
C2424 C2425 1.400 . S
C2425 C2419 1.491 . S
C2425 C2424 1.400 . S
C2425 C2426 1.398 . S
C2426 H2414 0.950 . S
C2426 C2425 1.398 . S
C2426 C2427 1.391 . S
C2427 H2415 0.950 . S
C2427 C2423 1.393 . S
C2427 C2426 1.391 . S
H2428 C2436 0.950 . S
H2429 C2441 0.950 . S
H2430 C2438 0.950 . S
H2431 C2440 0.950 . S
H2432 C2442 0.950 . S
H2433 C2444 0.950 . S
H2434 C2446 0.950 . S
H2435 C2447 0.950 . S
C2436 H2428 0.950 . S
C2436 C2437 1.386 . S
C2436 C2438 1.391 . S
C2437 C2436 1.386 . S
C2437 C2441 1.393 . S
C2438 H2430 0.950 . S
C2438 C2436 1.391 . S
C2438 C2439 1.400 . S
C2439 C2438 1.400 . S
C2439 C2440 1.398 . S
C2439 C2445 1.491 . S
C2440 H2431 0.950 . S
C2440 C2439 1.398 . S
C2440 C2441 1.391 . S
C2441 H2429 0.950 . S
C2441 C2437 1.393 . S
C2441 C2440 1.391 . S
C2442 H2432 0.950 . S
C2442 C2443 1.386 . S
C2442 C2444 1.391 . S
C2443 C2442 1.386 . S
C2443 C2447 1.393 . S
C2444 H2433 0.950 . S
C2444 C2442 1.391 . S
C2444 C2445 1.400 . S
C2445 C2439 1.491 . S
C2445 C2444 1.400 . S
C2445 C2446 1.398 . S
C2446 H2434 0.950 . S
C2446 C2445 1.398 . S
C2446 C2447 1.391 . S
C2447 H2435 0.950 . S
C2447 C2443 1.393 . S
C2447 C2446 1.391 . S
H2448 C2456 0.950 . S
H2449 C2461 0.950 . S
H2450 C2458 0.950 . S
H2451 C2460 0.950 . S
H2452 C2462 0.950 . S
H2453 C2464 0.950 . S
H2454 C2466 0.950 . S
H2455 C2467 0.950 . S
C2456 H2448 0.950 . S
C2456 C2457 1.386 . S
C2456 C2458 1.391 . S
C2457 C2456 1.386 . S
C2457 C2461 1.393 . S
C2458 H2450 0.950 . S
C2458 C2456 1.391 . S
C2458 C2459 1.400 . S
C2459 C2458 1.400 . S
C2459 C2460 1.398 . S
C2459 C2465 1.491 . S
C2460 H2451 0.950 . S
C2460 C2459 1.398 . S
C2460 C2461 1.391 . S
C2461 H2449 0.950 . S
C2461 C2457 1.393 . S
C2461 C2460 1.391 . S
C2462 H2452 0.950 . S
C2462 C2463 1.386 . S
C2462 C2464 1.391 . S
C2463 C2462 1.386 . S
C2463 C2467 1.393 . S
C2464 H2453 0.950 . S
C2464 C2462 1.391 . S
C2464 C2465 1.400 . S
C2465 C2459 1.491 . S
C2465 C2464 1.400 . S
C2465 C2466 1.398 . S
C2466 H2454 0.950 . S
C2466 C2465 1.398 . S
C2466 C2467 1.391 . S
C2467 H2455 0.950 . S
C2467 C2463 1.393 . S
C2467 C2466 1.391 . S
H2468 C2476 0.950 . S
H2469 C2481 0.950 . S
H2470 C2478 0.950 . S
H2471 C2480 0.950 . S
H2472 C2482 0.950 . S
H2473 C2484 0.950 . S
H2474 C2486 0.950 . S
H2475 C2487 0.950 . S
C2476 H2468 0.950 . S
C2476 C2477 1.386 . S
C2476 C2478 1.391 . S
C2477 C2476 1.386 . S
C2477 C2481 1.393 . S
C2478 H2470 0.950 . S
C2478 C2476 1.391 . S
C2478 C2479 1.400 . S
C2479 C2478 1.400 . S
C2479 C2480 1.398 . S
C2479 C2485 1.491 . S
C2480 H2471 0.950 . S
C2480 C2479 1.398 . S
C2480 C2481 1.391 . S
C2481 H2469 0.950 . S
C2481 C2477 1.393 . S
C2481 C2480 1.391 . S
C2482 H2472 0.950 . S
C2482 C2483 1.386 . S
C2482 C2484 1.391 . S
C2483 C2482 1.386 . S
C2483 C2487 1.393 . S
C2484 H2473 0.950 . S
C2484 C2482 1.391 . S
C2484 C2485 1.400 . S
C2485 C2479 1.491 . S
C2485 C2484 1.400 . S
C2485 C2486 1.398 . S
C2486 H2474 0.950 . S
C2486 C2485 1.398 . S
C2486 C2487 1.391 . S
C2487 H2475 0.950 . S
C2487 C2483 1.393 . S
C2487 C2486 1.391 . S
H2488 C2496 0.950 . S
H2489 C2501 0.950 . S
H2490 C2498 0.950 . S
H2491 C2500 0.950 . S
H2492 C2502 0.950 . S
H2493 C2504 0.950 . S
H2494 C2506 0.950 . S
H2495 C2507 0.950 . S
C2496 H2488 0.950 . S
C2496 C2497 1.386 . S
C2496 C2498 1.391 . S
C2497 C2496 1.386 . S
C2497 C2501 1.393 . S
C2498 H2490 0.950 . S
C2498 C2496 1.391 . S
C2498 C2499 1.400 . S
C2499 C2498 1.400 . S
C2499 C2500 1.398 . S
C2499 C2505 1.491 . S
C2500 H2491 0.950 . S
C2500 C2499 1.398 . S
C2500 C2501 1.391 . S
C2501 H2489 0.950 . S
C2501 C2497 1.393 . S
C2501 C2500 1.391 . S
C2502 H2492 0.950 . S
C2502 C2503 1.386 . S
C2502 C2504 1.391 . S
C2503 C2502 1.386 . S
C2503 C2507 1.393 . S
C2504 H2493 0.950 . S
C2504 C2502 1.391 . S
C2504 C2505 1.400 . S
C2505 C2499 1.491 . S
C2505 C2504 1.400 . S
C2505 C2506 1.398 . S
C2506 H2494 0.950 . S
C2506 C2505 1.398 . S
C2506 C2507 1.391 . S
C2507 H2495 0.950 . S
C2507 C2503 1.393 . S
C2507 C2506 1.391 . S
H2508 C2516 0.950 . S
H2509 C2521 0.950 . S
H2510 C2518 0.950 . S
H2511 C2520 0.950 . S
H2512 C2522 0.950 . S
H2513 C2524 0.950 . S
H2514 C2526 0.950 . S
H2515 C2527 0.950 . S
C2516 H2508 0.950 . S
C2516 C2517 1.386 . S
C2516 C2518 1.391 . S
C2517 C2516 1.386 . S
C2517 C2521 1.393 . S
C2518 H2510 0.950 . S
C2518 C2516 1.391 . S
C2518 C2519 1.400 . S
C2519 C2518 1.400 . S
C2519 C2520 1.398 . S
C2519 C2525 1.491 1_455 S
C2520 H2511 0.950 . S
C2520 C2519 1.398 . S
C2520 C2521 1.391 . S
C2521 H2509 0.950 . S
C2521 C2517 1.393 . S
C2521 C2520 1.391 . S
C2522 H2512 0.950 . S
C2522 C2523 1.386 . S
C2522 C2524 1.391 . S
C2523 C2522 1.386 . S
C2523 C2527 1.393 . S
C2524 H2513 0.950 . S
C2524 C2522 1.391 . S
C2524 C2525 1.400 . S
C2525 C2519 1.491 1_655 S
C2525 C2524 1.400 . S
C2525 C2526 1.398 . S
C2526 H2514 0.950 . S
C2526 C2525 1.398 . S
C2526 C2527 1.391 . S
C2527 H2515 0.950 . S
C2527 C2523 1.393 . S
C2527 C2526 1.391 . S
H2528 C2536 0.950 . S
H2529 C2541 0.950 . S
H2530 C2538 0.950 . S
H2531 C2540 0.950 . S
H2532 C2542 0.950 . S
H2533 C2544 0.950 . S
H2534 C2546 0.950 . S
H2535 C2547 0.950 . S
C2536 H2528 0.950 . S
C2536 C2537 1.386 . S
C2536 C2538 1.391 . S
C2537 C2536 1.386 . S
C2537 C2541 1.393 . S
C2538 H2530 0.950 . S
C2538 C2536 1.391 . S
C2538 C2539 1.400 . S
C2539 C2538 1.400 . S
C2539 C2540 1.398 . S
C2539 C2545 1.491 . S
C2540 H2531 0.950 . S
C2540 C2539 1.398 . S
C2540 C2541 1.391 . S
C2541 H2529 0.950 . S
C2541 C2537 1.393 . S
C2541 C2540 1.391 . S
C2542 H2532 0.950 . S
C2542 C2543 1.386 . S
C2542 C2544 1.391 . S
C2543 C2542 1.386 . S
C2543 C2547 1.393 . S
C2544 H2533 0.950 . S
C2544 C2542 1.391 . S
C2544 C2545 1.400 . S
C2545 C2539 1.491 . S
C2545 C2544 1.400 . S
C2545 C2546 1.398 . S
C2546 H2534 0.950 . S
C2546 C2545 1.398 . S
C2546 C2547 1.391 . S
C2547 H2535 0.950 . S
C2547 C2543 1.393 . S
C2547 C2546 1.391 . S
H2548 C2556 0.950 . S
H2549 C2561 0.950 . S
H2550 C2558 0.950 . S
H2551 C2560 0.950 . S
H2552 C2562 0.950 . S
H2553 C2564 0.950 . S
H2554 C2566 0.950 . S
H2555 C2567 0.950 . S
C2556 H2548 0.950 . S
C2556 C2557 1.386 . S
C2556 C2558 1.391 . S
C2557 C2556 1.386 . S
C2557 C2561 1.393 . S
C2558 H2550 0.950 . S
C2558 C2556 1.391 . S
C2558 C2559 1.400 . S
C2559 C2558 1.400 . S
C2559 C2560 1.398 . S
C2559 C2565 1.491 . S
C2560 H2551 0.950 . S
C2560 C2559 1.398 . S
C2560 C2561 1.391 . S
C2561 H2549 0.950 . S
C2561 C2557 1.393 . S
C2561 C2560 1.391 . S
C2562 H2552 0.950 . S
C2562 C2563 1.386 . S
C2562 C2564 1.391 . S
C2563 C2562 1.386 . S
C2563 C2567 1.393 . S
C2564 H2553 0.950 . S
C2564 C2562 1.391 . S
C2564 C2565 1.400 . S
C2565 C2559 1.491 . S
C2565 C2564 1.400 . S
C2565 C2566 1.398 . S
C2566 H2554 0.950 . S
C2566 C2565 1.398 . S
C2566 C2567 1.391 . S
C2567 H2555 0.950 . S
C2567 C2563 1.393 . S
C2567 C2566 1.391 . S
H2568 C2576 0.950 . S
H2569 C2581 0.950 . S
H2570 C2578 0.950 . S
H2571 C2580 0.950 . S
H2572 C2582 0.950 . S
H2573 C2584 0.950 . S
H2574 C2586 0.950 . S
H2575 C2587 0.950 . S
C2576 H2568 0.950 . S
C2576 C2577 1.386 . S
C2576 C2578 1.391 . S
C2577 C2576 1.386 . S
C2577 C2581 1.393 . S
C2578 H2570 0.950 . S
C2578 C2576 1.391 . S
C2578 C2579 1.400 . S
C2579 C2578 1.400 . S
C2579 C2580 1.398 . S
C2579 C2585 1.491 . S
C2580 H2571 0.950 . S
C2580 C2579 1.398 . S
C2580 C2581 1.391 . S
C2581 H2569 0.950 . S
C2581 C2577 1.393 . S
C2581 C2580 1.391 . S
C2582 H2572 0.950 . S
C2582 C2583 1.386 . S
C2582 C2584 1.391 . S
C2583 C2582 1.386 . S
C2583 C2587 1.393 . S
C2584 H2573 0.950 . S
C2584 C2582 1.391 . S
C2584 C2585 1.400 . S
C2585 C2579 1.491 . S
C2585 C2584 1.400 . S
C2585 C2586 1.398 . S
C2586 H2574 0.950 . S
C2586 C2585 1.398 . S
C2586 C2587 1.391 . S
C2587 H2575 0.950 . S
C2587 C2583 1.393 . S
C2587 C2586 1.391 . S
H2588 C2596 0.950 . S
H2589 C2601 0.950 . S
H2590 C2598 0.950 . S
H2591 C2600 0.950 . S
H2592 C2602 0.950 . S
H2593 C2604 0.950 . S
H2594 C2606 0.950 . S
H2595 C2607 0.950 . S
C2596 H2588 0.950 . S
C2596 C2597 1.386 . S
C2596 C2598 1.391 . S
C2597 C2596 1.386 . S
C2597 C2601 1.393 . S
C2598 H2590 0.950 . S
C2598 C2596 1.391 . S
C2598 C2599 1.400 . S
C2599 C2598 1.400 . S
C2599 C2600 1.398 . S
C2599 C2605 1.491 . S
C2600 H2591 0.950 . S
C2600 C2599 1.398 . S
C2600 C2601 1.391 . S
C2601 H2589 0.950 . S
C2601 C2597 1.393 . S
C2601 C2600 1.391 . S
C2602 H2592 0.950 . S
C2602 C2603 1.386 . S
C2602 C2604 1.391 . S
C2603 C2602 1.386 . S
C2603 C2607 1.393 . S
C2604 H2593 0.950 . S
C2604 C2602 1.391 . S
C2604 C2605 1.400 . S
C2605 C2599 1.491 . S
C2605 C2604 1.400 . S
C2605 C2606 1.398 . S
C2606 H2594 0.950 . S
C2606 C2605 1.398 . S
C2606 C2607 1.391 . S
C2607 H2595 0.950 . S
C2607 C2603 1.393 . S
C2607 C2606 1.391 . S
H2608 C2616 0.950 . S
H2609 C2621 0.950 . S
H2610 C2618 0.950 . S
H2611 C2620 0.950 . S
H2612 C2622 0.950 . S
H2613 C2624 0.950 . S
H2614 C2626 0.950 . S
H2615 C2627 0.950 . S
C2616 H2608 0.950 . S
C2616 C2617 1.386 . S
C2616 C2618 1.391 . S
C2617 C2616 1.386 . S
C2617 C2621 1.393 . S
C2618 H2610 0.950 . S
C2618 C2616 1.391 . S
C2618 C2619 1.400 . S
C2619 C2618 1.400 . S
C2619 C2620 1.398 . S
C2619 C2625 1.491 . S
C2620 H2611 0.950 . S
C2620 C2619 1.398 . S
C2620 C2621 1.391 . S
C2621 H2609 0.950 . S
C2621 C2617 1.393 . S
C2621 C2620 1.391 . S
C2622 H2612 0.950 . S
C2622 C2623 1.386 . S
C2622 C2624 1.391 . S
C2623 C2622 1.386 . S
C2623 C2627 1.393 . S
C2624 H2613 0.950 . S
C2624 C2622 1.391 . S
C2624 C2625 1.400 . S
C2625 C2619 1.491 . S
C2625 C2624 1.400 . S
C2625 C2626 1.398 . S
C2626 H2614 0.950 . S
C2626 C2625 1.398 . S
C2626 C2627 1.391 . S
C2627 H2615 0.950 . S
C2627 C2623 1.393 . S
C2627 C2626 1.391 . S
H2628 C2636 0.950 . S
H2629 C2641 0.950 . S
H2630 C2638 0.950 . S
H2631 C2640 0.950 . S
H2632 C2642 0.950 . S
H2633 C2644 0.950 . S
H2634 C2646 0.950 . S
H2635 C2647 0.950 . S
C2636 H2628 0.950 . S
C2636 C2637 1.386 . S
C2636 C2638 1.391 . S
C2637 C2636 1.386 . S
C2637 C2641 1.393 . S
C2638 H2630 0.950 . S
C2638 C2636 1.391 . S
C2638 C2639 1.400 . S
C2639 C2638 1.400 . S
C2639 C2640 1.398 . S
C2639 C2645 1.491 1_455 S
C2640 H2631 0.950 . S
C2640 C2639 1.398 . S
C2640 C2641 1.391 . S
C2641 H2629 0.950 . S
C2641 C2637 1.393 . S
C2641 C2640 1.391 . S
C2642 H2632 0.950 . S
C2642 C2643 1.386 . S
C2642 C2644 1.391 . S
C2643 C2642 1.386 . S
C2643 C2647 1.393 . S
C2644 H2633 0.950 . S
C2644 C2642 1.391 . S
C2644 C2645 1.400 . S
C2645 C2639 1.491 1_655 S
C2645 C2644 1.400 . S
C2645 C2646 1.398 . S
C2646 H2634 0.950 . S
C2646 C2645 1.398 . S
C2646 C2647 1.391 . S
C2647 H2635 0.950 . S
C2647 C2643 1.393 . S
C2647 C2646 1.391 . S
H2648 C2656 0.950 . S
H2649 C2661 0.950 . S
H2650 C2658 0.950 . S
H2651 C2660 0.950 . S
H2652 C2662 0.950 . S
H2653 C2664 0.950 . S
H2654 C2666 0.950 . S
H2655 C2667 0.950 . S
C2656 H2648 0.950 . S
C2656 C2657 1.386 . S
C2656 C2658 1.391 . S
C2657 C2656 1.386 . S
C2657 C2661 1.393 . S
C2658 H2650 0.950 . S
C2658 C2656 1.391 . S
C2658 C2659 1.400 . S
C2659 C2658 1.400 . S
C2659 C2660 1.398 . S
C2659 C2665 1.491 1_455 S
C2660 H2651 0.950 . S
C2660 C2659 1.398 . S
C2660 C2661 1.391 . S
C2661 H2649 0.950 . S
C2661 C2657 1.393 . S
C2661 C2660 1.391 . S
C2662 H2652 0.950 . S
C2662 C2663 1.386 . S
C2662 C2664 1.391 . S
C2663 C2662 1.386 . S
C2663 C2667 1.393 . S
C2664 H2653 0.950 . S
C2664 C2662 1.391 . S
C2664 C2665 1.400 . S
C2665 C2659 1.491 1_655 S
C2665 C2664 1.400 . S
C2665 C2666 1.398 . S
C2666 H2654 0.950 . S
C2666 C2665 1.398 . S
C2666 C2667 1.391 . S
C2667 H2655 0.950 . S
C2667 C2663 1.393 . S
C2667 C2666 1.391 . S
H2668 C2676 0.950 . S
H2669 C2681 0.950 . S
H2670 C2678 0.950 . S
H2671 C2680 0.950 . S
H2672 C2682 0.950 . S
H2673 C2684 0.950 . S
H2674 C2686 0.950 . S
H2675 C2687 0.950 . S
C2676 H2668 0.950 . S
C2676 C2677 1.386 . S
C2676 C2678 1.391 . S
C2677 C2676 1.386 . S
C2677 C2681 1.393 . S
C2678 H2670 0.950 . S
C2678 C2676 1.391 . S
C2678 C2679 1.400 . S
C2679 C2678 1.400 . S
C2679 C2680 1.398 . S
C2679 C2685 1.491 . S
C2680 H2671 0.950 . S
C2680 C2679 1.398 . S
C2680 C2681 1.391 . S
C2681 H2669 0.950 . S
C2681 C2677 1.393 . S
C2681 C2680 1.391 . S
C2682 H2672 0.950 . S
C2682 C2683 1.386 . S
C2682 C2684 1.391 . S
C2683 C2682 1.386 . S
C2683 C2687 1.393 . S
C2684 H2673 0.950 . S
C2684 C2682 1.391 . S
C2684 C2685 1.400 . S
C2685 C2679 1.491 . S
C2685 C2684 1.400 . S
C2685 C2686 1.398 . S
C2686 H2674 0.950 . S
C2686 C2685 1.398 . S
C2686 C2687 1.391 . S
C2687 H2675 0.950 . S
C2687 C2683 1.393 . S
C2687 C2686 1.391 . S
C1097 C43 1.729 1_545 S
C1103 C33 1.685 . S
C1117 C67 1.693 . S
C1123 C77 1.748 . S
C1137 C101 1.682 . S
C1143 C111 1.728 1_565 S
C1157 C135 1.671 . S
C1163 C9 1.755 . S
C1177 C169 1.685 . S
C1183 C247 1.769 . S
C1197 C145 1.759 . S
C1203 C203 1.669 . S
C1217 C237 1.694 . S
C1223 C179 1.742 1_545 S
C1237 C271 1.679 . S
C1243 C213 1.751 . S
C1257 C315 1.771 . S
C1263 C305 1.683 . S
C1277 C349 1.750 . S
C1283 C339 1.681 . S
C1297 C373 1.686 . S
C1303 C383 1.729 1_545 S
C1317 C281 1.746 . S
C1323 C407 1.692 . S
C1337 C441 1.687 . S
C1343 C519 1.767 . S
C1357 C475 1.684 . S
C1363 C417 1.754 . S
C1377 C451 1.766 . S
C1383 C509 1.671 . S
C1397 C485 1.747 . S
C1403 C543 1.688 . S
C1417 C587 1.746 . S
C1423 C577 1.693 . S
C1437 C611 1.694 . S
C1443 C621 1.747 . S
C1457 C655 1.747 . S
C1463 C645 1.690 . S
C1477 C553 1.749 . S
C1483 C679 1.692 . S
C1497 C791 1.759 . S
C1503 C713 1.669 . S
C1517 C747 1.694 . S
C1523 C689 1.746 . S
C1537 C723 1.758 . S
C1543 C781 1.675 . S
C1557 C815 1.670 . S
C1563 C757 1.759 . S
C1577 C859 1.759 . S
C1583 C849 1.669 . S
C1597 C883 1.688 . S
C1603 C893 1.752 . S
C1617 C917 1.668 . S
C1623 C927 1.757 . S
C1637 C951 1.668 . S
C1643 C825 1.758 . S
C1657 C1063 1.747 . S
C1663 C985 1.690 . S
C1677 C961 1.755 . S
C1683 C1019 1.680 . S
C1697 C995 1.751 . S
C1703 C1053 1.690 . S
C1717 C1029 1.747 . S
C1723 C1087 1.690 . S
C1737 C209 0.919 . S
C1743 C5 0.906 . S
C1757 C39 0.890 . S
C1763 C243 0.903 . S
C1777 C73 0.896 . S
C1783 C141 0.913 . S
C1797 C107 0.917 . S
C1803 C175 0.916 . S
C1817 C481 0.905 . S
C1823 C277 0.891 . S
C1837 C515 0.912 . S
C1843 C311 0.895 . S
C1857 C345 0.918 . S
C1863 C413 0.914 . S
C1877 C447 0.911 . S
C1883 C379 0.919 . S
C1897 C549 0.898 . S
C1903 C753 0.890 . S
C1917 C583 0.918 . S
C1923 C787 0.904 . S
C1937 C685 0.913 . S
C1943 C617 0.896 . S
C1957 C719 0.914 . S
C1963 C651 0.918 . S
C1977 C1025 0.902 . S
C1983 C821 0.917 . S
C1997 C1059 0.918 . S
C2003 C855 0.915 . S
C2017 C957 0.918 . S
C2023 C889 0.914 . S
C2037 C991 0.896 . S
C2043 C923 0.891 . S
C2057 C172 0.760 . S
C2063 C2 0.760 . S
C2077 C36 0.763 . S
C2083 C206 0.763 . S
C2097 C70 0.756 . S
C2103 C240 0.756 . S
C2117 C104 0.761 . S
C2123 C138 0.761 . S
C2137 C444 0.764 . S
C2143 C274 0.765 . S
C2157 C308 0.772 . S
C2163 C478 0.772 . S
C2177 C512 0.749 . S
C2183 C342 0.749 . S
C2197 C376 0.764 . S
C2203 C410 0.764 . S
C2217 C546 0.751 . S
C2223 C716 0.751 . S
C2237 C750 0.739 . S
C2243 C580 0.739 . S
C2257 C784 0.761 . S
C2263 C614 0.761 . S
C2277 C648 0.766 . S
C2283 C682 0.766 . S
C2297 C818 0.753 . S
C2303 C988 0.754 . S
C2317 C1022 0.771 . S
C2323 C852 0.771 . S
C2337 C1056 0.767 . S
C2343 C886 0.767 . S
C2357 C954 0.739 . S
C2363 C920 0.739 . S
C2377 C20 1.533 . S
C2383 C1040 1.544 . S
C2397 C530 1.542 . S
C2403 C54 1.536 . S
C2417 C972 1.546 . S
C2423 C88 1.531 . S
C2437 C122 1.546 . S
C2443 C462 1.531 . S
C2457 C156 1.532 . S
C2463 C904 1.545 . S
C2477 C394 1.540 . S
C2483 C190 1.537 . S
C2497 C224 1.546 . S
C2503 C836 1.530 . S
C2517 C258 1.531 . S
C2523 C326 1.546 . S
C2537 C292 1.547 . S
C2543 C768 1.530 . S
C2557 C360 1.530 . S
C2563 C700 1.546 . S
C2577 C428 1.546 . S
C2583 C632 1.530 . S
C2597 C496 1.532 . S
C2603 C564 1.545 . S
C2617 C598 1.530 . S
C2623 C1074 1.547 . S
C2637 C1006 1.542 . S
C2643 C666 1.535 . S
C2657 C938 1.534 . S
C2663 C734 1.543 . S
C2677 C870 1.536 . S
C2683 C802 1.541 . S
