# Generated by pormake.
# Topology lcv-e, (6)-cn, num edge types: 1
# Building blocks:
#     Node 0, Type 0, BuildingBlock: MAKGUD_clean_sbu_1, # of connection points: 6
#     Node 1, Type 0, BuildingBlock: MAKGUD_clean_sbu_1, # of connection points: 6
#     Node 2, Type 0, BuildingBlock: MAKGUD_clean_sbu_1, # of connection points: 6
#     Node 3, Type 0, BuildingBlock: MAKGUD_clean_sbu_1, # of connection points: 6
#     Node 4, Type 0, BuildingBlock: MAKGUD_clean_sbu_1, # of connection points: 6
#     Node 5, Type 0, BuildingBlock: MAKGUD_clean_sbu_1, # of connection points: 6
#     Node 6, Type 0, BuildingBlock: MAKGUD_clean_sbu_1, # of connection points: 6
#     Node 7, Type 0, BuildingBlock: MAKGUD_clean_sbu_1, # of connection points: 6
#     Node 8, Type 0, BuildingBlock: MAKGUD_clean_sbu_1, # of connection points: 6
#     Node 9, Type 0, BuildingBlock: MAKGUD_clean_sbu_1, # of connection points: 6
#     Node 10, Type 0, BuildingBlock: MAKGUD_clean_sbu_1, # of connection points: 6
#     Node 11, Type 0, BuildingBlock: MAKGUD_clean_sbu_1, # of connection points: 6
#     Node 12, Type 0, BuildingBlock: MAKGUD_clean_sbu_1, # of connection points: 6
#     Node 13, Type 0, BuildingBlock: MAKGUD_clean_sbu_1, # of connection points: 6
#     Node 14, Type 0, BuildingBlock: MAKGUD_clean_sbu_1, # of connection points: 6
#     Node 15, Type 0, BuildingBlock: MAKGUD_clean_sbu_1, # of connection points: 6
#     Node 16, Type 0, BuildingBlock: MAKGUD_clean_sbu_1, # of connection points: 6
#     Node 17, Type 0, BuildingBlock: MAKGUD_clean_sbu_1, # of connection points: 6
#     Node 18, Type 0, BuildingBlock: MAKGUD_clean_sbu_1, # of connection points: 6
#     Node 19, Type 0, BuildingBlock: MAKGUD_clean_sbu_1, # of connection points: 6
#     Node 20, Type 0, BuildingBlock: MAKGUD_clean_sbu_1, # of connection points: 6
#     Node 21, Type 0, BuildingBlock: MAKGUD_clean_sbu_1, # of connection points: 6
#     Node 22, Type 0, BuildingBlock: MAKGUD_clean_sbu_1, # of connection points: 6
#     Node 23, Type 0, BuildingBlock: MAKGUD_clean_sbu_1, # of connection points: 6
#     Edge 24, Type (0, 0), BuildingBlock: XIVTED_clean_linker_0, # of connection points: 2
#     Edge 25, Type (0, 0), BuildingBlock: XIVTED_clean_linker_0, # of connection points: 2
#     Edge 26, Type (0, 0), BuildingBlock: XIVTED_clean_linker_0, # of connection points: 2
#     Edge 27, Type (0, 0), BuildingBlock: XIVTED_clean_linker_0, # of connection points: 2
#     Edge 28, Type (0, 0), BuildingBlock: XIVTED_clean_linker_0, # of connection points: 2
#     Edge 29, Type (0, 0), BuildingBlock: XIVTED_clean_linker_0, # of connection points: 2
#     Edge 30, Type (0, 0), BuildingBlock: XIVTED_clean_linker_0, # of connection points: 2
#     Edge 31, Type (0, 0), BuildingBlock: XIVTED_clean_linker_0, # of connection points: 2
#     Edge 32, Type (0, 0), BuildingBlock: XIVTED_clean_linker_0, # of connection points: 2
#     Edge 33, Type (0, 0), BuildingBlock: XIVTED_clean_linker_0, # of connection points: 2
#     Edge 34, Type (0, 0), BuildingBlock: XIVTED_clean_linker_0, # of connection points: 2
#     Edge 35, Type (0, 0), BuildingBlock: XIVTED_clean_linker_0, # of connection points: 2
#     Edge 36, Type (0, 0), BuildingBlock: XIVTED_clean_linker_0, # of connection points: 2
#     Edge 37, Type (0, 0), BuildingBlock: XIVTED_clean_linker_0, # of connection points: 2
#     Edge 38, Type (0, 0), BuildingBlock: XIVTED_clean_linker_0, # of connection points: 2
#     Edge 39, Type (0, 0), BuildingBlock: XIVTED_clean_linker_0, # of connection points: 2
#     Edge 40, Type (0, 0), BuildingBlock: XIVTED_clean_linker_0, # of connection points: 2
#     Edge 41, Type (0, 0), BuildingBlock: XIVTED_clean_linker_0, # of connection points: 2
#     Edge 42, Type (0, 0), BuildingBlock: XIVTED_clean_linker_0, # of connection points: 2
#     Edge 43, Type (0, 0), BuildingBlock: XIVTED_clean_linker_0, # of connection points: 2
#     Edge 44, Type (0, 0), BuildingBlock: XIVTED_clean_linker_0, # of connection points: 2
#     Edge 45, Type (0, 0), BuildingBlock: XIVTED_clean_linker_0, # of connection points: 2
#     Edge 46, Type (0, 0), BuildingBlock: XIVTED_clean_linker_0, # of connection points: 2
#     Edge 47, Type (0, 0), BuildingBlock: XIVTED_clean_linker_0, # of connection points: 2
#     Edge 48, Type (0, 0), BuildingBlock: XIVTED_clean_linker_0, # of connection points: 2
#     Edge 49, Type (0, 0), BuildingBlock: XIVTED_clean_linker_0, # of connection points: 2
#     Edge 50, Type (0, 0), BuildingBlock: XIVTED_clean_linker_0, # of connection points: 2
#     Edge 51, Type (0, 0), BuildingBlock: XIVTED_clean_linker_0, # of connection points: 2
#     Edge 52, Type (0, 0), BuildingBlock: XIVTED_clean_linker_0, # of connection points: 2
#     Edge 53, Type (0, 0), BuildingBlock: XIVTED_clean_linker_0, # of connection points: 2
#     Edge 54, Type (0, 0), BuildingBlock: XIVTED_clean_linker_0, # of connection points: 2
#     Edge 55, Type (0, 0), BuildingBlock: XIVTED_clean_linker_0, # of connection points: 2
#     Edge 56, Type (0, 0), BuildingBlock: XIVTED_clean_linker_0, # of connection points: 2
#     Edge 57, Type (0, 0), BuildingBlock: XIVTED_clean_linker_0, # of connection points: 2
#     Edge 58, Type (0, 0), BuildingBlock: XIVTED_clean_linker_0, # of connection points: 2
#     Edge 59, Type (0, 0), BuildingBlock: XIVTED_clean_linker_0, # of connection points: 2
#     Edge 60, Type (0, 0), BuildingBlock: XIVTED_clean_linker_0, # of connection points: 2
#     Edge 61, Type (0, 0), BuildingBlock: XIVTED_clean_linker_0, # of connection points: 2
#     Edge 62, Type (0, 0), BuildingBlock: XIVTED_clean_linker_0, # of connection points: 2
#     Edge 63, Type (0, 0), BuildingBlock: XIVTED_clean_linker_0, # of connection points: 2
#     Edge 64, Type (0, 0), BuildingBlock: XIVTED_clean_linker_0, # of connection points: 2
#     Edge 65, Type (0, 0), BuildingBlock: XIVTED_clean_linker_0, # of connection points: 2
#     Edge 66, Type (0, 0), BuildingBlock: XIVTED_clean_linker_0, # of connection points: 2
#     Edge 67, Type (0, 0), BuildingBlock: XIVTED_clean_linker_0, # of connection points: 2
#     Edge 68, Type (0, 0), BuildingBlock: XIVTED_clean_linker_0, # of connection points: 2
#     Edge 69, Type (0, 0), BuildingBlock: XIVTED_clean_linker_0, # of connection points: 2
#     Edge 70, Type (0, 0), BuildingBlock: XIVTED_clean_linker_0, # of connection points: 2
#     Edge 71, Type (0, 0), BuildingBlock: XIVTED_clean_linker_0, # of connection points: 2
#     Edge 72, Type (0, 0), BuildingBlock: XIVTED_clean_linker_0, # of connection points: 2
#     Edge 73, Type (0, 0), BuildingBlock: XIVTED_clean_linker_0, # of connection points: 2
#     Edge 74, Type (0, 0), BuildingBlock: XIVTED_clean_linker_0, # of connection points: 2
#     Edge 75, Type (0, 0), BuildingBlock: XIVTED_clean_linker_0, # of connection points: 2
#     Edge 76, Type (0, 0), BuildingBlock: XIVTED_clean_linker_0, # of connection points: 2
#     Edge 77, Type (0, 0), BuildingBlock: XIVTED_clean_linker_0, # of connection points: 2
#     Edge 78, Type (0, 0), BuildingBlock: XIVTED_clean_linker_0, # of connection points: 2
#     Edge 79, Type (0, 0), BuildingBlock: XIVTED_clean_linker_0, # of connection points: 2
#     Edge 80, Type (0, 0), BuildingBlock: XIVTED_clean_linker_0, # of connection points: 2
#     Edge 81, Type (0, 0), BuildingBlock: XIVTED_clean_linker_0, # of connection points: 2
#     Edge 82, Type (0, 0), BuildingBlock: XIVTED_clean_linker_0, # of connection points: 2
#     Edge 83, Type (0, 0), BuildingBlock: XIVTED_clean_linker_0, # of connection points: 2
#     Edge 84, Type (0, 0), BuildingBlock: XIVTED_clean_linker_0, # of connection points: 2
#     Edge 85, Type (0, 0), BuildingBlock: XIVTED_clean_linker_0, # of connection points: 2
#     Edge 86, Type (0, 0), BuildingBlock: XIVTED_clean_linker_0, # of connection points: 2
#     Edge 87, Type (0, 0), BuildingBlock: XIVTED_clean_linker_0, # of connection points: 2
#     Edge 88, Type (0, 0), BuildingBlock: XIVTED_clean_linker_0, # of connection points: 2
#     Edge 89, Type (0, 0), BuildingBlock: XIVTED_clean_linker_0, # of connection points: 2
#     Edge 90, Type (0, 0), BuildingBlock: XIVTED_clean_linker_0, # of connection points: 2
#     Edge 91, Type (0, 0), BuildingBlock: XIVTED_clean_linker_0, # of connection points: 2
#     Edge 92, Type (0, 0), BuildingBlock: XIVTED_clean_linker_0, # of connection points: 2
#     Edge 93, Type (0, 0), BuildingBlock: XIVTED_clean_linker_0, # of connection points: 2
#     Edge 94, Type (0, 0), BuildingBlock: XIVTED_clean_linker_0, # of connection points: 2
#     Edge 95, Type (0, 0), BuildingBlock: XIVTED_clean_linker_0, # of connection points: 2
# Relax obj value: 0.218
# Max RMSD: 0.206
# Mean RMSD: 0.187
data_MOF--net-lcv-e--node1-MAKGUD_clean_sbu_1--edge1-XIVTED_clean_linker_0
_symmetry_space_group_name_H-M    P1
_symmetry_Int_Tables_number       1
_symmetry_cell_setting            triclinic
loop_
_symmetry_equiv_pos_as_xyz
'x, y, z'
_cell_length_a     61.61432
_cell_length_b     63.243769
_cell_length_c     62.138552
_cell_angle_alpha  90.780829
_cell_angle_beta   91.588083
_cell_angle_gamma 89.245679
loop_
_atom_site_label
_atom_site_type_symbol
_atom_site_fract_x
_atom_site_fract_y
_atom_site_fract_z
_atom_type_partial_charge
O0 O 0.06736 0.17659 0.33472 0.0
Tb1 Tb 0.06444 0.18509 0.30055 0.0
C2 C 0.0856 0.17508 0.25627 0.0
O3 O 0.05987 0.22732 0.26911 0.0
Tb4 Tb 0.04461 0.20395 0.24771 0.0
C5 C 0.04023 0.22054 0.20867 0.0
O6 O 0.04683 0.21611 0.30089 0.0
O7 O 1.01055 0.19897 0.25351 0.0
C8 C 0.99816 0.2161 0.25432 0.0
O9 O 1.00582 0.23247 0.26518 0.0
O10 O 0.08872 0.18305 0.27576 0.0
O11 O 0.06697 0.17706 0.24556 0.0
O12 O 0.05193 0.15255 0.29501 0.0
C13 C 0.05184 0.23183 0.28802 0.0
C14 C 0.08773 0.18152 0.33743 0.0
O15 O 0.04169 0.23127 0.22658 0.0
O16 O 0.0423 0.20053 0.21264 0.0
C17 C 0.0649 0.13671 0.30148 0.0
O18 O 0.08414 0.1416 0.30954 0.0
O19 O 0.09461 0.18911 0.31956 0.0
O20 O 0.1589 0.7464 0.49363 0.0
Tb21 Tb 0.16026 0.77399 0.51508 0.0
C22 C 0.16247 0.82436 0.51131 0.0
O23 O 0.19443 0.7987 0.54765 0.0
Tb24 Tb 0.19944 0.83245 0.5429 0.0
C25 C 0.2356 0.84481 0.52435 0.0
O26 O 0.19462 0.76929 0.52598 0.0
O27 O 0.1932 0.8559 0.5683 0.0
C28 C 0.20578 0.85627 0.58584 0.0
O29 O 0.21945 0.84045 0.58917 0.0
O30 O 0.16229 0.80741 0.52322 0.0
O31 O 0.17408 0.84017 0.51901 0.0
O32 O 0.13096 0.76504 0.53198 0.0
C33 C 0.20549 0.78379 0.53753 0.0
C34 C 0.15332 0.75653 0.47618 0.0
O35 O 0.23346 0.84185 0.54488 0.0
O36 O 0.21785 0.83884 0.51446 0.0
C37 C 0.11588 0.77922 0.53693 0.0
O38 O 0.12054 0.79937 0.53593 0.0
O39 O 0.15263 0.77681 0.48047 0.0
O40 O 0.47873 0.94 0.84095 0.0
Tb41 Tb 0.48186 0.93103 0.80678 0.0
C42 C 0.45982 0.94005 0.7617 0.0
O43 O 0.47985 0.88696 0.77654 0.0
Tb44 Tb 0.48866 0.904 0.74792 0.0
C45 C 0.46929 0.88865 0.71212 0.0
O46 O 0.49959 0.89986 0.8055 0.0
O47 O 0.5228 0.89586 0.7438 0.0
C48 C 0.52799 0.87579 0.7406 0.0
O49 O 0.5132 0.86149 0.74387 0.0
O50 O 0.45686 0.93408 0.78157 0.0
O51 O 0.47861 0.93666 0.75269 0.0
O52 O 0.49549 0.96331 0.80332 0.0
C53 C 0.49347 0.88365 0.79286 0.0
C54 C 0.45847 0.93469 0.84251 0.0
O55 O 0.46336 0.88494 0.73163 0.0
O56 O 0.48576 0.90125 0.71286 0.0
C57 C 0.48182 0.9794 0.80684 0.0
O58 O 0.46155 0.97456 0.81028 0.0
O59 O 0.45189 0.92646 0.82423 0.0
O60 O 0.41509 0.3206 0.98295 0.0
Tb61 Tb 0.4127 0.29044 0.99953 0.0
C62 C 0.40098 0.24247 0.99198 0.0
O63 O 0.38526 0.27124 0.03485 0.0
Tb64 Tb 0.37411 0.23869 1.03204 0.0
C65 C 0.33192 0.23017 1.02855 0.0
O66 O 0.38399 0.30177 1.01659 0.0
O67 O 0.3844 0.21451 0.05488 0.0
C68 C 0.37727 0.21538 0.07467 0.0
O69 O 0.371 0.23381 0.08249 0.0
O70 O 0.39357 0.26189 0.99431 0.0
O71 O 0.39332 0.22809 1.0048 0.0
O72 O 0.44279 0.2871 1.01893 0.0
C73 C 0.37403 0.28817 1.02878 0.0
C74 C 0.42162 0.31254 0.96476 0.0
O75 O 0.34224 0.23638 0.04595 0.0
O76 O 0.34526 0.23065 1.0126 0.0
C77 C 0.45726 0.27224 1.01438 0.0
O78 O 0.45206 0.25764 0.99999 0.0
O79 O 0.42249 0.29198 0.96606 0.0
O80 O 0.0864 0.9339 0.27022 0.0
Tb81 Tb 0.07624 0.93156 0.30361 0.0
C82 C 0.08513 0.93457 0.35341 0.0
O83 O 0.05201 0.90357 0.33244 0.0
Tb84 Tb 0.05774 0.89612 0.36591 0.0
C85 C 0.08972 0.87135 0.38022 0.0
O86 O 0.05975 0.90061 0.29812 0.0
O87 O 0.0279 0.88892 0.38247 0.0
C88 C 0.02498 0.86886 0.38707 0.0
O89 O 0.04015 0.85509 0.38191 0.0
O90 O 0.08817 0.92272 0.33603 0.0
O91 O 0.07253 0.9274 0.36865 0.0
O92 O 0.06157 0.96355 0.30853 0.0
C93 C 0.05259 0.89125 0.31537 0.0
C94 C 0.10696 0.9366 0.27463 0.0
O95 O 0.07719 0.8668 0.36348 0.0
O96 O 0.08419 0.88956 0.38846 0.0
C97 C 0.05814 0.97686 0.29235 0.0
O98 O 0.06005 0.9696 0.27259 0.0
O99 O 0.1103 0.93581 0.2954 0.0
O100 O 0.41605 0.76348 0.58917 0.0
Tb101 Tb 0.41371 0.78994 0.56714 0.0
C102 C 0.40088 0.83863 0.57358 0.0
O103 O 0.37692 0.80897 0.534 0.0
Tb104 Tb 0.36202 0.8388 0.54369 0.0
C105 C 0.32523 0.83471 0.56475 0.0
O106 O 0.38302 0.77828 0.55183 0.0
O107 O 0.36109 0.86463 0.5208 0.0
C108 C 0.34796 0.8639 0.50372 0.0
O109 O 0.3367 0.84669 0.49987 0.0
O110 O 0.40469 0.82258 0.56055 0.0
O111 O 0.3849 0.85141 0.56774 0.0
O112 O 0.44688 0.7875 0.55492 0.0
C113 C 0.36951 0.79096 0.54084 0.0
C114 C 0.41529 0.77477 0.6068 0.0
O115 O 0.32649 0.83761 0.54411 0.0
O116 O 0.34471 0.83384 0.57318 0.0
C117 C 0.46274 0.7939 0.56817 0.0
O118 O 0.45743 0.80107 0.58726 0.0
O119 O 0.41344 0.79478 0.60212 0.0
O120 O 0.55766 0.18968 0.84566 0.0
Tb121 Tb 0.52292 0.18274 0.84048 0.0
C122 C 0.47559 0.19188 0.8592 0.0
O123 O 0.48877 0.14652 0.84293 0.0
Tb124 Tb 0.45613 0.15592 0.8326 0.0
C125 C 0.42588 0.14118 0.85779 0.0
O126 O 0.51951 0.1506 0.82497 0.0
O127 O 0.44517 0.14972 0.7993 0.0
C128 C 0.44319 0.13001 0.79235 0.0
O129 O 0.4509 0.11473 0.80456 0.0
O130 O 0.4967 0.1892 0.86265 0.0
O131 O 0.46623 0.18808 0.8402 0.0
O132 O 0.52147 0.2144 0.82519 0.0
C133 C 0.50291 0.1384 0.82968 0.0
C134 C 0.55874 0.18525 0.86608 0.0
O135 O 0.44305 0.13073 0.85176 0.0
O136 O 0.42603 0.16026 0.8501 0.0
C137 C 0.52615 0.23079 0.83811 0.0
O138 O 0.52945 0.22683 0.85866 0.0
O139 O 0.53991 0.17846 0.87168 0.0
O140 O 0.16542 0.25506 1.00955 0.0
Tb141 Tb 0.16313 0.27737 0.03636 0.0
C142 C 0.15072 0.2749 0.08561 0.0
O143 O 0.12695 0.31131 0.05378 0.0
Tb144 Tb 0.11319 0.30554 0.08506 0.0
C145 C 0.07415 0.28775 0.08445 0.0
O146 O 0.132 0.29089 1.02382 0.0
O147 O 0.11453 0.32933 0.11076 0.0
C148 C 0.10226 0.34652 0.10937 0.0
O149 O 0.09237 0.35073 0.09089 0.0
O150 O 0.15475 0.28657 0.06896 0.0
O151 O 0.13544 0.2818 0.09835 0.0
O152 O 0.19625 0.2896 1.0343 0.0
C153 C 0.11887 0.30221 0.03622 0.0
C154 C 0.16509 0.23798 1.021 0.0
O155 O 0.0777 0.30797 0.08556 0.0
O156 O 0.09264 0.27782 0.08301 0.0
C157 C 0.21215 0.27623 0.03961 0.0
O158 O 0.20688 0.25705 0.04517 0.0
O159 O 0.16325 0.24306 0.04135 0.0
O160 O 0.22815 1.0193 0.18949 0.0
Tb161 Tb 0.22822 0.05108 0.1758 0.0
C162 C 0.20686 0.09446 0.1865 0.0
O163 O 0.22683 0.07615 0.12837 0.0
Tb164 Tb 0.23486 0.10341 0.14854 0.0
C165 C 0.21734 0.13773 0.13036 0.0
O166 O 0.24582 0.04923 0.14491 0.0
O167 O 0.26956 0.10657 0.14366 0.0
C168 C 0.27627 0.10718 0.12371 0.0
O169 O 0.26251 0.1021 0.10801 0.0
O170 O 0.20289 0.07527 0.17913 0.0
O171 O 0.22491 0.1039 0.1817 0.0
O172 O 0.24329 0.05955 0.20736 0.0
C173 C 0.2392 0.05913 0.12711 0.0
C174 C 0.20816 1.0149 0.18395 0.0
O175 O 0.20742 0.11992 0.13265 0.0
O176 O 0.23691 0.13621 0.13843 0.0
C177 C 0.23064 0.05774 0.22417 0.0
O178 O 0.21055 0.05168 0.22062 0.0
O179 O 0.19991 1.03053 0.17288 0.0
O180 O 0.2128 0.09935 0.42617 0.0
Tb181 Tb 0.22002 0.06581 0.43227 0.0
C182 C 0.20666 1.02077 0.41814 0.0
O183 O 0.2625 0.04548 0.45503 0.0
Tb184 Tb 0.25225 1.01537 0.44107 0.0
C185 C 0.24424 0.98807 0.47207 0.0
O186 O 0.23382 0.0653 0.46528 0.0
O187 O 0.27853 0.99784 0.42621 0.0
C188 C 0.2977 0.99794 0.43612 0.0
O189 O 0.30234 1.01407 0.44891 0.0
O190 O 0.20178 1.03679 0.43087 0.0
O191 O 0.22709 1.01496 0.4152 0.0
O192 O 0.23571 0.06241 0.40081 0.0
C193 C 0.2517 0.05479 0.47055 0.0
C194 C 0.19175 0.09794 0.42702 0.0
O195 O 0.26227 0.99784 0.4696 0.0
O196 O 0.23014 0.99454 0.45756 0.0
C197 C 0.22273 0.06587 0.38379 0.0
O198 O 0.20213 0.06977 0.38727 0.0
O199 O 0.18683 0.07858 0.43145 0.0
O200 O 0.31576 0.06845 0.68902 0.0
Tb201 Tb 0.3082 1.03684 0.67538 0.0
C202 C 0.3281 0.99242 0.67883 0.0
O203 O 0.29568 1.00734 0.6322 0.0
Tb204 Tb 0.28248 0.98786 0.65751 0.0
C205 C 0.27557 0.94937 0.6409 0.0
O206 O 0.28956 1.04126 0.6447 0.0
O207 O 0.2524 1.00131 0.66955 0.0
C208 C 0.23317 0.99238 0.66709 0.0
O209 O 0.21617 1.00209 0.67506 0.0
O210 O 0.32976 1.01031 0.66871 0.0
O211 O 0.30896 0.98402 0.68124 0.0
O212 O 0.29479 1.0279 0.70657 0.0
C213 C 0.29006 1.02723 0.62857 0.0
C214 C 0.3367 0.06722 0.68649 0.0
O215 O 0.27464 0.96686 0.63018 0.0
O216 O 0.28022 0.95357 0.66098 0.0
C217 C 0.30909 1.02436 0.7225 0.0
O218 O 0.32978 1.02476 0.71797 0.0
O219 O 0.34108 0.0495 0.67664 0.0
O220 O 0.32221 0.99407 0.92857 0.0
Tb221 Tb 0.30507 1.02439 0.93281 0.0
C222 C 0.30332 0.07406 0.93278 0.0
O223 O 0.26697 0.04508 0.95723 0.0
Tb224 Tb 0.26687 0.07869 0.96455 0.0
C225 C 0.28367 0.09263 1.00207 0.0
O226 O 0.288 1.01636 0.96259 0.0
O227 O 0.23846 0.09885 0.95859 0.0
C228 C 0.22215 0.09801 0.97183 0.0
O229 O 0.22127 0.08194 0.9849 0.0
O230 O 0.30666 0.05712 0.94461 0.0
O231 O 0.28789 0.08744 0.93861 0.0
O232 O 0.29184 1.02589 0.89933 0.0
C233 C 0.27414 1.03042 0.97051 0.0
C234 C 0.34178 1.00167 0.92898 0.0
O235 O 0.26459 0.08438 0.99923 0.0
O236 O 0.29366 0.09159 0.9839 0.0
C237 C 0.30628 1.02826 0.88412 0.0
O238 O 0.32654 1.03141 0.89032 0.0
O239 O 0.34064 1.02202 0.93254 0.0
O240 O 0.65875 0.24282 0.99958 0.0
Tb241 Tb 0.66476 0.27287 1.01661 0.0
C242 C 0.66424 0.32225 1.01832 0.0
O243 O 0.6963 0.29443 0.05234 0.0
Tb244 Tb 0.70258 0.32799 0.04836 0.0
C245 C 0.73345 0.3394 1.0219 0.0
O246 O 0.69704 0.26498 1.0311 0.0
O247 O 0.70342 0.35247 0.07359 0.0
C248 C 0.70507 0.37201 0.06662 0.0
O249 O 0.70381 0.37488 0.04571 0.0
O250 O 0.67619 0.30524 1.01474 0.0
O251 O 0.67211 0.3363 1.03213 0.0
O252 O 0.63399 0.27488 1.03354 0.0
C253 C 0.70767 0.27904 0.04334 0.0
C254 C 0.65497 0.25083 0.98059 0.0
O255 O 0.73657 0.33408 0.04197 0.0
O256 O 0.71323 0.3362 1.01658 0.0
C257 C 0.61722 0.28318 1.02277 0.0
O258 O 0.62038 0.29062 1.00352 0.0
O259 O 0.65777 0.27124 0.98176 0.0
O260 O 0.9839 0.4444 0.32738 0.0
Tb261 Tb 0.99305 0.43459 0.29485 0.0
C262 C 0.95773 0.43612 0.25894 0.0
O263 O 0.98383 0.38189 0.28875 0.0
Tb264 Tb 0.97689 0.39194 0.25631 0.0
C265 C 0.95583 0.36482 0.23032 0.0
O266 O 1.01235 0.40387 0.29675 0.0
O267 O 1.00485 0.40197 0.2385 0.0
C268 C 0.02113 0.3883 0.2376 0.0
O269 O 1.02026 0.3713 0.2494 0.0
O270 O 0.97679 0.44402 0.2644 0.0
O271 O 0.95366 0.41648 0.26321 0.0
O272 O 1.00891 0.46615 0.29705 0.0
C273 C 1.0034 0.38463 0.297 0.0
C274 C 0.964 0.43776 0.32609 0.0
O275 O 0.97414 0.36075 0.24048 0.0
O276 O 0.9493 0.38377 0.23537 0.0
C277 C 0.99673 0.48344 0.29343 0.0
O278 O 0.97619 0.48084 0.28796 0.0
O279 O 0.96073 0.42854 0.30743 0.0
O280 O 0.91394 0.80203 0.49466 0.0
Tb281 Tb 0.91028 0.77039 0.50785 0.0
C282 C 0.90195 0.72257 0.49627 0.0
O283 O 0.8857 0.74814 0.54211 0.0
Tb284 Tb 0.8774 0.71511 0.53724 0.0
C285 C 0.83542 0.70574 0.5361 0.0
O286 O 0.88121 0.77926 0.52571 0.0
O287 O 0.89025 0.6923 0.56036 0.0
C288 C 0.88755 0.69617 0.58099 0.0
O289 O 0.88289 0.71567 0.58701 0.0
O290 O 0.893 0.74125 0.49972 0.0
O291 O 0.89625 0.70704 0.50884 0.0
O292 O 0.94111 0.76501 0.52552 0.0
C293 C 0.87284 0.76438 0.5375 0.0
C294 C 0.9188 0.79564 0.47532 0.0
O295 O 0.84729 0.70908 0.55332 0.0
O296 O 0.84714 0.70845 0.5192 0.0
C297 C 0.95672 0.7542 0.516 0.0
O298 O 0.95218 0.74489 0.49742 0.0
O299 O 0.91807 0.77506 0.47422 0.0
O300 O 0.05834 0.69666 0.3399 0.0
Tb301 Tb 0.02436 0.6866 0.33657 0.0
C302 C 0.97863 0.69054 0.35856 0.0
O303 O 0.99373 0.64386 0.33775 0.0
Tb304 Tb 0.96123 0.65562 0.32931 0.0
C305 C 0.93119 0.63912 0.35365 0.0
O306 O 0.02207 0.6557 0.31849 0.0
O307 O 0.95014 0.65093 0.29576 0.0
C308 C 0.94893 0.63157 0.28762 0.0
O309 O 0.95716 0.61587 0.29896 0.0
O310 O 0.99991 0.68992 0.3611 0.0
O311 O 0.96942 0.68762 0.33938 0.0
O312 O 0.02088 0.71861 0.32232 0.0
C313 C 1.00827 0.64036 0.32302 0.0
C314 C 0.06168 0.69028 0.35954 0.0
O315 O 0.94879 0.62938 0.34762 0.0
O316 O 0.93078 0.65832 0.34636 0.0
C317 C 0.02142 0.73518 0.33575 0.0
O318 O 0.02166 0.73133 0.35649 0.0
O319 O 0.04434 0.68085 0.36573 0.0
O320 O 0.57048 0.44415 0.77549 0.0
Tb321 Tb 0.56719 0.4327 0.80859 0.0
C322 C 0.59147 0.44426 0.85138 0.0
O323 O 0.57147 0.3929 0.83768 0.0
Tb324 Tb 0.56118 0.41022 0.8662 0.0
C325 C 0.57982 0.39123 0.89992 0.0
O326 O 0.55073 0.40153 0.80853 0.0
O327 O 0.52681 0.40325 0.86867 0.0
C328 C 0.522 0.38302 0.8692 0.0
O329 O 0.53764 0.36914 0.86598 0.0
O330 O 0.59266 0.43292 0.8336 0.0
O331 O 0.57507 0.44163 0.86417 0.0
O332 O 0.55217 0.46378 0.8166 0.0
C333 C 0.55755 0.38702 0.82247 0.0
C334 C 0.59115 0.43974 0.7741 0.0
O335 O 0.58291 0.38622 0.87991 0.0
O336 O 0.56646 0.40726 0.90103 0.0
C337 C 0.56513 0.48041 0.81755 0.0
O338 O 0.58595 0.47707 0.81466 0.0
O339 O 0.59768 0.43035 0.79161 0.0
O340 O 0.57323 0.68352 0.85065 0.0
Tb341 Tb 0.55291 0.68597 0.82121 0.0
C342 C 0.54935 0.68335 0.77098 0.0
O343 O 0.51439 0.71321 0.8022 0.0
Tb344 Tb 0.51391 0.71661 0.76751 0.0
C345 C 0.53176 0.75068 0.75092 0.0
O346 O 0.53885 0.7176 0.82925 0.0
O347 O 0.4847 0.71045 0.74811 0.0
C348 C 0.46811 0.72373 0.74907 0.0
O349 O 0.46748 0.73734 0.76517 0.0
O350 O 0.55364 0.69576 0.78769 0.0
O351 O 0.5331 0.68906 0.75804 0.0
O352 O 0.53802 0.65426 0.82166 0.0
C353 C 0.52432 0.72624 0.8158 0.0
C354 C 0.59136 0.67951 0.84098 0.0
O355 O 0.51165 0.74931 0.7565 0.0
O356 O 0.54188 0.7332 0.75597 0.0
C357 C 0.55011 0.63795 0.8151 0.0
O358 O 0.56915 0.64193 0.80723 0.0
O359 O 0.58786 0.68019 0.82025 0.0
O360 O 0.92383 0.24975 0.09834 0.0
Tb361 Tb 0.91708 0.27631 0.07673 0.0
C362 C 0.90458 0.32548 0.08334 0.0
O363 O 0.8811 0.29577 0.04358 0.0
Tb364 Tb 0.86897 0.32769 0.04987 0.0
C365 C 0.82917 0.33056 0.06553 0.0
O366 O 0.88453 0.26647 0.06425 0.0
O367 O 0.87334 0.35163 1.02552 0.0
C368 C 0.86311 0.3498 1.0067 0.0
O369 O 0.85251 0.33232 1.00225 0.0
O370 O 0.90817 0.30909 0.07076 0.0
O371 O 0.89027 0.33927 0.07587 0.0
O372 O 0.9477 0.27421 0.05917 0.0
C373 C 0.87208 0.2793 0.05223 0.0
C374 C 0.92522 0.26098 0.11606 0.0
O375 O 0.83377 0.33093 0.04522 0.0
O376 O 0.84704 0.32779 0.07673 0.0
C377 C 0.95827 0.2916 0.0546 0.0
O378 O 0.9489 0.30995 0.05847 0.0
O379 O 0.92148 0.28079 0.11161 0.0
O380 O 0.66145 0.733 0.51315 0.0
Tb381 Tb 0.66247 0.74812 0.54499 0.0
C382 C 0.65601 0.74193 0.5947 0.0
O383 O 0.6367 0.78458 0.5692 0.0
Tb384 Tb 0.6271 0.78 0.60241 0.0
C385 C 0.58582 0.7719 0.61054 0.0
O386 O 0.63424 0.76842 0.53657 0.0
O387 O 0.63473 0.80231 0.62846 0.0
C388 C 0.62565 0.8213 0.62834 0.0
O389 O 0.61798 0.82873 0.60997 0.0
O390 O 0.64678 0.74535 0.57579 0.0
O391 O 0.64914 0.7538 0.61075 0.0
O392 O 0.69561 0.76064 0.54779 0.0
C393 C 0.62482 0.7798 0.55183 0.0
C394 C 0.66286 0.71366 0.52008 0.0
O395 O 0.59338 0.7901 0.60522 0.0
O396 O 0.60148 0.75789 0.60942 0.0
C397 C 0.71134 0.74847 0.55591 0.0
O398 O 0.70606 0.73014 0.56384 0.0
O399 O 0.66378 0.71376 0.54106 0.0
O400 O 0.79547 0.57463 0.65166 0.0
Tb401 Tb 0.76071 0.57674 0.65899 0.0
C402 C 0.7193 0.60448 0.64617 0.0
O403 O 0.73038 0.58662 0.69862 0.0
Tb404 Tb 0.70011 0.57834 0.68194 0.0
C405 C 0.66816 0.60122 0.6994 0.0
O406 O 0.7569 0.56272 0.69123 0.0
O407 O 0.69154 0.54543 0.68688 0.0
C408 C 0.69226 0.53792 0.70656 0.0
O409 O 0.70119 0.54943 0.72209 0.0
O410 O 0.73948 0.60417 0.65374 0.0
O411 O 0.7061 0.58869 0.64935 0.0
O412 O 0.75532 0.56064 0.62733 0.0
C413 C 0.74425 0.57212 0.70547 0.0
C414 C 0.80002 0.59414 0.65677 0.0
O415 O 0.68743 0.59827 0.70791 0.0
O416 O 0.66697 0.59159 0.68079 0.0
C417 C 0.76391 0.56949 0.61028 0.0
O418 O 0.77359 0.58773 0.61318 0.0
O419 O 0.78263 0.6034 0.66383 0.0
O420 O 0.72485 0.59151 0.91563 0.0
Tb421 Tb 0.73906 0.55948 0.91389 0.0
C422 C 0.72803 0.51224 0.90979 0.0
O423 O 0.77697 0.53629 0.93961 0.0
Tb424 Tb 0.76971 0.50289 0.93695 0.0
C425 C 0.75624 0.48312 0.97162 0.0
O426 O 0.75443 0.56358 0.94624 0.0
O427 O 0.79546 0.48158 0.92651 0.0
C428 C 0.81453 0.4824 0.93654 0.0
O429 O 0.81933 0.49953 0.94777 0.0
O430 O 0.7269 0.52871 0.92286 0.0
O431 O 0.74532 0.49968 0.91094 0.0
O432 O 0.75489 0.55634 0.88234 0.0
C433 C 0.76829 0.54925 0.95383 0.0
C434 C 0.70585 0.58641 0.90754 0.0
O435 O 0.77571 0.49005 0.96899 0.0
O436 O 0.74402 0.48895 0.9553 0.0
C437 C 0.75299 0.57228 0.86871 0.0
O438 O 0.74523 0.59031 0.87612 0.0
O439 O 0.70554 0.56617 0.9036 0.0
O440 O 0.8244 0.57722 0.1759 0.0
Tb441 Tb 0.81775 0.54561 0.16176 0.0
C442 C 0.83713 0.50171 0.17004 0.0
O443 O 0.80732 0.51417 0.12022 0.0
Tb444 Tb 0.79265 0.49627 0.14582 0.0
C445 C 0.78509 0.45762 0.12997 0.0
O446 O 0.80064 0.54868 0.13003 0.0
O447 O 0.76272 0.51053 0.1573 0.0
C448 C 0.74343 0.50172 0.15502 0.0
O449 O 0.7267 0.51109 0.16386 0.0
O450 O 0.83979 0.51883 0.15889 0.0
O451 O 0.81795 0.49295 0.17078 0.0
O452 O 0.80245 0.53767 0.19229 0.0
C453 C 0.80155 0.53361 0.11493 0.0
C454 C 0.84542 0.57648 0.17384 0.0
O455 O 0.78573 0.47474 0.11875 0.0
O456 O 0.78863 0.46225 0.15016 0.0
C457 C 0.81558 0.53808 0.20956 0.0
O458 O 0.83634 0.54102 0.20654 0.0
O459 O 0.85034 0.55906 0.16366 0.0
O460 O 0.82186 0.49178 0.40967 0.0
Tb461 Tb 0.80497 0.52176 0.41624 0.0
C462 C 0.80454 0.57108 0.42113 0.0
O463 O 0.7647 0.53865 0.44024 0.0
Tb464 Tb 0.76354 0.57212 0.44739 0.0
C465 C 0.76926 0.58444 0.48826 0.0
O466 O 0.78849 0.51209 0.44566 0.0
O467 O 0.73599 0.59075 0.43565 0.0
C468 C 0.71677 0.58698 0.44333 0.0
O469 O 0.71374 0.56864 0.45241 0.0
O470 O 0.80696 0.55311 0.43142 0.0
O471 O 0.78821 0.58367 0.4263 0.0
O472 O 0.79097 0.5269 0.38362 0.0
C473 C 0.7735 0.52491 0.45363 0.0
C474 C 0.84138 0.49951 0.40963 0.0
O475 O 0.75089 0.57918 0.47913 0.0
O476 O 0.78461 0.58196 0.47442 0.0
C477 C 0.80391 0.53582 0.36979 0.0
O478 O 0.82308 0.54194 0.37701 0.0
O479 O 0.84041 0.51968 0.41424 0.0
H480 H 0.02839 0.26109 0.1994 0.0
H481 H 0.06334 0.2463 0.0812 0.0
H482 H 0.04092 0.20033 0.16965 0.0
H483 H 0.04212 0.30597 0.10807 0.0
H484 H 0.04413 0.22798 0.10905 0.0
H485 H 0.02391 0.27658 0.16372 0.0
C486 C 0.03009 0.25102 0.18529 0.0
C487 C 0.03572 0.2296 0.18734 0.0
C488 C 0.04304 0.24506 0.10853 0.0
C489 C 0.0306 0.2471 0.14651 0.0
C490 C 0.05384 0.25551 0.09246 0.0
C491 C 0.05498 0.27761 0.09299 0.0
C492 C 0.03384 0.25694 0.12534 0.0
C493 C 0.04211 0.28885 0.10755 0.0
C494 C 0.0273 0.25979 0.16492 0.0
C495 C 0.03711 0.21706 0.16867 0.0
N496 N 0.03269 0.2784 0.12373 0.0
N497 N 0.035 0.22608 0.149 0.0
H498 H 0.12328 0.81007 0.49488 0.0
H499 H 0.13177 0.8782 0.39064 0.0
H500 H 0.18185 0.8412 0.47718 0.0
H501 H 0.08052 0.83344 0.39783 0.0
H502 H 0.15225 0.86137 0.42004 0.0
H503 H 0.10841 0.81538 0.45821 0.0
C504 C 0.1331 0.81772 0.48318 0.0
C505 C 0.1538 0.82517 0.48898 0.0
C506 C 0.13682 0.85475 0.41488 0.0
C507 C 0.1369 0.83162 0.44729 0.0
C508 C 0.12527 0.86424 0.39792 0.0
C509 C 0.10467 0.85696 0.39173 0.0
C510 C 0.12729 0.83837 0.42625 0.0
C511 C 0.09658 0.83922 0.40199 0.0
C512 C 0.12467 0.82071 0.46226 0.0
C513 C 0.16578 0.83525 0.47334 0.0
N514 N 0.1077 0.83079 0.41915 0.0
N515 N 0.15711 0.83833 0.45331 0.0
H516 H 0.48591 0.889 0.67203 0.0
H517 H 0.38145 0.84267 0.61206 0.0
H518 H 0.43136 0.8667 0.70691 0.0
H519 H 0.44414 0.8422 0.58309 0.0
H520 H 0.39871 0.85238 0.64678 0.0
H521 H 0.47025 0.87347 0.63892 0.0
C522 C 0.4706 0.88083 0.67269 0.0
C523 C 0.45982 0.87922 0.69217 0.0
C524 C 0.40876 0.84982 0.63294 0.0
C525 C 0.44178 0.86147 0.65435 0.0
C526 C 0.39893 0.84428 0.61318 0.0
C527 C 0.41152 0.84136 0.59491 0.0
C528 C 0.43125 0.85313 0.63423 0.0
C529 C 0.43401 0.84389 0.59699 0.0
C530 C 0.46175 0.87185 0.65382 0.0
C531 C 0.44013 0.86834 0.69217 0.0
N532 N 0.44317 0.8499 0.61627 0.0
N533 N 0.43161 0.86004 0.67349 0.0
H534 H 0.39819 0.25987 0.95195 0.0
H535 H 0.48408 0.18023 0.90047 0.0
H536 H 0.429 0.20906 0.98739 0.0
H537 H 0.43787 0.21564 0.86143 0.0
H538 H 0.46578 0.19241 0.93271 0.0
H539 H 0.41496 0.24649 0.91903 0.0
C540 C 0.40888 0.24616 0.95288 0.0
C541 C 0.41264 0.23581 0.9725 0.0
C542 C 0.45948 0.1974 0.91712 0.0
C543 C 0.43132 0.22008 0.93484 0.0
C544 C 0.46991 0.19045 0.89868 0.0
C545 C 0.4625 0.19699 0.87823 0.0
C546 C 0.44167 0.21136 0.91525 0.0
C547 C 0.44402 0.21015 0.87689 0.0
C548 C 0.41813 0.23834 0.93403 0.0
C549 C 0.42589 0.21763 0.97263 0.0
N550 N 0.43437 0.21715 0.8952 0.0
N551 N 0.43485 0.21041 0.95413 0.0
H552 H 0.09729 0.17612 0.21419 0.0
H553 H 0.17816 0.07974 0.21535 0.0
H554 H 0.11502 0.1478 0.27501 0.0
H555 H 0.19598 0.13637 0.18263 0.0
H556 H 0.14912 0.09982 0.23314 0.0
H557 H 0.12776 0.157 0.19757 0.0
C558 C 0.10754 0.1658 0.22399 0.0
C559 C 0.10373 0.16355 0.246 0.0
C560 C 0.15948 0.10779 0.22212 0.0
C561 C 0.13805 0.14139 0.22705 0.0
C562 C 0.17599 0.09639 0.21196 0.0
C563 C 0.18962 0.10648 0.19769 0.0
C564 C 0.15606 0.1292 0.21731 0.0
C565 C 0.18599 0.12807 0.19373 0.0
C566 C 0.12491 0.15504 0.21455 0.0
C567 C 0.11752 0.15005 0.25802 0.0
N568 N 0.16933 0.13867 0.20325 0.0
N569 N 0.13391 0.13922 0.24833 0.0
H570 H 0.26893 0.97502 0.5064 0.0
H571 H 0.2418 0.8543 0.48248 0.0
H572 H 0.2201 0.95411 0.46008 0.0
H573 H 0.25409 0.87698 0.54731 0.0
H574 H 0.24676 0.8903 0.46952 0.0
H575 H 0.27398 0.93827 0.51823 0.0
C576 C 0.25898 0.96273 0.49909 0.0
C577 C 0.24378 0.96751 0.48258 0.0
C578 C 0.24917 0.88712 0.48651 0.0
C579 C 0.25041 0.92576 0.49498 0.0
C580 C 0.2467 0.86658 0.49386 0.0
C581 C 0.24775 0.86262 0.51601 0.0
C582 C 0.25296 0.90358 0.50144 0.0
C583 C 0.25382 0.87916 0.53013 0.0
C584 C 0.2621 0.94186 0.50558 0.0
C585 C 0.23164 0.95108 0.47318 0.0
N586 N 0.25587 0.89906 0.52265 0.0
N587 N 0.23539 0.93084 0.47936 0.0
H588 H 0.37056 1.00128 0.67133 0.0
H589 H 0.41716 0.93695 0.77185 0.0
H590 H 0.33061 0.96242 0.71034 0.0
H591 H 0.45831 0.95779 0.72139 0.0
H592 H 0.38538 0.9481 0.75056 0.0
H593 H 0.40289 0.98734 0.69029 0.0
C594 C 0.36858 0.98971 0.6838 0.0
C595 C 0.34781 0.983 0.68925 0.0
C596 C 0.40133 0.95015 0.74406 0.0
C597 C 0.38479 0.96718 0.71117 0.0
C598 C 0.41956 0.94387 0.75626 0.0
C599 C 0.44052 0.94648 0.74843 0.0
C600 C 0.40396 0.95944 0.72396 0.0
C601 C 0.44248 0.95547 0.72805 0.0
C602 C 0.38707 0.98174 0.69457 0.0
C603 C 0.34627 0.96798 0.70553 0.0
N604 N 0.42443 0.9618 0.71658 0.0
N605 N 0.36449 0.96073 0.71604 0.0
H606 H 0.31041 0.21144 0.9947 0.0
H607 H 0.25464 0.11493 1.02626 0.0
H608 H 0.3153 0.21221 0.06413 0.0
H609 H 0.32262 0.11028 1.0118 0.0
H610 H 0.25998 0.15186 0.03791 0.0
H611 H 0.29436 0.17625 0.99592 0.0
C612 C 0.3072 0.20465 1.01019 0.0
C613 C 0.31446 0.21456 1.02928 0.0
C614 C 0.2738 0.14237 1.03304 0.0
C615 C 0.29666 0.17449 1.03069 0.0
C616 C 0.2709 0.12129 1.0266 0.0
C617 C 0.28823 0.10973 1.01775 0.0
C618 C 0.29413 0.15151 1.03071 0.0
C619 C 0.30885 0.11876 1.01832 0.0
C620 C 0.29824 0.18458 1.01086 0.0
C621 C 0.31003 0.20499 0.049 0.0
N622 N 0.31114 0.13938 1.0241 0.0
N623 N 0.30206 0.18504 0.04922 0.0
H624 H 0.12484 0.94081 0.3357 0.0
H625 H 0.16328 1.02549 0.42517 0.0
H626 H 0.08375 0.96422 0.38607 0.0
H627 H 0.20813 0.99014 0.38594 0.0
H628 H 0.1332 1.0069 0.40755 0.0
H629 H 0.1542 0.96295 0.34998 0.0
C630 C 0.12175 0.95097 0.34945 0.0
C631 C 0.10165 0.95065 0.35963 0.0
C632 C 0.1496 1.00319 0.40274 0.0
C633 C 0.13555 0.97582 0.37635 0.0
C634 C 0.16688 1.01383 0.4128 0.0
C635 C 0.18842 1.00934 0.40715 0.0
C636 C 0.15369 0.98798 0.38669 0.0
C637 C 0.19186 0.99405 0.39094 0.0
C638 C 0.13869 0.96342 0.35776 0.0
C639 C 0.09892 0.96391 0.37769 0.0
N640 N 0.17468 0.98393 0.38127 0.0
N641 N 0.11567 0.97587 0.3855 0.0
H642 H 0.2624 0.93882 0.59999 0.0
H643 H 0.32102 0.83103 0.60804 0.0
H644 H 0.28272 0.91157 0.66061 0.0
H645 H 0.28673 0.85176 0.55066 0.0
H646 H 0.29849 0.85472 0.62951 0.0
H647 H 0.26317 0.90361 0.58336 0.0
C648 C 0.26685 0.92534 0.60981 0.0
C649 C 0.27311 0.92805 0.6315 0.0
C650 C 0.29532 0.85365 0.6123 0.0
C651 C 0.27435 0.8878 0.61263 0.0
C652 C 0.30811 0.83998 0.60005 0.0
C653 C 0.30624 0.84025 0.57752 0.0
C654 C 0.28103 0.86785 0.60176 0.0
C655 C 0.28905 0.85169 0.56799 0.0
C656 C 0.26714 0.90521 0.60039 0.0
C657 C 0.27824 0.91011 0.64369 0.0
N658 N 0.27758 0.86568 0.58011 0.0
N659 N 0.27924 0.89077 0.63397 0.0
H660 H 0.3855 0.15819 0.86444 0.0
H661 H 0.34548 0.0604 0.93136 0.0
H662 H 0.42482 0.10235 0.87597 0.0
H663 H 0.30093 0.10627 0.90369 0.0
H664 H 0.37489 0.07595 0.91201 0.0
H665 H 0.35471 0.14069 0.88064 0.0
C666 C 0.38767 0.14232 0.87056 0.0
C667 C 0.40769 0.1317 0.86899 0.0
C668 C 0.35863 0.08242 0.90982 0.0
C669 C 0.37267 0.11159 0.88731 0.0
C670 C 0.34169 0.07323 0.92059 0.0
C671 C 0.32053 0.08157 0.91869 0.0
C672 C 0.35457 0.10049 0.89742 0.0
C673 C 0.31696 0.09919 0.90547 0.0
C674 C 0.37008 0.13229 0.87961 0.0
C675 C 0.40965 0.11111 0.87696 0.0
N676 N 0.33385 0.1082 0.89547 0.0
N677 N 0.39238 0.10175 0.88583 0.0
H678 H 0.12959 0.23889 0.09453 0.0
H679 H 0.23837 0.17368 0.12058 0.0
H680 H 0.19336 0.26347 0.08468 0.0
H681 H 0.17501 0.14544 0.11832 0.0
H682 H 0.22234 0.20642 0.1065 0.0
H683 H 0.14586 0.20424 0.10247 0.0
C684 C 0.14705 0.23683 0.09382 0.0
C685 C 0.16025 0.25378 0.08869 0.0
C686 C 0.21194 0.19303 0.10891 0.0
C687 C 0.17898 0.2145 0.09806 0.0
C688 C 0.22107 0.17439 0.11701 0.0
C689 C 0.20791 0.15698 0.12073 0.0
C690 C 0.18945 0.19433 0.10477 0.0
C691 C 0.18565 0.15859 0.11572 0.0
C692 C 0.15632 0.2171 0.09828 0.0
C693 C 0.18272 0.25053 0.08809 0.0
N694 N 0.17706 0.17705 0.10817 0.0
N695 N 0.19145 0.23126 0.0929 0.0
H696 H 0.73005 0.35296 0.98062 0.0
H697 H 0.78158 0.46564 1.00369 0.0
H698 H 0.75952 0.36745 0.04249 0.0
H699 H 0.72301 0.45579 0.96535 0.0
H700 H 0.78045 0.42858 1.01505 0.0
H701 H 0.73645 0.38934 0.96958 0.0
C702 C 0.73887 0.3635 0.9915 0.0
C703 C 0.74477 0.35714 1.01238 0.0
C704 C 0.76776 0.43472 1.00437 0.0
C705 C 0.75147 0.3987 1.00021 0.0
C706 C 0.76819 0.45585 0.99815 0.0
C707 C 0.75234 0.46373 0.98361 0.0
C708 C 0.75169 0.42145 0.9955 0.0
C709 C 0.7355 0.45037 0.97665 0.0
C710 C 0.74214 0.38431 0.98537 0.0
C711 C 0.75569 0.37153 1.02604 0.0
N712 N 0.73583 0.42975 0.98236 0.0
N713 N 0.7585 0.39179 1.01985 0.0
H714 H 0.91496 0.42742 0.25806 0.0
H715 H 0.87858 0.51719 0.17476 0.0
H716 H 0.96026 0.47285 0.23507 0.0
H717 H 0.83762 0.46707 0.19586 0.0
H718 H 0.90827 0.50326 0.19779 0.0
H719 H 0.8861 0.4443 0.23724 0.0
C720 C 0.91886 0.44108 0.24865 0.0
C721 C 0.94019 0.44855 0.24811 0.0
C722 C 0.89278 0.49535 0.19732 0.0
C723 C 0.90683 0.46808 0.22385 0.0
C724 C 0.87583 0.50322 0.18414 0.0
C725 C 0.85555 0.4932 0.18327 0.0
C726 C 0.88939 0.47739 0.20977 0.0
C727 C 0.85292 0.47529 0.1959 0.0
C728 C 0.90227 0.45074 0.23669 0.0
C729 C 0.94406 0.46655 0.23587 0.0
N730 N 0.8696 0.46801 0.20858 0.0
N731 N 0.92752 0.47564 0.22401 0.0
H732 H 0.80531 0.69993 0.50349 0.0
H733 H 0.80241 0.58888 0.51781 0.0
H734 H 0.82184 0.68145 0.56854 0.0
H735 H 0.74039 0.61543 0.49783 0.0
H736 H 0.81031 0.6217 0.53789 0.0
H737 H 0.78039 0.67 0.50042 0.0
C738 C 0.80309 0.69003 0.51733 0.0
C739 C 0.81576 0.69288 0.53613 0.0
C740 C 0.79462 0.61996 0.52979 0.0
C741 C 0.7882 0.65855 0.53251 0.0
C742 C 0.79015 0.6013 0.51842 0.0
C743 C 0.77086 0.59966 0.50616 0.0
C744 C 0.78011 0.6372 0.52793 0.0
C745 C 0.75548 0.6162 0.50716 0.0
C746 C 0.7889 0.67304 0.51562 0.0
C747 C 0.81242 0.67962 0.55367 0.0
N748 N 0.76081 0.63473 0.51711 0.0
N749 N 0.79958 0.66245 0.55116 0.0
H750 H 0.80343 0.60414 0.39327 0.0
H751 H 0.9307 0.59991 0.37137 0.0
H752 H 0.84729 0.55878 0.42298 0.0
H753 H 0.89057 0.65523 0.35994 0.0
H754 H 0.89957 0.58241 0.38679 0.0
H755 H 0.83445 0.62076 0.37672 0.0
C756 C 0.81955 0.5975 0.39607 0.0
C757 C 0.82275 0.57984 0.40925 0.0
C758 C 0.89762 0.59841 0.381 0.0
C759 C 0.85825 0.59883 0.39057 0.0
C760 C 0.91536 0.6084 0.37227 0.0
C761 C 0.91315 0.62903 0.36449 0.0
C762 C 0.87749 0.60906 0.38168 0.0
C763 C 0.89293 0.63933 0.36588 0.0
C764 C 0.83722 0.60704 0.38672 0.0
C765 C 0.84398 0.57197 0.41246 0.0
N766 N 0.87582 0.62919 0.3742 0.0
N767 N 0.86092 0.58151 0.40319 0.0
H768 H 0.68621 0.52559 0.91674 0.0
H769 H 0.63146 0.44379 0.83351 0.0
H770 H 0.7231 0.4801 0.87987 0.0
H771 H 0.5966 0.47113 0.88664 0.0
H772 H 0.66428 0.46133 0.84664 0.0
H773 H 0.65263 0.51017 0.90211 0.0
C774 C 0.68731 0.51248 0.90541 0.0
C775 C 0.70761 0.50407 0.89961 0.0
C776 C 0.64948 0.46351 0.85544 0.0
C777 C 0.66906 0.48641 0.88275 0.0
C778 C 0.63063 0.45353 0.84794 0.0
C779 C 0.61116 0.45577 0.85911 0.0
C780 C 0.64897 0.47617 0.87411 0.0
C781 C 0.61124 0.46878 0.87762 0.0
C782 C 0.66808 0.50362 0.89719 0.0
C783 C 0.70788 0.48704 0.88489 0.0
N784 N 0.62984 0.47852 0.88453 0.0
N785 N 0.68892 0.47881 0.87696 0.0
H786 H 0.57248 0.75399 0.73632 0.0
H787 H 0.5588 0.80342 0.62504 0.0
H788 H 0.50658 0.77537 0.72393 0.0
H789 H 0.57516 0.73741 0.6333 0.0
H790 H 0.54342 0.80419 0.66118 0.0
H791 H 0.58094 0.76193 0.69911 0.0
C792 C 0.56004 0.76118 0.72604 0.0
C793 C 0.53873 0.76363 0.73298 0.0
C794 C 0.5498 0.78947 0.65467 0.0
C795 C 0.54819 0.77234 0.69065 0.0
C796 C 0.55833 0.78889 0.63404 0.0
C797 C 0.56865 0.77038 0.6264 0.0
C798 C 0.5519 0.77149 0.66746 0.0
C799 C 0.56764 0.75205 0.63868 0.0
C800 C 0.5648 0.76543 0.70482 0.0
C801 C 0.52318 0.77308 0.71903 0.0
N802 N 0.56006 0.75322 0.65893 0.0
N803 N 0.52808 0.77669 0.69818 0.0
H804 H 0.66157 0.31034 0.97634 0.0
H805 H 0.57573 0.40015 0.94291 0.0
H806 H 0.63087 0.35093 1.02311 0.0
H807 H 0.60564 0.35631 0.89859 0.0
H808 H 0.59303 0.38093 0.97305 0.0
H809 H 0.63785 0.32476 0.94836 0.0
C810 C 0.64926 0.32177 0.98086 0.0
C811 C 0.64775 0.32899 1.00218 0.0
C812 C 0.59568 0.37547 0.95672 0.0
C813 C 0.6213 0.34672 0.96984 0.0
C814 C 0.5859 0.38646 0.93957 0.0
C815 C 0.58952 0.37987 0.91833 0.0
C816 C 0.6091 0.35787 0.95244 0.0
C817 C 0.60263 0.36201 0.91476 0.0
C818 C 0.63592 0.33033 0.96476 0.0
C819 C 0.63235 0.34481 1.00685 0.0
N820 N 0.61201 0.35169 0.93164 0.0
N821 N 0.61978 0.35331 0.99074 0.0
H822 H 0.94583 0.31916 0.10037 0.0
H823 H 0.91465 0.36706 0.21428 0.0
H824 H 0.88045 0.33587 0.11754 0.0
H825 H 0.97642 0.33633 0.20396 0.0
H826 H 0.90147 0.35369 0.17941 0.0
H827 H 0.95756 0.32392 0.13827 0.0
C828 C 0.93396 0.32363 0.11217 0.0
C829 C 0.91215 0.32696 0.10598 0.0
C830 C 0.9178 0.3495 0.18484 0.0
C831 C 0.92536 0.33273 0.14904 0.0
C832 C 0.92526 0.35706 0.20481 0.0
C833 C 0.9466 0.35277 0.21191 0.0
C834 C 0.93194 0.33795 0.17162 0.0
C835 C 0.95979 0.33986 0.19903 0.0
C836 C 0.94061 0.32629 0.13376 0.0
C837 C 0.89742 0.33307 0.12174 0.0
N838 N 0.95237 0.33318 0.17926 0.0
N839 N 0.9043 0.33582 0.14249 0.0
H840 H 0.99004 0.67788 0.399 0.0
H841 H 0.89614 0.74203 0.45743 0.0
H842 H 0.93797 0.70868 0.3632 0.0
H843 H 0.93252 0.69176 0.48842 0.0
H844 H 0.91344 0.73292 0.42341 0.0
H845 H 0.97097 0.68499 0.43229 0.0
C846 C 0.97447 0.68602 0.39812 0.0
C847 C 0.96561 0.69274 0.37825 0.0
C848 C 0.91766 0.7239 0.43765 0.0
C849 C 0.94382 0.70131 0.41655 0.0
C850 C 0.90804 0.72928 0.45716 0.0
C851 C 0.91321 0.71788 0.4759 0.0
C852 C 0.93275 0.7071 0.43688 0.0
C853 C 0.9282 0.70106 0.47441 0.0
C854 C 0.96358 0.69005 0.41717 0.0
C855 C 0.94534 0.70314 0.37814 0.0
N856 N 0.93757 0.6963 0.4553 0.0
N857 N 0.93524 0.70737 0.39704 0.0
H858 H 0.6255 0.60418 0.68599 0.0
H859 H 0.59277 0.68333 0.78089 0.0
H860 H 0.66988 0.62356 0.73716 0.0
H861 H 0.54491 0.65149 0.74077 0.0
H862 H 0.62116 0.66189 0.76471 0.0
H863 H 0.59581 0.62229 0.70469 0.0
C864 C 0.62898 0.61231 0.70112 0.0
C865 C 0.65015 0.61249 0.71002 0.0
C866 C 0.60443 0.65927 0.75966 0.0
C867 C 0.61638 0.63314 0.73148 0.0
C868 C 0.58811 0.67128 0.76923 0.0
C869 C 0.5663 0.66872 0.76276 0.0
C870 C 0.59907 0.6449 0.74301 0.0
C871 C 0.5615 0.65379 0.74644 0.0
C872 C 0.61203 0.62252 0.71184 0.0
C873 C 0.65379 0.62312 0.72971 0.0
N874 N 0.57776 0.64253 0.73701 0.0
N875 N 0.63712 0.63308 0.73972 0.0
H876 H 0.81619 0.33034 0.10713 0.0
H877 H 0.77535 0.44662 0.08837 0.0
H878 H 0.80038 0.35649 0.0449 0.0
H879 H 0.78718 0.42014 0.15124 0.0
H880 H 0.77479 0.41097 0.07285 0.0
H881 H 0.79552 0.35907 0.12404 0.0
C882 C 0.80761 0.34167 0.09699 0.0
C883 C 0.81024 0.34134 0.07465 0.0
C884 C 0.77725 0.41287 0.09009 0.0
C885 C 0.78746 0.3746 0.09379 0.0
C886 C 0.77768 0.43323 0.09891 0.0
C887 C 0.78193 0.43623 0.12098 0.0
C888 C 0.78172 0.39544 0.10338 0.0
C889 C 0.78432 0.41843 0.13404 0.0
C890 C 0.79599 0.3582 0.10664 0.0
C891 C 0.79888 0.3563 0.06221 0.0
N892 N 0.78465 0.39875 0.12498 0.0
N893 N 0.78858 0.37273 0.07201 0.0
H894 H 0.69074 0.73643 0.6225 0.0
H895 H 0.68094 0.61116 0.62325 0.0
H896 H 0.64827 0.70265 0.57824 0.0
H897 H 0.73832 0.64332 0.64704 0.0
H898 H 0.66726 0.6447 0.60839 0.0
H899 H 0.70745 0.7026 0.63341 0.0
C900 C 0.68528 0.72191 0.61478 0.0
C901 C 0.66852 0.72231 0.59908 0.0
C902 C 0.68291 0.64433 0.61676 0.0
C903 C 0.68687 0.68361 0.61197 0.0
C904 C 0.69067 0.62521 0.62532 0.0
C905 C 0.71079 0.62437 0.63646 0.0
C906 C 0.69516 0.6628 0.61968 0.0
C907 C 0.72273 0.64314 0.63857 0.0
C908 C 0.69474 0.70263 0.62102 0.0
C909 C 0.66167 0.70306 0.58987 0.0
N910 N 0.71466 0.66157 0.63046 0.0
N911 N 0.67069 0.68447 0.59661 0.0
H912 H 0.06632 1.00152 0.32894 0.0
H913 H 0.03894 0.11363 0.27202 0.0
H914 H 0.04275 1.00618 0.2632 0.0
H915 H 0.07791 0.10686 0.33023 0.0
H916 H 0.03447 0.07477 0.27077 0.0
H917 H 0.06491 1.04034 0.33203 0.0
C918 C 0.06049 1.0106 0.31526 0.0
C919 C 0.05467 1.00032 0.29578 0.0
C920 C 0.04381 0.08187 0.28393 0.0
C921 C 0.05307 0.04518 0.29915 0.0
C922 C 0.0462 0.1041 0.28472 0.0
C923 C 0.05885 0.11369 0.30123 0.0
C924 C 0.05384 0.06908 0.29994 0.0
C925 C 0.06811 0.10031 0.31709 0.0
C926 C 0.05983 1.03287 0.31697 0.0
C927 C 0.04748 1.01324 0.27856 0.0
N928 N 0.06544 0.07894 0.31605 0.0
N929 N 0.04692 1.03481 0.28063 0.0
H930 H 0.34363 0.77784 0.57355 0.0
H931 H 0.23289 0.77167 0.50523 0.0
H932 H 0.34074 0.79727 0.50734 0.0
H933 H 0.23348 0.797 0.56998 0.0
H934 H 0.27286 0.77266 0.5059 0.0
H935 H 0.30359 0.77618 0.57294 0.0
C936 C 0.33461 0.78135 0.55879 0.0
C937 C 0.34556 0.7876 0.54042 0.0
C938 C 0.2642 0.77795 0.51996 0.0
C939 C 0.29985 0.78543 0.53954 0.0
C940 C 0.24141 0.77733 0.51962 0.0
C941 C 0.22976 0.7843 0.53756 0.0
C942 C 0.27556 0.7849 0.53862 0.0
C943 C 0.24176 0.79156 0.55575 0.0
C944 C 0.31179 0.7806 0.55851 0.0
C945 C 0.33298 0.79233 0.52183 0.0
N946 N 0.26394 0.79144 0.55592 0.0
N947 N 0.31089 0.79095 0.52179 0.0
H948 H 0.51883 1.00133 0.79304 0.0
H949 H 0.47845 0.10947 0.84952 0.0
H950 H 0.45861 1.01086 0.82577 0.0
H951 H 0.52604 0.11247 0.80016 0.0
H952 H 0.47523 0.07194 0.84315 0.0
H953 H 0.52577 1.0399 0.79717 0.0
C954 C 0.50713 1.01134 0.80111 0.0
C955 C 0.48802 1.00249 0.809 0.0
C956 C 0.48633 0.08061 0.83346 0.0
C957 C 0.49597 0.0467 0.81392 0.0
C958 C 0.48808 0.10239 0.83699 0.0
C959 C 0.50204 0.11478 0.82496 0.0
C960 C 0.49886 0.07029 0.81786 0.0
C961 C 0.51476 0.10386 0.80967 0.0
C962 C 0.51106 1.03342 0.80336 0.0
C963 C 0.47352 1.01655 0.81923 0.0
N964 N 0.51285 0.0823 0.80652 0.0
N965 N 0.47782 1.03753 0.82141 0.0
H966 H 0.34314 0.3055 1.00119 0.0
H967 H 0.24424 0.25871 0.06438 0.0
H968 H 0.35049 0.27506 0.06258 0.0
H969 H 0.23381 0.30551 1.01522 0.0
H970 H 0.28321 0.26397 0.06283 0.0
H971 H 0.30349 0.30557 1.00494 0.0
C972 C 0.33641 0.29892 1.01551 0.0
C973 C 0.35011 0.28972 1.03137 0.0
C974 C 0.2725 0.27331 0.0525 0.0
C975 C 0.30476 0.28977 0.03575 0.0
C976 C 0.25015 0.27028 0.05333 0.0
C977 C 0.23563 0.28167 0.03988 0.0
C978 C 0.28073 0.28765 0.03786 0.0
C979 C 0.24437 0.29648 1.02597 0.0
C980 C 0.31378 0.29897 1.01763 0.0
C981 C 0.34051 0.28172 0.04969 0.0
N982 N 0.26638 0.29887 1.02512 0.0
N983 N 0.3185 0.28169 0.05126 0.0
H984 H 0.23645 0.04381 0.988 0.0
H985 H 0.27372 1.03348 0.11316 0.0
H986 H 0.29952 1.0192 1.0066 0.0
H987 H 0.21698 0.06749 0.08964 0.0
H988 H 0.28259 1.02452 0.07543 0.0
H989 H 0.22809 0.0489 1.02595 0.0
C990 C 0.24861 1.03958 1.00013 0.0
C991 C 0.26887 1.03158 0.99397 0.0
C992 C 0.26814 1.03383 0.07863 0.0
C993 C 0.2593 1.03698 0.03806 0.0
C994 C 0.26299 1.03884 0.1002 0.0
C995 C 0.24453 0.0513 0.10481 0.0
C996 C 0.25461 1.04112 0.06151 0.0
C997 C 0.23143 0.05794 0.08715 0.0
C998 C 0.24381 1.04238 1.0219 0.0
C999 C 0.28373 1.02561 1.01054 0.0
N1000 N 0.23668 0.05281 0.06657 0.0
N1001 N 0.27873 1.02856 1.03178 0.0
H1002 H 0.26002 1.03694 0.2512 0.0
H1003 H 0.20851 0.09412 0.35441 0.0
H1004 H 0.2143 0.08894 0.24925 0.0
H1005 H 0.25298 1.04133 0.3611 0.0
H1006 H 0.21502 0.09474 0.31606 0.0
H1007 H 0.2623 1.04048 0.29089 0.0
C1008 C 0.25112 0.04961 0.25904 0.0
C1009 C 0.23733 0.06302 0.24682 0.0
C1010 C 0.22361 0.08307 0.32576 0.0
C1011 C 0.23926 0.06672 0.29226 0.0
C1012 C 0.21993 0.08274 0.34781 0.0
C1013 C 0.23017 0.06764 0.36114 0.0
C1014 C 0.23748 0.06793 0.31642 0.0
C1015 C 0.24484 0.05337 0.35152 0.0
C1016 C 0.25219 0.05144 0.28173 0.0
C1017 C 0.22547 0.07856 0.25793 0.0
N1018 N 0.24785 0.05367 0.3297 0.0
N1019 N 0.22665 0.0799 0.27983 0.0
H1020 H 0.2852 1.03036 0.48779 0.0
H1021 H 0.26782 0.06257 0.6123 0.0
H1022 H 0.23487 0.07411 0.50695 0.0
H1023 H 0.30168 1.00606 0.59171 0.0
H1024 H 0.25913 0.07051 0.57419 0.0
H1025 H 0.29497 1.02481 0.52579 0.0
C1026 C 0.27623 1.03894 0.49991 0.0
C1027 C 0.25901 0.05265 0.49386 0.0
C1028 C 0.26854 0.05643 0.57806 0.0
C1029 C 0.27047 0.04651 0.53799 0.0
C1030 C 0.27362 0.05193 0.59987 0.0
C1031 C 0.28554 1.03357 0.60549 0.0
C1032 C 0.27572 1.04269 0.56156 0.0
C1033 C 0.29241 1.02037 0.58842 0.0
C1034 C 0.28183 1.03571 0.52173 0.0
C1035 C 0.24821 0.06334 0.51063 0.0
N1036 N 0.28751 1.0252 0.56747 0.0
N1037 N 0.2541 0.06009 0.53178 0.0
H1038 H 0.33105 1.00501 0.85758 0.0
H1039 H 0.274 1.04052 0.74556 0.0
H1040 H 0.27226 1.04263 0.85672 0.0
H1041 H 0.33178 1.00181 0.75244 0.0
H1042 H 0.26994 1.03951 0.78511 0.0
H1043 H 0.3285 1.00158 0.81867 0.0
C1044 C 0.31737 1.01241 0.84916 0.0
C1045 C 0.30186 1.02411 0.8606 0.0
C1046 C 0.28331 1.03101 0.77787 0.0
C1047 C 0.29898 1.02063 0.81515 0.0
C1048 C 0.28553 1.03144 0.75525 0.0
C1049 C 0.30331 1.02126 0.74554 0.0
C1050 C 0.29892 1.02024 0.79082 0.0
C1051 C 0.31789 1.01002 0.75905 0.0
C1052 C 0.31593 1.01049 0.82677 0.0
C1053 C 0.2845 1.0333 0.84863 0.0
N1054 N 0.31543 1.00993 0.78074 0.0
N1055 N 0.28366 1.03159 0.82653 0.0
H1056 H 0.98751 0.2578 0.05167 0.0
H1057 H 0.08878 0.33349 0.04038 0.0
H1058 H 0.9818 0.32504 0.04163 0.0
H1059 H 0.09453 0.2666 1.02745 0.0
H1060 H 0.04934 0.33011 0.04136 0.0
H1061 H 0.02644 0.25969 0.04364 0.0
C1062 C 0.99428 0.27286 0.04748 0.0
C1063 C 0.98124 0.29129 0.04742 0.0
C1064 C 0.0591 0.31615 0.03799 0.0
C1065 C 0.02577 0.29358 0.03842 0.0
C1066 C 0.08165 0.31812 0.0374 0.0
C1067 C 0.09491 0.30035 1.03375 0.0
C1068 C 0.04962 0.29612 0.0355 0.0
C1069 C 0.08483 0.28074 1.03015 0.0
C1070 C 1.01651 0.27393 0.04292 0.0
C1071 C 0.99107 0.31039 0.04204 0.0
N1072 N 0.0628 0.27906 1.03147 0.0
N1073 N 1.01261 0.31104 0.03798 0.0
H1074 H 0.47894 0.30723 1.02993 0.0
H1075 H 0.59566 0.24922 0.03869 0.0
H1076 H 0.48819 0.24067 1.01662 0.0
H1077 H 0.58684 0.31458 1.0215 0.0
H1078 H 0.55596 0.24619 0.04148 0.0
H1079 H 0.51811 0.31022 0.03758 0.0
C1080 C 0.48909 0.29315 1.02907 0.0
C1081 C 0.48022 0.27368 1.02249 0.0
C1082 C 0.5628 0.26131 0.03759 0.0
C1083 C 0.52511 0.27701 1.03136 0.0
C1084 C 0.58544 0.2631 0.03627 0.0
C1085 C 0.59453 0.28223 1.03005 0.0
C1086 C 0.54925 0.27887 1.03301 0.0
C1087 C 0.58048 0.29959 1.02649 0.0
C1088 C 0.51148 0.29491 1.03331 0.0
C1089 C 0.49431 0.25602 1.02149 0.0
N1090 N 0.55861 0.29751 1.02799 0.0
N1091 N 0.51601 0.25811 1.0258 0.0
H1092 H 0.02394 0.24942 0.31819 0.0
H1093 H 0.0454 0.37122 0.28667 0.0
H1094 H 0.06902 0.26721 0.27003 0.0
H1095 H 0.98801 0.35079 0.31803 0.0
H1096 H 0.05897 0.33426 0.28664 0.0
H1097 H 1.01499 0.28714 0.32403 0.0
C1098 C 0.03219 0.26118 0.30903 0.0
C1099 C 0.04726 0.25484 0.29352 0.0
C1100 C 0.04358 0.33796 0.29391 0.0
C1101 C 0.03714 0.29848 0.30029 0.0
C1102 C 0.03596 0.35919 0.2942 0.0
C1103 C 1.01546 0.36435 0.30239 0.0
C1104 C 0.03087 0.3217 0.30227 0.0
C1105 C 1.00391 0.34773 0.31156 0.0
C1106 C 0.027 0.2828 0.31231 0.0
C1107 C 0.05722 0.2711 0.28209 0.0
N1108 N 1.01164 0.32738 0.31118 0.0
N1109 N 0.05204 0.29195 0.28569 0.0
H1110 H 0.08257 0.80323 0.55307 0.0
H1111 H 0.99021 0.72784 0.50484 0.0
H1112 H 0.09618 0.74155 0.52582 0.0
H1113 H 0.97613 0.7824 0.54467 0.0
H1114 H 0.02886 0.73183 0.51367 0.0
H1115 H 0.0438 0.79529 0.55168 0.0
C1116 C 0.07746 0.78786 0.5471 0.0
C1117 C 0.09279 0.77306 0.53952 0.0
C1118 C 1.01735 0.7428 0.52073 0.0
C1119 C 0.04809 0.76399 0.5375 0.0
C1120 C 0.99521 0.74053 0.51569 0.0
C1121 C 0.97979 0.75484 0.52397 0.0
C1122 C 0.02437 0.75973 0.53392 0.0
C1123 C 0.98735 0.77094 0.53796 0.0
C1124 C 0.05525 0.78335 0.54628 0.0
C1125 C 0.08506 0.75343 0.53194 0.0
N1126 N 1.00908 0.77311 0.54225 0.0
N1127 N 0.0633 0.7496 0.53085 0.0
H1128 H 0.59365 0.75383 0.53361 0.0
H1129 H 0.49525 0.81685 0.58691 0.0
H1130 H 0.60111 0.81289 0.56818 0.0
H1131 H 0.48414 0.76935 0.53753 0.0
H1132 H 0.53408 0.81438 0.58095 0.0
H1133 H 0.55397 0.75811 0.53509 0.0
C1134 C 0.58694 0.76777 0.54142 0.0
C1135 C 0.60075 0.78282 0.55126 0.0
C1136 C 0.52324 0.80459 0.57123 0.0
C1137 C 0.55528 0.78779 0.553 0.0
C1138 C 0.50095 0.80594 0.57465 0.0
C1139 C 0.48624 0.79327 0.56271 0.0
C1140 C 0.53127 0.79023 0.55588 0.0
C1141 C 0.49479 0.7795 0.54703 0.0
C1142 C 0.56427 0.77018 0.54226 0.0
C1143 C 0.59111 0.80066 0.56086 0.0
N1144 N 0.51675 0.77819 0.54422 0.0
N1145 N 0.56907 0.80252 0.56172 0.0
H1146 H 0.02435 0.87262 0.34188 0.0
H1147 H 0.0396 0.75217 0.29894 0.0
H1148 H 0.06655 0.8572 0.28983 0.0
H1149 H 1.00853 0.77048 0.35773 0.0
H1150 H 0.0466 0.78997 0.29218 0.0
H1151 H 1.01542 0.83523 0.34476 0.0
C1152 C 0.03204 0.86129 0.33126 0.0
C1153 C 0.04673 0.86818 0.31608 0.0
C1154 C 0.03807 0.78567 0.30645 0.0
C1155 C 0.03621 0.82469 0.31895 0.0
C1156 C 0.03387 0.76406 0.31021 0.0
C1157 C 0.02334 0.75791 0.32894 0.0
C1158 C 0.03149 0.80137 0.32138 0.0
C1159 C 1.0167 0.77421 0.34308 0.0
C1160 C 0.0268 0.83983 0.33278 0.0
C1161 C 0.05533 0.85269 0.302 0.0
N1162 N 0.02085 0.7949 0.33904 0.0
N1163 N 0.05009 0.83174 0.30387 0.0
H1164 H 0.50483 0.25646 0.80695 0.0
H1165 H 0.58252 0.35469 0.83793 0.0
H1166 H 0.55811 0.25607 0.85332 0.0
H1167 H 0.52252 0.36532 0.80211 0.0
H1168 H 0.57505 0.31728 0.83863 0.0
H1169 H 0.51192 0.29442 0.80026 0.0
C1170 C 0.5182 0.26414 0.81543 0.0
C1171 C 0.53092 0.25284 0.83073 0.0
C1172 C 0.5634 0.32758 0.83047 0.0
C1173 C 0.53908 0.29632 0.82322 0.0
C1174 C 0.56772 0.34921 0.82999 0.0
C1175 C 0.55315 0.3636 0.82001 0.0
C1176 C 0.54419 0.31959 0.82095 0.0
C1177 C 0.53434 0.35499 0.80994 0.0
C1178 C 0.52212 0.28589 0.81175 0.0
C1179 C 0.54778 0.26391 0.84143 0.0
N1180 N 0.53033 0.33362 0.81078 0.0
N1181 N 0.55128 0.28469 0.83748 0.0
H1182 H 0.52754 0.50122 0.80245 0.0
H1183 H 0.57094 0.61449 0.84534 0.0
H1184 H 0.58629 0.51113 0.84022 0.0
H1185 H 0.52134 0.60964 0.79546 0.0
H1186 H 0.57129 0.57603 0.84865 0.0
H1187 H 0.51999 0.53977 0.80427 0.0
C1188 C 0.53856 0.51137 0.81154 0.0
C1189 C 0.55757 0.5028 0.82126 0.0
C1190 C 0.55997 0.58325 0.83722 0.0
C1191 C 0.54909 0.54699 0.82333 0.0
C1192 C 0.55958 0.60532 0.83552 0.0
C1193 C 0.54573 0.61545 0.82048 0.0
C1194 C 0.5466 0.5708 0.82355 0.0
C1195 C 0.53189 0.60259 0.80767 0.0
C1196 C 0.53436 0.53342 0.8124 0.0
C1197 C 0.57145 0.5169 0.83246 0.0
N1198 N 0.53276 0.58096 0.80938 0.0
N1199 N 0.56696 0.53805 0.83315 0.0
H1200 H 0.8444 0.27115 0.08531 0.0
H1201 H 0.73612 0.26486 1.0129 0.0
H1202 H 0.84464 0.28465 1.01757 0.0
H1203 H 0.73472 0.29288 0.07646 0.0
H1204 H 0.77604 0.26464 1.01522 0.0
H1205 H 0.80428 0.2716 0.08353 0.0
C1206 C 0.83604 0.27387 0.07002 0.0
C1207 C 0.8479 0.27773 0.05152 0.0
C1208 C 0.76697 0.2708 1.02867 0.0
C1209 C 0.80209 0.27795 0.04931 0.0
C1210 C 0.74419 0.27087 1.02739 0.0
C1211 C 0.73198 0.27893 0.0445 0.0
C1212 C 0.77778 0.2782 0.04746 0.0
C1213 C 0.74343 0.2866 0.06285 0.0
C1214 C 0.81318 0.27431 0.06906 0.0
C1215 C 0.83616 0.28152 1.03219 0.0
N1216 N 0.76563 0.28582 0.06396 0.0
N1217 N 0.81401 0.2813 1.03153 0.0
H1218 H 0.02345 0.50175 0.32535 0.0
H1219 H 1.00586 0.62138 0.28251 0.0
H1220 H 0.9866 0.51682 0.26757 0.0
H1221 H 1.0184 0.60712 0.34926 0.0
H1222 H 1.00636 0.58308 0.27407 0.0
H1223 H 0.02951 0.53996 0.33161 0.0
C1224 C 1.01714 0.51297 0.31367 0.0
C1225 C 1.00463 0.50586 0.29578 0.0
C1226 C 1.0094 0.58834 0.29052 0.0
C1227 C 1.01141 0.54988 0.30291 0.0
C1228 C 1.00933 0.61026 0.2953 0.0
C1229 C 1.0124 0.61763 0.3166 0.0
C1230 C 1.01292 0.5735 0.30709 0.0
C1231 C 1.01618 0.60227 0.33257 0.0
C1232 C 1.02039 0.53486 0.31737 0.0
C1233 C 0.99644 0.52142 0.28152 0.0
N1234 N 1.01641 0.58113 0.32753 0.0
N1235 N 0.99997 0.54246 0.28534 0.0
H1236 H 0.7309 0.77799 0.53041 0.0
H1237 H 0.85229 0.74735 0.57152 0.0
H1238 H 0.7457 0.73076 0.57821 0.0
H1239 H 0.83913 0.78153 0.51305 0.0
H1240 H 0.81311 0.74504 0.57695 0.0
H1241 H 0.77012 0.78348 0.52658 0.0
C1242 C 0.74232 0.76898 0.5403 0.0
C1243 C 0.73486 0.75387 0.55466 0.0
C1244 C 0.81873 0.75306 0.56291 0.0
C1245 C 0.77987 0.76006 0.55033 0.0
C1246 C 0.84113 0.75428 0.55975 0.0
C1247 C 0.84904 0.76408 0.5415 0.0
C1248 C 0.80394 0.76208 0.54788 0.0
C1249 C 0.83379 0.77353 0.52721 0.0
C1250 C 0.76474 0.77202 0.53799 0.0
C1251 C 0.75056 0.74254 0.56688 0.0
N1252 N 0.81202 0.7722 0.53062 0.0
N1253 N 0.77216 0.74586 0.56445 0.0
H1254 H 0.79821 0.5694 0.58394 0.0
H1255 H 0.73647 0.5316 0.47652 0.0
H1256 H 0.73268 0.54677 0.58627 0.0
H1257 H 0.80587 0.52595 0.48511 0.0
H1258 H 0.73359 0.53958 0.51531 0.0
H1259 H 0.80035 0.55638 0.54685 0.0
C1260 C 0.78427 0.56146 0.57672 0.0
C1261 C 0.76528 0.55905 0.58848 0.0
C1262 C 0.74942 0.53635 0.50877 0.0
C1263 C 0.7675 0.54443 0.54529 0.0
C1264 C 0.75109 0.53183 0.4866 0.0
C1265 C 0.77145 0.52803 0.47747 0.0
C1266 C 0.7683 0.53766 0.52195 0.0
C1267 C 0.78983 0.52863 0.49138 0.0
C1268 C 0.78555 0.55401 0.55545 0.0
C1269 C 0.74775 0.54874 0.57802 0.0
N1270 N 0.78785 0.53366 0.51272 0.0
N1271 N 0.74917 0.54208 0.55697 0.0
H1272 H 0.73486 0.60204 0.73568 0.0
H1273 H 0.7587 0.53602 0.84267 0.0
H1274 H 0.76289 0.5394 0.73044 0.0
H1275 H 0.75448 0.60404 0.83975 0.0
H1276 H 0.75888 0.53461 0.80276 0.0
H1277 H 0.73953 0.60074 0.77444 0.0
C1278 C 0.74211 0.58792 0.74262 0.0
C1279 C 0.74857 0.57084 0.72943 0.0
C1280 C 0.75819 0.5498 0.81097 0.0
C1281 C 0.75384 0.56917 0.77487 0.0
C1282 C 0.75818 0.55063 0.83378 0.0
C1283 C 0.75647 0.57019 0.84484 0.0
C1284 C 0.75624 0.56864 0.79912 0.0
C1285 C 0.75564 0.58854 0.83224 0.0
C1286 C 0.74484 0.58723 0.76498 0.0
C1287 C 0.75785 0.55305 0.73983 0.0
N1288 N 0.75532 0.58727 0.81036 0.0
N1289 N 0.76004 0.55258 0.76192 0.0
H1290 H 0.77989 0.56771 0.09522 0.0
H1291 H 0.79938 0.52443 0.97439 0.0
H1292 H 0.81351 0.50936 0.08023 0.0
H1293 H 0.75051 0.57162 0.98801 0.0
H1294 H 0.80756 0.52151 1.01301 0.0
H1295 H 0.7719 0.57239 0.05634 0.0
C1296 C 0.78579 0.55599 0.08386 0.0
C1297 C 0.79747 0.5381 0.0913 0.0
C1298 C 0.79499 0.53251 1.00764 0.0
C1299 C 0.78838 0.54342 0.04651 0.0
C1300 C 0.79021 0.53408 0.98545 0.0
C1301 C 0.77388 0.54794 0.97764 0.0
C1302 C 0.78372 0.5452 1.02253 0.0
C1303 C 0.7631 0.56053 0.99308 0.0
C1304 C 0.7811 0.55861 0.06161 0.0
C1305 C 0.80444 0.52341 0.07556 0.0
N1306 N 0.76819 0.55889 1.01464 0.0
N1307 N 0.7999 0.52643 0.05418 0.0
H1308 H 0.81625 0.56774 0.34471 0.0
H1309 H 0.78437 0.51409 0.22998 0.0
H1310 H 0.78087 0.50944 0.34106 0.0
H1311 H 0.8302 0.56421 0.24107 0.0
H1312 H 0.7771 0.51446 0.26911 0.0
H1313 H 0.81494 0.56951 0.30567 0.0
C1314 C 0.80785 0.55541 0.33565 0.0
C1315 C 0.7987 0.5384 0.34631 0.0
C1316 C 0.78855 0.5255 0.26284 0.0
C1317 C 0.7976 0.54001 0.30088 0.0
C1318 C 0.79257 0.52539 0.24051 0.0
C1319 C 0.80796 0.53913 0.2322 0.0
C1320 C 0.79976 0.53968 0.27679 0.0
C1321 C 0.81831 0.55324 0.24667 0.0
C1322 C 0.80722 0.55635 0.31322 0.0
C1323 C 0.788 0.52293 0.33355 0.0
N1324 N 0.81405 0.55312 0.268 0.0
N1325 N 0.78798 0.52394 0.31149 0.0
H1326 H 0.55035 0.7593 0.83143 0.0
H1327 H 0.47447 0.84839 0.77544 0.0
H1328 H 0.48973 0.74744 0.7978 0.0
H1329 H 0.52469 0.86595 0.8218 0.0
H1330 H 0.48246 0.81145 0.78205 0.0
H1331 H 0.54369 0.79774 0.82736 0.0
C1332 C 0.53566 0.76469 0.82313 0.0
C1333 C 0.52077 0.74988 0.81444 0.0
C1334 C 0.49178 0.82323 0.79094 0.0
C1335 C 0.51306 0.79407 0.8097 0.0
C1336 C 0.48724 0.84461 0.78714 0.0
C1337 C 0.49881 0.86078 0.79809 0.0
C1338 C 0.50827 0.81731 0.80579 0.0
C1339 C 0.51519 0.85426 0.813 0.0
C1340 C 0.53188 0.7867 0.82082 0.0
C1341 C 0.50198 0.75804 0.80411 0.0
N1342 N 0.51948 0.83311 0.81633 0.0
N1343 N 0.49879 0.77931 0.80191 0.0
H1344 H 0.13072 0.18996 0.34425 0.0
H1345 H 0.14757 0.09654 0.42814 0.0
H1346 H 0.07781 0.15592 0.37086 0.0
H1347 H 0.19973 0.13559 0.40759 0.0
H1348 H 0.12145 0.12035 0.41017 0.0
H1349 H 0.1558 0.17281 0.37001 0.0
C1350 C 0.12433 0.17917 0.35581 0.0
C1351 C 0.10217 0.17431 0.35539 0.0
C1352 C 0.13857 0.12393 0.40983 0.0
C1353 C 0.13084 0.15426 0.38469 0.0
C1354 C 0.15349 0.11035 0.42014 0.0
C1355 C 0.17585 0.11407 0.41929 0.0
C1356 C 0.14604 0.14125 0.39832 0.0
C1357 C 0.18263 0.13216 0.40866 0.0
C1358 C 0.13867 0.16932 0.37048 0.0
C1359 C 0.09477 0.16014 0.37066 0.0
N1360 N 0.16782 0.14493 0.39836 0.0
N1361 N 0.1091 0.15042 0.3845 0.0
H1362 H 0.22486 0.85969 0.62596 0.0
H1363 H 0.23309 0.9537 0.68556 0.0
H1364 H 0.19106 0.89683 0.57762 0.0
H1365 H 0.22376 0.9844 0.62457 0.0
H1366 H 0.22392 0.91983 0.66831 0.0
H1367 H 0.23114 0.89168 0.64727 0.0
C1368 C 0.21834 0.87456 0.62001 0.0
C1369 C 0.20719 0.87545 0.60001 0.0
C1370 C 0.22431 0.93378 0.65847 0.0
C1371 C 0.21437 0.9126 0.62456 0.0
C1372 C 0.22956 0.95314 0.66838 0.0
C1373 C 0.23001 0.97164 0.65627 0.0
C1374 C 0.21925 0.93292 0.63622 0.0
C1375 C 0.2243 0.97031 0.63428 0.0
C1376 C 0.22184 0.89294 0.63232 0.0
C1377 C 0.1995 0.8953 0.59305 0.0
N1378 N 0.21924 0.95129 0.62494 0.0
N1379 N 0.20345 0.91308 0.60516 0.0
H1380 H 0.46752 0.96058 0.87735 0.0
H1381 H 0.38331 1.01623 0.92672 0.0
H1382 H 0.41577 0.92496 0.84683 0.0
H1383 H 0.34453 0.96118 0.91311 0.0
H1384 H 0.41393 0.99886 0.90923 0.0
H1385 H 0.44151 0.97582 0.90254 0.0
C1386 C 0.45071 0.9558 0.87611 0.0
C1387 C 0.44378 0.94157 0.85989 0.0
C1388 C 0.39899 0.99024 0.91054 0.0
C1389 C 0.41364 0.95949 0.88824 0.0
C1390 C 0.38142 1.00025 0.9205 0.0
C1391 C 0.36136 0.9901 0.92149 0.0
C1392 C 0.39647 0.96991 0.90135 0.0
C1393 C 0.35973 0.96954 0.91283 0.0
C1394 C 0.43575 0.96475 0.89032 0.0
C1395 C 0.4218 0.93594 0.85903 0.0
N1396 N 0.37693 0.96026 0.9029 0.0
N1397 N 0.40754 0.94495 0.87291 0.0
H1398 H 0.29615 0.10812 0.08493 0.0
H1399 H 0.36433 0.21005 0.11607 0.0
H1400 H 0.30213 0.1322 0.1501 0.0
H1401 H 0.37048 0.1765 0.05558 0.0
H1402 H 0.34376 0.18047 0.12972 0.0
H1403 H 0.32516 0.13154 0.07458 0.0
C1404 C 0.30386 0.11803 0.09719 0.0
C1405 C 0.29658 0.11821 0.11843 0.0
C1406 C 0.34995 0.17939 0.1136 0.0
C1407 C 0.32974 0.14543 0.10656 0.0
C1408 C 0.36178 0.19627 0.10581 0.0
C1409 C 0.36916 0.19584 0.08462 0.0
C1410 C 0.34512 0.16204 0.1 0.0
C1411 C 0.36524 0.17757 0.07205 0.0
C1412 C 0.32045 0.13146 0.09124 0.0
C1413 C 0.3072 0.13147 0.13356 0.0
N1414 N 0.35321 0.16159 0.0798 0.0
N1415 N 0.32299 0.14476 0.12727 0.0
H1416 H 0.10003 0.94565 0.23213 0.0
H1417 H 0.2206 0.9881 0.21632 0.0
H1418 H 0.15048 0.94325 0.28155 0.0
H1419 H 0.16597 1.0044 0.17467 0.0
H1420 H 0.19702 0.96533 0.23679 0.0
H1421 H 0.12582 0.96097 0.20759 0.0
C1422 C 0.11663 0.94805 0.23771 0.0
C1423 C 0.12311 0.94325 0.25893 0.0
C1424 C 0.19025 0.97365 0.22299 0.0
C1425 C 0.15272 0.96086 0.23095 0.0
C1426 C 0.20375 0.98652 0.21119 0.0
C1427 C 0.19521 0.99819 0.19379 0.0
C1428 C 0.16808 0.97232 0.21728 0.0
C1429 C 0.17321 0.99569 0.18798 0.0
C1430 C 0.13132 0.95689 0.22372 0.0
C1431 C 0.14481 0.94677 0.26533 0.0
N1432 N 0.16038 0.98315 0.19977 0.0
N1433 N 0.1588 0.95545 0.25144 0.0
H1434 H 0.28552 0.95797 0.42304 0.0
H1435 H 0.36803 0.9024 0.50698 0.0
H1436 H 0.33591 0.9912 0.45871 0.0
H1437 H 0.31888 0.86887 0.4699 0.0
H1438 H 0.35904 0.93435 0.48666 0.0
H1439 H 0.30034 0.92455 0.43664 0.0
C1440 C 0.30001 0.95825 0.4333 0.0
C1441 C 0.30935 0.97753 0.43985 0.0
C1442 C 0.35035 0.91996 0.48282 0.0
C1443 C 0.32621 0.9392 0.45584 0.0
C1444 C 0.35549 0.90168 0.49444 0.0
C1445 C 0.34414 0.8829 0.49025 0.0
C1446 C 0.33364 0.91954 0.46694 0.0
C1447 C 0.32805 0.88296 0.47376 0.0
C1448 C 0.30838 0.93912 0.44123 0.0
C1449 C 0.32806 0.97678 0.45332 0.0
N1450 N 0.32318 0.901 0.46286 0.0
N1451 N 0.33569 0.95801 0.46106 0.0
H1452 H 0.38046 0.06095 0.68731 0.0
H1453 H 0.40856 0.15216 0.7743 0.0
H1454 H 0.33114 0.10288 0.71215 0.0
H1455 H 0.44621 0.09473 0.76682 0.0
H1456 H 0.38305 0.13952 0.74584 0.0
H1457 H 0.4076 0.07864 0.71033 0.0
C1458 C 0.37537 0.07416 0.69732 0.0
C1459 C 0.35343 0.08039 0.69781 0.0
C1460 C 0.39707 0.12985 0.75028 0.0
C1461 C 0.38461 0.10075 0.72442 0.0
C1462 C 0.41174 0.13713 0.76636 0.0
C1463 C 0.42959 0.12449 0.77295 0.0
C1464 C 0.40051 0.10998 0.74042 0.0
C1465 C 0.43269 0.10499 0.76231 0.0
C1466 C 0.3909 0.08418 0.71059 0.0
C1467 C 0.34786 0.09757 0.71124 0.0
N1468 N 0.41836 0.09838 0.74663 0.0
N1469 N 0.36333 0.10711 0.72409 0.0
H1470 H 0.17403 0.22708 0.97969 0.0
H1471 H 0.19354 0.10439 1.00424 0.0
H1472 H 0.16602 0.20019 0.04234 0.0
H1473 H 0.22052 0.13557 0.94989 0.0
H1474 H 0.17651 0.13777 1.01516 0.0
H1475 H 0.18441 0.19217 0.96572 0.0
C1476 C 0.17421 0.21375 0.99046 0.0
C1477 C 0.16923 0.21651 1.01222 0.0
C1478 C 0.18596 0.13724 1.00072 0.0
C1479 C 0.18109 0.1765 0.99631 0.0
C1480 C 0.19559 0.11815 0.99434 0.0
C1481 C 0.20866 0.11715 0.97614 0.0
C1482 C 0.18919 0.15551 0.98874 0.0
C1483 C 0.21068 0.13557 0.96405 0.0
C1484 C 0.18022 0.19385 0.98247 0.0
C1485 C 0.16976 0.19872 1.02546 0.0
N1486 N 0.20116 0.15402 0.97063 0.0
N1487 N 0.17566 0.17944 1.0173 0.0
H1488 H 0.11543 0.33924 0.15126 0.0
H1489 H 1.01978 0.4105 0.19967 0.0
H1490 H 0.07375 0.38004 0.11278 0.0
H1491 H 0.05971 0.36695 0.23665 0.0
H1492 H 0.04356 0.40477 0.16901 0.0
H1493 H 0.09952 0.35429 0.18374 0.0
C1494 C 0.10321 0.35162 0.14962 0.0
C1495 C 0.09576 0.35816 0.12919 0.0
C1496 C 0.04732 0.39675 0.18396 0.0
C1497 C 0.0772 0.37534 0.16643 0.0
C1498 C 0.03383 0.40016 0.20153 0.0
C1499 C 0.03762 0.38902 0.22068 0.0
C1500 C 0.06471 0.38213 0.18561 0.0
C1501 C 0.05602 0.37569 0.22211 0.0
C1502 C 0.09404 0.36017 0.16821 0.0
C1503 C 0.07989 0.37434 0.12816 0.0
N1504 N 0.06868 0.37245 0.20479 0.0
N1505 N 0.07095 0.38216 0.14646 0.0
H1506 H 0.5654 0.17257 0.90765 0.0
H1507 H 0.64711 0.26502 0.93948 0.0
H1508 H 0.59156 0.21332 0.86005 0.0
H1509 H 0.63883 0.21072 0.97947 0.0
H1510 H 0.62631 0.24717 0.91037 0.0
H1511 H 0.59147 0.18684 0.93444 0.0
C1512 C 0.57687 0.1843 0.90276 0.0
C1513 C 0.5764 0.19164 0.88154 0.0
C1514 C 0.62928 0.23905 0.92542 0.0
C1515 C 0.60598 0.20852 0.91232 0.0
C1516 C 0.64118 0.24922 0.94203 0.0
C1517 C 0.64479 0.23933 0.96193 0.0
C1518 C 0.62053 0.21897 0.92884 0.0
C1519 C 0.63654 0.21892 0.96438 0.0
C1520 C 0.59174 0.19248 0.91807 0.0
C1521 C 0.59151 0.20704 0.87617 0.0
N1522 N 0.62462 0.20955 0.94818 0.0
N1523 N 0.60547 0.21516 0.89149 0.0
H1524 H 0.99607 0.89016 0.41332 0.0
H1525 H 0.93162 0.78348 0.43545 0.0
H1526 H 1.00887 0.82937 0.38363 0.0
H1527 H 0.92878 0.83781 0.47801 0.0
H1528 H 0.95368 0.80353 0.4111 0.0
H1529 H 0.96575 0.87436 0.43242 0.0
C1530 C 0.9923 0.87365 0.41056 0.0
C1531 C 1.00511 0.86102 0.39702 0.0
C1532 C 0.94804 0.81121 0.42563 0.0
C1533 C 0.97059 0.84301 0.4185 0.0
C1534 C 0.93533 0.79978 0.43947 0.0
C1535 C 0.92855 0.80894 0.45885 0.0
C1536 C 0.95415 0.83197 0.4312 0.0
C1537 C 0.93379 0.83015 0.46324 0.0
C1538 C 0.9751 0.86464 0.42149 0.0
C1539 C 0.99959 0.83969 0.39405 0.0
N1540 N 0.94653 0.84091 0.44965 0.0
N1541 N 0.98286 0.83141 0.4047 0.0
H1542 H 0.93813 0.2207 0.12633 0.0
H1543 H 0.97271 0.25141 0.24811 0.0
H1544 H 0.92923 0.28287 0.15427 0.0
H1545 H 0.98875 0.19139 0.21831 0.0
H1546 H 0.95261 0.26149 0.21535 0.0
H1547 H 0.95288 0.20827 0.16104 0.0
C1548 C 0.93908 0.23169 0.13984 0.0
C1549 C 0.93246 0.25286 0.1374 0.0
C1550 C 0.96032 0.24602 0.21603 0.0
C1551 C 0.94939 0.23876 0.17722 0.0
C1552 C 0.97173 0.24017 0.23482 0.0
C1553 C 0.9826 0.22052 0.23606 0.0
C1554 C 0.95965 0.23215 0.19818 0.0
C1555 C 0.98065 0.20668 0.21821 0.0
C1556 C 0.94755 0.22459 0.15965 0.0
C1557 C 0.93415 0.26642 0.15543 0.0
N1558 N 0.9696 0.21283 0.19999 0.0
N1559 N 0.94249 0.25917 0.17452 0.0
H1560 H 0.46629 0.70059 0.71132 0.0
H1561 H 0.41383 0.79598 0.64547 0.0
H1562 H 0.43927 0.7563 0.74192 0.0
H1563 H 0.42401 0.73393 0.6176 0.0
H1564 H 0.42212 0.78146 0.68122 0.0
H1565 H 0.44949 0.71169 0.67711 0.0
C1566 C 0.45649 0.71493 0.71096 0.0
C1567 C 0.4544 0.72762 0.72951 0.0
C1568 C 0.42228 0.77097 0.66731 0.0
C1569 C 0.43551 0.74066 0.6903 0.0
C1570 C 0.41758 0.77926 0.64693 0.0
C1571 C 0.41834 0.76613 0.62862 0.0
C1572 C 0.42804 0.74946 0.66929 0.0
C1573 C 0.42332 0.7446 0.63134 0.0
C1574 C 0.44695 0.72131 0.69139 0.0
C1575 C 0.44146 0.74605 0.72804 0.0
N1576 N 0.42821 0.73698 0.65126 0.0
N1577 N 0.43282 0.75219 0.70872 0.0
H1578 H 0.13916 0.77495 0.43831 0.0
H1579 H 0.07408 0.67385 0.39845 0.0
H1580 H 0.14656 0.71451 0.46915 0.0
H1581 H 0.08898 0.72363 0.35475 0.0
H1582 H 0.0997 0.68907 0.42509 0.0
H1583 H 0.11998 0.75742 0.40784 0.0
C1584 C 0.13707 0.75797 0.43851 0.0
C1585 C 0.14448 0.74617 0.45628 0.0
C1586 C 0.09762 0.69651 0.40956 0.0
C1587 C 0.12217 0.72613 0.4218 0.0
C1588 C 0.08303 0.68779 0.39434 0.0
C1589 C 0.07952 0.6974 0.37433 0.0
C1590 C 0.1084 0.71533 0.40497 0.0
C1591 C 0.09139 0.7156 0.36993 0.0
C1592 C 0.1261 0.74798 0.42115 0.0
C1593 C 0.14116 0.72423 0.45578 0.0
N1594 N 0.10505 0.72417 0.38524 0.0
N1595 N 0.13002 0.715 0.43901 0.0
H1596 H 0.42644 0.35546 0.96242 0.0
H1597 H 0.50368 0.34475 0.86174 0.0
H1598 H 0.43759 0.29748 0.92691 0.0
H1599 H 0.49378 0.40341 0.89647 0.0
H1600 H 0.47466 0.32891 0.88172 0.0
H1601 H 0.44629 0.37471 0.93533 0.0
C1602 C 0.43275 0.34684 0.94872 0.0
C1603 C 0.43052 0.32482 0.94698 0.0
C1604 C 0.47853 0.34535 0.88481 0.0
C1605 C 0.45339 0.34668 0.91601 0.0
C1606 C 0.49506 0.35444 0.8733 0.0
C1607 C 0.50127 0.37539 0.87756 0.0
C1608 C 0.46824 0.35715 0.90099 0.0
C1609 C 0.48948 0.38722 0.89266 0.0
C1610 C 0.44413 0.35783 0.93328 0.0
C1611 C 0.43903 0.31444 0.92894 0.0
N1612 N 0.47377 0.37783 0.90411 0.0
N1613 N 0.45025 0.32541 0.9143 0.0
H1614 H 0.6982 0.62734 0.92128 0.0
H1615 H 0.6225 0.6561 0.82142 0.0
H1616 H 0.67552 0.57986 0.87586 0.0
H1617 H 0.60382 0.67948 0.88386 0.0
H1618 H 0.65091 0.63439 0.83883 0.0
H1619 H 0.67116 0.65251 0.90582 0.0
C1620 C 0.68748 0.62222 0.90818 0.0
C1621 C 0.68893 0.6015 0.89989 0.0
C1622 C 0.64078 0.64453 0.84866 0.0
C1623 C 0.65889 0.63016 0.88184 0.0
C1624 C 0.62471 0.65705 0.83877 0.0
C1625 C 0.61079 0.66958 0.85125 0.0
C1626 C 0.64331 0.64489 0.87115 0.0
C1627 C 0.61425 0.67002 0.8737 0.0
C1628 C 0.67215 0.63652 0.89942 0.0
C1629 C 0.67479 0.59563 0.88283 0.0
N1630 N 0.63025 0.65782 0.883 0.0
N1631 N 0.66058 0.60996 0.87417 0.0
H1632 H 0.7402 0.49757 0.11152 0.0
H1633 H 0.71325 0.3733 0.11087 0.0
H1634 H 0.7365 0.46192 0.16979 0.0
H1635 H 0.70916 0.41305 0.05497 0.0
H1636 H 0.72321 0.40457 0.13296 0.0
H1637 H 0.73029 0.46584 0.09058 0.0
C1638 C 0.73758 0.48291 0.11983 0.0
C1639 C 0.73975 0.48212 0.14229 0.0
C1640 C 0.71995 0.40639 0.11587 0.0
C1641 C 0.72787 0.44576 0.11858 0.0
C1642 C 0.71423 0.38854 0.10327 0.0
C1643 C 0.71014 0.39048 0.08102 0.0
C1644 C 0.72164 0.42626 0.10612 0.0
C1645 C 0.71198 0.41066 0.07204 0.0
C1646 C 0.73173 0.46483 0.10794 0.0
C1647 C 0.73549 0.46295 0.15242 0.0
N1648 N 0.71758 0.42761 0.08455 0.0
N1649 N 0.7299 0.44547 0.1405 0.0
H1650 H 0.88336 0.51323 0.40927 0.0
H1651 H 0.92193 0.42419 0.32623 0.0
H1652 H 0.84331 0.4604 0.39038 0.0
H1653 H 0.96681 0.46508 0.3605 0.0
H1654 H 0.8928 0.43727 0.34926 0.0
H1655 H 0.91411 0.49612 0.39141 0.0
C1656 C 0.88113 0.49789 0.40162 0.0
C1657 C 0.86076 0.48821 0.40135 0.0
C1658 C 0.90907 0.4432 0.35192 0.0
C1659 C 0.89576 0.46871 0.38047 0.0
C1660 C 0.9257 0.43571 0.33879 0.0
C1661 C 0.94682 0.44353 0.34148 0.0
C1662 C 0.91349 0.45891 0.36763 0.0
C1663 C 0.95077 0.45856 0.35792 0.0
C1664 C 0.89867 0.48813 0.39139 0.0
C1665 C 0.85875 0.46839 0.39105 0.0
N1666 N 0.93425 0.46593 0.37019 0.0
N1667 N 0.87592 0.45942 0.38083 0.0
H1668 H 0.82991 0.58218 0.62689 0.0
H1669 H 0.87908 0.69866 0.62393 0.0
H1670 H 0.81332 0.63298 0.67062 0.0
H1671 H 0.88389 0.65363 0.57141 0.0
H1672 H 0.86277 0.67151 0.6456 0.0
H1673 H 0.85698 0.60499 0.61091 0.0
C1674 C 0.83239 0.59792 0.63352 0.0
C1675 C 0.81935 0.60575 0.65007 0.0
C1676 C 0.86769 0.66745 0.62945 0.0
C1677 C 0.85007 0.63193 0.6318 0.0
C1678 C 0.87714 0.68294 0.61707 0.0
C1679 C 0.88264 0.67857 0.59566 0.0
C1680 C 0.86363 0.64736 0.62044 0.0
C1681 C 0.87981 0.65781 0.58778 0.0
C1682 C 0.8477 0.61098 0.62427 0.0
C1683 C 0.823 0.62635 0.65785 0.0
N1684 N 0.87023 0.64306 0.60005 0.0
N1685 N 0.83789 0.63875 0.64857 0.0
H1686 H 0.70009 0.51124 0.74002 0.0
H1687 H 0.58153 0.46535 0.73946 0.0
H1688 H 0.65535 0.52221 0.68666 0.0
H1689 H 0.63519 0.43663 0.77475 0.0
H1690 H 0.60753 0.48613 0.71938 0.0
H1691 H 0.67623 0.48381 0.75286 0.0
C1692 C 0.6854 0.50761 0.7308 0.0
C1693 C 0.67975 0.51898 0.71221 0.0
C1694 C 0.61359 0.47497 0.73124 0.0
C1695 C 0.65194 0.48793 0.72716 0.0
C1696 C 0.59877 0.46307 0.74264 0.0
C1697 C 0.6062 0.44927 0.75884 0.0
C1698 C 0.63594 0.4733 0.73637 0.0
C1699 C 0.62872 0.44708 0.76244 0.0
C1700 C 0.67175 0.49195 0.73814 0.0
C1701 C 0.66042 0.51368 0.70096 0.0
N1702 N 0.64272 0.45918 0.75158 0.0
N1703 N 0.64701 0.4988 0.70882 0.0
H1704 H 0.83953 0.3523 0.96876 0.0
H1705 H 0.85233 0.47759 0.96033 0.0
H1706 H 0.88048 0.3895 1.01169 0.0
H1707 H 0.80455 0.44174 0.92378 0.0
H1708 H 0.86781 0.4446 0.97426 0.0
H1709 H 0.83147 0.38388 0.94766 0.0
C1710 C 0.84709 0.36704 0.97362 0.0
C1711 C 0.86057 0.36823 0.99221 0.0
C1712 C 0.85413 0.44392 0.96296 0.0
C1713 C 0.85128 0.40459 0.96803 0.0
C1714 C 0.84533 0.46278 0.95486 0.0
C1715 C 0.82691 0.46253 0.94101 0.0
C1716 C 0.84448 0.42459 0.9572 0.0
C1717 C 0.81866 0.44277 0.93449 0.0
C1718 C 0.84241 0.38511 0.96155 0.0
C1719 C 0.8699 0.38781 0.99759 0.0
N1720 N 0.82733 0.42464 0.94284 0.0
N1721 N 0.86494 0.40523 0.98568 0.0
H1722 H 0.8383 0.61062 0.2011 0.0
H1723 H 0.95365 0.5978 0.26028 0.0
H1724 H 0.88923 0.57023 0.1769 0.0
H1725 H 0.91415 0.65374 0.26972 0.0
H1726 H 0.92957 0.5872 0.2302 0.0
H1727 H 0.86482 0.62672 0.22659 0.0
C1728 C 0.85512 0.60544 0.20083 0.0
C1729 C 0.86154 0.58909 0.18675 0.0
C1730 C 0.92626 0.60194 0.23864 0.0
C1731 C 0.89184 0.60703 0.21626 0.0
C1732 C 0.94004 0.60801 0.25585 0.0
C1733 C 0.93601 0.62674 0.26754 0.0
C1734 C 0.90788 0.61439 0.23324 0.0
C1735 C 0.91801 0.63927 0.26105 0.0
C1736 C 0.87024 0.61457 0.21545 0.0
C1737 C 0.88352 0.58283 0.18735 0.0
N1738 N 0.90444 0.63273 0.24456 0.0
N1739 N 0.89773 0.59157 0.20199 0.0
H1740 H 0.66047 0.67238 0.53177 0.0
H1741 H 0.71842 0.62784 0.42906 0.0
H1742 H 0.67178 0.71184 0.47726 0.0
H1743 H 0.68327 0.58784 0.47135 0.0
H1744 H 0.70088 0.65885 0.44541 0.0
H1745 H 0.66858 0.64111 0.5096 0.0
C1746 C 0.66443 0.67441 0.51505 0.0
C1747 C 0.66554 0.69466 0.50631 0.0
C1748 C 0.6967 0.64325 0.45079 0.0
C1749 C 0.67514 0.65906 0.48095 0.0
C1750 C 0.70665 0.62552 0.44142 0.0
C1751 C 0.70253 0.60519 0.44899 0.0
C1752 C 0.68283 0.64062 0.4681 0.0
C1753 C 0.6871 0.60318 0.46505 0.0
C1754 C 0.66899 0.65658 0.50238 0.0
C1755 C 0.67075 0.69646 0.48458 0.0
N1756 N 0.67816 0.62068 0.47436 0.0
N1757 N 0.67569 0.6789 0.4727 0.0
H1758 H 0.55463 0.90081 0.71723 0.0
H1759 H 0.61944 0.80187 0.66687 0.0
H1760 H 0.54607 0.83623 0.73647 0.0
H1761 H 0.61279 0.86231 0.63587 0.0
H1762 H 0.5995 0.81615 0.69746 0.0
H1763 H 0.58283 0.88875 0.69262 0.0
C1764 C 0.559 0.88417 0.71667 0.0
C1765 C 0.54785 0.86951 0.72888 0.0
C1766 C 0.60277 0.82641 0.68415 0.0
C1767 C 0.58003 0.85559 0.70061 0.0
C1768 C 0.61435 0.81833 0.66674 0.0
C1769 C 0.61786 0.83092 0.64873 0.0
C1770 C 0.59481 0.84734 0.68374 0.0
C1771 C 0.61046 0.85203 0.64938 0.0
C1772 C 0.57499 0.87728 0.70247 0.0
C1773 C 0.55413 0.8481 0.72729 0.0
N1774 N 0.59922 0.85954 0.66651 0.0
N1775 N 0.56966 0.84179 0.71334 0.0
loop_
_geom_bond_atom_site_label_1
_geom_bond_atom_site_label_2
_geom_bond_distance
_geom_bond_site_symmetry_2
_ccdc_geom_bond_type
O0 Tb1 2.506 . S
O0 C14 1.265 . S
Tb1 O0 2.506 . S
Tb1 O6 2.312 . S
Tb1 O10 2.271 . S
Tb1 O12 2.338 . S
Tb1 O19 2.441 . S
C2 O10 1.252 . S
C2 O11 1.253 . S
O3 Tb4 2.271 . S
O3 C13 1.252 . S
Tb4 O3 2.271 . S
Tb4 O7 2.338 . S
Tb4 O11 2.312 . S
Tb4 O15 2.441 . S
Tb4 O16 2.506 . S
C5 O15 1.244 . S
C5 O16 1.265 . S
O6 Tb1 2.312 . S
O6 C13 1.253 . S
O7 Tb4 2.338 . S
O7 C8 1.258 1_455 S
C8 O7 1.258 1_655 S
C8 O9 1.251 . S
O9 C8 1.251 . S
O10 Tb1 2.271 . S
O10 C2 1.252 . S
O11 C2 1.253 . S
O11 Tb4 2.312 . S
O12 Tb1 2.338 . S
O12 C17 1.258 . S
C13 O3 1.252 . S
C13 O6 1.253 . S
C14 O0 1.265 . S
C14 O19 1.244 . S
O15 Tb4 2.441 . S
O15 C5 1.244 . S
O16 Tb4 2.506 . S
O16 C5 1.265 . S
C17 O12 1.258 . S
C17 O18 1.251 . S
O18 C17 1.251 . S
O19 Tb1 2.441 . S
O19 C14 1.244 . S
O20 Tb21 2.506 . S
O20 C34 1.265 . S
Tb21 O20 2.506 . S
Tb21 O26 2.312 . S
Tb21 O30 2.271 . S
Tb21 O32 2.338 . S
Tb21 O39 2.441 . S
C22 O30 1.252 . S
C22 O31 1.253 . S
O23 Tb24 2.271 . S
O23 C33 1.252 . S
Tb24 O23 2.271 . S
Tb24 O27 2.338 . S
Tb24 O31 2.312 . S
Tb24 O35 2.441 . S
Tb24 O36 2.506 . S
C25 O35 1.244 . S
C25 O36 1.265 . S
O26 Tb21 2.312 . S
O26 C33 1.253 . S
O27 Tb24 2.338 . S
O27 C28 1.258 . S
C28 O27 1.258 . S
C28 O29 1.251 . S
O29 C28 1.251 . S
O30 Tb21 2.271 . S
O30 C22 1.252 . S
O31 C22 1.253 . S
O31 Tb24 2.312 . S
O32 Tb21 2.338 . S
O32 C37 1.258 . S
C33 O23 1.252 . S
C33 O26 1.253 . S
C34 O20 1.265 . S
C34 O39 1.244 . S
O35 Tb24 2.441 . S
O35 C25 1.244 . S
O36 Tb24 2.506 . S
O36 C25 1.265 . S
C37 O32 1.258 . S
C37 O38 1.251 . S
O38 C37 1.251 . S
O39 Tb21 2.441 . S
O39 C34 1.244 . S
O40 Tb41 2.506 . S
O40 C54 1.265 . S
Tb41 O40 2.506 . S
Tb41 O46 2.312 . S
Tb41 O50 2.271 . S
Tb41 O52 2.338 . S
Tb41 O59 2.441 . S
C42 O50 1.252 . S
C42 O51 1.253 . S
O43 Tb44 2.271 . S
O43 C53 1.252 . S
Tb44 O43 2.271 . S
Tb44 O47 2.338 . S
Tb44 O51 2.312 . S
Tb44 O55 2.441 . S
Tb44 O56 2.506 . S
C45 O55 1.244 . S
C45 O56 1.265 . S
O46 Tb41 2.312 . S
O46 C53 1.253 . S
O47 Tb44 2.338 . S
O47 C48 1.258 . S
C48 O47 1.258 . S
C48 O49 1.251 . S
O49 C48 1.251 . S
O50 Tb41 2.271 . S
O50 C42 1.252 . S
O51 C42 1.253 . S
O51 Tb44 2.312 . S
O52 Tb41 2.338 . S
O52 C57 1.258 . S
C53 O43 1.252 . S
C53 O46 1.253 . S
C54 O40 1.265 . S
C54 O59 1.244 . S
O55 Tb44 2.441 . S
O55 C45 1.244 . S
O56 Tb44 2.506 . S
O56 C45 1.265 . S
C57 O52 1.258 . S
C57 O58 1.251 . S
O58 C57 1.251 . S
O59 Tb41 2.441 . S
O59 C54 1.244 . S
O60 Tb61 2.506 . S
O60 C74 1.265 . S
Tb61 O60 2.506 . S
Tb61 O66 2.312 1_556 S
Tb61 O70 2.271 . S
Tb61 O72 2.338 1_556 S
Tb61 O79 2.441 . S
C62 O70 1.252 . S
C62 O71 1.253 . S
O63 Tb64 2.271 1_554 S
O63 C73 1.252 . S
Tb64 O63 2.271 1_556 S
Tb64 O67 2.338 1_556 S
Tb64 O71 2.312 . S
Tb64 O75 2.441 . S
Tb64 O76 2.506 . S
C65 O75 1.244 . S
C65 O76 1.265 . S
O66 Tb61 2.312 1_554 S
O66 C73 1.253 . S
O67 Tb64 2.338 1_554 S
O67 C68 1.258 . S
C68 O67 1.258 . S
C68 O69 1.251 . S
O69 C68 1.251 . S
O70 Tb61 2.271 . S
O70 C62 1.252 . S
O71 C62 1.253 . S
O71 Tb64 2.312 . S
O72 Tb61 2.338 1_554 S
O72 C77 1.258 . S
C73 O63 1.252 . S
C73 O66 1.253 . S
C74 O60 1.265 . S
C74 O79 1.244 . S
O75 Tb64 2.441 . S
O75 C65 1.244 . S
O76 Tb64 2.506 . S
O76 C65 1.265 . S
C77 O72 1.258 . S
C77 O78 1.251 . S
O78 C77 1.251 . S
O79 Tb61 2.441 . S
O79 C74 1.244 . S
O80 Tb81 2.506 . S
O80 C94 1.265 . S
Tb81 O80 2.506 . S
Tb81 O86 2.312 . S
Tb81 O90 2.271 . S
Tb81 O92 2.338 . S
Tb81 O99 2.441 . S
C82 O90 1.252 . S
C82 O91 1.253 . S
O83 Tb84 2.271 . S
O83 C93 1.252 . S
Tb84 O83 2.271 . S
Tb84 O87 2.338 . S
Tb84 O91 2.312 . S
Tb84 O95 2.441 . S
Tb84 O96 2.506 . S
C85 O95 1.244 . S
C85 O96 1.265 . S
O86 Tb81 2.312 . S
O86 C93 1.253 . S
O87 Tb84 2.338 . S
O87 C88 1.292 . S
C88 O87 1.292 . S
C88 O89 1.236 1_455 S
O89 C88 1.236 1_655 S
O90 Tb81 2.271 . S
O90 C82 1.252 . S
O91 C82 1.253 . S
O91 Tb84 2.312 . S
O92 Tb81 2.338 . S
O92 C97 1.258 . S
C93 O83 1.252 . S
C93 O86 1.253 . S
C94 O80 1.265 . S
C94 O99 1.244 . S
O95 Tb84 2.441 . S
O95 C85 1.244 . S
O96 Tb84 2.506 . S
O96 C85 1.265 . S
C97 O92 1.258 . S
C97 O98 1.251 . S
O98 C97 1.251 . S
O99 Tb81 2.441 . S
O99 C94 1.244 . S
O100 Tb101 2.506 . S
O100 C114 1.265 . S
Tb101 O100 2.506 . S
Tb101 O106 2.312 . S
Tb101 O110 2.271 . S
Tb101 O112 2.338 . S
Tb101 O119 2.441 . S
C102 O110 1.252 . S
C102 O111 1.253 . S
O103 Tb104 2.271 . S
O103 C113 1.252 . S
Tb104 O103 2.271 . S
Tb104 O107 2.338 . S
Tb104 O111 2.312 . S
Tb104 O115 2.441 . S
Tb104 O116 2.506 . S
C105 O115 1.244 . S
C105 O116 1.265 . S
O106 Tb101 2.312 . S
O106 C113 1.253 . S
O107 Tb104 2.338 . S
O107 C108 1.258 . S
C108 O107 1.258 . S
C108 O109 1.251 . S
O109 C108 1.251 . S
O110 Tb101 2.271 . S
O110 C102 1.252 . S
O111 C102 1.253 . S
O111 Tb104 2.312 . S
O112 Tb101 2.338 . S
O112 C117 1.258 . S
C113 O103 1.252 . S
C113 O106 1.253 . S
C114 O100 1.265 . S
C114 O119 1.244 . S
O115 Tb104 2.441 . S
O115 C105 1.244 . S
O116 Tb104 2.506 . S
O116 C105 1.265 . S
C117 O112 1.258 . S
C117 O118 1.251 . S
O118 C117 1.251 . S
O119 Tb101 2.441 . S
O119 C114 1.244 . S
O120 Tb121 2.506 . S
O120 C134 1.265 . S
Tb121 O120 2.506 . S
Tb121 O126 2.312 . S
Tb121 O130 2.271 . S
Tb121 O132 2.338 . S
Tb121 O139 2.441 . S
C122 O130 1.252 . S
C122 O131 1.253 . S
O123 Tb124 2.271 . S
O123 C133 1.252 . S
Tb124 O123 2.271 . S
Tb124 O127 2.338 . S
Tb124 O131 2.312 . S
Tb124 O135 2.441 . S
Tb124 O136 2.506 . S
C125 O135 1.244 . S
C125 O136 1.265 . S
O126 Tb121 2.312 . S
O126 C133 1.253 . S
O127 Tb124 2.338 . S
O127 C128 1.258 . S
C128 O127 1.258 . S
C128 O129 1.251 . S
O129 C128 1.251 . S
O130 Tb121 2.271 . S
O130 C122 1.252 . S
O131 C122 1.253 . S
O131 Tb124 2.312 . S
O132 Tb121 2.338 . S
O132 C137 1.258 . S
C133 O123 1.252 . S
C133 O126 1.253 . S
C134 O120 1.265 . S
C134 O139 1.244 . S
O135 Tb124 2.441 . S
O135 C125 1.244 . S
O136 Tb124 2.506 . S
O136 C125 1.265 . S
C137 O132 1.258 . S
C137 O138 1.251 . S
O138 C137 1.251 . S
O139 Tb121 2.441 . S
O139 C134 1.244 . S
O140 Tb141 2.506 . S
O140 C154 1.265 . S
Tb141 O140 2.506 . S
Tb141 O146 2.310 . S
Tb141 O150 2.271 1_556 S
Tb141 O152 2.338 . S
Tb141 O159 2.441 . S
C142 O150 1.252 . S
C142 O151 1.253 . S
O143 Tb144 2.271 . S
O143 C153 1.252 . S
Tb144 O143 2.271 . S
Tb144 O147 2.338 . S
Tb144 O151 2.312 . S
Tb144 O155 2.441 . S
Tb144 O156 2.506 . S
C145 O155 1.244 . S
C145 O156 1.265 . S
O146 Tb141 2.310 . S
O146 C153 1.257 1_556 S
O147 Tb144 2.338 . S
O147 C148 1.258 . S
C148 O147 1.258 . S
C148 O149 1.251 . S
O149 C148 1.251 . S
O150 Tb141 2.271 1_554 S
O150 C142 1.252 . S
O151 C142 1.253 . S
O151 Tb144 2.312 . S
O152 Tb141 2.338 . S
O152 C157 1.258 . S
C153 O143 1.252 . S
C153 O146 1.257 1_554 S
C154 O140 1.265 . S
C154 O159 1.244 . S
O155 Tb144 2.441 . S
O155 C145 1.244 . S
O156 Tb144 2.506 . S
O156 C145 1.265 . S
C157 O152 1.258 . S
C157 O158 1.251 1_556 S
O158 C157 1.251 1_554 S
O159 Tb141 2.441 . S
O159 C154 1.244 . S
O160 Tb161 2.506 1_565 S
O160 C174 1.265 . S
Tb161 O160 2.506 1_545 S
Tb161 O166 2.312 . S
Tb161 O170 2.271 . S
Tb161 O172 2.338 . S
Tb161 O179 2.441 1_545 S
C162 O170 1.252 . S
C162 O171 1.253 . S
O163 Tb164 2.271 . S
O163 C173 1.252 . S
Tb164 O163 2.271 . S
Tb164 O167 2.338 . S
Tb164 O171 2.312 . S
Tb164 O175 2.441 . S
Tb164 O176 2.506 . S
C165 O175 1.244 . S
C165 O176 1.265 . S
O166 Tb161 2.312 . S
O166 C173 1.253 . S
O167 Tb164 2.338 . S
O167 C168 1.258 . S
C168 O167 1.258 . S
C168 O169 1.251 . S
O169 C168 1.251 . S
O170 Tb161 2.271 . S
O170 C162 1.252 . S
O171 C162 1.253 . S
O171 Tb164 2.312 . S
O172 Tb161 2.338 . S
O172 C177 1.258 . S
C173 O163 1.252 . S
C173 O166 1.253 . S
C174 O160 1.265 . S
C174 O179 1.244 . S
O175 Tb164 2.441 . S
O175 C165 1.244 . S
O176 Tb164 2.506 . S
O176 C165 1.265 . S
C177 O172 1.258 . S
C177 O178 1.251 . S
O178 C177 1.251 . S
O179 Tb161 2.441 1_565 S
O179 C174 1.244 . S
O180 Tb181 2.506 . S
O180 C194 1.265 . S
Tb181 O180 2.506 . S
Tb181 O186 2.312 . S
Tb181 O190 2.271 1_545 S
Tb181 O192 2.338 . S
Tb181 O199 2.441 . S
C182 O190 1.252 . S
C182 O191 1.253 . S
O183 Tb184 2.271 . S
O183 C193 1.252 . S
Tb184 O183 2.271 . S
Tb184 O187 2.338 . S
Tb184 O191 2.312 . S
Tb184 O195 2.441 . S
Tb184 O196 2.506 . S
C185 O195 1.244 . S
C185 O196 1.265 . S
O186 Tb181 2.312 . S
O186 C193 1.253 1_545 S
O187 Tb184 2.338 . S
O187 C188 1.258 . S
C188 O187 1.258 . S
C188 O189 1.251 . S
O189 C188 1.251 . S
O190 Tb181 2.271 1_565 S
O190 C182 1.252 . S
O191 C182 1.253 . S
O191 Tb184 2.312 . S
O192 Tb181 2.338 . S
O192 C197 1.258 . S
C193 O183 1.252 . S
C193 O186 1.253 1_565 S
C194 O180 1.265 . S
C194 O199 1.244 . S
O195 Tb184 2.441 . S
O195 C185 1.244 . S
O196 Tb184 2.506 . S
O196 C185 1.265 . S
C197 O192 1.258 . S
C197 O198 1.251 1_545 S
O198 C197 1.251 1_565 S
O199 Tb181 2.441 . S
O199 C194 1.244 . S
O200 Tb201 2.506 . S
O200 C214 1.265 . S
Tb201 O200 2.506 . S
Tb201 O206 2.312 1_545 S
Tb201 O210 2.271 1_545 S
Tb201 O212 2.338 . S
Tb201 O219 2.441 . S
C202 O210 1.252 . S
C202 O211 1.253 . S
O203 Tb204 2.271 . S
O203 C213 1.252 . S
Tb204 O203 2.271 . S
Tb204 O207 2.338 . S
Tb204 O211 2.312 . S
Tb204 O215 2.441 . S
Tb204 O216 2.506 . S
C205 O215 1.244 . S
C205 O216 1.265 . S
O206 Tb201 2.312 1_565 S
O206 C213 1.253 . S
O207 Tb204 2.338 . S
O207 C208 1.258 . S
C208 O207 1.258 . S
C208 O209 1.251 . S
O209 C208 1.251 . S
O210 Tb201 2.271 1_565 S
O210 C202 1.252 . S
O211 C202 1.253 . S
O211 Tb204 2.312 . S
O212 Tb201 2.338 . S
O212 C217 1.258 1_545 S
C213 O203 1.252 . S
C213 O206 1.253 . S
C214 O200 1.265 . S
C214 O219 1.244 . S
O215 Tb204 2.441 . S
O215 C205 1.244 . S
O216 Tb204 2.506 . S
O216 C205 1.265 . S
C217 O212 1.258 1_565 S
C217 O218 1.251 . S
O218 C217 1.251 . S
O219 Tb201 2.441 . S
O219 C214 1.244 . S
O220 Tb221 2.506 . S
O220 C234 1.265 . S
Tb221 O220 2.506 . S
Tb221 O226 2.312 . S
Tb221 O230 2.271 1_565 S
Tb221 O232 2.338 . S
Tb221 O239 2.441 . S
C222 O230 1.252 . S
C222 O231 1.253 . S
O223 Tb224 2.271 . S
O223 C233 1.252 . S
Tb224 O223 2.271 . S
Tb224 O227 2.338 . S
Tb224 O231 2.312 . S
Tb224 O235 2.441 . S
Tb224 O236 2.506 . S
C225 O235 1.244 . S
C225 O236 1.265 . S
O226 Tb221 2.312 . S
O226 C233 1.253 1_565 S
O227 Tb224 2.338 . S
O227 C228 1.258 . S
C228 O227 1.258 . S
C228 O229 1.251 . S
O229 C228 1.251 . S
O230 Tb221 2.271 1_545 S
O230 C222 1.252 . S
O231 C222 1.253 . S
O231 Tb224 2.312 . S
O232 Tb221 2.338 . S
O232 C237 1.258 . S
C233 O223 1.252 . S
C233 O226 1.253 1_545 S
C234 O220 1.265 . S
C234 O239 1.244 . S
O235 Tb224 2.441 . S
O235 C225 1.244 . S
O236 Tb224 2.506 . S
O236 C225 1.265 . S
C237 O232 1.258 . S
C237 O238 1.251 1_565 S
O238 C237 1.251 1_545 S
O239 Tb221 2.441 . S
O239 C234 1.244 . S
O240 Tb241 2.506 . S
O240 C254 1.265 . S
Tb241 O240 2.506 . S
Tb241 O246 2.312 . S
Tb241 O250 2.271 . S
Tb241 O252 2.338 1_556 S
Tb241 O259 2.441 . S
C242 O250 1.252 . S
C242 O251 1.253 . S
O243 Tb244 2.271 . S
O243 C253 1.239 1_556 S
Tb244 O243 2.271 . S
Tb244 O247 2.338 1_556 S
Tb244 O251 2.312 . S
Tb244 O255 2.441 . S
Tb244 O256 2.506 . S
C245 O255 1.244 . S
C245 O256 1.265 . S
O246 Tb241 2.312 . S
O246 C253 1.243 1_556 S
O247 Tb244 2.338 1_554 S
O247 C248 1.258 . S
C248 O247 1.258 . S
C248 O249 1.251 . S
O249 C248 1.251 . S
O250 Tb241 2.271 . S
O250 C242 1.252 . S
O251 C242 1.253 . S
O251 Tb244 2.312 . S
O252 Tb241 2.338 1_554 S
O252 C257 1.258 . S
C253 O243 1.239 1_554 S
C253 O246 1.243 1_554 S
C254 O240 1.265 . S
C254 O259 1.244 . S
O255 Tb244 2.441 . S
O255 C245 1.244 . S
O256 Tb244 2.506 . S
O256 C245 1.265 . S
C257 O252 1.258 . S
C257 O258 1.251 . S
O258 C257 1.251 . S
O259 Tb241 2.441 . S
O259 C254 1.244 . S
O260 Tb261 2.506 . S
O260 C274 1.265 . S
Tb261 O260 2.506 . S
Tb261 O266 2.312 . S
Tb261 O270 2.271 . S
Tb261 O272 2.338 . S
Tb261 O279 2.441 . S
C262 O270 1.252 . S
C262 O271 1.253 . S
O263 Tb264 2.271 . S
O263 C273 1.252 . S
Tb264 O263 2.271 . S
Tb264 O267 2.351 . S
Tb264 O271 2.312 . S
Tb264 O275 2.441 . S
Tb264 O276 2.506 . S
C265 O275 1.244 . S
C265 O276 1.265 . S
O266 Tb261 2.312 . S
O266 C273 1.253 . S
O267 Tb264 2.351 . S
O267 C268 1.247 1_655 S
C268 O267 1.247 1_455 S
C268 O269 1.251 . S
O269 C268 1.251 . S
O270 Tb261 2.271 . S
O270 C262 1.252 . S
O271 C262 1.253 . S
O271 Tb264 2.312 . S
O272 Tb261 2.338 . S
O272 C277 1.258 . S
C273 O263 1.252 . S
C273 O266 1.253 . S
C274 O260 1.265 . S
C274 O279 1.244 . S
O275 Tb264 2.441 . S
O275 C265 1.244 . S
O276 Tb264 2.506 . S
O276 C265 1.265 . S
C277 O272 1.258 . S
C277 O278 1.251 . S
O278 C277 1.251 . S
O279 Tb261 2.441 . S
O279 C274 1.244 . S
O280 Tb281 2.506 . S
O280 C294 1.265 . S
Tb281 O280 2.506 . S
Tb281 O286 2.312 . S
Tb281 O290 2.271 . S
Tb281 O292 2.338 . S
Tb281 O299 2.441 . S
C282 O290 1.252 . S
C282 O291 1.253 . S
O283 Tb284 2.271 . S
O283 C293 1.252 . S
Tb284 O283 2.271 . S
Tb284 O287 2.338 . S
Tb284 O291 2.312 . S
Tb284 O295 2.441 . S
Tb284 O296 2.506 . S
C285 O295 1.244 . S
C285 O296 1.265 . S
O286 Tb281 2.312 . S
O286 C293 1.253 . S
O287 Tb284 2.338 . S
O287 C288 1.258 . S
C288 O287 1.258 . S
C288 O289 1.251 . S
O289 C288 1.251 . S
O290 Tb281 2.271 . S
O290 C282 1.252 . S
O291 C282 1.253 . S
O291 Tb284 2.312 . S
O292 Tb281 2.338 . S
O292 C297 1.258 . S
C293 O283 1.252 . S
C293 O286 1.253 . S
C294 O280 1.265 . S
C294 O299 1.244 . S
O295 Tb284 2.441 . S
O295 C285 1.244 . S
O296 Tb284 2.506 . S
O296 C285 1.265 . S
C297 O292 1.258 . S
C297 O298 1.251 . S
O298 C297 1.251 . S
O299 Tb281 2.441 . S
O299 C294 1.244 . S
O300 Tb301 2.506 . S
O300 C314 1.265 . S
Tb301 O300 2.506 . S
Tb301 O306 2.312 1_455 S
Tb301 O310 2.271 1_455 S
Tb301 O312 2.338 . S
Tb301 O319 2.441 . S
C302 O310 1.252 . S
C302 O311 1.253 . S
O303 Tb304 2.271 . S
O303 C313 1.252 . S
Tb304 O303 2.271 . S
Tb304 O307 2.338 . S
Tb304 O311 2.312 . S
Tb304 O315 2.441 . S
Tb304 O316 2.506 . S
C305 O315 1.244 . S
C305 O316 1.265 . S
O306 Tb301 2.312 1_655 S
O306 C313 1.253 . S
O307 Tb304 2.338 . S
O307 C308 1.258 . S
C308 O307 1.258 . S
C308 O309 1.251 . S
O309 C308 1.251 . S
O310 Tb301 2.271 1_655 S
O310 C302 1.252 . S
O311 C302 1.253 . S
O311 Tb304 2.312 . S
O312 Tb301 2.338 . S
O312 C317 1.258 1_455 S
C313 O303 1.252 . S
C313 O306 1.253 . S
C314 O300 1.265 . S
C314 O319 1.244 . S
O315 Tb304 2.441 . S
O315 C305 1.244 . S
O316 Tb304 2.506 . S
O316 C305 1.265 . S
C317 O312 1.258 1_655 S
C317 O318 1.251 . S
O318 C317 1.251 . S
O319 Tb301 2.441 . S
O319 C314 1.244 . S
O320 Tb321 2.506 . S
O320 C334 1.265 . S
Tb321 O320 2.506 . S
Tb321 O326 2.312 . S
Tb321 O330 2.271 . S
Tb321 O332 2.338 . S
Tb321 O339 2.441 . S
C322 O330 1.252 . S
C322 O331 1.253 . S
O323 Tb324 2.271 . S
O323 C333 1.252 . S
Tb324 O323 2.271 . S
Tb324 O327 2.338 . S
Tb324 O331 2.312 . S
Tb324 O335 2.441 . S
Tb324 O336 2.506 . S
C325 O335 1.244 . S
C325 O336 1.265 . S
O326 Tb321 2.312 . S
O326 C333 1.253 . S
O327 Tb324 2.338 . S
O327 C328 1.258 . S
C328 O327 1.258 . S
C328 O329 1.251 . S
O329 C328 1.251 . S
O330 Tb321 2.271 . S
O330 C322 1.252 . S
O331 C322 1.253 . S
O331 Tb324 2.312 . S
O332 Tb321 2.338 . S
O332 C337 1.258 . S
C333 O323 1.252 . S
C333 O326 1.253 . S
C334 O320 1.265 . S
C334 O339 1.244 . S
O335 Tb324 2.441 . S
O335 C325 1.244 . S
O336 Tb324 2.506 . S
O336 C325 1.265 . S
C337 O332 1.258 . S
C337 O338 1.251 . S
O338 C337 1.251 . S
O339 Tb321 2.441 . S
O339 C334 1.244 . S
O340 Tb341 2.506 . S
O340 C354 1.265 . S
Tb341 O340 2.506 . S
Tb341 O346 2.312 . S
Tb341 O350 2.271 . S
Tb341 O352 2.338 . S
Tb341 O359 2.441 . S
C342 O350 1.252 . S
C342 O351 1.253 . S
O343 Tb344 2.271 . S
O343 C353 1.252 . S
Tb344 O343 2.271 . S
Tb344 O347 2.338 . S
Tb344 O351 2.312 . S
Tb344 O355 2.441 . S
Tb344 O356 2.506 . S
C345 O355 1.244 . S
C345 O356 1.265 . S
O346 Tb341 2.312 . S
O346 C353 1.253 . S
O347 Tb344 2.338 . S
O347 C348 1.258 . S
C348 O347 1.258 . S
C348 O349 1.251 . S
O349 C348 1.251 . S
O350 Tb341 2.271 . S
O350 C342 1.252 . S
O351 C342 1.253 . S
O351 Tb344 2.312 . S
O352 Tb341 2.338 . S
O352 C357 1.258 . S
C353 O343 1.252 . S
C353 O346 1.253 . S
C354 O340 1.265 . S
C354 O359 1.244 . S
O355 Tb344 2.441 . S
O355 C345 1.244 . S
O356 Tb344 2.506 . S
O356 C345 1.265 . S
C357 O352 1.258 . S
C357 O358 1.251 . S
O358 C357 1.251 . S
O359 Tb341 2.441 . S
O359 C354 1.244 . S
O360 Tb361 2.506 . S
O360 C374 1.265 . S
Tb361 O360 2.506 . S
Tb361 O366 2.312 . S
Tb361 O370 2.271 . S
Tb361 O372 2.338 . S
Tb361 O379 2.441 . S
C362 O370 1.252 . S
C362 O371 1.253 . S
O363 Tb364 2.271 . S
O363 C373 1.235 1_554 S
Tb364 O363 2.271 . S
Tb364 O367 2.338 1_554 S
Tb364 O371 2.312 . S
Tb364 O375 2.441 . S
Tb364 O376 2.506 . S
C365 O375 1.244 . S
C365 O376 1.265 . S
O366 Tb361 2.312 . S
O366 C373 1.238 1_554 S
O367 Tb364 2.338 1_556 S
O367 C368 1.258 . S
C368 O367 1.258 . S
C368 O369 1.251 . S
O369 C368 1.251 . S
O370 Tb361 2.271 . S
O370 C362 1.252 . S
O371 C362 1.253 . S
O371 Tb364 2.312 . S
O372 Tb361 2.338 . S
O372 C377 1.258 . S
C373 O363 1.235 1_556 S
C373 O366 1.238 1_556 S
C374 O360 1.265 . S
C374 O379 1.244 . S
O375 Tb364 2.441 . S
O375 C365 1.244 . S
O376 Tb364 2.506 . S
O376 C365 1.265 . S
C377 O372 1.258 . S
C377 O378 1.251 1_554 S
O378 C377 1.251 1_556 S
O379 Tb361 2.441 . S
O379 C374 1.244 . S
O380 Tb381 2.506 . S
O380 C394 1.265 . S
Tb381 O380 2.506 . S
Tb381 O386 2.312 . S
Tb381 O390 2.271 . S
Tb381 O392 2.338 . S
Tb381 O399 2.441 . S
C382 O390 1.252 . S
C382 O391 1.253 . S
O383 Tb384 2.271 . S
O383 C393 1.252 . S
Tb384 O383 2.271 . S
Tb384 O387 2.338 . S
Tb384 O391 2.312 . S
Tb384 O395 2.441 . S
Tb384 O396 2.506 . S
C385 O395 1.244 . S
C385 O396 1.265 . S
O386 Tb381 2.312 . S
O386 C393 1.253 . S
O387 Tb384 2.338 . S
O387 C388 1.258 . S
C388 O387 1.258 . S
C388 O389 1.251 . S
O389 C388 1.251 . S
O390 Tb381 2.271 . S
O390 C382 1.252 . S
O391 C382 1.253 . S
O391 Tb384 2.312 . S
O392 Tb381 2.338 . S
O392 C397 1.258 . S
C393 O383 1.252 . S
C393 O386 1.253 . S
C394 O380 1.265 . S
C394 O399 1.244 . S
O395 Tb384 2.441 . S
O395 C385 1.244 . S
O396 Tb384 2.506 . S
O396 C385 1.265 . S
C397 O392 1.258 . S
C397 O398 1.251 . S
O398 C397 1.251 . S
O399 Tb381 2.441 . S
O399 C394 1.244 . S
O400 Tb401 2.506 . S
O400 C414 1.265 . S
Tb401 O400 2.506 . S
Tb401 O406 2.312 . S
Tb401 O410 2.271 . S
Tb401 O412 2.338 . S
Tb401 O419 2.441 . S
C402 O410 1.252 . S
C402 O411 1.253 . S
O403 Tb404 2.271 . S
O403 C413 1.252 . S
Tb404 O403 2.271 . S
Tb404 O407 2.338 . S
Tb404 O411 2.312 . S
Tb404 O415 2.441 . S
Tb404 O416 2.506 . S
C405 O415 1.244 . S
C405 O416 1.265 . S
O406 Tb401 2.312 . S
O406 C413 1.253 . S
O407 Tb404 2.338 . S
O407 C408 1.258 . S
C408 O407 1.258 . S
C408 O409 1.251 . S
O409 C408 1.251 . S
O410 Tb401 2.271 . S
O410 C402 1.252 . S
O411 C402 1.253 . S
O411 Tb404 2.312 . S
O412 Tb401 2.338 . S
O412 C417 1.258 . S
C413 O403 1.252 . S
C413 O406 1.253 . S
C414 O400 1.265 . S
C414 O419 1.244 . S
O415 Tb404 2.441 . S
O415 C405 1.244 . S
O416 Tb404 2.506 . S
O416 C405 1.265 . S
C417 O412 1.258 . S
C417 O418 1.251 . S
O418 C417 1.251 . S
O419 Tb401 2.441 . S
O419 C414 1.244 . S
O420 Tb421 2.506 . S
O420 C434 1.265 . S
Tb421 O420 2.506 . S
Tb421 O426 2.312 . S
Tb421 O430 2.271 . S
Tb421 O432 2.338 . S
Tb421 O439 2.441 . S
C422 O430 1.252 . S
C422 O431 1.253 . S
O423 Tb424 2.271 . S
O423 C433 1.252 . S
Tb424 O423 2.271 . S
Tb424 O427 2.338 . S
Tb424 O431 2.312 . S
Tb424 O435 2.441 . S
Tb424 O436 2.506 . S
C425 O435 1.244 . S
C425 O436 1.265 . S
O426 Tb421 2.312 . S
O426 C433 1.253 . S
O427 Tb424 2.338 . S
O427 C428 1.258 . S
C428 O427 1.258 . S
C428 O429 1.251 . S
O429 C428 1.251 . S
O430 Tb421 2.271 . S
O430 C422 1.252 . S
O431 C422 1.253 . S
O431 Tb424 2.312 . S
O432 Tb421 2.338 . S
O432 C437 1.258 . S
C433 O423 1.252 . S
C433 O426 1.253 . S
C434 O420 1.265 . S
C434 O439 1.244 . S
O435 Tb424 2.441 . S
O435 C425 1.244 . S
O436 Tb424 2.506 . S
O436 C425 1.265 . S
C437 O432 1.258 . S
C437 O438 1.251 . S
O438 C437 1.251 . S
O439 Tb421 2.441 . S
O439 C434 1.244 . S
O440 Tb441 2.506 . S
O440 C454 1.265 . S
Tb441 O440 2.506 . S
Tb441 O446 2.312 . S
Tb441 O450 2.271 . S
Tb441 O452 2.338 . S
Tb441 O459 2.441 . S
C442 O450 1.252 . S
C442 O451 1.253 . S
O443 Tb444 2.271 . S
O443 C453 1.252 . S
Tb444 O443 2.271 . S
Tb444 O447 2.338 . S
Tb444 O451 2.312 . S
Tb444 O455 2.441 . S
Tb444 O456 2.506 . S
C445 O455 1.244 . S
C445 O456 1.265 . S
O446 Tb441 2.312 . S
O446 C453 1.253 . S
O447 Tb444 2.338 . S
O447 C448 1.258 . S
C448 O447 1.258 . S
C448 O449 1.251 . S
O449 C448 1.251 . S
O450 Tb441 2.271 . S
O450 C442 1.252 . S
O451 C442 1.253 . S
O451 Tb444 2.312 . S
O452 Tb441 2.338 . S
O452 C457 1.258 . S
C453 O443 1.252 . S
C453 O446 1.253 . S
C454 O440 1.265 . S
C454 O459 1.244 . S
O455 Tb444 2.441 . S
O455 C445 1.244 . S
O456 Tb444 2.506 . S
O456 C445 1.265 . S
C457 O452 1.258 . S
C457 O458 1.251 . S
O458 C457 1.251 . S
O459 Tb441 2.441 . S
O459 C454 1.244 . S
O460 Tb461 2.506 . S
O460 C474 1.265 . S
Tb461 O460 2.506 . S
Tb461 O466 2.312 . S
Tb461 O470 2.271 . S
Tb461 O472 2.338 . S
Tb461 O479 2.441 . S
C462 O470 1.252 . S
C462 O471 1.253 . S
O463 Tb464 2.271 . S
O463 C473 1.252 . S
Tb464 O463 2.271 . S
Tb464 O467 2.338 . S
Tb464 O471 2.312 . S
Tb464 O475 2.441 . S
Tb464 O476 2.506 . S
C465 O475 1.244 . S
C465 O476 1.265 . S
O466 Tb461 2.312 . S
O466 C473 1.253 . S
O467 Tb464 2.338 . S
O467 C468 1.258 . S
C468 O467 1.258 . S
C468 O469 1.251 . S
O469 C468 1.251 . S
O470 Tb461 2.271 . S
O470 C462 1.252 . S
O471 C462 1.253 . S
O471 Tb464 2.312 . S
O472 Tb461 2.338 . S
O472 C477 1.258 . S
C473 O463 1.252 . S
C473 O466 1.253 . S
C474 O460 1.265 . S
C474 O479 1.244 . S
O475 Tb464 2.441 . S
O475 C465 1.244 . S
O476 Tb464 2.506 . S
O476 C465 1.265 . S
C477 O472 1.258 . S
C477 O478 1.251 . S
O478 C477 1.251 . S
O479 Tb461 2.441 . S
O479 C474 1.244 . S
H480 C486 0.930 . S
H481 C490 0.930 . S
H482 C495 0.929 . S
H483 C493 0.929 . S
H484 C488 0.929 . S
H485 C494 0.929 . S
C486 H480 0.930 . S
C486 C487 1.367 . S
C486 C494 1.378 . S
C487 C486 1.367 . S
C487 C495 1.433 . S
C488 H484 0.929 . S
C488 C490 1.378 . S
C488 C492 1.350 . S
C489 C492 1.463 . S
C489 C494 1.350 . S
C489 N497 1.427 . S
C490 H481 0.930 . S
C490 C488 1.378 . S
C490 C491 1.367 . S
C491 C490 1.367 . S
C491 C493 1.433 . S
C492 C488 1.350 . S
C492 C489 1.463 . S
C492 N496 1.427 . S
C493 H483 0.929 . S
C493 C491 1.433 . S
C493 N496 1.384 . S
C494 H485 0.929 . S
C494 C486 1.378 . S
C494 C489 1.350 . S
C495 H482 0.929 . S
C495 C487 1.433 . S
C495 N497 1.384 . S
N496 C492 1.427 . S
N496 C493 1.384 . S
N497 C489 1.427 . S
N497 C495 1.384 . S
H498 C504 0.930 . S
H499 C508 0.930 . S
H500 C513 0.929 . S
H501 C511 0.929 . S
H502 C506 0.929 . S
H503 C512 0.929 . S
C504 H498 0.930 . S
C504 C505 1.367 . S
C504 C512 1.378 . S
C505 C504 1.367 . S
C505 C513 1.433 . S
C506 H502 0.929 . S
C506 C508 1.378 . S
C506 C510 1.350 . S
C507 C510 1.463 . S
C507 C512 1.350 . S
C507 N515 1.427 . S
C508 H499 0.930 . S
C508 C506 1.378 . S
C508 C509 1.367 . S
C509 C508 1.367 . S
C509 C511 1.433 . S
C510 C506 1.350 . S
C510 C507 1.463 . S
C510 N514 1.427 . S
C511 H501 0.929 . S
C511 C509 1.433 . S
C511 N514 1.384 . S
C512 H503 0.929 . S
C512 C504 1.378 . S
C512 C507 1.350 . S
C513 H500 0.929 . S
C513 C505 1.433 . S
C513 N515 1.384 . S
N514 C510 1.427 . S
N514 C511 1.384 . S
N515 C507 1.427 . S
N515 C513 1.384 . S
H516 C522 0.930 . S
H517 C526 0.930 . S
H518 C531 0.929 . S
H519 C529 0.929 . S
H520 C524 0.929 . S
H521 C530 0.929 . S
C522 H516 0.930 . S
C522 C523 1.367 . S
C522 C530 1.378 . S
C523 C522 1.367 . S
C523 C531 1.433 . S
C524 H520 0.929 . S
C524 C526 1.378 . S
C524 C528 1.350 . S
C525 C528 1.463 . S
C525 C530 1.350 . S
C525 N533 1.427 . S
C526 H517 0.930 . S
C526 C524 1.378 . S
C526 C527 1.367 . S
C527 C526 1.367 . S
C527 C529 1.433 . S
C528 C524 1.350 . S
C528 C525 1.463 . S
C528 N532 1.427 . S
C529 H519 0.929 . S
C529 C527 1.433 . S
C529 N532 1.384 . S
C530 H521 0.929 . S
C530 C522 1.378 . S
C530 C525 1.350 . S
C531 H518 0.929 . S
C531 C523 1.433 . S
C531 N533 1.384 . S
N532 C528 1.427 . S
N532 C529 1.384 . S
N533 C525 1.427 . S
N533 C531 1.384 . S
H534 C540 0.930 . S
H535 C544 0.930 . S
H536 C549 0.929 . S
H537 C547 0.929 . S
H538 C542 0.929 . S
H539 C548 0.929 . S
C540 H534 0.930 . S
C540 C541 1.367 . S
C540 C548 1.378 . S
C541 C540 1.367 . S
C541 C549 1.433 . S
C542 H538 0.929 . S
C542 C544 1.378 . S
C542 C546 1.350 . S
C543 C546 1.463 . S
C543 C548 1.350 . S
C543 N551 1.427 . S
C544 H535 0.930 . S
C544 C542 1.378 . S
C544 C545 1.367 . S
C545 C544 1.367 . S
C545 C547 1.433 . S
C546 C542 1.350 . S
C546 C543 1.463 . S
C546 N550 1.427 . S
C547 H537 0.929 . S
C547 C545 1.433 . S
C547 N550 1.384 . S
C548 H539 0.929 . S
C548 C540 1.378 . S
C548 C543 1.350 . S
C549 H536 0.929 . S
C549 C541 1.433 . S
C549 N551 1.384 . S
N550 C546 1.427 . S
N550 C547 1.384 . S
N551 C543 1.427 . S
N551 C549 1.384 . S
H552 C558 0.930 . S
H553 C562 0.930 . S
H554 C567 0.929 . S
H555 C565 0.929 . S
H556 C560 0.929 . S
H557 C566 0.929 . S
C558 H552 0.930 . S
C558 C559 1.367 . S
C558 C566 1.378 . S
C559 C558 1.367 . S
C559 C567 1.433 . S
C560 H556 0.929 . S
C560 C562 1.378 . S
C560 C564 1.350 . S
C561 C564 1.463 . S
C561 C566 1.350 . S
C561 N569 1.427 . S
C562 H553 0.930 . S
C562 C560 1.378 . S
C562 C563 1.367 . S
C563 C562 1.367 . S
C563 C565 1.433 . S
C564 C560 1.350 . S
C564 C561 1.463 . S
C564 N568 1.427 . S
C565 H555 0.929 . S
C565 C563 1.433 . S
C565 N568 1.384 . S
C566 H557 0.929 . S
C566 C558 1.378 . S
C566 C561 1.350 . S
C567 H554 0.929 . S
C567 C559 1.433 . S
C567 N569 1.384 . S
N568 C564 1.427 . S
N568 C565 1.384 . S
N569 C561 1.427 . S
N569 C567 1.384 . S
H570 C576 0.930 . S
H571 C580 0.930 . S
H572 C585 0.929 . S
H573 C583 0.929 . S
H574 C578 0.929 . S
H575 C584 0.929 . S
C576 H570 0.930 . S
C576 C577 1.367 . S
C576 C584 1.378 . S
C577 C576 1.367 . S
C577 C585 1.433 . S
C578 H574 0.929 . S
C578 C580 1.378 . S
C578 C582 1.350 . S
C579 C582 1.463 . S
C579 C584 1.350 . S
C579 N587 1.427 . S
C580 H571 0.930 . S
C580 C578 1.378 . S
C580 C581 1.367 . S
C581 C580 1.367 . S
C581 C583 1.433 . S
C582 C578 1.350 . S
C582 C579 1.463 . S
C582 N586 1.427 . S
C583 H573 0.929 . S
C583 C581 1.433 . S
C583 N586 1.384 . S
C584 H575 0.929 . S
C584 C576 1.378 . S
C584 C579 1.350 . S
C585 H572 0.929 . S
C585 C577 1.433 . S
C585 N587 1.384 . S
N586 C582 1.427 . S
N586 C583 1.384 . S
N587 C579 1.427 . S
N587 C585 1.384 . S
H588 C594 0.930 . S
H589 C598 0.930 . S
H590 C603 0.929 . S
H591 C601 0.929 . S
H592 C596 0.929 . S
H593 C602 0.929 . S
C594 H588 0.930 . S
C594 C595 1.367 . S
C594 C602 1.378 . S
C595 C594 1.367 . S
C595 C603 1.433 . S
C596 H592 0.929 . S
C596 C598 1.378 . S
C596 C600 1.350 . S
C597 C600 1.463 . S
C597 C602 1.350 . S
C597 N605 1.427 . S
C598 H589 0.930 . S
C598 C596 1.378 . S
C598 C599 1.367 . S
C599 C598 1.367 . S
C599 C601 1.433 . S
C600 C596 1.350 . S
C600 C597 1.463 . S
C600 N604 1.427 . S
C601 H591 0.929 . S
C601 C599 1.433 . S
C601 N604 1.384 . S
C602 H593 0.929 . S
C602 C594 1.378 . S
C602 C597 1.350 . S
C603 H590 0.929 . S
C603 C595 1.433 . S
C603 N605 1.384 . S
N604 C600 1.427 . S
N604 C601 1.384 . S
N605 C597 1.427 . S
N605 C603 1.384 . S
H606 C612 0.930 . S
H607 C616 0.930 . S
H608 C621 0.929 . S
H609 C619 0.929 . S
H610 C614 0.929 1_554 S
H611 C620 0.929 . S
C612 H606 0.930 . S
C612 C613 1.367 . S
C612 C620 1.378 . S
C613 C612 1.367 . S
C613 C621 1.433 1_556 S
C614 H610 0.929 1_556 S
C614 C616 1.378 . S
C614 C618 1.350 . S
C615 C618 1.463 . S
C615 C620 1.350 . S
C615 N623 1.427 . S
C616 H607 0.930 . S
C616 C614 1.378 . S
C616 C617 1.367 . S
C617 C616 1.367 . S
C617 C619 1.433 . S
C618 C614 1.350 . S
C618 C615 1.463 . S
C618 N622 1.427 . S
C619 H609 0.929 . S
C619 C617 1.433 . S
C619 N622 1.384 . S
C620 H611 0.929 . S
C620 C612 1.378 . S
C620 C615 1.350 . S
C621 H608 0.929 . S
C621 C613 1.433 1_554 S
C621 N623 1.384 1_554 S
N622 C618 1.427 . S
N622 C619 1.384 . S
N623 C615 1.427 . S
N623 C621 1.384 1_556 S
H624 C630 0.930 . S
H625 C634 0.930 . S
H626 C639 0.929 . S
H627 C637 0.929 . S
H628 C632 0.929 . S
H629 C638 0.929 . S
C630 H624 0.930 . S
C630 C631 1.367 . S
C630 C638 1.378 . S
C631 C630 1.367 . S
C631 C639 1.433 . S
C632 H628 0.929 . S
C632 C634 1.378 . S
C632 C636 1.350 . S
C633 C636 1.463 . S
C633 C638 1.350 . S
C633 N641 1.427 . S
C634 H625 0.930 . S
C634 C632 1.378 . S
C634 C635 1.367 . S
C635 C634 1.367 . S
C635 C637 1.433 . S
C636 C632 1.350 . S
C636 C633 1.463 . S
C636 N640 1.427 . S
C637 H627 0.929 . S
C637 C635 1.433 . S
C637 N640 1.384 . S
C638 H629 0.929 . S
C638 C630 1.378 . S
C638 C633 1.350 . S
C639 H626 0.929 . S
C639 C631 1.433 . S
C639 N641 1.384 . S
N640 C636 1.427 . S
N640 C637 1.384 . S
N641 C633 1.427 . S
N641 C639 1.384 . S
H642 C648 0.930 . S
H643 C652 0.930 . S
H644 C657 0.929 . S
H645 C655 0.929 . S
H646 C650 0.929 . S
H647 C656 0.929 . S
C648 H642 0.930 . S
C648 C649 1.367 . S
C648 C656 1.378 . S
C649 C648 1.367 . S
C649 C657 1.433 . S
C650 H646 0.929 . S
C650 C652 1.378 . S
C650 C654 1.350 . S
C651 C654 1.463 . S
C651 C656 1.350 . S
C651 N659 1.427 . S
C652 H643 0.930 . S
C652 C650 1.378 . S
C652 C653 1.367 . S
C653 C652 1.367 . S
C653 C655 1.433 . S
C654 C650 1.350 . S
C654 C651 1.463 . S
C654 N658 1.427 . S
C655 H645 0.929 . S
C655 C653 1.433 . S
C655 N658 1.384 . S
C656 H647 0.929 . S
C656 C648 1.378 . S
C656 C651 1.350 . S
C657 H644 0.929 . S
C657 C649 1.433 . S
C657 N659 1.384 . S
N658 C654 1.427 . S
N658 C655 1.384 . S
N659 C651 1.427 . S
N659 C657 1.384 . S
H660 C666 0.930 . S
H661 C670 0.930 . S
H662 C675 0.929 . S
H663 C673 0.929 . S
H664 C668 0.929 . S
H665 C674 0.929 . S
C666 H660 0.930 . S
C666 C667 1.367 . S
C666 C674 1.378 . S
C667 C666 1.367 . S
C667 C675 1.433 . S
C668 H664 0.929 . S
C668 C670 1.378 . S
C668 C672 1.350 . S
C669 C672 1.463 . S
C669 C674 1.350 . S
C669 N677 1.427 . S
C670 H661 0.930 . S
C670 C668 1.378 . S
C670 C671 1.367 . S
C671 C670 1.367 . S
C671 C673 1.433 . S
C672 C668 1.350 . S
C672 C669 1.463 . S
C672 N676 1.427 . S
C673 H663 0.929 . S
C673 C671 1.433 . S
C673 N676 1.384 . S
C674 H665 0.929 . S
C674 C666 1.378 . S
C674 C669 1.350 . S
C675 H662 0.929 . S
C675 C667 1.433 . S
C675 N677 1.384 . S
N676 C672 1.427 . S
N676 C673 1.384 . S
N677 C669 1.427 . S
N677 C675 1.384 . S
H678 C684 0.930 . S
H679 C688 0.930 . S
H680 C693 0.929 . S
H681 C691 0.929 . S
H682 C686 0.929 . S
H683 C692 0.929 . S
C684 H678 0.930 . S
C684 C685 1.367 . S
C684 C692 1.378 . S
C685 C684 1.367 . S
C685 C693 1.433 . S
C686 H682 0.929 . S
C686 C688 1.378 . S
C686 C690 1.350 . S
C687 C690 1.463 . S
C687 C692 1.350 . S
C687 N695 1.427 . S
C688 H679 0.930 . S
C688 C686 1.378 . S
C688 C689 1.367 . S
C689 C688 1.367 . S
C689 C691 1.433 . S
C690 C686 1.350 . S
C690 C687 1.463 . S
C690 N694 1.427 . S
C691 H681 0.929 . S
C691 C689 1.433 . S
C691 N694 1.384 . S
C692 H683 0.929 . S
C692 C684 1.378 . S
C692 C687 1.350 . S
C693 H680 0.929 . S
C693 C685 1.433 . S
C693 N695 1.384 . S
N694 C690 1.427 . S
N694 C691 1.384 . S
N695 C687 1.427 . S
N695 C693 1.384 . S
H696 C702 0.930 . S
H697 C706 0.930 . S
H698 C711 0.929 1_554 S
H699 C709 0.929 . S
H700 C704 0.929 . S
H701 C710 0.929 . S
C702 H696 0.930 . S
C702 C703 1.367 . S
C702 C710 1.378 . S
C703 C702 1.367 . S
C703 C711 1.433 . S
C704 H700 0.929 . S
C704 C706 1.378 . S
C704 C708 1.350 . S
C705 C708 1.463 . S
C705 C710 1.350 . S
C705 N713 1.427 . S
C706 H697 0.930 . S
C706 C704 1.378 . S
C706 C707 1.367 . S
C707 C706 1.367 . S
C707 C709 1.433 . S
C708 C704 1.350 . S
C708 C705 1.463 . S
C708 N712 1.427 . S
C709 H699 0.929 . S
C709 C707 1.433 . S
C709 N712 1.384 . S
C710 H701 0.929 . S
C710 C702 1.378 . S
C710 C705 1.350 . S
C711 H698 0.929 1_556 S
C711 C703 1.433 . S
C711 N713 1.384 . S
N712 C708 1.427 . S
N712 C709 1.384 . S
N713 C705 1.427 . S
N713 C711 1.384 . S
H714 C720 0.930 . S
H715 C724 0.930 . S
H716 C729 0.929 . S
H717 C727 0.929 . S
H718 C722 0.929 . S
H719 C728 0.929 . S
C720 H714 0.930 . S
C720 C721 1.367 . S
C720 C728 1.378 . S
C721 C720 1.367 . S
C721 C729 1.433 . S
C722 H718 0.929 . S
C722 C724 1.378 . S
C722 C726 1.350 . S
C723 C726 1.463 . S
C723 C728 1.350 . S
C723 N731 1.427 . S
C724 H715 0.930 . S
C724 C722 1.378 . S
C724 C725 1.367 . S
C725 C724 1.367 . S
C725 C727 1.433 . S
C726 C722 1.350 . S
C726 C723 1.463 . S
C726 N730 1.427 . S
C727 H717 0.929 . S
C727 C725 1.433 . S
C727 N730 1.384 . S
C728 H719 0.929 . S
C728 C720 1.378 . S
C728 C723 1.350 . S
C729 H716 0.929 . S
C729 C721 1.433 . S
C729 N731 1.384 . S
N730 C726 1.427 . S
N730 C727 1.384 . S
N731 C723 1.427 . S
N731 C729 1.384 . S
H732 C738 0.930 . S
H733 C742 0.930 . S
H734 C747 0.929 . S
H735 C745 0.929 . S
H736 C740 0.929 . S
H737 C746 0.929 . S
C738 H732 0.930 . S
C738 C739 1.367 . S
C738 C746 1.378 . S
C739 C738 1.367 . S
C739 C747 1.433 . S
C740 H736 0.929 . S
C740 C742 1.378 . S
C740 C744 1.350 . S
C741 C744 1.463 . S
C741 C746 1.350 . S
C741 N749 1.427 . S
C742 H733 0.930 . S
C742 C740 1.378 . S
C742 C743 1.367 . S
C743 C742 1.367 . S
C743 C745 1.433 . S
C744 C740 1.350 . S
C744 C741 1.463 . S
C744 N748 1.427 . S
C745 H735 0.929 . S
C745 C743 1.433 . S
C745 N748 1.384 . S
C746 H737 0.929 . S
C746 C738 1.378 . S
C746 C741 1.350 . S
C747 H734 0.929 . S
C747 C739 1.433 . S
C747 N749 1.384 . S
N748 C744 1.427 . S
N748 C745 1.384 . S
N749 C741 1.427 . S
N749 C747 1.384 . S
H750 C756 0.930 . S
H751 C760 0.930 . S
H752 C765 0.929 . S
H753 C763 0.929 . S
H754 C758 0.929 . S
H755 C764 0.929 . S
C756 H750 0.930 . S
C756 C757 1.367 . S
C756 C764 1.378 . S
C757 C756 1.367 . S
C757 C765 1.433 . S
C758 H754 0.929 . S
C758 C760 1.378 . S
C758 C762 1.350 . S
C759 C762 1.463 . S
C759 C764 1.350 . S
C759 N767 1.427 . S
C760 H751 0.930 . S
C760 C758 1.378 . S
C760 C761 1.367 . S
C761 C760 1.367 . S
C761 C763 1.433 . S
C762 C758 1.350 . S
C762 C759 1.463 . S
C762 N766 1.427 . S
C763 H753 0.929 . S
C763 C761 1.433 . S
C763 N766 1.384 . S
C764 H755 0.929 . S
C764 C756 1.378 . S
C764 C759 1.350 . S
C765 H752 0.929 . S
C765 C757 1.433 . S
C765 N767 1.384 . S
N766 C762 1.427 . S
N766 C763 1.384 . S
N767 C759 1.427 . S
N767 C765 1.384 . S
H768 C774 0.930 . S
H769 C778 0.930 . S
H770 C783 0.929 . S
H771 C781 0.929 . S
H772 C776 0.929 . S
H773 C782 0.929 . S
C774 H768 0.930 . S
C774 C775 1.367 . S
C774 C782 1.378 . S
C775 C774 1.367 . S
C775 C783 1.433 . S
C776 H772 0.929 . S
C776 C778 1.378 . S
C776 C780 1.350 . S
C777 C780 1.463 . S
C777 C782 1.350 . S
C777 N785 1.427 . S
C778 H769 0.930 . S
C778 C776 1.378 . S
C778 C779 1.367 . S
C779 C778 1.367 . S
C779 C781 1.433 . S
C780 C776 1.350 . S
C780 C777 1.463 . S
C780 N784 1.427 . S
C781 H771 0.929 . S
C781 C779 1.433 . S
C781 N784 1.384 . S
C782 H773 0.929 . S
C782 C774 1.378 . S
C782 C777 1.350 . S
C783 H770 0.929 . S
C783 C775 1.433 . S
C783 N785 1.384 . S
N784 C780 1.427 . S
N784 C781 1.384 . S
N785 C777 1.427 . S
N785 C783 1.384 . S
H786 C792 0.930 . S
H787 C796 0.930 . S
H788 C801 0.929 . S
H789 C799 0.929 . S
H790 C794 0.929 . S
H791 C800 0.929 . S
C792 H786 0.930 . S
C792 C793 1.367 . S
C792 C800 1.378 . S
C793 C792 1.367 . S
C793 C801 1.433 . S
C794 H790 0.929 . S
C794 C796 1.378 . S
C794 C798 1.350 . S
C795 C798 1.463 . S
C795 C800 1.350 . S
C795 N803 1.427 . S
C796 H787 0.930 . S
C796 C794 1.378 . S
C796 C797 1.367 . S
C797 C796 1.367 . S
C797 C799 1.433 . S
C798 C794 1.350 . S
C798 C795 1.463 . S
C798 N802 1.427 . S
C799 H789 0.929 . S
C799 C797 1.433 . S
C799 N802 1.384 . S
C800 H791 0.929 . S
C800 C792 1.378 . S
C800 C795 1.350 . S
C801 H788 0.929 . S
C801 C793 1.433 . S
C801 N803 1.384 . S
N802 C798 1.427 . S
N802 C799 1.384 . S
N803 C795 1.427 . S
N803 C801 1.384 . S
H804 C810 0.930 . S
H805 C814 0.930 . S
H806 C819 0.929 . S
H807 C817 0.929 . S
H808 C812 0.929 . S
H809 C818 0.929 . S
C810 H804 0.930 . S
C810 C811 1.367 . S
C810 C818 1.378 . S
C811 C810 1.367 . S
C811 C819 1.433 . S
C812 H808 0.929 . S
C812 C814 1.378 . S
C812 C816 1.350 . S
C813 C816 1.463 . S
C813 C818 1.350 . S
C813 N821 1.427 . S
C814 H805 0.930 . S
C814 C812 1.378 . S
C814 C815 1.367 . S
C815 C814 1.367 . S
C815 C817 1.433 . S
C816 C812 1.350 . S
C816 C813 1.463 . S
C816 N820 1.427 . S
C817 H807 0.929 . S
C817 C815 1.433 . S
C817 N820 1.384 . S
C818 H809 0.929 . S
C818 C810 1.378 . S
C818 C813 1.350 . S
C819 H806 0.929 . S
C819 C811 1.433 . S
C819 N821 1.384 . S
N820 C816 1.427 . S
N820 C817 1.384 . S
N821 C813 1.427 . S
N821 C819 1.384 . S
H822 C828 0.930 . S
H823 C832 0.930 . S
H824 C837 0.929 . S
H825 C835 0.929 . S
H826 C830 0.929 . S
H827 C836 0.929 . S
C828 H822 0.930 . S
C828 C829 1.367 . S
C828 C836 1.378 . S
C829 C828 1.367 . S
C829 C837 1.433 . S
C830 H826 0.929 . S
C830 C832 1.378 . S
C830 C834 1.350 . S
C831 C834 1.463 . S
C831 C836 1.350 . S
C831 N839 1.427 . S
C832 H823 0.930 . S
C832 C830 1.378 . S
C832 C833 1.367 . S
C833 C832 1.367 . S
C833 C835 1.433 . S
C834 C830 1.350 . S
C834 C831 1.463 . S
C834 N838 1.427 . S
C835 H825 0.929 . S
C835 C833 1.433 . S
C835 N838 1.384 . S
C836 H827 0.929 . S
C836 C828 1.378 . S
C836 C831 1.350 . S
C837 H824 0.929 . S
C837 C829 1.433 . S
C837 N839 1.384 . S
N838 C834 1.427 . S
N838 C835 1.384 . S
N839 C831 1.427 . S
N839 C837 1.384 . S
H840 C846 0.930 . S
H841 C850 0.930 . S
H842 C855 0.929 . S
H843 C853 0.929 . S
H844 C848 0.929 . S
H845 C854 0.929 . S
C846 H840 0.930 . S
C846 C847 1.367 . S
C846 C854 1.378 . S
C847 C846 1.367 . S
C847 C855 1.433 . S
C848 H844 0.929 . S
C848 C850 1.378 . S
C848 C852 1.350 . S
C849 C852 1.463 . S
C849 C854 1.350 . S
C849 N857 1.427 . S
C850 H841 0.930 . S
C850 C848 1.378 . S
C850 C851 1.367 . S
C851 C850 1.367 . S
C851 C853 1.433 . S
C852 C848 1.350 . S
C852 C849 1.463 . S
C852 N856 1.427 . S
C853 H843 0.929 . S
C853 C851 1.433 . S
C853 N856 1.384 . S
C854 H845 0.929 . S
C854 C846 1.378 . S
C854 C849 1.350 . S
C855 H842 0.929 . S
C855 C847 1.433 . S
C855 N857 1.384 . S
N856 C852 1.427 . S
N856 C853 1.384 . S
N857 C849 1.427 . S
N857 C855 1.384 . S
H858 C864 0.930 . S
H859 C868 0.930 . S
H860 C873 0.929 . S
H861 C871 0.929 . S
H862 C866 0.929 . S
H863 C872 0.929 . S
C864 H858 0.930 . S
C864 C865 1.367 . S
C864 C872 1.378 . S
C865 C864 1.367 . S
C865 C873 1.433 . S
C866 H862 0.929 . S
C866 C868 1.378 . S
C866 C870 1.350 . S
C867 C870 1.463 . S
C867 C872 1.350 . S
C867 N875 1.427 . S
C868 H859 0.930 . S
C868 C866 1.378 . S
C868 C869 1.367 . S
C869 C868 1.367 . S
C869 C871 1.433 . S
C870 C866 1.350 . S
C870 C867 1.463 . S
C870 N874 1.427 . S
C871 H861 0.929 . S
C871 C869 1.433 . S
C871 N874 1.384 . S
C872 H863 0.929 . S
C872 C864 1.378 . S
C872 C867 1.350 . S
C873 H860 0.929 . S
C873 C865 1.433 . S
C873 N875 1.384 . S
N874 C870 1.427 . S
N874 C871 1.384 . S
N875 C867 1.427 . S
N875 C873 1.384 . S
H876 C882 0.930 . S
H877 C886 0.930 . S
H878 C891 0.929 1_556 S
H879 C889 0.929 . S
H880 C884 0.929 . S
H881 C890 0.929 . S
C882 H876 0.930 . S
C882 C883 1.367 . S
C882 C890 1.378 . S
C883 C882 1.367 . S
C883 C891 1.433 . S
C884 H880 0.929 . S
C884 C886 1.378 . S
C884 C888 1.350 . S
C885 C888 1.463 . S
C885 C890 1.350 . S
C885 N893 1.427 . S
C886 H877 0.930 . S
C886 C884 1.378 . S
C886 C887 1.367 . S
C887 C886 1.367 . S
C887 C889 1.433 . S
C888 C884 1.350 . S
C888 C885 1.463 . S
C888 N892 1.427 . S
C889 H879 0.929 . S
C889 C887 1.433 . S
C889 N892 1.384 . S
C890 H881 0.929 . S
C890 C882 1.378 . S
C890 C885 1.350 . S
C891 H878 0.929 1_554 S
C891 C883 1.433 . S
C891 N893 1.384 . S
N892 C888 1.427 . S
N892 C889 1.384 . S
N893 C885 1.427 . S
N893 C891 1.384 . S
H894 C900 0.930 . S
H895 C904 0.930 . S
H896 C909 0.929 . S
H897 C907 0.929 . S
H898 C902 0.929 . S
H899 C908 0.929 . S
C900 H894 0.930 . S
C900 C901 1.367 . S
C900 C908 1.378 . S
C901 C900 1.367 . S
C901 C909 1.433 . S
C902 H898 0.929 . S
C902 C904 1.378 . S
C902 C906 1.350 . S
C903 C906 1.463 . S
C903 C908 1.350 . S
C903 N911 1.427 . S
C904 H895 0.930 . S
C904 C902 1.378 . S
C904 C905 1.367 . S
C905 C904 1.367 . S
C905 C907 1.433 . S
C906 C902 1.350 . S
C906 C903 1.463 . S
C906 N910 1.427 . S
C907 H897 0.929 . S
C907 C905 1.433 . S
C907 N910 1.384 . S
C908 H899 0.929 . S
C908 C900 1.378 . S
C908 C903 1.350 . S
C909 H896 0.929 . S
C909 C901 1.433 . S
C909 N911 1.384 . S
N910 C906 1.427 . S
N910 C907 1.384 . S
N911 C903 1.427 . S
N911 C909 1.384 . S
H912 C918 0.930 . S
H913 C922 0.930 . S
H914 C927 0.929 . S
H915 C925 0.929 . S
H916 C920 0.929 . S
H917 C926 0.929 1_545 S
C918 H912 0.930 . S
C918 C919 1.367 . S
C918 C926 1.378 . S
C919 C918 1.367 . S
C919 C927 1.433 . S
C920 H916 0.929 . S
C920 C922 1.378 . S
C920 C924 1.350 . S
C921 C924 1.463 . S
C921 C926 1.350 1_545 S
C921 N929 1.427 1_545 S
C922 H913 0.930 . S
C922 C920 1.378 . S
C922 C923 1.367 . S
C923 C922 1.367 . S
C923 C925 1.433 . S
C924 C920 1.350 . S
C924 C921 1.463 . S
C924 N928 1.427 . S
C925 H915 0.929 . S
C925 C923 1.433 . S
C925 N928 1.384 . S
C926 H917 0.929 1_565 S
C926 C918 1.378 . S
C926 C921 1.350 1_565 S
C927 H914 0.929 . S
C927 C919 1.433 . S
C927 N929 1.384 . S
N928 C924 1.427 . S
N928 C925 1.384 . S
N929 C921 1.427 1_565 S
N929 C927 1.384 . S
H930 C936 0.930 . S
H931 C940 0.930 . S
H932 C945 0.929 . S
H933 C943 0.929 . S
H934 C938 0.929 . S
H935 C944 0.929 . S
C936 H930 0.930 . S
C936 C937 1.367 . S
C936 C944 1.378 . S
C937 C936 1.367 . S
C937 C945 1.433 . S
C938 H934 0.929 . S
C938 C940 1.378 . S
C938 C942 1.350 . S
C939 C942 1.463 . S
C939 C944 1.350 . S
C939 N947 1.427 . S
C940 H931 0.930 . S
C940 C938 1.378 . S
C940 C941 1.367 . S
C941 C940 1.367 . S
C941 C943 1.433 . S
C942 C938 1.350 . S
C942 C939 1.463 . S
C942 N946 1.427 . S
C943 H933 0.929 . S
C943 C941 1.433 . S
C943 N946 1.384 . S
C944 H935 0.929 . S
C944 C936 1.378 . S
C944 C939 1.350 . S
C945 H932 0.929 . S
C945 C937 1.433 . S
C945 N947 1.384 . S
N946 C942 1.427 . S
N946 C943 1.384 . S
N947 C939 1.427 . S
N947 C945 1.384 . S
H948 C954 0.930 . S
H949 C958 0.930 . S
H950 C963 0.929 . S
H951 C961 0.929 . S
H952 C956 0.929 . S
H953 C962 0.954 . S
C954 H948 0.930 . S
C954 C955 1.367 . S
C954 C962 1.378 . S
C955 C954 1.367 . S
C955 C963 1.433 . S
C956 H952 0.929 . S
C956 C958 1.378 . S
C956 C960 1.350 . S
C957 C960 1.463 1_565 S
C957 C962 1.350 . S
C957 N965 1.427 . S
C958 H949 0.930 . S
C958 C956 1.378 . S
C958 C959 1.367 . S
C959 C958 1.367 . S
C959 C961 1.433 . S
C960 C956 1.350 . S
C960 C957 1.463 1_545 S
C960 N964 1.427 . S
C961 H951 0.929 . S
C961 C959 1.433 . S
C961 N964 1.384 . S
C962 H953 0.954 . S
C962 C954 1.378 . S
C962 C957 1.350 . S
C963 H950 0.929 . S
C963 C955 1.433 . S
C963 N965 1.384 . S
N964 C960 1.427 . S
N964 C961 1.384 . S
N965 C957 1.427 . S
N965 C963 1.384 . S
H966 C972 0.930 . S
H967 C976 0.930 . S
H968 C981 0.929 . S
H969 C979 0.929 . S
H970 C974 0.929 . S
H971 C980 0.929 . S
C972 H966 0.930 . S
C972 C973 1.367 1_556 S
C972 C980 1.378 . S
C973 C972 1.367 1_554 S
C973 C981 1.433 . S
C974 H970 0.929 . S
C974 C976 1.378 . S
C974 C978 1.350 . S
C975 C978 1.463 . S
C975 C980 1.350 1_554 S
C975 N983 1.427 . S
C976 H967 0.930 . S
C976 C974 1.378 . S
C976 C977 1.367 1_554 S
C977 C976 1.367 1_556 S
C977 C979 1.433 . S
C978 C974 1.350 . S
C978 C975 1.463 . S
C978 N982 1.427 1_554 S
C979 H969 0.929 . S
C979 C977 1.433 . S
C979 N982 1.384 . S
C980 H971 0.929 . S
C980 C972 1.378 . S
C980 C975 1.350 1_556 S
C981 H968 0.929 . S
C981 C973 1.433 . S
C981 N983 1.384 . S
N982 C978 1.427 1_556 S
N982 C979 1.384 . S
N983 C975 1.427 . S
N983 C981 1.384 . S
H984 C990 0.930 . S
H985 C994 0.930 . S
H986 C999 0.929 . S
H987 C997 0.929 . S
H988 C992 0.929 . S
H989 C998 0.929 . S
C990 H984 0.930 . S
C990 C991 1.367 . S
C990 C998 1.378 . S
C991 C990 1.367 . S
C991 C999 1.433 . S
C992 H988 0.929 . S
C992 C994 1.378 . S
C992 C996 1.350 . S
C993 C996 1.463 . S
C993 C998 1.350 1_554 S
C993 N1001 1.427 1_554 S
C994 H985 0.930 . S
C994 C992 1.378 . S
C994 C995 1.367 . S
C995 C994 1.367 . S
C995 C997 1.433 . S
C996 C992 1.350 . S
C996 C993 1.463 . S
C996 N1000 1.427 . S
C997 H987 0.929 . S
C997 C995 1.433 . S
C997 N1000 1.384 . S
C998 H989 0.929 . S
C998 C990 1.378 . S
C998 C993 1.350 1_556 S
C999 H986 0.929 . S
C999 C991 1.433 . S
C999 N1001 1.384 . S
N1000 C996 1.427 . S
N1000 C997 1.384 . S
N1001 C993 1.427 1_556 S
N1001 C999 1.384 . S
H1002 C1008 0.927 1_565 S
H1003 C1012 0.930 . S
H1004 C1017 0.929 . S
H1005 C1015 0.931 . S
H1006 C1010 0.929 . S
H1007 C1016 0.926 1_565 S
C1008 H1002 0.927 1_545 S
C1008 C1009 1.370 . S
C1008 C1016 1.378 . S
C1009 C1008 1.370 . S
C1009 C1017 1.433 . S
C1010 H1006 0.929 . S
C1010 C1012 1.378 . S
C1010 C1014 1.350 . S
C1011 C1014 1.463 . S
C1011 C1016 1.352 . S
C1011 N1019 1.427 . S
C1012 H1003 0.930 . S
C1012 C1010 1.378 . S
C1012 C1013 1.367 . S
C1013 C1012 1.367 . S
C1013 C1015 1.432 1_545 S
C1014 C1010 1.350 . S
C1014 C1011 1.463 . S
C1014 N1018 1.426 . S
C1015 H1005 0.931 . S
C1015 C1013 1.432 1_565 S
C1015 N1018 1.384 1_565 S
C1016 H1007 0.926 1_545 S
C1016 C1008 1.378 . S
C1016 C1011 1.352 . S
C1017 H1004 0.929 . S
C1017 C1009 1.433 . S
C1017 N1019 1.384 . S
N1018 C1014 1.426 . S
N1018 C1015 1.384 1_545 S
N1019 C1011 1.427 . S
N1019 C1017 1.384 . S
H1020 C1026 0.930 . S
H1021 C1030 0.930 . S
H1022 C1035 0.929 . S
H1023 C1033 0.929 . S
H1024 C1028 0.929 . S
H1025 C1034 0.929 . S
C1026 H1020 0.930 . S
C1026 C1027 1.367 . S
C1026 C1034 1.378 . S
C1027 C1026 1.367 . S
C1027 C1035 1.433 1_565 S
C1028 H1024 0.929 . S
C1028 C1030 1.378 . S
C1028 C1032 1.350 1_545 S
C1029 C1032 1.463 . S
C1029 C1034 1.350 . S
C1029 N1037 1.427 1_565 S
C1030 H1021 0.930 . S
C1030 C1028 1.378 . S
C1030 C1031 1.367 1_545 S
C1031 C1030 1.367 1_565 S
C1031 C1033 1.433 . S
C1032 C1028 1.350 1_565 S
C1032 C1029 1.463 . S
C1032 N1036 1.427 . S
C1033 H1023 0.929 . S
C1033 C1031 1.433 . S
C1033 N1036 1.384 . S
C1034 H1025 0.929 . S
C1034 C1026 1.378 . S
C1034 C1029 1.350 . S
C1035 H1022 0.929 . S
C1035 C1027 1.433 1_545 S
C1035 N1037 1.384 . S
N1036 C1032 1.427 . S
N1036 C1033 1.384 . S
N1037 C1029 1.427 1_545 S
N1037 C1035 1.384 . S
H1038 C1044 0.930 . S
H1039 C1048 0.930 . S
H1040 C1053 0.929 . S
H1041 C1051 0.929 . S
H1042 C1046 0.929 . S
H1043 C1052 0.929 . S
C1044 H1038 0.930 . S
C1044 C1045 1.367 . S
C1044 C1052 1.378 . S
C1045 C1044 1.367 . S
C1045 C1053 1.433 . S
C1046 H1042 0.929 . S
C1046 C1048 1.378 . S
C1046 C1050 1.350 1_545 S
C1047 C1050 1.463 . S
C1047 C1052 1.350 . S
C1047 N1055 1.427 . S
C1048 H1039 0.930 . S
C1048 C1046 1.378 . S
C1048 C1049 1.363 1_545 S
C1049 C1048 1.363 1_565 S
C1049 C1051 1.440 . S
C1050 C1046 1.350 1_565 S
C1050 C1047 1.463 . S
C1050 N1054 1.427 . S
C1051 H1041 0.929 . S
C1051 C1049 1.440 . S
C1051 N1054 1.384 . S
C1052 H1043 0.929 . S
C1052 C1044 1.378 . S
C1052 C1047 1.350 . S
C1053 H1040 0.929 . S
C1053 C1045 1.433 . S
C1053 N1055 1.384 . S
N1054 C1050 1.427 . S
N1054 C1051 1.384 . S
N1055 C1047 1.427 . S
N1055 C1053 1.384 . S
H1056 C1062 0.930 . S
H1057 C1066 0.930 . S
H1058 C1071 0.929 . S
H1059 C1069 0.929 . S
H1060 C1064 0.929 . S
H1061 C1070 0.929 . S
C1062 H1056 0.930 . S
C1062 C1063 1.367 1_556 S
C1062 C1070 1.378 1_655 S
C1063 C1062 1.367 1_554 S
C1063 C1071 1.433 . S
C1064 H1060 0.929 . S
C1064 C1066 1.378 . S
C1064 C1068 1.350 . S
C1065 C1068 1.463 . S
C1065 C1070 1.350 1_554 S
C1065 N1073 1.427 . S
C1066 H1057 0.930 . S
C1066 C1064 1.378 . S
C1066 C1067 1.367 . S
C1067 C1066 1.367 . S
C1067 C1069 1.433 1_554 S
C1068 C1064 1.350 . S
C1068 C1065 1.463 . S
C1068 N1072 1.427 1_554 S
C1069 H1059 0.929 . S
C1069 C1067 1.433 1_556 S
C1069 N1072 1.384 . S
C1070 H1061 0.929 . S
C1070 C1062 1.378 1_455 S
C1070 C1065 1.350 1_556 S
C1071 H1058 0.929 . S
C1071 C1063 1.433 . S
C1071 N1073 1.384 1_655 S
N1072 C1068 1.427 1_556 S
N1072 C1069 1.384 . S
N1073 C1065 1.427 . S
N1073 C1071 1.384 1_455 S
H1074 C1080 0.930 . S
H1075 C1084 0.930 . S
H1076 C1089 0.929 . S
H1077 C1087 0.929 . S
H1078 C1082 0.929 . S
H1079 C1088 0.929 . S
C1080 H1074 0.930 . S
C1080 C1081 1.367 1_556 S
C1080 C1088 1.378 . S
C1081 C1080 1.367 1_554 S
C1081 C1089 1.433 . S
C1082 H1078 0.929 . S
C1082 C1084 1.378 . S
C1082 C1086 1.379 . S
C1083 C1086 1.463 . S
C1083 C1088 1.346 1_554 S
C1083 N1091 1.431 . S
C1084 H1075 0.930 . S
C1084 C1082 1.378 . S
C1084 C1085 1.352 1_554 S
C1085 C1084 1.352 1_556 S
C1085 C1087 1.448 . S
C1086 C1082 1.379 . S
C1086 C1083 1.463 . S
C1086 N1090 1.397 1_554 S
C1087 H1077 0.929 . S
C1087 C1085 1.448 . S
C1087 N1090 1.384 . S
C1088 H1079 0.929 . S
C1088 C1080 1.378 . S
C1088 C1083 1.346 1_556 S
C1089 H1076 0.929 . S
C1089 C1081 1.433 . S
C1089 N1091 1.384 . S
N1090 C1086 1.397 1_556 S
N1090 C1087 1.384 . S
N1091 C1083 1.431 . S
N1091 C1089 1.384 . S
H1092 C1098 0.930 . S
H1093 C1102 0.930 . S
H1094 C1107 0.924 1_655 S
H1095 C1105 0.929 . S
H1096 C1100 0.929 . S
H1097 C1106 0.929 . S
C1098 H1092 0.930 . S
C1098 C1099 1.367 . S
C1098 C1106 1.378 . S
C1099 C1098 1.367 . S
C1099 C1107 1.440 . S
C1100 H1096 0.929 . S
C1100 C1102 1.378 . S
C1100 C1104 1.350 . S
C1101 C1104 1.462 . S
C1101 C1106 1.350 1_655 S
C1101 N1109 1.427 . S
C1102 H1093 0.930 . S
C1102 C1100 1.378 . S
C1102 C1103 1.367 . S
C1103 C1102 1.367 . S
C1103 C1105 1.433 . S
C1104 C1100 1.350 . S
C1104 C1101 1.462 . S
C1104 N1108 1.427 . S
C1105 H1095 0.929 . S
C1105 C1103 1.433 . S
C1105 N1108 1.384 . S
C1106 H1097 0.929 . S
C1106 C1098 1.378 . S
C1106 C1101 1.350 1_455 S
C1107 H1094 0.924 1_455 S
C1107 C1099 1.440 . S
C1107 N1109 1.381 1_455 S
N1108 C1104 1.427 . S
N1108 C1105 1.384 . S
N1109 C1101 1.427 . S
N1109 C1107 1.381 1_655 S
H1110 C1116 0.930 . S
H1111 C1120 0.930 . S
H1112 C1125 0.929 . S
H1113 C1123 0.929 . S
H1114 C1118 0.929 1_455 S
H1115 C1124 0.929 . S
C1116 H1110 0.930 . S
C1116 C1117 1.367 . S
C1116 C1124 1.378 . S
C1117 C1116 1.367 . S
C1117 C1125 1.433 . S
C1118 H1114 0.929 1_655 S
C1118 C1120 1.378 . S
C1118 C1122 1.350 1_655 S
C1119 C1122 1.463 . S
C1119 C1124 1.350 . S
C1119 N1127 1.427 . S
C1120 H1111 0.930 . S
C1120 C1118 1.378 . S
C1120 C1121 1.367 . S
C1121 C1120 1.367 . S
C1121 C1123 1.433 . S
C1122 C1118 1.350 1_455 S
C1122 C1119 1.463 . S
C1122 N1126 1.427 1_455 S
C1123 H1113 0.929 . S
C1123 C1121 1.433 . S
C1123 N1126 1.384 . S
C1124 H1115 0.929 . S
C1124 C1116 1.378 . S
C1124 C1119 1.350 . S
C1125 H1112 0.929 . S
C1125 C1117 1.433 . S
C1125 N1127 1.384 . S
N1126 C1122 1.427 1_655 S
N1126 C1123 1.384 . S
N1127 C1119 1.427 . S
N1127 C1125 1.384 . S
H1128 C1134 0.930 . S
H1129 C1138 0.930 . S
H1130 C1143 0.929 . S
H1131 C1141 0.929 . S
H1132 C1136 0.929 . S
H1133 C1142 0.929 . S
C1134 H1128 0.930 . S
C1134 C1135 1.367 . S
C1134 C1142 1.378 . S
C1135 C1134 1.367 . S
C1135 C1143 1.433 . S
C1136 H1132 0.929 . S
C1136 C1138 1.378 . S
C1136 C1140 1.350 . S
C1137 C1140 1.463 . S
C1137 C1142 1.350 . S
C1137 N1145 1.427 . S
C1138 H1129 0.930 . S
C1138 C1136 1.378 . S
C1138 C1139 1.367 . S
C1139 C1138 1.367 . S
C1139 C1141 1.433 . S
C1140 C1136 1.350 . S
C1140 C1137 1.463 . S
C1140 N1144 1.427 . S
C1141 H1131 0.929 . S
C1141 C1139 1.433 . S
C1141 N1144 1.384 . S
C1142 H1133 0.929 . S
C1142 C1134 1.378 . S
C1142 C1137 1.350 . S
C1143 H1130 0.929 . S
C1143 C1135 1.433 . S
C1143 N1145 1.384 . S
N1144 C1140 1.427 . S
N1144 C1141 1.384 . S
N1145 C1137 1.427 . S
N1145 C1143 1.384 . S
H1146 C1152 0.958 . S
H1147 C1156 0.930 . S
H1148 C1161 0.929 . S
H1149 C1159 0.929 . S
H1150 C1154 0.929 . S
H1151 C1160 0.929 . S
C1152 H1146 0.958 . S
C1152 C1153 1.333 1_655 S
C1152 C1160 1.385 . S
C1153 C1152 1.333 1_455 S
C1153 C1161 1.433 . S
C1154 H1150 0.929 . S
C1154 C1156 1.378 . S
C1154 C1158 1.350 . S
C1155 C1158 1.463 . S
C1155 C1160 1.350 1_455 S
C1155 N1163 1.427 . S
C1156 H1147 0.930 . S
C1156 C1154 1.378 . S
C1156 C1157 1.367 . S
C1157 C1156 1.367 . S
C1157 C1159 1.433 1_455 S
C1158 C1154 1.350 . S
C1158 C1155 1.463 . S
C1158 N1162 1.427 1_455 S
C1159 H1149 0.929 . S
C1159 C1157 1.433 1_655 S
C1159 N1162 1.384 . S
C1160 H1151 0.929 . S
C1160 C1152 1.385 . S
C1160 C1155 1.350 1_655 S
C1161 H1148 0.929 . S
C1161 C1153 1.433 . S
C1161 N1163 1.384 . S
N1162 C1158 1.427 1_655 S
N1162 C1159 1.384 . S
N1163 C1155 1.427 . S
N1163 C1161 1.384 . S
H1164 C1170 0.930 . S
H1165 C1174 0.930 . S
H1166 C1179 0.929 . S
H1167 C1177 0.929 . S
H1168 C1172 0.929 . S
H1169 C1178 0.929 . S
C1170 H1164 0.930 . S
C1170 C1171 1.367 . S
C1170 C1178 1.378 . S
C1171 C1170 1.367 . S
C1171 C1179 1.433 . S
C1172 H1168 0.929 . S
C1172 C1174 1.378 . S
C1172 C1176 1.350 . S
C1173 C1176 1.463 . S
C1173 C1178 1.350 . S
C1173 N1181 1.427 . S
C1174 H1165 0.930 . S
C1174 C1172 1.378 . S
C1174 C1175 1.367 . S
C1175 C1174 1.367 . S
C1175 C1177 1.433 . S
C1176 C1172 1.350 . S
C1176 C1173 1.463 . S
C1176 N1180 1.427 . S
C1177 H1167 0.929 . S
C1177 C1175 1.433 . S
C1177 N1180 1.384 . S
C1178 H1169 0.929 . S
C1178 C1170 1.378 . S
C1178 C1173 1.350 . S
C1179 H1166 0.929 . S
C1179 C1171 1.433 . S
C1179 N1181 1.384 . S
N1180 C1176 1.427 . S
N1180 C1177 1.384 . S
N1181 C1173 1.427 . S
N1181 C1179 1.384 . S
H1182 C1188 0.930 . S
H1183 C1192 0.930 . S
H1184 C1197 0.929 . S
H1185 C1195 0.929 . S
H1186 C1190 0.929 . S
H1187 C1196 0.929 . S
C1188 H1182 0.930 . S
C1188 C1189 1.367 . S
C1188 C1196 1.378 . S
C1189 C1188 1.367 . S
C1189 C1197 1.433 . S
C1190 H1186 0.929 . S
C1190 C1192 1.378 . S
C1190 C1194 1.350 . S
C1191 C1194 1.463 . S
C1191 C1196 1.350 . S
C1191 N1199 1.427 . S
C1192 H1183 0.930 . S
C1192 C1190 1.378 . S
C1192 C1193 1.367 . S
C1193 C1192 1.367 . S
C1193 C1195 1.433 . S
C1194 C1190 1.350 . S
C1194 C1191 1.463 . S
C1194 N1198 1.427 . S
C1195 H1185 0.929 . S
C1195 C1193 1.433 . S
C1195 N1198 1.384 . S
C1196 H1187 0.929 . S
C1196 C1188 1.378 . S
C1196 C1191 1.350 . S
C1197 H1184 0.929 . S
C1197 C1189 1.433 . S
C1197 N1199 1.384 . S
N1198 C1194 1.427 . S
N1198 C1195 1.384 . S
N1199 C1191 1.427 . S
N1199 C1197 1.384 . S
H1200 C1206 0.930 . S
H1201 C1210 0.930 . S
H1202 C1215 0.929 . S
H1203 C1213 0.929 . S
H1204 C1208 0.929 . S
H1205 C1214 0.929 . S
C1206 H1200 0.930 . S
C1206 C1207 1.367 1_554 S
C1206 C1214 1.378 . S
C1207 C1206 1.367 1_556 S
C1207 C1215 1.433 . S
C1208 H1204 0.929 . S
C1208 C1210 1.378 . S
C1208 C1212 1.351 1_556 S
C1209 C1212 1.463 1_556 S
C1209 C1214 1.350 1_556 S
C1209 N1217 1.427 . S
C1210 H1201 0.930 . S
C1210 C1208 1.378 . S
C1210 C1211 1.367 1_556 S
C1211 C1210 1.367 1_554 S
C1211 C1213 1.433 . S
C1212 C1208 1.351 1_554 S
C1212 C1209 1.463 1_554 S
C1212 N1216 1.427 . S
C1213 H1203 0.929 . S
C1213 C1211 1.433 . S
C1213 N1216 1.384 . S
C1214 H1205 0.929 . S
C1214 C1206 1.378 . S
C1214 C1209 1.350 1_554 S
C1215 H1202 0.929 . S
C1215 C1207 1.433 . S
C1215 N1217 1.384 . S
N1216 C1212 1.427 . S
N1216 C1213 1.384 . S
N1217 C1209 1.427 . S
N1217 C1215 1.384 . S
H1218 C1224 0.930 . S
H1219 C1228 0.930 . S
H1220 C1233 0.929 . S
H1221 C1231 0.929 . S
H1222 C1226 0.929 . S
H1223 C1232 0.929 . S
C1224 H1218 0.930 . S
C1224 C1225 1.367 . S
C1224 C1232 1.378 . S
C1225 C1224 1.367 . S
C1225 C1233 1.433 . S
C1226 H1222 0.929 . S
C1226 C1228 1.378 . S
C1226 C1230 1.350 . S
C1227 C1230 1.463 . S
C1227 C1232 1.350 . S
C1227 N1235 1.427 . S
C1228 H1219 0.930 . S
C1228 C1226 1.378 . S
C1228 C1229 1.367 . S
C1229 C1228 1.367 . S
C1229 C1231 1.433 . S
C1230 C1226 1.350 . S
C1230 C1227 1.463 . S
C1230 N1234 1.427 . S
C1231 H1221 0.929 . S
C1231 C1229 1.433 . S
C1231 N1234 1.384 . S
C1232 H1223 0.929 . S
C1232 C1224 1.378 . S
C1232 C1227 1.350 . S
C1233 H1220 0.929 . S
C1233 C1225 1.433 . S
C1233 N1235 1.384 . S
N1234 C1230 1.427 . S
N1234 C1231 1.384 . S
N1235 C1227 1.427 . S
N1235 C1233 1.384 . S
H1236 C1242 0.930 . S
H1237 C1246 0.930 . S
H1238 C1251 0.929 . S
H1239 C1249 0.929 . S
H1240 C1244 0.929 . S
H1241 C1250 0.929 . S
C1242 H1236 0.930 . S
C1242 C1243 1.367 . S
C1242 C1250 1.378 . S
C1243 C1242 1.367 . S
C1243 C1251 1.433 . S
C1244 H1240 0.929 . S
C1244 C1246 1.378 . S
C1244 C1248 1.350 . S
C1245 C1248 1.463 . S
C1245 C1250 1.350 . S
C1245 N1253 1.427 . S
C1246 H1237 0.930 . S
C1246 C1244 1.378 . S
C1246 C1247 1.367 . S
C1247 C1246 1.367 . S
C1247 C1249 1.433 . S
C1248 C1244 1.350 . S
C1248 C1245 1.463 . S
C1248 N1252 1.427 . S
C1249 H1239 0.929 . S
C1249 C1247 1.433 . S
C1249 N1252 1.384 . S
C1250 H1241 0.929 . S
C1250 C1242 1.378 . S
C1250 C1245 1.350 . S
C1251 H1238 0.929 . S
C1251 C1243 1.433 . S
C1251 N1253 1.384 . S
N1252 C1248 1.427 . S
N1252 C1249 1.384 . S
N1253 C1245 1.427 . S
N1253 C1251 1.384 . S
H1254 C1260 0.930 . S
H1255 C1264 0.930 . S
H1256 C1269 0.929 . S
H1257 C1267 0.929 . S
H1258 C1262 0.929 . S
H1259 C1268 0.929 . S
C1260 H1254 0.930 . S
C1260 C1261 1.367 . S
C1260 C1268 1.378 . S
C1261 C1260 1.367 . S
C1261 C1269 1.433 . S
C1262 H1258 0.929 . S
C1262 C1264 1.378 . S
C1262 C1266 1.350 . S
C1263 C1266 1.463 . S
C1263 C1268 1.350 . S
C1263 N1271 1.427 . S
C1264 H1255 0.930 . S
C1264 C1262 1.378 . S
C1264 C1265 1.367 . S
C1265 C1264 1.367 . S
C1265 C1267 1.433 . S
C1266 C1262 1.350 . S
C1266 C1263 1.463 . S
C1266 N1270 1.427 . S
C1267 H1257 0.929 . S
C1267 C1265 1.433 . S
C1267 N1270 1.384 . S
C1268 H1259 0.929 . S
C1268 C1260 1.378 . S
C1268 C1263 1.350 . S
C1269 H1256 0.929 . S
C1269 C1261 1.433 . S
C1269 N1271 1.384 . S
N1270 C1266 1.427 . S
N1270 C1267 1.384 . S
N1271 C1263 1.427 . S
N1271 C1269 1.384 . S
H1272 C1278 0.930 . S
H1273 C1282 0.930 . S
H1274 C1287 0.929 . S
H1275 C1285 0.929 . S
H1276 C1280 0.929 . S
H1277 C1286 0.929 . S
C1278 H1272 0.930 . S
C1278 C1279 1.367 . S
C1278 C1286 1.378 . S
C1279 C1278 1.367 . S
C1279 C1287 1.433 . S
C1280 H1276 0.929 . S
C1280 C1282 1.378 . S
C1280 C1284 1.350 . S
C1281 C1284 1.463 . S
C1281 C1286 1.350 . S
C1281 N1289 1.427 . S
C1282 H1273 0.930 . S
C1282 C1280 1.378 . S
C1282 C1283 1.367 . S
C1283 C1282 1.367 . S
C1283 C1285 1.433 . S
C1284 C1280 1.350 . S
C1284 C1281 1.463 . S
C1284 N1288 1.427 . S
C1285 H1275 0.929 . S
C1285 C1283 1.433 . S
C1285 N1288 1.384 . S
C1286 H1277 0.929 . S
C1286 C1278 1.378 . S
C1286 C1281 1.350 . S
C1287 H1274 0.929 . S
C1287 C1279 1.433 . S
C1287 N1289 1.384 . S
N1288 C1284 1.427 . S
N1288 C1285 1.384 . S
N1289 C1281 1.427 . S
N1289 C1287 1.384 . S
H1290 C1296 0.930 . S
H1291 C1300 0.930 . S
H1292 C1305 0.929 . S
H1293 C1303 0.929 . S
H1294 C1298 0.929 . S
H1295 C1304 0.929 . S
C1296 H1290 0.930 . S
C1296 C1297 1.367 . S
C1296 C1304 1.378 . S
C1297 C1296 1.367 . S
C1297 C1305 1.433 . S
C1298 H1294 0.929 . S
C1298 C1300 1.378 . S
C1298 C1302 1.350 . S
C1299 C1302 1.463 1_554 S
C1299 C1304 1.350 . S
C1299 N1307 1.427 . S
C1300 H1291 0.930 . S
C1300 C1298 1.378 . S
C1300 C1301 1.367 . S
C1301 C1300 1.367 . S
C1301 C1303 1.433 . S
C1302 C1298 1.350 . S
C1302 C1299 1.463 1_556 S
C1302 N1306 1.427 . S
C1303 H1293 0.929 . S
C1303 C1301 1.433 . S
C1303 N1306 1.384 . S
C1304 H1295 0.929 . S
C1304 C1296 1.378 . S
C1304 C1299 1.350 . S
C1305 H1292 0.929 . S
C1305 C1297 1.433 . S
C1305 N1307 1.384 . S
N1306 C1302 1.427 . S
N1306 C1303 1.384 . S
N1307 C1299 1.427 . S
N1307 C1305 1.384 . S
H1308 C1314 0.930 . S
H1309 C1318 0.930 . S
H1310 C1323 0.929 . S
H1311 C1321 0.929 . S
H1312 C1316 0.929 . S
H1313 C1322 0.929 . S
C1314 H1308 0.930 . S
C1314 C1315 1.367 . S
C1314 C1322 1.378 . S
C1315 C1314 1.367 . S
C1315 C1323 1.433 . S
C1316 H1312 0.929 . S
C1316 C1318 1.378 . S
C1316 C1320 1.350 . S
C1317 C1320 1.463 . S
C1317 C1322 1.350 . S
C1317 N1325 1.427 . S
C1318 H1309 0.930 . S
C1318 C1316 1.378 . S
C1318 C1319 1.367 . S
C1319 C1318 1.367 . S
C1319 C1321 1.433 . S
C1320 C1316 1.350 . S
C1320 C1317 1.463 . S
C1320 N1324 1.427 . S
C1321 H1311 0.929 . S
C1321 C1319 1.433 . S
C1321 N1324 1.384 . S
C1322 H1313 0.929 . S
C1322 C1314 1.378 . S
C1322 C1317 1.350 . S
C1323 H1310 0.929 . S
C1323 C1315 1.433 . S
C1323 N1325 1.384 . S
N1324 C1320 1.427 . S
N1324 C1321 1.384 . S
N1325 C1317 1.427 . S
N1325 C1323 1.384 . S
H1326 C1332 0.930 . S
H1327 C1336 0.930 . S
H1328 C1341 0.929 . S
H1329 C1339 0.929 . S
H1330 C1334 0.929 . S
H1331 C1340 0.929 . S
C1332 H1326 0.930 . S
C1332 C1333 1.367 . S
C1332 C1340 1.378 . S
C1333 C1332 1.367 . S
C1333 C1341 1.433 . S
C1334 H1330 0.929 . S
C1334 C1336 1.378 . S
C1334 C1338 1.350 . S
C1335 C1338 1.463 . S
C1335 C1340 1.350 . S
C1335 N1343 1.427 . S
C1336 H1327 0.930 . S
C1336 C1334 1.378 . S
C1336 C1337 1.367 . S
C1337 C1336 1.367 . S
C1337 C1339 1.433 . S
C1338 C1334 1.350 . S
C1338 C1335 1.463 . S
C1338 N1342 1.427 . S
C1339 H1329 0.929 . S
C1339 C1337 1.433 . S
C1339 N1342 1.384 . S
C1340 H1331 0.929 . S
C1340 C1332 1.378 . S
C1340 C1335 1.350 . S
C1341 H1328 0.929 . S
C1341 C1333 1.433 . S
C1341 N1343 1.384 . S
N1342 C1338 1.427 . S
N1342 C1339 1.384 . S
N1343 C1335 1.427 . S
N1343 C1341 1.384 . S
H1344 C1350 0.930 . S
H1345 C1354 0.930 . S
H1346 C1359 0.929 . S
H1347 C1357 0.929 . S
H1348 C1352 0.929 . S
H1349 C1358 0.929 . S
C1350 H1344 0.930 . S
C1350 C1351 1.367 . S
C1350 C1358 1.378 . S
C1351 C1350 1.367 . S
C1351 C1359 1.433 . S
C1352 H1348 0.929 . S
C1352 C1354 1.378 . S
C1352 C1356 1.350 . S
C1353 C1356 1.463 . S
C1353 C1358 1.350 . S
C1353 N1361 1.427 . S
C1354 H1345 0.930 . S
C1354 C1352 1.378 . S
C1354 C1355 1.367 . S
C1355 C1354 1.367 . S
C1355 C1357 1.433 . S
C1356 C1352 1.350 . S
C1356 C1353 1.463 . S
C1356 N1360 1.427 . S
C1357 H1347 0.929 . S
C1357 C1355 1.433 . S
C1357 N1360 1.384 . S
C1358 H1349 0.929 . S
C1358 C1350 1.378 . S
C1358 C1353 1.350 . S
C1359 H1346 0.929 . S
C1359 C1351 1.433 . S
C1359 N1361 1.384 . S
N1360 C1356 1.427 . S
N1360 C1357 1.384 . S
N1361 C1353 1.427 . S
N1361 C1359 1.384 . S
H1362 C1368 0.930 . S
H1363 C1372 0.930 . S
H1364 C1377 0.929 . S
H1365 C1375 0.929 . S
H1366 C1370 0.929 . S
H1367 C1376 0.929 . S
C1368 H1362 0.930 . S
C1368 C1369 1.367 . S
C1368 C1376 1.378 . S
C1369 C1368 1.367 . S
C1369 C1377 1.433 . S
C1370 H1366 0.929 . S
C1370 C1372 1.378 . S
C1370 C1374 1.350 . S
C1371 C1374 1.463 . S
C1371 C1376 1.350 . S
C1371 N1379 1.427 . S
C1372 H1363 0.930 . S
C1372 C1370 1.378 . S
C1372 C1373 1.367 . S
C1373 C1372 1.367 . S
C1373 C1375 1.433 . S
C1374 C1370 1.350 . S
C1374 C1371 1.463 . S
C1374 N1378 1.427 . S
C1375 H1365 0.929 . S
C1375 C1373 1.433 . S
C1375 N1378 1.384 . S
C1376 H1367 0.929 . S
C1376 C1368 1.378 . S
C1376 C1371 1.350 . S
C1377 H1364 0.929 . S
C1377 C1369 1.433 . S
C1377 N1379 1.384 . S
N1378 C1374 1.427 . S
N1378 C1375 1.384 . S
N1379 C1371 1.427 . S
N1379 C1377 1.384 . S
H1380 C1386 0.930 . S
H1381 C1390 0.930 . S
H1382 C1395 0.929 . S
H1383 C1393 0.929 . S
H1384 C1388 0.929 . S
H1385 C1394 0.929 . S
C1386 H1380 0.930 . S
C1386 C1387 1.367 . S
C1386 C1394 1.378 . S
C1387 C1386 1.367 . S
C1387 C1395 1.433 . S
C1388 H1384 0.929 . S
C1388 C1390 1.378 . S
C1388 C1392 1.350 . S
C1389 C1392 1.463 . S
C1389 C1394 1.350 . S
C1389 N1397 1.427 . S
C1390 H1381 0.930 . S
C1390 C1388 1.378 . S
C1390 C1391 1.367 . S
C1391 C1390 1.367 . S
C1391 C1393 1.433 . S
C1392 C1388 1.350 . S
C1392 C1389 1.463 . S
C1392 N1396 1.427 . S
C1393 H1383 0.929 . S
C1393 C1391 1.433 . S
C1393 N1396 1.384 . S
C1394 H1385 0.929 . S
C1394 C1386 1.378 . S
C1394 C1389 1.350 . S
C1395 H1382 0.929 . S
C1395 C1387 1.433 . S
C1395 N1397 1.384 . S
N1396 C1392 1.427 . S
N1396 C1393 1.384 . S
N1397 C1389 1.427 . S
N1397 C1395 1.384 . S
H1398 C1404 0.930 . S
H1399 C1408 0.930 . S
H1400 C1413 0.929 . S
H1401 C1411 0.929 . S
H1402 C1406 0.929 . S
H1403 C1412 0.929 . S
C1404 H1398 0.930 . S
C1404 C1405 1.367 . S
C1404 C1412 1.378 . S
C1405 C1404 1.367 . S
C1405 C1413 1.433 . S
C1406 H1402 0.929 . S
C1406 C1408 1.378 . S
C1406 C1410 1.350 . S
C1407 C1410 1.463 . S
C1407 C1412 1.350 . S
C1407 N1415 1.427 . S
C1408 H1399 0.930 . S
C1408 C1406 1.378 . S
C1408 C1409 1.367 . S
C1409 C1408 1.367 . S
C1409 C1411 1.433 . S
C1410 C1406 1.350 . S
C1410 C1407 1.463 . S
C1410 N1414 1.427 . S
C1411 H1401 0.929 . S
C1411 C1409 1.433 . S
C1411 N1414 1.384 . S
C1412 H1403 0.929 . S
C1412 C1404 1.378 . S
C1412 C1407 1.350 . S
C1413 H1400 0.929 . S
C1413 C1405 1.433 . S
C1413 N1415 1.384 . S
N1414 C1410 1.427 . S
N1414 C1411 1.384 . S
N1415 C1407 1.427 . S
N1415 C1413 1.384 . S
H1416 C1422 0.930 . S
H1417 C1426 0.930 . S
H1418 C1431 0.929 . S
H1419 C1429 0.929 . S
H1420 C1424 0.929 . S
H1421 C1430 0.929 . S
C1422 H1416 0.930 . S
C1422 C1423 1.367 . S
C1422 C1430 1.378 . S
C1423 C1422 1.367 . S
C1423 C1431 1.433 . S
C1424 H1420 0.929 . S
C1424 C1426 1.378 . S
C1424 C1428 1.350 . S
C1425 C1428 1.463 . S
C1425 C1430 1.350 . S
C1425 N1433 1.427 . S
C1426 H1417 0.930 . S
C1426 C1424 1.378 . S
C1426 C1427 1.367 . S
C1427 C1426 1.367 . S
C1427 C1429 1.433 . S
C1428 C1424 1.350 . S
C1428 C1425 1.463 . S
C1428 N1432 1.427 . S
C1429 H1419 0.929 . S
C1429 C1427 1.433 . S
C1429 N1432 1.384 . S
C1430 H1421 0.929 . S
C1430 C1422 1.378 . S
C1430 C1425 1.350 . S
C1431 H1418 0.929 . S
C1431 C1423 1.433 . S
C1431 N1433 1.384 . S
N1432 C1428 1.427 . S
N1432 C1429 1.384 . S
N1433 C1425 1.427 . S
N1433 C1431 1.384 . S
H1434 C1440 0.930 . S
H1435 C1444 0.930 . S
H1436 C1449 0.929 . S
H1437 C1447 0.929 . S
H1438 C1442 0.929 . S
H1439 C1448 0.929 . S
C1440 H1434 0.930 . S
C1440 C1441 1.367 . S
C1440 C1448 1.378 . S
C1441 C1440 1.367 . S
C1441 C1449 1.433 . S
C1442 H1438 0.929 . S
C1442 C1444 1.378 . S
C1442 C1446 1.350 . S
C1443 C1446 1.463 . S
C1443 C1448 1.350 . S
C1443 N1451 1.427 . S
C1444 H1435 0.930 . S
C1444 C1442 1.378 . S
C1444 C1445 1.367 . S
C1445 C1444 1.367 . S
C1445 C1447 1.433 . S
C1446 C1442 1.350 . S
C1446 C1443 1.463 . S
C1446 N1450 1.427 . S
C1447 H1437 0.929 . S
C1447 C1445 1.433 . S
C1447 N1450 1.384 . S
C1448 H1439 0.929 . S
C1448 C1440 1.378 . S
C1448 C1443 1.350 . S
C1449 H1436 0.929 . S
C1449 C1441 1.433 . S
C1449 N1451 1.384 . S
N1450 C1446 1.427 . S
N1450 C1447 1.384 . S
N1451 C1443 1.427 . S
N1451 C1449 1.384 . S
H1452 C1458 0.930 . S
H1453 C1462 0.930 . S
H1454 C1467 0.929 . S
H1455 C1465 0.929 . S
H1456 C1460 0.929 . S
H1457 C1466 0.929 . S
C1458 H1452 0.930 . S
C1458 C1459 1.367 . S
C1458 C1466 1.378 . S
C1459 C1458 1.367 . S
C1459 C1467 1.433 . S
C1460 H1456 0.929 . S
C1460 C1462 1.378 . S
C1460 C1464 1.350 . S
C1461 C1464 1.463 . S
C1461 C1466 1.350 . S
C1461 N1469 1.427 . S
C1462 H1453 0.930 . S
C1462 C1460 1.378 . S
C1462 C1463 1.367 . S
C1463 C1462 1.367 . S
C1463 C1465 1.433 . S
C1464 C1460 1.350 . S
C1464 C1461 1.463 . S
C1464 N1468 1.427 . S
C1465 H1455 0.929 . S
C1465 C1463 1.433 . S
C1465 N1468 1.384 . S
C1466 H1457 0.929 . S
C1466 C1458 1.378 . S
C1466 C1461 1.350 . S
C1467 H1454 0.929 . S
C1467 C1459 1.433 . S
C1467 N1469 1.384 . S
N1468 C1464 1.427 . S
N1468 C1465 1.384 . S
N1469 C1461 1.427 . S
N1469 C1467 1.384 . S
H1470 C1476 0.930 . S
H1471 C1480 0.930 . S
H1472 C1485 0.929 . S
H1473 C1483 0.929 . S
H1474 C1478 0.929 . S
H1475 C1484 0.929 . S
C1476 H1470 0.930 . S
C1476 C1477 1.367 . S
C1476 C1484 1.378 . S
C1477 C1476 1.367 . S
C1477 C1485 1.433 . S
C1478 H1474 0.929 . S
C1478 C1480 1.378 . S
C1478 C1482 1.350 . S
C1479 C1482 1.463 . S
C1479 C1484 1.350 . S
C1479 N1487 1.427 . S
C1480 H1471 0.930 . S
C1480 C1478 1.378 . S
C1480 C1481 1.367 . S
C1481 C1480 1.367 . S
C1481 C1483 1.433 . S
C1482 C1478 1.350 . S
C1482 C1479 1.463 . S
C1482 N1486 1.427 . S
C1483 H1473 0.929 . S
C1483 C1481 1.433 . S
C1483 N1486 1.384 . S
C1484 H1475 0.929 . S
C1484 C1476 1.378 . S
C1484 C1479 1.350 . S
C1485 H1472 0.929 . S
C1485 C1477 1.433 . S
C1485 N1487 1.384 . S
N1486 C1482 1.427 . S
N1486 C1483 1.384 . S
N1487 C1479 1.427 . S
N1487 C1485 1.384 . S
H1488 C1494 0.930 . S
H1489 C1498 0.930 . S
H1490 C1503 0.929 . S
H1491 C1501 0.929 . S
H1492 C1496 0.929 . S
H1493 C1502 0.929 . S
C1494 H1488 0.930 . S
C1494 C1495 1.367 . S
C1494 C1502 1.378 . S
C1495 C1494 1.367 . S
C1495 C1503 1.433 . S
C1496 H1492 0.929 . S
C1496 C1498 1.378 . S
C1496 C1500 1.350 . S
C1497 C1500 1.463 . S
C1497 C1502 1.350 . S
C1497 N1505 1.427 . S
C1498 H1489 0.930 . S
C1498 C1496 1.378 . S
C1498 C1499 1.367 . S
C1499 C1498 1.367 . S
C1499 C1501 1.433 . S
C1500 C1496 1.350 . S
C1500 C1497 1.463 . S
C1500 N1504 1.427 . S
C1501 H1491 0.929 . S
C1501 C1499 1.433 . S
C1501 N1504 1.384 . S
C1502 H1493 0.929 . S
C1502 C1494 1.378 . S
C1502 C1497 1.350 . S
C1503 H1490 0.929 . S
C1503 C1495 1.433 . S
C1503 N1505 1.384 . S
N1504 C1500 1.427 . S
N1504 C1501 1.384 . S
N1505 C1497 1.427 . S
N1505 C1503 1.384 . S
H1506 C1512 0.930 . S
H1507 C1516 0.930 . S
H1508 C1521 0.929 . S
H1509 C1519 0.929 . S
H1510 C1514 0.929 . S
H1511 C1520 0.929 . S
C1512 H1506 0.930 . S
C1512 C1513 1.367 . S
C1512 C1520 1.378 . S
C1513 C1512 1.367 . S
C1513 C1521 1.433 . S
C1514 H1510 0.929 . S
C1514 C1516 1.378 . S
C1514 C1518 1.350 . S
C1515 C1518 1.463 . S
C1515 C1520 1.350 . S
C1515 N1523 1.427 . S
C1516 H1507 0.930 . S
C1516 C1514 1.378 . S
C1516 C1517 1.367 . S
C1517 C1516 1.367 . S
C1517 C1519 1.433 . S
C1518 C1514 1.350 . S
C1518 C1515 1.463 . S
C1518 N1522 1.427 . S
C1519 H1509 0.929 . S
C1519 C1517 1.433 . S
C1519 N1522 1.384 . S
C1520 H1511 0.929 . S
C1520 C1512 1.378 . S
C1520 C1515 1.350 . S
C1521 H1508 0.929 . S
C1521 C1513 1.433 . S
C1521 N1523 1.384 . S
N1522 C1518 1.427 . S
N1522 C1519 1.384 . S
N1523 C1515 1.427 . S
N1523 C1521 1.384 . S
H1524 C1530 0.930 . S
H1525 C1534 0.930 . S
H1526 C1539 0.929 . S
H1527 C1537 0.929 . S
H1528 C1532 0.929 . S
H1529 C1538 0.929 . S
C1530 H1524 0.930 . S
C1530 C1531 1.367 . S
C1530 C1538 1.378 . S
C1531 C1530 1.367 . S
C1531 C1539 1.433 . S
C1532 H1528 0.929 . S
C1532 C1534 1.378 . S
C1532 C1536 1.350 . S
C1533 C1536 1.463 . S
C1533 C1538 1.350 . S
C1533 N1541 1.427 . S
C1534 H1525 0.930 . S
C1534 C1532 1.378 . S
C1534 C1535 1.367 . S
C1535 C1534 1.367 . S
C1535 C1537 1.433 . S
C1536 C1532 1.350 . S
C1536 C1533 1.463 . S
C1536 N1540 1.427 . S
C1537 H1527 0.929 . S
C1537 C1535 1.433 . S
C1537 N1540 1.384 . S
C1538 H1529 0.929 . S
C1538 C1530 1.378 . S
C1538 C1533 1.350 . S
C1539 H1526 0.929 . S
C1539 C1531 1.433 . S
C1539 N1541 1.384 . S
N1540 C1536 1.427 . S
N1540 C1537 1.384 . S
N1541 C1533 1.427 . S
N1541 C1539 1.384 . S
H1542 C1548 0.930 . S
H1543 C1552 0.930 . S
H1544 C1557 0.929 . S
H1545 C1555 0.929 . S
H1546 C1550 0.929 . S
H1547 C1556 0.929 . S
C1548 H1542 0.930 . S
C1548 C1549 1.367 . S
C1548 C1556 1.378 . S
C1549 C1548 1.367 . S
C1549 C1557 1.433 . S
C1550 H1546 0.929 . S
C1550 C1552 1.378 . S
C1550 C1554 1.350 . S
C1551 C1554 1.463 . S
C1551 C1556 1.350 . S
C1551 N1559 1.427 . S
C1552 H1543 0.930 . S
C1552 C1550 1.378 . S
C1552 C1553 1.367 . S
C1553 C1552 1.367 . S
C1553 C1555 1.433 . S
C1554 C1550 1.350 . S
C1554 C1551 1.463 . S
C1554 N1558 1.427 . S
C1555 H1545 0.929 . S
C1555 C1553 1.433 . S
C1555 N1558 1.384 . S
C1556 H1547 0.929 . S
C1556 C1548 1.378 . S
C1556 C1551 1.350 . S
C1557 H1544 0.929 . S
C1557 C1549 1.433 . S
C1557 N1559 1.384 . S
N1558 C1554 1.427 . S
N1558 C1555 1.384 . S
N1559 C1551 1.427 . S
N1559 C1557 1.384 . S
H1560 C1566 0.930 . S
H1561 C1570 0.930 . S
H1562 C1575 0.929 . S
H1563 C1573 0.929 . S
H1564 C1568 0.929 . S
H1565 C1574 0.929 . S
C1566 H1560 0.930 . S
C1566 C1567 1.367 . S
C1566 C1574 1.378 . S
C1567 C1566 1.367 . S
C1567 C1575 1.433 . S
C1568 H1564 0.929 . S
C1568 C1570 1.378 . S
C1568 C1572 1.350 . S
C1569 C1572 1.463 . S
C1569 C1574 1.350 . S
C1569 N1577 1.427 . S
C1570 H1561 0.930 . S
C1570 C1568 1.378 . S
C1570 C1571 1.367 . S
C1571 C1570 1.367 . S
C1571 C1573 1.433 . S
C1572 C1568 1.350 . S
C1572 C1569 1.463 . S
C1572 N1576 1.427 . S
C1573 H1563 0.929 . S
C1573 C1571 1.433 . S
C1573 N1576 1.384 . S
C1574 H1565 0.929 . S
C1574 C1566 1.378 . S
C1574 C1569 1.350 . S
C1575 H1562 0.929 . S
C1575 C1567 1.433 . S
C1575 N1577 1.384 . S
N1576 C1572 1.427 . S
N1576 C1573 1.384 . S
N1577 C1569 1.427 . S
N1577 C1575 1.384 . S
H1578 C1584 0.930 . S
H1579 C1588 0.930 . S
H1580 C1593 0.929 . S
H1581 C1591 0.929 . S
H1582 C1586 0.929 . S
H1583 C1592 0.929 . S
C1584 H1578 0.930 . S
C1584 C1585 1.367 . S
C1584 C1592 1.378 . S
C1585 C1584 1.367 . S
C1585 C1593 1.433 . S
C1586 H1582 0.929 . S
C1586 C1588 1.378 . S
C1586 C1590 1.350 . S
C1587 C1590 1.463 . S
C1587 C1592 1.350 . S
C1587 N1595 1.427 . S
C1588 H1579 0.930 . S
C1588 C1586 1.378 . S
C1588 C1589 1.367 . S
C1589 C1588 1.367 . S
C1589 C1591 1.433 . S
C1590 C1586 1.350 . S
C1590 C1587 1.463 . S
C1590 N1594 1.427 . S
C1591 H1581 0.929 . S
C1591 C1589 1.433 . S
C1591 N1594 1.384 . S
C1592 H1583 0.929 . S
C1592 C1584 1.378 . S
C1592 C1587 1.350 . S
C1593 H1580 0.929 . S
C1593 C1585 1.433 . S
C1593 N1595 1.384 . S
N1594 C1590 1.427 . S
N1594 C1591 1.384 . S
N1595 C1587 1.427 . S
N1595 C1593 1.384 . S
H1596 C1602 0.930 . S
H1597 C1606 0.930 . S
H1598 C1611 0.929 . S
H1599 C1609 0.929 . S
H1600 C1604 0.929 . S
H1601 C1610 0.929 . S
C1602 H1596 0.930 . S
C1602 C1603 1.367 . S
C1602 C1610 1.378 . S
C1603 C1602 1.367 . S
C1603 C1611 1.433 . S
C1604 H1600 0.929 . S
C1604 C1606 1.378 . S
C1604 C1608 1.350 . S
C1605 C1608 1.463 . S
C1605 C1610 1.350 . S
C1605 N1613 1.427 . S
C1606 H1597 0.930 . S
C1606 C1604 1.378 . S
C1606 C1607 1.367 . S
C1607 C1606 1.367 . S
C1607 C1609 1.433 . S
C1608 C1604 1.350 . S
C1608 C1605 1.463 . S
C1608 N1612 1.427 . S
C1609 H1599 0.929 . S
C1609 C1607 1.433 . S
C1609 N1612 1.384 . S
C1610 H1601 0.929 . S
C1610 C1602 1.378 . S
C1610 C1605 1.350 . S
C1611 H1598 0.929 . S
C1611 C1603 1.433 . S
C1611 N1613 1.384 . S
N1612 C1608 1.427 . S
N1612 C1609 1.384 . S
N1613 C1605 1.427 . S
N1613 C1611 1.384 . S
H1614 C1620 0.930 . S
H1615 C1624 0.930 . S
H1616 C1629 0.929 . S
H1617 C1627 0.929 . S
H1618 C1622 0.929 . S
H1619 C1628 0.929 . S
C1620 H1614 0.930 . S
C1620 C1621 1.367 . S
C1620 C1628 1.378 . S
C1621 C1620 1.367 . S
C1621 C1629 1.433 . S
C1622 H1618 0.929 . S
C1622 C1624 1.378 . S
C1622 C1626 1.350 . S
C1623 C1626 1.463 . S
C1623 C1628 1.350 . S
C1623 N1631 1.427 . S
C1624 H1615 0.930 . S
C1624 C1622 1.378 . S
C1624 C1625 1.367 . S
C1625 C1624 1.367 . S
C1625 C1627 1.433 . S
C1626 C1622 1.350 . S
C1626 C1623 1.463 . S
C1626 N1630 1.427 . S
C1627 H1617 0.929 . S
C1627 C1625 1.433 . S
C1627 N1630 1.384 . S
C1628 H1619 0.929 . S
C1628 C1620 1.378 . S
C1628 C1623 1.350 . S
C1629 H1616 0.929 . S
C1629 C1621 1.433 . S
C1629 N1631 1.384 . S
N1630 C1626 1.427 . S
N1630 C1627 1.384 . S
N1631 C1623 1.427 . S
N1631 C1629 1.384 . S
H1632 C1638 0.930 . S
H1633 C1642 0.930 . S
H1634 C1647 0.929 . S
H1635 C1645 0.929 . S
H1636 C1640 0.929 . S
H1637 C1646 0.929 . S
C1638 H1632 0.930 . S
C1638 C1639 1.367 . S
C1638 C1646 1.378 . S
C1639 C1638 1.367 . S
C1639 C1647 1.433 . S
C1640 H1636 0.929 . S
C1640 C1642 1.378 . S
C1640 C1644 1.350 . S
C1641 C1644 1.463 . S
C1641 C1646 1.350 . S
C1641 N1649 1.427 . S
C1642 H1633 0.930 . S
C1642 C1640 1.378 . S
C1642 C1643 1.367 . S
C1643 C1642 1.367 . S
C1643 C1645 1.433 . S
C1644 C1640 1.350 . S
C1644 C1641 1.463 . S
C1644 N1648 1.427 . S
C1645 H1635 0.929 . S
C1645 C1643 1.433 . S
C1645 N1648 1.384 . S
C1646 H1637 0.929 . S
C1646 C1638 1.378 . S
C1646 C1641 1.350 . S
C1647 H1634 0.929 . S
C1647 C1639 1.433 . S
C1647 N1649 1.384 . S
N1648 C1644 1.427 . S
N1648 C1645 1.384 . S
N1649 C1641 1.427 . S
N1649 C1647 1.384 . S
H1650 C1656 0.930 . S
H1651 C1660 0.930 . S
H1652 C1665 0.929 . S
H1653 C1663 0.929 . S
H1654 C1658 0.929 . S
H1655 C1664 0.929 . S
C1656 H1650 0.930 . S
C1656 C1657 1.367 . S
C1656 C1664 1.378 . S
C1657 C1656 1.367 . S
C1657 C1665 1.433 . S
C1658 H1654 0.929 . S
C1658 C1660 1.378 . S
C1658 C1662 1.350 . S
C1659 C1662 1.463 . S
C1659 C1664 1.350 . S
C1659 N1667 1.427 . S
C1660 H1651 0.930 . S
C1660 C1658 1.378 . S
C1660 C1661 1.367 . S
C1661 C1660 1.367 . S
C1661 C1663 1.433 . S
C1662 C1658 1.350 . S
C1662 C1659 1.463 . S
C1662 N1666 1.427 . S
C1663 H1653 0.929 . S
C1663 C1661 1.433 . S
C1663 N1666 1.384 . S
C1664 H1655 0.929 . S
C1664 C1656 1.378 . S
C1664 C1659 1.350 . S
C1665 H1652 0.929 . S
C1665 C1657 1.433 . S
C1665 N1667 1.384 . S
N1666 C1662 1.427 . S
N1666 C1663 1.384 . S
N1667 C1659 1.427 . S
N1667 C1665 1.384 . S
H1668 C1674 0.930 . S
H1669 C1678 0.930 . S
H1670 C1683 0.929 . S
H1671 C1681 0.929 . S
H1672 C1676 0.929 . S
H1673 C1682 0.929 . S
C1674 H1668 0.930 . S
C1674 C1675 1.367 . S
C1674 C1682 1.378 . S
C1675 C1674 1.367 . S
C1675 C1683 1.433 . S
C1676 H1672 0.929 . S
C1676 C1678 1.378 . S
C1676 C1680 1.350 . S
C1677 C1680 1.463 . S
C1677 C1682 1.350 . S
C1677 N1685 1.427 . S
C1678 H1669 0.930 . S
C1678 C1676 1.378 . S
C1678 C1679 1.367 . S
C1679 C1678 1.367 . S
C1679 C1681 1.433 . S
C1680 C1676 1.350 . S
C1680 C1677 1.463 . S
C1680 N1684 1.427 . S
C1681 H1671 0.929 . S
C1681 C1679 1.433 . S
C1681 N1684 1.384 . S
C1682 H1673 0.929 . S
C1682 C1674 1.378 . S
C1682 C1677 1.350 . S
C1683 H1670 0.929 . S
C1683 C1675 1.433 . S
C1683 N1685 1.384 . S
N1684 C1680 1.427 . S
N1684 C1681 1.384 . S
N1685 C1677 1.427 . S
N1685 C1683 1.384 . S
H1686 C1692 0.930 . S
H1687 C1696 0.930 . S
H1688 C1701 0.929 . S
H1689 C1699 0.929 . S
H1690 C1694 0.929 . S
H1691 C1700 0.929 . S
C1692 H1686 0.930 . S
C1692 C1693 1.367 . S
C1692 C1700 1.378 . S
C1693 C1692 1.367 . S
C1693 C1701 1.433 . S
C1694 H1690 0.929 . S
C1694 C1696 1.378 . S
C1694 C1698 1.350 . S
C1695 C1698 1.463 . S
C1695 C1700 1.350 . S
C1695 N1703 1.427 . S
C1696 H1687 0.930 . S
C1696 C1694 1.378 . S
C1696 C1697 1.367 . S
C1697 C1696 1.367 . S
C1697 C1699 1.433 . S
C1698 C1694 1.350 . S
C1698 C1695 1.463 . S
C1698 N1702 1.427 . S
C1699 H1689 0.929 . S
C1699 C1697 1.433 . S
C1699 N1702 1.384 . S
C1700 H1691 0.929 . S
C1700 C1692 1.378 . S
C1700 C1695 1.350 . S
C1701 H1688 0.929 . S
C1701 C1693 1.433 . S
C1701 N1703 1.384 . S
N1702 C1698 1.427 . S
N1702 C1699 1.384 . S
N1703 C1695 1.427 . S
N1703 C1701 1.384 . S
H1704 C1710 0.930 . S
H1705 C1714 0.930 . S
H1706 C1719 0.929 . S
H1707 C1717 0.929 . S
H1708 C1712 0.929 . S
H1709 C1718 0.929 . S
C1710 H1704 0.930 . S
C1710 C1711 1.367 . S
C1710 C1718 1.378 . S
C1711 C1710 1.367 . S
C1711 C1719 1.433 . S
C1712 H1708 0.929 . S
C1712 C1714 1.378 . S
C1712 C1716 1.350 . S
C1713 C1716 1.463 . S
C1713 C1718 1.350 . S
C1713 N1721 1.427 . S
C1714 H1705 0.930 . S
C1714 C1712 1.378 . S
C1714 C1715 1.367 . S
C1715 C1714 1.367 . S
C1715 C1717 1.433 . S
C1716 C1712 1.350 . S
C1716 C1713 1.463 . S
C1716 N1720 1.427 . S
C1717 H1707 0.929 . S
C1717 C1715 1.433 . S
C1717 N1720 1.384 . S
C1718 H1709 0.929 . S
C1718 C1710 1.378 . S
C1718 C1713 1.350 . S
C1719 H1706 0.929 . S
C1719 C1711 1.433 . S
C1719 N1721 1.384 . S
N1720 C1716 1.427 . S
N1720 C1717 1.384 . S
N1721 C1713 1.427 . S
N1721 C1719 1.384 . S
H1722 C1728 0.930 . S
H1723 C1732 0.930 . S
H1724 C1737 0.929 . S
H1725 C1735 0.929 . S
H1726 C1730 0.929 . S
H1727 C1736 0.929 . S
C1728 H1722 0.930 . S
C1728 C1729 1.367 . S
C1728 C1736 1.378 . S
C1729 C1728 1.367 . S
C1729 C1737 1.433 . S
C1730 H1726 0.929 . S
C1730 C1732 1.378 . S
C1730 C1734 1.350 . S
C1731 C1734 1.463 . S
C1731 C1736 1.350 . S
C1731 N1739 1.427 . S
C1732 H1723 0.930 . S
C1732 C1730 1.378 . S
C1732 C1733 1.367 . S
C1733 C1732 1.367 . S
C1733 C1735 1.433 . S
C1734 C1730 1.350 . S
C1734 C1731 1.463 . S
C1734 N1738 1.427 . S
C1735 H1725 0.929 . S
C1735 C1733 1.433 . S
C1735 N1738 1.384 . S
C1736 H1727 0.929 . S
C1736 C1728 1.378 . S
C1736 C1731 1.350 . S
C1737 H1724 0.929 . S
C1737 C1729 1.433 . S
C1737 N1739 1.384 . S
N1738 C1734 1.427 . S
N1738 C1735 1.384 . S
N1739 C1731 1.427 . S
N1739 C1737 1.384 . S
H1740 C1746 0.930 . S
H1741 C1750 0.930 . S
H1742 C1755 0.929 . S
H1743 C1753 0.929 . S
H1744 C1748 0.929 . S
H1745 C1754 0.929 . S
C1746 H1740 0.930 . S
C1746 C1747 1.367 . S
C1746 C1754 1.378 . S
C1747 C1746 1.367 . S
C1747 C1755 1.433 . S
C1748 H1744 0.929 . S
C1748 C1750 1.378 . S
C1748 C1752 1.350 . S
C1749 C1752 1.463 . S
C1749 C1754 1.350 . S
C1749 N1757 1.427 . S
C1750 H1741 0.930 . S
C1750 C1748 1.378 . S
C1750 C1751 1.367 . S
C1751 C1750 1.367 . S
C1751 C1753 1.433 . S
C1752 C1748 1.350 . S
C1752 C1749 1.463 . S
C1752 N1756 1.427 . S
C1753 H1743 0.929 . S
C1753 C1751 1.433 . S
C1753 N1756 1.384 . S
C1754 H1745 0.929 . S
C1754 C1746 1.378 . S
C1754 C1749 1.350 . S
C1755 H1742 0.929 . S
C1755 C1747 1.433 . S
C1755 N1757 1.384 . S
N1756 C1752 1.427 . S
N1756 C1753 1.384 . S
N1757 C1749 1.427 . S
N1757 C1755 1.384 . S
H1758 C1764 0.930 . S
H1759 C1768 0.930 . S
H1760 C1773 0.929 . S
H1761 C1771 0.929 . S
H1762 C1766 0.929 . S
H1763 C1772 0.929 . S
C1764 H1758 0.930 . S
C1764 C1765 1.367 . S
C1764 C1772 1.378 . S
C1765 C1764 1.367 . S
C1765 C1773 1.433 . S
C1766 H1762 0.929 . S
C1766 C1768 1.378 . S
C1766 C1770 1.350 . S
C1767 C1770 1.463 . S
C1767 C1772 1.350 . S
C1767 N1775 1.427 . S
C1768 H1759 0.930 . S
C1768 C1766 1.378 . S
C1768 C1769 1.367 . S
C1769 C1768 1.367 . S
C1769 C1771 1.433 . S
C1770 C1766 1.350 . S
C1770 C1767 1.463 . S
C1770 N1774 1.427 . S
C1771 H1761 0.929 . S
C1771 C1769 1.433 . S
C1771 N1774 1.384 . S
C1772 H1763 0.929 . S
C1772 C1764 1.378 . S
C1772 C1767 1.350 . S
C1773 H1760 0.929 . S
C1773 C1765 1.433 . S
C1773 N1775 1.384 . S
N1774 C1770 1.427 . S
N1774 C1771 1.384 . S
N1775 C1767 1.427 . S
N1775 C1773 1.384 . S
C487 C5 0.591 . S
C491 C145 0.604 . S
C505 C22 1.153 . S
C509 C85 1.100 . S
C523 C45 1.439 . S
C527 C102 1.481 . S
C541 C62 2.070 . S
C545 C122 2.093 . S
C559 C2 2.164 . S
C563 C162 2.202 . S
C577 C185 0.725 . S
C581 C25 0.731 . S
C595 C202 2.222 . S
C599 C42 2.228 . S
C613 C65 0.495 . S
C617 C225 0.615 . S
C631 C82 2.054 . S
C635 C182 2.029 . S
C649 C205 0.560 . S
C653 C105 0.574 . S
C667 C125 1.337 . S
C671 C222 1.413 . S
C685 C142 1.256 . S
C689 C165 1.258 . S
C703 C245 0.728 . S
C707 C425 0.760 . S
C721 C262 2.215 . S
C725 C442 2.218 . S
C739 C285 0.467 . S
C743 C465 0.565 . S
C757 C462 1.351 . S
C761 C305 1.289 . S
C775 C422 2.142 . S
C779 C322 2.197 . S
C793 C345 0.624 . S
C797 C385 0.576 . S
C811 C242 1.112 . S
C815 C325 1.055 . S
C829 C362 1.487 . S
C833 C265 1.445 . S
C847 C302 2.151 . S
C851 C282 2.140 . S
C865 C405 1.260 . S
C869 C342 1.312 . S
C883 C365 0.614 . S
C887 C445 0.578 . S
C901 C382 2.192 . S
C905 C402 2.223 . S
C919 C97 1.989 . S
C923 C17 1.999 . S
C937 C113 1.730 . S
C941 C33 1.737 . S
C955 C57 2.584 . S
C959 C133 2.547 . S
C973 C73 1.623 . S
C977 C157 1.713 . S
C991 C233 2.358 . S
C995 C173 2.391 . S
C1009 C177 2.096 . S
C1013 C197 2.106 . S
C1027 C193 1.881 . S
C1031 C213 1.910 . S
C1045 C237 1.734 . S
C1049 C217 1.685 . S
C1063 C377 1.644 . S
C1067 C153 1.553 . S
C1081 C77 1.764 . S
C1085 C257 1.745 1_556 S
C1099 C13 2.461 . S
C1103 C273 2.475 . S
C1117 C37 1.543 . S
C1121 C297 1.536 . S
C1135 C393 1.577 . S
C1139 C117 1.661 . S
C1153 C93 2.391 . S
C1157 C317 2.397 1_455 S
C1171 C137 2.553 . S
C1175 C333 2.536 . S
C1189 C337 1.700 . S
C1193 C357 1.747 . S
C1207 C373 1.829 . S
C1211 C253 1.846 . S
C1225 C277 2.536 . S
C1229 C313 2.508 . S
C1243 C397 1.938 . S
C1247 C293 1.890 . S
C1261 C417 1.986 . S
C1265 C473 1.938 . S
C1279 C413 2.493 . S
C1283 C437 2.537 . S
C1297 C453 2.038 . S
C1301 C433 2.000 . S
C1315 C477 1.612 . S
C1319 C457 1.554 . S
C1333 C353 2.403 . S
C1337 C53 2.418 . S
C1351 C14 2.045 . S
C1355 C194 2.056 . S
C1369 C28 1.924 . S
C1373 C208 1.919 . S
C1387 C54 2.220 . S
C1391 C234 2.199 . S
C1405 C168 1.668 . S
C1409 C68 1.721 . S
C1423 C94 1.913 . S
C1427 C174 1.923 . S
C1441 C188 1.942 . S
C1445 C108 1.970 . S
C1459 C214 1.989 . S
C1463 C128 1.898 . S
C1477 C154 2.124 . S
C1481 C228 1.958 . S
C1495 C148 1.909 . S
C1499 C268 1.871 . S
C1513 C134 1.999 . S
C1517 C254 1.981 . S
C1531 C88 1.737 1_655 S
C1535 C294 1.857 . S
C1549 C374 2.335 . S
C1553 C8 2.175 . S
C1567 C348 2.086 . S
C1571 C114 2.258 . S
C1585 C34 2.102 . S
C1589 C314 2.122 . S
C1603 C74 1.658 . S
C1607 C328 1.570 . S
C1621 C434 2.199 . S
C1625 C354 2.171 . S
C1639 C448 1.908 . S
C1643 C248 1.899 . S
C1657 C474 2.145 . S
C1661 C274 2.165 . S
C1675 C414 1.835 . S
C1679 C288 1.756 . S
C1693 C408 1.803 . S
C1697 C334 1.858 . S
C1711 C368 2.010 . S
C1715 C428 2.004 . S
C1729 C454 2.027 . S
C1733 C308 1.948 . S
C1747 C394 1.890 . S
C1751 C468 1.755 . S
C1765 C48 1.912 . S
C1769 C388 1.942 . S
