# Generated by pormake.
# Topology oof, (8)-cn, num edge types: 1
# Building blocks:
#     Node 0, Type 0, BuildingBlock: AJUNOK_clean_sbu_0, # of connection points: 8
#     Node 1, Type 0, BuildingBlock: AJUNOK_clean_sbu_0, # of connection points: 8
#     Node 2, Type 0, BuildingBlock: AJUNOK_clean_sbu_0, # of connection points: 8
#     Node 3, Type 0, BuildingBlock: AJUNOK_clean_sbu_0, # of connection points: 8
#     Edge 4, Type (0, 0), BuildingBlock: ZUJKAS_clean_linker_0, # of connection points: 2
#     Edge 5, Type (0, 0), BuildingBlock: ZUJKAS_clean_linker_0, # of connection points: 2
#     Edge 6, Type (0, 0), BuildingBlock: ZUJKAS_clean_linker_0, # of connection points: 2
#     Edge 7, Type (0, 0), BuildingBlock: ZUJKAS_clean_linker_0, # of connection points: 2
#     Edge 8, Type (0, 0), BuildingBlock: ZUJKAS_clean_linker_0, # of connection points: 2
#     Edge 9, Type (0, 0), BuildingBlock: ZUJKAS_clean_linker_0, # of connection points: 2
#     Edge 10, Type (0, 0), BuildingBlock: ZUJKAS_clean_linker_0, # of connection points: 2
#     Edge 11, Type (0, 0), BuildingBlock: ZUJKAS_clean_linker_0, # of connection points: 2
#     Edge 12, Type (0, 0), BuildingBlock: ZUJKAS_clean_linker_0, # of connection points: 2
#     Edge 13, Type (0, 0), BuildingBlock: ZUJKAS_clean_linker_0, # of connection points: 2
#     Edge 14, Type (0, 0), BuildingBlock: ZUJKAS_clean_linker_0, # of connection points: 2
#     Edge 15, Type (0, 0), BuildingBlock: ZUJKAS_clean_linker_0, # of connection points: 2
#     Edge 16, Type (0, 0), BuildingBlock: ZUJKAS_clean_linker_0, # of connection points: 2
#     Edge 17, Type (0, 0), BuildingBlock: ZUJKAS_clean_linker_0, # of connection points: 2
#     Edge 18, Type (0, 0), BuildingBlock: ZUJKAS_clean_linker_0, # of connection points: 2
#     Edge 19, Type (0, 0), BuildingBlock: ZUJKAS_clean_linker_0, # of connection points: 2
# Relax obj value: 0.076
# Max RMSD: 0.168
# Mean RMSD: 0.167
data_MOF--net-oof--node1-AJUNOK_clean_sbu_0--edge1-ZUJKAS_clean_linker_0
_symmetry_space_group_name_H-M    P1
_symmetry_Int_Tables_number       1
_symmetry_cell_setting            triclinic
loop_
_symmetry_equiv_pos_as_xyz
'x, y, z'
_cell_length_a     17.719758
_cell_length_b     78.517061
_cell_length_c     25.744653
_cell_angle_alpha  103.21005
_cell_angle_beta   93.683453
_cell_angle_gamma 84.297485
loop_
_atom_site_label
_atom_site_type_symbol
_atom_site_fract_x
_atom_site_fract_y
_atom_site_fract_z
_atom_type_partial_charge
Cd0 Cd 0.89688 0.09659 0.18678 0.0
Cd1 Cd 0.92921 0.15375 0.29283 0.0
C2 C 0.95195 0.09931 0.07664 0.0
N3 N 0.90835 0.10962 0.1152 0.0
C4 C 0.87258 0.12985 0.05928 0.0
C5 C 0.91614 0.1192 0.01817 0.0
C6 C 0.95671 0.10384 0.0278 0.0
C7 C 0.86912 0.12472 0.10778 0.0
H8 H 0.98092 0.08714 0.08323 0.0
H9 H 0.83355 0.13248 0.13874 0.0
C10 C 0.77763 0.13161 0.27948 0.0
C11 C 0.88877 0.15921 0.41499 0.0
C12 C 0.88276 0.15607 0.46567 0.0
C13 C 0.90678 0.13944 0.47529 0.0
C14 C 0.9347 0.12616 0.43273 0.0
C15 C 0.93908 0.12985 0.38236 0.0
N16 N 0.91758 0.14628 0.37483 0.0
H17 H 0.87092 0.17207 0.40777 0.0
H18 H 0.96043 0.11968 0.34946 0.0
C19 C 0.80587 0.17794 0.23757 0.0
N20 N 0.87165 0.16749 0.22784 0.0
C21 C 0.88524 0.177 0.14746 0.0
C22 C 0.81893 0.18842 0.15739 0.0
C23 C 0.77802 0.18849 0.20243 0.0
C24 C 0.91083 0.16662 0.18352 0.0
H25 H 0.77688 0.17867 0.27383 0.0
H26 H 0.96352 0.15834 0.17729 0.0
C27 C 0.036 0.11662 0.22532 0.0
C28 C 0.86638 0.0638 0.11951 0.0
N29 N 0.92 0.08554 0.2638 0.0
C30 C -0.01041 0.07726 0.27137 0.0
C31 C 0.00307 0.06823 0.31228 0.0
C32 C 0.94428 0.06761 0.34574 0.0
C33 C 0.87375 0.07686 0.33822 0.0
C34 C 0.86261 0.08565 0.29652 0.0
C35 C 0.02163 0.18165 0.33705 0.0
O36 O 0.81807 0.11978 0.24812 0.0
O37 O 0.80239 0.14646 0.29979 0.0
O38 O 0.97538 0.12626 0.23754 0.0
O39 O 0.0302 0.10172 0.19455 0.0
O40 O 0.81717 0.07685 0.12103 0.0
O41 O 0.9239 0.06604 0.15122 0.0
O42 O 0.05125 0.16699 0.3111 0.0
O43 O 0.95015 0.18316 0.34126 0.0
H44 H 0.03378 0.07691 0.24403 0.0
H45 H 0.8073 0.09198 0.28906 0.0
H46 H 0.84067 0.14185 0.05378 0.0
H47 H -0.01051 0.09497 0.99715 0.0
H48 H 0.86135 0.16671 0.49737 0.0
H49 H 0.95281 0.11309 0.43831 0.0
H50 H 0.91798 0.17641 0.11288 0.0
H51 H 0.7272 0.19727 0.2119 0.0
H52 H 0.05789 0.06105 0.31574 0.0
H53 H 0.82699 0.07691 0.36337 0.0
Cd54 Cd 0.07393 0.84819 0.69311 0.0
Cd55 Cd 0.15872 0.90052 0.7977 0.0
C56 C 0.14304 0.84888 0.58261 0.0
N57 N 0.09192 0.85835 0.61746 0.0
C58 C 0.04918 0.87634 0.55618 0.0
C59 C 0.09962 0.86636 0.51856 0.0
C60 C 0.14803 0.85271 0.53274 0.0
C61 C 0.04576 0.87196 0.60561 0.0
H62 H 0.17792 0.83791 0.59279 0.0
H63 H 0.00459 0.87901 0.63383 0.0
C64 C -0.0055 0.88898 0.77999 0.0
C65 C 0.09929 0.90729 0.91555 0.0
C66 C 0.08842 0.90498 0.96652 0.0
C67 C 0.11917 0.8895 0.98143 0.0
C68 C 0.15804 0.87639 0.9433 0.0
C69 C 0.16701 0.87922 0.89247 0.0
N70 N 0.13862 0.89458 0.87999 0.0
H71 H 0.07726 0.91938 0.90443 0.0
H72 H 0.19773 0.86928 0.86331 0.0
C73 C 0.07908 0.93566 0.7674 0.0
N74 N 0.10157 0.9187 0.74445 0.0
C75 C 0.08269 0.92453 0.65728 0.0
C76 C 0.06192 0.94233 0.67976 0.0
C77 C 0.05878 0.94777 0.73564 0.0
C78 C 0.1031 0.91292 0.69061 0.0
H79 H 0.08079 0.93997 0.81047 0.0
H80 H 0.12357 0.89948 0.67377 0.0
C81 C 0.23477 0.85882 0.73084 0.0
C82 C 0.96741 0.82387 0.6427 0.0
N83 N 0.11045 0.83292 0.75887 0.0
C84 C 0.14544 0.81656 0.74212 0.0
C85 C 0.167 0.80613 0.77851 0.0
C86 C 0.15195 0.81254 0.83271 0.0
C87 C 0.11559 0.82954 0.84897 0.0
C88 C 0.09511 0.83958 0.81102 0.0
C89 C 0.26309 0.92637 0.83563 0.0
O90 O 0.03794 0.87729 0.75096 0.0
O91 O 0.02213 0.903 0.80498 0.0
O92 O 0.18368 0.8713 0.74264 0.0
O93 O 0.21509 0.84467 0.7005 0.0
O94 O 0.94715 0.83706 0.6794 0.0
O95 O 0.03617 0.82224 0.62985 0.0
O96 O 0.25663 0.9194 0.78612 0.0
O97 O 0.23252 0.91888 0.86652 0.0
H98 H 0.15597 0.81158 0.70021 0.0
H99 H 0.06644 0.8526 0.82297 0.0
H100 H 0.01043 0.88686 0.54661 0.0
H101 H 0.18822 0.84483 0.50509 0.0
H102 H 0.05666 0.91528 0.99403 0.0
H103 H 0.18324 0.86431 0.95301 0.0
H104 H 0.08516 0.91969 0.61446 0.0
H105 H 0.04455 0.96139 0.75483 0.0
H106 H 0.19356 0.793 0.76407 0.0
H107 H 0.10328 0.835 0.89043 0.0
Cd108 Cd 0.36498 0.60522 0.20602 0.0
Cd109 Cd 0.41779 0.65905 0.32278 0.0
C110 C 0.43344 0.61842 0.11134 0.0
N111 N 0.36869 0.62053 0.1386 0.0
C112 C 0.30253 0.63526 0.0753 0.0
C113 C 0.36789 0.63261 0.0452 0.0
C114 C 0.43444 0.62448 0.06467 0.0
C115 C 0.3041 0.62898 0.12202 0.0
H116 H 0.48333 0.61107 0.12375 0.0
H117 H 0.25286 0.63007 0.14356 0.0
C118 C 0.26036 0.64639 0.27135 0.0
C119 C 0.33159 0.65509 0.42483 0.0
C120 C 0.32399 0.6512 0.47438 0.0
C121 C 0.38064 0.64023 0.49418 0.0
C122 C 0.44158 0.63257 0.46195 0.0
C123 C 0.44665 0.63673 0.41245 0.0
N124 N 0.39286 0.64808 0.39558 0.0
H125 H 0.29079 0.66446 0.41108 0.0
H126 H 0.49536 0.6316 0.38859 0.0
C127 C 0.3476 0.69053 0.27218 0.0
N128 N 0.38197 0.67408 0.25597 0.0
C129 C 0.3711 0.67651 0.16487 0.0
C130 C 0.33544 0.69359 0.18059 0.0
C131 C 0.32363 0.70054 0.23503 0.0
C132 C 0.39382 0.66689 0.20354 0.0
H133 H 0.33869 0.69586 0.31414 0.0
H134 H 0.42103 0.65373 0.19185 0.0
C135 C 0.51623 0.62131 0.24215 0.0
C136 C 0.31362 0.57635 0.13044 0.0
N137 N 0.39508 0.59003 0.27338 0.0
C138 C 0.43141 0.57383 0.25615 0.0
C139 C 0.44863 0.56269 0.29111 0.0
C140 C 0.4282 0.56822 0.34456 0.0
C141 C 0.39125 0.58515 0.36151 0.0
C142 C 0.37505 0.59593 0.32494 0.0
C143 C 0.5115 0.68491 0.38179 0.0
O144 O 0.30946 0.6335 0.25721 0.0
O145 O 0.28098 0.65986 0.30486 0.0
O146 O 0.46281 0.63082 0.26782 0.0
O147 O 0.50195 0.60626 0.2152 0.0
O148 O 0.2713 0.58339 0.16924 0.0
O149 O 0.37505 0.58304 0.1281 0.0
O150 O 0.5399 0.67184 0.34768 0.0
O151 O 0.44073 0.68566 0.38829 0.0
H152 H 0.44575 0.56944 0.21473 0.0
H153 H 0.34561 0.60884 0.33741 0.0
H154 H 0.25009 0.64157 0.06196 0.0
H155 H 0.48566 0.62176 0.04232 0.0
H156 H 0.27673 0.65758 0.49831 0.0
H157 H 0.48611 0.62395 0.47567 0.0
H158 H 0.38084 0.67065 0.12324 0.0
H159 H 0.29739 0.71373 0.24894 0.0
H160 H 0.47578 0.54967 0.27594 0.0
H161 H 0.37491 0.58998 0.40245 0.0
Cd162 Cd 0.55866 0.346 0.67969 0.0
Cd163 Cd 0.61748 0.39936 0.79453 0.0
C164 C 0.64426 0.34844 0.5761 0.0
N165 N 0.58624 0.35668 0.60698 0.0
C166 C 0.54295 0.3734 0.54249 0.0
C167 C 0.60041 0.36455 0.50863 0.0
C168 C 0.65278 0.35229 0.52663 0.0
C169 C 0.53674 0.36918 0.59179 0.0
H170 H 0.68144 0.3382 0.58858 0.0
H171 H 0.49039 0.37528 0.61691 0.0
C172 C 0.46502 0.38406 0.75995 0.0
C173 C 0.54832 0.38889 0.89378 0.0
C174 C 0.54687 0.38322 0.94111 0.0
C175 C 0.6112 0.37383 0.95887 0.0
C176 C 0.67457 0.36967 0.92666 0.0
C177 C 0.67357 0.37564 0.87946 0.0
N178 N 0.61135 0.38524 0.86439 0.0
H179 H 0.50053 0.39708 0.88233 0.0
H180 H 0.72353 0.37326 0.85607 0.0
C181 C 0.54626 0.43096 0.74634 0.0
N182 N 0.5828 0.41482 0.72841 0.0
C183 C 0.5856 0.4201 0.6407 0.0
C184 C 0.54855 0.43698 0.65835 0.0
C185 C 0.5284 0.44227 0.71192 0.0
C186 C 0.60249 0.40916 0.67673 0.0
H187 H 0.53265 0.4352 0.78795 0.0
H188 H 0.63259 0.39635 0.66382 0.0
C189 C 0.71798 0.35758 0.72921 0.0
C190 C 0.46112 0.32119 0.61955 0.0
N191 N 0.58974 0.33092 0.74715 0.0
C192 C 0.6162 0.3138 0.73111 0.0
C193 C 0.63629 0.30367 0.76855 0.0
C194 C 0.62944 0.31123 0.82322 0.0
C195 C 0.60213 0.32901 0.83873 0.0
C196 C 0.58263 0.33869 0.79972 0.0
C197 C 0.67954 0.42806 0.86504 0.0
O198 O 0.51863 0.37456 0.73456 0.0
O199 O 0.47944 0.39902 0.78746 0.0
O200 O 0.66989 0.37067 0.74345 0.0
O201 O 0.69581 0.34414 0.69628 0.0
O202 O 0.43369 0.33465 0.65272 0.0
O203 O 0.53249 0.3196 0.61475 0.0
O204 O 0.71598 0.42053 0.82368 0.0
O205 O 0.6192 0.42174 0.87246 0.0
H206 H 0.62167 0.30801 0.68905 0.0
H207 H 0.56161 0.35236 0.81128 0.0
H208 H 0.50184 0.38303 0.53023 0.0
H209 H 0.69714 0.34499 0.50144 0.0
H210 H 0.49741 0.38712 0.96507 0.0
H211 H 0.72518 0.36233 0.93855 0.0
H212 H 0.60179 0.41545 0.59967 0.0
H213 H 0.50126 0.45525 0.72764 0.0
H214 H 0.65582 0.28996 0.75463 0.0
H215 H 0.59647 0.33539 0.88046 0.0
H216 H 0.79702 0.1326 0.9615 0.0
H217 H 0.79528 0.13639 0.8696 0.0
H218 H 0.03277 0.1183 0.86031 0.0
H219 H 0.03577 0.11487 0.9524 0.0
H220 H 0.8898 0.15664 0.8214 0.0
H221 H 0.92551 0.08491 0.73325 0.0
H222 H 0.89603 0.09376 0.80068 0.0
H223 H -0.00608 0.09303 0.7854 0.0
C224 C 0.84929 0.12973 0.94035 0.0
C225 C 0.91639 0.12327 0.96436 0.0
C226 C 0.84799 0.13178 0.88767 0.0
C227 C 0.91351 0.12728 0.8579 0.0
C228 C 0.98119 0.12148 0.88226 0.0
H229 H 0.0174 0.12271 0.52946 0.0
H230 H 0.01805 0.11986 0.6223 0.0
C231 C 0.98269 0.11951 0.93493 0.0
C232 C 0.9111 0.12852 0.80119 0.0
H233 H 0.92896 0.10384 0.67414 0.0
C234 C 0.89802 0.14512 0.7891 0.0
C235 C 0.9223 0.11344 0.75929 0.0
C236 C 0.93466 0.09524 0.77 0.0
C237 C 0.8973 0.14711 0.73619 0.0
C238 C 0.9078 0.13201 0.6941 0.0
C239 C 0.9208 0.11539 0.70633 0.0
C240 C 0.90593 0.13316 0.63718 0.0
C241 C 0.88749 0.16542 0.72616 0.0
C242 C 0.84189 0.14112 0.61416 0.0
C243 C 0.84155 0.14282 0.56126 0.0
C244 C 0.9048 0.13634 0.53 0.0
C245 C 0.96766 0.12773 0.55242 0.0
C246 C 0.96822 0.12618 0.60553 0.0
H247 H 0.90278 0.1754 0.76244 0.0
H248 H 0.92286 0.16652 0.6932 0.0
H249 H 0.82712 0.16858 0.71485 0.0
H250 H 0.7922 0.1461 0.63718 0.0
H251 H 0.79177 0.14924 0.5448 0.0
H252 H 0.09376 0.89778 0.48825 0.0
H253 H 0.09155 0.90239 0.39694 0.0
H254 H 0.10167 0.84641 0.33425 0.0
H255 H 0.1028 0.8417 0.4249 0.0
H256 H 0.2059 0.88752 0.31822 0.0
H257 H 0.91791 0.86683 0.25122 0.0
H258 H 0.94745 0.87323 0.32091 0.0
H259 H 0.97838 0.85188 0.28225 0.0
C260 C 0.0949 0.88649 0.45494 0.0
C261 C 0.09872 0.86938 0.4637 0.0
C262 C 0.09386 0.88913 0.40295 0.0
C263 C 0.09552 0.87474 0.35903 0.0
C264 C 0.09931 0.85768 0.36766 0.0
H265 H 0.09753 0.85957 0.01501 0.0
H266 H 0.09345 0.85622 0.10694 0.0
C267 C 0.10081 0.85502 0.41948 0.0
C268 C 0.09614 0.87742 0.30409 0.0
H269 H -0.00456 0.87135 0.18475 0.0
C270 C 0.15974 0.88413 0.28904 0.0
C271 C 0.03606 0.8728 0.26622 0.0
C272 C 0.9657 0.8659 0.28086 0.0
C273 C 0.16572 0.88599 0.23658 0.0
C274 C 0.10541 0.88144 0.19863 0.0
C275 C 0.04159 0.87481 0.21387 0.0
C276 C 0.10735 0.88353 0.14297 0.0
C277 C 0.23759 0.8923 0.22203 0.0
C278 C 0.11526 0.90003 0.13272 0.0
C279 C 0.11894 0.90193 0.08039 0.0
C280 C 0.11331 0.88742 0.03701 0.0
C281 C 0.10338 0.87096 0.0474 0.0
C282 C 0.10041 0.86905 0.0999 0.0
H283 H 0.28582 0.89016 0.25029 0.0
H284 H 0.25365 0.8855 0.18099 0.0
H285 H 0.22845 0.9066 0.22381 0.0
H286 H 0.1189 0.91147 0.16525 0.0
H287 H 0.1275 0.91476 0.07412 0.0
H288 H 0.25298 0.62763 0.9685 0.0
H289 H 0.25552 0.63012 0.87579 0.0
H290 H 0.4802 0.64778 0.90552 0.0
H291 H 0.47765 0.64578 0.99888 0.0
H292 H 0.28438 0.65989 0.83085 0.0
H293 H 0.49986 0.60267 0.78162 0.0
H294 H 0.44527 0.60704 0.84084 0.0
H295 H 0.5229 0.61981 0.83816 0.0
C296 C 0.30224 0.63248 0.95584 0.0
C297 C 0.36531 0.63643 0.99115 0.0
C298 C 0.30379 0.63374 0.90269 0.0
C299 C 0.36853 0.63882 0.8838 0.0
C300 C 0.43026 0.64352 0.91929 0.0
H301 H 0.49872 0.64231 0.56803 0.0
H302 H 0.49492 0.64195 0.66249 0.0
C303 C 0.42865 0.64237 0.97255 0.0
C304 C 0.37212 0.63868 0.82653 0.0
H305 H 0.46075 0.61739 0.71296 0.0
C306 C 0.32283 0.65062 0.80494 0.0
C307 C 0.42256 0.62657 0.79315 0.0
C308 C 0.47541 0.61318 0.81429 0.0
C309 C 0.32332 0.65095 0.75069 0.0
C310 C 0.37299 0.63864 0.717 0.0
C311 C 0.42252 0.62675 0.7388 0.0
C312 C 0.37533 0.63805 0.65917 0.0
C313 C 0.27199 0.66476 0.73041 0.0
C314 C 0.30986 0.63547 0.6256 0.0
C315 C 0.31182 0.63572 0.5716 0.0
C316 C 0.37965 0.63825 0.55004 0.0
C317 C 0.44581 0.64013 0.58332 0.0
C318 C 0.44363 0.64003 0.63737 0.0
H319 H 0.25467 0.67604 0.76337 0.0
H320 H 0.30015 0.66976 0.70027 0.0
H321 H 0.21973 0.65893 0.71136 0.0
H322 H 0.25707 0.6334 0.64125 0.0
H323 H 0.26023 0.63403 0.54674 0.0
H324 H 0.49744 0.36362 0.00941 0.0
H325 H 0.49731 0.36201 0.10311 0.0
H326 H 0.732 0.37329 0.12422 0.0
H327 H 0.73158 0.3759 0.0316 0.0
H328 H 0.58001 0.34168 0.16258 0.0
H329 H 0.63413 0.41158 0.23918 0.0
H330 H 0.60928 0.40265 0.16991 0.0
H331 H 0.70519 0.39933 0.19556 0.0
C332 C 0.54901 0.36581 0.03402 0.0
C333 C 0.61422 0.37011 0.01307 0.0
C334 C 0.54893 0.36479 0.08747 0.0
C335 C 0.61407 0.36798 0.12091 0.0
C336 C 0.68052 0.37125 0.09942 0.0
H337 H 0.72376 0.3677 0.45371 0.0
H338 H 0.72629 0.36857 0.35922 0.0
C339 C 0.6805 0.37243 0.04613 0.0
C340 C 0.61201 0.36819 0.17847 0.0
H341 H 0.63902 0.39397 0.30329 0.0
C342 C 0.5926 0.35313 0.19335 0.0
C343 C 0.62797 0.38322 0.21852 0.0
C344 C 0.64456 0.40017 0.2051 0.0
C345 C 0.59017 0.35256 0.24728 0.0
C346 C 0.6072 0.36748 0.28715 0.0
C347 C 0.62644 0.38254 0.27241 0.0
C348 C 0.60504 0.36768 0.34453 0.0
C349 C 0.57052 0.33595 0.26134 0.0
C350 C 0.53579 0.36733 0.3675 0.0
C351 C 0.53412 0.3669 0.42133 0.0
C352 C 0.60177 0.3668 0.45306 0.0
C353 C 0.67087 0.36762 0.43014 0.0
C354 C 0.6724 0.36816 0.37633 0.0
H355 H 0.57302 0.32461 0.22639 0.0
H356 H 0.60969 0.33265 0.29375 0.0
H357 H 0.51203 0.33796 0.27598 0.0
H358 H 0.48317 0.36717 0.34359 0.0
H359 H 0.48011 0.36606 0.43763 0.0
H360 H 0.71947 0.14571 0.37619 0.0
H361 H 0.59649 0.14157 0.40681 0.0
H362 H 0.55494 0.10403 0.25913 0.0
H363 H 0.67897 0.10786 0.22877 0.0
H364 H 0.47279 0.15156 0.35448 0.0
H365 H 0.4558 0.08287 0.36384 0.0
H366 H 0.54562 0.09222 0.36654 0.0
H367 H 0.49897 0.08328 0.30316 0.0
C368 C 0.68439 0.1364 0.35051 0.0
C369 C 0.70723 0.1275 0.29935 0.0
C370 C 0.61474 0.13389 0.36845 0.0
C371 C 0.56673 0.12246 0.33546 0.0
C372 C 0.59179 0.11265 0.28579 0.0
H373 H 0.17322 0.10756 0.18225 0.0
H374 H 0.29727 0.11087 0.22888 0.0
C375 C 0.66202 0.11503 0.26803 0.0
C376 C 0.48564 0.12349 0.34701 0.0
H377 H 0.33933 0.09747 0.32807 0.0
C378 C 0.44343 0.13983 0.35079 0.0
C379 C 0.44752 0.1083 0.34358 0.0
C380 C 0.48968 0.09074 0.34472 0.0
C381 C 0.36431 0.14093 0.34311 0.0
C382 C 0.32743 0.12531 0.33179 0.0
C383 C 0.36847 0.10937 0.33554 0.0
C384 C 0.25181 0.12455 0.30473 0.0
C385 C 0.32171 0.15842 0.34133 0.0
C386 C 0.18583 0.13166 0.3318 0.0
C387 C 0.115 0.12996 0.3049 0.0
C388 C 0.10971 0.12115 0.25097 0.0
C389 C 0.17604 0.1145 0.22377 0.0
C390 C 0.24658 0.11627 0.25042 0.0
H391 H 0.35913 0.16936 0.35129 0.0
H392 H 0.29505 0.15796 0.30085 0.0
H393 H 0.27561 0.16127 0.37009 0.0
H394 H 0.18898 0.13805 0.37378 0.0
H395 H 0.06444 0.13486 0.32683 0.0
H396 H 0.89829 0.86876 0.71234 0.0
H397 H 0.77091 0.86248 0.73062 0.0
H398 H 0.78921 0.89615 0.88794 0.0
H399 H 0.91742 0.90203 0.87033 0.0
H400 H 0.71868 0.8506 0.83348 0.0
H401 H 0.59977 0.91543 0.79566 0.0
H402 H 0.68799 0.90494 0.76768 0.0
H403 H 0.6841 0.91403 0.83805 0.0
C404 C 0.87567 0.87441 0.75115 0.0
C405 C 0.91743 0.88565 0.79003 0.0
C406 C 0.80322 0.8709 0.76154 0.0
C407 C 0.77158 0.87873 0.81078 0.0
C408 C 0.81329 0.88992 0.8499 0.0
H409 H 0.28112 0.88367 0.81566 0.0
H410 H 0.40955 0.88731 0.85328 0.0
C411 C 0.88585 0.89339 0.83954 0.0
C412 C 0.69206 0.87646 0.81857 0.0
H413 H 0.51395 0.89515 0.79993 0.0
C414 C 0.67356 0.8604 0.82715 0.0
C415 C 0.63401 0.88946 0.81137 0.0
C416 C 0.6518 0.90698 0.8026 0.0
C417 C 0.59758 0.85662 0.82553 0.0
C418 C 0.53962 0.86903 0.81335 0.0
C419 C 0.55838 0.88558 0.80884 0.0
C420 C 0.46073 0.86463 0.79834 0.0
C421 C 0.5804 0.83927 0.8358 0.0
C422 C 0.44638 0.85046 0.75555 0.0
C423 C 0.37253 0.84823 0.73428 0.0
C424 C 0.31225 0.86038 0.75476 0.0
C425 C 0.32645 0.87421 0.79862 0.0
C426 C 0.39984 0.87623 0.82048 0.0
H427 H 0.62328 0.83485 0.86445 0.0
H428 H 0.52315 0.84008 0.85185 0.0
H429 H 0.58291 0.82917 0.79782 0.0
H430 H 0.49265 0.84162 0.73674 0.0
H431 H 0.36314 0.83744 0.70054 0.0
H432 H 0.54241 0.65534 0.249 0.0
H433 H 0.65967 0.6663 0.22913 0.0
H434 H 0.76784 0.61345 0.19845 0.0
H435 H 0.6511 0.60255 0.21814 0.0
H436 H 0.79667 0.6642 0.27979 0.0
H437 H 0.82518 0.63005 0.0695 0.0
H438 H 0.73673 0.63243 0.10282 0.0
H439 H 0.80727 0.61461 0.1079 0.0
C440 C 0.59175 0.64617 0.23897 0.0
C441 C 0.58844 0.62818 0.23609 0.0
C442 C 0.65808 0.65238 0.22664 0.0
C443 C 0.72163 0.64061 0.21074 0.0
C444 C 0.71857 0.62268 0.20875 0.0
H445 H 0.17146 0.61934 0.23514 0.0
H446 H 0.03814 0.62172 0.20336 0.0
C447 C 0.65238 0.61649 0.22089 0.0
C448 C 0.79434 0.64697 0.20179 0.0
H449 H 0.94596 0.63513 0.12212 0.0
C450 C 0.82876 0.65835 0.24465 0.0
C451 C 0.83526 0.6396 0.15539 0.0
C452 C 0.79866 0.62866 0.10611 0.0
C453 C 0.90611 0.66072 0.24532 0.0
C454 C 0.94941 0.65162 0.20146 0.0
C455 C 0.9129 0.64183 0.15603 0.0
C456 C 0.03311 0.64963 0.20677 0.0
C457 C 0.94221 0.67154 0.29518 0.0
C458 C 0.07503 0.66434 0.21657 0.0
C459 C 0.15011 0.66309 0.23614 0.0
C460 C 0.18464 0.64701 0.24484 0.0
C461 C 0.14528 0.63191 0.22965 0.0
C462 C 0.06962 0.63325 0.21103 0.0
H463 H 0.90181 0.67602 0.32782 0.0
H464 H -0.00843 0.66383 0.30995 0.0
H465 H 0.96291 0.68334 0.28589 0.0
H466 H 0.04833 0.677 0.21229 0.0
H467 H 0.18051 0.6748 0.24594 0.0
H468 H 0.80526 0.32849 0.74355 0.0
H469 H 0.93745 0.32671 0.77686 0.0
H470 H 0.93477 0.38313 0.80581 0.0
H471 H 0.80194 0.38498 0.77358 0.0
H472 H 0.03917 0.33653 0.72115 0.0
H473 H 0.07136 0.37303 0.9296 0.0
H474 H 0.98193 0.36521 0.90086 0.0
H475 H 0.00959 0.38589 0.89259 0.0
C476 C 0.83271 0.34053 0.75776 0.0
C477 C 0.79452 0.35686 0.75466 0.0
C478 C 0.90777 0.3395 0.77745 0.0
C479 C 0.94588 0.35477 0.79406 0.0
C480 C 0.90606 0.37119 0.79429 0.0
H481 H 0.32837 0.40269 0.77879 0.0
H482 H 0.20956 0.39158 0.79427 0.0
C483 C 0.83063 0.37224 0.77506 0.0
C484 C 0.02967 0.35346 0.79954 0.0
H485 H 0.17528 0.37424 0.87161 0.0
C486 C 0.06955 0.34434 0.75471 0.0
C487 C 0.06924 0.36341 0.84365 0.0
C488 C 0.03071 0.37226 0.89459 0.0
C489 C 0.14589 0.34667 0.74997 0.0
C490 C 0.18337 0.35816 0.79181 0.0
C491 C 0.14579 0.36573 0.83912 0.0
C492 C 0.25658 0.36453 0.78404 0.0
C493 C 0.18346 0.33803 0.69836 0.0
C494 C 0.32202 0.35298 0.77272 0.0
C495 C 0.38923 0.35926 0.76249 0.0
C496 C 0.39226 0.3772 0.7644 0.0
C497 C 0.3271 0.38877 0.77648 0.0
C498 C 0.25965 0.38246 0.78588 0.0
H499 H 0.14243 0.33184 0.66693 0.0
H500 H 0.21192 0.34773 0.68294 0.0
H501 H 0.22718 0.32762 0.7057 0.0
H502 H 0.32128 0.33916 0.77208 0.0
H503 H 0.43937 0.3502 0.75483 0.0
H504 H 0.50757 0.29164 0.54689 0.0
H505 H 0.4308 0.26871 0.49691 0.0
H506 H 0.23027 0.29684 0.57187 0.0
H507 H 0.30699 0.32008 0.62184 0.0
H508 H 0.3423 0.24792 0.54 0.0
H509 H 0.16816 0.28603 0.41103 0.0
H510 H 0.2541 0.29353 0.44675 0.0
H511 H 0.1677 0.29565 0.48144 0.0
C512 C 0.44705 0.29305 0.55259 0.0
C513 C 0.41329 0.30769 0.58836 0.0
C514 C 0.4033 0.27991 0.52399 0.0
C515 C 0.32483 0.28115 0.53027 0.0
C516 C 0.29063 0.29577 0.56579 0.0
H517 H 0.97214 0.21299 0.40035 0.0
H518 H 0.04747 0.23675 0.44635 0.0
C519 C 0.33451 0.30898 0.59452 0.0
C520 C 0.27984 0.26674 0.50089 0.0
H521 H 0.13685 0.25709 0.40642 0.0
C522 C 0.2975 0.24989 0.51066 0.0
C523 C 0.22149 0.26938 0.4627 0.0
C524 C 0.2019 0.28708 0.44935 0.0
C525 C 0.25754 0.23564 0.48388 0.0
C526 C 0.1994 0.23825 0.44545 0.0
C527 C 0.18168 0.25511 0.43573 0.0
C528 C 0.15449 0.22379 0.41621 0.0
C529 C 0.27668 0.21803 0.49795 0.0
C530 C 0.18952 0.20867 0.38321 0.0
C531 C 0.14649 0.19496 0.35688 0.0
C532 C 0.06769 0.19624 0.36285 0.0
C533 C 0.03274 0.21157 0.39495 0.0
C534 C 0.07569 0.22519 0.42129 0.0
H535 H 0.30843 0.21927 0.5371 0.0
H536 H 0.22451 0.21143 0.49938 0.0
H537 H 0.31287 0.20949 0.46701 0.0
H538 H 0.25008 0.20747 0.37782 0.0
H539 H 0.17486 0.18339 0.33204 0.0
H540 H 0.55435 0.31112 0.91315 0.0
H541 H 0.58264 0.29139 0.97451 0.0
H542 H 0.77671 0.26685 0.88438 0.0
H543 H 0.74988 0.28664 0.82356 0.0
H544 H 0.67261 0.24323 0.90326 0.0
H545 H 0.76061 0.29038 0.08844 0.0
H546 H 0.67212 0.29624 0.05589 0.0
H547 H 0.75933 0.29528 0.02315 0.0
C548 C 0.60389 0.30175 0.907 0.0
C549 C 0.64957 0.30037 0.86322 0.0
C550 C 0.61982 0.29047 0.94201 0.0
C551 C 0.6818 0.27771 0.93393 0.0
C552 C 0.72843 0.27658 0.8911 0.0
H553 H 0.90962 0.2085 0.11932 0.0
H554 H 0.87159 0.23015 0.0656 0.0
C555 C 0.71276 0.28785 0.85627 0.0
C556 C 0.69651 0.26492 0.96837 0.0
H557 H 0.75458 0.26094 0.09441 0.0
C558 C 0.69015 0.24709 0.94513 0.0
C559 C 0.71968 0.27005 0.02283 0.0
C560 C 0.72899 0.289 0.04923 0.0
C561 C 0.70686 0.23419 0.97492 0.0
C562 C 0.7302 0.2393 0.0293 0.0
C563 C 0.73619 0.25713 0.0527 0.0
C564 C 0.75217 0.22619 0.0618 0.0
C565 C 0.70141 0.21514 0.94786 0.0
C566 C 0.69739 0.21684 0.07736 0.0
C567 C 0.71893 0.20441 0.108 0.0
C568 C 0.79568 0.2011 0.12325 0.0
C569 C 0.85026 0.21052 0.10742 0.0
C570 C 0.82862 0.223 0.07718 0.0
H571 H 0.69279 0.21318 0.90384 0.0
H572 H 0.75372 0.20711 0.95688 0.0
H573 H 0.65286 0.2102 0.96342 0.0
H574 H 0.63802 0.21922 0.06601 0.0
H575 H 0.67567 0.19734 0.11951 0.0
H576 H 0.66048 0.68915 0.36934 0.0
H577 H 0.7341 0.71316 0.41748 0.0
H578 H 0.54052 0.73624 0.51034 0.0
H579 H 0.46635 0.7125 0.46201 0.0
H580 H 0.60775 0.76033 0.46961 0.0
H581 H 0.82347 0.72136 0.57039 0.0
H582 H 0.8158 0.71329 0.49933 0.0
H583 H 0.73679 0.71276 0.53927 0.0
C584 C 0.63385 0.69926 0.40033 0.0
C585 C 0.55769 0.6989 0.41199 0.0
C586 C 0.67605 0.71293 0.42796 0.0
C587 C 0.64308 0.72636 0.46802 0.0
C588 C 0.56715 0.72598 0.47974 0.0
H589 H 0.81995 0.82195 0.66658 0.0
H590 H 0.73638 0.79894 0.62555 0.0
C591 C 0.52491 0.71238 0.45209 0.0
C592 C 0.68681 0.74115 0.49641 0.0
H593 H 0.84831 0.7508 0.57272 0.0
C594 C 0.66005 0.75829 0.49253 0.0
C595 C 0.75469 0.73845 0.52659 0.0
C596 C 0.78411 0.7205 0.53468 0.0
C597 C 0.70089 0.77273 0.51639 0.0
C598 C 0.76977 0.76995 0.5454 0.0
C599 C 0.79563 0.75287 0.55021 0.0
C600 C 0.81798 0.7844 0.56914 0.0
C601 C 0.67136 0.79075 0.50894 0.0
C602 C 0.89155 0.78377 0.55136 0.0
C603 C 0.93931 0.79677 0.57478 0.0
C604 C 0.91462 0.81067 0.61672 0.0
C605 C 0.84048 0.81144 0.63419 0.0
C606 C 0.79259 0.79836 0.61066 0.0
H607 H 0.62636 0.79013 0.47662 0.0
H608 H 0.64684 0.79851 0.5466 0.0
H609 H 0.71806 0.79783 0.49944 0.0
H610 H 0.91225 0.77311 0.51942 0.0
H611 H -0.00403 0.7958 0.56028 0.0
H612 H 0.41572 0.69751 0.09735 0.0
H613 H 0.3823 0.71765 0.03784 0.0
H614 H 0.17012 0.73427 0.11515 0.0
H615 H 0.20313 0.71424 0.17478 0.0
H616 H 0.25841 0.72049 0.96672 0.0
H617 H 0.2656 0.78049 0.1297 0.0
H618 H 0.3034 0.7591 0.13869 0.0
H619 H 0.20282 0.76511 0.14014 0.0
C620 C 0.36156 0.7053 0.10121 0.0
C621 C 0.31243 0.70446 0.14114 0.0
C622 C 0.34273 0.71685 0.0674 0.0
C623 C 0.27458 0.72774 0.073 0.0
C624 C 0.22394 0.72634 0.1112 0.0
H625 H 0.06703 0.80798 0.91294 0.0
H626 H 0.09685 0.78738 0.97145 0.0
C627 C 0.24281 0.71487 0.14512 0.0
C628 C 0.25669 0.74065 0.03916 0.0
H629 H 0.22038 0.78453 0.04427 0.0
C630 C 0.25036 0.7345 0.98359 0.0
C631 C 0.24618 0.75891 0.06141 0.0
C632 C 0.25549 0.76635 0.12071 0.0
C633 C 0.23257 0.74612 0.9496 0.0
C634 C 0.22217 0.76438 0.97186 0.0
C635 C 0.22828 0.77052 0.02742 0.0
C636 C 0.20568 0.77733 0.93804 0.0
C637 C 0.2237 0.73872 0.89026 0.0
C638 C 0.25804 0.77884 0.90112 0.0
C639 C 0.24139 0.79062 0.86792 0.0
C640 C 0.17218 0.80119 0.87123 0.0
C641 C 0.121 0.8001 0.90966 0.0
C642 C 0.13772 0.78828 0.94285 0.0
H643 H 0.21362 0.72458 0.88111 0.0
H644 H 0.17595 0.74599 0.87219 0.0
H645 H 0.27652 0.74 0.87107 0.0
H646 H 0.3117 0.77084 0.8978 0.0
H647 H 0.28262 0.7914 0.83944 0.0
H648 H 0.84772 0.0629 0.01377 0.0
H649 H 0.91217 0.04036 0.94478 0.0
H650 H 0.96416 0.00766 0.05834 0.0
H651 H 0.90094 0.03017 0.12711 0.0
H652 H 0.06975 0.03286 0.96747 0.0
H653 H 0.92182 0.97195 0.91847 0.0
H654 H 0.87379 0.99322 0.9459 0.0
H655 H 0.92897 0.98116 0.98896 0.0
C656 C 0.86878 0.05044 0.02295 0.0
C657 C 0.8692 0.04816 0.07552 0.0
C658 C 0.90655 0.03769 0.98375 0.0
C659 C 0.94323 0.02239 0.99655 0.0
C660 C 0.93549 0.01926 0.04737 0.0
H661 H 0.29469 0.9445 0.93708 0.0
H662 H 0.22599 0.97288 0.97217 0.0
C663 C 0.89888 0.03207 0.08662 0.0
C664 C 0.00059 0.01131 0.96141 0.0
H665 H 0.05712 0.96852 0.90685 0.0
C666 C 0.06632 0.01884 0.95296 0.0
C667 C -0.00385 0.99305 0.94289 0.0
C668 C 0.92603 0.98439 0.94905 0.0
C669 C 0.1295 0.00837 0.92931 0.0
C670 C 0.12641 0.99006 0.91384 0.0
C671 C 0.05932 0.98264 0.91948 0.0
C672 C 0.19288 0.97795 0.89446 0.0
C673 C 0.20045 0.01669 0.92314 0.0
C674 C 0.20343 0.97243 0.83951 0.0
C675 C 0.24414 0.95632 0.81935 0.0
C676 C 0.27125 0.94536 0.85406 0.0
C677 C 0.2731 0.95253 0.90938 0.0
C678 C 0.2331 0.96869 0.92952 0.0
H679 H 0.19283 0.03126 0.93499 0.0
H680 H 0.24759 0.0119 0.94816 0.0
H681 H 0.21734 0.0127 0.88098 0.0
H682 H 0.17301 0.97949 0.81192 0.0
H683 H 0.24276 0.95131 0.77647 0.0
H684 H 0.07087 0.06207 0.40925 0.0
H685 H 0.09195 0.04091 0.46638 0.0
H686 H 0.86265 0.0266 0.42976 0.0
H687 H 0.84212 0.04704 0.3707 0.0
H688 H 0.02058 0.03792 0.55523 0.0
H689 H 0.98647 0.97941 0.39062 0.0
H690 H -0.00269 1.0008 0.37877 0.0
H691 H 0.90658 0.99556 0.39536 0.0
C692 C 0.02501 0.05436 0.41309 0.0
C693 C 0.95495 0.0562 0.38499 0.0
C694 C 0.03704 0.04235 0.44602 0.0
C695 C 0.97935 0.03194 0.45144 0.0
C696 C 0.90848 0.03423 0.42521 0.0
H697 H 0.95483 0.97055 0.68997 0.0
H698 H 0.93695 0.99256 0.63557 0.0
C699 C 0.8965 0.04615 0.39207 0.0
C700 C -0.00664 0.01861 0.48427 0.0
H701 H -0.00866 0.97479 0.47896 0.0
C702 C 0.01443 0.02411 0.53858 0.0
C703 C 0.98658 1.00055 0.46219 0.0
C704 C 0.96876 0.99367 0.40344 0.0
C705 C 0.02721 0.01208 0.57172 0.0
C706 C 0.0173 0.99415 0.5501 0.0
C707 C -0.00212 0.98859 0.49556 0.0
C708 C 0.02792 0.98086 0.58317 0.0
C709 C 0.05233 0.01863 0.62937 0.0
C710 C 0.08372 0.96676 0.5709 0.0
C711 C 0.09409 0.95417 0.60185 0.0
C712 C 0.04841 0.95535 0.64553 0.0
C713 C -0.00829 0.96938 0.65716 0.0
C714 C 0.98147 0.98199 0.62617 0.0
H715 H 0.07596 0.03158 0.63606 0.0
H716 H 0.00276 0.02016 0.6548 0.0
H717 H 0.0959 0.00914 0.64253 0.0
H718 H 0.12003 0.96563 0.53777 0.0
H719 H 0.1391 0.94372 0.59221 0.0
H720 H 0.30418 0.54569 0.1593 0.0
H721 H 0.36844 0.51836 0.10941 0.0
H722 H 0.37484 0.54144 0.97322 0.0
H723 H 0.31086 0.56868 0.02295 0.0
H724 H 0.3706 0.50275 0.95002 0.0
H725 H 0.59499 0.52968 0.09902 0.0
H726 H 0.50889 0.52556 0.12558 0.0
H727 H 0.50695 0.54231 0.08819 0.0
C728 C 0.31431 0.54447 0.11748 0.0
C729 C 0.30353 0.55925 0.09495 0.0
C730 C 0.35232 0.52898 0.08935 0.0
C731 C 0.37847 0.5282 0.03844 0.0
C732 C 0.3558 0.5419 0.01272 0.0
H733 H 0.69142 0.45738 0.82884 0.0
H734 H 0.63032 0.48566 0.87481 0.0
C735 C 0.31827 0.55738 0.0409 0.0
C736 C 0.44062 0.5151 0.01649 0.0
H737 H 0.6297 0.50359 0.03612 0.0
C738 C 0.42724 0.50288 0.96871 0.0
C739 C 0.51469 0.5156 0.04077 0.0
C740 C 0.53284 0.52906 0.091 0.0
C741 C 0.48567 0.49073 0.94523 0.0
C742 C 0.55976 0.49118 0.96965 0.0
C743 C 0.57318 0.50349 0.01725 0.0
C744 C 0.62127 0.47765 0.94905 0.0
C745 C 0.46707 0.47715 0.8954 0.0
C746 C 0.64435 0.46474 0.97777 0.0
C747 C 0.68036 0.44873 0.95186 0.0
C748 C 0.69287 0.44554 0.89703 0.0
C749 C 0.68262 0.45958 0.87122 0.0
C750 C 0.64629 0.47562 0.89714 0.0
H751 H 0.40486 0.47659 0.88754 0.0
H752 H 0.49097 0.48046 0.86051 0.0
H753 H 0.49255 0.4639 0.89863 0.0
H754 H 0.6265 0.46618 0.01814 0.0
H755 H 0.68777 0.43805 0.97247 0.0
H756 H 0.42157 0.45937 0.65083 0.0
H757 H 0.40146 0.48152 0.5971 0.0
H758 H 0.62159 0.46518 0.53129 0.0
H759 H 0.64236 0.44303 0.58509 0.0
H760 H 0.48833 0.50934 0.60098 0.0
H761 H 0.48408 0.46575 0.39822 0.0
H762 H 0.4749 0.45778 0.45777 0.0
H763 H 0.56672 0.46165 0.43918 0.0
C764 C 0.46566 0.46044 0.62479 0.0
C765 C 0.53361 0.4494 0.62226 0.0
C766 C 0.45395 0.47308 0.59401 0.0
C767 C 0.50965 0.4749 0.55979 0.0
C768 C 0.57715 0.46377 0.55659 0.0
H769 H 0.55544 0.54604 0.35321 0.0
H770 H 0.57532 0.52404 0.40742 0.0
C771 C 0.58889 0.45109 0.58733 0.0
C772 C 0.49832 0.48894 0.52929 0.0
H773 H 0.48789 0.49623 0.40314 0.0
C774 C 0.48785 0.50649 0.5577 0.0
C775 C 0.49791 0.48518 0.47286 0.0
C776 C 0.50581 0.46657 0.4401 0.0
C777 C 0.47827 0.5204 0.53125 0.0
C778 C 0.47791 0.51663 0.47483 0.0
C779 C 0.48835 0.49909 0.44642 0.0
C780 C 0.46684 0.53067 0.44431 0.0
C781 C 0.47036 0.53901 0.56399 0.0
C782 C 0.39931 0.54178 0.44721 0.0
C783 C 0.38768 0.55439 0.41617 0.0
C784 C 0.44312 0.556 0.38126 0.0
C785 C 0.5112 0.54502 0.37919 0.0
C786 C 0.52278 0.53246 0.41024 0.0
H787 H 0.49175 0.53983 0.60594 0.0
H788 H 0.50157 0.54777 0.54642 0.0
H789 H 0.40948 0.54396 0.56465 0.0
H790 H 0.35471 0.5404 0.47242 0.0
H791 H 0.33416 0.56242 0.41809 0.0
loop_
_geom_bond_atom_site_label_1
_geom_bond_atom_site_label_2
_geom_bond_distance
_geom_bond_site_symmetry_2
_ccdc_geom_bond_type
Cd0 N3 2.334 1_455 S
Cd0 N29 2.304 . S
Cd0 O36 2.268 1_455 S
Cd0 O39 2.273 . S
Cd0 O40 2.417 1_455 S
Cd0 O41 2.330 . S
Cd1 N16 2.304 1_655 S
Cd1 N20 2.334 . S
Cd1 O37 2.273 . S
Cd1 O38 2.268 1_655 S
Cd1 O42 2.417 1_655 S
Cd1 O43 2.330 . S
C2 N3 1.332 1_455 S
C2 C6 1.381 . S
C2 H8 0.931 . S
N3 Cd0 2.334 1_655 S
N3 C2 1.332 1_655 S
N3 C7 1.328 . S
C4 C5 1.396 . S
C4 C7 1.378 . S
C4 H46 0.931 . S
C5 C4 1.396 . S
C5 C6 1.382 1_655 S
C6 C2 1.381 . S
C6 C5 1.382 1_455 S
C6 H47 0.930 . S
C7 N3 1.328 . S
C7 C4 1.378 . S
C7 H9 0.930 . S
H8 C2 0.931 . S
H9 C7 0.930 . S
C10 O36 1.238 . S
C10 O37 1.253 . S
C11 C12 1.379 . S
C11 N16 1.337 1_655 S
C11 H17 0.929 . S
C12 C11 1.379 . S
C12 C13 1.380 1_655 S
C12 H48 0.929 . S
C13 C12 1.380 1_455 S
C13 C14 1.399 . S
C14 C13 1.399 . S
C14 C15 1.376 . S
C14 H49 0.931 . S
C15 C14 1.376 . S
C15 N16 1.338 . S
C15 H18 0.930 . S
N16 Cd1 2.304 1_455 S
N16 C11 1.337 1_455 S
N16 C15 1.338 . S
H17 C11 0.929 . S
H18 C15 0.930 . S
C19 N20 1.332 . S
C19 C23 1.381 . S
C19 H25 0.931 . S
N20 Cd1 2.334 . S
N20 C19 1.332 . S
N20 C24 1.328 1_655 S
C21 C22 1.396 1_455 S
C21 C24 1.378 . S
C21 H50 0.931 . S
C22 C21 1.396 1_655 S
C22 C23 1.382 . S
C23 C19 1.381 . S
C23 C22 1.382 . S
C23 H51 0.930 . S
C24 N20 1.328 1_455 S
C24 C21 1.378 . S
C24 H26 0.930 . S
H25 C19 0.931 . S
H26 C24 0.930 . S
C27 O38 1.238 . S
C27 O39 1.253 . S
C28 O40 1.239 . S
C28 O41 1.230 1_655 S
N29 Cd0 2.304 . S
N29 C30 1.337 . S
N29 C34 1.338 1_455 S
C30 N29 1.337 . S
C30 C31 1.379 . S
C30 H44 0.929 . S
C31 C30 1.379 . S
C31 C32 1.380 . S
C31 H52 0.929 . S
C32 C31 1.380 . S
C32 C33 1.399 1_455 S
C33 C32 1.399 1_655 S
C33 C34 1.376 . S
C33 H53 0.931 . S
C34 N29 1.338 1_655 S
C34 C33 1.376 . S
C34 H45 0.930 . S
C35 O42 1.239 . S
C35 O43 1.230 1_455 S
O36 Cd0 2.268 1_655 S
O36 C10 1.238 . S
O37 Cd1 2.273 . S
O37 C10 1.253 . S
O38 Cd1 2.268 1_455 S
O38 C27 1.238 . S
O39 Cd0 2.273 . S
O39 C27 1.253 . S
O40 Cd0 2.417 1_655 S
O40 C28 1.239 . S
O41 Cd0 2.330 . S
O41 C28 1.230 1_455 S
O42 Cd1 2.417 1_455 S
O42 C35 1.239 . S
O43 Cd1 2.330 . S
O43 C35 1.230 1_655 S
H44 C30 0.929 . S
H45 C34 0.930 . S
H46 C4 0.931 . S
H47 C6 0.930 . S
H48 C12 0.929 . S
H49 C14 0.931 . S
H50 C21 0.931 . S
H51 C23 0.930 . S
H52 C31 0.929 . S
H53 C33 0.931 . S
Cd54 N57 2.334 . S
Cd54 N83 2.304 . S
Cd54 O90 2.268 1_455 S
Cd54 O93 2.273 . S
Cd54 O94 2.417 1_455 S
Cd54 O95 2.330 . S
Cd55 N70 2.304 . S
Cd55 N74 2.334 . S
Cd55 O91 2.273 1_455 S
Cd55 O92 2.268 . S
Cd55 O96 2.417 . S
Cd55 O97 2.330 1_455 S
C56 N57 1.332 . S
C56 C60 1.381 . S
C56 H62 0.931 . S
N57 Cd54 2.334 . S
N57 C56 1.332 . S
N57 C61 1.328 1_455 S
C58 C59 1.396 1_655 S
C58 C61 1.378 . S
C58 H100 0.931 . S
C59 C58 1.396 1_455 S
C59 C60 1.382 . S
C60 C56 1.381 . S
C60 C59 1.382 . S
C60 H101 0.930 . S
C61 N57 1.328 1_655 S
C61 C58 1.378 . S
C61 H63 0.930 . S
H62 C56 0.931 . S
H63 C61 0.930 . S
C64 O90 1.238 . S
C64 O91 1.253 . S
C65 C66 1.379 . S
C65 N70 1.337 1_655 S
C65 H71 0.929 . S
C66 C65 1.379 . S
C66 C67 1.380 1_655 S
C66 H102 0.929 . S
C67 C66 1.380 1_455 S
C67 C68 1.399 . S
C68 C67 1.399 . S
C68 C69 1.376 . S
C68 H103 0.931 . S
C69 C68 1.376 . S
C69 N70 1.338 . S
C69 H72 0.930 . S
N70 Cd55 2.304 . S
N70 C65 1.337 1_455 S
N70 C69 1.338 . S
H71 C65 0.929 . S
H72 C69 0.930 . S
C73 N74 1.332 1_655 S
C73 C77 1.381 . S
C73 H79 0.931 . S
N74 Cd55 2.334 . S
N74 C73 1.332 1_455 S
N74 C78 1.328 . S
C75 C76 1.396 1_455 S
C75 C78 1.378 . S
C75 H104 0.931 . S
C76 C75 1.396 1_655 S
C76 C77 1.382 . S
C77 C73 1.381 . S
C77 C76 1.382 . S
C77 H105 0.930 . S
C78 N74 1.328 . S
C78 C75 1.378 . S
C78 H80 0.930 . S
H79 C73 0.931 . S
H80 C78 0.930 . S
C81 O92 1.238 . S
C81 O93 1.253 . S
C82 O94 1.239 . S
C82 O95 1.230 1_655 S
N83 Cd54 2.304 . S
N83 C84 1.337 . S
N83 C88 1.338 1_455 S
C84 N83 1.337 . S
C84 C85 1.379 . S
C84 H98 0.929 . S
C85 C84 1.379 . S
C85 C86 1.380 . S
C85 H106 0.929 . S
C86 C85 1.380 . S
C86 C87 1.399 1_455 S
C87 C86 1.399 1_655 S
C87 C88 1.376 . S
C87 H107 0.931 . S
C88 N83 1.338 1_655 S
C88 C87 1.376 . S
C88 H99 0.930 . S
C89 O96 1.239 . S
C89 O97 1.230 1_455 S
O90 Cd54 2.268 1_655 S
O90 C64 1.238 . S
O91 Cd55 2.273 1_655 S
O91 C64 1.253 . S
O92 Cd55 2.268 . S
O92 C81 1.238 . S
O93 Cd54 2.273 . S
O93 C81 1.253 . S
O94 Cd54 2.417 1_655 S
O94 C82 1.239 . S
O95 Cd54 2.330 . S
O95 C82 1.230 1_455 S
O96 Cd55 2.417 . S
O96 C89 1.239 . S
O97 Cd55 2.330 1_655 S
O97 C89 1.230 1_655 S
H98 C84 0.929 . S
H99 C88 0.930 . S
H100 C58 0.931 . S
H101 C60 0.930 . S
H102 C66 0.929 . S
H103 C68 0.931 . S
H104 C75 0.931 . S
H105 C77 0.930 . S
H106 C85 0.929 . S
H107 C87 0.931 . S
Cd108 N111 2.334 . S
Cd108 N137 2.304 . S
Cd108 O144 2.268 . S
Cd108 O147 2.273 . S
Cd108 O148 2.417 . S
Cd108 O149 2.330 . S
Cd109 N124 2.304 . S
Cd109 N128 2.334 . S
Cd109 O145 2.273 . S
Cd109 O146 2.268 . S
Cd109 O150 2.417 . S
Cd109 O151 2.330 . S
C110 N111 1.332 . S
C110 C114 1.381 . S
C110 H116 0.931 . S
N111 Cd108 2.334 . S
N111 C110 1.332 . S
N111 C115 1.328 . S
C112 C113 1.396 . S
C112 C115 1.378 . S
C112 H154 0.931 . S
C113 C112 1.396 . S
C113 C114 1.382 . S
C114 C110 1.381 . S
C114 C113 1.382 . S
C114 H155 0.930 . S
C115 N111 1.328 . S
C115 C112 1.378 . S
C115 H117 0.930 . S
H116 C110 0.931 . S
H117 C115 0.930 . S
C118 O144 1.238 . S
C118 O145 1.253 . S
C119 C120 1.379 . S
C119 N124 1.337 . S
C119 H125 0.929 . S
C120 C119 1.379 . S
C120 C121 1.380 . S
C120 H156 0.929 . S
C121 C120 1.380 . S
C121 C122 1.399 . S
C122 C121 1.399 . S
C122 C123 1.376 . S
C122 H157 0.931 . S
C123 C122 1.376 . S
C123 N124 1.338 . S
C123 H126 0.930 . S
N124 Cd109 2.304 . S
N124 C119 1.337 . S
N124 C123 1.338 . S
H125 C119 0.929 . S
H126 C123 0.930 . S
C127 N128 1.332 . S
C127 C131 1.381 . S
C127 H133 0.931 . S
N128 Cd109 2.334 . S
N128 C127 1.332 . S
N128 C132 1.328 . S
C129 C130 1.396 . S
C129 C132 1.378 . S
C129 H158 0.931 . S
C130 C129 1.396 . S
C130 C131 1.382 . S
C131 C127 1.381 . S
C131 C130 1.382 . S
C131 H159 0.930 . S
C132 N128 1.328 . S
C132 C129 1.378 . S
C132 H134 0.930 . S
H133 C127 0.931 . S
H134 C132 0.930 . S
C135 O146 1.238 . S
C135 O147 1.253 . S
C136 O148 1.239 . S
C136 O149 1.230 . S
N137 Cd108 2.304 . S
N137 C138 1.337 . S
N137 C142 1.338 . S
C138 N137 1.337 . S
C138 C139 1.379 . S
C138 H152 0.929 . S
C139 C138 1.379 . S
C139 C140 1.380 . S
C139 H160 0.929 . S
C140 C139 1.380 . S
C140 C141 1.399 . S
C141 C140 1.399 . S
C141 C142 1.376 . S
C141 H161 0.931 . S
C142 N137 1.338 . S
C142 C141 1.376 . S
C142 H153 0.930 . S
C143 O150 1.239 . S
C143 O151 1.230 . S
O144 Cd108 2.268 . S
O144 C118 1.238 . S
O145 Cd109 2.273 . S
O145 C118 1.253 . S
O146 Cd109 2.268 . S
O146 C135 1.238 . S
O147 Cd108 2.273 . S
O147 C135 1.253 . S
O148 Cd108 2.417 . S
O148 C136 1.239 . S
O149 Cd108 2.330 . S
O149 C136 1.230 . S
O150 Cd109 2.417 . S
O150 C143 1.239 . S
O151 Cd109 2.330 . S
O151 C143 1.230 . S
H152 C138 0.929 . S
H153 C142 0.930 . S
H154 C112 0.931 . S
H155 C114 0.930 . S
H156 C120 0.929 . S
H157 C122 0.931 . S
H158 C129 0.931 . S
H159 C131 0.930 . S
H160 C139 0.929 . S
H161 C141 0.931 . S
Cd162 N165 2.334 . S
Cd162 N191 2.304 . S
Cd162 O198 2.268 . S
Cd162 O201 2.273 . S
Cd162 O202 2.417 . S
Cd162 O203 2.330 . S
Cd163 N178 2.304 . S
Cd163 N182 2.334 . S
Cd163 O199 2.273 . S
Cd163 O200 2.268 . S
Cd163 O204 2.417 . S
Cd163 O205 2.330 . S
C164 N165 1.332 . S
C164 C168 1.381 . S
C164 H170 0.931 . S
N165 Cd162 2.334 . S
N165 C164 1.332 . S
N165 C169 1.328 . S
C166 C167 1.396 . S
C166 C169 1.378 . S
C166 H208 0.931 . S
C167 C166 1.396 . S
C167 C168 1.382 . S
C168 C164 1.381 . S
C168 C167 1.382 . S
C168 H209 0.930 . S
C169 N165 1.328 . S
C169 C166 1.378 . S
C169 H171 0.930 . S
H170 C164 0.931 . S
H171 C169 0.930 . S
C172 O198 1.238 . S
C172 O199 1.253 . S
C173 C174 1.379 . S
C173 N178 1.337 . S
C173 H179 0.929 . S
C174 C173 1.379 . S
C174 C175 1.380 . S
C174 H210 0.929 . S
C175 C174 1.380 . S
C175 C176 1.399 . S
C176 C175 1.399 . S
C176 C177 1.376 . S
C176 H211 0.931 . S
C177 C176 1.376 . S
C177 N178 1.338 . S
C177 H180 0.930 . S
N178 Cd163 2.304 . S
N178 C173 1.337 . S
N178 C177 1.338 . S
H179 C173 0.929 . S
H180 C177 0.930 . S
C181 N182 1.332 . S
C181 C185 1.381 . S
C181 H187 0.931 . S
N182 Cd163 2.334 . S
N182 C181 1.332 . S
N182 C186 1.328 . S
C183 C184 1.396 . S
C183 C186 1.378 . S
C183 H212 0.931 . S
C184 C183 1.396 . S
C184 C185 1.382 . S
C185 C181 1.381 . S
C185 C184 1.382 . S
C185 H213 0.930 . S
C186 N182 1.328 . S
C186 C183 1.378 . S
C186 H188 0.930 . S
H187 C181 0.931 . S
H188 C186 0.930 . S
C189 O200 1.238 . S
C189 O201 1.253 . S
C190 O202 1.239 . S
C190 O203 1.230 . S
N191 Cd162 2.304 . S
N191 C192 1.337 . S
N191 C196 1.338 . S
C192 N191 1.337 . S
C192 C193 1.379 . S
C192 H206 0.929 . S
C193 C192 1.379 . S
C193 C194 1.380 . S
C193 H214 0.929 . S
C194 C193 1.380 . S
C194 C195 1.399 . S
C195 C194 1.399 . S
C195 C196 1.376 . S
C195 H215 0.931 . S
C196 N191 1.338 . S
C196 C195 1.376 . S
C196 H207 0.930 . S
C197 O204 1.239 . S
C197 O205 1.230 . S
O198 Cd162 2.268 . S
O198 C172 1.238 . S
O199 Cd163 2.273 . S
O199 C172 1.253 . S
O200 Cd163 2.268 . S
O200 C189 1.238 . S
O201 Cd162 2.273 . S
O201 C189 1.253 . S
O202 Cd162 2.417 . S
O202 C190 1.239 . S
O203 Cd162 2.330 . S
O203 C190 1.230 . S
O204 Cd163 2.417 . S
O204 C197 1.239 . S
O205 Cd163 2.330 . S
O205 C197 1.230 . S
H206 C192 0.929 . S
H207 C196 0.930 . S
H208 C166 0.931 . S
H209 C168 0.930 . S
H210 C174 0.929 . S
H211 C176 0.931 . S
H212 C183 0.931 . S
H213 C185 0.930 . S
H214 C193 0.929 . S
H215 C195 0.931 . S
H216 C224 0.929 . S
H217 C226 0.930 . S
H218 C228 0.930 . S
H219 C231 0.929 . S
H220 C234 0.930 . S
H221 C236 0.960 . S
H222 C236 0.960 . S
H223 C236 0.960 . S
C224 H216 0.929 . S
C224 C225 1.377 . S
C224 C226 1.384 . S
C225 C224 1.377 . S
C225 C231 1.390 1_655 S
C226 H217 0.930 . S
C226 C224 1.384 . S
C226 C227 1.372 . S
C227 C226 1.372 . S
C227 C228 1.400 1_655 S
C227 C232 1.490 . S
C228 H218 0.930 . S
C228 C227 1.400 1_455 S
C228 C231 1.386 . S
H229 C245 0.930 . S
H230 C246 0.931 . S
C231 H219 0.929 . S
C231 C225 1.390 1_455 S
C231 C228 1.386 . S
C232 C227 1.490 . S
C232 C234 1.395 . S
C232 C235 1.403 1_655 S
H233 C239 0.930 . S
C234 H220 0.930 . S
C234 C232 1.395 . S
C234 C237 1.403 . S
C235 C232 1.403 1_455 S
C235 C236 1.524 . S
C235 C239 1.400 . S
C236 H221 0.960 . S
C236 H222 0.960 . S
C236 H223 0.960 . S
C236 C235 1.524 . S
C237 C234 1.403 . S
C237 C238 1.392 . S
C237 C241 1.495 . S
C238 C237 1.392 . S
C238 C239 1.385 1_655 S
C238 C240 1.478 1_655 S
C239 H233 0.930 . S
C239 C235 1.400 . S
C239 C238 1.385 1_455 S
C240 C238 1.478 1_455 S
C240 C242 1.382 1_455 S
C240 C246 1.382 . S
C241 C237 1.495 . S
C241 H247 0.959 . S
C241 H248 0.961 . S
C241 H249 0.960 . S
C242 C240 1.382 1_655 S
C242 C243 1.394 . S
C242 H250 0.930 . S
C243 C242 1.394 . S
C243 C244 1.383 1_655 S
C243 H251 0.929 . S
C244 C243 1.383 1_455 S
C244 C245 1.377 . S
C245 H229 0.930 . S
C245 C244 1.377 . S
C245 C246 1.379 . S
C246 H230 0.931 . S
C246 C240 1.382 . S
C246 C245 1.379 . S
H247 C241 0.959 . S
H248 C241 0.961 . S
H249 C241 0.960 . S
H250 C242 0.930 . S
H251 C243 0.929 . S
H252 C260 0.929 . S
H253 C262 0.930 1_655 S
H254 C264 0.930 . S
H255 C267 0.929 . S
H256 C270 0.930 . S
H257 C272 0.960 . S
H258 C272 0.960 . S
H259 C272 0.960 . S
C260 H252 0.929 . S
C260 C261 1.377 1_655 S
C260 C262 1.382 1_655 S
C261 C260 1.377 1_455 S
C261 C267 1.390 . S
C262 H253 0.930 1_455 S
C262 C260 1.382 1_455 S
C262 C263 1.374 . S
C263 C262 1.374 . S
C263 C264 1.400 . S
C263 C268 1.490 . S
C264 H254 0.930 . S
C264 C263 1.400 . S
C264 C267 1.386 . S
H265 C281 0.930 . S
H266 C282 0.931 . S
C267 H255 0.929 . S
C267 C261 1.390 . S
C267 C264 1.386 . S
C268 C263 1.490 . S
C268 C270 1.395 . S
C268 C271 1.403 1_455 S
H269 C275 0.930 . S
C270 H256 0.930 . S
C270 C268 1.395 . S
C270 C273 1.403 . S
C271 C268 1.403 1_655 S
C271 C272 1.524 . S
C271 C275 1.400 . S
C272 H257 0.960 . S
C272 H258 0.960 . S
C272 H259 0.960 . S
C272 C271 1.524 . S
C273 C270 1.403 . S
C273 C274 1.392 . S
C273 C277 1.495 . S
C274 C273 1.392 . S
C274 C275 1.385 1_455 S
C274 C276 1.478 . S
C275 H269 0.930 . S
C275 C271 1.400 . S
C275 C274 1.385 1_655 S
C276 C274 1.478 . S
C276 C278 1.381 . S
C276 C282 1.383 . S
C277 C273 1.495 . S
C277 H283 0.959 . S
C277 H284 0.961 . S
C277 H285 0.960 . S
C278 C276 1.381 . S
C278 C279 1.394 . S
C278 H286 0.930 . S
C279 C278 1.394 . S
C279 C280 1.383 . S
C279 H287 0.929 . S
C280 C279 1.383 . S
C280 C281 1.377 . S
C281 H265 0.930 . S
C281 C280 1.377 . S
C281 C282 1.379 . S
C282 H266 0.931 . S
C282 C276 1.383 . S
C282 C281 1.379 . S
H283 C277 0.959 . S
H284 C277 0.961 . S
H285 C277 0.960 . S
H286 C278 0.930 . S
H287 C279 0.929 . S
H288 C296 0.929 . S
H289 C298 0.930 . S
H290 C300 0.930 . S
H291 C303 0.929 . S
H292 C306 0.930 . S
H293 C308 0.960 . S
H294 C308 0.960 . S
H295 C308 0.960 . S
C296 H288 0.929 . S
C296 C297 1.377 . S
C296 C298 1.384 . S
C297 C296 1.377 . S
C297 C303 1.390 . S
C298 H289 0.930 . S
C298 C296 1.384 . S
C298 C299 1.372 . S
C299 C298 1.372 . S
C299 C300 1.400 . S
C299 C304 1.490 . S
C300 H290 0.930 . S
C300 C299 1.400 . S
C300 C303 1.386 . S
H301 C317 0.930 . S
H302 C318 0.931 . S
C303 H291 0.929 . S
C303 C297 1.390 . S
C303 C300 1.386 . S
C304 C299 1.490 . S
C304 C306 1.395 . S
C304 C307 1.403 . S
H305 C311 0.930 . S
C306 H292 0.930 . S
C306 C304 1.395 . S
C306 C309 1.403 . S
C307 C304 1.403 . S
C307 C308 1.524 . S
C307 C311 1.400 . S
C308 H293 0.960 . S
C308 H294 0.960 . S
C308 H295 0.960 . S
C308 C307 1.524 . S
C309 C306 1.403 . S
C309 C310 1.392 . S
C309 C313 1.495 . S
C310 C309 1.392 . S
C310 C311 1.385 . S
C310 C312 1.478 . S
C311 H305 0.930 . S
C311 C307 1.400 . S
C311 C310 1.385 . S
C312 C310 1.478 . S
C312 C314 1.381 . S
C312 C318 1.383 . S
C313 C309 1.495 . S
C313 H319 0.959 . S
C313 H320 0.961 . S
C313 H321 0.960 . S
C314 C312 1.381 . S
C314 C315 1.394 . S
C314 H322 0.930 . S
C315 C314 1.394 . S
C315 C316 1.383 . S
C315 H323 0.929 . S
C316 C315 1.383 . S
C316 C317 1.377 . S
C317 H301 0.930 . S
C317 C316 1.377 . S
C317 C318 1.379 . S
C318 H302 0.931 . S
C318 C312 1.383 . S
C318 C317 1.379 . S
H319 C313 0.959 . S
H320 C313 0.961 . S
H321 C313 0.960 . S
H322 C314 0.930 . S
H323 C315 0.929 . S
H324 C332 0.929 . S
H325 C334 0.930 . S
H326 C336 0.930 . S
H327 C339 0.929 . S
H328 C342 0.930 . S
H329 C344 0.960 . S
H330 C344 0.960 . S
H331 C344 0.960 . S
C332 H324 0.929 . S
C332 C333 1.377 . S
C332 C334 1.384 . S
C333 C332 1.377 . S
C333 C339 1.390 . S
C334 H325 0.930 . S
C334 C332 1.384 . S
C334 C335 1.372 . S
C335 C334 1.372 . S
C335 C336 1.400 . S
C335 C340 1.490 . S
C336 H326 0.930 . S
C336 C335 1.400 . S
C336 C339 1.386 . S
H337 C353 0.930 . S
H338 C354 0.931 . S
C339 H327 0.929 . S
C339 C333 1.390 . S
C339 C336 1.386 . S
C340 C335 1.490 . S
C340 C342 1.395 . S
C340 C343 1.403 . S
H341 C347 0.930 . S
C342 H328 0.930 . S
C342 C340 1.395 . S
C342 C345 1.403 . S
C343 C340 1.403 . S
C343 C344 1.524 . S
C343 C347 1.400 . S
C344 H329 0.960 . S
C344 H330 0.960 . S
C344 H331 0.960 . S
C344 C343 1.524 . S
C345 C342 1.403 . S
C345 C346 1.392 . S
C345 C349 1.495 . S
C346 C345 1.392 . S
C346 C347 1.385 . S
C346 C348 1.478 . S
C347 H341 0.930 . S
C347 C343 1.400 . S
C347 C346 1.385 . S
C348 C346 1.478 . S
C348 C350 1.381 . S
C348 C354 1.383 . S
C349 C345 1.495 . S
C349 H355 0.959 . S
C349 H356 0.961 . S
C349 H357 0.960 . S
C350 C348 1.381 . S
C350 C351 1.394 . S
C350 H358 0.930 . S
C351 C350 1.394 . S
C351 C352 1.383 . S
C351 H359 0.929 . S
C352 C351 1.383 . S
C352 C353 1.377 . S
C353 H337 0.930 . S
C353 C352 1.377 . S
C353 C354 1.379 . S
C354 H338 0.931 . S
C354 C348 1.383 . S
C354 C353 1.379 . S
H355 C349 0.959 . S
H356 C349 0.961 . S
H357 C349 0.960 . S
H358 C350 0.930 . S
H359 C351 0.929 . S
H360 C368 0.929 . S
H361 C370 0.930 . S
H362 C372 0.930 . S
H363 C375 0.929 . S
H364 C378 0.930 . S
H365 C380 0.960 . S
H366 C380 0.960 . S
H367 C380 0.960 . S
C368 H360 0.929 . S
C368 C369 1.377 . S
C368 C370 1.384 . S
C369 C368 1.377 . S
C369 C375 1.390 . S
C370 H361 0.930 . S
C370 C368 1.384 . S
C370 C371 1.372 . S
C371 C370 1.372 . S
C371 C372 1.400 . S
C371 C376 1.490 . S
C372 H362 0.930 . S
C372 C371 1.400 . S
C372 C375 1.386 . S
H373 C389 0.930 . S
H374 C390 0.931 . S
C375 H363 0.929 . S
C375 C369 1.390 . S
C375 C372 1.386 . S
C376 C371 1.490 . S
C376 C378 1.395 . S
C376 C379 1.403 . S
H377 C383 0.930 . S
C378 H364 0.930 . S
C378 C376 1.395 . S
C378 C381 1.403 . S
C379 C376 1.403 . S
C379 C380 1.524 . S
C379 C383 1.400 . S
C380 H365 0.960 . S
C380 H366 0.960 . S
C380 H367 0.960 . S
C380 C379 1.524 . S
C381 C378 1.403 . S
C381 C382 1.392 . S
C381 C385 1.495 . S
C382 C381 1.392 . S
C382 C383 1.385 . S
C382 C384 1.478 . S
C383 H377 0.930 . S
C383 C379 1.400 . S
C383 C382 1.385 . S
C384 C382 1.478 . S
C384 C386 1.381 . S
C384 C390 1.383 . S
C385 C381 1.495 . S
C385 H391 0.959 . S
C385 H392 0.961 . S
C385 H393 0.960 . S
C386 C384 1.381 . S
C386 C387 1.394 . S
C386 H394 0.930 . S
C387 C386 1.394 . S
C387 C388 1.383 . S
C387 H395 0.929 . S
C388 C387 1.383 . S
C388 C389 1.377 . S
C389 H373 0.930 . S
C389 C388 1.377 . S
C389 C390 1.379 . S
C390 H374 0.931 . S
C390 C384 1.383 . S
C390 C389 1.379 . S
H391 C385 0.959 . S
H392 C385 0.961 . S
H393 C385 0.960 . S
H394 C386 0.930 . S
H395 C387 0.929 . S
H396 C404 0.929 . S
H397 C406 0.930 . S
H398 C408 0.930 . S
H399 C411 0.929 . S
H400 C414 0.930 . S
H401 C416 0.960 . S
H402 C416 0.960 . S
H403 C416 0.960 . S
C404 H396 0.929 . S
C404 C405 1.377 . S
C404 C406 1.384 . S
C405 C404 1.377 . S
C405 C411 1.390 . S
C406 H397 0.930 . S
C406 C404 1.384 . S
C406 C407 1.372 . S
C407 C406 1.372 . S
C407 C408 1.400 . S
C407 C412 1.490 . S
C408 H398 0.930 . S
C408 C407 1.400 . S
C408 C411 1.386 . S
H409 C425 0.930 . S
H410 C426 0.931 . S
C411 H399 0.929 . S
C411 C405 1.390 . S
C411 C408 1.386 . S
C412 C407 1.490 . S
C412 C414 1.395 . S
C412 C415 1.403 . S
H413 C419 0.930 . S
C414 H400 0.930 . S
C414 C412 1.395 . S
C414 C417 1.403 . S
C415 C412 1.403 . S
C415 C416 1.524 . S
C415 C419 1.400 . S
C416 H401 0.960 . S
C416 H402 0.960 . S
C416 H403 0.960 . S
C416 C415 1.524 . S
C417 C414 1.403 . S
C417 C418 1.392 . S
C417 C421 1.495 . S
C418 C417 1.392 . S
C418 C419 1.385 . S
C418 C420 1.478 . S
C419 H413 0.930 . S
C419 C415 1.400 . S
C419 C418 1.385 . S
C420 C418 1.478 . S
C420 C422 1.381 . S
C420 C426 1.383 . S
C421 C417 1.495 . S
C421 H427 0.959 . S
C421 H428 0.961 . S
C421 H429 0.960 . S
C422 C420 1.381 . S
C422 C423 1.394 . S
C422 H430 0.930 . S
C423 C422 1.394 . S
C423 C424 1.383 . S
C423 H431 0.929 . S
C424 C423 1.383 . S
C424 C425 1.377 . S
C425 H409 0.930 . S
C425 C424 1.377 . S
C425 C426 1.379 . S
C426 H410 0.931 . S
C426 C420 1.383 . S
C426 C425 1.379 . S
H427 C421 0.959 . S
H428 C421 0.961 . S
H429 C421 0.960 . S
H430 C422 0.930 . S
H431 C423 0.929 . S
H432 C440 0.929 . S
H433 C442 0.930 . S
H434 C444 0.930 . S
H435 C447 0.929 . S
H436 C450 0.930 . S
H437 C452 0.960 . S
H438 C452 0.960 . S
H439 C452 0.960 . S
C440 H432 0.929 . S
C440 C441 1.377 . S
C440 C442 1.384 . S
C441 C440 1.377 . S
C441 C447 1.390 . S
C442 H433 0.930 . S
C442 C440 1.384 . S
C442 C443 1.372 . S
C443 C442 1.372 . S
C443 C444 1.400 . S
C443 C448 1.490 . S
C444 H434 0.930 . S
C444 C443 1.400 . S
C444 C447 1.386 . S
H445 C461 0.930 . S
H446 C462 0.931 . S
C447 H435 0.929 . S
C447 C441 1.390 . S
C447 C444 1.386 . S
C448 C443 1.490 . S
C448 C450 1.395 . S
C448 C451 1.403 . S
H449 C455 0.930 . S
C450 H436 0.930 . S
C450 C448 1.395 . S
C450 C453 1.403 1_655 S
C451 C448 1.403 . S
C451 C452 1.524 . S
C451 C455 1.400 1_655 S
C452 H437 0.960 . S
C452 H438 0.960 . S
C452 H439 0.960 . S
C452 C451 1.524 . S
C453 C450 1.403 1_455 S
C453 C454 1.392 . S
C453 C457 1.495 . S
C454 C453 1.392 . S
C454 C455 1.385 . S
C454 C456 1.478 . S
C455 H449 0.930 . S
C455 C451 1.400 1_455 S
C455 C454 1.385 . S
C456 C454 1.478 . S
C456 C458 1.381 . S
C456 C462 1.383 . S
C457 C453 1.495 . S
C457 H463 0.959 . S
C457 H464 0.961 . S
C457 H465 0.960 . S
C458 C456 1.381 . S
C458 C459 1.394 . S
C458 H466 0.930 . S
C459 C458 1.394 . S
C459 C460 1.383 . S
C459 H467 0.929 . S
C460 C459 1.383 . S
C460 C461 1.377 . S
C461 H445 0.930 . S
C461 C460 1.377 . S
C461 C462 1.379 . S
C462 H446 0.931 . S
C462 C456 1.383 . S
C462 C461 1.379 . S
H463 C457 0.959 . S
H464 C457 0.961 . S
H465 C457 0.960 . S
H466 C458 0.930 . S
H467 C459 0.929 . S
H468 C476 0.929 . S
H469 C478 0.930 . S
H470 C480 0.930 . S
H471 C483 0.929 . S
H472 C486 0.930 . S
H473 C488 0.960 . S
H474 C488 0.960 . S
H475 C488 0.960 . S
C476 H468 0.929 . S
C476 C477 1.377 . S
C476 C478 1.384 . S
C477 C476 1.377 . S
C477 C483 1.390 . S
C478 H469 0.930 . S
C478 C476 1.384 . S
C478 C479 1.372 . S
C479 C478 1.372 . S
C479 C480 1.400 . S
C479 C484 1.490 . S
C480 H470 0.930 . S
C480 C479 1.400 . S
C480 C483 1.386 . S
H481 C497 0.930 . S
H482 C498 0.931 . S
C483 H471 0.929 . S
C483 C477 1.390 . S
C483 C480 1.386 . S
C484 C479 1.490 . S
C484 C486 1.395 . S
C484 C487 1.403 . S
H485 C491 0.930 . S
C486 H472 0.930 . S
C486 C484 1.395 . S
C486 C489 1.403 1_655 S
C487 C484 1.403 . S
C487 C488 1.524 . S
C487 C491 1.400 1_655 S
C488 H473 0.960 . S
C488 H474 0.960 . S
C488 H475 0.960 . S
C488 C487 1.524 . S
C489 C486 1.403 1_455 S
C489 C490 1.392 . S
C489 C493 1.495 . S
C490 C489 1.392 . S
C490 C491 1.385 . S
C490 C492 1.478 . S
C491 H485 0.930 . S
C491 C487 1.400 1_455 S
C491 C490 1.385 . S
C492 C490 1.478 . S
C492 C494 1.381 . S
C492 C498 1.383 . S
C493 C489 1.495 . S
C493 H499 0.959 . S
C493 H500 0.961 . S
C493 H501 0.960 . S
C494 C492 1.381 . S
C494 C495 1.394 . S
C494 H502 0.930 . S
C495 C494 1.394 . S
C495 C496 1.383 . S
C495 H503 0.929 . S
C496 C495 1.383 . S
C496 C497 1.377 . S
C497 H481 0.930 . S
C497 C496 1.377 . S
C497 C498 1.379 . S
C498 H482 0.931 . S
C498 C492 1.383 . S
C498 C497 1.379 . S
H499 C493 0.959 . S
H500 C493 0.961 . S
H501 C493 0.960 . S
H502 C494 0.930 . S
H503 C495 0.929 . S
H504 C512 0.929 . S
H505 C514 0.930 . S
H506 C516 0.930 . S
H507 C519 0.929 . S
H508 C522 0.930 . S
H509 C524 0.960 . S
H510 C524 0.960 . S
H511 C524 0.960 . S
C512 H504 0.929 . S
C512 C513 1.377 . S
C512 C514 1.384 . S
C513 C512 1.377 . S
C513 C519 1.390 . S
C514 H505 0.930 . S
C514 C512 1.384 . S
C514 C515 1.372 . S
C515 C514 1.372 . S
C515 C516 1.400 . S
C515 C520 1.490 . S
C516 H506 0.930 . S
C516 C515 1.400 . S
C516 C519 1.386 . S
H517 C533 0.930 . S
H518 C534 0.931 . S
C519 H507 0.929 . S
C519 C513 1.390 . S
C519 C516 1.386 . S
C520 C515 1.490 . S
C520 C522 1.395 . S
C520 C523 1.403 . S
H521 C527 0.930 . S
C522 H508 0.930 . S
C522 C520 1.395 . S
C522 C525 1.403 . S
C523 C520 1.403 . S
C523 C524 1.524 . S
C523 C527 1.400 . S
C524 H509 0.960 . S
C524 H510 0.960 . S
C524 H511 0.960 . S
C524 C523 1.524 . S
C525 C522 1.403 . S
C525 C526 1.392 . S
C525 C529 1.495 . S
C526 C525 1.392 . S
C526 C527 1.385 . S
C526 C528 1.478 . S
C527 H521 0.930 . S
C527 C523 1.400 . S
C527 C526 1.385 . S
C528 C526 1.478 . S
C528 C530 1.381 . S
C528 C534 1.383 . S
C529 C525 1.495 . S
C529 H535 0.959 . S
C529 H536 0.961 . S
C529 H537 0.960 . S
C530 C528 1.381 . S
C530 C531 1.394 . S
C530 H538 0.930 . S
C531 C530 1.394 . S
C531 C532 1.383 . S
C531 H539 0.929 . S
C532 C531 1.383 . S
C532 C533 1.377 . S
C533 H517 0.930 . S
C533 C532 1.377 . S
C533 C534 1.379 . S
C534 H518 0.931 . S
C534 C528 1.383 . S
C534 C533 1.379 . S
H535 C529 0.959 . S
H536 C529 0.961 . S
H537 C529 0.960 . S
H538 C530 0.930 . S
H539 C531 0.929 . S
H540 C548 0.929 . S
H541 C550 0.930 . S
H542 C552 0.930 . S
H543 C555 0.929 . S
H544 C558 0.930 . S
H545 C560 0.960 . S
H546 C560 0.960 . S
H547 C560 0.960 . S
C548 H540 0.929 . S
C548 C549 1.377 . S
C548 C550 1.384 . S
C549 C548 1.377 . S
C549 C555 1.390 . S
C550 H541 0.930 . S
C550 C548 1.384 . S
C550 C551 1.372 . S
C551 C550 1.372 . S
C551 C552 1.400 . S
C551 C556 1.490 . S
C552 H542 0.930 . S
C552 C551 1.400 . S
C552 C555 1.386 . S
H553 C569 0.932 . S
H554 C570 0.931 . S
C555 H543 0.929 . S
C555 C549 1.390 . S
C555 C552 1.386 . S
C556 C551 1.490 . S
C556 C558 1.395 . S
C556 C559 1.403 1_556 S
H557 C563 0.930 . S
C558 H544 0.930 . S
C558 C556 1.395 . S
C558 C561 1.403 . S
C559 C556 1.403 1_554 S
C559 C560 1.524 . S
C559 C563 1.400 . S
C560 H545 0.960 . S
C560 H546 0.960 . S
C560 H547 0.960 . S
C560 C559 1.524 . S
C561 C558 1.403 . S
C561 C562 1.392 1_556 S
C561 C565 1.495 . S
C562 C561 1.392 1_554 S
C562 C563 1.385 . S
C562 C564 1.478 . S
C563 H557 0.930 . S
C563 C559 1.400 . S
C563 C562 1.385 . S
C564 C562 1.478 . S
C564 C566 1.381 . S
C564 C570 1.383 . S
C565 C561 1.495 . S
C565 H571 0.959 . S
C565 H572 0.961 . S
C565 H573 0.960 . S
C566 C564 1.381 . S
C566 C567 1.394 . S
C566 H574 0.930 . S
C567 C566 1.394 . S
C567 C568 1.383 . S
C567 H575 0.929 . S
C568 C567 1.383 . S
C568 C569 1.377 . S
C569 H553 0.932 . S
C569 C568 1.377 . S
C569 C570 1.379 . S
C570 H554 0.931 . S
C570 C564 1.383 . S
C570 C569 1.379 . S
H571 C565 0.959 . S
H572 C565 0.961 . S
H573 C565 0.960 . S
H574 C566 0.930 . S
H575 C567 0.929 . S
H576 C584 0.929 . S
H577 C586 0.930 . S
H578 C588 0.930 . S
H579 C591 0.929 . S
H580 C594 0.930 . S
H581 C596 0.960 . S
H582 C596 0.960 . S
H583 C596 0.960 . S
C584 H576 0.929 . S
C584 C585 1.377 . S
C584 C586 1.384 . S
C585 C584 1.377 . S
C585 C591 1.390 . S
C586 H577 0.930 . S
C586 C584 1.384 . S
C586 C587 1.372 . S
C587 C586 1.372 . S
C587 C588 1.400 . S
C587 C592 1.490 . S
C588 H578 0.930 . S
C588 C587 1.400 . S
C588 C591 1.386 . S
H589 C605 0.930 . S
H590 C606 0.931 . S
C591 H579 0.929 . S
C591 C585 1.390 . S
C591 C588 1.386 . S
C592 C587 1.490 . S
C592 C594 1.395 . S
C592 C595 1.403 . S
H593 C599 0.930 . S
C594 H580 0.930 . S
C594 C592 1.395 . S
C594 C597 1.403 . S
C595 C592 1.403 . S
C595 C596 1.524 . S
C595 C599 1.400 . S
C596 H581 0.960 . S
C596 H582 0.960 . S
C596 H583 0.960 . S
C596 C595 1.524 . S
C597 C594 1.403 . S
C597 C598 1.392 . S
C597 C601 1.495 . S
C598 C597 1.392 . S
C598 C599 1.385 . S
C598 C600 1.478 . S
C599 H593 0.930 . S
C599 C595 1.400 . S
C599 C598 1.385 . S
C600 C598 1.478 . S
C600 C602 1.381 . S
C600 C606 1.383 . S
C601 C597 1.495 . S
C601 H607 0.959 . S
C601 H608 0.961 . S
C601 H609 0.960 . S
C602 C600 1.381 . S
C602 C603 1.394 . S
C602 H610 0.930 . S
C603 C602 1.394 . S
C603 C604 1.383 . S
C603 H611 0.929 . S
C604 C603 1.383 . S
C604 C605 1.377 . S
C605 H589 0.930 . S
C605 C604 1.377 . S
C605 C606 1.379 . S
C606 H590 0.931 . S
C606 C600 1.383 . S
C606 C605 1.379 . S
H607 C601 0.959 . S
H608 C601 0.961 . S
H609 C601 0.960 . S
H610 C602 0.930 . S
H611 C603 0.929 . S
H612 C620 0.929 . S
H613 C622 0.930 . S
H614 C624 0.930 . S
H615 C627 0.929 . S
H616 C630 0.930 . S
H617 C632 0.960 . S
H618 C632 0.960 . S
H619 C632 0.960 . S
C620 H612 0.929 . S
C620 C621 1.377 . S
C620 C622 1.384 . S
C621 C620 1.377 . S
C621 C627 1.390 . S
C622 H613 0.930 . S
C622 C620 1.384 . S
C622 C623 1.372 . S
C623 C622 1.372 . S
C623 C624 1.400 . S
C623 C628 1.490 . S
C624 H614 0.930 . S
C624 C623 1.400 . S
C624 C627 1.386 . S
H625 C641 0.930 . S
H626 C642 0.931 . S
C627 H615 0.929 . S
C627 C621 1.390 . S
C627 C624 1.386 . S
C628 C623 1.490 . S
C628 C630 1.395 1_554 S
C628 C631 1.403 . S
H629 C635 0.930 . S
C630 H616 0.930 . S
C630 C628 1.395 1_556 S
C630 C633 1.403 . S
C631 C628 1.403 . S
C631 C632 1.524 . S
C631 C635 1.400 . S
C632 H617 0.960 . S
C632 H618 0.960 . S
C632 H619 0.960 . S
C632 C631 1.524 . S
C633 C630 1.403 . S
C633 C634 1.392 . S
C633 C637 1.495 . S
C634 C633 1.392 . S
C634 C635 1.385 1_556 S
C634 C636 1.478 . S
C635 H629 0.930 . S
C635 C631 1.400 . S
C635 C634 1.385 1_554 S
C636 C634 1.478 . S
C636 C638 1.381 . S
C636 C642 1.383 . S
C637 C633 1.495 . S
C637 H643 0.959 . S
C637 H644 0.961 . S
C637 H645 0.960 . S
C638 C636 1.381 . S
C638 C639 1.394 . S
C638 H646 0.930 . S
C639 C638 1.394 . S
C639 C640 1.383 . S
C639 H647 0.929 . S
C640 C639 1.383 . S
C640 C641 1.377 . S
C641 H625 0.930 . S
C641 C640 1.377 . S
C641 C642 1.379 . S
C642 H626 0.931 . S
C642 C636 1.383 . S
C642 C641 1.379 . S
H643 C637 0.959 . S
H644 C637 0.961 . S
H645 C637 0.960 . S
H646 C638 0.930 . S
H647 C639 0.929 . S
H648 C656 0.929 . S
H649 C658 0.930 . S
H650 C660 0.930 . S
H651 C663 0.929 . S
H652 C666 0.930 . S
H653 C668 0.960 1_565 S
H654 C668 0.960 . S
H655 C668 0.960 1_455 S
C656 H648 0.929 . S
C656 C657 1.377 . S
C656 C658 1.384 . S
C657 C656 1.377 . S
C657 C663 1.390 1_655 S
C658 H649 0.930 . S
C658 C656 1.384 . S
C658 C659 1.372 . S
C659 C658 1.372 . S
C659 C660 1.400 1_655 S
C659 C664 1.490 . S
C660 H650 0.930 . S
C660 C659 1.400 1_455 S
C660 C663 1.386 . S
H661 C677 0.930 . S
H662 C678 0.931 . S
C663 H651 0.929 . S
C663 C657 1.390 1_455 S
C663 C660 1.386 . S
C664 C659 1.490 . S
C664 C666 1.395 1_654 S
C664 C667 1.403 . S
H665 C671 0.930 . S
C666 H652 0.930 . S
C666 C664 1.395 1_456 S
C666 C669 1.403 . S
C667 C664 1.403 . S
C667 C668 1.524 . S
C667 C671 1.400 1_645 S
C668 H653 0.960 1_545 S
C668 H654 0.960 . S
C668 H655 0.960 1_655 S
C668 C667 1.524 . S
C669 C666 1.403 . S
C669 C670 1.392 1_545 S
C669 C673 1.496 . S
C670 C669 1.392 1_565 S
C670 C671 1.385 1_556 S
C670 C672 1.478 . S
C671 H665 0.930 . S
C671 C667 1.400 1_465 S
C671 C670 1.385 1_554 S
C672 C670 1.478 . S
C672 C674 1.381 1_455 S
C672 C678 1.383 . S
C673 C669 1.496 . S
C673 H679 0.954 . S
C673 H680 0.963 1_545 S
C673 H681 0.961 1_545 S
C674 C672 1.381 1_655 S
C674 C675 1.394 . S
C674 H682 0.930 . S
C675 C674 1.394 . S
C675 C676 1.383 1_655 S
C675 H683 0.929 . S
C676 C675 1.383 1_455 S
C676 C677 1.377 . S
C677 H661 0.930 . S
C677 C676 1.377 . S
C677 C678 1.379 . S
C678 H662 0.931 . S
C678 C672 1.383 . S
C678 C677 1.379 . S
H679 C673 0.954 . S
H680 C673 0.963 1_565 S
H681 C673 0.961 1_565 S
H682 C674 0.930 . S
H683 C675 0.929 . S
H684 C692 0.929 . S
H685 C694 0.930 . S
H686 C696 0.930 . S
H687 C699 0.929 . S
H688 C702 0.930 . S
H689 C704 0.998 . S
H690 C704 0.960 . S
H691 C704 0.928 1_545 S
C692 H684 0.929 . S
C692 C693 1.377 . S
C692 C694 1.384 . S
C693 C692 1.377 . S
C693 C699 1.390 1_455 S
C694 H685 0.930 . S
C694 C692 1.384 . S
C694 C695 1.372 . S
C695 C694 1.372 . S
C695 C696 1.400 1_455 S
C695 C700 1.490 . S
C696 H686 0.930 . S
C696 C695 1.400 1_655 S
C696 C699 1.386 . S
H697 C713 0.930 . S
H698 C714 0.931 . S
C699 H687 0.929 . S
C699 C693 1.390 1_655 S
C699 C696 1.386 . S
C700 C695 1.490 . S
C700 C702 1.395 . S
C700 C703 1.419 1_455 S
H701 C707 0.930 . S
C702 H688 0.930 . S
C702 C700 1.395 . S
C702 C705 1.408 1_545 S
C703 C700 1.419 1_655 S
C703 C704 1.533 1_545 S
C703 C707 1.380 1_545 S
C704 H689 0.998 . S
C704 H690 0.960 . S
C704 H691 0.928 1_565 S
C704 C703 1.533 1_565 S
C705 C702 1.408 1_565 S
C705 C706 1.389 . S
C705 C709 1.498 1_565 S
C706 C705 1.389 . S
C706 C707 1.385 1_455 S
C706 C708 1.478 . S
C707 H701 0.930 . S
C707 C703 1.380 1_565 S
C707 C706 1.385 1_655 S
C708 C706 1.478 . S
C708 C710 1.381 . S
C708 C714 1.383 1_455 S
C709 C705 1.498 1_545 S
C709 H715 0.979 . S
C709 H716 0.957 . S
C709 H717 0.942 1_545 S
C710 C708 1.381 . S
C710 C711 1.394 . S
C710 H718 0.930 . S
C711 C710 1.394 . S
C711 C712 1.383 1_455 S
C711 H719 0.929 . S
C712 C711 1.383 1_655 S
C712 C713 1.377 . S
C713 H697 0.930 . S
C713 C712 1.377 . S
C713 C714 1.379 . S
C714 H698 0.931 . S
C714 C708 1.383 1_655 S
C714 C713 1.379 . S
H715 C709 0.979 . S
H716 C709 0.957 . S
H717 C709 0.942 1_565 S
H718 C710 0.930 . S
H719 C711 0.929 . S
H720 C728 0.929 . S
H721 C730 0.930 . S
H722 C732 0.930 . S
H723 C735 0.929 . S
H724 C738 0.930 . S
H725 C740 0.960 . S
H726 C740 0.960 . S
H727 C740 0.960 . S
C728 H720 0.929 . S
C728 C729 1.377 . S
C728 C730 1.384 . S
C729 C728 1.377 . S
C729 C735 1.390 . S
C730 H721 0.930 . S
C730 C728 1.384 . S
C730 C731 1.372 . S
C731 C730 1.372 . S
C731 C732 1.400 . S
C731 C736 1.490 . S
C732 H722 0.930 . S
C732 C731 1.400 . S
C732 C735 1.386 . S
H733 C749 0.930 . S
H734 C750 0.931 . S
C735 H723 0.929 . S
C735 C729 1.390 . S
C735 C732 1.386 . S
C736 C731 1.490 . S
C736 C738 1.395 1_554 S
C736 C739 1.403 . S
H737 C743 0.930 . S
C738 H724 0.930 . S
C738 C736 1.395 1_556 S
C738 C741 1.403 . S
C739 C736 1.403 . S
C739 C740 1.524 . S
C739 C743 1.400 . S
C740 H725 0.960 . S
C740 H726 0.960 . S
C740 H727 0.960 . S
C740 C739 1.524 . S
C741 C738 1.403 . S
C741 C742 1.392 . S
C741 C745 1.495 . S
C742 C741 1.392 . S
C742 C743 1.385 1_556 S
C742 C744 1.478 . S
C743 H737 0.930 . S
C743 C739 1.400 . S
C743 C742 1.385 1_554 S
C744 C742 1.478 . S
C744 C746 1.381 . S
C744 C750 1.383 . S
C745 C741 1.495 . S
C745 H751 0.959 . S
C745 H752 0.961 . S
C745 H753 0.960 . S
C746 C744 1.381 . S
C746 C747 1.394 . S
C746 H754 0.930 . S
C747 C746 1.394 . S
C747 C748 1.383 . S
C747 H755 0.929 . S
C748 C747 1.383 . S
C748 C749 1.377 . S
C749 H733 0.930 . S
C749 C748 1.377 . S
C749 C750 1.379 . S
C750 H734 0.931 . S
C750 C744 1.383 . S
C750 C749 1.379 . S
H751 C745 0.959 . S
H752 C745 0.961 . S
H753 C745 0.960 . S
H754 C746 0.930 . S
H755 C747 0.929 . S
H756 C764 0.929 . S
H757 C766 0.930 . S
H758 C768 0.930 . S
H759 C771 0.929 . S
H760 C774 0.930 . S
H761 C776 0.960 . S
H762 C776 0.960 . S
H763 C776 0.960 . S
C764 H756 0.929 . S
C764 C765 1.377 . S
C764 C766 1.384 . S
C765 C764 1.377 . S
C765 C771 1.390 . S
C766 H757 0.930 . S
C766 C764 1.384 . S
C766 C767 1.372 . S
C767 C766 1.372 . S
C767 C768 1.400 . S
C767 C772 1.490 . S
C768 H758 0.930 . S
C768 C767 1.400 . S
C768 C771 1.386 . S
H769 C785 0.930 . S
H770 C786 0.931 . S
C771 H759 0.929 . S
C771 C765 1.390 . S
C771 C768 1.386 . S
C772 C767 1.490 . S
C772 C774 1.395 . S
C772 C775 1.403 . S
H773 C779 0.930 . S
C774 H760 0.930 . S
C774 C772 1.395 . S
C774 C777 1.403 . S
C775 C772 1.403 . S
C775 C776 1.524 . S
C775 C779 1.400 . S
C776 H761 0.960 . S
C776 H762 0.960 . S
C776 H763 0.960 . S
C776 C775 1.524 . S
C777 C774 1.403 . S
C777 C778 1.392 . S
C777 C781 1.495 . S
C778 C777 1.392 . S
C778 C779 1.385 . S
C778 C780 1.478 . S
C779 H773 0.930 . S
C779 C775 1.400 . S
C779 C778 1.385 . S
C780 C778 1.478 . S
C780 C782 1.381 . S
C780 C786 1.383 . S
C781 C777 1.495 . S
C781 H787 0.959 . S
C781 H788 0.961 . S
C781 H789 0.960 . S
C782 C780 1.381 . S
C782 C783 1.394 . S
C782 H790 0.930 . S
C783 C782 1.394 . S
C783 C784 1.383 . S
C783 H791 0.929 . S
C784 C783 1.383 . S
C784 C785 1.377 . S
C785 H769 0.930 . S
C785 C784 1.377 . S
C785 C786 1.379 . S
C786 H770 0.931 . S
C786 C780 1.383 . S
C786 C785 1.379 . S
H787 C781 0.959 . S
H788 C781 0.961 . S
H789 C781 0.960 . S
H790 C782 0.930 . S
H791 C783 0.929 . S
C225 C5 1.964 1_556 S
C244 C13 1.948 . S
C261 C59 1.971 . S
C280 C67 1.958 1_554 S
C297 C113 1.964 1_556 S
C316 C121 1.952 . S
C333 C175 1.966 1_554 S
C352 C167 1.946 . S
C369 C10 0.471 . S
C388 C27 0.494 . S
C405 C64 0.479 . S
C424 C81 0.468 . S
C441 C135 0.475 . S
C460 C118 0.451 . S
C477 C189 0.473 . S
C496 C172 0.503 . S
C513 C190 1.439 . S
C532 C35 1.413 . S
C549 C194 2.322 . S
C568 C22 2.327 . S
C585 C143 1.435 . S
C604 C82 1.411 . S
C621 C130 2.311 . S
C640 C86 2.298 . S
C657 C28 0.364 . S
C676 C89 0.377 . S
C693 C32 2.078 . S
C712 C76 2.060 . S
C729 C136 0.359 . S
C748 C197 0.326 . S
C765 C184 2.087 . S
C784 C140 2.086 . S
