# Generated by pormake.
# Topology vci, (7)-cn, num edge types: 1
# Building blocks:
#     Node 0, Type 0, BuildingBlock: NUHQUE_clean_sbu_2, # of connection points: 7
#     Node 1, Type 0, BuildingBlock: NUHQUE_clean_sbu_2, # of connection points: 7
#     Node 2, Type 0, BuildingBlock: NUHQUE_clean_sbu_2, # of connection points: 7
#     Node 3, Type 0, BuildingBlock: NUHQUE_clean_sbu_2, # of connection points: 7
#     Node 4, Type 0, BuildingBlock: NUHQUE_clean_sbu_2, # of connection points: 7
#     Node 5, Type 0, BuildingBlock: NUHQUE_clean_sbu_2, # of connection points: 7
#     Node 6, Type 0, BuildingBlock: NUHQUE_clean_sbu_2, # of connection points: 7
#     Node 7, Type 0, BuildingBlock: NUHQUE_clean_sbu_2, # of connection points: 7
#     Node 8, Type 0, BuildingBlock: NUHQUE_clean_sbu_2, # of connection points: 7
#     Node 9, Type 0, BuildingBlock: NUHQUE_clean_sbu_2, # of connection points: 7
#     Node 10, Type 0, BuildingBlock: NUHQUE_clean_sbu_2, # of connection points: 7
#     Node 11, Type 0, BuildingBlock: NUHQUE_clean_sbu_2, # of connection points: 7
#     Node 12, Type 0, BuildingBlock: NUHQUE_clean_sbu_2, # of connection points: 7
#     Node 13, Type 0, BuildingBlock: NUHQUE_clean_sbu_2, # of connection points: 7
#     Node 14, Type 0, BuildingBlock: NUHQUE_clean_sbu_2, # of connection points: 7
#     Node 15, Type 0, BuildingBlock: NUHQUE_clean_sbu_2, # of connection points: 7
#     Edge 16, Type (0, 0), None
#     Edge 17, Type (0, 0), None
#     Edge 18, Type (0, 0), None
#     Edge 19, Type (0, 0), None
#     Edge 20, Type (0, 0), None
#     Edge 21, Type (0, 0), None
#     Edge 22, Type (0, 0), None
#     Edge 23, Type (0, 0), None
#     Edge 24, Type (0, 0), None
#     Edge 25, Type (0, 0), None
#     Edge 26, Type (0, 0), None
#     Edge 27, Type (0, 0), None
#     Edge 28, Type (0, 0), None
#     Edge 29, Type (0, 0), None
#     Edge 30, Type (0, 0), None
#     Edge 31, Type (0, 0), None
#     Edge 32, Type (0, 0), None
#     Edge 33, Type (0, 0), None
#     Edge 34, Type (0, 0), None
#     Edge 35, Type (0, 0), None
#     Edge 36, Type (0, 0), None
#     Edge 37, Type (0, 0), None
#     Edge 38, Type (0, 0), None
#     Edge 39, Type (0, 0), None
#     Edge 40, Type (0, 0), None
#     Edge 41, Type (0, 0), None
#     Edge 42, Type (0, 0), None
#     Edge 43, Type (0, 0), None
#     Edge 44, Type (0, 0), None
#     Edge 45, Type (0, 0), None
#     Edge 46, Type (0, 0), None
#     Edge 47, Type (0, 0), None
#     Edge 48, Type (0, 0), None
#     Edge 49, Type (0, 0), None
#     Edge 50, Type (0, 0), None
#     Edge 51, Type (0, 0), None
#     Edge 52, Type (0, 0), None
#     Edge 53, Type (0, 0), None
#     Edge 54, Type (0, 0), None
#     Edge 55, Type (0, 0), None
#     Edge 56, Type (0, 0), None
#     Edge 57, Type (0, 0), None
#     Edge 58, Type (0, 0), None
#     Edge 59, Type (0, 0), None
#     Edge 60, Type (0, 0), None
#     Edge 61, Type (0, 0), None
#     Edge 62, Type (0, 0), None
#     Edge 63, Type (0, 0), None
#     Edge 64, Type (0, 0), None
#     Edge 65, Type (0, 0), None
#     Edge 66, Type (0, 0), None
#     Edge 67, Type (0, 0), None
#     Edge 68, Type (0, 0), None
#     Edge 69, Type (0, 0), None
#     Edge 70, Type (0, 0), None
#     Edge 71, Type (0, 0), None
# Relax obj value: 0.115
# Max RMSD: 0.201
# Mean RMSD: 0.201
data_MOF--net-vci--node1-NUHQUE_clean_sbu_2--edge1-none
_symmetry_space_group_name_H-M    P1
_symmetry_Int_Tables_number       1
_symmetry_cell_setting            triclinic
loop_
_symmetry_equiv_pos_as_xyz
'x, y, z'
_cell_length_a     22.465323
_cell_length_b     38.431494
_cell_length_c     12.466767
_cell_angle_alpha  90.344873
_cell_angle_beta   89.74907
_cell_angle_gamma 89.845006
loop_
_atom_site_label
_atom_site_type_symbol
_atom_site_fract_x
_atom_site_fract_y
_atom_site_fract_z
_atom_type_partial_charge
O0 O 0.15835 0.22823 0.21543 0.0
Tb1 Tb 0.15409 0.17448 0.2671 0.0
Eu2 Eu 0.15007 0.09735 0.03318 0.0
C3 C 0.14546 0.2544 0.28026 0.0
O4 O 0.12521 0.24826 0.37722 0.0
C5 C 0.23865 0.11748 0.2009 0.0
O6 O 0.1433 0.03923 0.01601 0.0
C7 C 0.1846 0.12606 0.85508 0.0
C8 C 0.09815 0.02394 0.96887 0.0
O9 O 0.05466 0.04268 0.92908 0.0
C10 C 0.03525 0.14214 0.15699 0.0
C11 C 0.17031 0.15437 0.77924 0.0
C12 C 0.15951 0.18854 0.81629 0.0
C13 C 0.15436 0.21618 0.74344 0.0
C14 C 0.16077 0.20942 0.63364 0.0
C15 C 0.16898 0.17546 0.5951 0.0
C16 C 0.17288 0.14782 0.66792 0.0
O17 O 0.21283 0.14551 0.16584 0.0
O18 O 0.22268 0.08877 0.15398 0.0
O19 O 0.13824 0.14952 0.42304 0.0
O20 O 0.19672 0.1926 0.4138 0.0
C21 C 0.17234 0.17026 0.47813 0.0
O22 O 0.06098 0.11856 0.09301 0.0
O23 O 0.06205 0.16468 0.22202 0.0
O24 O 0.14903 0.09896 0.85766 0.0
O25 O 0.20426 0.13534 0.95024 0.0
H26 H 0.15692 0.19378 0.90171 0.0
H27 H 0.15761 0.23066 0.57718 0.0
H28 H 0.18057 0.1216 0.63831 0.0
O29 O 0.34654 0.77893 0.71272 0.0
Tb30 Tb 0.352 0.83291 0.76383 0.0
Eu31 Eu 0.35345 0.91091 0.52993 0.0
C32 C 0.35778 0.75292 0.77819 0.0
O33 O 0.37776 0.75933 0.87509 0.0
C34 C 0.26861 0.89091 0.7028 0.0
O35 O 0.36105 0.96877 0.51217 0.0
C36 C 0.31804 0.88178 0.35275 0.0
C37 C 0.40738 0.98358 0.46725 0.0
O38 O 0.4516 0.96448 0.43045 0.0
C39 C 0.46898 0.86569 0.64611 0.0
C40 C 0.33216 0.85312 0.27681 0.0
C41 C 0.34029 0.81885 0.31355 0.0
C42 C 0.34508 0.79097 0.2405 0.0
C43 C 0.34102 0.79761 0.13052 0.0
C44 C 0.3357 0.83167 0.09238 0.0
C45 C 0.33202 0.8595 0.16561 0.0
O46 O 0.295 0.8632 0.66534 0.0
O47 O 0.28193 0.91963 0.65418 0.0
O48 O 0.37078 0.85644 0.9215 0.0
O49 O 0.30737 0.81583 0.90996 0.0
C50 C 0.33424 0.83688 0.97551 0.0
O51 O 0.44272 0.88953 0.5853 0.0
O52 O 0.44307 0.84299 0.71172 0.0
O53 O 0.35365 0.90887 0.35437 0.0
O54 O 0.29857 0.87293 0.44839 0.0
H55 H 0.34109 0.81373 0.39894 0.0
H56 H 0.34381 0.77618 0.07384 0.0
H57 H 0.32624 0.88579 0.13626 0.0
O58 O 0.16171 0.77868 0.79656 0.0
Tb59 Tb 0.15806 0.83234 0.74248 0.0
Eu60 Eu 0.1501 0.91005 0.97622 0.0
C61 C 0.15013 0.75228 0.73206 0.0
O62 O 0.13204 0.7582 0.63386 0.0
C63 C 0.23928 0.89072 0.80766 0.0
O64 O 0.14175 0.96788 1.00037 0.0
C65 C 0.18356 0.88039 0.15321 0.0
C66 C 0.09831 0.98597 0.9575 0.0
O67 O 0.05703 0.97017 0.90126 0.0
C68 C 0.03772 0.86622 0.84594 0.0
C69 C 0.17011 0.85218 0.22993 0.0
C70 C 0.1597 0.81791 0.19399 0.0
C71 C 0.15589 0.79042 0.26769 0.0
C72 C 0.16374 0.79737 0.37692 0.0
C73 C 0.17162 0.83139 0.41442 0.0
C74 C 0.17361 0.85894 0.34101 0.0
O75 O 0.2142 0.86259 0.84337 0.0
O76 O 0.22314 0.91933 0.85564 0.0
O77 O 0.14114 0.85712 0.58701 0.0
O78 O 0.20137 0.81469 0.5949 0.0
C79 C 0.1759 0.83679 0.5311 0.0
O80 O 0.06197 0.88957 0.91187 0.0
O81 O 0.06571 0.84314 0.78377 0.0
O82 O 0.14788 0.90756 0.15157 0.0
O83 O 0.2032 0.87117 0.05765 0.0
H84 H 0.15629 0.8125 0.10881 0.0
H85 H 0.16176 0.77623 0.43392 0.0
H86 H 0.18075 0.88526 0.36982 0.0
O87 O 0.34877 0.22867 0.29446 0.0
Tb88 Tb 0.35295 0.17475 0.24117 0.0
Eu89 Eu 0.35573 0.09734 0.47356 0.0
C90 C 0.3598 0.25491 0.22971 0.0
O91 O 0.37874 0.24881 0.13162 0.0
C92 C 0.26892 0.11742 0.30444 0.0
O93 O 0.36313 0.0396 0.49529 0.0
C94 C 0.32074 0.12659 0.65163 0.0
C95 C 0.40777 0.02144 0.45573 0.0
O96 O 0.4508 0.03704 0.40331 0.0
C97 C 0.47114 0.14093 0.35039 0.0
C98 C 0.33469 0.15487 0.72844 0.0
C99 C 0.34459 0.18905 0.69259 0.0
C100 C 0.34935 0.21666 0.76641 0.0
C101 C 0.34356 0.20988 0.87605 0.0
C102 C 0.33645 0.17588 0.91337 0.0
C103 C 0.33279 0.14825 0.83951 0.0
O104 O 0.29489 0.14531 0.34085 0.0
O105 O 0.28371 0.08868 0.35167 0.0
O106 O 0.36948 0.15032 0.08368 0.0
O107 O 0.30882 0.19249 0.09591 0.0
C108 C 0.33402 0.17059 0.03013 0.0
O109 O 0.44502 0.11779 0.41414 0.0
O110 O 0.44478 0.16375 0.28609 0.0
O111 O 0.35629 0.09938 0.64895 0.0
O112 O 0.30153 0.13583 0.55641 0.0
H113 H 0.34674 0.19434 0.60735 0.0
H114 H 0.34648 0.23114 0.93323 0.0
H115 H 0.32585 0.12199 0.86816 0.0
O116 O 0.8666 0.77774 0.71912 0.0
Tb117 Tb 0.85859 0.83409 0.71144 0.0
Eu118 Eu 0.85435 0.91073 0.95568 0.0
C119 C 0.84909 0.76144 0.80513 0.0
O120 O 0.82975 0.77997 0.88715 0.0
C121 C 0.76927 0.88738 0.78627 0.0
O122 O 0.86254 0.9688 0.97338 0.0
C123 C 0.81203 0.8831 0.12931 0.0
C124 C 0.90632 0.98323 0.02704 0.0
O125 O 0.94763 0.96366 0.07034 0.0
C126 C 0.97238 0.86677 0.83898 0.0
C127 C 0.82233 0.85486 0.20662 0.0
C128 C 0.821 0.8196 0.17411 0.0
C129 C 0.82542 0.79301 0.25045 0.0
C130 C 0.82942 0.80185 0.35864 0.0
C131 C 0.83049 0.83656 0.3919 0.0
C132 C 0.82824 0.86319 0.31614 0.0
O133 O 0.79835 0.85989 0.81866 0.0
O134 O 0.78403 0.91672 0.831 0.0
O135 O 0.87428 0.85968 0.5571 0.0
O136 O 0.80474 0.82252 0.57344 0.0
C137 C 0.83199 0.84305 0.50728 0.0
O138 O 0.94447 0.88822 0.90687 0.0
O139 O 0.94836 0.8468 0.76326 0.0
O140 O 0.84904 0.90954 0.13058 0.0
O141 O 0.79521 0.87399 0.03245 0.0
H142 H 0.81644 0.81285 0.09008 0.0
H143 H 0.83167 0.78144 0.41827 0.0
H144 H 0.82802 0.89011 0.34262 0.0
O145 O 0.6603 0.22718 0.2953 0.0
Tb146 Tb 0.6557 0.17341 0.24184 0.0
Eu147 Eu 0.65064 0.09466 0.47214 0.0
C148 C 0.64852 0.25342 0.23121 0.0
O149 O 0.62915 0.24735 0.13369 0.0
C150 C 0.73998 0.11659 0.30671 0.0
O151 O 0.64534 0.03607 0.48246 0.0
C152 C 0.6838 0.12332 0.65212 0.0
C153 C 0.60059 0.02011 0.529 0.0
O154 O 0.55748 0.03845 0.5731 0.0
C155 C 0.53676 0.14047 0.35017 0.0
C156 C 0.67069 0.15211 0.72866 0.0
C157 C 0.66186 0.18644 0.69242 0.0
C158 C 0.65812 0.21436 0.76592 0.0
C159 C 0.66429 0.20767 0.87547 0.0
C160 C 0.67068 0.17366 0.9133 0.0
C161 C 0.67295 0.14579 0.83991 0.0
O162 O 0.71292 0.1442 0.34312 0.0
O163 O 0.72453 0.08755 0.35154 0.0
O164 O 0.63927 0.14832 0.08553 0.0
O165 O 0.69885 0.19088 0.09475 0.0
C166 C 0.67384 0.16868 0.03026 0.0
O167 O 0.56223 0.11642 0.41171 0.0
O168 O 0.56373 0.16355 0.28764 0.0
O169 O 0.64677 0.09688 0.64791 0.0
O170 O 0.70523 0.13199 0.55773 0.0
H171 H 0.65953 0.19153 0.60713 0.0
H172 H 0.66226 0.22906 0.93242 0.0
H173 H 0.67931 0.11952 0.86899 0.0
O174 O 0.84581 0.23057 0.21756 0.0
Tb175 Tb 0.85097 0.17645 0.26786 0.0
Eu176 Eu 0.85611 0.09753 0.03014 0.0
C177 C 0.855 0.25684 0.28419 0.0
O178 O 0.87227 0.25068 0.3827 0.0
C179 C 0.77033 0.11703 0.2029 0.0
O180 O 0.8636 0.03984 1.00187 0.0
C181 C 0.82088 0.12738 0.85491 0.0
C182 C 0.9067 0.02106 0.04281 0.0
O183 O 0.94797 0.03597 0.10134 0.0
C184 C 0.96963 0.14251 0.15668 0.0
C185 C 0.8337 0.15599 0.77967 0.0
C186 C 0.84267 0.1902 0.81715 0.0
C187 C 0.84664 0.21795 0.74464 0.0
C188 C 0.84066 0.21128 0.63473 0.0
C189 C 0.83444 0.17726 0.59589 0.0
C190 C 0.83177 0.14952 0.6684 0.0
O191 O 0.79614 0.14505 0.16746 0.0
O192 O 0.78413 0.08849 0.15233 0.0
O193 O 0.87017 0.15302 0.42444 0.0
O194 O 0.80475 0.19269 0.41425 0.0
C195 C 0.83241 0.17188 0.47903 0.0
O196 O 0.94406 0.11897 0.09288 0.0
O197 O 0.9429 0.16564 0.22087 0.0
O198 O 0.85743 0.10061 0.8551 0.0
O199 O 0.80125 0.13602 0.95099 0.0
H200 H 0.84492 0.19533 0.90263 0.0
H201 H 0.84286 0.23262 0.57851 0.0
H202 H 0.82569 0.12322 0.63857 0.0
O203 O 0.65734 0.77455 0.72241 0.0
Tb204 Tb 0.65035 0.82981 0.75609 0.0
Eu205 Eu 0.65099 0.90567 0.5182 0.0
C206 C 0.67895 0.75162 0.79032 0.0
O207 O 0.70052 0.76175 0.88277 0.0
C208 C 0.73607 0.88707 0.68596 0.0
O209 O 0.64136 0.96326 0.48669 0.0
C210 C 0.68384 0.86883 0.35214 0.0
C211 C 0.60101 0.98196 0.53809 0.0
O212 O 0.56333 0.96658 0.603 0.0
C213 C 0.53445 0.86504 0.64162 0.0
C214 C 0.66595 0.84386 0.26715 0.0
C215 C 0.66289 0.80744 0.28579 0.0
C216 C 0.65345 0.78418 0.1994 0.0
C217 C 0.64488 0.79754 0.09731 0.0
C218 C 0.65094 0.83292 0.07735 0.0
C219 C 0.661 0.85616 0.1615 0.0
O220 O 0.705 0.86039 0.65428 0.0
O221 O 0.72576 0.91532 0.63312 0.0
O222 O 0.60842 0.84675 0.90594 0.0
O223 O 0.69892 0.83203 0.90615 0.0
C224 C 0.65519 0.84317 0.96562 0.0
O225 O 0.56026 0.88981 0.58347 0.0
O226 O 0.56094 0.84002 0.69699 0.0
O227 O 0.66479 0.90119 0.34563 0.0
O228 O 0.68744 0.85754 0.45089 0.0
H229 H 0.67086 0.79717 0.3652 0.0
H230 H 0.63576 0.77993 0.03139 0.0
H231 H 0.66763 0.88349 0.14396 0.0
O232 O 0.63531 0.72941 0.29037 0.0
Tb233 Tb 0.64418 0.67313 0.29924 0.0
Eu234 Eu 0.649 0.59675 0.05496 0.0
C235 C 0.65823 0.74593 0.20892 0.0
O236 O 0.68239 0.72762 0.13067 0.0
C237 C 0.73391 0.6201 0.22484 0.0
O238 O 0.64106 0.53865 0.03765 0.0
C239 C 0.69163 0.62439 0.88153 0.0
C240 C 0.59723 0.5241 0.98445 0.0
O241 O 0.55577 0.54356 0.94112 0.0
C242 C 0.53064 0.64035 0.17146 0.0
C243 C 0.68156 0.65266 0.80417 0.0
C244 C 0.68357 0.68793 0.83659 0.0
C245 C 0.67926 0.71451 0.76023 0.0
C246 C 0.67475 0.70569 0.65214 0.0
C247 C 0.6731 0.67099 0.61887 0.0
C248 C 0.67519 0.64436 0.69466 0.0
O249 O 0.70494 0.64761 0.19233 0.0
O250 O 0.71907 0.59076 0.18018 0.0
O251 O 0.62921 0.64757 0.45394 0.0
O252 O 0.69787 0.68526 0.43698 0.0
C253 C 0.67119 0.66458 0.50343 0.0
O254 O 0.55869 0.61916 0.10298 0.0
O255 O 0.55451 0.66007 0.2479 0.0
O256 O 0.65459 0.59795 0.88005 0.0
O257 O 0.70832 0.63346 0.9785 0.0
H258 H 0.68846 0.6947 0.92055 0.0
H259 H 0.67259 0.72613 0.59259 0.0
H260 H 0.67493 0.61743 0.6682 0.0
O261 O 0.84402 0.28027 0.71842 0.0
Tb262 Tb 0.84861 0.33404 0.77187 0.0
Eu263 Eu 0.85324 0.41287 0.54134 0.0
C264 C 0.85572 0.25403 0.78255 0.0
O265 O 0.87497 0.26008 0.88015 0.0
C266 C 0.76428 0.39087 0.70728 0.0
O267 O 0.85844 0.47148 0.53109 0.0
C268 C 0.81988 0.38415 0.36158 0.0
C269 C 0.90249 0.48745 0.48248 0.0
O270 O 0.94498 0.46912 0.43645 0.0
C271 C 0.96732 0.36693 0.66241 0.0
C272 C 0.83308 0.35535 0.28511 0.0
C273 C 0.8419 0.32102 0.32139 0.0
C274 C 0.84584 0.2931 0.24792 0.0
C275 C 0.83989 0.29979 0.13832 0.0
C276 C 0.8335 0.33379 0.10046 0.0
C277 C 0.83101 0.36167 0.17384 0.0
O278 O 0.79139 0.3633 0.67076 0.0
O279 O 0.77952 0.41992 0.6623 0.0
O280 O 0.86521 0.35905 0.92825 0.0
O281 O 0.80539 0.31662 0.91894 0.0
C282 C 0.8305 0.33877 0.98347 0.0
O283 O 0.94173 0.391 0.60109 0.0
O284 O 0.94048 0.34392 0.72538 0.0
O285 O 0.85678 0.41065 0.36557 0.0
O286 O 0.7986 0.37549 0.45608 0.0
H287 H 0.84408 0.31593 0.4067 0.0
H288 H 0.84207 0.2784 0.08138 0.0
H289 H 0.82466 0.38793 0.14471 0.0
O290 O 0.65854 0.27688 0.79616 0.0
Tb291 Tb 0.65344 0.33098 0.74576 0.0
Eu292 Eu 0.64758 0.40982 0.98318 0.0
C293 C 0.64898 0.25062 0.72968 0.0
O294 O 0.63142 0.2568 0.63135 0.0
C295 C 0.73392 0.39038 0.81108 0.0
O296 O 0.63993 0.46753 0.01085 0.0
C297 C 0.68272 0.38012 0.15874 0.0
C298 C 0.59691 0.48624 0.96931 0.0
O299 O 0.55577 0.47122 0.91075 0.0
C300 C 0.53441 0.36478 0.85578 0.0
C301 C 0.67016 0.35148 0.23403 0.0
C302 C 0.66127 0.31727 0.19658 0.0
C303 C 0.6576 0.28949 0.26909 0.0
C304 C 0.66385 0.29616 0.37895 0.0
C305 C 0.66999 0.33018 0.41779 0.0
C306 C 0.67231 0.35794 0.3453 0.0
O307 O 0.70826 0.3623 0.84642 0.0
O308 O 0.71972 0.41892 0.86134 0.0
O309 O 0.6347 0.3546 0.58928 0.0
O310 O 0.69948 0.31457 0.5994 0.0
C311 C 0.67215 0.33555 0.53465 0.0
O312 O 0.55978 0.38832 0.91988 0.0
O313 O 0.56137 0.34168 0.79186 0.0
O314 O 0.64586 0.40674 0.15824 0.0
O315 O 0.70261 0.37152 0.0628 0.0
H316 H 0.65883 0.31215 0.11111 0.0
H317 H 0.66188 0.27481 0.43516 0.0
H318 H 0.6783 0.38425 0.37512 0.0
O319 O 0.84577 0.73282 0.28953 0.0
Tb320 Tb 0.85301 0.67757 0.25571 0.0
Eu321 Eu 0.85194 0.60187 0.49338 0.0
C322 C 0.8262 0.7559 0.22014 0.0
O323 O 0.8073 0.7459 0.12568 0.0
C324 C 0.76695 0.62042 0.32536 0.0
O325 O 0.86217 0.54436 0.52592 0.0
C326 C 0.81943 0.63912 0.65892 0.0
C327 C 0.90182 0.5256 0.47296 0.0
O328 O 0.93845 0.5409 0.40596 0.0
C329 C 0.96867 0.64224 0.3702 0.0
C330 C 0.83798 0.66371 0.7446 0.0
C331 C 0.84204 0.70013 0.72678 0.0
C332 C 0.85292 0.72307 0.81345 0.0
C333 C 0.86218 0.7093 0.91485 0.0
C334 C 0.85433 0.67403 0.93441 0.0
C335 C 0.84271 0.65112 0.85001 0.0
O336 O 0.79793 0.64711 0.35718 0.0
O337 O 0.77719 0.59219 0.37836 0.0
O338 O 0.89577 0.66043 0.10682 0.0
O339 O 0.80529 0.67506 0.10468 0.0
C340 C 0.84935 0.66381 0.04615 0.0
O341 O 0.94281 0.61733 0.4277 0.0
O342 O 0.94222 0.66753 0.31594 0.0
O343 O 0.83684 0.60646 0.66558 0.0
O344 O 0.81724 0.65054 0.56016 0.0
H345 H 0.83388 0.71067 0.64777 0.0
H346 H 0.87286 0.72656 0.98085 0.0
H347 H 0.83492 0.62388 0.86717 0.0
O348 O 0.34605 0.27893 0.79516 0.0
Tb349 Tb 0.35029 0.3327 0.74358 0.0
Eu350 Eu 0.35365 0.40988 0.97772 0.0
C351 C 0.35868 0.25275 0.73019 0.0
O352 O 0.37871 0.25888 0.63307 0.0
C353 C 0.26556 0.38968 0.80945 0.0
O354 O 0.36022 0.468 0.99473 0.0
C355 C 0.31903 0.38113 0.15566 0.0
C356 C 0.40523 0.48335 0.0421 0.0
O357 O 0.44869 0.46468 0.08228 0.0
C358 C 0.4688 0.36513 0.85477 0.0
C359 C 0.33348 0.35282 0.23143 0.0
C360 C 0.34427 0.31866 0.19431 0.0
C361 C 0.34963 0.29103 0.26712 0.0
C362 C 0.34346 0.29779 0.37696 0.0
C363 C 0.33527 0.33174 0.41555 0.0
C364 C 0.33113 0.35938 0.34276 0.0
O365 O 0.29149 0.3617 0.84461 0.0
O366 O 0.28119 0.41841 0.85663 0.0
O367 O 0.36639 0.35756 0.58756 0.0
O368 O 0.30751 0.31467 0.5969 0.0
C369 C 0.33207 0.33693 0.53253 0.0
O370 O 0.44287 0.38869 0.91852 0.0
O371 O 0.44222 0.3426 0.78937 0.0
O372 O 0.35443 0.40831 0.15324 0.0
O373 O 0.29948 0.37183 0.06044 0.0
H374 H 0.3467 0.31342 0.10888 0.0
H375 H 0.34679 0.27655 0.4334 0.0
H376 H 0.32343 0.38559 0.37242 0.0
O377 O 0.15652 0.72825 0.2976 0.0
Tb378 Tb 0.15095 0.67425 0.24668 0.0
Eu379 Eu 0.14979 0.5962 0.4806 0.0
C380 C 0.14533 0.75424 0.23207 0.0
O381 O 0.12536 0.74783 0.13518 0.0
C382 C 0.23441 0.61624 0.30744 0.0
O383 O 0.14243 0.53834 0.49838 0.0
C384 C 0.18521 0.62535 0.65775 0.0
C385 C 0.0958 0.52344 0.54195 0.0
O386 O 0.05111 0.54245 0.57732 0.0
C387 C 0.03413 0.6415 0.36523 0.0
C388 C 0.17098 0.654 0.73364 0.0
C389 C 0.16289 0.68828 0.69685 0.0
C390 C 0.15799 0.71616 0.76985 0.0
C391 C 0.16187 0.70953 0.87986 0.0
C392 C 0.16714 0.67546 0.91805 0.0
C393 C 0.17095 0.64763 0.84485 0.0
O394 O 0.20801 0.64394 0.34499 0.0
O395 O 0.22121 0.58752 0.35615 0.0
O396 O 0.13189 0.65079 0.08901 0.0
O397 O 0.19558 0.69125 0.10046 0.0
C398 C 0.16854 0.67027 0.03494 0.0
O399 O 0.06044 0.61757 0.42566 0.0
O400 O 0.05998 0.66421 0.29957 0.0
O401 O 0.14969 0.59822 0.65616 0.0
O402 O 0.20464 0.63421 0.56208 0.0
H403 H 0.16222 0.69339 0.61145 0.0
H404 H 0.159 0.73095 0.93652 0.0
H405 H 0.17672 0.62134 0.87423 0.0
O406 O 0.34134 0.72845 0.21372 0.0
Tb407 Tb 0.34495 0.67479 0.26776 0.0
Eu408 Eu 0.35294 0.59715 0.03402 0.0
C409 C 0.35299 0.75485 0.27822 0.0
O410 O 0.37119 0.74891 0.37635 0.0
C411 C 0.26369 0.61645 0.20254 0.0
O412 O 0.36151 0.53934 0.01002 0.0
C413 C 0.31946 0.62679 0.85701 0.0
C414 C 0.40491 0.52133 0.0533 0.0
O415 O 0.44599 0.5372 0.10983 0.0
C416 C 0.46531 0.64091 0.16432 0.0
C417 C 0.33297 0.65499 0.78029 0.0
C418 C 0.34341 0.68926 0.81622 0.0
C419 C 0.34723 0.71675 0.74253 0.0
C420 C 0.33935 0.7098 0.63331 0.0
C421 C 0.33145 0.67579 0.59581 0.0
C422 C 0.32947 0.64823 0.66922 0.0
O423 O 0.28872 0.6446 0.16685 0.0
O424 O 0.27991 0.58785 0.1546 0.0
O425 O 0.36178 0.64999 0.42323 0.0
O426 O 0.30171 0.69249 0.41534 0.0
C427 C 0.32712 0.67038 0.47914 0.0
O428 O 0.4411 0.61761 0.0982 0.0
O429 O 0.43729 0.66394 0.22663 0.0
O430 O 0.35509 0.5996 0.85866 0.0
O431 O 0.29986 0.63604 0.95258 0.0
H432 H 0.34683 0.69466 0.9014 0.0
H433 H 0.34133 0.73094 0.57631 0.0
H434 H 0.32232 0.62191 0.64041 0.0
O435 O 0.15536 0.27853 0.71609 0.0
Tb436 Tb 0.15133 0.33244 0.76945 0.0
Eu437 Eu 0.14817 0.4098 0.53723 0.0
C438 C 0.14419 0.2523 0.78079 0.0
O439 O 0.12514 0.25842 0.8788 0.0
C440 C 0.23534 0.38971 0.70586 0.0
O441 O 0.14072 0.46753 0.51553 0.0
C442 C 0.183 0.38057 0.359 0.0
C443 C 0.09555 0.48559 0.55351 0.0
O444 O 0.05205 0.46988 0.60436 0.0
C445 C 0.03293 0.36637 0.66135 0.0
C446 C 0.16916 0.35229 0.28213 0.0
C447 C 0.15931 0.3181 0.31793 0.0
C448 C 0.15477 0.29049 0.24409 0.0
C449 C 0.16077 0.29727 0.13449 0.0
C450 C 0.16783 0.33128 0.0972 0.0
C451 C 0.17124 0.35891 0.17107 0.0
O452 O 0.20941 0.3618 0.66955 0.0
O453 O 0.22035 0.41845 0.65882 0.0
O454 O 0.13512 0.35696 0.92689 0.0
O455 O 0.19537 0.31459 0.91467 0.0
C456 C 0.17037 0.33658 0.98044 0.0
O457 O 0.05894 0.38945 0.59728 0.0
O458 O 0.05941 0.3435 0.72534 0.0
O459 O 0.14732 0.40773 0.36183 0.0
O460 O 0.20233 0.37134 0.45414 0.0
H461 H 0.15702 0.31282 0.40316 0.0
H462 H 0.15803 0.276 0.0773 0.0
H463 H 0.17812 0.38519 0.14246 0.0
loop_
_geom_bond_atom_site_label_1
_geom_bond_atom_site_label_2
_geom_bond_distance
_geom_bond_site_symmetry_2
_ccdc_geom_bond_type
O0 Tb1 2.292 . S
O0 C3 1.255 . S
Tb1 O0 2.292 . S
Tb1 O17 2.326 . S
Tb1 O19 2.500 . S
Tb1 O20 2.473 . S
Tb1 O23 2.324 . S
Eu2 O6 2.292 1_554 S
Eu2 C7 2.852 1_554 S
Eu2 O18 2.324 . S
Eu2 O22 2.326 . S
Eu2 O24 2.500 1_554 S
Eu2 O25 2.473 1_554 S
C3 O0 1.255 . S
C3 O4 1.247 . S
O4 C3 1.247 . S
C5 O17 1.242 . S
C5 O18 1.258 . S
O6 Eu2 2.292 1_556 S
O6 C8 1.255 1_556 S
C7 Eu2 2.852 1_556 S
C7 C11 1.503 . S
C7 O24 1.273 . S
C7 O25 1.257 . S
C8 O6 1.255 1_554 S
C8 O9 1.247 . S
O9 C8 1.247 . S
C10 O22 1.242 . S
C10 O23 1.258 . S
C11 C7 1.503 . S
C11 C12 1.379 . S
C11 C16 1.392 . S
C12 C11 1.379 . S
C12 C13 1.404 . S
C12 H26 0.929 . S
C13 C12 1.404 . S
C13 C14 1.389 . S
C14 C13 1.389 . S
C14 C15 1.399 . S
C14 H27 0.931 . S
C15 C14 1.399 . S
C15 C16 1.390 . S
C16 C11 1.392 . S
C16 C15 1.390 . S
C16 H28 0.929 . S
O17 Tb1 2.326 . S
O17 C5 1.242 . S
O18 Eu2 2.324 . S
O18 C5 1.258 . S
O19 Tb1 2.500 . S
O19 C21 1.273 . S
O20 Tb1 2.473 . S
O20 C21 1.257 . S
C21 O19 1.273 . S
C21 O20 1.257 . S
O22 Eu2 2.326 . S
O22 C10 1.242 . S
O23 Tb1 2.324 . S
O23 C10 1.258 . S
O24 Eu2 2.500 1_556 S
O24 C7 1.273 . S
O25 Eu2 2.473 1_556 S
O25 C7 1.257 . S
H26 C12 0.929 . S
H27 C14 0.931 . S
H28 C16 0.929 . S
O29 Tb30 2.292 . S
O29 C32 1.255 . S
Tb30 O29 2.292 . S
Tb30 O46 2.326 . S
Tb30 O48 2.500 . S
Tb30 O49 2.473 . S
Tb30 O52 2.324 . S
Eu31 O35 2.292 . S
Eu31 C36 2.852 . S
Eu31 O47 2.324 . S
Eu31 O51 2.326 . S
Eu31 O53 2.500 . S
Eu31 O54 2.473 . S
C32 O29 1.255 . S
C32 O33 1.247 . S
O33 C32 1.247 . S
C34 O46 1.242 . S
C34 O47 1.258 . S
O35 Eu31 2.292 . S
O35 C37 1.255 . S
C36 Eu31 2.852 . S
C36 C40 1.503 . S
C36 O53 1.273 . S
C36 O54 1.257 . S
C37 O35 1.255 . S
C37 O38 1.247 . S
O38 C37 1.247 . S
C39 O51 1.242 . S
C39 O52 1.258 . S
C40 C36 1.503 . S
C40 C41 1.379 . S
C40 C45 1.392 . S
C41 C40 1.379 . S
C41 C42 1.404 . S
C41 H55 0.929 . S
C42 C41 1.404 . S
C42 C43 1.389 . S
C43 C42 1.389 . S
C43 C44 1.399 . S
C43 H56 0.931 . S
C44 C43 1.399 . S
C44 C45 1.390 . S
C45 C40 1.392 . S
C45 C44 1.390 . S
C45 H57 0.929 . S
O46 Tb30 2.326 . S
O46 C34 1.242 . S
O47 Eu31 2.324 . S
O47 C34 1.258 . S
O48 Tb30 2.500 . S
O48 C50 1.273 . S
O49 Tb30 2.473 . S
O49 C50 1.257 . S
C50 O48 1.273 . S
C50 O49 1.257 . S
O51 Eu31 2.326 . S
O51 C39 1.242 . S
O52 Tb30 2.324 . S
O52 C39 1.258 . S
O53 Eu31 2.500 . S
O53 C36 1.273 . S
O54 Eu31 2.473 . S
O54 C36 1.257 . S
H55 C41 0.929 . S
H56 C43 0.931 . S
H57 C45 0.929 . S
O58 Tb59 2.292 . S
O58 C61 1.255 . S
Tb59 O58 2.292 . S
Tb59 O75 2.326 . S
Tb59 O77 2.500 . S
Tb59 O78 2.473 . S
Tb59 O81 2.324 . S
Eu60 O64 2.292 1_556 S
Eu60 C65 2.852 1_556 S
Eu60 O76 2.324 . S
Eu60 O80 2.326 . S
Eu60 O82 2.500 1_556 S
Eu60 O83 2.473 1_556 S
C61 O58 1.255 . S
C61 O62 1.247 . S
O62 C61 1.247 . S
C63 O75 1.242 . S
C63 O76 1.258 . S
O64 Eu60 2.292 1_554 S
O64 C66 1.255 1_554 S
C65 Eu60 2.852 1_554 S
C65 C69 1.503 . S
C65 O82 1.273 . S
C65 O83 1.257 . S
C66 O64 1.255 1_556 S
C66 O67 1.247 . S
O67 C66 1.247 . S
C68 O80 1.242 . S
C68 O81 1.258 . S
C69 C65 1.503 . S
C69 C70 1.379 . S
C69 C74 1.392 . S
C70 C69 1.379 . S
C70 C71 1.404 . S
C70 H84 0.929 . S
C71 C70 1.404 . S
C71 C72 1.389 . S
C72 C71 1.389 . S
C72 C73 1.399 . S
C72 H85 0.931 . S
C73 C72 1.399 . S
C73 C74 1.390 . S
C74 C69 1.392 . S
C74 C73 1.390 . S
C74 H86 0.929 . S
O75 Tb59 2.326 . S
O75 C63 1.242 . S
O76 Eu60 2.324 . S
O76 C63 1.258 . S
O77 Tb59 2.500 . S
O77 C79 1.273 . S
O78 Tb59 2.473 . S
O78 C79 1.257 . S
C79 O77 1.273 . S
C79 O78 1.257 . S
O80 Eu60 2.326 . S
O80 C68 1.242 . S
O81 Tb59 2.324 . S
O81 C68 1.258 . S
O82 Eu60 2.500 1_554 S
O82 C65 1.273 . S
O83 Eu60 2.473 1_554 S
O83 C65 1.257 . S
H84 C70 0.929 . S
H85 C72 0.931 . S
H86 C74 0.929 . S
O87 Tb88 2.292 . S
O87 C90 1.255 . S
Tb88 O87 2.292 . S
Tb88 O104 2.326 . S
Tb88 O106 2.500 . S
Tb88 O107 2.473 . S
Tb88 O110 2.324 . S
Eu89 O93 2.292 . S
Eu89 C94 2.852 . S
Eu89 O105 2.324 . S
Eu89 O109 2.326 . S
Eu89 O111 2.500 . S
Eu89 O112 2.473 . S
C90 O87 1.255 . S
C90 O91 1.247 . S
O91 C90 1.247 . S
C92 O104 1.242 . S
C92 O105 1.258 . S
O93 Eu89 2.292 . S
O93 C95 1.255 . S
C94 Eu89 2.852 . S
C94 C98 1.503 . S
C94 O111 1.273 . S
C94 O112 1.257 . S
C95 O93 1.255 . S
C95 O96 1.247 . S
O96 C95 1.247 . S
C97 O109 1.242 . S
C97 O110 1.258 . S
C98 C94 1.503 . S
C98 C99 1.379 . S
C98 C103 1.392 . S
C99 C98 1.379 . S
C99 C100 1.404 . S
C99 H113 0.929 . S
C100 C99 1.404 . S
C100 C101 1.389 . S
C101 C100 1.389 . S
C101 C102 1.399 . S
C101 H114 0.931 . S
C102 C101 1.399 . S
C102 C103 1.390 . S
C103 C98 1.392 . S
C103 C102 1.390 . S
C103 H115 0.929 . S
O104 Tb88 2.326 . S
O104 C92 1.242 . S
O105 Eu89 2.324 . S
O105 C92 1.258 . S
O106 Tb88 2.500 . S
O106 C108 1.273 . S
O107 Tb88 2.473 . S
O107 C108 1.257 . S
C108 O106 1.273 . S
C108 O107 1.257 . S
O109 Eu89 2.326 . S
O109 C97 1.242 . S
O110 Tb88 2.324 . S
O110 C97 1.258 . S
O111 Eu89 2.500 . S
O111 C94 1.273 . S
O112 Eu89 2.473 . S
O112 C94 1.257 . S
H113 C99 0.929 . S
H114 C101 0.931 . S
H115 C103 0.929 . S
O116 Tb117 2.292 . S
O116 C119 1.255 . S
Tb117 O116 2.292 . S
Tb117 O133 2.326 . S
Tb117 O135 2.500 . S
Tb117 O136 2.473 . S
Tb117 O139 2.324 . S
Eu118 O122 2.292 1_556 S
Eu118 C123 2.852 1_556 S
Eu118 O134 2.324 . S
Eu118 O138 2.326 . S
Eu118 O140 2.500 1_556 S
Eu118 O141 2.473 1_556 S
C119 O116 1.255 . S
C119 O120 1.247 . S
O120 C119 1.247 . S
C121 O133 1.242 . S
C121 O134 1.258 . S
O122 Eu118 2.292 1_554 S
O122 C124 1.255 1_554 S
C123 Eu118 2.852 1_554 S
C123 C127 1.503 . S
C123 O140 1.273 . S
C123 O141 1.257 . S
C124 O122 1.255 1_556 S
C124 O125 1.247 . S
O125 C124 1.247 . S
C126 O138 1.242 . S
C126 O139 1.258 . S
C127 C123 1.503 . S
C127 C128 1.379 . S
C127 C132 1.392 . S
C128 C127 1.379 . S
C128 C129 1.404 . S
C128 H142 0.929 . S
C129 C128 1.404 . S
C129 C130 1.389 . S
C130 C129 1.389 . S
C130 C131 1.399 . S
C130 H143 0.931 . S
C131 C130 1.399 . S
C131 C132 1.390 . S
C132 C127 1.392 . S
C132 C131 1.390 . S
C132 H144 0.929 . S
O133 Tb117 2.326 . S
O133 C121 1.242 . S
O134 Eu118 2.324 . S
O134 C121 1.258 . S
O135 Tb117 2.500 . S
O135 C137 1.273 . S
O136 Tb117 2.473 . S
O136 C137 1.257 . S
C137 O135 1.273 . S
C137 O136 1.257 . S
O138 Eu118 2.326 . S
O138 C126 1.242 . S
O139 Tb117 2.324 . S
O139 C126 1.258 . S
O140 Eu118 2.500 1_554 S
O140 C123 1.273 . S
O141 Eu118 2.473 1_554 S
O141 C123 1.257 . S
H142 C128 0.929 . S
H143 C130 0.931 . S
H144 C132 0.929 . S
O145 Tb146 2.292 . S
O145 C148 1.255 . S
Tb146 O145 2.292 . S
Tb146 O162 2.326 . S
Tb146 O164 2.500 . S
Tb146 O165 2.473 . S
Tb146 O168 2.324 . S
Eu147 O151 2.292 . S
Eu147 C152 2.852 . S
Eu147 O163 2.324 . S
Eu147 O167 2.326 . S
Eu147 O169 2.500 . S
Eu147 O170 2.473 . S
C148 O145 1.255 . S
C148 O149 1.247 . S
O149 C148 1.247 . S
C150 O162 1.242 . S
C150 O163 1.258 . S
O151 Eu147 2.292 . S
O151 C153 1.255 . S
C152 Eu147 2.852 . S
C152 C156 1.503 . S
C152 O169 1.273 . S
C152 O170 1.257 . S
C153 O151 1.255 . S
C153 O154 1.247 . S
O154 C153 1.247 . S
C155 O167 1.242 . S
C155 O168 1.258 . S
C156 C152 1.503 . S
C156 C157 1.379 . S
C156 C161 1.392 . S
C157 C156 1.379 . S
C157 C158 1.404 . S
C157 H171 0.929 . S
C158 C157 1.404 . S
C158 C159 1.389 . S
C159 C158 1.389 . S
C159 C160 1.399 . S
C159 H172 0.931 . S
C160 C159 1.399 . S
C160 C161 1.390 . S
C161 C156 1.392 . S
C161 C160 1.390 . S
C161 H173 0.929 . S
O162 Tb146 2.326 . S
O162 C150 1.242 . S
O163 Eu147 2.324 . S
O163 C150 1.258 . S
O164 Tb146 2.500 . S
O164 C166 1.273 . S
O165 Tb146 2.473 . S
O165 C166 1.257 . S
C166 O164 1.273 . S
C166 O165 1.257 . S
O167 Eu147 2.326 . S
O167 C155 1.242 . S
O168 Tb146 2.324 . S
O168 C155 1.258 . S
O169 Eu147 2.500 . S
O169 C152 1.273 . S
O170 Eu147 2.473 . S
O170 C152 1.257 . S
H171 C157 0.929 . S
H172 C159 0.931 . S
H173 C161 0.929 . S
O174 Tb175 2.292 . S
O174 C177 1.255 . S
Tb175 O174 2.292 . S
Tb175 O191 2.326 . S
Tb175 O193 2.500 . S
Tb175 O194 2.473 . S
Tb175 O197 2.324 . S
Eu176 O180 2.292 1_554 S
Eu176 C181 2.852 1_554 S
Eu176 O192 2.324 . S
Eu176 O196 2.326 . S
Eu176 O198 2.500 1_554 S
Eu176 O199 2.473 1_554 S
C177 O174 1.255 . S
C177 O178 1.247 . S
O178 C177 1.247 . S
C179 O191 1.242 . S
C179 O192 1.258 . S
O180 Eu176 2.292 1_556 S
O180 C182 1.255 1_556 S
C181 Eu176 2.852 1_556 S
C181 C185 1.503 . S
C181 O198 1.273 . S
C181 O199 1.257 . S
C182 O180 1.255 1_554 S
C182 O183 1.247 . S
O183 C182 1.247 . S
C184 O196 1.242 . S
C184 O197 1.258 . S
C185 C181 1.503 . S
C185 C186 1.379 . S
C185 C190 1.392 . S
C186 C185 1.379 . S
C186 C187 1.404 . S
C186 H200 0.929 . S
C187 C186 1.404 . S
C187 C188 1.389 . S
C188 C187 1.389 . S
C188 C189 1.399 . S
C188 H201 0.931 . S
C189 C188 1.399 . S
C189 C190 1.390 . S
C190 C185 1.392 . S
C190 C189 1.390 . S
C190 H202 0.929 . S
O191 Tb175 2.326 . S
O191 C179 1.242 . S
O192 Eu176 2.324 . S
O192 C179 1.258 . S
O193 Tb175 2.500 . S
O193 C195 1.273 . S
O194 Tb175 2.473 . S
O194 C195 1.257 . S
C195 O193 1.273 . S
C195 O194 1.257 . S
O196 Eu176 2.326 . S
O196 C184 1.242 . S
O197 Tb175 2.324 . S
O197 C184 1.258 . S
O198 Eu176 2.500 1_556 S
O198 C181 1.273 . S
O199 Eu176 2.473 1_556 S
O199 C181 1.257 . S
H200 C186 0.929 . S
H201 C188 0.931 . S
H202 C190 0.929 . S
O203 Tb204 2.292 . S
O203 C206 1.255 . S
Tb204 O203 2.292 . S
Tb204 O220 2.326 . S
Tb204 O222 2.500 . S
Tb204 O223 2.473 . S
Tb204 O226 2.324 . S
Eu205 O209 2.292 . S
Eu205 C210 2.852 . S
Eu205 O221 2.324 . S
Eu205 O225 2.326 . S
Eu205 O227 2.500 . S
Eu205 O228 2.473 . S
C206 O203 1.255 . S
C206 O207 1.247 . S
O207 C206 1.247 . S
C208 O220 1.242 . S
C208 O221 1.258 . S
O209 Eu205 2.292 . S
O209 C211 1.255 . S
C210 Eu205 2.852 . S
C210 C214 1.503 . S
C210 O227 1.273 . S
C210 O228 1.257 . S
C211 O209 1.255 . S
C211 O212 1.247 . S
O212 C211 1.247 . S
C213 O225 1.242 . S
C213 O226 1.258 . S
C214 C210 1.503 . S
C214 C215 1.379 . S
C214 C219 1.392 . S
C215 C214 1.379 . S
C215 C216 1.404 . S
C215 H229 0.929 . S
C216 C215 1.404 . S
C216 C217 1.389 . S
C217 C216 1.389 . S
C217 C218 1.399 . S
C217 H230 0.931 . S
C218 C217 1.399 . S
C218 C219 1.390 . S
C219 C214 1.392 . S
C219 C218 1.390 . S
C219 H231 0.929 . S
O220 Tb204 2.326 . S
O220 C208 1.242 . S
O221 Eu205 2.324 . S
O221 C208 1.258 . S
O222 Tb204 2.500 . S
O222 C224 1.273 . S
O223 Tb204 2.473 . S
O223 C224 1.257 . S
C224 O222 1.273 . S
C224 O223 1.257 . S
O225 Eu205 2.326 . S
O225 C213 1.242 . S
O226 Tb204 2.324 . S
O226 C213 1.258 . S
O227 Eu205 2.500 . S
O227 C210 1.273 . S
O228 Eu205 2.473 . S
O228 C210 1.257 . S
H229 C215 0.929 . S
H230 C217 0.931 . S
H231 C219 0.929 . S
O232 Tb233 2.292 . S
O232 C235 1.255 . S
Tb233 O232 2.292 . S
Tb233 O249 2.326 . S
Tb233 O251 2.500 . S
Tb233 O252 2.473 . S
Tb233 O255 2.324 . S
Eu234 O238 2.292 1_554 S
Eu234 C239 2.852 1_554 S
Eu234 O250 2.324 . S
Eu234 O254 2.326 . S
Eu234 O256 2.500 1_554 S
Eu234 O257 2.473 1_554 S
C235 O232 1.255 . S
C235 O236 1.247 . S
O236 C235 1.247 . S
C237 O249 1.242 . S
C237 O250 1.258 . S
O238 Eu234 2.292 1_556 S
O238 C240 1.255 1_556 S
C239 Eu234 2.852 1_556 S
C239 C243 1.503 . S
C239 O256 1.273 . S
C239 O257 1.257 . S
C240 O238 1.255 1_554 S
C240 O241 1.247 . S
O241 C240 1.247 . S
C242 O254 1.242 . S
C242 O255 1.258 . S
C243 C239 1.503 . S
C243 C244 1.379 . S
C243 C248 1.392 . S
C244 C243 1.379 . S
C244 C245 1.404 . S
C244 H258 0.929 . S
C245 C244 1.404 . S
C245 C246 1.389 . S
C246 C245 1.389 . S
C246 C247 1.399 . S
C246 H259 0.931 . S
C247 C246 1.399 . S
C247 C248 1.390 . S
C248 C243 1.392 . S
C248 C247 1.390 . S
C248 H260 0.929 . S
O249 Tb233 2.326 . S
O249 C237 1.242 . S
O250 Eu234 2.324 . S
O250 C237 1.258 . S
O251 Tb233 2.500 . S
O251 C253 1.273 . S
O252 Tb233 2.473 . S
O252 C253 1.257 . S
C253 O251 1.273 . S
C253 O252 1.257 . S
O254 Eu234 2.326 . S
O254 C242 1.242 . S
O255 Tb233 2.324 . S
O255 C242 1.258 . S
O256 Eu234 2.500 1_556 S
O256 C239 1.273 . S
O257 Eu234 2.473 1_556 S
O257 C239 1.257 . S
H258 C244 0.929 . S
H259 C246 0.931 . S
H260 C248 0.929 . S
O261 Tb262 2.292 . S
O261 C264 1.255 . S
Tb262 O261 2.292 . S
Tb262 O278 2.326 . S
Tb262 O280 2.500 . S
Tb262 O281 2.473 . S
Tb262 O284 2.324 . S
Eu263 O267 2.292 . S
Eu263 C268 2.852 . S
Eu263 O279 2.324 . S
Eu263 O283 2.326 . S
Eu263 O285 2.500 . S
Eu263 O286 2.473 . S
C264 O261 1.255 . S
C264 O265 1.247 . S
O265 C264 1.247 . S
C266 O278 1.242 . S
C266 O279 1.258 . S
O267 Eu263 2.292 . S
O267 C269 1.255 . S
C268 Eu263 2.852 . S
C268 C272 1.503 . S
C268 O285 1.273 . S
C268 O286 1.257 . S
C269 O267 1.255 . S
C269 O270 1.247 . S
O270 C269 1.247 . S
C271 O283 1.242 . S
C271 O284 1.258 . S
C272 C268 1.503 . S
C272 C273 1.379 . S
C272 C277 1.392 . S
C273 C272 1.379 . S
C273 C274 1.404 . S
C273 H287 0.929 . S
C274 C273 1.404 . S
C274 C275 1.389 . S
C275 C274 1.389 . S
C275 C276 1.399 . S
C275 H288 0.931 . S
C276 C275 1.399 . S
C276 C277 1.390 . S
C277 C272 1.392 . S
C277 C276 1.390 . S
C277 H289 0.929 . S
O278 Tb262 2.326 . S
O278 C266 1.242 . S
O279 Eu263 2.324 . S
O279 C266 1.258 . S
O280 Tb262 2.500 . S
O280 C282 1.273 . S
O281 Tb262 2.473 . S
O281 C282 1.257 . S
C282 O280 1.273 . S
C282 O281 1.257 . S
O283 Eu263 2.326 . S
O283 C271 1.242 . S
O284 Tb262 2.324 . S
O284 C271 1.258 . S
O285 Eu263 2.500 . S
O285 C268 1.273 . S
O286 Eu263 2.473 . S
O286 C268 1.257 . S
H287 C273 0.929 . S
H288 C275 0.931 . S
H289 C277 0.929 . S
O290 Tb291 2.292 . S
O290 C293 1.255 . S
Tb291 O290 2.292 . S
Tb291 O307 2.326 . S
Tb291 O309 2.500 . S
Tb291 O310 2.473 . S
Tb291 O313 2.324 . S
Eu292 O296 2.292 1_556 S
Eu292 C297 2.852 1_556 S
Eu292 O308 2.324 . S
Eu292 O312 2.326 . S
Eu292 O314 2.500 1_556 S
Eu292 O315 2.473 1_556 S
C293 O290 1.255 . S
C293 O294 1.247 . S
O294 C293 1.247 . S
C295 O307 1.242 . S
C295 O308 1.258 . S
O296 Eu292 2.292 1_554 S
O296 C298 1.255 1_554 S
C297 Eu292 2.852 1_554 S
C297 C301 1.503 . S
C297 O314 1.273 . S
C297 O315 1.257 . S
C298 O296 1.255 1_556 S
C298 O299 1.247 . S
O299 C298 1.247 . S
C300 O312 1.242 . S
C300 O313 1.258 . S
C301 C297 1.503 . S
C301 C302 1.379 . S
C301 C306 1.392 . S
C302 C301 1.379 . S
C302 C303 1.404 . S
C302 H316 0.929 . S
C303 C302 1.404 . S
C303 C304 1.389 . S
C304 C303 1.389 . S
C304 C305 1.399 . S
C304 H317 0.931 . S
C305 C304 1.399 . S
C305 C306 1.390 . S
C306 C301 1.392 . S
C306 C305 1.390 . S
C306 H318 0.929 . S
O307 Tb291 2.326 . S
O307 C295 1.242 . S
O308 Eu292 2.324 . S
O308 C295 1.258 . S
O309 Tb291 2.500 . S
O309 C311 1.273 . S
O310 Tb291 2.473 . S
O310 C311 1.257 . S
C311 O309 1.273 . S
C311 O310 1.257 . S
O312 Eu292 2.326 . S
O312 C300 1.242 . S
O313 Tb291 2.324 . S
O313 C300 1.258 . S
O314 Eu292 2.500 1_554 S
O314 C297 1.273 . S
O315 Eu292 2.473 1_554 S
O315 C297 1.257 . S
H316 C302 0.929 . S
H317 C304 0.931 . S
H318 C306 0.929 . S
O319 Tb320 2.292 . S
O319 C322 1.255 . S
Tb320 O319 2.292 . S
Tb320 O336 2.326 . S
Tb320 O338 2.500 . S
Tb320 O339 2.473 . S
Tb320 O342 2.324 . S
Eu321 O325 2.292 . S
Eu321 C326 2.852 . S
Eu321 O337 2.324 . S
Eu321 O341 2.326 . S
Eu321 O343 2.500 . S
Eu321 O344 2.473 . S
C322 O319 1.255 . S
C322 O323 1.247 . S
O323 C322 1.247 . S
C324 O336 1.242 . S
C324 O337 1.258 . S
O325 Eu321 2.292 . S
O325 C327 1.255 . S
C326 Eu321 2.852 . S
C326 C330 1.503 . S
C326 O343 1.273 . S
C326 O344 1.257 . S
C327 O325 1.255 . S
C327 O328 1.247 . S
O328 C327 1.247 . S
C329 O341 1.242 . S
C329 O342 1.258 . S
C330 C326 1.503 . S
C330 C331 1.379 . S
C330 C335 1.392 . S
C331 C330 1.379 . S
C331 C332 1.404 . S
C331 H345 0.929 . S
C332 C331 1.404 . S
C332 C333 1.389 . S
C333 C332 1.389 . S
C333 C334 1.399 . S
C333 H346 0.931 . S
C334 C333 1.399 . S
C334 C335 1.390 . S
C335 C330 1.392 . S
C335 C334 1.390 . S
C335 H347 0.929 . S
O336 Tb320 2.326 . S
O336 C324 1.242 . S
O337 Eu321 2.324 . S
O337 C324 1.258 . S
O338 Tb320 2.500 . S
O338 C340 1.273 . S
O339 Tb320 2.473 . S
O339 C340 1.257 . S
C340 O338 1.273 . S
C340 O339 1.257 . S
O341 Eu321 2.326 . S
O341 C329 1.242 . S
O342 Tb320 2.324 . S
O342 C329 1.258 . S
O343 Eu321 2.500 . S
O343 C326 1.273 . S
O344 Eu321 2.473 . S
O344 C326 1.257 . S
H345 C331 0.929 . S
H346 C333 0.931 . S
H347 C335 0.929 . S
O348 Tb349 2.292 . S
O348 C351 1.255 . S
Tb349 O348 2.292 . S
Tb349 O365 2.326 . S
Tb349 O367 2.500 . S
Tb349 O368 2.473 . S
Tb349 O371 2.324 . S
Eu350 O354 2.292 1_556 S
Eu350 C355 2.852 1_556 S
Eu350 O366 2.324 . S
Eu350 O370 2.326 . S
Eu350 O372 2.500 1_556 S
Eu350 O373 2.473 1_556 S
C351 O348 1.255 . S
C351 O352 1.247 . S
O352 C351 1.247 . S
C353 O365 1.242 . S
C353 O366 1.258 . S
O354 Eu350 2.292 1_554 S
O354 C356 1.255 1_554 S
C355 Eu350 2.852 1_554 S
C355 C359 1.503 . S
C355 O372 1.273 . S
C355 O373 1.257 . S
C356 O354 1.255 1_556 S
C356 O357 1.247 . S
O357 C356 1.247 . S
C358 O370 1.242 . S
C358 O371 1.258 . S
C359 C355 1.503 . S
C359 C360 1.379 . S
C359 C364 1.392 . S
C360 C359 1.379 . S
C360 C361 1.404 . S
C360 H374 0.929 . S
C361 C360 1.404 . S
C361 C362 1.389 . S
C362 C361 1.389 . S
C362 C363 1.399 . S
C362 H375 0.931 . S
C363 C362 1.399 . S
C363 C364 1.390 . S
C364 C359 1.392 . S
C364 C363 1.390 . S
C364 H376 0.929 . S
O365 Tb349 2.326 . S
O365 C353 1.242 . S
O366 Eu350 2.324 . S
O366 C353 1.258 . S
O367 Tb349 2.500 . S
O367 C369 1.273 . S
O368 Tb349 2.473 . S
O368 C369 1.257 . S
C369 O367 1.273 . S
C369 O368 1.257 . S
O370 Eu350 2.326 . S
O370 C358 1.242 . S
O371 Tb349 2.324 . S
O371 C358 1.258 . S
O372 Eu350 2.500 1_554 S
O372 C355 1.273 . S
O373 Eu350 2.473 1_554 S
O373 C355 1.257 . S
H374 C360 0.929 . S
H375 C362 0.931 . S
H376 C364 0.929 . S
O377 Tb378 2.292 . S
O377 C380 1.255 . S
Tb378 O377 2.292 . S
Tb378 O394 2.326 . S
Tb378 O396 2.500 . S
Tb378 O397 2.473 . S
Tb378 O400 2.324 . S
Eu379 O383 2.292 . S
Eu379 C384 2.852 . S
Eu379 O395 2.324 . S
Eu379 O399 2.326 . S
Eu379 O401 2.500 . S
Eu379 O402 2.473 . S
C380 O377 1.255 . S
C380 O381 1.247 . S
O381 C380 1.247 . S
C382 O394 1.242 . S
C382 O395 1.258 . S
O383 Eu379 2.292 . S
O383 C385 1.255 . S
C384 Eu379 2.852 . S
C384 C388 1.503 . S
C384 O401 1.273 . S
C384 O402 1.257 . S
C385 O383 1.255 . S
C385 O386 1.247 . S
O386 C385 1.247 . S
C387 O399 1.242 . S
C387 O400 1.258 . S
C388 C384 1.503 . S
C388 C389 1.379 . S
C388 C393 1.392 . S
C389 C388 1.379 . S
C389 C390 1.404 . S
C389 H403 0.929 . S
C390 C389 1.404 . S
C390 C391 1.389 . S
C391 C390 1.389 . S
C391 C392 1.399 . S
C391 H404 0.931 . S
C392 C391 1.399 . S
C392 C393 1.390 . S
C393 C388 1.392 . S
C393 C392 1.390 . S
C393 H405 0.929 . S
O394 Tb378 2.326 . S
O394 C382 1.242 . S
O395 Eu379 2.324 . S
O395 C382 1.258 . S
O396 Tb378 2.500 . S
O396 C398 1.273 . S
O397 Tb378 2.473 . S
O397 C398 1.257 . S
C398 O396 1.273 . S
C398 O397 1.257 . S
O399 Eu379 2.326 . S
O399 C387 1.242 . S
O400 Tb378 2.324 . S
O400 C387 1.258 . S
O401 Eu379 2.500 . S
O401 C384 1.273 . S
O402 Eu379 2.473 . S
O402 C384 1.257 . S
H403 C389 0.929 . S
H404 C391 0.931 . S
H405 C393 0.929 . S
O406 Tb407 2.292 . S
O406 C409 1.255 . S
Tb407 O406 2.292 . S
Tb407 O423 2.326 . S
Tb407 O425 2.500 . S
Tb407 O426 2.473 . S
Tb407 O429 2.324 . S
Eu408 O412 2.292 1_554 S
Eu408 C413 2.852 1_554 S
Eu408 O424 2.324 . S
Eu408 O428 2.326 . S
Eu408 O430 2.500 1_554 S
Eu408 O431 2.473 1_554 S
C409 O406 1.255 . S
C409 O410 1.247 . S
O410 C409 1.247 . S
C411 O423 1.242 . S
C411 O424 1.258 . S
O412 Eu408 2.292 1_556 S
O412 C414 1.255 1_556 S
C413 Eu408 2.852 1_556 S
C413 C417 1.503 . S
C413 O430 1.273 . S
C413 O431 1.257 . S
C414 O412 1.255 1_554 S
C414 O415 1.247 . S
O415 C414 1.247 . S
C416 O428 1.242 . S
C416 O429 1.258 . S
C417 C413 1.503 . S
C417 C418 1.379 . S
C417 C422 1.392 . S
C418 C417 1.379 . S
C418 C419 1.404 . S
C418 H432 0.929 . S
C419 C418 1.404 . S
C419 C420 1.389 . S
C420 C419 1.389 . S
C420 C421 1.399 . S
C420 H433 0.931 . S
C421 C420 1.399 . S
C421 C422 1.390 . S
C422 C417 1.392 . S
C422 C421 1.390 . S
C422 H434 0.929 . S
O423 Tb407 2.326 . S
O423 C411 1.242 . S
O424 Eu408 2.324 . S
O424 C411 1.258 . S
O425 Tb407 2.500 . S
O425 C427 1.273 . S
O426 Tb407 2.473 . S
O426 C427 1.257 . S
C427 O425 1.273 . S
C427 O426 1.257 . S
O428 Eu408 2.326 . S
O428 C416 1.242 . S
O429 Tb407 2.324 . S
O429 C416 1.258 . S
O430 Eu408 2.500 1_556 S
O430 C413 1.273 . S
O431 Eu408 2.473 1_556 S
O431 C413 1.257 . S
H432 C418 0.929 . S
H433 C420 0.931 . S
H434 C422 0.929 . S
O435 Tb436 2.292 . S
O435 C438 1.255 . S
Tb436 O435 2.292 . S
Tb436 O452 2.326 . S
Tb436 O454 2.500 . S
Tb436 O455 2.473 . S
Tb436 O458 2.324 . S
Eu437 O441 2.292 . S
Eu437 C442 2.852 . S
Eu437 O453 2.324 . S
Eu437 O457 2.326 . S
Eu437 O459 2.500 . S
Eu437 O460 2.473 . S
C438 O435 1.255 . S
C438 O439 1.247 . S
O439 C438 1.247 . S
C440 O452 1.242 . S
C440 O453 1.258 . S
O441 Eu437 2.292 . S
O441 C443 1.255 . S
C442 Eu437 2.852 . S
C442 C446 1.503 . S
C442 O459 1.273 . S
C442 O460 1.257 . S
C443 O441 1.255 . S
C443 O444 1.247 . S
O444 C443 1.247 . S
C445 O457 1.242 . S
C445 O458 1.258 . S
C446 C442 1.503 . S
C446 C447 1.379 . S
C446 C451 1.392 . S
C447 C446 1.379 . S
C447 C448 1.404 . S
C447 H461 0.929 . S
C448 C447 1.404 . S
C448 C449 1.389 . S
C449 C448 1.389 . S
C449 C450 1.399 . S
C449 H462 0.931 . S
C450 C449 1.399 . S
C450 C451 1.390 . S
C451 C446 1.392 . S
C451 C450 1.390 . S
C451 H463 0.929 . S
O452 Tb436 2.326 . S
O452 C440 1.242 . S
O453 Eu437 2.324 . S
O453 C440 1.258 . S
O454 Tb436 2.500 . S
O454 C456 1.273 . S
O455 Tb436 2.473 . S
O455 C456 1.257 . S
C456 O454 1.273 . S
C456 O455 1.257 . S
O457 Eu437 2.326 . S
O457 C445 1.242 . S
O458 Tb436 2.324 . S
O458 C445 1.258 . S
O459 Eu437 2.500 . S
O459 C442 1.273 . S
O460 Eu437 2.473 . S
O460 C442 1.257 . S
H461 C447 0.929 . S
H462 C449 0.931 . S
H463 C451 0.929 . S
C184 C10 1.662 1_655 S
C39 C213 1.662 . S
C126 C68 1.662 1_655 S
C155 C97 1.662 . S
C242 C416 1.662 . S
C445 C271 1.662 1_455 S
C358 C300 1.662 . S
C387 C329 1.662 1_455 S
C13 C438 2.087 . S
C42 C409 2.087 . S
C380 C71 2.087 . S
C351 C100 2.087 . S
C322 C129 2.087 . S
C293 C158 2.087 . S
C264 C187 2.087 . S
C235 C216 2.087 . S
C206 C245 2.087 . S
C274 C177 2.087 . S
C303 C148 2.087 . S
C119 C332 2.087 . S
C361 C90 2.087 . S
C61 C390 2.087 . S
C419 C32 2.087 . S
C448 C3 2.087 . S
C66 C8 1.170 1_566 S
C37 C95 1.171 1_565 S
C124 C182 1.170 1_566 S
C211 C153 1.171 1_565 S
C298 C240 1.170 1_556 S
C269 C327 1.171 . S
C414 C356 1.170 1_554 S
C443 C385 1.171 . S
C5 C92 1.320 . S
C34 C63 1.320 . S
C208 C121 1.320 . S
C150 C179 1.320 . S
C324 C237 1.320 . S
C266 C295 1.320 . S
C440 C353 1.320 . S
C411 C382 1.320 . S
C15 C21 2.406 . S
C44 C50 2.406 1_554 S
C79 C73 2.406 . S
C102 C108 2.406 1_556 S
C131 C137 2.406 . S
C160 C166 2.406 1_556 S
C189 C195 2.406 . S
C224 C218 2.406 1_556 S
C247 C253 2.406 . S
C282 C276 2.406 1_556 S
C311 C305 2.406 . S
C340 C334 2.406 1_554 S
C363 C369 2.406 . S
C398 C392 2.406 1_554 S
C421 C427 2.406 . S
C450 C456 2.406 1_554 S
