# Generated by pormake.
# Topology umr, (4)-cn, num edge types: 1
# Building blocks:
#     Node 0, Type 0, BuildingBlock: QUQFOY_clean_sbu_1, # of connection points: 4
#     Node 1, Type 0, BuildingBlock: QUQFOY_clean_sbu_1, # of connection points: 4
#     Node 2, Type 0, BuildingBlock: QUQFOY_clean_sbu_1, # of connection points: 4
#     Node 3, Type 0, BuildingBlock: QUQFOY_clean_sbu_1, # of connection points: 4
#     Node 4, Type 0, BuildingBlock: QUQFOY_clean_sbu_1, # of connection points: 4
#     Node 5, Type 0, BuildingBlock: QUQFOY_clean_sbu_1, # of connection points: 4
#     Node 6, Type 0, BuildingBlock: QUQFOY_clean_sbu_1, # of connection points: 4
#     Node 7, Type 0, BuildingBlock: QUQFOY_clean_sbu_1, # of connection points: 4
#     Node 8, Type 0, BuildingBlock: QUQFOY_clean_sbu_1, # of connection points: 4
#     Node 9, Type 0, BuildingBlock: QUQFOY_clean_sbu_1, # of connection points: 4
#     Node 10, Type 0, BuildingBlock: QUQFOY_clean_sbu_1, # of connection points: 4
#     Node 11, Type 0, BuildingBlock: QUQFOY_clean_sbu_1, # of connection points: 4
#     Node 12, Type 0, BuildingBlock: QUQFOY_clean_sbu_1, # of connection points: 4
#     Node 13, Type 0, BuildingBlock: QUQFOY_clean_sbu_1, # of connection points: 4
#     Node 14, Type 0, BuildingBlock: QUQFOY_clean_sbu_1, # of connection points: 4
#     Node 15, Type 0, BuildingBlock: QUQFOY_clean_sbu_1, # of connection points: 4
#     Node 16, Type 0, BuildingBlock: QUQFOY_clean_sbu_1, # of connection points: 4
#     Node 17, Type 0, BuildingBlock: QUQFOY_clean_sbu_1, # of connection points: 4
#     Node 18, Type 0, BuildingBlock: QUQFOY_clean_sbu_1, # of connection points: 4
#     Node 19, Type 0, BuildingBlock: QUQFOY_clean_sbu_1, # of connection points: 4
#     Node 20, Type 0, BuildingBlock: QUQFOY_clean_sbu_1, # of connection points: 4
#     Node 21, Type 0, BuildingBlock: QUQFOY_clean_sbu_1, # of connection points: 4
#     Node 22, Type 0, BuildingBlock: QUQFOY_clean_sbu_1, # of connection points: 4
#     Node 23, Type 0, BuildingBlock: QUQFOY_clean_sbu_1, # of connection points: 4
#     Node 24, Type 0, BuildingBlock: QUQFOY_clean_sbu_1, # of connection points: 4
#     Node 25, Type 0, BuildingBlock: QUQFOY_clean_sbu_1, # of connection points: 4
#     Node 26, Type 0, BuildingBlock: QUQFOY_clean_sbu_1, # of connection points: 4
#     Node 27, Type 0, BuildingBlock: QUQFOY_clean_sbu_1, # of connection points: 4
#     Node 28, Type 0, BuildingBlock: QUQFOY_clean_sbu_1, # of connection points: 4
#     Node 29, Type 0, BuildingBlock: QUQFOY_clean_sbu_1, # of connection points: 4
#     Node 30, Type 0, BuildingBlock: QUQFOY_clean_sbu_1, # of connection points: 4
#     Node 31, Type 0, BuildingBlock: QUQFOY_clean_sbu_1, # of connection points: 4
#     Edge 32, Type (0, 0), BuildingBlock: UVAHIK_clean_linker_0, # of connection points: 2
#     Edge 33, Type (0, 0), BuildingBlock: UVAHIK_clean_linker_0, # of connection points: 2
#     Edge 34, Type (0, 0), BuildingBlock: UVAHIK_clean_linker_0, # of connection points: 2
#     Edge 35, Type (0, 0), BuildingBlock: UVAHIK_clean_linker_0, # of connection points: 2
#     Edge 36, Type (0, 0), BuildingBlock: UVAHIK_clean_linker_0, # of connection points: 2
#     Edge 37, Type (0, 0), BuildingBlock: UVAHIK_clean_linker_0, # of connection points: 2
#     Edge 38, Type (0, 0), BuildingBlock: UVAHIK_clean_linker_0, # of connection points: 2
#     Edge 39, Type (0, 0), BuildingBlock: UVAHIK_clean_linker_0, # of connection points: 2
#     Edge 40, Type (0, 0), BuildingBlock: UVAHIK_clean_linker_0, # of connection points: 2
#     Edge 41, Type (0, 0), BuildingBlock: UVAHIK_clean_linker_0, # of connection points: 2
#     Edge 42, Type (0, 0), BuildingBlock: UVAHIK_clean_linker_0, # of connection points: 2
#     Edge 43, Type (0, 0), BuildingBlock: UVAHIK_clean_linker_0, # of connection points: 2
#     Edge 44, Type (0, 0), BuildingBlock: UVAHIK_clean_linker_0, # of connection points: 2
#     Edge 45, Type (0, 0), BuildingBlock: UVAHIK_clean_linker_0, # of connection points: 2
#     Edge 46, Type (0, 0), BuildingBlock: UVAHIK_clean_linker_0, # of connection points: 2
#     Edge 47, Type (0, 0), BuildingBlock: UVAHIK_clean_linker_0, # of connection points: 2
#     Edge 48, Type (0, 0), BuildingBlock: UVAHIK_clean_linker_0, # of connection points: 2
#     Edge 49, Type (0, 0), BuildingBlock: UVAHIK_clean_linker_0, # of connection points: 2
#     Edge 50, Type (0, 0), BuildingBlock: UVAHIK_clean_linker_0, # of connection points: 2
#     Edge 51, Type (0, 0), BuildingBlock: UVAHIK_clean_linker_0, # of connection points: 2
#     Edge 52, Type (0, 0), BuildingBlock: UVAHIK_clean_linker_0, # of connection points: 2
#     Edge 53, Type (0, 0), BuildingBlock: UVAHIK_clean_linker_0, # of connection points: 2
#     Edge 54, Type (0, 0), BuildingBlock: UVAHIK_clean_linker_0, # of connection points: 2
#     Edge 55, Type (0, 0), BuildingBlock: UVAHIK_clean_linker_0, # of connection points: 2
#     Edge 56, Type (0, 0), BuildingBlock: UVAHIK_clean_linker_0, # of connection points: 2
#     Edge 57, Type (0, 0), BuildingBlock: UVAHIK_clean_linker_0, # of connection points: 2
#     Edge 58, Type (0, 0), BuildingBlock: UVAHIK_clean_linker_0, # of connection points: 2
#     Edge 59, Type (0, 0), BuildingBlock: UVAHIK_clean_linker_0, # of connection points: 2
#     Edge 60, Type (0, 0), BuildingBlock: UVAHIK_clean_linker_0, # of connection points: 2
#     Edge 61, Type (0, 0), BuildingBlock: UVAHIK_clean_linker_0, # of connection points: 2
#     Edge 62, Type (0, 0), BuildingBlock: UVAHIK_clean_linker_0, # of connection points: 2
#     Edge 63, Type (0, 0), BuildingBlock: UVAHIK_clean_linker_0, # of connection points: 2
#     Edge 64, Type (0, 0), BuildingBlock: UVAHIK_clean_linker_0, # of connection points: 2
#     Edge 65, Type (0, 0), BuildingBlock: UVAHIK_clean_linker_0, # of connection points: 2
#     Edge 66, Type (0, 0), BuildingBlock: UVAHIK_clean_linker_0, # of connection points: 2
#     Edge 67, Type (0, 0), BuildingBlock: UVAHIK_clean_linker_0, # of connection points: 2
#     Edge 68, Type (0, 0), BuildingBlock: UVAHIK_clean_linker_0, # of connection points: 2
#     Edge 69, Type (0, 0), BuildingBlock: UVAHIK_clean_linker_0, # of connection points: 2
#     Edge 70, Type (0, 0), BuildingBlock: UVAHIK_clean_linker_0, # of connection points: 2
#     Edge 71, Type (0, 0), BuildingBlock: UVAHIK_clean_linker_0, # of connection points: 2
#     Edge 72, Type (0, 0), BuildingBlock: UVAHIK_clean_linker_0, # of connection points: 2
#     Edge 73, Type (0, 0), BuildingBlock: UVAHIK_clean_linker_0, # of connection points: 2
#     Edge 74, Type (0, 0), BuildingBlock: UVAHIK_clean_linker_0, # of connection points: 2
#     Edge 75, Type (0, 0), BuildingBlock: UVAHIK_clean_linker_0, # of connection points: 2
#     Edge 76, Type (0, 0), BuildingBlock: UVAHIK_clean_linker_0, # of connection points: 2
#     Edge 77, Type (0, 0), BuildingBlock: UVAHIK_clean_linker_0, # of connection points: 2
#     Edge 78, Type (0, 0), BuildingBlock: UVAHIK_clean_linker_0, # of connection points: 2
#     Edge 79, Type (0, 0), BuildingBlock: UVAHIK_clean_linker_0, # of connection points: 2
#     Edge 80, Type (0, 0), BuildingBlock: UVAHIK_clean_linker_0, # of connection points: 2
#     Edge 81, Type (0, 0), BuildingBlock: UVAHIK_clean_linker_0, # of connection points: 2
#     Edge 82, Type (0, 0), BuildingBlock: UVAHIK_clean_linker_0, # of connection points: 2
#     Edge 83, Type (0, 0), BuildingBlock: UVAHIK_clean_linker_0, # of connection points: 2
#     Edge 84, Type (0, 0), BuildingBlock: UVAHIK_clean_linker_0, # of connection points: 2
#     Edge 85, Type (0, 0), BuildingBlock: UVAHIK_clean_linker_0, # of connection points: 2
#     Edge 86, Type (0, 0), BuildingBlock: UVAHIK_clean_linker_0, # of connection points: 2
#     Edge 87, Type (0, 0), BuildingBlock: UVAHIK_clean_linker_0, # of connection points: 2
#     Edge 88, Type (0, 0), BuildingBlock: UVAHIK_clean_linker_0, # of connection points: 2
#     Edge 89, Type (0, 0), BuildingBlock: UVAHIK_clean_linker_0, # of connection points: 2
#     Edge 90, Type (0, 0), BuildingBlock: UVAHIK_clean_linker_0, # of connection points: 2
#     Edge 91, Type (0, 0), BuildingBlock: UVAHIK_clean_linker_0, # of connection points: 2
#     Edge 92, Type (0, 0), BuildingBlock: UVAHIK_clean_linker_0, # of connection points: 2
#     Edge 93, Type (0, 0), BuildingBlock: UVAHIK_clean_linker_0, # of connection points: 2
#     Edge 94, Type (0, 0), BuildingBlock: UVAHIK_clean_linker_0, # of connection points: 2
#     Edge 95, Type (0, 0), BuildingBlock: UVAHIK_clean_linker_0, # of connection points: 2
# Relax obj value: 0.052
# Max RMSD: 0.111
# Mean RMSD: 0.111
data_MOF--net-umr--node1-QUQFOY_clean_sbu_1--edge1-UVAHIK_clean_linker_0
_symmetry_space_group_name_H-M    P1
_symmetry_Int_Tables_number       1
_symmetry_cell_setting            triclinic
loop_
_symmetry_equiv_pos_as_xyz
'x, y, z'
_cell_length_a     109.72355
_cell_length_b     109.7117
_cell_length_c     36.328885
_cell_angle_alpha  90.005795
_cell_angle_beta   90.00525
_cell_angle_gamma 90.010184
loop_
_atom_site_label
_atom_site_type_symbol
_atom_site_fract_x
_atom_site_fract_y
_atom_site_fract_z
_atom_type_partial_charge
O0 O 0.16427 0.28748 0.1615 0.0
Cd1 Cd 0.16745 0.29627 0.11213 0.0
Cd2 Cd 0.16595 0.27315 0.0873 0.0
O3 O 0.15938 0.26946 0.13925 0.0
O4 O 0.16427 0.31368 0.12379 0.0
O5 O 0.15279 0.30292 0.08568 0.0
C6 C 0.15478 0.31303 0.10297 0.0
C7 C 0.15624 0.26571 0.03497 0.0
C8 C 0.1603 0.27672 0.16634 0.0
C9 C 0.19001 0.28578 0.07899 0.0
O10 O 0.18442 0.27565 0.08007 0.0
O11 O 0.18456 0.29554 0.0882 0.0
O12 O 0.16212 0.2586 0.05695 0.0
O13 O 0.15531 0.27709 0.04379 0.0
O14 O 0.96298 0.91298 0.40746 0.0
Cd15 Cd 0.95381 0.91617 0.35873 0.0
Cd16 Cd 0.97672 0.91486 0.33269 0.0
O17 O 0.98101 0.90853 0.38447 0.0
O18 O 0.93651 0.91299 0.37176 0.0
O19 O 0.9469 0.90152 0.33275 0.0
C20 C 0.93695 0.90352 0.35083 0.0
C21 C 0.98296 0.90471 0.27979 0.0
C22 C 0.97386 0.90928 0.41185 0.0
C23 C 0.96393 0.93883 0.32496 0.0
O24 O 0.9741 0.93329 0.32516 0.0
O25 O 0.95428 0.93332 0.33498 0.0
O26 O 0.99057 0.9107 0.29993 0.0
O27 O 0.97178 0.90395 0.29085 0.0
O28 O 0.33484 0.71294 0.66129 0.0
Cd29 Cd 0.33174 0.70402 0.61211 0.0
Cd30 Cd 0.33299 0.72714 0.58685 0.0
O31 O 0.33949 0.73099 0.6388 0.0
O32 O 0.33498 0.68665 0.62424 0.0
O33 O 0.34644 0.69734 0.5859 0.0
C34 C 0.34448 0.68727 0.60342 0.0
C35 C 0.34263 0.73466 0.5345 0.0
C36 C 0.33866 0.72376 0.66599 0.0
C37 C 0.30908 0.71421 0.57868 0.0
O38 O 0.31456 0.72441 0.57954 0.0
O39 O 0.31462 0.70453 0.58815 0.0
O40 O 0.33665 0.74171 0.5564 0.0
O41 O 0.34371 0.7233 0.54341 0.0
O42 O 0.53543 0.08237 0.91263 0.0
Cd43 Cd 0.54541 0.08056 0.86488 0.0
Cd44 Cd 0.52349 0.08378 0.83454 0.0
O45 O 0.51932 0.09052 0.8862 0.0
O46 O 0.56251 0.08398 0.87963 0.0
O47 O 0.55196 0.09588 0.84208 0.0
C48 C 0.56187 0.09383 0.86035 0.0
C49 C 0.51655 0.09377 0.78197 0.0
C50 C 0.52523 0.08779 0.9151 0.0
C51 C 0.53534 0.05923 0.8259 0.0
O52 O 0.52541 0.06518 0.82643 0.0
O53 O 0.54512 0.06417 0.83725 0.0
O54 O 0.50921 0.088 0.80351 0.0
O55 O 0.52789 0.09443 0.79131 0.0
O56 O 0.16279 0.71407 0.34006 0.0
Cd57 Cd 0.16571 0.70471 0.38858 0.0
Cd58 Cd 0.16416 0.72761 0.41533 0.0
O59 O 0.1582 0.73205 0.36324 0.0
O60 O 0.16269 0.68747 0.3744 0.0
O61 O 0.15099 0.69754 0.41357 0.0
C62 C 0.15312 0.68773 0.39497 0.0
C63 C 0.15373 0.73392 0.46768 0.0
C64 C 0.15912 0.72497 0.33572 0.0
C65 C 0.18807 0.71475 0.42439 0.0
O66 O 0.18251 0.72491 0.42416 0.0
O67 O 0.18269 0.70514 0.41349 0.0
O68 O 0.15988 0.74149 0.44787 0.0
O69 O 0.15295 0.72276 0.45654 0.0
O70 O 0.53654 0.91319 0.58375 0.0
Cd71 Cd 0.54533 0.91635 0.63312 0.0
Cd72 Cd 0.52216 0.91475 0.65783 0.0
O73 O 0.51849 0.90828 0.60577 0.0
O74 O 0.56276 0.91349 0.62102 0.0
O75 O 0.55229 0.90173 0.65907 0.0
C76 C 0.56232 0.90394 0.64164 0.0
C77 C 0.51482 0.90491 0.71001 0.0
C78 C 0.52577 0.90924 0.57877 0.0
C79 C 0.5347 0.9388 0.66684 0.0
O80 O 0.52457 0.9332 0.6655 0.0
O81 O 0.54447 0.93339 0.65755 0.0
O82 O 0.50766 0.91077 0.68814 0.0
O83 O 0.5262 0.90405 0.70111 0.0
O84 O 0.33556 0.28334 0.83833 0.0
Cd85 Cd 0.33309 0.29305 0.88647 0.0
Cd86 Cd 0.33491 0.27088 0.9161 0.0
O87 O 0.34106 0.26609 0.8645 0.0
O88 O 0.33689 0.3103 0.87407 0.0
O89 O 0.34842 0.29898 0.91068 0.0
C90 C 0.34663 0.30917 0.89366 0.0
C91 C 0.34543 0.26522 0.96897 0.0
C92 C 0.33972 0.27255 0.83579 0.0
C93 C 0.31094 0.2835 0.92433 0.0
O94 O 0.31651 0.27335 0.92468 0.0
O95 O 0.3163 0.29301 0.91255 0.0
O96 O 0.33942 0.25737 0.94976 0.0
O97 O 0.346 0.2763 0.95698 0.0
O98 O 0.96317 0.08578 0.09105 0.0
Cd99 Cd 0.95403 0.08284 0.13994 0.0
Cd100 Cd 0.97688 0.08443 0.16605 0.0
O101 O 0.98118 0.0904 0.1139 0.0
O102 O 0.9367 0.08597 0.12701 0.0
O103 O 0.94718 0.09761 0.1654 0.0
C104 C 0.93719 0.09553 0.14758 0.0
C105 C 0.98298 0.09503 0.21828 0.0
C106 C 0.97405 0.08947 0.08652 0.0
C107 C 0.96418 0.06047 0.17533 0.0
O108 O 0.97432 0.06605 0.17495 0.0
O109 O 0.95454 0.06585 0.16468 0.0
O110 O 0.99066 0.08894 0.19866 0.0
O111 O 0.97182 0.09563 0.20703 0.0
O112 O 0.83554 0.71498 0.83849 0.0
Cd113 Cd 0.83274 0.70521 0.88634 0.0
Cd114 Cd 0.835 0.72718 0.91657 0.0
O115 O 0.84138 0.73203 0.86525 0.0
O116 O 0.83645 0.68793 0.87404 0.0
O117 O 0.84792 0.69917 0.91105 0.0
C118 C 0.84613 0.689 0.89392 0.0
C119 C 0.8456 0.73218 0.96994 0.0
C120 C 0.83994 0.72568 0.83632 0.0
C121 C 0.8107 0.71514 0.92364 0.0
O122 O 0.81651 0.72514 0.92452 0.0
O123 O 0.81587 0.70553 0.91183 0.0
O124 O 0.83987 0.74034 0.95111 0.0
O125 O 0.84583 0.72117 0.95733 0.0
O126 O 0.03527 0.08546 0.58612 0.0
Cd127 Cd 0.04476 0.08275 0.63455 0.0
Cd128 Cd 0.02254 0.08462 0.66364 0.0
O129 O 0.01817 0.09135 0.61237 0.0
O130 O 0.06205 0.08664 0.62306 0.0
O131 O 0.05052 0.098 0.6596 0.0
C132 C 0.06078 0.09631 0.64288 0.0
C133 C 0.01588 0.09439 0.71682 0.0
C134 C 0.02462 0.08994 0.58365 0.0
C135 C 0.03491 0.06045 0.67046 0.0
O136 O 0.0248 0.06609 0.6705 0.0
O137 O 0.04454 0.06583 0.65981 0.0
O138 O 0.00843 0.08863 0.69558 0.0
O139 O 0.02717 0.09514 0.70685 0.0
O140 O 0.66636 0.28595 0.33738 0.0
Cd141 Cd 0.66991 0.29596 0.38434 0.0
Cd142 Cd 0.66759 0.2738 0.41576 0.0
O143 O 0.66067 0.26901 0.36502 0.0
O144 O 0.66672 0.3131 0.3695 0.0
O145 O 0.6554 0.30317 0.41005 0.0
C146 C 0.65732 0.31289 0.3908 0.0
C147 C 0.65782 0.26746 0.46935 0.0
C148 C 0.66184 0.27529 0.33586 0.0
C149 C 0.69212 0.28582 0.42032 0.0
O150 O 0.68615 0.27591 0.42217 0.0
O151 O 0.68703 0.29544 0.4083 0.0
O152 O 0.66355 0.25989 0.44847 0.0
O153 O 0.65713 0.2787 0.45891 0.0
O154 O 0.46227 0.91572 0.0846 0.0
Cd155 Cd 0.45393 0.91798 0.13509 0.0
Cd156 Cd 0.47679 0.91613 0.15889 0.0
O157 O 0.48016 0.91007 0.10617 0.0
O158 O 0.43644 0.9141 0.12683 0.0
O159 O 0.44878 0.90251 0.16011 0.0
C160 C 0.43817 0.90427 0.1456 0.0
C161 C 0.48386 0.90562 0.21017 0.0
C162 C 0.47293 0.91155 0.07922 0.0
C163 C 0.46448 0.94011 0.17044 0.0
O164 O 0.47461 0.93455 0.16806 0.0
O165 O 0.45467 0.93473 0.16131 0.0
O166 O 0.49118 0.91153 0.1889 0.0
O167 O 0.47248 0.90513 0.20116 0.0
O168 O 0.84032 0.28472 0.65623 0.0
Cd169 Cd 0.83589 0.29435 0.60909 0.0
Cd170 Cd 0.83725 0.27167 0.58038 0.0
O171 O 0.84348 0.26663 0.63149 0.0
O172 O 0.83825 0.3116 0.62435 0.0
O173 O 0.84985 0.30247 0.58288 0.0
C174 C 0.84753 0.312 0.6026 0.0
C175 C 0.848 0.26761 0.52689 0.0
C176 C 0.84356 0.27365 0.65925 0.0
C177 C 0.81315 0.28387 0.57451 0.0
O178 O 0.81882 0.27379 0.57288 0.0
O179 O 0.81853 0.2934 0.5862 0.0
O180 O 0.8427 0.25901 0.54504 0.0
O181 O 0.84771 0.27854 0.54013 0.0
O182 O 0.46308 0.08603 0.40815 0.0
Cd183 Cd 0.45441 0.08368 0.35824 0.0
Cd184 Cd 0.47701 0.0856 0.33317 0.0
O185 O 0.48077 0.09185 0.38551 0.0
O186 O 0.43688 0.08723 0.36769 0.0
O187 O 0.44877 0.09908 0.33378 0.0
C188 C 0.4383 0.0971 0.34891 0.0
C189 C 0.48209 0.09639 0.28044 0.0
C190 C 0.47375 0.09029 0.41291 0.0
C191 C 0.46504 0.06155 0.32264 0.0
O192 O 0.47518 0.06711 0.3247 0.0
O193 O 0.45525 0.06695 0.33191 0.0
O194 O 0.49035 0.0912 0.30023 0.0
O195 O 0.47093 0.09603 0.29175 0.0
O196 O 0.66414 0.71386 0.15656 0.0
Cd197 Cd 0.66642 0.70508 0.10673 0.0
Cd198 Cd 0.66494 0.72782 0.08188 0.0
O199 O 0.65898 0.73181 0.13428 0.0
O200 O 0.66273 0.68764 0.11685 0.0
O201 O 0.651 0.69943 0.08228 0.0
C202 C 0.6529 0.68901 0.09786 0.0
C203 C 0.65427 0.73381 0.02969 0.0
C204 C 0.66027 0.72466 0.16151 0.0
C205 C 0.68875 0.71518 0.0713 0.0
O206 O 0.68333 0.72539 0.07304 0.0
O207 O 0.68322 0.70549 0.08076 0.0
O208 O 0.66023 0.74157 0.04937 0.0
O209 O 0.65381 0.72264 0.04091 0.0
O210 O 0.03539 0.91485 0.91084 0.0
Cd211 Cd 0.04479 0.91739 0.86217 0.0
Cd212 Cd 0.02256 0.91523 0.83324 0.0
O213 O 0.01826 0.90883 0.88497 0.0
O214 O 0.06212 0.91355 0.8732 0.0
O215 O 0.05045 0.90206 0.83743 0.0
C216 C 0.06079 0.90382 0.85367 0.0
C217 C 0.01591 0.90505 0.78075 0.0
C218 C 0.02474 0.91037 0.91358 0.0
C219 C 0.03481 0.93941 0.82494 0.0
O220 O 0.02473 0.9337 0.8251 0.0
O221 O 0.04445 0.93417 0.8361 0.0
O222 O 0.00845 0.9109 0.80168 0.0
O223 O 0.0272 0.90443 0.79067 0.0
O224 O 0.66487 0.78564 0.66261 0.0
Cd225 Cd 0.6682 0.7955 0.61524 0.0
Cd226 Cd 0.6658 0.7732 0.5847 0.0
O227 O 0.65901 0.76863 0.63572 0.0
O228 O 0.66507 0.81267 0.62985 0.0
O229 O 0.65359 0.80266 0.58988 0.0
C230 C 0.65559 0.81242 0.60887 0.0
C231 C 0.65605 0.76649 0.5315 0.0
C232 C 0.66032 0.77501 0.66463 0.0
C233 C 0.69027 0.78528 0.57879 0.0
O234 O 0.68433 0.77534 0.57776 0.0
O235 O 0.68519 0.79495 0.5905 0.0
O236 O 0.66182 0.75908 0.55276 0.0
O237 O 0.65527 0.77778 0.54142 0.0
O238 O 0.46102 0.41525 0.90419 0.0
Cd239 Cd 0.45232 0.41678 0.85392 0.0
Cd240 Cd 0.47526 0.41535 0.82949 0.0
O241 O 0.47905 0.41002 0.88266 0.0
O242 O 0.435 0.41253 0.8635 0.0
O243 O 0.44741 0.40097 0.83037 0.0
C244 C 0.43684 0.4026 0.8453 0.0
C245 C 0.4835 0.40511 0.77919 0.0
C246 C 0.47185 0.41154 0.90966 0.0
C247 C 0.46193 0.43886 0.81668 0.0
O248 O 0.47218 0.43354 0.81891 0.0
O249 O 0.45229 0.43335 0.82662 0.0
O250 O 0.49011 0.41192 0.80011 0.0
O251 O 0.47222 0.40349 0.78816 0.0
O252 O 0.83337 0.21452 0.1608 0.0
Cd253 Cd 0.83122 0.204 0.11419 0.0
Cd254 Cd 0.83385 0.226 0.08192 0.0
O255 O 0.84046 0.23091 0.13306 0.0
O256 O 0.8347 0.18711 0.13085 0.0
O257 O 0.84632 0.19704 0.09107 0.0
C258 C 0.84437 0.18741 0.1107 0.0
C259 C 0.84325 0.23341 0.0289 0.0
C260 C 0.83827 0.225 0.16239 0.0
C261 C 0.80945 0.21333 0.07585 0.0
O262 O 0.81534 0.2233 0.07456 0.0
O263 O 0.81453 0.20376 0.08818 0.0
O264 O 0.83685 0.24034 0.04997 0.0
O265 O 0.84491 0.22224 0.03899 0.0
O266 O 0.03574 0.58239 0.41078 0.0
Cd267 Cd 0.04579 0.58067 0.3631 0.0
Cd268 Cd 0.02391 0.58407 0.33257 0.0
O269 O 0.01971 0.59068 0.38433 0.0
O270 O 0.06285 0.58417 0.37811 0.0
O271 O 0.0523 0.59604 0.34044 0.0
C272 C 0.06218 0.59404 0.35887 0.0
C273 C 0.01696 0.59421 0.28029 0.0
C274 C 0.02557 0.58785 0.41324 0.0
C275 C 0.03572 0.55951 0.32329 0.0
O276 O 0.0258 0.56549 0.32396 0.0
O277 O 0.0455 0.56437 0.33493 0.0
O278 O 0.00963 0.58838 0.30167 0.0
O279 O 0.02831 0.59484 0.28962 0.0
O280 O 0.66234 0.21419 0.84347 0.0
Cd281 Cd 0.66519 0.20478 0.89198 0.0
Cd282 Cd 0.66382 0.22758 0.91872 0.0
O283 O 0.65781 0.23216 0.86679 0.0
O284 O 0.66217 0.18754 0.87786 0.0
O285 O 0.65044 0.19764 0.91685 0.0
C286 C 0.6526 0.1878 0.8984 0.0
C287 C 0.65346 0.23354 0.97156 0.0
C288 C 0.65873 0.22511 0.83921 0.0
C289 C 0.68768 0.21471 0.92728 0.0
O290 O 0.68219 0.22491 0.92701 0.0
O291 O 0.68218 0.20512 0.91675 0.0
O292 O 0.65949 0.24126 0.95195 0.0
O293 O 0.65274 0.22242 0.95991 0.0
O294 O 0.034 0.41294 0.08234 0.0
Cd295 Cd 0.04416 0.41669 0.12887 0.0
Cd296 Cd 0.02195 0.41476 0.16053 0.0
O297 O 0.01695 0.40774 0.11017 0.0
O298 O 0.06123 0.41368 0.11304 0.0
O299 O 0.05178 0.40237 0.1546 0.0
C300 C 0.06133 0.40438 0.1347 0.0
C301 C 0.01574 0.40526 0.21464 0.0
C302 C 0.02326 0.40864 0.081 0.0
C303 C 0.0342 0.43917 0.16407 0.0
O304 O 0.02422 0.43333 0.16626 0.0
O305 O 0.04374 0.43391 0.15215 0.0
O306 O 0.00814 0.41095 0.19376 0.0
O307 O 0.02694 0.40445 0.20387 0.0
O308 O 0.83651 0.78299 0.33733 0.0
Cd309 Cd 0.83305 0.79327 0.38384 0.0
Cd310 Cd 0.83488 0.77112 0.4155 0.0
O311 O 0.84149 0.76582 0.36489 0.0
O312 O 0.83606 0.81029 0.36742 0.0
O313 O 0.84755 0.80089 0.40869 0.0
C314 C 0.84548 0.81041 0.38864 0.0
C315 C 0.84501 0.76582 0.46941 0.0
C316 C 0.84059 0.77216 0.33577 0.0
C317 C 0.81066 0.7836 0.42033 0.0
O318 O 0.8164 0.77357 0.42242 0.0
O319 O 0.81594 0.79306 0.4079 0.0
O320 O 0.83912 0.75786 0.45034 0.0
O321 O 0.84566 0.77683 0.45683 0.0
O322 O 0.46521 0.58696 0.58626 0.0
Cd323 Cd 0.45478 0.58326 0.63225 0.0
Cd324 Cd 0.47732 0.58439 0.66445 0.0
O325 O 0.48238 0.59164 0.61433 0.0
O326 O 0.43786 0.58648 0.61534 0.0
O327 O 0.44711 0.5976 0.65781 0.0
C328 C 0.43767 0.59573 0.63724 0.0
C329 C 0.48456 0.59283 0.71916 0.0
C330 C 0.47605 0.59102 0.58512 0.0
C331 C 0.46409 0.56036 0.6664 0.0
O332 O 0.47423 0.5659 0.66883 0.0
O333 O 0.45469 0.56594 0.65479 0.0
O334 O 0.49163 0.58699 0.69699 0.0
O335 O 0.47336 0.59447 0.70932 0.0
O336 O 0.33524 0.21414 0.33743 0.0
Cd337 Cd 0.33232 0.20449 0.38545 0.0
Cd338 Cd 0.33422 0.22662 0.41511 0.0
O339 O 0.34081 0.23131 0.36393 0.0
O340 O 0.33612 0.1872 0.37356 0.0
O341 O 0.34743 0.19854 0.41076 0.0
C342 C 0.34573 0.18833 0.39372 0.0
C343 C 0.34445 0.23214 0.46864 0.0
C344 C 0.33957 0.22486 0.33514 0.0
C345 C 0.31 0.21433 0.42151 0.0
O346 O 0.31571 0.2244 0.42231 0.0
O347 O 0.31532 0.20474 0.41022 0.0
O348 O 0.33867 0.24007 0.44909 0.0
O349 O 0.34494 0.22106 0.45669 0.0
O350 O 0.53801 0.58322 0.09526 0.0
Cd351 Cd 0.54707 0.58184 0.14493 0.0
Cd352 Cd 0.52457 0.58383 0.17094 0.0
O353 O 0.52035 0.58912 0.11793 0.0
O354 O 0.56439 0.58581 0.13398 0.0
O355 O 0.55235 0.59773 0.16719 0.0
C356 C 0.56278 0.59588 0.15164 0.0
C357 C 0.51869 0.59506 0.22225 0.0
C358 C 0.52725 0.58722 0.09043 0.0
C359 C 0.53726 0.56012 0.18393 0.0
O360 O 0.52706 0.56556 0.18191 0.0
O361 O 0.54691 0.56547 0.17328 0.0
O362 O 0.51088 0.58889 0.20331 0.0
O363 O 0.52982 0.59542 0.21071 0.0
O364 O 0.16386 0.7867 0.83556 0.0
Cd365 Cd 0.16665 0.79611 0.88409 0.0
Cd366 Cd 0.16468 0.77388 0.9132 0.0
O367 O 0.15803 0.76956 0.86174 0.0
O368 O 0.16258 0.81342 0.87353 0.0
O369 O 0.15146 0.8016 0.9099 0.0
C370 C 0.15301 0.81197 0.89369 0.0
C371 C 0.15482 0.7672 0.96623 0.0
C372 C 0.15941 0.77603 0.83305 0.0
C373 C 0.1889 0.7862 0.92018 0.0
O374 O 0.18318 0.77613 0.92048 0.0
O375 O 0.1836 0.79583 0.90915 0.0
O376 O 0.16059 0.75976 0.94501 0.0
O377 O 0.15409 0.77848 0.9563 0.0
O378 O 0.96397 0.41532 0.58918 0.0
Cd379 Cd 0.95473 0.41844 0.63777 0.0
Cd380 Cd 0.97732 0.41622 0.66466 0.0
O381 O 0.98176 0.41021 0.61264 0.0
O382 O 0.93738 0.41556 0.62449 0.0
O383 O 0.94763 0.40377 0.663 0.0
C384 C 0.93773 0.40596 0.64492 0.0
C385 C 0.98242 0.40516 0.71696 0.0
C386 C 0.97476 0.41135 0.58501 0.0
C387 C 0.96533 0.44053 0.67361 0.0
O388 O 0.97531 0.43466 0.67371 0.0
O389 O 0.95559 0.43542 0.66255 0.0
O390 O 0.99056 0.411 0.69835 0.0
O391 O 0.97136 0.40511 0.70472 0.0
O392 O 0.33421 0.78822 0.15992 0.0
Cd393 Cd 0.33228 0.79675 0.10958 0.0
Cd394 Cd 0.33382 0.77389 0.08548 0.0
O395 O 0.33981 0.77034 0.13818 0.0
O396 O 0.33615 0.81419 0.11895 0.0
O397 O 0.3479 0.80203 0.08561 0.0
C398 C 0.34607 0.81256 0.10059 0.0
C399 C 0.34406 0.76658 0.03398 0.0
C400 C 0.33827 0.77751 0.16524 0.0
C401 C 0.31007 0.78661 0.07382 0.0
O402 O 0.31543 0.77638 0.07648 0.0
O403 O 0.31562 0.79634 0.08279 0.0
O404 O 0.33806 0.75939 0.05545 0.0
O405 O 0.34483 0.77795 0.04297 0.0
O406 O 0.96358 0.58711 0.90663 0.0
Cd407 Cd 0.95495 0.58468 0.85666 0.0
Cd408 Cd 0.97757 0.58658 0.8319 0.0
O409 O 0.98127 0.59298 0.8841 0.0
O410 O 0.93741 0.58813 0.86603 0.0
O411 O 0.94924 0.60001 0.83205 0.0
C412 C 0.93877 0.59799 0.84716 0.0
C413 C 0.98261 0.59721 0.77887 0.0
C414 C 0.97421 0.59142 0.91144 0.0
C415 C 0.96569 0.5625 0.82171 0.0
O416 O 0.97582 0.56806 0.82397 0.0
O417 O 0.95587 0.56792 0.83054 0.0
O418 O 0.9909 0.59212 0.79884 0.0
O419 O 0.97145 0.59685 0.79018 0.0
O420 O 0.1645 0.21241 0.66002 0.0
Cd421 Cd 0.16648 0.20402 0.60946 0.0
Cd422 Cd 0.16498 0.22693 0.58579 0.0
O423 O 0.15904 0.23038 0.6386 0.0
O424 O 0.16244 0.18657 0.61786 0.0
O425 O 0.15088 0.19902 0.58487 0.0
C426 C 0.15259 0.18839 0.59928 0.0
C427 C 0.15467 0.23431 0.53449 0.0
C428 C 0.16051 0.22314 0.66552 0.0
C429 C 0.18869 0.21421 0.57375 0.0
O430 O 0.18334 0.22444 0.57651 0.0
O431 O 0.18314 0.20448 0.58275 0.0
O432 O 0.16069 0.24147 0.55598 0.0
O433 O 0.15391 0.22293 0.54337 0.0
O434 O 0.53574 0.40975 0.40906 0.0
Cd435 Cd 0.54546 0.41476 0.36261 0.0
Cd436 Cd 0.52199 0.41468 0.33442 0.0
O437 O 0.51735 0.40778 0.38509 0.0
O438 O 0.56263 0.41195 0.37793 0.0
O439 O 0.55353 0.40114 0.33454 0.0
C440 C 0.56303 0.40306 0.3548 0.0
C441 C 0.51443 0.40608 0.28046 0.0
C442 C 0.52456 0.4069 0.41227 0.0
C443 C 0.53563 0.43837 0.33235 0.0
O444 O 0.5254 0.433 0.32995 0.0
O445 O 0.54503 0.43255 0.34285 0.0
O446 O 0.50751 0.41209 0.30266 0.0
O447 O 0.52567 0.40439 0.28986 0.0
C448 C 0.29256 0.29559 0.94368 0.0
C449 C 0.29837 0.28426 0.9391 0.0
C450 C 0.28094 0.29627 0.95948 0.0
C451 C 0.25979 0.27859 0.01845 0.0
H452 H 0.23539 0.30097 0.98108 0.0
C453 C 0.20912 0.27528 0.05853 0.0
C454 C 0.20278 0.28617 0.06569 0.0
C455 C 0.22096 0.27555 0.04454 0.0
C456 C 0.24216 0.29478 0.99211 0.0
H457 H 0.29635 0.26474 0.94669 0.0
H458 H 0.27609 0.26591 0.97345 0.0
H459 H 0.25559 0.30044 0.95289 0.0
H460 H 0.20402 0.3059 0.06399 0.0
H461 H 0.22477 0.30635 0.03949 0.0
H462 H 0.24631 0.27281 0.05729 0.0
C463 C 0.28059 0.2743 0.96564 0.0
C464 C 0.25374 0.29447 0.97597 0.0
C465 C 0.2922 0.27363 0.95001 0.0
C466 C 0.20864 0.29735 0.05883 0.0
C467 C 0.22049 0.29761 0.04457 0.0
C468 C 0.24822 0.27886 0.03445 0.0
C469 C 0.27487 0.28563 0.97096 0.0
C470 C 0.26266 0.28629 0.98873 0.0
C471 C 0.22676 0.28671 0.03718 0.0
C472 C 0.23924 0.28688 0.02128 0.0
H473 H 0.29707 0.30396 0.93569 0.0
H474 H 0.27685 0.30515 0.96345 0.0
H475 H 0.26651 0.27236 0.02953 0.0
H476 H 0.20489 0.26651 0.06343 0.0
H477 H 0.2255 0.26699 0.03874 0.0
C478 C 0.97413 0.95802 0.30389 0.0
C479 C 0.96335 0.95162 0.31192 0.0
C480 C 0.97368 0.96992 0.29037 0.0
C481 C 0.95383 0.99131 0.24085 0.0
H482 H 0.97653 0.01555 0.27735 0.0
C483 C 0.95235 0.04196 0.19504 0.0
C484 C 0.96361 0.04782 0.18962 0.0
C485 C 0.95187 0.03026 0.21034 0.0
C486 C 0.97022 0.00886 0.26653 0.0
H487 H 0.94361 0.95278 0.3122 0.0
H488 H 0.94283 0.97362 0.28852 0.0
H489 H 0.97646 0.9952 0.30411 0.0
H490 H 0.9832 0.04583 0.19519 0.0
H491 H 0.98237 0.02542 0.22109 0.0
H492 H 0.94771 0.00492 0.20287 0.0
C493 C 0.95163 0.96936 0.29256 0.0
C494 C 0.97016 0.9972 0.28195 0.0
C495 C 0.95209 0.95745 0.30634 0.0
C496 C 0.97437 0.04163 0.19919 0.0
C497 C 0.97389 0.02994 0.21433 0.0
C498 C 0.95392 0.00297 0.22527 0.0
C499 C 0.96243 0.97571 0.28436 0.0
C500 C 0.96204 0.98826 0.2691 0.0
C501 C 0.96264 0.02416 0.22047 0.0
C502 C 0.9622 0.01186 0.23771 0.0
H503 H 0.98297 0.95381 0.30779 0.0
H504 H 0.98215 0.97451 0.28392 0.0
H505 H 0.94755 0.98457 0.23008 0.0
H506 H 0.94388 0.04648 0.18809 0.0
H507 H 0.94305 0.02612 0.21499 0.0
C508 C 0.20653 0.70286 0.44425 0.0
C509 C 0.20069 0.71413 0.43891 0.0
C510 C 0.21817 0.70234 0.45996 0.0
C511 C 0.23927 0.72053 0.51762 0.0
H512 H 0.26378 0.69803 0.48165 0.0
C513 C 0.2899 0.72444 0.55755 0.0
C514 C 0.29632 0.71364 0.56533 0.0
C515 C 0.27806 0.72399 0.54355 0.0
C516 C 0.25698 0.70426 0.4923 0.0
H517 H 0.20268 0.73371 0.44501 0.0
H518 H 0.22297 0.73281 0.47164 0.0
H519 H 0.24357 0.69824 0.45349 0.0
H520 H 0.29523 0.6939 0.56471 0.0
H521 H 0.27449 0.69314 0.54022 0.0
H522 H 0.25272 0.72666 0.55606 0.0
C523 C 0.21848 0.72435 0.46449 0.0
C524 C 0.2454 0.70438 0.47617 0.0
C525 C 0.20685 0.72487 0.44893 0.0
C526 C 0.29055 0.70238 0.55906 0.0
C527 C 0.2787 0.70194 0.54481 0.0
C528 C 0.25085 0.72044 0.53362 0.0
C529 C 0.22423 0.71308 0.47061 0.0
C530 C 0.23644 0.7126 0.48841 0.0
C531 C 0.27235 0.71275 0.53681 0.0
C532 C 0.25987 0.71238 0.52094 0.0
H533 H 0.20203 0.69441 0.43695 0.0
H534 H 0.22229 0.69351 0.46456 0.0
H535 H 0.23252 0.72679 0.52831 0.0
H536 H 0.29406 0.73327 0.56197 0.0
H537 H 0.27347 0.73248 0.53727 0.0
C538 C 0.52464 0.04085 0.80061 0.0
C539 C 0.53554 0.04665 0.81095 0.0
C540 C 0.52481 0.02916 0.7854 0.0
C541 C 0.54465 0.00767 0.7359 0.0
H542 H 0.52078 0.98369 0.76676 0.0
C543 C 0.54627 0.95726 0.68819 0.0
C544 C 0.53509 0.95148 0.68094 0.0
C545 C 0.54656 0.96894 0.70367 0.0
C546 C 0.52741 0.99032 0.75745 0.0
H547 H 0.5552 0.04464 0.81354 0.0
H548 H 0.55549 0.0242 0.78699 0.0
H549 H 0.52085 0.00381 0.79513 0.0
H550 H 0.51544 0.9536 0.6833 0.0
H551 H 0.51595 0.97399 0.70949 0.0
H552 H 0.55113 0.99422 0.69793 0.0
C553 C 0.54681 0.02876 0.79047 0.0
C554 C 0.52747 0.00184 0.77381 0.0
C555 C 0.54663 0.04044 0.8059 0.0
C556 C 0.52422 0.95774 0.68874 0.0
C557 C 0.52451 0.96942 0.70404 0.0
C558 C 0.54456 0.99615 0.71939 0.0
C559 C 0.5359 0.023 0.77998 0.0
C560 C 0.53605 0.01066 0.76314 0.0
C561 C 0.53567 0.97511 0.71213 0.0
C562 C 0.5359 0.98734 0.72986 0.0
H563 H 0.51593 0.04537 0.80403 0.0
H564 H 0.51627 0.02502 0.77724 0.0
H565 H 0.55128 0.01432 0.72677 0.0
H566 H 0.55482 0.95268 0.68264 0.0
H567 H 0.55532 0.973 0.70986 0.0
C568 C 0.70793 0.72542 0.05031 0.0
C569 C 0.70145 0.71462 0.05752 0.0
C570 C 0.71982 0.72498 0.03662 0.0
C571 C 0.7411 0.70542 0.98562 0.0
H572 H 0.76555 0.72733 0.02516 0.0
C573 C 0.79189 0.70348 0.94163 0.0
C574 C 0.79801 0.71466 0.93759 0.0
C575 C 0.78012 0.70307 0.95643 0.0
C576 C 0.7588 0.72125 0.01347 0.0
H577 H 0.70243 0.69487 0.05596 0.0
H578 H 0.72322 0.69413 0.03194 0.0
H579 H 0.74509 0.72732 0.05114 0.0
H580 H 0.7964 0.73422 0.94515 0.0
H581 H 0.77587 0.73354 0.97015 0.0
H582 H 0.75477 0.69947 0.94757 0.0
C583 C 0.71904 0.70293 0.03679 0.0
C584 C 0.74708 0.72123 0.02845 0.0
C585 C 0.70716 0.70336 0.05075 0.0
C586 C 0.79201 0.72544 0.94808 0.0
C587 C 0.78025 0.72504 0.9627 0.0
C588 C 0.75283 0.70549 0.97048 0.0
C589 C 0.7255 0.71374 0.0296 0.0
C590 C 0.73808 0.71338 0.01454 0.0
C591 C 0.77419 0.71385 0.96741 0.0
C592 C 0.7618 0.71348 0.98404 0.0
H593 H 0.70382 0.73425 0.05513 0.0
H594 H 0.72449 0.73347 0.03094 0.0
H595 H 0.73431 0.69936 0.97405 0.0
H596 H 0.79627 0.695 0.93394 0.0
H597 H 0.77578 0.69429 0.95998 0.0
C598 C 0.04652 0.95793 0.80472 0.0
C599 C 0.0353 0.95202 0.81031 0.0
C600 C 0.04694 0.96958 0.78903 0.0
C601 C 0.02844 0.99071 0.73221 0.0
H602 H 0.0512 0.01514 0.76722 0.0
C603 C 0.02463 0.04141 0.69253 0.0
C604 C 0.03543 0.04771 0.684 0.0
C605 C 0.02506 0.02957 0.7066 0.0
C606 C 0.0449 0.00836 0.75686 0.0
H607 H 0.0157 0.95387 0.80463 0.0
H608 H 0.01641 0.9742 0.77809 0.0
H609 H 0.05106 0.99493 0.79533 0.0
H610 H 0.05517 0.04643 0.68339 0.0
H611 H 0.05588 0.02571 0.70806 0.0
H612 H 0.02215 0.0042 0.69414 0.0
C613 C 0.02492 0.96975 0.78501 0.0
C614 C 0.04482 0.99678 0.77295 0.0
C615 C 0.02451 0.95811 0.80051 0.0
C616 C 0.04667 0.04184 0.68962 0.0
C617 C 0.0471 0.03 0.70397 0.0
C618 C 0.02848 0.0023 0.71628 0.0
C619 C 0.03614 0.97559 0.77868 0.0
C620 C 0.03652 0.98783 0.76101 0.0
C621 C 0.03629 0.02376 0.71269 0.0
C622 C 0.03665 0.01128 0.72859 0.0
H623 H 0.05501 0.95348 0.81183 0.0
H624 H 0.05574 0.97375 0.78425 0.0
H625 H 0.02211 0.98398 0.72175 0.0
H626 H 0.01581 0.04565 0.68861 0.0
H627 H 0.01657 0.02506 0.71343 0.0
C628 C 0.71102 0.2973 0.43853 0.0
C629 C 0.70489 0.28616 0.4336 0.0
C630 C 0.72285 0.29756 0.45299 0.0
C631 C 0.75012 0.27847 0.46677 0.0
H632 H 0.75775 0.30116 0.54532 0.0
C633 C 0.79412 0.27387 0.55131 0.0
C634 C 0.80044 0.28456 0.56082 0.0
C635 C 0.78246 0.27446 0.53602 0.0
C636 C 0.75583 0.29487 0.52308 0.0
H637 H 0.70651 0.26653 0.43944 0.0
H638 H 0.72709 0.267 0.46436 0.0
H639 H 0.73762 0.30163 0.51666 0.0
H640 H 0.79932 0.3043 0.56224 0.0
H641 H 0.77902 0.30535 0.53498 0.0
H642 H 0.76828 0.27174 0.47284 0.0
C643 C 0.72278 0.27554 0.45696 0.0
C644 C 0.7443 0.29514 0.50667 0.0
C645 C 0.71094 0.27528 0.44283 0.0
C646 C 0.79469 0.29588 0.55537 0.0
C647 C 0.78303 0.29648 0.53983 0.0
C648 C 0.76166 0.27824 0.48298 0.0
C649 C 0.72883 0.28667 0.46246 0.0
C650 C 0.74127 0.28686 0.4786 0.0
C651 C 0.77683 0.28578 0.52956 0.0
C652 C 0.76463 0.28634 0.51163 0.0
H653 H 0.70662 0.30585 0.43177 0.0
H654 H 0.72733 0.30627 0.45663 0.0
H655 H 0.74813 0.2721 0.44479 0.0
H656 H 0.79823 0.26499 0.55538 0.0
H657 H 0.77786 0.26602 0.52923 0.0
C658 C 0.45301 0.95868 0.19154 0.0
C659 C 0.46416 0.95274 0.185 0.0
C660 C 0.45278 0.9704 0.20671 0.0
C661 C 0.47182 0.99186 0.26058 0.0
H662 H 0.4488 0.01608 0.2259 0.0
C663 C 0.47547 0.04266 0.29991 0.0
C664 C 0.46463 0.04888 0.30852 0.0
C665 C 0.47512 0.03084 0.28568 0.0
C666 C 0.45519 0.00937 0.23617 0.0
H667 H 0.48381 0.9546 0.18861 0.0
H668 H 0.48342 0.97505 0.21436 0.0
H669 H 0.44874 0.99572 0.1988 0.0
H670 H 0.44491 0.04746 0.30903 0.0
H671 H 0.44431 0.02678 0.28425 0.0
H672 H 0.47835 0.00554 0.29768 0.0
C673 C 0.47483 0.97058 0.2085 0.0
C674 C 0.45515 0.9977 0.22066 0.0
C675 C 0.47506 0.95886 0.19346 0.0
C676 C 0.45343 0.04295 0.30271 0.0
C677 C 0.45308 0.03113 0.28829 0.0
C678 C 0.47188 0.00353 0.27598 0.0
C679 C 0.4637 0.97646 0.21561 0.0
C680 C 0.46352 0.98882 0.23253 0.0
C681 C 0.46392 0.02495 0.27956 0.0
C682 C 0.46361 0.01244 0.26384 0.0
H683 H 0.44444 0.95421 0.18546 0.0
H684 H 0.44404 0.97461 0.21216 0.0
H685 H 0.47822 0.98518 0.27093 0.0
H686 H 0.48427 0.04696 0.30394 0.0
H687 H 0.48363 0.02638 0.27883 0.0
C688 C 0.70892 0.79675 0.55841 0.0
C689 C 0.70291 0.78561 0.56446 0.0
C690 C 0.72052 0.79701 0.54237 0.0
C691 C 0.74116 0.77804 0.48527 0.0
H692 H 0.76595 0.80087 0.51743 0.0
C693 C 0.79164 0.7736 0.44363 0.0
C694 C 0.79793 0.78429 0.43388 0.0
C695 C 0.77986 0.77421 0.45809 0.0
C696 C 0.75906 0.79454 0.50787 0.0
H697 H 0.70459 0.76597 0.55951 0.0
H698 H 0.72484 0.76639 0.53249 0.0
H699 H 0.74593 0.80104 0.54679 0.0
H700 H 0.7967 0.80402 0.43143 0.0
H701 H 0.7761 0.80505 0.45686 0.0
H702 H 0.75437 0.77141 0.44682 0.0
C703 C 0.7205 0.77497 0.5392 0.0
C704 C 0.74759 0.79463 0.52468 0.0
C705 C 0.7089 0.77472 0.555 0.0
C706 C 0.79211 0.79561 0.43859 0.0
C707 C 0.78034 0.79622 0.45338 0.0
C708 C 0.75264 0.7779 0.46867 0.0
C709 C 0.72639 0.78611 0.53218 0.0
C710 C 0.73852 0.78631 0.51378 0.0
C711 C 0.77411 0.78552 0.4634 0.0
C712 C 0.76175 0.78609 0.47995 0.0
H713 H 0.70455 0.80531 0.56524 0.0
H714 H 0.72474 0.80576 0.53709 0.0
H715 H 0.73433 0.77168 0.47556 0.0
H716 H 0.79584 0.76474 0.44041 0.0
H717 H 0.77535 0.76582 0.4659 0.0
C718 C 0.47215 0.45786 0.79437 0.0
C719 C 0.46134 0.45145 0.80195 0.0
C720 C 0.47175 0.46965 0.78003 0.0
C721 C 0.45242 0.4909 0.72816 0.0
H722 H 0.47464 0.51516 0.76718 0.0
C723 C 0.45184 0.54174 0.68267 0.0
C724 C 0.46321 0.54754 0.67905 0.0
C725 C 0.45106 0.52995 0.69728 0.0
C726 C 0.46847 0.50847 0.75564 0.0
H727 H 0.4416 0.45244 0.80021 0.0
H728 H 0.44092 0.47312 0.77502 0.0
H729 H 0.47418 0.49486 0.7941 0.0
H730 H 0.4827 0.5453 0.68668 0.0
H731 H 0.48135 0.52477 0.71135 0.0
H732 H 0.44682 0.50451 0.68934 0.0
C733 C 0.4497 0.46894 0.78013 0.0
C734 C 0.46819 0.49684 0.77116 0.0
C735 C 0.45009 0.45713 0.79476 0.0
C736 C 0.47378 0.54117 0.68936 0.0
C737 C 0.473 0.5294 0.70379 0.0
C738 C 0.45273 0.50256 0.71248 0.0
C739 C 0.46053 0.47533 0.77273 0.0
C740 C 0.46026 0.48788 0.75737 0.0
C741 C 0.46163 0.52371 0.7085 0.0
C742 C 0.46087 0.51144 0.72578 0.0
H743 H 0.48098 0.45378 0.79945 0.0
H744 H 0.48026 0.47427 0.77415 0.0
H745 H 0.44628 0.48416 0.71674 0.0
H746 H 0.44351 0.5464 0.67507 0.0
H747 H 0.44215 0.52587 0.70074 0.0
C748 C 0.70601 0.20271 0.94744 0.0
C749 C 0.70035 0.21403 0.94125 0.0
C750 C 0.71775 0.20215 0.96247 0.0
C751 C 0.7397 0.22066 0.01632 0.0
H752 H 0.76334 0.19698 0.98197 0.0
C753 C 0.79068 0.22374 0.05247 0.0
C754 C 0.79672 0.21291 0.06225 0.0
C755 C 0.77879 0.22342 0.03885 0.0
C756 C 0.75678 0.20355 0.99212 0.0
H757 H 0.70274 0.23362 0.94507 0.0
H758 H 0.72321 0.23264 0.9704 0.0
H759 H 0.74293 0.19732 0.95509 0.0
H760 H 0.79496 0.19324 0.06539 0.0
H761 H 0.77414 0.19271 0.04142 0.0
H762 H 0.7536 0.22703 0.05289 0.0
C763 C 0.71851 0.22419 0.96453 0.0
C764 C 0.74509 0.20374 0.97676 0.0
C765 C 0.70678 0.22475 0.94972 0.0
C766 C 0.79057 0.20175 0.05816 0.0
C767 C 0.77867 0.20143 0.04424 0.0
C768 C 0.75139 0.22052 0.03149 0.0
C769 C 0.72409 0.21289 0.9715 0.0
C770 C 0.73643 0.21238 0.98846 0.0
C771 C 0.77267 0.21227 0.03445 0.0
C772 C 0.76009 0.21203 0.01938 0.0
H773 H 0.7013 0.19427 0.94135 0.0
H774 H 0.72173 0.19329 0.96778 0.0
H775 H 0.73319 0.22726 0.02661 0.0
H776 H 0.79515 0.2325 0.0552 0.0
H777 H 0.77446 0.23192 0.03114 0.0
C778 C 0.02398 0.45818 0.18654 0.0
C779 C 0.03474 0.45196 0.17707 0.0
C780 C 0.02446 0.47001 0.20071 0.0
C781 C 0.04461 0.49098 0.25048 0.0
H782 H 0.02165 0.51562 0.2182 0.0
C783 C 0.047 0.54098 0.30115 0.0
C784 C 0.03591 0.54703 0.30763 0.0
C785 C 0.04715 0.52945 0.28468 0.0
C786 C 0.02803 0.50881 0.22789 0.0
H787 H 0.05445 0.45339 0.17468 0.0
H788 H 0.05526 0.47407 0.19959 0.0
H789 H 0.02142 0.49553 0.18956 0.0
H790 H 0.01626 0.54555 0.30263 0.0
H791 H 0.01651 0.52538 0.27481 0.0
H792 H 0.05109 0.50415 0.28929 0.0
C793 C 0.04647 0.46973 0.19615 0.0
C794 C 0.02792 0.49731 0.21135 0.0
C795 C 0.04599 0.45792 0.18166 0.0
C796 C 0.02497 0.54119 0.29784 0.0
C797 C 0.02512 0.52965 0.2816 0.0
C798 C 0.04468 0.50246 0.26721 0.0
C799 C 0.03571 0.47588 0.20601 0.0
C800 C 0.03617 0.48825 0.22258 0.0
C801 C 0.03621 0.52367 0.27448 0.0
C802 C 0.03634 0.5115 0.25627 0.0
H803 H 0.01516 0.45387 0.18339 0.0
H804 H 0.01602 0.47445 0.20839 0.0
H805 H 0.05097 0.48413 0.26005 0.0
H806 H 0.0556 0.54524 0.30818 0.0
H807 H 0.05587 0.52519 0.27925 0.0
C808 C 0.29107 0.22455 0.44456 0.0
C809 C 0.29723 0.21379 0.43479 0.0
C810 C 0.27918 0.2241 0.45824 0.0
C811 C 0.25748 0.20383 0.50499 0.0
H812 H 0.23363 0.2276 0.47263 0.0
C813 C 0.20689 0.20243 0.55132 0.0
C814 C 0.20126 0.21367 0.55882 0.0
C815 C 0.21854 0.20202 0.53566 0.0
C816 C 0.24021 0.22098 0.4823 0.0
H817 H 0.29567 0.1941 0.43157 0.0
H818 H 0.27487 0.19333 0.45551 0.0
H819 H 0.25395 0.22763 0.4456 0.0
H820 H 0.2036 0.2333 0.55646 0.0
H821 H 0.22392 0.23259 0.5299 0.0
H822 H 0.24379 0.19728 0.54209 0.0
C823 C 0.2793 0.20211 0.45273 0.0
C824 C 0.25185 0.22098 0.46672 0.0
C825 C 0.29119 0.20256 0.4388 0.0
C826 C 0.20762 0.22448 0.55086 0.0
C827 C 0.21925 0.22407 0.53535 0.0
C828 C 0.24583 0.20385 0.52071 0.0
C829 C 0.27318 0.21288 0.46266 0.0
C830 C 0.26065 0.21247 0.47808 0.0
C831 C 0.22482 0.21285 0.52722 0.0
C832 C 0.23709 0.21251 0.50978 0.0
H833 H 0.29544 0.23336 0.4419 0.0
H834 H 0.27478 0.23254 0.46606 0.0
H835 H 0.2641 0.19724 0.51462 0.0
H836 H 0.20223 0.19393 0.55699 0.0
H837 H 0.22251 0.19323 0.52945 0.0
C838 C 0.54793 0.45694 0.31565 0.0
C839 C 0.53654 0.4513 0.32078 0.0
C840 C 0.54865 0.46882 0.30162 0.0
C841 C 0.53053 0.49075 0.24693 0.0
H842 H 0.5537 0.51467 0.28266 0.0
C843 C 0.52702 0.5414 0.20839 0.0
C844 C 0.53782 0.54759 0.19917 0.0
C845 C 0.52744 0.52964 0.22301 0.0
C846 C 0.54727 0.50804 0.27213 0.0
H847 H 0.51698 0.45394 0.31673 0.0
H848 H 0.51823 0.47459 0.29309 0.0
H849 H 0.55337 0.49425 0.3097 0.0
H850 H 0.55755 0.54628 0.19841 0.0
H851 H 0.55826 0.52567 0.224 0.0
H852 H 0.52434 0.50451 0.20968 0.0
C853 C 0.52663 0.46978 0.29895 0.0
C854 C 0.54709 0.49635 0.28761 0.0
C855 C 0.52591 0.45794 0.31278 0.0
C856 C 0.54906 0.54175 0.20513 0.0
C857 C 0.54948 0.52998 0.21999 0.0
C858 C 0.53069 0.50241 0.23161 0.0
C859 C 0.53799 0.47529 0.29252 0.0
C860 C 0.53861 0.48761 0.27545 0.0
C861 C 0.53866 0.52378 0.22894 0.0
C862 C 0.53897 0.51123 0.24427 0.0
H863 H 0.5563 0.45207 0.32148 0.0
H864 H 0.55755 0.47278 0.29683 0.0
H865 H 0.52408 0.48416 0.23626 0.0
H866 H 0.5182 0.54562 0.20433 0.0
H867 H 0.51895 0.52518 0.2301 0.0
C868 C 0.29102 0.7763 0.05201 0.0
C869 C 0.29744 0.78712 0.05941 0.0
C870 C 0.27923 0.77669 0.03757 0.0
C871 C 0.25821 0.79619 0.98512 0.0
H872 H 0.23364 0.77408 0.02284 0.0
C873 C 0.20761 0.79793 0.93873 0.0
C874 C 0.20158 0.78671 0.93418 0.0
C875 C 0.21933 0.79837 0.95392 0.0
C876 C 0.24042 0.78021 0.01166 0.0
H877 H 0.29644 0.80686 0.05744 0.0
H878 H 0.2758 0.80753 0.0322 0.0
H879 H 0.2539 0.77419 0.05013 0.0
H880 H 0.20332 0.76714 0.94114 0.0
H881 H 0.22375 0.7679 0.96687 0.0
H882 H 0.24475 0.80212 0.94634 0.0
C883 C 0.27996 0.79874 0.03743 0.0
C884 C 0.25203 0.7803 0.02739 0.0
C885 C 0.29175 0.79836 0.05211 0.0
C886 C 0.20764 0.77595 0.94446 0.0
C887 C 0.21935 0.77639 0.95949 0.0
C888 C 0.24659 0.79608 0.96927 0.0
C889 C 0.27357 0.78791 0.03 0.0
C890 C 0.26109 0.78822 0.01414 0.0
C891 C 0.22529 0.7876 0.96482 0.0
C892 C 0.23758 0.78802 0.98216 0.0
H893 H 0.29511 0.76748 0.0572 0.0
H894 H 0.27462 0.76818 0.03172 0.0
H895 H 0.26503 0.80231 0.97405 0.0
H896 H 0.20319 0.8064 0.93121 0.0
H897 H 0.22359 0.80717 0.95792 0.0
C898 C 0.95395 0.45943 0.69221 0.0
C899 C 0.96506 0.45323 0.68755 0.0
C900 C 0.95373 0.47122 0.70687 0.0
C901 C 0.97238 0.49255 0.76248 0.0
H902 H 0.95023 0.51698 0.72418 0.0
C903 C 0.9762 0.54347 0.80045 0.0
C904 C 0.96532 0.54979 0.80786 0.0
C905 C 0.97589 0.5316 0.78651 0.0
C906 C 0.95637 0.51022 0.73543 0.0
H907 H 0.98467 0.4547 0.69392 0.0
H908 H 0.9843 0.47528 0.71872 0.0
H909 H 0.95024 0.49654 0.69769 0.0
H910 H 0.94559 0.54855 0.80651 0.0
H911 H 0.94508 0.52781 0.78216 0.0
H912 H 0.97861 0.50628 0.7999 0.0
C913 C 0.97572 0.47096 0.71182 0.0
C914 C 0.95638 0.4985 0.72028 0.0
C915 C 0.97594 0.45917 0.69733 0.0
C916 C 0.95413 0.54394 0.80113 0.0
C917 C 0.95384 0.53209 0.78696 0.0
C918 C 0.97241 0.50427 0.77748 0.0
C919 C 0.96462 0.4771 0.71709 0.0
C920 C 0.96443 0.48953 0.73351 0.0
C921 C 0.96471 0.5258 0.77945 0.0
C922 C 0.96445 0.51326 0.76404 0.0
H923 H 0.94539 0.45511 0.68509 0.0
H924 H 0.945 0.47563 0.7109 0.0
H925 H 0.97853 0.48581 0.77386 0.0
H926 H 0.98498 0.5477 0.80523 0.0
H927 H 0.98443 0.52705 0.78062 0.0
C928 C 0.15193 0.24848 0.99217 0.0
C929 C 0.15199 0.26108 -0.00103 0.0
C930 C 0.15031 0.24404 0.95654 0.0
C931 C 0.14168 0.25211 0.86078 0.0
H932 H 0.16617 0.22793 0.83637 0.0
C933 C 0.15473 0.23943 0.71085 0.0
C934 C 0.15765 0.22719 0.70344 0.0
C935 C 0.15247 0.24328 0.74691 0.0
C936 C 0.15913 0.23452 0.84274 0.0
H937 H 0.14952 0.27889 0.9742 0.0
H938 H 0.14683 0.27111 0.91167 0.0
H939 H 0.1643 0.23503 0.89933 0.0
H940 H 0.16003 0.20932 0.72801 0.0
H941 H 0.15592 0.21599 0.79063 0.0
H942 H 0.13666 0.25167 0.80375 0.0
C943 C 0.14796 0.26467 0.93399 0.0
C944 C 0.15805 0.23859 0.87893 0.0
C945 C 0.14952 0.26912 0.9698 0.0
C946 C 0.15795 0.21884 0.73276 0.0
C947 C 0.15563 0.22268 0.76872 0.0
C948 C 0.14274 0.24799 0.82442 0.0
C949 C 0.1488 0.25209 0.92682 0.0
C950 C 0.14934 0.24744 0.88843 0.0
C951 C 0.15304 0.23497 0.77633 0.0
C952 C 0.15152 0.23916 0.81499 0.0
H953 H 0.15367 0.24204 0.01416 0.0
H954 H 0.15071 0.23428 0.95205 0.0
H955 H 0.13485 0.25889 0.86729 0.0
H956 H 0.15442 0.2461 0.68888 0.0
H957 H 0.15063 0.25284 0.75184 0.0
C958 C 0.00783 0.90274 0.95401 0.0
C959 C 0.0199 0.90687 0.95015 0.0
C960 C 0.00324 0.89958 0.98863 0.0
C961 C 0.01268 0.89138 0.08331 0.0
H962 H 0.98141 0.90498 0.11129 0.0
C963 C 0.99908 0.90068 0.23294 0.0
C964 C 0.98677 0.90006 0.24336 0.0
C965 C 0.00255 0.8984 0.19665 0.0
C966 C 0.99002 0.90086 0.10376 0.0
H967 H 0.03667 0.91072 0.97964 0.0
H968 H 0.02864 0.90531 0.03994 0.0
H969 H 0.98857 0.90718 0.04822 0.0
H970 H 0.96853 0.89574 0.22445 0.0
H971 H 0.97462 0.89164 0.1609 0.0
H972 H 0.01428 0.88535 0.13914 0.0
C973 C 0.02275 0.90439 0.01615 0.0
C974 C 0.99415 0.90216 0.06759 0.0
C975 C 0.02732 0.9076 0.98161 0.0
C976 C 0.97808 0.89633 0.21723 0.0
C977 C 0.98156 0.89407 0.18079 0.0
C978 C 0.00854 0.89005 0.11947 0.0
C979 C 0.01064 0.90042 0.0201 0.0
C980 C 0.00566 0.89772 0.05722 0.0
C981 C 0.99379 0.89544 0.16987 0.0
C982 C 0.99731 0.89506 0.13036 0.0
H983 H 0.00188 0.90202 0.93033 0.0
H984 H 0.9939 0.89647 0.99077 0.0
H985 H 0.02149 0.88766 0.07595 0.0
H986 H 0.00601 0.90348 0.25243 0.0
H987 H 0.01203 0.89965 0.18921 0.0
C988 C 0.34938 0.73129 0.46934 0.0
C989 C 0.34683 0.73932 0.4985 0.0
C990 C 0.3509 0.73576 0.43351 0.0
C991 C 0.3406 0.76175 0.37843 0.0
H992 H 0.36215 0.74889 0.30331 0.0
C993 C 0.34074 0.7817 0.23256 0.0
C994 C 0.34111 0.7734 0.20311 0.0
C995 C 0.34304 0.77781 0.26848 0.0
C996 C 0.35602 0.7525 0.32396 0.0
H997 H 0.34499 0.75835 0.51366 0.0
H998 H 0.34789 0.76612 0.45155 0.0
H999 H 0.36397 0.74163 0.36681 0.0
H1000 H 0.34447 0.75454 0.18827 0.0
H1001 H 0.34823 0.7477 0.25117 0.0
H1002 H 0.33244 0.77238 0.33589 0.0
C1003 C 0.34837 0.75637 0.45604 0.0
C1004 C 0.35708 0.74837 0.36031 0.0
C1005 C 0.34678 0.75192 0.49168 0.0
C1006 C 0.34409 0.76116 0.21035 0.0
C1007 C 0.34634 0.75726 0.24638 0.0
C1008 C 0.33952 0.76584 0.34226 0.0
C1009 C 0.34995 0.74832 0.42633 0.0
C1010 C 0.34938 0.75296 0.38794 0.0
C1011 C 0.34569 0.76552 0.27592 0.0
C1012 C 0.34719 0.76127 0.31454 0.0
H1013 H 0.34946 0.72153 0.47375 0.0
H1014 H 0.35208 0.72931 0.41121 0.0
H1015 H 0.33431 0.76525 0.39881 0.0
H1016 H 0.33861 0.79122 0.22795 0.0
H1017 H 0.34269 0.78446 0.29049 0.0
C1018 C 0.49959 0.0987 0.73885 0.0
C1019 C 0.51216 0.09819 0.74589 0.0
C1020 C 0.49528 0.10044 0.70313 0.0
C1021 C 0.50371 0.10865 0.60741 0.0
H1022 H 0.47888 0.08479 0.58321 0.0
C1023 C 0.4903 0.09598 0.45752 0.0
C1024 C 0.47798 0.09326 0.45056 0.0
C1025 C 0.49432 0.09819 0.49346 0.0
C1026 C 0.48565 0.09167 0.58951 0.0
H1027 H 0.5301 0.10001 0.72145 0.0
H1028 H 0.52254 0.10291 0.65871 0.0
H1029 H 0.48605 0.0865 0.6461 0.0
H1030 H 0.46015 0.09128 0.4757 0.0
H1031 H 0.46711 0.09535 0.53802 0.0
H1032 H 0.50335 0.11369 0.55037 0.0
C1033 C 0.51602 0.10204 0.68093 0.0
C1034 C 0.48977 0.09265 0.62566 0.0
C1035 C 0.52035 0.10036 0.71686 0.0
C1036 C 0.46973 0.09319 0.48012 0.0
C1037 C 0.47373 0.09548 0.51592 0.0
C1038 C 0.49953 0.1077 0.57107 0.0
C1039 C 0.50344 0.10162 0.67354 0.0
C1040 C 0.49884 0.10114 0.6351 0.0
C1041 C 0.48611 0.0978 0.52316 0.0
C1042 C 0.49045 0.09917 0.56172 0.0
H1043 H 0.49304 0.09722 0.76073 0.0
H1044 H 0.48553 0.10037 0.69845 0.0
H1045 H 0.51068 0.11531 0.61388 0.0
H1046 H 0.49689 0.09612 0.43534 0.0
H1047 H 0.50393 0.09984 0.49808 0.0
C1048 C 0.15639 0.77856 0.7651 0.0
C1049 C 0.15577 0.77116 0.79663 0.0
C1050 C 0.15311 0.77395 0.73066 0.0
C1051 C 0.15087 0.74527 0.67956 0.0
H1052 H 0.13402 0.76532 0.60788 0.0
C1053 C 0.14516 0.72909 0.53002 0.0
C1054 C 0.14893 0.73776 0.50392 0.0
C1055 C 0.14283 0.73259 0.5664 0.0
C1056 C 0.13872 0.7596 0.62759 0.0
H1057 H 0.151 0.75315 0.8167 0.0
H1058 H 0.14531 0.7451 0.75646 0.0
H1059 H 0.13633 0.77258 0.67101 0.0
H1060 H 0.15234 0.757 0.49479 0.0
H1061 H 0.14837 0.76306 0.5579 0.0
H1062 H 0.15369 0.7325 0.63595 0.0
C1063 C 0.14841 0.75445 0.75845 0.0
C1064 C 0.14006 0.76377 0.66372 0.0
C1065 C 0.15164 0.75908 0.79296 0.0
C1066 C 0.14951 0.75008 0.51427 0.0
C1067 C 0.14715 0.75358 0.55049 0.0
C1068 C 0.14956 0.74111 0.64342 0.0
C1069 C 0.14915 0.76183 0.72689 0.0
C1070 C 0.14642 0.75679 0.68985 0.0
C1071 C 0.14416 0.74483 0.57728 0.0
C1072 C 0.14375 0.74837 0.61677 0.0
H1073 H 0.15951 0.78791 0.76691 0.0
H1074 H 0.15396 0.77981 0.70681 0.0
H1075 H 0.15591 0.73972 0.69895 0.0
H1076 H 0.14461 0.71952 0.52285 0.0
H1077 H 0.14037 0.72566 0.58629 0.0
C1078 C 0.4685 0.90855 0.01224 0.0
C1079 C 0.47691 0.90845 0.04142 0.0
C1080 C 0.47226 0.90593 0.9764 0.0
C1081 C 0.49743 0.8925 0.92123 0.0
H1082 H 0.48431 0.91343 0.84494 0.0
C1083 C 0.51835 0.89838 0.77527 0.0
C1084 C 0.51026 0.90066 0.74607 0.0
C1085 C 0.51393 0.89696 0.81118 0.0
C1086 C 0.48792 0.90734 0.86575 0.0
H1087 H 0.49583 0.90525 0.05588 0.0
H1088 H 0.50244 0.90095 0.9931 0.0
H1089 H 0.47735 0.91583 0.90785 0.0
H1090 H 0.49119 0.90208 0.73092 0.0
H1091 H 0.48351 0.89935 0.79322 0.0
H1092 H 0.50825 0.88425 0.87879 0.0
C1093 C 0.49289 0.90287 0.99805 0.0
C1094 C 0.48392 0.90873 0.90191 0.0
C1095 C 0.48912 0.90542 0.03401 0.0
C1096 C 0.49767 0.90049 0.75293 0.0
C1097 C 0.49327 0.89901 0.78866 0.0
C1098 C 0.50147 0.89114 0.88489 0.0
C1099 C 0.48453 0.90322 0.96876 0.0
C1100 C 0.48863 0.90136 0.93015 0.0
C1101 C 0.50136 0.89775 0.81839 0.0
C1102 C 0.49676 0.89856 0.85677 0.0
H1103 H 0.459 0.9107 0.01702 0.0
H1104 H 0.46552 0.90606 0.9546 0.0
H1105 H 0.50115 0.88659 0.94229 0.0
H1106 H 0.52811 0.89847 0.77082 0.0
H1107 H 0.52041 0.89601 0.8335 0.0
C1108 C 0.35009 0.24954 0.01662 0.0
C1109 C 0.35031 0.26179 0.00546 0.0
C1110 C 0.35253 0.24638 0.05307 0.0
C1111 C 0.34958 0.25941 0.14505 0.0
H1112 H 0.36364 0.22851 0.17472 0.0
C1113 C 0.34714 0.24194 0.29519 0.0
C1114 C 0.34328 0.22977 0.29885 0.0
C1115 C 0.35048 0.24657 0.26076 0.0
C1116 C 0.35968 0.23718 0.16684 0.0
H1117 H 0.3541 0.28029 0.02318 0.0
H1118 H 0.35846 0.27475 0.08705 0.0
H1119 H 0.36599 0.2355 0.11132 0.0
H1120 H 0.34012 0.21287 0.26926 0.0
H1121 H 0.34586 0.22097 0.20936 0.0
H1122 H 0.34294 0.26091 0.20025 0.0
C1123 C 0.35623 0.2676 0.0676 0.0
C1124 C 0.36105 0.24118 0.13058 0.0
C1125 C 0.35382 0.27076 0.03098 0.0
C1126 C 0.34302 0.2223 0.26744 0.0
C1127 C 0.34642 0.2269 0.23313 0.0
C1128 C 0.34824 0.25542 0.18135 0.0
C1129 C 0.35524 0.25541 0.07928 0.0
C1130 C 0.3557 0.25218 0.11898 0.0
C1131 C 0.35012 0.2391 0.22934 0.0
C1132 C 0.35297 0.24409 0.19234 0.0
H1133 H 0.34746 0.2424 0.9976 0.0
H1134 H 0.35157 0.23693 0.06111 0.0
H1135 H 0.34521 0.26785 0.13697 0.0
H1136 H 0.34749 0.24794 0.31884 0.0
H1137 H 0.35337 0.25599 0.25873 0.0
C1138 C 0.00766 0.09769 0.54359 0.0
C1139 C 0.01975 0.0936 0.54725 0.0
C1140 C 0.00304 0.10094 0.50909 0.0
C1141 C 0.01235 0.10937 0.41445 0.0
H1142 H 0.98122 0.09547 0.38639 0.0
C1143 C 0.99902 0.09954 0.26501 0.0
C1144 C 0.98671 0.09996 0.25446 0.0
C1145 C 0.00242 0.10204 0.30123 0.0
C1146 C 0.98979 0.09968 0.39394 0.0
H1147 H 0.03652 0.08993 0.51756 0.0
H1148 H 0.02842 0.0955 0.45749 0.0
H1149 H 0.98838 0.09335 0.44948 0.0
H1150 H 0.9684 0.10416 0.27298 0.0
H1151 H 0.97437 0.10863 0.33641 0.0
H1152 H 0.01393 0.11539 0.3586 0.0
C1153 C 0.02255 0.09632 0.48133 0.0
C1154 C 0.99391 0.09843 0.43014 0.0
C1155 C 0.02716 0.09302 0.51574 0.0
C1156 C 0.97795 0.10372 0.28031 0.0
C1157 C 0.98136 0.10619 0.31669 0.0
C1158 C 0.00822 0.11066 0.37827 0.0
C1159 C 0.01042 0.10024 0.47756 0.0
C1160 C 0.00539 0.10296 0.44052 0.0
C1161 C 0.99359 0.105 0.3278 0.0
C1162 C 0.99705 0.10552 0.36734 0.0
H1163 H 0.00172 0.09829 0.56732 0.0
H1164 H 0.99368 0.10401 0.50709 0.0
H1165 H 0.02113 0.11317 0.42183 0.0
H1166 H 0.00599 0.09672 0.24572 0.0
H1167 H 0.0119 0.10092 0.30883 0.0
C1168 C 0.85367 0.726 0.03178 0.0
C1169 C 0.85057 0.73523 0.00662 0.0
C1170 C 0.85622 0.72889 0.06853 0.0
C1171 C 0.86236 0.75478 0.1324 0.0
H1172 H 0.84316 0.73585 0.20143 0.0
C1173 C 0.84467 0.77445 0.26836 0.0
C1174 C 0.84438 0.76702 0.29985 0.0
C1175 C 0.84808 0.76966 0.23431 0.0
C1176 C 0.84877 0.7411 0.18271 0.0
H1177 H 0.8486 0.75476 -0.00046 0.0
H1178 H 0.85298 0.75977 0.06326 0.0
H1179 H 0.84516 0.72894 0.138 0.0
H1180 H 0.84764 0.74872 0.32029 0.0
H1181 H 0.85353 0.74032 0.26054 0.0
H1182 H 0.86552 0.7672 0.17683 0.0
C1183 C 0.8535 0.75031 0.05484 0.0
C1184 C 0.84995 0.73712 0.14633 0.0
C1185 C 0.8509 0.74743 0.01828 0.0
C1186 C 0.84773 0.75469 0.29655 0.0
C1187 C 0.85107 0.74987 0.26234 0.0
C1188 C 0.86115 0.75876 0.16874 0.0
C1189 C 0.85581 0.74106 0.08067 0.0
C1190 C 0.85645 0.74411 0.12048 0.0
C1191 C 0.85125 0.7573 0.23084 0.0
C1192 C 0.85404 0.75216 0.19398 0.0
H1193 H 0.85352 0.71651 0.0236 0.0
H1194 H 0.85812 0.72157 0.08769 0.0
H1195 H 0.86761 0.76025 0.11332 0.0
H1196 H 0.84218 0.78399 0.26989 0.0
H1197 H 0.84792 0.77559 0.21047 0.0
C1198 C 0.97005 0.09309 0.01966 0.0
C1199 C 0.97836 0.09258 0.04905 0.0
C1200 C 0.97406 0.09552 0.98398 0.0
C1201 C 5e-05 0.10726 0.92907 0.0
H1202 H 0.98576 0.08696 0.85314 0.0
C1203 C 0.02007 0.10059 0.78202 0.0
C1204 C 0.01172 0.09871 0.75322 0.0
C1205 C 0.01593 0.10213 0.81819 0.0
C1206 C 0.9897 0.09287 0.87383 0.0
H1207 H 0.99739 0.09455 0.0641 0.0
H1208 H 0.00445 0.09854 0.00147 0.0
H1209 H 0.97877 0.08499 0.91614 0.0
H1210 H 0.99254 0.09812 0.73905 0.0
H1211 H 0.98533 0.10109 0.80175 0.0
H1212 H 0.0112 0.11493 0.88638 0.0
C1213 C 0.99479 0.09723 0.0062 0.0
C1214 C 0.9857 0.09173 0.91004 0.0
C1215 C 0.99076 0.09486 0.04205 0.0
C1216 C 0.99919 0.09939 0.76075 0.0
C1217 C 0.99507 0.10101 0.79671 0.0
C1218 C 0.0041 0.10839 0.89265 0.0
C1219 C 0.9865 0.0974 0.97668 0.0
C1220 C 0.99079 0.09891 0.93813 0.0
C1221 C 0.00337 0.10187 0.82604 0.0
C1222 C 0.99893 0.10122 0.86462 0.0
H1223 H 0.96041 0.09154 0.02412 0.0
H1224 H 0.96739 0.09584 0.96201 0.0
H1225 H 0.00409 0.11299 0.95005 0.0
H1226 H 0.02979 0.1001 0.77703 0.0
H1227 H 0.02256 0.10276 0.84019 0.0
C1228 C 0.65142 0.27186 0.5343 0.0
C1229 C 0.65334 0.26344 0.50572 0.0
C1230 C 0.64957 0.26779 0.57043 0.0
C1231 C 0.65778 0.24141 0.62706 0.0
H1232 H 0.63714 0.25614 0.70137 0.0
C1233 C 0.65537 0.22138 0.7721 0.0
C1234 C 0.65588 0.22959 0.80174 0.0
C1235 C 0.65338 0.22556 0.73635 0.0
C1236 C 0.64301 0.252 0.68093 0.0
H1237 H 0.65368 0.24422 0.49184 0.0
H1238 H 0.65018 0.23716 0.55442 0.0
H1239 H 0.63609 0.26339 0.63762 0.0
H1240 H 0.65428 0.24863 0.81719 0.0
H1241 H 0.65103 0.25597 0.75445 0.0
H1242 H 0.6649 0.23022 0.66998 0.0
C1243 C 0.65048 0.24688 0.54928 0.0
C1244 C 0.64239 0.25613 0.64446 0.0
C1245 C 0.65241 0.25093 0.51338 0.0
C1246 C 0.65396 0.24207 0.79494 0.0
C1247 C 0.65203 0.24627 0.75901 0.0
C1248 C 0.6584 0.23732 0.6633 0.0
C1249 C 0.64954 0.25524 0.57845 0.0
C1250 C 0.64975 0.25083 0.61711 0.0
C1251 C 0.65193 0.23808 0.72925 0.0
C1252 C 0.65101 0.24251 0.69069 0.0
H1253 H 0.6521 0.28156 0.52919 0.0
H1254 H 0.6489 0.27446 0.59231 0.0
H1255 H 0.66382 0.23734 0.60693 0.0
H1256 H 0.65664 0.21169 0.77639 0.0
H1257 H 0.65309 0.21898 0.71416 0.0
C1258 C 0.50086 0.90015 0.25257 0.0
C1259 C 0.48828 0.90088 0.24582 0.0
C1260 C 0.50521 0.89815 0.28814 0.0
C1261 C 0.49661 0.88997 0.38401 0.0
H1262 H 0.52193 0.9133 0.40826 0.0
C1263 C 0.5094 0.90346 0.53365 0.0
C1264 C 0.52173 0.90593 0.54119 0.0
C1265 C 0.50558 0.90098 0.49767 0.0
C1266 C 0.51502 0.90657 0.40195 0.0
H1267 H 0.47037 0.89918 0.27049 0.0
H1268 H 0.47798 0.89588 0.3329 0.0
H1269 H 0.51492 0.91158 0.34523 0.0
H1270 H 0.53979 0.90713 0.51711 0.0
H1271 H 0.53317 0.90262 0.45472 0.0
H1272 H 0.49662 0.88517 0.44125 0.0
C1273 C 0.48449 0.89674 0.31063 0.0
C1274 C 0.511 0.90557 0.3657 0.0
C1275 C 0.48012 0.89865 0.27487 0.0
C1276 C 0.5302 0.90544 0.51222 0.0
C1277 C 0.5264 0.90289 0.47639 0.0
C1278 C 0.50067 0.89096 0.42045 0.0
C1279 C 0.49708 0.89696 0.31783 0.0
C1280 C 0.50173 0.89729 0.35625 0.0
C1281 C 0.51402 0.90085 0.46854 0.0
C1282 C 0.5099 0.89932 0.42982 0.0
H1283 H 0.50738 0.90167 0.23065 0.0
H1284 H 0.51497 0.89805 0.29263 0.0
H1285 H 0.48949 0.88347 0.37756 0.0
H1286 H 0.50265 0.90375 0.55537 0.0
H1287 H 0.49596 0.89956 0.49254 0.0
C1288 C 0.83581 0.22584 0.23058 0.0
C1289 C 0.84152 0.23019 0.19863 0.0
C1290 C 0.839 0.23042 0.26505 0.0
C1291 C 0.85484 0.25619 0.3115 0.0
H1292 H 0.85224 0.23419 0.3945 0.0
C1293 C 0.85031 0.27316 0.46088 0.0
C1294 C 0.85282 0.26511 0.48986 0.0
C1295 C 0.85201 0.26948 0.42438 0.0
C1296 C 0.85334 0.24048 0.3718 0.0
H1297 H 0.85509 0.24276 0.17765 0.0
H1298 H 0.86103 0.25048 0.23811 0.0
H1299 H 0.84932 0.22645 0.3331 0.0
H1300 H 0.86028 0.24748 0.50409 0.0
H1301 H 0.8642 0.24138 0.44074 0.0
H1302 H 0.85936 0.27013 0.35033 0.0
C1303 C 0.85385 0.24373 0.23651 0.0
C1304 C 0.85137 0.23605 0.33635 0.0
C1305 C 0.85048 0.23928 0.20184 0.0
C1306 C 0.85816 0.2538 0.48207 0.0
C1307 C 0.86023 0.25026 0.44568 0.0
C1308 C 0.85708 0.26059 0.34704 0.0
C1309 C 0.84819 0.23931 0.26862 0.0
C1310 C 0.85168 0.2439 0.3058 0.0
C1311 C 0.85654 0.25776 0.41623 0.0
C1312 C 0.85602 0.25287 0.37786 0.0
H1313 H 0.82876 0.21894 0.22896 0.0
H1314 H 0.83414 0.22704 0.28889 0.0
H1315 H 0.85517 0.26254 0.28871 0.0
H1316 H 0.84608 0.28191 0.46626 0.0
H1317 H 0.84895 0.27554 0.40277 0.0
C1318 C 0.49691 0.10573 0.23679 0.0
C1319 C 0.48522 0.10112 0.24369 0.0
C1320 C 0.5008 0.10781 0.20071 0.0
C1321 C 0.49068 0.10642 0.10152 0.0
H1322 H 0.52433 0.09679 0.08752 0.0
C1323 C 0.52444 0.0847 0.98309 0.0
C1324 C 0.52036 0.09097 0.95179 0.0
C1325 C 0.52005 0.08774 0.01793 0.0
C1326 C 0.51487 0.09936 0.09077 0.0
H1327 H 0.46816 0.09567 0.21873 0.0
H1328 H 0.47507 0.09858 0.15582 0.0
H1329 H 0.51656 0.09938 0.14906 0.0
H1330 H 0.50853 0.10543 0.93236 0.0
H1331 H 0.50121 0.11111 0.99345 0.0
H1332 H 0.48882 0.10539 0.043 0.0
C1333 C 0.4812 0.10105 0.17793 0.0
C1334 C 0.51044 0.10114 0.12633 0.0
C1335 C 0.4772 0.09933 0.21411 0.0
C1336 C 0.51178 0.10038 0.95603 0.0
C1337 C 0.50755 0.10359 0.99107 0.0
C1338 C 0.49507 0.10438 0.06586 0.0
C1339 C 0.49322 0.10489 0.17064 0.0
C1340 C 0.49822 0.1045 0.13238 0.0
C1341 C 0.51165 0.09732 0.02255 0.0
C1342 C 0.50716 0.10056 0.06006 0.0
H1343 H 0.50322 0.10731 0.25924 0.0
H1344 H 0.50995 0.11122 0.19647 0.0
H1345 H 0.4813 0.10925 0.10481 0.0
H1346 H 0.53094 0.07731 0.98066 0.0
H1347 H 0.52317 0.08243 0.04121 0.0
C1348 C 0.64565 0.72861 0.96771 0.0
C1349 C 0.64933 0.73744 0.99344 0.0
C1350 C 0.6432 0.73192 0.93125 0.0
C1351 C 0.63869 0.7586 0.86904 0.0
H1352 H 0.65633 0.73875 0.79861 0.0
C1353 C 0.65686 0.7775 0.73234 0.0
C1354 C 0.65647 0.7701 0.70079 0.0
C1355 C 0.65338 0.77289 0.76657 0.0
C1356 C 0.65115 0.74428 0.81772 0.0
H1357 H 0.65245 0.75677 0.00184 0.0
H1358 H 0.64828 0.76251 0.93857 0.0
H1359 H 0.65407 0.73169 0.86175 0.0
H1360 H 0.65193 0.75206 0.68044 0.0
H1361 H 0.64592 0.74398 0.74042 0.0
H1362 H 0.63623 0.77142 0.82523 0.0
C1363 C 0.64721 0.75304 0.94634 0.0
C1364 C 0.64982 0.74022 0.85395 0.0
C1365 C 0.64969 0.74973 0.98266 0.0
C1366 C 0.65238 0.758 0.70422 0.0
C1367 C 0.64896 0.75336 0.73856 0.0
C1368 C 0.64005 0.76268 0.83284 0.0
C1369 C 0.64434 0.74413 0.91991 0.0
C1370 C 0.64387 0.74749 0.88029 0.0
C1371 C 0.64947 0.76075 0.77013 0.0
C1372 C 0.64659 0.75571 0.80706 0.0
H1373 H 0.64525 0.71906 0.97522 0.0
H1374 H 0.64083 0.72487 0.91164 0.0
H1375 H 0.63387 0.76432 0.88851 0.0
H1376 H 0.65993 0.78687 0.73071 0.0
H1377 H 0.65406 0.77876 0.79045 0.0
C1378 C 0.96982 0.90525 0.47846 0.0
C1379 C 0.97816 0.90601 0.44921 0.0
C1380 C 0.97383 0.90275 0.51411 0.0
C1381 C -2e-05 0.89138 0.5691 0.0
H1382 H 0.98534 0.91141 0.64506 0.0
C1383 C 0.02006 0.89861 0.71576 0.0
C1384 C 0.01175 0.90047 0.74463 0.0
C1385 C 0.01587 0.89687 0.67972 0.0
C1386 C 0.98938 0.90557 0.62438 0.0
H1387 H 0.99723 0.90438 0.4343 0.0
H1388 H 0.00428 0.90027 0.49687 0.0
H1389 H 0.9783 0.91324 0.58211 0.0
H1390 H 0.99258 0.90078 0.75916 0.0
H1391 H 0.9853 0.89745 0.69669 0.0
H1392 H 0.01129 0.88393 0.61176 0.0
C1393 C 0.99461 0.90144 0.49207 0.0
C1394 C 0.98534 0.90663 0.58818 0.0
C1395 C 0.99058 0.90388 0.45626 0.0
C1396 C 0.99921 0.89954 0.73738 0.0
C1397 C 0.99504 0.89771 0.70154 0.0
C1398 C 0.00406 0.89032 0.60552 0.0
C1399 C 0.98629 0.90105 0.5215 0.0
C1400 C 0.99057 0.89956 0.56006 0.0
C1401 C 0.0033 0.8969 0.67208 0.0
C1402 C 0.99878 0.89741 0.63356 0.0
H1403 H 0.96017 0.90667 0.47395 0.0
H1404 H 0.96714 0.90226 0.536 0.0
H1405 H 0.00413 0.88573 0.5481 0.0
H1406 H 0.02978 0.89929 0.72055 0.0
H1407 H 0.02247 0.89629 0.65762 0.0
C1408 C 0.65113 0.74973 0.48772 0.0
C1409 C 0.65172 0.76228 0.49516 0.0
C1410 C 0.64949 0.74556 0.45181 0.0
C1411 C 0.64174 0.75439 0.35608 0.0
H1412 H 0.66545 0.72942 0.33207 0.0
C1413 C 0.65484 0.74123 0.20635 0.0
C1414 C 0.65735 0.72888 0.1992 0.0
C1415 C 0.65258 0.74521 0.2423 0.0
C1416 C 0.65863 0.73624 0.33831 0.0
H1417 H 0.65012 0.78031 0.47127 0.0
H1418 H 0.64739 0.773 0.40819 0.0
H1419 H 0.66357 0.73642 0.39509 0.0
H1420 H 0.65892 0.71096 0.22402 0.0
H1421 H 0.6548 0.71785 0.28637 0.0
H1422 H 0.63693 0.75425 0.29885 0.0
C1423 C 0.64813 0.76639 0.43023 0.0
C1424 C 0.65754 0.74026 0.37453 0.0
C1425 C 0.64971 0.77058 0.46634 0.0
C1426 C 0.65719 0.72056 0.22859 0.0
C1427 C 0.65487 0.72452 0.2644 0.0
C1428 C 0.6428 0.75032 0.31966 0.0
C1429 C 0.64848 0.75384 0.42246 0.0
C1430 C 0.64909 0.74937 0.38391 0.0
C1431 C 0.65273 0.73692 0.27181 0.0
C1432 C 0.65127 0.74119 0.3104 0.0
H1433 H 0.65249 0.7431 0.50944 0.0
H1434 H 0.64949 0.73582 0.44683 0.0
H1435 H 0.63512 0.7614 0.3625 0.0
H1436 H 0.65488 0.74787 0.1843 0.0
H1437 H 0.65109 0.75484 0.24708 0.0
C1438 C 0.48167 0.39268 0.72126 0.0
C1439 C 0.48849 0.40046 0.74406 0.0
C1440 C 0.48584 0.38974 0.68589 0.0
C1441 C 0.51303 0.39308 0.62356 0.0
H1442 H 0.48848 0.39285 0.547 0.0
C1443 C 0.52736 0.39588 0.47174 0.0
C1444 C 0.51993 0.40277 0.44825 0.0
C1445 C 0.52323 0.39249 0.50664 0.0
C1446 C 0.49549 0.39304 0.56793 0.0
H1447 H 0.50522 0.4109 0.74815 0.0
H1448 H 0.51218 0.40631 0.68675 0.0
H1449 H 0.48225 0.39272 0.61098 0.0
H1450 H 0.50231 0.41141 0.44231 0.0
H1451 H 0.49536 0.40631 0.50394 0.0
H1452 H 0.52624 0.39458 0.58095 0.0
C1453 C 0.50382 0.40208 0.69603 0.0
C1454 C 0.4919 0.3927 0.60486 0.0
C1455 C 0.49976 0.40483 0.73141 0.0
C1456 C 0.50819 0.40603 0.45992 0.0
C1457 C 0.50419 0.40298 0.49525 0.0
C1458 C 0.51661 0.39375 0.58675 0.0
C1459 C 0.49683 0.39469 0.67242 0.0
C1460 C 0.50062 0.39307 0.63325 0.0
C1461 C 0.5117 0.39627 0.51939 0.0
C1462 C 0.50789 0.39404 0.55833 0.0
H1463 H 0.47297 0.38911 0.73034 0.0
H1464 H 0.48032 0.38382 0.66888 0.0
H1465 H 0.52006 0.39301 0.64447 0.0
H1466 H 0.53639 0.39309 0.46308 0.0
H1467 H 0.52918 0.38701 0.5237 0.0
C1468 C 0.84386 0.25718 0.70666 0.0
C1469 C 0.84726 0.26893 0.69552 0.0
C1470 C 0.84649 0.25313 0.74228 0.0
C1471 C 0.8547 0.26552 0.83478 0.0
H1472 H 0.85538 0.23117 0.85933 0.0
C1473 C 0.84299 0.24908 0.97939 0.0
C1474 C 0.84752 0.23797 0.99281 0.0
C1475 C 0.84564 0.2529 0.94372 0.0
C1476 C 0.85548 0.24081 0.85312 0.0
H1477 H 0.85678 0.28537 0.71156 0.0
H1478 H 0.86215 0.27807 0.77266 0.0
H1479 H 0.85583 0.23735 0.79527 0.0
H1480 H 0.8589 0.22241 0.97992 0.0
H1481 H 0.86403 0.22934 0.91784 0.0
H1482 H 0.85496 0.26901 0.89249 0.0
C1483 C 0.85686 0.27215 0.75499 0.0
C1484 C 0.85548 0.24438 0.81614 0.0
C1485 C 0.85388 0.27633 0.71981 0.0
C1486 C 0.85524 0.231 0.97026 0.0
C1487 C 0.85808 0.23494 0.93456 0.0
C1488 C 0.85502 0.26197 0.87163 0.0
C1489 C 0.8529 0.26061 0.76722 0.0
C1490 C 0.85465 0.25679 0.80638 0.0
C1491 C 0.85311 0.24584 0.92055 0.0
C1492 C 0.85492 0.24956 0.8814 0.0
H1493 H 0.8387 0.25133 0.68838 0.0
H1494 H 0.84305 0.2443 0.7505 0.0
H1495 H 0.85395 0.27515 0.8289 0.0
H1496 H 0.83693 0.25464 0.99588 0.0
H1497 H 0.84136 0.26118 0.93397 0.0
C1498 C 0.02074 0.601 0.21536 0.0
C1499 C 0.01257 0.59877 0.24438 0.0
C1500 C 0.01639 0.6028 0.17951 0.0
C1501 C 0.99007 0.59365 0.12421 0.0
H1502 H 0.00372 0.61477 0.04926 0.0
C1503 C 0.97012 0.59438 0.97859 0.0
C1504 C 0.97841 0.59444 0.94911 0.0
C1505 C 0.97409 0.59667 0.01442 0.0
C1506 C -0.00012 0.60876 0.06987 0.0
H1507 H 0.99345 0.59783 0.25934 0.0
H1508 H 0.9859 0.60121 0.19721 0.0
H1509 H 0.01106 0.61625 0.1128 0.0
H1510 H 0.99733 0.59727 0.93406 0.0
H1511 H 0.00432 0.60098 0.99686 0.0
H1512 H 0.97915 0.58591 0.08163 0.0
C1513 C 0.99566 0.60122 0.20182 0.0
C1514 C 0.00406 0.60964 0.10622 0.0
C1515 C -1e-05 0.59935 0.23746 0.0
C1516 C 0.99071 0.59714 0.95618 0.0
C1517 C 0.99471 0.59935 0.99216 0.0
C1518 C 0.98594 0.59275 0.08804 0.0
C1519 C 0.0038 0.60245 0.17221 0.0
C1520 C 0.99917 0.60209 0.13379 0.0
C1521 C 0.98646 0.59896 0.02177 0.0
C1522 C 0.99078 0.60028 0.06038 0.0
H1523 H 0.03049 0.60059 0.21987 0.0
H1524 H 0.0229 0.60371 0.15727 0.0
H1525 H 0.98633 0.58747 0.14455 0.0
H1526 H 0.96055 0.59249 0.97407 0.0
H1527 H 0.96744 0.59655 0.03647 0.0
C1528 C 0.65386 0.2581 0.29702 0.0
C1529 C 0.65784 0.27025 0.29999 0.0
C1530 C 0.65026 0.25336 0.26295 0.0
C1531 C 0.64056 0.26243 0.16919 0.0
H1532 H 0.6546 0.23153 0.13961 0.0
C1533 C 0.64912 0.24943 0.01887 0.0
C1534 C 0.64877 0.23713 0.00814 0.0
C1535 C 0.64692 0.25274 0.05534 0.0
C1536 C 0.65035 0.24003 0.14763 0.0
H1537 H 0.66096 0.28699 0.26956 0.0
H1538 H 0.65478 0.2787 0.21032 0.0
H1539 H 0.6573 0.2387 0.20253 0.0
H1540 H 0.64499 0.21873 0.02671 0.0
H1541 H 0.64104 0.22454 0.09061 0.0
H1542 H 0.63392 0.26394 0.11397 0.0
C1543 C 0.65431 0.27287 0.23434 0.0
C1544 C 0.65194 0.24416 0.18372 0.0
C1545 C 0.65797 0.27759 0.26828 0.0
C1546 C 0.64536 0.22828 0.03416 0.0
C1547 C 0.64319 0.2316 0.0708 0.0
C1548 C 0.63894 0.25829 0.13314 0.0
C1549 C 0.65049 0.26068 0.23123 0.0
C1550 C 0.64736 0.25557 0.19457 0.0
C1551 C 0.64432 0.24382 0.08201 0.0
C1552 C 0.64413 0.24721 0.12164 0.0
H1553 H 0.65361 0.25221 0.32093 0.0
H1554 H 0.64729 0.24395 0.26145 0.0
H1555 H 0.63672 0.27116 0.17697 0.0
H1556 H 0.65168 0.25648 -0.00053 0.0
H1557 H 0.64798 0.26222 0.06299 0.0
C1558 C 0.99151 0.40583 0.54083 0.0
C1559 C 0.97911 0.40814 0.54767 0.0
C1560 C 0.99558 0.40338 0.50505 0.0
C1561 C 0.98648 0.40867 0.40876 0.0
H1562 H 0.01196 0.38542 0.38535 0.0
C1563 C 0.99935 0.40025 0.25952 0.0
C1564 C 0.01184 0.40105 0.25141 0.0
C1565 C 0.99542 0.39877 0.29573 0.0
C1566 C 0.00486 0.39196 0.39156 0.0
H1567 H 0.96118 0.40911 0.52261 0.0
H1568 H 0.9682 0.40466 0.46068 0.0
H1569 H 0.00496 0.38756 0.44911 0.0
H1570 H 0.03003 0.4 0.27443 0.0
H1571 H 0.02314 0.39756 0.33806 0.0
H1572 H 0.9864 0.41322 0.35169 0.0
C1573 C 0.97486 0.40504 0.48267 0.0
C1574 C 0.00087 0.39321 0.42803 0.0
C1575 C 0.97082 0.40755 0.51825 0.0
C1576 C 0.02035 0.39941 0.2799 0.0
C1577 C 0.0164 0.398 0.31632 0.0
C1578 C 0.99041 0.4074 0.37252 0.0
C1579 C 0.9873 0.40315 0.47548 0.0
C1580 C 0.9916 0.40157 0.43697 0.0
C1581 C 0.00388 0.39816 0.32471 0.0
C1582 C 0.99961 0.39901 0.36341 0.0
H1583 H 0.99813 0.40619 0.56293 0.0
H1584 H 0.00523 0.40206 0.5004 0.0
H1585 H 0.97955 0.41542 0.41474 0.0
H1586 H 0.99258 0.40132 0.23807 0.0
H1587 H 0.98572 0.39861 0.30122 0.0
C1588 C 0.8472 0.74289 0.79635 0.0
C1589 C 0.84349 0.73068 0.8 0.0
C1590 C 0.8504 0.74759 0.76187 0.0
C1591 C 0.85958 0.73835 0.66786 0.0
H1592 H 0.84455 0.76876 0.63795 0.0
C1593 C 0.84969 0.75034 0.51763 0.0
C1594 C 0.84977 0.76257 0.50621 0.0
C1595 C 0.85213 0.7473 0.55416 0.0
C1596 C 0.84907 0.7604 0.64604 0.0
H1597 H 0.84044 0.71378 0.77034 0.0
H1598 H 0.84594 0.72197 0.71038 0.0
H1599 H 0.84249 0.76183 0.70135 0.0
H1600 H 0.85326 0.78116 0.5236 0.0
H1601 H 0.85761 0.77582 0.58766 0.0
H1602 H 0.86585 0.73674 0.61229 0.0
C1603 C 0.84649 0.7279 0.73418 0.0
C1604 C 0.84786 0.75641 0.68239 0.0
C1605 C 0.84322 0.72323 0.76853 0.0
C1606 C 0.85309 0.77165 0.5316 0.0
C1607 C 0.8555 0.7686 0.56833 0.0
C1608 C 0.86083 0.74236 0.63156 0.0
C1609 C 0.85005 0.74014 0.73041 0.0
C1610 C 0.85279 0.74517 0.69339 0.0
C1611 C 0.8547 0.75642 0.58021 0.0
C1612 C 0.85527 0.75325 0.61994 0.0
H1613 H 0.84755 0.74887 0.82005 0.0
H1614 H 0.85317 0.75704 0.75983 0.0
H1615 H 0.86369 0.72976 0.67574 0.0
H1616 H 0.8472 0.74313 0.49871 0.0
H1617 H 0.85131 0.73785 0.56235 0.0
C1618 C 0.51059 0.59281 0.04601 0.0
C1619 C 0.52281 0.58963 0.0526 0.0
C1620 C 0.50642 0.59475 0.01007 0.0
C1621 C 0.51408 0.58696 0.914 0.0
H1622 H 0.491 0.61241 0.88889 0.0
C1623 C 0.50151 0.59556 0.7641 0.0
C1624 C 0.489 0.59629 0.75615 0.0
C1625 C 0.50567 0.59657 0.80024 0.0
C1626 C 0.4974 0.60523 0.89558 0.0
H1627 H 0.54032 0.58637 0.02659 0.0
H1628 H 0.53311 0.58991 0.96426 0.0
H1629 H 0.49816 0.61041 0.95247 0.0
H1630 H 0.47111 0.59947 0.77958 0.0
H1631 H 0.47839 0.60113 0.84306 0.0
H1632 H 0.51331 0.58169 0.8575 0.0
C1633 C 0.52667 0.59066 0.98672 0.0
C1634 C 0.50148 0.60406 0.93196 0.0
C1635 C 0.53082 0.58868 0.02254 0.0
C1636 C 0.48081 0.59887 0.78486 0.0
C1637 C 0.48498 0.59983 0.82121 0.0
C1638 C 0.51005 0.58814 0.8778 0.0
C1639 C 0.51439 0.59357 0.97997 0.0
C1640 C 0.50992 0.59493 0.94153 0.0
C1641 C 0.49741 0.59826 0.82937 0.0
C1642 C 0.50171 0.59732 0.86806 0.0
H1643 H 0.50418 0.59363 0.06856 0.0
H1644 H 0.49688 0.59687 0.00581 0.0
H1645 H 0.52034 0.57964 0.92052 0.0
H1646 H 0.50808 0.59372 0.74254 0.0
H1647 H 0.51534 0.59561 0.80553 0.0
C1648 C 0.35259 0.22653 0.5309 0.0
C1649 C 0.34921 0.23553 0.50532 0.0
C1650 C 0.35498 0.22967 0.56755 0.0
C1651 C 0.36013 0.25605 0.63039 0.0
H1652 H 0.34196 0.23651 0.70041 0.0
C1653 C 0.34281 0.27509 0.76793 0.0
C1654 C 0.34313 0.2676 0.79929 0.0
C1655 C 0.34598 0.27045 0.73344 0.0
C1656 C 0.34727 0.24195 0.6814 0.0
H1657 H 0.34653 0.25494 0.49743 0.0
H1658 H 0.35061 0.26038 0.561 0.0
H1659 H 0.344 0.22956 0.63705 0.0
H1660 H 0.34719 0.24937 0.81902 0.0
H1661 H 0.35266 0.24127 0.75861 0.0
H1662 H 0.36297 0.26867 0.67451 0.0
C1663 C 0.35149 0.25092 0.55297 0.0
C1664 C 0.34848 0.23795 0.64506 0.0
C1665 C 0.34906 0.24778 0.51649 0.0
C1666 C 0.3468 0.25538 0.7954 0.0
C1667 C 0.34991 0.25072 0.76081 0.0
C1668 C 0.35889 0.26006 0.6667 0.0
C1669 C 0.3541 0.24187 0.5792 0.0
C1670 C 0.35463 0.24512 0.61889 0.0
C1671 C 0.34951 0.25821 0.72945 0.0
C1672 C 0.35217 0.25322 0.69233 0.0
H1673 H 0.35281 0.217 0.52309 0.0
H1674 H 0.35713 0.22251 0.58701 0.0
H1675 H 0.3651 0.26168 0.61106 0.0
H1676 H 0.34005 0.28454 0.76991 0.0
H1677 H 0.34539 0.27641 0.70973 0.0
C1678 C 0.47399 0.59515 0.51763 0.0
C1679 C 0.48127 0.59498 0.54945 0.0
C1680 C 0.4789 0.59855 0.48373 0.0
C1681 C 0.50783 0.59947 0.43374 0.0
H1682 H 0.48874 0.61738 0.36198 0.0
C1683 C 0.52405 0.60389 0.28384 0.0
C1684 C 0.51515 0.60033 0.25816 0.0
C1685 C 0.52076 0.60662 0.32016 0.0
C1686 C 0.4942 0.6124 0.38174 0.0
H1687 H 0.49943 0.59852 0.57064 0.0
H1688 H 0.50803 0.60444 0.51122 0.0
H1689 H 0.48138 0.61554 0.42515 0.0
H1690 H 0.49575 0.59775 0.24964 0.0
H1691 H 0.49005 0.60246 0.31263 0.0
H1692 H 0.52041 0.59592 0.39008 0.0
C1693 C 0.49851 0.60186 0.51261 0.0
C1694 C 0.48998 0.61132 0.41788 0.0
C1695 C 0.49357 0.5985 0.54664 0.0
C1696 C 0.50284 0.60041 0.26879 0.0
C1697 C 0.49955 0.60319 0.30493 0.0
C1698 C 0.51205 0.60054 0.39758 0.0
C1699 C 0.49124 0.60185 0.48073 0.0
C1700 C 0.49657 0.60453 0.444 0.0
C1701 C 0.50851 0.60593 0.33136 0.0
C1702 C 0.5051 0.6067 0.3709 0.0
H1703 H 0.46448 0.59252 0.51875 0.0
H1704 H 0.4731 0.59825 0.45963 0.0
H1705 H 0.51308 0.5941 0.45309 0.0
H1706 H 0.53361 0.60394 0.27646 0.0
H1707 H 0.52785 0.60886 0.33977 0.0
C1708 C 0.15553 0.72109 0.26879 0.0
C1709 C 0.15606 0.72935 0.29829 0.0
C1710 C 0.15317 0.72517 0.23313 0.0
C1711 C 0.14167 0.75128 0.17833 0.0
H1712 H 0.16202 0.73697 0.10258 0.0
C1713 C 0.14855 0.77136 0.0314 0.0
C1714 C 0.15046 0.76302 0.00259 0.0
C1715 C 0.14697 0.7672 0.06754 0.0
C1716 C 0.1561 0.74093 0.12321 0.0
H1717 H 0.15417 0.74838 0.31358 0.0
H1718 H 0.1503 0.75555 0.25098 0.0
H1719 H 0.16387 0.72993 0.16555 0.0
H1720 H 0.15104 0.74384 0.98836 0.0
H1721 H 0.148 0.73662 0.051 0.0
H1722 H 0.13411 0.76249 0.1356 0.0
C1723 C 0.15155 0.74588 0.2556 0.0
C1724 C 0.15717 0.73689 0.15942 0.0
C1725 C 0.15385 0.74178 0.29143 0.0
C1726 C 0.14976 0.75049 0.01007 0.0
C1727 C 0.14809 0.74635 0.04601 0.0
C1728 C 0.14061 0.75536 0.14191 0.0
C1729 C 0.15138 0.73763 0.22596 0.0
C1730 C 0.14996 0.74198 0.18744 0.0
C1731 C 0.14721 0.75465 0.07536 0.0
C1732 C 0.1478 0.75019 0.11394 0.0
H1733 H 0.15702 0.71143 0.27313 0.0
H1734 H 0.15285 0.71853 0.21107 0.0
H1735 H 0.13592 0.75533 0.19925 0.0
H1736 H 0.14906 0.78108 0.02645 0.0
H1737 H 0.14632 0.77383 0.08955 0.0
C1738 C 0.97641 0.39652 0.77826 0.0
C1739 C 0.98557 0.39983 0.75312 0.0
C1740 C 0.9794 0.39365 0.81471 0.0
C1741 C 0.00548 0.38713 0.87758 0.0
H1742 H 0.98669 0.40588 0.94807 0.0
C1743 C 0.02547 0.40448 0.01358 0.0
C1744 C 0.01811 0.40469 0.04523 0.0
C1745 C 0.02062 0.40105 0.97962 0.0
C1746 C 0.9919 0.40038 0.92894 0.0
H1747 H 0.00508 0.40184 0.74567 0.0
H1748 H 0.01026 0.39692 0.80888 0.0
H1749 H 0.97959 0.40418 0.88478 0.0
H1750 H -9e-05 0.4012 0.06609 0.0
H1751 H 0.99141 0.39528 0.00652 0.0
H1752 H 0.01807 0.3838 0.92148 0.0
C1753 C 0.00078 0.39647 0.80068 0.0
C1754 C 0.98782 0.39938 0.89264 0.0
C1755 C 0.9978 0.39939 0.76441 0.0
C1756 C 0.00582 0.40119 0.04222 0.0
C1757 C 0.00094 0.39782 0.00811 0.0
C1758 C 0.00958 0.38816 0.91385 0.0
C1759 C 0.9916 0.39396 0.82657 0.0
C1760 C 0.99476 0.39306 0.86626 0.0
C1761 C 0.00828 0.39779 0.97641 0.0
C1762 C 0.00303 0.39512 0.93963 0.0
H1763 H 0.96689 0.39676 0.77034 0.0
H1764 H 0.97213 0.3916 0.8339 0.0
H1765 H 0.01092 0.38202 0.85807 0.0
H1766 H 0.03499 0.40708 0.01491 0.0
H1767 H 0.02648 0.40131 0.95562 0.0
C1768 C 0.34905 0.74945 0.9915 0.0
C1769 C 0.34857 0.76205 0.99817 0.0
C1770 C 0.35078 0.74503 0.95588 0.0
C1771 C 0.35861 0.75339 0.85954 0.0
H1772 H 0.33487 0.7283 0.83666 0.0
C1773 C 0.34454 0.74027 0.71056 0.0
C1774 C 0.342 0.72793 0.70345 0.0
C1775 C 0.34711 0.74421 0.74638 0.0
C1776 C 0.34171 0.73515 0.84259 0.0
H1777 H 0.35043 0.7799 0.97323 0.0
H1778 H 0.35326 0.77217 0.91075 0.0
H1779 H 0.33694 0.73544 0.89948 0.0
H1780 H 0.3407 0.70997 0.72816 0.0
H1781 H 0.34534 0.71678 0.79026 0.0
H1782 H 0.36318 0.75319 0.80213 0.0
C1783 C 0.35241 0.7657 0.93312 0.0
C1784 C 0.34291 0.73924 0.87871 0.0
C1785 C 0.35077 0.77014 0.96892 0.0
C1786 C 0.34246 0.71957 0.7327 0.0
C1787 C 0.34508 0.72348 0.76838 0.0
C1788 C 0.35741 0.74926 0.82321 0.0
C1789 C 0.35194 0.7531 0.92604 0.0
C1790 C 0.35135 0.74842 0.88769 0.0
C1791 C 0.34723 0.73587 0.77579 0.0
C1792 C 0.34892 0.74011 0.81434 0.0
H1793 H 0.34754 0.74298 0.01356 0.0
H1794 H 0.35069 0.73526 0.95148 0.0
H1795 H 0.36522 0.76043 0.8656 0.0
H1796 H 0.34428 0.74695 0.68862 0.0
H1797 H 0.34861 0.75384 0.75119 0.0
C1798 C 0.97768 0.59996 0.71249 0.0
C1799 C 0.98573 0.60182 0.74196 0.0
C1800 C 0.98165 0.60155 0.67624 0.0
C1801 C 0.01084 0.60136 0.62442 0.0
H1802 H 0.9892 0.60559 0.54113 0.0
C1803 C 0.01215 0.60047 0.45416 0.0
C1804 C 0.02068 0.59103 0.44992 0.0
C1805 C 0.00791 0.6037 0.48918 0.0
C1806 C 0.99545 0.60458 0.56397 0.0
H1807 H 0.00376 0.608 0.7572 0.0
H1808 H 0.01045 0.61168 0.69425 0.0
H1809 H 0.98173 0.60959 0.60293 0.0
H1810 H 0.03119 0.57731 0.4788 0.0
H1811 H 0.02343 0.58246 0.53934 0.0
H1812 H 0.02468 0.59685 0.58559 0.0
C1813 C 0.00129 0.60832 0.69867 0.0
C1814 C 0.9911 0.6067 0.59962 0.0
C1815 C 0.99743 0.60637 0.73484 0.0
C1816 C 0.02472 0.58473 0.48122 0.0
C1817 C 0.02033 0.58778 0.51606 0.0
C1818 C 0.01524 0.59949 0.58886 0.0
C1819 C 0.99368 0.60533 0.66875 0.0
C1820 C 0.99864 0.60481 0.63047 0.0
C1821 C 0.01198 0.59741 0.52066 0.0
C1822 C 0.00752 0.60069 0.55817 0.0
H1823 H 0.96862 0.59635 0.71728 0.0
H1824 H 0.97549 0.59904 0.65424 0.0
H1825 H 0.01696 0.59961 0.64714 0.0
H1826 H 0.00893 0.60554 0.43049 0.0
H1827 H 0.00161 0.61124 0.49155 0.0
C1828 C 0.15424 0.26035 0.21112 0.0
C1829 C 0.15691 0.27265 0.20384 0.0
C1830 C 0.15162 0.2565 0.24699 0.0
C1831 C 0.15707 0.26565 0.34308 0.0
H1832 H 0.13337 0.24058 0.36631 0.0
C1833 C 0.14972 0.25147 0.49208 0.0
C1834 C 0.15014 0.23887 0.49874 0.0
C1835 C 0.14798 0.2559 0.45647 0.0
C1836 C 0.14003 0.24757 0.36019 0.0
H1837 H 0.15838 0.29064 0.22829 0.0
H1838 H 0.15365 0.28398 0.29048 0.0
H1839 H 0.13546 0.24775 0.30278 0.0
H1840 H 0.14814 0.22102 0.47381 0.0
H1841 H 0.14529 0.22877 0.41136 0.0
H1842 H 0.16185 0.26538 0.39998 0.0
C1843 C 0.15385 0.27724 0.26869 0.0
C1844 C 0.14125 0.25165 0.32383 0.0
C1845 C 0.15653 0.28107 0.23297 0.0
C1846 C 0.14786 0.23079 0.46951 0.0
C1847 C 0.14621 0.23523 0.43373 0.0
C1848 C 0.15584 0.26161 0.37925 0.0
C1849 C 0.15157 0.26488 0.27628 0.0
C1850 C 0.14983 0.26073 0.31488 0.0
C1851 C 0.14674 0.24783 0.42665 0.0
C1852 C 0.14734 0.2525 0.38829 0.0
H1853 H 0.15444 0.25363 0.18928 0.0
H1854 H 0.15001 0.24689 0.25192 0.0
H1855 H 0.16396 0.27244 0.3371 0.0
H1856 H 0.1513 0.25793 0.51412 0.0
H1857 H 0.14813 0.26566 0.45207 0.0
C1858 C 0.51785 0.39977 0.21489 0.0
C1859 C 0.50979 0.40246 0.24385 0.0
C1860 C 0.5135 0.39866 0.17879 0.0
C1861 C 0.4881 0.41005 0.12289 0.0
H1862 H 0.50026 0.38798 0.0481 0.0
C1863 C 0.46785 0.40975 0.9773 0.0
C1864 C 0.47605 0.40902 0.94766 0.0
C1865 C 0.47181 0.40765 0.01326 0.0
C1866 C 0.49686 0.39426 0.06866 0.0
H1867 H 0.49079 0.40506 0.25825 0.0
H1868 H 0.48322 0.40288 0.19567 0.0
H1869 H 0.50741 0.38599 0.11167 0.0
H1870 H 0.49482 0.40528 0.93258 0.0
H1871 H 0.50177 0.40182 0.99553 0.0
H1872 H 0.47775 0.41849 0.08018 0.0
C1873 C 0.49291 0.40197 0.20055 0.0
C1874 C 0.50093 0.3931 0.10504 0.0
C1875 C 0.49725 0.40314 0.23646 0.0
C1876 C 0.48827 0.40593 0.95479 0.0
C1877 C 0.49224 0.40386 0.99085 0.0
C1878 C 0.48407 0.41122 0.08668 0.0
C1879 C 0.50103 0.40018 0.17112 0.0
C1880 C 0.49656 0.40098 0.13257 0.0
C1881 C 0.48407 0.40482 0.02054 0.0
C1882 C 0.48837 0.40334 0.0591 0.0
H1883 H 0.52757 0.39921 0.21974 0.0
H1884 H 0.51999 0.39729 0.15671 0.0
H1885 H 0.48479 0.41648 0.1432 0.0
H1886 H 0.45836 0.41199 0.97281 0.0
H1887 H 0.46523 0.40824 0.03542 0.0
C1888 C 0.14822 0.33389 0.12216 0.0
C1889 C 0.14601 0.32327 0.10156 0.0
C1890 C 0.13943 0.34305 0.12447 0.0
C1891 C 0.1216 0.36371 0.11212 0.0
H1892 H 0.08793 0.3537 0.12409 0.0
C1893 C 0.0817 0.39796 0.11079 0.0
C1894 C 0.07178 0.39584 0.13443 0.0
C1895 C 0.09104 0.38938 0.10748 0.0
C1896 C 0.0973 0.35665 0.12116 0.0
H1897 H 0.133 0.31415 0.06608 0.0
H1898 H 0.11769 0.33028 0.06957 0.0
H1899 H 0.10367 0.33833 0.11509 0.0
H1900 H 0.06409 0.38323 0.17407 0.0
H1901 H 0.08054 0.36833 0.1688 0.0
H1902 H 0.11528 0.382 0.11917 0.0
C1903 C 0.12616 0.33141 0.08451 0.0
C1904 C 0.10631 0.34784 0.1154 0.0
C1905 C 0.13497 0.32221 0.08223 0.0
C1906 C 0.0716 0.38512 0.15557 0.0
C1907 C 0.08097 0.37653 0.15229 0.0
C1908 C 0.1126 0.37251 0.11795 0.0
C1909 C 0.12821 0.34185 0.10616 0.0
C1910 C 0.11857 0.35126 0.11086 0.0
C1911 C 0.09072 0.37849 0.1278 0.0
C1912 C 0.10034 0.36909 0.12256 0.0
H1913 H 0.15662 0.33499 0.13748 0.0
H1914 H 0.14128 0.35089 0.14171 0.0
H1915 H 0.13093 0.36667 0.10841 0.0
H1916 H 0.08212 0.4061 0.094 0.0
H1917 H 0.09831 0.39114 0.08805 0.0
C1918 C 0.86491 0.82062 0.40828 0.0
C1919 C 0.85406 0.82082 0.38774 0.0
C1920 C 0.87352 0.82995 0.40441 0.0
C1921 C 0.87745 0.86153 0.36959 0.0
H1922 H 0.91157 0.85248 0.36477 0.0
C1923 C 0.92756 0.88373 0.33074 0.0
C1924 C 0.92668 0.89477 0.35013 0.0
C1925 C 0.91836 0.87494 0.33363 0.0
C1926 C 0.90207 0.85515 0.36563 0.0
H1927 H 0.8436 0.83114 0.34774 0.0
H1928 H 0.85859 0.84727 0.34077 0.0
H1929 H 0.89619 0.8368 0.37476 0.0
H1930 H 0.91526 0.90542 0.38681 0.0
H1931 H 0.89934 0.89013 0.39207 0.0
H1932 H 0.88329 0.87984 0.35963 0.0
C1933 C 0.86044 0.84001 0.36018 0.0
C1934 C 0.89326 0.84618 0.37196 0.0
C1935 C 0.85185 0.83071 0.36408 0.0
C1936 C 0.91622 0.89702 0.37143 0.0
C1937 C 0.90705 0.88825 0.37433 0.0
C1938 C 0.88624 0.87049 0.3632 0.0
C1939 C 0.87145 0.83967 0.37991 0.0
C1940 C 0.88084 0.84926 0.37406 0.0
C1941 C 0.90808 0.87703 0.35594 0.0
C1942 C 0.89867 0.86742 0.36123 0.0
H1943 H 0.86688 0.81313 0.42678 0.0
H1944 H 0.88182 0.82952 0.42047 0.0
H1945 H 0.86798 0.86425 0.37134 0.0
H1946 H 0.9355 0.88173 0.31407 0.0
H1947 H 0.91934 0.86647 0.31863 0.0
C1948 C 0.35101 0.66642 0.62278 0.0
C1949 C 0.35326 0.67704 0.60222 0.0
C1950 C 0.35979 0.65726 0.62525 0.0
C1951 C 0.39292 0.65244 0.61688 0.0
H1952 H 0.3839 0.61828 0.62005 0.0
C1953 C 0.41746 0.60229 0.61248 0.0
C1954 C 0.42728 0.60433 0.63657 0.0
C1955 C 0.40817 0.61089 0.60891 0.0
C1956 C 0.38659 0.62777 0.619 0.0
H1957 H 0.36635 0.68616 0.56701 0.0
H1958 H 0.38165 0.67003 0.57081 0.0
H1959 H 0.3683 0.63364 0.60905 0.0
H1960 H 0.43485 0.61686 0.67666 0.0
H1961 H 0.41847 0.63184 0.67091 0.0
H1962 H 0.41126 0.64654 0.62602 0.0
C1963 C 0.37315 0.66891 0.58557 0.0
C1964 C 0.37763 0.63659 0.61303 0.0
C1965 C 0.36434 0.6781 0.58312 0.0
C1966 C 0.42742 0.61503 0.65783 0.0
C1967 C 0.41809 0.62365 0.65428 0.0
C1968 C 0.4019 0.64361 0.6228 0.0
C1969 C 0.37105 0.65846 0.60715 0.0
C1970 C 0.38067 0.64904 0.61198 0.0
C1971 C 0.40844 0.62176 0.6294 0.0
C1972 C 0.39884 0.63117 0.62398 0.0
H1973 H 0.34258 0.66532 0.63792 0.0
H1974 H 0.3579 0.64942 0.64243 0.0
H1975 H 0.39556 0.66195 0.61673 0.0
H1976 H 0.41709 0.59416 0.59558 0.0
H1977 H 0.40097 0.60919 0.58919 0.0
C1978 C 0.64631 0.16718 0.87625 0.0
C1979 C 0.644 0.1774 0.89848 0.0
C1980 C 0.63774 0.15784 0.87319 0.0
C1981 C 0.60485 0.15184 0.8843 0.0
H1982 H 0.61493 0.1181 0.87527 0.0
C1983 C 0.58213 0.10075 0.88388 0.0
C1984 C 0.57191 0.10284 0.8614 0.0
C1985 C 0.59113 0.10964 0.8878 0.0
C1986 C 0.61193 0.12746 0.87799 0.0
H1987 H 0.631 0.18566 0.93589 0.0
H1988 H 0.61608 0.16919 0.9311 0.0
H1989 H 0.63014 0.13379 0.88667 0.0
H1990 H 0.56332 0.11579 0.82455 0.0
H1991 H 0.5792 0.13126 0.83081 0.0
H1992 H 0.5866 0.14545 0.87654 0.0
C1993 C 0.62446 0.16852 0.91548 0.0
C1994 C 0.62068 0.13649 0.88416 0.0
C1995 C 0.63305 0.17791 0.91849 0.0
C1996 C 0.57107 0.1139 0.84212 0.0
C1997 C 0.58012 0.12281 0.84598 0.0
C1998 C 0.59609 0.1428 0.87823 0.0
C1999 C 0.62663 0.15845 0.89238 0.0
C2000 C 0.61726 0.14879 0.88729 0.0
C2001 C 0.59018 0.12084 0.86924 0.0
C2002 C 0.59952 0.1305 0.87494 0.0
H2003 H 0.65463 0.16651 0.86034 0.0
H2004 H 0.63967 0.15031 0.8548 0.0
H2005 H 0.6019 0.16124 0.88608 0.0
H2006 H 0.58305 0.09234 0.89926 0.0
H2007 H 0.59867 0.10786 0.90629 0.0
C2008 C 0.08191 0.60153 0.38477 0.0
C2009 C 0.07216 0.60311 0.36013 0.0
C2010 C 0.09082 0.61053 0.38864 0.0
C2011 C 0.10492 0.63669 0.3425 0.0
H2012 H 0.11438 0.64619 0.44139 0.0
C2013 C 0.14627 0.66759 0.37043 0.0
C2014 C 0.14445 0.67739 0.39477 0.0
C2015 C 0.13755 0.65839 0.36714 0.0
C2016 C 0.11179 0.64366 0.41364 0.0
H2017 H 0.06429 0.61525 0.31945 0.0
H2018 H 0.08 0.63094 0.3259 0.0
H2019 H 0.09888 0.63043 0.43262 0.0
H2020 H 0.13223 0.68499 0.43568 0.0
H2021 H 0.11701 0.66877 0.4302 0.0
H2022 H 0.11782 0.64992 0.32351 0.0
C2023 C 0.0807 0.62272 0.34227 0.0
C2024 C 0.103 0.63458 0.40861 0.0
C2025 C 0.0717 0.61375 0.33863 0.0
C2026 C 0.1339 0.67756 0.41671 0.0
C2027 C 0.1252 0.66827 0.41362 0.0
C2028 C 0.11379 0.64568 0.34754 0.0
C2029 C 0.09024 0.62127 0.36773 0.0
C2030 C 0.09949 0.63099 0.37298 0.0
C2031 C 0.12685 0.65871 0.38829 0.0
C2032 C 0.11734 0.64924 0.38316 0.0
H2033 H 0.08255 0.59344 0.40176 0.0
H2034 H 0.09816 0.60908 0.40808 0.0
H2035 H 0.10244 0.63407 0.31475 0.0
H2036 H 0.1543 0.66716 0.35315 0.0
H2037 H 0.13915 0.65104 0.34782 0.0
C2038 C 0.63602 0.82217 0.58845 0.0
C2039 C 0.64685 0.8227 0.60903 0.0
C2040 C 0.62724 0.83136 0.59175 0.0
C2041 C 0.62265 0.86304 0.62519 0.0
H2042 H 0.58871 0.85331 0.62975 0.0
C2043 C 0.57198 0.88434 0.66226 0.0
C2044 C 0.57274 0.89536 0.64273 0.0
C2045 C 0.58136 0.87572 0.65983 0.0
C2046 C 0.59815 0.85617 0.62897 0.0
H2047 H 0.65709 0.83347 0.64847 0.0
H2048 H 0.6418 0.84934 0.6545 0.0
H2049 H 0.60441 0.83791 0.62061 0.0
H2050 H 0.58409 0.90615 0.60622 0.0
H2051 H 0.60029 0.89115 0.60168 0.0
H2052 H 0.61642 0.88125 0.63445 0.0
C2053 C 0.6401 0.84193 0.63547 0.0
C2054 C 0.60714 0.84736 0.62312 0.0
C2055 C 0.64887 0.83278 0.63211 0.0
C2056 C 0.58322 0.89776 0.62171 0.0
C2057 C 0.59256 0.88916 0.61923 0.0
C2058 C 0.61366 0.87184 0.63114 0.0
C2059 C 0.6291 0.84126 0.61574 0.0
C2060 C 0.61951 0.85068 0.6211 0.0
C2061 C 0.59168 0.87796 0.6378 0.0
C2062 C 0.60129 0.86852 0.633 0.0
H2063 H 0.6342 0.81453 0.57038 0.0
H2064 H 0.61896 0.83066 0.57567 0.0
H2065 H 0.63206 0.86594 0.62348 0.0
H2066 H 0.56403 0.88223 0.67874 0.0
H2067 H 0.58048 0.86727 0.67497 0.0
C2068 C 0.43066 0.3807 0.84145 0.0
C2069 C 0.4274 0.39303 0.84458 0.0
C2070 C 0.42193 0.37155 0.84648 0.0
C2071 C 0.39115 0.36696 0.88799 0.0
H2072 H 0.3932 0.3356 0.83917 0.0
C2073 C 0.35251 0.33096 0.88477 0.0
C2074 C 0.35585 0.31898 0.89399 0.0
C2075 C 0.36138 0.34001 0.88094 0.0
C2076 C 0.3926 0.3443 0.85319 0.0
H2077 H 0.41236 0.4055 0.85305 0.0
H2078 H 0.39702 0.38965 0.85967 0.0
H2079 H 0.40806 0.35143 0.82461 0.0
H2080 H 0.37103 0.30709 0.90702 0.0
H2081 H 0.3866 0.32292 0.89938 0.0
H2082 H 0.37534 0.35987 0.91534 0.0
C2083 C 0.40638 0.38694 0.85507 0.0
C2084 C 0.40113 0.35338 0.84497 0.0
C2085 C 0.41515 0.39606 0.85082 0.0
C2086 C 0.3682 0.31627 0.90015 0.0
C2087 C 0.3771 0.32527 0.89551 0.0
C2088 C 0.3825 0.35796 0.89562 0.0
C2089 C 0.4097 0.37454 0.85406 0.0
C2090 C 0.40053 0.36485 0.86226 0.0
C2091 C 0.37377 0.33718 0.8855 0.0
C2092 C 0.38316 0.34656 0.87835 0.0
H2093 H 0.44007 0.37811 0.83699 0.0
H2094 H 0.42491 0.36215 0.84586 0.0
H2095 H 0.39052 0.37552 0.90267 0.0
H2096 H 0.34306 0.3333 0.87985 0.0
H2097 H 0.3586 0.34912 0.87309 0.0
C2098 C 0.85122 0.16732 0.13569 0.0
C2099 C 0.85327 0.17728 0.11214 0.0
C2100 C 0.86 0.15821 0.13973 0.0
C2101 C 0.89295 0.15257 0.12805 0.0
H2102 H 0.88341 0.11875 0.13938 0.0
C2103 C 0.91644 0.10196 0.12699 0.0
C2104 C 0.9269 0.10424 0.14828 0.0
C2105 C 0.90721 0.11066 0.12429 0.0
C2106 C 0.88624 0.12814 0.13607 0.0
H2107 H 0.86604 0.18531 0.0736 0.0
H2108 H 0.88131 0.16926 0.08012 0.0
H2109 H 0.8679 0.13417 0.1282 0.0
H2110 H 0.93565 0.11729 0.18449 0.0
H2111 H 0.91938 0.13243 0.18033 0.0
H2112 H 0.91134 0.14648 0.1349 0.0
C2113 C 0.87298 0.16862 0.09599 0.0
C2114 C 0.87733 0.13701 0.13001 0.0
C2115 C 0.86419 0.17777 0.092 0.0
C2116 C 0.92772 0.11526 0.16781 0.0
C2117 C 0.91845 0.12398 0.16516 0.0
C2118 C 0.90187 0.14369 0.13402 0.0
C2119 C 0.87104 0.1588 0.12024 0.0
C2120 C 0.88057 0.14934 0.1259 0.0
C2121 C 0.90816 0.12185 0.14292 0.0
C2122 C 0.89863 0.13136 0.13803 0.0
H2123 H 0.84292 0.16668 0.15175 0.0
H2124 H 0.85825 0.15088 0.15898 0.0
H2125 H 0.89576 0.162 0.12551 0.0
H2126 H 0.91552 0.09358 0.11148 0.0
H2127 H 0.8995 0.10876 0.10658 0.0
C2128 C 0.85207 0.66724 0.88494 0.0
C2129 C 0.85536 0.67921 0.89421 0.0
C2130 C 0.86098 0.65825 0.88072 0.0
C2131 C 0.8941 0.65174 0.89638 0.0
H2132 H 0.8885 0.62746 0.82058 0.0
C2133 C 0.93171 0.61956 0.84126 0.0
C2134 C 0.92893 0.60715 0.84592 0.0
C2135 C 0.92265 0.62841 0.84557 0.0
C2136 C 0.89015 0.6342 0.84182 0.0
H2137 H 0.87049 0.69116 0.907 0.0
H2138 H 0.88609 0.67568 0.89813 0.0
H2139 H 0.87293 0.64275 0.83308 0.0
H2140 H 0.91443 0.59421 0.85684 0.0
H2141 H 0.8985 0.6097 0.86295 0.0
H2142 H 0.91158 0.64333 0.90383 0.0
C2143 C 0.87664 0.67304 0.89519 0.0
C2144 C 0.8812 0.6429 0.84934 0.0
C2145 C 0.86769 0.68196 0.9002 0.0
C2146 C 0.91682 0.60372 0.85311 0.0
C2147 C 0.90772 0.61255 0.85658 0.0
C2148 C 0.90315 0.64319 0.88827 0.0
C2149 C 0.87343 0.66109 0.88478 0.0
C2150 C 0.883 0.65176 0.87693 0.0
C2151 C 0.91062 0.62497 0.85373 0.0
C2152 C 0.90122 0.63431 0.86108 0.0
H2153 H 0.84261 0.66485 0.88043 0.0
H2154 H 0.85807 0.6491 0.87381 0.0
H2155 H 0.89579 0.65822 0.91825 0.0
H2156 H 0.94098 0.62246 0.83598 0.0
H2157 H 0.92506 0.63795 0.84307 0.0
C2158 C 0.13081 0.18194 0.59335 0.0
C2159 C 0.14315 0.17881 0.59749 0.0
C2160 C 0.12174 0.17306 0.59711 0.0
C2161 C 0.11541 0.14057 0.59149 0.0
H2162 H 0.09125 0.14624 0.6675 0.0
C2163 C 0.08252 0.10243 0.63461 0.0
C2164 C 0.07049 0.10563 0.64349 0.0
C2165 C 0.09144 0.1114 0.63043 0.0
C2166 C 0.09777 0.14455 0.64574 0.0
H2167 H 0.15573 0.1639 0.60696 0.0
H2168 H 0.13988 0.14832 0.61217 0.0
H2169 H 0.10627 0.16197 0.6536 0.0
H2170 H 0.05839 0.12068 0.65576 0.0
H2171 H 0.07379 0.13641 0.64705 0.0
H2172 H 0.1068 0.12339 0.58249 0.0
C2173 C 0.13724 0.15766 0.60658 0.0
C2174 C 0.1064 0.15357 0.6379 0.0
C2175 C 0.14628 0.16656 0.60364 0.0
C2176 C 0.06763 0.11795 0.64924 0.0
C2177 C 0.0765 0.12697 0.6443 0.0
C2178 C 0.10665 0.13165 0.59878 0.0
C2179 C 0.12488 0.16088 0.60422 0.0
C2180 C 0.11534 0.15161 0.61093 0.0
C2181 C 0.08849 0.12383 0.63417 0.0
C2182 C 0.09777 0.13345 0.62629 0.0
H2183 H 0.12813 0.19133 0.58886 0.0
H2184 H 0.11226 0.17573 0.59498 0.0
H2185 H 0.12218 0.1389 0.57039 0.0
H2186 H 0.085 0.09298 0.6303 0.0
H2187 H 0.10063 0.10856 0.62377 0.0
C2188 C 0.57358 0.38409 0.33282 0.0
C2189 C 0.57371 0.39482 0.35395 0.0
C2190 C 0.58312 0.37567 0.33557 0.0
C2191 C 0.59973 0.35609 0.36726 0.0
H2192 H 0.63337 0.36636 0.37792 0.0
C2193 C 0.63755 0.32242 0.41034 0.0
C2194 C 0.64855 0.32314 0.39065 0.0
C2195 C 0.62872 0.33154 0.40673 0.0
C2196 C 0.62403 0.36333 0.3748 0.0
H2197 H 0.58417 0.40532 0.39351 0.0
H2198 H 0.60068 0.39067 0.39845 0.0
H2199 H 0.6176 0.38153 0.36628 0.0
H2200 H 0.65906 0.33422 0.35269 0.0
H2201 H 0.64369 0.35003 0.34626 0.0
H2202 H 0.6062 0.33787 0.37506 0.0
C2203 C 0.5933 0.38877 0.37953 0.0
C2204 C 0.61497 0.37204 0.36843 0.0
C2205 C 0.58378 0.39716 0.37681 0.0
C2206 C 0.6507 0.33338 0.36831 0.0
C2207 C 0.64189 0.34249 0.36472 0.0
C2208 C 0.60879 0.34738 0.37363 0.0
C2209 C 0.59299 0.37783 0.35944 0.0
C2210 C 0.60271 0.36853 0.36465 0.0
C2211 C 0.63071 0.34159 0.38341 0.0
C2212 C 0.62105 0.3509 0.37753 0.0
H2213 H 0.56595 0.38203 0.31492 0.0
H2214 H 0.58271 0.36741 0.31928 0.0
H2215 H 0.59036 0.35308 0.36498 0.0
H2216 H 0.63562 0.31465 0.42781 0.0
H2217 H 0.62029 0.33068 0.42199 0.0
C2218 C 0.36783 0.81918 0.09585 0.0
C2219 C 0.35547 0.82219 0.09986 0.0
C2220 C 0.37686 0.82804 0.10089 0.0
C2221 C 0.38121 0.8586 0.14405 0.0
H2222 H 0.41216 0.85752 0.0927 0.0
C2223 C 0.41635 0.89801 0.14031 0.0
C2224 C 0.42855 0.89487 0.14736 0.0
C2225 C 0.40744 0.88897 0.13719 0.0
C2226 C 0.40358 0.85784 0.10745 0.0
H2227 H 0.34279 0.83695 0.10995 0.0
H2228 H 0.35842 0.85253 0.11668 0.0
H2229 H 0.39651 0.84245 0.0784 0.0
H2230 H 0.44095 0.87986 0.15749 0.0
H2231 H 0.42535 0.864 0.15116 0.0
H2232 H 0.38822 0.87434 0.17193 0.0
C2233 C 0.36126 0.84325 0.11132 0.0
C2234 C 0.39461 0.84919 0.09936 0.0
C2235 C 0.35227 0.83435 0.10702 0.0
C2236 C 0.4316 0.88254 0.15229 0.0
C2237 C 0.42273 0.87348 0.14839 0.0
C2238 C 0.3901 0.86737 0.15159 0.0
C2239 C 0.3737 0.84016 0.10939 0.0
C2240 C 0.38328 0.84945 0.11753 0.0
C2241 C 0.41061 0.87662 0.14033 0.0
C2242 C 0.40136 0.86706 0.13341 0.0
H2243 H 0.37057 0.80984 0.09068 0.0
H2244 H 0.3863 0.82523 0.09954 0.0
H2245 H 0.37276 0.85895 0.15938 0.0
H2246 H 0.41374 0.90744 0.13637 0.0
H2247 H 0.39816 0.89161 0.13085 0.0
C2248 C 0.91708 0.39958 0.62317 0.0
C2249 C 0.92741 0.39726 0.64493 0.0
C2250 C 0.90793 0.39081 0.61944 0.0
C2251 C 0.88714 0.37286 0.6285 0.0
H2252 H 0.89743 0.33928 0.61663 0.0
C2253 C 0.85326 0.33261 0.62619 0.0
C2254 C 0.85575 0.3227 0.60286 0.0
C2255 C 0.86164 0.34211 0.63001 0.0
C2256 C 0.89441 0.34863 0.61948 0.0
H2257 H 0.93602 0.38409 0.68105 0.0
H2258 H 0.91992 0.36884 0.67506 0.0
H2259 H 0.91261 0.35505 0.62786 0.0
H2260 H 0.86877 0.31521 0.56411 0.0
H2261 H 0.88334 0.33193 0.57027 0.0
H2262 H 0.86897 0.36648 0.61923 0.0
C2263 C 0.91901 0.37737 0.66031 0.0
C2264 C 0.9031 0.35765 0.62653 0.0
C2265 C 0.92819 0.38615 0.66401 0.0
C2266 C 0.8666 0.32271 0.58236 0.0
C2267 C 0.875 0.33223 0.58615 0.0
C2268 C 0.87845 0.36385 0.62138 0.0
C2269 C 0.90888 0.37952 0.63744 0.0
C2270 C 0.89958 0.36988 0.63114 0.0
C2271 C 0.8727 0.34194 0.61053 0.0
C2272 C 0.88198 0.35161 0.61681 0.0
H2273 H 0.9162 0.40803 0.60802 0.0
H2274 H 0.90033 0.39274 0.60133 0.0
H2275 H 0.8841 0.38217 0.63217 0.0
H2276 H 0.845 0.33289 0.64246 0.0
H2277 H 0.85962 0.34936 0.64929 0.0
C2278 C 0.35171 0.16655 0.38543 0.0
C2279 C 0.35497 0.17856 0.39442 0.0
C2280 C 0.36063 0.15757 0.38147 0.0
C2281 C 0.39376 0.15113 0.39735 0.0
H2282 H 0.38817 0.12668 0.32204 0.0
C2283 C 0.43133 0.11871 0.34306 0.0
C2284 C 0.4285 0.10632 0.34772 0.0
C2285 C 0.42231 0.1276 0.34728 0.0
C2286 C 0.38982 0.13346 0.34314 0.0
H2287 H 0.37007 0.19056 0.40705 0.0
H2288 H 0.3857 0.17508 0.39865 0.0
H2289 H 0.37261 0.142 0.33415 0.0
H2290 H 0.41394 0.09345 0.35862 0.0
H2291 H 0.39807 0.109 0.36458 0.0
H2292 H 0.41122 0.14272 0.40506 0.0
C2293 C 0.37626 0.17242 0.39571 0.0
C2294 C 0.38087 0.14219 0.35045 0.0
C2295 C 0.36729 0.18134 0.40046 0.0
C2296 C 0.41638 0.10294 0.35488 0.0
C2297 C 0.40731 0.11181 0.35827 0.0
C2298 C 0.4028 0.14255 0.38946 0.0
C2299 C 0.37307 0.16043 0.38553 0.0
C2300 C 0.38265 0.15111 0.37787 0.0
C2301 C 0.41026 0.12422 0.35536 0.0
C2302 C 0.40088 0.13361 0.36246 0.0
H2303 H 0.34225 0.16414 0.38089 0.0
H2304 H 0.35774 0.1484 0.37476 0.0
H2305 H 0.39544 0.15766 0.41909 0.0
H2306 H 0.44062 0.12158 0.33779 0.0
H2307 H 0.42476 0.13713 0.34473 0.0
C2308 C 0.63128 0.68204 0.09197 0.0
C2309 C 0.64366 0.67923 0.09694 0.0
C2310 C 0.62237 0.67304 0.0966 0.0
C2311 C 0.61674 0.64035 0.09545 0.0
H2312 H 0.59209 0.64678 0.16947 0.0
C2313 C 0.58443 0.6023 0.14322 0.0
C2314 C 0.5723 0.6054 0.15104 0.0
C2315 C 0.59319 0.61138 0.13796 0.0
C2316 C 0.59876 0.64487 0.14828 0.0
H2317 H 0.6565 0.66473 0.10877 0.0
H2318 H 0.64094 0.64892 0.11555 0.0
H2319 H 0.60686 0.66256 0.1538 0.0
H2320 H 0.55983 0.62039 0.16028 0.0
H2321 H 0.57494 0.63626 0.14969 0.0
H2322 H 0.60853 0.62286 0.08878 0.0
C2323 C 0.63814 0.65811 0.10862 0.0
C2324 C 0.60723 0.65392 0.13942 0.0
C2325 C 0.64702 0.66715 0.10478 0.0
C2326 C 0.56915 0.61774 0.15462 0.0
C2327 C 0.57786 0.62684 0.14861 0.0
C2328 C 0.60813 0.63138 0.10376 0.0
C2329 C 0.62573 0.66104 0.10544 0.0
C2330 C 0.61635 0.6517 0.11315 0.0
C2331 C 0.58996 0.62379 0.13955 0.0
C2332 C 0.59908 0.63345 0.13058 0.0
H2333 H 0.62843 0.6913 0.08616 0.0
H2334 H 0.61285 0.67549 0.0938 0.0
H2335 H 0.62364 0.63847 0.07492 0.0
H2336 H 0.58713 0.59284 0.14059 0.0
H2337 H 0.60247 0.60862 0.13217 0.0
C2338 C 0.08261 0.89783 0.8605 0.0
C2339 C 0.07053 0.89454 0.85275 0.0
C2340 C 0.09162 0.88892 0.86417 0.0
C2341 C 0.09791 0.85571 0.84946 0.0
H2342 H 0.12317 0.86179 0.92193 0.0
C2343 C 0.13137 0.81865 0.90153 0.0
C2344 C 0.14366 0.82163 0.89543 0.0
C2345 C 0.12231 0.82754 0.89796 0.0
C2346 C 0.11615 0.86 0.90164 0.0
H2347 H 0.05838 0.87938 0.84208 0.0
H2348 H 0.07393 0.86377 0.85002 0.0
H2349 H 0.10763 0.87721 0.91074 0.0
H2350 H 0.15619 0.83631 0.88259 0.0
H2351 H 0.14037 0.85195 0.87777 0.0
H2352 H 0.10633 0.83826 0.84163 0.0
C2353 C 0.07662 0.87323 0.85218 0.0
C2354 C 0.1073 0.86888 0.89484 0.0
C2355 C 0.06767 0.88219 0.8477 0.0
C2356 C 0.14678 0.83377 0.88744 0.0
C2357 C 0.13776 0.8427 0.88472 0.0
C2358 C 0.10662 0.84675 0.85685 0.0
C2359 C 0.0887 0.87646 0.8611 0.0
C2360 C 0.0981 0.86692 0.86839 0.0
C2361 C 0.12543 0.83961 0.88912 0.0
C2362 C 0.11586 0.84886 0.88279 0.0
H2363 H 0.08509 0.90731 0.86424 0.0
H2364 H 0.10086 0.89184 0.86988 0.0
H2365 H 0.09115 0.8539 0.82847 0.0
H2366 H 0.12871 0.80935 0.90746 0.0
H2367 H 0.11286 0.82498 0.90166 0.0
loop_
_geom_bond_atom_site_label_1
_geom_bond_atom_site_label_2
_geom_bond_distance
_geom_bond_site_symmetry_2
_ccdc_geom_bond_type
O0 Cd1 2.223 . S
O0 C8 1.315 . S
Cd1 O0 2.223 . S
Cd1 O4 2.297 . S
Cd1 O5 2.439 . S
Cd1 O11 2.240 . S
Cd2 O3 2.240 . S
Cd2 O10 2.223 . S
Cd2 O12 2.297 1_554 S
Cd2 O13 2.439 1_554 S
O3 Cd2 2.240 . S
O3 C8 1.279 . S
O4 Cd1 2.297 . S
O4 C6 1.247 . S
O5 Cd1 2.439 . S
O5 C6 1.208 . S
C6 O4 1.247 . S
C6 O5 1.208 . S
C7 O12 1.247 . S
C7 O13 1.208 . S
C8 O0 1.315 . S
C8 O3 1.279 . S
C9 O10 1.315 . S
C9 O11 1.279 . S
O10 Cd2 2.223 . S
O10 C9 1.315 . S
O11 Cd1 2.240 . S
O11 C9 1.279 . S
O12 Cd2 2.297 1_556 S
O12 C7 1.247 . S
O13 Cd2 2.439 1_556 S
O13 C7 1.208 . S
O14 Cd15 2.223 . S
O14 C22 1.315 . S
Cd15 O14 2.223 . S
Cd15 O18 2.297 . S
Cd15 O19 2.439 . S
Cd15 O25 2.240 . S
Cd16 O17 2.240 . S
Cd16 O24 2.223 . S
Cd16 O26 2.297 . S
Cd16 O27 2.439 . S
O17 Cd16 2.240 . S
O17 C22 1.279 . S
O18 Cd15 2.297 . S
O18 C20 1.247 . S
O19 Cd15 2.439 . S
O19 C20 1.208 . S
C20 O18 1.247 . S
C20 O19 1.208 . S
C21 O26 1.247 . S
C21 O27 1.208 . S
C22 O14 1.315 . S
C22 O17 1.279 . S
C23 O24 1.315 . S
C23 O25 1.279 . S
O24 Cd16 2.223 . S
O24 C23 1.315 . S
O25 Cd15 2.240 . S
O25 C23 1.279 . S
O26 Cd16 2.297 . S
O26 C21 1.247 . S
O27 Cd16 2.439 . S
O27 C21 1.208 . S
O28 Cd29 2.223 . S
O28 C36 1.315 . S
Cd29 O28 2.223 . S
Cd29 O32 2.297 . S
Cd29 O33 2.439 . S
Cd29 O39 2.240 . S
Cd30 O31 2.240 . S
Cd30 O38 2.223 . S
Cd30 O40 2.297 . S
Cd30 O41 2.439 . S
O31 Cd30 2.240 . S
O31 C36 1.279 . S
O32 Cd29 2.297 . S
O32 C34 1.247 . S
O33 Cd29 2.439 . S
O33 C34 1.208 . S
C34 O32 1.247 . S
C34 O33 1.208 . S
C35 O40 1.247 . S
C35 O41 1.208 . S
C36 O28 1.315 . S
C36 O31 1.279 . S
C37 O38 1.315 . S
C37 O39 1.279 . S
O38 Cd30 2.223 . S
O38 C37 1.315 . S
O39 Cd29 2.240 . S
O39 C37 1.279 . S
O40 Cd30 2.297 . S
O40 C35 1.247 . S
O41 Cd30 2.439 . S
O41 C35 1.208 . S
O42 Cd43 2.223 . S
O42 C50 1.315 . S
Cd43 O42 2.223 . S
Cd43 O46 2.297 . S
Cd43 O47 2.439 . S
Cd43 O53 2.240 . S
Cd44 O45 2.240 . S
Cd44 O52 2.223 . S
Cd44 O54 2.297 . S
Cd44 O55 2.439 . S
O45 Cd44 2.240 . S
O45 C50 1.279 . S
O46 Cd43 2.297 . S
O46 C48 1.247 . S
O47 Cd43 2.439 . S
O47 C48 1.208 . S
C48 O46 1.247 . S
C48 O47 1.208 . S
C49 O54 1.247 . S
C49 O55 1.208 . S
C50 O42 1.315 . S
C50 O45 1.279 . S
C51 O52 1.315 . S
C51 O53 1.279 . S
O52 Cd44 2.223 . S
O52 C51 1.315 . S
O53 Cd43 2.240 . S
O53 C51 1.279 . S
O54 Cd44 2.297 . S
O54 C49 1.247 . S
O55 Cd44 2.439 . S
O55 C49 1.208 . S
O56 Cd57 2.223 . S
O56 C64 1.315 . S
Cd57 O56 2.223 . S
Cd57 O60 2.297 . S
Cd57 O61 2.439 . S
Cd57 O67 2.240 . S
Cd58 O59 2.240 . S
Cd58 O66 2.223 . S
Cd58 O68 2.297 . S
Cd58 O69 2.439 . S
O59 Cd58 2.240 . S
O59 C64 1.279 . S
O60 Cd57 2.297 . S
O60 C62 1.247 . S
O61 Cd57 2.439 . S
O61 C62 1.208 . S
C62 O60 1.247 . S
C62 O61 1.208 . S
C63 O68 1.247 . S
C63 O69 1.208 . S
C64 O56 1.315 . S
C64 O59 1.279 . S
C65 O66 1.315 . S
C65 O67 1.279 . S
O66 Cd58 2.223 . S
O66 C65 1.315 . S
O67 Cd57 2.240 . S
O67 C65 1.279 . S
O68 Cd58 2.297 . S
O68 C63 1.247 . S
O69 Cd58 2.439 . S
O69 C63 1.208 . S
O70 Cd71 2.223 . S
O70 C78 1.315 . S
Cd71 O70 2.223 . S
Cd71 O74 2.297 . S
Cd71 O75 2.439 . S
Cd71 O81 2.240 . S
Cd72 O73 2.240 . S
Cd72 O80 2.223 . S
Cd72 O82 2.297 . S
Cd72 O83 2.439 . S
O73 Cd72 2.240 . S
O73 C78 1.279 . S
O74 Cd71 2.297 . S
O74 C76 1.247 . S
O75 Cd71 2.439 . S
O75 C76 1.208 . S
C76 O74 1.247 . S
C76 O75 1.208 . S
C77 O82 1.247 . S
C77 O83 1.208 . S
C78 O70 1.315 . S
C78 O73 1.279 . S
C79 O80 1.315 . S
C79 O81 1.279 . S
O80 Cd72 2.223 . S
O80 C79 1.315 . S
O81 Cd71 2.240 . S
O81 C79 1.279 . S
O82 Cd72 2.297 . S
O82 C77 1.247 . S
O83 Cd72 2.439 . S
O83 C77 1.208 . S
O84 Cd85 2.223 . S
O84 C92 1.315 . S
Cd85 O84 2.223 . S
Cd85 O88 2.297 . S
Cd85 O89 2.439 . S
Cd85 O95 2.240 . S
Cd86 O87 2.240 . S
Cd86 O94 2.223 . S
Cd86 O96 2.297 1_556 S
Cd86 O97 2.439 1_556 S
O87 Cd86 2.240 . S
O87 C92 1.279 . S
O88 Cd85 2.297 . S
O88 C90 1.247 . S
O89 Cd85 2.439 . S
O89 C90 1.208 . S
C90 O88 1.247 . S
C90 O89 1.208 . S
C91 O96 1.247 . S
C91 O97 1.208 . S
C92 O84 1.315 . S
C92 O87 1.279 . S
C93 O94 1.315 . S
C93 O95 1.279 . S
O94 Cd86 2.223 . S
O94 C93 1.315 . S
O95 Cd85 2.240 . S
O95 C93 1.279 . S
O96 Cd86 2.297 1_554 S
O96 C91 1.247 . S
O97 Cd86 2.439 1_554 S
O97 C91 1.208 . S
O98 Cd99 2.223 . S
O98 C106 1.315 . S
Cd99 O98 2.223 . S
Cd99 O102 2.297 . S
Cd99 O103 2.439 . S
Cd99 O109 2.240 . S
Cd100 O101 2.240 . S
Cd100 O108 2.223 . S
Cd100 O110 2.297 . S
Cd100 O111 2.439 . S
O101 Cd100 2.240 . S
O101 C106 1.279 . S
O102 Cd99 2.297 . S
O102 C104 1.247 . S
O103 Cd99 2.439 . S
O103 C104 1.208 . S
C104 O102 1.247 . S
C104 O103 1.208 . S
C105 O110 1.247 . S
C105 O111 1.208 . S
C106 O98 1.315 . S
C106 O101 1.279 . S
C107 O108 1.315 . S
C107 O109 1.279 . S
O108 Cd100 2.223 . S
O108 C107 1.315 . S
O109 Cd99 2.240 . S
O109 C107 1.279 . S
O110 Cd100 2.297 . S
O110 C105 1.247 . S
O111 Cd100 2.439 . S
O111 C105 1.208 . S
O112 Cd113 2.223 . S
O112 C120 1.315 . S
Cd113 O112 2.223 . S
Cd113 O116 2.297 . S
Cd113 O117 2.439 . S
Cd113 O123 2.240 . S
Cd114 O115 2.240 . S
Cd114 O122 2.223 . S
Cd114 O124 2.297 1_556 S
Cd114 O125 2.439 1_556 S
O115 Cd114 2.240 . S
O115 C120 1.279 . S
O116 Cd113 2.297 . S
O116 C118 1.247 . S
O117 Cd113 2.439 . S
O117 C118 1.208 . S
C118 O116 1.247 . S
C118 O117 1.208 . S
C119 O124 1.247 . S
C119 O125 1.208 . S
C120 O112 1.315 . S
C120 O115 1.279 . S
C121 O122 1.315 . S
C121 O123 1.279 . S
O122 Cd114 2.223 . S
O122 C121 1.315 . S
O123 Cd113 2.240 . S
O123 C121 1.279 . S
O124 Cd114 2.297 1_554 S
O124 C119 1.247 . S
O125 Cd114 2.439 1_554 S
O125 C119 1.208 . S
O126 Cd127 2.223 . S
O126 C134 1.315 . S
Cd127 O126 2.223 . S
Cd127 O130 2.297 . S
Cd127 O131 2.439 . S
Cd127 O137 2.240 . S
Cd128 O129 2.240 . S
Cd128 O136 2.223 . S
Cd128 O138 2.297 . S
Cd128 O139 2.439 . S
O129 Cd128 2.240 . S
O129 C134 1.279 . S
O130 Cd127 2.297 . S
O130 C132 1.247 . S
O131 Cd127 2.439 . S
O131 C132 1.208 . S
C132 O130 1.247 . S
C132 O131 1.208 . S
C133 O138 1.247 . S
C133 O139 1.208 . S
C134 O126 1.315 . S
C134 O129 1.279 . S
C135 O136 1.315 . S
C135 O137 1.279 . S
O136 Cd128 2.223 . S
O136 C135 1.315 . S
O137 Cd127 2.240 . S
O137 C135 1.279 . S
O138 Cd128 2.297 . S
O138 C133 1.247 . S
O139 Cd128 2.439 . S
O139 C133 1.208 . S
O140 Cd141 2.223 . S
O140 C148 1.315 . S
Cd141 O140 2.223 . S
Cd141 O144 2.297 . S
Cd141 O145 2.439 . S
Cd141 O151 2.240 . S
Cd142 O143 2.240 . S
Cd142 O150 2.223 . S
Cd142 O152 2.297 . S
Cd142 O153 2.439 . S
O143 Cd142 2.240 . S
O143 C148 1.279 . S
O144 Cd141 2.297 . S
O144 C146 1.247 . S
O145 Cd141 2.439 . S
O145 C146 1.208 . S
C146 O144 1.247 . S
C146 O145 1.208 . S
C147 O152 1.247 . S
C147 O153 1.208 . S
C148 O140 1.315 . S
C148 O143 1.279 . S
C149 O150 1.315 . S
C149 O151 1.279 . S
O150 Cd142 2.223 . S
O150 C149 1.315 . S
O151 Cd141 2.240 . S
O151 C149 1.279 . S
O152 Cd142 2.297 . S
O152 C147 1.247 . S
O153 Cd142 2.439 . S
O153 C147 1.208 . S
O154 Cd155 2.223 . S
O154 C162 1.315 . S
Cd155 O154 2.223 . S
Cd155 O158 2.297 . S
Cd155 O159 2.439 . S
Cd155 O165 2.240 . S
Cd156 O157 2.240 . S
Cd156 O164 2.223 . S
Cd156 O166 2.297 . S
Cd156 O167 2.439 . S
O157 Cd156 2.240 . S
O157 C162 1.279 . S
O158 Cd155 2.297 . S
O158 C160 1.247 . S
O159 Cd155 2.439 . S
O159 C160 1.208 . S
C160 O158 1.247 . S
C160 O159 1.208 . S
C161 O166 1.247 . S
C161 O167 1.208 . S
C162 O154 1.315 . S
C162 O157 1.279 . S
C163 O164 1.315 . S
C163 O165 1.279 . S
O164 Cd156 2.223 . S
O164 C163 1.315 . S
O165 Cd155 2.240 . S
O165 C163 1.279 . S
O166 Cd156 2.297 . S
O166 C161 1.247 . S
O167 Cd156 2.439 . S
O167 C161 1.208 . S
O168 Cd169 2.223 . S
O168 C176 1.315 . S
Cd169 O168 2.223 . S
Cd169 O172 2.297 . S
Cd169 O173 2.439 . S
Cd169 O179 2.240 . S
Cd170 O171 2.240 . S
Cd170 O178 2.223 . S
Cd170 O180 2.297 . S
Cd170 O181 2.439 . S
O171 Cd170 2.240 . S
O171 C176 1.279 . S
O172 Cd169 2.297 . S
O172 C174 1.247 . S
O173 Cd169 2.439 . S
O173 C174 1.208 . S
C174 O172 1.247 . S
C174 O173 1.208 . S
C175 O180 1.247 . S
C175 O181 1.208 . S
C176 O168 1.315 . S
C176 O171 1.279 . S
C177 O178 1.315 . S
C177 O179 1.279 . S
O178 Cd170 2.223 . S
O178 C177 1.315 . S
O179 Cd169 2.240 . S
O179 C177 1.279 . S
O180 Cd170 2.297 . S
O180 C175 1.247 . S
O181 Cd170 2.439 . S
O181 C175 1.208 . S
O182 Cd183 2.223 . S
O182 C190 1.315 . S
Cd183 O182 2.223 . S
Cd183 O186 2.297 . S
Cd183 O187 2.439 . S
Cd183 O193 2.240 . S
Cd184 O185 2.240 . S
Cd184 O192 2.223 . S
Cd184 O194 2.297 . S
Cd184 O195 2.439 . S
O185 Cd184 2.240 . S
O185 C190 1.279 . S
O186 Cd183 2.297 . S
O186 C188 1.247 . S
O187 Cd183 2.439 . S
O187 C188 1.208 . S
C188 O186 1.247 . S
C188 O187 1.208 . S
C189 O194 1.247 . S
C189 O195 1.208 . S
C190 O182 1.315 . S
C190 O185 1.279 . S
C191 O192 1.315 . S
C191 O193 1.279 . S
O192 Cd184 2.223 . S
O192 C191 1.315 . S
O193 Cd183 2.240 . S
O193 C191 1.279 . S
O194 Cd184 2.297 . S
O194 C189 1.247 . S
O195 Cd184 2.439 . S
O195 C189 1.208 . S
O196 Cd197 2.223 . S
O196 C204 1.315 . S
Cd197 O196 2.223 . S
Cd197 O200 2.297 . S
Cd197 O201 2.439 . S
Cd197 O207 2.240 . S
Cd198 O199 2.240 . S
Cd198 O206 2.223 . S
Cd198 O208 2.297 1_554 S
Cd198 O209 2.439 1_554 S
O199 Cd198 2.240 . S
O199 C204 1.279 . S
O200 Cd197 2.297 . S
O200 C202 1.247 . S
O201 Cd197 2.439 . S
O201 C202 1.208 . S
C202 O200 1.247 . S
C202 O201 1.208 . S
C203 O208 1.247 . S
C203 O209 1.208 . S
C204 O196 1.315 . S
C204 O199 1.279 . S
C205 O206 1.315 . S
C205 O207 1.279 . S
O206 Cd198 2.223 . S
O206 C205 1.315 . S
O207 Cd197 2.240 . S
O207 C205 1.279 . S
O208 Cd198 2.297 1_556 S
O208 C203 1.247 . S
O209 Cd198 2.439 1_556 S
O209 C203 1.208 . S
O210 Cd211 2.223 . S
O210 C218 1.315 . S
Cd211 O210 2.223 . S
Cd211 O214 2.297 . S
Cd211 O215 2.439 . S
Cd211 O221 2.240 . S
Cd212 O213 2.240 . S
Cd212 O220 2.223 . S
Cd212 O222 2.297 . S
Cd212 O223 2.439 . S
O213 Cd212 2.240 . S
O213 C218 1.279 . S
O214 Cd211 2.297 . S
O214 C216 1.247 . S
O215 Cd211 2.439 . S
O215 C216 1.208 . S
C216 O214 1.247 . S
C216 O215 1.208 . S
C217 O222 1.247 . S
C217 O223 1.208 . S
C218 O210 1.315 . S
C218 O213 1.279 . S
C219 O220 1.315 . S
C219 O221 1.279 . S
O220 Cd212 2.223 . S
O220 C219 1.315 . S
O221 Cd211 2.240 . S
O221 C219 1.279 . S
O222 Cd212 2.297 . S
O222 C217 1.247 . S
O223 Cd212 2.439 . S
O223 C217 1.208 . S
O224 Cd225 2.223 . S
O224 C232 1.315 . S
Cd225 O224 2.223 . S
Cd225 O228 2.297 . S
Cd225 O229 2.439 . S
Cd225 O235 2.240 . S
Cd226 O227 2.240 . S
Cd226 O234 2.223 . S
Cd226 O236 2.297 . S
Cd226 O237 2.439 . S
O227 Cd226 2.240 . S
O227 C232 1.279 . S
O228 Cd225 2.297 . S
O228 C230 1.247 . S
O229 Cd225 2.439 . S
O229 C230 1.208 . S
C230 O228 1.247 . S
C230 O229 1.208 . S
C231 O236 1.247 . S
C231 O237 1.208 . S
C232 O224 1.315 . S
C232 O227 1.279 . S
C233 O234 1.315 . S
C233 O235 1.279 . S
O234 Cd226 2.223 . S
O234 C233 1.315 . S
O235 Cd225 2.240 . S
O235 C233 1.279 . S
O236 Cd226 2.297 . S
O236 C231 1.247 . S
O237 Cd226 2.439 . S
O237 C231 1.208 . S
O238 Cd239 2.223 . S
O238 C246 1.315 . S
Cd239 O238 2.223 . S
Cd239 O242 2.297 . S
Cd239 O243 2.439 . S
Cd239 O249 2.240 . S
Cd240 O241 2.240 . S
Cd240 O248 2.223 . S
Cd240 O250 2.297 . S
Cd240 O251 2.439 . S
O241 Cd240 2.240 . S
O241 C246 1.279 . S
O242 Cd239 2.297 . S
O242 C244 1.247 . S
O243 Cd239 2.439 . S
O243 C244 1.208 . S
C244 O242 1.247 . S
C244 O243 1.208 . S
C245 O250 1.247 . S
C245 O251 1.208 . S
C246 O238 1.315 . S
C246 O241 1.279 . S
C247 O248 1.315 . S
C247 O249 1.279 . S
O248 Cd240 2.223 . S
O248 C247 1.315 . S
O249 Cd239 2.240 . S
O249 C247 1.279 . S
O250 Cd240 2.297 . S
O250 C245 1.247 . S
O251 Cd240 2.439 . S
O251 C245 1.208 . S
O252 Cd253 2.223 . S
O252 C260 1.315 . S
Cd253 O252 2.223 . S
Cd253 O256 2.297 . S
Cd253 O257 2.439 . S
Cd253 O263 2.240 . S
Cd254 O255 2.240 . S
Cd254 O262 2.223 . S
Cd254 O264 2.297 1_554 S
Cd254 O265 2.439 1_554 S
O255 Cd254 2.240 . S
O255 C260 1.279 . S
O256 Cd253 2.297 . S
O256 C258 1.247 . S
O257 Cd253 2.439 . S
O257 C258 1.208 . S
C258 O256 1.247 . S
C258 O257 1.208 . S
C259 O264 1.247 . S
C259 O265 1.208 . S
C260 O252 1.315 . S
C260 O255 1.279 . S
C261 O262 1.315 . S
C261 O263 1.279 . S
O262 Cd254 2.223 . S
O262 C261 1.315 . S
O263 Cd253 2.240 . S
O263 C261 1.279 . S
O264 Cd254 2.297 1_556 S
O264 C259 1.247 . S
O265 Cd254 2.439 1_556 S
O265 C259 1.208 . S
O266 Cd267 2.223 . S
O266 C274 1.315 . S
Cd267 O266 2.223 . S
Cd267 O270 2.297 . S
Cd267 O271 2.439 . S
Cd267 O277 2.240 . S
Cd268 O269 2.240 . S
Cd268 O276 2.223 . S
Cd268 O278 2.297 . S
Cd268 O279 2.439 . S
O269 Cd268 2.240 . S
O269 C274 1.279 . S
O270 Cd267 2.297 . S
O270 C272 1.247 . S
O271 Cd267 2.439 . S
O271 C272 1.208 . S
C272 O270 1.247 . S
C272 O271 1.208 . S
C273 O278 1.247 . S
C273 O279 1.208 . S
C274 O266 1.315 . S
C274 O269 1.279 . S
C275 O276 1.315 . S
C275 O277 1.279 . S
O276 Cd268 2.223 . S
O276 C275 1.315 . S
O277 Cd267 2.240 . S
O277 C275 1.279 . S
O278 Cd268 2.297 . S
O278 C273 1.247 . S
O279 Cd268 2.439 . S
O279 C273 1.208 . S
O280 Cd281 2.223 . S
O280 C288 1.315 . S
Cd281 O280 2.223 . S
Cd281 O284 2.297 . S
Cd281 O285 2.439 . S
Cd281 O291 2.240 . S
Cd282 O283 2.240 . S
Cd282 O290 2.223 . S
Cd282 O292 2.297 1_556 S
Cd282 O293 2.439 1_556 S
O283 Cd282 2.240 . S
O283 C288 1.279 . S
O284 Cd281 2.297 . S
O284 C286 1.247 . S
O285 Cd281 2.439 . S
O285 C286 1.208 . S
C286 O284 1.247 . S
C286 O285 1.208 . S
C287 O292 1.247 . S
C287 O293 1.208 . S
C288 O280 1.315 . S
C288 O283 1.279 . S
C289 O290 1.315 . S
C289 O291 1.279 . S
O290 Cd282 2.223 . S
O290 C289 1.315 . S
O291 Cd281 2.240 . S
O291 C289 1.279 . S
O292 Cd282 2.297 1_554 S
O292 C287 1.247 . S
O293 Cd282 2.439 1_554 S
O293 C287 1.208 . S
O294 Cd295 2.223 . S
O294 C302 1.315 . S
Cd295 O294 2.223 . S
Cd295 O298 2.297 . S
Cd295 O299 2.439 . S
Cd295 O305 2.240 . S
Cd296 O297 2.240 . S
Cd296 O304 2.223 . S
Cd296 O306 2.297 . S
Cd296 O307 2.439 . S
O297 Cd296 2.240 . S
O297 C302 1.279 . S
O298 Cd295 2.297 . S
O298 C300 1.247 . S
O299 Cd295 2.439 . S
O299 C300 1.208 . S
C300 O298 1.247 . S
C300 O299 1.208 . S
C301 O306 1.247 . S
C301 O307 1.208 . S
C302 O294 1.315 . S
C302 O297 1.279 . S
C303 O304 1.315 . S
C303 O305 1.279 . S
O304 Cd296 2.223 . S
O304 C303 1.315 . S
O305 Cd295 2.240 . S
O305 C303 1.279 . S
O306 Cd296 2.297 . S
O306 C301 1.247 . S
O307 Cd296 2.439 . S
O307 C301 1.208 . S
O308 Cd309 2.223 . S
O308 C316 1.315 . S
Cd309 O308 2.223 . S
Cd309 O312 2.297 . S
Cd309 O313 2.439 . S
Cd309 O319 2.240 . S
Cd310 O311 2.240 . S
Cd310 O318 2.223 . S
Cd310 O320 2.297 . S
Cd310 O321 2.439 . S
O311 Cd310 2.240 . S
O311 C316 1.279 . S
O312 Cd309 2.297 . S
O312 C314 1.247 . S
O313 Cd309 2.439 . S
O313 C314 1.208 . S
C314 O312 1.247 . S
C314 O313 1.208 . S
C315 O320 1.247 . S
C315 O321 1.208 . S
C316 O308 1.315 . S
C316 O311 1.279 . S
C317 O318 1.315 . S
C317 O319 1.279 . S
O318 Cd310 2.223 . S
O318 C317 1.315 . S
O319 Cd309 2.240 . S
O319 C317 1.279 . S
O320 Cd310 2.297 . S
O320 C315 1.247 . S
O321 Cd310 2.439 . S
O321 C315 1.208 . S
O322 Cd323 2.223 . S
O322 C330 1.315 . S
Cd323 O322 2.223 . S
Cd323 O326 2.297 . S
Cd323 O327 2.439 . S
Cd323 O333 2.240 . S
Cd324 O325 2.240 . S
Cd324 O332 2.223 . S
Cd324 O334 2.297 . S
Cd324 O335 2.439 . S
O325 Cd324 2.240 . S
O325 C330 1.279 . S
O326 Cd323 2.297 . S
O326 C328 1.247 . S
O327 Cd323 2.439 . S
O327 C328 1.208 . S
C328 O326 1.247 . S
C328 O327 1.208 . S
C329 O334 1.247 . S
C329 O335 1.208 . S
C330 O322 1.315 . S
C330 O325 1.279 . S
C331 O332 1.315 . S
C331 O333 1.279 . S
O332 Cd324 2.223 . S
O332 C331 1.315 . S
O333 Cd323 2.240 . S
O333 C331 1.279 . S
O334 Cd324 2.297 . S
O334 C329 1.247 . S
O335 Cd324 2.439 . S
O335 C329 1.208 . S
O336 Cd337 2.223 . S
O336 C344 1.315 . S
Cd337 O336 2.223 . S
Cd337 O340 2.297 . S
Cd337 O341 2.439 . S
Cd337 O347 2.240 . S
Cd338 O339 2.240 . S
Cd338 O346 2.223 . S
Cd338 O348 2.297 . S
Cd338 O349 2.439 . S
O339 Cd338 2.240 . S
O339 C344 1.279 . S
O340 Cd337 2.297 . S
O340 C342 1.247 . S
O341 Cd337 2.439 . S
O341 C342 1.208 . S
C342 O340 1.247 . S
C342 O341 1.208 . S
C343 O348 1.247 . S
C343 O349 1.208 . S
C344 O336 1.315 . S
C344 O339 1.279 . S
C345 O346 1.315 . S
C345 O347 1.279 . S
O346 Cd338 2.223 . S
O346 C345 1.315 . S
O347 Cd337 2.240 . S
O347 C345 1.279 . S
O348 Cd338 2.297 . S
O348 C343 1.247 . S
O349 Cd338 2.439 . S
O349 C343 1.208 . S
O350 Cd351 2.223 . S
O350 C358 1.315 . S
Cd351 O350 2.223 . S
Cd351 O354 2.297 . S
Cd351 O355 2.439 . S
Cd351 O361 2.240 . S
Cd352 O353 2.240 . S
Cd352 O360 2.223 . S
Cd352 O362 2.297 . S
Cd352 O363 2.439 . S
O353 Cd352 2.240 . S
O353 C358 1.279 . S
O354 Cd351 2.297 . S
O354 C356 1.247 . S
O355 Cd351 2.439 . S
O355 C356 1.208 . S
C356 O354 1.247 . S
C356 O355 1.208 . S
C357 O362 1.247 . S
C357 O363 1.208 . S
C358 O350 1.315 . S
C358 O353 1.279 . S
C359 O360 1.315 . S
C359 O361 1.279 . S
O360 Cd352 2.223 . S
O360 C359 1.315 . S
O361 Cd351 2.240 . S
O361 C359 1.279 . S
O362 Cd352 2.297 . S
O362 C357 1.247 . S
O363 Cd352 2.439 . S
O363 C357 1.208 . S
O364 Cd365 2.223 . S
O364 C372 1.315 . S
Cd365 O364 2.223 . S
Cd365 O368 2.297 . S
Cd365 O369 2.439 . S
Cd365 O375 2.240 . S
Cd366 O367 2.240 . S
Cd366 O374 2.223 . S
Cd366 O376 2.297 1_556 S
Cd366 O377 2.439 1_556 S
O367 Cd366 2.240 . S
O367 C372 1.279 . S
O368 Cd365 2.297 . S
O368 C370 1.247 . S
O369 Cd365 2.439 . S
O369 C370 1.208 . S
C370 O368 1.247 . S
C370 O369 1.208 . S
C371 O376 1.247 . S
C371 O377 1.208 . S
C372 O364 1.315 . S
C372 O367 1.279 . S
C373 O374 1.315 . S
C373 O375 1.279 . S
O374 Cd366 2.223 . S
O374 C373 1.315 . S
O375 Cd365 2.240 . S
O375 C373 1.279 . S
O376 Cd366 2.297 1_554 S
O376 C371 1.247 . S
O377 Cd366 2.439 1_554 S
O377 C371 1.208 . S
O378 Cd379 2.223 . S
O378 C386 1.315 . S
Cd379 O378 2.223 . S
Cd379 O382 2.297 . S
Cd379 O383 2.439 . S
Cd379 O389 2.240 . S
Cd380 O381 2.240 . S
Cd380 O388 2.223 . S
Cd380 O390 2.297 . S
Cd380 O391 2.439 . S
O381 Cd380 2.240 . S
O381 C386 1.279 . S
O382 Cd379 2.297 . S
O382 C384 1.247 . S
O383 Cd379 2.439 . S
O383 C384 1.208 . S
C384 O382 1.247 . S
C384 O383 1.208 . S
C385 O390 1.247 . S
C385 O391 1.208 . S
C386 O378 1.315 . S
C386 O381 1.279 . S
C387 O388 1.315 . S
C387 O389 1.279 . S
O388 Cd380 2.223 . S
O388 C387 1.315 . S
O389 Cd379 2.240 . S
O389 C387 1.279 . S
O390 Cd380 2.297 . S
O390 C385 1.247 . S
O391 Cd380 2.439 . S
O391 C385 1.208 . S
O392 Cd393 2.223 . S
O392 C400 1.315 . S
Cd393 O392 2.223 . S
Cd393 O396 2.297 . S
Cd393 O397 2.439 . S
Cd393 O403 2.240 . S
Cd394 O395 2.240 . S
Cd394 O402 2.223 . S
Cd394 O404 2.297 1_554 S
Cd394 O405 2.439 1_554 S
O395 Cd394 2.240 . S
O395 C400 1.279 . S
O396 Cd393 2.297 . S
O396 C398 1.247 . S
O397 Cd393 2.439 . S
O397 C398 1.208 . S
C398 O396 1.247 . S
C398 O397 1.208 . S
C399 O404 1.247 . S
C399 O405 1.208 . S
C400 O392 1.315 . S
C400 O395 1.279 . S
C401 O402 1.315 . S
C401 O403 1.279 . S
O402 Cd394 2.223 . S
O402 C401 1.315 . S
O403 Cd393 2.240 . S
O403 C401 1.279 . S
O404 Cd394 2.297 1_556 S
O404 C399 1.247 . S
O405 Cd394 2.439 1_556 S
O405 C399 1.208 . S
O406 Cd407 2.223 . S
O406 C414 1.315 . S
Cd407 O406 2.223 . S
Cd407 O410 2.297 . S
Cd407 O411 2.439 . S
Cd407 O417 2.240 . S
Cd408 O409 2.240 . S
Cd408 O416 2.223 . S
Cd408 O418 2.297 . S
Cd408 O419 2.439 . S
O409 Cd408 2.240 . S
O409 C414 1.279 . S
O410 Cd407 2.297 . S
O410 C412 1.247 . S
O411 Cd407 2.439 . S
O411 C412 1.208 . S
C412 O410 1.247 . S
C412 O411 1.208 . S
C413 O418 1.247 . S
C413 O419 1.208 . S
C414 O406 1.315 . S
C414 O409 1.279 . S
C415 O416 1.315 . S
C415 O417 1.279 . S
O416 Cd408 2.223 . S
O416 C415 1.315 . S
O417 Cd407 2.240 . S
O417 C415 1.279 . S
O418 Cd408 2.297 . S
O418 C413 1.247 . S
O419 Cd408 2.439 . S
O419 C413 1.208 . S
O420 Cd421 2.223 . S
O420 C428 1.315 . S
Cd421 O420 2.223 . S
Cd421 O424 2.297 . S
Cd421 O425 2.439 . S
Cd421 O431 2.240 . S
Cd422 O423 2.240 . S
Cd422 O430 2.223 . S
Cd422 O432 2.297 . S
Cd422 O433 2.439 . S
O423 Cd422 2.240 . S
O423 C428 1.279 . S
O424 Cd421 2.297 . S
O424 C426 1.247 . S
O425 Cd421 2.439 . S
O425 C426 1.208 . S
C426 O424 1.247 . S
C426 O425 1.208 . S
C427 O432 1.247 . S
C427 O433 1.208 . S
C428 O420 1.315 . S
C428 O423 1.279 . S
C429 O430 1.315 . S
C429 O431 1.279 . S
O430 Cd422 2.223 . S
O430 C429 1.315 . S
O431 Cd421 2.240 . S
O431 C429 1.279 . S
O432 Cd422 2.297 . S
O432 C427 1.247 . S
O433 Cd422 2.439 . S
O433 C427 1.208 . S
O434 Cd435 2.223 . S
O434 C442 1.315 . S
Cd435 O434 2.223 . S
Cd435 O438 2.297 . S
Cd435 O439 2.439 . S
Cd435 O445 2.240 . S
Cd436 O437 2.240 . S
Cd436 O444 2.223 . S
Cd436 O446 2.297 . S
Cd436 O447 2.439 . S
O437 Cd436 2.240 . S
O437 C442 1.279 . S
O438 Cd435 2.297 . S
O438 C440 1.247 . S
O439 Cd435 2.439 . S
O439 C440 1.208 . S
C440 O438 1.247 . S
C440 O439 1.208 . S
C441 O446 1.247 . S
C441 O447 1.208 . S
C442 O434 1.315 . S
C442 O437 1.279 . S
C443 O444 1.315 . S
C443 O445 1.279 . S
O444 Cd436 2.223 . S
O444 C443 1.315 . S
O445 Cd435 2.240 . S
O445 C443 1.279 . S
O446 Cd436 2.297 . S
O446 C441 1.247 . S
O447 Cd436 2.439 . S
O447 C441 1.208 . S
C448 C449 1.349 . S
C448 C450 1.327 . S
C448 H473 0.950 . S
C449 C448 1.349 . S
C449 C465 1.349 . S
C450 C448 1.327 . S
C450 C469 1.429 . S
C450 H474 0.950 . S
C451 C468 1.574 . S
C451 C470 1.368 1_554 S
C451 H475 0.949 . S
H452 C456 0.949 . S
C453 C454 1.349 . S
C453 C455 1.327 . S
C453 H476 0.950 . S
C454 C453 1.349 . S
C454 C466 1.349 . S
C455 C453 1.327 . S
C455 C471 1.429 . S
C455 H477 0.950 . S
C456 H452 0.949 . S
C456 C464 1.574 . S
C456 C472 1.368 1_556 S
H457 C465 0.950 1_554 S
H458 C463 0.950 . S
H459 C464 0.949 . S
H460 C466 0.950 1_556 S
H461 C467 0.950 . S
H462 C468 0.949 . S
C463 H458 0.950 . S
C463 C465 1.327 1_554 S
C463 C469 1.429 1_554 S
C464 C456 1.574 . S
C464 H459 0.949 . S
C464 C470 1.368 . S
C465 C449 1.349 . S
C465 H457 0.950 1_556 S
C465 C463 1.327 1_556 S
C466 C454 1.349 . S
C466 H460 0.950 1_554 S
C466 C467 1.327 1_554 S
C467 H461 0.950 . S
C467 C466 1.327 1_556 S
C467 C471 1.429 1_556 S
C468 C451 1.574 . S
C468 H462 0.949 . S
C468 C472 1.368 . S
C469 C450 1.429 . S
C469 C463 1.429 1_556 S
C469 C470 1.523 . S
C470 C451 1.368 1_556 S
C470 C464 1.368 . S
C470 C469 1.523 . S
C471 C455 1.429 . S
C471 C467 1.429 1_554 S
C471 C472 1.523 . S
C472 C456 1.368 1_554 S
C472 C468 1.368 . S
C472 C471 1.523 . S
H473 C448 0.950 . S
H474 C450 0.950 . S
H475 C451 0.949 . S
H476 C453 0.950 . S
H477 C455 0.950 . S
C478 C479 1.349 . S
C478 C480 1.327 . S
C478 H503 0.950 . S
C479 C478 1.349 . S
C479 C495 1.349 . S
C480 C478 1.327 . S
C480 C499 1.429 . S
C480 H504 0.950 . S
C481 C498 1.574 1_565 S
C481 C500 1.368 . S
C481 H505 0.949 . S
H482 C486 0.949 . S
C483 C484 1.349 . S
C483 C485 1.327 . S
C483 H506 0.950 . S
C484 C483 1.349 . S
C484 C496 1.349 . S
C485 C483 1.327 . S
C485 C501 1.429 . S
C485 H507 0.950 . S
C486 H482 0.949 . S
C486 C494 1.574 1_545 S
C486 C502 1.368 . S
H487 C495 0.950 . S
H488 C493 0.950 . S
H489 C494 0.949 . S
H490 C496 0.950 . S
H491 C497 0.950 . S
H492 C498 0.949 . S
C493 H488 0.950 . S
C493 C495 1.327 . S
C493 C499 1.429 . S
C494 C486 1.574 1_565 S
C494 H489 0.949 . S
C494 C500 1.368 . S
C495 C479 1.349 . S
C495 H487 0.950 . S
C495 C493 1.327 . S
C496 C484 1.349 . S
C496 H490 0.950 . S
C496 C497 1.327 . S
C497 H491 0.950 . S
C497 C496 1.327 . S
C497 C501 1.429 . S
C498 C481 1.574 1_545 S
C498 H492 0.949 . S
C498 C502 1.368 . S
C499 C480 1.429 . S
C499 C493 1.429 . S
C499 C500 1.523 . S
C500 C481 1.368 . S
C500 C494 1.368 . S
C500 C499 1.523 . S
C501 C485 1.429 . S
C501 C497 1.429 . S
C501 C502 1.523 . S
C502 C486 1.368 . S
C502 C498 1.368 . S
C502 C501 1.523 . S
H503 C478 0.950 . S
H504 C480 0.950 . S
H505 C481 0.949 . S
H506 C483 0.950 . S
H507 C485 0.950 . S
C508 C509 1.349 . S
C508 C510 1.327 . S
C508 H533 0.950 . S
C509 C508 1.349 . S
C509 C525 1.349 . S
C510 C508 1.327 . S
C510 C529 1.429 . S
C510 H534 0.950 . S
C511 C528 1.574 . S
C511 C530 1.368 . S
C511 H535 0.949 . S
H512 C516 0.949 . S
C513 C514 1.349 . S
C513 C515 1.327 . S
C513 H536 0.950 . S
C514 C513 1.349 . S
C514 C526 1.349 . S
C515 C513 1.327 . S
C515 C531 1.429 . S
C515 H537 0.950 . S
C516 H512 0.949 . S
C516 C524 1.574 . S
C516 C532 1.368 . S
H517 C525 0.950 . S
H518 C523 0.950 . S
H519 C524 0.949 . S
H520 C526 0.950 . S
H521 C527 0.950 . S
H522 C528 0.949 . S
C523 H518 0.950 . S
C523 C525 1.327 . S
C523 C529 1.429 . S
C524 C516 1.574 . S
C524 H519 0.949 . S
C524 C530 1.368 . S
C525 C509 1.349 . S
C525 H517 0.950 . S
C525 C523 1.327 . S
C526 C514 1.349 . S
C526 H520 0.950 . S
C526 C527 1.327 . S
C527 H521 0.950 . S
C527 C526 1.327 . S
C527 C531 1.429 . S
C528 C511 1.574 . S
C528 H522 0.949 . S
C528 C532 1.368 . S
C529 C510 1.429 . S
C529 C523 1.429 . S
C529 C530 1.523 . S
C530 C511 1.368 . S
C530 C524 1.368 . S
C530 C529 1.523 . S
C531 C515 1.429 . S
C531 C527 1.429 . S
C531 C532 1.523 . S
C532 C516 1.368 . S
C532 C528 1.368 . S
C532 C531 1.523 . S
H533 C508 0.950 . S
H534 C510 0.950 . S
H535 C511 0.949 . S
H536 C513 0.950 . S
H537 C515 0.950 . S
C538 C539 1.349 . S
C538 C540 1.327 . S
C538 H563 0.950 . S
C539 C538 1.349 . S
C539 C555 1.349 . S
C540 C538 1.327 . S
C540 C559 1.429 . S
C540 H564 0.950 . S
C541 C558 1.574 1_545 S
C541 C560 1.368 . S
C541 H565 0.949 . S
H542 C546 0.949 . S
C543 C544 1.349 . S
C543 C545 1.327 . S
C543 H566 0.950 . S
C544 C543 1.349 . S
C544 C556 1.349 . S
C545 C543 1.327 . S
C545 C561 1.429 . S
C545 H567 0.950 . S
C546 H542 0.949 . S
C546 C554 1.574 1_565 S
C546 C562 1.368 . S
H547 C555 0.950 . S
H548 C553 0.950 . S
H549 C554 0.949 . S
H550 C556 0.950 . S
H551 C557 0.950 . S
H552 C558 0.949 . S
C553 H548 0.950 . S
C553 C555 1.327 . S
C553 C559 1.429 . S
C554 C546 1.574 1_545 S
C554 H549 0.949 . S
C554 C560 1.368 . S
C555 C539 1.349 . S
C555 H547 0.950 . S
C555 C553 1.327 . S
C556 C544 1.349 . S
C556 H550 0.950 . S
C556 C557 1.327 . S
C557 H551 0.950 . S
C557 C556 1.327 . S
C557 C561 1.429 . S
C558 C541 1.574 1_565 S
C558 H552 0.949 . S
C558 C562 1.368 . S
C559 C540 1.429 . S
C559 C553 1.429 . S
C559 C560 1.523 . S
C560 C541 1.368 . S
C560 C554 1.368 . S
C560 C559 1.523 . S
C561 C545 1.429 . S
C561 C557 1.429 . S
C561 C562 1.523 . S
C562 C546 1.368 . S
C562 C558 1.368 . S
C562 C561 1.523 . S
H563 C538 0.950 . S
H564 C540 0.950 . S
H565 C541 0.949 . S
H566 C543 0.950 . S
H567 C545 0.950 . S
C568 C569 1.349 . S
C568 C570 1.327 . S
C568 H593 0.950 . S
C569 C568 1.349 . S
C569 C585 1.349 . S
C570 C568 1.327 . S
C570 C589 1.429 . S
C570 H594 0.950 . S
C571 C588 1.574 . S
C571 C590 1.368 1_556 S
C571 H595 0.949 . S
H572 C576 0.949 . S
C573 C574 1.349 . S
C573 C575 1.327 . S
C573 H596 0.950 . S
C574 C573 1.349 . S
C574 C586 1.349 . S
C575 C573 1.327 . S
C575 C591 1.429 . S
C575 H597 0.950 . S
C576 H572 0.949 . S
C576 C584 1.574 . S
C576 C592 1.368 1_554 S
H577 C585 0.950 1_556 S
H578 C583 0.950 . S
H579 C584 0.949 . S
H580 C586 0.950 1_554 S
H581 C587 0.950 . S
H582 C588 0.949 . S
C583 H578 0.950 . S
C583 C585 1.327 1_556 S
C583 C589 1.429 1_556 S
C584 C576 1.574 . S
C584 H579 0.949 . S
C584 C590 1.368 . S
C585 C569 1.349 . S
C585 H577 0.950 1_554 S
C585 C583 1.327 1_554 S
C586 C574 1.349 . S
C586 H580 0.950 1_556 S
C586 C587 1.327 1_556 S
C587 H581 0.950 . S
C587 C586 1.327 1_554 S
C587 C591 1.429 1_554 S
C588 C571 1.574 . S
C588 H582 0.949 . S
C588 C592 1.368 . S
C589 C570 1.429 . S
C589 C583 1.429 1_554 S
C589 C590 1.523 . S
C590 C571 1.368 1_554 S
C590 C584 1.368 . S
C590 C589 1.523 . S
C591 C575 1.429 . S
C591 C587 1.429 1_556 S
C591 C592 1.523 . S
C592 C576 1.368 1_556 S
C592 C588 1.368 . S
C592 C591 1.523 . S
H593 C568 0.950 . S
H594 C570 0.950 . S
H595 C571 0.949 . S
H596 C573 0.950 . S
H597 C575 0.950 . S
C598 C599 1.349 . S
C598 C600 1.327 . S
C598 H623 0.950 . S
C599 C598 1.349 . S
C599 C615 1.349 . S
C600 C598 1.327 . S
C600 C619 1.429 . S
C600 H624 0.950 . S
C601 C618 1.574 1_565 S
C601 C620 1.368 . S
C601 H625 0.949 . S
H602 C606 0.949 . S
C603 C604 1.349 . S
C603 C605 1.327 . S
C603 H626 0.950 . S
C604 C603 1.349 . S
C604 C616 1.349 . S
C605 C603 1.327 . S
C605 C621 1.429 . S
C605 H627 0.950 . S
C606 H602 0.949 . S
C606 C614 1.574 1_545 S
C606 C622 1.368 . S
H607 C615 0.950 . S
H608 C613 0.950 . S
H609 C614 0.949 . S
H610 C616 0.950 . S
H611 C617 0.950 . S
H612 C618 0.949 . S
C613 H608 0.950 . S
C613 C615 1.327 . S
C613 C619 1.429 . S
C614 C606 1.574 1_565 S
C614 H609 0.949 . S
C614 C620 1.368 . S
C615 C599 1.349 . S
C615 H607 0.950 . S
C615 C613 1.327 . S
C616 C604 1.349 . S
C616 H610 0.950 . S
C616 C617 1.327 . S
C617 H611 0.950 . S
C617 C616 1.327 . S
C617 C621 1.429 . S
C618 C601 1.574 1_545 S
C618 H612 0.949 . S
C618 C622 1.368 . S
C619 C600 1.429 . S
C619 C613 1.429 . S
C619 C620 1.523 . S
C620 C601 1.368 . S
C620 C614 1.368 . S
C620 C619 1.523 . S
C621 C605 1.429 . S
C621 C617 1.429 . S
C621 C622 1.523 . S
C622 C606 1.368 . S
C622 C618 1.368 . S
C622 C621 1.523 . S
H623 C598 0.950 . S
H624 C600 0.950 . S
H625 C601 0.949 . S
H626 C603 0.950 . S
H627 C605 0.950 . S
C628 C629 1.349 . S
C628 C630 1.327 . S
C628 H653 0.950 . S
C629 C628 1.349 . S
C629 C645 1.349 . S
C630 C628 1.327 . S
C630 C649 1.429 . S
C630 H654 0.950 . S
C631 C648 1.574 . S
C631 C650 1.368 . S
C631 H655 0.949 . S
H632 C636 0.949 . S
C633 C634 1.349 . S
C633 C635 1.327 . S
C633 H656 0.950 . S
C634 C633 1.349 . S
C634 C646 1.349 . S
C635 C633 1.327 . S
C635 C651 1.429 . S
C635 H657 0.950 . S
C636 H632 0.949 . S
C636 C644 1.574 . S
C636 C652 1.368 . S
H637 C645 0.950 . S
H638 C643 0.950 . S
H639 C644 0.949 . S
H640 C646 0.950 . S
H641 C647 0.950 . S
H642 C648 0.949 . S
C643 H638 0.950 . S
C643 C645 1.327 . S
C643 C649 1.429 . S
C644 C636 1.574 . S
C644 H639 0.949 . S
C644 C650 1.368 . S
C645 C629 1.349 . S
C645 H637 0.950 . S
C645 C643 1.327 . S
C646 C634 1.349 . S
C646 H640 0.950 . S
C646 C647 1.327 . S
C647 H641 0.950 . S
C647 C646 1.327 . S
C647 C651 1.429 . S
C648 C631 1.574 . S
C648 H642 0.949 . S
C648 C652 1.368 . S
C649 C630 1.429 . S
C649 C643 1.429 . S
C649 C650 1.523 . S
C650 C631 1.368 . S
C650 C644 1.368 . S
C650 C649 1.523 . S
C651 C635 1.429 . S
C651 C647 1.429 . S
C651 C652 1.523 . S
C652 C636 1.368 . S
C652 C648 1.368 . S
C652 C651 1.523 . S
H653 C628 0.950 . S
H654 C630 0.950 . S
H655 C631 0.949 . S
H656 C633 0.950 . S
H657 C635 0.950 . S
C658 C659 1.349 . S
C658 C660 1.327 . S
C658 H683 0.950 . S
C659 C658 1.349 . S
C659 C675 1.349 . S
C660 C658 1.327 . S
C660 C679 1.429 . S
C660 H684 0.950 . S
C661 C678 1.574 1_565 S
C661 C680 1.368 . S
C661 H685 0.949 . S
H662 C666 0.949 . S
C663 C664 1.349 . S
C663 C665 1.327 . S
C663 H686 0.950 . S
C664 C663 1.349 . S
C664 C676 1.349 . S
C665 C663 1.327 . S
C665 C681 1.429 . S
C665 H687 0.950 . S
C666 H662 0.949 . S
C666 C674 1.574 1_545 S
C666 C682 1.368 . S
H667 C675 0.950 . S
H668 C673 0.950 . S
H669 C674 0.949 . S
H670 C676 0.950 . S
H671 C677 0.950 . S
H672 C678 0.949 . S
C673 H668 0.950 . S
C673 C675 1.327 . S
C673 C679 1.429 . S
C674 C666 1.574 1_565 S
C674 H669 0.949 . S
C674 C680 1.368 . S
C675 C659 1.349 . S
C675 H667 0.950 . S
C675 C673 1.327 . S
C676 C664 1.349 . S
C676 H670 0.950 . S
C676 C677 1.327 . S
C677 H671 0.950 . S
C677 C676 1.327 . S
C677 C681 1.429 . S
C678 C661 1.574 1_545 S
C678 H672 0.949 . S
C678 C682 1.368 . S
C679 C660 1.429 . S
C679 C673 1.429 . S
C679 C680 1.523 . S
C680 C661 1.368 . S
C680 C674 1.368 . S
C680 C679 1.523 . S
C681 C665 1.429 . S
C681 C677 1.429 . S
C681 C682 1.523 . S
C682 C666 1.368 . S
C682 C678 1.368 . S
C682 C681 1.523 . S
H683 C658 0.950 . S
H684 C660 0.950 . S
H685 C661 0.949 . S
H686 C663 0.950 . S
H687 C665 0.950 . S
C688 C689 1.349 . S
C688 C690 1.327 . S
C688 H713 0.950 . S
C689 C688 1.349 . S
C689 C705 1.349 . S
C690 C688 1.327 . S
C690 C709 1.429 . S
C690 H714 0.950 . S
C691 C708 1.574 . S
C691 C710 1.368 . S
C691 H715 0.949 . S
H692 C696 0.949 . S
C693 C694 1.349 . S
C693 C695 1.327 . S
C693 H716 0.950 . S
C694 C693 1.349 . S
C694 C706 1.349 . S
C695 C693 1.327 . S
C695 C711 1.429 . S
C695 H717 0.950 . S
C696 H692 0.949 . S
C696 C704 1.574 . S
C696 C712 1.368 . S
H697 C705 0.950 . S
H698 C703 0.950 . S
H699 C704 0.949 . S
H700 C706 0.950 . S
H701 C707 0.950 . S
H702 C708 0.949 . S
C703 H698 0.950 . S
C703 C705 1.327 . S
C703 C709 1.429 . S
C704 C696 1.574 . S
C704 H699 0.949 . S
C704 C710 1.368 . S
C705 C689 1.349 . S
C705 H697 0.950 . S
C705 C703 1.327 . S
C706 C694 1.349 . S
C706 H700 0.950 . S
C706 C707 1.327 . S
C707 H701 0.950 . S
C707 C706 1.327 . S
C707 C711 1.429 . S
C708 C691 1.574 . S
C708 H702 0.949 . S
C708 C712 1.368 . S
C709 C690 1.429 . S
C709 C703 1.429 . S
C709 C710 1.523 . S
C710 C691 1.368 . S
C710 C704 1.368 . S
C710 C709 1.523 . S
C711 C695 1.429 . S
C711 C707 1.429 . S
C711 C712 1.523 . S
C712 C696 1.368 . S
C712 C708 1.368 . S
C712 C711 1.523 . S
H713 C688 0.950 . S
H714 C690 0.950 . S
H715 C691 0.949 . S
H716 C693 0.950 . S
H717 C695 0.950 . S
C718 C719 1.349 . S
C718 C720 1.327 . S
C718 H743 0.950 . S
C719 C718 1.349 . S
C719 C735 1.349 . S
C720 C718 1.327 . S
C720 C739 1.429 . S
C720 H744 0.950 . S
C721 C738 1.574 . S
C721 C740 1.368 . S
C721 H745 0.949 . S
H722 C726 0.949 . S
C723 C724 1.349 . S
C723 C725 1.327 . S
C723 H746 0.950 . S
C724 C723 1.349 . S
C724 C736 1.349 . S
C725 C723 1.327 . S
C725 C741 1.429 . S
C725 H747 0.950 . S
C726 H722 0.949 . S
C726 C734 1.574 . S
C726 C742 1.368 . S
H727 C735 0.950 . S
H728 C733 0.950 . S
H729 C734 0.949 . S
H730 C736 0.950 . S
H731 C737 0.950 . S
H732 C738 0.949 . S
C733 H728 0.950 . S
C733 C735 1.327 . S
C733 C739 1.429 . S
C734 C726 1.574 . S
C734 H729 0.949 . S
C734 C740 1.368 . S
C735 C719 1.349 . S
C735 H727 0.950 . S
C735 C733 1.327 . S
C736 C724 1.349 . S
C736 H730 0.950 . S
C736 C737 1.327 . S
C737 H731 0.950 . S
C737 C736 1.327 . S
C737 C741 1.429 . S
C738 C721 1.574 . S
C738 H732 0.949 . S
C738 C742 1.368 . S
C739 C720 1.429 . S
C739 C733 1.429 . S
C739 C740 1.523 . S
C740 C721 1.368 . S
C740 C734 1.368 . S
C740 C739 1.523 . S
C741 C725 1.429 . S
C741 C737 1.429 . S
C741 C742 1.523 . S
C742 C726 1.368 . S
C742 C738 1.368 . S
C742 C741 1.523 . S
H743 C718 0.950 . S
H744 C720 0.950 . S
H745 C721 0.949 . S
H746 C723 0.950 . S
H747 C725 0.950 . S
C748 C749 1.349 . S
C748 C750 1.327 . S
C748 H773 0.950 . S
C749 C748 1.349 . S
C749 C765 1.349 . S
C750 C748 1.327 . S
C750 C769 1.429 . S
C750 H774 0.950 . S
C751 C768 1.574 . S
C751 C770 1.368 1_554 S
C751 H775 0.949 . S
H752 C756 0.949 . S
C753 C754 1.349 . S
C753 C755 1.327 . S
C753 H776 0.950 . S
C754 C753 1.349 . S
C754 C766 1.349 . S
C755 C753 1.327 . S
C755 C771 1.429 . S
C755 H777 0.950 . S
C756 H752 0.949 . S
C756 C764 1.574 . S
C756 C772 1.368 1_556 S
H757 C765 0.950 1_554 S
H758 C763 0.950 . S
H759 C764 0.949 . S
H760 C766 0.950 1_556 S
H761 C767 0.950 . S
H762 C768 0.949 . S
C763 H758 0.950 . S
C763 C765 1.327 1_554 S
C763 C769 1.429 1_554 S
C764 C756 1.574 . S
C764 H759 0.949 . S
C764 C770 1.368 . S
C765 C749 1.349 . S
C765 H757 0.950 1_556 S
C765 C763 1.327 1_556 S
C766 C754 1.349 . S
C766 H760 0.950 1_554 S
C766 C767 1.327 1_554 S
C767 H761 0.950 . S
C767 C766 1.327 1_556 S
C767 C771 1.429 1_556 S
C768 C751 1.574 . S
C768 H762 0.949 . S
C768 C772 1.368 . S
C769 C750 1.429 . S
C769 C763 1.429 1_556 S
C769 C770 1.523 . S
C770 C751 1.368 1_556 S
C770 C764 1.368 . S
C770 C769 1.523 . S
C771 C755 1.429 . S
C771 C767 1.429 1_554 S
C771 C772 1.523 . S
C772 C756 1.368 1_554 S
C772 C768 1.368 . S
C772 C771 1.523 . S
H773 C748 0.950 . S
H774 C750 0.950 . S
H775 C751 0.949 . S
H776 C753 0.950 . S
H777 C755 0.950 . S
C778 C779 1.349 . S
C778 C780 1.327 . S
C778 H803 0.950 . S
C779 C778 1.349 . S
C779 C795 1.349 . S
C780 C778 1.327 . S
C780 C799 1.429 . S
C780 H804 0.950 . S
C781 C798 1.574 . S
C781 C800 1.368 . S
C781 H805 0.949 . S
H782 C786 0.949 . S
C783 C784 1.349 . S
C783 C785 1.327 . S
C783 H806 0.950 . S
C784 C783 1.349 . S
C784 C796 1.349 . S
C785 C783 1.327 . S
C785 C801 1.429 . S
C785 H807 0.950 . S
C786 H782 0.949 . S
C786 C794 1.574 . S
C786 C802 1.368 . S
H787 C795 0.950 . S
H788 C793 0.950 . S
H789 C794 0.949 . S
H790 C796 0.950 . S
H791 C797 0.950 . S
H792 C798 0.949 . S
C793 H788 0.950 . S
C793 C795 1.327 . S
C793 C799 1.429 . S
C794 C786 1.574 . S
C794 H789 0.949 . S
C794 C800 1.368 . S
C795 C779 1.349 . S
C795 H787 0.950 . S
C795 C793 1.327 . S
C796 C784 1.349 . S
C796 H790 0.950 . S
C796 C797 1.327 . S
C797 H791 0.950 . S
C797 C796 1.327 . S
C797 C801 1.429 . S
C798 C781 1.574 . S
C798 H792 0.949 . S
C798 C802 1.368 . S
C799 C780 1.429 . S
C799 C793 1.429 . S
C799 C800 1.523 . S
C800 C781 1.368 . S
C800 C794 1.368 . S
C800 C799 1.523 . S
C801 C785 1.429 . S
C801 C797 1.429 . S
C801 C802 1.523 . S
C802 C786 1.368 . S
C802 C798 1.368 . S
C802 C801 1.523 . S
H803 C778 0.950 . S
H804 C780 0.950 . S
H805 C781 0.949 . S
H806 C783 0.950 . S
H807 C785 0.950 . S
C808 C809 1.349 . S
C808 C810 1.327 . S
C808 H833 0.950 . S
C809 C808 1.349 . S
C809 C825 1.349 . S
C810 C808 1.327 . S
C810 C829 1.429 . S
C810 H834 0.950 . S
C811 C828 1.574 . S
C811 C830 1.368 . S
C811 H835 0.949 . S
H812 C816 0.949 . S
C813 C814 1.349 . S
C813 C815 1.327 . S
C813 H836 0.950 . S
C814 C813 1.349 . S
C814 C826 1.349 . S
C815 C813 1.327 . S
C815 C831 1.429 . S
C815 H837 0.950 . S
C816 H812 0.949 . S
C816 C824 1.574 . S
C816 C832 1.368 . S
H817 C825 0.950 . S
H818 C823 0.950 . S
H819 C824 0.949 . S
H820 C826 0.950 . S
H821 C827 0.950 . S
H822 C828 0.949 . S
C823 H818 0.950 . S
C823 C825 1.327 . S
C823 C829 1.429 . S
C824 C816 1.574 . S
C824 H819 0.949 . S
C824 C830 1.368 . S
C825 C809 1.349 . S
C825 H817 0.950 . S
C825 C823 1.327 . S
C826 C814 1.349 . S
C826 H820 0.950 . S
C826 C827 1.327 . S
C827 H821 0.950 . S
C827 C826 1.327 . S
C827 C831 1.429 . S
C828 C811 1.574 . S
C828 H822 0.949 . S
C828 C832 1.368 . S
C829 C810 1.429 . S
C829 C823 1.429 . S
C829 C830 1.523 . S
C830 C811 1.368 . S
C830 C824 1.368 . S
C830 C829 1.523 . S
C831 C815 1.429 . S
C831 C827 1.429 . S
C831 C832 1.523 . S
C832 C816 1.368 . S
C832 C828 1.368 . S
C832 C831 1.523 . S
H833 C808 0.950 . S
H834 C810 0.950 . S
H835 C811 0.949 . S
H836 C813 0.950 . S
H837 C815 0.950 . S
C838 C839 1.349 . S
C838 C840 1.327 . S
C838 H863 0.950 . S
C839 C838 1.349 . S
C839 C855 1.349 . S
C840 C838 1.327 . S
C840 C859 1.429 . S
C840 H864 0.950 . S
C841 C858 1.574 . S
C841 C860 1.368 . S
C841 H865 0.949 . S
H842 C846 0.949 . S
C843 C844 1.349 . S
C843 C845 1.327 . S
C843 H866 0.950 . S
C844 C843 1.349 . S
C844 C856 1.349 . S
C845 C843 1.327 . S
C845 C861 1.429 . S
C845 H867 0.950 . S
C846 H842 0.949 . S
C846 C854 1.574 . S
C846 C862 1.368 . S
H847 C855 0.950 . S
H848 C853 0.950 . S
H849 C854 0.949 . S
H850 C856 0.950 . S
H851 C857 0.950 . S
H852 C858 0.949 . S
C853 H848 0.950 . S
C853 C855 1.327 . S
C853 C859 1.429 . S
C854 C846 1.574 . S
C854 H849 0.949 . S
C854 C860 1.368 . S
C855 C839 1.349 . S
C855 H847 0.950 . S
C855 C853 1.327 . S
C856 C844 1.349 . S
C856 H850 0.950 . S
C856 C857 1.327 . S
C857 H851 0.950 . S
C857 C856 1.327 . S
C857 C861 1.429 . S
C858 C841 1.574 . S
C858 H852 0.949 . S
C858 C862 1.368 . S
C859 C840 1.429 . S
C859 C853 1.429 . S
C859 C860 1.523 . S
C860 C841 1.368 . S
C860 C854 1.368 . S
C860 C859 1.523 . S
C861 C845 1.429 . S
C861 C857 1.429 . S
C861 C862 1.523 . S
C862 C846 1.368 . S
C862 C858 1.368 . S
C862 C861 1.523 . S
H863 C838 0.950 . S
H864 C840 0.950 . S
H865 C841 0.949 . S
H866 C843 0.950 . S
H867 C845 0.950 . S
C868 C869 1.349 . S
C868 C870 1.327 . S
C868 H893 0.950 . S
C869 C868 1.349 . S
C869 C885 1.349 . S
C870 C868 1.327 . S
C870 C889 1.429 . S
C870 H894 0.950 . S
C871 C888 1.574 . S
C871 C890 1.368 1_556 S
C871 H895 0.949 . S
H872 C876 0.949 . S
C873 C874 1.349 . S
C873 C875 1.327 . S
C873 H896 0.950 . S
C874 C873 1.349 . S
C874 C886 1.349 . S
C875 C873 1.327 . S
C875 C891 1.429 . S
C875 H897 0.950 . S
C876 H872 0.949 . S
C876 C884 1.574 . S
C876 C892 1.368 1_554 S
H877 C885 0.950 1_556 S
H878 C883 0.950 . S
H879 C884 0.949 . S
H880 C886 0.950 1_554 S
H881 C887 0.950 . S
H882 C888 0.949 . S
C883 H878 0.950 . S
C883 C885 1.327 1_556 S
C883 C889 1.429 1_556 S
C884 C876 1.574 . S
C884 H879 0.949 . S
C884 C890 1.368 . S
C885 C869 1.349 . S
C885 H877 0.950 1_554 S
C885 C883 1.327 1_554 S
C886 C874 1.349 . S
C886 H880 0.950 1_556 S
C886 C887 1.327 1_556 S
C887 H881 0.950 . S
C887 C886 1.327 1_554 S
C887 C891 1.429 1_554 S
C888 C871 1.574 . S
C888 H882 0.949 . S
C888 C892 1.368 . S
C889 C870 1.429 . S
C889 C883 1.429 1_554 S
C889 C890 1.523 . S
C890 C871 1.368 1_554 S
C890 C884 1.368 . S
C890 C889 1.523 . S
C891 C875 1.429 . S
C891 C887 1.429 1_556 S
C891 C892 1.523 . S
C892 C876 1.368 1_556 S
C892 C888 1.368 . S
C892 C891 1.523 . S
H893 C868 0.950 . S
H894 C870 0.950 . S
H895 C871 0.949 . S
H896 C873 0.950 . S
H897 C875 0.950 . S
C898 C899 1.349 . S
C898 C900 1.327 . S
C898 H923 0.950 . S
C899 C898 1.349 . S
C899 C915 1.349 . S
C900 C898 1.327 . S
C900 C919 1.429 . S
C900 H924 0.950 . S
C901 C918 1.574 . S
C901 C920 1.368 . S
C901 H925 0.949 . S
H902 C906 0.949 . S
C903 C904 1.349 . S
C903 C905 1.327 . S
C903 H926 0.950 . S
C904 C903 1.349 . S
C904 C916 1.349 . S
C905 C903 1.327 . S
C905 C921 1.429 . S
C905 H927 0.950 . S
C906 H902 0.949 . S
C906 C914 1.574 . S
C906 C922 1.368 . S
H907 C915 0.950 . S
H908 C913 0.950 . S
H909 C914 0.949 . S
H910 C916 0.950 . S
H911 C917 0.950 . S
H912 C918 0.949 . S
C913 H908 0.950 . S
C913 C915 1.327 . S
C913 C919 1.429 . S
C914 C906 1.574 . S
C914 H909 0.949 . S
C914 C920 1.368 . S
C915 C899 1.349 . S
C915 H907 0.950 . S
C915 C913 1.327 . S
C916 C904 1.349 . S
C916 H910 0.950 . S
C916 C917 1.327 . S
C917 H911 0.950 . S
C917 C916 1.327 . S
C917 C921 1.429 . S
C918 C901 1.574 . S
C918 H912 0.949 . S
C918 C922 1.368 . S
C919 C900 1.429 . S
C919 C913 1.429 . S
C919 C920 1.523 . S
C920 C901 1.368 . S
C920 C914 1.368 . S
C920 C919 1.523 . S
C921 C905 1.429 . S
C921 C917 1.429 . S
C921 C922 1.523 . S
C922 C906 1.368 . S
C922 C918 1.368 . S
C922 C921 1.523 . S
H923 C898 0.950 . S
H924 C900 0.950 . S
H925 C901 0.949 . S
H926 C903 0.950 . S
H927 C905 0.950 . S
C928 C929 1.349 . S
C928 C930 1.327 . S
C928 H953 0.950 . S
C929 C928 1.349 . S
C929 C945 1.349 . S
C930 C928 1.327 . S
C930 C949 1.429 . S
C930 H954 0.950 . S
C931 C948 1.574 . S
C931 C950 1.368 . S
C931 H955 0.949 . S
H932 C936 0.949 . S
C933 C934 1.349 . S
C933 C935 1.327 . S
C933 H956 0.950 . S
C934 C933 1.349 . S
C934 C946 1.349 . S
C935 C933 1.327 . S
C935 C951 1.429 . S
C935 H957 0.950 . S
C936 H932 0.949 . S
C936 C944 1.574 . S
C936 C952 1.368 . S
H937 C945 0.950 . S
H938 C943 0.950 . S
H939 C944 0.949 . S
H940 C946 0.950 . S
H941 C947 0.950 . S
H942 C948 0.949 . S
C943 H938 0.950 . S
C943 C945 1.327 . S
C943 C949 1.429 . S
C944 C936 1.574 . S
C944 H939 0.949 . S
C944 C950 1.368 . S
C945 C929 1.349 . S
C945 H937 0.950 . S
C945 C943 1.327 . S
C946 C934 1.349 . S
C946 H940 0.950 . S
C946 C947 1.327 . S
C947 H941 0.950 . S
C947 C946 1.327 . S
C947 C951 1.429 . S
C948 C931 1.574 . S
C948 H942 0.949 . S
C948 C952 1.368 . S
C949 C930 1.429 . S
C949 C943 1.429 . S
C949 C950 1.523 . S
C950 C931 1.368 . S
C950 C944 1.368 . S
C950 C949 1.523 . S
C951 C935 1.429 . S
C951 C947 1.429 . S
C951 C952 1.523 . S
C952 C936 1.368 . S
C952 C948 1.368 . S
C952 C951 1.523 . S
H953 C928 0.950 . S
H954 C930 0.950 . S
H955 C931 0.949 . S
H956 C933 0.950 . S
H957 C935 0.950 . S
C958 C959 1.349 . S
C958 C960 1.327 . S
C958 H983 0.950 . S
C959 C958 1.349 . S
C959 C975 1.349 . S
C960 C958 1.327 . S
C960 C979 1.429 . S
C960 H984 0.950 . S
C961 C978 1.574 . S
C961 C980 1.368 1_554 S
C961 H985 0.949 1_554 S
H962 C966 0.949 . S
C963 C964 1.349 . S
C963 C965 1.327 . S
C963 H986 0.950 . S
C964 C963 1.349 . S
C964 C976 1.349 . S
C965 C963 1.327 . S
C965 C981 1.429 . S
C965 H987 1.008 . S
C966 H962 0.949 . S
C966 C974 1.574 1_554 S
C966 C982 1.368 . S
H967 C975 0.950 . S
H968 C973 0.950 . S
H969 C974 0.949 . S
H970 C976 0.950 . S
H971 C977 0.950 . S
H972 C978 0.949 . S
C973 H968 0.950 . S
C973 C975 1.327 . S
C973 C979 1.429 . S
C974 C966 1.574 1_556 S
C974 H969 0.949 . S
C974 C980 1.368 1_655 S
C975 C959 1.349 . S
C975 H967 0.950 . S
C975 C973 1.327 . S
C976 C964 1.349 . S
C976 H970 0.950 . S
C976 C977 1.327 . S
C977 H971 0.950 . S
C977 C976 1.327 . S
C977 C981 1.429 . S
C978 C961 1.574 . S
C978 H972 0.949 . S
C978 C982 1.368 1_455 S
C979 C960 1.429 . S
C979 C973 1.429 . S
C979 C980 1.523 . S
C980 C961 1.368 1_556 S
C980 C974 1.368 1_455 S
C980 C979 1.523 . S
C981 C965 1.429 . S
C981 C977 1.429 . S
C981 C982 1.523 . S
C982 C966 1.368 . S
C982 C978 1.368 1_655 S
C982 C981 1.523 . S
H983 C958 0.950 . S
H984 C960 0.950 . S
H985 C961 0.949 1_556 S
H986 C963 0.950 . S
H987 C965 1.008 . S
C988 C989 1.349 . S
C988 C990 1.327 . S
C988 H1013 0.950 . S
C989 C988 1.349 . S
C989 C1005 1.349 . S
C990 C988 1.327 . S
C990 C1009 1.429 . S
C990 H1014 0.950 . S
C991 C1008 1.574 . S
C991 C1010 1.368 . S
C991 H1015 0.949 . S
H992 C996 0.949 . S
C993 C994 1.349 . S
C993 C995 1.327 . S
C993 H1016 0.950 . S
C994 C993 1.349 . S
C994 C1006 1.349 . S
C995 C993 1.327 . S
C995 C1011 1.429 . S
C995 H1017 0.950 . S
C996 H992 0.949 . S
C996 C1004 1.574 . S
C996 C1012 1.368 . S
H997 C1005 0.950 . S
H998 C1003 0.950 . S
H999 C1004 0.949 . S
H1000 C1006 0.950 . S
H1001 C1007 0.950 . S
H1002 C1008 0.949 . S
C1003 H998 0.950 . S
C1003 C1005 1.327 . S
C1003 C1009 1.429 . S
C1004 C996 1.574 . S
C1004 H999 0.949 . S
C1004 C1010 1.368 . S
C1005 C989 1.349 . S
C1005 H997 0.950 . S
C1005 C1003 1.327 . S
C1006 C994 1.349 . S
C1006 H1000 0.950 . S
C1006 C1007 1.327 . S
C1007 H1001 0.950 . S
C1007 C1006 1.327 . S
C1007 C1011 1.429 . S
C1008 C991 1.574 . S
C1008 H1002 0.949 . S
C1008 C1012 1.368 . S
C1009 C990 1.429 . S
C1009 C1003 1.429 . S
C1009 C1010 1.523 . S
C1010 C991 1.368 . S
C1010 C1004 1.368 . S
C1010 C1009 1.523 . S
C1011 C995 1.429 . S
C1011 C1007 1.429 . S
C1011 C1012 1.523 . S
C1012 C996 1.368 . S
C1012 C1008 1.368 . S
C1012 C1011 1.523 . S
H1013 C988 0.950 . S
H1014 C990 0.950 . S
H1015 C991 0.949 . S
H1016 C993 0.950 . S
H1017 C995 0.950 . S
C1018 C1019 1.349 . S
C1018 C1020 1.327 . S
C1018 H1043 0.950 . S
C1019 C1018 1.349 . S
C1019 C1035 1.349 . S
C1020 C1018 1.327 . S
C1020 C1039 1.429 . S
C1020 H1044 0.950 . S
C1021 C1038 1.574 . S
C1021 C1040 1.368 . S
C1021 H1045 0.949 . S
H1022 C1026 0.949 . S
C1023 C1024 1.349 . S
C1023 C1025 1.327 . S
C1023 H1046 0.950 . S
C1024 C1023 1.349 . S
C1024 C1036 1.349 . S
C1025 C1023 1.327 . S
C1025 C1041 1.429 . S
C1025 H1047 0.950 . S
C1026 H1022 0.949 . S
C1026 C1034 1.574 . S
C1026 C1042 1.368 . S
H1027 C1035 0.950 . S
H1028 C1033 0.950 . S
H1029 C1034 0.949 . S
H1030 C1036 0.950 . S
H1031 C1037 0.950 . S
H1032 C1038 0.949 . S
C1033 H1028 0.950 . S
C1033 C1035 1.327 . S
C1033 C1039 1.429 . S
C1034 C1026 1.574 . S
C1034 H1029 0.949 . S
C1034 C1040 1.368 . S
C1035 C1019 1.349 . S
C1035 H1027 0.950 . S
C1035 C1033 1.327 . S
C1036 C1024 1.349 . S
C1036 H1030 0.950 . S
C1036 C1037 1.327 . S
C1037 H1031 0.950 . S
C1037 C1036 1.327 . S
C1037 C1041 1.429 . S
C1038 C1021 1.574 . S
C1038 H1032 0.949 . S
C1038 C1042 1.368 . S
C1039 C1020 1.429 . S
C1039 C1033 1.429 . S
C1039 C1040 1.523 . S
C1040 C1021 1.368 . S
C1040 C1034 1.368 . S
C1040 C1039 1.523 . S
C1041 C1025 1.429 . S
C1041 C1037 1.429 . S
C1041 C1042 1.523 . S
C1042 C1026 1.368 . S
C1042 C1038 1.368 . S
C1042 C1041 1.523 . S
H1043 C1018 0.950 . S
H1044 C1020 0.950 . S
H1045 C1021 0.949 . S
H1046 C1023 0.950 . S
H1047 C1025 0.950 . S
C1048 C1049 1.349 . S
C1048 C1050 1.327 . S
C1048 H1073 0.950 . S
C1049 C1048 1.349 . S
C1049 C1065 1.349 . S
C1050 C1048 1.327 . S
C1050 C1069 1.429 . S
C1050 H1074 0.950 . S
C1051 C1068 1.574 . S
C1051 C1070 1.368 . S
C1051 H1075 0.949 . S
H1052 C1056 0.949 . S
C1053 C1054 1.349 . S
C1053 C1055 1.327 . S
C1053 H1076 0.950 . S
C1054 C1053 1.349 . S
C1054 C1066 1.349 . S
C1055 C1053 1.327 . S
C1055 C1071 1.429 . S
C1055 H1077 0.950 . S
C1056 H1052 0.949 . S
C1056 C1064 1.574 . S
C1056 C1072 1.368 . S
H1057 C1065 0.950 . S
H1058 C1063 0.950 . S
H1059 C1064 0.949 . S
H1060 C1066 0.950 . S
H1061 C1067 0.950 . S
H1062 C1068 0.949 . S
C1063 H1058 0.950 . S
C1063 C1065 1.327 . S
C1063 C1069 1.429 . S
C1064 C1056 1.574 . S
C1064 H1059 0.949 . S
C1064 C1070 1.368 . S
C1065 C1049 1.349 . S
C1065 H1057 0.950 . S
C1065 C1063 1.327 . S
C1066 C1054 1.349 . S
C1066 H1060 0.950 . S
C1066 C1067 1.327 . S
C1067 H1061 0.950 . S
C1067 C1066 1.327 . S
C1067 C1071 1.429 . S
C1068 C1051 1.574 . S
C1068 H1062 0.949 . S
C1068 C1072 1.368 . S
C1069 C1050 1.429 . S
C1069 C1063 1.429 . S
C1069 C1070 1.523 . S
C1070 C1051 1.368 . S
C1070 C1064 1.368 . S
C1070 C1069 1.523 . S
C1071 C1055 1.429 . S
C1071 C1067 1.429 . S
C1071 C1072 1.523 . S
C1072 C1056 1.368 . S
C1072 C1068 1.368 . S
C1072 C1071 1.523 . S
H1073 C1048 0.950 . S
H1074 C1050 0.950 . S
H1075 C1051 0.949 . S
H1076 C1053 0.950 . S
H1077 C1055 0.950 . S
C1078 C1079 1.349 . S
C1078 C1080 1.327 . S
C1078 H1103 0.950 . S
C1079 C1078 1.349 . S
C1079 C1095 1.349 . S
C1080 C1078 1.327 . S
C1080 C1099 1.429 . S
C1080 H1104 0.950 . S
C1081 C1098 1.574 1_554 S
C1081 C1100 1.368 . S
C1081 H1105 0.949 . S
H1082 C1086 0.949 . S
C1083 C1084 1.349 . S
C1083 C1085 1.327 . S
C1083 H1106 0.950 . S
C1084 C1083 1.349 . S
C1084 C1096 1.349 . S
C1085 C1083 1.327 . S
C1085 C1101 1.429 . S
C1085 H1107 0.950 . S
C1086 H1082 0.949 . S
C1086 C1094 1.574 . S
C1086 C1102 1.368 . S
H1087 C1095 0.950 . S
H1088 C1093 0.950 . S
H1089 C1094 0.949 1_554 S
H1090 C1096 0.950 . S
H1091 C1097 0.950 . S
H1092 C1098 0.949 . S
C1093 H1088 0.950 . S
C1093 C1095 1.327 . S
C1093 C1099 1.429 . S
C1094 C1086 1.574 . S
C1094 H1089 0.949 1_556 S
C1094 C1100 1.368 1_556 S
C1095 C1079 1.349 . S
C1095 H1087 0.950 . S
C1095 C1093 1.327 . S
C1096 C1084 1.349 . S
C1096 H1090 0.950 . S
C1096 C1097 1.327 . S
C1097 H1091 0.950 . S
C1097 C1096 1.327 . S
C1097 C1101 1.429 . S
C1098 C1081 1.574 1_556 S
C1098 H1092 0.949 . S
C1098 C1102 1.368 . S
C1099 C1080 1.429 . S
C1099 C1093 1.429 . S
C1099 C1100 1.523 . S
C1100 C1081 1.368 . S
C1100 C1094 1.368 1_554 S
C1100 C1099 1.523 . S
C1101 C1085 1.429 . S
C1101 C1097 1.429 . S
C1101 C1102 1.523 . S
C1102 C1086 1.368 . S
C1102 C1098 1.368 . S
C1102 C1101 1.523 . S
H1103 C1078 0.950 . S
H1104 C1080 0.950 . S
H1105 C1081 0.949 . S
H1106 C1083 0.950 . S
H1107 C1085 0.950 . S
C1108 C1109 1.349 . S
C1108 C1110 1.327 . S
C1108 H1133 0.950 . S
C1109 C1108 1.349 . S
C1109 C1125 1.349 . S
C1110 C1108 1.327 . S
C1110 C1129 1.429 . S
C1110 H1134 0.950 . S
C1111 C1128 1.574 . S
C1111 C1130 1.368 . S
C1111 H1135 0.949 . S
H1112 C1116 0.949 . S
C1113 C1114 1.349 . S
C1113 C1115 1.327 . S
C1113 H1136 0.950 . S
C1114 C1113 1.349 . S
C1114 C1126 1.349 . S
C1115 C1113 1.327 . S
C1115 C1131 1.429 . S
C1115 H1137 0.950 . S
C1116 H1112 0.949 . S
C1116 C1124 1.574 . S
C1116 C1132 1.368 . S
H1117 C1125 0.950 . S
H1118 C1123 0.950 . S
H1119 C1124 0.949 . S
H1120 C1126 0.950 . S
H1121 C1127 0.950 . S
H1122 C1128 0.949 . S
C1123 H1118 0.950 . S
C1123 C1125 1.327 . S
C1123 C1129 1.429 . S
C1124 C1116 1.574 . S
C1124 H1119 0.949 . S
C1124 C1130 1.368 . S
C1125 C1109 1.349 . S
C1125 H1117 0.950 . S
C1125 C1123 1.327 . S
C1126 C1114 1.349 . S
C1126 H1120 0.950 . S
C1126 C1127 1.327 . S
C1127 H1121 0.950 . S
C1127 C1126 1.327 . S
C1127 C1131 1.429 . S
C1128 C1111 1.574 . S
C1128 H1122 0.949 . S
C1128 C1132 1.368 . S
C1129 C1110 1.429 . S
C1129 C1123 1.429 . S
C1129 C1130 1.523 . S
C1130 C1111 1.368 . S
C1130 C1124 1.368 . S
C1130 C1129 1.523 . S
C1131 C1115 1.429 . S
C1131 C1127 1.429 . S
C1131 C1132 1.523 . S
C1132 C1116 1.368 . S
C1132 C1128 1.368 . S
C1132 C1131 1.523 . S
H1133 C1108 0.950 . S
H1134 C1110 0.950 . S
H1135 C1111 0.949 . S
H1136 C1113 0.950 . S
H1137 C1115 0.950 . S
C1138 C1139 1.349 . S
C1138 C1140 1.327 . S
C1138 H1163 0.950 . S
C1139 C1138 1.349 . S
C1139 C1155 1.349 . S
C1140 C1138 1.327 . S
C1140 C1159 1.429 . S
C1140 H1164 0.950 . S
C1141 C1158 1.574 . S
C1141 C1160 1.368 . S
C1141 H1165 0.949 . S
H1142 C1146 0.949 . S
C1143 C1144 1.349 . S
C1143 C1145 1.327 . S
C1143 H1166 0.950 . S
C1144 C1143 1.349 . S
C1144 C1156 1.349 . S
C1145 C1143 1.327 . S
C1145 C1161 1.429 . S
C1145 H1167 1.015 . S
C1146 H1142 0.949 . S
C1146 C1154 1.574 . S
C1146 C1162 1.368 . S
H1147 C1155 0.950 . S
H1148 C1153 0.950 . S
H1149 C1154 0.949 . S
H1150 C1156 0.950 . S
H1151 C1157 0.950 . S
H1152 C1158 0.949 . S
C1153 H1148 0.950 . S
C1153 C1155 1.327 . S
C1153 C1159 1.429 . S
C1154 C1146 1.574 . S
C1154 H1149 0.949 . S
C1154 C1160 1.368 1_655 S
C1155 C1139 1.349 . S
C1155 H1147 0.950 . S
C1155 C1153 1.327 . S
C1156 C1144 1.349 . S
C1156 H1150 0.950 . S
C1156 C1157 1.327 . S
C1157 H1151 0.950 . S
C1157 C1156 1.327 . S
C1157 C1161 1.429 . S
C1158 C1141 1.574 . S
C1158 H1152 0.949 . S
C1158 C1162 1.368 1_455 S
C1159 C1140 1.429 . S
C1159 C1153 1.429 . S
C1159 C1160 1.523 . S
C1160 C1141 1.368 . S
C1160 C1154 1.368 1_455 S
C1160 C1159 1.523 . S
C1161 C1145 1.429 . S
C1161 C1157 1.429 . S
C1161 C1162 1.523 . S
C1162 C1146 1.368 . S
C1162 C1158 1.368 1_655 S
C1162 C1161 1.523 . S
H1163 C1138 0.950 . S
H1164 C1140 0.950 . S
H1165 C1141 0.949 . S
H1166 C1143 0.950 . S
H1167 C1145 1.015 . S
C1168 C1169 1.349 . S
C1168 C1170 1.327 . S
C1168 H1193 0.950 . S
C1169 C1168 1.349 . S
C1169 C1185 1.349 . S
C1170 C1168 1.327 . S
C1170 C1189 1.429 . S
C1170 H1194 0.950 . S
C1171 C1188 1.574 . S
C1171 C1190 1.368 . S
C1171 H1195 0.949 . S
H1172 C1176 0.949 . S
C1173 C1174 1.349 . S
C1173 C1175 1.327 . S
C1173 H1196 0.950 . S
C1174 C1173 1.349 . S
C1174 C1186 1.349 . S
C1175 C1173 1.327 . S
C1175 C1191 1.429 . S
C1175 H1197 0.950 . S
C1176 H1172 0.949 . S
C1176 C1184 1.574 . S
C1176 C1192 1.368 . S
H1177 C1185 0.950 . S
H1178 C1183 0.950 . S
H1179 C1184 0.949 . S
H1180 C1186 0.950 . S
H1181 C1187 0.950 . S
H1182 C1188 0.949 . S
C1183 H1178 0.950 . S
C1183 C1185 1.327 . S
C1183 C1189 1.429 . S
C1184 C1176 1.574 . S
C1184 H1179 0.949 . S
C1184 C1190 1.368 . S
C1185 C1169 1.349 . S
C1185 H1177 0.950 . S
C1185 C1183 1.327 . S
C1186 C1174 1.349 . S
C1186 H1180 0.950 . S
C1186 C1187 1.327 . S
C1187 H1181 0.950 . S
C1187 C1186 1.327 . S
C1187 C1191 1.429 . S
C1188 C1171 1.574 . S
C1188 H1182 0.949 . S
C1188 C1192 1.368 . S
C1189 C1170 1.429 . S
C1189 C1183 1.429 . S
C1189 C1190 1.523 . S
C1190 C1171 1.368 . S
C1190 C1184 1.368 . S
C1190 C1189 1.523 . S
C1191 C1175 1.429 . S
C1191 C1187 1.429 . S
C1191 C1192 1.523 . S
C1192 C1176 1.368 . S
C1192 C1188 1.368 . S
C1192 C1191 1.523 . S
H1193 C1168 0.950 . S
H1194 C1170 0.950 . S
H1195 C1171 0.949 . S
H1196 C1173 0.950 . S
H1197 C1175 0.950 . S
C1198 C1199 1.349 . S
C1198 C1200 1.327 . S
C1198 H1223 0.950 . S
C1199 C1198 1.349 . S
C1199 C1215 1.349 . S
C1200 C1198 1.327 . S
C1200 C1219 1.429 . S
C1200 H1224 0.950 . S
C1201 C1218 1.574 1_554 S
C1201 C1220 1.368 1_455 S
C1201 H1225 0.949 . S
H1202 C1206 0.949 . S
C1203 C1204 1.349 . S
C1203 C1205 1.327 . S
C1203 H1226 0.950 . S
C1204 C1203 1.349 . S
C1204 C1216 1.349 . S
C1205 C1203 1.327 . S
C1205 C1221 1.429 . S
C1205 H1227 0.950 . S
C1206 H1202 0.949 . S
C1206 C1214 1.574 . S
C1206 C1222 1.368 1_655 S
H1207 C1215 0.950 . S
H1208 C1213 0.950 1_455 S
H1209 C1214 0.949 . S
H1210 C1216 0.950 . S
H1211 C1217 0.950 1_655 S
H1212 C1218 0.949 . S
C1213 H1208 0.950 1_655 S
C1213 C1215 1.327 . S
C1213 C1219 1.429 . S
C1214 C1206 1.574 . S
C1214 H1209 0.949 . S
C1214 C1220 1.368 1_556 S
C1215 C1199 1.349 . S
C1215 H1207 0.950 . S
C1215 C1213 1.327 . S
C1216 C1204 1.349 . S
C1216 H1210 0.950 . S
C1216 C1217 1.327 . S
C1217 H1211 0.950 1_455 S
C1217 C1216 1.327 . S
C1217 C1221 1.429 . S
C1218 C1201 1.574 1_556 S
C1218 H1212 0.949 . S
C1218 C1222 1.368 . S
C1219 C1200 1.429 . S
C1219 C1213 1.429 . S
C1219 C1220 1.523 . S
C1220 C1201 1.368 1_655 S
C1220 C1214 1.368 1_554 S
C1220 C1219 1.523 . S
C1221 C1205 1.429 . S
C1221 C1217 1.429 . S
C1221 C1222 1.523 . S
C1222 C1206 1.368 1_455 S
C1222 C1218 1.368 . S
C1222 C1221 1.523 . S
H1223 C1198 0.950 . S
H1224 C1200 0.950 . S
H1225 C1201 0.949 . S
H1226 C1203 0.950 . S
H1227 C1205 0.950 . S
C1228 C1229 1.349 . S
C1228 C1230 1.327 . S
C1228 H1253 0.950 . S
C1229 C1228 1.349 . S
C1229 C1245 1.349 . S
C1230 C1228 1.327 . S
C1230 C1249 1.429 . S
C1230 H1254 0.950 . S
C1231 C1248 1.574 . S
C1231 C1250 1.368 . S
C1231 H1255 0.949 . S
H1232 C1236 0.949 . S
C1233 C1234 1.349 . S
C1233 C1235 1.327 . S
C1233 H1256 0.950 . S
C1234 C1233 1.349 . S
C1234 C1246 1.349 . S
C1235 C1233 1.327 . S
C1235 C1251 1.429 . S
C1235 H1257 0.950 . S
C1236 H1232 0.949 . S
C1236 C1244 1.574 . S
C1236 C1252 1.368 . S
H1237 C1245 0.950 . S
H1238 C1243 0.950 . S
H1239 C1244 0.949 . S
H1240 C1246 0.950 . S
H1241 C1247 0.950 . S
H1242 C1248 0.949 . S
C1243 H1238 0.950 . S
C1243 C1245 1.327 . S
C1243 C1249 1.429 . S
C1244 C1236 1.574 . S
C1244 H1239 0.949 . S
C1244 C1250 1.368 . S
C1245 C1229 1.349 . S
C1245 H1237 0.950 . S
C1245 C1243 1.327 . S
C1246 C1234 1.349 . S
C1246 H1240 0.950 . S
C1246 C1247 1.327 . S
C1247 H1241 0.950 . S
C1247 C1246 1.327 . S
C1247 C1251 1.429 . S
C1248 C1231 1.574 . S
C1248 H1242 0.949 . S
C1248 C1252 1.368 . S
C1249 C1230 1.429 . S
C1249 C1243 1.429 . S
C1249 C1250 1.523 . S
C1250 C1231 1.368 . S
C1250 C1244 1.368 . S
C1250 C1249 1.523 . S
C1251 C1235 1.429 . S
C1251 C1247 1.429 . S
C1251 C1252 1.523 . S
C1252 C1236 1.368 . S
C1252 C1248 1.368 . S
C1252 C1251 1.523 . S
H1253 C1228 0.950 . S
H1254 C1230 0.950 . S
H1255 C1231 0.949 . S
H1256 C1233 0.950 . S
H1257 C1235 0.950 . S
C1258 C1259 1.349 . S
C1258 C1260 1.327 . S
C1258 H1283 0.950 . S
C1259 C1258 1.349 . S
C1259 C1275 1.349 . S
C1260 C1258 1.327 . S
C1260 C1279 1.429 . S
C1260 H1284 0.950 . S
C1261 C1278 1.574 . S
C1261 C1280 1.368 . S
C1261 H1285 0.949 . S
H1262 C1266 0.949 . S
C1263 C1264 1.349 . S
C1263 C1265 1.327 . S
C1263 H1286 0.950 . S
C1264 C1263 1.349 . S
C1264 C1276 1.349 . S
C1265 C1263 1.327 . S
C1265 C1281 1.429 . S
C1265 H1287 0.950 . S
C1266 H1262 0.949 . S
C1266 C1274 1.574 . S
C1266 C1282 1.368 . S
H1267 C1275 0.950 . S
H1268 C1273 0.950 . S
H1269 C1274 0.949 . S
H1270 C1276 0.950 . S
H1271 C1277 0.950 . S
H1272 C1278 0.949 . S
C1273 H1268 0.950 . S
C1273 C1275 1.327 . S
C1273 C1279 1.429 . S
C1274 C1266 1.574 . S
C1274 H1269 0.949 . S
C1274 C1280 1.368 . S
C1275 C1259 1.349 . S
C1275 H1267 0.950 . S
C1275 C1273 1.327 . S
C1276 C1264 1.349 . S
C1276 H1270 0.950 . S
C1276 C1277 1.327 . S
C1277 H1271 0.950 . S
C1277 C1276 1.327 . S
C1277 C1281 1.429 . S
C1278 C1261 1.574 . S
C1278 H1272 0.949 . S
C1278 C1282 1.368 . S
C1279 C1260 1.429 . S
C1279 C1273 1.429 . S
C1279 C1280 1.523 . S
C1280 C1261 1.368 . S
C1280 C1274 1.368 . S
C1280 C1279 1.523 . S
C1281 C1265 1.429 . S
C1281 C1277 1.429 . S
C1281 C1282 1.523 . S
C1282 C1266 1.368 . S
C1282 C1278 1.368 . S
C1282 C1281 1.523 . S
H1283 C1258 0.950 . S
H1284 C1260 0.950 . S
H1285 C1261 0.949 . S
H1286 C1263 0.950 . S
H1287 C1265 0.950 . S
C1288 C1289 1.349 . S
C1288 C1290 1.327 . S
C1288 H1313 0.950 . S
C1289 C1288 1.349 . S
C1289 C1305 1.349 . S
C1290 C1288 1.327 . S
C1290 C1309 1.429 . S
C1290 H1314 0.950 . S
C1291 C1308 1.574 . S
C1291 C1310 1.368 . S
C1291 H1315 0.949 . S
H1292 C1296 0.949 . S
C1293 C1294 1.349 . S
C1293 C1295 1.327 . S
C1293 H1316 0.950 . S
C1294 C1293 1.349 . S
C1294 C1306 1.349 . S
C1295 C1293 1.327 . S
C1295 C1311 1.429 . S
C1295 H1317 0.950 . S
C1296 H1292 0.949 . S
C1296 C1304 1.574 . S
C1296 C1312 1.368 . S
H1297 C1305 0.950 . S
H1298 C1303 0.950 . S
H1299 C1304 0.949 . S
H1300 C1306 0.950 . S
H1301 C1307 0.950 . S
H1302 C1308 0.949 . S
C1303 H1298 0.950 . S
C1303 C1305 1.327 . S
C1303 C1309 1.429 . S
C1304 C1296 1.574 . S
C1304 H1299 0.949 . S
C1304 C1310 1.368 . S
C1305 C1289 1.349 . S
C1305 H1297 0.950 . S
C1305 C1303 1.327 . S
C1306 C1294 1.349 . S
C1306 H1300 0.950 . S
C1306 C1307 1.327 . S
C1307 H1301 0.950 . S
C1307 C1306 1.327 . S
C1307 C1311 1.429 . S
C1308 C1291 1.574 . S
C1308 H1302 0.949 . S
C1308 C1312 1.368 . S
C1309 C1290 1.429 . S
C1309 C1303 1.429 . S
C1309 C1310 1.523 . S
C1310 C1291 1.368 . S
C1310 C1304 1.368 . S
C1310 C1309 1.523 . S
C1311 C1295 1.429 . S
C1311 C1307 1.429 . S
C1311 C1312 1.523 . S
C1312 C1296 1.368 . S
C1312 C1308 1.368 . S
C1312 C1311 1.523 . S
H1313 C1288 0.950 . S
H1314 C1290 0.950 . S
H1315 C1291 0.949 . S
H1316 C1293 0.950 . S
H1317 C1295 0.950 . S
C1318 C1319 1.349 . S
C1318 C1320 1.327 . S
C1318 H1343 0.950 . S
C1319 C1318 1.349 . S
C1319 C1335 1.349 . S
C1320 C1318 1.327 . S
C1320 C1339 1.429 . S
C1320 H1344 0.950 . S
C1321 C1338 1.574 1_554 S
C1321 C1340 1.368 . S
C1321 H1345 0.949 . S
H1322 C1326 0.938 1_556 S
C1323 C1324 1.349 . S
C1323 C1325 1.327 . S
C1323 H1346 0.950 . S
C1324 C1323 1.349 . S
C1324 C1336 1.349 . S
C1325 C1323 1.327 . S
C1325 C1341 1.429 . S
C1325 H1347 0.950 . S
C1326 H1322 0.938 1_554 S
C1326 C1334 1.603 . S
C1326 C1342 1.352 1_554 S
H1327 C1335 0.950 . S
H1328 C1333 0.950 . S
H1329 C1334 0.949 . S
H1330 C1336 0.950 . S
H1331 C1337 0.950 . S
H1332 C1338 0.949 . S
C1333 H1328 0.950 . S
C1333 C1335 1.327 . S
C1333 C1339 1.429 . S
C1334 C1326 1.603 . S
C1334 H1329 0.949 . S
C1334 C1340 1.368 . S
C1335 C1319 1.349 . S
C1335 H1327 0.950 . S
C1335 C1333 1.327 . S
C1336 C1324 1.349 . S
C1336 H1330 0.950 . S
C1336 C1337 1.327 . S
C1337 H1331 0.950 . S
C1337 C1336 1.327 . S
C1337 C1341 1.429 . S
C1338 C1321 1.574 1_556 S
C1338 H1332 0.949 . S
C1338 C1342 1.368 . S
C1339 C1320 1.429 . S
C1339 C1333 1.429 . S
C1339 C1340 1.523 . S
C1340 C1321 1.368 . S
C1340 C1334 1.368 . S
C1340 C1339 1.523 . S
C1341 C1325 1.429 . S
C1341 C1337 1.429 . S
C1341 C1342 1.523 . S
C1342 C1326 1.352 1_556 S
C1342 C1338 1.368 . S
C1342 C1341 1.523 . S
H1343 C1318 0.950 . S
H1344 C1320 0.950 . S
H1345 C1321 0.949 . S
H1346 C1323 0.950 . S
H1347 C1325 0.950 . S
C1348 C1349 1.349 . S
C1348 C1350 1.327 . S
C1348 H1373 0.950 . S
C1349 C1348 1.349 . S
C1349 C1365 1.349 . S
C1350 C1348 1.327 . S
C1350 C1369 1.429 . S
C1350 H1374 0.950 . S
C1351 C1368 1.574 . S
C1351 C1370 1.368 . S
C1351 H1375 0.949 . S
H1352 C1356 0.949 . S
C1353 C1354 1.349 . S
C1353 C1355 1.327 . S
C1353 H1376 0.950 . S
C1354 C1353 1.349 . S
C1354 C1366 1.349 . S
C1355 C1353 1.327 . S
C1355 C1371 1.429 . S
C1355 H1377 0.950 . S
C1356 H1352 0.949 . S
C1356 C1364 1.574 . S
C1356 C1372 1.368 . S
H1357 C1365 0.950 . S
H1358 C1363 0.950 . S
H1359 C1364 0.949 . S
H1360 C1366 0.950 . S
H1361 C1367 0.950 . S
H1362 C1368 0.949 . S
C1363 H1358 0.950 . S
C1363 C1365 1.327 . S
C1363 C1369 1.429 . S
C1364 C1356 1.574 . S
C1364 H1359 0.949 . S
C1364 C1370 1.368 . S
C1365 C1349 1.349 . S
C1365 H1357 0.950 . S
C1365 C1363 1.327 . S
C1366 C1354 1.349 . S
C1366 H1360 0.950 . S
C1366 C1367 1.327 . S
C1367 H1361 0.950 . S
C1367 C1366 1.327 . S
C1367 C1371 1.429 . S
C1368 C1351 1.574 . S
C1368 H1362 0.949 . S
C1368 C1372 1.368 . S
C1369 C1350 1.429 . S
C1369 C1363 1.429 . S
C1369 C1370 1.523 . S
C1370 C1351 1.368 . S
C1370 C1364 1.368 . S
C1370 C1369 1.523 . S
C1371 C1355 1.429 . S
C1371 C1367 1.429 . S
C1371 C1372 1.523 . S
C1372 C1356 1.368 . S
C1372 C1368 1.368 . S
C1372 C1371 1.523 . S
H1373 C1348 0.950 . S
H1374 C1350 0.950 . S
H1375 C1351 0.949 . S
H1376 C1353 0.950 . S
H1377 C1355 0.950 . S
C1378 C1379 1.349 . S
C1378 C1380 1.327 . S
C1378 H1403 0.950 . S
C1379 C1378 1.349 . S
C1379 C1395 1.349 . S
C1380 C1378 1.327 . S
C1380 C1399 1.429 . S
C1380 H1404 0.950 . S
C1381 C1398 1.574 . S
C1381 C1400 1.368 1_455 S
C1381 H1405 0.949 . S
H1382 C1386 0.949 . S
C1383 C1384 1.349 . S
C1383 C1385 1.327 . S
C1383 H1406 0.950 . S
C1384 C1383 1.349 . S
C1384 C1396 1.349 . S
C1385 C1383 1.327 . S
C1385 C1401 1.429 . S
C1385 H1407 0.950 . S
C1386 H1382 0.949 . S
C1386 C1394 1.574 . S
C1386 C1402 1.368 1_655 S
H1387 C1395 0.950 . S
H1388 C1393 0.950 . S
H1389 C1394 0.949 . S
H1390 C1396 0.950 . S
H1391 C1397 0.950 . S
H1392 C1398 0.949 . S
C1393 H1388 0.950 . S
C1393 C1395 1.327 . S
C1393 C1399 1.429 . S
C1394 C1386 1.574 . S
C1394 H1389 0.949 . S
C1394 C1400 1.368 . S
C1395 C1379 1.349 . S
C1395 H1387 0.950 . S
C1395 C1393 1.327 . S
C1396 C1384 1.349 . S
C1396 H1390 0.950 . S
C1396 C1397 1.327 . S
C1397 H1391 0.950 . S
C1397 C1396 1.327 . S
C1397 C1401 1.429 . S
C1398 C1381 1.574 . S
C1398 H1392 0.949 . S
C1398 C1402 1.368 . S
C1399 C1380 1.429 . S
C1399 C1393 1.429 . S
C1399 C1400 1.523 . S
C1400 C1381 1.368 1_655 S
C1400 C1394 1.368 . S
C1400 C1399 1.523 . S
C1401 C1385 1.429 . S
C1401 C1397 1.429 . S
C1401 C1402 1.523 . S
C1402 C1386 1.368 1_455 S
C1402 C1398 1.368 . S
C1402 C1401 1.523 . S
H1403 C1378 0.950 . S
H1404 C1380 0.950 . S
H1405 C1381 0.949 . S
H1406 C1383 0.950 . S
H1407 C1385 0.950 . S
C1408 C1409 1.349 . S
C1408 C1410 1.327 . S
C1408 H1433 0.950 . S
C1409 C1408 1.349 . S
C1409 C1425 1.349 . S
C1410 C1408 1.327 . S
C1410 C1429 1.429 . S
C1410 H1434 0.950 . S
C1411 C1428 1.574 . S
C1411 C1430 1.368 . S
C1411 H1435 0.949 . S
H1412 C1416 0.949 . S
C1413 C1414 1.349 . S
C1413 C1415 1.327 . S
C1413 H1436 0.950 . S
C1414 C1413 1.349 . S
C1414 C1426 1.349 . S
C1415 C1413 1.327 . S
C1415 C1431 1.429 . S
C1415 H1437 0.950 . S
C1416 H1412 0.949 . S
C1416 C1424 1.574 . S
C1416 C1432 1.368 . S
H1417 C1425 0.950 . S
H1418 C1423 0.950 . S
H1419 C1424 0.949 . S
H1420 C1426 0.950 . S
H1421 C1427 0.950 . S
H1422 C1428 0.949 . S
C1423 H1418 0.950 . S
C1423 C1425 1.327 . S
C1423 C1429 1.429 . S
C1424 C1416 1.574 . S
C1424 H1419 0.949 . S
C1424 C1430 1.368 . S
C1425 C1409 1.349 . S
C1425 H1417 0.950 . S
C1425 C1423 1.327 . S
C1426 C1414 1.349 . S
C1426 H1420 0.950 . S
C1426 C1427 1.327 . S
C1427 H1421 0.950 . S
C1427 C1426 1.327 . S
C1427 C1431 1.429 . S
C1428 C1411 1.574 . S
C1428 H1422 0.949 . S
C1428 C1432 1.368 . S
C1429 C1410 1.429 . S
C1429 C1423 1.429 . S
C1429 C1430 1.523 . S
C1430 C1411 1.368 . S
C1430 C1424 1.368 . S
C1430 C1429 1.523 . S
C1431 C1415 1.429 . S
C1431 C1427 1.429 . S
C1431 C1432 1.523 . S
C1432 C1416 1.368 . S
C1432 C1428 1.368 . S
C1432 C1431 1.523 . S
H1433 C1408 0.950 . S
H1434 C1410 0.950 . S
H1435 C1411 0.949 . S
H1436 C1413 0.950 . S
H1437 C1415 0.950 . S
C1438 C1439 1.349 . S
C1438 C1440 1.327 . S
C1438 H1463 0.950 . S
C1439 C1438 1.349 . S
C1439 C1455 1.349 . S
C1440 C1438 1.327 . S
C1440 C1459 1.429 . S
C1440 H1464 0.950 . S
C1441 C1458 1.574 . S
C1441 C1460 1.368 . S
C1441 H1465 0.949 . S
H1442 C1446 0.949 . S
C1443 C1444 1.349 . S
C1443 C1445 1.327 . S
C1443 H1466 0.950 . S
C1444 C1443 1.349 . S
C1444 C1456 1.349 . S
C1445 C1443 1.327 . S
C1445 C1461 1.429 . S
C1445 H1467 0.950 . S
C1446 H1442 0.949 . S
C1446 C1454 1.574 . S
C1446 C1462 1.368 . S
H1447 C1455 0.950 . S
H1448 C1453 0.950 . S
H1449 C1454 0.949 . S
H1450 C1456 0.950 . S
H1451 C1457 0.950 . S
H1452 C1458 0.949 . S
C1453 H1448 0.950 . S
C1453 C1455 1.327 . S
C1453 C1459 1.429 . S
C1454 C1446 1.574 . S
C1454 H1449 0.949 . S
C1454 C1460 1.368 . S
C1455 C1439 1.349 . S
C1455 H1447 0.950 . S
C1455 C1453 1.327 . S
C1456 C1444 1.349 . S
C1456 H1450 0.950 . S
C1456 C1457 1.327 . S
C1457 H1451 0.950 . S
C1457 C1456 1.327 . S
C1457 C1461 1.429 . S
C1458 C1441 1.574 . S
C1458 H1452 0.949 . S
C1458 C1462 1.368 . S
C1459 C1440 1.429 . S
C1459 C1453 1.429 . S
C1459 C1460 1.523 . S
C1460 C1441 1.368 . S
C1460 C1454 1.368 . S
C1460 C1459 1.523 . S
C1461 C1445 1.429 . S
C1461 C1457 1.429 . S
C1461 C1462 1.523 . S
C1462 C1446 1.368 . S
C1462 C1458 1.368 . S
C1462 C1461 1.523 . S
H1463 C1438 0.950 . S
H1464 C1440 0.950 . S
H1465 C1441 0.949 . S
H1466 C1443 0.950 . S
H1467 C1445 0.950 . S
C1468 C1469 1.349 . S
C1468 C1470 1.327 . S
C1468 H1493 0.950 . S
C1469 C1468 1.349 . S
C1469 C1485 1.349 . S
C1470 C1468 1.327 . S
C1470 C1489 1.429 . S
C1470 H1494 0.950 . S
C1471 C1488 1.574 . S
C1471 C1490 1.368 . S
C1471 H1495 0.949 . S
H1472 C1476 0.949 . S
C1473 C1474 1.349 . S
C1473 C1475 1.327 . S
C1473 H1496 0.950 . S
C1474 C1473 1.349 . S
C1474 C1486 1.349 . S
C1475 C1473 1.327 . S
C1475 C1491 1.429 . S
C1475 H1497 0.950 . S
C1476 H1472 0.949 . S
C1476 C1484 1.574 . S
C1476 C1492 1.368 . S
H1477 C1485 0.950 . S
H1478 C1483 0.950 . S
H1479 C1484 0.949 . S
H1480 C1486 0.950 . S
H1481 C1487 0.950 . S
H1482 C1488 0.949 . S
C1483 H1478 0.950 . S
C1483 C1485 1.327 . S
C1483 C1489 1.429 . S
C1484 C1476 1.574 . S
C1484 H1479 0.949 . S
C1484 C1490 1.368 . S
C1485 C1469 1.349 . S
C1485 H1477 0.950 . S
C1485 C1483 1.327 . S
C1486 C1474 1.349 . S
C1486 H1480 0.950 . S
C1486 C1487 1.327 . S
C1487 H1481 0.950 . S
C1487 C1486 1.327 . S
C1487 C1491 1.429 . S
C1488 C1471 1.574 . S
C1488 H1482 0.949 . S
C1488 C1492 1.368 . S
C1489 C1470 1.429 . S
C1489 C1483 1.429 . S
C1489 C1490 1.523 . S
C1490 C1471 1.368 . S
C1490 C1484 1.368 . S
C1490 C1489 1.523 . S
C1491 C1475 1.429 . S
C1491 C1487 1.429 . S
C1491 C1492 1.523 . S
C1492 C1476 1.368 . S
C1492 C1488 1.368 . S
C1492 C1491 1.523 . S
H1493 C1468 0.950 . S
H1494 C1470 0.950 . S
H1495 C1471 0.949 . S
H1496 C1473 0.950 . S
H1497 C1475 0.950 . S
C1498 C1499 1.349 . S
C1498 C1500 1.327 . S
C1498 H1523 0.950 . S
C1499 C1498 1.349 . S
C1499 C1515 1.349 . S
C1500 C1498 1.327 . S
C1500 C1519 1.429 . S
C1500 H1524 0.950 . S
C1501 C1518 1.574 . S
C1501 C1520 1.368 1_655 S
C1501 H1525 0.949 . S
H1502 C1506 0.949 . S
C1503 C1504 1.349 . S
C1503 C1505 1.327 . S
C1503 H1526 0.950 . S
C1504 C1503 1.349 . S
C1504 C1516 1.349 . S
C1505 C1503 1.327 . S
C1505 C1521 1.429 . S
C1505 H1527 0.950 . S
C1506 H1502 0.949 . S
C1506 C1514 1.574 1_556 S
C1506 C1522 1.368 1_455 S
H1507 C1515 0.950 . S
H1508 C1513 0.950 . S
H1509 C1514 0.949 . S
H1510 C1516 0.950 . S
H1511 C1517 0.950 . S
H1512 C1518 0.949 1_556 S
C1513 H1508 0.950 . S
C1513 C1515 1.327 . S
C1513 C1519 1.429 . S
C1514 C1506 1.574 1_554 S
C1514 H1509 0.949 . S
C1514 C1520 1.368 . S
C1515 C1499 1.349 . S
C1515 H1507 0.950 . S
C1515 C1513 1.327 . S
C1516 C1504 1.349 . S
C1516 H1510 0.950 . S
C1516 C1517 1.327 . S
C1517 H1511 0.950 . S
C1517 C1516 1.327 . S
C1517 C1521 1.429 . S
C1518 C1501 1.574 . S
C1518 H1512 0.949 1_554 S
C1518 C1522 1.368 1_554 S
C1519 C1500 1.429 . S
C1519 C1513 1.429 . S
C1519 C1520 1.523 . S
C1520 C1501 1.368 1_455 S
C1520 C1514 1.368 . S
C1520 C1519 1.523 . S
C1521 C1505 1.429 . S
C1521 C1517 1.429 . S
C1521 C1522 1.523 . S
C1522 C1506 1.368 1_655 S
C1522 C1518 1.368 1_556 S
C1522 C1521 1.523 . S
H1523 C1498 0.950 . S
H1524 C1500 0.950 . S
H1525 C1501 0.949 . S
H1526 C1503 0.950 . S
H1527 C1505 0.950 . S
C1528 C1529 1.349 . S
C1528 C1530 1.327 . S
C1528 H1553 0.950 . S
C1529 C1528 1.349 . S
C1529 C1545 1.349 . S
C1530 C1528 1.327 . S
C1530 C1549 1.429 . S
C1530 H1554 0.950 . S
C1531 C1548 1.574 . S
C1531 C1550 1.368 . S
C1531 H1555 0.949 . S
H1532 C1536 0.949 . S
C1533 C1534 1.349 . S
C1533 C1535 1.327 . S
C1533 H1556 0.950 . S
C1534 C1533 1.349 . S
C1534 C1546 1.349 . S
C1535 C1533 1.327 . S
C1535 C1551 1.429 . S
C1535 H1557 0.950 . S
C1536 H1532 0.949 . S
C1536 C1544 1.574 . S
C1536 C1552 1.368 . S
H1537 C1545 0.950 . S
H1538 C1543 0.950 . S
H1539 C1544 0.949 . S
H1540 C1546 0.950 . S
H1541 C1547 0.950 . S
H1542 C1548 0.949 . S
C1543 H1538 0.950 . S
C1543 C1545 1.327 . S
C1543 C1549 1.429 . S
C1544 C1536 1.574 . S
C1544 H1539 0.949 . S
C1544 C1550 1.368 . S
C1545 C1529 1.349 . S
C1545 H1537 0.950 . S
C1545 C1543 1.327 . S
C1546 C1534 1.349 . S
C1546 H1540 0.950 . S
C1546 C1547 1.327 . S
C1547 H1541 0.950 . S
C1547 C1546 1.327 . S
C1547 C1551 1.429 . S
C1548 C1531 1.574 . S
C1548 H1542 0.949 . S
C1548 C1552 1.368 . S
C1549 C1530 1.429 . S
C1549 C1543 1.429 . S
C1549 C1550 1.523 . S
C1550 C1531 1.368 . S
C1550 C1544 1.368 . S
C1550 C1549 1.523 . S
C1551 C1535 1.429 . S
C1551 C1547 1.429 . S
C1551 C1552 1.523 . S
C1552 C1536 1.368 . S
C1552 C1548 1.368 . S
C1552 C1551 1.523 . S
H1553 C1528 0.950 . S
H1554 C1530 0.950 . S
H1555 C1531 0.949 . S
H1556 C1533 0.950 . S
H1557 C1535 0.950 . S
C1558 C1559 1.349 . S
C1558 C1560 1.327 . S
C1558 H1583 0.950 . S
C1559 C1558 1.349 . S
C1559 C1575 1.349 . S
C1560 C1558 1.327 . S
C1560 C1579 1.429 . S
C1560 H1584 0.950 . S
C1561 C1578 1.574 . S
C1561 C1580 1.368 . S
C1561 H1585 0.949 . S
H1562 C1566 0.949 . S
C1563 C1564 1.349 . S
C1563 C1565 1.327 . S
C1563 H1586 0.950 . S
C1564 C1563 1.349 . S
C1564 C1576 1.349 . S
C1565 C1563 1.327 . S
C1565 C1581 1.429 . S
C1565 H1587 0.993 . S
C1566 H1562 0.949 . S
C1566 C1574 1.574 . S
C1566 C1582 1.368 . S
H1567 C1575 0.950 . S
H1568 C1573 0.950 . S
H1569 C1574 0.949 . S
H1570 C1576 0.950 . S
H1571 C1577 0.950 . S
H1572 C1578 0.949 . S
C1573 H1568 0.950 . S
C1573 C1575 1.327 . S
C1573 C1579 1.429 . S
C1574 C1566 1.574 . S
C1574 H1569 0.949 . S
C1574 C1580 1.368 1_455 S
C1575 C1559 1.349 . S
C1575 H1567 0.950 . S
C1575 C1573 1.327 . S
C1576 C1564 1.349 . S
C1576 H1570 0.950 . S
C1576 C1577 1.327 . S
C1577 H1571 0.950 . S
C1577 C1576 1.327 . S
C1577 C1581 1.429 . S
C1578 C1561 1.574 . S
C1578 H1572 0.949 . S
C1578 C1582 1.368 1_655 S
C1579 C1560 1.429 . S
C1579 C1573 1.429 . S
C1579 C1580 1.523 . S
C1580 C1561 1.368 . S
C1580 C1574 1.368 1_655 S
C1580 C1579 1.523 . S
C1581 C1565 1.429 . S
C1581 C1577 1.429 . S
C1581 C1582 1.523 . S
C1582 C1566 1.368 . S
C1582 C1578 1.368 1_455 S
C1582 C1581 1.523 . S
H1583 C1558 0.950 . S
H1584 C1560 0.950 . S
H1585 C1561 0.949 . S
H1586 C1563 0.950 . S
H1587 C1565 0.993 . S
C1588 C1589 1.349 . S
C1588 C1590 1.327 . S
C1588 H1613 0.950 . S
C1589 C1588 1.349 . S
C1589 C1605 1.349 . S
C1590 C1588 1.327 . S
C1590 C1609 1.429 . S
C1590 H1614 0.950 . S
C1591 C1608 1.574 . S
C1591 C1610 1.368 . S
C1591 H1615 0.949 . S
H1592 C1596 0.949 . S
C1593 C1594 1.349 . S
C1593 C1595 1.327 . S
C1593 H1616 0.950 . S
C1594 C1593 1.349 . S
C1594 C1606 1.349 . S
C1595 C1593 1.327 . S
C1595 C1611 1.429 . S
C1595 H1617 0.950 . S
C1596 H1592 0.949 . S
C1596 C1604 1.574 . S
C1596 C1612 1.368 . S
H1597 C1605 0.950 . S
H1598 C1603 0.950 . S
H1599 C1604 0.949 . S
H1600 C1606 0.950 . S
H1601 C1607 0.950 . S
H1602 C1608 0.949 . S
C1603 H1598 0.950 . S
C1603 C1605 1.327 . S
C1603 C1609 1.429 . S
C1604 C1596 1.574 . S
C1604 H1599 0.949 . S
C1604 C1610 1.368 . S
C1605 C1589 1.349 . S
C1605 H1597 0.950 . S
C1605 C1603 1.327 . S
C1606 C1594 1.349 . S
C1606 H1600 0.950 . S
C1606 C1607 1.327 . S
C1607 H1601 0.950 . S
C1607 C1606 1.327 . S
C1607 C1611 1.429 . S
C1608 C1591 1.574 . S
C1608 H1602 0.949 . S
C1608 C1612 1.368 . S
C1609 C1590 1.429 . S
C1609 C1603 1.429 . S
C1609 C1610 1.523 . S
C1610 C1591 1.368 . S
C1610 C1604 1.368 . S
C1610 C1609 1.523 . S
C1611 C1595 1.429 . S
C1611 C1607 1.429 . S
C1611 C1612 1.523 . S
C1612 C1596 1.368 . S
C1612 C1608 1.368 . S
C1612 C1611 1.523 . S
H1613 C1588 0.950 . S
H1614 C1590 0.950 . S
H1615 C1591 0.949 . S
H1616 C1593 0.950 . S
H1617 C1595 0.950 . S
C1618 C1619 1.349 . S
C1618 C1620 1.327 . S
C1618 H1643 0.950 . S
C1619 C1618 1.349 . S
C1619 C1635 1.349 . S
C1620 C1618 1.327 . S
C1620 C1639 1.429 . S
C1620 H1644 0.950 . S
C1621 C1638 1.574 1_554 S
C1621 C1640 1.368 . S
C1621 H1645 0.949 . S
H1622 C1626 0.949 . S
C1623 C1624 1.349 . S
C1623 C1625 1.327 . S
C1623 H1646 0.950 . S
C1624 C1623 1.349 . S
C1624 C1636 1.349 . S
C1625 C1623 1.327 . S
C1625 C1641 1.429 . S
C1625 H1647 0.950 . S
C1626 H1622 0.949 . S
C1626 C1634 1.572 1_556 S
C1626 C1642 1.368 . S
H1627 C1635 0.950 . S
H1628 C1633 0.950 . S
H1629 C1634 0.950 . S
H1630 C1636 0.950 . S
H1631 C1637 0.950 . S
H1632 C1638 0.949 . S
C1633 H1628 0.950 . S
C1633 C1635 1.327 . S
C1633 C1639 1.429 . S
C1634 C1626 1.572 1_554 S
C1634 H1629 0.950 . S
C1634 C1640 1.369 . S
C1635 C1619 1.349 . S
C1635 H1627 0.950 . S
C1635 C1633 1.327 . S
C1636 C1624 1.349 . S
C1636 H1630 0.950 . S
C1636 C1637 1.327 . S
C1637 H1631 0.950 . S
C1637 C1636 1.327 . S
C1637 C1641 1.429 . S
C1638 C1621 1.574 1_556 S
C1638 H1632 0.949 . S
C1638 C1642 1.368 . S
C1639 C1620 1.429 . S
C1639 C1633 1.429 . S
C1639 C1640 1.523 . S
C1640 C1621 1.368 . S
C1640 C1634 1.369 . S
C1640 C1639 1.523 . S
C1641 C1625 1.429 . S
C1641 C1637 1.429 . S
C1641 C1642 1.523 . S
C1642 C1626 1.368 . S
C1642 C1638 1.368 . S
C1642 C1641 1.523 . S
H1643 C1618 0.950 . S
H1644 C1620 0.950 . S
H1645 C1621 0.949 . S
H1646 C1623 0.950 . S
H1647 C1625 0.950 . S
C1648 C1649 1.349 . S
C1648 C1650 1.327 . S
C1648 H1673 0.950 . S
C1649 C1648 1.349 . S
C1649 C1665 1.349 . S
C1650 C1648 1.327 . S
C1650 C1669 1.429 . S
C1650 H1674 0.950 . S
C1651 C1668 1.574 . S
C1651 C1670 1.368 . S
C1651 H1675 0.949 . S
H1652 C1656 0.949 . S
C1653 C1654 1.349 . S
C1653 C1655 1.327 . S
C1653 H1676 0.950 . S
C1654 C1653 1.349 . S
C1654 C1666 1.349 . S
C1655 C1653 1.327 . S
C1655 C1671 1.429 . S
C1655 H1677 0.950 . S
C1656 H1652 0.949 . S
C1656 C1664 1.574 . S
C1656 C1672 1.368 . S
H1657 C1665 0.950 . S
H1658 C1663 0.950 . S
H1659 C1664 0.949 . S
H1660 C1666 0.950 . S
H1661 C1667 0.950 . S
H1662 C1668 0.949 . S
C1663 H1658 0.950 . S
C1663 C1665 1.327 . S
C1663 C1669 1.429 . S
C1664 C1656 1.574 . S
C1664 H1659 0.949 . S
C1664 C1670 1.368 . S
C1665 C1649 1.349 . S
C1665 H1657 0.950 . S
C1665 C1663 1.327 . S
C1666 C1654 1.349 . S
C1666 H1660 0.950 . S
C1666 C1667 1.327 . S
C1667 H1661 0.950 . S
C1667 C1666 1.327 . S
C1667 C1671 1.429 . S
C1668 C1651 1.574 . S
C1668 H1662 0.949 . S
C1668 C1672 1.368 . S
C1669 C1650 1.429 . S
C1669 C1663 1.429 . S
C1669 C1670 1.523 . S
C1670 C1651 1.368 . S
C1670 C1664 1.368 . S
C1670 C1669 1.523 . S
C1671 C1655 1.429 . S
C1671 C1667 1.429 . S
C1671 C1672 1.523 . S
C1672 C1656 1.368 . S
C1672 C1668 1.368 . S
C1672 C1671 1.523 . S
H1673 C1648 0.950 . S
H1674 C1650 0.950 . S
H1675 C1651 0.949 . S
H1676 C1653 0.950 . S
H1677 C1655 0.950 . S
C1678 C1679 1.349 . S
C1678 C1680 1.327 . S
C1678 H1703 0.950 . S
C1679 C1678 1.349 . S
C1679 C1695 1.349 . S
C1680 C1678 1.327 . S
C1680 C1699 1.429 . S
C1680 H1704 0.950 . S
C1681 C1698 1.574 . S
C1681 C1700 1.368 . S
C1681 H1705 0.949 . S
H1682 C1686 0.949 . S
C1683 C1684 1.349 . S
C1683 C1685 1.327 . S
C1683 H1706 0.950 . S
C1684 C1683 1.349 . S
C1684 C1696 1.349 . S
C1685 C1683 1.327 . S
C1685 C1701 1.429 . S
C1685 H1707 0.950 . S
C1686 H1682 0.949 . S
C1686 C1694 1.574 . S
C1686 C1702 1.368 . S
H1687 C1695 0.950 . S
H1688 C1693 0.950 . S
H1689 C1694 0.949 . S
H1690 C1696 0.950 . S
H1691 C1697 0.950 . S
H1692 C1698 0.949 . S
C1693 H1688 0.950 . S
C1693 C1695 1.327 . S
C1693 C1699 1.429 . S
C1694 C1686 1.574 . S
C1694 H1689 0.949 . S
C1694 C1700 1.368 . S
C1695 C1679 1.349 . S
C1695 H1687 0.950 . S
C1695 C1693 1.327 . S
C1696 C1684 1.349 . S
C1696 H1690 0.950 . S
C1696 C1697 1.327 . S
C1697 H1691 0.950 . S
C1697 C1696 1.327 . S
C1697 C1701 1.429 . S
C1698 C1681 1.574 . S
C1698 H1692 0.949 . S
C1698 C1702 1.368 . S
C1699 C1680 1.429 . S
C1699 C1693 1.429 . S
C1699 C1700 1.523 . S
C1700 C1681 1.368 . S
C1700 C1694 1.368 . S
C1700 C1699 1.523 . S
C1701 C1685 1.429 . S
C1701 C1697 1.429 . S
C1701 C1702 1.523 . S
C1702 C1686 1.368 . S
C1702 C1698 1.368 . S
C1702 C1701 1.523 . S
H1703 C1678 0.950 . S
H1704 C1680 0.950 . S
H1705 C1681 0.949 . S
H1706 C1683 0.950 . S
H1707 C1685 0.950 . S
C1708 C1709 1.349 . S
C1708 C1710 1.327 . S
C1708 H1733 0.950 . S
C1709 C1708 1.349 . S
C1709 C1725 1.349 . S
C1710 C1708 1.327 . S
C1710 C1729 1.429 . S
C1710 H1734 0.950 . S
C1711 C1728 1.574 . S
C1711 C1730 1.368 . S
C1711 H1735 0.949 . S
H1712 C1716 0.949 . S
C1713 C1714 1.349 . S
C1713 C1715 1.327 . S
C1713 H1736 0.950 . S
C1714 C1713 1.349 . S
C1714 C1726 1.349 . S
C1715 C1713 1.327 . S
C1715 C1731 1.429 . S
C1715 H1737 0.950 . S
C1716 H1712 0.949 . S
C1716 C1724 1.574 . S
C1716 C1732 1.368 . S
H1717 C1725 0.950 . S
H1718 C1723 0.950 . S
H1719 C1724 0.949 . S
H1720 C1726 0.950 . S
H1721 C1727 0.950 . S
H1722 C1728 0.949 . S
C1723 H1718 0.950 . S
C1723 C1725 1.327 . S
C1723 C1729 1.429 . S
C1724 C1716 1.574 . S
C1724 H1719 0.949 . S
C1724 C1730 1.368 . S
C1725 C1709 1.349 . S
C1725 H1717 0.950 . S
C1725 C1723 1.327 . S
C1726 C1714 1.349 . S
C1726 H1720 0.950 . S
C1726 C1727 1.327 . S
C1727 H1721 0.950 . S
C1727 C1726 1.327 . S
C1727 C1731 1.429 . S
C1728 C1711 1.574 . S
C1728 H1722 0.949 . S
C1728 C1732 1.368 . S
C1729 C1710 1.429 . S
C1729 C1723 1.429 . S
C1729 C1730 1.523 . S
C1730 C1711 1.368 . S
C1730 C1724 1.368 . S
C1730 C1729 1.523 . S
C1731 C1715 1.429 . S
C1731 C1727 1.429 . S
C1731 C1732 1.523 . S
C1732 C1716 1.368 . S
C1732 C1728 1.368 . S
C1732 C1731 1.523 . S
H1733 C1708 0.950 . S
H1734 C1710 0.950 . S
H1735 C1711 0.949 . S
H1736 C1713 0.950 . S
H1737 C1715 0.950 . S
C1738 C1739 1.349 . S
C1738 C1740 1.327 . S
C1738 H1763 0.950 . S
C1739 C1738 1.349 . S
C1739 C1755 1.349 . S
C1740 C1738 1.327 . S
C1740 C1759 1.429 . S
C1740 H1764 0.950 . S
C1741 C1758 1.574 . S
C1741 C1760 1.368 1_455 S
C1741 H1765 0.949 . S
H1742 C1746 0.949 . S
C1743 C1744 1.349 . S
C1743 C1745 1.327 . S
C1743 H1766 0.950 . S
C1744 C1743 1.349 . S
C1744 C1756 1.349 . S
C1745 C1743 1.327 . S
C1745 C1761 1.429 . S
C1745 H1767 0.950 . S
C1746 H1742 0.949 . S
C1746 C1754 1.574 1_554 S
C1746 C1762 1.368 1_655 S
H1747 C1755 0.950 . S
H1748 C1753 1.003 . S
H1749 C1754 0.949 . S
H1750 C1756 0.950 . S
H1751 C1757 0.950 . S
H1752 C1758 0.949 1_554 S
C1753 H1748 1.003 . S
C1753 C1755 1.327 . S
C1753 C1759 1.429 . S
C1754 C1746 1.574 1_556 S
C1754 H1749 0.949 . S
C1754 C1760 1.368 . S
C1755 C1739 1.349 . S
C1755 H1747 0.950 . S
C1755 C1753 1.327 . S
C1756 C1744 1.349 . S
C1756 H1750 0.950 . S
C1756 C1757 1.327 . S
C1757 H1751 0.950 . S
C1757 C1756 1.327 . S
C1757 C1761 1.429 . S
C1758 C1741 1.574 . S
C1758 H1752 0.949 1_556 S
C1758 C1762 1.368 1_556 S
C1759 C1740 1.429 . S
C1759 C1753 1.429 . S
C1759 C1760 1.523 . S
C1760 C1741 1.368 1_655 S
C1760 C1754 1.368 . S
C1760 C1759 1.523 . S
C1761 C1745 1.429 . S
C1761 C1757 1.429 . S
C1761 C1762 1.523 . S
C1762 C1746 1.368 1_455 S
C1762 C1758 1.368 1_554 S
C1762 C1761 1.523 . S
H1763 C1738 0.950 . S
H1764 C1740 0.950 . S
H1765 C1741 0.949 . S
H1766 C1743 0.950 . S
H1767 C1745 0.950 . S
C1768 C1769 1.349 . S
C1768 C1770 1.327 . S
C1768 H1793 0.950 . S
C1769 C1768 1.349 . S
C1769 C1785 1.349 . S
C1770 C1768 1.327 . S
C1770 C1789 1.429 . S
C1770 H1794 0.950 . S
C1771 C1788 1.574 . S
C1771 C1790 1.368 . S
C1771 H1795 0.949 . S
H1772 C1776 0.949 . S
C1773 C1774 1.349 . S
C1773 C1775 1.327 . S
C1773 H1796 0.950 . S
C1774 C1773 1.349 . S
C1774 C1786 1.349 . S
C1775 C1773 1.327 . S
C1775 C1791 1.429 . S
C1775 H1797 0.950 . S
C1776 H1772 0.949 . S
C1776 C1784 1.574 . S
C1776 C1792 1.368 . S
H1777 C1785 0.950 . S
H1778 C1783 0.950 . S
H1779 C1784 0.949 . S
H1780 C1786 0.950 . S
H1781 C1787 0.950 . S
H1782 C1788 0.949 . S
C1783 H1778 0.950 . S
C1783 C1785 1.327 . S
C1783 C1789 1.429 . S
C1784 C1776 1.574 . S
C1784 H1779 0.949 . S
C1784 C1790 1.368 . S
C1785 C1769 1.349 . S
C1785 H1777 0.950 . S
C1785 C1783 1.327 . S
C1786 C1774 1.349 . S
C1786 H1780 0.950 . S
C1786 C1787 1.327 . S
C1787 H1781 0.950 . S
C1787 C1786 1.327 . S
C1787 C1791 1.429 . S
C1788 C1771 1.574 . S
C1788 H1782 0.949 . S
C1788 C1792 1.368 . S
C1789 C1770 1.429 . S
C1789 C1783 1.429 . S
C1789 C1790 1.523 . S
C1790 C1771 1.368 . S
C1790 C1784 1.368 . S
C1790 C1789 1.523 . S
C1791 C1775 1.429 . S
C1791 C1787 1.429 . S
C1791 C1792 1.523 . S
C1792 C1776 1.368 . S
C1792 C1788 1.368 . S
C1792 C1791 1.523 . S
H1793 C1768 0.950 . S
H1794 C1770 0.950 . S
H1795 C1771 0.949 . S
H1796 C1773 0.950 . S
H1797 C1775 0.950 . S
C1798 C1799 1.349 . S
C1798 C1800 1.327 . S
C1798 H1823 0.950 . S
C1799 C1798 1.349 . S
C1799 C1815 1.349 . S
C1800 C1798 1.327 . S
C1800 C1819 1.429 . S
C1800 H1824 0.950 . S
C1801 C1818 1.574 . S
C1801 C1820 1.368 1_455 S
C1801 H1825 0.949 . S
H1802 C1806 0.949 . S
C1803 C1804 1.349 . S
C1803 C1805 1.327 . S
C1803 H1826 0.950 . S
C1804 C1803 1.349 . S
C1804 C1816 1.349 . S
C1805 C1803 1.327 . S
C1805 C1821 1.429 . S
C1805 H1827 0.950 . S
C1806 H1802 0.949 . S
C1806 C1814 1.574 . S
C1806 C1822 1.368 1_655 S
H1807 C1815 0.950 . S
H1808 C1813 0.950 . S
H1809 C1814 0.949 . S
H1810 C1816 0.950 . S
H1811 C1817 0.950 . S
H1812 C1818 0.949 . S
C1813 H1808 0.950 . S
C1813 C1815 1.327 . S
C1813 C1819 1.429 . S
C1814 C1806 1.574 . S
C1814 H1809 0.949 . S
C1814 C1820 1.368 . S
C1815 C1799 1.349 . S
C1815 H1807 0.950 . S
C1815 C1813 1.327 . S
C1816 C1804 1.349 . S
C1816 H1810 0.950 . S
C1816 C1817 1.327 . S
C1817 H1811 0.950 . S
C1817 C1816 1.327 . S
C1817 C1821 1.429 . S
C1818 C1801 1.574 . S
C1818 H1812 0.949 . S
C1818 C1822 1.368 . S
C1819 C1800 1.429 . S
C1819 C1813 1.429 . S
C1819 C1820 1.523 . S
C1820 C1801 1.368 1_655 S
C1820 C1814 1.368 . S
C1820 C1819 1.523 . S
C1821 C1805 1.429 . S
C1821 C1817 1.429 . S
C1821 C1822 1.523 . S
C1822 C1806 1.368 1_455 S
C1822 C1818 1.368 . S
C1822 C1821 1.523 . S
H1823 C1798 0.950 . S
H1824 C1800 0.950 . S
H1825 C1801 0.949 . S
H1826 C1803 0.950 . S
H1827 C1805 0.950 . S
C1828 C1829 1.349 . S
C1828 C1830 1.327 . S
C1828 H1853 0.950 . S
C1829 C1828 1.349 . S
C1829 C1845 1.349 . S
C1830 C1828 1.327 . S
C1830 C1849 1.429 . S
C1830 H1854 0.950 . S
C1831 C1848 1.574 . S
C1831 C1850 1.368 . S
C1831 H1855 0.949 . S
H1832 C1836 0.949 . S
C1833 C1834 1.349 . S
C1833 C1835 1.327 . S
C1833 H1856 0.950 . S
C1834 C1833 1.349 . S
C1834 C1846 1.349 . S
C1835 C1833 1.327 . S
C1835 C1851 1.429 . S
C1835 H1857 0.950 . S
C1836 H1832 0.949 . S
C1836 C1844 1.574 . S
C1836 C1852 1.368 . S
H1837 C1845 0.950 . S
H1838 C1843 0.950 . S
H1839 C1844 0.949 . S
H1840 C1846 0.950 . S
H1841 C1847 0.950 . S
H1842 C1848 0.949 . S
C1843 H1838 0.950 . S
C1843 C1845 1.327 . S
C1843 C1849 1.429 . S
C1844 C1836 1.574 . S
C1844 H1839 0.949 . S
C1844 C1850 1.368 . S
C1845 C1829 1.349 . S
C1845 H1837 0.950 . S
C1845 C1843 1.327 . S
C1846 C1834 1.349 . S
C1846 H1840 0.950 . S
C1846 C1847 1.327 . S
C1847 H1841 0.950 . S
C1847 C1846 1.327 . S
C1847 C1851 1.429 . S
C1848 C1831 1.574 . S
C1848 H1842 0.949 . S
C1848 C1852 1.368 . S
C1849 C1830 1.429 . S
C1849 C1843 1.429 . S
C1849 C1850 1.523 . S
C1850 C1831 1.368 . S
C1850 C1844 1.368 . S
C1850 C1849 1.523 . S
C1851 C1835 1.429 . S
C1851 C1847 1.429 . S
C1851 C1852 1.523 . S
C1852 C1836 1.368 . S
C1852 C1848 1.368 . S
C1852 C1851 1.523 . S
H1853 C1828 0.950 . S
H1854 C1830 0.950 . S
H1855 C1831 0.949 . S
H1856 C1833 0.950 . S
H1857 C1835 0.950 . S
C1858 C1859 1.349 . S
C1858 C1860 1.327 . S
C1858 H1883 0.950 . S
C1859 C1858 1.349 . S
C1859 C1875 1.349 . S
C1860 C1858 1.327 . S
C1860 C1879 1.429 . S
C1860 H1884 0.950 . S
C1861 C1878 1.574 1_554 S
C1861 C1880 1.368 . S
C1861 H1885 0.949 . S
H1862 C1866 0.949 . S
C1863 C1864 1.349 . S
C1863 C1865 1.327 . S
C1863 H1886 0.950 . S
C1864 C1863 1.349 . S
C1864 C1876 1.349 . S
C1865 C1863 1.327 . S
C1865 C1881 1.429 . S
C1865 H1887 0.950 . S
C1866 H1862 0.949 . S
C1866 C1874 1.574 1_556 S
C1866 C1882 1.368 . S
H1867 C1875 0.950 . S
H1868 C1873 0.950 . S
H1869 C1874 0.949 . S
H1870 C1876 0.950 . S
H1871 C1877 0.950 . S
H1872 C1878 0.949 . S
C1873 H1868 0.950 . S
C1873 C1875 1.327 . S
C1873 C1879 1.429 . S
C1874 C1866 1.574 1_554 S
C1874 H1869 0.949 . S
C1874 C1880 1.368 . S
C1875 C1859 1.349 . S
C1875 H1867 0.950 . S
C1875 C1873 1.327 . S
C1876 C1864 1.349 . S
C1876 H1870 0.950 . S
C1876 C1877 1.327 . S
C1877 H1871 0.950 . S
C1877 C1876 1.327 . S
C1877 C1881 1.429 . S
C1878 C1861 1.574 1_556 S
C1878 H1872 0.949 . S
C1878 C1882 1.368 . S
C1879 C1860 1.429 . S
C1879 C1873 1.429 . S
C1879 C1880 1.523 . S
C1880 C1861 1.368 . S
C1880 C1874 1.368 . S
C1880 C1879 1.523 . S
C1881 C1865 1.429 . S
C1881 C1877 1.429 . S
C1881 C1882 1.523 . S
C1882 C1866 1.368 . S
C1882 C1878 1.368 . S
C1882 C1881 1.523 . S
H1883 C1858 0.950 . S
H1884 C1860 0.950 . S
H1885 C1861 0.949 . S
H1886 C1863 0.950 . S
H1887 C1865 0.950 . S
C1888 C1889 1.349 . S
C1888 C1890 1.327 . S
C1888 H1913 0.950 . S
C1889 C1888 1.349 . S
C1889 C1905 1.349 . S
C1890 C1888 1.327 . S
C1890 C1909 1.429 . S
C1890 H1914 0.950 . S
C1891 C1908 1.574 . S
C1891 C1910 1.368 . S
C1891 H1915 0.949 . S
H1892 C1896 0.949 . S
C1893 C1894 1.349 . S
C1893 C1895 1.327 . S
C1893 H1916 0.950 . S
C1894 C1893 1.349 . S
C1894 C1906 1.349 . S
C1895 C1893 1.327 . S
C1895 C1911 1.429 . S
C1895 H1917 0.950 . S
C1896 H1892 0.949 . S
C1896 C1904 1.574 . S
C1896 C1912 1.368 . S
H1897 C1905 0.950 . S
H1898 C1903 0.950 . S
H1899 C1904 0.949 . S
H1900 C1906 0.950 . S
H1901 C1907 0.950 . S
H1902 C1908 0.949 . S
C1903 H1898 0.950 . S
C1903 C1905 1.327 . S
C1903 C1909 1.429 . S
C1904 C1896 1.574 . S
C1904 H1899 0.949 . S
C1904 C1910 1.368 . S
C1905 C1889 1.349 . S
C1905 H1897 0.950 . S
C1905 C1903 1.327 . S
C1906 C1894 1.349 . S
C1906 H1900 0.950 . S
C1906 C1907 1.327 . S
C1907 H1901 0.950 . S
C1907 C1906 1.327 . S
C1907 C1911 1.429 . S
C1908 C1891 1.574 . S
C1908 H1902 0.949 . S
C1908 C1912 1.368 . S
C1909 C1890 1.429 . S
C1909 C1903 1.429 . S
C1909 C1910 1.523 . S
C1910 C1891 1.368 . S
C1910 C1904 1.368 . S
C1910 C1909 1.523 . S
C1911 C1895 1.429 . S
C1911 C1907 1.429 . S
C1911 C1912 1.523 . S
C1912 C1896 1.368 . S
C1912 C1908 1.368 . S
C1912 C1911 1.523 . S
H1913 C1888 0.950 . S
H1914 C1890 0.950 . S
H1915 C1891 0.949 . S
H1916 C1893 0.950 . S
H1917 C1895 0.950 . S
C1918 C1919 1.349 . S
C1918 C1920 1.327 . S
C1918 H1943 0.950 . S
C1919 C1918 1.349 . S
C1919 C1935 1.349 . S
C1920 C1918 1.327 . S
C1920 C1939 1.429 . S
C1920 H1944 0.950 . S
C1921 C1938 1.574 . S
C1921 C1940 1.368 . S
C1921 H1945 0.949 . S
H1922 C1926 0.949 . S
C1923 C1924 1.349 . S
C1923 C1925 1.327 . S
C1923 H1946 0.950 . S
C1924 C1923 1.349 . S
C1924 C1936 1.349 . S
C1925 C1923 1.327 . S
C1925 C1941 1.429 . S
C1925 H1947 0.950 . S
C1926 H1922 0.949 . S
C1926 C1934 1.574 . S
C1926 C1942 1.368 . S
H1927 C1935 0.950 . S
H1928 C1933 0.950 . S
H1929 C1934 0.949 . S
H1930 C1936 0.950 . S
H1931 C1937 0.950 . S
H1932 C1938 0.949 . S
C1933 H1928 0.950 . S
C1933 C1935 1.327 . S
C1933 C1939 1.429 . S
C1934 C1926 1.574 . S
C1934 H1929 0.949 . S
C1934 C1940 1.368 . S
C1935 C1919 1.349 . S
C1935 H1927 0.950 . S
C1935 C1933 1.327 . S
C1936 C1924 1.349 . S
C1936 H1930 0.950 . S
C1936 C1937 1.327 . S
C1937 H1931 0.950 . S
C1937 C1936 1.327 . S
C1937 C1941 1.429 . S
C1938 C1921 1.574 . S
C1938 H1932 0.949 . S
C1938 C1942 1.368 . S
C1939 C1920 1.429 . S
C1939 C1933 1.429 . S
C1939 C1940 1.523 . S
C1940 C1921 1.368 . S
C1940 C1934 1.368 . S
C1940 C1939 1.523 . S
C1941 C1925 1.429 . S
C1941 C1937 1.429 . S
C1941 C1942 1.523 . S
C1942 C1926 1.368 . S
C1942 C1938 1.368 . S
C1942 C1941 1.523 . S
H1943 C1918 0.950 . S
H1944 C1920 0.950 . S
H1945 C1921 0.949 . S
H1946 C1923 0.950 . S
H1947 C1925 0.950 . S
C1948 C1949 1.349 . S
C1948 C1950 1.327 . S
C1948 H1973 0.950 . S
C1949 C1948 1.349 . S
C1949 C1965 1.349 . S
C1950 C1948 1.327 . S
C1950 C1969 1.429 . S
C1950 H1974 0.950 . S
C1951 C1968 1.574 . S
C1951 C1970 1.368 . S
C1951 H1975 0.949 . S
H1952 C1956 0.949 . S
C1953 C1954 1.349 . S
C1953 C1955 1.327 . S
C1953 H1976 0.950 . S
C1954 C1953 1.349 . S
C1954 C1966 1.349 . S
C1955 C1953 1.327 . S
C1955 C1971 1.429 . S
C1955 H1977 0.950 . S
C1956 H1952 0.949 . S
C1956 C1964 1.574 . S
C1956 C1972 1.368 . S
H1957 C1965 0.950 . S
H1958 C1963 0.950 . S
H1959 C1964 0.949 . S
H1960 C1966 0.950 . S
H1961 C1967 0.950 . S
H1962 C1968 0.949 . S
C1963 H1958 0.950 . S
C1963 C1965 1.327 . S
C1963 C1969 1.429 . S
C1964 C1956 1.574 . S
C1964 H1959 0.949 . S
C1964 C1970 1.368 . S
C1965 C1949 1.349 . S
C1965 H1957 0.950 . S
C1965 C1963 1.327 . S
C1966 C1954 1.349 . S
C1966 H1960 0.950 . S
C1966 C1967 1.327 . S
C1967 H1961 0.950 . S
C1967 C1966 1.327 . S
C1967 C1971 1.429 . S
C1968 C1951 1.574 . S
C1968 H1962 0.949 . S
C1968 C1972 1.368 . S
C1969 C1950 1.429 . S
C1969 C1963 1.429 . S
C1969 C1970 1.523 . S
C1970 C1951 1.368 . S
C1970 C1964 1.368 . S
C1970 C1969 1.523 . S
C1971 C1955 1.429 . S
C1971 C1967 1.429 . S
C1971 C1972 1.523 . S
C1972 C1956 1.368 . S
C1972 C1968 1.368 . S
C1972 C1971 1.523 . S
H1973 C1948 0.950 . S
H1974 C1950 0.950 . S
H1975 C1951 0.949 . S
H1976 C1953 0.950 . S
H1977 C1955 0.950 . S
C1978 C1979 1.349 . S
C1978 C1980 1.327 . S
C1978 H2003 0.950 . S
C1979 C1978 1.349 . S
C1979 C1995 1.349 . S
C1980 C1978 1.327 . S
C1980 C1999 1.429 . S
C1980 H2004 0.950 . S
C1981 C1998 1.574 . S
C1981 C2000 1.368 . S
C1981 H2005 0.949 . S
H1982 C1986 0.949 . S
C1983 C1984 1.349 . S
C1983 C1985 1.327 . S
C1983 H2006 0.950 . S
C1984 C1983 1.349 . S
C1984 C1996 1.349 . S
C1985 C1983 1.327 . S
C1985 C2001 1.429 . S
C1985 H2007 0.950 . S
C1986 H1982 0.949 . S
C1986 C1994 1.574 . S
C1986 C2002 1.368 . S
H1987 C1995 0.950 . S
H1988 C1993 0.950 . S
H1989 C1994 0.949 . S
H1990 C1996 0.950 . S
H1991 C1997 0.950 . S
H1992 C1998 0.949 . S
C1993 H1988 0.950 . S
C1993 C1995 1.327 . S
C1993 C1999 1.429 . S
C1994 C1986 1.574 . S
C1994 H1989 0.949 . S
C1994 C2000 1.368 . S
C1995 C1979 1.349 . S
C1995 H1987 0.950 . S
C1995 C1993 1.327 . S
C1996 C1984 1.349 . S
C1996 H1990 0.950 . S
C1996 C1997 1.327 . S
C1997 H1991 0.950 . S
C1997 C1996 1.327 . S
C1997 C2001 1.429 . S
C1998 C1981 1.574 . S
C1998 H1992 0.949 . S
C1998 C2002 1.368 . S
C1999 C1980 1.429 . S
C1999 C1993 1.429 . S
C1999 C2000 1.523 . S
C2000 C1981 1.368 . S
C2000 C1994 1.368 . S
C2000 C1999 1.523 . S
C2001 C1985 1.429 . S
C2001 C1997 1.429 . S
C2001 C2002 1.523 . S
C2002 C1986 1.368 . S
C2002 C1998 1.368 . S
C2002 C2001 1.523 . S
H2003 C1978 0.950 . S
H2004 C1980 0.950 . S
H2005 C1981 0.949 . S
H2006 C1983 0.950 . S
H2007 C1985 0.950 . S
C2008 C2009 1.349 . S
C2008 C2010 1.327 . S
C2008 H2033 0.950 . S
C2009 C2008 1.349 . S
C2009 C2025 1.349 . S
C2010 C2008 1.327 . S
C2010 C2029 1.429 . S
C2010 H2034 0.950 . S
C2011 C2028 1.574 . S
C2011 C2030 1.368 . S
C2011 H2035 0.949 . S
H2012 C2016 0.949 . S
C2013 C2014 1.349 . S
C2013 C2015 1.327 . S
C2013 H2036 0.950 . S
C2014 C2013 1.349 . S
C2014 C2026 1.349 . S
C2015 C2013 1.327 . S
C2015 C2031 1.429 . S
C2015 H2037 0.950 . S
C2016 H2012 0.949 . S
C2016 C2024 1.574 . S
C2016 C2032 1.368 . S
H2017 C2025 0.950 . S
H2018 C2023 0.950 . S
H2019 C2024 0.949 . S
H2020 C2026 0.950 . S
H2021 C2027 0.950 . S
H2022 C2028 0.949 . S
C2023 H2018 0.950 . S
C2023 C2025 1.327 . S
C2023 C2029 1.429 . S
C2024 C2016 1.574 . S
C2024 H2019 0.949 . S
C2024 C2030 1.368 . S
C2025 C2009 1.349 . S
C2025 H2017 0.950 . S
C2025 C2023 1.327 . S
C2026 C2014 1.349 . S
C2026 H2020 0.950 . S
C2026 C2027 1.327 . S
C2027 H2021 0.950 . S
C2027 C2026 1.327 . S
C2027 C2031 1.429 . S
C2028 C2011 1.574 . S
C2028 H2022 0.949 . S
C2028 C2032 1.368 . S
C2029 C2010 1.429 . S
C2029 C2023 1.429 . S
C2029 C2030 1.523 . S
C2030 C2011 1.368 . S
C2030 C2024 1.368 . S
C2030 C2029 1.523 . S
C2031 C2015 1.429 . S
C2031 C2027 1.429 . S
C2031 C2032 1.523 . S
C2032 C2016 1.368 . S
C2032 C2028 1.368 . S
C2032 C2031 1.523 . S
H2033 C2008 0.950 . S
H2034 C2010 0.950 . S
H2035 C2011 0.949 . S
H2036 C2013 0.950 . S
H2037 C2015 0.950 . S
C2038 C2039 1.349 . S
C2038 C2040 1.327 . S
C2038 H2063 0.950 . S
C2039 C2038 1.349 . S
C2039 C2055 1.349 . S
C2040 C2038 1.327 . S
C2040 C2059 1.429 . S
C2040 H2064 0.950 . S
C2041 C2058 1.574 . S
C2041 C2060 1.368 . S
C2041 H2065 0.949 . S
H2042 C2046 0.949 . S
C2043 C2044 1.349 . S
C2043 C2045 1.327 . S
C2043 H2066 0.950 . S
C2044 C2043 1.349 . S
C2044 C2056 1.349 . S
C2045 C2043 1.327 . S
C2045 C2061 1.429 . S
C2045 H2067 0.950 . S
C2046 H2042 0.949 . S
C2046 C2054 1.574 . S
C2046 C2062 1.368 . S
H2047 C2055 0.950 . S
H2048 C2053 0.950 . S
H2049 C2054 0.949 . S
H2050 C2056 0.950 . S
H2051 C2057 0.950 . S
H2052 C2058 0.949 . S
C2053 H2048 0.950 . S
C2053 C2055 1.327 . S
C2053 C2059 1.429 . S
C2054 C2046 1.574 . S
C2054 H2049 0.949 . S
C2054 C2060 1.368 . S
C2055 C2039 1.349 . S
C2055 H2047 0.950 . S
C2055 C2053 1.327 . S
C2056 C2044 1.349 . S
C2056 H2050 0.950 . S
C2056 C2057 1.327 . S
C2057 H2051 0.950 . S
C2057 C2056 1.327 . S
C2057 C2061 1.429 . S
C2058 C2041 1.574 . S
C2058 H2052 0.949 . S
C2058 C2062 1.368 . S
C2059 C2040 1.429 . S
C2059 C2053 1.429 . S
C2059 C2060 1.523 . S
C2060 C2041 1.368 . S
C2060 C2054 1.368 . S
C2060 C2059 1.523 . S
C2061 C2045 1.429 . S
C2061 C2057 1.429 . S
C2061 C2062 1.523 . S
C2062 C2046 1.368 . S
C2062 C2058 1.368 . S
C2062 C2061 1.523 . S
H2063 C2038 0.950 . S
H2064 C2040 0.950 . S
H2065 C2041 0.949 . S
H2066 C2043 0.950 . S
H2067 C2045 0.950 . S
C2068 C2069 1.349 . S
C2068 C2070 1.327 . S
C2068 H2093 0.950 . S
C2069 C2068 1.349 . S
C2069 C2085 1.349 . S
C2070 C2068 1.327 . S
C2070 C2089 1.429 . S
C2070 H2094 0.950 . S
C2071 C2088 1.574 . S
C2071 C2090 1.368 . S
C2071 H2095 0.949 . S
H2072 C2076 0.949 . S
C2073 C2074 1.349 . S
C2073 C2075 1.327 . S
C2073 H2096 0.950 . S
C2074 C2073 1.349 . S
C2074 C2086 1.349 . S
C2075 C2073 1.327 . S
C2075 C2091 1.429 . S
C2075 H2097 0.950 . S
C2076 H2072 0.949 . S
C2076 C2084 1.574 . S
C2076 C2092 1.368 . S
H2077 C2085 0.950 . S
H2078 C2083 0.950 . S
H2079 C2084 0.949 . S
H2080 C2086 0.950 . S
H2081 C2087 0.950 . S
H2082 C2088 0.949 . S
C2083 H2078 0.950 . S
C2083 C2085 1.327 . S
C2083 C2089 1.429 . S
C2084 C2076 1.574 . S
C2084 H2079 0.949 . S
C2084 C2090 1.368 . S
C2085 C2069 1.349 . S
C2085 H2077 0.950 . S
C2085 C2083 1.327 . S
C2086 C2074 1.349 . S
C2086 H2080 0.950 . S
C2086 C2087 1.327 . S
C2087 H2081 0.950 . S
C2087 C2086 1.327 . S
C2087 C2091 1.429 . S
C2088 C2071 1.574 . S
C2088 H2082 0.949 . S
C2088 C2092 1.368 . S
C2089 C2070 1.429 . S
C2089 C2083 1.429 . S
C2089 C2090 1.523 . S
C2090 C2071 1.368 . S
C2090 C2084 1.368 . S
C2090 C2089 1.523 . S
C2091 C2075 1.429 . S
C2091 C2087 1.429 . S
C2091 C2092 1.523 . S
C2092 C2076 1.368 . S
C2092 C2088 1.368 . S
C2092 C2091 1.523 . S
H2093 C2068 0.950 . S
H2094 C2070 0.950 . S
H2095 C2071 0.949 . S
H2096 C2073 0.950 . S
H2097 C2075 0.950 . S
C2098 C2099 1.349 . S
C2098 C2100 1.327 . S
C2098 H2123 0.950 . S
C2099 C2098 1.349 . S
C2099 C2115 1.349 . S
C2100 C2098 1.327 . S
C2100 C2119 1.429 . S
C2100 H2124 0.950 . S
C2101 C2118 1.574 . S
C2101 C2120 1.368 . S
C2101 H2125 0.949 . S
H2102 C2106 0.949 . S
C2103 C2104 1.349 . S
C2103 C2105 1.327 . S
C2103 H2126 0.950 . S
C2104 C2103 1.349 . S
C2104 C2116 1.349 . S
C2105 C2103 1.327 . S
C2105 C2121 1.429 . S
C2105 H2127 0.950 . S
C2106 H2102 0.949 . S
C2106 C2114 1.574 . S
C2106 C2122 1.368 . S
H2107 C2115 0.950 . S
H2108 C2113 0.950 . S
H2109 C2114 0.949 . S
H2110 C2116 0.950 . S
H2111 C2117 0.950 . S
H2112 C2118 0.949 . S
C2113 H2108 0.950 . S
C2113 C2115 1.327 . S
C2113 C2119 1.429 . S
C2114 C2106 1.574 . S
C2114 H2109 0.949 . S
C2114 C2120 1.368 . S
C2115 C2099 1.349 . S
C2115 H2107 0.950 . S
C2115 C2113 1.327 . S
C2116 C2104 1.349 . S
C2116 H2110 0.950 . S
C2116 C2117 1.327 . S
C2117 H2111 0.950 . S
C2117 C2116 1.327 . S
C2117 C2121 1.429 . S
C2118 C2101 1.574 . S
C2118 H2112 0.949 . S
C2118 C2122 1.368 . S
C2119 C2100 1.429 . S
C2119 C2113 1.429 . S
C2119 C2120 1.523 . S
C2120 C2101 1.368 . S
C2120 C2114 1.368 . S
C2120 C2119 1.523 . S
C2121 C2105 1.429 . S
C2121 C2117 1.429 . S
C2121 C2122 1.523 . S
C2122 C2106 1.368 . S
C2122 C2118 1.368 . S
C2122 C2121 1.523 . S
H2123 C2098 0.950 . S
H2124 C2100 0.950 . S
H2125 C2101 0.949 . S
H2126 C2103 0.950 . S
H2127 C2105 0.950 . S
C2128 C2129 1.349 . S
C2128 C2130 1.327 . S
C2128 H2153 0.950 . S
C2129 C2128 1.349 . S
C2129 C2145 1.349 . S
C2130 C2128 1.327 . S
C2130 C2149 1.429 . S
C2130 H2154 0.950 . S
C2131 C2148 1.574 . S
C2131 C2150 1.368 . S
C2131 H2155 0.949 . S
H2132 C2136 0.949 . S
C2133 C2134 1.349 . S
C2133 C2135 1.327 . S
C2133 H2156 0.950 . S
C2134 C2133 1.349 . S
C2134 C2146 1.349 . S
C2135 C2133 1.327 . S
C2135 C2151 1.429 . S
C2135 H2157 0.950 . S
C2136 H2132 0.949 . S
C2136 C2144 1.574 . S
C2136 C2152 1.368 . S
H2137 C2145 0.950 . S
H2138 C2143 0.950 . S
H2139 C2144 0.949 . S
H2140 C2146 0.950 . S
H2141 C2147 0.950 . S
H2142 C2148 0.949 . S
C2143 H2138 0.950 . S
C2143 C2145 1.327 . S
C2143 C2149 1.429 . S
C2144 C2136 1.574 . S
C2144 H2139 0.949 . S
C2144 C2150 1.368 . S
C2145 C2129 1.349 . S
C2145 H2137 0.950 . S
C2145 C2143 1.327 . S
C2146 C2134 1.349 . S
C2146 H2140 0.950 . S
C2146 C2147 1.327 . S
C2147 H2141 0.950 . S
C2147 C2146 1.327 . S
C2147 C2151 1.429 . S
C2148 C2131 1.574 . S
C2148 H2142 0.949 . S
C2148 C2152 1.368 . S
C2149 C2130 1.429 . S
C2149 C2143 1.429 . S
C2149 C2150 1.523 . S
C2150 C2131 1.368 . S
C2150 C2144 1.368 . S
C2150 C2149 1.523 . S
C2151 C2135 1.429 . S
C2151 C2147 1.429 . S
C2151 C2152 1.523 . S
C2152 C2136 1.368 . S
C2152 C2148 1.368 . S
C2152 C2151 1.523 . S
H2153 C2128 0.950 . S
H2154 C2130 0.950 . S
H2155 C2131 0.949 . S
H2156 C2133 0.950 . S
H2157 C2135 0.950 . S
C2158 C2159 1.349 . S
C2158 C2160 1.327 . S
C2158 H2183 0.950 . S
C2159 C2158 1.349 . S
C2159 C2175 1.349 . S
C2160 C2158 1.327 . S
C2160 C2179 1.429 . S
C2160 H2184 0.950 . S
C2161 C2178 1.574 . S
C2161 C2180 1.368 . S
C2161 H2185 0.949 . S
H2162 C2166 0.949 . S
C2163 C2164 1.349 . S
C2163 C2165 1.327 . S
C2163 H2186 0.950 . S
C2164 C2163 1.349 . S
C2164 C2176 1.349 . S
C2165 C2163 1.327 . S
C2165 C2181 1.429 . S
C2165 H2187 0.950 . S
C2166 H2162 0.949 . S
C2166 C2174 1.574 . S
C2166 C2182 1.368 . S
H2167 C2175 0.950 . S
H2168 C2173 0.950 . S
H2169 C2174 0.949 . S
H2170 C2176 0.950 . S
H2171 C2177 0.950 . S
H2172 C2178 0.949 . S
C2173 H2168 0.950 . S
C2173 C2175 1.327 . S
C2173 C2179 1.429 . S
C2174 C2166 1.574 . S
C2174 H2169 0.949 . S
C2174 C2180 1.368 . S
C2175 C2159 1.349 . S
C2175 H2167 0.950 . S
C2175 C2173 1.327 . S
C2176 C2164 1.349 . S
C2176 H2170 0.950 . S
C2176 C2177 1.327 . S
C2177 H2171 0.950 . S
C2177 C2176 1.327 . S
C2177 C2181 1.429 . S
C2178 C2161 1.574 . S
C2178 H2172 0.949 . S
C2178 C2182 1.368 . S
C2179 C2160 1.429 . S
C2179 C2173 1.429 . S
C2179 C2180 1.523 . S
C2180 C2161 1.368 . S
C2180 C2174 1.368 . S
C2180 C2179 1.523 . S
C2181 C2165 1.429 . S
C2181 C2177 1.429 . S
C2181 C2182 1.523 . S
C2182 C2166 1.368 . S
C2182 C2178 1.368 . S
C2182 C2181 1.523 . S
H2183 C2158 0.950 . S
H2184 C2160 0.950 . S
H2185 C2161 0.949 . S
H2186 C2163 0.950 . S
H2187 C2165 0.950 . S
C2188 C2189 1.349 . S
C2188 C2190 1.327 . S
C2188 H2213 0.950 . S
C2189 C2188 1.349 . S
C2189 C2205 1.349 . S
C2190 C2188 1.327 . S
C2190 C2209 1.429 . S
C2190 H2214 0.950 . S
C2191 C2208 1.574 . S
C2191 C2210 1.368 . S
C2191 H2215 0.949 . S
H2192 C2196 0.949 . S
C2193 C2194 1.349 . S
C2193 C2195 1.327 . S
C2193 H2216 0.950 . S
C2194 C2193 1.349 . S
C2194 C2206 1.349 . S
C2195 C2193 1.327 . S
C2195 C2211 1.429 . S
C2195 H2217 0.950 . S
C2196 H2192 0.949 . S
C2196 C2204 1.574 . S
C2196 C2212 1.368 . S
H2197 C2205 0.950 . S
H2198 C2203 0.950 . S
H2199 C2204 0.949 . S
H2200 C2206 0.950 . S
H2201 C2207 0.950 . S
H2202 C2208 0.949 . S
C2203 H2198 0.950 . S
C2203 C2205 1.327 . S
C2203 C2209 1.429 . S
C2204 C2196 1.574 . S
C2204 H2199 0.949 . S
C2204 C2210 1.368 . S
C2205 C2189 1.349 . S
C2205 H2197 0.950 . S
C2205 C2203 1.327 . S
C2206 C2194 1.349 . S
C2206 H2200 0.950 . S
C2206 C2207 1.327 . S
C2207 H2201 0.950 . S
C2207 C2206 1.327 . S
C2207 C2211 1.429 . S
C2208 C2191 1.574 . S
C2208 H2202 0.949 . S
C2208 C2212 1.368 . S
C2209 C2190 1.429 . S
C2209 C2203 1.429 . S
C2209 C2210 1.523 . S
C2210 C2191 1.368 . S
C2210 C2204 1.368 . S
C2210 C2209 1.523 . S
C2211 C2195 1.429 . S
C2211 C2207 1.429 . S
C2211 C2212 1.523 . S
C2212 C2196 1.368 . S
C2212 C2208 1.368 . S
C2212 C2211 1.523 . S
H2213 C2188 0.950 . S
H2214 C2190 0.950 . S
H2215 C2191 0.949 . S
H2216 C2193 0.950 . S
H2217 C2195 0.950 . S
C2218 C2219 1.349 . S
C2218 C2220 1.327 . S
C2218 H2243 0.950 . S
C2219 C2218 1.349 . S
C2219 C2235 1.349 . S
C2220 C2218 1.327 . S
C2220 C2239 1.429 . S
C2220 H2244 0.950 . S
C2221 C2238 1.574 . S
C2221 C2240 1.368 . S
C2221 H2245 0.949 . S
H2222 C2226 0.949 . S
C2223 C2224 1.349 . S
C2223 C2225 1.327 . S
C2223 H2246 0.950 . S
C2224 C2223 1.349 . S
C2224 C2236 1.349 . S
C2225 C2223 1.327 . S
C2225 C2241 1.429 . S
C2225 H2247 0.950 . S
C2226 H2222 0.949 . S
C2226 C2234 1.574 . S
C2226 C2242 1.368 . S
H2227 C2235 0.950 . S
H2228 C2233 0.950 . S
H2229 C2234 0.949 . S
H2230 C2236 0.950 . S
H2231 C2237 0.950 . S
H2232 C2238 0.949 . S
C2233 H2228 0.950 . S
C2233 C2235 1.327 . S
C2233 C2239 1.429 . S
C2234 C2226 1.574 . S
C2234 H2229 0.949 . S
C2234 C2240 1.368 . S
C2235 C2219 1.349 . S
C2235 H2227 0.950 . S
C2235 C2233 1.327 . S
C2236 C2224 1.349 . S
C2236 H2230 0.950 . S
C2236 C2237 1.327 . S
C2237 H2231 0.950 . S
C2237 C2236 1.327 . S
C2237 C2241 1.429 . S
C2238 C2221 1.574 . S
C2238 H2232 0.949 . S
C2238 C2242 1.368 . S
C2239 C2220 1.429 . S
C2239 C2233 1.429 . S
C2239 C2240 1.523 . S
C2240 C2221 1.368 . S
C2240 C2234 1.368 . S
C2240 C2239 1.523 . S
C2241 C2225 1.429 . S
C2241 C2237 1.429 . S
C2241 C2242 1.523 . S
C2242 C2226 1.368 . S
C2242 C2238 1.368 . S
C2242 C2241 1.523 . S
H2243 C2218 0.950 . S
H2244 C2220 0.950 . S
H2245 C2221 0.949 . S
H2246 C2223 0.950 . S
H2247 C2225 0.950 . S
C2248 C2249 1.349 . S
C2248 C2250 1.327 . S
C2248 H2273 0.950 . S
C2249 C2248 1.349 . S
C2249 C2265 1.349 . S
C2250 C2248 1.327 . S
C2250 C2269 1.429 . S
C2250 H2274 0.950 . S
C2251 C2268 1.574 . S
C2251 C2270 1.368 . S
C2251 H2275 0.949 . S
H2252 C2256 0.949 . S
C2253 C2254 1.349 . S
C2253 C2255 1.327 . S
C2253 H2276 0.950 . S
C2254 C2253 1.349 . S
C2254 C2266 1.349 . S
C2255 C2253 1.327 . S
C2255 C2271 1.429 . S
C2255 H2277 0.950 . S
C2256 H2252 0.949 . S
C2256 C2264 1.574 . S
C2256 C2272 1.368 . S
H2257 C2265 0.950 . S
H2258 C2263 0.950 . S
H2259 C2264 0.949 . S
H2260 C2266 0.950 . S
H2261 C2267 0.950 . S
H2262 C2268 0.949 . S
C2263 H2258 0.950 . S
C2263 C2265 1.327 . S
C2263 C2269 1.429 . S
C2264 C2256 1.574 . S
C2264 H2259 0.949 . S
C2264 C2270 1.368 . S
C2265 C2249 1.349 . S
C2265 H2257 0.950 . S
C2265 C2263 1.327 . S
C2266 C2254 1.349 . S
C2266 H2260 0.950 . S
C2266 C2267 1.327 . S
C2267 H2261 0.950 . S
C2267 C2266 1.327 . S
C2267 C2271 1.429 . S
C2268 C2251 1.574 . S
C2268 H2262 0.949 . S
C2268 C2272 1.368 . S
C2269 C2250 1.429 . S
C2269 C2263 1.429 . S
C2269 C2270 1.523 . S
C2270 C2251 1.368 . S
C2270 C2264 1.368 . S
C2270 C2269 1.523 . S
C2271 C2255 1.429 . S
C2271 C2267 1.429 . S
C2271 C2272 1.523 . S
C2272 C2256 1.368 . S
C2272 C2268 1.368 . S
C2272 C2271 1.523 . S
H2273 C2248 0.950 . S
H2274 C2250 0.950 . S
H2275 C2251 0.949 . S
H2276 C2253 0.950 . S
H2277 C2255 0.950 . S
C2278 C2279 1.349 . S
C2278 C2280 1.327 . S
C2278 H2303 0.950 . S
C2279 C2278 1.349 . S
C2279 C2295 1.349 . S
C2280 C2278 1.327 . S
C2280 C2299 1.429 . S
C2280 H2304 0.950 . S
C2281 C2298 1.574 . S
C2281 C2300 1.368 . S
C2281 H2305 0.949 . S
H2282 C2286 0.949 . S
C2283 C2284 1.349 . S
C2283 C2285 1.327 . S
C2283 H2306 0.950 . S
C2284 C2283 1.349 . S
C2284 C2296 1.349 . S
C2285 C2283 1.327 . S
C2285 C2301 1.429 . S
C2285 H2307 0.950 . S
C2286 H2282 0.949 . S
C2286 C2294 1.574 . S
C2286 C2302 1.368 . S
H2287 C2295 0.950 . S
H2288 C2293 0.950 . S
H2289 C2294 0.949 . S
H2290 C2296 0.950 . S
H2291 C2297 0.950 . S
H2292 C2298 0.949 . S
C2293 H2288 0.950 . S
C2293 C2295 1.327 . S
C2293 C2299 1.429 . S
C2294 C2286 1.574 . S
C2294 H2289 0.949 . S
C2294 C2300 1.368 . S
C2295 C2279 1.349 . S
C2295 H2287 0.950 . S
C2295 C2293 1.327 . S
C2296 C2284 1.349 . S
C2296 H2290 0.950 . S
C2296 C2297 1.327 . S
C2297 H2291 0.950 . S
C2297 C2296 1.327 . S
C2297 C2301 1.429 . S
C2298 C2281 1.574 . S
C2298 H2292 0.949 . S
C2298 C2302 1.368 . S
C2299 C2280 1.429 . S
C2299 C2293 1.429 . S
C2299 C2300 1.523 . S
C2300 C2281 1.368 . S
C2300 C2294 1.368 . S
C2300 C2299 1.523 . S
C2301 C2285 1.429 . S
C2301 C2297 1.429 . S
C2301 C2302 1.523 . S
C2302 C2286 1.368 . S
C2302 C2298 1.368 . S
C2302 C2301 1.523 . S
H2303 C2278 0.950 . S
H2304 C2280 0.950 . S
H2305 C2281 0.949 . S
H2306 C2283 0.950 . S
H2307 C2285 0.950 . S
C2308 C2309 1.349 . S
C2308 C2310 1.327 . S
C2308 H2333 0.950 . S
C2309 C2308 1.349 . S
C2309 C2325 1.349 . S
C2310 C2308 1.327 . S
C2310 C2329 1.429 . S
C2310 H2334 0.950 . S
C2311 C2328 1.574 . S
C2311 C2330 1.368 . S
C2311 H2335 0.949 . S
H2312 C2316 0.949 . S
C2313 C2314 1.349 . S
C2313 C2315 1.327 . S
C2313 H2336 0.950 . S
C2314 C2313 1.349 . S
C2314 C2326 1.349 . S
C2315 C2313 1.327 . S
C2315 C2331 1.429 . S
C2315 H2337 0.950 . S
C2316 H2312 0.949 . S
C2316 C2324 1.574 . S
C2316 C2332 1.368 . S
H2317 C2325 0.950 . S
H2318 C2323 0.950 . S
H2319 C2324 0.949 . S
H2320 C2326 0.950 . S
H2321 C2327 0.950 . S
H2322 C2328 0.949 . S
C2323 H2318 0.950 . S
C2323 C2325 1.327 . S
C2323 C2329 1.429 . S
C2324 C2316 1.574 . S
C2324 H2319 0.949 . S
C2324 C2330 1.368 . S
C2325 C2309 1.349 . S
C2325 H2317 0.950 . S
C2325 C2323 1.327 . S
C2326 C2314 1.349 . S
C2326 H2320 0.950 . S
C2326 C2327 1.327 . S
C2327 H2321 0.950 . S
C2327 C2326 1.327 . S
C2327 C2331 1.429 . S
C2328 C2311 1.574 . S
C2328 H2322 0.949 . S
C2328 C2332 1.368 . S
C2329 C2310 1.429 . S
C2329 C2323 1.429 . S
C2329 C2330 1.523 . S
C2330 C2311 1.368 . S
C2330 C2324 1.368 . S
C2330 C2329 1.523 . S
C2331 C2315 1.429 . S
C2331 C2327 1.429 . S
C2331 C2332 1.523 . S
C2332 C2316 1.368 . S
C2332 C2328 1.368 . S
C2332 C2331 1.523 . S
H2333 C2308 0.950 . S
H2334 C2310 0.950 . S
H2335 C2311 0.949 . S
H2336 C2313 0.950 . S
H2337 C2315 0.950 . S
C2338 C2339 1.349 . S
C2338 C2340 1.327 . S
C2338 H2363 0.950 . S
C2339 C2338 1.349 . S
C2339 C2355 1.349 . S
C2340 C2338 1.327 . S
C2340 C2359 1.429 . S
C2340 H2364 0.950 . S
C2341 C2358 1.574 . S
C2341 C2360 1.368 . S
C2341 H2365 0.949 . S
H2342 C2346 0.949 . S
C2343 C2344 1.349 . S
C2343 C2345 1.327 . S
C2343 H2366 0.950 . S
C2344 C2343 1.349 . S
C2344 C2356 1.349 . S
C2345 C2343 1.327 . S
C2345 C2361 1.429 . S
C2345 H2367 0.950 . S
C2346 H2342 0.949 . S
C2346 C2354 1.574 . S
C2346 C2362 1.368 . S
H2347 C2355 0.950 . S
H2348 C2353 0.950 . S
H2349 C2354 0.949 . S
H2350 C2356 0.950 . S
H2351 C2357 0.950 . S
H2352 C2358 0.949 . S
C2353 H2348 0.950 . S
C2353 C2355 1.327 . S
C2353 C2359 1.429 . S
C2354 C2346 1.574 . S
C2354 H2349 0.949 . S
C2354 C2360 1.368 . S
C2355 C2339 1.349 . S
C2355 H2347 0.950 . S
C2355 C2353 1.327 . S
C2356 C2344 1.349 . S
C2356 H2350 0.950 . S
C2356 C2357 1.327 . S
C2357 H2351 0.950 . S
C2357 C2356 1.327 . S
C2357 C2361 1.429 . S
C2358 C2341 1.574 . S
C2358 H2352 0.949 . S
C2358 C2362 1.368 . S
C2359 C2340 1.429 . S
C2359 C2353 1.429 . S
C2359 C2360 1.523 . S
C2360 C2341 1.368 . S
C2360 C2354 1.368 . S
C2360 C2359 1.523 . S
C2361 C2345 1.429 . S
C2361 C2357 1.429 . S
C2361 C2362 1.523 . S
C2362 C2346 1.368 . S
C2362 C2358 1.368 . S
C2362 C2361 1.523 . S
H2363 C2338 0.950 . S
H2364 C2340 0.950 . S
H2365 C2341 0.949 . S
H2366 C2343 0.950 . S
H2367 C2345 0.950 . S
C449 C93 1.537 . S
C454 C9 1.537 . S
C479 C23 1.537 . S
C484 C107 1.537 . S
C509 C65 1.537 . S
C514 C37 1.537 . S
C539 C51 1.537 . S
C544 C79 1.537 . S
C569 C205 1.537 . S
C574 C121 1.537 . S
C599 C219 1.537 . S
C604 C135 1.537 . S
C629 C149 1.537 . S
C634 C177 1.537 . S
C659 C163 1.537 . S
C664 C191 1.537 . S
C689 C233 1.537 . S
C694 C317 1.537 . S
C719 C247 1.537 . S
C724 C331 1.537 . S
C749 C289 1.537 . S
C754 C261 1.537 . S
C779 C303 1.537 . S
C784 C275 1.537 . S
C809 C345 1.537 . S
C814 C429 1.537 . S
C839 C443 1.537 . S
C844 C359 1.537 . S
C869 C401 1.537 . S
C874 C373 1.537 . S
C899 C387 1.537 . S
C904 C415 1.537 . S
C929 C7 1.242 . S
C934 C428 1.259 . S
C959 C218 1.258 . S
C964 C21 1.242 . S
C989 C35 1.242 . S
C994 C400 1.258 . S
C1019 C49 1.242 . S
C1024 C190 1.258 . S
C1049 C372 1.258 . S
C1054 C63 1.242 . S
C1079 C162 1.258 . S
C1084 C77 1.242 . S
C1109 C91 1.242 . S
C1114 C344 1.259 . S
C1139 C134 1.258 . S
C1144 C105 1.242 . S
C1169 C119 1.242 . S
C1174 C316 1.259 . S
C1199 C106 1.258 . S
C1204 C133 1.242 . S
C1229 C147 1.242 . S
C1234 C288 1.258 . S
C1259 C161 1.242 . S
C1264 C78 1.258 . S
C1289 C260 1.258 . S
C1294 C175 1.242 . S
C1319 C189 1.242 . S
C1324 C50 1.258 . S
C1349 C203 1.242 . S
C1354 C232 1.259 . S
C1379 C22 1.258 . S
C1384 C217 1.242 . S
C1409 C231 1.242 . S
C1414 C204 1.258 . S
C1439 C245 1.242 . S
C1444 C442 1.258 . S
C1469 C176 1.259 . S
C1474 C259 1.242 . S
C1499 C273 1.242 . S
C1504 C414 1.258 . S
C1529 C148 1.259 . S
C1534 C287 1.242 . S
C1559 C386 1.258 . S
C1564 C301 1.242 . S
C1589 C120 1.258 . S
C1594 C315 1.242 . S
C1619 C358 1.258 . S
C1624 C329 1.242 . S
C1649 C343 1.242 . S
C1654 C92 1.258 . S
C1679 C330 1.258 . S
C1684 C357 1.242 . S
C1709 C64 1.259 . S
C1714 C371 1.242 . S
C1739 C385 1.242 . S
C1744 C302 1.258 . S
C1769 C399 1.242 . S
C1774 C36 1.259 . S
C1799 C413 1.242 . S
C1804 C274 1.258 . S
C1829 C8 1.258 . S
C1834 C427 1.242 . S
C1859 C441 1.242 . S
C1864 C246 1.258 . S
C1889 C6 1.497 . S
C1894 C300 1.497 . S
C1919 C314 1.497 . S
C1924 C20 1.497 . S
C1949 C34 1.497 . S
C1954 C328 1.497 . S
C1979 C286 1.497 . S
C1984 C48 1.497 . S
C2009 C272 1.497 . S
C2014 C62 1.497 . S
C2039 C230 1.497 . S
C2044 C76 1.497 . S
C2069 C244 1.497 . S
C2074 C90 1.497 . S
C2099 C258 1.497 . S
C2104 C104 1.497 . S
C2129 C118 1.497 . S
C2134 C412 1.497 . S
C2159 C426 1.497 . S
C2164 C132 1.497 . S
C2189 C440 1.497 . S
C2194 C146 1.497 . S
C2219 C398 1.497 . S
C2224 C160 1.497 . S
C2249 C384 1.497 . S
C2254 C174 1.497 . S
C2279 C342 1.497 . S
C2284 C188 1.497 . S
C2309 C202 1.497 . S
C2314 C356 1.497 . S
C2339 C216 1.497 . S
C2344 C370 1.497 . S
