# Generated by pormake.
# Topology umb, (4)-cn, num edge types: 1
# Building blocks:
#     Node 0, Type 0, BuildingBlock: GALJAG_clean_sbu_0, # of connection points: 4
#     Node 1, Type 0, BuildingBlock: GALJAG_clean_sbu_0, # of connection points: 4
#     Node 2, Type 0, BuildingBlock: GALJAG_clean_sbu_0, # of connection points: 4
#     Node 3, Type 0, BuildingBlock: GALJAG_clean_sbu_0, # of connection points: 4
#     Node 4, Type 0, BuildingBlock: GALJAG_clean_sbu_0, # of connection points: 4
#     Node 5, Type 0, BuildingBlock: GALJAG_clean_sbu_0, # of connection points: 4
#     Node 6, Type 0, BuildingBlock: GALJAG_clean_sbu_0, # of connection points: 4
#     Node 7, Type 0, BuildingBlock: GALJAG_clean_sbu_0, # of connection points: 4
#     Node 8, Type 0, BuildingBlock: GALJAG_clean_sbu_0, # of connection points: 4
#     Node 9, Type 0, BuildingBlock: GALJAG_clean_sbu_0, # of connection points: 4
#     Node 10, Type 0, BuildingBlock: GALJAG_clean_sbu_0, # of connection points: 4
#     Node 11, Type 0, BuildingBlock: GALJAG_clean_sbu_0, # of connection points: 4
#     Edge 12, Type (0, 0), BuildingBlock: EYOCIG_clean_linker_4, # of connection points: 2
#     Edge 13, Type (0, 0), BuildingBlock: EYOCIG_clean_linker_4, # of connection points: 2
#     Edge 14, Type (0, 0), BuildingBlock: EYOCIG_clean_linker_4, # of connection points: 2
#     Edge 15, Type (0, 0), BuildingBlock: EYOCIG_clean_linker_4, # of connection points: 2
#     Edge 16, Type (0, 0), BuildingBlock: EYOCIG_clean_linker_4, # of connection points: 2
#     Edge 17, Type (0, 0), BuildingBlock: EYOCIG_clean_linker_4, # of connection points: 2
#     Edge 18, Type (0, 0), BuildingBlock: EYOCIG_clean_linker_4, # of connection points: 2
#     Edge 19, Type (0, 0), BuildingBlock: EYOCIG_clean_linker_4, # of connection points: 2
#     Edge 20, Type (0, 0), BuildingBlock: EYOCIG_clean_linker_4, # of connection points: 2
#     Edge 21, Type (0, 0), BuildingBlock: EYOCIG_clean_linker_4, # of connection points: 2
#     Edge 22, Type (0, 0), BuildingBlock: EYOCIG_clean_linker_4, # of connection points: 2
#     Edge 23, Type (0, 0), BuildingBlock: EYOCIG_clean_linker_4, # of connection points: 2
#     Edge 24, Type (0, 0), BuildingBlock: EYOCIG_clean_linker_4, # of connection points: 2
#     Edge 25, Type (0, 0), BuildingBlock: EYOCIG_clean_linker_4, # of connection points: 2
#     Edge 26, Type (0, 0), BuildingBlock: EYOCIG_clean_linker_4, # of connection points: 2
#     Edge 27, Type (0, 0), BuildingBlock: EYOCIG_clean_linker_4, # of connection points: 2
#     Edge 28, Type (0, 0), BuildingBlock: EYOCIG_clean_linker_4, # of connection points: 2
#     Edge 29, Type (0, 0), BuildingBlock: EYOCIG_clean_linker_4, # of connection points: 2
#     Edge 30, Type (0, 0), BuildingBlock: EYOCIG_clean_linker_4, # of connection points: 2
#     Edge 31, Type (0, 0), BuildingBlock: EYOCIG_clean_linker_4, # of connection points: 2
#     Edge 32, Type (0, 0), BuildingBlock: EYOCIG_clean_linker_4, # of connection points: 2
#     Edge 33, Type (0, 0), BuildingBlock: EYOCIG_clean_linker_4, # of connection points: 2
#     Edge 34, Type (0, 0), BuildingBlock: EYOCIG_clean_linker_4, # of connection points: 2
#     Edge 35, Type (0, 0), BuildingBlock: EYOCIG_clean_linker_4, # of connection points: 2
# Relax obj value: 0.194
# Max RMSD: 0.208
# Mean RMSD: 0.208
data_MOF--net-umb--node1-GALJAG_clean_sbu_0--edge1-EYOCIG_clean_linker_4
_symmetry_space_group_name_H-M    P1
_symmetry_Int_Tables_number       1
_symmetry_cell_setting            triclinic
loop_
_symmetry_equiv_pos_as_xyz
'x, y, z'
_cell_length_a     38.021038
_cell_length_b     38.013673
_cell_length_c     29.036587
_cell_angle_alpha  89.960097
_cell_angle_beta   90.002019
_cell_angle_gamma 120.0228
loop_
_atom_site_label
_atom_site_type_symbol
_atom_site_fract_x
_atom_site_fract_y
_atom_site_fract_z
_atom_type_partial_charge
In0 In 0.50227 0.15093 0.34589 0.0
O1 O 0.52013 0.10977 0.30907 0.0
O2 O 0.46207 0.08231 0.34259 0.0
C3 C 0.56579 0.22516 0.3494 0.0
C4 C 0.5155 0.14065 0.4341 0.0
C5 C 0.4601 0.16957 0.28579 0.0
O6 O 0.56656 0.19734 0.32622 0.0
O7 O 0.53275 0.21595 0.36934 0.0
O8 O 0.44842 0.16043 0.32729 0.0
O9 O 0.49103 0.16733 0.27491 0.0
C10 C 0.48816 0.07758 0.32063 0.0
O11 O 0.48341 0.14112 0.42256 0.0
O12 O 0.53928 0.14466 0.40175 0.0
In13 In 0.33637 0.50948 0.6792 0.0
O14 O 0.32627 0.49083 0.75596 0.0
O15 O 0.37937 0.5462 0.73542 0.0
C16 C 0.27546 0.46771 0.61909 0.0
C17 C 0.39509 0.49437 0.65447 0.0
C18 C 0.32702 0.57385 0.68168 0.0
O19 O 0.27269 0.4561 0.66065 0.0
O20 O 0.30887 0.49834 0.60816 0.0
O21 O 0.35553 0.574 0.65893 0.0
O22 O 0.30264 0.54103 0.70167 0.0
C23 C 0.35897 0.52269 0.76771 0.0
O24 O 0.39539 0.52654 0.64273 0.0
O25 O 0.36405 0.4686 0.67644 0.0
In26 In 0.81155 0.34328 1.01347 0.0
O27 O 0.82062 0.33324 0.0901 0.0
O28 O 0.8189 0.38665 0.06969 0.0
C29 C 0.79169 0.2822 0.95334 0.0
C30 C 0.88527 0.40176 0.98788 0.0
C31 C 0.73817 0.33465 1.01732 0.0
O32 O 0.80093 0.27951 0.99475 0.0
O33 O 0.79433 0.31557 0.94258 0.0
O34 O 0.7664 0.3629 0.99413 0.0
O35 O 0.74649 0.31006 0.03697 0.0
C36 C 0.82197 0.36617 0.1019 0.0
O37 O 0.85335 0.40209 0.97648 0.0
O38 O 0.88007 0.37079 1.00992 0.0
In39 In 0.45323 0.81976 0.34572 0.0
O40 O 0.47131 0.82685 0.42263 0.0
O41 O 0.41748 0.82755 0.40199 0.0
C42 C 0.49451 0.7992 0.28645 0.0
C43 C 0.47074 0.89443 0.32108 0.0
C44 C 0.38665 0.74751 0.34732 0.0
O45 O 0.50561 0.80762 0.32818 0.0
O46 O 0.46458 0.80295 0.27498 0.0
O47 O 0.38827 0.77671 0.32454 0.0
O48 O 0.41883 0.7543 0.36759 0.0
C49 C 0.44024 0.82914 0.43436 0.0
O50 O 0.43828 0.8631 0.30889 0.0
O51 O 0.49564 0.8882 0.3435 0.0
In52 In 0.61863 0.46041 0.67914 0.0
O53 O 0.62861 0.47842 0.75607 0.0
O54 O 0.57508 0.42372 0.73505 0.0
C55 C 0.68024 0.50233 0.61977 0.0
C56 C 0.5607 0.4767 0.6544 0.0
C57 C 0.6266 0.39519 0.68106 0.0
O58 O 0.68278 0.51348 0.66147 0.0
O59 O 0.64675 0.47207 0.60835 0.0
O60 O 0.59857 0.39583 0.65816 0.0
O61 O 0.65123 0.42765 0.70144 0.0
C62 C 0.59559 0.44679 0.76754 0.0
O63 O 0.56006 0.44445 0.64232 0.0
O64 O 0.59172 0.50199 0.67671 0.0
In65 In 0.14241 0.62553 1.01268 0.0
O66 O 0.10017 0.567 0.97558 0.0
O67 O 0.07394 0.59849 1.00964 0.0
C68 C 0.2157 0.63396 1.01647 0.0
C69 C 0.13218 0.60209 0.10091 0.0
C70 C 0.16249 0.68687 0.9528 0.0
O71 O 0.18748 0.60585 0.99314 0.0
O72 O 0.20741 0.65852 0.03621 0.0
O73 O 0.15324 0.68943 0.99424 0.0
O74 O 0.15974 0.65348 0.94187 0.0
C75 C 0.06843 0.56752 0.98737 0.0
O76 O 0.13374 0.63521 0.08948 0.0
O77 O 0.13489 0.58166 0.06842 0.0
In78 In 0.81168 0.46064 0.39297 0.0
O79 O 0.82116 0.47903 0.31615 0.0
O80 O 0.81815 0.42348 0.33746 0.0
C81 C 0.79275 0.50253 0.45305 0.0
C82 C 0.88526 0.47547 0.41829 0.0
C83 C 0.73754 0.39701 0.38952 0.0
O84 O 0.80187 0.51429 0.41155 0.0
O85 O 0.79514 0.47167 0.46392 0.0
O86 O 0.76542 0.3963 0.41271 0.0
O87 O 0.74667 0.43002 0.36954 0.0
C88 C 0.82184 0.44698 0.3049 0.0
O89 O 0.85324 0.44335 0.42993 0.0
O90 O 0.88023 0.50131 0.39616 0.0
In91 In 0.33611 0.81912 0.72584 0.0
O92 O 0.39485 0.86104 0.7628 0.0
O93 O 0.36361 0.88766 0.72893 0.0
C94 C 0.32657 0.74538 0.72223 0.0
C95 C 0.35954 0.82912 0.63763 0.0
C96 C 0.27508 0.79955 0.78592 0.0
O97 O 0.35497 0.77343 0.74542 0.0
O98 O 0.30231 0.75408 0.70245 0.0
O99 O 0.27247 0.80882 0.74448 0.0
O100 O 0.30838 0.80208 0.79674 0.0
C101 C 0.39454 0.89293 0.75111 0.0
O102 O 0.32666 0.82805 0.64903 0.0
O103 O 0.37975 0.82602 0.67013 0.0
In104 In 0.50142 0.34315 0.05938 0.0
O105 O 0.48319 0.33306 0.9825 0.0
O106 O 0.53807 0.3865 1.0033 0.0
C107 C 0.45956 0.28166 0.11894 0.0
C108 C 0.48547 0.40132 0.08403 0.0
C109 C 0.56654 0.33506 0.05759 0.0
O110 O 0.44836 0.27904 0.07724 0.0
O111 O 0.48981 0.31519 0.13026 0.0
O112 O 0.56597 0.36318 0.08037 0.0
O113 O 0.53407 0.31044 0.03723 0.0
C114 C 0.51486 0.36599 0.97089 0.0
O115 O 0.51769 0.40185 0.09603 0.0
O116 O 0.46004 0.37029 0.06184 0.0
In117 In 0.14257 0.50946 0.39291 0.0
O118 O 0.09999 0.52527 0.43002 0.0
O119 O 0.0741 0.46762 0.39591 0.0
C120 C 0.21502 0.57571 0.38974 0.0
C121 C 0.13239 0.52169 0.30427 0.0
C122 C 0.16315 0.46826 0.45238 0.0
O123 O 0.18625 0.57457 0.41291 0.0
O124 O 0.20776 0.5432 0.36994 0.0
O125 O 0.15412 0.45674 0.41085 0.0
O126 O 0.16004 0.49862 0.46358 0.0
C127 C 0.06837 0.49291 0.41821 0.0
O128 O 0.1346 0.49062 0.31622 0.0
O129 O 0.13443 0.54482 0.33643 0.0
In130 In 0.61846 0.15016 0.72582 0.0
O131 O 0.6286 0.14135 0.64918 0.0
O132 O 0.57504 0.14272 0.66961 0.0
C133 C 0.67953 0.17007 0.786 0.0
C134 C 0.56019 0.07623 0.75117 0.0
C135 C 0.62691 0.2235 0.72196 0.0
O136 O 0.68226 0.1609 0.74459 0.0
O137 O 0.64612 0.16735 0.79675 0.0
O138 O 0.59869 0.19521 0.74514 0.0
O139 O 0.65156 0.21525 0.70236 0.0
C140 C 0.59561 0.13987 0.63738 0.0
O141 O 0.55969 0.10804 0.76269 0.0
O142 O 0.59124 0.08164 0.72915 0.0
In143 In 0.45225 0.62541 0.05994 0.0
O144 O 0.47055 0.63576 0.98308 0.0
O145 O 0.41566 0.58222 1.00378 0.0
C146 C 0.49418 0.6866 0.11972 0.0
C147 C 0.46807 0.56709 0.08435 0.0
C148 C 0.38717 0.63358 0.05809 0.0
O149 O 0.50542 0.68937 0.07802 0.0
O150 O 0.46381 0.65308 0.13092 0.0
O151 O 0.38766 0.60538 0.08083 0.0
O152 O 0.41972 0.65829 0.03788 0.0
C153 C 0.4389 0.60284 0.97142 0.0
O154 O 0.43589 0.56659 0.09645 0.0
O155 O 0.49353 0.59817 0.0622 0.0
C156 C 0.54244 0.13571 0.51594 0.0
C157 C 0.52653 0.13756 0.48069 0.0
C158 C 0.56445 0.1356 0.55529 0.0
C159 C 0.58201 0.13726 0.59064 0.0
C160 C 0.38991 0.54978 0.84985 0.0
C161 C 0.37252 0.53384 0.81445 0.0
C162 C 0.4118 0.57177 0.88932 0.0
C163 C 0.4277 0.58923 0.9247 0.0
C164 C 0.82646 0.41959 0.22322 0.0
C165 C 0.82472 0.43565 0.25839 0.0
C166 C 0.82647 0.39746 0.18395 0.0
C167 C 0.82472 0.37984 0.14864 0.0
C168 C 0.41309 0.83297 0.51646 0.0
C169 C 0.42901 0.83135 0.48111 0.0
C170 C 0.39105 0.8331 0.55578 0.0
C171 C 0.37343 0.83159 0.59102 0.0
C172 C 0.54215 0.39726 0.88887 0.0
C173 C 0.52615 0.37971 0.9242 0.0
C174 C 0.56422 0.41934 0.84949 0.0
C175 C 0.5818 0.43538 0.81419 0.0
C176 C 0.12818 0.54846 0.22208 0.0
C177 C 0.12991 0.53263 0.25746 0.0
C178 C 0.12808 0.57053 0.18276 0.0
C179 C 0.12968 0.58822 0.14753 0.0
C180 C 0.6672 0.33157 0.37454 0.0
C181 C 0.69944 0.36133 0.38159 0.0
C182 C 0.63116 0.29554 0.36445 0.0
C183 C 0.60142 0.26329 0.35739 0.0
C184 C 0.32269 0.67561 0.70659 0.0
C185 C 0.32477 0.70761 0.71399 0.0
C186 C 0.32288 0.63972 0.69625 0.0
C187 C 0.32519 0.60988 0.68925 0.0
C188 C 0.63296 0.33184 0.04354 0.0
C189 C 0.60296 0.33388 0.05044 0.0
C190 C 0.66882 0.33159 1.03319 0.0
C191 C 0.70064 0.33332 1.02566 0.0
C192 C 0.31916 0.67898 0.36227 0.0
C193 C 0.34951 0.71062 0.35476 0.0
C194 C 0.28337 0.64304 0.37341 0.0
C195 C 0.25189 0.61266 0.38141 0.0
C196 C 0.62966 0.32868 0.6954 0.0
C197 C 0.62768 0.35872 0.68836 0.0
C198 C 0.62986 0.29281 0.70593 0.0
C199 C 0.62814 0.26099 0.71356 0.0
C200 C 0.2849 0.63683 1.03275 0.0
C201 C 0.25312 0.6351 1.02496 0.0
C202 C 0.32073 0.63665 0.04349 0.0
C203 C 0.35074 0.63467 0.05064 0.0
C204 C 0.48181 0.00561 0.31078 0.0
C205 C 0.48461 0.03842 0.31533 0.0
C206 C 0.47946 0.96737 0.31103 0.0
C207 C 0.47595 0.93428 0.31589 0.0
C208 C 0.46018 0.48713 0.64454 0.0
C209 C 0.43035 0.49022 0.6492 0.0
C210 C 0.49602 0.48468 0.64454 0.0
C211 C 0.52571 0.48133 0.64922 0.0
C212 C 0.9576 0.46683 0.97741 0.0
C213 C 0.92468 0.437 0.98231 0.0
C214 C -0.00412 0.5027 0.9773 0.0
C215 C 0.02888 0.53244 0.98205 0.0
C216 C -0.00428 0.48485 0.4284 0.0
C217 C 0.02874 0.4882 0.42356 0.0
C218 C 0.95746 0.48245 0.42847 0.0
C219 C 0.92457 0.47942 0.42373 0.0
C220 C 0.49533 0.0037 0.76139 0.0
C221 C 0.52507 0.03671 0.7566 0.0
C222 C 0.4595 0.96537 0.76138 0.0
C223 C 0.42974 0.93238 0.75658 0.0
C224 C 0.47558 0.50213 0.09393 0.0
C225 C 0.47246 0.53195 0.08938 0.0
C226 C 0.47788 0.46621 0.09385 0.0
C227 C 0.48103 0.43641 0.08918 0.0
C228 C 0.43563 0.20181 0.22159 0.0
C229 C 0.44341 0.1865 0.25376 0.0
C230 C 0.43556 0.22466 0.18279 0.0
C231 C 0.4432 0.24784 0.15073 0.0
C232 C 0.19606 0.4441 0.51613 0.0
C233 C 0.18055 0.45186 0.48417 0.0
C234 C 0.21885 0.44388 0.55489 0.0
C235 C 0.24185 0.45138 0.58707 0.0
C236 C 0.75895 0.2256 0.88911 0.0
C237 C 0.77444 0.24862 0.92127 0.0
C238 C 0.73612 0.20279 0.85027 0.0
C239 C 0.71308 0.18732 0.81811 0.0
C240 C 0.51836 0.74329 0.18384 0.0
C241 C 0.51064 0.72025 0.15167 0.0
C242 C 0.51838 0.76611 0.22267 0.0
C243 C 0.51074 0.78164 0.2547 0.0
C244 C 0.73733 0.52657 0.55604 0.0
C245 C 0.71409 0.5188 0.58804 0.0
C246 C 0.76027 0.52668 0.51725 0.0
C247 C 0.77568 0.51906 0.48508 0.0
C248 C 0.19542 0.74376 0.8888 0.0
C249 C 0.17985 0.72058 0.92085 0.0
C250 C 0.21834 0.76673 0.85004 0.0
C251 C 0.24143 0.78228 0.81793 0.0
loop_
_geom_bond_atom_site_label_1
_geom_bond_atom_site_label_2
_geom_bond_distance
_geom_bond_site_symmetry_2
_ccdc_geom_bond_type
In0 O1 2.294 . S
In0 O2 2.326 . S
In0 O6 2.266 . S
In0 O7 2.326 . S
In0 O8 2.266 . S
In0 O9 2.326 . S
In0 O11 2.294 . S
In0 O12 2.326 . S
O1 In0 2.294 . S
O1 C10 1.240 . S
O2 In0 2.326 . S
O2 C10 1.252 . S
C3 O6 1.252 . S
C3 O7 1.260 . S
C4 O11 1.240 . S
C4 O12 1.252 . S
C5 O8 1.252 . S
C5 O9 1.260 . S
O6 In0 2.266 . S
O6 C3 1.252 . S
O7 In0 2.326 . S
O7 C3 1.260 . S
O8 In0 2.266 . S
O8 C5 1.252 . S
O9 In0 2.326 . S
O9 C5 1.260 . S
C10 O1 1.240 . S
C10 O2 1.252 . S
O11 In0 2.294 . S
O11 C4 1.240 . S
O12 In0 2.326 . S
O12 C4 1.252 . S
In13 O14 2.294 . S
In13 O15 2.326 . S
In13 O19 2.266 . S
In13 O20 2.326 . S
In13 O21 2.266 . S
In13 O22 2.326 . S
In13 O24 2.294 . S
In13 O25 2.326 . S
O14 In13 2.294 . S
O14 C23 1.240 . S
O15 In13 2.326 . S
O15 C23 1.252 . S
C16 O19 1.252 . S
C16 O20 1.260 . S
C17 O24 1.240 . S
C17 O25 1.252 . S
C18 O21 1.252 . S
C18 O22 1.260 . S
O19 In13 2.266 . S
O19 C16 1.252 . S
O20 In13 2.326 . S
O20 C16 1.260 . S
O21 In13 2.266 . S
O21 C18 1.252 . S
O22 In13 2.326 . S
O22 C18 1.260 . S
C23 O14 1.240 . S
C23 O15 1.252 . S
O24 In13 2.294 . S
O24 C17 1.240 . S
O25 In13 2.326 . S
O25 C17 1.252 . S
In26 O27 2.296 1_556 S
In26 O28 2.329 1_556 S
In26 O32 2.265 . S
In26 O33 2.323 . S
In26 O34 2.265 . S
In26 O35 2.326 1_556 S
In26 O37 2.293 . S
In26 O38 2.326 1_556 S
O27 In26 2.296 1_554 S
O27 C36 1.240 . S
O28 In26 2.329 1_554 S
O28 C36 1.252 . S
C29 O32 1.252 . S
C29 O33 1.260 . S
C30 O37 1.240 . S
C30 O38 1.252 1_556 S
C31 O34 1.252 . S
C31 O35 1.260 1_556 S
O32 In26 2.265 . S
O32 C29 1.252 . S
O33 In26 2.323 . S
O33 C29 1.260 . S
O34 In26 2.265 . S
O34 C31 1.252 . S
O35 In26 2.326 1_554 S
O35 C31 1.260 1_554 S
C36 O27 1.240 . S
C36 O28 1.252 . S
O37 In26 2.293 . S
O37 C30 1.240 . S
O38 In26 2.326 1_554 S
O38 C30 1.252 1_554 S
In39 O40 2.294 . S
In39 O41 2.326 . S
In39 O45 2.266 . S
In39 O46 2.326 . S
In39 O47 2.266 . S
In39 O48 2.326 . S
In39 O50 2.294 . S
In39 O51 2.326 . S
O40 In39 2.294 . S
O40 C49 1.240 . S
O41 In39 2.326 . S
O41 C49 1.252 . S
C42 O45 1.252 . S
C42 O46 1.260 . S
C43 O50 1.240 . S
C43 O51 1.252 . S
C44 O47 1.252 . S
C44 O48 1.260 . S
O45 In39 2.266 . S
O45 C42 1.252 . S
O46 In39 2.326 . S
O46 C42 1.260 . S
O47 In39 2.266 . S
O47 C44 1.252 . S
O48 In39 2.326 . S
O48 C44 1.260 . S
C49 O40 1.240 . S
C49 O41 1.252 . S
O50 In39 2.294 . S
O50 C43 1.240 . S
O51 In39 2.326 . S
O51 C43 1.252 . S
In52 O53 2.294 . S
In52 O54 2.326 . S
In52 O58 2.266 . S
In52 O59 2.326 . S
In52 O60 2.266 . S
In52 O61 2.326 . S
In52 O63 2.294 . S
In52 O64 2.326 . S
O53 In52 2.294 . S
O53 C62 1.240 . S
O54 In52 2.326 . S
O54 C62 1.252 . S
C55 O58 1.252 . S
C55 O59 1.260 . S
C56 O63 1.240 . S
C56 O64 1.252 . S
C57 O60 1.252 . S
C57 O61 1.260 . S
O58 In52 2.266 . S
O58 C55 1.252 . S
O59 In52 2.326 . S
O59 C55 1.260 . S
O60 In52 2.266 . S
O60 C57 1.252 . S
O61 In52 2.326 . S
O61 C57 1.260 . S
C62 O53 1.240 . S
C62 O54 1.252 . S
O63 In52 2.294 . S
O63 C56 1.240 . S
O64 In52 2.326 . S
O64 C56 1.252 . S
In65 O66 2.293 . S
In65 O67 2.326 1_556 S
In65 O71 2.265 . S
In65 O72 2.326 1_556 S
In65 O73 2.265 . S
In65 O74 2.323 . S
In65 O76 2.296 1_556 S
In65 O77 2.329 1_556 S
O66 In65 2.293 . S
O66 C75 1.240 . S
O67 In65 2.326 1_554 S
O67 C75 1.252 1_554 S
C68 O71 1.252 . S
C68 O72 1.260 1_556 S
C69 O76 1.240 . S
C69 O77 1.252 . S
C70 O73 1.252 . S
C70 O74 1.260 . S
O71 In65 2.265 . S
O71 C68 1.252 . S
O72 In65 2.326 1_554 S
O72 C68 1.260 1_554 S
O73 In65 2.265 . S
O73 C70 1.252 . S
O74 In65 2.323 . S
O74 C70 1.260 . S
C75 O66 1.240 . S
C75 O67 1.252 1_556 S
O76 In65 2.296 1_554 S
O76 C69 1.240 . S
O77 In65 2.329 1_554 S
O77 C69 1.252 . S
In78 O79 2.294 . S
In78 O80 2.326 . S
In78 O84 2.266 . S
In78 O85 2.326 . S
In78 O86 2.266 . S
In78 O87 2.326 . S
In78 O89 2.294 . S
In78 O90 2.326 . S
O79 In78 2.294 . S
O79 C88 1.240 . S
O80 In78 2.326 . S
O80 C88 1.252 . S
C81 O84 1.252 . S
C81 O85 1.260 . S
C82 O89 1.240 . S
C82 O90 1.252 . S
C83 O86 1.252 . S
C83 O87 1.260 . S
O84 In78 2.266 . S
O84 C81 1.252 . S
O85 In78 2.326 . S
O85 C81 1.260 . S
O86 In78 2.266 . S
O86 C83 1.252 . S
O87 In78 2.326 . S
O87 C83 1.260 . S
C88 O79 1.240 . S
C88 O80 1.252 . S
O89 In78 2.294 . S
O89 C82 1.240 . S
O90 In78 2.326 . S
O90 C82 1.252 . S
In91 O92 2.294 . S
In91 O93 2.326 . S
In91 O97 2.266 . S
In91 O98 2.326 . S
In91 O99 2.266 . S
In91 O100 2.326 . S
In91 O102 2.294 . S
In91 O103 2.326 . S
O92 In91 2.294 . S
O92 C101 1.240 . S
O93 In91 2.326 . S
O93 C101 1.252 . S
C94 O97 1.252 . S
C94 O98 1.260 . S
C95 O102 1.240 . S
C95 O103 1.252 . S
C96 O99 1.252 . S
C96 O100 1.260 . S
O97 In91 2.266 . S
O97 C94 1.252 . S
O98 In91 2.326 . S
O98 C94 1.260 . S
O99 In91 2.266 . S
O99 C96 1.252 . S
O100 In91 2.326 . S
O100 C96 1.260 . S
C101 O92 1.240 . S
C101 O93 1.252 . S
O102 In91 2.294 . S
O102 C95 1.240 . S
O103 In91 2.326 . S
O103 C95 1.252 . S
In104 O105 2.294 1_554 S
In104 O106 2.326 1_554 S
In104 O110 2.266 . S
In104 O111 2.326 . S
In104 O112 2.266 . S
In104 O113 2.324 1_554 S
In104 O115 2.294 . S
In104 O116 2.326 . S
O105 In104 2.294 1_556 S
O105 C114 1.240 . S
O106 In104 2.326 1_556 S
O106 C114 1.252 . S
C107 O110 1.252 . S
C107 O111 1.260 . S
C108 O115 1.240 . S
C108 O116 1.252 . S
C109 O112 1.252 . S
C109 O113 1.250 1_554 S
O110 In104 2.266 . S
O110 C107 1.252 . S
O111 In104 2.326 . S
O111 C107 1.260 . S
O112 In104 2.266 . S
O112 C109 1.252 . S
O113 In104 2.324 1_556 S
O113 C109 1.250 1_556 S
C114 O105 1.240 . S
C114 O106 1.252 . S
O115 In104 2.294 . S
O115 C108 1.240 . S
O116 In104 2.326 . S
O116 C108 1.252 . S
In117 O118 2.294 . S
In117 O119 2.326 . S
In117 O123 2.266 . S
In117 O124 2.326 . S
In117 O125 2.266 . S
In117 O126 2.326 . S
In117 O128 2.294 . S
In117 O129 2.326 . S
O118 In117 2.294 . S
O118 C127 1.240 . S
O119 In117 2.326 . S
O119 C127 1.252 . S
C120 O123 1.252 . S
C120 O124 1.260 . S
C121 O128 1.240 . S
C121 O129 1.252 . S
C122 O125 1.252 . S
C122 O126 1.260 . S
O123 In117 2.266 . S
O123 C120 1.252 . S
O124 In117 2.326 . S
O124 C120 1.260 . S
O125 In117 2.266 . S
O125 C122 1.252 . S
O126 In117 2.326 . S
O126 C122 1.260 . S
C127 O118 1.240 . S
C127 O119 1.252 . S
O128 In117 2.294 . S
O128 C121 1.240 . S
O129 In117 2.326 . S
O129 C121 1.252 . S
In130 O131 2.294 . S
In130 O132 2.326 . S
In130 O136 2.266 . S
In130 O137 2.326 . S
In130 O138 2.266 . S
In130 O139 2.326 . S
In130 O141 2.294 . S
In130 O142 2.326 . S
O131 In130 2.294 . S
O131 C140 1.240 . S
O132 In130 2.326 . S
O132 C140 1.252 . S
C133 O136 1.252 . S
C133 O137 1.260 . S
C134 O141 1.240 . S
C134 O142 1.252 . S
C135 O138 1.252 . S
C135 O139 1.260 . S
O136 In130 2.266 . S
O136 C133 1.252 . S
O137 In130 2.326 . S
O137 C133 1.260 . S
O138 In130 2.266 . S
O138 C135 1.252 . S
O139 In130 2.326 . S
O139 C135 1.260 . S
C140 O131 1.240 . S
C140 O132 1.252 . S
O141 In130 2.294 . S
O141 C134 1.240 . S
O142 In130 2.326 . S
O142 C134 1.252 . S
In143 O144 2.294 1_554 S
In143 O145 2.326 1_554 S
In143 O149 2.266 . S
In143 O150 2.326 . S
In143 O151 2.266 . S
In143 O152 2.324 1_554 S
In143 O154 2.294 . S
In143 O155 2.326 . S
O144 In143 2.294 1_556 S
O144 C153 1.240 . S
O145 In143 2.326 1_556 S
O145 C153 1.252 . S
C146 O149 1.252 . S
C146 O150 1.260 . S
C147 O154 1.240 . S
C147 O155 1.252 . S
C148 O151 1.252 . S
C148 O152 1.250 1_554 S
O149 In143 2.266 . S
O149 C146 1.252 . S
O150 In143 2.326 . S
O150 C146 1.260 . S
O151 In143 2.266 . S
O151 C148 1.252 . S
O152 In143 2.324 1_556 S
O152 C148 1.250 1_556 S
C153 O144 1.240 . S
C153 O145 1.252 . S
O154 In143 2.294 . S
O154 C147 1.240 . S
O155 In143 2.326 . S
O155 C147 1.252 . S
C156 C157 1.170 . S
C156 C158 1.380 . S
C157 C156 1.170 . S
C158 C156 1.380 . S
C158 C159 1.170 . S
C159 C158 1.170 . S
C160 C161 1.170 . S
C160 C162 1.380 . S
C161 C160 1.170 . S
C162 C160 1.380 . S
C162 C163 1.170 . S
C163 C162 1.170 . S
C164 C165 1.170 . S
C164 C166 1.380 . S
C165 C164 1.170 . S
C166 C164 1.380 . S
C166 C167 1.170 . S
C167 C166 1.170 . S
C168 C169 1.170 . S
C168 C170 1.380 . S
C169 C168 1.170 . S
C170 C168 1.380 . S
C170 C171 1.170 . S
C171 C170 1.170 . S
C172 C173 1.170 . S
C172 C174 1.380 . S
C173 C172 1.170 . S
C174 C172 1.380 . S
C174 C175 1.170 . S
C175 C174 1.170 . S
C176 C177 1.170 . S
C176 C178 1.380 . S
C177 C176 1.170 . S
C178 C176 1.380 . S
C178 C179 1.170 . S
C179 C178 1.170 . S
C180 C181 1.170 . S
C180 C182 1.380 . S
C181 C180 1.170 . S
C182 C180 1.380 . S
C182 C183 1.170 . S
C183 C182 1.170 . S
C184 C185 1.170 . S
C184 C186 1.380 . S
C185 C184 1.170 . S
C186 C184 1.380 . S
C186 C187 1.170 . S
C187 C186 1.170 . S
C188 C189 1.170 . S
C188 C190 1.378 1_554 S
C189 C188 1.170 . S
C190 C188 1.378 1_556 S
C190 C191 1.172 . S
C191 C190 1.172 . S
C192 C193 1.170 . S
C192 C194 1.380 . S
C193 C192 1.170 . S
C194 C192 1.380 . S
C194 C195 1.170 . S
C195 C194 1.170 . S
C196 C197 1.170 . S
C196 C198 1.380 . S
C197 C196 1.170 . S
C198 C196 1.380 . S
C198 C199 1.170 . S
C199 C198 1.170 . S
C200 C201 1.170 . S
C200 C202 1.380 1_556 S
C201 C200 1.170 . S
C202 C200 1.380 1_554 S
C202 C203 1.170 . S
C203 C202 1.170 . S
C204 C205 1.170 . S
C204 C206 1.380 1_545 S
C205 C204 1.170 . S
C206 C204 1.380 1_565 S
C206 C207 1.170 . S
C207 C206 1.170 . S
C208 C209 1.170 . S
C208 C210 1.380 . S
C209 C208 1.170 . S
C210 C208 1.380 . S
C210 C211 1.170 . S
C211 C210 1.170 . S
C212 C213 1.170 . S
C212 C214 1.380 1_655 S
C213 C212 1.170 . S
C214 C212 1.380 1_455 S
C214 C215 1.170 . S
C215 C214 1.170 . S
C216 C217 1.170 . S
C216 C218 1.380 1_455 S
C217 C216 1.170 . S
C218 C216 1.380 1_655 S
C218 C219 1.170 . S
C219 C218 1.170 . S
C220 C221 1.170 . S
C220 C222 1.380 1_545 S
C221 C220 1.170 . S
C222 C220 1.380 1_565 S
C222 C223 1.170 . S
C223 C222 1.170 . S
C224 C225 1.170 . S
C224 C226 1.380 . S
C225 C224 1.170 . S
C226 C224 1.380 . S
C226 C227 1.170 . S
C227 C226 1.170 . S
C228 C229 1.170 . S
C228 C230 1.380 . S
C229 C228 1.170 . S
C230 C228 1.380 . S
C230 C231 1.170 . S
C231 C230 1.170 . S
C232 C233 1.170 . S
C232 C234 1.380 . S
C233 C232 1.170 . S
C234 C232 1.380 . S
C234 C235 1.170 . S
C235 C234 1.170 . S
C236 C237 1.170 . S
C236 C238 1.380 . S
C237 C236 1.170 . S
C238 C236 1.380 . S
C238 C239 1.170 . S
C239 C238 1.170 . S
C240 C241 1.170 . S
C240 C242 1.380 . S
C241 C240 1.170 . S
C242 C240 1.380 . S
C242 C243 1.170 . S
C243 C242 1.170 . S
C244 C245 1.170 . S
C244 C246 1.380 . S
C245 C244 1.170 . S
C246 C244 1.380 . S
C246 C247 1.170 . S
C247 C246 1.170 . S
C248 C249 1.170 . S
C248 C250 1.380 . S
C249 C248 1.170 . S
C250 C248 1.380 . S
C250 C251 1.170 . S
C251 C250 1.170 . S
C157 C4 1.636 . S
C159 C140 1.691 . S
C161 C23 1.688 . S
C163 C153 1.636 . S
C165 C88 1.637 . S
C167 C36 1.688 . S
C169 C49 1.688 . S
C171 C95 1.646 . S
C173 C114 1.667 . S
C175 C62 1.652 . S
C177 C121 1.692 . S
C179 C69 1.640 . S
C181 C83 0.899 . S
C183 C3 0.903 . S
C185 C94 0.886 . S
C187 C18 0.925 . S
C189 C109 0.926 . S
C191 C31 0.885 . S
C193 C44 0.926 . S
C195 C120 0.907 . S
C197 C57 0.925 . S
C199 C135 0.886 . S
C201 C68 0.889 . S
C203 C148 0.933 . S
C205 C10 1.560 . S
C207 C43 1.582 . S
C209 C17 1.564 . S
C211 C56 1.582 . S
C213 C30 1.568 . S
C215 C75 1.568 . S
C217 C127 1.560 . S
C219 C82 1.582 . S
C221 C134 1.579 . S
C223 C101 1.561 . S
C225 C147 1.563 . S
C227 C108 1.575 . S
C229 C5 1.787 . S
C231 C107 1.787 . S
C233 C122 1.791 . S
C235 C16 1.791 . S
C237 C29 1.814 . S
C239 C133 1.813 . S
C241 C146 1.812 . S
C243 C42 1.812 . S
C245 C55 1.806 . S
C247 C81 1.806 . S
C249 C70 1.789 . S
C251 C96 1.788 . S
