# Generated by pormake.
# Topology fna, (5)-cn, num edge types: 1
# Building blocks:
#     Node 0, Type 0, BuildingBlock: XOMCOT_clean_sbu_0, # of connection points: 5
#     Node 1, Type 0, BuildingBlock: XOMCOT_clean_sbu_0, # of connection points: 5
#     Node 2, Type 0, BuildingBlock: XOMCOT_clean_sbu_0, # of connection points: 5
#     Node 3, Type 0, BuildingBlock: XOMCOT_clean_sbu_0, # of connection points: 5
#     Node 4, Type 0, BuildingBlock: XOMCOT_clean_sbu_0, # of connection points: 5
#     Node 5, Type 0, BuildingBlock: XOMCOT_clean_sbu_0, # of connection points: 5
#     Node 6, Type 0, BuildingBlock: XOMCOT_clean_sbu_0, # of connection points: 5
#     Node 7, Type 0, BuildingBlock: XOMCOT_clean_sbu_0, # of connection points: 5
#     Node 8, Type 0, BuildingBlock: XOMCOT_clean_sbu_0, # of connection points: 5
#     Node 9, Type 0, BuildingBlock: XOMCOT_clean_sbu_0, # of connection points: 5
#     Node 10, Type 0, BuildingBlock: XOMCOT_clean_sbu_0, # of connection points: 5
#     Node 11, Type 0, BuildingBlock: XOMCOT_clean_sbu_0, # of connection points: 5
#     Edge 12, Type (0, 0), BuildingBlock: AJUNOK_clean_linker_0, # of connection points: 2
#     Edge 13, Type (0, 0), BuildingBlock: AJUNOK_clean_linker_0, # of connection points: 2
#     Edge 14, Type (0, 0), BuildingBlock: AJUNOK_clean_linker_0, # of connection points: 2
#     Edge 15, Type (0, 0), BuildingBlock: AJUNOK_clean_linker_0, # of connection points: 2
#     Edge 16, Type (0, 0), BuildingBlock: AJUNOK_clean_linker_0, # of connection points: 2
#     Edge 17, Type (0, 0), BuildingBlock: AJUNOK_clean_linker_0, # of connection points: 2
#     Edge 18, Type (0, 0), BuildingBlock: AJUNOK_clean_linker_0, # of connection points: 2
#     Edge 19, Type (0, 0), BuildingBlock: AJUNOK_clean_linker_0, # of connection points: 2
#     Edge 20, Type (0, 0), BuildingBlock: AJUNOK_clean_linker_0, # of connection points: 2
#     Edge 21, Type (0, 0), BuildingBlock: AJUNOK_clean_linker_0, # of connection points: 2
#     Edge 22, Type (0, 0), BuildingBlock: AJUNOK_clean_linker_0, # of connection points: 2
#     Edge 23, Type (0, 0), BuildingBlock: AJUNOK_clean_linker_0, # of connection points: 2
#     Edge 24, Type (0, 0), BuildingBlock: AJUNOK_clean_linker_0, # of connection points: 2
#     Edge 25, Type (0, 0), BuildingBlock: AJUNOK_clean_linker_0, # of connection points: 2
#     Edge 26, Type (0, 0), BuildingBlock: AJUNOK_clean_linker_0, # of connection points: 2
#     Edge 27, Type (0, 0), BuildingBlock: AJUNOK_clean_linker_0, # of connection points: 2
#     Edge 28, Type (0, 0), BuildingBlock: AJUNOK_clean_linker_0, # of connection points: 2
#     Edge 29, Type (0, 0), BuildingBlock: AJUNOK_clean_linker_0, # of connection points: 2
#     Edge 30, Type (0, 0), BuildingBlock: AJUNOK_clean_linker_0, # of connection points: 2
#     Edge 31, Type (0, 0), BuildingBlock: AJUNOK_clean_linker_0, # of connection points: 2
#     Edge 32, Type (0, 0), BuildingBlock: AJUNOK_clean_linker_0, # of connection points: 2
#     Edge 33, Type (0, 0), BuildingBlock: AJUNOK_clean_linker_0, # of connection points: 2
#     Edge 34, Type (0, 0), BuildingBlock: AJUNOK_clean_linker_0, # of connection points: 2
#     Edge 35, Type (0, 0), BuildingBlock: AJUNOK_clean_linker_0, # of connection points: 2
#     Edge 36, Type (0, 0), BuildingBlock: AJUNOK_clean_linker_0, # of connection points: 2
#     Edge 37, Type (0, 0), BuildingBlock: AJUNOK_clean_linker_0, # of connection points: 2
#     Edge 38, Type (0, 0), BuildingBlock: AJUNOK_clean_linker_0, # of connection points: 2
#     Edge 39, Type (0, 0), BuildingBlock: AJUNOK_clean_linker_0, # of connection points: 2
#     Edge 40, Type (0, 0), BuildingBlock: AJUNOK_clean_linker_0, # of connection points: 2
#     Edge 41, Type (0, 0), BuildingBlock: AJUNOK_clean_linker_0, # of connection points: 2
# Relax obj value: 0.321
# Max RMSD: 0.213
# Mean RMSD: 0.213
data_MOF--net-fna--node1-XOMCOT_clean_sbu_0--edge1-AJUNOK_clean_linker_0
_symmetry_space_group_name_H-M    P1
_symmetry_Int_Tables_number       1
_symmetry_cell_setting            triclinic
loop_
_symmetry_equiv_pos_as_xyz
'x, y, z'
_cell_length_a     34.482425
_cell_length_b     34.490678
_cell_length_c     35.977307
_cell_angle_alpha  90.126372
_cell_angle_beta   89.808726
_cell_angle_gamma 120.10871
loop_
_atom_site_label
_atom_site_type_symbol
_atom_site_fract_x
_atom_site_fract_y
_atom_site_fract_z
_atom_type_partial_charge
Co0 Co 0.34848 0.28504 0.49225 0.0
C1 C 0.33656 0.22844 0.42595 0.0
C2 C 0.27365 0.2194 0.44504 0.0
C3 C 0.26581 0.19037 0.4158 0.0
N4 N 0.31819 0.24424 0.45088 0.0
N5 N 0.30543 0.19609 0.40379 0.0
H6 H 0.37168 0.23861 0.42505 0.0
H7 H 0.24829 0.22027 0.46217 0.0
C8 C 0.27387 0.30915 0.47676 0.0
O9 O 0.27324 0.30487 0.44045 0.0
N10 N 0.37989 0.32459 0.53297 0.0
C11 C 0.42455 0.34569 0.5383 0.0
C12 C 0.43367 0.36214 0.57388 0.0
C13 C 0.36239 0.32825 0.56532 0.0
N14 N 0.39455 0.35133 0.5908 0.0
C15 C 0.42527 0.33162 0.44517 0.0
C16 C 0.4237 0.41084 0.44192 0.0
C17 C 0.46252 0.41085 0.4301 0.0
C18 C 0.4624 0.37012 0.43097 0.0
C19 C 0.38745 0.3717 0.45636 0.0
N20 N 0.38883 0.33284 0.45867 0.0
H21 H 0.42798 0.30205 0.44875 0.0
H22 H 0.36013 0.37415 0.46835 0.0
H23 H 0.44861 0.34602 0.51881 0.0
H24 H 0.32682 0.31211 0.57073 0.0
O25 O 0.38285 0.25511 0.50276 0.0
O26 O 0.31679 0.23728 0.52646 0.0
O27 O 0.30257 0.30513 0.49618 0.0
C28 C 0.35114 0.23165 0.52682 0.0
H29 H 0.23326 0.16494 0.40581 0.0
H30 H 0.46626 0.37773 0.58694 0.0
H31 H 0.42215 0.44144 0.44176 0.0
H32 H 0.49198 0.36854 0.42337 0.0
Co33 Co 0.07913 0.34229 0.65418 0.0
C34 C 0.13245 0.32798 0.59575 0.0
C35 C 0.06382 0.30045 0.57965 0.0
C36 C 0.08712 0.29535 0.55052 0.0
N37 N 0.09216 0.3208 0.60815 0.0
N38 N 0.13044 0.31302 0.56053 0.0
H39 H 0.16311 0.34507 0.61163 0.0
H40 H 0.02882 0.29091 0.57952 0.0
C41 C 0.97431 0.27115 0.64597 0.0
O42 O 0.96008 0.28828 0.62052 0.0
N43 N 0.06771 0.36505 0.69932 0.0
C44 C 0.09047 0.40825 0.70999 0.0
C45 C 0.07673 0.41149 0.745 0.0
C46 C 0.04019 0.34247 0.72776 0.0
N47 N 0.04513 0.37018 0.7563 0.0
C48 C 0.0984 0.41351 0.60324 0.0
C49 C 1.02525 0.42196 0.62281 0.0
C50 C 0.05847 0.45462 0.6 0.0
C51 C 0.09486 0.44954 0.58935 0.0
C52 C 0.02976 0.38628 0.63565 0.0
N53 N 0.06644 0.3829 0.62651 0.0
H54 H 0.12806 0.41154 0.59703 0.0
H55 H 1.00544 0.36334 0.65536 0.0
H56 H 0.11623 0.43533 0.69373 0.0
H57 H 1.01732 0.30676 0.72731 0.0
O58 O 0.14308 0.3807 0.66535 0.0
O59 O 0.09979 0.31022 0.68279 0.0
O60 O 1.01541 0.29127 0.65554 0.0
C61 C 0.13781 0.34701 0.68582 0.0
H62 H 0.07297 0.27944 0.52417 0.0
H63 H 0.09025 0.44186 0.76139 0.0
H64 H 0.99682 0.42492 0.6318 0.0
H65 H 0.12154 0.4745 0.57218 0.0
Co66 Co 0.75427 0.06598 0.82341 0.0
C67 C 0.81834 0.12072 0.76307 0.0
C68 C 0.81984 0.06035 0.77359 0.0
C69 C 0.85153 0.08472 0.74695 0.0
N70 N 0.7983 0.08238 0.78345 0.0
N71 N 0.85085 0.12285 0.74047 0.0
H72 H 0.81141 0.14783 0.76619 0.0
H73 H 0.81488 0.02977 0.78604 0.0
C74 C 0.73378 0.96729 0.80798 0.0
O75 O 0.72606 0.96427 0.77206 0.0
N76 N 0.71123 0.0509 0.86303 0.0
C77 C 0.67933 0.06246 0.86556 0.0
C78 C 0.65944 0.05007 0.89992 0.0
C79 C 0.71105 0.0326 0.89603 0.0
N80 N 0.67953 0.03144 0.91907 0.0
C81 C 0.70752 0.08904 0.7704 0.0
C82 C 0.62776 1.00846 0.77539 0.0
C83 C 0.62761 0.04532 0.75934 0.0
C84 C 0.66844 0.08543 0.75543 0.0
C85 C 0.66772 1.01319 0.78937 0.0
N86 N 0.70662 0.05368 0.78822 0.0
H87 H 0.73735 0.12157 0.77094 0.0
H88 H 0.66592 0.98571 0.80501 0.0
H89 H 0.67213 0.08027 0.84452 0.0
H90 H 0.73563 0.02348 0.90383 0.0
O91 O 0.77643 0.1291 0.83572 0.0
O92 O 0.80088 0.08596 0.859 0.0
O93 O 0.74239 1.00268 0.82575 0.0
C94 C 0.80126 0.12357 0.8602 0.0
H95 H 0.87419 0.07555 0.73403 0.0
H96 H 0.63319 0.05566 0.91041 0.0
H97 H 0.59675 0.97702 0.77914 0.0
H98 H 0.6695 0.11486 0.7437 0.0
Co99 Co 0.71116 0.74723 0.9847 0.0
C100 C 0.73157 0.81729 0.92775 0.0
C101 C 0.74484 0.76664 0.90741 0.0
C102 C 0.74959 0.79486 0.87835 0.0
N103 N 0.73344 0.78063 0.93845 0.0
N104 N 0.74136 0.82672 0.89128 0.0
H105 H 0.72078 0.83539 0.94557 0.0
H106 H 0.74695 0.73651 0.90538 0.0
C107 C 0.77712 0.70924 0.97418 0.0
O108 O 0.75613 0.67902 0.94826 0.0
N109 N 0.68697 0.71397 0.02993 0.0
C110 C 0.64302 0.6928 0.03852 0.0
C111 C 0.63765 0.67784 0.0743 0.0
C112 C 0.70804 0.7119 0.06061 0.0
N113 N 0.67841 0.6899 0.08828 0.0
C114 C 0.63924 0.6959 0.93416 0.0
C115 C 0.62609 0.61324 0.9561 0.0
C116 C 0.59385 0.61489 0.93374 0.0
C117 C 0.60143 0.65673 0.92159 0.0
C118 C 0.66356 0.65301 0.96763 0.0
N119 N 0.66925 0.6937 0.95745 0.0
H120 H 0.64301 0.72808 0.92714 0.0
H121 H 0.68585 0.651 0.98755 0.0
H122 H 0.61681 0.68991 0.02028 0.0
H123 H 0.744 0.72663 0.06256 0.0
O124 O 0.67418 0.7745 0.99528 0.0
O125 O 0.7442 0.80039 0.01298 0.0
O126 O 0.76159 0.73352 0.98636 0.0
C127 C 0.70799 0.80259 0.0159 0.0
H128 H 0.75751 0.79164 0.84977 0.0
H129 H 0.60624 0.66096 0.0894 0.0
H130 H 0.62131 0.58148 0.96601 0.0
H131 H 0.57702 0.65919 0.90441 0.0
Co132 Co 0.97534 0.69724 0.15478 0.0
C133 C 0.92579 0.70311 0.08955 0.0
C134 C 0.99242 0.75966 0.09164 0.0
C135 C 0.9698 0.76541 0.06249 0.0
N136 N 0.96488 0.72041 0.10865 0.0
N137 N 0.92799 0.72966 0.06105 0.0
H138 H 0.89545 0.67279 0.09739 0.0
H139 H 0.02598 0.7836 0.10047 0.0
C140 C 0.07978 0.76793 0.14749 0.0
O141 O 0.09147 0.75323 0.11827 0.0
N142 N 0.98372 0.67342 0.20023 0.0
C143 C 0.96207 0.62967 0.20974 0.0
C144 C 0.97025 0.62626 0.24657 0.0
C145 C 1.00472 0.69614 0.23112 0.0
N146 N 0.99689 0.66798 0.25957 0.0
C147 C 0.95851 0.62592 0.1042 0.0
C148 C 0.03227 0.61933 0.12474 0.0
C149 C 1.0001 0.58648 0.10143 0.0
C150 C 0.96338 0.59061 0.09041 0.0
C151 C 0.02654 0.6545 0.13737 0.0
N152 N 0.98966 0.65714 0.12759 0.0
H153 H 0.92825 0.62645 0.09789 0.0
H154 H 0.05007 0.67763 0.15739 0.0
H155 H 0.94028 0.60241 0.19152 0.0
H156 H 1.0233 0.73232 0.23328 0.0
O157 O 0.91068 0.65875 0.16328 0.0
O158 O 0.95314 0.72884 0.18232 0.0
O159 O 0.03924 0.74793 0.15887 0.0
C160 C 0.91441 0.69263 0.18264 0.0
H161 H 0.98275 0.79425 0.04431 0.0
H162 H 0.95694 0.59584 0.26285 0.0
H163 H 0.0608 0.61695 0.1342 0.0
H164 H 0.93732 0.56531 0.07307 0.0
Co165 Co 0.29716 0.96998 0.32558 0.0
C166 C 0.24016 0.92419 0.25958 0.0
C167 C 0.22348 0.9702 0.28491 0.0
C168 C 0.19224 0.94644 0.25795 0.0
N169 N 0.25438 0.95722 0.28552 0.0
N170 N 0.20232 0.91707 0.24208 0.0
H171 H 0.25455 0.90294 0.25599 0.0
H172 H 0.22195 0.99325 0.30448 0.0
C173 C 0.31362 0.06493 0.30811 0.0
O174 O 0.29857 0.05589 0.27389 0.0
N175 N 0.33816 0.98054 0.36553 0.0
C176 C 0.35926 0.95735 0.37247 0.0
C177 C 0.37435 0.96546 0.4085 0.0
C178 C 0.34075 1.00244 0.39719 0.0
N179 N 0.36199 0.9932 0.42412 0.0
C180 C 0.34271 0.93653 0.28103 0.0
C181 C 0.42006 0.0181 0.27086 0.0
C182 C 0.42141 0.97871 0.26413 0.0
C183 C 0.38138 0.93762 0.26766 0.0
C184 C 0.3808 1.01557 0.28458 0.0
N185 N 0.34322 0.97502 0.29102 0.0
H186 H 0.3137 0.9043 0.28682 0.0
H187 H 0.38225 0.04639 0.29245 0.0
H188 H 0.36023 0.93317 0.35396 0.0
H189 H 0.32507 0.02259 0.40083 0.0
O190 O 0.26706 0.90627 0.33837 0.0
O191 O 0.25091 0.95602 0.36124 0.0
O192 O 0.31891 0.03656 0.32687 0.0
C193 C 0.24457 0.91576 0.36243 0.0
H194 H 0.16281 0.94892 0.25198 0.0
H195 H 0.39017 0.94954 0.42292 0.0
H196 H 0.4497 0.0507 0.26725 0.0
H197 H 0.38063 0.90626 0.26275 0.0
Co198 Co 0.75615 0.6963 0.3433 0.0
C199 C 0.81647 0.70513 0.40563 0.0
C200 C 0.80772 0.76236 0.40238 0.0
C201 C 0.83761 0.76925 0.43053 0.0
N202 N 0.79423 0.72202 0.38678 0.0
N203 N 0.84293 0.73315 0.43271 0.0
H204 H 0.81521 0.67405 0.39851 0.0
H205 H 0.79797 0.78606 0.39331 0.0
C206 C 0.72101 0.76752 0.35304 0.0
O207 O 0.6984 0.7589 0.38431 0.0
N208 N 0.71896 0.66948 0.30055 0.0
C209 C 0.69619 0.62516 0.29338 0.0
C210 C 0.68371 0.61892 0.25678 0.0
C211 C 0.7201 0.68969 0.26836 0.0
N212 N 0.69925 0.6595 0.24099 0.0
C213 C 0.70907 0.61913 0.38977 0.0
C214 C 0.62693 0.61497 0.38561 0.0
C215 C 0.62871 0.57808 0.39955 0.0
C216 C 0.67049 0.5808 0.4025 0.0
C217 C 0.6661 0.65226 0.37251 0.0
N218 N 0.70643 0.65373 0.37405 0.0
H219 H 0.74041 0.61925 0.38965 0.0
H220 H 0.66298 0.67777 0.35794 0.0
H221 H 0.69189 0.59927 0.31264 0.0
H222 H 0.73741 0.72561 0.26489 0.0
O223 O 0.78585 0.66208 0.33011 0.0
O224 O 0.80604 0.73059 0.31177 0.0
O225 O 0.73813 0.74372 0.34316 0.0
C226 C 0.81142 0.69628 0.3088 0.0
H227 H 0.85484 0.79898 0.44763 0.0
H228 H 0.66691 0.58709 0.24234 0.0
H229 H 0.59505 0.61362 0.3823 0.0
H230 H 0.67298 0.55267 0.41288 0.0
Co231 Co 0.07818 0.75295 0.5136 0.0
C232 C 0.12838 0.81066 0.57775 0.0
C233 C 0.06044 0.79685 0.57773 0.0
C234 C 0.08324 0.82626 0.60636 0.0
N235 N 0.08873 0.78694 0.55967 0.0
N236 N 0.12592 0.83483 0.60628 0.0
H237 H 0.15914 0.81193 0.56936 0.0
H238 H 0.02609 0.78517 0.57007 0.0
C239 C 0.97487 0.71727 0.52131 0.0
O240 O 0.96593 0.68932 0.54904 0.0
N241 N 0.06971 0.72034 0.46815 0.0
C242 C 0.08987 0.69659 0.45957 0.0
C243 C 0.08097 0.68342 0.42314 0.0
C244 C 0.049 0.72163 0.43699 0.0
N245 N 0.05532 0.69914 0.40919 0.0
C246 C 0.09269 0.69867 0.56564 0.0
C247 C 1.02299 0.61756 0.54087 0.0
C248 C 0.05488 0.61759 0.56483 0.0
C249 C 0.08914 0.65868 0.57834 0.0
C250 C 0.02738 0.6582 0.52926 0.0
N251 N 0.06253 0.69822 0.5409 0.0
H252 H 0.12165 0.7299 0.57361 0.0
H253 H 1.00466 0.65737 0.50826 0.0
H254 H 0.11088 0.69066 0.47824 0.0
H255 H 0.03173 0.74041 0.4342 0.0
O256 O 0.14238 0.77706 0.50623 0.0
O257 O 0.10268 0.80725 0.48603 0.0
O258 O 1.01477 0.74123 0.50904 0.0
C259 C 0.14055 0.80796 0.4866 0.0
H260 H 0.06976 0.84107 0.62522 0.0
H261 H 0.09306 0.66453 0.4078 0.0
H262 H 0.99607 0.58641 0.52982 0.0
H263 H 0.11466 0.65997 0.59663 0.0
Co264 Co 0.35078 0.06989 0.68021 0.0
C265 C 0.3418 0.12116 0.74319 0.0
C266 C 0.28753 0.05323 0.74292 0.0
C267 C 0.27989 0.07637 0.77059 0.0
N268 N 0.32645 0.08123 0.72555 0.0
N269 N 0.31394 0.11911 0.77063 0.0
H270 H 0.3716 0.15183 0.73504 0.0
H271 H 0.26486 0.01886 0.73533 0.0
C272 C 0.28009 0.96712 0.6891 0.0
O273 O 0.29727 0.95751 0.71773 0.0
N274 N 0.37621 0.0609 0.63559 0.0
C275 C 0.4204 0.08208 0.62796 0.0
C276 C 0.42614 0.07283 0.59203 0.0
C277 C 0.35547 0.03891 0.60435 0.0
N278 N 0.38539 0.04587 0.57707 0.0
C279 C 0.41983 0.08496 0.73237 0.0
C280 C 0.4282 1.01294 0.70903 0.0
C281 C 0.46142 0.04549 0.73174 0.0
C282 C 0.45627 0.08102 0.7446 0.0
C283 C 0.39213 0.01778 0.69787 0.0
N284 N 0.38889 0.05413 0.70859 0.0
H285 H 0.41845 0.11461 0.73969 0.0
H286 H 0.3693 0.99457 0.67752 0.0
H287 H 0.44656 0.1042 0.64688 0.0
H288 H 0.31946 0.01884 0.60182 0.0
O289 O 0.39118 0.13413 0.67236 0.0
O290 O 0.32154 0.09373 0.65145 0.0
O291 O 0.29869 1.0067 0.67581 0.0
C292 C 0.35865 0.13169 0.65202 0.0
H293 H 0.2508 0.06306 0.78861 0.0
H294 H 0.45789 0.08651 0.57755 0.0
H295 H 0.43146 0.98534 0.69826 0.0
H296 H 0.48173 0.10706 0.76187 0.0
Co297 Co 0.29556 0.34129 0.84189 0.0
C298 C 0.23071 0.3309 0.90117 0.0
C299 C 0.2504 0.28145 0.90724 0.0
C300 C 0.21962 0.27503 0.93475 0.0
N301 N 0.25743 0.3166 0.88601 0.0
N302 N 0.20695 0.30598 0.93075 0.0
H303 H 0.22918 0.35959 0.89113 0.0
H304 H 0.26578 0.26119 0.90305 0.0
C305 C 0.32832 0.27142 0.85223 0.0
O306 O 0.35501 0.2895 0.88085 0.0
N307 N 0.33262 0.36748 0.79863 0.0
C308 C 0.35539 0.41183 0.7917 0.0
C309 C 0.37404 0.41873 0.75703 0.0
C310 C 0.33759 0.34777 0.7681 0.0
N311 N 0.36333 0.37857 0.74233 0.0
C312 C 0.34594 0.40866 0.89646 0.0
C313 C 0.42822 0.41914 0.87635 0.0
C314 C 0.42708 0.45104 0.89968 0.0
C315 C 0.38529 0.44478 0.91077 0.0
C316 C 0.38825 0.38336 0.86307 0.0
N317 N 0.34775 0.37901 0.87232 0.0
H318 H 0.31427 0.40654 0.90258 0.0
H319 H 0.39023 0.36159 0.84248 0.0
H320 H 0.35679 0.4373 0.81015 0.0
H321 H 0.32188 0.31185 0.7645 0.0
O322 O 0.27241 0.38191 0.83264 0.0
O323 O 0.24407 0.31266 0.81101 0.0
O324 O 0.30669 0.2891 0.83855 0.0
C325 C 0.24334 0.34979 0.81127 0.0
H326 H 0.20666 0.24878 0.95551 0.0
H327 H 0.39191 0.45074 0.74303 0.0
H328 H 0.45988 0.42304 0.86699 0.0
H329 H 0.38312 0.46918 0.92833 0.0
Co330 Co 0.96603 0.28544 0.0087 0.0
C331 C 0.9198 0.22951 0.0746 0.0
C332 C 0.97928 0.2271 0.06228 0.0
C333 C 0.95636 0.19712 0.09059 0.0
N334 N 0.95689 0.24832 0.05264 0.0
N335 N 0.91868 0.19834 0.09805 0.0
H336 H 0.89265 0.23641 0.07211 0.0
H337 H 1.0082 0.23009 0.04796 0.0
C338 C 0.0659 0.31 0.01731 0.0
O339 O 0.06814 0.31654 0.05341 0.0
N340 N 0.97251 0.32062 0.96529 0.0
C341 C 0.95696 0.34919 0.96092 0.0
C342 C 0.96146 0.36153 0.92418 0.0
C343 C 0.9854 0.31525 0.93134 0.0
N344 N 0.97901 0.33985 0.90557 0.0
C345 C 0.95421 0.34041 0.06232 0.0
C346 C 0.0311 0.41911 0.04307 0.0
C347 C 0.99903 0.42127 0.06555 0.0
C348 C 0.96106 0.38123 0.07638 0.0
C349 C 1.02339 0.37756 0.03015 0.0
N350 N 0.98463 0.33891 0.03885 0.0
H351 H 0.92266 0.31064 0.06788 0.0
H352 H 0.04659 0.37721 0.01015 0.0
H353 H 0.94174 0.35893 0.98259 0.0
H354 H 0.99846 0.29316 0.92585 0.0
O355 O 0.90168 0.26269 0.00495 0.0
O356 O 0.939 0.2326 0.97893 0.0
O357 O 0.02952 0.29829 0.99977 0.0
C358 C 0.90161 0.23248 0.98296 0.0
H359 H 0.96497 0.17373 0.10273 0.0
H360 H 0.95127 0.38364 0.91192 0.0
H361 H 0.06071 0.44947 0.03394 0.0
H362 H 0.93528 0.38171 0.09333 0.0
Co363 Co 0.69913 0.96264 0.17116 0.0
C364 C 0.71125 0.9161 0.23626 0.0
C365 C 0.77377 0.96886 0.21529 0.0
C366 C 0.78245 0.94591 0.24213 0.0
N367 N 0.7291 0.95107 0.21202 0.0
N368 N 0.74317 0.91214 0.25496 0.0
H369 H 0.67598 0.89162 0.23795 0.0
H370 H 0.79855 0.99467 0.1975 0.0
C371 C 0.77579 0.06037 0.1873 0.0
O372 O 0.77972 0.05503 0.22295 0.0
N373 N 0.6692 0.97267 0.13036 0.0
C374 C 0.62567 0.96126 0.12773 0.0
C375 C 0.61791 0.97115 0.09248 0.0
C376 C 0.68706 0.98844 0.09665 0.0
N377 N 0.65647 0.98779 0.07325 0.0
C378 C 0.62305 0.93327 0.21888 0.0
C379 C 0.62609 1.01483 0.22287 0.0
C380 C 0.58687 0.97605 0.23396 0.0
C381 C 0.58619 0.93513 0.23306 0.0
C382 C 0.66207 1.0115 0.20843 0.0
N383 N 0.65971 0.97081 0.20536 0.0
H384 H 0.62 0.90081 0.2154 0.0
H385 H 0.68974 0.04124 0.1967 0.0
H386 H 0.60069 0.94539 0.14923 0.0
H387 H 0.72137 0.99904 0.08907 0.0
O388 O 0.66338 0.89838 0.16067 0.0
O389 O 0.73019 0.94558 0.1369 0.0
O390 O 0.74555 0.02858 0.16796 0.0
C391 C 0.69588 0.9055 0.13792 0.0
H392 H 0.81537 0.9524 0.25024 0.0
H393 H 0.58614 0.96478 0.08128 0.0
H394 H 0.6277 0.04701 0.2227 0.0
H395 H 0.55644 0.9044 0.24137 0.0
C396 C 0.3261 0.1702 0.61839 0.0
C397 C 0.36375 0.16583 0.62492 0.0
C398 C 0.32249 0.19055 0.58621 0.0
C399 C 0.35647 0.20771 0.55888 0.0
H400 H 0.29802 0.15576 0.63759 0.0
H401 H 0.29222 0.19232 0.58279 0.0
S402 S 0.46306 0.20604 0.56341 0.0
N403 N 0.43646 0.18099 0.60215 0.0
N404 N 0.43023 0.22058 0.54147 0.0
C405 C 0.39525 0.20505 0.56561 0.0
C406 C 0.39884 0.18398 0.59873 0.0
C407 C 0.15075 0.31493 0.74276 0.0
C408 C 0.16691 0.35124 0.71774 0.0
C409 C 0.17406 0.31694 0.77489 0.0
C410 C 0.21492 0.35515 0.78367 0.0
H411 H 0.11956 0.2841 0.73769 0.0
H412 H 0.16073 0.28738 0.79235 0.0
S413 S 0.27208 0.46014 0.72871 0.0
N414 N 0.2259 0.42766 0.70498 0.0
N415 N 0.27083 0.43081 0.76544 0.0
C416 C 0.2313 0.39241 0.75979 0.0
C417 C 0.20713 0.39053 0.72677 0.0
C418 C 0.82996 0.13338 0.92459 0.0
C419 C 0.82143 0.15249 0.89323 0.0
C420 C 0.85141 0.15882 0.956 0.0
C421 C 0.86473 0.20431 0.95772 0.0
H422 H 0.82131 0.09853 0.92467 0.0
H423 H 0.86022 0.14342 0.97817 0.0
S424 S 0.84695 0.26998 0.88515 0.0
N425 N 0.82502 0.21913 0.86719 0.0
N426 N 0.86548 0.26726 0.92682 0.0
C427 C 0.85379 0.22338 0.92787 0.0
C428 C 0.83205 0.19738 0.89546 0.0
C429 C 0.66444 0.83041 0.05329 0.0
C430 C 0.70371 0.82816 0.0475 0.0
C431 C 0.65991 0.8525 0.08465 0.0
C432 C 0.69424 0.87233 0.11131 0.0
H433 H 0.63745 0.81572 0.03325 0.0
H434 H 0.63047 0.85597 0.08709 0.0
S435 S 0.8017 0.87273 0.11158 0.0
N436 N 0.77647 0.84596 0.07314 0.0
N437 N 0.76702 0.88635 0.1314 0.0
C438 C 0.73259 0.86882 0.10665 0.0
C439 C 0.73761 0.84706 0.07492 0.0
C440 C 0.85714 0.65188 0.23283 0.0
C441 C 0.88111 0.68987 0.21004 0.0
C442 C 0.83547 0.65399 0.26556 0.0
C443 C 0.83794 0.69437 0.27681 0.0
H444 H 0.85683 0.62106 0.2263 0.0
H445 H 0.81699 0.624 0.28217 0.0
S446 S 0.8966 0.80299 0.22588 0.0
N447 N 0.90419 0.76797 0.19989 0.0
N448 N 0.86689 0.7732 0.2618 0.0
C449 C 0.8617 0.7323 0.25376 0.0
C450 C 0.88219 0.72965 0.22024 0.0
C451 C 0.20176 0.90361 0.42099 0.0
C452 C 0.21981 0.88681 0.39449 0.0
C453 C 0.17994 0.87936 0.45281 0.0
C454 C 0.17522 0.83724 0.45979 0.0
H455 H 0.20388 0.93575 0.41709 0.0
H456 H 0.16486 0.89291 0.47138 0.0
S457 S 0.21767 0.7784 0.40054 0.0
N458 N 0.23309 0.82589 0.37835 0.0
N459 N 0.19121 0.77981 0.43845 0.0
C460 C 0.19438 0.82045 0.43449 0.0
C461 C 0.21672 0.84527 0.40171 0.0
C462 C 0.33961 0.1504 0.38553 0.0
C463 C 0.31188 0.16825 0.3771 0.0
C464 C 0.34189 0.11892 0.36198 0.0
C465 C 0.31713 0.10445 0.3286 0.0
H466 H 0.35802 0.15918 0.41143 0.0
H467 H 0.36219 0.10472 0.37065 0.0
S468 S 0.24312 0.14495 0.29208 0.0
N469 N 0.26175 0.17184 0.3319 0.0
N470 N 0.26634 0.11338 0.28739 0.0
C471 C 0.29125 0.1241 0.3189 0.0
C472 C 0.28845 0.15565 0.34322 0.0
C473 C 0.23485 0.30881 0.53621 0.0
C474 C 0.23803 0.31344 0.49711 0.0
C475 C 0.2003 0.30944 0.55651 0.0
C476 C 0.16682 0.31449 0.53886 0.0
H477 H 0.25867 0.30351 0.55156 0.0
H478 H 0.19917 0.30468 0.58631 0.0
S479 S 0.16102 0.33192 0.43757 0.0
N480 N 0.20534 0.32582 0.44183 0.0
N481 N 0.14068 0.3274 0.47998 0.0
C482 C 0.16994 0.32033 0.4999 0.0
C483 C 0.20536 0.31974 0.47911 0.0
C484 C 0.86618 0.18148 0.69317 0.0
C485 C 0.88157 0.15968 0.71696 0.0
C486 C 0.89583 0.21639 0.66927 0.0
C487 C 0.94216 0.23124 0.66858 0.0
H488 H 0.83089 0.17111 0.6928 0.0
H489 H 0.88244 0.23239 0.65179 0.0
S490 S 0.9994 0.18617 0.72712 0.0
N491 N 0.94618 0.15653 0.73936 0.0
N492 N 1.00154 0.22086 0.69464 0.0
C493 C 0.95771 0.20951 0.6925 0.0
C494 C 0.9276 0.17417 0.71662 0.0
C495 C 0.71858 0.88758 0.8145 0.0
C496 C 0.73671 0.93131 0.8289 0.0
C497 C 0.72058 0.85359 0.83473 0.0
C498 C 0.74046 0.86194 0.87022 0.0
H499 H 0.70227 0.87937 0.78764 0.0
H500 H 0.70571 0.8203 0.82286 0.0
S501 S 0.79767 0.97136 0.9188 0.0
N502 N 0.77907 0.98146 0.87993 0.0
N503 N 0.78146 0.91752 0.91758 0.0
C504 C 0.75955 0.90551 0.88452 0.0
C505 C 0.75806 0.94014 0.86397 0.0
C506 C 0.84911 0.75555 0.00867 0.0
C507 C 0.81788 0.71394 0.99291 0.0
C508 C 0.88545 0.7606 0.02998 0.0
C509 C 0.89173 0.72407 0.03723 0.0
H510 H 0.84513 0.78453 0.00492 0.0
H511 H 0.90804 0.79311 0.04192 0.0
S512 S 0.82069 0.60821 0.00192 0.0
N513 N 0.79673 0.63572 0.98533 0.0
N514 N 0.8646 0.64514 0.02594 0.0
C515 C 0.86127 0.68242 0.02129 0.0
C516 C 0.8246 0.6774 0.99894 0.0
C517 C 0.12652 0.86122 0.21997 0.0
C518 C 0.17336 0.88052 0.21735 0.0
C519 C 0.09734 0.82583 0.19685 0.0
C520 C 0.11322 0.80754 0.1697 0.0
H521 H 0.11193 0.87294 0.24065 0.0
H522 H 0.0617 0.81254 0.20067 0.0
S523 S 0.23318 0.84657 0.1505 0.0
N524 N 0.23456 0.87935 0.18466 0.0
N525 N 0.1796 0.81231 0.1413 0.0
C526 C 0.16009 0.82673 0.16638 0.0
C527 C 0.19007 0.86307 0.19021 0.0
C528 C 0.94875 0.7615 0.48468 0.0
C529 C 0.93864 0.72066 0.50163 0.0
C530 C 0.91717 0.76537 0.46285 0.0
C531 C 0.87428 0.72836 0.45627 0.0
H532 H 0.98164 0.79084 0.48805 0.0
H533 H 0.92685 0.79742 0.45017 0.0
S534 S 0.83047 0.61388 0.49426 0.0
N535 N 0.88207 0.64246 0.51067 0.0
N536 N 0.82294 0.64963 0.46915 0.0
C537 C 0.86348 0.68734 0.47318 0.0
C538 C 0.89549 0.68356 0.49603 0.0
C539 C 0.22904 0.8876 0.66725 0.0
C540 C 0.23831 0.93215 0.67073 0.0
C541 C 0.19219 0.85582 0.64623 0.0
C542 C 0.16267 0.86714 0.6288 0.0
H543 H 0.25125 0.87764 0.67973 0.0
H544 H 0.1867 0.82216 0.64349 0.0
S545 S 0.17129 0.97864 0.62996 0.0
N546 N 0.21421 0.98545 0.65514 0.0
N547 N 0.14508 0.9257 0.61657 0.0
C548 C 0.17098 0.91114 0.6328 0.0
C549 C 0.20872 0.9436 0.65351 0.0
C550 C 0.35993 0.22271 0.83123 0.0
C551 C 0.32353 0.23043 0.83371 0.0
C552 C 0.3568 0.18647 0.81042 0.0
C553 C 0.31686 0.15602 0.79213 0.0
H554 H 0.39147 0.2456 0.84447 0.0
H555 H 0.38571 0.18206 0.80869 0.0
S556 S 0.21176 0.16069 0.79025 0.0
N557 N 0.24617 0.204 0.81606 0.0
N558 N 0.24036 0.1361 0.77783 0.0
C559 C 0.28012 0.16294 0.79495 0.0
C560 C 0.28345 0.20004 0.81549 0.0
C561 C 0.1345 0.30147 0.01214 0.0
C562 C 0.10483 0.3134 0.99593 0.0
C563 C 0.16799 0.29956 0.99085 0.0
C564 C 0.17356 0.30999 0.95257 0.0
H565 H 0.13093 0.29211 0.0412 0.0
H566 H 0.1896 0.28963 0.00446 0.0
S567 S 0.10599 0.34552 0.8972 0.0
N568 N 0.08523 0.33844 0.93964 0.0
N569 N 0.14642 0.33327 0.89968 0.0
C570 C 0.14478 0.32305 0.93632 0.0
C571 C 0.11093 0.32513 0.95796 0.0
C572 C 0.85564 0.12337 0.17936 0.0
C573 C 0.81089 0.10053 0.16688 0.0
C574 C 0.89051 0.15592 0.15709 0.0
C575 C 0.88199 0.16754 0.12174 0.0
H576 H 0.86419 0.11457 0.20574 0.0
H577 H 0.92458 0.17165 0.1673 0.0
S578 S 0.77054 0.11909 0.07662 0.0
N579 N 0.76 0.09348 0.11722 0.0
N580 N 0.8252 0.15397 0.07566 0.0
C581 C 0.83724 0.14613 0.10951 0.0
C582 C 0.80186 0.11287 0.13199 0.0
C583 C 0.7037 0.85817 0.30664 0.0
C584 C 0.73721 0.8757 0.27894 0.0
C585 C 0.69894 0.82381 0.33091 0.0
C586 C 0.72716 0.80518 0.32816 0.0
H587 H 0.68145 0.8716 0.30988 0.0
H588 H 0.67266 0.81148 0.35171 0.0
S589 S 0.81915 0.83846 0.25925 0.0
N590 N 0.79764 0.87038 0.24925 0.0
N591 N 0.79011 0.80774 0.29507 0.0
C592 C 0.76061 0.82248 0.30033 0.0
C593 C 0.76524 0.85713 0.27572 0.0
C594 C 0.51779 0.49214 0.44305 0.0
C595 C 0.50429 0.45375 0.42071 0.0
C596 C 0.55804 0.53228 0.43616 0.0
C597 C 0.58667 0.53538 0.40705 0.0
H598 H 0.49752 0.49098 0.46655 0.0
H599 H 0.56712 0.56091 0.454 0.0
S600 S 0.56585 0.44674 0.33846 0.0
N601 N 0.52195 0.4231 0.36648 0.0
N602 N 0.5981 0.49807 0.35447 0.0
C603 C 0.57354 0.49777 0.38421 0.0
C604 C 0.53231 0.45709 0.39083 0.0
C605 C 0.05365 0.52212 0.61849 0.0
C606 C 0.05685 0.49558 0.59016 0.0
C607 C 0.05305 0.56158 0.61018 0.0
C608 C 0.05469 0.57538 0.5732 0.0
H609 H 0.05233 0.51266 0.64736 0.0
H610 H 0.05104 0.58131 0.63278 0.0
S611 S 0.06319 0.51782 0.48897 0.0
N612 N 0.0619 0.48603 0.52378 0.0
N613 N 0.06007 0.55979 0.50806 0.0
C614 C 0.0576 0.54901 0.54463 0.0
C615 C 0.05892 0.50925 0.55313 0.0
C616 C 0.5531 0.03391 0.77989 0.0
C617 C 0.58464 0.04375 0.75119 0.0
C618 C 0.51335 0.03485 0.77364 0.0
C619 C 0.50351 0.0449 0.73833 0.0
H620 H 0.55969 0.02634 0.80757 0.0
H621 H 0.49011 0.02751 0.79646 0.0
S622 S 0.57438 0.07236 0.65389 0.0
N623 N 0.60315 0.06384 0.68628 0.0
N624 N 0.52801 0.06454 0.67432 0.0
C625 C 0.53444 0.0543 0.70937 0.0
C626 C 0.57516 0.05405 0.71585 0.0
C627 C 0.53813 0.55968 0.88865 0.0
C628 C 0.55105 0.57329 0.92555 0.0
C629 C 0.49815 0.51985 0.88062 0.0
C630 C 0.4693 0.49271 0.90921 0.0
H631 H 0.55937 0.57966 0.86589 0.0
H632 H 0.48947 0.51041 0.8518 0.0
S633 S 0.48725 0.51454 0.01034 0.0
N634 N 0.53162 0.55711 0.9909 0.0
N635 N 0.45615 0.48266 0.97573 0.0
C636 C 0.48152 0.50637 0.94617 0.0
C637 C 0.52251 0.54653 0.95435 0.0
C638 C 1.00349 0.47842 0.11126 0.0
C639 C 1.00241 0.46495 0.0742 0.0
C640 C 1.00411 0.51852 0.11975 0.0
C641 C 1.00263 0.54597 0.0915 0.0
H642 H 1.00362 0.4577 0.13379 0.0
H643 H 1.0045 0.52752 0.14868 0.0
S644 S 0.99915 0.52525 0.99013 0.0
N645 N 1.00014 0.48217 0.00907 0.0
N646 N 1.00037 0.55698 0.02509 0.0
C647 C 1.00163 0.53285 0.05438 0.0
C648 C 1.0018 0.49249 0.04572 0.0
C649 C 0.46636 0.95137 0.2289 0.0
C650 C 0.46458 0.97991 0.25608 0.0
C651 C 0.50586 0.9501 0.22228 0.0
C652 C 0.54532 0.97745 0.24241 0.0
H653 H 0.43699 0.9299 0.21247 0.0
H654 H 0.50569 0.92787 0.20087 0.0
S655 S 0.55825 0.05599 0.31814 0.0
N656 N 0.50568 0.03455 0.30465 0.0
N657 N 0.58004 0.03288 0.29128 0.0
C658 C 0.5442 1.00611 0.26961 0.0
C659 C 0.50386 1.00716 0.27666 0.0
C660 C 0.34168 0.33269 0.68537 0.0
C661 C 0.37317 0.37062 0.70517 0.0
C662 C 0.34901 0.32646 0.64813 0.0
C663 C 0.38797 0.35808 0.62926 0.0
H664 H 0.31062 0.3082 0.69841 0.0
H665 H 0.32395 0.29657 0.63411 0.0
S666 S 0.48183 0.46204 0.66933 0.0
N667 N 0.4462 0.43862 0.70405 0.0
N668 N 0.45859 0.42851 0.63339 0.0
C669 C 0.42003 0.39581 0.64895 0.0
C670 C 0.41294 0.40171 0.68704 0.0
C671 C 1.02004 0.39251 0.81225 0.0
C672 C 1.02371 0.35937 0.79227 0.0
C673 C 1.00434 0.38536 0.84878 0.0
C674 C 0.99083 0.34446 0.86679 0.0
H675 H 0.03021 0.42478 0.79986 0.0
H676 H 1.00427 0.41279 0.86337 0.0
S677 S 0.98732 0.24404 0.82535 0.0
N678 N 1.0095 0.28264 0.79263 0.0
N679 N 0.97661 0.26813 0.86046 0.0
C680 C 0.9914 0.30981 0.84647 0.0
C681 C 1.00847 0.31744 0.80937 0.0
C682 C 0.66008 0.04204 0.9828 0.0
C683 C 0.67305 0.01916 0.95771 0.0
C684 C 0.65449 0.03144 0.02062 0.0
C685 C 0.66244 0.99825 0.0346 0.0
H686 H 0.6549 0.06884 0.97331 0.0
H687 H 0.6446 0.04968 0.03925 0.0
S688 S 0.69348 0.92609 0.98112 0.0
N689 N 0.69064 0.95944 0.9497 0.0
N690 N 0.68181 0.94111 0.02136 0.0
C691 C 0.6751 0.97489 0.01018 0.0
C692 C 0.68006 0.98501 0.97154 0.0
C693 C 0.65392 0.6438 0.1446 0.0
C694 C 0.68672 0.68202 0.12583 0.0
C695 C 0.65839 0.63697 0.18208 0.0
C696 C 0.69615 0.66773 0.20231 0.0
H697 H 0.62414 0.61904 0.13026 0.0
H698 H 0.63159 0.60764 0.1955 0.0
S699 S 0.79373 0.77149 0.16554 0.0
N700 N 0.75908 0.75063 0.12999 0.0
N701 N 0.76895 0.73618 0.2002 0.0
C702 C 0.73023 0.70535 0.18367 0.0
C703 C 0.72527 0.71276 0.14543 0.0
C704 C 0.05661 0.69397 0.30554 0.0
C705 C 1.01194 0.67984 0.29681 0.0
C706 C 0.07088 0.70126 0.34248 0.0
C707 C 0.04091 0.69521 0.37148 0.0
H708 H 0.08005 0.69793 0.28373 0.0
H709 H 0.10538 0.71119 0.34856 0.0
S710 S 0.92105 0.66135 0.36196 0.0
N711 N 0.93828 0.66188 0.31892 0.0
N712 N 0.96518 0.67632 0.3888 0.0
C713 C 0.99654 0.68285 0.36278 0.0
C714 C 0.98195 0.67484 0.32521 0.0
C715 C 0.40941 0.02446 0.52 0.0
C716 C 0.37715 0.03046 0.53915 0.0
C717 C 0.40418 1.01247 0.48252 0.0
C718 C 0.36628 1.00557 0.46268 0.0
H719 H 0.43916 0.02916 0.53406 0.0
H720 H 0.43032 1.00909 0.4688 0.0
S721 S 0.27012 1.01363 0.50027 0.0
N722 N 0.30529 0.02772 0.53542 0.0
N723 N 0.29406 1.00217 0.4655 0.0
C724 C 0.3329 1.00998 0.48164 0.0
C725 C 0.33859 0.02298 0.51979 0.0
loop_
_geom_bond_atom_site_label_1
_geom_bond_atom_site_label_2
_geom_bond_distance
_geom_bond_site_symmetry_2
_ccdc_geom_bond_type
Co0 N4 2.148 . S
Co0 N10 2.128 . S
Co0 N20 2.194 . S
Co0 O25 2.351 . S
Co0 O26 2.155 . S
Co0 O27 2.096 . S
C1 N4 1.301 . S
C1 N5 1.328 . S
C1 H6 0.930 . S
C2 C3 1.333 . S
C2 N4 1.317 . S
C2 H7 0.930 . S
C3 C2 1.333 . S
C3 N5 1.350 . S
C3 H29 0.931 . S
N4 Co0 2.148 . S
N4 C1 1.301 . S
N4 C2 1.317 . S
N5 C1 1.328 . S
N5 C3 1.350 . S
H6 C1 0.930 . S
H7 C2 0.930 . S
C8 O9 1.224 . S
C8 O27 1.247 . S
O9 C8 1.224 . S
N10 Co0 2.128 . S
N10 C11 1.355 . S
N10 C13 1.311 . S
C11 N10 1.355 . S
C11 C12 1.363 . S
C11 H23 0.929 . S
C12 C11 1.363 . S
C12 N14 1.375 . S
C12 H30 0.931 . S
C13 N10 1.311 . S
C13 N14 1.347 . S
C13 H24 0.929 . S
N14 C12 1.375 . S
N14 C13 1.347 . S
C15 C18 1.365 . S
C15 N20 1.328 . S
C15 H21 0.929 . S
C16 C17 1.362 . S
C16 C19 1.378 . S
C16 H31 0.929 . S
C17 C16 1.362 . S
C17 C18 1.366 . S
C18 C15 1.365 . S
C18 C17 1.366 . S
C18 H32 0.930 . S
C19 C16 1.378 . S
C19 N20 1.315 . S
C19 H22 0.930 . S
N20 Co0 2.194 . S
N20 C15 1.328 . S
N20 C19 1.315 . S
H21 C15 0.929 . S
H22 C19 0.930 . S
H23 C11 0.929 . S
H24 C13 0.929 . S
O25 Co0 2.351 . S
O25 C28 1.244 . S
O26 Co0 2.155 . S
O26 C28 1.240 . S
O27 Co0 2.096 . S
O27 C8 1.247 . S
C28 O25 1.244 . S
C28 O26 1.240 . S
H29 C3 0.931 . S
H30 C12 0.931 . S
H31 C16 0.929 . S
H32 C18 0.930 . S
Co33 N37 2.148 . S
Co33 N43 2.128 . S
Co33 N53 2.194 . S
Co33 O58 2.351 . S
Co33 O59 2.155 . S
Co33 O60 2.096 . S
C34 N37 1.301 . S
C34 N38 1.328 . S
C34 H39 0.930 . S
C35 C36 1.333 . S
C35 N37 1.317 . S
C35 H40 0.930 . S
C36 C35 1.333 . S
C36 N38 1.350 . S
C36 H62 0.931 . S
N37 Co33 2.148 . S
N37 C34 1.301 . S
N37 C35 1.317 . S
N38 C34 1.328 . S
N38 C36 1.350 . S
H39 C34 0.930 . S
H40 C35 0.930 . S
C41 O42 1.224 . S
C41 O60 1.247 1_655 S
O42 C41 1.224 . S
N43 Co33 2.128 . S
N43 C44 1.355 . S
N43 C46 1.311 . S
C44 N43 1.355 . S
C44 C45 1.363 . S
C44 H56 0.929 . S
C45 C44 1.363 . S
C45 N47 1.375 . S
C45 H63 0.931 . S
C46 N43 1.311 . S
C46 N47 1.347 . S
C46 H57 0.929 1_455 S
N47 C45 1.375 . S
N47 C46 1.347 . S
C48 C51 1.365 . S
C48 N53 1.328 . S
C48 H54 0.929 . S
C49 C50 1.362 . S
C49 C52 1.378 . S
C49 H64 0.929 1_455 S
C50 C49 1.362 . S
C50 C51 1.366 . S
C51 C48 1.365 . S
C51 C50 1.366 . S
C51 H65 0.930 . S
C52 C49 1.378 . S
C52 N53 1.315 . S
C52 H55 0.930 1_455 S
N53 Co33 2.194 . S
N53 C48 1.328 . S
N53 C52 1.315 . S
H54 C48 0.929 . S
H55 C52 0.930 1_655 S
H56 C44 0.929 . S
H57 C46 0.929 1_655 S
O58 Co33 2.351 . S
O58 C61 1.244 . S
O59 Co33 2.155 . S
O59 C61 1.240 . S
O60 Co33 2.096 . S
O60 C41 1.247 1_455 S
C61 O58 1.244 . S
C61 O59 1.240 . S
H62 C36 0.931 . S
H63 C45 0.931 . S
H64 C49 0.929 1_655 S
H65 C51 0.930 . S
Co66 N70 2.148 . S
Co66 N76 2.128 . S
Co66 N86 2.194 . S
Co66 O91 2.351 . S
Co66 O92 2.155 . S
Co66 O93 2.096 . S
C67 N70 1.301 . S
C67 N71 1.328 . S
C67 H72 0.930 . S
C68 C69 1.333 . S
C68 N70 1.317 . S
C68 H73 0.930 . S
C69 C68 1.333 . S
C69 N71 1.350 . S
C69 H95 0.931 . S
N70 Co66 2.148 . S
N70 C67 1.301 . S
N70 C68 1.317 . S
N71 C67 1.328 . S
N71 C69 1.350 . S
H72 C67 0.930 . S
H73 C68 0.930 . S
C74 O75 1.224 . S
C74 O93 1.247 1_565 S
O75 C74 1.224 . S
N76 Co66 2.128 . S
N76 C77 1.355 . S
N76 C79 1.311 . S
C77 N76 1.355 . S
C77 C78 1.363 . S
C77 H89 0.929 . S
C78 C77 1.363 . S
C78 N80 1.375 . S
C78 H96 0.931 . S
C79 N76 1.311 . S
C79 N80 1.347 . S
C79 H90 0.929 1_545 S
N80 C78 1.375 . S
N80 C79 1.347 . S
C81 C84 1.365 . S
C81 N86 1.328 . S
C81 H87 0.929 . S
C82 C83 1.362 . S
C82 C85 1.378 . S
C82 H97 0.929 1_545 S
C83 C82 1.362 . S
C83 C84 1.366 . S
C84 C81 1.365 . S
C84 C83 1.366 . S
C84 H98 0.930 . S
C85 C82 1.378 . S
C85 N86 1.315 . S
C85 H88 0.930 1_545 S
N86 Co66 2.194 . S
N86 C81 1.328 . S
N86 C85 1.315 . S
H87 C81 0.929 . S
H88 C85 0.930 1_565 S
H89 C77 0.929 . S
H90 C79 0.929 1_565 S
O91 Co66 2.351 . S
O91 C94 1.244 . S
O92 Co66 2.155 . S
O92 C94 1.240 . S
O93 Co66 2.096 . S
O93 C74 1.247 1_545 S
C94 O91 1.244 . S
C94 O92 1.240 . S
H95 C69 0.931 . S
H96 C78 0.931 . S
H97 C82 0.929 1_565 S
H98 C84 0.930 . S
Co99 N103 2.148 1_554 S
Co99 N109 2.128 . S
Co99 N119 2.194 1_554 S
Co99 O124 2.351 . S
Co99 O125 2.155 . S
Co99 O126 2.096 . S
C100 N103 1.301 . S
C100 N104 1.328 . S
C100 H105 0.930 . S
C101 C102 1.333 . S
C101 N103 1.317 . S
C101 H106 0.930 . S
C102 C101 1.333 . S
C102 N104 1.350 . S
C102 H128 0.931 . S
N103 Co99 2.148 1_556 S
N103 C100 1.301 . S
N103 C101 1.317 . S
N104 C100 1.328 . S
N104 C102 1.350 . S
H105 C100 0.930 . S
H106 C101 0.930 . S
C107 O108 1.224 1_554 S
C107 O126 1.247 . S
O108 C107 1.224 1_556 S
N109 Co99 2.128 . S
N109 C110 1.355 . S
N109 C112 1.311 . S
C110 N109 1.355 . S
C110 C111 1.363 . S
C110 H122 0.929 . S
C111 C110 1.363 . S
C111 N113 1.375 . S
C111 H129 0.931 . S
C112 N109 1.311 . S
C112 N113 1.347 . S
C112 H123 0.929 . S
N113 C111 1.375 . S
N113 C112 1.347 . S
C114 C117 1.365 . S
C114 N119 1.328 . S
C114 H120 0.929 . S
C115 C116 1.362 . S
C115 C118 1.378 . S
C115 H130 0.929 . S
C116 C115 1.362 . S
C116 C117 1.366 . S
C117 C114 1.365 . S
C117 C116 1.366 . S
C117 H131 0.930 . S
C118 C115 1.378 . S
C118 N119 1.315 . S
C118 H121 0.930 . S
N119 Co99 2.194 1_556 S
N119 C114 1.328 . S
N119 C118 1.315 . S
H120 C114 0.929 . S
H121 C118 0.930 . S
H122 C110 0.929 . S
H123 C112 0.929 . S
O124 Co99 2.351 . S
O124 C127 1.244 . S
O125 Co99 2.155 . S
O125 C127 1.240 . S
O126 Co99 2.096 . S
O126 C107 1.247 . S
C127 O124 1.244 . S
C127 O125 1.240 . S
H128 C102 0.931 . S
H129 C111 0.931 . S
H130 C115 0.929 . S
H131 C117 0.930 . S
Co132 N136 2.148 . S
Co132 N142 2.128 . S
Co132 N152 2.194 . S
Co132 O157 2.351 . S
Co132 O158 2.155 . S
Co132 O159 2.096 . S
C133 N136 1.301 . S
C133 N137 1.328 . S
C133 H138 0.930 . S
C134 C135 1.333 . S
C134 N136 1.317 . S
C134 H139 0.930 . S
C135 C134 1.333 . S
C135 N137 1.350 . S
C135 H161 0.931 . S
N136 Co132 2.148 . S
N136 C133 1.301 . S
N136 C134 1.317 . S
N137 C133 1.328 . S
N137 C135 1.350 . S
H138 C133 0.930 . S
H139 C134 0.930 . S
C140 O141 1.224 . S
C140 O159 1.247 1_455 S
O141 C140 1.224 . S
N142 Co132 2.128 . S
N142 C143 1.355 . S
N142 C145 1.311 . S
C143 N142 1.355 . S
C143 C144 1.363 . S
C143 H155 0.929 . S
C144 C143 1.363 . S
C144 N146 1.375 . S
C144 H162 0.931 . S
C145 N142 1.311 . S
C145 N146 1.347 . S
C145 H156 0.929 1_655 S
N146 C144 1.375 . S
N146 C145 1.347 . S
C147 C150 1.365 . S
C147 N152 1.328 . S
C147 H153 0.929 . S
C148 C149 1.362 . S
C148 C151 1.378 . S
C148 H163 0.929 1_655 S
C149 C148 1.362 . S
C149 C150 1.366 . S
C150 C147 1.365 . S
C150 C149 1.366 . S
C150 H164 0.930 . S
C151 C148 1.378 . S
C151 N152 1.315 . S
C151 H154 0.930 1_655 S
N152 Co132 2.194 . S
N152 C147 1.328 . S
N152 C151 1.315 . S
H153 C147 0.929 . S
H154 C151 0.930 1_455 S
H155 C143 0.929 . S
H156 C145 0.929 1_455 S
O157 Co132 2.351 . S
O157 C160 1.244 . S
O158 Co132 2.155 . S
O158 C160 1.240 . S
O159 Co132 2.096 . S
O159 C140 1.247 1_655 S
C160 O157 1.244 . S
C160 O158 1.240 . S
H161 C135 0.931 . S
H162 C144 0.931 . S
H163 C148 0.929 1_455 S
H164 C150 0.930 . S
Co165 N169 2.148 . S
Co165 N175 2.128 . S
Co165 N185 2.194 . S
Co165 O190 2.351 . S
Co165 O191 2.155 . S
Co165 O192 2.096 . S
C166 N169 1.301 . S
C166 N170 1.328 . S
C166 H171 0.930 . S
C167 C168 1.333 . S
C167 N169 1.317 . S
C167 H172 0.930 . S
C168 C167 1.333 . S
C168 N170 1.350 . S
C168 H194 0.931 . S
N169 Co165 2.148 . S
N169 C166 1.301 . S
N169 C167 1.317 . S
N170 C166 1.328 . S
N170 C168 1.350 . S
H171 C166 0.930 . S
H172 C167 0.930 . S
C173 O174 1.224 . S
C173 O192 1.247 1_545 S
O174 C173 1.224 . S
N175 Co165 2.128 . S
N175 C176 1.355 . S
N175 C178 1.311 . S
C176 N175 1.355 . S
C176 C177 1.363 . S
C176 H188 0.929 . S
C177 C176 1.363 . S
C177 N179 1.375 . S
C177 H195 0.931 . S
C178 N175 1.311 . S
C178 N179 1.347 . S
C178 H189 0.929 1_565 S
N179 C177 1.375 . S
N179 C178 1.347 . S
C180 C183 1.365 . S
C180 N185 1.328 . S
C180 H186 0.929 . S
C181 C182 1.362 . S
C181 C184 1.378 . S
C181 H196 0.929 1_565 S
C182 C181 1.362 . S
C182 C183 1.366 . S
C183 C180 1.365 . S
C183 C182 1.366 . S
C183 H197 0.930 . S
C184 C181 1.378 . S
C184 N185 1.315 . S
C184 H187 0.930 1_565 S
N185 Co165 2.194 . S
N185 C180 1.328 . S
N185 C184 1.315 . S
H186 C180 0.929 . S
H187 C184 0.930 1_545 S
H188 C176 0.929 . S
H189 C178 0.929 1_545 S
O190 Co165 2.351 . S
O190 C193 1.244 . S
O191 Co165 2.155 . S
O191 C193 1.240 . S
O192 Co165 2.096 . S
O192 C173 1.247 1_565 S
C193 O190 1.244 . S
C193 O191 1.240 . S
H194 C168 0.931 . S
H195 C177 0.931 . S
H196 C181 0.929 1_545 S
H197 C183 0.930 . S
Co198 N202 2.148 . S
Co198 N208 2.128 . S
Co198 N218 2.194 . S
Co198 O223 2.351 . S
Co198 O224 2.155 . S
Co198 O225 2.096 . S
C199 N202 1.301 . S
C199 N203 1.328 . S
C199 H204 0.930 . S
C200 C201 1.333 . S
C200 N202 1.317 . S
C200 H205 0.930 . S
C201 C200 1.333 . S
C201 N203 1.350 . S
C201 H227 0.931 . S
N202 Co198 2.148 . S
N202 C199 1.301 . S
N202 C200 1.317 . S
N203 C199 1.328 . S
N203 C201 1.350 . S
H204 C199 0.930 . S
H205 C200 0.930 . S
C206 O207 1.224 . S
C206 O225 1.247 . S
O207 C206 1.224 . S
N208 Co198 2.128 . S
N208 C209 1.355 . S
N208 C211 1.311 . S
C209 N208 1.355 . S
C209 C210 1.363 . S
C209 H221 0.929 . S
C210 C209 1.363 . S
C210 N212 1.375 . S
C210 H228 0.931 . S
C211 N208 1.311 . S
C211 N212 1.347 . S
C211 H222 0.929 . S
N212 C210 1.375 . S
N212 C211 1.347 . S
C213 C216 1.365 . S
C213 N218 1.328 . S
C213 H219 0.929 . S
C214 C215 1.362 . S
C214 C217 1.378 . S
C214 H229 0.929 . S
C215 C214 1.362 . S
C215 C216 1.366 . S
C216 C213 1.365 . S
C216 C215 1.366 . S
C216 H230 0.930 . S
C217 C214 1.378 . S
C217 N218 1.315 . S
C217 H220 0.930 . S
N218 Co198 2.194 . S
N218 C213 1.328 . S
N218 C217 1.315 . S
H219 C213 0.929 . S
H220 C217 0.930 . S
H221 C209 0.929 . S
H222 C211 0.929 . S
O223 Co198 2.351 . S
O223 C226 1.244 . S
O224 Co198 2.155 . S
O224 C226 1.240 . S
O225 Co198 2.096 . S
O225 C206 1.247 . S
C226 O223 1.244 . S
C226 O224 1.240 . S
H227 C201 0.931 . S
H228 C210 0.931 . S
H229 C214 0.929 . S
H230 C216 0.930 . S
Co231 N235 2.148 . S
Co231 N241 2.128 . S
Co231 N251 2.194 . S
Co231 O256 2.351 . S
Co231 O257 2.155 . S
Co231 O258 2.096 . S
C232 N235 1.301 . S
C232 N236 1.328 . S
C232 H237 0.930 . S
C233 C234 1.333 . S
C233 N235 1.317 . S
C233 H238 0.930 . S
C234 C233 1.333 . S
C234 N236 1.350 . S
C234 H260 0.931 . S
N235 Co231 2.148 . S
N235 C232 1.301 . S
N235 C233 1.317 . S
N236 C232 1.328 . S
N236 C234 1.350 . S
H237 C232 0.930 . S
H238 C233 0.930 . S
C239 O240 1.224 . S
C239 O258 1.247 1_655 S
O240 C239 1.224 . S
N241 Co231 2.128 . S
N241 C242 1.355 . S
N241 C244 1.311 . S
C242 N241 1.355 . S
C242 C243 1.363 . S
C242 H254 0.929 . S
C243 C242 1.363 . S
C243 N245 1.375 . S
C243 H261 0.931 . S
C244 N241 1.311 . S
C244 N245 1.347 . S
C244 H255 0.929 1_455 S
N245 C243 1.375 . S
N245 C244 1.347 . S
C246 C249 1.365 . S
C246 N251 1.328 . S
C246 H252 0.929 . S
C247 C248 1.362 . S
C247 C250 1.378 . S
C247 H262 0.929 1_455 S
C248 C247 1.362 . S
C248 C249 1.366 . S
C249 C246 1.365 . S
C249 C248 1.366 . S
C249 H263 0.930 . S
C250 C247 1.378 . S
C250 N251 1.315 . S
C250 H253 0.930 1_455 S
N251 Co231 2.194 . S
N251 C246 1.328 . S
N251 C250 1.315 . S
H252 C246 0.929 . S
H253 C250 0.930 1_655 S
H254 C242 0.929 . S
H255 C244 0.929 1_655 S
O256 Co231 2.351 . S
O256 C259 1.244 . S
O257 Co231 2.155 . S
O257 C259 1.240 . S
O258 Co231 2.096 . S
O258 C239 1.247 1_455 S
C259 O256 1.244 . S
C259 O257 1.240 . S
H260 C234 0.931 . S
H261 C243 0.931 . S
H262 C247 0.929 1_655 S
H263 C249 0.930 . S
Co264 N268 2.148 . S
Co264 N274 2.128 . S
Co264 N284 2.194 . S
Co264 O289 2.351 . S
Co264 O290 2.155 . S
Co264 O291 2.096 . S
C265 N268 1.301 . S
C265 N269 1.328 . S
C265 H270 0.930 . S
C266 C267 1.333 . S
C266 N268 1.317 . S
C266 H271 0.930 . S
C267 C266 1.333 . S
C267 N269 1.350 . S
C267 H293 0.931 . S
N268 Co264 2.148 . S
N268 C265 1.301 . S
N268 C266 1.317 . S
N269 C265 1.328 . S
N269 C267 1.350 . S
H270 C265 0.930 . S
H271 C266 0.930 . S
C272 O273 1.224 . S
C272 O291 1.247 1_565 S
O273 C272 1.224 . S
N274 Co264 2.128 . S
N274 C275 1.355 . S
N274 C277 1.311 . S
C275 N274 1.355 . S
C275 C276 1.363 . S
C275 H287 0.929 . S
C276 C275 1.363 . S
C276 N278 1.375 . S
C276 H294 0.931 . S
C277 N274 1.311 . S
C277 N278 1.347 . S
C277 H288 0.929 1_545 S
N278 C276 1.375 . S
N278 C277 1.347 . S
C279 C282 1.365 . S
C279 N284 1.328 . S
C279 H285 0.929 . S
C280 C281 1.362 . S
C280 C283 1.378 . S
C280 H295 0.929 1_545 S
C281 C280 1.362 . S
C281 C282 1.366 . S
C282 C279 1.365 . S
C282 C281 1.366 . S
C282 H296 0.930 . S
C283 C280 1.378 . S
C283 N284 1.315 . S
C283 H286 0.930 1_545 S
N284 Co264 2.194 . S
N284 C279 1.328 . S
N284 C283 1.315 . S
H285 C279 0.929 . S
H286 C283 0.930 1_565 S
H287 C275 0.929 . S
H288 C277 0.929 1_565 S
O289 Co264 2.351 . S
O289 C292 1.244 . S
O290 Co264 2.155 . S
O290 C292 1.240 . S
O291 Co264 2.096 . S
O291 C272 1.247 1_545 S
C292 O289 1.244 . S
C292 O290 1.240 . S
H293 C267 0.931 . S
H294 C276 0.931 . S
H295 C280 0.929 1_565 S
H296 C282 0.930 . S
Co297 N301 2.148 . S
Co297 N307 2.128 . S
Co297 N317 2.194 . S
Co297 O322 2.351 . S
Co297 O323 2.155 . S
Co297 O324 2.096 . S
C298 N301 1.301 . S
C298 N302 1.328 . S
C298 H303 0.930 . S
C299 C300 1.333 . S
C299 N301 1.317 . S
C299 H304 0.930 . S
C300 C299 1.333 . S
C300 N302 1.350 . S
C300 H326 0.931 . S
N301 Co297 2.148 . S
N301 C298 1.301 . S
N301 C299 1.317 . S
N302 C298 1.328 . S
N302 C300 1.350 . S
H303 C298 0.930 . S
H304 C299 0.930 . S
C305 O306 1.224 . S
C305 O324 1.247 . S
O306 C305 1.224 . S
N307 Co297 2.128 . S
N307 C308 1.355 . S
N307 C310 1.311 . S
C308 N307 1.355 . S
C308 C309 1.363 . S
C308 H320 0.929 . S
C309 C308 1.363 . S
C309 N311 1.375 . S
C309 H327 0.931 . S
C310 N307 1.311 . S
C310 N311 1.347 . S
C310 H321 0.929 . S
N311 C309 1.375 . S
N311 C310 1.347 . S
C312 C315 1.365 . S
C312 N317 1.328 . S
C312 H318 0.929 . S
C313 C314 1.362 . S
C313 C316 1.378 . S
C313 H328 0.929 . S
C314 C313 1.362 . S
C314 C315 1.366 . S
C315 C312 1.365 . S
C315 C314 1.366 . S
C315 H329 0.930 . S
C316 C313 1.378 . S
C316 N317 1.315 . S
C316 H319 0.930 . S
N317 Co297 2.194 . S
N317 C312 1.328 . S
N317 C316 1.315 . S
H318 C312 0.929 . S
H319 C316 0.930 . S
H320 C308 0.929 . S
H321 C310 0.929 . S
O322 Co297 2.351 . S
O322 C325 1.244 . S
O323 Co297 2.155 . S
O323 C325 1.240 . S
O324 Co297 2.096 . S
O324 C305 1.247 . S
C325 O322 1.244 . S
C325 O323 1.240 . S
H326 C300 0.931 . S
H327 C309 0.931 . S
H328 C313 0.929 . S
H329 C315 0.930 . S
Co330 N334 2.148 1_556 S
Co330 N340 2.128 . S
Co330 N350 2.194 1_556 S
Co330 O355 2.351 . S
Co330 O356 2.155 . S
Co330 O357 2.096 . S
C331 N334 1.301 . S
C331 N335 1.328 . S
C331 H336 0.930 . S
C332 C333 1.333 . S
C332 N334 1.317 . S
C332 H337 0.930 . S
C333 C332 1.333 . S
C333 N335 1.350 . S
C333 H359 0.931 . S
N334 Co330 2.148 1_554 S
N334 C331 1.301 . S
N334 C332 1.317 . S
N335 C331 1.328 . S
N335 C333 1.350 . S
H336 C331 0.930 . S
H337 C332 0.930 . S
C338 O339 1.224 1_556 S
C338 O357 1.247 1_455 S
O339 C338 1.224 1_554 S
N340 Co330 2.128 . S
N340 C341 1.355 . S
N340 C343 1.311 . S
C341 N340 1.355 . S
C341 C342 1.363 . S
C341 H353 0.929 . S
C342 C341 1.363 . S
C342 N344 1.375 . S
C342 H360 0.931 . S
C343 N340 1.311 . S
C343 N344 1.347 . S
C343 H354 0.929 1_655 S
N344 C342 1.375 . S
N344 C343 1.347 . S
C345 C348 1.365 . S
C345 N350 1.328 . S
C345 H351 0.929 . S
C346 C347 1.362 . S
C346 C349 1.378 . S
C346 H361 0.929 1_655 S
C347 C346 1.362 . S
C347 C348 1.366 . S
C348 C345 1.365 . S
C348 C347 1.366 . S
C348 H362 0.930 . S
C349 C346 1.378 . S
C349 N350 1.315 . S
C349 H352 0.930 1_655 S
N350 Co330 2.194 1_554 S
N350 C345 1.328 . S
N350 C349 1.315 . S
H351 C345 0.929 . S
H352 C349 0.930 1_455 S
H353 C341 0.929 . S
H354 C343 0.929 1_455 S
O355 Co330 2.351 . S
O355 C358 1.244 . S
O356 Co330 2.155 . S
O356 C358 1.240 . S
O357 Co330 2.096 . S
O357 C338 1.247 1_655 S
C358 O355 1.244 . S
C358 O356 1.240 . S
H359 C333 0.931 . S
H360 C342 0.931 . S
H361 C346 0.929 1_455 S
H362 C348 0.930 . S
Co363 N367 2.148 . S
Co363 N373 2.128 . S
Co363 N383 2.194 . S
Co363 O388 2.351 . S
Co363 O389 2.155 . S
Co363 O390 2.096 . S
C364 N367 1.301 . S
C364 N368 1.328 . S
C364 H369 0.930 . S
C365 C366 1.333 . S
C365 N367 1.317 . S
C365 H370 0.930 . S
C366 C365 1.333 . S
C366 N368 1.350 . S
C366 H392 0.931 . S
N367 Co363 2.148 . S
N367 C364 1.301 . S
N367 C365 1.317 . S
N368 C364 1.328 . S
N368 C366 1.350 . S
H369 C364 0.930 . S
H370 C365 0.930 . S
C371 O372 1.224 . S
C371 O390 1.247 1_545 S
O372 C371 1.224 . S
N373 Co363 2.128 . S
N373 C374 1.355 . S
N373 C376 1.311 . S
C374 N373 1.355 . S
C374 C375 1.363 . S
C374 H386 0.929 . S
C375 C374 1.363 . S
C375 N377 1.375 . S
C375 H393 0.931 . S
C376 N373 1.311 . S
C376 N377 1.347 . S
C376 H387 0.929 1_565 S
N377 C375 1.375 . S
N377 C376 1.347 . S
C378 C381 1.365 . S
C378 N383 1.328 . S
C378 H384 0.929 . S
C379 C380 1.362 . S
C379 C382 1.378 . S
C379 H394 0.929 1_565 S
C380 C379 1.362 . S
C380 C381 1.366 . S
C381 C378 1.365 . S
C381 C380 1.366 . S
C381 H395 0.930 . S
C382 C379 1.378 . S
C382 N383 1.315 . S
C382 H385 0.930 1_565 S
N383 Co363 2.194 . S
N383 C378 1.328 . S
N383 C382 1.315 . S
H384 C378 0.929 . S
H385 C382 0.930 1_545 S
H386 C374 0.929 . S
H387 C376 0.929 1_545 S
O388 Co363 2.351 . S
O388 C391 1.244 . S
O389 Co363 2.155 . S
O389 C391 1.240 . S
O390 Co363 2.096 . S
O390 C371 1.247 1_565 S
C391 O388 1.244 . S
C391 O389 1.240 . S
H392 C366 0.931 . S
H393 C375 0.931 . S
H394 C379 0.929 1_545 S
H395 C381 0.930 . S
C396 C397 1.369 . S
C396 C398 1.419 . S
C396 H400 0.930 . S
C397 C396 1.369 . S
C397 C406 1.429 . S
C398 C396 1.419 . S
C398 C399 1.363 . S
C398 H401 0.929 . S
C399 C398 1.363 . S
C399 C405 1.428 . S
H400 C396 0.930 . S
H401 C398 0.929 . S
S402 N403 1.613 . S
S402 N404 1.610 . S
N403 S402 1.613 . S
N403 C406 1.350 . S
N404 S402 1.610 . S
N404 C405 1.351 . S
C405 C399 1.428 . S
C405 N404 1.351 . S
C405 C406 1.434 . S
C406 C397 1.429 . S
C406 N403 1.350 . S
C406 C405 1.434 . S
C407 C408 1.369 . S
C407 C409 1.419 . S
C407 H411 0.930 . S
C408 C407 1.369 . S
C408 C417 1.429 . S
C409 C407 1.419 . S
C409 C410 1.363 . S
C409 H412 0.929 . S
C410 C409 1.363 . S
C410 C416 1.428 . S
H411 C407 0.930 . S
H412 C409 0.929 . S
S413 N414 1.613 . S
S413 N415 1.610 . S
N414 S413 1.613 . S
N414 C417 1.350 . S
N415 S413 1.610 . S
N415 C416 1.351 . S
C416 C410 1.428 . S
C416 N415 1.351 . S
C416 C417 1.434 . S
C417 C408 1.429 . S
C417 N414 1.350 . S
C417 C416 1.434 . S
C418 C419 1.369 . S
C418 C420 1.419 . S
C418 H422 0.930 . S
C419 C418 1.369 . S
C419 C428 1.429 . S
C420 C418 1.419 . S
C420 C421 1.363 . S
C420 H423 0.929 . S
C421 C420 1.363 . S
C421 C427 1.428 . S
H422 C418 0.930 . S
H423 C420 0.929 . S
S424 N425 1.613 . S
S424 N426 1.610 . S
N425 S424 1.613 . S
N425 C428 1.350 . S
N426 S424 1.610 . S
N426 C427 1.351 . S
C427 C421 1.428 . S
C427 N426 1.351 . S
C427 C428 1.434 . S
C428 C419 1.429 . S
C428 N425 1.350 . S
C428 C427 1.434 . S
C429 C430 1.369 . S
C429 C431 1.419 . S
C429 H433 0.930 . S
C430 C429 1.369 . S
C430 C439 1.429 . S
C431 C429 1.419 . S
C431 C432 1.363 . S
C431 H434 0.929 . S
C432 C431 1.363 . S
C432 C438 1.428 . S
H433 C429 0.930 . S
H434 C431 0.929 . S
S435 N436 1.613 . S
S435 N437 1.610 . S
N436 S435 1.613 . S
N436 C439 1.350 . S
N437 S435 1.610 . S
N437 C438 1.351 . S
C438 C432 1.428 . S
C438 N437 1.351 . S
C438 C439 1.434 . S
C439 C430 1.429 . S
C439 N436 1.350 . S
C439 C438 1.434 . S
C440 C441 1.369 . S
C440 C442 1.419 . S
C440 H444 0.930 . S
C441 C440 1.369 . S
C441 C450 1.429 . S
C442 C440 1.419 . S
C442 C443 1.363 . S
C442 H445 0.929 . S
C443 C442 1.363 . S
C443 C449 1.428 . S
H444 C440 0.930 . S
H445 C442 0.929 . S
S446 N447 1.613 . S
S446 N448 1.610 . S
N447 S446 1.613 . S
N447 C450 1.350 . S
N448 S446 1.610 . S
N448 C449 1.351 . S
C449 C443 1.428 . S
C449 N448 1.351 . S
C449 C450 1.434 . S
C450 C441 1.429 . S
C450 N447 1.350 . S
C450 C449 1.434 . S
C451 C452 1.369 . S
C451 C453 1.419 . S
C451 H455 0.930 . S
C452 C451 1.369 . S
C452 C461 1.429 . S
C453 C451 1.419 . S
C453 C454 1.363 . S
C453 H456 0.929 . S
C454 C453 1.363 . S
C454 C460 1.428 . S
H455 C451 0.930 . S
H456 C453 0.929 . S
S457 N458 1.613 . S
S457 N459 1.610 . S
N458 S457 1.613 . S
N458 C461 1.350 . S
N459 S457 1.610 . S
N459 C460 1.351 . S
C460 C454 1.428 . S
C460 N459 1.351 . S
C460 C461 1.434 . S
C461 C452 1.429 . S
C461 N458 1.350 . S
C461 C460 1.434 . S
C462 C463 1.369 . S
C462 C464 1.419 . S
C462 H466 0.930 . S
C463 C462 1.369 . S
C463 C472 1.429 . S
C464 C462 1.419 . S
C464 C465 1.363 . S
C464 H467 0.929 . S
C465 C464 1.363 . S
C465 C471 1.428 . S
H466 C462 0.930 . S
H467 C464 0.929 . S
S468 N469 1.613 . S
S468 N470 1.610 . S
N469 S468 1.613 . S
N469 C472 1.350 . S
N470 S468 1.610 . S
N470 C471 1.351 . S
C471 C465 1.428 . S
C471 N470 1.351 . S
C471 C472 1.434 . S
C472 C463 1.429 . S
C472 N469 1.350 . S
C472 C471 1.434 . S
C473 C474 1.369 . S
C473 C475 1.419 . S
C473 H477 0.930 . S
C474 C473 1.369 . S
C474 C483 1.429 . S
C475 C473 1.419 . S
C475 C476 1.363 . S
C475 H478 0.929 . S
C476 C475 1.363 . S
C476 C482 1.428 . S
H477 C473 0.930 . S
H478 C475 0.929 . S
S479 N480 1.613 . S
S479 N481 1.610 . S
N480 S479 1.613 . S
N480 C483 1.350 . S
N481 S479 1.610 . S
N481 C482 1.351 . S
C482 C476 1.428 . S
C482 N481 1.351 . S
C482 C483 1.434 . S
C483 C474 1.429 . S
C483 N480 1.350 . S
C483 C482 1.434 . S
C484 C485 1.369 . S
C484 C486 1.419 . S
C484 H488 0.930 . S
C485 C484 1.369 . S
C485 C494 1.429 . S
C486 C484 1.419 . S
C486 C487 1.363 . S
C486 H489 0.929 . S
C487 C486 1.363 . S
C487 C493 1.428 . S
H488 C484 0.930 . S
H489 C486 0.929 . S
S490 N491 1.613 . S
S490 N492 1.610 . S
N491 S490 1.613 . S
N491 C494 1.350 . S
N492 S490 1.610 . S
N492 C493 1.351 . S
C493 C487 1.428 . S
C493 N492 1.351 . S
C493 C494 1.434 . S
C494 C485 1.429 . S
C494 N491 1.350 . S
C494 C493 1.434 . S
C495 C496 1.369 . S
C495 C497 1.419 . S
C495 H499 0.930 . S
C496 C495 1.369 . S
C496 C505 1.429 . S
C497 C495 1.419 . S
C497 C498 1.363 . S
C497 H500 0.929 . S
C498 C497 1.363 . S
C498 C504 1.428 . S
H499 C495 0.930 . S
H500 C497 0.929 . S
S501 N502 1.613 . S
S501 N503 1.610 . S
N502 S501 1.613 . S
N502 C505 1.350 . S
N503 S501 1.610 . S
N503 C504 1.351 . S
C504 C498 1.428 . S
C504 N503 1.351 . S
C504 C505 1.434 . S
C505 C496 1.429 . S
C505 N502 1.350 . S
C505 C504 1.434 . S
C506 C507 1.369 . S
C506 C508 1.419 . S
C506 H510 0.930 . S
C507 C506 1.369 . S
C507 C516 1.429 . S
C508 C506 1.419 . S
C508 C509 1.363 . S
C508 H511 0.929 . S
C509 C508 1.363 . S
C509 C515 1.428 . S
H510 C506 0.930 . S
H511 C508 0.929 . S
S512 N513 1.613 . S
S512 N514 1.610 1_556 S
N513 S512 1.613 . S
N513 C516 1.350 1_556 S
N514 S512 1.610 1_554 S
N514 C515 1.351 . S
C515 C509 1.428 . S
C515 N514 1.351 . S
C515 C516 1.434 . S
C516 C507 1.429 . S
C516 N513 1.350 1_554 S
C516 C515 1.434 . S
C517 C518 1.369 . S
C517 C519 1.419 . S
C517 H521 0.930 . S
C518 C517 1.369 . S
C518 C527 1.429 . S
C519 C517 1.419 . S
C519 C520 1.363 . S
C519 H522 0.929 . S
C520 C519 1.363 . S
C520 C526 1.428 . S
H521 C517 0.930 . S
H522 C519 0.929 . S
S523 N524 1.613 . S
S523 N525 1.610 . S
N524 S523 1.613 . S
N524 C527 1.350 . S
N525 S523 1.610 . S
N525 C526 1.351 . S
C526 C520 1.428 . S
C526 N525 1.351 . S
C526 C527 1.434 . S
C527 C518 1.429 . S
C527 N524 1.350 . S
C527 C526 1.434 . S
C528 C529 1.369 . S
C528 C530 1.419 . S
C528 H532 0.930 . S
C529 C528 1.369 . S
C529 C538 1.429 . S
C530 C528 1.419 . S
C530 C531 1.363 . S
C530 H533 0.929 . S
C531 C530 1.363 . S
C531 C537 1.428 . S
H532 C528 0.930 . S
H533 C530 0.929 . S
S534 N535 1.613 . S
S534 N536 1.610 . S
N535 S534 1.613 . S
N535 C538 1.350 . S
N536 S534 1.610 . S
N536 C537 1.351 . S
C537 C531 1.428 . S
C537 N536 1.351 . S
C537 C538 1.434 . S
C538 C529 1.429 . S
C538 N535 1.350 . S
C538 C537 1.434 . S
C539 C540 1.369 . S
C539 C541 1.419 . S
C539 H543 0.930 . S
C540 C539 1.369 . S
C540 C549 1.429 . S
C541 C539 1.419 . S
C541 C542 1.363 . S
C541 H544 0.929 . S
C542 C541 1.363 . S
C542 C548 1.428 . S
H543 C539 0.930 . S
H544 C541 0.929 . S
S545 N546 1.613 . S
S545 N547 1.610 . S
N546 S545 1.613 . S
N546 C549 1.350 . S
N547 S545 1.610 . S
N547 C548 1.351 . S
C548 C542 1.428 . S
C548 N547 1.351 . S
C548 C549 1.434 . S
C549 C540 1.429 . S
C549 N546 1.350 . S
C549 C548 1.434 . S
C550 C551 1.369 . S
C550 C552 1.419 . S
C550 H554 0.930 . S
C551 C550 1.369 . S
C551 C560 1.429 . S
C552 C550 1.419 . S
C552 C553 1.363 . S
C552 H555 0.929 . S
C553 C552 1.363 . S
C553 C559 1.428 . S
H554 C550 0.930 . S
H555 C552 0.929 . S
S556 N557 1.613 . S
S556 N558 1.610 . S
N557 S556 1.613 . S
N557 C560 1.350 . S
N558 S556 1.610 . S
N558 C559 1.351 . S
C559 C553 1.428 . S
C559 N558 1.351 . S
C559 C560 1.434 . S
C560 C551 1.429 . S
C560 N557 1.350 . S
C560 C559 1.434 . S
C561 C562 1.369 . S
C561 C563 1.419 . S
C561 H565 0.930 1_556 S
C562 C561 1.369 . S
C562 C571 1.429 . S
C563 C561 1.419 . S
C563 C564 1.363 . S
C563 H566 0.929 . S
C564 C563 1.363 . S
C564 C570 1.428 . S
H565 C561 0.930 1_554 S
H566 C563 0.929 . S
S567 N568 1.613 . S
S567 N569 1.610 . S
N568 S567 1.613 . S
N568 C571 1.350 . S
N569 S567 1.610 . S
N569 C570 1.351 . S
C570 C564 1.428 . S
C570 N569 1.351 . S
C570 C571 1.434 . S
C571 C562 1.429 . S
C571 N568 1.350 . S
C571 C570 1.434 . S
C572 C573 1.369 . S
C572 C574 1.419 . S
C572 H576 0.930 . S
C573 C572 1.369 . S
C573 C582 1.429 . S
C574 C572 1.419 . S
C574 C575 1.363 . S
C574 H577 0.929 . S
C575 C574 1.363 . S
C575 C581 1.428 . S
H576 C572 0.930 . S
H577 C574 0.929 . S
S578 N579 1.613 . S
S578 N580 1.610 . S
N579 S578 1.613 . S
N579 C582 1.350 . S
N580 S578 1.610 . S
N580 C581 1.351 . S
C581 C575 1.428 . S
C581 N580 1.351 . S
C581 C582 1.434 . S
C582 C573 1.429 . S
C582 N579 1.350 . S
C582 C581 1.434 . S
C583 C584 1.369 . S
C583 C585 1.419 . S
C583 H587 0.930 . S
C584 C583 1.369 . S
C584 C593 1.429 . S
C585 C583 1.419 . S
C585 C586 1.363 . S
C585 H588 0.929 . S
C586 C585 1.363 . S
C586 C592 1.428 . S
H587 C583 0.930 . S
H588 C585 0.929 . S
S589 N590 1.613 . S
S589 N591 1.610 . S
N590 S589 1.613 . S
N590 C593 1.350 . S
N591 S589 1.610 . S
N591 C592 1.351 . S
C592 C586 1.428 . S
C592 N591 1.351 . S
C592 C593 1.434 . S
C593 C584 1.429 . S
C593 N590 1.350 . S
C593 C592 1.434 . S
C594 C595 1.369 . S
C594 C596 1.419 . S
C594 H598 0.930 . S
C595 C594 1.369 . S
C595 C604 1.429 . S
C596 C594 1.419 . S
C596 C597 1.363 . S
C596 H599 0.929 . S
C597 C596 1.363 . S
C597 C603 1.428 . S
H598 C594 0.930 . S
H599 C596 0.929 . S
S600 N601 1.613 . S
S600 N602 1.610 . S
N601 S600 1.613 . S
N601 C604 1.350 . S
N602 S600 1.610 . S
N602 C603 1.351 . S
C603 C597 1.428 . S
C603 N602 1.351 . S
C603 C604 1.434 . S
C604 C595 1.429 . S
C604 N601 1.350 . S
C604 C603 1.434 . S
C605 C606 1.369 . S
C605 C607 1.419 . S
C605 H609 0.930 . S
C606 C605 1.369 . S
C606 C615 1.429 . S
C607 C605 1.419 . S
C607 C608 1.363 . S
C607 H610 0.929 . S
C608 C607 1.363 . S
C608 C614 1.428 . S
H609 C605 0.930 . S
H610 C607 0.929 . S
S611 N612 1.613 . S
S611 N613 1.610 . S
N612 S611 1.613 . S
N612 C615 1.350 1_655 S
N613 S611 1.610 . S
N613 C614 1.351 1_655 S
C614 C608 1.428 . S
C614 N613 1.351 1_455 S
C614 C615 1.434 . S
C615 C606 1.429 . S
C615 N612 1.350 1_455 S
C615 C614 1.434 . S
C616 C617 1.369 . S
C616 C618 1.419 . S
C616 H620 0.930 . S
C617 C616 1.369 . S
C617 C626 1.429 . S
C618 C616 1.419 . S
C618 C619 1.363 . S
C618 H621 0.929 . S
C619 C618 1.363 . S
C619 C625 1.428 . S
H620 C616 0.930 . S
H621 C618 0.929 . S
S622 N623 1.613 . S
S622 N624 1.610 . S
N623 S622 1.613 . S
N623 C626 1.350 . S
N624 S622 1.610 . S
N624 C625 1.351 . S
C625 C619 1.428 . S
C625 N624 1.351 . S
C625 C626 1.434 . S
C626 C617 1.429 . S
C626 N623 1.350 . S
C626 C625 1.434 . S
C627 C628 1.369 . S
C627 C629 1.419 . S
C627 H631 0.930 . S
C628 C627 1.369 . S
C628 C637 1.429 . S
C629 C627 1.419 . S
C629 C630 1.363 . S
C629 H632 0.929 . S
C630 C629 1.363 . S
C630 C636 1.428 . S
H631 C627 0.930 . S
H632 C629 0.929 . S
S633 N634 1.613 1_554 S
S633 N635 1.610 1_554 S
N634 S633 1.613 1_556 S
N634 C637 1.350 . S
N635 S633 1.610 1_556 S
N635 C636 1.351 . S
C636 C630 1.428 . S
C636 N635 1.351 . S
C636 C637 1.434 . S
C637 C628 1.429 . S
C637 N634 1.350 . S
C637 C636 1.434 . S
C638 C639 1.369 . S
C638 C640 1.419 . S
C638 H642 0.930 . S
C639 C638 1.369 . S
C639 C648 1.429 . S
C640 C638 1.419 . S
C640 C641 1.363 . S
C640 H643 0.929 . S
C641 C640 1.363 . S
C641 C647 1.428 . S
H642 C638 0.930 . S
H643 C640 0.929 . S
S644 N645 1.613 1_556 S
S644 N646 1.610 1_556 S
N645 S644 1.613 1_554 S
N645 C648 1.350 . S
N646 S644 1.610 1_554 S
N646 C647 1.351 . S
C647 C641 1.428 . S
C647 N646 1.351 . S
C647 C648 1.434 . S
C648 C639 1.429 . S
C648 N645 1.350 . S
C648 C647 1.434 . S
C649 C650 1.369 . S
C649 C651 1.419 . S
C649 H653 0.930 . S
C650 C649 1.369 . S
C650 C659 1.429 . S
C651 C649 1.419 . S
C651 C652 1.363 . S
C651 H654 0.929 . S
C652 C651 1.363 . S
C652 C658 1.428 . S
H653 C649 0.930 . S
H654 C651 0.929 . S
S655 N656 1.613 1_545 S
S655 N657 1.610 1_545 S
N656 S655 1.613 1_565 S
N656 C659 1.350 . S
N657 S655 1.610 1_565 S
N657 C658 1.351 . S
C658 C652 1.428 . S
C658 N657 1.351 . S
C658 C659 1.434 . S
C659 C650 1.429 . S
C659 N656 1.350 . S
C659 C658 1.434 . S
C660 C661 1.369 . S
C660 C662 1.419 . S
C660 H664 0.930 . S
C661 C660 1.369 . S
C661 C670 1.429 . S
C662 C660 1.419 . S
C662 C663 1.363 . S
C662 H665 0.929 . S
C663 C662 1.363 . S
C663 C669 1.428 . S
H664 C660 0.930 . S
H665 C662 0.929 . S
S666 N667 1.613 . S
S666 N668 1.610 . S
N667 S666 1.613 . S
N667 C670 1.350 . S
N668 S666 1.610 . S
N668 C669 1.351 . S
C669 C663 1.428 . S
C669 N668 1.351 . S
C669 C670 1.434 . S
C670 C661 1.429 . S
C670 N667 1.350 . S
C670 C669 1.434 . S
C671 C672 1.369 . S
C671 C673 1.419 1_655 S
C671 H675 0.930 . S
C672 C671 1.369 . S
C672 C681 1.429 . S
C673 C671 1.419 1_455 S
C673 C674 1.363 . S
C673 H676 0.929 . S
C674 C673 1.363 . S
C674 C680 1.428 . S
H675 C671 0.930 . S
H676 C673 0.929 . S
S677 N678 1.613 1_455 S
S677 N679 1.610 . S
N678 S677 1.613 1_655 S
N678 C681 1.350 . S
N679 S677 1.610 . S
N679 C680 1.351 . S
C680 C674 1.428 . S
C680 N679 1.351 . S
C680 C681 1.434 1_455 S
C681 C672 1.429 . S
C681 N678 1.350 . S
C681 C680 1.434 1_655 S
C682 C683 1.369 1_545 S
C682 C684 1.419 1_556 S
C682 H686 0.930 . S
C683 C682 1.369 1_565 S
C683 C692 1.429 . S
C684 C682 1.419 1_554 S
C684 C685 1.363 . S
C684 H687 0.929 . S
C685 C684 1.363 . S
C685 C691 1.428 1_545 S
H686 C682 0.930 . S
H687 C684 0.929 . S
S688 N689 1.613 1_554 S
S688 N690 1.610 . S
N689 S688 1.613 1_556 S
N689 C692 1.350 . S
N690 S688 1.610 . S
N690 C691 1.351 . S
C691 C685 1.428 1_565 S
C691 N690 1.351 . S
C691 C692 1.434 1_554 S
C692 C683 1.429 . S
C692 N689 1.350 . S
C692 C691 1.434 1_556 S
C693 C694 1.369 . S
C693 C695 1.419 . S
C693 H697 0.930 . S
C694 C693 1.369 . S
C694 C703 1.429 . S
C695 C693 1.419 . S
C695 C696 1.363 . S
C695 H698 0.929 . S
C696 C695 1.363 . S
C696 C702 1.428 . S
H697 C693 0.930 . S
H698 C695 0.929 . S
S699 N700 1.613 . S
S699 N701 1.610 . S
N700 S699 1.613 . S
N700 C703 1.350 . S
N701 S699 1.610 . S
N701 C702 1.351 . S
C702 C696 1.428 . S
C702 N701 1.351 . S
C702 C703 1.434 . S
C703 C694 1.429 . S
C703 N700 1.350 . S
C703 C702 1.434 . S
C704 C705 1.369 . S
C704 C706 1.419 . S
C704 H708 0.930 . S
C705 C704 1.369 . S
C705 C714 1.429 1_455 S
C706 C704 1.419 . S
C706 C707 1.363 1_455 S
C706 H709 0.929 . S
C707 C706 1.363 1_655 S
C707 C713 1.428 . S
H708 C704 0.930 . S
H709 C706 0.929 . S
S710 N711 1.613 . S
S710 N712 1.610 . S
N711 S710 1.613 . S
N711 C714 1.350 . S
N712 S710 1.610 . S
N712 C713 1.351 . S
C713 C707 1.428 . S
C713 N712 1.351 . S
C713 C714 1.434 . S
C714 C705 1.429 1_655 S
C714 N711 1.350 . S
C714 C713 1.434 . S
C715 C716 1.369 1_545 S
C715 C717 1.419 . S
C715 H719 0.930 . S
C716 C715 1.369 1_565 S
C716 C725 1.429 . S
C717 C715 1.419 . S
C717 C718 1.363 . S
C717 H720 0.929 . S
C718 C717 1.363 . S
C718 C724 1.428 1_545 S
H719 C715 0.930 . S
H720 C717 0.929 . S
S721 N722 1.613 . S
S721 N723 1.610 . S
N722 S721 1.613 . S
N722 C725 1.350 . S
N723 S721 1.610 . S
N723 C724 1.351 . S
C724 C718 1.428 1_565 S
C724 N723 1.351 . S
C724 C725 1.434 . S
C725 C716 1.429 . S
C725 N722 1.350 . S
C725 C724 1.434 . S
C397 C292 1.049 . S
C399 C28 1.042 . S
C408 C61 1.052 . S
C410 C325 1.038 . S
C419 C94 1.050 . S
C421 C358 1.041 . S
C430 C127 1.035 . S
C432 C391 1.050 . S
C441 C160 1.040 . S
C443 C226 1.043 . S
C452 C193 1.036 . S
C454 C259 1.050 . S
C463 N5 1.747 . S
C465 C173 1.783 . S
C474 C8 1.783 . S
C476 N38 1.750 . S
C485 N71 1.744 . S
C487 C41 1.782 . S
C496 C74 1.780 . S
C498 N104 1.745 . S
C507 C107 1.781 . S
C509 N137 1.750 . S
C518 N170 1.751 . S
C520 C140 1.781 . S
C529 C239 1.780 . S
C531 N203 1.749 . S
C540 C272 1.783 . S
C542 N236 1.746 . S
C551 C305 1.784 . S
C553 N269 1.747 . S
C562 C338 1.779 . S
C564 N302 1.747 . S
C573 C371 1.780 . S
C575 N335 1.745 . S
C584 N368 1.745 . S
C586 C206 1.780 . S
C595 C17 1.367 . S
C597 C215 1.367 . S
C606 C50 1.368 . S
C608 C248 1.367 . S
C617 C83 1.369 . S
C619 C281 1.367 . S
C628 C116 1.366 . S
C630 C314 1.369 . S
C639 C347 1.367 . S
C641 C149 1.369 . S
C650 C182 1.367 . S
C652 C380 1.368 . S
C661 N311 1.071 . S
C663 N14 1.077 . S
C672 N47 1.075 1_655 S
C674 N344 1.070 1_455 S
C683 N80 1.083 1_565 S
C685 N377 1.065 1_545 S
C694 N113 1.070 . S
C696 N212 1.075 . S
C705 N146 1.063 1_455 S
C707 N245 1.081 1_655 S
C716 N278 1.080 1_565 S
C718 N179 1.067 1_545 S
