# Generated by pormake.
# Topology acs-f, (3)-cn, num edge types: 1
# Building blocks:
#     Node 0, Type 0, BuildingBlock: WUSLED_clean_sbu_0, # of connection points: 3
#     Node 1, Type 0, BuildingBlock: WUSLED_clean_sbu_0, # of connection points: 3
#     Node 2, Type 0, BuildingBlock: WUSLED_clean_sbu_0, # of connection points: 3
#     Node 3, Type 0, BuildingBlock: WUSLED_clean_sbu_0, # of connection points: 3
#     Node 4, Type 0, BuildingBlock: WUSLED_clean_sbu_0, # of connection points: 3
#     Node 5, Type 0, BuildingBlock: WUSLED_clean_sbu_0, # of connection points: 3
#     Node 6, Type 0, BuildingBlock: WUSLED_clean_sbu_0, # of connection points: 3
#     Node 7, Type 0, BuildingBlock: WUSLED_clean_sbu_0, # of connection points: 3
#     Node 8, Type 0, BuildingBlock: WUSLED_clean_sbu_0, # of connection points: 3
#     Node 9, Type 0, BuildingBlock: WUSLED_clean_sbu_0, # of connection points: 3
#     Node 10, Type 0, BuildingBlock: WUSLED_clean_sbu_0, # of connection points: 3
#     Node 11, Type 0, BuildingBlock: WUSLED_clean_sbu_0, # of connection points: 3
#     Edge 12, Type (0, 0), BuildingBlock: TEMPAE_clean_linker_10, # of connection points: 2
#     Edge 13, Type (0, 0), BuildingBlock: TEMPAE_clean_linker_10, # of connection points: 2
#     Edge 14, Type (0, 0), BuildingBlock: TEMPAE_clean_linker_10, # of connection points: 2
#     Edge 15, Type (0, 0), BuildingBlock: TEMPAE_clean_linker_10, # of connection points: 2
#     Edge 16, Type (0, 0), BuildingBlock: TEMPAE_clean_linker_10, # of connection points: 2
#     Edge 17, Type (0, 0), BuildingBlock: TEMPAE_clean_linker_10, # of connection points: 2
#     Edge 18, Type (0, 0), BuildingBlock: TEMPAE_clean_linker_10, # of connection points: 2
#     Edge 19, Type (0, 0), BuildingBlock: TEMPAE_clean_linker_10, # of connection points: 2
#     Edge 20, Type (0, 0), BuildingBlock: TEMPAE_clean_linker_10, # of connection points: 2
#     Edge 21, Type (0, 0), BuildingBlock: TEMPAE_clean_linker_10, # of connection points: 2
#     Edge 22, Type (0, 0), BuildingBlock: TEMPAE_clean_linker_10, # of connection points: 2
#     Edge 23, Type (0, 0), BuildingBlock: TEMPAE_clean_linker_10, # of connection points: 2
#     Edge 24, Type (0, 0), BuildingBlock: TEMPAE_clean_linker_10, # of connection points: 2
#     Edge 25, Type (0, 0), BuildingBlock: TEMPAE_clean_linker_10, # of connection points: 2
#     Edge 26, Type (0, 0), BuildingBlock: TEMPAE_clean_linker_10, # of connection points: 2
#     Edge 27, Type (0, 0), BuildingBlock: TEMPAE_clean_linker_10, # of connection points: 2
#     Edge 28, Type (0, 0), BuildingBlock: TEMPAE_clean_linker_10, # of connection points: 2
#     Edge 29, Type (0, 0), BuildingBlock: TEMPAE_clean_linker_10, # of connection points: 2
# Relax obj value: 0.269
# Max RMSD: 0.159
# Mean RMSD: 0.147
data_MOF--net-acs-f--node1-WUSLED_clean_sbu_0--edge1-TEMPAE_clean_linker_10
_symmetry_space_group_name_H-M    P1
_symmetry_Int_Tables_number       1
_symmetry_cell_setting            triclinic
loop_
_symmetry_equiv_pos_as_xyz
'x, y, z'
_cell_length_a     52.422176
_cell_length_b     52.34
_cell_length_c     64.950013
_cell_angle_alpha  89.884819
_cell_angle_beta   89.779036
_cell_angle_gamma 114.68667
loop_
_atom_site_label
_atom_site_type_symbol
_atom_site_fract_x
_atom_site_fract_y
_atom_site_fract_z
_atom_type_partial_charge
C0 C 0.10092 0.35364 0.17837 0.0
C1 C 0.09393 0.3543 0.19922 0.0
C2 C 0.12866 0.33688 0.20913 0.0
C3 C 0.10765 0.34581 0.21453 0.0
C4 C 0.13454 0.33513 0.1882 0.0
C5 C 0.12078 0.34339 0.173 0.0
U6 U 0.05153 0.38473 0.15574 0.0
O7 O 0.06515 0.42243 0.13601 0.0
O8 O 0.03557 0.3813 0.12398 0.0
C9 C 0.05086 0.4081 0.12013 0.0
C10 C 0.09018 0.36593 0.162 0.0
C11 C 0.04148 0.42268 0.10453 0.0
C12 C 0.05101 0.44621 0.07132 0.0
C13 C 0.05782 0.43157 0.08668 0.0
C14 C 0.01052 0.44277 0.09117 0.0
C15 C 0.02708 0.45188 0.07308 0.0
C16 C 0.01778 0.42843 0.10685 0.0
C17 C 0.99409 0.38832 0.1927 0.0
C18 C 0.97359 0.42205 0.19487 0.0
C19 C 0.96015 0.38375 0.21953 0.0
C20 C 0.97769 0.3737 0.20954 0.0
C21 C 0.95895 0.4088 0.21291 0.0
C22 C 0.9911 0.41187 0.18483 0.0
C23 C 0.01693 0.38101 0.18602 0.0
O24 O 0.06526 0.3502 0.15454 0.0
O25 O 0.09436 0.39223 0.16473 0.0
O26 O 0.04171 0.40213 0.18374 0.0
O27 O 0.01122 0.36149 0.17187 0.0
H28 H 0.07869 0.36229 0.20366 0.0
H29 H 0.10283 0.34752 0.23057 0.0
H30 H 0.15043 0.32809 0.18359 0.0
H31 H 0.12646 0.34276 0.15701 0.0
H32 H 0.06508 0.45349 0.05825 0.0
H33 H 0.07632 0.42748 0.08467 0.0
H34 H 0.99181 0.44641 0.0932 0.0
H35 H 1.00496 0.42183 0.12064 0.0
H36 H 0.9733 0.4415 0.18945 0.0
H37 H 0.94886 0.37287 0.23318 0.0
H38 H 0.97978 0.35546 0.2158 0.0
H39 H 1.00362 0.4234 0.1718 0.0
C40 C 0.65691 0.70597 0.18407 0.0
C41 C 0.65795 0.69869 0.2048 0.0
C42 C 0.67319 0.7478 0.21465 0.0
C43 C 0.66622 0.71958 0.22003 0.0
C44 C 0.67337 0.75494 0.1938 0.0
C45 C 0.66536 0.73423 0.17868 0.0
U46 U 0.62927 0.6312 0.15998 0.0
O47 O 0.5914 0.6119 0.14099 0.0
O48 O 0.63309 0.62164 0.12725 0.0
C49 C 0.60589 0.61239 0.1243 0.0
C50 C 0.64476 0.6848 0.16787 0.0
C51 C 0.5923 0.59189 0.10789 0.0
C52 C 0.58053 0.58503 0.07158 0.0
C53 C 0.59597 0.60205 0.08763 0.0
C54 C 0.55826 0.54661 0.09565 0.0
C55 C 0.56123 0.55709 0.07529 0.0
C56 C 0.57351 0.56395 0.11185 0.0
C57 C 0.63359 0.5713 0.19477 0.0
C58 C 0.60331 0.52201 0.20062 0.0
C59 C 0.64684 0.54418 0.21947 0.0
C60 C 0.65278 0.5693 0.20893 0.0
C61 C 0.62143 0.52061 0.21614 0.0
C62 C 0.60933 0.54721 0.19002 0.0
C63 C 0.63736 0.59958 0.18827 0.0
O64 O 0.66141 0.67498 0.15907 0.0
O65 O 0.61934 0.66544 0.17141 0.0
O66 O 0.61464 0.60432 0.18732 0.0
O67 O 0.65586 0.61225 0.1737 0.0
H68 H 0.65144 0.67689 0.20923 0.0
H69 H 0.6658 0.71353 0.23604 0.0
H70 H 0.67888 0.77653 0.18923 0.0
H71 H 0.6647 0.74022 0.16277 0.0
H72 H 0.58308 0.5943 0.05638 0.0
H73 H 0.61003 0.62371 0.08431 0.0
H74 H 0.54397 0.52512 0.09913 0.0
H75 H 0.5702 0.55576 0.12744 0.0
H76 H 0.58345 0.50432 0.19775 0.0
H77 H 0.66142 0.54372 0.23108 0.0
H78 H 0.67159 0.58771 0.21284 0.0
H79 H 0.59422 0.54834 0.17913 0.0
C80 C 0.2794 0.92512 0.17977 0.0
C81 C 0.28674 0.93112 0.20057 0.0
C82 C 0.23972 0.89806 0.211 0.0
C83 C 0.26691 0.91776 0.21613 0.0
C84 C 0.23237 0.89304 0.19015 0.0
C85 C 0.25202 0.90645 0.17472 0.0
U86 U 0.35353 0.96875 0.15747 0.0
O87 O 0.37466 0.95247 0.13511 0.0
O88 O 0.36567 0.98889 0.12691 0.0
C89 C 0.37518 0.9705 0.12084 0.0
C90 C 0.3002 0.93558 0.16305 0.0
C91 C 0.39691 0.97823 0.10477 0.0
C92 C 0.40979 0.96704 0.07119 0.0
C93 C 0.39017 0.9618 0.08693 0.0
C94 C 0.44338 0.00598 0.0906 0.0
C95 C 0.4367 0.98893 0.0729 0.0
C96 C 0.42357 1.00056 0.10658 0.0
C97 C 0.40867 0.01298 0.19947 0.0
C98 C 0.45687 0.04834 0.19916 0.0
C99 C 0.43511 0.02541 0.23113 0.0
C100 C 0.41043 0.00981 0.22071 0.0
C101 C 0.45871 0.0448 0.22055 0.0
C102 C 0.43187 0.03249 0.18863 0.0
C103 C 0.38201 0.99508 0.18978 0.0
O104 O 0.30912 0.96224 0.15792 0.0
O105 O 0.32031 0.92689 0.16371 0.0
O106 O 0.37851 0.96953 0.1847 0.0
O107 O 0.3706 0.00663 0.17686 0.0
H108 H 0.30793 0.94535 0.20474 0.0
H109 H 0.27315 0.92186 0.23209 0.0
H110 H 0.21153 0.87817 0.18577 0.0
H111 H 0.24605 0.90148 0.15877 0.0
H112 H 0.40391 0.95386 0.05762 0.0
H113 H 0.36961 0.94458 0.08524 0.0
H114 H 0.46406 0.02297 0.09228 0.0
H115 H 0.42909 0.01346 0.12028 0.0
H116 H 0.47475 0.06308 0.19061 0.0
H117 H 0.43592 0.02145 0.24743 0.0
H118 H 0.3927 0.99477 0.22927 0.0
H119 H 0.43076 0.0352 0.17217 0.0
C120 C 0.65765 0.91179 0.35497 0.0
C121 C 0.65715 0.91878 0.3341 0.0
C122 C 0.67336 0.88309 0.32424 0.0
C123 C 0.66512 0.90458 0.3188 0.0
C124 C 0.67495 0.87717 0.34517 0.0
C125 C 0.66721 0.89141 0.36036 0.0
U126 U 0.62888 0.96325 0.37694 0.0
O127 O 0.59049 0.9512 0.39575 0.0
O128 O 0.63162 0.97925 0.40869 0.0
C129 C 0.60454 0.96489 0.41192 0.0
C130 C 0.64576 0.92304 0.37131 0.0
C131 C 0.59009 0.97437 0.4276 0.0
C132 C 0.56713 0.96526 0.46105 0.0
C133 C 0.58184 0.95846 0.44571 0.0
C134 C 0.56925 1.00491 0.44072 0.0
C135 C 0.56072 0.98874 0.45903 0.0
C136 C 0.58367 0.99765 0.42506 0.0
C137 C 0.62849 0.02062 0.33838 0.0
C138 C 0.59507 0.04136 0.3358 0.0
C139 C 0.62848 0.04788 0.30815 0.0
C140 C 0.64017 0.03272 0.31938 0.0
C141 C 0.60498 0.05102 0.31587 0.0
C142 C 0.60684 0.02621 0.34708 0.0
C143 C 0.63511 0.99785 0.34615 0.0
O144 O 0.66205 0.94774 0.3789 0.0
O145 O 0.61985 0.91985 0.36833 0.0
O146 O 0.61353 0.97335 0.34819 0.0
O147 O 0.65358 1.00353 0.36104 0.0
H148 H 0.64967 0.9344 0.32964 0.0
H149 H 0.66354 0.90942 0.30276 0.0
H150 H 0.68142 0.86087 0.34977 0.0
H151 H 0.66768 0.8857 0.37635 0.0
H152 H 0.56033 0.9515 0.47432 0.0
H153 H 0.58643 0.94027 0.44789 0.0
H154 H 0.56507 0.02328 0.43848 0.0
H155 H 0.58977 0.01013 0.41109 0.0
H156 H 0.5767 0.04337 0.34183 0.0
H157 H 0.63598 0.05468 0.29264 0.0
H158 H 0.65668 0.02829 0.31237 0.0
H159 H 0.59751 0.01688 0.36169 0.0
C160 C 0.08284 0.72267 0.34557 0.0
C161 C 0.07772 0.71746 0.32447 0.0
C162 C 0.11086 0.76568 0.31674 0.0
C163 C 0.09155 0.739 0.31009 0.0
C164 C 0.11512 0.77081 0.33791 0.0
C165 C 0.10117 0.74955 0.35215 0.0
U166 U 0.04085 0.65065 0.37645 0.0
O167 O 0.06273 0.63826 0.40054 0.0
O168 O 0.02929 0.65122 0.40904 0.0
C169 C 0.04702 0.64112 0.41536 0.0
C170 C 0.07169 0.70063 0.36139 0.0
C171 C 0.03633 0.61819 0.43055 0.0
C172 C 0.03379 0.60432 0.46635 0.0
C173 C 0.04086 0.62525 0.45136 0.0
C174 C 0.01639 0.56859 0.43993 0.0
C175 C 0.02222 0.57576 0.46083 0.0
C176 C 0.02346 0.58973 0.42484 0.0
C177 C 0.98902 0.59348 0.33773 0.0
C178 C 0.95478 0.54915 0.32474 0.0
C179 C 0.98457 0.58508 0.30095 0.0
C180 C 0.99734 0.60286 0.31756 0.0
C181 C 0.96383 0.55756 0.30443 0.0
C182 C 0.96713 0.56701 0.34113 0.0
C183 C 1.00456 0.60841 0.35583 0.0
O184 O 0.04632 0.69381 0.36886 0.0
O185 O 0.0794 0.67975 0.36088 0.0
O186 O 0.9978 0.62728 0.36475 0.0
O187 O 0.03131 0.61359 0.35702 0.0
H188 H 0.06373 0.69673 0.31914 0.0
H189 H 0.08807 0.73454 0.29381 0.0
H190 H 0.12974 0.79119 0.34344 0.0
H191 H 0.10542 0.75391 0.3684 0.0
H192 H 0.03791 0.61058 0.48231 0.0
H193 H 0.05061 0.64709 0.45603 0.0
H194 H 0.00745 0.54678 0.43519 0.0
H195 H 0.01966 0.5839 0.40877 0.0
H196 H 0.93944 0.52807 0.32823 0.0
H197 H 0.99174 0.59244 0.2855 0.0
H198 H 0.01432 0.62331 0.31471 0.0
H199 H 0.96068 0.5594 0.35668 0.0
C200 C 0.30442 0.35065 0.34929 0.0
C201 C 0.31157 0.34966 0.32851 0.0
C202 C 0.26254 0.33487 0.31878 0.0
C203 C 0.29066 0.34163 0.31332 0.0
C204 C 0.25553 0.33474 0.33967 0.0
C205 C 0.27625 0.34249 0.35474 0.0
U206 U 0.37949 0.37865 0.37252 0.0
O207 O 0.39894 0.41712 0.39112 0.0
O208 O 0.39094 0.37565 0.40488 0.0
C209 C 0.39929 0.40283 0.4077 0.0
C210 C 0.32568 0.36268 0.36546 0.0
C211 C 0.41789 0.41716 0.42488 0.0
C212 C 0.42223 0.43936 0.45821 0.0
C213 C 0.40576 0.42427 0.44185 0.0
C214 C 0.46349 0.4394 0.44135 0.0
C215 C 0.45145 0.44711 0.45848 0.0
C216 C 0.44688 0.42485 0.42459 0.0
C217 C 0.4377 0.37545 0.3351 0.0
C218 C 0.48844 0.40101 0.33421 0.0
C219 C 0.46383 0.37324 0.30483 0.0
C220 C 0.4385 0.36491 0.31543 0.0
C221 C 0.48881 0.39209 0.31385 0.0
C222 C 0.46286 0.39277 0.34484 0.0
C223 C 0.41005 0.37121 0.34311 0.0
O224 O 0.33591 0.3461 0.37385 0.0
O225 O 0.34474 0.38828 0.36203 0.0
O226 O 0.40504 0.39374 0.34459 0.0
O227 O 0.39889 0.35288 0.35806 0.0
H228 H 0.33329 0.35603 0.32399 0.0
H229 H 0.29662 0.34204 0.29729 0.0
H230 H 0.23403 0.32944 0.3443 0.0
H231 H 0.27035 0.34318 0.37068 0.0
H232 H 0.41172 0.44541 0.47033 0.0
H233 H 0.38338 0.41867 0.44226 0.0
H234 H 0.48566 0.44435 0.44075 0.0
H235 H 0.45663 0.41964 0.41148 0.0
H236 H 0.50755 0.41598 0.34122 0.0
H237 H 0.46366 0.36664 0.28901 0.0
H238 H 0.41922 0.35176 0.30764 0.0
H239 H 0.46254 0.40122 0.36 0.0
C240 C 0.92072 0.66076 0.8505 0.0
C241 C 0.93136 0.66725 0.83033 0.0
C242 C 0.89037 0.67532 0.82045 0.0
C243 C 0.91628 0.67472 0.81536 0.0
C244 C 0.8805 0.66962 0.84078 0.0
C245 C 0.89554 0.6625 0.8556 0.0
U246 U 0.97047 0.63138 0.87828 0.0
O247 O 0.98385 0.63964 0.91073 0.0
O248 O 0.95316 0.59779 0.90134 0.0
C249 C 0.96819 0.61359 0.91639 0.0
C250 C 0.93363 0.65038 0.86666 0.0
C251 C 0.98039 0.60013 0.93089 0.0
C252 C 0.98584 0.58925 0.96654 0.0
C253 C 0.97833 0.60453 0.952 0.0
C254 C 0.99828 0.56525 0.93906 0.0
C255 C 0.99535 0.56915 0.96019 0.0
C256 C 0.99097 0.58078 0.92444 0.0
C257 C 0.02709 0.6249 0.83826 0.0
C258 C 0.0584 0.60329 0.82928 0.0
C259 C 0.04398 0.62766 0.8032 0.0
C260 C 0.02834 0.63439 0.81796 0.0
C261 C 0.05813 0.61087 0.80848 0.0
C262 C 0.04298 0.61027 0.84404 0.0
C263 C 0.00671 0.62722 0.85267 0.0
O264 O 0.92897 0.62373 0.86591 0.0
O265 O 0.9588 0.66691 0.87332 0.0
O266 O 0.98162 0.60672 0.85526 0.0
O267 O 0.01238 0.65002 0.86365 0.0
H268 H 0.95077 0.66591 0.8261 0.0
H269 H 0.92423 0.6789 0.79972 0.0
H270 H 0.86072 0.67008 0.84513 0.0
H271 H 0.887 0.65755 0.87107 0.0
H272 H 0.98322 0.59236 0.98276 0.0
H273 H 0.96991 0.6191 0.95726 0.0
H274 H 1.00565 0.54983 0.93391 0.0
H275 H 0.99265 0.57702 0.9082 0.0
H276 H 0.06874 0.59015 0.83399 0.0
H277 H 0.04375 0.63438 0.78744 0.0
H278 H 0.01613 0.64577 0.81333 0.0
H279 H 0.0422 0.60285 0.85972 0.0
C280 C 0.34504 0.30194 0.84677 0.0
C281 C 0.34539 0.30857 0.82576 0.0
C282 C 0.32907 0.25889 0.817 0.0
C283 C 0.33734 0.28713 0.81095 0.0
C284 C 0.32744 0.25248 0.83812 0.0
C285 C 0.33539 0.27377 0.8528 0.0
U286 U 0.37267 0.37755 0.86939 0.0
O287 O 0.36889 0.38885 0.90179 0.0
O288 O 0.41065 0.39769 0.88822 0.0
C289 C 0.39606 0.3978 0.90471 0.0
C290 C 0.35699 0.32361 0.86271 0.0
C291 C 0.41013 0.41598 0.92219 0.0
C292 C 0.42533 0.41876 0.95771 0.0
C293 C 0.41007 0.40301 0.94108 0.0
C294 C 0.44032 0.46114 0.93702 0.0
C295 C 0.44104 0.44795 0.95584 0.0
C296 C 0.42509 0.44521 0.92024 0.0
C297 C 0.3704 0.43647 0.83284 0.0
C298 C 0.39872 0.48683 0.83287 0.0
C299 C 0.36828 0.46505 0.80398 0.0
C300 C 0.35913 0.43898 0.8138 0.0
C301 C 0.38894 0.48893 0.81309 0.0
C302 C 0.38942 0.46067 0.84278 0.0
C303 C 0.36533 0.4081 0.83988 0.0
O304 O 0.38254 0.34273 0.85921 0.0
O305 O 0.34032 0.33386 0.87092 0.0
O306 O 0.34687 0.39671 0.85471 0.0
O307 O 0.38764 0.40278 0.84132 0.0
H308 H 0.35281 0.33028 0.82081 0.0
H309 H 0.33889 0.29276 0.79479 0.0
H310 H 0.32072 0.23095 0.84332 0.0
H311 H 0.33495 0.26826 0.86894 0.0
H312 H 0.42499 0.40798 0.97204 0.0
H313 H 0.3987 0.38043 0.94285 0.0
H314 H 0.45227 0.48359 0.93507 0.0
H315 H 0.42544 0.45556 0.90571 0.0
H316 H 0.4149 0.50507 0.84 0.0
H317 H 0.36098 0.46612 0.78855 0.0
H318 H 0.34469 0.42043 0.80582 0.0
H319 H 0.39839 0.45906 0.85746 0.0
C320 C 0.73194 0.07868 0.84888 0.0
C321 C 0.72755 0.0698 0.8283 0.0
C322 C 0.77285 0.10734 0.81881 0.0
C323 C 0.74807 0.08399 0.81331 0.0
C324 C 0.77727 0.11535 0.83956 0.0
C325 C 0.75704 0.10117 0.85438 0.0
U326 U 0.65792 0.03561 0.87469 0.0
O327 O 0.65064 0.01815 0.90621 0.0
O328 O 0.64231 0.05496 0.89867 0.0
C329 C 0.64216 0.03703 0.91287 0.0
C330 C 0.71047 0.06709 0.86503 0.0
C331 C 0.61902 0.02821 0.92784 0.0
C332 C 0.60386 0.0357 0.96165 0.0
C333 C 0.62481 0.0418 0.94685 0.0
C334 C 0.57059 1.00156 0.93878 0.0
C335 C 0.57648 0.01527 0.95805 0.0
C336 C 0.59175 0.0081 0.92369 0.0
C337 C 0.60073 0.9902 0.83192 0.0
C338 C 0.55923 0.94841 0.82298 0.0
C339 C 0.57642 0.98879 0.80007 0.0
C340 C 0.59843 1.00297 0.81351 0.0
C341 C 0.55616 0.96163 0.8049 0.0
C342 C 0.5815 0.96258 0.83636 0.0
C343 C 0.62139 0.00666 0.84729 0.0
O344 O 0.69072 0.0763 0.86517 0.0
O345 O 0.70145 0.04034 0.86995 0.0
O346 O 0.63547 0.99572 0.8582 0.0
O347 O 0.6272 0.03326 0.85082 0.0
H348 H 0.70813 0.05254 0.82378 0.0
H349 H 0.74413 0.07748 0.79738 0.0
H350 H 0.79625 0.13302 0.84428 0.0
H351 H 0.76071 0.10837 0.87019 0.0
H352 H 0.60922 0.0475 0.97585 0.0
H353 H 0.64567 0.05764 0.95019 0.0
H354 H 0.54981 0.98566 0.93541 0.0
H355 H 0.58687 0.99759 0.90893 0.0
H356 H 0.544 0.92749 0.82705 0.0
H357 H 0.57445 0.99978 0.78644 0.0
H358 H 0.61311 0.02429 0.80984 0.0
H359 H 0.58291 0.95247 0.85062 0.0
C360 C 0.34683 0.09418 0.67755 0.0
C361 C 0.3418 0.08352 0.69778 0.0
C362 C 0.33183 0.12311 0.70854 0.0
C363 C 0.33414 0.09786 0.7132 0.0
C364 C 0.33588 0.13288 0.68812 0.0
C365 C 0.34328 0.11857 0.67282 0.0
U366 U 0.37588 0.04273 0.65514 0.0
O367 O 0.37104 0.02616 0.62338 0.0
O368 O 0.41272 0.05508 0.63478 0.0
C369 C 0.39783 0.04069 0.61913 0.0
C370 C 0.35804 0.08216 0.66128 0.0
C371 C 0.41161 0.02987 0.60381 0.0
C372 C 0.42446 0.02943 0.56783 0.0
C373 C 0.40894 0.03554 0.583 0.0
C374 C 0.4452 0.01104 0.59396 0.0
C375 C 0.44297 0.0175 0.57319 0.0
C376 C 0.42959 0.01722 0.60925 0.0
C377 C 0.37901 0.98709 0.69505 0.0
C378 C 0.40982 0.96323 0.69773 0.0
C379 C 0.38042 0.96313 0.72668 0.0
C380 C 0.36903 0.97811 0.71501 0.0
C381 C 0.40171 0.95667 0.71842 0.0
C382 C 0.39861 0.97862 0.68606 0.0
C383 C 0.3725 0.00938 0.68616 0.0
O384 O 0.38429 0.08611 0.66351 0.0
O385 O 0.34173 0.05694 0.65455 0.0
O386 O 0.35301 1.00277 0.67194 0.0
O387 O 0.39394 0.03372 0.68305 0.0
H388 H 0.34461 0.06474 0.70172 0.0
H389 H 0.33126 0.08995 0.72886 0.0
H390 H 0.33401 0.15211 0.68406 0.0
H391 H 0.34713 0.12713 0.65733 0.0
H392 H 0.42263 0.03477 0.55194 0.0
H393 H 0.39551 0.04568 0.57853 0.0
H394 H 0.45945 1.00182 0.59834 0.0
H395 H 0.43212 0.01288 0.62524 0.0
H396 H 0.42656 0.95872 0.69125 0.0
H397 H 0.37425 0.95861 0.7427 0.0
H398 H 0.3541 0.98471 0.72221 0.0
H399 H 0.40666 0.9856 0.6707 0.0
C400 C 0.93063 0.27904 0.68242 0.0
C401 C 0.93689 0.28527 0.70332 0.0
C402 C 0.90342 0.23785 0.71267 0.0
C403 C 0.92341 0.2647 0.7184 0.0
C404 C 0.89836 0.23159 0.69165 0.0
C405 C 0.91178 0.25199 0.67672 0.0
U406 U 0.97641 0.35318 0.66017 0.0
O407 O 0.99503 0.36267 0.62897 0.0
O408 O 0.96175 0.37587 0.63811 0.0
C409 C 0.97851 0.37465 0.6234 0.0
C410 C 0.94135 0.30051 0.66619 0.0
C411 C 0.98873 0.39745 0.60807 0.0
C412 C 0.99408 0.40938 0.57172 0.0
C413 C 0.98932 0.38983 0.58749 0.0
C414 C 0.99933 0.44521 0.59697 0.0
C415 C 0.99882 0.4373 0.57615 0.0
C416 C 0.99411 0.42536 0.61282 0.0
C417 C 0.02673 0.4085 0.69934 0.0
C418 C 0.0473 0.45953 0.69997 0.0
C419 C 0.05283 0.4334 0.72918 0.0
C420 C 0.03798 0.40831 0.71882 0.0
C421 C 0.05667 0.45918 0.72022 0.0
C422 C 0.03222 0.43423 0.68958 0.0
C423 C 1.0064 0.38153 0.69136 0.0
O424 O 0.93416 0.32163 0.66781 0.0
O425 O 0.96752 0.30812 0.66029 0.0
O426 O 0.01544 0.36797 0.6783 0.0
O427 O 0.98119 0.37975 0.68722 0.0
H428 H 0.95143 0.30616 0.70797 0.0
H429 H 0.92767 0.27015 0.73449 0.0
H430 H 0.88344 0.211 0.68674 0.0
H431 H 0.90674 0.24685 0.66066 0.0
H432 H 0.99287 0.40216 0.55599 0.0
H433 H 0.98476 0.36825 0.58351 0.0
H434 H 1.00337 0.4666 0.60104 0.0
H435 H 0.99353 0.43162 0.62864 0.0
H436 H 0.04988 0.47916 0.69278 0.0
H437 H 0.05999 0.43255 0.74469 0.0
H438 H 0.03385 0.3886 0.72657 0.0
H439 H 0.02361 0.4347 0.67452 0.0
C440 C 0.70918 0.66578 0.68555 0.0
C441 C 0.70212 0.66233 0.70658 0.0
C442 C 0.75183 0.6808 0.71552 0.0
C443 C 0.72335 0.6699 0.72149 0.0
C444 C 0.75857 0.68558 0.69447 0.0
C445 C 0.73748 0.67809 0.67969 0.0
U446 U 0.63425 0.63681 0.66157 0.0
O447 O 0.624 0.64123 0.62909 0.0
O448 O 0.61663 0.59952 0.64181 0.0
C449 C 0.6162 0.61428 0.62552 0.0
C450 C 0.68807 0.65406 0.66923 0.0
C451 C 0.59587 0.60032 0.60913 0.0
C452 C 0.58905 0.58838 0.5728 0.0
C453 C 0.60596 0.60418 0.5888 0.0
C454 C 0.55123 0.56489 0.59715 0.0
C455 C 0.56176 0.56833 0.5769 0.0
C456 C 0.56821 0.58087 0.61324 0.0
C457 C 0.57442 0.63606 0.6996 0.0
C458 C 0.52428 0.62327 0.69728 0.0
C459 C 0.54659 0.62935 0.73063 0.0
C460 C 0.57235 0.63617 0.72105 0.0
C461 C 0.52205 0.62244 0.71898 0.0
C462 C 0.55038 0.63001 0.68762 0.0
C463 C 0.60213 0.64136 0.69103 0.0
O464 O 0.66954 0.62803 0.67196 0.0
O465 O 0.67732 0.6705 0.66133 0.0
O466 O 0.61284 0.66041 0.67645 0.0
O467 O 0.60821 0.61953 0.68908 0.0
H468 H 0.68032 0.65281 0.71142 0.0
H469 H 0.71744 0.66588 0.73757 0.0
H470 H 0.78025 0.69439 0.68935 0.0
H471 H 0.74333 0.6809 0.66355 0.0
H472 H 0.59763 0.59109 0.55733 0.0
H473 H 0.62741 0.61871 0.58539 0.0
H474 H 0.53015 0.54949 0.60053 0.0
H475 H 0.56011 0.57744 0.62885 0.0
H476 H 0.50584 0.61817 0.68783 0.0
H477 H 0.54587 0.62817 0.74728 0.0
H478 H 0.59071 0.64072 0.73053 0.0
H479 H 0.55166 0.62991 0.67097 0.0
C480 C 0.23559 0.31103 0.28706 0.0
C481 C 0.24085 0.33071 0.30291 0.0
C482 C 0.21482 0.30731 0.27221 0.0
C483 C 0.1999 0.32453 0.27278 0.0
C484 C 0.20497 0.3441 0.28898 0.0
C485 C 0.22514 0.34674 0.3039 0.0
C486 C 0.20939 0.28529 0.25582 0.0
C487 C 0.18958 0.36286 0.29029 0.0
C488 C 0.1757 0.3453 0.22313 0.0
C489 C 0.1464 0.33192 0.22505 0.0
C490 C 0.19324 0.34206 0.23815 0.0
C491 C 0.18127 0.32469 0.2555 0.0
C492 C 0.15164 0.31019 0.25716 0.0
C493 C 0.13451 0.31425 0.242 0.0
C494 C 0.22465 0.35796 0.23571 0.0
C495 C 0.13801 0.28994 0.27464 0.0
H496 H 0.24748 0.29836 0.28641 0.0
H497 H 0.22923 0.36201 0.31612 0.0
H498 H 0.18745 0.27691 0.25018 0.0
H499 H 0.22372 0.2947 0.24259 0.0
H500 H 0.21362 0.26749 0.26172 0.0
H501 H 0.19677 0.37773 0.30341 0.0
H502 H 0.19265 0.37516 0.27583 0.0
H503 H 0.16673 0.34983 0.29212 0.0
H504 H 0.18495 0.35905 0.21007 0.0
H505 H 0.11186 0.30343 0.24329 0.0
H506 H 0.23439 0.34289 0.23425 0.0
H507 H 0.23369 0.371 0.24954 0.0
H508 H 0.23052 0.37188 0.22193 0.0
H509 H 0.14088 0.27037 0.27194 0.0
H510 H 0.11515 0.28438 0.2758 0.0
H511 H 0.14792 0.29864 0.2896 0.0
C512 C 0.66181 0.78554 0.22959 0.0
C513 C 0.67747 0.76947 0.23059 0.0
C514 C 0.66453 0.80569 0.24459 0.0
C515 C 0.68383 0.81035 0.26087 0.0
C516 C 0.70055 0.79492 0.26155 0.0
C517 C 0.69677 0.77423 0.24658 0.0
C518 C 0.64602 0.82134 0.24332 0.0
C519 C 0.72196 0.79959 0.27825 0.0
C520 C 0.69595 0.87631 0.29163 0.0
C521 C 0.6777 0.8649 0.30837 0.0
C522 C 0.69966 0.85871 0.27664 0.0
C523 C 0.68398 0.82918 0.27812 0.0
C524 C 0.66597 0.81766 0.29522 0.0
C525 C 0.66321 0.83562 0.31016 0.0
C526 C 0.72022 0.87164 0.25923 0.0
C527 C 0.64882 0.78635 0.2974 0.0
H528 H 0.64673 0.78174 0.2173 0.0
H529 H 0.70908 0.76197 0.24729 0.0
H530 H 0.63365 0.81827 0.25775 0.0
H531 H 0.65917 0.8442 0.2416 0.0
H532 H 0.63125 0.81433 0.23016 0.0
H533 H 0.73943 0.79462 0.27267 0.0
H534 H 0.73085 0.82156 0.28393 0.0
H535 H 0.71179 0.78538 0.29141 0.0
H536 H 0.70748 0.89893 0.29038 0.0
H537 H 0.64898 0.82676 0.32304 0.0
H538 H 0.70872 0.86916 0.24455 0.0
H539 H 0.73419 0.86064 0.25752 0.0
H540 H 0.73334 0.89439 0.26171 0.0
H541 H 0.63475 0.77836 0.28394 0.0
H542 H 0.63582 0.78078 0.31165 0.0
H543 H 0.66289 0.77537 0.29768 0.0
C544 C 0.11604 0.79673 0.286 0.0
C545 C 0.12829 0.78764 0.30189 0.0
C546 C 0.1328 0.81769 0.27205 0.0
C547 C 0.16246 0.82893 0.27361 0.0
C548 C 0.1748 0.82014 0.28992 0.0
C549 C 0.15757 0.79983 0.30395 0.0
C550 C 0.11864 0.82722 0.25545 0.0
C551 C 0.2063 0.83157 0.2922 0.0
C552 C 0.20623 0.85167 0.22486 0.0
C553 C 0.21954 0.88095 0.22706 0.0
C554 C 0.18711 0.83472 0.23965 0.0
C555 C 0.18083 0.84731 0.25706 0.0
C556 C 0.19379 0.87698 0.25922 0.0
C557 C 0.21324 0.89347 0.24424 0.0
C558 C 0.17407 0.8032 0.23682 0.0
C559 C 0.18663 0.89139 0.27698 0.0
H560 H 0.09337 0.78762 0.2846 0.0
H561 H 0.16706 0.79283 0.31627 0.0
H562 H 0.13065 0.84986 0.2518 0.0
H563 H 0.11729 0.81505 0.24122 0.0
H564 H 0.09695 0.8236 0.26005 0.0
H565 H 0.21256 0.82223 0.30556 0.0
H566 H 0.21574 0.8273 0.27803 0.0
H567 H 0.21527 0.85472 0.29421 0.0
H568 H 0.21124 0.84192 0.21167 0.0
H569 H 0.22318 0.91615 0.24579 0.0
H570 H 0.15096 0.79539 0.23554 0.0
H571 H 0.17844 0.79282 0.25042 0.0
H572 H 0.18205 0.79669 0.22283 0.0
H573 H 0.16549 0.89086 0.27441 0.0
H574 H 0.20193 0.91369 0.27846 0.0
H575 H 0.18581 0.88038 0.29175 0.0
C576 C 0.77491 0.6971 0.75003 0.0
C577 C 0.77441 0.68487 0.73074 0.0
C578 C 0.79557 0.69954 0.76467 0.0
C579 C 0.81604 0.68929 0.75994 0.0
C580 C 0.81609 0.67776 0.74026 0.0
C581 C 0.79532 0.67564 0.72599 0.0
C582 C 0.79536 0.71286 0.78522 0.0
C583 C 0.83728 0.6663 0.73459 0.0
C584 C 0.88129 0.70371 0.79233 0.0
C585 C 0.87206 0.67943 0.80462 0.0
C586 C 0.86298 0.70794 0.77826 0.0
C587 C 0.83512 0.68708 0.77617 0.0
C588 C 0.82587 0.66259 0.78861 0.0
C589 C 0.84436 0.65918 0.80271 0.0
C590 C 0.8733 0.73471 0.76575 0.0
C591 C 0.79643 0.63977 0.78689 0.0
H592 H 0.7591 0.70468 0.7537 0.0
H593 H 0.7949 0.66577 0.71126 0.0
H594 H 0.79567 0.6989 0.798 0.0
H595 H 0.81456 0.73276 0.78659 0.0
H596 H 0.77672 0.7176 0.78716 0.0
H597 H 0.83591 0.66011 0.71814 0.0
H598 H 0.8589 0.68217 0.73766 0.0
H599 H 0.83372 0.64759 0.74426 0.0
H600 H 0.90258 0.71958 0.79405 0.0
H601 H 0.83721 0.6404 0.81223 0.0
H602 H 0.85993 0.74603 0.76891 0.0
H603 H 0.87159 0.72979 0.74907 0.0
H604 H 0.89545 0.74893 0.76924 0.0
H605 H 0.78093 0.64851 0.79037 0.0
H606 H 0.79263 0.6219 0.79755 0.0
H607 H 0.79255 0.63161 0.77091 0.0
C608 C 0.33639 0.21713 0.80491 0.0
C609 C 0.32453 0.23636 0.8016 0.0
C610 C 0.33373 0.19642 0.79038 0.0
C611 C 0.3189 0.19482 0.77193 0.0
C612 C 0.30583 0.21338 0.76881 0.0
C613 C 0.309 0.23413 0.78361 0.0
C614 C 0.3478 0.17695 0.79442 0.0
C615 C 0.2886 0.21133 0.74982 0.0
C616 C 0.34598 0.16947 0.72569 0.0
C617 C 0.3277 0.14088 0.72488 0.0
C618 C 0.34272 0.18722 0.74057 0.0
C619 C 0.32041 0.17627 0.75499 0.0
C620 C 0.30143 0.14746 0.75403 0.0
C621 C 0.30559 0.12996 0.73916 0.0
C622 C 0.36361 0.21768 0.74107 0.0
C623 C 0.27703 0.13483 0.76881 0.0
H624 H 0.34866 0.21884 0.81865 0.0
H625 H 0.29932 0.24858 0.78114 0.0
H626 H 0.33216 0.15476 0.79355 0.0
H627 H 0.36399 0.18005 0.78243 0.0
H628 H 0.35796 0.18046 0.80977 0.0
H629 H 0.28038 0.22775 0.74939 0.0
H630 H 0.30135 0.2133 0.73574 0.0
H631 H 0.27062 0.19033 0.74938 0.0
H632 H 0.36325 0.17792 0.71479 0.0
H633 H 0.2913 0.10788 0.7385 0.0
H634 H 0.37425 0.22258 0.75623 0.0
H635 H 0.35256 0.23155 0.73913 0.0
H636 H 0.37986 0.22283 0.72881 0.0
H637 H 0.28394 0.12713 0.7827 0.0
H638 H 0.25949 0.11661 0.7618 0.0
H639 H 0.26905 0.15043 0.77378 0.0
C640 C 0.89825 0.21117 0.74592 0.0
C641 C 0.88615 0.21694 0.7283 0.0
C642 C 0.88156 0.19147 0.76067 0.0
C643 C 0.85213 0.17747 0.75774 0.0
C644 C 0.83997 0.183 0.73984 0.0
C645 C 0.85708 0.20265 0.72542 0.0
C646 C 0.89537 0.18566 0.77935 0.0
C647 C 0.80868 0.16893 0.73626 0.0
C648 C 0.8041 0.11268 0.78806 0.0
C649 C 0.79344 0.1248 0.80312 0.0
C650 C 0.82424 0.12961 0.77366 0.0
C651 C 0.83344 0.15921 0.77417 0.0
C652 C 0.82279 0.17145 0.78943 0.0
C653 C 0.80301 0.15413 0.80369 0.0
C654 C 0.83556 0.11588 0.75785 0.0
C655 C 0.83193 0.20289 0.79048 0.0
H656 H 0.92075 0.22193 0.74809 0.0
H657 H 0.84752 0.20736 0.71201 0.0
H658 H 0.885 0.1881 0.79367 0.0
H659 H 0.89299 0.16359 0.7789 0.0
H660 H 0.9181 0.19981 0.78014 0.0
H661 H 0.80277 0.17419 0.72094 0.0
H662 H 0.80099 0.14576 0.73743 0.0
H663 H 0.79769 0.1756 0.7483 0.0
H664 H 0.79696 0.09003 0.78775 0.0
H665 H 0.79464 0.16357 0.8152 0.0
H666 H 0.85878 0.12465 0.75893 0.0
H667 H 0.83044 0.12056 0.74213 0.0
H668 H 0.82689 0.0927 0.75988 0.0
H669 H 0.85499 0.21361 0.79265 0.0
H670 H 0.82153 0.20904 0.80326 0.0
H671 H 0.82704 0.21068 0.77578 0.0
C672 C 1.0066 0.4852 0.06024 0.0
C673 C 0.02017 0.46754 0.05613 0.0
C674 C 1.00156 0.50101 0.04447 0.0
C675 C 0.01118 0.50004 0.02419 0.0
C676 C 0.02454 0.48212 0.01984 0.0
C677 C 0.02823 0.4657 0.03566 0.0
C678 C 0.98613 0.51896 0.04953 0.0
C679 C 0.03601 0.48101 0.99864 0.0
C680 C 0.98058 0.52338 0.97858 0.0
C681 C 1.00032 0.55115 0.97576 0.0
C682 C 0.98367 0.50662 0.99444 0.0
C683 C 0.00737 0.51779 1.00751 0.0
C684 C 0.02765 0.54576 1.00439 0.0
C685 C 0.02366 0.56225 0.9887 0.0
C686 C 0.96149 0.47702 0.99733 0.0
C687 C 0.05357 0.55823 0.01759 0.0
H688 H 1.00037 0.48723 0.07584 0.0
H689 H 0.03775 0.45151 0.03184 0.0
H690 H 1.00016 0.54147 0.047 0.0
H691 H 0.9679 0.51368 0.03911 0.0
H692 H 0.97848 0.51614 0.06571 0.0
H693 H 0.0415 0.4628 0.9969 0.0
H694 H 0.02079 0.47986 0.98648 0.0
H695 H 0.05528 0.50056 0.99597 0.0
H696 H 0.96237 0.51504 0.96865 0.0
H697 H 0.03878 0.58384 0.9865 0.0
H698 H 0.953 0.47423 1.01326 0.0
H699 H 0.97091 0.46176 0.99517 0.0
H700 H 0.94385 0.47184 0.98634 0.0
H701 H 0.0475 0.55869 0.03391 0.0
H702 H 0.06773 0.57995 1.01275 0.0
H703 H 0.06537 0.5449 0.0168 0.0
C704 C 0.4596 0.49029 0.97904 0.0
C705 C 0.45874 0.4641 0.97333 0.0
C706 C 0.47573 0.50515 0.99591 0.0
C707 C 0.49175 0.49378 1.00712 0.0
C708 C 0.49097 0.4674 1.0014 0.0
C709 C 0.47455 0.45293 0.98461 0.0
C710 C 0.47562 0.533 1.00173 0.0
C711 C 0.50728 0.4543 1.01319 0.0
C712 C 0.5545 0.54321 0.03786 0.0
C713 C 0.5437 0.53967 0.05803 0.0
C714 C 0.53774 0.52866 0.02122 0.0
C715 C 0.50954 0.50946 0.02475 0.0
C716 C 0.4987 0.505 0.04512 0.0
C717 C 0.51575 0.52041 0.06141 0.0
C718 C 0.55021 0.53398 0.99979 0.0
C719 C 0.46887 0.4847 0.04998 0.0
H720 H 0.44724 0.49893 0.97056 0.0
H721 H 0.4743 0.43288 0.98018 0.0
H722 H 0.47221 0.53379 0.01855 0.0
H723 H 0.49633 0.5502 0.99793 0.0
H724 H 0.45912 0.53699 0.99347 0.0
H725 H 0.50477 0.43381 1.00663 0.0
H726 H 0.52994 0.46873 1.01319 0.0
H727 H 0.50008 0.45095 0.02947 0.0
H728 H 0.57618 0.55744 0.03497 0.0
H729 H 0.50679 0.51771 0.07676 0.0
H730 H 0.53875 0.54306 0.99001 0.0
H731 H 0.54786 0.51389 0.99263 0.0
H732 H 0.57282 0.54866 0.99972 0.0
H733 H 0.45569 0.49662 0.0511 0.0
H734 H 0.46778 0.47431 0.0651 0.0
H735 H 0.45969 0.46816 0.03815 0.0
C736 C 0.46142 0.96964 0.04885 0.0
C737 C 0.45757 0.99293 0.0563 0.0
C738 C 0.47975 0.9723 0.03241 0.0
C739 C 0.49468 0.99895 0.02314 0.0
C740 C 0.49094 0.02261 0.0306 0.0
C741 C 0.47251 0.01935 0.04721 0.0
C742 C 0.48348 0.94662 0.02527 0.0
C743 C 0.50632 0.05131 0.02097 0.0
C744 C 0.56243 0.01075 0.99534 0.0
C745 C 0.55466 0.009 0.97451 0.0
C746 C 0.54328 0.00802 1.01119 0.0
C747 C 0.51517 1.00223 1.00629 0.0
C748 C 0.50665 0.99902 0.98542 0.0
C749 C 0.52655 1.00276 0.96975 0.0
C750 C 0.55331 0.0118 0.03322 0.0
C751 C 0.47655 0.99178 0.97969 0.0
H752 H 0.4501 0.94924 0.05602 0.0
H753 H 0.46932 0.0373 0.0528 0.0
H754 H 0.48294 0.94521 1.00822 0.0
H755 H 0.50428 0.94819 0.03031 0.0
H756 H 0.46707 0.92688 0.03168 0.0
H757 H 0.50101 0.06753 0.02848 0.0
H758 H 0.52932 0.05789 0.02201 0.0
H759 H 0.50106 0.05047 1.00438 0.0
H760 H 0.58374 0.01451 0.99937 0.0
H761 H 0.52018 1.0014 0.9538 0.0
H762 H 0.54085 0.99266 0.04235 0.0
H763 H 0.55015 0.02954 0.0403 0.0
H764 H 0.57588 0.01612 0.03444 0.0
H765 H 0.46254 0.97157 0.98703 0.0
H766 H 0.47321 0.98989 0.96278 0.0
H767 H 0.47014 0.00813 0.98556 0.0
C768 C 0.45031 0.98975 0.54437 0.0
C769 C 0.4609 0.01341 0.55709 0.0
C770 C 0.4666 0.98659 0.52814 0.0
C771 C 0.49399 0.00771 0.52451 0.0
C772 C 0.50449 0.0319 0.53717 0.0
C773 C 0.48784 0.0344 0.55339 0.0
C774 C 0.45444 0.96081 0.51474 0.0
C775 C 0.53304 0.05542 0.53325 0.0
C776 C 0.54704 0.98813 0.49646 0.0
C777 C 0.54483 0.99556 0.47591 0.0
C778 C 0.53038 0.99165 0.51221 0.0
C779 C 0.51187 1.00427 0.50773 0.0
C780 C 0.51052 0.01327 0.48731 0.0
C781 C 0.52658 0.00837 0.47164 0.0
C782 C 0.5322 0.98126 0.53364 0.0
C783 C 0.49195 0.02772 0.48145 0.0
H784 H 0.42922 0.97384 0.54707 0.0
H785 H 0.49566 0.053 0.56299 0.0
H786 H 0.45429 0.96719 0.49844 0.0
H787 H 0.46779 0.94905 0.51557 0.0
H788 H 0.43268 0.94652 0.51936 0.0
H789 H 0.53835 0.07265 0.54465 0.0
H790 H 0.54944 0.04725 0.53373 0.0
H791 H 0.53358 0.06421 0.51759 0.0
H792 H 0.56173 0.9793 0.50041 0.0
H793 H 0.52422 0.01416 0.45598 0.0
H794 H 0.51146 0.96467 0.53822 0.0
H795 H 0.53757 0.99863 0.54488 0.0
H796 H 0.54809 0.97243 0.53474 0.0
H797 H 0.47561 0.01417 0.4706 0.0
H798 H 0.50465 0.04763 0.47318 0.0
H799 H 0.48148 0.03264 0.49474 0.0
C800 C 0.01529 0.45596 0.54047 0.0
C801 C 1.00202 0.45749 0.55899 0.0
C802 C 0.01708 0.47368 0.52377 0.0
C803 C 1.00611 0.49407 0.52574 0.0
C804 C 0.9929 0.49596 0.54437 0.0
C805 C 0.99076 0.4775 0.56068 0.0
C806 C 0.03074 0.47059 0.50399 0.0
C807 C 0.98079 0.51736 0.54697 0.0
C808 C 0.03836 0.55914 0.49216 0.0
C809 C 0.01792 0.55405 0.47692 0.0
C810 C 0.03461 0.53986 0.5081 0.0
C811 C 0.00995 0.51451 0.50877 0.0
C812 C 0.98933 0.50892 0.49328 0.0
C813 C 0.99364 0.52872 0.47745 0.0
C814 C 0.05707 0.54673 0.52432 0.0
C815 C 0.96292 0.48192 0.49314 0.0
H816 H 0.02448 0.44097 0.53899 0.0
H817 H 0.97985 0.4785 0.57463 0.0
H818 H 0.01575 0.46638 0.49107 0.0
H819 H 0.04921 0.49047 0.50037 0.0
H820 H 0.03769 0.45326 0.50478 0.0
H821 H 0.9725 0.51716 0.56276 0.0
H822 H 0.99705 0.5388 0.54359 0.0
H823 H 0.9635 0.513 0.53581 0.0
H824 H 0.05751 0.57832 0.49158 0.0
H825 H 0.97777 0.5246 0.46572 0.0
H826 H 0.0659 0.53081 0.52407 0.0
H827 H 0.04785 0.54598 0.53984 0.0
H828 H 0.0745 0.56785 0.52201 0.0
H829 H 0.96763 0.46516 0.48595 0.0
H830 H 0.94602 0.48416 0.48409 0.0
H831 H 0.95495 0.47491 0.50895 0.0
C832 C 0.45638 0.46267 0.49577 0.0
C833 C 0.46885 0.4636 0.47634 0.0
C834 C 0.47142 0.47989 0.51205 0.0
C835 C 0.50028 0.49735 0.50952 0.0
C836 C 0.51363 0.49723 0.49056 0.0
C837 C 0.4977 0.48102 0.47408 0.0
C838 C 0.45612 0.47995 0.53181 0.0
C839 C 0.54482 0.51423 0.48773 0.0
C840 C 0.53421 0.56087 0.5445 0.0
C841 C 0.54519 0.55001 0.5601 0.0
C842 C 0.51949 0.54394 0.52795 0.0
C843 C 0.51641 0.51575 0.52676 0.0
C844 C 0.52806 0.50495 0.54236 0.0
C845 C 0.54198 0.52214 0.55901 0.0
C846 C 0.50697 0.55612 0.51188 0.0
C847 C 0.5256 0.47517 0.54171 0.0
H848 H 0.43466 0.44858 0.49849 0.0
H849 H 0.50801 0.48251 0.45939 0.0
H850 H 0.46703 0.47605 0.54523 0.0
H851 H 0.45607 0.50097 0.53394 0.0
H852 H 0.43403 0.46391 0.53183 0.0
H853 H 0.5524 0.51062 0.47248 0.0
H854 H 0.55001 0.53696 0.48927 0.0
H855 H 0.55642 0.5087 0.49994 0.0
H856 H 0.53701 0.58257 0.54536 0.0
H857 H 0.55087 0.51396 0.57102 0.0
H858 H 0.4839 0.54361 0.51129 0.0
H859 H 0.51552 0.55493 0.49645 0.0
H860 H 0.51127 0.5784 0.51505 0.0
H861 H 0.50453 0.46064 0.54744 0.0
H862 H 0.54158 0.47248 0.55157 0.0
H863 H 0.52793 0.46882 0.52577 0.0
C864 C 0.92747 0.51403 0.28815 0.0
C865 C 0.95446 0.53624 0.28772 0.0
C866 C 0.92069 0.49039 0.27552 0.0
C867 C 0.94119 0.48932 0.26179 0.0
C868 C 0.9675 0.51275 0.25991 0.0
C869 C 0.9739 0.53577 0.27301 0.0
C870 C 0.89242 0.46595 0.27825 0.0
C871 C 0.98978 0.51268 0.24509 0.0
C872 C 0.95293 0.42568 0.24766 0.0
C873 C 0.94687 0.42369 0.22653 0.0
C874 C 0.94801 0.445 0.26006 0.0
C875 C 0.93715 0.46296 0.25103 0.0
C876 C 0.9279 0.45876 0.23039 0.0
C877 C 0.93297 0.43916 0.21829 0.0
C878 C 0.95706 0.44808 0.28231 0.0
C879 C 0.91473 0.47655 0.22073 0.0
H880 H 0.91197 0.51442 0.29909 0.0
H881 H 0.99489 0.55249 0.27259 0.0
H882 H 0.88583 0.45248 0.26438 0.0
H883 H 0.89355 0.45279 0.29133 0.0
H884 H 0.87606 0.47348 0.28205 0.0
H885 H 0.00801 0.5335 0.24412 0.0
H886 H 0.99746 0.49688 0.25015 0.0
H887 H 0.98087 0.5067 0.22945 0.0
H888 H 0.96365 0.41385 0.25424 0.0
H889 H 0.92749 0.43708 0.20211 0.0
H890 H 0.94067 0.44981 0.29233 0.0
H891 H 0.97652 0.46764 0.28414 0.0
H892 H 0.96128 0.43006 0.2877 0.0
H893 H 0.89739 0.47646 0.23063 0.0
H894 H 0.90638 0.46903 0.20514 0.0
H895 H 0.93059 0.49865 0.21949 0.0
C896 C 0.51143 0.42757 0.28704 0.0
C897 C 0.51303 0.40731 0.30034 0.0
C898 C 0.53337 0.44247 0.27349 0.0
C899 C 0.55753 0.43677 0.27311 0.0
C900 C 0.55903 0.41579 0.28628 0.0
C901 C 0.5367 0.40138 0.29998 0.0
C902 C 0.53077 0.46465 0.25978 0.0
C903 C 0.58416 0.40877 0.28637 0.0
C904 C 0.59563 0.46906 0.22419 0.0
C905 C 0.61168 0.49661 0.23089 0.0
C906 C 0.5805 0.44771 0.23834 0.0
C907 C 0.58126 0.45428 0.25951 0.0
C908 C 0.60032 0.48094 0.26653 0.0
C909 C 0.61517 0.5019 0.25213 0.0
C910 C 0.56154 0.41894 0.23047 0.0
C911 C 0.60259 0.48833 0.2891 0.0
H912 H 0.49289 0.43186 0.28738 0.0
H913 H 0.53764 0.38544 0.31024 0.0
H914 H 0.54771 0.48556 0.26336 0.0
H915 H 0.53314 0.4601 0.24339 0.0
H916 H 0.51025 0.46591 0.2617 0.0
H917 H 0.57766 0.38606 0.28962 0.0
H918 H 0.59591 0.41412 0.27158 0.0
H919 H 0.59858 0.42079 0.29883 0.0
H920 H 0.59355 0.46457 0.20785 0.0
H921 H 0.62758 0.52304 0.25757 0.0
H922 H 0.53955 0.41676 0.23031 0.0
H923 H 0.56231 0.40233 0.24078 0.0
H924 H 0.56738 0.41545 0.21461 0.0
H925 H 0.58379 0.49149 0.29396 0.0
H926 H 0.62156 0.50788 0.2924 0.0
H927 H 0.60331 0.47094 0.29852 0.0
C928 C 0.4851 0.06709 0.2524 0.0
C929 C 0.48549 0.05873 0.23192 0.0
C930 C 0.50782 0.07198 0.26547 0.0
C931 C 0.53178 0.0693 0.25766 0.0
C932 C 0.53376 0.06458 0.23637 0.0
C933 C 0.51043 0.05912 0.22372 0.0
C934 C 0.50493 0.07701 0.28808 0.0
C935 C 0.55921 0.06202 0.22745 0.0
C936 C 0.59348 0.0839 0.29357 0.0
C937 C 0.58667 0.0569 0.30138 0.0
C938 C 0.57593 0.08849 0.27909 0.0
C939 C 0.55155 0.0654 0.27224 0.0
C940 C 0.54518 0.03801 0.27984 0.0
C941 C 0.56274 0.0342 0.29444 0.0
C942 C 0.58317 0.11795 0.27142 0.0
C943 C 0.51955 0.01269 0.27286 0.0
H944 H 0.46614 0.06767 0.25865 0.0
H945 H 0.51098 0.0528 0.20791 0.0
H946 H 0.50306 0.05825 0.29709 0.0
H947 H 0.5239 0.09508 0.29359 0.0
H948 H 0.48618 0.08112 0.29136 0.0
H949 H 0.55983 0.06371 0.21038 0.0
H950 H 0.57882 0.07848 0.23374 0.0
H951 H 0.55868 0.04127 0.23176 0.0
H952 H 0.6123 0.1013 0.29889 0.0
H953 H 0.55798 0.01327 0.30033 0.0
H954 H 0.56835 0.12576 0.27824 0.0
H955 H 0.58098 0.11821 0.25445 0.0
H956 H 0.60487 0.13268 0.27565 0.0
H957 H 0.50033 0.01431 0.27861 0.0
H958 H 0.51944 0.99262 0.27858 0.0
H959 H 0.51843 0.01183 0.25581 0.0
C960 C 0.05243 0.5873 0.77433 0.0
C961 C 0.06835 0.59733 0.79225 0.0
C962 C 0.05739 0.56877 0.76114 0.0
C963 C 0.07837 0.55951 0.7662 0.0
C964 C 0.0963 0.57155 0.78308 0.0
C965 C 0.09123 0.59057 0.79585 0.0
C966 C 0.03826 0.55695 0.74292 0.0
C967 C 0.11935 0.56265 0.78854 0.0
C968 C 0.05345 0.48314 0.75242 0.0
C969 C 0.06617 0.48472 0.73316 0.0
C970 C 0.05894 0.50731 0.76401 0.0
C971 C 0.07767 0.53381 0.75615 0.0
C972 C 0.09212 0.53539 0.7374 0.0
C973 C 0.08591 0.51077 0.72593 0.0
C974 C 0.04309 0.50461 0.78399 0.0
C975 C 0.11276 0.56306 0.72865 0.0
H976 H 0.03457 0.59207 0.77134 0.0
H977 H 0.10423 0.5989 0.80929 0.0
H978 H 0.05056 0.55655 0.72909 0.0
H979 H 0.02327 0.53498 0.74635 0.0
H980 H 0.02604 0.56933 0.73929 0.0
H981 H 0.13322 0.57596 0.80083 0.0
H982 H 0.10997 0.54048 0.79396 0.0
H983 H 0.13228 0.56367 0.77473 0.0
H984 H 0.03793 0.46309 0.75797 0.0
H985 H 0.09599 0.51198 0.71113 0.0
H986 H 0.02757 0.51375 0.78206 0.0
H987 H 0.05766 0.51643 0.79642 0.0
H988 H 0.03167 0.48235 0.78898 0.0
H989 H 0.10165 0.5712 0.71775 0.0
H990 H 0.1297 0.56024 0.71996 0.0
H991 H 0.12245 0.57908 0.74077 0.0
C992 C 0.49218 0.62092 0.74964 0.0
C993 C 0.49441 0.61114 0.72986 0.0
C994 C 0.47033 0.60472 0.76302 0.0
C995 C 0.44978 0.57867 0.75619 0.0
C996 C 0.44929 0.57114 0.73523 0.0
C997 C 0.47186 0.58729 0.72232 0.0
C998 C 0.47113 0.61385 0.78512 0.0
C999 C 0.42665 0.54429 0.72712 0.0
C1000 C 0.43168 0.51841 0.79382 0.0
C1001 C 0.40456 0.51371 0.80009 0.0
C1002 C 0.44637 0.53946 0.77952 0.0
C1003 C 0.4338 0.55669 0.77157 0.0
C1004 C 0.40647 0.55235 0.77814 0.0
C1005 C 0.39196 0.53057 0.79224 0.0
C1006 C 0.47519 0.54282 0.77262 0.0
C1007 C 0.39261 0.5707 0.77056 0.0
H1008 H 0.50883 0.64006 0.75531 0.0
H1009 H 0.47296 0.57969 0.70698 0.0
H1010 H 0.44984 0.61052 0.79045 0.0
H1011 H 0.47833 0.60088 0.79505 0.0
H1012 H 0.48564 0.63631 0.78726 0.0
H1013 H 0.42696 0.54339 0.71003 0.0
H1014 H 0.4297 0.52601 0.73337 0.0
H1015 H 0.40567 0.54224 0.73225 0.0
H1016 H 0.44102 0.50484 0.79962 0.0
H1017 H 0.37082 0.52662 0.79707 0.0
H1018 H 0.49101 0.56428 0.77627 0.0
H1019 H 0.47548 0.5401 0.75569 0.0
H1020 H 0.48164 0.52734 0.78008 0.0
H1021 H 0.40003 0.59011 0.77998 0.0
H1022 H 0.3694 0.55995 0.77209 0.0
H1023 H 0.39807 0.5771 0.75426 0.0
C1024 C 0.50394 0.93738 0.80156 0.0
C1025 C 0.53054 0.94897 0.79216 0.0
C1026 C 0.47962 0.9317 0.79001 0.0
C1027 C 0.48218 0.93819 0.76874 0.0
C1028 C 0.50868 0.94737 0.7589 0.0
C1029 C 0.53251 0.95231 0.77073 0.0
C1030 C 0.45153 0.92108 0.80085 0.0
C1031 C 0.51239 0.95496 0.7363 0.0
C1032 C 0.42159 0.92397 0.73206 0.0
C1033 C 0.41986 0.94992 0.73256 0.0
C1034 C 0.44063 0.91898 0.74485 0.0
C1035 C 0.45876 0.94084 0.75766 0.0
C1036 C 0.4564 0.9668 0.7585 0.0
C1037 C 0.43674 0.97086 0.74607 0.0
C1038 C 0.44199 0.89077 0.74418 0.0
C1039 C 0.47553 0.99084 0.77176 0.0
H1040 H 0.50223 0.9347 0.81813 0.0
H1041 H 0.55299 0.96062 0.76337 0.0
H1042 H 0.44388 0.9379 0.80123 0.0
H1043 H 0.43579 0.90311 0.79231 0.0
H1044 H 0.45268 0.91434 0.81692 0.0
H1045 H 0.53359 0.9585 0.73054 0.0
H1046 H 0.49643 0.9382 0.72698 0.0
H1047 H 0.50941 0.97453 0.73382 0.0
H1048 H 0.40828 0.90781 0.72162 0.0
H1049 H 0.43527 0.99093 0.74628 0.0
H1050 H 0.44292 0.88315 0.76 0.0
H1051 H 0.46138 0.89284 0.73602 0.0
H1052 H 0.42366 0.87475 0.73611 0.0
H1053 H 0.4738 0.98409 0.7881 0.0
H1054 H 0.47057 0.00948 0.77079 0.0
H1055 H 0.49769 0.9973 0.76691 0.0
loop_
_geom_bond_atom_site_label_1
_geom_bond_atom_site_label_2
_geom_bond_distance
_geom_bond_site_symmetry_2
_ccdc_geom_bond_type
C0 C1 1.264 . S
C0 C5 1.479 . S
C0 C10 1.465 . S
C1 C0 1.264 . S
C1 C3 1.339 . S
C1 H28 0.931 . S
C2 C3 1.395 . S
C2 C4 1.320 . S
C3 C1 1.339 . S
C3 C2 1.395 . S
C3 H29 0.929 . S
C4 C2 1.320 . S
C4 C5 1.405 . S
C4 H30 0.930 . S
C5 C0 1.479 . S
C5 C4 1.405 . S
C5 H31 0.931 . S
U6 O7 2.454 . S
U6 O8 2.458 1_455 S
U6 C9 2.984 1_455 S
U6 C10 2.847 . S
U6 C23 2.882 1_455 S
U6 O24 2.441 . S
U6 O25 2.420 . S
U6 O26 2.455 1_455 S
U6 O27 2.449 . S
O7 U6 2.454 . S
O7 C9 1.353 1_455 S
O8 U6 2.458 1_655 S
O8 C9 1.286 . S
C9 U6 2.984 1_655 S
C9 O7 1.353 1_655 S
C9 O8 1.286 . S
C9 C11 1.363 . S
C10 C0 1.465 . S
C10 U6 2.847 . S
C10 O24 1.249 . S
C10 O25 1.202 . S
C11 C9 1.363 . S
C11 C13 1.408 1_655 S
C11 C16 1.342 . S
C12 C13 1.310 1_655 S
C12 C15 1.461 . S
C12 H32 0.932 1_655 S
C13 C11 1.408 1_455 S
C13 C12 1.310 1_455 S
C13 H33 0.930 . S
C14 C15 1.474 . S
C14 C16 1.285 . S
C14 H34 0.929 . S
C15 C12 1.461 . S
C15 C14 1.474 . S
C16 C11 1.342 . S
C16 C14 1.285 . S
C16 H35 0.930 . S
C17 C20 1.424 . S
C17 C22 1.245 . S
C17 C23 1.428 . S
C18 C21 1.260 . S
C18 C22 1.477 . S
C18 H36 0.932 . S
C19 C20 1.384 . S
C19 C21 1.479 . S
C19 H37 0.929 . S
C20 C17 1.424 . S
C20 C19 1.384 . S
C20 H38 0.928 . S
C21 C18 1.260 . S
C21 C19 1.479 . S
C22 C17 1.245 . S
C22 C18 1.477 . S
C22 H39 0.932 . S
C23 U6 2.882 1_655 S
C23 C17 1.428 . S
C23 O26 1.301 . S
C23 O27 1.282 1_655 S
O24 U6 2.441 . S
O24 C10 1.249 . S
O25 U6 2.420 . S
O25 C10 1.202 . S
O26 U6 2.455 1_655 S
O26 C23 1.301 . S
O27 U6 2.449 . S
O27 C23 1.282 1_455 S
H28 C1 0.931 . S
H29 C3 0.929 . S
H30 C4 0.930 . S
H31 C5 0.931 . S
H32 C12 0.932 1_455 S
H33 C13 0.930 . S
H34 C14 0.929 . S
H35 C16 0.930 . S
H36 C18 0.932 . S
H37 C19 0.929 . S
H38 C20 0.928 . S
H39 C22 0.932 . S
C40 C41 1.264 . S
C40 C45 1.479 . S
C40 C50 1.465 . S
C41 C40 1.264 . S
C41 C43 1.339 . S
C41 H68 0.931 . S
C42 C43 1.395 . S
C42 C44 1.320 . S
C43 C41 1.339 . S
C43 C42 1.395 . S
C43 H69 0.929 . S
C44 C42 1.320 . S
C44 C45 1.405 . S
C44 H70 0.930 . S
C45 C40 1.479 . S
C45 C44 1.405 . S
C45 H71 0.931 . S
U46 O47 2.454 . S
U46 O48 2.458 . S
U46 C49 2.984 . S
U46 C50 2.847 . S
U46 C63 2.882 . S
U46 O64 2.441 . S
U46 O65 2.420 . S
U46 O66 2.455 . S
U46 O67 2.449 . S
O47 U46 2.454 . S
O47 C49 1.353 . S
O48 U46 2.458 . S
O48 C49 1.286 . S
C49 U46 2.984 . S
C49 O47 1.353 . S
C49 O48 1.286 . S
C49 C51 1.363 . S
C50 C40 1.465 . S
C50 U46 2.847 . S
C50 O64 1.249 . S
C50 O65 1.202 . S
C51 C49 1.363 . S
C51 C53 1.408 . S
C51 C56 1.342 . S
C52 C53 1.310 . S
C52 C55 1.461 . S
C52 H72 0.932 . S
C53 C51 1.408 . S
C53 C52 1.310 . S
C53 H73 0.930 . S
C54 C55 1.474 . S
C54 C56 1.285 . S
C54 H74 0.929 . S
C55 C52 1.461 . S
C55 C54 1.474 . S
C56 C51 1.342 . S
C56 C54 1.285 . S
C56 H75 0.930 . S
C57 C60 1.424 . S
C57 C62 1.245 . S
C57 C63 1.428 . S
C58 C61 1.260 . S
C58 C62 1.477 . S
C58 H76 0.932 . S
C59 C60 1.384 . S
C59 C61 1.479 . S
C59 H77 0.929 . S
C60 C57 1.424 . S
C60 C59 1.384 . S
C60 H78 0.928 . S
C61 C58 1.260 . S
C61 C59 1.479 . S
C62 C57 1.245 . S
C62 C58 1.477 . S
C62 H79 0.932 . S
C63 U46 2.882 . S
C63 C57 1.428 . S
C63 O66 1.301 . S
C63 O67 1.282 . S
O64 U46 2.441 . S
O64 C50 1.249 . S
O65 U46 2.420 . S
O65 C50 1.202 . S
O66 U46 2.455 . S
O66 C63 1.301 . S
O67 U46 2.449 . S
O67 C63 1.282 . S
H68 C41 0.931 . S
H69 C43 0.929 . S
H70 C44 0.930 . S
H71 C45 0.931 . S
H72 C52 0.932 . S
H73 C53 0.930 . S
H74 C54 0.929 . S
H75 C56 0.930 . S
H76 C58 0.932 . S
H77 C59 0.929 . S
H78 C60 0.928 . S
H79 C62 0.932 . S
C80 C81 1.264 . S
C80 C85 1.479 . S
C80 C90 1.465 . S
C81 C80 1.264 . S
C81 C83 1.339 . S
C81 H108 0.931 . S
C82 C83 1.395 . S
C82 C84 1.320 . S
C83 C81 1.339 . S
C83 C82 1.395 . S
C83 H109 0.929 . S
C84 C82 1.320 . S
C84 C85 1.405 . S
C84 H110 0.930 . S
C85 C80 1.479 . S
C85 C84 1.405 . S
C85 H111 0.931 . S
U86 O87 2.454 . S
U86 O88 2.458 1_565 S
U86 C89 2.984 1_565 S
U86 C90 2.847 . S
U86 C103 2.882 1_565 S
U86 O104 2.441 . S
U86 O105 2.420 . S
U86 O106 2.455 1_565 S
U86 O107 2.449 . S
O87 U86 2.454 . S
O87 C89 1.353 1_565 S
O88 U86 2.458 1_545 S
O88 C89 1.286 . S
C89 U86 2.984 1_545 S
C89 O87 1.353 1_545 S
C89 O88 1.286 . S
C89 C91 1.363 . S
C90 C80 1.465 . S
C90 U86 2.847 . S
C90 O104 1.249 . S
C90 O105 1.202 . S
C91 C89 1.363 . S
C91 C93 1.408 1_545 S
C91 C96 1.342 . S
C92 C93 1.310 1_545 S
C92 C95 1.461 . S
C92 H112 0.932 1_545 S
C93 C91 1.408 1_565 S
C93 C92 1.310 1_565 S
C93 H113 0.930 . S
C94 C95 1.474 . S
C94 C96 1.285 . S
C94 H114 0.929 . S
C95 C92 1.461 . S
C95 C94 1.474 . S
C96 C91 1.342 . S
C96 C94 1.285 . S
C96 H115 0.930 . S
C97 C100 1.424 . S
C97 C102 1.245 . S
C97 C103 1.428 . S
C98 C101 1.260 . S
C98 C102 1.477 . S
C98 H116 0.932 . S
C99 C100 1.384 . S
C99 C101 1.479 . S
C99 H117 0.929 . S
C100 C97 1.424 . S
C100 C99 1.384 . S
C100 H118 0.928 . S
C101 C98 1.260 . S
C101 C99 1.479 . S
C102 C97 1.245 . S
C102 C98 1.477 . S
C102 H119 0.932 . S
C103 U86 2.882 1_545 S
C103 C97 1.428 . S
C103 O106 1.301 . S
C103 O107 1.282 1_545 S
O104 U86 2.441 . S
O104 C90 1.249 . S
O105 U86 2.420 . S
O105 C90 1.202 . S
O106 U86 2.455 1_545 S
O106 C103 1.301 . S
O107 U86 2.449 . S
O107 C103 1.282 1_565 S
H108 C81 0.931 . S
H109 C83 0.929 . S
H110 C84 0.930 . S
H111 C85 0.931 . S
H112 C92 0.932 1_565 S
H113 C93 0.930 . S
H114 C94 0.929 . S
H115 C96 0.930 . S
H116 C98 0.932 . S
H117 C99 0.929 . S
H118 C100 0.928 . S
H119 C102 0.932 . S
C120 C121 1.264 . S
C120 C125 1.479 . S
C120 C130 1.465 . S
C121 C120 1.264 . S
C121 C123 1.339 . S
C121 H148 0.931 . S
C122 C123 1.395 . S
C122 C124 1.320 . S
C123 C121 1.339 . S
C123 C122 1.395 . S
C123 H149 0.929 . S
C124 C122 1.320 . S
C124 C125 1.405 . S
C124 H150 0.930 . S
C125 C120 1.479 . S
C125 C124 1.405 . S
C125 H151 0.931 . S
U126 O127 2.454 . S
U126 O128 2.458 1_565 S
U126 C129 2.984 1_565 S
U126 C130 2.847 . S
U126 C143 2.882 1_565 S
U126 O144 2.441 . S
U126 O145 2.420 . S
U126 O146 2.455 1_565 S
U126 O147 2.449 . S
O127 U126 2.454 . S
O127 C129 1.353 1_565 S
O128 U126 2.458 1_545 S
O128 C129 1.286 . S
C129 U126 2.984 1_545 S
C129 O127 1.353 1_545 S
C129 O128 1.286 . S
C129 C131 1.363 . S
C130 C120 1.465 . S
C130 U126 2.847 . S
C130 O144 1.249 . S
C130 O145 1.202 . S
C131 C129 1.363 . S
C131 C133 1.408 1_545 S
C131 C136 1.342 . S
C132 C133 1.310 1_545 S
C132 C135 1.461 . S
C132 H152 0.932 1_545 S
C133 C131 1.408 1_565 S
C133 C132 1.310 1_565 S
C133 H153 0.930 . S
C134 C135 1.474 . S
C134 C136 1.285 . S
C134 H154 0.929 . S
C135 C132 1.461 . S
C135 C134 1.474 . S
C136 C131 1.342 . S
C136 C134 1.285 . S
C136 H155 0.930 . S
C137 C140 1.424 . S
C137 C142 1.245 . S
C137 C143 1.428 . S
C138 C141 1.260 . S
C138 C142 1.477 . S
C138 H156 0.932 . S
C139 C140 1.384 . S
C139 C141 1.479 . S
C139 H157 0.929 . S
C140 C137 1.424 . S
C140 C139 1.384 . S
C140 H158 0.928 . S
C141 C138 1.260 . S
C141 C139 1.479 . S
C142 C137 1.245 . S
C142 C138 1.477 . S
C142 H159 0.932 . S
C143 U126 2.882 1_545 S
C143 C137 1.428 . S
C143 O146 1.301 . S
C143 O147 1.282 1_545 S
O144 U126 2.441 . S
O144 C130 1.249 . S
O145 U126 2.420 . S
O145 C130 1.202 . S
O146 U126 2.455 1_545 S
O146 C143 1.301 . S
O147 U126 2.449 . S
O147 C143 1.282 1_565 S
H148 C121 0.931 . S
H149 C123 0.929 . S
H150 C124 0.930 . S
H151 C125 0.931 . S
H152 C132 0.932 1_565 S
H153 C133 0.930 . S
H154 C134 0.929 . S
H155 C136 0.930 . S
H156 C138 0.932 . S
H157 C139 0.929 . S
H158 C140 0.928 . S
H159 C142 0.932 . S
C160 C161 1.264 . S
C160 C165 1.479 . S
C160 C170 1.465 . S
C161 C160 1.264 . S
C161 C163 1.339 . S
C161 H188 0.931 . S
C162 C163 1.395 . S
C162 C164 1.320 . S
C163 C161 1.339 . S
C163 C162 1.395 . S
C163 H189 0.929 . S
C164 C162 1.320 . S
C164 C165 1.405 . S
C164 H190 0.930 . S
C165 C160 1.479 . S
C165 C164 1.405 . S
C165 H191 0.931 . S
U166 O167 2.454 . S
U166 O168 2.458 1_455 S
U166 C169 2.984 1_455 S
U166 C170 2.847 . S
U166 C183 2.882 1_455 S
U166 O184 2.441 . S
U166 O185 2.420 . S
U166 O186 2.455 1_455 S
U166 O187 2.449 . S
O167 U166 2.454 . S
O167 C169 1.353 1_455 S
O168 U166 2.458 1_655 S
O168 C169 1.286 . S
C169 U166 2.984 1_655 S
C169 O167 1.353 1_655 S
C169 O168 1.286 . S
C169 C171 1.363 . S
C170 C160 1.465 . S
C170 U166 2.847 . S
C170 O184 1.249 . S
C170 O185 1.202 . S
C171 C169 1.363 . S
C171 C173 1.408 1_655 S
C171 C176 1.342 . S
C172 C173 1.310 1_655 S
C172 C175 1.461 . S
C172 H192 0.932 1_655 S
C173 C171 1.408 1_455 S
C173 C172 1.310 1_455 S
C173 H193 0.930 . S
C174 C175 1.474 . S
C174 C176 1.285 . S
C174 H194 0.929 . S
C175 C172 1.461 . S
C175 C174 1.474 . S
C176 C171 1.342 . S
C176 C174 1.285 . S
C176 H195 0.930 . S
C177 C180 1.424 . S
C177 C182 1.245 . S
C177 C183 1.428 . S
C178 C181 1.260 . S
C178 C182 1.477 . S
C178 H196 0.932 . S
C179 C180 1.384 . S
C179 C181 1.479 . S
C179 H197 0.929 . S
C180 C177 1.424 . S
C180 C179 1.384 . S
C180 H198 0.928 . S
C181 C178 1.260 . S
C181 C179 1.479 . S
C182 C177 1.245 . S
C182 C178 1.477 . S
C182 H199 0.932 . S
C183 U166 2.882 1_655 S
C183 C177 1.428 . S
C183 O186 1.301 . S
C183 O187 1.282 1_655 S
O184 U166 2.441 . S
O184 C170 1.249 . S
O185 U166 2.420 . S
O185 C170 1.202 . S
O186 U166 2.455 1_655 S
O186 C183 1.301 . S
O187 U166 2.449 . S
O187 C183 1.282 1_455 S
H188 C161 0.931 . S
H189 C163 0.929 . S
H190 C164 0.930 . S
H191 C165 0.931 . S
H192 C172 0.932 1_455 S
H193 C173 0.930 . S
H194 C174 0.929 . S
H195 C176 0.930 . S
H196 C178 0.932 . S
H197 C179 0.929 . S
H198 C180 0.928 . S
H199 C182 0.932 . S
C200 C201 1.264 . S
C200 C205 1.479 . S
C200 C210 1.465 . S
C201 C200 1.264 . S
C201 C203 1.339 . S
C201 H228 0.931 . S
C202 C203 1.395 . S
C202 C204 1.320 . S
C203 C201 1.339 . S
C203 C202 1.395 . S
C203 H229 0.929 . S
C204 C202 1.320 . S
C204 C205 1.405 . S
C204 H230 0.930 . S
C205 C200 1.479 . S
C205 C204 1.405 . S
C205 H231 0.931 . S
U206 O207 2.454 . S
U206 O208 2.458 . S
U206 C209 2.984 . S
U206 C210 2.847 . S
U206 C223 2.882 . S
U206 O224 2.441 . S
U206 O225 2.420 . S
U206 O226 2.455 . S
U206 O227 2.449 . S
O207 U206 2.454 . S
O207 C209 1.353 . S
O208 U206 2.458 . S
O208 C209 1.286 . S
C209 U206 2.984 . S
C209 O207 1.353 . S
C209 O208 1.286 . S
C209 C211 1.363 . S
C210 C200 1.465 . S
C210 U206 2.847 . S
C210 O224 1.249 . S
C210 O225 1.202 . S
C211 C209 1.363 . S
C211 C213 1.408 . S
C211 C216 1.342 . S
C212 C213 1.310 . S
C212 C215 1.461 . S
C212 H232 0.932 . S
C213 C211 1.408 . S
C213 C212 1.310 . S
C213 H233 0.930 . S
C214 C215 1.474 . S
C214 C216 1.285 . S
C214 H234 0.929 . S
C215 C212 1.461 . S
C215 C214 1.474 . S
C216 C211 1.342 . S
C216 C214 1.285 . S
C216 H235 0.930 . S
C217 C220 1.424 . S
C217 C222 1.245 . S
C217 C223 1.428 . S
C218 C221 1.260 . S
C218 C222 1.477 . S
C218 H236 0.932 . S
C219 C220 1.384 . S
C219 C221 1.479 . S
C219 H237 0.929 . S
C220 C217 1.424 . S
C220 C219 1.384 . S
C220 H238 0.928 . S
C221 C218 1.260 . S
C221 C219 1.479 . S
C222 C217 1.245 . S
C222 C218 1.477 . S
C222 H239 0.932 . S
C223 U206 2.882 . S
C223 C217 1.428 . S
C223 O226 1.301 . S
C223 O227 1.282 . S
O224 U206 2.441 . S
O224 C210 1.249 . S
O225 U206 2.420 . S
O225 C210 1.202 . S
O226 U206 2.455 . S
O226 C223 1.301 . S
O227 U206 2.449 . S
O227 C223 1.282 . S
H228 C201 0.931 . S
H229 C203 0.929 . S
H230 C204 0.930 . S
H231 C205 0.931 . S
H232 C212 0.932 . S
H233 C213 0.930 . S
H234 C214 0.929 . S
H235 C216 0.930 . S
H236 C218 0.932 . S
H237 C219 0.929 . S
H238 C220 0.928 . S
H239 C222 0.932 . S
C240 C241 1.264 . S
C240 C245 1.479 . S
C240 C250 1.465 . S
C241 C240 1.264 . S
C241 C243 1.339 . S
C241 H268 0.931 . S
C242 C243 1.395 . S
C242 C244 1.320 . S
C243 C241 1.339 . S
C243 C242 1.395 . S
C243 H269 0.929 . S
C244 C242 1.320 . S
C244 C245 1.405 . S
C244 H270 0.930 . S
C245 C240 1.479 . S
C245 C244 1.405 . S
C245 H271 0.931 . S
U246 O247 2.454 1_455 S
U246 O248 2.458 . S
U246 C249 2.984 . S
U246 C250 2.847 1_455 S
U246 C263 2.882 . S
U246 O264 2.441 1_455 S
U246 O265 2.420 1_455 S
U246 O266 2.455 . S
U246 O267 2.449 . S
O247 U246 2.454 1_655 S
O247 C249 1.353 1_655 S
O248 U246 2.458 . S
O248 C249 1.286 . S
C249 U246 2.984 . S
C249 O247 1.353 1_455 S
C249 O248 1.286 . S
C249 C251 1.363 . S
C250 C240 1.465 . S
C250 U246 2.847 1_655 S
C250 O264 1.249 . S
C250 O265 1.202 . S
C251 C249 1.363 . S
C251 C253 1.408 . S
C251 C256 1.342 . S
C252 C253 1.310 . S
C252 C255 1.461 . S
C252 H272 0.932 1_455 S
C253 C251 1.408 . S
C253 C252 1.310 . S
C253 H273 0.930 1_455 S
C254 C255 1.474 . S
C254 C256 1.285 . S
C254 H274 0.929 . S
C255 C252 1.461 . S
C255 C254 1.474 . S
C256 C251 1.342 . S
C256 C254 1.285 . S
C256 H275 0.930 . S
C257 C260 1.424 . S
C257 C262 1.245 . S
C257 C263 1.428 . S
C258 C261 1.260 . S
C258 C262 1.477 . S
C258 H276 0.932 . S
C259 C260 1.384 . S
C259 C261 1.479 . S
C259 H277 0.929 . S
C260 C257 1.424 . S
C260 C259 1.384 . S
C260 H278 0.928 . S
C261 C258 1.260 . S
C261 C259 1.479 . S
C262 C257 1.245 . S
C262 C258 1.477 . S
C262 H279 0.932 . S
C263 U246 2.882 . S
C263 C257 1.428 . S
C263 O266 1.301 . S
C263 O267 1.282 . S
O264 U246 2.441 1_655 S
O264 C250 1.249 . S
O265 U246 2.420 1_655 S
O265 C250 1.202 . S
O266 U246 2.455 . S
O266 C263 1.301 . S
O267 U246 2.449 . S
O267 C263 1.282 . S
H268 C241 0.931 . S
H269 C243 0.929 . S
H270 C244 0.930 . S
H271 C245 0.931 . S
H272 C252 0.932 1_655 S
H273 C253 0.930 1_655 S
H274 C254 0.929 . S
H275 C256 0.930 . S
H276 C258 0.932 . S
H277 C259 0.929 . S
H278 C260 0.928 . S
H279 C262 0.932 . S
C280 C281 1.264 . S
C280 C285 1.479 . S
C280 C290 1.465 . S
C281 C280 1.264 . S
C281 C283 1.339 . S
C281 H308 0.931 . S
C282 C283 1.395 . S
C282 C284 1.320 . S
C283 C281 1.339 . S
C283 C282 1.395 . S
C283 H309 0.929 . S
C284 C282 1.320 . S
C284 C285 1.405 . S
C284 H310 0.930 . S
C285 C280 1.479 . S
C285 C284 1.405 . S
C285 H311 0.931 . S
U286 O287 2.454 . S
U286 O288 2.458 . S
U286 C289 2.984 . S
U286 C290 2.847 . S
U286 C303 2.882 . S
U286 O304 2.441 . S
U286 O305 2.420 . S
U286 O306 2.455 . S
U286 O307 2.449 . S
O287 U286 2.454 . S
O287 C289 1.353 . S
O288 U286 2.458 . S
O288 C289 1.286 . S
C289 U286 2.984 . S
C289 O287 1.353 . S
C289 O288 1.286 . S
C289 C291 1.363 . S
C290 C280 1.465 . S
C290 U286 2.847 . S
C290 O304 1.249 . S
C290 O305 1.202 . S
C291 C289 1.363 . S
C291 C293 1.408 . S
C291 C296 1.342 . S
C292 C293 1.310 . S
C292 C295 1.461 . S
C292 H312 0.932 . S
C293 C291 1.408 . S
C293 C292 1.310 . S
C293 H313 0.930 . S
C294 C295 1.474 . S
C294 C296 1.285 . S
C294 H314 0.929 . S
C295 C292 1.461 . S
C295 C294 1.474 . S
C296 C291 1.342 . S
C296 C294 1.285 . S
C296 H315 0.930 . S
C297 C300 1.424 . S
C297 C302 1.245 . S
C297 C303 1.428 . S
C298 C301 1.260 . S
C298 C302 1.477 . S
C298 H316 0.932 . S
C299 C300 1.384 . S
C299 C301 1.479 . S
C299 H317 0.929 . S
C300 C297 1.424 . S
C300 C299 1.384 . S
C300 H318 0.928 . S
C301 C298 1.260 . S
C301 C299 1.479 . S
C302 C297 1.245 . S
C302 C298 1.477 . S
C302 H319 0.932 . S
C303 U286 2.882 . S
C303 C297 1.428 . S
C303 O306 1.301 . S
C303 O307 1.282 . S
O304 U286 2.441 . S
O304 C290 1.249 . S
O305 U286 2.420 . S
O305 C290 1.202 . S
O306 U286 2.455 . S
O306 C303 1.301 . S
O307 U286 2.449 . S
O307 C303 1.282 . S
H308 C281 0.931 . S
H309 C283 0.929 . S
H310 C284 0.930 . S
H311 C285 0.931 . S
H312 C292 0.932 . S
H313 C293 0.930 . S
H314 C294 0.929 . S
H315 C296 0.930 . S
H316 C298 0.932 . S
H317 C299 0.929 . S
H318 C300 0.928 . S
H319 C302 0.932 . S
C320 C321 1.264 . S
C320 C325 1.479 . S
C320 C330 1.465 . S
C321 C320 1.264 . S
C321 C323 1.339 . S
C321 H348 0.931 . S
C322 C323 1.395 . S
C322 C324 1.320 . S
C323 C321 1.339 . S
C323 C322 1.395 . S
C323 H349 0.929 . S
C324 C322 1.320 . S
C324 C325 1.405 . S
C324 H350 0.930 . S
C325 C320 1.479 . S
C325 C324 1.405 . S
C325 H351 0.931 . S
U326 O327 2.456 . S
U326 O328 2.458 . S
U326 C329 2.984 . S
U326 C330 2.847 1_565 S
U326 C343 2.882 . S
U326 O344 2.441 1_565 S
U326 O345 2.420 1_565 S
U326 O346 2.455 . S
U326 O347 2.449 . S
O327 U326 2.456 . S
O327 C329 1.355 . S
O328 U326 2.458 . S
O328 C329 1.286 . S
C329 U326 2.984 . S
C329 O327 1.355 . S
C329 O328 1.286 . S
C329 C331 1.363 . S
C330 C320 1.465 . S
C330 U326 2.847 1_545 S
C330 O344 1.249 . S
C330 O345 1.202 . S
C331 C329 1.363 . S
C331 C333 1.408 . S
C331 C336 1.342 . S
C332 C333 1.310 . S
C332 C335 1.461 . S
C332 H352 0.933 . S
C333 C331 1.408 . S
C333 C332 1.310 . S
C333 H353 0.930 1_565 S
C334 C335 1.474 . S
C334 C336 1.285 . S
C334 H354 0.929 . S
C335 C332 1.461 . S
C335 C334 1.474 . S
C336 C331 1.342 . S
C336 C334 1.285 . S
C336 H355 0.930 . S
C337 C340 1.424 . S
C337 C342 1.245 . S
C337 C343 1.428 . S
C338 C341 1.260 . S
C338 C342 1.477 . S
C338 H356 0.932 . S
C339 C340 1.384 . S
C339 C341 1.479 . S
C339 H357 0.929 . S
C340 C337 1.424 . S
C340 C339 1.384 . S
C340 H358 0.928 . S
C341 C338 1.260 . S
C341 C339 1.479 . S
C342 C337 1.245 . S
C342 C338 1.477 . S
C342 H359 0.932 . S
C343 U326 2.882 . S
C343 C337 1.428 . S
C343 O346 1.301 . S
C343 O347 1.282 . S
O344 U326 2.441 1_545 S
O344 C330 1.249 . S
O345 U326 2.420 1_545 S
O345 C330 1.202 . S
O346 U326 2.455 . S
O346 C343 1.301 . S
O347 U326 2.449 . S
O347 C343 1.282 . S
H348 C321 0.931 . S
H349 C323 0.929 . S
H350 C324 0.930 . S
H351 C325 0.931 . S
H352 C332 0.933 . S
H353 C333 0.930 1_545 S
H354 C334 0.929 . S
H355 C336 0.930 . S
H356 C338 0.932 . S
H357 C339 0.929 . S
H358 C340 0.928 . S
H359 C342 0.932 . S
C360 C361 1.264 . S
C360 C365 1.479 . S
C360 C370 1.465 . S
C361 C360 1.264 . S
C361 C363 1.339 . S
C361 H388 0.931 . S
C362 C363 1.395 . S
C362 C364 1.320 . S
C363 C361 1.339 . S
C363 C362 1.395 . S
C363 H389 0.929 . S
C364 C362 1.320 . S
C364 C365 1.405 . S
C364 H390 0.930 . S
C365 C360 1.479 . S
C365 C364 1.405 . S
C365 H391 0.931 . S
U366 O367 2.454 1_565 S
U366 O368 2.458 . S
U366 C369 2.984 . S
U366 C370 2.847 1_565 S
U366 C383 2.882 . S
U366 O384 2.441 1_565 S
U366 O385 2.420 1_565 S
U366 O386 2.455 . S
U366 O387 2.449 . S
O367 U366 2.454 1_545 S
O367 C369 1.353 1_545 S
O368 U366 2.458 . S
O368 C369 1.286 . S
C369 U366 2.984 . S
C369 O367 1.353 1_565 S
C369 O368 1.286 . S
C369 C371 1.363 . S
C370 C360 1.465 . S
C370 U366 2.847 1_545 S
C370 O384 1.249 . S
C370 O385 1.202 . S
C371 C369 1.363 . S
C371 C373 1.408 . S
C371 C376 1.342 . S
C372 C373 1.310 . S
C372 C375 1.461 . S
C372 H392 0.932 1_565 S
C373 C371 1.408 . S
C373 C372 1.310 . S
C373 H393 0.930 1_565 S
C374 C375 1.474 . S
C374 C376 1.285 . S
C374 H394 0.929 . S
C375 C372 1.461 . S
C375 C374 1.474 . S
C376 C371 1.342 . S
C376 C374 1.285 . S
C376 H395 0.930 . S
C377 C380 1.424 . S
C377 C382 1.245 . S
C377 C383 1.428 . S
C378 C381 1.260 . S
C378 C382 1.477 . S
C378 H396 0.932 . S
C379 C380 1.384 . S
C379 C381 1.479 . S
C379 H397 0.929 . S
C380 C377 1.424 . S
C380 C379 1.384 . S
C380 H398 0.928 . S
C381 C378 1.260 . S
C381 C379 1.479 . S
C382 C377 1.245 . S
C382 C378 1.477 . S
C382 H399 0.932 . S
C383 U366 2.882 . S
C383 C377 1.428 . S
C383 O386 1.301 . S
C383 O387 1.282 . S
O384 U366 2.441 1_545 S
O384 C370 1.249 . S
O385 U366 2.420 1_545 S
O385 C370 1.202 . S
O386 U366 2.455 . S
O386 C383 1.301 . S
O387 U366 2.449 . S
O387 C383 1.282 . S
H388 C361 0.931 . S
H389 C363 0.929 . S
H390 C364 0.930 . S
H391 C365 0.931 . S
H392 C372 0.932 1_545 S
H393 C373 0.930 1_545 S
H394 C374 0.929 . S
H395 C376 0.930 . S
H396 C378 0.932 . S
H397 C379 0.929 . S
H398 C380 0.928 . S
H399 C382 0.932 . S
C400 C401 1.264 . S
C400 C405 1.479 . S
C400 C410 1.465 . S
C401 C400 1.264 . S
C401 C403 1.339 . S
C401 H428 0.931 . S
C402 C403 1.395 . S
C402 C404 1.320 . S
C403 C401 1.339 . S
C403 C402 1.395 . S
C403 H429 0.929 . S
C404 C402 1.320 . S
C404 C405 1.405 . S
C404 H430 0.930 . S
C405 C400 1.479 . S
C405 C404 1.405 . S
C405 H431 0.931 . S
U406 O407 2.456 . S
U406 O408 2.458 . S
U406 C409 2.984 . S
U406 C410 2.847 1_455 S
U406 C423 2.882 . S
U406 O424 2.441 1_455 S
U406 O425 2.420 1_455 S
U406 O426 2.455 . S
U406 O427 2.449 . S
O407 U406 2.456 . S
O407 C409 1.355 . S
O408 U406 2.458 . S
O408 C409 1.286 . S
C409 U406 2.984 . S
C409 O407 1.355 . S
C409 O408 1.286 . S
C409 C411 1.363 . S
C410 C400 1.465 . S
C410 U406 2.847 1_655 S
C410 O424 1.249 . S
C410 O425 1.202 . S
C411 C409 1.363 . S
C411 C413 1.408 . S
C411 C416 1.342 . S
C412 C413 1.310 . S
C412 C415 1.461 . S
C412 H432 0.933 . S
C413 C411 1.408 . S
C413 C412 1.310 . S
C413 H433 0.930 1_455 S
C414 C415 1.474 . S
C414 C416 1.285 . S
C414 H434 0.929 . S
C415 C412 1.461 . S
C415 C414 1.474 . S
C416 C411 1.342 . S
C416 C414 1.285 . S
C416 H435 0.930 . S
C417 C420 1.424 . S
C417 C422 1.245 . S
C417 C423 1.428 . S
C418 C421 1.260 . S
C418 C422 1.477 . S
C418 H436 0.932 . S
C419 C420 1.384 . S
C419 C421 1.479 . S
C419 H437 0.929 . S
C420 C417 1.424 . S
C420 C419 1.384 . S
C420 H438 0.928 . S
C421 C418 1.260 . S
C421 C419 1.479 . S
C422 C417 1.245 . S
C422 C418 1.477 . S
C422 H439 0.932 . S
C423 U406 2.882 . S
C423 C417 1.428 . S
C423 O426 1.301 . S
C423 O427 1.282 . S
O424 U406 2.441 1_655 S
O424 C410 1.249 . S
O425 U406 2.420 1_655 S
O425 C410 1.202 . S
O426 U406 2.455 . S
O426 C423 1.301 . S
O427 U406 2.449 . S
O427 C423 1.282 . S
H428 C401 0.931 . S
H429 C403 0.929 . S
H430 C404 0.930 . S
H431 C405 0.931 . S
H432 C412 0.933 . S
H433 C413 0.930 1_655 S
H434 C414 0.929 . S
H435 C416 0.930 . S
H436 C418 0.932 . S
H437 C419 0.929 . S
H438 C420 0.928 . S
H439 C422 0.932 . S
C440 C441 1.264 . S
C440 C445 1.479 . S
C440 C450 1.465 . S
C441 C440 1.264 . S
C441 C443 1.339 . S
C441 H468 0.931 . S
C442 C443 1.395 . S
C442 C444 1.320 . S
C443 C441 1.339 . S
C443 C442 1.395 . S
C443 H469 0.929 . S
C444 C442 1.320 . S
C444 C445 1.405 . S
C444 H470 0.930 . S
C445 C440 1.479 . S
C445 C444 1.405 . S
C445 H471 0.931 . S
U446 O447 2.454 . S
U446 O448 2.458 . S
U446 C449 2.984 . S
U446 C450 2.847 . S
U446 C463 2.882 . S
U446 O464 2.441 . S
U446 O465 2.420 . S
U446 O466 2.455 . S
U446 O467 2.449 . S
O447 U446 2.454 . S
O447 C449 1.353 . S
O448 U446 2.458 . S
O448 C449 1.286 . S
C449 U446 2.984 . S
C449 O447 1.353 . S
C449 O448 1.286 . S
C449 C451 1.363 . S
C450 C440 1.465 . S
C450 U446 2.847 . S
C450 O464 1.249 . S
C450 O465 1.202 . S
C451 C449 1.363 . S
C451 C453 1.408 . S
C451 C456 1.342 . S
C452 C453 1.310 . S
C452 C455 1.461 . S
C452 H472 0.932 . S
C453 C451 1.408 . S
C453 C452 1.310 . S
C453 H473 0.930 . S
C454 C455 1.474 . S
C454 C456 1.285 . S
C454 H474 0.929 . S
C455 C452 1.461 . S
C455 C454 1.474 . S
C456 C451 1.342 . S
C456 C454 1.285 . S
C456 H475 0.930 . S
C457 C460 1.424 . S
C457 C462 1.245 . S
C457 C463 1.428 . S
C458 C461 1.260 . S
C458 C462 1.477 . S
C458 H476 0.932 . S
C459 C460 1.384 . S
C459 C461 1.479 . S
C459 H477 0.929 . S
C460 C457 1.424 . S
C460 C459 1.384 . S
C460 H478 0.928 . S
C461 C458 1.260 . S
C461 C459 1.479 . S
C462 C457 1.245 . S
C462 C458 1.477 . S
C462 H479 0.932 . S
C463 U446 2.882 . S
C463 C457 1.428 . S
C463 O466 1.301 . S
C463 O467 1.282 . S
O464 U446 2.441 . S
O464 C450 1.249 . S
O465 U446 2.420 . S
O465 C450 1.202 . S
O466 U446 2.455 . S
O466 C463 1.301 . S
O467 U446 2.449 . S
O467 C463 1.282 . S
H468 C441 0.931 . S
H469 C443 0.929 . S
H470 C444 0.930 . S
H471 C445 0.931 . S
H472 C452 0.932 . S
H473 C453 0.930 . S
H474 C454 0.929 . S
H475 C456 0.930 . S
H476 C458 0.932 . S
H477 C459 0.929 . S
H478 C460 0.928 . S
H479 C462 0.932 . S
C480 C481 1.391 . S
C480 C482 1.394 . S
C480 H496 0.931 . S
C481 C480 1.391 . S
C481 C485 1.376 . S
C482 C480 1.394 . S
C482 C483 1.369 . S
C482 C486 1.531 . S
C483 C482 1.369 . S
C483 C484 1.410 . S
C483 C491 1.503 . S
C484 C483 1.410 . S
C484 C485 1.392 . S
C484 C487 1.511 . S
C485 C481 1.376 . S
C485 C484 1.392 . S
C485 H497 0.929 . S
C486 C482 1.531 . S
C486 H498 0.960 . S
C486 H499 0.962 . S
C486 H500 0.960 . S
C487 C484 1.511 . S
C487 H501 0.961 . S
C487 H502 0.961 . S
C487 H503 0.961 . S
C488 C489 1.370 . S
C488 C490 1.363 . S
C488 H504 0.931 . S
C489 C488 1.370 . S
C489 C493 1.408 . S
C490 C488 1.363 . S
C490 C491 1.370 . S
C490 C494 1.524 . S
C491 C483 1.503 . S
C491 C490 1.370 . S
C491 C492 1.403 . S
C492 C491 1.403 . S
C492 C493 1.404 . S
C492 C495 1.539 . S
C493 C489 1.408 . S
C493 C492 1.404 . S
C493 H505 0.930 . S
C494 C490 1.524 . S
C494 H506 0.956 . S
C494 H507 0.961 . S
C494 H508 0.961 . S
C495 C492 1.539 . S
C495 H509 0.958 . S
C495 H510 0.961 . S
C495 H511 0.960 . S
H496 C480 0.931 . S
H497 C485 0.929 . S
H498 C486 0.960 . S
H499 C486 0.962 . S
H500 C486 0.960 . S
H501 C487 0.961 . S
H502 C487 0.961 . S
H503 C487 0.961 . S
H504 C488 0.931 . S
H505 C493 0.930 . S
H506 C494 0.956 . S
H507 C494 0.961 . S
H508 C494 0.961 . S
H509 C495 0.958 . S
H510 C495 0.961 . S
H511 C495 0.960 . S
C512 C513 1.391 . S
C512 C514 1.394 . S
C512 H528 0.931 . S
C513 C512 1.391 . S
C513 C517 1.376 . S
C514 C512 1.394 . S
C514 C515 1.369 . S
C514 C518 1.531 . S
C515 C514 1.369 . S
C515 C516 1.410 . S
C515 C523 1.503 . S
C516 C515 1.410 . S
C516 C517 1.392 . S
C516 C519 1.511 . S
C517 C513 1.376 . S
C517 C516 1.392 . S
C517 H529 0.929 . S
C518 C514 1.531 . S
C518 H530 0.960 . S
C518 H531 0.962 . S
C518 H532 0.960 . S
C519 C516 1.511 . S
C519 H533 0.961 . S
C519 H534 0.961 . S
C519 H535 0.961 . S
C520 C521 1.370 . S
C520 C522 1.363 . S
C520 H536 0.931 . S
C521 C520 1.370 . S
C521 C525 1.408 . S
C522 C520 1.363 . S
C522 C523 1.370 . S
C522 C526 1.524 . S
C523 C515 1.503 . S
C523 C522 1.370 . S
C523 C524 1.403 . S
C524 C523 1.403 . S
C524 C525 1.404 . S
C524 C527 1.539 . S
C525 C521 1.408 . S
C525 C524 1.404 . S
C525 H537 0.930 . S
C526 C522 1.524 . S
C526 H538 0.956 . S
C526 H539 0.961 . S
C526 H540 0.961 . S
C527 C524 1.539 . S
C527 H541 0.958 . S
C527 H542 0.961 . S
C527 H543 0.960 . S
H528 C512 0.931 . S
H529 C517 0.929 . S
H530 C518 0.960 . S
H531 C518 0.962 . S
H532 C518 0.960 . S
H533 C519 0.961 . S
H534 C519 0.961 . S
H535 C519 0.961 . S
H536 C520 0.931 . S
H537 C525 0.930 . S
H538 C526 0.956 . S
H539 C526 0.961 . S
H540 C526 0.961 . S
H541 C527 0.958 . S
H542 C527 0.961 . S
H543 C527 0.960 . S
C544 C545 1.391 . S
C544 C546 1.394 . S
C544 H560 0.931 . S
C545 C544 1.391 . S
C545 C549 1.376 . S
C546 C544 1.394 . S
C546 C547 1.369 . S
C546 C550 1.531 . S
C547 C546 1.369 . S
C547 C548 1.410 . S
C547 C555 1.503 . S
C548 C547 1.410 . S
C548 C549 1.392 . S
C548 C551 1.511 . S
C549 C545 1.376 . S
C549 C548 1.392 . S
C549 H561 0.929 . S
C550 C546 1.531 . S
C550 H562 0.960 . S
C550 H563 0.962 . S
C550 H564 0.960 . S
C551 C548 1.511 . S
C551 H565 0.961 . S
C551 H566 0.961 . S
C551 H567 0.961 . S
C552 C553 1.370 . S
C552 C554 1.363 . S
C552 H568 0.931 . S
C553 C552 1.370 . S
C553 C557 1.408 . S
C554 C552 1.363 . S
C554 C555 1.370 . S
C554 C558 1.524 . S
C555 C547 1.503 . S
C555 C554 1.370 . S
C555 C556 1.403 . S
C556 C555 1.403 . S
C556 C557 1.404 . S
C556 C559 1.539 . S
C557 C553 1.408 . S
C557 C556 1.404 . S
C557 H569 0.930 . S
C558 C554 1.524 . S
C558 H570 0.956 . S
C558 H571 0.961 . S
C558 H572 0.961 . S
C559 C556 1.539 . S
C559 H573 0.958 . S
C559 H574 0.961 . S
C559 H575 0.960 . S
H560 C544 0.931 . S
H561 C549 0.929 . S
H562 C550 0.960 . S
H563 C550 0.962 . S
H564 C550 0.960 . S
H565 C551 0.961 . S
H566 C551 0.961 . S
H567 C551 0.961 . S
H568 C552 0.931 . S
H569 C557 0.930 . S
H570 C558 0.956 . S
H571 C558 0.961 . S
H572 C558 0.961 . S
H573 C559 0.958 . S
H574 C559 0.961 . S
H575 C559 0.960 . S
C576 C577 1.391 . S
C576 C578 1.394 . S
C576 H592 0.931 . S
C577 C576 1.391 . S
C577 C581 1.376 . S
C578 C576 1.394 . S
C578 C579 1.369 . S
C578 C582 1.531 . S
C579 C578 1.369 . S
C579 C580 1.410 . S
C579 C587 1.503 . S
C580 C579 1.410 . S
C580 C581 1.392 . S
C580 C583 1.511 . S
C581 C577 1.376 . S
C581 C580 1.392 . S
C581 H593 0.929 . S
C582 C578 1.531 . S
C582 H594 0.960 . S
C582 H595 0.962 . S
C582 H596 0.960 . S
C583 C580 1.511 . S
C583 H597 0.961 . S
C583 H598 0.961 . S
C583 H599 0.961 . S
C584 C585 1.370 . S
C584 C586 1.363 . S
C584 H600 0.931 . S
C585 C584 1.370 . S
C585 C589 1.408 . S
C586 C584 1.363 . S
C586 C587 1.370 . S
C586 C590 1.524 . S
C587 C579 1.503 . S
C587 C586 1.370 . S
C587 C588 1.403 . S
C588 C587 1.403 . S
C588 C589 1.404 . S
C588 C591 1.539 . S
C589 C585 1.408 . S
C589 C588 1.404 . S
C589 H601 0.930 . S
C590 C586 1.524 . S
C590 H602 0.956 . S
C590 H603 0.961 . S
C590 H604 0.961 . S
C591 C588 1.539 . S
C591 H605 0.958 . S
C591 H606 0.961 . S
C591 H607 0.960 . S
H592 C576 0.931 . S
H593 C581 0.929 . S
H594 C582 0.960 . S
H595 C582 0.962 . S
H596 C582 0.960 . S
H597 C583 0.961 . S
H598 C583 0.961 . S
H599 C583 0.961 . S
H600 C584 0.931 . S
H601 C589 0.930 . S
H602 C590 0.956 . S
H603 C590 0.961 . S
H604 C590 0.961 . S
H605 C591 0.958 . S
H606 C591 0.961 . S
H607 C591 0.960 . S
C608 C609 1.391 . S
C608 C610 1.394 . S
C608 H624 0.931 . S
C609 C608 1.391 . S
C609 C613 1.376 . S
C610 C608 1.394 . S
C610 C611 1.369 . S
C610 C614 1.531 . S
C611 C610 1.369 . S
C611 C612 1.410 . S
C611 C619 1.503 . S
C612 C611 1.410 . S
C612 C613 1.392 . S
C612 C615 1.511 . S
C613 C609 1.376 . S
C613 C612 1.392 . S
C613 H625 0.929 . S
C614 C610 1.531 . S
C614 H626 0.960 . S
C614 H627 0.962 . S
C614 H628 0.960 . S
C615 C612 1.511 . S
C615 H629 0.961 . S
C615 H630 0.961 . S
C615 H631 0.961 . S
C616 C617 1.370 . S
C616 C618 1.363 . S
C616 H632 0.931 . S
C617 C616 1.370 . S
C617 C621 1.408 . S
C618 C616 1.363 . S
C618 C619 1.370 . S
C618 C622 1.524 . S
C619 C611 1.503 . S
C619 C618 1.370 . S
C619 C620 1.403 . S
C620 C619 1.403 . S
C620 C621 1.404 . S
C620 C623 1.539 . S
C621 C617 1.408 . S
C621 C620 1.404 . S
C621 H633 0.930 . S
C622 C618 1.524 . S
C622 H634 0.956 . S
C622 H635 0.961 . S
C622 H636 0.961 . S
C623 C620 1.539 . S
C623 H637 0.958 . S
C623 H638 0.961 . S
C623 H639 0.960 . S
H624 C608 0.931 . S
H625 C613 0.929 . S
H626 C614 0.960 . S
H627 C614 0.962 . S
H628 C614 0.960 . S
H629 C615 0.961 . S
H630 C615 0.961 . S
H631 C615 0.961 . S
H632 C616 0.931 . S
H633 C621 0.930 . S
H634 C622 0.956 . S
H635 C622 0.961 . S
H636 C622 0.961 . S
H637 C623 0.958 . S
H638 C623 0.961 . S
H639 C623 0.960 . S
C640 C641 1.391 . S
C640 C642 1.394 . S
C640 H656 0.931 . S
C641 C640 1.391 . S
C641 C645 1.376 . S
C642 C640 1.394 . S
C642 C643 1.369 . S
C642 C646 1.531 . S
C643 C642 1.369 . S
C643 C644 1.410 . S
C643 C651 1.503 . S
C644 C643 1.410 . S
C644 C645 1.392 . S
C644 C647 1.511 . S
C645 C641 1.376 . S
C645 C644 1.392 . S
C645 H657 0.929 . S
C646 C642 1.531 . S
C646 H658 0.960 . S
C646 H659 0.962 . S
C646 H660 0.960 . S
C647 C644 1.511 . S
C647 H661 0.961 . S
C647 H662 0.961 . S
C647 H663 0.961 . S
C648 C649 1.370 . S
C648 C650 1.363 . S
C648 H664 0.931 . S
C649 C648 1.370 . S
C649 C653 1.408 . S
C650 C648 1.363 . S
C650 C651 1.370 . S
C650 C654 1.524 . S
C651 C643 1.503 . S
C651 C650 1.370 . S
C651 C652 1.403 . S
C652 C651 1.403 . S
C652 C653 1.404 . S
C652 C655 1.539 . S
C653 C649 1.408 . S
C653 C652 1.404 . S
C653 H665 0.930 . S
C654 C650 1.524 . S
C654 H666 0.956 . S
C654 H667 0.961 . S
C654 H668 0.961 . S
C655 C652 1.539 . S
C655 H669 0.958 . S
C655 H670 0.961 . S
C655 H671 0.960 . S
H656 C640 0.931 . S
H657 C645 0.929 . S
H658 C646 0.960 . S
H659 C646 0.962 . S
H660 C646 0.960 . S
H661 C647 0.961 . S
H662 C647 0.961 . S
H663 C647 0.961 . S
H664 C648 0.931 . S
H665 C653 0.930 . S
H666 C654 0.956 . S
H667 C654 0.961 . S
H668 C654 0.961 . S
H669 C655 0.958 . S
H670 C655 0.961 . S
H671 C655 0.960 . S
C672 C673 1.391 . S
C672 C674 1.394 . S
C672 H688 0.931 . S
C673 C672 1.391 . S
C673 C677 1.376 1_655 S
C674 C672 1.394 . S
C674 C675 1.369 1_655 S
C674 C678 1.531 . S
C675 C674 1.369 1_455 S
C675 C676 1.410 1_554 S
C675 C683 1.503 1_554 S
C676 C675 1.410 1_556 S
C676 C677 1.392 1_556 S
C676 C679 1.511 . S
C677 C673 1.376 1_455 S
C677 C676 1.392 1_554 S
C677 H689 0.948 . S
C678 C674 1.531 . S
C678 H690 0.960 . S
C678 H691 0.962 . S
C678 H692 0.960 . S
C679 C676 1.511 . S
C679 H693 0.961 . S
C679 H694 0.961 . S
C679 H695 0.961 . S
C680 C681 1.370 1_655 S
C680 C682 1.363 . S
C680 H696 0.931 . S
C681 C680 1.370 1_455 S
C681 C685 1.408 . S
C682 C680 1.363 . S
C682 C683 1.370 1_655 S
C682 C686 1.524 . S
C683 C675 1.503 1_556 S
C683 C682 1.370 1_455 S
C683 C684 1.403 1_556 S
C684 C683 1.403 1_554 S
C684 C685 1.404 1_554 S
C684 C687 1.539 . S
C685 C681 1.408 . S
C685 C684 1.404 1_556 S
C685 H697 0.930 . S
C686 C682 1.524 . S
C686 H698 0.956 . S
C686 H699 0.961 . S
C686 H700 0.961 . S
C687 C684 1.539 . S
C687 H701 0.958 . S
C687 H702 0.961 . S
C687 H703 0.960 . S
H688 C672 0.931 . S
H689 C677 0.948 . S
H690 C678 0.960 . S
H691 C678 0.962 . S
H692 C678 0.960 . S
H693 C679 0.961 . S
H694 C679 0.961 . S
H695 C679 0.961 . S
H696 C680 0.931 . S
H697 C685 0.930 . S
H698 C686 0.956 . S
H699 C686 0.961 . S
H700 C686 0.961 . S
H701 C687 0.958 . S
H702 C687 0.961 . S
H703 C687 0.960 . S
C704 C705 1.391 . S
C704 C706 1.394 . S
C704 H720 0.931 . S
C705 C704 1.391 . S
C705 C709 1.376 . S
C706 C704 1.394 . S
C706 C707 1.372 . S
C706 C710 1.521 1_556 S
C707 C706 1.372 . S
C707 C708 1.413 . S
C707 C715 1.498 1_556 S
C708 C707 1.413 . S
C708 C709 1.392 . S
C708 C711 1.507 1_556 S
C709 C705 1.376 . S
C709 C708 1.392 . S
C709 H721 0.929 . S
C710 C706 1.521 1_554 S
C710 H722 0.993 . S
C710 H723 0.932 1_554 S
C710 H724 0.968 . S
C711 C708 1.507 1_554 S
C711 H725 0.949 1_554 S
C711 H726 0.960 1_554 S
C711 H727 0.977 . S
C712 C713 1.370 . S
C712 C714 1.363 1_554 S
C712 H728 0.931 1_554 S
C713 C712 1.370 . S
C713 C717 1.408 . S
C714 C712 1.363 1_556 S
C714 C715 1.370 1_556 S
C714 C718 1.524 . S
C715 C707 1.498 1_554 S
C715 C714 1.370 1_554 S
C715 C716 1.403 . S
C716 C715 1.403 . S
C716 C717 1.404 . S
C716 C719 1.539 . S
C717 C713 1.408 . S
C717 C716 1.404 . S
C717 H729 0.930 . S
C718 C714 1.524 . S
C718 H730 0.956 . S
C718 H731 0.961 . S
C718 H732 0.961 . S
C719 C716 1.539 . S
C719 H733 0.958 . S
C719 H734 0.961 . S
C719 H735 0.960 . S
H720 C704 0.931 . S
H721 C709 0.929 . S
H722 C710 0.993 . S
H723 C710 0.932 1_556 S
H724 C710 0.968 . S
H725 C711 0.949 1_556 S
H726 C711 0.960 1_556 S
H727 C711 0.977 . S
H728 C712 0.931 1_556 S
H729 C717 0.930 . S
H730 C718 0.956 . S
H731 C718 0.961 . S
H732 C718 0.961 . S
H733 C719 0.958 . S
H734 C719 0.961 . S
H735 C719 0.960 . S
C736 C737 1.391 1_565 S
C736 C738 1.394 . S
C736 H752 0.931 . S
C737 C736 1.391 1_545 S
C737 C741 1.376 . S
C738 C736 1.394 . S
C738 C739 1.362 1_565 S
C738 C742 1.531 . S
C739 C738 1.362 1_545 S
C739 C740 1.420 1_554 S
C739 C747 1.495 1_544 S
C740 C739 1.420 1_556 S
C740 C741 1.367 1_556 S
C740 C743 1.542 . S
C741 C737 1.376 . S
C741 C740 1.367 1_554 S
C741 H753 0.929 . S
C742 C738 1.531 . S
C742 H754 0.960 . S
C742 H755 0.962 . S
C742 H756 0.960 . S
C743 C740 1.542 . S
C743 H757 0.961 . S
C743 H758 0.961 . S
C743 H759 0.961 . S
C744 C745 1.370 . S
C744 C746 1.363 1_566 S
C744 H760 0.922 1_556 S
C745 C744 1.370 . S
C745 C749 1.408 . S
C746 C744 1.363 1_544 S
C746 C747 1.370 1_544 S
C746 C750 1.524 . S
C747 C739 1.495 1_566 S
C747 C746 1.370 1_566 S
C747 C748 1.403 . S
C748 C747 1.403 . S
C748 C749 1.404 . S
C748 C751 1.539 . S
C749 C745 1.408 . S
C749 C748 1.404 . S
C749 H761 0.930 . S
C750 C746 1.524 . S
C750 H762 0.956 . S
C750 H763 0.961 . S
C750 H764 0.961 . S
C751 C748 1.539 . S
C751 H765 0.958 . S
C751 H766 0.961 . S
C751 H767 0.960 . S
H752 C736 0.931 . S
H753 C741 0.929 . S
H754 C742 0.960 . S
H755 C742 0.962 . S
H756 C742 0.960 . S
H757 C743 0.961 . S
H758 C743 0.961 . S
H759 C743 0.961 . S
H760 C744 0.922 1_554 S
H761 C749 0.930 . S
H762 C750 0.956 . S
H763 C750 0.961 . S
H764 C750 0.961 . S
H765 C751 0.958 . S
H766 C751 0.961 . S
H767 C751 0.960 . S
C768 C769 1.391 . S
C768 C770 1.394 . S
C768 H784 0.931 . S
C769 C768 1.391 . S
C769 C773 1.376 1_565 S
C770 C768 1.394 . S
C770 C771 1.369 1_565 S
C770 C774 1.531 . S
C771 C770 1.369 1_545 S
C771 C772 1.409 . S
C771 C779 1.503 . S
C772 C771 1.409 . S
C772 C773 1.392 . S
C772 C775 1.511 . S
C773 C769 1.376 1_545 S
C773 C772 1.392 . S
C773 H785 0.929 . S
C774 C770 1.531 . S
C774 H786 0.960 . S
C774 H787 0.962 . S
C774 H788 0.960 . S
C775 C772 1.511 . S
C775 H789 0.961 . S
C775 H790 0.961 . S
C775 H791 0.961 . S
C776 C777 1.355 1_565 S
C776 C778 1.355 . S
C776 H792 0.956 . S
C777 C776 1.355 1_545 S
C777 C781 1.408 . S
C778 C776 1.355 . S
C778 C779 1.370 1_565 S
C778 C782 1.524 . S
C779 C771 1.503 . S
C779 C778 1.370 1_545 S
C779 C780 1.403 . S
C780 C779 1.403 . S
C780 C781 1.404 . S
C780 C783 1.539 . S
C781 C777 1.408 . S
C781 C780 1.404 . S
C781 H793 0.930 . S
C782 C778 1.524 . S
C782 H794 0.956 . S
C782 H795 0.961 . S
C782 H796 0.961 . S
C783 C780 1.539 . S
C783 H797 0.958 . S
C783 H798 0.961 . S
C783 H799 0.960 . S
H784 C768 0.931 . S
H785 C773 0.929 . S
H786 C774 0.960 . S
H787 C774 0.962 . S
H788 C774 0.960 . S
H789 C775 0.961 . S
H790 C775 0.961 . S
H791 C775 0.961 . S
H792 C776 0.956 . S
H793 C781 0.930 . S
H794 C782 0.956 . S
H795 C782 0.961 . S
H796 C782 0.961 . S
H797 C783 0.958 . S
H798 C783 0.961 . S
H799 C783 0.960 . S
C800 C801 1.391 . S
C800 C802 1.394 . S
C800 H816 0.931 . S
C801 C800 1.391 . S
C801 C805 1.376 1_455 S
C802 C800 1.394 . S
C802 C803 1.369 1_455 S
C802 C806 1.531 . S
C803 C802 1.369 1_655 S
C803 C804 1.410 . S
C803 C811 1.503 . S
C804 C803 1.410 . S
C804 C805 1.392 . S
C804 C807 1.511 . S
C805 C801 1.376 1_655 S
C805 C804 1.392 . S
C805 H817 0.929 . S
C806 C802 1.531 . S
C806 H818 0.960 . S
C806 H819 0.962 . S
C806 H820 0.960 . S
C807 C804 1.511 . S
C807 H821 0.961 . S
C807 H822 0.961 . S
C807 H823 0.961 . S
C808 C809 1.370 1_455 S
C808 C810 1.363 . S
C808 H824 0.931 . S
C809 C808 1.370 1_655 S
C809 C813 1.408 . S
C810 C808 1.363 . S
C810 C811 1.370 1_455 S
C810 C814 1.524 . S
C811 C803 1.503 . S
C811 C810 1.370 1_655 S
C811 C812 1.403 . S
C812 C811 1.403 . S
C812 C813 1.404 . S
C812 C815 1.539 . S
C813 C809 1.408 . S
C813 C812 1.404 . S
C813 H825 0.930 . S
C814 C810 1.524 . S
C814 H826 0.956 . S
C814 H827 0.961 . S
C814 H828 0.961 . S
C815 C812 1.539 . S
C815 H829 0.958 . S
C815 H830 0.961 . S
C815 H831 0.960 . S
H816 C800 0.931 . S
H817 C805 0.929 . S
H818 C806 0.960 . S
H819 C806 0.962 . S
H820 C806 0.960 . S
H821 C807 0.961 . S
H822 C807 0.961 . S
H823 C807 0.961 . S
H824 C808 0.931 . S
H825 C813 0.930 . S
H826 C814 0.956 . S
H827 C814 0.961 . S
H828 C814 0.961 . S
H829 C815 0.958 . S
H830 C815 0.961 . S
H831 C815 0.960 . S
C832 C833 1.391 . S
C832 C834 1.394 . S
C832 H848 0.931 . S
C833 C832 1.391 . S
C833 C837 1.376 . S
C834 C832 1.394 . S
C834 C835 1.369 . S
C834 C838 1.531 . S
C835 C834 1.369 . S
C835 C836 1.410 . S
C835 C843 1.503 . S
C836 C835 1.410 . S
C836 C837 1.392 . S
C836 C839 1.511 . S
C837 C833 1.376 . S
C837 C836 1.392 . S
C837 H849 0.929 . S
C838 C834 1.531 . S
C838 H850 0.960 . S
C838 H851 0.962 . S
C838 H852 0.960 . S
C839 C836 1.511 . S
C839 H853 0.961 . S
C839 H854 0.961 . S
C839 H855 0.961 . S
C840 C841 1.370 . S
C840 C842 1.363 . S
C840 H856 0.931 . S
C841 C840 1.370 . S
C841 C845 1.408 . S
C842 C840 1.363 . S
C842 C843 1.370 . S
C842 C846 1.524 . S
C843 C835 1.503 . S
C843 C842 1.370 . S
C843 C844 1.403 . S
C844 C843 1.403 . S
C844 C845 1.404 . S
C844 C847 1.539 . S
C845 C841 1.408 . S
C845 C844 1.404 . S
C845 H857 0.930 . S
C846 C842 1.524 . S
C846 H858 0.956 . S
C846 H859 0.961 . S
C846 H860 0.961 . S
C847 C844 1.539 . S
C847 H861 0.958 . S
C847 H862 0.961 . S
C847 H863 0.960 . S
H848 C832 0.931 . S
H849 C837 0.929 . S
H850 C838 0.960 . S
H851 C838 0.962 . S
H852 C838 0.960 . S
H853 C839 0.961 . S
H854 C839 0.961 . S
H855 C839 0.961 . S
H856 C840 0.931 . S
H857 C845 0.930 . S
H858 C846 0.956 . S
H859 C846 0.961 . S
H860 C846 0.961 . S
H861 C847 0.958 . S
H862 C847 0.961 . S
H863 C847 0.960 . S
C864 C865 1.391 . S
C864 C866 1.394 . S
C864 H880 0.931 . S
C865 C864 1.391 . S
C865 C869 1.376 . S
C866 C864 1.394 . S
C866 C867 1.369 . S
C866 C870 1.531 . S
C867 C866 1.369 . S
C867 C868 1.410 . S
C867 C875 1.503 . S
C868 C867 1.410 . S
C868 C869 1.392 . S
C868 C871 1.511 . S
C869 C865 1.376 . S
C869 C868 1.392 . S
C869 H881 0.929 . S
C870 C866 1.531 . S
C870 H882 0.960 . S
C870 H883 0.962 . S
C870 H884 0.960 . S
C871 C868 1.511 . S
C871 H885 0.972 . S
C871 H886 0.961 . S
C871 H887 0.961 . S
C872 C873 1.370 . S
C872 C874 1.363 . S
C872 H888 0.931 . S
C873 C872 1.370 . S
C873 C877 1.408 . S
C874 C872 1.363 . S
C874 C875 1.370 . S
C874 C878 1.524 . S
C875 C867 1.503 . S
C875 C874 1.370 . S
C875 C876 1.403 . S
C876 C875 1.403 . S
C876 C877 1.404 . S
C876 C879 1.539 . S
C877 C873 1.408 . S
C877 C876 1.404 . S
C877 H889 0.930 . S
C878 C874 1.524 . S
C878 H890 0.956 . S
C878 H891 0.961 . S
C878 H892 0.961 . S
C879 C876 1.539 . S
C879 H893 0.958 . S
C879 H894 0.961 . S
C879 H895 0.960 . S
H880 C864 0.931 . S
H881 C869 0.929 . S
H882 C870 0.960 . S
H883 C870 0.962 . S
H884 C870 0.960 . S
H885 C871 0.972 . S
H886 C871 0.961 . S
H887 C871 0.961 . S
H888 C872 0.931 . S
H889 C877 0.930 . S
H890 C878 0.956 . S
H891 C878 0.961 . S
H892 C878 0.961 . S
H893 C879 0.958 . S
H894 C879 0.961 . S
H895 C879 0.960 . S
C896 C897 1.391 . S
C896 C898 1.394 . S
C896 H912 0.931 . S
C897 C896 1.391 . S
C897 C901 1.376 . S
C898 C896 1.394 . S
C898 C899 1.369 . S
C898 C902 1.531 . S
C899 C898 1.369 . S
C899 C900 1.410 . S
C899 C907 1.503 . S
C900 C899 1.410 . S
C900 C901 1.392 . S
C900 C903 1.511 . S
C901 C897 1.376 . S
C901 C900 1.392 . S
C901 H913 0.929 . S
C902 C898 1.531 . S
C902 H914 0.960 . S
C902 H915 0.962 . S
C902 H916 0.960 . S
C903 C900 1.511 . S
C903 H917 0.961 . S
C903 H918 0.961 . S
C903 H919 0.961 . S
C904 C905 1.370 . S
C904 C906 1.363 . S
C904 H920 0.931 . S
C905 C904 1.370 . S
C905 C909 1.408 . S
C906 C904 1.363 . S
C906 C907 1.370 . S
C906 C910 1.524 . S
C907 C899 1.503 . S
C907 C906 1.370 . S
C907 C908 1.403 . S
C908 C907 1.403 . S
C908 C909 1.404 . S
C908 C911 1.539 . S
C909 C905 1.408 . S
C909 C908 1.404 . S
C909 H921 0.930 . S
C910 C906 1.524 . S
C910 H922 0.956 . S
C910 H923 0.961 . S
C910 H924 0.961 . S
C911 C908 1.539 . S
C911 H925 0.958 . S
C911 H926 0.961 . S
C911 H927 0.960 . S
H912 C896 0.931 . S
H913 C901 0.929 . S
H914 C902 0.960 . S
H915 C902 0.962 . S
H916 C902 0.960 . S
H917 C903 0.961 . S
H918 C903 0.961 . S
H919 C903 0.961 . S
H920 C904 0.931 . S
H921 C909 0.930 . S
H922 C910 0.956 . S
H923 C910 0.961 . S
H924 C910 0.961 . S
H925 C911 0.958 . S
H926 C911 0.961 . S
H927 C911 0.960 . S
C928 C929 1.391 . S
C928 C930 1.394 . S
C928 H944 0.931 . S
C929 C928 1.391 . S
C929 C933 1.376 . S
C930 C928 1.394 . S
C930 C931 1.369 . S
C930 C934 1.531 . S
C931 C930 1.369 . S
C931 C932 1.410 . S
C931 C939 1.503 . S
C932 C931 1.410 . S
C932 C933 1.392 . S
C932 C935 1.511 . S
C933 C929 1.376 . S
C933 C932 1.392 . S
C933 H945 0.929 . S
C934 C930 1.531 . S
C934 H946 0.960 . S
C934 H947 0.962 . S
C934 H948 0.960 . S
C935 C932 1.511 . S
C935 H949 0.961 . S
C935 H950 0.961 . S
C935 H951 0.961 . S
C936 C937 1.370 . S
C936 C938 1.363 . S
C936 H952 0.931 . S
C937 C936 1.370 . S
C937 C941 1.408 . S
C938 C936 1.363 . S
C938 C939 1.370 . S
C938 C942 1.524 . S
C939 C931 1.503 . S
C939 C938 1.370 . S
C939 C940 1.403 . S
C940 C939 1.403 . S
C940 C941 1.404 . S
C940 C943 1.539 . S
C941 C937 1.408 . S
C941 C940 1.404 . S
C941 H953 0.930 . S
C942 C938 1.524 . S
C942 H954 0.956 . S
C942 H955 0.961 . S
C942 H956 0.961 . S
C943 C940 1.539 . S
C943 H957 0.958 . S
C943 H958 0.961 1_545 S
C943 H959 0.960 . S
H944 C928 0.931 . S
H945 C933 0.929 . S
H946 C934 0.960 . S
H947 C934 0.962 . S
H948 C934 0.960 . S
H949 C935 0.961 . S
H950 C935 0.961 . S
H951 C935 0.961 . S
H952 C936 0.931 . S
H953 C941 0.930 . S
H954 C942 0.956 . S
H955 C942 0.961 . S
H956 C942 0.961 . S
H957 C943 0.958 . S
H958 C943 0.961 1_565 S
H959 C943 0.960 . S
C960 C961 1.391 . S
C960 C962 1.394 . S
C960 H976 0.931 . S
C961 C960 1.391 . S
C961 C965 1.376 . S
C962 C960 1.394 . S
C962 C963 1.369 . S
C962 C966 1.531 . S
C963 C962 1.369 . S
C963 C964 1.410 . S
C963 C971 1.503 . S
C964 C963 1.410 . S
C964 C965 1.392 . S
C964 C967 1.511 . S
C965 C961 1.376 . S
C965 C964 1.392 . S
C965 H977 0.929 . S
C966 C962 1.531 . S
C966 H978 0.960 . S
C966 H979 0.962 . S
C966 H980 0.960 . S
C967 C964 1.511 . S
C967 H981 0.961 . S
C967 H982 0.961 . S
C967 H983 0.961 . S
C968 C969 1.370 . S
C968 C970 1.363 . S
C968 H984 0.931 . S
C969 C968 1.370 . S
C969 C973 1.408 . S
C970 C968 1.363 . S
C970 C971 1.370 . S
C970 C974 1.524 . S
C971 C963 1.503 . S
C971 C970 1.370 . S
C971 C972 1.403 . S
C972 C971 1.403 . S
C972 C973 1.404 . S
C972 C975 1.539 . S
C973 C969 1.408 . S
C973 C972 1.404 . S
C973 H985 0.930 . S
C974 C970 1.524 . S
C974 H986 0.956 . S
C974 H987 0.961 . S
C974 H988 0.961 . S
C975 C972 1.539 . S
C975 H989 0.958 . S
C975 H990 0.961 . S
C975 H991 0.960 . S
H976 C960 0.931 . S
H977 C965 0.929 . S
H978 C966 0.960 . S
H979 C966 0.962 . S
H980 C966 0.960 . S
H981 C967 0.961 . S
H982 C967 0.961 . S
H983 C967 0.961 . S
H984 C968 0.931 . S
H985 C973 0.930 . S
H986 C974 0.956 . S
H987 C974 0.961 . S
H988 C974 0.961 . S
H989 C975 0.958 . S
H990 C975 0.961 . S
H991 C975 0.960 . S
C992 C993 1.391 . S
C992 C994 1.394 . S
C992 H1008 0.931 . S
C993 C992 1.391 . S
C993 C997 1.376 . S
C994 C992 1.394 . S
C994 C995 1.369 . S
C994 C998 1.531 . S
C995 C994 1.369 . S
C995 C996 1.410 . S
C995 C1003 1.503 . S
C996 C995 1.410 . S
C996 C997 1.392 . S
C996 C999 1.511 . S
C997 C993 1.376 . S
C997 C996 1.392 . S
C997 H1009 0.929 . S
C998 C994 1.531 . S
C998 H1010 0.960 . S
C998 H1011 0.962 . S
C998 H1012 0.960 . S
C999 C996 1.511 . S
C999 H1013 0.961 . S
C999 H1014 0.961 . S
C999 H1015 0.961 . S
C1000 C1001 1.370 . S
C1000 C1002 1.363 . S
C1000 H1016 0.931 . S
C1001 C1000 1.370 . S
C1001 C1005 1.408 . S
C1002 C1000 1.363 . S
C1002 C1003 1.370 . S
C1002 C1006 1.524 . S
C1003 C995 1.503 . S
C1003 C1002 1.370 . S
C1003 C1004 1.403 . S
C1004 C1003 1.403 . S
C1004 C1005 1.404 . S
C1004 C1007 1.539 . S
C1005 C1001 1.408 . S
C1005 C1004 1.404 . S
C1005 H1017 0.930 . S
C1006 C1002 1.524 . S
C1006 H1018 0.956 . S
C1006 H1019 0.961 . S
C1006 H1020 0.961 . S
C1007 C1004 1.539 . S
C1007 H1021 0.958 . S
C1007 H1022 0.961 . S
C1007 H1023 0.960 . S
H1008 C992 0.931 . S
H1009 C997 0.929 . S
H1010 C998 0.960 . S
H1011 C998 0.962 . S
H1012 C998 0.960 . S
H1013 C999 0.961 . S
H1014 C999 0.961 . S
H1015 C999 0.961 . S
H1016 C1000 0.931 . S
H1017 C1005 0.930 . S
H1018 C1006 0.956 . S
H1019 C1006 0.961 . S
H1020 C1006 0.961 . S
H1021 C1007 0.958 . S
H1022 C1007 0.961 . S
H1023 C1007 0.960 . S
C1024 C1025 1.391 . S
C1024 C1026 1.394 . S
C1024 H1040 0.931 . S
C1025 C1024 1.391 . S
C1025 C1029 1.376 . S
C1026 C1024 1.394 . S
C1026 C1027 1.369 . S
C1026 C1030 1.531 . S
C1027 C1026 1.369 . S
C1027 C1028 1.410 . S
C1027 C1035 1.503 . S
C1028 C1027 1.410 . S
C1028 C1029 1.392 . S
C1028 C1031 1.511 . S
C1029 C1025 1.376 . S
C1029 C1028 1.392 . S
C1029 H1041 0.929 . S
C1030 C1026 1.531 . S
C1030 H1042 0.960 . S
C1030 H1043 0.962 . S
C1030 H1044 0.960 . S
C1031 C1028 1.511 . S
C1031 H1045 0.961 . S
C1031 H1046 0.961 . S
C1031 H1047 0.961 . S
C1032 C1033 1.370 . S
C1032 C1034 1.363 . S
C1032 H1048 0.931 . S
C1033 C1032 1.370 . S
C1033 C1037 1.408 . S
C1034 C1032 1.363 . S
C1034 C1035 1.370 . S
C1034 C1038 1.524 . S
C1035 C1027 1.503 . S
C1035 C1034 1.370 . S
C1035 C1036 1.403 . S
C1036 C1035 1.403 . S
C1036 C1037 1.404 . S
C1036 C1039 1.539 . S
C1037 C1033 1.408 . S
C1037 C1036 1.404 . S
C1037 H1049 0.930 . S
C1038 C1034 1.524 . S
C1038 H1050 0.956 . S
C1038 H1051 0.961 . S
C1038 H1052 0.961 . S
C1039 C1036 1.539 . S
C1039 H1053 0.958 . S
C1039 H1054 0.923 1_565 S
C1039 H1055 0.960 . S
H1040 C1024 0.931 . S
H1041 C1029 0.929 . S
H1042 C1030 0.960 . S
H1043 C1030 0.962 . S
H1044 C1030 0.960 . S
H1045 C1031 0.961 . S
H1046 C1031 0.961 . S
H1047 C1031 0.961 . S
H1048 C1032 0.931 . S
H1049 C1037 0.930 . S
H1050 C1038 0.956 . S
H1051 C1038 0.961 . S
H1052 C1038 0.961 . S
H1053 C1039 0.958 . S
H1054 C1039 0.923 1_545 S
H1055 C1039 0.960 . S
C481 C202 2.818 . S
C489 C2 2.800 . S
C513 C42 2.782 . S
C521 C122 2.796 . S
C545 C162 2.549 . S
C553 C82 2.532 . S
C577 C442 2.879 . S
C585 C242 2.875 . S
C609 C282 2.898 . S
C617 C362 2.877 . S
C641 C402 2.582 . S
C649 C322 2.596 . S
C673 C15 3.322 . S
C681 C255 3.375 . S
C705 C295 3.424 . S
C713 C55 3.381 . S
C737 C95 3.040 . S
C745 C335 3.034 . S
C769 C375 3.374 . S
C777 C135 3.345 . S
C801 C415 3.044 . S
C809 C175 3.025 . S
C833 C215 3.402 . S
C841 C455 3.403 . S
C865 C181 0.652 . S
C873 C21 0.615 . S
C897 C221 0.550 . S
C905 C61 0.635 . S
C929 C101 0.487 . S
C937 C141 0.600 . S
C961 C261 0.519 . S
C969 C421 0.343 . S
C993 C461 0.529 . S
C1001 C301 0.512 . S
C1025 C341 0.299 . S
C1033 C381 0.388 . S
