# Generated by pormake.
# Topology dei, (4)-cn, num edge types: 1
# Building blocks:
#     Node 0, Type 0, BuildingBlock: QUQFOY_clean_sbu_1, # of connection points: 4
#     Node 1, Type 0, BuildingBlock: QUQFOY_clean_sbu_1, # of connection points: 4
#     Node 2, Type 0, BuildingBlock: QUQFOY_clean_sbu_1, # of connection points: 4
#     Node 3, Type 0, BuildingBlock: QUQFOY_clean_sbu_1, # of connection points: 4
#     Node 4, Type 0, BuildingBlock: QUQFOY_clean_sbu_1, # of connection points: 4
#     Node 5, Type 0, BuildingBlock: QUQFOY_clean_sbu_1, # of connection points: 4
#     Node 6, Type 0, BuildingBlock: QUQFOY_clean_sbu_1, # of connection points: 4
#     Node 7, Type 0, BuildingBlock: QUQFOY_clean_sbu_1, # of connection points: 4
#     Node 8, Type 0, BuildingBlock: QUQFOY_clean_sbu_1, # of connection points: 4
#     Node 9, Type 0, BuildingBlock: QUQFOY_clean_sbu_1, # of connection points: 4
#     Node 10, Type 0, BuildingBlock: QUQFOY_clean_sbu_1, # of connection points: 4
#     Node 11, Type 0, BuildingBlock: QUQFOY_clean_sbu_1, # of connection points: 4
#     Node 12, Type 0, BuildingBlock: QUQFOY_clean_sbu_1, # of connection points: 4
#     Node 13, Type 0, BuildingBlock: QUQFOY_clean_sbu_1, # of connection points: 4
#     Node 14, Type 0, BuildingBlock: QUQFOY_clean_sbu_1, # of connection points: 4
#     Node 15, Type 0, BuildingBlock: QUQFOY_clean_sbu_1, # of connection points: 4
#     Node 16, Type 0, BuildingBlock: QUQFOY_clean_sbu_1, # of connection points: 4
#     Node 17, Type 0, BuildingBlock: QUQFOY_clean_sbu_1, # of connection points: 4
#     Node 18, Type 0, BuildingBlock: QUQFOY_clean_sbu_1, # of connection points: 4
#     Node 19, Type 0, BuildingBlock: QUQFOY_clean_sbu_1, # of connection points: 4
#     Node 20, Type 0, BuildingBlock: QUQFOY_clean_sbu_1, # of connection points: 4
#     Node 21, Type 0, BuildingBlock: QUQFOY_clean_sbu_1, # of connection points: 4
#     Node 22, Type 0, BuildingBlock: QUQFOY_clean_sbu_1, # of connection points: 4
#     Node 23, Type 0, BuildingBlock: QUQFOY_clean_sbu_1, # of connection points: 4
#     Node 24, Type 0, BuildingBlock: QUQFOY_clean_sbu_1, # of connection points: 4
#     Node 25, Type 0, BuildingBlock: QUQFOY_clean_sbu_1, # of connection points: 4
#     Node 26, Type 0, BuildingBlock: QUQFOY_clean_sbu_1, # of connection points: 4
#     Node 27, Type 0, BuildingBlock: QUQFOY_clean_sbu_1, # of connection points: 4
#     Node 28, Type 0, BuildingBlock: QUQFOY_clean_sbu_1, # of connection points: 4
#     Node 29, Type 0, BuildingBlock: QUQFOY_clean_sbu_1, # of connection points: 4
#     Node 30, Type 0, BuildingBlock: QUQFOY_clean_sbu_1, # of connection points: 4
#     Node 31, Type 0, BuildingBlock: QUQFOY_clean_sbu_1, # of connection points: 4
#     Edge 32, Type (0, 0), BuildingBlock: CIFDUS_clean_linker_0, # of connection points: 2
#     Edge 33, Type (0, 0), BuildingBlock: CIFDUS_clean_linker_0, # of connection points: 2
#     Edge 34, Type (0, 0), BuildingBlock: CIFDUS_clean_linker_0, # of connection points: 2
#     Edge 35, Type (0, 0), BuildingBlock: CIFDUS_clean_linker_0, # of connection points: 2
#     Edge 36, Type (0, 0), BuildingBlock: CIFDUS_clean_linker_0, # of connection points: 2
#     Edge 37, Type (0, 0), BuildingBlock: CIFDUS_clean_linker_0, # of connection points: 2
#     Edge 38, Type (0, 0), BuildingBlock: CIFDUS_clean_linker_0, # of connection points: 2
#     Edge 39, Type (0, 0), BuildingBlock: CIFDUS_clean_linker_0, # of connection points: 2
#     Edge 40, Type (0, 0), BuildingBlock: CIFDUS_clean_linker_0, # of connection points: 2
#     Edge 41, Type (0, 0), BuildingBlock: CIFDUS_clean_linker_0, # of connection points: 2
#     Edge 42, Type (0, 0), BuildingBlock: CIFDUS_clean_linker_0, # of connection points: 2
#     Edge 43, Type (0, 0), BuildingBlock: CIFDUS_clean_linker_0, # of connection points: 2
#     Edge 44, Type (0, 0), BuildingBlock: CIFDUS_clean_linker_0, # of connection points: 2
#     Edge 45, Type (0, 0), BuildingBlock: CIFDUS_clean_linker_0, # of connection points: 2
#     Edge 46, Type (0, 0), BuildingBlock: CIFDUS_clean_linker_0, # of connection points: 2
#     Edge 47, Type (0, 0), BuildingBlock: CIFDUS_clean_linker_0, # of connection points: 2
#     Edge 48, Type (0, 0), BuildingBlock: CIFDUS_clean_linker_0, # of connection points: 2
#     Edge 49, Type (0, 0), BuildingBlock: CIFDUS_clean_linker_0, # of connection points: 2
#     Edge 50, Type (0, 0), BuildingBlock: CIFDUS_clean_linker_0, # of connection points: 2
#     Edge 51, Type (0, 0), BuildingBlock: CIFDUS_clean_linker_0, # of connection points: 2
#     Edge 52, Type (0, 0), BuildingBlock: CIFDUS_clean_linker_0, # of connection points: 2
#     Edge 53, Type (0, 0), BuildingBlock: CIFDUS_clean_linker_0, # of connection points: 2
#     Edge 54, Type (0, 0), BuildingBlock: CIFDUS_clean_linker_0, # of connection points: 2
#     Edge 55, Type (0, 0), BuildingBlock: CIFDUS_clean_linker_0, # of connection points: 2
#     Edge 56, Type (0, 0), BuildingBlock: CIFDUS_clean_linker_0, # of connection points: 2
#     Edge 57, Type (0, 0), BuildingBlock: CIFDUS_clean_linker_0, # of connection points: 2
#     Edge 58, Type (0, 0), BuildingBlock: CIFDUS_clean_linker_0, # of connection points: 2
#     Edge 59, Type (0, 0), BuildingBlock: CIFDUS_clean_linker_0, # of connection points: 2
#     Edge 60, Type (0, 0), BuildingBlock: CIFDUS_clean_linker_0, # of connection points: 2
#     Edge 61, Type (0, 0), BuildingBlock: CIFDUS_clean_linker_0, # of connection points: 2
#     Edge 62, Type (0, 0), BuildingBlock: CIFDUS_clean_linker_0, # of connection points: 2
#     Edge 63, Type (0, 0), BuildingBlock: CIFDUS_clean_linker_0, # of connection points: 2
#     Edge 64, Type (0, 0), BuildingBlock: CIFDUS_clean_linker_0, # of connection points: 2
#     Edge 65, Type (0, 0), BuildingBlock: CIFDUS_clean_linker_0, # of connection points: 2
#     Edge 66, Type (0, 0), BuildingBlock: CIFDUS_clean_linker_0, # of connection points: 2
#     Edge 67, Type (0, 0), BuildingBlock: CIFDUS_clean_linker_0, # of connection points: 2
#     Edge 68, Type (0, 0), BuildingBlock: CIFDUS_clean_linker_0, # of connection points: 2
#     Edge 69, Type (0, 0), BuildingBlock: CIFDUS_clean_linker_0, # of connection points: 2
#     Edge 70, Type (0, 0), BuildingBlock: CIFDUS_clean_linker_0, # of connection points: 2
#     Edge 71, Type (0, 0), BuildingBlock: CIFDUS_clean_linker_0, # of connection points: 2
#     Edge 72, Type (0, 0), BuildingBlock: CIFDUS_clean_linker_0, # of connection points: 2
#     Edge 73, Type (0, 0), BuildingBlock: CIFDUS_clean_linker_0, # of connection points: 2
#     Edge 74, Type (0, 0), BuildingBlock: CIFDUS_clean_linker_0, # of connection points: 2
#     Edge 75, Type (0, 0), BuildingBlock: CIFDUS_clean_linker_0, # of connection points: 2
#     Edge 76, Type (0, 0), BuildingBlock: CIFDUS_clean_linker_0, # of connection points: 2
#     Edge 77, Type (0, 0), BuildingBlock: CIFDUS_clean_linker_0, # of connection points: 2
#     Edge 78, Type (0, 0), BuildingBlock: CIFDUS_clean_linker_0, # of connection points: 2
#     Edge 79, Type (0, 0), BuildingBlock: CIFDUS_clean_linker_0, # of connection points: 2
#     Edge 80, Type (0, 0), BuildingBlock: CIFDUS_clean_linker_0, # of connection points: 2
#     Edge 81, Type (0, 0), BuildingBlock: CIFDUS_clean_linker_0, # of connection points: 2
#     Edge 82, Type (0, 0), BuildingBlock: CIFDUS_clean_linker_0, # of connection points: 2
#     Edge 83, Type (0, 0), BuildingBlock: CIFDUS_clean_linker_0, # of connection points: 2
#     Edge 84, Type (0, 0), BuildingBlock: CIFDUS_clean_linker_0, # of connection points: 2
#     Edge 85, Type (0, 0), BuildingBlock: CIFDUS_clean_linker_0, # of connection points: 2
#     Edge 86, Type (0, 0), BuildingBlock: CIFDUS_clean_linker_0, # of connection points: 2
#     Edge 87, Type (0, 0), BuildingBlock: CIFDUS_clean_linker_0, # of connection points: 2
#     Edge 88, Type (0, 0), BuildingBlock: CIFDUS_clean_linker_0, # of connection points: 2
#     Edge 89, Type (0, 0), BuildingBlock: CIFDUS_clean_linker_0, # of connection points: 2
#     Edge 90, Type (0, 0), BuildingBlock: CIFDUS_clean_linker_0, # of connection points: 2
#     Edge 91, Type (0, 0), BuildingBlock: CIFDUS_clean_linker_0, # of connection points: 2
#     Edge 92, Type (0, 0), BuildingBlock: CIFDUS_clean_linker_0, # of connection points: 2
#     Edge 93, Type (0, 0), BuildingBlock: CIFDUS_clean_linker_0, # of connection points: 2
#     Edge 94, Type (0, 0), BuildingBlock: CIFDUS_clean_linker_0, # of connection points: 2
#     Edge 95, Type (0, 0), BuildingBlock: CIFDUS_clean_linker_0, # of connection points: 2
# Relax obj value: 0.261
# Max RMSD: 0.143
# Mean RMSD: 0.143
data_MOF--net-dei--node1-QUQFOY_clean_sbu_1--edge1-CIFDUS_clean_linker_0
_symmetry_space_group_name_H-M    P1
_symmetry_Int_Tables_number       1
_symmetry_cell_setting            triclinic
loop_
_symmetry_equiv_pos_as_xyz
'x, y, z'
_cell_length_a     50.235808
_cell_length_b     50.24119
_cell_length_c     82.551447
_cell_angle_alpha  90.062031
_cell_angle_beta   90.185916
_cell_angle_gamma 89.820965
loop_
_atom_site_label
_atom_site_type_symbol
_atom_site_fract_x
_atom_site_fract_y
_atom_site_fract_z
_atom_type_partial_charge
O0 O 0.11069 0.64505 0.01956 0.0
Cd1 Cd 0.15126 0.64342 0.0226 0.0
Cd2 Cd 0.13927 0.65446 0.05638 0.0
O3 O 0.10305 0.64445 0.04588 0.0
O4 O 0.16594 0.61521 0.00786 0.0
O5 O 0.16389 0.61095 0.03454 0.0
C6 C 0.16884 0.60037 0.02055 0.0
C7 C 0.13739 0.6518 0.08504 0.0
C8 C 0.09463 0.64325 0.03135 0.0
C9 C 0.17067 0.69523 0.03527 0.0
O10 O 0.15964 0.68789 0.04839 0.0
O11 O 0.17088 0.67995 0.02294 0.0
O12 O 0.12474 0.66957 0.07691 0.0
O13 O 0.15176 0.63515 0.07697 0.0
O14 O 0.60216 0.91183 0.29455 0.0
Cd15 Cd 0.63501 0.89298 0.30478 0.0
Cd16 Cd 0.65127 0.90188 0.27146 0.0
O17 O 0.6141 0.92019 0.26928 0.0
O18 O 0.61831 0.88136 0.32548 0.0
O19 O 0.65321 0.90752 0.32526 0.0
C20 C 0.63589 0.8944 0.3335 0.0
C21 C 0.69364 0.92056 0.26843 0.0
C22 C 0.59679 0.921 0.28054 0.0
C23 C 0.64956 0.84586 0.28237 0.0
O24 O 0.65103 0.86102 0.27012 0.0
O25 O 0.6452 0.85544 0.29639 0.0
O26 O 0.67902 0.91494 0.25597 0.0
O27 O 0.6832 0.91756 0.28263 0.0
O28 O 0.4346 0.40532 0.52466 0.0
Cd29 Cd 0.39385 0.40492 0.52171 0.0
Cd30 Cd 0.39472 0.38975 0.55662 0.0
O31 O 0.43354 0.39949 0.55114 0.0
O32 O 0.38591 0.42831 0.50264 0.0
O33 O 0.3749 0.43908 0.52772 0.0
C34 C 0.37632 0.44568 0.5126 0.0
C35 C 0.39023 0.38892 0.58516 0.0
C36 C 0.44648 0.40389 0.53823 0.0
C37 C 0.37231 0.35093 0.53062 0.0
O38 O 0.37758 0.3572 0.54523 0.0
O39 O 0.37653 0.36736 0.51915 0.0
O40 O 0.4034 0.37131 0.57728 0.0
O41 O 0.37841 0.40718 0.57683 0.0
O42 O 0.93053 0.12282 0.80093 0.0
Cd43 Cd 0.8953 0.13969 0.80913 0.0
Cd44 Cd 0.88858 0.13718 0.77416 0.0
O45 O 0.92586 0.1187 0.77441 0.0
O46 O 0.90754 0.14923 0.83135 0.0
O47 O 0.87397 0.12211 0.82735 0.0
C48 C 0.88903 0.13482 0.83737 0.0
C49 C 0.84793 0.11911 0.76567 0.0
C50 C 0.93981 0.11587 0.78722 0.0
C51 C 0.88526 0.19054 0.7889 0.0
O52 O 0.88847 0.17814 0.77563 0.0
O53 O 0.88554 0.17807 0.80228 0.0
O54 O 0.86563 0.12675 0.75535 0.0
O55 O 0.85421 0.11988 0.78089 0.0
O56 O 0.10788 0.40502 0.98973 0.0
Cd57 Cd 0.14879 0.40491 0.99163 0.0
Cd58 Cd 0.14849 0.39216 0.958 0.0
O59 O 0.10926 0.40109 0.96315 0.0
O60 O 0.15964 0.43264 0.00787 0.0
O61 O 0.16658 0.4365 0.98149 0.0
C62 C 0.16747 0.44702 0.99582 0.0
C63 C 0.15567 0.39782 0.92994 0.0
C64 C 0.09609 0.40445 0.97611 0.0
C65 C 0.17039 0.3512 0.98253 0.0
O66 O 0.16497 0.35795 0.96803 0.0
O67 O 0.16653 0.36747 0.99417 0.0
O68 O 0.14169 0.37874 0.93569 0.0
O69 O 0.16703 0.41354 0.94019 0.0
O70 O 0.93799 0.90993 0.21788 0.0
Cd71 Cd 0.9046 0.89135 0.20816 0.0
Cd72 Cd 0.88942 0.90251 0.24144 0.0
O73 O 0.9265 0.92085 0.24289 0.0
O74 O 0.92081 0.87786 0.18767 0.0
O75 O 0.88678 0.90536 0.18742 0.0
C76 C 0.90365 0.89115 0.17942 0.0
C77 C 0.84689 0.92116 0.24407 0.0
C78 C 0.94367 0.92028 0.23154 0.0
C79 C 0.88971 0.84605 0.23171 0.0
O80 O 0.88983 0.86181 0.24373 0.0
O81 O 0.89311 0.85478 0.21741 0.0
O82 O 0.86164 0.91661 0.25664 0.0
O83 O 0.85731 0.91725 0.22993 0.0
O84 O 0.43272 0.643 0.48756 0.0
Cd85 Cd 0.3918 0.64296 0.48851 0.0
Cd86 Cd 0.39658 0.65265 0.45276 0.0
O87 O 0.43395 0.64116 0.46084 0.0
O88 O 0.38135 0.61979 0.50716 0.0
O89 O 0.37493 0.60839 0.48154 0.0
C90 C 0.3741 0.60202 0.49672 0.0
C91 C 0.39566 0.65206 0.42402 0.0
C92 C 0.44567 0.64001 0.4745 0.0
C93 C 0.37051 0.69466 0.47602 0.0
O94 O 0.37821 0.68633 0.46222 0.0
O95 O 0.37315 0.68015 0.48858 0.0
O96 O 0.40904 0.66915 0.4322 0.0
O97 O 0.38191 0.63503 0.4321 0.0
O98 O 0.60979 0.11964 0.71409 0.0
Cd99 Cd 0.64478 0.13625 0.70561 0.0
Cd100 Cd 0.6509 0.13583 0.74075 0.0
O101 O 0.61369 0.11739 0.74072 0.0
O102 O 0.63159 0.14465 0.68345 0.0
O103 O 0.66585 0.11821 0.68737 0.0
C104 C 0.65006 0.13012 0.67737 0.0
C105 C 0.69164 0.11821 0.74956 0.0
C106 C 0.60016 0.11359 0.72784 0.0
C107 C 0.65442 0.18822 0.7249 0.0
O108 O 0.65098 0.17667 0.7384 0.0
O109 O 0.65434 0.17495 0.71178 0.0
O110 O 0.6739 0.12639 0.75974 0.0
O111 O 0.68534 0.11813 0.73434 0.0
O112 O 0.92214 0.39968 0.99349 0.0
Cd113 Cd 0.88128 0.40079 0.99203 0.0
Cd114 Cd 0.89122 0.39072 0.95735 0.0
O115 O 0.92804 0.40051 0.967 0.0
O116 O 0.86855 0.42498 0.00966 0.0
O117 O 0.86615 0.43533 0.98363 0.0
C118 C 0.86322 0.44242 0.99861 0.0
C119 C 0.89215 0.39161 0.92867 0.0
C120 C 0.93742 0.40155 0.98132 0.0
C121 C 0.86134 0.3494 0.97892 0.0
O122 O 0.87138 0.35739 0.96567 0.0
O123 O 0.86204 0.36406 0.99152 0.0
O124 O 0.90506 0.37439 0.93706 0.0
O125 O 0.87819 0.4089 0.9365 0.0
O126 O 0.38963 0.17569 0.74711 0.0
Cd127 Cd 0.38959 0.13492 0.74502 0.0
Cd128 Cd 0.40419 0.14441 0.71195 0.0
O129 O 0.39367 0.18159 0.72076 0.0
O130 O 0.36079 0.12049 0.75926 0.0
O131 O 0.35873 0.12015 0.73244 0.0
C132 C 0.34721 0.11594 0.74621 0.0
C133 C 0.40335 0.14411 0.68327 0.0
C134 C 0.39006 0.191 0.73489 0.0
C135 C 0.44362 0.11621 0.73535 0.0
O136 O 0.43759 0.12572 0.72153 0.0
O137 O 0.42677 0.1166 0.74686 0.0
O138 O 0.42065 0.15716 0.69149 0.0
O139 O 0.3862 0.13039 0.69129 0.0
O140 O 0.61829 0.64678 0.49675 0.0
Cd141 Cd 0.65916 0.64591 0.495 0.0
Cd142 Cd 0.64979 0.64944 0.46046 0.0
O143 O 0.61334 0.6401 0.47052 0.0
O144 O 0.67353 0.62206 0.51234 0.0
O145 O 0.67388 0.61155 0.48626 0.0
C146 C 0.67812 0.6046 0.50115 0.0
C147 C 0.64742 0.6437 0.43206 0.0
C148 C 0.60348 0.64182 0.48464 0.0
C149 C 0.6783 0.69521 0.47925 0.0
O150 O 0.66848 0.6848 0.46652 0.0
O151 O 0.67796 0.68261 0.49263 0.0
O152 O 0.63446 0.66188 0.43958 0.0
O153 O 0.66265 0.62844 0.44059 0.0
O154 O 0.15051 0.86116 0.23856 0.0
Cd155 Cd 0.15088 0.90211 0.24031 0.0
Cd156 Cd 0.14727 0.90137 0.20585 0.0
O157 O 0.15539 0.86241 0.21207 0.0
O158 O 0.1741 0.91241 0.25904 0.0
O159 O 0.18539 0.91893 0.23344 0.0
C160 C 0.19183 0.9197 0.24863 0.0
C161 C 0.15646 0.90707 0.17806 0.0
C162 C 0.15429 0.84927 0.22518 0.0
C163 C 0.10073 0.92416 0.22628 0.0
O164 O 0.11122 0.91784 0.21279 0.0
O165 O 0.11364 0.92082 0.23944 0.0
O166 O 0.13732 0.89258 0.18319 0.0
O167 O 0.17041 0.91963 0.18871 0.0
O168 O 0.92467 0.64033 0.02084 0.0
Cd169 Cd 0.88376 0.64038 0.01876 0.0
Cd170 Cd 0.88386 0.64228 0.05335 0.0
O171 O 0.92264 0.63318 0.04713 0.0
O172 O 0.87321 0.61697 1.00022 0.0
O173 O 0.86652 0.60631 0.02592 0.0
C174 C 0.86568 0.59957 0.01079 0.0
C175 C 0.87812 0.63448 0.08134 0.0
C176 C 0.93612 0.63506 0.0342 0.0
C177 C 0.86166 0.68976 0.03316 0.0
O178 O 0.86774 0.67854 0.04647 0.0
O179 O 0.8652 0.67758 0.01979 0.0
O180 O 0.89291 0.65307 0.0758 0.0
O181 O 0.86559 0.62 0.07093 0.0
O182 O 0.14965 0.17516 0.76409 0.0
Cd183 Cd 0.14964 0.13442 0.76632 0.0
Cd184 Cd 0.13729 0.14413 0.79964 0.0
O185 O 0.1484 0.18084 0.79056 0.0
O186 O 0.17833 0.11943 0.75212 0.0
O187 O 0.18063 0.11997 0.77894 0.0
C188 C 0.19207 0.11535 0.76518 0.0
C189 C 0.13908 0.14461 0.82829 0.0
C190 C 0.15085 0.19032 0.77637 0.0
C191 C 0.09617 0.11648 0.77713 0.0
O192 O 0.10311 0.12615 0.79076 0.0
O193 O 0.11236 0.11636 0.76527 0.0
O194 O 0.12184 0.15795 0.82015 0.0
O195 O 0.15559 0.1301 0.82021 0.0
O196 O 0.61959 0.40599 0.51837 0.0
Cd197 Cd 0.66052 0.40603 0.51863 0.0
Cd198 Cd 0.65358 0.39164 0.55201 0.0
O199 O 0.61518 0.401 0.54478 0.0
O200 O 0.67143 0.4303 0.50067 0.0
O201 O 0.67767 0.43991 0.52656 0.0
C202 C 0.67874 0.44728 0.51156 0.0
C203 C 0.65948 0.39624 0.58032 0.0
C204 C 0.60496 0.40486 0.53086 0.0
C205 C 0.67955 0.35178 0.52823 0.0
O206 O 0.67104 0.35779 0.54228 0.0
O207 O 0.67852 0.36872 0.51676 0.0
O208 O 0.64518 0.37777 0.57403 0.0
O209 O 0.67114 0.41237 0.57051 0.0
O210 O 0.3899 0.86083 0.27308 0.0
Cd211 Cd 0.38965 0.90178 0.27175 0.0
Cd212 Cd 0.39637 0.89873 0.3074 0.0
O213 O 0.38641 0.86093 0.2997 0.0
O214 O 0.3663 0.91235 0.25312 0.0
O215 O 0.35511 0.9187 0.27876 0.0
C216 C 0.3486 0.91961 0.26358 0.0
C217 C 0.39494 0.89901 0.33604 0.0
C218 C 0.3864 0.84847 0.28631 0.0
C219 C 0.44009 0.92392 0.28529 0.0
O220 O 0.43051 0.91697 0.29889 0.0
O221 O 0.42676 0.9205 0.27229 0.0
O222 O 0.41254 0.88615 0.32799 0.0
O223 O 0.37791 0.91285 0.32789 0.0
O224 O 0.61734 0.14624 0.51617 0.0
Cd225 Cd 0.65815 0.14505 0.51842 0.0
Cd226 Cd 0.6488 0.15154 0.55259 0.0
O227 O 0.61209 0.14249 0.54258 0.0
O228 O 0.67312 0.11724 0.50355 0.0
O229 O 0.67158 0.1129 0.53026 0.0
C230 C 0.67663 0.10251 0.51624 0.0
C231 C 0.64722 0.14686 0.58108 0.0
C232 C 0.60235 0.14288 0.52835 0.0
C233 C 0.67829 0.19518 0.53273 0.0
O234 O 0.66841 0.18596 0.54574 0.0
O235 O 0.67749 0.18163 0.5197 0.0
O236 O 0.63448 0.16512 0.57345 0.0
O237 O 0.66169 0.13088 0.57259 0.0
O238 O 0.1045 0.41534 0.79421 0.0
Cd239 Cd 0.13784 0.3982 0.80499 0.0
Cd240 Cd 0.15252 0.40197 0.77112 0.0
O241 O 0.11525 0.41975 0.7684 0.0
O242 O 0.15508 0.41383 0.82548 0.0
O243 O 0.12049 0.38727 0.82554 0.0
C244 C 0.13773 0.40059 0.83363 0.0
C245 C 0.1946 0.4211 0.76842 0.0
C246 C 0.09843 0.42228 0.77983 0.0
C247 C 0.15316 0.34825 0.78489 0.0
O248 O 0.15304 0.36102 0.77163 0.0
O249 O 0.14935 0.36027 0.79824 0.0
O250 O 0.18077 0.41438 0.75582 0.0
O251 O 0.18349 0.41894 0.78249 0.0
O252 O 0.92459 0.90152 0.02013 0.0
Cd253 Cd 0.88386 0.90156 0.02217 0.0
Cd254 Cd 0.89352 0.88603 0.05444 0.0
O255 O 0.93126 0.8958 0.04631 0.0
O256 O 0.86974 0.92984 0.00736 0.0
O257 O 0.86866 0.93286 0.03414 0.0
C258 C 0.86482 0.9439 0.02015 0.0
C259 C 0.88877 0.89197 0.08272 0.0
C260 C 0.94028 0.90014 0.03218 0.0
C261 C 0.86581 0.84697 0.03101 0.0
O262 O 0.87555 0.8522 0.04492 0.0
O263 O 0.86572 0.86455 0.01989 0.0
O264 O 0.90307 0.87325 0.07663 0.0
O265 O 0.87639 0.90744 0.07275 0.0
O266 O 0.43554 0.62439 0.29038 0.0
Cd267 Cd 0.40104 0.64209 0.29916 0.0
Cd268 Cd 0.38865 0.63463 0.26567 0.0
O269 O 0.42589 0.61649 0.26466 0.0
O270 O 0.41335 0.65154 0.32143 0.0
O271 O 0.3794 0.62489 0.31731 0.0
C272 C 0.39465 0.63726 0.3274 0.0
C273 C 0.34734 0.61593 0.25921 0.0
C274 C 0.44222 0.61561 0.27649 0.0
C275 C 0.38886 0.69027 0.27733 0.0
O276 O 0.38886 0.67552 0.26484 0.0
O277 O 0.39166 0.68019 0.29136 0.0
O278 O 0.36411 0.62245 0.24807 0.0
O279 O 0.35496 0.61813 0.27415 0.0
O280 O 0.61784 0.90604 0.49294 0.0
Cd281 Cd 0.65857 0.90649 0.49073 0.0
Cd282 Cd 0.64869 0.89143 0.45837 0.0
O283 O 0.61095 0.90071 0.46675 0.0
O284 O 0.67248 0.93451 0.50577 0.0
O285 O 0.67338 0.93813 0.47903 0.0
C286 C 0.67724 0.94885 0.49311 0.0
C287 C 0.65265 0.89719 0.43004 0.0
C288 C 0.60202 0.90465 0.48095 0.0
C289 C 0.67715 0.85218 0.48139 0.0
O290 O 0.6671 0.8576 0.4676 0.0
O291 O 0.67727 0.86959 0.49264 0.0
O292 O 0.63867 0.87851 0.4363 0.0
O293 O 0.66517 0.91277 0.43987 0.0
O294 O 0.43666 0.41702 0.71858 0.0
Cd295 Cd 0.40181 0.40105 0.70919 0.0
Cd296 Cd 0.39032 0.40251 0.74256 0.0
O297 O 0.42771 0.42017 0.74471 0.0
O298 O 0.41392 0.39324 0.68678 0.0
O299 O 0.38005 0.4199 0.69156 0.0
C300 C 0.39491 0.40772 0.6812 0.0
C301 C 0.34819 0.42164 0.74557 0.0
C302 C 0.44378 0.42314 0.73293 0.0
C303 C 0.38956 0.34941 0.72803 0.0
O304 O 0.38999 0.36155 0.74152 0.0
O305 O 0.39234 0.36221 0.71488 0.0
O306 O 0.36221 0.41478 0.75807 0.0
O307 O 0.35916 0.41966 0.73144 0.0
O308 O 0.92538 0.14078 0.99678 0.0
Cd309 Cd 0.88445 0.14019 0.99581 0.0
Cd310 Cd 0.89118 0.15466 0.96233 0.0
O311 O 0.9292 0.14548 0.97033 0.0
O312 O 0.87138 0.11184 0.01084 0.0
O313 O 0.86892 0.10885 0.98409 0.0
C314 C 0.86578 0.09784 0.99813 0.0
C315 C 0.88944 0.15341 0.93367 0.0
C316 C 0.93974 0.14187 0.98418 0.0
C317 C 0.86362 0.19357 0.98624 0.0
O318 O 0.87203 0.18754 0.97217 0.0
O319 O 0.86561 0.17699 0.99785 0.0
O320 O 0.90212 0.17137 0.94156 0.0
O321 O 0.8768 0.13587 0.94202 0.0
O322 O 0.09985 0.62549 0.21959 0.0
Cd323 Cd 0.13369 0.64319 0.21003 0.0
Cd324 Cd 0.14848 0.63493 0.24326 0.0
O325 O 0.11133 0.61703 0.24497 0.0
O326 O 0.12047 0.65217 0.18783 0.0
O327 O 0.15481 0.62571 0.19171 0.0
C328 C 0.13908 0.63777 0.18173 0.0
C329 C 0.18988 0.6161 0.24974 0.0
C330 C 0.09418 0.61646 0.23357 0.0
C331 C 0.14741 0.69087 0.23185 0.0
O332 O 0.14835 0.67579 0.24417 0.0
O333 O 0.14353 0.68121 0.21779 0.0
O334 O 0.17318 0.62296 0.26087 0.0
O335 O 0.18216 0.61802 0.23481 0.0
O336 O 0.43206 0.90483 0.49139 0.0
Cd337 Cd 0.39125 0.90462 0.49382 0.0
Cd338 Cd 0.38972 0.89279 0.46039 0.0
O339 O 0.42919 0.90156 0.46483 0.0
O340 O 0.38051 0.9328 0.50977 0.0
O341 O 0.37306 0.93584 0.48336 0.0
C342 C 0.37242 0.94682 0.49756 0.0
C343 C 0.38096 0.89802 0.43246 0.0
C344 C 0.4431 0.90457 0.47757 0.0
C345 C 0.36961 0.85115 0.48485 0.0
O346 O 0.3742 0.85835 0.47036 0.0
O347 O 0.37391 0.86713 0.49658 0.0
O348 O 0.39538 0.87906 0.43812 0.0
O349 O 0.37018 0.91402 0.44277 0.0
O350 O 0.88729 0.67607 0.23998 0.0
Cd351 Cd 0.88737 0.63521 0.24203 0.0
Cd352 Cd 0.89281 0.63656 0.20639 0.0
O353 O 0.88224 0.67461 0.21344 0.0
O354 O 0.86415 0.62512 0.26065 0.0
O355 O 0.85317 0.61786 0.23501 0.0
C356 C 0.84664 0.61734 0.25016 0.0
C357 C 0.89216 0.63482 0.17775 0.0
C358 C 0.88285 0.68774 0.2266 0.0
C359 C 0.93741 0.61263 0.22873 0.0
O360 O 0.9273 0.619 0.21512 0.0
O361 O 0.92448 0.61652 0.24176 0.0
O362 O 0.9092 0.64838 0.18581 0.0
O363 O 0.87499 0.62139 0.18591 0.0
O364 O 0.11055 0.14379 0.9864 0.0
Cd365 Cd 0.15154 0.1431 0.98704 0.0
Cd366 Cd 0.14855 0.15126 0.95295 0.0
O367 O 0.10982 0.14322 0.95969 0.0
O368 O 0.16391 0.11515 1.00276 0.0
O369 O 0.16712 0.11097 0.97611 0.0
C370 C 0.16958 0.10045 0.99035 0.0
C371 C 0.15407 0.1445 0.92481 0.0
C372 C 0.09768 0.14222 0.97317 0.0
C373 C 0.17342 0.19452 0.97512 0.0
O374 O 0.16637 0.18581 0.96128 0.0
O375 O 0.17035 0.18022 0.98772 0.0
O376 O 0.1401 0.16364 0.93063 0.0
O377 O 0.16579 0.12893 0.93501 0.0
O378 O 0.65081 0.36259 0.74194 0.0
Cd379 Cd 0.65193 0.40331 0.73945 0.0
Cd380 Cd 0.64275 0.39234 0.70547 0.0
O381 O 0.65225 0.35575 0.71555 0.0
O382 O 0.67953 0.41798 0.75463 0.0
O383 O 0.6844 0.41671 0.72797 0.0
C384 C 0.69455 0.42151 0.74212 0.0
C385 C 0.64621 0.39099 0.67686 0.0
C386 C 0.65294 0.34686 0.72996 0.0
C387 C 0.60041 0.42258 0.7261 0.0
O388 O 0.60865 0.41208 0.713 0.0
O389 O 0.61506 0.42256 0.73873 0.0
O390 O 0.62839 0.37811 0.68468 0.0
O391 O 0.6625 0.4053 0.68523 0.0
O392 O 0.43143 0.14297 0.52456 0.0
Cd393 Cd 0.39044 0.14279 0.52437 0.0
Cd394 Cd 0.39436 0.15014 0.5585 0.0
O395 O 0.43255 0.14038 0.55122 0.0
O396 O 0.37726 0.11476 0.50898 0.0
O397 O 0.37508 0.1111 0.5357 0.0
C398 C 0.37198 0.10036 0.52155 0.0
C399 C 0.38925 0.14336 0.58666 0.0
C400 C 0.44443 0.1399 0.53764 0.0
C401 C 0.36949 0.19425 0.53678 0.0
O402 O 0.37706 0.18527 0.55045 0.0
O403 O 0.37182 0.18004 0.52406 0.0
O404 O 0.40383 0.16191 0.58081 0.0
O405 O 0.37676 0.12839 0.57649 0.0
O406 O 0.64904 0.6756 0.27541 0.0
Cd407 Cd 0.64929 0.63476 0.27296 0.0
Cd408 Cd 0.64287 0.63469 0.30771 0.0
O409 O 0.65067 0.67394 0.30208 0.0
O410 O 0.67264 0.6254 0.25422 0.0
O411 O 0.68358 0.61711 0.27974 0.0
C412 C 0.69016 0.61717 0.26459 0.0
C413 C 0.64885 0.62778 0.33582 0.0
C414 C 0.65114 0.68725 0.28901 0.0
C415 C 0.59866 0.61181 0.28528 0.0
O416 O 0.60818 0.61751 0.29915 0.0
O417 O 0.61218 0.61617 0.27254 0.0
O418 O 0.62976 0.6418 0.32998 0.0
O419 O 0.66495 0.61684 0.32564 0.0
O420 O 0.1102 0.90474 0.02251 0.0
Cd421 Cd 0.15097 0.90498 0.01976 0.0
Cd422 Cd 0.15197 0.89092 0.05383 0.0
O423 O 0.11277 0.90066 0.04907 0.0
O424 O 0.16065 0.93312 1.00358 0.0
O425 O 0.16905 0.93656 0.02985 0.0
C426 C 0.16902 0.94735 0.01561 0.0
C427 C 0.15861 0.88979 0.0822 0.0
C428 C 0.09904 0.90411 0.03629 0.0
C429 C 0.17322 0.85138 0.02793 0.0
O430 O 0.16827 0.85794 0.04249 0.0
O431 O 0.16882 0.86774 0.01642 0.0
O432 O 0.14468 0.87248 0.07459 0.0
O433 O 0.16968 0.90817 0.07369 0.0
O434 O 0.8917 0.3637 0.76858 0.0
Cd435 Cd 0.89057 0.40458 0.77014 0.0
Cd436 Cd 0.89707 0.39634 0.80378 0.0
O437 O 0.88834 0.35868 0.79504 0.0
O438 O 0.86299 0.41859 0.75467 0.0
O439 O 0.85802 0.41863 0.78133 0.0
C440 C 0.8479 0.42271 0.7671 0.0
C441 C 0.88915 0.40061 0.83188 0.0
C442 C 0.88869 0.34879 0.78085 0.0
C443 C 0.9415 0.42391 0.78387 0.0
O444 O 0.93235 0.41425 0.79695 0.0
O445 O 0.9275 0.42359 0.77097 0.0
O446 O 0.90775 0.38584 0.82613 0.0
O447 O 0.87445 0.41333 0.82163 0.0
H448 H 0.11107 0.66482 0.15916 0.0
H449 H 0.17427 0.60707 0.1641 0.0
H450 H 0.17926 0.60565 0.13453 0.0
H451 H 0.16574 0.62161 0.10711 0.0
H452 H 0.10294 0.68026 0.10333 0.0
H453 H 0.09781 0.68043 0.13253 0.0
C454 C 0.12593 0.6518 0.15383 0.0
C455 C 0.14223 0.63604 0.16387 0.0
C456 C 0.12881 0.65128 0.13695 0.0
C457 C 0.16143 0.61942 0.15667 0.0
C458 C 0.16429 0.61861 0.13975 0.0
C459 C 0.15092 0.63435 0.11271 0.0
C460 C 0.1348 0.65092 0.10295 0.0
C461 C 0.14811 0.63456 0.12974 0.0
C462 C 0.11574 0.66736 0.11044 0.0
C463 C 0.11271 0.66749 0.1272 0.0
H464 H 0.62171 0.87238 0.40804 0.0
H465 H 0.68514 0.92969 0.41187 0.0
H466 H 0.68579 0.93423 0.38225 0.0
H467 H 0.66818 0.92131 0.35509 0.0
H468 H 0.60389 0.86452 0.35244 0.0
H469 H 0.60379 0.86051 0.38171 0.0
C470 C 0.63578 0.88586 0.40245 0.0
C471 C 0.65346 0.90054 0.41218 0.0
C472 C 0.63585 0.88851 0.38555 0.0
C473 C 0.67133 0.91811 0.40467 0.0
C474 C 0.6717 0.92069 0.38773 0.0
C475 C 0.65415 0.90814 0.36094 0.0
C476 C 0.63611 0.89323 0.35148 0.0
C477 C 0.65403 0.90593 0.37801 0.0
C478 C 0.61801 0.87628 0.35931 0.0
C479 C 0.61791 0.8739 0.37611 0.0
H480 H 0.4112 0.37173 0.65942 0.0
H481 H 0.36691 0.44506 0.66337 0.0
H482 H 0.36036 0.44555 0.63381 0.0
H483 H 0.36892 0.42537 0.60664 0.0
H484 H 0.41234 0.35106 0.60416 0.0
H485 H 0.41728 0.35071 0.63334 0.0
C486 C 0.40015 0.38794 0.65386 0.0
C487 C 0.3899 0.40854 0.66352 0.0
C488 C 0.39623 0.38784 0.63708 0.0
C489 C 0.37515 0.42904 0.65615 0.0
C490 C 0.37142 0.4293 0.63926 0.0
C491 C 0.37922 0.40902 0.61253 0.0
C492 C 0.39041 0.38839 0.60312 0.0
C493 C 0.38206 0.40883 0.62956 0.0
C494 C 0.40365 0.36731 0.61098 0.0
C495 C 0.40657 0.36706 0.62773 0.0
H496 H 0.86427 0.11941 0.91224 0.0
H497 H 0.9175 0.18675 0.91462 0.0
H498 H 0.92186 0.18651 0.88541 0.0
H499 H 0.91151 0.1674 0.85926 0.0
H500 H 0.85775 0.10093 0.85549 0.0
H501 H 0.85265 0.10064 0.88511 0.0
C502 C 0.87672 0.13404 0.90633 0.0
C503 C 0.89057 0.15302 0.9157 0.0
C504 C 0.87916 0.13394 0.88928 0.0
C505 C 0.90658 0.17189 0.90781 0.0
C506 C 0.90917 0.17179 0.89105 0.0
C507 C 0.89869 0.15273 0.86485 0.0
C508 C 0.88521 0.13408 0.85518 0.0
C509 C 0.89571 0.15288 0.8817 0.0
C510 C 0.86843 0.11547 0.86268 0.0
C511 C 0.86552 0.11532 0.8796 0.0
H512 H 0.12377 0.37551 0.90765 0.0
H513 H 0.18961 0.42986 0.91234 0.0
H514 H 0.18995 0.43615 0.88279 0.0
H515 H 0.17129 0.42549 0.85546 0.0
H516 H 0.10425 0.37198 0.85226 0.0
H517 H 0.10462 0.36629 0.88137 0.0
C518 C 0.13836 0.38868 0.90228 0.0
C519 C 0.15682 0.40197 0.91218 0.0
C520 C 0.13811 0.39246 0.88549 0.0
C521 C 0.17525 0.41927 0.90496 0.0
C522 C 0.17541 0.42288 0.88808 0.0
C523 C 0.15671 0.41273 0.86118 0.0
C524 C 0.13782 0.39915 0.85159 0.0
C525 C 0.15688 0.40953 0.87818 0.0
C526 C 0.11905 0.38271 0.85923 0.0
C527 C 0.11923 0.37934 0.87593 0.0
H528 H 0.9181 0.86612 0.10519 0.0
H529 H 0.85685 0.92596 0.10042 0.0
H530 H 0.85573 0.93123 0.12999 0.0
H531 H 0.87248 0.91849 0.15737 0.0
H532 H 0.93458 0.85906 0.16099 0.0
H533 H 0.93497 0.85411 0.13177 0.0
C534 C 0.9044 0.88031 0.11056 0.0
C535 C 0.8875 0.89552 0.10058 0.0
C536 C 0.90405 0.88336 0.12744 0.0
C537 C 0.87006 0.91394 0.10781 0.0
C538 C 0.86942 0.91696 0.12473 0.0
C539 C 0.88609 0.9045 0.15174 0.0
C540 C 0.90346 0.88918 0.16146 0.0
C541 C 0.88637 0.90175 0.1347 0.0
C542 C 0.921 0.87118 0.15391 0.0
C543 C 0.92125 0.86826 0.13714 0.0
H544 H 0.36883 0.62038 0.40203 0.0
H545 H 0.42619 0.68408 0.40552 0.0
H546 H 0.43077 0.6847 0.37632 0.0
H547 H 0.41926 0.66745 0.34982 0.0
H548 H 0.36151 0.60458 0.34505 0.0
H549 H 0.35634 0.60338 0.37463 0.0
C550 C 0.38225 0.63439 0.39637 0.0
C551 C 0.39715 0.65211 0.40606 0.0
C552 C 0.38482 0.63481 0.37932 0.0
C553 C 0.41443 0.6702 0.39848 0.0
C554 C 0.41714 0.67059 0.38171 0.0
C555 C 0.40554 0.65338 0.35518 0.0
C556 C 0.39092 0.63603 0.34522 0.0
C557 C 0.40255 0.65298 0.37205 0.0
C558 C 0.37306 0.61814 0.35245 0.0
C559 C 0.37011 0.61746 0.36936 0.0
H560 H 0.62001 0.1552 0.65509 0.0
H561 H 0.68671 0.10139 0.65949 0.0
H562 H 0.69151 0.10087 0.62987 0.0
H563 H 0.6771 0.11709 0.60262 0.0
H564 H 0.61081 0.17192 0.59963 0.0
H565 H 0.60561 0.17056 0.62878 0.0
C566 C 0.63561 0.14321 0.64965 0.0
C567 C 0.65298 0.12837 0.65952 0.0
C568 C 0.63838 0.14326 0.6328 0.0
C569 C 0.67304 0.11301 0.65217 0.0
C570 C 0.67581 0.11275 0.63524 0.0
C571 C 0.6615 0.12861 0.60839 0.0
C572 C 0.64447 0.14468 0.59889 0.0
C573 C 0.65866 0.12799 0.6254 0.0
C574 C 0.62435 0.15954 0.60657 0.0
C575 C 0.62128 0.15877 0.62328 0.0
H576 H 0.91521 0.37255 0.85474 0.0
H577 H 0.8548 0.43304 0.84903 0.0
H578 H 0.85027 0.43606 0.8786 0.0
H579 H 0.86405 0.42132 0.90625 0.0
H580 H 0.92444 0.36029 0.9107 0.0
H581 H 0.92836 0.35783 0.88149 0.0
C582 C 0.901 0.38646 0.85989 0.0
C583 C 0.88542 0.40258 0.84966 0.0
C584 C 0.89853 0.38803 0.87675 0.0
C585 C 0.86705 0.42036 0.85663 0.0
C586 C 0.86449 0.42212 0.87354 0.0
C587 C 0.87805 0.40755 0.90079 0.0
C588 C 0.89392 0.39104 0.91073 0.0
C589 C 0.88021 0.40605 0.88375 0.0
C590 C 0.91192 0.37322 0.90344 0.0
C591 C 0.91423 0.37176 0.88668 0.0
H592 H 0.37185 0.11727 0.6612 0.0
H593 H 0.43506 0.17514 0.66491 0.0
H594 H 0.43584 0.17981 0.63572 0.0
H595 H 0.41898 0.16814 0.60919 0.0
H596 H 0.35656 0.10995 0.60415 0.0
H597 H 0.35511 0.10474 0.63373 0.0
C598 C 0.38578 0.13084 0.65558 0.0
C599 C 0.40334 0.14582 0.66532 0.0
C600 C 0.38629 0.13344 0.63855 0.0
C601 C 0.42132 0.16329 0.65782 0.0
C602 C 0.4218 0.16606 0.64107 0.0
C603 C 0.40495 0.15431 0.61449 0.0
C604 C 0.38781 0.13956 0.60446 0.0
C605 C 0.4044 0.15133 0.63134 0.0
C606 C 0.36996 0.12159 0.6116 0.0
C607 C 0.36913 0.11862 0.62852 0.0
H608 H 0.67875 0.61608 0.41031 0.0
H609 H 0.60808 0.66497 0.41394 0.0
H610 H 0.60196 0.66302 0.38484 0.0
H611 H 0.61698 0.64929 0.3584 0.0
H612 H 0.68803 0.60164 0.3533 0.0
H613 H 0.69357 0.60108 0.3829 0.0
C614 C 0.66198 0.62613 0.40469 0.0
C615 C 0.64402 0.64079 0.41433 0.0
C616 C 0.65863 0.62523 0.3877 0.0
C617 C 0.62238 0.65375 0.40687 0.0
C618 C 0.61877 0.65263 0.39019 0.0
C619 C 0.63369 0.63863 0.36368 0.0
C620 C 0.65211 0.6256 0.35363 0.0
C621 C 0.63687 0.63872 0.38051 0.0
C622 C 0.67356 0.61186 0.36077 0.0
C623 C 0.67674 0.61159 0.37769 0.0
H624 H 0.14448 0.86926 0.15652 0.0
H625 H 0.18164 0.94621 0.16032 0.0
H626 H 0.18732 0.94736 0.13071 0.0
H627 H 0.17877 0.9271 0.10351 0.0
H628 H 0.14198 0.84952 0.10118 0.0
H629 H 0.1393 0.84801 0.13044 0.0
C630 C 0.15388 0.88633 0.15091 0.0
C631 C 0.16223 0.90781 0.16052 0.0
C632 C 0.15712 0.88672 0.13411 0.0
C633 C 0.17492 0.92949 0.15312 0.0
C634 C 0.17808 0.93014 0.13621 0.0
C635 C 0.17048 0.90979 0.10946 0.0
C636 C 0.16031 0.88861 0.1001 0.0
C637 C 0.16887 0.90898 0.12653 0.0
C638 C 0.14971 0.86625 0.108 0.0
C639 C 0.14812 0.86531 0.12478 0.0
H640 H 0.90982 0.6564 0.10377 0.0
H641 H 0.84351 0.6027 0.09871 0.0
H642 H 0.84188 0.59742 0.12832 0.0
H643 H 0.85929 0.60922 0.15582 0.0
H644 H 0.92628 0.6628 0.15929 0.0
H645 H 0.92754 0.66688 0.13013 0.0
C646 C 0.89489 0.64353 0.10906 0.0
C647 C 0.87668 0.63014 0.09905 0.0
C648 C 0.89421 0.64056 0.12587 0.0
C649 C 0.85774 0.6133 0.10617 0.0
C650 C 0.8568 0.61032 0.12309 0.0
C651 C 0.87417 0.62167 0.15015 0.0
C652 C 0.89258 0.63573 0.15982 0.0
C653 C 0.87492 0.624 0.1331 0.0
C654 C 0.91179 0.65176 0.15226 0.0
C655 C 0.91258 0.65417 0.13552 0.0
H656 H 0.16942 0.11632 0.85033 0.0
H657 H 0.11002 0.17846 0.84657 0.0
H658 H 0.11007 0.18385 0.87572 0.0
H659 H 0.1263 0.17137 0.90223 0.0
H660 H 0.18478 0.10889 0.90738 0.0
H661 H 0.18577 0.10324 0.8778 0.0
C662 C 0.15653 0.131 0.85593 0.0
C663 C 0.13973 0.14692 0.8462 0.0
C664 C 0.15646 0.13401 0.87295 0.0
C665 C 0.1231 0.16583 0.85367 0.0
C666 C 0.1231 0.16902 0.8704 0.0
C667 C 0.13939 0.15651 0.89696 0.0
C668 C 0.15551 0.14065 0.90702 0.0
C669 C 0.13964 0.15326 0.88013 0.0
C670 C 0.17217 0.12141 0.8999 0.0
C671 C 0.17272 0.11818 0.88299 0.0
H672 H 0.63428 0.36627 0.6025 0.0
H673 H 0.689 0.43189 0.59838 0.0
H674 H 0.69058 0.43586 0.62803 0.0
H675 H 0.67533 0.42093 0.65526 0.0
H676 H 0.61967 0.35572 0.65815 0.0
H677 H 0.61966 0.35143 0.6289 0.0
C678 C 0.64668 0.38145 0.60802 0.0
C679 C 0.6615 0.39875 0.5982 0.0
C680 C 0.64728 0.38373 0.62493 0.0
C681 C 0.67737 0.41829 0.60565 0.0
C682 C 0.67826 0.42058 0.6226 0.0
C683 C 0.66331 0.40576 0.64946 0.0
C684 C 0.64747 0.38874 0.65896 0.0
C685 C 0.66316 0.40345 0.6324 0.0
C686 C 0.63195 0.36921 0.65122 0.0
C687 C 0.63192 0.36667 0.63444 0.0
H688 H 0.36386 0.92633 0.35813 0.0
H689 H 0.42491 0.86584 0.35422 0.0
H690 H 0.42492 0.85994 0.3833 0.0
H691 H 0.40846 0.87159 0.40975 0.0
H692 H 0.34876 0.93277 0.41524 0.0
H693 H 0.34726 0.93864 0.38567 0.0
C694 C 0.37712 0.91191 0.36369 0.0
C695 C 0.39437 0.89661 0.35393 0.0
C696 C 0.37726 0.90863 0.38068 0.0
C697 C 0.41148 0.87801 0.36134 0.0
C698 C 0.41151 0.87451 0.37802 0.0
C699 C 0.39494 0.88616 0.40456 0.0
C700 C 0.37864 0.90161 0.4147 0.0
C701 C 0.39455 0.88966 0.38777 0.0
C702 C 0.36147 0.92055 0.40769 0.0
C703 C 0.36067 0.92393 0.39079 0.0
H704 H 0.05735 0.6284 0.05302 0.0
H705 H 0.06682 0.65143 1.00304 0.0
H706 H 1.0185 0.6495 0.99909 0.0
H707 H 0.97329 0.64372 0.01044 0.0
H708 H 0.96515 0.62055 0.06059 0.0
H709 H 1.01318 0.61999 0.06375 0.0
C710 C 0.04892 0.63294 0.04122 0.0
C711 C 0.06567 0.64033 0.0284 0.0
C712 C 0.02128 0.63182 0.03906 0.0
C713 C 0.05437 0.64575 0.01314 0.0
C714 C 0.02673 0.64471 0.01089 0.0
C715 C 0.98204 0.63831 0.022 0.0
C716 C 0.96549 0.63245 0.03527 0.0
C717 C 1.00994 0.63812 0.02384 0.0
C718 C 0.97726 0.62538 0.05017 0.0
C719 C 1.0048 0.62505 0.05203 0.0
H720 H 0.65156 0.72347 0.26414 0.0
H721 H 0.65537 0.7173 0.31631 0.0
H722 H 0.65628 0.76545 0.31866 0.0
H723 H 0.65417 0.80928 0.30626 0.0
H724 H 0.65041 0.81663 0.25421 0.0
H725 H 0.65153 0.76811 0.25151 0.0
C726 C 0.65273 0.73266 0.27601 0.0
C727 C 0.6532 0.71665 0.29001 0.0
C728 C 0.65321 0.7606 0.27734 0.0
C729 C 0.65484 0.72898 0.3053 0.0
C730 C 0.65536 0.7566 0.30669 0.0
C731 C 0.65367 0.80035 0.29429 0.0
C732 C 0.652 0.81661 0.28048 0.0
C733 C 0.65424 0.77257 0.29283 0.0
C734 C 0.65166 0.80461 0.26507 0.0
C735 C 0.65223 0.77685 0.26352 0.0
H736 H 0.48227 0.40798 0.51338 0.0
H737 H 0.47683 0.40525 0.56558 0.0
H738 H 0.52505 0.4064 0.56779 0.0
H739 H 0.56875 0.40622 0.55513 0.0
H740 H 0.57514 0.40855 0.50301 0.0
H741 H 0.52662 0.40968 0.50061 0.0
C742 C 0.49163 0.40782 0.52523 0.0
C743 C 0.47584 0.40635 0.53927 0.0
C744 C 0.51957 0.40832 0.52647 0.0
C745 C 0.48838 0.40621 0.55454 0.0
C746 C 0.51602 0.40686 0.55585 0.0
C747 C 0.55962 0.40708 0.54321 0.0
C748 C 0.57563 0.40712 0.52928 0.0
C749 C 0.5318 0.40758 0.54192 0.0
C750 C 0.56333 0.40843 0.51396 0.0
C751 C 0.53556 0.40903 0.51257 0.0
H752 H 0.87613 0.31295 0.804 0.0
H753 H 0.89625 0.31879 0.75335 0.0
H754 H 0.89554 0.2702 0.75102 0.0
H755 H 0.89161 0.2259 0.76389 0.0
H756 H 0.87193 0.2213 0.81473 0.0
H757 H 0.87 0.26953 0.81637 0.0
C758 C 0.88028 0.30368 0.7924 0.0
C759 C 0.88646 0.31953 0.77891 0.0
C760 C 0.88 0.27588 0.79118 0.0
C761 C 0.89149 0.30709 0.76395 0.0
C762 C 0.89115 0.27929 0.76262 0.0
C763 C 0.88668 0.23546 0.77528 0.0
C764 C 0.88216 0.21989 0.78919 0.0
C765 C 0.88578 0.26344 0.77623 0.0
C766 C 0.87575 0.23267 0.80385 0.0
C767 C 0.87462 0.26032 0.80483 0.0
H768 H 0.97445 0.40854 0.95798 0.0
H769 H 0.96612 0.40013 0.00975 0.0
H770 H 1.01457 0.40164 0.01292 0.0
H771 H 0.05949 0.40323 1.0007 0.0
H772 H 0.06657 0.41097 0.94877 0.0
H773 H 1.01844 0.41192 0.94604 0.0
C774 C 0.98312 0.40713 0.97 0.0
C775 C 0.96661 0.40404 0.98358 0.0
C776 C 1.01086 0.40782 0.97172 0.0
C777 C 0.97833 0.40245 0.99905 0.0
C778 C 1.00605 0.40327 1.00088 0.0
C779 C 0.05048 0.40533 0.98882 0.0
C780 C 0.06672 0.40683 0.97497 0.0
C781 C 0.02255 0.40565 0.98726 0.0
C782 C 0.05467 0.40955 0.95965 0.0
C783 C 0.02708 0.41012 0.95804 0.0
H784 H 0.87708 0.80937 0.20902 0.0
H785 H 0.89477 0.81761 0.25996 0.0
H786 H 0.89266 0.76921 0.26324 0.0
H787 H 0.88853 0.72431 0.25111 0.0
H788 H 0.87061 0.71733 0.20004 0.0
H789 H 0.86994 0.76543 0.19744 0.0
C790 C 0.88039 0.80064 0.22088 0.0
C791 C 0.88637 0.81706 0.23417 0.0
C792 C 0.87917 0.77295 0.22266 0.0
C793 C 0.8902 0.80541 0.24949 0.0
C794 C 0.88906 0.77773 0.25137 0.0
C795 C 0.88422 0.73332 0.23946 0.0
C796 C 0.87993 0.71709 0.22578 0.0
C797 C 0.88396 0.76125 0.23797 0.0
C798 C 0.87425 0.72919 0.21078 0.0
C799 C 0.87386 0.75677 0.20924 0.0
H800 H 0.48022 0.6473 0.49993 0.0
H801 H 0.47692 0.6237 0.44961 0.0
H802 H 0.52515 0.62039 0.44884 0.0
H803 H 0.56818 0.62682 0.46165 0.0
H804 H 0.5729 0.6515 0.51167 0.0
H805 H 0.5242 0.65142 0.51338 0.0
C806 C 0.49006 0.64118 0.48886 0.0
C807 C 0.4749 0.63601 0.47481 0.0
C808 C 0.51805 0.6396 0.4884 0.0
C809 C 0.48802 0.62809 0.46056 0.0
C810 C 0.51565 0.62615 0.46009 0.0
C811 C 0.55867 0.63206 0.473 0.0
C812 C 0.57422 0.63941 0.48646 0.0
C813 C 0.53084 0.63231 0.47382 0.0
C814 C 0.56143 0.64584 0.50109 0.0
C815 C 0.53358 0.64588 0.50206 0.0
H816 H 0.64941 0.22505 0.74932 0.0
H817 H 0.66687 0.21738 0.69829 0.0
H818 H 0.66935 0.26543 0.69574 0.0
H819 H 0.66432 0.30957 0.70738 0.0
H820 H 0.64645 0.31857 0.75819 0.0
H821 H 0.64665 0.27011 0.76143 0.0
C822 C 0.65395 0.2339 0.73768 0.0
C823 C 0.65769 0.21751 0.72401 0.0
C824 C 0.65521 0.2618 0.73621 0.0
C825 C 0.66365 0.22938 0.70902 0.0
C826 C 0.6651 0.25693 0.70752 0.0
C827 C 0.66056 0.30103 0.71921 0.0
C828 C 0.65514 0.31772 0.73248 0.0
C829 C 0.66052 0.2733 0.72095 0.0
C830 C 0.65063 0.3062 0.74775 0.0
C831 C 0.65067 0.27848 0.7496 0.0
H832 H 0.38946 0.31344 0.75307 0.0
H833 H 0.38305 0.31933 0.70097 0.0
H834 H 0.38125 0.27121 0.69876 0.0
H835 H 0.38374 0.2275 0.71117 0.0
H836 H 0.39056 0.22021 0.76311 0.0
H837 H 0.38968 0.26878 0.76578 0.0
C838 C 0.38747 0.30418 0.74126 0.0
C839 C 0.38664 0.32009 0.72722 0.0
C840 C 0.38659 0.27623 0.74 0.0
C841 C 0.38398 0.3077 0.712 0.0
C842 C 0.38292 0.28011 0.71068 0.0
C843 C 0.38494 0.23644 0.72312 0.0
C844 C 0.38746 0.22021 0.73689 0.0
C845 C 0.38461 0.26421 0.72455 0.0
C846 C 0.38867 0.23223 0.75228 0.0
C847 C 0.38824 0.26001 0.75381 0.0
H848 H 0.156 0.72708 0.20819 0.0
H849 H 0.14538 0.72023 0.25987 0.0
H850 H 0.14769 0.76868 0.26261 0.0
H851 H 0.15073 0.81322 0.25003 0.0
H852 H 0.16178 0.81896 0.19825 0.0
H853 H 0.16141 0.7708 0.19595 0.0
C854 C 0.15424 0.73613 0.22008 0.0
C855 C 0.15028 0.72004 0.23377 0.0
C856 C 0.15563 0.76388 0.22157 0.0
C857 C 0.14839 0.73214 0.24911 0.0
C858 C 0.14965 0.75986 0.25068 0.0
C859 C 0.15325 0.80392 0.23827 0.0
C860 C 0.15606 0.81983 0.22435 0.0
C861 C 0.15298 0.77597 0.23696 0.0
C862 C 0.15942 0.80736 0.20921 0.0
C863 C 0.15919 0.77973 0.20783 0.0
H864 H 0.16119 0.22603 0.80001 0.0
H865 H 0.14751 0.22017 0.74849 0.0
H866 H 0.14881 0.26879 0.74626 0.0
H867 H 0.15079 0.31311 0.75944 0.0
H868 H 0.16368 0.31754 0.81115 0.0
H869 H 0.1658 0.26933 0.81272 0.0
C870 C 0.1586 0.23529 0.78824 0.0
C871 C 0.15397 0.21946 0.77447 0.0
C872 C 0.15911 0.26307 0.78708 0.0
C873 C 0.15102 0.23188 0.75931 0.0
C874 C 0.15168 0.25969 0.75803 0.0
C875 C 0.15434 0.30351 0.771 0.0
C876 C 0.15678 0.31899 0.78516 0.0
C877 C 0.15527 0.27552 0.7719 0.0
C878 C 0.16141 0.30619 0.80007 0.0
C879 C 0.16265 0.27857 0.80101 0.0
H880 H 0.37997 0.7259 0.30131 0.0
H881 H 0.39231 0.72048 0.2497 0.0
H882 H 0.39137 0.76908 0.24765 0.0
H883 H 0.38938 0.81327 0.26089 0.0
H884 H 0.37695 0.81746 0.31262 0.0
H885 H 0.37552 0.76926 0.31414 0.0
C886 C 0.38237 0.73528 0.28957 0.0
C887 C 0.38645 0.71955 0.27571 0.0
C888 C 0.38188 0.7631 0.28849 0.0
C889 C 0.3892 0.7321 0.26059 0.0
C890 C 0.38873 0.75991 0.25941 0.0
C891 C 0.38616 0.80363 0.27246 0.0
C892 C 0.38352 0.8191 0.28661 0.0
C893 C 0.38543 0.77565 0.27333 0.0
C894 C 0.37924 0.8062 0.30151 0.0
C895 C 0.37842 0.77855 0.30243 0.0
H896 H 0.47906 0.14719 0.51234 0.0
H897 H 0.47581 0.12475 0.56282 0.0
H898 H 0.52403 0.12212 0.56391 0.0
H899 H 0.56704 0.12861 0.5513 0.0
H900 H 0.57184 0.15176 0.50107 0.0
H901 H 0.52313 0.15138 0.4991 0.0
C902 C 0.48892 0.1415 0.52352 0.0
C903 C 0.47374 0.13644 0.53751 0.0
C904 C 0.51693 0.14024 0.52415 0.0
C905 C 0.48689 0.12904 0.55189 0.0
C906 C 0.51453 0.12749 0.55256 0.0
C907 C 0.55754 0.13348 0.53985 0.0
C908 C 0.5731 0.14047 0.5264 0.0
C909 C 0.52972 0.13348 0.53887 0.0
C910 C 0.56034 0.14637 0.51164 0.0
C911 C 0.53248 0.14624 0.51052 0.0
H912 H 0.97794 0.90454 0.05556 0.0
H913 H 0.96806 0.90224 1.00362 0.0
H914 H 1.01636 0.9046 1.00015 0.0
H915 H 0.0616 0.90525 0.01203 0.0
H916 H 0.07039 0.90742 0.06411 0.0
H917 H 0.02235 0.90731 0.06727 0.0
C918 C 0.98627 0.90462 0.04345 0.0
C919 C 0.96937 0.90299 0.02988 0.0
C920 C 1.01394 0.90592 0.04155 0.0
C921 C 0.9806 0.9034 0.01429 0.0
C922 C 1.00823 0.90471 0.01229 0.0
C923 C 0.053 0.90591 0.02405 0.0
C924 C 0.0697 0.90613 0.03779 0.0
C925 C 0.02514 0.90569 0.02585 0.0
C926 C 0.05814 0.90704 0.05329 0.0
C927 C 0.0306 0.90697 0.05515 0.0
H928 H 0.48081 0.90671 0.50168 0.0
H929 H 0.47136 0.90762 0.44962 0.0
H930 H 0.51932 0.90874 0.44625 0.0
H931 H 0.56391 0.90762 0.45776 0.0
H932 H 0.57454 0.90653 0.50966 0.0
H933 H 0.52622 0.9075 0.51335 0.0
C934 C 0.48925 0.90732 0.48961 0.0
C935 C 0.47238 0.90689 0.47595 0.0
C936 C 0.51709 0.90785 0.48769 0.0
C937 C 0.48373 0.90776 0.46039 0.0
C938 C 0.51123 0.9084 0.45841 0.0
C939 C 0.55575 0.90767 0.46991 0.0
C940 C 0.57287 0.90681 0.4834 0.0
C941 C 0.52808 0.90813 0.47194 0.0
C942 C 0.56184 0.90713 0.49904 0.0
C943 C 0.53419 0.90763 0.50117 0.0
H944 H 0.0635 0.14177 0.99909 0.0
H945 H 0.06551 0.13748 0.9468 0.0
H946 H 1.01728 0.1359 0.94583 0.0
H947 H 0.97454 0.13742 0.95942 0.0
H948 H 0.9711 0.14184 0.01159 0.0
H949 H 1.01983 0.14144 0.01296 0.0
C950 C 0.05338 0.14036 0.9875 0.0
C951 C 0.06825 0.13994 0.97305 0.0
C952 C 0.02536 0.13951 0.98696 0.0
C953 C 0.05473 0.138 0.95814 0.0
C954 C 0.02706 0.13708 0.95753 0.0
C955 C 0.98435 0.13822 0.97114 0.0
C956 C 0.96914 0.13986 0.98537 0.0
C957 C 1.0122 0.13811 0.97183 0.0
C958 C 0.98231 0.14061 1.00043 0.0
C959 C 1.01018 0.14045 1.00122 0.0
H960 H 0.17085 0.4749 0.02423 0.0
H961 H 0.17875 0.48391 0.97249 0.0
H962 H 0.18258 0.53206 0.9757 0.0
H963 H 0.17891 0.57203 0.9929 0.0
H964 H 0.17062 0.56303 0.04462 0.0
H965 H 0.17207 0.51469 0.04171 0.0
C966 C 0.17385 0.48732 0.01367 0.0
C967 C 0.17426 0.47566 0.99812 0.0
C968 C 0.17578 0.51516 0.01558 0.0
C969 C 0.17828 0.4922 0.9846 0.0
C970 C 0.18036 0.51983 0.98642 0.0
C971 C 0.17788 0.55954 1.00358 0.0
C972 C 0.17443 0.57131 0.01895 0.0
C973 C 0.17842 0.53161 1.00181 0.0
C974 C 0.17322 0.55466 0.03263 0.0
C975 C 0.17392 0.52693 0.03097 0.0
H976 H 0.81885 0.92875 0.27206 0.0
H977 H 0.80961 0.92691 0.22008 0.0
H978 H 0.76131 0.92932 0.22299 0.0
H979 H 0.72153 0.92697 0.2403 0.0
H980 H 0.73077 0.92818 0.29229 0.0
H981 H 0.77901 0.93131 0.28933 0.0
C982 C 0.80633 0.92935 0.26134 0.0
C983 C 0.818 0.92741 0.24586 0.0
C984 C 0.77843 0.93039 0.2631 0.0
C985 C 0.80132 0.9283 0.23215 0.0
C986 C 0.77361 0.92955 0.2338 0.0
C987 C 0.73403 0.92837 0.251 0.0
C988 C 0.72239 0.9271 0.26651 0.0
C989 C 0.7619 0.92985 0.24922 0.0
C990 C 0.73904 0.92904 0.2802 0.0
C991 C 0.76672 0.93071 0.27852 0.0
H992 H 0.36701 0.49001 0.53106 0.0
H993 H 0.37214 0.46344 0.48144 0.0
H994 H 0.36882 0.50937 0.47203 0.0
H995 H 0.36929 0.55744 0.47792 0.0
H996 H 0.36615 0.58411 0.52758 0.0
H997 H 0.36355 0.53806 0.53684 0.0
C998 C 0.3669 0.49421 0.51817 0.0
C999 C 0.36997 0.47318 0.507 0.0
C1000 C 0.36557 0.52084 0.51281 0.0
C1001 C 0.36992 0.47913 0.49035 0.0
C1002 C 0.3681 0.50547 0.48493 0.0
C1003 C 0.36752 0.55323 0.49075 0.0
C1004 C 0.36805 0.57434 0.50201 0.0
C1005 C 0.36663 0.52656 0.49606 0.0
C1006 C 0.36589 0.56836 0.51861 0.0
C1007 C 0.36449 0.54195 0.52394 0.0
H1008 H 0.80357 0.11226 0.78431 0.0
H1009 H 0.83012 0.11213 0.73465 0.0
H1010 H 0.78413 0.10876 0.72527 0.0
H1011 H 0.73608 0.11077 0.73103 0.0
H1012 H 0.70952 0.11274 0.78067 0.0
H1013 H 0.75555 0.11015 0.7901 0.0
C1014 C 0.79936 0.11099 0.77144 0.0
C1015 C 0.8204 0.11261 0.76023 0.0
C1016 C 0.77271 0.10961 0.76608 0.0
C1017 C 0.81442 0.11104 0.74358 0.0
C1018 C 0.78805 0.10919 0.73818 0.0
C1019 C 0.7403 0.11012 0.74392 0.0
C1020 C 0.71925 0.11211 0.7551 0.0
C1021 C 0.76697 0.1092 0.7493 0.0
C1022 C 0.72523 0.11135 0.77176 0.0
C1023 C 0.75163 0.10995 0.77719 0.0
H1024 H 0.85577 0.55661 0.03014 0.0
H1025 H 0.86183 0.57987 0.97999 0.0
H1026 H 0.85864 0.53337 0.97163 0.0
H1027 H 0.85905 0.48572 0.97867 0.0
H1028 H 0.85427 0.46248 0.02888 0.0
H1029 H 0.85172 0.50912 0.03701 0.0
C1030 C 0.8559 0.55159 0.01736 0.0
C1031 C 0.85924 0.57183 1.00574 0.0
C1032 C 0.85451 0.52465 0.01262 0.0
C1033 C 0.8594 0.5648 0.98924 0.0
C1034 C 0.85767 0.53813 0.98443 0.0
C1035 C 0.85694 0.49081 0.99137 0.0
C1036 C 0.85705 0.47048 1.00313 0.0
C1037 C 0.85595 0.51782 0.99602 0.0
C1038 C 0.85436 0.47759 0.01954 0.0
C1039 C 0.85299 0.50434 0.02423 0.0
H1040 H 0.22258 0.10807 0.73815 0.0
H1041 H 0.22698 0.10876 0.79037 0.0
H1042 H 0.27545 0.10608 0.78911 0.0
H1043 H 0.31678 0.10867 0.77323 0.0
H1044 H 0.31239 0.10895 0.72101 0.0
H1045 H 0.26396 0.10579 0.72227 0.0
C1046 C 0.23408 0.10715 0.74927 0.0
C1047 C 0.221 0.10885 0.76434 0.0
C1048 C 0.26209 0.10601 0.74847 0.0
C1049 C 0.23637 0.10757 0.7786 0.0
C1050 C 0.26418 0.10615 0.7779 0.0
C1051 C 0.3053 0.10756 0.76211 0.0
C1052 C 0.31835 0.10928 0.74704 0.0
C1053 C 0.2773 0.10614 0.76291 0.0
C1054 C 0.30301 0.10775 0.73278 0.0
C1055 C 0.27522 0.10606 0.73348 0.0
H1056 H 0.68759 0.48983 0.53158 0.0
H1057 H 0.68321 0.46784 0.48109 0.0
H1058 H 0.68558 0.51458 0.4733 0.0
H1059 H 0.68378 0.56195 0.48084 0.0
H1060 H 0.68711 0.58404 0.53134 0.0
H1061 H 0.6906 0.53726 0.539 0.0
C1062 C 0.68767 0.4952 0.51886 0.0
C1063 C 0.68499 0.47523 0.50697 0.0
C1064 C 0.68861 0.52229 0.51442 0.0
C1065 C 0.68512 0.48269 0.49054 0.0
C1066 C 0.68638 0.5095 0.48605 0.0
C1067 C 0.68576 0.5566 0.49351 0.0
C1068 C 0.68494 0.57661 0.50547 0.0
C1069 C 0.68735 0.52952 0.49789 0.0
C1070 C 0.68756 0.56917 0.52184 0.0
C1071 C 0.68946 0.54233 0.52626 0.0
H1072 H 0.2359 0.92681 0.22976 0.0
H1073 H 0.21035 0.92554 0.2796 0.0
H1074 H 0.25655 0.92833 0.28867 0.0
H1075 H 0.30449 0.92636 0.28253 0.0
H1076 H 0.33003 0.92604 0.23267 0.0
H1077 H 0.28381 0.92896 0.22363 0.0
C1078 C 0.24037 0.92764 0.24261 0.0
C1079 C 0.21954 0.9258 0.25395 0.0
C1080 C 0.26714 0.92874 0.24778 0.0
C1081 C 0.22587 0.92681 0.27056 0.0
C1082 C 0.25236 0.92833 0.27579 0.0
C1083 C 0.30001 0.92743 0.26969 0.0
C1084 C 0.32085 0.92582 0.25833 0.0
C1085 C 0.27322 0.92859 0.26452 0.0
C1086 C 0.31451 0.92714 0.24173 0.0
C1087 C 0.288 0.92872 0.23652 0.0
H1088 H 0.68439 0.07389 0.48845 0.0
H1089 H 0.68287 0.06599 0.5405 0.0
H1090 H 0.68592 1.01768 0.53794 0.0
H1091 H 0.68393 0.97749 0.52095 0.0
H1092 H 0.68439 0.98527 0.46889 0.0
H1093 H 0.68719 0.03361 0.47147 0.0
C1094 C 0.6852 0.06166 0.49926 0.0
C1095 C 0.68316 0.07369 0.51465 0.0
C1096 C 0.68655 0.03374 0.4977 0.0
C1097 C 0.6843 0.0574 0.52849 0.0
C1098 C 0.68594 0.02969 0.52704 0.0
C1099 C 0.68512 0.98969 0.51015 0.0
C1100 C 0.68371 0.97764 0.49474 0.0
C1101 C 0.68631 1.0176 0.51171 0.0
C1102 C 0.68535 0.99389 0.48091 0.0
C1103 C 0.68683 0.02162 0.48237 0.0
H1104 H 0.22315 0.42887 0.7407 0.0
H1105 H 0.23101 0.4278 0.79277 0.0
H1106 H 0.27933 0.4307 0.79034 0.0
H1107 H 0.31961 0.42831 0.77343 0.0
H1108 H 0.31171 0.42926 0.72135 0.0
H1109 H 0.26338 0.43199 0.72383 0.0
C1110 C 0.23538 0.42974 0.75153 0.0
C1111 C 0.22335 0.42783 0.76689 0.0
C1112 C 0.26329 0.43117 0.75006 0.0
C1113 C 0.23961 0.42916 0.78078 0.0
C1114 C 0.26733 0.43069 0.77941 0.0
C1115 C 0.30737 0.42959 0.76261 0.0
C1116 C 0.3194 0.42829 0.74722 0.0
C1117 C 0.27944 0.43091 0.76411 0.0
C1118 C 0.30312 0.43014 0.73336 0.0
C1119 C 0.27539 0.43157 0.73476 0.0
H1120 H 0.8572 0.97302 0.99259 0.0
H1121 H 0.85858 0.97999 0.0447 0.0
H1122 H 0.85612 0.02839 0.0425 0.0
H1123 H 0.85881 0.06887 0.02578 0.0
H1124 H 0.85818 0.06186 0.97367 0.0
H1125 H 0.85481 1.01354 0.9759 0.0
C1126 C 0.85648 0.98507 1.00349 0.0
C1127 C 0.85834 0.97276 0.01879 0.0
C1128 C 0.85545 1.01301 1.00214 0.0
C1129 C 0.85727 0.9888 0.03275 0.0
C1130 C 0.85599 1.01657 0.03151 0.0
C1131 C 0.85747 0.05684 0.0149 0.0
C1132 C 0.85902 0.0691 0.99957 0.0
C1133 C 0.85587 0.02893 0.01626 0.0
C1134 C 0.85713 0.05308 0.98563 0.0
C1135 C 0.85532 0.02536 0.98689 0.0
H1136 H 0.30526 0.60861 0.27965 0.0
H1137 H 0.32614 0.60905 0.22898 0.0
H1138 H 0.27921 0.60604 0.22152 0.0
H1139 H 0.23198 0.60852 0.2293 0.0
H1140 H 0.21111 0.60934 0.27996 0.0
H1141 H 0.25805 0.60627 0.28742 0.0
C1142 C 0.29961 0.60753 0.26698 0.0
C1143 C 0.31932 0.60929 0.25492 0.0
C1144 C 0.27244 0.60626 0.26273 0.0
C1145 C 0.3115 0.60787 0.23855 0.0
C1146 C 0.28458 0.60624 0.23425 0.0
C1147 C 0.23764 0.60751 0.24197 0.0
C1148 C 0.21793 0.6094 0.25403 0.0
C1149 C 0.26482 0.60621 0.24622 0.0
C1150 C 0.22576 0.60807 0.27039 0.0
C1151 C 0.25268 0.60641 0.2747 0.0
H1152 H 0.36346 0.07196 0.4937 0.0
H1153 H 0.36736 0.06345 0.54567 0.0
H1154 H 0.36523 1.01514 0.54293 0.0
H1155 H 0.36724 0.9751 0.52571 0.0
H1156 H 0.36328 0.98354 0.47374 0.0
H1157 H 0.36013 0.03182 0.47659 0.0
C1158 C 0.36337 0.05959 0.50445 0.0
C1159 C 0.36583 0.07147 0.51987 0.0
C1160 C 0.36236 0.03166 0.5028 0.0
C1161 C 0.36555 0.055 0.53364 0.0
C1162 C 0.36446 0.02727 0.53209 0.0
C1163 C 0.36523 0.98744 0.515 0.0
C1164 C 0.36576 0.97558 0.49952 0.0
C1165 C 0.36362 1.01534 0.51672 0.0
C1166 C 0.36298 0.992 0.48581 0.0
C1167 C 0.36131 1.0197 0.48743 0.0
H1168 H 0.73418 0.60963 0.2836 0.0
H1169 H 0.70856 0.61151 0.23367 0.0
H1170 H 0.75475 0.60863 0.22474 0.0
H1171 H 0.80264 0.61053 0.23106 0.0
H1172 H 0.82828 0.61058 0.281 0.0
H1173 H 0.78209 0.60744 0.28989 0.0
C1174 C 0.73864 0.6089 0.27076 0.0
C1175 C 0.71782 0.61094 0.25934 0.0
C1176 C 0.7654 0.60782 0.26567 0.0
C1177 C 0.7241 0.61008 0.24275 0.0
C1178 C 0.75058 0.60852 0.23761 0.0
C1179 C 0.79819 0.60934 0.24389 0.0
C1180 C 0.81901 0.61095 0.25533 0.0
C1181 C 0.77145 0.60812 0.24896 0.0
C1182 C 0.81274 0.6095 0.2719 0.0
C1183 C 0.78626 0.60779 0.27702 0.0
H1184 H 0.17397 0.97497 0.98724 0.0
H1185 H 0.1778 0.9847 0.03913 0.0
H1186 H 0.18083 0.0329 0.0359 0.0
H1187 H 0.17766 0.07264 0.01846 0.0
H1188 H 0.17411 0.06284 0.96656 0.0
H1189 H 0.17604 1.01458 0.96969 0.0
C1190 C 0.1759 0.98758 0.99785 0.0
C1191 C 0.1754 0.97609 0.01342 0.0
C1192 C 0.17749 1.01542 0.99591 0.0
C1193 C 0.17809 0.99285 0.027 0.0
C1194 C 0.17969 0.02051 0.02516 0.0
C1195 C 0.17776 0.05999 0.00781 0.0
C1196 C 0.17549 0.07151 0.99229 0.0
C1197 C 0.17871 0.03209 0.0097 0.0
C1198 C 0.17579 0.05468 0.97866 0.0
C1199 C 0.17676 0.02697 0.98044 0.0
H1200 H 0.81988 0.42866 0.73885 0.0
H1201 H 0.81058 0.42969 0.7908 0.0
H1202 H 0.7623 0.43216 0.78765 0.0
H1203 H 0.7225 0.42922 0.77022 0.0
H1204 H 0.7318 0.42728 0.71828 0.0
H1205 H 0.78005 0.43028 0.72138 0.0
C1206 C 0.80735 0.42989 0.7495 0.0
C1207 C 0.819 0.42879 0.76506 0.0
C1208 C 0.77945 0.43092 0.74761 0.0
C1209 C 0.8023 0.43043 0.77868 0.0
C1210 C 0.7746 0.43173 0.77689 0.0
C1211 C 0.73502 0.42991 0.75955 0.0
C1212 C 0.72338 0.42782 0.74403 0.0
C1213 C 0.7629 0.43127 0.76142 0.0
C1214 C 0.74006 0.42878 0.73038 0.0
C1215 C 0.76775 0.43039 0.73214 0.0
H1216 H 0.19337 0.81542 0.04917 0.0
H1217 H 0.16759 0.82306 0.99951 0.0
H1218 H 0.16846 0.77452 0.99649 0.0
H1219 H 0.16969 0.72974 0.00943 0.0
H1220 H 0.19321 0.72347 0.05959 0.0
H1221 H 0.20034 0.77136 0.06086 0.0
C1222 C 0.18847 0.80656 0.03755 0.0
C1223 C 0.18011 0.82297 0.02465 0.0
C1224 C 0.18831 0.77868 0.03605 0.0
C1225 C 0.17412 0.81102 0.00966 0.0
C1226 C 0.17438 0.78318 0.00797 0.0
C1227 C 0.17713 0.7388 0.02047 0.0
C1228 C 0.18077 0.723 0.03444 0.0
C1229 C 0.18046 0.76674 0.02128 0.0
C1230 C 0.1901 0.73513 0.04871 0.0
C1231 C 0.19409 0.76259 0.04947 0.0
H1232 H 0.56063 0.94077 0.30171 0.0
H1233 H 0.56959 0.91785 0.2517 0.0
H1234 H 0.52124 0.92025 0.24787 0.0
H1235 H 0.47598 0.9222 0.26004 0.0
H1236 H 0.46822 0.94506 0.31024 0.0
H1237 H 0.51623 0.94971 0.31255 0.0
C1238 C 0.55207 0.9369 0.28986 0.0
C1239 C 0.56874 0.92887 0.27707 0.0
C1240 C 0.52428 0.93801 0.28781 0.0
C1241 C 0.55729 0.92415 0.26176 0.0
C1242 C 0.52956 0.92529 0.2596 0.0
C1243 C 0.48475 0.92892 0.27134 0.0
C1244 C 0.46837 0.93285 0.28501 0.0
C1245 C 0.51274 0.93124 0.27271 0.0
C1246 C 0.48022 0.94152 0.29957 0.0
C1247 C 0.50778 0.94414 0.30094 0.0
H1248 H 0.37327 0.2295 0.51133 0.0
H1249 H 0.34676 0.22302 0.56084 0.0
H1250 H 0.34158 0.27112 0.56246 0.0
H1251 H 0.35077 0.31519 0.55138 0.0
H1252 H 0.37845 0.32287 0.50223 0.0
H1253 H 0.37644 0.27447 0.49882 0.0
C1254 C 0.36566 0.23858 0.5223 0.0
C1255 C 0.3607 0.22257 0.536 0.0
C1256 C 0.36324 0.26661 0.52331 0.0
C1257 C 0.351 0.23478 0.55016 0.0
C1258 C 0.3481 0.26237 0.55114 0.0
C1259 C 0.35585 0.30637 0.53978 0.0
C1260 C 0.36505 0.32273 0.52715 0.0
C1261 C 0.35514 0.27853 0.53802 0.0
C1262 C 0.37127 0.31087 0.51218 0.0
C1263 C 0.37034 0.28309 0.51027 0.0
H1264 H 0.97357 0.11513 0.76089 0.0
H1265 H 0.97045 0.09801 0.8121 0.0
H1266 H 1.01858 0.0931 0.81294 0.0
H1267 H 0.06188 0.09981 0.80021 0.0
H1268 H 0.06627 0.11732 0.74919 0.0
H1269 H 1.01761 0.11537 0.74715 0.0
C1270 C 0.98336 0.10968 0.77214 0.0
C1271 C 0.96826 0.10737 0.78647 0.0
C1272 C 1.01142 0.1072 0.77263 0.0
C1273 C 0.98143 0.10029 0.80092 0.0
C1274 C 1.00906 0.09751 0.80145 0.0
C1275 C 0.05225 0.10264 0.78855 0.0
C1276 C 0.06774 0.10897 0.77492 0.0
C1277 C 0.02431 0.10189 0.78754 0.0
C1278 C 0.0549 0.11233 0.75988 0.0
C1279 C 0.027 0.11147 0.75875 0.0
H1280 H 0.1693 0.22938 1.00083 0.0
H1281 H 0.19658 0.22358 0.95143 0.0
H1282 H 0.20152 0.27169 0.95014 0.0
H1283 H 0.19192 0.31565 0.96148 0.0
H1284 H 0.16393 0.32261 0.01062 0.0
H1285 H 0.16593 0.27414 0.01365 0.0
C1286 C 0.17704 0.2386 0.98996 0.0
C1287 C 0.18225 0.22277 0.97618 0.0
C1288 C 0.17938 0.26664 0.98916 0.0
C1289 C 0.19213 0.23518 0.96216 0.0
C1290 C 0.1949 0.26278 0.96138 0.0
C1291 C 0.18677 0.30665 0.97299 0.0
C1292 C 0.17749 0.32283 0.98573 0.0
C1293 C 0.18759 0.27877 0.97456 0.0
C1294 C 0.17117 0.31073 1.00059 0.0
C1295 C 0.17211 0.28293 1.00229 0.0
H1296 H 0.97957 0.9376 0.20953 0.0
H1297 H 0.97127 0.91973 0.2603 0.0
H1298 H 1.01964 0.92263 0.26387 0.0
H1299 H 0.06478 0.92392 0.25154 0.0
H1300 H 0.07187 0.94201 0.20061 0.0
H1301 H 0.02378 0.94569 0.19825 0.0
C1302 C 0.98828 0.9349 0.22146 0.0
C1303 C 0.97179 0.92819 0.23458 0.0
C1304 C 1.01607 0.93635 0.22338 0.0
C1305 C 0.98343 0.92501 0.24999 0.0
C1306 C 1.01117 0.92643 0.252 0.0
C1307 C 0.05585 0.92933 0.24003 0.0
C1308 C 0.07211 0.93223 0.22623 0.0
C1309 C 0.02781 0.93118 0.23865 0.0
C1310 C 0.06001 0.93928 0.21142 0.0
C1311 C 0.03239 0.94134 0.21001 0.0
H1312 H 0.37352 0.72894 0.50204 0.0
H1313 H 0.34736 0.72398 0.45228 0.0
H1314 H 0.34104 0.77201 0.45146 0.0
H1315 H 0.34903 0.81578 0.46339 0.0
H1316 H 0.3765 0.82199 0.51278 0.0
H1317 H 0.37567 0.77341 0.51532 0.0
C1318 C 0.36575 0.73832 0.49117 0.0
C1319 C 0.36119 0.72278 0.47718 0.0
C1320 C 0.36269 0.76632 0.49064 0.0
C1321 C 0.35129 0.73537 0.46317 0.0
C1322 C 0.34773 0.76292 0.46267 0.0
C1323 C 0.35433 0.80659 0.47484 0.0
C1324 C 0.36311 0.82262 0.4878 0.0
C1325 C 0.35433 0.77867 0.4761 0.0
C1326 C 0.36963 0.81025 0.50259 0.0
C1327 C 0.36938 0.78238 0.504 0.0
H1328 H 0.47877 0.0973 0.71334 0.0
H1329 H 0.47217 0.11864 0.76374 0.0
H1330 H 0.52071 0.11638 0.76666 0.0
H1331 H 0.56535 0.11489 0.75366 0.0
H1332 H 0.57069 0.09368 0.70306 0.0
H1333 H 0.52262 0.08905 0.70156 0.0
C1334 C 0.4879 0.10087 0.72507 0.0
C1335 C 0.47184 0.10839 0.73825 0.0
C1336 C 0.51577 0.09989 0.72658 0.0
C1337 C 0.484 0.11271 0.75339 0.0
C1338 C 0.51183 0.11168 0.75502 0.0
C1339 C 0.55605 0.10859 0.74243 0.0
C1340 C 0.57176 0.10509 0.72843 0.0
C1341 C 0.52801 0.10624 0.74154 0.0
C1342 C 0.55922 0.0969 0.71399 0.0
C1343 C 0.53162 0.09428 0.71308 0.0
H1344 H 0.8613 0.31494 1.00482 0.0
H1345 H 0.84086 0.32065 0.95412 0.0
H1346 H 0.83571 0.27257 0.95259 0.0
H1347 H 0.84402 0.22869 0.96433 0.0
H1348 H 0.8656 0.22181 0.01473 0.0
H1349 H 0.86276 0.27025 0.01777 0.0
C1350 C 0.85493 0.3057 0.99358 0.0
C1351 C 0.85178 0.32143 0.97955 0.0
C1352 C 0.85257 0.2777 0.99265 0.0
C1353 C 0.84369 0.30906 0.96506 0.0
C1354 C 0.84083 0.2815 0.96414 0.0
C1355 C 0.84751 0.23772 0.97609 0.0
C1356 C 0.85534 0.22162 0.98922 0.0
C1357 C 0.84633 0.26556 0.97766 0.0
C1358 C 0.85951 0.23367 1.00441 0.0
C1359 C 0.85812 0.26145 1.00611 0.0
H1360 H 0.69212 0.81467 0.45957 0.0
H1361 H 0.67915 0.82637 0.51069 0.0
H1362 H 0.68206 0.77825 0.51514 0.0
H1363 H 0.6816 0.73242 0.50372 0.0
H1364 H 0.69401 0.72183 0.45239 0.0
H1365 H 0.69836 0.76968 0.44892 0.0
C1366 C 0.69048 0.80677 0.47176 0.0
C1367 C 0.6851 0.82414 0.48473 0.0
C1368 C 0.6918 0.7791 0.47418 0.0
C1369 C 0.68332 0.81352 0.50046 0.0
C1370 C 0.68477 0.78592 0.50299 0.0
C1371 C 0.68598 0.74055 0.49187 0.0
C1372 C 0.68708 0.72345 0.47831 0.0
C1373 C 0.68804 0.76841 0.48985 0.0
C1374 C 0.69271 0.73443 0.46302 0.0
C1375 C 0.69515 0.76188 0.46099 0.0
H1376 H 0.86239 0.72708 0.00863 0.0
H1377 H 0.84339 0.71711 0.05924 0.0
H1378 H 0.83983 0.76505 0.06256 0.0
H1379 H 0.84825 0.80985 0.05223 0.0
H1380 H 0.86692 0.82097 1.00178 0.0
H1381 H 0.86399 0.77287 0.99724 0.0
C1382 C 0.85679 0.73537 0.02027 0.0
C1383 C 0.85362 0.71835 0.03372 0.0
C1384 C 0.85501 0.7633 0.02221 0.0
C1385 C 0.84634 0.72959 0.04871 0.0
C1386 C 0.84435 0.75711 0.05066 0.0
C1387 C 0.85113 0.80182 0.04016 0.0
C1388 C 0.85808 0.819 0.02742 0.0
C1389 C 0.84963 0.77416 0.03767 0.0
C1390 C 0.86149 0.80825 0.01181 0.0
C1391 C 0.86003 0.78067 0.00924 0.0
H1392 H 0.69625 0.31504 0.55006 0.0
H1393 H 0.67856 0.32476 0.49927 0.0
H1394 H 0.68042 0.27642 0.49547 0.0
H1395 H 0.68024 0.23111 0.5076 0.0
H1396 H 0.69697 0.22256 0.55865 0.0
H1397 H 0.70265 0.27046 0.56123 0.0
C1398 C 0.69335 0.30665 0.53807 0.0
C1399 C 0.68695 0.32355 0.52503 0.0
C1400 C 0.69399 0.27887 0.53604 0.0
C1401 C 0.68355 0.31229 0.50955 0.0
C1402 C 0.68438 0.28457 0.50739 0.0
C1403 C 0.68587 0.23968 0.51917 0.0
C1404 C 0.68783 0.2232 0.53295 0.0
C1405 C 0.68861 0.26758 0.52068 0.0
C1406 C 0.69502 0.23473 0.54788 0.0
C1407 C 0.69821 0.26219 0.54939 0.0
H1408 H 0.97762 0.4234 0.75881 0.0
H1409 H 0.96917 0.44359 0.80936 0.0
H1410 H 1.01717 0.4485 0.81196 0.0
H1411 H 0.0617 0.44075 0.80111 0.0
H1412 H 0.07137 0.4195 0.75085 0.0
H1413 H 0.02306 0.42184 0.74685 0.0
C1414 C 0.98626 0.42962 0.77025 0.0
C1415 C 0.96974 0.43285 0.78391 0.0
C1416 C 1.01423 0.43188 0.7718 0.0
C1417 C 0.98135 0.44072 0.79868 0.0
C1418 C 1.00887 0.44346 0.80022 0.0
C1419 C 0.05333 0.43714 0.78918 0.0
C1420 C 0.07021 0.42965 0.77637 0.0
C1421 C 0.02555 0.43808 0.78704 0.0
C1422 C 0.05893 0.42533 0.76096 0.0
C1423 C 0.03123 0.42645 0.75869 0.0
H1424 H 0.47705 0.59647 0.29881 0.0
H1425 H 0.47125 0.61842 0.24846 0.0
H1426 H 0.51976 0.61576 0.24593 0.0
H1427 H 0.56418 0.61362 0.25923 0.0
H1428 H 0.56888 0.59156 0.30971 0.0
H1429 H 0.52073 0.58747 0.31085 0.0
C1430 C 0.48634 0.60012 0.28718 0.0
C1431 C 0.47052 0.60793 0.27391 0.0
C1432 C 0.51422 0.5988 0.28586 0.0
C1433 C 0.4829 0.61232 0.25889 0.0
C1434 C 0.51071 0.61101 0.25746 0.0
C1435 C 0.55472 0.60723 0.27035 0.0
C1436 C 0.57027 0.60336 0.28443 0.0
C1437 C 0.52668 0.6052 0.27103 0.0
C1438 C 0.55753 0.59506 0.29873 0.0
C1439 C 0.52989 0.59277 0.29943 0.0
H1440 H 0.47962 0.44095 0.71095 0.0
H1441 H 0.47228 0.42012 0.76139 0.0
H1442 H 0.52074 0.42195 0.76452 0.0
H1443 H 0.56557 0.42293 0.75177 0.0
H1444 H 0.57174 0.44245 0.70104 0.0
H1445 H 0.52366 0.44802 0.69928 0.0
C1446 C 0.48853 0.43731 0.72273 0.0
C1447 C 0.47224 0.43008 0.73585 0.0
C1448 C 0.51641 0.43793 0.72436 0.0
C1449 C 0.48424 0.42572 0.75105 0.0
C1450 C 0.51204 0.42657 0.75282 0.0
C1451 C 0.55643 0.42916 0.74047 0.0
C1452 C 0.57231 0.43203 0.72651 0.0
C1453 C 0.52842 0.43173 0.73941 0.0
C1454 C 0.56005 0.43988 0.71193 0.0
C1455 C 0.53248 0.44298 0.71088 0.0
H1456 H 0.97355 0.6143 0.25393 0.0
H1457 H 0.96554 0.59219 0.2036 0.0
H1458 H 1.01359 0.58818 0.20121 0.0
H1459 H 0.05798 0.59735 0.21211 0.0
H1460 H 0.0671 0.61923 0.26231 0.0
H1461 H 1.01885 0.61647 0.2661 0.0
C1462 C 0.98228 0.60789 0.24258 0.0
C1463 C 0.96582 0.60401 0.22891 0.0
C1464 C 1.01027 0.60591 0.24117 0.0
C1465 C 0.97761 0.59569 0.21429 0.0
C1466 C 1.00519 0.59345 0.21286 0.0
C1467 C 0.04948 0.60096 0.22398 0.0
C1468 C 0.06613 0.60879 0.23684 0.0
C1469 C 0.02173 0.59955 0.22602 0.0
C1470 C 0.05479 0.61312 0.25219 0.0
C1471 C 0.02711 0.61175 0.25433 0.0
loop_
_geom_bond_atom_site_label_1
_geom_bond_atom_site_label_2
_geom_bond_distance
_geom_bond_site_symmetry_2
_ccdc_geom_bond_type
O0 Cd1 2.223 . S
O0 C8 1.315 . S
Cd1 O0 2.223 . S
Cd1 O4 2.297 . S
Cd1 O5 2.439 . S
Cd1 O11 2.240 . S
Cd2 O3 2.240 . S
Cd2 O10 2.223 . S
Cd2 O12 2.297 . S
Cd2 O13 2.439 . S
O3 Cd2 2.240 . S
O3 C8 1.279 . S
O4 Cd1 2.297 . S
O4 C6 1.247 . S
O5 Cd1 2.439 . S
O5 C6 1.208 . S
C6 O4 1.247 . S
C6 O5 1.208 . S
C7 O12 1.247 . S
C7 O13 1.208 . S
C8 O0 1.315 . S
C8 O3 1.279 . S
C9 O10 1.315 . S
C9 O11 1.279 . S
O10 Cd2 2.223 . S
O10 C9 1.315 . S
O11 Cd1 2.240 . S
O11 C9 1.279 . S
O12 Cd2 2.297 . S
O12 C7 1.247 . S
O13 Cd2 2.439 . S
O13 C7 1.208 . S
O14 Cd15 2.223 . S
O14 C22 1.315 . S
Cd15 O14 2.223 . S
Cd15 O18 2.297 . S
Cd15 O19 2.439 . S
Cd15 O25 2.240 . S
Cd16 O17 2.240 . S
Cd16 O24 2.223 . S
Cd16 O26 2.297 . S
Cd16 O27 2.439 . S
O17 Cd16 2.240 . S
O17 C22 1.279 . S
O18 Cd15 2.297 . S
O18 C20 1.247 . S
O19 Cd15 2.439 . S
O19 C20 1.208 . S
C20 O18 1.247 . S
C20 O19 1.208 . S
C21 O26 1.247 . S
C21 O27 1.208 . S
C22 O14 1.315 . S
C22 O17 1.279 . S
C23 O24 1.315 . S
C23 O25 1.279 . S
O24 Cd16 2.223 . S
O24 C23 1.315 . S
O25 Cd15 2.240 . S
O25 C23 1.279 . S
O26 Cd16 2.297 . S
O26 C21 1.247 . S
O27 Cd16 2.439 . S
O27 C21 1.208 . S
O28 Cd29 2.223 . S
O28 C36 1.315 . S
Cd29 O28 2.223 . S
Cd29 O32 2.297 . S
Cd29 O33 2.439 . S
Cd29 O39 2.240 . S
Cd30 O31 2.240 . S
Cd30 O38 2.223 . S
Cd30 O40 2.297 . S
Cd30 O41 2.439 . S
O31 Cd30 2.240 . S
O31 C36 1.279 . S
O32 Cd29 2.297 . S
O32 C34 1.247 . S
O33 Cd29 2.439 . S
O33 C34 1.208 . S
C34 O32 1.247 . S
C34 O33 1.208 . S
C35 O40 1.247 . S
C35 O41 1.208 . S
C36 O28 1.315 . S
C36 O31 1.279 . S
C37 O38 1.315 . S
C37 O39 1.279 . S
O38 Cd30 2.223 . S
O38 C37 1.315 . S
O39 Cd29 2.240 . S
O39 C37 1.279 . S
O40 Cd30 2.297 . S
O40 C35 1.247 . S
O41 Cd30 2.439 . S
O41 C35 1.208 . S
O42 Cd43 2.223 . S
O42 C50 1.315 . S
Cd43 O42 2.223 . S
Cd43 O46 2.297 . S
Cd43 O47 2.439 . S
Cd43 O53 2.240 . S
Cd44 O45 2.240 . S
Cd44 O52 2.223 . S
Cd44 O54 2.297 . S
Cd44 O55 2.439 . S
O45 Cd44 2.240 . S
O45 C50 1.279 . S
O46 Cd43 2.297 . S
O46 C48 1.247 . S
O47 Cd43 2.439 . S
O47 C48 1.208 . S
C48 O46 1.247 . S
C48 O47 1.208 . S
C49 O54 1.247 . S
C49 O55 1.208 . S
C50 O42 1.315 . S
C50 O45 1.279 . S
C51 O52 1.315 . S
C51 O53 1.279 . S
O52 Cd44 2.223 . S
O52 C51 1.315 . S
O53 Cd43 2.240 . S
O53 C51 1.279 . S
O54 Cd44 2.297 . S
O54 C49 1.247 . S
O55 Cd44 2.439 . S
O55 C49 1.208 . S
O56 Cd57 2.223 . S
O56 C64 1.315 . S
Cd57 O56 2.223 . S
Cd57 O60 2.297 . S
Cd57 O61 2.439 . S
Cd57 O67 2.240 . S
Cd58 O59 2.240 . S
Cd58 O66 2.223 . S
Cd58 O68 2.297 . S
Cd58 O69 2.439 . S
O59 Cd58 2.240 . S
O59 C64 1.279 . S
O60 Cd57 2.297 . S
O60 C62 1.247 . S
O61 Cd57 2.439 . S
O61 C62 1.208 . S
C62 O60 1.247 . S
C62 O61 1.208 . S
C63 O68 1.247 . S
C63 O69 1.208 . S
C64 O56 1.315 . S
C64 O59 1.279 . S
C65 O66 1.315 . S
C65 O67 1.279 . S
O66 Cd58 2.223 . S
O66 C65 1.315 . S
O67 Cd57 2.240 . S
O67 C65 1.279 . S
O68 Cd58 2.297 . S
O68 C63 1.247 . S
O69 Cd58 2.439 . S
O69 C63 1.208 . S
O70 Cd71 2.223 . S
O70 C78 1.315 . S
Cd71 O70 2.223 . S
Cd71 O74 2.297 . S
Cd71 O75 2.439 . S
Cd71 O81 2.240 . S
Cd72 O73 2.240 . S
Cd72 O80 2.223 . S
Cd72 O82 2.297 . S
Cd72 O83 2.439 . S
O73 Cd72 2.240 . S
O73 C78 1.279 . S
O74 Cd71 2.297 . S
O74 C76 1.247 . S
O75 Cd71 2.439 . S
O75 C76 1.208 . S
C76 O74 1.247 . S
C76 O75 1.208 . S
C77 O82 1.247 . S
C77 O83 1.208 . S
C78 O70 1.315 . S
C78 O73 1.279 . S
C79 O80 1.315 . S
C79 O81 1.279 . S
O80 Cd72 2.223 . S
O80 C79 1.315 . S
O81 Cd71 2.240 . S
O81 C79 1.279 . S
O82 Cd72 2.297 . S
O82 C77 1.247 . S
O83 Cd72 2.439 . S
O83 C77 1.208 . S
O84 Cd85 2.223 . S
O84 C92 1.315 . S
Cd85 O84 2.223 . S
Cd85 O88 2.297 . S
Cd85 O89 2.439 . S
Cd85 O95 2.240 . S
Cd86 O87 2.240 . S
Cd86 O94 2.223 . S
Cd86 O96 2.297 . S
Cd86 O97 2.439 . S
O87 Cd86 2.240 . S
O87 C92 1.279 . S
O88 Cd85 2.297 . S
O88 C90 1.247 . S
O89 Cd85 2.439 . S
O89 C90 1.208 . S
C90 O88 1.247 . S
C90 O89 1.208 . S
C91 O96 1.247 . S
C91 O97 1.208 . S
C92 O84 1.315 . S
C92 O87 1.279 . S
C93 O94 1.315 . S
C93 O95 1.279 . S
O94 Cd86 2.223 . S
O94 C93 1.315 . S
O95 Cd85 2.240 . S
O95 C93 1.279 . S
O96 Cd86 2.297 . S
O96 C91 1.247 . S
O97 Cd86 2.439 . S
O97 C91 1.208 . S
O98 Cd99 2.223 . S
O98 C106 1.315 . S
Cd99 O98 2.223 . S
Cd99 O102 2.297 . S
Cd99 O103 2.439 . S
Cd99 O109 2.240 . S
Cd100 O101 2.240 . S
Cd100 O108 2.223 . S
Cd100 O110 2.297 . S
Cd100 O111 2.439 . S
O101 Cd100 2.240 . S
O101 C106 1.279 . S
O102 Cd99 2.297 . S
O102 C104 1.247 . S
O103 Cd99 2.439 . S
O103 C104 1.208 . S
C104 O102 1.247 . S
C104 O103 1.208 . S
C105 O110 1.247 . S
C105 O111 1.208 . S
C106 O98 1.315 . S
C106 O101 1.279 . S
C107 O108 1.315 . S
C107 O109 1.279 . S
O108 Cd100 2.223 . S
O108 C107 1.315 . S
O109 Cd99 2.240 . S
O109 C107 1.279 . S
O110 Cd100 2.297 . S
O110 C105 1.247 . S
O111 Cd100 2.439 . S
O111 C105 1.208 . S
O112 Cd113 2.223 . S
O112 C120 1.315 . S
Cd113 O112 2.223 . S
Cd113 O116 2.297 . S
Cd113 O117 2.439 . S
Cd113 O123 2.240 . S
Cd114 O115 2.240 . S
Cd114 O122 2.223 . S
Cd114 O124 2.297 . S
Cd114 O125 2.439 . S
O115 Cd114 2.240 . S
O115 C120 1.279 . S
O116 Cd113 2.297 . S
O116 C118 1.247 . S
O117 Cd113 2.439 . S
O117 C118 1.208 . S
C118 O116 1.247 . S
C118 O117 1.208 . S
C119 O124 1.247 . S
C119 O125 1.208 . S
C120 O112 1.315 . S
C120 O115 1.279 . S
C121 O122 1.315 . S
C121 O123 1.279 . S
O122 Cd114 2.223 . S
O122 C121 1.315 . S
O123 Cd113 2.240 . S
O123 C121 1.279 . S
O124 Cd114 2.297 . S
O124 C119 1.247 . S
O125 Cd114 2.439 . S
O125 C119 1.208 . S
O126 Cd127 2.223 . S
O126 C134 1.315 . S
Cd127 O126 2.223 . S
Cd127 O130 2.297 . S
Cd127 O131 2.439 . S
Cd127 O137 2.240 . S
Cd128 O129 2.240 . S
Cd128 O136 2.223 . S
Cd128 O138 2.297 . S
Cd128 O139 2.439 . S
O129 Cd128 2.240 . S
O129 C134 1.279 . S
O130 Cd127 2.297 . S
O130 C132 1.247 . S
O131 Cd127 2.439 . S
O131 C132 1.208 . S
C132 O130 1.247 . S
C132 O131 1.208 . S
C133 O138 1.247 . S
C133 O139 1.208 . S
C134 O126 1.315 . S
C134 O129 1.279 . S
C135 O136 1.315 . S
C135 O137 1.279 . S
O136 Cd128 2.223 . S
O136 C135 1.315 . S
O137 Cd127 2.240 . S
O137 C135 1.279 . S
O138 Cd128 2.297 . S
O138 C133 1.247 . S
O139 Cd128 2.439 . S
O139 C133 1.208 . S
O140 Cd141 2.223 . S
O140 C148 1.315 . S
Cd141 O140 2.223 . S
Cd141 O144 2.297 . S
Cd141 O145 2.439 . S
Cd141 O151 2.240 . S
Cd142 O143 2.240 . S
Cd142 O150 2.223 . S
Cd142 O152 2.297 . S
Cd142 O153 2.439 . S
O143 Cd142 2.240 . S
O143 C148 1.279 . S
O144 Cd141 2.297 . S
O144 C146 1.247 . S
O145 Cd141 2.439 . S
O145 C146 1.208 . S
C146 O144 1.247 . S
C146 O145 1.208 . S
C147 O152 1.247 . S
C147 O153 1.208 . S
C148 O140 1.315 . S
C148 O143 1.279 . S
C149 O150 1.315 . S
C149 O151 1.279 . S
O150 Cd142 2.223 . S
O150 C149 1.315 . S
O151 Cd141 2.240 . S
O151 C149 1.279 . S
O152 Cd142 2.297 . S
O152 C147 1.247 . S
O153 Cd142 2.439 . S
O153 C147 1.208 . S
O154 Cd155 2.223 . S
O154 C162 1.315 . S
Cd155 O154 2.223 . S
Cd155 O158 2.297 . S
Cd155 O159 2.439 . S
Cd155 O165 2.240 . S
Cd156 O157 2.240 . S
Cd156 O164 2.223 . S
Cd156 O166 2.297 . S
Cd156 O167 2.439 . S
O157 Cd156 2.240 . S
O157 C162 1.279 . S
O158 Cd155 2.297 . S
O158 C160 1.247 . S
O159 Cd155 2.439 . S
O159 C160 1.208 . S
C160 O158 1.247 . S
C160 O159 1.208 . S
C161 O166 1.247 . S
C161 O167 1.208 . S
C162 O154 1.315 . S
C162 O157 1.279 . S
C163 O164 1.315 . S
C163 O165 1.279 . S
O164 Cd156 2.223 . S
O164 C163 1.315 . S
O165 Cd155 2.240 . S
O165 C163 1.279 . S
O166 Cd156 2.297 . S
O166 C161 1.247 . S
O167 Cd156 2.439 . S
O167 C161 1.208 . S
O168 Cd169 2.223 . S
O168 C176 1.315 . S
Cd169 O168 2.223 . S
Cd169 O172 2.297 . S
Cd169 O173 2.439 . S
Cd169 O179 2.240 . S
Cd170 O171 2.240 . S
Cd170 O178 2.223 . S
Cd170 O180 2.297 . S
Cd170 O181 2.439 . S
O171 Cd170 2.240 . S
O171 C176 1.279 . S
O172 Cd169 2.297 . S
O172 C174 1.247 . S
O173 Cd169 2.439 . S
O173 C174 1.208 . S
C174 O172 1.247 . S
C174 O173 1.208 . S
C175 O180 1.247 . S
C175 O181 1.208 . S
C176 O168 1.315 . S
C176 O171 1.279 . S
C177 O178 1.315 . S
C177 O179 1.279 . S
O178 Cd170 2.223 . S
O178 C177 1.315 . S
O179 Cd169 2.240 . S
O179 C177 1.279 . S
O180 Cd170 2.297 . S
O180 C175 1.247 . S
O181 Cd170 2.439 . S
O181 C175 1.208 . S
O182 Cd183 2.223 . S
O182 C190 1.315 . S
Cd183 O182 2.223 . S
Cd183 O186 2.297 . S
Cd183 O187 2.439 . S
Cd183 O193 2.240 . S
Cd184 O185 2.240 . S
Cd184 O192 2.223 . S
Cd184 O194 2.297 . S
Cd184 O195 2.439 . S
O185 Cd184 2.240 . S
O185 C190 1.279 . S
O186 Cd183 2.297 . S
O186 C188 1.247 . S
O187 Cd183 2.439 . S
O187 C188 1.208 . S
C188 O186 1.247 . S
C188 O187 1.208 . S
C189 O194 1.247 . S
C189 O195 1.208 . S
C190 O182 1.315 . S
C190 O185 1.279 . S
C191 O192 1.315 . S
C191 O193 1.279 . S
O192 Cd184 2.223 . S
O192 C191 1.315 . S
O193 Cd183 2.240 . S
O193 C191 1.279 . S
O194 Cd184 2.297 . S
O194 C189 1.247 . S
O195 Cd184 2.439 . S
O195 C189 1.208 . S
O196 Cd197 2.223 . S
O196 C204 1.315 . S
Cd197 O196 2.223 . S
Cd197 O200 2.297 . S
Cd197 O201 2.439 . S
Cd197 O207 2.240 . S
Cd198 O199 2.240 . S
Cd198 O206 2.223 . S
Cd198 O208 2.297 . S
Cd198 O209 2.439 . S
O199 Cd198 2.240 . S
O199 C204 1.279 . S
O200 Cd197 2.297 . S
O200 C202 1.247 . S
O201 Cd197 2.439 . S
O201 C202 1.208 . S
C202 O200 1.247 . S
C202 O201 1.208 . S
C203 O208 1.247 . S
C203 O209 1.208 . S
C204 O196 1.315 . S
C204 O199 1.279 . S
C205 O206 1.315 . S
C205 O207 1.279 . S
O206 Cd198 2.223 . S
O206 C205 1.315 . S
O207 Cd197 2.240 . S
O207 C205 1.279 . S
O208 Cd198 2.297 . S
O208 C203 1.247 . S
O209 Cd198 2.439 . S
O209 C203 1.208 . S
O210 Cd211 2.223 . S
O210 C218 1.315 . S
Cd211 O210 2.223 . S
Cd211 O214 2.297 . S
Cd211 O215 2.439 . S
Cd211 O221 2.240 . S
Cd212 O213 2.240 . S
Cd212 O220 2.223 . S
Cd212 O222 2.297 . S
Cd212 O223 2.439 . S
O213 Cd212 2.240 . S
O213 C218 1.279 . S
O214 Cd211 2.297 . S
O214 C216 1.247 . S
O215 Cd211 2.439 . S
O215 C216 1.208 . S
C216 O214 1.247 . S
C216 O215 1.208 . S
C217 O222 1.247 . S
C217 O223 1.208 . S
C218 O210 1.315 . S
C218 O213 1.279 . S
C219 O220 1.315 . S
C219 O221 1.279 . S
O220 Cd212 2.223 . S
O220 C219 1.315 . S
O221 Cd211 2.240 . S
O221 C219 1.279 . S
O222 Cd212 2.297 . S
O222 C217 1.247 . S
O223 Cd212 2.439 . S
O223 C217 1.208 . S
O224 Cd225 2.223 . S
O224 C232 1.315 . S
Cd225 O224 2.223 . S
Cd225 O228 2.297 . S
Cd225 O229 2.439 . S
Cd225 O235 2.240 . S
Cd226 O227 2.240 . S
Cd226 O234 2.223 . S
Cd226 O236 2.297 . S
Cd226 O237 2.439 . S
O227 Cd226 2.240 . S
O227 C232 1.279 . S
O228 Cd225 2.297 . S
O228 C230 1.247 . S
O229 Cd225 2.439 . S
O229 C230 1.208 . S
C230 O228 1.247 . S
C230 O229 1.208 . S
C231 O236 1.247 . S
C231 O237 1.208 . S
C232 O224 1.315 . S
C232 O227 1.279 . S
C233 O234 1.315 . S
C233 O235 1.279 . S
O234 Cd226 2.223 . S
O234 C233 1.315 . S
O235 Cd225 2.240 . S
O235 C233 1.279 . S
O236 Cd226 2.297 . S
O236 C231 1.247 . S
O237 Cd226 2.439 . S
O237 C231 1.208 . S
O238 Cd239 2.223 . S
O238 C246 1.315 . S
Cd239 O238 2.223 . S
Cd239 O242 2.297 . S
Cd239 O243 2.439 . S
Cd239 O249 2.240 . S
Cd240 O241 2.240 . S
Cd240 O248 2.223 . S
Cd240 O250 2.297 . S
Cd240 O251 2.439 . S
O241 Cd240 2.240 . S
O241 C246 1.279 . S
O242 Cd239 2.297 . S
O242 C244 1.247 . S
O243 Cd239 2.439 . S
O243 C244 1.208 . S
C244 O242 1.247 . S
C244 O243 1.208 . S
C245 O250 1.247 . S
C245 O251 1.208 . S
C246 O238 1.315 . S
C246 O241 1.279 . S
C247 O248 1.315 . S
C247 O249 1.279 . S
O248 Cd240 2.223 . S
O248 C247 1.315 . S
O249 Cd239 2.240 . S
O249 C247 1.279 . S
O250 Cd240 2.297 . S
O250 C245 1.247 . S
O251 Cd240 2.439 . S
O251 C245 1.208 . S
O252 Cd253 2.223 . S
O252 C260 1.315 . S
Cd253 O252 2.223 . S
Cd253 O256 2.297 . S
Cd253 O257 2.439 . S
Cd253 O263 2.240 . S
Cd254 O255 2.240 . S
Cd254 O262 2.223 . S
Cd254 O264 2.297 . S
Cd254 O265 2.439 . S
O255 Cd254 2.240 . S
O255 C260 1.279 . S
O256 Cd253 2.297 . S
O256 C258 1.247 . S
O257 Cd253 2.439 . S
O257 C258 1.208 . S
C258 O256 1.247 . S
C258 O257 1.208 . S
C259 O264 1.247 . S
C259 O265 1.208 . S
C260 O252 1.315 . S
C260 O255 1.279 . S
C261 O262 1.315 . S
C261 O263 1.279 . S
O262 Cd254 2.223 . S
O262 C261 1.315 . S
O263 Cd253 2.240 . S
O263 C261 1.279 . S
O264 Cd254 2.297 . S
O264 C259 1.247 . S
O265 Cd254 2.439 . S
O265 C259 1.208 . S
O266 Cd267 2.223 . S
O266 C274 1.315 . S
Cd267 O266 2.223 . S
Cd267 O270 2.297 . S
Cd267 O271 2.439 . S
Cd267 O277 2.240 . S
Cd268 O269 2.240 . S
Cd268 O276 2.223 . S
Cd268 O278 2.297 . S
Cd268 O279 2.439 . S
O269 Cd268 2.240 . S
O269 C274 1.279 . S
O270 Cd267 2.297 . S
O270 C272 1.247 . S
O271 Cd267 2.439 . S
O271 C272 1.208 . S
C272 O270 1.247 . S
C272 O271 1.208 . S
C273 O278 1.247 . S
C273 O279 1.208 . S
C274 O266 1.315 . S
C274 O269 1.279 . S
C275 O276 1.315 . S
C275 O277 1.279 . S
O276 Cd268 2.223 . S
O276 C275 1.315 . S
O277 Cd267 2.240 . S
O277 C275 1.279 . S
O278 Cd268 2.297 . S
O278 C273 1.247 . S
O279 Cd268 2.439 . S
O279 C273 1.208 . S
O280 Cd281 2.223 . S
O280 C288 1.315 . S
Cd281 O280 2.223 . S
Cd281 O284 2.297 . S
Cd281 O285 2.439 . S
Cd281 O291 2.240 . S
Cd282 O283 2.240 . S
Cd282 O290 2.223 . S
Cd282 O292 2.297 . S
Cd282 O293 2.439 . S
O283 Cd282 2.240 . S
O283 C288 1.279 . S
O284 Cd281 2.297 . S
O284 C286 1.247 . S
O285 Cd281 2.439 . S
O285 C286 1.208 . S
C286 O284 1.247 . S
C286 O285 1.208 . S
C287 O292 1.247 . S
C287 O293 1.208 . S
C288 O280 1.315 . S
C288 O283 1.279 . S
C289 O290 1.315 . S
C289 O291 1.279 . S
O290 Cd282 2.223 . S
O290 C289 1.315 . S
O291 Cd281 2.240 . S
O291 C289 1.279 . S
O292 Cd282 2.297 . S
O292 C287 1.247 . S
O293 Cd282 2.439 . S
O293 C287 1.208 . S
O294 Cd295 2.223 . S
O294 C302 1.315 . S
Cd295 O294 2.223 . S
Cd295 O298 2.297 . S
Cd295 O299 2.439 . S
Cd295 O305 2.240 . S
Cd296 O297 2.240 . S
Cd296 O304 2.223 . S
Cd296 O306 2.297 . S
Cd296 O307 2.439 . S
O297 Cd296 2.240 . S
O297 C302 1.279 . S
O298 Cd295 2.297 . S
O298 C300 1.247 . S
O299 Cd295 2.439 . S
O299 C300 1.208 . S
C300 O298 1.247 . S
C300 O299 1.208 . S
C301 O306 1.247 . S
C301 O307 1.208 . S
C302 O294 1.315 . S
C302 O297 1.279 . S
C303 O304 1.315 . S
C303 O305 1.279 . S
O304 Cd296 2.223 . S
O304 C303 1.315 . S
O305 Cd295 2.240 . S
O305 C303 1.279 . S
O306 Cd296 2.297 . S
O306 C301 1.247 . S
O307 Cd296 2.439 . S
O307 C301 1.208 . S
O308 Cd309 2.223 . S
O308 C316 1.315 . S
Cd309 O308 2.223 . S
Cd309 O312 2.297 . S
Cd309 O313 2.439 . S
Cd309 O319 2.240 . S
Cd310 O311 2.240 . S
Cd310 O318 2.223 . S
Cd310 O320 2.297 . S
Cd310 O321 2.439 . S
O311 Cd310 2.240 . S
O311 C316 1.279 . S
O312 Cd309 2.297 . S
O312 C314 1.247 . S
O313 Cd309 2.439 . S
O313 C314 1.208 . S
C314 O312 1.247 . S
C314 O313 1.208 . S
C315 O320 1.247 . S
C315 O321 1.208 . S
C316 O308 1.315 . S
C316 O311 1.279 . S
C317 O318 1.315 . S
C317 O319 1.279 . S
O318 Cd310 2.223 . S
O318 C317 1.315 . S
O319 Cd309 2.240 . S
O319 C317 1.279 . S
O320 Cd310 2.297 . S
O320 C315 1.247 . S
O321 Cd310 2.439 . S
O321 C315 1.208 . S
O322 Cd323 2.223 . S
O322 C330 1.315 . S
Cd323 O322 2.223 . S
Cd323 O326 2.297 . S
Cd323 O327 2.439 . S
Cd323 O333 2.240 . S
Cd324 O325 2.240 . S
Cd324 O332 2.223 . S
Cd324 O334 2.297 . S
Cd324 O335 2.439 . S
O325 Cd324 2.240 . S
O325 C330 1.279 . S
O326 Cd323 2.297 . S
O326 C328 1.247 . S
O327 Cd323 2.439 . S
O327 C328 1.208 . S
C328 O326 1.247 . S
C328 O327 1.208 . S
C329 O334 1.247 . S
C329 O335 1.208 . S
C330 O322 1.315 . S
C330 O325 1.279 . S
C331 O332 1.315 . S
C331 O333 1.279 . S
O332 Cd324 2.223 . S
O332 C331 1.315 . S
O333 Cd323 2.240 . S
O333 C331 1.279 . S
O334 Cd324 2.297 . S
O334 C329 1.247 . S
O335 Cd324 2.439 . S
O335 C329 1.208 . S
O336 Cd337 2.223 . S
O336 C344 1.315 . S
Cd337 O336 2.223 . S
Cd337 O340 2.297 . S
Cd337 O341 2.439 . S
Cd337 O347 2.240 . S
Cd338 O339 2.240 . S
Cd338 O346 2.223 . S
Cd338 O348 2.297 . S
Cd338 O349 2.439 . S
O339 Cd338 2.240 . S
O339 C344 1.279 . S
O340 Cd337 2.297 . S
O340 C342 1.247 . S
O341 Cd337 2.439 . S
O341 C342 1.208 . S
C342 O340 1.247 . S
C342 O341 1.208 . S
C343 O348 1.247 . S
C343 O349 1.208 . S
C344 O336 1.315 . S
C344 O339 1.279 . S
C345 O346 1.315 . S
C345 O347 1.279 . S
O346 Cd338 2.223 . S
O346 C345 1.315 . S
O347 Cd337 2.240 . S
O347 C345 1.279 . S
O348 Cd338 2.297 . S
O348 C343 1.247 . S
O349 Cd338 2.439 . S
O349 C343 1.208 . S
O350 Cd351 2.223 . S
O350 C358 1.315 . S
Cd351 O350 2.223 . S
Cd351 O354 2.297 . S
Cd351 O355 2.439 . S
Cd351 O361 2.240 . S
Cd352 O353 2.240 . S
Cd352 O360 2.223 . S
Cd352 O362 2.297 . S
Cd352 O363 2.439 . S
O353 Cd352 2.240 . S
O353 C358 1.279 . S
O354 Cd351 2.297 . S
O354 C356 1.247 . S
O355 Cd351 2.439 . S
O355 C356 1.208 . S
C356 O354 1.247 . S
C356 O355 1.208 . S
C357 O362 1.247 . S
C357 O363 1.208 . S
C358 O350 1.315 . S
C358 O353 1.279 . S
C359 O360 1.315 . S
C359 O361 1.279 . S
O360 Cd352 2.223 . S
O360 C359 1.315 . S
O361 Cd351 2.240 . S
O361 C359 1.279 . S
O362 Cd352 2.297 . S
O362 C357 1.247 . S
O363 Cd352 2.439 . S
O363 C357 1.208 . S
O364 Cd365 2.223 . S
O364 C372 1.315 . S
Cd365 O364 2.223 . S
Cd365 O368 2.297 . S
Cd365 O369 2.439 . S
Cd365 O375 2.240 . S
Cd366 O367 2.240 . S
Cd366 O374 2.223 . S
Cd366 O376 2.297 . S
Cd366 O377 2.439 . S
O367 Cd366 2.240 . S
O367 C372 1.279 . S
O368 Cd365 2.297 . S
O368 C370 1.247 . S
O369 Cd365 2.439 . S
O369 C370 1.208 . S
C370 O368 1.247 . S
C370 O369 1.208 . S
C371 O376 1.247 . S
C371 O377 1.208 . S
C372 O364 1.315 . S
C372 O367 1.279 . S
C373 O374 1.315 . S
C373 O375 1.279 . S
O374 Cd366 2.223 . S
O374 C373 1.315 . S
O375 Cd365 2.240 . S
O375 C373 1.279 . S
O376 Cd366 2.297 . S
O376 C371 1.247 . S
O377 Cd366 2.439 . S
O377 C371 1.208 . S
O378 Cd379 2.223 . S
O378 C386 1.315 . S
Cd379 O378 2.223 . S
Cd379 O382 2.297 . S
Cd379 O383 2.439 . S
Cd379 O389 2.240 . S
Cd380 O381 2.240 . S
Cd380 O388 2.223 . S
Cd380 O390 2.297 . S
Cd380 O391 2.439 . S
O381 Cd380 2.240 . S
O381 C386 1.279 . S
O382 Cd379 2.297 . S
O382 C384 1.247 . S
O383 Cd379 2.439 . S
O383 C384 1.208 . S
C384 O382 1.247 . S
C384 O383 1.208 . S
C385 O390 1.247 . S
C385 O391 1.208 . S
C386 O378 1.315 . S
C386 O381 1.279 . S
C387 O388 1.315 . S
C387 O389 1.279 . S
O388 Cd380 2.223 . S
O388 C387 1.315 . S
O389 Cd379 2.240 . S
O389 C387 1.279 . S
O390 Cd380 2.297 . S
O390 C385 1.247 . S
O391 Cd380 2.439 . S
O391 C385 1.208 . S
O392 Cd393 2.223 . S
O392 C400 1.315 . S
Cd393 O392 2.223 . S
Cd393 O396 2.297 . S
Cd393 O397 2.439 . S
Cd393 O403 2.240 . S
Cd394 O395 2.240 . S
Cd394 O402 2.223 . S
Cd394 O404 2.297 . S
Cd394 O405 2.439 . S
O395 Cd394 2.240 . S
O395 C400 1.279 . S
O396 Cd393 2.297 . S
O396 C398 1.247 . S
O397 Cd393 2.439 . S
O397 C398 1.208 . S
C398 O396 1.247 . S
C398 O397 1.208 . S
C399 O404 1.247 . S
C399 O405 1.208 . S
C400 O392 1.315 . S
C400 O395 1.279 . S
C401 O402 1.315 . S
C401 O403 1.279 . S
O402 Cd394 2.223 . S
O402 C401 1.315 . S
O403 Cd393 2.240 . S
O403 C401 1.279 . S
O404 Cd394 2.297 . S
O404 C399 1.247 . S
O405 Cd394 2.439 . S
O405 C399 1.208 . S
O406 Cd407 2.223 . S
O406 C414 1.315 . S
Cd407 O406 2.223 . S
Cd407 O410 2.297 . S
Cd407 O411 2.439 . S
Cd407 O417 2.240 . S
Cd408 O409 2.240 . S
Cd408 O416 2.223 . S
Cd408 O418 2.297 . S
Cd408 O419 2.439 . S
O409 Cd408 2.240 . S
O409 C414 1.279 . S
O410 Cd407 2.297 . S
O410 C412 1.247 . S
O411 Cd407 2.439 . S
O411 C412 1.208 . S
C412 O410 1.247 . S
C412 O411 1.208 . S
C413 O418 1.247 . S
C413 O419 1.208 . S
C414 O406 1.315 . S
C414 O409 1.279 . S
C415 O416 1.315 . S
C415 O417 1.279 . S
O416 Cd408 2.223 . S
O416 C415 1.315 . S
O417 Cd407 2.240 . S
O417 C415 1.279 . S
O418 Cd408 2.297 . S
O418 C413 1.247 . S
O419 Cd408 2.439 . S
O419 C413 1.208 . S
O420 Cd421 2.223 . S
O420 C428 1.315 . S
Cd421 O420 2.223 . S
Cd421 O424 2.297 . S
Cd421 O425 2.439 . S
Cd421 O431 2.240 . S
Cd422 O423 2.240 . S
Cd422 O430 2.223 . S
Cd422 O432 2.297 . S
Cd422 O433 2.439 . S
O423 Cd422 2.240 . S
O423 C428 1.279 . S
O424 Cd421 2.297 . S
O424 C426 1.247 . S
O425 Cd421 2.439 . S
O425 C426 1.208 . S
C426 O424 1.247 . S
C426 O425 1.208 . S
C427 O432 1.247 . S
C427 O433 1.208 . S
C428 O420 1.315 . S
C428 O423 1.279 . S
C429 O430 1.315 . S
C429 O431 1.279 . S
O430 Cd422 2.223 . S
O430 C429 1.315 . S
O431 Cd421 2.240 . S
O431 C429 1.279 . S
O432 Cd422 2.297 . S
O432 C427 1.247 . S
O433 Cd422 2.439 . S
O433 C427 1.208 . S
O434 Cd435 2.223 . S
O434 C442 1.315 . S
Cd435 O434 2.223 . S
Cd435 O438 2.297 . S
Cd435 O439 2.439 . S
Cd435 O445 2.240 . S
Cd436 O437 2.240 . S
Cd436 O444 2.223 . S
Cd436 O446 2.297 . S
Cd436 O447 2.439 . S
O437 Cd436 2.240 . S
O437 C442 1.279 . S
O438 Cd435 2.297 . S
O438 C440 1.247 . S
O439 Cd435 2.439 . S
O439 C440 1.208 . S
C440 O438 1.247 . S
C440 O439 1.208 . S
C441 O446 1.247 . S
C441 O447 1.208 . S
C442 O434 1.315 . S
C442 O437 1.279 . S
C443 O444 1.315 . S
C443 O445 1.279 . S
O444 Cd436 2.223 . S
O444 C443 1.315 . S
O445 Cd435 2.240 . S
O445 C443 1.279 . S
O446 Cd436 2.297 . S
O446 C441 1.247 . S
O447 Cd436 2.439 . S
O447 C441 1.208 . S
H448 C454 0.930 . S
H449 C457 0.930 . S
H450 C458 0.930 . S
H451 C459 0.930 . S
H452 C462 0.930 . S
H453 C463 0.930 . S
C454 H448 0.930 . S
C454 C455 1.355 . S
C454 C456 1.415 . S
C455 C454 1.355 . S
C455 C457 1.419 . S
C456 C454 1.415 . S
C456 C461 1.425 . S
C456 C463 1.409 . S
C457 H449 0.930 . S
C457 C455 1.419 . S
C457 C458 1.362 . S
C458 H450 0.930 . S
C458 C457 1.362 . S
C458 C461 1.409 . S
C459 H451 0.930 . S
C459 C460 1.355 . S
C459 C461 1.415 . S
C460 C459 1.355 . S
C460 C462 1.419 . S
C461 C456 1.425 . S
C461 C458 1.409 . S
C461 C459 1.415 . S
C462 H452 0.930 . S
C462 C460 1.419 . S
C462 C463 1.362 . S
C463 H453 0.930 . S
C463 C456 1.409 . S
C463 C462 1.362 . S
H464 C470 0.930 . S
H465 C473 0.930 . S
H466 C474 0.930 . S
H467 C475 0.930 . S
H468 C478 0.930 . S
H469 C479 0.930 . S
C470 H464 0.930 . S
C470 C471 1.355 . S
C470 C472 1.415 . S
C471 C470 1.355 . S
C471 C473 1.419 . S
C472 C470 1.415 . S
C472 C477 1.425 . S
C472 C479 1.409 . S
C473 H465 0.930 . S
C473 C471 1.419 . S
C473 C474 1.362 . S
C474 H466 0.930 . S
C474 C473 1.362 . S
C474 C477 1.409 . S
C475 H467 0.930 . S
C475 C476 1.355 . S
C475 C477 1.415 . S
C476 C475 1.355 . S
C476 C478 1.419 . S
C477 C472 1.425 . S
C477 C474 1.409 . S
C477 C475 1.415 . S
C478 H468 0.930 . S
C478 C476 1.419 . S
C478 C479 1.362 . S
C479 H469 0.930 . S
C479 C472 1.409 . S
C479 C478 1.362 . S
H480 C486 0.930 . S
H481 C489 0.930 . S
H482 C490 0.930 . S
H483 C491 0.930 . S
H484 C494 0.930 . S
H485 C495 0.930 . S
C486 H480 0.930 . S
C486 C487 1.355 . S
C486 C488 1.415 . S
C487 C486 1.355 . S
C487 C489 1.419 . S
C488 C486 1.415 . S
C488 C493 1.425 . S
C488 C495 1.409 . S
C489 H481 0.930 . S
C489 C487 1.419 . S
C489 C490 1.362 . S
C490 H482 0.930 . S
C490 C489 1.362 . S
C490 C493 1.409 . S
C491 H483 0.930 . S
C491 C492 1.355 . S
C491 C493 1.415 . S
C492 C491 1.355 . S
C492 C494 1.419 . S
C493 C488 1.425 . S
C493 C490 1.409 . S
C493 C491 1.415 . S
C494 H484 0.930 . S
C494 C492 1.419 . S
C494 C495 1.362 . S
C495 H485 0.930 . S
C495 C488 1.409 . S
C495 C494 1.362 . S
H496 C502 0.930 . S
H497 C505 0.930 . S
H498 C506 0.930 . S
H499 C507 0.930 . S
H500 C510 0.930 . S
H501 C511 0.930 . S
C502 H496 0.930 . S
C502 C503 1.355 . S
C502 C504 1.415 . S
C503 C502 1.355 . S
C503 C505 1.419 . S
C504 C502 1.415 . S
C504 C509 1.425 . S
C504 C511 1.409 . S
C505 H497 0.930 . S
C505 C503 1.419 . S
C505 C506 1.362 . S
C506 H498 0.930 . S
C506 C505 1.362 . S
C506 C509 1.409 . S
C507 H499 0.930 . S
C507 C508 1.355 . S
C507 C509 1.415 . S
C508 C507 1.355 . S
C508 C510 1.419 . S
C509 C504 1.425 . S
C509 C506 1.409 . S
C509 C507 1.415 . S
C510 H500 0.930 . S
C510 C508 1.419 . S
C510 C511 1.362 . S
C511 H501 0.930 . S
C511 C504 1.409 . S
C511 C510 1.362 . S
H512 C518 0.930 . S
H513 C521 0.930 . S
H514 C522 0.930 . S
H515 C523 0.930 . S
H516 C526 0.930 . S
H517 C527 0.930 . S
C518 H512 0.930 . S
C518 C519 1.355 . S
C518 C520 1.415 . S
C519 C518 1.355 . S
C519 C521 1.419 . S
C520 C518 1.415 . S
C520 C525 1.425 . S
C520 C527 1.409 . S
C521 H513 0.930 . S
C521 C519 1.419 . S
C521 C522 1.362 . S
C522 H514 0.930 . S
C522 C521 1.362 . S
C522 C525 1.409 . S
C523 H515 0.930 . S
C523 C524 1.355 . S
C523 C525 1.415 . S
C524 C523 1.355 . S
C524 C526 1.419 . S
C525 C520 1.425 . S
C525 C522 1.409 . S
C525 C523 1.415 . S
C526 H516 0.930 . S
C526 C524 1.419 . S
C526 C527 1.362 . S
C527 H517 0.930 . S
C527 C520 1.409 . S
C527 C526 1.362 . S
H528 C534 0.930 . S
H529 C537 0.930 . S
H530 C538 0.930 . S
H531 C539 0.930 . S
H532 C542 0.930 . S
H533 C543 0.930 . S
C534 H528 0.930 . S
C534 C535 1.355 . S
C534 C536 1.415 . S
C535 C534 1.355 . S
C535 C537 1.419 . S
C536 C534 1.415 . S
C536 C541 1.425 . S
C536 C543 1.409 . S
C537 H529 0.930 . S
C537 C535 1.419 . S
C537 C538 1.362 . S
C538 H530 0.930 . S
C538 C537 1.362 . S
C538 C541 1.409 . S
C539 H531 0.930 . S
C539 C540 1.355 . S
C539 C541 1.415 . S
C540 C539 1.355 . S
C540 C542 1.419 . S
C541 C536 1.425 . S
C541 C538 1.409 . S
C541 C539 1.415 . S
C542 H532 0.930 . S
C542 C540 1.419 . S
C542 C543 1.362 . S
C543 H533 0.930 . S
C543 C536 1.409 . S
C543 C542 1.362 . S
H544 C550 0.930 . S
H545 C553 0.930 . S
H546 C554 0.930 . S
H547 C555 0.930 . S
H548 C558 0.930 . S
H549 C559 0.930 . S
C550 H544 0.930 . S
C550 C551 1.355 . S
C550 C552 1.415 . S
C551 C550 1.355 . S
C551 C553 1.419 . S
C552 C550 1.415 . S
C552 C557 1.425 . S
C552 C559 1.409 . S
C553 H545 0.930 . S
C553 C551 1.419 . S
C553 C554 1.362 . S
C554 H546 0.930 . S
C554 C553 1.362 . S
C554 C557 1.409 . S
C555 H547 0.930 . S
C555 C556 1.355 . S
C555 C557 1.415 . S
C556 C555 1.355 . S
C556 C558 1.419 . S
C557 C552 1.425 . S
C557 C554 1.409 . S
C557 C555 1.415 . S
C558 H548 0.930 . S
C558 C556 1.419 . S
C558 C559 1.362 . S
C559 H549 0.930 . S
C559 C552 1.409 . S
C559 C558 1.362 . S
H560 C566 0.930 . S
H561 C569 0.930 . S
H562 C570 0.930 . S
H563 C571 0.930 . S
H564 C574 0.930 . S
H565 C575 0.930 . S
C566 H560 0.930 . S
C566 C567 1.355 . S
C566 C568 1.415 . S
C567 C566 1.355 . S
C567 C569 1.419 . S
C568 C566 1.415 . S
C568 C573 1.425 . S
C568 C575 1.409 . S
C569 H561 0.930 . S
C569 C567 1.419 . S
C569 C570 1.362 . S
C570 H562 0.930 . S
C570 C569 1.362 . S
C570 C573 1.409 . S
C571 H563 0.930 . S
C571 C572 1.355 . S
C571 C573 1.415 . S
C572 C571 1.355 . S
C572 C574 1.419 . S
C573 C568 1.425 . S
C573 C570 1.409 . S
C573 C571 1.415 . S
C574 H564 0.930 . S
C574 C572 1.419 . S
C574 C575 1.362 . S
C575 H565 0.930 . S
C575 C568 1.409 . S
C575 C574 1.362 . S
H576 C582 0.930 . S
H577 C585 0.930 . S
H578 C586 0.930 . S
H579 C587 0.930 . S
H580 C590 0.930 . S
H581 C591 0.930 . S
C582 H576 0.930 . S
C582 C583 1.355 . S
C582 C584 1.415 . S
C583 C582 1.355 . S
C583 C585 1.419 . S
C584 C582 1.415 . S
C584 C589 1.425 . S
C584 C591 1.409 . S
C585 H577 0.930 . S
C585 C583 1.419 . S
C585 C586 1.362 . S
C586 H578 0.930 . S
C586 C585 1.362 . S
C586 C589 1.409 . S
C587 H579 0.930 . S
C587 C588 1.355 . S
C587 C589 1.415 . S
C588 C587 1.355 . S
C588 C590 1.419 . S
C589 C584 1.425 . S
C589 C586 1.409 . S
C589 C587 1.415 . S
C590 H580 0.930 . S
C590 C588 1.419 . S
C590 C591 1.362 . S
C591 H581 0.930 . S
C591 C584 1.409 . S
C591 C590 1.362 . S
H592 C598 0.930 . S
H593 C601 0.930 . S
H594 C602 0.930 . S
H595 C603 0.930 . S
H596 C606 0.930 . S
H597 C607 0.930 . S
C598 H592 0.930 . S
C598 C599 1.355 . S
C598 C600 1.415 . S
C599 C598 1.355 . S
C599 C601 1.419 . S
C600 C598 1.415 . S
C600 C605 1.425 . S
C600 C607 1.409 . S
C601 H593 0.930 . S
C601 C599 1.419 . S
C601 C602 1.362 . S
C602 H594 0.930 . S
C602 C601 1.362 . S
C602 C605 1.409 . S
C603 H595 0.930 . S
C603 C604 1.355 . S
C603 C605 1.415 . S
C604 C603 1.355 . S
C604 C606 1.419 . S
C605 C600 1.425 . S
C605 C602 1.409 . S
C605 C603 1.415 . S
C606 H596 0.930 . S
C606 C604 1.419 . S
C606 C607 1.362 . S
C607 H597 0.930 . S
C607 C600 1.409 . S
C607 C606 1.362 . S
H608 C614 0.930 . S
H609 C617 0.930 . S
H610 C618 0.930 . S
H611 C619 0.930 . S
H612 C622 0.930 . S
H613 C623 0.930 . S
C614 H608 0.930 . S
C614 C615 1.355 . S
C614 C616 1.415 . S
C615 C614 1.355 . S
C615 C617 1.419 . S
C616 C614 1.415 . S
C616 C621 1.425 . S
C616 C623 1.409 . S
C617 H609 0.930 . S
C617 C615 1.419 . S
C617 C618 1.362 . S
C618 H610 0.930 . S
C618 C617 1.362 . S
C618 C621 1.409 . S
C619 H611 0.930 . S
C619 C620 1.355 . S
C619 C621 1.415 . S
C620 C619 1.355 . S
C620 C622 1.419 . S
C621 C616 1.425 . S
C621 C618 1.409 . S
C621 C619 1.415 . S
C622 H612 0.930 . S
C622 C620 1.419 . S
C622 C623 1.362 . S
C623 H613 0.930 . S
C623 C616 1.409 . S
C623 C622 1.362 . S
H624 C630 0.930 . S
H625 C633 0.930 . S
H626 C634 0.930 . S
H627 C635 0.930 . S
H628 C638 0.930 . S
H629 C639 0.930 . S
C630 H624 0.930 . S
C630 C631 1.355 . S
C630 C632 1.415 . S
C631 C630 1.355 . S
C631 C633 1.419 . S
C632 C630 1.415 . S
C632 C637 1.425 . S
C632 C639 1.409 . S
C633 H625 0.930 . S
C633 C631 1.419 . S
C633 C634 1.362 . S
C634 H626 0.930 . S
C634 C633 1.362 . S
C634 C637 1.409 . S
C635 H627 0.930 . S
C635 C636 1.355 . S
C635 C637 1.415 . S
C636 C635 1.355 . S
C636 C638 1.419 . S
C637 C632 1.425 . S
C637 C634 1.409 . S
C637 C635 1.415 . S
C638 H628 0.930 . S
C638 C636 1.419 . S
C638 C639 1.362 . S
C639 H629 0.930 . S
C639 C632 1.409 . S
C639 C638 1.362 . S
H640 C646 0.930 . S
H641 C649 0.930 . S
H642 C650 0.930 . S
H643 C651 0.930 . S
H644 C654 0.930 . S
H645 C655 0.930 . S
C646 H640 0.930 . S
C646 C647 1.355 . S
C646 C648 1.415 . S
C647 C646 1.355 . S
C647 C649 1.419 . S
C648 C646 1.415 . S
C648 C653 1.425 . S
C648 C655 1.409 . S
C649 H641 0.930 . S
C649 C647 1.419 . S
C649 C650 1.362 . S
C650 H642 0.930 . S
C650 C649 1.362 . S
C650 C653 1.409 . S
C651 H643 0.930 . S
C651 C652 1.355 . S
C651 C653 1.415 . S
C652 C651 1.355 . S
C652 C654 1.419 . S
C653 C648 1.425 . S
C653 C650 1.409 . S
C653 C651 1.415 . S
C654 H644 0.930 . S
C654 C652 1.419 . S
C654 C655 1.362 . S
C655 H645 0.930 . S
C655 C648 1.409 . S
C655 C654 1.362 . S
H656 C662 0.930 . S
H657 C665 0.930 . S
H658 C666 0.930 . S
H659 C667 0.930 . S
H660 C670 0.930 . S
H661 C671 0.930 . S
C662 H656 0.930 . S
C662 C663 1.355 . S
C662 C664 1.415 . S
C663 C662 1.355 . S
C663 C665 1.419 . S
C664 C662 1.415 . S
C664 C669 1.425 . S
C664 C671 1.409 . S
C665 H657 0.930 . S
C665 C663 1.419 . S
C665 C666 1.362 . S
C666 H658 0.930 . S
C666 C665 1.362 . S
C666 C669 1.409 . S
C667 H659 0.930 . S
C667 C668 1.355 . S
C667 C669 1.415 . S
C668 C667 1.355 . S
C668 C670 1.419 . S
C669 C664 1.425 . S
C669 C666 1.409 . S
C669 C667 1.415 . S
C670 H660 0.930 . S
C670 C668 1.419 . S
C670 C671 1.362 . S
C671 H661 0.930 . S
C671 C664 1.409 . S
C671 C670 1.362 . S
H672 C678 0.930 . S
H673 C681 0.930 . S
H674 C682 0.930 . S
H675 C683 0.930 . S
H676 C686 0.930 . S
H677 C687 0.930 . S
C678 H672 0.930 . S
C678 C679 1.355 . S
C678 C680 1.415 . S
C679 C678 1.355 . S
C679 C681 1.419 . S
C680 C678 1.415 . S
C680 C685 1.425 . S
C680 C687 1.409 . S
C681 H673 0.930 . S
C681 C679 1.419 . S
C681 C682 1.362 . S
C682 H674 0.930 . S
C682 C681 1.362 . S
C682 C685 1.409 . S
C683 H675 0.930 . S
C683 C684 1.355 . S
C683 C685 1.415 . S
C684 C683 1.355 . S
C684 C686 1.419 . S
C685 C680 1.425 . S
C685 C682 1.409 . S
C685 C683 1.415 . S
C686 H676 0.930 . S
C686 C684 1.419 . S
C686 C687 1.362 . S
C687 H677 0.930 . S
C687 C680 1.409 . S
C687 C686 1.362 . S
H688 C694 0.930 . S
H689 C697 0.930 . S
H690 C698 0.930 . S
H691 C699 0.930 . S
H692 C702 0.930 . S
H693 C703 0.930 . S
C694 H688 0.930 . S
C694 C695 1.355 . S
C694 C696 1.415 . S
C695 C694 1.355 . S
C695 C697 1.419 . S
C696 C694 1.415 . S
C696 C701 1.425 . S
C696 C703 1.409 . S
C697 H689 0.930 . S
C697 C695 1.419 . S
C697 C698 1.362 . S
C698 H690 0.930 . S
C698 C697 1.362 . S
C698 C701 1.409 . S
C699 H691 0.930 . S
C699 C700 1.355 . S
C699 C701 1.415 . S
C700 C699 1.355 . S
C700 C702 1.419 . S
C701 C696 1.425 . S
C701 C698 1.409 . S
C701 C699 1.415 . S
C702 H692 0.930 . S
C702 C700 1.419 . S
C702 C703 1.362 . S
C703 H693 0.930 . S
C703 C696 1.409 . S
C703 C702 1.362 . S
H704 C710 0.930 . S
H705 C713 0.930 . S
H706 C714 0.930 . S
H707 C715 0.930 . S
H708 C718 0.930 . S
H709 C719 0.930 . S
C710 H704 0.930 . S
C710 C711 1.355 . S
C710 C712 1.415 . S
C711 C710 1.355 . S
C711 C713 1.419 . S
C712 C710 1.415 . S
C712 C717 1.425 1_455 S
C712 C719 1.409 1_455 S
C713 H705 0.930 . S
C713 C711 1.419 . S
C713 C714 1.362 . S
C714 H706 0.930 . S
C714 C713 1.362 . S
C714 C717 1.409 1_455 S
C715 H707 0.930 . S
C715 C716 1.355 . S
C715 C717 1.415 . S
C716 C715 1.355 . S
C716 C718 1.419 . S
C717 C712 1.425 1_655 S
C717 C714 1.409 1_655 S
C717 C715 1.415 . S
C718 H708 0.930 . S
C718 C716 1.419 . S
C718 C719 1.362 . S
C719 H709 0.930 . S
C719 C712 1.409 1_655 S
C719 C718 1.362 . S
H720 C726 0.930 . S
H721 C729 0.930 . S
H722 C730 0.930 . S
H723 C731 0.930 . S
H724 C734 0.930 . S
H725 C735 0.930 . S
C726 H720 0.930 . S
C726 C727 1.355 . S
C726 C728 1.415 . S
C727 C726 1.355 . S
C727 C729 1.419 . S
C728 C726 1.415 . S
C728 C733 1.425 . S
C728 C735 1.409 . S
C729 H721 0.930 . S
C729 C727 1.419 . S
C729 C730 1.362 . S
C730 H722 0.930 . S
C730 C729 1.362 . S
C730 C733 1.409 . S
C731 H723 0.930 . S
C731 C732 1.355 . S
C731 C733 1.415 . S
C732 C731 1.355 . S
C732 C734 1.419 . S
C733 C728 1.425 . S
C733 C730 1.409 . S
C733 C731 1.415 . S
C734 H724 0.930 . S
C734 C732 1.419 . S
C734 C735 1.362 . S
C735 H725 0.930 . S
C735 C728 1.409 . S
C735 C734 1.362 . S
H736 C742 0.930 . S
H737 C745 0.930 . S
H738 C746 0.930 . S
H739 C747 0.930 . S
H740 C750 0.930 . S
H741 C751 0.930 . S
C742 H736 0.930 . S
C742 C743 1.355 . S
C742 C744 1.415 . S
C743 C742 1.355 . S
C743 C745 1.419 . S
C744 C742 1.415 . S
C744 C749 1.425 . S
C744 C751 1.409 . S
C745 H737 0.930 . S
C745 C743 1.419 . S
C745 C746 1.362 . S
C746 H738 0.930 . S
C746 C745 1.362 . S
C746 C749 1.409 . S
C747 H739 0.930 . S
C747 C748 1.355 . S
C747 C749 1.415 . S
C748 C747 1.355 . S
C748 C750 1.419 . S
C749 C744 1.425 . S
C749 C746 1.409 . S
C749 C747 1.415 . S
C750 H740 0.930 . S
C750 C748 1.419 . S
C750 C751 1.362 . S
C751 H741 0.930 . S
C751 C744 1.409 . S
C751 C750 1.362 . S
H752 C758 0.930 . S
H753 C761 0.930 . S
H754 C762 0.930 . S
H755 C763 0.930 . S
H756 C766 0.930 . S
H757 C767 0.930 . S
C758 H752 0.930 . S
C758 C759 1.355 . S
C758 C760 1.415 . S
C759 C758 1.355 . S
C759 C761 1.419 . S
C760 C758 1.415 . S
C760 C765 1.425 . S
C760 C767 1.409 . S
C761 H753 0.930 . S
C761 C759 1.419 . S
C761 C762 1.362 . S
C762 H754 0.930 . S
C762 C761 1.362 . S
C762 C765 1.409 . S
C763 H755 0.930 . S
C763 C764 1.355 . S
C763 C765 1.415 . S
C764 C763 1.355 . S
C764 C766 1.419 . S
C765 C760 1.425 . S
C765 C762 1.409 . S
C765 C763 1.415 . S
C766 H756 0.930 . S
C766 C764 1.419 . S
C766 C767 1.362 . S
C767 H757 0.930 . S
C767 C760 1.409 . S
C767 C766 1.362 . S
H768 C774 0.930 . S
H769 C777 0.930 1_554 S
H770 C778 0.930 1_554 S
H771 C779 0.975 . S
H772 C782 0.930 . S
H773 C783 0.930 . S
C774 H768 0.930 . S
C774 C775 1.355 . S
C774 C776 1.415 . S
C775 C774 1.355 . S
C775 C777 1.419 . S
C776 C774 1.415 . S
C776 C781 1.425 1_655 S
C776 C783 1.409 1_655 S
C777 H769 0.930 1_556 S
C777 C775 1.419 . S
C777 C778 1.362 . S
C778 H770 0.930 1_556 S
C778 C777 1.362 . S
C778 C781 1.409 1_655 S
C779 H771 0.975 . S
C779 C780 1.355 . S
C779 C781 1.415 . S
C780 C779 1.355 . S
C780 C782 1.419 . S
C781 C776 1.425 1_455 S
C781 C778 1.409 1_455 S
C781 C779 1.415 . S
C782 H772 0.930 . S
C782 C780 1.419 . S
C782 C783 1.362 . S
C783 H773 0.930 . S
C783 C776 1.409 1_455 S
C783 C782 1.362 . S
H784 C790 0.930 . S
H785 C793 0.930 . S
H786 C794 0.930 . S
H787 C795 0.930 . S
H788 C798 0.930 . S
H789 C799 0.930 . S
C790 H784 0.930 . S
C790 C791 1.355 . S
C790 C792 1.415 . S
C791 C790 1.355 . S
C791 C793 1.419 . S
C792 C790 1.415 . S
C792 C797 1.425 . S
C792 C799 1.409 . S
C793 H785 0.930 . S
C793 C791 1.419 . S
C793 C794 1.362 . S
C794 H786 0.930 . S
C794 C793 1.362 . S
C794 C797 1.409 . S
C795 H787 0.930 . S
C795 C796 1.355 . S
C795 C797 1.415 . S
C796 C795 1.355 . S
C796 C798 1.419 . S
C797 C792 1.425 . S
C797 C794 1.409 . S
C797 C795 1.415 . S
C798 H788 0.930 . S
C798 C796 1.419 . S
C798 C799 1.362 . S
C799 H789 0.930 . S
C799 C792 1.409 . S
C799 C798 1.362 . S
H800 C806 0.930 . S
H801 C809 0.930 . S
H802 C810 0.930 . S
H803 C811 0.930 . S
H804 C814 0.930 . S
H805 C815 0.930 . S
C806 H800 0.930 . S
C806 C807 1.355 . S
C806 C808 1.415 . S
C807 C806 1.355 . S
C807 C809 1.419 . S
C808 C806 1.415 . S
C808 C813 1.425 . S
C808 C815 1.409 . S
C809 H801 0.930 . S
C809 C807 1.419 . S
C809 C810 1.362 . S
C810 H802 0.930 . S
C810 C809 1.362 . S
C810 C813 1.409 . S
C811 H803 0.930 . S
C811 C812 1.355 . S
C811 C813 1.415 . S
C812 C811 1.355 . S
C812 C814 1.419 . S
C813 C808 1.425 . S
C813 C810 1.409 . S
C813 C811 1.415 . S
C814 H804 0.930 . S
C814 C812 1.419 . S
C814 C815 1.362 . S
C815 H805 0.930 . S
C815 C808 1.409 . S
C815 C814 1.362 . S
H816 C822 0.930 . S
H817 C825 0.930 . S
H818 C826 0.930 . S
H819 C827 0.930 . S
H820 C830 0.930 . S
H821 C831 0.930 . S
C822 H816 0.930 . S
C822 C823 1.355 . S
C822 C824 1.415 . S
C823 C822 1.355 . S
C823 C825 1.419 . S
C824 C822 1.415 . S
C824 C829 1.425 . S
C824 C831 1.409 . S
C825 H817 0.930 . S
C825 C823 1.419 . S
C825 C826 1.362 . S
C826 H818 0.930 . S
C826 C825 1.362 . S
C826 C829 1.409 . S
C827 H819 0.930 . S
C827 C828 1.355 . S
C827 C829 1.415 . S
C828 C827 1.355 . S
C828 C830 1.419 . S
C829 C824 1.425 . S
C829 C826 1.409 . S
C829 C827 1.415 . S
C830 H820 0.930 . S
C830 C828 1.419 . S
C830 C831 1.362 . S
C831 H821 0.930 . S
C831 C824 1.409 . S
C831 C830 1.362 . S
H832 C838 0.930 . S
H833 C841 0.930 . S
H834 C842 0.930 . S
H835 C843 0.930 . S
H836 C846 0.930 . S
H837 C847 0.930 . S
C838 H832 0.930 . S
C838 C839 1.355 . S
C838 C840 1.415 . S
C839 C838 1.355 . S
C839 C841 1.419 . S
C840 C838 1.415 . S
C840 C845 1.425 . S
C840 C847 1.409 . S
C841 H833 0.930 . S
C841 C839 1.419 . S
C841 C842 1.362 . S
C842 H834 0.930 . S
C842 C841 1.362 . S
C842 C845 1.409 . S
C843 H835 0.930 . S
C843 C844 1.355 . S
C843 C845 1.415 . S
C844 C843 1.355 . S
C844 C846 1.419 . S
C845 C840 1.425 . S
C845 C842 1.409 . S
C845 C843 1.415 . S
C846 H836 0.930 . S
C846 C844 1.419 . S
C846 C847 1.362 . S
C847 H837 0.930 . S
C847 C840 1.409 . S
C847 C846 1.362 . S
H848 C854 0.930 . S
H849 C857 0.930 . S
H850 C858 0.930 . S
H851 C859 0.930 . S
H852 C862 0.930 . S
H853 C863 0.930 . S
C854 H848 0.930 . S
C854 C855 1.355 . S
C854 C856 1.415 . S
C855 C854 1.355 . S
C855 C857 1.419 . S
C856 C854 1.415 . S
C856 C861 1.425 . S
C856 C863 1.409 . S
C857 H849 0.930 . S
C857 C855 1.419 . S
C857 C858 1.362 . S
C858 H850 0.930 . S
C858 C857 1.362 . S
C858 C861 1.409 . S
C859 H851 0.930 . S
C859 C860 1.355 . S
C859 C861 1.415 . S
C860 C859 1.355 . S
C860 C862 1.419 . S
C861 C856 1.425 . S
C861 C858 1.409 . S
C861 C859 1.415 . S
C862 H852 0.930 . S
C862 C860 1.419 . S
C862 C863 1.362 . S
C863 H853 0.930 . S
C863 C856 1.409 . S
C863 C862 1.362 . S
H864 C870 0.930 . S
H865 C873 0.930 . S
H866 C874 0.930 . S
H867 C875 0.930 . S
H868 C878 0.930 . S
H869 C879 0.930 . S
C870 H864 0.930 . S
C870 C871 1.355 . S
C870 C872 1.415 . S
C871 C870 1.355 . S
C871 C873 1.419 . S
C872 C870 1.415 . S
C872 C877 1.425 . S
C872 C879 1.409 . S
C873 H865 0.930 . S
C873 C871 1.419 . S
C873 C874 1.362 . S
C874 H866 0.930 . S
C874 C873 1.362 . S
C874 C877 1.409 . S
C875 H867 0.930 . S
C875 C876 1.355 . S
C875 C877 1.415 . S
C876 C875 1.355 . S
C876 C878 1.419 . S
C877 C872 1.425 . S
C877 C874 1.409 . S
C877 C875 1.415 . S
C878 H868 0.930 . S
C878 C876 1.419 . S
C878 C879 1.362 . S
C879 H869 0.930 . S
C879 C872 1.409 . S
C879 C878 1.362 . S
H880 C886 0.930 . S
H881 C889 0.930 . S
H882 C890 0.930 . S
H883 C891 0.930 . S
H884 C894 0.930 . S
H885 C895 0.930 . S
C886 H880 0.930 . S
C886 C887 1.355 . S
C886 C888 1.415 . S
C887 C886 1.355 . S
C887 C889 1.419 . S
C888 C886 1.415 . S
C888 C893 1.425 . S
C888 C895 1.409 . S
C889 H881 0.930 . S
C889 C887 1.419 . S
C889 C890 1.362 . S
C890 H882 0.930 . S
C890 C889 1.362 . S
C890 C893 1.409 . S
C891 H883 0.930 . S
C891 C892 1.355 . S
C891 C893 1.415 . S
C892 C891 1.355 . S
C892 C894 1.419 . S
C893 C888 1.425 . S
C893 C890 1.409 . S
C893 C891 1.415 . S
C894 H884 0.930 . S
C894 C892 1.419 . S
C894 C895 1.362 . S
C895 H885 0.930 . S
C895 C888 1.409 . S
C895 C894 1.362 . S
H896 C902 0.930 . S
H897 C905 0.930 . S
H898 C906 0.930 . S
H899 C907 0.930 . S
H900 C910 0.930 . S
H901 C911 0.930 . S
C902 H896 0.930 . S
C902 C903 1.355 . S
C902 C904 1.415 . S
C903 C902 1.355 . S
C903 C905 1.419 . S
C904 C902 1.415 . S
C904 C909 1.425 . S
C904 C911 1.409 . S
C905 H897 0.930 . S
C905 C903 1.419 . S
C905 C906 1.362 . S
C906 H898 0.930 . S
C906 C905 1.362 . S
C906 C909 1.409 . S
C907 H899 0.930 . S
C907 C908 1.355 . S
C907 C909 1.415 . S
C908 C907 1.355 . S
C908 C910 1.419 . S
C909 C904 1.425 . S
C909 C906 1.409 . S
C909 C907 1.415 . S
C910 H900 0.930 . S
C910 C908 1.419 . S
C910 C911 1.362 . S
C911 H901 0.930 . S
C911 C904 1.409 . S
C911 C910 1.362 . S
H912 C918 0.930 . S
H913 C921 0.930 . S
H914 C922 0.930 . S
H915 C923 0.930 . S
H916 C926 0.930 . S
H917 C927 0.930 . S
C918 H912 0.930 . S
C918 C919 1.355 . S
C918 C920 1.415 . S
C919 C918 1.355 . S
C919 C921 1.419 . S
C920 C918 1.415 . S
C920 C925 1.425 1_655 S
C920 C927 1.409 1_655 S
C921 H913 0.930 . S
C921 C919 1.419 . S
C921 C922 1.362 . S
C922 H914 0.930 . S
C922 C921 1.362 . S
C922 C925 1.409 1_655 S
C923 H915 0.930 . S
C923 C924 1.355 . S
C923 C925 1.415 . S
C924 C923 1.355 . S
C924 C926 1.419 . S
C925 C920 1.425 1_455 S
C925 C922 1.409 1_455 S
C925 C923 1.415 . S
C926 H916 0.930 . S
C926 C924 1.419 . S
C926 C927 1.362 . S
C927 H917 0.930 . S
C927 C920 1.409 1_455 S
C927 C926 1.362 . S
H928 C934 0.930 . S
H929 C937 0.930 . S
H930 C938 0.930 . S
H931 C939 0.930 . S
H932 C942 0.930 . S
H933 C943 0.930 . S
C934 H928 0.930 . S
C934 C935 1.355 . S
C934 C936 1.415 . S
C935 C934 1.355 . S
C935 C937 1.419 . S
C936 C934 1.415 . S
C936 C941 1.425 . S
C936 C943 1.409 . S
C937 H929 0.930 . S
C937 C935 1.419 . S
C937 C938 1.362 . S
C938 H930 0.930 . S
C938 C937 1.362 . S
C938 C941 1.409 . S
C939 H931 0.930 . S
C939 C940 1.355 . S
C939 C941 1.415 . S
C940 C939 1.355 . S
C940 C942 1.419 . S
C941 C936 1.425 . S
C941 C938 1.409 . S
C941 C939 1.415 . S
C942 H932 0.930 . S
C942 C940 1.419 . S
C942 C943 1.362 . S
C943 H933 0.930 . S
C943 C936 1.409 . S
C943 C942 1.362 . S
H944 C950 0.930 . S
H945 C953 0.930 . S
H946 C954 0.930 . S
H947 C955 0.930 . S
H948 C958 0.930 . S
H949 C959 0.930 . S
C950 H944 0.930 . S
C950 C951 1.355 . S
C950 C952 1.415 . S
C951 C950 1.355 . S
C951 C953 1.419 . S
C952 C950 1.415 . S
C952 C957 1.425 1_455 S
C952 C959 1.409 1_455 S
C953 H945 0.930 . S
C953 C951 1.419 . S
C953 C954 1.362 . S
C954 H946 0.930 . S
C954 C953 1.362 . S
C954 C957 1.409 1_455 S
C955 H947 0.930 . S
C955 C956 1.355 . S
C955 C957 1.415 . S
C956 C955 1.355 . S
C956 C958 1.419 . S
C957 C952 1.425 1_655 S
C957 C954 1.409 1_655 S
C957 C955 1.415 . S
C958 H948 0.930 . S
C958 C956 1.419 . S
C958 C959 1.362 . S
C959 H949 0.930 . S
C959 C952 1.409 1_655 S
C959 C958 1.362 . S
H960 C966 0.930 . S
H961 C969 0.930 . S
H962 C970 0.930 . S
H963 C971 0.930 . S
H964 C974 0.930 . S
H965 C975 0.930 . S
C966 H960 0.930 . S
C966 C967 1.355 1_554 S
C966 C968 1.415 . S
C967 C966 1.355 1_556 S
C967 C969 1.419 . S
C968 C966 1.415 . S
C968 C973 1.425 1_554 S
C968 C975 1.409 . S
C969 H961 0.930 . S
C969 C967 1.419 . S
C969 C970 1.362 . S
C970 H962 0.930 . S
C970 C969 1.362 . S
C970 C973 1.409 . S
C971 H963 0.930 . S
C971 C972 1.355 1_556 S
C971 C973 1.415 . S
C972 C971 1.355 1_554 S
C972 C974 1.419 . S
C973 C968 1.425 1_556 S
C973 C970 1.409 . S
C973 C971 1.415 . S
C974 H964 0.930 . S
C974 C972 1.419 . S
C974 C975 1.362 . S
C975 H965 0.930 . S
C975 C968 1.409 . S
C975 C974 1.362 . S
H976 C982 0.930 . S
H977 C985 0.930 . S
H978 C986 0.930 . S
H979 C987 0.930 . S
H980 C990 0.930 . S
H981 C991 0.930 . S
C982 H976 0.930 . S
C982 C983 1.355 . S
C982 C984 1.415 . S
C983 C982 1.355 . S
C983 C985 1.419 . S
C984 C982 1.415 . S
C984 C989 1.425 . S
C984 C991 1.409 . S
C985 H977 0.930 . S
C985 C983 1.419 . S
C985 C986 1.362 . S
C986 H978 0.930 . S
C986 C985 1.362 . S
C986 C989 1.409 . S
C987 H979 0.930 . S
C987 C988 1.355 . S
C987 C989 1.415 . S
C988 C987 1.355 . S
C988 C990 1.419 . S
C989 C984 1.425 . S
C989 C986 1.409 . S
C989 C987 1.415 . S
C990 H980 0.930 . S
C990 C988 1.419 . S
C990 C991 1.362 . S
C991 H981 0.930 . S
C991 C984 1.409 . S
C991 C990 1.362 . S
H992 C998 0.930 . S
H993 C1001 0.930 . S
H994 C1002 0.930 . S
H995 C1003 0.930 . S
H996 C1006 0.930 . S
H997 C1007 0.930 . S
C998 H992 0.930 . S
C998 C999 1.355 . S
C998 C1000 1.415 . S
C999 C998 1.355 . S
C999 C1001 1.419 . S
C1000 C998 1.415 . S
C1000 C1005 1.425 . S
C1000 C1007 1.409 . S
C1001 H993 0.930 . S
C1001 C999 1.419 . S
C1001 C1002 1.362 . S
C1002 H994 0.930 . S
C1002 C1001 1.362 . S
C1002 C1005 1.409 . S
C1003 H995 0.930 . S
C1003 C1004 1.355 . S
C1003 C1005 1.415 . S
C1004 C1003 1.355 . S
C1004 C1006 1.419 . S
C1005 C1000 1.425 . S
C1005 C1002 1.409 . S
C1005 C1003 1.415 . S
C1006 H996 0.930 . S
C1006 C1004 1.419 . S
C1006 C1007 1.362 . S
C1007 H997 0.930 . S
C1007 C1000 1.409 . S
C1007 C1006 1.362 . S
H1008 C1014 0.930 . S
H1009 C1017 0.930 . S
H1010 C1018 0.930 . S
H1011 C1019 0.930 . S
H1012 C1022 0.930 . S
H1013 C1023 0.930 . S
C1014 H1008 0.930 . S
C1014 C1015 1.355 . S
C1014 C1016 1.415 . S
C1015 C1014 1.355 . S
C1015 C1017 1.419 . S
C1016 C1014 1.415 . S
C1016 C1021 1.425 . S
C1016 C1023 1.409 . S
C1017 H1009 0.930 . S
C1017 C1015 1.419 . S
C1017 C1018 1.362 . S
C1018 H1010 0.930 . S
C1018 C1017 1.362 . S
C1018 C1021 1.409 . S
C1019 H1011 0.930 . S
C1019 C1020 1.355 . S
C1019 C1021 1.415 . S
C1020 C1019 1.355 . S
C1020 C1022 1.419 . S
C1021 C1016 1.425 . S
C1021 C1018 1.409 . S
C1021 C1019 1.415 . S
C1022 H1012 0.930 . S
C1022 C1020 1.419 . S
C1022 C1023 1.362 . S
C1023 H1013 0.930 . S
C1023 C1016 1.409 . S
C1023 C1022 1.362 . S
H1024 C1030 0.930 . S
H1025 C1033 0.930 . S
H1026 C1034 0.930 . S
H1027 C1035 0.930 . S
H1028 C1038 0.930 . S
H1029 C1039 0.930 . S
C1030 H1024 0.930 . S
C1030 C1031 1.355 . S
C1030 C1032 1.415 . S
C1031 C1030 1.355 . S
C1031 C1033 1.419 1_554 S
C1032 C1030 1.415 . S
C1032 C1037 1.425 1_554 S
C1032 C1039 1.409 . S
C1033 H1025 0.930 . S
C1033 C1031 1.419 1_556 S
C1033 C1034 1.362 . S
C1034 H1026 0.930 . S
C1034 C1033 1.362 . S
C1034 C1037 1.409 . S
C1035 H1027 0.930 . S
C1035 C1036 1.355 . S
C1035 C1037 1.415 . S
C1036 C1035 1.355 . S
C1036 C1038 1.419 1_556 S
C1037 C1032 1.425 1_556 S
C1037 C1034 1.409 . S
C1037 C1035 1.415 . S
C1038 H1028 0.930 . S
C1038 C1036 1.419 1_554 S
C1038 C1039 1.362 . S
C1039 H1029 0.930 . S
C1039 C1032 1.409 . S
C1039 C1038 1.362 . S
H1040 C1046 0.930 . S
H1041 C1049 0.930 . S
H1042 C1050 0.930 . S
H1043 C1051 0.930 . S
H1044 C1054 0.930 . S
H1045 C1055 0.930 . S
C1046 H1040 0.930 . S
C1046 C1047 1.355 . S
C1046 C1048 1.415 . S
C1047 C1046 1.355 . S
C1047 C1049 1.419 . S
C1048 C1046 1.415 . S
C1048 C1053 1.425 . S
C1048 C1055 1.409 . S
C1049 H1041 0.930 . S
C1049 C1047 1.419 . S
C1049 C1050 1.362 . S
C1050 H1042 0.930 . S
C1050 C1049 1.362 . S
C1050 C1053 1.409 . S
C1051 H1043 0.930 . S
C1051 C1052 1.355 . S
C1051 C1053 1.415 . S
C1052 C1051 1.355 . S
C1052 C1054 1.419 . S
C1053 C1048 1.425 . S
C1053 C1050 1.409 . S
C1053 C1051 1.415 . S
C1054 H1044 0.930 . S
C1054 C1052 1.419 . S
C1054 C1055 1.362 . S
C1055 H1045 0.930 . S
C1055 C1048 1.409 . S
C1055 C1054 1.362 . S
H1056 C1062 0.930 . S
H1057 C1065 0.930 . S
H1058 C1066 0.930 . S
H1059 C1067 0.930 . S
H1060 C1070 0.930 . S
H1061 C1071 0.930 . S
C1062 H1056 0.930 . S
C1062 C1063 1.355 . S
C1062 C1064 1.415 . S
C1063 C1062 1.355 . S
C1063 C1065 1.419 . S
C1064 C1062 1.415 . S
C1064 C1069 1.425 . S
C1064 C1071 1.409 . S
C1065 H1057 0.930 . S
C1065 C1063 1.419 . S
C1065 C1066 1.362 . S
C1066 H1058 0.930 . S
C1066 C1065 1.362 . S
C1066 C1069 1.409 . S
C1067 H1059 0.930 . S
C1067 C1068 1.355 . S
C1067 C1069 1.415 . S
C1068 C1067 1.355 . S
C1068 C1070 1.419 . S
C1069 C1064 1.425 . S
C1069 C1066 1.409 . S
C1069 C1067 1.415 . S
C1070 H1060 0.930 . S
C1070 C1068 1.419 . S
C1070 C1071 1.362 . S
C1071 H1061 0.930 . S
C1071 C1064 1.409 . S
C1071 C1070 1.362 . S
H1072 C1078 0.930 . S
H1073 C1081 0.930 . S
H1074 C1082 0.930 . S
H1075 C1083 0.930 . S
H1076 C1086 0.930 . S
H1077 C1087 0.930 . S
C1078 H1072 0.930 . S
C1078 C1079 1.355 . S
C1078 C1080 1.415 . S
C1079 C1078 1.355 . S
C1079 C1081 1.419 . S
C1080 C1078 1.415 . S
C1080 C1085 1.425 . S
C1080 C1087 1.409 . S
C1081 H1073 0.930 . S
C1081 C1079 1.419 . S
C1081 C1082 1.362 . S
C1082 H1074 0.930 . S
C1082 C1081 1.362 . S
C1082 C1085 1.409 . S
C1083 H1075 0.930 . S
C1083 C1084 1.355 . S
C1083 C1085 1.415 . S
C1084 C1083 1.355 . S
C1084 C1086 1.419 . S
C1085 C1080 1.425 . S
C1085 C1082 1.409 . S
C1085 C1083 1.415 . S
C1086 H1076 0.930 . S
C1086 C1084 1.419 . S
C1086 C1087 1.362 . S
C1087 H1077 0.930 . S
C1087 C1080 1.409 . S
C1087 C1086 1.362 . S
H1088 C1094 0.930 . S
H1089 C1097 0.930 . S
H1090 C1098 0.930 . S
H1091 C1099 0.930 . S
H1092 C1102 0.930 . S
H1093 C1103 0.930 . S
C1094 H1088 0.930 . S
C1094 C1095 1.355 . S
C1094 C1096 1.415 . S
C1095 C1094 1.355 . S
C1095 C1097 1.419 . S
C1096 C1094 1.415 . S
C1096 C1101 1.425 1_545 S
C1096 C1103 1.409 1_545 S
C1097 H1089 0.930 . S
C1097 C1095 1.419 . S
C1097 C1098 1.362 . S
C1098 H1090 0.930 . S
C1098 C1097 1.362 . S
C1098 C1101 1.409 1_545 S
C1099 H1091 0.930 . S
C1099 C1100 1.355 . S
C1099 C1101 1.415 . S
C1100 C1099 1.355 . S
C1100 C1102 1.419 . S
C1101 C1096 1.425 1_565 S
C1101 C1098 1.409 1_565 S
C1101 C1099 1.415 . S
C1102 H1092 0.930 . S
C1102 C1100 1.419 . S
C1102 C1103 1.362 . S
C1103 H1093 0.930 . S
C1103 C1096 1.409 1_565 S
C1103 C1102 1.362 . S
H1104 C1110 0.930 . S
H1105 C1113 0.930 . S
H1106 C1114 0.930 . S
H1107 C1115 0.930 . S
H1108 C1118 0.930 . S
H1109 C1119 0.930 . S
C1110 H1104 0.930 . S
C1110 C1111 1.355 . S
C1110 C1112 1.415 . S
C1111 C1110 1.355 . S
C1111 C1113 1.419 . S
C1112 C1110 1.415 . S
C1112 C1117 1.425 . S
C1112 C1119 1.409 . S
C1113 H1105 0.930 . S
C1113 C1111 1.419 . S
C1113 C1114 1.362 . S
C1114 H1106 0.930 . S
C1114 C1113 1.362 . S
C1114 C1117 1.409 . S
C1115 H1107 0.930 . S
C1115 C1116 1.355 . S
C1115 C1117 1.415 . S
C1116 C1115 1.355 . S
C1116 C1118 1.419 . S
C1117 C1112 1.425 . S
C1117 C1114 1.409 . S
C1117 C1115 1.415 . S
C1118 H1108 0.930 . S
C1118 C1116 1.419 . S
C1118 C1119 1.362 . S
C1119 H1109 0.930 . S
C1119 C1112 1.409 . S
C1119 C1118 1.362 . S
H1120 C1126 0.930 . S
H1121 C1129 0.930 . S
H1122 C1130 0.930 1_545 S
H1123 C1131 0.930 . S
H1124 C1134 0.930 . S
H1125 C1135 0.930 1_565 S
C1126 H1120 0.930 . S
C1126 C1127 1.355 1_556 S
C1126 C1128 1.415 . S
C1127 C1126 1.355 1_554 S
C1127 C1129 1.419 . S
C1128 C1126 1.415 . S
C1128 C1133 1.425 1_566 S
C1128 C1135 1.409 1_565 S
C1129 H1121 0.930 . S
C1129 C1127 1.419 . S
C1129 C1130 1.362 . S
C1130 H1122 0.930 1_565 S
C1130 C1129 1.362 . S
C1130 C1133 1.409 1_565 S
C1131 H1123 0.930 . S
C1131 C1132 1.355 1_554 S
C1131 C1133 1.415 . S
C1132 C1131 1.355 1_556 S
C1132 C1134 1.419 . S
C1133 C1128 1.425 1_544 S
C1133 C1130 1.409 1_545 S
C1133 C1131 1.415 . S
C1134 H1124 0.930 . S
C1134 C1132 1.419 . S
C1134 C1135 1.362 . S
C1135 H1125 0.930 1_545 S
C1135 C1128 1.409 1_545 S
C1135 C1134 1.362 . S
H1136 C1142 0.930 . S
H1137 C1145 0.930 . S
H1138 C1146 0.930 . S
H1139 C1147 0.930 . S
H1140 C1150 0.930 . S
H1141 C1151 0.930 . S
C1142 H1136 0.930 . S
C1142 C1143 1.355 . S
C1142 C1144 1.415 . S
C1143 C1142 1.355 . S
C1143 C1145 1.419 . S
C1144 C1142 1.415 . S
C1144 C1149 1.425 . S
C1144 C1151 1.409 . S
C1145 H1137 0.930 . S
C1145 C1143 1.419 . S
C1145 C1146 1.362 . S
C1146 H1138 0.930 . S
C1146 C1145 1.362 . S
C1146 C1149 1.409 . S
C1147 H1139 0.930 . S
C1147 C1148 1.355 . S
C1147 C1149 1.415 . S
C1148 C1147 1.355 . S
C1148 C1150 1.419 . S
C1149 C1144 1.425 . S
C1149 C1146 1.409 . S
C1149 C1147 1.415 . S
C1150 H1140 0.930 . S
C1150 C1148 1.419 . S
C1150 C1151 1.362 . S
C1151 H1141 0.930 . S
C1151 C1144 1.409 . S
C1151 C1150 1.362 . S
H1152 C1158 0.930 . S
H1153 C1161 0.930 . S
H1154 C1162 0.930 1_565 S
H1155 C1163 0.930 . S
H1156 C1166 0.930 . S
H1157 C1167 0.930 1_545 S
C1158 H1152 0.930 . S
C1158 C1159 1.355 . S
C1158 C1160 1.415 . S
C1159 C1158 1.355 . S
C1159 C1161 1.419 . S
C1160 C1158 1.415 . S
C1160 C1165 1.425 1_545 S
C1160 C1167 1.409 1_545 S
C1161 H1153 0.930 . S
C1161 C1159 1.419 . S
C1161 C1162 1.362 . S
C1162 H1154 0.930 1_545 S
C1162 C1161 1.362 . S
C1162 C1165 1.409 1_545 S
C1163 H1155 0.930 . S
C1163 C1164 1.355 . S
C1163 C1165 1.415 . S
C1164 C1163 1.355 . S
C1164 C1166 1.419 . S
C1165 C1160 1.425 1_565 S
C1165 C1162 1.409 1_565 S
C1165 C1163 1.415 . S
C1166 H1156 0.930 . S
C1166 C1164 1.419 . S
C1166 C1167 1.362 . S
C1167 H1157 0.930 1_565 S
C1167 C1160 1.409 1_565 S
C1167 C1166 1.362 . S
H1168 C1174 0.930 . S
H1169 C1177 0.930 . S
H1170 C1178 0.930 . S
H1171 C1179 0.930 . S
H1172 C1182 0.930 . S
H1173 C1183 0.930 . S
C1174 H1168 0.930 . S
C1174 C1175 1.355 . S
C1174 C1176 1.415 . S
C1175 C1174 1.355 . S
C1175 C1177 1.419 . S
C1176 C1174 1.415 . S
C1176 C1181 1.425 . S
C1176 C1183 1.409 . S
C1177 H1169 0.930 . S
C1177 C1175 1.419 . S
C1177 C1178 1.362 . S
C1178 H1170 0.930 . S
C1178 C1177 1.362 . S
C1178 C1181 1.409 . S
C1179 H1171 0.930 . S
C1179 C1180 1.355 . S
C1179 C1181 1.415 . S
C1180 C1179 1.355 . S
C1180 C1182 1.419 . S
C1181 C1176 1.425 . S
C1181 C1178 1.409 . S
C1181 C1179 1.415 . S
C1182 H1172 0.930 . S
C1182 C1180 1.419 . S
C1182 C1183 1.362 . S
C1183 H1173 0.930 . S
C1183 C1176 1.409 . S
C1183 C1182 1.362 . S
H1184 C1190 0.930 . S
H1185 C1193 0.930 . S
H1186 C1194 0.930 1_545 S
H1187 C1195 0.930 . S
H1188 C1198 0.930 . S
H1189 C1199 0.930 1_565 S
C1190 H1184 0.930 . S
C1190 C1191 1.355 1_556 S
C1190 C1192 1.415 . S
C1191 C1190 1.355 1_554 S
C1191 C1193 1.419 . S
C1192 C1190 1.415 . S
C1192 C1197 1.425 1_566 S
C1192 C1199 1.409 1_565 S
C1193 H1185 0.930 . S
C1193 C1191 1.419 . S
C1193 C1194 1.362 . S
C1194 H1186 0.930 1_565 S
C1194 C1193 1.362 . S
C1194 C1197 1.409 1_565 S
C1195 H1187 0.930 . S
C1195 C1196 1.355 1_554 S
C1195 C1197 1.415 . S
C1196 C1195 1.355 1_556 S
C1196 C1198 1.419 . S
C1197 C1192 1.425 1_544 S
C1197 C1194 1.409 1_545 S
C1197 C1195 1.415 . S
C1198 H1188 0.930 . S
C1198 C1196 1.419 . S
C1198 C1199 1.362 . S
C1199 H1189 0.930 1_545 S
C1199 C1192 1.409 1_545 S
C1199 C1198 1.362 . S
H1200 C1206 0.930 . S
H1201 C1209 0.930 . S
H1202 C1210 0.930 . S
H1203 C1211 0.930 . S
H1204 C1214 0.930 . S
H1205 C1215 0.930 . S
C1206 H1200 0.930 . S
C1206 C1207 1.355 . S
C1206 C1208 1.415 . S
C1207 C1206 1.355 . S
C1207 C1209 1.419 . S
C1208 C1206 1.415 . S
C1208 C1213 1.425 . S
C1208 C1215 1.409 . S
C1209 H1201 0.930 . S
C1209 C1207 1.419 . S
C1209 C1210 1.362 . S
C1210 H1202 0.930 . S
C1210 C1209 1.362 . S
C1210 C1213 1.409 . S
C1211 H1203 0.930 . S
C1211 C1212 1.355 . S
C1211 C1213 1.415 . S
C1212 C1211 1.355 . S
C1212 C1214 1.419 . S
C1213 C1208 1.425 . S
C1213 C1210 1.409 . S
C1213 C1211 1.415 . S
C1214 H1204 0.930 . S
C1214 C1212 1.419 . S
C1214 C1215 1.362 . S
C1215 H1205 0.930 . S
C1215 C1208 1.409 . S
C1215 C1214 1.362 . S
H1216 C1222 0.930 . S
H1217 C1225 0.930 . S
H1218 C1226 0.930 . S
H1219 C1227 0.930 . S
H1220 C1230 0.930 . S
H1221 C1231 0.930 . S
C1222 H1216 0.930 . S
C1222 C1223 1.355 . S
C1222 C1224 1.415 . S
C1223 C1222 1.355 . S
C1223 C1225 1.419 . S
C1224 C1222 1.415 . S
C1224 C1229 1.425 . S
C1224 C1231 1.409 . S
C1225 H1217 0.930 . S
C1225 C1223 1.419 . S
C1225 C1226 1.362 . S
C1226 H1218 0.930 . S
C1226 C1225 1.362 . S
C1226 C1229 1.409 . S
C1227 H1219 0.930 . S
C1227 C1228 1.355 . S
C1227 C1229 1.415 . S
C1228 C1227 1.355 . S
C1228 C1230 1.419 . S
C1229 C1224 1.425 . S
C1229 C1226 1.409 . S
C1229 C1227 1.415 . S
C1230 H1220 0.930 . S
C1230 C1228 1.419 . S
C1230 C1231 1.362 . S
C1231 H1221 0.930 . S
C1231 C1224 1.409 . S
C1231 C1230 1.362 . S
H1232 C1238 0.930 . S
H1233 C1241 0.930 . S
H1234 C1242 0.930 . S
H1235 C1243 0.930 . S
H1236 C1246 0.930 . S
H1237 C1247 0.930 . S
C1238 H1232 0.930 . S
C1238 C1239 1.355 . S
C1238 C1240 1.415 . S
C1239 C1238 1.355 . S
C1239 C1241 1.419 . S
C1240 C1238 1.415 . S
C1240 C1245 1.425 . S
C1240 C1247 1.409 . S
C1241 H1233 0.930 . S
C1241 C1239 1.419 . S
C1241 C1242 1.362 . S
C1242 H1234 0.930 . S
C1242 C1241 1.362 . S
C1242 C1245 1.409 . S
C1243 H1235 0.930 . S
C1243 C1244 1.355 . S
C1243 C1245 1.415 . S
C1244 C1243 1.355 . S
C1244 C1246 1.419 . S
C1245 C1240 1.425 . S
C1245 C1242 1.409 . S
C1245 C1243 1.415 . S
C1246 H1236 0.930 . S
C1246 C1244 1.419 . S
C1246 C1247 1.362 . S
C1247 H1237 0.930 . S
C1247 C1240 1.409 . S
C1247 C1246 1.362 . S
H1248 C1254 0.930 . S
H1249 C1257 0.930 . S
H1250 C1258 0.930 . S
H1251 C1259 0.930 . S
H1252 C1262 0.930 . S
H1253 C1263 0.930 . S
C1254 H1248 0.930 . S
C1254 C1255 1.355 . S
C1254 C1256 1.415 . S
C1255 C1254 1.355 . S
C1255 C1257 1.419 . S
C1256 C1254 1.415 . S
C1256 C1261 1.425 . S
C1256 C1263 1.409 . S
C1257 H1249 0.930 . S
C1257 C1255 1.419 . S
C1257 C1258 1.362 . S
C1258 H1250 0.930 . S
C1258 C1257 1.362 . S
C1258 C1261 1.409 . S
C1259 H1251 0.930 . S
C1259 C1260 1.355 . S
C1259 C1261 1.415 . S
C1260 C1259 1.355 . S
C1260 C1262 1.419 . S
C1261 C1256 1.425 . S
C1261 C1258 1.409 . S
C1261 C1259 1.415 . S
C1262 H1252 0.930 . S
C1262 C1260 1.419 . S
C1262 C1263 1.362 . S
C1263 H1253 0.930 . S
C1263 C1256 1.409 . S
C1263 C1262 1.362 . S
H1264 C1270 0.930 . S
H1265 C1273 0.930 . S
H1266 C1274 0.930 . S
H1267 C1275 0.930 . S
H1268 C1278 0.930 . S
H1269 C1279 0.930 . S
C1270 H1264 0.930 . S
C1270 C1271 1.355 . S
C1270 C1272 1.415 . S
C1271 C1270 1.355 . S
C1271 C1273 1.419 . S
C1272 C1270 1.415 . S
C1272 C1277 1.425 1_655 S
C1272 C1279 1.409 1_655 S
C1273 H1265 0.930 . S
C1273 C1271 1.419 . S
C1273 C1274 1.362 . S
C1274 H1266 0.930 . S
C1274 C1273 1.362 . S
C1274 C1277 1.409 1_655 S
C1275 H1267 0.930 . S
C1275 C1276 1.355 . S
C1275 C1277 1.415 . S
C1276 C1275 1.355 . S
C1276 C1278 1.419 . S
C1277 C1272 1.425 1_455 S
C1277 C1274 1.409 1_455 S
C1277 C1275 1.415 . S
C1278 H1268 0.930 . S
C1278 C1276 1.419 . S
C1278 C1279 1.362 . S
C1279 H1269 0.930 . S
C1279 C1272 1.409 1_455 S
C1279 C1278 1.362 . S
H1280 C1286 0.930 . S
H1281 C1289 0.930 . S
H1282 C1290 0.930 . S
H1283 C1291 0.930 . S
H1284 C1294 0.930 . S
H1285 C1295 0.930 . S
C1286 H1280 0.930 . S
C1286 C1287 1.355 . S
C1286 C1288 1.415 . S
C1287 C1286 1.355 . S
C1287 C1289 1.419 . S
C1288 C1286 1.415 . S
C1288 C1293 1.425 . S
C1288 C1295 1.409 . S
C1289 H1281 0.930 . S
C1289 C1287 1.419 . S
C1289 C1290 1.362 . S
C1290 H1282 0.930 . S
C1290 C1289 1.362 . S
C1290 C1293 1.409 . S
C1291 H1283 0.930 . S
C1291 C1292 1.355 . S
C1291 C1293 1.415 . S
C1292 C1291 1.355 . S
C1292 C1294 1.419 . S
C1293 C1288 1.425 . S
C1293 C1290 1.409 . S
C1293 C1291 1.415 . S
C1294 H1284 0.930 . S
C1294 C1292 1.419 . S
C1294 C1295 1.362 . S
C1295 H1285 0.930 . S
C1295 C1288 1.409 . S
C1295 C1294 1.362 . S
H1296 C1302 0.930 . S
H1297 C1305 0.930 . S
H1298 C1306 0.930 . S
H1299 C1307 0.930 . S
H1300 C1310 0.930 . S
H1301 C1311 0.930 . S
C1302 H1296 0.930 . S
C1302 C1303 1.355 . S
C1302 C1304 1.415 . S
C1303 C1302 1.355 . S
C1303 C1305 1.419 . S
C1304 C1302 1.415 . S
C1304 C1309 1.425 1_655 S
C1304 C1311 1.409 1_655 S
C1305 H1297 0.930 . S
C1305 C1303 1.419 . S
C1305 C1306 1.362 . S
C1306 H1298 0.930 . S
C1306 C1305 1.362 . S
C1306 C1309 1.409 1_655 S
C1307 H1299 0.930 . S
C1307 C1308 1.355 . S
C1307 C1309 1.415 . S
C1308 C1307 1.355 . S
C1308 C1310 1.419 . S
C1309 C1304 1.425 1_455 S
C1309 C1306 1.409 1_455 S
C1309 C1307 1.415 . S
C1310 H1300 0.930 . S
C1310 C1308 1.419 . S
C1310 C1311 1.362 . S
C1311 H1301 0.930 . S
C1311 C1304 1.409 1_455 S
C1311 C1310 1.362 . S
H1312 C1318 0.930 . S
H1313 C1321 0.930 . S
H1314 C1322 0.930 . S
H1315 C1323 0.930 . S
H1316 C1326 0.930 . S
H1317 C1327 0.930 . S
C1318 H1312 0.930 . S
C1318 C1319 1.355 . S
C1318 C1320 1.415 . S
C1319 C1318 1.355 . S
C1319 C1321 1.419 . S
C1320 C1318 1.415 . S
C1320 C1325 1.425 . S
C1320 C1327 1.409 . S
C1321 H1313 0.930 . S
C1321 C1319 1.419 . S
C1321 C1322 1.362 . S
C1322 H1314 0.930 . S
C1322 C1321 1.362 . S
C1322 C1325 1.409 . S
C1323 H1315 0.930 . S
C1323 C1324 1.355 . S
C1323 C1325 1.415 . S
C1324 C1323 1.355 . S
C1324 C1326 1.419 . S
C1325 C1320 1.425 . S
C1325 C1322 1.409 . S
C1325 C1323 1.415 . S
C1326 H1316 0.930 . S
C1326 C1324 1.419 . S
C1326 C1327 1.362 . S
C1327 H1317 0.930 . S
C1327 C1320 1.409 . S
C1327 C1326 1.362 . S
H1328 C1334 0.930 . S
H1329 C1337 0.930 . S
H1330 C1338 0.930 . S
H1331 C1339 0.930 . S
H1332 C1342 0.930 . S
H1333 C1343 0.930 . S
C1334 H1328 0.930 . S
C1334 C1335 1.355 . S
C1334 C1336 1.415 . S
C1335 C1334 1.355 . S
C1335 C1337 1.419 . S
C1336 C1334 1.415 . S
C1336 C1341 1.425 . S
C1336 C1343 1.409 . S
C1337 H1329 0.930 . S
C1337 C1335 1.419 . S
C1337 C1338 1.362 . S
C1338 H1330 0.930 . S
C1338 C1337 1.362 . S
C1338 C1341 1.409 . S
C1339 H1331 0.930 . S
C1339 C1340 1.355 . S
C1339 C1341 1.415 . S
C1340 C1339 1.355 . S
C1340 C1342 1.419 . S
C1341 C1336 1.425 . S
C1341 C1338 1.409 . S
C1341 C1339 1.415 . S
C1342 H1332 0.930 . S
C1342 C1340 1.419 . S
C1342 C1343 1.362 . S
C1343 H1333 0.930 . S
C1343 C1336 1.409 . S
C1343 C1342 1.362 . S
H1344 C1350 0.930 . S
H1345 C1353 0.930 . S
H1346 C1354 0.930 . S
H1347 C1355 0.930 . S
H1348 C1358 0.930 . S
H1349 C1359 0.930 . S
C1350 H1344 0.930 . S
C1350 C1351 1.355 . S
C1350 C1352 1.415 . S
C1351 C1350 1.355 . S
C1351 C1353 1.419 . S
C1352 C1350 1.415 . S
C1352 C1357 1.425 . S
C1352 C1359 1.409 . S
C1353 H1345 0.930 . S
C1353 C1351 1.419 . S
C1353 C1354 1.362 . S
C1354 H1346 0.930 . S
C1354 C1353 1.362 . S
C1354 C1357 1.409 . S
C1355 H1347 0.930 . S
C1355 C1356 1.355 . S
C1355 C1357 1.415 . S
C1356 C1355 1.355 . S
C1356 C1358 1.419 . S
C1357 C1352 1.425 . S
C1357 C1354 1.409 . S
C1357 C1355 1.415 . S
C1358 H1348 0.930 . S
C1358 C1356 1.419 . S
C1358 C1359 1.362 . S
C1359 H1349 0.930 . S
C1359 C1352 1.409 . S
C1359 C1358 1.362 . S
H1360 C1366 0.930 . S
H1361 C1369 0.930 . S
H1362 C1370 0.930 . S
H1363 C1371 0.930 . S
H1364 C1374 0.930 . S
H1365 C1375 0.930 . S
C1366 H1360 0.930 . S
C1366 C1367 1.355 . S
C1366 C1368 1.415 . S
C1367 C1366 1.355 . S
C1367 C1369 1.419 . S
C1368 C1366 1.415 . S
C1368 C1373 1.425 . S
C1368 C1375 1.409 . S
C1369 H1361 0.930 . S
C1369 C1367 1.419 . S
C1369 C1370 1.362 . S
C1370 H1362 0.930 . S
C1370 C1369 1.362 . S
C1370 C1373 1.409 . S
C1371 H1363 0.930 . S
C1371 C1372 1.355 . S
C1371 C1373 1.415 . S
C1372 C1371 1.355 . S
C1372 C1374 1.419 . S
C1373 C1368 1.425 . S
C1373 C1370 1.409 . S
C1373 C1371 1.415 . S
C1374 H1364 0.930 . S
C1374 C1372 1.419 . S
C1374 C1375 1.362 . S
C1375 H1365 0.930 . S
C1375 C1368 1.409 . S
C1375 C1374 1.362 . S
H1376 C1382 0.930 . S
H1377 C1385 0.930 . S
H1378 C1386 0.930 . S
H1379 C1387 0.930 . S
H1380 C1390 0.930 . S
H1381 C1391 0.886 1_556 S
C1382 H1376 0.930 . S
C1382 C1383 1.355 . S
C1382 C1384 1.415 . S
C1383 C1382 1.355 . S
C1383 C1385 1.419 . S
C1384 C1382 1.415 . S
C1384 C1389 1.425 . S
C1384 C1391 1.409 . S
C1385 H1377 0.930 . S
C1385 C1383 1.419 . S
C1385 C1386 1.362 . S
C1386 H1378 0.930 . S
C1386 C1385 1.362 . S
C1386 C1389 1.409 . S
C1387 H1379 0.930 . S
C1387 C1388 1.355 . S
C1387 C1389 1.415 . S
C1388 C1387 1.355 . S
C1388 C1390 1.419 . S
C1389 C1384 1.425 . S
C1389 C1386 1.409 . S
C1389 C1387 1.415 . S
C1390 H1380 0.930 . S
C1390 C1388 1.419 . S
C1390 C1391 1.362 . S
C1391 H1381 0.886 1_554 S
C1391 C1384 1.409 . S
C1391 C1390 1.362 . S
H1392 C1398 0.930 . S
H1393 C1401 0.930 . S
H1394 C1402 0.930 . S
H1395 C1403 0.930 . S
H1396 C1406 0.930 . S
H1397 C1407 0.930 . S
C1398 H1392 0.930 . S
C1398 C1399 1.355 . S
C1398 C1400 1.415 . S
C1399 C1398 1.355 . S
C1399 C1401 1.419 . S
C1400 C1398 1.415 . S
C1400 C1405 1.425 . S
C1400 C1407 1.409 . S
C1401 H1393 0.930 . S
C1401 C1399 1.419 . S
C1401 C1402 1.362 . S
C1402 H1394 0.930 . S
C1402 C1401 1.362 . S
C1402 C1405 1.409 . S
C1403 H1395 0.930 . S
C1403 C1404 1.355 . S
C1403 C1405 1.415 . S
C1404 C1403 1.355 . S
C1404 C1406 1.419 . S
C1405 C1400 1.425 . S
C1405 C1402 1.409 . S
C1405 C1403 1.415 . S
C1406 H1396 0.930 . S
C1406 C1404 1.419 . S
C1406 C1407 1.362 . S
C1407 H1397 0.930 . S
C1407 C1400 1.409 . S
C1407 C1406 1.362 . S
H1408 C1414 0.930 . S
H1409 C1417 0.930 . S
H1410 C1418 0.930 . S
H1411 C1419 0.930 . S
H1412 C1422 0.930 . S
H1413 C1423 0.930 . S
C1414 H1408 0.930 . S
C1414 C1415 1.355 . S
C1414 C1416 1.415 . S
C1415 C1414 1.355 . S
C1415 C1417 1.419 . S
C1416 C1414 1.415 . S
C1416 C1421 1.425 1_655 S
C1416 C1423 1.409 1_655 S
C1417 H1409 0.930 . S
C1417 C1415 1.419 . S
C1417 C1418 1.362 . S
C1418 H1410 0.930 . S
C1418 C1417 1.362 . S
C1418 C1421 1.409 1_655 S
C1419 H1411 0.930 . S
C1419 C1420 1.355 . S
C1419 C1421 1.415 . S
C1420 C1419 1.355 . S
C1420 C1422 1.419 . S
C1421 C1416 1.425 1_455 S
C1421 C1418 1.409 1_455 S
C1421 C1419 1.415 . S
C1422 H1412 0.930 . S
C1422 C1420 1.419 . S
C1422 C1423 1.362 . S
C1423 H1413 0.930 . S
C1423 C1416 1.409 1_455 S
C1423 C1422 1.362 . S
H1424 C1430 0.930 . S
H1425 C1433 0.930 . S
H1426 C1434 0.930 . S
H1427 C1435 0.930 . S
H1428 C1438 0.930 . S
H1429 C1439 0.930 . S
C1430 H1424 0.930 . S
C1430 C1431 1.355 . S
C1430 C1432 1.415 . S
C1431 C1430 1.355 . S
C1431 C1433 1.419 . S
C1432 C1430 1.415 . S
C1432 C1437 1.425 . S
C1432 C1439 1.409 . S
C1433 H1425 0.930 . S
C1433 C1431 1.419 . S
C1433 C1434 1.362 . S
C1434 H1426 0.930 . S
C1434 C1433 1.362 . S
C1434 C1437 1.409 . S
C1435 H1427 0.930 . S
C1435 C1436 1.355 . S
C1435 C1437 1.415 . S
C1436 C1435 1.355 . S
C1436 C1438 1.419 . S
C1437 C1432 1.425 . S
C1437 C1434 1.409 . S
C1437 C1435 1.415 . S
C1438 H1428 0.930 . S
C1438 C1436 1.419 . S
C1438 C1439 1.362 . S
C1439 H1429 0.930 . S
C1439 C1432 1.409 . S
C1439 C1438 1.362 . S
H1440 C1446 0.930 . S
H1441 C1449 0.930 . S
H1442 C1450 0.930 . S
H1443 C1451 0.930 . S
H1444 C1454 0.930 . S
H1445 C1455 0.930 . S
C1446 H1440 0.930 . S
C1446 C1447 1.355 . S
C1446 C1448 1.415 . S
C1447 C1446 1.355 . S
C1447 C1449 1.419 . S
C1448 C1446 1.415 . S
C1448 C1453 1.425 . S
C1448 C1455 1.409 . S
C1449 H1441 0.930 . S
C1449 C1447 1.419 . S
C1449 C1450 1.362 . S
C1450 H1442 0.930 . S
C1450 C1449 1.362 . S
C1450 C1453 1.409 . S
C1451 H1443 0.930 . S
C1451 C1452 1.355 . S
C1451 C1453 1.415 . S
C1452 C1451 1.355 . S
C1452 C1454 1.419 . S
C1453 C1448 1.425 . S
C1453 C1450 1.409 . S
C1453 C1451 1.415 . S
C1454 H1444 0.930 . S
C1454 C1452 1.419 . S
C1454 C1455 1.362 . S
C1455 H1445 0.930 . S
C1455 C1448 1.409 . S
C1455 C1454 1.362 . S
H1456 C1462 0.930 . S
H1457 C1465 0.930 . S
H1458 C1466 0.930 . S
H1459 C1467 0.930 . S
H1460 C1470 0.930 . S
H1461 C1471 0.930 . S
C1462 H1456 0.930 . S
C1462 C1463 1.355 . S
C1462 C1464 1.415 . S
C1463 C1462 1.355 . S
C1463 C1465 1.419 . S
C1464 C1462 1.415 . S
C1464 C1469 1.425 1_655 S
C1464 C1471 1.409 1_655 S
C1465 H1457 0.930 . S
C1465 C1463 1.419 . S
C1465 C1466 1.362 . S
C1466 H1458 0.930 . S
C1466 C1465 1.362 . S
C1466 C1469 1.409 1_655 S
C1467 H1459 0.930 . S
C1467 C1468 1.355 . S
C1467 C1469 1.415 . S
C1468 C1467 1.355 . S
C1468 C1470 1.419 . S
C1469 C1464 1.425 1_455 S
C1469 C1466 1.409 1_455 S
C1469 C1467 1.415 . S
C1470 H1460 0.930 . S
C1470 C1468 1.419 . S
C1470 C1471 1.362 . S
C1471 H1461 0.930 . S
C1471 C1464 1.409 1_455 S
C1471 C1470 1.362 . S
C455 C328 1.785 . S
C460 C7 1.746 . S
C471 C287 1.781 . S
C476 C20 1.715 . S
C487 C300 1.784 . S
C492 C35 1.723 . S
C503 C315 1.734 . S
C508 C48 1.786 . S
C519 C63 1.777 . S
C524 C244 1.707 . S
C535 C259 1.736 . S
C540 C76 1.693 . S
C551 C91 1.694 . S
C556 C272 1.729 . S
C567 C104 1.733 . S
C572 C231 1.693 . S
C583 C441 1.781 . S
C588 C119 1.714 . S
C599 C133 1.763 . S
C604 C399 1.778 . S
C615 C147 1.761 . S
C620 C413 1.779 . S
C631 C161 1.728 . S
C636 C427 1.695 . S
C647 C175 1.714 . S
C652 C357 1.702 . S
C663 C189 1.726 . S
C668 C371 1.785 . S
C679 C203 1.773 . S
C684 C385 1.703 . S
C695 C217 1.692 . S
C700 C343 1.738 . S
C711 C8 1.345 . S
C716 C176 1.324 . S
C727 C414 1.344 . S
C732 C23 1.326 . S
C743 C36 1.344 . S
C748 C204 1.325 . S
C759 C442 1.348 . S
C764 C51 1.321 . S
C775 C120 1.341 . S
C780 C64 1.328 . S
C791 C79 1.335 . S
C796 C358 1.334 . S
C807 C92 1.323 . S
C812 C148 1.346 . S
C823 C107 1.336 . S
C828 C386 1.333 . S
C839 C303 1.338 . S
C844 C134 1.332 . S
C855 C331 1.345 . S
C860 C162 1.325 . S
C871 C190 1.348 . S
C876 C247 1.322 . S
C887 C275 1.342 . S
C892 C218 1.327 . S
C903 C400 1.321 . S
C908 C232 1.348 . S
C919 C260 1.322 . S
C924 C428 1.347 . S
C935 C344 1.321 . S
C940 C288 1.348 . S
C951 C372 1.344 . S
C956 C316 1.325 . S
C967 C62 1.353 . S
C972 C6 1.346 . S
C983 C77 1.338 . S
C988 C21 1.355 . S
C999 C34 1.330 . S
C1004 C90 1.318 . S
C1015 C49 1.329 . S
C1020 C105 1.318 . S
C1031 C174 1.329 . S
C1036 C118 1.318 . S
C1047 C188 1.354 . S
C1052 C132 1.344 . S
C1063 C202 1.317 . S
C1068 C146 1.335 . S
C1079 C160 1.337 . S
C1084 C216 1.318 . S
C1095 C230 1.354 . S
C1100 C286 1.335 . S
C1111 C245 1.349 . S
C1116 C301 1.352 . S
C1127 C258 1.353 . S
C1132 C314 1.346 . S
C1143 C273 1.319 . S
C1148 C329 1.340 . S
C1159 C398 1.353 . S
C1164 C342 1.346 . S
C1175 C412 1.333 . S
C1180 C356 1.318 . S
C1191 C426 1.353 . S
C1196 C370 1.346 . S
C1207 C440 1.350 . S
C1212 C384 1.351 . S
C1223 C429 1.622 . S
C1228 C9 1.610 . S
C1239 C22 1.603 . S
C1244 C219 1.629 . S
C1255 C401 1.585 . S
C1260 C37 1.647 . S
C1271 C50 1.585 . S
C1276 C191 1.647 . S
C1287 C373 1.589 . S
C1292 C65 1.643 . S
C1303 C78 1.632 . S
C1308 C163 1.600 . S
C1319 C93 1.608 . S
C1324 C345 1.624 . S
C1335 C135 1.629 . S
C1340 C106 1.604 . S
C1351 C121 1.619 . S
C1356 C317 1.613 . S
C1367 C289 1.647 . S
C1372 C149 1.584 . S
C1383 C177 1.583 . S
C1388 C261 1.649 . S
C1399 C205 1.649 . S
C1404 C233 1.582 . S
C1415 C443 1.601 . S
C1420 C246 1.631 . S
C1431 C274 1.599 . S
C1436 C415 1.633 . S
C1447 C302 1.628 . S
C1452 C387 1.604 . S
C1463 C359 1.598 . S
C1468 C330 1.634 . S
