# Generated by pormake.
# Topology eci, (8)-cn, num edge types: 1
# Building blocks:
#     Node 0, Type 0, BuildingBlock: TAGTUT_clean_sbu_1, # of connection points: 8
#     Node 1, Type 0, BuildingBlock: TAGTUT_clean_sbu_1, # of connection points: 8
#     Node 2, Type 0, BuildingBlock: TAGTUT_clean_sbu_1, # of connection points: 8
#     Node 3, Type 0, BuildingBlock: TAGTUT_clean_sbu_1, # of connection points: 8
#     Edge 4, Type (0, 0), BuildingBlock: EZIPEK_clean_linker_0, # of connection points: 2
#     Edge 5, Type (0, 0), BuildingBlock: EZIPEK_clean_linker_0, # of connection points: 2
#     Edge 6, Type (0, 0), BuildingBlock: EZIPEK_clean_linker_0, # of connection points: 2
#     Edge 7, Type (0, 0), BuildingBlock: EZIPEK_clean_linker_0, # of connection points: 2
#     Edge 8, Type (0, 0), BuildingBlock: EZIPEK_clean_linker_0, # of connection points: 2
#     Edge 9, Type (0, 0), BuildingBlock: EZIPEK_clean_linker_0, # of connection points: 2
#     Edge 10, Type (0, 0), BuildingBlock: EZIPEK_clean_linker_0, # of connection points: 2
#     Edge 11, Type (0, 0), BuildingBlock: EZIPEK_clean_linker_0, # of connection points: 2
#     Edge 12, Type (0, 0), BuildingBlock: EZIPEK_clean_linker_0, # of connection points: 2
#     Edge 13, Type (0, 0), BuildingBlock: EZIPEK_clean_linker_0, # of connection points: 2
#     Edge 14, Type (0, 0), BuildingBlock: EZIPEK_clean_linker_0, # of connection points: 2
#     Edge 15, Type (0, 0), BuildingBlock: EZIPEK_clean_linker_0, # of connection points: 2
#     Edge 16, Type (0, 0), BuildingBlock: EZIPEK_clean_linker_0, # of connection points: 2
#     Edge 17, Type (0, 0), BuildingBlock: EZIPEK_clean_linker_0, # of connection points: 2
#     Edge 18, Type (0, 0), BuildingBlock: EZIPEK_clean_linker_0, # of connection points: 2
#     Edge 19, Type (0, 0), BuildingBlock: EZIPEK_clean_linker_0, # of connection points: 2
# Relax obj value: 0.215
# Max RMSD: 0.271
# Mean RMSD: 0.259
data_MOF--net-eci--node1-TAGTUT_clean_sbu_1--edge1-EZIPEK_clean_linker_0
_symmetry_space_group_name_H-M    P1
_symmetry_Int_Tables_number       1
_symmetry_cell_setting            triclinic
loop_
_symmetry_equiv_pos_as_xyz
'x, y, z'
_cell_length_a     21.693755
_cell_length_b     23.018509
_cell_length_c     14.774446
_cell_angle_alpha  94.800094
_cell_angle_beta   94.285444
_cell_angle_gamma 89.506083
loop_
_atom_site_label
_atom_site_type_symbol
_atom_site_fract_x
_atom_site_fract_y
_atom_site_fract_z
_atom_type_partial_charge
C0 C 0.83855 0.64793 0.17617 0.0
C1 C 0.8711 0.8259 0.30034 0.0
C2 C 0.71324 0.88923 0.01235 0.0
Mg3 Mg 0.91874 0.75224 0.14397 0.0
O4 O 0.84743 0.76394 0.06561 0.0
Mg5 Mg 0.76861 0.77456 0.12511 0.0
Mg6 Mg 0.84166 0.83253 -0.00446 0.0
O7 O 0.83598 0.90049 0.91963 0.0
Mg8 Mg 0.76686 0.89926 0.834 0.0
Mg9 Mg 0.92013 0.90064 0.87331 0.0
C10 C 0.987 0.78531 0.97162 0.0
C11 C 0.93597 0.93402 0.0926 0.0
O12 O 0.79124 0.6808 0.16166 0.0
O13 O 0.89386 0.66718 0.17793 0.0
O14 O 0.81848 0.81363 0.2587 0.0
O15 O 0.92045 0.80993 0.26435 0.0
O16 O 0.98741 0.76387 0.0491 0.0
O17 O 0.93727 0.80769 0.93349 0.0
C18 C 0.72406 0.74333 0.91518 0.0
O19 O 0.76937 0.77365 0.89063 0.0
O20 O 0.71871 0.73802 -0.00103 0.0
O21 O 0.88489 0.98873 0.81813 0.0
O22 O 0.78012 0.98644 0.8065 0.0
O23 O 0.89261 0.85767 0.7316 0.0
C24 C 0.83145 0.01194 0.79975 0.0
O25 O 0.79096 0.85188 0.70996 0.0
O26 O 0.70699 0.86565 0.93107 0.0
C27 C 0.84426 0.84275 0.68108 0.0
O28 O 0.75448 0.86716 0.06728 0.0
O29 O 0.90233 0.89003 0.1034 0.0
O30 O 0.94775 0.94687 0.01334 0.0
C31 C 0.71903 0.13945 0.03325 0.0
C32 C 0.67597 0.30445 0.92411 0.0
C33 C 0.79638 0.40494 0.21766 0.0
Mg34 Mg 0.62987 0.23896 0.07221 0.0
O35 O 0.69502 0.25615 0.15984 0.0
Mg36 Mg 0.77106 0.27435 0.10485 0.0
Mg37 Mg 0.6798 0.32772 0.23897 0.0
O38 O 0.65894 0.40161 0.32154 0.0
Mg39 Mg 0.73412 0.4306 0.39753 0.0
Mg40 Mg 0.57207 0.37352 0.36597 0.0
C41 C 0.56415 0.24881 0.25661 0.0
C42 C 0.55064 0.37417 0.14419 0.0
O43 O 0.76588 0.17346 0.0554 0.0
O44 O 0.66331 0.1573 0.02984 0.0
O45 O 0.72856 0.29714 0.96571 0.0
O46 O 0.62617 0.29201 0.95862 0.0
O47 O 0.56442 0.23492 0.17073 0.0
O48 O 0.60406 0.28403 0.2994 0.0
C49 C 0.80281 0.26631 0.32118 0.0
O50 O 0.75526 0.29605 0.34362 0.0
O51 O 0.81287 0.25474 0.23781 0.0
O52 O 0.63369 0.4537 0.36228 0.0
O53 O 0.6982 0.51969 0.41671 0.0
O54 O 0.6225 0.36134 0.50695 0.0
C55 C 0.64145 0.50588 0.40015 0.0
O56 O 0.7222 0.39012 0.52329 0.0
O57 O 0.80416 0.40044 0.30351 0.0
C58 C 0.6745 0.36804 0.55362 0.0
O59 O 0.75743 0.37174 0.169 0.0
O60 O 0.60522 0.35448 0.1357 0.0
O61 O 0.52903 0.38475 0.22213 0.0
C62 C 0.31693 0.23607 0.33014 0.0
C63 C 0.14757 0.20343 0.17986 0.0
C64 C 0.04007 0.32284 0.45973 0.0
Mg65 Mg 0.21165 0.1526 0.34756 0.0
O66 O 0.19194 0.2172 0.42452 0.0
Mg67 Mg 0.17929 0.29318 0.36787 0.0
Mg68 Mg 0.11634 0.2126 0.48783 0.0
O69 O 0.03968 0.2086 0.55463 0.0
Mg70 Mg 0.01713 0.27329 0.63515 0.0
Mg71 Mg 0.05289 0.13023 0.60368 0.0
C72 C 0.17804 0.08034 0.51132 0.0
C73 C 0.02952 0.10469 0.3849 0.0
O74 O 0.28074 0.28068 0.3315 0.0
O75 O 0.29968 0.1842 0.33945 0.0
O76 O 0.14854 0.25213 0.22722 0.0
O77 O 0.16722 0.15674 0.21257 0.0
O78 O 0.20193 0.08267 0.43493 0.0
O79 O 0.15171 0.12556 0.55094 0.0
C80 C 0.19581 0.33008 0.58134 0.0
O81 O 0.1645 0.28533 0.59992 0.0
O82 O 0.20781 0.33708 0.50031 0.0
O83 O 0.95383 0.14734 0.64529 0.0
O84 O 0.92539 0.24237 0.64798 0.0
O85 O 0.0877 0.16713 0.74521 0.0
C86 C 0.91375 0.18854 0.65528 0.0
O87 O 0.06338 0.26151 0.76703 0.0
O88 O 0.0525 0.33497 0.54509 0.0
C89 C 0.08623 0.21464 0.79568 0.0
O90 O 0.07993 0.29228 0.41692 0.0
O91 O 0.06513 0.14766 0.37384 0.0
O92 O 0.01874 0.09199 0.46461 0.0
C93 C 0.26046 0.85076 0.58539 0.0
C94 C 0.33817 0.70043 0.42759 0.0
C95 C 0.22797 0.57261 0.68547 0.0
Mg96 Mg 0.37564 0.77273 0.60966 0.0
O97 O 0.31887 0.72928 0.66534 0.0
Mg98 Mg 0.23971 0.70401 0.59657 0.0
Mg99 Mg 0.33967 0.65972 0.72969 0.0
O100 O 0.35842 0.5902 0.79842 0.0
Mg101 Mg 0.29568 0.56164 0.86696 0.0
Mg102 Mg 0.43882 0.61416 0.86462 0.0
C103 C 0.46668 0.74105 0.78353 0.0
C104 C 0.4655 0.59887 0.65036 0.0
O105 O 0.2274 0.80397 0.57475 0.0
O106 O 0.31923 0.84975 0.60257 0.0
O107 O 0.28788 0.68774 0.46146 0.0
O108 O 0.38049 0.73106 0.47314 0.0
O109 O 0.45457 0.76702 0.71039 0.0
O110 O 0.42577 0.70708 0.81126 0.0
C111 C 0.21073 0.71816 0.80685 0.0
O112 O 0.26436 0.69732 0.83099 0.0
O113 O 0.19317 0.72181 0.72375 0.0
O114 O 0.43764 0.51885 0.89874 0.0
O115 O 0.34206 0.47964 0.87937 0.0
O116 O 0.3961 0.63994 0.00225 0.0
C117 C 0.40064 0.47514 0.89658 0.0
O118 O 0.3 0.60651 0.00142 0.0
O119 O 0.22207 0.58713 0.76933 0.0
C120 C 0.34652 0.63355 0.04168 0.0
O121 O 0.25961 0.60647 0.6407 0.0
O122 O 0.4137 0.62421 0.63068 0.0
O123 O 0.48336 0.58927 0.73205 0.0
C124 C 0.92249 0.83176 0.46014 0.0
C125 C 0.87245 0.84662 0.39899 0.0
C126 C 0.80178 0.84469 0.51844 0.0
C127 C 0.85072 0.82934 0.58113 0.0
N128 N 0.95368 0.79003 0.60187 0.0
N129 N 0.77435 0.89517 0.38476 0.0
C130 C 0.91033 0.81798 0.54932 0.0
C131 C 0.81548 0.86275 0.43364 0.0
N132 N 0.98167 0.83531 0.43561 0.0
N133 N 0.74189 0.83543 0.53475 0.0
H134 H 0.78559 0.91108 0.324 0.0
H135 H 0.7335 0.91155 0.41011 0.0
H136 H 0.73117 0.80876 0.58464 0.0
H137 H 0.70471 0.84368 0.48865 0.0
H138 H 0.02044 0.82925 0.47981 0.0
H139 H -0.00807 0.85296 0.37576 0.0
H140 H -0.00374 0.77621 0.57967 0.0
H141 H 0.94364 0.77397 0.66311 0.0
C142 C 0.66706 0.29284 0.66542 0.0
C143 C 0.6781 0.35146 0.64855 0.0
C144 C 0.69355 0.37816 0.81276 0.0
C145 C 0.67442 0.32151 0.82962 0.0
N146 N 0.63982 0.22487 0.77252 0.0
N147 N 0.69131 0.45234 0.70579 0.0
C148 C 0.65984 0.27891 0.756 0.0
C149 C 0.68883 0.39482 0.72208 0.0
N150 N 0.66652 0.25004 0.59535 0.0
N151 N 0.71706 0.41588 0.883 0.0
H152 H 0.68711 0.46673 0.64052 0.0
H153 H 0.69184 0.48619 0.75729 0.0
H154 H 0.71927 0.40635 0.95095 0.0
H155 H 0.73823 0.4551 0.87322 0.0
H156 H 0.66567 0.20569 0.60439 0.0
H157 H 0.67297 0.25857 0.52849 0.0
H158 H 0.6216 0.19449 0.72156 0.0
H159 H 0.63775 0.21131 0.83778 0.0
C160 C 0.06407 0.17859 0.94479 0.0
C161 C 0.10202 0.21206 0.89403 0.0
C162 C 0.17223 0.23478 0.0292 0.0
C163 C 0.13251 0.20407 0.08105 0.0
N164 N 0.038 0.15227 0.09314 0.0
N165 N 0.188 0.27667 0.88734 0.0
C166 C 0.07795 0.17696 0.04007 0.0
C167 C 0.15481 0.24167 0.93618 0.0
N168 N 0.0145 0.14859 0.90184 0.0
N169 N 0.22787 0.25536 0.06822 0.0
H170 H 0.17889 0.27989 0.81763 0.0
H171 H 0.22228 0.30523 0.91642 0.0
H172 H 0.24209 0.2524 0.13659 0.0
H173 H 0.26224 0.27158 0.03184 0.0
H174 H 0.99068 0.11691 0.93138 0.0
H175 H -0.00162 0.15325 0.83461 0.0
H176 H -0.00598 0.13737 0.06992 0.0
H177 H 0.0471 0.15016 0.16309 0.0
C178 C 0.37546 0.6158 0.20484 0.0
C179 C 0.34598 0.65168 0.14043 0.0
C180 C 0.3189 0.72257 0.26462 0.0
C181 C 0.34389 0.68454 0.32908 0.0
N182 N 0.38999 0.59263 0.36264 0.0
N183 N 0.28321 0.73518 0.10755 0.0
C184 C 0.37076 0.63054 0.29976 0.0
C185 C 0.31579 0.70395 0.16995 0.0
N186 N 0.40833 0.56782 0.17515 0.0
N187 N 0.29955 0.77715 0.29405 0.0
H188 H 0.28169 0.7238 0.03755 0.0
H189 H 0.25426 0.76997 0.12505 0.0
H190 H 0.30133 0.79225 0.36274 0.0
H191 H 0.28651 0.8092 0.25068 0.0
H192 H 0.43668 0.54368 0.21806 0.0
H193 H 0.41044 0.55387 0.10643 0.0
H194 H 0.40285 0.54968 0.3457 0.0
H195 H 0.38915 0.60291 0.43267 0.0
C196 C 0.55814 0.70313 0.88415 0.0
C197 C 0.53391 0.74326 0.82283 0.0
C198 C 0.64114 0.76808 0.7952 0.0
C199 C 0.66507 0.72833 0.85626 0.0
N200 N 0.64475 0.64262 0.93127 0.0
N201 N 0.55677 0.83266 0.75685 0.0
C202 C 0.62269 0.69039 0.89052 0.0
C203 C 0.57669 0.78102 0.78806 0.0
N204 N 0.52195 0.68494 0.9475 0.0
N205 N 0.67979 0.79121 0.74009 0.0
H206 H 0.51228 0.84871 0.76531 0.0
H207 H 0.58651 0.86361 0.73662 0.0
H208 H 0.72413 0.77405 0.73501 0.0
H209 H 0.66467 0.81915 0.69115 0.0
H210 H 0.53825 0.65902 -0.00123 0.0
H211 H 0.47897 0.704 0.95727 0.0
H212 H 0.6159 0.61096 0.9518 0.0
H213 H 0.69181 0.63223 0.93501 0.0
C214 C 0.72892 0.04767 0.11068 0.0
C215 C 0.72485 0.07546 0.02769 0.0
C216 C 0.68427 0.9853 0.94662 0.0
C217 C 0.70408 0.95436 0.02293 0.0
N218 N 0.71153 0.95932 0.18594 0.0
N219 N 0.69383 0.07252 0.86742 0.0
C220 C 0.71677 0.98655 0.10817 0.0
C221 C 0.70134 0.04454 0.94571 0.0
N222 N 0.74136 0.08052 0.19158 0.0
N223 N 0.64366 0.96005 0.87997 0.0
H224 H 0.70694 0.1158 0.86435 0.0
H225 H 0.68 0.05164 0.80398 0.0
H226 H 0.62168 0.92076 0.88714 0.0
H227 H 0.62436 0.9816 0.82543 0.0
H228 H 0.74134 0.06501 0.25555 0.0
H229 H 0.75191 0.12478 0.19574 0.0
H230 H 0.7168 0.97968 0.25144 0.0
H231 H 0.69594 0.91647 0.18448 0.0
C232 C 0.42254 0.2724 0.38065 0.0
C233 C 0.38165 0.24163 0.31411 0.0
C234 C 0.46802 0.19244 0.246 0.0
C235 C 0.50789 0.23226 0.29817 0.0
N236 N 0.52794 0.27929 0.4474 0.0
N237 N 0.36528 0.17625 0.17713 0.0
C238 C 0.48694 0.26423 0.37523 0.0
C239 C 0.40434 0.20237 0.24516 0.0
N240 N 0.40017 0.30878 0.44844 0.0
N241 N 0.49164 0.1445 0.19968 0.0
H242 H 0.31771 0.18352 0.17255 0.0
H243 H 0.38088 0.15177 0.12075 0.0
H244 H 0.53891 0.13505 0.20504 0.0
H245 H 0.46417 0.11136 0.16585 0.0
H246 H 0.42819 0.33641 0.49298 0.0
H247 H 0.35317 0.31412 0.45687 0.0
H248 H 0.51542 0.29833 0.50982 0.0
H249 H 0.5736 0.26479 0.44773 0.0
C250 C 0.23952 0.95479 0.64617 0.0
C251 C 0.22982 0.9084 0.57633 0.0
C252 C 0.16275 0.97233 0.48921 0.0
C253 C 0.18193 0.02161 0.54894 0.0
N254 N 0.24061 0.0595 0.68561 0.0
N255 N 0.1877 0.8762 0.42453 0.0
C256 C 0.22009 0.01268 0.62886 0.0
C257 C 0.19224 0.91776 0.49656 0.0
N258 N 0.26628 0.94337 0.72948 0.0
N259 N 0.11557 0.97782 0.42488 0.0
H260 H 0.20972 0.83587 0.42479 0.0
H261 H 0.16687 0.88391 0.36076 0.0
H262 H 0.09316 0.01712 0.42035 0.0
H263 H 0.09457 0.94282 0.38525 0.0
H264 H 0.26906 0.97392 0.78573 0.0
H265 H 0.28053 0.90169 0.74472 0.0
H266 H 0.27478 0.05661 0.73845 0.0
H267 H 0.22552 0.10193 0.67701 0.0
C268 C 0.08533 0.81481 0.90278 0.0
C269 C 0.0437 0.77103 0.92212 0.0
C270 C 0.12587 0.69752 0.90311 0.0
C271 C 0.16449 0.73928 0.87179 0.0
N272 N 0.18116 0.83814 0.83838 0.0
N273 N 0.02089 0.66844 0.9205 0.0
C274 C 0.14426 0.79828 0.87133 0.0
C275 C 0.06313 0.71167 0.91613 0.0
N276 N 0.06931 0.87206 0.91646 0.0
N277 N 0.14951 0.64442 0.92164 0.0
H278 H 0.97393 0.67697 0.92618 0.0
H279 H 0.03118 0.62429 0.90855 0.0
H280 H 0.19638 0.6352 0.91838 0.0
H281 H 0.1249 0.61317 0.95111 0.0
H282 H 0.09989 0.90641 0.91397 0.0
H283 H 0.02574 0.88487 0.93521 0.0
H284 H 0.16668 0.87999 0.82485 0.0
H285 H 0.2261 0.82804 0.82142 0.0
C286 C 0.86263 0.48256 0.16681 0.0
C287 C 0.80415 0.46446 0.18987 0.0
C288 C 0.77182 0.5657 0.21399 0.0
C289 C 0.82816 0.58449 0.18288 0.0
N290 N 0.91539 0.55549 0.09427 0.0
N291 N 0.69605 0.48912 0.19725 0.0
C292 C 0.87069 0.5416 0.14921 0.0
C293 C 0.75624 0.50603 0.2007 0.0
N294 N 0.9102 0.44356 0.16034 0.0
N295 N 0.73425 0.60378 0.25999 0.0
H296 H 0.68259 0.446 0.18278 0.0
H297 H 0.65933 0.51865 0.19664 0.0
H298 H 0.74814 0.64561 0.28542 0.0
H299 H 0.6925 0.59137 0.28286 0.0
H300 H 0.95545 0.45625 0.15285 0.0
H301 H 0.90498 0.39924 0.16808 0.0
H302 H 0.94407 0.52425 0.06381 0.0
H303 H 0.91809 0.59583 0.06785 0.0
C304 C 0.9087 0.23289 0.3466 0.0
C305 C 0.85681 0.25762 0.38677 0.0
C306 C 0.92447 0.32482 0.48394 0.0
C307 C 0.97452 0.30671 0.43028 0.0
N308 N -0.0019 0.26493 0.2803 0.0
N309 N 0.81992 0.3043 0.52233 0.0
C310 C 0.96277 0.26605 0.35323 0.0
C311 C 0.86612 0.29662 0.46504 0.0
N312 N 0.90272 0.18296 0.29031 0.0
N313 N 0.93049 0.37253 0.54539 0.0
H314 H 0.7789 0.28069 0.50963 0.0
H315 H 0.825 0.32783 0.58576 0.0
H316 H 0.96918 0.39951 0.55134 0.0
H317 H 0.8943 0.38981 0.58167 0.0
H318 H 0.93967 0.16383 0.25756 0.0
H319 H 0.86142 0.15939 0.28285 0.0
H320 H 0.98759 0.23865 0.22029 0.0
H321 H 0.03077 0.29703 0.27377 0.0
C322 C 0.26764 0.41058 0.63174 0.0
C323 C 0.2116 0.38293 0.64556 0.0
C324 C 0.16677 0.47975 0.68525 0.0
C325 C 0.22115 0.50771 0.66046 0.0
N326 N 0.31593 0.49497 0.58366 0.0
N327 N 0.11562 0.38999 0.71467 0.0
C328 C 0.26998 0.4721 0.62755 0.0
C329 C 0.1635 0.41735 0.68154 0.0
N330 N 0.319 0.37694 0.62051 0.0
N331 N 0.11632 0.51305 0.70584 0.0
H332 H 0.11521 0.34497 0.71602 0.0
H333 H 0.08056 0.41114 0.74893 0.0
H334 H 0.11524 0.55824 0.70378 0.0
H335 H 0.07345 0.49609 0.7166 0.0
H336 H 0.36294 0.39449 0.6178 0.0
H337 H 0.31772 0.33176 0.62341 0.0
H338 H 0.34276 0.46834 0.54161 0.0
H339 H 0.32215 0.53897 0.57717 0.0
C340 C 0.94268 0.0424 0.30528 0.0
C341 C 0.00481 0.06281 0.30678 0.0
C342 C 0.02375 0.98786 0.18188 0.0
C343 C 0.96022 0.97346 0.1727 0.0
N344 N 0.85804 0.98744 0.22412 0.0
N345 N 0.10546 0.05212 0.24651 0.0
C346 C 0.91962 1.00013 0.23492 0.0
C347 C 0.04528 0.03525 0.24413 0.0
N348 N 0.90508 0.06401 0.37065 0.0
N349 N 0.06444 0.95276 0.1362 0.0
H350 H 0.12654 0.07898 0.29931 0.0
H351 H 0.13423 0.04073 0.1945 0.0
H352 H 0.05052 0.91525 0.09565 0.0
H353 H 0.11229 0.95634 0.14622 0.0
H354 H 0.86461 0.04386 0.38502 0.0
H355 H 0.91485 0.1016 0.41345 0.0
H356 H 0.82549 1.00667 0.26491 0.0
H357 H 0.83808 0.95953 0.17134 0.0
C358 C 0.6013 0.59441 0.49841 0.0
C359 C 0.59094 0.53931 0.44746 0.0
C360 C 0.49896 0.52548 0.52839 0.0
C361 C 0.5072 0.58031 0.57768 0.0
N362 N 0.55931 0.67284 0.59643 0.0
N363 N 0.50884 0.47629 0.38072 0.0
C364 C 0.55637 0.6167 0.55862 0.0
C365 C 0.53337 0.51177 0.45221 0.0
N366 N 0.65284 0.62617 0.4886 0.0
N367 N 0.46055 0.48513 0.556 0.0
H368 H 0.52749 0.47533 0.31767 0.0
H369 H 0.46554 0.45681 0.38041 0.0
H370 H 0.43851 0.49199 0.61637 0.0
H371 H 0.45688 0.44297 0.52412 0.0
H372 H 0.66808 0.6609 0.53426 0.0
H373 H 0.68015 0.61845 0.434 0.0
H374 H 0.59022 0.70375 0.5793 0.0
H375 H 0.52696 0.68982 0.6399 0.0
C376 C 0.85595 0.17269 0.78392 0.0
C377 C 0.85531 0.17167 0.6885 0.0
C378 C 0.81124 0.07487 0.6709 0.0
C379 C 0.82847 0.06967 0.76473 0.0
N380 N 0.85643 0.1154 0.91493 0.0
N381 N 0.81173 0.13317 0.54288 0.0
C382 C 0.84618 0.11967 0.82336 0.0
C383 C 0.82351 0.12735 0.63353 0.0
N384 N 0.87012 0.22355 0.83499 0.0
N385 N 0.78779 0.02952 0.6139 0.0
H386 H 0.82262 0.17158 0.51465 0.0
H387 H 0.79023 0.10062 0.49828 0.0
H388 H 0.77896 0.98823 0.63412 0.0
H389 H 0.77896 0.98823 0.63412 0.0
H390 H 0.86966 0.22891 0.90557 0.0
H391 H 0.87782 0.26177 0.80409 0.0
H392 H 0.87449 0.14892 0.96057 0.0
H393 H 0.84793 0.07719 0.94524 0.0
C394 C 0.44642 0.36642 0.05783 0.0
C395 C 0.51002 0.38224 0.06125 0.0
C396 C 0.49202 0.41415 0.90892 0.0
C397 C 0.42887 0.41977 0.92278 0.0
N398 N 0.34213 0.38565 -0.00403 0.0
N399 N 0.59168 0.42817 -0.01202 0.0
C400 C 0.40448 0.38987 -0.00822 0.0
C401 C 0.53326 0.40626 -0.01504 0.0
N402 N 0.42676 0.32828 0.1155 0.0
N403 N 0.51226 0.42389 0.82638 0.0
H404 H 0.62299 0.42875 0.04473 0.0
H405 H 0.60624 0.45235 0.93695 0.0
H406 H 0.48112 0.43234 0.77154 0.0
H407 H 0.55827 0.41804 0.81147 0.0
H408 H 0.38187 0.31208 0.11157 0.0
H409 H 0.45712 0.3079 0.16086 0.0
H410 H 0.32168 0.37211 0.05221 0.0
H411 H 0.31099 0.39534 0.94212 0.0
loop_
_geom_bond_atom_site_label_1
_geom_bond_atom_site_label_2
_geom_bond_distance
_geom_bond_site_symmetry_2
_ccdc_geom_bond_type
C0 O12 1.241 . S
C0 O13 1.280 . S
C1 O14 1.277 . S
C1 O15 1.245 . S
C2 O26 1.247 1_554 S
C2 O28 1.289 . S
Mg3 O4 1.926 . S
Mg3 O13 1.984 . S
Mg3 O15 1.988 . S
Mg3 O16 2.061 . S
O4 Mg3 1.926 . S
O4 Mg5 1.986 . S
O4 Mg6 1.917 . S
Mg5 O4 1.986 . S
Mg5 O12 2.042 . S
Mg5 O14 2.041 . S
Mg5 O20 2.038 . S
Mg5 O28 2.238 . S
Mg6 O4 1.917 . S
Mg6 O7 1.917 1_554 S
Mg6 O17 2.106 1_554 S
Mg6 O19 2.079 1_554 S
Mg6 O28 2.106 . S
Mg6 O29 2.079 . S
O7 Mg6 1.917 1_556 S
O7 Mg8 1.926 . S
O7 Mg9 1.986 . S
Mg8 O7 1.926 . S
Mg8 O22 1.984 1_565 S
Mg8 O25 1.988 . S
Mg8 O26 2.061 . S
Mg9 O7 1.986 . S
Mg9 O17 2.238 . S
Mg9 O21 2.042 . S
Mg9 O23 2.041 . S
Mg9 O30 2.038 1_556 S
C10 O16 1.247 1_556 S
C10 O17 1.289 . S
C11 O29 1.245 . S
C11 O30 1.274 . S
O12 C0 1.241 . S
O12 Mg5 2.042 . S
O13 C0 1.280 . S
O13 Mg3 1.984 . S
O14 C1 1.277 . S
O14 Mg5 2.041 . S
O15 C1 1.245 . S
O15 Mg3 1.988 . S
O16 Mg3 2.061 . S
O16 C10 1.247 1_554 S
O17 Mg6 2.106 1_556 S
O17 Mg9 2.238 . S
O17 C10 1.289 . S
C18 O19 1.245 . S
C18 O20 1.274 1_556 S
O19 Mg6 2.079 1_556 S
O19 C18 1.245 . S
O20 Mg5 2.038 . S
O20 C18 1.274 1_554 S
O21 Mg9 2.042 . S
O21 C24 1.241 1_565 S
O22 Mg8 1.984 1_545 S
O22 C24 1.280 . S
O23 Mg9 2.041 . S
O23 C27 1.277 . S
C24 O21 1.241 1_545 S
C24 O22 1.280 . S
O25 Mg8 1.988 . S
O25 C27 1.245 . S
O26 C2 1.247 1_556 S
O26 Mg8 2.061 . S
C27 O23 1.277 . S
C27 O25 1.245 . S
O28 C2 1.289 . S
O28 Mg5 2.238 . S
O28 Mg6 2.106 . S
O29 Mg6 2.079 . S
O29 C11 1.245 . S
O30 Mg9 2.038 1_554 S
O30 C11 1.274 . S
C31 O43 1.241 . S
C31 O44 1.280 . S
C32 O45 1.277 1_556 S
C32 O46 1.245 . S
C33 O57 1.247 . S
C33 O59 1.289 . S
Mg34 O35 1.926 . S
Mg34 O44 1.984 . S
Mg34 O46 1.988 1_554 S
Mg34 O47 2.061 . S
O35 Mg34 1.926 . S
O35 Mg36 1.986 . S
O35 Mg37 1.917 . S
Mg36 O35 1.986 . S
Mg36 O43 2.042 . S
Mg36 O45 2.041 . S
Mg36 O51 2.038 . S
Mg36 O59 2.238 . S
Mg37 O35 1.917 . S
Mg37 O38 1.917 . S
Mg37 O48 2.106 . S
Mg37 O50 2.079 . S
Mg37 O59 2.106 . S
Mg37 O60 2.079 . S
O38 Mg37 1.917 . S
O38 Mg39 1.926 . S
O38 Mg40 1.986 . S
Mg39 O38 1.926 . S
Mg39 O53 1.984 . S
Mg39 O56 1.988 . S
Mg39 O57 2.061 . S
Mg40 O38 1.986 . S
Mg40 O48 2.238 . S
Mg40 O52 2.042 . S
Mg40 O54 2.041 . S
Mg40 O61 2.038 . S
C41 O47 1.247 . S
C41 O48 1.289 . S
C42 O60 1.245 . S
C42 O61 1.274 . S
O43 C31 1.241 . S
O43 Mg36 2.042 . S
O44 C31 1.280 . S
O44 Mg34 1.984 . S
O45 C32 1.277 1_554 S
O45 Mg36 2.041 . S
O46 C32 1.245 . S
O46 Mg34 1.988 1_556 S
O47 Mg34 2.061 . S
O47 C41 1.247 . S
O48 Mg37 2.106 . S
O48 Mg40 2.238 . S
O48 C41 1.289 . S
C49 O50 1.245 . S
C49 O51 1.274 . S
O50 Mg37 2.079 . S
O50 C49 1.245 . S
O51 Mg36 2.038 . S
O51 C49 1.274 . S
O52 Mg40 2.042 . S
O52 C55 1.241 . S
O53 Mg39 1.984 . S
O53 C55 1.280 . S
O54 Mg40 2.041 . S
O54 C58 1.277 . S
C55 O52 1.241 . S
C55 O53 1.280 . S
O56 Mg39 1.988 . S
O56 C58 1.245 . S
O57 C33 1.247 . S
O57 Mg39 2.061 . S
C58 O54 1.277 . S
C58 O56 1.245 . S
O59 C33 1.289 . S
O59 Mg36 2.238 . S
O59 Mg37 2.106 . S
O60 Mg37 2.079 . S
O60 C42 1.245 . S
O61 Mg40 2.038 . S
O61 C42 1.274 . S
C62 O74 1.241 . S
C62 O75 1.280 . S
C63 O76 1.277 . S
C63 O77 1.245 . S
C64 O88 1.247 . S
C64 O90 1.289 . S
Mg65 O66 1.926 . S
Mg65 O75 1.984 . S
Mg65 O77 1.988 . S
Mg65 O78 2.061 . S
O66 Mg65 1.926 . S
O66 Mg67 1.986 . S
O66 Mg68 1.917 . S
Mg67 O66 1.986 . S
Mg67 O74 2.042 . S
Mg67 O76 2.041 . S
Mg67 O82 2.038 . S
Mg67 O90 2.238 . S
Mg68 O66 1.917 . S
Mg68 O69 1.917 . S
Mg68 O79 2.106 . S
Mg68 O81 2.079 . S
Mg68 O90 2.106 . S
Mg68 O91 2.079 . S
O69 Mg68 1.917 . S
O69 Mg70 1.926 . S
O69 Mg71 1.986 . S
Mg70 O69 1.926 . S
Mg70 O84 1.984 1_455 S
Mg70 O87 1.988 . S
Mg70 O88 2.061 . S
Mg71 O69 1.986 . S
Mg71 O79 2.238 . S
Mg71 O83 2.042 . S
Mg71 O85 2.041 . S
Mg71 O92 2.038 . S
C72 O78 1.247 . S
C72 O79 1.289 . S
C73 O91 1.245 . S
C73 O92 1.274 . S
O74 C62 1.241 . S
O74 Mg67 2.042 . S
O75 C62 1.280 . S
O75 Mg65 1.984 . S
O76 C63 1.277 . S
O76 Mg67 2.041 . S
O77 C63 1.245 . S
O77 Mg65 1.988 . S
O78 Mg65 2.061 . S
O78 C72 1.247 . S
O79 Mg68 2.106 . S
O79 Mg71 2.238 . S
O79 C72 1.289 . S
C80 O81 1.245 . S
C80 O82 1.274 . S
O81 Mg68 2.079 . S
O81 C80 1.245 . S
O82 Mg67 2.038 . S
O82 C80 1.274 . S
O83 Mg71 2.042 . S
O83 C86 1.241 1_455 S
O84 Mg70 1.984 1_655 S
O84 C86 1.280 . S
O85 Mg71 2.041 . S
O85 C89 1.277 . S
C86 O83 1.241 1_655 S
C86 O84 1.280 . S
O87 Mg70 1.988 . S
O87 C89 1.245 . S
O88 C64 1.247 . S
O88 Mg70 2.061 . S
C89 O85 1.277 . S
C89 O87 1.245 . S
O90 C64 1.289 . S
O90 Mg67 2.238 . S
O90 Mg68 2.106 . S
O91 Mg68 2.079 . S
O91 C73 1.245 . S
O92 Mg71 2.038 . S
O92 C73 1.274 . S
C93 O105 1.241 . S
C93 O106 1.280 . S
C94 O107 1.277 . S
C94 O108 1.245 . S
C95 O119 1.247 . S
C95 O121 1.289 . S
Mg96 O97 1.926 . S
Mg96 O106 1.984 . S
Mg96 O108 1.988 . S
Mg96 O109 2.061 . S
O97 Mg96 1.926 . S
O97 Mg98 1.986 . S
O97 Mg99 1.917 . S
Mg98 O97 1.986 . S
Mg98 O105 2.042 . S
Mg98 O107 2.041 . S
Mg98 O113 2.038 . S
Mg98 O121 2.238 . S
Mg99 O97 1.917 . S
Mg99 O100 1.917 . S
Mg99 O110 2.106 . S
Mg99 O112 2.079 . S
Mg99 O121 2.106 . S
Mg99 O122 2.079 . S
O100 Mg99 1.917 . S
O100 Mg101 1.926 . S
O100 Mg102 1.986 . S
Mg101 O100 1.926 . S
Mg101 O115 1.984 . S
Mg101 O118 1.988 1_556 S
Mg101 O119 2.061 . S
Mg102 O100 1.986 . S
Mg102 O110 2.238 . S
Mg102 O114 2.042 . S
Mg102 O116 2.041 1_556 S
Mg102 O123 2.038 . S
C103 O109 1.247 . S
C103 O110 1.289 . S
C104 O122 1.245 . S
C104 O123 1.274 . S
O105 C93 1.241 . S
O105 Mg98 2.042 . S
O106 C93 1.280 . S
O106 Mg96 1.984 . S
O107 C94 1.277 . S
O107 Mg98 2.041 . S
O108 C94 1.245 . S
O108 Mg96 1.988 . S
O109 Mg96 2.061 . S
O109 C103 1.247 . S
O110 Mg99 2.106 . S
O110 Mg102 2.238 . S
O110 C103 1.289 . S
C111 O112 1.245 . S
C111 O113 1.274 . S
O112 Mg99 2.079 . S
O112 C111 1.245 . S
O113 Mg98 2.038 . S
O113 C111 1.274 . S
O114 Mg102 2.042 . S
O114 C117 1.241 . S
O115 Mg101 1.984 . S
O115 C117 1.280 . S
O116 Mg102 2.041 1_554 S
O116 C120 1.277 . S
C117 O114 1.241 . S
C117 O115 1.280 . S
O118 Mg101 1.988 1_554 S
O118 C120 1.245 . S
O119 C95 1.247 . S
O119 Mg101 2.061 . S
C120 O116 1.277 . S
C120 O118 1.245 . S
O121 C95 1.289 . S
O121 Mg98 2.238 . S
O121 Mg99 2.106 . S
O122 Mg99 2.079 . S
O122 C104 1.245 . S
O123 Mg102 2.038 . S
O123 C104 1.274 . S
C124 C125 1.363 . S
C124 C130 1.379 . S
C124 N132 1.356 . S
C125 C124 1.363 . S
C125 C131 1.363 . S
C126 C127 1.363 . S
C126 C131 1.379 . S
C126 N133 1.356 . S
C127 C126 1.363 . S
C127 C130 1.363 . S
N128 C130 1.356 . S
N128 H140 0.984 . S
N128 H141 0.985 . S
N129 C131 1.356 . S
N129 H134 0.984 . S
N129 H135 0.985 . S
C130 C124 1.379 . S
C130 C127 1.363 . S
C130 N128 1.356 . S
C131 C125 1.363 . S
C131 C126 1.379 . S
C131 N129 1.356 . S
N132 C124 1.356 . S
N132 H138 0.984 . S
N132 H139 0.984 . S
N133 C126 1.356 . S
N133 H136 0.984 . S
N133 H137 0.985 . S
H134 N129 0.984 . S
H135 N129 0.985 . S
H136 N133 0.984 . S
H137 N133 0.985 . S
H138 N132 0.984 . S
H139 N132 0.984 . S
H140 N128 0.984 . S
H141 N128 0.985 . S
C142 C143 1.363 . S
C142 C148 1.379 . S
C142 N150 1.356 . S
C143 C142 1.363 . S
C143 C149 1.363 . S
C144 C145 1.363 . S
C144 C149 1.379 . S
C144 N151 1.356 . S
C145 C144 1.363 . S
C145 C148 1.363 . S
N146 C148 1.356 . S
N146 H158 0.984 . S
N146 H159 0.985 . S
N147 C149 1.356 . S
N147 H152 0.984 . S
N147 H153 0.985 . S
C148 C142 1.379 . S
C148 C145 1.363 . S
C148 N146 1.356 . S
C149 C143 1.363 . S
C149 C144 1.379 . S
C149 N147 1.356 . S
N150 C142 1.356 . S
N150 H156 0.984 . S
N150 H157 0.984 . S
N151 C144 1.356 . S
N151 H154 0.984 . S
N151 H155 0.985 . S
H152 N147 0.984 . S
H153 N147 0.985 . S
H154 N151 0.984 . S
H155 N151 0.985 . S
H156 N150 0.984 . S
H157 N150 0.984 . S
H158 N146 0.984 . S
H159 N146 0.985 . S
C160 C161 1.363 . S
C160 C166 1.379 1_556 S
C160 N168 1.356 . S
C161 C160 1.363 . S
C161 C167 1.363 . S
C162 C163 1.363 . S
C162 C167 1.379 1_554 S
C162 N169 1.356 . S
C163 C162 1.363 . S
C163 C166 1.363 . S
N164 C166 1.356 . S
N164 H176 0.984 . S
N164 H177 0.985 . S
N165 C167 1.356 . S
N165 H170 0.984 . S
N165 H171 0.985 . S
C166 C160 1.379 1_554 S
C166 C163 1.363 . S
C166 N164 1.356 . S
C167 C161 1.363 . S
C167 C162 1.379 1_556 S
C167 N165 1.356 . S
N168 C160 1.356 . S
N168 H174 0.984 . S
N168 H175 0.984 . S
N169 C162 1.356 . S
N169 H172 0.984 . S
N169 H173 0.985 . S
H170 N165 0.984 . S
H171 N165 0.985 . S
H172 N169 0.984 . S
H173 N169 0.985 . S
H174 N168 0.984 . S
H175 N168 0.984 . S
H176 N164 0.984 . S
H177 N164 0.985 . S
C178 C179 1.363 . S
C178 C184 1.379 . S
C178 N186 1.356 . S
C179 C178 1.363 . S
C179 C185 1.363 . S
C180 C181 1.363 . S
C180 C185 1.379 . S
C180 N187 1.356 . S
C181 C180 1.363 . S
C181 C184 1.363 . S
N182 C184 1.356 . S
N182 H194 0.984 . S
N182 H195 0.985 . S
N183 C185 1.356 . S
N183 H188 0.984 . S
N183 H189 0.985 . S
C184 C178 1.379 . S
C184 C181 1.363 . S
C184 N182 1.356 . S
C185 C179 1.363 . S
C185 C180 1.379 . S
C185 N183 1.356 . S
N186 C178 1.356 . S
N186 H192 0.984 . S
N186 H193 0.984 . S
N187 C180 1.356 . S
N187 H190 0.984 . S
N187 H191 0.985 . S
H188 N183 0.984 . S
H189 N183 0.985 . S
H190 N187 0.984 . S
H191 N187 0.985 . S
H192 N186 0.984 . S
H193 N186 0.984 . S
H194 N182 0.984 . S
H195 N182 0.985 . S
C196 C197 1.363 . S
C196 C202 1.379 . S
C196 N204 1.359 . S
C197 C196 1.363 . S
C197 C203 1.363 . S
C198 C199 1.363 . S
C198 C203 1.379 . S
C198 N205 1.356 . S
C199 C198 1.363 . S
C199 C202 1.363 . S
N200 C202 1.356 1_554 S
N200 H212 0.984 . S
N200 H213 0.985 . S
N201 C203 1.356 . S
N201 H206 0.984 . S
N201 H207 0.985 . S
C202 C196 1.379 . S
C202 C199 1.363 . S
C202 N200 1.356 1_556 S
C203 C197 1.363 . S
C203 C198 1.379 . S
C203 N201 1.356 . S
N204 C196 1.359 . S
N204 H210 0.981 1_556 S
N204 H211 0.986 . S
N205 C198 1.356 . S
N205 H208 0.984 . S
N205 H209 0.985 . S
H206 N201 0.984 . S
H207 N201 0.985 . S
H208 N205 0.984 . S
H209 N205 0.985 . S
H210 N204 0.981 1_554 S
H211 N204 0.986 . S
H212 N200 0.984 . S
H213 N200 0.985 . S
C214 C215 1.363 . S
C214 C220 1.379 . S
C214 N222 1.356 . S
C215 C214 1.363 . S
C215 C221 1.363 . S
C216 C217 1.363 . S
C216 C221 1.379 . S
C216 N223 1.356 1_544 S
C217 C216 1.363 . S
C217 C220 1.363 . S
N218 C220 1.356 1_565 S
N218 H230 0.982 1_565 S
N218 H231 0.985 . S
N219 C221 1.356 1_556 S
N219 H224 0.984 . S
N219 H225 0.985 . S
C220 C214 1.379 . S
C220 C217 1.363 . S
C220 N218 1.356 1_545 S
C221 C215 1.363 . S
C221 C216 1.379 . S
C221 N219 1.356 1_554 S
N222 C214 1.356 . S
N222 H228 0.984 . S
N222 H229 0.984 . S
N223 C216 1.356 1_566 S
N223 H226 0.984 . S
N223 H227 0.985 . S
H224 N219 0.984 . S
H225 N219 0.985 . S
H226 N223 0.984 . S
H227 N223 0.985 . S
H228 N222 0.984 . S
H229 N222 0.984 . S
H230 N218 0.982 1_545 S
H231 N218 0.985 . S
C232 C233 1.363 . S
C232 C238 1.379 . S
C232 N240 1.356 . S
C233 C232 1.363 . S
C233 C239 1.363 . S
C234 C235 1.363 . S
C234 C239 1.379 . S
C234 N241 1.356 . S
C235 C234 1.363 . S
C235 C238 1.363 . S
N236 C238 1.356 . S
N236 H248 0.984 . S
N236 H249 0.985 . S
N237 C239 1.356 . S
N237 H242 0.984 . S
N237 H243 0.985 . S
C238 C232 1.379 . S
C238 C235 1.363 . S
C238 N236 1.356 . S
C239 C233 1.363 . S
C239 C234 1.379 . S
C239 N237 1.356 . S
N240 C232 1.356 . S
N240 H246 0.984 . S
N240 H247 0.984 . S
N241 C234 1.356 . S
N241 H244 0.984 . S
N241 H245 0.985 . S
H242 N237 0.984 . S
H243 N237 0.985 . S
H244 N241 0.984 . S
H245 N241 0.985 . S
H246 N240 0.984 . S
H247 N240 0.984 . S
H248 N236 0.984 . S
H249 N236 0.985 . S
C250 C251 1.363 . S
C250 C256 1.379 . S
C250 N258 1.356 . S
C251 C250 1.363 . S
C251 C257 1.363 . S
C252 C253 1.363 1_565 S
C252 C257 1.379 . S
C252 N259 1.356 1_565 S
C253 C252 1.363 1_545 S
C253 C256 1.363 1_545 S
N254 C256 1.356 1_545 S
N254 H266 0.984 . S
N254 H267 0.985 . S
N255 C257 1.356 . S
N255 H260 0.984 . S
N255 H261 0.985 . S
C256 C250 1.379 . S
C256 C253 1.363 1_565 S
C256 N254 1.356 1_565 S
C257 C251 1.363 . S
C257 C252 1.379 . S
C257 N255 1.356 . S
N258 C250 1.356 . S
N258 H264 0.984 . S
N258 H265 0.984 . S
N259 C252 1.356 1_545 S
N259 H262 0.984 . S
N259 H263 0.985 . S
H260 N255 0.984 . S
H261 N255 0.985 . S
H262 N259 0.984 . S
H263 N259 0.985 . S
H264 N258 0.984 . S
H265 N258 0.984 . S
H266 N254 0.984 . S
H267 N254 0.985 . S
C268 C269 1.363 . S
C268 C274 1.379 . S
C268 N276 1.356 1_455 S
C269 C268 1.363 . S
C269 C275 1.363 . S
C270 C271 1.363 . S
C270 C275 1.379 . S
C270 N277 1.356 1_556 S
C271 C270 1.363 . S
C271 C274 1.363 . S
N272 C274 1.356 . S
N272 H284 0.984 . S
N272 H285 0.985 . S
N273 C275 1.356 1_554 S
N273 H278 0.984 1_455 S
N273 H279 0.985 . S
C274 C268 1.379 . S
C274 C271 1.363 . S
C274 N272 1.356 . S
C275 C269 1.363 . S
C275 C270 1.379 . S
C275 N273 1.356 1_556 S
N276 C268 1.356 1_655 S
N276 H282 0.985 . S
N276 H283 0.984 . S
N277 C270 1.356 1_554 S
N277 H280 0.984 1_554 S
N277 H281 0.985 . S
H278 N273 0.984 1_655 S
H279 N273 0.985 . S
H280 N277 0.984 1_556 S
H281 N277 0.985 . S
H282 N276 0.985 . S
H283 N276 0.984 . S
H284 N272 0.984 . S
H285 N272 0.985 . S
C286 C287 1.363 . S
C286 C292 1.379 . S
C286 N294 1.356 . S
C287 C286 1.363 . S
C287 C293 1.363 . S
C288 C289 1.363 . S
C288 C293 1.379 . S
C288 N295 1.356 . S
C289 C288 1.363 . S
C289 C292 1.363 . S
N290 C292 1.356 . S
N290 H302 0.984 . S
N290 H303 0.985 . S
N291 C293 1.356 . S
N291 H296 0.984 . S
N291 H297 0.985 . S
C292 C286 1.379 . S
C292 C289 1.363 . S
C292 N290 1.356 . S
C293 C287 1.363 . S
C293 C288 1.379 . S
C293 N291 1.356 . S
N294 C286 1.356 . S
N294 H300 0.984 . S
N294 H301 0.984 . S
N295 C288 1.356 . S
N295 H298 0.984 . S
N295 H299 0.985 . S
H296 N291 0.984 . S
H297 N291 0.985 . S
H298 N295 0.984 . S
H299 N295 0.985 . S
H300 N294 0.984 . S
H301 N294 0.984 . S
H302 N290 0.984 . S
H303 N290 0.985 . S
C304 C305 1.363 . S
C304 C310 1.379 . S
C304 N312 1.356 . S
C305 C304 1.363 . S
C305 C311 1.363 . S
C306 C307 1.363 . S
C306 C311 1.379 . S
C306 N313 1.356 . S
C307 C306 1.363 . S
C307 C310 1.363 . S
N308 C310 1.356 . S
N308 H320 0.984 . S
N308 H321 0.985 1_655 S
N309 C311 1.356 . S
N309 H314 0.984 . S
N309 H315 0.985 . S
C310 C304 1.379 . S
C310 C307 1.363 . S
C310 N308 1.356 . S
C311 C305 1.363 . S
C311 C306 1.379 . S
C311 N309 1.356 . S
N312 C304 1.356 . S
N312 H318 0.984 . S
N312 H319 0.984 . S
N313 C306 1.356 . S
N313 H316 0.984 1_655 S
N313 H317 0.985 . S
H314 N309 0.984 . S
H315 N309 0.985 . S
H316 N313 0.984 1_455 S
H317 N313 0.985 . S
H318 N312 0.984 . S
H319 N312 0.984 . S
H320 N308 0.984 . S
H321 N308 0.985 1_455 S
C322 C323 1.363 . S
C322 C328 1.379 . S
C322 N330 1.356 . S
C323 C322 1.363 . S
C323 C329 1.363 . S
C324 C325 1.363 . S
C324 C329 1.379 . S
C324 N331 1.356 . S
C325 C324 1.363 . S
C325 C328 1.363 . S
N326 C328 1.356 . S
N326 H338 0.984 . S
N326 H339 0.985 . S
N327 C329 1.356 . S
N327 H332 0.984 . S
N327 H333 0.985 . S
C328 C322 1.379 . S
C328 C325 1.363 . S
C328 N326 1.356 . S
C329 C323 1.363 . S
C329 C324 1.379 . S
C329 N327 1.356 . S
N330 C322 1.356 . S
N330 H336 0.984 . S
N330 H337 0.984 . S
N331 C324 1.356 . S
N331 H334 0.984 . S
N331 H335 0.985 . S
H332 N327 0.984 . S
H333 N327 0.985 . S
H334 N331 0.984 . S
H335 N331 0.985 . S
H336 N330 0.984 . S
H337 N330 0.984 . S
H338 N326 0.984 . S
H339 N326 0.985 . S
C340 C341 1.363 1_655 S
C340 C346 1.379 . S
C340 N348 1.356 . S
C341 C340 1.363 1_455 S
C341 C347 1.363 1_545 S
C342 C343 1.363 1_455 S
C342 C347 1.379 . S
C342 N349 1.356 . S
C343 C342 1.363 1_655 S
C343 C346 1.363 1_565 S
N344 C346 1.356 . S
N344 H356 0.984 . S
N344 H357 0.985 1_545 S
N345 C347 1.356 . S
N345 H350 0.984 . S
N345 H351 0.985 . S
C346 C340 1.379 . S
C346 C343 1.363 1_545 S
C346 N344 1.356 . S
C347 C341 1.363 1_565 S
C347 C342 1.379 . S
C347 N345 1.356 . S
N348 C340 1.356 . S
N348 H354 0.984 . S
N348 H355 0.984 1_655 S
N349 C342 1.356 . S
N349 H352 0.984 . S
N349 H353 0.985 . S
H350 N345 0.984 . S
H351 N345 0.985 . S
H352 N349 0.984 . S
H353 N349 0.985 . S
H354 N348 0.984 . S
H355 N348 0.984 1_455 S
H356 N344 0.984 . S
H357 N344 0.985 1_565 S
C358 C359 1.363 . S
C358 C364 1.379 . S
C358 N366 1.356 . S
C359 C358 1.363 . S
C359 C365 1.363 . S
C360 C361 1.363 . S
C360 C365 1.379 . S
C360 N367 1.356 . S
C361 C360 1.363 . S
C361 C364 1.363 . S
N362 C364 1.356 . S
N362 H374 0.984 . S
N362 H375 0.985 . S
N363 C365 1.356 . S
N363 H368 0.984 . S
N363 H369 0.985 . S
C364 C358 1.379 . S
C364 C361 1.363 . S
C364 N362 1.356 . S
C365 C359 1.363 . S
C365 C360 1.379 . S
C365 N363 1.356 . S
N366 C358 1.356 . S
N366 H372 0.984 . S
N366 H373 0.984 . S
N367 C360 1.356 . S
N367 H370 0.984 . S
N367 H371 0.985 . S
H368 N363 0.984 . S
H369 N363 0.985 . S
H370 N367 0.984 . S
H371 N367 0.985 . S
H372 N366 0.984 . S
H373 N366 0.984 . S
H374 N362 0.984 . S
H375 N362 0.985 . S
C376 C377 1.363 . S
C376 C382 1.379 . S
C376 N384 1.356 . S
C377 C376 1.363 . S
C377 C383 1.363 . S
C378 C379 1.363 1_565 S
C378 C383 1.379 1_565 S
C378 N385 1.356 . S
C379 C378 1.363 1_545 S
C379 C382 1.363 . S
N380 C382 1.356 . S
N380 H392 0.984 . S
N380 H393 0.985 . S
N381 C383 1.356 1_565 S
N381 H386 0.984 . S
N381 H387 0.985 . S
C382 C376 1.379 . S
C382 C379 1.363 . S
C382 N380 1.356 . S
C383 C377 1.363 . S
C383 C378 1.379 1_545 S
C383 N381 1.356 1_545 S
N384 C376 1.356 . S
N384 H390 0.984 . S
N384 H391 0.984 . S
N385 C378 1.356 . S
N385 H388 0.984 . S
N385 H389 0.985 . S
H386 N381 0.984 . S
H387 N381 0.985 . S
H388 N385 0.984 . S
H389 N385 0.985 . S
H390 N384 0.984 . S
H391 N384 0.984 . S
H392 N380 0.984 . S
H393 N380 0.985 . S
C394 C395 1.363 . S
C394 C400 1.379 . S
C394 N402 1.356 . S
C395 C394 1.363 . S
C395 C401 1.363 . S
C396 C397 1.363 . S
C396 C401 1.379 1_556 S
C396 N403 1.356 . S
C397 C396 1.363 . S
C397 C400 1.363 1_556 S
N398 C400 1.356 1_556 S
N398 H410 0.984 1_556 S
N398 H411 0.985 . S
N399 C401 1.356 . S
N399 H404 0.984 . S
N399 H405 0.985 . S
C400 C394 1.379 . S
C400 C397 1.363 1_554 S
C400 N398 1.356 1_554 S
C401 C395 1.363 . S
C401 C396 1.379 1_554 S
C401 N399 1.356 . S
N402 C394 1.356 . S
N402 H408 0.984 . S
N402 H409 0.984 . S
N403 C396 1.356 . S
N403 H406 0.984 . S
N403 H407 0.985 . S
H404 N399 0.984 . S
H405 N399 0.985 . S
H406 N403 0.984 . S
H407 N403 0.985 . S
H408 N402 0.984 . S
H409 N402 0.984 . S
H410 N398 0.984 1_554 S
H411 N398 0.985 . S
C125 C1 1.459 . S
C127 C27 1.459 . S
C143 C58 1.500 . S
C145 C32 1.500 . S
C161 C89 1.471 . S
C163 C63 1.471 . S
C179 C120 1.509 . S
C181 C94 1.509 . S
C197 C103 1.721 . S
C199 C18 1.755 . S
C215 C31 1.505 . S
C217 C2 1.383 1_545 S
C233 C62 1.520 . S
C235 C41 1.302 . S
C251 C93 1.982 . S
C253 C72 1.757 . S
C269 C10 2.127 1_455 S
C271 C111 2.165 . S
C287 C33 1.661 . S
C289 C0 1.736 . S
C305 C49 1.534 . S
C307 C64 1.622 1_655 S
C323 C80 2.121 . S
C325 C95 2.214 . S
C341 C73 1.378 . S
C343 C11 1.381 . S
C359 C55 0.901 . S
C361 C104 1.068 . S
C377 C86 0.759 . S
C379 C24 0.770 . S
C395 C42 1.041 . S
C397 C117 0.894 . S
