# Generated by pormake.
# Topology zni, (4)-cn, num edge types: 1
# Building blocks:
#     Node 0, Type 0, BuildingBlock: QUQFOY_clean_sbu_1, # of connection points: 4
#     Node 1, Type 0, BuildingBlock: QUQFOY_clean_sbu_1, # of connection points: 4
#     Node 2, Type 0, BuildingBlock: QUQFOY_clean_sbu_1, # of connection points: 4
#     Node 3, Type 0, BuildingBlock: QUQFOY_clean_sbu_1, # of connection points: 4
#     Node 4, Type 0, BuildingBlock: QUQFOY_clean_sbu_1, # of connection points: 4
#     Node 5, Type 0, BuildingBlock: QUQFOY_clean_sbu_1, # of connection points: 4
#     Node 6, Type 0, BuildingBlock: QUQFOY_clean_sbu_1, # of connection points: 4
#     Node 7, Type 0, BuildingBlock: QUQFOY_clean_sbu_1, # of connection points: 4
#     Node 8, Type 0, BuildingBlock: QUQFOY_clean_sbu_1, # of connection points: 4
#     Node 9, Type 0, BuildingBlock: QUQFOY_clean_sbu_1, # of connection points: 4
#     Node 10, Type 0, BuildingBlock: QUQFOY_clean_sbu_1, # of connection points: 4
#     Node 11, Type 0, BuildingBlock: QUQFOY_clean_sbu_1, # of connection points: 4
#     Node 12, Type 0, BuildingBlock: QUQFOY_clean_sbu_1, # of connection points: 4
#     Node 13, Type 0, BuildingBlock: QUQFOY_clean_sbu_1, # of connection points: 4
#     Node 14, Type 0, BuildingBlock: QUQFOY_clean_sbu_1, # of connection points: 4
#     Node 15, Type 0, BuildingBlock: QUQFOY_clean_sbu_1, # of connection points: 4
#     Node 16, Type 0, BuildingBlock: QUQFOY_clean_sbu_1, # of connection points: 4
#     Node 17, Type 0, BuildingBlock: QUQFOY_clean_sbu_1, # of connection points: 4
#     Node 18, Type 0, BuildingBlock: QUQFOY_clean_sbu_1, # of connection points: 4
#     Node 19, Type 0, BuildingBlock: QUQFOY_clean_sbu_1, # of connection points: 4
#     Node 20, Type 0, BuildingBlock: QUQFOY_clean_sbu_1, # of connection points: 4
#     Node 21, Type 0, BuildingBlock: QUQFOY_clean_sbu_1, # of connection points: 4
#     Node 22, Type 0, BuildingBlock: QUQFOY_clean_sbu_1, # of connection points: 4
#     Node 23, Type 0, BuildingBlock: QUQFOY_clean_sbu_1, # of connection points: 4
#     Node 24, Type 0, BuildingBlock: QUQFOY_clean_sbu_1, # of connection points: 4
#     Node 25, Type 0, BuildingBlock: QUQFOY_clean_sbu_1, # of connection points: 4
#     Node 26, Type 0, BuildingBlock: QUQFOY_clean_sbu_1, # of connection points: 4
#     Node 27, Type 0, BuildingBlock: QUQFOY_clean_sbu_1, # of connection points: 4
#     Node 28, Type 0, BuildingBlock: QUQFOY_clean_sbu_1, # of connection points: 4
#     Node 29, Type 0, BuildingBlock: QUQFOY_clean_sbu_1, # of connection points: 4
#     Node 30, Type 0, BuildingBlock: QUQFOY_clean_sbu_1, # of connection points: 4
#     Node 31, Type 0, BuildingBlock: QUQFOY_clean_sbu_1, # of connection points: 4
#     Edge 32, Type (0, 0), BuildingBlock: UVAHIK_clean_linker_0, # of connection points: 2
#     Edge 33, Type (0, 0), BuildingBlock: UVAHIK_clean_linker_0, # of connection points: 2
#     Edge 34, Type (0, 0), BuildingBlock: UVAHIK_clean_linker_0, # of connection points: 2
#     Edge 35, Type (0, 0), BuildingBlock: UVAHIK_clean_linker_0, # of connection points: 2
#     Edge 36, Type (0, 0), BuildingBlock: UVAHIK_clean_linker_0, # of connection points: 2
#     Edge 37, Type (0, 0), BuildingBlock: UVAHIK_clean_linker_0, # of connection points: 2
#     Edge 38, Type (0, 0), BuildingBlock: UVAHIK_clean_linker_0, # of connection points: 2
#     Edge 39, Type (0, 0), BuildingBlock: UVAHIK_clean_linker_0, # of connection points: 2
#     Edge 40, Type (0, 0), BuildingBlock: UVAHIK_clean_linker_0, # of connection points: 2
#     Edge 41, Type (0, 0), BuildingBlock: UVAHIK_clean_linker_0, # of connection points: 2
#     Edge 42, Type (0, 0), BuildingBlock: UVAHIK_clean_linker_0, # of connection points: 2
#     Edge 43, Type (0, 0), BuildingBlock: UVAHIK_clean_linker_0, # of connection points: 2
#     Edge 44, Type (0, 0), BuildingBlock: UVAHIK_clean_linker_0, # of connection points: 2
#     Edge 45, Type (0, 0), BuildingBlock: UVAHIK_clean_linker_0, # of connection points: 2
#     Edge 46, Type (0, 0), BuildingBlock: UVAHIK_clean_linker_0, # of connection points: 2
#     Edge 47, Type (0, 0), BuildingBlock: UVAHIK_clean_linker_0, # of connection points: 2
#     Edge 48, Type (0, 0), BuildingBlock: UVAHIK_clean_linker_0, # of connection points: 2
#     Edge 49, Type (0, 0), BuildingBlock: UVAHIK_clean_linker_0, # of connection points: 2
#     Edge 50, Type (0, 0), BuildingBlock: UVAHIK_clean_linker_0, # of connection points: 2
#     Edge 51, Type (0, 0), BuildingBlock: UVAHIK_clean_linker_0, # of connection points: 2
#     Edge 52, Type (0, 0), BuildingBlock: UVAHIK_clean_linker_0, # of connection points: 2
#     Edge 53, Type (0, 0), BuildingBlock: UVAHIK_clean_linker_0, # of connection points: 2
#     Edge 54, Type (0, 0), BuildingBlock: UVAHIK_clean_linker_0, # of connection points: 2
#     Edge 55, Type (0, 0), BuildingBlock: UVAHIK_clean_linker_0, # of connection points: 2
#     Edge 56, Type (0, 0), BuildingBlock: UVAHIK_clean_linker_0, # of connection points: 2
#     Edge 57, Type (0, 0), BuildingBlock: UVAHIK_clean_linker_0, # of connection points: 2
#     Edge 58, Type (0, 0), BuildingBlock: UVAHIK_clean_linker_0, # of connection points: 2
#     Edge 59, Type (0, 0), BuildingBlock: UVAHIK_clean_linker_0, # of connection points: 2
#     Edge 60, Type (0, 0), BuildingBlock: UVAHIK_clean_linker_0, # of connection points: 2
#     Edge 61, Type (0, 0), BuildingBlock: UVAHIK_clean_linker_0, # of connection points: 2
#     Edge 62, Type (0, 0), BuildingBlock: UVAHIK_clean_linker_0, # of connection points: 2
#     Edge 63, Type (0, 0), BuildingBlock: UVAHIK_clean_linker_0, # of connection points: 2
#     Edge 64, Type (0, 0), BuildingBlock: UVAHIK_clean_linker_0, # of connection points: 2
#     Edge 65, Type (0, 0), BuildingBlock: UVAHIK_clean_linker_0, # of connection points: 2
#     Edge 66, Type (0, 0), BuildingBlock: UVAHIK_clean_linker_0, # of connection points: 2
#     Edge 67, Type (0, 0), BuildingBlock: UVAHIK_clean_linker_0, # of connection points: 2
#     Edge 68, Type (0, 0), BuildingBlock: UVAHIK_clean_linker_0, # of connection points: 2
#     Edge 69, Type (0, 0), BuildingBlock: UVAHIK_clean_linker_0, # of connection points: 2
#     Edge 70, Type (0, 0), BuildingBlock: UVAHIK_clean_linker_0, # of connection points: 2
#     Edge 71, Type (0, 0), BuildingBlock: UVAHIK_clean_linker_0, # of connection points: 2
#     Edge 72, Type (0, 0), BuildingBlock: UVAHIK_clean_linker_0, # of connection points: 2
#     Edge 73, Type (0, 0), BuildingBlock: UVAHIK_clean_linker_0, # of connection points: 2
#     Edge 74, Type (0, 0), BuildingBlock: UVAHIK_clean_linker_0, # of connection points: 2
#     Edge 75, Type (0, 0), BuildingBlock: UVAHIK_clean_linker_0, # of connection points: 2
#     Edge 76, Type (0, 0), BuildingBlock: UVAHIK_clean_linker_0, # of connection points: 2
#     Edge 77, Type (0, 0), BuildingBlock: UVAHIK_clean_linker_0, # of connection points: 2
#     Edge 78, Type (0, 0), BuildingBlock: UVAHIK_clean_linker_0, # of connection points: 2
#     Edge 79, Type (0, 0), BuildingBlock: UVAHIK_clean_linker_0, # of connection points: 2
#     Edge 80, Type (0, 0), BuildingBlock: UVAHIK_clean_linker_0, # of connection points: 2
#     Edge 81, Type (0, 0), BuildingBlock: UVAHIK_clean_linker_0, # of connection points: 2
#     Edge 82, Type (0, 0), BuildingBlock: UVAHIK_clean_linker_0, # of connection points: 2
#     Edge 83, Type (0, 0), BuildingBlock: UVAHIK_clean_linker_0, # of connection points: 2
#     Edge 84, Type (0, 0), BuildingBlock: UVAHIK_clean_linker_0, # of connection points: 2
#     Edge 85, Type (0, 0), BuildingBlock: UVAHIK_clean_linker_0, # of connection points: 2
#     Edge 86, Type (0, 0), BuildingBlock: UVAHIK_clean_linker_0, # of connection points: 2
#     Edge 87, Type (0, 0), BuildingBlock: UVAHIK_clean_linker_0, # of connection points: 2
#     Edge 88, Type (0, 0), BuildingBlock: UVAHIK_clean_linker_0, # of connection points: 2
#     Edge 89, Type (0, 0), BuildingBlock: UVAHIK_clean_linker_0, # of connection points: 2
#     Edge 90, Type (0, 0), BuildingBlock: UVAHIK_clean_linker_0, # of connection points: 2
#     Edge 91, Type (0, 0), BuildingBlock: UVAHIK_clean_linker_0, # of connection points: 2
#     Edge 92, Type (0, 0), BuildingBlock: UVAHIK_clean_linker_0, # of connection points: 2
#     Edge 93, Type (0, 0), BuildingBlock: UVAHIK_clean_linker_0, # of connection points: 2
#     Edge 94, Type (0, 0), BuildingBlock: UVAHIK_clean_linker_0, # of connection points: 2
#     Edge 95, Type (0, 0), BuildingBlock: UVAHIK_clean_linker_0, # of connection points: 2
# Relax obj value: 0.189
# Max RMSD: 0.171
# Mean RMSD: 0.171
data_MOF--net-zni--node1-QUQFOY_clean_sbu_1--edge1-UVAHIK_clean_linker_0
_symmetry_space_group_name_H-M    P1
_symmetry_Int_Tables_number       1
_symmetry_cell_setting            triclinic
loop_
_symmetry_equiv_pos_as_xyz
'x, y, z'
_cell_length_a     76.647935
_cell_length_b     76.646206
_cell_length_c     43.190596
_cell_angle_alpha  89.981406
_cell_angle_beta   89.985597
_cell_angle_gamma 89.993054
loop_
_atom_site_label
_atom_site_type_symbol
_atom_site_fract_x
_atom_site_fract_y
_atom_site_fract_z
_atom_type_partial_charge
O0 O 0.07829 0.1013 0.36805 0.0
Cd1 Cd 0.10513 0.10185 0.36466 0.0
Cd2 Cd 0.1026 0.10719 0.42846 0.0
O3 O 0.07683 0.10126 0.41904 0.0
O4 O 0.11062 0.09147 0.32354 0.0
O5 O 0.11811 0.07908 0.36788 0.0
C6 C 0.11767 0.07854 0.33797 0.0
C7 C 0.11402 0.09781 0.47593 0.0
C8 C 0.06937 0.10038 0.39281 0.0
C9 C 0.11787 0.1361 0.38868 0.0
O10 O 0.11202 0.13124 0.41485 0.0
O11 O 0.11727 0.12588 0.36554 0.0
O12 O 0.10197 0.10946 0.47434 0.0
O13 O 0.11947 0.09097 0.4504 0.0
O14 O 0.15112 0.83286 0.61953 0.0
Cd15 Cd 0.15029 0.85939 0.61172 0.0
Cd16 Cd 0.14364 0.85899 0.67798 0.0
O17 O 0.14887 0.83283 0.67054 0.0
O18 O 0.16148 0.86283 0.57055 0.0
O19 O 0.17278 0.87286 0.61419 0.0
C20 C 0.174 0.87084 0.58455 0.0
C21 C 0.14774 0.86934 0.72868 0.0
C22 C 0.15086 0.82469 0.64514 0.0
C23 C 0.11624 0.87378 0.63255 0.0
O24 O 0.12118 0.86956 0.6596 0.0
O25 O 0.12613 0.87124 0.60937 0.0
O26 O 0.13578 0.85827 0.72178 0.0
O27 O 0.15824 0.87411 0.70691 0.0
O28 O 0.42024 0.89871 0.86502 0.0
Cd29 Cd 0.39337 0.89858 0.8629 0.0
Cd30 Cd 0.39688 0.89249 0.92609 0.0
O31 O 0.42264 0.89804 0.91587 0.0
O32 O 0.3876 0.90973 0.82253 0.0
O33 O 0.38077 0.92145 0.86775 0.0
C34 C 0.38096 0.92254 0.83787 0.0
C35 C 0.38608 0.90176 0.97406 0.0
C36 C 0.42963 0.89914 0.88925 0.0
C37 C 0.38067 0.86418 0.88616 0.0
O38 O 0.38698 0.86869 0.91218 0.0
O39 O 0.38098 0.87466 0.86336 0.0
O40 O 0.39791 0.88992 0.97189 0.0
O41 O 0.3805 0.90885 0.94882 0.0
O42 O 0.35218 0.1715 0.11491 0.0
Cd43 Cd 0.35254 0.14463 0.11276 0.0
Cd44 Cd 0.35723 0.14823 0.17661 0.0
O45 O 0.35165 0.17392 0.16578 0.0
O46 O 0.34263 0.13878 0.07143 0.0
O47 O 0.32956 0.13198 0.11549 0.0
C48 C 0.32939 0.13212 0.08556 0.0
C49 C 0.34747 0.1375 0.22435 0.0
C50 C 0.35112 0.18089 0.13908 0.0
C51 C 0.3865 0.13223 0.13848 0.0
O52 O 0.38134 0.13849 0.16416 0.0
O53 O 0.37656 0.13246 0.11494 0.0
O54 O 0.35913 0.14951 0.2225 0.0
O55 O 0.34079 0.13173 0.19891 0.0
O56 O 0.08017 0.89509 0.14754 0.0
Cd57 Cd 0.107 0.89479 0.15004 0.0
Cd58 Cd 0.10457 0.89064 0.08621 0.0
O59 O 0.07866 0.89554 0.09658 0.0
O60 O 0.11328 0.90655 0.18955 0.0
O61 O 0.11965 0.91743 0.14338 0.0
C62 C 0.11978 0.91906 0.17319 0.0
C63 C 0.11383 0.89999 0.03717 0.0
C64 C 0.07121 0.89604 0.12286 0.0
C65 C 0.12043 0.8613 0.12491 0.0
O66 O 0.11505 0.86685 0.09887 0.0
O67 O 0.11916 0.87078 0.14894 0.0
O68 O 0.10262 0.88768 0.04065 0.0
O69 O 0.11986 0.9074 0.06175 0.0
O70 O 0.35322 0.82823 0.38213 0.0
Cd71 Cd 0.35331 0.85524 0.382 0.0
Cd72 Cd 0.35863 0.84977 0.32014 0.0
O73 O 0.35165 0.82463 0.3316 0.0
O74 O 0.34343 0.86198 0.42293 0.0
O75 O 0.33014 0.86751 0.37853 0.0
C76 C 0.33007 0.86812 0.40844 0.0
C77 C 0.34872 0.86153 0.27338 0.0
C78 C 0.3515 0.81828 0.35877 0.0
C79 C 0.38788 0.86588 0.3568 0.0
O80 O 0.38336 0.85782 0.33237 0.0
O81 O 0.37711 0.86787 0.37891 0.0
O82 O 0.35967 0.84881 0.27417 0.0
O83 O 0.34284 0.86743 0.29937 0.0
O84 O 0.41995 0.10251 0.63441 0.0
Cd85 Cd 0.39308 0.10275 0.63672 0.0
Cd86 Cd 0.39679 0.10894 0.57315 0.0
O87 O 0.42248 0.10318 0.58356 0.0
O88 O 0.3876 0.09273 0.67815 0.0
O89 O 0.38044 0.07972 0.63426 0.0
C90 C 0.38083 0.07952 0.66418 0.0
C91 C 0.38588 0.09969 0.52525 0.0
C92 C 0.42939 0.10203 0.61023 0.0
C93 C 0.38063 0.13726 0.61302 0.0
O94 O 0.38704 0.1328 0.58705 0.0
O95 O 0.38078 0.12671 0.63574 0.0
O96 O 0.39782 0.11142 0.52732 0.0
O97 O 0.38026 0.09269 0.55054 0.0
O98 O 0.14954 0.17221 0.88304 0.0
Cd99 Cd 0.14896 0.14539 0.8863 0.0
Cd100 Cd 0.14476 0.14788 0.8224 0.0
O101 O 0.15048 0.1737 0.83208 0.0
O102 O 0.15985 0.13963 0.92689 0.0
O103 O 0.17162 0.13242 0.88186 0.0
C104 C 0.17262 0.13273 0.91174 0.0
C105 C 0.15432 0.13667 0.77486 0.0
C106 C 0.15086 0.18115 0.85836 0.0
C107 C 0.11514 0.13272 0.86104 0.0
O108 O 0.12058 0.1384 0.83512 0.0
O109 O 0.12486 0.1334 0.88486 0.0
O110 O 0.14272 0.14876 0.77649 0.0
O111 O 0.16106 0.13109 0.8004 0.0
O112 O 0.92284 0.89941 0.63447 0.0
Cd113 Cd 0.89601 0.89877 0.63803 0.0
Cd114 Cd 0.89853 0.8922 0.57381 0.0
O115 O 0.92428 0.898 0.58353 0.0
O116 O 0.89041 0.9105 0.6779 0.0
O117 O 0.88287 0.92123 0.63223 0.0
C118 C 0.88329 0.92285 0.66202 0.0
C119 C 0.88918 0.8988 0.52345 0.0
C120 C 0.93174 0.89961 0.60965 0.0
C121 C 0.88284 0.86432 0.61607 0.0
O122 O 0.88841 0.86885 0.58954 0.0
O123 O 0.8839 0.87472 0.6389 0.0
O124 O 0.9008 0.88713 0.52892 0.0
O125 O 0.88286 0.90726 0.54672 0.0
O126 O 0.85057 0.16838 0.3825 0.0
Cd127 Cd 0.85133 0.14164 0.38793 0.0
Cd128 Cd 0.85687 0.14266 0.32408 0.0
O129 O 0.85207 0.16884 0.33152 0.0
O130 O 0.84121 0.13719 0.42964 0.0
O131 O 0.8286 0.12847 0.38624 0.0
C132 C 0.82825 0.12969 0.41608 0.0
C133 C 0.84664 0.13103 0.27758 0.0
C134 C 0.85054 0.17682 0.35716 0.0
C135 C 0.88554 0.12789 0.36485 0.0
O136 O 0.88061 0.13271 0.33809 0.0
O137 O 0.87547 0.12962 0.38804 0.0
O138 O 0.85914 0.14219 0.2783 0.0
O139 O 0.83954 0.12639 0.30338 0.0
O140 O 0.57972 0.10144 0.13553 0.0
Cd141 Cd 0.6066 0.1015 0.13755 0.0
Cd142 Cd 0.60298 0.10797 0.07442 0.0
O143 O 0.57722 0.1024 0.0847 0.0
O144 O 0.61237 0.09028 0.17786 0.0
O145 O 0.61919 0.07861 0.1326 0.0
C146 C 0.61902 0.0775 0.16247 0.0
C147 C 0.61381 0.09887 0.02637 0.0
C148 C 0.57028 0.10118 0.11135 0.0
C149 C 0.61927 0.13604 0.11476 0.0
O150 O 0.61292 0.13168 0.0887 0.0
O151 O 0.61899 0.12542 0.13738 0.0
O152 O 0.60197 0.1107 0.02864 0.0
O153 O 0.61937 0.09169 0.05155 0.0
O154 O 0.64821 0.83005 0.8846 0.0
Cd155 Cd 0.6476 0.85689 0.88769 0.0
Cd156 Cd 0.64308 0.85412 0.82391 0.0
O157 O 0.64872 0.82831 0.83365 0.0
O158 O 0.65769 0.86248 0.92897 0.0
O159 O 0.67039 0.86984 0.88484 0.0
C160 C 0.67075 0.86945 0.91476 0.0
C161 C 0.65295 0.86553 0.77675 0.0
C162 C 0.64931 0.82099 0.86004 0.0
C163 C 0.61362 0.86941 0.86243 0.0
O164 O 0.61889 0.86358 0.83652 0.0
O165 O 0.62349 0.86887 0.88605 0.0
O166 O 0.64133 0.85345 0.77797 0.0
O167 O 0.65953 0.87098 0.80249 0.0
O168 O 0.92167 0.10484 0.85738 0.0
Cd169 Cd 0.89486 0.10547 0.85377 0.0
Cd170 Cd 0.89768 0.11199 0.9183 0.0
O171 O 0.92346 0.10631 0.90831 0.0
O172 O 0.88955 0.09473 0.81291 0.0
O173 O 0.88179 0.08277 0.85748 0.0
C174 C 0.88238 0.08197 0.8276 0.0
C175 C 0.88817 0.10551 0.96871 0.0
C176 C 0.93073 0.1047 0.88201 0.0
C177 C 0.88191 0.13993 0.87612 0.0
O178 O 0.88744 0.13529 0.9026 0.0
O179 O 0.88293 0.1296 0.85319 0.0
O180 O 0.8996 0.11737 0.96315 0.0
O181 O 0.88231 0.09669 0.94549 0.0
O182 O 0.64803 0.16993 0.61515 0.0
Cd183 Cd 0.64756 0.14307 0.61378 0.0
Cd184 Cd 0.64257 0.147 0.677 0.0
O185 O 0.64831 0.17263 0.66597 0.0
O186 O 0.65863 0.13662 0.57368 0.0
O187 O 0.67026 0.13029 0.61923 0.0
C188 C 0.67137 0.13008 0.58935 0.0
C189 C 0.65216 0.13634 0.72488 0.0
C190 C 0.64901 0.17946 0.63916 0.0
C191 C 0.6134 0.131 0.63862 0.0
O192 O 0.61847 0.13731 0.6643 0.0
O193 O 0.62346 0.13108 0.61523 0.0
O194 O 0.64054 0.14838 0.72287 0.0
O195 O 0.6589 0.13049 0.69953 0.0
O196 O 0.57998 0.89958 0.36927 0.0
Cd197 Cd 0.60686 0.89873 0.36661 0.0
Cd198 Cd 0.60347 0.8941 0.43092 0.0
O199 O 0.5776 0.89853 0.42019 0.0
O200 O 0.61254 0.90816 0.32482 0.0
O201 O 0.61981 0.92158 0.36828 0.0
C202 C 0.61945 0.92146 0.33836 0.0
C203 C 0.61404 0.90455 0.47827 0.0
C204 C 0.57063 0.89976 0.39358 0.0
C205 C 0.61978 0.86494 0.39322 0.0
O206 O 0.61387 0.87028 0.41901 0.0
O207 O 0.61895 0.87459 0.3693 0.0
O208 O 0.60239 0.89251 0.47686 0.0
O209 O 0.61949 0.91124 0.45261 0.0
O210 O 0.85291 0.82835 0.10533 0.0
Cd211 Cd 0.8533 0.85524 0.10504 0.0
Cd212 Cd 0.85611 0.8511 0.16825 0.0
O213 O 0.85055 0.82562 0.15594 0.0
O214 O 0.8421 0.86262 0.06561 0.0
O215 O 0.83059 0.86771 0.1118 0.0
C216 C 0.82936 0.86866 0.08197 0.0
C217 C 0.84615 0.86024 0.21687 0.0
C218 C 0.85092 0.81881 0.12913 0.0
C219 C 0.88654 0.86725 0.13304 0.0
O220 O 0.88059 0.86079 0.15802 0.0
O221 O 0.87728 0.86732 0.10863 0.0
O222 O 0.85764 0.84815 0.21385 0.0
O223 O 0.83978 0.86714 0.19209 0.0
O224 O 0.57955 0.60288 0.85653 0.0
Cd225 Cd 0.60638 0.60324 0.85382 0.0
Cd226 Cd 0.60384 0.6072 0.91833 0.0
O227 O 0.57826 0.60119 0.90743 0.0
O228 O 0.6126 0.59175 0.81403 0.0
O229 O 0.61909 0.5806 0.85994 0.0
C230 C 0.61919 0.57917 0.8301 0.0
C231 C 0.61257 0.59948 0.96858 0.0
C232 C 0.57072 0.60113 0.88123 0.0
C233 C 0.61936 0.63676 0.87938 0.0
O234 O 0.61367 0.63121 0.90521 0.0
O235 O 0.61856 0.62721 0.85538 0.0
O236 O 0.60072 0.61097 0.9635 0.0
O237 O 0.61953 0.59187 0.94499 0.0
O238 O 0.64773 0.32837 0.11887 0.0
Cd239 Cd 0.64757 0.35522 0.11571 0.0
Cd240 Cd 0.64199 0.35266 0.17919 0.0
O241 O 0.64778 0.32684 0.16984 0.0
O242 O 0.65814 0.36066 0.07472 0.0
O243 O 0.67055 0.36779 0.11923 0.0
C244 C 0.67116 0.36742 0.08932 0.0
C245 C 0.65162 0.36409 0.22645 0.0
C246 C 0.64858 0.31941 0.14358 0.0
C247 C 0.61333 0.36823 0.13936 0.0
O248 O 0.61799 0.36222 0.16552 0.0
O249 O 0.62369 0.36766 0.1164 0.0
O250 O 0.63985 0.35216 0.22508 0.0
O251 O 0.65841 0.36945 0.2008 0.0
O252 O 0.91961 0.39441 0.35936 0.0
Cd253 Cd 0.89304 0.39462 0.35207 0.0
Cd254 Cd 0.89296 0.38844 0.41749 0.0
O255 O 0.9194 0.3924 0.41039 0.0
O256 O 0.88927 0.40684 0.31193 0.0
O257 O 0.8803 0.4174 0.35692 0.0
C258 C 0.88186 0.41923 0.32728 0.0
C259 C 0.8822 0.39433 0.46729 0.0
C260 C 0.92771 0.39392 0.38504 0.0
C261 C 0.87731 0.36126 0.37273 0.0
O262 O 0.88148 0.36627 0.39976 0.0
O263 O 0.88041 0.37087 0.3494 0.0
O264 O 0.89237 0.38138 0.46176 0.0
O265 O 0.87857 0.4047 0.44466 0.0
O266 O 0.85385 0.67278 0.61351 0.0
Cd267 Cd 0.85514 0.64603 0.60899 0.0
Cd268 Cd 0.85852 0.64748 0.67306 0.0
O269 O 0.85251 0.67334 0.6645 0.0
O270 O 0.84531 0.6407 0.56741 0.0
O271 O 0.83268 0.6325 0.61116 0.0
C272 C 0.83239 0.63324 0.58125 0.0
C273 C 0.84821 0.63548 0.71949 0.0
C274 C 0.85216 0.68124 0.63863 0.0
C275 C 0.88898 0.6337 0.635 0.0
O276 O 0.88309 0.63867 0.66106 0.0
O277 O 0.87953 0.63466 0.61088 0.0
O278 O 0.85975 0.64764 0.71907 0.0
O279 O 0.84204 0.63018 0.69333 0.0
O280 O 0.57922 0.39759 0.63399 0.0
Cd281 Cd 0.60606 0.39704 0.63693 0.0
Cd282 Cd 0.60343 0.39292 0.57312 0.0
O283 O 0.57768 0.39875 0.58306 0.0
O284 O 0.61187 0.40723 0.67802 0.0
O285 O 0.61894 0.41983 0.63362 0.0
C286 C 0.61873 0.42026 0.66355 0.0
C287 C 0.61461 0.40289 0.52585 0.0
C288 C 0.57026 0.39905 0.60938 0.0
C289 C 0.61867 0.36323 0.6112 0.0
O290 O 0.61284 0.36862 0.58537 0.0
O291 O 0.61813 0.37299 0.63496 0.0
O292 O 0.60253 0.39129 0.52718 0.0
O293 O 0.62024 0.40937 0.55155 0.0
O294 O 0.85509 0.33208 0.88716 0.0
Cd295 Cd 0.8549 0.35856 0.89567 0.0
Cd296 Cd 0.86302 0.3593 0.83076 0.0
O297 O 0.85877 0.33282 0.83644 0.0
O298 O 0.84256 0.36144 0.93591 0.0
O299 O 0.83216 0.37147 0.89155 0.0
C300 C 0.83026 0.36928 0.92104 0.0
C301 C 0.85776 0.37079 0.78128 0.0
C302 C 0.85635 0.32426 0.8613 0.0
C303 C 0.88896 0.37431 0.87813 0.0
O304 O 0.88484 0.37039 0.85052 0.0
O305 O 0.87858 0.3711 0.90034 0.0
O306 O 0.87071 0.36063 0.78687 0.0
O307 O 0.8471 0.37407 0.80366 0.0
O308 O 0.92054 0.60015 0.12492 0.0
Cd309 Cd 0.89378 0.601 0.12979 0.0
Cd310 Cd 0.89513 0.60475 0.06526 0.0
O311 O 0.92097 0.59882 0.07392 0.0
O312 O 0.88877 0.59097 0.1714 0.0
O313 O 0.88078 0.57824 0.12763 0.0
C314 C 0.88162 0.57789 0.15753 0.0
C315 C 0.88368 0.59517 0.01792 0.0
C316 C 0.92894 0.59852 0.09971 0.0
C317 C 0.88078 0.6347 0.10402 0.0
O318 O 0.88601 0.62906 0.07795 0.0
O319 O 0.8818 0.62514 0.128 0.0
O320 O 0.89576 0.60677 0.01936 0.0
O321 O 0.87814 0.58852 0.04356 0.0
O322 O 0.64981 0.67176 0.39031 0.0
Cd323 Cd 0.64983 0.64477 0.38988 0.0
Cd324 Cd 0.64419 0.65026 0.32752 0.0
O325 O 0.65151 0.67518 0.33975 0.0
O326 O 0.66136 0.63769 0.42922 0.0
O327 O 0.67279 0.63268 0.383 0.0
C328 C 0.67414 0.63183 0.4128 0.0
C329 C 0.65154 0.6411 0.27741 0.0
C330 C 0.65164 0.68161 0.36684 0.0
C331 C 0.61527 0.63397 0.36577 0.0
O332 O 0.61978 0.64186 0.34116 0.0
O333 O 0.62605 0.6321 0.38789 0.0
O334 O 0.64072 0.6536 0.28233 0.0
O335 O 0.65872 0.63378 0.30111 0.0
O336 O 0.42118 0.39873 0.13543 0.0
Cd337 Cd 0.39434 0.39854 0.13823 0.0
Cd338 Cd 0.39711 0.39421 0.0744 0.0
O339 O 0.42288 0.39987 0.08451 0.0
O340 O 0.38857 0.40946 0.17879 0.0
O341 O 0.38176 0.42142 0.13373 0.0
C342 C 0.38196 0.42236 0.16362 0.0
C343 C 0.38628 0.40378 0.02657 0.0
C344 C 0.43023 0.40009 0.11089 0.0
C345 C 0.3815 0.3648 0.11294 0.0
O346 O 0.38746 0.37008 0.08712 0.0
O347 O 0.38203 0.37461 0.13664 0.0
O348 O 0.39827 0.3921 0.02851 0.0
O349 O 0.38055 0.41057 0.05197 0.0
O350 O 0.35284 0.67179 0.88389 0.0
Cd351 Cd 0.35315 0.64493 0.88671 0.0
Cd352 Cd 0.35776 0.64751 0.8236 0.0
O353 O 0.35174 0.67327 0.83297 0.0
O354 O 0.3418 0.63896 0.92679 0.0
O355 O 0.33044 0.63224 0.88119 0.0
C356 C 0.32914 0.63231 0.91104 0.0
C357 C 0.34786 0.63573 0.77679 0.0
C358 C 0.35141 0.68073 0.85924 0.0
C359 C 0.38715 0.63226 0.86218 0.0
O360 O 0.38206 0.63833 0.83632 0.0
O361 O 0.37709 0.6326 0.88558 0.0
O362 O 0.35938 0.64793 0.77765 0.0
O363 O 0.34142 0.63036 0.80271 0.0
O364 O 0.08287 0.60705 0.64514 0.0
Cd365 Cd 0.1095 0.60675 0.65166 0.0
Cd366 Cd 0.10866 0.61326 0.58614 0.0
O367 O 0.08227 0.60953 0.59417 0.0
O368 O 0.11324 0.59551 0.69268 0.0
O369 O 0.12198 0.58369 0.64858 0.0
C370 C 0.12049 0.58266 0.67834 0.0
C371 C 0.11901 0.60719 0.53616 0.0
C372 C 0.07436 0.60783 0.6199 0.0
C373 C 0.12499 0.6402 0.63041 0.0
O374 O 0.12043 0.63536 0.60349 0.0
O375 O 0.12221 0.63048 0.65371 0.0
O376 O 0.10894 0.6202 0.54181 0.0
O377 O 0.12273 0.59684 0.55878 0.0
O378 O 0.14723 0.32828 0.39072 0.0
Cd379 Cd 0.14656 0.35509 0.3944 0.0
Cd380 Cd 0.14189 0.35303 0.3306 0.0
O381 O 0.14769 0.32719 0.33972 0.0
O382 O 0.15682 0.36051 0.43563 0.0
O383 O 0.16931 0.36812 0.39142 0.0
C384 C 0.16979 0.36759 0.42133 0.0
C385 C 0.1519 0.36439 0.28348 0.0
C386 C 0.14836 0.31954 0.36581 0.0
C387 C 0.11244 0.36778 0.36978 0.0
O388 O 0.11766 0.36234 0.34357 0.0
O389 O 0.12241 0.36698 0.39326 0.0
O390 O 0.14011 0.35248 0.28466 0.0
O391 O 0.15844 0.36985 0.30927 0.0
O392 O 0.42322 0.59995 0.37208 0.0
Cd393 Cd 0.39639 0.60103 0.36817 0.0
Cd394 Cd 0.39882 0.60643 0.43245 0.0
O395 O 0.42484 0.60195 0.42299 0.0
O396 O 0.3912 0.59133 0.3264 0.0
O397 O 0.38312 0.57835 0.36985 0.0
C398 C 0.38388 0.57826 0.33995 0.0
C399 C 0.38776 0.59629 0.47968 0.0
C400 C 0.4322 0.60021 0.39681 0.0
C401 C 0.38318 0.63519 0.39298 0.0
O402 O 0.38853 0.6301 0.41932 0.0
O403 O 0.38449 0.6253 0.36946 0.0
O404 O 0.39931 0.60843 0.47836 0.0
O405 O 0.38263 0.58937 0.454 0.0
O406 O 0.14622 0.6676 0.11404 0.0
Cd407 Cd 0.14629 0.64096 0.10718 0.0
Cd408 Cd 0.13808 0.64197 0.17227 0.0
O409 O 0.14257 0.66826 0.16478 0.0
O410 O 0.15741 0.63765 0.06593 0.0
O411 O 0.1693 0.62827 0.10953 0.0
C412 C 0.17023 0.6301 0.07983 0.0
C413 C 0.14348 0.63111 0.22211 0.0
C414 C 0.14503 0.67612 0.13922 0.0
C415 C 0.112 0.62604 0.12627 0.0
O416 O 0.11603 0.63082 0.15349 0.0
O417 O 0.12254 0.62836 0.10396 0.0
O418 O 0.1307 0.64146 0.21637 0.0
O419 O 0.15395 0.62735 0.19967 0.0
O420 O 0.08037 0.3996 0.876 0.0
Cd421 Cd 0.10707 0.39883 0.8702 0.0
Cd422 Cd 0.10651 0.39238 0.93405 0.0
O423 O 0.08049 0.39818 0.92698 0.0
O424 O 0.11171 0.41057 0.82989 0.0
O425 O 0.12036 0.42129 0.87493 0.0
C426 C 0.11919 0.42292 0.8452 0.0
C427 C 0.11815 0.40098 0.98181 0.0
C428 C 0.07225 0.39984 0.90164 0.0
C429 C 0.1207 0.36424 0.89118 0.0
O430 O 0.11596 0.36877 0.91823 0.0
O431 O 0.11903 0.3747 0.86852 0.0
O432 O 0.10649 0.38899 0.9797 0.0
O433 O 0.1233 0.40844 0.95662 0.0
O434 O 0.35234 0.32976 0.6175 0.0
Cd435 Cd 0.35247 0.35661 0.61462 0.0
Cd436 Cd 0.35834 0.35388 0.67789 0.0
O437 O 0.35241 0.3281 0.66846 0.0
O438 O 0.34095 0.36224 0.57454 0.0
O439 O 0.32967 0.36923 0.62006 0.0
C440 C 0.32829 0.36893 0.59022 0.0
C441 C 0.34921 0.36515 0.72563 0.0
C442 C 0.35154 0.32074 0.64214 0.0
C443 C 0.38684 0.36946 0.63748 0.0
O444 O 0.38225 0.36342 0.66366 0.0
O445 O 0.37638 0.369 0.61465 0.0
O446 O 0.36093 0.35318 0.72372 0.0
O447 O 0.34219 0.37063 0.70027 0.0
C448 C 0.12574 0.06399 0.2882 0.0
C449 C 0.1239 0.06313 0.32053 0.0
C450 C 0.12952 0.04901 0.27104 0.0
C451 C 0.14341 0.00244 0.27743 0.0
H452 H 0.11598 0.99756 0.2025 0.0
C453 C 0.12683 0.93627 0.22078 0.0
C454 C 0.12585 0.93529 0.18832 0.0
C455 C 0.13026 0.95213 0.23548 0.0
C456 C 0.12399 0.9988 0.22303 0.0
H457 H 0.1253 0.046 0.36038 0.0
H458 H 0.13146 0.01973 0.33042 0.0
H459 H 0.11516 0.02481 0.23107 0.0
H460 H 0.12858 0.95007 0.14577 0.0
H461 H 0.13457 0.97784 0.17149 0.0
H462 H 0.15166 0.97605 0.26979 0.0
C463 C 0.13029 0.03204 0.31828 0.0
C464 C 0.12355 0.01448 0.23947 0.0
C465 C 0.12668 0.04709 0.3355 0.0
C466 C 0.12921 0.95039 0.17082 0.0
C467 C 0.13253 0.96631 0.18555 0.0
C468 C 0.14377 0.98669 0.26103 0.0
C469 C 0.13135 0.03274 0.28575 0.0
C470 C 0.13307 0.01646 0.26711 0.0
C471 C 0.1327 0.96743 0.21806 0.0
C472 C 0.13388 0.98462 0.23386 0.0
H473 H 0.12387 0.0762 0.27599 0.0
H474 H 0.13065 0.05015 0.24613 0.0
H475 H 0.15112 0.00357 0.29833 0.0
H476 H 0.12435 0.92487 0.23496 0.0
H477 H 0.13015 0.95257 0.26054 0.0
C478 C 0.18995 0.87545 0.53467 0.0
C479 C 0.18971 0.87638 0.56718 0.0
C480 C 0.2053 0.87869 0.51822 0.0
C481 C 0.25248 0.8755 0.52776 0.0
H482 H 0.2541 0.89916 0.44842 0.0
C483 C 0.3161 0.87769 0.45787 0.0
C484 C 0.31472 0.87441 0.42597 0.0
C485 C 0.30127 0.88142 0.47548 0.0
C486 C 0.25385 0.89241 0.47044 0.0
H487 H 0.20525 0.88219 0.60784 0.0
H488 H 0.23214 0.8878 0.57903 0.0
H489 H 0.22721 0.89954 0.47882 0.0
H490 H 0.29679 0.87318 0.38724 0.0
H491 H 0.27081 0.87923 0.41806 0.0
H492 H 0.27876 0.86772 0.51909 0.0
C493 C 0.22043 0.88445 0.56633 0.0
C494 C 0.23846 0.89269 0.48789 0.0
C495 C 0.20501 0.88133 0.58281 0.0
C496 C 0.29828 0.87571 0.41177 0.0
C497 C 0.28339 0.87925 0.42948 0.0
C498 C 0.2678 0.87511 0.51026 0.0
C499 C 0.22082 0.88283 0.53389 0.0
C500 C 0.23755 0.88406 0.51659 0.0
C501 C 0.28464 0.88174 0.46172 0.0
C502 C 0.26865 0.88339 0.4812 0.0
H503 H 0.17837 0.87171 0.52191 0.0
H504 H 0.20519 0.87719 0.49328 0.0
H505 H 0.25212 0.86846 0.5495 0.0
H506 H 0.32861 0.87698 0.46945 0.0
H507 H 0.30283 0.8837 0.50007 0.0
C508 C 0.37289 0.06543 0.71442 0.0
C509 C 0.37491 0.06418 0.68217 0.0
C510 C 0.36951 0.05058 0.73219 0.0
C511 C 0.35706 0.00355 0.72784 0.0
H512 H 0.38413 0.00065 0.80352 0.0
C513 C 0.37436 0.93878 0.789 0.0
C514 C 0.37501 0.93846 0.82153 0.0
C515 C 0.3709 0.95431 0.77319 0.0
C516 C 0.37622 0.00134 0.78277 0.0
H517 H 0.37424 0.04647 0.64308 0.0
H518 H 0.36877 0.02044 0.67414 0.0
H519 H 0.38445 0.02741 0.77345 0.0
H520 H 0.37173 0.95404 0.86302 0.0
H521 H 0.36569 0.98121 0.83535 0.0
H522 H 0.34941 0.97712 0.73682 0.0
C523 C 0.36949 0.03294 0.68573 0.0
C524 C 0.37638 0.01673 0.76547 0.0
C525 C 0.3727 0.04786 0.66788 0.0
C526 C 0.37136 0.95386 0.83795 0.0
C527 C 0.36801 0.96944 0.82211 0.0
C528 C 0.35699 0.98809 0.74511 0.0
C529 C 0.36827 0.03406 0.71821 0.0
C530 C 0.36696 0.018 0.73759 0.0
C531 C 0.36811 0.96991 0.78954 0.0
C532 C 0.36673 0.98675 0.7726 0.0
H533 H 0.37433 0.07785 0.7261 0.0
H534 H 0.36823 0.05203 0.75703 0.0
H535 H 0.34944 0.00414 0.70676 0.0
H536 H 0.37707 0.92713 0.77564 0.0
H537 H 0.37123 0.95423 0.74812 0.0
C538 C 0.18871 0.12624 0.96083 0.0
C539 C 0.18842 0.12665 0.92828 0.0
C540 C 0.20418 0.12267 0.97674 0.0
C541 C 0.25128 0.12725 0.96702 0.0
H542 H 0.25373 0.10105 0.04373 0.0
C543 C 0.3153 0.12383 0.03551 0.0
C544 C 0.31404 0.12612 0.0677 0.0
C545 C 0.30044 0.12042 0.0178 0.0
C546 C 0.25325 0.1085 0.02245 0.0
H547 H 0.20398 0.12279 0.88691 0.0
H548 H 0.23103 0.11656 0.91475 0.0
H549 H 0.2267 0.10114 0.01369 0.0
H550 H 0.29631 0.12587 0.10678 0.0
H551 H 0.27026 0.12036 0.07584 0.0
H552 H 0.27746 0.13521 0.97611 0.0
C553 C 0.21929 0.11916 0.92793 0.0
C554 C 0.23778 0.10851 0.0052 0.0
C555 C 0.20377 0.12262 0.91198 0.0
C556 C 0.29771 0.12412 0.08202 0.0
C557 C 0.28277 0.12089 0.06424 0.0
C558 C 0.26668 0.12734 0.98431 0.0
C559 C 0.21974 0.11951 0.96049 0.0
C560 C 0.23657 0.11805 0.97746 0.0
C561 C 0.28389 0.11942 0.03179 0.0
C562 C 0.26783 0.11813 0.01244 0.0
H563 H 0.1771 0.12924 0.9741 0.0
H564 H 0.2041 0.12319 0.0018 0.0
H565 H 0.2507 0.135 0.94607 0.0
H566 H 0.32774 0.1251 0.02381 0.0
H567 H 0.30189 0.11893 0.993 0.0
C568 C 0.87285 0.95387 0.66042 0.0
C569 C 0.87701 0.93887 0.67761 0.0
C570 C 0.86918 0.96962 0.67547 0.0
C571 C 0.85824 0.98939 0.75155 0.0
H572 H 0.88512 0.02855 0.72077 0.0
C573 C 0.87401 0.05035 0.82558 0.0
C574 C 0.87622 0.06643 0.81049 0.0
C575 C 0.87064 0.03519 0.8085 0.0
C576 C 0.87719 0.01792 0.72942 0.0
H577 H 0.8796 0.92838 0.72405 0.0
H578 H 0.87319 0.95578 0.75019 0.0
H579 H 0.88494 0.00133 0.69207 0.0
H580 H 0.87539 0.07949 0.76597 0.0
H581 H 0.86897 0.05327 0.73637 0.0
H582 H 0.85069 0.00595 0.7892 0.0
C583 C 0.87273 0.95541 0.72513 0.0
C584 C 0.87712 0.00226 0.7129 0.0
C585 C 0.87651 0.93972 0.71012 0.0
C586 C 0.87398 0.06724 0.77824 0.0
C587 C 0.87041 0.05217 0.76124 0.0
C588 C 0.8582 0.00512 0.76802 0.0
C589 C 0.86946 0.97064 0.70799 0.0
C590 C 0.86787 0.98773 0.724 0.0
C591 C 0.86924 0.03585 0.776 0.0
C592 C 0.8679 0.01952 0.75739 0.0
H593 H 0.87308 0.95364 0.63535 0.0
H594 H 0.86651 0.98111 0.66164 0.0
H595 H 0.85084 0.97846 0.76053 0.0
H596 H 0.87571 0.04931 0.85041 0.0
H597 H 0.86997 0.02286 0.82068 0.0
C598 C 0.79678 0.12095 0.42017 0.0
C599 C 0.81301 0.1238 0.43437 0.0
C600 C 0.78192 0.1177 0.43814 0.0
C601 C 0.76549 0.1255 0.51751 0.0
H602 H 0.72642 0.09738 0.49 0.0
C603 C 0.70269 0.12052 0.58997 0.0
C604 C 0.68729 0.12387 0.57334 0.0
C605 C 0.71831 0.11706 0.57434 0.0
C606 C 0.73725 0.10528 0.49797 0.0
H607 H 0.82665 0.1243 0.47833 0.0
H608 H 0.80095 0.1181 0.50952 0.0
H609 H 0.75348 0.09747 0.46004 0.0
H610 H 0.676 0.1252 0.52734 0.0
H611 H 0.70318 0.11915 0.50018 0.0
H612 H 0.74923 0.13349 0.55515 0.0
C613 C 0.7995 0.11893 0.48462 0.0
C614 C 0.75273 0.10538 0.48076 0.0
C615 C 0.81428 0.12238 0.46671 0.0
C616 C 0.68764 0.12274 0.54085 0.0
C617 C 0.70321 0.11917 0.52526 0.0
C618 C 0.75009 0.12529 0.53478 0.0
C619 C 0.78302 0.11706 0.47068 0.0
C620 C 0.76698 0.1157 0.49008 0.0
C621 C 0.71881 0.11674 0.54178 0.0
C622 C 0.7357 0.11539 0.52499 0.0
H623 H 0.79538 0.12202 0.39528 0.0
H624 H 0.76945 0.11648 0.42656 0.0
H625 H 0.77601 0.13389 0.52514 0.0
H626 H 0.70284 0.12126 0.61502 0.0
H627 H 0.73009 0.11504 0.58772 0.0
C628 C 0.62794 0.95297 0.33374 0.0
C629 C 0.62547 0.93658 0.31989 0.0
C630 C 0.6312 0.96772 0.3155 0.0
C631 C 0.62396 0.98346 0.23556 0.0
H632 H 0.65125 0.0231 0.26309 0.0
C633 C 0.62856 0.04615 0.16236 0.0
C634 C 0.62503 0.06158 0.17877 0.0
C635 C 0.63201 0.03059 0.17823 0.0
C636 C 0.64358 0.01212 0.2551 0.0
H637 H 0.62566 0.92258 0.27627 0.0
H638 H 0.63185 0.94811 0.24462 0.0
H639 H 0.65133 0.99622 0.29352 0.0
H640 H 0.62329 0.07299 0.22464 0.0
H641 H 0.62931 0.04594 0.25218 0.0
H642 H 0.61601 0.9994 0.19745 0.0
C643 C 0.63073 0.94975 0.26945 0.0
C644 C 0.64358 0.99673 0.27258 0.0
C645 C 0.6273 0.93507 0.28763 0.0
C646 C 0.6259 0.06132 0.21129 0.0
C647 C 0.62946 0.04582 0.22711 0.0
C648 C 0.62406 0.99877 0.21803 0.0
C649 C 0.63222 0.96636 0.28302 0.0
C650 C 0.63355 0.98228 0.26328 0.0
C651 C 0.63214 0.03019 0.2108 0.0
C652 C 0.63364 0.01338 0.22783 0.0
H653 H 0.62655 0.95457 0.35853 0.0
H654 H 0.63211 0.9803 0.32679 0.0
H655 H 0.6158 0.97277 0.2279 0.0
H656 H 0.62802 0.04592 0.13731 0.0
H657 H 0.63422 0.01879 0.16501 0.0
C658 C 0.68513 0.87727 0.96479 0.0
C659 C 0.68612 0.87554 0.93245 0.0
C660 C 0.70008 0.88079 0.98219 0.0
C661 C 0.74684 0.89409 0.97678 0.0
H662 H 0.75103 0.86599 0.05109 0.0
C663 C 0.81256 0.87649 0.03428 0.0
C664 C 0.81329 0.87508 0.06671 0.0
C665 C 0.79682 0.88021 0.01936 0.0
C666 C 0.74998 0.87419 0.03075 0.0
H667 H 0.70344 0.8769 0.89285 0.0
H668 H 0.72964 0.88263 0.92326 0.0
H669 H 0.72391 0.86574 0.02209 0.0
H670 H 0.79823 0.87738 0.10902 0.0
H671 H 0.7707 0.88392 0.08293 0.0
H672 H 0.77328 0.90198 0.98505 0.0
C673 C 0.71727 0.88157 0.9352 0.0
C674 C 0.73439 0.87407 0.01406 0.0
C675 C 0.70225 0.87821 0.91774 0.0
C676 C 0.7981 0.87832 0.084 0.0
C677 C 0.78231 0.88196 0.06905 0.0
C678 C 0.76251 0.89414 0.99344 0.0
C679 C 0.71644 0.88247 0.96774 0.0
C680 C 0.73266 0.88384 0.98664 0.0
C681 C 0.78141 0.88253 0.03652 0.0
C682 C 0.76433 0.88401 0.02041 0.0
H683 H 0.67285 0.87548 0.9768 0.0
H684 H 0.69885 0.88182 0.00711 0.0
H685 H 0.7459 0.90197 0.95604 0.0
H686 H 0.82404 0.87411 0.02026 0.0
H687 H 0.79657 0.88042 0.99429 0.0
C688 C 0.62736 0.4518 0.66612 0.0
C689 C 0.62492 0.43568 0.68099 0.0
C690 C 0.63082 0.46686 0.68341 0.0
C691 C 0.62413 0.48404 0.76248 0.0
H692 H 0.65136 0.52309 0.73214 0.0
C693 C 0.62901 0.54795 0.83185 0.0
C694 C 0.62535 0.56307 0.81462 0.0
C695 C 0.6325 0.53214 0.81683 0.0
C696 C 0.64372 0.51228 0.7409 0.0
H697 H 0.62538 0.42247 0.72539 0.0
H698 H 0.63192 0.44854 0.75537 0.0
H699 H 0.65121 0.49566 0.70331 0.0
H700 H 0.62346 0.57368 0.76816 0.0
H701 H 0.62953 0.54618 0.74208 0.0
H702 H 0.61641 0.5007 0.79974 0.0
C703 C 0.63062 0.44973 0.73049 0.0
C704 C 0.64358 0.49658 0.72434 0.0
C705 C 0.62699 0.43474 0.71327 0.0
C706 C 0.62617 0.56225 0.78213 0.0
C707 C 0.62976 0.5465 0.76715 0.0
C708 C 0.62435 0.49967 0.77908 0.0
C709 C 0.63207 0.46608 0.71591 0.0
C710 C 0.63356 0.48233 0.73468 0.0
C711 C 0.63252 0.53117 0.7843 0.0
C712 C 0.63392 0.51407 0.76825 0.0
H713 H 0.62579 0.45295 0.64128 0.0
H714 H 0.63169 0.47922 0.67137 0.0
H715 H 0.61598 0.47352 0.7709 0.0
H716 H 0.62852 0.54814 0.85691 0.0
H717 H 0.63479 0.52059 0.83069 0.0
C718 C 0.81327 0.37396 0.96979 0.0
C719 C 0.81409 0.37457 0.93729 0.0
C720 C 0.79758 0.37714 0.98524 0.0
C721 C 0.75068 0.37313 0.97349 0.0
H722 H 0.74735 0.39838 0.05107 0.0
C723 C 0.68586 0.37579 0.03986 0.0
C724 C 0.68674 0.37338 0.07206 0.0
C725 C 0.70093 0.37929 0.02275 0.0
C726 C 0.74808 0.39117 0.02955 0.0
H727 H 0.79921 0.37966 0.89556 0.0
H728 H 0.7717 0.38511 0.92262 0.0
H729 H 0.77475 0.39854 0.02212 0.0
H730 H 0.704 0.37341 0.11178 0.0
H731 H 0.73041 0.37902 0.08189 0.0
H732 H 0.72439 0.36511 0.98128 0.0
C733 C 0.78324 0.3821 0.93608 0.0
C734 C 0.76376 0.39133 0.01292 0.0
C735 C 0.799 0.37907 0.92061 0.0
C736 C 0.70291 0.37527 0.08699 0.0
C737 C 0.71805 0.37856 0.06981 0.0
C738 C 0.73508 0.37285 0.99019 0.0
C739 C 0.7823 0.38087 0.96854 0.0
C740 C 0.76528 0.38215 0.98487 0.0
C741 C 0.71731 0.38022 0.03735 0.0
C742 C 0.7336 0.3817 0.01863 0.0
H743 H 0.82467 0.37058 0.98333 0.0
H744 H 0.79725 0.37594 0.01023 0.0
H745 H 0.75152 0.36568 0.95223 0.0
H746 H 0.67356 0.37461 0.02771 0.0
H747 H 0.69976 0.38093 0.99793 0.0
C748 C 0.87623 0.43622 0.27883 0.0
C749 C 0.87636 0.43544 0.31135 0.0
C750 C 0.87288 0.45194 0.26355 0.0
C751 C 0.87768 0.49882 0.27474 0.0
H752 H 0.85062 0.50229 0.19912 0.0
C753 C 0.87428 0.56351 0.20785 0.0
C754 C 0.87586 0.56248 0.1755 0.0
C755 C 0.87102 0.54855 0.22543 0.0
C756 C 0.85834 0.50153 0.22008 0.0
H757 H 0.87244 0.45043 0.35335 0.0
H758 H 0.86671 0.47798 0.32659 0.0
H759 H 0.85086 0.47496 0.22824 0.0
H760 H 0.8746 0.54505 0.13607 0.0
H761 H 0.8694 0.51885 0.16671 0.0
H762 H 0.88581 0.52501 0.26615 0.0
C763 C 0.86926 0.46639 0.31297 0.0
C764 C 0.8584 0.48588 0.23681 0.0
C765 C 0.87244 0.4506 0.32827 0.0
C766 C 0.87338 0.54628 0.16096 0.0
C767 C 0.87032 0.53125 0.17859 0.0
C768 C 0.87774 0.51439 0.25791 0.0
C769 C 0.86973 0.46728 0.28044 0.0
C770 C 0.86824 0.4843 0.26413 0.0
C771 C 0.86949 0.53213 0.21113 0.0
C772 C 0.86824 0.51592 0.23015 0.0
H773 H 0.87916 0.42476 0.2651 0.0
H774 H 0.87349 0.45222 0.2385 0.0
H775 H 0.88563 0.49794 0.29542 0.0
H776 H 0.87595 0.57585 0.21973 0.0
H777 H 0.87003 0.54984 0.25033 0.0
C778 C 0.69107 0.6241 0.4604 0.0
C779 C 0.69035 0.62569 0.42799 0.0
C780 C 0.70687 0.62063 0.47531 0.0
C781 C 0.75356 0.62776 0.46438 0.0
H782 H 0.75812 0.59943 0.53835 0.0
C783 C 0.81832 0.62563 0.53083 0.0
C784 C 0.81721 0.62699 0.56321 0.0
C785 C 0.8035 0.62194 0.51318 0.0
C786 C 0.75704 0.60747 0.51783 0.0
H787 H 0.70551 0.62401 0.38571 0.0
H788 H 0.73315 0.61793 0.4118 0.0
H789 H 0.73081 0.59906 0.50915 0.0
H790 H 0.79983 0.62479 0.60261 0.0
H791 H 0.77385 0.61876 0.57181 0.0
H792 H 0.77941 0.63674 0.47348 0.0
C793 C 0.72148 0.61953 0.42566 0.0
C794 C 0.74141 0.60721 0.50105 0.0
C795 C 0.70563 0.6229 0.41071 0.0
C796 C 0.80112 0.62378 0.5777 0.0
C797 C 0.78622 0.62025 0.55999 0.0
C798 C 0.76912 0.6281 0.4812 0.0
C799 C 0.72234 0.61876 0.45817 0.0
C800 C 0.73943 0.61753 0.47435 0.0
C801 C 0.78715 0.61971 0.52744 0.0
C802 C 0.77101 0.61813 0.50837 0.0
H803 H 0.67952 0.62612 0.47441 0.0
H804 H 0.70709 0.62026 0.50037 0.0
H805 H 0.75237 0.63611 0.44425 0.0
H806 H 0.83058 0.62785 0.51898 0.0
H807 H 0.80482 0.62121 0.48825 0.0
C808 C 0.37267 0.45377 0.16395 0.0
C809 C 0.3761 0.43825 0.18017 0.0
C810 C 0.36949 0.46932 0.18 0.0
C811 C 0.35855 0.4878 0.2571 0.0
H812 H 0.38689 0.52672 0.22969 0.0
C813 C 0.37502 0.54683 0.33551 0.0
C814 C 0.37775 0.56316 0.32155 0.0
C815 C 0.37158 0.53209 0.31735 0.0
C816 C 0.37857 0.51616 0.23741 0.0
H817 H 0.37791 0.42667 0.22591 0.0
H818 H 0.37232 0.45371 0.25378 0.0
H819 H 0.38616 0.50012 0.19921 0.0
H820 H 0.37784 0.57708 0.27784 0.0
H821 H 0.37131 0.55159 0.24635 0.0
H822 H 0.35113 0.5038 0.29558 0.0
C823 C 0.37206 0.45391 0.22871 0.0
C824 C 0.37818 0.50086 0.21987 0.0
C825 C 0.37537 0.43841 0.2127 0.0
C826 C 0.37601 0.56463 0.28927 0.0
C827 C 0.37238 0.54997 0.27118 0.0
C828 C 0.35883 0.50318 0.27459 0.0
C829 C 0.36952 0.46962 0.21257 0.0
C830 C 0.36838 0.48641 0.22972 0.0
C831 C 0.37063 0.53341 0.28486 0.0
C832 C 0.36906 0.51748 0.2652 0.0
H833 H 0.37312 0.45408 0.13889 0.0
H834 H 0.36737 0.48119 0.16691 0.0
H835 H 0.35073 0.47693 0.26514 0.0
H836 H 0.37634 0.54527 0.36032 0.0
H837 H 0.37047 0.51955 0.32873 0.0
C838 C 0.1851 0.62357 0.0297 0.0
C839 C 0.18587 0.62474 0.06212 0.0
C840 C 0.20018 0.62051 0.01239 0.0
C841 C 0.24707 0.60758 0.01809 0.0
H842 H 0.25103 0.63577 0.94383 0.0
C843 C 0.31255 0.62534 0.9594 0.0
C844 C 0.31311 0.62624 0.9269 0.0
C845 C 0.29689 0.62179 0.97475 0.0
C846 C 0.25005 0.62757 0.96419 0.0
H847 H 0.20295 0.62297 0.10196 0.0
H848 H 0.22943 0.61813 0.07175 0.0
H849 H 0.22397 0.63591 0.97301 0.0
H850 H 0.29785 0.62329 0.88496 0.0
H851 H 0.27046 0.61714 0.91182 0.0
H852 H 0.27356 0.59985 0.00966 0.0
C853 C 0.21712 0.61923 0.05963 0.0
C854 C 0.23448 0.62761 0.98097 0.0
C855 C 0.20195 0.62208 0.07699 0.0
C856 C 0.29784 0.62273 0.91002 0.0
C857 C 0.28214 0.61931 0.9254 0.0
C858 C 0.26273 0.60765 0.00138 0.0
C859 C 0.21648 0.6188 0.02704 0.0
C860 C 0.2328 0.61775 0.00831 0.0
C861 C 0.28142 0.61918 0.95795 0.0
C862 C 0.26443 0.61778 0.97438 0.0
H863 H 0.17286 0.62535 0.01757 0.0
H864 H 0.19908 0.6198 0.98743 0.0
H865 H 0.24619 0.59963 0.03875 0.0
H866 H 0.32409 0.62793 0.9731 0.0
H867 H 0.29675 0.62191 0.99983 0.0
C868 C 0.12916 0.4541 0.84599 0.0
C869 C 0.12503 0.43897 0.82915 0.0
C870 C 0.13242 0.46985 0.83062 0.0
C871 C 0.14278 0.48947 0.75432 0.0
H872 H 0.11559 0.52848 0.78482 0.0
C873 C 0.12812 0.55084 0.6804 0.0
C874 C 0.12587 0.56688 0.69561 0.0
C875 C 0.131 0.53555 0.69741 0.0
C876 C 0.12359 0.51789 0.77624 0.0
H877 H 0.12206 0.42827 0.78295 0.0
H878 H 0.12784 0.45567 0.75623 0.0
H879 H 0.11588 0.50126 0.81359 0.0
H880 H 0.126 0.57968 0.74037 0.0
H881 H 0.13162 0.55323 0.76987 0.0
H882 H 0.15041 0.50608 0.7168 0.0
C883 C 0.12855 0.4554 0.78127 0.0
C884 C 0.12372 0.50224 0.79279 0.0
C885 C 0.12513 0.43971 0.79662 0.0
C886 C 0.12747 0.56747 0.72799 0.0
C887 C 0.13057 0.55226 0.74493 0.0
C888 C 0.14279 0.50521 0.73786 0.0
C889 C 0.1318 0.47074 0.7981 0.0
C890 C 0.13312 0.48778 0.78184 0.0
C891 C 0.13188 0.53601 0.72998 0.0
C892 C 0.13301 0.51958 0.74841 0.0
H893 H 0.1292 0.45396 0.87107 0.0
H894 H 0.13507 0.48143 0.8442 0.0
H895 H 0.15027 0.47858 0.74545 0.0
H896 H 0.12689 0.54997 0.65546 0.0
H897 H 0.13177 0.52329 0.68505 0.0
C898 C 0.20135 0.37617 0.42415 0.0
C899 C 0.18521 0.37368 0.43891 0.0
C900 C 0.21639 0.37956 0.44155 0.0
C901 C 0.23343 0.37277 0.52079 0.0
H902 H 0.27249 0.40014 0.49087 0.0
C903 C 0.29694 0.3784 0.59124 0.0
C904 C 0.31219 0.3748 0.57435 0.0
C905 C 0.28119 0.38164 0.57588 0.0
C906 C 0.26167 0.39245 0.49952 0.0
H907 H 0.17194 0.37396 0.48326 0.0
H908 H 0.19795 0.38039 0.51343 0.0
H909 H 0.24517 0.39986 0.4617 0.0
H910 H 0.32308 0.37274 0.52811 0.0
H911 H 0.29567 0.37841 0.50144 0.0
H912 H 0.24996 0.36518 0.55832 0.0
C913 C 0.19919 0.37918 0.48855 0.0
C914 C 0.24604 0.39224 0.48276 0.0
C915 C 0.18423 0.37561 0.47121 0.0
C916 C 0.31155 0.37541 0.54183 0.0
C917 C 0.29585 0.37877 0.5265 0.0
C918 C 0.24899 0.37308 0.5376 0.0
C919 C 0.21556 0.38069 0.47407 0.0
C920 C 0.23178 0.38219 0.49296 0.0
C921 C 0.2804 0.38149 0.54333 0.0
C922 C 0.26338 0.38271 0.52695 0.0
H923 H 0.20253 0.3747 0.3993 0.0
H924 H 0.22876 0.38049 0.42958 0.0
H925 H 0.22292 0.36458 0.52911 0.0
H926 H 0.297 0.37806 0.61631 0.0
H927 H 0.26953 0.3839 0.58949 0.0
C928 C 0.12628 0.16508 0.41096 0.0
C929 C 0.1248 0.15404 0.38508 0.0
C930 C 0.13176 0.18234 0.4075 0.0
C931 C 0.13293 0.21758 0.35016 0.0
H932 H 0.16271 0.24027 0.41054 0.0
C933 C 0.15065 0.2904 0.33967 0.0
C934 C 0.14943 0.30024 0.36707 0.0
C935 C 0.15021 0.27218 0.34066 0.0
C936 C 0.1543 0.23415 0.39358 0.0
H937 H 0.1284 0.15242 0.33532 0.0
H938 H 0.138 0.18262 0.32933 0.0
H939 H 0.15735 0.20895 0.41434 0.0
H940 H 0.14734 0.29857 0.41709 0.0
H941 H 0.14632 0.26685 0.41875 0.0
H942 H 0.1295 0.24278 0.32983 0.0
C943 C 0.13476 0.1779 0.35226 0.0
C944 C 0.15125 0.21621 0.39574 0.0
C945 C 0.12934 0.16058 0.35573 0.0
C946 C 0.14832 0.29142 0.39554 0.0
C947 C 0.14784 0.2732 0.39651 0.0
C948 C 0.13595 0.23552 0.34803 0.0
C949 C 0.13584 0.18903 0.37808 0.0
C950 C 0.14033 0.20777 0.37431 0.0
C951 C 0.1485 0.26336 0.36904 0.0
C952 C 0.14648 0.24407 0.36997 0.0
H953 H 0.12292 0.16049 0.43391 0.0
H954 H 0.13225 0.19062 0.4278 0.0
H955 H 0.12426 0.21153 0.33354 0.0
H956 H 0.15164 0.29676 0.31734 0.0
H957 H 0.15103 0.265 0.31911 0.0
C958 C 0.95956 0.90269 0.63975 0.0
C959 C 0.95103 0.90074 0.61115 0.0
C960 C 0.97776 0.90232 0.64142 0.0
C961 C 0.01833 0.90533 0.59452 0.0
H962 H 0.03757 0.87754 0.66129 0.0
C963 C 0.09035 0.88122 0.59917 0.0
C964 C 0.09834 0.8807 0.62846 0.0
C965 C 0.07272 0.8858 0.59633 0.0
C966 C 0.03245 0.88557 0.64274 0.0
H967 H 0.95504 0.89747 0.56172 0.0
H968 H 0.98675 0.89659 0.56476 0.0
H969 H 0.00623 0.88176 0.658 0.0
H970 H 0.09437 0.8857 0.67745 0.0
H971 H 0.06391 0.89388 0.6724 0.0
H972 H 0.0447 0.90883 0.57906 0.0
C973 C 0.97938 0.89859 0.58585 0.0
C974 C 0.01446 0.88801 0.64088 0.0
C975 C 0.96116 0.899 0.58416 0.0
C976 C 0.08859 0.88571 0.65456 0.0
C977 C 0.07107 0.89033 0.65171 0.0
C978 C 0.0364 0.90286 0.59636 0.0
C979 C 0.98788 0.89994 0.61458 0.0
C980 C 0.00715 0.89792 0.61678 0.0
C981 C 0.06279 0.88998 0.62272 0.0
C982 C 0.04366 0.89296 0.62056 0.0
H983 H 0.95218 0.90419 0.66097 0.0
H984 H 0.98392 0.90372 0.66386 0.0
H985 H 0.01312 0.91316 0.5758 0.0
H986 H 0.0975 0.87743 0.57861 0.0
H987 H 0.0667 0.88535 0.57366 0.0
C988 C 0.36891 0.84 0.85288 0.0
C989 C 0.37367 0.84628 0.88227 0.0
C990 C 0.36358 0.82267 0.84907 0.0
C991 C 0.34783 0.78378 0.8919 0.0
H992 H 0.36939 0.75805 0.82476 0.0
C993 C 0.35158 0.70861 0.88966 0.0
C994 C 0.35029 0.70001 0.861 0.0
C995 C 0.35192 0.72683 0.89109 0.0
C996 C 0.36299 0.76507 0.84331 0.0
H997 H 0.37597 0.83941 0.93088 0.0
H998 H 0.36677 0.80928 0.92417 0.0
H999 H 0.37427 0.78933 0.82915 0.0
H1000 H 0.34767 0.7039 0.81143 0.0
H1001 H 0.34804 0.73565 0.81401 0.0
H1002 H 0.33679 0.75944 0.90636 0.0
C1003 C 0.36704 0.81775 0.90409 0.0
C1004 C 0.3658 0.78303 0.84583 0.0
C1005 C 0.37244 0.83501 0.90788 0.0
C1006 C 0.34879 0.71008 0.83389 0.0
C1007 C 0.3491 0.7283 0.83533 0.0
C1008 C 0.34499 0.76582 0.88935 0.0
C1009 C 0.36279 0.8113 0.87459 0.0
C1010 C 0.35847 0.79254 0.87041 0.0
C1011 C 0.35095 0.73689 0.8639 0.0
C1012 C 0.35275 0.7562 0.86529 0.0
H1013 H 0.36966 0.84833 0.83267 0.0
H1014 H 0.3602 0.81813 0.8261 0.0
H1015 H 0.34179 0.79079 0.91085 0.0
H1016 H 0.35277 0.70128 0.911 0.0
H1017 H 0.35356 0.733 0.91345 0.0
C1018 C 0.41204 0.12195 0.10684 0.0
C1019 C 0.40455 0.12544 0.13591 0.0
C1020 C 0.42957 0.11701 0.10451 0.0
C1021 C 0.47089 0.12022 0.14812 0.0
H1022 H 0.48788 0.08719 0.08719 0.0
C1023 C 0.54313 0.10039 0.14373 0.0
C1024 C 0.55102 0.10054 0.11433 0.0
C1025 C 0.52501 0.1014 0.14666 0.0
C1026 C 0.48332 0.09651 0.10421 0.0
H1027 H 0.40939 0.1256 0.18542 0.0
H1028 H 0.43974 0.11667 0.18139 0.0
H1029 H 0.45654 0.09254 0.09182 0.0
H1030 H 0.54591 0.10117 0.06491 0.0
H1031 H 0.51429 0.10303 0.0701 0.0
H1032 H 0.49759 0.12431 0.16039 0.0
C1033 C 0.43224 0.11819 0.16031 0.0
C1034 C 0.46538 0.0996 0.10683 0.0
C1035 C 0.41478 0.12322 0.16263 0.0
C1036 C 0.54029 0.10106 0.08791 0.0
C1037 C 0.52214 0.10203 0.09087 0.0
C1038 C 0.48877 0.11709 0.14557 0.0
C1039 C 0.43996 0.11536 0.13121 0.0
C1040 C 0.45895 0.11154 0.12878 0.0
C1041 C 0.51432 0.10255 0.12029 0.0
C1042 C 0.49521 0.10525 0.12354 0.0
H1043 H 0.40452 0.12356 0.0858 0.0
H1044 H 0.43513 0.11508 0.08171 0.0
H1045 H 0.46647 0.12979 0.16481 0.0
H1046 H 0.55097 0.09989 0.16458 0.0
H1047 H 0.51936 0.10149 0.16965 0.0
C1048 C 0.14786 0.70432 0.1102 0.0
C1049 C 0.14584 0.69546 0.13849 0.0
C1050 C 0.14746 0.72253 0.10912 0.0
C1051 C 0.15124 0.7625 0.15671 0.0
H1052 H 0.12259 0.78265 0.09196 0.0
C1053 C 0.12871 0.83486 0.15607 0.0
C1054 C 0.12711 0.8432 0.12721 0.0
C1055 C 0.13307 0.81714 0.15772 0.0
C1056 C 0.13089 0.77731 0.10989 0.0
H1057 H 0.14239 0.69889 0.188 0.0
H1058 H 0.14159 0.7307 0.18601 0.0
H1059 H 0.12645 0.75123 0.09428 0.0
H1060 H 0.12991 0.83975 0.07759 0.0
H1061 H 0.13787 0.8091 0.08052 0.0
H1062 H 0.15555 0.78868 0.17241 0.0
C1063 C 0.14359 0.72352 0.16471 0.0
C1064 C 0.13308 0.75925 0.11123 0.0
C1065 C 0.14395 0.70528 0.1658 0.0
C1066 C 0.1308 0.83368 0.10019 0.0
C1067 C 0.13527 0.81606 0.10185 0.0
C1068 C 0.14909 0.78063 0.1553 0.0
C1069 C 0.14506 0.73233 0.13628 0.0
C1070 C 0.14325 0.75162 0.13466 0.0
C1071 C 0.13602 0.80744 0.13056 0.0
C1072 C 0.13886 0.78824 0.13187 0.0
H1073 H 0.14946 0.6972 0.08872 0.0
H1074 H 0.14891 0.72894 0.08691 0.0
H1075 H 0.15928 0.75701 0.17488 0.0
H1076 H 0.12593 0.84182 0.17733 0.0
H1077 H 0.13343 0.8109 0.18021 0.0
C1078 C 0.54342 0.90668 0.36385 0.0
C1079 C 0.55141 0.90029 0.39082 0.0
C1080 C 0.52528 0.906 0.36046 0.0
C1081 C 0.48388 0.89684 0.40407 0.0
H1082 H 0.46654 0.88632 0.32193 0.0
C1083 C 0.41036 0.88516 0.38164 0.0
C1084 C 0.406 0.87232 0.35978 0.0
C1085 C 0.42764 0.89083 0.38471 0.0
C1086 C 0.47113 0.88907 0.34513 0.0
H1087 H 0.54667 0.88837 0.43556 0.0
H1088 H 0.51527 0.8864 0.42916 0.0
H1089 H 0.49736 0.8917 0.32937 0.0
H1090 H 0.41632 0.85524 0.32419 0.0
H1091 H 0.44637 0.86446 0.33042 0.0
H1092 H 0.45782 0.89294 0.42015 0.0
C1093 C 0.5228 0.89251 0.41095 0.0
C1094 C 0.48886 0.89251 0.34933 0.0
C1095 C 0.54088 0.89353 0.41458 0.0
C1096 C 0.41923 0.8653 0.34105 0.0
C1097 C 0.4365 0.87072 0.34449 0.0
C1098 C 0.46619 0.89307 0.39996 0.0
C1099 C 0.51473 0.89856 0.38369 0.0
C1100 C 0.49556 0.89624 0.37893 0.0
C1101 C 0.44099 0.88357 0.36636 0.0
C1102 C 0.45959 0.88888 0.37048 0.0
H1103 H 0.55119 0.91213 0.34527 0.0
H1104 H 0.51959 0.91119 0.33946 0.0
H1105 H 0.48841 0.90002 0.42713 0.0
H1106 H 0.40042 0.8909 0.39626 0.0
H1107 H 0.43048 0.90096 0.40143 0.0
C1108 C 0.37254 0.16654 0.59155 0.0
C1109 C 0.37372 0.15518 0.61705 0.0
C1110 C 0.36722 0.18382 0.59551 0.0
C1111 C 0.36624 0.21837 0.65405 0.0
H1112 H 0.33691 0.24219 0.59432 0.0
C1113 C 0.34933 0.29128 0.66725 0.0
C1114 C 0.35051 0.30145 0.64022 0.0
C1115 C 0.34969 0.27307 0.66557 0.0
C1116 C 0.34521 0.23575 0.6111 0.0
H1117 H 0.36971 0.15301 0.66664 0.0
H1118 H 0.36041 0.18324 0.67352 0.0
H1119 H 0.34191 0.21086 0.58933 0.0
H1120 H 0.35248 0.30038 0.59013 0.0
H1121 H 0.35338 0.26869 0.58726 0.0
H1122 H 0.36996 0.24326 0.67535 0.0
C1123 C 0.36376 0.17875 0.65049 0.0
C1124 C 0.34805 0.2178 0.60826 0.0
C1125 C 0.369 0.16141 0.64651 0.0
C1126 C 0.35153 0.29297 0.61142 0.0
C1127 C 0.35194 0.27476 0.60976 0.0
C1128 C 0.36346 0.23632 0.65682 0.0
C1129 C 0.36301 0.1902 0.62508 0.0
C1130 C 0.35878 0.20896 0.62948 0.0
C1131 C 0.35126 0.26459 0.63684 0.0
C1132 C 0.35309 0.24528 0.63515 0.0
H1133 H 0.37604 0.16218 0.56851 0.0
H1134 H 0.36697 0.19235 0.57552 0.0
H1135 H 0.37478 0.21199 0.67052 0.0
H1136 H 0.34841 0.29738 0.68981 0.0
H1137 H 0.34885 0.26563 0.68684 0.0
C1138 C 0.08716 0.12323 0.8365 0.0
C1139 C 0.09704 0.12608 0.86344 0.0
C1140 C 0.06963 0.11842 0.83846 0.0
C1141 C 0.03549 0.10162 0.89173 0.0
H1142 H 0.00447 0.12559 0.83496 0.0
C1143 C 0.96035 0.10453 0.90686 0.0
C1144 C 0.95002 0.1037 0.87998 0.0
C1145 C 0.97855 0.10514 0.90473 0.0
C1146 C 0.01295 0.11858 0.85068 0.0
H1147 H 0.09637 0.1255 0.91364 0.0
H1148 H 0.06563 0.11739 0.91707 0.0
H1149 H 0.03571 0.13052 0.83165 0.0
H1150 H 0.95081 0.10208 0.82982 0.0
H1151 H 0.9825 0.10303 0.82618 0.0
H1152 H 0.01252 0.08996 0.91112 0.0
C1153 C 0.07152 0.11867 0.8944 0.0
C1154 C 0.0309 0.1214 0.84878 0.0
C1155 C 0.08913 0.1234 0.89243 0.0
C1156 C 0.95833 0.10285 0.851 0.0
C1157 C 0.97651 0.10348 0.84888 0.0
C1158 C 0.01747 0.09883 0.89369 0.0
C1159 C 0.06148 0.11645 0.86741 0.0
C1160 C 0.04241 0.11297 0.86926 0.0
C1161 C 0.98681 0.10496 0.87568 0.0
C1162 C 0.00601 0.10731 0.87318 0.0
H1163 H 0.09288 0.12497 0.81377 0.0
H1164 H 0.06241 0.11643 0.8172 0.0
H1165 H 0.04401 0.09479 0.90765 0.0
H1166 H 0.95439 0.10517 0.92957 0.0
H1167 H 0.98611 0.1064 0.9258 0.0
C1168 C 0.84971 0.71014 0.66558 0.0
C1169 C 0.85085 0.70054 0.6379 0.0
C1170 C 0.85001 0.72838 0.66505 0.0
C1171 C 0.84517 0.76678 0.61326 0.0
H1172 H 0.87611 0.78909 0.67225 0.0
C1173 C 0.87353 0.83546 0.59461 0.0
C1174 C 0.87567 0.84652 0.6203 0.0
C1175 C 0.86785 0.8183 0.59849 0.0
C1176 C 0.86717 0.78313 0.65596 0.0
H1177 H 0.85258 0.70264 0.58789 0.0
H1178 H 0.85328 0.73438 0.58702 0.0
H1179 H 0.87081 0.75782 0.67581 0.0
H1180 H 0.87301 0.8483 0.67022 0.0
H1181 H 0.86303 0.81825 0.67696 0.0
H1182 H 0.8419 0.79206 0.59295 0.0
C1183 C 0.85198 0.72783 0.60913 0.0
C1184 C 0.86413 0.76518 0.65799 0.0
C1185 C 0.85168 0.7096 0.60964 0.0
C1186 C 0.87155 0.84012 0.64994 0.0
C1187 C 0.86592 0.82288 0.65383 0.0
C1188 C 0.84823 0.78472 0.61121 0.0
C1189 C 0.85143 0.73744 0.63686 0.0
C1190 C 0.85333 0.75674 0.63635 0.0
C1191 C 0.86419 0.81173 0.62816 0.0
C1192 C 0.8595 0.79305 0.63221 0.0
H1193 H 0.84895 0.70359 0.68776 0.0
H1194 H 0.8493 0.73539 0.68679 0.0
H1195 H 0.83654 0.76073 0.59656 0.0
H1196 H 0.87654 0.83994 0.57143 0.0
H1197 H 0.86688 0.81 0.57826 0.0
C1198 C 0.91005 0.11749 0.39881 0.0
C1199 C 0.90349 0.12108 0.36908 0.0
C1200 C 0.92745 0.11243 0.40281 0.0
C1201 C 0.96626 0.09559 0.3609 0.0
H1202 H 0.99206 0.11938 0.42553 0.0
C1203 C 0.04147 0.09972 0.36241 0.0
C1204 C 0.05008 0.09922 0.39115 0.0
C1205 C 0.02325 0.10001 0.36097 0.0
C1206 C 0.98502 0.11237 0.4077 0.0
H1207 H 0.90996 0.12156 0.32014 0.0
H1208 H 0.94022 0.11288 0.32716 0.0
H1209 H 0.96074 0.12392 0.42098 0.0
H1210 H 0.04621 0.09797 0.44089 0.0
H1211 H 0.01445 0.09827 0.4383 0.0
H1212 H 0.99064 0.08429 0.34729 0.0
C1213 C 0.93192 0.11384 0.34739 0.0
C1214 C 0.96704 0.11498 0.4051 0.0
C1215 C 0.91457 0.11893 0.34339 0.0
C1216 C 0.04002 0.09847 0.41835 0.0
C1217 C 0.02181 0.09874 0.4169 0.0
C1218 C 0.98425 0.09296 0.36353 0.0
C1219 C 0.93864 0.11078 0.37716 0.0
C1220 C 0.95748 0.10681 0.38142 0.0
C1221 C 0.0132 0.09978 0.38821 0.0
C1222 C 0.99389 0.1015 0.38671 0.0
H1223 H 0.90188 0.11895 0.4191 0.0
H1224 H 0.93218 0.10995 0.42603 0.0
H1225 H 0.95923 0.0889 0.34269 0.0
H1226 H 0.0488 0.10033 0.34099 0.0
H1227 H 0.01707 0.10101 0.33849 0.0
C1228 C 0.65072 0.29002 0.16894 0.0
C1229 C 0.64961 0.30012 0.14182 0.0
C1230 C 0.65038 0.2718 0.16741 0.0
C1231 C 0.65509 0.23436 0.11332 0.0
H1232 H 0.62523 0.21073 0.17246 0.0
C1233 C 0.62766 0.16526 0.09349 0.0
C1234 C 0.62627 0.15391 0.11896 0.0
C1235 C 0.63305 0.18251 0.09756 0.0
C1236 C 0.63385 0.21707 0.15608 0.0
H1237 H 0.64776 0.29891 0.09173 0.0
H1238 H 0.64691 0.26721 0.08912 0.0
H1239 H 0.63006 0.242 0.1772 0.0
H1240 H 0.62997 0.1517 0.16861 0.0
H1241 H 0.6394 0.18188 0.17568 0.0
H1242 H 0.65847 0.20943 0.09174 0.0
C1243 C 0.64828 0.27335 0.11157 0.0
C1244 C 0.63664 0.23502 0.1588 0.0
C1245 C 0.64866 0.29156 0.11308 0.0
C1246 C 0.63086 0.1601 0.14851 0.0
C1247 C 0.63617 0.17741 0.15259 0.0
C1248 C 0.65226 0.21641 0.11055 0.0
C1249 C 0.64889 0.26325 0.13874 0.0
C1250 C 0.64709 0.24393 0.1372 0.0
C1251 C 0.63712 0.18887 0.1272 0.0
C1252 C 0.64141 0.2076 0.13165 0.0
H1253 H 0.65157 0.29617 0.19146 0.0
H1254 H 0.65115 0.26442 0.18875 0.0
H1255 H 0.66346 0.24076 0.0966 0.0
H1256 H 0.62427 0.16094 0.07039 0.0
H1257 H 0.63345 0.19104 0.07757 0.0
C1258 C 0.58535 0.87856 0.83845 0.0
C1259 C 0.59553 0.87607 0.86515 0.0
C1260 C 0.56786 0.88347 0.84083 0.0
C1261 C 0.5345 0.90127 0.89461 0.0
H1262 H 0.50258 0.87678 0.84019 0.0
C1263 C 0.45956 0.89929 0.91289 0.0
C1264 C 0.44889 0.89987 0.88641 0.0
C1265 C 0.47772 0.89844 0.91006 0.0
C1266 C 0.51132 0.88394 0.85525 0.0
H1267 H 0.59544 0.87735 0.91532 0.0
H1268 H 0.56478 0.88562 0.9195 0.0
H1269 H 0.53374 0.87155 0.83584 0.0
H1270 H 0.44905 0.90077 0.83617 0.0
H1271 H 0.48067 0.89941 0.8313 0.0
H1272 H 0.51187 0.91338 0.91439 0.0
C1273 C 0.5704 0.88399 0.89668 0.0
C1274 C 0.52922 0.88095 0.85275 0.0
C1275 C 0.58796 0.87917 0.89429 0.0
C1276 C 0.45684 0.90021 0.85707 0.0
C1277 C 0.47497 0.89934 0.85425 0.0
C1278 C 0.51653 0.90423 0.89717 0.0
C1279 C 0.56006 0.88589 0.86997 0.0
C1280 C 0.54104 0.88955 0.87239 0.0
C1281 C 0.4856 0.89812 0.88068 0.0
C1282 C 0.50474 0.89557 0.87752 0.0
H1283 H 0.5908 0.87648 0.8156 0.0
H1284 H 0.56039 0.88519 0.81976 0.0
H1285 H 0.54326 0.90825 0.90988 0.0
H1286 H 0.45389 0.89903 0.93586 0.0
H1287 H 0.48553 0.89738 0.93087 0.0
C1288 C 0.85433 0.29521 0.88783 0.0
C1289 C 0.85552 0.30493 0.86029 0.0
C1290 C 0.85444 0.27699 0.88708 0.0
C1291 C 0.86857 0.24018 0.83818 0.0
H1292 H 0.84157 0.21296 0.89679 0.0
C1293 C 0.87246 0.16488 0.84223 0.0
C1294 C 0.8751 0.15787 0.87196 0.0
C1295 C 0.86757 0.18235 0.83856 0.0
C1296 C 0.84921 0.22039 0.88031 0.0
H1297 H 0.85725 0.30303 0.81025 0.0
H1298 H 0.8572 0.27123 0.80895 0.0
H1299 H 0.83759 0.24451 0.89435 0.0
H1300 H 0.87396 0.16357 0.92116 0.0
H1301 H 0.86546 0.19392 0.91472 0.0
H1302 H 0.88037 0.21607 0.82448 0.0
C1303 C 0.85648 0.27772 0.83117 0.0
C1304 C 0.84697 0.23847 0.87896 0.0
C1305 C 0.85642 0.29597 0.83192 0.0
C1306 C 0.87211 0.16854 0.89791 0.0
C1307 C 0.86711 0.18593 0.89424 0.0
C1308 C 0.87076 0.22209 0.83945 0.0
C1309 C 0.85567 0.26801 0.85877 0.0
C1310 C 0.85686 0.24863 0.85828 0.0
C1311 C 0.86506 0.19312 0.86454 0.0
C1312 C 0.86134 0.21203 0.86092 0.0
H1313 H 0.85366 0.30167 0.91011 0.0
H1314 H 0.85406 0.26996 0.90882 0.0
H1315 H 0.87658 0.2476 0.82225 0.0
H1316 H 0.87464 0.15701 0.82176 0.0
H1317 H 0.86593 0.1875 0.81538 0.0
C1318 C 0.5879 0.12095 0.6067 0.0
C1319 C 0.59531 0.12436 0.63585 0.0
C1320 C 0.57032 0.1162 0.60418 0.0
C1321 C 0.52891 0.11998 0.64735 0.0
H1322 H 0.51167 0.08711 0.58638 0.0
C1323 C 0.45649 0.10099 0.64268 0.0
C1324 C 0.44864 0.10121 0.61325 0.0
C1325 C 0.47461 0.1018 0.64566 0.0
C1326 C 0.5163 0.09639 0.60341 0.0
H1327 H 0.5903 0.12456 0.68531 0.0
H1328 H 0.55988 0.11596 0.68095 0.0
H1329 H 0.54307 0.09207 0.59124 0.0
H1330 H 0.4538 0.10174 0.56384 0.0
H1331 H 0.48545 0.10325 0.56913 0.0
H1332 H 0.50224 0.12442 0.65941 0.0
C1333 C 0.56747 0.1174 0.65995 0.0
C1334 C 0.53428 0.09925 0.60617 0.0
C1335 C 0.58496 0.12223 0.66245 0.0
C1336 C 0.4594 0.10158 0.58687 0.0
C1337 C 0.47756 0.10236 0.58987 0.0
C1338 C 0.51101 0.11708 0.64468 0.0
C1339 C 0.55982 0.11468 0.63077 0.0
C1340 C 0.54079 0.11112 0.62815 0.0
C1341 C 0.48534 0.10281 0.61932 0.0
C1342 C 0.50448 0.10529 0.62264 0.0
H1343 H 0.5955 0.12249 0.58574 0.0
H1344 H 0.56482 0.11434 0.58132 0.0
H1345 H 0.53341 0.12951 0.66406 0.0
H1346 H 0.44863 0.10059 0.6635 0.0
H1347 H 0.48024 0.10184 0.66867 0.0
C1348 C 0.65183 0.70835 0.40041 0.0
C1349 C 0.65268 0.7008 0.37079 0.0
C1350 C 0.65103 0.72648 0.40383 0.0
C1351 C 0.65755 0.76853 0.36247 0.0
H1352 H 0.62272 0.78525 0.42042 0.0
C1353 C 0.63076 0.83937 0.3623 0.0
C1354 C 0.6269 0.84699 0.39111 0.0
C1355 C 0.63604 0.82191 0.3605 0.0
C1356 C 0.6327 0.78085 0.40447 0.0
H1357 H 0.65409 0.70647 0.32159 0.0
H1358 H 0.6525 0.73799 0.32759 0.0
H1359 H 0.62845 0.75415 0.41652 0.0
H1360 H 0.62643 0.84246 0.44074 0.0
H1361 H 0.63583 0.81223 0.43758 0.0
H1362 H 0.66153 0.79533 0.3501 0.0
C1363 C 0.6526 0.72993 0.34819 0.0
C1364 C 0.63601 0.76299 0.40226 0.0
C1365 C 0.65342 0.71182 0.34476 0.0
C1366 C 0.62909 0.83697 0.41811 0.0
C1367 C 0.63441 0.81959 0.41632 0.0
C1368 C 0.65423 0.78645 0.36468 0.0
C1369 C 0.65106 0.73746 0.37773 0.0
C1370 C 0.64839 0.75659 0.38114 0.0
C1371 C 0.63762 0.81174 0.38748 0.0
C1372 C 0.64171 0.7928 0.38562 0.0
H1373 H 0.65135 0.70027 0.42096 0.0
H1374 H 0.65014 0.73188 0.42694 0.0
H1375 H 0.66731 0.76403 0.34618 0.0
H1376 H 0.6292 0.84672 0.34105 0.0
H1377 H 0.63829 0.81622 0.3379 0.0
C1378 C 0.91416 0.87559 0.16011 0.0
C1379 C 0.90469 0.8739 0.13239 0.0
C1380 C 0.93171 0.88041 0.15963 0.0
C1381 C 0.96659 0.89941 0.1104 0.0
H1382 H 0.99689 0.87302 0.165 0.0
C1383 C 0.04179 0.89713 0.09741 0.0
C1384 C 0.0519 0.89676 0.12459 0.0
C1385 C 0.02359 0.89639 0.09896 0.0
C1386 C 0.9886 0.88071 0.14994 0.0
H1387 H 0.90614 0.87654 0.08246 0.0
H1388 H 0.93693 0.8847 0.08159 0.0
H1389 H 0.96559 0.86802 0.16639 0.0
H1390 H 0.05071 0.89604 0.17478 0.0
H1391 H 0.01896 0.89487 0.17743 0.0
H1392 H 0.98979 0.91184 0.09358 0.0
C1393 C 0.93069 0.88249 0.10374 0.0
C1394 C 0.97063 0.87785 0.15073 0.0
C1395 C 0.91305 0.87773 0.10423 0.0
C1396 C 0.04335 0.89623 0.15338 0.0
C1397 C 0.02515 0.89546 0.15491 0.0
C1398 C 0.98463 0.90225 0.10956 0.0
C1399 C 0.94031 0.88357 0.13143 0.0
C1400 C 0.95939 0.88712 0.13095 0.0
C1401 C 0.01507 0.89524 0.12771 0.0
C1402 C 0.99584 0.89288 0.12928 0.0
H1403 H 0.90809 0.87293 0.18226 0.0
H1404 H 0.93862 0.88149 0.18143 0.0
H1405 H 0.95829 0.90691 0.0951 0.0
H1406 H 0.04794 0.89756 0.07484 0.0
H1407 H 0.01622 0.89609 0.07757 0.0
C1408 C 0.65022 0.79339 0.89119 0.0
C1409 C 0.65014 0.8017 0.86217 0.0
C1410 C 0.64937 0.77522 0.89328 0.0
C1411 C 0.65454 0.73419 0.84868 0.0
H1412 H 0.62163 0.71621 0.90893 0.0
C1413 C 0.62921 0.66278 0.84846 0.0
C1414 C 0.62613 0.65484 0.87731 0.0
C1415 C 0.63409 0.68036 0.84676 0.0
C1416 C 0.63108 0.72095 0.8923 0.0
H1417 H 0.6498 0.79731 0.81252 0.0
H1418 H 0.64816 0.76562 0.81622 0.0
H1419 H 0.62689 0.74741 0.90593 0.0
H1420 H 0.62665 0.65893 0.92703 0.0
H1421 H 0.63542 0.68936 0.92406 0.0
H1422 H 0.65855 0.70762 0.83487 0.0
C1423 C 0.64901 0.77317 0.83736 0.0
C1424 C 0.63411 0.73887 0.89059 0.0
C1425 C 0.64986 0.79136 0.83526 0.0
C1426 C 0.62871 0.66467 0.9044 0.0
C1427 C 0.63365 0.68217 0.9027 0.0
C1428 C 0.65153 0.71619 0.85043 0.0
C1429 C 0.64842 0.76491 0.8664 0.0
C1430 C 0.64583 0.74573 0.86873 0.0
C1431 C 0.63606 0.69034 0.87388 0.0
C1432 C 0.63973 0.70937 0.87225 0.0
H1433 H 0.65056 0.80092 0.9124 0.0
H1434 H 0.64924 0.76924 0.916 0.0
H1435 H 0.66378 0.73905 0.83177 0.0
H1436 H 0.62733 0.65558 0.82714 0.0
H1437 H 0.63572 0.68627 0.82418 0.0
C1438 C 0.45796 0.39945 0.14169 0.0
C1439 C 0.44952 0.40093 0.11292 0.0
C1440 C 0.47616 0.39876 0.14338 0.0
C1441 C 0.51438 0.38701 0.09608 0.0
H1442 H 0.54024 0.40758 0.16404 0.0
C1443 C 0.58919 0.38007 0.10608 0.0
C1444 C 0.59543 0.37524 0.13547 0.0
C1445 C 0.57191 0.38554 0.10225 0.0
C1446 C 0.53319 0.40171 0.14499 0.0
H1447 H 0.45367 0.40356 0.06342 0.0
H1448 H 0.4854 0.40259 0.06645 0.0
H1449 H 0.50901 0.41317 0.15922 0.0
H1450 H 0.58852 0.37293 0.18405 0.0
H1451 H 0.55845 0.38236 0.17731 0.0
H1452 H 0.53848 0.37533 0.08212 0.0
C1453 C 0.47793 0.40164 0.08767 0.0
C1454 C 0.51529 0.40489 0.14224 0.0
C1455 C 0.45973 0.4023 0.08596 0.0
C1456 C 0.58415 0.37651 0.16106 0.0
C1457 C 0.56692 0.38204 0.15724 0.0
C1458 C 0.53227 0.38386 0.09879 0.0
C1459 C 0.48636 0.39958 0.11635 0.0
C1460 C 0.50562 0.39738 0.118 0.0
C1461 C 0.56053 0.3864 0.12774 0.0
C1462 C 0.54184 0.39097 0.12352 0.0
H1463 H 0.45052 0.39835 0.16292 0.0
H1464 H 0.4822 0.39697 0.16583 0.0
H1465 H 0.50731 0.38079 0.0774 0.0
H1466 H 0.59753 0.3793 0.08588 0.0
H1467 H 0.56743 0.38901 0.07928 0.0
C1468 C 0.84725 0.20516 0.38557 0.0
C1469 C 0.84958 0.19614 0.35755 0.0
C1470 C 0.84766 0.22338 0.38628 0.0
C1471 C 0.84552 0.26315 0.33712 0.0
H1472 H 0.87206 0.28343 0.4045 0.0
C1473 C 0.8699 0.33515 0.33991 0.0
C1474 C 0.86995 0.34353 0.36888 0.0
C1475 C 0.86515 0.31754 0.33755 0.0
C1476 C 0.86438 0.27803 0.38576 0.0
H1477 H 0.85363 0.19927 0.30811 0.0
H1478 H 0.85462 0.23103 0.30948 0.0
H1479 H 0.86793 0.25205 0.40247 0.0
H1480 H 0.86385 0.34034 0.41765 0.0
H1481 H 0.85537 0.3099 0.4134 0.0
H1482 H 0.8423 0.28929 0.32021 0.0
C1483 C 0.85226 0.22403 0.33086 0.0
C1484 C 0.86199 0.26 0.38461 0.0
C1485 C 0.85179 0.20579 0.33012 0.0
C1486 C 0.86421 0.33423 0.39503 0.0
C1487 C 0.85943 0.31674 0.39265 0.0
C1488 C 0.84795 0.28126 0.33825 0.0
C1489 C 0.8505 0.23303 0.35904 0.0
C1490 C 0.85252 0.25232 0.36033 0.0
C1491 C 0.86033 0.30803 0.36409 0.0
C1492 C 0.85738 0.28889 0.36265 0.0
H1493 H 0.84536 0.19816 0.4071 0.0
H1494 H 0.84592 0.22991 0.40831 0.0
H1495 H 0.83804 0.25766 0.31823 0.0
H1496 H 0.87425 0.34196 0.31933 0.0
H1497 H 0.86602 0.31119 0.31521 0.0
C1498 C 0.91551 0.62569 0.60384 0.0
C1499 C 0.9073 0.62765 0.63276 0.0
C1500 C 0.93327 0.62156 0.60206 0.0
C1501 C 0.9735 0.62465 0.64879 0.0
H1502 H 0.99316 0.59462 0.58553 0.0
C1503 C 0.04615 0.60631 0.64914 0.0
C1504 C 0.05501 0.60749 0.62072 0.0
C1505 C 0.02796 0.60717 0.65026 0.0
C1506 C 0.98785 0.60313 0.6032 0.0
H1507 H 0.91115 0.6259 0.68245 0.0
H1508 H 0.94191 0.61839 0.67932 0.0
H1509 H 0.96155 0.59876 0.5882 0.0
H1510 H 0.05159 0.60994 0.57102 0.0
H1511 H 0.01981 0.61154 0.57304 0.0
H1512 H 0.9997 0.6291 0.66374 0.0
C1513 C 0.93477 0.62049 0.658 0.0
C1514 C 0.96976 0.60552 0.60471 0.0
C1515 C 0.91708 0.6247 0.65978 0.0
C1516 C 0.0452 0.60902 0.59332 0.0
C1517 C 0.02697 0.60985 0.59445 0.0
C1518 C 0.99152 0.62222 0.64734 0.0
C1519 C 0.94319 0.61923 0.62916 0.0
C1520 C 0.96237 0.61631 0.62757 0.0
C1521 C 0.01817 0.60921 0.62298 0.0
C1522 C 0.99892 0.61144 0.62456 0.0
H1523 H 0.90835 0.62789 0.58257 0.0
H1524 H 0.93936 0.62082 0.57947 0.0
H1525 H 0.96832 0.63338 0.66624 0.0
H1526 H 0.05325 0.605 0.6707 0.0
H1527 H 0.02155 0.60636 0.67257 0.0
C1528 C 0.6497 0.20954 0.66216 0.0
C1529 C 0.64986 0.1987 0.63588 0.0
C1530 C 0.64886 0.22768 0.65897 0.0
C1531 C 0.6336 0.26093 0.60412 0.0
H1532 H 0.65848 0.2932 0.65729 0.0
C1533 C 0.62757 0.33494 0.58694 0.0
C1534 C 0.62538 0.34515 0.61369 0.0
C1535 C 0.63259 0.31747 0.58919 0.0
C1536 C 0.65134 0.28434 0.64243 0.0
H1537 H 0.65004 0.19851 0.58563 0.0
H1538 H 0.64871 0.23011 0.58014 0.0
H1539 H 0.66381 0.26186 0.66201 0.0
H1540 H 0.6273 0.34511 0.66381 0.0
H1541 H 0.63579 0.31451 0.66777 0.0
H1542 H 0.62086 0.28323 0.58493 0.0
C1543 C 0.64895 0.22456 0.6032 0.0
C1544 C 0.65441 0.2664 0.64511 0.0
C1545 C 0.64981 0.20644 0.60637 0.0
C1546 C 0.62888 0.33762 0.64273 0.0
C1547 C 0.63383 0.32009 0.645 0.0
C1548 C 0.6305 0.27881 0.6015 0.0
C1549 C 0.64813 0.23537 0.62945 0.0
C1550 C 0.64553 0.25449 0.62601 0.0
C1551 C 0.63546 0.30973 0.61826 0.0
C1552 C 0.63929 0.29075 0.62065 0.0
H1553 H 0.64974 0.20402 0.68524 0.0
H1554 H 0.64812 0.23563 0.67966 0.0
H1555 H 0.62627 0.2521 0.58949 0.0
H1556 H 0.62517 0.34035 0.56417 0.0
H1557 H 0.63408 0.30998 0.5681 0.0
C1558 C 0.04376 0.40059 0.93023 0.0
C1559 C 0.05296 0.40132 0.90207 0.0
C1560 C 0.02553 0.40081 0.93056 0.0
C1561 C 0.98671 0.41114 0.8828 0.0
H1562 H 0.96399 0.37628 0.9339 0.0
C1563 C 0.91732 0.38635 0.85916 0.0
C1564 C 0.9065 0.3817 0.88414 0.0
C1565 C 0.93449 0.39165 0.86419 0.0
C1566 C 0.97007 0.38633 0.91995 0.0
H1567 H 0.05015 0.40337 0.85221 0.0
H1568 H 0.01837 0.40362 0.8528 0.0
H1569 H 0.99547 0.38013 0.93725 0.0
H1570 H 0.90509 0.37969 0.93417 0.0
H1571 H 0.93518 0.38907 0.94298 0.0
H1572 H 0.96133 0.41706 0.86498 0.0
C1573 C 0.02526 0.40303 0.87466 0.0
C1574 C 0.98814 0.38852 0.92183 0.0
C1575 C 0.0435 0.40278 0.87431 0.0
C1576 C 0.91309 0.38313 0.91442 0.0
C1577 C 0.93035 0.3884 0.91945 0.0
C1578 C 0.96864 0.40897 0.88096 0.0
C1579 C 0.01607 0.40182 0.90276 0.0
C1580 C 0.99671 0.40071 0.90284 0.0
C1581 C 0.94133 0.39244 0.89433 0.0
C1582 C 0.96015 0.39629 0.89905 0.0
H1583 H 0.05062 0.39954 0.95208 0.0
H1584 H 0.01883 0.40007 0.95261 0.0
H1585 H 0.99289 0.42086 0.86826 0.0
H1586 H 0.91269 0.38546 0.83552 0.0
H1587 H 0.94262 0.39444 0.84428 0.0
C1588 C 0.85095 0.79174 0.09647 0.0
C1589 C 0.85017 0.79957 0.12587 0.0
C1590 C 0.85184 0.7736 0.09357 0.0
C1591 C 0.84545 0.73192 0.13599 0.0
H1592 H 0.87959 0.71462 0.0773 0.0
C1593 C 0.87085 0.66054 0.13533 0.0
C1594 C 0.87422 0.65286 0.10638 0.0
C1595 C 0.86603 0.67812 0.13737 0.0
C1596 C 0.86981 0.71919 0.09348 0.0
H1597 H 0.84906 0.79437 0.17525 0.0
H1598 H 0.85082 0.76278 0.17014 0.0
H1599 H 0.87431 0.7458 0.08114 0.0
H1600 H 0.87437 0.65746 0.05677 0.0
H1601 H 0.86578 0.68792 0.06034 0.0
H1602 H 0.84119 0.70519 0.14859 0.0
C1603 C 0.85058 0.77065 0.14932 0.0
C1604 C 0.86676 0.73709 0.09566 0.0
C1605 C 0.84966 0.7888 0.15223 0.0
C1606 C 0.87206 0.66298 0.07949 0.0
C1607 C 0.86722 0.68049 0.08152 0.0
C1608 C 0.84851 0.71395 0.13381 0.0
C1609 C 0.852 0.76286 0.11997 0.0
C1610 C 0.85459 0.7437 0.11698 0.0
C1611 C 0.86446 0.68837 0.11048 0.0
C1612 C 0.86076 0.70739 0.11255 0.0
H1613 H 0.85124 0.79963 0.07567 0.0
H1614 H 0.85261 0.768 0.07059 0.0
H1615 H 0.83586 0.73657 0.15244 0.0
H1616 H 0.8724 0.65312 0.1565 0.0
H1617 H 0.86412 0.68383 0.16005 0.0
C1618 C 0.58403 0.63427 0.34945 0.0
C1619 C 0.59713 0.62755 0.3688 0.0
C1620 C 0.56677 0.62879 0.35259 0.0
C1621 C 0.53654 0.60697 0.40775 0.0
H1622 H 0.5064 0.60709 0.33574 0.0
C1623 C 0.46164 0.60668 0.41891 0.0
C1624 C 0.45147 0.59957 0.39501 0.0
C1625 C 0.47978 0.60758 0.41612 0.0
C1626 C 0.5146 0.60663 0.35612 0.0
H1627 H 0.60246 0.6095 0.40625 0.0
H1628 H 0.57237 0.59935 0.41099 0.0
H1629 H 0.53729 0.6125 0.32944 0.0
H1630 H 0.45235 0.58699 0.35012 0.0
H1631 H 0.48404 0.58775 0.34581 0.0
H1632 H 0.51395 0.60034 0.43425 0.0
C1633 C 0.57533 0.60927 0.39393 0.0
C1634 C 0.53238 0.61009 0.35255 0.0
C1635 C 0.59262 0.615 0.39111 0.0
C1636 C 0.45986 0.59272 0.36879 0.0
C1637 C 0.47804 0.59329 0.36626 0.0
C1638 C 0.5188 0.60317 0.41126 0.0
C1639 C 0.56214 0.61618 0.3748 0.0
C1640 C 0.54354 0.61075 0.37839 0.0
C1641 C 0.48826 0.60108 0.38958 0.0
C1642 C 0.50748 0.60335 0.38558 0.0
H1643 H 0.58703 0.6441 0.33223 0.0
H1644 H 0.557 0.6348 0.33795 0.0
H1645 H 0.54463 0.60744 0.42829 0.0
H1646 H 0.45555 0.61219 0.43932 0.0
H1647 H 0.48704 0.61398 0.43436 0.0
C1648 C 0.3713 0.33918 0.1445 0.0
C1649 C 0.37472 0.34674 0.11546 0.0
C1650 C 0.36638 0.32163 0.14674 0.0
C1651 C 0.3698 0.28043 0.10299 0.0
H1652 H 0.33656 0.2632 0.16337 0.0
C1653 C 0.35049 0.20806 0.10675 0.0
C1654 C 0.35036 0.20015 0.13613 0.0
C1655 C 0.3514 0.2262 0.1039 0.0
C1656 C 0.34594 0.26783 0.14651 0.0
H1657 H 0.3748 0.342 0.06591 0.0
H1658 H 0.36596 0.31162 0.0698 0.0
H1659 H 0.34183 0.29458 0.15902 0.0
H1660 H 0.35041 0.20521 0.18558 0.0
H1661 H 0.35213 0.23684 0.18054 0.0
H1662 H 0.37408 0.25378 0.09064 0.0
C1663 C 0.36748 0.31909 0.09091 0.0
C1664 C 0.34898 0.28579 0.14404 0.0
C1665 C 0.37247 0.33656 0.08868 0.0
C1666 C 0.35051 0.21085 0.16259 0.0
C1667 C 0.3514 0.22901 0.15972 0.0
C1668 C 0.36674 0.26254 0.1054 0.0
C1669 C 0.36473 0.3113 0.11997 0.0
C1670 C 0.36099 0.29229 0.12228 0.0
C1671 C 0.3522 0.23687 0.13034 0.0
C1672 C 0.35482 0.256 0.12723 0.0
H1673 H 0.37293 0.34665 0.16558 0.0
H1674 H 0.36449 0.31601 0.1695 0.0
H1675 H 0.37942 0.28493 0.08643 0.0
H1676 H 0.35027 0.20024 0.08587 0.0
H1677 H 0.35168 0.23186 0.08093 0.0
C1678 C 0.41186 0.62031 0.89402 0.0
C1679 C 0.40514 0.62536 0.86508 0.0
C1680 C 0.42921 0.61486 0.89683 0.0
C1681 C 0.46731 0.59931 0.85153 0.0
H1682 H 0.49417 0.61945 0.91864 0.0
C1683 C 0.54261 0.60199 0.85145 0.0
C1684 C 0.55142 0.6001 0.8798 0.0
C1685 C 0.52438 0.60258 0.85054 0.0
C1686 C 0.48682 0.61345 0.90006 0.0
H1687 H 0.4113 0.62815 0.81626 0.0
H1688 H 0.44148 0.61881 0.82124 0.0
H1689 H 0.46292 0.62484 0.91571 0.0
H1690 H 0.54791 0.59656 0.92929 0.0
H1691 H 0.51616 0.59737 0.92759 0.0
H1692 H 0.49131 0.58818 0.83558 0.0
C1693 C 0.43333 0.6189 0.84172 0.0
C1694 C 0.46889 0.61655 0.89839 0.0
C1695 C 0.41603 0.62439 0.83892 0.0
C1696 C 0.54156 0.59817 0.90706 0.0
C1697 C 0.52335 0.59873 0.90613 0.0
C1698 C 0.48526 0.59619 0.85322 0.0
C1699 C 0.44019 0.61428 0.87075 0.0
C1700 C 0.45896 0.60972 0.87387 0.0
C1701 C 0.51455 0.60125 0.87794 0.0
C1702 C 0.49527 0.60342 0.87728 0.0
H1703 H 0.40382 0.62085 0.91463 0.0
H1704 H 0.43407 0.6112 0.91947 0.0
H1705 H 0.45997 0.59365 0.8326 0.0
H1706 H 0.54978 0.60352 0.83001 0.0
H1707 H 0.51803 0.60472 0.82846 0.0
C1708 C 0.13812 0.66722 0.60815 0.0
C1709 C 0.13239 0.65791 0.63428 0.0
C1710 C 0.14288 0.68472 0.61057 0.0
C1711 C 0.15397 0.7203 0.66523 0.0
H1712 H 0.13429 0.74934 0.60051 0.0
C1713 C 0.14947 0.79583 0.67268 0.0
C1714 C 0.152 0.80537 0.6452 0.0
C1715 C 0.14913 0.77758 0.67218 0.0
C1716 C 0.14013 0.74143 0.61852 0.0
H1717 H 0.12809 0.65944 0.68383 0.0
H1718 H 0.13622 0.69022 0.68802 0.0
H1719 H 0.13033 0.71795 0.59846 0.0
H1720 H 0.15697 0.80313 0.59589 0.0
H1721 H 0.1566 0.7714 0.59512 0.0
H1722 H 0.16356 0.74398 0.68546 0.0
C1723 C 0.13714 0.68388 0.66567 0.0
C1724 C 0.13785 0.7234 0.61736 0.0
C1725 C 0.13244 0.66626 0.66327 0.0
C1726 C 0.15482 0.79623 0.61744 0.0
C1727 C 0.15452 0.77802 0.61697 0.0
C1728 C 0.15626 0.73842 0.6664 0.0
C1729 C 0.14193 0.69342 0.63915 0.0
C1730 C 0.14477 0.71259 0.64062 0.0
C1731 C 0.15133 0.76848 0.6442 0.0
C1732 C 0.14938 0.74918 0.643 0.0
H1733 H 0.13848 0.66113 0.58553 0.0
H1734 H 0.14693 0.69157 0.58984 0.0
H1735 H 0.15954 0.71231 0.6834 0.0
H1736 H 0.14727 0.80245 0.69449 0.0
H1737 H 0.14651 0.77064 0.69352 0.0
C1738 C 0.08367 0.37637 0.34685 0.0
C1739 C 0.09431 0.37425 0.37311 0.0
C1740 C 0.06618 0.38118 0.34996 0.0
C1741 C 0.02994 0.37888 0.4051 0.0
H1742 H 0.00735 0.41049 0.34757 0.0
C1743 C 0.95632 0.39434 0.41341 0.0
C1744 C 0.94706 0.39453 0.3853 0.0
C1745 C 0.97457 0.39402 0.41354 0.0
C1746 C 0.01343 0.40154 0.36369 0.0
H1747 H 0.09497 0.37605 0.42324 0.0
H1748 H 0.06438 0.38445 0.42861 0.0
H1749 H 0.03887 0.40626 0.34492 0.0
H1750 H 0.94979 0.39486 0.33528 0.0
H1751 H 0.9815 0.39401 0.33554 0.0
H1752 H 0.00451 0.37377 0.42336 0.0
C1753 C 0.06959 0.38224 0.40564 0.0
C1754 C 0.0315 0.39915 0.3622 0.0
C1755 C 0.08714 0.37753 0.40253 0.0
C1756 C 0.95648 0.39475 0.35737 0.0
C1757 C 0.97471 0.39438 0.35751 0.0
C1758 C 0.01187 0.38122 0.40652 0.0
C1759 C 0.05887 0.38392 0.3794 0.0
C1760 C 0.03992 0.38761 0.38262 0.0
C1761 C 0.98399 0.39385 0.38558 0.0
C1762 C 0.00335 0.39239 0.38555 0.0
H1763 H 0.08875 0.37398 0.32383 0.0
H1764 H 0.05823 0.38217 0.3293 0.0
H1765 H 0.036 0.36972 0.42089 0.0
H1766 H 0.9495 0.39427 0.43536 0.0
H1767 H 0.9813 0.39386 0.43558 0.0
C1768 C 0.37283 0.66039 0.36047 0.0
C1769 C 0.37615 0.65313 0.38978 0.0
C1770 C 0.36762 0.67784 0.35767 0.0
C1771 C 0.37028 0.71944 0.40011 0.0
H1772 H 0.33671 0.73558 0.33936 0.0
C1773 C 0.35097 0.79178 0.39287 0.0
C1774 C 0.35056 0.79911 0.36304 0.0
C1775 C 0.35182 0.77369 0.39678 0.0
C1776 C 0.34619 0.73127 0.35632 0.0
H1777 H 0.37577 0.65829 0.4392 0.0
H1778 H 0.36651 0.68849 0.43431 0.0
H1779 H 0.34241 0.70434 0.34475 0.0
H1780 H 0.35001 0.79309 0.31394 0.0
H1781 H 0.3517 0.7616 0.3208 0.0
H1782 H 0.37432 0.74627 0.4114 0.0
C1783 C 0.36829 0.68086 0.41343 0.0
C1784 C 0.34946 0.71339 0.35938 0.0
C1785 C 0.37352 0.6635 0.41623 0.0
C1786 C 0.35033 0.7879 0.33726 0.0
C1787 C 0.3512 0.76982 0.34118 0.0
C1788 C 0.36702 0.73727 0.39705 0.0
C1789 C 0.36561 0.68836 0.38412 0.0
C1790 C 0.36159 0.70727 0.38126 0.0
C1791 C 0.35231 0.76251 0.37097 0.0
C1792 C 0.355 0.74343 0.37506 0.0
H1793 H 0.37473 0.65278 0.33962 0.0
H1794 H 0.36578 0.68324 0.33473 0.0
H1795 H 0.37997 0.71523 0.41676 0.0
H1796 H 0.35104 0.80001 0.41325 0.0
H1797 H 0.35235 0.76847 0.42007 0.0
C1798 C 0.95778 0.59664 0.07242 0.0
C1799 C 0.94823 0.59712 0.10023 0.0
C1800 C 0.97601 0.59662 0.07283 0.0
C1801 C 0.0143 0.58897 0.12343 0.0
H1802 H 0.03734 0.62168 0.06843 0.0
C1803 C 0.08813 0.61591 0.09054 0.0
C1804 C 0.09442 0.61862 0.12074 0.0
C1805 C 0.0709 0.61046 0.0857 0.0
C1806 C 0.03118 0.61222 0.08353 0.0
H1807 H 0.95042 0.59741 0.15031 0.0
H1808 H 0.9822 0.59747 0.15101 0.0
H1809 H 0.00594 0.61733 0.06442 0.0
H1810 H 0.08772 0.61703 0.16953 0.0
H1811 H 0.05786 0.60775 0.16107 0.0
H1812 H 0.0395 0.58415 0.143 0.0
C1813 C 0.97558 0.59697 0.12887 0.0
C1814 C 0.01316 0.60975 0.08127 0.0
C1815 C 0.95735 0.59704 0.12846 0.0
C1816 C 0.08333 0.61513 0.14593 0.0
C1817 C 0.06619 0.60966 0.1411 0.0
C1818 C 0.03232 0.59142 0.12566 0.0
C1819 C 0.98512 0.597 0.10105 0.0
C1820 C 0.00446 0.59834 0.10158 0.0
C1821 C 0.05967 0.60752 0.11095 0.0
C1822 C 0.04092 0.60334 0.10616 0.0
H1823 H 0.95119 0.59662 0.05023 0.0
H1824 H 0.98299 0.59642 0.05102 0.0
H1825 H 0.00803 0.57986 0.13906 0.0
H1826 H 0.09634 0.61843 0.07063 0.0
H1827 H 0.06631 0.60874 0.06218 0.0
C1828 C 0.15127 0.20896 0.88897 0.0
C1829 C 0.15185 0.20045 0.86015 0.0
C1830 C 0.15076 0.22716 0.89059 0.0
C1831 C 0.13774 0.26539 0.84453 0.0
H1832 H 0.16092 0.29114 0.90992 0.0
C1833 C 0.13105 0.34023 0.85603 0.0
C1834 C 0.12753 0.34637 0.88607 0.0
C1835 C 0.13637 0.32296 0.85128 0.0
C1836 C 0.15431 0.28412 0.8916 0.0
H1837 H 0.15301 0.20449 0.81045 0.0
H1838 H 0.15229 0.23624 0.81335 0.0
H1839 H 0.16616 0.25989 0.90448 0.0
H1840 H 0.12735 0.33927 0.93474 0.0
H1841 H 0.13647 0.30926 0.92642 0.0
H1842 H 0.12562 0.28954 0.83202 0.0
C1843 C 0.15195 0.22881 0.83467 0.0
C1844 C 0.1573 0.26621 0.88849 0.0
C1845 C 0.15247 0.2106 0.83304 0.0
C1846 C 0.12992 0.335 0.91128 0.0
C1847 C 0.13528 0.31779 0.90653 0.0
C1848 C 0.13476 0.28329 0.84763 0.0
C1849 C 0.15083 0.2373 0.86345 0.0
C1850 C 0.14884 0.25658 0.86522 0.0
C1851 C 0.13836 0.3115 0.87647 0.0
C1852 C 0.14279 0.29282 0.8715 0.0
H1853 H 0.15077 0.20157 0.91033 0.0
H1854 H 0.1497 0.23326 0.91314 0.0
H1855 H 0.13082 0.25834 0.82662 0.0
H1856 H 0.1294 0.34864 0.8361 0.0
H1857 H 0.13883 0.31856 0.82786 0.0
C1858 C 0.41606 0.37765 0.65899 0.0
C1859 C 0.40476 0.37637 0.63344 0.0
C1860 C 0.43332 0.38303 0.65509 0.0
C1861 C 0.468 0.38424 0.59666 0.0
H1862 H 0.49156 0.41343 0.65691 0.0
C1863 C 0.54086 0.40157 0.5842 0.0
C1864 C 0.55097 0.40013 0.61125 0.0
C1865 C 0.52265 0.40119 0.58576 0.0
C1866 C 0.48519 0.40518 0.63997 0.0
H1867 H 0.40268 0.38024 0.5838 0.0
H1868 H 0.43288 0.38967 0.57704 0.0
H1869 H 0.46024 0.40831 0.66159 0.0
H1870 H 0.54979 0.39768 0.66127 0.0
H1871 H 0.51809 0.39677 0.66391 0.0
H1872 H 0.49297 0.38074 0.57546 0.0
C1873 C 0.42836 0.38634 0.60006 0.0
C1874 C 0.46725 0.40227 0.64264 0.0
C1875 C 0.41104 0.38103 0.60398 0.0
C1876 C 0.54243 0.39883 0.63997 0.0
C1877 C 0.52421 0.39842 0.64151 0.0
C1878 C 0.48594 0.38713 0.59402 0.0
C1879 C 0.43975 0.38721 0.62553 0.0
C1880 C 0.45849 0.39156 0.62126 0.0
C1881 C 0.51411 0.39933 0.61438 0.0
C1882 C 0.49481 0.39743 0.61589 0.0
H1883 H 0.41167 0.37419 0.68204 0.0
H1884 H 0.4418 0.38335 0.67515 0.0
H1885 H 0.46171 0.37573 0.58005 0.0
H1886 H 0.547 0.4027 0.5617 0.0
H1887 H 0.51525 0.4022 0.56447 0.0
C1888 C 0.11194 0.09548 0.53323 0.0
C1889 C 0.12191 0.09359 0.50618 0.0
C1890 C 0.1198 0.09445 0.56229 0.0
C1891 C 0.15991 0.10638 0.59892 0.0
H1892 H 0.13837 0.08595 0.67168 0.0
C1893 C 0.16195 0.11089 0.74184 0.0
C1894 C 0.15854 0.12884 0.74457 0.0
C1895 C 0.16241 0.103 0.71256 0.0
C1896 C 0.14481 0.09145 0.65159 0.0
H1897 H 0.14778 0.08842 0.48818 0.0
H1898 H 0.16174 0.08716 0.53937 0.0
H1899 H 0.12885 0.07686 0.6201 0.0
H1900 H 0.15424 0.15281 0.71911 0.0
H1901 H 0.15558 0.1392 0.6682 0.0
H1902 H 0.17497 0.12189 0.63043 0.0
C1903 C 0.14777 0.08917 0.53792 0.0
C1904 C 0.13928 0.08632 0.62211 0.0
C1905 C 0.13979 0.08981 0.50873 0.0
C1906 C 0.15688 0.13894 0.71763 0.0
C1907 C 0.15773 0.13116 0.68848 0.0
C1908 C 0.16526 0.11168 0.62841 0.0
C1909 C 0.13788 0.09186 0.56494 0.0
C1910 C 0.14636 0.09418 0.59552 0.0
C1911 C 0.15992 0.11304 0.68565 0.0
C1912 C 0.15732 0.1047 0.65501 0.0
H1913 H 0.09813 0.09839 0.53189 0.0
H1914 H 0.11188 0.09677 0.58266 0.0
H1915 H 0.1655 0.11275 0.57884 0.0
H1916 H 0.16314 0.1028 0.7623 0.0
H1917 H 0.16411 0.089 0.71097 0.0
C1918 C 0.16247 0.88704 0.77057 0.0
C1919 C 0.14824 0.87705 0.76007 0.0
C1920 C 0.16207 0.89476 0.80008 0.0
C1921 C 0.13142 0.91118 0.85737 0.0
H1922 H 0.16237 0.89532 0.92255 0.0
C1923 C 0.10873 0.90129 0.98051 0.0
C1924 C 0.11972 0.90474 0.00574 0.0
C1925 C 0.11465 0.90355 0.9503 0.0
C1926 C 0.15391 0.9003 0.90452 0.0
H1927 H 0.12251 0.86736 0.77225 0.0
H1928 H 0.12175 0.88098 0.82289 0.0
H1929 H 0.16909 0.88838 0.8684 0.0
H1930 H 0.14538 0.9138 0.01928 0.0
H1931 H 0.15598 0.91744 0.96586 0.0
H1932 H 0.11572 0.92226 0.89326 0.0
C1933 C 0.1332 0.88282 0.80852 0.0
C1934 C 0.15776 0.89631 0.87359 0.0
C1935 C 0.13372 0.87491 0.77956 0.0
C1936 C 0.13662 0.91113 1.00018 0.0
C1937 C 0.1427 0.91313 0.96971 0.0
C1938 C 0.12764 0.91524 0.88811 0.0
C1939 C 0.14727 0.8929 0.819 0.0
C1940 C 0.14607 0.90101 0.84999 0.0
C1941 C 0.1318 0.90913 0.94448 0.0
C1942 C 0.13835 0.90906 0.91213 0.0
H1943 H 0.17383 0.8889 0.75602 0.0
H1944 H 0.17311 0.9024 0.80786 0.0
H1945 H 0.12231 0.91507 0.83948 0.0
H1946 H 0.09563 0.89638 0.9841 0.0
H1947 H 0.106 0.90009 0.93145 0.0
C1948 C 0.38881 0.90377 0.03129 0.0
C1949 C 0.37858 0.90596 0.00462 0.0
C1950 C 0.38127 0.90478 0.06063 0.0
C1951 C 0.34137 0.89332 0.09844 0.0
H1952 H 0.36415 0.91286 0.17074 0.0
C1953 C 0.34126 0.88774 0.2413 0.0
C1954 C 0.3443 0.8697 0.24345 0.0
C1955 C 0.34051 0.89587 0.21224 0.0
C1956 C 0.35736 0.90762 0.15081 0.0
H1957 H 0.35262 0.91165 0.98759 0.0
H1958 H 0.33923 0.91289 0.03926 0.0
H1959 H 0.37317 0.92217 0.119 0.0
H1960 H 0.34761 0.84584 0.21723 0.0
H1961 H 0.34582 0.85989 0.16673 0.0
H1962 H 0.32644 0.87783 0.13021 0.0
C1963 C 0.35314 0.91065 0.0373 0.0
C1964 C 0.3626 0.91287 0.12123 0.0
C1965 C 0.3608 0.91003 0.00783 0.0
C1966 C 0.34529 0.85978 0.21621 0.0
C1967 C 0.34416 0.86781 0.18729 0.0
C1968 C 0.3363 0.88789 0.12802 0.0
C1969 C 0.36327 0.90766 0.06393 0.0
C1970 C 0.35509 0.90531 0.09476 0.0
C1971 C 0.34235 0.886 0.18499 0.0
C1972 C 0.34468 0.89453 0.15444 0.0
H1973 H 0.40255 0.90064 0.02944 0.0
H1974 H 0.38937 0.90222 0.08068 0.0
H1975 H 0.33544 0.88718 0.07846 0.0
H1976 H 0.34056 0.8957 0.26198 0.0
H1977 H 0.3391 0.90992 0.21107 0.0
C1978 C 0.36044 0.09167 0.49169 0.0
C1979 C 0.37827 0.09555 0.49475 0.0
C1980 C 0.35272 0.09106 0.46228 0.0
C1981 C 0.36187 0.08816 0.37843 0.0
H1982 H 0.32622 0.12368 0.36886 0.0
C1983 C 0.34479 0.14019 0.28151 0.0
C1984 C 0.34315 0.1299 0.25479 0.0
C1985 C 0.34382 0.13261 0.31083 0.0
C1986 C 0.33592 0.11349 0.37123 0.0
H1987 H 0.40225 0.10057 0.46972 0.0
H1988 H 0.38894 0.09896 0.41855 0.0
H1989 H 0.33535 0.11475 0.42078 0.0
H1990 H 0.33848 0.10377 0.23763 0.0
H1991 H 0.33732 0.09033 0.28926 0.0
H1992 H 0.36308 0.08756 0.32888 0.0
C1993 C 0.38086 0.09657 0.4387 0.0
C1994 C 0.34108 0.1083 0.4009 0.0
C1995 C 0.38846 0.09758 0.46799 0.0
C1996 C 0.33965 0.11199 0.25791 0.0
C1997 C 0.33908 0.10431 0.28736 0.0
C1998 C 0.35652 0.09315 0.34876 0.0
C1999 C 0.36283 0.09385 0.43556 0.0
C2000 C 0.3546 0.09612 0.40475 0.0
C2001 C 0.34154 0.11452 0.31406 0.0
C2002 C 0.34401 0.10638 0.3449 0.0
H2003 H 0.35228 0.09018 0.51201 0.0
H2004 H 0.33878 0.08896 0.46044 0.0
H2005 H 0.37229 0.07871 0.38079 0.0
H2006 H 0.34749 0.15403 0.27973 0.0
H2007 H 0.34595 0.14077 0.33096 0.0
C2008 C 0.84048 0.85455 0.27236 0.0
C2009 C 0.84184 0.8666 0.24808 0.0
C2010 C 0.84103 0.86016 0.30303 0.0
C2011 C 0.84336 0.89879 0.35561 0.0
H2012 H 0.8761 0.86883 0.39873 0.0
C2013 C 0.89368 0.89669 0.46674 0.0
C2014 C 0.88276 0.9012 0.49153 0.0
C2015 C 0.88704 0.89538 0.43684 0.0
C2016 C 0.86704 0.87743 0.387 0.0
H2017 H 0.84354 0.89401 0.23644 0.0
H2018 H 0.84521 0.90388 0.29033 0.0
H2019 H 0.86568 0.86048 0.34812 0.0
H2020 H 0.8566 0.90915 0.50428 0.0
H2021 H 0.84477 0.90648 0.45161 0.0
H2022 H 0.84536 0.916 0.39482 0.0
C2023 C 0.84329 0.89013 0.28574 0.0
C2024 C 0.86079 0.87248 0.3581 0.0
C2025 C 0.84234 0.8845 0.25489 0.0
C2026 C 0.86529 0.90566 0.4855 0.0
C2027 C 0.85854 0.90414 0.45541 0.0
C2028 C 0.84966 0.90377 0.38485 0.0
C2029 C 0.84353 0.8779 0.31008 0.0
C2030 C 0.84893 0.88308 0.34189 0.0
C2031 C 0.86923 0.89826 0.43105 0.0
C2032 C 0.86179 0.89322 0.40058 0.0
H2033 H 0.83994 0.84068 0.2676 0.0
H2034 H 0.84061 0.85044 0.32123 0.0
H2035 H 0.83421 0.90723 0.34374 0.0
H2036 H 0.90726 0.89343 0.47067 0.0
H2037 H 0.89572 0.8913 0.41841 0.0
C2038 C 0.86601 0.09381 0.00659 0.0
C2039 C 0.88138 0.10327 0.00054 0.0
C2040 C 0.85853 0.09404 0.03627 0.0
C2041 C 0.85153 0.09186 0.1079 0.0
H2042 H 0.85058 0.13847 0.14275 0.0
C2043 C 0.84814 0.10734 0.23862 0.0
C2044 C 0.84145 0.12356 0.24774 0.0
C2045 C 0.84797 0.1025 0.20737 0.0
C2046 C 0.85033 0.12539 0.13331 0.0
H2047 H 0.90157 0.1193 0.02131 0.0
H2048 H 0.88865 0.1196 0.07258 0.0
H2049 H 0.86094 0.1342 0.09037 0.0
H2050 H 0.82812 0.14687 0.23247 0.0
H2051 H 0.82698 0.13815 0.17812 0.0
H2052 H 0.84119 0.08305 0.15141 0.0
C2053 C 0.88217 0.11232 0.05441 0.0
C2054 C 0.85653 0.12293 0.10335 0.0
C2055 C 0.8896 0.11208 0.02502 0.0
C2056 C 0.83323 0.13422 0.22584 0.0
C2057 C 0.83278 0.12929 0.19472 0.0
C2058 C 0.84532 0.09432 0.13816 0.0
C2059 C 0.8663 0.10377 0.06016 0.0
C2060 C 0.85767 0.10612 0.09061 0.0
C2061 C 0.84104 0.11385 0.18485 0.0
C2062 C 0.84499 0.11111 0.15143 0.0
H2063 H 0.8594 0.08688 0.98816 0.0
H2064 H 0.84631 0.08728 0.04017 0.0
H2065 H 0.85222 0.07877 0.09854 0.0
H2066 H 0.85482 0.09909 0.25521 0.0
H2067 H 0.85455 0.09059 0.20066 0.0
C2068 C 0.65989 0.11091 0.75869 0.0
C2069 C 0.65641 0.12881 0.75541 0.0
C2070 C 0.66043 0.1033 0.7882 0.0
C2071 C 0.64291 0.09233 0.84968 0.0
H2072 H 0.66418 0.11398 0.92153 0.0
C2073 C 0.61114 0.09694 0.9691 0.0
C2074 C 0.62136 0.09479 0.99579 0.0
C2075 C 0.6187 0.09595 0.93977 0.0
C2076 C 0.65843 0.10753 0.90169 0.0
H2077 H 0.65204 0.153 0.78014 0.0
H2078 H 0.65351 0.13988 0.83148 0.0
H2079 H 0.67328 0.12283 0.86953 0.0
H2080 H 0.64735 0.08925 0.01286 0.0
H2081 H 0.66077 0.08807 0.96121 0.0
H2082 H 0.62714 0.07797 0.88183 0.0
C2083 C 0.65566 0.13166 0.81143 0.0
C2084 C 0.66356 0.11266 0.87198 0.0
C2085 C 0.65473 0.13917 0.78205 0.0
C2086 C 0.63917 0.09083 0.9926 0.0
C2087 C 0.64685 0.09024 0.96315 0.0
C2088 C 0.63758 0.0874 0.87938 0.0
C2089 C 0.65793 0.11358 0.81481 0.0
C2090 C 0.65545 0.10552 0.84571 0.0
C2091 C 0.63671 0.09313 0.9365 0.0
C2092 C 0.64489 0.09537 0.90564 0.0
H2093 H 0.6611 0.10263 0.73848 0.0
H2094 H 0.66218 0.08932 0.79022 0.0
H2095 H 0.63633 0.08672 0.82985 0.0
H2096 H 0.59738 0.1 0.97093 0.0
H2097 H 0.6106 0.09842 0.91968 0.0
C2098 C 0.6116 0.9074 0.53543 0.0
C2099 C 0.62167 0.90925 0.5085 0.0
C2100 C 0.61933 0.9086 0.56459 0.0
C2101 C 0.65939 0.8968 0.60147 0.0
H2102 H 0.63745 0.91678 0.67422 0.0
C2103 C 0.66075 0.89149 0.7443 0.0
C2104 C 0.65734 0.87353 0.74667 0.0
C2105 C 0.66137 0.89955 0.71517 0.0
C2106 C 0.644 0.91141 0.65414 0.0
H2107 H 0.64757 0.91457 0.49076 0.0
H2108 H 0.6613 0.91615 0.54209 0.0
H2109 H 0.6281 0.92608 0.62265 0.0
H2110 H 0.65319 0.84971 0.72074 0.0
H2111 H 0.65479 0.86361 0.67008 0.0
H2112 H 0.67437 0.88119 0.63294 0.0
C2113 C 0.64735 0.91404 0.5405 0.0
C2114 C 0.63858 0.91666 0.62466 0.0
C2115 C 0.6395 0.91323 0.51122 0.0
C2116 C 0.65583 0.86358 0.71953 0.0
C2117 C 0.65684 0.87153 0.69054 0.0
C2118 C 0.66464 0.89138 0.63094 0.0
C2119 C 0.63738 0.91132 0.56742 0.0
C2120 C 0.64579 0.90895 0.59806 0.0
C2121 C 0.65902 0.88967 0.68806 0.0
C2122 C 0.65655 0.89818 0.65753 0.0
H2123 H 0.59782 0.90432 0.53395 0.0
H2124 H 0.61135 0.90625 0.58488 0.0
H2125 H 0.66508 0.89054 0.58138 0.0
H2126 H 0.66183 0.89946 0.76492 0.0
H2127 H 0.66306 0.91356 0.71385 0.0
C2128 C 0.60633 0.59787 0.02476 0.0
C2129 C 0.61844 0.59636 0.00058 0.0
C2130 C 0.61195 0.59899 0.05535 0.0
C2131 C 0.64991 0.59653 0.10887 0.0
H2132 H 0.62517 0.63458 0.14854 0.0
C2133 C 0.65229 0.64661 0.22086 0.0
C2134 C 0.65435 0.63487 0.24549 0.0
C2135 C 0.65118 0.64057 0.19052 0.0
C2136 C 0.63239 0.62405 0.13777 0.0
H2137 H 0.64583 0.59357 0.98934 0.0
H2138 H 0.65582 0.59612 0.04314 0.0
H2139 H 0.61632 0.62506 0.09764 0.0
H2140 H 0.65813 0.60772 0.25771 0.0
H2141 H 0.65567 0.59699 0.20435 0.0
H2142 H 0.66624 0.59597 0.14937 0.0
C2143 C 0.64194 0.59611 0.03845 0.0
C2144 C 0.62709 0.61836 0.10869 0.0
C2145 C 0.63625 0.59466 0.00768 0.0
C2146 C 0.65658 0.61704 0.23904 0.0
C2147 C 0.65518 0.61092 0.20852 0.0
C2148 C 0.65525 0.60227 0.13827 0.0
C2149 C 0.62986 0.59909 0.06244 0.0
C2150 C 0.63568 0.60449 0.09386 0.0
C2151 C 0.65171 0.62259 0.18412 0.0
C2152 C 0.64659 0.61621 0.1529 0.0
H2153 H 0.59251 0.599 0.01987 0.0
H2154 H 0.60227 0.60074 0.07337 0.0
H2155 H 0.6568 0.58582 0.09803 0.0
H2156 H 0.65078 0.66045 0.22518 0.0
H2157 H 0.64903 0.64996 0.17215 0.0
C2158 C 0.64031 0.41086 0.49285 0.0
C2159 C 0.62237 0.40744 0.49564 0.0
C2160 C 0.64811 0.41162 0.46351 0.0
C2161 C 0.65945 0.39449 0.40203 0.0
H2162 H 0.63782 0.41555 0.32994 0.0
C2163 C 0.65435 0.36195 0.28366 0.0
C2164 C 0.6561 0.37194 0.25661 0.0
C2165 C 0.65567 0.36976 0.31272 0.0
C2166 C 0.64429 0.40987 0.34983 0.0
H2167 H 0.59832 0.40346 0.47029 0.0
H2168 H 0.61178 0.4053 0.4193 0.0
H2169 H 0.629 0.42484 0.3818 0.0
H2170 H 0.66131 0.39779 0.23856 0.0
H2171 H 0.66308 0.41167 0.28976 0.0
H2172 H 0.6738 0.3786 0.37008 0.0
C2173 C 0.61988 0.40724 0.43956 0.0
C2174 C 0.63917 0.41511 0.37948 0.0
C2175 C 0.61218 0.40609 0.46875 0.0
C2176 C 0.66003 0.38979 0.25911 0.0
C2177 C 0.66096 0.39772 0.28832 0.0
C2178 C 0.6644 0.38907 0.37239 0.0
C2179 C 0.638 0.40942 0.43663 0.0
C2180 C 0.64624 0.40702 0.40585 0.0
C2181 C 0.65842 0.38782 0.31536 0.0
C2182 C 0.6564 0.39626 0.34604 0.0
H2183 H 0.64845 0.41182 0.51326 0.0
H2184 H 0.66212 0.4133 0.46184 0.0
H2185 H 0.66503 0.38793 0.42193 0.0
H2186 H 0.65133 0.34815 0.28236 0.0
H2187 H 0.65346 0.36183 0.33312 0.0
C2188 C 0.83956 0.38363 0.73839 0.0
C2189 C 0.8559 0.37875 0.75032 0.0
C2190 C 0.83819 0.39005 0.70805 0.0
C2191 C 0.86357 0.4096 0.64423 0.0
H2192 H 0.83601 0.38071 0.58917 0.0
C2193 C 0.86933 0.41274 0.5099 0.0
C2194 C 0.87448 0.39638 0.4984 0.0
C2195 C 0.86293 0.41427 0.54024 0.0
C2196 C 0.84349 0.38913 0.60432 0.0
H2197 H 0.88365 0.37756 0.74066 0.0
H2198 H 0.88129 0.38904 0.68835 0.0
H2199 H 0.8326 0.37765 0.64525 0.0
H2200 H 0.8762 0.36875 0.50887 0.0
H2201 H 0.86473 0.37137 0.56114 0.0
H2202 H 0.87516 0.42037 0.60329 0.0
C2203 C 0.86954 0.38783 0.70215 0.0
C2204 C 0.84148 0.38745 0.63635 0.0
C2205 C 0.87086 0.38108 0.73199 0.0
C2206 C 0.87248 0.38156 0.51719 0.0
C2207 C 0.86574 0.38302 0.54702 0.0
C2208 C 0.86541 0.41146 0.61219 0.0
C2209 C 0.8532 0.39213 0.68965 0.0
C2210 C 0.85207 0.39711 0.65657 0.0
C2211 C 0.86111 0.39938 0.55903 0.0
C2212 C 0.85595 0.40067 0.592 0.0
H2213 H 0.82784 0.38195 0.75209 0.0
H2214 H 0.82543 0.3932 0.69882 0.0
H2215 H 0.87183 0.41725 0.65939 0.0
H2216 H 0.87075 0.42436 0.49584 0.0
H2217 H 0.85952 0.42704 0.54911 0.0
C2218 C 0.88611 0.59218 0.96083 0.0
C2219 C 0.87591 0.59075 0.98769 0.0
C2220 C 0.87844 0.5911 0.93163 0.0
C2221 C 0.83885 0.60377 0.89401 0.0
H2222 H 0.86097 0.58322 0.82193 0.0
C2223 C 0.8396 0.60943 0.75114 0.0
C2224 C 0.84331 0.62735 0.74922 0.0
C2225 C 0.83835 0.60125 0.78011 0.0
C2226 C 0.85435 0.58875 0.8418 0.0
H2227 H 0.84981 0.58631 0.00525 0.0
H2228 H 0.83619 0.58493 0.95378 0.0
H2229 H 0.86957 0.5737 0.87375 0.0
H2230 H 0.84731 0.651 0.77572 0.0
H2231 H 0.84467 0.63691 0.82603 0.0
H2232 H 0.82455 0.61973 0.8621 0.0
C2233 C 0.85019 0.58663 0.95549 0.0
C2234 C 0.85935 0.58338 0.87144 0.0
C2235 C 0.85797 0.58733 0.98485 0.0
C2236 C 0.84448 0.63716 0.77657 0.0
C2237 C 0.84286 0.6291 0.80538 0.0
C2238 C 0.834 0.6093 0.86438 0.0
C2239 C 0.86033 0.58889 0.92863 0.0
C2240 C 0.85213 0.59132 0.89782 0.0
C2241 C 0.84036 0.61098 0.80749 0.0
C2242 C 0.8422 0.60232 0.83804 0.0
H2243 H 0.89998 0.59481 0.9624 0.0
H2244 H 0.88656 0.5931 0.9114 0.0
H2245 H 0.83315 0.61021 0.91392 0.0
H2246 H 0.83876 0.60156 0.73036 0.0
H2247 H 0.83642 0.58727 0.78113 0.0
C2248 C 0.34696 0.36273 0.78289 0.0
C2249 C 0.34505 0.37287 0.75603 0.0
C2250 C 0.34587 0.37041 0.81211 0.0
C2251 C 0.33726 0.38952 0.87215 0.0
H2252 H 0.37288 0.42503 0.88199 0.0
C2253 C 0.36085 0.41163 0.99286 0.0
C2254 C 0.37874 0.40808 0.99608 0.0
C2255 C 0.35323 0.41223 0.96336 0.0
C2256 C 0.36265 0.41537 0.87954 0.0
H2257 H 0.33982 0.39884 0.73853 0.0
H2258 H 0.33847 0.41246 0.79 0.0
H2259 H 0.3641 0.41589 0.83 0.0
H2260 H 0.40291 0.40368 0.97129 0.0
H2261 H 0.38978 0.40526 0.91999 0.0
H2262 H 0.33648 0.38834 0.92169 0.0
C2263 C 0.34053 0.39851 0.78827 0.0
C2264 C 0.35756 0.41021 0.84983 0.0
C2265 C 0.34123 0.39072 0.75892 0.0
C2266 C 0.38908 0.40641 0.96942 0.0
C2267 C 0.38157 0.40741 0.94006 0.0
C2268 C 0.34217 0.39486 0.90186 0.0
C2269 C 0.34319 0.38845 0.8151 0.0
C2270 C 0.34534 0.39673 0.84589 0.0
C2271 C 0.3635 0.40975 0.93673 0.0
C2272 C 0.35543 0.40732 0.90582 0.0
H2273 H 0.34991 0.34894 0.78129 0.0
H2274 H 0.34817 0.36236 0.83233 0.0
H2275 H 0.32778 0.37913 0.86972 0.0
H2276 H 0.35258 0.41283 0.01309 0.0
H2277 H 0.33926 0.41404 0.96138 0.0
C2278 C 0.34473 0.63737 0.7196 0.0
C2279 C 0.34343 0.62754 0.74692 0.0
C2280 C 0.34372 0.62927 0.69076 0.0
C2281 C 0.33617 0.60909 0.6315 0.0
H2282 H 0.37311 0.57477 0.62382 0.0
C2283 C 0.36216 0.58744 0.5122 0.0
C2284 C 0.37996 0.59163 0.50979 0.0
C2285 C 0.35414 0.58656 0.54135 0.0
C2286 C 0.36252 0.58408 0.62566 0.0
H2287 H 0.33926 0.60166 0.76566 0.0
H2288 H 0.33801 0.58729 0.71485 0.0
H2289 H 0.36352 0.5841 0.67522 0.0
H2290 H 0.40359 0.59686 0.53565 0.0
H2291 H 0.38978 0.59481 0.58633 0.0
H2292 H 0.33587 0.60982 0.58193 0.0
C2293 C 0.33955 0.60132 0.71591 0.0
C2294 C 0.35696 0.58934 0.65505 0.0
C2295 C 0.34018 0.60954 0.7449 0.0
C2296 C 0.38984 0.59363 0.5369 0.0
C2297 C 0.38195 0.59236 0.56591 0.0
C2298 C 0.34156 0.60366 0.60212 0.0
C2299 C 0.34172 0.61109 0.6886 0.0
C2300 C 0.34427 0.60246 0.65821 0.0
C2301 C 0.36392 0.58941 0.56843 0.0
C2302 C 0.35532 0.59167 0.59893 0.0
H2303 H 0.34723 0.65128 0.72055 0.0
H2304 H 0.34563 0.63711 0.67016 0.0
H2305 H 0.32632 0.61918 0.63333 0.0
H2306 H 0.35424 0.58597 0.4916 0.0
H2307 H 0.34022 0.58428 0.5427 0.0
C2308 C 0.13155 0.5887 0.49334 0.0
C2309 C 0.12662 0.6051 0.50497 0.0
C2310 C 0.1379 0.58716 0.46297 0.0
C2311 C 0.15772 0.61212 0.39914 0.0
H2312 H 0.12864 0.58499 0.34371 0.0
C2313 C 0.16149 0.61788 0.2649 0.0
C2314 C 0.14526 0.62333 0.25323 0.0
C2315 C 0.16279 0.6114 0.29523 0.0
C2316 C 0.13712 0.59234 0.35897 0.0
H2317 H 0.12521 0.63277 0.49469 0.0
H2318 H 0.1366 0.63012 0.44237 0.0
H2319 H 0.12533 0.58162 0.39978 0.0
H2320 H 0.11763 0.62553 0.26337 0.0
H2321 H 0.11986 0.61394 0.31563 0.0
H2322 H 0.16882 0.62355 0.35834 0.0
C2323 C 0.13546 0.61845 0.45641 0.0
C2324 C 0.13528 0.59034 0.39098 0.0
C2325 C 0.12877 0.61993 0.48627 0.0
C2326 C 0.13034 0.62157 0.27183 0.0
C2327 C 0.13157 0.61476 0.30165 0.0
C2328 C 0.15973 0.61392 0.36712 0.0
C2329 C 0.13988 0.60207 0.44429 0.0
C2330 C 0.14501 0.6008 0.41131 0.0
C2331 C 0.1478 0.60983 0.31383 0.0
C2332 C 0.14889 0.60463 0.3468 0.0
H2333 H 0.13002 0.57707 0.50734 0.0
H2334 H 0.14114 0.57437 0.45399 0.0
H2335 H 0.1654 0.62029 0.4144 0.0
H2336 H 0.17318 0.6191 0.25099 0.0
H2337 H 0.17547 0.60777 0.30423 0.0
C2338 C 0.16066 0.38986 0.2505 0.0
C2339 C 0.15677 0.37202 0.25333 0.0
C2340 C 0.162 0.39754 0.22112 0.0
C2341 C 0.14605 0.40896 0.1586 0.0
H2342 H 0.16792 0.38659 0.08799 0.0
C2343 C 0.11533 0.40341 0.0389 0.0
C2344 C 0.12569 0.4052 0.0123 0.0
C2345 C 0.12274 0.40473 0.06829 0.0
C2346 C 0.16203 0.39327 0.10747 0.0
H2347 H 0.15252 0.34798 0.22807 0.0
H2348 H 0.15537 0.36122 0.17703 0.0
H2349 H 0.17617 0.37786 0.14048 0.0
H2350 H 0.15177 0.41041 0.99535 0.0
H2351 H 0.16497 0.41211 0.04719 0.0
H2352 H 0.13095 0.4234 0.12558 0.0
C2353 C 0.15723 0.36934 0.19729 0.0
C2354 C 0.16668 0.3882 0.13747 0.0
C2355 C 0.15549 0.36178 0.2265 0.0
C2356 C 0.14351 0.40909 0.01556 0.0
C2357 C 0.15104 0.41 0.04511 0.0
C2358 C 0.14123 0.41385 0.12861 0.0
C2359 C 0.15993 0.38738 0.19426 0.0
C2360 C 0.15826 0.39555 0.16328 0.0
C2361 C 0.14075 0.4075 0.07171 0.0
C2362 C 0.14871 0.40558 0.10279 0.0
H2363 H 0.16159 0.39805 0.27088 0.0
H2364 H 0.16407 0.41149 0.21937 0.0
H2365 H 0.13926 0.41475 0.17805 0.0
H2366 H 0.10156 0.40042 0.03699 0.0
H2367 H 0.11453 0.40254 0.08834 0.0
loop_
_geom_bond_atom_site_label_1
_geom_bond_atom_site_label_2
_geom_bond_distance
_geom_bond_site_symmetry_2
_ccdc_geom_bond_type
O0 Cd1 2.223 . S
O0 C8 1.315 . S
Cd1 O0 2.223 . S
Cd1 O4 2.297 . S
Cd1 O5 2.439 . S
Cd1 O11 2.240 . S
Cd2 O3 2.240 . S
Cd2 O10 2.223 . S
Cd2 O12 2.297 . S
Cd2 O13 2.439 . S
O3 Cd2 2.240 . S
O3 C8 1.279 . S
O4 Cd1 2.297 . S
O4 C6 1.247 . S
O5 Cd1 2.439 . S
O5 C6 1.208 . S
C6 O4 1.247 . S
C6 O5 1.208 . S
C7 O12 1.247 . S
C7 O13 1.208 . S
C8 O0 1.315 . S
C8 O3 1.279 . S
C9 O10 1.315 . S
C9 O11 1.279 . S
O10 Cd2 2.223 . S
O10 C9 1.315 . S
O11 Cd1 2.240 . S
O11 C9 1.279 . S
O12 Cd2 2.297 . S
O12 C7 1.247 . S
O13 Cd2 2.439 . S
O13 C7 1.208 . S
O14 Cd15 2.223 . S
O14 C22 1.315 . S
Cd15 O14 2.223 . S
Cd15 O18 2.297 . S
Cd15 O19 2.439 . S
Cd15 O25 2.240 . S
Cd16 O17 2.240 . S
Cd16 O24 2.223 . S
Cd16 O26 2.297 . S
Cd16 O27 2.439 . S
O17 Cd16 2.240 . S
O17 C22 1.279 . S
O18 Cd15 2.297 . S
O18 C20 1.247 . S
O19 Cd15 2.439 . S
O19 C20 1.208 . S
C20 O18 1.247 . S
C20 O19 1.208 . S
C21 O26 1.247 . S
C21 O27 1.208 . S
C22 O14 1.315 . S
C22 O17 1.279 . S
C23 O24 1.315 . S
C23 O25 1.279 . S
O24 Cd16 2.223 . S
O24 C23 1.315 . S
O25 Cd15 2.240 . S
O25 C23 1.279 . S
O26 Cd16 2.297 . S
O26 C21 1.247 . S
O27 Cd16 2.439 . S
O27 C21 1.208 . S
O28 Cd29 2.223 . S
O28 C36 1.315 . S
Cd29 O28 2.223 . S
Cd29 O32 2.297 . S
Cd29 O33 2.439 . S
Cd29 O39 2.240 . S
Cd30 O31 2.240 . S
Cd30 O38 2.223 . S
Cd30 O40 2.297 . S
Cd30 O41 2.439 . S
O31 Cd30 2.240 . S
O31 C36 1.279 . S
O32 Cd29 2.297 . S
O32 C34 1.247 . S
O33 Cd29 2.439 . S
O33 C34 1.208 . S
C34 O32 1.247 . S
C34 O33 1.208 . S
C35 O40 1.247 . S
C35 O41 1.208 . S
C36 O28 1.315 . S
C36 O31 1.279 . S
C37 O38 1.315 . S
C37 O39 1.279 . S
O38 Cd30 2.223 . S
O38 C37 1.315 . S
O39 Cd29 2.240 . S
O39 C37 1.279 . S
O40 Cd30 2.297 . S
O40 C35 1.247 . S
O41 Cd30 2.439 . S
O41 C35 1.208 . S
O42 Cd43 2.223 . S
O42 C50 1.315 . S
Cd43 O42 2.223 . S
Cd43 O46 2.297 . S
Cd43 O47 2.439 . S
Cd43 O53 2.240 . S
Cd44 O45 2.240 . S
Cd44 O52 2.223 . S
Cd44 O54 2.297 . S
Cd44 O55 2.439 . S
O45 Cd44 2.240 . S
O45 C50 1.279 . S
O46 Cd43 2.297 . S
O46 C48 1.247 . S
O47 Cd43 2.439 . S
O47 C48 1.208 . S
C48 O46 1.247 . S
C48 O47 1.208 . S
C49 O54 1.247 . S
C49 O55 1.208 . S
C50 O42 1.315 . S
C50 O45 1.279 . S
C51 O52 1.315 . S
C51 O53 1.279 . S
O52 Cd44 2.223 . S
O52 C51 1.315 . S
O53 Cd43 2.240 . S
O53 C51 1.279 . S
O54 Cd44 2.297 . S
O54 C49 1.247 . S
O55 Cd44 2.439 . S
O55 C49 1.208 . S
O56 Cd57 2.223 . S
O56 C64 1.315 . S
Cd57 O56 2.223 . S
Cd57 O60 2.297 . S
Cd57 O61 2.439 . S
Cd57 O67 2.240 . S
Cd58 O59 2.240 . S
Cd58 O66 2.223 . S
Cd58 O68 2.297 . S
Cd58 O69 2.439 . S
O59 Cd58 2.240 . S
O59 C64 1.279 . S
O60 Cd57 2.297 . S
O60 C62 1.247 . S
O61 Cd57 2.439 . S
O61 C62 1.208 . S
C62 O60 1.247 . S
C62 O61 1.208 . S
C63 O68 1.247 . S
C63 O69 1.208 . S
C64 O56 1.315 . S
C64 O59 1.279 . S
C65 O66 1.315 . S
C65 O67 1.279 . S
O66 Cd58 2.223 . S
O66 C65 1.315 . S
O67 Cd57 2.240 . S
O67 C65 1.279 . S
O68 Cd58 2.297 . S
O68 C63 1.247 . S
O69 Cd58 2.439 . S
O69 C63 1.208 . S
O70 Cd71 2.223 . S
O70 C78 1.315 . S
Cd71 O70 2.223 . S
Cd71 O74 2.297 . S
Cd71 O75 2.439 . S
Cd71 O81 2.240 . S
Cd72 O73 2.240 . S
Cd72 O80 2.223 . S
Cd72 O82 2.297 . S
Cd72 O83 2.439 . S
O73 Cd72 2.240 . S
O73 C78 1.279 . S
O74 Cd71 2.297 . S
O74 C76 1.247 . S
O75 Cd71 2.439 . S
O75 C76 1.208 . S
C76 O74 1.247 . S
C76 O75 1.208 . S
C77 O82 1.247 . S
C77 O83 1.208 . S
C78 O70 1.315 . S
C78 O73 1.279 . S
C79 O80 1.315 . S
C79 O81 1.279 . S
O80 Cd72 2.223 . S
O80 C79 1.315 . S
O81 Cd71 2.240 . S
O81 C79 1.279 . S
O82 Cd72 2.297 . S
O82 C77 1.247 . S
O83 Cd72 2.439 . S
O83 C77 1.208 . S
O84 Cd85 2.223 . S
O84 C92 1.315 . S
Cd85 O84 2.223 . S
Cd85 O88 2.297 . S
Cd85 O89 2.439 . S
Cd85 O95 2.240 . S
Cd86 O87 2.240 . S
Cd86 O94 2.223 . S
Cd86 O96 2.297 . S
Cd86 O97 2.439 . S
O87 Cd86 2.240 . S
O87 C92 1.279 . S
O88 Cd85 2.297 . S
O88 C90 1.247 . S
O89 Cd85 2.439 . S
O89 C90 1.208 . S
C90 O88 1.247 . S
C90 O89 1.208 . S
C91 O96 1.247 . S
C91 O97 1.208 . S
C92 O84 1.315 . S
C92 O87 1.279 . S
C93 O94 1.315 . S
C93 O95 1.279 . S
O94 Cd86 2.223 . S
O94 C93 1.315 . S
O95 Cd85 2.240 . S
O95 C93 1.279 . S
O96 Cd86 2.297 . S
O96 C91 1.247 . S
O97 Cd86 2.439 . S
O97 C91 1.208 . S
O98 Cd99 2.223 . S
O98 C106 1.315 . S
Cd99 O98 2.223 . S
Cd99 O102 2.297 . S
Cd99 O103 2.439 . S
Cd99 O109 2.240 . S
Cd100 O101 2.240 . S
Cd100 O108 2.223 . S
Cd100 O110 2.297 . S
Cd100 O111 2.439 . S
O101 Cd100 2.240 . S
O101 C106 1.279 . S
O102 Cd99 2.297 . S
O102 C104 1.247 . S
O103 Cd99 2.439 . S
O103 C104 1.208 . S
C104 O102 1.247 . S
C104 O103 1.208 . S
C105 O110 1.247 . S
C105 O111 1.208 . S
C106 O98 1.315 . S
C106 O101 1.279 . S
C107 O108 1.315 . S
C107 O109 1.279 . S
O108 Cd100 2.223 . S
O108 C107 1.315 . S
O109 Cd99 2.240 . S
O109 C107 1.279 . S
O110 Cd100 2.297 . S
O110 C105 1.247 . S
O111 Cd100 2.439 . S
O111 C105 1.208 . S
O112 Cd113 2.223 . S
O112 C120 1.315 . S
Cd113 O112 2.223 . S
Cd113 O116 2.297 . S
Cd113 O117 2.439 . S
Cd113 O123 2.240 . S
Cd114 O115 2.240 . S
Cd114 O122 2.223 . S
Cd114 O124 2.297 . S
Cd114 O125 2.439 . S
O115 Cd114 2.240 . S
O115 C120 1.279 . S
O116 Cd113 2.297 . S
O116 C118 1.247 . S
O117 Cd113 2.439 . S
O117 C118 1.208 . S
C118 O116 1.247 . S
C118 O117 1.208 . S
C119 O124 1.247 . S
C119 O125 1.208 . S
C120 O112 1.315 . S
C120 O115 1.279 . S
C121 O122 1.315 . S
C121 O123 1.279 . S
O122 Cd114 2.223 . S
O122 C121 1.315 . S
O123 Cd113 2.240 . S
O123 C121 1.279 . S
O124 Cd114 2.297 . S
O124 C119 1.247 . S
O125 Cd114 2.439 . S
O125 C119 1.208 . S
O126 Cd127 2.223 . S
O126 C134 1.315 . S
Cd127 O126 2.223 . S
Cd127 O130 2.297 . S
Cd127 O131 2.439 . S
Cd127 O137 2.240 . S
Cd128 O129 2.240 . S
Cd128 O136 2.223 . S
Cd128 O138 2.297 . S
Cd128 O139 2.439 . S
O129 Cd128 2.240 . S
O129 C134 1.279 . S
O130 Cd127 2.297 . S
O130 C132 1.247 . S
O131 Cd127 2.439 . S
O131 C132 1.208 . S
C132 O130 1.247 . S
C132 O131 1.208 . S
C133 O138 1.247 . S
C133 O139 1.208 . S
C134 O126 1.315 . S
C134 O129 1.279 . S
C135 O136 1.315 . S
C135 O137 1.279 . S
O136 Cd128 2.223 . S
O136 C135 1.315 . S
O137 Cd127 2.240 . S
O137 C135 1.279 . S
O138 Cd128 2.297 . S
O138 C133 1.247 . S
O139 Cd128 2.439 . S
O139 C133 1.208 . S
O140 Cd141 2.223 . S
O140 C148 1.315 . S
Cd141 O140 2.223 . S
Cd141 O144 2.297 . S
Cd141 O145 2.439 . S
Cd141 O151 2.240 . S
Cd142 O143 2.240 . S
Cd142 O150 2.223 . S
Cd142 O152 2.297 . S
Cd142 O153 2.439 . S
O143 Cd142 2.240 . S
O143 C148 1.279 . S
O144 Cd141 2.297 . S
O144 C146 1.247 . S
O145 Cd141 2.439 . S
O145 C146 1.208 . S
C146 O144 1.247 . S
C146 O145 1.208 . S
C147 O152 1.247 . S
C147 O153 1.208 . S
C148 O140 1.315 . S
C148 O143 1.279 . S
C149 O150 1.315 . S
C149 O151 1.279 . S
O150 Cd142 2.223 . S
O150 C149 1.315 . S
O151 Cd141 2.240 . S
O151 C149 1.279 . S
O152 Cd142 2.297 . S
O152 C147 1.247 . S
O153 Cd142 2.439 . S
O153 C147 1.208 . S
O154 Cd155 2.223 . S
O154 C162 1.315 . S
Cd155 O154 2.223 . S
Cd155 O158 2.297 . S
Cd155 O159 2.439 . S
Cd155 O165 2.240 . S
Cd156 O157 2.240 . S
Cd156 O164 2.223 . S
Cd156 O166 2.297 . S
Cd156 O167 2.439 . S
O157 Cd156 2.240 . S
O157 C162 1.279 . S
O158 Cd155 2.297 . S
O158 C160 1.247 . S
O159 Cd155 2.439 . S
O159 C160 1.208 . S
C160 O158 1.247 . S
C160 O159 1.208 . S
C161 O166 1.247 . S
C161 O167 1.208 . S
C162 O154 1.315 . S
C162 O157 1.279 . S
C163 O164 1.315 . S
C163 O165 1.279 . S
O164 Cd156 2.223 . S
O164 C163 1.315 . S
O165 Cd155 2.240 . S
O165 C163 1.279 . S
O166 Cd156 2.297 . S
O166 C161 1.247 . S
O167 Cd156 2.439 . S
O167 C161 1.208 . S
O168 Cd169 2.223 . S
O168 C176 1.315 . S
Cd169 O168 2.223 . S
Cd169 O172 2.297 . S
Cd169 O173 2.439 . S
Cd169 O179 2.240 . S
Cd170 O171 2.240 . S
Cd170 O178 2.223 . S
Cd170 O180 2.297 . S
Cd170 O181 2.439 . S
O171 Cd170 2.240 . S
O171 C176 1.279 . S
O172 Cd169 2.297 . S
O172 C174 1.247 . S
O173 Cd169 2.439 . S
O173 C174 1.208 . S
C174 O172 1.247 . S
C174 O173 1.208 . S
C175 O180 1.247 . S
C175 O181 1.208 . S
C176 O168 1.315 . S
C176 O171 1.279 . S
C177 O178 1.315 . S
C177 O179 1.279 . S
O178 Cd170 2.223 . S
O178 C177 1.315 . S
O179 Cd169 2.240 . S
O179 C177 1.279 . S
O180 Cd170 2.297 . S
O180 C175 1.247 . S
O181 Cd170 2.439 . S
O181 C175 1.208 . S
O182 Cd183 2.223 . S
O182 C190 1.315 . S
Cd183 O182 2.223 . S
Cd183 O186 2.297 . S
Cd183 O187 2.439 . S
Cd183 O193 2.240 . S
Cd184 O185 2.240 . S
Cd184 O192 2.223 . S
Cd184 O194 2.297 . S
Cd184 O195 2.439 . S
O185 Cd184 2.240 . S
O185 C190 1.279 . S
O186 Cd183 2.297 . S
O186 C188 1.247 . S
O187 Cd183 2.439 . S
O187 C188 1.208 . S
C188 O186 1.247 . S
C188 O187 1.208 . S
C189 O194 1.247 . S
C189 O195 1.208 . S
C190 O182 1.315 . S
C190 O185 1.279 . S
C191 O192 1.315 . S
C191 O193 1.279 . S
O192 Cd184 2.223 . S
O192 C191 1.315 . S
O193 Cd183 2.240 . S
O193 C191 1.279 . S
O194 Cd184 2.297 . S
O194 C189 1.247 . S
O195 Cd184 2.439 . S
O195 C189 1.208 . S
O196 Cd197 2.223 . S
O196 C204 1.315 . S
Cd197 O196 2.223 . S
Cd197 O200 2.297 . S
Cd197 O201 2.439 . S
Cd197 O207 2.240 . S
Cd198 O199 2.240 . S
Cd198 O206 2.223 . S
Cd198 O208 2.297 . S
Cd198 O209 2.439 . S
O199 Cd198 2.240 . S
O199 C204 1.279 . S
O200 Cd197 2.297 . S
O200 C202 1.247 . S
O201 Cd197 2.439 . S
O201 C202 1.208 . S
C202 O200 1.247 . S
C202 O201 1.208 . S
C203 O208 1.247 . S
C203 O209 1.208 . S
C204 O196 1.315 . S
C204 O199 1.279 . S
C205 O206 1.315 . S
C205 O207 1.279 . S
O206 Cd198 2.223 . S
O206 C205 1.315 . S
O207 Cd197 2.240 . S
O207 C205 1.279 . S
O208 Cd198 2.297 . S
O208 C203 1.247 . S
O209 Cd198 2.439 . S
O209 C203 1.208 . S
O210 Cd211 2.223 . S
O210 C218 1.315 . S
Cd211 O210 2.223 . S
Cd211 O214 2.297 . S
Cd211 O215 2.439 . S
Cd211 O221 2.240 . S
Cd212 O213 2.240 . S
Cd212 O220 2.223 . S
Cd212 O222 2.297 . S
Cd212 O223 2.439 . S
O213 Cd212 2.240 . S
O213 C218 1.279 . S
O214 Cd211 2.297 . S
O214 C216 1.247 . S
O215 Cd211 2.439 . S
O215 C216 1.208 . S
C216 O214 1.247 . S
C216 O215 1.208 . S
C217 O222 1.247 . S
C217 O223 1.208 . S
C218 O210 1.315 . S
C218 O213 1.279 . S
C219 O220 1.315 . S
C219 O221 1.279 . S
O220 Cd212 2.223 . S
O220 C219 1.315 . S
O221 Cd211 2.240 . S
O221 C219 1.279 . S
O222 Cd212 2.297 . S
O222 C217 1.247 . S
O223 Cd212 2.439 . S
O223 C217 1.208 . S
O224 Cd225 2.223 . S
O224 C232 1.315 . S
Cd225 O224 2.223 . S
Cd225 O228 2.297 . S
Cd225 O229 2.439 . S
Cd225 O235 2.240 . S
Cd226 O227 2.240 . S
Cd226 O234 2.223 . S
Cd226 O236 2.297 . S
Cd226 O237 2.439 . S
O227 Cd226 2.240 . S
O227 C232 1.279 . S
O228 Cd225 2.297 . S
O228 C230 1.247 . S
O229 Cd225 2.439 . S
O229 C230 1.208 . S
C230 O228 1.247 . S
C230 O229 1.208 . S
C231 O236 1.247 . S
C231 O237 1.208 . S
C232 O224 1.315 . S
C232 O227 1.279 . S
C233 O234 1.315 . S
C233 O235 1.279 . S
O234 Cd226 2.223 . S
O234 C233 1.315 . S
O235 Cd225 2.240 . S
O235 C233 1.279 . S
O236 Cd226 2.297 . S
O236 C231 1.247 . S
O237 Cd226 2.439 . S
O237 C231 1.208 . S
O238 Cd239 2.223 . S
O238 C246 1.315 . S
Cd239 O238 2.223 . S
Cd239 O242 2.297 . S
Cd239 O243 2.439 . S
Cd239 O249 2.240 . S
Cd240 O241 2.240 . S
Cd240 O248 2.223 . S
Cd240 O250 2.297 . S
Cd240 O251 2.439 . S
O241 Cd240 2.240 . S
O241 C246 1.279 . S
O242 Cd239 2.297 . S
O242 C244 1.247 . S
O243 Cd239 2.439 . S
O243 C244 1.208 . S
C244 O242 1.247 . S
C244 O243 1.208 . S
C245 O250 1.247 . S
C245 O251 1.208 . S
C246 O238 1.315 . S
C246 O241 1.279 . S
C247 O248 1.315 . S
C247 O249 1.279 . S
O248 Cd240 2.223 . S
O248 C247 1.315 . S
O249 Cd239 2.240 . S
O249 C247 1.279 . S
O250 Cd240 2.297 . S
O250 C245 1.247 . S
O251 Cd240 2.439 . S
O251 C245 1.208 . S
O252 Cd253 2.223 . S
O252 C260 1.315 . S
Cd253 O252 2.223 . S
Cd253 O256 2.297 . S
Cd253 O257 2.439 . S
Cd253 O263 2.240 . S
Cd254 O255 2.240 . S
Cd254 O262 2.223 . S
Cd254 O264 2.297 . S
Cd254 O265 2.439 . S
O255 Cd254 2.240 . S
O255 C260 1.279 . S
O256 Cd253 2.297 . S
O256 C258 1.247 . S
O257 Cd253 2.439 . S
O257 C258 1.208 . S
C258 O256 1.247 . S
C258 O257 1.208 . S
C259 O264 1.247 . S
C259 O265 1.208 . S
C260 O252 1.315 . S
C260 O255 1.279 . S
C261 O262 1.315 . S
C261 O263 1.279 . S
O262 Cd254 2.223 . S
O262 C261 1.315 . S
O263 Cd253 2.240 . S
O263 C261 1.279 . S
O264 Cd254 2.297 . S
O264 C259 1.247 . S
O265 Cd254 2.439 . S
O265 C259 1.208 . S
O266 Cd267 2.223 . S
O266 C274 1.315 . S
Cd267 O266 2.223 . S
Cd267 O270 2.297 . S
Cd267 O271 2.439 . S
Cd267 O277 2.240 . S
Cd268 O269 2.240 . S
Cd268 O276 2.223 . S
Cd268 O278 2.297 . S
Cd268 O279 2.439 . S
O269 Cd268 2.240 . S
O269 C274 1.279 . S
O270 Cd267 2.297 . S
O270 C272 1.247 . S
O271 Cd267 2.439 . S
O271 C272 1.208 . S
C272 O270 1.247 . S
C272 O271 1.208 . S
C273 O278 1.247 . S
C273 O279 1.208 . S
C274 O266 1.315 . S
C274 O269 1.279 . S
C275 O276 1.315 . S
C275 O277 1.279 . S
O276 Cd268 2.223 . S
O276 C275 1.315 . S
O277 Cd267 2.240 . S
O277 C275 1.279 . S
O278 Cd268 2.297 . S
O278 C273 1.247 . S
O279 Cd268 2.439 . S
O279 C273 1.208 . S
O280 Cd281 2.223 . S
O280 C288 1.315 . S
Cd281 O280 2.223 . S
Cd281 O284 2.297 . S
Cd281 O285 2.439 . S
Cd281 O291 2.240 . S
Cd282 O283 2.240 . S
Cd282 O290 2.223 . S
Cd282 O292 2.297 . S
Cd282 O293 2.439 . S
O283 Cd282 2.240 . S
O283 C288 1.279 . S
O284 Cd281 2.297 . S
O284 C286 1.247 . S
O285 Cd281 2.439 . S
O285 C286 1.208 . S
C286 O284 1.247 . S
C286 O285 1.208 . S
C287 O292 1.247 . S
C287 O293 1.208 . S
C288 O280 1.315 . S
C288 O283 1.279 . S
C289 O290 1.315 . S
C289 O291 1.279 . S
O290 Cd282 2.223 . S
O290 C289 1.315 . S
O291 Cd281 2.240 . S
O291 C289 1.279 . S
O292 Cd282 2.297 . S
O292 C287 1.247 . S
O293 Cd282 2.439 . S
O293 C287 1.208 . S
O294 Cd295 2.223 . S
O294 C302 1.315 . S
Cd295 O294 2.223 . S
Cd295 O298 2.297 . S
Cd295 O299 2.439 . S
Cd295 O305 2.240 . S
Cd296 O297 2.240 . S
Cd296 O304 2.223 . S
Cd296 O306 2.297 . S
Cd296 O307 2.439 . S
O297 Cd296 2.240 . S
O297 C302 1.279 . S
O298 Cd295 2.297 . S
O298 C300 1.247 . S
O299 Cd295 2.439 . S
O299 C300 1.208 . S
C300 O298 1.247 . S
C300 O299 1.208 . S
C301 O306 1.247 . S
C301 O307 1.208 . S
C302 O294 1.315 . S
C302 O297 1.279 . S
C303 O304 1.315 . S
C303 O305 1.279 . S
O304 Cd296 2.223 . S
O304 C303 1.315 . S
O305 Cd295 2.240 . S
O305 C303 1.279 . S
O306 Cd296 2.297 . S
O306 C301 1.247 . S
O307 Cd296 2.439 . S
O307 C301 1.208 . S
O308 Cd309 2.223 . S
O308 C316 1.315 . S
Cd309 O308 2.223 . S
Cd309 O312 2.297 . S
Cd309 O313 2.439 . S
Cd309 O319 2.240 . S
Cd310 O311 2.240 . S
Cd310 O318 2.223 . S
Cd310 O320 2.297 . S
Cd310 O321 2.439 . S
O311 Cd310 2.240 . S
O311 C316 1.279 . S
O312 Cd309 2.297 . S
O312 C314 1.247 . S
O313 Cd309 2.439 . S
O313 C314 1.208 . S
C314 O312 1.247 . S
C314 O313 1.208 . S
C315 O320 1.247 . S
C315 O321 1.208 . S
C316 O308 1.315 . S
C316 O311 1.279 . S
C317 O318 1.315 . S
C317 O319 1.279 . S
O318 Cd310 2.223 . S
O318 C317 1.315 . S
O319 Cd309 2.240 . S
O319 C317 1.279 . S
O320 Cd310 2.297 . S
O320 C315 1.247 . S
O321 Cd310 2.439 . S
O321 C315 1.208 . S
O322 Cd323 2.223 . S
O322 C330 1.315 . S
Cd323 O322 2.223 . S
Cd323 O326 2.297 . S
Cd323 O327 2.439 . S
Cd323 O333 2.240 . S
Cd324 O325 2.240 . S
Cd324 O332 2.223 . S
Cd324 O334 2.297 . S
Cd324 O335 2.439 . S
O325 Cd324 2.240 . S
O325 C330 1.279 . S
O326 Cd323 2.297 . S
O326 C328 1.247 . S
O327 Cd323 2.439 . S
O327 C328 1.208 . S
C328 O326 1.247 . S
C328 O327 1.208 . S
C329 O334 1.247 . S
C329 O335 1.208 . S
C330 O322 1.315 . S
C330 O325 1.279 . S
C331 O332 1.315 . S
C331 O333 1.279 . S
O332 Cd324 2.223 . S
O332 C331 1.315 . S
O333 Cd323 2.240 . S
O333 C331 1.279 . S
O334 Cd324 2.297 . S
O334 C329 1.247 . S
O335 Cd324 2.439 . S
O335 C329 1.208 . S
O336 Cd337 2.223 . S
O336 C344 1.315 . S
Cd337 O336 2.223 . S
Cd337 O340 2.297 . S
Cd337 O341 2.439 . S
Cd337 O347 2.240 . S
Cd338 O339 2.240 . S
Cd338 O346 2.223 . S
Cd338 O348 2.297 . S
Cd338 O349 2.439 . S
O339 Cd338 2.240 . S
O339 C344 1.279 . S
O340 Cd337 2.297 . S
O340 C342 1.247 . S
O341 Cd337 2.439 . S
O341 C342 1.208 . S
C342 O340 1.247 . S
C342 O341 1.208 . S
C343 O348 1.247 . S
C343 O349 1.208 . S
C344 O336 1.315 . S
C344 O339 1.279 . S
C345 O346 1.315 . S
C345 O347 1.279 . S
O346 Cd338 2.223 . S
O346 C345 1.315 . S
O347 Cd337 2.240 . S
O347 C345 1.279 . S
O348 Cd338 2.297 . S
O348 C343 1.247 . S
O349 Cd338 2.439 . S
O349 C343 1.208 . S
O350 Cd351 2.223 . S
O350 C358 1.315 . S
Cd351 O350 2.223 . S
Cd351 O354 2.297 . S
Cd351 O355 2.439 . S
Cd351 O361 2.240 . S
Cd352 O353 2.240 . S
Cd352 O360 2.223 . S
Cd352 O362 2.297 . S
Cd352 O363 2.439 . S
O353 Cd352 2.240 . S
O353 C358 1.279 . S
O354 Cd351 2.297 . S
O354 C356 1.247 . S
O355 Cd351 2.439 . S
O355 C356 1.208 . S
C356 O354 1.247 . S
C356 O355 1.208 . S
C357 O362 1.247 . S
C357 O363 1.208 . S
C358 O350 1.315 . S
C358 O353 1.279 . S
C359 O360 1.315 . S
C359 O361 1.279 . S
O360 Cd352 2.223 . S
O360 C359 1.315 . S
O361 Cd351 2.240 . S
O361 C359 1.279 . S
O362 Cd352 2.297 . S
O362 C357 1.247 . S
O363 Cd352 2.439 . S
O363 C357 1.208 . S
O364 Cd365 2.223 . S
O364 C372 1.315 . S
Cd365 O364 2.223 . S
Cd365 O368 2.297 . S
Cd365 O369 2.439 . S
Cd365 O375 2.240 . S
Cd366 O367 2.240 . S
Cd366 O374 2.223 . S
Cd366 O376 2.297 . S
Cd366 O377 2.439 . S
O367 Cd366 2.240 . S
O367 C372 1.279 . S
O368 Cd365 2.297 . S
O368 C370 1.247 . S
O369 Cd365 2.439 . S
O369 C370 1.208 . S
C370 O368 1.247 . S
C370 O369 1.208 . S
C371 O376 1.247 . S
C371 O377 1.208 . S
C372 O364 1.315 . S
C372 O367 1.279 . S
C373 O374 1.315 . S
C373 O375 1.279 . S
O374 Cd366 2.223 . S
O374 C373 1.315 . S
O375 Cd365 2.240 . S
O375 C373 1.279 . S
O376 Cd366 2.297 . S
O376 C371 1.247 . S
O377 Cd366 2.439 . S
O377 C371 1.208 . S
O378 Cd379 2.223 . S
O378 C386 1.315 . S
Cd379 O378 2.223 . S
Cd379 O382 2.297 . S
Cd379 O383 2.439 . S
Cd379 O389 2.240 . S
Cd380 O381 2.240 . S
Cd380 O388 2.223 . S
Cd380 O390 2.297 . S
Cd380 O391 2.439 . S
O381 Cd380 2.240 . S
O381 C386 1.279 . S
O382 Cd379 2.297 . S
O382 C384 1.247 . S
O383 Cd379 2.439 . S
O383 C384 1.208 . S
C384 O382 1.247 . S
C384 O383 1.208 . S
C385 O390 1.247 . S
C385 O391 1.208 . S
C386 O378 1.315 . S
C386 O381 1.279 . S
C387 O388 1.315 . S
C387 O389 1.279 . S
O388 Cd380 2.223 . S
O388 C387 1.315 . S
O389 Cd379 2.240 . S
O389 C387 1.279 . S
O390 Cd380 2.297 . S
O390 C385 1.247 . S
O391 Cd380 2.439 . S
O391 C385 1.208 . S
O392 Cd393 2.223 . S
O392 C400 1.315 . S
Cd393 O392 2.223 . S
Cd393 O396 2.297 . S
Cd393 O397 2.439 . S
Cd393 O403 2.240 . S
Cd394 O395 2.240 . S
Cd394 O402 2.223 . S
Cd394 O404 2.297 . S
Cd394 O405 2.439 . S
O395 Cd394 2.240 . S
O395 C400 1.279 . S
O396 Cd393 2.297 . S
O396 C398 1.247 . S
O397 Cd393 2.439 . S
O397 C398 1.208 . S
C398 O396 1.247 . S
C398 O397 1.208 . S
C399 O404 1.247 . S
C399 O405 1.208 . S
C400 O392 1.315 . S
C400 O395 1.279 . S
C401 O402 1.315 . S
C401 O403 1.279 . S
O402 Cd394 2.223 . S
O402 C401 1.315 . S
O403 Cd393 2.240 . S
O403 C401 1.279 . S
O404 Cd394 2.297 . S
O404 C399 1.247 . S
O405 Cd394 2.439 . S
O405 C399 1.208 . S
O406 Cd407 2.223 . S
O406 C414 1.315 . S
Cd407 O406 2.223 . S
Cd407 O410 2.297 . S
Cd407 O411 2.439 . S
Cd407 O417 2.240 . S
Cd408 O409 2.240 . S
Cd408 O416 2.223 . S
Cd408 O418 2.297 . S
Cd408 O419 2.439 . S
O409 Cd408 2.240 . S
O409 C414 1.279 . S
O410 Cd407 2.297 . S
O410 C412 1.247 . S
O411 Cd407 2.439 . S
O411 C412 1.208 . S
C412 O410 1.247 . S
C412 O411 1.208 . S
C413 O418 1.247 . S
C413 O419 1.208 . S
C414 O406 1.315 . S
C414 O409 1.279 . S
C415 O416 1.315 . S
C415 O417 1.279 . S
O416 Cd408 2.223 . S
O416 C415 1.315 . S
O417 Cd407 2.240 . S
O417 C415 1.279 . S
O418 Cd408 2.297 . S
O418 C413 1.247 . S
O419 Cd408 2.439 . S
O419 C413 1.208 . S
O420 Cd421 2.223 . S
O420 C428 1.315 . S
Cd421 O420 2.223 . S
Cd421 O424 2.297 . S
Cd421 O425 2.439 . S
Cd421 O431 2.240 . S
Cd422 O423 2.240 . S
Cd422 O430 2.223 . S
Cd422 O432 2.297 . S
Cd422 O433 2.439 . S
O423 Cd422 2.240 . S
O423 C428 1.279 . S
O424 Cd421 2.297 . S
O424 C426 1.247 . S
O425 Cd421 2.439 . S
O425 C426 1.208 . S
C426 O424 1.247 . S
C426 O425 1.208 . S
C427 O432 1.247 . S
C427 O433 1.208 . S
C428 O420 1.315 . S
C428 O423 1.279 . S
C429 O430 1.315 . S
C429 O431 1.279 . S
O430 Cd422 2.223 . S
O430 C429 1.315 . S
O431 Cd421 2.240 . S
O431 C429 1.279 . S
O432 Cd422 2.297 . S
O432 C427 1.247 . S
O433 Cd422 2.439 . S
O433 C427 1.208 . S
O434 Cd435 2.223 . S
O434 C442 1.315 . S
Cd435 O434 2.223 . S
Cd435 O438 2.297 . S
Cd435 O439 2.439 . S
Cd435 O445 2.240 . S
Cd436 O437 2.240 . S
Cd436 O444 2.223 . S
Cd436 O446 2.297 . S
Cd436 O447 2.439 . S
O437 Cd436 2.240 . S
O437 C442 1.279 . S
O438 Cd435 2.297 . S
O438 C440 1.247 . S
O439 Cd435 2.439 . S
O439 C440 1.208 . S
C440 O438 1.247 . S
C440 O439 1.208 . S
C441 O446 1.247 . S
C441 O447 1.208 . S
C442 O434 1.315 . S
C442 O437 1.279 . S
C443 O444 1.315 . S
C443 O445 1.279 . S
O444 Cd436 2.223 . S
O444 C443 1.315 . S
O445 Cd435 2.240 . S
O445 C443 1.279 . S
O446 Cd436 2.297 . S
O446 C441 1.247 . S
O447 Cd436 2.439 . S
O447 C441 1.208 . S
C448 C449 1.349 . S
C448 C450 1.327 . S
C448 H473 0.950 . S
C449 C448 1.349 . S
C449 C465 1.349 . S
C450 C448 1.327 . S
C450 C469 1.429 . S
C450 H474 0.950 . S
C451 C468 1.574 . S
C451 C470 1.368 1_565 S
C451 H475 0.949 . S
H452 C456 0.949 . S
C453 C454 1.349 . S
C453 C455 1.327 . S
C453 H476 0.950 . S
C454 C453 1.349 . S
C454 C466 1.349 . S
C455 C453 1.327 . S
C455 C471 1.429 . S
C455 H477 0.950 . S
C456 H452 0.949 . S
C456 C464 1.574 . S
C456 C472 1.368 1_545 S
H457 C465 0.950 . S
H458 C463 0.950 . S
H459 C464 0.949 . S
H460 C466 0.950 . S
H461 C467 0.950 . S
H462 C468 0.949 . S
C463 H458 0.950 . S
C463 C465 1.327 . S
C463 C469 1.429 . S
C464 C456 1.574 . S
C464 H459 0.949 . S
C464 C470 1.368 . S
C465 C449 1.349 . S
C465 H457 0.950 . S
C465 C463 1.327 . S
C466 C454 1.349 . S
C466 H460 0.950 . S
C466 C467 1.327 . S
C467 H461 0.950 . S
C467 C466 1.327 . S
C467 C471 1.429 . S
C468 C451 1.574 . S
C468 H462 0.949 . S
C468 C472 1.368 . S
C469 C450 1.429 . S
C469 C463 1.429 . S
C469 C470 1.523 . S
C470 C451 1.368 1_545 S
C470 C464 1.368 . S
C470 C469 1.523 . S
C471 C455 1.429 . S
C471 C467 1.429 . S
C471 C472 1.523 . S
C472 C456 1.368 1_565 S
C472 C468 1.368 . S
C472 C471 1.523 . S
H473 C448 0.950 . S
H474 C450 0.950 . S
H475 C451 0.949 . S
H476 C453 0.950 . S
H477 C455 0.950 . S
C478 C479 1.349 . S
C478 C480 1.327 . S
C478 H503 0.950 . S
C479 C478 1.349 . S
C479 C495 1.349 . S
C480 C478 1.327 . S
C480 C499 1.429 . S
C480 H504 0.950 . S
C481 C498 1.574 . S
C481 C500 1.368 . S
C481 H505 0.949 . S
H482 C486 0.949 . S
C483 C484 1.349 . S
C483 C485 1.327 . S
C483 H506 0.950 . S
C484 C483 1.349 . S
C484 C496 1.349 . S
C485 C483 1.327 . S
C485 C501 1.429 . S
C485 H507 0.950 . S
C486 H482 0.949 . S
C486 C494 1.574 . S
C486 C502 1.368 . S
H487 C495 0.950 . S
H488 C493 0.950 . S
H489 C494 0.949 . S
H490 C496 0.950 . S
H491 C497 0.950 . S
H492 C498 0.949 . S
C493 H488 0.950 . S
C493 C495 1.327 . S
C493 C499 1.429 . S
C494 C486 1.574 . S
C494 H489 0.949 . S
C494 C500 1.368 . S
C495 C479 1.349 . S
C495 H487 0.950 . S
C495 C493 1.327 . S
C496 C484 1.349 . S
C496 H490 0.950 . S
C496 C497 1.327 . S
C497 H491 0.950 . S
C497 C496 1.327 . S
C497 C501 1.429 . S
C498 C481 1.574 . S
C498 H492 0.949 . S
C498 C502 1.368 . S
C499 C480 1.429 . S
C499 C493 1.429 . S
C499 C500 1.523 . S
C500 C481 1.368 . S
C500 C494 1.368 . S
C500 C499 1.523 . S
C501 C485 1.429 . S
C501 C497 1.429 . S
C501 C502 1.523 . S
C502 C486 1.368 . S
C502 C498 1.368 . S
C502 C501 1.523 . S
H503 C478 0.950 . S
H504 C480 0.950 . S
H505 C481 0.949 . S
H506 C483 0.950 . S
H507 C485 0.950 . S
C508 C509 1.349 . S
C508 C510 1.327 . S
C508 H533 0.950 . S
C509 C508 1.349 . S
C509 C525 1.349 . S
C510 C508 1.327 . S
C510 C529 1.429 . S
C510 H534 0.950 . S
C511 C528 1.574 . S
C511 C530 1.368 1_565 S
C511 H535 0.949 . S
H512 C516 0.949 . S
C513 C514 1.349 . S
C513 C515 1.327 . S
C513 H536 0.950 . S
C514 C513 1.349 . S
C514 C526 1.349 . S
C515 C513 1.327 . S
C515 C531 1.429 . S
C515 H537 0.950 . S
C516 H512 0.949 . S
C516 C524 1.574 . S
C516 C532 1.368 1_545 S
H517 C525 0.950 . S
H518 C523 0.950 . S
H519 C524 0.949 . S
H520 C526 0.950 . S
H521 C527 0.950 . S
H522 C528 0.949 . S
C523 H518 0.950 . S
C523 C525 1.327 . S
C523 C529 1.429 . S
C524 C516 1.574 . S
C524 H519 0.949 . S
C524 C530 1.368 . S
C525 C509 1.349 . S
C525 H517 0.950 . S
C525 C523 1.327 . S
C526 C514 1.349 . S
C526 H520 0.950 . S
C526 C527 1.327 . S
C527 H521 0.950 . S
C527 C526 1.327 . S
C527 C531 1.429 . S
C528 C511 1.574 . S
C528 H522 0.949 . S
C528 C532 1.368 . S
C529 C510 1.429 . S
C529 C523 1.429 . S
C529 C530 1.523 . S
C530 C511 1.368 1_545 S
C530 C524 1.368 . S
C530 C529 1.523 . S
C531 C515 1.429 . S
C531 C527 1.429 . S
C531 C532 1.523 . S
C532 C516 1.368 1_565 S
C532 C528 1.368 . S
C532 C531 1.523 . S
H533 C508 0.950 . S
H534 C510 0.950 . S
H535 C511 0.949 . S
H536 C513 0.950 . S
H537 C515 0.950 . S
C538 C539 1.349 . S
C538 C540 1.327 . S
C538 H563 0.950 . S
C539 C538 1.349 . S
C539 C555 1.349 . S
C540 C538 1.327 . S
C540 C559 1.429 . S
C540 H564 0.950 . S
C541 C558 1.548 1_556 S
C541 C560 1.368 . S
C541 H565 0.949 . S
H542 C546 0.949 . S
C543 C544 1.349 . S
C543 C545 1.327 . S
C543 H566 0.950 . S
C544 C543 1.349 . S
C544 C556 1.349 . S
C545 C543 1.327 . S
C545 C561 1.429 . S
C545 H567 0.950 . S
C546 H542 0.949 . S
C546 C554 1.548 1_554 S
C546 C562 1.368 . S
H547 C555 0.950 . S
H548 C553 0.950 . S
H549 C554 0.952 . S
H550 C556 0.950 . S
H551 C557 0.950 . S
H552 C558 0.952 . S
C553 H548 0.950 . S
C553 C555 1.327 . S
C553 C559 1.429 . S
C554 C546 1.548 1_556 S
C554 H549 0.952 . S
C554 C560 1.392 . S
C555 C539 1.349 . S
C555 H547 0.950 . S
C555 C553 1.327 . S
C556 C544 1.349 . S
C556 H550 0.950 . S
C556 C557 1.327 . S
C557 H551 0.950 . S
C557 C556 1.327 . S
C557 C561 1.429 . S
C558 C541 1.548 1_554 S
C558 H552 0.952 . S
C558 C562 1.392 . S
C559 C540 1.429 . S
C559 C553 1.429 . S
C559 C560 1.523 . S
C560 C541 1.368 . S
C560 C554 1.392 . S
C560 C559 1.523 . S
C561 C545 1.429 . S
C561 C557 1.429 . S
C561 C562 1.523 . S
C562 C546 1.368 . S
C562 C558 1.392 . S
C562 C561 1.523 . S
H563 C538 0.950 . S
H564 C540 0.950 . S
H565 C541 0.949 . S
H566 C543 0.950 . S
H567 C545 0.950 . S
C568 C569 1.349 . S
C568 C570 1.327 . S
C568 H593 0.950 . S
C569 C568 1.349 . S
C569 C585 1.349 . S
C570 C568 1.327 . S
C570 C589 1.429 . S
C570 H594 0.950 . S
C571 C588 1.574 . S
C571 C590 1.368 . S
C571 H595 0.949 . S
H572 C576 0.949 . S
C573 C574 1.349 . S
C573 C575 1.327 . S
C573 H596 0.950 . S
C574 C573 1.349 . S
C574 C586 1.349 . S
C575 C573 1.327 . S
C575 C591 1.429 . S
C575 H597 0.950 . S
C576 H572 0.949 . S
C576 C584 1.574 . S
C576 C592 1.368 . S
H577 C585 0.950 . S
H578 C583 0.950 . S
H579 C584 0.949 . S
H580 C586 0.950 . S
H581 C587 0.950 . S
H582 C588 0.949 . S
C583 H578 0.950 . S
C583 C585 1.327 . S
C583 C589 1.429 . S
C584 C576 1.574 . S
C584 H579 0.949 . S
C584 C590 1.368 1_545 S
C585 C569 1.349 . S
C585 H577 0.950 . S
C585 C583 1.327 . S
C586 C574 1.349 . S
C586 H580 0.950 . S
C586 C587 1.327 . S
C587 H581 0.950 . S
C587 C586 1.327 . S
C587 C591 1.429 . S
C588 C571 1.574 . S
C588 H582 0.949 . S
C588 C592 1.368 1_565 S
C589 C570 1.429 . S
C589 C583 1.429 . S
C589 C590 1.523 . S
C590 C571 1.368 . S
C590 C584 1.368 1_565 S
C590 C589 1.523 . S
C591 C575 1.429 . S
C591 C587 1.429 . S
C591 C592 1.523 . S
C592 C576 1.368 . S
C592 C588 1.368 1_545 S
C592 C591 1.523 . S
H593 C568 0.950 . S
H594 C570 0.950 . S
H595 C571 0.949 . S
H596 C573 0.950 . S
H597 C575 0.950 . S
C598 C599 1.349 . S
C598 C600 1.327 . S
C598 H623 0.950 . S
C599 C598 1.349 . S
C599 C615 1.349 . S
C600 C598 1.327 . S
C600 C619 1.429 . S
C600 H624 0.950 . S
C601 C618 1.574 . S
C601 C620 1.368 . S
C601 H625 0.949 . S
H602 C606 0.949 . S
C603 C604 1.349 . S
C603 C605 1.327 . S
C603 H626 0.950 . S
C604 C603 1.349 . S
C604 C616 1.349 . S
C605 C603 1.327 . S
C605 C621 1.429 . S
C605 H627 0.950 . S
C606 H602 0.949 . S
C606 C614 1.574 . S
C606 C622 1.368 . S
H607 C615 0.950 . S
H608 C613 0.950 . S
H609 C614 0.949 . S
H610 C616 0.950 . S
H611 C617 0.950 . S
H612 C618 0.949 . S
C613 H608 0.950 . S
C613 C615 1.327 . S
C613 C619 1.429 . S
C614 C606 1.574 . S
C614 H609 0.949 . S
C614 C620 1.368 . S
C615 C599 1.349 . S
C615 H607 0.950 . S
C615 C613 1.327 . S
C616 C604 1.349 . S
C616 H610 0.950 . S
C616 C617 1.327 . S
C617 H611 0.950 . S
C617 C616 1.327 . S
C617 C621 1.429 . S
C618 C601 1.574 . S
C618 H612 0.949 . S
C618 C622 1.368 . S
C619 C600 1.429 . S
C619 C613 1.429 . S
C619 C620 1.523 . S
C620 C601 1.368 . S
C620 C614 1.368 . S
C620 C619 1.523 . S
C621 C605 1.429 . S
C621 C617 1.429 . S
C621 C622 1.523 . S
C622 C606 1.368 . S
C622 C618 1.368 . S
C622 C621 1.523 . S
H623 C598 0.950 . S
H624 C600 0.950 . S
H625 C601 0.949 . S
H626 C603 0.950 . S
H627 C605 0.950 . S
C628 C629 1.349 . S
C628 C630 1.327 . S
C628 H653 0.950 . S
C629 C628 1.349 . S
C629 C645 1.349 . S
C630 C628 1.327 . S
C630 C649 1.429 . S
C630 H654 0.950 . S
C631 C648 1.553 1_565 S
C631 C650 1.368 . S
C631 H655 0.949 . S
H632 C636 0.949 . S
C633 C634 1.349 . S
C633 C635 1.327 . S
C633 H656 0.950 . S
C634 C633 1.349 . S
C634 C646 1.349 . S
C635 C633 1.327 . S
C635 C651 1.429 . S
C635 H657 0.950 . S
C636 H632 0.949 . S
C636 C644 1.553 1_545 S
C636 C652 1.368 . S
H637 C645 0.950 . S
H638 C643 0.950 . S
H639 C644 0.951 . S
H640 C646 0.950 . S
H641 C647 0.950 . S
H642 C648 0.951 . S
C643 H638 0.950 . S
C643 C645 1.327 . S
C643 C649 1.429 . S
C644 C636 1.553 1_565 S
C644 H639 0.951 . S
C644 C650 1.388 . S
C645 C629 1.349 . S
C645 H637 0.950 . S
C645 C643 1.327 . S
C646 C634 1.349 . S
C646 H640 0.950 . S
C646 C647 1.327 . S
C647 H641 0.950 . S
C647 C646 1.327 . S
C647 C651 1.429 . S
C648 C631 1.553 1_545 S
C648 H642 0.951 . S
C648 C652 1.388 . S
C649 C630 1.429 . S
C649 C643 1.429 . S
C649 C650 1.523 . S
C650 C631 1.368 . S
C650 C644 1.388 . S
C650 C649 1.523 . S
C651 C635 1.429 . S
C651 C647 1.429 . S
C651 C652 1.523 . S
C652 C636 1.368 . S
C652 C648 1.388 . S
C652 C651 1.523 . S
H653 C628 0.950 . S
H654 C630 0.950 . S
H655 C631 0.949 . S
H656 C633 0.950 . S
H657 C635 0.950 . S
C658 C659 1.349 . S
C658 C660 1.327 . S
C658 H683 0.950 . S
C659 C658 1.349 . S
C659 C675 1.349 . S
C660 C658 1.327 . S
C660 C679 1.429 . S
C660 H684 0.950 . S
C661 C678 1.548 1_556 S
C661 C680 1.368 . S
C661 H685 0.949 . S
H662 C666 0.949 . S
C663 C664 1.349 . S
C663 C665 1.327 . S
C663 H686 0.950 . S
C664 C663 1.349 . S
C664 C676 1.349 . S
C665 C663 1.327 . S
C665 C681 1.429 . S
C665 H687 0.950 . S
C666 H662 0.949 . S
C666 C674 1.548 1_554 S
C666 C682 1.368 . S
H667 C675 0.950 . S
H668 C673 0.950 . S
H669 C674 0.952 . S
H670 C676 0.950 . S
H671 C677 0.950 . S
H672 C678 0.952 . S
C673 H668 0.950 . S
C673 C675 1.327 . S
C673 C679 1.429 . S
C674 C666 1.548 1_556 S
C674 H669 0.952 . S
C674 C680 1.392 . S
C675 C659 1.349 . S
C675 H667 0.950 . S
C675 C673 1.327 . S
C676 C664 1.349 . S
C676 H670 0.950 . S
C676 C677 1.327 . S
C677 H671 0.950 . S
C677 C676 1.327 . S
C677 C681 1.429 . S
C678 C661 1.548 1_554 S
C678 H672 0.952 . S
C678 C682 1.392 . S
C679 C660 1.429 . S
C679 C673 1.429 . S
C679 C680 1.523 . S
C680 C661 1.368 . S
C680 C674 1.392 . S
C680 C679 1.523 . S
C681 C665 1.429 . S
C681 C677 1.429 . S
C681 C682 1.523 . S
C682 C666 1.368 . S
C682 C678 1.392 . S
C682 C681 1.523 . S
H683 C658 0.950 . S
H684 C660 0.950 . S
H685 C661 0.949 . S
H686 C663 0.950 . S
H687 C665 0.950 . S
C688 C689 1.349 . S
C688 C690 1.327 . S
C688 H713 0.950 . S
C689 C688 1.349 . S
C689 C705 1.349 . S
C690 C688 1.327 . S
C690 C709 1.429 . S
C690 H714 0.950 . S
C691 C708 1.574 . S
C691 C710 1.368 . S
C691 H715 0.949 . S
H692 C696 0.949 . S
C693 C694 1.349 . S
C693 C695 1.327 . S
C693 H716 0.950 . S
C694 C693 1.349 . S
C694 C706 1.349 . S
C695 C693 1.327 . S
C695 C711 1.429 . S
C695 H717 0.950 . S
C696 H692 0.949 . S
C696 C704 1.574 . S
C696 C712 1.368 . S
H697 C705 0.950 . S
H698 C703 0.950 . S
H699 C704 0.949 . S
H700 C706 0.950 . S
H701 C707 0.950 . S
H702 C708 0.949 . S
C703 H698 0.950 . S
C703 C705 1.327 . S
C703 C709 1.429 . S
C704 C696 1.574 . S
C704 H699 0.949 . S
C704 C710 1.368 . S
C705 C689 1.349 . S
C705 H697 0.950 . S
C705 C703 1.327 . S
C706 C694 1.349 . S
C706 H700 0.950 . S
C706 C707 1.327 . S
C707 H701 0.950 . S
C707 C706 1.327 . S
C707 C711 1.429 . S
C708 C691 1.574 . S
C708 H702 0.949 . S
C708 C712 1.368 . S
C709 C690 1.429 . S
C709 C703 1.429 . S
C709 C710 1.523 . S
C710 C691 1.368 . S
C710 C704 1.368 . S
C710 C709 1.523 . S
C711 C695 1.429 . S
C711 C707 1.429 . S
C711 C712 1.523 . S
C712 C696 1.368 . S
C712 C708 1.368 . S
C712 C711 1.523 . S
H713 C688 0.950 . S
H714 C690 0.950 . S
H715 C691 0.949 . S
H716 C693 0.950 . S
H717 C695 0.950 . S
C718 C719 1.349 . S
C718 C720 1.327 . S
C718 H743 0.950 . S
C719 C718 1.349 . S
C719 C735 1.349 . S
C720 C718 1.327 . S
C720 C739 1.429 . S
C720 H744 0.950 . S
C721 C738 1.548 1_556 S
C721 C740 1.368 . S
C721 H745 0.949 . S
H722 C726 0.949 . S
C723 C724 1.349 . S
C723 C725 1.327 . S
C723 H746 0.950 . S
C724 C723 1.349 . S
C724 C736 1.349 . S
C725 C723 1.327 . S
C725 C741 1.429 . S
C725 H747 0.950 . S
C726 H722 0.949 . S
C726 C734 1.548 1_554 S
C726 C742 1.368 . S
H727 C735 0.950 . S
H728 C733 0.950 . S
H729 C734 0.952 . S
H730 C736 0.950 . S
H731 C737 0.950 . S
H732 C738 0.952 . S
C733 H728 0.950 . S
C733 C735 1.327 . S
C733 C739 1.429 . S
C734 C726 1.548 1_556 S
C734 H729 0.952 . S
C734 C740 1.392 . S
C735 C719 1.349 . S
C735 H727 0.950 . S
C735 C733 1.327 . S
C736 C724 1.349 . S
C736 H730 0.950 . S
C736 C737 1.327 . S
C737 H731 0.950 . S
C737 C736 1.327 . S
C737 C741 1.429 . S
C738 C721 1.548 1_554 S
C738 H732 0.952 . S
C738 C742 1.392 . S
C739 C720 1.429 . S
C739 C733 1.429 . S
C739 C740 1.523 . S
C740 C721 1.368 . S
C740 C734 1.392 . S
C740 C739 1.523 . S
C741 C725 1.429 . S
C741 C737 1.429 . S
C741 C742 1.523 . S
C742 C726 1.368 . S
C742 C738 1.392 . S
C742 C741 1.523 . S
H743 C718 0.950 . S
H744 C720 0.950 . S
H745 C721 0.949 . S
H746 C723 0.950 . S
H747 C725 0.950 . S
C748 C749 1.349 . S
C748 C750 1.327 . S
C748 H773 0.950 . S
C749 C748 1.349 . S
C749 C765 1.349 . S
C750 C748 1.327 . S
C750 C769 1.429 . S
C750 H774 0.950 . S
C751 C768 1.574 . S
C751 C770 1.368 . S
C751 H775 0.949 . S
H752 C756 0.949 . S
C753 C754 1.349 . S
C753 C755 1.327 . S
C753 H776 0.950 . S
C754 C753 1.349 . S
C754 C766 1.349 . S
C755 C753 1.327 . S
C755 C771 1.429 . S
C755 H777 0.950 . S
C756 H752 0.949 . S
C756 C764 1.574 . S
C756 C772 1.368 . S
H757 C765 0.950 . S
H758 C763 0.950 . S
H759 C764 0.949 . S
H760 C766 0.950 . S
H761 C767 0.950 . S
H762 C768 0.949 . S
C763 H758 0.950 . S
C763 C765 1.327 . S
C763 C769 1.429 . S
C764 C756 1.574 . S
C764 H759 0.949 . S
C764 C770 1.368 . S
C765 C749 1.349 . S
C765 H757 0.950 . S
C765 C763 1.327 . S
C766 C754 1.349 . S
C766 H760 0.950 . S
C766 C767 1.327 . S
C767 H761 0.950 . S
C767 C766 1.327 . S
C767 C771 1.429 . S
C768 C751 1.574 . S
C768 H762 0.949 . S
C768 C772 1.368 . S
C769 C750 1.429 . S
C769 C763 1.429 . S
C769 C770 1.523 . S
C770 C751 1.368 . S
C770 C764 1.368 . S
C770 C769 1.523 . S
C771 C755 1.429 . S
C771 C767 1.429 . S
C771 C772 1.523 . S
C772 C756 1.368 . S
C772 C768 1.368 . S
C772 C771 1.523 . S
H773 C748 0.950 . S
H774 C750 0.950 . S
H775 C751 0.949 . S
H776 C753 0.950 . S
H777 C755 0.950 . S
C778 C779 1.349 . S
C778 C780 1.327 . S
C778 H803 0.950 . S
C779 C778 1.349 . S
C779 C795 1.349 . S
C780 C778 1.327 . S
C780 C799 1.429 . S
C780 H804 0.950 . S
C781 C798 1.574 . S
C781 C800 1.368 . S
C781 H805 0.949 . S
H782 C786 0.949 . S
C783 C784 1.349 . S
C783 C785 1.327 . S
C783 H806 0.950 . S
C784 C783 1.349 . S
C784 C796 1.349 . S
C785 C783 1.327 . S
C785 C801 1.429 . S
C785 H807 0.950 . S
C786 H782 0.949 . S
C786 C794 1.574 . S
C786 C802 1.368 . S
H787 C795 0.950 . S
H788 C793 0.950 . S
H789 C794 0.949 . S
H790 C796 0.950 . S
H791 C797 0.950 . S
H792 C798 0.949 . S
C793 H788 0.950 . S
C793 C795 1.327 . S
C793 C799 1.429 . S
C794 C786 1.574 . S
C794 H789 0.949 . S
C794 C800 1.368 . S
C795 C779 1.349 . S
C795 H787 0.950 . S
C795 C793 1.327 . S
C796 C784 1.349 . S
C796 H790 0.950 . S
C796 C797 1.327 . S
C797 H791 0.950 . S
C797 C796 1.327 . S
C797 C801 1.429 . S
C798 C781 1.574 . S
C798 H792 0.949 . S
C798 C802 1.368 . S
C799 C780 1.429 . S
C799 C793 1.429 . S
C799 C800 1.523 . S
C800 C781 1.368 . S
C800 C794 1.368 . S
C800 C799 1.523 . S
C801 C785 1.429 . S
C801 C797 1.429 . S
C801 C802 1.523 . S
C802 C786 1.368 . S
C802 C798 1.368 . S
C802 C801 1.523 . S
H803 C778 0.950 . S
H804 C780 0.950 . S
H805 C781 0.949 . S
H806 C783 0.950 . S
H807 C785 0.950 . S
C808 C809 1.349 . S
C808 C810 1.327 . S
C808 H833 0.950 . S
C809 C808 1.349 . S
C809 C825 1.349 . S
C810 C808 1.327 . S
C810 C829 1.429 . S
C810 H834 0.950 . S
C811 C828 1.574 . S
C811 C830 1.368 . S
C811 H835 0.949 . S
H812 C816 0.949 . S
C813 C814 1.349 . S
C813 C815 1.327 . S
C813 H836 0.950 . S
C814 C813 1.349 . S
C814 C826 1.349 . S
C815 C813 1.327 . S
C815 C831 1.429 . S
C815 H837 0.950 . S
C816 H812 0.949 . S
C816 C824 1.574 . S
C816 C832 1.368 . S
H817 C825 0.950 . S
H818 C823 0.950 . S
H819 C824 0.949 . S
H820 C826 0.950 . S
H821 C827 0.950 . S
H822 C828 0.949 . S
C823 H818 0.950 . S
C823 C825 1.327 . S
C823 C829 1.429 . S
C824 C816 1.574 . S
C824 H819 0.949 . S
C824 C830 1.368 . S
C825 C809 1.349 . S
C825 H817 0.950 . S
C825 C823 1.327 . S
C826 C814 1.349 . S
C826 H820 0.950 . S
C826 C827 1.327 . S
C827 H821 0.950 . S
C827 C826 1.327 . S
C827 C831 1.429 . S
C828 C811 1.574 . S
C828 H822 0.949 . S
C828 C832 1.368 . S
C829 C810 1.429 . S
C829 C823 1.429 . S
C829 C830 1.523 . S
C830 C811 1.368 . S
C830 C824 1.368 . S
C830 C829 1.523 . S
C831 C815 1.429 . S
C831 C827 1.429 . S
C831 C832 1.523 . S
C832 C816 1.368 . S
C832 C828 1.368 . S
C832 C831 1.523 . S
H833 C808 0.950 . S
H834 C810 0.950 . S
H835 C811 0.949 . S
H836 C813 0.950 . S
H837 C815 0.950 . S
C838 C839 1.349 . S
C838 C840 1.327 . S
C838 H863 0.950 . S
C839 C838 1.349 . S
C839 C855 1.349 . S
C840 C838 1.327 . S
C840 C859 1.429 . S
C840 H864 0.950 . S
C841 C858 1.548 1_554 S
C841 C860 1.368 . S
C841 H865 0.949 . S
H842 C846 0.949 . S
C843 C844 1.349 . S
C843 C845 1.327 . S
C843 H866 0.950 . S
C844 C843 1.349 . S
C844 C856 1.349 . S
C845 C843 1.327 . S
C845 C861 1.429 . S
C845 H867 0.950 . S
C846 H842 0.949 . S
C846 C854 1.548 1_556 S
C846 C862 1.368 . S
H847 C855 0.950 . S
H848 C853 0.950 . S
H849 C854 0.952 . S
H850 C856 0.950 . S
H851 C857 0.950 . S
H852 C858 0.952 . S
C853 H848 0.950 . S
C853 C855 1.327 . S
C853 C859 1.429 . S
C854 C846 1.548 1_554 S
C854 H849 0.952 . S
C854 C860 1.392 . S
C855 C839 1.349 . S
C855 H847 0.950 . S
C855 C853 1.327 . S
C856 C844 1.349 . S
C856 H850 0.950 . S
C856 C857 1.327 . S
C857 H851 0.950 . S
C857 C856 1.327 . S
C857 C861 1.429 . S
C858 C841 1.548 1_556 S
C858 H852 0.952 . S
C858 C862 1.392 . S
C859 C840 1.429 . S
C859 C853 1.429 . S
C859 C860 1.523 . S
C860 C841 1.368 . S
C860 C854 1.392 . S
C860 C859 1.523 . S
C861 C845 1.429 . S
C861 C857 1.429 . S
C861 C862 1.523 . S
C862 C846 1.368 . S
C862 C858 1.392 . S
C862 C861 1.523 . S
H863 C838 0.950 . S
H864 C840 0.950 . S
H865 C841 0.949 . S
H866 C843 0.950 . S
H867 C845 0.950 . S
C868 C869 1.349 . S
C868 C870 1.327 . S
C868 H893 0.950 . S
C869 C868 1.349 . S
C869 C885 1.349 . S
C870 C868 1.327 . S
C870 C889 1.429 . S
C870 H894 0.950 . S
C871 C888 1.574 . S
C871 C890 1.368 . S
C871 H895 0.949 . S
H872 C876 0.949 . S
C873 C874 1.349 . S
C873 C875 1.327 . S
C873 H896 0.950 . S
C874 C873 1.349 . S
C874 C886 1.349 . S
C875 C873 1.327 . S
C875 C891 1.429 . S
C875 H897 0.950 . S
C876 H872 0.949 . S
C876 C884 1.574 . S
C876 C892 1.368 . S
H877 C885 0.950 . S
H878 C883 0.950 . S
H879 C884 0.949 . S
H880 C886 0.950 . S
H881 C887 0.950 . S
H882 C888 0.949 . S
C883 H878 0.950 . S
C883 C885 1.327 . S
C883 C889 1.429 . S
C884 C876 1.574 . S
C884 H879 0.949 . S
C884 C890 1.368 . S
C885 C869 1.349 . S
C885 H877 0.950 . S
C885 C883 1.327 . S
C886 C874 1.349 . S
C886 H880 0.950 . S
C886 C887 1.327 . S
C887 H881 0.950 . S
C887 C886 1.327 . S
C887 C891 1.429 . S
C888 C871 1.574 . S
C888 H882 0.949 . S
C888 C892 1.368 . S
C889 C870 1.429 . S
C889 C883 1.429 . S
C889 C890 1.523 . S
C890 C871 1.368 . S
C890 C884 1.368 . S
C890 C889 1.523 . S
C891 C875 1.429 . S
C891 C887 1.429 . S
C891 C892 1.523 . S
C892 C876 1.368 . S
C892 C888 1.368 . S
C892 C891 1.523 . S
H893 C868 0.950 . S
H894 C870 0.950 . S
H895 C871 0.949 . S
H896 C873 0.950 . S
H897 C875 0.950 . S
C898 C899 1.349 . S
C898 C900 1.327 . S
C898 H923 0.950 . S
C899 C898 1.349 . S
C899 C915 1.349 . S
C900 C898 1.327 . S
C900 C919 1.429 . S
C900 H924 0.950 . S
C901 C918 1.574 . S
C901 C920 1.368 . S
C901 H925 0.949 . S
H902 C906 0.949 . S
C903 C904 1.349 . S
C903 C905 1.327 . S
C903 H926 0.950 . S
C904 C903 1.349 . S
C904 C916 1.349 . S
C905 C903 1.327 . S
C905 C921 1.429 . S
C905 H927 0.950 . S
C906 H902 0.949 . S
C906 C914 1.574 . S
C906 C922 1.368 . S
H907 C915 0.950 . S
H908 C913 0.950 . S
H909 C914 0.949 . S
H910 C916 0.950 . S
H911 C917 0.950 . S
H912 C918 0.949 . S
C913 H908 0.950 . S
C913 C915 1.327 . S
C913 C919 1.429 . S
C914 C906 1.574 . S
C914 H909 0.949 . S
C914 C920 1.368 . S
C915 C899 1.349 . S
C915 H907 0.950 . S
C915 C913 1.327 . S
C916 C904 1.349 . S
C916 H910 0.950 . S
C916 C917 1.327 . S
C917 H911 0.950 . S
C917 C916 1.327 . S
C917 C921 1.429 . S
C918 C901 1.574 . S
C918 H912 0.949 . S
C918 C922 1.368 . S
C919 C900 1.429 . S
C919 C913 1.429 . S
C919 C920 1.523 . S
C920 C901 1.368 . S
C920 C914 1.368 . S
C920 C919 1.523 . S
C921 C905 1.429 . S
C921 C917 1.429 . S
C921 C922 1.523 . S
C922 C906 1.368 . S
C922 C918 1.368 . S
C922 C921 1.523 . S
H923 C898 0.950 . S
H924 C900 0.950 . S
H925 C901 0.949 . S
H926 C903 0.950 . S
H927 C905 0.950 . S
C928 C929 1.349 . S
C928 C930 1.327 . S
C928 H953 0.950 . S
C929 C928 1.349 . S
C929 C945 1.349 . S
C930 C928 1.327 . S
C930 C949 1.429 . S
C930 H954 0.950 . S
C931 C948 1.574 . S
C931 C950 1.368 . S
C931 H955 0.949 . S
H932 C936 0.949 . S
C933 C934 1.349 . S
C933 C935 1.327 . S
C933 H956 0.950 . S
C934 C933 1.349 . S
C934 C946 1.349 . S
C935 C933 1.327 . S
C935 C951 1.429 . S
C935 H957 0.950 . S
C936 H932 0.949 . S
C936 C944 1.574 . S
C936 C952 1.368 . S
H937 C945 0.950 . S
H938 C943 0.950 . S
H939 C944 0.949 . S
H940 C946 0.950 . S
H941 C947 0.950 . S
H942 C948 0.949 . S
C943 H938 0.950 . S
C943 C945 1.327 . S
C943 C949 1.429 . S
C944 C936 1.574 . S
C944 H939 0.949 . S
C944 C950 1.368 . S
C945 C929 1.349 . S
C945 H937 0.950 . S
C945 C943 1.327 . S
C946 C934 1.349 . S
C946 H940 0.950 . S
C946 C947 1.327 . S
C947 H941 0.950 . S
C947 C946 1.327 . S
C947 C951 1.429 . S
C948 C931 1.574 . S
C948 H942 0.949 . S
C948 C952 1.368 . S
C949 C930 1.429 . S
C949 C943 1.429 . S
C949 C950 1.523 . S
C950 C931 1.368 . S
C950 C944 1.368 . S
C950 C949 1.523 . S
C951 C935 1.429 . S
C951 C947 1.429 . S
C951 C952 1.523 . S
C952 C936 1.368 . S
C952 C948 1.368 . S
C952 C951 1.523 . S
H953 C928 0.950 . S
H954 C930 0.950 . S
H955 C931 0.949 . S
H956 C933 0.950 . S
H957 C935 0.950 . S
C958 C959 1.349 . S
C958 C960 1.327 . S
C958 H983 0.950 . S
C959 C958 1.349 . S
C959 C975 1.349 . S
C960 C958 1.327 . S
C960 C979 1.429 . S
C960 H984 0.950 . S
C961 C978 1.574 . S
C961 C980 1.368 . S
C961 H985 0.949 . S
H962 C966 0.949 . S
C963 C964 1.349 . S
C963 C965 1.327 . S
C963 H986 0.950 . S
C964 C963 1.349 . S
C964 C976 1.349 . S
C965 C963 1.327 . S
C965 C981 1.429 . S
C965 H987 0.950 . S
C966 H962 0.949 . S
C966 C974 1.574 . S
C966 C982 1.368 . S
H967 C975 0.950 . S
H968 C973 0.950 . S
H969 C974 0.949 1_655 S
H970 C976 0.950 . S
H971 C977 0.950 . S
H972 C978 0.949 . S
C973 H968 0.950 . S
C973 C975 1.327 . S
C973 C979 1.429 . S
C974 C966 1.574 . S
C974 H969 0.949 1_455 S
C974 C980 1.368 . S
C975 C959 1.349 . S
C975 H967 0.950 . S
C975 C973 1.327 . S
C976 C964 1.349 . S
C976 H970 0.950 . S
C976 C977 1.327 . S
C977 H971 0.950 . S
C977 C976 1.327 . S
C977 C981 1.429 . S
C978 C961 1.574 . S
C978 H972 0.949 . S
C978 C982 1.368 . S
C979 C960 1.429 . S
C979 C973 1.429 . S
C979 C980 1.523 1_655 S
C980 C961 1.368 . S
C980 C974 1.368 . S
C980 C979 1.523 1_455 S
C981 C965 1.429 . S
C981 C977 1.429 . S
C981 C982 1.523 . S
C982 C966 1.368 . S
C982 C978 1.368 . S
C982 C981 1.523 . S
H983 C958 0.950 . S
H984 C960 0.950 . S
H985 C961 0.949 . S
H986 C963 0.950 . S
H987 C965 0.950 . S
C988 C989 1.349 . S
C988 C990 1.327 . S
C988 H1013 0.950 . S
C989 C988 1.349 . S
C989 C1005 1.349 . S
C990 C988 1.327 . S
C990 C1009 1.429 . S
C990 H1014 0.950 . S
C991 C1008 1.574 . S
C991 C1010 1.368 . S
C991 H1015 0.949 . S
H992 C996 0.949 . S
C993 C994 1.349 . S
C993 C995 1.327 . S
C993 H1016 0.950 . S
C994 C993 1.349 . S
C994 C1006 1.349 . S
C995 C993 1.327 . S
C995 C1011 1.429 . S
C995 H1017 0.950 . S
C996 H992 0.949 . S
C996 C1004 1.574 . S
C996 C1012 1.368 . S
H997 C1005 0.950 . S
H998 C1003 0.950 . S
H999 C1004 0.949 . S
H1000 C1006 0.950 . S
H1001 C1007 0.950 . S
H1002 C1008 0.949 . S
C1003 H998 0.950 . S
C1003 C1005 1.327 . S
C1003 C1009 1.429 . S
C1004 C996 1.574 . S
C1004 H999 0.949 . S
C1004 C1010 1.368 . S
C1005 C989 1.349 . S
C1005 H997 0.950 . S
C1005 C1003 1.327 . S
C1006 C994 1.349 . S
C1006 H1000 0.950 . S
C1006 C1007 1.327 . S
C1007 H1001 0.950 . S
C1007 C1006 1.327 . S
C1007 C1011 1.429 . S
C1008 C991 1.574 . S
C1008 H1002 0.949 . S
C1008 C1012 1.368 . S
C1009 C990 1.429 . S
C1009 C1003 1.429 . S
C1009 C1010 1.523 . S
C1010 C991 1.368 . S
C1010 C1004 1.368 . S
C1010 C1009 1.523 . S
C1011 C995 1.429 . S
C1011 C1007 1.429 . S
C1011 C1012 1.523 . S
C1012 C996 1.368 . S
C1012 C1008 1.368 . S
C1012 C1011 1.523 . S
H1013 C988 0.950 . S
H1014 C990 0.950 . S
H1015 C991 0.949 . S
H1016 C993 0.950 . S
H1017 C995 0.950 . S
C1018 C1019 1.349 . S
C1018 C1020 1.327 . S
C1018 H1043 0.950 . S
C1019 C1018 1.349 . S
C1019 C1035 1.349 . S
C1020 C1018 1.327 . S
C1020 C1039 1.429 . S
C1020 H1044 0.950 . S
C1021 C1038 1.574 . S
C1021 C1040 1.368 . S
C1021 H1045 0.949 . S
H1022 C1026 0.949 . S
C1023 C1024 1.349 . S
C1023 C1025 1.327 . S
C1023 H1046 0.950 . S
C1024 C1023 1.349 . S
C1024 C1036 1.349 . S
C1025 C1023 1.327 . S
C1025 C1041 1.429 . S
C1025 H1047 0.950 . S
C1026 H1022 0.949 . S
C1026 C1034 1.574 . S
C1026 C1042 1.368 . S
H1027 C1035 0.950 . S
H1028 C1033 0.950 . S
H1029 C1034 0.949 . S
H1030 C1036 0.950 . S
H1031 C1037 0.950 . S
H1032 C1038 0.949 . S
C1033 H1028 0.950 . S
C1033 C1035 1.327 . S
C1033 C1039 1.429 . S
C1034 C1026 1.574 . S
C1034 H1029 0.949 . S
C1034 C1040 1.368 . S
C1035 C1019 1.349 . S
C1035 H1027 0.950 . S
C1035 C1033 1.327 . S
C1036 C1024 1.349 . S
C1036 H1030 0.950 . S
C1036 C1037 1.327 . S
C1037 H1031 0.950 . S
C1037 C1036 1.327 . S
C1037 C1041 1.429 . S
C1038 C1021 1.574 . S
C1038 H1032 0.949 . S
C1038 C1042 1.368 . S
C1039 C1020 1.429 . S
C1039 C1033 1.429 . S
C1039 C1040 1.523 . S
C1040 C1021 1.368 . S
C1040 C1034 1.368 . S
C1040 C1039 1.523 . S
C1041 C1025 1.429 . S
C1041 C1037 1.429 . S
C1041 C1042 1.523 . S
C1042 C1026 1.368 . S
C1042 C1038 1.368 . S
C1042 C1041 1.523 . S
H1043 C1018 0.950 . S
H1044 C1020 0.950 . S
H1045 C1021 0.949 . S
H1046 C1023 0.950 . S
H1047 C1025 0.950 . S
C1048 C1049 1.349 . S
C1048 C1050 1.327 . S
C1048 H1073 0.950 . S
C1049 C1048 1.349 . S
C1049 C1065 1.349 . S
C1050 C1048 1.327 . S
C1050 C1069 1.429 . S
C1050 H1074 0.950 . S
C1051 C1068 1.574 . S
C1051 C1070 1.368 . S
C1051 H1075 0.949 . S
H1052 C1056 0.949 . S
C1053 C1054 1.349 . S
C1053 C1055 1.327 . S
C1053 H1076 0.950 . S
C1054 C1053 1.349 . S
C1054 C1066 1.349 . S
C1055 C1053 1.327 . S
C1055 C1071 1.429 . S
C1055 H1077 0.950 . S
C1056 H1052 0.949 . S
C1056 C1064 1.574 . S
C1056 C1072 1.368 . S
H1057 C1065 0.950 . S
H1058 C1063 0.950 . S
H1059 C1064 0.949 . S
H1060 C1066 0.950 . S
H1061 C1067 0.950 . S
H1062 C1068 0.949 . S
C1063 H1058 0.950 . S
C1063 C1065 1.327 . S
C1063 C1069 1.429 . S
C1064 C1056 1.574 . S
C1064 H1059 0.949 . S
C1064 C1070 1.368 . S
C1065 C1049 1.349 . S
C1065 H1057 0.950 . S
C1065 C1063 1.327 . S
C1066 C1054 1.349 . S
C1066 H1060 0.950 . S
C1066 C1067 1.327 . S
C1067 H1061 0.950 . S
C1067 C1066 1.327 . S
C1067 C1071 1.429 . S
C1068 C1051 1.574 . S
C1068 H1062 0.949 . S
C1068 C1072 1.368 . S
C1069 C1050 1.429 . S
C1069 C1063 1.429 . S
C1069 C1070 1.523 . S
C1070 C1051 1.368 . S
C1070 C1064 1.368 . S
C1070 C1069 1.523 . S
C1071 C1055 1.429 . S
C1071 C1067 1.429 . S
C1071 C1072 1.523 . S
C1072 C1056 1.368 . S
C1072 C1068 1.368 . S
C1072 C1071 1.523 . S
H1073 C1048 0.950 . S
H1074 C1050 0.950 . S
H1075 C1051 0.949 . S
H1076 C1053 0.950 . S
H1077 C1055 0.950 . S
C1078 C1079 1.349 . S
C1078 C1080 1.327 . S
C1078 H1103 0.950 . S
C1079 C1078 1.349 . S
C1079 C1095 1.349 . S
C1080 C1078 1.327 . S
C1080 C1099 1.429 . S
C1080 H1104 0.950 . S
C1081 C1098 1.574 . S
C1081 C1100 1.368 . S
C1081 H1105 0.949 . S
H1082 C1086 0.949 . S
C1083 C1084 1.349 . S
C1083 C1085 1.327 . S
C1083 H1106 0.950 . S
C1084 C1083 1.349 . S
C1084 C1096 1.349 . S
C1085 C1083 1.327 . S
C1085 C1101 1.429 . S
C1085 H1107 0.950 . S
C1086 H1082 0.949 . S
C1086 C1094 1.574 . S
C1086 C1102 1.368 . S
H1087 C1095 0.950 . S
H1088 C1093 0.950 . S
H1089 C1094 0.949 . S
H1090 C1096 0.950 . S
H1091 C1097 0.950 . S
H1092 C1098 0.949 . S
C1093 H1088 0.950 . S
C1093 C1095 1.327 . S
C1093 C1099 1.429 . S
C1094 C1086 1.574 . S
C1094 H1089 0.949 . S
C1094 C1100 1.368 . S
C1095 C1079 1.349 . S
C1095 H1087 0.950 . S
C1095 C1093 1.327 . S
C1096 C1084 1.349 . S
C1096 H1090 0.950 . S
C1096 C1097 1.327 . S
C1097 H1091 0.950 . S
C1097 C1096 1.327 . S
C1097 C1101 1.429 . S
C1098 C1081 1.574 . S
C1098 H1092 0.949 . S
C1098 C1102 1.368 . S
C1099 C1080 1.429 . S
C1099 C1093 1.429 . S
C1099 C1100 1.523 . S
C1100 C1081 1.368 . S
C1100 C1094 1.368 . S
C1100 C1099 1.523 . S
C1101 C1085 1.429 . S
C1101 C1097 1.429 . S
C1101 C1102 1.523 . S
C1102 C1086 1.368 . S
C1102 C1098 1.368 . S
C1102 C1101 1.523 . S
H1103 C1078 0.950 . S
H1104 C1080 0.950 . S
H1105 C1081 0.949 . S
H1106 C1083 0.950 . S
H1107 C1085 0.950 . S
C1108 C1109 1.349 . S
C1108 C1110 1.327 . S
C1108 H1133 0.950 . S
C1109 C1108 1.349 . S
C1109 C1125 1.349 . S
C1110 C1108 1.327 . S
C1110 C1129 1.429 . S
C1110 H1134 0.950 . S
C1111 C1128 1.574 . S
C1111 C1130 1.368 . S
C1111 H1135 0.949 . S
H1112 C1116 0.949 . S
C1113 C1114 1.349 . S
C1113 C1115 1.327 . S
C1113 H1136 0.950 . S
C1114 C1113 1.349 . S
C1114 C1126 1.349 . S
C1115 C1113 1.327 . S
C1115 C1131 1.429 . S
C1115 H1137 0.950 . S
C1116 H1112 0.949 . S
C1116 C1124 1.574 . S
C1116 C1132 1.368 . S
H1117 C1125 0.950 . S
H1118 C1123 0.950 . S
H1119 C1124 0.949 . S
H1120 C1126 0.950 . S
H1121 C1127 0.950 . S
H1122 C1128 0.949 . S
C1123 H1118 0.950 . S
C1123 C1125 1.327 . S
C1123 C1129 1.429 . S
C1124 C1116 1.574 . S
C1124 H1119 0.949 . S
C1124 C1130 1.368 . S
C1125 C1109 1.349 . S
C1125 H1117 0.950 . S
C1125 C1123 1.327 . S
C1126 C1114 1.349 . S
C1126 H1120 0.950 . S
C1126 C1127 1.327 . S
C1127 H1121 0.950 . S
C1127 C1126 1.327 . S
C1127 C1131 1.429 . S
C1128 C1111 1.574 . S
C1128 H1122 0.949 . S
C1128 C1132 1.368 . S
C1129 C1110 1.429 . S
C1129 C1123 1.429 . S
C1129 C1130 1.523 . S
C1130 C1111 1.368 . S
C1130 C1124 1.368 . S
C1130 C1129 1.523 . S
C1131 C1115 1.429 . S
C1131 C1127 1.429 . S
C1131 C1132 1.523 . S
C1132 C1116 1.368 . S
C1132 C1128 1.368 . S
C1132 C1131 1.523 . S
H1133 C1108 0.950 . S
H1134 C1110 0.950 . S
H1135 C1111 0.949 . S
H1136 C1113 0.950 . S
H1137 C1115 0.950 . S
C1138 C1139 1.349 . S
C1138 C1140 1.327 . S
C1138 H1163 0.950 . S
C1139 C1138 1.349 . S
C1139 C1155 1.349 . S
C1140 C1138 1.327 . S
C1140 C1159 1.429 . S
C1140 H1164 0.950 . S
C1141 C1158 1.574 . S
C1141 C1160 1.368 . S
C1141 H1165 0.949 . S
H1142 C1146 0.949 1_655 S
C1143 C1144 1.349 . S
C1143 C1145 1.327 . S
C1143 H1166 0.950 . S
C1144 C1143 1.349 . S
C1144 C1156 1.349 . S
C1145 C1143 1.327 . S
C1145 C1161 1.429 . S
C1145 H1167 0.950 . S
C1146 H1142 0.949 1_455 S
C1146 C1154 1.574 . S
C1146 C1162 1.368 . S
H1147 C1155 0.950 . S
H1148 C1153 0.950 . S
H1149 C1154 0.949 . S
H1150 C1156 0.950 . S
H1151 C1157 0.950 . S
H1152 C1158 0.949 . S
C1153 H1148 0.950 . S
C1153 C1155 1.327 . S
C1153 C1159 1.429 . S
C1154 C1146 1.574 . S
C1154 H1149 0.949 . S
C1154 C1160 1.368 . S
C1155 C1139 1.349 . S
C1155 H1147 0.950 . S
C1155 C1153 1.327 . S
C1156 C1144 1.349 . S
C1156 H1150 0.950 . S
C1156 C1157 1.327 . S
C1157 H1151 0.950 . S
C1157 C1156 1.327 . S
C1157 C1161 1.429 . S
C1158 C1141 1.574 . S
C1158 H1152 0.949 . S
C1158 C1162 1.368 . S
C1159 C1140 1.429 . S
C1159 C1153 1.429 . S
C1159 C1160 1.523 . S
C1160 C1141 1.368 . S
C1160 C1154 1.368 . S
C1160 C1159 1.523 . S
C1161 C1145 1.429 . S
C1161 C1157 1.429 . S
C1161 C1162 1.523 1_655 S
C1162 C1146 1.368 . S
C1162 C1158 1.368 . S
C1162 C1161 1.523 1_455 S
H1163 C1138 0.950 . S
H1164 C1140 0.950 . S
H1165 C1141 0.949 . S
H1166 C1143 0.950 . S
H1167 C1145 0.950 . S
C1168 C1169 1.349 . S
C1168 C1170 1.327 . S
C1168 H1193 0.950 . S
C1169 C1168 1.349 . S
C1169 C1185 1.349 . S
C1170 C1168 1.327 . S
C1170 C1189 1.429 . S
C1170 H1194 0.950 . S
C1171 C1188 1.574 . S
C1171 C1190 1.368 . S
C1171 H1195 0.949 . S
H1172 C1176 0.949 . S
C1173 C1174 1.349 . S
C1173 C1175 1.327 . S
C1173 H1196 0.950 . S
C1174 C1173 1.349 . S
C1174 C1186 1.349 . S
C1175 C1173 1.327 . S
C1175 C1191 1.429 . S
C1175 H1197 0.950 . S
C1176 H1172 0.949 . S
C1176 C1184 1.574 . S
C1176 C1192 1.368 . S
H1177 C1185 0.950 . S
H1178 C1183 0.950 . S
H1179 C1184 0.949 . S
H1180 C1186 0.950 . S
H1181 C1187 0.950 . S
H1182 C1188 0.949 . S
C1183 H1178 0.950 . S
C1183 C1185 1.327 . S
C1183 C1189 1.429 . S
C1184 C1176 1.574 . S
C1184 H1179 0.949 . S
C1184 C1190 1.368 . S
C1185 C1169 1.349 . S
C1185 H1177 0.950 . S
C1185 C1183 1.327 . S
C1186 C1174 1.349 . S
C1186 H1180 0.950 . S
C1186 C1187 1.327 . S
C1187 H1181 0.950 . S
C1187 C1186 1.327 . S
C1187 C1191 1.429 . S
C1188 C1171 1.574 . S
C1188 H1182 0.949 . S
C1188 C1192 1.368 . S
C1189 C1170 1.429 . S
C1189 C1183 1.429 . S
C1189 C1190 1.523 . S
C1190 C1171 1.368 . S
C1190 C1184 1.368 . S
C1190 C1189 1.523 . S
C1191 C1175 1.429 . S
C1191 C1187 1.429 . S
C1191 C1192 1.523 . S
C1192 C1176 1.368 . S
C1192 C1188 1.368 . S
C1192 C1191 1.523 . S
H1193 C1168 0.950 . S
H1194 C1170 0.950 . S
H1195 C1171 0.949 . S
H1196 C1173 0.950 . S
H1197 C1175 0.950 . S
C1198 C1199 1.349 . S
C1198 C1200 1.327 . S
C1198 H1223 0.950 . S
C1199 C1198 1.349 . S
C1199 C1215 1.349 . S
C1200 C1198 1.327 . S
C1200 C1219 1.429 . S
C1200 H1224 0.950 . S
C1201 C1218 1.574 . S
C1201 C1220 1.368 . S
C1201 H1225 0.949 . S
H1202 C1206 0.949 . S
C1203 C1204 1.349 . S
C1203 C1205 1.327 . S
C1203 H1226 0.950 . S
C1204 C1203 1.349 . S
C1204 C1216 1.349 . S
C1205 C1203 1.327 . S
C1205 C1221 1.429 . S
C1205 H1227 0.950 . S
C1206 H1202 0.949 . S
C1206 C1214 1.574 . S
C1206 C1222 1.368 . S
H1207 C1215 0.950 . S
H1208 C1213 0.950 . S
H1209 C1214 0.949 . S
H1210 C1216 0.950 . S
H1211 C1217 0.950 . S
H1212 C1218 0.978 . S
C1213 H1208 0.950 . S
C1213 C1215 1.327 . S
C1213 C1219 1.429 . S
C1214 C1206 1.574 . S
C1214 H1209 0.949 . S
C1214 C1220 1.368 . S
C1215 C1199 1.349 . S
C1215 H1207 0.950 . S
C1215 C1213 1.327 . S
C1216 C1204 1.349 . S
C1216 H1210 0.950 . S
C1216 C1217 1.327 . S
C1217 H1211 0.950 . S
C1217 C1216 1.327 . S
C1217 C1221 1.429 . S
C1218 C1201 1.574 . S
C1218 H1212 0.978 . S
C1218 C1222 1.368 . S
C1219 C1200 1.429 . S
C1219 C1213 1.429 . S
C1219 C1220 1.523 . S
C1220 C1201 1.368 . S
C1220 C1214 1.368 . S
C1220 C1219 1.523 . S
C1221 C1205 1.429 . S
C1221 C1217 1.429 . S
C1221 C1222 1.523 1_455 S
C1222 C1206 1.368 . S
C1222 C1218 1.368 . S
C1222 C1221 1.523 1_655 S
H1223 C1198 0.950 . S
H1224 C1200 0.950 . S
H1225 C1201 0.949 . S
H1226 C1203 0.950 . S
H1227 C1205 0.950 . S
C1228 C1229 1.349 . S
C1228 C1230 1.327 . S
C1228 H1253 0.950 . S
C1229 C1228 1.349 . S
C1229 C1245 1.349 . S
C1230 C1228 1.327 . S
C1230 C1249 1.429 . S
C1230 H1254 0.950 . S
C1231 C1248 1.574 . S
C1231 C1250 1.368 . S
C1231 H1255 0.949 . S
H1232 C1236 0.949 . S
C1233 C1234 1.349 . S
C1233 C1235 1.327 . S
C1233 H1256 0.950 . S
C1234 C1233 1.349 . S
C1234 C1246 1.349 . S
C1235 C1233 1.327 . S
C1235 C1251 1.429 . S
C1235 H1257 0.950 . S
C1236 H1232 0.949 . S
C1236 C1244 1.574 . S
C1236 C1252 1.368 . S
H1237 C1245 0.950 . S
H1238 C1243 0.950 . S
H1239 C1244 0.949 . S
H1240 C1246 0.950 . S
H1241 C1247 0.950 . S
H1242 C1248 0.949 . S
C1243 H1238 0.950 . S
C1243 C1245 1.327 . S
C1243 C1249 1.429 . S
C1244 C1236 1.574 . S
C1244 H1239 0.949 . S
C1244 C1250 1.368 . S
C1245 C1229 1.349 . S
C1245 H1237 0.950 . S
C1245 C1243 1.327 . S
C1246 C1234 1.349 . S
C1246 H1240 0.950 . S
C1246 C1247 1.327 . S
C1247 H1241 0.950 . S
C1247 C1246 1.327 . S
C1247 C1251 1.429 . S
C1248 C1231 1.574 . S
C1248 H1242 0.949 . S
C1248 C1252 1.368 . S
C1249 C1230 1.429 . S
C1249 C1243 1.429 . S
C1249 C1250 1.523 . S
C1250 C1231 1.368 . S
C1250 C1244 1.368 . S
C1250 C1249 1.523 . S
C1251 C1235 1.429 . S
C1251 C1247 1.429 . S
C1251 C1252 1.523 . S
C1252 C1236 1.368 . S
C1252 C1248 1.368 . S
C1252 C1251 1.523 . S
H1253 C1228 0.950 . S
H1254 C1230 0.950 . S
H1255 C1231 0.949 . S
H1256 C1233 0.950 . S
H1257 C1235 0.950 . S
C1258 C1259 1.349 . S
C1258 C1260 1.327 . S
C1258 H1283 0.950 . S
C1259 C1258 1.349 . S
C1259 C1275 1.349 . S
C1260 C1258 1.327 . S
C1260 C1279 1.429 . S
C1260 H1284 0.950 . S
C1261 C1278 1.574 . S
C1261 C1280 1.368 . S
C1261 H1285 0.949 . S
H1262 C1266 0.949 . S
C1263 C1264 1.349 . S
C1263 C1265 1.327 . S
C1263 H1286 0.950 . S
C1264 C1263 1.349 . S
C1264 C1276 1.349 . S
C1265 C1263 1.327 . S
C1265 C1281 1.429 . S
C1265 H1287 0.950 . S
C1266 H1262 0.949 . S
C1266 C1274 1.574 . S
C1266 C1282 1.368 . S
H1267 C1275 0.950 . S
H1268 C1273 0.950 . S
H1269 C1274 0.949 . S
H1270 C1276 0.950 . S
H1271 C1277 0.950 . S
H1272 C1278 0.949 . S
C1273 H1268 0.950 . S
C1273 C1275 1.327 . S
C1273 C1279 1.429 . S
C1274 C1266 1.574 . S
C1274 H1269 0.949 . S
C1274 C1280 1.368 . S
C1275 C1259 1.349 . S
C1275 H1267 0.950 . S
C1275 C1273 1.327 . S
C1276 C1264 1.349 . S
C1276 H1270 0.950 . S
C1276 C1277 1.327 . S
C1277 H1271 0.950 . S
C1277 C1276 1.327 . S
C1277 C1281 1.429 . S
C1278 C1261 1.574 . S
C1278 H1272 0.949 . S
C1278 C1282 1.368 . S
C1279 C1260 1.429 . S
C1279 C1273 1.429 . S
C1279 C1280 1.523 . S
C1280 C1261 1.368 . S
C1280 C1274 1.368 . S
C1280 C1279 1.523 . S
C1281 C1265 1.429 . S
C1281 C1277 1.429 . S
C1281 C1282 1.523 . S
C1282 C1266 1.368 . S
C1282 C1278 1.368 . S
C1282 C1281 1.523 . S
H1283 C1258 0.950 . S
H1284 C1260 0.950 . S
H1285 C1261 0.949 . S
H1286 C1263 0.950 . S
H1287 C1265 0.950 . S
C1288 C1289 1.349 . S
C1288 C1290 1.327 . S
C1288 H1313 0.950 . S
C1289 C1288 1.349 . S
C1289 C1305 1.349 . S
C1290 C1288 1.327 . S
C1290 C1309 1.429 . S
C1290 H1314 0.950 . S
C1291 C1308 1.574 . S
C1291 C1310 1.368 . S
C1291 H1315 0.949 . S
H1292 C1296 0.949 . S
C1293 C1294 1.349 . S
C1293 C1295 1.327 . S
C1293 H1316 0.950 . S
C1294 C1293 1.349 . S
C1294 C1306 1.349 . S
C1295 C1293 1.327 . S
C1295 C1311 1.429 . S
C1295 H1317 0.950 . S
C1296 H1292 0.949 . S
C1296 C1304 1.574 . S
C1296 C1312 1.368 . S
H1297 C1305 0.950 . S
H1298 C1303 0.950 . S
H1299 C1304 0.949 . S
H1300 C1306 0.950 . S
H1301 C1307 0.950 . S
H1302 C1308 0.949 . S
C1303 H1298 0.950 . S
C1303 C1305 1.327 . S
C1303 C1309 1.429 . S
C1304 C1296 1.574 . S
C1304 H1299 0.949 . S
C1304 C1310 1.368 . S
C1305 C1289 1.349 . S
C1305 H1297 0.950 . S
C1305 C1303 1.327 . S
C1306 C1294 1.349 . S
C1306 H1300 0.950 . S
C1306 C1307 1.327 . S
C1307 H1301 0.950 . S
C1307 C1306 1.327 . S
C1307 C1311 1.429 . S
C1308 C1291 1.574 . S
C1308 H1302 0.949 . S
C1308 C1312 1.368 . S
C1309 C1290 1.429 . S
C1309 C1303 1.429 . S
C1309 C1310 1.523 . S
C1310 C1291 1.368 . S
C1310 C1304 1.368 . S
C1310 C1309 1.523 . S
C1311 C1295 1.429 . S
C1311 C1307 1.429 . S
C1311 C1312 1.523 . S
C1312 C1296 1.368 . S
C1312 C1308 1.368 . S
C1312 C1311 1.523 . S
H1313 C1288 0.950 . S
H1314 C1290 0.950 . S
H1315 C1291 0.949 . S
H1316 C1293 0.950 . S
H1317 C1295 0.950 . S
C1318 C1319 1.349 . S
C1318 C1320 1.327 . S
C1318 H1343 0.950 . S
C1319 C1318 1.349 . S
C1319 C1335 1.349 . S
C1320 C1318 1.327 . S
C1320 C1339 1.429 . S
C1320 H1344 0.950 . S
C1321 C1338 1.574 . S
C1321 C1340 1.368 . S
C1321 H1345 0.949 . S
H1322 C1326 0.949 . S
C1323 C1324 1.349 . S
C1323 C1325 1.327 . S
C1323 H1346 0.950 . S
C1324 C1323 1.349 . S
C1324 C1336 1.349 . S
C1325 C1323 1.327 . S
C1325 C1341 1.429 . S
C1325 H1347 0.950 . S
C1326 H1322 0.949 . S
C1326 C1334 1.574 . S
C1326 C1342 1.368 . S
H1327 C1335 0.950 . S
H1328 C1333 0.950 . S
H1329 C1334 0.949 . S
H1330 C1336 0.950 . S
H1331 C1337 0.950 . S
H1332 C1338 0.949 . S
C1333 H1328 0.950 . S
C1333 C1335 1.327 . S
C1333 C1339 1.429 . S
C1334 C1326 1.574 . S
C1334 H1329 0.949 . S
C1334 C1340 1.368 . S
C1335 C1319 1.349 . S
C1335 H1327 0.950 . S
C1335 C1333 1.327 . S
C1336 C1324 1.349 . S
C1336 H1330 0.950 . S
C1336 C1337 1.327 . S
C1337 H1331 0.950 . S
C1337 C1336 1.327 . S
C1337 C1341 1.429 . S
C1338 C1321 1.574 . S
C1338 H1332 0.949 . S
C1338 C1342 1.368 . S
C1339 C1320 1.429 . S
C1339 C1333 1.429 . S
C1339 C1340 1.523 . S
C1340 C1321 1.368 . S
C1340 C1334 1.368 . S
C1340 C1339 1.523 . S
C1341 C1325 1.429 . S
C1341 C1337 1.429 . S
C1341 C1342 1.523 . S
C1342 C1326 1.368 . S
C1342 C1338 1.368 . S
C1342 C1341 1.523 . S
H1343 C1318 0.950 . S
H1344 C1320 0.950 . S
H1345 C1321 0.949 . S
H1346 C1323 0.950 . S
H1347 C1325 0.950 . S
C1348 C1349 1.349 . S
C1348 C1350 1.327 . S
C1348 H1373 0.950 . S
C1349 C1348 1.349 . S
C1349 C1365 1.349 . S
C1350 C1348 1.327 . S
C1350 C1369 1.429 . S
C1350 H1374 0.950 . S
C1351 C1368 1.574 . S
C1351 C1370 1.368 . S
C1351 H1375 0.949 . S
H1352 C1356 0.949 . S
C1353 C1354 1.349 . S
C1353 C1355 1.327 . S
C1353 H1376 0.950 . S
C1354 C1353 1.349 . S
C1354 C1366 1.349 . S
C1355 C1353 1.327 . S
C1355 C1371 1.429 . S
C1355 H1377 0.950 . S
C1356 H1352 0.949 . S
C1356 C1364 1.574 . S
C1356 C1372 1.368 . S
H1357 C1365 0.950 . S
H1358 C1363 0.950 . S
H1359 C1364 0.949 . S
H1360 C1366 0.950 . S
H1361 C1367 0.950 . S
H1362 C1368 0.949 . S
C1363 H1358 0.950 . S
C1363 C1365 1.327 . S
C1363 C1369 1.429 . S
C1364 C1356 1.574 . S
C1364 H1359 0.949 . S
C1364 C1370 1.368 . S
C1365 C1349 1.349 . S
C1365 H1357 0.950 . S
C1365 C1363 1.327 . S
C1366 C1354 1.349 . S
C1366 H1360 0.950 . S
C1366 C1367 1.327 . S
C1367 H1361 0.950 . S
C1367 C1366 1.327 . S
C1367 C1371 1.429 . S
C1368 C1351 1.574 . S
C1368 H1362 0.949 . S
C1368 C1372 1.368 . S
C1369 C1350 1.429 . S
C1369 C1363 1.429 . S
C1369 C1370 1.523 . S
C1370 C1351 1.368 . S
C1370 C1364 1.368 . S
C1370 C1369 1.523 . S
C1371 C1355 1.429 . S
C1371 C1367 1.429 . S
C1371 C1372 1.523 . S
C1372 C1356 1.368 . S
C1372 C1368 1.368 . S
C1372 C1371 1.523 . S
H1373 C1348 0.950 . S
H1374 C1350 0.950 . S
H1375 C1351 0.949 . S
H1376 C1353 0.950 . S
H1377 C1355 0.950 . S
C1378 C1379 1.349 . S
C1378 C1380 1.327 . S
C1378 H1403 0.950 . S
C1379 C1378 1.349 . S
C1379 C1395 1.349 . S
C1380 C1378 1.327 . S
C1380 C1399 1.429 . S
C1380 H1404 0.950 . S
C1381 C1398 1.574 . S
C1381 C1400 1.368 . S
C1381 H1405 0.949 . S
H1382 C1386 0.949 1_455 S
C1383 C1384 1.349 . S
C1383 C1385 1.327 . S
C1383 H1406 0.950 . S
C1384 C1383 1.349 . S
C1384 C1396 1.349 . S
C1385 C1383 1.327 . S
C1385 C1401 1.429 . S
C1385 H1407 0.950 . S
C1386 H1382 0.949 1_655 S
C1386 C1394 1.574 . S
C1386 C1402 1.368 . S
H1387 C1395 0.950 . S
H1388 C1393 0.950 . S
H1389 C1394 0.949 . S
H1390 C1396 0.950 . S
H1391 C1397 0.950 . S
H1392 C1398 0.949 . S
C1393 H1388 0.950 . S
C1393 C1395 1.327 . S
C1393 C1399 1.429 . S
C1394 C1386 1.574 . S
C1394 H1389 0.949 . S
C1394 C1400 1.368 . S
C1395 C1379 1.349 . S
C1395 H1387 0.950 . S
C1395 C1393 1.327 . S
C1396 C1384 1.349 . S
C1396 H1390 0.950 . S
C1396 C1397 1.327 . S
C1397 H1391 0.950 . S
C1397 C1396 1.327 . S
C1397 C1401 1.429 . S
C1398 C1381 1.574 . S
C1398 H1392 0.949 . S
C1398 C1402 1.368 . S
C1399 C1380 1.429 . S
C1399 C1393 1.429 . S
C1399 C1400 1.523 . S
C1400 C1381 1.368 . S
C1400 C1394 1.368 . S
C1400 C1399 1.523 . S
C1401 C1385 1.429 . S
C1401 C1397 1.429 . S
C1401 C1402 1.523 1_455 S
C1402 C1386 1.368 . S
C1402 C1398 1.368 . S
C1402 C1401 1.523 1_655 S
H1403 C1378 0.950 . S
H1404 C1380 0.950 . S
H1405 C1381 0.949 . S
H1406 C1383 0.950 . S
H1407 C1385 0.950 . S
C1408 C1409 1.349 . S
C1408 C1410 1.327 . S
C1408 H1433 0.950 . S
C1409 C1408 1.349 . S
C1409 C1425 1.349 . S
C1410 C1408 1.327 . S
C1410 C1429 1.429 . S
C1410 H1434 0.950 . S
C1411 C1428 1.574 . S
C1411 C1430 1.368 . S
C1411 H1435 0.949 . S
H1412 C1416 0.949 . S
C1413 C1414 1.349 . S
C1413 C1415 1.327 . S
C1413 H1436 0.950 . S
C1414 C1413 1.349 . S
C1414 C1426 1.349 . S
C1415 C1413 1.327 . S
C1415 C1431 1.429 . S
C1415 H1437 0.950 . S
C1416 H1412 0.949 . S
C1416 C1424 1.574 . S
C1416 C1432 1.368 . S
H1417 C1425 0.950 . S
H1418 C1423 0.950 . S
H1419 C1424 0.949 . S
H1420 C1426 0.950 . S
H1421 C1427 0.950 . S
H1422 C1428 0.949 . S
C1423 H1418 0.950 . S
C1423 C1425 1.327 . S
C1423 C1429 1.429 . S
C1424 C1416 1.574 . S
C1424 H1419 0.949 . S
C1424 C1430 1.368 . S
C1425 C1409 1.349 . S
C1425 H1417 0.950 . S
C1425 C1423 1.327 . S
C1426 C1414 1.349 . S
C1426 H1420 0.950 . S
C1426 C1427 1.327 . S
C1427 H1421 0.950 . S
C1427 C1426 1.327 . S
C1427 C1431 1.429 . S
C1428 C1411 1.574 . S
C1428 H1422 0.949 . S
C1428 C1432 1.368 . S
C1429 C1410 1.429 . S
C1429 C1423 1.429 . S
C1429 C1430 1.523 . S
C1430 C1411 1.368 . S
C1430 C1424 1.368 . S
C1430 C1429 1.523 . S
C1431 C1415 1.429 . S
C1431 C1427 1.429 . S
C1431 C1432 1.523 . S
C1432 C1416 1.368 . S
C1432 C1428 1.368 . S
C1432 C1431 1.523 . S
H1433 C1408 0.950 . S
H1434 C1410 0.950 . S
H1435 C1411 0.949 . S
H1436 C1413 0.950 . S
H1437 C1415 0.950 . S
C1438 C1439 1.349 . S
C1438 C1440 1.327 . S
C1438 H1463 0.950 . S
C1439 C1438 1.349 . S
C1439 C1455 1.349 . S
C1440 C1438 1.327 . S
C1440 C1459 1.429 . S
C1440 H1464 0.950 . S
C1441 C1458 1.574 . S
C1441 C1460 1.368 . S
C1441 H1465 0.949 . S
H1442 C1446 0.949 . S
C1443 C1444 1.349 . S
C1443 C1445 1.327 . S
C1443 H1466 0.950 . S
C1444 C1443 1.349 . S
C1444 C1456 1.349 . S
C1445 C1443 1.327 . S
C1445 C1461 1.429 . S
C1445 H1467 0.950 . S
C1446 H1442 0.949 . S
C1446 C1454 1.574 . S
C1446 C1462 1.368 . S
H1447 C1455 0.950 . S
H1448 C1453 0.950 . S
H1449 C1454 0.949 . S
H1450 C1456 0.950 . S
H1451 C1457 0.950 . S
H1452 C1458 0.949 . S
C1453 H1448 0.950 . S
C1453 C1455 1.327 . S
C1453 C1459 1.429 . S
C1454 C1446 1.574 . S
C1454 H1449 0.949 . S
C1454 C1460 1.368 . S
C1455 C1439 1.349 . S
C1455 H1447 0.950 . S
C1455 C1453 1.327 . S
C1456 C1444 1.349 . S
C1456 H1450 0.950 . S
C1456 C1457 1.327 . S
C1457 H1451 0.950 . S
C1457 C1456 1.327 . S
C1457 C1461 1.429 . S
C1458 C1441 1.574 . S
C1458 H1452 0.949 . S
C1458 C1462 1.368 . S
C1459 C1440 1.429 . S
C1459 C1453 1.429 . S
C1459 C1460 1.523 . S
C1460 C1441 1.368 . S
C1460 C1454 1.368 . S
C1460 C1459 1.523 . S
C1461 C1445 1.429 . S
C1461 C1457 1.429 . S
C1461 C1462 1.523 . S
C1462 C1446 1.368 . S
C1462 C1458 1.368 . S
C1462 C1461 1.523 . S
H1463 C1438 0.950 . S
H1464 C1440 0.950 . S
H1465 C1441 0.949 . S
H1466 C1443 0.950 . S
H1467 C1445 0.950 . S
C1468 C1469 1.349 . S
C1468 C1470 1.327 . S
C1468 H1493 0.950 . S
C1469 C1468 1.349 . S
C1469 C1485 1.349 . S
C1470 C1468 1.327 . S
C1470 C1489 1.429 . S
C1470 H1494 0.950 . S
C1471 C1488 1.574 . S
C1471 C1490 1.368 . S
C1471 H1495 0.949 . S
H1472 C1476 0.949 . S
C1473 C1474 1.349 . S
C1473 C1475 1.327 . S
C1473 H1496 0.950 . S
C1474 C1473 1.349 . S
C1474 C1486 1.349 . S
C1475 C1473 1.327 . S
C1475 C1491 1.429 . S
C1475 H1497 0.950 . S
C1476 H1472 0.949 . S
C1476 C1484 1.574 . S
C1476 C1492 1.368 . S
H1477 C1485 0.950 . S
H1478 C1483 0.950 . S
H1479 C1484 0.949 . S
H1480 C1486 0.950 . S
H1481 C1487 0.950 . S
H1482 C1488 0.949 . S
C1483 H1478 0.950 . S
C1483 C1485 1.327 . S
C1483 C1489 1.429 . S
C1484 C1476 1.574 . S
C1484 H1479 0.949 . S
C1484 C1490 1.368 . S
C1485 C1469 1.349 . S
C1485 H1477 0.950 . S
C1485 C1483 1.327 . S
C1486 C1474 1.349 . S
C1486 H1480 0.950 . S
C1486 C1487 1.327 . S
C1487 H1481 0.950 . S
C1487 C1486 1.327 . S
C1487 C1491 1.429 . S
C1488 C1471 1.574 . S
C1488 H1482 0.949 . S
C1488 C1492 1.368 . S
C1489 C1470 1.429 . S
C1489 C1483 1.429 . S
C1489 C1490 1.523 . S
C1490 C1471 1.368 . S
C1490 C1484 1.368 . S
C1490 C1489 1.523 . S
C1491 C1475 1.429 . S
C1491 C1487 1.429 . S
C1491 C1492 1.523 . S
C1492 C1476 1.368 . S
C1492 C1488 1.368 . S
C1492 C1491 1.523 . S
H1493 C1468 0.950 . S
H1494 C1470 0.950 . S
H1495 C1471 0.949 . S
H1496 C1473 0.950 . S
H1497 C1475 0.950 . S
C1498 C1499 1.349 . S
C1498 C1500 1.327 . S
C1498 H1523 0.950 . S
C1499 C1498 1.349 . S
C1499 C1515 1.349 . S
C1500 C1498 1.327 . S
C1500 C1519 1.429 . S
C1500 H1524 0.950 . S
C1501 C1518 1.574 . S
C1501 C1520 1.368 . S
C1501 H1525 0.949 . S
H1502 C1506 0.949 . S
C1503 C1504 1.349 . S
C1503 C1505 1.327 . S
C1503 H1526 0.950 . S
C1504 C1503 1.349 . S
C1504 C1516 1.349 . S
C1505 C1503 1.327 . S
C1505 C1521 1.429 . S
C1505 H1527 0.950 . S
C1506 H1502 0.949 . S
C1506 C1514 1.574 . S
C1506 C1522 1.368 . S
H1507 C1515 0.950 . S
H1508 C1513 0.950 . S
H1509 C1514 0.949 . S
H1510 C1516 0.950 . S
H1511 C1517 0.950 . S
H1512 C1518 0.949 1_455 S
C1513 H1508 0.950 . S
C1513 C1515 1.327 . S
C1513 C1519 1.429 . S
C1514 C1506 1.574 . S
C1514 H1509 0.949 . S
C1514 C1520 1.368 . S
C1515 C1499 1.349 . S
C1515 H1507 0.950 . S
C1515 C1513 1.327 . S
C1516 C1504 1.349 . S
C1516 H1510 0.950 . S
C1516 C1517 1.327 . S
C1517 H1511 0.950 . S
C1517 C1516 1.327 . S
C1517 C1521 1.429 . S
C1518 C1501 1.574 . S
C1518 H1512 0.949 1_655 S
C1518 C1522 1.368 . S
C1519 C1500 1.429 . S
C1519 C1513 1.429 . S
C1519 C1520 1.523 . S
C1520 C1501 1.368 . S
C1520 C1514 1.368 . S
C1520 C1519 1.523 . S
C1521 C1505 1.429 . S
C1521 C1517 1.429 . S
C1521 C1522 1.523 1_455 S
C1522 C1506 1.368 . S
C1522 C1518 1.368 . S
C1522 C1521 1.523 1_655 S
H1523 C1498 0.950 . S
H1524 C1500 0.950 . S
H1525 C1501 0.949 . S
H1526 C1503 0.950 . S
H1527 C1505 0.950 . S
C1528 C1529 1.349 . S
C1528 C1530 1.327 . S
C1528 H1553 0.950 . S
C1529 C1528 1.349 . S
C1529 C1545 1.349 . S
C1530 C1528 1.327 . S
C1530 C1549 1.429 . S
C1530 H1554 0.950 . S
C1531 C1548 1.574 . S
C1531 C1550 1.368 . S
C1531 H1555 0.949 . S
H1532 C1536 0.949 . S
C1533 C1534 1.349 . S
C1533 C1535 1.327 . S
C1533 H1556 0.950 . S
C1534 C1533 1.349 . S
C1534 C1546 1.349 . S
C1535 C1533 1.327 . S
C1535 C1551 1.429 . S
C1535 H1557 0.950 . S
C1536 H1532 0.949 . S
C1536 C1544 1.574 . S
C1536 C1552 1.368 . S
H1537 C1545 0.950 . S
H1538 C1543 0.950 . S
H1539 C1544 0.949 . S
H1540 C1546 0.950 . S
H1541 C1547 0.950 . S
H1542 C1548 0.949 . S
C1543 H1538 0.950 . S
C1543 C1545 1.327 . S
C1543 C1549 1.429 . S
C1544 C1536 1.574 . S
C1544 H1539 0.949 . S
C1544 C1550 1.368 . S
C1545 C1529 1.349 . S
C1545 H1537 0.950 . S
C1545 C1543 1.327 . S
C1546 C1534 1.349 . S
C1546 H1540 0.950 . S
C1546 C1547 1.327 . S
C1547 H1541 0.950 . S
C1547 C1546 1.327 . S
C1547 C1551 1.429 . S
C1548 C1531 1.574 . S
C1548 H1542 0.949 . S
C1548 C1552 1.368 . S
C1549 C1530 1.429 . S
C1549 C1543 1.429 . S
C1549 C1550 1.523 . S
C1550 C1531 1.368 . S
C1550 C1544 1.368 . S
C1550 C1549 1.523 . S
C1551 C1535 1.429 . S
C1551 C1547 1.429 . S
C1551 C1552 1.523 . S
C1552 C1536 1.368 . S
C1552 C1548 1.368 . S
C1552 C1551 1.523 . S
H1553 C1528 0.950 . S
H1554 C1530 0.950 . S
H1555 C1531 0.949 . S
H1556 C1533 0.950 . S
H1557 C1535 0.950 . S
C1558 C1559 1.349 . S
C1558 C1560 1.327 . S
C1558 H1583 0.950 . S
C1559 C1558 1.349 . S
C1559 C1575 1.349 . S
C1560 C1558 1.327 . S
C1560 C1579 1.429 . S
C1560 H1584 0.950 . S
C1561 C1578 1.574 . S
C1561 C1580 1.368 . S
C1561 H1585 0.960 . S
H1562 C1566 0.949 . S
C1563 C1564 1.349 . S
C1563 C1565 1.327 . S
C1563 H1586 0.950 . S
C1564 C1563 1.349 . S
C1564 C1576 1.349 . S
C1565 C1563 1.327 . S
C1565 C1581 1.429 . S
C1565 H1587 0.950 . S
C1566 H1562 0.949 . S
C1566 C1574 1.574 . S
C1566 C1582 1.368 . S
H1567 C1575 0.950 . S
H1568 C1573 0.950 . S
H1569 C1574 0.949 . S
H1570 C1576 0.950 . S
H1571 C1577 0.950 . S
H1572 C1578 0.949 . S
C1573 H1568 0.950 . S
C1573 C1575 1.327 . S
C1573 C1579 1.429 . S
C1574 C1566 1.574 . S
C1574 H1569 0.949 . S
C1574 C1580 1.368 . S
C1575 C1559 1.349 . S
C1575 H1567 0.950 . S
C1575 C1573 1.327 . S
C1576 C1564 1.349 . S
C1576 H1570 0.950 . S
C1576 C1577 1.327 . S
C1577 H1571 0.950 . S
C1577 C1576 1.327 . S
C1577 C1581 1.429 . S
C1578 C1561 1.574 . S
C1578 H1572 0.949 . S
C1578 C1582 1.368 . S
C1579 C1560 1.429 . S
C1579 C1573 1.429 . S
C1579 C1580 1.523 1_455 S
C1580 C1561 1.368 . S
C1580 C1574 1.368 . S
C1580 C1579 1.523 1_655 S
C1581 C1565 1.429 . S
C1581 C1577 1.429 . S
C1581 C1582 1.523 . S
C1582 C1566 1.368 . S
C1582 C1578 1.368 . S
C1582 C1581 1.523 . S
H1583 C1558 0.950 . S
H1584 C1560 0.950 . S
H1585 C1561 0.960 . S
H1586 C1563 0.950 . S
H1587 C1565 0.950 . S
C1588 C1589 1.349 . S
C1588 C1590 1.327 . S
C1588 H1613 0.950 . S
C1589 C1588 1.349 . S
C1589 C1605 1.349 . S
C1590 C1588 1.327 . S
C1590 C1609 1.429 . S
C1590 H1614 0.950 . S
C1591 C1608 1.574 . S
C1591 C1610 1.368 . S
C1591 H1615 0.949 . S
H1592 C1596 0.949 . S
C1593 C1594 1.349 . S
C1593 C1595 1.327 . S
C1593 H1616 0.950 . S
C1594 C1593 1.349 . S
C1594 C1606 1.349 . S
C1595 C1593 1.327 . S
C1595 C1611 1.429 . S
C1595 H1617 0.950 . S
C1596 H1592 0.949 . S
C1596 C1604 1.574 . S
C1596 C1612 1.368 . S
H1597 C1605 0.950 . S
H1598 C1603 0.950 . S
H1599 C1604 0.949 . S
H1600 C1606 0.950 . S
H1601 C1607 0.950 . S
H1602 C1608 0.949 . S
C1603 H1598 0.950 . S
C1603 C1605 1.327 . S
C1603 C1609 1.429 . S
C1604 C1596 1.574 . S
C1604 H1599 0.949 . S
C1604 C1610 1.368 . S
C1605 C1589 1.349 . S
C1605 H1597 0.950 . S
C1605 C1603 1.327 . S
C1606 C1594 1.349 . S
C1606 H1600 0.950 . S
C1606 C1607 1.327 . S
C1607 H1601 0.950 . S
C1607 C1606 1.327 . S
C1607 C1611 1.429 . S
C1608 C1591 1.574 . S
C1608 H1602 0.949 . S
C1608 C1612 1.368 . S
C1609 C1590 1.429 . S
C1609 C1603 1.429 . S
C1609 C1610 1.523 . S
C1610 C1591 1.368 . S
C1610 C1604 1.368 . S
C1610 C1609 1.523 . S
C1611 C1595 1.429 . S
C1611 C1607 1.429 . S
C1611 C1612 1.523 . S
C1612 C1596 1.368 . S
C1612 C1608 1.368 . S
C1612 C1611 1.523 . S
H1613 C1588 0.950 . S
H1614 C1590 0.950 . S
H1615 C1591 0.949 . S
H1616 C1593 0.950 . S
H1617 C1595 0.950 . S
C1618 C1619 1.349 . S
C1618 C1620 1.327 . S
C1618 H1643 0.950 . S
C1619 C1618 1.349 . S
C1619 C1635 1.349 . S
C1620 C1618 1.327 . S
C1620 C1639 1.429 . S
C1620 H1644 0.950 . S
C1621 C1638 1.574 . S
C1621 C1640 1.368 . S
C1621 H1645 0.949 . S
H1622 C1626 0.949 . S
C1623 C1624 1.349 . S
C1623 C1625 1.327 . S
C1623 H1646 0.950 . S
C1624 C1623 1.349 . S
C1624 C1636 1.349 . S
C1625 C1623 1.327 . S
C1625 C1641 1.429 . S
C1625 H1647 0.950 . S
C1626 H1622 0.949 . S
C1626 C1634 1.574 . S
C1626 C1642 1.368 . S
H1627 C1635 0.950 . S
H1628 C1633 0.950 . S
H1629 C1634 0.949 . S
H1630 C1636 0.950 . S
H1631 C1637 0.950 . S
H1632 C1638 0.949 . S
C1633 H1628 0.950 . S
C1633 C1635 1.327 . S
C1633 C1639 1.429 . S
C1634 C1626 1.574 . S
C1634 H1629 0.949 . S
C1634 C1640 1.368 . S
C1635 C1619 1.349 . S
C1635 H1627 0.950 . S
C1635 C1633 1.327 . S
C1636 C1624 1.349 . S
C1636 H1630 0.950 . S
C1636 C1637 1.327 . S
C1637 H1631 0.950 . S
C1637 C1636 1.327 . S
C1637 C1641 1.429 . S
C1638 C1621 1.574 . S
C1638 H1632 0.949 . S
C1638 C1642 1.368 . S
C1639 C1620 1.429 . S
C1639 C1633 1.429 . S
C1639 C1640 1.523 . S
C1640 C1621 1.368 . S
C1640 C1634 1.368 . S
C1640 C1639 1.523 . S
C1641 C1625 1.429 . S
C1641 C1637 1.429 . S
C1641 C1642 1.523 . S
C1642 C1626 1.368 . S
C1642 C1638 1.368 . S
C1642 C1641 1.523 . S
H1643 C1618 0.950 . S
H1644 C1620 0.950 . S
H1645 C1621 0.949 . S
H1646 C1623 0.950 . S
H1647 C1625 0.950 . S
C1648 C1649 1.349 . S
C1648 C1650 1.327 . S
C1648 H1673 0.950 . S
C1649 C1648 1.349 . S
C1649 C1665 1.349 . S
C1650 C1648 1.327 . S
C1650 C1669 1.429 . S
C1650 H1674 0.950 . S
C1651 C1668 1.574 . S
C1651 C1670 1.368 . S
C1651 H1675 0.949 . S
H1652 C1656 0.949 . S
C1653 C1654 1.349 . S
C1653 C1655 1.327 . S
C1653 H1676 0.950 . S
C1654 C1653 1.349 . S
C1654 C1666 1.349 . S
C1655 C1653 1.327 . S
C1655 C1671 1.429 . S
C1655 H1677 0.950 . S
C1656 H1652 0.949 . S
C1656 C1664 1.574 . S
C1656 C1672 1.368 . S
H1657 C1665 0.950 . S
H1658 C1663 0.950 . S
H1659 C1664 0.949 . S
H1660 C1666 0.950 . S
H1661 C1667 0.950 . S
H1662 C1668 0.949 . S
C1663 H1658 0.950 . S
C1663 C1665 1.327 . S
C1663 C1669 1.429 . S
C1664 C1656 1.574 . S
C1664 H1659 0.949 . S
C1664 C1670 1.368 . S
C1665 C1649 1.349 . S
C1665 H1657 0.950 . S
C1665 C1663 1.327 . S
C1666 C1654 1.349 . S
C1666 H1660 0.950 . S
C1666 C1667 1.327 . S
C1667 H1661 0.950 . S
C1667 C1666 1.327 . S
C1667 C1671 1.429 . S
C1668 C1651 1.574 . S
C1668 H1662 0.949 . S
C1668 C1672 1.368 . S
C1669 C1650 1.429 . S
C1669 C1663 1.429 . S
C1669 C1670 1.523 . S
C1670 C1651 1.368 . S
C1670 C1664 1.368 . S
C1670 C1669 1.523 . S
C1671 C1655 1.429 . S
C1671 C1667 1.429 . S
C1671 C1672 1.523 . S
C1672 C1656 1.368 . S
C1672 C1668 1.368 . S
C1672 C1671 1.523 . S
H1673 C1648 0.950 . S
H1674 C1650 0.950 . S
H1675 C1651 0.949 . S
H1676 C1653 0.950 . S
H1677 C1655 0.950 . S
C1678 C1679 1.349 . S
C1678 C1680 1.327 . S
C1678 H1703 0.950 . S
C1679 C1678 1.349 . S
C1679 C1695 1.349 . S
C1680 C1678 1.327 . S
C1680 C1699 1.429 . S
C1680 H1704 0.950 . S
C1681 C1698 1.574 . S
C1681 C1700 1.368 . S
C1681 H1705 0.949 . S
H1682 C1686 0.949 . S
C1683 C1684 1.349 . S
C1683 C1685 1.327 . S
C1683 H1706 0.950 . S
C1684 C1683 1.349 . S
C1684 C1696 1.349 . S
C1685 C1683 1.327 . S
C1685 C1701 1.429 . S
C1685 H1707 0.950 . S
C1686 H1682 0.949 . S
C1686 C1694 1.574 . S
C1686 C1702 1.368 . S
H1687 C1695 0.950 . S
H1688 C1693 0.950 . S
H1689 C1694 0.949 . S
H1690 C1696 0.950 . S
H1691 C1697 0.950 . S
H1692 C1698 0.949 . S
C1693 H1688 0.950 . S
C1693 C1695 1.327 . S
C1693 C1699 1.429 . S
C1694 C1686 1.574 . S
C1694 H1689 0.949 . S
C1694 C1700 1.368 . S
C1695 C1679 1.349 . S
C1695 H1687 0.950 . S
C1695 C1693 1.327 . S
C1696 C1684 1.349 . S
C1696 H1690 0.950 . S
C1696 C1697 1.327 . S
C1697 H1691 0.950 . S
C1697 C1696 1.327 . S
C1697 C1701 1.429 . S
C1698 C1681 1.574 . S
C1698 H1692 0.949 . S
C1698 C1702 1.368 . S
C1699 C1680 1.429 . S
C1699 C1693 1.429 . S
C1699 C1700 1.523 . S
C1700 C1681 1.368 . S
C1700 C1694 1.368 . S
C1700 C1699 1.523 . S
C1701 C1685 1.429 . S
C1701 C1697 1.429 . S
C1701 C1702 1.523 . S
C1702 C1686 1.368 . S
C1702 C1698 1.368 . S
C1702 C1701 1.523 . S
H1703 C1678 0.950 . S
H1704 C1680 0.950 . S
H1705 C1681 0.949 . S
H1706 C1683 0.950 . S
H1707 C1685 0.950 . S
C1708 C1709 1.349 . S
C1708 C1710 1.327 . S
C1708 H1733 0.950 . S
C1709 C1708 1.349 . S
C1709 C1725 1.349 . S
C1710 C1708 1.327 . S
C1710 C1729 1.429 . S
C1710 H1734 0.950 . S
C1711 C1728 1.574 . S
C1711 C1730 1.368 . S
C1711 H1735 0.949 . S
H1712 C1716 0.949 . S
C1713 C1714 1.349 . S
C1713 C1715 1.327 . S
C1713 H1736 0.950 . S
C1714 C1713 1.349 . S
C1714 C1726 1.349 . S
C1715 C1713 1.327 . S
C1715 C1731 1.429 . S
C1715 H1737 0.950 . S
C1716 H1712 0.949 . S
C1716 C1724 1.574 . S
C1716 C1732 1.368 . S
H1717 C1725 0.950 . S
H1718 C1723 0.950 . S
H1719 C1724 0.949 . S
H1720 C1726 0.950 . S
H1721 C1727 0.950 . S
H1722 C1728 0.949 . S
C1723 H1718 0.950 . S
C1723 C1725 1.327 . S
C1723 C1729 1.429 . S
C1724 C1716 1.574 . S
C1724 H1719 0.949 . S
C1724 C1730 1.368 . S
C1725 C1709 1.349 . S
C1725 H1717 0.950 . S
C1725 C1723 1.327 . S
C1726 C1714 1.349 . S
C1726 H1720 0.950 . S
C1726 C1727 1.327 . S
C1727 H1721 0.950 . S
C1727 C1726 1.327 . S
C1727 C1731 1.429 . S
C1728 C1711 1.574 . S
C1728 H1722 0.949 . S
C1728 C1732 1.368 . S
C1729 C1710 1.429 . S
C1729 C1723 1.429 . S
C1729 C1730 1.523 . S
C1730 C1711 1.368 . S
C1730 C1724 1.368 . S
C1730 C1729 1.523 . S
C1731 C1715 1.429 . S
C1731 C1727 1.429 . S
C1731 C1732 1.523 . S
C1732 C1716 1.368 . S
C1732 C1728 1.368 . S
C1732 C1731 1.523 . S
H1733 C1708 0.950 . S
H1734 C1710 0.950 . S
H1735 C1711 0.949 . S
H1736 C1713 0.950 . S
H1737 C1715 0.950 . S
C1738 C1739 1.349 . S
C1738 C1740 1.327 . S
C1738 H1763 0.950 . S
C1739 C1738 1.349 . S
C1739 C1755 1.349 . S
C1740 C1738 1.327 . S
C1740 C1759 1.429 . S
C1740 H1764 0.950 . S
C1741 C1758 1.574 . S
C1741 C1760 1.368 . S
C1741 H1765 0.949 . S
H1742 C1746 0.949 . S
C1743 C1744 1.349 . S
C1743 C1745 1.327 . S
C1743 H1766 0.950 . S
C1744 C1743 1.349 . S
C1744 C1756 1.349 . S
C1745 C1743 1.327 . S
C1745 C1761 1.429 . S
C1745 H1767 0.950 . S
C1746 H1742 0.949 . S
C1746 C1754 1.574 . S
C1746 C1762 1.368 . S
H1747 C1755 0.950 . S
H1748 C1753 0.950 . S
H1749 C1754 0.949 . S
H1750 C1756 0.950 . S
H1751 C1757 0.950 . S
H1752 C1758 0.949 . S
C1753 H1748 0.950 . S
C1753 C1755 1.327 . S
C1753 C1759 1.429 . S
C1754 C1746 1.574 . S
C1754 H1749 0.949 . S
C1754 C1760 1.368 . S
C1755 C1739 1.349 . S
C1755 H1747 0.950 . S
C1755 C1753 1.327 . S
C1756 C1744 1.349 . S
C1756 H1750 0.950 . S
C1756 C1757 1.327 . S
C1757 H1751 0.950 . S
C1757 C1756 1.327 . S
C1757 C1761 1.429 . S
C1758 C1741 1.574 . S
C1758 H1752 0.949 . S
C1758 C1762 1.368 . S
C1759 C1740 1.429 . S
C1759 C1753 1.429 . S
C1759 C1760 1.523 . S
C1760 C1741 1.368 . S
C1760 C1754 1.368 . S
C1760 C1759 1.523 . S
C1761 C1745 1.429 . S
C1761 C1757 1.429 . S
C1761 C1762 1.523 1_655 S
C1762 C1746 1.368 . S
C1762 C1758 1.368 . S
C1762 C1761 1.523 1_455 S
H1763 C1738 0.950 . S
H1764 C1740 0.950 . S
H1765 C1741 0.949 . S
H1766 C1743 0.950 . S
H1767 C1745 0.950 . S
C1768 C1769 1.349 . S
C1768 C1770 1.327 . S
C1768 H1793 0.950 . S
C1769 C1768 1.349 . S
C1769 C1785 1.349 . S
C1770 C1768 1.327 . S
C1770 C1789 1.429 . S
C1770 H1794 0.950 . S
C1771 C1788 1.574 . S
C1771 C1790 1.368 . S
C1771 H1795 0.949 . S
H1772 C1776 0.949 . S
C1773 C1774 1.349 . S
C1773 C1775 1.327 . S
C1773 H1796 0.950 . S
C1774 C1773 1.349 . S
C1774 C1786 1.349 . S
C1775 C1773 1.327 . S
C1775 C1791 1.429 . S
C1775 H1797 0.950 . S
C1776 H1772 0.949 . S
C1776 C1784 1.574 . S
C1776 C1792 1.368 . S
H1777 C1785 0.950 . S
H1778 C1783 0.950 . S
H1779 C1784 0.949 . S
H1780 C1786 0.950 . S
H1781 C1787 0.950 . S
H1782 C1788 0.949 . S
C1783 H1778 0.950 . S
C1783 C1785 1.327 . S
C1783 C1789 1.429 . S
C1784 C1776 1.574 . S
C1784 H1779 0.949 . S
C1784 C1790 1.368 . S
C1785 C1769 1.349 . S
C1785 H1777 0.950 . S
C1785 C1783 1.327 . S
C1786 C1774 1.349 . S
C1786 H1780 0.950 . S
C1786 C1787 1.327 . S
C1787 H1781 0.950 . S
C1787 C1786 1.327 . S
C1787 C1791 1.429 . S
C1788 C1771 1.574 . S
C1788 H1782 0.949 . S
C1788 C1792 1.368 . S
C1789 C1770 1.429 . S
C1789 C1783 1.429 . S
C1789 C1790 1.523 . S
C1790 C1771 1.368 . S
C1790 C1784 1.368 . S
C1790 C1789 1.523 . S
C1791 C1775 1.429 . S
C1791 C1787 1.429 . S
C1791 C1792 1.523 . S
C1792 C1776 1.368 . S
C1792 C1788 1.368 . S
C1792 C1791 1.523 . S
H1793 C1768 0.950 . S
H1794 C1770 0.950 . S
H1795 C1771 0.949 . S
H1796 C1773 0.950 . S
H1797 C1775 0.950 . S
C1798 C1799 1.349 . S
C1798 C1800 1.327 . S
C1798 H1823 0.950 . S
C1799 C1798 1.349 . S
C1799 C1815 1.349 . S
C1800 C1798 1.327 . S
C1800 C1819 1.429 . S
C1800 H1824 0.950 . S
C1801 C1818 1.574 . S
C1801 C1820 1.368 . S
C1801 H1825 0.949 . S
H1802 C1806 0.949 . S
C1803 C1804 1.349 . S
C1803 C1805 1.327 . S
C1803 H1826 0.950 . S
C1804 C1803 1.349 . S
C1804 C1816 1.349 . S
C1805 C1803 1.327 . S
C1805 C1821 1.429 . S
C1805 H1827 0.950 . S
C1806 H1802 0.949 . S
C1806 C1814 1.574 . S
C1806 C1822 1.368 . S
H1807 C1815 0.950 . S
H1808 C1813 0.950 . S
H1809 C1814 0.951 1_655 S
H1810 C1816 0.950 . S
H1811 C1817 0.950 . S
H1812 C1818 0.949 . S
C1813 H1808 0.950 . S
C1813 C1815 1.327 . S
C1813 C1819 1.429 . S
C1814 C1806 1.574 . S
C1814 H1809 0.951 1_455 S
C1814 C1820 1.368 . S
C1815 C1799 1.349 . S
C1815 H1807 0.950 . S
C1815 C1813 1.327 . S
C1816 C1804 1.349 . S
C1816 H1810 0.950 . S
C1816 C1817 1.327 . S
C1817 H1811 0.950 . S
C1817 C1816 1.327 . S
C1817 C1821 1.429 . S
C1818 C1801 1.574 . S
C1818 H1812 0.949 . S
C1818 C1822 1.368 . S
C1819 C1800 1.429 . S
C1819 C1813 1.429 . S
C1819 C1820 1.523 1_655 S
C1820 C1801 1.368 . S
C1820 C1814 1.368 . S
C1820 C1819 1.523 1_455 S
C1821 C1805 1.429 . S
C1821 C1817 1.429 . S
C1821 C1822 1.523 . S
C1822 C1806 1.368 . S
C1822 C1818 1.368 . S
C1822 C1821 1.523 . S
H1823 C1798 0.950 . S
H1824 C1800 0.950 . S
H1825 C1801 0.949 . S
H1826 C1803 0.950 . S
H1827 C1805 0.950 . S
C1828 C1829 1.349 . S
C1828 C1830 1.327 . S
C1828 H1853 0.950 . S
C1829 C1828 1.349 . S
C1829 C1845 1.349 . S
C1830 C1828 1.327 . S
C1830 C1849 1.429 . S
C1830 H1854 0.950 . S
C1831 C1848 1.574 . S
C1831 C1850 1.368 . S
C1831 H1855 0.949 . S
H1832 C1836 0.949 . S
C1833 C1834 1.349 . S
C1833 C1835 1.327 . S
C1833 H1856 0.950 . S
C1834 C1833 1.349 . S
C1834 C1846 1.349 . S
C1835 C1833 1.327 . S
C1835 C1851 1.429 . S
C1835 H1857 0.950 . S
C1836 H1832 0.949 . S
C1836 C1844 1.574 . S
C1836 C1852 1.368 . S
H1837 C1845 0.950 . S
H1838 C1843 0.950 . S
H1839 C1844 0.949 . S
H1840 C1846 0.950 . S
H1841 C1847 0.950 . S
H1842 C1848 0.949 . S
C1843 H1838 0.950 . S
C1843 C1845 1.327 . S
C1843 C1849 1.429 . S
C1844 C1836 1.574 . S
C1844 H1839 0.949 . S
C1844 C1850 1.368 . S
C1845 C1829 1.349 . S
C1845 H1837 0.950 . S
C1845 C1843 1.327 . S
C1846 C1834 1.349 . S
C1846 H1840 0.950 . S
C1846 C1847 1.327 . S
C1847 H1841 0.950 . S
C1847 C1846 1.327 . S
C1847 C1851 1.429 . S
C1848 C1831 1.574 . S
C1848 H1842 0.949 . S
C1848 C1852 1.368 . S
C1849 C1830 1.429 . S
C1849 C1843 1.429 . S
C1849 C1850 1.523 . S
C1850 C1831 1.368 . S
C1850 C1844 1.368 . S
C1850 C1849 1.523 . S
C1851 C1835 1.429 . S
C1851 C1847 1.429 . S
C1851 C1852 1.523 . S
C1852 C1836 1.368 . S
C1852 C1848 1.368 . S
C1852 C1851 1.523 . S
H1853 C1828 0.950 . S
H1854 C1830 0.950 . S
H1855 C1831 0.949 . S
H1856 C1833 0.950 . S
H1857 C1835 0.950 . S
C1858 C1859 1.349 . S
C1858 C1860 1.327 . S
C1858 H1883 0.950 . S
C1859 C1858 1.349 . S
C1859 C1875 1.349 . S
C1860 C1858 1.327 . S
C1860 C1879 1.429 . S
C1860 H1884 0.950 . S
C1861 C1878 1.574 . S
C1861 C1880 1.368 . S
C1861 H1885 0.949 . S
H1862 C1866 0.949 . S
C1863 C1864 1.349 . S
C1863 C1865 1.327 . S
C1863 H1886 0.950 . S
C1864 C1863 1.349 . S
C1864 C1876 1.349 . S
C1865 C1863 1.327 . S
C1865 C1881 1.429 . S
C1865 H1887 0.950 . S
C1866 H1862 0.949 . S
C1866 C1874 1.574 . S
C1866 C1882 1.368 . S
H1867 C1875 0.950 . S
H1868 C1873 0.950 . S
H1869 C1874 0.949 . S
H1870 C1876 0.950 . S
H1871 C1877 0.950 . S
H1872 C1878 0.949 . S
C1873 H1868 0.950 . S
C1873 C1875 1.327 . S
C1873 C1879 1.429 . S
C1874 C1866 1.574 . S
C1874 H1869 0.949 . S
C1874 C1880 1.368 . S
C1875 C1859 1.349 . S
C1875 H1867 0.950 . S
C1875 C1873 1.327 . S
C1876 C1864 1.349 . S
C1876 H1870 0.950 . S
C1876 C1877 1.327 . S
C1877 H1871 0.950 . S
C1877 C1876 1.327 . S
C1877 C1881 1.429 . S
C1878 C1861 1.574 . S
C1878 H1872 0.949 . S
C1878 C1882 1.368 . S
C1879 C1860 1.429 . S
C1879 C1873 1.429 . S
C1879 C1880 1.523 . S
C1880 C1861 1.368 . S
C1880 C1874 1.368 . S
C1880 C1879 1.523 . S
C1881 C1865 1.429 . S
C1881 C1877 1.429 . S
C1881 C1882 1.523 . S
C1882 C1866 1.368 . S
C1882 C1878 1.368 . S
C1882 C1881 1.523 . S
H1883 C1858 0.950 . S
H1884 C1860 0.950 . S
H1885 C1861 0.949 . S
H1886 C1863 0.950 . S
H1887 C1865 0.950 . S
C1888 C1889 1.349 . S
C1888 C1890 1.327 . S
C1888 H1913 0.950 . S
C1889 C1888 1.349 . S
C1889 C1905 1.349 . S
C1890 C1888 1.327 . S
C1890 C1909 1.429 . S
C1890 H1914 0.950 . S
C1891 C1908 1.574 . S
C1891 C1910 1.368 . S
C1891 H1915 0.949 . S
H1892 C1896 0.949 . S
C1893 C1894 1.349 . S
C1893 C1895 1.327 . S
C1893 H1916 0.950 . S
C1894 C1893 1.349 . S
C1894 C1906 1.349 . S
C1895 C1893 1.327 . S
C1895 C1911 1.429 . S
C1895 H1917 0.950 . S
C1896 H1892 0.949 . S
C1896 C1904 1.574 . S
C1896 C1912 1.368 . S
H1897 C1905 0.950 . S
H1898 C1903 0.950 . S
H1899 C1904 0.949 . S
H1900 C1906 0.950 . S
H1901 C1907 0.950 . S
H1902 C1908 0.949 . S
C1903 H1898 0.950 . S
C1903 C1905 1.327 . S
C1903 C1909 1.429 . S
C1904 C1896 1.574 . S
C1904 H1899 0.949 . S
C1904 C1910 1.368 . S
C1905 C1889 1.349 . S
C1905 H1897 0.950 . S
C1905 C1903 1.327 . S
C1906 C1894 1.349 . S
C1906 H1900 0.950 . S
C1906 C1907 1.327 . S
C1907 H1901 0.950 . S
C1907 C1906 1.327 . S
C1907 C1911 1.429 . S
C1908 C1891 1.574 . S
C1908 H1902 0.949 . S
C1908 C1912 1.368 . S
C1909 C1890 1.429 . S
C1909 C1903 1.429 . S
C1909 C1910 1.523 . S
C1910 C1891 1.368 . S
C1910 C1904 1.368 . S
C1910 C1909 1.523 . S
C1911 C1895 1.429 . S
C1911 C1907 1.429 . S
C1911 C1912 1.523 . S
C1912 C1896 1.368 . S
C1912 C1908 1.368 . S
C1912 C1911 1.523 . S
H1913 C1888 0.950 . S
H1914 C1890 0.950 . S
H1915 C1891 0.949 . S
H1916 C1893 0.950 . S
H1917 C1895 0.950 . S
C1918 C1919 1.349 . S
C1918 C1920 1.327 . S
C1918 H1943 0.950 . S
C1919 C1918 1.349 . S
C1919 C1935 1.349 . S
C1920 C1918 1.327 . S
C1920 C1939 1.429 . S
C1920 H1944 0.950 . S
C1921 C1938 1.574 . S
C1921 C1940 1.368 . S
C1921 H1945 0.949 . S
H1922 C1926 0.949 . S
C1923 C1924 1.349 1_556 S
C1923 C1925 1.327 . S
C1923 H1946 0.950 . S
C1924 C1923 1.349 1_554 S
C1924 C1936 1.349 1_554 S
C1925 C1923 1.327 . S
C1925 C1941 1.429 . S
C1925 H1947 0.950 . S
C1926 H1922 0.949 . S
C1926 C1934 1.574 . S
C1926 C1942 1.368 . S
H1927 C1935 0.950 . S
H1928 C1933 0.950 . S
H1929 C1934 0.949 . S
H1930 C1936 0.950 1_554 S
H1931 C1937 0.950 . S
H1932 C1938 0.949 . S
C1933 H1928 0.950 . S
C1933 C1935 1.327 . S
C1933 C1939 1.429 . S
C1934 C1926 1.574 . S
C1934 H1929 0.949 . S
C1934 C1940 1.368 . S
C1935 C1919 1.349 . S
C1935 H1927 0.950 . S
C1935 C1933 1.327 . S
C1936 C1924 1.349 1_556 S
C1936 H1930 0.950 1_556 S
C1936 C1937 1.327 . S
C1937 H1931 0.950 . S
C1937 C1936 1.327 . S
C1937 C1941 1.429 . S
C1938 C1921 1.574 . S
C1938 H1932 0.949 . S
C1938 C1942 1.368 . S
C1939 C1920 1.429 . S
C1939 C1933 1.429 . S
C1939 C1940 1.523 . S
C1940 C1921 1.368 . S
C1940 C1934 1.368 . S
C1940 C1939 1.523 . S
C1941 C1925 1.429 . S
C1941 C1937 1.429 . S
C1941 C1942 1.523 . S
C1942 C1926 1.368 . S
C1942 C1938 1.368 . S
C1942 C1941 1.523 . S
H1943 C1918 0.950 . S
H1944 C1920 0.950 . S
H1945 C1921 0.949 . S
H1946 C1923 0.950 . S
H1947 C1925 0.950 . S
C1948 C1949 1.349 1_554 S
C1948 C1950 1.327 . S
C1948 H1973 0.930 1_554 S
C1949 C1948 1.349 1_556 S
C1949 C1965 1.349 1_556 S
C1950 C1948 1.327 . S
C1950 C1969 1.429 . S
C1950 H1974 0.950 . S
C1951 C1968 1.574 . S
C1951 C1970 1.368 . S
C1951 H1975 0.949 . S
H1952 C1956 0.949 . S
C1953 C1954 1.349 . S
C1953 C1955 1.327 . S
C1953 H1976 0.950 . S
C1954 C1953 1.349 . S
C1954 C1966 1.349 . S
C1955 C1953 1.327 . S
C1955 C1971 1.429 . S
C1955 H1977 0.950 . S
C1956 H1952 0.949 . S
C1956 C1964 1.574 . S
C1956 C1972 1.368 . S
H1957 C1965 0.950 . S
H1958 C1963 0.950 . S
H1959 C1964 0.949 . S
H1960 C1966 0.950 . S
H1961 C1967 0.950 . S
H1962 C1968 0.949 . S
C1963 H1958 0.950 . S
C1963 C1965 1.327 . S
C1963 C1969 1.429 . S
C1964 C1956 1.574 . S
C1964 H1959 0.949 . S
C1964 C1970 1.368 . S
C1965 C1949 1.349 1_554 S
C1965 H1957 0.950 . S
C1965 C1963 1.327 . S
C1966 C1954 1.349 . S
C1966 H1960 0.950 . S
C1966 C1967 1.327 . S
C1967 H1961 0.950 . S
C1967 C1966 1.327 . S
C1967 C1971 1.429 . S
C1968 C1951 1.574 . S
C1968 H1962 0.949 . S
C1968 C1972 1.368 . S
C1969 C1950 1.429 . S
C1969 C1963 1.429 . S
C1969 C1970 1.523 . S
C1970 C1951 1.368 . S
C1970 C1964 1.368 . S
C1970 C1969 1.523 . S
C1971 C1955 1.429 . S
C1971 C1967 1.429 . S
C1971 C1972 1.523 . S
C1972 C1956 1.368 . S
C1972 C1968 1.368 . S
C1972 C1971 1.523 . S
H1973 C1948 0.930 1_556 S
H1974 C1950 0.950 . S
H1975 C1951 0.949 . S
H1976 C1953 0.950 . S
H1977 C1955 0.950 . S
C1978 C1979 1.349 . S
C1978 C1980 1.327 . S
C1978 H2003 0.950 . S
C1979 C1978 1.349 . S
C1979 C1995 1.349 . S
C1980 C1978 1.327 . S
C1980 C1999 1.429 . S
C1980 H2004 0.950 . S
C1981 C1998 1.574 . S
C1981 C2000 1.368 . S
C1981 H2005 0.949 . S
H1982 C1986 0.949 . S
C1983 C1984 1.349 . S
C1983 C1985 1.327 . S
C1983 H2006 0.950 . S
C1984 C1983 1.349 . S
C1984 C1996 1.349 . S
C1985 C1983 1.327 . S
C1985 C2001 1.429 . S
C1985 H2007 0.950 . S
C1986 H1982 0.949 . S
C1986 C1994 1.574 . S
C1986 C2002 1.368 . S
H1987 C1995 0.950 . S
H1988 C1993 0.950 . S
H1989 C1994 0.949 . S
H1990 C1996 0.950 . S
H1991 C1997 0.950 . S
H1992 C1998 0.949 . S
C1993 H1988 0.950 . S
C1993 C1995 1.327 . S
C1993 C1999 1.429 . S
C1994 C1986 1.574 . S
C1994 H1989 0.949 . S
C1994 C2000 1.368 . S
C1995 C1979 1.349 . S
C1995 H1987 0.950 . S
C1995 C1993 1.327 . S
C1996 C1984 1.349 . S
C1996 H1990 0.950 . S
C1996 C1997 1.327 . S
C1997 H1991 0.950 . S
C1997 C1996 1.327 . S
C1997 C2001 1.429 . S
C1998 C1981 1.574 . S
C1998 H1992 0.949 . S
C1998 C2002 1.368 . S
C1999 C1980 1.429 . S
C1999 C1993 1.429 . S
C1999 C2000 1.523 . S
C2000 C1981 1.368 . S
C2000 C1994 1.368 . S
C2000 C1999 1.523 . S
C2001 C1985 1.429 . S
C2001 C1997 1.429 . S
C2001 C2002 1.523 . S
C2002 C1986 1.368 . S
C2002 C1998 1.368 . S
C2002 C2001 1.523 . S
H2003 C1978 0.950 . S
H2004 C1980 0.950 . S
H2005 C1981 0.949 . S
H2006 C1983 0.950 . S
H2007 C1985 0.950 . S
C2008 C2009 1.349 . S
C2008 C2010 1.327 . S
C2008 H2033 0.950 . S
C2009 C2008 1.349 . S
C2009 C2025 1.349 . S
C2010 C2008 1.327 . S
C2010 C2029 1.429 . S
C2010 H2034 0.950 . S
C2011 C2028 1.574 . S
C2011 C2030 1.368 . S
C2011 H2035 0.949 . S
H2012 C2016 0.949 . S
C2013 C2014 1.349 . S
C2013 C2015 1.327 . S
C2013 H2036 0.950 . S
C2014 C2013 1.349 . S
C2014 C2026 1.349 . S
C2015 C2013 1.327 . S
C2015 C2031 1.429 . S
C2015 H2037 0.950 . S
C2016 H2012 0.949 . S
C2016 C2024 1.574 . S
C2016 C2032 1.368 . S
H2017 C2025 0.950 . S
H2018 C2023 0.950 . S
H2019 C2024 0.949 . S
H2020 C2026 0.950 . S
H2021 C2027 0.950 . S
H2022 C2028 0.949 . S
C2023 H2018 0.950 . S
C2023 C2025 1.327 . S
C2023 C2029 1.429 . S
C2024 C2016 1.574 . S
C2024 H2019 0.949 . S
C2024 C2030 1.368 . S
C2025 C2009 1.349 . S
C2025 H2017 0.950 . S
C2025 C2023 1.327 . S
C2026 C2014 1.349 . S
C2026 H2020 0.950 . S
C2026 C2027 1.327 . S
C2027 H2021 0.950 . S
C2027 C2026 1.327 . S
C2027 C2031 1.429 . S
C2028 C2011 1.574 . S
C2028 H2022 0.949 . S
C2028 C2032 1.368 . S
C2029 C2010 1.429 . S
C2029 C2023 1.429 . S
C2029 C2030 1.523 . S
C2030 C2011 1.368 . S
C2030 C2024 1.368 . S
C2030 C2029 1.523 . S
C2031 C2015 1.429 . S
C2031 C2027 1.429 . S
C2031 C2032 1.523 . S
C2032 C2016 1.368 . S
C2032 C2028 1.368 . S
C2032 C2031 1.523 . S
H2033 C2008 0.950 . S
H2034 C2010 0.950 . S
H2035 C2011 0.949 . S
H2036 C2013 0.950 . S
H2037 C2015 0.950 . S
C2038 C2039 1.349 1_554 S
C2038 C2040 1.327 . S
C2038 H2063 0.950 1_554 S
C2039 C2038 1.349 1_556 S
C2039 C2055 1.349 1_556 S
C2040 C2038 1.327 . S
C2040 C2059 1.429 . S
C2040 H2064 0.950 . S
C2041 C2058 1.574 . S
C2041 C2060 1.368 . S
C2041 H2065 0.949 . S
H2042 C2046 0.949 . S
C2043 C2044 1.349 . S
C2043 C2045 1.327 . S
C2043 H2066 0.950 . S
C2044 C2043 1.349 . S
C2044 C2056 1.349 . S
C2045 C2043 1.327 . S
C2045 C2061 1.429 . S
C2045 H2067 0.950 . S
C2046 H2042 0.949 . S
C2046 C2054 1.574 . S
C2046 C2062 1.368 . S
H2047 C2055 0.950 . S
H2048 C2053 0.950 . S
H2049 C2054 0.949 . S
H2050 C2056 0.950 . S
H2051 C2057 0.950 . S
H2052 C2058 0.949 . S
C2053 H2048 0.950 . S
C2053 C2055 1.327 . S
C2053 C2059 1.429 . S
C2054 C2046 1.574 . S
C2054 H2049 0.949 . S
C2054 C2060 1.368 . S
C2055 C2039 1.349 1_554 S
C2055 H2047 0.950 . S
C2055 C2053 1.327 . S
C2056 C2044 1.349 . S
C2056 H2050 0.950 . S
C2056 C2057 1.327 . S
C2057 H2051 0.950 . S
C2057 C2056 1.327 . S
C2057 C2061 1.429 . S
C2058 C2041 1.574 . S
C2058 H2052 0.949 . S
C2058 C2062 1.368 . S
C2059 C2040 1.429 . S
C2059 C2053 1.429 . S
C2059 C2060 1.523 . S
C2060 C2041 1.368 . S
C2060 C2054 1.368 . S
C2060 C2059 1.523 . S
C2061 C2045 1.429 . S
C2061 C2057 1.429 . S
C2061 C2062 1.523 . S
C2062 C2046 1.368 . S
C2062 C2058 1.368 . S
C2062 C2061 1.523 . S
H2063 C2038 0.950 1_556 S
H2064 C2040 0.950 . S
H2065 C2041 0.949 . S
H2066 C2043 0.950 . S
H2067 C2045 0.950 . S
C2068 C2069 1.349 . S
C2068 C2070 1.327 . S
C2068 H2093 0.950 . S
C2069 C2068 1.349 . S
C2069 C2085 1.349 . S
C2070 C2068 1.327 . S
C2070 C2089 1.429 . S
C2070 H2094 0.950 . S
C2071 C2088 1.574 . S
C2071 C2090 1.368 . S
C2071 H2095 0.949 . S
H2072 C2076 0.949 . S
C2073 C2074 1.349 1_556 S
C2073 C2075 1.327 . S
C2073 H2096 0.950 1_556 S
C2074 C2073 1.349 1_554 S
C2074 C2086 1.349 1_554 S
C2075 C2073 1.327 . S
C2075 C2091 1.429 . S
C2075 H2097 0.950 . S
C2076 H2072 0.949 . S
C2076 C2084 1.574 . S
C2076 C2092 1.368 . S
H2077 C2085 0.950 . S
H2078 C2083 0.950 . S
H2079 C2084 0.949 . S
H2080 C2086 0.950 . S
H2081 C2087 0.950 . S
H2082 C2088 0.949 . S
C2083 H2078 0.950 . S
C2083 C2085 1.327 . S
C2083 C2089 1.429 . S
C2084 C2076 1.574 . S
C2084 H2079 0.949 . S
C2084 C2090 1.368 . S
C2085 C2069 1.349 . S
C2085 H2077 0.950 . S
C2085 C2083 1.327 . S
C2086 C2074 1.349 1_556 S
C2086 H2080 0.950 . S
C2086 C2087 1.327 . S
C2087 H2081 0.950 . S
C2087 C2086 1.327 . S
C2087 C2091 1.429 . S
C2088 C2071 1.574 . S
C2088 H2082 0.949 . S
C2088 C2092 1.368 . S
C2089 C2070 1.429 . S
C2089 C2083 1.429 . S
C2089 C2090 1.523 . S
C2090 C2071 1.368 . S
C2090 C2084 1.368 . S
C2090 C2089 1.523 . S
C2091 C2075 1.429 . S
C2091 C2087 1.429 . S
C2091 C2092 1.523 . S
C2092 C2076 1.368 . S
C2092 C2088 1.368 . S
C2092 C2091 1.523 . S
H2093 C2068 0.950 . S
H2094 C2070 0.950 . S
H2095 C2071 0.949 . S
H2096 C2073 0.950 1_554 S
H2097 C2075 0.950 . S
C2098 C2099 1.349 . S
C2098 C2100 1.327 . S
C2098 H2123 0.950 . S
C2099 C2098 1.349 . S
C2099 C2115 1.349 . S
C2100 C2098 1.327 . S
C2100 C2119 1.429 . S
C2100 H2124 0.950 . S
C2101 C2118 1.574 . S
C2101 C2120 1.368 . S
C2101 H2125 0.949 . S
H2102 C2106 0.949 . S
C2103 C2104 1.349 . S
C2103 C2105 1.327 . S
C2103 H2126 0.950 . S
C2104 C2103 1.349 . S
C2104 C2116 1.349 . S
C2105 C2103 1.327 . S
C2105 C2121 1.429 . S
C2105 H2127 0.950 . S
C2106 H2102 0.949 . S
C2106 C2114 1.574 . S
C2106 C2122 1.368 . S
H2107 C2115 0.950 . S
H2108 C2113 0.950 . S
H2109 C2114 0.949 . S
H2110 C2116 0.950 . S
H2111 C2117 0.950 . S
H2112 C2118 0.949 . S
C2113 H2108 0.950 . S
C2113 C2115 1.327 . S
C2113 C2119 1.429 . S
C2114 C2106 1.574 . S
C2114 H2109 0.949 . S
C2114 C2120 1.368 . S
C2115 C2099 1.349 . S
C2115 H2107 0.950 . S
C2115 C2113 1.327 . S
C2116 C2104 1.349 . S
C2116 H2110 0.950 . S
C2116 C2117 1.327 . S
C2117 H2111 0.950 . S
C2117 C2116 1.327 . S
C2117 C2121 1.429 . S
C2118 C2101 1.574 . S
C2118 H2112 0.949 . S
C2118 C2122 1.368 . S
C2119 C2100 1.429 . S
C2119 C2113 1.429 . S
C2119 C2120 1.523 . S
C2120 C2101 1.368 . S
C2120 C2114 1.368 . S
C2120 C2119 1.523 . S
C2121 C2105 1.429 . S
C2121 C2117 1.429 . S
C2121 C2122 1.523 . S
C2122 C2106 1.368 . S
C2122 C2118 1.368 . S
C2122 C2121 1.523 . S
H2123 C2098 0.950 . S
H2124 C2100 0.950 . S
H2125 C2101 0.949 . S
H2126 C2103 0.950 . S
H2127 C2105 0.950 . S
C2128 C2129 1.349 1_554 S
C2128 C2130 1.327 . S
C2128 H2153 0.950 . S
C2129 C2128 1.349 1_556 S
C2129 C2145 1.349 1_556 S
C2130 C2128 1.327 . S
C2130 C2149 1.429 . S
C2130 H2154 0.950 . S
C2131 C2148 1.574 . S
C2131 C2150 1.368 . S
C2131 H2155 0.949 . S
H2132 C2136 0.949 . S
C2133 C2134 1.349 . S
C2133 C2135 1.327 . S
C2133 H2156 0.950 . S
C2134 C2133 1.349 . S
C2134 C2146 1.349 . S
C2135 C2133 1.327 . S
C2135 C2151 1.429 . S
C2135 H2157 0.950 . S
C2136 H2132 0.949 . S
C2136 C2144 1.574 . S
C2136 C2152 1.368 . S
H2137 C2145 0.950 1_556 S
H2138 C2143 0.950 . S
H2139 C2144 0.949 . S
H2140 C2146 0.950 . S
H2141 C2147 0.950 . S
H2142 C2148 0.949 . S
C2143 H2138 0.950 . S
C2143 C2145 1.327 . S
C2143 C2149 1.429 . S
C2144 C2136 1.574 . S
C2144 H2139 0.949 . S
C2144 C2150 1.368 . S
C2145 C2129 1.349 1_554 S
C2145 H2137 0.950 1_554 S
C2145 C2143 1.327 . S
C2146 C2134 1.349 . S
C2146 H2140 0.950 . S
C2146 C2147 1.327 . S
C2147 H2141 0.950 . S
C2147 C2146 1.327 . S
C2147 C2151 1.429 . S
C2148 C2131 1.574 . S
C2148 H2142 0.949 . S
C2148 C2152 1.368 . S
C2149 C2130 1.429 . S
C2149 C2143 1.429 . S
C2149 C2150 1.523 . S
C2150 C2131 1.368 . S
C2150 C2144 1.368 . S
C2150 C2149 1.523 . S
C2151 C2135 1.429 . S
C2151 C2147 1.429 . S
C2151 C2152 1.523 . S
C2152 C2136 1.368 . S
C2152 C2148 1.368 . S
C2152 C2151 1.523 . S
H2153 C2128 0.950 . S
H2154 C2130 0.950 . S
H2155 C2131 0.949 . S
H2156 C2133 0.950 . S
H2157 C2135 0.950 . S
C2158 C2159 1.349 . S
C2158 C2160 1.327 . S
C2158 H2183 0.950 . S
C2159 C2158 1.349 . S
C2159 C2175 1.349 . S
C2160 C2158 1.327 . S
C2160 C2179 1.429 . S
C2160 H2184 0.950 . S
C2161 C2178 1.574 . S
C2161 C2180 1.368 . S
C2161 H2185 0.949 . S
H2162 C2166 0.949 . S
C2163 C2164 1.349 . S
C2163 C2165 1.327 . S
C2163 H2186 0.950 . S
C2164 C2163 1.349 . S
C2164 C2176 1.349 . S
C2165 C2163 1.327 . S
C2165 C2181 1.429 . S
C2165 H2187 0.950 . S
C2166 H2162 0.949 . S
C2166 C2174 1.574 . S
C2166 C2182 1.368 . S
H2167 C2175 0.950 . S
H2168 C2173 0.950 . S
H2169 C2174 0.949 . S
H2170 C2176 0.950 . S
H2171 C2177 0.950 . S
H2172 C2178 0.949 . S
C2173 H2168 0.950 . S
C2173 C2175 1.327 . S
C2173 C2179 1.429 . S
C2174 C2166 1.574 . S
C2174 H2169 0.949 . S
C2174 C2180 1.368 . S
C2175 C2159 1.349 . S
C2175 H2167 0.950 . S
C2175 C2173 1.327 . S
C2176 C2164 1.349 . S
C2176 H2170 0.950 . S
C2176 C2177 1.327 . S
C2177 H2171 0.950 . S
C2177 C2176 1.327 . S
C2177 C2181 1.429 . S
C2178 C2161 1.574 . S
C2178 H2172 0.949 . S
C2178 C2182 1.368 . S
C2179 C2160 1.429 . S
C2179 C2173 1.429 . S
C2179 C2180 1.523 . S
C2180 C2161 1.368 . S
C2180 C2174 1.368 . S
C2180 C2179 1.523 . S
C2181 C2165 1.429 . S
C2181 C2177 1.429 . S
C2181 C2182 1.523 . S
C2182 C2166 1.368 . S
C2182 C2178 1.368 . S
C2182 C2181 1.523 . S
H2183 C2158 0.950 . S
H2184 C2160 0.950 . S
H2185 C2161 0.949 . S
H2186 C2163 0.950 . S
H2187 C2165 0.950 . S
C2188 C2189 1.349 . S
C2188 C2190 1.327 . S
C2188 H2213 0.950 . S
C2189 C2188 1.349 . S
C2189 C2205 1.349 . S
C2190 C2188 1.327 . S
C2190 C2209 1.429 . S
C2190 H2214 0.950 . S
C2191 C2208 1.574 . S
C2191 C2210 1.368 . S
C2191 H2215 0.949 . S
H2192 C2196 0.949 . S
C2193 C2194 1.349 . S
C2193 C2195 1.327 . S
C2193 H2216 0.950 . S
C2194 C2193 1.349 . S
C2194 C2206 1.349 . S
C2195 C2193 1.327 . S
C2195 C2211 1.429 . S
C2195 H2217 0.950 . S
C2196 H2192 0.949 . S
C2196 C2204 1.574 . S
C2196 C2212 1.368 . S
H2197 C2205 0.950 . S
H2198 C2203 0.950 . S
H2199 C2204 0.949 . S
H2200 C2206 0.950 . S
H2201 C2207 0.950 . S
H2202 C2208 0.949 . S
C2203 H2198 0.950 . S
C2203 C2205 1.327 . S
C2203 C2209 1.429 . S
C2204 C2196 1.574 . S
C2204 H2199 0.949 . S
C2204 C2210 1.368 . S
C2205 C2189 1.349 . S
C2205 H2197 0.950 . S
C2205 C2203 1.327 . S
C2206 C2194 1.349 . S
C2206 H2200 0.950 . S
C2206 C2207 1.327 . S
C2207 H2201 0.950 . S
C2207 C2206 1.327 . S
C2207 C2211 1.429 . S
C2208 C2191 1.574 . S
C2208 H2202 0.949 . S
C2208 C2212 1.368 . S
C2209 C2190 1.429 . S
C2209 C2203 1.429 . S
C2209 C2210 1.523 . S
C2210 C2191 1.368 . S
C2210 C2204 1.368 . S
C2210 C2209 1.523 . S
C2211 C2195 1.429 . S
C2211 C2207 1.429 . S
C2211 C2212 1.523 . S
C2212 C2196 1.368 . S
C2212 C2208 1.368 . S
C2212 C2211 1.523 . S
H2213 C2188 0.950 . S
H2214 C2190 0.950 . S
H2215 C2191 0.949 . S
H2216 C2193 0.950 . S
H2217 C2195 0.950 . S
C2218 C2219 1.349 1_556 S
C2218 C2220 1.327 . S
C2218 H2243 0.950 1_556 S
C2219 C2218 1.349 1_554 S
C2219 C2235 1.349 1_554 S
C2220 C2218 1.327 . S
C2220 C2239 1.429 . S
C2220 H2244 0.950 . S
C2221 C2238 1.574 . S
C2221 C2240 1.368 . S
C2221 H2245 0.949 . S
H2222 C2226 0.949 . S
C2223 C2224 1.349 . S
C2223 C2225 1.327 . S
C2223 H2246 0.950 . S
C2224 C2223 1.349 . S
C2224 C2236 1.349 . S
C2225 C2223 1.327 . S
C2225 C2241 1.429 . S
C2225 H2247 0.950 . S
C2226 H2222 0.949 . S
C2226 C2234 1.574 . S
C2226 C2242 1.368 . S
H2227 C2235 0.950 . S
H2228 C2233 0.950 . S
H2229 C2234 0.949 . S
H2230 C2236 0.950 . S
H2231 C2237 0.950 . S
H2232 C2238 0.949 . S
C2233 H2228 0.950 . S
C2233 C2235 1.327 . S
C2233 C2239 1.429 . S
C2234 C2226 1.574 . S
C2234 H2229 0.949 . S
C2234 C2240 1.368 . S
C2235 C2219 1.349 1_556 S
C2235 H2227 0.950 . S
C2235 C2233 1.327 . S
C2236 C2224 1.349 . S
C2236 H2230 0.950 . S
C2236 C2237 1.327 . S
C2237 H2231 0.950 . S
C2237 C2236 1.327 . S
C2237 C2241 1.429 . S
C2238 C2221 1.574 . S
C2238 H2232 0.949 . S
C2238 C2242 1.368 . S
C2239 C2220 1.429 . S
C2239 C2233 1.429 . S
C2239 C2240 1.523 . S
C2240 C2221 1.368 . S
C2240 C2234 1.368 . S
C2240 C2239 1.523 . S
C2241 C2225 1.429 . S
C2241 C2237 1.429 . S
C2241 C2242 1.523 . S
C2242 C2226 1.368 . S
C2242 C2238 1.368 . S
C2242 C2241 1.523 . S
H2243 C2218 0.950 1_554 S
H2244 C2220 0.950 . S
H2245 C2221 0.949 . S
H2246 C2223 0.950 . S
H2247 C2225 0.950 . S
C2248 C2249 1.349 . S
C2248 C2250 1.327 . S
C2248 H2273 0.950 . S
C2249 C2248 1.349 . S
C2249 C2265 1.349 . S
C2250 C2248 1.327 . S
C2250 C2269 1.429 . S
C2250 H2274 0.950 . S
C2251 C2268 1.574 . S
C2251 C2270 1.368 . S
C2251 H2275 0.949 . S
H2252 C2256 0.949 . S
C2253 C2254 1.349 1_556 S
C2253 C2255 1.327 . S
C2253 H2276 0.950 . S
C2254 C2253 1.349 1_554 S
C2254 C2266 1.349 1_554 S
C2255 C2253 1.327 . S
C2255 C2271 1.429 . S
C2255 H2277 0.950 . S
C2256 H2252 0.949 . S
C2256 C2264 1.574 . S
C2256 C2272 1.368 . S
H2257 C2265 0.950 . S
H2258 C2263 0.950 . S
H2259 C2264 0.949 . S
H2260 C2266 0.946 1_554 S
H2261 C2267 0.950 . S
H2262 C2268 0.949 . S
C2263 H2258 0.950 . S
C2263 C2265 1.327 . S
C2263 C2269 1.429 . S
C2264 C2256 1.574 . S
C2264 H2259 0.949 . S
C2264 C2270 1.368 . S
C2265 C2249 1.349 . S
C2265 H2257 0.950 . S
C2265 C2263 1.327 . S
C2266 C2254 1.349 1_556 S
C2266 H2260 0.946 1_556 S
C2266 C2267 1.327 . S
C2267 H2261 0.950 . S
C2267 C2266 1.327 . S
C2267 C2271 1.429 . S
C2268 C2251 1.574 . S
C2268 H2262 0.949 . S
C2268 C2272 1.368 . S
C2269 C2250 1.429 . S
C2269 C2263 1.429 . S
C2269 C2270 1.523 . S
C2270 C2251 1.368 . S
C2270 C2264 1.368 . S
C2270 C2269 1.523 . S
C2271 C2255 1.429 . S
C2271 C2267 1.429 . S
C2271 C2272 1.523 . S
C2272 C2256 1.368 . S
C2272 C2268 1.368 . S
C2272 C2271 1.523 . S
H2273 C2248 0.950 . S
H2274 C2250 0.950 . S
H2275 C2251 0.949 . S
H2276 C2253 0.950 . S
H2277 C2255 0.950 . S
C2278 C2279 1.349 . S
C2278 C2280 1.327 . S
C2278 H2303 0.950 . S
C2279 C2278 1.349 . S
C2279 C2295 1.349 . S
C2280 C2278 1.327 . S
C2280 C2299 1.429 . S
C2280 H2304 0.950 . S
C2281 C2298 1.574 . S
C2281 C2300 1.368 . S
C2281 H2305 0.949 . S
H2282 C2286 0.949 . S
C2283 C2284 1.349 . S
C2283 C2285 1.327 . S
C2283 H2306 0.950 . S
C2284 C2283 1.349 . S
C2284 C2296 1.349 . S
C2285 C2283 1.327 . S
C2285 C2301 1.429 . S
C2285 H2307 0.950 . S
C2286 H2282 0.949 . S
C2286 C2294 1.574 . S
C2286 C2302 1.368 . S
H2287 C2295 0.950 . S
H2288 C2293 0.950 . S
H2289 C2294 0.949 . S
H2290 C2296 0.950 . S
H2291 C2297 0.950 . S
H2292 C2298 0.949 . S
C2293 H2288 0.950 . S
C2293 C2295 1.327 . S
C2293 C2299 1.429 . S
C2294 C2286 1.574 . S
C2294 H2289 0.949 . S
C2294 C2300 1.368 . S
C2295 C2279 1.349 . S
C2295 H2287 0.950 . S
C2295 C2293 1.327 . S
C2296 C2284 1.349 . S
C2296 H2290 0.950 . S
C2296 C2297 1.327 . S
C2297 H2291 0.950 . S
C2297 C2296 1.327 . S
C2297 C2301 1.429 . S
C2298 C2281 1.574 . S
C2298 H2292 0.949 . S
C2298 C2302 1.368 . S
C2299 C2280 1.429 . S
C2299 C2293 1.429 . S
C2299 C2300 1.523 . S
C2300 C2281 1.368 . S
C2300 C2294 1.368 . S
C2300 C2299 1.523 . S
C2301 C2285 1.429 . S
C2301 C2297 1.429 . S
C2301 C2302 1.523 . S
C2302 C2286 1.368 . S
C2302 C2298 1.368 . S
C2302 C2301 1.523 . S
H2303 C2278 0.950 . S
H2304 C2280 0.950 . S
H2305 C2281 0.949 . S
H2306 C2283 0.950 . S
H2307 C2285 0.950 . S
C2308 C2309 1.349 . S
C2308 C2310 1.327 . S
C2308 H2333 0.950 . S
C2309 C2308 1.349 . S
C2309 C2325 1.349 . S
C2310 C2308 1.327 . S
C2310 C2329 1.429 . S
C2310 H2334 0.950 . S
C2311 C2328 1.574 . S
C2311 C2330 1.368 . S
C2311 H2335 0.949 . S
H2312 C2316 0.949 . S
C2313 C2314 1.349 . S
C2313 C2315 1.327 . S
C2313 H2336 0.950 . S
C2314 C2313 1.349 . S
C2314 C2326 1.349 . S
C2315 C2313 1.327 . S
C2315 C2331 1.429 . S
C2315 H2337 0.950 . S
C2316 H2312 0.949 . S
C2316 C2324 1.574 . S
C2316 C2332 1.368 . S
H2317 C2325 0.950 . S
H2318 C2323 0.950 . S
H2319 C2324 0.949 . S
H2320 C2326 0.950 . S
H2321 C2327 0.950 . S
H2322 C2328 0.949 . S
C2323 H2318 0.950 . S
C2323 C2325 1.327 . S
C2323 C2329 1.429 . S
C2324 C2316 1.574 . S
C2324 H2319 0.949 . S
C2324 C2330 1.368 . S
C2325 C2309 1.349 . S
C2325 H2317 0.950 . S
C2325 C2323 1.327 . S
C2326 C2314 1.349 . S
C2326 H2320 0.950 . S
C2326 C2327 1.327 . S
C2327 H2321 0.950 . S
C2327 C2326 1.327 . S
C2327 C2331 1.429 . S
C2328 C2311 1.574 . S
C2328 H2322 0.949 . S
C2328 C2332 1.368 . S
C2329 C2310 1.429 . S
C2329 C2323 1.429 . S
C2329 C2330 1.523 . S
C2330 C2311 1.368 . S
C2330 C2324 1.368 . S
C2330 C2329 1.523 . S
C2331 C2315 1.429 . S
C2331 C2327 1.429 . S
C2331 C2332 1.523 . S
C2332 C2316 1.368 . S
C2332 C2328 1.368 . S
C2332 C2331 1.523 . S
H2333 C2308 0.950 . S
H2334 C2310 0.950 . S
H2335 C2311 0.949 . S
H2336 C2313 0.950 . S
H2337 C2315 0.950 . S
C2338 C2339 1.349 . S
C2338 C2340 1.327 . S
C2338 H2363 0.950 . S
C2339 C2338 1.349 . S
C2339 C2355 1.349 . S
C2340 C2338 1.327 . S
C2340 C2359 1.429 . S
C2340 H2364 0.950 . S
C2341 C2358 1.574 . S
C2341 C2360 1.368 . S
C2341 H2365 0.949 . S
H2342 C2346 0.949 . S
C2343 C2344 1.349 1_554 S
C2343 C2345 1.327 . S
C2343 H2366 0.948 1_554 S
C2344 C2343 1.349 1_556 S
C2344 C2356 1.349 1_556 S
C2345 C2343 1.327 . S
C2345 C2361 1.429 . S
C2345 H2367 0.950 . S
C2346 H2342 0.949 . S
C2346 C2354 1.574 . S
C2346 C2362 1.368 . S
H2347 C2355 0.950 . S
H2348 C2353 0.950 . S
H2349 C2354 0.949 . S
H2350 C2356 0.950 . S
H2351 C2357 0.950 . S
H2352 C2358 0.949 . S
C2353 H2348 0.950 . S
C2353 C2355 1.327 . S
C2353 C2359 1.429 . S
C2354 C2346 1.574 . S
C2354 H2349 0.949 . S
C2354 C2360 1.368 . S
C2355 C2339 1.349 . S
C2355 H2347 0.950 . S
C2355 C2353 1.327 . S
C2356 C2344 1.349 1_554 S
C2356 H2350 0.950 . S
C2356 C2357 1.327 . S
C2357 H2351 0.950 . S
C2357 C2356 1.327 . S
C2357 C2361 1.429 . S
C2358 C2341 1.574 . S
C2358 H2352 0.949 . S
C2358 C2362 1.368 . S
C2359 C2340 1.429 . S
C2359 C2353 1.429 . S
C2359 C2360 1.523 . S
C2360 C2341 1.368 . S
C2360 C2354 1.368 . S
C2360 C2359 1.523 . S
C2361 C2345 1.429 . S
C2361 C2357 1.429 . S
C2361 C2362 1.523 . S
C2362 C2346 1.368 . S
C2362 C2358 1.368 . S
C2362 C2361 1.523 . S
H2363 C2338 0.950 . S
H2364 C2340 0.950 . S
H2365 C2341 0.949 . S
H2366 C2343 0.948 1_556 S
H2367 C2345 0.950 . S
C449 C6 1.540 . S
C454 C62 1.540 . S
C479 C20 1.540 . S
C484 C76 1.540 . S
C509 C90 1.540 . S
C514 C34 1.540 . S
C539 C104 1.540 . S
C544 C48 1.540 . S
C569 C118 1.540 . S
C574 C174 1.540 . S
C599 C132 1.540 . S
C604 C188 1.540 . S
C629 C202 1.540 . S
C634 C146 1.540 . S
C659 C160 1.540 . S
C664 C216 1.540 . S
C689 C286 1.540 . S
C694 C230 1.540 . S
C719 C300 1.540 . S
C724 C244 1.540 . S
C749 C258 1.540 . S
C754 C314 1.540 . S
C779 C328 1.540 . S
C784 C272 1.540 . S
C809 C342 1.540 . S
C814 C398 1.540 . S
C839 C412 1.540 . S
C844 C356 1.540 . S
C869 C426 1.540 . S
C874 C370 1.540 . S
C899 C384 1.540 . S
C904 C440 1.540 . S
C929 C9 1.646 . S
C934 C386 1.681 . S
C959 C120 1.681 . S
C964 C23 1.646 . S
C989 C37 1.646 . S
C994 C358 1.681 . S
C1019 C51 1.646 . S
C1024 C148 1.681 . S
C1049 C414 1.681 . S
C1054 C65 1.646 . S
C1079 C204 1.681 . S
C1084 C79 1.646 . S
C1109 C93 1.646 . S
C1114 C442 1.681 . S
C1139 C107 1.646 . S
C1144 C176 1.681 . S
C1169 C274 1.681 . S
C1174 C121 1.646 . S
C1199 C135 1.646 . S
C1204 C8 1.681 . S
C1229 C246 1.681 . S
C1234 C149 1.646 . S
C1259 C163 1.646 . S
C1264 C36 1.681 . S
C1289 C302 1.681 . S
C1294 C177 1.646 . S
C1319 C191 1.646 . S
C1324 C92 1.681 . S
C1349 C330 1.681 . S
C1354 C205 1.646 . S
C1379 C219 1.646 . S
C1384 C64 1.681 . S
C1409 C162 1.681 . S
C1414 C233 1.646 . S
C1439 C344 1.681 . S
C1444 C247 1.646 . S
C1469 C134 1.681 . S
C1474 C261 1.646 . S
C1499 C275 1.646 . S
C1504 C372 1.681 . S
C1529 C190 1.681 . S
C1534 C289 1.646 . S
C1559 C428 1.681 . S
C1564 C303 1.646 . S
C1589 C218 1.681 . S
C1594 C317 1.646 . S
C1619 C331 1.646 . S
C1624 C400 1.681 . S
C1649 C345 1.646 . S
C1654 C50 1.681 . S
C1679 C359 1.646 . S
C1684 C232 1.681 . S
C1709 C373 1.646 . S
C1714 C22 1.681 . S
C1739 C387 1.646 . S
C1744 C260 1.681 . S
C1769 C401 1.646 . S
C1774 C78 1.681 . S
C1799 C316 1.681 . S
C1804 C415 1.646 . S
C1829 C106 1.681 . S
C1834 C429 1.646 . S
C1859 C443 1.646 . S
C1864 C288 1.681 . S
C1889 C7 0.914 . S
C1894 C105 0.914 . S
C1919 C21 0.914 . S
C1924 C63 0.914 . S
C1949 C35 0.914 . S
C1954 C77 0.914 . S
C1979 C91 0.914 . S
C1984 C49 0.914 . S
C2009 C217 0.914 . S
C2014 C119 0.914 . S
C2039 C175 0.914 . S
C2044 C133 0.914 . S
C2069 C189 0.914 . S
C2074 C147 0.914 . S
C2099 C203 0.914 . S
C2104 C161 0.914 . S
C2129 C231 0.914 . S
C2134 C329 0.914 . S
C2159 C287 0.914 . S
C2164 C245 0.914 . S
C2189 C301 0.914 . S
C2194 C259 0.914 . S
C2219 C315 0.914 . S
C2224 C273 0.914 . S
C2249 C441 0.914 . S
C2254 C343 0.914 . S
C2279 C357 0.914 . S
C2284 C399 0.914 . S
C2309 C371 0.914 . S
C2314 C413 0.914 . S
C2339 C385 0.914 . S
C2344 C427 0.914 . S
