# Generated by pormake.
# Topology bcu, (8)-cn, num edge types: 1
# Building blocks:
#     Node 0, Type 0, BuildingBlock: VETTIZ_charged_sbu_0, # of connection points: 8
#     Node 1, Type 0, BuildingBlock: VETTIZ_charged_sbu_0, # of connection points: 8
#     Edge 2, Type (0, 0), BuildingBlock: UVAHIK_clean_linker_0, # of connection points: 2
#     Edge 3, Type (0, 0), BuildingBlock: UVAHIK_clean_linker_0, # of connection points: 2
#     Edge 4, Type (0, 0), BuildingBlock: UVAHIK_clean_linker_0, # of connection points: 2
#     Edge 5, Type (0, 0), BuildingBlock: UVAHIK_clean_linker_0, # of connection points: 2
#     Edge 6, Type (0, 0), BuildingBlock: UVAHIK_clean_linker_0, # of connection points: 2
#     Edge 7, Type (0, 0), BuildingBlock: UVAHIK_clean_linker_0, # of connection points: 2
#     Edge 8, Type (0, 0), BuildingBlock: UVAHIK_clean_linker_0, # of connection points: 2
#     Edge 9, Type (0, 0), BuildingBlock: UVAHIK_clean_linker_0, # of connection points: 2
# Relax obj value: 0.000
# Max RMSD: 0.009
# Mean RMSD: 0.009
data_MOF--net-bcu--node1-VETTIZ_charged_sbu_0--edge1-UVAHIK_clean_linker_0
_symmetry_space_group_name_H-M    P1
_symmetry_Int_Tables_number       1
_symmetry_cell_setting            triclinic
loop_
_symmetry_equiv_pos_as_xyz
'x, y, z'
_cell_length_a     25.507353
_cell_length_b     22.760244
_cell_length_c     25.848189
_cell_angle_alpha  88.532845
_cell_angle_beta   89.033055
_cell_angle_gamma 91.839373
loop_
_atom_site_label
_atom_site_type_symbol
_atom_site_fract_x
_atom_site_fract_y
_atom_site_fract_z
_atom_type_partial_charge
Fe0 Fe 0.03179 0.9315 0.98566 0.0
O1 O 0.02957 1.01784 0.98398 0.0
Fe2 Fe 0.98615 1.05753 0.92469 0.0
Fe3 Fe 0.00394 0.06383 0.04361 0.0
O4 O 0.02784 1.01699 0.97891 0.0
O5 O 0.95959 0.10279 0.98444 0.0
O6 O 0.9613 0.10363 -0.01032 0.0
Fe7 Fe 0.95688 0.18913 0.98287 0.0
C8 C 0.94469 0.94989 0.06673 0.0
O9 O 0.09051 0.94904 0.0367 0.0
O10 O 0.0538 1.01491 0.09207 0.0
O11 O 0.00631 0.20107 0.91865 0.0
O12 O 0.04755 0.11675 0.91232 0.0
O13 O 0.0217 1.00437 0.86923 0.0
O14 O 0.07459 0.94438 0.91795 0.0
O15 O 0.06536 0.12433 0.03338 0.0
O16 O 0.01983 0.20611 0.02938 0.0
C17 C 0.06002 0.96809 0.87442 0.0
O18 O 0.89815 0.17096 0.93168 0.0
O19 O 0.93729 0.10704 0.87594 0.0
O20 O 0.98223 0.91972 0.04972 0.0
O21 O 0.94263 1.00486 0.05767 0.0
C22 C 0.08927 0.97726 0.07964 0.0
C23 C 0.0617 0.17945 0.0393 0.0
C24 C 0.93032 0.15284 0.09445 0.0
O25 O 0.96928 0.11737 0.09903 0.0
O26 O 0.91458 0.17614 0.05115 0.0
C27 C 0.0448 0.17157 0.90277 0.0
O28 O 0.92439 0.99728 0.93318 0.0
O29 O 0.96907 0.91497 0.93877 0.0
C30 C 0.90084 0.14346 0.88838 0.0
C31 C 0.92781 0.94213 0.92752 0.0
Fe32 Fe 0.49809 0.68888 0.52236 0.0
O33 O 0.49106 0.60354 0.51755 0.0
Fe34 Fe 0.55536 0.5571 0.49077 0.0
Fe35 Fe 0.43434 0.563 0.47821 0.0
O36 O 0.4962 0.60265 0.51917 0.0
O37 O 0.49864 0.51624 0.4515 0.0
O38 O 0.49337 0.51713 0.44983 0.0
Fe39 Fe 0.49156 0.43045 0.44865 0.0
C40 C 0.38628 0.65202 0.55346 0.0
O41 O 0.44723 0.70484 0.46342 0.0
O42 O 0.44123 0.62362 0.41731 0.0
O43 O 0.55814 0.44309 0.40324 0.0
O44 O 0.6098 0.50333 0.45375 0.0
O45 O 0.56636 0.61601 0.43002 0.0
O46 O 0.56073 0.70103 0.47037 0.0
O47 O 0.38253 0.51275 0.43221 0.0
O48 O 0.43631 0.44591 0.39372 0.0
C49 C 0.57621 0.67097 0.43233 0.0
O50 O 0.54228 0.41518 0.50802 0.0
O51 O 0.54808 0.49763 0.55207 0.0
O52 O 0.43093 0.67543 0.56739 0.0
O53 O 0.37999 0.61616 0.5153 0.0
C54 C 0.43362 0.6782 0.42289 0.0
C55 C 0.39238 0.47259 0.39844 0.0
C56 C 0.41367 0.4497 0.5381 0.0
O57 O 0.42344 0.50467 0.53944 0.0
O58 O 0.42916 0.41892 0.50067 0.0
C59 C 0.60304 0.46657 0.41624 0.0
O60 O 0.60704 0.60659 0.53731 0.0
O61 O 0.55274 0.67134 0.57773 0.0
C62 C 0.55409 0.44261 0.54863 0.0
C63 C 0.59602 0.64323 0.57373 0.0
C64 C 0.10393 0.2748 0.06439 0.0
C65 C 0.10368 0.21294 0.06576 0.0
C66 C 0.13691 0.30719 0.09634 0.0
C67 C 0.25264 0.29728 0.18059 0.0
H68 H 0.18809 0.42425 0.25337 0.0
C69 C 0.34411 0.38832 0.36189 0.0
C70 C 0.35016 0.44957 0.36563 0.0
C71 C 0.31229 0.36379 0.32445 0.0
C72 C 0.20683 0.38947 0.23287 0.0
H73 H 0.13988 0.13671 0.10002 0.0
H74 H 0.19748 0.19325 0.15605 0.0
H75 H 0.13931 0.37248 0.1868 0.0
H76 H 0.32549 0.53351 0.3352 0.0
H77 H 0.26887 0.49019 0.26874 0.0
H78 H 0.31971 0.31345 0.22723 0.0
C79 C 0.17233 0.21679 0.12992 0.0
C80 C 0.17901 0.3598 0.19466 0.0
C81 C 0.13936 0.18428 0.09774 0.0
C82 C 0.32111 0.48613 0.33317 0.0
C83 C 0.28905 0.46133 0.29514 0.0
C84 C 0.2803 0.32676 0.21876 0.0
C85 C 0.17046 0.27858 0.13057 0.0
C86 C 0.20134 0.31277 0.16858 0.0
C87 C 0.28588 0.39986 0.2894 0.0
C88 C 0.2574 0.37245 0.24601 0.0
H89 H 0.07728 0.29831 0.03976 0.0
H90 H 0.13534 0.35471 0.09496 0.0
H91 H 0.27141 0.26214 0.16062 0.0
H92 H 0.36567 0.35917 0.38695 0.0
H93 H 0.30948 0.31633 0.32207 0.0
C94 C 0.93092 0.18476 0.18653 0.0
C95 C 0.90305 0.17125 0.14168 0.0
C96 C 0.90564 0.21131 0.22802 0.0
C97 C 0.7744 0.23961 0.28261 0.0
H98 H 0.83278 0.39174 0.32075 0.0
C99 C 0.64312 0.42109 0.33954 0.0
C100 C 0.64936 0.44413 0.38903 0.0
C101 C 0.68189 0.3876 0.31765 0.0
C102 C 0.8166 0.34885 0.31124 0.0
H103 H 0.82688 0.17147 0.10592 0.0
H104 H 0.78272 0.21635 0.17821 0.0
H105 H 0.8862 0.32542 0.26982 0.0
H106 H 0.70307 0.45433 0.45259 0.0
H107 H 0.77204 0.39577 0.41325 0.0
H108 H 0.70394 0.26419 0.32115 0.0
C109 C 0.82392 0.20696 0.18158 0.0
C110 C 0.84707 0.31087 0.28236 0.0
C111 C 0.84921 0.18156 0.14005 0.0
C112 C 0.69729 0.43717 0.41433 0.0
C113 C 0.73652 0.40351 0.39209 0.0
C114 C 0.74409 0.27744 0.3111 0.0
C115 C 0.85202 0.22334 0.22551 0.0
C116 C 0.82534 0.25698 0.26597 0.0
C117 C 0.72796 0.37655 0.34455 0.0
C118 C 0.76417 0.33328 0.3238 0.0
H119 H 0.97264 0.17762 0.18842 0.0
H120 H 0.92811 0.22349 0.26151 0.0
H121 H 0.757 0.19796 0.2712 0.0
H122 H 0.607 0.42649 0.3187 0.0
H123 H 0.67498 0.36826 0.28039 0.0
C124 C 0.86891 0.95431 0.12959 0.0
C125 C 0.90331 0.92069 0.10029 0.0
C126 C 0.8313 0.92697 0.1629 0.0
C127 C 0.80056 0.78507 0.23264 0.0
H128 H 0.66419 0.8522 0.25337 0.0
C129 C 0.63596 0.66598 0.35455 0.0
C130 C 0.60958 0.69995 0.39087 0.0
C131 C 0.66967 0.69273 0.31715 0.0
C132 C 0.70225 0.83318 0.24821 0.0
H133 H 0.92394 0.8318 0.08198 0.0
H134 H 0.85755 0.78412 0.13903 0.0
H135 H 0.72647 0.89842 0.19088 0.0
H136 H 0.59707 0.78901 0.41526 0.0
H137 H 0.65579 0.83568 0.34961 0.0
H138 H 0.77602 0.71954 0.28965 0.0
C139 C 0.8605 0.8317 0.13733 0.0
C140 C 0.73806 0.85972 0.21248 0.0
C141 C 0.89844 0.85905 0.10434 0.0
C142 C 0.61684 0.76149 0.38802 0.0
C143 C 0.65026 0.78829 0.35024 0.0
C144 C 0.76461 0.75831 0.26799 0.0
C145 C 0.82674 0.86528 0.16747 0.0
C146 C 0.78783 0.83617 0.20438 0.0
C147 C 0.67753 0.75413 0.31479 0.0
C148 C 0.71514 0.78218 0.27635 0.0
H149 H 0.87169 1.00192 0.12769 0.0
H150 H 0.80662 0.95437 0.18598 0.0
H151 H 0.83879 0.76626 0.22831 0.0
H152 H 0.63137 0.61848 0.35549 0.0
H153 H 0.68964 0.66528 0.28999 0.0
C154 C 0.12355 0.96808 0.17061 0.0
C155 C 0.13028 0.96137 0.11706 0.0
C156 C 0.15927 0.94368 0.20524 0.0
C157 C 0.29071 0.87369 0.21035 0.0
H158 H 0.23109 0.79493 0.33344 0.0
C159 C 0.39824 0.69766 0.33358 0.0
C160 C 0.40022 0.71047 0.38638 0.0
C161 C 0.36634 0.73015 0.30043 0.0
C162 C 0.24819 0.8168 0.29915 0.0
H163 H 0.18198 0.92759 0.05789 0.0
H164 H 0.24223 0.88429 0.11729 0.0
H165 H 0.17528 0.85381 0.27821 0.0
H166 H 0.36881 0.76554 0.44621 0.0
H167 H 0.31295 0.82067 0.38887 0.0
H168 H 0.36323 0.83465 0.23079 0.0
C169 C 0.21018 0.90857 0.13321 0.0
C170 C 0.21641 0.85115 0.2678 0.0
C171 C 0.175 0.93303 0.09893 0.0
C172 C 0.36886 0.75512 0.40553 0.0
C173 C 0.33645 0.78647 0.37286 0.0
C174 C 0.3222 0.83851 0.24126 0.0
C175 C 0.20232 0.91224 0.18688 0.0
C176 C 0.23715 0.87987 0.22277 0.0
C177 C 0.33505 0.77467 0.32 0.0
C178 C 0.3012 0.80968 0.28586 0.0
H179 H 0.08965 0.9898 0.18582 0.0
H180 H 0.1525 0.94838 0.24636 0.0
H181 H 0.30847 0.89601 0.17664 0.0
H182 H 0.42179 0.66334 0.31791 0.0
H183 H 0.36564 0.72016 0.2597 0.0
C184 C 0.05936 0.93479 0.78254 0.0
C185 C 0.08697 0.94703 0.82788 0.0
C186 C 0.08223 0.90107 0.74399 0.0
C187 C 0.16995 0.78157 0.73829 0.0
H188 H 0.20593 0.82208 0.59522 0.0
C189 C 0.34268 0.68564 0.63349 0.0
C190 C 0.33929 0.67152 0.58115 0.0
C191 C 0.30099 0.71151 0.65862 0.0
C192 C 0.19492 0.80956 0.63473 0.0
H193 H 0.16149 0.93915 0.8662 0.0
H194 H 0.20103 0.88088 0.79929 0.0
H195 H 0.15337 0.88911 0.64633 0.0
H196 H 0.28933 0.67194 0.51412 0.0
H197 H 0.21598 0.71839 0.55834 0.0
H198 H 0.2129 0.70354 0.72795 0.0
C199 C 0.16164 0.8962 0.79386 0.0
C200 C 0.16509 0.84794 0.66385 0.0
C201 C 0.13907 0.92966 0.83199 0.0
C202 C 0.29263 0.68194 0.55472 0.0
C203 C 0.25097 0.70886 0.57978 0.0
C204 C 0.19937 0.74333 0.70935 0.0
C205 C 0.13271 0.8795 0.75072 0.0
C206 C 0.15438 0.83517 0.71641 0.0
C207 C 0.25512 0.72451 0.63182 0.0
C208 C 0.21408 0.75811 0.65799 0.0
H209 H 0.01902 0.94749 0.77862 0.0
H210 H 0.05944 0.8888 0.71074 0.0
H211 H 0.1614 0.77055 0.77867 0.0
H212 H 0.37821 0.67802 0.65472 0.0
H213 H 0.30563 0.72375 0.69855 0.0
C214 C 0.37408 0.3599 0.58421 0.0
C215 C 0.38056 0.42146 0.58006 0.0
C216 C 0.34082 0.33366 0.62238 0.0
C217 C 0.22547 0.36388 0.70285 0.0
H218 H 0.26466 0.22616 0.78275 0.0
C219 C 0.09028 0.2629 0.8653 0.0
C220 C 0.08635 0.20124 0.86979 0.0
C221 C 0.12846 0.29065 0.83284 0.0
C222 C 0.25281 0.2642 0.76038 0.0
H223 H 0.35766 0.5036 0.61351 0.0
H224 H 0.29961 0.4577 0.67972 0.0
H225 H 0.32716 0.27232 0.72046 0.0
H226 H 0.11985 0.12039 0.84378 0.0
H227 H 0.18534 0.16859 0.78639 0.0
H228 H 0.1508 0.35522 0.74151 0.0
C229 C 0.32008 0.42982 0.65329 0.0
C230 C 0.28873 0.2907 0.72478 0.0
C231 C 0.35364 0.45605 0.61549 0.0
C232 C 0.1219 0.16801 0.84151 0.0
C233 C 0.15975 0.19573 0.80873 0.0
C234 C 0.18941 0.33714 0.73808 0.0
C235 C 0.31297 0.36838 0.65691 0.0
C236 C 0.27541 0.34077 0.69556 0.0
C237 C 0.16338 0.25743 0.80371 0.0
C238 C 0.2025 0.28683 0.76726 0.0
H239 H 0.39431 0.33194 0.55769 0.0
H240 H 0.33585 0.2862 0.62399 0.0
H241 H 0.21377 0.40192 0.68035 0.0
H242 H 0.06386 0.28984 0.8869 0.0
H243 H 0.13066 0.33824 0.83074 0.0
C244 C 0.87292 0.16644 0.79748 0.0
C245 C 0.86053 0.15874 0.8504 0.0
C246 C 0.83722 0.1928 0.76407 0.0
C247 C 0.7274 0.29458 0.77024 0.0
H248 H 0.70455 0.25153 0.62819 0.0
C249 C 0.61427 0.43945 0.62469 0.0
C250 C 0.58202 0.40999 0.58949 0.0
C251 C 0.64667 0.40767 0.65768 0.0
C252 C 0.71018 0.26383 0.66796 0.0
H253 H 0.79972 0.16758 0.90905 0.0
H254 H 0.73733 0.21168 0.85093 0.0
H255 H 0.76328 0.1942 0.68167 0.0
H256 H 0.55614 0.32401 0.56356 0.0
H257 H 0.61158 0.26897 0.62154 0.0
H258 H 0.67378 0.36357 0.75693 0.0
C259 C 0.77503 0.19954 0.83531 0.0
C260 C 0.7443 0.23133 0.69838 0.0
C261 C 0.81062 0.17378 0.86852 0.0
C262 C 0.58096 0.34815 0.5898 0.0
C263 C 0.61309 0.31653 0.62274 0.0
C264 C 0.69337 0.32705 0.73986 0.0
C265 C 0.78856 0.21144 0.78314 0.0
C266 C 0.75299 0.24605 0.75003 0.0
C267 C 0.64727 0.34586 0.65621 0.0
C268 C 0.68408 0.31189 0.68844 0.0
H269 H 0.91126 0.15555 0.7826 0.0
H270 H 0.84882 0.20132 0.72402 0.0
H271 H 0.73395 0.30784 0.80962 0.0
H272 H 0.61627 0.48705 0.62517 0.0
H273 H 0.67268 0.43165 0.6829 0.0
C274 C 0.61777 0.66585 0.66431 0.0
C275 C 0.63522 0.65675 0.6134 0.0
C276 C 0.65161 0.68965 0.70059 0.0
C277 C 0.76604 0.78902 0.70731 0.0
H278 H 0.76188 0.74216 0.8527 0.0
C279 C 0.8543 0.93738 0.86413 0.0
C280 C 0.88642 0.90901 0.89997 0.0
C281 C 0.82255 0.90439 0.83113 0.0
C282 C 0.76365 0.7557 0.81222 0.0
H283 H 0.70232 0.66283 0.56095 0.0
H284 H 0.76216 0.70504 0.62482 0.0
H285 H 0.71438 0.68284 0.79042 0.0
H286 H 0.90804 0.82407 0.93144 0.0
H287 H 0.85254 0.7669 0.8745 0.0
H288 H 0.8154 0.86187 0.72915 0.0
C289 C 0.72202 0.69374 0.63642 0.0
C290 C 0.73631 0.72181 0.77657 0.0
C291 C 0.68809 0.66903 0.60009 0.0
C292 C 0.88382 0.84725 0.90415 0.0
C293 C 0.85189 0.81443 0.87157 0.0
C294 C 0.79319 0.82311 0.74304 0.0
C295 C 0.70369 0.70555 0.68672 0.0
C296 C 0.73689 0.73827 0.72375 0.0
C297 C 0.82193 0.84249 0.83376 0.0
C298 C 0.79207 0.80702 0.79596 0.0
H299 H 0.57715 0.65669 0.67555 0.0
H300 H 0.63607 0.69854 0.73875 0.0
H301 H 0.76671 0.80331 0.667 0.0
H302 H 0.85566 0.98488 0.85975 0.0
H303 H 0.79925 0.92729 0.80289 0.0
loop_
_geom_bond_atom_site_label_1
_geom_bond_atom_site_label_2
_geom_bond_distance
_geom_bond_site_symmetry_2
_ccdc_geom_bond_type
Fe0 O1 1.886 . S
Fe0 O4 1.715 1_554 S
Fe0 O9 2.077 . S
Fe0 O14 1.935 1_554 S
Fe0 O20 2.077 1_455 S
Fe0 O29 1.935 1_454 S
O1 Fe0 1.886 . S
O1 Fe3 1.715 1_565 S
Fe2 O4 1.886 . S
Fe2 O5 1.715 1_565 S
Fe2 O12 1.935 1_565 S
Fe2 O13 2.077 . S
Fe2 O19 1.935 1_465 S
Fe2 O28 2.077 1_455 S
Fe3 O1 1.715 1_545 S
Fe3 O6 1.886 . S
Fe3 O10 1.935 1_545 S
Fe3 O15 2.077 . S
Fe3 O21 1.935 1_445 S
Fe3 O25 2.077 1_455 S
O4 Fe0 1.715 1_556 S
O4 Fe2 1.886 . S
O5 Fe2 1.715 1_545 S
O5 Fe7 1.886 . S
O6 Fe3 1.886 . S
O6 Fe7 1.715 1_554 S
Fe7 O5 1.886 . S
Fe7 O6 1.715 1_556 S
Fe7 O11 2.077 . S
Fe7 O16 1.935 1_556 S
Fe7 O18 2.077 1_455 S
Fe7 O26 1.935 1_456 S
C8 O20 1.381 . S
C8 O21 1.421 . S
O9 Fe0 2.077 . S
O9 C22 1.381 . S
O10 Fe3 1.935 1_565 S
O10 C22 1.421 . S
O11 Fe7 2.077 . S
O11 C27 1.381 . S
O12 Fe2 1.935 1_545 S
O12 C27 1.421 . S
O13 Fe2 2.077 . S
O13 C17 1.381 . S
O14 Fe0 1.935 1_556 S
O14 C17 1.421 . S
O15 Fe3 2.077 . S
O15 C23 1.381 . S
O16 Fe7 1.935 1_554 S
O16 C23 1.421 . S
C17 O13 1.381 . S
C17 O14 1.421 . S
O18 Fe7 2.077 1_655 S
O18 C30 1.381 . S
O19 Fe2 1.935 1_645 S
O19 C30 1.421 . S
O20 Fe0 2.077 1_655 S
O20 C8 1.381 . S
O21 Fe3 1.935 1_665 S
O21 C8 1.421 . S
C22 O9 1.381 . S
C22 O10 1.421 . S
C23 O15 1.381 . S
C23 O16 1.421 . S
C24 O25 1.381 . S
C24 O26 1.421 . S
O25 Fe3 2.077 1_655 S
O25 C24 1.381 . S
O26 Fe7 1.935 1_654 S
O26 C24 1.421 . S
C27 O11 1.381 . S
C27 O12 1.421 . S
O28 Fe2 2.077 1_655 S
O28 C31 1.381 . S
O29 Fe0 1.935 1_656 S
O29 C31 1.421 . S
C30 O18 1.381 . S
C30 O19 1.421 . S
C31 O28 1.381 . S
C31 O29 1.421 . S
Fe32 O33 1.886 . S
Fe32 O36 1.715 . S
Fe32 O41 2.077 . S
Fe32 O46 1.935 . S
Fe32 O52 2.077 . S
Fe32 O61 1.935 . S
O33 Fe32 1.886 . S
O33 Fe35 1.715 . S
Fe34 O36 1.886 . S
Fe34 O37 1.715 . S
Fe34 O44 1.935 . S
Fe34 O45 2.077 . S
Fe34 O51 1.935 . S
Fe34 O60 2.077 . S
Fe35 O33 1.715 . S
Fe35 O38 1.886 . S
Fe35 O42 1.935 . S
Fe35 O47 2.077 . S
Fe35 O53 1.935 . S
Fe35 O57 2.077 . S
O36 Fe32 1.715 . S
O36 Fe34 1.886 . S
O37 Fe34 1.715 . S
O37 Fe39 1.886 . S
O38 Fe35 1.886 . S
O38 Fe39 1.715 . S
Fe39 O37 1.886 . S
Fe39 O38 1.715 . S
Fe39 O43 2.077 . S
Fe39 O48 1.935 . S
Fe39 O50 2.077 . S
Fe39 O58 1.935 . S
C40 O52 1.381 . S
C40 O53 1.421 . S
O41 Fe32 2.077 . S
O41 C54 1.381 . S
O42 Fe35 1.935 . S
O42 C54 1.421 . S
O43 Fe39 2.077 . S
O43 C59 1.381 . S
O44 Fe34 1.935 . S
O44 C59 1.421 . S
O45 Fe34 2.077 . S
O45 C49 1.381 . S
O46 Fe32 1.935 . S
O46 C49 1.421 . S
O47 Fe35 2.077 . S
O47 C55 1.381 . S
O48 Fe39 1.935 . S
O48 C55 1.421 . S
C49 O45 1.381 . S
C49 O46 1.421 . S
O50 Fe39 2.077 . S
O50 C62 1.381 . S
O51 Fe34 1.935 . S
O51 C62 1.421 . S
O52 Fe32 2.077 . S
O52 C40 1.381 . S
O53 Fe35 1.935 . S
O53 C40 1.421 . S
C54 O41 1.381 . S
C54 O42 1.421 . S
C55 O47 1.381 . S
C55 O48 1.421 . S
C56 O57 1.381 . S
C56 O58 1.421 . S
O57 Fe35 2.077 . S
O57 C56 1.381 . S
O58 Fe39 1.935 . S
O58 C56 1.421 . S
C59 O43 1.381 . S
C59 O44 1.421 . S
O60 Fe34 2.077 . S
O60 C63 1.381 . S
O61 Fe32 1.935 . S
O61 C63 1.421 . S
C62 O50 1.381 . S
C62 O51 1.421 . S
C63 O60 1.381 . S
C63 O61 1.421 . S
C64 C65 1.349 . S
C64 C66 1.327 . S
C64 H89 0.950 . S
C65 C64 1.349 . S
C65 C81 1.349 . S
C66 C64 1.327 . S
C66 C85 1.429 . S
C66 H90 0.950 . S
C67 C84 1.574 . S
C67 C86 1.368 . S
C67 H91 0.949 . S
H68 C72 0.949 . S
C69 C70 1.349 . S
C69 C71 1.327 . S
C69 H92 0.950 . S
C70 C69 1.349 . S
C70 C82 1.349 . S
C71 C69 1.327 . S
C71 C87 1.429 . S
C71 H93 0.950 . S
C72 H68 0.949 . S
C72 C80 1.574 . S
C72 C88 1.368 . S
H73 C81 0.950 . S
H74 C79 0.950 . S
H75 C80 0.949 . S
H76 C82 0.950 . S
H77 C83 0.950 . S
H78 C84 0.949 . S
C79 H74 0.950 . S
C79 C81 1.327 . S
C79 C85 1.429 . S
C80 C72 1.574 . S
C80 H75 0.949 . S
C80 C86 1.368 . S
C81 C65 1.349 . S
C81 H73 0.950 . S
C81 C79 1.327 . S
C82 C70 1.349 . S
C82 H76 0.950 . S
C82 C83 1.327 . S
C83 H77 0.950 . S
C83 C82 1.327 . S
C83 C87 1.429 . S
C84 C67 1.574 . S
C84 H78 0.949 . S
C84 C88 1.368 . S
C85 C66 1.429 . S
C85 C79 1.429 . S
C85 C86 1.523 . S
C86 C67 1.368 . S
C86 C80 1.368 . S
C86 C85 1.523 . S
C87 C71 1.429 . S
C87 C83 1.429 . S
C87 C88 1.523 . S
C88 C72 1.368 . S
C88 C84 1.368 . S
C88 C87 1.523 . S
H89 C64 0.950 . S
H90 C66 0.950 . S
H91 C67 0.949 . S
H92 C69 0.950 . S
H93 C71 0.950 . S
C94 C95 1.349 . S
C94 C96 1.327 . S
C94 H119 0.950 . S
C95 C94 1.349 . S
C95 C111 1.349 . S
C96 C94 1.327 . S
C96 C115 1.429 . S
C96 H120 0.950 . S
C97 C114 1.574 . S
C97 C116 1.368 . S
C97 H121 0.949 . S
H98 C102 0.949 . S
C99 C100 1.349 . S
C99 C101 1.327 . S
C99 H122 0.950 . S
C100 C99 1.349 . S
C100 C112 1.349 . S
C101 C99 1.327 . S
C101 C117 1.429 . S
C101 H123 0.950 . S
C102 H98 0.949 . S
C102 C110 1.574 . S
C102 C118 1.368 . S
H103 C111 0.950 . S
H104 C109 0.950 . S
H105 C110 0.949 . S
H106 C112 0.950 . S
H107 C113 0.950 . S
H108 C114 0.949 . S
C109 H104 0.950 . S
C109 C111 1.327 . S
C109 C115 1.429 . S
C110 C102 1.574 . S
C110 H105 0.949 . S
C110 C116 1.368 . S
C111 C95 1.349 . S
C111 H103 0.950 . S
C111 C109 1.327 . S
C112 C100 1.349 . S
C112 H106 0.950 . S
C112 C113 1.327 . S
C113 H107 0.950 . S
C113 C112 1.327 . S
C113 C117 1.429 . S
C114 C97 1.574 . S
C114 H108 0.949 . S
C114 C118 1.368 . S
C115 C96 1.429 . S
C115 C109 1.429 . S
C115 C116 1.523 . S
C116 C97 1.368 . S
C116 C110 1.368 . S
C116 C115 1.523 . S
C117 C101 1.429 . S
C117 C113 1.429 . S
C117 C118 1.523 . S
C118 C102 1.368 . S
C118 C114 1.368 . S
C118 C117 1.523 . S
H119 C94 0.950 . S
H120 C96 0.950 . S
H121 C97 0.949 . S
H122 C99 0.950 . S
H123 C101 0.950 . S
C124 C125 1.349 . S
C124 C126 1.327 . S
C124 H149 0.950 . S
C125 C124 1.349 . S
C125 C141 1.349 . S
C126 C124 1.327 . S
C126 C145 1.429 . S
C126 H150 0.950 . S
C127 C144 1.574 . S
C127 C146 1.368 . S
C127 H151 0.949 . S
H128 C132 0.949 . S
C129 C130 1.349 . S
C129 C131 1.327 . S
C129 H152 0.950 . S
C130 C129 1.349 . S
C130 C142 1.349 . S
C131 C129 1.327 . S
C131 C147 1.429 . S
C131 H153 0.950 . S
C132 H128 0.949 . S
C132 C140 1.574 . S
C132 C148 1.368 . S
H133 C141 0.950 . S
H134 C139 0.950 . S
H135 C140 0.949 . S
H136 C142 0.950 . S
H137 C143 0.950 . S
H138 C144 0.949 . S
C139 H134 0.950 . S
C139 C141 1.327 . S
C139 C145 1.429 . S
C140 C132 1.574 . S
C140 H135 0.949 . S
C140 C146 1.368 . S
C141 C125 1.349 . S
C141 H133 0.950 . S
C141 C139 1.327 . S
C142 C130 1.349 . S
C142 H136 0.950 . S
C142 C143 1.327 . S
C143 H137 0.950 . S
C143 C142 1.327 . S
C143 C147 1.429 . S
C144 C127 1.574 . S
C144 H138 0.949 . S
C144 C148 1.368 . S
C145 C126 1.429 . S
C145 C139 1.429 . S
C145 C146 1.523 . S
C146 C127 1.368 . S
C146 C140 1.368 . S
C146 C145 1.523 . S
C147 C131 1.429 . S
C147 C143 1.429 . S
C147 C148 1.523 . S
C148 C132 1.368 . S
C148 C144 1.368 . S
C148 C147 1.523 . S
H149 C124 0.950 . S
H150 C126 0.950 . S
H151 C127 0.949 . S
H152 C129 0.950 . S
H153 C131 0.950 . S
C154 C155 1.349 . S
C154 C156 1.327 . S
C154 H179 0.950 . S
C155 C154 1.349 . S
C155 C171 1.349 . S
C156 C154 1.327 . S
C156 C175 1.429 . S
C156 H180 0.950 . S
C157 C174 1.574 . S
C157 C176 1.368 . S
C157 H181 0.949 . S
H158 C162 0.949 . S
C159 C160 1.349 . S
C159 C161 1.327 . S
C159 H182 0.950 . S
C160 C159 1.349 . S
C160 C172 1.349 . S
C161 C159 1.327 . S
C161 C177 1.429 . S
C161 H183 0.950 . S
C162 H158 0.949 . S
C162 C170 1.574 . S
C162 C178 1.368 . S
H163 C171 0.950 . S
H164 C169 0.950 . S
H165 C170 0.949 . S
H166 C172 0.950 . S
H167 C173 0.950 . S
H168 C174 0.949 . S
C169 H164 0.950 . S
C169 C171 1.327 . S
C169 C175 1.429 . S
C170 C162 1.574 . S
C170 H165 0.949 . S
C170 C176 1.368 . S
C171 C155 1.349 . S
C171 H163 0.950 . S
C171 C169 1.327 . S
C172 C160 1.349 . S
C172 H166 0.950 . S
C172 C173 1.327 . S
C173 H167 0.950 . S
C173 C172 1.327 . S
C173 C177 1.429 . S
C174 C157 1.574 . S
C174 H168 0.949 . S
C174 C178 1.368 . S
C175 C156 1.429 . S
C175 C169 1.429 . S
C175 C176 1.523 . S
C176 C157 1.368 . S
C176 C170 1.368 . S
C176 C175 1.523 . S
C177 C161 1.429 . S
C177 C173 1.429 . S
C177 C178 1.523 . S
C178 C162 1.368 . S
C178 C174 1.368 . S
C178 C177 1.523 . S
H179 C154 0.950 . S
H180 C156 0.950 . S
H181 C157 0.949 . S
H182 C159 0.950 . S
H183 C161 0.950 . S
C184 C185 1.349 . S
C184 C186 1.327 . S
C184 H209 0.950 . S
C185 C184 1.349 . S
C185 C201 1.349 . S
C186 C184 1.327 . S
C186 C205 1.429 . S
C186 H210 0.950 . S
C187 C204 1.574 . S
C187 C206 1.368 . S
C187 H211 0.949 . S
H188 C192 0.949 . S
C189 C190 1.349 . S
C189 C191 1.327 . S
C189 H212 0.950 . S
C190 C189 1.349 . S
C190 C202 1.349 . S
C191 C189 1.327 . S
C191 C207 1.429 . S
C191 H213 0.950 . S
C192 H188 0.949 . S
C192 C200 1.574 . S
C192 C208 1.368 . S
H193 C201 0.950 . S
H194 C199 0.950 . S
H195 C200 0.949 . S
H196 C202 0.950 . S
H197 C203 0.950 . S
H198 C204 0.949 . S
C199 H194 0.950 . S
C199 C201 1.327 . S
C199 C205 1.429 . S
C200 C192 1.574 . S
C200 H195 0.949 . S
C200 C206 1.368 . S
C201 C185 1.349 . S
C201 H193 0.950 . S
C201 C199 1.327 . S
C202 C190 1.349 . S
C202 H196 0.950 . S
C202 C203 1.327 . S
C203 H197 0.950 . S
C203 C202 1.327 . S
C203 C207 1.429 . S
C204 C187 1.574 . S
C204 H198 0.949 . S
C204 C208 1.368 . S
C205 C186 1.429 . S
C205 C199 1.429 . S
C205 C206 1.523 . S
C206 C187 1.368 . S
C206 C200 1.368 . S
C206 C205 1.523 . S
C207 C191 1.429 . S
C207 C203 1.429 . S
C207 C208 1.523 . S
C208 C192 1.368 . S
C208 C204 1.368 . S
C208 C207 1.523 . S
H209 C184 0.950 . S
H210 C186 0.950 . S
H211 C187 0.949 . S
H212 C189 0.950 . S
H213 C191 0.950 . S
C214 C215 1.349 . S
C214 C216 1.327 . S
C214 H239 0.950 . S
C215 C214 1.349 . S
C215 C231 1.349 . S
C216 C214 1.327 . S
C216 C235 1.429 . S
C216 H240 0.950 . S
C217 C234 1.574 . S
C217 C236 1.368 . S
C217 H241 0.949 . S
H218 C222 0.949 . S
C219 C220 1.349 . S
C219 C221 1.327 . S
C219 H242 0.950 . S
C220 C219 1.349 . S
C220 C232 1.349 . S
C221 C219 1.327 . S
C221 C237 1.429 . S
C221 H243 0.950 . S
C222 H218 0.949 . S
C222 C230 1.574 . S
C222 C238 1.368 . S
H223 C231 0.950 . S
H224 C229 0.950 . S
H225 C230 0.949 . S
H226 C232 0.950 . S
H227 C233 0.950 . S
H228 C234 0.949 . S
C229 H224 0.950 . S
C229 C231 1.327 . S
C229 C235 1.429 . S
C230 C222 1.574 . S
C230 H225 0.949 . S
C230 C236 1.368 . S
C231 C215 1.349 . S
C231 H223 0.950 . S
C231 C229 1.327 . S
C232 C220 1.349 . S
C232 H226 0.950 . S
C232 C233 1.327 . S
C233 H227 0.950 . S
C233 C232 1.327 . S
C233 C237 1.429 . S
C234 C217 1.574 . S
C234 H228 0.949 . S
C234 C238 1.368 . S
C235 C216 1.429 . S
C235 C229 1.429 . S
C235 C236 1.523 . S
C236 C217 1.368 . S
C236 C230 1.368 . S
C236 C235 1.523 . S
C237 C221 1.429 . S
C237 C233 1.429 . S
C237 C238 1.523 . S
C238 C222 1.368 . S
C238 C234 1.368 . S
C238 C237 1.523 . S
H239 C214 0.950 . S
H240 C216 0.950 . S
H241 C217 0.949 . S
H242 C219 0.950 . S
H243 C221 0.950 . S
C244 C245 1.349 . S
C244 C246 1.327 . S
C244 H269 0.950 . S
C245 C244 1.349 . S
C245 C261 1.349 . S
C246 C244 1.327 . S
C246 C265 1.429 . S
C246 H270 0.950 . S
C247 C264 1.574 . S
C247 C266 1.368 . S
C247 H271 0.949 . S
H248 C252 0.949 . S
C249 C250 1.349 . S
C249 C251 1.327 . S
C249 H272 0.950 . S
C250 C249 1.349 . S
C250 C262 1.349 . S
C251 C249 1.327 . S
C251 C267 1.429 . S
C251 H273 0.950 . S
C252 H248 0.949 . S
C252 C260 1.574 . S
C252 C268 1.368 . S
H253 C261 0.950 . S
H254 C259 0.950 . S
H255 C260 0.949 . S
H256 C262 0.950 . S
H257 C263 0.950 . S
H258 C264 0.949 . S
C259 H254 0.950 . S
C259 C261 1.327 . S
C259 C265 1.429 . S
C260 C252 1.574 . S
C260 H255 0.949 . S
C260 C266 1.368 . S
C261 C245 1.349 . S
C261 H253 0.950 . S
C261 C259 1.327 . S
C262 C250 1.349 . S
C262 H256 0.950 . S
C262 C263 1.327 . S
C263 H257 0.950 . S
C263 C262 1.327 . S
C263 C267 1.429 . S
C264 C247 1.574 . S
C264 H258 0.949 . S
C264 C268 1.368 . S
C265 C246 1.429 . S
C265 C259 1.429 . S
C265 C266 1.523 . S
C266 C247 1.368 . S
C266 C260 1.368 . S
C266 C265 1.523 . S
C267 C251 1.429 . S
C267 C263 1.429 . S
C267 C268 1.523 . S
C268 C252 1.368 . S
C268 C264 1.368 . S
C268 C267 1.523 . S
H269 C244 0.950 . S
H270 C246 0.950 . S
H271 C247 0.949 . S
H272 C249 0.950 . S
H273 C251 0.950 . S
C274 C275 1.349 . S
C274 C276 1.327 . S
C274 H299 0.950 . S
C275 C274 1.349 . S
C275 C291 1.349 . S
C276 C274 1.327 . S
C276 C295 1.429 . S
C276 H300 0.950 . S
C277 C294 1.574 . S
C277 C296 1.368 . S
C277 H301 0.949 . S
H278 C282 0.949 . S
C279 C280 1.349 . S
C279 C281 1.327 . S
C279 H302 0.950 . S
C280 C279 1.349 . S
C280 C292 1.349 . S
C281 C279 1.327 . S
C281 C297 1.429 . S
C281 H303 0.950 . S
C282 H278 0.949 . S
C282 C290 1.574 . S
C282 C298 1.368 . S
H283 C291 0.950 . S
H284 C289 0.950 . S
H285 C290 0.949 . S
H286 C292 0.950 . S
H287 C293 0.950 . S
H288 C294 0.949 . S
C289 H284 0.950 . S
C289 C291 1.327 . S
C289 C295 1.429 . S
C290 C282 1.574 . S
C290 H285 0.949 . S
C290 C296 1.368 . S
C291 C275 1.349 . S
C291 H283 0.950 . S
C291 C289 1.327 . S
C292 C280 1.349 . S
C292 H286 0.950 . S
C292 C293 1.327 . S
C293 H287 0.950 . S
C293 C292 1.327 . S
C293 C297 1.429 . S
C294 C277 1.574 . S
C294 H288 0.949 . S
C294 C298 1.368 . S
C295 C276 1.429 . S
C295 C289 1.429 . S
C295 C296 1.523 . S
C296 C277 1.368 . S
C296 C290 1.368 . S
C296 C295 1.523 . S
C297 C281 1.429 . S
C297 C293 1.429 . S
C297 C298 1.523 . S
C298 C282 1.368 . S
C298 C294 1.368 . S
C298 C297 1.523 . S
H299 C274 0.950 . S
H300 C276 0.950 . S
H301 C277 0.949 . S
H302 C279 0.950 . S
H303 C281 0.950 . S
C65 C23 1.452 . S
C70 C55 1.447 . S
C95 C24 1.452 . S
C100 C59 1.450 . S
C125 C8 1.452 . S
C130 C49 1.452 . S
C155 C22 1.452 . S
C160 C54 1.450 . S
C185 C17 1.452 . S
C190 C40 1.454 . S
C215 C56 1.452 . S
C220 C27 1.450 . S
C245 C30 1.452 . S
C250 C62 1.454 . S
C275 C63 1.451 . S
C280 C31 1.456 . S
