# Generated by pormake.
# Topology wkj, (6)-cn, num edge types: 1
# Building blocks:
#     Node 0, Type 0, BuildingBlock: JUFBIX_clean_sbu_0, # of connection points: 6
#     Node 1, Type 0, BuildingBlock: JUFBIX_clean_sbu_0, # of connection points: 6
#     Node 2, Type 0, BuildingBlock: JUFBIX_clean_sbu_0, # of connection points: 6
#     Node 3, Type 0, BuildingBlock: JUFBIX_clean_sbu_0, # of connection points: 6
#     Node 4, Type 0, BuildingBlock: JUFBIX_clean_sbu_0, # of connection points: 6
#     Node 5, Type 0, BuildingBlock: JUFBIX_clean_sbu_0, # of connection points: 6
#     Node 6, Type 0, BuildingBlock: JUFBIX_clean_sbu_0, # of connection points: 6
#     Node 7, Type 0, BuildingBlock: JUFBIX_clean_sbu_0, # of connection points: 6
#     Node 8, Type 0, BuildingBlock: JUFBIX_clean_sbu_0, # of connection points: 6
#     Node 9, Type 0, BuildingBlock: JUFBIX_clean_sbu_0, # of connection points: 6
#     Node 10, Type 0, BuildingBlock: JUFBIX_clean_sbu_0, # of connection points: 6
#     Node 11, Type 0, BuildingBlock: JUFBIX_clean_sbu_0, # of connection points: 6
#     Edge 12, Type (0, 0), BuildingBlock: OJICUG_clean_linker_0, # of connection points: 2
#     Edge 13, Type (0, 0), BuildingBlock: OJICUG_clean_linker_0, # of connection points: 2
#     Edge 14, Type (0, 0), BuildingBlock: OJICUG_clean_linker_0, # of connection points: 2
#     Edge 15, Type (0, 0), BuildingBlock: OJICUG_clean_linker_0, # of connection points: 2
#     Edge 16, Type (0, 0), BuildingBlock: OJICUG_clean_linker_0, # of connection points: 2
#     Edge 17, Type (0, 0), BuildingBlock: OJICUG_clean_linker_0, # of connection points: 2
#     Edge 18, Type (0, 0), BuildingBlock: OJICUG_clean_linker_0, # of connection points: 2
#     Edge 19, Type (0, 0), BuildingBlock: OJICUG_clean_linker_0, # of connection points: 2
#     Edge 20, Type (0, 0), BuildingBlock: OJICUG_clean_linker_0, # of connection points: 2
#     Edge 21, Type (0, 0), BuildingBlock: OJICUG_clean_linker_0, # of connection points: 2
#     Edge 22, Type (0, 0), BuildingBlock: OJICUG_clean_linker_0, # of connection points: 2
#     Edge 23, Type (0, 0), BuildingBlock: OJICUG_clean_linker_0, # of connection points: 2
#     Edge 24, Type (0, 0), BuildingBlock: OJICUG_clean_linker_0, # of connection points: 2
#     Edge 25, Type (0, 0), BuildingBlock: OJICUG_clean_linker_0, # of connection points: 2
#     Edge 26, Type (0, 0), BuildingBlock: OJICUG_clean_linker_0, # of connection points: 2
#     Edge 27, Type (0, 0), BuildingBlock: OJICUG_clean_linker_0, # of connection points: 2
#     Edge 28, Type (0, 0), BuildingBlock: OJICUG_clean_linker_0, # of connection points: 2
#     Edge 29, Type (0, 0), BuildingBlock: OJICUG_clean_linker_0, # of connection points: 2
#     Edge 30, Type (0, 0), BuildingBlock: OJICUG_clean_linker_0, # of connection points: 2
#     Edge 31, Type (0, 0), BuildingBlock: OJICUG_clean_linker_0, # of connection points: 2
#     Edge 32, Type (0, 0), BuildingBlock: OJICUG_clean_linker_0, # of connection points: 2
#     Edge 33, Type (0, 0), BuildingBlock: OJICUG_clean_linker_0, # of connection points: 2
#     Edge 34, Type (0, 0), BuildingBlock: OJICUG_clean_linker_0, # of connection points: 2
#     Edge 35, Type (0, 0), BuildingBlock: OJICUG_clean_linker_0, # of connection points: 2
#     Edge 36, Type (0, 0), BuildingBlock: OJICUG_clean_linker_0, # of connection points: 2
#     Edge 37, Type (0, 0), BuildingBlock: OJICUG_clean_linker_0, # of connection points: 2
#     Edge 38, Type (0, 0), BuildingBlock: OJICUG_clean_linker_0, # of connection points: 2
#     Edge 39, Type (0, 0), BuildingBlock: OJICUG_clean_linker_0, # of connection points: 2
#     Edge 40, Type (0, 0), BuildingBlock: OJICUG_clean_linker_0, # of connection points: 2
#     Edge 41, Type (0, 0), BuildingBlock: OJICUG_clean_linker_0, # of connection points: 2
#     Edge 42, Type (0, 0), BuildingBlock: OJICUG_clean_linker_0, # of connection points: 2
#     Edge 43, Type (0, 0), BuildingBlock: OJICUG_clean_linker_0, # of connection points: 2
#     Edge 44, Type (0, 0), BuildingBlock: OJICUG_clean_linker_0, # of connection points: 2
#     Edge 45, Type (0, 0), BuildingBlock: OJICUG_clean_linker_0, # of connection points: 2
#     Edge 46, Type (0, 0), BuildingBlock: OJICUG_clean_linker_0, # of connection points: 2
#     Edge 47, Type (0, 0), BuildingBlock: OJICUG_clean_linker_0, # of connection points: 2
# Relax obj value: 0.899
# Max RMSD: 0.266
# Mean RMSD: 0.262
data_MOF--net-wkj--node1-JUFBIX_clean_sbu_0--edge1-OJICUG_clean_linker_0
_symmetry_space_group_name_H-M    P1
_symmetry_Int_Tables_number       1
_symmetry_cell_setting            triclinic
loop_
_symmetry_equiv_pos_as_xyz
'x, y, z'
_cell_length_a     38.005655
_cell_length_b     37.799542
_cell_length_c     19.356397
_cell_angle_alpha  90.159656
_cell_angle_beta   89.653138
_cell_angle_gamma 120.08899
loop_
_atom_site_label
_atom_site_type_symbol
_atom_site_fract_x
_atom_site_fract_y
_atom_site_fract_z
_atom_type_partial_charge
Co0 Co 0.39794 0.05475 0.21857 0.0
C1 C 0.44447 0.03081 0.28735 0.0
Co2 Co 0.44818 0.10259 0.27317 0.0
C3 C 0.34984 0.02015 0.10316 0.0
C4 C 0.32904 0.9766 0.18568 0.0
N5 N 0.35684 0.01535 0.16915 0.0
N6 N 0.32005 0.98546 0.07584 0.0
C7 C 0.30636 0.95795 0.12787 0.0
H8 H 0.3686 0.04784 0.07403 0.0
H9 H 0.32713 0.96231 0.23499 0.0
C10 C 0.39986 0.12818 0.21267 0.0
N11 N 0.48845 0.14342 0.32341 0.0
C12 C 0.49602 0.13987 0.38963 0.0
C13 C 0.51322 0.18323 0.30752 0.0
N14 N 0.52373 0.17583 0.41676 0.0
C15 C 0.5354 0.20337 0.36527 0.0
C16 C 0.47231 0.09564 0.13966 0.0
O17 O 0.3833 0.09327 0.1846 0.0
O18 O 0.42844 0.13791 0.25476 0.0
O19 O 0.48376 0.12073 0.19025 0.0
O20 O 0.43589 0.06571 0.14132 0.0
O21 O 0.46767 0.06887 0.29396 0.0
H22 H 0.51415 0.19684 0.25796 0.0
H23 H 0.48129 0.11122 0.41764 0.0
O24 O 0.4117 0.01701 0.2535 0.0
O25 O 0.36101 0.04091 0.29461 0.0
O26 O 0.41324 0.08101 0.3574 0.0
C27 C 0.37633 0.05197 0.35423 0.0
H28 H 0.28465 0.92564 0.12261 0.0
H29 H 0.55746 0.23562 0.3696 0.0
Co30 Co 0.3288 0.41094 0.66886 0.0
C31 C 0.39951 0.46916 0.72573 0.0
Co32 Co 0.32424 0.4587 0.72531 0.0
C33 C 0.30682 0.34777 0.57322 0.0
C34 C 0.3462 0.34535 0.64867 0.0
N35 N 0.33117 0.36881 0.62583 0.0
N36 N 0.30382 0.31106 0.56435 0.0
C37 C 0.32955 0.30973 0.61047 0.0
H38 H 0.291 0.35916 0.54238 0.0
H39 H 0.36637 0.35274 0.69219 0.0
C40 C 0.25235 0.40235 0.66303 0.0
N41 N 0.31976 0.49986 0.76976 0.0
C42 C 0.33702 0.51888 0.82954 0.0
C43 C 0.30314 0.52124 0.7436 0.0
N44 N 0.33221 0.55141 0.84115 0.0
C45 C 0.31132 0.5534 0.78702 0.0
C46 C 0.34595 0.47717 0.58194 0.0
O47 O 0.2737 0.38734 0.64265 0.0
O48 O 0.26739 0.43136 0.70659 0.0
O49 O 0.33547 0.4889 0.63659 0.0
O50 O 0.34489 0.44296 0.58424 0.0
O51 O 0.37952 0.48638 0.74205 0.0
H52 H 0.28802 0.51519 0.6942 0.0
H53 H 0.35528 0.51086 0.86149 0.0
O54 O 0.38273 0.43521 0.69397 0.0
O55 O 0.31524 0.37954 0.75154 0.0
O56 O 0.31665 0.42834 0.81395 0.0
C57 C 0.31653 0.39433 0.81093 0.0
H58 H 0.3355 0.28477 0.61673 0.0
H59 H 0.30419 0.57738 0.77813 0.0
Co60 Co 0.90624 0.33773 0.88598 0.0
C61 C 0.931 0.41057 0.95231 0.0
Co62 Co 0.85981 0.3425 0.94252 0.0
C63 C 0.94233 0.32337 0.77259 0.0
C64 C -0.01533 0.34708 0.85606 0.0
N65 N 0.94592 0.33468 0.83895 0.0
N66 N -0.02215 0.33062 0.74541 0.0
C67 C 0.00456 0.34477 0.7981 0.0
H68 H 0.91518 0.31436 0.74254 0.0
H69 H -0.00171 0.36025 0.90534 0.0
C70 C 0.83391 0.26638 0.88412 0.0
N71 N 0.81723 0.34275 0.98643 0.0
C72 C 0.8184 0.36569 1.0401 0.0
C73 C 0.77758 0.32139 0.96801 0.0
N74 N 0.78128 0.35957 1.05564 0.0
C75 C 0.75514 0.3312 1.01173 0.0
C76 C 0.86649 0.36997 0.80534 0.0
O77 O 0.86851 0.28354 0.85542 0.0
O78 O 0.82498 0.28672 0.92497 0.0
O79 O 0.84362 0.35936 0.85861 0.0
O80 O 0.89515 0.36175 0.80468 0.0
O81 O 0.89337 0.39615 0.96196 0.0
H82 H 0.7657 0.30013 0.9253 0.0
H83 H 0.84576 0.38592 0.06833 0.0
O84 O 0.94363 0.39065 0.91734 0.0
O85 O 0.91968 0.31728 0.96641 0.0
O86 O 0.87945 0.33026 1.02895 0.0
C87 C 0.90866 0.32256 1.02594 0.0
H88 H 0.03709 0.35746 0.79302 0.0
H89 H 0.72252 0.31862 1.01166 0.0
Co90 Co 0.55653 0.91868 0.33181 0.0
C91 C 0.49927 0.93262 0.38867 0.0
Co92 Co 0.50839 0.86656 0.38809 0.0
C93 C 0.61991 0.95901 0.23615 0.0
C94 C 0.62267 0.00161 0.31139 0.0
N95 N 0.59916 0.96284 0.28905 0.0
N96 N 0.65635 -0.00725 0.22625 0.0
C97 C 0.65791 0.02027 0.27236 0.0
H98 H 0.60829 0.93152 0.20536 0.0
H99 H 0.6154 0.01493 0.35467 0.0
C100 C 0.56388 0.84961 0.3258 0.0
N101 N 0.46678 0.82104 0.43196 0.0
C102 C 0.44804 0.81909 0.49237 0.0
C103 C 0.44523 0.78308 0.40489 0.0
N104 N 0.41552 0.78167 0.50347 0.0
C105 C 0.41327 0.75894 0.4484 0.0
C106 C 0.49072 0.8699 0.24463 0.0
O107 O 0.57948 0.88622 0.30587 0.0
O108 O 0.53483 0.83603 0.3692 0.0
O109 O 0.47875 0.84793 0.29941 0.0
O110 O 0.52505 0.90286 0.24663 0.0
O111 O 0.4817 0.89527 0.40509 0.0
H112 H 0.4512 0.77407 0.35506 0.0
H113 H 0.45641 0.84527 0.52542 0.0
O114 O 0.53301 0.94926 0.35652 0.0
O115 O 0.58717 0.93649 0.41525 0.0
O116 O 0.53803 0.88889 0.47677 0.0
C117 C 0.57179 0.92293 0.47437 0.0
H118 H 0.68262 0.05143 0.27764 0.0
H119 H 0.3894 0.72776 0.43921 0.0
Co120 Co 0.62 0.55824 0.54706 0.0
C121 C 0.54901 0.51516 0.62027 0.0
Co122 Co 0.61387 0.50697 0.60603 0.0
C123 C 0.63529 0.60662 0.43028 0.0
C124 C 0.615 0.62939 0.51362 0.0
N125 N 0.62396 0.60022 0.49677 0.0
N126 N 0.63193 0.63737 0.40311 0.0
C127 C 0.61973 0.6523 0.45567 0.0
H128 H 0.64265 0.58678 0.40077 0.0
H129 H 0.60335 0.63207 0.56332 0.0
C130 C 0.6883 0.55175 0.54051 0.0
N131 N 0.61295 0.46599 0.65614 0.0
C132 C 0.60529 0.46024 0.72387 0.0
C133 C 0.62446 0.43884 0.6372 0.0
N134 N 0.61235 0.4313 0.74881 0.0
C135 C 0.62375 0.417 0.69455 0.0
C136 C 0.58273 0.48241 0.47235 0.0
O137 O 0.67304 0.5718 0.51518 0.0
O138 O 0.66745 0.52268 0.58143 0.0
O139 O 0.59177 0.46997 0.52693 0.0
O140 O 0.59405 0.52036 0.46867 0.0
O141 O 0.56249 0.49134 0.63219 0.0
H142 H 0.63387 0.43601 0.58561 0.0
H143 H 0.59453 0.47698 0.75443 0.0
O144 O 0.56826 0.5456 0.58027 0.0
O145 O 0.64244 0.59506 0.62365 0.0
O146 O 0.63167 0.54353 0.68806 0.0
C147 C 0.63926 0.58043 0.68376 0.0
H148 H 0.61051 0.67504 0.45078 0.0
H149 H 0.63159 0.39316 0.69654 0.0
Co150 Co 0.04665 0.6336 1.00416 0.0
C151 C 0.03299 0.56158 0.06022 0.0
Co152 Co 0.09783 0.63685 0.06058 0.0
C153 C 0.0037 0.65538 0.91143 0.0
C154 C 0.96313 0.61215 0.98527 0.0
N155 N 0.00201 0.63081 0.96273 0.0
N156 N 0.96806 0.65428 0.9022 0.0
C157 C 0.94206 0.62639 0.94782 0.0
H158 H 0.03079 0.67356 0.88082 0.0
H159 H 0.95118 0.59051 1.02742 0.0
C160 C 0.11445 0.70983 0.99843 0.0
N161 N 0.14342 0.6416 0.10414 0.0
C162 C 0.1456 0.62404 0.16329 0.0
C163 C 0.18149 0.65972 0.07753 0.0
N164 N 0.18332 0.63023 0.17405 0.0
C165 C 0.20599 0.65226 0.12005 0.0
C166 C 0.09567 0.61684 0.9168 0.0
O167 O 0.07821 0.68898 0.97776 0.0
O168 O 0.12735 0.69413 1.04234 0.0
O169 O 0.11714 0.62657 0.97176 0.0
O170 O 0.06268 0.61795 0.91891 0.0
O171 O 0.07007 0.58101 0.07672 0.0
H172 H 0.19039 0.67565 1.02856 0.0
H173 H 0.11952 0.60491 0.1956 0.0
O174 O 0.01686 0.57933 1.0291 0.0
O175 O 0.02876 0.64674 0.08747 0.0
O176 O 0.07481 0.64358 0.14948 0.0
C177 C 0.04138 0.64418 0.14668 0.0
H178 H 0.91015 0.61675 0.9535 0.0
H179 H 0.23741 0.66086 0.11082 0.0
Co180 Co 0.91012 0.55749 0.51586 0.0
C181 C 0.94749 0.51887 0.45962 0.0
Co182 Co 0.87207 0.50532 0.45019 0.0
C183 C 0.92971 0.6149 0.62112 0.0
C184 C -0.02143 0.63677 0.54823 0.0
N185 N 0.9429 0.60355 0.56563 0.0
N186 N 0.95491 0.65418 0.63884 0.0
C187 C -0.0138 0.66796 0.59357 0.0
H188 H 0.90166 0.59434 0.64764 0.0
H189 H -0.00306 0.63874 0.50393 0.0
C190 C 0.83355 0.54654 0.49762 0.0
N191 N 0.83527 0.46013 0.40191 0.0
C192 C 0.83218 0.45413 0.33337 0.0
C193 C 0.79953 0.43023 0.42795 0.0
N194 N 0.79577 0.42218 0.31572 0.0
C195 C 0.77533 0.40666 0.37506 0.0
C196 C 0.87148 0.48448 0.5926 0.0
O197 O 0.86686 0.56913 0.52787 0.0
O198 O 0.82981 0.51663 0.46285 0.0
O199 O 0.85723 0.4714 0.53278 0.0
O200 O 0.89381 0.52311 0.60024 0.0
O201 O 0.91286 0.49426 0.43494 0.0
H202 H 0.79023 0.42731 0.48149 0.0
H203 H 0.85568 0.47353 0.297 0.0
O204 O 0.95211 0.54676 0.50169 0.0
O205 O 0.92918 0.59069 0.43365 0.0
O206 O 0.89112 0.53947 0.36613 0.0
C207 C 0.92041 0.5762 0.37293 0.0
H208 H 0.01276 0.69823 0.59316 0.0
H209 H 0.74449 0.38135 0.37964 0.0
Co210 Co 0.30647 0.85859 0.73 0.0
C211 C 0.24812 0.80911 0.82443 0.0
Co212 Co 0.33229 0.84103 0.82124 0.0
C213 C 0.31476 0.91725 0.62279 0.0
C214 C 0.26251 0.85887 0.60353 0.0
N215 N 0.2923 0.87879 0.64999 0.0
N216 N 0.30064 0.92214 0.56112 0.0
C217 C 0.26744 0.8851 0.54959 0.0
H218 H 0.34177 0.9411 0.64741 0.0
H219 H 0.23958 0.82687 0.60711 0.0
C220 C 0.38988 0.89063 0.73257 0.0
N221 N 0.35208 0.82635 0.90218 0.0
C222 C 0.38164 0.84893 0.94969 0.0
C223 C 0.3364 0.78765 0.92489 0.0
N224 N 0.38454 0.82567 1.00106 0.0
C225 C 0.3559 0.78711 0.98441 0.0
C226 C 0.31701 0.7918 0.70671 0.0
O227 O 0.36059 0.89008 0.70095 0.0
O228 O 0.38397 0.87136 0.78882 0.0
O229 O 0.32782 0.79636 0.77 0.0
O230 O 0.30352 0.81376 0.68081 0.0
O231 O 0.27915 0.81081 0.85243 0.0
H232 H 0.31192 0.76121 0.89984 0.0
H233 H 0.40016 0.8819 0.94727 0.0
O234 O 0.25121 0.8257 0.76508 0.0
O235 O 0.31027 0.90231 0.77973 0.0
O236 O 0.33651 0.88641 0.86775 0.0
C237 C 0.32444 0.90897 0.84027 0.0
H238 H 0.24866 0.87661 0.50394 0.0
H239 H 0.34943 0.75987 1.01281 0.0
Co240 Co 0.39528 0.34482 0.18329 0.0
C241 C 0.44047 0.42087 0.12862 0.0
Co242 Co 0.44619 0.3537 0.11872 0.0
C243 C 0.33761 0.31157 0.28795 0.0
C244 C 0.31735 0.3384 0.2126 0.0
N245 N 0.34988 0.33545 0.23173 0.0
N246 N 0.29838 0.29794 0.30395 0.0
C247 C 0.28561 0.31559 0.25762 0.0
H248 H 0.35726 0.30357 0.3157 0.0
H249 H 0.31604 0.35413 0.16699 0.0
C250 C 0.39795 0.27409 0.16518 0.0
N251 N 0.49074 0.35783 0.07416 0.0
C252 C 0.5117 0.37916 1.01846 0.0
C253 C 0.51017 0.33803 0.09563 0.0
N254 N 0.54285 0.37281 1.00446 0.0
C255 C 0.54195 0.34675 1.05205 0.0
C256 C 0.46614 0.37304 0.26196 0.0
O257 O 0.37918 0.28859 0.19772 0.0
O258 O 0.42795 0.29769 0.12825 0.0
O259 O 0.47845 0.36833 0.20322 0.0
O260 O 0.42846 0.36158 0.26813 0.0
O261 O 0.46344 0.40801 0.10625 0.0
H262 H 0.50168 0.31826 0.14035 0.0
H263 H 0.50394 0.39827 0.98807 0.0
O264 O 0.41032 0.39873 0.16763 0.0
O265 O 0.36367 0.3322 0.0996 0.0
O266 O 0.4149 0.34338 1.03292 0.0
C267 C 0.3789 0.33785 1.03917 0.0
H268 H 0.25553 0.31199 0.25586 0.0
H269 H 0.56276 0.33509 1.05482 0.0
Co270 Co 0.10479 0.44614 0.39883 0.0
C271 C 0.15199 0.43364 0.49172 0.0
Co272 Co 0.12501 0.49009 0.49006 0.0
C273 C 0.04462 0.39731 0.29177 0.0
C274 C 0.10088 0.39899 0.27301 0.0
N275 N 0.08263 0.41152 0.31878 0.0
N276 N 0.03844 0.37673 0.23097 0.0
C277 C 0.07419 0.37786 0.21978 0.0
H278 H 0.02198 0.40259 0.31611 0.0
H279 H 0.13206 0.40584 0.27681 0.0
C280 C 0.07839 0.50255 0.40279 0.0
N281 N 0.14122 0.52457 0.57103 0.0
C282 C 0.11893 0.5319 0.61887 0.0
C283 C 0.17964 0.54656 0.59424 0.0
N284 N 0.142 0.55731 0.67101 0.0
C285 C 0.18025 0.56641 0.65458 0.0
C286 C 0.17406 0.52152 0.37472 0.0
O287 O 0.07647 0.47232 0.37088 0.0
O288 O 0.09774 0.51469 0.45892 0.0
O289 O 0.17055 0.5285 0.43833 0.0
O290 O 0.1505 0.48615 0.34913 0.0
O291 O 0.15233 0.46418 0.52022 0.0
H292 H 0.20576 0.54786 0.56909 0.0
H293 H 0.08622 0.51815 0.61613 0.0
O294 O 0.13485 0.42052 0.43274 0.0
O295 O 0.06017 0.4079 0.44939 0.0
O296 O 0.07878 0.4508 0.53724 0.0
C297 C 0.05463 0.41633 0.51029 0.0
H298 H 0.08149 0.36558 0.17495 0.0
H299 H 0.20726 0.58639 0.68374 0.0
Co300 Co 0.61385 0.04793 0.84892 0.0
C301 C 0.5392 0.01769 0.79408 0.0
Co302 Co 0.60592 0.09187 0.78878 0.0
C303 C 0.64684 0.02301 0.95237 0.0
C304 C 0.62113 0.97645 0.8754 0.0
N305 N 0.62311 0.0115 0.89635 0.0
N306 N 0.66162 -0.00193 0.9659 0.0
C307 C 0.64459 0.96785 0.91875 0.0
H308 H 0.65429 0.05041 0.98129 0.0
H309 H 0.60592 0.95972 0.82927 0.0
C310 C 0.68434 0.12262 0.83528 0.0
N311 N 0.60133 0.13195 0.74387 0.0
C312 C 0.57957 0.13 0.68823 0.0
C313 C 0.62098 0.17182 0.76272 0.0
N314 N 0.58539 0.16713 0.67155 0.0
C315 C 0.61161 0.19369 0.71754 0.0
C316 C 0.58478 0.08993 0.93126 0.0
O317 O 0.6691 0.08891 0.86682 0.0
O318 O 0.6617 0.12973 0.79765 0.0
O319 O 0.59203 0.11022 0.87528 0.0
O320 O 0.59424 0.06194 0.93296 0.0
O321 O 0.55148 0.05441 0.7768 0.0
H322 H 0.64111 0.18431 0.80651 0.0
H323 H 0.56051 0.10219 0.6597 0.0
O324 O 0.56137 0.00862 0.83002 0.0
O325 O 0.62915 0.03101 0.76552 0.0
O326 O 0.61601 0.07052 0.70172 0.0
C327 C 0.62295 0.04073 0.7059 0.0
H328 H 0.64941 0.94202 0.91491 0.0
H329 H 0.62288 0.22628 0.71828 0.0
Co330 Co 0.51974 0.65576 0.06145 0.0
C331 C 0.53165 0.71611 0.15424 0.0
Co332 Co 0.47654 0.63213 0.15401 0.0
C333 C 0.56812 0.64452 0.95276 0.0
C334 C 0.56526 0.6987 0.93428 0.0
N335 N 0.55371 0.66825 0.98043 0.0
N336 N 0.58784 0.65861 0.89115 0.0
C337 C 0.58598 0.69299 0.88015 0.0
H338 H 0.56346 0.61679 0.97715 0.0
H339 H 0.55792 0.72283 0.9384 0.0
C340 C 0.46521 0.5724 0.06741 0.0
N341 N 0.44242 0.6141 0.23595 0.0
C342 C 0.43453 0.58445 0.2841 0.0
C343 C 0.4209 0.63125 0.25899 0.0
N344 N 0.40921 0.58283 0.33619 0.0
C345 C 0.4008 0.61246 0.31938 0.0
C346 C 0.44406 0.64858 1.03961 0.0
O347 O 0.49461 0.60081 1.03431 0.0
O348 O 0.45284 0.57985 0.12346 0.0
O349 O 0.43758 0.63824 0.10326 0.0
O350 O 0.47907 0.66036 1.01285 0.0
O351 O 0.5017 0.68576 0.18345 0.0
H352 H 0.42 0.65624 0.23358 0.0
H353 H 0.44772 0.5649 0.28154 0.0
O354 O 0.54453 0.7119 0.09487 0.0
O355 O 0.55847 0.65037 0.11069 0.0
O356 O 0.51646 0.62617 0.2 0.0
C357 C 0.55059 0.63659 0.17167 0.0
H358 H 0.59742 0.71226 0.83487 0.0
H359 H 0.38105 0.6201 0.34823 0.0
C360 C 0.39452 0.17476 0.12951 0.0
C361 C 0.388 0.15841 0.19619 0.0
H362 H 0.40308 0.22535 0.06757 0.0
C363 C 0.37823 0.17689 0.25024 0.0
H364 H 0.40267 0.16115 0.08755 0.0
C365 C 0.37752 0.21295 0.2387 0.0
C366 C 0.38799 0.23151 0.17349 0.0
H367 H 0.37352 0.16471 0.30224 0.0
H368 H 0.37225 0.22803 0.28192 0.0
C369 C 0.39501 0.21147 0.11838 0.0
C370 C 0.18919 0.40574 0.64945 0.0
C371 C 0.21712 0.39582 0.62141 0.0
H372 H 0.14543 0.42384 0.62931 0.0
C373 C 0.21706 0.38966 0.54929 0.0
H374 H 0.18841 0.4105 0.70454 0.0
C375 C 0.19303 0.39836 0.50546 0.0
C376 C 0.16861 0.41283 0.53361 0.0
H377 H 0.23855 0.38222 0.52607 0.0
H378 H 0.19628 0.39723 0.44999 0.0
C379 C 0.16492 0.41374 0.60606 0.0
C380 C 0.78586 0.21609 0.8008 0.0
C381 C 0.80239 0.22472 0.86724 0.0
H382 H 0.73441 0.17647 0.73887 0.0
C383 C 0.78263 0.19657 0.92092 0.0
H384 H 0.80038 0.2379 0.7592 0.0
C385 C 0.74543 0.16111 0.90916 0.0
C386 C 0.72704 0.15437 0.84421 0.0
H387 H 0.79483 0.20324 0.97281 0.0
H388 H 0.72964 0.14078 0.95203 0.0
C389 C 0.74808 0.1813 0.78952 0.0
C390 C 0.56672 0.7929 0.1677 0.0
C391 C 0.55224 0.75393 0.19594 0.0
H392 H 0.5832 0.85506 0.18832 0.0
C393 C 0.55148 0.74966 0.2684 0.0
H394 H 0.56775 0.79705 0.11223 0.0
C395 C 0.55977 0.78234 0.31179 0.0
C396 C 0.56985 0.82032 0.28377 0.0
H397 H 0.54141 0.72004 0.29176 0.0
H398 H 0.55519 0.77705 0.36695 0.0
C399 C 0.5757 0.82606 0.21154 0.0
C400 C 0.73104 0.53603 0.46573 0.0
C401 C 0.72837 0.55904 0.52001 0.0
H402 H 0.76671 0.51413 0.41613 0.0
C403 C 0.76178 0.58116 0.56359 0.0
H404 H 0.7051 0.51803 0.43275 0.0
C405 C 0.79719 0.57897 0.55447 0.0
C406 C 0.799 0.55386 0.50259 0.0
H407 H 0.75966 0.59829 0.60681 0.0
H408 H 0.82214 0.59505 0.59017 0.0
C409 C 0.76608 0.53345 0.45701 0.0
C410 C 0.17167 0.76863 0.84008 0.0
C411 C 0.21083 0.79151 0.86752 0.0
H412 H 0.10919 0.72503 0.86162 0.0
C413 C 0.21552 0.79443 0.93991 0.0
H414 H 0.16717 0.76618 0.7847 0.0
C415 C 0.18277 0.77114 0.98376 0.0
C416 C 0.14436 0.74473 0.95638 0.0
H417 H 0.24526 0.81291 0.96284 0.0
H418 H 0.1882 0.77144 1.03871 0.0
C419 C 0.13852 0.74539 0.8844 0.0
C420 C 0.5598 0.13046 1.00442 0.0
C421 C 0.55873 0.09338 0.98811 0.0
H422 H 0.53497 0.16102 0.06574 0.0
C423 C 0.52904 0.0579 1.02239 0.0
H424 H 0.58173 0.15846 0.97887 0.0
C425 C 0.50108 0.05909 0.06951 0.0
C426 C 0.50226 0.09602 0.0866 0.0
H427 H 0.52642 0.0286 1.01099 0.0
H428 H 0.47858 0.03077 0.09355 0.0
C429 C 0.53272 0.13192 1.05409 0.0
C430 C 0.39263 0.51831 0.40096 0.0
C431 C 0.39399 0.55629 0.3976 0.0
H432 H 0.37628 0.4638 0.45978 0.0
C433 C 0.37899 0.56747 0.4559 0.0
H434 H 0.40348 0.5081 0.3578 0.0
C435 C 0.36318 0.54192 0.51451 0.0
C436 C 0.3615 0.50388 0.51773 0.0
H437 H 0.37982 0.59648 0.45707 0.0
H438 H 0.35244 0.55225 0.55774 0.0
C439 C 0.37661 0.4926 0.45974 0.0
C440 C 0.87151 0.39313 0.68012 0.0
C441 C 0.86405 0.3971 0.75024 0.0
H442 H 0.87816 0.41624 0.57646 0.0
C443 C 0.85818 0.43012 0.76821 0.0
H444 H 0.87679 0.3687 0.66406 0.0
C445 C 0.86071 0.45868 0.71811 0.0
C446 C 0.86757 0.45426 0.6478 0.0
H447 H 0.85316 0.43483 0.82176 0.0
H448 H 0.85712 0.48413 0.73441 0.0
C449 C 0.87233 0.4206 0.62977 0.0
C450 C 0.44885 0.87464 0.06457 0.0
C451 C 0.41124 0.8377 0.0619 0.0
H452 H 0.50329 0.91346 0.12235 0.0
C453 C 0.40059 0.81172 0.12028 0.0
H454 H 0.45862 0.89557 1.02129 0.0
C455 C 0.42629 0.8219 0.17824 0.0
C456 C 0.46401 0.85851 0.1808 0.0
H457 H 0.37188 0.78334 0.12198 0.0
H458 H 0.41633 0.8009 0.22151 0.0
C459 C 0.47477 0.88476 0.12277 0.0
C460 C 0.53292 0.43502 0.29745 0.0
C461 C 0.49695 0.3988 0.31671 0.0
H462 H 0.58709 0.48987 0.33002 0.0
C463 C 0.49052 0.38978 0.38787 0.0
H464 H 0.53887 0.44356 0.24345 0.0
C465 C 0.51933 0.41572 0.43759 0.0
C466 C 0.55472 0.45253 0.41827 0.0
H467 H 0.46323 0.36259 0.40516 0.0
H468 H 0.51305 0.40774 0.49174 0.0
C469 C 0.56075 0.46177 0.34724 0.0
C470 C 0.0822 0.58744 0.79396 0.0
C471 C 0.10775 0.60229 0.85247 0.0
H472 H 0.07247 0.5616 0.69152 0.0
C473 C 0.14435 0.60141 0.84971 0.0
H474 H 0.0536 0.58721 0.79368 0.0
C475 C 0.15512 0.58656 0.79105 0.0
C476 C 0.12975 0.57175 0.73228 0.0
H477 H 0.16483 0.61205 0.89335 0.0
H478 H 0.18341 0.58628 0.79253 0.0
C479 C 0.09292 0.57235 0.73512 0.0
C480 C 0.35418 0.97324 0.90367 0.0
C481 C 0.31972 0.93723 0.88362 0.0
H482 H 0.38102 0.01825 0.98148 0.0
C483 C 0.28259 0.92317 0.91817 0.0
H484 H 0.38298 0.98394 0.87716 0.0
C485 C 0.28128 0.94232 0.9787 0.0
C486 C 0.3171 0.97547 1.00416 0.0
H487 H 0.25583 0.89496 0.90267 0.0
H488 H 0.25352 0.92893 1.00904 0.0
C489 C 0.35277 -0.00724 0.96338 0.0
C490 C 0.2969 0.25804 0.40451 0.0
C491 C 0.27894 0.27656 0.36649 0.0
H492 H 0.32092 0.25636 0.50299 0.0
C493 C 0.25194 0.28577 0.40068 0.0
H494 H 0.3149 0.24695 0.37886 0.0
C495 C 0.25314 0.28838 0.47241 0.0
C496 C 0.28276 0.28382 0.50828 0.0
H497 H 0.23535 0.29752 0.37289 0.0
H498 H 0.23655 0.30115 0.49779 0.0
C499 C 0.29995 0.26284 0.47593 0.0
C500 C -0.00757 0.38459 0.57982 0.0
C501 C 0.02655 0.38396 0.55501 0.0
H502 H 0.94896 0.36658 0.66066 0.0
C503 C 0.03934 0.35872 0.58542 0.0
H504 H -0.01713 0.40455 0.55696 0.0
C505 C 0.02056 0.33747 0.64562 0.0
C506 C -0.01126 0.34111 0.67467 0.0
H507 H 0.06626 0.35869 0.56662 0.0
H508 H 0.03289 0.32104 0.67254 0.0
C509 C 0.97315 0.36274 0.63901 0.0
C510 C 0.70181 0.03686 0.13501 0.0
C511 C 0.68249 -0.00115 0.16827 0.0
H512 H 0.71351 0.06678 1.03752 0.0
C513 C 0.6774 0.96438 0.13154 0.0
H514 H 0.70873 0.06458 0.16243 0.0
C515 C 0.67734 0.96504 0.05967 0.0
C516 C 0.68475 0.0009 1.02606 0.0
H517 H 0.66587 0.93519 0.15723 0.0
H518 H 0.66499 0.93633 1.03215 0.0
C519 C 0.70393 0.03792 0.0632 0.0
C520 C 0.62909 0.67705 0.30608 0.0
C521 C 0.62423 0.64028 0.33189 0.0
H522 H 0.60886 0.70439 0.23127 0.0
C523 C 0.60306 0.60415 0.29267 0.0
H524 H 0.64553 0.70511 0.33533 0.0
C525 C 0.58188 0.60366 0.23433 0.0
C526 C 0.58282 0.6394 0.21404 0.0
H527 H 0.59857 0.5752 0.31122 0.0
H528 H 0.56189 0.5748 0.20911 0.0
C529 C 0.60836 0.67662 0.24692 0.0
C530 C 0.9204 0.65138 0.81458 0.0
C531 C 0.95907 0.67215 0.84452 0.0
H532 H 0.88785 0.63228 0.72 0.0
C533 C -0.00861 0.70273 0.80567 0.0
H534 H 0.89406 0.62961 0.84385 0.0
C535 C -0.01151 0.70236 0.73405 0.0
C536 C 0.95262 0.67257 0.70254 0.0
H537 H 0.02083 0.72203 0.82889 0.0
H538 H 0.01593 0.72078 0.70437 0.0
C539 C 0.91705 0.65249 0.74318 0.0
C540 C 0.42814 0.96137 0.32314 0.0
C541 C 0.45343 0.00385 0.32684 0.0
H542 H 0.42275 0.90369 0.34594 0.0
C543 C 0.48738 0.021 0.37063 0.0
H544 H 0.40093 0.94762 0.29184 0.0
C545 C 0.49918 -0.00395 0.40246 0.0
C546 C 0.47713 0.95408 0.39035 0.0
H547 H 0.50639 0.05377 0.37693 0.0
H548 H 0.52793 0.00981 0.42963 0.0
C549 C 0.4399 0.93633 0.35561 0.0
C550 C 0.4629 0.47106 0.74563 0.0
C551 C 0.443 0.49197 0.72648 0.0
H552 H 0.51235 0.46163 0.72483 0.0
C553 C 0.46192 0.52623 0.68315 0.0
H554 H 0.44828 0.44459 0.77929 0.0
C555 C 0.49777 0.53513 0.64952 0.0
C556 C 0.51458 0.5101 0.66069 0.0
H557 H 0.44636 0.54241 0.66799 0.0
H558 H 0.51057 0.55951 0.61162 0.0
C559 C 0.49874 0.4801 0.71272 0.0
C560 C 0.94338 0.46311 1.03922 0.0
C561 C 0.95905 0.44624 0.99182 0.0
H562 H 0.95673 0.51382 0.10419 0.0
C563 C 0.00114 0.46233 0.98612 0.0
H564 H 0.91099 0.45032 1.04688 0.0
C565 C 0.02725 0.49814 1.02088 0.0
C566 C 0.011 0.51777 0.0602 0.0
H567 H 0.01379 0.44876 0.95196 0.0
H568 H 0.05957 0.51302 1.00983 0.0
C569 C 0.96938 0.49867 0.07379 0.0
C570 C 0.05548 0.55142 0.42046 0.0
C571 C 0.05021 0.51631 0.38663 0.0
H572 H 0.02603 0.57828 0.47504 0.0
C573 C 0.01191 0.48718 0.36195 0.0
H574 H 0.08527 0.57493 0.4376 0.0
C575 C -0.02198 0.48848 0.38469 0.0
C576 C -0.01716 0.51952 0.4302 0.0
H577 H 0.00746 0.46044 0.33382 0.0
H578 H 0.94819 0.46379 0.37044 0.0
C579 C 0.02167 0.55264 0.44359 0.0
C580 C 0.46163 0.91344 0.73708 0.0
C581 C 0.43098 0.92096 0.71558 0.0
H582 H 0.51974 0.93879 0.78342 0.0
C583 C 0.43913 0.96103 0.70517 0.0
H584 H 0.45568 0.88244 0.74392 0.0
C585 C 0.47534 -0.0067 0.72919 0.0
C586 C 0.50317 0.98511 0.76225 0.0
H587 H 0.41566 0.96717 0.68778 0.0
H588 H 0.48017 0.02406 0.72639 0.0
C589 C 0.49754 0.94548 0.76154 0.0
C590 C 0.4152 0.50062 0.07997 0.0
C591 C 0.45261 0.53038 1.05277 0.0
H592 H 0.38306 0.44297 0.12999 0.0
C593 C 0.483 0.52093 1.03738 0.0
H594 H 0.3912 0.50748 0.09069 0.0
C595 C 0.47883 0.4845 0.06117 0.0
C596 C 0.44404 0.45759 0.09906 0.0
H597 H 0.51196 0.54358 1.01557 0.0
H598 H 0.50379 0.4787 1.05382 0.0
C599 C 0.41115 0.46447 0.10426 0.0
C600 C 0.29628 0.96025 0.45831 0.0
C601 C 0.31855 0.95773 0.51444 0.0
H602 H 0.29619 -0.00837 0.36598 0.0
C603 C 0.35917 -0.00992 0.52142 0.0
H604 H 0.2649 0.93692 0.45075 0.0
C605 C 0.37712 0.02238 0.47262 0.0
C606 C 0.35522 0.02366 0.41488 0.0
H607 H 0.37785 -0.0102 0.56309 0.0
H608 H 0.40893 0.04523 0.47827 0.0
C609 C 0.31424 -0.00769 0.4096 0.0
C610 C 0.3413 0.37302 0.99471 0.0
C611 C 0.35894 0.34831 0.98139 0.0
H612 H 0.31504 0.40766 0.95326 0.0
C613 C 0.35984 0.33718 0.91251 0.0
H614 H 0.3405 0.38287 1.04695 0.0
C615 C 0.34361 0.35007 0.85913 0.0
C616 C 0.32742 0.37618 0.87166 0.0
H617 H 0.37327 0.31859 0.8997 0.0
H618 H 0.34528 0.3406 0.80711 0.0
C619 C 0.32653 0.38735 0.94081 0.0
C620 C 0.96666 0.31847 0.08255 0.0
C621 C 0.93685 0.33023 0.08654 0.0
H622 H 0.0207 0.32261 0.12412 0.0
C623 C 0.93975 0.35571 0.14242 0.0
H624 H 0.96613 0.29933 1.04036 0.0
C625 C 0.97207 0.37003 0.19068 0.0
C626 C 0.00283 0.35943 0.18496 0.0
H627 H 0.91823 0.36644 0.14691 0.0
H628 H 0.97365 0.3907 0.23087 0.0
C629 C -0.00132 0.3325 0.13069 0.0
C630 C 0.6236 0.0237 0.57792 0.0
C631 C 0.61373 0.01094 0.64683 0.0
H632 H 0.62026 0.00655 0.47168 0.0
C633 C 0.5915 0.96819 0.65916 0.0
H634 H 0.6402 0.05603 0.56578 0.0
C635 C 0.57848 0.93934 0.60455 0.0
C636 C 0.58855 0.95211 0.53547 0.0
H637 H 0.58255 0.95688 0.71131 0.0
H638 H 0.5601 0.9071 0.61645 0.0
C639 C 0.61201 -0.0051 0.52368 0.0
C640 C 0.62971 0.66199 0.78743 0.0
C641 C 0.60476 0.64 0.84423 0.0
H642 H 0.66064 0.66135 0.6945 0.0
C643 C 0.59569 0.599 0.85167 0.0
H644 H 0.6384 0.69363 0.77935 0.0
C645 C 0.60946 0.58049 0.8028 0.0
C646 C 0.63282 0.60216 0.74444 0.0
H647 H 0.57661 0.58047 0.89383 0.0
H648 H 0.59989 0.54843 0.80889 0.0
C649 C 0.64316 0.64347 0.73861 0.0
C650 C 0.02302 0.63206 0.27608 0.0
C651 C 0.01166 0.63191 0.20698 0.0
H652 H 0.00355 0.61623 0.38176 0.0
C653 C 0.96949 0.61502 0.19395 0.0
H654 H 0.0547 0.64402 0.28884 0.0
C655 C 0.93985 0.59742 0.24685 0.0
C656 C 0.95123 0.59766 0.31571 0.0
H657 H 0.9589 0.61381 0.14187 0.0
H658 H 0.90798 0.58344 0.23368 0.0
C659 C -0.00659 0.61597 0.32953 0.0
C660 C 0.51162 0.15568 0.53815 0.0
C661 C 0.53789 0.18147 0.48626 0.0
H662 H 0.507 0.13055 0.63885 0.0
C663 C 0.57903 0.208 0.50119 0.0
H664 H 0.47949 0.13588 0.52842 0.0
C665 C 0.59442 0.20553 0.56509 0.0
C666 C 0.56872 0.17632 0.61352 0.0
H667 H 0.59971 0.22815 0.4619 0.0
H668 H 0.62674 0.22398 0.57467 0.0
C669 C 0.52708 0.15268 0.60107 0.0
C670 C 0.34504 0.57282 0.96214 0.0
C671 C 0.35357 0.5823 0.89204 0.0
H672 H 0.3663 0.58854 0.06559 0.0
C673 C 0.38748 0.61961 0.87262 0.0
H674 H 0.31894 0.54405 0.97764 0.0
C675 C 0.41519 0.64495 0.92256 0.0
C676 C 0.40892 0.63337 0.99256 0.0
H677 H 0.39444 0.62715 0.81846 0.0
H678 H 0.44328 0.67144 0.90576 0.0
C679 C 0.37209 0.59857 1.01226 0.0
C680 C 0.79453 0.41828 0.12477 0.0
C681 C 0.77241 0.376 0.11463 0.0
H682 H 0.81842 0.46668 0.19831 0.0
C683 C 0.75069 0.3499 0.16932 0.0
H684 H 0.81128 0.43854 0.08238 0.0
C685 C 0.75569 0.3656 0.23588 0.0
C686 C 0.78221 0.40749 0.24742 0.0
H687 H 0.73383 0.3171 0.16172 0.0
H688 H 0.74199 0.34452 0.27855 0.0
C689 C 0.79916 0.43407 0.19093 0.0
C690 C 0.39587 0.77414 0.62549 0.0
C691 C 0.38525 0.77162 0.55587 0.0
H692 H 0.38058 0.77952 0.72963 0.0
C693 C 0.34684 0.76545 0.5382 0.0
H694 H 0.42545 0.77886 0.63967 0.0
C695 C 0.32124 0.76658 0.58931 0.0
C696 C 0.33361 0.77326 0.65875 0.0
H697 H 0.33837 0.76359 0.48443 0.0
H698 H 0.29362 0.76602 0.5738 0.0
C699 C 0.36989 0.7741 0.67678 0.0
C700 C 0.60938 0.44486 0.87127 0.0
C701 C 0.60531 0.41743 0.8186 0.0
H702 H 0.59107 0.45123 0.97308 0.0
C703 C 0.58752 0.37562 0.83326 0.0
H704 H 0.62416 0.47741 0.86149 0.0
C705 C 0.56963 0.36098 0.89765 0.0
C706 C 0.5693 0.38814 0.94667 0.0
H707 H 0.58419 0.35405 0.79335 0.0
H708 H 0.55304 0.32834 0.90709 0.0
C709 C 0.59078 0.43017 0.93472 0.0
C710 C 0.19442 0.59314 0.34537 0.0
C711 C 0.19312 0.55648 0.3264 0.0
H712 H 0.19083 0.64504 0.31 0.0
C713 C 0.19757 0.54965 0.25622 0.0
H714 H 0.19083 0.59938 0.39882 0.0
C715 C 0.19821 0.57637 0.20573 0.0
C716 C 0.194 0.60986 0.22482 0.0
H717 H 0.19651 0.52168 0.23997 0.0
H718 H 0.19817 0.56888 0.15167 0.0
C719 C 0.19401 0.61918 0.29477 0.0
loop_
_geom_bond_atom_site_label_1
_geom_bond_atom_site_label_2
_geom_bond_distance
_geom_bond_site_symmetry_2
_ccdc_geom_bond_type
Co0 N5 2.057 . S
Co0 O17 2.021 . S
Co0 O20 2.062 . S
Co0 O24 2.117 . S
Co0 O25 2.020 . S
C1 O21 1.259 . S
C1 O24 1.258 . S
Co2 N11 2.057 . S
Co2 O18 2.117 . S
Co2 O19 2.020 . S
Co2 O21 2.021 . S
Co2 O26 2.062 . S
C3 N5 1.316 . S
C3 N6 1.347 1_554 S
C3 H8 0.931 . S
C4 N5 1.375 1_565 S
C4 C7 1.350 . S
C4 H9 0.930 . S
N5 Co0 2.057 . S
N5 C3 1.316 . S
N5 C4 1.375 1_545 S
N6 C3 1.347 1_556 S
N6 C7 1.373 1_546 S
C7 C4 1.350 . S
C7 N6 1.373 1_564 S
C7 H28 0.931 . S
H8 C3 0.931 . S
H9 C4 0.930 . S
C10 O17 1.259 . S
C10 O18 1.258 . S
N11 Co2 2.057 . S
N11 C12 1.316 . S
N11 C13 1.375 . S
C12 N11 1.316 . S
C12 N14 1.347 . S
C12 H23 0.931 . S
C13 N11 1.375 . S
C13 C15 1.350 . S
C13 H22 0.930 . S
N14 C12 1.347 . S
N14 C15 1.373 . S
C15 C13 1.350 . S
C15 N14 1.373 . S
C15 H29 0.931 . S
C16 O19 1.256 . S
C16 O20 1.255 . S
O17 Co0 2.021 . S
O17 C10 1.259 . S
O18 Co2 2.117 . S
O18 C10 1.258 . S
O19 Co2 2.020 . S
O19 C16 1.256 . S
O20 Co0 2.062 . S
O20 C16 1.255 . S
O21 C1 1.259 . S
O21 Co2 2.021 . S
H22 C13 0.930 . S
H23 C12 0.931 . S
O24 Co0 2.117 . S
O24 C1 1.258 . S
O25 Co0 2.020 . S
O25 C27 1.256 . S
O26 Co2 2.062 . S
O26 C27 1.255 . S
C27 O25 1.256 . S
C27 O26 1.255 . S
H28 C7 0.931 . S
H29 C15 0.931 . S
Co30 N35 2.057 . S
Co30 O47 2.021 . S
Co30 O50 2.062 . S
Co30 O54 2.117 . S
Co30 O55 2.020 . S
C31 O51 1.259 . S
C31 O54 1.258 . S
Co32 N41 2.057 . S
Co32 O48 2.117 . S
Co32 O49 2.020 . S
Co32 O51 2.021 . S
Co32 O56 2.062 . S
C33 N35 1.316 . S
C33 N36 1.347 . S
C33 H38 0.931 . S
C34 N35 1.375 . S
C34 C37 1.350 . S
C34 H39 0.930 . S
N35 Co30 2.057 . S
N35 C33 1.316 . S
N35 C34 1.375 . S
N36 C33 1.347 . S
N36 C37 1.373 . S
C37 C34 1.350 . S
C37 N36 1.373 . S
C37 H58 0.931 . S
H38 C33 0.931 . S
H39 C34 0.930 . S
C40 O47 1.259 . S
C40 O48 1.258 . S
N41 Co32 2.057 . S
N41 C42 1.316 . S
N41 C43 1.375 . S
C42 N41 1.316 . S
C42 N44 1.347 . S
C42 H53 0.931 . S
C43 N41 1.375 . S
C43 C45 1.350 . S
C43 H52 0.930 . S
N44 C42 1.347 . S
N44 C45 1.373 . S
C45 C43 1.350 . S
C45 N44 1.373 . S
C45 H59 0.931 . S
C46 O49 1.256 . S
C46 O50 1.255 . S
O47 Co30 2.021 . S
O47 C40 1.259 . S
O48 Co32 2.117 . S
O48 C40 1.258 . S
O49 Co32 2.020 . S
O49 C46 1.256 . S
O50 Co30 2.062 . S
O50 C46 1.255 . S
O51 C31 1.259 . S
O51 Co32 2.021 . S
H52 C43 0.930 . S
H53 C42 0.931 . S
O54 Co30 2.117 . S
O54 C31 1.258 . S
O55 Co30 2.020 . S
O55 C57 1.256 . S
O56 Co32 2.062 . S
O56 C57 1.255 . S
C57 O55 1.256 . S
C57 O56 1.255 . S
H58 C37 0.931 . S
H59 C45 0.931 . S
Co60 N65 2.057 . S
Co60 O77 2.021 . S
Co60 O80 2.062 . S
Co60 O84 2.117 . S
Co60 O85 2.020 . S
C61 O81 1.259 . S
C61 O84 1.258 . S
Co62 N71 2.057 . S
Co62 O78 2.117 . S
Co62 O79 2.020 . S
Co62 O81 2.021 . S
Co62 O86 2.062 . S
C63 N65 1.316 . S
C63 N66 1.347 . S
C63 H68 0.931 . S
C64 N65 1.375 1_455 S
C64 C67 1.350 . S
C64 H69 0.930 . S
N65 Co60 2.057 . S
N65 C63 1.316 . S
N65 C64 1.375 1_655 S
N66 C63 1.347 . S
N66 C67 1.373 1_655 S
C67 C64 1.350 . S
C67 N66 1.373 1_455 S
C67 H88 0.931 . S
H68 C63 0.931 . S
H69 C64 0.930 . S
C70 O77 1.259 . S
C70 O78 1.258 . S
N71 Co62 2.057 . S
N71 C72 1.316 1_556 S
N71 C73 1.375 . S
C72 N71 1.316 1_554 S
C72 N74 1.347 . S
C72 H83 0.931 . S
C73 N71 1.375 . S
C73 C75 1.350 1_556 S
C73 H82 0.930 . S
N74 C72 1.347 . S
N74 C75 1.373 . S
C75 C73 1.350 1_554 S
C75 N74 1.373 . S
C75 H89 0.931 . S
C76 O79 1.256 . S
C76 O80 1.255 . S
O77 Co60 2.021 . S
O77 C70 1.259 . S
O78 Co62 2.117 . S
O78 C70 1.258 . S
O79 Co62 2.020 . S
O79 C76 1.256 . S
O80 Co60 2.062 . S
O80 C76 1.255 . S
O81 C61 1.259 . S
O81 Co62 2.021 . S
H82 C73 0.930 . S
H83 C72 0.931 . S
O84 Co60 2.117 . S
O84 C61 1.258 . S
O85 Co60 2.020 . S
O85 C87 1.256 . S
O86 Co62 2.062 . S
O86 C87 1.255 . S
C87 O85 1.256 . S
C87 O86 1.255 . S
H88 C67 0.931 . S
H89 C75 0.931 . S
Co90 N95 2.057 . S
Co90 O107 2.021 . S
Co90 O110 2.062 . S
Co90 O114 2.117 . S
Co90 O115 2.020 . S
C91 O111 1.259 . S
C91 O114 1.258 . S
Co92 N101 2.057 . S
Co92 O108 2.117 . S
Co92 O109 2.020 . S
Co92 O111 2.021 . S
Co92 O116 2.062 . S
C93 N95 1.316 . S
C93 N96 1.347 . S
C93 H98 0.931 . S
C94 N95 1.375 . S
C94 C97 1.350 1_565 S
C94 H99 0.930 1_565 S
N95 Co90 2.057 . S
N95 C93 1.316 . S
N95 C94 1.375 . S
N96 C93 1.347 . S
N96 C97 1.373 1_565 S
C97 C94 1.350 1_545 S
C97 N96 1.373 1_545 S
C97 H118 0.931 . S
H98 C93 0.931 . S
H99 C94 0.930 1_545 S
C100 O107 1.259 . S
C100 O108 1.258 . S
N101 Co92 2.057 . S
N101 C102 1.316 . S
N101 C103 1.375 . S
C102 N101 1.316 . S
C102 N104 1.347 . S
C102 H113 0.931 . S
C103 N101 1.375 . S
C103 C105 1.350 . S
C103 H112 0.930 . S
N104 C102 1.347 . S
N104 C105 1.373 . S
C105 C103 1.350 . S
C105 N104 1.373 . S
C105 H119 0.931 . S
C106 O109 1.256 . S
C106 O110 1.255 . S
O107 Co90 2.021 . S
O107 C100 1.259 . S
O108 Co92 2.117 . S
O108 C100 1.258 . S
O109 Co92 2.020 . S
O109 C106 1.256 . S
O110 Co90 2.062 . S
O110 C106 1.255 . S
O111 C91 1.259 . S
O111 Co92 2.021 . S
H112 C103 0.930 . S
H113 C102 0.931 . S
O114 Co90 2.117 . S
O114 C91 1.258 . S
O115 Co90 2.020 . S
O115 C117 1.256 . S
O116 Co92 2.062 . S
O116 C117 1.255 . S
C117 O115 1.256 . S
C117 O116 1.255 . S
H118 C97 0.931 . S
H119 C105 0.931 . S
Co120 N125 2.057 . S
Co120 O137 2.021 . S
Co120 O140 2.062 . S
Co120 O144 2.117 . S
Co120 O145 2.020 . S
C121 O141 1.259 . S
C121 O144 1.258 . S
Co122 N131 2.057 . S
Co122 O138 2.117 . S
Co122 O139 2.020 . S
Co122 O141 2.021 . S
Co122 O146 2.062 . S
C123 N125 1.316 . S
C123 N126 1.347 . S
C123 H128 0.931 . S
C124 N125 1.375 . S
C124 C127 1.350 . S
C124 H129 0.930 . S
N125 Co120 2.057 . S
N125 C123 1.316 . S
N125 C124 1.375 . S
N126 C123 1.347 . S
N126 C127 1.373 . S
C127 C124 1.350 . S
C127 N126 1.373 . S
C127 H148 0.931 . S
H128 C123 0.931 . S
H129 C124 0.930 . S
C130 O137 1.259 . S
C130 O138 1.258 . S
N131 Co122 2.057 . S
N131 C132 1.316 . S
N131 C133 1.375 . S
C132 N131 1.316 . S
C132 N134 1.347 . S
C132 H143 0.931 . S
C133 N131 1.375 . S
C133 C135 1.350 . S
C133 H142 0.930 . S
N134 C132 1.347 . S
N134 C135 1.373 . S
C135 C133 1.350 . S
C135 N134 1.373 . S
C135 H149 0.931 . S
C136 O139 1.256 . S
C136 O140 1.255 . S
O137 Co120 2.021 . S
O137 C130 1.259 . S
O138 Co122 2.117 . S
O138 C130 1.258 . S
O139 Co122 2.020 . S
O139 C136 1.256 . S
O140 Co120 2.062 . S
O140 C136 1.255 . S
O141 C121 1.259 . S
O141 Co122 2.021 . S
H142 C133 0.930 . S
H143 C132 0.931 . S
O144 Co120 2.117 . S
O144 C121 1.258 . S
O145 Co120 2.020 . S
O145 C147 1.256 . S
O146 Co122 2.062 . S
O146 C147 1.255 . S
C147 O145 1.256 . S
C147 O146 1.255 . S
H148 C127 0.931 . S
H149 C135 0.931 . S
Co150 N155 2.057 . S
Co150 O167 2.021 . S
Co150 O170 2.062 . S
Co150 O174 2.117 . S
Co150 O175 2.020 . S
C151 O171 1.259 1_556 S
C151 O174 1.258 . S
Co152 N161 2.057 . S
Co152 O168 2.117 1_554 S
Co152 O169 2.020 1_554 S
Co152 O171 2.021 . S
Co152 O176 2.062 . S
C153 N155 1.316 . S
C153 N156 1.347 . S
C153 H158 0.931 . S
C154 N155 1.375 . S
C154 C157 1.350 1_455 S
C154 H159 0.930 1_455 S
N155 Co150 2.057 . S
N155 C153 1.316 . S
N155 C154 1.375 . S
N156 C153 1.347 . S
N156 C157 1.373 1_455 S
C157 C154 1.350 1_655 S
C157 N156 1.373 1_655 S
C157 H178 0.931 . S
H158 C153 0.931 . S
H159 C154 0.930 1_655 S
C160 O167 1.259 . S
C160 O168 1.258 . S
N161 Co152 2.057 . S
N161 C162 1.316 . S
N161 C163 1.375 . S
C162 N161 1.316 . S
C162 N164 1.347 . S
C162 H173 0.931 . S
C163 N161 1.375 . S
C163 C165 1.350 . S
C163 H172 0.930 . S
N164 C162 1.347 . S
N164 C165 1.373 . S
C165 C163 1.350 . S
C165 N164 1.373 . S
C165 H179 0.931 . S
C166 O169 1.256 . S
C166 O170 1.255 . S
O167 Co150 2.021 . S
O167 C160 1.259 . S
O168 Co152 2.117 1_556 S
O168 C160 1.258 . S
O169 Co152 2.020 1_556 S
O169 C166 1.256 . S
O170 Co150 2.062 . S
O170 C166 1.255 . S
O171 C151 1.259 1_554 S
O171 Co152 2.021 . S
H172 C163 0.930 . S
H173 C162 0.931 . S
O174 Co150 2.117 . S
O174 C151 1.258 . S
O175 Co150 2.020 . S
O175 C177 1.256 1_556 S
O176 Co152 2.062 . S
O176 C177 1.255 . S
C177 O175 1.256 1_554 S
C177 O176 1.255 . S
H178 C157 0.931 . S
H179 C165 0.931 . S
Co180 N185 2.057 . S
Co180 O197 2.021 . S
Co180 O200 2.062 . S
Co180 O204 2.117 . S
Co180 O205 2.020 . S
C181 O201 1.259 . S
C181 O204 1.258 . S
Co182 N191 2.057 . S
Co182 O198 2.117 . S
Co182 O199 2.020 . S
Co182 O201 2.021 . S
Co182 O206 2.062 . S
C183 N185 1.316 . S
C183 N186 1.347 . S
C183 H188 0.931 . S
C184 N185 1.375 . S
C184 C187 1.350 1_655 S
C184 H189 0.930 1_655 S
N185 Co180 2.057 . S
N185 C183 1.316 . S
N185 C184 1.375 . S
N186 C183 1.347 . S
N186 C187 1.373 1_655 S
C187 C184 1.350 1_455 S
C187 N186 1.373 1_455 S
C187 H208 0.931 . S
H188 C183 0.931 . S
H189 C184 0.930 1_455 S
C190 O197 1.259 . S
C190 O198 1.258 . S
N191 Co182 2.057 . S
N191 C192 1.316 . S
N191 C193 1.375 . S
C192 N191 1.316 . S
C192 N194 1.347 . S
C192 H203 0.931 . S
C193 N191 1.375 . S
C193 C195 1.350 . S
C193 H202 0.930 . S
N194 C192 1.347 . S
N194 C195 1.373 . S
C195 C193 1.350 . S
C195 N194 1.373 . S
C195 H209 0.931 . S
C196 O199 1.256 . S
C196 O200 1.255 . S
O197 Co180 2.021 . S
O197 C190 1.259 . S
O198 Co182 2.117 . S
O198 C190 1.258 . S
O199 Co182 2.020 . S
O199 C196 1.256 . S
O200 Co180 2.062 . S
O200 C196 1.255 . S
O201 C181 1.259 . S
O201 Co182 2.021 . S
H202 C193 0.930 . S
H203 C192 0.931 . S
O204 Co180 2.117 . S
O204 C181 1.258 . S
O205 Co180 2.020 . S
O205 C207 1.256 . S
O206 Co182 2.062 . S
O206 C207 1.255 . S
C207 O205 1.256 . S
C207 O206 1.255 . S
H208 C187 0.931 . S
H209 C195 0.931 . S
Co210 N215 2.057 . S
Co210 O227 2.021 . S
Co210 O230 2.062 . S
Co210 O234 2.117 . S
Co210 O235 2.020 . S
C211 O231 1.259 . S
C211 O234 1.258 . S
Co212 N221 2.057 . S
Co212 O228 2.117 . S
Co212 O229 2.020 . S
Co212 O231 2.021 . S
Co212 O236 2.062 . S
C213 N215 1.316 . S
C213 N216 1.347 . S
C213 H218 0.931 . S
C214 N215 1.375 . S
C214 C217 1.350 . S
C214 H219 0.930 . S
N215 Co210 2.057 . S
N215 C213 1.316 . S
N215 C214 1.375 . S
N216 C213 1.347 . S
N216 C217 1.373 . S
C217 C214 1.350 . S
C217 N216 1.373 . S
C217 H238 0.931 . S
H218 C213 0.931 . S
H219 C214 0.930 . S
C220 O227 1.259 . S
C220 O228 1.258 . S
N221 Co212 2.057 . S
N221 C222 1.316 . S
N221 C223 1.375 . S
C222 N221 1.316 . S
C222 N224 1.347 . S
C222 H233 0.931 . S
C223 N221 1.375 . S
C223 C225 1.350 . S
C223 H232 0.930 . S
N224 C222 1.347 . S
N224 C225 1.373 . S
C225 C223 1.350 . S
C225 N224 1.373 . S
C225 H239 0.931 . S
C226 O229 1.256 . S
C226 O230 1.255 . S
O227 Co210 2.021 . S
O227 C220 1.259 . S
O228 Co212 2.117 . S
O228 C220 1.258 . S
O229 Co212 2.020 . S
O229 C226 1.256 . S
O230 Co210 2.062 . S
O230 C226 1.255 . S
O231 C211 1.259 . S
O231 Co212 2.021 . S
H232 C223 0.930 . S
H233 C222 0.931 . S
O234 Co210 2.117 . S
O234 C211 1.258 . S
O235 Co210 2.020 . S
O235 C237 1.256 . S
O236 Co212 2.062 . S
O236 C237 1.255 . S
C237 O235 1.256 . S
C237 O236 1.255 . S
H238 C217 0.931 . S
H239 C225 0.931 . S
Co240 N245 2.057 . S
Co240 O257 2.021 . S
Co240 O260 2.062 . S
Co240 O264 2.117 . S
Co240 O265 2.020 . S
C241 O261 1.259 . S
C241 O264 1.258 . S
Co242 N251 2.057 1_554 S
Co242 O258 2.117 . S
Co242 O259 2.020 . S
Co242 O261 2.021 . S
Co242 O266 2.062 1_554 S
C243 N245 1.316 . S
C243 N246 1.347 . S
C243 H248 0.931 . S
C244 N245 1.375 . S
C244 C247 1.350 . S
C244 H249 0.930 . S
N245 Co240 2.057 . S
N245 C243 1.316 . S
N245 C244 1.375 . S
N246 C243 1.347 . S
N246 C247 1.373 . S
C247 C244 1.350 . S
C247 N246 1.373 . S
C247 H268 0.931 . S
H248 C243 0.931 . S
H249 C244 0.930 . S
C250 O257 1.259 . S
C250 O258 1.258 . S
N251 Co242 2.057 1_556 S
N251 C252 1.316 . S
N251 C253 1.375 . S
C252 N251 1.316 . S
C252 N254 1.347 . S
C252 H263 0.931 . S
C253 N251 1.375 . S
C253 C255 1.350 . S
C253 H262 0.930 . S
N254 C252 1.347 . S
N254 C255 1.373 . S
C255 C253 1.350 . S
C255 N254 1.373 . S
C255 H269 0.931 . S
C256 O259 1.256 . S
C256 O260 1.255 . S
O257 Co240 2.021 . S
O257 C250 1.259 . S
O258 Co242 2.117 . S
O258 C250 1.258 . S
O259 Co242 2.020 . S
O259 C256 1.256 . S
O260 Co240 2.062 . S
O260 C256 1.255 . S
O261 C241 1.259 . S
O261 Co242 2.021 . S
H262 C253 0.930 . S
H263 C252 0.931 . S
O264 Co240 2.117 . S
O264 C241 1.258 . S
O265 Co240 2.020 . S
O265 C267 1.256 1_554 S
O266 Co242 2.062 1_556 S
O266 C267 1.255 . S
C267 O265 1.256 1_556 S
C267 O266 1.255 . S
H268 C247 0.931 . S
H269 C255 0.931 . S
Co270 N275 2.057 . S
Co270 O287 2.021 . S
Co270 O290 2.062 . S
Co270 O294 2.117 . S
Co270 O295 2.020 . S
C271 O291 1.259 . S
C271 O294 1.258 . S
Co272 N281 2.057 . S
Co272 O288 2.117 . S
Co272 O289 2.020 . S
Co272 O291 2.021 . S
Co272 O296 2.062 . S
C273 N275 1.316 . S
C273 N276 1.347 . S
C273 H278 0.931 . S
C274 N275 1.375 . S
C274 C277 1.350 . S
C274 H279 0.930 . S
N275 Co270 2.057 . S
N275 C273 1.316 . S
N275 C274 1.375 . S
N276 C273 1.347 . S
N276 C277 1.373 . S
C277 C274 1.350 . S
C277 N276 1.373 . S
C277 H298 0.931 . S
H278 C273 0.931 . S
H279 C274 0.930 . S
C280 O287 1.259 . S
C280 O288 1.258 . S
N281 Co272 2.057 . S
N281 C282 1.316 . S
N281 C283 1.375 . S
C282 N281 1.316 . S
C282 N284 1.347 . S
C282 H293 0.931 . S
C283 N281 1.375 . S
C283 C285 1.350 . S
C283 H292 0.930 . S
N284 C282 1.347 . S
N284 C285 1.373 . S
C285 C283 1.350 . S
C285 N284 1.373 . S
C285 H299 0.931 . S
C286 O289 1.256 . S
C286 O290 1.255 . S
O287 Co270 2.021 . S
O287 C280 1.259 . S
O288 Co272 2.117 . S
O288 C280 1.258 . S
O289 Co272 2.020 . S
O289 C286 1.256 . S
O290 Co270 2.062 . S
O290 C286 1.255 . S
O291 C271 1.259 . S
O291 Co272 2.021 . S
H292 C283 0.930 . S
H293 C282 0.931 . S
O294 Co270 2.117 . S
O294 C271 1.258 . S
O295 Co270 2.020 . S
O295 C297 1.256 . S
O296 Co272 2.062 . S
O296 C297 1.255 . S
C297 O295 1.256 . S
C297 O296 1.255 . S
H298 C277 0.931 . S
H299 C285 0.931 . S
Co300 N305 2.057 . S
Co300 O317 2.021 . S
Co300 O320 2.062 . S
Co300 O324 2.117 . S
Co300 O325 2.020 . S
C301 O321 1.259 . S
C301 O324 1.258 . S
Co302 N311 2.057 . S
Co302 O318 2.117 . S
Co302 O319 2.020 . S
Co302 O321 2.021 . S
Co302 O326 2.062 . S
C303 N305 1.316 . S
C303 N306 1.347 . S
C303 H308 0.931 . S
C304 N305 1.375 . S
C304 C307 1.350 1_545 S
C304 H309 0.930 1_545 S
N305 Co300 2.057 . S
N305 C303 1.316 . S
N305 C304 1.375 . S
N306 C303 1.347 . S
N306 C307 1.373 1_545 S
C307 C304 1.350 1_565 S
C307 N306 1.373 1_565 S
C307 H328 0.931 . S
H308 C303 0.931 . S
H309 C304 0.930 1_565 S
C310 O317 1.259 . S
C310 O318 1.258 . S
N311 Co302 2.057 . S
N311 C312 1.316 . S
N311 C313 1.375 . S
C312 N311 1.316 . S
C312 N314 1.347 . S
C312 H323 0.931 . S
C313 N311 1.375 . S
C313 C315 1.350 . S
C313 H322 0.930 . S
N314 C312 1.347 . S
N314 C315 1.373 . S
C315 C313 1.350 . S
C315 N314 1.373 . S
C315 H329 0.931 . S
C316 O319 1.256 . S
C316 O320 1.255 . S
O317 Co300 2.021 . S
O317 C310 1.259 . S
O318 Co302 2.117 . S
O318 C310 1.258 . S
O319 Co302 2.020 . S
O319 C316 1.256 . S
O320 Co300 2.062 . S
O320 C316 1.255 . S
O321 C301 1.259 . S
O321 Co302 2.021 . S
H322 C313 0.930 . S
H323 C312 0.931 . S
O324 Co300 2.117 . S
O324 C301 1.258 . S
O325 Co300 2.020 . S
O325 C327 1.256 . S
O326 Co302 2.062 . S
O326 C327 1.255 . S
C327 O325 1.256 . S
C327 O326 1.255 . S
H328 C307 0.931 . S
H329 C315 0.931 . S
Co330 N335 2.057 1_554 S
Co330 O347 2.021 . S
Co330 O350 2.062 1_554 S
Co330 O354 2.117 . S
Co330 O355 2.020 . S
C331 O351 1.259 . S
C331 O354 1.258 . S
Co332 N341 2.057 . S
Co332 O348 2.117 . S
Co332 O349 2.020 . S
Co332 O351 2.021 . S
Co332 O356 2.062 . S
C333 N335 1.316 . S
C333 N336 1.347 . S
C333 H338 0.931 . S
C334 N335 1.375 . S
C334 C337 1.350 . S
C334 H339 0.930 . S
N335 Co330 2.057 1_556 S
N335 C333 1.316 . S
N335 C334 1.375 . S
N336 C333 1.347 . S
N336 C337 1.373 . S
C337 C334 1.350 . S
C337 N336 1.373 . S
C337 H358 0.931 . S
H338 C333 0.931 . S
H339 C334 0.930 . S
C340 O347 1.259 . S
C340 O348 1.258 . S
N341 Co332 2.057 . S
N341 C342 1.316 . S
N341 C343 1.375 . S
C342 N341 1.316 . S
C342 N344 1.347 . S
C342 H353 0.931 . S
C343 N341 1.375 . S
C343 C345 1.350 . S
C343 H352 0.930 . S
N344 C342 1.347 . S
N344 C345 1.373 . S
C345 C343 1.350 . S
C345 N344 1.373 . S
C345 H359 0.931 . S
C346 O349 1.258 . S
C346 O350 1.254 1_554 S
O347 Co330 2.021 . S
O347 C340 1.259 . S
O348 Co332 2.117 . S
O348 C340 1.258 . S
O349 Co332 2.020 . S
O349 C346 1.258 . S
O350 Co330 2.062 1_556 S
O350 C346 1.254 1_556 S
O351 C331 1.259 . S
O351 Co332 2.021 . S
H352 C343 0.930 . S
H353 C342 0.931 . S
O354 Co330 2.117 . S
O354 C331 1.258 . S
O355 Co330 2.020 . S
O355 C357 1.256 . S
O356 Co332 2.062 . S
O356 C357 1.255 . S
C357 O355 1.256 . S
C357 O356 1.255 . S
H358 C337 0.931 . S
H359 C345 0.931 . S
C360 C361 1.387 . S
C360 H364 0.950 . S
C360 C369 1.390 . S
C361 C360 1.387 . S
C361 C363 1.387 . S
H362 C369 0.950 . S
C363 C361 1.387 . S
C363 C365 1.390 . S
C363 H367 0.950 . S
H364 C360 0.950 . S
C365 C363 1.390 . S
C365 C366 1.387 . S
C365 H368 0.950 . S
C366 C365 1.387 . S
C366 C369 1.387 . S
H367 C363 0.950 . S
H368 C365 0.950 . S
C369 C360 1.390 . S
C369 H362 0.950 . S
C369 C366 1.387 . S
C370 C371 1.387 . S
C370 H374 0.950 . S
C370 C379 1.390 . S
C371 C370 1.387 . S
C371 C373 1.387 . S
H372 C379 0.950 . S
C373 C371 1.387 . S
C373 C375 1.390 . S
C373 H377 0.950 . S
H374 C370 0.950 . S
C375 C373 1.390 . S
C375 C376 1.387 . S
C375 H378 0.950 . S
C376 C375 1.387 . S
C376 C379 1.387 . S
H377 C373 0.950 . S
H378 C375 0.950 . S
C379 C370 1.390 . S
C379 H372 0.950 . S
C379 C376 1.387 . S
C380 C381 1.387 . S
C380 H384 0.950 . S
C380 C389 1.390 . S
C381 C380 1.387 . S
C381 C383 1.387 . S
H382 C389 0.950 . S
C383 C381 1.387 . S
C383 C385 1.390 . S
C383 H387 0.950 . S
H384 C380 0.950 . S
C385 C383 1.390 . S
C385 C386 1.387 . S
C385 H388 0.950 . S
C386 C385 1.387 . S
C386 C389 1.387 . S
H387 C383 0.950 . S
H388 C385 0.950 . S
C389 C380 1.390 . S
C389 H382 0.950 . S
C389 C386 1.387 . S
C390 C391 1.387 . S
C390 H394 0.950 . S
C390 C399 1.390 . S
C391 C390 1.387 . S
C391 C393 1.387 . S
H392 C399 0.950 . S
C393 C391 1.387 . S
C393 C395 1.390 . S
C393 H397 0.950 . S
H394 C390 0.950 . S
C395 C393 1.390 . S
C395 C396 1.387 . S
C395 H398 0.950 . S
C396 C395 1.387 . S
C396 C399 1.387 . S
H397 C393 0.950 . S
H398 C395 0.950 . S
C399 C390 1.390 . S
C399 H392 0.950 . S
C399 C396 1.387 . S
C400 C401 1.387 . S
C400 H404 0.950 . S
C400 C409 1.390 . S
C401 C400 1.387 . S
C401 C403 1.387 . S
H402 C409 0.950 . S
C403 C401 1.387 . S
C403 C405 1.390 . S
C403 H407 0.950 . S
H404 C400 0.950 . S
C405 C403 1.390 . S
C405 C406 1.387 . S
C405 H408 0.950 . S
C406 C405 1.387 . S
C406 C409 1.387 . S
H407 C403 0.950 . S
H408 C405 0.950 . S
C409 C400 1.390 . S
C409 H402 0.950 . S
C409 C406 1.387 . S
C410 C411 1.387 . S
C410 H414 0.950 . S
C410 C419 1.390 . S
C411 C410 1.387 . S
C411 C413 1.387 . S
H412 C419 0.950 . S
C413 C411 1.387 . S
C413 C415 1.390 . S
C413 H417 0.950 . S
H414 C410 0.950 . S
C415 C413 1.390 . S
C415 C416 1.387 . S
C415 H418 0.950 . S
C416 C415 1.387 . S
C416 C419 1.387 . S
H417 C413 0.950 . S
H418 C415 0.950 . S
C419 C410 1.390 . S
C419 H412 0.950 . S
C419 C416 1.387 . S
C420 C421 1.387 . S
C420 H424 0.950 . S
C420 C429 1.390 . S
C421 C420 1.387 . S
C421 C423 1.387 . S
H422 C429 0.950 1_554 S
C423 C421 1.387 . S
C423 C425 1.390 . S
C423 H427 0.950 . S
H424 C420 0.950 . S
C425 C423 1.390 . S
C425 C426 1.387 1_556 S
C425 H428 0.950 1_556 S
C426 C425 1.387 1_554 S
C426 C429 1.387 1_554 S
H427 C423 0.950 . S
H428 C425 0.950 1_554 S
C429 C420 1.390 . S
C429 H422 0.950 1_556 S
C429 C426 1.387 1_556 S
C430 C431 1.387 . S
C430 H434 0.950 . S
C430 C439 1.390 . S
C431 C430 1.387 . S
C431 C433 1.387 . S
H432 C439 0.950 . S
C433 C431 1.387 . S
C433 C435 1.390 . S
C433 H437 0.950 . S
H434 C430 0.950 . S
C435 C433 1.390 . S
C435 C436 1.387 . S
C435 H438 0.950 . S
C436 C435 1.387 . S
C436 C439 1.387 . S
H437 C433 0.950 . S
H438 C435 0.950 . S
C439 C430 1.390 . S
C439 H432 0.950 . S
C439 C436 1.387 . S
C440 C441 1.387 . S
C440 H444 0.950 . S
C440 C449 1.390 . S
C441 C440 1.387 . S
C441 C443 1.387 . S
H442 C449 0.950 . S
C443 C441 1.387 . S
C443 C445 1.390 . S
C443 H447 0.950 . S
H444 C440 0.950 . S
C445 C443 1.390 . S
C445 C446 1.387 . S
C445 H448 0.950 . S
C446 C445 1.387 . S
C446 C449 1.387 . S
H447 C443 0.950 . S
H448 C445 0.950 . S
C449 C440 1.390 . S
C449 H442 0.950 . S
C449 C446 1.387 . S
C450 C451 1.387 . S
C450 H454 0.950 . S
C450 C459 1.390 . S
C451 C450 1.387 . S
C451 C453 1.387 . S
H452 C459 0.950 . S
C453 C451 1.387 . S
C453 C455 1.390 . S
C453 H457 0.950 . S
H454 C450 0.950 . S
C455 C453 1.390 . S
C455 C456 1.387 . S
C455 H458 0.950 . S
C456 C455 1.387 . S
C456 C459 1.387 . S
H457 C453 0.950 . S
H458 C455 0.950 . S
C459 C450 1.390 . S
C459 H452 0.950 . S
C459 C456 1.387 . S
C460 C461 1.387 . S
C460 H464 0.950 . S
C460 C469 1.390 . S
C461 C460 1.387 . S
C461 C463 1.387 . S
H462 C469 0.950 . S
C463 C461 1.387 . S
C463 C465 1.390 . S
C463 H467 0.950 . S
H464 C460 0.950 . S
C465 C463 1.390 . S
C465 C466 1.387 . S
C465 H468 0.950 . S
C466 C465 1.387 . S
C466 C469 1.387 . S
H467 C463 0.950 . S
H468 C465 0.950 . S
C469 C460 1.390 . S
C469 H462 0.950 . S
C469 C466 1.387 . S
C470 C471 1.387 . S
C470 H474 0.950 . S
C470 C479 1.390 . S
C471 C470 1.387 . S
C471 C473 1.387 . S
H472 C479 0.950 . S
C473 C471 1.387 . S
C473 C475 1.390 . S
C473 H477 0.950 . S
H474 C470 0.950 . S
C475 C473 1.390 . S
C475 C476 1.387 . S
C475 H478 0.950 . S
C476 C475 1.387 . S
C476 C479 1.387 . S
H477 C473 0.950 . S
H478 C475 0.950 . S
C479 C470 1.390 . S
C479 H472 0.950 . S
C479 C476 1.387 . S
C480 C481 1.387 . S
C480 H484 0.950 . S
C480 C489 1.390 . S
C481 C480 1.387 . S
C481 C483 1.387 . S
H482 C489 0.950 1_545 S
C483 C481 1.387 . S
C483 C485 1.390 . S
C483 H487 0.950 . S
H484 C480 0.950 . S
C485 C483 1.390 . S
C485 C486 1.387 1_565 S
C485 H488 0.950 . S
C486 C485 1.387 1_545 S
C486 C489 1.387 1_545 S
H487 C483 0.950 . S
H488 C485 0.950 . S
C489 C480 1.390 . S
C489 H482 0.950 1_565 S
C489 C486 1.387 1_565 S
C490 C491 1.387 . S
C490 H494 0.950 . S
C490 C499 1.390 . S
C491 C490 1.387 . S
C491 C493 1.387 . S
H492 C499 0.950 . S
C493 C491 1.387 . S
C493 C495 1.390 . S
C493 H497 0.950 . S
H494 C490 0.950 . S
C495 C493 1.390 . S
C495 C496 1.387 . S
C495 H498 0.950 . S
C496 C495 1.387 . S
C496 C499 1.387 . S
H497 C493 0.950 . S
H498 C495 0.950 . S
C499 C490 1.390 . S
C499 H492 0.950 . S
C499 C496 1.387 . S
C500 C501 1.387 . S
C500 H504 0.950 . S
C500 C509 1.382 1_455 S
C501 C500 1.387 . S
C501 C503 1.387 . S
H502 C509 0.969 . S
C503 C501 1.387 . S
C503 C505 1.390 . S
C503 H507 0.950 . S
H504 C500 0.950 . S
C505 C503 1.390 . S
C505 C506 1.387 1_455 S
C505 H508 0.950 . S
C506 C505 1.387 1_655 S
C506 C509 1.377 . S
H507 C503 0.950 . S
H508 C505 0.950 . S
C509 C500 1.382 1_655 S
C509 H502 0.969 . S
C509 C506 1.377 . S
C510 C511 1.387 . S
C510 H514 0.950 . S
C510 C519 1.390 1_565 S
C511 C510 1.387 . S
C511 C513 1.387 . S
H512 C519 0.950 1_556 S
C513 C511 1.387 . S
C513 C515 1.390 1_564 S
C513 H517 0.950 . S
H514 C510 0.950 . S
C515 C513 1.390 1_546 S
C515 C516 1.387 . S
C515 H518 0.950 . S
C516 C515 1.387 . S
C516 C519 1.387 1_556 S
H517 C513 0.950 . S
H518 C515 0.950 . S
C519 C510 1.390 1_545 S
C519 H512 0.950 1_554 S
C519 C516 1.387 1_554 S
C520 C521 1.387 . S
C520 H524 0.950 . S
C520 C529 1.390 . S
C521 C520 1.387 . S
C521 C523 1.387 . S
H522 C529 0.950 . S
C523 C521 1.387 . S
C523 C525 1.390 . S
C523 H527 0.950 . S
H524 C520 0.950 . S
C525 C523 1.390 . S
C525 C526 1.387 . S
C525 H528 0.950 . S
C526 C525 1.387 . S
C526 C529 1.387 . S
H527 C523 0.950 . S
H528 C525 0.950 . S
C529 C520 1.390 . S
C529 H522 0.950 . S
C529 C526 1.387 . S
C530 C531 1.387 1_655 S
C530 H534 0.950 . S
C530 C539 1.390 . S
C531 C530 1.387 1_455 S
C531 C533 1.387 . S
H532 C539 0.950 . S
C533 C531 1.387 . S
C533 C535 1.390 . S
C533 H537 0.950 . S
H534 C530 0.950 . S
C535 C533 1.390 . S
C535 C536 1.387 1_455 S
C535 H538 0.950 . S
C536 C535 1.387 1_655 S
C536 C539 1.387 . S
H537 C533 0.950 . S
H538 C535 0.950 . S
C539 C530 1.390 . S
C539 H532 0.950 . S
C539 C536 1.387 . S
C540 C541 1.387 1_565 S
C540 H544 0.950 . S
C540 C549 1.390 . S
C541 C540 1.387 1_545 S
C541 C543 1.387 . S
H542 C549 0.950 . S
C543 C541 1.387 . S
C543 C545 1.390 . S
C543 H547 0.950 . S
H544 C540 0.950 . S
C545 C543 1.390 . S
C545 C546 1.387 1_545 S
C545 H548 0.950 . S
C546 C545 1.387 1_565 S
C546 C549 1.387 . S
H547 C543 0.950 . S
H548 C545 0.950 . S
C549 C540 1.390 . S
C549 H542 0.950 . S
C549 C546 1.387 . S
C550 C551 1.387 . S
C550 H554 0.950 . S
C550 C559 1.390 . S
C551 C550 1.387 . S
C551 C553 1.387 . S
H552 C559 0.950 . S
C553 C551 1.387 . S
C553 C555 1.390 . S
C553 H557 0.950 . S
H554 C550 0.950 . S
C555 C553 1.390 . S
C555 C556 1.387 . S
C555 H558 0.950 . S
C556 C555 1.387 . S
C556 C559 1.387 . S
H557 C553 0.950 . S
H558 C555 0.950 . S
C559 C550 1.390 . S
C559 H552 0.950 . S
C559 C556 1.387 . S
C560 C561 1.387 . S
C560 H564 0.950 . S
C560 C569 1.390 . S
C561 C560 1.387 . S
C561 C563 1.387 1_655 S
H562 C569 0.950 . S
C563 C561 1.387 1_455 S
C563 C565 1.390 . S
C563 H567 0.950 . S
H564 C560 0.950 . S
C565 C563 1.390 . S
C565 C566 1.387 . S
C565 H568 0.950 . S
C566 C565 1.387 . S
C566 C569 1.387 1_455 S
H567 C563 0.950 . S
H568 C565 0.950 . S
C569 C560 1.390 . S
C569 H562 0.950 . S
C569 C566 1.387 1_655 S
C570 C571 1.387 . S
C570 H574 0.950 . S
C570 C579 1.390 1_455 S
C571 C570 1.387 . S
C571 C573 1.387 . S
H572 C579 0.950 . S
C573 C571 1.387 . S
C573 C575 1.390 1_455 S
C573 H577 0.950 . S
H574 C570 0.950 . S
C575 C573 1.390 1_655 S
C575 C576 1.387 . S
C575 H578 0.950 . S
C576 C575 1.387 . S
C576 C579 1.387 . S
H577 C573 0.950 . S
H578 C575 0.950 . S
C579 C570 1.390 1_655 S
C579 H572 0.950 . S
C579 C576 1.387 . S
C580 C581 1.387 . S
C580 H584 0.950 . S
C580 C589 1.390 1_565 S
C581 C580 1.387 . S
C581 C583 1.387 . S
H582 C589 0.950 . S
C583 C581 1.387 . S
C583 C585 1.390 1_565 S
C583 H587 0.950 . S
H584 C580 0.950 . S
C585 C583 1.390 1_545 S
C585 C586 1.387 . S
C585 H588 0.950 . S
C586 C585 1.387 . S
C586 C589 1.387 . S
H587 C583 0.950 . S
H588 C585 0.950 . S
C589 C580 1.390 1_545 S
C589 H582 0.950 . S
C589 C586 1.387 . S
C590 C591 1.387 . S
C590 H594 0.950 . S
C590 C599 1.390 . S
C591 C590 1.387 . S
C591 C593 1.387 . S
H592 C599 0.950 . S
C593 C591 1.387 . S
C593 C595 1.390 . S
C593 H597 0.950 . S
H594 C590 0.950 . S
C595 C593 1.390 . S
C595 C596 1.387 . S
C595 H598 0.950 . S
C596 C595 1.387 . S
C596 C599 1.387 . S
H597 C593 0.950 . S
H598 C595 0.950 . S
C599 C590 1.390 . S
C599 H592 0.950 . S
C599 C596 1.387 . S
C600 C601 1.387 . S
C600 H604 0.950 . S
C600 C609 1.390 . S
C601 C600 1.387 . S
C601 C603 1.387 1_565 S
H602 C609 0.950 . S
C603 C601 1.387 1_545 S
C603 C605 1.390 . S
C603 H607 0.950 . S
H604 C600 0.950 . S
C605 C603 1.390 . S
C605 C606 1.387 . S
C605 H608 0.950 . S
C606 C605 1.387 . S
C606 C609 1.387 1_545 S
H607 C603 0.950 . S
H608 C605 0.950 . S
C609 C600 1.390 . S
C609 H602 0.950 . S
C609 C606 1.387 1_565 S
C610 C611 1.387 . S
C610 H614 0.950 . S
C610 C619 1.390 . S
C611 C610 1.387 . S
C611 C613 1.387 . S
H612 C619 0.950 . S
C613 C611 1.387 . S
C613 C615 1.390 . S
C613 H617 0.950 . S
H614 C610 0.950 . S
C615 C613 1.390 . S
C615 C616 1.387 . S
C615 H618 0.950 . S
C616 C615 1.387 . S
C616 C619 1.387 . S
H617 C613 0.950 . S
H618 C615 0.950 . S
C619 C610 1.390 . S
C619 H612 0.950 . S
C619 C616 1.387 . S
C620 C621 1.387 . S
C620 H624 0.950 . S
C620 C629 1.390 . S
C621 C620 1.387 . S
C621 C623 1.387 . S
H622 C629 0.950 . S
C623 C621 1.387 . S
C623 C625 1.390 1_655 S
C623 H627 0.958 1_655 S
H624 C620 0.950 . S
C625 C623 1.390 1_455 S
C625 C626 1.387 . S
C625 H628 0.950 . S
C626 C625 1.387 . S
C626 C629 1.387 1_455 S
H627 C623 0.958 1_455 S
H628 C625 0.950 . S
C629 C620 1.390 . S
C629 H622 0.950 . S
C629 C626 1.387 1_655 S
C630 C631 1.387 . S
C630 H634 0.950 . S
C630 C639 1.390 1_545 S
C631 C630 1.387 . S
C631 C633 1.387 . S
H632 C639 0.950 . S
C633 C631 1.387 . S
C633 C635 1.390 1_545 S
C633 H637 0.950 . S
H634 C630 0.950 . S
C635 C633 1.390 1_565 S
C635 C636 1.387 . S
C635 H638 0.950 . S
C636 C635 1.387 . S
C636 C639 1.387 . S
H637 C633 0.950 . S
H638 C635 0.950 . S
C639 C630 1.390 1_565 S
C639 H632 0.950 . S
C639 C636 1.387 . S
C640 C641 1.387 . S
C640 H644 0.950 . S
C640 C649 1.390 . S
C641 C640 1.387 . S
C641 C643 1.387 . S
H642 C649 0.950 . S
C643 C641 1.387 . S
C643 C645 1.390 . S
C643 H647 0.950 . S
H644 C640 0.950 . S
C645 C643 1.390 . S
C645 C646 1.387 . S
C645 H648 0.950 . S
C646 C645 1.387 . S
C646 C649 1.387 . S
H647 C643 0.950 . S
H648 C645 0.950 . S
C649 C640 1.390 . S
C649 H642 0.950 . S
C649 C646 1.387 . S
C650 C651 1.387 . S
C650 H654 0.950 . S
C650 C659 1.390 . S
C651 C650 1.387 . S
C651 C653 1.387 1_455 S
H652 C659 0.950 . S
C653 C651 1.387 1_655 S
C653 C655 1.390 . S
C653 H657 0.950 . S
H654 C650 0.950 . S
C655 C653 1.390 . S
C655 C656 1.387 . S
C655 H658 0.950 . S
C656 C655 1.387 . S
C656 C659 1.387 1_655 S
H657 C653 0.950 . S
H658 C655 0.950 . S
C659 C650 1.390 . S
C659 H652 0.950 . S
C659 C656 1.387 1_455 S
C660 C661 1.387 . S
C660 H664 0.950 . S
C660 C669 1.390 . S
C661 C660 1.387 . S
C661 C663 1.387 . S
H662 C669 0.950 . S
C663 C661 1.387 . S
C663 C665 1.390 . S
C663 H667 0.950 . S
H664 C660 0.950 . S
C665 C663 1.390 . S
C665 C666 1.387 . S
C665 H668 0.950 . S
C666 C665 1.387 . S
C666 C669 1.387 . S
H667 C663 0.950 . S
H668 C665 0.950 . S
C669 C660 1.390 . S
C669 H662 0.950 . S
C669 C666 1.387 . S
C670 C671 1.387 . S
C670 H674 0.950 . S
C670 C679 1.390 . S
C671 C670 1.387 . S
C671 C673 1.387 . S
H672 C679 0.950 . S
C673 C671 1.387 . S
C673 C675 1.390 . S
C673 H677 0.950 . S
H674 C670 0.950 . S
C675 C673 1.390 . S
C675 C676 1.387 . S
C675 H678 0.950 . S
C676 C675 1.387 . S
C676 C679 1.387 . S
H677 C673 0.950 . S
H678 C675 0.950 . S
C679 C670 1.390 . S
C679 H672 0.950 . S
C679 C676 1.387 . S
C680 C681 1.387 . S
C680 H684 0.950 . S
C680 C689 1.390 . S
C681 C680 1.387 . S
C681 C683 1.387 . S
H682 C689 0.950 . S
C683 C681 1.387 . S
C683 C685 1.390 . S
C683 H687 0.950 . S
H684 C680 0.950 . S
C685 C683 1.390 . S
C685 C686 1.387 . S
C685 H688 0.950 . S
C686 C685 1.387 . S
C686 C689 1.387 . S
H687 C683 0.950 . S
H688 C685 0.950 . S
C689 C680 1.390 . S
C689 H682 0.950 . S
C689 C686 1.387 . S
C690 C691 1.387 . S
C690 H694 0.950 . S
C690 C699 1.390 . S
C691 C690 1.387 . S
C691 C693 1.387 . S
H692 C699 0.950 . S
C693 C691 1.387 . S
C693 C695 1.390 . S
C693 H697 0.950 . S
H694 C690 0.950 . S
C695 C693 1.390 . S
C695 C696 1.387 . S
C695 H698 0.950 . S
C696 C695 1.387 . S
C696 C699 1.387 . S
H697 C693 0.950 . S
H698 C695 0.950 . S
C699 C690 1.390 . S
C699 H692 0.950 . S
C699 C696 1.387 . S
C700 C701 1.387 . S
C700 H704 0.950 . S
C700 C709 1.390 . S
C701 C700 1.387 . S
C701 C703 1.387 . S
H702 C709 0.950 . S
C703 C701 1.387 . S
C703 C705 1.390 . S
C703 H707 0.950 . S
H704 C700 0.950 . S
C705 C703 1.390 . S
C705 C706 1.387 . S
C705 H708 0.950 . S
C706 C705 1.387 . S
C706 C709 1.387 . S
H707 C703 0.950 . S
H708 C705 0.950 . S
C709 C700 1.390 . S
C709 H702 0.950 . S
C709 C706 1.387 . S
C710 C711 1.387 . S
C710 H714 0.950 . S
C710 C719 1.390 . S
C711 C710 1.387 . S
C711 C713 1.387 . S
H712 C719 0.950 . S
C713 C711 1.387 . S
C713 C715 1.390 . S
C713 H717 0.950 . S
H714 C710 0.950 . S
C715 C713 1.390 . S
C715 C716 1.387 . S
C715 H718 0.950 . S
C716 C715 1.387 . S
C716 C719 1.387 . S
H717 C713 0.950 . S
H718 C715 0.950 . S
C719 C710 1.390 . S
C719 H712 0.950 . S
C719 C716 1.387 . S
C361 C10 0.892 . S
C366 C250 0.888 . S
C371 C40 1.352 . S
C376 C271 1.364 . S
C381 C70 0.893 . S
C386 C310 0.889 . S
C391 C331 1.368 . S
C396 C100 1.357 . S
C401 C130 0.894 . S
C406 C190 0.890 . S
C411 C211 1.366 . S
C416 C160 1.353 . S
C421 C316 2.274 . S
C426 C16 2.308 . S
C431 N344 1.653 . S
C436 C46 1.769 . S
C441 C76 2.308 . S
C446 C196 2.274 . S
C451 N224 1.652 1_554 S
C456 C106 1.769 . S
C461 C256 2.275 . S
C466 C136 2.307 . S
C471 C166 1.768 . S
C476 N284 1.655 . S
C481 C237 0.939 . S
C486 N6 0.850 . S
C491 N246 0.690 . S
C496 N36 0.689 . S
C501 C297 0.939 . S
C506 N66 0.851 . S
C511 N96 0.696 . S
C516 N306 0.694 . S
C521 N126 0.844 . S
C526 C357 0.938 . S
C531 N156 0.694 . S
C536 N186 0.695 . S
C541 C1 1.202 . S
C546 C91 1.184 . S
C551 C31 1.185 . S
C556 C121 1.203 . S
C561 C61 1.201 . S
C566 C151 1.183 . S
C571 C280 1.035 . S
C576 C181 1.017 . S
C581 C220 1.035 . S
C586 C301 1.017 . S
C591 C340 1.034 . S
C596 C241 1.015 . S
C601 N216 2.224 . S
C606 C27 2.228 . S
C611 C267 2.332 . S
C616 C57 2.351 . S
C621 C87 2.227 1_554 S
C626 N276 2.225 . S
C631 C327 2.331 . S
C636 C117 2.351 . S
C641 N336 2.223 . S
C646 C147 2.227 . S
C651 C177 2.351 . S
C656 C207 2.332 . S
C661 N14 0.727 . S
C666 N314 0.727 . S
C671 N44 1.287 . S
C676 C346 1.290 1_556 S
C681 N74 0.727 . S
C686 N194 0.727 . S
C691 N104 1.285 . S
C696 C226 1.291 . S
C701 N134 0.728 . S
C706 N254 0.728 . S
C711 C286 1.292 . S
C716 N164 1.287 . S
