# Generated by pormake.
# Topology ulh, (4)-cn, num edge types: 1
# Building blocks:
#     Node 0, Type 0, BuildingBlock: GALJAG_clean_sbu_0, # of connection points: 4
#     Node 1, Type 0, BuildingBlock: GALJAG_clean_sbu_0, # of connection points: 4
#     Node 2, Type 0, BuildingBlock: GALJAG_clean_sbu_0, # of connection points: 4
#     Node 3, Type 0, BuildingBlock: GALJAG_clean_sbu_0, # of connection points: 4
#     Node 4, Type 0, BuildingBlock: GALJAG_clean_sbu_0, # of connection points: 4
#     Node 5, Type 0, BuildingBlock: GALJAG_clean_sbu_0, # of connection points: 4
#     Node 6, Type 0, BuildingBlock: GALJAG_clean_sbu_0, # of connection points: 4
#     Node 7, Type 0, BuildingBlock: GALJAG_clean_sbu_0, # of connection points: 4
#     Node 8, Type 0, BuildingBlock: GALJAG_clean_sbu_0, # of connection points: 4
#     Node 9, Type 0, BuildingBlock: GALJAG_clean_sbu_0, # of connection points: 4
#     Node 10, Type 0, BuildingBlock: GALJAG_clean_sbu_0, # of connection points: 4
#     Node 11, Type 0, BuildingBlock: GALJAG_clean_sbu_0, # of connection points: 4
#     Node 12, Type 0, BuildingBlock: GALJAG_clean_sbu_0, # of connection points: 4
#     Node 13, Type 0, BuildingBlock: GALJAG_clean_sbu_0, # of connection points: 4
#     Node 14, Type 0, BuildingBlock: GALJAG_clean_sbu_0, # of connection points: 4
#     Node 15, Type 0, BuildingBlock: GALJAG_clean_sbu_0, # of connection points: 4
#     Node 16, Type 0, BuildingBlock: GALJAG_clean_sbu_0, # of connection points: 4
#     Node 17, Type 0, BuildingBlock: GALJAG_clean_sbu_0, # of connection points: 4
#     Node 18, Type 0, BuildingBlock: GALJAG_clean_sbu_0, # of connection points: 4
#     Node 19, Type 0, BuildingBlock: GALJAG_clean_sbu_0, # of connection points: 4
#     Node 20, Type 0, BuildingBlock: GALJAG_clean_sbu_0, # of connection points: 4
#     Node 21, Type 0, BuildingBlock: GALJAG_clean_sbu_0, # of connection points: 4
#     Node 22, Type 0, BuildingBlock: GALJAG_clean_sbu_0, # of connection points: 4
#     Node 23, Type 0, BuildingBlock: GALJAG_clean_sbu_0, # of connection points: 4
#     Node 24, Type 0, BuildingBlock: GALJAG_clean_sbu_0, # of connection points: 4
#     Node 25, Type 0, BuildingBlock: GALJAG_clean_sbu_0, # of connection points: 4
#     Node 26, Type 0, BuildingBlock: GALJAG_clean_sbu_0, # of connection points: 4
#     Node 27, Type 0, BuildingBlock: GALJAG_clean_sbu_0, # of connection points: 4
#     Node 28, Type 0, BuildingBlock: GALJAG_clean_sbu_0, # of connection points: 4
#     Node 29, Type 0, BuildingBlock: GALJAG_clean_sbu_0, # of connection points: 4
#     Node 30, Type 0, BuildingBlock: GALJAG_clean_sbu_0, # of connection points: 4
#     Node 31, Type 0, BuildingBlock: GALJAG_clean_sbu_0, # of connection points: 4
#     Node 32, Type 0, BuildingBlock: GALJAG_clean_sbu_0, # of connection points: 4
#     Node 33, Type 0, BuildingBlock: GALJAG_clean_sbu_0, # of connection points: 4
#     Node 34, Type 0, BuildingBlock: GALJAG_clean_sbu_0, # of connection points: 4
#     Node 35, Type 0, BuildingBlock: GALJAG_clean_sbu_0, # of connection points: 4
#     Node 36, Type 0, BuildingBlock: GALJAG_clean_sbu_0, # of connection points: 4
#     Node 37, Type 0, BuildingBlock: GALJAG_clean_sbu_0, # of connection points: 4
#     Node 38, Type 0, BuildingBlock: GALJAG_clean_sbu_0, # of connection points: 4
#     Node 39, Type 0, BuildingBlock: GALJAG_clean_sbu_0, # of connection points: 4
#     Node 40, Type 0, BuildingBlock: GALJAG_clean_sbu_0, # of connection points: 4
#     Node 41, Type 0, BuildingBlock: GALJAG_clean_sbu_0, # of connection points: 4
#     Node 42, Type 0, BuildingBlock: GALJAG_clean_sbu_0, # of connection points: 4
#     Node 43, Type 0, BuildingBlock: GALJAG_clean_sbu_0, # of connection points: 4
#     Node 44, Type 0, BuildingBlock: GALJAG_clean_sbu_0, # of connection points: 4
#     Node 45, Type 0, BuildingBlock: GALJAG_clean_sbu_0, # of connection points: 4
#     Node 46, Type 0, BuildingBlock: GALJAG_clean_sbu_0, # of connection points: 4
#     Node 47, Type 0, BuildingBlock: GALJAG_clean_sbu_0, # of connection points: 4
#     Node 48, Type 0, BuildingBlock: GALJAG_clean_sbu_0, # of connection points: 4
#     Node 49, Type 0, BuildingBlock: GALJAG_clean_sbu_0, # of connection points: 4
#     Node 50, Type 0, BuildingBlock: GALJAG_clean_sbu_0, # of connection points: 4
#     Node 51, Type 0, BuildingBlock: GALJAG_clean_sbu_0, # of connection points: 4
#     Node 52, Type 0, BuildingBlock: GALJAG_clean_sbu_0, # of connection points: 4
#     Node 53, Type 0, BuildingBlock: GALJAG_clean_sbu_0, # of connection points: 4
#     Node 54, Type 0, BuildingBlock: GALJAG_clean_sbu_0, # of connection points: 4
#     Node 55, Type 0, BuildingBlock: GALJAG_clean_sbu_0, # of connection points: 4
#     Node 56, Type 0, BuildingBlock: GALJAG_clean_sbu_0, # of connection points: 4
#     Node 57, Type 0, BuildingBlock: GALJAG_clean_sbu_0, # of connection points: 4
#     Node 58, Type 0, BuildingBlock: GALJAG_clean_sbu_0, # of connection points: 4
#     Node 59, Type 0, BuildingBlock: GALJAG_clean_sbu_0, # of connection points: 4
#     Node 60, Type 0, BuildingBlock: GALJAG_clean_sbu_0, # of connection points: 4
#     Node 61, Type 0, BuildingBlock: GALJAG_clean_sbu_0, # of connection points: 4
#     Node 62, Type 0, BuildingBlock: GALJAG_clean_sbu_0, # of connection points: 4
#     Node 63, Type 0, BuildingBlock: GALJAG_clean_sbu_0, # of connection points: 4
#     Node 64, Type 0, BuildingBlock: GALJAG_clean_sbu_0, # of connection points: 4
#     Node 65, Type 0, BuildingBlock: GALJAG_clean_sbu_0, # of connection points: 4
#     Node 66, Type 0, BuildingBlock: GALJAG_clean_sbu_0, # of connection points: 4
#     Node 67, Type 0, BuildingBlock: GALJAG_clean_sbu_0, # of connection points: 4
#     Node 68, Type 0, BuildingBlock: GALJAG_clean_sbu_0, # of connection points: 4
#     Node 69, Type 0, BuildingBlock: GALJAG_clean_sbu_0, # of connection points: 4
#     Node 70, Type 0, BuildingBlock: GALJAG_clean_sbu_0, # of connection points: 4
#     Node 71, Type 0, BuildingBlock: GALJAG_clean_sbu_0, # of connection points: 4
#     Node 72, Type 0, BuildingBlock: GALJAG_clean_sbu_0, # of connection points: 4
#     Node 73, Type 0, BuildingBlock: GALJAG_clean_sbu_0, # of connection points: 4
#     Node 74, Type 0, BuildingBlock: GALJAG_clean_sbu_0, # of connection points: 4
#     Node 75, Type 0, BuildingBlock: GALJAG_clean_sbu_0, # of connection points: 4
#     Node 76, Type 0, BuildingBlock: GALJAG_clean_sbu_0, # of connection points: 4
#     Node 77, Type 0, BuildingBlock: GALJAG_clean_sbu_0, # of connection points: 4
#     Node 78, Type 0, BuildingBlock: GALJAG_clean_sbu_0, # of connection points: 4
#     Node 79, Type 0, BuildingBlock: GALJAG_clean_sbu_0, # of connection points: 4
#     Node 80, Type 0, BuildingBlock: GALJAG_clean_sbu_0, # of connection points: 4
#     Node 81, Type 0, BuildingBlock: GALJAG_clean_sbu_0, # of connection points: 4
#     Node 82, Type 0, BuildingBlock: GALJAG_clean_sbu_0, # of connection points: 4
#     Node 83, Type 0, BuildingBlock: GALJAG_clean_sbu_0, # of connection points: 4
#     Node 84, Type 0, BuildingBlock: GALJAG_clean_sbu_0, # of connection points: 4
#     Node 85, Type 0, BuildingBlock: GALJAG_clean_sbu_0, # of connection points: 4
#     Node 86, Type 0, BuildingBlock: GALJAG_clean_sbu_0, # of connection points: 4
#     Node 87, Type 0, BuildingBlock: GALJAG_clean_sbu_0, # of connection points: 4
#     Node 88, Type 0, BuildingBlock: GALJAG_clean_sbu_0, # of connection points: 4
#     Node 89, Type 0, BuildingBlock: GALJAG_clean_sbu_0, # of connection points: 4
#     Node 90, Type 0, BuildingBlock: GALJAG_clean_sbu_0, # of connection points: 4
#     Node 91, Type 0, BuildingBlock: GALJAG_clean_sbu_0, # of connection points: 4
#     Node 92, Type 0, BuildingBlock: GALJAG_clean_sbu_0, # of connection points: 4
#     Node 93, Type 0, BuildingBlock: GALJAG_clean_sbu_0, # of connection points: 4
#     Node 94, Type 0, BuildingBlock: GALJAG_clean_sbu_0, # of connection points: 4
#     Node 95, Type 0, BuildingBlock: GALJAG_clean_sbu_0, # of connection points: 4
#     Edge 96, Type (0, 0), BuildingBlock: EZIPEK_clean_linker_0, # of connection points: 2
#     Edge 97, Type (0, 0), BuildingBlock: EZIPEK_clean_linker_0, # of connection points: 2
#     Edge 98, Type (0, 0), BuildingBlock: EZIPEK_clean_linker_0, # of connection points: 2
#     Edge 99, Type (0, 0), BuildingBlock: EZIPEK_clean_linker_0, # of connection points: 2
#     Edge 100, Type (0, 0), BuildingBlock: EZIPEK_clean_linker_0, # of connection points: 2
#     Edge 101, Type (0, 0), BuildingBlock: EZIPEK_clean_linker_0, # of connection points: 2
#     Edge 102, Type (0, 0), BuildingBlock: EZIPEK_clean_linker_0, # of connection points: 2
#     Edge 103, Type (0, 0), BuildingBlock: EZIPEK_clean_linker_0, # of connection points: 2
#     Edge 104, Type (0, 0), BuildingBlock: EZIPEK_clean_linker_0, # of connection points: 2
#     Edge 105, Type (0, 0), BuildingBlock: EZIPEK_clean_linker_0, # of connection points: 2
#     Edge 106, Type (0, 0), BuildingBlock: EZIPEK_clean_linker_0, # of connection points: 2
#     Edge 107, Type (0, 0), BuildingBlock: EZIPEK_clean_linker_0, # of connection points: 2
#     Edge 108, Type (0, 0), BuildingBlock: EZIPEK_clean_linker_0, # of connection points: 2
#     Edge 109, Type (0, 0), BuildingBlock: EZIPEK_clean_linker_0, # of connection points: 2
#     Edge 110, Type (0, 0), BuildingBlock: EZIPEK_clean_linker_0, # of connection points: 2
#     Edge 111, Type (0, 0), BuildingBlock: EZIPEK_clean_linker_0, # of connection points: 2
#     Edge 112, Type (0, 0), BuildingBlock: EZIPEK_clean_linker_0, # of connection points: 2
#     Edge 113, Type (0, 0), BuildingBlock: EZIPEK_clean_linker_0, # of connection points: 2
#     Edge 114, Type (0, 0), BuildingBlock: EZIPEK_clean_linker_0, # of connection points: 2
#     Edge 115, Type (0, 0), BuildingBlock: EZIPEK_clean_linker_0, # of connection points: 2
#     Edge 116, Type (0, 0), BuildingBlock: EZIPEK_clean_linker_0, # of connection points: 2
#     Edge 117, Type (0, 0), BuildingBlock: EZIPEK_clean_linker_0, # of connection points: 2
#     Edge 118, Type (0, 0), BuildingBlock: EZIPEK_clean_linker_0, # of connection points: 2
#     Edge 119, Type (0, 0), BuildingBlock: EZIPEK_clean_linker_0, # of connection points: 2
#     Edge 120, Type (0, 0), BuildingBlock: EZIPEK_clean_linker_0, # of connection points: 2
#     Edge 121, Type (0, 0), BuildingBlock: EZIPEK_clean_linker_0, # of connection points: 2
#     Edge 122, Type (0, 0), BuildingBlock: EZIPEK_clean_linker_0, # of connection points: 2
#     Edge 123, Type (0, 0), BuildingBlock: EZIPEK_clean_linker_0, # of connection points: 2
#     Edge 124, Type (0, 0), BuildingBlock: EZIPEK_clean_linker_0, # of connection points: 2
#     Edge 125, Type (0, 0), BuildingBlock: EZIPEK_clean_linker_0, # of connection points: 2
#     Edge 126, Type (0, 0), BuildingBlock: EZIPEK_clean_linker_0, # of connection points: 2
#     Edge 127, Type (0, 0), BuildingBlock: EZIPEK_clean_linker_0, # of connection points: 2
#     Edge 128, Type (0, 0), BuildingBlock: EZIPEK_clean_linker_0, # of connection points: 2
#     Edge 129, Type (0, 0), BuildingBlock: EZIPEK_clean_linker_0, # of connection points: 2
#     Edge 130, Type (0, 0), BuildingBlock: EZIPEK_clean_linker_0, # of connection points: 2
#     Edge 131, Type (0, 0), BuildingBlock: EZIPEK_clean_linker_0, # of connection points: 2
#     Edge 132, Type (0, 0), BuildingBlock: EZIPEK_clean_linker_0, # of connection points: 2
#     Edge 133, Type (0, 0), BuildingBlock: EZIPEK_clean_linker_0, # of connection points: 2
#     Edge 134, Type (0, 0), BuildingBlock: EZIPEK_clean_linker_0, # of connection points: 2
#     Edge 135, Type (0, 0), BuildingBlock: EZIPEK_clean_linker_0, # of connection points: 2
#     Edge 136, Type (0, 0), BuildingBlock: EZIPEK_clean_linker_0, # of connection points: 2
#     Edge 137, Type (0, 0), BuildingBlock: EZIPEK_clean_linker_0, # of connection points: 2
#     Edge 138, Type (0, 0), BuildingBlock: EZIPEK_clean_linker_0, # of connection points: 2
#     Edge 139, Type (0, 0), BuildingBlock: EZIPEK_clean_linker_0, # of connection points: 2
#     Edge 140, Type (0, 0), BuildingBlock: EZIPEK_clean_linker_0, # of connection points: 2
#     Edge 141, Type (0, 0), BuildingBlock: EZIPEK_clean_linker_0, # of connection points: 2
#     Edge 142, Type (0, 0), BuildingBlock: EZIPEK_clean_linker_0, # of connection points: 2
#     Edge 143, Type (0, 0), BuildingBlock: EZIPEK_clean_linker_0, # of connection points: 2
#     Edge 144, Type (0, 0), BuildingBlock: EZIPEK_clean_linker_0, # of connection points: 2
#     Edge 145, Type (0, 0), BuildingBlock: EZIPEK_clean_linker_0, # of connection points: 2
#     Edge 146, Type (0, 0), BuildingBlock: EZIPEK_clean_linker_0, # of connection points: 2
#     Edge 147, Type (0, 0), BuildingBlock: EZIPEK_clean_linker_0, # of connection points: 2
#     Edge 148, Type (0, 0), BuildingBlock: EZIPEK_clean_linker_0, # of connection points: 2
#     Edge 149, Type (0, 0), BuildingBlock: EZIPEK_clean_linker_0, # of connection points: 2
#     Edge 150, Type (0, 0), BuildingBlock: EZIPEK_clean_linker_0, # of connection points: 2
#     Edge 151, Type (0, 0), BuildingBlock: EZIPEK_clean_linker_0, # of connection points: 2
#     Edge 152, Type (0, 0), BuildingBlock: EZIPEK_clean_linker_0, # of connection points: 2
#     Edge 153, Type (0, 0), BuildingBlock: EZIPEK_clean_linker_0, # of connection points: 2
#     Edge 154, Type (0, 0), BuildingBlock: EZIPEK_clean_linker_0, # of connection points: 2
#     Edge 155, Type (0, 0), BuildingBlock: EZIPEK_clean_linker_0, # of connection points: 2
#     Edge 156, Type (0, 0), BuildingBlock: EZIPEK_clean_linker_0, # of connection points: 2
#     Edge 157, Type (0, 0), BuildingBlock: EZIPEK_clean_linker_0, # of connection points: 2
#     Edge 158, Type (0, 0), BuildingBlock: EZIPEK_clean_linker_0, # of connection points: 2
#     Edge 159, Type (0, 0), BuildingBlock: EZIPEK_clean_linker_0, # of connection points: 2
#     Edge 160, Type (0, 0), BuildingBlock: EZIPEK_clean_linker_0, # of connection points: 2
#     Edge 161, Type (0, 0), BuildingBlock: EZIPEK_clean_linker_0, # of connection points: 2
#     Edge 162, Type (0, 0), BuildingBlock: EZIPEK_clean_linker_0, # of connection points: 2
#     Edge 163, Type (0, 0), BuildingBlock: EZIPEK_clean_linker_0, # of connection points: 2
#     Edge 164, Type (0, 0), BuildingBlock: EZIPEK_clean_linker_0, # of connection points: 2
#     Edge 165, Type (0, 0), BuildingBlock: EZIPEK_clean_linker_0, # of connection points: 2
#     Edge 166, Type (0, 0), BuildingBlock: EZIPEK_clean_linker_0, # of connection points: 2
#     Edge 167, Type (0, 0), BuildingBlock: EZIPEK_clean_linker_0, # of connection points: 2
#     Edge 168, Type (0, 0), BuildingBlock: EZIPEK_clean_linker_0, # of connection points: 2
#     Edge 169, Type (0, 0), BuildingBlock: EZIPEK_clean_linker_0, # of connection points: 2
#     Edge 170, Type (0, 0), BuildingBlock: EZIPEK_clean_linker_0, # of connection points: 2
#     Edge 171, Type (0, 0), BuildingBlock: EZIPEK_clean_linker_0, # of connection points: 2
#     Edge 172, Type (0, 0), BuildingBlock: EZIPEK_clean_linker_0, # of connection points: 2
#     Edge 173, Type (0, 0), BuildingBlock: EZIPEK_clean_linker_0, # of connection points: 2
#     Edge 174, Type (0, 0), BuildingBlock: EZIPEK_clean_linker_0, # of connection points: 2
#     Edge 175, Type (0, 0), BuildingBlock: EZIPEK_clean_linker_0, # of connection points: 2
#     Edge 176, Type (0, 0), BuildingBlock: EZIPEK_clean_linker_0, # of connection points: 2
#     Edge 177, Type (0, 0), BuildingBlock: EZIPEK_clean_linker_0, # of connection points: 2
#     Edge 178, Type (0, 0), BuildingBlock: EZIPEK_clean_linker_0, # of connection points: 2
#     Edge 179, Type (0, 0), BuildingBlock: EZIPEK_clean_linker_0, # of connection points: 2
#     Edge 180, Type (0, 0), BuildingBlock: EZIPEK_clean_linker_0, # of connection points: 2
#     Edge 181, Type (0, 0), BuildingBlock: EZIPEK_clean_linker_0, # of connection points: 2
#     Edge 182, Type (0, 0), BuildingBlock: EZIPEK_clean_linker_0, # of connection points: 2
#     Edge 183, Type (0, 0), BuildingBlock: EZIPEK_clean_linker_0, # of connection points: 2
#     Edge 184, Type (0, 0), BuildingBlock: EZIPEK_clean_linker_0, # of connection points: 2
#     Edge 185, Type (0, 0), BuildingBlock: EZIPEK_clean_linker_0, # of connection points: 2
#     Edge 186, Type (0, 0), BuildingBlock: EZIPEK_clean_linker_0, # of connection points: 2
#     Edge 187, Type (0, 0), BuildingBlock: EZIPEK_clean_linker_0, # of connection points: 2
#     Edge 188, Type (0, 0), BuildingBlock: EZIPEK_clean_linker_0, # of connection points: 2
#     Edge 189, Type (0, 0), BuildingBlock: EZIPEK_clean_linker_0, # of connection points: 2
#     Edge 190, Type (0, 0), BuildingBlock: EZIPEK_clean_linker_0, # of connection points: 2
#     Edge 191, Type (0, 0), BuildingBlock: EZIPEK_clean_linker_0, # of connection points: 2
#     Edge 192, Type (0, 0), BuildingBlock: EZIPEK_clean_linker_0, # of connection points: 2
#     Edge 193, Type (0, 0), BuildingBlock: EZIPEK_clean_linker_0, # of connection points: 2
#     Edge 194, Type (0, 0), BuildingBlock: EZIPEK_clean_linker_0, # of connection points: 2
#     Edge 195, Type (0, 0), BuildingBlock: EZIPEK_clean_linker_0, # of connection points: 2
#     Edge 196, Type (0, 0), BuildingBlock: EZIPEK_clean_linker_0, # of connection points: 2
#     Edge 197, Type (0, 0), BuildingBlock: EZIPEK_clean_linker_0, # of connection points: 2
#     Edge 198, Type (0, 0), BuildingBlock: EZIPEK_clean_linker_0, # of connection points: 2
#     Edge 199, Type (0, 0), BuildingBlock: EZIPEK_clean_linker_0, # of connection points: 2
#     Edge 200, Type (0, 0), BuildingBlock: EZIPEK_clean_linker_0, # of connection points: 2
#     Edge 201, Type (0, 0), BuildingBlock: EZIPEK_clean_linker_0, # of connection points: 2
#     Edge 202, Type (0, 0), BuildingBlock: EZIPEK_clean_linker_0, # of connection points: 2
#     Edge 203, Type (0, 0), BuildingBlock: EZIPEK_clean_linker_0, # of connection points: 2
#     Edge 204, Type (0, 0), BuildingBlock: EZIPEK_clean_linker_0, # of connection points: 2
#     Edge 205, Type (0, 0), BuildingBlock: EZIPEK_clean_linker_0, # of connection points: 2
#     Edge 206, Type (0, 0), BuildingBlock: EZIPEK_clean_linker_0, # of connection points: 2
#     Edge 207, Type (0, 0), BuildingBlock: EZIPEK_clean_linker_0, # of connection points: 2
#     Edge 208, Type (0, 0), BuildingBlock: EZIPEK_clean_linker_0, # of connection points: 2
#     Edge 209, Type (0, 0), BuildingBlock: EZIPEK_clean_linker_0, # of connection points: 2
#     Edge 210, Type (0, 0), BuildingBlock: EZIPEK_clean_linker_0, # of connection points: 2
#     Edge 211, Type (0, 0), BuildingBlock: EZIPEK_clean_linker_0, # of connection points: 2
#     Edge 212, Type (0, 0), BuildingBlock: EZIPEK_clean_linker_0, # of connection points: 2
#     Edge 213, Type (0, 0), BuildingBlock: EZIPEK_clean_linker_0, # of connection points: 2
#     Edge 214, Type (0, 0), BuildingBlock: EZIPEK_clean_linker_0, # of connection points: 2
#     Edge 215, Type (0, 0), BuildingBlock: EZIPEK_clean_linker_0, # of connection points: 2
#     Edge 216, Type (0, 0), BuildingBlock: EZIPEK_clean_linker_0, # of connection points: 2
#     Edge 217, Type (0, 0), BuildingBlock: EZIPEK_clean_linker_0, # of connection points: 2
#     Edge 218, Type (0, 0), BuildingBlock: EZIPEK_clean_linker_0, # of connection points: 2
#     Edge 219, Type (0, 0), BuildingBlock: EZIPEK_clean_linker_0, # of connection points: 2
#     Edge 220, Type (0, 0), BuildingBlock: EZIPEK_clean_linker_0, # of connection points: 2
#     Edge 221, Type (0, 0), BuildingBlock: EZIPEK_clean_linker_0, # of connection points: 2
#     Edge 222, Type (0, 0), BuildingBlock: EZIPEK_clean_linker_0, # of connection points: 2
#     Edge 223, Type (0, 0), BuildingBlock: EZIPEK_clean_linker_0, # of connection points: 2
#     Edge 224, Type (0, 0), BuildingBlock: EZIPEK_clean_linker_0, # of connection points: 2
#     Edge 225, Type (0, 0), BuildingBlock: EZIPEK_clean_linker_0, # of connection points: 2
#     Edge 226, Type (0, 0), BuildingBlock: EZIPEK_clean_linker_0, # of connection points: 2
#     Edge 227, Type (0, 0), BuildingBlock: EZIPEK_clean_linker_0, # of connection points: 2
#     Edge 228, Type (0, 0), BuildingBlock: EZIPEK_clean_linker_0, # of connection points: 2
#     Edge 229, Type (0, 0), BuildingBlock: EZIPEK_clean_linker_0, # of connection points: 2
#     Edge 230, Type (0, 0), BuildingBlock: EZIPEK_clean_linker_0, # of connection points: 2
#     Edge 231, Type (0, 0), BuildingBlock: EZIPEK_clean_linker_0, # of connection points: 2
#     Edge 232, Type (0, 0), BuildingBlock: EZIPEK_clean_linker_0, # of connection points: 2
#     Edge 233, Type (0, 0), BuildingBlock: EZIPEK_clean_linker_0, # of connection points: 2
#     Edge 234, Type (0, 0), BuildingBlock: EZIPEK_clean_linker_0, # of connection points: 2
#     Edge 235, Type (0, 0), BuildingBlock: EZIPEK_clean_linker_0, # of connection points: 2
#     Edge 236, Type (0, 0), BuildingBlock: EZIPEK_clean_linker_0, # of connection points: 2
#     Edge 237, Type (0, 0), BuildingBlock: EZIPEK_clean_linker_0, # of connection points: 2
#     Edge 238, Type (0, 0), BuildingBlock: EZIPEK_clean_linker_0, # of connection points: 2
#     Edge 239, Type (0, 0), BuildingBlock: EZIPEK_clean_linker_0, # of connection points: 2
#     Edge 240, Type (0, 0), BuildingBlock: EZIPEK_clean_linker_0, # of connection points: 2
#     Edge 241, Type (0, 0), BuildingBlock: EZIPEK_clean_linker_0, # of connection points: 2
#     Edge 242, Type (0, 0), BuildingBlock: EZIPEK_clean_linker_0, # of connection points: 2
#     Edge 243, Type (0, 0), BuildingBlock: EZIPEK_clean_linker_0, # of connection points: 2
#     Edge 244, Type (0, 0), BuildingBlock: EZIPEK_clean_linker_0, # of connection points: 2
#     Edge 245, Type (0, 0), BuildingBlock: EZIPEK_clean_linker_0, # of connection points: 2
#     Edge 246, Type (0, 0), BuildingBlock: EZIPEK_clean_linker_0, # of connection points: 2
#     Edge 247, Type (0, 0), BuildingBlock: EZIPEK_clean_linker_0, # of connection points: 2
#     Edge 248, Type (0, 0), BuildingBlock: EZIPEK_clean_linker_0, # of connection points: 2
#     Edge 249, Type (0, 0), BuildingBlock: EZIPEK_clean_linker_0, # of connection points: 2
#     Edge 250, Type (0, 0), BuildingBlock: EZIPEK_clean_linker_0, # of connection points: 2
#     Edge 251, Type (0, 0), BuildingBlock: EZIPEK_clean_linker_0, # of connection points: 2
#     Edge 252, Type (0, 0), BuildingBlock: EZIPEK_clean_linker_0, # of connection points: 2
#     Edge 253, Type (0, 0), BuildingBlock: EZIPEK_clean_linker_0, # of connection points: 2
#     Edge 254, Type (0, 0), BuildingBlock: EZIPEK_clean_linker_0, # of connection points: 2
#     Edge 255, Type (0, 0), BuildingBlock: EZIPEK_clean_linker_0, # of connection points: 2
#     Edge 256, Type (0, 0), BuildingBlock: EZIPEK_clean_linker_0, # of connection points: 2
#     Edge 257, Type (0, 0), BuildingBlock: EZIPEK_clean_linker_0, # of connection points: 2
#     Edge 258, Type (0, 0), BuildingBlock: EZIPEK_clean_linker_0, # of connection points: 2
#     Edge 259, Type (0, 0), BuildingBlock: EZIPEK_clean_linker_0, # of connection points: 2
#     Edge 260, Type (0, 0), BuildingBlock: EZIPEK_clean_linker_0, # of connection points: 2
#     Edge 261, Type (0, 0), BuildingBlock: EZIPEK_clean_linker_0, # of connection points: 2
#     Edge 262, Type (0, 0), BuildingBlock: EZIPEK_clean_linker_0, # of connection points: 2
#     Edge 263, Type (0, 0), BuildingBlock: EZIPEK_clean_linker_0, # of connection points: 2
#     Edge 264, Type (0, 0), BuildingBlock: EZIPEK_clean_linker_0, # of connection points: 2
#     Edge 265, Type (0, 0), BuildingBlock: EZIPEK_clean_linker_0, # of connection points: 2
#     Edge 266, Type (0, 0), BuildingBlock: EZIPEK_clean_linker_0, # of connection points: 2
#     Edge 267, Type (0, 0), BuildingBlock: EZIPEK_clean_linker_0, # of connection points: 2
#     Edge 268, Type (0, 0), BuildingBlock: EZIPEK_clean_linker_0, # of connection points: 2
#     Edge 269, Type (0, 0), BuildingBlock: EZIPEK_clean_linker_0, # of connection points: 2
#     Edge 270, Type (0, 0), BuildingBlock: EZIPEK_clean_linker_0, # of connection points: 2
#     Edge 271, Type (0, 0), BuildingBlock: EZIPEK_clean_linker_0, # of connection points: 2
#     Edge 272, Type (0, 0), BuildingBlock: EZIPEK_clean_linker_0, # of connection points: 2
#     Edge 273, Type (0, 0), BuildingBlock: EZIPEK_clean_linker_0, # of connection points: 2
#     Edge 274, Type (0, 0), BuildingBlock: EZIPEK_clean_linker_0, # of connection points: 2
#     Edge 275, Type (0, 0), BuildingBlock: EZIPEK_clean_linker_0, # of connection points: 2
#     Edge 276, Type (0, 0), BuildingBlock: EZIPEK_clean_linker_0, # of connection points: 2
#     Edge 277, Type (0, 0), BuildingBlock: EZIPEK_clean_linker_0, # of connection points: 2
#     Edge 278, Type (0, 0), BuildingBlock: EZIPEK_clean_linker_0, # of connection points: 2
#     Edge 279, Type (0, 0), BuildingBlock: EZIPEK_clean_linker_0, # of connection points: 2
#     Edge 280, Type (0, 0), BuildingBlock: EZIPEK_clean_linker_0, # of connection points: 2
#     Edge 281, Type (0, 0), BuildingBlock: EZIPEK_clean_linker_0, # of connection points: 2
#     Edge 282, Type (0, 0), BuildingBlock: EZIPEK_clean_linker_0, # of connection points: 2
#     Edge 283, Type (0, 0), BuildingBlock: EZIPEK_clean_linker_0, # of connection points: 2
#     Edge 284, Type (0, 0), BuildingBlock: EZIPEK_clean_linker_0, # of connection points: 2
#     Edge 285, Type (0, 0), BuildingBlock: EZIPEK_clean_linker_0, # of connection points: 2
#     Edge 286, Type (0, 0), BuildingBlock: EZIPEK_clean_linker_0, # of connection points: 2
#     Edge 287, Type (0, 0), BuildingBlock: EZIPEK_clean_linker_0, # of connection points: 2
# Relax obj value: 0.113
# Max RMSD: 0.165
# Mean RMSD: 0.164
data_MOF--net-ulh--node1-GALJAG_clean_sbu_0--edge1-EZIPEK_clean_linker_0
_symmetry_space_group_name_H-M    P1
_symmetry_Int_Tables_number       1
_symmetry_cell_setting            triclinic
loop_
_symmetry_equiv_pos_as_xyz
'x, y, z'
_cell_length_a     58.980156
_cell_length_b     58.994236
_cell_length_c     59.010587
_cell_angle_alpha  90.000898
_cell_angle_beta   90.000779
_cell_angle_gamma 90.002736
loop_
_atom_site_label
_atom_site_type_symbol
_atom_site_fract_x
_atom_site_fract_y
_atom_site_fract_z
_atom_type_partial_charge
In0 In 0.0485 0.30965 0.07973 0.0
O1 O 0.05313 0.27352 0.09319 0.0
O2 O 0.02116 0.29005 0.09771 0.0
C3 C 0.08952 0.32416 0.06641 0.0
C4 C 0.02644 0.30612 0.0401 0.0
C5 C 0.04583 0.34083 0.11285 0.0
O6 O 0.08717 0.30574 0.07717 0.0
O7 O 0.07134 0.33404 0.06123 0.0
O8 O 0.03328 0.34165 0.09549 0.0
O9 O 0.05874 0.32386 0.11393 0.0
C10 C 0.03312 0.27263 0.10087 0.0
O11 O 0.02128 0.32079 0.05485 0.0
O12 O 0.04257 0.29306 0.04543 0.0
In13 In 0.94162 0.30179 0.33151 0.0
O14 O 0.97811 0.30782 0.34358 0.0
O15 O 0.9634 0.27497 0.34772 0.0
C16 C 0.92773 0.34192 0.3153 0.0
C17 C 0.94092 0.27655 0.29361 0.0
C18 C 0.91449 0.30203 0.36817 0.0
O19 O 0.94804 0.33877 0.32143 0.0
O20 O 0.91498 0.32484 0.31671 0.0
O21 O 0.9107 0.28929 0.35136 0.0
O22 O 0.93215 0.314 0.3667 0.0
C23 C 0.9803 0.2877 0.35063 0.0
O24 O 0.92876 0.27192 0.31063 0.0
O25 O 0.95348 0.29374 0.29578 0.0
In26 In 0.95144 0.19276 0.58073 0.0
O27 O 0.9437 0.22915 0.59259 0.0
O28 O 0.97587 0.2145 0.60033 0.0
C29 C 0.91136 0.17784 0.56527 0.0
C30 C 0.97546 0.19364 0.54193 0.0
C31 C 0.95491 0.16343 0.6158 0.0
O32 O 0.91326 0.197 0.57479 0.0
O33 O 0.92962 0.167 0.5628 0.0
O34 O 0.97166 0.16848 0.60346 0.0
O35 O 0.93689 0.17367 0.61071 0.0
C36 C 0.9629 0.23135 0.60189 0.0
O37 O 0.97741 0.17788 0.55628 0.0
O38 O 0.96153 0.209 0.54717 0.0
In39 In 0.05623 0.19427 0.82663 0.0
O40 O 0.02037 0.1872 0.84005 0.0
O41 O 0.03459 0.22041 0.84381 0.0
C42 C 0.07291 0.15634 0.80739 0.0
C43 C 0.05513 0.22096 0.78973 0.0
C44 C 0.08278 0.19318 0.86352 0.0
O45 O 0.05192 0.15842 0.8115 0.0
O46 O 0.08475 0.17332 0.81264 0.0
O47 O 0.08557 0.20768 0.84794 0.0
O48 O 0.06613 0.17996 0.86086 0.0
C49 C 0.01801 0.20733 0.84717 0.0
O50 O 0.06994 0.22328 0.80506 0.0
O51 O 0.04081 0.20544 0.79321 0.0
In52 In 0.04787 0.69201 0.9148 0.0
O53 O 0.01932 0.67819 0.93687 0.0
O54 O 0.04103 0.70359 0.95082 0.0
C55 C 0.04435 0.67057 0.8744 0.0
C56 C 0.03574 0.7328 0.89948 0.0
C57 C 0.08636 0.67209 0.92818 0.0
O58 O 0.03135 0.66628 0.89094 0.0
O59 O 0.05923 0.68528 0.87882 0.0
O60 O 0.08573 0.69308 0.9237 0.0
O61 O 0.06778 0.66171 0.92632 0.0
C62 C 0.0243 0.69053 0.95368 0.0
O63 O 0.05579 0.72905 0.90618 0.0
O64 O 0.02213 0.7164 0.90121 0.0
In65 In 0.55964 0.29865 0.16589 0.0
O66 O 0.52321 0.30882 0.15645 0.0
O67 O 0.53374 0.27442 0.15203 0.0
C68 C 0.58167 0.33594 0.17948 0.0
C69 C 0.5602 0.27446 0.20456 0.0
C70 C 0.58109 0.29517 0.12545 0.0
O71 O 0.56051 0.33625 0.1758 0.0
O72 O 0.59119 0.31697 0.17686 0.0
O73 O 0.58493 0.2817 0.14174 0.0
O74 O 0.56687 0.31041 0.13017 0.0
C75 C 0.51829 0.28901 0.14982 0.0
O76 O 0.57109 0.26836 0.18712 0.0
O77 O 0.549 0.29259 0.20241 0.0
In78 In 0.94913 0.80852 0.42167 0.0
O79 O 0.97728 0.82182 0.44444 0.0
O80 O 0.95706 0.79437 0.45662 0.0
C81 C 0.94803 0.83911 0.38782 0.0
C82 C 0.96594 0.77178 0.40099 0.0
C83 C 0.90766 0.81951 0.43651 0.0
O84 O 0.96155 0.84098 0.40432 0.0
O85 O 0.93562 0.82173 0.38814 0.0
O86 O 0.91138 0.80091 0.42651 0.0
O87 O 0.92499 0.83138 0.44039 0.0
C88 C 0.97321 0.80795 0.46024 0.0
O89 O 0.94624 0.77176 0.40943 0.0
O90 O 0.97689 0.78998 0.40311 0.0
In91 In 0.44052 0.19596 0.67248 0.0
O92 O 0.42648 0.22579 0.69276 0.0
O93 O 0.45115 0.2046 0.70854 0.0
C94 C 0.41415 0.19598 0.63526 0.0
C95 C 0.47911 0.21191 0.65444 0.0
C96 C 0.4287 0.15465 0.68785 0.0
O97 O 0.40887 0.20681 0.65298 0.0
O98 O 0.43279 0.18557 0.63622 0.0
O99 O 0.44851 0.15878 0.68074 0.0
O100 O 0.41533 0.17131 0.68773 0.0
C101 C 0.43834 0.22166 0.71009 0.0
O102 O 0.47787 0.19196 0.66221 0.0
O103 O 0.46136 0.22364 0.65637 0.0
In104 In 0.08089 0.04768 0.30765 0.0
O105 O 0.09067 0.05293 0.27043 0.0
O106 O 0.10157 0.02285 0.28771 0.0
C107 C 0.0639 0.08597 0.32554 0.0
C108 C 0.04345 0.02221 0.30494 0.0
C109 C 0.11612 0.04931 0.33646 0.0
O110 O 0.0776 0.08647 0.30901 0.0
O111 O 0.05716 0.0665 0.331 0.0
O112 O 0.09974 0.03571 0.33948 0.0
O113 O 0.11528 0.06059 0.31836 0.0
C114 C 0.10156 0.03439 0.26969 0.0
O115 O 0.05886 0.01832 0.31944 0.0
O116 O 0.04744 0.03835 0.29137 0.0
In117 In 0.20191 0.33489 0.55804 0.0
O118 O 0.23246 0.31397 0.56892 0.0
O119 O 0.20949 0.29967 0.54473 0.0
C120 C 0.20173 0.37304 0.58296 0.0
C121 C 0.21416 0.3526 0.51841 0.0
C122 C 0.16441 0.31918 0.57838 0.0
O123 O 0.21389 0.35612 0.58817 0.0
O124 O 0.19106 0.3711 0.56457 0.0
O125 O 0.16345 0.32831 0.55894 0.0
O126 O 0.18406 0.31696 0.58641 0.0
C127 C 0.22715 0.29717 0.55664 0.0
O128 O 0.19478 0.34359 0.5209 0.0
O129 O 0.22706 0.35206 0.53548 0.0
In130 In 0.92103 0.45048 0.80919 0.0
O131 O 0.90653 0.44453 0.77362 0.0
O132 O 0.9024 0.47708 0.78913 0.0
C133 C 0.94042 0.41174 0.8236 0.0
C134 C 0.95845 0.4766 0.80879 0.0
C135 C 0.88504 0.44827 0.83687 0.0
O136 O 0.93624 0.41498 0.80278 0.0
O137 O 0.93505 0.42795 0.83639 0.0
O138 O 0.90051 0.46292 0.83952 0.0
O139 O 0.88735 0.43549 0.81985 0.0
C140 C 0.89873 0.46449 0.77225 0.0
O141 O 0.94349 0.47826 0.82406 0.0
O142 O 0.95416 0.46232 0.79346 0.0
In143 In 0.7945 0.1644 0.05889 0.0
O144 O 0.76634 0.18694 0.07252 0.0
O145 O 0.7865 0.19951 0.04523 0.0
C146 C 0.79063 0.12463 0.08147 0.0
C147 C 0.78456 0.14763 0.01804 0.0
C148 C 0.83182 0.17923 0.08004 0.0
O149 O 0.77647 0.1406 0.0837 0.0
O150 O 0.80683 0.12939 0.06836 0.0
O151 O 0.83254 0.17267 0.05961 0.0
O152 O 0.81248 0.17884 0.08911 0.0
C153 C 0.77057 0.20311 0.05908 0.0
O154 O 0.80411 0.15539 0.02233 0.0
O155 O 0.7703 0.14897 0.03391 0.0
In156 In 0.07908 0.94283 0.69952 0.0
O157 O 0.0557 0.96633 0.67974 0.0
O158 O 0.04616 0.95738 0.71345 0.0
C159 C 0.11045 0.94905 0.66722 0.0
C160 C 0.10041 0.955 0.73794 0.0
C161 C 0.06367 0.90143 0.68668 0.0
O162 O 0.09276 0.96115 0.66829 0.0
O163 O 0.11264 0.93465 0.68285 0.0
O164 O 0.0516 0.91497 0.69792 0.0
O165 O 0.08377 0.90781 0.68399 0.0
C166 C 0.04133 0.9681 0.69554 0.0
O167 O 0.09273 0.93516 0.73543 0.0
O168 O 0.09703 0.96822 0.7216 0.0
In169 In 0.29677 0.33112 0.94331 0.0
O170 O 0.30189 0.34338 0.97984 0.0
O171 O 0.27143 0.35229 0.96238 0.0
C172 C 0.33732 0.31605 0.92897 0.0
C173 C 0.27189 0.29313 0.94609 0.0
C174 C 0.29568 0.36403 0.91192 0.0
O175 O 0.33533 0.32702 0.94729 0.0
O176 O 0.31896 0.31142 0.91916 0.0
O177 O 0.28225 0.34734 0.91126 0.0
O178 O 0.30879 0.36455 0.92875 0.0
C179 C 0.28302 0.35357 0.98027 0.0
O180 O 0.26795 0.30842 0.93163 0.0
O181 O 0.28815 0.29713 0.95944 0.0
In182 In 0.91784 0.55003 0.19618 0.0
O183 O 0.94105 0.52157 0.18428 0.0
O184 O 0.95313 0.54351 0.21035 0.0
C185 C 0.87872 0.54461 0.17278 0.0
C186 C 0.89985 0.54031 0.23663 0.0
C187 C 0.93204 0.58733 0.17449 0.0
O188 O 0.89549 0.53138 0.17055 0.0
O189 O 0.88224 0.56063 0.18649 0.0
O190 O 0.92714 0.58789 0.19539 0.0
O191 O 0.93017 0.56823 0.16514 0.0
C192 C 0.95705 0.52679 0.19756 0.0
O193 O 0.90607 0.56029 0.23183 0.0
O194 O 0.90338 0.52561 0.22152 0.0
In195 In 0.697 0.17027 0.44286 0.0
O196 O 0.69286 0.15805 0.47953 0.0
O197 O 0.725 0.15423 0.46307 0.0
C198 C 0.65629 0.18581 0.42923 0.0
C199 C 0.72241 0.20811 0.44326 0.0
C200 C 0.69708 0.13317 0.41626 0.0
O201 O 0.65929 0.17834 0.44912 0.0
O202 O 0.67375 0.1861 0.41695 0.0
O203 O 0.70781 0.15098 0.411 0.0
O204 O 0.68706 0.13393 0.43512 0.0
C205 C 0.71315 0.15106 0.48058 0.0
O206 O 0.7261 0.19202 0.42959 0.0
O207 O 0.70588 0.20517 0.45656 0.0
In208 In 0.31045 0.07679 0.0467 0.0
O209 O 0.27342 0.08831 0.04959 0.0
O210 O 0.29233 0.09751 0.02016 0.0
C211 C 0.32142 0.06168 0.08807 0.0
C212 C 0.31028 0.0385 0.02197 0.0
C213 C 0.34089 0.11072 0.04914 0.0
O214 O 0.30245 0.0709 0.08418 0.0
O215 O 0.33373 0.05861 0.07088 0.0
O216 O 0.3428 0.09486 0.03485 0.0
O217 O 0.32358 0.1097 0.06161 0.0
C218 C 0.27377 0.09838 0.03069 0.0
O219 O 0.3236 0.05475 0.01779 0.0
O220 O 0.29699 0.04165 0.03844 0.0
In221 In 0.8095 0.91998 0.44725 0.0
O222 O 0.82209 0.94106 0.47717 0.0
O223 O 0.79658 0.95523 0.45583 0.0
C224 C 0.83625 0.88321 0.4464 0.0
C225 C 0.77173 0.89925 0.46158 0.0
C226 C 0.8238 0.9371 0.40758 0.0
O227 O 0.8407 0.90017 0.45877 0.0
O228 O 0.81819 0.8847 0.43505 0.0
O229 O 0.80333 0.93136 0.4106 0.0
O230 O 0.83659 0.93453 0.42449 0.0
C231 C 0.80937 0.95776 0.4728 0.0
O232 O 0.77318 0.90709 0.44166 0.0
O233 O 0.7888 0.90242 0.47403 0.0
In234 In 0.3349 0.05611 0.70148 0.0
O235 O 0.31251 0.06659 0.73117 0.0
O236 O 0.29868 0.04399 0.70648 0.0
C237 C 0.37452 0.07874 0.70642 0.0
C238 C 0.35194 0.01509 0.71083 0.0
C239 C 0.32121 0.07887 0.66466 0.0
O240 O 0.35782 0.08165 0.71961 0.0
O241 O 0.37064 0.06475 0.69074 0.0
O242 O 0.32552 0.05784 0.66374 0.0
O243 O 0.32335 0.08786 0.68392 0.0
C244 C 0.29564 0.05511 0.72453 0.0
O245 O 0.34595 0.02026 0.69087 0.0
O246 O 0.34859 0.0301 0.72567 0.0
In247 In 0.19326 0.57995 0.94675 0.0
O248 O 0.17824 0.55866 0.97519 0.0
O249 O 0.20694 0.54553 0.95757 0.0
C250 C 0.16267 0.6137 0.94506 0.0
C251 C 0.23076 0.60093 0.96163 0.0
C252 C 0.18172 0.56449 0.90556 0.0
O253 O 0.16195 0.59853 0.96017 0.0
O254 O 0.17901 0.6122 0.93137 0.0
O255 O 0.20009 0.57503 0.90887 0.0
O256 O 0.17045 0.56028 0.9232 0.0
C257 C 0.1923 0.54268 0.97291 0.0
O258 O 0.23111 0.58865 0.9441 0.0
O259 O 0.21182 0.6026 0.97132 0.0
In260 In 0.17275 0.94267 0.1943 0.0
O261 O 0.16025 0.97935 0.19091 0.0
O262 O 0.15534 0.96196 0.22229 0.0
C263 C 0.18784 0.93112 0.15282 0.0
C264 C 0.2113 0.94253 0.21879 0.0
C265 C 0.13673 0.9146 0.19466 0.0
O266 O 0.18005 0.95068 0.15686 0.0
O267 O 0.18872 0.91806 0.16967 0.0
O268 O 0.1539 0.9112 0.20703 0.0
O269 O 0.13761 0.93223 0.1826 0.0
C270 C 0.15243 0.97977 0.21087 0.0
O271 O 0.19586 0.92795 0.22161 0.0
O272 O 0.20732 0.95715 0.20368 0.0
In273 In 0.69246 0.92391 0.04908 0.0
O274 O 0.72848 0.91089 0.05562 0.0
O275 O 0.71226 0.90299 0.02413 0.0
C276 C 0.67684 0.94284 0.08744 0.0
C277 C 0.69477 0.9606 0.02209 0.0
C278 C 0.66367 0.88874 0.05177 0.0
O279 O 0.69713 0.93594 0.08588 0.0
O280 O 0.66546 0.94142 0.06944 0.0
O281 O 0.66164 0.90397 0.03679 0.0
O282 O 0.68062 0.89079 0.06466 0.0
C283 C 0.72955 0.90108 0.03657 0.0
O284 O 0.67968 0.94556 0.01973 0.0
O285 O 0.70898 0.95682 0.03765 0.0
In286 In 0.33304 0.44348 0.79974 0.0
O287 O 0.31255 0.43292 0.76882 0.0
O288 O 0.29823 0.45744 0.79137 0.0
C289 C 0.3706 0.41753 0.79972 0.0
C290 C 0.35141 0.48337 0.78923 0.0
C291 C 0.31635 0.42317 0.83683 0.0
O292 O 0.35356 0.41291 0.78751 0.0
O293 O 0.36914 0.4359 0.81049 0.0
O294 O 0.32608 0.44229 0.83811 0.0
O295 O 0.3141 0.41543 0.81709 0.0
C296 C 0.29581 0.44543 0.77378 0.0
O297 O 0.34193 0.48028 0.80828 0.0
O298 O 0.35101 0.46675 0.77574 0.0
In299 In 0.67098 0.05762 0.30343 0.0
O300 O 0.69377 0.07245 0.27607 0.0
O301 O 0.70551 0.04321 0.29374 0.0
C302 C 0.63456 0.08523 0.30214 0.0
C303 C 0.65178 0.01994 0.2871 0.0
C304 C 0.68547 0.07 0.34487 0.0
O305 O 0.65298 0.09011 0.29234 0.0
O306 O 0.6343 0.06612 0.31168 0.0
O307 O 0.67789 0.0503 0.34115 0.0
O308 O 0.68646 0.08267 0.32776 0.0
C309 C 0.70932 0.05794 0.27868 0.0
O310 O 0.65839 0.02112 0.30748 0.0
O311 O 0.65532 0.03734 0.27517 0.0
In312 In 0.04953 0.80698 0.58199 0.0
O313 O 0.05519 0.77042 0.59405 0.0
O314 O 0.023 0.78601 0.59963 0.0
C315 C 0.09031 0.82037 0.56687 0.0
C316 C 0.02526 0.80717 0.54333 0.0
C317 C 0.04729 0.83505 0.61795 0.0
O318 O 0.08715 0.8006 0.57456 0.0
O319 O 0.07291 0.83275 0.56604 0.0
O320 O 0.03228 0.83482 0.60266 0.0
O321 O 0.06301 0.82081 0.61535 0.0
C322 C 0.03538 0.7688 0.60208 0.0
O323 O 0.02307 0.82229 0.55832 0.0
O324 O 0.0397 0.79201 0.54777 0.0
In325 In 0.94253 0.80467 0.82983 0.0
O326 O 0.97969 0.80931 0.8403 0.0
O327 O 0.96144 0.7805 0.85247 0.0
C328 C 0.92945 0.84555 0.81468 0.0
C329 C 0.94492 0.77841 0.7927 0.0
C330 C 0.91031 0.80378 0.8621 0.0
O331 O 0.94711 0.84317 0.82659 0.0
O332 O 0.9198 0.82738 0.80909 0.0
O333 O 0.90913 0.79168 0.84447 0.0
O334 O 0.92792 0.81575 0.86377 0.0
C335 C 0.97982 0.79138 0.85204 0.0
O336 O 0.93121 0.77452 0.80867 0.0
O337 O 0.95772 0.79534 0.79557 0.0
In338 In 0.95116 0.68985 0.07741 0.0
O339 O 0.94828 0.72653 0.08982 0.0
O340 O 0.97896 0.70834 0.0961 0.0
C341 C 0.90945 0.67887 0.063 0.0
C342 C 0.9749 0.68978 0.0385 0.0
C343 C 0.95008 0.66003 0.11194 0.0
O344 O 0.91345 0.69776 0.07232 0.0
O345 O 0.92663 0.66668 0.05949 0.0
O346 O 0.96421 0.65823 0.09594 0.0
O347 O 0.93709 0.67693 0.11075 0.0
C348 C 0.96792 0.72648 0.09838 0.0
O349 O 0.97788 0.67504 0.05375 0.0
O350 O 0.96008 0.7046 0.04292 0.0
In351 In 0.06047 0.69778 0.33011 0.0
O352 O 0.02405 0.69438 0.3433 0.0
O353 O 0.04217 0.72512 0.34947 0.0
C354 C 0.07141 0.65665 0.31385 0.0
C355 C 0.05985 0.72335 0.29239 0.0
C356 C 0.08942 0.69637 0.36529 0.0
O357 O 0.05192 0.66074 0.32182 0.0
O358 O 0.08464 0.6734 0.31316 0.0
O359 O 0.09221 0.7099 0.34889 0.0
O360 O 0.07202 0.68401 0.36404 0.0
C361 C 0.02411 0.71399 0.35198 0.0
O362 O 0.07466 0.72588 0.30765 0.0
O363 O 0.04544 0.70797 0.29611 0.0
In364 In 0.05153 0.19232 0.42016 0.0
O365 O 0.02163 0.18093 0.44179 0.0
O366 O 0.04367 0.20627 0.45524 0.0
C367 C 0.05044 0.16148 0.38661 0.0
C368 C 0.03724 0.23007 0.39942 0.0
C369 C 0.09259 0.17965 0.43527 0.0
O370 O 0.03893 0.15932 0.40454 0.0
O371 O 0.06212 0.17932 0.38538 0.0
O372 O 0.08983 0.1977 0.42403 0.0
O373 O 0.07469 0.16896 0.43983 0.0
C374 C 0.02643 0.1939 0.45813 0.0
O375 O 0.05628 0.22932 0.40923 0.0
O376 O 0.02569 0.21212 0.40021 0.0
In377 In 0.55923 0.80197 0.67201 0.0
O378 O 0.5732 0.77423 0.69484 0.0
O379 O 0.54506 0.79348 0.7069 0.0
C380 C 0.58991 0.80136 0.63811 0.0
C381 C 0.52196 0.78567 0.65184 0.0
C382 C 0.57039 0.84386 0.68598 0.0
O383 O 0.59235 0.78982 0.65597 0.0
O384 O 0.57187 0.81273 0.6371 0.0
O385 O 0.55225 0.84013 0.67519 0.0
O386 O 0.58163 0.82645 0.69102 0.0
C387 C 0.55926 0.77789 0.71067 0.0
O388 O 0.52233 0.80531 0.66039 0.0
O389 O 0.54002 0.77441 0.65373 0.0
In390 In 0.95653 0.30751 0.91486 0.0
O391 O 0.98512 0.31816 0.9384 0.0
O392 O 0.96301 0.29172 0.94942 0.0
C393 C 0.96127 0.33581 0.87945 0.0
C394 C 0.9649 0.2675 0.89509 0.0
C395 C 0.91978 0.32903 0.93091 0.0
O396 O 0.97718 0.33232 0.89339 0.0
O397 O 0.94381 0.32389 0.88262 0.0
O398 O 0.91827 0.3096 0.92185 0.0
O399 O 0.93962 0.33682 0.93255 0.0
C400 C 0.97974 0.30434 0.95386 0.0
O401 O 0.94563 0.27183 0.90347 0.0
O402 O 0.97945 0.28302 0.89684 0.0
In403 In 0.44195 0.69852 0.17133 0.0
O404 O 0.43088 0.72771 0.19385 0.0
O405 O 0.45723 0.70615 0.20604 0.0
C406 C 0.40918 0.70013 0.13979 0.0
C407 C 0.47854 0.71301 0.14846 0.0
C408 C 0.42871 0.65709 0.1849 0.0
O409 O 0.40881 0.71266 0.15716 0.0
O410 O 0.42636 0.68758 0.13794 0.0
O411 O 0.44656 0.65989 0.17334 0.0
O412 O 0.41894 0.67506 0.19093 0.0
C413 C 0.44452 0.723 0.20965 0.0
O414 O 0.47898 0.69479 0.15974 0.0
O415 O 0.46 0.7236 0.14888 0.0
In416 In 0.0793 0.5545 0.80881 0.0
O417 O 0.05787 0.5256 0.82316 0.0
O418 O 0.04403 0.5453 0.79617 0.0
C419 C 0.1157 0.55591 0.83613 0.0
C420 C 0.10012 0.53703 0.77237 0.0
C421 C 0.06361 0.59598 0.81938 0.0
O422 O 0.0983 0.54434 0.84101 0.0
O423 O 0.11463 0.56654 0.81763 0.0
O424 O 0.07132 0.59154 0.79985 0.0
O425 O 0.06327 0.57953 0.833 0.0
C426 C 0.04141 0.52912 0.80992 0.0
O427 O 0.09102 0.55645 0.77171 0.0
O428 O 0.09822 0.5266 0.7909 0.0
In429 In 0.20145 0.83298 0.05399 0.0
O430 O 0.19347 0.84066 0.01683 0.0
O431 O 0.22617 0.84929 0.03035 0.0
C432 C 0.16404 0.81794 0.07504 0.0
C433 C 0.22584 0.79479 0.05269 0.0
C434 C 0.20253 0.87099 0.07914 0.0
O435 O 0.16275 0.82885 0.05659 0.0
O436 O 0.18386 0.81347 0.08155 0.0
O437 O 0.21462 0.85389 0.08393 0.0
O438 O 0.19151 0.86936 0.06094 0.0
C439 C 0.21286 0.8494 0.01359 0.0
O440 O 0.23142 0.81143 0.0651 0.0
O441 O 0.20847 0.79781 0.04046 0.0
In442 In 0.91747 0.9529 0.3083 0.0
O443 O 0.90507 0.94453 0.27242 0.0
O444 O 0.90304 0.97873 0.28436 0.0
C445 C 0.93063 0.91428 0.32819 0.0
C446 C 0.95739 0.97476 0.30651 0.0
C447 C 0.87911 0.95872 0.33285 0.0
O448 O 0.9251 0.91472 0.30745 0.0
O449 O 0.92983 0.93307 0.33832 0.0
O450 O 0.89665 0.97075 0.33574 0.0
O451 O 0.88153 0.9436 0.31793 0.0
C452 C 0.89903 0.96479 0.26867 0.0
O453 O 0.94157 0.98081 0.31966 0.0
O454 O 0.95298 0.95786 0.29412 0.0
In455 In 0.79844 0.6662 0.55994 0.0
O456 O 0.80585 0.65565 0.52333 0.0
O457 O 0.77218 0.65196 0.53645 0.0
C458 C 0.83683 0.67938 0.58017 0.0
C459 C 0.77599 0.70585 0.56003 0.0
C460 C 0.79485 0.6261 0.58187 0.0
O461 O 0.83637 0.67499 0.55914 0.0
O462 O 0.81815 0.67753 0.59038 0.0
O463 O 0.78173 0.64265 0.5859 0.0
O464 O 0.80985 0.63044 0.56727 0.0
C465 C 0.78566 0.64903 0.52011 0.0
O466 O 0.77095 0.68984 0.5734 0.0
O467 O 0.79212 0.70172 0.54655 0.0
In468 In 0.08017 0.45268 0.19455 0.0
O469 O 0.09022 0.44372 0.23096 0.0
O470 O 0.09762 0.47692 0.21802 0.0
C471 C 0.0642 0.41565 0.17335 0.0
C472 C 0.04238 0.47779 0.19753 0.0
C473 C 0.11782 0.45378 0.16879 0.0
O474 O 0.07353 0.41422 0.19266 0.0
O475 O 0.0619 0.4355 0.16588 0.0
O476 O 0.10055 0.4657 0.16417 0.0
O477 O 0.11645 0.4428 0.18702 0.0
C478 C 0.099 0.46307 0.23429 0.0
O479 O 0.05869 0.48317 0.18463 0.0
O480 O 0.04552 0.46019 0.20938 0.0
In481 In 0.29918 0.8323 0.44336 0.0
O482 O 0.30456 0.84597 0.47945 0.0
O483 O 0.27352 0.8533 0.46231 0.0
C484 C 0.33973 0.81768 0.42837 0.0
C485 C 0.2755 0.79364 0.44787 0.0
C486 C 0.29685 0.86425 0.41099 0.0
O487 O 0.33795 0.8291 0.44645 0.0
O488 O 0.32122 0.81245 0.41915 0.0
O489 O 0.28379 0.84724 0.41107 0.0
O490 O 0.31015 0.86558 0.42763 0.0
C491 C 0.28536 0.85554 0.47995 0.0
O492 O 0.27066 0.80847 0.43321 0.0
O493 O 0.29207 0.79845 0.46059 0.0
In494 In 0.92254 0.04853 0.68904 0.0
O495 O 0.94176 0.01672 0.678 0.0
O496 O 0.95858 0.04012 0.69985 0.0
C497 C 0.88577 0.04888 0.66204 0.0
C498 C 0.90324 0.03522 0.7279 0.0
C499 C 0.93898 0.08858 0.67455 0.0
O500 O 0.90386 0.03876 0.65657 0.0
O501 O 0.88599 0.05785 0.68143 0.0
O502 O 0.93355 0.08556 0.6951 0.0
O503 O 0.93673 0.07142 0.66203 0.0
C504 C 0.95944 0.02168 0.68904 0.0
O505 O 0.91014 0.05538 0.72529 0.0
O506 O 0.90666 0.02207 0.71141 0.0
In507 In 0.6981 0.66894 0.94335 0.0
O508 O 0.72532 0.69233 0.92911 0.0
O509 O 0.70579 0.70395 0.95731 0.0
C510 C 0.69609 0.63343 0.9146 0.0
C511 C 0.71623 0.64835 0.97973 0.0
C512 C 0.65829 0.68698 0.9309 0.0
O513 O 0.71072 0.64902 0.91271 0.0
O514 O 0.68272 0.63558 0.93114 0.0
O515 O 0.66125 0.67922 0.95074 0.0
O516 O 0.67539 0.68613 0.91812 0.0
C517 C 0.72122 0.70813 0.94304 0.0
O518 O 0.69537 0.65341 0.97903 0.0
O519 O 0.72757 0.65401 0.96254 0.0
In520 In 0.31362 0.57911 0.54905 0.0
O521 O 0.27619 0.58778 0.55462 0.0
O522 O 0.29104 0.59372 0.52208 0.0
C523 C 0.32949 0.56494 0.5892 0.0
C524 C 0.31607 0.5405 0.52498 0.0
C525 C 0.33555 0.61942 0.54715 0.0
O526 O 0.30897 0.5706 0.58664 0.0
O527 O 0.34165 0.56626 0.57169 0.0
O528 O 0.34108 0.60272 0.53483 0.0
O529 O 0.31951 0.61517 0.56056 0.0
C530 C 0.27382 0.59527 0.53465 0.0
O531 O 0.32926 0.55702 0.52135 0.0
O532 O 0.30177 0.54351 0.54061 0.0
In533 In 0.8121 0.42005 0.95247 0.0
O534 O 0.82313 0.44235 0.98192 0.0
O535 O 0.79681 0.45467 0.96038 0.0
C536 C 0.84472 0.38816 0.95225 0.0
C537 C 0.77584 0.39685 0.96737 0.0
C538 C 0.82399 0.43484 0.9111 0.0
O539 O 0.84585 0.40543 0.96488 0.0
O540 O 0.82694 0.38661 0.94055 0.0
O541 O 0.80587 0.42379 0.91424 0.0
O542 O 0.83483 0.4397 0.92882 0.0
C543 C 0.80943 0.45816 0.97732 0.0
O544 O 0.7757 0.40687 0.94842 0.0
O545 O 0.79397 0.39867 0.97853 0.0
In546 In 0.3291 0.55695 0.19903 0.0
O547 O 0.34301 0.52139 0.19144 0.0
O548 O 0.34735 0.53536 0.22461 0.0
C549 C 0.30952 0.57312 0.16125 0.0
C550 C 0.29177 0.55586 0.22515 0.0
C551 C 0.36521 0.58456 0.1971 0.0
O552 O 0.31413 0.55223 0.16332 0.0
O553 O 0.31457 0.58518 0.17814 0.0
O554 O 0.34971 0.58718 0.21172 0.0
O555 O 0.36276 0.56773 0.1841 0.0
C556 C 0.3509 0.51906 0.21126 0.0
O557 O 0.3083 0.56884 0.22945 0.0
O558 O 0.29436 0.54316 0.20814 0.0
In559 In 0.18916 0.08128 0.45254 0.0
O560 O 0.22667 0.09075 0.44894 0.0
O561 O 0.2098 0.09685 0.48047 0.0
C562 C 0.1742 0.06633 0.41235 0.0
C563 C 0.18684 0.04285 0.47675 0.0
C564 C 0.16648 0.12106 0.45247 0.0
O565 O 0.19472 0.07196 0.4152 0.0
O566 O 0.16172 0.06795 0.4296 0.0
O567 O 0.16093 0.10469 0.46524 0.0
O568 O 0.18304 0.11677 0.43969 0.0
C569 C 0.22771 0.09855 0.46892 0.0
O570 O 0.17327 0.05915 0.48001 0.0
O571 O 0.20142 0.04599 0.4614 0.0
In572 In 0.17313 0.4432 0.69845 0.0
O573 O 0.16011 0.47973 0.69594 0.0
O574 O 0.15463 0.46129 0.72661 0.0
C575 C 0.18794 0.43286 0.65662 0.0
C576 C 0.21195 0.44378 0.72254 0.0
C577 C 0.13812 0.41392 0.69792 0.0
O578 O 0.17962 0.4521 0.66113 0.0
O579 O 0.18966 0.41959 0.67327 0.0
O580 O 0.15513 0.41098 0.71063 0.0
O581 O 0.13863 0.43168 0.68602 0.0
C582 C 0.15177 0.47942 0.71568 0.0
O583 O 0.1968 0.42894 0.72556 0.0
O584 O 0.20754 0.45828 0.70744 0.0
In585 In 0.68569 0.41551 0.54557 0.0
O586 O 0.72171 0.40447 0.55545 0.0
O587 O 0.71137 0.40202 0.52083 0.0
C588 C 0.66576 0.42949 0.58392 0.0
C589 C 0.68663 0.4546 0.52215 0.0
C590 C 0.66223 0.37626 0.54051 0.0
O591 O 0.68646 0.42385 0.58344 0.0
O592 O 0.65547 0.42838 0.56523 0.0
O593 O 0.65851 0.39361 0.52845 0.0
O594 O 0.67732 0.37934 0.55532 0.0
C595 C 0.72663 0.39868 0.5354 0.0
O596 O 0.67514 0.43769 0.51566 0.0
O597 O 0.69759 0.45174 0.54031 0.0
In598 In 0.33209 0.9413 0.29636 0.0
O599 O 0.31126 0.92988 0.26603 0.0
O600 O 0.29713 0.9549 0.28821 0.0
C601 C 0.37011 0.91619 0.297 0.0
C602 C 0.34979 0.98074 0.2834 0.0
C603 C 0.31591 0.92169 0.33406 0.0
O604 O 0.35314 0.91083 0.28498 0.0
O605 O 0.36829 0.93482 0.30728 0.0
O606 O 0.32533 0.941 0.33479 0.0
O607 O 0.31366 0.91343 0.31452 0.0
C608 C 0.29462 0.94258 0.27085 0.0
O609 O 0.34088 0.97853 0.30285 0.0
O610 O 0.34921 0.96346 0.27077 0.0
In611 In 0.66943 0.55492 0.80032 0.0
O612 O 0.66065 0.51746 0.80607 0.0
O613 O 0.64958 0.53373 0.7756 0.0
C614 C 0.68495 0.56989 0.84055 0.0
C615 C 0.70642 0.55434 0.77397 0.0
C616 C 0.6364 0.58656 0.80004 0.0
O617 O 0.66806 0.55682 0.83908 0.0
O618 O 0.69562 0.57257 0.82233 0.0
O619 O 0.65449 0.58896 0.78878 0.0
O620 O 0.63428 0.56762 0.80964 0.0
C621 C 0.65006 0.51596 0.78747 0.0
O622 O 0.69066 0.56869 0.77128 0.0
O623 O 0.70311 0.53989 0.78948 0.0
In624 In 0.54907 0.30478 0.5795 0.0
O625 O 0.52224 0.31788 0.55502 0.0
O626 O 0.53751 0.28604 0.54768 0.0
C627 C 0.54747 0.33474 0.61371 0.0
C628 C 0.53575 0.26849 0.6033 0.0
C629 C 0.58868 0.31874 0.56145 0.0
O630 O 0.53346 0.33519 0.59749 0.0
O631 O 0.56211 0.31918 0.61277 0.0
O632 O 0.58651 0.29916 0.56997 0.0
O633 O 0.57089 0.33051 0.56142 0.0
C634 C 0.52372 0.30124 0.54163 0.0
O635 O 0.55513 0.26922 0.59408 0.0
O636 O 0.5234 0.28567 0.60028 0.0
In637 In 0.43859 0.30075 0.83019 0.0
O638 O 0.47528 0.30324 0.84266 0.0
O639 O 0.45637 0.27317 0.84989 0.0
C640 C 0.42872 0.34231 0.81421 0.0
C641 C 0.43816 0.27547 0.79216 0.0
C642 C 0.40972 0.30243 0.86545 0.0
O643 O 0.44801 0.33773 0.82237 0.0
O644 O 0.41518 0.32584 0.81318 0.0
O645 O 0.40693 0.28874 0.84919 0.0
O646 O 0.42719 0.31468 0.86413 0.0
C647 C 0.47475 0.2839 0.8519 0.0
O648 O 0.42248 0.27458 0.80671 0.0
O649 O 0.45408 0.28897 0.79684 0.0
In650 In 0.45172 0.19291 0.08403 0.0
O651 O 0.48105 0.18003 0.06245 0.0
O652 O 0.45904 0.20496 0.04818 0.0
C653 C 0.45505 0.1705 0.12393 0.0
C654 C 0.46203 0.23368 0.10105 0.0
C655 C 0.41431 0.17183 0.06922 0.0
O656 O 0.46873 0.1673 0.10769 0.0
O657 O 0.43963 0.18461 0.11943 0.0
O658 O 0.41423 0.19291 0.07333 0.0
O659 O 0.43301 0.16196 0.07223 0.0
C660 C 0.47606 0.19222 0.04554 0.0
O661 O 0.44208 0.22916 0.09451 0.0
O662 O 0.47642 0.21813 0.0983 0.0
In663 In 0.5595 0.19971 0.32763 0.0
O664 O 0.57236 0.22922 0.306 0.0
O665 O 0.54758 0.20713 0.29172 0.0
C666 C 0.58606 0.19975 0.36484 0.0
C667 C 0.52088 0.21415 0.34667 0.0
C668 C 0.57333 0.15884 0.31319 0.0
O669 O 0.59131 0.2107 0.34716 0.0
O670 O 0.56723 0.18971 0.36391 0.0
O671 O 0.55293 0.16237 0.3188 0.0
O672 O 0.58613 0.17591 0.31412 0.0
C673 C 0.56015 0.22425 0.2891 0.0
O674 O 0.52296 0.19401 0.33958 0.0
O675 O 0.53784 0.22683 0.34366 0.0
In676 In 0.55235 0.69237 0.42107 0.0
O677 O 0.55612 0.72918 0.40918 0.0
O678 O 0.52503 0.71163 0.40285 0.0
C679 C 0.5933 0.67844 0.43502 0.0
C680 C 0.52864 0.69449 0.45974 0.0
C681 C 0.55113 0.6618 0.38732 0.0
O682 O 0.59088 0.69682 0.42421 0.0
O683 O 0.57516 0.66843 0.44013 0.0
O684 O 0.5386 0.66012 0.40463 0.0
O685 O 0.56339 0.67927 0.38662 0.0
C686 C 0.53635 0.72962 0.40086 0.0
O687 O 0.52407 0.68045 0.44422 0.0
O688 O 0.54519 0.70752 0.4558 0.0
In689 In 0.05789 0.30183 0.67113 0.0
O690 O 0.02051 0.30704 0.66146 0.0
O691 O 0.03781 0.2775 0.64964 0.0
C692 C 0.0734 0.3421 0.68571 0.0
C693 C 0.05574 0.27647 0.70883 0.0
C694 C 0.08882 0.30039 0.63775 0.0
O695 O 0.05506 0.34051 0.6747 0.0
O696 O 0.08258 0.32351 0.69073 0.0
O697 O 0.0897 0.28718 0.6546 0.0
O698 O 0.07192 0.31344 0.63727 0.0
C699 C 0.0197 0.28878 0.65024 0.0
O700 O 0.06891 0.27182 0.69259 0.0
O701 O 0.04348 0.29379 0.70602 0.0
In702 In 0.45065 0.80743 0.92079 0.0
O703 O 0.47589 0.82241 0.9459 0.0
O704 O 0.4608 0.79072 0.95419 0.0
C705 C 0.45484 0.83686 0.88632 0.0
C706 C 0.46301 0.76974 0.89863 0.0
C707 C 0.41036 0.82131 0.93711 0.0
O708 O 0.4697 0.83513 0.90166 0.0
O709 O 0.43839 0.82332 0.88798 0.0
O710 O 0.41398 0.80076 0.93212 0.0
O711 O 0.42701 0.83437 0.93429 0.0
C712 C 0.47412 0.80641 0.96 0.0
O713 O 0.44259 0.77314 0.90418 0.0
O714 O 0.47682 0.78494 0.90446 0.0
In715 In 0.93847 0.20009 0.17203 0.0
O716 O 0.97566 0.19679 0.16108 0.0
O717 O 0.95688 0.22599 0.15085 0.0
C718 C 0.92646 0.15844 0.18553 0.0
C719 C 0.93972 0.22474 0.21028 0.0
C720 C 0.90654 0.19967 0.13954 0.0
O721 O 0.94475 0.16186 0.17486 0.0
O722 O 0.91568 0.17604 0.19096 0.0
O723 O 0.90474 0.21195 0.157 0.0
O724 O 0.92462 0.1884 0.13812 0.0
C725 C 0.97544 0.21542 0.1505 0.0
O726 O 0.92734 0.23003 0.19364 0.0
O727 O 0.95165 0.20717 0.20755 0.0
In728 In 0.57806 0.05517 0.80426 0.0
O729 O 0.59033 0.06046 0.76778 0.0
O730 O 0.59416 0.02782 0.78321 0.0
C731 C 0.56284 0.09555 0.81903 0.0
C732 C 0.54007 0.02997 0.80324 0.0
C733 C 0.61514 0.05433 0.8309 0.0
O734 O 0.57011 0.09302 0.79901 0.0
O735 O 0.56252 0.07778 0.83085 0.0
O736 O 0.59728 0.04357 0.83595 0.0
O737 O 0.61444 0.06466 0.81221 0.0
C738 C 0.59736 0.04023 0.7661 0.0
O739 O 0.55616 0.02592 0.81682 0.0
O740 O 0.54313 0.04671 0.79025 0.0
In741 In 0.69806 0.3272 0.05952 0.0
O742 O 0.72587 0.30462 0.07424 0.0
O743 O 0.7058 0.29154 0.04713 0.0
C744 C 0.69868 0.36415 0.08626 0.0
C745 C 0.7164 0.34569 0.0223 0.0
C746 C 0.65602 0.31286 0.07015 0.0
O747 O 0.70899 0.34612 0.09157 0.0
O748 O 0.6885 0.36357 0.06749 0.0
O749 O 0.66073 0.32032 0.0506 0.0
O750 O 0.67244 0.31213 0.08379 0.0
C751 C 0.72183 0.28831 0.06094 0.0
O752 O 0.69579 0.3397 0.02276 0.0
O753 O 0.72754 0.34175 0.04009 0.0
In754 In 0.42167 0.45086 0.30618 0.0
O755 O 0.41225 0.44457 0.26905 0.0
O756 O 0.40382 0.47642 0.2845 0.0
C757 C 0.43665 0.41196 0.32477 0.0
C758 C 0.45959 0.47559 0.30395 0.0
C759 C 0.3858 0.45143 0.33424 0.0
O760 O 0.4238 0.41191 0.30757 0.0
O761 O 0.4435 0.43123 0.33076 0.0
O762 O 0.40363 0.46263 0.33845 0.0
O763 O 0.38542 0.44199 0.31511 0.0
C764 C 0.40306 0.46393 0.26714 0.0
O765 O 0.44366 0.4803 0.31759 0.0
O766 O 0.45602 0.45882 0.29105 0.0
In767 In 0.30161 0.17405 0.56009 0.0
O768 O 0.27489 0.19834 0.57393 0.0
O769 O 0.29192 0.20753 0.54342 0.0
C770 C 0.3034 0.14101 0.5914 0.0
C771 C 0.28522 0.15019 0.52504 0.0
C772 C 0.34324 0.18879 0.5708 0.0
O773 O 0.28854 0.15647 0.59221 0.0
O774 O 0.31679 0.14203 0.57479 0.0
O775 O 0.33932 0.17896 0.55215 0.0
O776 O 0.32599 0.19273 0.58276 0.0
C777 C 0.27743 0.21275 0.55829 0.0
O778 O 0.30382 0.16077 0.52363 0.0
O779 O 0.27508 0.15188 0.54377 0.0
In780 In 0.57935 0.95283 0.19049 0.0
O781 O 0.59325 0.94521 0.2262 0.0
O782 O 0.59916 0.97776 0.21163 0.0
C783 C 0.56287 0.91208 0.17871 0.0
C784 C 0.54069 0.97738 0.19032 0.0
C785 C 0.61436 0.95508 0.16083 0.0
O786 O 0.57076 0.91575 0.19833 0.0
O787 O 0.56241 0.92908 0.16575 0.0
O788 O 0.60307 0.97235 0.16657 0.0
O789 O 0.60811 0.93698 0.17028 0.0
C790 C 0.60191 0.96471 0.22828 0.0
O791 O 0.55414 0.97698 0.17369 0.0
O792 O 0.54687 0.9657 0.20712 0.0
In793 In 0.80135 0.32827 0.4445 0.0
O794 O 0.80493 0.3392 0.48164 0.0
O795 O 0.7752 0.34879 0.46328 0.0
C796 C 0.84257 0.3135 0.43201 0.0
C797 C 0.77607 0.29035 0.44523 0.0
C798 C 0.80124 0.36227 0.41404 0.0
O799 O 0.83964 0.32422 0.45033 0.0
O800 O 0.82472 0.3089 0.42128 0.0
O801 O 0.78901 0.34483 0.41172 0.0
O802 O 0.81302 0.3628 0.43184 0.0
C803 C 0.78607 0.34942 0.48165 0.0
O804 O 0.77279 0.3061 0.43111 0.0
O805 O 0.7919 0.29382 0.45924 0.0
In806 In 0.42091 0.55064 0.69554 0.0
O807 O 0.44226 0.52002 0.68628 0.0
O808 O 0.45555 0.54352 0.71056 0.0
C809 C 0.38523 0.54878 0.66724 0.0
C810 C 0.40205 0.53957 0.735 0.0
C811 C 0.43583 0.5889 0.67583 0.0
O812 O 0.40341 0.5381 0.66327 0.0
O813 O 0.38445 0.55838 0.68628 0.0
O814 O 0.42324 0.58947 0.69321 0.0
O815 O 0.44233 0.56944 0.67003 0.0
C816 C 0.45853 0.52561 0.69915 0.0
O817 O 0.41131 0.55879 0.73226 0.0
O818 O 0.40284 0.52628 0.71826 0.0
In819 In 0.19797 0.1705 0.93864 0.0
O820 O 0.19484 0.15637 0.97469 0.0
O821 O 0.22581 0.15144 0.9565 0.0
C822 C 0.15601 0.18309 0.92633 0.0
C823 C 0.22069 0.20966 0.94285 0.0
C824 C 0.20032 0.13903 0.90585 0.0
O825 O 0.15947 0.17175 0.9442 0.0
O826 O 0.17361 0.18944 0.91607 0.0
O827 O 0.21168 0.15717 0.90497 0.0
O828 O 0.18867 0.13638 0.92355 0.0
C829 C 0.2147 0.14827 0.97446 0.0
O830 O 0.22552 0.1951 0.92792 0.0
O831 O 0.20436 0.20453 0.95572 0.0
In832 In 0.81015 0.07965 0.5493 0.0
O833 O 0.82188 0.0584 0.51917 0.0
O834 O 0.79757 0.04402 0.54167 0.0
C835 C 0.83875 0.11513 0.55034 0.0
C836 C 0.77232 0.10068 0.53532 0.0
C837 C 0.8239 0.0638 0.58963 0.0
O838 O 0.84189 0.09848 0.53719 0.0
O839 O 0.82102 0.11408 0.56224 0.0
O840 O 0.80382 0.07074 0.58662 0.0
O841 O 0.83634 0.06403 0.57226 0.0
C842 C 0.80967 0.04153 0.52421 0.0
O843 O 0.77353 0.0917 0.55474 0.0
O844 O 0.7898 0.09875 0.52319 0.0
In845 In 0.31006 0.91516 0.94797 0.0
O846 O 0.27449 0.90305 0.93768 0.0
O847 O 0.28421 0.90144 0.97248 0.0
C848 C 0.32864 0.9294 0.90908 0.0
C849 C 0.30995 0.95411 0.97173 0.0
C850 C 0.33455 0.87674 0.95392 0.0
O851 O 0.30779 0.92457 0.91043 0.0
O852 O 0.3398 0.92724 0.92716 0.0
O853 O 0.33721 0.8942 0.96607 0.0
O854 O 0.32012 0.8793 0.93837 0.0
C855 C 0.26934 0.89743 0.9577 0.0
O856 O 0.32122 0.93696 0.97786 0.0
O857 O 0.29863 0.95156 0.95376 0.0
In858 In 0.82751 0.05761 0.19676 0.0
O859 O 0.80775 0.07096 0.22731 0.0
O860 O 0.79237 0.04536 0.20697 0.0
C861 C 0.86328 0.08579 0.19512 0.0
C862 C 0.84815 0.01979 0.21131 0.0
C863 C 0.81043 0.06928 0.1561 0.0
O864 O 0.84637 0.08959 0.20772 0.0
O865 O 0.86228 0.06771 0.18376 0.0
O866 O 0.8185 0.04976 0.15976 0.0
O867 O 0.81029 0.08236 0.17299 0.0
C868 C 0.79083 0.05829 0.22394 0.0
O869 O 0.83815 0.0204 0.19237 0.0
O870 O 0.8474 0.03782 0.2227 0.0
In871 In 0.69255 0.57774 0.44806 0.0
O872 O 0.67845 0.55647 0.47718 0.0
O873 O 0.70439 0.54206 0.45658 0.0
C874 C 0.66483 0.61389 0.44664 0.0
C875 C 0.73038 0.59812 0.46291 0.0
C876 C 0.6801 0.56186 0.40735 0.0
O877 O 0.66143 0.59752 0.46007 0.0
O878 O 0.68234 0.61221 0.43449 0.0
O879 O 0.70025 0.56813 0.41123 0.0
O880 O 0.66682 0.56289 0.42404 0.0
C881 C 0.69089 0.53954 0.47298 0.0
O882 O 0.72945 0.58923 0.44345 0.0
O883 O 0.7127 0.59628 0.47474 0.0
In884 In 0.66905 0.94462 0.6971 0.0
O885 O 0.68995 0.93293 0.72744 0.0
O886 O 0.70452 0.95731 0.70507 0.0
C887 C 0.63294 0.91684 0.69641 0.0
C888 C 0.6483 0.98271 0.71061 0.0
C889 C 0.68618 0.92991 0.65765 0.0
O890 O 0.64956 0.91351 0.70956 0.0
O891 O 0.63438 0.93434 0.68421 0.0
O892 O 0.67969 0.95022 0.66012 0.0
O893 O 0.68454 0.9176 0.67502 0.0
C894 C 0.70685 0.94516 0.72253 0.0
O895 O 0.65642 0.9809 0.69084 0.0
O896 O 0.65103 0.96574 0.72329 0.0
In897 In 0.18731 0.92018 0.55087 0.0
O898 O 0.22491 0.91215 0.55635 0.0
O899 O 0.20946 0.90462 0.52426 0.0
C900 C 0.16732 0.93545 0.58874 0.0
C901 C 0.18716 0.95826 0.52642 0.0
C902 C 0.16306 0.8817 0.55161 0.0
O903 O 0.18669 0.9261 0.58941 0.0
O904 O 0.15932 0.93833 0.56918 0.0
O905 O 0.15761 0.8983 0.53913 0.0
O906 O 0.18146 0.88402 0.56221 0.0
C907 C 0.22701 0.90407 0.53652 0.0
O908 O 0.17456 0.94154 0.52154 0.0
O909 O 0.20009 0.95551 0.54332 0.0
In910 In 0.83214 0.44418 0.30163 0.0
O911 O 0.81179 0.43411 0.2705 0.0
O912 O 0.79729 0.45823 0.29338 0.0
C913 C 0.86862 0.41681 0.29929 0.0
C914 C 0.85011 0.48447 0.29155 0.0
C915 C 0.81712 0.42446 0.33999 0.0
O916 O 0.85047 0.41244 0.28873 0.0
O917 O 0.86875 0.4356 0.30938 0.0
O918 O 0.82955 0.44194 0.34052 0.0
O919 O 0.81107 0.41836 0.32048 0.0
C920 C 0.79507 0.44661 0.2755 0.0
O921 O 0.84046 0.48114 0.31046 0.0
O922 O 0.85019 0.46786 0.27807 0.0
In923 In 0.16949 0.05646 0.7935 0.0
O924 O 0.15893 0.0211 0.80617 0.0
O925 O 0.15325 0.02983 0.77153 0.0
C926 C 0.18388 0.07941 0.83002 0.0
C927 C 0.20887 0.05462 0.77058 0.0
C928 C 0.13288 0.08318 0.78786 0.0
O929 O 0.17629 0.05937 0.83163 0.0
O930 O 0.18501 0.08718 0.81013 0.0
O931 O 0.1472 0.08011 0.77221 0.0
O932 O 0.13639 0.07167 0.8055 0.0
C933 C 0.15128 0.01528 0.78702 0.0
O934 O 0.19221 0.06631 0.76387 0.0
O935 O 0.20553 0.04349 0.78856 0.0
In936 In 0.54835 0.81099 0.08267 0.0
O937 O 0.55462 0.7737 0.09154 0.0
O938 O 0.52218 0.78861 0.09859 0.0
C939 C 0.58718 0.82986 0.06815 0.0
C940 C 0.5241 0.809 0.04442 0.0
C941 C 0.54719 0.83692 0.1202 0.0
O942 O 0.58711 0.81096 0.07838 0.0
O943 O 0.5679 0.83817 0.06429 0.0
O944 O 0.53672 0.84236 0.10226 0.0
O945 O 0.55661 0.81776 0.11958 0.0
C946 C 0.5348 0.77135 0.09959 0.0
O947 O 0.51812 0.82126 0.06101 0.0
O948 O 0.54212 0.79773 0.04724 0.0
In949 In 0.44144 0.80215 0.3296 0.0
O950 O 0.42766 0.77412 0.3067 0.0
O951 O 0.45766 0.79138 0.29631 0.0
C952 C 0.41196 0.80381 0.36443 0.0
C953 C 0.47777 0.78675 0.35205 0.0
C954 C 0.43042 0.84304 0.31277 0.0
O955 O 0.40959 0.78989 0.34828 0.0
O956 O 0.42923 0.81634 0.36315 0.0
O957 O 0.44977 0.83921 0.32117 0.0
O958 O 0.4174 0.82613 0.31186 0.0
C959 C 0.44312 0.77628 0.29202 0.0
O960 O 0.47763 0.80622 0.34309 0.0
O961 O 0.45986 0.77534 0.3496 0.0
In962 In 0.44879 0.69287 0.57897 0.0
O963 O 0.44497 0.72944 0.59159 0.0
O964 O 0.47518 0.71104 0.59958 0.0
C965 C 0.40816 0.68002 0.56264 0.0
C966 C 0.47483 0.69517 0.54167 0.0
C967 C 0.44869 0.66302 0.61327 0.0
O968 O 0.41074 0.69865 0.57298 0.0
O969 O 0.4261 0.66893 0.55938 0.0
O970 O 0.46113 0.66049 0.59601 0.0
O971 O 0.43648 0.68055 0.61328 0.0
C972 C 0.46411 0.72923 0.60132 0.0
O973 O 0.47754 0.6801 0.55664 0.0
O974 O 0.45911 0.70919 0.54557 0.0
In975 In 0.56272 0.70395 0.83372 0.0
O976 O 0.52634 0.69515 0.84423 0.0
O977 O 0.53782 0.72942 0.84727 0.0
C978 C 0.58141 0.66532 0.81863 0.0
C979 C 0.56221 0.72791 0.79506 0.0
C980 C 0.58568 0.70846 0.87335 0.0
O981 O 0.56095 0.66615 0.82501 0.0
O982 O 0.59212 0.68377 0.81975 0.0
O983 O 0.58943 0.72094 0.85631 0.0
O984 O 0.57093 0.69342 0.86974 0.0
C985 C 0.52202 0.71532 0.85015 0.0
O986 O 0.57557 0.73259 0.81117 0.0
O987 O 0.5492 0.71126 0.7985 0.0
In988 In 0.5508 0.19072 0.92252 0.0
O989 O 0.52363 0.17589 0.94583 0.0
O990 O 0.54187 0.20493 0.95723 0.0
C991 C 0.55086 0.1642 0.88539 0.0
C992 C 0.53309 0.22749 0.90282 0.0
C993 C 0.59267 0.17863 0.93607 0.0
O994 O 0.54016 0.15875 0.90318 0.0
O995 O 0.56082 0.18309 0.88629 0.0
O996 O 0.58845 0.19852 0.92923 0.0
O997 O 0.57578 0.1656 0.93697 0.0
C998 C 0.52671 0.19039 0.96132 0.0
O999 O 0.55306 0.22763 0.91071 0.0
O1000 O 0.52221 0.20925 0.90534 0.0
In1001 In 0.06044 0.80086 0.17167 0.0
O1002 O 0.07335 0.77271 0.19447 0.0
O1003 O 0.04519 0.79229 0.20607 0.0
C1004 C 0.0912 0.80078 0.1381 0.0
C1005 C 0.02439 0.7843 0.14959 0.0
C1006 C 0.07275 0.84233 0.18582 0.0
O1007 O 0.09352 0.78868 0.15563 0.0
O1008 O 0.07333 0.81244 0.13734 0.0
O1009 O 0.05427 0.83913 0.1754 0.0
O1010 O 0.08364 0.82461 0.19056 0.0
C1011 C 0.05903 0.7764 0.20995 0.0
O1012 O 0.02372 0.80351 0.1591 0.0
O1013 O 0.04285 0.77371 0.15146 0.0
In1014 In 0.44758 0.30585 0.41997 0.0
O1015 O 0.47744 0.3161 0.44225 0.0
O1016 O 0.4546 0.291 0.45487 0.0
C1017 C 0.44826 0.33665 0.3864 0.0
C1018 C 0.46293 0.26922 0.39807 0.0
C1019 C 0.40667 0.31832 0.43557 0.0
O1020 O 0.45937 0.33926 0.40453 0.0
O1021 O 0.43704 0.31853 0.3851 0.0
O1022 O 0.40953 0.29976 0.42517 0.0
O1023 O 0.42444 0.32966 0.439 0.0
C1024 C 0.47212 0.30284 0.45821 0.0
O1025 O 0.4432 0.26964 0.40648 0.0
O1026 O 0.47464 0.28684 0.40095 0.0
In1027 In 0.94209 0.69698 0.67445 0.0
O1028 O 0.92877 0.72561 0.69669 0.0
O1029 O 0.95794 0.70749 0.70799 0.0
C1030 C 0.91166 0.69558 0.64058 0.0
C1031 C 0.97875 0.71134 0.65185 0.0
C1032 C 0.92953 0.65625 0.69037 0.0
O1033 O 0.91074 0.71051 0.65594 0.0
O1034 O 0.92802 0.6819 0.64207 0.0
O1035 O 0.94852 0.65923 0.68086 0.0
O1036 O 0.91808 0.67403 0.69341 0.0
C1037 C 0.94378 0.72309 0.71175 0.0
O1038 O 0.97913 0.69318 0.66323 0.0
O1039 O 0.96019 0.7219 0.65192 0.0
In1040 In 0.58329 0.54833 0.30738 0.0
O1041 O 0.56083 0.519 0.31826 0.0
O1042 O 0.54821 0.54201 0.29319 0.0
C1043 C 0.62112 0.54683 0.33279 0.0
C1044 C 0.6004 0.53455 0.26801 0.0
C1045 C 0.56885 0.58661 0.32722 0.0
O1046 O 0.60331 0.53609 0.33818 0.0
O1047 O 0.6202 0.55674 0.3139 0.0
O1048 O 0.57831 0.58707 0.30791 0.0
O1049 O 0.56578 0.56713 0.33537 0.0
C1050 C 0.54467 0.52467 0.30528 0.0
O1051 O 0.59255 0.55447 0.27024 0.0
O1052 O 0.59904 0.52194 0.28525 0.0
In1053 In 0.70517 0.83092 0.55977 0.0
O1054 O 0.73462 0.80893 0.57163 0.0
O1055 O 0.71231 0.79569 0.54627 0.0
C1056 C 0.70603 0.86863 0.58552 0.0
C1057 C 0.71812 0.84806 0.52004 0.0
C1058 C 0.6661 0.81672 0.5785 0.0
O1059 O 0.7167 0.85085 0.59109 0.0
O1060 O 0.69669 0.86777 0.56636 0.0
O1061 O 0.66626 0.82757 0.55998 0.0
O1062 O 0.68537 0.81191 0.58629 0.0
C1063 C 0.72933 0.79243 0.55891 0.0
O1064 O 0.69855 0.83949 0.52254 0.0
O1065 O 0.73099 0.84722 0.53713 0.0
In1066 In 0.42251 0.94776 0.80437 0.0
O1067 O 0.41341 0.94052 0.76723 0.0
O1068 O 0.40146 0.97102 0.78296 0.0
C1069 C 0.44091 0.91079 0.82371 0.0
C1070 C 0.45847 0.97525 0.80153 0.0
C1071 C 0.38734 0.94649 0.83326 0.0
O1072 O 0.42761 0.90914 0.80693 0.0
O1073 O 0.44647 0.93074 0.82877 0.0
O1074 O 0.40365 0.9602 0.83591 0.0
O1075 O 0.38814 0.93487 0.81536 0.0
C1076 C 0.40212 0.95874 0.76547 0.0
O1077 O 0.44244 0.97876 0.8154 0.0
O1078 O 0.45592 0.9583 0.78861 0.0
In1079 In 0.29437 0.66875 0.06122 0.0
O1080 O 0.3044 0.65687 0.02554 0.0
O1081 O 0.27062 0.65105 0.03741 0.0
C1082 C 0.33202 0.68329 0.08208 0.0
C1083 C 0.27239 0.70842 0.05738 0.0
C1084 C 0.2887 0.63299 0.08898 0.0
O1085 O 0.33282 0.67421 0.06262 0.0
O1086 O 0.3124 0.68581 0.0902 0.0
O1087 O 0.27323 0.64754 0.08597 0.0
O1088 O 0.30623 0.63606 0.07714 0.0
C1089 C 0.2849 0.64876 0.0217 0.0
O1090 O 0.26711 0.69375 0.07209 0.0
O1091 O 0.28852 0.70294 0.04441 0.0
In1092 In 0.57767 0.44616 0.69476 0.0
O1093 O 0.55618 0.47613 0.68379 0.0
O1094 O 0.54542 0.45686 0.71263 0.0
C1095 C 0.61008 0.44598 0.6627 0.0
C1096 C 0.59999 0.45842 0.7322 0.0
C1097 C 0.55968 0.40762 0.67814 0.0
O1098 O 0.5928 0.45862 0.66118 0.0
O1099 O 0.61169 0.43502 0.68095 0.0
O1100 O 0.5761 0.40732 0.69193 0.0
O1101 O 0.55079 0.42677 0.67537 0.0
C1102 C 0.54142 0.47303 0.6991 0.0
O1103 O 0.58863 0.44017 0.73162 0.0
O1104 O 0.59985 0.47004 0.71427 0.0
In1105 In 0.79368 0.83222 0.93915 0.0
O1106 O 0.80246 0.84082 0.97607 0.0
O1107 O 0.76937 0.8487 0.96331 0.0
C1108 C 0.83289 0.81845 0.92037 0.0
C1109 C 0.76879 0.79415 0.94098 0.0
C1110 C 0.79149 0.86883 0.91181 0.0
O1111 O 0.81369 0.81241 0.91327 0.0
O1112 O 0.83261 0.83029 0.93826 0.0
O1113 O 0.78184 0.85035 0.90677 0.0
O1114 O 0.8004 0.8692 0.93118 0.0
C1115 C 0.78309 0.84938 0.9797 0.0
O1116 O 0.76224 0.81154 0.93021 0.0
O1117 O 0.78758 0.79621 0.9511 0.0
In1118 In 0.41904 0.05396 0.1898 0.0
O1119 O 0.43982 0.02362 0.17761 0.0
O1120 O 0.45503 0.0462 0.20139 0.0
C1121 C 0.3832 0.05355 0.16159 0.0
C1122 C 0.39919 0.03901 0.22785 0.0
C1123 C 0.43461 0.09518 0.1781 0.0
O1124 O 0.40132 0.043 0.15715 0.0
O1125 O 0.38307 0.06381 0.18032 0.0
O1126 O 0.4271 0.09116 0.19778 0.0
O1127 O 0.43471 0.07847 0.1648 0.0
C1128 C 0.45698 0.02862 0.18939 0.0
O1129 O 0.40704 0.0589 0.2265 0.0
O1130 O 0.4018 0.02685 0.2105 0.0
In1131 In 0.20202 0.67042 0.44408 0.0
O1132 O 0.19741 0.65722 0.48036 0.0
O1133 O 0.22743 0.64843 0.46206 0.0
C1134 C 0.16121 0.68462 0.42971 0.0
C1135 C 0.22595 0.70898 0.44822 0.0
C1136 C 0.20368 0.63823 0.41202 0.0
O1137 O 0.16339 0.67369 0.44804 0.0
O1138 O 0.17948 0.68967 0.41994 0.0
O1139 O 0.21678 0.65521 0.41164 0.0
O1140 O 0.19061 0.63712 0.42885 0.0
C1141 C 0.21611 0.64671 0.48009 0.0
O1142 O 0.23044 0.69418 0.43342 0.0
O1143 O 0.20964 0.70418 0.46125 0.0
In1144 In 0.81085 0.5787 0.05582 0.0
O1145 O 0.82499 0.55502 0.02864 0.0
O1146 O 0.79496 0.54495 0.04603 0.0
C1147 C 0.83736 0.61561 0.05539 0.0
C1148 C 0.7741 0.59898 0.03874 0.0
C1149 C 0.82429 0.56276 0.09639 0.0
O1150 O 0.84193 0.5982 0.0437 0.0
O1151 O 0.81919 0.61454 0.06666 0.0
O1152 O 0.80388 0.56835 0.09272 0.0
O1153 O 0.8374 0.56485 0.07967 0.0
C1154 C 0.80961 0.54028 0.03115 0.0
O1155 O 0.77452 0.59231 0.05916 0.0
O1156 O 0.79178 0.59503 0.02735 0.0
In1157 In 0.31185 0.41777 0.45044 0.0
O1158 O 0.32752 0.4392 0.47862 0.0
O1159 O 0.30031 0.45336 0.45947 0.0
C1160 C 0.33346 0.3773 0.45248 0.0
C1161 C 0.27143 0.40135 0.46279 0.0
C1162 C 0.3291 0.43271 0.41113 0.0
O1163 O 0.33812 0.39351 0.46575 0.0
O1164 O 0.31851 0.38216 0.43804 0.0
O1165 O 0.30826 0.42806 0.41315 0.0
O1166 O 0.34088 0.42996 0.42873 0.0
C1167 C 0.31464 0.45599 0.47514 0.0
O1168 O 0.27486 0.40854 0.44288 0.0
O1169 O 0.28788 0.40325 0.4763 0.0
In1170 In 0.82819 0.55772 0.69749 0.0
O1171 O 0.80609 0.5708 0.72643 0.0
O1172 O 0.79262 0.54484 0.70514 0.0
C1173 C 0.86464 0.5852 0.69855 0.0
C1174 C 0.84745 0.52001 0.71405 0.0
C1175 C 0.81324 0.5696 0.65602 0.0
O1176 O 0.84648 0.59003 0.70885 0.0
O1177 O 0.86448 0.56648 0.68825 0.0
O1178 O 0.82079 0.54992 0.66003 0.0
O1179 O 0.81268 0.58272 0.67286 0.0
C1180 C 0.78969 0.55774 0.72196 0.0
O1181 O 0.84142 0.52132 0.69351 0.0
O1182 O 0.84328 0.53722 0.726 0.0
In1183 In 0.69341 0.08039 0.94253 0.0
O1184 O 0.73009 0.09221 0.93725 0.0
O1185 O 0.71456 0.09661 0.96973 0.0
C1186 C 0.6794 0.06595 0.90166 0.0
C1187 C 0.69404 0.04222 0.96744 0.0
C1188 C 0.66602 0.11696 0.94411 0.0
O1189 O 0.69934 0.07328 0.90468 0.0
O1190 O 0.66724 0.06523 0.91919 0.0
O1191 O 0.66119 0.09862 0.9541 0.0
O1192 O 0.68489 0.11702 0.93408 0.0
C1193 C 0.73177 0.09943 0.95739 0.0
O1194 O 0.68125 0.05875 0.97212 0.0
O1195 O 0.70647 0.04489 0.95022 0.0
In1196 In 0.67489 0.44268 0.19659 0.0
O1197 O 0.69814 0.42971 0.22457 0.0
O1198 O 0.70807 0.45959 0.20687 0.0
C1199 C 0.64199 0.41115 0.19548 0.0
C1200 C 0.6509 0.47862 0.21074 0.0
C1201 C 0.69077 0.43036 0.15581 0.0
O1202 O 0.65708 0.41115 0.21072 0.0
O1203 O 0.64325 0.42714 0.18137 0.0
O1204 O 0.68085 0.44914 0.15879 0.0
O1205 O 0.69425 0.41909 0.17361 0.0
C1206 C 0.71269 0.44521 0.22203 0.0
O1207 O 0.66209 0.47919 0.19247 0.0
O1208 O 0.65193 0.46025 0.22158 0.0
In1209 In 0.18963 0.42418 0.0539 0.0
O1210 O 0.22618 0.41163 0.0581 0.0
O1211 O 0.2095 0.40686 0.02631 0.0
C1212 C 0.17791 0.44032 0.09483 0.0
C1213 C 0.1895 0.46182 0.02827 0.0
C1214 C 0.16151 0.38828 0.05477 0.0
O1215 O 0.19765 0.43291 0.09092 0.0
O1216 O 0.16477 0.44052 0.07799 0.0
O1217 O 0.15824 0.40493 0.04168 0.0
O1218 O 0.17908 0.38955 0.06689 0.0
C1219 C 0.22709 0.40403 0.03809 0.0
O1220 O 0.17549 0.4459 0.02525 0.0
O1221 O 0.20338 0.45887 0.04429 0.0
In1222 In 0.82832 0.94384 0.79928 0.0
O1223 O 0.80699 0.93157 0.76952 0.0
O1224 O 0.79344 0.9576 0.79067 0.0
C1225 C 0.8643 0.91611 0.80129 0.0
C1226 C 0.8503 0.9809 0.78484 0.0
C1227 C 0.81061 0.9293 0.83852 0.0
O1228 O 0.84847 0.91302 0.78713 0.0
O1229 O 0.86206 0.93322 0.81392 0.0
O1230 O 0.81719 0.94961 0.83608 0.0
O1231 O 0.81233 0.91697 0.82117 0.0
C1232 C 0.79061 0.94472 0.77382 0.0
O1233 O 0.84173 0.98005 0.8045 0.0
O1234 O 0.84732 0.96355 0.77274 0.0
In1235 In 0.16908 0.55735 0.29973 0.0
O1236 O 0.15972 0.52066 0.30861 0.0
O1237 O 0.15215 0.53357 0.27546 0.0
C1238 C 0.18473 0.57867 0.3367 0.0
C1239 C 0.20689 0.55544 0.27462 0.0
C1240 C 0.13124 0.58282 0.29928 0.0
O1241 O 0.17588 0.55912 0.33808 0.0
O1242 O 0.18668 0.58638 0.3169 0.0
O1243 O 0.14837 0.58775 0.28731 0.0
O1244 O 0.1328 0.56442 0.30997 0.0
C1245 C 0.15102 0.51723 0.28924 0.0
O1246 O 0.18953 0.56641 0.2683 0.0
O1247 O 0.20488 0.54498 0.29323 0.0
C1248 C 0.02712 0.30511 0.9975 0.0
C1249 C 0.01456 0.30459 0.01803 0.0
C1250 C 0.97911 0.30549 0.99645 0.0
C1251 C 0.99164 0.30368 0.97597 0.0
N1252 N 0.02741 0.29656 0.95739 0.0
N1253 N 0.9787 0.29885 0.03691 0.0
C1254 C 0.01562 0.30196 0.97659 0.0
C1255 C 0.99056 0.30318 0.01748 0.0
N1256 N 0.04983 0.30974 0.9978 0.0
N1257 N 0.95649 0.31058 0.99596 0.0
H1258 H 0.98651 0.29633 0.05257 0.0
H1259 H 0.96138 0.29539 0.03704 0.0
H1260 H 0.9475 0.31336 0.98101 0.0
H1261 H 0.94718 0.31438 0.01047 0.0
H1262 H 0.05927 0.31263 0.98316 0.0
H1263 H 0.05882 0.31299 0.01265 0.0
H1264 H 0.04468 0.29286 0.95741 0.0
H1265 H 0.01956 0.29343 0.94186 0.0
C1266 C 0.91929 0.24331 0.24271 0.0
C1267 C 0.93998 0.23796 0.23163 0.0
C1268 C 0.96115 0.25507 0.26296 0.0
C1269 C 0.94051 0.26292 0.27252 0.0
N1270 N 0.9001 0.26857 0.26865 0.0
N1271 N 0.98054 0.24311 0.2289 0.0
C1272 C 0.91958 0.25817 0.26163 0.0
C1273 C 0.96093 0.24504 0.2411 0.0
N1274 N 0.89946 0.23348 0.23585 0.0
N1275 N 0.98084 0.25631 0.2751 0.0
H1276 H 0.98104 0.23668 0.21245 0.0
H1277 H 0.99588 0.25009 0.23417 0.0
H1278 H 0.98156 0.26263 0.29158 0.0
H1279 H 0.99593 0.24881 0.26978 0.0
H1280 H 0.88433 0.23508 0.24484 0.0
H1281 H 0.89854 0.22179 0.22263 0.0
H1282 H 0.88487 0.26744 0.25978 0.0
H1283 H 0.89962 0.28022 0.28193 0.0
C1284 C 0.01242 0.19166 0.52095 0.0
C1285 C 0.98848 0.194 0.52045 0.0
C1286 C 0.9898 0.19884 0.47918 0.0
C1287 C 0.01333 0.19397 0.47952 0.0
N1288 N 0.04611 0.1809 0.50023 0.0
N1289 N 0.95385 0.19533 0.4986 0.0
C1290 C 0.02442 0.18906 0.50028 0.0
C1291 C 0.97698 0.19641 0.49942 0.0
N1292 N 0.02384 0.19286 0.54108 0.0
N1293 N 0.97981 0.20653 0.45974 0.0
H1294 H 0.94383 0.19285 0.51292 0.0
H1295 H 0.94473 0.1946 0.4835 0.0
H1296 H 0.98869 0.20885 0.44463 0.0
H1297 H 0.96324 0.21264 0.45916 0.0
H1298 H 0.04145 0.19358 0.54213 0.0
H1299 H 0.01578 0.19549 0.55659 0.0
H1300 H 0.05421 0.17488 0.51472 0.0
H1301 H 0.05518 0.1779 0.48537 0.0
C1302 C 0.05297 0.225 0.74732 0.0
C1303 C 0.05462 0.23527 0.76905 0.0
C1304 C 0.0585 0.27257 0.75114 0.0
C1305 C 0.05476 0.26249 0.72962 0.0
N1306 N 0.04317 0.2299 0.70779 0.0
N1307 N 0.05341 0.26938 0.79169 0.0
C1308 C 0.05048 0.23892 0.72786 0.0
C1309 C 0.05583 0.25924 0.77101 0.0
N1310 N 0.05481 0.20201 0.74503 0.0
N1311 N 0.06552 0.29461 0.75263 0.0
H1312 H 0.05049 0.26032 0.80658 0.0
H1313 H 0.05188 0.28685 0.79374 0.0
H1314 H 0.06818 0.30487 0.73849 0.0
H1315 H 0.07081 0.30203 0.76775 0.0
H1316 H 0.05629 0.19398 0.72937 0.0
H1317 H 0.05706 0.19105 0.75867 0.0
H1318 H 0.03749 0.21326 0.7062 0.0
H1319 H 0.04054 0.23963 0.69326 0.0
C1320 C 0.97554 0.68999 0.99595 0.0
C1321 C 0.98756 0.68954 0.01679 0.0
C1322 C 0.02341 0.68651 0.99602 0.0
C1323 C 0.01157 0.68978 0.97532 0.0
N1324 N 0.97671 0.69931 0.95604 0.0
N1325 N 0.02327 0.69189 0.03668 0.0
C1326 C 0.98771 0.69279 0.97537 0.0
C1327 C 0.01161 0.68901 0.01686 0.0
N1328 N 0.95258 0.68682 0.99567 0.0
N1329 N 0.0457 0.68015 0.99582 0.0
H1330 H 0.01533 0.69445 0.05225 0.0
H1331 H 0.0408 0.69403 0.03732 0.0
H1332 H 0.05481 0.67741 0.98092 0.0
H1333 H 0.05448 0.67533 0.01036 0.0
H1334 H 0.94332 0.68471 0.98078 0.0
H1335 H 0.94312 0.6839 0.01029 0.0
H1336 H 0.95969 0.70403 0.95578 0.0
H1337 H 0.98503 0.70224 0.94073 0.0
C1338 C 0.58123 0.25545 0.23651 0.0
C1339 C 0.56036 0.26134 0.22605 0.0
C1340 C 0.5397 0.24567 0.25852 0.0
C1341 C 0.56039 0.23747 0.26768 0.0
N1342 N 0.60048 0.2306 0.26289 0.0
N1343 N 0.51959 0.25765 0.22486 0.0
C1344 C 0.58109 0.24127 0.256 0.0
C1345 C 0.53953 0.25523 0.23643 0.0
N1346 N 0.60116 0.26415 0.22848 0.0
N1347 N 0.52035 0.24521 0.27126 0.0
H1348 H 0.51876 0.26376 0.2083 0.0
H1349 H 0.50418 0.25135 0.23077 0.0
H1350 H 0.51994 0.23914 0.28784 0.0
H1351 H 0.50532 0.25304 0.26627 0.0
H1352 H 0.61656 0.26231 0.23692 0.0
H1353 H 0.60202 0.27512 0.21466 0.0
H1354 H 0.61547 0.2309 0.25355 0.0
H1355 H 0.60105 0.21961 0.27671 0.0
C1356 C 0.02317 0.80633 0.50082 0.0
C1357 C 0.0119 0.80723 0.52206 0.0
C1358 C 0.97537 0.8108 0.50259 0.0
C1359 C 0.98647 0.80759 0.4815 0.0
N1360 N 0.02033 0.79762 0.46082 0.0
N1361 N 0.97691 0.80555 0.54325 0.0
C1362 C 0.01022 0.80404 0.48067 0.0
C1363 C 0.98787 0.80816 0.523 0.0
N1364 N 0.04619 0.80871 0.49975 0.0
N1365 N 0.95311 0.81723 0.50315 0.0
H1366 H 0.98539 0.80291 0.55853 0.0
H1367 H 0.95939 0.80374 0.54458 0.0
H1368 H 0.94349 0.81982 0.48855 0.0
H1369 H 0.94483 0.82212 0.51795 0.0
H1370 H 0.05504 0.81056 0.48459 0.0
H1371 H 0.05621 0.81115 0.51406 0.0
H1372 H 0.03719 0.79245 0.45981 0.0
H1373 H 0.01137 0.79532 0.44575 0.0
C1374 C 0.43082 0.22577 0.75164 0.0
C1375 C 0.43741 0.23575 0.73082 0.0
C1376 C 0.44161 0.27245 0.74973 0.0
C1377 C 0.43784 0.26181 0.77102 0.0
N1378 N 0.43351 0.22717 0.79249 0.0
N1379 N 0.45289 0.26772 0.71054 0.0
C1380 C 0.43368 0.23813 0.77208 0.0
C1381 C 0.44385 0.25887 0.72996 0.0
N1382 N 0.42098 0.20481 0.75181 0.0
N1383 N 0.44201 0.29555 0.74814 0.0
H1384 H 0.45495 0.25832 0.69572 0.0
H1385 H 0.4602 0.28378 0.70976 0.0
H1386 H 0.43962 0.30615 0.76204 0.0
H1387 H 0.44235 0.30418 0.73274 0.0
H1388 H 0.41392 0.19756 0.76628 0.0
H1389 H 0.41761 0.19582 0.73698 0.0
H1390 H 0.4328 0.20959 0.79397 0.0
H1391 H 0.4365 0.23537 0.80786 0.0
C1392 C 1.00005 0.97442 0.3081 0.0
C1393 C 0.97949 0.98671 0.30559 0.0
C1394 C 0.00082 0.02229 0.30497 0.0
C1395 C 0.02149 0.00989 0.30491 0.0
N1396 N 0.0406 0.97384 0.30165 0.0
N1397 N 0.96078 0.02187 0.29617 0.0
C1398 C 0.02108 0.98584 0.30513 0.0
C1399 C 0.97999 0.01052 0.30244 0.0
N1400 N 0.99959 0.95209 0.3143 0.0
N1401 N 0.00086 0.04518 0.30861 0.0
H1402 H 0.9453 0.01381 0.29337 0.0
H1403 H 0.96081 0.03888 0.29139 0.0
H1404 H 0.01555 0.05449 0.31167 0.0
H1405 H 0.98607 0.05453 0.31109 0.0
H1406 H 0.01411 0.943 0.31863 0.0
H1407 H 0.98461 0.94322 0.31736 0.0
H1408 H 0.04086 0.95633 0.29936 0.0
H1409 H 0.05624 0.98156 0.29873 0.0
C1410 C 0.26378 0.27568 0.55278 0.0
C1411 C 0.24009 0.27561 0.55692 0.0
C1412 C 0.24058 0.23409 0.55909 0.0
C1413 C 0.26459 0.23437 0.5576 0.0
N1414 N 0.29941 0.25596 0.55766 0.0
N1415 N 0.2067 0.25503 0.56884 0.0
C1416 C 0.27633 0.25532 0.55568 0.0
C1417 C 0.22866 0.25489 0.56139 0.0
N1418 N 0.2742 0.29496 0.54523 0.0
N1419 N 0.22904 0.21407 0.55739 0.0
H1420 H 0.19751 0.26987 0.57155 0.0
H1421 H 0.19839 0.24054 0.57458 0.0
H1422 H 0.23705 0.1985 0.555 0.0
H1423 H 0.21145 0.21318 0.556 0.0
H1424 H 0.29097 0.29531 0.53969 0.0
H1425 H 0.26552 0.31009 0.54234 0.0
H1426 H 0.30858 0.27101 0.55874 0.0
H1427 H 0.30923 0.24157 0.56055 0.0
C1428 C 0.97898 0.51377 0.81262 0.0
C1429 C 0.97979 0.48997 0.80914 0.0
C1430 C 0.02116 0.49209 0.80467 0.0
C1431 C 0.02042 0.51539 0.81043 0.0
N1432 N 0.99933 0.54719 0.82496 0.0
N1433 N 0.00231 0.45575 0.80634 0.0
C1434 C 0.99952 0.5259 0.81586 0.0
C1435 C 0.00106 0.47889 0.80636 0.0
N1436 N 0.95873 0.52501 0.81177 0.0
N1437 N 0.04085 0.4827 0.79683 0.0
H1438 H 0.98819 0.44527 0.8079 0.0
H1439 H 0.01758 0.4469 0.80697 0.0
H1440 H 0.05595 0.49179 0.79537 0.0
H1441 H 0.04172 0.46648 0.78992 0.0
H1442 H 0.95749 0.54263 0.81195 0.0
H1443 H 0.94335 0.51696 0.80846 0.0
H1444 H 0.98474 0.55491 0.83124 0.0
H1445 H 0.01418 0.55609 0.82851 0.0
C1446 C 0.73417 0.22522 0.0609 0.0
C1447 C 0.75821 0.22501 0.05997 0.0
C1448 C 0.75844 0.26657 0.05828 0.0
C1449 C 0.73464 0.26671 0.0616 0.0
N1450 N 0.70089 0.24629 0.07219 0.0
N1451 N 0.79341 0.2458 0.06344 0.0
C1452 C 0.72278 0.24605 0.06467 0.0
C1453 C 0.77046 0.24578 0.06023 0.0
N1454 N 0.72209 0.2058 0.05723 0.0
N1455 N 0.76953 0.28607 0.05247 0.0
H1456 H 0.80282 0.23108 0.06613 0.0
H1457 H 0.80276 0.26058 0.06594 0.0
H1458 H 0.76132 0.30161 0.05056 0.0
H1459 H 0.78647 0.28637 0.04749 0.0
H1460 H 0.7045 0.2056 0.05561 0.0
H1461 H 0.72968 0.19031 0.05335 0.0
H1462 H 0.69203 0.23167 0.07663 0.0
H1463 H 0.69264 0.26127 0.07659 0.0
C1464 C 0.9989 0.97149 0.69866 0.0
C1465 C 0.02015 0.98145 0.69312 0.0
C1466 C 0.00057 0.01586 0.68066 0.0
C1467 C 0.9799 0.00717 0.68925 0.0
N1468 N 0.9598 0.97788 0.70952 0.0
N1469 N 0.04148 0.01488 0.68274 0.0
C1470 C 0.97913 0.98527 0.69908 0.0
C1471 C 0.02109 0.00412 0.68511 0.0
N1472 N 0.99736 0.94869 0.7025 0.0
N1473 N 0.00047 0.03489 0.6675 0.0
H1474 H 0.05694 0.00728 0.68668 0.0
H1475 H 0.04289 0.03211 0.67911 0.0
H1476 H 0.98549 0.04305 0.6629 0.0
H1477 H 0.01478 0.04091 0.65907 0.0
H1478 H 0.98196 0.94025 0.70437 0.0
H1479 H 0.01121 0.93779 0.70141 0.0
H1480 H 0.95911 0.96311 0.71917 0.0
H1481 H 0.94494 0.98746 0.71017 0.0
C1482 C 0.2575 0.23024 0.94742 0.0
C1483 C 0.23357 0.23106 0.9452 0.0
C1484 C 0.23475 0.27249 0.94779 0.0
C1485 C 0.25878 0.27173 0.94674 0.0
N1486 N 0.29298 0.24979 0.94127 0.0
N1487 N 0.19952 0.25314 0.93956 0.0
C1488 C 0.2702 0.25058 0.94549 0.0
C1489 C 0.22216 0.25223 0.94448 0.0
N1490 N 0.26807 0.21016 0.95211 0.0
N1491 N 0.22397 0.29241 0.95269 0.0
H1492 H 0.18972 0.23876 0.93646 0.0
H1493 H 0.19093 0.26824 0.93643 0.0
H1494 H 0.23264 0.30749 0.95585 0.0
H1495 H 0.20663 0.29346 0.95591 0.0
H1496 H 0.28523 0.20903 0.95615 0.0
H1497 H 0.2593 0.19497 0.95435 0.0
H1498 H 0.30162 0.23477 0.93783 0.0
H1499 H 0.3029 0.26421 0.93891 0.0
C1500 C 0.99977 0.47847 0.19583 0.0
C1501 C 0.02059 0.49042 0.19784 0.0
C1502 C 0.99978 0.52639 0.19704 0.0
C1503 C 0.97894 0.51433 0.19794 0.0
N1504 N 0.95954 0.4787 0.20367 0.0
N1505 N 0.03995 0.52572 0.20537 0.0
C1506 C 0.97903 0.4903 0.19891 0.0
C1507 C 0.0205 0.51439 0.19988 0.0
N1508 N 0.99961 0.45608 0.18986 0.0
N1509 N 0.99998 0.54909 0.1924 0.0
H1510 H 0.05532 0.51753 0.20842 0.0
H1511 H 0.04026 0.54294 0.20925 0.0
H1512 H 0.98532 0.5584 0.18913 0.0
H1513 H 0.01484 0.55814 0.18936 0.0
H1514 H 0.98476 0.44729 0.18603 0.0
H1515 H 0.01427 0.44693 0.1862 0.0
H1516 H 0.95925 0.46131 0.20676 0.0
H1517 H 0.94414 0.4867 0.20701 0.0
C1518 C 0.76017 0.22772 0.44623 0.0
C1519 C 0.73629 0.22907 0.44362 0.0
C1520 C 0.73844 0.27052 0.44528 0.0
C1521 C 0.76245 0.26922 0.44514 0.0
N1522 N 0.79625 0.24645 0.44074 0.0
N1523 N 0.70325 0.25186 0.43568 0.0
C1524 C 0.77339 0.24778 0.44434 0.0
C1525 C 0.72555 0.25052 0.44179 0.0
N1526 N 0.77019 0.20748 0.45141 0.0
N1527 N 0.72787 0.29068 0.44964 0.0
H1528 H 0.69353 0.2376 0.43196 0.0
H1529 H 0.69515 0.2671 0.43192 0.0
H1530 H 0.73668 0.30562 0.45308 0.0
H1531 H 0.71045 0.29206 0.45218 0.0
H1532 H 0.78724 0.20603 0.45582 0.0
H1533 H 0.76108 0.19248 0.45352 0.0
H1534 H 0.80465 0.23122 0.43769 0.0
H1535 H 0.80651 0.26066 0.43848 0.0
C1536 C 0.2893 0.9863 0.99048 0.0
C1537 C 0.31009 0.97572 0.98456 0.0
C1538 C 0.33091 0.00517 0.00518 0.0
C1539 C 0.31032 0.01712 0.00874 0.0
N1540 N 0.27048 0.02139 0.00024 0.0
N1541 N 0.35093 0.97798 0.98194 0.0
C1542 C 0.28964 0.00836 0.00011 0.0
C1543 C 0.331 0.98595 0.99069 0.0
N1544 N 0.26926 0.97496 0.98789 0.0
N1545 N 0.35019 0.01145 0.01639 0.0
H1546 H 0.35176 0.96448 0.97057 0.0
H1547 H 0.36637 0.98629 0.98409 0.0
H1548 H 0.35076 0.02489 0.02786 0.0
H1549 H 0.36502 0.00185 0.01614 0.0
H1550 H 0.25388 0.98107 0.99405 0.0
H1551 H 0.2683 0.9584 0.98179 0.0
H1552 H 0.25553 0.01661 0.99212 0.0
H1553 H 0.27017 0.038 0.00629 0.0
C1554 C 0.8305 0.00939 0.50537 0.0
C1555 C 0.80969 0.02019 0.51087 0.0
C1556 C 0.78887 0.9883 0.49425 0.0
C1557 C 0.80958 0.97899 0.48629 0.0
N1558 N 0.84981 0.98365 0.47999 0.0
N1559 N 0.76905 0.02221 0.50604 0.0
C1560 C 0.83035 0.99034 0.49065 0.0
C1561 C 0.78883 0.01029 0.50406 0.0
N1562 N 0.85033 0.01661 0.51494 0.0
N1563 N 0.76935 0.97585 0.49332 0.0
H1564 H 0.76834 0.03874 0.51224 0.0
H1565 H 0.75373 0.0166 0.49926 0.0
H1566 H 0.76878 0.95931 0.48712 0.0
H1567 H 0.75426 0.98101 0.50093 0.0
H1568 H 0.86556 0.00783 0.51323 0.0
H1569 H 0.85118 0.0299 0.52655 0.0
H1570 H 0.86487 0.99285 0.48085 0.0
H1571 H 0.85038 0.97034 0.46838 0.0
C1572 C 0.26372 0.03413 0.74337 0.0
C1573 C 0.27364 0.05501 0.73669 0.0
C1574 C 0.24223 0.07561 0.75445 0.0
C1575 C 0.23107 0.05473 0.75878 0.0
N1576 N 0.22928 0.01419 0.75348 0.0
N1577 N 0.27001 0.09551 0.73177 0.0
C1578 C 0.24129 0.03397 0.75219 0.0
C1579 C 0.26228 0.07575 0.74111 0.0
N1580 N 0.27604 0.01454 0.74215 0.0
N1581 N 0.23431 0.09525 0.76389 0.0
H1582 H 0.28429 0.09634 0.72139 0.0
H1583 H 0.26097 0.11067 0.73246 0.0
H1584 H 0.2201 0.09588 0.77437 0.0
H1585 H 0.24318 0.11051 0.76323 0.0
H1586 H 0.27049 0.9992 0.74893 0.0
H1587 H 0.29276 0.01405 0.73644 0.0
H1588 H 0.23506 0.99893 0.74673 0.0
H1589 H 0.21259 0.01343 0.75925 0.0
C1590 C 0.18815 0.50411 0.02433 0.0
C1591 C 0.1898 0.48245 0.014 0.0
C1592 C 0.19048 0.50032 0.97655 0.0
C1593 C 0.19149 0.52196 0.98703 0.0
N1594 N 0.19594 0.54424 0.02108 0.0
N1595 N 0.1971 0.46003 0.98054 0.0
C1596 C 0.1916 0.52383 0.01099 0.0
C1597 C 0.19221 0.48054 0.99016 0.0
N1598 N 0.18236 0.5059 0.04668 0.0
N1599 N 0.1869 0.49858 0.95372 0.0
H1600 H 0.19906 0.44519 0.98994 0.0
H1601 H 0.20141 0.45816 0.96352 0.0
H1602 H 0.18482 0.51263 0.94321 0.0
H1603 H 0.18369 0.48323 0.94561 0.0
H1604 H 0.17868 0.52129 0.05451 0.0
H1605 H 0.17888 0.49183 0.05678 0.0
H1606 H 0.19852 0.54603 0.03846 0.0
H1607 H 0.19924 0.559 0.01195 0.0
C1608 C 0.25218 0.93947 0.26864 0.0
C1609 C 0.27332 0.94257 0.25751 0.0
C1610 C 0.25388 0.94284 0.22085 0.0
C1611 C 0.23263 0.94247 0.23214 0.0
N1612 N 0.21161 0.94535 0.26715 0.0
N1613 N 0.29378 0.95205 0.22335 0.0
C1614 C 0.23176 0.94215 0.25616 0.0
C1615 C 0.27406 0.94562 0.23368 0.0
N1616 N 0.25153 0.93297 0.29087 0.0
N1617 N 0.25495 0.93952 0.19797 0.0
H1618 H 0.30879 0.955 0.23221 0.0
H1619 H 0.29464 0.95673 0.20634 0.0
H1620 H 0.24062 0.93646 0.18813 0.0
H1621 H 0.27014 0.93737 0.18921 0.0
H1622 H 0.23661 0.92827 0.29908 0.0
H1623 H 0.26605 0.92994 0.30048 0.0
H1624 H 0.21045 0.94762 0.28462 0.0
H1625 H 0.19633 0.9481 0.25868 0.0
C1626 C 0.69712 0.00311 0.01856 0.0
C1627 C 0.69538 0.98149 0.00804 0.0
C1628 C 0.69072 0.99991 0.9711 0.0
C1629 C 0.69469 0.02131 0.98134 0.0
N1630 N 0.70686 0.04271 0.014 0.0
N1631 N 0.6959 0.9593 0.97364 0.0
C1632 C 0.69939 0.02277 0.00485 0.0
C1633 C 0.6937 0.97986 0.9841 0.0
N1634 N 0.69553 0.00513 0.04157 0.0
N1635 N 0.68317 0.99871 0.94924 0.0
H1636 H 0.69901 0.9443 0.98246 0.0
H1637 H 0.69706 0.95749 0.95612 0.0
H1638 H 0.68007 0.01305 0.93941 0.0
H1639 H 0.6778 0.98368 0.94169 0.0
H1640 H 0.69418 0.0207 0.04981 0.0
H1641 H 0.6933 0.99136 0.05237 0.0
H1642 H 0.71284 0.04406 0.03056 0.0
H1643 H 0.70929 0.05739 0.00445 0.0
C1644 C 0.25336 0.44189 0.77199 0.0
C1645 C 0.27436 0.44515 0.76063 0.0
C1646 C 0.25455 0.44466 0.72415 0.0
C1647 C 0.23341 0.44417 0.73566 0.0
N1648 N 0.21271 0.44731 0.77082 0.0
N1649 N 0.29438 0.45434 0.72613 0.0
C1650 C 0.23279 0.44419 0.75968 0.0
C1651 C 0.27483 0.44785 0.73675 0.0
N1652 N 0.25296 0.43552 0.79426 0.0
N1653 N 0.25542 0.44107 0.7013 0.0
H1654 H 0.30944 0.45758 0.7348 0.0
H1655 H 0.29503 0.45875 0.70905 0.0
H1656 H 0.24102 0.43775 0.69165 0.0
H1657 H 0.27053 0.43898 0.69241 0.0
H1658 H 0.23815 0.43074 0.80262 0.0
H1659 H 0.26757 0.43259 0.80376 0.0
H1660 H 0.2117 0.44983 0.78827 0.0
H1661 H 0.19732 0.44973 0.76247 0.0
C1662 C 0.72889 0.06051 0.24096 0.0
C1663 C 0.73036 0.05807 0.26485 0.0
C1664 C 0.77167 0.05401 0.26178 0.0
C1665 C 0.77026 0.05897 0.23832 0.0
N1666 N 0.74808 0.07276 0.20692 0.0
N1667 N 0.75378 0.05744 0.29849 0.0
C1668 C 0.74902 0.0639 0.22827 0.0
C1669 C 0.75193 0.05615 0.27545 0.0
N1670 N 0.70847 0.05857 0.23018 0.0
N1671 N 0.79161 0.04653 0.27091 0.0
H1672 H 0.7399 0.05995 0.3091 0.0
H1673 H 0.76928 0.0584 0.30689 0.0
H1674 H 0.80641 0.04457 0.26142 0.0
H1675 H 0.79292 0.04033 0.28739 0.0
H1676 H 0.70693 0.0581 0.2126 0.0
H1677 H 0.6934 0.05487 0.23863 0.0
H1678 H 0.73313 0.07859 0.19953 0.0
H1679 H 0.76263 0.07675 0.19772 0.0
C1680 C 0.94289 0.77472 0.75033 0.0
C1681 C 0.9455 0.76438 0.7719 0.0
C1682 C 0.94496 0.72687 0.75412 0.0
C1683 C 0.94464 0.73728 0.73244 0.0
N1684 N 0.94839 0.7712 0.70984 0.0
N1685 N 0.95403 0.73097 0.79392 0.0
C1686 C 0.94505 0.76125 0.7305 0.0
C1687 C 0.94798 0.74054 0.7737 0.0
N1688 N 0.93728 0.79715 0.74871 0.0
N1689 N 0.94132 0.70408 0.75618 0.0
H1690 H 0.95704 0.74046 0.80853 0.0
H1691 H 0.95833 0.71392 0.79561 0.0
H1692 H 0.9383 0.69351 0.74235 0.0
H1693 H 0.93903 0.69604 0.77173 0.0
H1694 H 0.93283 0.8049 0.73348 0.0
H1695 H 0.93485 0.80756 0.76278 0.0
H1696 H 0.95119 0.78853 0.70783 0.0
H1697 H 0.9507 0.76195 0.69495 0.0
C1698 C 0.06017 0.72609 0.24999 0.0
C1699 C 0.05959 0.73708 0.27137 0.0
C1700 C 0.06045 0.77405 0.25245 0.0
C1701 C 0.05863 0.76301 0.23115 0.0
N1702 N 0.05187 0.72868 0.20993 0.0
N1703 N 0.05472 0.77146 0.29302 0.0
C1704 C 0.05709 0.73905 0.22998 0.0
C1705 C 0.0585 0.76107 0.27265 0.0
N1706 N 0.0647 0.70341 0.2487 0.0
N1707 N 0.06505 0.79674 0.25346 0.0
H1708 H 0.05276 0.76255 0.30815 0.0
H1709 H 0.05137 0.78873 0.29456 0.0
H1710 H 0.06715 0.80681 0.23908 0.0
H1711 H 0.06895 0.80515 0.26848 0.0
H1712 H 0.06761 0.69497 0.23347 0.0
H1713 H 0.06795 0.69352 0.26295 0.0
H1714 H 0.04825 0.71144 0.20865 0.0
H1715 H 0.04887 0.73761 0.19497 0.0
C1716 C 0.55982 0.74111 0.73205 0.0
C1717 C 0.55991 0.76516 0.7323 0.0
C1718 C 0.55927 0.76475 0.77383 0.0
C1719 C 0.56183 0.74083 0.77353 0.0
N1720 N 0.56953 0.70674 0.75217 0.0
N1721 N 0.56477 0.7999 0.75347 0.0
C1722 C 0.56349 0.72911 0.75258 0.0
C1723 C 0.56102 0.77703 0.75321 0.0
N1724 N 0.55531 0.72968 0.71241 0.0
N1725 N 0.5542 0.7757 0.79361 0.0
H1726 H 0.56699 0.80947 0.73879 0.0
H1727 H 0.56803 0.80895 0.76828 0.0
H1728 H 0.55207 0.76731 0.80901 0.0
H1729 H 0.54985 0.7928 0.79429 0.0
H1730 H 0.55276 0.71221 0.71181 0.0
H1731 H 0.55178 0.73782 0.69712 0.0
H1732 H 0.57317 0.69801 0.73726 0.0
H1733 H 0.57328 0.69752 0.76678 0.0
C1734 C 0.44177 0.7255 0.25211 0.0
C1735 C 0.44529 0.73631 0.2309 0.0
C1736 C 0.44534 0.77334 0.24961 0.0
C1737 C 0.44396 0.76245 0.27103 0.0
N1738 N 0.44577 0.7279 0.29289 0.0
N1739 N 0.45553 0.76996 0.21003 0.0
C1740 C 0.44356 0.73843 0.27237 0.0
C1741 C 0.44858 0.76008 0.22981 0.0
N1742 N 0.4357 0.70315 0.25293 0.0
N1743 N 0.44242 0.79626 0.24799 0.0
H1744 H 0.45865 0.76074 0.19527 0.0
H1745 H 0.46044 0.78688 0.2089 0.0
H1746 H 0.43913 0.80648 0.26198 0.0
H1747 H 0.44091 0.80476 0.23259 0.0
H1748 H 0.43053 0.69509 0.26777 0.0
H1749 H 0.43376 0.69312 0.23851 0.0
H1750 H 0.44795 0.71046 0.2946 0.0
H1751 H 0.4477 0.73673 0.30808 0.0
C1752 C 0.23657 0.73123 0.05488 0.0
C1753 C 0.26059 0.73055 0.05561 0.0
C1754 C 0.2618 0.77188 0.05122 0.0
C1755 C 0.23787 0.77272 0.05349 0.0
N1756 N 0.20298 0.75323 0.06279 0.0
N1757 N 0.29607 0.75081 0.05921 0.0
C1758 C 0.22535 0.75241 0.05676 0.0
C1759 C 0.27327 0.75103 0.05504 0.0
N1760 N 0.22442 0.71178 0.0515 0.0
N1761 N 0.27355 0.79072 0.04462 0.0
H1762 H 0.30506 0.73608 0.06301 0.0
H1763 H 0.30561 0.76553 0.06124 0.0
H1764 H 0.26572 0.80614 0.04097 0.0
H1765 H 0.29073 0.79039 0.04051 0.0
H1766 H 0.207 0.71174 0.04858 0.0
H1767 H 0.23199 0.69598 0.04914 0.0
H1768 H 0.1938 0.73891 0.06758 0.0
H1769 H 0.19422 0.76833 0.06549 0.0
C1770 C 0.74002 0.72879 0.55936 0.0
C1771 C 0.76405 0.72802 0.56017 0.0
C1772 C 0.76537 0.76952 0.55772 0.0
C1773 C 0.74139 0.77034 0.55956 0.0
N1774 N 0.70638 0.75062 0.56774 0.0
N1775 N 0.79944 0.74802 0.5654 0.0
C1776 C 0.72882 0.74993 0.56197 0.0
C1777 C 0.77672 0.7485 0.56084 0.0
N1778 N 0.72783 0.70955 0.55508 0.0
N1779 N 0.77729 0.78857 0.55206 0.0
H1780 H 0.80828 0.7331 0.56879 0.0
H1781 H 0.80898 0.76261 0.56825 0.0
H1782 H 0.76959 0.80416 0.54888 0.0
H1783 H 0.79454 0.78833 0.54825 0.0
H1784 H 0.71042 0.7097 0.55202 0.0
H1785 H 0.73532 0.69382 0.55216 0.0
H1786 H 0.69709 0.73617 0.57188 0.0
H1787 H 0.69766 0.76566 0.57088 0.0
C1788 C 0.26257 0.73041 0.45105 0.0
C1789 C 0.23856 0.73067 0.44969 0.0
C1790 C 0.23897 0.77219 0.45138 0.0
C1791 C 0.26294 0.77193 0.44954 0.0
N1792 N 0.29742 0.75061 0.44346 0.0
N1793 N 0.20396 0.75202 0.44438 0.0
C1794 C 0.27477 0.75099 0.44835 0.0
C1795 C 0.22671 0.75162 0.44883 0.0
N1796 N 0.27372 0.71062 0.45563 0.0
N1797 N 0.22791 0.79195 0.45628 0.0
H1798 H 0.19438 0.73744 0.44161 0.0
H1799 H 0.19503 0.76692 0.44119 0.0
H1800 H 0.23634 0.80728 0.4589 0.0
H1801 H 0.21067 0.79267 0.46007 0.0
H1802 H 0.29103 0.70989 0.45908 0.0
H1803 H 0.26534 0.69528 0.45833 0.0
H1804 H 0.30629 0.73573 0.44002 0.0
H1805 H 0.30694 0.76521 0.44058 0.0
C1806 C 0.74293 0.73916 0.96255 0.0
C1807 C 0.73321 0.73023 0.94245 0.0
C1808 C 0.74821 0.76248 0.92094 0.0
C1809 C 0.75575 0.7726 0.94145 0.0
N1810 N 0.75533 0.77283 0.98236 0.0
N1811 N 0.7219 0.73627 0.90354 0.0
C1812 C 0.7517 0.76158 0.96245 0.0
C1813 C 0.73449 0.74269 0.9219 0.0
N1814 N 0.74468 0.72597 0.98152 0.0
N1815 N 0.75498 0.771 0.90049 0.0
H1816 H 0.71096 0.72239 0.90372 0.0
H1817 H 0.72049 0.74613 0.88896 0.0
H1818 H 0.76574 0.78491 0.89889 0.0
H1819 H 0.75182 0.7628 0.88517 0.0
H1820 H 0.75368 0.73094 0.99588 0.0
H1821 H 0.73922 0.70917 0.98213 0.0
H1822 H 0.75058 0.76637 0.99809 0.0
H1823 H 0.76075 0.78963 0.98297 0.0
C1824 C 0.31605 0.51908 0.48809 0.0
C1825 C 0.31726 0.51894 0.5121 0.0
C1826 C 0.31566 0.4774 0.51205 0.0
C1827 C 0.31647 0.47751 0.48801 0.0
N1828 N 0.32319 0.49835 0.45343 0.0
N1829 N 0.32379 0.49794 0.54661 0.0
C1830 C 0.31836 0.49833 0.47609 0.0
C1831 C 0.31871 0.49808 0.52401 0.0
N1832 N 0.31159 0.53877 0.47672 0.0
N1833 N 0.3109 0.45782 0.52348 0.0
H1834 H 0.32698 0.5127 0.55581 0.0
H1835 H 0.32723 0.48316 0.55564 0.0
H1836 H 0.30791 0.44239 0.51541 0.0
H1837 H 0.30774 0.45735 0.54085 0.0
H1838 H 0.30814 0.5393 0.45941 0.0
H1839 H 0.30912 0.55427 0.48482 0.0
H1840 H 0.32692 0.51306 0.44439 0.0
H1841 H 0.32592 0.48354 0.44419 0.0
C1842 C 0.81221 0.50056 0.98036 0.0
C1843 C 0.80837 0.47926 0.99087 0.0
C1844 C 0.8063 0.49776 0.02799 0.0
C1845 C 0.80852 0.51926 0.01731 0.0
N1846 N 0.80768 0.54126 0.9828 0.0
N1847 N 0.79665 0.45806 0.02378 0.0
C1848 C 0.80981 0.52072 0.99332 0.0
C1849 C 0.80394 0.47799 0.01444 0.0
N1850 N 0.81908 0.50155 0.95825 0.0
N1851 N 0.80737 0.496 0.05106 0.0
H1852 H 0.79429 0.4433 0.01433 0.0
H1853 H 0.79079 0.45673 0.04038 0.0
H1854 H 0.80899 0.50993 0.06174 0.0
H1855 H 0.80861 0.48056 0.05954 0.0
H1856 H 0.82451 0.51646 0.9505 0.0
H1857 H 0.82139 0.48719 0.94821 0.0
H1858 H 0.80617 0.54302 0.9653 0.0
H1859 H 0.80495 0.55635 0.9916 0.0
C1860 C 0.25834 0.5765 0.24172 0.0
C1861 C 0.27043 0.55595 0.23845 0.0
C1862 C 0.23936 0.53485 0.25626 0.0
C1863 C 0.22851 0.55561 0.26176 0.0
N1864 N 0.23047 0.59648 0.26416 0.0
N1865 N 0.27462 0.51611 0.24676 0.0
C1866 C 0.23875 0.57655 0.25573 0.0
C1867 C 0.26156 0.53525 0.24689 0.0
N1868 N 0.26486 0.59581 0.23068 0.0
N1869 N 0.22814 0.51478 0.2591 0.0
H1870 H 0.29124 0.51586 0.24073 0.0
H1871 H 0.26984 0.50111 0.25476 0.0
H1872 H 0.21158 0.51381 0.26519 0.0
H1873 H 0.23438 0.49933 0.25324 0.0
H1874 H 0.25515 0.61056 0.23058 0.0
H1875 H 0.27873 0.5965 0.21975 0.0
H1876 H 0.23877 0.61194 0.26217 0.0
H1877 H 0.21663 0.59734 0.27512 0.0
C1878 C 0.1881 0.97986 0.48973 0.0
C1879 C 0.18636 0.9799 0.5137 0.0
C1880 C 0.18633 0.02147 0.51365 0.0
C1881 C 0.18569 0.02132 0.48963 0.0
N1882 N 0.18019 0.00017 0.45505 0.0
N1883 N 0.17826 0.00074 0.54807 0.0
C1884 C 0.1849 0.00044 0.47771 0.0
C1885 C 0.18388 0.00071 0.52559 0.0
N1886 N 0.19382 0.96045 0.47844 0.0
N1887 N 0.19029 0.04121 0.52512 0.0
H1888 H 0.17534 0.98595 0.5573 0.0
H1889 H 0.1741 0.01544 0.55692 0.0
H1890 H 0.1928 0.05673 0.51705 0.0
H1891 H 0.19332 0.04178 0.54251 0.0
H1892 H 0.19752 0.96013 0.46118 0.0
H1893 H 0.19722 0.94516 0.48663 0.0
H1894 H 0.17733 0.9853 0.44596 0.0
H1895 H 0.1766 0.01486 0.44591 0.0
C1896 C 0.70968 0.50817 0.49468 0.0
C1897 C 0.68957 0.51807 0.48598 0.0
C1898 C 0.66719 0.48745 0.50302 0.0
C1899 C 0.68752 0.47622 0.50932 0.0
N1900 N 0.72828 0.47359 0.50638 0.0
N1901 N 0.64959 0.51443 0.47766 0.0
C1902 C 0.70884 0.48594 0.50384 0.0
C1903 C 0.66839 0.507 0.48899 0.0
N1904 N 0.72945 0.52026 0.49502 0.0
N1905 N 0.64678 0.48008 0.51115 0.0
H1906 H 0.64981 0.52817 0.46656 0.0
H1907 H 0.63433 0.50553 0.47746 0.0
H1908 H 0.64515 0.46625 0.52202 0.0
H1909 H 0.63174 0.48908 0.50895 0.0
H1910 H 0.74405 0.51462 0.50321 0.0
H1911 H 0.73062 0.53694 0.48927 0.0
H1912 H 0.74403 0.47908 0.50056 0.0
H1913 H 0.72829 0.45684 0.51197 0.0
C1914 C 0.7491 0.55428 0.772 0.0
C1915 C 0.7278 0.55512 0.7607 0.0
C1916 C 0.7474 0.56128 0.72466 0.0
C1917 C 0.76852 0.55743 0.73548 0.0
N1918 N 0.78915 0.54586 0.76886 0.0
N1919 N 0.70697 0.5546 0.72544 0.0
C1920 C 0.76931 0.55267 0.759 0.0
C1921 C 0.727 0.55727 0.73677 0.0
N1922 N 0.75025 0.55618 0.79505 0.0
N1923 N 0.74682 0.5698 0.70316 0.0
H1924 H 0.69176 0.55069 0.73355 0.0
H1925 H 0.70594 0.55387 0.70782 0.0
H1926 H 0.7615 0.57431 0.69445 0.0
H1927 H 0.73191 0.57485 0.69516 0.0
H1928 H 0.76549 0.55797 0.8038 0.0
H1929 H 0.73606 0.5585 0.80529 0.0
H1930 H 0.79006 0.53984 0.78543 0.0
H1931 H 0.80429 0.54413 0.75988 0.0
C1932 C 0.48676 0.30466 0.52091 0.0
C1933 C 0.51035 0.29994 0.52032 0.0
C1934 C 0.50795 0.29388 0.47919 0.0
C1935 C 0.48521 0.30159 0.47955 0.0
N1936 N 0.45406 0.31819 0.50017 0.0
N1937 N 0.54426 0.29322 0.49815 0.0
C1938 C 0.47487 0.308 0.50026 0.0
C1939 C 0.52121 0.29525 0.49928 0.0
N1940 N 0.47547 0.30506 0.54114 0.0
N1941 N 0.51671 0.28464 0.45983 0.0
H1942 H 0.55481 0.29415 0.51224 0.0
H1943 H 0.55317 0.29256 0.48292 0.0
H1944 H 0.50749 0.28329 0.4448 0.0
H1945 H 0.53234 0.27642 0.45925 0.0
H1946 H 0.45789 0.30625 0.54237 0.0
H1947 H 0.48335 0.30168 0.5566 0.0
H1948 H 0.44672 0.32532 0.51455 0.0
H1949 H 0.44516 0.32158 0.48529 0.0
C1950 C 0.4896 0.1899 0.98247 0.0
C1951 C 0.51367 0.19033 0.98286 0.0
C1952 C 0.51288 0.19443 0.02423 0.0
C1953 C 0.48902 0.19145 0.02401 0.0
N1954 N 0.45522 0.18136 0.00317 0.0
N1955 N 0.54826 0.1879 0.00463 0.0
C1956 C 0.4775 0.18778 0.0032 0.0
C1957 C 0.52534 0.19118 0.0039 0.0
N1958 N 0.47821 0.19254 0.96247 0.0
N1959 N 0.5236 0.20132 0.04358 0.0
H1960 H 0.55788 0.18458 0.99022 0.0
H1961 H 0.55729 0.18607 0.0197 0.0
H1962 H 0.51506 0.2046 0.0587 0.0
H1963 H 0.54063 0.20602 0.044 0.0
H1964 H 0.4607 0.19471 0.96158 0.0
H1965 H 0.48636 0.19491 0.94697 0.0
H1966 H 0.44669 0.17626 0.98858 0.0
H1967 H 0.44589 0.17884 0.01797 0.0
C1968 C 0.52586 0.6935 0.50224 0.0
C1969 C 0.51515 0.69582 0.48083 0.0
C1970 C 0.47798 0.69624 0.49922 0.0
C1971 C 0.48873 0.69596 0.52075 0.0
N1972 N 0.52307 0.69943 0.54276 0.0
N1973 N 0.48156 0.70497 0.45933 0.0
C1974 C 0.51275 0.69605 0.52229 0.0
C1975 C 0.49136 0.69885 0.47942 0.0
N1976 N 0.54831 0.68785 0.5035 0.0
N1977 N 0.45513 0.69285 0.49752 0.0
H1978 H 0.49086 0.7077 0.44454 0.0
H1979 H 0.46459 0.70965 0.45792 0.0
H1980 H 0.44481 0.68997 0.51153 0.0
H1981 H 0.44683 0.69052 0.48211 0.0
H1982 H 0.55635 0.68357 0.51862 0.0
H1983 H 0.55845 0.68536 0.48924 0.0
H1984 H 0.54046 0.70196 0.5445 0.0
H1985 H 0.51406 0.70202 0.55775 0.0
C1986 C 0.47543 0.80254 0.00256 0.0
C1987 C 0.48691 0.80613 0.98166 0.0
C1988 C 0.5222 0.81369 0.00226 0.0
C1989 C 0.51122 0.80814 0.02292 0.0
N1990 N 0.47868 0.79267 0.04228 0.0
N1991 N 0.52235 0.80966 0.96147 0.0
C1992 C 0.48818 0.80127 0.02297 0.0
C1993 C 0.51063 0.81018 0.98145 0.0
N1994 N 0.4523 0.80134 0.00315 0.0
N1995 N 0.54337 0.82314 0.00249 0.0
H1996 H 0.51471 0.80619 0.94591 0.0
H1997 H 0.53999 0.81022 0.9606 0.0
H1998 H 0.55229 0.82647 0.01738 0.0
H1999 H 0.55114 0.82974 0.98808 0.0
H2000 H 0.44301 0.80141 0.01817 0.0
H2001 H 0.44216 0.80229 0.98874 0.0
H2002 H 0.46276 0.78504 0.04265 0.0
H2003 H 0.48751 0.79118 0.05752 0.0
C2004 C 0.47773 0.01324 0.80073 0.0
C2005 C 0.47936 0.98926 0.80134 0.0
C2006 C 0.52082 0.99213 0.80005 0.0
C2007 C 0.51918 0.01599 0.80244 0.0
N2008 N 0.49589 0.04885 0.80975 0.0
N2009 N 0.50278 0.95599 0.80671 0.0
C2010 C 0.49757 0.02648 0.80404 0.0
C2011 C 0.50099 0.97868 0.80236 0.0
N2012 N 0.45742 0.02343 0.79616 0.0
N2013 N 0.54112 0.98231 0.79471 0.0
H2014 H 0.48883 0.94555 0.80961 0.0
H2015 H 0.51822 0.94801 0.80988 0.0
H2016 H 0.55595 0.99159 0.79213 0.0
H2017 H 0.5427 0.96523 0.79049 0.0
H2018 H 0.4558 0.04079 0.79333 0.0
H2019 H 0.44262 0.01435 0.79283 0.0
H2020 H 0.48052 0.05676 0.81339 0.0
H2021 H 0.50999 0.05889 0.8132 0.0
C2022 C 0.52288 0.48826 0.30198 0.0
C2023 C 0.52289 0.51215 0.30456 0.0
C2024 C 0.48135 0.51222 0.30325 0.0
C2025 C 0.48136 0.48819 0.3038 0.0
N2026 N 0.50255 0.45342 0.30895 0.0
N2027 N 0.50188 0.54644 0.31259 0.0
C2028 C 0.50224 0.47617 0.30459 0.0
C2029 C 0.50205 0.52407 0.30654 0.0
N2030 N 0.54235 0.47711 0.29617 0.0
N2031 N 0.4618 0.5238 0.29872 0.0
H2032 H 0.51656 0.5556 0.31618 0.0
H2033 H 0.48704 0.55522 0.31642 0.0
H2034 H 0.44643 0.51576 0.2953 0.0
H2035 H 0.46139 0.54124 0.29593 0.0
H2036 H 0.54267 0.45997 0.29189 0.0
H2037 H 0.55769 0.4854 0.29322 0.0
H2038 H 0.51747 0.44443 0.31188 0.0
H2039 H 0.48797 0.44396 0.31215 0.0
C2040 C 0.49841 0.97964 0.19614 0.0
C2041 C 0.51913 0.99039 0.19006 0.0
C2042 C 0.49826 0.02498 0.1804 0.0
C2043 C 0.4781 0.01512 0.18895 0.0
N2044 N 0.45944 0.98436 0.20834 0.0
N2045 N 0.53925 0.02489 0.1809 0.0
C2046 C 0.47827 0.99278 0.19776 0.0
C2047 C 0.51921 0.01351 0.18337 0.0
N2048 N 0.49767 0.95671 0.1994 0.0
N2049 N 0.49728 0.04494 0.16869 0.0
H2050 H 0.55501 0.01744 0.18384 0.0
H2051 H 0.54017 0.04233 0.17828 0.0
H2052 H 0.48205 0.05332 0.16545 0.0
H2053 H 0.51112 0.05186 0.16018 0.0
H2054 H 0.48261 0.9477 0.20138 0.0
H2055 H 0.51185 0.9463 0.19798 0.0
H2056 H 0.45941 0.96918 0.21736 0.0
H2057 H 0.44433 0.99344 0.20978 0.0
C2058 C 0.52137 0.51059 0.69953 0.0
C2059 C 0.52027 0.48659 0.70029 0.0
C2060 C 0.47894 0.48871 0.70433 0.0
C2061 C 0.47985 0.51238 0.70031 0.0
N2062 N 0.5019 0.5453 0.68976 0.0
N2063 N 0.49731 0.45258 0.69872 0.0
C2064 C 0.50106 0.52324 0.6968 0.0
C2065 C 0.49887 0.47553 0.7015 0.0
N2066 N 0.5417 0.5214 0.7022 0.0
N2067 N 0.45924 0.47888 0.71156 0.0
H2068 H 0.51125 0.44221 0.69555 0.0
H2069 H 0.48188 0.44412 0.69713 0.0
H2070 H 0.44443 0.48807 0.71452 0.0
H2071 H 0.45831 0.46208 0.71694 0.0
H2072 H 0.54312 0.53891 0.70402 0.0
H2073 H 0.55688 0.51278 0.70501 0.0
H2074 H 0.51686 0.55321 0.68469 0.0
H2075 H 0.48748 0.55505 0.68674 0.0
C2076 C 0.73879 0.9241 0.74134 0.0
C2077 C 0.72813 0.94498 0.73591 0.0
C2078 C 0.76015 0.96555 0.75255 0.0
C2079 C 0.76932 0.94475 0.76046 0.0
N2080 N 0.76423 0.90457 0.76681 0.0
N2081 N 0.72636 0.98561 0.74085 0.0
C2082 C 0.75779 0.92408 0.7561 0.0
C2083 C 0.73816 0.96576 0.74277 0.0
N2084 N 0.73151 0.90435 0.73165 0.0
N2085 N 0.77275 0.98498 0.7535 0.0
H2086 H 0.70982 0.98644 0.73465 0.0
H2087 H 0.73207 0.00088 0.74766 0.0
H2088 H 0.78931 0.98544 0.75969 0.0
H2089 H 0.76767 0.0001 0.74593 0.0
H2090 H 0.74021 0.88907 0.73335 0.0
H2091 H 0.71828 0.90362 0.71996 0.0
H2092 H 0.7549 0.8896 0.7659 0.0
H2093 H 0.77743 0.9039 0.77854 0.0
C2094 C 0.77503 0.45076 0.23815 0.0
C2095 C 0.77395 0.44691 0.26186 0.0
C2096 C 0.73247 0.44537 0.25969 0.0
C2097 C 0.73376 0.44629 0.23571 0.0
N2098 N 0.75679 0.4454 0.20183 0.0
N2099 N 0.7518 0.43584 0.29453 0.0
C2100 C 0.75519 0.44782 0.22482 0.0
C2101 C 0.75271 0.44296 0.2725 0.0
N2102 N 0.79477 0.45804 0.22844 0.0
N2103 N 0.71201 0.44764 0.27035 0.0
H2104 H 0.76619 0.43299 0.30438 0.0
H2105 H 0.73687 0.43048 0.3023 0.0
H2106 H 0.69683 0.45016 0.26163 0.0
H2107 H 0.71043 0.44942 0.28784 0.0
H2108 H 0.79585 0.46331 0.21163 0.0
H2109 H 0.80953 0.46104 0.23771 0.0
H2110 H 0.77222 0.444 0.19335 0.0
H2111 H 0.74281 0.44245 0.19145 0.0
C2112 C 0.02669 0.25068 0.13648 0.0
C2113 C 0.02374 0.25276 0.11273 0.0
C2114 C 0.99302 0.22495 0.11336 0.0
C2115 C 0.99482 0.22413 0.13731 0.0
N2116 N 0.01629 0.23114 0.17126 0.0
N2117 N 0.00879 0.23836 0.0777 0.0
C2118 C 0.01284 0.23518 0.14872 0.0
C2119 C 0.00847 0.23857 0.10087 0.0
N2120 N 0.04178 0.2645 0.14737 0.0
N2121 N 0.97595 0.21338 0.10277 0.0
H2122 H 0.02008 0.24823 0.0683 0.0
H2123 H 0.99931 0.22727 0.0678 0.0
H2124 H 0.96528 0.20218 0.11137 0.0
H2125 H 0.97184 0.21525 0.08573 0.0
H2126 H 0.04299 0.26589 0.1649 0.0
H2127 H 0.05268 0.2754 0.13869 0.0
H2128 H 0.0301 0.23728 0.18035 0.0
H2129 H 0.00617 0.22004 0.18058 0.0
C2130 C 0.0013 0.28096 0.38665 0.0
C2131 C 0.00052 0.27938 0.3627 0.0
C2132 C 0.02953 0.24984 0.36294 0.0
C2133 C 0.02889 0.25003 0.38695 0.0
N2134 N 0.01931 0.26892 0.42175 0.0
N2135 N 0.01778 0.26784 0.32775 0.0
C2136 C 0.01661 0.26687 0.39884 0.0
C2137 C 0.01611 0.26567 0.35074 0.0
N2138 N 0.98648 0.29497 0.39765 0.0
N2139 N 0.04216 0.23381 0.35195 0.0
H2140 H 0.00828 0.27976 0.31876 0.0
H2141 H 0.02978 0.25947 0.31791 0.0
H2142 H 0.05301 0.22275 0.36051 0.0
H2143 H 0.04142 0.23092 0.33457 0.0
H2144 H 0.98418 0.29513 0.41513 0.0
H2145 H 0.97582 0.30614 0.38903 0.0
H2146 H 0.01216 0.28184 0.43139 0.0
H2147 H 0.0303 0.25855 0.43096 0.0
C2148 C 0.98474 0.26742 0.60184 0.0
C2149 C 0.97052 0.25207 0.61359 0.0
C2150 C 0.9835 0.26687 0.65008 0.0
C2151 C 0.99928 0.28065 0.63833 0.0
N2152 N 0.01123 0.29898 0.60401 0.0
N2153 N 0.95149 0.2409 0.64777 0.0
C2154 C 0.99849 0.28268 0.61444 0.0
C2155 C 0.96813 0.25325 0.63742 0.0
N2156 N 0.98592 0.26641 0.57872 0.0
N2157 N 0.98426 0.26583 0.67321 0.0
H2158 H 0.94017 0.23083 0.63862 0.0
H2159 H 0.94769 0.24193 0.66496 0.0
H2160 H 0.99486 0.27624 0.68282 0.0
H2161 H 0.97506 0.25431 0.68288 0.0
H2162 H 0.99773 0.27523 0.56904 0.0
H2163 H 0.97522 0.25605 0.56916 0.0
H2164 H 0.01051 0.30252 0.58676 0.0
H2165 H 0.02136 0.31029 0.61311 0.0
C2166 C 0.9692 0.24571 0.85926 0.0
C2167 C 0.97055 0.24624 0.88321 0.0
C2168 C 0.99705 0.21438 0.88315 0.0
C2169 C 0.99771 0.21562 0.85918 0.0
N2170 N 0.98065 0.22726 0.82416 0.0
N2171 N 0.98006 0.22795 0.91824 0.0
C2172 C 0.98226 0.22947 0.84715 0.0
C2173 C 0.98245 0.22927 0.89525 0.0
N2174 N 0.95646 0.26163 0.84824 0.0
N2175 N 0.01145 0.19997 0.89419 0.0
H2176 H 0.96936 0.23884 0.9272 0.0
H2177 H 0.98711 0.21521 0.92819 0.0
H2178 H 0.02163 0.18834 0.88558 0.0
H2179 H 0.01379 0.1998 0.91166 0.0
H2180 H 0.95651 0.26399 0.83078 0.0
H2181 H 0.94601 0.27299 0.85691 0.0
H2182 H 0.96887 0.23582 0.81421 0.0
H2183 H 0.99016 0.21532 0.81519 0.0
C2184 C 0.01142 0.76708 0.90122 0.0
C2185 C 0.0281 0.75439 0.88953 0.0
C2186 C 0.01777 0.77252 0.8537 0.0
C2187 C 0.99961 0.78342 0.86504 0.0
N2188 N 0.98289 0.79679 0.89967 0.0
N2189 N 0.05173 0.7493 0.8567 0.0
C2190 C 0.99782 0.78268 0.88895 0.0
C2191 C 0.033 0.75882 0.86645 0.0
N2192 N 0.00797 0.76324 0.92381 0.0
N2193 N 0.0194 0.77396 0.83063 0.0
H2194 H 0.06289 0.73897 0.86572 0.0
H2195 H 0.0573 0.75303 0.8404 0.0
H2196 H 0.00884 0.78435 0.82097 0.0
H2197 H 0.03052 0.76433 0.82091 0.0
H2198 H 0.99443 0.76983 0.93298 0.0
H2199 H 0.0186 0.75275 0.93332 0.0
H2200 H 0.98163 0.79833 0.91718 0.0
H2201 H 0.97294 0.80846 0.89082 0.0
C2202 C 0.48071 0.27015 0.14959 0.0
C2203 C 0.49711 0.2831 0.13789 0.0
C2204 C 0.48134 0.27103 0.10147 0.0
C2205 C 0.46836 0.25463 0.11315 0.0
N2206 N 0.4525 0.24011 0.14774 0.0
N2207 N 0.5115 0.29911 0.10332 0.0
C2208 C 0.46661 0.25508 0.1371 0.0
C2209 C 0.49652 0.285 0.11395 0.0
N2210 N 0.47923 0.27204 0.17261 0.0
N2211 N 0.47937 0.27265 0.07846 0.0
H2212 H 0.52197 0.31019 0.11228 0.0
H2213 H 0.51384 0.29978 0.08586 0.0
H2214 H 0.46814 0.26246 0.06931 0.0
H2215 H 0.48741 0.28488 0.06865 0.0
H2216 H 0.46707 0.26394 0.18248 0.0
H2217 H 0.48943 0.28329 0.18171 0.0
H2218 H 0.45191 0.2377 0.16519 0.0
H2219 H 0.44135 0.22971 0.13879 0.0
C2220 C 0.99368 0.74022 0.40178 0.0
C2221 C 0.97629 0.75186 0.39005 0.0
C2222 C 0.98565 0.73156 0.35506 0.0
C2223 C 0.00537 0.72307 0.36584 0.0
N2224 N 0.02785 0.7174 0.39945 0.0
N2225 N 0.95449 0.75852 0.35624 0.0
C2226 C 0.0091 0.72656 0.38933 0.0
C2227 C 0.97157 0.74711 0.36698 0.0
N2228 N 0.9953 0.74237 0.4248 0.0
N2229 N 0.98078 0.72509 0.33336 0.0
H2230 H 0.94348 0.76944 0.36475 0.0
H2231 H 0.95166 0.75796 0.33885 0.0
H2232 H 0.99111 0.7141 0.32414 0.0
H2233 H 0.96577 0.72914 0.32503 0.0
H2234 H 0.00646 0.73311 0.43483 0.0
H2235 H 0.98404 0.75225 0.43423 0.0
H2236 H 0.03325 0.72143 0.41574 0.0
H2237 H 0.03859 0.70606 0.39114 0.0
C2238 C 0.52642 0.25288 0.6412 0.0
C2239 C 0.52782 0.24949 0.6175 0.0
C2240 C 0.5044 0.21535 0.62067 0.0
C2241 C 0.4995 0.22137 0.64342 0.0
N2242 N 0.50651 0.24454 0.67625 0.0
N2243 N 0.51973 0.22728 0.5843 0.0
C2244 C 0.51104 0.23955 0.65407 0.0
C2245 C 0.51771 0.23031 0.60718 0.0
N2246 N 0.53982 0.26892 0.65119 0.0
N2247 N 0.49583 0.19569 0.61191 0.0
H2248 H 0.53004 0.23755 0.57424 0.0
H2249 H 0.51068 0.21527 0.57511 0.0
H2250 H 0.48568 0.18469 0.62131 0.0
H2251 H 0.50013 0.18932 0.59604 0.0
H2252 H 0.54095 0.27134 0.66861 0.0
H2253 H 0.5514 0.27862 0.64195 0.0
H2254 H 0.51212 0.25914 0.68439 0.0
H2255 H 0.49632 0.23424 0.68641 0.0
C2256 C 0.10418 0.016 0.23152 0.0
C2257 C 0.115 0.02692 0.24997 0.0
C2258 C 0.15183 0.01187 0.23825 0.0
C2259 C 0.1408 0.99955 0.22084 0.0
N2260 N 0.10822 0.99387 0.19696 0.0
N2261 N 0.14908 0.04087 0.26737 0.0
C2262 C 0.11753 0.00317 0.21602 0.0
C2263 C 0.13891 0.02676 0.25206 0.0
N2264 N 0.08109 0.01676 0.22975 0.0
N2265 N 0.17444 0.00851 0.2421 0.0
H2266 H 0.13983 0.0521 0.27744 0.0
H2267 H 0.16654 0.04296 0.26875 0.0
H2268 H 0.18456 0.99865 0.23143 0.0
H2269 H 0.18306 0.01473 0.25617 0.0
H2270 H 0.07175 0.0071 0.21833 0.0
H2271 H 0.07106 0.02662 0.24047 0.0
H2272 H 0.09181 0.9972 0.19142 0.0
H2273 H 0.11761 0.98411 0.18559 0.0
C2274 C 0.23549 0.35292 0.48203 0.0
C2275 C 0.22145 0.36445 0.49768 0.0
C2276 C 0.23482 0.40115 0.48383 0.0
C2277 C 0.25054 0.3896 0.46987 0.0
N2278 N 0.26195 0.3556 0.45051 0.0
N2279 N 0.20253 0.39854 0.50937 0.0
C2280 C 0.24934 0.36578 0.46707 0.0
C2281 C 0.21923 0.38833 0.49698 0.0
N2282 N 0.23647 0.32978 0.48255 0.0
N2283 N 0.23575 0.42425 0.48529 0.0
H2284 H 0.19096 0.38922 0.51899 0.0
H2285 H 0.19893 0.41578 0.50873 0.0
H2286 H 0.24641 0.43394 0.47501 0.0
H2287 H 0.22656 0.43378 0.49694 0.0
H2288 H 0.24816 0.32018 0.47348 0.0
H2289 H 0.22573 0.32013 0.49278 0.0
H2290 H 0.26093 0.33846 0.4465 0.0
H2291 H 0.27222 0.36482 0.43946 0.0
C2292 C 0.84817 0.48661 0.73971 0.0
C2293 C 0.85961 0.50041 0.72377 0.0
C2294 C 0.89595 0.48332 0.73453 0.0
C2295 C 0.88497 0.47268 0.75302 0.0
N2296 N 0.85088 0.46255 0.77302 0.0
N2297 N 0.89396 0.51181 0.70486 0.0
C2298 C 0.86105 0.47351 0.75531 0.0
C2299 C 0.88336 0.49835 0.72046 0.0
N2300 N 0.82499 0.48625 0.73984 0.0
N2301 N 0.91844 0.47923 0.73076 0.0
H2302 H 0.88512 0.52238 0.69379 0.0
H2303 H 0.91148 0.51327 0.7034 0.0
H2304 H 0.92796 0.46842 0.74104 0.0
H2305 H 0.92725 0.48497 0.7166 0.0
H2306 H 0.81535 0.47536 0.74982 0.0
H2307 H 0.81532 0.49571 0.72843 0.0
H2308 H 0.83391 0.46449 0.77739 0.0
H2309 H 0.85979 0.45188 0.78396 0.0
C2310 C 0.76591 0.14766 0.98016 0.0
C2311 C 0.77861 0.13594 0.99679 0.0
C2312 C 0.76638 0.09942 0.98149 0.0
C2313 C 0.75194 0.11116 0.96634 0.0
N2314 N 0.74213 0.14538 0.94653 0.0
N2315 N 0.79642 0.10165 0.00965 0.0
C2316 C 0.75334 0.135 0.96394 0.0
C2317 C 0.78084 0.11206 0.99603 0.0
N2318 N 0.76499 0.1708 0.9808 0.0
N2319 N 0.76525 0.07631 0.98271 0.0
H2320 H 0.80715 0.11078 0.02035 0.0
H2321 H 0.80005 0.08441 0.00908 0.0
H2322 H 0.75549 0.06672 0.97147 0.0
H2323 H 0.7733 0.06668 0.99508 0.0
H2324 H 0.75417 0.18054 0.97086 0.0
H2325 H 0.77489 0.18032 0.99198 0.0
H2326 H 0.74346 0.16256 0.94282 0.0
H2327 H 0.73277 0.13628 0.93459 0.0
C2328 C 0.1158 0.99236 0.78631 0.0
C2329 C 0.13951 0.99367 0.78261 0.0
C2330 C 0.13782 0.96199 0.75599 0.0
C2331 C 0.11386 0.96256 0.75759 0.0
N2332 N 0.08035 0.97277 0.77817 0.0
N2333 N 0.17398 0.97631 0.76986 0.0
C2334 C 0.10299 0.97579 0.77435 0.0
C2335 C 0.15083 0.97708 0.76954 0.0
N2336 N 0.10552 0.00794 0.80002 0.0
N2337 N 0.14784 0.94804 0.74045 0.0
H2338 H 0.18355 0.98727 0.77994 0.0
H2339 H 0.18356 0.96391 0.76178 0.0
H2340 H 0.1386 0.93624 0.73104 0.0
H2341 H 0.16502 0.94842 0.73645 0.0
H2342 H 0.08805 0.00971 0.80161 0.0
H2343 H 0.11472 0.01968 0.80954 0.0
H2344 H 0.07135 0.98082 0.79102 0.0
H2345 H 0.07093 0.96063 0.76939 0.0
C2346 C 0.25988 0.40405 0.01181 0.0
C2347 C 0.24711 0.39255 0.02852 0.0
C2348 C 0.26573 0.35673 0.01877 0.0
C2349 C 0.27517 0.36749 0.9995 0.0
N2350 N 0.28366 0.40129 0.9783 0.0
N2351 N 0.23823 0.35865 0.04941 0.0
C2352 C 0.27328 0.39126 0.99644 0.0
C2353 C 0.25056 0.36916 0.03284 0.0
N2354 N 0.25895 0.42719 0.01073 0.0
N2355 N 0.27089 0.33458 0.02319 0.0
H2356 H 0.22758 0.3675 0.06041 0.0
H2357 H 0.23782 0.3412 0.05185 0.0
H2358 H 0.28164 0.32509 0.01286 0.0
H2359 H 0.26604 0.32609 0.03786 0.0
H2360 H 0.26891 0.437 -1e-05 0.0
H2361 H 0.24928 0.43681 0.02201 0.0
H2362 H 0.28096 0.41799 0.97335 0.0
H2363 H 0.29478 0.39253 0.96769 0.0
C2364 C 0.8636 0.5362 0.25786 0.0
C2365 C 0.88754 0.53412 0.25749 0.0
C2366 C 0.88621 0.50575 0.28763 0.0
C2367 C 0.86228 0.50547 0.28558 0.0
N2368 N 0.82778 0.52373 0.27431 0.0
N2369 N 0.92202 0.52246 0.27553 0.0
C2370 C 0.85083 0.5221 0.27269 0.0
C2371 C 0.89897 0.52084 0.27383 0.0
N2372 N 0.85323 0.5506 0.24296 0.0
N2373 N 0.89654 0.49066 0.30185 0.0
H2374 H 0.93137 0.53367 0.2655 0.0
H2375 H 0.93171 0.51409 0.28764 0.0
H2376 H 0.88732 0.48027 0.31281 0.0
H2377 H 0.91397 0.48819 0.30279 0.0
H2378 H 0.8358 0.55151 0.2405 0.0
H2379 H 0.86239 0.56171 0.2327 0.0
H2380 H 0.81811 0.53607 0.26626 0.0
H2381 H 0.81841 0.5134 0.28521 0.0
C2382 C 0.73367 0.10348 0.51822 0.0
C2383 C 0.75288 0.11442 0.52759 0.0
C2384 C 0.73961 0.15104 0.5132 0.0
C2385 C 0.7229 0.13948 0.50048 0.0
N2386 N 0.70249 0.10536 0.49132 0.0
N2387 N 0.77369 0.14846 0.53616 0.0
C2388 C 0.71909 0.11594 0.50355 0.0
C2389 C 0.75549 0.13827 0.52605 0.0
N2390 N 0.72978 0.08116 0.52303 0.0
N2391 N 0.74022 0.1742 0.51273 0.0
H2392 H 0.78477 0.13971 0.54682 0.0
H2393 H 0.77828 0.1653 0.53363 0.0
H2394 H 0.72855 0.18377 0.50347 0.0
H2395 H 0.7509 0.18402 0.52275 0.0
H2396 H 0.71524 0.07243 0.5182 0.0
H2397 H 0.74047 0.0717 0.53348 0.0
H2398 H 0.70037 0.08787 0.49061 0.0
H2399 H 0.69109 0.11422 0.48111 0.0
C2400 C 0.22205 0.11253 0.99593 0.0
C2401 C 0.22496 0.13628 0.99381 0.0
C2402 C 0.2565 0.13558 0.02069 0.0
C2403 C 0.25455 0.11163 0.02172 0.0
N2404 N 0.23291 0.07768 0.01512 0.0
N2405 N 0.24056 0.17129 0.00761 0.0
C2406 C 0.23629 0.10024 0.01106 0.0
C2407 C 0.24074 0.1481 0.00747 0.0
N2408 N 0.20656 0.10168 0.98254 0.0
N2409 N 0.27395 0.14614 0.03173 0.0
H2410 H 0.22909 0.18075 0.99802 0.0
H2411 H 0.2504 0.18117 0.01841 0.0
H2412 H 0.28491 0.13756 0.04266 0.0
H2413 H 0.27812 0.16314 0.02962 0.0
H2414 H 0.20527 0.08415 0.98116 0.0
H2415 H 0.19537 0.11038 0.97194 0.0
H2416 H 0.21893 0.06863 0.00933 0.0
H2417 H 0.24335 0.06827 0.02584 0.0
C2418 C 0.74235 0.84847 0.48549 0.0
C2419 C 0.72578 0.85931 0.49906 0.0
C2420 C 0.73463 0.89598 0.48171 0.0
C2421 C 0.75253 0.88544 0.46971 0.0
N2422 N 0.76958 0.85163 0.45471 0.0
N2423 N 0.70181 0.8915 0.5063 0.0
C2424 C 0.75496 0.86156 0.46969 0.0
C2425 C 0.72032 0.88247 0.49568 0.0
N2426 N 0.74666 0.82591 0.48861 0.0
N2427 N 0.73224 0.91899 0.48063 0.0
H2428 H 0.69125 0.88189 0.51673 0.0
H2429 H 0.69586 0.90786 0.5035 0.0
H2430 H 0.74191 0.92898 0.46968 0.0
H2431 H 0.72129 0.92829 0.49086 0.0
H2432 H 0.76025 0.81737 0.48129 0.0
H2433 H 0.73684 0.81578 0.49929 0.0
H2434 H 0.7712 0.8342 0.45262 0.0
H2435 H 0.77875 0.86104 0.44287 0.0
C2436 C 0.35246 0.97814 0.73074 0.0
C2437 C 0.3639 0.99395 0.71687 0.0
C2438 C 0.40049 0.97754 0.72772 0.0
C2439 C 0.38925 0.96535 0.74504 0.0
N2440 N 0.35493 0.95108 0.76173 0.0
N2441 N 0.3982 0.00752 0.6995 0.0
C2442 C 0.36526 0.96436 0.7458 0.0
C2443 C 0.38776 0.99283 0.71406 0.0
N2444 N 0.32936 0.97681 0.72961 0.0
N2445 N 0.42333 0.97489 0.72497 0.0
H2446 H 0.38911 0.01815 0.68869 0.0
H2447 H 0.41568 0.0096 0.69837 0.0
H2448 H 0.4328 0.96383 0.73502 0.0
H2449 H 0.4326 0.98215 0.71184 0.0
H2450 H 0.31967 0.96494 0.73834 0.0
H2451 H 0.32001 0.98667 0.71826 0.0
H2452 H 0.33761 0.95123 0.76502 0.0
H2453 H 0.36406 0.94002 0.77211 0.0
C2454 C 0.26567 0.60066 0.98554 0.0
C2455 C 0.25087 0.61255 0.97083 0.0
C2456 C 0.26544 0.64891 0.98436 0.0
C2457 C 0.27853 0.63706 0.0006 0.0
N2458 N 0.29635 0.60267 0.01308 0.0
N2459 N 0.24079 0.64685 0.95136 0.0
C2460 C 0.28057 0.61318 0.99977 0.0
C2461 C 0.2523 0.63639 0.96852 0.0
N2462 N 0.26435 0.57756 0.98688 0.0
N2463 N 0.26472 0.67206 0.98502 0.0
H2464 H 0.23116 0.63779 0.93959 0.0
H2465 H 0.24213 0.66403 0.94762 0.0
H2466 H 0.27505 0.68151 0.99584 0.0
H2467 H 0.25364 0.68188 0.97544 0.0
H2468 H 0.27273 0.56789 0.99901 0.0
H2469 H 0.2541 0.56798 0.97611 0.0
H2470 H 0.29988 0.58541 0.01242 0.0
H2471 H 0.3073 0.61174 0.02362 0.0
C2472 C 0.74748 0.86346 0.02976 0.0
C2473 C 0.7491 0.88743 0.02908 0.0
C2474 C 0.78026 0.88518 0.00186 0.0
C2475 C 0.77689 0.86143 0.00072 0.0
N2476 N 0.76332 0.82725 0.01789 0.0
N2477 N 0.77039 0.92093 0.01999 0.0
C2478 C 0.76254 0.85033 0.01632 0.0
C2479 C 0.76687 0.89822 0.01711 0.0
N2480 N 0.73082 0.85349 0.04239 0.0
N2481 N 0.79528 0.89524 0.98737 0.0
H2482 H 0.76057 0.93066 0.03102 0.0
H2483 H 0.78393 0.92977 0.01295 0.0
H2484 H 0.80596 0.88585 0.97685 0.0
H2485 H 0.79687 0.91268 0.98532 0.0
H2486 H 0.72694 0.83629 0.04176 0.0
H2487 H 0.7203 0.86276 0.05319 0.0
H2488 H 0.75428 0.81785 0.02976 0.0
H2489 H 0.77485 0.81771 0.00845 0.0
C2490 C 0.35291 0.52084 0.76982 0.0
C2491 C 0.36385 0.50415 0.78313 0.0
C2492 C 0.40107 0.51775 0.771 0.0
C2493 C 0.39008 0.53269 0.7558 0.0
N2494 N 0.35685 0.55352 0.74493 0.0
N2495 N 0.39737 0.49075 0.80195 0.0
C2496 C 0.36635 0.53611 0.75688 0.0
C2497 C 0.3877 0.50418 0.78574 0.0
N2498 N 0.32978 0.52105 0.76862 0.0
N2499 N 0.42414 0.51567 0.77023 0.0
H2500 H 0.38765 0.48081 0.8129 0.0
H2501 H 0.41457 0.49081 0.80582 0.0
H2502 H 0.43421 0.52619 0.76017 0.0
H2503 H 0.43323 0.50332 0.77893 0.0
H2504 H 0.32056 0.53108 0.75743 0.0
H2505 H 0.31973 0.51052 0.7787 0.0
H2506 H 0.3398 0.55795 0.74586 0.0
H2507 H 0.36661 0.56476 0.73537 0.0
C2508 C 0.63953 0.97401 0.24499 0.0
C2509 C 0.61577 0.97189 0.24787 0.0
C2510 C 0.6171 0.99608 0.28154 0.0
C2511 C 0.64049 0.99988 0.27732 0.0
N2512 N 0.6753 0.98848 0.25956 0.0
N2513 N 0.58282 0.97536 0.27152 0.0
C2514 C 0.65216 0.98737 0.26053 0.0
C2515 C 0.60489 0.98094 0.26723 0.0
N2516 N 0.64969 0.96392 0.22681 0.0
N2517 N 0.60639 0.00805 0.29823 0.0
H2518 H 0.57364 0.96444 0.26106 0.0
H2519 H 0.57417 0.97994 0.28618 0.0
H2520 H 0.61505 0.01871 0.30937 0.0
H2521 H 0.58892 0.00815 0.30065 0.0
H2522 H 0.66639 0.96676 0.2219 0.0
H2523 H 0.64093 0.95282 0.21623 0.0
H2524 H 0.68522 0.97872 0.24874 0.0
H2525 H 0.6848 0.99808 0.27101 0.0
C2526 C 0.0311 0.74507 0.6367 0.0
C2527 C 0.02655 0.74835 0.61336 0.0
C2528 C 0.99648 0.71984 0.61473 0.0
C2529 C 0.99819 0.71984 0.63866 0.0
N2530 N 0.01734 0.73103 0.6729 0.0
N2531 N 0.00656 0.73823 0.5793 0.0
C2532 C 0.01595 0.7316 0.64978 0.0
C2533 C 0.00997 0.73519 0.60202 0.0
N2534 N 0.04952 0.75533 0.64629 0.0
N2535 N 0.98181 0.70519 0.60437 0.0
H2536 H 0.01707 0.74847 0.56941 0.0
H2537 H 0.99304 0.73128 0.57035 0.0
H2538 H 0.9719 0.6937 0.61349 0.0
H2539 H 0.98075 0.70301 0.58691 0.0
H2540 H 0.05489 0.75243 0.66283 0.0
H2541 H 0.06061 0.76553 0.63702 0.0
H2542 H 0.02815 0.74124 0.68239 0.0
H2543 H 0.00687 0.7208 0.68283 0.0
C2544 C 0.98683 0.76495 0.14617 0.0
C2545 C 0.00583 0.77509 0.13554 0.0
C2546 C 0.99437 0.75923 0.09891 0.0
C2547 C 0.97781 0.74612 0.11026 0.0
N2548 N 0.95707 0.7365 0.14405 0.0
N2549 N 0.02731 0.78375 0.10193 0.0
C2550 C 0.97334 0.74934 0.13365 0.0
C2551 C 0.00927 0.77305 0.11183 0.0
N2552 N 0.98207 0.76997 0.16828 0.0
N2553 N 0.99571 0.75836 0.07578 0.0
H2554 H 0.03754 0.79523 0.11067 0.0
H2555 H 0.03262 0.78089 0.08537 0.0
H2556 H 0.98486 0.74835 0.06602 0.0
H2557 H 0.0062 0.7687 0.0661 0.0
H2558 H 0.9675 0.76465 0.17666 0.0
H2559 H 0.99199 0.78102 0.17788 0.0
H2560 H 0.95458 0.73596 0.16149 0.0
H2561 H 0.94645 0.72551 0.13514 0.0
C2562 C 0.47469 0.74503 0.63895 0.0
C2563 C 0.47288 0.74811 0.61518 0.0
C2564 C 0.49891 0.78037 0.61672 0.0
C2565 C 0.50205 0.77613 0.64017 0.0
N2566 N 0.48948 0.7589 0.67486 0.0
N2567 N 0.47828 0.77137 0.58215 0.0
C2568 C 0.48865 0.75994 0.65172 0.0
C2569 C 0.4832 0.76687 0.60434 0.0
N2570 N 0.46369 0.72729 0.64904 0.0
N2571 N 0.51191 0.7964 0.60617 0.0
H2572 H 0.46709 0.76146 0.57271 0.0
H2573 H 0.48381 0.78574 0.57357 0.0
H2574 H 0.52295 0.80704 0.615 0.0
H2575 H 0.5125 0.7987 0.58871 0.0
H2576 H 0.46629 0.72224 0.66572 0.0
H2577 H 0.45219 0.71705 0.64032 0.0
H2578 H 0.47901 0.74865 0.68466 0.0
H2579 H 0.49961 0.76977 0.68448 0.0
C2580 C 0.49471 0.72314 0.11099 0.0
C2581 C 0.49772 0.72142 0.13474 0.0
C2582 C 0.53196 0.74482 0.13234 0.0
C2583 C 0.52617 0.75013 0.10965 0.0
N2584 N 0.50371 0.74344 0.07632 0.0
N2585 N 0.51945 0.7293 0.16838 0.0
C2586 C 0.50827 0.73864 0.09852 0.0
C2587 C 0.5168 0.73138 0.14546 0.0
N2588 N 0.47878 0.70993 0.10055 0.0
N2589 N 0.55157 0.75319 0.14137 0.0
H2590 H 0.50893 0.71916 0.17833 0.0
H2591 H 0.53137 0.7383 0.17776 0.0
H2592 H 0.56271 0.76333 0.13211 0.0
H2593 H 0.55779 0.74864 0.15723 0.0
H2594 H 0.47666 0.70904 0.08307 0.0
H2595 H 0.46885 0.69828 0.10944 0.0
H2596 H 0.48929 0.73792 0.06779 0.0
H2597 H 0.51426 0.75372 0.0665 0.0
C2598 C 0.10386 0.51732 0.73487 0.0
C2599 C 0.11421 0.52766 0.75392 0.0
C2600 C 0.15067 0.51027 0.74446 0.0
C2601 C 0.14011 0.49897 0.72609 0.0
N2602 N 0.10862 0.49526 0.70037 0.0
N2603 N 0.14804 0.53937 0.77342 0.0
C2604 C 0.11735 0.50386 0.72003 0.0
C2605 C 0.13788 0.52589 0.75755 0.0
N2606 N 0.08097 0.51932 0.73182 0.0
N2607 N 0.17272 0.50543 0.74981 0.0
H2608 H 0.13903 0.55128 0.78288 0.0
H2609 H 0.1655 0.54036 0.77579 0.0
H2610 H 0.183 0.49517 0.7397 0.0
H2611 H 0.18061 0.51077 0.76466 0.0
H2612 H 0.0718 0.51015 0.71988 0.0
H2613 H 0.07086 0.5296 0.74205 0.0
H2614 H 0.09281 0.49968 0.69392 0.0
H2615 H 0.11796 0.48492 0.6895 0.0
C2616 C 0.23486 0.84856 0.97769 0.0
C2617 C 0.21981 0.86028 0.99223 0.0
C2618 C 0.23149 0.89666 0.97623 0.0
C2619 C 0.24846 0.88514 0.96381 0.0
N2620 N 0.26238 0.85073 0.94704 0.0
N2621 N 0.19879 0.89394 0.00126 0.0
C2622 C 0.24859 0.86118 0.96244 0.0
C2623 C 0.21627 0.88389 0.98987 0.0
N2624 N 0.23686 0.82556 0.97959 0.0
N2625 N 0.23089 0.91981 0.97579 0.0
H2626 H 0.18755 0.88465 0.01129 0.0
H2627 H 0.19433 0.91091 0.99955 0.0
H2628 H 0.24123 0.92924 0.96494 0.0
H2629 H 0.22063 0.92967 0.98619 0.0
H2630 H 0.24919 0.81598 0.9714 0.0
H2631 H 0.22622 0.81602 0.99005 0.0
H2632 H 0.26254 0.83334 0.94415 0.0
H2633 H 0.27251 0.85985 0.93577 0.0
C2634 C 0.8633 0.96856 0.24651 0.0
C2635 C 0.88701 0.97221 0.24803 0.0
C2636 C 0.88496 0.00052 0.21778 0.0
C2637 C 0.86103 4e-05 0.21957 0.0
N2638 N 0.82683 0.9831 0.23384 0.0
N2639 N 0.92114 0.9897 0.23428 0.0
C2640 C 0.84999 0.98351 0.23302 0.0
C2641 C 0.89812 0.98732 0.23304 0.0
N2642 N 0.8536 0.95126 0.25846 0.0
N2643 N 0.89489 0.01387 0.20166 0.0
H2644 H 0.93119 0.97931 0.24451 0.0
H2645 H 0.93025 0.0022 0.22581 0.0
H2646 H 0.88541 0.02356 0.1903 0.0
H2647 H 0.9122 0.014 0.19827 0.0
H2648 H 0.83665 0.94659 0.25703 0.0
H2649 H 0.86303 0.94028 0.26861 0.0
H2650 H 0.81751 0.97333 0.24518 0.0
H2651 H 0.8168 0.99333 0.22346 0.0
C2652 C 0.78219 0.61385 0.49707 0.0
C2653 C 0.7779 0.63739 0.49939 0.0
C2654 C 0.74862 0.63534 0.47009 0.0
C2655 C 0.74991 0.6114 0.47111 0.0
N2656 N 0.76852 0.57736 0.4835 0.0
N2657 N 0.75894 0.67134 0.48728 0.0
C2658 C 0.76726 0.60049 0.48361 0.0
C2659 C 0.76195 0.64845 0.48527 0.0
N2660 N 0.80012 0.60434 0.50824 0.0
N2661 N 0.73439 0.64533 0.45477 0.0
H2662 H 0.76939 0.6814 0.49743 0.0
H2663 H 0.74588 0.68031 0.47952 0.0
H2664 H 0.72458 0.6359 0.44345 0.0
H2665 H 0.7336 0.66271 0.45192 0.0
H2666 H 0.80522 0.58758 0.50625 0.0
H2667 H 0.81112 0.61381 0.51833 0.0
H2668 H 0.779 0.56797 0.49412 0.0
H2669 H 0.75837 0.56738 0.47299 0.0
C2670 C 0.10093 0.48246 0.2716 0.0
C2671 C 0.1118 0.46917 0.25489 0.0
C2672 C 0.14903 0.48002 0.26973 0.0
C2673 C 0.1382 0.49664 0.28315 0.0
N2674 N 0.10457 0.51187 0.30031 0.0
N2675 N 0.14546 0.45199 0.23967 0.0
C2676 C 0.11429 0.49689 0.28556 0.0
C2677 C 0.1357 0.46652 0.25484 0.0
N2678 N 0.07786 0.48152 0.27351 0.0
N2679 N 0.17204 0.47774 0.27104 0.0
H2680 H 0.13585 0.44121 0.22946 0.0
H2681 H 0.16282 0.45061 0.23698 0.0
H2682 H 0.18175 0.48745 0.28222 0.0
H2683 H 0.18134 0.46546 0.26248 0.0
H2684 H 0.06855 0.48997 0.28585 0.0
H2685 H 0.06804 0.47083 0.26337 0.0
H2686 H 0.08723 0.51475 0.30162 0.0
H2687 H 0.11422 0.52168 0.31143 0.0
C2688 C 0.25987 0.90564 0.51037 0.0
C2689 C 0.24815 0.89397 0.52772 0.0
C2690 C 0.26898 0.85911 0.5189 0.0
C2691 C 0.27725 0.86968 0.49899 0.0
N2692 N 0.28335 0.90321 0.4766 0.0
N2693 N 0.24215 0.86047 0.55018 0.0
C2694 C 0.27384 0.89318 0.49521 0.0
C2695 C 0.25335 0.87107 0.53288 0.0
N2696 N 0.25729 0.9286 0.50845 0.0
N2697 N 0.27565 0.83752 0.52399 0.0
H2698 H 0.23126 0.86908 0.56113 0.0
H2699 H 0.24297 0.84315 0.55333 0.0
H2700 H 0.28675 0.82833 0.51376 0.0
H2701 H 0.27168 0.82929 0.53907 0.0
H2702 H 0.26627 0.93866 0.4971 0.0
H2703 H 0.2472 0.93791 0.51962 0.0
H2704 H 0.27967 0.91958 0.47119 0.0
H2705 H 0.29484 0.89476 0.46612 0.0
C2706 C 0.85502 0.01893 0.76688 0.0
C2707 C 0.86499 0.99953 0.77685 0.0
C2708 C 0.90213 0.01027 0.76168 0.0
C2709 C 0.89135 0.02703 0.74835 0.0
N2710 N 0.85819 0.0488 0.73868 0.0
N2711 N 0.89796 0.97725 0.78589 0.0
C2712 C 0.86806 0.03222 0.75151 0.0
C2713 C 0.88866 0.99561 0.77523 0.0
N2714 N 0.833 0.0242 0.7718 0.0
N2715 N 0.92523 0.00844 0.76111 0.0
H2716 H 0.88874 0.96709 0.79704 0.0
H2717 H 0.91448 0.97164 0.78332 0.0
H2718 H 0.93532 0.01922 0.75134 0.0
H2719 H 0.93455 0.99768 0.7715 0.0
H2720 H 0.82499 0.03899 0.7665 0.0
H2721 H 0.82317 0.01444 0.78281 0.0
H2722 H 0.84082 0.05178 0.73808 0.0
H2723 H 0.86746 0.05926 0.72786 0.0
C2724 C 0.74666 0.63141 0.03385 0.0
C2725 C 0.75413 0.60937 0.02774 0.0
C2726 C 0.73377 0.61175 0.99184 0.0
C2727 C 0.72646 0.63396 0.99759 0.0
N2728 N 0.72159 0.66315 0.02571 0.0
N2729 N 0.74918 0.57599 0.0049 0.0
C2730 C 0.73126 0.6431 0.0193 0.0
C2731 C 0.7457 0.5987 0.00804 0.0
N2732 N 0.75542 0.64171 0.05264 0.0
N2733 N 0.73027 0.6035 0.9705 0.0
H2734 H 0.75767 0.56598 0.01678 0.0
H2735 H 0.74173 0.56671 0.99187 0.0
H2736 H 0.72142 0.61246 0.95818 0.0
H2737 H 0.73755 0.58859 0.96447 0.0
H2738 H 0.75283 0.65871 0.05659 0.0
H2739 H 0.76638 0.63349 0.06381 0.0
H2740 H 0.72275 0.66974 0.04203 0.0
H2741 H 0.7109 0.6724 0.01509 0.0
C2742 C 0.23428 0.64224 0.51815 0.0
C2743 C 0.22421 0.63224 0.49879 0.0
C2744 C 0.2412 0.59556 0.50796 0.0
C2745 C 0.25287 0.60599 0.52616 0.0
N2746 N 0.25643 0.63698 0.55251 0.0
N2747 N 0.21242 0.59887 0.47864 0.0
C2748 C 0.24779 0.62856 0.53273 0.0
C2749 C 0.22574 0.60861 0.49492 0.0
N2750 N 0.23219 0.66506 0.52164 0.0
N2751 N 0.24573 0.57345 0.50268 0.0
H2752 H 0.20081 0.60822 0.4691 0.0
H2753 H 0.21142 0.58149 0.47581 0.0
H2754 H 0.25599 0.56319 0.51282 0.0
H2755 H 0.23998 0.56542 0.48807 0.0
H2756 H 0.24125 0.67406 0.53379 0.0
H2757 H 0.22186 0.67532 0.5116 0.0
H2758 H 0.25202 0.65266 0.55925 0.0
H2759 H 0.26674 0.62745 0.56324 0.0
C2760 C 0.73694 0.39299 0.98398 0.0
C2761 C 0.75698 0.38261 0.97572 0.0
C2762 C 0.74492 0.34604 0.99135 0.0
C2763 C 0.72712 0.35727 0.00287 0.0
N2764 N 0.70532 0.39101 0.01028 0.0
N2765 N 0.77965 0.34924 0.96947 0.0
C2766 C 0.72251 0.38053 0.99879 0.0
C2767 C 0.76068 0.359 0.97854 0.0
N2768 N 0.73205 0.41485 0.97805 0.0
N2769 N 0.74653 0.32295 0.99271 0.0
H2770 H 0.79058 0.35793 0.95861 0.0
H2771 H 0.785 0.33283 0.97308 0.0
H2772 H 0.73495 0.31317 0.00185 0.0
H2773 H 0.75802 0.31328 0.98348 0.0
H2774 H 0.71675 0.42281 0.98174 0.0
H2775 H 0.74265 0.42459 0.96781 0.0
H2776 H 0.70274 0.40845 0.01037 0.0
H2777 H 0.69406 0.38228 0.02074 0.0
C2778 C 0.35438 0.48152 0.23045 0.0
C2779 C 0.36477 0.49956 0.21851 0.0
C2780 C 0.40208 0.48854 0.23289 0.0
C2781 C 0.39142 0.47187 0.24648 0.0
N2782 N 0.35921 0.44816 0.25424 0.0
N2783 N 0.39831 0.51675 0.20305 0.0
C2784 C 0.36812 0.46677 0.2437 0.0
C2785 C 0.38867 0.50174 0.21783 0.0
N2786 N 0.33131 0.47941 0.23001 0.0
N2787 N 0.4248 0.49242 0.23536 0.0
H2788 H 0.38865 0.5265 0.19189 0.0
H2789 H 0.41569 0.51828 0.20048 0.0
H2790 H 0.43509 0.48219 0.24551 0.0
H2791 H 0.43338 0.50596 0.22802 0.0
H2792 H 0.32219 0.46832 0.24025 0.0
H2793 H 0.3211 0.48943 0.21959 0.0
H2794 H 0.34268 0.44247 0.25188 0.0
H2795 H 0.36906 0.43728 0.26411 0.0
C2796 C 0.25372 0.13182 0.47203 0.0
C2797 C 0.24805 0.10942 0.47866 0.0
C2798 C 0.2738 0.11215 0.51108 0.0
C2799 C 0.2761 0.13567 0.50681 0.0
N2800 N 0.26905 0.16834 0.48336 0.0
N2801 N 0.25324 0.07735 0.50331 0.0
C2802 C 0.26676 0.14556 0.48699 0.0
C2803 C 0.25857 0.0992 0.49768 0.0
N2804 N 0.24613 0.14007 0.45176 0.0
N2805 N 0.28635 0.10232 0.52791 0.0
H2806 H 0.24328 0.06701 0.49297 0.0
H2807 H 0.25796 0.06967 0.51847 0.0
H2808 H 0.29785 0.11148 0.53777 0.0
H2809 H 0.28693 0.08495 0.53089 0.0
H2810 H 0.25121 0.15552 0.44495 0.0
H2811 H 0.23608 0.1306 0.44074 0.0
H2812 H 0.26042 0.17721 0.4708 0.0
H2813 H 0.27885 0.17877 0.49374 0.0
C2814 C 0.77748 0.38636 0.50017 0.0
C2815 C 0.77733 0.36235 0.50117 0.0
C2816 C 0.7493 0.36316 0.5317 0.0
C2817 C 0.74782 0.387 0.52903 0.0
N2818 N 0.76471 0.42185 0.51686 0.0
N2819 N 0.76838 0.32808 0.5213 0.0
C2820 C 0.76348 0.39879 0.51531 0.0
C2821 C 0.76514 0.35082 0.51832 0.0
N2822 N 0.79022 0.39708 0.48406 0.0
N2823 N 0.73457 0.35234 0.54592 0.0
H2824 H 0.77973 0.31876 0.51144 0.0
H2825 H 0.76128 0.31877 0.53449 0.0
H2826 H 0.72359 0.36113 0.55663 0.0
H2827 H 0.73272 0.33482 0.54678 0.0
H2828 H 0.78917 0.41434 0.48058 0.0
H2829 H 0.80151 0.38839 0.47356 0.0
H2830 H 0.77664 0.43169 0.50838 0.0
H2831 H 0.75492 0.4309 0.5285 0.0
C2832 C 0.36239 0.03146 0.24684 0.0
C2833 C 0.38637 0.03049 0.24754 0.0
C2834 C 0.38469 0.00393 0.27934 0.0
C2835 C 0.3611 0.00159 0.27555 0.0
N2836 N 0.32673 0.0136 0.25725 0.0
N2837 N 0.42086 0.01746 0.26489 0.0
C2838 C 0.34963 0.01589 0.26006 0.0
C2839 C 0.39769 0.01756 0.26429 0.0
N2840 N 0.35201 0.04707 0.23322 0.0
N2841 N 0.39455 0.99268 0.29703 0.0
H2842 H 0.43065 0.02801 0.2546 0.0
H2843 H 0.43042 0.00652 0.27489 0.0
H2844 H 0.38521 0.98259 0.30815 0.0
H2845 H 0.41139 0.99473 0.30183 0.0
H2846 H 0.33459 0.04987 0.23298 0.0
H2847 H 0.36115 0.05864 0.22345 0.0
H2848 H 0.31755 0.02148 0.24443 0.0
H2849 H 0.31694 0.00302 0.26752 0.0
C2850 C 0.60263 0.47755 0.76992 0.0
C2851 C 0.61344 0.46595 0.75189 0.0
C2852 C 0.6502 0.48176 0.76278 0.0
C2853 C 0.63906 0.49502 0.77939 0.0
N2854 N 0.60673 0.50148 0.80328 0.0
N2855 N 0.6475 0.45142 0.73499 0.0
C2856 C 0.61592 0.49133 0.78461 0.0
C2857 C 0.63734 0.4661 0.74975 0.0
N2858 N 0.57957 0.47653 0.77196 0.0
N2859 N 0.67279 0.48509 0.75876 0.0
H2860 H 0.63821 0.43974 0.72548 0.0
H2861 H 0.66496 0.44941 0.73354 0.0
H2862 H 0.68274 0.49571 0.76883 0.0
H2863 H 0.68154 0.47799 0.7452 0.0
H2864 H 0.5702 0.48655 0.78304 0.0
H2865 H 0.56962 0.46596 0.76186 0.0
H2866 H 0.59038 0.49838 0.80911 0.0
H2867 H 0.61628 0.51173 0.81409 0.0
C2868 C 0.50901 0.25911 0.85309 0.0
C2869 C 0.49406 0.27412 0.8644 0.0
C2870 C 0.50904 0.26231 0.90126 0.0
C2871 C 0.52318 0.24653 0.89 0.0
N2872 N 0.54116 0.2335 0.85581 0.0
N2873 N 0.48313 0.29423 0.89814 0.0
C2874 C 0.52472 0.24623 0.86604 0.0
C2875 C 0.49528 0.2772 0.88819 0.0
N2876 N 0.50739 0.25647 0.83012 0.0
N2877 N 0.50806 0.26227 0.92441 0.0
H2878 H 0.47282 0.30523 0.88887 0.0
H2879 H 0.48455 0.29867 0.91514 0.0
H2880 H 0.51869 0.2522 0.93435 0.0
H2881 H 0.49627 0.27144 0.93378 0.0
H2882 H 0.5158 0.24389 0.82107 0.0
H2883 H 0.49671 0.2664 0.8201 0.0
H2884 H 0.54446 0.2338 0.83849 0.0
H2885 H 0.55292 0.22401 0.86501 0.0
C2886 C 0.48468 0.23573 0.34809 0.0
C2887 C 0.50096 0.22228 0.35943 0.0
C2888 C 0.48529 0.23355 0.39619 0.0
C2889 C 0.47196 0.25 0.38492 0.0
N2890 N 0.45739 0.26648 0.35057 0.0
N2891 N 0.51625 0.20648 0.39379 0.0
C2892 C 0.47085 0.25071 0.36093 0.0
C2893 C 0.50079 0.22025 0.38338 0.0
N2894 N 0.48268 0.2341 0.32507 0.0
N2895 N 0.48326 0.23104 0.41913 0.0
H2896 H 0.52692 0.19566 0.38475 0.0
H2897 H 0.51902 0.2061 0.41119 0.0
H2898 H 0.47204 0.24077 0.42876 0.0
H2899 H 0.49123 0.21836 0.42842 0.0
H2900 H 0.47017 0.24223 0.31567 0.0
H2901 H 0.49253 0.22289 0.31556 0.0
H2902 H 0.45767 0.26981 0.33326 0.0
H2903 H 0.44632 0.27692 0.35958 0.0
C2904 C 0.5166 0.77 0.35521 0.0
C2905 C 0.49666 0.77805 0.36594 0.0
C2906 C 0.50865 0.76113 0.40189 0.0
C2907 C 0.52624 0.7498 0.39018 0.0
N2908 N 0.54825 0.7436 0.35642 0.0
N2909 N 0.47405 0.7833 0.39952 0.0
C2910 C 0.53096 0.7547 0.36714 0.0
C2911 C 0.49299 0.7745 0.38943 0.0
N2912 N 0.52143 0.7766 0.33354 0.0
N2913 N 0.50705 0.75891 0.42491 0.0
H2914 H 0.46309 0.79441 0.39119 0.0
H2915 H 0.46874 0.77921 0.41583 0.0
H2916 H 0.51853 0.74926 0.43431 0.0
H2917 H 0.49567 0.7679 0.43493 0.0
H2918 H 0.53656 0.77288 0.32528 0.0
H2919 H 0.5109 0.78735 0.32428 0.0
H2920 H 0.55109 0.74422 0.33903 0.0
H2921 H 0.55944 0.73289 0.36497 0.0
C2922 C 0.48599 0.73698 0.84909 0.0
C2923 C 0.50069 0.72235 0.86113 0.0
C2924 C 0.48201 0.73226 0.89681 0.0
C2925 C 0.47072 0.75003 0.88536 0.0
N2926 N 0.4591 0.7682 0.85081 0.0
N2927 N 0.51181 0.70384 0.89574 0.0
C2928 C 0.47142 0.7517 0.86142 0.0
C2929 C 0.498 0.71885 0.88475 0.0
N2930 N 0.48642 0.73688 0.82594 0.0
N2931 N 0.47759 0.72867 0.91925 0.0
H2932 H 0.52301 0.69319 0.88715 0.0
H2933 H 0.51272 0.70226 0.91328 0.0
H2934 H 0.46585 0.73845 0.92819 0.0
H2935 H 0.48401 0.71513 0.92853 0.0
H2936 H 0.47536 0.74612 0.81579 0.0
H2937 H 0.49698 0.726 0.8168 0.0
H2938 H 0.46051 0.77215 0.83369 0.0
H2939 H 0.44755 0.77842 0.85948 0.0
C2940 C 0.61067 0.99984 0.71904 0.0
C2941 C 0.63458 0.00218 0.71824 0.0
C2942 C 0.63288 0.03491 0.74363 0.0
C2943 C 0.60923 0.03125 0.74602 0.0
N2944 N 0.5746 0.01492 0.73223 0.0
N2945 N 0.668 0.02458 0.72452 0.0
C2946 C 0.59778 0.01528 0.73229 0.0
C2947 C 0.64551 0.02081 0.72867 0.0
N2948 N 0.60054 0.98219 0.70794 0.0
N2949 N 0.64334 0.05091 0.75674 0.0
H2950 H 0.67746 0.01426 0.7137 0.0
H2951 H 0.67685 0.0387 0.73025 0.0
H2952 H 0.63436 0.062 0.76717 0.0
H2953 H 0.66083 0.05283 0.7579 0.0
H2954 H 0.58358 0.97774 0.70982 0.0
H2955 H 0.60946 0.97146 0.69708 0.0
H2956 H 0.56489 0.0048 0.72154 0.0
H2957 H 0.56496 0.02626 0.74182 0.0
C2958 C 0.64675 0.51713 0.22831 0.0
C2959 C 0.6366 0.49748 0.21888 0.0
C2960 C 0.6001 0.50729 0.23593 0.0
C2961 C 0.61069 0.52581 0.24695 0.0
N2962 N 0.64163 0.55229 0.24922 0.0
N2963 N 0.60298 0.4772 0.20794 0.0
C2964 C 0.63318 0.53219 0.2414 0.0
C2965 C 0.61295 0.49376 0.22073 0.0
N2966 N 0.66958 0.52045 0.22609 0.0
N2967 N 0.57803 0.50217 0.24088 0.0
H2968 H 0.61215 0.46727 0.19651 0.0
H2969 H 0.58556 0.47454 0.20712 0.0
H2970 H 0.56789 0.51266 0.2509 0.0
H2971 H 0.56995 0.48736 0.23573 0.0
H2972 H 0.6786 0.53288 0.23475 0.0
H2973 H 0.67985 0.51 0.2162 0.0
H2974 H 0.65726 0.5589 0.2444 0.0
H2975 H 0.6321 0.56339 0.25913 0.0
C2976 C 0.12052 0.33997 0.04206 0.0
C2977 C 0.11139 0.33613 0.06395 0.0
C2978 C 0.1347 0.3667 0.07945 0.0
C2979 C 0.14469 0.36992 0.05781 0.0
N2980 N 0.15043 0.35705 0.01947 0.0
N2981 N 0.11366 0.34192 0.10439 0.0
C2982 C 0.13859 0.35577 0.03934 0.0
C2983 C 0.11993 0.34809 0.08296 0.0
N2984 N 0.11156 0.32881 0.02385 0.0
N2985 N 0.13797 0.38236 0.09623 0.0
H2986 H 0.10288 0.32836 0.10772 0.0
H2987 H 0.12099 0.3487 0.11895 0.0
H2988 H 0.14771 0.39692 0.09408 0.0
H2989 H 0.12908 0.38223 0.11147 0.0
H2990 H 0.11545 0.33277 0.00711 0.0
H2991 H 0.09939 0.31608 0.0256 0.0
H2992 H 0.14825 0.34575 0.0061 0.0
H2993 H 0.16381 0.36836 0.01702 0.0
C2994 C 0.90876 0.36771 0.28747 0.0
C2995 C 0.91826 0.3643 0.30927 0.0
C2996 C 0.89612 0.39577 0.32432 0.0
C2997 C 0.88705 0.39991 0.30231 0.0
N2998 N 0.88949 0.39359 0.26198 0.0
N2999 N 0.92661 0.37943 0.34629 0.0
C3000 C 0.89485 0.38703 0.28353 0.0
C3001 C 0.91405 0.38 0.32685 0.0
N3002 N 0.91269 0.35224 0.2707 0.0
N3003 N 0.8864 0.40511 0.34319 0.0
H3004 H 0.93961 0.3678 0.349 0.0
H3005 H 0.92556 0.39193 0.35874 0.0
H3006 H 0.87197 0.41524 0.34287 0.0
H3007 H 0.89098 0.40054 0.35962 0.0
H3008 H 0.90407 0.35225 0.2553 0.0
H3009 H 0.92393 0.33872 0.27271 0.0
H3010 H 0.89628 0.38599 0.24758 0.0
H3011 H 0.88003 0.40812 0.2585 0.0
C3012 C 0.86395 0.14624 0.53531 0.0
C3013 C 0.85586 0.13318 0.55383 0.0
C3014 C 0.87857 0.15606 0.57996 0.0
C3015 C 0.88937 0.16651 0.56128 0.0
N3016 N 0.89316 0.17152 0.52101 0.0
N3017 N 0.85939 0.12254 0.59324 0.0
C3018 C 0.88223 0.16164 0.53886 0.0
C3019 C 0.86402 0.13739 0.57607 0.0
N3020 N 0.85378 0.14438 0.51459 0.0
N3021 N 0.88246 0.16368 0.60147 0.0
H3022 H 0.85021 0.10766 0.59086 0.0
H3023 H 0.86697 0.12352 0.60915 0.0
H3024 H 0.89279 0.17755 0.60499 0.0
H3025 H 0.87345 0.15788 0.61551 0.0
H3026 H 0.85753 0.15494 0.50095 0.0
H3027 H 0.84016 0.13351 0.51156 0.0
H3028 H 0.89072 0.16671 0.50421 0.0
H3029 H 0.90543 0.18406 0.52326 0.0
C3030 C 0.11902 0.123 0.77948 0.0
C3031 C 0.11463 0.10059 0.78719 0.0
C3032 C 0.07955 0.11372 0.80534 0.0
C3033 C 0.08381 0.13599 0.7972 0.0
N3034 N 0.10267 0.15913 0.76928 0.0
N3035 N 0.08689 0.0736 0.80033 0.0
C3036 C 0.10183 0.13962 0.78171 0.0
C3037 C 0.09354 0.09562 0.7977 0.0
N3038 N 0.14001 0.12926 0.7719 0.0
N3039 N 0.06338 0.10985 0.82145 0.0
H3040 H 0.09645 0.06004 0.79416 0.0
H3041 H 0.07087 0.06903 0.8062 0.0
H3042 H 0.05284 0.12241 0.82793 0.0
H3043 H 0.06165 0.09435 0.82973 0.0
H3044 H 0.14432 0.14608 0.76862 0.0
H3045 H 0.15389 0.11845 0.77106 0.0
H3046 H 0.11442 0.16174 0.75634 0.0
H3047 H 0.09004 0.17146 0.77019 0.0
C3048 C 0.11325 0.6423 0.91596 0.0
C3049 C 0.10761 0.65941 0.93181 0.0
C3050 C 0.13986 0.64822 0.95556 0.0
C3051 C 0.14368 0.62949 0.94097 0.0
N3052 N 0.13102 0.60601 0.90993 0.0
N3053 N 0.11384 0.67776 0.96775 0.0
C3054 C 0.12961 0.62582 0.92184 0.0
C3055 C 0.12055 0.66229 0.95187 0.0
N3056 N 0.10332 0.6421 0.89501 0.0
N3057 N 0.15489 0.65273 0.97259 0.0
H3058 H 0.1 0.68851 0.96537 0.0
H3059 H 0.12105 0.67898 0.98381 0.0
H3060 H 0.16894 0.6425 0.97588 0.0
H3061 H 0.15436 0.6674 0.9824 0.0
H3062 H 0.10834 0.63126 0.88201 0.0
H3063 H 0.0917 0.65434 0.88979 0.0
H3064 H 0.1193 0.60131 0.89759 0.0
H3065 H 0.14239 0.59317 0.91402 0.0
C3066 C 0.59302 0.36959 0.20332 0.0
C3067 C 0.59534 0.3566 0.18321 0.0
C3068 C 0.62935 0.37785 0.17288 0.0
C3069 C 0.62618 0.39204 0.192 0.0
N3070 N 0.60344 0.40382 0.22379 0.0
N3071 N 0.61218 0.352 0.1462 0.0
C3072 C 0.60754 0.38862 0.2068 0.0
C3073 C 0.61246 0.36183 0.16719 0.0
N3074 N 0.57762 0.36324 0.2194 0.0
N3075 N 0.64902 0.37894 0.16068 0.0
H3076 H 0.5996 0.3407 0.14107 0.0
H3077 H 0.62297 0.35683 0.13308 0.0
H3078 H 0.66213 0.39007 0.16463 0.0
H3079 H 0.65333 0.36721 0.14821 0.0
H3080 H 0.57678 0.3705 0.23546 0.0
H3081 H 0.56659 0.34959 0.21723 0.0
H3082 H 0.58882 0.40363 0.23369 0.0
H3083 H 0.61396 0.41769 0.22694 0.0
C3084 C 0.86031 0.8527 0.46388 0.0
C3085 C 0.85176 0.86358 0.4442 0.0
C3086 C 0.87278 0.8368 0.42041 0.0
C3087 C 0.88482 0.82934 0.43979 0.0
N3088 N 0.89001 0.82933 0.48019 0.0
N3089 N 0.85251 0.86799 0.40338 0.0
C3090 C 0.87841 0.83691 0.46165 0.0
C3091 C 0.85834 0.85593 0.42232 0.0
N3092 N 0.85075 0.85697 0.48453 0.0
N3093 N 0.87567 0.82622 0.40002 0.0
H3094 H 0.84351 0.88317 0.40384 0.0
H3095 H 0.85875 0.86436 0.38728 0.0
H3096 H 0.88618 0.81223 0.39782 0.0
H3097 H 0.86574 0.82974 0.38585 0.0
H3098 H 0.85496 0.84811 0.4992 0.0
H3099 H 0.83699 0.86789 0.48662 0.0
H3100 H 0.8882 0.83628 0.49632 0.0
H3101 H 0.90213 0.81648 0.47912 0.0
C3102 C 0.39829 0.11064 0.7231 0.0
C3103 C 0.39528 0.09346 0.70651 0.0
C3104 C 0.42064 0.11339 0.68052 0.0
C3105 C 0.42111 0.13203 0.69566 0.0
N3106 N 0.41767 0.14549 0.7339 0.0
N3107 N 0.41457 0.07304 0.67681 0.0
C3108 C 0.41217 0.12973 0.71786 0.0
C3109 C 0.40999 0.09303 0.68751 0.0
N3110 N 0.38829 0.10842 0.74385 0.0
N3111 N 0.42915 0.11538 0.65909 0.0
H3112 H 0.40918 0.05751 0.68332 0.0
H3113 H 0.42635 0.0716 0.66373 0.0
H3114 H 0.4374 0.12987 0.65326 0.0
H3115 H 0.42661 0.10311 0.64663 0.0
H3116 H 0.38713 0.12142 0.75569 0.0
H3117 H 0.38168 0.09301 0.74945 0.0
H3118 H 0.41273 0.14464 0.7508 0.0
H3119 H 0.42907 0.15859 0.73057 0.0
C3120 C 0.04559 0.14402 0.34798 0.0
C3121 C 0.05369 0.14256 0.37057 0.0
C3122 C 0.0672 0.10399 0.36386 0.0
C3123 C 0.0602 0.10564 0.34078 0.0
N3124 N 0.0448 0.12778 0.31009 0.0
N3125 N 0.0772 0.12378 0.39824 0.0
C3126 C 0.05012 0.12592 0.33255 0.0
C3127 C 0.06575 0.12324 0.37806 0.0
N3128 N 0.03301 0.1624 0.34158 0.0
N3129 N 0.07548 0.08409 0.37246 0.0
H3130 H 0.07695 0.13765 0.40914 0.0
H3131 H 0.08885 0.11146 0.40318 0.0
H3132 H 0.08001 0.07018 0.36268 0.0
H3133 H 0.07713 0.08104 0.38977 0.0
H3134 H 0.02464 0.1637 0.32611 0.0
H3135 H 0.0297 0.17597 0.35243 0.0
H3136 H 0.03972 0.14284 0.30244 0.0
H3137 H 0.04656 0.11441 0.29867 0.0
C3138 C 0.12641 0.30044 0.58512 0.0
C3139 C 0.14425 0.3147 0.59271 0.0
C3140 C 0.12702 0.31668 0.63045 0.0
C3141 C 0.10829 0.30395 0.62242 0.0
N3142 N 0.08824 0.28628 0.59156 0.0
N3143 N 0.15849 0.34092 0.62088 0.0
C3144 C 0.10735 0.29667 0.59952 0.0
C3145 C 0.14372 0.32406 0.61491 0.0
N3146 N 0.12814 0.28969 0.56468 0.0
N3147 N 0.12897 0.32176 0.65298 0.0
H3148 H 0.17063 0.34751 0.60992 0.0
H3149 H 0.15724 0.35014 0.63587 0.0
H3150 H 0.11686 0.31737 0.665 0.0
H3151 H 0.14357 0.32864 0.66015 0.0
H3152 H 0.11685 0.27726 0.55925 0.0
H3153 H 0.14193 0.29187 0.55384 0.0
H3154 H 0.08548 0.28281 0.57448 0.0
H3155 H 0.07443 0.28242 0.60192 0.0
C3156 C 0.96639 0.39387 0.85149 0.0
C3157 C 0.95095 0.39097 0.8333 0.0
C3158 C 0.95099 0.35015 0.84088 0.0
C3159 C 0.96146 0.35416 0.86218 0.0
N3160 N 0.97613 0.3817 0.88911 0.0
N3161 N 0.92711 0.36563 0.81143 0.0
C3162 C 0.96879 0.37642 0.86778 0.0
C3163 C 0.94312 0.36885 0.82784 0.0
N3164 N 0.97855 0.41347 0.8534 0.0
N3165 N 0.94864 0.32847 0.83311 0.0
H3166 H 0.92055 0.37863 0.80151 0.0
H3167 H 0.91904 0.35013 0.80886 0.0
H3168 H 0.95497 0.31452 0.84196 0.0
H3169 H 0.94282 0.32465 0.81687 0.0
H3170 H 0.99144 0.41563 0.86529 0.0
H3171 H 0.97748 0.42647 0.84146 0.0
H3172 H 0.97917 0.39833 0.89428 0.0
H3173 H 0.97692 0.37023 0.90244 0.0
C3174 C 0.86752 0.20144 0.0881 0.0
C3175 C 0.85221 0.1838 0.09386 0.0
C3176 C 0.87102 0.17883 0.13045 0.0
C3177 C 0.88735 0.19528 0.12411 0.0
N3178 N 0.90358 0.21983 0.0958 0.0
N3179 N 0.843 0.1518 0.11767 0.0
C3180 C 0.8864 0.20582 0.10253 0.0
C3181 C 0.85501 0.17136 0.11424 0.0
N3182 N 0.86347 0.21463 0.0695 0.0
N3183 N 0.87059 0.17048 0.15206 0.0
H3184 H 0.83202 0.145 0.10561 0.0
H3185 H 0.84564 0.14099 0.13136 0.0
H3186 H 0.88209 0.1754 0.16447 0.0
H3187 H 0.85761 0.16027 0.15829 0.0
H3188 H 0.87264 0.22924 0.06577 0.0
H3189 H 0.8498 0.21192 0.05862 0.0
H3190 H 0.90512 0.2261 0.07938 0.0
H3191 H 0.91719 0.224 0.10631 0.0
C3192 C 0.04529 0.87525 0.63198 0.0
C3193 C 0.04753 0.85176 0.63674 0.0
C3194 C 0.05714 0.86065 0.67627 0.0
C3195 C 0.054 0.88395 0.67156 0.0
N3196 N 0.03883 0.91286 0.64689 0.0
N3197 N 0.04997 0.82187 0.66457 0.0
C3198 C 0.04576 0.89099 0.65012 0.0
C3199 C 0.05172 0.84436 0.6593 0.0
N3200 N 0.04469 0.88286 0.61008 0.0
N3201 N 0.06579 0.85417 0.69674 0.0
H3202 H 0.04527 0.80962 0.65271 0.0
H3203 H 0.05094 0.81567 0.68107 0.0
H3204 H 0.06883 0.86571 0.70981 0.0
H3205 H 0.07097 0.83768 0.7003 0.0
H3206 H 0.04574 0.89996 0.6058 0.0
H3207 H 0.04567 0.87225 0.59602 0.0
H3208 H 0.03063 0.91827 0.63221 0.0
H3209 H 0.03918 0.92507 0.65963 0.0
C3210 C 0.36741 0.29065 0.91294 0.0
C3211 C 0.35911 0.31284 0.91698 0.0
C3212 C 0.38322 0.32773 0.88674 0.0
C3213 C 0.39257 0.30581 0.88349 0.0
N3214 N 0.39691 0.26724 0.89629 0.0
N3215 N 0.36309 0.35325 0.91165 0.0
C3216 C 0.38565 0.28745 0.89742 0.0
C3217 C 0.36849 0.33163 0.9053 0.0
N3218 N 0.35757 0.27264 0.92366 0.0
N3219 N 0.38703 0.34447 0.87115 0.0
H3220 H 0.35242 0.3569 0.9252 0.0
H3221 H 0.37107 0.36755 0.90505 0.0
H3222 H 0.39656 0.34202 0.85649 0.0
H3223 H 0.3787 0.36003 0.8714 0.0
H3224 H 0.36089 0.25582 0.91947 0.0
H3225 H 0.34521 0.27463 0.93616 0.0
H3226 H 0.39409 0.25391 0.9075 0.0
H3227 H 0.41047 0.26444 0.8853 0.0
C3228 C 0.92646 0.62796 0.12578 0.0
C3229 C 0.94597 0.64172 0.12852 0.0
C3230 C 0.9564 0.62043 0.1627 0.0
C3231 C 0.93604 0.60779 0.16064 0.0
N3232 N 0.89914 0.60319 0.1436 0.0
N3233 N 0.978 0.65352 0.15091 0.0
C3234 C 0.92029 0.61271 0.14319 0.0
C3235 C 0.96054 0.6387 0.14741 0.0
N3236 N 0.91434 0.62871 0.10606 0.0
N3237 N 0.97209 0.6144 0.17863 0.0
H3238 H 0.98167 0.66674 0.13974 0.0
H3239 H 0.98784 0.65369 0.16556 0.0
H3240 H 0.96931 0.60143 0.19033 0.0
H3241 H 0.98833 0.62127 0.17941 0.0
H3242 H 0.90157 0.61718 0.10207 0.0
H3243 H 0.91856 0.63934 0.09263 0.0
H3244 H 0.8862 0.60776 0.13251 0.0
H3245 H 0.89374 0.59242 0.15652 0.0
C3246 C 0.6301 0.21321 0.4102 0.0
C3247 C 0.63387 0.19133 0.41936 0.0
C3248 C 0.60561 0.17533 0.39387 0.0
C3249 C 0.60155 0.19721 0.38455 0.0
N3250 N 0.60544 0.23777 0.38825 0.0
N3251 N 0.61918 0.15388 0.42605 0.0
C3252 C 0.61243 0.21647 0.39407 0.0
C3253 C 0.61941 0.17324 0.4134 0.0
N3254 N 0.64366 0.23074 0.41682 0.0
N3255 N 0.59811 0.15628 0.38302 0.0
H3256 H 0.62903 0.15193 0.44058 0.0
H3257 H 0.60751 0.14087 0.42344 0.0
H3258 H 0.58977 0.15669 0.36749 0.0
H3259 H 0.60263 0.13995 0.38801 0.0
H3260 H 0.64389 0.24648 0.40883 0.0
H3261 H 0.65514 0.22908 0.43016 0.0
H3262 H 0.61144 0.25243 0.39602 0.0
H3263 H 0.59201 0.24072 0.37712 0.0
C3264 C 0.3399 0.03679 0.11691 0.0
C3265 C 0.33093 0.05829 0.11104 0.0
C3266 C 0.35512 0.07652 0.13931 0.0
C3267 C 0.36405 0.05499 0.14539 0.0
N3268 N 0.3605 0.01427 0.14448 0.0
N3269 N 0.32468 0.09741 0.12155 0.0
C3270 C 0.35504 0.03496 0.13558 0.0
C3271 C 0.33652 0.07767 0.12412 0.0
N3272 N 0.33429 0.01823 0.10424 0.0
N3273 N 0.36556 0.09599 0.14639 0.0
H3274 H 0.32679 0.11134 0.13219 0.0
H3275 H 0.31103 0.09916 0.11053 0.0
H3276 H 0.38026 0.09616 0.15616 0.0
H3277 H 0.36117 0.11204 0.1405 0.0
H3278 H 0.34238 0.00261 0.10576 0.0
H3279 H 0.32203 0.01882 0.09149 0.0
H3280 H 0.35292 0.99919 0.13934 0.0
H3281 H 0.37104 0.01241 0.15855 0.0
C3282 C 0.84212 0.94216 0.34601 0.0
C3283 C 0.85885 0.95925 0.34826 0.0
C3284 C 0.84439 0.96755 0.38639 0.0
C3285 C 0.83267 0.94649 0.38605 0.0
N3286 N 0.82056 0.91325 0.3653 0.0
N3287 N 0.8701 0.99356 0.36728 0.0
C3288 C 0.83115 0.93385 0.36568 0.0
C3289 C 0.85813 0.97376 0.36746 0.0
N3290 N 0.83608 0.93456 0.32501 0.0
N3291 N 0.84186 0.98165 0.40463 0.0
H3292 H 0.87649 0.00049 0.35233 0.0
H3293 H 0.87294 0.00361 0.38147 0.0
H3294 H 0.83115 0.97783 0.41818 0.0
H3295 H 0.849 0.9977 0.4059 0.0
H3296 H 0.82284 0.92317 0.32233 0.0
H3297 H 0.84209 0.9422 0.31023 0.0
H3298 H 0.82144 0.90232 0.35145 0.0
H3299 H 0.81245 0.90624 0.37932 0.0
C3300 C 0.29691 0.09073 0.63154 0.0
C3301 C 0.31709 0.09307 0.64443 0.0
C3302 C 0.32653 0.12795 0.62416 0.0
C3303 C 0.30729 0.12484 0.61012 0.0
N3304 N 0.27582 0.10186 0.59792 0.0
N3305 N 0.35369 0.11066 0.6495 0.0
C3306 C 0.29291 0.10579 0.61306 0.0
C3307 C 0.33267 0.11074 0.63968 0.0
N3308 N 0.28122 0.07477 0.6375 0.0
N3309 N 0.33847 0.1478 0.62332 0.0
H3310 H 0.35912 0.0979 0.66045 0.0
H3311 H 0.36656 0.12189 0.64503 0.0
H3312 H 0.33426 0.16105 0.61246 0.0
H3313 H 0.35107 0.15204 0.63494 0.0
H3314 H 0.2651 0.07382 0.63038 0.0
H3315 H 0.28377 0.06332 0.65073 0.0
H3316 H 0.26625 0.08703 0.59769 0.0
H3317 H 0.27224 0.11281 0.5845 0.0
C3318 C 0.14478 0.57912 0.85681 0.0
C3319 C 0.13571 0.55752 0.85124 0.0
C3320 C 0.16237 0.53945 0.87748 0.0
C3321 C 0.17132 0.56106 0.88297 0.0
N3322 N 0.17649 0.60019 0.87196 0.0
N3323 N 0.1403 0.51687 0.85115 0.0
C3324 C 0.16456 0.58041 0.87042 0.0
C3325 C 0.14587 0.53754 0.86 0.0
N3326 N 0.13357 0.59849 0.85074 0.0
N3327 N 0.16937 0.52086 0.88936 0.0
H3328 H 0.12888 0.51494 0.83779 0.0
H3329 H 0.14859 0.5019 0.85548 0.0
H3330 H 0.1827 0.52157 0.90098 0.0
H3331 H 0.16149 0.50509 0.88829 0.0
H3332 H 0.13831 0.61456 0.85628 0.0
H3333 H 0.11803 0.59849 0.84238 0.0
H3334 H 0.1733 0.61417 0.86165 0.0
H3335 H 0.19125 0.60186 0.88145 0.0
C3336 C 0.21507 0.91489 0.12463 0.0
C3337 C 0.19289 0.92246 0.12982 0.0
C3338 C 0.17714 0.89827 0.10024 0.0
C3339 C 0.19939 0.89033 0.09498 0.0
N3340 N 0.2398 0.89599 0.09772 0.0
N3341 N 0.15438 0.92777 0.11742 0.0
C3342 C 0.2185 0.90019 0.10581 0.0
C3343 C 0.17452 0.91649 0.11569 0.0
N3344 N 0.23275 0.92161 0.13794 0.0
N3345 N 0.15833 0.88727 0.09227 0.0
H3346 H 0.15181 0.94104 0.12879 0.0
H3347 H 0.14106 0.92551 0.10603 0.0
H3348 H 0.15882 0.87281 0.08222 0.0
H3349 H 0.14196 0.89099 0.09774 0.0
H3350 H 0.24891 0.91455 0.13704 0.0
H3351 H 0.23084 0.93403 0.15036 0.0
H3352 H 0.25427 0.90412 0.10372 0.0
H3353 H 0.24277 0.88601 0.08343 0.0
C3354 C 0.65215 0.94084 0.14714 0.0
C3355 C 0.63321 0.95543 0.14396 0.0
C3356 C 0.64993 0.96789 0.10806 0.0
C3357 C 0.66558 0.94969 0.10891 0.0
N3358 N 0.67938 0.91648 0.12889 0.0
N3359 N 0.61256 0.98049 0.11864 0.0
C3360 C 0.66641 0.93568 0.12847 0.0
C3361 C 0.63179 0.96866 0.12385 0.0
N3362 N 0.6568 0.93207 0.16804 0.0
N3363 N 0.65224 0.98431 0.09193 0.0
H3364 H 0.59796 0.98038 0.12852 0.0
H3365 H 0.61016 0.98843 0.10304 0.0
H3366 H 0.66565 0.98433 0.08042 0.0
H3367 H 0.64245 0.99902 0.09171 0.0
H3368 H 0.67159 0.92308 0.1716 0.0
H3369 H 0.64728 0.93599 0.18235 0.0
H3370 H 0.67812 0.90441 0.14173 0.0
H3371 H 0.6899 0.91139 0.1157 0.0
C3372 C 0.29234 0.40216 0.89323 0.0
C3373 C 0.29935 0.37917 0.89237 0.0
C3374 C 0.32011 0.38641 0.85729 0.0
C3375 C 0.3112 0.40879 0.85675 0.0
N3376 N 0.28638 0.43721 0.87248 0.0
N3377 N 0.31697 0.34834 0.87194 0.0
C3378 C 0.29672 0.41657 0.87433 0.0
C3379 C 0.31223 0.37096 0.87384 0.0
N3380 N 0.28165 0.4102 0.91213 0.0
N3381 N 0.33706 0.38019 0.84272 0.0
H3382 H 0.31214 0.33637 0.88395 0.0
H3383 H 0.32399 0.34107 0.85747 0.0
H3384 H 0.34402 0.39107 0.83073 0.0
H3385 H 0.34597 0.36501 0.84401 0.0
H3386 H 0.27839 0.42732 0.91491 0.0
H3387 H 0.27722 0.39981 0.92574 0.0
H3388 H 0.27384 0.44284 0.88354 0.0
H3389 H 0.28904 0.44808 0.8588 0.0
C3390 C 0.71466 0.10429 0.39025 0.0
C3391 C 0.69505 0.1134 0.40081 0.0
C3392 C 0.67176 0.08478 0.38173 0.0
C3393 C 0.69031 0.07932 0.36763 0.0
N3394 N 0.72989 0.08276 0.35867 0.0
N3395 N 0.65406 0.11432 0.40362 0.0
C3396 C 0.712 0.08862 0.37211 0.0
C3397 C 0.67336 0.10393 0.39612 0.0
N3398 N 0.73573 0.11014 0.39792 0.0
N3399 N 0.6524 0.07213 0.38094 0.0
H3400 H 0.65417 0.12944 0.41267 0.0
H3401 H 0.63786 0.1094 0.39859 0.0
H3402 H 0.65071 0.05793 0.37058 0.0
H3403 H 0.63903 0.07431 0.39228 0.0
H3404 H 0.7506 0.1026 0.39214 0.0
H3405 H 0.73821 0.12098 0.41166 0.0
H3406 H 0.74552 0.09097 0.35909 0.0
H3407 H 0.72864 0.07 0.34648 0.0
C3408 C 0.13764 0.85118 0.53642 0.0
C3409 C 0.1478 0.86202 0.55534 0.0
C3410 C 0.12617 0.83732 0.58092 0.0
C3411 C 0.11296 0.83004 0.5623 0.0
N3412 N 0.10627 0.82864 0.52219 0.0
N3413 N 0.15007 0.86669 0.59624 0.0
C3414 C 0.11888 0.83643 0.53995 0.0
C3415 C 0.14204 0.85513 0.5778 0.0
N3416 N 0.14633 0.85453 0.51521 0.0
N3417 N 0.12317 0.82761 0.60174 0.0
H3418 H 0.16111 0.88039 0.59535 0.0
H3419 H 0.14398 0.8642 0.61261 0.0
H3420 H 0.11136 0.81483 0.60476 0.0
H3421 H 0.13395 0.83051 0.61541 0.0
H3422 H 0.1409 0.84569 0.50094 0.0
H3423 H 0.16057 0.8646 0.51223 0.0
H3424 H 0.10769 0.83482 0.50572 0.0
H3425 H 0.09381 0.81628 0.52428 0.0
C3426 C 0.90601 0.87677 0.83042 0.0
C3427 C 0.91762 0.86742 0.81158 0.0
C3428 C 0.89713 0.89329 0.78625 0.0
C3429 C 0.88302 0.89972 0.80464 0.0
N3430 N 0.87116 0.89378 0.8434 0.0
N3431 N 0.92388 0.86579 0.77131 0.0
C3432 C 0.88683 0.89067 0.82659 0.0
C3433 C 0.91314 0.87548 0.78938 0.0
N3434 N 0.91283 0.87194 0.85202 0.0
N3435 N 0.89569 0.90457 0.76608 0.0
H3436 H 0.93668 0.85371 0.77323 0.0
H3437 H 0.91942 0.86894 0.75453 0.0
H3438 H 0.88443 0.91793 0.76338 0.0
H3439 H 0.90697 0.90206 0.75274 0.0
H3440 H 0.90616 0.88003 0.86624 0.0
H3441 H 0.92668 0.86167 0.85574 0.0
H3442 H 0.87189 0.88551 0.85898 0.0
H3443 H 0.85597 0.90243 0.84094 0.0
C3444 C 0.86141 0.64555 0.03697 0.0
C3445 C 0.85292 0.63527 0.057 0.0
C3446 C 0.87457 0.66232 0.07992 0.0
C3447 C 0.88647 0.66919 0.06023 0.0
N3448 N 0.89105 0.66837 0.01978 0.0
N3449 N 0.85384 0.63195 0.09791 0.0
C3450 C 0.87967 0.66123 0.03863 0.0
C3451 C 0.85979 0.64339 0.07862 0.0
N3452 N 0.85165 0.64077 0.01652 0.0
N3453 N 0.87791 0.67331 0.10003 0.0
H3454 H 0.84447 0.617 0.09791 0.0
H3455 H 0.86028 0.63586 0.11386 0.0
H3456 H 0.88869 0.68716 0.10177 0.0
H3457 H 0.86812 0.67028 0.11441 0.0
H3458 H 0.8558 0.64918 0.00157 0.0
H3459 H 0.83782 0.62988 0.01484 0.0
H3460 H 0.88899 0.66113 0.00382 0.0
H3461 H 0.90322 0.6812 0.02045 0.0
C3462 C 0.08784 0.62866 0.2866 0.0
C3463 C 0.07988 0.63362 0.30868 0.0
C3464 C 0.10325 0.60335 0.32446 0.0
C3465 C 0.11174 0.59851 0.30233 0.0
N3466 N 0.10684 0.60182 0.26188 0.0
N3467 N 0.07363 0.62077 0.34691 0.0
C3468 C 0.10237 0.60971 0.2832 0.0
C3469 C 0.08524 0.61909 0.32695 0.0
N3470 N 0.0817 0.64233 0.26898 0.0
N3471 N 0.11349 0.59464 0.34337 0.0
H3472 H 0.06056 0.63236 0.34947 0.0
H3473 H 0.07533 0.60911 0.36006 0.0
H3474 H 0.12764 0.58415 0.34309 0.0
H3475 H 0.10947 0.5998 0.35976 0.0
H3476 H 0.08911 0.64158 0.25298 0.0
H3477 H 0.06943 0.65493 0.2708 0.0
H3478 H 0.09906 0.60813 0.24736 0.0
H3479 H 0.11662 0.58739 0.25891 0.0
C3480 C 0.15128 0.15379 0.42947 0.0
C3481 C 0.15273 0.14233 0.45057 0.0
C3482 C 0.11981 0.16413 0.46382 0.0
C3483 C 0.11507 0.17014 0.44103 0.0
N3484 N 0.12569 0.16879 0.4014 0.0
N3485 N 0.14179 0.14101 0.48988 0.0
C3486 C 0.13077 0.16478 0.42364 0.0
C3487 C 0.13804 0.14896 0.46848 0.0
N3488 N 0.16956 0.15505 0.41533 0.0
N3489 N 0.10719 0.17343 0.48087 0.0
H3490 H 0.15683 0.13287 0.4944 0.0
H3491 H 0.13022 0.14257 0.50311 0.0
H3492 H 0.09452 0.18538 0.47774 0.0
H3493 H 0.11046 0.17103 0.49802 0.0
H3494 H 0.16939 0.16436 0.40032 0.0
H3495 H 0.18579 0.1502 0.42029 0.0
H3496 H 0.1356 0.16262 0.38813 0.0
H3497 H 0.11069 0.1764 0.39605 0.0
C3498 C 0.60188 0.89277 0.71307 0.0
C3499 C 0.61414 0.90038 0.69382 0.0
C3500 C 0.58991 0.87725 0.66928 0.0
C3501 C 0.58065 0.86658 0.6887 0.0
N3502 N 0.57759 0.86373 0.72924 0.0
N3503 N 0.62251 0.89656 0.65386 0.0
C3504 C 0.58647 0.87434 0.71068 0.0
C3505 C 0.60867 0.89203 0.67191 0.0
N3506 N 0.60451 0.90351 0.73341 0.0
N3507 N 0.58139 0.87273 0.64822 0.0
H3508 H 0.63746 0.90583 0.65521 0.0
H3509 H 0.62065 0.88891 0.63805 0.0
H3510 H 0.56787 0.86176 0.64539 0.0
H3511 H 0.58621 0.8817 0.63379 0.0
H3512 H 0.59456 0.90005 0.74757 0.0
H3513 H 0.61527 0.91738 0.73558 0.0
H3514 H 0.58325 0.86658 0.74572 0.0
H3515 H 0.56506 0.85129 0.72794 0.0
C3516 C 0.89815 0.36497 0.92559 0.0
C3517 C 0.89988 0.34341 0.93619 0.0
C3518 C 0.86458 0.35076 0.95697 0.0
C3519 C 0.86429 0.37311 0.9481 0.0
N3520 N 0.88247 0.40279 0.92653 0.0
N3521 N 0.8866 0.31669 0.96409 0.0
C3522 C 0.88165 0.38063 0.93328 0.0
C3523 C 0.88352 0.33645 0.9524 0.0
N3524 N 0.91152 0.37007 0.90734 0.0
N3525 N 0.84669 0.3432 0.96961 0.0
H3526 H 0.90029 0.30588 0.96122 0.0
H3527 H 0.87659 0.31183 0.97779 0.0
H3528 H 0.83312 0.3536 0.97414 0.0
H3529 H 0.84462 0.32635 0.97444 0.0
H3530 H 0.90946 0.38453 0.89743 0.0
H3531 H 0.92323 0.3588 0.90051 0.0
H3532 H 0.89613 0.40983 0.91784 0.0
H3533 H 0.87042 0.41478 0.93124 0.0
C3534 C 0.41325 0.62601 0.20939 0.0
C3535 C 0.41706 0.63503 0.18745 0.0
C3536 C 0.38681 0.61121 0.17205 0.0
C3537 C 0.38367 0.60129 0.19376 0.0
N3538 N 0.39713 0.59559 0.23193 0.0
N3539 N 0.41157 0.63209 0.14698 0.0
C3540 C 0.39787 0.6076 0.21213 0.0
C3541 C 0.40534 0.62608 0.16846 0.0
N3542 N 0.42401 0.63538 0.22763 0.0
N3543 N 0.37115 0.60787 0.15525 0.0
H3544 H 0.42501 0.64296 0.14351 0.0
H3545 H 0.40498 0.62439 0.13252 0.0
H3546 H 0.35657 0.59812 0.1573 0.0
H3547 H 0.37129 0.61674 0.13999 0.0
H3548 H 0.41994 0.63149 0.24436 0.0
H3549 H 0.43637 0.64794 0.22596 0.0
H3550 H 0.40853 0.59802 0.24518 0.0
H3551 H 0.38638 0.58176 0.23432 0.0
C3552 C 0.07129 0.63705 0.828 0.0
C3553 C 0.05581 0.61874 0.82651 0.0
C3554 C 0.02798 0.64004 0.84888 0.0
C3555 C 0.04484 0.65668 0.85311 0.0
N3556 N 0.07569 0.67708 0.83561 0.0
N3557 N 0.01721 0.60598 0.82812 0.0
C3558 C 0.06438 0.6572 0.83911 0.0
C3559 C 0.03333 0.62127 0.83463 0.0
N3560 N 0.09289 0.63489 0.81997 0.0
N3561 N 0.00691 0.64249 0.85815 0.0
H3562 H 0.02076 0.59316 0.81646 0.0
H3563 H 0.00017 0.60696 0.83251 0.0
H3564 H 0.00157 0.65774 0.86532 0.0
H3565 H 0.99459 0.62987 0.85822 0.0
H3566 H 0.10557 0.64675 0.8233 0.0
H3567 H 0.09856 0.62064 0.81123 0.0
H3568 H 0.08925 0.6786 0.8244 0.0
H3569 H 0.06931 0.6926 0.84119 0.0
C3570 C 0.12613 0.80017 0.08378 0.0
C3571 C 0.14449 0.81428 0.09039 0.0
C3572 C 0.12745 0.81973 0.12797 0.0
C3573 C 0.10983 0.80459 0.12185 0.0
N3574 N 0.09228 0.77932 0.09513 0.0
N3575 N 0.16329 0.83725 0.11877 0.0
C3576 C 0.10904 0.79461 0.09999 0.0
C3577 C 0.14531 0.82398 0.11249 0.0
N3578 N 0.12522 0.79202 0.0621 0.0
N3579 N 0.12659 0.83081 0.14834 0.0
H3580 H 0.17532 0.84334 0.10744 0.0
H3581 H 0.16689 0.84181 0.13541 0.0
H3582 H 0.11439 0.82751 0.16062 0.0
H3583 H 0.13705 0.84427 0.1528 0.0
H3584 H 0.11146 0.7833 0.05536 0.0
H3585 H 0.13801 0.79482 0.05024 0.0
H3586 H 0.09141 0.7699 0.08027 0.0
H3587 H 0.0796 0.77504 0.10669 0.0
C3588 C 0.95811 0.86115 0.35271 0.0
C3589 C 0.94377 0.85781 0.37173 0.0
C3590 C 0.91859 0.88795 0.35854 0.0
C3591 C 0.93422 0.89316 0.34109 0.0
N3592 N 0.96977 0.88631 0.32222 0.0
N3593 N 0.91264 0.87053 0.39504 0.0
C3594 C 0.95419 0.88008 0.33819 0.0
C3595 C 0.92459 0.87185 0.37524 0.0
N3596 N 0.97517 0.84608 0.34843 0.0
N3597 N 0.89771 0.89806 0.35883 0.0
H3598 H 0.91665 0.85915 0.40788 0.0
H3599 H 0.90022 0.88219 0.39967 0.0
H3600 H 0.89246 0.90953 0.34645 0.0
H3601 H 0.88478 0.8934 0.3699 0.0
H3602 H 0.9848 0.84622 0.33364 0.0
H3603 H 0.97869 0.83239 0.35906 0.0
H3604 H 0.9858 0.87906 0.32088 0.0
H3605 H 0.96713 0.89978 0.31106 0.0
C3606 C 0.86348 0.66655 0.6099 0.0
C3607 C 0.85796 0.6828 0.59313 0.0
C3608 C 0.88946 0.70679 0.60586 0.0
C3609 C 0.89302 0.69176 0.6243 0.0
N3610 N 0.88037 0.65977 0.64646 0.0
N3611 N 0.86411 0.71928 0.57586 0.0
C3612 C 0.87926 0.67225 0.62699 0.0
C3613 C 0.87062 0.70315 0.59115 0.0
N3614 N 0.85397 0.64542 0.60921 0.0
N3615 N 0.90431 0.72419 0.60222 0.0
H3616 H 0.85073 0.71685 0.56455 0.0
H3617 H 0.87103 0.73551 0.57528 0.0
H3618 H 0.91804 0.72742 0.61291 0.0
H3619 H 0.90401 0.73438 0.58782 0.0
H3620 H 0.85899 0.63217 0.61974 0.0
H3621 H 0.84277 0.6404 0.5965 0.0
H3622 H 0.86882 0.64702 0.65044 0.0
H3623 H 0.89125 0.66374 0.65976 0.0
C3624 C 0.04144 0.35912 0.15111 0.0
C3625 C 0.04892 0.36031 0.12828 0.0
C3626 C 0.06897 0.39566 0.13637 0.0
C3627 C 0.05956 0.39585 0.15856 0.0
N3628 N 0.03434 0.37943 0.18621 0.0
N3629 N 0.06707 0.38129 0.09812 0.0
C3630 C 0.04518 0.37796 0.1658 0.0
C3631 C 0.06172 0.37913 0.12058 0.0
N3632 N 0.03091 0.33995 0.15875 0.0
N3633 N 0.08584 0.41055 0.13068 0.0
H3634 H 0.06292 0.36925 0.08594 0.0
H3635 H 0.07397 0.39597 0.09116 0.0
H3636 H 0.09228 0.42263 0.14178 0.0
H3637 H 0.09519 0.40946 0.11576 0.0
H3638 H 0.02733 0.33697 0.17577 0.0
H3639 H 0.02699 0.32632 0.14817 0.0
H3640 H 0.02184 0.36812 0.19142 0.0
H3641 H 0.03653 0.39305 0.19726 0.0
C3642 C 0.37007 0.7924 0.41246 0.0
C3643 C 0.3613 0.81453 0.41593 0.0
C3644 C 0.38468 0.82895 0.38487 0.0
C3645 C 0.39457 0.80719 0.38225 0.0
N3646 N 0.39991 0.76915 0.39617 0.0
N3647 N 0.36415 0.8548 0.40912 0.0
C3648 C 0.3882 0.78913 0.39682 0.0
C3649 C 0.37003 0.83312 0.40345 0.0
N3650 N 0.36079 0.77452 0.42387 0.0
N3651 N 0.38798 0.84525 0.36872 0.0
H3652 H 0.35353 0.85866 0.42266 0.0
H3653 H 0.37167 0.86907 0.40193 0.0
H3654 H 0.39747 0.84253 0.35409 0.0
H3655 H 0.37928 0.8606 0.36852 0.0
H3656 H 0.36446 0.75766 0.42018 0.0
H3657 H 0.34853 0.77662 0.43646 0.0
H3658 H 0.39754 0.75612 0.40784 0.0
H3659 H 0.41337 0.7663 0.38507 0.0
C3660 C 0.96788 0.12574 0.63246 0.0
C3661 C 0.95545 0.14634 0.63442 0.0
C3662 C 0.93466 0.13065 0.66687 0.0
C3663 C 0.94729 0.1103 0.66493 0.0
N3664 N 0.98184 0.09277 0.65246 0.0
N3665 N 0.93396 0.17093 0.65916 0.0
C3666 C 0.96597 0.10938 0.64994 0.0
C3667 C 0.94111 0.14964 0.65353 0.0
N3668 N 0.98007 0.1207 0.61343 0.0
N3669 N 0.91579 0.13165 0.68024 0.0
H3670 H 0.93953 0.18537 0.65061 0.0
H3671 H 0.92488 0.1744 0.67391 0.0
H3672 H 0.91032 0.11823 0.69031 0.0
H3673 H 0.90463 0.14535 0.67998 0.0
H3674 H 0.98733 0.10481 0.61073 0.0
H3675 H 0.98115 0.13113 0.59929 0.0
H3676 H 0.99678 0.09219 0.64303 0.0
H3677 H 0.98125 0.08146 0.66604 0.0
C3678 C 0.5973 0.69096 0.91048 0.0
C3679 C 0.59989 0.70869 0.89449 0.0
C3680 C 0.63671 0.71788 0.9116 0.0
C3681 C 0.63658 0.69634 0.92239 0.0
N3682 N 0.61639 0.66193 0.93202 0.0
N3683 N 0.61808 0.74417 0.88579 0.0
C3684 C 0.61662 0.68294 0.92229 0.0
C3685 C 0.61838 0.72391 0.89698 0.0
N3686 N 0.57628 0.68244 0.91505 0.0
N3687 N 0.65423 0.73251 0.91574 0.0
H3688 H 0.60329 0.75067 0.87862 0.0
H3689 H 0.63193 0.75497 0.88437 0.0
H3690 H 0.66721 0.72874 0.92716 0.0
H3691 H 0.65536 0.74884 0.90924 0.0
H3692 H 0.57328 0.6705 0.92772 0.0
H3693 H 0.56159 0.68982 0.90854 0.0
H3694 H 0.60302 0.65057 0.9299 0.0
H3695 H 0.63013 0.6551 0.94074 0.0
C3696 C 0.34223 0.53865 0.61993 0.0
C3697 C 0.33985 0.56103 0.6116 0.0
C3698 C 0.36318 0.57571 0.64263 0.0
C3699 C 0.36791 0.55298 0.64947 0.0
N3700 N 0.36177 0.51279 0.6454 0.0
N3701 N 0.34843 0.60089 0.61375 0.0
C3702 C 0.35728 0.53442 0.63837 0.0
C3703 C 0.35011 0.57959 0.62283 0.0
N3704 N 0.32987 0.52161 0.61024 0.0
N3705 N 0.3714 0.59373 0.65472 0.0
H3706 H 0.33784 0.60474 0.60015 0.0
H3707 H 0.35839 0.61456 0.61876 0.0
H3708 H 0.3834 0.59247 0.66754 0.0
H3709 H 0.36561 0.61026 0.65266 0.0
H3710 H 0.32929 0.50508 0.61633 0.0
H3711 H 0.31869 0.52445 0.59682 0.0
H3712 H 0.35674 0.49833 0.63667 0.0
H3713 H 0.37126 0.5092 0.65988 0.0
C3714 C 0.83848 0.45998 0.88008 0.0
C3715 C 0.8347 0.43786 0.88865 0.0
C3716 C 0.8637 0.42264 0.86325 0.0
C3717 C 0.86686 0.4446 0.85384 0.0
N3718 N 0.85369 0.48307 0.84961 0.0
N3719 N 0.83925 0.39741 0.88432 0.0
C3720 C 0.85315 0.46299 0.86114 0.0
C3721 C 0.84566 0.41895 0.87869 0.0
N3722 N 0.82841 0.47812 0.89037 0.0
N3723 N 0.87894 0.40569 0.85895 0.0
H3724 H 0.82622 0.39388 0.89567 0.0
H3725 H 0.84522 0.38306 0.87593 0.0
H3726 H 0.89329 0.40776 0.84888 0.0
H3727 H 0.87878 0.39016 0.86736 0.0
H3728 H 0.83258 0.49489 0.88674 0.0
H3729 H 0.81657 0.47628 0.90339 0.0
H3730 H 0.8426 0.49641 0.85284 0.0
H3731 H 0.86385 0.48563 0.83536 0.0
C3732 C 0.29877 0.59366 0.10085 0.0
C3733 C 0.2878 0.61444 0.10607 0.0
C3734 C 0.28247 0.60084 0.14486 0.0
C3735 C 0.29874 0.58359 0.14104 0.0
N3736 N 0.32353 0.56415 0.11469 0.0
N3737 N 0.27081 0.63861 0.13488 0.0
C3738 C 0.30694 0.57977 0.11875 0.0
C3739 C 0.2796 0.61816 0.12845 0.0
N3740 N 0.30133 0.58719 0.07877 0.0
N3741 N 0.26991 0.60075 0.1643 0.0
H3742 H 0.26898 0.65244 0.12415 0.0
H3743 H 0.26719 0.64254 0.15172 0.0
H3744 H 0.27118 0.58777 0.17627 0.0
H3745 H 0.25653 0.61194 0.16715 0.0
H3746 H 0.30764 0.57138 0.07406 0.0
H3747 H 0.29463 0.59659 0.06536 0.0
H3748 H 0.33179 0.56282 0.09913 0.0
H3749 H 0.33033 0.55367 0.12712 0.0
C3750 C 0.16015 0.03934 0.38269 0.0
C3751 C 0.16411 0.06188 0.38991 0.0
C3752 C 0.13781 0.07633 0.3614 0.0
C3753 C 0.13373 0.05369 0.35391 0.0
N3754 N 0.14489 0.01437 0.35374 0.0
N3755 N 0.16182 0.10195 0.38274 0.0
C3756 C 0.14606 0.03536 0.36349 0.0
C3757 C 0.15469 0.08039 0.37801 0.0
N3758 N 0.16958 0.0218 0.39448 0.0
N3759 N 0.12455 0.09384 0.35395 0.0
H3760 H 0.17411 0.10547 0.39495 0.0
H3761 H 0.15733 0.11604 0.37311 0.0
H3762 H 0.11163 0.09207 0.34212 0.0
H3763 H 0.1248 0.10996 0.36114 0.0
H3764 H 0.16518 0.00488 0.39206 0.0
H3765 H 0.18142 0.02441 0.40736 0.0
H3766 H 0.15497 0.00075 0.35864 0.0
H3767 H 0.13522 0.01105 0.33931 0.0
C3768 C 0.1766 0.40124 0.60336 0.0
C3769 C 0.19873 0.39284 0.59827 0.0
C3770 C 0.2148 0.41707 0.62794 0.0
C3771 C 0.19272 0.42469 0.6334 0.0
N3772 N 0.15419 0.43062 0.62128 0.0
N3773 N 0.23919 0.3982 0.60072 0.0
C3774 C 0.17422 0.41918 0.61921 0.0
C3775 C 0.21798 0.40249 0.60901 0.0
N3776 N 0.15764 0.39098 0.59477 0.0
N3777 N 0.23264 0.42357 0.64117 0.0
H3778 H 0.24195 0.38837 0.58628 0.0
H3779 H 0.25378 0.40614 0.60668 0.0
H3780 H 0.23091 0.4359 0.65371 0.0
H3781 H 0.24875 0.41643 0.64009 0.0
H3782 H 0.14128 0.39485 0.60017 0.0
H3783 H 0.15787 0.37705 0.584 0.0
H3784 H 0.14082 0.42882 0.60989 0.0
H3785 H 0.15176 0.44366 0.63293 0.0
C3786 C 0.65391 0.45498 0.61584 0.0
C3787 C 0.65327 0.43343 0.60522 0.0
C3788 C 0.62664 0.41951 0.63384 0.0
C3789 C 0.62557 0.44168 0.64336 0.0
N3790 N 0.63723 0.48084 0.64328 0.0
N3791 N 0.6377 0.39573 0.60228 0.0
C3792 C 0.63895 0.45954 0.63429 0.0
C3793 C 0.63935 0.41584 0.61378 0.0
N3794 N 0.66898 0.47092 0.60835 0.0
N3795 N 0.61569 0.40177 0.64399 0.0
H3796 H 0.64785 0.39162 0.58844 0.0
H3797 H 0.62532 0.38357 0.60551 0.0
H3798 H 0.6047 0.40353 0.65761 0.0
H3799 H 0.61843 0.38486 0.63976 0.0
H3800 H 0.67198 0.48626 0.6165 0.0
H3801 H 0.67974 0.46817 0.59458 0.0
H3802 H 0.6445 0.49519 0.63605 0.0
H3803 H 0.62758 0.48446 0.65764 0.0
C3804 C 0.31257 0.8703 0.37237 0.0
C3805 C 0.29995 0.87887 0.39092 0.0
C3806 C 0.29677 0.9158 0.37197 0.0
C3807 C 0.31108 0.90772 0.35439 0.0
N3808 N 0.33696 0.87895 0.34074 0.0
N3809 N 0.28229 0.91026 0.41014 0.0
C3810 C 0.32014 0.88541 0.35535 0.0
C3811 C 0.29278 0.90182 0.39129 0.0
N3812 N 0.31741 0.84766 0.37092 0.0
N3813 N 0.28622 0.9363 0.36976 0.0
H3814 H 0.27809 0.90017 0.42405 0.0
H3815 H 0.27896 0.92743 0.41254 0.0
H3816 H 0.28857 0.94683 0.35576 0.0
H3817 H 0.27378 0.94209 0.38086 0.0
H3818 H 0.32423 0.8401 0.35651 0.0
H3819 H 0.31282 0.83595 0.38326 0.0
H3820 H 0.34593 0.86383 0.34224 0.0
H3821 H 0.34377 0.88961 0.32846 0.0
C3822 C 0.69085 0.5773 0.88221 0.0
C3823 C 0.68791 0.58573 0.85988 0.0
C3824 C 0.68679 0.62477 0.87438 0.0
C3825 C 0.6921 0.61661 0.8963 0.0
N3826 N 0.69716 0.5854 0.92212 0.0
N3827 N 0.68339 0.61778 0.83438 0.0
C3828 C 0.69336 0.5929 0.90056 0.0
C3829 C 0.68614 0.60952 0.85588 0.0
N3830 N 0.69117 0.55438 0.88578 0.0
N3831 N 0.68046 0.64693 0.87155 0.0
H3832 H 0.67886 0.60794 0.82051 0.0
H3833 H 0.68626 0.63465 0.83006 0.0
H3834 H 0.67985 0.6586 0.88476 0.0
H3835 H 0.67339 0.65332 0.8567 0.0
H3836 H 0.69105 0.54676 0.90166 0.0
H3837 H 0.69091 0.5426 0.87261 0.0
H3838 H 0.70105 0.56876 0.9264 0.0
H3839 H 0.69646 0.5961 0.93608 0.0
C3840 C 0.64977 0.33944 0.55806 0.0
C3841 C 0.64756 0.35544 0.54029 0.0
C3842 C 0.61048 0.33894 0.53105 0.0
C3843 C 0.61032 0.32809 0.55259 0.0
N3844 N 0.6301 0.31901 0.58743 0.0
N3845 N 0.62918 0.36501 0.50515 0.0
C3846 C 0.63018 0.32818 0.56617 0.0
C3847 C 0.62894 0.35344 0.52518 0.0
N3848 N 0.67067 0.33433 0.56657 0.0
N3849 N 0.59322 0.33485 0.51613 0.0
H3850 H 0.64401 0.37198 0.49853 0.0
H3851 H 0.61508 0.36714 0.49477 0.0
H3852 H 0.57998 0.32375 0.5198 0.0
H3853 H 0.5927 0.34092 0.4996 0.0
H3854 H 0.6733 0.32163 0.57856 0.0
H3855 H 0.68552 0.34036 0.55911 0.0
H3856 H 0.64353 0.32109 0.59873 0.0
H3857 H 0.61605 0.31111 0.59462 0.0
C3858 C 0.41578 0.38019 0.82739 0.0
C3859 C 0.42075 0.36555 0.80909 0.0
C3860 C 0.39898 0.39016 0.78367 0.0
C3861 C 0.38986 0.40154 0.8028 0.0
N3862 N 0.38811 0.40528 0.84385 0.0
N3863 N 0.41829 0.35676 0.76942 0.0
C3864 C 0.39818 0.3964 0.82493 0.0
C3865 C 0.41285 0.37072 0.78703 0.0
N3866 N 0.42731 0.37817 0.84737 0.0
N3867 N 0.39488 0.39827 0.76237 0.0
H3868 H 0.42987 0.34352 0.77119 0.0
H3869 H 0.4108 0.35782 0.75346 0.0
H3870 H 0.38561 0.41305 0.75943 0.0
H3871 H 0.40257 0.3918 0.74786 0.0
H3872 H 0.42589 0.38987 0.86052 0.0
H3873 H 0.44007 0.36625 0.84994 0.0
H3874 H 0.39193 0.3999 0.86022 0.0
H3875 H 0.37429 0.41619 0.84359 0.0
C3876 C 0.38187 0.16052 0.04376 0.0
C3877 C 0.39362 0.1585 0.06465 0.0
C3878 C 0.37223 0.12431 0.07392 0.0
C3879 C 0.35932 0.12704 0.05385 0.0
N3880 N 0.34925 0.14931 0.02116 0.0
N3881 N 0.39615 0.14208 0.102 0.0
C3882 C 0.36335 0.14565 0.03916 0.0
C3883 C 0.38758 0.14149 0.08047 0.0
N3884 N 0.38896 0.17597 0.02804 0.0
N3885 N 0.37068 0.10475 0.08622 0.0
H3886 H 0.40698 0.15486 0.10765 0.0
H3887 H 0.39068 0.13135 0.11491 0.0
H3888 H 0.36005 0.09144 0.08167 0.0
H3889 H 0.38163 0.10075 0.09947 0.0
H3890 H 0.38276 0.1766 0.01154 0.0
H3891 H 0.40216 0.18734 0.0311 0.0
H3892 H 0.34984 0.16383 0.01115 0.0
H3893 H 0.33584 0.13848 0.01719 0.0
C3894 C 0.59357 0.13254 0.28687 0.0
C3895 C 0.58282 0.13624 0.30802 0.0
C3896 C 0.60471 0.10557 0.32498 0.0
C3897 C 0.61534 0.10142 0.30373 0.0
N3898 N 0.61491 0.10661 0.26316 0.0
N3899 N 0.57234 0.12135 0.34457 0.0
C3900 C 0.6082 0.11355 0.2842 0.0
C3901 C 0.58624 0.12089 0.32608 0.0
N3902 N 0.59013 0.14747 0.26951 0.0
N3903 N 0.61342 0.09668 0.34452 0.0
H3904 H 0.55871 0.13248 0.34602 0.0
H3905 H 0.57299 0.10915 0.35734 0.0
H3906 H 0.62807 0.08688 0.34504 0.0
H3907 H 0.60766 0.10124 0.36058 0.0
H3908 H 0.59958 0.14733 0.25459 0.0
H3909 H 0.57836 0.16066 0.27054 0.0
H3910 H 0.6087 0.11365 0.24821 0.0
H3911 H 0.62489 0.09224 0.26058 0.0
C3912 C 0.62367 0.66194 0.45966 0.0
C3913 C 0.61523 0.66661 0.43765 0.0
C3914 C 0.63909 0.63665 0.42176 0.0
C3915 C 0.64835 0.63258 0.4436 0.0
N3916 N 0.65313 0.64438 0.48242 0.0
N3917 N 0.61893 0.66243 0.3971 0.0
C3918 C 0.64174 0.64615 0.46233 0.0
C3919 C 0.62447 0.65544 0.41848 0.0
N3920 N 0.61404 0.67226 0.47802 0.0
N3921 N 0.64283 0.62162 0.4045 0.0
H3922 H 0.60817 0.67602 0.39388 0.0
H3923 H 0.62684 0.65626 0.38257 0.0
H3924 H 0.65234 0.60688 0.40639 0.0
H3925 H 0.63453 0.62242 0.38894 0.0
H3926 H 0.61743 0.66759 0.49469 0.0
H3927 H 0.60177 0.68492 0.47644 0.0
H3928 H 0.65053 0.65529 0.49605 0.0
H3929 H 0.66664 0.63322 0.48481 0.0
C3930 C 0.11603 0.3876 0.67316 0.0
C3931 C 0.12007 0.39669 0.69505 0.0
C3932 C 0.09098 0.37151 0.7109 0.0
C3933 C 0.08603 0.36357 0.68874 0.0
N3934 N 0.09026 0.36785 0.64821 0.0
N3935 N 0.10878 0.40047 0.73413 0.0
C3936 C 0.09725 0.37303 0.66969 0.0
C3937 C 0.10678 0.38956 0.71379 0.0
N3938 N 0.13109 0.39156 0.65598 0.0
N3939 N 0.08083 0.36151 0.72915 0.0
H3940 H 0.12007 0.41384 0.73675 0.0
H3941 H 0.09803 0.39757 0.74782 0.0
H3942 H 0.06816 0.34927 0.72748 0.0
H3943 H 0.08569 0.36454 0.74585 0.0
H3944 H 0.13034 0.3834 0.64035 0.0
H3945 H 0.14585 0.40103 0.65808 0.0
H3946 H 0.09645 0.376 0.63382 0.0
H3947 H 0.07668 0.35716 0.64477 0.0
C3948 C 0.36767 0.85554 0.97108 0.0
C3949 C 0.34974 0.85641 0.95517 0.0
C3950 C 0.36851 0.82784 0.93174 0.0
C3951 C 0.38829 0.83011 0.94531 0.0
N3952 N 0.40634 0.84411 0.97926 0.0
N3953 N 0.32794 0.83364 0.92927 0.0
C3954 C 0.38763 0.84312 0.96562 0.0
C3955 C 0.34848 0.83947 0.93822 0.0
N3956 N 0.36485 0.86524 0.99191 0.0
N3957 N 0.36922 0.81614 0.91175 0.0
H3958 H 0.31277 0.84005 0.93571 0.0
H3959 H 0.32572 0.82019 0.91805 0.0
H3960 H 0.3835 0.8075 0.90602 0.0
H3961 H 0.35609 0.81649 0.89994 0.0
H3962 H 0.37662 0.86416 0.00499 0.0
H3963 H 0.34931 0.87188 0.9971 0.0
H3964 H 0.40816 0.85546 0.99263 0.0
H3965 H 0.42058 0.83399 0.97667 0.0
C3966 C 0.90982 0.12794 0.20977 0.0
C3967 C 0.91565 0.13595 0.18789 0.0
C3968 C 0.88774 0.1105 0.17073 0.0
C3969 C 0.88218 0.1021 0.19258 0.0
N3970 N 0.89159 0.09865 0.23219 0.0
N3971 N 0.91463 0.13069 0.14727 0.0
C3972 C 0.89436 0.10955 0.21194 0.0
C3973 C 0.90629 0.12563 0.16828 0.0
N3974 N 0.91872 0.13831 0.22848 0.0
N3975 N 0.87426 0.10548 0.15253 0.0
H3976 H 0.92796 0.1419 0.14458 0.0
H3977 H 0.90992 0.122 0.13265 0.0
H3978 H 0.85964 0.09565 0.15368 0.0
H3979 H 0.87617 0.11291 0.13664 0.0
H3980 H 0.91306 0.13525 0.24491 0.0
H3981 H 0.93121 0.1508 0.22737 0.0
H3982 H 0.90152 0.10191 0.24641 0.0
H3983 H 0.88072 0.08485 0.23422 0.0
C3984 C 0.57438 0.14534 0.85523 0.0
C3985 C 0.55281 0.1491 0.86534 0.0
C3986 C 0.53603 0.12118 0.83954 0.0
C3987 C 0.5576 0.11772 0.82956 0.0
N3988 N 0.59478 0.13275 0.82199 0.0
N3989 N 0.51213 0.14535 0.86271 0.0
C3990 C 0.57586 0.13209 0.83527 0.0
C3991 C 0.53326 0.13847 0.85615 0.0
N3992 N 0.59375 0.1526 0.86566 0.0
N3993 N 0.51832 0.10769 0.83326 0.0
H3994 H 0.50951 0.15855 0.87416 0.0
H3995 H 0.49726 0.13953 0.85519 0.0
H3996 H 0.51956 0.09646 0.81967 0.0
H3997 H 0.50288 0.10723 0.8418 0.0
H3998 H 0.60993 0.14831 0.86001 0.0
H3999 H 0.5938 0.16048 0.88143 0.0
H4000 H 0.60784 0.14439 0.8245 0.0
H4001 H 0.59629 0.12333 0.80713 0.0
C4002 C 0.61095 0.27832 0.09938 0.0
C4003 C 0.59497 0.29569 0.10414 0.0
C4004 C 0.61535 0.3219 0.07933 0.0
C4005 C 0.63301 0.30577 0.07729 0.0
N4006 N 0.64396 0.26664 0.07747 0.0
N4007 N 0.57559 0.32765 0.08743 0.0
C4008 C 0.62964 0.28324 0.08487 0.0
C4009 C 0.59506 0.31554 0.09054 0.0
N4010 N 0.60797 0.25721 0.10835 0.0
N4011 N 0.61823 0.34352 0.0716 0.0
H4012 H 0.55988 0.3217 0.09292 0.0
H4013 H 0.5745 0.34151 0.07654 0.0
H4014 H 0.63252 0.3487 0.0626 0.0
H4015 H 0.60695 0.3566 0.07533 0.0
H4016 H 0.62027 0.24457 0.1081 0.0
H4017 H 0.59266 0.25221 0.11565 0.0
H4018 H 0.64223 0.24953 0.08135 0.0
H4019 H 0.6565 0.26997 0.06545 0.0
C4020 C 0.43128 0.37382 0.37642 0.0
C4021 C 0.44501 0.35526 0.37 0.0
C4022 C 0.45091 0.37232 0.33246 0.0
C4023 C 0.43933 0.39207 0.33993 0.0
N4024 N 0.4207 0.41267 0.37035 0.0
N4025 N 0.46896 0.33663 0.34275 0.0
C4026 C 0.43025 0.39315 0.3623 0.0
C4027 C 0.45502 0.35435 0.34816 0.0
N4028 N 0.41817 0.37252 0.39551 0.0
N4029 N 0.45806 0.37086 0.31047 0.0
H4030 H 0.4719 0.3231 0.35377 0.0
H4031 H 0.47865 0.33587 0.32804 0.0
H4032 H 0.45634 0.38414 0.29894 0.0
H4033 H 0.46453 0.35613 0.30324 0.0
H4034 H 0.40555 0.38422 0.39948 0.0
H4035 H 0.41816 0.35854 0.40628 0.0
H4036 H 0.41702 0.41532 0.38741 0.0
H4037 H 0.41741 0.42682 0.36044 0.0
C4038 C 0.37815 0.17191 0.58743 0.0
C4039 C 0.36615 0.19161 0.58067 0.0
C4040 C 0.39049 0.2147 0.60522 0.0
C4041 C 0.399 0.19457 0.61529 0.0
N4042 N 0.39857 0.15363 0.61783 0.0
N4043 N 0.36114 0.232 0.58214 0.0
C4044 C 0.39256 0.17303 0.60664 0.0
C4045 C 0.37259 0.21314 0.58914 0.0
N4046 N 0.37532 0.15197 0.576 0.0
N4047 N 0.39988 0.23517 0.61065 0.0
H4048 H 0.34918 0.23145 0.56912 0.0
H4049 H 0.3629 0.24786 0.58969 0.0
H4050 H 0.41339 0.23679 0.62195 0.0
H4051 H 0.39576 0.25024 0.60244 0.0
H4052 H 0.3852 0.13764 0.57903 0.0
H4053 H 0.36502 0.15036 0.56178 0.0
H4054 H 0.39226 0.13768 0.61365 0.0
H4055 H 0.40788 0.15353 0.63282 0.0
C4056 C 0.53143 0.86568 0.14726 0.0
C4057 C 0.55026 0.85292 0.13944 0.0
C4058 C 0.57491 0.87361 0.16591 0.0
C4059 C 0.55715 0.88927 0.16988 0.0
N4060 N 0.51821 0.90037 0.1649 0.0
N4061 N 0.59103 0.84658 0.1399 0.0
C4062 C 0.53525 0.88522 0.16085 0.0
C4063 C 0.57225 0.85698 0.14872 0.0
N4064 N 0.50991 0.85878 0.14213 0.0
N4065 N 0.59463 0.87498 0.178 0.0
H4066 H 0.59071 0.83493 0.12671 0.0
H4067 H 0.60753 0.85133 0.14403 0.0
H4068 H 0.59765 0.88726 0.19029 0.0
H4069 H 0.60711 0.86249 0.17752 0.0
H4070 H 0.49543 0.86624 0.14892 0.0
H4071 H 0.50658 0.84405 0.13292 0.0
H4072 H 0.50267 0.90002 0.15653 0.0
H4073 H 0.52011 0.91394 0.17605 0.0
C4074 C 0.87506 0.32985 0.41082 0.0
C4075 C 0.86488 0.31058 0.42095 0.0
C4076 C 0.89078 0.28584 0.39978 0.0
C4077 C 0.89811 0.30486 0.387 0.0
N4078 N 0.89366 0.34447 0.37747 0.0
N4079 N 0.86225 0.27009 0.42496 0.0
C4080 C 0.88955 0.32681 0.39192 0.0
C4081 C 0.87263 0.2885 0.41548 0.0
N4082 N 0.8704 0.35111 0.41873 0.0
N4083 N 0.90149 0.26546 0.39729 0.0
H4084 H 0.84994 0.27162 0.43758 0.0
H4085 H 0.86514 0.2535 0.41968 0.0
H4086 H 0.91503 0.26308 0.38616 0.0
H4087 H 0.89831 0.25149 0.40759 0.0
H4088 H 0.87902 0.36552 0.41325 0.0
H4089 H 0.85965 0.35422 0.43237 0.0
H4090 H 0.88576 0.3602 0.37889 0.0
H4091 H 0.90283 0.34276 0.3625 0.0
C4092 C 0.45589 0.64541 0.65138 0.0
C4093 C 0.44517 0.64472 0.62987 0.0
C4094 C 0.42904 0.6076 0.63837 0.0
C4095 C 0.43878 0.60854 0.66045 0.0
N4096 N 0.45926 0.62917 0.68914 0.0
N4097 N 0.41725 0.6282 0.60502 0.0
C4098 C 0.45144 0.62781 0.66738 0.0
C4099 C 0.43054 0.62669 0.62398 0.0
N4100 N 0.47071 0.66257 0.65618 0.0
N4101 N 0.41856 0.58836 0.63081 0.0
H4102 H 0.41792 0.64182 0.59383 0.0
H4103 H 0.40401 0.61706 0.60149 0.0
H4104 H 0.41527 0.57437 0.64095 0.0
H4105 H 0.41417 0.58569 0.61392 0.0
H4106 H 0.48084 0.66307 0.6706 0.0
H4107 H 0.47393 0.67583 0.64491 0.0
H4108 H 0.46663 0.64365 0.69601 0.0
H4109 H 0.45721 0.61612 0.70089 0.0
C4110 C 0.10528 0.20878 0.89623 0.0
C4111 C 0.09931 0.19016 0.8822 0.0
C4112 C 0.12502 0.16565 0.90373 0.0
C4113 C 0.13364 0.18495 0.91516 0.0
N4114 N 0.13291 0.22515 0.922 0.0
N4115 N 0.1066 0.15167 0.86997 0.0
C4116 C 0.12393 0.20661 0.91141 0.0
C4117 C 0.10976 0.1687 0.88541 0.0
N4118 N 0.09279 0.22827 0.89543 0.0
N4119 N 0.13176 0.14438 0.90996 0.0
H4120 H 0.09655 0.1533 0.85554 0.0
H4121 H 0.11584 0.13663 0.8701 0.0
H4122 H 0.14309 0.1413 0.92312 0.0
H4123 H 0.12433 0.12965 0.90365 0.0
H4124 H 0.09499 0.24169 0.90668 0.0
H4125 H 0.07879 0.23022 0.8848 0.0
H4126 H 0.1285 0.24175 0.91796 0.0
H4127 H 0.14565 0.22386 0.93422 0.0
C4128 C 0.85645 0.07328 0.64281 0.0
C4129 C 0.8664 0.05156 0.64619 0.0
C4130 C 0.84358 0.03623 0.61504 0.0
C4131 C 0.83358 0.05786 0.61197 0.0
N4132 N 0.82477 0.09454 0.62773 0.0
N4133 N 0.86453 0.01117 0.64 0.0
C4134 C 0.83787 0.07545 0.6277 0.0
C4135 C 0.85843 0.03261 0.63369 0.0
N4136 N 0.86588 0.09224 0.65229 0.0
N4137 N 0.83923 0.01933 0.59983 0.0
H4138 H 0.87468 0.0079 0.65411 0.0
H4139 H 0.85771 0.99661 0.63272 0.0
H4140 H 0.82723 0.02105 0.58693 0.0
H4141 H 0.84813 0.00409 0.59944 0.0
H4142 H 0.86046 0.10862 0.64855 0.0
H4143 H 0.8807 0.09208 0.66186 0.0
H4144 H 0.82594 0.10696 0.64024 0.0
H4145 H 0.81121 0.09689 0.61668 0.0
C4146 C 0.34902 0.91558 0.87508 0.0
C4147 C 0.34017 0.93408 0.88745 0.0
C4148 C 0.3585 0.96064 0.86132 0.0
C4149 C 0.37009 0.9422 0.85106 0.0
N4150 N 0.37909 0.90201 0.85104 0.0
N4151 N 0.33723 0.97427 0.89383 0.0
C4152 C 0.3659 0.91958 0.85847 0.0
C4153 C 0.34504 0.95667 0.88095 0.0
N4154 N 0.34144 0.89409 0.87938 0.0
N4155 N 0.35971 0.98175 0.85186 0.0
H4156 H 0.32652 0.9719 0.90772 0.0
H4157 H 0.34238 0.991 0.89155 0.0
H4158 H 0.36884 0.98511 0.83709 0.0
H4159 H 0.34997 0.99542 0.85732 0.0
H4160 H 0.34547 0.88021 0.86924 0.0
H4161 H 0.32938 0.89045 0.89178 0.0
H4162 H 0.37853 0.88583 0.85809 0.0
H4163 H 0.39236 0.9038 0.83958 0.0
C4164 C 0.77993 0.08581 0.13179 0.0
C4165 C 0.80225 0.07705 0.13367 0.0
C4166 C 0.8098 0.08903 0.09484 0.0
C4167 C 0.79075 0.10364 0.09584 0.0
N4168 N 0.75354 0.11008 0.11151 0.0
N4169 N 0.83872 0.06974 0.11639 0.0
C4170 C 0.77437 0.10014 0.11315 0.0
C4171 C 0.81716 0.07804 0.11487 0.0
N4172 N 0.76405 0.07964 0.14747 0.0
N4173 N 0.82026 0.08497 0.07462 0.0
H4174 H 0.84492 0.06139 0.13065 0.0
H4175 H 0.85096 0.07262 0.10398 0.0
H4176 H 0.81358 0.09083 0.05933 0.0
H4177 H 0.83334 0.07325 0.07272 0.0
H4178 H 0.74707 0.08435 0.14683 0.0
H4179 H 0.76762 0.0678 0.1601 0.0
H4180 H 0.74201 0.11102 0.12482 0.0
H4181 H 0.74752 0.11681 0.09633 0.0
C4182 C 0.65044 0.57132 0.35245 0.0
C4183 C 0.64057 0.54955 0.34861 0.0
C4184 C 0.66173 0.53429 0.38096 0.0
C4185 C 0.67139 0.55596 0.38464 0.0
N4186 N 0.68091 0.59276 0.36967 0.0
N4187 N 0.6425 0.50917 0.35473 0.0
C4188 C 0.66798 0.57355 0.36875 0.0
C4189 C 0.64804 0.53062 0.36147 0.0
N4190 N 0.64189 0.59035 0.34229 0.0
N4191 N 0.66525 0.5174 0.3964 0.0
H4192 H 0.63333 0.50591 0.33996 0.0
H4193 H 0.64898 0.49463 0.36235 0.0
H4194 H 0.67636 0.51919 0.41005 0.0
H4195 H 0.65644 0.50209 0.3962 0.0
H4196 H 0.64673 0.6067 0.34687 0.0
H4197 H 0.62827 0.59045 0.33113 0.0
H4198 H 0.68065 0.60513 0.35708 0.0
H4199 H 0.69356 0.59527 0.38173 0.0
C4200 C 0.67653 0.9153 0.61936 0.0
C4201 C 0.69331 0.92 0.63578 0.0
C4202 C 0.72022 0.89612 0.61494 0.0
C4203 C 0.70211 0.88779 0.60145 0.0
N4204 N 0.66149 0.88706 0.59411 0.0
N4205 N 0.73134 0.91507 0.64972 0.0
C4206 C 0.67989 0.89698 0.60419 0.0
C4207 C 0.71531 0.91056 0.63363 0.0
N4208 N 0.65704 0.92779 0.61868 0.0
N4209 N 0.7421 0.89076 0.60953 0.0
H4210 H 0.72868 0.92671 0.66278 0.0
H4211 H 0.74678 0.90654 0.65068 0.0
H4212 H 0.74631 0.88097 0.59542 0.0
H4213 H 0.7561 0.89788 0.61758 0.0
H4214 H 0.64522 0.92641 0.60562 0.0
H4215 H 0.65375 0.94107 0.62983 0.0
H4216 H 0.64485 0.89168 0.59782 0.0
H4217 H 0.66226 0.87249 0.58422 0.0
C4218 C 0.14753 0.95525 0.64719 0.0
C4219 C 0.12468 0.94778 0.6467 0.0
C4220 C 0.13078 0.93033 0.60963 0.0
C4221 C 0.1531 0.93952 0.60908 0.0
N4222 N 0.18159 0.9637 0.62565 0.0
N4223 N 0.09334 0.9311 0.62622 0.0
C4224 C 0.16125 0.95275 0.62745 0.0
C4225 C 0.1159 0.93641 0.62745 0.0
N4226 N 0.15616 0.96451 0.66659 0.0
N4227 N 0.12415 0.91458 0.59393 0.0
H4228 H 0.0819 0.93388 0.63936 0.0
H4229 H 0.08551 0.92549 0.61142 0.0
H4230 H 0.13447 0.9089 0.58083 0.0
H4231 H 0.10925 0.9052 0.59523 0.0
H4232 H 0.17332 0.96792 0.66894 0.0
H4233 H 0.14627 0.96755 0.68094 0.0
H4234 H 0.18741 0.97542 0.63748 0.0
H4235 H 0.19188 0.96253 0.61133 0.0
C4236 C 0.7958 0.40066 0.39636 0.0
C4237 C 0.80511 0.3785 0.39537 0.0
C4238 C 0.82279 0.38691 0.35878 0.0
C4239 C 0.81381 0.40929 0.35978 0.0
N4240 N 0.79391 0.43857 0.38011 0.0
N4241 N 0.83042 0.3515 0.37802 0.0
C4242 C 0.80104 0.41656 0.37885 0.0
C4243 C 0.81933 0.37187 0.37719 0.0
N4244 N 0.78144 0.40616 0.41372 0.0
N4245 N 0.83465 0.37988 0.34012 0.0
H4246 H 0.82789 0.33964 0.3908 0.0
H4247 H 0.84339 0.34684 0.36702 0.0
H4248 H 0.84011 0.39077 0.32741 0.0
H4249 H 0.83845 0.36301 0.33665 0.0
H4250 H 0.77234 0.42122 0.41466 0.0
H4251 H 0.77757 0.39494 0.42684 0.0
H4252 H 0.78638 0.44572 0.39436 0.0
H4253 H 0.79657 0.45027 0.36714 0.0
C4254 C 0.20429 0.08787 0.86662 0.0
C4255 C 0.18815 0.09412 0.8499 0.0
C4256 C 0.18265 0.13088 0.86842 0.0
C4257 C 0.1974 0.12397 0.88609 0.0
N4258 N 0.21999 0.09505 0.90401 0.0
N4259 N 0.15809 0.11925 0.83782 0.0
C4260 C 0.2075 0.10215 0.88583 0.0
C4261 C 0.17631 0.11503 0.85155 0.0
N4262 N 0.21721 0.06887 0.86365 0.0
N4263 N 0.1746 0.15262 0.86772 0.0
H4264 H 0.15218 0.10777 0.82583 0.0
H4265 H 0.1473 0.13307 0.83984 0.0
H4266 H 0.17808 0.16464 0.88014 0.0
H4267 H 0.16596 0.15934 0.85388 0.0
H4268 H 0.23087 0.06467 0.874 0.0
H4269 H 0.21543 0.05814 0.84972 0.0
H4270 H 0.22567 0.07846 0.90601 0.0
H4271 H 0.22347 0.10546 0.91788 0.0
C4272 C 0.624 0.83768 0.0479 0.0
C4273 C 0.60791 0.84361 0.06478 0.0
C4274 C 0.63061 0.87682 0.07518 0.0
C4275 C 0.64532 0.87238 0.0567 0.0
N4276 N 0.65596 0.84957 0.02461 0.0
N4277 N 0.59408 0.87069 0.09236 0.0
C4278 C 0.64204 0.85302 0.0428 0.0
C4279 C 0.61073 0.86367 0.07783 0.0
N4280 N 0.62194 0.81747 0.03675 0.0
N4281 N 0.63572 0.89345 0.0905 0.0
H4282 H 0.57964 0.86126 0.09591 0.0
H4283 H 0.59376 0.88669 0.09982 0.0
H4284 H 0.64967 0.9041 0.08895 0.0
H4285 H 0.62729 0.89546 0.10588 0.0
H4286 H 0.63416 0.81104 0.02577 0.0
H4287 H 0.60849 0.80634 0.03956 0.0
H4288 H 0.65322 0.83717 0.01237 0.0
H4289 H 0.66981 0.86 0.02107 0.0
C4290 C 0.39811 0.89626 0.32263 0.0
C4291 C 0.38976 0.9008 0.30038 0.0
C4292 C 0.41397 0.87066 0.28514 0.0
C4293 C 0.42179 0.86596 0.30733 0.0
N4294 N 0.42761 0.87921 0.34551 0.0
N4295 N 0.39505 0.89716 0.26002 0.0
C4296 C 0.41618 0.88063 0.32542 0.0
C4297 C 0.39937 0.88949 0.28144 0.0
N4298 N 0.38767 0.90516 0.34134 0.0
N4299 N 0.42028 0.85684 0.26771 0.0
H4300 H 0.38521 0.91151 0.25684 0.0
H4301 H 0.40301 0.89078 0.24562 0.0
H4302 H 0.43256 0.84429 0.26973 0.0
H4303 H 0.41298 0.8574 0.25165 0.0
H4304 H 0.39158 0.90023 0.35783 0.0
H4305 H 0.37352 0.91564 0.3408 0.0
H4306 H 0.42571 0.89099 0.35853 0.0
H4307 H 0.44071 0.86772 0.34833 0.0
C4308 C 0.34946 0.65396 0.56832 0.0
C4309 C 0.34888 0.64107 0.54801 0.0
C4310 C 0.38175 0.66269 0.53432 0.0
C4311 C 0.38577 0.67021 0.5568 0.0
N4312 N 0.3738 0.67144 0.59606 0.0
N4313 N 0.36076 0.63777 0.50909 0.0
C4314 C 0.36958 0.66576 0.57401 0.0
C4315 C 0.36388 0.64694 0.53011 0.0
N4316 N 0.33069 0.65583 0.58171 0.0
N4317 N 0.39468 0.67115 0.51709 0.0
H4318 H 0.34589 0.62929 0.50465 0.0
H4319 H 0.37261 0.63875 0.49607 0.0
H4320 H 0.40696 0.68356 0.51986 0.0
H4321 H 0.392 0.66762 0.50003 0.0
H4322 H 0.33017 0.66615 0.59604 0.0
H4323 H 0.31474 0.6503 0.57653 0.0
H4324 H 0.36358 0.66598 0.6094 0.0
H4325 H 0.38841 0.67983 0.60135 0.0
C4326 C 0.60674 0.6343 0.83166 0.0
C4327 C 0.59338 0.64382 0.81415 0.0
C4328 C 0.60801 0.61577 0.78711 0.0
C4329 C 0.62079 0.60569 0.80487 0.0
N4330 N 0.62953 0.6031 0.84494 0.0
N4331 N 0.57842 0.64244 0.77627 0.0
C4332 C 0.61922 0.61421 0.82741 0.0
C4333 C 0.59311 0.63415 0.79216 0.0
N4334 N 0.60816 0.64495 0.85224 0.0
N4335 N 0.6103 0.60785 0.76546 0.0
H4336 H 0.56753 0.656 0.77952 0.0
H4337 H 0.57577 0.63504 0.76049 0.0
H4338 H 0.62006 0.59366 0.76141 0.0
H4339 H 0.60348 0.61584 0.7513 0.0
H4340 H 0.62021 0.64098 0.86451 0.0
H4341 H 0.59821 0.65886 0.85666 0.0
H4342 H 0.62645 0.60665 0.86194 0.0
H4343 H 0.64018 0.58929 0.84281 0.0
C4344 C 0.63002 0.16568 0.92143 0.0
C4345 C 0.61576 0.16965 0.94025 0.0
C4346 C 0.63938 0.14425 0.9632 0.0
C4347 C 0.65013 0.13649 0.94312 0.0
N4348 N 0.65298 0.13795 0.90216 0.0
N4349 N 0.60729 0.16404 0.97967 0.0
C4350 C 0.6451 0.14697 0.92199 0.0
C4351 C 0.62072 0.15943 0.96141 0.0
N4352 N 0.62884 0.17938 0.90283 0.0
N4353 N 0.64737 0.13761 0.9839 0.0
H4354 H 0.59485 0.17659 0.97916 0.0
H4355 H 0.60804 0.15508 0.99485 0.0
H4356 H 0.66153 0.12718 0.98577 0.0
H4357 H 0.64143 0.14418 0.99916 0.0
H4358 H 0.64028 0.17833 0.88941 0.0
H4359 H 0.61799 0.19328 0.90189 0.0
H4360 H 0.64774 0.14358 0.88626 0.0
H4361 H 0.66267 0.12325 0.9014 0.0
C4362 C 0.10575 0.89085 0.21203 0.0
C4363 C 0.11795 0.89803 0.19257 0.0
C4364 C 0.09336 0.87476 0.16854 0.0
C4365 C 0.08381 0.86473 0.18818 0.0
N4366 N 0.08106 0.86246 0.22878 0.0
N4367 N 0.12626 0.89328 0.15276 0.0
C4368 C 0.08996 0.87267 0.21001 0.0
C4369 C 0.11235 0.88929 0.17087 0.0
N4370 N 0.10884 0.90174 0.23223 0.0
N4371 N 0.0848 0.86994 0.14756 0.0
H4372 H 0.1413 0.90244 0.15399 0.0
H4373 H 0.12436 0.88527 0.13714 0.0
H4374 H 0.07105 0.85921 0.14495 0.0
H4375 H 0.08986 0.87844 0.13293 0.0
H4376 H 0.09894 0.89868 0.24652 0.0
H4377 H 0.12002 0.9153 0.23417 0.0
H4378 H 0.08687 0.86547 0.24517 0.0
H4379 H 0.06837 0.85016 0.22776 0.0
C4380 C 0.36218 0.34989 0.46918 0.0
C4381 C 0.34689 0.35572 0.45152 0.0
C4382 C 0.36757 0.33166 0.42498 0.0
C4383 C 0.38418 0.32751 0.44185 0.0
N4384 N 0.39372 0.3262 0.48142 0.0
N4385 N 0.32831 0.34082 0.41815 0.0
C4386 C 0.38033 0.33461 0.4645 0.0
C4387 C 0.34734 0.34298 0.43114 0.0
N4388 N 0.35905 0.35861 0.49038 0.0
N4389 N 0.37151 0.3262 0.40282 0.0
H4390 H 0.31242 0.34615 0.42375 0.0
H4391 H 0.32767 0.33056 0.40378 0.0
H4392 H 0.38623 0.31824 0.39722 0.0
H4393 H 0.36084 0.33141 0.38973 0.0
H4394 H 0.37103 0.35765 0.50328 0.0
H4395 H 0.34399 0.36658 0.49512 0.0
H4396 H 0.39128 0.32952 0.49856 0.0
H4397 H 0.4062 0.31406 0.47832 0.0
C4398 C 0.89342 0.60661 0.67568 0.0
C4399 C 0.88417 0.60097 0.69718 0.0
C4400 C 0.90956 0.62843 0.71534 0.0
C4401 C 0.91891 0.63375 0.69385 0.0
N4402 N 0.92482 0.62265 0.65484 0.0
N4403 N 0.88747 0.60206 0.73791 0.0
C4404 C 0.91276 0.62085 0.67453 0.0
C4405 C 0.89349 0.61052 0.71721 0.0
N4406 N 0.88267 0.60002 0.65622 0.0
N4407 N 0.91577 0.64086 0.73386 0.0
H4408 H 0.87621 0.58856 0.73982 0.0
H4409 H 0.89519 0.60694 0.75301 0.0
H4410 H 0.92877 0.65285 0.73326 0.0
H4411 H 0.90755 0.63987 0.74945 0.0
H4412 H 0.88739 0.60564 0.64016 0.0
H4413 H 0.86743 0.59111 0.65608 0.0
H4414 H 0.92219 0.61204 0.64097 0.0
H4415 H 0.93907 0.63286 0.65308 0.0
C4416 C 0.54698 0.64365 0.34895 0.0
C4417 C 0.55497 0.64269 0.37162 0.0
C4418 C 0.57523 0.60751 0.36332 0.0
C4419 C 0.56514 0.60697 0.34145 0.0
N4420 N 0.5395 0.62309 0.31405 0.0
N4421 N 0.57453 0.62242 0.40139 0.0
C4422 C 0.55061 0.62476 0.3343 0.0
C4423 C 0.56838 0.6242 0.3791 0.0
N4424 N 0.53603 0.66264 0.34145 0.0
N4425 N 0.5922 0.59264 0.36871 0.0
H4426 H 0.57077 0.63465 0.4135 0.0
H4427 H 0.58185 0.60795 0.40834 0.0
H4428 H 0.59813 0.58033 0.35759 0.0
H4429 H 0.60206 0.59389 0.38329 0.0
H4430 H 0.53195 0.66546 0.32452 0.0
H4431 H 0.53228 0.67632 0.35202 0.0
H4432 H 0.52684 0.63427 0.30893 0.0
H4433 H 0.54177 0.60951 0.30297 0.0
C4434 C 0.62759 0.79942 0.58551 0.0
C4435 C 0.64554 0.81379 0.59266 0.0
C4436 C 0.62582 0.82125 0.62853 0.0
C4437 C 0.60886 0.80545 0.62224 0.0
N4438 N 0.5934 0.77858 0.59578 0.0
N4439 N 0.66257 0.8377 0.62137 0.0
C4440 C 0.60958 0.79438 0.60091 0.0
C4441 C 0.64485 0.82451 0.61427 0.0
N4442 N 0.6279 0.79054 0.56411 0.0
N4443 N 0.62332 0.83382 0.64786 0.0
H4444 H 0.67576 0.84276 0.61087 0.0
H4445 H 0.66486 0.84297 0.63804 0.0
H4446 H 0.61004 0.83149 0.6592 0.0
H4447 H 0.63336 0.8477 0.65201 0.0
H4448 H 0.61449 0.78163 0.55693 0.0
H4449 H 0.6413 0.7931 0.55287 0.0
H4450 H 0.59383 0.76823 0.58153 0.0
H4451 H 0.5799 0.77489 0.60661 0.0
C4452 C 0.45446 0.87082 0.83129 0.0
C4453 C 0.44575 0.89173 0.83942 0.0
C4454 C 0.44805 0.87768 0.8785 0.0
C4455 C 0.45421 0.85603 0.87022 0.0
N4456 N 0.46171 0.83097 0.83889 0.0
N4457 N 0.42908 0.91288 0.87055 0.0
C4458 C 0.45692 0.85228 0.84662 0.0
C4459 C 0.44133 0.89468 0.86298 0.0
N4460 N 0.46117 0.86897 0.80921 0.0
N4461 N 0.44821 0.88207 0.90127 0.0
H4462 H 0.42244 0.92532 0.86 0.0
H4463 H 0.42303 0.9143 0.88708 0.0
H4464 H 0.45177 0.86992 0.91357 0.0
H4465 H 0.4467 0.89836 0.90793 0.0
H4466 H 0.46967 0.85492 0.80276 0.0
H4467 H 0.45996 0.88233 0.79769 0.0
H4468 H 0.46128 0.82647 0.82184 0.0
H4469 H 0.46501 0.81743 0.84977 0.0
C4470 C 0.3696 0.70257 0.08881 0.0
C4471 C 0.35238 0.68744 0.09613 0.0
C4472 C 0.37115 0.68327 0.13291 0.0
C4473 C 0.38924 0.697 0.12504 0.0
N4474 N 0.40765 0.71724 0.09473 0.0
N4475 N 0.33963 0.65918 0.12293 0.0
C4476 C 0.3891 0.70586 0.10269 0.0
C4477 C 0.35391 0.67666 0.1176 0.0
N4478 N 0.36687 0.71447 0.06913 0.0
N4479 N 0.37036 0.67652 0.15508 0.0
H4480 H 0.32726 0.65311 0.11194 0.0
H4481 H 0.3415 0.64905 0.13726 0.0
H4482 H 0.38296 0.68032 0.16681 0.0
H4483 H 0.35629 0.66874 0.16237 0.0
H4484 H 0.37766 0.72748 0.06405 0.0
H4485 H 0.35277 0.71255 0.05864 0.0
H4486 H 0.40966 0.72195 0.07785 0.0
H4487 H 0.42179 0.72073 0.10479 0.0
C4488 C 0.54384 0.34978 0.65341 0.0
C4489 C 0.5493 0.35341 0.63028 0.0
C4490 C 0.55926 0.39282 0.63828 0.0
C4491 C 0.55543 0.3889 0.66185 0.0
N4492 N 0.546 0.36336 0.69228 0.0
N4493 N 0.56633 0.3767 0.60133 0.0
C4494 C 0.54836 0.36723 0.66956 0.0
C4495 C 0.55794 0.3745 0.62286 0.0
N4496 N 0.53371 0.32991 0.65972 0.0
N4497 N 0.56449 0.414 0.6304 0.0
H4498 H 0.56548 0.36389 0.58923 0.0
H4499 H 0.57597 0.39048 0.59596 0.0
H4500 H 0.56888 0.4276 0.64064 0.0
H4501 H 0.56361 0.41843 0.61333 0.0
H4502 H 0.52735 0.3268 0.67587 0.0
H4503 H 0.5301 0.317 0.64819 0.0
H4504 H 0.54332 0.34739 0.69926 0.0
H4505 H 0.5479 0.37608 0.70441 0.0
C4506 C 0.87242 0.80313 0.91449 0.0
C4507 C 0.85343 0.81539 0.90618 0.0
C4508 C 0.87241 0.82078 0.86951 0.0
C4509 C 0.89068 0.80723 0.87727 0.0
N4510 N 0.90832 0.78445 0.90609 0.0
N4511 N 0.83482 0.83577 0.87579 0.0
C4512 C 0.89085 0.79825 0.89957 0.0
C4513 C 0.8533 0.82414 0.88368 0.0
N4514 N 0.87272 0.7961 0.93658 0.0
N4515 N 0.87381 0.83133 0.84889 0.0
H4516 H 0.82171 0.84138 0.88613 0.0
H4517 H 0.83194 0.83936 0.85877 0.0
H4518 H 0.88714 0.82883 0.83763 0.0
H4519 H 0.86264 0.84376 0.8433 0.0
H4520 H 0.88677 0.78902 0.94451 0.0
H4521 H 0.85904 0.7983 0.94755 0.0
H4522 H 0.90882 0.77558 0.9213 0.0
H4523 H 0.92207 0.78079 0.89557 0.0
C4524 C 0.42767 0.13638 0.16959 0.0
C4525 C 0.44274 0.1177 0.17061 0.0
C4526 C 0.47094 0.13887 0.14851 0.0
C4527 C 0.45444 0.15601 0.14482 0.0
N4528 N 0.42417 0.17666 0.16296 0.0
N4529 N 0.48097 0.1039 0.16811 0.0
C4530 C 0.43499 0.15662 0.15893 0.0
C4531 C 0.4652 0.11983 0.16226 0.0
N4532 N 0.40602 0.13453 0.17758 0.0
N4533 N 0.49204 0.14111 0.13929 0.0
H4534 H 0.47724 0.09075 0.17934 0.0
H4535 H 0.49797 0.10452 0.16352 0.0
H4536 H 0.49782 0.1565 0.13278 0.0
H4537 H 0.50404 0.12821 0.13872 0.0
H4538 H 0.39364 0.14677 0.1746 0.0
H4539 H 0.39996 0.12015 0.18585 0.0
H4540 H 0.41074 0.17824 0.17433 0.0
H4541 H 0.43085 0.19212 0.1576 0.0
C4542 C 0.13066 0.70925 0.41337 0.0
C4543 C 0.13942 0.68727 0.4176 0.0
C4544 C 0.11612 0.67174 0.38706 0.0
C4545 C 0.10637 0.69344 0.38356 0.0
N4546 N 0.10086 0.7319 0.39622 0.0
N4547 N 0.13632 0.64677 0.41245 0.0
C4548 C 0.1126 0.71198 0.39757 0.0
C4549 C 0.13061 0.66823 0.40588 0.0
N4550 N 0.13993 0.72752 0.42417 0.0
N4551 N 0.11287 0.65485 0.37151 0.0
H4552 H 0.14675 0.64341 0.42627 0.0
H4553 H 0.12878 0.63227 0.40576 0.0
H4554 H 0.10345 0.65703 0.35674 0.0
H4555 H 0.12155 0.63949 0.37193 0.0
H4556 H 0.13627 0.74424 0.41988 0.0
H4557 H 0.15217 0.72584 0.43684 0.0
H4558 H 0.10317 0.74531 0.40746 0.0
H4559 H 0.0874 0.73434 0.38501 0.0
C4560 C 0.85677 0.52795 0.13993 0.0
C4561 C 0.85837 0.54411 0.15756 0.0
C4562 C 0.83127 0.56874 0.13807 0.0
C4563 C 0.83287 0.55465 0.11861 0.0
N4564 N 0.84558 0.51983 0.10124 0.0
N4565 N 0.83709 0.57183 0.17858 0.0
C4566 C 0.8449 0.53375 0.11974 0.0
C4567 C 0.84245 0.56206 0.1583 0.0
N4568 N 0.86523 0.50665 0.14322 0.0
N4569 N 0.82069 0.58932 0.13686 0.0
H4570 H 0.84311 0.56541 0.1939 0.0
H4571 H 0.82431 0.58387 0.18047 0.0
H4572 H 0.8124 0.59517 0.12242 0.0
H4573 H 0.82167 0.60141 0.14969 0.0
H4574 H 0.86342 0.49342 0.13171 0.0
H4575 H 0.87146 0.5014 0.15891 0.0
H4576 H 0.85633 0.50592 0.0998 0.0
H4577 H 0.83593 0.52277 0.08676 0.0
C4578 C 0.34155 0.45964 0.38079 0.0
C4579 C 0.34002 0.43717 0.38909 0.0
C4580 C 0.36466 0.42359 0.35859 0.0
C4581 C 0.36851 0.4465 0.35184 0.0
N4582 N 0.36064 0.48639 0.3559 0.0
N4583 N 0.35046 0.39774 0.38714 0.0
C4584 C 0.35686 0.46456 0.36274 0.0
C4585 C 0.35141 0.41912 0.37813 0.0
N4586 N 0.32819 0.47611 0.39014 0.0
N4587 N 0.3738 0.40596 0.34659 0.0
H4588 H 0.33967 0.39336 0.40042 0.0
H4589 H 0.36117 0.38455 0.38237 0.0
H4590 H 0.38578 0.40778 0.33383 0.0
H4591 H 0.36875 0.38917 0.3486 0.0
H4592 H 0.32698 0.49257 0.38395 0.0
H4593 H 0.31688 0.47281 0.40333 0.0
H4594 H 0.35481 0.50059 0.36457 0.0
H4595 H 0.37038 0.49044 0.34171 0.0
C4596 C 0.78336 0.58564 0.63069 0.0
C4597 C 0.80579 0.57742 0.63335 0.0
C4598 C 0.81475 0.59069 0.59522 0.0
C4599 C 0.79526 0.60479 0.59577 0.0
N4600 N 0.75734 0.61 0.61003 0.0
N4601 N 0.84304 0.57119 0.6175 0.0
C4602 C 0.77828 0.60043 0.61227 0.0
C4603 C 0.82146 0.57927 0.61527 0.0
N4604 N 0.76697 0.57853 0.64539 0.0
N4605 N 0.82615 0.58729 0.57538 0.0
H4606 H 0.84854 0.56216 0.63164 0.0
H4607 H 0.85583 0.57473 0.60584 0.0
H4608 H 0.81984 0.59292 0.55986 0.0
H4609 H 0.83968 0.57603 0.57386 0.0
H4610 H 0.74991 0.58282 0.64412 0.0
H4611 H 0.77031 0.56631 0.65772 0.0
H4612 H 0.74515 0.61012 0.62278 0.0
H4613 H 0.75199 0.61744 0.59491 0.0
C4614 C 0.65994 0.03943 0.87496 0.0
C4615 C 0.66937 0.06111 0.87921 0.0
C4616 C 0.64429 0.07801 0.85112 0.0
C4617 C 0.63481 0.05631 0.84649 0.0
N4618 N 0.63799 0.01564 0.84956 0.0
N4619 N 0.67639 0.09895 0.86563 0.0
C4620 C 0.644 0.03672 0.85705 0.0
C4621 C 0.66368 0.07962 0.86516 0.0
N4622 N 0.66606 0.02156 0.88832 0.0
N4623 N 0.63368 0.0973 0.84393 0.0
H4624 H 0.69078 0.10067 0.87572 0.0
H4625 H 0.674 0.11226 0.85426 0.0
H4626 H 0.61829 0.09718 0.83534 0.0
H4627 H 0.6387 0.11349 0.8489 0.0
H4628 H 0.65782 0.00595 0.88811 0.0
H4629 H 0.67911 0.0228 0.9002 0.0
H4630 H 0.64555 0.00077 0.85532 0.0
H4631 H 0.62696 0.01311 0.83597 0.0
C4632 C 0.6747 0.41302 0.12084 0.0
C4633 C 0.69413 0.41961 0.13337 0.0
C4634 C 0.71742 0.3938 0.11052 0.0
C4635 C 0.69734 0.38408 0.10149 0.0
N4636 N 0.65636 0.38234 0.10092 0.0
N4637 N 0.73427 0.41704 0.14 0.0
C4638 C 0.67583 0.39334 0.10709 0.0
C4639 C 0.71564 0.41033 0.128 0.0
N4640 N 0.65496 0.42503 0.12252 0.0
N4641 N 0.73807 0.38768 0.10198 0.0
H4642 H 0.73368 0.43035 0.15165 0.0
H4643 H 0.74994 0.40897 0.13903 0.0
H4644 H 0.7399 0.37604 0.0888 0.0
H4645 H 0.75318 0.39563 0.10646 0.0
H4646 H 0.64097 0.42202 0.11217 0.0
H4647 H 0.65331 0.43963 0.13225 0.0
H4648 H 0.64033 0.38708 0.10659 0.0
H4649 H 0.65626 0.36693 0.09231 0.0
C4650 C 0.1462 0.42917 0.14809 0.0
C4651 C 0.13724 0.45113 0.15293 0.0
C4652 C 0.16055 0.46728 0.12255 0.0
C4653 C 0.16915 0.4454 0.11775 0.0
N4654 N 0.17641 0.4074 0.13084 0.0
N4655 N 0.14127 0.49168 0.14945 0.0
C4656 C 0.16428 0.42708 0.13238 0.0
C4657 C 0.14611 0.47043 0.1416 0.0
N4658 N 0.13634 0.41002 0.15672 0.0
N4659 N 0.166 0.48495 0.10864 0.0
H4660 H 0.13161 0.4945 0.16398 0.0
H4661 H 0.14871 0.50634 0.14302 0.0
H4662 H 0.17809 0.48339 0.09583 0.0
H4663 H 0.15809 0.50072 0.10935 0.0
H4664 H 0.14075 0.39373 0.15155 0.0
H4665 H 0.1221 0.40996 0.16709 0.0
H4666 H 0.17503 0.3943 0.1426 0.0
H4667 H 0.18953 0.40509 0.11926 0.0
C4668 C 0.777 0.89512 0.88137 0.0
C4669 C 0.79517 0.88738 0.89514 0.0
C4670 C 0.82045 0.91494 0.8769 0.0
C4671 C 0.8036 0.91932 0.86043 0.0
N4672 N 0.76573 0.91356 0.84636 0.0
N4673 N 0.83572 0.88709 0.9025 0.0
C4674 C 0.78176 0.90948 0.86257 0.0
C4675 C 0.81727 0.89676 0.89227 0.0
N4676 N 0.75521 0.88925 0.88662 0.0
N4677 N 0.83985 0.92758 0.87746 0.0
H4678 H 0.83498 0.87256 0.91245 0.0
H4679 H 0.85233 0.89185 0.89886 0.0
H4680 H 0.84311 0.94073 0.86615 0.0
H4681 H 0.85166 0.92644 0.89054 0.0
H4682 H 0.74111 0.89597 0.8784 0.0
H4683 H 0.75111 0.87936 0.90068 0.0
H4684 H 0.75046 0.90475 0.84538 0.0
H4685 H 0.76824 0.92515 0.83323 0.0
C4686 C 0.18776 0.6311 0.37368 0.0
C4687 C 0.20054 0.62309 0.39236 0.0
C4688 C 0.20399 0.58575 0.37433 0.0
C4689 C 0.18956 0.59326 0.35659 0.0
N4690 N 0.1634 0.62148 0.3423 0.0
N4691 N 0.21838 0.59229 0.41237 0.0
C4692 C 0.1803 0.61552 0.35703 0.0
C4693 C 0.20787 0.60021 0.3933 0.0
N4694 N 0.18264 0.65363 0.37177 0.0
N4695 N 0.21479 0.56533 0.37259 0.0
H4696 H 0.22244 0.60271 0.42607 0.0
H4697 H 0.2218 0.5752 0.41518 0.0
H4698 H 0.21261 0.55446 0.35883 0.0
H4699 H 0.2273 0.55996 0.38381 0.0
H4700 H 0.17569 0.66081 0.35722 0.0
H4701 H 0.18707 0.66566 0.38388 0.0
H4702 H 0.15423 0.63651 0.34353 0.0
H4703 H 0.15673 0.61052 0.33023 0.0
loop_
_geom_bond_atom_site_label_1
_geom_bond_atom_site_label_2
_geom_bond_distance
_geom_bond_site_symmetry_2
_ccdc_geom_bond_type
In0 O1 2.294 . S
In0 O2 2.326 . S
In0 O6 2.266 . S
In0 O7 2.326 . S
In0 O8 2.266 . S
In0 O9 2.326 . S
In0 O11 2.294 . S
In0 O12 2.326 . S
O1 In0 2.294 . S
O1 C10 1.240 . S
O2 In0 2.326 . S
O2 C10 1.252 . S
C3 O6 1.252 . S
C3 O7 1.260 . S
C4 O11 1.240 . S
C4 O12 1.252 . S
C5 O8 1.252 . S
C5 O9 1.260 . S
O6 In0 2.266 . S
O6 C3 1.252 . S
O7 In0 2.326 . S
O7 C3 1.260 . S
O8 In0 2.266 . S
O8 C5 1.252 . S
O9 In0 2.326 . S
O9 C5 1.260 . S
C10 O1 1.240 . S
C10 O2 1.252 . S
O11 In0 2.294 . S
O11 C4 1.240 . S
O12 In0 2.326 . S
O12 C4 1.252 . S
In13 O14 2.294 . S
In13 O15 2.326 . S
In13 O19 2.266 . S
In13 O20 2.326 . S
In13 O21 2.266 . S
In13 O22 2.326 . S
In13 O24 2.294 . S
In13 O25 2.326 . S
O14 In13 2.294 . S
O14 C23 1.240 . S
O15 In13 2.326 . S
O15 C23 1.252 . S
C16 O19 1.252 . S
C16 O20 1.260 . S
C17 O24 1.240 . S
C17 O25 1.252 . S
C18 O21 1.252 . S
C18 O22 1.260 . S
O19 In13 2.266 . S
O19 C16 1.252 . S
O20 In13 2.326 . S
O20 C16 1.260 . S
O21 In13 2.266 . S
O21 C18 1.252 . S
O22 In13 2.326 . S
O22 C18 1.260 . S
C23 O14 1.240 . S
C23 O15 1.252 . S
O24 In13 2.294 . S
O24 C17 1.240 . S
O25 In13 2.326 . S
O25 C17 1.252 . S
In26 O27 2.294 . S
In26 O28 2.326 . S
In26 O32 2.266 . S
In26 O33 2.326 . S
In26 O34 2.266 . S
In26 O35 2.326 . S
In26 O37 2.294 . S
In26 O38 2.326 . S
O27 In26 2.294 . S
O27 C36 1.240 . S
O28 In26 2.326 . S
O28 C36 1.252 . S
C29 O32 1.252 . S
C29 O33 1.260 . S
C30 O37 1.240 . S
C30 O38 1.252 . S
C31 O34 1.252 . S
C31 O35 1.260 . S
O32 In26 2.266 . S
O32 C29 1.252 . S
O33 In26 2.326 . S
O33 C29 1.260 . S
O34 In26 2.266 . S
O34 C31 1.252 . S
O35 In26 2.326 . S
O35 C31 1.260 . S
C36 O27 1.240 . S
C36 O28 1.252 . S
O37 In26 2.294 . S
O37 C30 1.240 . S
O38 In26 2.326 . S
O38 C30 1.252 . S
In39 O40 2.294 . S
In39 O41 2.326 . S
In39 O45 2.266 . S
In39 O46 2.326 . S
In39 O47 2.266 . S
In39 O48 2.326 . S
In39 O50 2.294 . S
In39 O51 2.326 . S
O40 In39 2.294 . S
O40 C49 1.240 . S
O41 In39 2.326 . S
O41 C49 1.252 . S
C42 O45 1.252 . S
C42 O46 1.260 . S
C43 O50 1.240 . S
C43 O51 1.252 . S
C44 O47 1.252 . S
C44 O48 1.260 . S
O45 In39 2.266 . S
O45 C42 1.252 . S
O46 In39 2.326 . S
O46 C42 1.260 . S
O47 In39 2.266 . S
O47 C44 1.252 . S
O48 In39 2.326 . S
O48 C44 1.260 . S
C49 O40 1.240 . S
C49 O41 1.252 . S
O50 In39 2.294 . S
O50 C43 1.240 . S
O51 In39 2.326 . S
O51 C43 1.252 . S
In52 O53 2.294 . S
In52 O54 2.326 . S
In52 O58 2.266 . S
In52 O59 2.326 . S
In52 O60 2.266 . S
In52 O61 2.326 . S
In52 O63 2.294 . S
In52 O64 2.326 . S
O53 In52 2.294 . S
O53 C62 1.240 . S
O54 In52 2.326 . S
O54 C62 1.252 . S
C55 O58 1.252 . S
C55 O59 1.260 . S
C56 O63 1.240 . S
C56 O64 1.252 . S
C57 O60 1.252 . S
C57 O61 1.260 . S
O58 In52 2.266 . S
O58 C55 1.252 . S
O59 In52 2.326 . S
O59 C55 1.260 . S
O60 In52 2.266 . S
O60 C57 1.252 . S
O61 In52 2.326 . S
O61 C57 1.260 . S
C62 O53 1.240 . S
C62 O54 1.252 . S
O63 In52 2.294 . S
O63 C56 1.240 . S
O64 In52 2.326 . S
O64 C56 1.252 . S
In65 O66 2.294 . S
In65 O67 2.326 . S
In65 O71 2.266 . S
In65 O72 2.326 . S
In65 O73 2.266 . S
In65 O74 2.326 . S
In65 O76 2.294 . S
In65 O77 2.326 . S
O66 In65 2.294 . S
O66 C75 1.240 . S
O67 In65 2.326 . S
O67 C75 1.252 . S
C68 O71 1.252 . S
C68 O72 1.260 . S
C69 O76 1.240 . S
C69 O77 1.252 . S
C70 O73 1.252 . S
C70 O74 1.260 . S
O71 In65 2.266 . S
O71 C68 1.252 . S
O72 In65 2.326 . S
O72 C68 1.260 . S
O73 In65 2.266 . S
O73 C70 1.252 . S
O74 In65 2.326 . S
O74 C70 1.260 . S
C75 O66 1.240 . S
C75 O67 1.252 . S
O76 In65 2.294 . S
O76 C69 1.240 . S
O77 In65 2.326 . S
O77 C69 1.252 . S
In78 O79 2.294 . S
In78 O80 2.326 . S
In78 O84 2.266 . S
In78 O85 2.326 . S
In78 O86 2.266 . S
In78 O87 2.326 . S
In78 O89 2.294 . S
In78 O90 2.326 . S
O79 In78 2.294 . S
O79 C88 1.240 . S
O80 In78 2.326 . S
O80 C88 1.252 . S
C81 O84 1.252 . S
C81 O85 1.260 . S
C82 O89 1.240 . S
C82 O90 1.252 . S
C83 O86 1.252 . S
C83 O87 1.260 . S
O84 In78 2.266 . S
O84 C81 1.252 . S
O85 In78 2.326 . S
O85 C81 1.260 . S
O86 In78 2.266 . S
O86 C83 1.252 . S
O87 In78 2.326 . S
O87 C83 1.260 . S
C88 O79 1.240 . S
C88 O80 1.252 . S
O89 In78 2.294 . S
O89 C82 1.240 . S
O90 In78 2.326 . S
O90 C82 1.252 . S
In91 O92 2.294 . S
In91 O93 2.326 . S
In91 O97 2.266 . S
In91 O98 2.326 . S
In91 O99 2.266 . S
In91 O100 2.326 . S
In91 O102 2.294 . S
In91 O103 2.326 . S
O92 In91 2.294 . S
O92 C101 1.240 . S
O93 In91 2.326 . S
O93 C101 1.252 . S
C94 O97 1.252 . S
C94 O98 1.260 . S
C95 O102 1.240 . S
C95 O103 1.252 . S
C96 O99 1.252 . S
C96 O100 1.260 . S
O97 In91 2.266 . S
O97 C94 1.252 . S
O98 In91 2.326 . S
O98 C94 1.260 . S
O99 In91 2.266 . S
O99 C96 1.252 . S
O100 In91 2.326 . S
O100 C96 1.260 . S
C101 O92 1.240 . S
C101 O93 1.252 . S
O102 In91 2.294 . S
O102 C95 1.240 . S
O103 In91 2.326 . S
O103 C95 1.252 . S
In104 O105 2.294 . S
In104 O106 2.326 . S
In104 O110 2.266 . S
In104 O111 2.326 . S
In104 O112 2.266 . S
In104 O113 2.326 . S
In104 O115 2.294 . S
In104 O116 2.326 . S
O105 In104 2.294 . S
O105 C114 1.240 . S
O106 In104 2.326 . S
O106 C114 1.252 . S
C107 O110 1.252 . S
C107 O111 1.260 . S
C108 O115 1.240 . S
C108 O116 1.252 . S
C109 O112 1.252 . S
C109 O113 1.260 . S
O110 In104 2.266 . S
O110 C107 1.252 . S
O111 In104 2.326 . S
O111 C107 1.260 . S
O112 In104 2.266 . S
O112 C109 1.252 . S
O113 In104 2.326 . S
O113 C109 1.260 . S
C114 O105 1.240 . S
C114 O106 1.252 . S
O115 In104 2.294 . S
O115 C108 1.240 . S
O116 In104 2.326 . S
O116 C108 1.252 . S
In117 O118 2.294 . S
In117 O119 2.326 . S
In117 O123 2.266 . S
In117 O124 2.326 . S
In117 O125 2.266 . S
In117 O126 2.326 . S
In117 O128 2.294 . S
In117 O129 2.326 . S
O118 In117 2.294 . S
O118 C127 1.240 . S
O119 In117 2.326 . S
O119 C127 1.252 . S
C120 O123 1.252 . S
C120 O124 1.260 . S
C121 O128 1.240 . S
C121 O129 1.252 . S
C122 O125 1.252 . S
C122 O126 1.260 . S
O123 In117 2.266 . S
O123 C120 1.252 . S
O124 In117 2.326 . S
O124 C120 1.260 . S
O125 In117 2.266 . S
O125 C122 1.252 . S
O126 In117 2.326 . S
O126 C122 1.260 . S
C127 O118 1.240 . S
C127 O119 1.252 . S
O128 In117 2.294 . S
O128 C121 1.240 . S
O129 In117 2.326 . S
O129 C121 1.252 . S
In130 O131 2.294 . S
In130 O132 2.326 . S
In130 O136 2.266 . S
In130 O137 2.326 . S
In130 O138 2.266 . S
In130 O139 2.326 . S
In130 O141 2.294 . S
In130 O142 2.326 . S
O131 In130 2.294 . S
O131 C140 1.240 . S
O132 In130 2.326 . S
O132 C140 1.252 . S
C133 O136 1.252 . S
C133 O137 1.260 . S
C134 O141 1.240 . S
C134 O142 1.252 . S
C135 O138 1.252 . S
C135 O139 1.260 . S
O136 In130 2.266 . S
O136 C133 1.252 . S
O137 In130 2.326 . S
O137 C133 1.260 . S
O138 In130 2.266 . S
O138 C135 1.252 . S
O139 In130 2.326 . S
O139 C135 1.260 . S
C140 O131 1.240 . S
C140 O132 1.252 . S
O141 In130 2.294 . S
O141 C134 1.240 . S
O142 In130 2.326 . S
O142 C134 1.252 . S
In143 O144 2.294 . S
In143 O145 2.326 . S
In143 O149 2.266 . S
In143 O150 2.326 . S
In143 O151 2.266 . S
In143 O152 2.326 . S
In143 O154 2.294 . S
In143 O155 2.326 . S
O144 In143 2.294 . S
O144 C153 1.240 . S
O145 In143 2.326 . S
O145 C153 1.252 . S
C146 O149 1.252 . S
C146 O150 1.260 . S
C147 O154 1.240 . S
C147 O155 1.252 . S
C148 O151 1.252 . S
C148 O152 1.260 . S
O149 In143 2.266 . S
O149 C146 1.252 . S
O150 In143 2.326 . S
O150 C146 1.260 . S
O151 In143 2.266 . S
O151 C148 1.252 . S
O152 In143 2.326 . S
O152 C148 1.260 . S
C153 O144 1.240 . S
C153 O145 1.252 . S
O154 In143 2.294 . S
O154 C147 1.240 . S
O155 In143 2.326 . S
O155 C147 1.252 . S
In156 O157 2.294 . S
In156 O158 2.326 . S
In156 O162 2.266 . S
In156 O163 2.326 . S
In156 O164 2.266 . S
In156 O165 2.326 . S
In156 O167 2.294 . S
In156 O168 2.326 . S
O157 In156 2.294 . S
O157 C166 1.240 . S
O158 In156 2.326 . S
O158 C166 1.252 . S
C159 O162 1.252 . S
C159 O163 1.260 . S
C160 O167 1.240 . S
C160 O168 1.252 . S
C161 O164 1.252 . S
C161 O165 1.260 . S
O162 In156 2.266 . S
O162 C159 1.252 . S
O163 In156 2.326 . S
O163 C159 1.260 . S
O164 In156 2.266 . S
O164 C161 1.252 . S
O165 In156 2.326 . S
O165 C161 1.260 . S
C166 O157 1.240 . S
C166 O158 1.252 . S
O167 In156 2.294 . S
O167 C160 1.240 . S
O168 In156 2.326 . S
O168 C160 1.252 . S
In169 O170 2.294 . S
In169 O171 2.326 . S
In169 O175 2.266 . S
In169 O176 2.326 . S
In169 O177 2.266 . S
In169 O178 2.326 . S
In169 O180 2.294 . S
In169 O181 2.326 . S
O170 In169 2.294 . S
O170 C179 1.240 . S
O171 In169 2.326 . S
O171 C179 1.252 . S
C172 O175 1.252 . S
C172 O176 1.260 . S
C173 O180 1.240 . S
C173 O181 1.252 . S
C174 O177 1.252 . S
C174 O178 1.260 . S
O175 In169 2.266 . S
O175 C172 1.252 . S
O176 In169 2.326 . S
O176 C172 1.260 . S
O177 In169 2.266 . S
O177 C174 1.252 . S
O178 In169 2.326 . S
O178 C174 1.260 . S
C179 O170 1.240 . S
C179 O171 1.252 . S
O180 In169 2.294 . S
O180 C173 1.240 . S
O181 In169 2.326 . S
O181 C173 1.252 . S
In182 O183 2.294 . S
In182 O184 2.326 . S
In182 O188 2.266 . S
In182 O189 2.326 . S
In182 O190 2.266 . S
In182 O191 2.326 . S
In182 O193 2.294 . S
In182 O194 2.326 . S
O183 In182 2.294 . S
O183 C192 1.240 . S
O184 In182 2.326 . S
O184 C192 1.252 . S
C185 O188 1.252 . S
C185 O189 1.260 . S
C186 O193 1.240 . S
C186 O194 1.252 . S
C187 O190 1.252 . S
C187 O191 1.260 . S
O188 In182 2.266 . S
O188 C185 1.252 . S
O189 In182 2.326 . S
O189 C185 1.260 . S
O190 In182 2.266 . S
O190 C187 1.252 . S
O191 In182 2.326 . S
O191 C187 1.260 . S
C192 O183 1.240 . S
C192 O184 1.252 . S
O193 In182 2.294 . S
O193 C186 1.240 . S
O194 In182 2.326 . S
O194 C186 1.252 . S
In195 O196 2.294 . S
In195 O197 2.326 . S
In195 O201 2.266 . S
In195 O202 2.326 . S
In195 O203 2.266 . S
In195 O204 2.326 . S
In195 O206 2.294 . S
In195 O207 2.326 . S
O196 In195 2.294 . S
O196 C205 1.240 . S
O197 In195 2.326 . S
O197 C205 1.252 . S
C198 O201 1.252 . S
C198 O202 1.260 . S
C199 O206 1.240 . S
C199 O207 1.252 . S
C200 O203 1.252 . S
C200 O204 1.260 . S
O201 In195 2.266 . S
O201 C198 1.252 . S
O202 In195 2.326 . S
O202 C198 1.260 . S
O203 In195 2.266 . S
O203 C200 1.252 . S
O204 In195 2.326 . S
O204 C200 1.260 . S
C205 O196 1.240 . S
C205 O197 1.252 . S
O206 In195 2.294 . S
O206 C199 1.240 . S
O207 In195 2.326 . S
O207 C199 1.252 . S
In208 O209 2.294 . S
In208 O210 2.326 . S
In208 O214 2.266 . S
In208 O215 2.326 . S
In208 O216 2.266 . S
In208 O217 2.326 . S
In208 O219 2.294 . S
In208 O220 2.326 . S
O209 In208 2.294 . S
O209 C218 1.240 . S
O210 In208 2.326 . S
O210 C218 1.252 . S
C211 O214 1.252 . S
C211 O215 1.260 . S
C212 O219 1.240 . S
C212 O220 1.252 . S
C213 O216 1.252 . S
C213 O217 1.260 . S
O214 In208 2.266 . S
O214 C211 1.252 . S
O215 In208 2.326 . S
O215 C211 1.260 . S
O216 In208 2.266 . S
O216 C213 1.252 . S
O217 In208 2.326 . S
O217 C213 1.260 . S
C218 O209 1.240 . S
C218 O210 1.252 . S
O219 In208 2.294 . S
O219 C212 1.240 . S
O220 In208 2.326 . S
O220 C212 1.252 . S
In221 O222 2.294 . S
In221 O223 2.326 . S
In221 O227 2.266 . S
In221 O228 2.326 . S
In221 O229 2.266 . S
In221 O230 2.326 . S
In221 O232 2.294 . S
In221 O233 2.326 . S
O222 In221 2.294 . S
O222 C231 1.240 . S
O223 In221 2.326 . S
O223 C231 1.252 . S
C224 O227 1.252 . S
C224 O228 1.260 . S
C225 O232 1.240 . S
C225 O233 1.252 . S
C226 O229 1.252 . S
C226 O230 1.260 . S
O227 In221 2.266 . S
O227 C224 1.252 . S
O228 In221 2.326 . S
O228 C224 1.260 . S
O229 In221 2.266 . S
O229 C226 1.252 . S
O230 In221 2.326 . S
O230 C226 1.260 . S
C231 O222 1.240 . S
C231 O223 1.252 . S
O232 In221 2.294 . S
O232 C225 1.240 . S
O233 In221 2.326 . S
O233 C225 1.252 . S
In234 O235 2.294 . S
In234 O236 2.326 . S
In234 O240 2.266 . S
In234 O241 2.326 . S
In234 O242 2.266 . S
In234 O243 2.326 . S
In234 O245 2.294 . S
In234 O246 2.326 . S
O235 In234 2.294 . S
O235 C244 1.240 . S
O236 In234 2.326 . S
O236 C244 1.252 . S
C237 O240 1.252 . S
C237 O241 1.260 . S
C238 O245 1.240 . S
C238 O246 1.252 . S
C239 O242 1.252 . S
C239 O243 1.260 . S
O240 In234 2.266 . S
O240 C237 1.252 . S
O241 In234 2.326 . S
O241 C237 1.260 . S
O242 In234 2.266 . S
O242 C239 1.252 . S
O243 In234 2.326 . S
O243 C239 1.260 . S
C244 O235 1.240 . S
C244 O236 1.252 . S
O245 In234 2.294 . S
O245 C238 1.240 . S
O246 In234 2.326 . S
O246 C238 1.252 . S
In247 O248 2.294 . S
In247 O249 2.326 . S
In247 O253 2.266 . S
In247 O254 2.326 . S
In247 O255 2.266 . S
In247 O256 2.326 . S
In247 O258 2.294 . S
In247 O259 2.326 . S
O248 In247 2.294 . S
O248 C257 1.240 . S
O249 In247 2.326 . S
O249 C257 1.252 . S
C250 O253 1.252 . S
C250 O254 1.260 . S
C251 O258 1.240 . S
C251 O259 1.252 . S
C252 O255 1.252 . S
C252 O256 1.260 . S
O253 In247 2.266 . S
O253 C250 1.252 . S
O254 In247 2.326 . S
O254 C250 1.260 . S
O255 In247 2.266 . S
O255 C252 1.252 . S
O256 In247 2.326 . S
O256 C252 1.260 . S
C257 O248 1.240 . S
C257 O249 1.252 . S
O258 In247 2.294 . S
O258 C251 1.240 . S
O259 In247 2.326 . S
O259 C251 1.252 . S
In260 O261 2.294 . S
In260 O262 2.326 . S
In260 O266 2.266 . S
In260 O267 2.326 . S
In260 O268 2.266 . S
In260 O269 2.326 . S
In260 O271 2.294 . S
In260 O272 2.326 . S
O261 In260 2.294 . S
O261 C270 1.240 . S
O262 In260 2.326 . S
O262 C270 1.252 . S
C263 O266 1.252 . S
C263 O267 1.260 . S
C264 O271 1.240 . S
C264 O272 1.252 . S
C265 O268 1.252 . S
C265 O269 1.260 . S
O266 In260 2.266 . S
O266 C263 1.252 . S
O267 In260 2.326 . S
O267 C263 1.260 . S
O268 In260 2.266 . S
O268 C265 1.252 . S
O269 In260 2.326 . S
O269 C265 1.260 . S
C270 O261 1.240 . S
C270 O262 1.252 . S
O271 In260 2.294 . S
O271 C264 1.240 . S
O272 In260 2.326 . S
O272 C264 1.252 . S
In273 O274 2.294 . S
In273 O275 2.326 . S
In273 O279 2.266 . S
In273 O280 2.326 . S
In273 O281 2.266 . S
In273 O282 2.326 . S
In273 O284 2.294 . S
In273 O285 2.326 . S
O274 In273 2.294 . S
O274 C283 1.240 . S
O275 In273 2.326 . S
O275 C283 1.252 . S
C276 O279 1.252 . S
C276 O280 1.260 . S
C277 O284 1.240 . S
C277 O285 1.252 . S
C278 O281 1.252 . S
C278 O282 1.260 . S
O279 In273 2.266 . S
O279 C276 1.252 . S
O280 In273 2.326 . S
O280 C276 1.260 . S
O281 In273 2.266 . S
O281 C278 1.252 . S
O282 In273 2.326 . S
O282 C278 1.260 . S
C283 O274 1.240 . S
C283 O275 1.252 . S
O284 In273 2.294 . S
O284 C277 1.240 . S
O285 In273 2.326 . S
O285 C277 1.252 . S
In286 O287 2.294 . S
In286 O288 2.326 . S
In286 O292 2.266 . S
In286 O293 2.326 . S
In286 O294 2.266 . S
In286 O295 2.326 . S
In286 O297 2.294 . S
In286 O298 2.326 . S
O287 In286 2.294 . S
O287 C296 1.240 . S
O288 In286 2.326 . S
O288 C296 1.252 . S
C289 O292 1.252 . S
C289 O293 1.260 . S
C290 O297 1.240 . S
C290 O298 1.252 . S
C291 O294 1.252 . S
C291 O295 1.260 . S
O292 In286 2.266 . S
O292 C289 1.252 . S
O293 In286 2.326 . S
O293 C289 1.260 . S
O294 In286 2.266 . S
O294 C291 1.252 . S
O295 In286 2.326 . S
O295 C291 1.260 . S
C296 O287 1.240 . S
C296 O288 1.252 . S
O297 In286 2.294 . S
O297 C290 1.240 . S
O298 In286 2.326 . S
O298 C290 1.252 . S
In299 O300 2.294 . S
In299 O301 2.326 . S
In299 O305 2.266 . S
In299 O306 2.326 . S
In299 O307 2.266 . S
In299 O308 2.326 . S
In299 O310 2.294 . S
In299 O311 2.326 . S
O300 In299 2.294 . S
O300 C309 1.240 . S
O301 In299 2.326 . S
O301 C309 1.252 . S
C302 O305 1.252 . S
C302 O306 1.260 . S
C303 O310 1.240 . S
C303 O311 1.252 . S
C304 O307 1.252 . S
C304 O308 1.260 . S
O305 In299 2.266 . S
O305 C302 1.252 . S
O306 In299 2.326 . S
O306 C302 1.260 . S
O307 In299 2.266 . S
O307 C304 1.252 . S
O308 In299 2.326 . S
O308 C304 1.260 . S
C309 O300 1.240 . S
C309 O301 1.252 . S
O310 In299 2.294 . S
O310 C303 1.240 . S
O311 In299 2.326 . S
O311 C303 1.252 . S
In312 O313 2.294 . S
In312 O314 2.326 . S
In312 O318 2.266 . S
In312 O319 2.326 . S
In312 O320 2.266 . S
In312 O321 2.326 . S
In312 O323 2.294 . S
In312 O324 2.326 . S
O313 In312 2.294 . S
O313 C322 1.240 . S
O314 In312 2.326 . S
O314 C322 1.252 . S
C315 O318 1.252 . S
C315 O319 1.260 . S
C316 O323 1.240 . S
C316 O324 1.252 . S
C317 O320 1.252 . S
C317 O321 1.260 . S
O318 In312 2.266 . S
O318 C315 1.252 . S
O319 In312 2.326 . S
O319 C315 1.260 . S
O320 In312 2.266 . S
O320 C317 1.252 . S
O321 In312 2.326 . S
O321 C317 1.260 . S
C322 O313 1.240 . S
C322 O314 1.252 . S
O323 In312 2.294 . S
O323 C316 1.240 . S
O324 In312 2.326 . S
O324 C316 1.252 . S
In325 O326 2.294 . S
In325 O327 2.326 . S
In325 O331 2.266 . S
In325 O332 2.326 . S
In325 O333 2.266 . S
In325 O334 2.326 . S
In325 O336 2.294 . S
In325 O337 2.326 . S
O326 In325 2.294 . S
O326 C335 1.240 . S
O327 In325 2.326 . S
O327 C335 1.252 . S
C328 O331 1.252 . S
C328 O332 1.260 . S
C329 O336 1.240 . S
C329 O337 1.252 . S
C330 O333 1.252 . S
C330 O334 1.260 . S
O331 In325 2.266 . S
O331 C328 1.252 . S
O332 In325 2.326 . S
O332 C328 1.260 . S
O333 In325 2.266 . S
O333 C330 1.252 . S
O334 In325 2.326 . S
O334 C330 1.260 . S
C335 O326 1.240 . S
C335 O327 1.252 . S
O336 In325 2.294 . S
O336 C329 1.240 . S
O337 In325 2.326 . S
O337 C329 1.252 . S
In338 O339 2.294 . S
In338 O340 2.326 . S
In338 O344 2.266 . S
In338 O345 2.326 . S
In338 O346 2.266 . S
In338 O347 2.326 . S
In338 O349 2.294 . S
In338 O350 2.326 . S
O339 In338 2.294 . S
O339 C348 1.240 . S
O340 In338 2.326 . S
O340 C348 1.252 . S
C341 O344 1.252 . S
C341 O345 1.260 . S
C342 O349 1.240 . S
C342 O350 1.252 . S
C343 O346 1.252 . S
C343 O347 1.260 . S
O344 In338 2.266 . S
O344 C341 1.252 . S
O345 In338 2.326 . S
O345 C341 1.260 . S
O346 In338 2.266 . S
O346 C343 1.252 . S
O347 In338 2.326 . S
O347 C343 1.260 . S
C348 O339 1.240 . S
C348 O340 1.252 . S
O349 In338 2.294 . S
O349 C342 1.240 . S
O350 In338 2.326 . S
O350 C342 1.252 . S
In351 O352 2.294 . S
In351 O353 2.326 . S
In351 O357 2.266 . S
In351 O358 2.326 . S
In351 O359 2.266 . S
In351 O360 2.326 . S
In351 O362 2.294 . S
In351 O363 2.326 . S
O352 In351 2.294 . S
O352 C361 1.240 . S
O353 In351 2.326 . S
O353 C361 1.252 . S
C354 O357 1.252 . S
C354 O358 1.260 . S
C355 O362 1.240 . S
C355 O363 1.252 . S
C356 O359 1.252 . S
C356 O360 1.260 . S
O357 In351 2.266 . S
O357 C354 1.252 . S
O358 In351 2.326 . S
O358 C354 1.260 . S
O359 In351 2.266 . S
O359 C356 1.252 . S
O360 In351 2.326 . S
O360 C356 1.260 . S
C361 O352 1.240 . S
C361 O353 1.252 . S
O362 In351 2.294 . S
O362 C355 1.240 . S
O363 In351 2.326 . S
O363 C355 1.252 . S
In364 O365 2.294 . S
In364 O366 2.326 . S
In364 O370 2.266 . S
In364 O371 2.326 . S
In364 O372 2.266 . S
In364 O373 2.326 . S
In364 O375 2.294 . S
In364 O376 2.326 . S
O365 In364 2.294 . S
O365 C374 1.240 . S
O366 In364 2.326 . S
O366 C374 1.252 . S
C367 O370 1.252 . S
C367 O371 1.260 . S
C368 O375 1.240 . S
C368 O376 1.252 . S
C369 O372 1.252 . S
C369 O373 1.260 . S
O370 In364 2.266 . S
O370 C367 1.252 . S
O371 In364 2.326 . S
O371 C367 1.260 . S
O372 In364 2.266 . S
O372 C369 1.252 . S
O373 In364 2.326 . S
O373 C369 1.260 . S
C374 O365 1.240 . S
C374 O366 1.252 . S
O375 In364 2.294 . S
O375 C368 1.240 . S
O376 In364 2.326 . S
O376 C368 1.252 . S
In377 O378 2.294 . S
In377 O379 2.326 . S
In377 O383 2.266 . S
In377 O384 2.326 . S
In377 O385 2.266 . S
In377 O386 2.326 . S
In377 O388 2.294 . S
In377 O389 2.326 . S
O378 In377 2.294 . S
O378 C387 1.240 . S
O379 In377 2.326 . S
O379 C387 1.252 . S
C380 O383 1.252 . S
C380 O384 1.260 . S
C381 O388 1.240 . S
C381 O389 1.252 . S
C382 O385 1.252 . S
C382 O386 1.260 . S
O383 In377 2.266 . S
O383 C380 1.252 . S
O384 In377 2.326 . S
O384 C380 1.260 . S
O385 In377 2.266 . S
O385 C382 1.252 . S
O386 In377 2.326 . S
O386 C382 1.260 . S
C387 O378 1.240 . S
C387 O379 1.252 . S
O388 In377 2.294 . S
O388 C381 1.240 . S
O389 In377 2.326 . S
O389 C381 1.252 . S
In390 O391 2.294 . S
In390 O392 2.326 . S
In390 O396 2.266 . S
In390 O397 2.326 . S
In390 O398 2.266 . S
In390 O399 2.326 . S
In390 O401 2.294 . S
In390 O402 2.326 . S
O391 In390 2.294 . S
O391 C400 1.240 . S
O392 In390 2.326 . S
O392 C400 1.252 . S
C393 O396 1.252 . S
C393 O397 1.260 . S
C394 O401 1.240 . S
C394 O402 1.252 . S
C395 O398 1.252 . S
C395 O399 1.260 . S
O396 In390 2.266 . S
O396 C393 1.252 . S
O397 In390 2.326 . S
O397 C393 1.260 . S
O398 In390 2.266 . S
O398 C395 1.252 . S
O399 In390 2.326 . S
O399 C395 1.260 . S
C400 O391 1.240 . S
C400 O392 1.252 . S
O401 In390 2.294 . S
O401 C394 1.240 . S
O402 In390 2.326 . S
O402 C394 1.252 . S
In403 O404 2.294 . S
In403 O405 2.326 . S
In403 O409 2.266 . S
In403 O410 2.326 . S
In403 O411 2.266 . S
In403 O412 2.326 . S
In403 O414 2.294 . S
In403 O415 2.326 . S
O404 In403 2.294 . S
O404 C413 1.240 . S
O405 In403 2.326 . S
O405 C413 1.252 . S
C406 O409 1.252 . S
C406 O410 1.260 . S
C407 O414 1.240 . S
C407 O415 1.252 . S
C408 O411 1.252 . S
C408 O412 1.260 . S
O409 In403 2.266 . S
O409 C406 1.252 . S
O410 In403 2.326 . S
O410 C406 1.260 . S
O411 In403 2.266 . S
O411 C408 1.252 . S
O412 In403 2.326 . S
O412 C408 1.260 . S
C413 O404 1.240 . S
C413 O405 1.252 . S
O414 In403 2.294 . S
O414 C407 1.240 . S
O415 In403 2.326 . S
O415 C407 1.252 . S
In416 O417 2.294 . S
In416 O418 2.326 . S
In416 O422 2.266 . S
In416 O423 2.326 . S
In416 O424 2.266 . S
In416 O425 2.326 . S
In416 O427 2.294 . S
In416 O428 2.326 . S
O417 In416 2.294 . S
O417 C426 1.240 . S
O418 In416 2.326 . S
O418 C426 1.252 . S
C419 O422 1.252 . S
C419 O423 1.260 . S
C420 O427 1.240 . S
C420 O428 1.252 . S
C421 O424 1.252 . S
C421 O425 1.260 . S
O422 In416 2.266 . S
O422 C419 1.252 . S
O423 In416 2.326 . S
O423 C419 1.260 . S
O424 In416 2.266 . S
O424 C421 1.252 . S
O425 In416 2.326 . S
O425 C421 1.260 . S
C426 O417 1.240 . S
C426 O418 1.252 . S
O427 In416 2.294 . S
O427 C420 1.240 . S
O428 In416 2.326 . S
O428 C420 1.252 . S
In429 O430 2.294 . S
In429 O431 2.326 . S
In429 O435 2.266 . S
In429 O436 2.326 . S
In429 O437 2.266 . S
In429 O438 2.326 . S
In429 O440 2.294 . S
In429 O441 2.326 . S
O430 In429 2.294 . S
O430 C439 1.240 . S
O431 In429 2.326 . S
O431 C439 1.252 . S
C432 O435 1.252 . S
C432 O436 1.260 . S
C433 O440 1.240 . S
C433 O441 1.252 . S
C434 O437 1.252 . S
C434 O438 1.260 . S
O435 In429 2.266 . S
O435 C432 1.252 . S
O436 In429 2.326 . S
O436 C432 1.260 . S
O437 In429 2.266 . S
O437 C434 1.252 . S
O438 In429 2.326 . S
O438 C434 1.260 . S
C439 O430 1.240 . S
C439 O431 1.252 . S
O440 In429 2.294 . S
O440 C433 1.240 . S
O441 In429 2.326 . S
O441 C433 1.252 . S
In442 O443 2.294 . S
In442 O444 2.326 . S
In442 O448 2.266 . S
In442 O449 2.326 . S
In442 O450 2.266 . S
In442 O451 2.326 . S
In442 O453 2.294 . S
In442 O454 2.326 . S
O443 In442 2.294 . S
O443 C452 1.240 . S
O444 In442 2.326 . S
O444 C452 1.252 . S
C445 O448 1.252 . S
C445 O449 1.260 . S
C446 O453 1.240 . S
C446 O454 1.252 . S
C447 O450 1.252 . S
C447 O451 1.260 . S
O448 In442 2.266 . S
O448 C445 1.252 . S
O449 In442 2.326 . S
O449 C445 1.260 . S
O450 In442 2.266 . S
O450 C447 1.252 . S
O451 In442 2.326 . S
O451 C447 1.260 . S
C452 O443 1.240 . S
C452 O444 1.252 . S
O453 In442 2.294 . S
O453 C446 1.240 . S
O454 In442 2.326 . S
O454 C446 1.252 . S
In455 O456 2.294 . S
In455 O457 2.326 . S
In455 O461 2.266 . S
In455 O462 2.326 . S
In455 O463 2.266 . S
In455 O464 2.326 . S
In455 O466 2.294 . S
In455 O467 2.326 . S
O456 In455 2.294 . S
O456 C465 1.240 . S
O457 In455 2.326 . S
O457 C465 1.252 . S
C458 O461 1.252 . S
C458 O462 1.260 . S
C459 O466 1.240 . S
C459 O467 1.252 . S
C460 O463 1.252 . S
C460 O464 1.260 . S
O461 In455 2.266 . S
O461 C458 1.252 . S
O462 In455 2.326 . S
O462 C458 1.260 . S
O463 In455 2.266 . S
O463 C460 1.252 . S
O464 In455 2.326 . S
O464 C460 1.260 . S
C465 O456 1.240 . S
C465 O457 1.252 . S
O466 In455 2.294 . S
O466 C459 1.240 . S
O467 In455 2.326 . S
O467 C459 1.252 . S
In468 O469 2.294 . S
In468 O470 2.326 . S
In468 O474 2.266 . S
In468 O475 2.326 . S
In468 O476 2.266 . S
In468 O477 2.326 . S
In468 O479 2.294 . S
In468 O480 2.326 . S
O469 In468 2.294 . S
O469 C478 1.240 . S
O470 In468 2.326 . S
O470 C478 1.252 . S
C471 O474 1.252 . S
C471 O475 1.260 . S
C472 O479 1.240 . S
C472 O480 1.252 . S
C473 O476 1.252 . S
C473 O477 1.260 . S
O474 In468 2.266 . S
O474 C471 1.252 . S
O475 In468 2.326 . S
O475 C471 1.260 . S
O476 In468 2.266 . S
O476 C473 1.252 . S
O477 In468 2.326 . S
O477 C473 1.260 . S
C478 O469 1.240 . S
C478 O470 1.252 . S
O479 In468 2.294 . S
O479 C472 1.240 . S
O480 In468 2.326 . S
O480 C472 1.252 . S
In481 O482 2.294 . S
In481 O483 2.326 . S
In481 O487 2.266 . S
In481 O488 2.326 . S
In481 O489 2.266 . S
In481 O490 2.326 . S
In481 O492 2.294 . S
In481 O493 2.326 . S
O482 In481 2.294 . S
O482 C491 1.240 . S
O483 In481 2.326 . S
O483 C491 1.252 . S
C484 O487 1.252 . S
C484 O488 1.260 . S
C485 O492 1.240 . S
C485 O493 1.252 . S
C486 O489 1.252 . S
C486 O490 1.260 . S
O487 In481 2.266 . S
O487 C484 1.252 . S
O488 In481 2.326 . S
O488 C484 1.260 . S
O489 In481 2.266 . S
O489 C486 1.252 . S
O490 In481 2.326 . S
O490 C486 1.260 . S
C491 O482 1.240 . S
C491 O483 1.252 . S
O492 In481 2.294 . S
O492 C485 1.240 . S
O493 In481 2.326 . S
O493 C485 1.252 . S
In494 O495 2.294 . S
In494 O496 2.326 . S
In494 O500 2.266 . S
In494 O501 2.326 . S
In494 O502 2.266 . S
In494 O503 2.326 . S
In494 O505 2.294 . S
In494 O506 2.326 . S
O495 In494 2.294 . S
O495 C504 1.240 . S
O496 In494 2.326 . S
O496 C504 1.252 . S
C497 O500 1.252 . S
C497 O501 1.260 . S
C498 O505 1.240 . S
C498 O506 1.252 . S
C499 O502 1.252 . S
C499 O503 1.260 . S
O500 In494 2.266 . S
O500 C497 1.252 . S
O501 In494 2.326 . S
O501 C497 1.260 . S
O502 In494 2.266 . S
O502 C499 1.252 . S
O503 In494 2.326 . S
O503 C499 1.260 . S
C504 O495 1.240 . S
C504 O496 1.252 . S
O505 In494 2.294 . S
O505 C498 1.240 . S
O506 In494 2.326 . S
O506 C498 1.252 . S
In507 O508 2.294 . S
In507 O509 2.326 . S
In507 O513 2.266 . S
In507 O514 2.326 . S
In507 O515 2.266 . S
In507 O516 2.326 . S
In507 O518 2.294 . S
In507 O519 2.326 . S
O508 In507 2.294 . S
O508 C517 1.240 . S
O509 In507 2.326 . S
O509 C517 1.252 . S
C510 O513 1.252 . S
C510 O514 1.260 . S
C511 O518 1.240 . S
C511 O519 1.252 . S
C512 O515 1.252 . S
C512 O516 1.260 . S
O513 In507 2.266 . S
O513 C510 1.252 . S
O514 In507 2.326 . S
O514 C510 1.260 . S
O515 In507 2.266 . S
O515 C512 1.252 . S
O516 In507 2.326 . S
O516 C512 1.260 . S
C517 O508 1.240 . S
C517 O509 1.252 . S
O518 In507 2.294 . S
O518 C511 1.240 . S
O519 In507 2.326 . S
O519 C511 1.252 . S
In520 O521 2.294 . S
In520 O522 2.326 . S
In520 O526 2.266 . S
In520 O527 2.326 . S
In520 O528 2.266 . S
In520 O529 2.326 . S
In520 O531 2.294 . S
In520 O532 2.326 . S
O521 In520 2.294 . S
O521 C530 1.240 . S
O522 In520 2.326 . S
O522 C530 1.252 . S
C523 O526 1.252 . S
C523 O527 1.260 . S
C524 O531 1.240 . S
C524 O532 1.252 . S
C525 O528 1.252 . S
C525 O529 1.260 . S
O526 In520 2.266 . S
O526 C523 1.252 . S
O527 In520 2.326 . S
O527 C523 1.260 . S
O528 In520 2.266 . S
O528 C525 1.252 . S
O529 In520 2.326 . S
O529 C525 1.260 . S
C530 O521 1.240 . S
C530 O522 1.252 . S
O531 In520 2.294 . S
O531 C524 1.240 . S
O532 In520 2.326 . S
O532 C524 1.252 . S
In533 O534 2.294 . S
In533 O535 2.326 . S
In533 O539 2.266 . S
In533 O540 2.326 . S
In533 O541 2.266 . S
In533 O542 2.326 . S
In533 O544 2.294 . S
In533 O545 2.326 . S
O534 In533 2.294 . S
O534 C543 1.240 . S
O535 In533 2.326 . S
O535 C543 1.252 . S
C536 O539 1.252 . S
C536 O540 1.260 . S
C537 O544 1.240 . S
C537 O545 1.252 . S
C538 O541 1.252 . S
C538 O542 1.260 . S
O539 In533 2.266 . S
O539 C536 1.252 . S
O540 In533 2.326 . S
O540 C536 1.260 . S
O541 In533 2.266 . S
O541 C538 1.252 . S
O542 In533 2.326 . S
O542 C538 1.260 . S
C543 O534 1.240 . S
C543 O535 1.252 . S
O544 In533 2.294 . S
O544 C537 1.240 . S
O545 In533 2.326 . S
O545 C537 1.252 . S
In546 O547 2.294 . S
In546 O548 2.326 . S
In546 O552 2.266 . S
In546 O553 2.326 . S
In546 O554 2.266 . S
In546 O555 2.326 . S
In546 O557 2.294 . S
In546 O558 2.326 . S
O547 In546 2.294 . S
O547 C556 1.240 . S
O548 In546 2.326 . S
O548 C556 1.252 . S
C549 O552 1.252 . S
C549 O553 1.260 . S
C550 O557 1.240 . S
C550 O558 1.252 . S
C551 O554 1.252 . S
C551 O555 1.260 . S
O552 In546 2.266 . S
O552 C549 1.252 . S
O553 In546 2.326 . S
O553 C549 1.260 . S
O554 In546 2.266 . S
O554 C551 1.252 . S
O555 In546 2.326 . S
O555 C551 1.260 . S
C556 O547 1.240 . S
C556 O548 1.252 . S
O557 In546 2.294 . S
O557 C550 1.240 . S
O558 In546 2.326 . S
O558 C550 1.252 . S
In559 O560 2.294 . S
In559 O561 2.326 . S
In559 O565 2.266 . S
In559 O566 2.326 . S
In559 O567 2.266 . S
In559 O568 2.326 . S
In559 O570 2.294 . S
In559 O571 2.326 . S
O560 In559 2.294 . S
O560 C569 1.240 . S
O561 In559 2.326 . S
O561 C569 1.252 . S
C562 O565 1.252 . S
C562 O566 1.260 . S
C563 O570 1.240 . S
C563 O571 1.252 . S
C564 O567 1.252 . S
C564 O568 1.260 . S
O565 In559 2.266 . S
O565 C562 1.252 . S
O566 In559 2.326 . S
O566 C562 1.260 . S
O567 In559 2.266 . S
O567 C564 1.252 . S
O568 In559 2.326 . S
O568 C564 1.260 . S
C569 O560 1.240 . S
C569 O561 1.252 . S
O570 In559 2.294 . S
O570 C563 1.240 . S
O571 In559 2.326 . S
O571 C563 1.252 . S
In572 O573 2.294 . S
In572 O574 2.326 . S
In572 O578 2.266 . S
In572 O579 2.326 . S
In572 O580 2.266 . S
In572 O581 2.326 . S
In572 O583 2.294 . S
In572 O584 2.326 . S
O573 In572 2.294 . S
O573 C582 1.240 . S
O574 In572 2.326 . S
O574 C582 1.252 . S
C575 O578 1.252 . S
C575 O579 1.260 . S
C576 O583 1.240 . S
C576 O584 1.252 . S
C577 O580 1.252 . S
C577 O581 1.260 . S
O578 In572 2.266 . S
O578 C575 1.252 . S
O579 In572 2.326 . S
O579 C575 1.260 . S
O580 In572 2.266 . S
O580 C577 1.252 . S
O581 In572 2.326 . S
O581 C577 1.260 . S
C582 O573 1.240 . S
C582 O574 1.252 . S
O583 In572 2.294 . S
O583 C576 1.240 . S
O584 In572 2.326 . S
O584 C576 1.252 . S
In585 O586 2.294 . S
In585 O587 2.326 . S
In585 O591 2.266 . S
In585 O592 2.326 . S
In585 O593 2.266 . S
In585 O594 2.326 . S
In585 O596 2.294 . S
In585 O597 2.326 . S
O586 In585 2.294 . S
O586 C595 1.240 . S
O587 In585 2.326 . S
O587 C595 1.252 . S
C588 O591 1.252 . S
C588 O592 1.260 . S
C589 O596 1.240 . S
C589 O597 1.252 . S
C590 O593 1.252 . S
C590 O594 1.260 . S
O591 In585 2.266 . S
O591 C588 1.252 . S
O592 In585 2.326 . S
O592 C588 1.260 . S
O593 In585 2.266 . S
O593 C590 1.252 . S
O594 In585 2.326 . S
O594 C590 1.260 . S
C595 O586 1.240 . S
C595 O587 1.252 . S
O596 In585 2.294 . S
O596 C589 1.240 . S
O597 In585 2.326 . S
O597 C589 1.252 . S
In598 O599 2.294 . S
In598 O600 2.326 . S
In598 O604 2.266 . S
In598 O605 2.326 . S
In598 O606 2.266 . S
In598 O607 2.326 . S
In598 O609 2.294 . S
In598 O610 2.326 . S
O599 In598 2.294 . S
O599 C608 1.240 . S
O600 In598 2.326 . S
O600 C608 1.252 . S
C601 O604 1.252 . S
C601 O605 1.260 . S
C602 O609 1.240 . S
C602 O610 1.252 . S
C603 O606 1.252 . S
C603 O607 1.260 . S
O604 In598 2.266 . S
O604 C601 1.252 . S
O605 In598 2.326 . S
O605 C601 1.260 . S
O606 In598 2.266 . S
O606 C603 1.252 . S
O607 In598 2.326 . S
O607 C603 1.260 . S
C608 O599 1.240 . S
C608 O600 1.252 . S
O609 In598 2.294 . S
O609 C602 1.240 . S
O610 In598 2.326 . S
O610 C602 1.252 . S
In611 O612 2.294 . S
In611 O613 2.326 . S
In611 O617 2.266 . S
In611 O618 2.326 . S
In611 O619 2.266 . S
In611 O620 2.326 . S
In611 O622 2.294 . S
In611 O623 2.326 . S
O612 In611 2.294 . S
O612 C621 1.240 . S
O613 In611 2.326 . S
O613 C621 1.252 . S
C614 O617 1.252 . S
C614 O618 1.260 . S
C615 O622 1.240 . S
C615 O623 1.252 . S
C616 O619 1.252 . S
C616 O620 1.260 . S
O617 In611 2.266 . S
O617 C614 1.252 . S
O618 In611 2.326 . S
O618 C614 1.260 . S
O619 In611 2.266 . S
O619 C616 1.252 . S
O620 In611 2.326 . S
O620 C616 1.260 . S
C621 O612 1.240 . S
C621 O613 1.252 . S
O622 In611 2.294 . S
O622 C615 1.240 . S
O623 In611 2.326 . S
O623 C615 1.252 . S
In624 O625 2.294 . S
In624 O626 2.326 . S
In624 O630 2.266 . S
In624 O631 2.326 . S
In624 O632 2.266 . S
In624 O633 2.326 . S
In624 O635 2.294 . S
In624 O636 2.326 . S
O625 In624 2.294 . S
O625 C634 1.240 . S
O626 In624 2.326 . S
O626 C634 1.252 . S
C627 O630 1.252 . S
C627 O631 1.260 . S
C628 O635 1.240 . S
C628 O636 1.252 . S
C629 O632 1.252 . S
C629 O633 1.260 . S
O630 In624 2.266 . S
O630 C627 1.252 . S
O631 In624 2.326 . S
O631 C627 1.260 . S
O632 In624 2.266 . S
O632 C629 1.252 . S
O633 In624 2.326 . S
O633 C629 1.260 . S
C634 O625 1.240 . S
C634 O626 1.252 . S
O635 In624 2.294 . S
O635 C628 1.240 . S
O636 In624 2.326 . S
O636 C628 1.252 . S
In637 O638 2.294 . S
In637 O639 2.326 . S
In637 O643 2.266 . S
In637 O644 2.326 . S
In637 O645 2.266 . S
In637 O646 2.326 . S
In637 O648 2.294 . S
In637 O649 2.326 . S
O638 In637 2.294 . S
O638 C647 1.240 . S
O639 In637 2.326 . S
O639 C647 1.252 . S
C640 O643 1.252 . S
C640 O644 1.260 . S
C641 O648 1.240 . S
C641 O649 1.252 . S
C642 O645 1.252 . S
C642 O646 1.260 . S
O643 In637 2.266 . S
O643 C640 1.252 . S
O644 In637 2.326 . S
O644 C640 1.260 . S
O645 In637 2.266 . S
O645 C642 1.252 . S
O646 In637 2.326 . S
O646 C642 1.260 . S
C647 O638 1.240 . S
C647 O639 1.252 . S
O648 In637 2.294 . S
O648 C641 1.240 . S
O649 In637 2.326 . S
O649 C641 1.252 . S
In650 O651 2.294 . S
In650 O652 2.326 . S
In650 O656 2.266 . S
In650 O657 2.326 . S
In650 O658 2.266 . S
In650 O659 2.326 . S
In650 O661 2.294 . S
In650 O662 2.326 . S
O651 In650 2.294 . S
O651 C660 1.240 . S
O652 In650 2.326 . S
O652 C660 1.252 . S
C653 O656 1.252 . S
C653 O657 1.260 . S
C654 O661 1.240 . S
C654 O662 1.252 . S
C655 O658 1.252 . S
C655 O659 1.260 . S
O656 In650 2.266 . S
O656 C653 1.252 . S
O657 In650 2.326 . S
O657 C653 1.260 . S
O658 In650 2.266 . S
O658 C655 1.252 . S
O659 In650 2.326 . S
O659 C655 1.260 . S
C660 O651 1.240 . S
C660 O652 1.252 . S
O661 In650 2.294 . S
O661 C654 1.240 . S
O662 In650 2.326 . S
O662 C654 1.252 . S
In663 O664 2.294 . S
In663 O665 2.326 . S
In663 O669 2.266 . S
In663 O670 2.326 . S
In663 O671 2.266 . S
In663 O672 2.326 . S
In663 O674 2.294 . S
In663 O675 2.326 . S
O664 In663 2.294 . S
O664 C673 1.240 . S
O665 In663 2.326 . S
O665 C673 1.252 . S
C666 O669 1.252 . S
C666 O670 1.260 . S
C667 O674 1.240 . S
C667 O675 1.252 . S
C668 O671 1.252 . S
C668 O672 1.260 . S
O669 In663 2.266 . S
O669 C666 1.252 . S
O670 In663 2.326 . S
O670 C666 1.260 . S
O671 In663 2.266 . S
O671 C668 1.252 . S
O672 In663 2.326 . S
O672 C668 1.260 . S
C673 O664 1.240 . S
C673 O665 1.252 . S
O674 In663 2.294 . S
O674 C667 1.240 . S
O675 In663 2.326 . S
O675 C667 1.252 . S
In676 O677 2.294 . S
In676 O678 2.326 . S
In676 O682 2.266 . S
In676 O683 2.326 . S
In676 O684 2.266 . S
In676 O685 2.326 . S
In676 O687 2.294 . S
In676 O688 2.326 . S
O677 In676 2.294 . S
O677 C686 1.240 . S
O678 In676 2.326 . S
O678 C686 1.252 . S
C679 O682 1.252 . S
C679 O683 1.260 . S
C680 O687 1.240 . S
C680 O688 1.252 . S
C681 O684 1.252 . S
C681 O685 1.260 . S
O682 In676 2.266 . S
O682 C679 1.252 . S
O683 In676 2.326 . S
O683 C679 1.260 . S
O684 In676 2.266 . S
O684 C681 1.252 . S
O685 In676 2.326 . S
O685 C681 1.260 . S
C686 O677 1.240 . S
C686 O678 1.252 . S
O687 In676 2.294 . S
O687 C680 1.240 . S
O688 In676 2.326 . S
O688 C680 1.252 . S
In689 O690 2.294 . S
In689 O691 2.326 . S
In689 O695 2.266 . S
In689 O696 2.326 . S
In689 O697 2.266 . S
In689 O698 2.326 . S
In689 O700 2.294 . S
In689 O701 2.326 . S
O690 In689 2.294 . S
O690 C699 1.240 . S
O691 In689 2.326 . S
O691 C699 1.252 . S
C692 O695 1.252 . S
C692 O696 1.260 . S
C693 O700 1.240 . S
C693 O701 1.252 . S
C694 O697 1.252 . S
C694 O698 1.260 . S
O695 In689 2.266 . S
O695 C692 1.252 . S
O696 In689 2.326 . S
O696 C692 1.260 . S
O697 In689 2.266 . S
O697 C694 1.252 . S
O698 In689 2.326 . S
O698 C694 1.260 . S
C699 O690 1.240 . S
C699 O691 1.252 . S
O700 In689 2.294 . S
O700 C693 1.240 . S
O701 In689 2.326 . S
O701 C693 1.252 . S
In702 O703 2.294 . S
In702 O704 2.326 . S
In702 O708 2.266 . S
In702 O709 2.326 . S
In702 O710 2.266 . S
In702 O711 2.326 . S
In702 O713 2.294 . S
In702 O714 2.326 . S
O703 In702 2.294 . S
O703 C712 1.240 . S
O704 In702 2.326 . S
O704 C712 1.252 . S
C705 O708 1.252 . S
C705 O709 1.260 . S
C706 O713 1.240 . S
C706 O714 1.252 . S
C707 O710 1.252 . S
C707 O711 1.260 . S
O708 In702 2.266 . S
O708 C705 1.252 . S
O709 In702 2.326 . S
O709 C705 1.260 . S
O710 In702 2.266 . S
O710 C707 1.252 . S
O711 In702 2.326 . S
O711 C707 1.260 . S
C712 O703 1.240 . S
C712 O704 1.252 . S
O713 In702 2.294 . S
O713 C706 1.240 . S
O714 In702 2.326 . S
O714 C706 1.252 . S
In715 O716 2.294 . S
In715 O717 2.326 . S
In715 O721 2.266 . S
In715 O722 2.326 . S
In715 O723 2.266 . S
In715 O724 2.326 . S
In715 O726 2.294 . S
In715 O727 2.326 . S
O716 In715 2.294 . S
O716 C725 1.240 . S
O717 In715 2.326 . S
O717 C725 1.252 . S
C718 O721 1.252 . S
C718 O722 1.260 . S
C719 O726 1.240 . S
C719 O727 1.252 . S
C720 O723 1.252 . S
C720 O724 1.260 . S
O721 In715 2.266 . S
O721 C718 1.252 . S
O722 In715 2.326 . S
O722 C718 1.260 . S
O723 In715 2.266 . S
O723 C720 1.252 . S
O724 In715 2.326 . S
O724 C720 1.260 . S
C725 O716 1.240 . S
C725 O717 1.252 . S
O726 In715 2.294 . S
O726 C719 1.240 . S
O727 In715 2.326 . S
O727 C719 1.252 . S
In728 O729 2.294 . S
In728 O730 2.326 . S
In728 O734 2.266 . S
In728 O735 2.326 . S
In728 O736 2.266 . S
In728 O737 2.326 . S
In728 O739 2.294 . S
In728 O740 2.326 . S
O729 In728 2.294 . S
O729 C738 1.240 . S
O730 In728 2.326 . S
O730 C738 1.252 . S
C731 O734 1.252 . S
C731 O735 1.260 . S
C732 O739 1.240 . S
C732 O740 1.252 . S
C733 O736 1.252 . S
C733 O737 1.260 . S
O734 In728 2.266 . S
O734 C731 1.252 . S
O735 In728 2.326 . S
O735 C731 1.260 . S
O736 In728 2.266 . S
O736 C733 1.252 . S
O737 In728 2.326 . S
O737 C733 1.260 . S
C738 O729 1.240 . S
C738 O730 1.252 . S
O739 In728 2.294 . S
O739 C732 1.240 . S
O740 In728 2.326 . S
O740 C732 1.252 . S
In741 O742 2.294 . S
In741 O743 2.326 . S
In741 O747 2.266 . S
In741 O748 2.326 . S
In741 O749 2.266 . S
In741 O750 2.326 . S
In741 O752 2.294 . S
In741 O753 2.326 . S
O742 In741 2.294 . S
O742 C751 1.240 . S
O743 In741 2.326 . S
O743 C751 1.252 . S
C744 O747 1.252 . S
C744 O748 1.260 . S
C745 O752 1.240 . S
C745 O753 1.252 . S
C746 O749 1.252 . S
C746 O750 1.260 . S
O747 In741 2.266 . S
O747 C744 1.252 . S
O748 In741 2.326 . S
O748 C744 1.260 . S
O749 In741 2.266 . S
O749 C746 1.252 . S
O750 In741 2.326 . S
O750 C746 1.260 . S
C751 O742 1.240 . S
C751 O743 1.252 . S
O752 In741 2.294 . S
O752 C745 1.240 . S
O753 In741 2.326 . S
O753 C745 1.252 . S
In754 O755 2.294 . S
In754 O756 2.326 . S
In754 O760 2.266 . S
In754 O761 2.326 . S
In754 O762 2.266 . S
In754 O763 2.326 . S
In754 O765 2.294 . S
In754 O766 2.326 . S
O755 In754 2.294 . S
O755 C764 1.240 . S
O756 In754 2.326 . S
O756 C764 1.252 . S
C757 O760 1.252 . S
C757 O761 1.260 . S
C758 O765 1.240 . S
C758 O766 1.252 . S
C759 O762 1.252 . S
C759 O763 1.260 . S
O760 In754 2.266 . S
O760 C757 1.252 . S
O761 In754 2.326 . S
O761 C757 1.260 . S
O762 In754 2.266 . S
O762 C759 1.252 . S
O763 In754 2.326 . S
O763 C759 1.260 . S
C764 O755 1.240 . S
C764 O756 1.252 . S
O765 In754 2.294 . S
O765 C758 1.240 . S
O766 In754 2.326 . S
O766 C758 1.252 . S
In767 O768 2.294 . S
In767 O769 2.326 . S
In767 O773 2.266 . S
In767 O774 2.326 . S
In767 O775 2.266 . S
In767 O776 2.326 . S
In767 O778 2.294 . S
In767 O779 2.326 . S
O768 In767 2.294 . S
O768 C777 1.240 . S
O769 In767 2.326 . S
O769 C777 1.252 . S
C770 O773 1.252 . S
C770 O774 1.260 . S
C771 O778 1.240 . S
C771 O779 1.252 . S
C772 O775 1.252 . S
C772 O776 1.260 . S
O773 In767 2.266 . S
O773 C770 1.252 . S
O774 In767 2.326 . S
O774 C770 1.260 . S
O775 In767 2.266 . S
O775 C772 1.252 . S
O776 In767 2.326 . S
O776 C772 1.260 . S
C777 O768 1.240 . S
C777 O769 1.252 . S
O778 In767 2.294 . S
O778 C771 1.240 . S
O779 In767 2.326 . S
O779 C771 1.252 . S
In780 O781 2.294 . S
In780 O782 2.326 . S
In780 O786 2.266 . S
In780 O787 2.326 . S
In780 O788 2.266 . S
In780 O789 2.326 . S
In780 O791 2.294 . S
In780 O792 2.326 . S
O781 In780 2.294 . S
O781 C790 1.240 . S
O782 In780 2.326 . S
O782 C790 1.252 . S
C783 O786 1.252 . S
C783 O787 1.260 . S
C784 O791 1.240 . S
C784 O792 1.252 . S
C785 O788 1.252 . S
C785 O789 1.260 . S
O786 In780 2.266 . S
O786 C783 1.252 . S
O787 In780 2.326 . S
O787 C783 1.260 . S
O788 In780 2.266 . S
O788 C785 1.252 . S
O789 In780 2.326 . S
O789 C785 1.260 . S
C790 O781 1.240 . S
C790 O782 1.252 . S
O791 In780 2.294 . S
O791 C784 1.240 . S
O792 In780 2.326 . S
O792 C784 1.252 . S
In793 O794 2.294 . S
In793 O795 2.326 . S
In793 O799 2.266 . S
In793 O800 2.326 . S
In793 O801 2.266 . S
In793 O802 2.326 . S
In793 O804 2.294 . S
In793 O805 2.326 . S
O794 In793 2.294 . S
O794 C803 1.240 . S
O795 In793 2.326 . S
O795 C803 1.252 . S
C796 O799 1.252 . S
C796 O800 1.260 . S
C797 O804 1.240 . S
C797 O805 1.252 . S
C798 O801 1.252 . S
C798 O802 1.260 . S
O799 In793 2.266 . S
O799 C796 1.252 . S
O800 In793 2.326 . S
O800 C796 1.260 . S
O801 In793 2.266 . S
O801 C798 1.252 . S
O802 In793 2.326 . S
O802 C798 1.260 . S
C803 O794 1.240 . S
C803 O795 1.252 . S
O804 In793 2.294 . S
O804 C797 1.240 . S
O805 In793 2.326 . S
O805 C797 1.252 . S
In806 O807 2.294 . S
In806 O808 2.326 . S
In806 O812 2.266 . S
In806 O813 2.326 . S
In806 O814 2.266 . S
In806 O815 2.326 . S
In806 O817 2.294 . S
In806 O818 2.326 . S
O807 In806 2.294 . S
O807 C816 1.240 . S
O808 In806 2.326 . S
O808 C816 1.252 . S
C809 O812 1.252 . S
C809 O813 1.260 . S
C810 O817 1.240 . S
C810 O818 1.252 . S
C811 O814 1.252 . S
C811 O815 1.260 . S
O812 In806 2.266 . S
O812 C809 1.252 . S
O813 In806 2.326 . S
O813 C809 1.260 . S
O814 In806 2.266 . S
O814 C811 1.252 . S
O815 In806 2.326 . S
O815 C811 1.260 . S
C816 O807 1.240 . S
C816 O808 1.252 . S
O817 In806 2.294 . S
O817 C810 1.240 . S
O818 In806 2.326 . S
O818 C810 1.252 . S
In819 O820 2.294 . S
In819 O821 2.326 . S
In819 O825 2.266 . S
In819 O826 2.326 . S
In819 O827 2.266 . S
In819 O828 2.326 . S
In819 O830 2.294 . S
In819 O831 2.326 . S
O820 In819 2.294 . S
O820 C829 1.240 . S
O821 In819 2.326 . S
O821 C829 1.252 . S
C822 O825 1.252 . S
C822 O826 1.260 . S
C823 O830 1.240 . S
C823 O831 1.252 . S
C824 O827 1.252 . S
C824 O828 1.260 . S
O825 In819 2.266 . S
O825 C822 1.252 . S
O826 In819 2.326 . S
O826 C822 1.260 . S
O827 In819 2.266 . S
O827 C824 1.252 . S
O828 In819 2.326 . S
O828 C824 1.260 . S
C829 O820 1.240 . S
C829 O821 1.252 . S
O830 In819 2.294 . S
O830 C823 1.240 . S
O831 In819 2.326 . S
O831 C823 1.252 . S
In832 O833 2.294 . S
In832 O834 2.326 . S
In832 O838 2.266 . S
In832 O839 2.326 . S
In832 O840 2.266 . S
In832 O841 2.326 . S
In832 O843 2.294 . S
In832 O844 2.326 . S
O833 In832 2.294 . S
O833 C842 1.240 . S
O834 In832 2.326 . S
O834 C842 1.252 . S
C835 O838 1.252 . S
C835 O839 1.260 . S
C836 O843 1.240 . S
C836 O844 1.252 . S
C837 O840 1.252 . S
C837 O841 1.260 . S
O838 In832 2.266 . S
O838 C835 1.252 . S
O839 In832 2.326 . S
O839 C835 1.260 . S
O840 In832 2.266 . S
O840 C837 1.252 . S
O841 In832 2.326 . S
O841 C837 1.260 . S
C842 O833 1.240 . S
C842 O834 1.252 . S
O843 In832 2.294 . S
O843 C836 1.240 . S
O844 In832 2.326 . S
O844 C836 1.252 . S
In845 O846 2.294 . S
In845 O847 2.326 . S
In845 O851 2.266 . S
In845 O852 2.326 . S
In845 O853 2.266 . S
In845 O854 2.326 . S
In845 O856 2.294 . S
In845 O857 2.326 . S
O846 In845 2.294 . S
O846 C855 1.240 . S
O847 In845 2.326 . S
O847 C855 1.252 . S
C848 O851 1.252 . S
C848 O852 1.260 . S
C849 O856 1.240 . S
C849 O857 1.252 . S
C850 O853 1.252 . S
C850 O854 1.260 . S
O851 In845 2.266 . S
O851 C848 1.252 . S
O852 In845 2.326 . S
O852 C848 1.260 . S
O853 In845 2.266 . S
O853 C850 1.252 . S
O854 In845 2.326 . S
O854 C850 1.260 . S
C855 O846 1.240 . S
C855 O847 1.252 . S
O856 In845 2.294 . S
O856 C849 1.240 . S
O857 In845 2.326 . S
O857 C849 1.252 . S
In858 O859 2.294 . S
In858 O860 2.326 . S
In858 O864 2.266 . S
In858 O865 2.326 . S
In858 O866 2.266 . S
In858 O867 2.326 . S
In858 O869 2.294 . S
In858 O870 2.326 . S
O859 In858 2.294 . S
O859 C868 1.240 . S
O860 In858 2.326 . S
O860 C868 1.252 . S
C861 O864 1.252 . S
C861 O865 1.260 . S
C862 O869 1.240 . S
C862 O870 1.252 . S
C863 O866 1.252 . S
C863 O867 1.260 . S
O864 In858 2.266 . S
O864 C861 1.252 . S
O865 In858 2.326 . S
O865 C861 1.260 . S
O866 In858 2.266 . S
O866 C863 1.252 . S
O867 In858 2.326 . S
O867 C863 1.260 . S
C868 O859 1.240 . S
C868 O860 1.252 . S
O869 In858 2.294 . S
O869 C862 1.240 . S
O870 In858 2.326 . S
O870 C862 1.252 . S
In871 O872 2.294 . S
In871 O873 2.326 . S
In871 O877 2.266 . S
In871 O878 2.326 . S
In871 O879 2.266 . S
In871 O880 2.326 . S
In871 O882 2.294 . S
In871 O883 2.326 . S
O872 In871 2.294 . S
O872 C881 1.240 . S
O873 In871 2.326 . S
O873 C881 1.252 . S
C874 O877 1.252 . S
C874 O878 1.260 . S
C875 O882 1.240 . S
C875 O883 1.252 . S
C876 O879 1.252 . S
C876 O880 1.260 . S
O877 In871 2.266 . S
O877 C874 1.252 . S
O878 In871 2.326 . S
O878 C874 1.260 . S
O879 In871 2.266 . S
O879 C876 1.252 . S
O880 In871 2.326 . S
O880 C876 1.260 . S
C881 O872 1.240 . S
C881 O873 1.252 . S
O882 In871 2.294 . S
O882 C875 1.240 . S
O883 In871 2.326 . S
O883 C875 1.252 . S
In884 O885 2.294 . S
In884 O886 2.326 . S
In884 O890 2.266 . S
In884 O891 2.326 . S
In884 O892 2.266 . S
In884 O893 2.326 . S
In884 O895 2.294 . S
In884 O896 2.326 . S
O885 In884 2.294 . S
O885 C894 1.240 . S
O886 In884 2.326 . S
O886 C894 1.252 . S
C887 O890 1.252 . S
C887 O891 1.260 . S
C888 O895 1.240 . S
C888 O896 1.252 . S
C889 O892 1.252 . S
C889 O893 1.260 . S
O890 In884 2.266 . S
O890 C887 1.252 . S
O891 In884 2.326 . S
O891 C887 1.260 . S
O892 In884 2.266 . S
O892 C889 1.252 . S
O893 In884 2.326 . S
O893 C889 1.260 . S
C894 O885 1.240 . S
C894 O886 1.252 . S
O895 In884 2.294 . S
O895 C888 1.240 . S
O896 In884 2.326 . S
O896 C888 1.252 . S
In897 O898 2.294 . S
In897 O899 2.326 . S
In897 O903 2.266 . S
In897 O904 2.326 . S
In897 O905 2.266 . S
In897 O906 2.326 . S
In897 O908 2.294 . S
In897 O909 2.326 . S
O898 In897 2.294 . S
O898 C907 1.240 . S
O899 In897 2.326 . S
O899 C907 1.252 . S
C900 O903 1.252 . S
C900 O904 1.260 . S
C901 O908 1.240 . S
C901 O909 1.252 . S
C902 O905 1.252 . S
C902 O906 1.260 . S
O903 In897 2.266 . S
O903 C900 1.252 . S
O904 In897 2.326 . S
O904 C900 1.260 . S
O905 In897 2.266 . S
O905 C902 1.252 . S
O906 In897 2.326 . S
O906 C902 1.260 . S
C907 O898 1.240 . S
C907 O899 1.252 . S
O908 In897 2.294 . S
O908 C901 1.240 . S
O909 In897 2.326 . S
O909 C901 1.252 . S
In910 O911 2.294 . S
In910 O912 2.326 . S
In910 O916 2.266 . S
In910 O917 2.326 . S
In910 O918 2.266 . S
In910 O919 2.326 . S
In910 O921 2.294 . S
In910 O922 2.326 . S
O911 In910 2.294 . S
O911 C920 1.240 . S
O912 In910 2.326 . S
O912 C920 1.252 . S
C913 O916 1.252 . S
C913 O917 1.260 . S
C914 O921 1.240 . S
C914 O922 1.252 . S
C915 O918 1.252 . S
C915 O919 1.260 . S
O916 In910 2.266 . S
O916 C913 1.252 . S
O917 In910 2.326 . S
O917 C913 1.260 . S
O918 In910 2.266 . S
O918 C915 1.252 . S
O919 In910 2.326 . S
O919 C915 1.260 . S
C920 O911 1.240 . S
C920 O912 1.252 . S
O921 In910 2.294 . S
O921 C914 1.240 . S
O922 In910 2.326 . S
O922 C914 1.252 . S
In923 O924 2.294 . S
In923 O925 2.326 . S
In923 O929 2.266 . S
In923 O930 2.326 . S
In923 O931 2.266 . S
In923 O932 2.326 . S
In923 O934 2.294 . S
In923 O935 2.326 . S
O924 In923 2.294 . S
O924 C933 1.240 . S
O925 In923 2.326 . S
O925 C933 1.252 . S
C926 O929 1.252 . S
C926 O930 1.260 . S
C927 O934 1.240 . S
C927 O935 1.252 . S
C928 O931 1.252 . S
C928 O932 1.260 . S
O929 In923 2.266 . S
O929 C926 1.252 . S
O930 In923 2.326 . S
O930 C926 1.260 . S
O931 In923 2.266 . S
O931 C928 1.252 . S
O932 In923 2.326 . S
O932 C928 1.260 . S
C933 O924 1.240 . S
C933 O925 1.252 . S
O934 In923 2.294 . S
O934 C927 1.240 . S
O935 In923 2.326 . S
O935 C927 1.252 . S
In936 O937 2.294 . S
In936 O938 2.326 . S
In936 O942 2.266 . S
In936 O943 2.326 . S
In936 O944 2.266 . S
In936 O945 2.326 . S
In936 O947 2.294 . S
In936 O948 2.326 . S
O937 In936 2.294 . S
O937 C946 1.240 . S
O938 In936 2.326 . S
O938 C946 1.252 . S
C939 O942 1.252 . S
C939 O943 1.260 . S
C940 O947 1.240 . S
C940 O948 1.252 . S
C941 O944 1.252 . S
C941 O945 1.260 . S
O942 In936 2.266 . S
O942 C939 1.252 . S
O943 In936 2.326 . S
O943 C939 1.260 . S
O944 In936 2.266 . S
O944 C941 1.252 . S
O945 In936 2.326 . S
O945 C941 1.260 . S
C946 O937 1.240 . S
C946 O938 1.252 . S
O947 In936 2.294 . S
O947 C940 1.240 . S
O948 In936 2.326 . S
O948 C940 1.252 . S
In949 O950 2.294 . S
In949 O951 2.326 . S
In949 O955 2.266 . S
In949 O956 2.326 . S
In949 O957 2.266 . S
In949 O958 2.326 . S
In949 O960 2.294 . S
In949 O961 2.326 . S
O950 In949 2.294 . S
O950 C959 1.240 . S
O951 In949 2.326 . S
O951 C959 1.252 . S
C952 O955 1.252 . S
C952 O956 1.260 . S
C953 O960 1.240 . S
C953 O961 1.252 . S
C954 O957 1.252 . S
C954 O958 1.260 . S
O955 In949 2.266 . S
O955 C952 1.252 . S
O956 In949 2.326 . S
O956 C952 1.260 . S
O957 In949 2.266 . S
O957 C954 1.252 . S
O958 In949 2.326 . S
O958 C954 1.260 . S
C959 O950 1.240 . S
C959 O951 1.252 . S
O960 In949 2.294 . S
O960 C953 1.240 . S
O961 In949 2.326 . S
O961 C953 1.252 . S
In962 O963 2.294 . S
In962 O964 2.326 . S
In962 O968 2.266 . S
In962 O969 2.326 . S
In962 O970 2.266 . S
In962 O971 2.326 . S
In962 O973 2.294 . S
In962 O974 2.326 . S
O963 In962 2.294 . S
O963 C972 1.240 . S
O964 In962 2.326 . S
O964 C972 1.252 . S
C965 O968 1.252 . S
C965 O969 1.260 . S
C966 O973 1.240 . S
C966 O974 1.252 . S
C967 O970 1.252 . S
C967 O971 1.260 . S
O968 In962 2.266 . S
O968 C965 1.252 . S
O969 In962 2.326 . S
O969 C965 1.260 . S
O970 In962 2.266 . S
O970 C967 1.252 . S
O971 In962 2.326 . S
O971 C967 1.260 . S
C972 O963 1.240 . S
C972 O964 1.252 . S
O973 In962 2.294 . S
O973 C966 1.240 . S
O974 In962 2.326 . S
O974 C966 1.252 . S
In975 O976 2.294 . S
In975 O977 2.326 . S
In975 O981 2.266 . S
In975 O982 2.326 . S
In975 O983 2.266 . S
In975 O984 2.326 . S
In975 O986 2.294 . S
In975 O987 2.326 . S
O976 In975 2.294 . S
O976 C985 1.240 . S
O977 In975 2.326 . S
O977 C985 1.252 . S
C978 O981 1.252 . S
C978 O982 1.260 . S
C979 O986 1.240 . S
C979 O987 1.252 . S
C980 O983 1.252 . S
C980 O984 1.260 . S
O981 In975 2.266 . S
O981 C978 1.252 . S
O982 In975 2.326 . S
O982 C978 1.260 . S
O983 In975 2.266 . S
O983 C980 1.252 . S
O984 In975 2.326 . S
O984 C980 1.260 . S
C985 O976 1.240 . S
C985 O977 1.252 . S
O986 In975 2.294 . S
O986 C979 1.240 . S
O987 In975 2.326 . S
O987 C979 1.252 . S
In988 O989 2.294 . S
In988 O990 2.326 . S
In988 O994 2.266 . S
In988 O995 2.326 . S
In988 O996 2.266 . S
In988 O997 2.326 . S
In988 O999 2.294 . S
In988 O1000 2.326 . S
O989 In988 2.294 . S
O989 C998 1.240 . S
O990 In988 2.326 . S
O990 C998 1.252 . S
C991 O994 1.252 . S
C991 O995 1.260 . S
C992 O999 1.240 . S
C992 O1000 1.252 . S
C993 O996 1.252 . S
C993 O997 1.260 . S
O994 In988 2.266 . S
O994 C991 1.252 . S
O995 In988 2.326 . S
O995 C991 1.260 . S
O996 In988 2.266 . S
O996 C993 1.252 . S
O997 In988 2.326 . S
O997 C993 1.260 . S
C998 O989 1.240 . S
C998 O990 1.252 . S
O999 In988 2.294 . S
O999 C992 1.240 . S
O1000 In988 2.326 . S
O1000 C992 1.252 . S
In1001 O1002 2.294 . S
In1001 O1003 2.326 . S
In1001 O1007 2.266 . S
In1001 O1008 2.326 . S
In1001 O1009 2.266 . S
In1001 O1010 2.326 . S
In1001 O1012 2.294 . S
In1001 O1013 2.326 . S
O1002 In1001 2.294 . S
O1002 C1011 1.240 . S
O1003 In1001 2.326 . S
O1003 C1011 1.252 . S
C1004 O1007 1.252 . S
C1004 O1008 1.260 . S
C1005 O1012 1.240 . S
C1005 O1013 1.252 . S
C1006 O1009 1.252 . S
C1006 O1010 1.260 . S
O1007 In1001 2.266 . S
O1007 C1004 1.252 . S
O1008 In1001 2.326 . S
O1008 C1004 1.260 . S
O1009 In1001 2.266 . S
O1009 C1006 1.252 . S
O1010 In1001 2.326 . S
O1010 C1006 1.260 . S
C1011 O1002 1.240 . S
C1011 O1003 1.252 . S
O1012 In1001 2.294 . S
O1012 C1005 1.240 . S
O1013 In1001 2.326 . S
O1013 C1005 1.252 . S
In1014 O1015 2.294 . S
In1014 O1016 2.326 . S
In1014 O1020 2.266 . S
In1014 O1021 2.326 . S
In1014 O1022 2.266 . S
In1014 O1023 2.326 . S
In1014 O1025 2.294 . S
In1014 O1026 2.326 . S
O1015 In1014 2.294 . S
O1015 C1024 1.240 . S
O1016 In1014 2.326 . S
O1016 C1024 1.252 . S
C1017 O1020 1.252 . S
C1017 O1021 1.260 . S
C1018 O1025 1.240 . S
C1018 O1026 1.252 . S
C1019 O1022 1.252 . S
C1019 O1023 1.260 . S
O1020 In1014 2.266 . S
O1020 C1017 1.252 . S
O1021 In1014 2.326 . S
O1021 C1017 1.260 . S
O1022 In1014 2.266 . S
O1022 C1019 1.252 . S
O1023 In1014 2.326 . S
O1023 C1019 1.260 . S
C1024 O1015 1.240 . S
C1024 O1016 1.252 . S
O1025 In1014 2.294 . S
O1025 C1018 1.240 . S
O1026 In1014 2.326 . S
O1026 C1018 1.252 . S
In1027 O1028 2.294 . S
In1027 O1029 2.326 . S
In1027 O1033 2.266 . S
In1027 O1034 2.326 . S
In1027 O1035 2.266 . S
In1027 O1036 2.326 . S
In1027 O1038 2.294 . S
In1027 O1039 2.326 . S
O1028 In1027 2.294 . S
O1028 C1037 1.240 . S
O1029 In1027 2.326 . S
O1029 C1037 1.252 . S
C1030 O1033 1.252 . S
C1030 O1034 1.260 . S
C1031 O1038 1.240 . S
C1031 O1039 1.252 . S
C1032 O1035 1.252 . S
C1032 O1036 1.260 . S
O1033 In1027 2.266 . S
O1033 C1030 1.252 . S
O1034 In1027 2.326 . S
O1034 C1030 1.260 . S
O1035 In1027 2.266 . S
O1035 C1032 1.252 . S
O1036 In1027 2.326 . S
O1036 C1032 1.260 . S
C1037 O1028 1.240 . S
C1037 O1029 1.252 . S
O1038 In1027 2.294 . S
O1038 C1031 1.240 . S
O1039 In1027 2.326 . S
O1039 C1031 1.252 . S
In1040 O1041 2.294 . S
In1040 O1042 2.326 . S
In1040 O1046 2.266 . S
In1040 O1047 2.326 . S
In1040 O1048 2.266 . S
In1040 O1049 2.326 . S
In1040 O1051 2.294 . S
In1040 O1052 2.326 . S
O1041 In1040 2.294 . S
O1041 C1050 1.240 . S
O1042 In1040 2.326 . S
O1042 C1050 1.252 . S
C1043 O1046 1.252 . S
C1043 O1047 1.260 . S
C1044 O1051 1.240 . S
C1044 O1052 1.252 . S
C1045 O1048 1.252 . S
C1045 O1049 1.260 . S
O1046 In1040 2.266 . S
O1046 C1043 1.252 . S
O1047 In1040 2.326 . S
O1047 C1043 1.260 . S
O1048 In1040 2.266 . S
O1048 C1045 1.252 . S
O1049 In1040 2.326 . S
O1049 C1045 1.260 . S
C1050 O1041 1.240 . S
C1050 O1042 1.252 . S
O1051 In1040 2.294 . S
O1051 C1044 1.240 . S
O1052 In1040 2.326 . S
O1052 C1044 1.252 . S
In1053 O1054 2.294 . S
In1053 O1055 2.326 . S
In1053 O1059 2.266 . S
In1053 O1060 2.326 . S
In1053 O1061 2.266 . S
In1053 O1062 2.326 . S
In1053 O1064 2.294 . S
In1053 O1065 2.326 . S
O1054 In1053 2.294 . S
O1054 C1063 1.240 . S
O1055 In1053 2.326 . S
O1055 C1063 1.252 . S
C1056 O1059 1.252 . S
C1056 O1060 1.260 . S
C1057 O1064 1.240 . S
C1057 O1065 1.252 . S
C1058 O1061 1.252 . S
C1058 O1062 1.260 . S
O1059 In1053 2.266 . S
O1059 C1056 1.252 . S
O1060 In1053 2.326 . S
O1060 C1056 1.260 . S
O1061 In1053 2.266 . S
O1061 C1058 1.252 . S
O1062 In1053 2.326 . S
O1062 C1058 1.260 . S
C1063 O1054 1.240 . S
C1063 O1055 1.252 . S
O1064 In1053 2.294 . S
O1064 C1057 1.240 . S
O1065 In1053 2.326 . S
O1065 C1057 1.252 . S
In1066 O1067 2.294 . S
In1066 O1068 2.326 . S
In1066 O1072 2.266 . S
In1066 O1073 2.326 . S
In1066 O1074 2.266 . S
In1066 O1075 2.326 . S
In1066 O1077 2.294 . S
In1066 O1078 2.326 . S
O1067 In1066 2.294 . S
O1067 C1076 1.240 . S
O1068 In1066 2.326 . S
O1068 C1076 1.252 . S
C1069 O1072 1.252 . S
C1069 O1073 1.260 . S
C1070 O1077 1.240 . S
C1070 O1078 1.252 . S
C1071 O1074 1.252 . S
C1071 O1075 1.260 . S
O1072 In1066 2.266 . S
O1072 C1069 1.252 . S
O1073 In1066 2.326 . S
O1073 C1069 1.260 . S
O1074 In1066 2.266 . S
O1074 C1071 1.252 . S
O1075 In1066 2.326 . S
O1075 C1071 1.260 . S
C1076 O1067 1.240 . S
C1076 O1068 1.252 . S
O1077 In1066 2.294 . S
O1077 C1070 1.240 . S
O1078 In1066 2.326 . S
O1078 C1070 1.252 . S
In1079 O1080 2.294 . S
In1079 O1081 2.326 . S
In1079 O1085 2.266 . S
In1079 O1086 2.326 . S
In1079 O1087 2.266 . S
In1079 O1088 2.326 . S
In1079 O1090 2.294 . S
In1079 O1091 2.326 . S
O1080 In1079 2.294 . S
O1080 C1089 1.240 . S
O1081 In1079 2.326 . S
O1081 C1089 1.252 . S
C1082 O1085 1.252 . S
C1082 O1086 1.260 . S
C1083 O1090 1.240 . S
C1083 O1091 1.252 . S
C1084 O1087 1.252 . S
C1084 O1088 1.260 . S
O1085 In1079 2.266 . S
O1085 C1082 1.252 . S
O1086 In1079 2.326 . S
O1086 C1082 1.260 . S
O1087 In1079 2.266 . S
O1087 C1084 1.252 . S
O1088 In1079 2.326 . S
O1088 C1084 1.260 . S
C1089 O1080 1.240 . S
C1089 O1081 1.252 . S
O1090 In1079 2.294 . S
O1090 C1083 1.240 . S
O1091 In1079 2.326 . S
O1091 C1083 1.252 . S
In1092 O1093 2.294 . S
In1092 O1094 2.326 . S
In1092 O1098 2.266 . S
In1092 O1099 2.326 . S
In1092 O1100 2.266 . S
In1092 O1101 2.326 . S
In1092 O1103 2.294 . S
In1092 O1104 2.326 . S
O1093 In1092 2.294 . S
O1093 C1102 1.240 . S
O1094 In1092 2.326 . S
O1094 C1102 1.252 . S
C1095 O1098 1.252 . S
C1095 O1099 1.260 . S
C1096 O1103 1.240 . S
C1096 O1104 1.252 . S
C1097 O1100 1.252 . S
C1097 O1101 1.260 . S
O1098 In1092 2.266 . S
O1098 C1095 1.252 . S
O1099 In1092 2.326 . S
O1099 C1095 1.260 . S
O1100 In1092 2.266 . S
O1100 C1097 1.252 . S
O1101 In1092 2.326 . S
O1101 C1097 1.260 . S
C1102 O1093 1.240 . S
C1102 O1094 1.252 . S
O1103 In1092 2.294 . S
O1103 C1096 1.240 . S
O1104 In1092 2.326 . S
O1104 C1096 1.252 . S
In1105 O1106 2.294 . S
In1105 O1107 2.326 . S
In1105 O1111 2.266 . S
In1105 O1112 2.326 . S
In1105 O1113 2.266 . S
In1105 O1114 2.326 . S
In1105 O1116 2.294 . S
In1105 O1117 2.326 . S
O1106 In1105 2.294 . S
O1106 C1115 1.240 . S
O1107 In1105 2.326 . S
O1107 C1115 1.252 . S
C1108 O1111 1.252 . S
C1108 O1112 1.260 . S
C1109 O1116 1.240 . S
C1109 O1117 1.252 . S
C1110 O1113 1.252 . S
C1110 O1114 1.260 . S
O1111 In1105 2.266 . S
O1111 C1108 1.252 . S
O1112 In1105 2.326 . S
O1112 C1108 1.260 . S
O1113 In1105 2.266 . S
O1113 C1110 1.252 . S
O1114 In1105 2.326 . S
O1114 C1110 1.260 . S
C1115 O1106 1.240 . S
C1115 O1107 1.252 . S
O1116 In1105 2.294 . S
O1116 C1109 1.240 . S
O1117 In1105 2.326 . S
O1117 C1109 1.252 . S
In1118 O1119 2.294 . S
In1118 O1120 2.326 . S
In1118 O1124 2.266 . S
In1118 O1125 2.326 . S
In1118 O1126 2.266 . S
In1118 O1127 2.326 . S
In1118 O1129 2.294 . S
In1118 O1130 2.326 . S
O1119 In1118 2.294 . S
O1119 C1128 1.240 . S
O1120 In1118 2.326 . S
O1120 C1128 1.252 . S
C1121 O1124 1.252 . S
C1121 O1125 1.260 . S
C1122 O1129 1.240 . S
C1122 O1130 1.252 . S
C1123 O1126 1.252 . S
C1123 O1127 1.260 . S
O1124 In1118 2.266 . S
O1124 C1121 1.252 . S
O1125 In1118 2.326 . S
O1125 C1121 1.260 . S
O1126 In1118 2.266 . S
O1126 C1123 1.252 . S
O1127 In1118 2.326 . S
O1127 C1123 1.260 . S
C1128 O1119 1.240 . S
C1128 O1120 1.252 . S
O1129 In1118 2.294 . S
O1129 C1122 1.240 . S
O1130 In1118 2.326 . S
O1130 C1122 1.252 . S
In1131 O1132 2.294 . S
In1131 O1133 2.326 . S
In1131 O1137 2.266 . S
In1131 O1138 2.326 . S
In1131 O1139 2.266 . S
In1131 O1140 2.326 . S
In1131 O1142 2.294 . S
In1131 O1143 2.326 . S
O1132 In1131 2.294 . S
O1132 C1141 1.240 . S
O1133 In1131 2.326 . S
O1133 C1141 1.252 . S
C1134 O1137 1.252 . S
C1134 O1138 1.260 . S
C1135 O1142 1.240 . S
C1135 O1143 1.252 . S
C1136 O1139 1.252 . S
C1136 O1140 1.260 . S
O1137 In1131 2.266 . S
O1137 C1134 1.252 . S
O1138 In1131 2.326 . S
O1138 C1134 1.260 . S
O1139 In1131 2.266 . S
O1139 C1136 1.252 . S
O1140 In1131 2.326 . S
O1140 C1136 1.260 . S
C1141 O1132 1.240 . S
C1141 O1133 1.252 . S
O1142 In1131 2.294 . S
O1142 C1135 1.240 . S
O1143 In1131 2.326 . S
O1143 C1135 1.252 . S
In1144 O1145 2.294 . S
In1144 O1146 2.326 . S
In1144 O1150 2.266 . S
In1144 O1151 2.326 . S
In1144 O1152 2.266 . S
In1144 O1153 2.326 . S
In1144 O1155 2.294 . S
In1144 O1156 2.326 . S
O1145 In1144 2.294 . S
O1145 C1154 1.240 . S
O1146 In1144 2.326 . S
O1146 C1154 1.252 . S
C1147 O1150 1.252 . S
C1147 O1151 1.260 . S
C1148 O1155 1.240 . S
C1148 O1156 1.252 . S
C1149 O1152 1.252 . S
C1149 O1153 1.260 . S
O1150 In1144 2.266 . S
O1150 C1147 1.252 . S
O1151 In1144 2.326 . S
O1151 C1147 1.260 . S
O1152 In1144 2.266 . S
O1152 C1149 1.252 . S
O1153 In1144 2.326 . S
O1153 C1149 1.260 . S
C1154 O1145 1.240 . S
C1154 O1146 1.252 . S
O1155 In1144 2.294 . S
O1155 C1148 1.240 . S
O1156 In1144 2.326 . S
O1156 C1148 1.252 . S
In1157 O1158 2.294 . S
In1157 O1159 2.326 . S
In1157 O1163 2.266 . S
In1157 O1164 2.326 . S
In1157 O1165 2.266 . S
In1157 O1166 2.326 . S
In1157 O1168 2.294 . S
In1157 O1169 2.326 . S
O1158 In1157 2.294 . S
O1158 C1167 1.240 . S
O1159 In1157 2.326 . S
O1159 C1167 1.252 . S
C1160 O1163 1.252 . S
C1160 O1164 1.260 . S
C1161 O1168 1.240 . S
C1161 O1169 1.252 . S
C1162 O1165 1.252 . S
C1162 O1166 1.260 . S
O1163 In1157 2.266 . S
O1163 C1160 1.252 . S
O1164 In1157 2.326 . S
O1164 C1160 1.260 . S
O1165 In1157 2.266 . S
O1165 C1162 1.252 . S
O1166 In1157 2.326 . S
O1166 C1162 1.260 . S
C1167 O1158 1.240 . S
C1167 O1159 1.252 . S
O1168 In1157 2.294 . S
O1168 C1161 1.240 . S
O1169 In1157 2.326 . S
O1169 C1161 1.252 . S
In1170 O1171 2.294 . S
In1170 O1172 2.326 . S
In1170 O1176 2.266 . S
In1170 O1177 2.326 . S
In1170 O1178 2.266 . S
In1170 O1179 2.326 . S
In1170 O1181 2.294 . S
In1170 O1182 2.326 . S
O1171 In1170 2.294 . S
O1171 C1180 1.240 . S
O1172 In1170 2.326 . S
O1172 C1180 1.252 . S
C1173 O1176 1.252 . S
C1173 O1177 1.260 . S
C1174 O1181 1.240 . S
C1174 O1182 1.252 . S
C1175 O1178 1.252 . S
C1175 O1179 1.260 . S
O1176 In1170 2.266 . S
O1176 C1173 1.252 . S
O1177 In1170 2.326 . S
O1177 C1173 1.260 . S
O1178 In1170 2.266 . S
O1178 C1175 1.252 . S
O1179 In1170 2.326 . S
O1179 C1175 1.260 . S
C1180 O1171 1.240 . S
C1180 O1172 1.252 . S
O1181 In1170 2.294 . S
O1181 C1174 1.240 . S
O1182 In1170 2.326 . S
O1182 C1174 1.252 . S
In1183 O1184 2.294 . S
In1183 O1185 2.326 . S
In1183 O1189 2.266 . S
In1183 O1190 2.326 . S
In1183 O1191 2.266 . S
In1183 O1192 2.326 . S
In1183 O1194 2.294 . S
In1183 O1195 2.326 . S
O1184 In1183 2.294 . S
O1184 C1193 1.240 . S
O1185 In1183 2.326 . S
O1185 C1193 1.252 . S
C1186 O1189 1.252 . S
C1186 O1190 1.260 . S
C1187 O1194 1.240 . S
C1187 O1195 1.252 . S
C1188 O1191 1.252 . S
C1188 O1192 1.260 . S
O1189 In1183 2.266 . S
O1189 C1186 1.252 . S
O1190 In1183 2.326 . S
O1190 C1186 1.260 . S
O1191 In1183 2.266 . S
O1191 C1188 1.252 . S
O1192 In1183 2.326 . S
O1192 C1188 1.260 . S
C1193 O1184 1.240 . S
C1193 O1185 1.252 . S
O1194 In1183 2.294 . S
O1194 C1187 1.240 . S
O1195 In1183 2.326 . S
O1195 C1187 1.252 . S
In1196 O1197 2.294 . S
In1196 O1198 2.326 . S
In1196 O1202 2.266 . S
In1196 O1203 2.326 . S
In1196 O1204 2.266 . S
In1196 O1205 2.326 . S
In1196 O1207 2.294 . S
In1196 O1208 2.326 . S
O1197 In1196 2.294 . S
O1197 C1206 1.240 . S
O1198 In1196 2.326 . S
O1198 C1206 1.252 . S
C1199 O1202 1.252 . S
C1199 O1203 1.260 . S
C1200 O1207 1.240 . S
C1200 O1208 1.252 . S
C1201 O1204 1.252 . S
C1201 O1205 1.260 . S
O1202 In1196 2.266 . S
O1202 C1199 1.252 . S
O1203 In1196 2.326 . S
O1203 C1199 1.260 . S
O1204 In1196 2.266 . S
O1204 C1201 1.252 . S
O1205 In1196 2.326 . S
O1205 C1201 1.260 . S
C1206 O1197 1.240 . S
C1206 O1198 1.252 . S
O1207 In1196 2.294 . S
O1207 C1200 1.240 . S
O1208 In1196 2.326 . S
O1208 C1200 1.252 . S
In1209 O1210 2.294 . S
In1209 O1211 2.326 . S
In1209 O1215 2.266 . S
In1209 O1216 2.326 . S
In1209 O1217 2.266 . S
In1209 O1218 2.326 . S
In1209 O1220 2.294 . S
In1209 O1221 2.326 . S
O1210 In1209 2.294 . S
O1210 C1219 1.240 . S
O1211 In1209 2.326 . S
O1211 C1219 1.252 . S
C1212 O1215 1.252 . S
C1212 O1216 1.260 . S
C1213 O1220 1.240 . S
C1213 O1221 1.252 . S
C1214 O1217 1.252 . S
C1214 O1218 1.260 . S
O1215 In1209 2.266 . S
O1215 C1212 1.252 . S
O1216 In1209 2.326 . S
O1216 C1212 1.260 . S
O1217 In1209 2.266 . S
O1217 C1214 1.252 . S
O1218 In1209 2.326 . S
O1218 C1214 1.260 . S
C1219 O1210 1.240 . S
C1219 O1211 1.252 . S
O1220 In1209 2.294 . S
O1220 C1213 1.240 . S
O1221 In1209 2.326 . S
O1221 C1213 1.252 . S
In1222 O1223 2.294 . S
In1222 O1224 2.326 . S
In1222 O1228 2.266 . S
In1222 O1229 2.326 . S
In1222 O1230 2.266 . S
In1222 O1231 2.326 . S
In1222 O1233 2.294 . S
In1222 O1234 2.326 . S
O1223 In1222 2.294 . S
O1223 C1232 1.240 . S
O1224 In1222 2.326 . S
O1224 C1232 1.252 . S
C1225 O1228 1.252 . S
C1225 O1229 1.260 . S
C1226 O1233 1.240 . S
C1226 O1234 1.252 . S
C1227 O1230 1.252 . S
C1227 O1231 1.260 . S
O1228 In1222 2.266 . S
O1228 C1225 1.252 . S
O1229 In1222 2.326 . S
O1229 C1225 1.260 . S
O1230 In1222 2.266 . S
O1230 C1227 1.252 . S
O1231 In1222 2.326 . S
O1231 C1227 1.260 . S
C1232 O1223 1.240 . S
C1232 O1224 1.252 . S
O1233 In1222 2.294 . S
O1233 C1226 1.240 . S
O1234 In1222 2.326 . S
O1234 C1226 1.252 . S
In1235 O1236 2.294 . S
In1235 O1237 2.326 . S
In1235 O1241 2.266 . S
In1235 O1242 2.326 . S
In1235 O1243 2.266 . S
In1235 O1244 2.326 . S
In1235 O1246 2.294 . S
In1235 O1247 2.326 . S
O1236 In1235 2.294 . S
O1236 C1245 1.240 . S
O1237 In1235 2.326 . S
O1237 C1245 1.252 . S
C1238 O1241 1.252 . S
C1238 O1242 1.260 . S
C1239 O1246 1.240 . S
C1239 O1247 1.252 . S
C1240 O1243 1.252 . S
C1240 O1244 1.260 . S
O1241 In1235 2.266 . S
O1241 C1238 1.252 . S
O1242 In1235 2.326 . S
O1242 C1238 1.260 . S
O1243 In1235 2.266 . S
O1243 C1240 1.252 . S
O1244 In1235 2.326 . S
O1244 C1240 1.260 . S
C1245 O1236 1.240 . S
C1245 O1237 1.252 . S
O1246 In1235 2.294 . S
O1246 C1239 1.240 . S
O1247 In1235 2.326 . S
O1247 C1239 1.252 . S
C1248 C1249 1.363 . S
C1248 C1254 1.379 1_554 S
C1248 N1256 1.356 . S
C1249 C1248 1.363 . S
C1249 C1255 1.363 1_455 S
C1250 C1251 1.363 . S
C1250 C1255 1.379 1_556 S
C1250 N1257 1.356 . S
C1251 C1250 1.363 . S
C1251 C1254 1.363 1_655 S
N1252 C1254 1.357 . S
N1252 H1264 0.990 . S
N1252 H1265 0.979 1_455 S
N1253 C1255 1.357 . S
N1253 H1258 0.979 1_655 S
N1253 H1259 0.990 . S
C1254 C1248 1.379 1_556 S
C1254 C1251 1.363 1_455 S
C1254 N1252 1.357 . S
C1255 C1249 1.363 1_655 S
C1255 C1250 1.379 1_554 S
C1255 N1253 1.357 . S
N1256 C1248 1.356 . S
N1256 H1262 0.984 . S
N1256 H1263 0.984 . S
N1257 C1250 1.356 . S
N1257 H1260 0.984 . S
N1257 H1261 0.985 . S
H1258 N1253 0.979 1_455 S
H1259 N1253 0.990 . S
H1260 N1257 0.984 . S
H1261 N1257 0.985 . S
H1262 N1256 0.984 . S
H1263 N1256 0.984 . S
H1264 N1252 0.990 . S
H1265 N1252 0.979 1_655 S
C1266 C1267 1.363 . S
C1266 C1272 1.379 . S
C1266 N1274 1.356 . S
C1267 C1266 1.363 . S
C1267 C1273 1.363 . S
C1268 C1269 1.363 . S
C1268 C1273 1.379 . S
C1268 N1275 1.356 . S
C1269 C1268 1.363 . S
C1269 C1272 1.363 . S
N1270 C1272 1.356 . S
N1270 H1282 0.984 . S
N1270 H1283 0.985 . S
N1271 C1273 1.356 . S
N1271 H1276 0.984 . S
N1271 H1277 1.034 . S
C1272 C1266 1.379 . S
C1272 C1269 1.363 . S
C1272 N1270 1.356 . S
C1273 C1267 1.363 . S
C1273 C1268 1.379 . S
C1273 N1271 1.356 . S
N1274 C1266 1.356 . S
N1274 H1280 0.984 . S
N1274 H1281 0.984 . S
N1275 C1268 1.356 . S
N1275 H1278 0.984 . S
N1275 H1279 1.035 . S
H1276 N1271 0.984 . S
H1277 N1271 1.034 . S
H1278 N1275 0.984 . S
H1279 N1275 1.035 . S
H1280 N1274 0.984 . S
H1281 N1274 0.984 . S
H1282 N1270 0.984 . S
H1283 N1270 0.985 . S
C1284 C1285 1.363 1_455 S
C1284 C1290 1.379 . S
C1284 N1292 1.357 . S
C1285 C1284 1.363 1_655 S
C1285 C1291 1.363 . S
C1286 C1287 1.363 1_655 S
C1286 C1291 1.379 . S
C1286 N1293 1.357 . S
C1287 C1286 1.363 1_455 S
C1287 C1290 1.363 . S
N1288 C1290 1.356 . S
N1288 H1300 0.984 . S
N1288 H1301 0.985 . S
N1289 C1291 1.356 . S
N1289 H1294 0.984 . S
N1289 H1295 0.985 . S
C1290 C1284 1.379 . S
C1290 C1287 1.363 . S
C1290 N1288 1.356 . S
C1291 C1285 1.363 . S
C1291 C1286 1.379 . S
C1291 N1289 1.356 . S
N1292 C1284 1.357 . S
N1292 H1298 0.990 . S
N1292 H1299 0.979 1_455 S
N1293 C1286 1.357 . S
N1293 H1296 0.979 1_655 S
N1293 H1297 0.990 . S
H1294 N1289 0.984 . S
H1295 N1289 0.985 . S
H1296 N1293 0.979 1_455 S
H1297 N1293 0.990 . S
H1298 N1292 0.990 . S
H1299 N1292 0.979 1_655 S
H1300 N1288 0.984 . S
H1301 N1288 0.985 . S
C1302 C1303 1.363 . S
C1302 C1308 1.379 . S
C1302 N1310 1.356 . S
C1303 C1302 1.363 . S
C1303 C1309 1.363 . S
C1304 C1305 1.363 . S
C1304 C1309 1.379 . S
C1304 N1311 1.356 . S
C1305 C1304 1.363 . S
C1305 C1308 1.363 . S
N1306 C1308 1.356 . S
N1306 H1318 0.984 . S
N1306 H1319 0.985 . S
N1307 C1309 1.356 . S
N1307 H1312 0.984 . S
N1307 H1313 0.985 . S
C1308 C1302 1.379 . S
C1308 C1305 1.363 . S
C1308 N1306 1.356 . S
C1309 C1303 1.363 . S
C1309 C1304 1.379 . S
C1309 N1307 1.356 . S
N1310 C1302 1.356 . S
N1310 H1316 0.984 . S
N1310 H1317 0.984 . S
N1311 C1304 1.356 . S
N1311 H1314 0.984 . S
N1311 H1315 0.985 . S
H1312 N1307 0.984 . S
H1313 N1307 0.985 . S
H1314 N1311 0.984 . S
H1315 N1311 0.985 . S
H1316 N1310 0.984 . S
H1317 N1310 0.984 . S
H1318 N1306 0.984 . S
H1319 N1306 0.985 . S
C1320 C1321 1.363 . S
C1320 C1326 1.379 1_554 S
C1320 N1328 1.356 . S
C1321 C1320 1.363 . S
C1321 C1327 1.363 1_655 S
C1322 C1323 1.363 . S
C1322 C1327 1.379 1_556 S
C1322 N1329 1.356 . S
C1323 C1322 1.363 . S
C1323 C1326 1.363 1_455 S
N1324 C1326 1.357 . S
N1324 H1336 0.990 . S
N1324 H1337 0.979 1_655 S
N1325 C1327 1.357 . S
N1325 H1330 0.979 1_455 S
N1325 H1331 0.990 . S
C1326 C1320 1.379 1_556 S
C1326 C1323 1.363 1_655 S
C1326 N1324 1.357 . S
C1327 C1321 1.363 1_455 S
C1327 C1322 1.379 1_554 S
C1327 N1325 1.357 . S
N1328 C1320 1.356 . S
N1328 H1334 0.984 . S
N1328 H1335 0.984 . S
N1329 C1322 1.356 . S
N1329 H1332 0.984 . S
N1329 H1333 0.985 . S
H1330 N1325 0.979 1_655 S
H1331 N1325 0.990 . S
H1332 N1329 0.984 . S
H1333 N1329 0.985 . S
H1334 N1328 0.984 . S
H1335 N1328 0.984 . S
H1336 N1324 0.990 . S
H1337 N1324 0.979 1_455 S
C1338 C1339 1.363 . S
C1338 C1344 1.379 . S
C1338 N1346 1.356 . S
C1339 C1338 1.363 . S
C1339 C1345 1.363 . S
C1340 C1341 1.363 . S
C1340 C1345 1.379 . S
C1340 N1347 1.356 . S
C1341 C1340 1.363 . S
C1341 C1344 1.363 . S
N1342 C1344 1.356 . S
N1342 H1354 0.984 . S
N1342 H1355 0.985 . S
N1343 C1345 1.356 . S
N1343 H1348 0.984 . S
N1343 H1349 0.985 . S
C1344 C1338 1.379 . S
C1344 C1341 1.363 . S
C1344 N1342 1.356 . S
C1345 C1339 1.363 . S
C1345 C1340 1.379 . S
C1345 N1343 1.356 . S
N1346 C1338 1.356 . S
N1346 H1352 0.984 . S
N1346 H1353 0.984 . S
N1347 C1340 1.356 . S
N1347 H1350 0.984 . S
N1347 H1351 0.985 . S
H1348 N1343 0.984 . S
H1349 N1343 0.985 . S
H1350 N1347 0.984 . S
H1351 N1347 0.985 . S
H1352 N1346 0.984 . S
H1353 N1346 0.984 . S
H1354 N1342 0.984 . S
H1355 N1342 0.985 . S
C1356 C1357 1.363 . S
C1356 C1362 1.379 . S
C1356 N1364 1.356 . S
C1357 C1356 1.363 . S
C1357 C1363 1.363 1_455 S
C1358 C1359 1.363 . S
C1358 C1363 1.379 . S
C1358 N1365 1.356 . S
C1359 C1358 1.363 . S
C1359 C1362 1.363 1_655 S
N1360 C1362 1.357 . S
N1360 H1372 0.990 . S
N1360 H1373 0.979 1_455 S
N1361 C1363 1.357 . S
N1361 H1366 0.979 1_655 S
N1361 H1367 0.990 . S
C1362 C1356 1.379 . S
C1362 C1359 1.363 1_455 S
C1362 N1360 1.357 . S
C1363 C1357 1.363 1_655 S
C1363 C1358 1.379 . S
C1363 N1361 1.357 . S
N1364 C1356 1.356 . S
N1364 H1370 0.984 . S
N1364 H1371 0.984 . S
N1365 C1358 1.356 . S
N1365 H1368 0.984 . S
N1365 H1369 0.985 . S
H1366 N1361 0.979 1_455 S
H1367 N1361 0.990 . S
H1368 N1365 0.984 . S
H1369 N1365 0.985 . S
H1370 N1364 0.984 . S
H1371 N1364 0.984 . S
H1372 N1360 0.990 . S
H1373 N1360 0.979 1_655 S
C1374 C1375 1.363 . S
C1374 C1380 1.379 . S
C1374 N1382 1.356 . S
C1375 C1374 1.363 . S
C1375 C1381 1.363 . S
C1376 C1377 1.363 . S
C1376 C1381 1.379 . S
C1376 N1383 1.356 . S
C1377 C1376 1.363 . S
C1377 C1380 1.363 . S
N1378 C1380 1.356 . S
N1378 H1390 0.984 . S
N1378 H1391 0.985 . S
N1379 C1381 1.356 . S
N1379 H1384 0.984 . S
N1379 H1385 0.985 . S
C1380 C1374 1.379 . S
C1380 C1377 1.363 . S
C1380 N1378 1.356 . S
C1381 C1375 1.363 . S
C1381 C1376 1.379 . S
C1381 N1379 1.356 . S
N1382 C1374 1.356 . S
N1382 H1388 0.984 . S
N1382 H1389 0.984 . S
N1383 C1376 1.356 . S
N1383 H1386 0.984 . S
N1383 H1387 0.985 . S
H1384 N1379 0.984 . S
H1385 N1379 0.985 . S
H1386 N1383 0.984 . S
H1387 N1383 0.985 . S
H1388 N1382 0.984 . S
H1389 N1382 0.984 . S
H1390 N1378 0.984 . S
H1391 N1378 0.985 . S
C1392 C1393 1.363 . S
C1392 C1398 1.379 1_655 S
C1392 N1400 1.356 . S
C1393 C1392 1.363 . S
C1393 C1399 1.363 1_565 S
C1394 C1395 1.363 . S
C1394 C1399 1.379 1_455 S
C1394 N1401 1.356 . S
C1395 C1394 1.363 . S
C1395 C1398 1.363 1_545 S
N1396 C1398 1.357 . S
N1396 H1408 0.990 . S
N1396 H1409 0.979 1_565 S
N1397 C1399 1.357 . S
N1397 H1402 0.979 1_545 S
N1397 H1403 0.990 . S
C1398 C1392 1.379 1_455 S
C1398 C1395 1.363 1_565 S
C1398 N1396 1.357 . S
C1399 C1393 1.363 1_545 S
C1399 C1394 1.379 1_655 S
C1399 N1397 1.357 . S
N1400 C1392 1.356 . S
N1400 H1406 0.984 . S
N1400 H1407 0.984 . S
N1401 C1394 1.356 . S
N1401 H1404 0.984 . S
N1401 H1405 0.985 . S
H1402 N1397 0.979 1_565 S
H1403 N1397 0.990 . S
H1404 N1401 0.984 . S
H1405 N1401 0.985 . S
H1406 N1400 0.984 . S
H1407 N1400 0.984 . S
H1408 N1396 0.990 . S
H1409 N1396 0.979 1_545 S
C1410 C1411 1.363 . S
C1410 C1416 1.379 . S
C1410 N1418 1.356 . S
C1411 C1410 1.363 . S
C1411 C1417 1.363 . S
C1412 C1413 1.363 . S
C1412 C1417 1.379 . S
C1412 N1419 1.356 . S
C1413 C1412 1.363 . S
C1413 C1416 1.363 . S
N1414 C1416 1.356 . S
N1414 H1426 0.984 . S
N1414 H1427 0.985 . S
N1415 C1417 1.356 . S
N1415 H1420 0.984 . S
N1415 H1421 0.985 . S
C1416 C1410 1.379 . S
C1416 C1413 1.363 . S
C1416 N1414 1.356 . S
C1417 C1411 1.363 . S
C1417 C1412 1.379 . S
C1417 N1415 1.356 . S
N1418 C1410 1.356 . S
N1418 H1424 0.984 . S
N1418 H1425 0.984 . S
N1419 C1412 1.356 . S
N1419 H1422 0.984 . S
N1419 H1423 0.985 . S
H1420 N1415 0.984 . S
H1421 N1415 0.985 . S
H1422 N1419 0.984 . S
H1423 N1419 0.985 . S
H1424 N1418 0.984 . S
H1425 N1418 0.984 . S
H1426 N1414 0.984 . S
H1427 N1414 0.985 . S
C1428 C1429 1.363 . S
C1428 C1434 1.379 1_655 S
C1428 N1436 1.356 . S
C1429 C1428 1.363 . S
C1429 C1435 1.363 . S
C1430 C1431 1.363 . S
C1430 C1435 1.379 1_455 S
C1430 N1437 1.356 . S
C1431 C1430 1.363 . S
C1431 C1434 1.363 . S
N1432 C1434 1.356 . S
N1432 H1444 0.984 . S
N1432 H1445 0.985 . S
N1433 C1435 1.356 . S
N1433 H1438 0.984 . S
N1433 H1439 0.985 . S
C1434 C1428 1.379 1_455 S
C1434 C1431 1.363 . S
C1434 N1432 1.356 . S
C1435 C1429 1.363 . S
C1435 C1430 1.379 1_655 S
C1435 N1433 1.356 . S
N1436 C1428 1.356 . S
N1436 H1442 0.984 . S
N1436 H1443 0.984 . S
N1437 C1430 1.356 . S
N1437 H1440 0.984 . S
N1437 H1441 0.985 . S
H1438 N1433 0.984 . S
H1439 N1433 0.985 . S
H1440 N1437 0.984 . S
H1441 N1437 0.985 . S
H1442 N1436 0.984 . S
H1443 N1436 0.984 . S
H1444 N1432 0.984 . S
H1445 N1432 0.985 . S
C1446 C1447 1.363 . S
C1446 C1452 1.379 . S
C1446 N1454 1.356 . S
C1447 C1446 1.363 . S
C1447 C1453 1.363 . S
C1448 C1449 1.363 . S
C1448 C1453 1.379 . S
C1448 N1455 1.356 . S
C1449 C1448 1.363 . S
C1449 C1452 1.363 . S
N1450 C1452 1.356 . S
N1450 H1462 0.984 . S
N1450 H1463 0.985 . S
N1451 C1453 1.356 . S
N1451 H1456 0.984 . S
N1451 H1457 0.985 . S
C1452 C1446 1.379 . S
C1452 C1449 1.363 . S
C1452 N1450 1.356 . S
C1453 C1447 1.363 . S
C1453 C1448 1.379 . S
C1453 N1451 1.356 . S
N1454 C1446 1.356 . S
N1454 H1460 0.984 . S
N1454 H1461 0.984 . S
N1455 C1448 1.356 . S
N1455 H1458 0.984 . S
N1455 H1459 0.985 . S
H1456 N1451 0.984 . S
H1457 N1451 0.985 . S
H1458 N1455 0.984 . S
H1459 N1455 0.985 . S
H1460 N1454 0.984 . S
H1461 N1454 0.984 . S
H1462 N1450 0.984 . S
H1463 N1450 0.985 . S
C1464 C1465 1.363 . S
C1464 C1470 1.379 1_455 S
C1464 N1472 1.356 . S
C1465 C1464 1.363 . S
C1465 C1471 1.363 1_565 S
C1466 C1467 1.363 . S
C1466 C1471 1.379 1_655 S
C1466 N1473 1.356 . S
C1467 C1466 1.363 . S
C1467 C1470 1.363 1_545 S
N1468 C1470 1.357 . S
N1468 H1480 0.990 . S
N1468 H1481 0.979 1_565 S
N1469 C1471 1.357 . S
N1469 H1474 0.979 1_545 S
N1469 H1475 0.990 . S
C1470 C1464 1.379 1_655 S
C1470 C1467 1.363 1_565 S
C1470 N1468 1.357 . S
C1471 C1465 1.363 1_545 S
C1471 C1466 1.379 1_455 S
C1471 N1469 1.357 . S
N1472 C1464 1.356 . S
N1472 H1478 0.984 . S
N1472 H1479 0.984 . S
N1473 C1466 1.356 . S
N1473 H1476 0.984 . S
N1473 H1477 0.985 . S
H1474 N1469 0.979 1_565 S
H1475 N1469 0.990 . S
H1476 N1473 0.984 . S
H1477 N1473 0.985 . S
H1478 N1472 0.984 . S
H1479 N1472 0.984 . S
H1480 N1468 0.990 . S
H1481 N1468 0.979 1_545 S
C1482 C1483 1.363 . S
C1482 C1488 1.379 . S
C1482 N1490 1.356 . S
C1483 C1482 1.363 . S
C1483 C1489 1.363 . S
C1484 C1485 1.363 . S
C1484 C1489 1.379 . S
C1484 N1491 1.356 . S
C1485 C1484 1.363 . S
C1485 C1488 1.363 . S
N1486 C1488 1.356 . S
N1486 H1498 0.984 . S
N1486 H1499 0.985 . S
N1487 C1489 1.356 . S
N1487 H1492 0.984 . S
N1487 H1493 0.985 . S
C1488 C1482 1.379 . S
C1488 C1485 1.363 . S
C1488 N1486 1.356 . S
C1489 C1483 1.363 . S
C1489 C1484 1.379 . S
C1489 N1487 1.356 . S
N1490 C1482 1.356 . S
N1490 H1496 0.984 . S
N1490 H1497 0.984 . S
N1491 C1484 1.356 . S
N1491 H1494 0.984 . S
N1491 H1495 0.985 . S
H1492 N1487 0.984 . S
H1493 N1487 0.985 . S
H1494 N1491 0.984 . S
H1495 N1491 0.985 . S
H1496 N1490 0.984 . S
H1497 N1490 0.984 . S
H1498 N1486 0.984 . S
H1499 N1486 0.985 . S
C1500 C1501 1.363 . S
C1500 C1506 1.379 1_455 S
C1500 N1508 1.356 . S
C1501 C1500 1.363 . S
C1501 C1507 1.363 . S
C1502 C1503 1.363 . S
C1502 C1507 1.379 1_655 S
C1502 N1509 1.356 . S
C1503 C1502 1.363 . S
C1503 C1506 1.363 . S
N1504 C1506 1.356 . S
N1504 H1516 0.984 . S
N1504 H1517 0.985 . S
N1505 C1507 1.356 . S
N1505 H1510 0.984 . S
N1505 H1511 0.985 . S
C1506 C1500 1.379 1_655 S
C1506 C1503 1.363 . S
C1506 N1504 1.356 . S
C1507 C1501 1.363 . S
C1507 C1502 1.379 1_455 S
C1507 N1505 1.356 . S
N1508 C1500 1.356 . S
N1508 H1514 0.984 . S
N1508 H1515 0.984 . S
N1509 C1502 1.356 . S
N1509 H1512 0.984 . S
N1509 H1513 0.985 . S
H1510 N1505 0.984 . S
H1511 N1505 0.985 . S
H1512 N1509 0.984 . S
H1513 N1509 0.985 . S
H1514 N1508 0.984 . S
H1515 N1508 0.984 . S
H1516 N1504 0.984 . S
H1517 N1504 0.985 . S
C1518 C1519 1.363 . S
C1518 C1524 1.379 . S
C1518 N1526 1.356 . S
C1519 C1518 1.363 . S
C1519 C1525 1.363 . S
C1520 C1521 1.363 . S
C1520 C1525 1.379 . S
C1520 N1527 1.356 . S
C1521 C1520 1.363 . S
C1521 C1524 1.363 . S
N1522 C1524 1.356 . S
N1522 H1534 0.984 . S
N1522 H1535 0.985 . S
N1523 C1525 1.356 . S
N1523 H1528 0.984 . S
N1523 H1529 0.985 . S
C1524 C1518 1.379 . S
C1524 C1521 1.363 . S
C1524 N1522 1.356 . S
C1525 C1519 1.363 . S
C1525 C1520 1.379 . S
C1525 N1523 1.356 . S
N1526 C1518 1.356 . S
N1526 H1532 0.984 . S
N1526 H1533 0.984 . S
N1527 C1520 1.356 . S
N1527 H1530 0.984 . S
N1527 H1531 0.985 . S
H1528 N1523 0.984 . S
H1529 N1523 0.985 . S
H1530 N1527 0.984 . S
H1531 N1527 0.985 . S
H1532 N1526 0.984 . S
H1533 N1526 0.984 . S
H1534 N1522 0.984 . S
H1535 N1522 0.985 . S
C1536 C1537 1.363 1_554 S
C1536 C1542 1.379 1_565 S
C1536 N1544 1.356 1_554 S
C1537 C1536 1.363 1_556 S
C1537 C1543 1.363 . S
C1538 C1539 1.363 1_556 S
C1538 C1543 1.379 1_545 S
C1538 N1545 1.356 1_556 S
C1539 C1538 1.363 1_554 S
C1539 C1542 1.363 . S
N1540 C1542 1.356 . S
N1540 H1552 0.984 . S
N1540 H1553 0.985 . S
N1541 C1543 1.356 . S
N1541 H1546 0.984 . S
N1541 H1547 0.985 . S
C1542 C1536 1.379 1_545 S
C1542 C1539 1.363 . S
C1542 N1540 1.356 . S
C1543 C1537 1.363 . S
C1543 C1538 1.379 1_565 S
C1543 N1541 1.356 . S
N1544 C1536 1.356 1_556 S
N1544 H1550 0.984 1_556 S
N1544 H1551 0.984 . S
N1545 C1538 1.356 1_554 S
N1545 H1548 0.984 . S
N1545 H1549 0.985 1_554 S
H1546 N1541 0.984 . S
H1547 N1541 0.985 . S
H1548 N1545 0.984 . S
H1549 N1545 0.985 1_556 S
H1550 N1544 0.984 1_554 S
H1551 N1544 0.984 . S
H1552 N1540 0.984 . S
H1553 N1540 0.985 . S
C1554 C1555 1.363 . S
C1554 C1560 1.379 1_545 S
C1554 N1562 1.356 . S
C1555 C1554 1.363 . S
C1555 C1561 1.363 . S
C1556 C1557 1.363 . S
C1556 C1561 1.379 1_565 S
C1556 N1563 1.356 . S
C1557 C1556 1.363 . S
C1557 C1560 1.363 . S
N1558 C1560 1.356 . S
N1558 H1570 0.984 . S
N1558 H1571 0.985 . S
N1559 C1561 1.356 . S
N1559 H1564 0.984 . S
N1559 H1565 0.985 . S
C1560 C1554 1.379 1_565 S
C1560 C1557 1.363 . S
C1560 N1558 1.356 . S
C1561 C1555 1.363 . S
C1561 C1556 1.379 1_545 S
C1561 N1559 1.356 . S
N1562 C1554 1.356 . S
N1562 H1568 0.984 . S
N1562 H1569 0.984 . S
N1563 C1556 1.356 . S
N1563 H1566 0.984 . S
N1563 H1567 0.985 . S
H1564 N1559 0.984 . S
H1565 N1559 0.985 . S
H1566 N1563 0.984 . S
H1567 N1563 0.985 . S
H1568 N1562 0.984 . S
H1569 N1562 0.984 . S
H1570 N1558 0.984 . S
H1571 N1558 0.985 . S
C1572 C1573 1.363 . S
C1572 C1578 1.379 . S
C1572 N1580 1.356 . S
C1573 C1572 1.363 . S
C1573 C1579 1.363 . S
C1574 C1575 1.363 . S
C1574 C1579 1.379 . S
C1574 N1581 1.356 . S
C1575 C1574 1.363 . S
C1575 C1578 1.363 . S
N1576 C1578 1.356 . S
N1576 H1588 0.984 . S
N1576 H1589 0.985 . S
N1577 C1579 1.356 . S
N1577 H1582 0.984 . S
N1577 H1583 0.985 . S
C1578 C1572 1.379 . S
C1578 C1575 1.363 . S
C1578 N1576 1.356 . S
C1579 C1573 1.363 . S
C1579 C1574 1.379 . S
C1579 N1577 1.356 . S
N1580 C1572 1.356 . S
N1580 H1586 0.984 . S
N1580 H1587 0.984 . S
N1581 C1574 1.356 . S
N1581 H1584 0.984 . S
N1581 H1585 0.985 . S
H1582 N1577 0.984 . S
H1583 N1577 0.985 . S
H1584 N1581 0.984 . S
H1585 N1581 0.985 . S
H1586 N1580 0.984 . S
H1587 N1580 0.984 . S
H1588 N1576 0.984 . S
H1589 N1576 0.985 . S
C1590 C1591 1.363 . S
C1590 C1596 1.379 . S
C1590 N1598 1.356 . S
C1591 C1590 1.363 . S
C1591 C1597 1.363 1_554 S
C1592 C1593 1.363 . S
C1592 C1597 1.379 . S
C1592 N1599 1.356 . S
C1593 C1592 1.363 . S
C1593 C1596 1.363 1_556 S
N1594 C1596 1.356 . S
N1594 H1606 0.984 . S
N1594 H1607 0.985 1_554 S
N1595 C1597 1.356 . S
N1595 H1600 0.984 1_556 S
N1595 H1601 0.985 . S
C1596 C1590 1.379 . S
C1596 C1593 1.363 1_554 S
C1596 N1594 1.356 . S
C1597 C1591 1.363 1_556 S
C1597 C1592 1.379 . S
C1597 N1595 1.356 . S
N1598 C1590 1.356 . S
N1598 H1604 0.984 . S
N1598 H1605 0.984 . S
N1599 C1592 1.356 . S
N1599 H1602 0.984 . S
N1599 H1603 0.985 . S
H1600 N1595 0.984 1_554 S
H1601 N1595 0.985 . S
H1602 N1599 0.984 . S
H1603 N1599 0.985 . S
H1604 N1598 0.984 . S
H1605 N1598 0.984 . S
H1606 N1594 0.984 . S
H1607 N1594 0.985 1_556 S
C1608 C1609 1.363 . S
C1608 C1614 1.379 . S
C1608 N1616 1.356 . S
C1609 C1608 1.363 . S
C1609 C1615 1.363 . S
C1610 C1611 1.363 . S
C1610 C1615 1.379 . S
C1610 N1617 1.356 . S
C1611 C1610 1.363 . S
C1611 C1614 1.363 . S
N1612 C1614 1.356 . S
N1612 H1624 0.984 . S
N1612 H1625 0.985 . S
N1613 C1615 1.356 . S
N1613 H1618 0.984 . S
N1613 H1619 0.985 . S
C1614 C1608 1.379 . S
C1614 C1611 1.363 . S
C1614 N1612 1.356 . S
C1615 C1609 1.363 . S
C1615 C1610 1.379 . S
C1615 N1613 1.356 . S
N1616 C1608 1.356 . S
N1616 H1622 0.984 . S
N1616 H1623 0.984 . S
N1617 C1610 1.356 . S
N1617 H1620 0.984 . S
N1617 H1621 0.985 . S
H1618 N1613 0.984 . S
H1619 N1613 0.985 . S
H1620 N1617 0.984 . S
H1621 N1617 0.985 . S
H1622 N1616 0.984 . S
H1623 N1616 0.984 . S
H1624 N1612 0.984 . S
H1625 N1612 0.985 . S
C1626 C1627 1.387 . S
C1626 C1632 1.355 1_565 S
C1626 N1634 1.365 . S
C1627 C1626 1.387 . S
C1627 C1633 1.363 1_554 S
C1628 C1629 1.387 . S
C1628 C1633 1.355 1_545 S
C1628 N1635 1.365 . S
C1629 C1628 1.387 . S
C1629 C1632 1.363 1_556 S
N1630 C1632 1.356 . S
N1630 H1642 0.984 . S
N1630 H1643 0.985 1_554 S
N1631 C1633 1.356 . S
N1631 H1636 0.984 1_556 S
N1631 H1637 0.985 . S
C1632 C1626 1.355 1_545 S
C1632 C1629 1.363 1_554 S
C1632 N1630 1.356 . S
C1633 C1627 1.363 1_556 S
C1633 C1628 1.355 1_565 S
C1633 N1631 1.356 . S
N1634 C1626 1.365 . S
N1634 H1640 0.984 1_565 S
N1634 H1641 0.984 . S
N1635 C1628 1.365 . S
N1635 H1638 0.984 . S
N1635 H1639 0.985 1_545 S
H1636 N1631 0.984 1_554 S
H1637 N1631 0.985 . S
H1638 N1635 0.984 . S
H1639 N1635 0.985 1_565 S
H1640 N1634 0.984 1_545 S
H1641 N1634 0.984 . S
H1642 N1630 0.984 . S
H1643 N1630 0.985 1_556 S
C1644 C1645 1.363 . S
C1644 C1650 1.379 . S
C1644 N1652 1.356 . S
C1645 C1644 1.363 . S
C1645 C1651 1.363 . S
C1646 C1647 1.363 . S
C1646 C1651 1.379 . S
C1646 N1653 1.356 . S
C1647 C1646 1.363 . S
C1647 C1650 1.363 . S
N1648 C1650 1.356 . S
N1648 H1660 0.984 . S
N1648 H1661 0.985 . S
N1649 C1651 1.356 . S
N1649 H1654 0.984 . S
N1649 H1655 0.985 . S
C1650 C1644 1.379 . S
C1650 C1647 1.363 . S
C1650 N1648 1.356 . S
C1651 C1645 1.363 . S
C1651 C1646 1.379 . S
C1651 N1649 1.356 . S
N1652 C1644 1.356 . S
N1652 H1658 0.984 . S
N1652 H1659 0.984 . S
N1653 C1646 1.356 . S
N1653 H1656 0.984 . S
N1653 H1657 0.985 . S
H1654 N1649 0.984 . S
H1655 N1649 0.985 . S
H1656 N1653 0.984 . S
H1657 N1653 0.985 . S
H1658 N1652 0.984 . S
H1659 N1652 0.984 . S
H1660 N1648 0.984 . S
H1661 N1648 0.985 . S
C1662 C1663 1.363 . S
C1662 C1668 1.379 . S
C1662 N1670 1.356 . S
C1663 C1662 1.363 . S
C1663 C1669 1.363 . S
C1664 C1665 1.363 . S
C1664 C1669 1.379 . S
C1664 N1671 1.356 . S
C1665 C1664 1.363 . S
C1665 C1668 1.363 . S
N1666 C1668 1.356 . S
N1666 H1678 0.984 . S
N1666 H1679 0.985 . S
N1667 C1669 1.356 . S
N1667 H1672 0.984 . S
N1667 H1673 0.985 . S
C1668 C1662 1.379 . S
C1668 C1665 1.363 . S
C1668 N1666 1.356 . S
C1669 C1663 1.363 . S
C1669 C1664 1.379 . S
C1669 N1667 1.356 . S
N1670 C1662 1.356 . S
N1670 H1676 0.984 . S
N1670 H1677 0.984 . S
N1671 C1664 1.356 . S
N1671 H1674 0.984 . S
N1671 H1675 0.985 . S
H1672 N1667 0.984 . S
H1673 N1667 0.985 . S
H1674 N1671 0.984 . S
H1675 N1671 0.985 . S
H1676 N1670 0.984 . S
H1677 N1670 0.984 . S
H1678 N1666 0.984 . S
H1679 N1666 0.985 . S
C1680 C1681 1.363 . S
C1680 C1686 1.379 . S
C1680 N1688 1.356 . S
C1681 C1680 1.363 . S
C1681 C1687 1.363 . S
C1682 C1683 1.363 . S
C1682 C1687 1.379 . S
C1682 N1689 1.356 . S
C1683 C1682 1.363 . S
C1683 C1686 1.363 . S
N1684 C1686 1.356 . S
N1684 H1696 0.984 . S
N1684 H1697 0.985 . S
N1685 C1687 1.356 . S
N1685 H1690 0.984 . S
N1685 H1691 0.985 . S
C1686 C1680 1.379 . S
C1686 C1683 1.363 . S
C1686 N1684 1.356 . S
C1687 C1681 1.363 . S
C1687 C1682 1.379 . S
C1687 N1685 1.356 . S
N1688 C1680 1.356 . S
N1688 H1694 0.984 . S
N1688 H1695 0.984 . S
N1689 C1682 1.356 . S
N1689 H1692 0.984 . S
N1689 H1693 0.985 . S
H1690 N1685 0.984 . S
H1691 N1685 0.985 . S
H1692 N1689 0.984 . S
H1693 N1689 0.985 . S
H1694 N1688 0.984 . S
H1695 N1688 0.984 . S
H1696 N1684 0.984 . S
H1697 N1684 0.985 . S
C1698 C1699 1.363 . S
C1698 C1704 1.379 . S
C1698 N1706 1.356 . S
C1699 C1698 1.363 . S
C1699 C1705 1.363 . S
C1700 C1701 1.363 . S
C1700 C1705 1.379 . S
C1700 N1707 1.356 . S
C1701 C1700 1.363 . S
C1701 C1704 1.363 . S
N1702 C1704 1.356 . S
N1702 H1714 0.984 . S
N1702 H1715 0.985 . S
N1703 C1705 1.356 . S
N1703 H1708 0.984 . S
N1703 H1709 0.985 . S
C1704 C1698 1.379 . S
C1704 C1701 1.363 . S
C1704 N1702 1.356 . S
C1705 C1699 1.363 . S
C1705 C1700 1.379 . S
C1705 N1703 1.356 . S
N1706 C1698 1.356 . S
N1706 H1712 0.984 . S
N1706 H1713 0.984 . S
N1707 C1700 1.356 . S
N1707 H1710 0.984 . S
N1707 H1711 0.985 . S
H1708 N1703 0.984 . S
H1709 N1703 0.985 . S
H1710 N1707 0.984 . S
H1711 N1707 0.985 . S
H1712 N1706 0.984 . S
H1713 N1706 0.984 . S
H1714 N1702 0.984 . S
H1715 N1702 0.985 . S
C1716 C1717 1.363 . S
C1716 C1722 1.379 . S
C1716 N1724 1.356 . S
C1717 C1716 1.363 . S
C1717 C1723 1.363 . S
C1718 C1719 1.363 . S
C1718 C1723 1.379 . S
C1718 N1725 1.356 . S
C1719 C1718 1.363 . S
C1719 C1722 1.363 . S
N1720 C1722 1.356 . S
N1720 H1732 0.984 . S
N1720 H1733 0.985 . S
N1721 C1723 1.356 . S
N1721 H1726 0.984 . S
N1721 H1727 0.985 . S
C1722 C1716 1.379 . S
C1722 C1719 1.363 . S
C1722 N1720 1.356 . S
C1723 C1717 1.363 . S
C1723 C1718 1.379 . S
C1723 N1721 1.356 . S
N1724 C1716 1.356 . S
N1724 H1730 0.984 . S
N1724 H1731 0.984 . S
N1725 C1718 1.356 . S
N1725 H1728 0.984 . S
N1725 H1729 0.985 . S
H1726 N1721 0.984 . S
H1727 N1721 0.985 . S
H1728 N1725 0.984 . S
H1729 N1725 0.985 . S
H1730 N1724 0.984 . S
H1731 N1724 0.984 . S
H1732 N1720 0.984 . S
H1733 N1720 0.985 . S
C1734 C1735 1.363 . S
C1734 C1740 1.379 . S
C1734 N1742 1.356 . S
C1735 C1734 1.363 . S
C1735 C1741 1.363 . S
C1736 C1737 1.363 . S
C1736 C1741 1.379 . S
C1736 N1743 1.356 . S
C1737 C1736 1.363 . S
C1737 C1740 1.363 . S
N1738 C1740 1.356 . S
N1738 H1750 0.984 . S
N1738 H1751 0.985 . S
N1739 C1741 1.356 . S
N1739 H1744 0.984 . S
N1739 H1745 0.985 . S
C1740 C1734 1.379 . S
C1740 C1737 1.363 . S
C1740 N1738 1.356 . S
C1741 C1735 1.363 . S
C1741 C1736 1.379 . S
C1741 N1739 1.356 . S
N1742 C1734 1.356 . S
N1742 H1748 0.984 . S
N1742 H1749 0.984 . S
N1743 C1736 1.356 . S
N1743 H1746 0.984 . S
N1743 H1747 0.985 . S
H1744 N1739 0.984 . S
H1745 N1739 0.985 . S
H1746 N1743 0.984 . S
H1747 N1743 0.985 . S
H1748 N1742 0.984 . S
H1749 N1742 0.984 . S
H1750 N1738 0.984 . S
H1751 N1738 0.985 . S
C1752 C1753 1.363 . S
C1752 C1758 1.379 . S
C1752 N1760 1.356 . S
C1753 C1752 1.363 . S
C1753 C1759 1.363 . S
C1754 C1755 1.363 . S
C1754 C1759 1.379 . S
C1754 N1761 1.356 . S
C1755 C1754 1.363 . S
C1755 C1758 1.363 . S
N1756 C1758 1.356 . S
N1756 H1768 0.984 . S
N1756 H1769 0.985 . S
N1757 C1759 1.356 . S
N1757 H1762 0.984 . S
N1757 H1763 0.985 . S
C1758 C1752 1.379 . S
C1758 C1755 1.363 . S
C1758 N1756 1.356 . S
C1759 C1753 1.363 . S
C1759 C1754 1.379 . S
C1759 N1757 1.356 . S
N1760 C1752 1.356 . S
N1760 H1766 0.984 . S
N1760 H1767 0.984 . S
N1761 C1754 1.356 . S
N1761 H1764 0.984 . S
N1761 H1765 0.985 . S
H1762 N1757 0.984 . S
H1763 N1757 0.985 . S
H1764 N1761 0.984 . S
H1765 N1761 0.985 . S
H1766 N1760 0.984 . S
H1767 N1760 0.984 . S
H1768 N1756 0.984 . S
H1769 N1756 0.985 . S
C1770 C1771 1.363 . S
C1770 C1776 1.379 . S
C1770 N1778 1.356 . S
C1771 C1770 1.363 . S
C1771 C1777 1.363 . S
C1772 C1773 1.363 . S
C1772 C1777 1.379 . S
C1772 N1779 1.356 . S
C1773 C1772 1.363 . S
C1773 C1776 1.363 . S
N1774 C1776 1.356 . S
N1774 H1786 0.984 . S
N1774 H1787 0.985 . S
N1775 C1777 1.356 . S
N1775 H1780 0.984 . S
N1775 H1781 0.985 . S
C1776 C1770 1.379 . S
C1776 C1773 1.363 . S
C1776 N1774 1.356 . S
C1777 C1771 1.363 . S
C1777 C1772 1.379 . S
C1777 N1775 1.356 . S
N1778 C1770 1.356 . S
N1778 H1784 0.984 . S
N1778 H1785 0.984 . S
N1779 C1772 1.356 . S
N1779 H1782 0.984 . S
N1779 H1783 0.985 . S
H1780 N1775 0.984 . S
H1781 N1775 0.985 . S
H1782 N1779 0.984 . S
H1783 N1779 0.985 . S
H1784 N1778 0.984 . S
H1785 N1778 0.984 . S
H1786 N1774 0.984 . S
H1787 N1774 0.985 . S
C1788 C1789 1.363 . S
C1788 C1794 1.379 . S
C1788 N1796 1.356 . S
C1789 C1788 1.363 . S
C1789 C1795 1.363 . S
C1790 C1791 1.363 . S
C1790 C1795 1.379 . S
C1790 N1797 1.356 . S
C1791 C1790 1.363 . S
C1791 C1794 1.363 . S
N1792 C1794 1.356 . S
N1792 H1804 0.984 . S
N1792 H1805 0.985 . S
N1793 C1795 1.356 . S
N1793 H1798 0.984 . S
N1793 H1799 0.985 . S
C1794 C1788 1.379 . S
C1794 C1791 1.363 . S
C1794 N1792 1.356 . S
C1795 C1789 1.363 . S
C1795 C1790 1.379 . S
C1795 N1793 1.356 . S
N1796 C1788 1.356 . S
N1796 H1802 0.984 . S
N1796 H1803 0.984 . S
N1797 C1790 1.356 . S
N1797 H1800 0.984 . S
N1797 H1801 0.985 . S
H1798 N1793 0.984 . S
H1799 N1793 0.985 . S
H1800 N1797 0.984 . S
H1801 N1797 0.985 . S
H1802 N1796 0.984 . S
H1803 N1796 0.984 . S
H1804 N1792 0.984 . S
H1805 N1792 0.985 . S
C1806 C1807 1.363 . S
C1806 C1812 1.379 . S
C1806 N1814 1.356 . S
C1807 C1806 1.363 . S
C1807 C1813 1.363 . S
C1808 C1809 1.363 . S
C1808 C1813 1.379 . S
C1808 N1815 1.356 . S
C1809 C1808 1.363 . S
C1809 C1812 1.363 . S
N1810 C1812 1.356 . S
N1810 H1822 0.984 . S
N1810 H1823 0.985 . S
N1811 C1813 1.356 . S
N1811 H1816 0.984 . S
N1811 H1817 0.985 . S
C1812 C1806 1.379 . S
C1812 C1809 1.363 . S
C1812 N1810 1.356 . S
C1813 C1807 1.363 . S
C1813 C1808 1.379 . S
C1813 N1811 1.356 . S
N1814 C1806 1.356 . S
N1814 H1820 0.984 . S
N1814 H1821 0.984 . S
N1815 C1808 1.356 . S
N1815 H1818 0.984 . S
N1815 H1819 0.985 . S
H1816 N1811 0.984 . S
H1817 N1811 0.985 . S
H1818 N1815 0.984 . S
H1819 N1815 0.985 . S
H1820 N1814 0.984 . S
H1821 N1814 0.984 . S
H1822 N1810 0.984 . S
H1823 N1810 0.985 . S
C1824 C1825 1.363 . S
C1824 C1830 1.379 . S
C1824 N1832 1.356 . S
C1825 C1824 1.363 . S
C1825 C1831 1.363 . S
C1826 C1827 1.363 . S
C1826 C1831 1.379 . S
C1826 N1833 1.356 . S
C1827 C1826 1.363 . S
C1827 C1830 1.363 . S
N1828 C1830 1.356 . S
N1828 H1840 0.984 . S
N1828 H1841 0.985 . S
N1829 C1831 1.356 . S
N1829 H1834 0.984 . S
N1829 H1835 0.985 . S
C1830 C1824 1.379 . S
C1830 C1827 1.363 . S
C1830 N1828 1.356 . S
C1831 C1825 1.363 . S
C1831 C1826 1.379 . S
C1831 N1829 1.356 . S
N1832 C1824 1.356 . S
N1832 H1838 0.984 . S
N1832 H1839 0.984 . S
N1833 C1826 1.356 . S
N1833 H1836 0.984 . S
N1833 H1837 0.985 . S
H1834 N1829 0.984 . S
H1835 N1829 0.985 . S
H1836 N1833 0.984 . S
H1837 N1833 0.985 . S
H1838 N1832 0.984 . S
H1839 N1832 0.984 . S
H1840 N1828 0.984 . S
H1841 N1828 0.985 . S
C1842 C1843 1.363 . S
C1842 C1848 1.379 . S
C1842 N1850 1.356 . S
C1843 C1842 1.363 . S
C1843 C1849 1.363 1_556 S
C1844 C1845 1.363 . S
C1844 C1849 1.379 . S
C1844 N1851 1.356 . S
C1845 C1844 1.363 . S
C1845 C1848 1.363 1_554 S
N1846 C1848 1.356 . S
N1846 H1858 0.984 . S
N1846 H1859 0.985 1_556 S
N1847 C1849 1.356 . S
N1847 H1852 0.984 1_554 S
N1847 H1853 0.985 . S
C1848 C1842 1.379 . S
C1848 C1845 1.363 1_556 S
C1848 N1846 1.356 . S
C1849 C1843 1.363 1_554 S
C1849 C1844 1.379 . S
C1849 N1847 1.356 . S
N1850 C1842 1.356 . S
N1850 H1856 0.984 . S
N1850 H1857 0.984 . S
N1851 C1844 1.356 . S
N1851 H1854 0.984 . S
N1851 H1855 0.985 . S
H1852 N1847 0.984 1_556 S
H1853 N1847 0.985 . S
H1854 N1851 0.984 . S
H1855 N1851 0.985 . S
H1856 N1850 0.984 . S
H1857 N1850 0.984 . S
H1858 N1846 0.984 . S
H1859 N1846 0.985 1_554 S
C1860 C1861 1.363 . S
C1860 C1866 1.379 . S
C1860 N1868 1.356 . S
C1861 C1860 1.363 . S
C1861 C1867 1.363 . S
C1862 C1863 1.363 . S
C1862 C1867 1.379 . S
C1862 N1869 1.356 . S
C1863 C1862 1.363 . S
C1863 C1866 1.363 . S
N1864 C1866 1.356 . S
N1864 H1876 0.984 . S
N1864 H1877 0.985 . S
N1865 C1867 1.356 . S
N1865 H1870 0.984 . S
N1865 H1871 0.985 . S
C1866 C1860 1.379 . S
C1866 C1863 1.363 . S
C1866 N1864 1.356 . S
C1867 C1861 1.363 . S
C1867 C1862 1.379 . S
C1867 N1865 1.356 . S
N1868 C1860 1.356 . S
N1868 H1874 0.984 . S
N1868 H1875 0.984 . S
N1869 C1862 1.356 . S
N1869 H1872 0.984 . S
N1869 H1873 0.985 . S
H1870 N1865 0.984 . S
H1871 N1865 0.985 . S
H1872 N1869 0.984 . S
H1873 N1869 0.985 . S
H1874 N1868 0.984 . S
H1875 N1868 0.984 . S
H1876 N1864 0.984 . S
H1877 N1864 0.985 . S
C1878 C1879 1.363 . S
C1878 C1884 1.379 1_565 S
C1878 N1886 1.356 . S
C1879 C1878 1.363 . S
C1879 C1885 1.363 . S
C1880 C1881 1.363 . S
C1880 C1885 1.379 1_545 S
C1880 N1887 1.356 . S
C1881 C1880 1.363 . S
C1881 C1884 1.363 . S
N1882 C1884 1.356 . S
N1882 H1894 0.984 1_545 S
N1882 H1895 0.985 . S
N1883 C1885 1.356 . S
N1883 H1888 0.984 . S
N1883 H1889 0.985 1_565 S
C1884 C1878 1.379 1_545 S
C1884 C1881 1.363 . S
C1884 N1882 1.356 . S
C1885 C1879 1.363 . S
C1885 C1880 1.379 1_565 S
C1885 N1883 1.356 . S
N1886 C1878 1.356 . S
N1886 H1892 0.984 . S
N1886 H1893 0.984 . S
N1887 C1880 1.356 . S
N1887 H1890 0.984 . S
N1887 H1891 0.985 . S
H1888 N1883 0.984 . S
H1889 N1883 0.985 1_545 S
H1890 N1887 0.984 . S
H1891 N1887 0.985 . S
H1892 N1886 0.984 . S
H1893 N1886 0.984 . S
H1894 N1882 0.984 1_565 S
H1895 N1882 0.985 . S
C1896 C1897 1.363 . S
C1896 C1902 1.379 . S
C1896 N1904 1.356 . S
C1897 C1896 1.363 . S
C1897 C1903 1.363 . S
C1898 C1899 1.363 . S
C1898 C1903 1.379 . S
C1898 N1905 1.356 . S
C1899 C1898 1.363 . S
C1899 C1902 1.363 . S
N1900 C1902 1.356 . S
N1900 H1912 0.984 . S
N1900 H1913 0.985 . S
N1901 C1903 1.356 . S
N1901 H1906 0.984 . S
N1901 H1907 0.985 . S
C1902 C1896 1.379 . S
C1902 C1899 1.363 . S
C1902 N1900 1.356 . S
C1903 C1897 1.363 . S
C1903 C1898 1.379 . S
C1903 N1901 1.356 . S
N1904 C1896 1.356 . S
N1904 H1910 0.984 . S
N1904 H1911 0.984 . S
N1905 C1898 1.356 . S
N1905 H1908 0.984 . S
N1905 H1909 0.985 . S
H1906 N1901 0.984 . S
H1907 N1901 0.985 . S
H1908 N1905 0.984 . S
H1909 N1905 0.985 . S
H1910 N1904 0.984 . S
H1911 N1904 0.984 . S
H1912 N1900 0.984 . S
H1913 N1900 0.985 . S
C1914 C1915 1.363 . S
C1914 C1920 1.379 . S
C1914 N1922 1.356 . S
C1915 C1914 1.363 . S
C1915 C1921 1.363 . S
C1916 C1917 1.363 . S
C1916 C1921 1.379 . S
C1916 N1923 1.356 . S
C1917 C1916 1.363 . S
C1917 C1920 1.363 . S
N1918 C1920 1.356 . S
N1918 H1930 0.984 . S
N1918 H1931 0.985 . S
N1919 C1921 1.356 . S
N1919 H1924 0.984 . S
N1919 H1925 0.985 . S
C1920 C1914 1.379 . S
C1920 C1917 1.363 . S
C1920 N1918 1.356 . S
C1921 C1915 1.363 . S
C1921 C1916 1.379 . S
C1921 N1919 1.356 . S
N1922 C1914 1.356 . S
N1922 H1928 0.984 . S
N1922 H1929 0.984 . S
N1923 C1916 1.356 . S
N1923 H1926 0.984 . S
N1923 H1927 0.985 . S
H1924 N1919 0.984 . S
H1925 N1919 0.985 . S
H1926 N1923 0.984 . S
H1927 N1923 0.985 . S
H1928 N1922 0.984 . S
H1929 N1922 0.984 . S
H1930 N1918 0.984 . S
H1931 N1918 0.985 . S
C1932 C1933 1.363 . S
C1932 C1938 1.379 . S
C1932 N1940 1.356 . S
C1933 C1932 1.363 . S
C1933 C1939 1.363 . S
C1934 C1935 1.363 . S
C1934 C1939 1.379 . S
C1934 N1941 1.356 . S
C1935 C1934 1.363 . S
C1935 C1938 1.363 . S
N1936 C1938 1.356 . S
N1936 H1948 0.984 . S
N1936 H1949 0.985 . S
N1937 C1939 1.356 . S
N1937 H1942 0.984 . S
N1937 H1943 0.985 . S
C1938 C1932 1.379 . S
C1938 C1935 1.363 . S
C1938 N1936 1.356 . S
C1939 C1933 1.363 . S
C1939 C1934 1.379 . S
C1939 N1937 1.356 . S
N1940 C1932 1.356 . S
N1940 H1946 0.984 . S
N1940 H1947 0.984 . S
N1941 C1934 1.356 . S
N1941 H1944 0.984 . S
N1941 H1945 0.985 . S
H1942 N1937 0.984 . S
H1943 N1937 0.985 . S
H1944 N1941 0.984 . S
H1945 N1941 0.985 . S
H1946 N1940 0.984 . S
H1947 N1940 0.984 . S
H1948 N1936 0.984 . S
H1949 N1936 0.985 . S
C1950 C1951 1.363 . S
C1950 C1956 1.379 1_556 S
C1950 N1958 1.356 . S
C1951 C1950 1.363 . S
C1951 C1957 1.363 . S
C1952 C1953 1.363 . S
C1952 C1957 1.379 1_554 S
C1952 N1959 1.356 . S
C1953 C1952 1.363 . S
C1953 C1956 1.363 . S
N1954 C1956 1.356 . S
N1954 H1966 0.984 . S
N1954 H1967 0.985 . S
N1955 C1957 1.356 . S
N1955 H1960 0.984 . S
N1955 H1961 0.985 . S
C1956 C1950 1.379 1_554 S
C1956 C1953 1.363 . S
C1956 N1954 1.356 . S
C1957 C1951 1.363 . S
C1957 C1952 1.379 1_556 S
C1957 N1955 1.356 . S
N1958 C1950 1.356 . S
N1958 H1964 0.984 . S
N1958 H1965 0.984 . S
N1959 C1952 1.356 . S
N1959 H1962 0.984 . S
N1959 H1963 0.985 . S
H1960 N1955 0.984 . S
H1961 N1955 0.985 . S
H1962 N1959 0.984 . S
H1963 N1959 0.985 . S
H1964 N1958 0.984 . S
H1965 N1958 0.984 . S
H1966 N1954 0.984 . S
H1967 N1954 0.985 . S
C1968 C1969 1.363 . S
C1968 C1974 1.379 . S
C1968 N1976 1.356 . S
C1969 C1968 1.363 . S
C1969 C1975 1.363 . S
C1970 C1971 1.363 . S
C1970 C1975 1.379 . S
C1970 N1977 1.356 . S
C1971 C1970 1.363 . S
C1971 C1974 1.363 . S
N1972 C1974 1.356 . S
N1972 H1984 0.984 . S
N1972 H1985 0.985 . S
N1973 C1975 1.356 . S
N1973 H1978 0.984 . S
N1973 H1979 0.985 . S
C1974 C1968 1.379 . S
C1974 C1971 1.363 . S
C1974 N1972 1.356 . S
C1975 C1969 1.363 . S
C1975 C1970 1.379 . S
C1975 N1973 1.356 . S
N1976 C1968 1.356 . S
N1976 H1982 0.984 . S
N1976 H1983 0.984 . S
N1977 C1970 1.356 . S
N1977 H1980 0.984 . S
N1977 H1981 0.985 . S
H1978 N1973 0.984 . S
H1979 N1973 0.985 . S
H1980 N1977 0.984 . S
H1981 N1977 0.985 . S
H1982 N1976 0.984 . S
H1983 N1976 0.984 . S
H1984 N1972 0.984 . S
H1985 N1972 0.985 . S
C1986 C1987 1.363 . S
C1986 C1992 1.379 1_556 S
C1986 N1994 1.356 . S
C1987 C1986 1.363 . S
C1987 C1993 1.363 . S
C1988 C1989 1.363 . S
C1988 C1993 1.379 1_554 S
C1988 N1995 1.356 . S
C1989 C1988 1.363 . S
C1989 C1992 1.363 . S
N1990 C1992 1.356 . S
N1990 H2002 0.984 . S
N1990 H2003 0.985 . S
N1991 C1993 1.356 . S
N1991 H1996 0.984 . S
N1991 H1997 0.985 . S
C1992 C1986 1.379 1_554 S
C1992 C1989 1.363 . S
C1992 N1990 1.356 . S
C1993 C1987 1.363 . S
C1993 C1988 1.379 1_556 S
C1993 N1991 1.356 . S
N1994 C1986 1.356 . S
N1994 H2000 0.984 . S
N1994 H2001 0.984 . S
N1995 C1988 1.356 . S
N1995 H1998 0.984 . S
N1995 H1999 0.985 . S
H1996 N1991 0.984 . S
H1997 N1991 0.985 . S
H1998 N1995 0.984 . S
H1999 N1995 0.985 . S
H2000 N1994 0.984 . S
H2001 N1994 0.984 . S
H2002 N1990 0.984 . S
H2003 N1990 0.985 . S
C2004 C2005 1.363 1_545 S
C2004 C2010 1.379 . S
C2004 N2012 1.357 . S
C2005 C2004 1.363 1_565 S
C2005 C2011 1.363 . S
C2006 C2007 1.363 1_565 S
C2006 C2011 1.379 . S
C2006 N2013 1.357 . S
C2007 C2006 1.363 1_545 S
C2007 C2010 1.363 . S
N2008 C2010 1.356 . S
N2008 H2020 0.984 . S
N2008 H2021 0.985 . S
N2009 C2011 1.356 . S
N2009 H2014 0.984 . S
N2009 H2015 0.985 . S
C2010 C2004 1.379 . S
C2010 C2007 1.363 . S
C2010 N2008 1.356 . S
C2011 C2005 1.363 . S
C2011 C2006 1.379 . S
C2011 N2009 1.356 . S
N2012 C2004 1.357 . S
N2012 H2018 0.990 . S
N2012 H2019 0.979 1_545 S
N2013 C2006 1.357 . S
N2013 H2016 0.979 1_565 S
N2013 H2017 0.990 . S
H2014 N2009 0.984 . S
H2015 N2009 0.985 . S
H2016 N2013 0.979 1_545 S
H2017 N2013 0.990 . S
H2018 N2012 0.990 . S
H2019 N2012 0.979 1_565 S
H2020 N2008 0.984 . S
H2021 N2008 0.985 . S
C2022 C2023 1.363 . S
C2022 C2028 1.379 . S
C2022 N2030 1.356 . S
C2023 C2022 1.363 . S
C2023 C2029 1.363 . S
C2024 C2025 1.363 . S
C2024 C2029 1.379 . S
C2024 N2031 1.356 . S
C2025 C2024 1.363 . S
C2025 C2028 1.363 . S
N2026 C2028 1.356 . S
N2026 H2038 0.984 . S
N2026 H2039 0.985 . S
N2027 C2029 1.356 . S
N2027 H2032 0.984 . S
N2027 H2033 0.985 . S
C2028 C2022 1.379 . S
C2028 C2025 1.363 . S
C2028 N2026 1.356 . S
C2029 C2023 1.363 . S
C2029 C2024 1.379 . S
C2029 N2027 1.356 . S
N2030 C2022 1.356 . S
N2030 H2036 0.984 . S
N2030 H2037 0.984 . S
N2031 C2024 1.356 . S
N2031 H2034 0.984 . S
N2031 H2035 0.985 . S
H2032 N2027 0.984 . S
H2033 N2027 0.985 . S
H2034 N2031 0.984 . S
H2035 N2031 0.985 . S
H2036 N2030 0.984 . S
H2037 N2030 0.984 . S
H2038 N2026 0.984 . S
H2039 N2026 0.985 . S
C2040 C2041 1.363 . S
C2040 C2046 1.379 . S
C2040 N2048 1.356 . S
C2041 C2040 1.363 . S
C2041 C2047 1.363 1_565 S
C2042 C2043 1.363 . S
C2042 C2047 1.379 . S
C2042 N2049 1.356 . S
C2043 C2042 1.363 . S
C2043 C2046 1.363 1_545 S
N2044 C2046 1.357 . S
N2044 H2056 0.990 . S
N2044 H2057 0.979 1_565 S
N2045 C2047 1.357 . S
N2045 H2050 0.979 1_545 S
N2045 H2051 0.990 . S
C2046 C2040 1.379 . S
C2046 C2043 1.363 1_565 S
C2046 N2044 1.357 . S
C2047 C2041 1.363 1_545 S
C2047 C2042 1.379 . S
C2047 N2045 1.357 . S
N2048 C2040 1.356 . S
N2048 H2054 0.984 . S
N2048 H2055 0.984 . S
N2049 C2042 1.356 . S
N2049 H2052 0.984 . S
N2049 H2053 0.985 . S
H2050 N2045 0.979 1_565 S
H2051 N2045 0.990 . S
H2052 N2049 0.984 . S
H2053 N2049 0.985 . S
H2054 N2048 0.984 . S
H2055 N2048 0.984 . S
H2056 N2044 0.990 . S
H2057 N2044 0.979 1_545 S
C2058 C2059 1.363 . S
C2058 C2064 1.379 . S
C2058 N2066 1.356 . S
C2059 C2058 1.363 . S
C2059 C2065 1.363 . S
C2060 C2061 1.363 . S
C2060 C2065 1.379 . S
C2060 N2067 1.356 . S
C2061 C2060 1.363 . S
C2061 C2064 1.363 . S
N2062 C2064 1.356 . S
N2062 H2074 0.984 . S
N2062 H2075 0.985 . S
N2063 C2065 1.356 . S
N2063 H2068 0.984 . S
N2063 H2069 0.985 . S
C2064 C2058 1.379 . S
C2064 C2061 1.363 . S
C2064 N2062 1.356 . S
C2065 C2059 1.363 . S
C2065 C2060 1.379 . S
C2065 N2063 1.356 . S
N2066 C2058 1.356 . S
N2066 H2072 0.984 . S
N2066 H2073 0.984 . S
N2067 C2060 1.356 . S
N2067 H2070 0.984 . S
N2067 H2071 0.985 . S
H2068 N2063 0.984 . S
H2069 N2063 0.985 . S
H2070 N2067 0.984 . S
H2071 N2067 0.985 . S
H2072 N2066 0.984 . S
H2073 N2066 0.984 . S
H2074 N2062 0.984 . S
H2075 N2062 0.985 . S
C2076 C2077 1.363 . S
C2076 C2082 1.379 . S
C2076 N2084 1.356 . S
C2077 C2076 1.363 . S
C2077 C2083 1.363 . S
C2078 C2079 1.363 . S
C2078 C2083 1.379 . S
C2078 N2085 1.356 . S
C2079 C2078 1.363 . S
C2079 C2082 1.363 . S
N2080 C2082 1.356 . S
N2080 H2092 0.984 . S
N2080 H2093 0.985 . S
N2081 C2083 1.356 . S
N2081 H2086 0.984 . S
N2081 H2087 0.985 . S
C2082 C2076 1.379 . S
C2082 C2079 1.363 . S
C2082 N2080 1.356 . S
C2083 C2077 1.363 . S
C2083 C2078 1.379 . S
C2083 N2081 1.356 . S
N2084 C2076 1.356 . S
N2084 H2090 0.984 . S
N2084 H2091 0.984 . S
N2085 C2078 1.356 . S
N2085 H2088 0.984 . S
N2085 H2089 0.985 . S
H2086 N2081 0.984 . S
H2087 N2081 0.985 . S
H2088 N2085 0.984 . S
H2089 N2085 0.985 . S
H2090 N2084 0.984 . S
H2091 N2084 0.984 . S
H2092 N2080 0.984 . S
H2093 N2080 0.985 . S
C2094 C2095 1.363 . S
C2094 C2100 1.379 . S
C2094 N2102 1.356 . S
C2095 C2094 1.363 . S
C2095 C2101 1.363 . S
C2096 C2097 1.363 . S
C2096 C2101 1.379 . S
C2096 N2103 1.356 . S
C2097 C2096 1.363 . S
C2097 C2100 1.363 . S
N2098 C2100 1.356 . S
N2098 H2110 0.984 . S
N2098 H2111 0.985 . S
N2099 C2101 1.356 . S
N2099 H2104 0.984 . S
N2099 H2105 0.985 . S
C2100 C2094 1.379 . S
C2100 C2097 1.363 . S
C2100 N2098 1.356 . S
C2101 C2095 1.363 . S
C2101 C2096 1.379 . S
C2101 N2099 1.356 . S
N2102 C2094 1.356 . S
N2102 H2108 0.984 . S
N2102 H2109 0.984 . S
N2103 C2096 1.356 . S
N2103 H2106 0.984 . S
N2103 H2107 0.985 . S
H2104 N2099 0.984 . S
H2105 N2099 0.985 . S
H2106 N2103 0.984 . S
H2107 N2103 0.985 . S
H2108 N2102 0.984 . S
H2109 N2102 0.984 . S
H2110 N2098 0.984 . S
H2111 N2098 0.985 . S
C2112 C2113 1.363 . S
C2112 C2118 1.379 . S
C2112 N2120 1.356 . S
C2113 C2112 1.363 . S
C2113 C2119 1.363 . S
C2114 C2115 1.363 . S
C2114 C2119 1.379 1_655 S
C2114 N2121 1.356 . S
C2115 C2114 1.363 . S
C2115 C2118 1.363 1_655 S
N2116 C2118 1.356 . S
N2116 H2128 0.984 . S
N2116 H2129 0.985 1_455 S
N2117 C2119 1.356 . S
N2117 H2122 0.984 . S
N2117 H2123 0.985 . S
C2118 C2112 1.379 . S
C2118 C2115 1.363 1_455 S
C2118 N2116 1.356 . S
C2119 C2113 1.363 . S
C2119 C2114 1.379 1_455 S
C2119 N2117 1.356 . S
N2120 C2112 1.356 . S
N2120 H2126 0.984 . S
N2120 H2127 0.984 . S
N2121 C2114 1.356 . S
N2121 H2124 0.984 . S
N2121 H2125 0.985 . S
H2122 N2117 0.984 . S
H2123 N2117 0.985 . S
H2124 N2121 0.984 . S
H2125 N2121 0.985 . S
H2126 N2120 0.984 . S
H2127 N2120 0.984 . S
H2128 N2116 0.984 . S
H2129 N2116 0.985 1_655 S
C2130 C2131 1.363 1_455 S
C2130 C2136 1.379 . S
C2130 N2138 1.356 1_455 S
C2131 C2130 1.363 1_655 S
C2131 C2137 1.366 . S
C2132 C2133 1.363 . S
C2132 C2137 1.372 1_455 S
C2132 N2139 1.356 . S
C2133 C2132 1.363 . S
C2133 C2136 1.363 . S
N2134 C2136 1.356 . S
N2134 H2146 0.984 . S
N2134 H2147 0.985 . S
N2135 C2137 1.362 . S
N2135 H2140 0.984 . S
N2135 H2141 0.985 . S
C2136 C2130 1.379 . S
C2136 C2133 1.363 . S
C2136 N2134 1.356 . S
C2137 C2131 1.366 . S
C2137 C2132 1.372 1_655 S
C2137 N2135 1.362 . S
N2138 C2130 1.356 1_655 S
N2138 H2144 0.995 . S
N2138 H2145 0.984 . S
N2139 C2132 1.356 . S
N2139 H2142 0.984 . S
N2139 H2143 0.985 . S
H2140 N2135 0.984 . S
H2141 N2135 0.985 . S
H2142 N2139 0.984 . S
H2143 N2139 0.985 . S
H2144 N2138 0.995 . S
H2145 N2138 0.984 . S
H2146 N2134 0.984 . S
H2147 N2134 0.985 . S
C2148 C2149 1.363 . S
C2148 C2154 1.379 1_655 S
C2148 N2156 1.356 . S
C2149 C2148 1.363 . S
C2149 C2155 1.363 . S
C2150 C2151 1.363 1_655 S
C2150 C2155 1.379 . S
C2150 N2157 1.356 . S
C2151 C2150 1.363 1_455 S
C2151 C2154 1.363 . S
N2152 C2154 1.356 . S
N2152 H2164 0.984 . S
N2152 H2165 0.985 . S
N2153 C2155 1.356 . S
N2153 H2158 0.984 . S
N2153 H2159 0.985 . S
C2154 C2148 1.379 1_455 S
C2154 C2151 1.363 . S
C2154 N2152 1.356 . S
C2155 C2149 1.363 . S
C2155 C2150 1.379 . S
C2155 N2153 1.356 . S
N2156 C2148 1.356 . S
N2156 H2162 0.984 1_655 S
N2156 H2163 0.984 . S
N2157 C2150 1.356 . S
N2157 H2160 0.984 . S
N2157 H2161 0.985 . S
H2158 N2153 0.984 . S
H2159 N2153 0.985 . S
H2160 N2157 0.984 . S
H2161 N2157 0.985 . S
H2162 N2156 0.984 1_455 S
H2163 N2156 0.984 . S
H2164 N2152 0.984 . S
H2165 N2152 0.985 . S
C2166 C2167 1.363 . S
C2166 C2172 1.379 1_655 S
C2166 N2174 1.356 . S
C2167 C2166 1.363 . S
C2167 C2173 1.363 . S
C2168 C2169 1.363 1_655 S
C2168 C2173 1.379 . S
C2168 N2175 1.356 . S
C2169 C2168 1.363 1_455 S
C2169 C2172 1.363 . S
N2170 C2172 1.356 . S
N2170 H2182 0.984 . S
N2170 H2183 0.985 . S
N2171 C2173 1.356 . S
N2171 H2176 0.984 . S
N2171 H2177 0.985 . S
C2172 C2166 1.379 1_455 S
C2172 C2169 1.363 . S
C2172 N2170 1.356 . S
C2173 C2167 1.363 . S
C2173 C2168 1.379 . S
C2173 N2171 1.356 . S
N2174 C2166 1.356 . S
N2174 H2180 0.984 1_655 S
N2174 H2181 0.984 . S
N2175 C2168 1.356 . S
N2175 H2178 0.984 . S
N2175 H2179 0.985 . S
H2176 N2171 0.984 . S
H2177 N2171 0.985 . S
H2178 N2175 0.984 . S
H2179 N2175 0.985 . S
H2180 N2174 0.984 1_455 S
H2181 N2174 0.984 . S
H2182 N2170 0.984 . S
H2183 N2170 0.985 . S
C2184 C2185 1.363 . S
C2184 C2190 1.379 . S
C2184 N2192 1.356 . S
C2185 C2184 1.363 . S
C2185 C2191 1.363 . S
C2186 C2187 1.363 1_455 S
C2186 C2191 1.379 . S
C2186 N2193 1.356 1_455 S
C2187 C2186 1.363 1_655 S
C2187 C2190 1.363 1_655 S
N2188 C2190 1.356 1_655 S
N2188 H2200 0.984 . S
N2188 H2201 0.985 . S
N2189 C2191 1.356 . S
N2189 H2194 0.984 . S
N2189 H2195 0.985 . S
C2190 C2184 1.379 . S
C2190 C2187 1.363 1_455 S
C2190 N2188 1.356 1_455 S
C2191 C2185 1.363 . S
C2191 C2186 1.379 . S
C2191 N2189 1.356 . S
N2192 C2184 1.356 . S
N2192 H2198 0.984 . S
N2192 H2199 0.984 . S
N2193 C2186 1.356 1_655 S
N2193 H2196 0.984 . S
N2193 H2197 0.985 . S
H2194 N2189 0.984 . S
H2195 N2189 0.985 . S
H2196 N2193 0.984 . S
H2197 N2193 0.985 . S
H2198 N2192 0.984 . S
H2199 N2192 0.984 . S
H2200 N2188 0.984 . S
H2201 N2188 0.985 . S
C2202 C2203 1.363 . S
C2202 C2208 1.379 . S
C2202 N2210 1.356 . S
C2203 C2202 1.363 . S
C2203 C2209 1.363 . S
C2204 C2205 1.363 . S
C2204 C2209 1.379 . S
C2204 N2211 1.356 . S
C2205 C2204 1.363 . S
C2205 C2208 1.363 . S
N2206 C2208 1.356 . S
N2206 H2218 0.984 . S
N2206 H2219 0.985 . S
N2207 C2209 1.356 . S
N2207 H2212 0.984 . S
N2207 H2213 0.985 . S
C2208 C2202 1.379 . S
C2208 C2205 1.363 . S
C2208 N2206 1.356 . S
C2209 C2203 1.363 . S
C2209 C2204 1.379 . S
C2209 N2207 1.356 . S
N2210 C2202 1.356 . S
N2210 H2216 0.984 . S
N2210 H2217 0.984 . S
N2211 C2204 1.356 . S
N2211 H2214 0.984 . S
N2211 H2215 0.985 . S
H2212 N2207 0.984 . S
H2213 N2207 0.985 . S
H2214 N2211 0.984 . S
H2215 N2211 0.985 . S
H2216 N2210 0.984 . S
H2217 N2210 0.984 . S
H2218 N2206 0.984 . S
H2219 N2206 0.985 . S
C2220 C2221 1.363 . S
C2220 C2226 1.379 1_655 S
C2220 N2228 1.356 . S
C2221 C2220 1.363 . S
C2221 C2227 1.363 . S
C2222 C2223 1.363 1_655 S
C2222 C2227 1.379 . S
C2222 N2229 1.356 . S
C2223 C2222 1.363 1_455 S
C2223 C2226 1.363 . S
N2224 C2226 1.356 . S
N2224 H2236 0.984 . S
N2224 H2237 0.985 . S
N2225 C2227 1.356 . S
N2225 H2230 0.984 . S
N2225 H2231 0.985 . S
C2226 C2220 1.379 1_455 S
C2226 C2223 1.363 . S
C2226 N2224 1.356 . S
C2227 C2221 1.363 . S
C2227 C2222 1.379 . S
C2227 N2225 1.356 . S
N2228 C2220 1.356 . S
N2228 H2234 0.984 1_655 S
N2228 H2235 0.984 . S
N2229 C2222 1.356 . S
N2229 H2232 0.984 . S
N2229 H2233 0.985 . S
H2230 N2225 0.984 . S
H2231 N2225 0.985 . S
H2232 N2229 0.984 . S
H2233 N2229 0.985 . S
H2234 N2228 0.984 1_455 S
H2235 N2228 0.984 . S
H2236 N2224 0.984 . S
H2237 N2224 0.985 . S
C2238 C2239 1.363 . S
C2238 C2244 1.379 . S
C2238 N2246 1.356 . S
C2239 C2238 1.363 . S
C2239 C2245 1.363 . S
C2240 C2241 1.363 . S
C2240 C2245 1.379 . S
C2240 N2247 1.356 . S
C2241 C2240 1.363 . S
C2241 C2244 1.363 . S
N2242 C2244 1.356 . S
N2242 H2254 0.984 . S
N2242 H2255 0.985 . S
N2243 C2245 1.356 . S
N2243 H2248 0.984 . S
N2243 H2249 0.985 . S
C2244 C2238 1.379 . S
C2244 C2241 1.363 . S
C2244 N2242 1.356 . S
C2245 C2239 1.363 . S
C2245 C2240 1.379 . S
C2245 N2243 1.356 . S
N2246 C2238 1.356 . S
N2246 H2252 0.984 . S
N2246 H2253 0.984 . S
N2247 C2240 1.356 . S
N2247 H2250 0.984 . S
N2247 H2251 0.985 . S
H2248 N2243 0.984 . S
H2249 N2243 0.985 . S
H2250 N2247 0.984 . S
H2251 N2247 0.985 . S
H2252 N2246 0.984 . S
H2253 N2246 0.984 . S
H2254 N2242 0.984 . S
H2255 N2242 0.985 . S
C2256 C2257 1.363 . S
C2256 C2262 1.379 . S
C2256 N2264 1.356 . S
C2257 C2256 1.363 . S
C2257 C2263 1.363 . S
C2258 C2259 1.363 . S
C2258 C2263 1.379 1_565 S
C2258 N2265 1.356 . S
C2259 C2258 1.363 . S
C2259 C2262 1.363 1_565 S
N2260 C2262 1.356 . S
N2260 H2272 0.984 . S
N2260 H2273 0.985 1_545 S
N2261 C2263 1.356 . S
N2261 H2266 0.984 . S
N2261 H2267 1.011 . S
C2262 C2256 1.379 . S
C2262 C2259 1.363 1_545 S
C2262 N2260 1.356 . S
C2263 C2257 1.363 . S
C2263 C2258 1.379 1_545 S
C2263 N2261 1.356 . S
N2264 C2256 1.356 . S
N2264 H2270 0.984 . S
N2264 H2271 0.984 . S
N2265 C2258 1.356 . S
N2265 H2268 0.984 . S
N2265 H2269 0.985 . S
H2266 N2261 0.984 . S
H2267 N2261 1.011 . S
H2268 N2265 0.984 . S
H2269 N2265 0.985 . S
H2270 N2264 0.984 . S
H2271 N2264 0.984 . S
H2272 N2260 0.984 . S
H2273 N2260 0.985 1_565 S
C2274 C2275 1.363 . S
C2274 C2280 1.379 . S
C2274 N2282 1.356 . S
C2275 C2274 1.363 . S
C2275 C2281 1.363 . S
C2276 C2277 1.363 . S
C2276 C2281 1.379 . S
C2276 N2283 1.356 . S
C2277 C2276 1.363 . S
C2277 C2280 1.363 . S
N2278 C2280 1.356 . S
N2278 H2290 0.984 . S
N2278 H2291 0.985 . S
N2279 C2281 1.356 . S
N2279 H2284 0.984 . S
N2279 H2285 0.985 . S
C2280 C2274 1.379 . S
C2280 C2277 1.363 . S
C2280 N2278 1.356 . S
C2281 C2275 1.363 . S
C2281 C2276 1.379 . S
C2281 N2279 1.356 . S
N2282 C2274 1.356 . S
N2282 H2288 0.984 . S
N2282 H2289 0.984 . S
N2283 C2276 1.356 . S
N2283 H2286 0.984 . S
N2283 H2287 0.985 . S
H2284 N2279 0.984 . S
H2285 N2279 0.985 . S
H2286 N2283 0.984 . S
H2287 N2283 0.985 . S
H2288 N2282 0.984 . S
H2289 N2282 0.984 . S
H2290 N2278 0.984 . S
H2291 N2278 0.985 . S
C2292 C2293 1.363 . S
C2292 C2298 1.379 . S
C2292 N2300 1.356 . S
C2293 C2292 1.363 . S
C2293 C2299 1.363 . S
C2294 C2295 1.363 . S
C2294 C2299 1.379 . S
C2294 N2301 1.356 . S
C2295 C2294 1.363 . S
C2295 C2298 1.363 . S
N2296 C2298 1.356 . S
N2296 H2308 0.984 . S
N2296 H2309 0.985 . S
N2297 C2299 1.356 . S
N2297 H2302 0.984 . S
N2297 H2303 0.985 . S
C2298 C2292 1.379 . S
C2298 C2295 1.363 . S
C2298 N2296 1.356 . S
C2299 C2293 1.363 . S
C2299 C2294 1.379 . S
C2299 N2297 1.356 . S
N2300 C2292 1.356 . S
N2300 H2306 0.984 . S
N2300 H2307 0.984 . S
N2301 C2294 1.356 . S
N2301 H2304 0.984 . S
N2301 H2305 0.985 . S
H2302 N2297 0.984 . S
H2303 N2297 0.985 . S
H2304 N2301 0.984 . S
H2305 N2301 0.985 . S
H2306 N2300 0.984 . S
H2307 N2300 0.984 . S
H2308 N2296 0.984 . S
H2309 N2296 0.985 . S
C2310 C2311 1.363 1_556 S
C2310 C2316 1.379 . S
C2310 N2318 1.356 . S
C2311 C2310 1.363 1_554 S
C2311 C2317 1.363 . S
C2312 C2313 1.363 . S
C2312 C2317 1.379 1_556 S
C2312 N2319 1.356 . S
C2313 C2312 1.363 . S
C2313 C2316 1.363 . S
N2314 C2316 1.356 . S
N2314 H2326 0.984 . S
N2314 H2327 0.985 . S
N2315 C2317 1.356 . S
N2315 H2320 0.984 . S
N2315 H2321 0.985 . S
C2316 C2310 1.379 . S
C2316 C2313 1.363 . S
C2316 N2314 1.356 . S
C2317 C2311 1.363 . S
C2317 C2312 1.379 1_554 S
C2317 N2315 1.356 . S
N2318 C2310 1.356 . S
N2318 H2324 0.984 . S
N2318 H2325 0.984 1_556 S
N2319 C2312 1.356 . S
N2319 H2322 0.984 . S
N2319 H2323 0.984 . S
H2320 N2315 0.984 . S
H2321 N2315 0.985 . S
H2322 N2319 0.984 . S
H2323 N2319 0.984 . S
H2324 N2318 0.984 . S
H2325 N2318 0.984 1_554 S
H2326 N2314 0.984 . S
H2327 N2314 0.985 . S
C2328 C2329 1.363 . S
C2328 C2334 1.400 . S
C2328 N2336 1.356 . S
C2329 C2328 1.363 . S
C2329 C2335 1.363 1_545 S
C2330 C2331 1.363 . S
C2330 C2335 1.379 . S
C2330 N2337 1.356 . S
C2331 C2330 1.363 . S
C2331 C2334 1.327 1_565 S
N2332 C2334 1.361 . S
N2332 H2344 0.984 . S
N2332 H2345 0.985 1_545 S
N2333 C2335 1.356 . S
N2333 H2338 0.984 . S
N2333 H2339 0.985 . S
C2334 C2328 1.400 . S
C2334 C2331 1.327 1_545 S
C2334 N2332 1.361 . S
C2335 C2329 1.363 1_565 S
C2335 C2330 1.379 . S
C2335 N2333 1.356 . S
N2336 C2328 1.356 . S
N2336 H2342 0.984 . S
N2336 H2343 0.984 . S
N2337 C2330 1.356 . S
N2337 H2340 0.984 . S
N2337 H2341 0.985 . S
H2338 N2333 0.984 . S
H2339 N2333 0.985 . S
H2340 N2337 0.984 . S
H2341 N2337 0.985 . S
H2342 N2336 0.984 . S
H2343 N2336 0.984 . S
H2344 N2332 0.984 . S
H2345 N2332 0.985 1_565 S
C2346 C2347 1.363 1_556 S
C2346 C2352 1.379 . S
C2346 N2354 1.356 . S
C2347 C2346 1.363 1_554 S
C2347 C2353 1.363 . S
C2348 C2349 1.363 1_554 S
C2348 C2353 1.379 . S
C2348 N2355 1.356 . S
C2349 C2348 1.363 1_556 S
C2349 C2352 1.363 . S
N2350 C2352 1.356 . S
N2350 H2362 0.984 . S
N2350 H2363 0.985 . S
N2351 C2353 1.356 . S
N2351 H2356 0.984 . S
N2351 H2357 0.985 . S
C2352 C2346 1.379 . S
C2352 C2349 1.363 . S
C2352 N2350 1.356 . S
C2353 C2347 1.363 . S
C2353 C2348 1.379 . S
C2353 N2351 1.356 . S
N2354 C2346 1.356 . S
N2354 H2360 0.984 . S
N2354 H2361 0.984 1_556 S
N2355 C2348 1.356 . S
N2355 H2358 0.984 . S
N2355 H2359 0.985 . S
H2356 N2351 0.984 . S
H2357 N2351 0.985 . S
H2358 N2355 0.984 . S
H2359 N2355 0.985 . S
H2360 N2354 0.984 . S
H2361 N2354 0.984 1_554 S
H2362 N2350 0.984 . S
H2363 N2350 0.985 . S
C2364 C2365 1.363 . S
C2364 C2370 1.379 . S
C2364 N2372 1.356 . S
C2365 C2364 1.363 . S
C2365 C2371 1.363 . S
C2366 C2367 1.363 . S
C2366 C2371 1.379 . S
C2366 N2373 1.356 . S
C2367 C2366 1.363 . S
C2367 C2370 1.363 . S
N2368 C2370 1.356 . S
N2368 H2380 0.984 . S
N2368 H2381 0.985 . S
N2369 C2371 1.356 . S
N2369 H2374 0.984 . S
N2369 H2375 0.985 . S
C2370 C2364 1.379 . S
C2370 C2367 1.363 . S
C2370 N2368 1.356 . S
C2371 C2365 1.363 . S
C2371 C2366 1.379 . S
C2371 N2369 1.356 . S
N2372 C2364 1.356 . S
N2372 H2378 0.984 . S
N2372 H2379 0.984 . S
N2373 C2366 1.356 . S
N2373 H2376 0.984 . S
N2373 H2377 0.985 . S
H2374 N2369 0.984 . S
H2375 N2369 0.985 . S
H2376 N2373 0.984 . S
H2377 N2373 0.985 . S
H2378 N2372 0.984 . S
H2379 N2372 0.984 . S
H2380 N2368 0.984 . S
H2381 N2368 0.985 . S
C2382 C2383 1.363 . S
C2382 C2388 1.379 . S
C2382 N2390 1.356 . S
C2383 C2382 1.363 . S
C2383 C2389 1.363 . S
C2384 C2385 1.363 . S
C2384 C2389 1.379 . S
C2384 N2391 1.356 . S
C2385 C2384 1.363 . S
C2385 C2388 1.363 . S
N2386 C2388 1.356 . S
N2386 H2398 0.984 . S
N2386 H2399 0.985 . S
N2387 C2389 1.356 . S
N2387 H2392 0.984 . S
N2387 H2393 0.985 . S
C2388 C2382 1.379 . S
C2388 C2385 1.363 . S
C2388 N2386 1.356 . S
C2389 C2383 1.363 . S
C2389 C2384 1.379 . S
C2389 N2387 1.356 . S
N2390 C2382 1.356 . S
N2390 H2396 0.984 . S
N2390 H2397 0.984 . S
N2391 C2384 1.356 . S
N2391 H2394 0.984 . S
N2391 H2395 0.985 . S
H2392 N2387 0.984 . S
H2393 N2387 0.985 . S
H2394 N2391 0.984 . S
H2395 N2391 0.985 . S
H2396 N2390 0.984 . S
H2397 N2390 0.984 . S
H2398 N2386 0.984 . S
H2399 N2386 0.985 . S
C2400 C2401 1.363 . S
C2400 C2406 1.379 1_556 S
C2400 N2408 1.356 . S
C2401 C2400 1.363 . S
C2401 C2407 1.363 1_556 S
C2402 C2403 1.363 . S
C2402 C2407 1.379 . S
C2402 N2409 1.356 . S
C2403 C2402 1.363 . S
C2403 C2406 1.363 . S
N2404 C2406 1.356 . S
N2404 H2416 0.984 . S
N2404 H2417 0.985 . S
N2405 C2407 1.364 . S
N2405 H2410 0.966 1_554 S
N2405 H2411 0.996 . S
C2406 C2400 1.379 1_554 S
C2406 C2403 1.363 . S
C2406 N2404 1.356 . S
C2407 C2401 1.363 1_554 S
C2407 C2402 1.379 . S
C2407 N2405 1.364 . S
N2408 C2400 1.356 . S
N2408 H2414 0.984 . S
N2408 H2415 0.984 . S
N2409 C2402 1.356 . S
N2409 H2412 0.984 . S
N2409 H2413 0.985 . S
H2410 N2405 0.966 1_556 S
H2411 N2405 0.996 . S
H2412 N2409 0.984 . S
H2413 N2409 0.985 . S
H2414 N2408 0.984 . S
H2415 N2408 0.984 . S
H2416 N2404 0.984 . S
H2417 N2404 0.985 . S
C2418 C2419 1.363 . S
C2418 C2424 1.379 . S
C2418 N2426 1.356 . S
C2419 C2418 1.363 . S
C2419 C2425 1.363 . S
C2420 C2421 1.363 . S
C2420 C2425 1.379 . S
C2420 N2427 1.356 . S
C2421 C2420 1.363 . S
C2421 C2424 1.363 . S
N2422 C2424 1.356 . S
N2422 H2434 0.984 . S
N2422 H2435 0.985 . S
N2423 C2425 1.356 . S
N2423 H2428 0.984 . S
N2423 H2429 0.985 . S
C2424 C2418 1.379 . S
C2424 C2421 1.363 . S
C2424 N2422 1.356 . S
C2425 C2419 1.363 . S
C2425 C2420 1.379 . S
C2425 N2423 1.356 . S
N2426 C2418 1.356 . S
N2426 H2432 0.984 . S
N2426 H2433 0.984 . S
N2427 C2420 1.356 . S
N2427 H2430 0.984 . S
N2427 H2431 0.985 . S
H2428 N2423 0.984 . S
H2429 N2423 0.985 . S
H2430 N2427 0.984 . S
H2431 N2427 0.985 . S
H2432 N2426 0.984 . S
H2433 N2426 0.984 . S
H2434 N2422 0.984 . S
H2435 N2422 0.985 . S
C2436 C2437 1.363 1_565 S
C2436 C2442 1.379 . S
C2436 N2444 1.356 . S
C2437 C2436 1.363 1_545 S
C2437 C2443 1.363 . S
C2438 C2439 1.312 1_545 S
C2438 C2443 1.408 . S
C2438 N2445 1.364 . S
C2439 C2438 1.312 1_565 S
C2439 C2442 1.363 . S
N2440 C2442 1.356 . S
N2440 H2452 0.984 . S
N2440 H2453 0.985 . S
N2441 C2443 1.356 . S
N2441 H2446 0.984 . S
N2441 H2447 0.985 . S
C2442 C2436 1.379 . S
C2442 C2439 1.363 . S
C2442 N2440 1.356 . S
C2443 C2437 1.363 . S
C2443 C2438 1.408 . S
C2443 N2441 1.356 . S
N2444 C2436 1.356 . S
N2444 H2450 0.984 . S
N2444 H2451 0.984 . S
N2445 C2438 1.364 . S
N2445 H2448 0.984 1_545 S
N2445 H2449 0.985 . S
H2446 N2441 0.984 . S
H2447 N2441 0.985 . S
H2448 N2445 0.984 1_565 S
H2449 N2445 0.985 . S
H2450 N2444 0.984 . S
H2451 N2444 0.984 . S
H2452 N2440 0.984 . S
H2453 N2440 0.985 . S
C2454 C2455 1.363 1_554 S
C2454 C2460 1.379 . S
C2454 N2462 1.356 . S
C2455 C2454 1.363 1_556 S
C2455 C2461 1.363 . S
C2456 C2457 1.363 1_556 S
C2456 C2461 1.379 . S
C2456 N2463 1.356 . S
C2457 C2456 1.363 1_554 S
C2457 C2460 1.363 . S
N2458 C2460 1.356 . S
N2458 H2470 0.984 . S
N2458 H2471 0.985 . S
N2459 C2461 1.356 . S
N2459 H2464 0.984 . S
N2459 H2465 0.985 . S
C2460 C2454 1.379 . S
C2460 C2457 1.363 . S
C2460 N2458 1.356 . S
C2461 C2455 1.363 . S
C2461 C2456 1.379 . S
C2461 N2459 1.356 . S
N2462 C2454 1.356 . S
N2462 H2468 0.984 . S
N2462 H2469 0.984 1_554 S
N2463 C2456 1.356 . S
N2463 H2466 0.984 . S
N2463 H2467 0.985 . S
H2464 N2459 0.984 . S
H2465 N2459 0.985 . S
H2466 N2463 0.984 . S
H2467 N2463 0.985 . S
H2468 N2462 0.984 . S
H2469 N2462 0.984 1_556 S
H2470 N2458 0.984 . S
H2471 N2458 0.985 . S
C2472 C2473 1.363 . S
C2472 C2478 1.379 1_554 S
C2472 N2480 1.356 . S
C2473 C2472 1.363 . S
C2473 C2479 1.363 . S
C2474 C2475 1.363 1_554 S
C2474 C2479 1.379 . S
C2474 N2481 1.356 . S
C2475 C2474 1.363 1_556 S
C2475 C2478 1.363 . S
N2476 C2478 1.356 . S
N2476 H2488 0.984 . S
N2476 H2489 0.985 . S
N2477 C2479 1.356 . S
N2477 H2482 0.984 . S
N2477 H2483 0.985 . S
C2478 C2472 1.379 1_556 S
C2478 C2475 1.363 . S
C2478 N2476 1.356 . S
C2479 C2473 1.363 . S
C2479 C2474 1.379 . S
C2479 N2477 1.356 . S
N2480 C2472 1.356 . S
N2480 H2486 0.984 1_554 S
N2480 H2487 0.984 . S
N2481 C2474 1.356 . S
N2481 H2484 0.984 . S
N2481 H2485 0.985 . S
H2482 N2477 0.984 . S
H2483 N2477 0.985 . S
H2484 N2481 0.984 . S
H2485 N2481 0.985 . S
H2486 N2480 0.984 1_556 S
H2487 N2480 0.984 . S
H2488 N2476 0.984 . S
H2489 N2476 0.985 . S
C2490 C2491 1.363 . S
C2490 C2496 1.379 . S
C2490 N2498 1.356 . S
C2491 C2490 1.363 . S
C2491 C2497 1.363 . S
C2492 C2493 1.363 . S
C2492 C2497 1.379 . S
C2492 N2499 1.356 . S
C2493 C2492 1.363 . S
C2493 C2496 1.363 . S
N2494 C2496 1.356 . S
N2494 H2506 0.984 . S
N2494 H2507 0.985 . S
N2495 C2497 1.356 . S
N2495 H2500 0.984 . S
N2495 H2501 0.985 . S
C2496 C2490 1.379 . S
C2496 C2493 1.363 . S
C2496 N2494 1.356 . S
C2497 C2491 1.363 . S
C2497 C2492 1.379 . S
C2497 N2495 1.356 . S
N2498 C2490 1.356 . S
N2498 H2504 0.984 . S
N2498 H2505 0.984 . S
N2499 C2492 1.356 . S
N2499 H2502 0.984 . S
N2499 H2503 0.985 . S
H2500 N2495 0.984 . S
H2501 N2495 0.985 . S
H2502 N2499 0.984 . S
H2503 N2499 0.985 . S
H2504 N2498 0.984 . S
H2505 N2498 0.984 . S
H2506 N2494 0.984 . S
H2507 N2494 0.985 . S
C2508 C2509 1.363 . S
C2508 C2514 1.379 1_565 S
C2508 N2516 1.356 . S
C2509 C2508 1.363 . S
C2509 C2515 1.363 . S
C2510 C2511 1.363 1_565 S
C2510 C2515 1.379 . S
C2510 N2517 1.356 1_565 S
C2511 C2510 1.363 1_545 S
C2511 C2514 1.363 . S
N2512 C2514 1.356 . S
N2512 H2524 0.984 . S
N2512 H2525 0.985 . S
N2513 C2515 1.356 . S
N2513 H2518 0.984 . S
N2513 H2519 0.985 . S
C2514 C2508 1.379 1_545 S
C2514 C2511 1.363 . S
C2514 N2512 1.356 . S
C2515 C2509 1.363 . S
C2515 C2510 1.379 . S
C2515 N2513 1.356 . S
N2516 C2508 1.356 . S
N2516 H2522 0.984 . S
N2516 H2523 0.984 . S
N2517 C2510 1.356 1_545 S
N2517 H2520 0.984 . S
N2517 H2521 0.985 1_545 S
H2518 N2513 0.984 . S
H2519 N2513 0.985 . S
H2520 N2517 0.984 . S
H2521 N2517 0.985 1_565 S
H2522 N2516 0.984 . S
H2523 N2516 0.984 . S
H2524 N2512 0.984 . S
H2525 N2512 0.985 . S
C2526 C2527 1.363 . S
C2526 C2532 1.379 . S
C2526 N2534 1.356 . S
C2527 C2526 1.363 . S
C2527 C2533 1.363 . S
C2528 C2529 1.363 . S
C2528 C2533 1.379 1_655 S
C2528 N2535 1.356 . S
C2529 C2528 1.363 . S
C2529 C2532 1.363 1_655 S
N2530 C2532 1.356 . S
N2530 H2542 0.984 . S
N2530 H2543 0.985 1_455 S
N2531 C2533 1.356 . S
N2531 H2536 0.984 . S
N2531 H2537 0.985 1_455 S
C2532 C2526 1.379 . S
C2532 C2529 1.363 1_455 S
C2532 N2530 1.356 . S
C2533 C2527 1.363 . S
C2533 C2528 1.379 1_455 S
C2533 N2531 1.356 . S
N2534 C2526 1.356 . S
N2534 H2540 0.984 . S
N2534 H2541 0.984 . S
N2535 C2528 1.356 . S
N2535 H2538 0.984 . S
N2535 H2539 0.985 . S
H2536 N2531 0.984 . S
H2537 N2531 0.985 1_655 S
H2538 N2535 0.984 . S
H2539 N2535 0.985 . S
H2540 N2534 0.984 . S
H2541 N2534 0.984 . S
H2542 N2530 0.984 . S
H2543 N2530 0.985 1_655 S
C2544 C2545 1.363 1_655 S
C2544 C2550 1.379 . S
C2544 N2552 1.356 . S
C2545 C2544 1.363 1_455 S
C2545 C2551 1.363 . S
C2546 C2547 1.386 . S
C2546 C2551 1.364 1_655 S
C2546 N2553 1.355 1_655 S
C2547 C2546 1.386 . S
C2547 C2550 1.363 . S
N2548 C2550 1.356 . S
N2548 H2560 0.984 . S
N2548 H2561 0.985 . S
N2549 C2551 1.356 . S
N2549 H2554 0.984 . S
N2549 H2555 0.985 . S
C2550 C2544 1.379 . S
C2550 C2547 1.363 . S
C2550 N2548 1.356 . S
C2551 C2545 1.363 . S
C2551 C2546 1.364 1_455 S
C2551 N2549 1.356 . S
N2552 C2544 1.356 . S
N2552 H2558 0.984 . S
N2552 H2559 0.984 . S
N2553 C2546 1.355 1_455 S
N2553 H2556 0.984 1_455 S
N2553 H2557 0.985 . S
H2554 N2549 0.984 . S
H2555 N2549 0.985 . S
H2556 N2553 0.984 1_655 S
H2557 N2553 0.985 . S
H2558 N2552 0.984 . S
H2559 N2552 0.984 . S
H2560 N2548 0.984 . S
H2561 N2548 0.985 . S
C2562 C2563 1.363 . S
C2562 C2568 1.379 . S
C2562 N2570 1.356 . S
C2563 C2562 1.363 . S
C2563 C2569 1.363 . S
C2564 C2565 1.363 . S
C2564 C2569 1.379 . S
C2564 N2571 1.356 . S
C2565 C2564 1.363 . S
C2565 C2568 1.363 . S
N2566 C2568 1.356 . S
N2566 H2578 0.984 . S
N2566 H2579 0.985 . S
N2567 C2569 1.356 . S
N2567 H2572 0.984 . S
N2567 H2573 0.985 . S
C2568 C2562 1.379 . S
C2568 C2565 1.363 . S
C2568 N2566 1.356 . S
C2569 C2563 1.363 . S
C2569 C2564 1.379 . S
C2569 N2567 1.356 . S
N2570 C2562 1.356 . S
N2570 H2576 0.984 . S
N2570 H2577 0.984 . S
N2571 C2564 1.356 . S
N2571 H2574 0.984 . S
N2571 H2575 0.985 . S
H2572 N2567 0.984 . S
H2573 N2567 0.985 . S
H2574 N2571 0.984 . S
H2575 N2571 0.985 . S
H2576 N2570 0.984 . S
H2577 N2570 0.984 . S
H2578 N2566 0.984 . S
H2579 N2566 0.985 . S
C2580 C2581 1.363 . S
C2580 C2586 1.379 . S
C2580 N2588 1.356 . S
C2581 C2580 1.363 . S
C2581 C2587 1.363 . S
C2582 C2583 1.363 . S
C2582 C2587 1.379 . S
C2582 N2589 1.356 . S
C2583 C2582 1.363 . S
C2583 C2586 1.363 . S
N2584 C2586 1.356 . S
N2584 H2596 0.984 . S
N2584 H2597 0.985 . S
N2585 C2587 1.356 . S
N2585 H2590 0.984 . S
N2585 H2591 0.985 . S
C2586 C2580 1.379 . S
C2586 C2583 1.363 . S
C2586 N2584 1.356 . S
C2587 C2581 1.363 . S
C2587 C2582 1.379 . S
C2587 N2585 1.356 . S
N2588 C2580 1.356 . S
N2588 H2594 0.984 . S
N2588 H2595 0.984 . S
N2589 C2582 1.356 . S
N2589 H2592 0.984 . S
N2589 H2593 0.985 . S
H2590 N2585 0.984 . S
H2591 N2585 0.985 . S
H2592 N2589 0.984 . S
H2593 N2589 0.985 . S
H2594 N2588 0.984 . S
H2595 N2588 0.984 . S
H2596 N2584 0.984 . S
H2597 N2584 0.985 . S
C2598 C2599 1.363 . S
C2598 C2604 1.379 . S
C2598 N2606 1.356 . S
C2599 C2598 1.363 . S
C2599 C2605 1.363 . S
C2600 C2601 1.363 . S
C2600 C2605 1.379 . S
C2600 N2607 1.356 . S
C2601 C2600 1.363 . S
C2601 C2604 1.363 . S
N2602 C2604 1.356 . S
N2602 H2614 0.984 . S
N2602 H2615 0.985 . S
N2603 C2605 1.356 . S
N2603 H2608 0.984 . S
N2603 H2609 0.985 . S
C2604 C2598 1.379 . S
C2604 C2601 1.363 . S
C2604 N2602 1.356 . S
C2605 C2599 1.363 . S
C2605 C2600 1.379 . S
C2605 N2603 1.356 . S
N2606 C2598 1.356 . S
N2606 H2612 0.984 . S
N2606 H2613 0.984 . S
N2607 C2600 1.356 . S
N2607 H2610 0.984 . S
N2607 H2611 0.985 . S
H2608 N2603 0.984 . S
H2609 N2603 0.985 . S
H2610 N2607 0.984 . S
H2611 N2607 0.985 . S
H2612 N2606 0.984 . S
H2613 N2606 0.984 . S
H2614 N2602 0.984 . S
H2615 N2602 0.985 . S
C2616 C2617 1.363 1_556 S
C2616 C2622 1.379 . S
C2616 N2624 1.356 . S
C2617 C2616 1.363 1_554 S
C2617 C2623 1.363 . S
C2618 C2619 1.347 1_554 S
C2618 C2623 1.388 . S
C2618 N2625 1.358 . S
C2619 C2618 1.347 1_556 S
C2619 C2622 1.363 . S
N2620 C2622 1.356 . S
N2620 H2632 0.984 . S
N2620 H2633 0.985 . S
N2621 C2623 1.356 . S
N2621 H2626 0.984 . S
N2621 H2627 0.985 . S
C2622 C2616 1.379 . S
C2622 C2619 1.363 . S
C2622 N2620 1.356 . S
C2623 C2617 1.363 . S
C2623 C2618 1.388 . S
C2623 N2621 1.356 . S
N2624 C2616 1.356 . S
N2624 H2630 0.984 . S
N2624 H2631 0.984 . S
N2625 C2618 1.358 . S
N2625 H2628 0.984 1_554 S
N2625 H2629 0.985 . S
H2626 N2621 0.984 . S
H2627 N2621 0.985 . S
H2628 N2625 0.984 1_556 S
H2629 N2625 0.985 . S
H2630 N2624 0.984 . S
H2631 N2624 0.984 . S
H2632 N2620 0.984 . S
H2633 N2620 0.985 . S
C2634 C2635 1.363 . S
C2634 C2640 1.379 . S
C2634 N2642 1.356 . S
C2635 C2634 1.363 . S
C2635 C2641 1.363 . S
C2636 C2637 1.363 1_565 S
C2636 C2641 1.379 . S
C2636 N2643 1.356 1_565 S
C2637 C2636 1.363 1_545 S
C2637 C2640 1.363 1_545 S
N2638 C2640 1.356 1_545 S
N2638 H2650 0.984 . S
N2638 H2651 0.985 . S
N2639 C2641 1.356 . S
N2639 H2644 0.984 . S
N2639 H2645 0.985 . S
C2640 C2634 1.379 . S
C2640 C2637 1.363 1_565 S
C2640 N2638 1.356 1_565 S
C2641 C2635 1.363 . S
C2641 C2636 1.379 . S
C2641 N2639 1.356 . S
N2642 C2634 1.356 . S
N2642 H2648 0.984 . S
N2642 H2649 0.984 . S
N2643 C2636 1.356 1_545 S
N2643 H2646 0.984 . S
N2643 H2647 0.985 . S
H2644 N2639 0.984 . S
H2645 N2639 0.985 . S
H2646 N2643 0.984 . S
H2647 N2643 0.985 . S
H2648 N2642 0.984 . S
H2649 N2642 0.984 . S
H2650 N2638 0.984 . S
H2651 N2638 0.985 . S
C2652 C2653 1.363 . S
C2652 C2658 1.379 . S
C2652 N2660 1.356 . S
C2653 C2652 1.363 . S
C2653 C2659 1.363 . S
C2654 C2655 1.363 . S
C2654 C2659 1.379 . S
C2654 N2661 1.356 . S
C2655 C2654 1.363 . S
C2655 C2658 1.363 . S
N2656 C2658 1.356 . S
N2656 H2668 0.984 . S
N2656 H2669 0.985 . S
N2657 C2659 1.356 . S
N2657 H2662 0.984 . S
N2657 H2663 0.985 . S
C2658 C2652 1.379 . S
C2658 C2655 1.363 . S
C2658 N2656 1.356 . S
C2659 C2653 1.363 . S
C2659 C2654 1.379 . S
C2659 N2657 1.356 . S
N2660 C2652 1.356 . S
N2660 H2666 0.984 . S
N2660 H2667 0.984 . S
N2661 C2654 1.356 . S
N2661 H2664 0.984 . S
N2661 H2665 0.985 . S
H2662 N2657 0.984 . S
H2663 N2657 0.985 . S
H2664 N2661 0.984 . S
H2665 N2661 0.985 . S
H2666 N2660 0.984 . S
H2667 N2660 0.984 . S
H2668 N2656 0.984 . S
H2669 N2656 0.985 . S
C2670 C2671 1.363 . S
C2670 C2676 1.379 . S
C2670 N2678 1.356 . S
C2671 C2670 1.363 . S
C2671 C2677 1.363 . S
C2672 C2673 1.363 . S
C2672 C2677 1.379 . S
C2672 N2679 1.356 . S
C2673 C2672 1.363 . S
C2673 C2676 1.363 . S
N2674 C2676 1.356 . S
N2674 H2686 0.984 . S
N2674 H2687 0.985 . S
N2675 C2677 1.356 . S
N2675 H2680 0.984 . S
N2675 H2681 0.985 . S
C2676 C2670 1.379 . S
C2676 C2673 1.363 . S
C2676 N2674 1.356 . S
C2677 C2671 1.363 . S
C2677 C2672 1.379 . S
C2677 N2675 1.356 . S
N2678 C2670 1.356 . S
N2678 H2684 0.984 . S
N2678 H2685 0.984 . S
N2679 C2672 1.356 . S
N2679 H2682 0.984 . S
N2679 H2683 0.985 . S
H2680 N2675 0.984 . S
H2681 N2675 0.985 . S
H2682 N2679 0.984 . S
H2683 N2679 0.985 . S
H2684 N2678 0.984 . S
H2685 N2678 0.984 . S
H2686 N2674 0.984 . S
H2687 N2674 0.985 . S
C2688 C2689 1.363 . S
C2688 C2694 1.379 . S
C2688 N2696 1.356 . S
C2689 C2688 1.363 . S
C2689 C2695 1.363 . S
C2690 C2691 1.363 . S
C2690 C2695 1.379 . S
C2690 N2697 1.356 . S
C2691 C2690 1.363 . S
C2691 C2694 1.363 . S
N2692 C2694 1.356 . S
N2692 H2704 0.984 . S
N2692 H2705 0.985 . S
N2693 C2695 1.356 . S
N2693 H2698 0.984 . S
N2693 H2699 0.985 . S
C2694 C2688 1.379 . S
C2694 C2691 1.363 . S
C2694 N2692 1.356 . S
C2695 C2689 1.363 . S
C2695 C2690 1.379 . S
C2695 N2693 1.356 . S
N2696 C2688 1.356 . S
N2696 H2702 0.984 . S
N2696 H2703 0.984 . S
N2697 C2690 1.356 . S
N2697 H2700 0.984 . S
N2697 H2701 0.985 . S
H2698 N2693 0.984 . S
H2699 N2693 0.985 . S
H2700 N2697 0.984 . S
H2701 N2697 0.985 . S
H2702 N2696 0.984 . S
H2703 N2696 0.984 . S
H2704 N2692 0.984 . S
H2705 N2692 0.985 . S
C2706 C2707 1.363 1_545 S
C2706 C2712 1.379 . S
C2706 N2714 1.356 . S
C2707 C2706 1.363 1_565 S
C2707 C2713 1.363 . S
C2708 C2709 1.363 . S
C2708 C2713 1.379 1_545 S
C2708 N2715 1.356 . S
C2709 C2708 1.363 . S
C2709 C2712 1.363 . S
N2710 C2712 1.356 . S
N2710 H2722 0.984 . S
N2710 H2723 0.985 . S
N2711 C2713 1.356 . S
N2711 H2716 0.984 . S
N2711 H2717 0.985 . S
C2712 C2706 1.379 . S
C2712 C2709 1.363 . S
C2712 N2710 1.356 . S
C2713 C2707 1.363 . S
C2713 C2708 1.379 1_565 S
C2713 N2711 1.356 . S
N2714 C2706 1.356 . S
N2714 H2720 0.984 . S
N2714 H2721 0.995 . S
N2715 C2708 1.356 . S
N2715 H2718 0.984 . S
N2715 H2719 0.985 1_545 S
H2716 N2711 0.984 . S
H2717 N2711 0.985 . S
H2718 N2715 0.984 . S
H2719 N2715 0.985 1_565 S
H2720 N2714 0.984 . S
H2721 N2714 0.995 . S
H2722 N2710 0.984 . S
H2723 N2710 0.985 . S
C2724 C2725 1.363 . S
C2724 C2730 1.379 . S
C2724 N2732 1.356 . S
C2725 C2724 1.363 . S
C2725 C2731 1.312 1_554 S
C2726 C2727 1.363 . S
C2726 C2731 1.409 . S
C2726 N2733 1.356 . S
C2727 C2726 1.363 . S
C2727 C2730 1.363 1_556 S
N2728 C2730 1.356 . S
N2728 H2740 0.984 . S
N2728 H2741 0.985 . S
N2729 C2731 1.364 . S
N2729 H2734 0.984 1_556 S
N2729 H2735 0.985 . S
C2730 C2724 1.379 . S
C2730 C2727 1.363 1_554 S
C2730 N2728 1.356 . S
C2731 C2725 1.312 1_556 S
C2731 C2726 1.409 . S
C2731 N2729 1.364 . S
N2732 C2724 1.356 . S
N2732 H2738 0.984 . S
N2732 H2739 0.984 . S
N2733 C2726 1.356 . S
N2733 H2736 0.984 . S
N2733 H2737 0.985 . S
H2734 N2729 0.984 1_554 S
H2735 N2729 0.985 . S
H2736 N2733 0.984 . S
H2737 N2733 0.985 . S
H2738 N2732 0.984 . S
H2739 N2732 0.984 . S
H2740 N2728 0.984 . S
H2741 N2728 0.985 . S
C2742 C2743 1.363 . S
C2742 C2748 1.379 . S
C2742 N2750 1.356 . S
C2743 C2742 1.363 . S
C2743 C2749 1.363 . S
C2744 C2745 1.363 . S
C2744 C2749 1.379 . S
C2744 N2751 1.356 . S
C2745 C2744 1.363 . S
C2745 C2748 1.363 . S
N2746 C2748 1.356 . S
N2746 H2758 0.984 . S
N2746 H2759 0.985 . S
N2747 C2749 1.356 . S
N2747 H2752 0.984 . S
N2747 H2753 0.985 . S
C2748 C2742 1.379 . S
C2748 C2745 1.363 . S
C2748 N2746 1.356 . S
C2749 C2743 1.363 . S
C2749 C2744 1.379 . S
C2749 N2747 1.356 . S
N2750 C2742 1.356 . S
N2750 H2756 0.984 . S
N2750 H2757 0.984 . S
N2751 C2744 1.356 . S
N2751 H2754 0.984 . S
N2751 H2755 0.985 . S
H2752 N2747 0.984 . S
H2753 N2747 0.985 . S
H2754 N2751 0.984 . S
H2755 N2751 0.985 . S
H2756 N2750 0.984 . S
H2757 N2750 0.984 . S
H2758 N2746 0.984 . S
H2759 N2746 0.985 . S
C2760 C2761 1.363 . S
C2760 C2766 1.379 1_556 S
C2760 N2768 1.356 . S
C2761 C2760 1.363 . S
C2761 C2767 1.363 . S
C2762 C2763 1.363 1_556 S
C2762 C2767 1.379 . S
C2762 N2769 1.356 . S
C2763 C2762 1.363 1_554 S
C2763 C2766 1.363 . S
N2764 C2766 1.356 . S
N2764 H2776 0.984 . S
N2764 H2777 0.985 . S
N2765 C2767 1.356 . S
N2765 H2770 0.984 . S
N2765 H2771 0.985 . S
C2766 C2760 1.379 1_554 S
C2766 C2763 1.363 . S
C2766 N2764 1.356 . S
C2767 C2761 1.363 . S
C2767 C2762 1.379 . S
C2767 N2765 1.356 . S
N2768 C2760 1.356 . S
N2768 H2774 0.984 1_556 S
N2768 H2775 0.984 . S
N2769 C2762 1.356 . S
N2769 H2772 0.984 . S
N2769 H2773 0.985 . S
H2770 N2765 0.984 . S
H2771 N2765 0.985 . S
H2772 N2769 0.984 . S
H2773 N2769 0.985 . S
H2774 N2768 0.984 1_554 S
H2775 N2768 0.984 . S
H2776 N2764 0.984 . S
H2777 N2764 0.985 . S
C2778 C2779 1.363 . S
C2778 C2784 1.379 . S
C2778 N2786 1.356 . S
C2779 C2778 1.363 . S
C2779 C2785 1.363 . S
C2780 C2781 1.363 . S
C2780 C2785 1.379 . S
C2780 N2787 1.356 . S
C2781 C2780 1.363 . S
C2781 C2784 1.363 . S
N2782 C2784 1.356 . S
N2782 H2794 0.984 . S
N2782 H2795 0.985 . S
N2783 C2785 1.356 . S
N2783 H2788 0.984 . S
N2783 H2789 0.985 . S
C2784 C2778 1.379 . S
C2784 C2781 1.363 . S
C2784 N2782 1.356 . S
C2785 C2779 1.363 . S
C2785 C2780 1.379 . S
C2785 N2783 1.356 . S
N2786 C2778 1.356 . S
N2786 H2792 0.984 . S
N2786 H2793 0.984 . S
N2787 C2780 1.356 . S
N2787 H2790 0.984 . S
N2787 H2791 0.985 . S
H2788 N2783 0.984 . S
H2789 N2783 0.985 . S
H2790 N2787 0.984 . S
H2791 N2787 0.985 . S
H2792 N2786 0.984 . S
H2793 N2786 0.984 . S
H2794 N2782 0.984 . S
H2795 N2782 0.985 . S
C2796 C2797 1.363 . S
C2796 C2802 1.379 . S
C2796 N2804 1.356 . S
C2797 C2796 1.363 . S
C2797 C2803 1.363 . S
C2798 C2799 1.363 . S
C2798 C2803 1.379 . S
C2798 N2805 1.356 . S
C2799 C2798 1.363 . S
C2799 C2802 1.363 . S
N2800 C2802 1.356 . S
N2800 H2812 0.984 . S
N2800 H2813 0.985 . S
N2801 C2803 1.356 . S
N2801 H2806 0.984 . S
N2801 H2807 0.985 . S
C2802 C2796 1.379 . S
C2802 C2799 1.363 . S
C2802 N2800 1.356 . S
C2803 C2797 1.363 . S
C2803 C2798 1.379 . S
C2803 N2801 1.356 . S
N2804 C2796 1.356 . S
N2804 H2810 0.984 . S
N2804 H2811 0.984 . S
N2805 C2798 1.356 . S
N2805 H2808 0.984 . S
N2805 H2809 0.985 . S
H2806 N2801 0.984 . S
H2807 N2801 0.985 . S
H2808 N2805 0.984 . S
H2809 N2805 0.985 . S
H2810 N2804 0.984 . S
H2811 N2804 0.984 . S
H2812 N2800 0.984 . S
H2813 N2800 0.985 . S
C2814 C2815 1.363 . S
C2814 C2820 1.379 . S
C2814 N2822 1.356 . S
C2815 C2814 1.363 . S
C2815 C2821 1.363 . S
C2816 C2817 1.363 . S
C2816 C2821 1.379 . S
C2816 N2823 1.356 . S
C2817 C2816 1.363 . S
C2817 C2820 1.363 . S
N2818 C2820 1.356 . S
N2818 H2830 0.984 . S
N2818 H2831 0.985 . S
N2819 C2821 1.356 . S
N2819 H2824 0.984 . S
N2819 H2825 0.985 . S
C2820 C2814 1.379 . S
C2820 C2817 1.363 . S
C2820 N2818 1.356 . S
C2821 C2815 1.363 . S
C2821 C2816 1.379 . S
C2821 N2819 1.356 . S
N2822 C2814 1.356 . S
N2822 H2828 0.984 . S
N2822 H2829 0.984 . S
N2823 C2816 1.356 . S
N2823 H2826 0.984 . S
N2823 H2827 0.985 . S
H2824 N2819 0.984 . S
H2825 N2819 0.985 . S
H2826 N2823 0.984 . S
H2827 N2823 0.985 . S
H2828 N2822 0.984 . S
H2829 N2822 0.984 . S
H2830 N2818 0.984 . S
H2831 N2818 0.985 . S
C2832 C2833 1.363 . S
C2832 C2838 1.379 1_545 S
C2832 N2840 1.356 . S
C2833 C2832 1.363 . S
C2833 C2839 1.363 . S
C2834 C2835 1.363 1_545 S
C2834 C2839 1.379 . S
C2834 N2841 1.352 1_545 S
C2835 C2834 1.363 1_565 S
C2835 C2838 1.363 . S
N2836 C2838 1.356 . S
N2836 H2848 0.984 . S
N2836 H2849 0.985 . S
N2837 C2839 1.356 . S
N2837 H2842 0.984 . S
N2837 H2843 0.985 . S
C2838 C2832 1.379 1_565 S
C2838 C2835 1.363 . S
C2838 N2836 1.356 . S
C2839 C2833 1.363 . S
C2839 C2834 1.379 . S
C2839 N2837 1.356 . S
N2840 C2832 1.356 . S
N2840 H2846 0.984 . S
N2840 H2847 0.984 . S
N2841 C2834 1.352 1_565 S
N2841 H2844 0.994 . S
N2841 H2845 0.979 1_565 S
H2842 N2837 0.984 . S
H2843 N2837 0.985 . S
H2844 N2841 0.994 . S
H2845 N2841 0.979 1_545 S
H2846 N2840 0.984 . S
H2847 N2840 0.984 . S
H2848 N2836 0.984 . S
H2849 N2836 0.985 . S
C2850 C2851 1.363 . S
C2850 C2856 1.379 . S
C2850 N2858 1.356 . S
C2851 C2850 1.363 . S
C2851 C2857 1.363 . S
C2852 C2853 1.363 . S
C2852 C2857 1.379 . S
C2852 N2859 1.356 . S
C2853 C2852 1.363 . S
C2853 C2856 1.363 . S
N2854 C2856 1.356 . S
N2854 H2866 0.984 . S
N2854 H2867 0.985 . S
N2855 C2857 1.356 . S
N2855 H2860 0.984 . S
N2855 H2861 0.985 . S
C2856 C2850 1.379 . S
C2856 C2853 1.363 . S
C2856 N2854 1.356 . S
C2857 C2851 1.363 . S
C2857 C2852 1.379 . S
C2857 N2855 1.356 . S
N2858 C2850 1.356 . S
N2858 H2864 0.984 . S
N2858 H2865 0.984 . S
N2859 C2852 1.356 . S
N2859 H2862 0.984 . S
N2859 H2863 0.985 . S
H2860 N2855 0.984 . S
H2861 N2855 0.985 . S
H2862 N2859 0.984 . S
H2863 N2859 0.985 . S
H2864 N2858 0.984 . S
H2865 N2858 0.984 . S
H2866 N2854 0.984 . S
H2867 N2854 0.985 . S
C2868 C2869 1.363 . S
C2868 C2874 1.379 . S
C2868 N2876 1.356 . S
C2869 C2868 1.363 . S
C2869 C2875 1.363 . S
C2870 C2871 1.363 . S
C2870 C2875 1.379 . S
C2870 N2877 1.356 . S
C2871 C2870 1.363 . S
C2871 C2874 1.363 . S
N2872 C2874 1.356 . S
N2872 H2884 0.984 . S
N2872 H2885 0.985 . S
N2873 C2875 1.356 . S
N2873 H2878 0.984 . S
N2873 H2879 0.985 . S
C2874 C2868 1.379 . S
C2874 C2871 1.363 . S
C2874 N2872 1.356 . S
C2875 C2869 1.363 . S
C2875 C2870 1.379 . S
C2875 N2873 1.356 . S
N2876 C2868 1.356 . S
N2876 H2882 0.984 . S
N2876 H2883 0.984 . S
N2877 C2870 1.356 . S
N2877 H2880 0.984 . S
N2877 H2881 0.985 . S
H2878 N2873 0.984 . S
H2879 N2873 0.985 . S
H2880 N2877 0.984 . S
H2881 N2877 0.985 . S
H2882 N2876 0.984 . S
H2883 N2876 0.984 . S
H2884 N2872 0.984 . S
H2885 N2872 0.985 . S
C2886 C2887 1.363 . S
C2886 C2892 1.379 . S
C2886 N2894 1.356 . S
C2887 C2886 1.363 . S
C2887 C2893 1.363 . S
C2888 C2889 1.363 . S
C2888 C2893 1.379 . S
C2888 N2895 1.356 . S
C2889 C2888 1.363 . S
C2889 C2892 1.363 . S
N2890 C2892 1.356 . S
N2890 H2902 0.984 . S
N2890 H2903 0.985 . S
N2891 C2893 1.356 . S
N2891 H2896 0.984 . S
N2891 H2897 0.985 . S
C2892 C2886 1.379 . S
C2892 C2889 1.363 . S
C2892 N2890 1.356 . S
C2893 C2887 1.363 . S
C2893 C2888 1.379 . S
C2893 N2891 1.356 . S
N2894 C2886 1.356 . S
N2894 H2900 0.984 . S
N2894 H2901 0.984 . S
N2895 C2888 1.356 . S
N2895 H2898 0.984 . S
N2895 H2899 0.985 . S
H2896 N2891 0.984 . S
H2897 N2891 0.985 . S
H2898 N2895 0.984 . S
H2899 N2895 0.985 . S
H2900 N2894 0.984 . S
H2901 N2894 0.984 . S
H2902 N2890 0.984 . S
H2903 N2890 0.985 . S
C2904 C2905 1.363 . S
C2904 C2910 1.379 . S
C2904 N2912 1.356 . S
C2905 C2904 1.363 . S
C2905 C2911 1.363 . S
C2906 C2907 1.363 . S
C2906 C2911 1.379 . S
C2906 N2913 1.356 . S
C2907 C2906 1.363 . S
C2907 C2910 1.363 . S
N2908 C2910 1.356 . S
N2908 H2920 0.984 . S
N2908 H2921 0.985 . S
N2909 C2911 1.356 . S
N2909 H2914 0.984 . S
N2909 H2915 0.985 . S
C2910 C2904 1.379 . S
C2910 C2907 1.363 . S
C2910 N2908 1.356 . S
C2911 C2905 1.363 . S
C2911 C2906 1.379 . S
C2911 N2909 1.356 . S
N2912 C2904 1.356 . S
N2912 H2918 0.984 . S
N2912 H2919 0.984 . S
N2913 C2906 1.356 . S
N2913 H2916 0.984 . S
N2913 H2917 0.985 . S
H2914 N2909 0.984 . S
H2915 N2909 0.985 . S
H2916 N2913 0.984 . S
H2917 N2913 0.985 . S
H2918 N2912 0.984 . S
H2919 N2912 0.984 . S
H2920 N2908 0.984 . S
H2921 N2908 0.985 . S
C2922 C2923 1.363 . S
C2922 C2928 1.379 . S
C2922 N2930 1.356 . S
C2923 C2922 1.363 . S
C2923 C2929 1.363 . S
C2924 C2925 1.363 . S
C2924 C2929 1.379 . S
C2924 N2931 1.356 . S
C2925 C2924 1.363 . S
C2925 C2928 1.363 . S
N2926 C2928 1.356 . S
N2926 H2938 0.984 . S
N2926 H2939 0.985 . S
N2927 C2929 1.356 . S
N2927 H2932 0.984 . S
N2927 H2933 0.985 . S
C2928 C2922 1.379 . S
C2928 C2925 1.363 . S
C2928 N2926 1.356 . S
C2929 C2923 1.363 . S
C2929 C2924 1.379 . S
C2929 N2927 1.356 . S
N2930 C2922 1.356 . S
N2930 H2936 0.984 . S
N2930 H2937 0.984 . S
N2931 C2924 1.356 . S
N2931 H2934 0.984 . S
N2931 H2935 0.985 . S
H2932 N2927 0.984 . S
H2933 N2927 0.985 . S
H2934 N2931 0.984 . S
H2935 N2931 0.985 . S
H2936 N2930 0.984 . S
H2937 N2930 0.984 . S
H2938 N2926 0.984 . S
H2939 N2926 0.985 . S
C2940 C2941 1.363 . S
C2940 C2946 1.379 . S
C2940 N2948 1.356 . S
C2941 C2940 1.363 . S
C2941 C2947 1.363 1_565 S
C2942 C2943 1.363 . S
C2942 C2947 1.379 . S
C2942 N2949 1.356 . S
C2943 C2942 1.363 . S
C2943 C2946 1.363 1_545 S
N2944 C2946 1.356 . S
N2944 H2956 0.984 . S
N2944 H2957 0.985 1_565 S
N2945 C2947 1.356 . S
N2945 H2950 0.984 . S
N2945 H2951 0.985 . S
C2946 C2940 1.379 . S
C2946 C2943 1.363 1_565 S
C2946 N2944 1.356 . S
C2947 C2941 1.363 1_545 S
C2947 C2942 1.379 . S
C2947 N2945 1.356 . S
N2948 C2940 1.356 . S
N2948 H2954 0.984 . S
N2948 H2955 0.984 . S
N2949 C2942 1.356 . S
N2949 H2952 0.984 . S
N2949 H2953 0.985 . S
H2950 N2945 0.984 . S
H2951 N2945 0.985 . S
H2952 N2949 0.984 . S
H2953 N2949 0.985 . S
H2954 N2948 0.984 . S
H2955 N2948 0.984 . S
H2956 N2944 0.984 . S
H2957 N2944 0.985 1_545 S
C2958 C2959 1.363 . S
C2958 C2964 1.379 . S
C2958 N2966 1.356 . S
C2959 C2958 1.363 . S
C2959 C2965 1.363 . S
C2960 C2961 1.363 . S
C2960 C2965 1.379 . S
C2960 N2967 1.356 . S
C2961 C2960 1.363 . S
C2961 C2964 1.363 . S
N2962 C2964 1.356 . S
N2962 H2974 0.984 . S
N2962 H2975 0.985 . S
N2963 C2965 1.356 . S
N2963 H2968 0.984 . S
N2963 H2969 0.985 . S
C2964 C2958 1.379 . S
C2964 C2961 1.363 . S
C2964 N2962 1.356 . S
C2965 C2959 1.363 . S
C2965 C2960 1.379 . S
C2965 N2963 1.356 . S
N2966 C2958 1.356 . S
N2966 H2972 0.984 . S
N2966 H2973 0.984 . S
N2967 C2960 1.356 . S
N2967 H2970 0.984 . S
N2967 H2971 0.985 . S
H2968 N2963 0.984 . S
H2969 N2963 0.985 . S
H2970 N2967 0.984 . S
H2971 N2967 0.985 . S
H2972 N2966 0.984 . S
H2973 N2966 0.984 . S
H2974 N2962 0.984 . S
H2975 N2962 0.985 . S
C2976 C2977 1.363 . S
C2976 C2982 1.379 . S
C2976 N2984 1.356 . S
C2977 C2976 1.363 . S
C2977 C2983 1.363 . S
C2978 C2979 1.363 . S
C2978 C2983 1.379 . S
C2978 N2985 1.356 . S
C2979 C2978 1.363 . S
C2979 C2982 1.363 . S
N2980 C2982 1.356 . S
N2980 H2992 0.984 . S
N2980 H2993 0.985 . S
N2981 C2983 1.356 . S
N2981 H2986 0.984 . S
N2981 H2987 0.985 . S
C2982 C2976 1.379 . S
C2982 C2979 1.363 . S
C2982 N2980 1.356 . S
C2983 C2977 1.363 . S
C2983 C2978 1.379 . S
C2983 N2981 1.356 . S
N2984 C2976 1.356 . S
N2984 H2990 0.984 . S
N2984 H2991 0.984 . S
N2985 C2978 1.356 . S
N2985 H2988 0.984 . S
N2985 H2989 0.985 . S
H2986 N2981 0.984 . S
H2987 N2981 0.985 . S
H2988 N2985 0.984 . S
H2989 N2985 0.985 . S
H2990 N2984 0.984 . S
H2991 N2984 0.984 . S
H2992 N2980 0.984 . S
H2993 N2980 0.985 . S
C2994 C2995 1.363 . S
C2994 C3000 1.379 . S
C2994 N3002 1.356 . S
C2995 C2994 1.363 . S
C2995 C3001 1.363 . S
C2996 C2997 1.363 . S
C2996 C3001 1.379 . S
C2996 N3003 1.356 . S
C2997 C2996 1.363 . S
C2997 C3000 1.363 . S
N2998 C3000 1.356 . S
N2998 H3010 0.984 . S
N2998 H3011 0.985 . S
N2999 C3001 1.356 . S
N2999 H3004 0.984 . S
N2999 H3005 0.985 . S
C3000 C2994 1.379 . S
C3000 C2997 1.363 . S
C3000 N2998 1.356 . S
C3001 C2995 1.363 . S
C3001 C2996 1.379 . S
C3001 N2999 1.356 . S
N3002 C2994 1.356 . S
N3002 H3008 0.984 . S
N3002 H3009 0.984 . S
N3003 C2996 1.356 . S
N3003 H3006 0.984 . S
N3003 H3007 0.985 . S
H3004 N2999 0.984 . S
H3005 N2999 0.985 . S
H3006 N3003 0.984 . S
H3007 N3003 0.985 . S
H3008 N3002 0.984 . S
H3009 N3002 0.984 . S
H3010 N2998 0.984 . S
H3011 N2998 0.985 . S
C3012 C3013 1.363 . S
C3012 C3018 1.379 . S
C3012 N3020 1.356 . S
C3013 C3012 1.363 . S
C3013 C3019 1.363 . S
C3014 C3015 1.363 . S
C3014 C3019 1.379 . S
C3014 N3021 1.356 . S
C3015 C3014 1.363 . S
C3015 C3018 1.363 . S
N3016 C3018 1.356 . S
N3016 H3028 0.984 . S
N3016 H3029 0.985 . S
N3017 C3019 1.356 . S
N3017 H3022 0.984 . S
N3017 H3023 0.985 . S
C3018 C3012 1.379 . S
C3018 C3015 1.363 . S
C3018 N3016 1.356 . S
C3019 C3013 1.363 . S
C3019 C3014 1.379 . S
C3019 N3017 1.356 . S
N3020 C3012 1.356 . S
N3020 H3026 0.984 . S
N3020 H3027 0.984 . S
N3021 C3014 1.356 . S
N3021 H3024 0.984 . S
N3021 H3025 0.985 . S
H3022 N3017 0.984 . S
H3023 N3017 0.985 . S
H3024 N3021 0.984 . S
H3025 N3021 0.985 . S
H3026 N3020 0.984 . S
H3027 N3020 0.984 . S
H3028 N3016 0.984 . S
H3029 N3016 0.985 . S
C3030 C3031 1.363 . S
C3030 C3036 1.379 . S
C3030 N3038 1.356 . S
C3031 C3030 1.363 . S
C3031 C3037 1.363 . S
C3032 C3033 1.363 . S
C3032 C3037 1.379 . S
C3032 N3039 1.356 . S
C3033 C3032 1.363 . S
C3033 C3036 1.363 . S
N3034 C3036 1.356 . S
N3034 H3046 0.984 . S
N3034 H3047 0.985 . S
N3035 C3037 1.356 . S
N3035 H3040 0.984 . S
N3035 H3041 0.985 . S
C3036 C3030 1.379 . S
C3036 C3033 1.363 . S
C3036 N3034 1.356 . S
C3037 C3031 1.363 . S
C3037 C3032 1.379 . S
C3037 N3035 1.356 . S
N3038 C3030 1.356 . S
N3038 H3044 0.984 . S
N3038 H3045 0.984 . S
N3039 C3032 1.356 . S
N3039 H3042 0.984 . S
N3039 H3043 0.985 . S
H3040 N3035 0.984 . S
H3041 N3035 0.985 . S
H3042 N3039 0.984 . S
H3043 N3039 0.985 . S
H3044 N3038 0.984 . S
H3045 N3038 0.984 . S
H3046 N3034 0.984 . S
H3047 N3034 0.985 . S
C3048 C3049 1.363 . S
C3048 C3054 1.379 . S
C3048 N3056 1.356 . S
C3049 C3048 1.363 . S
C3049 C3055 1.363 . S
C3050 C3051 1.363 . S
C3050 C3055 1.379 . S
C3050 N3057 1.356 . S
C3051 C3050 1.363 . S
C3051 C3054 1.363 . S
N3052 C3054 1.356 . S
N3052 H3064 0.984 . S
N3052 H3065 0.985 . S
N3053 C3055 1.356 . S
N3053 H3058 0.984 . S
N3053 H3059 0.985 . S
C3054 C3048 1.379 . S
C3054 C3051 1.363 . S
C3054 N3052 1.356 . S
C3055 C3049 1.363 . S
C3055 C3050 1.379 . S
C3055 N3053 1.356 . S
N3056 C3048 1.356 . S
N3056 H3062 0.984 . S
N3056 H3063 0.984 . S
N3057 C3050 1.356 . S
N3057 H3060 0.984 . S
N3057 H3061 0.985 . S
H3058 N3053 0.984 . S
H3059 N3053 0.985 . S
H3060 N3057 0.984 . S
H3061 N3057 0.985 . S
H3062 N3056 0.984 . S
H3063 N3056 0.984 . S
H3064 N3052 0.984 . S
H3065 N3052 0.985 . S
C3066 C3067 1.363 . S
C3066 C3072 1.379 . S
C3066 N3074 1.356 . S
C3067 C3066 1.363 . S
C3067 C3073 1.363 . S
C3068 C3069 1.363 . S
C3068 C3073 1.379 . S
C3068 N3075 1.356 . S
C3069 C3068 1.363 . S
C3069 C3072 1.363 . S
N3070 C3072 1.356 . S
N3070 H3082 0.984 . S
N3070 H3083 0.985 . S
N3071 C3073 1.356 . S
N3071 H3076 0.984 . S
N3071 H3077 0.985 . S
C3072 C3066 1.379 . S
C3072 C3069 1.363 . S
C3072 N3070 1.356 . S
C3073 C3067 1.363 . S
C3073 C3068 1.379 . S
C3073 N3071 1.356 . S
N3074 C3066 1.356 . S
N3074 H3080 0.984 . S
N3074 H3081 0.984 . S
N3075 C3068 1.356 . S
N3075 H3078 0.984 . S
N3075 H3079 0.985 . S
H3076 N3071 0.984 . S
H3077 N3071 0.985 . S
H3078 N3075 0.984 . S
H3079 N3075 0.985 . S
H3080 N3074 0.984 . S
H3081 N3074 0.984 . S
H3082 N3070 0.984 . S
H3083 N3070 0.985 . S
C3084 C3085 1.363 . S
C3084 C3090 1.379 . S
C3084 N3092 1.356 . S
C3085 C3084 1.363 . S
C3085 C3091 1.363 . S
C3086 C3087 1.363 . S
C3086 C3091 1.379 . S
C3086 N3093 1.356 . S
C3087 C3086 1.363 . S
C3087 C3090 1.363 . S
N3088 C3090 1.356 . S
N3088 H3100 0.984 . S
N3088 H3101 0.985 . S
N3089 C3091 1.356 . S
N3089 H3094 0.984 . S
N3089 H3095 0.985 . S
C3090 C3084 1.379 . S
C3090 C3087 1.363 . S
C3090 N3088 1.356 . S
C3091 C3085 1.363 . S
C3091 C3086 1.379 . S
C3091 N3089 1.356 . S
N3092 C3084 1.356 . S
N3092 H3098 0.984 . S
N3092 H3099 0.984 . S
N3093 C3086 1.356 . S
N3093 H3096 0.984 . S
N3093 H3097 0.985 . S
H3094 N3089 0.984 . S
H3095 N3089 0.985 . S
H3096 N3093 0.984 . S
H3097 N3093 0.985 . S
H3098 N3092 0.984 . S
H3099 N3092 0.984 . S
H3100 N3088 0.984 . S
H3101 N3088 0.985 . S
C3102 C3103 1.363 . S
C3102 C3108 1.379 . S
C3102 N3110 1.356 . S
C3103 C3102 1.363 . S
C3103 C3109 1.363 . S
C3104 C3105 1.363 . S
C3104 C3109 1.379 . S
C3104 N3111 1.356 . S
C3105 C3104 1.363 . S
C3105 C3108 1.363 . S
N3106 C3108 1.356 . S
N3106 H3118 0.984 . S
N3106 H3119 0.985 . S
N3107 C3109 1.356 . S
N3107 H3112 0.984 . S
N3107 H3113 0.985 . S
C3108 C3102 1.379 . S
C3108 C3105 1.363 . S
C3108 N3106 1.356 . S
C3109 C3103 1.363 . S
C3109 C3104 1.379 . S
C3109 N3107 1.356 . S
N3110 C3102 1.356 . S
N3110 H3116 0.984 . S
N3110 H3117 0.984 . S
N3111 C3104 1.356 . S
N3111 H3114 0.984 . S
N3111 H3115 0.985 . S
H3112 N3107 0.984 . S
H3113 N3107 0.985 . S
H3114 N3111 0.984 . S
H3115 N3111 0.985 . S
H3116 N3110 0.984 . S
H3117 N3110 0.984 . S
H3118 N3106 0.984 . S
H3119 N3106 0.985 . S
C3120 C3121 1.363 . S
C3120 C3126 1.379 . S
C3120 N3128 1.356 . S
C3121 C3120 1.363 . S
C3121 C3127 1.363 . S
C3122 C3123 1.363 . S
C3122 C3127 1.379 . S
C3122 N3129 1.356 . S
C3123 C3122 1.363 . S
C3123 C3126 1.363 . S
N3124 C3126 1.356 . S
N3124 H3136 0.984 . S
N3124 H3137 0.985 . S
N3125 C3127 1.356 . S
N3125 H3130 0.984 . S
N3125 H3131 0.985 . S
C3126 C3120 1.379 . S
C3126 C3123 1.363 . S
C3126 N3124 1.356 . S
C3127 C3121 1.363 . S
C3127 C3122 1.379 . S
C3127 N3125 1.356 . S
N3128 C3120 1.356 . S
N3128 H3134 0.984 . S
N3128 H3135 0.984 . S
N3129 C3122 1.356 . S
N3129 H3132 0.984 . S
N3129 H3133 0.985 . S
H3130 N3125 0.984 . S
H3131 N3125 0.985 . S
H3132 N3129 0.984 . S
H3133 N3129 0.985 . S
H3134 N3128 0.984 . S
H3135 N3128 0.984 . S
H3136 N3124 0.984 . S
H3137 N3124 0.985 . S
C3138 C3139 1.363 . S
C3138 C3144 1.379 . S
C3138 N3146 1.356 . S
C3139 C3138 1.363 . S
C3139 C3145 1.363 . S
C3140 C3141 1.363 . S
C3140 C3145 1.379 . S
C3140 N3147 1.356 . S
C3141 C3140 1.363 . S
C3141 C3144 1.363 . S
N3142 C3144 1.356 . S
N3142 H3154 0.984 . S
N3142 H3155 0.985 . S
N3143 C3145 1.356 . S
N3143 H3148 0.984 . S
N3143 H3149 0.985 . S
C3144 C3138 1.379 . S
C3144 C3141 1.363 . S
C3144 N3142 1.356 . S
C3145 C3139 1.363 . S
C3145 C3140 1.379 . S
C3145 N3143 1.356 . S
N3146 C3138 1.356 . S
N3146 H3152 0.984 . S
N3146 H3153 0.984 . S
N3147 C3140 1.356 . S
N3147 H3150 0.984 . S
N3147 H3151 0.985 . S
H3148 N3143 0.984 . S
H3149 N3143 0.985 . S
H3150 N3147 0.984 . S
H3151 N3147 0.985 . S
H3152 N3146 0.984 . S
H3153 N3146 0.984 . S
H3154 N3142 0.984 . S
H3155 N3142 0.985 . S
C3156 C3157 1.363 . S
C3156 C3162 1.379 . S
C3156 N3164 1.356 . S
C3157 C3156 1.363 . S
C3157 C3163 1.363 . S
C3158 C3159 1.363 . S
C3158 C3163 1.379 . S
C3158 N3165 1.356 . S
C3159 C3158 1.363 . S
C3159 C3162 1.363 . S
N3160 C3162 1.356 . S
N3160 H3172 0.984 . S
N3160 H3173 0.985 . S
N3161 C3163 1.356 . S
N3161 H3166 0.984 . S
N3161 H3167 0.985 . S
C3162 C3156 1.379 . S
C3162 C3159 1.363 . S
C3162 N3160 1.356 . S
C3163 C3157 1.363 . S
C3163 C3158 1.379 . S
C3163 N3161 1.356 . S
N3164 C3156 1.356 . S
N3164 H3170 0.984 . S
N3164 H3171 0.984 . S
N3165 C3158 1.356 . S
N3165 H3168 0.984 . S
N3165 H3169 0.985 . S
H3166 N3161 0.984 . S
H3167 N3161 0.985 . S
H3168 N3165 0.984 . S
H3169 N3165 0.985 . S
H3170 N3164 0.984 . S
H3171 N3164 0.984 . S
H3172 N3160 0.984 . S
H3173 N3160 0.985 . S
C3174 C3175 1.363 . S
C3174 C3180 1.379 . S
C3174 N3182 1.356 . S
C3175 C3174 1.363 . S
C3175 C3181 1.363 . S
C3176 C3177 1.363 . S
C3176 C3181 1.379 . S
C3176 N3183 1.356 . S
C3177 C3176 1.363 . S
C3177 C3180 1.363 . S
N3178 C3180 1.356 . S
N3178 H3190 0.984 . S
N3178 H3191 0.985 . S
N3179 C3181 1.356 . S
N3179 H3184 0.984 . S
N3179 H3185 0.985 . S
C3180 C3174 1.379 . S
C3180 C3177 1.363 . S
C3180 N3178 1.356 . S
C3181 C3175 1.363 . S
C3181 C3176 1.379 . S
C3181 N3179 1.356 . S
N3182 C3174 1.356 . S
N3182 H3188 0.984 . S
N3182 H3189 0.984 . S
N3183 C3176 1.356 . S
N3183 H3186 0.984 . S
N3183 H3187 0.985 . S
H3184 N3179 0.984 . S
H3185 N3179 0.985 . S
H3186 N3183 0.984 . S
H3187 N3183 0.985 . S
H3188 N3182 0.984 . S
H3189 N3182 0.984 . S
H3190 N3178 0.984 . S
H3191 N3178 0.985 . S
C3192 C3193 1.363 . S
C3192 C3198 1.379 . S
C3192 N3200 1.356 . S
C3193 C3192 1.363 . S
C3193 C3199 1.363 . S
C3194 C3195 1.363 . S
C3194 C3199 1.379 . S
C3194 N3201 1.356 . S
C3195 C3194 1.363 . S
C3195 C3198 1.363 . S
N3196 C3198 1.356 . S
N3196 H3208 0.984 . S
N3196 H3209 0.985 . S
N3197 C3199 1.356 . S
N3197 H3202 0.984 . S
N3197 H3203 0.985 . S
C3198 C3192 1.379 . S
C3198 C3195 1.363 . S
C3198 N3196 1.356 . S
C3199 C3193 1.363 . S
C3199 C3194 1.379 . S
C3199 N3197 1.356 . S
N3200 C3192 1.356 . S
N3200 H3206 0.984 . S
N3200 H3207 0.984 . S
N3201 C3194 1.356 . S
N3201 H3204 0.984 . S
N3201 H3205 0.985 . S
H3202 N3197 0.984 . S
H3203 N3197 0.985 . S
H3204 N3201 0.984 . S
H3205 N3201 0.985 . S
H3206 N3200 0.984 . S
H3207 N3200 0.984 . S
H3208 N3196 0.984 . S
H3209 N3196 0.985 . S
C3210 C3211 1.363 . S
C3210 C3216 1.379 . S
C3210 N3218 1.356 . S
C3211 C3210 1.363 . S
C3211 C3217 1.363 . S
C3212 C3213 1.363 . S
C3212 C3217 1.379 . S
C3212 N3219 1.356 . S
C3213 C3212 1.363 . S
C3213 C3216 1.363 . S
N3214 C3216 1.356 . S
N3214 H3226 0.984 . S
N3214 H3227 0.985 . S
N3215 C3217 1.356 . S
N3215 H3220 0.984 . S
N3215 H3221 0.985 . S
C3216 C3210 1.379 . S
C3216 C3213 1.363 . S
C3216 N3214 1.356 . S
C3217 C3211 1.363 . S
C3217 C3212 1.379 . S
C3217 N3215 1.356 . S
N3218 C3210 1.356 . S
N3218 H3224 0.984 . S
N3218 H3225 0.984 . S
N3219 C3212 1.356 . S
N3219 H3222 0.984 . S
N3219 H3223 0.985 . S
H3220 N3215 0.984 . S
H3221 N3215 0.985 . S
H3222 N3219 0.984 . S
H3223 N3219 0.985 . S
H3224 N3218 0.984 . S
H3225 N3218 0.984 . S
H3226 N3214 0.984 . S
H3227 N3214 0.985 . S
C3228 C3229 1.363 . S
C3228 C3234 1.379 . S
C3228 N3236 1.356 . S
C3229 C3228 1.363 . S
C3229 C3235 1.363 . S
C3230 C3231 1.363 . S
C3230 C3235 1.379 . S
C3230 N3237 1.356 . S
C3231 C3230 1.363 . S
C3231 C3234 1.363 . S
N3232 C3234 1.356 . S
N3232 H3244 0.984 . S
N3232 H3245 0.985 . S
N3233 C3235 1.356 . S
N3233 H3238 0.984 . S
N3233 H3239 0.985 . S
C3234 C3228 1.379 . S
C3234 C3231 1.363 . S
C3234 N3232 1.356 . S
C3235 C3229 1.363 . S
C3235 C3230 1.379 . S
C3235 N3233 1.356 . S
N3236 C3228 1.356 . S
N3236 H3242 0.984 . S
N3236 H3243 0.984 . S
N3237 C3230 1.356 . S
N3237 H3240 0.984 . S
N3237 H3241 0.985 . S
H3238 N3233 0.984 . S
H3239 N3233 0.985 . S
H3240 N3237 0.984 . S
H3241 N3237 0.985 . S
H3242 N3236 0.984 . S
H3243 N3236 0.984 . S
H3244 N3232 0.984 . S
H3245 N3232 0.985 . S
C3246 C3247 1.363 . S
C3246 C3252 1.379 . S
C3246 N3254 1.356 . S
C3247 C3246 1.363 . S
C3247 C3253 1.363 . S
C3248 C3249 1.363 . S
C3248 C3253 1.379 . S
C3248 N3255 1.356 . S
C3249 C3248 1.363 . S
C3249 C3252 1.363 . S
N3250 C3252 1.356 . S
N3250 H3262 0.984 . S
N3250 H3263 0.985 . S
N3251 C3253 1.356 . S
N3251 H3256 0.984 . S
N3251 H3257 0.985 . S
C3252 C3246 1.379 . S
C3252 C3249 1.363 . S
C3252 N3250 1.356 . S
C3253 C3247 1.363 . S
C3253 C3248 1.379 . S
C3253 N3251 1.356 . S
N3254 C3246 1.356 . S
N3254 H3260 0.984 . S
N3254 H3261 0.984 . S
N3255 C3248 1.356 . S
N3255 H3258 0.984 . S
N3255 H3259 0.985 . S
H3256 N3251 0.984 . S
H3257 N3251 0.985 . S
H3258 N3255 0.984 . S
H3259 N3255 0.985 . S
H3260 N3254 0.984 . S
H3261 N3254 0.984 . S
H3262 N3250 0.984 . S
H3263 N3250 0.985 . S
C3264 C3265 1.363 . S
C3264 C3270 1.379 . S
C3264 N3272 1.356 . S
C3265 C3264 1.363 . S
C3265 C3271 1.363 . S
C3266 C3267 1.363 . S
C3266 C3271 1.379 . S
C3266 N3273 1.356 . S
C3267 C3266 1.363 . S
C3267 C3270 1.363 . S
N3268 C3270 1.356 . S
N3268 H3280 0.984 . S
N3268 H3281 0.985 . S
N3269 C3271 1.356 . S
N3269 H3274 0.984 . S
N3269 H3275 0.985 . S
C3270 C3264 1.379 . S
C3270 C3267 1.363 . S
C3270 N3268 1.356 . S
C3271 C3265 1.363 . S
C3271 C3266 1.379 . S
C3271 N3269 1.356 . S
N3272 C3264 1.356 . S
N3272 H3278 0.984 . S
N3272 H3279 0.984 . S
N3273 C3266 1.356 . S
N3273 H3276 0.984 . S
N3273 H3277 0.985 . S
H3274 N3269 0.984 . S
H3275 N3269 0.985 . S
H3276 N3273 0.984 . S
H3277 N3273 0.985 . S
H3278 N3272 0.984 . S
H3279 N3272 0.984 . S
H3280 N3268 0.984 . S
H3281 N3268 0.985 . S
C3282 C3283 1.363 . S
C3282 C3288 1.379 . S
C3282 N3290 1.356 . S
C3283 C3282 1.363 . S
C3283 C3289 1.363 . S
C3284 C3285 1.363 . S
C3284 C3289 1.379 . S
C3284 N3291 1.356 . S
C3285 C3284 1.363 . S
C3285 C3288 1.363 . S
N3286 C3288 1.356 . S
N3286 H3298 0.984 . S
N3286 H3299 0.985 . S
N3287 C3289 1.356 . S
N3287 H3292 0.984 . S
N3287 H3293 0.985 . S
C3288 C3282 1.379 . S
C3288 C3285 1.363 . S
C3288 N3286 1.356 . S
C3289 C3283 1.363 . S
C3289 C3284 1.379 . S
C3289 N3287 1.356 . S
N3290 C3282 1.356 . S
N3290 H3296 0.984 . S
N3290 H3297 0.984 . S
N3291 C3284 1.356 . S
N3291 H3294 0.984 . S
N3291 H3295 0.985 . S
H3292 N3287 0.984 . S
H3293 N3287 0.985 . S
H3294 N3291 0.984 . S
H3295 N3291 0.985 . S
H3296 N3290 0.984 . S
H3297 N3290 0.984 . S
H3298 N3286 0.984 . S
H3299 N3286 0.985 . S
C3300 C3301 1.363 . S
C3300 C3306 1.379 . S
C3300 N3308 1.356 . S
C3301 C3300 1.363 . S
C3301 C3307 1.363 . S
C3302 C3303 1.363 . S
C3302 C3307 1.379 . S
C3302 N3309 1.356 . S
C3303 C3302 1.363 . S
C3303 C3306 1.363 . S
N3304 C3306 1.356 . S
N3304 H3316 0.984 . S
N3304 H3317 0.985 . S
N3305 C3307 1.356 . S
N3305 H3310 0.984 . S
N3305 H3311 0.985 . S
C3306 C3300 1.379 . S
C3306 C3303 1.363 . S
C3306 N3304 1.356 . S
C3307 C3301 1.363 . S
C3307 C3302 1.379 . S
C3307 N3305 1.356 . S
N3308 C3300 1.356 . S
N3308 H3314 0.984 . S
N3308 H3315 0.984 . S
N3309 C3302 1.356 . S
N3309 H3312 0.984 . S
N3309 H3313 0.985 . S
H3310 N3305 0.984 . S
H3311 N3305 0.985 . S
H3312 N3309 0.984 . S
H3313 N3309 0.985 . S
H3314 N3308 0.984 . S
H3315 N3308 0.984 . S
H3316 N3304 0.984 . S
H3317 N3304 0.985 . S
C3318 C3319 1.363 . S
C3318 C3324 1.379 . S
C3318 N3326 1.356 . S
C3319 C3318 1.363 . S
C3319 C3325 1.363 . S
C3320 C3321 1.363 . S
C3320 C3325 1.379 . S
C3320 N3327 1.356 . S
C3321 C3320 1.363 . S
C3321 C3324 1.363 . S
N3322 C3324 1.356 . S
N3322 H3334 0.984 . S
N3322 H3335 0.985 . S
N3323 C3325 1.356 . S
N3323 H3328 0.984 . S
N3323 H3329 0.985 . S
C3324 C3318 1.379 . S
C3324 C3321 1.363 . S
C3324 N3322 1.356 . S
C3325 C3319 1.363 . S
C3325 C3320 1.379 . S
C3325 N3323 1.356 . S
N3326 C3318 1.356 . S
N3326 H3332 0.984 . S
N3326 H3333 0.984 . S
N3327 C3320 1.356 . S
N3327 H3330 0.984 . S
N3327 H3331 0.985 . S
H3328 N3323 0.984 . S
H3329 N3323 0.985 . S
H3330 N3327 0.984 . S
H3331 N3327 0.985 . S
H3332 N3326 0.984 . S
H3333 N3326 0.984 . S
H3334 N3322 0.984 . S
H3335 N3322 0.985 . S
C3336 C3337 1.363 . S
C3336 C3342 1.379 . S
C3336 N3344 1.356 . S
C3337 C3336 1.363 . S
C3337 C3343 1.363 . S
C3338 C3339 1.363 . S
C3338 C3343 1.379 . S
C3338 N3345 1.356 . S
C3339 C3338 1.363 . S
C3339 C3342 1.363 . S
N3340 C3342 1.356 . S
N3340 H3352 0.984 . S
N3340 H3353 0.985 . S
N3341 C3343 1.356 . S
N3341 H3346 0.984 . S
N3341 H3347 0.985 . S
C3342 C3336 1.379 . S
C3342 C3339 1.363 . S
C3342 N3340 1.356 . S
C3343 C3337 1.363 . S
C3343 C3338 1.379 . S
C3343 N3341 1.356 . S
N3344 C3336 1.356 . S
N3344 H3350 0.984 . S
N3344 H3351 0.984 . S
N3345 C3338 1.356 . S
N3345 H3348 0.984 . S
N3345 H3349 0.985 . S
H3346 N3341 0.984 . S
H3347 N3341 0.985 . S
H3348 N3345 0.984 . S
H3349 N3345 0.985 . S
H3350 N3344 0.984 . S
H3351 N3344 0.984 . S
H3352 N3340 0.984 . S
H3353 N3340 0.985 . S
C3354 C3355 1.363 . S
C3354 C3360 1.379 . S
C3354 N3362 1.356 . S
C3355 C3354 1.363 . S
C3355 C3361 1.363 . S
C3356 C3357 1.363 . S
C3356 C3361 1.379 . S
C3356 N3363 1.356 . S
C3357 C3356 1.363 . S
C3357 C3360 1.363 . S
N3358 C3360 1.356 . S
N3358 H3370 0.984 . S
N3358 H3371 0.985 . S
N3359 C3361 1.356 . S
N3359 H3364 0.984 . S
N3359 H3365 0.985 . S
C3360 C3354 1.379 . S
C3360 C3357 1.363 . S
C3360 N3358 1.356 . S
C3361 C3355 1.363 . S
C3361 C3356 1.379 . S
C3361 N3359 1.356 . S
N3362 C3354 1.356 . S
N3362 H3368 0.984 . S
N3362 H3369 0.984 . S
N3363 C3356 1.356 . S
N3363 H3366 0.984 . S
N3363 H3367 0.985 . S
H3364 N3359 0.984 . S
H3365 N3359 0.985 . S
H3366 N3363 0.984 . S
H3367 N3363 0.985 . S
H3368 N3362 0.984 . S
H3369 N3362 0.984 . S
H3370 N3358 0.984 . S
H3371 N3358 0.985 . S
C3372 C3373 1.363 . S
C3372 C3378 1.379 . S
C3372 N3380 1.356 . S
C3373 C3372 1.363 . S
C3373 C3379 1.363 . S
C3374 C3375 1.363 . S
C3374 C3379 1.379 . S
C3374 N3381 1.356 . S
C3375 C3374 1.363 . S
C3375 C3378 1.363 . S
N3376 C3378 1.356 . S
N3376 H3388 0.984 . S
N3376 H3389 0.985 . S
N3377 C3379 1.356 . S
N3377 H3382 0.984 . S
N3377 H3383 0.985 . S
C3378 C3372 1.379 . S
C3378 C3375 1.363 . S
C3378 N3376 1.356 . S
C3379 C3373 1.363 . S
C3379 C3374 1.379 . S
C3379 N3377 1.356 . S
N3380 C3372 1.356 . S
N3380 H3386 0.984 . S
N3380 H3387 0.984 . S
N3381 C3374 1.356 . S
N3381 H3384 0.984 . S
N3381 H3385 0.985 . S
H3382 N3377 0.984 . S
H3383 N3377 0.985 . S
H3384 N3381 0.984 . S
H3385 N3381 0.985 . S
H3386 N3380 0.984 . S
H3387 N3380 0.984 . S
H3388 N3376 0.984 . S
H3389 N3376 0.985 . S
C3390 C3391 1.363 . S
C3390 C3396 1.379 . S
C3390 N3398 1.356 . S
C3391 C3390 1.363 . S
C3391 C3397 1.363 . S
C3392 C3393 1.363 . S
C3392 C3397 1.379 . S
C3392 N3399 1.356 . S
C3393 C3392 1.363 . S
C3393 C3396 1.363 . S
N3394 C3396 1.356 . S
N3394 H3406 0.984 . S
N3394 H3407 0.985 . S
N3395 C3397 1.356 . S
N3395 H3400 0.984 . S
N3395 H3401 0.985 . S
C3396 C3390 1.379 . S
C3396 C3393 1.363 . S
C3396 N3394 1.356 . S
C3397 C3391 1.363 . S
C3397 C3392 1.379 . S
C3397 N3395 1.356 . S
N3398 C3390 1.356 . S
N3398 H3404 0.984 . S
N3398 H3405 0.984 . S
N3399 C3392 1.356 . S
N3399 H3402 0.984 . S
N3399 H3403 0.985 . S
H3400 N3395 0.984 . S
H3401 N3395 0.985 . S
H3402 N3399 0.984 . S
H3403 N3399 0.985 . S
H3404 N3398 0.984 . S
H3405 N3398 0.984 . S
H3406 N3394 0.984 . S
H3407 N3394 0.985 . S
C3408 C3409 1.363 . S
C3408 C3414 1.379 . S
C3408 N3416 1.356 . S
C3409 C3408 1.363 . S
C3409 C3415 1.363 . S
C3410 C3411 1.363 . S
C3410 C3415 1.379 . S
C3410 N3417 1.356 . S
C3411 C3410 1.363 . S
C3411 C3414 1.363 . S
N3412 C3414 1.356 . S
N3412 H3424 0.984 . S
N3412 H3425 0.985 . S
N3413 C3415 1.356 . S
N3413 H3418 0.984 . S
N3413 H3419 0.985 . S
C3414 C3408 1.379 . S
C3414 C3411 1.363 . S
C3414 N3412 1.356 . S
C3415 C3409 1.363 . S
C3415 C3410 1.379 . S
C3415 N3413 1.356 . S
N3416 C3408 1.356 . S
N3416 H3422 0.984 . S
N3416 H3423 0.984 . S
N3417 C3410 1.356 . S
N3417 H3420 0.984 . S
N3417 H3421 0.985 . S
H3418 N3413 0.984 . S
H3419 N3413 0.985 . S
H3420 N3417 0.984 . S
H3421 N3417 0.985 . S
H3422 N3416 0.984 . S
H3423 N3416 0.984 . S
H3424 N3412 0.984 . S
H3425 N3412 0.985 . S
C3426 C3427 1.363 . S
C3426 C3432 1.379 . S
C3426 N3434 1.356 . S
C3427 C3426 1.363 . S
C3427 C3433 1.363 . S
C3428 C3429 1.363 . S
C3428 C3433 1.379 . S
C3428 N3435 1.356 . S
C3429 C3428 1.363 . S
C3429 C3432 1.363 . S
N3430 C3432 1.356 . S
N3430 H3442 0.984 . S
N3430 H3443 0.985 . S
N3431 C3433 1.356 . S
N3431 H3436 0.984 . S
N3431 H3437 0.985 . S
C3432 C3426 1.379 . S
C3432 C3429 1.363 . S
C3432 N3430 1.356 . S
C3433 C3427 1.363 . S
C3433 C3428 1.379 . S
C3433 N3431 1.356 . S
N3434 C3426 1.356 . S
N3434 H3440 0.984 . S
N3434 H3441 0.984 . S
N3435 C3428 1.356 . S
N3435 H3438 0.984 . S
N3435 H3439 0.985 . S
H3436 N3431 0.984 . S
H3437 N3431 0.985 . S
H3438 N3435 0.984 . S
H3439 N3435 0.985 . S
H3440 N3434 0.984 . S
H3441 N3434 0.984 . S
H3442 N3430 0.984 . S
H3443 N3430 0.985 . S
C3444 C3445 1.363 . S
C3444 C3450 1.379 . S
C3444 N3452 1.356 . S
C3445 C3444 1.363 . S
C3445 C3451 1.363 . S
C3446 C3447 1.363 . S
C3446 C3451 1.379 . S
C3446 N3453 1.356 . S
C3447 C3446 1.363 . S
C3447 C3450 1.363 . S
N3448 C3450 1.356 . S
N3448 H3460 0.984 . S
N3448 H3461 0.985 . S
N3449 C3451 1.356 . S
N3449 H3454 0.984 . S
N3449 H3455 0.985 . S
C3450 C3444 1.379 . S
C3450 C3447 1.363 . S
C3450 N3448 1.356 . S
C3451 C3445 1.363 . S
C3451 C3446 1.379 . S
C3451 N3449 1.356 . S
N3452 C3444 1.356 . S
N3452 H3458 0.984 . S
N3452 H3459 0.984 . S
N3453 C3446 1.356 . S
N3453 H3456 0.984 . S
N3453 H3457 0.985 . S
H3454 N3449 0.984 . S
H3455 N3449 0.985 . S
H3456 N3453 0.984 . S
H3457 N3453 0.985 . S
H3458 N3452 0.984 . S
H3459 N3452 0.984 . S
H3460 N3448 0.984 . S
H3461 N3448 0.985 . S
C3462 C3463 1.363 . S
C3462 C3468 1.379 . S
C3462 N3470 1.356 . S
C3463 C3462 1.363 . S
C3463 C3469 1.363 . S
C3464 C3465 1.363 . S
C3464 C3469 1.379 . S
C3464 N3471 1.356 . S
C3465 C3464 1.363 . S
C3465 C3468 1.363 . S
N3466 C3468 1.356 . S
N3466 H3478 0.984 . S
N3466 H3479 0.985 . S
N3467 C3469 1.356 . S
N3467 H3472 0.984 . S
N3467 H3473 0.985 . S
C3468 C3462 1.379 . S
C3468 C3465 1.363 . S
C3468 N3466 1.356 . S
C3469 C3463 1.363 . S
C3469 C3464 1.379 . S
C3469 N3467 1.356 . S
N3470 C3462 1.356 . S
N3470 H3476 0.984 . S
N3470 H3477 0.984 . S
N3471 C3464 1.356 . S
N3471 H3474 0.984 . S
N3471 H3475 0.985 . S
H3472 N3467 0.984 . S
H3473 N3467 0.985 . S
H3474 N3471 0.984 . S
H3475 N3471 0.985 . S
H3476 N3470 0.984 . S
H3477 N3470 0.984 . S
H3478 N3466 0.984 . S
H3479 N3466 0.985 . S
C3480 C3481 1.363 . S
C3480 C3486 1.379 . S
C3480 N3488 1.356 . S
C3481 C3480 1.363 . S
C3481 C3487 1.363 . S
C3482 C3483 1.363 . S
C3482 C3487 1.379 . S
C3482 N3489 1.356 . S
C3483 C3482 1.363 . S
C3483 C3486 1.363 . S
N3484 C3486 1.356 . S
N3484 H3496 0.984 . S
N3484 H3497 0.985 . S
N3485 C3487 1.356 . S
N3485 H3490 0.984 . S
N3485 H3491 0.985 . S
C3486 C3480 1.379 . S
C3486 C3483 1.363 . S
C3486 N3484 1.356 . S
C3487 C3481 1.363 . S
C3487 C3482 1.379 . S
C3487 N3485 1.356 . S
N3488 C3480 1.356 . S
N3488 H3494 0.984 . S
N3488 H3495 0.984 . S
N3489 C3482 1.356 . S
N3489 H3492 0.984 . S
N3489 H3493 0.985 . S
H3490 N3485 0.984 . S
H3491 N3485 0.985 . S
H3492 N3489 0.984 . S
H3493 N3489 0.985 . S
H3494 N3488 0.984 . S
H3495 N3488 0.984 . S
H3496 N3484 0.984 . S
H3497 N3484 0.985 . S
C3498 C3499 1.363 . S
C3498 C3504 1.379 . S
C3498 N3506 1.356 . S
C3499 C3498 1.363 . S
C3499 C3505 1.363 . S
C3500 C3501 1.363 . S
C3500 C3505 1.379 . S
C3500 N3507 1.356 . S
C3501 C3500 1.363 . S
C3501 C3504 1.363 . S
N3502 C3504 1.356 . S
N3502 H3514 0.984 . S
N3502 H3515 0.985 . S
N3503 C3505 1.356 . S
N3503 H3508 0.984 . S
N3503 H3509 0.985 . S
C3504 C3498 1.379 . S
C3504 C3501 1.363 . S
C3504 N3502 1.356 . S
C3505 C3499 1.363 . S
C3505 C3500 1.379 . S
C3505 N3503 1.356 . S
N3506 C3498 1.356 . S
N3506 H3512 0.984 . S
N3506 H3513 0.984 . S
N3507 C3500 1.356 . S
N3507 H3510 0.984 . S
N3507 H3511 0.985 . S
H3508 N3503 0.984 . S
H3509 N3503 0.985 . S
H3510 N3507 0.984 . S
H3511 N3507 0.985 . S
H3512 N3506 0.984 . S
H3513 N3506 0.984 . S
H3514 N3502 0.984 . S
H3515 N3502 0.985 . S
C3516 C3517 1.363 . S
C3516 C3522 1.379 . S
C3516 N3524 1.356 . S
C3517 C3516 1.363 . S
C3517 C3523 1.363 . S
C3518 C3519 1.363 . S
C3518 C3523 1.379 . S
C3518 N3525 1.356 . S
C3519 C3518 1.363 . S
C3519 C3522 1.363 . S
N3520 C3522 1.356 . S
N3520 H3532 0.984 . S
N3520 H3533 0.985 . S
N3521 C3523 1.356 . S
N3521 H3526 0.984 . S
N3521 H3527 0.985 . S
C3522 C3516 1.379 . S
C3522 C3519 1.363 . S
C3522 N3520 1.356 . S
C3523 C3517 1.363 . S
C3523 C3518 1.379 . S
C3523 N3521 1.356 . S
N3524 C3516 1.356 . S
N3524 H3530 0.984 . S
N3524 H3531 0.984 . S
N3525 C3518 1.356 . S
N3525 H3528 0.984 . S
N3525 H3529 0.985 . S
H3526 N3521 0.984 . S
H3527 N3521 0.985 . S
H3528 N3525 0.984 . S
H3529 N3525 0.985 . S
H3530 N3524 0.984 . S
H3531 N3524 0.984 . S
H3532 N3520 0.984 . S
H3533 N3520 0.985 . S
C3534 C3535 1.363 . S
C3534 C3540 1.379 . S
C3534 N3542 1.356 . S
C3535 C3534 1.363 . S
C3535 C3541 1.363 . S
C3536 C3537 1.363 . S
C3536 C3541 1.379 . S
C3536 N3543 1.356 . S
C3537 C3536 1.363 . S
C3537 C3540 1.363 . S
N3538 C3540 1.356 . S
N3538 H3550 0.984 . S
N3538 H3551 0.985 . S
N3539 C3541 1.356 . S
N3539 H3544 0.984 . S
N3539 H3545 0.985 . S
C3540 C3534 1.379 . S
C3540 C3537 1.363 . S
C3540 N3538 1.356 . S
C3541 C3535 1.363 . S
C3541 C3536 1.379 . S
C3541 N3539 1.356 . S
N3542 C3534 1.356 . S
N3542 H3548 0.984 . S
N3542 H3549 0.984 . S
N3543 C3536 1.356 . S
N3543 H3546 0.984 . S
N3543 H3547 0.985 . S
H3544 N3539 0.984 . S
H3545 N3539 0.985 . S
H3546 N3543 0.984 . S
H3547 N3543 0.985 . S
H3548 N3542 0.984 . S
H3549 N3542 0.984 . S
H3550 N3538 0.984 . S
H3551 N3538 0.985 . S
C3552 C3553 1.363 . S
C3552 C3558 1.379 . S
C3552 N3560 1.356 . S
C3553 C3552 1.363 . S
C3553 C3559 1.363 . S
C3554 C3555 1.363 . S
C3554 C3559 1.379 . S
C3554 N3561 1.356 . S
C3555 C3554 1.363 . S
C3555 C3558 1.363 . S
N3556 C3558 1.356 . S
N3556 H3568 0.984 . S
N3556 H3569 0.985 . S
N3557 C3559 1.356 . S
N3557 H3562 0.984 . S
N3557 H3563 0.985 . S
C3558 C3552 1.379 . S
C3558 C3555 1.363 . S
C3558 N3556 1.356 . S
C3559 C3553 1.363 . S
C3559 C3554 1.379 . S
C3559 N3557 1.356 . S
N3560 C3552 1.356 . S
N3560 H3566 0.984 . S
N3560 H3567 0.984 . S
N3561 C3554 1.356 . S
N3561 H3564 0.984 . S
N3561 H3565 0.985 . S
H3562 N3557 0.984 . S
H3563 N3557 0.985 . S
H3564 N3561 0.984 . S
H3565 N3561 0.985 . S
H3566 N3560 0.984 . S
H3567 N3560 0.984 . S
H3568 N3556 0.984 . S
H3569 N3556 0.985 . S
C3570 C3571 1.363 . S
C3570 C3576 1.379 . S
C3570 N3578 1.356 . S
C3571 C3570 1.363 . S
C3571 C3577 1.363 . S
C3572 C3573 1.363 . S
C3572 C3577 1.379 . S
C3572 N3579 1.356 . S
C3573 C3572 1.363 . S
C3573 C3576 1.363 . S
N3574 C3576 1.356 . S
N3574 H3586 0.984 . S
N3574 H3587 0.985 . S
N3575 C3577 1.356 . S
N3575 H3580 0.984 . S
N3575 H3581 0.985 . S
C3576 C3570 1.379 . S
C3576 C3573 1.363 . S
C3576 N3574 1.356 . S
C3577 C3571 1.363 . S
C3577 C3572 1.379 . S
C3577 N3575 1.356 . S
N3578 C3570 1.356 . S
N3578 H3584 0.984 . S
N3578 H3585 0.984 . S
N3579 C3572 1.356 . S
N3579 H3582 0.984 . S
N3579 H3583 0.985 . S
H3580 N3575 0.984 . S
H3581 N3575 0.985 . S
H3582 N3579 0.984 . S
H3583 N3579 0.985 . S
H3584 N3578 0.984 . S
H3585 N3578 0.984 . S
H3586 N3574 0.984 . S
H3587 N3574 0.985 . S
C3588 C3589 1.363 . S
C3588 C3594 1.379 . S
C3588 N3596 1.356 . S
C3589 C3588 1.363 . S
C3589 C3595 1.363 . S
C3590 C3591 1.363 . S
C3590 C3595 1.379 . S
C3590 N3597 1.356 . S
C3591 C3590 1.363 . S
C3591 C3594 1.363 . S
N3592 C3594 1.356 . S
N3592 H3604 0.984 . S
N3592 H3605 0.985 . S
N3593 C3595 1.356 . S
N3593 H3598 0.984 . S
N3593 H3599 0.985 . S
C3594 C3588 1.379 . S
C3594 C3591 1.363 . S
C3594 N3592 1.356 . S
C3595 C3589 1.363 . S
C3595 C3590 1.379 . S
C3595 N3593 1.356 . S
N3596 C3588 1.356 . S
N3596 H3602 0.984 . S
N3596 H3603 0.984 . S
N3597 C3590 1.356 . S
N3597 H3600 0.984 . S
N3597 H3601 0.985 . S
H3598 N3593 0.984 . S
H3599 N3593 0.985 . S
H3600 N3597 0.984 . S
H3601 N3597 0.985 . S
H3602 N3596 0.984 . S
H3603 N3596 0.984 . S
H3604 N3592 0.984 . S
H3605 N3592 0.985 . S
C3606 C3607 1.363 . S
C3606 C3612 1.379 . S
C3606 N3614 1.356 . S
C3607 C3606 1.363 . S
C3607 C3613 1.363 . S
C3608 C3609 1.363 . S
C3608 C3613 1.379 . S
C3608 N3615 1.356 . S
C3609 C3608 1.363 . S
C3609 C3612 1.363 . S
N3610 C3612 1.356 . S
N3610 H3622 0.984 . S
N3610 H3623 0.985 . S
N3611 C3613 1.356 . S
N3611 H3616 0.984 . S
N3611 H3617 0.985 . S
C3612 C3606 1.379 . S
C3612 C3609 1.363 . S
C3612 N3610 1.356 . S
C3613 C3607 1.363 . S
C3613 C3608 1.379 . S
C3613 N3611 1.356 . S
N3614 C3606 1.356 . S
N3614 H3620 0.984 . S
N3614 H3621 0.984 . S
N3615 C3608 1.356 . S
N3615 H3618 0.984 . S
N3615 H3619 0.985 . S
H3616 N3611 0.984 . S
H3617 N3611 0.985 . S
H3618 N3615 0.984 . S
H3619 N3615 0.985 . S
H3620 N3614 0.984 . S
H3621 N3614 0.984 . S
H3622 N3610 0.984 . S
H3623 N3610 0.985 . S
C3624 C3625 1.363 . S
C3624 C3630 1.379 . S
C3624 N3632 1.356 . S
C3625 C3624 1.363 . S
C3625 C3631 1.363 . S
C3626 C3627 1.363 . S
C3626 C3631 1.379 . S
C3626 N3633 1.356 . S
C3627 C3626 1.363 . S
C3627 C3630 1.363 . S
N3628 C3630 1.356 . S
N3628 H3640 0.984 . S
N3628 H3641 0.985 . S
N3629 C3631 1.356 . S
N3629 H3634 0.984 . S
N3629 H3635 0.985 . S
C3630 C3624 1.379 . S
C3630 C3627 1.363 . S
C3630 N3628 1.356 . S
C3631 C3625 1.363 . S
C3631 C3626 1.379 . S
C3631 N3629 1.356 . S
N3632 C3624 1.356 . S
N3632 H3638 0.984 . S
N3632 H3639 0.984 . S
N3633 C3626 1.356 . S
N3633 H3636 0.984 . S
N3633 H3637 0.985 . S
H3634 N3629 0.984 . S
H3635 N3629 0.985 . S
H3636 N3633 0.984 . S
H3637 N3633 0.985 . S
H3638 N3632 0.984 . S
H3639 N3632 0.984 . S
H3640 N3628 0.984 . S
H3641 N3628 0.985 . S
C3642 C3643 1.363 . S
C3642 C3648 1.379 . S
C3642 N3650 1.356 . S
C3643 C3642 1.363 . S
C3643 C3649 1.363 . S
C3644 C3645 1.363 . S
C3644 C3649 1.379 . S
C3644 N3651 1.356 . S
C3645 C3644 1.363 . S
C3645 C3648 1.363 . S
N3646 C3648 1.356 . S
N3646 H3658 0.984 . S
N3646 H3659 0.985 . S
N3647 C3649 1.356 . S
N3647 H3652 0.984 . S
N3647 H3653 0.985 . S
C3648 C3642 1.379 . S
C3648 C3645 1.363 . S
C3648 N3646 1.356 . S
C3649 C3643 1.363 . S
C3649 C3644 1.379 . S
C3649 N3647 1.356 . S
N3650 C3642 1.356 . S
N3650 H3656 0.984 . S
N3650 H3657 0.984 . S
N3651 C3644 1.356 . S
N3651 H3654 0.984 . S
N3651 H3655 0.985 . S
H3652 N3647 0.984 . S
H3653 N3647 0.985 . S
H3654 N3651 0.984 . S
H3655 N3651 0.985 . S
H3656 N3650 0.984 . S
H3657 N3650 0.984 . S
H3658 N3646 0.984 . S
H3659 N3646 0.985 . S
C3660 C3661 1.363 . S
C3660 C3666 1.379 . S
C3660 N3668 1.356 . S
C3661 C3660 1.363 . S
C3661 C3667 1.363 . S
C3662 C3663 1.363 . S
C3662 C3667 1.379 . S
C3662 N3669 1.356 . S
C3663 C3662 1.363 . S
C3663 C3666 1.363 . S
N3664 C3666 1.356 . S
N3664 H3676 0.984 . S
N3664 H3677 0.985 . S
N3665 C3667 1.356 . S
N3665 H3670 0.984 . S
N3665 H3671 0.985 . S
C3666 C3660 1.379 . S
C3666 C3663 1.363 . S
C3666 N3664 1.356 . S
C3667 C3661 1.363 . S
C3667 C3662 1.379 . S
C3667 N3665 1.356 . S
N3668 C3660 1.356 . S
N3668 H3674 0.984 . S
N3668 H3675 0.984 . S
N3669 C3662 1.356 . S
N3669 H3672 0.984 . S
N3669 H3673 0.985 . S
H3670 N3665 0.984 . S
H3671 N3665 0.985 . S
H3672 N3669 0.984 . S
H3673 N3669 0.985 . S
H3674 N3668 0.984 . S
H3675 N3668 0.984 . S
H3676 N3664 0.984 . S
H3677 N3664 0.985 . S
C3678 C3679 1.363 . S
C3678 C3684 1.379 . S
C3678 N3686 1.356 . S
C3679 C3678 1.363 . S
C3679 C3685 1.363 . S
C3680 C3681 1.363 . S
C3680 C3685 1.379 . S
C3680 N3687 1.356 . S
C3681 C3680 1.363 . S
C3681 C3684 1.363 . S
N3682 C3684 1.356 . S
N3682 H3694 0.984 . S
N3682 H3695 0.985 . S
N3683 C3685 1.356 . S
N3683 H3688 0.984 . S
N3683 H3689 0.985 . S
C3684 C3678 1.379 . S
C3684 C3681 1.363 . S
C3684 N3682 1.356 . S
C3685 C3679 1.363 . S
C3685 C3680 1.379 . S
C3685 N3683 1.356 . S
N3686 C3678 1.356 . S
N3686 H3692 0.984 . S
N3686 H3693 0.984 . S
N3687 C3680 1.356 . S
N3687 H3690 0.984 . S
N3687 H3691 0.985 . S
H3688 N3683 0.984 . S
H3689 N3683 0.985 . S
H3690 N3687 0.984 . S
H3691 N3687 0.985 . S
H3692 N3686 0.984 . S
H3693 N3686 0.984 . S
H3694 N3682 0.984 . S
H3695 N3682 0.985 . S
C3696 C3697 1.363 . S
C3696 C3702 1.379 . S
C3696 N3704 1.356 . S
C3697 C3696 1.363 . S
C3697 C3703 1.363 . S
C3698 C3699 1.363 . S
C3698 C3703 1.379 . S
C3698 N3705 1.356 . S
C3699 C3698 1.363 . S
C3699 C3702 1.363 . S
N3700 C3702 1.356 . S
N3700 H3712 0.984 . S
N3700 H3713 0.985 . S
N3701 C3703 1.356 . S
N3701 H3706 0.984 . S
N3701 H3707 0.985 . S
C3702 C3696 1.379 . S
C3702 C3699 1.363 . S
C3702 N3700 1.356 . S
C3703 C3697 1.363 . S
C3703 C3698 1.379 . S
C3703 N3701 1.356 . S
N3704 C3696 1.356 . S
N3704 H3710 0.984 . S
N3704 H3711 0.984 . S
N3705 C3698 1.356 . S
N3705 H3708 0.984 . S
N3705 H3709 0.985 . S
H3706 N3701 0.984 . S
H3707 N3701 0.985 . S
H3708 N3705 0.984 . S
H3709 N3705 0.985 . S
H3710 N3704 0.984 . S
H3711 N3704 0.984 . S
H3712 N3700 0.984 . S
H3713 N3700 0.985 . S
C3714 C3715 1.363 . S
C3714 C3720 1.379 . S
C3714 N3722 1.356 . S
C3715 C3714 1.363 . S
C3715 C3721 1.363 . S
C3716 C3717 1.363 . S
C3716 C3721 1.379 . S
C3716 N3723 1.356 . S
C3717 C3716 1.363 . S
C3717 C3720 1.363 . S
N3718 C3720 1.356 . S
N3718 H3730 0.984 . S
N3718 H3731 0.985 . S
N3719 C3721 1.356 . S
N3719 H3724 0.984 . S
N3719 H3725 0.985 . S
C3720 C3714 1.379 . S
C3720 C3717 1.363 . S
C3720 N3718 1.356 . S
C3721 C3715 1.363 . S
C3721 C3716 1.379 . S
C3721 N3719 1.356 . S
N3722 C3714 1.356 . S
N3722 H3728 0.984 . S
N3722 H3729 0.984 . S
N3723 C3716 1.356 . S
N3723 H3726 0.984 . S
N3723 H3727 0.985 . S
H3724 N3719 0.984 . S
H3725 N3719 0.985 . S
H3726 N3723 0.984 . S
H3727 N3723 0.985 . S
H3728 N3722 0.984 . S
H3729 N3722 0.984 . S
H3730 N3718 0.984 . S
H3731 N3718 0.985 . S
C3732 C3733 1.363 . S
C3732 C3738 1.379 . S
C3732 N3740 1.356 . S
C3733 C3732 1.363 . S
C3733 C3739 1.363 . S
C3734 C3735 1.363 . S
C3734 C3739 1.379 . S
C3734 N3741 1.356 . S
C3735 C3734 1.363 . S
C3735 C3738 1.363 . S
N3736 C3738 1.356 . S
N3736 H3748 0.984 . S
N3736 H3749 0.985 . S
N3737 C3739 1.356 . S
N3737 H3742 0.984 . S
N3737 H3743 0.985 . S
C3738 C3732 1.379 . S
C3738 C3735 1.363 . S
C3738 N3736 1.356 . S
C3739 C3733 1.363 . S
C3739 C3734 1.379 . S
C3739 N3737 1.356 . S
N3740 C3732 1.356 . S
N3740 H3746 0.984 . S
N3740 H3747 0.984 . S
N3741 C3734 1.356 . S
N3741 H3744 0.984 . S
N3741 H3745 0.985 . S
H3742 N3737 0.984 . S
H3743 N3737 0.985 . S
H3744 N3741 0.984 . S
H3745 N3741 0.985 . S
H3746 N3740 0.984 . S
H3747 N3740 0.984 . S
H3748 N3736 0.984 . S
H3749 N3736 0.985 . S
C3750 C3751 1.363 . S
C3750 C3756 1.379 . S
C3750 N3758 1.356 . S
C3751 C3750 1.363 . S
C3751 C3757 1.363 . S
C3752 C3753 1.363 . S
C3752 C3757 1.379 . S
C3752 N3759 1.356 . S
C3753 C3752 1.363 . S
C3753 C3756 1.363 . S
N3754 C3756 1.356 . S
N3754 H3766 0.984 . S
N3754 H3767 0.985 . S
N3755 C3757 1.356 . S
N3755 H3760 0.984 . S
N3755 H3761 0.985 . S
C3756 C3750 1.379 . S
C3756 C3753 1.363 . S
C3756 N3754 1.356 . S
C3757 C3751 1.363 . S
C3757 C3752 1.379 . S
C3757 N3755 1.356 . S
N3758 C3750 1.356 . S
N3758 H3764 0.984 . S
N3758 H3765 0.984 . S
N3759 C3752 1.356 . S
N3759 H3762 0.984 . S
N3759 H3763 0.985 . S
H3760 N3755 0.984 . S
H3761 N3755 0.985 . S
H3762 N3759 0.984 . S
H3763 N3759 0.985 . S
H3764 N3758 0.984 . S
H3765 N3758 0.984 . S
H3766 N3754 0.984 . S
H3767 N3754 0.985 . S
C3768 C3769 1.363 . S
C3768 C3774 1.379 . S
C3768 N3776 1.356 . S
C3769 C3768 1.363 . S
C3769 C3775 1.363 . S
C3770 C3771 1.363 . S
C3770 C3775 1.379 . S
C3770 N3777 1.356 . S
C3771 C3770 1.363 . S
C3771 C3774 1.363 . S
N3772 C3774 1.356 . S
N3772 H3784 0.984 . S
N3772 H3785 0.985 . S
N3773 C3775 1.356 . S
N3773 H3778 0.984 . S
N3773 H3779 0.985 . S
C3774 C3768 1.379 . S
C3774 C3771 1.363 . S
C3774 N3772 1.356 . S
C3775 C3769 1.363 . S
C3775 C3770 1.379 . S
C3775 N3773 1.356 . S
N3776 C3768 1.356 . S
N3776 H3782 0.984 . S
N3776 H3783 0.984 . S
N3777 C3770 1.356 . S
N3777 H3780 0.984 . S
N3777 H3781 0.985 . S
H3778 N3773 0.984 . S
H3779 N3773 0.985 . S
H3780 N3777 0.984 . S
H3781 N3777 0.985 . S
H3782 N3776 0.984 . S
H3783 N3776 0.984 . S
H3784 N3772 0.984 . S
H3785 N3772 0.985 . S
C3786 C3787 1.363 . S
C3786 C3792 1.379 . S
C3786 N3794 1.356 . S
C3787 C3786 1.363 . S
C3787 C3793 1.363 . S
C3788 C3789 1.363 . S
C3788 C3793 1.379 . S
C3788 N3795 1.356 . S
C3789 C3788 1.363 . S
C3789 C3792 1.363 . S
N3790 C3792 1.356 . S
N3790 H3802 0.984 . S
N3790 H3803 0.985 . S
N3791 C3793 1.356 . S
N3791 H3796 0.984 . S
N3791 H3797 0.985 . S
C3792 C3786 1.379 . S
C3792 C3789 1.363 . S
C3792 N3790 1.356 . S
C3793 C3787 1.363 . S
C3793 C3788 1.379 . S
C3793 N3791 1.356 . S
N3794 C3786 1.356 . S
N3794 H3800 0.984 . S
N3794 H3801 0.984 . S
N3795 C3788 1.356 . S
N3795 H3798 0.984 . S
N3795 H3799 0.985 . S
H3796 N3791 0.984 . S
H3797 N3791 0.985 . S
H3798 N3795 0.984 . S
H3799 N3795 0.985 . S
H3800 N3794 0.984 . S
H3801 N3794 0.984 . S
H3802 N3790 0.984 . S
H3803 N3790 0.985 . S
C3804 C3805 1.363 . S
C3804 C3810 1.379 . S
C3804 N3812 1.356 . S
C3805 C3804 1.363 . S
C3805 C3811 1.363 . S
C3806 C3807 1.363 . S
C3806 C3811 1.379 . S
C3806 N3813 1.356 . S
C3807 C3806 1.363 . S
C3807 C3810 1.363 . S
N3808 C3810 1.356 . S
N3808 H3820 0.984 . S
N3808 H3821 0.985 . S
N3809 C3811 1.356 . S
N3809 H3814 0.984 . S
N3809 H3815 0.985 . S
C3810 C3804 1.379 . S
C3810 C3807 1.363 . S
C3810 N3808 1.356 . S
C3811 C3805 1.363 . S
C3811 C3806 1.379 . S
C3811 N3809 1.356 . S
N3812 C3804 1.356 . S
N3812 H3818 0.984 . S
N3812 H3819 0.984 . S
N3813 C3806 1.356 . S
N3813 H3816 0.984 . S
N3813 H3817 0.985 . S
H3814 N3809 0.984 . S
H3815 N3809 0.985 . S
H3816 N3813 0.984 . S
H3817 N3813 0.985 . S
H3818 N3812 0.984 . S
H3819 N3812 0.984 . S
H3820 N3808 0.984 . S
H3821 N3808 0.985 . S
C3822 C3823 1.363 . S
C3822 C3828 1.379 . S
C3822 N3830 1.356 . S
C3823 C3822 1.363 . S
C3823 C3829 1.363 . S
C3824 C3825 1.363 . S
C3824 C3829 1.379 . S
C3824 N3831 1.356 . S
C3825 C3824 1.363 . S
C3825 C3828 1.363 . S
N3826 C3828 1.356 . S
N3826 H3838 0.984 . S
N3826 H3839 0.985 . S
N3827 C3829 1.356 . S
N3827 H3832 0.984 . S
N3827 H3833 0.985 . S
C3828 C3822 1.379 . S
C3828 C3825 1.363 . S
C3828 N3826 1.356 . S
C3829 C3823 1.363 . S
C3829 C3824 1.379 . S
C3829 N3827 1.356 . S
N3830 C3822 1.356 . S
N3830 H3836 0.984 . S
N3830 H3837 0.984 . S
N3831 C3824 1.356 . S
N3831 H3834 0.984 . S
N3831 H3835 0.985 . S
H3832 N3827 0.984 . S
H3833 N3827 0.985 . S
H3834 N3831 0.984 . S
H3835 N3831 0.985 . S
H3836 N3830 0.984 . S
H3837 N3830 0.984 . S
H3838 N3826 0.984 . S
H3839 N3826 0.985 . S
C3840 C3841 1.363 . S
C3840 C3846 1.379 . S
C3840 N3848 1.356 . S
C3841 C3840 1.363 . S
C3841 C3847 1.363 . S
C3842 C3843 1.363 . S
C3842 C3847 1.379 . S
C3842 N3849 1.356 . S
C3843 C3842 1.363 . S
C3843 C3846 1.363 . S
N3844 C3846 1.356 . S
N3844 H3856 0.984 . S
N3844 H3857 0.985 . S
N3845 C3847 1.356 . S
N3845 H3850 0.984 . S
N3845 H3851 0.985 . S
C3846 C3840 1.379 . S
C3846 C3843 1.363 . S
C3846 N3844 1.356 . S
C3847 C3841 1.363 . S
C3847 C3842 1.379 . S
C3847 N3845 1.356 . S
N3848 C3840 1.356 . S
N3848 H3854 0.984 . S
N3848 H3855 0.984 . S
N3849 C3842 1.356 . S
N3849 H3852 0.984 . S
N3849 H3853 0.985 . S
H3850 N3845 0.984 . S
H3851 N3845 0.985 . S
H3852 N3849 0.984 . S
H3853 N3849 0.985 . S
H3854 N3848 0.984 . S
H3855 N3848 0.984 . S
H3856 N3844 0.984 . S
H3857 N3844 0.985 . S
C3858 C3859 1.363 . S
C3858 C3864 1.379 . S
C3858 N3866 1.356 . S
C3859 C3858 1.363 . S
C3859 C3865 1.363 . S
C3860 C3861 1.363 . S
C3860 C3865 1.379 . S
C3860 N3867 1.356 . S
C3861 C3860 1.363 . S
C3861 C3864 1.363 . S
N3862 C3864 1.356 . S
N3862 H3874 0.984 . S
N3862 H3875 0.985 . S
N3863 C3865 1.356 . S
N3863 H3868 0.984 . S
N3863 H3869 0.985 . S
C3864 C3858 1.379 . S
C3864 C3861 1.363 . S
C3864 N3862 1.356 . S
C3865 C3859 1.363 . S
C3865 C3860 1.379 . S
C3865 N3863 1.356 . S
N3866 C3858 1.356 . S
N3866 H3872 0.984 . S
N3866 H3873 0.984 . S
N3867 C3860 1.356 . S
N3867 H3870 0.984 . S
N3867 H3871 0.985 . S
H3868 N3863 0.984 . S
H3869 N3863 0.985 . S
H3870 N3867 0.984 . S
H3871 N3867 0.985 . S
H3872 N3866 0.984 . S
H3873 N3866 0.984 . S
H3874 N3862 0.984 . S
H3875 N3862 0.985 . S
C3876 C3877 1.363 . S
C3876 C3882 1.379 . S
C3876 N3884 1.356 . S
C3877 C3876 1.363 . S
C3877 C3883 1.363 . S
C3878 C3879 1.363 . S
C3878 C3883 1.379 . S
C3878 N3885 1.356 . S
C3879 C3878 1.363 . S
C3879 C3882 1.363 . S
N3880 C3882 1.356 . S
N3880 H3892 0.984 . S
N3880 H3893 0.985 . S
N3881 C3883 1.356 . S
N3881 H3886 0.984 . S
N3881 H3887 0.985 . S
C3882 C3876 1.379 . S
C3882 C3879 1.363 . S
C3882 N3880 1.356 . S
C3883 C3877 1.363 . S
C3883 C3878 1.379 . S
C3883 N3881 1.356 . S
N3884 C3876 1.356 . S
N3884 H3890 0.984 . S
N3884 H3891 0.984 . S
N3885 C3878 1.356 . S
N3885 H3888 0.984 . S
N3885 H3889 0.985 . S
H3886 N3881 0.984 . S
H3887 N3881 0.985 . S
H3888 N3885 0.984 . S
H3889 N3885 0.985 . S
H3890 N3884 0.984 . S
H3891 N3884 0.984 . S
H3892 N3880 0.984 . S
H3893 N3880 0.985 . S
C3894 C3895 1.363 . S
C3894 C3900 1.379 . S
C3894 N3902 1.356 . S
C3895 C3894 1.363 . S
C3895 C3901 1.363 . S
C3896 C3897 1.363 . S
C3896 C3901 1.379 . S
C3896 N3903 1.356 . S
C3897 C3896 1.363 . S
C3897 C3900 1.363 . S
N3898 C3900 1.356 . S
N3898 H3910 0.984 . S
N3898 H3911 0.985 . S
N3899 C3901 1.356 . S
N3899 H3904 0.984 . S
N3899 H3905 0.985 . S
C3900 C3894 1.379 . S
C3900 C3897 1.363 . S
C3900 N3898 1.356 . S
C3901 C3895 1.363 . S
C3901 C3896 1.379 . S
C3901 N3899 1.356 . S
N3902 C3894 1.356 . S
N3902 H3908 0.984 . S
N3902 H3909 0.984 . S
N3903 C3896 1.356 . S
N3903 H3906 0.984 . S
N3903 H3907 0.985 . S
H3904 N3899 0.984 . S
H3905 N3899 0.985 . S
H3906 N3903 0.984 . S
H3907 N3903 0.985 . S
H3908 N3902 0.984 . S
H3909 N3902 0.984 . S
H3910 N3898 0.984 . S
H3911 N3898 0.985 . S
C3912 C3913 1.363 . S
C3912 C3918 1.379 . S
C3912 N3920 1.356 . S
C3913 C3912 1.363 . S
C3913 C3919 1.363 . S
C3914 C3915 1.363 . S
C3914 C3919 1.379 . S
C3914 N3921 1.356 . S
C3915 C3914 1.363 . S
C3915 C3918 1.363 . S
N3916 C3918 1.356 . S
N3916 H3928 0.984 . S
N3916 H3929 0.985 . S
N3917 C3919 1.356 . S
N3917 H3922 0.984 . S
N3917 H3923 0.985 . S
C3918 C3912 1.379 . S
C3918 C3915 1.363 . S
C3918 N3916 1.356 . S
C3919 C3913 1.363 . S
C3919 C3914 1.379 . S
C3919 N3917 1.356 . S
N3920 C3912 1.356 . S
N3920 H3926 0.984 . S
N3920 H3927 0.984 . S
N3921 C3914 1.356 . S
N3921 H3924 0.984 . S
N3921 H3925 0.985 . S
H3922 N3917 0.984 . S
H3923 N3917 0.985 . S
H3924 N3921 0.984 . S
H3925 N3921 0.985 . S
H3926 N3920 0.984 . S
H3927 N3920 0.984 . S
H3928 N3916 0.984 . S
H3929 N3916 0.985 . S
C3930 C3931 1.363 . S
C3930 C3936 1.379 . S
C3930 N3938 1.356 . S
C3931 C3930 1.363 . S
C3931 C3937 1.363 . S
C3932 C3933 1.363 . S
C3932 C3937 1.379 . S
C3932 N3939 1.356 . S
C3933 C3932 1.363 . S
C3933 C3936 1.363 . S
N3934 C3936 1.356 . S
N3934 H3946 0.984 . S
N3934 H3947 0.985 . S
N3935 C3937 1.356 . S
N3935 H3940 0.984 . S
N3935 H3941 0.985 . S
C3936 C3930 1.379 . S
C3936 C3933 1.363 . S
C3936 N3934 1.356 . S
C3937 C3931 1.363 . S
C3937 C3932 1.379 . S
C3937 N3935 1.356 . S
N3938 C3930 1.356 . S
N3938 H3944 0.984 . S
N3938 H3945 0.984 . S
N3939 C3932 1.356 . S
N3939 H3942 0.984 . S
N3939 H3943 0.985 . S
H3940 N3935 0.984 . S
H3941 N3935 0.985 . S
H3942 N3939 0.984 . S
H3943 N3939 0.985 . S
H3944 N3938 0.984 . S
H3945 N3938 0.984 . S
H3946 N3934 0.984 . S
H3947 N3934 0.985 . S
C3948 C3949 1.363 . S
C3948 C3954 1.379 . S
C3948 N3956 1.356 . S
C3949 C3948 1.363 . S
C3949 C3955 1.363 . S
C3950 C3951 1.363 . S
C3950 C3955 1.379 . S
C3950 N3957 1.356 . S
C3951 C3950 1.363 . S
C3951 C3954 1.363 . S
N3952 C3954 1.356 . S
N3952 H3964 0.984 . S
N3952 H3965 0.985 . S
N3953 C3955 1.356 . S
N3953 H3958 0.984 . S
N3953 H3959 0.985 . S
C3954 C3948 1.379 . S
C3954 C3951 1.363 . S
C3954 N3952 1.356 . S
C3955 C3949 1.363 . S
C3955 C3950 1.379 . S
C3955 N3953 1.356 . S
N3956 C3948 1.356 . S
N3956 H3962 0.984 . S
N3956 H3963 0.984 . S
N3957 C3950 1.356 . S
N3957 H3960 0.984 . S
N3957 H3961 0.985 . S
H3958 N3953 0.984 . S
H3959 N3953 0.985 . S
H3960 N3957 0.984 . S
H3961 N3957 0.985 . S
H3962 N3956 0.984 . S
H3963 N3956 0.984 . S
H3964 N3952 0.984 . S
H3965 N3952 0.985 . S
C3966 C3967 1.363 . S
C3966 C3972 1.379 . S
C3966 N3974 1.356 . S
C3967 C3966 1.363 . S
C3967 C3973 1.363 . S
C3968 C3969 1.363 . S
C3968 C3973 1.379 . S
C3968 N3975 1.356 . S
C3969 C3968 1.363 . S
C3969 C3972 1.363 . S
N3970 C3972 1.356 . S
N3970 H3982 0.984 . S
N3970 H3983 0.985 . S
N3971 C3973 1.356 . S
N3971 H3976 0.984 . S
N3971 H3977 0.985 . S
C3972 C3966 1.379 . S
C3972 C3969 1.363 . S
C3972 N3970 1.356 . S
C3973 C3967 1.363 . S
C3973 C3968 1.379 . S
C3973 N3971 1.356 . S
N3974 C3966 1.356 . S
N3974 H3980 0.984 . S
N3974 H3981 0.984 . S
N3975 C3968 1.356 . S
N3975 H3978 0.984 . S
N3975 H3979 0.985 . S
H3976 N3971 0.984 . S
H3977 N3971 0.985 . S
H3978 N3975 0.984 . S
H3979 N3975 0.985 . S
H3980 N3974 0.984 . S
H3981 N3974 0.984 . S
H3982 N3970 0.984 . S
H3983 N3970 0.985 . S
C3984 C3985 1.363 . S
C3984 C3990 1.379 . S
C3984 N3992 1.356 . S
C3985 C3984 1.363 . S
C3985 C3991 1.363 . S
C3986 C3987 1.363 . S
C3986 C3991 1.379 . S
C3986 N3993 1.356 . S
C3987 C3986 1.363 . S
C3987 C3990 1.363 . S
N3988 C3990 1.356 . S
N3988 H4000 0.984 . S
N3988 H4001 0.985 . S
N3989 C3991 1.356 . S
N3989 H3994 0.984 . S
N3989 H3995 0.985 . S
C3990 C3984 1.379 . S
C3990 C3987 1.363 . S
C3990 N3988 1.356 . S
C3991 C3985 1.363 . S
C3991 C3986 1.379 . S
C3991 N3989 1.356 . S
N3992 C3984 1.356 . S
N3992 H3998 0.984 . S
N3992 H3999 0.984 . S
N3993 C3986 1.356 . S
N3993 H3996 0.984 . S
N3993 H3997 0.985 . S
H3994 N3989 0.984 . S
H3995 N3989 0.985 . S
H3996 N3993 0.984 . S
H3997 N3993 0.985 . S
H3998 N3992 0.984 . S
H3999 N3992 0.984 . S
H4000 N3988 0.984 . S
H4001 N3988 0.985 . S
C4002 C4003 1.363 . S
C4002 C4008 1.379 . S
C4002 N4010 1.356 . S
C4003 C4002 1.363 . S
C4003 C4009 1.363 . S
C4004 C4005 1.363 . S
C4004 C4009 1.379 . S
C4004 N4011 1.356 . S
C4005 C4004 1.363 . S
C4005 C4008 1.363 . S
N4006 C4008 1.356 . S
N4006 H4018 0.984 . S
N4006 H4019 0.985 . S
N4007 C4009 1.356 . S
N4007 H4012 0.984 . S
N4007 H4013 0.985 . S
C4008 C4002 1.379 . S
C4008 C4005 1.363 . S
C4008 N4006 1.356 . S
C4009 C4003 1.363 . S
C4009 C4004 1.379 . S
C4009 N4007 1.356 . S
N4010 C4002 1.356 . S
N4010 H4016 0.984 . S
N4010 H4017 0.984 . S
N4011 C4004 1.356 . S
N4011 H4014 0.984 . S
N4011 H4015 0.985 . S
H4012 N4007 0.984 . S
H4013 N4007 0.985 . S
H4014 N4011 0.984 . S
H4015 N4011 0.985 . S
H4016 N4010 0.984 . S
H4017 N4010 0.984 . S
H4018 N4006 0.984 . S
H4019 N4006 0.985 . S
C4020 C4021 1.363 . S
C4020 C4026 1.379 . S
C4020 N4028 1.356 . S
C4021 C4020 1.363 . S
C4021 C4027 1.363 . S
C4022 C4023 1.363 . S
C4022 C4027 1.379 . S
C4022 N4029 1.356 . S
C4023 C4022 1.363 . S
C4023 C4026 1.363 . S
N4024 C4026 1.356 . S
N4024 H4036 0.984 . S
N4024 H4037 0.985 . S
N4025 C4027 1.356 . S
N4025 H4030 0.984 . S
N4025 H4031 0.985 . S
C4026 C4020 1.379 . S
C4026 C4023 1.363 . S
C4026 N4024 1.356 . S
C4027 C4021 1.363 . S
C4027 C4022 1.379 . S
C4027 N4025 1.356 . S
N4028 C4020 1.356 . S
N4028 H4034 0.984 . S
N4028 H4035 0.984 . S
N4029 C4022 1.356 . S
N4029 H4032 0.984 . S
N4029 H4033 0.985 . S
H4030 N4025 0.984 . S
H4031 N4025 0.985 . S
H4032 N4029 0.984 . S
H4033 N4029 0.985 . S
H4034 N4028 0.984 . S
H4035 N4028 0.984 . S
H4036 N4024 0.984 . S
H4037 N4024 0.985 . S
C4038 C4039 1.363 . S
C4038 C4044 1.379 . S
C4038 N4046 1.356 . S
C4039 C4038 1.363 . S
C4039 C4045 1.363 . S
C4040 C4041 1.363 . S
C4040 C4045 1.379 . S
C4040 N4047 1.356 . S
C4041 C4040 1.363 . S
C4041 C4044 1.363 . S
N4042 C4044 1.356 . S
N4042 H4054 0.984 . S
N4042 H4055 0.985 . S
N4043 C4045 1.356 . S
N4043 H4048 0.984 . S
N4043 H4049 0.985 . S
C4044 C4038 1.379 . S
C4044 C4041 1.363 . S
C4044 N4042 1.356 . S
C4045 C4039 1.363 . S
C4045 C4040 1.379 . S
C4045 N4043 1.356 . S
N4046 C4038 1.356 . S
N4046 H4052 0.984 . S
N4046 H4053 0.984 . S
N4047 C4040 1.356 . S
N4047 H4050 0.984 . S
N4047 H4051 0.985 . S
H4048 N4043 0.984 . S
H4049 N4043 0.985 . S
H4050 N4047 0.984 . S
H4051 N4047 0.985 . S
H4052 N4046 0.984 . S
H4053 N4046 0.984 . S
H4054 N4042 0.984 . S
H4055 N4042 0.985 . S
C4056 C4057 1.363 . S
C4056 C4062 1.379 . S
C4056 N4064 1.356 . S
C4057 C4056 1.363 . S
C4057 C4063 1.363 . S
C4058 C4059 1.363 . S
C4058 C4063 1.379 . S
C4058 N4065 1.356 . S
C4059 C4058 1.363 . S
C4059 C4062 1.363 . S
N4060 C4062 1.356 . S
N4060 H4072 0.984 . S
N4060 H4073 0.985 . S
N4061 C4063 1.356 . S
N4061 H4066 0.984 . S
N4061 H4067 0.985 . S
C4062 C4056 1.379 . S
C4062 C4059 1.363 . S
C4062 N4060 1.356 . S
C4063 C4057 1.363 . S
C4063 C4058 1.379 . S
C4063 N4061 1.356 . S
N4064 C4056 1.356 . S
N4064 H4070 0.984 . S
N4064 H4071 0.984 . S
N4065 C4058 1.356 . S
N4065 H4068 0.984 . S
N4065 H4069 0.985 . S
H4066 N4061 0.984 . S
H4067 N4061 0.985 . S
H4068 N4065 0.984 . S
H4069 N4065 0.985 . S
H4070 N4064 0.984 . S
H4071 N4064 0.984 . S
H4072 N4060 0.984 . S
H4073 N4060 0.985 . S
C4074 C4075 1.363 . S
C4074 C4080 1.379 . S
C4074 N4082 1.356 . S
C4075 C4074 1.363 . S
C4075 C4081 1.363 . S
C4076 C4077 1.363 . S
C4076 C4081 1.379 . S
C4076 N4083 1.356 . S
C4077 C4076 1.363 . S
C4077 C4080 1.363 . S
N4078 C4080 1.356 . S
N4078 H4090 0.984 . S
N4078 H4091 0.985 . S
N4079 C4081 1.356 . S
N4079 H4084 0.984 . S
N4079 H4085 0.985 . S
C4080 C4074 1.379 . S
C4080 C4077 1.363 . S
C4080 N4078 1.356 . S
C4081 C4075 1.363 . S
C4081 C4076 1.379 . S
C4081 N4079 1.356 . S
N4082 C4074 1.356 . S
N4082 H4088 0.984 . S
N4082 H4089 0.984 . S
N4083 C4076 1.356 . S
N4083 H4086 0.984 . S
N4083 H4087 0.985 . S
H4084 N4079 0.984 . S
H4085 N4079 0.985 . S
H4086 N4083 0.984 . S
H4087 N4083 0.985 . S
H4088 N4082 0.984 . S
H4089 N4082 0.984 . S
H4090 N4078 0.984 . S
H4091 N4078 0.985 . S
C4092 C4093 1.363 . S
C4092 C4098 1.379 . S
C4092 N4100 1.356 . S
C4093 C4092 1.363 . S
C4093 C4099 1.363 . S
C4094 C4095 1.363 . S
C4094 C4099 1.379 . S
C4094 N4101 1.356 . S
C4095 C4094 1.363 . S
C4095 C4098 1.363 . S
N4096 C4098 1.356 . S
N4096 H4108 0.984 . S
N4096 H4109 0.985 . S
N4097 C4099 1.356 . S
N4097 H4102 0.984 . S
N4097 H4103 0.985 . S
C4098 C4092 1.379 . S
C4098 C4095 1.363 . S
C4098 N4096 1.356 . S
C4099 C4093 1.363 . S
C4099 C4094 1.379 . S
C4099 N4097 1.356 . S
N4100 C4092 1.356 . S
N4100 H4106 0.984 . S
N4100 H4107 0.984 . S
N4101 C4094 1.356 . S
N4101 H4104 0.984 . S
N4101 H4105 0.985 . S
H4102 N4097 0.984 . S
H4103 N4097 0.985 . S
H4104 N4101 0.984 . S
H4105 N4101 0.985 . S
H4106 N4100 0.984 . S
H4107 N4100 0.984 . S
H4108 N4096 0.984 . S
H4109 N4096 0.985 . S
C4110 C4111 1.363 . S
C4110 C4116 1.379 . S
C4110 N4118 1.356 . S
C4111 C4110 1.363 . S
C4111 C4117 1.363 . S
C4112 C4113 1.363 . S
C4112 C4117 1.379 . S
C4112 N4119 1.356 . S
C4113 C4112 1.363 . S
C4113 C4116 1.363 . S
N4114 C4116 1.356 . S
N4114 H4126 0.984 . S
N4114 H4127 0.985 . S
N4115 C4117 1.356 . S
N4115 H4120 0.984 . S
N4115 H4121 0.985 . S
C4116 C4110 1.379 . S
C4116 C4113 1.363 . S
C4116 N4114 1.356 . S
C4117 C4111 1.363 . S
C4117 C4112 1.379 . S
C4117 N4115 1.356 . S
N4118 C4110 1.356 . S
N4118 H4124 0.984 . S
N4118 H4125 0.984 . S
N4119 C4112 1.356 . S
N4119 H4122 0.984 . S
N4119 H4123 0.985 . S
H4120 N4115 0.984 . S
H4121 N4115 0.985 . S
H4122 N4119 0.984 . S
H4123 N4119 0.985 . S
H4124 N4118 0.984 . S
H4125 N4118 0.984 . S
H4126 N4114 0.984 . S
H4127 N4114 0.985 . S
C4128 C4129 1.363 . S
C4128 C4134 1.379 . S
C4128 N4136 1.356 . S
C4129 C4128 1.363 . S
C4129 C4135 1.363 . S
C4130 C4131 1.363 . S
C4130 C4135 1.379 . S
C4130 N4137 1.356 . S
C4131 C4130 1.363 . S
C4131 C4134 1.363 . S
N4132 C4134 1.356 . S
N4132 H4144 0.984 . S
N4132 H4145 0.985 . S
N4133 C4135 1.356 . S
N4133 H4138 0.984 . S
N4133 H4139 0.985 . S
C4134 C4128 1.379 . S
C4134 C4131 1.363 . S
C4134 N4132 1.356 . S
C4135 C4129 1.363 . S
C4135 C4130 1.379 . S
C4135 N4133 1.356 . S
N4136 C4128 1.356 . S
N4136 H4142 0.984 . S
N4136 H4143 0.984 . S
N4137 C4130 1.356 . S
N4137 H4140 0.984 . S
N4137 H4141 0.985 . S
H4138 N4133 0.984 . S
H4139 N4133 0.985 . S
H4140 N4137 0.984 . S
H4141 N4137 0.985 . S
H4142 N4136 0.984 . S
H4143 N4136 0.984 . S
H4144 N4132 0.984 . S
H4145 N4132 0.985 . S
C4146 C4147 1.363 . S
C4146 C4152 1.379 . S
C4146 N4154 1.356 . S
C4147 C4146 1.363 . S
C4147 C4153 1.363 . S
C4148 C4149 1.363 . S
C4148 C4153 1.379 . S
C4148 N4155 1.356 . S
C4149 C4148 1.363 . S
C4149 C4152 1.363 . S
N4150 C4152 1.356 . S
N4150 H4162 0.984 . S
N4150 H4163 0.985 . S
N4151 C4153 1.356 . S
N4151 H4156 0.984 . S
N4151 H4157 0.985 . S
C4152 C4146 1.379 . S
C4152 C4149 1.363 . S
C4152 N4150 1.356 . S
C4153 C4147 1.363 . S
C4153 C4148 1.379 . S
C4153 N4151 1.356 . S
N4154 C4146 1.356 . S
N4154 H4160 0.984 . S
N4154 H4161 0.984 . S
N4155 C4148 1.356 . S
N4155 H4158 0.984 . S
N4155 H4159 0.985 . S
H4156 N4151 0.984 . S
H4157 N4151 0.985 . S
H4158 N4155 0.984 . S
H4159 N4155 0.985 . S
H4160 N4154 0.984 . S
H4161 N4154 0.984 . S
H4162 N4150 0.984 . S
H4163 N4150 0.985 . S
C4164 C4165 1.363 . S
C4164 C4170 1.379 . S
C4164 N4172 1.356 . S
C4165 C4164 1.363 . S
C4165 C4171 1.363 . S
C4166 C4167 1.363 . S
C4166 C4171 1.379 . S
C4166 N4173 1.356 . S
C4167 C4166 1.363 . S
C4167 C4170 1.363 . S
N4168 C4170 1.356 . S
N4168 H4180 0.984 . S
N4168 H4181 0.985 . S
N4169 C4171 1.356 . S
N4169 H4174 0.984 . S
N4169 H4175 0.985 . S
C4170 C4164 1.379 . S
C4170 C4167 1.363 . S
C4170 N4168 1.356 . S
C4171 C4165 1.363 . S
C4171 C4166 1.379 . S
C4171 N4169 1.356 . S
N4172 C4164 1.356 . S
N4172 H4178 0.984 . S
N4172 H4179 0.984 . S
N4173 C4166 1.356 . S
N4173 H4176 0.984 . S
N4173 H4177 0.985 . S
H4174 N4169 0.984 . S
H4175 N4169 0.985 . S
H4176 N4173 0.984 . S
H4177 N4173 0.985 . S
H4178 N4172 0.984 . S
H4179 N4172 0.984 . S
H4180 N4168 0.984 . S
H4181 N4168 0.985 . S
C4182 C4183 1.363 . S
C4182 C4188 1.379 . S
C4182 N4190 1.356 . S
C4183 C4182 1.363 . S
C4183 C4189 1.363 . S
C4184 C4185 1.363 . S
C4184 C4189 1.379 . S
C4184 N4191 1.356 . S
C4185 C4184 1.363 . S
C4185 C4188 1.363 . S
N4186 C4188 1.356 . S
N4186 H4198 0.984 . S
N4186 H4199 0.985 . S
N4187 C4189 1.356 . S
N4187 H4192 0.984 . S
N4187 H4193 0.985 . S
C4188 C4182 1.379 . S
C4188 C4185 1.363 . S
C4188 N4186 1.356 . S
C4189 C4183 1.363 . S
C4189 C4184 1.379 . S
C4189 N4187 1.356 . S
N4190 C4182 1.356 . S
N4190 H4196 0.984 . S
N4190 H4197 0.984 . S
N4191 C4184 1.356 . S
N4191 H4194 0.984 . S
N4191 H4195 0.985 . S
H4192 N4187 0.984 . S
H4193 N4187 0.985 . S
H4194 N4191 0.984 . S
H4195 N4191 0.985 . S
H4196 N4190 0.984 . S
H4197 N4190 0.984 . S
H4198 N4186 0.984 . S
H4199 N4186 0.985 . S
C4200 C4201 1.363 . S
C4200 C4206 1.379 . S
C4200 N4208 1.356 . S
C4201 C4200 1.363 . S
C4201 C4207 1.363 . S
C4202 C4203 1.363 . S
C4202 C4207 1.379 . S
C4202 N4209 1.356 . S
C4203 C4202 1.363 . S
C4203 C4206 1.363 . S
N4204 C4206 1.356 . S
N4204 H4216 0.984 . S
N4204 H4217 0.985 . S
N4205 C4207 1.356 . S
N4205 H4210 0.984 . S
N4205 H4211 0.985 . S
C4206 C4200 1.379 . S
C4206 C4203 1.363 . S
C4206 N4204 1.356 . S
C4207 C4201 1.363 . S
C4207 C4202 1.379 . S
C4207 N4205 1.356 . S
N4208 C4200 1.356 . S
N4208 H4214 0.984 . S
N4208 H4215 0.984 . S
N4209 C4202 1.356 . S
N4209 H4212 0.984 . S
N4209 H4213 0.985 . S
H4210 N4205 0.984 . S
H4211 N4205 0.985 . S
H4212 N4209 0.984 . S
H4213 N4209 0.985 . S
H4214 N4208 0.984 . S
H4215 N4208 0.984 . S
H4216 N4204 0.984 . S
H4217 N4204 0.985 . S
C4218 C4219 1.363 . S
C4218 C4224 1.379 . S
C4218 N4226 1.356 . S
C4219 C4218 1.363 . S
C4219 C4225 1.363 . S
C4220 C4221 1.363 . S
C4220 C4225 1.379 . S
C4220 N4227 1.356 . S
C4221 C4220 1.363 . S
C4221 C4224 1.363 . S
N4222 C4224 1.356 . S
N4222 H4234 0.984 . S
N4222 H4235 0.985 . S
N4223 C4225 1.356 . S
N4223 H4228 0.984 . S
N4223 H4229 0.985 . S
C4224 C4218 1.379 . S
C4224 C4221 1.363 . S
C4224 N4222 1.356 . S
C4225 C4219 1.363 . S
C4225 C4220 1.379 . S
C4225 N4223 1.356 . S
N4226 C4218 1.356 . S
N4226 H4232 0.984 . S
N4226 H4233 0.984 . S
N4227 C4220 1.356 . S
N4227 H4230 0.984 . S
N4227 H4231 0.985 . S
H4228 N4223 0.984 . S
H4229 N4223 0.985 . S
H4230 N4227 0.984 . S
H4231 N4227 0.985 . S
H4232 N4226 0.984 . S
H4233 N4226 0.984 . S
H4234 N4222 0.984 . S
H4235 N4222 0.985 . S
C4236 C4237 1.363 . S
C4236 C4242 1.379 . S
C4236 N4244 1.356 . S
C4237 C4236 1.363 . S
C4237 C4243 1.363 . S
C4238 C4239 1.363 . S
C4238 C4243 1.379 . S
C4238 N4245 1.356 . S
C4239 C4238 1.363 . S
C4239 C4242 1.363 . S
N4240 C4242 1.356 . S
N4240 H4252 0.984 . S
N4240 H4253 0.985 . S
N4241 C4243 1.356 . S
N4241 H4246 0.984 . S
N4241 H4247 0.985 . S
C4242 C4236 1.379 . S
C4242 C4239 1.363 . S
C4242 N4240 1.356 . S
C4243 C4237 1.363 . S
C4243 C4238 1.379 . S
C4243 N4241 1.356 . S
N4244 C4236 1.356 . S
N4244 H4250 0.984 . S
N4244 H4251 0.984 . S
N4245 C4238 1.356 . S
N4245 H4248 0.984 . S
N4245 H4249 0.985 . S
H4246 N4241 0.984 . S
H4247 N4241 0.985 . S
H4248 N4245 0.984 . S
H4249 N4245 0.985 . S
H4250 N4244 0.984 . S
H4251 N4244 0.984 . S
H4252 N4240 0.984 . S
H4253 N4240 0.985 . S
C4254 C4255 1.363 . S
C4254 C4260 1.379 . S
C4254 N4262 1.356 . S
C4255 C4254 1.363 . S
C4255 C4261 1.363 . S
C4256 C4257 1.363 . S
C4256 C4261 1.379 . S
C4256 N4263 1.356 . S
C4257 C4256 1.363 . S
C4257 C4260 1.363 . S
N4258 C4260 1.356 . S
N4258 H4270 0.984 . S
N4258 H4271 0.985 . S
N4259 C4261 1.356 . S
N4259 H4264 0.984 . S
N4259 H4265 0.985 . S
C4260 C4254 1.379 . S
C4260 C4257 1.363 . S
C4260 N4258 1.356 . S
C4261 C4255 1.363 . S
C4261 C4256 1.379 . S
C4261 N4259 1.356 . S
N4262 C4254 1.356 . S
N4262 H4268 0.984 . S
N4262 H4269 0.984 . S
N4263 C4256 1.356 . S
N4263 H4266 0.984 . S
N4263 H4267 0.985 . S
H4264 N4259 0.984 . S
H4265 N4259 0.985 . S
H4266 N4263 0.984 . S
H4267 N4263 0.985 . S
H4268 N4262 0.984 . S
H4269 N4262 0.984 . S
H4270 N4258 0.984 . S
H4271 N4258 0.985 . S
C4272 C4273 1.363 . S
C4272 C4278 1.379 . S
C4272 N4280 1.356 . S
C4273 C4272 1.363 . S
C4273 C4279 1.363 . S
C4274 C4275 1.363 . S
C4274 C4279 1.379 . S
C4274 N4281 1.356 . S
C4275 C4274 1.363 . S
C4275 C4278 1.363 . S
N4276 C4278 1.356 . S
N4276 H4288 0.984 . S
N4276 H4289 0.985 . S
N4277 C4279 1.356 . S
N4277 H4282 0.984 . S
N4277 H4283 0.985 . S
C4278 C4272 1.379 . S
C4278 C4275 1.363 . S
C4278 N4276 1.356 . S
C4279 C4273 1.363 . S
C4279 C4274 1.379 . S
C4279 N4277 1.356 . S
N4280 C4272 1.356 . S
N4280 H4286 0.984 . S
N4280 H4287 0.984 . S
N4281 C4274 1.356 . S
N4281 H4284 0.984 . S
N4281 H4285 0.985 . S
H4282 N4277 0.984 . S
H4283 N4277 0.985 . S
H4284 N4281 0.984 . S
H4285 N4281 0.985 . S
H4286 N4280 0.984 . S
H4287 N4280 0.984 . S
H4288 N4276 0.984 . S
H4289 N4276 0.985 . S
C4290 C4291 1.363 . S
C4290 C4296 1.379 . S
C4290 N4298 1.356 . S
C4291 C4290 1.363 . S
C4291 C4297 1.363 . S
C4292 C4293 1.363 . S
C4292 C4297 1.379 . S
C4292 N4299 1.356 . S
C4293 C4292 1.363 . S
C4293 C4296 1.363 . S
N4294 C4296 1.356 . S
N4294 H4306 0.984 . S
N4294 H4307 0.985 . S
N4295 C4297 1.356 . S
N4295 H4300 0.984 . S
N4295 H4301 0.985 . S
C4296 C4290 1.379 . S
C4296 C4293 1.363 . S
C4296 N4294 1.356 . S
C4297 C4291 1.363 . S
C4297 C4292 1.379 . S
C4297 N4295 1.356 . S
N4298 C4290 1.356 . S
N4298 H4304 0.984 . S
N4298 H4305 0.984 . S
N4299 C4292 1.356 . S
N4299 H4302 0.984 . S
N4299 H4303 0.985 . S
H4300 N4295 0.984 . S
H4301 N4295 0.985 . S
H4302 N4299 0.984 . S
H4303 N4299 0.985 . S
H4304 N4298 0.984 . S
H4305 N4298 0.984 . S
H4306 N4294 0.984 . S
H4307 N4294 0.985 . S
C4308 C4309 1.363 . S
C4308 C4314 1.379 . S
C4308 N4316 1.356 . S
C4309 C4308 1.363 . S
C4309 C4315 1.363 . S
C4310 C4311 1.363 . S
C4310 C4315 1.379 . S
C4310 N4317 1.356 . S
C4311 C4310 1.363 . S
C4311 C4314 1.363 . S
N4312 C4314 1.356 . S
N4312 H4324 0.984 . S
N4312 H4325 0.985 . S
N4313 C4315 1.356 . S
N4313 H4318 0.984 . S
N4313 H4319 0.985 . S
C4314 C4308 1.379 . S
C4314 C4311 1.363 . S
C4314 N4312 1.356 . S
C4315 C4309 1.363 . S
C4315 C4310 1.379 . S
C4315 N4313 1.356 . S
N4316 C4308 1.356 . S
N4316 H4322 0.984 . S
N4316 H4323 0.984 . S
N4317 C4310 1.356 . S
N4317 H4320 0.984 . S
N4317 H4321 0.985 . S
H4318 N4313 0.984 . S
H4319 N4313 0.985 . S
H4320 N4317 0.984 . S
H4321 N4317 0.985 . S
H4322 N4316 0.984 . S
H4323 N4316 0.984 . S
H4324 N4312 0.984 . S
H4325 N4312 0.985 . S
C4326 C4327 1.363 . S
C4326 C4332 1.379 . S
C4326 N4334 1.356 . S
C4327 C4326 1.363 . S
C4327 C4333 1.363 . S
C4328 C4329 1.363 . S
C4328 C4333 1.379 . S
C4328 N4335 1.356 . S
C4329 C4328 1.363 . S
C4329 C4332 1.363 . S
N4330 C4332 1.356 . S
N4330 H4342 0.984 . S
N4330 H4343 0.985 . S
N4331 C4333 1.356 . S
N4331 H4336 0.984 . S
N4331 H4337 0.985 . S
C4332 C4326 1.379 . S
C4332 C4329 1.363 . S
C4332 N4330 1.356 . S
C4333 C4327 1.363 . S
C4333 C4328 1.379 . S
C4333 N4331 1.356 . S
N4334 C4326 1.356 . S
N4334 H4340 0.984 . S
N4334 H4341 0.984 . S
N4335 C4328 1.356 . S
N4335 H4338 0.984 . S
N4335 H4339 0.985 . S
H4336 N4331 0.984 . S
H4337 N4331 0.985 . S
H4338 N4335 0.984 . S
H4339 N4335 0.985 . S
H4340 N4334 0.984 . S
H4341 N4334 0.984 . S
H4342 N4330 0.984 . S
H4343 N4330 0.985 . S
C4344 C4345 1.363 . S
C4344 C4350 1.379 . S
C4344 N4352 1.356 . S
C4345 C4344 1.363 . S
C4345 C4351 1.363 . S
C4346 C4347 1.363 . S
C4346 C4351 1.379 . S
C4346 N4353 1.356 . S
C4347 C4346 1.363 . S
C4347 C4350 1.363 . S
N4348 C4350 1.356 . S
N4348 H4360 0.984 . S
N4348 H4361 0.985 . S
N4349 C4351 1.356 . S
N4349 H4354 0.984 . S
N4349 H4355 0.985 . S
C4350 C4344 1.379 . S
C4350 C4347 1.363 . S
C4350 N4348 1.356 . S
C4351 C4345 1.363 . S
C4351 C4346 1.379 . S
C4351 N4349 1.356 . S
N4352 C4344 1.356 . S
N4352 H4358 0.984 . S
N4352 H4359 0.984 . S
N4353 C4346 1.356 . S
N4353 H4356 0.984 . S
N4353 H4357 0.985 . S
H4354 N4349 0.984 . S
H4355 N4349 0.985 . S
H4356 N4353 0.984 . S
H4357 N4353 0.985 . S
H4358 N4352 0.984 . S
H4359 N4352 0.984 . S
H4360 N4348 0.984 . S
H4361 N4348 0.985 . S
C4362 C4363 1.363 . S
C4362 C4368 1.379 . S
C4362 N4370 1.356 . S
C4363 C4362 1.363 . S
C4363 C4369 1.363 . S
C4364 C4365 1.363 . S
C4364 C4369 1.379 . S
C4364 N4371 1.356 . S
C4365 C4364 1.363 . S
C4365 C4368 1.363 . S
N4366 C4368 1.356 . S
N4366 H4378 0.984 . S
N4366 H4379 0.985 . S
N4367 C4369 1.356 . S
N4367 H4372 0.984 . S
N4367 H4373 0.985 . S
C4368 C4362 1.379 . S
C4368 C4365 1.363 . S
C4368 N4366 1.356 . S
C4369 C4363 1.363 . S
C4369 C4364 1.379 . S
C4369 N4367 1.356 . S
N4370 C4362 1.356 . S
N4370 H4376 0.984 . S
N4370 H4377 0.984 . S
N4371 C4364 1.356 . S
N4371 H4374 0.984 . S
N4371 H4375 0.985 . S
H4372 N4367 0.984 . S
H4373 N4367 0.985 . S
H4374 N4371 0.984 . S
H4375 N4371 0.985 . S
H4376 N4370 0.984 . S
H4377 N4370 0.984 . S
H4378 N4366 0.984 . S
H4379 N4366 0.985 . S
C4380 C4381 1.363 . S
C4380 C4386 1.379 . S
C4380 N4388 1.356 . S
C4381 C4380 1.363 . S
C4381 C4387 1.363 . S
C4382 C4383 1.363 . S
C4382 C4387 1.379 . S
C4382 N4389 1.356 . S
C4383 C4382 1.363 . S
C4383 C4386 1.363 . S
N4384 C4386 1.356 . S
N4384 H4396 0.984 . S
N4384 H4397 0.985 . S
N4385 C4387 1.356 . S
N4385 H4390 0.984 . S
N4385 H4391 0.985 . S
C4386 C4380 1.379 . S
C4386 C4383 1.363 . S
C4386 N4384 1.356 . S
C4387 C4381 1.363 . S
C4387 C4382 1.379 . S
C4387 N4385 1.356 . S
N4388 C4380 1.356 . S
N4388 H4394 0.984 . S
N4388 H4395 0.984 . S
N4389 C4382 1.356 . S
N4389 H4392 0.984 . S
N4389 H4393 0.985 . S
H4390 N4385 0.984 . S
H4391 N4385 0.985 . S
H4392 N4389 0.984 . S
H4393 N4389 0.985 . S
H4394 N4388 0.984 . S
H4395 N4388 0.984 . S
H4396 N4384 0.984 . S
H4397 N4384 0.985 . S
C4398 C4399 1.363 . S
C4398 C4404 1.379 . S
C4398 N4406 1.356 . S
C4399 C4398 1.363 . S
C4399 C4405 1.363 . S
C4400 C4401 1.363 . S
C4400 C4405 1.379 . S
C4400 N4407 1.356 . S
C4401 C4400 1.363 . S
C4401 C4404 1.363 . S
N4402 C4404 1.356 . S
N4402 H4414 0.984 . S
N4402 H4415 0.985 . S
N4403 C4405 1.356 . S
N4403 H4408 0.984 . S
N4403 H4409 0.985 . S
C4404 C4398 1.379 . S
C4404 C4401 1.363 . S
C4404 N4402 1.356 . S
C4405 C4399 1.363 . S
C4405 C4400 1.379 . S
C4405 N4403 1.356 . S
N4406 C4398 1.356 . S
N4406 H4412 0.984 . S
N4406 H4413 0.984 . S
N4407 C4400 1.356 . S
N4407 H4410 0.984 . S
N4407 H4411 0.985 . S
H4408 N4403 0.984 . S
H4409 N4403 0.985 . S
H4410 N4407 0.984 . S
H4411 N4407 0.985 . S
H4412 N4406 0.984 . S
H4413 N4406 0.984 . S
H4414 N4402 0.984 . S
H4415 N4402 0.985 . S
C4416 C4417 1.363 . S
C4416 C4422 1.379 . S
C4416 N4424 1.356 . S
C4417 C4416 1.363 . S
C4417 C4423 1.363 . S
C4418 C4419 1.363 . S
C4418 C4423 1.379 . S
C4418 N4425 1.356 . S
C4419 C4418 1.363 . S
C4419 C4422 1.363 . S
N4420 C4422 1.356 . S
N4420 H4432 0.984 . S
N4420 H4433 0.985 . S
N4421 C4423 1.356 . S
N4421 H4426 0.984 . S
N4421 H4427 0.985 . S
C4422 C4416 1.379 . S
C4422 C4419 1.363 . S
C4422 N4420 1.356 . S
C4423 C4417 1.363 . S
C4423 C4418 1.379 . S
C4423 N4421 1.356 . S
N4424 C4416 1.356 . S
N4424 H4430 0.984 . S
N4424 H4431 0.984 . S
N4425 C4418 1.356 . S
N4425 H4428 0.984 . S
N4425 H4429 0.985 . S
H4426 N4421 0.984 . S
H4427 N4421 0.985 . S
H4428 N4425 0.984 . S
H4429 N4425 0.985 . S
H4430 N4424 0.984 . S
H4431 N4424 0.984 . S
H4432 N4420 0.984 . S
H4433 N4420 0.985 . S
C4434 C4435 1.363 . S
C4434 C4440 1.379 . S
C4434 N4442 1.356 . S
C4435 C4434 1.363 . S
C4435 C4441 1.363 . S
C4436 C4437 1.363 . S
C4436 C4441 1.379 . S
C4436 N4443 1.356 . S
C4437 C4436 1.363 . S
C4437 C4440 1.363 . S
N4438 C4440 1.356 . S
N4438 H4450 0.984 . S
N4438 H4451 0.985 . S
N4439 C4441 1.356 . S
N4439 H4444 0.984 . S
N4439 H4445 0.985 . S
C4440 C4434 1.379 . S
C4440 C4437 1.363 . S
C4440 N4438 1.356 . S
C4441 C4435 1.363 . S
C4441 C4436 1.379 . S
C4441 N4439 1.356 . S
N4442 C4434 1.356 . S
N4442 H4448 0.984 . S
N4442 H4449 0.984 . S
N4443 C4436 1.356 . S
N4443 H4446 0.984 . S
N4443 H4447 0.985 . S
H4444 N4439 0.984 . S
H4445 N4439 0.985 . S
H4446 N4443 0.984 . S
H4447 N4443 0.985 . S
H4448 N4442 0.984 . S
H4449 N4442 0.984 . S
H4450 N4438 0.984 . S
H4451 N4438 0.985 . S
C4452 C4453 1.363 . S
C4452 C4458 1.379 . S
C4452 N4460 1.356 . S
C4453 C4452 1.363 . S
C4453 C4459 1.363 . S
C4454 C4455 1.363 . S
C4454 C4459 1.379 . S
C4454 N4461 1.356 . S
C4455 C4454 1.363 . S
C4455 C4458 1.363 . S
N4456 C4458 1.356 . S
N4456 H4468 0.984 . S
N4456 H4469 0.985 . S
N4457 C4459 1.356 . S
N4457 H4462 0.984 . S
N4457 H4463 0.985 . S
C4458 C4452 1.379 . S
C4458 C4455 1.363 . S
C4458 N4456 1.356 . S
C4459 C4453 1.363 . S
C4459 C4454 1.379 . S
C4459 N4457 1.356 . S
N4460 C4452 1.356 . S
N4460 H4466 0.984 . S
N4460 H4467 0.984 . S
N4461 C4454 1.356 . S
N4461 H4464 0.984 . S
N4461 H4465 0.985 . S
H4462 N4457 0.984 . S
H4463 N4457 0.985 . S
H4464 N4461 0.984 . S
H4465 N4461 0.985 . S
H4466 N4460 0.984 . S
H4467 N4460 0.984 . S
H4468 N4456 0.984 . S
H4469 N4456 0.985 . S
C4470 C4471 1.363 . S
C4470 C4476 1.379 . S
C4470 N4478 1.356 . S
C4471 C4470 1.363 . S
C4471 C4477 1.363 . S
C4472 C4473 1.363 . S
C4472 C4477 1.379 . S
C4472 N4479 1.356 . S
C4473 C4472 1.363 . S
C4473 C4476 1.363 . S
N4474 C4476 1.356 . S
N4474 H4486 0.984 . S
N4474 H4487 0.985 . S
N4475 C4477 1.356 . S
N4475 H4480 0.984 . S
N4475 H4481 0.985 . S
C4476 C4470 1.379 . S
C4476 C4473 1.363 . S
C4476 N4474 1.356 . S
C4477 C4471 1.363 . S
C4477 C4472 1.379 . S
C4477 N4475 1.356 . S
N4478 C4470 1.356 . S
N4478 H4484 0.984 . S
N4478 H4485 0.984 . S
N4479 C4472 1.356 . S
N4479 H4482 0.984 . S
N4479 H4483 0.985 . S
H4480 N4475 0.984 . S
H4481 N4475 0.985 . S
H4482 N4479 0.984 . S
H4483 N4479 0.985 . S
H4484 N4478 0.984 . S
H4485 N4478 0.984 . S
H4486 N4474 0.984 . S
H4487 N4474 0.985 . S
C4488 C4489 1.363 . S
C4488 C4494 1.379 . S
C4488 N4496 1.356 . S
C4489 C4488 1.363 . S
C4489 C4495 1.363 . S
C4490 C4491 1.363 . S
C4490 C4495 1.379 . S
C4490 N4497 1.356 . S
C4491 C4490 1.363 . S
C4491 C4494 1.363 . S
N4492 C4494 1.356 . S
N4492 H4504 0.984 . S
N4492 H4505 0.985 . S
N4493 C4495 1.356 . S
N4493 H4498 0.984 . S
N4493 H4499 0.985 . S
C4494 C4488 1.379 . S
C4494 C4491 1.363 . S
C4494 N4492 1.356 . S
C4495 C4489 1.363 . S
C4495 C4490 1.379 . S
C4495 N4493 1.356 . S
N4496 C4488 1.356 . S
N4496 H4502 0.984 . S
N4496 H4503 0.984 . S
N4497 C4490 1.356 . S
N4497 H4500 0.984 . S
N4497 H4501 0.985 . S
H4498 N4493 0.984 . S
H4499 N4493 0.985 . S
H4500 N4497 0.984 . S
H4501 N4497 0.985 . S
H4502 N4496 0.984 . S
H4503 N4496 0.984 . S
H4504 N4492 0.984 . S
H4505 N4492 0.985 . S
C4506 C4507 1.363 . S
C4506 C4512 1.379 . S
C4506 N4514 1.356 . S
C4507 C4506 1.363 . S
C4507 C4513 1.363 . S
C4508 C4509 1.363 . S
C4508 C4513 1.379 . S
C4508 N4515 1.356 . S
C4509 C4508 1.363 . S
C4509 C4512 1.363 . S
N4510 C4512 1.356 . S
N4510 H4522 0.984 . S
N4510 H4523 0.985 . S
N4511 C4513 1.356 . S
N4511 H4516 0.984 . S
N4511 H4517 0.985 . S
C4512 C4506 1.379 . S
C4512 C4509 1.363 . S
C4512 N4510 1.356 . S
C4513 C4507 1.363 . S
C4513 C4508 1.379 . S
C4513 N4511 1.356 . S
N4514 C4506 1.356 . S
N4514 H4520 0.984 . S
N4514 H4521 0.984 . S
N4515 C4508 1.356 . S
N4515 H4518 0.984 . S
N4515 H4519 0.985 . S
H4516 N4511 0.984 . S
H4517 N4511 0.985 . S
H4518 N4515 0.984 . S
H4519 N4515 0.985 . S
H4520 N4514 0.984 . S
H4521 N4514 0.984 . S
H4522 N4510 0.984 . S
H4523 N4510 0.985 . S
C4524 C4525 1.363 . S
C4524 C4530 1.379 . S
C4524 N4532 1.356 . S
C4525 C4524 1.363 . S
C4525 C4531 1.363 . S
C4526 C4527 1.363 . S
C4526 C4531 1.379 . S
C4526 N4533 1.356 . S
C4527 C4526 1.363 . S
C4527 C4530 1.363 . S
N4528 C4530 1.356 . S
N4528 H4540 0.984 . S
N4528 H4541 0.985 . S
N4529 C4531 1.356 . S
N4529 H4534 0.984 . S
N4529 H4535 0.985 . S
C4530 C4524 1.379 . S
C4530 C4527 1.363 . S
C4530 N4528 1.356 . S
C4531 C4525 1.363 . S
C4531 C4526 1.379 . S
C4531 N4529 1.356 . S
N4532 C4524 1.356 . S
N4532 H4538 0.984 . S
N4532 H4539 0.984 . S
N4533 C4526 1.356 . S
N4533 H4536 0.984 . S
N4533 H4537 0.985 . S
H4534 N4529 0.984 . S
H4535 N4529 0.985 . S
H4536 N4533 0.984 . S
H4537 N4533 0.985 . S
H4538 N4532 0.984 . S
H4539 N4532 0.984 . S
H4540 N4528 0.984 . S
H4541 N4528 0.985 . S
C4542 C4543 1.363 . S
C4542 C4548 1.379 . S
C4542 N4550 1.356 . S
C4543 C4542 1.363 . S
C4543 C4549 1.363 . S
C4544 C4545 1.363 . S
C4544 C4549 1.379 . S
C4544 N4551 1.356 . S
C4545 C4544 1.363 . S
C4545 C4548 1.363 . S
N4546 C4548 1.356 . S
N4546 H4558 0.984 . S
N4546 H4559 0.985 . S
N4547 C4549 1.356 . S
N4547 H4552 0.984 . S
N4547 H4553 0.985 . S
C4548 C4542 1.379 . S
C4548 C4545 1.363 . S
C4548 N4546 1.356 . S
C4549 C4543 1.363 . S
C4549 C4544 1.379 . S
C4549 N4547 1.356 . S
N4550 C4542 1.356 . S
N4550 H4556 0.984 . S
N4550 H4557 0.984 . S
N4551 C4544 1.356 . S
N4551 H4554 0.984 . S
N4551 H4555 0.985 . S
H4552 N4547 0.984 . S
H4553 N4547 0.985 . S
H4554 N4551 0.984 . S
H4555 N4551 0.985 . S
H4556 N4550 0.984 . S
H4557 N4550 0.984 . S
H4558 N4546 0.984 . S
H4559 N4546 0.985 . S
C4560 C4561 1.363 . S
C4560 C4566 1.379 . S
C4560 N4568 1.356 . S
C4561 C4560 1.363 . S
C4561 C4567 1.363 . S
C4562 C4563 1.363 . S
C4562 C4567 1.379 . S
C4562 N4569 1.356 . S
C4563 C4562 1.363 . S
C4563 C4566 1.363 . S
N4564 C4566 1.356 . S
N4564 H4576 0.984 . S
N4564 H4577 0.985 . S
N4565 C4567 1.356 . S
N4565 H4570 0.984 . S
N4565 H4571 0.985 . S
C4566 C4560 1.379 . S
C4566 C4563 1.363 . S
C4566 N4564 1.356 . S
C4567 C4561 1.363 . S
C4567 C4562 1.379 . S
C4567 N4565 1.356 . S
N4568 C4560 1.356 . S
N4568 H4574 0.984 . S
N4568 H4575 0.984 . S
N4569 C4562 1.356 . S
N4569 H4572 0.984 . S
N4569 H4573 0.985 . S
H4570 N4565 0.984 . S
H4571 N4565 0.985 . S
H4572 N4569 0.984 . S
H4573 N4569 0.985 . S
H4574 N4568 0.984 . S
H4575 N4568 0.984 . S
H4576 N4564 0.984 . S
H4577 N4564 0.985 . S
C4578 C4579 1.363 . S
C4578 C4584 1.379 . S
C4578 N4586 1.356 . S
C4579 C4578 1.363 . S
C4579 C4585 1.363 . S
C4580 C4581 1.363 . S
C4580 C4585 1.379 . S
C4580 N4587 1.356 . S
C4581 C4580 1.363 . S
C4581 C4584 1.363 . S
N4582 C4584 1.356 . S
N4582 H4594 0.984 . S
N4582 H4595 0.985 . S
N4583 C4585 1.356 . S
N4583 H4588 0.984 . S
N4583 H4589 0.985 . S
C4584 C4578 1.379 . S
C4584 C4581 1.363 . S
C4584 N4582 1.356 . S
C4585 C4579 1.363 . S
C4585 C4580 1.379 . S
C4585 N4583 1.356 . S
N4586 C4578 1.356 . S
N4586 H4592 0.984 . S
N4586 H4593 0.984 . S
N4587 C4580 1.356 . S
N4587 H4590 0.984 . S
N4587 H4591 0.985 . S
H4588 N4583 0.984 . S
H4589 N4583 0.985 . S
H4590 N4587 0.984 . S
H4591 N4587 0.985 . S
H4592 N4586 0.984 . S
H4593 N4586 0.984 . S
H4594 N4582 0.984 . S
H4595 N4582 0.985 . S
C4596 C4597 1.363 . S
C4596 C4602 1.379 . S
C4596 N4604 1.356 . S
C4597 C4596 1.363 . S
C4597 C4603 1.363 . S
C4598 C4599 1.363 . S
C4598 C4603 1.379 . S
C4598 N4605 1.356 . S
C4599 C4598 1.363 . S
C4599 C4602 1.363 . S
N4600 C4602 1.356 . S
N4600 H4612 0.984 . S
N4600 H4613 0.985 . S
N4601 C4603 1.356 . S
N4601 H4606 0.984 . S
N4601 H4607 0.985 . S
C4602 C4596 1.379 . S
C4602 C4599 1.363 . S
C4602 N4600 1.356 . S
C4603 C4597 1.363 . S
C4603 C4598 1.379 . S
C4603 N4601 1.356 . S
N4604 C4596 1.356 . S
N4604 H4610 0.984 . S
N4604 H4611 0.984 . S
N4605 C4598 1.356 . S
N4605 H4608 0.984 . S
N4605 H4609 0.985 . S
H4606 N4601 0.984 . S
H4607 N4601 0.985 . S
H4608 N4605 0.984 . S
H4609 N4605 0.985 . S
H4610 N4604 0.984 . S
H4611 N4604 0.984 . S
H4612 N4600 0.984 . S
H4613 N4600 0.985 . S
C4614 C4615 1.363 . S
C4614 C4620 1.379 . S
C4614 N4622 1.356 . S
C4615 C4614 1.363 . S
C4615 C4621 1.363 . S
C4616 C4617 1.363 . S
C4616 C4621 1.379 . S
C4616 N4623 1.356 . S
C4617 C4616 1.363 . S
C4617 C4620 1.363 . S
N4618 C4620 1.356 . S
N4618 H4630 0.984 . S
N4618 H4631 0.985 . S
N4619 C4621 1.356 . S
N4619 H4624 0.984 . S
N4619 H4625 0.985 . S
C4620 C4614 1.379 . S
C4620 C4617 1.363 . S
C4620 N4618 1.356 . S
C4621 C4615 1.363 . S
C4621 C4616 1.379 . S
C4621 N4619 1.356 . S
N4622 C4614 1.356 . S
N4622 H4628 0.984 . S
N4622 H4629 0.984 . S
N4623 C4616 1.356 . S
N4623 H4626 0.984 . S
N4623 H4627 0.985 . S
H4624 N4619 0.984 . S
H4625 N4619 0.985 . S
H4626 N4623 0.984 . S
H4627 N4623 0.985 . S
H4628 N4622 0.984 . S
H4629 N4622 0.984 . S
H4630 N4618 0.984 . S
H4631 N4618 0.985 . S
C4632 C4633 1.363 . S
C4632 C4638 1.379 . S
C4632 N4640 1.356 . S
C4633 C4632 1.363 . S
C4633 C4639 1.363 . S
C4634 C4635 1.363 . S
C4634 C4639 1.379 . S
C4634 N4641 1.356 . S
C4635 C4634 1.363 . S
C4635 C4638 1.363 . S
N4636 C4638 1.356 . S
N4636 H4648 0.984 . S
N4636 H4649 0.985 . S
N4637 C4639 1.356 . S
N4637 H4642 0.984 . S
N4637 H4643 0.985 . S
C4638 C4632 1.379 . S
C4638 C4635 1.363 . S
C4638 N4636 1.356 . S
C4639 C4633 1.363 . S
C4639 C4634 1.379 . S
C4639 N4637 1.356 . S
N4640 C4632 1.356 . S
N4640 H4646 0.984 . S
N4640 H4647 0.984 . S
N4641 C4634 1.356 . S
N4641 H4644 0.984 . S
N4641 H4645 0.985 . S
H4642 N4637 0.984 . S
H4643 N4637 0.985 . S
H4644 N4641 0.984 . S
H4645 N4641 0.985 . S
H4646 N4640 0.984 . S
H4647 N4640 0.984 . S
H4648 N4636 0.984 . S
H4649 N4636 0.985 . S
C4650 C4651 1.363 . S
C4650 C4656 1.379 . S
C4650 N4658 1.356 . S
C4651 C4650 1.363 . S
C4651 C4657 1.363 . S
C4652 C4653 1.363 . S
C4652 C4657 1.379 . S
C4652 N4659 1.356 . S
C4653 C4652 1.363 . S
C4653 C4656 1.363 . S
N4654 C4656 1.356 . S
N4654 H4666 0.984 . S
N4654 H4667 0.985 . S
N4655 C4657 1.356 . S
N4655 H4660 0.984 . S
N4655 H4661 0.985 . S
C4656 C4650 1.379 . S
C4656 C4653 1.363 . S
C4656 N4654 1.356 . S
C4657 C4651 1.363 . S
C4657 C4652 1.379 . S
C4657 N4655 1.356 . S
N4658 C4650 1.356 . S
N4658 H4664 0.984 . S
N4658 H4665 0.984 . S
N4659 C4652 1.356 . S
N4659 H4662 0.984 . S
N4659 H4663 0.985 . S
H4660 N4655 0.984 . S
H4661 N4655 0.985 . S
H4662 N4659 0.984 . S
H4663 N4659 0.985 . S
H4664 N4658 0.984 . S
H4665 N4658 0.984 . S
H4666 N4654 0.984 . S
H4667 N4654 0.985 . S
C4668 C4669 1.363 . S
C4668 C4674 1.379 . S
C4668 N4676 1.356 . S
C4669 C4668 1.363 . S
C4669 C4675 1.363 . S
C4670 C4671 1.363 . S
C4670 C4675 1.379 . S
C4670 N4677 1.356 . S
C4671 C4670 1.363 . S
C4671 C4674 1.363 . S
N4672 C4674 1.356 . S
N4672 H4684 0.984 . S
N4672 H4685 0.985 . S
N4673 C4675 1.356 . S
N4673 H4678 0.984 . S
N4673 H4679 0.985 . S
C4674 C4668 1.379 . S
C4674 C4671 1.363 . S
C4674 N4672 1.356 . S
C4675 C4669 1.363 . S
C4675 C4670 1.379 . S
C4675 N4673 1.356 . S
N4676 C4668 1.356 . S
N4676 H4682 0.984 . S
N4676 H4683 0.984 . S
N4677 C4670 1.356 . S
N4677 H4680 0.984 . S
N4677 H4681 0.985 . S
H4678 N4673 0.984 . S
H4679 N4673 0.985 . S
H4680 N4677 0.984 . S
H4681 N4677 0.985 . S
H4682 N4676 0.984 . S
H4683 N4676 0.984 . S
H4684 N4672 0.984 . S
H4685 N4672 0.985 . S
C4686 C4687 1.363 . S
C4686 C4692 1.379 . S
C4686 N4694 1.356 . S
C4687 C4686 1.363 . S
C4687 C4693 1.363 . S
C4688 C4689 1.363 . S
C4688 C4693 1.379 . S
C4688 N4695 1.356 . S
C4689 C4688 1.363 . S
C4689 C4692 1.363 . S
N4690 C4692 1.356 . S
N4690 H4702 0.984 . S
N4690 H4703 0.985 . S
N4691 C4693 1.356 . S
N4691 H4696 0.984 . S
N4691 H4697 0.985 . S
C4692 C4686 1.379 . S
C4692 C4689 1.363 . S
C4692 N4690 1.356 . S
C4693 C4687 1.363 . S
C4693 C4688 1.379 . S
C4693 N4691 1.356 . S
N4694 C4686 1.356 . S
N4694 H4700 0.984 . S
N4694 H4701 0.984 . S
N4695 C4688 1.356 . S
N4695 H4698 0.984 . S
N4695 H4699 0.985 . S
H4696 N4691 0.984 . S
H4697 N4691 0.985 . S
H4698 N4695 0.984 . S
H4699 N4695 0.985 . S
H4700 N4694 0.984 . S
H4701 N4694 0.984 . S
H4702 N4690 0.984 . S
H4703 N4690 0.985 . S
C1249 C4 1.717 . S
C1251 C400 1.717 . S
C1267 C719 1.716 . S
C1269 C17 1.716 . S
C1285 C30 1.716 . S
C1287 C374 1.716 . S
C1303 C43 1.716 . S
C1305 C693 1.716 . S
C1321 C342 1.717 . S
C1323 C62 1.717 . S
C1339 C69 1.716 . S
C1341 C673 1.716 . S
C1357 C316 1.716 . S
C1359 C88 1.716 . S
C1375 C101 1.716 . S
C1377 C641 1.716 . S
C1393 C446 1.717 . S
C1395 C108 1.717 . S
C1411 C127 1.716 . S
C1413 C777 1.716 . S
C1429 C134 1.717 . S
C1431 C426 1.717 . S
C1447 C153 1.716 . S
C1449 C751 1.716 . S
C1465 C166 1.717 . S
C1467 C504 1.717 . S
C1483 C823 1.716 . S
C1485 C173 1.716 . S
C1501 C472 1.717 . S
C1503 C192 1.717 . S
C1519 C199 1.716 . S
C1521 C797 1.716 . S
C1537 C849 1.717 . S
C1539 C212 1.717 . S
C1555 C842 1.717 . S
C1557 C231 1.717 . S
C1573 C244 1.716 . S
C1575 C927 1.716 . S
C1591 C1213 1.716 . S
C1593 C257 1.716 . S
C1609 C608 1.716 . S
C1611 C264 1.716 . S
C1627 C277 1.717 . S
C1629 C1187 1.717 . S
C1645 C296 1.716 . S
C1647 C576 1.716 . S
C1663 C309 1.716 . S
C1665 C868 1.716 . S
C1681 C329 1.716 . S
C1683 C1037 1.716 . S
C1699 C355 1.716 . S
C1701 C1011 1.716 . S
C1717 C387 1.716 . S
C1719 C979 1.716 . S
C1735 C413 1.716 . S
C1737 C959 1.716 . S
C1753 C1083 1.716 . S
C1755 C433 1.716 . S
C1771 C459 1.716 . S
C1773 C1063 1.716 . S
C1789 C1135 1.716 . S
C1791 C485 1.716 . S
C1807 C517 1.716 . S
C1809 C1109 1.716 . S
C1825 C524 1.717 . S
C1827 C1167 1.717 . S
C1843 C543 1.716 . S
C1845 C1154 1.716 . S
C1861 C550 1.716 . S
C1863 C1239 1.716 . S
C1879 C901 1.717 . S
C1881 C563 1.717 . S
C1897 C881 1.717 . S
C1899 C589 1.717 . S
C1915 C615 1.716 . S
C1917 C1180 1.716 . S
C1933 C634 1.717 . S
C1935 C1024 1.717 . S
C1951 C998 1.717 . S
C1953 C660 1.717 . S
C1969 C680 1.717 . S
C1971 C966 1.717 . S
C1987 C712 1.717 . S
C1989 C940 1.717 . S
C2005 C1070 1.716 . S
C2007 C732 1.716 . S
C2023 C1050 1.717 . S
C2025 C758 1.717 . S
C2041 C784 1.716 . S
C2043 C1128 1.716 . S
C2059 C1102 1.717 . S
C2061 C816 1.717 . S
C2077 C894 1.716 . S
C2079 C1232 1.716 . S
C2095 C920 1.716 . S
C2097 C1206 1.716 . S
C2113 C10 1.467 . S
C2115 C725 1.467 . S
C2131 C23 1.467 . S
C2133 C368 1.467 . S
C2149 C36 1.467 . S
C2151 C699 1.467 . S
C2167 C394 1.467 . S
C2169 C49 1.467 . S
C2185 C56 1.467 . S
C2187 C335 1.467 . S
C2203 C75 1.467 . S
C2205 C654 1.467 . S
C2221 C82 1.467 . S
C2223 C361 1.467 . S
C2239 C628 1.467 . S
C2241 C95 1.467 . S
C2257 C114 1.467 . S
C2259 C270 1.467 . S
C2275 C121 1.467 . S
C2277 C1161 1.467 . S
C2293 C1174 1.467 . S
C2295 C140 1.467 . S
C2311 C147 1.467 . S
C2313 C1193 1.467 . S
C2329 C933 1.467 . S
C2331 C160 1.467 . S
C2347 C1219 1.467 . S
C2349 C179 1.467 . S
C2365 C186 1.467 . S
C2367 C914 1.467 . S
C2383 C836 1.467 . S
C2385 C205 1.467 . S
C2401 C829 1.467 . S
C2403 C218 1.467 . S
C2419 C1057 1.467 . S
C2421 C225 1.467 . S
C2437 C238 1.467 . S
C2439 C1076 1.467 . S
C2455 C251 1.467 . S
C2457 C1089 1.467 . S
C2473 C283 1.467 . S
C2475 C1115 1.467 . S
C2491 C290 1.467 . S
C2493 C810 1.467 . S
C2509 C790 1.467 . S
C2511 C303 1.467 . S
C2527 C322 1.467 . S
C2529 C1031 1.467 . S
C2545 C1005 1.467 . S
C2547 C348 1.467 . S
C2563 C972 1.467 . S
C2565 C381 1.467 . S
C2581 C407 1.467 . S
C2583 C946 1.467 . S
C2599 C420 1.467 . S
C2601 C582 1.467 . S
C2617 C439 1.467 . S
C2619 C855 1.467 . S
C2635 C452 1.467 . S
C2637 C862 1.467 . S
C2653 C465 1.467 . S
C2655 C875 1.467 . S
C2671 C478 1.467 . S
C2673 C1245 1.467 . S
C2689 C907 1.467 . S
C2691 C491 1.467 . S
C2707 C1226 1.467 . S
C2709 C498 1.467 . S
C2725 C1148 1.467 . S
C2727 C511 1.467 . S
C2743 C1141 1.467 . S
C2745 C530 1.467 . S
C2761 C537 1.467 . S
C2763 C745 1.467 . S
C2779 C556 1.467 . S
C2781 C764 1.467 . S
C2797 C569 1.467 . S
C2799 C771 1.467 . S
C2815 C803 1.467 . S
C2817 C595 1.467 . S
C2833 C1122 1.467 . S
C2835 C602 1.467 . S
C2851 C1096 1.467 . S
C2853 C621 1.467 . S
C2869 C647 1.467 . S
C2871 C992 1.467 . S
C2887 C667 1.467 . S
C2889 C1018 1.467 . S
C2905 C953 1.467 . S
C2907 C686 1.467 . S
C2923 C985 1.467 . S
C2925 C706 1.467 . S
C2941 C888 1.467 . S
C2943 C738 1.467 . S
C2959 C1200 1.467 . S
C2961 C1044 1.467 . S
C2977 C3 1.302 . S
C2979 C1214 1.381 . S
C2995 C16 1.302 . S
C2997 C913 1.381 . S
C3013 C835 1.381 . S
C3015 C29 1.302 . S
C3031 C928 1.381 . S
C3033 C42 1.302 . S
C3049 C57 1.302 . S
C3051 C250 1.381 . S
C3067 C68 1.302 . S
C3069 C1199 1.381 . S
C3085 C224 1.381 . S
C3087 C83 1.302 . S
C3103 C237 1.381 . S
C3105 C96 1.302 . S
C3121 C367 1.381 . S
C3123 C107 1.302 . S
C3139 C122 1.302 . S
C3141 C694 1.381 . S
C3157 C133 1.302 . S
C3159 C393 1.381 . S
C3175 C148 1.302 . S
C3177 C720 1.381 . S
C3193 C317 1.381 . S
C3195 C161 1.302 . S
C3211 C172 1.302 . S
C3213 C642 1.381 . S
C3229 C343 1.381 . S
C3231 C187 1.302 . S
C3247 C198 1.302 . S
C3249 C666 1.381 . S
C3265 C211 1.302 . S
C3267 C1121 1.381 . S
C3283 C447 1.381 . S
C3285 C226 1.302 . S
C3301 C239 1.302 . S
C3303 C770 1.381 . S
C3319 C419 1.381 . S
C3321 C252 1.302 . S
C3337 C263 1.302 . S
C3339 C434 1.381 . S
C3355 C785 1.381 . S
C3357 C276 1.302 . S
C3373 C174 1.381 . S
C3375 C291 1.302 . S
C3391 C200 1.381 . S
C3393 C304 1.302 . S
C3409 C902 1.381 . S
C3411 C315 1.302 . S
C3427 C328 1.302 . S
C3429 C1225 1.381 . S
C3445 C1147 1.381 . S
C3447 C341 1.302 . S
C3463 C354 1.302 . S
C3465 C1240 1.381 . S
C3481 C564 1.381 . S
C3483 C369 1.302 . S
C3499 C887 1.381 . S
C3501 C382 1.302 . S
C3517 C395 1.302 . S
C3519 C536 1.381 . S
C3535 C408 1.302 . S
C3537 C551 1.381 . S
C3553 C421 1.302 . S
C3555 C55 1.381 . S
C3571 C432 1.302 . S
C3573 C1004 1.381 . S
C3589 C81 1.381 . S
C3591 C445 1.302 . S
C3607 C458 1.302 . S
C3609 C1030 1.381 . S
C3625 C5 1.381 . S
C3627 C471 1.302 . S
C3643 C484 1.302 . S
C3645 C952 1.381 . S
C3661 C31 1.381 . S
C3663 C499 1.302 . S
C3679 C980 1.381 . S
C3681 C512 1.302 . S
C3697 C523 1.302 . S
C3699 C809 1.381 . S
C3715 C538 1.302 . S
C3717 C135 1.381 . S
C3733 C1084 1.381 . S
C3735 C549 1.302 . S
C3751 C562 1.302 . S
C3753 C109 1.381 . S
C3769 C120 1.381 . S
C3771 C575 1.302 . S
C3787 C588 1.302 . S
C3789 C1095 1.381 . S
C3805 C486 1.381 . S
C3807 C603 1.302 . S
C3823 C614 1.302 . S
C3825 C510 1.381 . S
C3841 C590 1.381 . S
C3843 C629 1.302 . S
C3859 C640 1.302 . S
C3861 C289 1.381 . S
C3877 C655 1.302 . S
C3879 C213 1.381 . S
C3895 C668 1.302 . S
C3897 C302 1.381 . S
C3913 C679 1.302 . S
C3915 C874 1.381 . S
C3931 C577 1.381 . S
C3933 C692 1.302 . S
C3949 C850 1.381 . S
C3951 C707 1.302 . S
C3967 C718 1.302 . S
C3969 C861 1.381 . S
C3985 C991 1.381 . S
C3987 C731 1.302 . S
C4003 C70 1.381 . S
C4005 C746 1.302 . S
C4021 C1017 1.381 . S
C4023 C757 1.302 . S
C4039 C772 1.302 . S
C4041 C94 1.381 . S
C4057 C941 1.381 . S
C4059 C783 1.302 . S
C4075 C796 1.302 . S
C4077 C18 1.381 . S
C4093 C967 1.381 . S
C4095 C811 1.302 . S
C4111 C44 1.381 . S
C4113 C822 1.302 . S
C4129 C497 1.381 . S
C4131 C837 1.302 . S
C4147 C848 1.302 . S
C4149 C1071 1.381 . S
C4165 C863 1.302 . S
C4167 C146 1.381 . S
C4183 C1043 1.381 . S
C4185 C876 1.302 . S
C4201 C889 1.302 . S
C4203 C1056 1.381 . S
C4219 C159 1.381 . S
C4221 C900 1.302 . S
C4237 C798 1.381 . S
C4239 C915 1.302 . S
C4255 C926 1.302 . S
C4257 C824 1.381 . S
C4273 C939 1.302 . S
C4275 C278 1.381 . S
C4291 C601 1.381 . S
C4293 C954 1.302 . S
C4309 C525 1.381 . S
C4311 C965 1.302 . S
C4327 C978 1.302 . S
C4329 C616 1.381 . S
C4345 C993 1.302 . S
C4347 C1188 1.381 . S
C4363 C265 1.381 . S
C4365 C1006 1.302 . S
C4381 C1160 1.381 . S
C4383 C1019 1.302 . S
C4399 C1173 1.381 . S
C4401 C1032 1.302 . S
C4417 C681 1.381 . S
C4419 C1045 1.302 . S
C4435 C1058 1.302 . S
C4437 C380 1.381 . S
C4453 C1069 1.302 . S
C4455 C705 1.381 . S
C4471 C1082 1.302 . S
C4473 C406 1.381 . S
C4489 C627 1.381 . S
C4491 C1097 1.302 . S
C4507 C1108 1.302 . S
C4509 C330 1.381 . S
C4525 C1123 1.302 . S
C4527 C653 1.381 . S
C4543 C1134 1.302 . S
C4545 C356 1.381 . S
C4561 C185 1.381 . S
C4563 C1149 1.302 . S
C4579 C1162 1.302 . S
C4581 C759 1.381 . S
C4597 C1175 1.302 . S
C4599 C460 1.381 . S
C4615 C1186 1.302 . S
C4617 C733 1.381 . S
C4633 C1201 1.302 . S
C4635 C744 1.381 . S
C4651 C473 1.381 . S
C4653 C1212 1.302 . S
C4669 C1110 1.381 . S
C4671 C1227 1.302 . S
C4687 C1136 1.381 . S
C4689 C1238 1.302 . S
