# Generated by pormake.
# Topology wnj, (7)-cn, num edge types: 1
# Building blocks:
#     Node 0, Type 0, BuildingBlock: OLANEW_clean_sbu_3, # of connection points: 7
#     Node 1, Type 0, BuildingBlock: OLANEW_clean_sbu_3, # of connection points: 7
#     Node 2, Type 0, BuildingBlock: OLANEW_clean_sbu_3, # of connection points: 7
#     Node 3, Type 0, BuildingBlock: OLANEW_clean_sbu_3, # of connection points: 7
#     Node 4, Type 0, BuildingBlock: OLANEW_clean_sbu_3, # of connection points: 7
#     Node 5, Type 0, BuildingBlock: OLANEW_clean_sbu_3, # of connection points: 7
#     Edge 6, Type (0, 0), BuildingBlock: XIVTED_clean_linker_0, # of connection points: 2
#     Edge 7, Type (0, 0), BuildingBlock: XIVTED_clean_linker_0, # of connection points: 2
#     Edge 8, Type (0, 0), BuildingBlock: XIVTED_clean_linker_0, # of connection points: 2
#     Edge 9, Type (0, 0), BuildingBlock: XIVTED_clean_linker_0, # of connection points: 2
#     Edge 10, Type (0, 0), BuildingBlock: XIVTED_clean_linker_0, # of connection points: 2
#     Edge 11, Type (0, 0), BuildingBlock: XIVTED_clean_linker_0, # of connection points: 2
#     Edge 12, Type (0, 0), BuildingBlock: XIVTED_clean_linker_0, # of connection points: 2
#     Edge 13, Type (0, 0), BuildingBlock: XIVTED_clean_linker_0, # of connection points: 2
#     Edge 14, Type (0, 0), BuildingBlock: XIVTED_clean_linker_0, # of connection points: 2
#     Edge 15, Type (0, 0), BuildingBlock: XIVTED_clean_linker_0, # of connection points: 2
#     Edge 16, Type (0, 0), BuildingBlock: XIVTED_clean_linker_0, # of connection points: 2
#     Edge 17, Type (0, 0), BuildingBlock: XIVTED_clean_linker_0, # of connection points: 2
#     Edge 18, Type (0, 0), BuildingBlock: XIVTED_clean_linker_0, # of connection points: 2
#     Edge 19, Type (0, 0), BuildingBlock: XIVTED_clean_linker_0, # of connection points: 2
#     Edge 20, Type (0, 0), BuildingBlock: XIVTED_clean_linker_0, # of connection points: 2
#     Edge 21, Type (0, 0), BuildingBlock: XIVTED_clean_linker_0, # of connection points: 2
#     Edge 22, Type (0, 0), BuildingBlock: XIVTED_clean_linker_0, # of connection points: 2
#     Edge 23, Type (0, 0), BuildingBlock: XIVTED_clean_linker_0, # of connection points: 2
#     Edge 24, Type (0, 0), BuildingBlock: XIVTED_clean_linker_0, # of connection points: 2
#     Edge 25, Type (0, 0), BuildingBlock: XIVTED_clean_linker_0, # of connection points: 2
#     Edge 26, Type (0, 0), BuildingBlock: XIVTED_clean_linker_0, # of connection points: 2
# Relax obj value: 0.274
# Max RMSD: 0.269
# Mean RMSD: 0.269
data_MOF--net-wnj--node1-OLANEW_clean_sbu_3--edge1-XIVTED_clean_linker_0
_symmetry_space_group_name_H-M    P1
_symmetry_Int_Tables_number       1
_symmetry_cell_setting            triclinic
loop_
_symmetry_equiv_pos_as_xyz
'x, y, z'
_cell_length_a     38.252795
_cell_length_b     38.317992
_cell_length_c     45.804878
_cell_angle_alpha  89.956244
_cell_angle_beta   89.881159
_cell_angle_gamma 119.96248
loop_
_atom_site_label
_atom_site_type_symbol
_atom_site_fract_x
_atom_site_fract_y
_atom_site_fract_z
_atom_type_partial_charge
C0 C 0.06041 0.5507 0.02975 0.0
C1 C 0.07211 0.59068 0.03649 0.0
C2 C 0.10889 0.6138 0.05169 0.0
C3 C 0.13312 0.59694 0.05958 0.0
C4 C 0.11985 0.55701 0.05186 0.0
N5 N 0.08481 0.53684 0.03768 0.0
C6 C 0.13865 0.53201 0.05795 0.0
C7 C 0.12865 0.4634 0.05208 0.0
C8 C 0.16188 0.46725 0.03631 0.0
C9 C 0.17424 0.43879 0.03981 0.0
C10 C 0.15361 0.4065 0.05909 0.0
C11 C 0.12061 0.40266 0.07492 0.0
C12 C 0.10814 0.43101 0.07145 0.0
Cd13 Cd 0.2097 0.57934 0.1168 0.0
Cd14 Cd 0.16858 0.65242 0.15117 0.0
C15 C 1.00347 0.46 0.98183 0.0
C16 C 0.94247 0.39958 0.96702 0.0
C17 C 0.9581 0.40401 0.93868 0.0
C18 C 0.99542 0.43725 0.93117 0.0
C19 C 1.01802 0.46552 0.95289 0.0
C20 C 0.96527 0.42755 0.98861 0.0
Co21 Co 0.07014 0.4858 0.02578 0.0
N22 N 0.10491 0.50353 -0.00889 0.0
N23 N 0.0552 0.43449 0.01407 0.0
C24 C 0.07277 0.43105 -0.01004 0.0
C25 C 0.0612 0.39235 0.97978 0.0
C26 C 0.03134 0.35903 -0.00428 0.0
C27 C 1.01356 0.36485 0.02103 0.0
C28 C 0.0265 0.40441 0.02977 0.0
N29 N 0.03215 0.45964 0.05807 0.0
N30 N 0.11604 0.49263 0.04879 0.0
N31 N 0.02737 0.4874 0.00443 0.0
O32 O 0.20801 0.65469 0.19255 0.0
O33 O 0.21282 0.61787 0.15883 0.0
C34 C 0.26689 0.55198 0.13267 0.0
O35 O 0.23373 0.53952 0.14636 0.0
O36 O 0.27245 0.57505 0.11112 0.0
C37 C 0.23433 0.67272 0.08893 0.0
O38 O 0.24069 0.64309 0.0895 0.0
O39 O 0.21137 0.67622 0.10748 0.0
C40 C 0.10158 0.47037 0.97703 0.0
O41 O 0.12044 0.47324 0.95233 0.0
O42 O 0.13528 0.54942 0.12515 0.0
O43 O 0.11105 0.58724 0.14302 0.0
C44 C 1.01311 0.41872 0.05495 0.0
O45 O 0.98742 0.39401 0.07448 0.0
C46 C 0.02862 0.47886 0.08387 0.0
C47 C 0.06119 0.49623 0.10262 0.0
C48 C 0.06445 0.52403 0.12351 0.0
C49 C 0.03039 0.52814 0.12953 0.0
C50 C 0.99406 0.50544 0.1138 0.0
C51 C 0.99413 0.48192 0.08996 0.0
C52 C 0.22488 0.63578 0.18308 0.0
O53 O 0.17686 0.54769 0.06845 0.0
C54 C 0.10559 0.55385 0.13335 0.0
C55 C 0.13061 0.54416 0.98065 0.0
C56 C 0.11444 0.56881 0.97342 0.0
C57 C 0.13898 0.60771 0.96274 0.0
C58 C 0.17975 0.62196 0.95753 0.0
C59 C 0.19577 0.59651 0.96175 0.0
C60 C 0.1715 0.55814 0.97426 0.0
C61 C 0.02652 0.52175 0.01132 0.0
O62 O 1.00158 0.53116 -0.00144 0.0
H63 H 0.05413 0.60387 0.0298 0.0
H64 H 0.11876 0.64483 0.05715 0.0
H65 H 0.16088 0.61433 0.07136 0.0
H66 H 0.17806 0.49212 0.02132 0.0
H67 H 0.16322 0.38453 0.0618 0.0
H68 H 0.08281 0.42782 0.08408 0.0
H69 H 0.93984 0.3828 0.92187 0.0
H70 H 0.04679 0.4915 0.94735 0.0
H71 H 0.95338 0.42427 0.01056 0.0
H72 H 0.07442 0.38791 0.96023 0.0
H73 H 0.02182 0.32875 0.98838 0.0
H74 H 0.99058 0.33942 0.03313 0.0
H75 H 0.08582 0.49067 0.09905 0.0
H76 H 0.03217 0.54879 0.14638 0.0
H77 H 0.96791 0.46663 0.07601 0.0
H78 H 0.08263 0.55772 0.9743 0.0
H79 H 0.19778 0.65151 0.94783 0.0
H80 H 0.18388 0.53845 0.97762 0.0
C81 C 0.48079 0.51356 0.69675 0.0
C82 C 0.44116 0.4849 0.70428 0.0
C83 C 0.41821 0.49805 0.72037 0.0
C84 C 0.43491 0.53904 0.72831 0.0
C85 C 0.47445 0.56608 0.71971 0.0
N86 N 0.49447 0.5517 0.70473 0.0
C87 C 0.49932 0.60975 0.72577 0.0
C88 C 0.56766 0.66883 0.71937 0.0
C89 C 0.56241 0.69793 0.70453 0.0
C90 C 0.59053 0.73883 0.7079 0.0
C91 C 0.62386 0.75085 0.72612 0.0
C92 C 0.62911 0.72198 0.74102 0.0
C93 C 0.60111 0.68108 0.73767 0.0
Cd94 Cd 0.45179 0.6315 0.78466 0.0
Cd95 Cd 0.37914 0.51717 0.81592 0.0
C96 C 0.56972 0.5487 0.64664 0.0
C97 C 0.62722 0.54464 0.62918 0.0
C98 C 0.62255 0.55706 0.60143 0.0
C99 C 0.59047 0.56379 0.59558 0.0
C100 C 0.5636 0.55899 0.6183 0.0
C101 C 0.60115 0.54094 0.65185 0.0
Co102 Co 0.54528 0.58846 0.69236 0.0
N103 N 0.52687 0.6063 0.65856 0.0
N104 N 0.59646 0.62512 0.68022 0.0
C105 C 0.59946 0.64686 0.65667 0.0
C106 C 0.63803 0.67457 0.64636 0.0
C107 C 0.67172 0.67781 0.66157 0.0
C108 C 0.66637 0.65342 0.6863 0.0
C109 C 0.62691 0.62625 0.6952 0.0
N110 N 0.57221 0.57599 0.72374 0.0
N111 N 0.53873 0.6269 0.71631 0.0
N112 N 0.54321 0.54469 0.67011 0.0
O113 O 0.37458 0.55139 0.85854 0.0
O114 O 0.41227 0.59456 0.82583 0.0
C115 C 0.4791 0.71533 0.80047 0.0
O116 O 0.492 0.69497 0.81396 0.0
O117 O 0.45538 0.69758 0.77935 0.0
C118 C 0.35821 0.56419 0.75554 0.0
O119 O 0.38826 0.59983 0.7571 0.0
O120 O 0.35396 0.53639 0.77301 0.0
C121 C 0.55985 0.63661 0.64447 0.0
O122 O 0.55661 0.65315 0.62022 0.0
O123 O 0.48422 0.58957 0.79277 0.0
O124 O 0.44556 0.52653 0.80849 0.0
C125 C 0.61313 0.598 0.72005 0.0
O126 O 0.63832 0.59699 0.73904 0.0
C127 C 0.55377 0.55346 0.74985 0.0
C128 C 0.53719 0.56896 0.76913 0.0
C129 C 0.51028 0.54482 0.79066 0.0
C130 C 0.50743 0.50745 0.79722 0.0
C131 C 0.52984 0.49372 0.78104 0.0
C132 C 0.55142 0.51627 0.75611 0.0
C133 C 0.39378 0.58758 0.84997 0.0
O134 O 0.48329 0.63191 0.73626 0.0
C135 C 0.47959 0.55521 0.80024 0.0
C136 C 0.48596 0.59176 0.64884 0.0
C137 C 0.46055 0.55093 0.64219 0.0
C138 C 0.42137 0.53691 0.63223 0.0
C139 C 0.40757 0.56375 0.62711 0.0
C140 C 0.43374 0.60517 0.63065 0.0
C141 C 0.47237 0.61898 0.64254 0.0
C142 C 0.5094 0.50922 0.67742 0.0
O143 O 0.49991 0.47516 0.66426 0.0
H144 H 0.42811 0.4538 0.69756 0.0
H145 H 0.38747 0.47659 0.72653 0.0
H146 H 0.41778 0.54902 0.74091 0.0
H147 H 0.53673 0.68898 0.69036 0.0
H148 H 0.64555 0.7825 0.72874 0.0
H149 H 0.60537 0.65916 0.74962 0.0
H150 H 0.64244 0.55888 0.58383 0.0
H151 H 0.53808 0.56307 0.61392 0.0
H152 H 0.6046 0.53114 0.67332 0.0
H153 H 0.6421 0.69289 0.62726 0.0
H154 H 0.70191 0.69904 0.65414 0.0
H155 H 0.69209 0.65577 0.69789 0.0
H156 H 0.54241 0.59895 0.76547 0.0
H157 H 0.48711 0.48869 0.81434 0.0
H158 H 0.5668 0.5056 0.74197 0.0
H159 H 0.47125 0.52993 0.64285 0.0
H160 H 0.3778 0.55248 0.61789 0.0
H161 H 0.49253 0.65102 0.64539 0.0
C162 C 0.51432 0.97243 0.35987 0.0
C163 C 0.54331 0.96144 0.36622 0.0
C164 C 0.53055 0.92467 0.38127 0.0
C165 C 0.48963 0.89976 0.38944 0.0
C166 C 0.46224 0.91236 0.38213 0.0
N167 N 0.47628 0.94743 0.36805 0.0
C168 C 0.41844 0.89279 0.38857 0.0
C169 C 0.35883 0.90148 0.3836 0.0
C170 C 0.32954 0.86849 0.3678 0.0
C171 C 0.2886 0.85536 0.37202 0.0
C172 C 0.27676 0.87499 0.39207 0.0
C173 C 0.30583 0.90774 0.40794 0.0
C174 C 0.34676 0.92098 0.40374 0.0
Cd175 Cd 0.39709 0.82247 0.44777 0.0
Cd176 Cd 0.51213 0.8646 0.47903 0.0
C177 C 0.47876 0.02926 0.31315 0.0
C178 C 0.48085 0.09136 0.29925 0.0
C179 C 0.47167 0.07747 0.27045 0.0
C180 C 0.46832 0.04073 0.26203 0.0
C181 C 0.47118 0.01624 0.28383 0.0
C182 C 0.48458 0.06726 0.32058 0.0
Co183 Co 0.43898 0.96124 0.35664 0.0
N184 N 0.42251 0.92705 0.32184 0.0
N185 N 0.40165 0.97523 0.34541 0.0
C186 C 0.38062 0.95763 0.3214 0.0
C187 C 0.3524 0.96815 0.31178 0.0
C188 C 0.34794 0.99705 0.32815 0.0
C189 C 0.37161 0.01491 0.35332 0.0
C190 C 0.39933 1.00303 0.3615 0.0
N191 N 0.45007 0.99846 0.38916 0.0
N192 N 0.40076 0.91474 0.37966 0.0
N193 N 0.4827 1.00483 0.33522 0.0
O194 O 0.4776 0.8258 0.52141 0.0
O195 O 0.43268 0.81855 0.48962 0.0
C196 C 0.31289 0.76457 0.46421 0.0
O197 O 0.33285 0.79813 0.47735 0.0
O198 O 0.33094 0.75899 0.443 0.0
C199 C 0.46535 0.7978 0.41803 0.0
O200 O 0.42947 0.79179 0.41949 0.0
O201 O 0.49262 0.821 0.43589 0.0
C202 C 0.39208 0.92975 0.30808 0.0
O203 O 0.37601 0.9108 0.28352 0.0
O204 O 0.4412 0.8968 0.4561 0.0
O205 O 0.50415 0.92234 0.47233 0.0
C206 C 0.4272 0.01658 0.3865 0.0
O207 O 0.42751 0.04155 0.4063 0.0
C208 C 0.47352 1.00249 0.41464 0.0
C209 C 0.45958 0.97 0.43339 0.0
C210 C 0.48488 0.96782 0.45418 0.0
C211 C 0.52216 1.00289 0.46036 0.0
C212 C 0.53432 0.03913 0.44465 0.0
C213 C 0.5103 0.0377 0.4206 0.0
C214 C 0.44103 0.80813 0.51369 0.0
O215 O 0.39676 0.85464 0.39935 0.0
C216 C 0.4752 0.92698 0.46372 0.0
C217 C 0.43845 0.9024 0.31097 0.0
C218 C 0.47924 0.91976 0.30308 0.0
C219 C 0.49461 0.89625 0.29205 0.0
C220 C 0.46911 0.85531 0.28721 0.0
C221 C 0.42755 0.83799 0.29217 0.0
C222 C 0.41249 0.86132 0.30495 0.0
C223 C 0.51833 1.00627 0.34176 0.0
O224 O 0.55249 0.03201 0.32905 0.0
H225 H 0.57437 0.97996 0.35933 0.0
H226 H 0.55227 0.91535 0.38643 0.0
H227 H 0.47993 0.87198 0.40111 0.0
H228 H 0.33838 0.85307 0.35224 0.0
H229 H 0.24509 0.86478 0.39535 0.0
H230 H 0.36884 0.9461 0.41642 0.0
H231 H 0.46899 0.09658 0.25418 0.0
H232 H 0.46892 0.98784 0.27797 0.0
H233 H 0.49233 0.07807 0.3428 0.0
H234 H 0.33461 0.95481 0.29237 0.0
H235 H 0.3263 1.00572 0.32125 0.0
H236 H 0.36834 0.0371 0.36578 0.0
H237 H 0.42986 0.94468 0.42989 0.0
H238 H 0.54128 1.00184 0.47733 0.0
H239 H 0.52014 0.06357 0.40639 0.0
H240 H 0.49912 0.95169 0.30381 0.0
H241 H 0.48141 0.83809 0.2773 0.0
H242 H 0.3804 0.84801 0.30894 0.0
C243 C 0.5548 0.0509 0.9499 0.0
C244 C 0.59599 0.06497 0.94576 0.0
C245 C 0.6192 0.10218 0.93106 0.0
C246 C 0.60126 0.12463 0.92125 0.0
C247 C 0.56007 0.10895 0.92631 0.0
N248 N 0.53968 0.07329 0.93977 0.0
C249 C 0.53445 0.12664 0.91905 0.0
C250 C 0.46446 0.11429 0.92209 0.0
C251 C 0.46695 0.14774 0.93652 0.0
C252 C 0.43782 0.15891 0.93161 0.0
C253 C 0.40619 0.13689 0.91221 0.0
C254 C 0.40373 0.10375 0.89762 0.0
C255 C 0.43277 0.09247 0.90251 0.0
Cd256 Cd 0.58632 0.19876 0.8618 0.0
Cd257 Cd 0.66058 0.15797 0.8284 0.0
C258 C 0.46115 0.99102 -0.00522 0.0
C259 C 0.40061 0.92932 0.00802 0.0
C260 C 0.4047 0.9428 0.03692 0.0
C261 C 0.43819 0.97926 0.04573 0.0
C262 C 0.46618 1.00378 0.02416 0.0
C263 C 0.42895 0.95341 0.98702 0.0
Co264 Co 0.48754 0.05725 0.95032 0.0
N265 N 0.50281 0.09144 0.98469 0.0
N266 N 0.43533 0.04109 0.96084 0.0
C267 C 0.43029 0.05801 0.98469 0.0
C268 C 0.39091 0.04542 -0.00594 0.0
C269 C 0.35862 0.01516 0.9777 0.0
C270 C 0.36613 0.998 0.95279 0.0
C271 C 0.40631 0.012 0.94484 0.0
N272 N 0.46351 0.01928 0.91801 0.0
N273 N 0.49442 0.10288 0.92681 0.0
N274 N 0.48957 0.0155 0.97276 0.0
O275 O 0.66289 0.19684 0.7866 0.0
O276 O 0.62546 0.20124 0.82014 0.0
C277 C 0.56077 0.25681 0.84508 0.0
O278 O 0.54773 0.22354 0.83163 0.0
O279 O 0.5837 0.26212 0.86663 0.0
C280 C 0.6805 0.22447 0.88994 0.0
O281 O 0.65006 0.22966 0.88958 0.0
O282 O 0.68449 0.20181 0.87147 0.0
C283 C 0.46889 0.08733 -0.00186 0.0
O284 O 0.47062 0.10696 0.02213 0.0
O285 O 0.55624 0.12463 0.85281 0.0
O286 O 0.59477 0.1007 0.83577 0.0
C287 C 0.42237 0.99931 0.92032 0.0
O288 O 0.39889 0.97352 0.90047 0.0
C289 C 0.48419 0.01691 0.89266 0.0
C290 C 0.50193 0.04991 0.87422 0.0
C291 C 0.53025 0.05376 0.85352 0.0
C292 C 0.53397 0.01974 0.8469 0.0
C293 C 0.51106 0.98311 0.86236 0.0
C294 C 0.48761 0.98275 0.88644 0.0
C295 C 0.64346 0.21331 0.79584 0.0
O296 O 0.55005 0.16498 0.90887 0.0
C297 C 0.56089 0.09514 0.84464 0.0
C298 C 0.54297 0.11896 -0.00543 0.0
C299 C 0.56789 0.10482 0.00535 0.0
C300 C 0.60625 0.13162 0.01591 0.0
C301 C 0.61941 0.17265 0.0172 0.0
C302 C 0.59356 0.18701 0.00872 0.0
C303 C 0.55612 0.16016 -0.00386 0.0
C304 C 0.52558 0.01685 0.9681 0.0
O305 O 0.53563 0.99343 0.98244 0.0
H306 H 0.61002 0.0486 0.9543 0.0
H307 H 0.65119 0.11396 0.92775 0.0
H308 H 0.61894 0.15317 0.91038 0.0
H309 H 0.4913 0.16511 0.95153 0.0
H310 H 0.38369 0.14559 0.9084 0.0
H311 H 0.43068 0.06709 0.89072 0.0
H312 H 0.3824 0.9236 0.05291 0.0
H313 H 0.49231 0.03205 0.0302 0.0
H314 H 0.42629 0.94283 0.96476 0.0
H315 H 0.3852 0.05815 0.01333 0.0
H316 H 0.32784 1.00483 0.98442 0.0
H317 H 0.3415 0.97466 0.9404 0.0
H318 H 0.49609 0.07428 0.87772 0.0
H319 H 0.5553 0.02201 0.83035 0.0
H320 H 0.47156 0.95612 0.89995 0.0
H321 H 0.55752 0.07314 0.00682 0.0
H322 H 0.64835 0.19237 0.02716 0.0
H323 H 0.53603 0.17083 -0.01071 0.0
C324 C 0.97601 0.50743 0.61945 0.0
C325 C 0.96288 0.53515 0.61491 0.0
C326 C 0.92497 0.52127 0.60134 0.0
C327 C 0.90109 0.48049 0.59283 0.0
C328 C 0.91592 0.45438 0.5981 0.0
N329 N 0.95201 0.46947 0.61085 0.0
C330 C 0.89743 0.41081 0.59133 0.0
C331 C 0.90958 0.35323 0.59382 0.0
C332 C 0.87813 0.32246 0.61002 0.0
C333 C 0.86669 0.28221 0.60477 0.0
C334 C 0.88646 0.27255 0.5833 0.0
C335 C 0.91768 0.30312 0.56703 0.0
C336 C 0.92925 0.34337 0.57225 0.0
Cd337 Cd 0.82849 0.38767 0.53185 0.0
Cd338 Cd 0.86944 0.50981 0.50369 0.0
C339 C 0.03564 0.47368 0.66436 0.0
C340 C 0.09885 0.47804 0.67798 0.0
C341 C 0.08432 0.46627 0.70651 0.0
C342 C 0.04618 0.4597 0.71472 0.0
C343 C 0.02189 0.46363 0.69342 0.0
C344 C 0.07445 0.48167 0.6569 0.0
Co345 Co 0.96761 0.43324 0.62135 0.0
N346 N 0.93391 0.41527 0.65654 0.0
N347 N 0.98329 0.39691 0.6317 0.0
C348 C 0.96608 0.37488 0.65551 0.0
C349 C 0.97748 0.34698 0.66423 0.0
C350 C 1.0067 0.34379 0.64718 0.0
C351 C 0.02397 0.36835 0.62221 0.0
C352 C 1.01124 0.39569 0.61494 0.0
N353 N 1.00465 0.44602 0.58825 0.0
N354 N 0.9211 0.39446 0.59881 0.0
N355 N 1.01081 0.47725 0.64253 0.0
O356 O 0.83667 0.47518 0.45999 0.0
O357 O 0.82934 0.42869 0.49068 0.0
C358 C 0.77033 0.30644 0.51131 0.0
O359 O 0.80686 0.31565 0.51598 0.0
O360 O 0.76211 0.33414 0.5161 0.0
C361 C 0.79919 0.44491 0.56156 0.0
O362 O 0.79194 0.40894 0.5642 0.0
O363 O 0.82327 0.46709 0.54171 0.0
C364 C 0.93749 0.38492 0.66955 0.0
O365 O 0.91902 0.36799 0.69417 0.0
O366 O 0.90167 0.4397 0.52245 0.0
O367 O 0.9284 0.50335 0.50752 0.0
C368 C 0.02381 0.42404 0.59017 0.0
O369 O 0.0489 0.42551 0.56991 0.0
C370 C 1.00818 0.47023 0.56327 0.0
C371 C 0.97499 0.457 0.54526 0.0
C372 C 0.97304 0.48229 0.52435 0.0
C373 C 1.00845 0.51888 0.51756 0.0
C374 C 0.0449 0.53069 0.53277 0.0
C375 C 0.04382 0.50668 0.55674 0.0
C376 C 0.82046 0.43811 0.46629 0.0
O377 O 0.85912 0.38819 0.581 0.0
C378 C 0.93238 0.47364 0.5152 0.0
C379 C 0.90907 0.43045 0.66836 0.0
C380 C 0.9263 0.47081 0.67707 0.0
C381 C 0.90256 0.48568 0.68853 0.0
C382 C 0.86146 0.46003 0.69291 0.0
C383 C 0.84422 0.41882 0.68707 0.0
C384 C 0.86784 0.40421 0.67411 0.0
C385 C 1.01086 0.51233 0.63667 0.0
O386 O 0.03585 0.54636 0.64968 0.0
H387 H 0.98051 0.56598 0.62232 0.0
H388 H 0.91385 0.54193 0.59779 0.0
H389 H 0.87219 0.46988 0.58276 0.0
H390 H 0.86262 0.32962 0.62668 0.0
H391 H 0.87754 0.24141 0.57922 0.0
H392 H 0.95319 0.36664 0.55928 0.0
H393 H 0.10401 0.46486 0.72291 0.0
H394 H 0.99256 0.45904 0.69946 0.0
H395 H 0.08563 0.49104 0.63487 0.0
H396 H 0.96451 0.32844 0.68345 0.0
H397 H 1.01601 0.32239 0.65336 0.0
H398 H 0.0463 0.36595 0.60917 0.0
H399 H 0.94923 0.4277 0.54915 0.0
H400 H 1.00742 0.53858 0.50102 0.0
H401 H 0.07044 0.51574 0.56994 0.0
H402 H 0.95828 0.49076 0.67651 0.0
H403 H 0.84391 0.47182 0.70307 0.0
H404 H 0.8546 0.37233 0.66958 0.0
C405 C 0.52256 0.47143 0.28606 0.0
C406 C 0.49605 0.43038 0.28132 0.0
C407 C 0.51165 0.40756 0.26812 0.0
C408 C 0.55291 0.42579 0.26024 0.0
C409 C 0.57771 0.46687 0.2657 0.0
N410 N 0.56101 0.48673 0.27791 0.0
C411 C 0.62153 0.49307 0.25999 0.0
C412 C 0.67775 0.56331 0.26328 0.0
C413 C 0.70823 0.5628 0.27992 0.0
C414 C 0.74859 0.59203 0.27532 0.0
C415 C 0.75869 0.62176 0.25405 0.0
C416 C 0.72845 0.62228 0.23735 0.0
C417 C 0.68808 0.59316 0.24192 0.0
Cd418 Cd 0.65046 0.45209 0.20207 0.0
Cd419 Cd 0.57346 0.39994 0.15826 0.0
C420 C 0.55223 0.56457 0.33017 0.0
C421 C 0.55105 0.62566 0.3414 0.0
C422 C 0.56148 0.6233 0.37038 0.0
C423 C 0.56575 0.59088 0.37989 0.0
C424 C 0.56092 0.56132 0.35956 0.0
C425 C 0.5464 0.59622 0.3213 0.0
Co426 Co 0.59573 0.53873 0.28892 0.0
N427 N 0.61306 0.52351 0.32457 0.0
N428 N 0.63055 0.5909 0.29977 0.0
C429 C 0.65166 0.59608 0.32408 0.0
C430 C 0.67845 0.63546 0.33314 0.0
C431 C 0.68153 0.6676 0.3159 0.0
C432 C 0.65796 0.65994 0.29039 0.0
C433 C 0.63172 0.61979 0.2828 0.0
N434 N 0.58329 0.56256 0.25552 0.0
N435 N 0.63646 0.53285 0.26735 0.0
N436 N 0.55009 0.53608 0.30907 0.0
O437 O 0.639 0.43556 0.13383 0.0
O438 O 0.63866 0.39753 0.16882 0.0
C439 C 0.73599 0.48674 0.18895 0.0
O440 O 0.71466 0.49739 0.17415 0.0
O441 O 0.719 0.46481 0.21115 0.0
C442 C 0.58425 0.35824 0.22407 0.0
O443 O 0.61826 0.38925 0.22921 0.0
O444 O 0.56392 0.35661 0.20152 0.0
C445 C 0.64208 0.55767 0.33813 0.0
O446 O 0.65854 0.5564 0.36299 0.0
O447 O 0.59894 0.47256 0.18935 0.0
O448 O 0.54467 0.44189 0.16208 0.0
C449 C 0.60446 0.60365 0.25754 0.0
O450 O 0.60321 0.62702 0.23702 0.0
C451 C 0.56065 0.54183 0.2301 0.0
C452 C 0.57637 0.52407 0.21224 0.0
C453 C 0.55395 0.4986 0.18962 0.0
C454 C 0.51699 0.49611 0.18181 0.0
C455 C 0.50225 0.51809 0.19753 0.0
C456 C 0.52398 0.53987 0.22256 0.0
C457 C 0.64473 0.40742 0.14212 0.0
O458 O 0.64571 0.47847 0.25112 0.0
C459 C 0.56766 0.4713 0.17809 0.0
C460 C 0.59965 0.48351 0.3357 0.0
C461 C 0.55918 0.45816 0.34364 0.0
C462 C 0.54613 0.41962 0.35456 0.0
C463 C 0.57364 0.40645 0.35915 0.0
C464 C 0.61482 0.43261 0.35402 0.0
C465 C 0.62763 0.47075 0.34155 0.0
C466 C 0.51589 0.50034 0.30315 0.0
O467 O 0.48112 0.49017 0.31566 0.0
H468 H 0.46488 0.41615 0.28834 0.0
H469 H 0.49195 0.37566 0.26445 0.0
H470 H 0.56484 0.40834 0.25056 0.0
H471 H 0.70076 0.53985 0.29638 0.0
H472 H 0.78993 0.64431 0.25047 0.0
H473 H 0.6651 0.5937 0.22856 0.0
H474 H 0.56373 0.64557 0.38603 0.0
H475 H 0.56424 0.53612 0.36648 0.0
H476 H 0.53828 0.59784 0.29889 0.0
H477 H 0.69626 0.64131 0.35274 0.0
H478 H 0.70207 0.69837 0.32233 0.0
H479 H 0.66025 0.68446 0.27722 0.0
H480 H 0.606 0.52887 0.217 0.0
H481 H 0.49951 0.4767 0.16398 0.0
H482 H 0.51314 0.55592 0.2358 0.0
H483 H 0.53773 0.46841 0.34282 0.0
H484 H 0.56314 0.3771 0.3689 0.0
H485 H 0.65946 0.49106 0.33755 0.0
H486 H 0.20502 0.71871 0.06684 0.0
H487 H 0.41269 0.86823 -0.0085 0.0
H488 H 0.30341 0.69492 0.05708 0.0
H489 H 0.31917 0.89568 0.01221 0.0
H490 H 0.36475 0.79662 -0.00029 0.0
H491 H 0.23804 0.77434 0.03243 0.0
C492 C 0.23362 0.72519 0.05735 0.0
C493 C 0.25227 0.70315 0.06556 0.0
C494 C 0.35432 0.81811 0.00152 0.0
C495 C 0.29034 0.76695 0.02617 0.0
C496 C 0.38152 0.85885 -0.00348 0.0
C497 C 0.3697 0.88752 0.00167 0.0
C498 C 0.31537 0.80646 0.0118 0.0
C499 C 0.32929 0.87425 0.00838 0.0
C500 C 0.2523 0.75676 0.03751 0.0
C501 C 0.28851 0.71181 0.05178 0.0
N502 N 0.3037 0.83465 0.01384 0.0
N503 N 0.30689 0.74371 0.03319 0.0
H504 H 0.31323 0.49175 0.72924 0.0
H505 H 0.15958 0.55369 0.66595 0.0
H506 H 0.33477 0.6135 0.72883 0.0
H507 H 0.13433 0.4319 0.67873 0.0
H508 H 0.23158 0.57787 0.67354 0.0
H509 H 0.2567 0.4721 0.69611 0.0
C510 C 0.30608 0.5144 0.72204 0.0
C511 C 0.32774 0.55397 0.73252 0.0
C512 C 0.21048 0.54577 0.67376 0.0
C513 C 0.26284 0.53164 0.69476 0.0
C514 C 0.16955 0.532 0.66915 0.0
C515 C 0.14138 0.4909 0.67205 0.0
C516 C 0.22287 0.51808 0.6814 0.0
C517 C 0.15536 0.46387 0.67654 0.0
C518 C 0.27397 0.50324 0.70297 0.0
C519 C 0.31822 0.58246 0.72168 0.0
N520 N 0.19512 0.478 0.68158 0.0
N521 N 0.28579 0.57053 0.70386 0.0
H522 H 0.4154 0.73136 0.3849 0.0
H523 H 0.60074 0.70674 0.33998 0.0
H524 H 0.54061 0.82055 0.39774 0.0
H525 H 0.47696 0.61407 0.32821 0.0
H526 H 0.57882 0.75622 0.34618 0.0
H527 H 0.43638 0.69538 0.35131 0.0
C528 C 0.44722 0.74363 0.38037 0.0
C529 C 0.4764 0.7782 0.3949 0.0
C530 C 0.5564 0.72531 0.34143 0.0
C531 C 0.50052 0.73758 0.35645 0.0
C532 C 0.56904 0.69725 0.33763 0.0
C533 C 0.54045 0.65652 0.33401 0.0
C534 C 0.51486 0.7121 0.34253 0.0
C535 C 0.49974 0.64537 0.33116 0.0
C536 C 0.45918 0.7232 0.36112 0.0
C537 C 0.51714 0.79324 0.3878 0.0
N538 N 0.48793 0.67287 0.33631 0.0
N539 N 0.52798 0.77256 0.36943 0.0
H540 H 0.69817 0.29153 0.92283 0.0
H541 H 0.91088 0.3185 0.96468 0.0
H542 H 0.73483 0.20314 0.90825 0.0
H543 H 0.87877 0.41004 0.97892 0.0
H544 H 0.83978 0.26918 0.95682 0.0
H545 H 0.75701 0.32888 0.95456 0.0
C546 C 0.71825 0.27971 0.92661 0.0
C547 C 0.71233 0.24486 0.91218 0.0
C548 C 0.84797 0.29979 0.96238 0.0
C549 C 0.77927 0.28708 0.94847 0.0
C550 C 0.88849 0.32775 0.96711 0.0
C551 C 0.90034 0.36815 0.97218 0.0
C552 C 0.81942 0.31273 0.9619 0.0
C553 C 0.87051 0.37899 0.97501 0.0
C554 C 0.75176 0.30096 0.94475 0.0
C555 C 0.7389 0.23054 0.9182 0.0
N556 N 0.83138 0.35161 0.9691 0.0
N557 N 0.7714 0.25193 0.93555 0.0
H558 H 0.81962 0.52325 0.56835 0.0
H559 H 0.70759 0.58878 0.64079 0.0
H560 H 0.7352 0.40341 0.59896 0.0
H561 H 0.61119 0.46809 0.62418 0.0
H562 H 0.75655 0.56557 0.63479 0.0
H563 H 0.7831 0.54923 0.5956 0.0
C564 C 0.79371 0.50247 0.58125 0.0
C565 C 0.77993 0.46104 0.58096 0.0
C566 C 0.72468 0.5441 0.63267 0.0
C567 C 0.73838 0.49074 0.61292 0.0
C568 C 0.69693 0.55725 0.63646 0.0
C569 C 0.65581 0.53016 0.63273 0.0
C570 C 0.71086 0.50396 0.62436 0.0
C571 C 0.64292 0.48963 0.62716 0.0
C572 C 0.77318 0.51745 0.59724 0.0
C573 C 0.7465 0.43554 0.59832 0.0
N574 N 0.67048 0.47777 0.62269 0.0
N575 N 0.72625 0.45072 0.61314 0.0
H576 H 0.62535 0.3393 0.26428 0.0
H577 H 0.43274 0.12453 0.29445 0.0
H578 H 0.50572 0.29924 0.23109 0.0
H579 H 0.55424 0.15353 0.31456 0.0
H580 H 0.45682 0.19592 0.28547 0.0
H581 H 0.59793 0.27864 0.2948 0.0
C582 C 0.59325 0.31799 0.26366 0.0
C583 C 0.56788 0.32381 0.2446 0.0
C584 C 0.47814 0.18692 0.29259 0.0
C585 C 0.53633 0.25483 0.27972 0.0
C586 C 0.46428 0.14629 0.29805 0.0
C587 C 0.49168 0.13341 0.30498 0.0
C588 C 0.51977 0.2146 0.29355 0.0
C589 C 0.53227 0.16251 0.30924 0.0
C590 C 0.57764 0.28346 0.28114 0.0
C591 C 0.52653 0.29548 0.24492 0.0
N592 N 0.54535 0.20178 0.30276 0.0
N593 N 0.51213 0.2621 0.26198 0.0
H594 H 0.47841 0.52158 0.14137 0.0
H595 H 0.27444 0.52139 0.18545 0.0
H596 H 0.44058 0.51642 0.2308 0.0
H597 H 0.33256 0.56098 0.10161 0.0
H598 H 0.32963 0.51038 0.20128 0.0
H599 H 0.41989 0.5264 0.12545 0.0
C600 C 0.45767 0.52105 0.15773 0.0
C601 C 0.46496 0.51876 0.1876 0.0
C602 C 0.33019 0.52127 0.17936 0.0
C603 C 0.39728 0.52451 0.16928 0.0
C604 C 0.29851 0.52736 0.17023 0.0
C605 C 0.29861 0.54215 0.14207 0.0
C606 C 0.36217 0.52943 0.16013 0.0
C607 C 0.33102 0.54963 0.1235 0.0
C608 C 0.4243 0.52413 0.14857 0.0
C609 C 0.43684 0.5187 0.2076 0.0
N610 N 0.36121 0.54311 0.13278 0.0
N611 N 0.40441 0.52146 0.19811 0.0
H612 H 0.51344 0.75541 0.85189 0.0
H613 H 0.50858 0.95557 0.8068 0.0
H614 H 0.46717 0.76996 0.7698 0.0
H615 H 0.51397 0.92481 0.89663 0.0
H616 H 0.50487 0.89264 0.79157 0.0
H617 H 0.52473 0.82184 0.8672 0.0
C618 C 0.50603 0.77267 0.83696 0.0
C619 C 0.48924 0.75687 0.80948 0.0
C620 C 0.507 0.89966 0.81462 0.0
C621 C 0.50226 0.83312 0.82688 0.0
C622 C 0.50943 0.93583 0.82336 0.0
C623 C 0.51139 0.94567 0.85311 0.0
C624 C 0.50701 0.87295 0.83566 0.0
C625 C 0.51194 0.91839 0.87349 0.0
C626 C 0.51229 0.81051 0.84579 0.0
C627 C 0.48006 0.78069 0.79118 0.0
N628 N 0.50984 0.88341 0.86441 0.0
N629 N 0.48674 0.81744 0.80015 0.0
H630 H 0.10495 0.59029 0.56695 0.0
H631 H 0.25812 0.69777 0.43384 0.0
H632 H 0.07329 0.55568 0.4771 0.0
H633 H 0.27336 0.75715 0.51659 0.0
H634 H 0.19257 0.64314 0.45047 0.0
H635 H 0.16856 0.64882 0.55042 0.0
C636 C 0.1113 0.59485 0.54377 0.0
C637 C 0.08345 0.56765 0.52345 0.0
C638 C 0.21006 0.6682 0.46498 0.0
C639 C 0.15673 0.63479 0.50433 0.0
C640 C 0.24764 0.69952 0.45548 0.0
C641 C 0.27153 0.73245 0.47372 0.0
C642 C 0.19611 0.66901 0.49327 0.0
C643 C 0.25605 0.73264 0.50163 0.0
C644 C 0.14758 0.62849 0.53434 0.0
C645 C 0.09344 0.57574 0.49365 0.0
N646 N 0.21965 0.70135 0.51062 0.0
N647 N 0.12916 0.60811 0.48509 0.0
H648 H 0.53416 0.46963 0.83669 0.0
H649 H 0.5279 0.26343 0.79304 0.0
H650 H 0.52755 0.43234 0.74709 0.0
H651 H 0.57341 0.32409 0.87518 0.0
H652 H 0.5178 0.31916 0.77709 0.0
H653 H 0.53826 0.41073 0.85222 0.0
C654 C 0.53319 0.44891 0.82021 0.0
C655 C 0.53062 0.4564 0.79043 0.0
C656 C 0.52985 0.32015 0.79864 0.0
C657 C 0.5355 0.38824 0.80831 0.0
C658 C 0.53543 0.2882 0.80785 0.0
C659 C 0.55159 0.28887 0.83556 0.0
C660 C 0.53993 0.35292 0.81738 0.0
C661 C 0.56095 0.32208 0.85364 0.0
C662 C 0.53584 0.41531 0.82915 0.0
C663 C 0.53 0.42834 0.77024 0.0
N664 N 0.55491 0.35249 0.84431 0.0
N665 N 0.5323 0.39558 0.77952 0.0
H666 H 0.77027 0.23361 0.50785 0.0
H667 H 0.54468 0.11525 0.44267 0.0
H668 H 0.69603 0.28664 0.49054 0.0
H669 H 0.60829 0.05313 0.46702 0.0
H670 H 0.60264 0.17851 0.45772 0.0
H671 H 0.71439 0.16794 0.49127 0.0
C672 C 0.74245 0.2316 0.50046 0.0
C673 C 0.73807 0.26598 0.50068 0.0
C674 C 0.60417 0.15116 0.45978 0.0
C675 C 0.67396 0.19086 0.48157 0.0
C676 C 0.57096 0.11477 0.45088 0.0
C677 C 0.57113 0.07827 0.4533 0.0
C678 C 0.63853 0.15183 0.47136 0.0
C679 C 0.60625 0.08018 0.4649 0.0
C680 C 0.71049 0.19404 0.49108 0.0
C681 C 0.70107 0.26124 0.49097 0.0
N682 N 0.63842 0.1162 0.47343 0.0
N683 N 0.67084 0.22477 0.48186 0.0
H684 H 0.98428 0.57035 0.12867 0.0
H685 H 0.76426 0.43481 0.19416 0.0
H686 H 0.91756 0.44119 0.11932 0.0
H687 H 0.79774 0.55171 0.15881 0.0
H688 H 0.82626 0.44073 0.1742 0.0
H689 H 0.92222 0.56831 0.14613 0.0
C690 C 0.95665 0.54159 0.13018 0.0
C691 C 0.95632 0.50582 0.12247 0.0
C692 C 0.8203 0.46527 0.17094 0.0
C693 C 0.88537 0.50334 0.14295 0.0
C694 C 0.785 0.46211 0.18257 0.0
C695 C 0.77575 0.49294 0.1784 0.0
C696 C 0.84758 0.50003 0.15551 0.0
C697 C 0.80365 0.52724 0.16263 0.0
C698 C 0.92122 0.54053 0.14003 0.0
C699 C 0.91939 0.46954 0.12476 0.0
N700 N 0.83854 0.5301 0.15203 0.0
N701 N 0.88577 0.4692 0.1351 0.0
H702 H 0.05032 0.40598 0.75206 0.0
H703 H 1.01257 0.50131 0.89574 0.0
H704 H 1.01632 0.49756 0.74903 0.0
H705 H 1.00498 0.38529 0.89566 0.0
H706 H 0.02255 0.50523 0.84255 0.0
H707 H 0.04014 0.40122 0.80508 0.0
C708 C 0.04028 0.42478 0.76254 0.0
C709 C 0.03416 0.45223 0.74608 0.0
C710 C 0.01903 0.47906 0.8542 0.0
C711 C 0.02325 0.44753 0.8069 0.0
C712 C 1.01388 0.47709 0.88456 0.0
C713 C 1.00821 0.44306 0.90005 0.0
C714 C 0.01906 0.447 0.83929 0.0
C715 C 1.00936 0.41209 0.88447 0.0
C716 C 0.03456 0.42211 0.79281 0.0
C717 C 0.02107 0.47579 0.76081 0.0
N718 N 1.01473 0.41482 0.85498 0.0
N719 N 1.01649 0.47323 0.7904 0.0
H720 H 0.62115 0.64859 0.41627 0.0
H721 H 0.52355 0.52051 0.56192 0.0
H722 H 0.52422 0.52523 0.41547 0.0
H723 H 0.64309 0.62427 0.55957 0.0
H724 H 0.51799 0.52715 0.50902 0.0
H725 H 0.62574 0.64451 0.46943 0.0
C726 C 0.60107 0.62053 0.4273 0.0
C727 C 0.5723 0.58715 0.41145 0.0
C728 C 0.54528 0.5487 0.52014 0.0
C729 C 0.57682 0.58252 0.4723 0.0
C730 C 0.54823 0.54521 0.55033 0.0
C731 C 0.58379 0.57192 0.56503 0.0
C732 C 0.57795 0.57942 0.50463 0.0
C733 C 0.61518 0.60306 0.54895 0.0
C734 C 0.60364 0.61826 0.45761 0.0
C735 C 0.54706 0.55153 0.42682 0.0
N736 N 0.61156 0.60596 0.51963 0.0
N737 N 0.54965 0.55026 0.45641 0.0
H738 H 0.42344 0.96614 0.23569 0.0
H739 H 0.46972 0.054 0.07225 0.0
H740 H 0.50503 0.09137 0.21549 0.0
H741 H 0.42121 0.92795 0.09238 0.0
H742 H 0.47735 0.06859 0.12477 0.0
H743 H 0.4165 0.95138 0.18315 0.0
C744 C 0.43999 0.99049 0.22034 0.0
C745 C 0.46446 0.03015 0.23025 0.0
C746 C 0.46496 0.03773 0.11759 0.0
C747 C 0.45622 0.01357 0.16999 0.0
C748 C 0.46078 0.0294 0.08756 0.0
C749 C 0.44434 0.98959 0.07759 0.0
C750 C 0.45245 1.00605 0.13789 0.0
C751 C 0.433 0.95901 0.09876 0.0
C752 C 0.43587 0.9821 0.19032 0.0
C753 C 0.48493 0.06048 0.20909 0.0
N754 N 0.43705 0.96783 0.12773 0.0
N755 N 0.48017 0.05162 0.18014 0.0
H756 H 0.20586 0.5548 0.91873 0.0
H757 H 0.41039 0.60992 0.90672 0.0
H758 H 0.27161 0.66197 0.97083 0.0
H759 H 0.36006 0.62956 0.82863 0.0
H760 H 0.36946 0.62964 0.9361 0.0
H761 H 0.267 0.57433 0.89017 0.0
C762 C 0.23342 0.58216 0.92437 0.0
C763 C 0.23412 0.60658 0.94731 0.0
C764 C 0.36905 0.63172 0.91252 0.0
C765 C 0.3035 0.62918 0.91462 0.0
C766 C 0.39244 0.62064 0.89578 0.0
C767 C 0.38797 0.61772 0.86538 0.0
C768 C 0.34026 0.6382 0.89856 0.0
C769 C 0.36406 0.63135 0.8521 0.0
C770 C 0.26789 0.59357 0.90783 0.0
C771 C 0.27032 0.64227 0.95342 0.0
N772 N 0.3395 0.63924 0.86886 0.0
N773 N 0.30416 0.65232 0.9374 0.0
H774 H 0.42056 0.80498 0.57077 0.0
H775 H 0.47314 0.65161 0.58464 0.0
H776 H 0.39937 0.7314 0.49455 0.0
H777 H 0.37167 0.62051 0.64149 0.0
H778 H 0.45381 0.69247 0.55515 0.0
H779 H 0.40227 0.74605 0.60173 0.0
C780 C 0.40983 0.77587 0.56061 0.0
C781 C 0.41179 0.77282 0.53023 0.0
C782 C 0.43575 0.67655 0.57405 0.0
C783 C 0.39301 0.70661 0.56518 0.0
C784 C 0.44711 0.65395 0.59109 0.0
C785 C 0.42423 0.63336 0.61562 0.0
C786 C 0.40181 0.67929 0.58194 0.0
C787 C 0.3902 0.63653 0.62283 0.0
C788 C 0.3996 0.7424 0.57825 0.0
C789 C 0.39824 0.73476 0.51796 0.0
N790 N 0.38027 0.65988 0.60626 0.0
N791 N 0.39114 0.70333 0.53554 0.0
H792 H 0.23236 0.61724 0.23903 0.0
H793 H 0.37025 0.82345 0.25237 0.0
H794 H 0.30022 0.67204 0.16069 0.0
H795 H 0.42397 0.7648 0.29981 0.0
H796 H 0.33026 0.76161 0.22447 0.0
H797 H 0.29248 0.66015 0.2681 0.0
C798 C 0.26063 0.63657 0.22792 0.0
C799 C 0.26149 0.64173 0.19758 0.0
C800 C 0.35086 0.76242 0.24104 0.0
C801 C 0.329 0.6916 0.23046 0.0
C802 C 0.37305 0.79726 0.25723 0.0
C803 C 0.39991 0.79885 0.27858 0.0
C804 C 0.35497 0.72871 0.24656 0.0
C805 C 0.40318 0.76436 0.28361 0.0
C806 C 0.29478 0.66114 0.2445 0.0
C807 C 0.29851 0.66745 0.18411 0.0
N808 N 0.38037 0.73013 0.26791 0.0
N809 N 0.33049 0.693 0.20074 0.0
H810 H 0.59716 0.3267 0.14567 0.0
H811 H 0.66537 0.25943 0.00838 0.0
H812 H 0.68294 0.42138 0.08942 0.0
H813 H 0.5401 0.20457 0.03407 0.0
H814 H 0.67998 0.31839 0.03848 0.0
H815 H 0.58447 0.27786 0.10719 0.0
C816 C 0.61382 0.33701 0.12534 0.0
C817 C 0.64116 0.37784 0.12051 0.0
C818 C 0.64922 0.29374 0.0367 0.0
C819 C 0.6267 0.32249 0.07664 0.0
C820 C 0.64086 0.26023 0.01967 0.0
C821 C 0.60159 0.22685 0.01906 0.0
C822 C 0.61818 0.29304 0.05345 0.0
C823 C 0.5708 0.22951 0.03379 0.0
C824 C 0.6062 0.30933 0.10334 0.0
C825 C 0.66159 0.38994 0.09369 0.0
N826 N 0.57995 0.26163 0.05093 0.0
N827 N 0.65421 0.36215 0.0726 0.0
H828 H 0.67619 0.28811 0.81842 0.0
H829 H 0.76974 0.40937 0.67388 0.0
H830 H 0.62725 0.22074 0.73923 0.0
H831 H 0.83028 0.36734 0.73118 0.0
H832 H 0.70591 0.36651 0.7008 0.0
H833 H 0.71895 0.34816 0.78907 0.0
C834 C 0.67241 0.28665 0.79492 0.0
C835 C 0.64895 0.24957 0.78102 0.0
C836 C 0.73341 0.36715 0.70735 0.0
C837 C 0.69722 0.31745 0.74773 0.0
C838 C 0.76939 0.39094 0.69195 0.0
C839 C 0.80474 0.3909 0.70011 0.0
C840 C 0.73382 0.34494 0.73153 0.0
C841 C 0.80337 0.36741 0.72394 0.0
C842 C 0.69703 0.32077 0.77823 0.0
C843 C 0.6455 0.24894 0.75054 0.0
N844 N 0.7685 0.34551 0.73894 0.0
N845 N 0.67042 0.28226 0.73472 0.0
H846 H 0.66632 0.47311 0.3974 0.0
H847 H 0.82133 0.42637 0.40804 0.0
H848 H 0.62821 0.36978 0.34161 0.0
H849 H 0.74307 0.3892 0.48322 0.0
H850 H 0.76316 0.40954 0.37675 0.0
H851 H 0.70977 0.45404 0.42396 0.0
C852 C 0.66769 0.44677 0.39051 0.0
C853 C 0.64428 0.42321 0.36718 0.0
C854 C 0.75843 0.40297 0.3999 0.0
C855 C 0.69322 0.4012 0.39749 0.0
C856 C 0.79148 0.41233 0.41773 0.0
C857 C 0.78681 0.4094 0.44816 0.0
C858 C 0.72116 0.39191 0.41289 0.0
C859 C 0.74776 0.39181 0.45981 0.0
C860 C 0.69186 0.43564 0.40585 0.0
C861 C 0.6463 0.38877 0.35939 0.0
N862 N 0.71652 0.38542 0.44224 0.0
N863 N 0.67102 0.37895 0.37433 0.0
loop_
_geom_bond_atom_site_label_1
_geom_bond_atom_site_label_2
_geom_bond_distance
_geom_bond_site_symmetry_2
_ccdc_geom_bond_type
C0 C1 1.359 . S
C0 N5 1.330 . S
C0 C61 1.504 . S
C1 C0 1.359 . S
C1 C2 1.366 . S
C1 H63 0.929 1_554 S
C2 C1 1.366 . S
C2 C3 1.415 . S
C2 H64 0.932 . S
C3 C2 1.415 . S
C3 C4 1.366 . S
C3 H65 0.931 . S
C4 C3 1.366 . S
C4 N5 1.325 . S
C4 C6 1.516 . S
N5 C0 1.330 . S
N5 C4 1.325 . S
N5 Co21 1.869 . S
C6 C4 1.516 . S
C6 N30 1.316 . S
C6 O53 1.263 . S
C7 C8 1.421 . S
C7 C12 1.360 . S
C7 N30 1.436 . S
C8 C7 1.421 . S
C8 C9 1.379 . S
C8 H66 0.929 . S
C9 C8 1.379 . S
C9 C10 1.417 . S
C10 C9 1.417 . S
C10 C11 1.352 . S
C10 H67 0.929 . S
C11 C10 1.352 . S
C11 C12 1.393 . S
C12 C7 1.360 . S
C12 C11 1.393 . S
C12 H68 0.931 . S
Cd13 O33 2.329 . S
Cd13 O35 2.350 . S
Cd13 O36 2.277 . S
Cd13 O38 2.173 . S
Cd13 O42 2.263 . S
Cd13 O53 2.366 . S
Cd14 O32 2.352 . S
Cd14 O39 2.250 . S
Cd14 O43 2.308 . S
C15 C19 1.403 . S
C15 C20 1.370 1_456 S
C15 N31 1.423 1_556 S
C16 C17 1.389 . S
C16 C20 1.389 1_556 S
C17 C16 1.389 . S
C17 C18 1.379 . S
C17 H69 0.929 . S
C18 C17 1.379 . S
C18 C19 1.405 1_655 S
C19 C15 1.403 . S
C19 C18 1.405 1_455 S
C19 H70 0.932 . S
C20 C15 1.370 1_654 S
C20 C16 1.389 1_554 S
C20 H71 0.931 . S
Co21 N5 1.869 . S
Co21 N22 1.955 1_554 S
Co21 N23 1.864 . S
Co21 N29 1.958 . S
Co21 N30 1.953 . S
Co21 N31 1.974 . S
N22 Co21 1.955 1_556 S
N22 C40 1.329 . S
N22 C55 1.432 . S
N23 Co21 1.864 . S
N23 C24 1.327 . S
N23 C28 1.342 . S
C24 N23 1.327 . S
C24 C25 1.407 . S
C24 C40 1.481 1_554 S
C25 C24 1.407 . S
C25 C26 1.364 . S
C25 H72 0.930 1_554 S
C26 C25 1.364 . S
C26 C27 1.390 . S
C26 H73 0.931 . S
C27 C26 1.390 . S
C27 C28 1.346 . S
C27 H74 0.930 1_455 S
C28 N23 1.342 . S
C28 C27 1.346 . S
C28 C44 1.516 . S
N29 Co21 1.958 . S
N29 C44 1.324 . S
N29 C46 1.427 . S
N30 C6 1.316 . S
N30 C7 1.436 . S
N30 Co21 1.953 . S
N31 C15 1.423 1_554 S
N31 Co21 1.974 . S
N31 C61 1.309 . S
O32 Cd14 2.352 . S
O32 C52 1.235 . S
O33 Cd13 2.329 . S
O33 C52 1.270 . S
C34 O35 1.270 . S
C34 O36 1.248 . S
O35 Cd13 2.350 . S
O35 C34 1.270 . S
O36 Cd13 2.277 . S
O36 C34 1.248 . S
C37 O38 1.277 . S
C37 O39 1.230 . S
O38 Cd13 2.173 . S
O38 C37 1.277 . S
O39 Cd14 2.250 . S
O39 C37 1.230 . S
C40 N22 1.329 . S
C40 C24 1.481 1_556 S
C40 O41 1.246 . S
O41 C40 1.246 . S
O42 Cd13 2.263 . S
O42 C54 1.258 . S
O43 Cd14 2.308 . S
O43 C54 1.274 . S
C44 C28 1.516 . S
C44 N29 1.324 . S
C44 O45 1.238 . S
O45 C44 1.238 . S
C46 N29 1.427 . S
C46 C47 1.394 . S
C46 C51 1.395 . S
C47 C46 1.394 . S
C47 C48 1.380 . S
C47 H75 0.929 . S
C48 C47 1.380 . S
C48 C49 1.384 . S
C48 C54 1.495 . S
C49 C48 1.384 . S
C49 C50 1.382 . S
C49 H76 0.930 . S
C50 C49 1.382 . S
C50 C51 1.398 . S
C51 C46 1.395 . S
C51 C50 1.398 . S
C51 H77 0.930 1_455 S
C52 O32 1.235 . S
C52 O33 1.270 . S
O53 C6 1.263 . S
O53 Cd13 2.366 . S
C54 O42 1.258 . S
C54 O43 1.274 . S
C54 C48 1.495 . S
C55 N22 1.432 . S
C55 C56 1.381 . S
C55 C60 1.385 . S
C56 C55 1.381 . S
C56 C57 1.371 . S
C56 H78 0.932 . S
C57 C56 1.371 . S
C57 C58 1.400 . S
C58 C57 1.400 . S
C58 C59 1.351 . S
C58 H79 0.930 . S
C59 C58 1.351 . S
C59 C60 1.388 . S
C60 C55 1.385 . S
C60 C59 1.388 . S
C60 H80 0.929 . S
C61 C0 1.504 . S
C61 N31 1.309 . S
C61 O62 1.257 1_554 S
O62 C61 1.257 1_556 S
H63 C1 0.929 1_556 S
H64 C2 0.932 . S
H65 C3 0.931 . S
H66 C8 0.929 . S
H67 C10 0.929 . S
H68 C12 0.931 . S
H69 C17 0.929 . S
H70 C19 0.932 . S
H71 C20 0.931 . S
H72 C25 0.930 1_556 S
H73 C26 0.931 . S
H74 C27 0.930 1_655 S
H75 C47 0.929 . S
H76 C49 0.930 . S
H77 C51 0.930 1_655 S
H78 C56 0.932 . S
H79 C58 0.930 . S
H80 C60 0.929 . S
C81 C82 1.359 . S
C81 N86 1.330 . S
C81 C142 1.504 . S
C82 C81 1.359 . S
C82 C83 1.366 . S
C82 H144 0.929 . S
C83 C82 1.366 . S
C83 C84 1.415 . S
C83 H145 0.932 . S
C84 C83 1.415 . S
C84 C85 1.366 . S
C84 H146 0.931 . S
C85 C84 1.366 . S
C85 N86 1.325 . S
C85 C87 1.516 . S
N86 C81 1.330 . S
N86 C85 1.325 . S
N86 Co102 1.869 . S
C87 C85 1.516 . S
C87 N111 1.316 . S
C87 O134 1.263 . S
C88 C89 1.421 . S
C88 C93 1.360 . S
C88 N111 1.436 . S
C89 C88 1.421 . S
C89 C90 1.379 . S
C89 H147 0.929 . S
C90 C89 1.379 . S
C90 C91 1.417 . S
C91 C90 1.417 . S
C91 C92 1.352 . S
C91 H148 0.929 . S
C92 C91 1.352 . S
C92 C93 1.393 . S
C93 C88 1.360 . S
C93 C92 1.393 . S
C93 H149 0.931 . S
Cd94 O114 2.329 . S
Cd94 O116 2.350 . S
Cd94 O117 2.277 . S
Cd94 O119 2.173 . S
Cd94 O123 2.263 . S
Cd94 O134 2.366 . S
Cd95 O113 2.352 . S
Cd95 O120 2.250 . S
Cd95 O124 2.308 . S
C96 C100 1.403 . S
C96 C101 1.370 . S
C96 N112 1.423 . S
C97 C98 1.389 . S
C97 C101 1.389 . S
C98 C97 1.389 . S
C98 C99 1.379 . S
C98 H150 0.929 . S
C99 C98 1.379 . S
C99 C100 1.405 . S
C100 C96 1.403 . S
C100 C99 1.405 . S
C100 H151 0.932 . S
C101 C96 1.370 . S
C101 C97 1.389 . S
C101 H152 0.931 . S
Co102 N86 1.869 . S
Co102 N103 1.955 . S
Co102 N104 1.864 . S
Co102 N110 1.958 . S
Co102 N111 1.953 . S
Co102 N112 1.974 . S
N103 Co102 1.955 . S
N103 C121 1.329 . S
N103 C136 1.432 . S
N104 Co102 1.864 . S
N104 C105 1.327 . S
N104 C109 1.342 . S
C105 N104 1.327 . S
C105 C106 1.407 . S
C105 C121 1.481 . S
C106 C105 1.407 . S
C106 C107 1.364 . S
C106 H153 0.930 . S
C107 C106 1.364 . S
C107 C108 1.390 . S
C107 H154 0.931 . S
C108 C107 1.390 . S
C108 C109 1.346 . S
C108 H155 0.930 . S
C109 N104 1.342 . S
C109 C108 1.346 . S
C109 C125 1.516 . S
N110 Co102 1.958 . S
N110 C125 1.324 . S
N110 C127 1.427 . S
N111 C87 1.316 . S
N111 C88 1.436 . S
N111 Co102 1.953 . S
N112 C96 1.423 . S
N112 Co102 1.974 . S
N112 C142 1.309 . S
O113 Cd95 2.352 . S
O113 C133 1.235 . S
O114 Cd94 2.329 . S
O114 C133 1.270 . S
C115 O116 1.270 . S
C115 O117 1.248 . S
O116 Cd94 2.350 . S
O116 C115 1.270 . S
O117 Cd94 2.277 . S
O117 C115 1.248 . S
C118 O119 1.277 . S
C118 O120 1.230 . S
O119 Cd94 2.173 . S
O119 C118 1.277 . S
O120 Cd95 2.250 . S
O120 C118 1.230 . S
C121 N103 1.329 . S
C121 C105 1.481 . S
C121 O122 1.246 . S
O122 C121 1.246 . S
O123 Cd94 2.263 . S
O123 C135 1.258 . S
O124 Cd95 2.308 . S
O124 C135 1.274 . S
C125 C109 1.516 . S
C125 N110 1.324 . S
C125 O126 1.238 . S
O126 C125 1.238 . S
C127 N110 1.427 . S
C127 C128 1.394 . S
C127 C132 1.395 . S
C128 C127 1.394 . S
C128 C129 1.380 . S
C128 H156 0.929 . S
C129 C128 1.380 . S
C129 C130 1.384 . S
C129 C135 1.495 . S
C130 C129 1.384 . S
C130 C131 1.382 . S
C130 H157 0.930 . S
C131 C130 1.382 . S
C131 C132 1.398 . S
C132 C127 1.395 . S
C132 C131 1.398 . S
C132 H158 0.930 . S
C133 O113 1.235 . S
C133 O114 1.270 . S
O134 C87 1.263 . S
O134 Cd94 2.366 . S
C135 O123 1.258 . S
C135 O124 1.274 . S
C135 C129 1.495 . S
C136 N103 1.432 . S
C136 C137 1.381 . S
C136 C141 1.385 . S
C137 C136 1.381 . S
C137 C138 1.371 . S
C137 H159 0.932 . S
C138 C137 1.371 . S
C138 C139 1.400 . S
C139 C138 1.400 . S
C139 C140 1.351 . S
C139 H160 0.930 . S
C140 C139 1.351 . S
C140 C141 1.388 . S
C141 C136 1.385 . S
C141 C140 1.388 . S
C141 H161 0.929 . S
C142 C81 1.504 . S
C142 N112 1.309 . S
C142 O143 1.258 . S
O143 C142 1.258 . S
H144 C82 0.929 . S
H145 C83 0.932 . S
H146 C84 0.931 . S
H147 C89 0.929 . S
H148 C91 0.929 . S
H149 C93 0.931 . S
H150 C98 0.929 . S
H151 C100 0.932 . S
H152 C101 0.931 . S
H153 C106 0.930 . S
H154 C107 0.931 . S
H155 C108 0.930 . S
H156 C128 0.929 . S
H157 C130 0.930 . S
H158 C132 0.930 . S
H159 C137 0.932 . S
H160 C139 0.930 . S
H161 C141 0.929 . S
C162 C163 1.359 . S
C162 N167 1.330 . S
C162 C223 1.504 . S
C163 C162 1.359 . S
C163 C164 1.366 . S
C163 H225 0.929 . S
C164 C163 1.366 . S
C164 C165 1.415 . S
C164 H226 0.932 . S
C165 C164 1.415 . S
C165 C166 1.366 . S
C165 H227 0.931 . S
C166 C165 1.366 . S
C166 N167 1.325 . S
C166 C168 1.516 . S
N167 C162 1.330 . S
N167 C166 1.325 . S
N167 Co183 1.869 . S
C168 C166 1.516 . S
C168 N192 1.316 . S
C168 O215 1.263 . S
C169 C170 1.421 . S
C169 C174 1.360 . S
C169 N192 1.436 . S
C170 C169 1.421 . S
C170 C171 1.379 . S
C170 H228 0.929 . S
C171 C170 1.379 . S
C171 C172 1.417 . S
C172 C171 1.417 . S
C172 C173 1.352 . S
C172 H229 0.929 . S
C173 C172 1.352 . S
C173 C174 1.393 . S
C174 C169 1.360 . S
C174 C173 1.393 . S
C174 H230 0.931 . S
Cd175 O195 2.329 . S
Cd175 O197 2.350 . S
Cd175 O198 2.277 . S
Cd175 O200 2.173 . S
Cd175 O204 2.263 . S
Cd175 O215 2.366 . S
Cd176 O194 2.352 . S
Cd176 O201 2.250 . S
Cd176 O205 2.308 . S
C177 C181 1.403 . S
C177 C182 1.370 1_565 S
C177 N193 1.423 . S
C178 C179 1.389 . S
C178 C182 1.389 . S
C179 C178 1.389 . S
C179 C180 1.379 . S
C179 H231 0.929 . S
C180 C179 1.379 . S
C180 C181 1.405 1_545 S
C181 C177 1.403 . S
C181 C180 1.405 1_565 S
C181 H232 0.932 . S
C182 C177 1.370 1_545 S
C182 C178 1.389 . S
C182 H233 0.931 . S
Co183 N167 1.869 . S
Co183 N184 1.955 . S
Co183 N185 1.864 . S
Co183 N191 1.958 . S
Co183 N192 1.953 . S
Co183 N193 1.974 . S
N184 Co183 1.955 . S
N184 C202 1.329 . S
N184 C217 1.432 . S
N185 Co183 1.864 . S
N185 C186 1.327 . S
N185 C190 1.342 . S
C186 N185 1.327 . S
C186 C187 1.407 . S
C186 C202 1.481 . S
C187 C186 1.407 . S
C187 C188 1.364 . S
C187 H234 0.930 . S
C188 C187 1.364 . S
C188 C189 1.390 . S
C188 H235 0.931 . S
C189 C188 1.390 . S
C189 C190 1.346 . S
C189 H236 0.930 1_565 S
C190 N185 1.342 . S
C190 C189 1.346 . S
C190 C206 1.516 . S
N191 Co183 1.958 . S
N191 C206 1.324 . S
N191 C208 1.427 . S
N192 C168 1.316 . S
N192 C169 1.436 . S
N192 Co183 1.953 . S
N193 C177 1.423 . S
N193 Co183 1.974 . S
N193 C223 1.309 . S
O194 Cd176 2.352 . S
O194 C214 1.235 . S
O195 Cd175 2.329 . S
O195 C214 1.270 . S
C196 O197 1.270 . S
C196 O198 1.248 . S
O197 Cd175 2.350 . S
O197 C196 1.270 . S
O198 Cd175 2.277 . S
O198 C196 1.248 . S
C199 O200 1.277 . S
C199 O201 1.230 . S
O200 Cd175 2.173 . S
O200 C199 1.277 . S
O201 Cd176 2.250 . S
O201 C199 1.230 . S
C202 N184 1.329 . S
C202 C186 1.481 . S
C202 O203 1.246 . S
O203 C202 1.246 . S
O204 Cd175 2.263 . S
O204 C216 1.258 . S
O205 Cd176 2.308 . S
O205 C216 1.274 . S
C206 C190 1.516 . S
C206 N191 1.324 . S
C206 O207 1.238 . S
O207 C206 1.238 . S
C208 N191 1.427 . S
C208 C209 1.394 . S
C208 C213 1.395 . S
C209 C208 1.394 . S
C209 C210 1.380 . S
C209 H237 0.929 . S
C210 C209 1.380 . S
C210 C211 1.384 . S
C210 C216 1.495 . S
C211 C210 1.384 . S
C211 C212 1.382 . S
C211 H238 0.930 . S
C212 C211 1.382 . S
C212 C213 1.398 . S
C213 C208 1.395 . S
C213 C212 1.398 . S
C213 H239 0.930 1_565 S
C214 O194 1.235 . S
C214 O195 1.270 . S
O215 C168 1.263 . S
O215 Cd175 2.366 . S
C216 O204 1.258 . S
C216 O205 1.274 . S
C216 C210 1.495 . S
C217 N184 1.432 . S
C217 C218 1.381 . S
C217 C222 1.385 . S
C218 C217 1.381 . S
C218 C219 1.371 . S
C218 H240 0.932 . S
C219 C218 1.371 . S
C219 C220 1.400 . S
C220 C219 1.400 . S
C220 C221 1.351 . S
C220 H241 0.930 . S
C221 C220 1.351 . S
C221 C222 1.388 . S
C222 C217 1.385 . S
C222 C221 1.388 . S
C222 H242 0.929 . S
C223 C162 1.504 . S
C223 N193 1.309 . S
C223 O224 1.258 . S
O224 C223 1.258 . S
H225 C163 0.929 . S
H226 C164 0.932 . S
H227 C165 0.931 . S
H228 C170 0.929 . S
H229 C172 0.929 . S
H230 C174 0.931 . S
H231 C179 0.929 . S
H232 C181 0.932 . S
H233 C182 0.931 . S
H234 C187 0.930 . S
H235 C188 0.931 . S
H236 C189 0.930 1_545 S
H237 C209 0.929 . S
H238 C211 0.930 . S
H239 C213 0.930 1_545 S
H240 C218 0.932 . S
H241 C220 0.930 . S
H242 C222 0.929 . S
C243 C244 1.359 . S
C243 N248 1.330 . S
C243 C304 1.504 . S
C244 C243 1.359 . S
C244 C245 1.366 . S
C244 H306 0.929 1_556 S
C245 C244 1.366 . S
C245 C246 1.415 . S
C245 H307 0.932 . S
C246 C245 1.415 . S
C246 C247 1.366 . S
C246 H308 0.931 . S
C247 C246 1.366 . S
C247 N248 1.325 . S
C247 C249 1.516 . S
N248 C243 1.330 . S
N248 C247 1.325 . S
N248 Co264 1.869 . S
C249 C247 1.516 . S
C249 N273 1.316 . S
C249 O296 1.263 . S
C250 C251 1.421 . S
C250 C255 1.360 . S
C250 N273 1.436 . S
C251 C250 1.421 . S
C251 C252 1.379 . S
C251 H309 0.929 . S
C252 C251 1.379 . S
C252 C253 1.417 . S
C253 C252 1.417 . S
C253 C254 1.352 . S
C253 H310 0.929 . S
C254 C253 1.352 . S
C254 C255 1.393 . S
C255 C250 1.360 . S
C255 C254 1.393 . S
C255 H311 0.931 . S
Cd256 O276 2.329 . S
Cd256 O278 2.350 . S
Cd256 O279 2.277 . S
Cd256 O281 2.173 . S
Cd256 O285 2.263 . S
Cd256 O296 2.366 . S
Cd257 O275 2.352 . S
Cd257 O282 2.250 . S
Cd257 O286 2.308 . S
C258 C262 1.403 . S
C258 C263 1.370 1_544 S
C258 N274 1.423 1_554 S
C259 C260 1.389 . S
C259 C263 1.389 1_554 S
C260 C259 1.389 . S
C260 C261 1.379 . S
C260 H312 0.929 . S
C261 C260 1.379 . S
C261 C262 1.405 1_565 S
C262 C258 1.403 . S
C262 C261 1.405 1_545 S
C262 H313 0.932 . S
C263 C258 1.370 1_566 S
C263 C259 1.389 1_556 S
C263 H314 0.931 . S
Co264 N248 1.869 . S
Co264 N265 1.955 1_556 S
Co264 N266 1.864 . S
Co264 N272 1.958 . S
Co264 N273 1.953 . S
Co264 N274 1.974 . S
N265 Co264 1.955 1_554 S
N265 C283 1.329 . S
N265 C298 1.432 . S
N266 Co264 1.864 . S
N266 C267 1.327 . S
N266 C271 1.342 . S
C267 N266 1.327 . S
C267 C268 1.407 . S
C267 C283 1.481 1_556 S
C268 C267 1.407 . S
C268 C269 1.364 . S
C268 H315 0.930 1_556 S
C269 C268 1.364 . S
C269 C270 1.390 . S
C269 H316 0.931 . S
C270 C269 1.390 . S
C270 C271 1.346 . S
C270 H317 0.930 1_545 S
C271 N266 1.342 . S
C271 C270 1.346 . S
C271 C287 1.516 . S
N272 Co264 1.958 . S
N272 C287 1.324 . S
N272 C289 1.427 . S
N273 C249 1.316 . S
N273 C250 1.436 . S
N273 Co264 1.953 . S
N274 C258 1.423 1_556 S
N274 Co264 1.974 . S
N274 C304 1.309 . S
O275 Cd257 2.352 . S
O275 C295 1.235 . S
O276 Cd256 2.329 . S
O276 C295 1.270 . S
C277 O278 1.270 . S
C277 O279 1.248 . S
O278 Cd256 2.350 . S
O278 C277 1.270 . S
O279 Cd256 2.277 . S
O279 C277 1.248 . S
C280 O281 1.277 . S
C280 O282 1.230 . S
O281 Cd256 2.173 . S
O281 C280 1.277 . S
O282 Cd257 2.250 . S
O282 C280 1.230 . S
C283 N265 1.329 . S
C283 C267 1.481 1_554 S
C283 O284 1.246 . S
O284 C283 1.246 . S
O285 Cd256 2.263 . S
O285 C297 1.258 . S
O286 Cd257 2.308 . S
O286 C297 1.274 . S
C287 C271 1.516 . S
C287 N272 1.324 . S
C287 O288 1.238 . S
O288 C287 1.238 . S
C289 N272 1.427 . S
C289 C290 1.394 . S
C289 C294 1.395 . S
C290 C289 1.394 . S
C290 C291 1.380 . S
C290 H318 0.929 . S
C291 C290 1.380 . S
C291 C292 1.384 . S
C291 C297 1.495 . S
C292 C291 1.384 . S
C292 C293 1.382 . S
C292 H319 0.930 . S
C293 C292 1.382 . S
C293 C294 1.398 . S
C294 C289 1.395 . S
C294 C293 1.398 . S
C294 H320 0.930 1_545 S
C295 O275 1.235 . S
C295 O276 1.270 . S
O296 C249 1.263 . S
O296 Cd256 2.366 . S
C297 O285 1.258 . S
C297 O286 1.274 . S
C297 C291 1.495 . S
C298 N265 1.432 . S
C298 C299 1.381 . S
C298 C303 1.385 . S
C299 C298 1.381 . S
C299 C300 1.371 . S
C299 H321 0.932 . S
C300 C299 1.371 . S
C300 C301 1.400 . S
C301 C300 1.400 . S
C301 C302 1.351 . S
C301 H322 0.930 . S
C302 C301 1.351 . S
C302 C303 1.388 . S
C303 C298 1.385 . S
C303 C302 1.388 . S
C303 H323 0.929 . S
C304 C243 1.504 . S
C304 N274 1.309 . S
C304 O305 1.257 1_556 S
O305 C304 1.257 1_554 S
H306 C244 0.929 1_554 S
H307 C245 0.932 . S
H308 C246 0.931 . S
H309 C251 0.929 . S
H310 C253 0.929 . S
H311 C255 0.931 . S
H312 C260 0.929 . S
H313 C262 0.932 . S
H314 C263 0.931 . S
H315 C268 0.930 1_554 S
H316 C269 0.931 . S
H317 C270 0.930 1_565 S
H318 C290 0.929 . S
H319 C292 0.930 . S
H320 C294 0.930 1_565 S
H321 C299 0.932 . S
H322 C301 0.930 . S
H323 C303 0.929 . S
C324 C325 1.359 . S
C324 N329 1.330 . S
C324 C385 1.504 . S
C325 C324 1.359 . S
C325 C326 1.366 . S
C325 H387 0.929 . S
C326 C325 1.366 . S
C326 C327 1.415 . S
C326 H388 0.932 . S
C327 C326 1.415 . S
C327 C328 1.366 . S
C327 H389 0.931 . S
C328 C327 1.366 . S
C328 N329 1.325 . S
C328 C330 1.516 . S
N329 C324 1.330 . S
N329 C328 1.325 . S
N329 Co345 1.869 . S
C330 C328 1.516 . S
C330 N354 1.316 . S
C330 O377 1.263 . S
C331 C332 1.421 . S
C331 C336 1.360 . S
C331 N354 1.436 . S
C332 C331 1.421 . S
C332 C333 1.379 . S
C332 H390 0.929 . S
C333 C332 1.379 . S
C333 C334 1.417 . S
C334 C333 1.417 . S
C334 C335 1.352 . S
C334 H391 0.929 . S
C335 C334 1.352 . S
C335 C336 1.393 . S
C336 C331 1.360 . S
C336 C335 1.393 . S
C336 H392 0.931 . S
Cd337 O357 2.329 . S
Cd337 O359 2.350 . S
Cd337 O360 2.277 . S
Cd337 O362 2.173 . S
Cd337 O366 2.263 . S
Cd337 O377 2.366 . S
Cd338 O356 2.352 . S
Cd338 O363 2.250 . S
Cd338 O367 2.308 . S
C339 C343 1.403 . S
C339 C344 1.370 1_655 S
C339 N355 1.423 . S
C340 C341 1.389 . S
C340 C344 1.389 . S
C341 C340 1.389 . S
C341 C342 1.379 . S
C341 H393 0.929 . S
C342 C341 1.379 . S
C342 C343 1.405 1_455 S
C343 C339 1.403 . S
C343 C342 1.405 1_655 S
C343 H394 0.932 . S
C344 C339 1.370 1_455 S
C344 C340 1.389 . S
C344 H395 0.931 . S
Co345 N329 1.869 . S
Co345 N346 1.955 . S
Co345 N347 1.864 . S
Co345 N353 1.958 . S
Co345 N354 1.953 . S
Co345 N355 1.974 . S
N346 Co345 1.955 . S
N346 C364 1.329 . S
N346 C379 1.432 . S
N347 Co345 1.864 . S
N347 C348 1.327 . S
N347 C352 1.342 . S
C348 N347 1.327 . S
C348 C349 1.407 . S
C348 C364 1.481 . S
C349 C348 1.407 . S
C349 C350 1.364 . S
C349 H396 0.930 . S
C350 C349 1.364 . S
C350 C351 1.390 . S
C350 H397 0.931 . S
C351 C350 1.390 . S
C351 C352 1.346 . S
C351 H398 0.930 1_655 S
C352 N347 1.342 . S
C352 C351 1.346 . S
C352 C368 1.516 . S
N353 Co345 1.958 . S
N353 C368 1.324 . S
N353 C370 1.427 . S
N354 C330 1.316 . S
N354 C331 1.436 . S
N354 Co345 1.953 . S
N355 C339 1.423 . S
N355 Co345 1.974 . S
N355 C385 1.309 . S
O356 Cd338 2.352 . S
O356 C376 1.235 . S
O357 Cd337 2.329 . S
O357 C376 1.270 . S
C358 O359 1.270 . S
C358 O360 1.248 . S
O359 Cd337 2.350 . S
O359 C358 1.270 . S
O360 Cd337 2.277 . S
O360 C358 1.248 . S
C361 O362 1.277 . S
C361 O363 1.230 . S
O362 Cd337 2.173 . S
O362 C361 1.277 . S
O363 Cd338 2.250 . S
O363 C361 1.230 . S
C364 N346 1.329 . S
C364 C348 1.481 . S
C364 O365 1.246 . S
O365 C364 1.246 . S
O366 Cd337 2.263 . S
O366 C378 1.258 . S
O367 Cd338 2.308 . S
O367 C378 1.274 . S
C368 C352 1.516 . S
C368 N353 1.324 . S
C368 O369 1.238 . S
O369 C368 1.238 . S
C370 N353 1.427 . S
C370 C371 1.394 . S
C370 C375 1.395 . S
C371 C370 1.394 . S
C371 C372 1.380 . S
C371 H399 0.929 . S
C372 C371 1.380 . S
C372 C373 1.384 . S
C372 C378 1.495 . S
C373 C372 1.384 . S
C373 C374 1.382 . S
C373 H400 0.930 . S
C374 C373 1.382 . S
C374 C375 1.398 . S
C375 C370 1.395 . S
C375 C374 1.398 . S
C375 H401 0.930 1_655 S
C376 O356 1.235 . S
C376 O357 1.270 . S
O377 C330 1.263 . S
O377 Cd337 2.366 . S
C378 O366 1.258 . S
C378 O367 1.274 . S
C378 C372 1.495 . S
C379 N346 1.432 . S
C379 C380 1.381 . S
C379 C384 1.385 . S
C380 C379 1.381 . S
C380 C381 1.371 . S
C380 H402 0.932 . S
C381 C380 1.371 . S
C381 C382 1.400 . S
C382 C381 1.400 . S
C382 C383 1.351 . S
C382 H403 0.930 . S
C383 C382 1.351 . S
C383 C384 1.388 . S
C384 C379 1.385 . S
C384 C383 1.388 . S
C384 H404 0.929 . S
C385 C324 1.504 . S
C385 N355 1.309 . S
C385 O386 1.258 . S
O386 C385 1.258 . S
H387 C325 0.929 . S
H388 C326 0.932 . S
H389 C327 0.931 . S
H390 C332 0.929 . S
H391 C334 0.929 . S
H392 C336 0.931 . S
H393 C341 0.929 . S
H394 C343 0.932 . S
H395 C344 0.931 . S
H396 C349 0.930 . S
H397 C350 0.931 . S
H398 C351 0.930 1_455 S
H399 C371 0.929 . S
H400 C373 0.930 . S
H401 C375 0.930 1_455 S
H402 C380 0.932 . S
H403 C382 0.930 . S
H404 C384 0.929 . S
C405 C406 1.359 . S
C405 N410 1.330 . S
C405 C466 1.504 . S
C406 C405 1.359 . S
C406 C407 1.366 . S
C406 H468 0.929 . S
C407 C406 1.366 . S
C407 C408 1.415 . S
C407 H469 0.932 . S
C408 C407 1.415 . S
C408 C409 1.366 . S
C408 H470 0.931 . S
C409 C408 1.366 . S
C409 N410 1.325 . S
C409 C411 1.516 . S
N410 C405 1.330 . S
N410 C409 1.325 . S
N410 Co426 1.869 . S
C411 C409 1.516 . S
C411 N435 1.316 . S
C411 O458 1.263 . S
C412 C413 1.421 . S
C412 C417 1.360 . S
C412 N435 1.436 . S
C413 C412 1.421 . S
C413 C414 1.379 . S
C413 H471 0.929 . S
C414 C413 1.379 . S
C414 C415 1.417 . S
C415 C414 1.417 . S
C415 C416 1.352 . S
C415 H472 0.929 . S
C416 C415 1.352 . S
C416 C417 1.393 . S
C417 C412 1.360 . S
C417 C416 1.393 . S
C417 H473 0.931 . S
Cd418 O438 2.329 . S
Cd418 O440 2.350 . S
Cd418 O441 2.277 . S
Cd418 O443 2.173 . S
Cd418 O447 2.263 . S
Cd418 O458 2.366 . S
Cd419 O437 2.352 . S
Cd419 O444 2.250 . S
Cd419 O448 2.308 . S
C420 C424 1.403 . S
C420 C425 1.370 . S
C420 N436 1.423 . S
C421 C422 1.389 . S
C421 C425 1.389 . S
C422 C421 1.389 . S
C422 C423 1.379 . S
C422 H474 0.929 . S
C423 C422 1.379 . S
C423 C424 1.405 . S
C424 C420 1.403 . S
C424 C423 1.405 . S
C424 H475 0.932 . S
C425 C420 1.370 . S
C425 C421 1.389 . S
C425 H476 0.931 . S
Co426 N410 1.869 . S
Co426 N427 1.955 . S
Co426 N428 1.864 . S
Co426 N434 1.958 . S
Co426 N435 1.953 . S
Co426 N436 1.974 . S
N427 Co426 1.955 . S
N427 C445 1.329 . S
N427 C460 1.432 . S
N428 Co426 1.864 . S
N428 C429 1.327 . S
N428 C433 1.342 . S
C429 N428 1.327 . S
C429 C430 1.407 . S
C429 C445 1.481 . S
C430 C429 1.407 . S
C430 C431 1.364 . S
C430 H477 0.930 . S
C431 C430 1.364 . S
C431 C432 1.390 . S
C431 H478 0.931 . S
C432 C431 1.390 . S
C432 C433 1.346 . S
C432 H479 0.930 . S
C433 N428 1.342 . S
C433 C432 1.346 . S
C433 C449 1.516 . S
N434 Co426 1.958 . S
N434 C449 1.324 . S
N434 C451 1.427 . S
N435 C411 1.316 . S
N435 C412 1.436 . S
N435 Co426 1.953 . S
N436 C420 1.423 . S
N436 Co426 1.974 . S
N436 C466 1.309 . S
O437 Cd419 2.352 . S
O437 C457 1.235 . S
O438 Cd418 2.329 . S
O438 C457 1.270 . S
C439 O440 1.270 . S
C439 O441 1.248 . S
O440 Cd418 2.350 . S
O440 C439 1.270 . S
O441 Cd418 2.277 . S
O441 C439 1.248 . S
C442 O443 1.277 . S
C442 O444 1.230 . S
O443 Cd418 2.173 . S
O443 C442 1.277 . S
O444 Cd419 2.250 . S
O444 C442 1.230 . S
C445 N427 1.329 . S
C445 C429 1.481 . S
C445 O446 1.246 . S
O446 C445 1.246 . S
O447 Cd418 2.263 . S
O447 C459 1.258 . S
O448 Cd419 2.308 . S
O448 C459 1.274 . S
C449 C433 1.516 . S
C449 N434 1.324 . S
C449 O450 1.238 . S
O450 C449 1.238 . S
C451 N434 1.427 . S
C451 C452 1.394 . S
C451 C456 1.395 . S
C452 C451 1.394 . S
C452 C453 1.380 . S
C452 H480 0.929 . S
C453 C452 1.380 . S
C453 C454 1.384 . S
C453 C459 1.495 . S
C454 C453 1.384 . S
C454 C455 1.382 . S
C454 H481 0.930 . S
C455 C454 1.382 . S
C455 C456 1.398 . S
C456 C451 1.395 . S
C456 C455 1.398 . S
C456 H482 0.930 . S
C457 O437 1.235 . S
C457 O438 1.270 . S
O458 C411 1.263 . S
O458 Cd418 2.366 . S
C459 O447 1.258 . S
C459 O448 1.274 . S
C459 C453 1.495 . S
C460 N427 1.432 . S
C460 C461 1.381 . S
C460 C465 1.385 . S
C461 C460 1.381 . S
C461 C462 1.371 . S
C461 H483 0.932 . S
C462 C461 1.371 . S
C462 C463 1.400 . S
C463 C462 1.400 . S
C463 C464 1.351 . S
C463 H484 0.930 . S
C464 C463 1.351 . S
C464 C465 1.388 . S
C465 C460 1.385 . S
C465 C464 1.388 . S
C465 H485 0.929 . S
C466 C405 1.504 . S
C466 N436 1.309 . S
C466 O467 1.258 . S
O467 C466 1.258 . S
H468 C406 0.929 . S
H469 C407 0.932 . S
H470 C408 0.931 . S
H471 C413 0.929 . S
H472 C415 0.929 . S
H473 C417 0.931 . S
H474 C422 0.929 . S
H475 C424 0.932 . S
H476 C425 0.931 . S
H477 C430 0.930 . S
H478 C431 0.931 . S
H479 C432 0.930 . S
H480 C452 0.929 . S
H481 C454 0.930 . S
H482 C456 0.930 . S
H483 C461 0.932 . S
H484 C463 0.930 . S
H485 C465 0.929 . S
H486 C492 0.930 . S
H487 C496 0.930 . S
H488 C501 0.929 . S
H489 C499 0.929 . S
H490 C494 0.929 . S
H491 C500 0.929 . S
C492 H486 0.930 . S
C492 C493 1.367 . S
C492 C500 1.378 . S
C493 C492 1.367 . S
C493 C501 1.433 . S
C494 H490 0.929 . S
C494 C496 1.378 . S
C494 C498 1.350 . S
C495 C498 1.463 . S
C495 C500 1.350 . S
C495 N503 1.427 . S
C496 H487 0.930 . S
C496 C494 1.378 . S
C496 C497 1.367 . S
C497 C496 1.367 . S
C497 C499 1.433 1_554 S
C498 C494 1.350 . S
C498 C495 1.463 . S
C498 N502 1.427 . S
C499 H489 0.929 . S
C499 C497 1.433 1_556 S
C499 N502 1.384 1_556 S
C500 H491 0.929 . S
C500 C492 1.378 . S
C500 C495 1.350 . S
C501 H488 0.929 . S
C501 C493 1.433 . S
C501 N503 1.384 . S
N502 C498 1.427 . S
N502 C499 1.384 1_554 S
N503 C495 1.427 . S
N503 C501 1.384 . S
H504 C510 0.930 . S
H505 C514 0.930 . S
H506 C519 0.929 . S
H507 C517 0.929 . S
H508 C512 0.929 . S
H509 C518 0.929 . S
C510 H504 0.930 . S
C510 C511 1.367 . S
C510 C518 1.378 . S
C511 C510 1.367 . S
C511 C519 1.433 . S
C512 H508 0.929 . S
C512 C514 1.378 . S
C512 C516 1.350 . S
C513 C516 1.463 . S
C513 C518 1.350 . S
C513 N521 1.427 . S
C514 H505 0.930 . S
C514 C512 1.378 . S
C514 C515 1.367 . S
C515 C514 1.367 . S
C515 C517 1.433 . S
C516 C512 1.350 . S
C516 C513 1.463 . S
C516 N520 1.427 . S
C517 H507 0.929 . S
C517 C515 1.433 . S
C517 N520 1.384 . S
C518 H509 0.929 . S
C518 C510 1.378 . S
C518 C513 1.350 . S
C519 H506 0.929 . S
C519 C511 1.433 . S
C519 N521 1.384 . S
N520 C516 1.427 . S
N520 C517 1.384 . S
N521 C513 1.427 . S
N521 C519 1.384 . S
H522 C528 0.930 . S
H523 C532 0.930 . S
H524 C537 0.929 . S
H525 C535 0.929 . S
H526 C530 0.929 . S
H527 C536 0.929 . S
C528 H522 0.930 . S
C528 C529 1.367 . S
C528 C536 1.378 . S
C529 C528 1.367 . S
C529 C537 1.433 . S
C530 H526 0.929 . S
C530 C532 1.378 . S
C530 C534 1.350 . S
C531 C534 1.463 . S
C531 C536 1.350 . S
C531 N539 1.427 . S
C532 H523 0.930 . S
C532 C530 1.378 . S
C532 C533 1.367 . S
C533 C532 1.367 . S
C533 C535 1.433 . S
C534 C530 1.350 . S
C534 C531 1.463 . S
C534 N538 1.427 . S
C535 H525 0.929 . S
C535 C533 1.433 . S
C535 N538 1.384 . S
C536 H527 0.929 . S
C536 C528 1.378 . S
C536 C531 1.350 . S
C537 H524 0.929 . S
C537 C529 1.433 . S
C537 N539 1.384 . S
N538 C534 1.427 . S
N538 C535 1.384 . S
N539 C531 1.427 . S
N539 C537 1.384 . S
H540 C546 0.930 . S
H541 C550 0.930 . S
H542 C555 0.929 . S
H543 C553 0.929 . S
H544 C548 0.929 . S
H545 C554 0.929 . S
C546 H540 0.930 . S
C546 C547 1.367 . S
C546 C554 1.378 . S
C547 C546 1.367 . S
C547 C555 1.433 . S
C548 H544 0.929 . S
C548 C550 1.378 1_556 S
C548 C552 1.350 . S
C549 C552 1.463 . S
C549 C554 1.350 . S
C549 N557 1.427 . S
C550 H541 0.930 . S
C550 C548 1.378 1_554 S
C550 C551 1.367 1_554 S
C551 C550 1.367 1_556 S
C551 C553 1.433 . S
C552 C548 1.350 . S
C552 C549 1.463 . S
C552 N556 1.427 . S
C553 H543 0.929 . S
C553 C551 1.433 . S
C553 N556 1.384 . S
C554 H545 0.929 . S
C554 C546 1.378 . S
C554 C549 1.350 . S
C555 H542 0.929 . S
C555 C547 1.433 . S
C555 N557 1.384 . S
N556 C552 1.427 . S
N556 C553 1.384 . S
N557 C549 1.427 . S
N557 C555 1.384 . S
H558 C564 0.930 . S
H559 C568 0.930 . S
H560 C573 0.929 . S
H561 C571 0.929 . S
H562 C566 0.929 . S
H563 C572 0.929 . S
C564 H558 0.930 . S
C564 C565 1.367 . S
C564 C572 1.378 . S
C565 C564 1.367 . S
C565 C573 1.433 . S
C566 H562 0.929 . S
C566 C568 1.378 . S
C566 C570 1.350 . S
C567 C570 1.463 . S
C567 C572 1.350 . S
C567 N575 1.427 . S
C568 H559 0.930 . S
C568 C566 1.378 . S
C568 C569 1.367 . S
C569 C568 1.367 . S
C569 C571 1.433 . S
C570 C566 1.350 . S
C570 C567 1.463 . S
C570 N574 1.427 . S
C571 H561 0.929 . S
C571 C569 1.433 . S
C571 N574 1.384 . S
C572 H563 0.929 . S
C572 C564 1.378 . S
C572 C567 1.350 . S
C573 H560 0.929 . S
C573 C565 1.433 . S
C573 N575 1.384 . S
N574 C570 1.427 . S
N574 C571 1.384 . S
N575 C567 1.427 . S
N575 C573 1.384 . S
H576 C582 0.930 . S
H577 C586 0.930 . S
H578 C591 0.929 . S
H579 C589 0.929 . S
H580 C584 0.929 . S
H581 C590 0.929 . S
C582 H576 0.930 . S
C582 C583 1.367 . S
C582 C590 1.378 . S
C583 C582 1.367 . S
C583 C591 1.433 . S
C584 H580 0.929 . S
C584 C586 1.378 . S
C584 C588 1.350 . S
C585 C588 1.463 . S
C585 C590 1.350 . S
C585 N593 1.427 . S
C586 H577 0.930 . S
C586 C584 1.378 . S
C586 C587 1.367 . S
C587 C586 1.367 . S
C587 C589 1.433 . S
C588 C584 1.350 . S
C588 C585 1.463 . S
C588 N592 1.427 . S
C589 H579 0.929 . S
C589 C587 1.433 . S
C589 N592 1.384 . S
C590 H581 0.929 . S
C590 C582 1.378 . S
C590 C585 1.350 . S
C591 H578 0.929 . S
C591 C583 1.433 . S
C591 N593 1.384 . S
N592 C588 1.427 . S
N592 C589 1.384 . S
N593 C585 1.427 . S
N593 C591 1.384 . S
H594 C600 0.930 . S
H595 C604 0.930 . S
H596 C609 0.929 . S
H597 C607 0.929 . S
H598 C602 0.929 . S
H599 C608 0.929 . S
C600 H594 0.930 . S
C600 C601 1.367 . S
C600 C608 1.378 . S
C601 C600 1.367 . S
C601 C609 1.433 . S
C602 H598 0.929 . S
C602 C604 1.378 . S
C602 C606 1.350 . S
C603 C606 1.463 . S
C603 C608 1.350 . S
C603 N611 1.427 . S
C604 H595 0.930 . S
C604 C602 1.378 . S
C604 C605 1.367 . S
C605 C604 1.367 . S
C605 C607 1.433 . S
C606 C602 1.350 . S
C606 C603 1.463 . S
C606 N610 1.427 . S
C607 H597 0.929 . S
C607 C605 1.433 . S
C607 N610 1.384 . S
C608 H599 0.929 . S
C608 C600 1.378 . S
C608 C603 1.350 . S
C609 H596 0.929 . S
C609 C601 1.433 . S
C609 N611 1.384 . S
N610 C606 1.427 . S
N610 C607 1.384 . S
N611 C603 1.427 . S
N611 C609 1.384 . S
H612 C618 0.930 . S
H613 C622 0.930 . S
H614 C627 0.929 . S
H615 C625 0.929 . S
H616 C620 0.929 . S
H617 C626 0.929 . S
C618 H612 0.930 . S
C618 C619 1.367 . S
C618 C626 1.378 . S
C619 C618 1.367 . S
C619 C627 1.433 . S
C620 H616 0.929 . S
C620 C622 1.378 . S
C620 C624 1.350 . S
C621 C624 1.463 . S
C621 C626 1.350 . S
C621 N629 1.427 . S
C622 H613 0.930 . S
C622 C620 1.378 . S
C622 C623 1.367 . S
C623 C622 1.367 . S
C623 C625 1.433 . S
C624 C620 1.350 . S
C624 C621 1.463 . S
C624 N628 1.427 . S
C625 H615 0.929 . S
C625 C623 1.433 . S
C625 N628 1.384 . S
C626 H617 0.929 . S
C626 C618 1.378 . S
C626 C621 1.350 . S
C627 H614 0.929 . S
C627 C619 1.433 . S
C627 N629 1.384 . S
N628 C624 1.427 . S
N628 C625 1.384 . S
N629 C621 1.427 . S
N629 C627 1.384 . S
H630 C636 0.930 . S
H631 C640 0.930 . S
H632 C645 0.929 . S
H633 C643 0.929 . S
H634 C638 0.929 . S
H635 C644 0.929 . S
C636 H630 0.930 . S
C636 C637 1.367 . S
C636 C644 1.378 . S
C637 C636 1.367 . S
C637 C645 1.433 . S
C638 H634 0.929 . S
C638 C640 1.378 . S
C638 C642 1.350 . S
C639 C642 1.463 . S
C639 C644 1.350 . S
C639 N647 1.427 . S
C640 H631 0.930 . S
C640 C638 1.378 . S
C640 C641 1.367 . S
C641 C640 1.367 . S
C641 C643 1.433 . S
C642 C638 1.350 . S
C642 C639 1.463 . S
C642 N646 1.427 . S
C643 H633 0.929 . S
C643 C641 1.433 . S
C643 N646 1.384 . S
C644 H635 0.929 . S
C644 C636 1.378 . S
C644 C639 1.350 . S
C645 H632 0.929 . S
C645 C637 1.433 . S
C645 N647 1.384 . S
N646 C642 1.427 . S
N646 C643 1.384 . S
N647 C639 1.427 . S
N647 C645 1.384 . S
H648 C654 0.930 . S
H649 C658 0.930 . S
H650 C663 0.929 . S
H651 C661 0.929 . S
H652 C656 0.929 . S
H653 C662 0.929 . S
C654 H648 0.930 . S
C654 C655 1.367 . S
C654 C662 1.378 . S
C655 C654 1.367 . S
C655 C663 1.433 . S
C656 H652 0.929 . S
C656 C658 1.378 . S
C656 C660 1.350 . S
C657 C660 1.463 . S
C657 C662 1.350 . S
C657 N665 1.427 . S
C658 H649 0.930 . S
C658 C656 1.378 . S
C658 C659 1.367 . S
C659 C658 1.367 . S
C659 C661 1.433 . S
C660 C656 1.350 . S
C660 C657 1.463 . S
C660 N664 1.427 . S
C661 H651 0.929 . S
C661 C659 1.433 . S
C661 N664 1.384 . S
C662 H653 0.929 . S
C662 C654 1.378 . S
C662 C657 1.350 . S
C663 H650 0.929 . S
C663 C655 1.433 . S
C663 N665 1.384 . S
N664 C660 1.427 . S
N664 C661 1.384 . S
N665 C657 1.427 . S
N665 C663 1.384 . S
H666 C672 0.930 . S
H667 C676 0.930 . S
H668 C681 0.929 . S
H669 C679 0.929 . S
H670 C674 0.929 . S
H671 C680 0.929 . S
C672 H666 0.930 . S
C672 C673 1.367 . S
C672 C680 1.378 . S
C673 C672 1.367 . S
C673 C681 1.433 . S
C674 H670 0.929 . S
C674 C676 1.378 . S
C674 C678 1.350 . S
C675 C678 1.463 . S
C675 C680 1.350 . S
C675 N683 1.427 . S
C676 H667 0.930 . S
C676 C674 1.378 . S
C676 C677 1.367 . S
C677 C676 1.367 . S
C677 C679 1.433 . S
C678 C674 1.350 . S
C678 C675 1.463 . S
C678 N682 1.427 . S
C679 H669 0.929 . S
C679 C677 1.433 . S
C679 N682 1.384 . S
C680 H671 0.929 . S
C680 C672 1.378 . S
C680 C675 1.350 . S
C681 H668 0.929 . S
C681 C673 1.433 . S
C681 N683 1.384 . S
N682 C678 1.427 . S
N682 C679 1.384 . S
N683 C675 1.427 . S
N683 C681 1.384 . S
H684 C690 0.930 . S
H685 C694 0.930 . S
H686 C699 0.929 . S
H687 C697 0.929 . S
H688 C692 0.929 . S
H689 C698 0.929 . S
C690 H684 0.930 . S
C690 C691 1.367 . S
C690 C698 1.378 . S
C691 C690 1.367 . S
C691 C699 1.433 . S
C692 H688 0.929 . S
C692 C694 1.378 . S
C692 C696 1.350 . S
C693 C696 1.463 . S
C693 C698 1.350 . S
C693 N701 1.427 . S
C694 H685 0.930 . S
C694 C692 1.378 . S
C694 C695 1.367 . S
C695 C694 1.367 . S
C695 C697 1.433 . S
C696 C692 1.350 . S
C696 C693 1.463 . S
C696 N700 1.427 . S
C697 H687 0.929 . S
C697 C695 1.433 . S
C697 N700 1.384 . S
C698 H689 0.929 . S
C698 C690 1.378 . S
C698 C693 1.350 . S
C699 H686 0.929 . S
C699 C691 1.433 . S
C699 N701 1.384 . S
N700 C696 1.427 . S
N700 C697 1.384 . S
N701 C693 1.427 . S
N701 C699 1.384 . S
H702 C708 0.930 . S
H703 C712 0.930 . S
H704 C717 0.929 . S
H705 C715 0.929 . S
H706 C710 0.929 . S
H707 C716 0.929 . S
C708 H702 0.930 . S
C708 C709 1.367 . S
C708 C716 1.378 . S
C709 C708 1.367 . S
C709 C717 1.433 1_455 S
C710 H706 0.929 . S
C710 C712 1.378 . S
C710 C714 1.350 . S
C711 C714 1.463 1_455 S
C711 C716 1.350 . S
C711 N719 1.427 1_455 S
C712 H703 0.930 . S
C712 C710 1.378 . S
C712 C713 1.367 . S
C713 C712 1.367 . S
C713 C715 1.433 1_655 S
C714 C710 1.350 . S
C714 C711 1.463 1_655 S
C714 N718 1.427 1_655 S
C715 H705 0.929 . S
C715 C713 1.433 1_455 S
C715 N718 1.384 . S
C716 H707 0.929 . S
C716 C708 1.378 . S
C716 C711 1.350 . S
C717 H704 0.929 . S
C717 C709 1.433 1_655 S
C717 N719 1.384 . S
N718 C714 1.427 1_455 S
N718 C715 1.384 . S
N719 C711 1.427 1_655 S
N719 C717 1.384 . S
H720 C726 0.930 . S
H721 C730 0.930 . S
H722 C735 0.929 . S
H723 C733 0.929 . S
H724 C728 0.929 . S
H725 C734 0.929 . S
C726 H720 0.930 . S
C726 C727 1.367 . S
C726 C734 1.378 . S
C727 C726 1.367 . S
C727 C735 1.433 . S
C728 H724 0.929 . S
C728 C730 1.378 . S
C728 C732 1.350 . S
C729 C732 1.463 . S
C729 C734 1.350 . S
C729 N737 1.427 . S
C730 H721 0.930 . S
C730 C728 1.378 . S
C730 C731 1.367 . S
C731 C730 1.367 . S
C731 C733 1.433 . S
C732 C728 1.350 . S
C732 C729 1.463 . S
C732 N736 1.427 . S
C733 H723 0.929 . S
C733 C731 1.433 . S
C733 N736 1.384 . S
C734 H725 0.929 . S
C734 C726 1.378 . S
C734 C729 1.350 . S
C735 H722 0.929 . S
C735 C727 1.433 . S
C735 N737 1.384 . S
N736 C732 1.427 . S
N736 C733 1.384 . S
N737 C729 1.427 . S
N737 C735 1.384 . S
H738 C744 0.930 . S
H739 C748 0.930 . S
H740 C753 0.929 . S
H741 C751 0.929 . S
H742 C746 0.929 . S
H743 C752 0.929 . S
C744 H738 0.930 . S
C744 C745 1.367 1_565 S
C744 C752 1.378 . S
C745 C744 1.367 1_545 S
C745 C753 1.433 . S
C746 H742 0.929 . S
C746 C748 1.378 . S
C746 C750 1.350 1_545 S
C747 C750 1.463 1_545 S
C747 C752 1.350 1_545 S
C747 N755 1.427 . S
C748 H739 0.930 . S
C748 C746 1.378 . S
C748 C749 1.367 1_545 S
C749 C748 1.367 1_565 S
C749 C751 1.433 . S
C750 C746 1.350 1_565 S
C750 C747 1.463 1_565 S
C750 N754 1.427 . S
C751 H741 0.929 . S
C751 C749 1.433 . S
C751 N754 1.384 . S
C752 H743 0.929 . S
C752 C744 1.378 . S
C752 C747 1.350 1_565 S
C753 H740 0.929 . S
C753 C745 1.433 . S
C753 N755 1.384 . S
N754 C750 1.427 . S
N754 C751 1.384 . S
N755 C747 1.427 . S
N755 C753 1.384 . S
H756 C762 0.930 . S
H757 C766 0.930 . S
H758 C771 0.929 . S
H759 C769 0.929 . S
H760 C764 0.929 . S
H761 C770 0.929 . S
C762 H756 0.930 . S
C762 C763 1.367 . S
C762 C770 1.378 . S
C763 C762 1.367 . S
C763 C771 1.433 . S
C764 H760 0.929 . S
C764 C766 1.378 . S
C764 C768 1.350 . S
C765 C768 1.463 . S
C765 C770 1.350 . S
C765 N773 1.427 . S
C766 H757 0.930 . S
C766 C764 1.378 . S
C766 C767 1.367 . S
C767 C766 1.367 . S
C767 C769 1.433 . S
C768 C764 1.350 . S
C768 C765 1.463 . S
C768 N772 1.427 . S
C769 H759 0.929 . S
C769 C767 1.433 . S
C769 N772 1.384 . S
C770 H761 0.929 . S
C770 C762 1.378 . S
C770 C765 1.350 . S
C771 H758 0.929 . S
C771 C763 1.433 . S
C771 N773 1.384 . S
N772 C768 1.427 . S
N772 C769 1.384 . S
N773 C765 1.427 . S
N773 C771 1.384 . S
H774 C780 0.930 . S
H775 C784 0.930 . S
H776 C789 0.929 . S
H777 C787 0.929 . S
H778 C782 0.929 . S
H779 C788 0.929 . S
C780 H774 0.930 . S
C780 C781 1.367 . S
C780 C788 1.378 . S
C781 C780 1.367 . S
C781 C789 1.433 . S
C782 H778 0.929 . S
C782 C784 1.378 . S
C782 C786 1.350 . S
C783 C786 1.463 . S
C783 C788 1.350 . S
C783 N791 1.427 . S
C784 H775 0.930 . S
C784 C782 1.378 . S
C784 C785 1.367 . S
C785 C784 1.367 . S
C785 C787 1.433 . S
C786 C782 1.350 . S
C786 C783 1.463 . S
C786 N790 1.427 . S
C787 H777 0.929 . S
C787 C785 1.433 . S
C787 N790 1.384 . S
C788 H779 0.929 . S
C788 C780 1.378 . S
C788 C783 1.350 . S
C789 H776 0.929 . S
C789 C781 1.433 . S
C789 N791 1.384 . S
N790 C786 1.427 . S
N790 C787 1.384 . S
N791 C783 1.427 . S
N791 C789 1.384 . S
H792 C798 0.930 . S
H793 C802 0.930 . S
H794 C807 0.929 . S
H795 C805 0.929 . S
H796 C800 0.929 . S
H797 C806 0.929 . S
C798 H792 0.930 . S
C798 C799 1.367 . S
C798 C806 1.378 . S
C799 C798 1.367 . S
C799 C807 1.433 . S
C800 H796 0.929 . S
C800 C802 1.378 . S
C800 C804 1.350 . S
C801 C804 1.463 . S
C801 C806 1.350 . S
C801 N809 1.427 . S
C802 H793 0.930 . S
C802 C800 1.378 . S
C802 C803 1.367 . S
C803 C802 1.367 . S
C803 C805 1.433 . S
C804 C800 1.350 . S
C804 C801 1.463 . S
C804 N808 1.427 . S
C805 H795 0.929 . S
C805 C803 1.433 . S
C805 N808 1.384 . S
C806 H797 0.929 . S
C806 C798 1.378 . S
C806 C801 1.350 . S
C807 H794 0.929 . S
C807 C799 1.433 . S
C807 N809 1.384 . S
N808 C804 1.427 . S
N808 C805 1.384 . S
N809 C801 1.427 . S
N809 C807 1.384 . S
H810 C816 0.930 . S
H811 C820 0.930 . S
H812 C825 0.929 . S
H813 C823 0.929 . S
H814 C818 0.929 . S
H815 C824 0.929 . S
C816 H810 0.930 . S
C816 C817 1.367 . S
C816 C824 1.378 . S
C817 C816 1.367 . S
C817 C825 1.433 . S
C818 H814 0.929 . S
C818 C820 1.378 . S
C818 C822 1.350 . S
C819 C822 1.463 . S
C819 C824 1.350 . S
C819 N827 1.427 . S
C820 H811 0.930 . S
C820 C818 1.378 . S
C820 C821 1.367 . S
C821 C820 1.367 . S
C821 C823 1.433 . S
C822 C818 1.350 . S
C822 C819 1.463 . S
C822 N826 1.427 . S
C823 H813 0.929 . S
C823 C821 1.433 . S
C823 N826 1.384 . S
C824 H815 0.929 . S
C824 C816 1.378 . S
C824 C819 1.350 . S
C825 H812 0.929 . S
C825 C817 1.433 . S
C825 N827 1.384 . S
N826 C822 1.427 . S
N826 C823 1.384 . S
N827 C819 1.427 . S
N827 C825 1.384 . S
H828 C834 0.930 . S
H829 C838 0.930 . S
H830 C843 0.929 . S
H831 C841 0.929 . S
H832 C836 0.929 . S
H833 C842 0.929 . S
C834 H828 0.930 . S
C834 C835 1.367 . S
C834 C842 1.378 . S
C835 C834 1.367 . S
C835 C843 1.433 . S
C836 H832 0.929 . S
C836 C838 1.378 . S
C836 C840 1.350 . S
C837 C840 1.463 . S
C837 C842 1.350 . S
C837 N845 1.427 . S
C838 H829 0.930 . S
C838 C836 1.378 . S
C838 C839 1.367 . S
C839 C838 1.367 . S
C839 C841 1.433 . S
C840 C836 1.350 . S
C840 C837 1.463 . S
C840 N844 1.427 . S
C841 H831 0.929 . S
C841 C839 1.433 . S
C841 N844 1.384 . S
C842 H833 0.929 . S
C842 C834 1.378 . S
C842 C837 1.350 . S
C843 H830 0.929 . S
C843 C835 1.433 . S
C843 N845 1.384 . S
N844 C840 1.427 . S
N844 C841 1.384 . S
N845 C837 1.427 . S
N845 C843 1.384 . S
H846 C852 0.930 . S
H847 C856 0.930 . S
H848 C861 0.929 . S
H849 C859 0.929 . S
H850 C854 0.929 . S
H851 C860 0.929 . S
C852 H846 0.930 . S
C852 C853 1.367 . S
C852 C860 1.378 . S
C853 C852 1.367 . S
C853 C861 1.433 . S
C854 H850 0.929 . S
C854 C856 1.378 . S
C854 C858 1.350 . S
C855 C858 1.463 . S
C855 C860 1.350 . S
C855 N863 1.427 . S
C856 H847 0.930 . S
C856 C854 1.378 . S
C856 C857 1.367 . S
C857 C856 1.367 . S
C857 C859 1.433 . S
C858 C854 1.350 . S
C858 C855 1.463 . S
C858 N862 1.427 . S
C859 H849 0.929 . S
C859 C857 1.433 . S
C859 N862 1.384 . S
C860 H851 0.929 . S
C860 C852 1.378 . S
C860 C855 1.350 . S
C861 H848 0.929 . S
C861 C853 1.433 . S
C861 N863 1.384 . S
N862 C858 1.427 . S
N862 C859 1.384 . S
N863 C855 1.427 . S
N863 C861 1.384 . S
C493 C37 1.866 . S
C497 C259 1.632 . S
C511 C118 1.866 . S
C515 C340 1.631 . S
C529 C199 1.858 . S
C533 C421 1.648 . S
C547 C280 1.857 . S
C551 C16 1.651 . S
C565 C361 1.858 . S
C569 C97 1.652 . S
C583 C442 1.856 . S
C587 C178 1.652 . S
C601 C455 3.022 . S
C605 C34 2.990 . S
C619 C115 2.993 . S
C623 C293 3.021 1_565 S
C637 C374 3.028 1_455 S
C641 C196 2.993 . S
C655 C131 3.021 . S
C659 C277 2.993 . S
C673 C358 2.998 . S
C677 C212 3.024 1_545 S
C691 C50 3.026 1_655 S
C695 C439 2.989 . S
C709 C342 1.689 . S
C713 C18 1.687 . S
C727 C423 1.689 . S
C731 C99 1.687 . S
C745 C180 1.685 . S
C749 C261 1.684 . S
C763 C59 0.698 . S
C767 C133 0.744 . S
C781 C214 0.730 . S
C785 C140 0.694 . S
C799 C52 0.759 . S
C803 C221 0.708 . S
C817 C457 0.722 . S
C821 C302 0.716 . S
C835 C295 0.738 . S
C839 C383 0.733 . S
C853 C464 0.695 . S
C857 C376 0.723 . S
