# Generated by pormake.
# Topology wna, (6)-cn, num edge types: 1
# Building blocks:
#     Node 0, Type 0, BuildingBlock: BETFAJ_clean_sbu_0, # of connection points: 6
#     Node 1, Type 0, BuildingBlock: BETFAJ_clean_sbu_0, # of connection points: 6
#     Node 2, Type 0, BuildingBlock: BETFAJ_clean_sbu_0, # of connection points: 6
#     Node 3, Type 0, BuildingBlock: BETFAJ_clean_sbu_0, # of connection points: 6
#     Node 4, Type 0, BuildingBlock: BETFAJ_clean_sbu_0, # of connection points: 6
#     Node 5, Type 0, BuildingBlock: BETFAJ_clean_sbu_0, # of connection points: 6
#     Node 6, Type 0, BuildingBlock: BETFAJ_clean_sbu_0, # of connection points: 6
#     Node 7, Type 0, BuildingBlock: BETFAJ_clean_sbu_0, # of connection points: 6
#     Node 8, Type 0, BuildingBlock: BETFAJ_clean_sbu_0, # of connection points: 6
#     Node 9, Type 0, BuildingBlock: BETFAJ_clean_sbu_0, # of connection points: 6
#     Node 10, Type 0, BuildingBlock: BETFAJ_clean_sbu_0, # of connection points: 6
#     Node 11, Type 0, BuildingBlock: BETFAJ_clean_sbu_0, # of connection points: 6
#     Node 12, Type 0, BuildingBlock: BETFAJ_clean_sbu_0, # of connection points: 6
#     Node 13, Type 0, BuildingBlock: BETFAJ_clean_sbu_0, # of connection points: 6
#     Node 14, Type 0, BuildingBlock: BETFAJ_clean_sbu_0, # of connection points: 6
#     Node 15, Type 0, BuildingBlock: BETFAJ_clean_sbu_0, # of connection points: 6
#     Node 16, Type 0, BuildingBlock: BETFAJ_clean_sbu_0, # of connection points: 6
#     Node 17, Type 0, BuildingBlock: BETFAJ_clean_sbu_0, # of connection points: 6
#     Node 18, Type 0, BuildingBlock: BETFAJ_clean_sbu_0, # of connection points: 6
#     Node 19, Type 0, BuildingBlock: BETFAJ_clean_sbu_0, # of connection points: 6
#     Node 20, Type 0, BuildingBlock: BETFAJ_clean_sbu_0, # of connection points: 6
#     Node 21, Type 0, BuildingBlock: BETFAJ_clean_sbu_0, # of connection points: 6
#     Node 22, Type 0, BuildingBlock: BETFAJ_clean_sbu_0, # of connection points: 6
#     Node 23, Type 0, BuildingBlock: BETFAJ_clean_sbu_0, # of connection points: 6
#     Node 24, Type 0, BuildingBlock: BETFAJ_clean_sbu_0, # of connection points: 6
#     Node 25, Type 0, BuildingBlock: BETFAJ_clean_sbu_0, # of connection points: 6
#     Node 26, Type 0, BuildingBlock: BETFAJ_clean_sbu_0, # of connection points: 6
#     Node 27, Type 0, BuildingBlock: BETFAJ_clean_sbu_0, # of connection points: 6
#     Node 28, Type 0, BuildingBlock: BETFAJ_clean_sbu_0, # of connection points: 6
#     Node 29, Type 0, BuildingBlock: BETFAJ_clean_sbu_0, # of connection points: 6
#     Node 30, Type 0, BuildingBlock: BETFAJ_clean_sbu_0, # of connection points: 6
#     Node 31, Type 0, BuildingBlock: BETFAJ_clean_sbu_0, # of connection points: 6
#     Node 32, Type 0, BuildingBlock: BETFAJ_clean_sbu_0, # of connection points: 6
#     Node 33, Type 0, BuildingBlock: BETFAJ_clean_sbu_0, # of connection points: 6
#     Node 34, Type 0, BuildingBlock: BETFAJ_clean_sbu_0, # of connection points: 6
#     Node 35, Type 0, BuildingBlock: BETFAJ_clean_sbu_0, # of connection points: 6
#     Edge 36, Type (0, 0), BuildingBlock: EZIPEK_clean_linker_0, # of connection points: 2
#     Edge 37, Type (0, 0), BuildingBlock: EZIPEK_clean_linker_0, # of connection points: 2
#     Edge 38, Type (0, 0), BuildingBlock: EZIPEK_clean_linker_0, # of connection points: 2
#     Edge 39, Type (0, 0), BuildingBlock: EZIPEK_clean_linker_0, # of connection points: 2
#     Edge 40, Type (0, 0), BuildingBlock: EZIPEK_clean_linker_0, # of connection points: 2
#     Edge 41, Type (0, 0), BuildingBlock: EZIPEK_clean_linker_0, # of connection points: 2
#     Edge 42, Type (0, 0), BuildingBlock: EZIPEK_clean_linker_0, # of connection points: 2
#     Edge 43, Type (0, 0), BuildingBlock: EZIPEK_clean_linker_0, # of connection points: 2
#     Edge 44, Type (0, 0), BuildingBlock: EZIPEK_clean_linker_0, # of connection points: 2
#     Edge 45, Type (0, 0), BuildingBlock: EZIPEK_clean_linker_0, # of connection points: 2
#     Edge 46, Type (0, 0), BuildingBlock: EZIPEK_clean_linker_0, # of connection points: 2
#     Edge 47, Type (0, 0), BuildingBlock: EZIPEK_clean_linker_0, # of connection points: 2
#     Edge 48, Type (0, 0), BuildingBlock: EZIPEK_clean_linker_0, # of connection points: 2
#     Edge 49, Type (0, 0), BuildingBlock: EZIPEK_clean_linker_0, # of connection points: 2
#     Edge 50, Type (0, 0), BuildingBlock: EZIPEK_clean_linker_0, # of connection points: 2
#     Edge 51, Type (0, 0), BuildingBlock: EZIPEK_clean_linker_0, # of connection points: 2
#     Edge 52, Type (0, 0), BuildingBlock: EZIPEK_clean_linker_0, # of connection points: 2
#     Edge 53, Type (0, 0), BuildingBlock: EZIPEK_clean_linker_0, # of connection points: 2
#     Edge 54, Type (0, 0), BuildingBlock: EZIPEK_clean_linker_0, # of connection points: 2
#     Edge 55, Type (0, 0), BuildingBlock: EZIPEK_clean_linker_0, # of connection points: 2
#     Edge 56, Type (0, 0), BuildingBlock: EZIPEK_clean_linker_0, # of connection points: 2
#     Edge 57, Type (0, 0), BuildingBlock: EZIPEK_clean_linker_0, # of connection points: 2
#     Edge 58, Type (0, 0), BuildingBlock: EZIPEK_clean_linker_0, # of connection points: 2
#     Edge 59, Type (0, 0), BuildingBlock: EZIPEK_clean_linker_0, # of connection points: 2
#     Edge 60, Type (0, 0), BuildingBlock: EZIPEK_clean_linker_0, # of connection points: 2
#     Edge 61, Type (0, 0), BuildingBlock: EZIPEK_clean_linker_0, # of connection points: 2
#     Edge 62, Type (0, 0), BuildingBlock: EZIPEK_clean_linker_0, # of connection points: 2
#     Edge 63, Type (0, 0), BuildingBlock: EZIPEK_clean_linker_0, # of connection points: 2
#     Edge 64, Type (0, 0), BuildingBlock: EZIPEK_clean_linker_0, # of connection points: 2
#     Edge 65, Type (0, 0), BuildingBlock: EZIPEK_clean_linker_0, # of connection points: 2
#     Edge 66, Type (0, 0), BuildingBlock: EZIPEK_clean_linker_0, # of connection points: 2
#     Edge 67, Type (0, 0), BuildingBlock: EZIPEK_clean_linker_0, # of connection points: 2
#     Edge 68, Type (0, 0), BuildingBlock: EZIPEK_clean_linker_0, # of connection points: 2
#     Edge 69, Type (0, 0), BuildingBlock: EZIPEK_clean_linker_0, # of connection points: 2
#     Edge 70, Type (0, 0), BuildingBlock: EZIPEK_clean_linker_0, # of connection points: 2
#     Edge 71, Type (0, 0), BuildingBlock: EZIPEK_clean_linker_0, # of connection points: 2
#     Edge 72, Type (0, 0), BuildingBlock: EZIPEK_clean_linker_0, # of connection points: 2
#     Edge 73, Type (0, 0), BuildingBlock: EZIPEK_clean_linker_0, # of connection points: 2
#     Edge 74, Type (0, 0), BuildingBlock: EZIPEK_clean_linker_0, # of connection points: 2
#     Edge 75, Type (0, 0), BuildingBlock: EZIPEK_clean_linker_0, # of connection points: 2
#     Edge 76, Type (0, 0), BuildingBlock: EZIPEK_clean_linker_0, # of connection points: 2
#     Edge 77, Type (0, 0), BuildingBlock: EZIPEK_clean_linker_0, # of connection points: 2
#     Edge 78, Type (0, 0), BuildingBlock: EZIPEK_clean_linker_0, # of connection points: 2
#     Edge 79, Type (0, 0), BuildingBlock: EZIPEK_clean_linker_0, # of connection points: 2
#     Edge 80, Type (0, 0), BuildingBlock: EZIPEK_clean_linker_0, # of connection points: 2
#     Edge 81, Type (0, 0), BuildingBlock: EZIPEK_clean_linker_0, # of connection points: 2
#     Edge 82, Type (0, 0), BuildingBlock: EZIPEK_clean_linker_0, # of connection points: 2
#     Edge 83, Type (0, 0), BuildingBlock: EZIPEK_clean_linker_0, # of connection points: 2
#     Edge 84, Type (0, 0), BuildingBlock: EZIPEK_clean_linker_0, # of connection points: 2
#     Edge 85, Type (0, 0), BuildingBlock: EZIPEK_clean_linker_0, # of connection points: 2
#     Edge 86, Type (0, 0), BuildingBlock: EZIPEK_clean_linker_0, # of connection points: 2
#     Edge 87, Type (0, 0), BuildingBlock: EZIPEK_clean_linker_0, # of connection points: 2
#     Edge 88, Type (0, 0), BuildingBlock: EZIPEK_clean_linker_0, # of connection points: 2
#     Edge 89, Type (0, 0), BuildingBlock: EZIPEK_clean_linker_0, # of connection points: 2
#     Edge 90, Type (0, 0), BuildingBlock: EZIPEK_clean_linker_0, # of connection points: 2
#     Edge 91, Type (0, 0), BuildingBlock: EZIPEK_clean_linker_0, # of connection points: 2
#     Edge 92, Type (0, 0), BuildingBlock: EZIPEK_clean_linker_0, # of connection points: 2
#     Edge 93, Type (0, 0), BuildingBlock: EZIPEK_clean_linker_0, # of connection points: 2
#     Edge 94, Type (0, 0), BuildingBlock: EZIPEK_clean_linker_0, # of connection points: 2
#     Edge 95, Type (0, 0), BuildingBlock: EZIPEK_clean_linker_0, # of connection points: 2
#     Edge 96, Type (0, 0), BuildingBlock: EZIPEK_clean_linker_0, # of connection points: 2
#     Edge 97, Type (0, 0), BuildingBlock: EZIPEK_clean_linker_0, # of connection points: 2
#     Edge 98, Type (0, 0), BuildingBlock: EZIPEK_clean_linker_0, # of connection points: 2
#     Edge 99, Type (0, 0), BuildingBlock: EZIPEK_clean_linker_0, # of connection points: 2
#     Edge 100, Type (0, 0), BuildingBlock: EZIPEK_clean_linker_0, # of connection points: 2
#     Edge 101, Type (0, 0), BuildingBlock: EZIPEK_clean_linker_0, # of connection points: 2
#     Edge 102, Type (0, 0), BuildingBlock: EZIPEK_clean_linker_0, # of connection points: 2
#     Edge 103, Type (0, 0), BuildingBlock: EZIPEK_clean_linker_0, # of connection points: 2
#     Edge 104, Type (0, 0), BuildingBlock: EZIPEK_clean_linker_0, # of connection points: 2
#     Edge 105, Type (0, 0), BuildingBlock: EZIPEK_clean_linker_0, # of connection points: 2
#     Edge 106, Type (0, 0), BuildingBlock: EZIPEK_clean_linker_0, # of connection points: 2
#     Edge 107, Type (0, 0), BuildingBlock: EZIPEK_clean_linker_0, # of connection points: 2
#     Edge 108, Type (0, 0), BuildingBlock: EZIPEK_clean_linker_0, # of connection points: 2
#     Edge 109, Type (0, 0), BuildingBlock: EZIPEK_clean_linker_0, # of connection points: 2
#     Edge 110, Type (0, 0), BuildingBlock: EZIPEK_clean_linker_0, # of connection points: 2
#     Edge 111, Type (0, 0), BuildingBlock: EZIPEK_clean_linker_0, # of connection points: 2
#     Edge 112, Type (0, 0), BuildingBlock: EZIPEK_clean_linker_0, # of connection points: 2
#     Edge 113, Type (0, 0), BuildingBlock: EZIPEK_clean_linker_0, # of connection points: 2
#     Edge 114, Type (0, 0), BuildingBlock: EZIPEK_clean_linker_0, # of connection points: 2
#     Edge 115, Type (0, 0), BuildingBlock: EZIPEK_clean_linker_0, # of connection points: 2
#     Edge 116, Type (0, 0), BuildingBlock: EZIPEK_clean_linker_0, # of connection points: 2
#     Edge 117, Type (0, 0), BuildingBlock: EZIPEK_clean_linker_0, # of connection points: 2
#     Edge 118, Type (0, 0), BuildingBlock: EZIPEK_clean_linker_0, # of connection points: 2
#     Edge 119, Type (0, 0), BuildingBlock: EZIPEK_clean_linker_0, # of connection points: 2
#     Edge 120, Type (0, 0), BuildingBlock: EZIPEK_clean_linker_0, # of connection points: 2
#     Edge 121, Type (0, 0), BuildingBlock: EZIPEK_clean_linker_0, # of connection points: 2
#     Edge 122, Type (0, 0), BuildingBlock: EZIPEK_clean_linker_0, # of connection points: 2
#     Edge 123, Type (0, 0), BuildingBlock: EZIPEK_clean_linker_0, # of connection points: 2
#     Edge 124, Type (0, 0), BuildingBlock: EZIPEK_clean_linker_0, # of connection points: 2
#     Edge 125, Type (0, 0), BuildingBlock: EZIPEK_clean_linker_0, # of connection points: 2
#     Edge 126, Type (0, 0), BuildingBlock: EZIPEK_clean_linker_0, # of connection points: 2
#     Edge 127, Type (0, 0), BuildingBlock: EZIPEK_clean_linker_0, # of connection points: 2
#     Edge 128, Type (0, 0), BuildingBlock: EZIPEK_clean_linker_0, # of connection points: 2
#     Edge 129, Type (0, 0), BuildingBlock: EZIPEK_clean_linker_0, # of connection points: 2
#     Edge 130, Type (0, 0), BuildingBlock: EZIPEK_clean_linker_0, # of connection points: 2
#     Edge 131, Type (0, 0), BuildingBlock: EZIPEK_clean_linker_0, # of connection points: 2
#     Edge 132, Type (0, 0), BuildingBlock: EZIPEK_clean_linker_0, # of connection points: 2
#     Edge 133, Type (0, 0), BuildingBlock: EZIPEK_clean_linker_0, # of connection points: 2
#     Edge 134, Type (0, 0), BuildingBlock: EZIPEK_clean_linker_0, # of connection points: 2
#     Edge 135, Type (0, 0), BuildingBlock: EZIPEK_clean_linker_0, # of connection points: 2
#     Edge 136, Type (0, 0), BuildingBlock: EZIPEK_clean_linker_0, # of connection points: 2
#     Edge 137, Type (0, 0), BuildingBlock: EZIPEK_clean_linker_0, # of connection points: 2
#     Edge 138, Type (0, 0), BuildingBlock: EZIPEK_clean_linker_0, # of connection points: 2
#     Edge 139, Type (0, 0), BuildingBlock: EZIPEK_clean_linker_0, # of connection points: 2
#     Edge 140, Type (0, 0), BuildingBlock: EZIPEK_clean_linker_0, # of connection points: 2
#     Edge 141, Type (0, 0), BuildingBlock: EZIPEK_clean_linker_0, # of connection points: 2
#     Edge 142, Type (0, 0), BuildingBlock: EZIPEK_clean_linker_0, # of connection points: 2
#     Edge 143, Type (0, 0), BuildingBlock: EZIPEK_clean_linker_0, # of connection points: 2
# Relax obj value: 0.151
# Max RMSD: 0.229
# Mean RMSD: 0.212
data_MOF--net-wna--node1-BETFAJ_clean_sbu_0--edge1-EZIPEK_clean_linker_0
_symmetry_space_group_name_H-M    P1
_symmetry_Int_Tables_number       1
_symmetry_cell_setting            triclinic
loop_
_symmetry_equiv_pos_as_xyz
'x, y, z'
_cell_length_a     30.567481
_cell_length_b     30.593324
_cell_length_c     130.78676
_cell_angle_alpha  89.952641
_cell_angle_beta   90.155641
_cell_angle_gamma 119.98004
loop_
_atom_site_label
_atom_site_type_symbol
_atom_site_fract_x
_atom_site_fract_y
_atom_site_fract_z
_atom_type_partial_charge
Sm0 Sm 0.12692 0.25654 0.16702 0.0
Sm1 Sm 0.1259 0.25011 0.19164 0.0
C2 C 0.11076 0.2732 0.14779 0.0
C3 C 0.13125 0.29169 0.13736 0.0
C4 C 0.13099 0.33439 0.13344 0.0
C5 C 0.14318 0.34858 0.12319 0.0
C6 C 0.15574 0.3203 0.11661 0.0
C7 C 0.1575 0.27846 0.12055 0.0
C8 C 0.1453 0.26421 0.13083 0.0
C9 C 0.15846 0.19292 0.17492 0.0
C10 C 0.23551 0.31719 0.17897 0.0
C11 C 0.12759 0.22676 0.21123 0.0
C12 C 0.1032 0.22203 0.22136 0.0
C13 C 0.05118 0.1888 0.22289 0.0
C14 C 0.03003 0.18127 0.23271 0.0
C15 C 0.06033 0.20674 0.24121 0.0
C16 C 0.11197 0.24069 0.23968 0.0
C17 C 0.13316 0.24815 0.22987 0.0
C18 C 0.09626 0.31917 0.185 0.0
C19 C 0.02292 0.16885 0.17904 0.0
O20 O 0.12203 0.30631 0.15514 0.0
O21 O 0.10624 0.2305 0.15096 0.0
O22 O 0.12427 0.20016 0.17856 0.0
O23 O 0.17601 0.21892 0.16651 0.0
O24 O 0.21025 0.31598 0.17059 0.0
O25 O 0.21209 0.29151 0.18737 0.0
O26 O 0.10124 0.19365 0.20415 0.0
O27 O 0.15686 0.27206 0.20752 0.0
O28 O 0.1098 0.29337 0.17982 0.0
O29 O 0.09842 0.30856 0.19452 0.0
O30 O 0.04584 0.18429 0.18802 0.0
O31 O 0.04453 0.19161 0.17029 0.0
H32 H 0.11961 0.35588 0.13821 0.0
H33 H 0.14135 0.38083 0.1203 0.0
H34 H 0.16687 0.25598 0.1156 0.0
H35 H 0.14539 0.23081 0.13355 0.0
H36 H 0.02693 0.16784 0.21654 0.0
H37 H 0.99013 0.15488 0.23371 0.0
H38 H 0.1361 0.26067 0.24611 0.0
H39 H 0.17334 0.27359 0.22897 0.0
Sm40 Sm 0.7727 0.87369 0.16801 0.0
Sm41 Sm 0.78011 0.87966 0.19326 0.0
C42 C 0.74282 0.83392 0.14957 0.0
C43 C 0.73037 0.84042 0.13897 0.0
C44 C 0.69564 0.79752 0.13349 0.0
C45 C 0.68644 0.80105 0.12313 0.0
C46 C 0.71184 0.84761 0.11806 0.0
C47 C 0.74567 0.89097 0.12358 0.0
C48 C 0.75501 0.88739 0.13398 0.0
C49 C 0.84257 0.97111 0.17434 0.0
C50 C 0.7146 0.92455 0.18037 0.0
C51 C 0.8026 0.90524 0.21282 0.0
C52 C 0.80683 0.88703 0.22313 0.0
C53 C 0.83962 0.86802 0.22504 0.0
C54 C 0.84712 0.85624 0.23503 0.0
C55 C 0.82206 0.86318 0.24332 0.0
C56 C 0.78852 0.8811 0.24142 0.0
C57 C 0.78111 0.89301 0.23143 0.0
C58 C 0.71447 0.78021 0.18619 0.0
C59 C 0.86172 0.86083 0.17992 0.0
O60 O 0.71104 0.82848 0.15685 0.0
O61 O 0.79033 0.85971 0.15238 0.0
O62 O 0.81565 0.93285 0.17991 0.0
O63 O 0.83138 0.95786 0.16478 0.0
O64 O 0.719 0.90469 0.17166 0.0
O65 O 0.73562 0.92156 0.18912 0.0
O66 O 0.83587 0.91049 0.20592 0.0
O67 O 0.75741 0.8894 0.20897 0.0
O68 O 0.73968 0.82053 0.18121 0.0
O69 O 0.72382 0.79266 0.19576 0.0
O70 O 0.85002 0.8731 0.18882 0.0
O71 O 0.83381 0.85209 0.17156 0.0
H72 H 0.67646 0.76092 0.13718 0.0
H73 H 0.66012 0.76724 0.11901 0.0
H74 H 0.76544 0.92726 0.1198 0.0
H75 H 0.78208 0.92097 0.13806 0.0
H76 H 0.86027 0.86315 0.21885 0.0
H77 H 0.87309 0.84239 0.23633 0.0
H78 H 0.76873 0.88665 0.24769 0.0
H79 H 0.75605 0.90802 0.23022 0.0
Sm80 Sm 0.15247 0.90259 0.1676 0.0
Sm81 Sm 0.1549 0.90793 0.19049 0.0
C82 C 0.17623 0.91193 0.1478 0.0
C83 C 0.16945 0.88996 0.13736 0.0
C84 C 0.21252 0.90168 0.13151 0.0
C85 C 0.2081 0.88612 0.12128 0.0
C86 C 0.16041 0.85835 0.11665 0.0
C87 C 0.11715 0.84558 0.12255 0.0
C88 C 0.12159 0.86136 0.13279 0.0
C89 C 0.05674 0.86897 0.17564 0.0
C90 C 0.11067 0.79657 0.18021 0.0
C91 C 0.15919 0.92831 0.21035 0.0
C92 C 0.16407 0.94163 0.22145 0.0
C93 C 0.12332 0.91613 0.22825 0.0
C94 C 0.12833 0.93 0.23864 0.0
C95 C 0.17427 0.96941 0.24246 0.0
C96 C 0.21503 0.99458 0.23571 0.0
C97 C 0.20998 0.98099 0.22535 0.0
C98 C 0.24583 0.92448 0.18166 0.0
C99 C 0.16404 1.00542 0.17795 0.0
O100 O 0.19937 0.89998 0.15477 0.0
O101 O 0.14091 0.91949 0.15158 0.0
O102 O 0.09741 0.90582 0.17896 0.0
O103 O 0.06628 0.84856 0.16788 0.0
O104 O 0.13604 0.82183 0.17198 0.0
O105 O 0.10754 0.82095 0.18828 0.0
O106 O 0.12104 0.88795 0.20632 0.0
O107 O 0.19413 0.9569 0.20382 0.0
O108 O 0.21797 0.94137 0.17862 0.0
O109 O 0.2238 0.89483 0.18935 0.0
O110 O 0.15162 0.98016 0.18666 0.0
O111 O 0.17153 0.98574 0.16958 0.0
H112 H 0.24988 0.92405 0.1348 0.0
H113 H 0.24196 0.89643 0.11691 0.0
H114 H 0.07995 0.82415 0.11915 0.0
H115 H 0.08769 0.85195 0.13706 0.0
H116 H 0.08744 0.88578 0.22552 0.0
H117 H 0.09634 0.91007 0.2437 0.0
H118 H 0.25077 0.02508 0.23846 0.0
H119 H 0.24221 1.00148 0.22037 0.0
Sm120 Sm 0.25369 0.11238 0.35774 0.0
Sm121 Sm 0.25356 0.11442 0.33489 0.0
C122 C 0.26663 0.09798 0.3774 0.0
C123 C 0.28535 0.12157 0.38768 0.0
C124 C 0.33394 0.13422 0.39101 0.0
C125 C 0.35035 0.15192 0.40098 0.0
C126 C 0.31992 0.16031 0.40799 0.0
C127 C 0.26936 0.14265 0.40478 0.0
C128 C 0.25288 0.1249 0.3948 0.0
C129 C 0.1956 0.15249 0.35008 0.0
C130 C 0.32046 0.2211 0.34698 0.0
C131 C 0.2369 0.1108 0.31469 0.0
C132 C 0.22889 0.08405 0.30472 0.0
C133 C 0.18683 0.03586 0.3029 0.0
C134 C 0.17703 0.01447 0.29304 0.0
C135 C 0.20887 0.04087 0.2848 0.0
C136 C 0.25134 0.08841 0.28666 0.0
C137 C 0.26121 0.1097 0.29648 0.0
C138 C 0.32485 0.09147 0.34323 0.0
C139 C 0.16802 0.00958 0.34595 0.0
O140 O 0.29997 0.10656 0.37026 0.0
O141 O 0.22496 0.09428 0.37376 0.0
O142 O 0.19885 0.11606 0.34638 0.0
O143 O 0.22257 0.16764 0.35838 0.0
O144 O 0.32192 0.19206 0.35432 0.0
O145 O 0.29028 0.19985 0.33903 0.0
O146 O 0.20114 0.09208 0.32154 0.0
O147 O 0.28189 0.13323 0.31879 0.0
O148 O 0.27989 0.07482 0.34615 0.0
O149 O 0.333 0.12135 0.33556 0.0
O150 O 0.18934 0.03152 0.33719 0.0
O151 O 0.18527 0.03264 0.35483 0.0
H152 H 0.35902 0.12877 0.38601 0.0
H153 H 0.38658 0.15677 0.40313 0.0
H154 H 0.2408 0.13994 0.40997 0.0
H155 H 0.21392 0.11209 0.39278 0.0
H156 H 0.16085 0.01518 0.30902 0.0
H157 H 0.14398 0.97779 0.29179 0.0
H158 H 0.27639 0.10952 0.28044 0.0
H159 H 0.29348 0.14708 0.29759 0.0
Sm160 Sm 0.90319 0.13969 0.35761 0.0
Sm161 Sm 0.90792 0.1411 0.33224 0.0
C162 C 0.90984 0.17349 0.37658 0.0
C163 C 0.8901 0.16639 0.38722 0.0
C164 C 0.856 0.18254 0.39005 0.0
C165 C 0.84433 0.18397 0.40038 0.0
C166 C 0.86672 0.16956 0.40807 0.0
C167 C 0.89929 0.15173 0.40526 0.0
C168 C 0.91093 0.15023 0.39495 0.0
C169 C 0.87547 0.0441 0.34992 0.0
C170 C 0.79618 0.09511 0.34467 0.0
C171 C 0.90781 0.12035 0.31245 0.0
C172 C 0.93269 0.14028 0.30237 0.0
C173 C 0.98406 0.156 0.30077 0.0
C174 C 1.00521 0.16893 0.29095 0.0
C175 C 0.97557 0.16648 0.28249 0.0
C176 C 0.92467 0.15203 0.28409 0.0
C177 C 0.90347 0.13899 0.29391 0.0
C178 C 0.94077 0.23809 0.34027 0.0
C179 C 1.00722 0.15732 0.34602 0.0
O180 O 0.88619 0.18246 0.36919 0.0
O181 O 0.93117 0.14766 0.37358 0.0
O182 O 0.88792 0.08433 0.34495 0.0
O183 O 0.87602 0.05411 0.35964 0.0
O184 O 0.81958 0.11145 0.35361 0.0
O185 O 0.82096 0.10012 0.33594 0.0
O186 O 0.93311 0.11145 0.31944 0.0
O187 O 0.87939 0.13722 0.31628 0.0
O188 O 0.92548 0.1969 0.34499 0.0
O189 O 0.93784 0.22802 0.33058 0.0
O190 O 0.9856 0.15008 0.33687 0.0
O191 O 0.9856 0.16 0.3546 0.0
H192 H 0.83985 0.19601 0.38434 0.0
H193 H 0.81937 0.19817 0.40239 0.0
H194 H 0.91721 0.14075 0.41108 0.0
H195 H 0.93795 0.1384 0.39309 0.0
H196 H 1.00771 0.15719 0.30707 0.0
H197 H 0.04453 0.17992 0.2899 0.0
H198 H 0.90103 0.14973 0.2777 0.0
H199 H 0.86374 0.12654 0.29486 0.0
Sm200 Sm 0.87591 0.76447 0.35685 0.0
Sm201 Sm 0.87699 0.75928 0.33425 0.0
C202 C 0.8468 0.75577 0.37624 0.0
C203 C 0.84742 0.73787 0.38675 0.0
C204 C 0.80107 0.70516 0.39146 0.0
C205 C 0.79927 0.69094 0.40168 0.0
C206 C 0.84382 0.70916 0.40742 0.0
C207 C 0.89045 0.74104 0.4027 0.0
C208 C 0.89227 0.75545 0.39244 0.0
C209 C 0.97297 0.82377 0.3492 0.0
C210 C 0.91768 0.69446 0.34683 0.0
C211 C 0.88188 0.76686 0.31388 0.0
C212 C 0.87571 0.79093 0.3045 0.0
C213 C 0.91503 0.81233 0.2973 0.0
C214 C 0.90727 0.82737 0.28764 0.0
C215 C 0.85992 0.82108 0.28497 0.0
C216 C 0.82111 0.8015 0.29227 0.0
C217 C 0.82888 0.7866 0.30194 0.0
C218 C 0.78523 0.68823 0.34326 0.0
C219 C 0.85954 0.84844 0.3443 0.0
O220 O 0.82158 0.72169 0.36925 0.0
O221 O 0.8872 0.79532 0.37268 0.0
O222 O 0.93276 0.81883 0.34526 0.0
O223 O 0.96223 0.79755 0.35757 0.0
O224 O 0.88992 0.69667 0.35438 0.0
O225 O 0.92427 0.72121 0.33843 0.0
O226 O 0.92127 0.79205 0.3198 0.0
O227 O 0.84132 0.73647 0.31898 0.0
O228 O 0.8117 0.73443 0.34544 0.0
O229 O 0.80891 0.67767 0.33635 0.0
O230 O 0.86333 0.82726 0.33577 0.0
O231 O 0.86128 0.83029 0.35338 0.0
H232 H 0.76595 0.69144 0.38728 0.0
H233 H 0.76297 0.66634 0.40517 0.0
H234 H 0.92525 0.75543 0.40701 0.0
H235 H 0.92853 0.78088 0.38903 0.0
H236 H 0.95124 0.81556 0.299 0.0
H237 H 0.9377 0.84233 0.28213 0.0
H238 H 0.7843 0.79633 0.29036 0.0
H239 H 0.79761 0.76998 0.30726 0.0
Sm240 Sm 0.90388 0.76727 0.83373 0.0
Sm241 Sm 0.90704 0.76607 0.85765 0.0
C242 C 0.91019 0.78797 0.81374 0.0
C243 C 0.9351 0.79173 0.80371 0.0
C244 C 0.98587 0.82867 0.80194 0.0
C245 C 1.00646 0.83679 0.79207 0.0
C246 C 0.97683 0.80828 0.78373 0.0
C247 C 0.92668 0.77037 0.78552 0.0
C248 C 0.90604 0.76228 0.79539 0.0
C249 C 0.92942 0.69842 0.84213 0.0
C250 C 1.00689 0.854 0.84592 0.0
C251 C 0.9153 0.74017 0.87667 0.0
C252 C 0.89475 0.72742 0.88725 0.0
C253 C 0.86746 0.67669 0.89042 0.0
C254 C 0.85514 0.66445 0.90075 0.0
C255 C 0.87011 0.70264 0.90812 0.0
C256 C 0.8958 0.75325 0.90496 0.0
C257 C 0.90809 0.76554 0.89464 0.0
C258 C 0.86978 0.82952 0.85161 0.0
C259 C 0.79736 0.70085 0.84598 0.0
O260 O 0.93606 0.82124 0.8208 0.0
O261 O 0.87894 0.74347 0.81753 0.0
O262 O 0.94397 0.74271 0.8453 0.0
O263 O 0.90262 0.69089 0.83394 0.0
O264 O 0.98129 0.83856 0.83722 0.0
O265 O 0.98874 0.82965 0.85463 0.0
O266 O 0.89231 0.70724 0.86933 0.0
O267 O 0.93552 0.78705 0.87357 0.0
O268 O 0.88293 0.80444 0.84599 0.0
O269 O 0.87711 0.82133 0.86104 0.0
O270 O 0.82569 0.7012 0.85373 0.0
O271 O 0.81843 0.7294 0.8378 0.0
H272 H 1.00934 0.85243 0.80812 0.0
H273 H 0.04519 0.86627 0.79087 0.0
H274 H 0.90306 0.74802 0.77922 0.0
H275 H 0.8667 0.73408 0.79646 0.0
H276 H 0.85733 0.6464 0.88499 0.0
H277 H 0.83556 0.62518 0.90304 0.0
H278 H 0.9079 0.78327 0.91055 0.0
H279 H 0.92974 0.80498 0.89252 0.0
Sm280 Sm 0.25544 0.14331 0.83261 0.0
Sm281 Sm 0.25756 0.1452 0.8579 0.0
C282 C 0.23599 0.12073 0.81288 0.0
C283 C 0.23095 0.14081 0.80286 0.0
C284 C 0.198 0.16009 0.8015 0.0
C285 C 0.18965 0.1736 0.79174 0.0
C286 C 0.21412 0.16828 0.78315 0.0
C287 C 0.24803 0.1504 0.78452 0.0
C288 C 0.25627 0.13671 0.79427 0.0
C289 C 0.31921 0.24151 0.84026 0.0
C290 C 0.17016 0.15876 0.84541 0.0
C291 C 0.28408 0.18133 0.87673 0.0
C292 C 0.29575 0.17386 0.88743 0.0
C293 C 0.34368 0.18156 0.89019 0.0
C294 C 0.35663 0.18215 0.90051 0.0
C295 C 0.32204 0.17529 0.90826 0.0
C296 C 0.27369 0.16593 0.90553 0.0
C297 C 0.26072 0.16532 0.89523 0.0
C298 C 0.19001 0.04855 0.8508 0.0
C299 C 0.31939 0.0978 0.84572 0.0
O300 O 0.20115 0.1109 0.81975 0.0
O301 O 0.2813 0.13898 0.81685 0.0
O302 O 0.29304 0.20086 0.8451 0.0
O303 O 0.31237 0.23024 0.83061 0.0
O304 O 0.18565 0.15086 0.83649 0.0
O305 O 0.19455 0.1639 0.85415 0.0
O306 O 0.31689 0.18915 0.86949 0.0
O307 O 0.23702 0.15588 0.87361 0.0
O308 O 0.21772 0.08776 0.84553 0.0
O309 O 0.19952 0.06021 0.86046 0.0
O310 O 0.3126 0.11566 0.85448 0.0
O311 O 0.30016 0.10203 0.83685 0.0
H312 H 0.17778 0.16365 0.80794 0.0
H313 H 0.1633 0.18728 0.79084 0.0
H314 H 0.26719 0.14589 0.778 0.0
H315 H 0.28151 0.12164 0.79507 0.0
H316 H 0.37184 0.1889 0.88441 0.0
H317 H 0.39425 0.18973 0.90248 0.0
H318 H 0.24659 0.16088 0.91139 0.0
H319 H 0.22383 0.1601 0.89339 0.0
Sm320 Sm 0.88052 0.11601 0.83264 0.0
Sm321 Sm 0.88206 0.11938 0.85698 0.0
C322 C 0.90344 0.11738 0.81291 0.0
C323 C 0.88547 0.09284 0.80272 0.0
C324 C 0.91518 0.07759 0.79726 0.0
C325 C 0.90155 0.05754 0.78736 0.0
C326 C 0.85784 0.05228 0.78263 0.0
C327 C 0.8276 0.06688 0.7881 0.0
C328 C 0.8413 0.08706 0.79804 0.0
C329 C 0.78312 0.08773 0.83996 0.0
C330 C 0.85992 0.01311 0.84509 0.0
C331 C 0.85606 0.10475 0.8766 0.0
C332 C 0.86135 0.12734 0.88693 0.0
C333 C 0.83069 0.1474 0.8899 0.0
C334 C 0.8302 0.16146 0.90008 0.0
C335 C 0.86014 0.15555 0.9075 0.0
C336 C 0.89198 0.13712 0.90451 0.0
C337 C 0.8925 0.12303 0.89434 0.0
C338 C 0.97534 0.15038 0.84805 0.0
C339 C 0.9253 0.22692 0.84523 0.0
O340 O 0.91302 0.09273 0.81992 0.0
O341 O 0.8845 0.144 0.81671 0.0
O342 O 0.82322 0.10094 0.84497 0.0
O343 O 0.79448 0.08962 0.83037 0.0
O344 O 0.86231 0.03416 0.83607 0.0
O345 O 0.86426 0.03716 0.85382 0.0
O346 O 0.83058 0.1133 0.86957 0.0
O347 O 0.89414 0.10161 0.87289 0.0
O348 O 0.93299 0.11515 0.84495 0.0
O349 O 0.96877 0.16956 0.85643 0.0
O350 O 0.90323 0.20185 0.8537 0.0
O351 O 0.92578 0.20292 0.83674 0.0
H352 H 0.94958 0.08191 0.80061 0.0
H353 H 0.92547 0.04656 0.78332 0.0
H354 H 0.79364 0.06308 0.78464 0.0
H355 H 0.81762 0.09856 0.802 0.0
H356 H 0.80568 0.1506 0.88446 0.0
H357 H 0.80515 0.17534 0.90225 0.0
H358 H 0.9151 0.13196 0.91013 0.0
H359 H 0.91593 0.10699 0.89236 0.0
Sm360 Sm 0.76979 0.8968 0.69089 0.0
Sm361 Sm 0.76769 0.89957 0.66831 0.0
C362 C 0.78667 0.90089 0.71111 0.0
C363 C 0.79554 0.92959 0.72089 0.0
C364 C 0.84486 0.96484 0.72413 0.0
C365 C 0.85374 0.98642 0.73395 0.0
C366 C 0.81363 0.97314 0.74079 0.0
C367 C 0.76426 0.93898 0.7375 0.0
C368 C 0.75534 0.91738 0.72769 0.0
C369 C 0.69767 0.9201 0.68323 0.0
C370 C 0.85603 1.00106 0.67988 0.0
C371 C 0.75626 0.91557 0.64864 0.0
C372 C 0.74022 0.89464 0.63816 0.0
C373 C 0.7121 0.91039 0.63224 0.0
C374 C 0.70006 0.89524 0.62201 0.0
C375 C 0.71584 0.86392 0.61746 0.0
C376 C 0.74307 0.84719 0.62341 0.0
C377 C 0.75526 0.86247 0.63366 0.0
C378 C 0.82605 0.8587 0.67538 0.0
C379 C 0.70135 0.79085 0.67895 0.0
O380 O 0.82232 0.91765 0.70425 0.0
O381 O 0.74178 0.87928 0.70698 0.0
O382 O 0.74238 0.93746 0.68006 0.0
O383 O 0.68994 0.88854 0.69053 0.0
O384 O 0.83585 0.97864 0.68867 0.0
O385 O 0.83616 0.97916 0.67103 0.0
O386 O 0.72141 0.90439 0.65556 0.0
O387 O 0.79769 0.91952 0.65244 0.0
O388 O 0.82417 0.89564 0.67919 0.0
O389 O 0.79608 0.8421 0.66752 0.0
O390 O 0.69901 0.82035 0.67183 0.0
O391 O 0.73298 0.8116 0.68671 0.0
H392 H 0.87688 0.97467 0.71921 0.0
H393 H 0.89215 0.01257 0.73631 0.0
H394 H 0.73271 0.92805 0.74263 0.0
H395 H 0.717 0.88986 0.72556 0.0
H396 H 0.70031 0.93543 0.63549 0.0
H397 H 0.67904 0.90858 0.61759 0.0
H398 H 0.75558 0.82295 0.62007 0.0
H399 H 0.77707 0.84981 0.63801 0.0
Sm400 Sm 0.1182 0.88035 0.69213 0.0
Sm401 Sm 0.12138 0.87709 0.66752 0.0
C402 C 0.11797 0.90394 0.71174 0.0
C403 C 0.09563 0.8831 0.72197 0.0
C404 C 0.04344 0.86147 0.72382 0.0
C405 C 0.024 0.84723 0.73375 0.0
C406 C 0.05618 0.85423 0.74205 0.0
C407 C 0.10804 0.87466 0.74019 0.0
C408 C 0.12753 0.88902 0.73027 0.0
C409 C 0.08974 0.78192 0.68545 0.0
C410 C 0.01453 0.85259 0.67875 0.0
C411 C 0.109 0.84705 0.64814 0.0
C412 C 0.13132 0.85138 0.63783 0.0
C413 C 0.14909 0.81864 0.63496 0.0
C414 C 0.16248 0.81659 0.62481 0.0
C415 C 0.15826 0.84707 0.6173 0.0
C416 C 0.14223 0.88103 0.62017 0.0
C417 C 0.12874 0.88308 0.63033 0.0
C418 C 0.14752 0.97143 0.67589 0.0
C419 C 0.22909 0.92432 0.67952 0.0
O420 O 0.0886 0.90656 0.70476 0.0
O421 O 0.15083 0.89282 0.70792 0.0
O422 O 0.10354 0.8214 0.68022 0.0
O423 O 0.09139 0.79472 0.69495 0.0
O424 O 0.03842 0.86688 0.68771 0.0
O425 O 0.03641 0.84707 0.67052 0.0
O426 O 0.12137 0.82599 0.65548 0.0
O427 O 0.10122 0.88314 0.65139 0.0
O428 O 0.11577 0.92845 0.6793 0.0
O429 O 0.16379 0.96512 0.66713 0.0
O430 O 0.20384 0.89931 0.67125 0.0
O431 O 0.20508 0.92688 0.68784 0.0
H432 H 0.0177 0.85653 0.71764 0.0
H433 H 0.98389 0.83162 0.735 0.0
H434 H 0.1336 0.88055 0.74647 0.0
H435 H 0.16788 0.90601 0.72913 0.0
H436 H 0.15078 0.79308 0.64047 0.0
H437 H 0.17445 0.7899 0.62274 0.0
H438 H 0.13839 0.9046 0.61446 0.0
H439 H 0.11447 0.90813 0.63221 0.0
Sm440 Sm 0.1408 0.25075 0.69308 0.0
Sm441 Sm 0.14315 0.25139 0.66849 0.0
C442 C 0.11683 0.23115 0.71274 0.0
C443 C 0.13701 0.22568 0.72273 0.0
C444 C 0.15668 0.19303 0.72396 0.0
C445 C 0.1714 0.18524 0.73366 0.0
C446 C 0.16686 0.20997 0.74229 0.0
C447 C 0.14835 0.24341 0.74104 0.0
C448 C 0.13351 0.2511 0.73136 0.0
C449 C 0.23881 0.31812 0.68599 0.0
C450 C 0.16384 0.16874 0.68149 0.0
C451 C 0.17349 0.26243 0.64915 0.0
C452 C 0.16947 0.27648 0.63846 0.0
C453 C 0.16997 0.32154 0.63601 0.0
C454 C 0.17166 0.336 0.62574 0.0
C455 C 0.17308 0.30578 0.6178 0.0
C456 C 0.17133 0.26029 0.62025 0.0
C457 C 0.16948 0.24579 0.63047 0.0
C458 C 0.04881 0.18903 0.67698 0.0
C459 C 0.09748 0.31548 0.67978 0.0
O460 O 0.10601 0.19626 0.70582 0.0
O461 O 0.1362 0.27651 0.70883 0.0
O462 O 0.19905 0.29141 0.68093 0.0
O463 O 0.22677 0.3096 0.69558 0.0
O464 O 0.15829 0.18657 0.69033 0.0
O465 O 0.16215 0.18837 0.67253 0.0
O466 O 0.19458 0.29828 0.65603 0.0
O467 O 0.13674 0.2201 0.6528 0.0
O468 O 0.09098 0.19756 0.68051 0.0
O469 O 0.05616 0.21232 0.66824 0.0
O470 O 0.11951 0.3115 0.67138 0.0
O471 O 0.09643 0.29201 0.68843 0.0
H472 H 0.15986 0.17281 0.71747 0.0
H473 H 0.18555 0.15925 0.73446 0.0
H474 H 0.14443 0.26277 0.7476 0.0
H475 H 0.11824 0.27621 0.73065 0.0
H476 H 0.17022 0.34606 0.642 0.0
H477 H 0.17317 0.37135 0.624 0.0
H478 H 0.17257 0.23654 0.61425 0.0
H479 H 0.16952 0.21112 0.63216 0.0
Sm480 Sm 0.78977 0.58158 0.50162 0.0
Sm481 Sm 0.78245 0.57617 0.52576 0.0
C482 C 0.8 0.60853 0.48218 0.0
C483 C 0.80687 0.62352 0.47124 0.0
C484 C 0.77415 0.63679 0.46634 0.0
C485 C 0.78099 0.65091 0.456 0.0
C486 C 0.82077 0.6522 0.45039 0.0
C487 C 0.85358 0.63916 0.45528 0.0
C488 C 0.84665 0.62485 0.46558 0.0
C489 C 0.80528 0.5074 0.51003 0.0
C490 C 0.8944 0.65051 0.5151 0.0
C491 C 0.77749 0.55367 0.54557 0.0
C492 C 0.7556 0.55419 0.55572 0.0
C493 C 0.7034 0.5246 0.55764 0.0
C494 C 0.68438 0.52045 0.56758 0.0
C495 C 0.71704 0.54573 0.5758 0.0
C496 C 0.7689 0.57637 0.57386 0.0
C497 C 0.78796 0.58045 0.56394 0.0
C498 C 0.74715 0.6399 0.51852 0.0
C499 C 0.68766 0.48905 0.51158 0.0
O500 O 0.76718 0.61146 0.48817 0.0
O501 O 0.82676 0.59117 0.48656 0.0
O502 O 0.82009 0.55061 0.51396 0.0
O503 O 0.7845 0.50433 0.50119 0.0
O504 O 0.87047 0.6446 0.5063 0.0
O505 O 0.86996 0.62563 0.52347 0.0
O506 O 0.74725 0.52218 0.5386 0.0
O507 O 0.81262 0.59651 0.54171 0.0
O508 O 0.76374 0.61637 0.51341 0.0
O509 O 0.7504 0.63101 0.52807 0.0
O510 O 0.71249 0.50067 0.52042 0.0
O511 O 0.7063 0.51855 0.50344 0.0
H512 H 0.74319 0.63615 0.47048 0.0
H513 H 0.75527 0.66085 0.45237 0.0
H514 H 0.88453 0.64 0.4511 0.0
H515 H 0.87262 0.615 0.46913 0.0
H516 H 0.67732 0.50352 0.55154 0.0
H517 H 0.64427 0.49651 0.5689 0.0
H518 H 0.79481 0.59604 0.58009 0.0
H519 H 0.82834 0.603 0.56274 0.0
Sm520 Sm 0.43105 0.2017 0.50173 0.0
Sm521 Sm 0.43703 0.20579 0.5262 0.0
C522 C 0.41462 0.17057 0.48234 0.0
C523 C 0.39749 0.17471 0.47189 0.0
C524 C 0.36596 0.13038 0.46638 0.0
C525 C 0.3534 0.13259 0.45612 0.0
C526 C 0.37214 0.17924 0.45116 0.0
C527 C 0.40271 0.22372 0.45672 0.0
C528 C 0.41536 0.22153 0.46698 0.0
C529 C 0.49557 0.29701 0.50966 0.0
C530 C 0.37101 0.24987 0.51368 0.0
C531 C 0.46029 0.2299 0.54586 0.0
C532 C 0.46437 0.21042 0.55613 0.0
C533 C 0.51174 0.22 0.55981 0.0
C534 C 0.51719 0.2064 0.5698 0.0
C535 C 0.47552 0.1831 0.5764 0.0
C536 C 0.428 0.1728 0.57273 0.0
C537 C 0.4225 0.18645 0.56273 0.0
C538 C 0.36686 0.10711 0.51955 0.0
C539 C 0.51806 0.1839 0.51376 0.0
O540 O 0.38077 0.14898 0.48955 0.0
O541 O 0.45759 0.20764 0.48571 0.0
O542 O 0.48824 0.2554 0.51328 0.0
O543 O 0.46834 0.28838 0.5014 0.0
O544 O 0.37183 0.22579 0.50531 0.0
O545 O 0.39679 0.2518 0.52206 0.0
O546 O 0.49328 0.23554 0.53887 0.0
O547 O 0.41541 0.21534 0.54201 0.0
O548 O 0.39304 0.14635 0.51433 0.0
O549 O 0.37767 0.12009 0.52905 0.0
O550 O 0.50249 0.19105 0.52272 0.0
O551 O 0.49547 0.18325 0.505 0.0
H552 H 0.35201 0.0938 0.46993 0.0
H553 H 0.32982 0.09783 0.45201 0.0
H554 H 0.41758 0.26015 0.45304 0.0
H555 H 0.43992 0.25636 0.47098 0.0
H556 H 0.545 0.23907 0.55504 0.0
H557 H 0.55423 0.21484 0.57244 0.0
H558 H 0.39528 0.15491 0.57767 0.0
H559 H 0.38558 0.17903 0.56025 0.0
Sm560 Sm 0.81217 0.2326 0.50152 0.0
Sm561 Sm 0.80983 0.22807 0.52675 0.0
C562 C 0.84932 0.24493 0.48273 0.0
C563 C 0.84179 0.22637 0.47199 0.0
C564 C 0.84736 0.18493 0.4692 0.0
C565 C 0.84749 0.17262 0.45887 0.0
C566 C 0.84222 0.20154 0.45113 0.0
C567 C 0.83506 0.24185 0.45389 0.0
C568 C 0.83496 0.25419 0.4642 0.0
C569 C 0.71561 0.20244 0.50844 0.0
C570 C 0.76427 0.12101 0.51307 0.0
C571 C 0.78449 0.22206 0.54632 0.0
C572 C 0.80224 0.24728 0.5564 0.0
C573 C 0.77122 0.26048 0.56196 0.0
C574 C 0.78541 0.28195 0.57172 0.0
C575 C 0.83091 0.29058 0.57616 0.0
C576 C 0.86236 0.27796 0.5706 0.0
C577 C 0.84817 0.25647 0.56081 0.0
C578 C 0.90771 0.26179 0.51911 0.0
C579 C 0.83077 0.3337 0.51517 0.0
O580 O 0.85723 0.21948 0.48988 0.0
O581 O 0.82353 0.26594 0.48595 0.0
O582 O 0.75441 0.21285 0.51382 0.0
O583 O 0.72763 0.20628 0.49879 0.0
O584 O 0.78122 0.14695 0.50439 0.0
O585 O 0.76936 0.14312 0.5221 0.0
O586 O 0.77234 0.2453 0.53942 0.0
O587 O 0.80652 0.19841 0.54243 0.0
O588 O 0.86723 0.24919 0.51429 0.0
O589 O 0.89618 0.25531 0.52876 0.0
O590 O 0.82726 0.30963 0.52381 0.0
O591 O 0.82902 0.3133 0.50607 0.0
H592 H 0.85329 0.16299 0.47497 0.0
H593 H 0.85335 0.14155 0.45689 0.0
H594 H 0.83124 0.26483 0.44804 0.0
H595 H 0.83136 0.28674 0.46607 0.0
H596 H 0.73556 0.25362 0.55878 0.0
H597 H 0.76065 0.29148 0.57586 0.0
H598 H 0.89771 0.28446 0.57388 0.0
H599 H 0.87292 0.24672 0.55673 0.0
Sm600 Sm 0.91985 0.45012 0.69042 0.0
Sm601 Sm 0.92387 0.45576 0.66645 0.0
C602 C 0.94555 0.43739 0.70912 0.0
C603 C 0.96162 0.45599 0.71968 0.0
C604 C 0.98686 0.43631 0.72535 0.0
C605 C 0.9998 0.44992 0.73559 0.0
C606 C 0.98787 0.48367 0.74038 0.0
C607 C 0.96353 0.50439 0.73465 0.0
C608 C 0.95029 0.49048 0.72437 0.0
C609 C 0.85432 0.48271 0.68398 0.0
C610 C 0.98439 0.56235 0.67934 0.0
C611 C 0.9076 0.45256 0.64635 0.0
C612 C 0.89777 0.42266 0.63677 0.0
C613 C 0.84821 0.38667 0.63382 0.0
C614 C 0.83855 0.36348 0.62419 0.0
C615 C 0.87814 0.3759 0.61727 0.0
C616 C 0.92774 0.41076 0.62027 0.0
C617 C 0.93743 0.43402 0.62989 0.0
C618 C 0.99116 0.43049 0.67549 0.0
C619 C 0.83786 0.34881 0.67752 0.0
O620 O 0.97838 0.45842 0.7017 0.0
O621 O 0.89901 0.42324 0.7064 0.0
O622 O 0.88202 0.47258 0.67842 0.0
O623 O 0.86232 0.47707 0.69355 0.0
O624 O 0.97911 0.53492 0.68762 0.0
O625 O 0.96267 0.54078 0.67054 0.0
O626 O 0.87169 0.43727 0.65317 0.0
O627 O 0.95263 0.47281 0.65046 0.0
O628 O 0.94604 0.4154 0.67817 0.0
O629 O 1.00163 0.45994 0.66763 0.0
O630 O 0.85969 0.37302 0.66896 0.0
O631 O 0.85478 0.36973 0.68662 0.0
H632 H 0.99582 0.40956 0.7219 0.0
H633 H 0.01862 0.4336 0.73983 0.0
H634 H 0.95417 0.53065 0.73819 0.0
H635 H 0.93076 0.50608 0.72014 0.0
H636 H 0.81663 0.37741 0.63884 0.0
H637 H 0.8 0.33677 0.62202 0.0
H638 H 0.95881 0.42096 0.61504 0.0
H639 H 0.97591 0.46204 0.63182 0.0
Sm640 Sm 0.56948 0.47538 0.69013 0.0
Sm641 Sm 0.56546 0.47465 0.66762 0.0
C642 C 0.57092 0.49779 0.70986 0.0
C643 C 0.54725 0.49372 0.72003 0.0
C644 C 0.53522 0.53051 0.72315 0.0
C645 C 0.52236 0.53291 0.73335 0.0
C646 C 0.52151 0.49879 0.74065 0.0
C647 C 0.53138 0.46073 0.73748 0.0
C648 C 0.5442 0.45826 0.72729 0.0
C649 C 0.54943 0.38285 0.68238 0.0
C650 C 0.45709 0.43083 0.67915 0.0
C651 C 0.57237 0.46495 0.64745 0.0
C652 C 0.59773 0.4871 0.63752 0.0
C653 C 0.64828 0.50019 0.63573 0.0
C654 C 0.66895 0.51322 0.62586 0.0
C655 C 0.63957 0.51337 0.61759 0.0
C656 C 0.58974 0.50207 0.61943 0.0
C657 C 0.56905 0.48899 0.62928 0.0
C658 C 0.59171 0.56899 0.67595 0.0
C659 C 0.66993 0.49187 0.67891 0.0
O660 O 0.56455 0.52301 0.70248 0.0
O661 O 0.57658 0.46062 0.70656 0.0
O662 O 0.53087 0.40889 0.67888 0.0
O663 O 0.57702 0.40443 0.69039 0.0
O664 O 0.48468 0.45173 0.68746 0.0
O665 O 0.47915 0.42962 0.67054 0.0
O666 O 0.59692 0.45451 0.6543 0.0
O667 O 0.54268 0.47944 0.65151 0.0
O668 O 0.60816 0.54036 0.67885 0.0
O669 O 0.5616 0.54819 0.66827 0.0
O670 O 0.64152 0.47697 0.6706 0.0
O671 O 0.65341 0.5021 0.68736 0.0
H672 H 0.538 0.55894 0.71784 0.0
H673 H 0.51513 0.56274 0.73563 0.0
H674 H 0.5312 0.4342 0.743 0.0
H675 H 0.55398 0.42993 0.72522 0.0
H676 H 0.67141 0.49875 0.64186 0.0
H677 H 0.70743 0.52171 0.62462 0.0
H678 H 0.56633 0.50177 0.61317 0.0
H679 H 0.52987 0.47846 0.63038 0.0
Sm680 Sm 0.54684 0.104 0.69165 0.0
Sm681 Sm 0.54433 0.09579 0.66803 0.0
C682 C 0.51566 0.0839 0.71098 0.0
C683 C 0.52369 0.06816 0.72128 0.0
C684 C 0.493 0.0182 0.72453 0.0
C685 C 0.49678 1.00345 0.73449 0.0
C686 C 0.53314 0.03739 0.74157 0.0
C687 C 0.56037 0.08867 0.73843 0.0
C688 C 0.55662 0.10347 0.72844 0.0
C689 C 0.64504 0.16745 0.6847 0.0
C690 C 0.58915 0.03479 0.68105 0.0
C691 C 0.55506 0.1098 0.64782 0.0
C692 C 0.53713 0.1216 0.63811 0.0
C693 C 0.56901 0.16682 0.6329 0.0
C694 C 0.55624 0.17623 0.62315 0.0
C695 C 0.51129 0.1406 0.61832 0.0
C696 C 0.47863 0.0959 0.6236 0.0
C697 C 0.49145 0.08641 0.63337 0.0
C698 C 0.45271 0.02927 0.67758 0.0
C699 C 0.52546 0.18397 0.67865 0.0
O700 O 0.49903 0.05012 0.70367 0.0
O701 O 0.54734 0.12943 0.70767 0.0
O702 O 0.60628 0.13965 0.67934 0.0
O703 O 0.63261 0.15996 0.6943 0.0
O704 O 0.5641 0.03881 0.68892 0.0
O705 O 0.59242 0.05858 0.67235 0.0
O706 O 0.5789 0.14596 0.6545 0.0
O707 O 0.52754 0.06562 0.65211 0.0
O708 O 0.48231 0.07523 0.67991 0.0
O709 O 0.47257 0.01751 0.67005 0.0
O710 O 0.52413 0.15911 0.67026 0.0
O711 O 0.53252 0.16947 0.68776 0.0
H712 H 0.46455 0.99053 0.71947 0.0
H713 H 0.46907 0.96542 0.73659 0.0
H714 H 0.58333 0.11876 0.74365 0.0
H715 H 0.57844 0.14308 0.72645 0.0
H716 H 0.60472 0.19444 0.63625 0.0
H717 H 0.58206 0.21094 0.61925 0.0
H718 H 0.44371 0.06786 0.62006 0.0
H719 H 0.46612 0.051 0.63709 0.0
Sm720 Sm 0.57743 0.10331 0.16497 0.0
Sm721 Sm 0.57651 0.10078 0.19017 0.0
C722 C 0.57441 0.12497 0.14535 0.0
C723 C 0.59326 0.12579 0.1349 0.0
C724 C 0.57884 0.14697 0.12697 0.0
C725 C 0.59778 0.15094 0.11707 0.0
C726 C 0.63163 0.13381 0.11488 0.0
C727 C 0.64569 0.11194 0.12278 0.0
C728 C 0.62672 0.10807 0.13274 0.0
C729 C 0.61353 0.04109 0.17253 0.0
C730 C 0.67758 0.18991 0.17807 0.0
C731 C 0.58586 0.07364 0.20897 0.0
C732 C 0.56547 0.06062 0.21955 0.0
C733 C 0.53994 0.00992 0.22276 0.0
C734 C 0.52768 0.99759 0.23308 0.0
C735 C 0.54095 0.0357 0.24041 0.0
C736 C 0.56483 0.08623 0.23721 0.0
C737 C 0.57706 0.09861 0.22689 0.0
C738 C 0.54302 0.16517 0.18318 0.0
C739 C 0.46786 0.03593 0.17773 0.0
O740 O 0.60674 0.15717 0.15194 0.0
O741 O 0.54296 0.08111 0.14943 0.0
O742 O 0.59818 0.06639 0.17741 0.0
O743 O 0.60827 0.04709 0.16288 0.0
O744 O 0.65445 0.17311 0.16913 0.0
O745 O 0.65717 0.16648 0.18681 0.0
O746 O 0.56222 0.04109 0.2016 0.0
O747 O 0.6065 0.12075 0.20599 0.0
O748 O 0.55699 0.13951 0.17784 0.0
O749 O 0.54655 0.15612 0.19281 0.0
O750 O 0.49244 0.04335 0.18654 0.0
O751 O 0.49121 0.05663 0.16895 0.0
H752 H 0.55329 0.1611 0.12848 0.0
H753 H 0.58649 0.16796 0.11112 0.0
H754 H 0.67178 0.09851 0.12126 0.0
H755 H 0.63855 0.09183 0.13875 0.0
H756 H 0.53117 0.9798 0.21736 0.0
H757 H 0.50952 0.9584 0.23541 0.0
H758 H 0.57561 0.11617 0.24276 0.0
H759 H 0.5973 0.13806 0.22474 0.0
Sm760 Sm 0.92935 0.48065 0.16722 0.0
Sm761 Sm 0.92857 0.48096 0.18981 0.0
C762 C 0.90989 0.47073 0.14713 0.0
C763 C 0.90412 0.49227 0.1373 0.0
C764 C 0.85599 0.48247 0.1341 0.0
C765 C 0.84845 0.49574 0.12426 0.0
C766 C 0.88874 0.51894 0.11734 0.0
C767 C 0.93717 0.53015 0.12058 0.0
C768 C 0.94475 0.51674 0.13044 0.0
C769 C 0.99711 0.57532 0.17546 0.0
C770 C 0.84242 0.49622 0.17909 0.0
C771 C 0.95315 0.5048 0.20939 0.0
C772 C 0.97179 0.49983 0.21963 0.0
C773 C 0.01955 0.53743 0.22312 0.0
C774 C 0.03378 0.53886 0.23338 0.0
C775 C 1.00044 0.50291 0.2404 0.0
C776 C 0.9536 0.46408 0.23686 0.0
C777 C 0.93937 0.46255 0.2266 0.0
C778 C 0.85552 0.38834 0.18223 0.0
C779 C 0.99486 0.43613 0.17839 0.0
O780 O 0.87568 0.4592 0.15417 0.0
O781 O 0.95488 0.48652 0.15098 0.0
O782 O 0.95268 0.54574 0.17857 0.0
O783 O 1.00647 0.55508 0.16771 0.0
O784 O 0.85584 0.48283 0.17058 0.0
O785 O 0.86983 0.50609 0.18747 0.0
O786 O 0.98494 0.52724 0.20188 0.0
O787 O 0.90853 0.46983 0.20628 0.0
O788 O 0.89949 0.41468 0.17846 0.0
O789 O 0.85099 0.40921 0.19049 0.0
O790 O 0.98835 0.45603 0.18684 0.0
O791 O 0.97172 0.43623 0.16982 0.0
H792 H 0.82361 0.46292 0.13908 0.0
H793 H 0.81078 0.48662 0.12193 0.0
H794 H 0.96881 0.54798 0.11537 0.0
H795 H 0.98212 0.52416 0.13256 0.0
H796 H 0.04509 0.56717 0.21802 0.0
H797 H 0.07001 0.56928 0.23594 0.0
H798 H 0.92721 0.43609 0.24215 0.0
H799 H 0.90205 0.43343 0.22425 0.0
Sm800 Sm 0.55181 0.45294 0.16638 0.0
Sm801 Sm 0.54693 0.44878 0.19011 0.0
C802 C 0.56731 0.44891 0.14639 0.0
C803 C 0.54827 0.42069 0.13658 0.0
C804 C 0.57991 0.40887 0.13087 0.0
C805 C 0.56576 0.38759 0.12107 0.0
C806 C 0.51959 0.37766 0.11673 0.0
C807 C 0.48723 0.38825 0.12251 0.0
C808 C 0.50144 0.40966 0.13233 0.0
C809 C 0.45728 0.42717 0.17452 0.0
C810 C 0.53121 0.34729 0.17778 0.0
C811 C 0.50845 0.43826 0.20873 0.0
C812 C 0.51496 0.45701 0.21946 0.0
C813 C 0.50349 0.49461 0.22226 0.0
C814 C 0.50249 0.50647 0.2326 0.0
C815 C 0.51264 0.4808 0.24033 0.0
C816 C 0.52552 0.44439 0.23754 0.0
C817 C 0.5266 0.43257 0.22724 0.0
C818 C 0.64623 0.48173 0.18506 0.0
C819 C 0.59748 0.56103 0.17874 0.0
O820 O 0.58448 0.43086 0.15342 0.0
O821 O 0.54422 0.47136 0.15024 0.0
O822 O 0.48712 0.41273 0.1777 0.0
O823 O 0.47726 0.45593 0.16662 0.0
O824 O 0.53596 0.37134 0.16906 0.0
O825 O 0.53158 0.36785 0.18673 0.0
O826 O 0.5011 0.46327 0.20139 0.0
O827 O 0.53451 0.4171 0.20579 0.0
O828 O 0.61049 0.47111 0.17875 0.0
O829 O 0.62974 0.47571 0.19439 0.0
O830 O 0.57451 0.53397 0.18701 0.0
O831 O 0.59726 0.53856 0.17007 0.0
H832 H 0.61638 0.41736 0.13388 0.0
H833 H 0.59133 0.37974 0.11678 0.0
H834 H 0.45138 0.38081 0.11934 0.0
H835 H 0.47623 0.4185 0.13648 0.0
H836 H 0.49363 0.5137 0.21651 0.0
H837 H 0.49213 0.53446 0.2346 0.0
H838 H 0.53315 0.42393 0.24338 0.0
H839 H 0.53474 0.40287 0.22538 0.0
Sm840 Sm 0.43743 0.23118 0.02446 0.0
Sm841 Sm 0.43572 0.23373 1.00202 0.0
C842 C 0.45447 0.23419 0.04464 0.0
C843 C 0.46073 0.26068 0.05461 0.0
C844 C 0.50839 0.30017 0.05773 0.0
C845 C 0.51592 0.32012 0.06767 0.0
C846 C 0.47611 0.301 0.07475 0.0
C847 C 0.42818 0.26255 0.07159 0.0
C848 C 0.42063 0.24249 0.06166 0.0
C849 C 0.36597 0.25546 0.01661 0.0
C850 C 0.52361 0.33537 0.01357 0.0
C851 C 0.42463 0.24952 0.98241 0.0
C852 C 0.41001 0.22899 0.97188 0.0
C853 C 0.35969 0.19368 0.9693 0.0
C854 C 0.34547 0.18106 0.95903 0.0
C855 C 0.38122 0.20356 0.95119 0.0
C856 C 0.43174 0.23727 0.95378 0.0
C857 C 0.44596 0.24988 0.96402 0.0
C858 C 0.49481 0.19349 1.00903 0.0
C859 C 0.36977 0.12541 1.01244 0.0
O860 O 0.48998 0.25532 0.0378 0.0
O861 O 0.40965 0.20903 0.04051 0.0
O862 O 0.41059 0.27205 0.01353 0.0
O863 O 0.35851 0.22582 0.02428 0.0
O864 O 0.50448 0.31233 0.02235 0.0
O865 O 0.50277 0.31404 1.00474 0.0
O866 O 0.38917 0.23675 0.98927 0.0
O867 O 0.46688 0.25569 0.98624 0.0
O868 O 0.49261 0.2302 0.01288 0.0
O869 O 0.46439 0.1765 1.00124 0.0
O870 O 0.36634 0.15524 1.00558 0.0
O871 O 0.40204 0.14628 0.0201 0.0
H872 H 0.54039 0.31472 0.0526 0.0
H873 H 0.55323 0.34971 0.06992 0.0
H874 H 0.39689 0.24715 0.07691 0.0
H875 H 0.38366 0.21162 0.0596 0.0
H876 H 0.33096 0.17716 0.97515 0.0
H877 H 0.30626 0.15513 0.95718 0.0
H878 H 0.45982 0.25522 0.94784 0.0
H879 H 0.48481 0.27761 0.96576 0.0
Sm880 Sm 0.78848 0.21056 0.02361 0.0
Sm881 Sm 0.78842 0.21037 1.00105 0.0
C882 C 0.78107 0.2198 0.04376 0.0
C883 C 0.75216 0.19979 0.05342 0.0
C884 C 0.73813 0.23017 0.05898 0.0
C885 C 0.7169 0.21583 0.06875 0.0
C886 C 0.70924 0.17077 0.07319 0.0
C887 C 0.72189 0.13952 0.06757 0.0
C888 C 0.74322 0.1539 0.05777 0.0
C889 C 0.76605 0.11729 0.01526 0.0
C890 C 0.68354 0.1865 1.01118 0.0
C891 C 0.7903 0.18921 0.98139 0.0
C892 C 0.81381 0.19443 0.97119 0.0
C893 C 0.83025 0.16078 0.96822 0.0
C894 C 0.84267 0.15829 0.95801 0.0
C895 C 0.83871 0.18921 0.95056 0.0
C896 C 0.82457 0.22445 0.95356 0.0
C897 C 0.81213 0.22698 0.96377 0.0
C898 C 0.8028 0.30087 1.00891 0.0
C899 C 0.89871 0.25512 0.01271 0.0
O900 O 0.7644 0.23911 0.03694 0.0
O901 O 0.80311 0.19689 0.03967 0.0
O902 O 0.74895 0.14515 1.01224 0.0
O903 O 0.796 0.13891 0.02293 0.0
O904 O 0.70999 0.20282 0.01975 0.0
O905 O 0.7027 0.17536 1.00327 0.0
O906 O 0.79996 0.16657 0.98882 0.0
O907 O 0.78013 0.22365 0.98459 0.0
O908 O 0.82289 0.27649 1.01253 0.0
O909 O 0.77929 0.28044 1.00049 0.0
O910 O 0.87254 0.23364 1.0043 0.0
O911 O 0.87533 0.25672 0.02108 0.0
H912 H 0.7451 0.26597 0.0559 0.0
H913 H 0.70754 0.24055 0.07295 0.0
H914 H 0.71637 0.10463 0.07086 0.0
H915 H 0.7539 0.12976 0.05373 0.0
H916 H 0.83117 0.13459 0.97367 0.0
H917 H 0.85325 0.13067 0.95583 0.0
H918 H 0.82101 0.24843 0.94792 0.0
H919 H 0.79887 0.25275 0.96575 0.0
Sm920 Sm 0.80834 0.58364 0.02631 0.0
Sm921 Sm 0.80876 0.58604 1.00162 0.0
C922 C 0.7851 0.56302 0.04599 0.0
C923 C 0.80516 0.55867 0.05608 0.0
C924 C 0.77543 0.51631 0.06222 0.0
C925 C 0.79188 0.51179 0.07198 0.0
C926 C 0.83846 0.54962 0.07583 0.0
C927 C 0.86866 0.59185 0.06968 0.0
C928 C 0.85217 0.59639 0.05989 0.0
C929 C 0.90536 0.65146 0.01889 0.0
C930 C 0.82887 0.50144 0.01393 0.0
C931 C 0.83759 0.59763 0.98219 0.0
C932 C 0.83426 0.61314 0.9716 0.0
C933 C 0.84007 0.66074 0.96932 0.0
C934 C 0.8428 0.67626 0.95911 0.0
C935 C 0.83998 0.64455 0.95106 0.0
C936 C 0.8328 0.5966 0.95333 0.0
C937 C 0.82991 0.58106 0.9635 0.0
C938 C 0.71525 0.52379 1.01047 0.0
C939 C 0.76515 0.64997 0.01349 0.0
O940 O 0.77669 0.52854 0.03913 0.0
O941 O 0.80234 0.60805 0.04203 0.0
O942 O 0.86504 0.62492 0.01401 0.0
O943 O 0.89465 0.64245 0.02852 0.0
O944 O 0.82352 0.51833 0.02291 0.0
O945 O 0.82765 0.52247 1.00512 0.0
O946 O 0.86043 0.63266 0.98918 0.0
O947 O 0.79971 0.55587 0.98576 0.0
O948 O 0.75768 0.53185 0.01369 0.0
O949 O 0.72173 0.548 1.00186 0.0
O950 O 0.78754 0.64731 1.00502 0.0
O951 O 0.76351 0.62487 0.02195 0.0
H952 H 0.73903 0.48679 0.0595 0.0
H953 H 0.76801 0.47888 0.07657 0.0
H954 H 0.9048 0.62141 0.07248 0.0
H955 H 0.87598 0.62946 0.05534 0.0
H956 H 0.8438 0.68638 0.97541 0.0
H957 H 0.84856 0.71351 0.9575 0.0
H958 H 0.83074 0.57169 0.94724 0.0
H959 H 0.82588 0.54441 0.96505 0.0
Sm960 Sm 0.45741 0.92208 0.83439 0.0
Sm961 Sm 0.45286 0.91247 0.85872 0.0
C962 C 0.44293 0.93882 0.81505 0.0
C963 C 0.46516 0.95682 0.80477 0.0
C964 C 0.44791 0.98337 0.79878 0.0
C965 C 0.46439 0.99689 0.78868 0.0
C966 C 0.49852 0.98413 0.78437 0.0
C967 C 0.51679 0.95861 0.79042 0.0
C968 C 0.5002 0.94497 0.80053 0.0
C969 C 0.49162 0.85987 0.84206 0.0
C970 C 0.56408 0.98474 0.84672 0.0
C971 C 0.45325 0.88837 0.87834 0.0
C972 C 0.42981 0.88497 0.88853 0.0
C973 C 0.41136 0.84017 0.89422 0.0
C974 C 0.39125 0.83617 0.90404 0.0
C975 C 0.38914 0.87694 0.90845 0.0
C976 C 0.40705 0.92171 0.90274 0.0
C977 C 0.42724 0.92574 0.89288 0.0
C978 C 0.41968 0.97932 0.85237 0.0
C979 C 0.35288 0.83097 0.84552 0.0
O980 O 0.45435 0.97227 0.82233 0.0
O981 O 0.43781 0.89603 0.81833 0.0
O982 O 0.45538 0.86428 0.84558 0.0
O983 O 0.51093 0.88929 0.83414 0.0
O984 O 0.53917 0.98321 0.83828 0.0
O985 O 0.5399 0.95804 0.85499 0.0
O986 O 0.42511 0.85582 0.87134 0.0
O987 O 0.48423 0.93303 0.87454 0.0
O988 O 0.43543 0.95579 0.84704 0.0
O989 O 0.4214 0.96756 0.86182 0.0
O990 O 0.37551 0.84337 0.85457 0.0
O991 O 0.37481 0.85723 0.83712 0.0
H992 H 0.42068 0.99266 0.80186 0.0
H993 H 0.44985 0.01654 0.78416 0.0
H994 H 0.54318 0.94846 0.78723 0.0
H995 H 0.51401 0.9244 0.80496 0.0
H996 H 0.41302 0.80824 0.8911 0.0
H997 H 0.3777 0.80127 0.90825 0.0
H998 H 0.40573 0.95365 0.90595 0.0
H999 H 0.44113 0.96081 0.88872 0.0
Sm1000 Sm 0.10207 0.54057 0.83385 0.0
Sm1001 Sm 0.10938 0.54754 0.85817 0.0
C1002 C 0.08764 0.50874 0.81457 0.0
C1003 C 0.06869 0.50999 0.80419 0.0
C1004 C 0.04378 0.46481 0.7986 0.0
C1005 C 0.02951 0.46474 0.78842 0.0
C1006 C 0.03984 0.5099 0.7836 0.0
C1007 C 0.06353 0.5551 0.78925 0.0
C1008 C 0.07803 0.5552 0.79947 0.0
C1009 C 0.16391 0.63777 0.84138 0.0
C1010 C 0.03859 0.58506 0.84521 0.0
C1011 C 0.13175 0.57279 0.87783 0.0
C1012 C 0.1354 0.5536 0.88817 0.0
C1013 C 0.17868 0.55126 0.89107 0.0
C1014 C 0.18455 0.53846 0.9011 0.0
C1015 C 0.14746 0.52779 0.90854 0.0
C1016 C 0.10382 0.52923 0.90566 0.0
C1017 C 0.09796 0.54218 0.89562 0.0
C1018 C 0.04269 0.44676 0.85198 0.0
C1019 C 0.19196 0.52802 0.84571 0.0
O1020 O 0.0546 0.48519 0.82183 0.0
O1021 O 0.12884 0.54856 0.81782 0.0
O1022 O 0.15909 0.59735 0.84513 0.0
O1023 O 0.13616 0.627 0.83319 0.0
O1024 O 0.03756 0.55686 0.83743 0.0
O1025 O 0.06695 0.59118 0.85345 0.0
O1026 O 0.16491 0.57803 0.87092 0.0
O1027 O 0.08704 0.55825 0.87388 0.0
O1028 O 0.06695 0.48576 0.8466 0.0
O1029 O 0.05356 0.46096 0.86141 0.0
O1030 O 0.17953 0.54021 0.85453 0.0
O1031 O 0.16531 0.52132 0.83723 0.0
H1032 H 0.0364 0.42955 0.80204 0.0
H1033 H 1.01122 0.42948 0.78422 0.0
H1034 H 0.07169 0.59034 0.78569 0.0
H1035 H 0.09726 0.59059 0.8036 0.0
H1036 H 0.20872 0.56038 0.88564 0.0
H1037 H 0.21856 0.53768 0.90311 0.0
H1038 H 0.07464 0.52119 0.91125 0.0
H1039 H 0.06452 0.54428 0.89375 0.0
Sm1040 Sm 0.48214 0.56665 0.835 0.0
Sm1041 Sm 0.48333 0.57172 0.85765 0.0
C1042 C 0.50534 0.57575 0.81522 0.0
C1043 C 0.49786 0.5535 0.80479 0.0
C1044 C 0.5254 0.53032 0.80159 0.0
C1045 C 0.52534 0.51743 0.7913 0.0
C1046 C 0.49794 0.52758 0.78397 0.0
C1047 C 0.46892 0.54894 0.78717 0.0
C1048 C 0.46897 0.56189 0.79746 0.0
C1049 C 0.38592 0.53314 0.84283 0.0
C1050 C 0.43929 0.46005 0.84737 0.0
C1051 C 0.48562 0.59137 0.87749 0.0
C1052 C 0.4905 0.6046 0.88855 0.0
C1053 C 0.44822 0.58439 0.89505 0.0
C1054 C 0.45331 0.59968 0.90533 0.0
C1055 C 0.50084 0.635 0.90933 0.0
C1056 C 0.54314 0.6544 0.90291 0.0
C1057 C 0.53802 0.63956 0.89264 0.0
C1058 C 0.57467 0.58719 0.84904 0.0
C1059 C 0.4949 0.67012 0.84512 0.0
O1060 O 0.5279 0.56309 0.8222 0.0
O1061 O 0.47116 0.58498 0.81902 0.0
O1062 O 0.4264 0.57022 0.84612 0.0
O1063 O 0.39589 0.51238 0.8352 0.0
O1064 O 0.46533 0.48564 0.83923 0.0
O1065 O 0.43602 0.48455 0.85542 0.0
O1066 O 0.44823 0.55057 0.87342 0.0
O1067 O 0.52046 0.62059 0.87104 0.0
O1068 O 0.54771 0.60509 0.84601 0.0
O1069 O 0.5522 0.55841 0.85681 0.0
O1070 O 0.48035 0.64421 0.85374 0.0
O1071 O 0.50397 0.65057 0.83694 0.0
H1072 H 0.54871 0.52398 0.80695 0.0
H1073 H 0.54822 0.50125 0.78898 0.0
H1074 H 0.44778 0.55739 0.78163 0.0
H1075 H 0.44802 0.58041 0.7996 0.0
H1076 H 0.41112 0.5576 0.89212 0.0
H1077 H 0.42015 0.58432 0.91016 0.0
H1078 H 0.5801 0.68168 0.90582 0.0
H1079 H 0.5714 0.6558 0.88787 0.0
Sm1080 Sm 0.58577 0.7901 0.02467 0.0
Sm1081 Sm 0.58441 0.78592 1.00044 0.0
C1082 C 0.60281 0.79294 0.0446 0.0
C1083 C 0.63167 0.81068 0.05431 0.0
C1084 C 0.64127 0.7773 0.05998 0.0
C1085 C 0.6593 0.78883 0.07003 0.0
C1086 C 0.66793 0.8339 0.07461 0.0
C1087 C 0.66079 0.86854 0.06883 0.0
C1088 C 0.64264 0.85697 0.05876 0.0
C1089 C 0.50995 0.8012 0.01544 0.0
C1090 C 0.65575 0.89572 1.01244 0.0
C1091 C 0.56127 0.78458 0.98078 0.0
C1092 C 0.55347 0.75753 0.97084 0.0
C1093 C 0.50772 0.71306 0.96861 0.0
C1094 C 0.49865 0.69106 0.95885 0.0
C1095 C 0.53497 0.71306 0.95109 0.0
C1096 C 0.58096 0.75685 0.95333 0.0
C1097 C 0.59006 0.77888 0.96308 0.0
C1098 C 0.64982 0.75351 1.0077 0.0
C1099 C 0.50213 0.68459 0.01403 0.0
O1100 O 0.61059 0.76408 0.03833 0.0
O1101 O 0.58694 0.8207 0.04008 0.0
O1102 O 0.55447 0.81924 1.01205 0.0
O1103 O 0.50671 0.78152 0.02435 0.0
O1104 O 0.65108 0.86998 0.0209 0.0
O1105 O 0.63143 0.8728 1.00387 0.0
O1106 O 0.52745 0.76232 0.98799 0.0
O1107 O 0.60746 0.8112 0.98436 0.0
O1108 O 0.62459 0.76791 0.01293 0.0
O1109 O 0.64206 0.75787 0.99812 0.0
O1110 O 0.51611 0.70753 1.00502 0.0
O1111 O 0.52743 0.70606 0.0225 0.0
H1112 H 0.63252 0.74109 0.05681 0.0
H1113 H 0.66459 0.76164 0.07437 0.0
H1114 H 0.66731 0.90355 0.07224 0.0
H1115 H 0.63521 0.88332 0.05464 0.0
H1116 H 0.47835 0.6958 0.97432 0.0
H1117 H 0.46283 0.65742 0.95728 0.0
H1118 H 0.60945 0.77456 0.94745 0.0
H1119 H 0.62534 0.81343 0.96447 0.0
Sm1120 Sm 0.23256 0.80813 0.02291 0.0
Sm1121 Sm 0.23133 0.80697 1.00037 0.0
C1122 C 0.23024 0.8335 0.04238 0.0
C1123 C 0.20707 0.82662 0.05273 0.0
C1124 C 0.19187 0.86042 0.05612 0.0
C1125 C 0.17574 0.85901 0.06622 0.0
C1126 C 0.17149 0.82198 0.07333 0.0
C1127 C 0.19131 0.79114 0.06998 0.0
C1128 C 0.20753 0.79258 0.05987 0.0
C1129 C 0.20828 0.71337 0.01578 0.0
C1130 C 0.12202 0.76561 1.01116 0.0
C1131 C 0.24321 0.799 0.98026 0.0
C1132 C 0.26948 0.82017 0.97031 0.0
C1133 C 0.30465 0.80684 0.96669 0.0
C1134 C 0.32472 0.81995 0.9568 0.0
C1135 C 0.31012 0.84664 0.9502 0.0
C1136 C 0.276 0.86126 0.95384 0.0
C1137 C 0.25569 0.84796 0.96377 0.0
C1138 C 0.2626 0.90312 1.0085 0.0
C1139 C 0.33126 0.8184 1.01219 0.0
O1140 O 0.21288 0.84822 0.03475 0.0
O1141 O 0.24827 0.80469 0.03948 0.0
O1142 O 0.19347 0.74136 1.01165 0.0
O1143 O 0.2316 0.73294 0.02432 0.0
O1144 O 0.14895 0.78657 0.01953 0.0
O1145 O 0.14463 0.76361 1.0027 0.0
O1146 O 0.26767 0.79023 0.98739 0.0
O1147 O 0.21155 0.81181 0.98398 0.0
O1148 O 0.27622 0.8725 1.01157 0.0
O1149 O 0.2298 0.88184 1.00124 0.0
O1150 O 0.30138 0.79975 1.00417 0.0
O1151 O 0.31676 0.83376 0.02025 0.0
H1152 H 0.19446 0.8897 0.05107 0.0
H1153 H 0.169 0.88911 0.06839 0.0
H1154 H 0.19704 0.76703 0.07516 0.0
H1155 H 0.22231 0.76821 0.05777 0.0
H1156 H 0.31553 0.7847 0.97141 0.0
H1157 H 0.35083 0.80814 0.95419 0.0
H1158 H 0.26414 0.88188 0.94891 0.0
H1159 H 0.22824 0.85829 0.96621 0.0
Sm1160 Sm 0.2129 0.43437 0.02277 0.0
Sm1161 Sm 0.2145 0.43346 0.99998 0.0
C1162 C 0.18627 0.42396 0.04239 0.0
C1163 C 0.19066 0.40772 0.05289 0.0
C1164 C 0.17232 0.35661 0.05532 0.0
C1165 C 0.16988 0.3414 0.06554 0.0
C1166 C 0.18556 0.37691 0.07352 0.0
C1167 C 0.20551 0.42807 0.07108 0.0
C1168 C 0.20794 0.44328 0.06088 0.0
C1169 C 0.31049 0.49268 0.01501 0.0
C1170 C 0.25337 0.36577 1.01233 0.0
C1171 C 0.22554 0.44915 0.97974 0.0
C1172 C 0.20966 0.46413 0.97014 0.0
C1173 C 0.24611 0.50425 0.96423 0.0
C1174 C 0.23402 0.51504 0.95453 0.0
C1175 C 0.18513 0.4859 0.95046 0.0
C1176 C 0.14818 0.44663 0.95645 0.0
C1177 C 0.16029 0.43576 0.96617 0.0
C1178 C 0.12034 0.3644 1.00832 0.0
C1179 C 0.19441 0.51896 1.01103 0.0
O1180 O 0.16175 0.38936 0.03542 0.0
O1181 O 0.22418 0.46511 0.03866 0.0
O1182 O 0.27058 0.48937 1.01139 0.0
O1183 O 0.29898 0.46454 0.02312 0.0
O1184 O 0.2229 0.36514 0.01956 0.0
O1185 O 0.26225 0.39528 1.00425 0.0
O1186 O 0.25265 0.48364 0.98649 0.0
O1187 O 0.19448 0.40589 0.98395 0.0
O1188 O 0.14936 0.40915 1.01123 0.0
O1189 O 0.142 0.35422 1.00092 0.0
O1190 O 0.19415 0.49664 1.00231 0.0
O1191 O 0.20093 0.50222 0.0199 0.0
H1192 H 0.15834 0.32813 0.04938 0.0
H1193 H 0.15429 0.30171 0.06726 0.0
H1194 H 0.21764 0.45606 0.0771 0.0
H1195 H 0.22166 0.48278 0.05927 0.0
H1196 H 0.28457 0.52642 0.967 0.0
H1197 H 0.26321 0.54549 0.95008 0.0
H1198 H 0.11019 0.42365 0.9535 0.0
H1199 H 0.13129 0.40433 0.97044 0.0
Sm1200 Sm 0.23533 0.42945 0.50016 0.0
Sm1201 Sm 0.23556 0.42774 0.52424 0.0
C1202 C 0.24364 0.45069 0.48018 0.0
C1203 C 0.26755 0.45216 0.47014 0.0
C1204 C 0.31727 0.49034 0.4679 0.0
C1205 C 0.33675 0.49595 0.45797 0.0
C1206 C 0.30703 0.46366 0.45004 0.0
C1207 C 0.25796 0.42469 0.45231 0.0
C1208 C 0.23841 0.4191 0.46223 0.0
C1209 C 0.26119 0.3614 0.50874 0.0
C1210 C 0.33629 0.51661 0.51294 0.0
C1211 C 0.24239 0.4001 0.54317 0.0
C1212 C 0.22183 0.38618 0.55374 0.0
C1213 C 0.20027 0.33583 0.55707 0.0
C1214 C 0.1886 0.3234 0.56742 0.0
C1215 C 0.19854 0.36109 0.57467 0.0
C1216 C 0.21839 0.41111 0.57135 0.0
C1217 C 0.22998 0.42357 0.561 0.0
C1218 C 0.1998 0.49144 0.51778 0.0
C1219 C 0.12616 0.36551 0.51209 0.0
O1220 O 0.2712 0.48303 0.48725 0.0
O1221 O 0.20982 0.40717 0.48397 0.0
O1222 O 0.27394 0.4051 0.51203 0.0
O1223 O 0.23534 0.35355 0.5004 0.0
O1224 O 0.31174 0.50132 0.5041 0.0
O1225 O 0.31712 0.49226 0.5216 0.0
O1226 O 0.22048 0.36761 0.53569 0.0
O1227 O 0.26197 0.44725 0.54027 0.0
O1228 O 0.21349 0.46639 0.5123 0.0
O1229 O 0.20566 0.48316 0.52732 0.0
O1230 O 0.15238 0.36751 0.52037 0.0
O1231 O 0.14926 0.39068 0.50366 0.0
H1232 H 0.34069 0.51697 0.47373 0.0
H1233 H 0.37463 0.52638 0.4564 0.0
H1234 H 0.23426 0.3995 0.44631 0.0
H1235 H 0.19978 0.38987 0.46364 0.0
H1236 H 0.19427 0.30625 0.55174 0.0
H1237 H 0.17356 0.28462 0.56983 0.0
H1238 H 0.22654 0.44078 0.57682 0.0
H1239 H 0.24712 0.46281 0.55877 0.0
Sm1240 Sm 0.58249 0.80424 0.4991 0.0
Sm1241 Sm 0.58873 0.80772 0.52455 0.0
C1242 C 0.56014 0.78235 0.47938 0.0
C1243 C 0.55396 0.80378 0.46957 0.0
C1244 C 0.50571 0.78488 0.4653 0.0
C1245 C 0.49878 0.80342 0.45599 0.0
C1246 C 0.53952 0.84371 0.45072 0.0
C1247 C 0.58843 0.85795 0.45454 0.0
C1248 C 0.59543 0.83949 0.4639 0.0
C1249 C 0.64643 0.90277 0.50649 0.0
C1250 C 0.49978 0.82102 0.5126 0.0
C1251 C 0.61914 0.84432 0.54331 0.0
C1252 C 0.63495 0.8373 0.55372 0.0
C1253 C 0.68455 0.86937 0.55707 0.0
C1254 C 0.6993 0.86692 0.56713 0.0
C1255 C 0.66579 0.83047 0.57424 0.0
C1256 C 0.61471 0.80174 0.57096 0.0
C1257 C 0.59992 0.80417 0.56088 0.0
C1258 C 0.5201 0.71094 0.51765 0.0
C1259 C 0.64801 0.75898 0.51173 0.0
O1260 O 0.52618 0.77218 0.48647 0.0
O1261 O 0.60577 0.7998 0.48315 0.0
O1262 O 0.62142 0.8623 0.51146 0.0
O1263 O 0.63848 0.89096 0.49688 0.0
O1264 O 0.51383 0.81251 0.50358 0.0
O1265 O 0.52509 0.8262 0.52122 0.0
O1266 O 0.65035 0.85418 0.53564 0.0
O1267 O 0.57152 0.81678 0.54065 0.0
O1268 O 0.54724 0.75001 0.51231 0.0
O1269 O 0.53075 0.72286 0.52728 0.0
O1270 O 0.64286 0.77763 0.52055 0.0
O1271 O 0.62747 0.76275 0.50299 0.0
H1272 H 0.47301 0.7548 0.46909 0.0
H1273 H 0.46094 0.7845 0.45291 0.0
H1274 H 0.62225 0.88203 0.45032 0.0
H1275 H 0.63358 0.85256 0.46656 0.0
H1276 H 0.71184 0.8979 0.55199 0.0
H1277 H 0.73689 0.89569 0.56928 0.0
H1278 H 0.58468 0.7785 0.57616 0.0
H1279 H 0.56045 0.78113 0.55883 0.0
Sm1280 Sm 0.20408 0.77807 0.50157 0.0
Sm1281 Sm 0.21134 0.77851 0.52415 0.0
C1282 C 0.20147 0.76916 0.48122 0.0
C1283 C 0.19892 0.74057 0.47178 0.0
C1284 C 0.23948 0.76081 0.46484 0.0
C1285 C 0.23416 0.73963 0.45506 0.0
C1286 C 0.18806 0.69794 0.452 0.0
C1287 C 0.14818 0.67635 0.45904 0.0
C1288 C 0.15351 0.69736 0.46882 0.0
C1289 C 0.11623 0.76209 0.51155 0.0
C1290 C 0.19102 0.6747 0.51256 0.0
C1291 C 0.1898 0.76489 0.54399 0.0
C1292 C 0.19459 0.78788 0.55425 0.0
C1293 C 0.16799 0.81308 0.55669 0.0
C1294 C 0.16576 0.82691 0.56681 0.0
C1295 C 0.19006 0.81589 0.57468 0.0
C1296 C 0.21832 0.79265 0.57222 0.0
C1297 C 0.22044 0.77865 0.56211 0.0
C1298 C 0.30479 0.81242 0.51499 0.0
C1299 C 0.24994 0.8875 0.5131 0.0
O1300 O 0.24369 0.79363 0.4864 0.0
O1301 O 0.16155 0.75122 0.48703 0.0
O1302 O 0.14306 0.74269 0.51374 0.0
O1303 O 0.1381 0.79432 0.50422 0.0
O1304 O 0.19155 0.69717 0.50386 0.0
O1305 O 0.1969 0.69764 0.52145 0.0
O1306 O 0.16154 0.77031 0.53714 0.0
O1307 O 0.22887 0.76448 0.54003 0.0
O1308 O 0.26314 0.77599 0.51191 0.0
O1309 O 0.29731 0.83213 0.52315 0.0
O1310 O 0.22723 0.86035 0.52133 0.0
O1311 O 0.25125 0.86467 0.5046 0.0
H1312 H 0.27465 0.79444 0.46679 0.0
H1313 H 0.26536 0.75705 0.44974 0.0
H1314 H 0.11223 0.64433 0.45683 0.0
H1315 H 0.1212 0.68097 0.47388 0.0
H1316 H 0.14721 0.8204 0.55087 0.0
H1317 H 0.14358 0.84461 0.56856 0.0
H1318 H 0.23707 0.78357 0.5782 0.0
H1319 H 0.24062 0.7587 0.56051 0.0
Sm1320 Sm 0.10625 0.5677 0.35782 0.0
Sm1321 Sm 0.10262 0.56261 0.33526 0.0
C1322 C 0.1246 0.58609 0.37767 0.0
C1323 C 0.13698 0.59988 0.38864 0.0
C1324 C 0.16754 0.65082 0.39145 0.0
C1325 C 0.17714 0.66493 0.40177 0.0
C1326 C 0.15595 0.62855 0.40954 0.0
C1327 C 0.12606 0.57746 0.40676 0.0
C1328 C 0.11694 0.56322 0.3964 0.0
C1329 C 0.02975 0.58296 0.34937 0.0
C1330 C 0.19443 0.66561 0.34538 0.0
C1331 C 0.08852 0.57227 0.31546 0.0
C1332 C 0.07395 0.55092 0.30494 0.0
C1333 C 0.02346 0.52877 0.30159 0.0
C1334 C 1.01106 0.51688 0.29123 0.0
C1335 C 0.04884 0.52709 0.28399 0.0
C1336 C 0.09897 0.54744 0.28735 0.0
C1337 C 0.11142 0.55934 0.2977 0.0
C1338 C 0.16476 0.52821 0.34307 0.0
C1339 C 0.03921 0.456 0.34752 0.0
O1340 O 0.11364 0.54246 0.37369 0.0
O1341 O 0.12539 0.61868 0.37114 0.0
O1342 O 0.07441 0.60083 0.34617 0.0
O1343 O 0.02433 0.55471 0.35719 0.0
O1344 O 0.18076 0.64141 0.35419 0.0
O1345 O 0.16848 0.64491 0.33693 0.0
O1346 O 0.05332 0.55958 0.32239 0.0
O1347 O 0.13173 0.58095 0.3193 0.0
O1348 O 0.16168 0.56538 0.34644 0.0
O1349 O 0.13363 0.50756 0.33546 0.0
O1350 O 0.03871 0.48143 0.33935 0.0
O1351 O 0.06717 0.48066 0.35555 0.0
H1352 H 0.18374 0.67997 0.38566 0.0
H1353 H 0.20029 0.7045 0.4037 0.0
H1354 H 0.10916 0.54873 0.41262 0.0
H1355 H 0.09313 0.52374 0.39447 0.0
H1356 H 0.99369 0.52247 0.30688 0.0
H1357 H 0.97218 0.50144 0.2888 0.0
H1358 H 0.12875 0.55591 0.28188 0.0
H1359 H 0.15075 0.5771 0.29995 0.0
Sm1360 Sm 0.45558 0.53824 0.35824 0.0
Sm1361 Sm 0.45311 0.53309 0.33436 0.0
C1362 C 0.44907 0.55245 0.37822 0.0
C1363 C 0.42604 0.52988 0.38829 0.0
C1364 C 0.37345 0.50574 0.38987 0.0
C1365 C 0.35322 0.49167 0.39975 0.0
C1366 C 0.38505 0.50142 0.40825 0.0
C1367 C 0.43731 0.52388 0.40665 0.0
C1368 C 0.45756 0.53803 0.39678 0.0
C1369 C 0.43117 0.44355 0.35014 0.0
C1370 C 0.35281 0.52074 0.34588 0.0
C1371 C 0.44494 0.49953 0.3153 0.0
C1372 C 0.46381 0.50793 0.30458 0.0
C1373 C 0.49982 0.49474 0.30148 0.0
C1374 C 0.51116 0.49467 0.29108 0.0
C1375 C 0.48655 0.50749 0.28358 0.0
C1376 C 0.45194 0.52233 0.28666 0.0
C1377 C 0.44063 0.52247 0.29703 0.0
C1378 C 0.486 0.6332 0.34024 0.0
C1379 C 0.56235 0.57939 0.34602 0.0
O1380 O 0.42016 0.55559 0.37124 0.0
O1381 O 0.48353 0.54389 0.37435 0.0
O1382 O 0.4164 0.47287 0.34679 0.0
O1383 O 0.45789 0.4636 0.3583 0.0
O1384 O 0.37908 0.53397 0.35451 0.0
O1385 O 0.37028 0.51064 0.3375 0.0
O1386 O 0.47042 0.49184 0.32247 0.0
O1387 O 0.4225 0.52381 0.31858 0.0
O1388 O 0.47456 0.5955 0.3459 0.0
O1389 O 0.48103 0.6181 0.33081 0.0
O1390 O 0.53413 0.54948 0.33849 0.0
O1391 O 0.54082 0.58763 0.35403 0.0
H1392 H 0.34801 0.49912 0.38353 0.0
H1393 H 0.3128 0.47443 0.4008 0.0
H1394 H 0.46259 0.53188 0.41308 0.0
H1395 H 0.49818 0.55704 0.39584 0.0
H1396 H 0.51784 0.48257 0.30704 0.0
H1397 H 0.53774 0.48279 0.28886 0.0
H1398 H 0.43232 0.53206 0.28099 0.0
H1399 H 0.41213 0.53202 0.2991 0.0
Sm1400 Sm 0.47915 0.91194 0.35816 0.0
Sm1401 Sm 0.48152 0.91605 0.33357 0.0
C1402 C 0.45591 0.89002 0.37785 0.0
C1403 C 0.47603 0.88898 0.38823 0.0
C1404 C 0.48018 0.84721 0.3915 0.0
C1405 C 0.49324 0.84358 0.40165 0.0
C1406 C 0.50227 0.88148 0.40878 0.0
C1407 C 0.49919 0.92363 0.40552 0.0
C1408 C 0.48611 0.92729 0.39538 0.0
C1409 C 0.57759 0.9801 0.35114 0.0
C1410 C 0.49859 0.82903 0.34559 0.0
C1411 C 0.51318 0.93135 0.31434 0.0
C1412 C 0.50859 0.94595 0.30375 0.0
C1413 C 0.50945 0.99138 0.30151 0.0
C1414 C 0.51125 1.00671 0.29131 0.0
C1415 C 0.51238 0.97695 0.28325 0.0
C1416 C 0.51003 0.931 0.28549 0.0
C1417 C 0.50811 0.91565 0.29564 0.0
C1418 C 0.38697 0.85287 0.34179 0.0
C1419 C 0.43307 0.97674 0.34549 0.0
O1420 O 0.4529 0.85727 0.37105 0.0
O1421 O 0.4675 0.93373 0.3738 0.0
O1422 O 0.53757 0.95413 0.3461 0.0
O1423 O 0.56553 0.97033 0.3607 0.0
O1424 O 0.49103 0.84447 0.35455 0.0
O1425 O 0.50032 0.85222 0.33687 0.0
O1426 O 0.53217 0.96648 0.32141 0.0
O1427 O 0.47796 0.8875 0.31775 0.0
O1428 O 0.42889 0.86095 0.34538 0.0
O1429 O 0.39477 0.87604 0.33302 0.0
O1430 O 0.45428 0.97334 0.33689 0.0
O1431 O 0.43427 0.95374 0.35406 0.0
H1432 H 0.47201 0.81656 0.38628 0.0
H1433 H 0.49511 0.8106 0.40401 0.0
H1434 H 0.50571 0.95319 0.4109 0.0
H1435 H 0.48253 0.95955 0.39322 0.0
H1436 H 0.51008 0.01561 0.30761 0.0
H1437 H 0.51327 0.04243 0.28973 0.0
H1438 H 0.51109 0.90765 0.27938 0.0
H1439 H 0.50791 0.88073 0.29717 0.0
C1440 C 0.18213 0.13585 0.18448 0.0
C1441 C 0.15682 0.14358 0.17619 0.0
C1442 C 0.12972 0.05772 0.17004 0.0
C1443 C 0.16208 0.05337 0.1773 0.0
N1444 N 0.22348 0.09127 0.19088 0.0
N1445 N 0.10549 0.11143 0.16097 0.0
C1446 C 0.18928 0.09317 0.18442 0.0
C1447 C 0.13055 0.10445 0.16891 0.0
N1448 N 0.19804 0.16844 0.19257 0.0
N1449 N 0.09542 0.01614 0.16471 0.0
H1450 H 0.09986 0.14226 0.16044 0.0
H1451 H 0.09201 0.08756 0.15465 0.0
H1452 H 0.09193 0.98079 0.16564 0.0
H1453 H 0.06682 0.01521 0.16021 0.0
H1454 H 0.21234 0.16218 0.19931 0.0
H1455 H 0.19218 0.19918 0.19294 0.0
H1456 H 0.24828 0.12151 0.19544 0.0
H1457 H 0.23029 0.06114 0.19101 0.0
C1458 C 0.92984 0.11534 0.17427 0.0
C1459 C 0.97425 0.11932 0.17866 0.0
C1460 C 0.92551 0.02958 0.18338 0.0
C1461 C 0.88363 0.02324 0.1775 0.0
N1462 N 0.84621 0.06133 0.16713 0.0
N1463 N 0.01609 0.07631 0.18554 0.0
C1464 C 0.88598 0.06661 0.17287 0.0
C1465 C 0.9725 0.0754 0.18274 0.0
N1466 N 0.92893 0.15821 0.17177 0.0
N1467 N 0.92047 0.99236 0.18979 0.0
H1468 H 0.05173 0.10822 0.1849 0.0
H1469 H 0.0174 0.04387 0.18743 0.0
H1470 H 0.88557 0.96108 0.19115 0.0
H1471 H 0.94863 0.99622 0.19484 0.0
H1472 H 0.89642 0.15851 0.16949 0.0
H1473 H 0.95989 0.19407 0.17293 0.0
H1474 H 0.84789 0.08982 0.16249 0.0
H1475 H 0.8118 0.02763 0.16673 0.0
C1476 C 0.98743 0.88399 0.16881 0.0
C1477 C 1.00667 0.86655 0.17679 0.0
C1478 C 0.92793 0.83972 0.18641 0.0
C1479 C 0.91141 0.86215 0.17894 0.0
N1480 N 0.9356 0.92072 0.1648 0.0
N1481 N 0.99918 0.83806 0.19424 0.0
C1482 C 0.94384 0.88829 0.1706 0.0
C1483 C 0.9782 0.84776 0.18594 0.0
N1484 N 1.01063 0.8972 0.15951 0.0
N1485 N 0.89513 0.80886 0.19371 0.0
H1486 H 0.03562 0.8434 0.19417 0.0
H1487 H 0.98213 0.82911 0.20141 0.0
H1488 H 0.85753 0.80012 0.19403 0.0
H1489 H 0.90371 0.7878 0.19875 0.0
H1490 H 0.99418 0.90398 0.15316 0.0
H1491 H 0.04464 0.89872 0.15788 0.0
H1492 H 0.96112 0.94453 0.15933 0.0
H1493 H 0.90701 0.92889 0.16632 0.0
C1494 C 0.14521 0.18983 0.34225 0.0
C1495 C 0.14804 0.15516 0.3491 0.0
C1496 C 0.05786 0.1196 0.3531 0.0
C1497 C 0.05602 0.15703 0.34696 0.0
N1498 N 0.09994 0.23263 0.33686 0.0
N1499 N 0.10891 0.09279 0.36243 0.0
C1500 C 0.10025 0.19341 0.34181 0.0
C1501 C 0.10497 0.12202 0.35497 0.0
N1502 N 0.18527 0.21892 0.33605 0.0
N1503 N 0.01405 0.07979 0.35671 0.0
H1504 H 0.14161 0.09102 0.36374 0.0
H1505 H 0.08072 0.0728 0.36779 0.0
H1506 H 0.97853 0.07529 0.35524 0.0
H1507 H 1.01226 0.04849 0.36027 0.0
H1508 H 0.18383 0.24073 0.33008 0.0
H1509 H 0.21913 0.2186 0.33643 0.0
H1510 H 0.13218 0.26336 0.33388 0.0
H1511 H 0.06802 0.23662 0.33649 0.0
C1512 C 0.89891 0.94075 0.33935 0.0
C1513 C 0.85825 0.8969 0.34384 0.0
C1514 C 0.82264 0.94863 0.35017 0.0
C1515 C 0.86434 0.99289 0.34601 0.0
N1516 N 0.93326 0.02749 0.33404 0.0
N1517 N 0.7754 0.85678 0.35128 0.0
C1518 C 0.89939 0.98767 0.33972 0.0
C1519 C 0.81828 0.90024 0.34859 0.0
N1520 N 0.93893 0.93857 0.33526 0.0
N1521 N 0.78713 0.95302 0.3557 0.0
H1522 H 0.77088 0.82107 0.35003 0.0
H1523 H 0.74271 0.85552 0.35393 0.0
H1524 H 0.7859 0.98647 0.35604 0.0
H1525 H 0.75956 0.92413 0.36012 0.0
H1526 H 0.97246 0.97021 0.33303 0.0
H1527 H 0.94088 0.90562 0.33481 0.0
H1528 H 0.95634 0.0252 0.32848 0.0
H1529 H 0.93399 0.06155 0.33404 0.0
C1530 C 0.06729 0.86815 0.34551 0.0
C1531 C 0.02336 0.87086 0.34799 0.0
C1532 C 0.07354 0.96332 0.34716 0.0
C1533 C 0.11842 0.96119 0.34582 0.0
N1534 N 0.1593 0.91166 0.34452 0.0
N1535 N 0.98966 0.92225 0.3543 0.0
C1536 C 0.11567 0.91352 0.34519 0.0
C1537 C 0.02779 0.91879 0.34966 0.0
N1538 N 0.06263 0.82235 0.34332 0.0
N1539 N 0.07416 1.00787 0.34581 0.0
H1540 H 0.95706 0.89092 0.357 0.0
H1541 H 0.99302 0.95648 0.35654 0.0
H1542 H 0.10648 0.04085 0.34357 0.0
H1543 H 0.04153 0.0106 0.3458 0.0
H1544 H 0.09199 0.81793 0.34049 0.0
H1545 H 0.02819 0.78867 0.34371 0.0
H1546 H 0.16074 0.87846 0.34508 0.0
H1547 H 0.19474 0.94411 0.34401 0.0
C1548 C 0.8279 0.88239 0.85512 0.0
C1549 C 0.85593 0.86884 0.84841 0.0
C1550 C 0.88366 0.948 0.83898 0.0
C1551 C 0.85529 0.96155 0.84558 0.0
N1552 N 0.7867 0.93173 0.85759 0.0
N1553 N 0.88767 0.87847 0.83119 0.0
C1554 C 0.82341 0.92581 0.85299 0.0
C1555 C 0.87648 0.89822 0.83944 0.0
N1556 N 0.80446 0.85343 0.86348 0.0
N1557 N 0.91981 0.98298 0.83269 0.0
H1558 H 0.87665 0.84041 0.83077 0.0
H1559 H 0.90009 0.89763 0.82427 0.0
H1560 H 0.9303 0.02101 0.83272 0.0
H1561 H 0.94358 0.97525 0.82831 0.0
H1562 H 0.79048 0.86551 0.86944 0.0
H1563 H 0.79966 0.81765 0.86457 0.0
H1564 H 0.75904 0.9047 0.86233 0.0
H1565 H 0.78012 0.96088 0.85565 0.0
C1566 C 0.14563 0.95285 0.85145 0.0
C1567 C 0.14865 0.99733 0.84727 0.0
C1568 C 0.05908 0.94759 0.84235 0.0
C1569 C 0.05647 0.90267 0.84603 0.0
N1570 N 0.10085 0.86102 0.85202 0.0
N1571 N 0.11197 0.03129 0.83566 0.0
C1572 C 0.10089 0.90484 0.84998 0.0
C1573 C 0.10664 0.99278 0.8417 0.0
N1574 N 0.18545 0.95649 0.85693 0.0
N1575 N 0.01581 0.94833 0.84007 0.0
H1576 H 0.14708 0.06242 0.83437 0.0
H1577 H 0.08358 0.02886 0.83086 0.0
H1578 H 0.97994 0.91695 0.8409 0.0
H1579 H 0.01539 0.98154 0.83854 0.0
H1580 H 0.18353 0.92699 0.86125 0.0
H1581 H 0.22009 0.9899 0.85745 0.0
H1582 H 0.13323 0.85967 0.85396 0.0
H1583 H 0.06921 0.82551 0.85085 0.0
C1584 C 0.03543 0.12081 0.85365 0.0
C1585 C 0.02295 0.14843 0.84663 0.0
C1586 C 0.10751 0.18452 0.83901 0.0
C1587 C 0.11959 0.1557 0.8458 0.0
N1588 N 0.08824 0.08459 0.85734 0.0
N1589 N 0.04104 0.193 0.83065 0.0
C1590 C 0.08168 0.12059 0.85252 0.0
C1591 C 0.05713 0.17612 0.83868 0.0
N1592 N 1.003 0.09437 0.8614 0.0
N1593 N 0.14451 0.22141 0.83316 0.0
H1594 H 1.00387 0.18552 0.83004 0.0
H1595 H 0.06282 0.20955 0.82416 0.0
H1596 H 0.18203 0.22982 0.83342 0.0
H1597 H 0.13892 0.24678 0.82882 0.0
H1598 H 0.01304 0.07942 0.86754 0.0
H1599 H 0.96684 0.08947 0.86202 0.0
H1600 H 0.05967 0.05448 0.86136 0.0
H1601 H 0.12024 0.08124 0.85642 0.0
C1602 C 0.88276 0.83318 0.68474 0.0
C1603 C 0.87307 0.85476 0.676 0.0
C1604 C 0.95665 0.87644 0.66916 0.0
C1605 C 0.96449 0.85066 0.67747 0.0
N1606 N 0.92922 0.79517 0.69195 0.0
N1607 N 0.89882 0.89126 0.65914 0.0
C1608 C 0.92589 0.82648 0.68493 0.0
C1609 C 0.90908 0.87393 0.66795 0.0
N1610 N 0.85116 0.81966 0.69296 0.0
N1611 N 0.99568 0.90713 0.66282 0.0
H1612 H 0.86858 0.89752 0.65828 0.0
H1613 H 0.91947 0.89741 0.65244 0.0
H1614 H 0.03217 0.91312 0.66339 0.0
H1615 H 0.99374 0.9319 0.65761 0.0
H1616 H 0.85915 0.80905 0.69998 0.0
H1617 H 0.81888 0.82303 0.69304 0.0
H1618 H 0.90011 0.77261 0.69696 0.0
H1619 H 0.95891 0.78759 0.69206 0.0
C1620 C 0.20449 0.11456 0.67888 0.0
C1621 C 0.16176 0.11879 0.6815 0.0
C1622 C 0.10913 0.02624 0.68138 0.0
C1623 C 0.15218 0.02136 0.67902 0.0
N1624 N 0.24288 0.06166 0.67862 0.0
N1625 N 0.07597 0.0781 0.68773 0.0
C1626 C 0.20049 0.0659 0.67865 0.0
C1627 C 0.11518 0.0745 0.68363 0.0
N1628 N 0.24903 0.15707 0.67663 0.0
N1629 N 0.06159 0.98571 0.68078 0.0
H1630 H 0.0768 0.1121 0.68896 0.0
H1631 H 0.04376 0.04733 0.69074 0.0
H1632 H 0.05428 0.94968 0.67932 0.0
H1633 H 0.02894 0.98839 0.68085 0.0
H1634 H 0.27996 0.15638 0.67349 0.0
H1635 H 0.25399 0.19316 0.67743 0.0
H1636 H 0.27938 0.09233 0.67917 0.0
H1637 H 0.24114 0.0269 0.67928 0.0
C1638 C 0.91462 0.09228 0.68536 0.0
C1639 C 0.90642 0.04876 0.67985 0.0
C1640 C 0.99263 0.09672 0.67289 0.0
C1641 C 1.00142 0.1397 0.67866 0.0
N1642 N 0.97599 0.17347 0.69256 0.0
N1643 N 0.94373 1.006 0.67105 0.0
C1644 C 0.96399 0.13595 0.68558 0.0
C1645 C 0.94718 0.05 0.67436 0.0
N1646 N 0.87497 0.09283 0.69003 0.0
N1647 N 0.0276 0.10035 0.66593 0.0
H1648 H 0.91245 0.97075 0.67249 0.0
H1649 H 0.97391 1.00385 0.66793 0.0
H1650 H 0.06279 0.13264 0.66503 0.0
H1651 H 0.02046 0.07224 0.6606 0.0
H1652 H 0.87756 0.12516 0.69325 0.0
H1653 H 0.83832 0.06205 0.68989 0.0
H1654 H 0.95184 0.17101 0.69841 0.0
H1655 H 1.01216 0.20485 0.69309 0.0
C1656 C 0.81219 0.40071 0.52324 0.0
C1657 C 0.83556 0.38569 0.51552 0.0
C1658 C 0.85107 0.46019 0.50536 0.0
C1659 C 0.82525 0.47284 0.51274 0.0
N1660 N 0.80395 0.46934 0.53042 0.0
N1661 N 0.89712 0.41644 0.50197 0.0
C1662 C 0.81317 0.44767 0.52223 0.0
C1663 C 0.86093 0.42006 0.50737 0.0
N1664 N 0.78697 0.37039 0.53134 0.0
N1665 N 0.86727 0.48713 0.49648 0.0
H1666 H 0.90904 0.39118 0.50401 0.0
H1667 H 0.91992 0.44262 0.49649 0.0
H1668 H 0.86694 0.52067 0.49529 0.0
H1669 H 0.87992 0.47542 0.49024 0.0
H1670 H 0.76303 0.37678 0.53597 0.0
H1671 H 0.78687 0.33769 0.53336 0.0
H1672 H 0.79937 0.45535 0.53785 0.0
H1673 H 0.80836 0.50524 0.52997 0.0
C1674 C 0.58239 0.35724 0.50266 0.0
C1675 C 0.54594 0.34458 0.51052 0.0
C1676 C 0.59996 0.42792 0.51842 0.0
C1677 C 0.63779 0.44006 0.51084 0.0
N1678 N 0.66729 0.41157 0.49655 0.0
N1679 N 0.52576 0.36268 0.52715 0.0
C1680 C 0.6294 0.40358 0.50313 0.0
C1681 C 0.55657 0.37834 0.5188 0.0
N1682 N 0.57231 0.32461 0.49468 0.0
N1683 N 0.60402 0.46464 0.52495 0.0
H1684 H 0.4942 0.32663 0.52769 0.0
H1685 H 0.53409 0.38344 0.5339 0.0
H1686 H 0.63367 0.50184 0.52463 0.0
H1687 H 0.57545 0.45967 0.52996 0.0
H1688 H 0.59261 0.3347 0.48788 0.0
H1689 H 0.54239 0.28756 0.49468 0.0
H1690 H 0.6667 0.38367 0.49191 0.0
H1691 H 0.70111 0.44523 0.4961 0.0
C1692 C 0.6118 0.22726 0.5174 0.0
C1693 C 0.56763 0.18474 0.51345 0.0
C1694 C 0.62017 0.14929 0.50759 0.0
C1695 C 0.66398 0.19106 0.51192 0.0
N1696 N 0.69736 0.26173 0.52348 0.0
N1697 N 0.52839 0.10024 0.50678 0.0
C1698 C 0.65832 0.22713 0.51769 0.0
C1699 C 0.57144 0.14422 0.50912 0.0
N1700 N 0.61056 0.26966 0.52024 0.0
N1701 N 0.62518 0.11452 0.50193 0.0
H1702 H 0.49255 0.09529 0.50803 0.0
H1703 H 0.52797 0.0674 0.50453 0.0
H1704 H 0.65917 0.11442 0.50138 0.0
H1705 H 0.59623 0.08695 0.49749 0.0
H1706 H 0.6429 0.30379 0.52197 0.0
H1707 H 0.5782 0.27276 0.51986 0.0
H1708 H 0.69329 0.28479 0.52879 0.0
H1709 H 0.73187 0.26309 0.52384 0.0
C1710 C 0.80848 0.53244 0.68471 0.0
C1711 C 0.81213 0.49132 0.68059 0.0
C1712 C 0.72307 0.45119 0.6753 0.0
C1713 C 0.71978 0.49321 0.67898 0.0
N1714 N 0.76373 0.57952 0.6848 0.0
N1715 N 0.77657 0.42005 0.66909 0.0
C1716 C 0.76385 0.53559 0.68299 0.0
C1717 C 0.77083 0.45377 0.67489 0.0
N1718 N 0.84762 0.56849 0.69034 0.0
N1719 N 0.68023 0.40695 0.67291 0.0
H1720 H 0.81049 0.42027 0.66855 0.0
H1721 H 0.74929 0.39608 0.66387 0.0
H1722 H 0.64403 0.40161 0.67368 0.0
H1723 H 0.68026 0.3736 0.67131 0.0
H1724 H 0.84502 0.59584 0.6946 0.0
H1725 H 0.88218 0.56967 0.6911 0.0
H1726 H 0.79596 0.61318 0.6868 0.0
H1727 H 0.73249 0.58369 0.68329 0.0
C1728 C 0.49648 0.24098 0.6864 0.0
C1729 C 0.51971 0.23041 0.67807 0.0
C1730 C 0.53943 0.31274 0.6707 0.0
C1731 C 0.52939 0.32782 0.6802 0.0
N1732 N 0.49308 0.30429 0.69701 0.0
N1733 N 0.56486 0.26011 0.66187 0.0
C1734 C 0.50625 0.29124 0.68803 0.0
C1735 C 0.54086 0.26688 0.66999 0.0
N1736 N 0.46292 0.20239 0.69246 0.0
N1737 N 0.54694 0.34196 0.66229 0.0
H1738 H 0.56674 0.2278 0.66046 0.0
H1739 H 0.58667 0.28893 0.65674 0.0
H1740 H 0.54278 0.37365 0.6626 0.0
H1741 H 0.55021 0.33114 0.65491 0.0
H1742 H 0.44168 0.20691 0.69814 0.0
H1743 H 0.45158 0.16471 0.69094 0.0
H1744 H 0.48221 0.28143 0.70349 0.0
H1745 H 0.49464 0.33885 0.69805 0.0
C1746 C 0.78823 0.25896 0.68419 0.0
C1747 C 0.79224 0.2962 0.67713 0.0
C1748 C 0.70087 0.24513 0.67375 0.0
C1749 C 0.69618 0.2083 0.68098 0.0
N1750 N 0.73837 0.17369 0.69077 0.0
N1751 N 0.75498 0.31075 0.66201 0.0
C1752 C 0.74089 0.21342 0.68552 0.0
C1753 C 0.74964 0.28489 0.67087 0.0
N1754 N 0.83004 0.26678 0.68953 0.0
N1755 N 0.65893 0.24484 0.6701 0.0
H1756 H 0.78941 0.33821 0.65911 0.0
H1757 H 0.72553 0.30022 0.65679 0.0
H1758 H 0.62255 0.21751 0.67207 0.0
H1759 H 0.66067 0.27472 0.66594 0.0
H1760 H 0.82877 0.24527 0.69581 0.0
H1761 H 0.86634 0.29571 0.68773 0.0
H1762 H 0.7697 0.17251 0.69355 0.0
H1763 H 0.7049 0.13952 0.69138 0.0
C1764 C 0.55172 0.23542 0.17132 0.0
C1765 C 0.52786 0.20314 0.17972 0.0
C1766 C 0.4915 0.25701 0.18421 0.0
C1767 C 0.52653 0.29567 0.17762 0.0
N1768 N 0.59449 0.32132 0.16528 0.0
N1769 N 0.46674 0.17881 0.19329 0.0
C1770 C 0.55747 0.28465 0.17117 0.0
C1771 C 0.49521 0.2127 0.18591 0.0
N1772 N 0.56677 0.21841 0.16322 0.0
N1773 N 0.45295 0.26135 0.18842 0.0
H1774 H 0.46214 0.1427 0.19371 0.0
H1775 H 0.44811 0.18667 0.19903 0.0
H1776 H 0.44725 0.29156 0.18684 0.0
H1777 H 0.42344 0.23267 0.19253 0.0
H1778 H 0.58132 0.23916 0.15652 0.0
H1779 H 0.55675 0.18068 0.16264 0.0
H1780 H 0.62088 0.3157 0.16134 0.0
H1781 H 0.60279 0.35868 0.16517 0.0
C1782 C 0.7901 0.32038 0.17097 0.0
C1783 C 0.81959 0.33359 0.17994 0.0
C1784 C 0.76509 0.2465 0.18602 0.0
C1785 C 0.7283 0.23834 0.17835 0.0
N1786 N 0.70476 0.27709 0.16473 0.0
N1787 N 0.83622 0.30757 0.19617 0.0
C1788 C 0.74067 0.27759 0.17104 0.0
C1789 C 0.80728 0.29611 0.18754 0.0
N1790 N 0.80893 0.34908 0.16242 0.0
N1791 N 0.76161 0.20685 0.19149 0.0
H1792 H 0.86996 0.34166 0.19705 0.0
H1793 H 0.8256 0.28399 0.20254 0.0
H1794 H 0.73421 0.16954 0.19009 0.0
H1795 H 0.7896 0.21027 0.19653 0.0
H1796 H 0.78992 0.33952 0.15542 0.0
H1797 H 0.84632 0.37816 0.16216 0.0
H1798 H 0.71227 0.30674 0.15977 0.0
H1799 H 0.66641 0.25157 0.16548 0.0
C1800 C 0.74704 0.44784 0.17819 0.0
C1801 C 0.79251 0.49464 0.17961 0.0
C1802 C 0.7415 0.53485 0.18354 0.0
C1803 C 0.69656 0.48726 0.18261 0.0
N1804 N 0.65927 0.39691 0.18271 0.0
N1805 N 0.83353 0.58242 0.18436 0.0
C1806 C 0.7 0.44341 0.18084 0.0
C1807 C 0.78983 0.53817 0.18249 0.0
N1808 N 0.74826 0.40669 0.17453 0.0
N1809 N 0.73778 0.57664 0.18563 0.0
H1810 H 0.86914 0.58663 0.18322 0.0
H1811 H 0.83506 0.61451 0.18742 0.0
H1812 H 0.70335 0.57469 0.18713 0.0
H1813 H 0.76801 0.61341 0.18547 0.0
H1814 H 0.71602 0.37403 0.17209 0.0
H1815 H 0.78139 0.40612 0.17323 0.0
H1816 H 0.66114 0.36382 0.18286 0.0
H1817 H 0.62505 0.39196 0.18533 0.0
C1818 C 0.59679 0.16323 0.01817 0.0
C1819 C 0.63326 0.18462 1.01022 0.0
C1820 C 0.57646 0.20752 1.00107 0.0
C1821 C 0.54234 0.19026 1.00946 0.0
N1822 N 0.52404 0.15874 0.02671 0.0
N1823 N 0.66007 0.2349 0.99471 0.0
C1824 C 0.55383 0.17034 0.01823 0.0
C1825 C 0.6234 0.20825 1.00178 0.0
N1826 N 0.60183 0.13387 0.02543 0.0
N1827 N 0.56476 0.22425 0.99235 0.0
H1828 H 0.69409 0.23539 0.99432 0.0
H1829 H 0.6584 0.25996 0.98954 0.0
H1830 H 0.53583 0.23268 0.99186 0.0
H1831 H 0.58302 0.22829 0.9854 0.0
H1832 H 0.57425 0.11313 0.03085 0.0
H1833 H 0.63125 0.12588 0.02538 0.0
H1834 H 0.5334 0.14954 0.03373 0.0
H1835 H 0.49185 0.16227 0.02695 0.0
C1836 C 0.78222 0.36103 0.01787 0.0
C1837 C 0.81619 0.35365 1.01174 0.0
C1838 C 0.86467 0.44547 1.00866 0.0
C1839 C 0.82656 0.45133 0.01361 0.0
N1840 N 0.74298 0.41121 0.02109 0.0
N1841 N 0.88724 0.38859 1.00027 0.0
C1842 C 0.78385 0.40825 0.01778 0.0
C1843 C 0.85694 0.39591 1.00688 0.0
N1844 N 0.74835 0.32286 0.0239 0.0
N1845 N 0.90878 0.48727 1.00591 0.0
H1846 H 0.8835 0.3532 0.99901 0.0
H1847 H 0.91398 0.41694 0.99562 0.0
H1848 H 0.91574 0.52369 1.00734 0.0
H1849 H 0.93998 0.48588 1.00314 0.0
H1850 H 0.72588 0.32723 0.02932 0.0
H1851 H 0.74738 0.28863 0.0243 0.0
H1852 H 0.70855 0.37962 0.02295 0.0
H1853 H 0.7412 0.44428 0.02098 0.0
C1854 C 0.58376 0.4251 0.01966 0.0
C1855 C 0.57389 0.38301 0.01345 0.0
C1856 C 0.65811 0.43256 1.00571 0.0
C1857 C 0.66839 0.47412 1.01211 0.0
N1858 N 0.64793 0.5029 0.02752 0.0
N1859 N 0.60936 0.3422 1.00335 0.0
C1860 C 0.63335 0.46826 0.01983 0.0
C1861 C 0.61324 0.38546 1.00724 0.0
N1862 N 0.54556 0.42495 0.02508 0.0
N1863 N 0.69133 0.43768 0.99819 0.0
H1864 H 0.57886 0.30653 1.00487 0.0
H1865 H 0.63895 0.34097 0.99968 0.0
H1866 H 0.72653 0.46995 0.99728 0.0
H1867 H 0.68267 0.41076 0.9925 0.0
H1868 H 0.54966 0.45659 0.02893 0.0
H1869 H 0.50858 0.39478 0.02494 0.0
H1870 H 0.62541 0.49841 0.03385 0.0
H1871 H 0.68468 0.53333 0.02809 0.0
C1872 C 0.47422 0.77581 0.83467 0.0
C1873 C 0.49221 0.81118 0.84289 0.0
C1874 C 0.5171 0.75658 0.85209 0.0
C1875 C 0.49486 0.7192 0.84431 0.0
N1876 N 0.43859 0.68847 0.82975 0.0
N1877 N 0.51944 0.8285 0.86047 0.0
C1878 C 0.46995 0.72761 0.83598 0.0
C1879 C 0.51003 0.7994 0.85194 0.0
N1880 N 0.46008 0.78725 0.82558 0.0
N1881 N 0.54689 0.75253 0.8594 0.0
H1882 H 0.51427 0.8597 0.86067 0.0
H1883 H 0.52771 0.81888 0.86757 0.0
H1884 H 0.5549 0.72316 0.85953 0.0
H1885 H 0.56791 0.78102 0.86466 0.0
H1886 H 0.4538 0.76579 0.81898 0.0
H1887 H 0.45649 0.81893 0.82442 0.0
H1888 H 0.41496 0.69103 0.82432 0.0
H1889 H 0.4313 0.65175 0.83081 0.0
C1890 C 0.25049 0.70357 0.83495 0.0
C1891 C 0.21181 0.68768 0.84246 0.0
C1892 C 0.26291 0.76915 0.85133 0.0
C1893 C 0.30375 0.78203 0.8445 0.0
N1894 N 0.34001 0.75242 0.83178 0.0
N1895 N 0.18524 0.70266 0.85878 0.0
C1896 C 0.29846 0.74685 0.83682 0.0
C1897 C 0.21937 0.71961 0.85098 0.0
N1898 N 0.24216 0.6778 0.82597 0.0
N1899 N 0.26459 0.80479 0.85786 0.0
H1900 H 0.15283 0.66717 0.85871 0.0
H1901 H 0.19125 0.72202 0.86566 0.0
H1902 H 0.29475 0.84176 0.85806 0.0
H1903 H 0.23401 0.7992 0.86231 0.0
H1904 H 0.2672 0.69184 0.81984 0.0
H1905 H 0.20927 0.64423 0.82429 0.0
H1906 H 0.33902 0.72498 0.8269 0.0
H1907 H 0.37645 0.78111 0.83345 0.0
C1908 C 0.31902 0.55015 0.83549 0.0
C1909 C 0.33616 0.5315 0.84362 0.0
C1910 C 0.25589 0.50476 0.8526 0.0
C1911 C 0.24118 0.52814 0.84499 0.0
N1912 N 0.26834 0.58735 0.83094 0.0
N1913 N 0.32536 0.50214 0.86104 0.0
C1914 C 0.27523 0.55451 0.83688 0.0
C1915 C 0.306 0.51231 0.85254 0.0
N1916 N 0.34461 0.56468 0.82644 0.0
N1917 N 0.22157 0.47358 0.85966 0.0
H1918 H 0.36192 0.5078 0.86131 0.0
H1919 H 0.30688 0.49269 0.86807 0.0
H1920 H 0.18403 0.46515 0.85966 0.0
H1921 H 0.22894 0.45195 0.86478 0.0
H1922 H 0.32986 0.57232 0.81993 0.0
H1923 H 0.37894 0.5663 0.82517 0.0
H1924 H 0.29494 0.61162 0.82567 0.0
H1925 H 0.23947 0.59524 0.83221 0.0
C1926 C 0.42138 0.76736 1.00971 0.0
C1927 C 0.46899 0.81031 1.01154 0.0
C1928 C 0.42733 0.86171 1.01232 0.0
C1929 C 0.37937 0.81674 1.01234 0.0
N1930 N 0.3322 0.72568 0.01282 0.0
N1931 N 0.51884 0.90015 0.01358 0.0
C1932 C 0.37686 0.76932 1.01147 0.0
C1933 C 0.47248 0.85824 1.01248 0.0
N1934 N 0.41878 0.72496 1.00578 0.0
N1935 N 0.42963 0.90743 1.01187 0.0
H1936 H 0.55188 0.89901 1.01235 0.0
H1937 H 0.52452 0.93547 0.01563 0.0
H1938 H 0.39741 0.91099 1.01182 0.0
H1939 H 0.463 0.94156 1.0109 0.0
H1940 H 0.38517 0.69312 1.00358 0.0
H1941 H 0.45107 0.72548 1.00323 0.0
H1942 H 0.32928 0.69031 0.01336 0.0
H1943 H 0.29916 0.72554 0.0146 0.0
C1944 C 0.16336 0.61978 0.01998 0.0
C1945 C 0.19136 0.65948 0.01295 0.0
C1946 C 0.21802 0.60603 1.00408 0.0
C1947 C 0.18944 0.56556 1.01097 0.0
N1948 N 0.12251 0.5298 0.02345 0.0
N1949 N 0.22715 0.68175 0.99618 0.0
C1950 C 0.15826 0.57118 0.01832 0.0
C1951 C 0.21234 0.64948 1.00426 0.0
N1952 N 0.14165 0.62851 0.02825 0.0
N1953 N 0.25366 0.60536 0.9979 0.0
H1954 H 0.21944 0.71121 0.99601 0.0
H1955 H 0.23996 0.67501 0.98931 0.0
H1956 H 0.26249 0.57662 0.99799 0.0
H1957 H 0.27864 0.63635 0.99353 0.0
H1958 H 0.12611 0.60335 0.03433 0.0
H1959 H 0.14094 0.66204 0.02917 0.0
H1960 H 0.09579 0.53061 0.02825 0.0
H1961 H 0.116 0.49347 0.02203 0.0
C1962 C 0.36835 0.58004 0.02175 0.0
C1963 C 0.35954 0.54149 0.01464 0.0
C1964 C 0.44632 0.59381 1.00807 0.0
C1965 C 0.45417 0.63395 0.01473 0.0
N1966 N 0.41903 0.66596 0.02732 0.0
N1967 N 0.38695 0.51371 1.00008 0.0
C1968 C 0.41439 0.62699 0.02146 0.0
C1969 C 0.39764 0.54903 1.00751 0.0
N1970 N 0.33284 0.57163 0.02902 0.0
N1971 N 0.48618 0.59743 1.00265 0.0
H1972 H 0.35222 0.48039 0.99961 0.0
H1973 H 0.41077 0.51901 0.99395 0.0
H1974 H 0.52252 0.62859 1.00316 0.0
H1975 H 0.48462 0.56788 0.99843 0.0
H1976 H 0.34008 0.59416 0.03547 0.0
H1977 H 0.2965 0.54058 0.02894 0.0
H1978 H 0.38848 0.667 0.03057 0.0
H1979 H 0.45299 0.6982 0.02876 0.0
C1980 C 0.20857 0.56167 0.50589 0.0
C1981 C 0.1853 0.52989 0.51443 0.0
C1982 C 0.15125 0.5852 0.51928 0.0
C1983 C 0.18562 0.62301 0.51247 0.0
N1984 N 0.25156 0.64775 0.49979 0.0
N1985 N 0.12571 0.50648 0.52824 0.0
C1986 C 0.21509 0.61123 0.5058 0.0
C1987 C 0.1539 0.54025 0.52082 0.0
N1988 N 0.22298 0.54431 0.49772 0.0
N1989 N 0.11452 0.59121 0.5239 0.0
H1990 H 0.12051 0.4701 0.52854 0.0
H1991 H 0.10791 0.51459 0.53411 0.0
H1992 H 0.1099 0.62225 0.52251 0.0
H1993 H 0.08547 0.56337 0.52824 0.0
H1994 H 0.23717 0.56494 0.491 0.0
H1995 H 0.21358 0.50673 0.4971 0.0
H1996 H 0.27645 0.64166 0.49541 0.0
H1997 H 0.26067 0.6854 0.49996 0.0
C1998 C 0.47517 0.61534 0.51856 0.0
C1999 C 0.47833 0.65967 0.51426 0.0
C2000 C 0.38859 0.61013 0.5095 0.0
C2001 C 0.38583 0.56527 0.51323 0.0
N2002 N 0.42954 0.52363 0.51964 0.0
N2003 N 0.44144 0.69342 0.50266 0.0
C2004 C 0.4301 0.56741 0.51728 0.0
C2005 C 0.4362 0.65511 0.50875 0.0
N2006 N 0.51521 0.61907 0.52397 0.0
N2007 N 0.34537 0.61104 0.50729 0.0
H2008 H 0.47654 0.72437 0.5013 0.0
H2009 H 0.41291 0.69091 0.49788 0.0
H2010 H 0.30955 0.57982 0.50828 0.0
H2011 H 0.34505 0.64427 0.50573 0.0
H2012 H 0.51334 0.58991 0.52841 0.0
H2013 H 0.55011 0.65226 0.52431 0.0
H2014 H 0.46176 0.522 0.52157 0.0
H2015 H 0.39735 0.48823 0.51887 0.0
C2016 C 0.43848 0.84888 0.50654 0.0
C2017 C 0.44981 0.819 0.51318 0.0
C2018 C 0.36522 0.78364 0.52083 0.0
C2019 C 0.35318 0.81176 0.51384 0.0
N2020 N 0.37296 0.85864 0.49813 0.0
N2021 N 0.41776 0.7471 0.52453 0.0
C2022 C 0.38821 0.84064 0.50611 0.0
C2023 C 0.41151 0.78345 0.51977 0.0
N2024 N 0.47608 0.88643 0.50091 0.0
N2025 N 0.33236 0.75676 0.52849 0.0
H2026 H 0.44996 0.74399 0.52371 0.0
H2027 H 0.38889 0.71665 0.52841 0.0
H2028 H 0.29636 0.75224 0.52908 0.0
H2029 H 0.34196 0.74124 0.53459 0.0
H2030 H 0.47105 0.91253 0.49671 0.0
H2031 H 0.51351 0.89456 0.50125 0.0
H2032 H 0.39545 0.8762 0.49177 0.0
H2033 H 0.33582 0.85109 0.49739 0.0
C2034 C 0.24758 0.54239 0.33554 0.0
C2035 C 0.21283 0.5261 0.34384 0.0
C2036 C 0.26723 0.50097 0.35313 0.0
C2037 C 0.30422 0.52198 0.34527 0.0
N2038 N 0.33496 0.57766 0.33065 0.0
N2039 N 0.19635 0.50071 0.36152 0.0
C2040 C 0.29579 0.54657 0.33689 0.0
C2041 C 0.22486 0.50889 0.35296 0.0
N2042 N 0.23568 0.5553 0.32637 0.0
N2043 N 0.27111 0.47151 0.36052 0.0
H2044 H 0.16531 0.50616 0.3617 0.0
H2045 H 0.20626 0.493 0.36865 0.0
H2046 H 0.30001 0.4628 0.36065 0.0
H2047 H 0.24282 0.45141 0.36586 0.0
H2048 H 0.25685 0.56069 0.31977 0.0
H2049 H 0.20381 0.55859 0.32516 0.0
H2050 H 0.33202 0.6004 0.32507 0.0
H2051 H 0.37204 0.58594 0.33184 0.0
C2052 C 0.46217 0.69073 0.34996 0.0
C2053 C 0.49589 0.68512 0.34334 0.0
C2054 C 0.53863 0.77715 0.34009 0.0
C2055 C 0.49916 0.78014 0.34515 0.0
N2056 N 0.41678 0.73525 0.35306 0.0
N2057 N 0.56714 0.72479 0.3319 0.0
C2058 C 0.45921 0.73574 0.34962 0.0
C2059 C 0.53431 0.72895 0.33832 0.0
N2060 N 0.43362 0.65388 0.35681 0.0
N2061 N 0.58135 0.82054 0.33735 0.0
H2062 H 0.56875 0.69176 0.33123 0.0
H2063 H 0.59139 0.75347 0.32698 0.0
H2064 H 0.58636 0.85612 0.33892 0.0
H2065 H 0.61364 0.82147 0.33454 0.0
H2066 H 0.41102 0.65771 0.36228 0.0
H2067 H 0.43873 0.62334 0.35807 0.0
H2068 H 0.38439 0.70227 0.35529 0.0
H2069 H 0.41155 0.76633 0.35261 0.0
C2070 C 0.2844 0.71433 0.33918 0.0
C2071 C 0.24414 0.71353 0.34474 0.0
C2072 C 0.30122 0.8015 0.35006 0.0
C2073 C 0.33916 0.80405 0.34344 0.0
N2074 N 0.36566 0.76374 0.33099 0.0
N2075 N 0.21242 0.75761 0.35479 0.0
C2076 C 0.33037 0.76066 0.3378 0.0
C2077 C 0.25215 0.75744 0.35005 0.0
N2078 N 0.27969 0.6702 0.33564 0.0
N2079 N 0.31249 0.84072 0.35655 0.0
H2080 H 0.1762 0.7261 0.35494 0.0
H2081 H 0.21427 0.78988 0.35785 0.0
H2082 H 0.34812 0.87292 0.35681 0.0
H2083 H 0.28827 0.83955 0.36226 0.0
H2084 H 0.30958 0.66712 0.33266 0.0
H2085 H 0.24693 0.63558 0.33661 0.0
H2086 H 0.35874 0.73547 0.32572 0.0
H2087 H 0.40102 0.79583 0.3301 0.0
C2088 C 0.31953 0.31889 0.17758 0.0
C2089 C 0.29274 0.34564 0.17861 0.0
C2090 C 0.37478 0.42566 0.17837 0.0
C2091 C 0.40074 0.39885 0.17625 0.0
N2092 N 0.39434 0.31977 0.17128 0.0
N2093 N 0.29493 0.42535 0.17905 0.0
C2094 C 0.37224 0.34538 0.17524 0.0
C2095 C 0.32049 0.39934 0.17871 0.0
N2096 N 0.29469 0.26778 0.17878 0.0
N2097 N 0.40214 0.47622 0.18038 0.0
H2098 H 0.25578 0.40757 0.17983 0.0
H2099 H 0.31203 0.46416 0.17795 0.0
H2100 H 0.44153 0.49651 0.18021 0.0
H2101 H 0.38626 0.49726 0.18302 0.0
H2102 H 0.31304 0.24691 0.17937 0.0
H2103 H 0.25617 0.24684 0.18013 0.0
H2104 H 0.37423 0.28163 0.16937 0.0
H2105 H 0.43153 0.33739 0.16873 0.0
C2106 C 0.60887 0.95779 0.17662 0.0
C2107 C 0.63717 0.0114 0.1766 0.0
C2108 C 0.71355 1.00733 0.18134 0.0
C2109 C 0.6867 0.95387 0.18008 0.0
N2110 N 0.60848 0.87793 0.17635 0.0
N2111 N 0.71793 0.0874 0.17774 0.0
C2112 C 0.63415 0.92907 0.17771 0.0
C2113 C 0.68979 0.03617 0.17877 0.0
N2114 N 0.55748 0.93436 0.17576 0.0
N2115 N 0.76209 0.03091 0.18491 0.0
H2116 H 0.702 0.10967 0.17597 0.0
H2117 H 0.75725 0.10749 0.17789 0.0
H2118 H 0.78194 0.0121 0.18638 0.0
H2119 H 0.78168 0.06866 0.18712 0.0
H2120 H 0.53355 0.89571 0.17664 0.0
H2121 H 0.53828 0.95439 0.17498 0.0
H2122 H 0.57198 0.85785 0.17342 0.0
H2123 H 0.62466 0.85548 0.17776 0.0
C2124 C 0.10713 0.71122 0.1799 0.0
C2125 C 0.08156 0.73938 0.17993 0.0
C2126 C 1.00163 0.66073 0.17625 0.0
C2127 C 0.02596 0.6317 0.17725 0.0
N2128 N 0.10145 0.62916 0.18143 0.0
N2129 N 1.00161 0.73745 0.18052 0.0
C2130 C 0.07871 0.65701 0.17945 0.0
C2131 C 0.02797 0.71296 0.17891 0.0
N2132 N 0.15868 0.73626 0.18026 0.0
N2133 N 0.95453 0.6397 0.17199 0.0
H2134 H 0.01898 0.77523 0.18253 0.0
H2135 H 0.96232 0.71894 0.18093 0.0
H2136 H 0.93498 0.60281 0.16924 0.0
H2137 H 0.93726 0.66059 0.17007 0.0
H2138 H 0.18006 0.71885 0.17907 0.0
H2139 H 0.1803 0.77528 0.1812 0.0
H2140 H 0.13836 0.64463 0.18411 0.0
H2141 H 0.08199 0.58981 0.18121 0.0
C2142 C 0.38559 0.3083 0.34016 0.0
C2143 C 0.35058 0.27834 0.34792 0.0
C2144 C 0.3634 0.35709 0.35606 0.0
C2145 C 0.40153 0.38686 0.34888 0.0
N2146 N 0.45456 0.39064 0.33498 0.0
N2147 N 0.31557 0.27681 0.36462 0.0
C2148 C 0.41401 0.36236 0.34114 0.0
C2149 C 0.34234 0.30349 0.35627 0.0
N2150 N 0.39244 0.28514 0.33188 0.0
N2151 N 0.34609 0.37991 0.3626 0.0
H2152 H 0.29995 0.23811 0.36538 0.0
H2153 H 0.31341 0.29382 0.37135 0.0
H2154 H 0.36038 0.41881 0.36275 0.0
H2155 H 0.31424 0.35998 0.36717 0.0
H2156 H 0.41219 0.30447 0.32538 0.0
H2157 H 0.37634 0.2461 0.3313 0.0
H2158 H 0.46938 0.37529 0.32989 0.0
H2159 H 0.47608 0.42983 0.33556 0.0
C2160 C 0.65497 0.99525 0.34075 0.0
C2161 C 0.63117 0.01391 0.34737 0.0
C2162 C 0.71411 0.09177 0.34961 0.0
C2163 C 0.73897 0.06878 0.34467 0.0
N2164 N 0.7318 0.99422 0.3367 0.0
N2165 N 0.63877 0.0818 0.35797 0.0
C2166 C 0.70902 0.01959 0.34042 0.0
C2167 C 0.66109 0.06279 0.35174 0.0
N2168 N 0.62627 0.95437 0.33472 0.0
N2169 N 0.74088 0.14208 0.3519 0.0
H2170 H 0.59972 0.06456 0.35886 0.0
H2171 H 0.65904 0.11364 0.36253 0.0
H2172 H 0.779 0.16477 0.35008 0.0
H2173 H 0.72439 0.16248 0.35459 0.0
H2174 H 0.64149 0.94217 0.32903 0.0
H2175 H 0.58705 0.93612 0.33461 0.0
H2176 H 0.71183 0.95624 0.33464 0.0
H2177 H 0.7708 0.00928 0.33661 0.0
C2178 C 0.93491 0.62492 0.34054 0.0
C2179 C 0.9438 0.66323 0.34785 0.0
C2180 C 1.01217 0.65195 0.35536 0.0
C2181 C 1.00086 0.61131 0.34858 0.0
N2182 N 0.9473 0.55504 0.33544 0.0
N2183 N 0.98503 0.70515 0.36361 0.0
C2184 C 0.96105 0.59676 0.34136 0.0
C2185 C 0.98052 0.67414 0.35568 0.0
N2186 N 0.9011 0.61511 0.3328 0.0
N2187 N 0.05459 0.67096 0.36132 0.0
H2188 H 0.96367 0.72275 0.36426 0.0
H2189 H 1.00654 0.70958 0.37013 0.0
H2190 H 0.07866 0.65608 0.36137 0.0
H2191 H 0.06873 0.70445 0.36544 0.0
H2192 H 0.89725 0.5927 0.3265 0.0
H2193 H 0.87802 0.63117 0.33244 0.0
H2194 H 0.91535 0.53862 0.33079 0.0
H2195 H 0.96624 0.53459 0.33569 0.0
C2196 C 0.6611 0.65813 0.8546 0.0
C2197 C 0.6317 0.61601 0.84813 0.0
C2198 C 0.71075 0.63081 0.83977 0.0
C2199 C 0.74023 0.67031 0.84684 0.0
N2200 N 0.74228 0.7149 0.86224 0.0
N2201 N 0.62878 0.5587 0.83523 0.0
C2202 C 0.71499 0.68171 0.85464 0.0
C2203 C 0.6567 0.60143 0.84089 0.0
N2204 N 0.63771 0.67737 0.86044 0.0
N2205 N 0.73443 0.62116 0.83198 0.0
H2206 H 0.5895 0.53725 0.83572 0.0
H2207 H 0.64441 0.54251 0.83058 0.0
H2208 H 0.77363 0.63905 0.83133 0.0
H2209 H 0.71543 0.59733 0.82587 0.0
H2210 H 0.65698 0.71153 0.86435 0.0
H2211 H 0.59874 0.66198 0.86056 0.0
H2212 H 0.72598 0.71957 0.86883 0.0
H2213 H 0.78151 0.73509 0.86243 0.0
C2214 C 0.39739 0.09252 0.85046 0.0
C2215 C 0.34824 0.06952 0.84605 0.0
C2216 C 0.35299 0.99195 0.84318 0.0
C2217 C 0.39869 0.01244 0.8489 0.0
N2218 N 0.46398 0.08243 0.85832 0.0
N2219 N 0.27648 0.99428 0.83931 0.0
C2220 C 0.4207 0.06285 0.85262 0.0
C2221 C 0.3256 0.01863 0.84257 0.0
N2222 N 0.42275 0.14338 0.85222 0.0
N2223 N 0.33521 0.9466 0.83837 0.0
H2224 H 0.25451 0.01149 0.83888 0.0
H2225 H 0.25574 0.95562 0.83792 0.0
H2226 H 0.35314 0.92545 0.83889 0.0
H2227 H 0.30546 0.93216 0.83315 0.0
H2228 H 0.46048 0.16366 0.85445 0.0
H2229 H 0.40752 0.16636 0.85048 0.0
H2230 H 0.47837 0.116 0.86242 0.0
H2231 H 0.48447 0.06386 0.85934 0.0
C2232 C 1.0068 0.3124 0.84352 0.0
C2233 C 0.95402 0.28437 0.84565 0.0
C2234 C 0.95856 0.36412 0.85119 0.0
C2235 C 1.01071 0.39224 0.84856 0.0
N2236 N 0.08153 0.39339 0.84029 0.0
N2237 N 0.87798 0.28599 0.84957 0.0
C2238 C 0.03358 0.36643 0.84401 0.0
C2239 C 0.92948 0.31107 0.84894 0.0
N2240 N 0.03265 0.28741 0.84185 0.0
N2241 N 0.93674 0.38808 0.85599 0.0
H2242 H 0.85567 0.24779 0.84779 0.0
H2243 H 0.85709 0.30379 0.85092 0.0
H2244 H 0.95553 0.42704 0.85714 0.0
H2245 H 0.90104 0.36915 0.8593 0.0
H2246 H 0.07186 0.3051 0.84143 0.0
H2247 H 0.01535 0.24839 0.842 0.0
H2248 H 0.09827 0.37767 0.8358 0.0
H2249 H 0.10303 0.43234 0.84096 0.0
C2250 C 0.60908 0.64992 0.68497 0.0
C2251 C 0.62082 0.62558 0.67708 0.0
C2252 C 0.67786 0.70883 0.66943 0.0
C2253 C 0.67091 0.73383 0.67797 0.0
N2254 N 0.63164 0.72706 0.69433 0.0
N2255 N 0.67352 0.63262 0.6628 0.0
C2256 C 0.6373 0.70392 0.68592 0.0
C2257 C 0.65735 0.65534 0.66963 0.0
N2258 N 0.56937 0.62154 0.69132 0.0
N2259 N 0.70279 0.7355 0.66092 0.0
H2260 H 0.65929 0.59373 0.6626 0.0
H2261 H 0.70438 0.65263 0.658 0.0
H2262 H 0.71761 0.7741 0.66015 0.0
H2263 H 0.70399 0.7185 0.65412 0.0
H2264 H 0.55516 0.63686 0.69656 0.0
H2265 H 0.54777 0.58236 0.69075 0.0
H2266 H 0.61304 0.70772 0.70093 0.0
H2267 H 0.64762 0.76609 0.69492 0.0
C2268 C 0.36779 0.01307 0.67086 0.0
C2269 C 0.3957 1.0041 0.67848 0.0
C2270 C 0.31476 0.94111 0.68653 0.0
C2271 C 0.28676 0.95203 0.67923 0.0
N2272 N 0.28801 1.00205 0.66479 0.0
N2273 N 0.39638 0.96064 0.69372 0.0
C2274 C 0.31378 0.98875 0.67146 0.0
C2275 C 0.36922 0.96856 0.68638 0.0
N2276 N 0.39295 0.04393 0.66279 0.0
N2277 N 0.28916 0.90212 0.69323 0.0
H2278 H 0.4354 0.97618 0.69326 0.0
H2279 H 0.38101 0.94057 0.70043 0.0
H2280 H 0.24986 0.88052 0.6934 0.0
H2281 H 0.30633 0.88837 0.69812 0.0
H2282 H 0.37535 0.04627 0.65616 0.0
H2283 H 0.43219 0.06539 0.66236 0.0
H2284 H 0.305 0.03353 0.66005 0.0
H2285 H 0.24897 0.98373 0.66441 0.0
C2286 C 0.06874 0.42511 0.68065 0.0
C2287 C 0.01775 0.40068 0.67715 0.0
C2288 C 0.01753 0.31995 0.6768 0.0
C2289 C 0.06987 0.34493 0.67929 0.0
N2290 N 0.14684 0.42265 0.68265 0.0
N2291 N 0.94833 0.32654 0.66947 0.0
C2292 C 0.0959 0.39799 0.68095 0.0
C2293 C 0.99332 0.3485 0.67463 0.0
N2294 N 0.09084 0.474 0.68393 0.0
N2295 N 0.99036 0.26855 0.67661 0.0
H2296 H 0.93057 0.34628 0.66709 0.0
H2297 H 0.93143 0.29012 0.66648 0.0
H2298 H 1.00671 0.24648 0.67796 0.0
H2299 H 0.95109 0.24802 0.6761 0.0
H2300 H 0.12588 0.49272 0.68754 0.0
H2301 H 0.07225 0.49479 0.68376 0.0
H2302 H 0.16931 0.46178 0.6828 0.0
H2303 H 0.16733 0.40386 0.68326 0.0
C2304 C 0.97734 0.65516 0.51082 0.0
C2305 C 0.95151 0.67896 0.51496 0.0
C2306 C 0.03426 0.7562 0.51781 0.0
C2307 C 0.0594 0.73374 0.51276 0.0
N2308 N 0.05234 0.66483 0.5025 0.0
N2309 N 0.95493 0.75391 0.52156 0.0
C2310 C 0.03023 0.68397 0.50876 0.0
C2311 C 0.97994 0.73003 0.51824 0.0
N2312 N 0.95152 0.60435 0.50906 0.0
N2313 N 0.06242 0.80209 0.52242 0.0
H2314 H 0.91568 0.73544 0.52222 0.0
H2315 H 0.97256 0.79246 0.52303 0.0
H2316 H 0.10179 0.82218 0.52214 0.0
H2317 H 0.04723 0.81859 0.52711 0.0
H2318 H 0.96902 0.58367 0.50719 0.0
H2319 H 0.91307 0.58191 0.51047 0.0
H2320 H 0.03198 0.63126 0.49843 0.0
H2321 H 0.0903 0.68475 0.50045 0.0
C2322 C 0.3696 0.3323 0.51238 0.0
C2323 C 0.34271 0.27878 0.51336 0.0
C2324 C 0.26273 0.28092 0.51298 0.0
C2325 C 0.28966 0.33365 0.51085 0.0
N2326 N 0.36893 0.4063 0.50601 0.0
N2327 N 0.26285 0.20137 0.51374 0.0
C2328 C 0.34319 0.35858 0.50995 0.0
C2329 C 0.28897 0.25291 0.5134 0.0
N2330 N 0.4207 0.3585 0.51374 0.0
N2331 N 0.21206 0.25779 0.51488 0.0
H2332 H 0.28056 0.17995 0.51459 0.0
H2333 H 0.22402 0.17973 0.51259 0.0
H2334 H 0.19187 0.27698 0.51465 0.0
H2335 H 0.19083 0.22086 0.51751 0.0
H2336 H 0.44158 0.39771 0.51428 0.0
H2337 H 0.44156 0.34095 0.51529 0.0
H2338 H 0.40711 0.4242 0.50412 0.0
H2339 H 0.35142 0.42619 0.50354 0.0
C2340 C 0.6601 0.98128 0.51607 0.0
C2341 C 0.68025 0.95618 0.51027 0.0
C2342 C 0.75946 0.03811 0.50819 0.0
C2343 C 0.73625 0.06396 0.51259 0.0
N2344 N 0.66136 0.05968 0.51971 0.0
N2345 N 0.75003 0.96091 0.50082 0.0
C2346 C 0.68594 0.03534 0.51638 0.0
C2347 C 0.7303 0.98481 0.50636 0.0
N2348 N 0.61607 0.95355 0.52129 0.0
N2349 N 0.81005 0.06423 0.50614 0.0
H2350 H 0.73227 0.92171 0.50021 0.0
H2351 H 0.783 0.97985 0.49654 0.0
H2352 H 0.83265 0.10276 0.50758 0.0
H2353 H 0.83067 0.0472 0.50391 0.0
H2354 H 0.60178 0.96905 0.52647 0.0
H2355 H 0.59666 0.91437 0.52127 0.0
H2356 H 0.62292 0.04127 0.52135 0.0
H2357 H 0.678 0.09883 0.51992 0.0
C2358 C 0.02584 0.70325 0.67563 0.0
C2359 C 0.06933 0.72775 0.68198 0.0
C2360 C 0.06301 0.64452 0.68475 0.0
C2361 C 0.01451 0.6195 0.68 0.0
N2362 N 0.946 0.62711 0.67259 0.0
N2363 N 0.12935 0.72048 0.69281 0.0
C2364 C 0.99505 0.64945 0.67583 0.0
C2365 C 0.08775 0.69786 0.68662 0.0
N2366 N 0.01404 0.73103 0.66924 0.0
N2367 N 0.08679 0.61792 0.68701 0.0
H2368 H 0.15147 0.75957 0.69355 0.0
H2369 H 0.14067 0.70039 0.6975 0.0
H2370 H 0.07124 0.5797 0.68532 0.0
H2371 H 0.12405 0.63471 0.68954 0.0
H2372 H 0.98496 0.71499 0.66387 0.0
H2373 H 0.03787 0.76951 0.66831 0.0
H2374 H 0.92849 0.64759 0.67052 0.0
H2375 H 0.92097 0.58844 0.67306 0.0
C2376 C 0.31613 0.33015 0.6762 0.0
C2377 C 0.29238 0.35083 0.68226 0.0
C2378 C 0.37557 0.42858 0.68424 0.0
C2379 C 0.4001 0.4041 0.6798 0.0
N2380 N 0.39239 0.32654 0.67328 0.0
N2381 N 0.30011 0.42095 0.6921 0.0
C2382 C 0.37001 0.35372 0.67613 0.0
C2383 C 0.32243 0.40045 0.68629 0.0
N2384 N 0.28759 0.28795 0.67049 0.0
N2385 N 0.4026 0.47931 0.6861 0.0
H2386 H 0.26104 0.40406 0.69291 0.0
H2387 H 0.32039 0.45368 0.69642 0.0
H2388 H 0.44089 0.50138 0.68439 0.0
H2389 H 0.38623 0.50048 0.68839 0.0
H2390 H 0.30306 0.27416 0.66517 0.0
H2391 H 0.24842 0.27008 0.6702 0.0
H2392 H 0.37198 0.2881 0.67162 0.0
H2393 H 0.43116 0.3405 0.6737 0.0
C2394 C 0.63565 0.94116 0.67454 0.0
C2395 C 0.66952 0.94913 0.68273 0.0
C2396 C 0.64885 0.01104 0.69027 0.0
C2397 C 0.61482 1.00319 0.68202 0.0
N2398 N 0.56795 0.95243 0.66757 0.0
N2399 N 0.70473 0.98762 0.699 0.0
C2400 C 0.60644 0.9662 0.67446 0.0
C2401 C 0.67487 0.98284 0.69077 0.0
N2402 N 0.63109 0.9091 0.66681 0.0
N2403 N 0.65813 0.04704 0.69748 0.0
H2404 H 0.72806 0.97185 0.69927 0.0
H2405 H 0.70493 1.00509 0.70584 0.0
H2406 H 0.63927 0.06736 0.69779 0.0
H2407 H 0.68702 0.05975 0.70286 0.0
H2408 H 0.61282 0.90626 0.65992 0.0
H2409 H 0.64779 0.88662 0.66714 0.0
H2410 H 0.55615 0.92261 0.66245 0.0
H2411 H 0.54418 0.96773 0.66759 0.0
C2412 C 0.33101 1.00644 0.18077 0.0
C2413 C 0.30285 0.95264 0.1804 0.0
C2414 C 0.38386 0.95294 0.17872 0.0
C2415 C 0.41079 1.00651 0.17795 0.0
N2416 N 0.40726 0.08302 0.17595 0.0
N2417 N 0.30298 0.87488 0.1776 0.0
C2418 C 0.38338 0.03271 0.17818 0.0
C2419 C 0.32954 0.92595 0.179 0.0
N2420 N 0.30914 0.03279 0.18443 0.0
N2421 N 0.41018 0.92775 0.17927 0.0
H2422 H 0.26362 0.85413 0.17769 0.0
H2423 H 0.31962 0.8537 0.17551 0.0
H2424 H 0.44942 0.94597 0.17863 0.0
H2425 H 0.39355 0.8895 0.18099 0.0
H2426 H 0.32922 0.07158 0.18574 0.0
H2427 H 0.27297 0.01544 0.18751 0.0
H2428 H 0.3881 0.10295 0.175 0.0
H2429 H 0.44539 0.1037 0.17406 0.0
C2430 C 1.00369 0.35868 0.17494 0.0
C2431 C 0.02439 0.40861 0.17888 0.0
C2432 C 0.09656 0.40226 0.1857 0.0
C2433 C 0.07666 0.35318 0.18138 0.0
N2434 N 0.0196 0.29287 0.16907 0.0
N2435 N 0.09723 0.48209 0.18575 0.0
C2436 C 0.03318 0.33426 0.17503 0.0
C2437 C 0.07283 0.4316 0.18362 0.0
N2438 N 0.95442 0.33259 0.17181 0.0
N2439 N 0.13848 0.42111 0.1918 0.0
H2440 H 0.08199 0.50502 0.184 0.0
H2441 H 0.1345 0.50227 0.18828 0.0
H2442 H 0.15981 0.40333 0.19268 0.0
H2443 H 0.15093 0.45331 0.19629 0.0
H2444 H 0.93607 0.29438 0.16992 0.0
H2445 H 0.93 0.34699 0.17222 0.0
H2446 H 0.99123 0.28059 0.16355 0.0
H2447 H 0.04022 0.2743 0.16882 0.0
C2448 C 0.67304 0.64944 0.17467 0.0
C2449 C 0.62476 0.61857 0.17933 0.0
C2450 C 0.6322 0.69587 0.18714 0.0
C2451 C 0.68002 0.72652 0.18241 0.0
N2452 N 0.73607 0.73281 0.16885 0.0
N2453 N 0.55245 0.61675 0.18711 0.0
C2454 C 0.69709 0.70345 0.17524 0.0
C2455 C 0.6027 0.6431 0.18476 0.0
N2456 N 0.69798 0.62783 0.1702 0.0
N2457 N 0.61423 0.71728 0.19386 0.0
H2458 H 0.52877 0.57945 0.18486 0.0
H2459 H 0.53287 0.63336 0.1902 0.0
H2460 H 0.63096 0.75619 0.19487 0.0
H2461 H 0.58365 0.69626 0.19868 0.0
H2462 H 0.73547 0.64851 0.16784 0.0
H2463 H 0.68392 0.58915 0.16981 0.0
H2464 H 0.74699 0.71833 0.16279 0.0
H2465 H 0.75311 0.77185 0.16875 0.0
C2466 C 0.3031 0.98395 0.01919 0.0
C2467 C 0.29435 0.96016 1.00949 0.0
C2468 C 0.33904 0.04513 1.00151 0.0
C2469 C 0.3411 0.06836 1.01115 0.0
N2470 N 0.314 0.05656 0.02875 0.0
N2471 N 0.30657 0.96918 0.99122 0.0
C2472 C 0.3201 0.03674 0.01986 0.0
C2473 C 0.31268 0.99115 1.00061 0.0
N2474 N 0.29691 0.9566 0.02784 0.0
N2475 N 0.36507 0.07407 0.9933 0.0
H2476 H 0.29748 0.93177 0.99023 0.0
H2477 H 0.30995 0.98799 0.98436 0.0
H2478 H 0.38433 0.11317 0.99324 0.0
H2479 H 0.37114 0.05944 0.98661 0.0
H2480 H 0.30669 0.97263 0.03511 0.0
H2481 H 0.28867 0.9193 0.02757 0.0
H2482 H 0.29453 0.03448 0.03503 0.0
H2483 H 0.32298 0.0941 0.02943 0.0
C2484 C 0.03569 0.36228 1.00949 0.0
C2485 C 0.06353 0.33627 1.00977 0.0
C2486 C 0.98243 0.25591 1.01149 0.0
C2487 C 0.95571 0.28277 1.01231 0.0
N2488 N 0.95967 0.36314 0.0143 0.0
N2489 N 0.06302 0.25819 0.01268 0.0
C2490 C 0.98332 0.33641 1.0121 0.0
C2491 C 0.03668 0.28295 1.0112 0.0
N2492 N 0.05776 0.41063 1.00589 0.0
N2493 N 0.95599 0.20442 1.01096 0.0
H2494 H 0.10239 0.27652 0.01266 0.0
H2495 H 0.04617 0.22042 0.01481 0.0
H2496 H 0.91679 0.18341 1.0117 0.0
H2497 H 0.97252 0.18277 1.00916 0.0
H2498 H 0.03789 0.42963 1.00464 0.0
H2499 H 0.09392 0.42949 1.00281 0.0
H2500 H 0.97912 0.40212 0.01536 0.0
H2501 H 0.92135 0.34618 0.01597 0.0
C2502 C 0.6843 0.65426 0.01521 0.0
C2503 C 0.73712 0.6791 0.0132 0.0
C2504 C 0.73416 0.75633 1.00886 0.0
C2505 C 0.68189 0.73186 1.01138 0.0
N2506 N 0.61081 0.6612 0.01932 0.0
N2507 N 0.81411 0.75716 1.01008 0.0
C2508 C 0.65842 0.68225 0.01543 0.0
C2509 C 0.76258 0.73122 1.0106 0.0
N2510 N 0.65762 0.60298 0.01607 0.0
N2511 N 0.75657 0.80351 1.00466 0.0
H2512 H 0.83591 0.74022 1.01143 0.0
H2513 H 0.83547 0.79615 1.00921 0.0
H2514 H 0.73808 0.82427 1.00398 0.0
H2515 H 0.79252 0.82109 1.00146 0.0
H2516 H 0.61836 0.582 0.01644 0.0
H2517 H 0.6743 0.58091 0.01515 0.0
H2518 H 0.59351 0.62722 0.02332 0.0
H2519 H 0.59076 0.68031 0.01946 0.0
C2520 C 0.70576 0.02564 0.8503 0.0
C2521 C 0.72971 0.06851 0.84383 0.0
C2522 C 0.64681 0.06415 0.84195 0.0
C2523 C 0.62161 0.01539 0.84654 0.0
N2524 N 0.62971 0.94615 0.85336 0.0
N2525 N 0.72184 0.12941 0.83346 0.0
C2526 C 0.65181 0.99543 0.85039 0.0
C2527 C 0.69973 0.0879 0.83964 0.0
N2528 N 0.73414 0.01327 0.85639 0.0
N2529 N 0.62075 0.08897 0.84019 0.0
H2530 H 0.76083 0.1507 0.83241 0.0
H2531 H 0.70131 0.14145 0.82909 0.0
H2532 H 0.58309 0.07424 0.84231 0.0
H2533 H 0.63778 0.12629 0.83773 0.0
H2534 H 0.71834 0.98537 0.86199 0.0
H2535 H 0.77334 0.03468 0.85668 0.0
H2536 H 0.65038 0.92862 0.85527 0.0
H2537 H 0.59121 0.92109 0.85268 0.0
C2538 C 0.94478 0.63273 0.85097 0.0
C2539 C 0.95924 0.67169 0.84358 0.0
C2540 C 0.01976 0.64898 0.83639 0.0
C2541 C 1.00952 0.6134 0.84444 0.0
N2542 N 0.96394 0.57456 0.85995 0.0
N2543 N 0.01836 0.72378 0.83067 0.0
C2544 C 0.97284 0.60666 0.85195 0.0
C2545 C 0.9992 0.68189 0.83676 0.0
N2546 N 0.90278 0.6191 0.85676 0.0
N2547 N 0.04754 0.65063 0.82809 0.0
H2548 H 1.00417 0.7485 0.83059 0.0
H2549 H 0.05147 0.73679 0.82647 0.0
H2550 H 0.0621 0.62683 0.82706 0.0
H2551 H 0.0512 0.67175 0.82157 0.0
H2552 H 0.88667 0.58765 0.86153 0.0
H2553 H 0.88162 0.63719 0.8562 0.0
H2554 H 0.94266 0.57261 0.86632 0.0
H2555 H 0.97983 0.55139 0.86048 0.0
C2556 C 0.33053 0.32069 0.84908 0.0
C2557 C 0.35244 0.29466 0.84427 0.0
C2558 C 0.43414 0.3753 0.84379 0.0
C2559 C 0.41011 0.40254 0.84704 0.0
N2560 N 0.33161 0.39973 0.85112 0.0
N2561 N 0.42577 0.29783 0.83675 0.0
C2562 C 0.35743 0.37474 0.8494 0.0
C2563 C 0.40452 0.32228 0.84156 0.0
N2564 N 0.28343 0.2939 0.85321 0.0
N2565 N 0.48564 0.39971 0.84319 0.0
H2566 H 0.40675 0.25876 0.83576 0.0
H2567 H 0.46128 0.31641 0.83336 0.0
H2568 H 0.50842 0.43772 0.84507 0.0
H2569 H 0.50602 0.38139 0.84183 0.0
H2570 H 0.26738 0.31009 0.85776 0.0
H2571 H 0.26257 0.25474 0.85296 0.0
H2572 H 0.29243 0.38183 0.8517 0.0
H2573 H 0.3485 0.43869 0.85083 0.0
C2574 C 0.7259 0.9819 1.00646 0.0
C2575 C 0.6843 0.95268 0.01305 0.0
C2576 C 0.69759 0.03145 0.02126 0.0
C2577 C 0.73715 0.06067 0.01427 0.0
N2578 N 0.78801 0.06467 0.99993 0.0
N2579 N 0.62691 0.95018 0.02605 0.0
C2580 C 0.75086 0.03605 1.00677 0.0
C2581 C 0.66943 0.97766 0.02031 0.0
N2582 N 0.7433 0.9578 1.0003 0.0
N2583 N 0.68761 0.05514 0.02903 0.0
H2584 H 0.60551 0.91097 0.02591 0.0
H2585 H 0.61 0.9661 0.03041 0.0
H2586 H 0.70479 0.09426 0.02968 0.0
H2587 H 0.66469 0.03637 0.03525 0.0
H2588 H 0.77629 0.97619 0.99603 0.0
H2589 H 0.72663 0.91862 1.00001 0.0
H2590 H 0.79623 0.05019 0.99349 0.0
H2591 H 0.80943 0.10387 1.00045 0.0
C2592 C 0.98804 0.7345 0.01874 0.0
C2593 C 0.95807 0.68465 0.01484 0.0
C2594 C 0.0351 0.68827 1.0082 0.0
C2595 C 0.06514 0.73887 1.01175 0.0
N2596 N 0.06741 0.81399 0.01805 0.0
N2597 N 0.95237 0.622 1.0029 0.0
C2598 C 0.04072 0.76312 0.01634 0.0
C2599 C 0.9813 0.66431 1.00855 0.0
N2600 N 0.96613 0.75469 0.02476 0.0
N2601 N 0.05741 0.66117 1.00525 0.0
H2602 H 0.91317 0.60383 1.00282 0.0
H2603 H 0.96745 0.60853 0.99743 0.0
H2604 H 0.09621 0.67522 1.0055 0.0
H2605 H 0.03696 0.62264 1.00367 0.0
H2606 H 0.98671 0.78778 0.02895 0.0
H2607 H 0.92718 0.73716 0.02587 0.0
H2608 H 0.05092 0.83484 0.02047 0.0
H2609 H 0.10531 0.83634 0.01605 0.0
C2610 C 0.31191 0.34291 0.02233 0.0
C2611 C 0.28053 0.33559 0.0136 0.0
C2612 C 0.30236 0.27226 1.00721 0.0
C2613 C 0.33734 0.28374 0.01536 0.0
N2614 N 0.38206 0.33714 0.02965 0.0
N2615 N 0.24841 0.29432 0.99736 0.0
C2616 C 0.34389 0.32106 0.02261 0.0
C2617 C 0.27689 0.30079 1.0059 0.0
N2618 N 0.31084 0.36981 0.03056 0.0
N2619 N 0.29192 0.23257 1.00091 0.0
H2620 H 0.22532 0.31018 0.99654 0.0
H2621 H 0.24924 0.27499 0.99089 0.0
H2622 H 0.30965 0.21113 1.00167 0.0
H2623 H 0.26315 0.21829 0.99547 0.0
H2624 H 0.32781 0.37083 0.03754 0.0
H2625 H 0.28925 0.38724 0.03092 0.0
H2626 H 0.39327 0.3687 0.03427 0.0
H2627 H 0.40587 0.32198 0.03022 0.0
C2628 C 0.04383 0.2858 0.51678 0.0
C2629 C 0.06883 0.33519 0.51248 0.0
C2630 C 0.98473 0.32542 0.50893 0.0
C2631 C 0.96087 0.28142 0.5151 0.0
N2632 N 0.96846 0.21829 0.52472 0.0
N2633 N 0.06101 0.4051 0.50596 0.0
C2634 C 0.9908 0.26132 0.51898 0.0
C2635 C 0.0387 0.35562 0.50884 0.0
N2636 N 0.07018 0.26109 0.51831 0.0
N2637 N 0.95619 0.3385 0.50307 0.0
H2638 H 0.09979 0.42983 0.50634 0.0
H2639 H 0.04048 0.42304 0.50429 0.0
H2640 H 0.91705 0.31652 0.50266 0.0
H2641 H 0.97181 0.36746 0.49768 0.0
H2642 H 0.05337 0.2234 0.5205 0.0
H2643 H 0.10803 0.27649 0.51629 0.0
H2644 H 0.98878 0.20552 0.52895 0.0
H2645 H 0.92938 0.19618 0.52551 0.0
C2646 C 0.65281 0.67879 0.5088 0.0
C2647 C 0.67664 0.73042 0.51187 0.0
C2648 C 0.75025 0.72436 0.51792 0.0
C2649 C 0.72669 0.67299 0.51476 0.0
N2650 N 0.66013 0.60467 0.50527 0.0
N2651 N 0.75282 0.80512 0.5171 0.0
C2652 C 0.67966 0.65155 0.5095 0.0
C2653 C 0.72681 0.75394 0.51578 0.0
N2654 N 0.60318 0.65448 0.50588 0.0
N2655 N 0.79506 0.74487 0.52312 0.0
H2656 H 0.73736 0.82792 0.51539 0.0
H2657 H 0.79104 0.82564 0.51896 0.0
H2658 H 0.8154 0.72609 0.52407 0.0
H2659 H 0.81105 0.77951 0.52686 0.0
H2660 H 0.58169 0.61563 0.50481 0.0
H2661 H 0.58175 0.67224 0.50536 0.0
H2662 H 0.62908 0.58894 0.50037 0.0
H2663 H 0.67763 0.58312 0.50595 0.0
C2664 C 0.32774 0.97452 0.50993 0.0
C2665 C 0.27746 0.94493 0.51368 0.0
C2666 C 0.28354 0.02376 0.52028 0.0
C2667 C 0.33275 0.05316 0.51601 0.0
N2668 N 0.39337 0.05595 0.50389 0.0
N2669 N 0.20358 0.94457 0.52018 0.0
C2670 C 0.35186 0.0284 0.50982 0.0
C2671 C 0.25423 0.97054 0.51822 0.0
N2672 N 0.35464 0.9517 0.50727 0.0
N2673 N 0.26446 0.04672 0.52629 0.0
H2674 H 0.18068 0.90651 0.51836 0.0
H2675 H 0.18332 0.96174 0.52258 0.0
H2676 H 0.28228 0.0858 0.52718 0.0
H2677 H 0.2321 0.02689 0.53072 0.0
H2678 H 0.39289 0.97164 0.50541 0.0
H2679 H 0.3407 0.91332 0.50827 0.0
H2680 H 0.40591 0.03955 0.49852 0.0
H2681 H 0.41173 0.0951 0.50349 0.0
C2682 C 0.95946 0.37149 0.34396 0.0
C2683 C 1.01077 0.39857 0.34725 0.0
C2684 C 1.00817 0.31663 0.34933 0.0
C2685 C 0.9603 0.29081 0.34445 0.0
N2686 N 0.89026 0.29419 0.33685 0.0
N2687 N 0.08623 0.39549 0.35155 0.0
C2688 C 0.93594 0.31852 0.34172 0.0
C2689 C 0.03548 0.37066 0.34969 0.0
N2690 N 0.9325 0.39603 0.34333 0.0
N2691 N 0.02823 0.28962 0.3535 0.0
H2692 H 0.10843 0.43446 0.35141 0.0
H2693 H 0.10741 0.37748 0.35216 0.0
H2694 H 1.00959 0.25046 0.35326 0.0
H2695 H 0.06045 0.30558 0.35809 0.0
H2696 H 0.89379 0.3778 0.34193 0.0
H2697 H 0.94782 0.43403 0.34522 0.0
H2698 H 0.87338 0.31286 0.33344 0.0
H2699 H 0.87018 0.25513 0.33583 0.0
C2700 C 0.69889 0.66813 0.33662 0.0
C2701 C 0.72821 0.65983 0.344 0.0
C2702 C 0.64918 0.60006 0.35298 0.0
C2703 C 0.61961 0.606 0.34521 0.0
N2704 N 0.6176 0.6398 0.32858 0.0
N2705 N 0.73129 0.6132 0.3585 0.0
C2706 C 0.64489 0.6381 0.33672 0.0
C2707 C 0.70326 0.62452 0.352 0.0
N2708 N 0.72257 0.70626 0.32966 0.0
N2709 N 0.62556 0.57052 0.36129 0.0
H2710 H 0.77055 0.63071 0.35805 0.0
H2711 H 0.71582 0.58421 0.36385 0.0
H2712 H 0.58642 0.54831 0.36186 0.0
H2713 H 0.64448 0.5695 0.36783 0.0
H2714 H 0.70357 0.71883 0.32496 0.0
H2715 H 0.7617 0.72856 0.32915 0.0
H2716 H 0.63381 0.65654 0.32162 0.0
H2717 H 0.57839 0.62179 0.32843 0.0
C2718 C 0.39872 0.08181 0.34959 0.0
C2719 C 0.35214 0.06182 0.34417 0.0
C2720 C 0.35559 0.98411 0.34092 0.0
C2721 C 0.40466 1.00579 0.34539 0.0
N2722 N 0.47498 0.0778 0.35324 0.0
N2723 N 0.29158 0.99746 0.33292 0.0
C2724 C 0.4267 0.05538 0.34955 0.0
C2725 C 0.33214 0.01397 0.33935 0.0
N2726 N 0.4157 0.12564 0.35497 0.0
N2727 N 0.32993 0.93398 0.3386 0.0
H2728 H 0.27331 0.01788 0.33146 0.0
H2729 H 0.27895 0.96574 0.32827 0.0
H2730 H 0.34471 0.91064 0.34005 0.0
H2731 H 0.29209 0.91457 0.3364 0.0
H2732 H 0.44634 0.13985 0.35997 0.0
H2733 H 0.39671 0.14604 0.35501 0.0
H2734 H 0.49558 0.11559 0.35538 0.0
H2735 H 0.49586 0.05931 0.35353 0.0
C2736 C 0.21983 0.36832 0.09058 0.0
C2737 C 0.17798 0.36036 0.08446 0.0
C2738 C 0.12128 0.32016 0.09908 0.0
C2739 C 0.16365 0.33273 0.10545 0.0
N2740 N 0.2539 0.37384 0.10764 0.0
N2741 N 0.0898 0.33557 0.08324 0.0
C2742 C 0.21316 0.35807 0.10129 0.0
C2743 C 0.1289 0.338 0.08881 0.0
N2744 N 0.26571 0.38451 0.08607 0.0
N2745 N 0.07357 0.28993 0.10277 0.0
H2746 H 0.09362 0.34796 0.07569 0.0
H2747 H 0.0546 0.32519 0.08634 0.0
H2748 H 0.06639 0.27619 0.11024 0.0
H2749 H 0.04132 0.27479 0.0982 0.0
H2750 H 0.29649 0.38604 0.08984 0.0
H2751 H 0.27192 0.39263 0.07829 0.0
H2752 H 0.29104 0.39733 0.10532 0.0
H2753 H 0.25042 0.36645 0.11548 0.0
C2754 C 0.64355 0.83586 0.09293 0.0
C2755 C 0.6811 0.8428 0.0857 0.0
C2756 C 0.73978 0.85445 0.09969 0.0
C2757 C 0.70309 0.85008 0.10689 0.0
N2758 N 0.62443 0.84732 0.11039 0.0
N2759 N 0.76778 0.86843 0.08202 0.0
C2760 C 0.65631 0.84415 0.1035 0.0
C2761 C 0.73016 0.85517 0.08904 0.0
N2762 N 0.59503 0.81905 0.08977 0.0
N2763 N 0.78281 0.85559 0.10299 0.0
H2764 H 0.76191 0.86919 0.07417 0.0
H2765 H 0.80556 0.88289 0.08399 0.0
H2766 H 0.79141 0.8554 0.11071 0.0
H2767 H 0.80818 0.85285 0.09811 0.0
H2768 H 0.56482 0.80765 0.09478 0.0
H2769 H 0.58398 0.81252 0.08211 0.0
H2770 H 0.59219 0.84855 0.10828 0.0
H2771 H 0.63266 0.85343 0.11818 0.0
C2772 C 0.14307 0.86956 0.09816 0.0
C2773 C 0.15577 0.84374 0.10557 0.0
C2774 C 0.15362 0.78718 0.09195 0.0
C2775 C 0.15328 0.82053 0.0844 0.0
N2776 N 0.10491 0.862 0.08162 0.0
N2777 N 0.17128 0.77553 0.1095 0.0
C2778 C 0.13586 0.85335 0.08778 0.0
C2779 C 0.16047 0.80177 0.10246 0.0
N2780 N 0.13891 0.91036 0.10092 0.0
N2781 N 0.13792 0.73834 0.08939 0.0
H2782 H 0.17414 0.78332 0.11731 0.0
H2783 H 0.18041 0.74815 0.10743 0.0
H2784 H 0.12208 0.72386 0.08223 0.0
H2785 H 0.13299 0.71089 0.09471 0.0
H2786 H 0.13464 0.93325 0.09556 0.0
H2787 H 0.14375 0.92358 0.10842 0.0
H2788 H 0.0873 0.88189 0.08402 0.0
H2789 H 0.09109 0.84264 0.07473 0.0
C2790 C 0.39845 0.19078 0.43257 0.0
C2791 C 0.36121 0.18164 0.44005 0.0
C2792 C 0.30702 0.18417 0.42639 0.0
C2793 C 0.33869 0.18062 0.41887 0.0
N2794 N 0.4282 0.22396 0.4157 0.0
N2795 N 0.27956 0.1714 0.44404 0.0
C2796 C 0.38882 0.19618 0.42212 0.0
C2797 C 0.31534 0.17892 0.43695 0.0
N2798 N 0.44278 0.19339 0.43536 0.0
N2799 N 0.27571 0.20199 0.42367 0.0
H2800 H 0.28495 0.16941 0.45187 0.0
H2801 H 0.24345 0.16394 0.44202 0.0
H2802 H 0.27717 0.21663 0.41639 0.0
H2803 H 0.25494 0.20972 0.42894 0.0
H2804 H 0.46877 0.19493 0.43001 0.0
H2805 H 0.45167 0.19011 0.44292 0.0
H2806 H 0.4659 0.24032 0.41794 0.0
H2807 H 0.42274 0.23674 0.40866 0.0
C2808 C 0.81534 0.14216 0.42437 0.0
C2809 C 0.85974 0.17735 0.4191 0.0
C2810 C 0.89425 0.22502 0.43505 0.0
C2811 C 0.8482 0.19234 0.44012 0.0
N2812 N 0.76237 0.12354 0.43941 0.0
N2813 N 0.93798 0.25678 0.41895 0.0
C2814 C 0.80801 0.15183 0.43472 0.0
C2815 C 0.89823 0.22005 0.42432 0.0
N2816 N 0.78083 0.09886 0.41953 0.0
N2817 N 0.93484 0.25986 0.44057 0.0
H2818 H 0.94255 0.25447 0.4111 0.0
H2819 H 0.96416 0.29148 0.42207 0.0
H2820 H 0.93351 0.26481 0.44843 0.0
H2821 H 0.97104 0.28086 0.43755 0.0
H2822 H 0.75039 0.06905 0.42322 0.0
H2823 H 0.78467 0.09105 0.41193 0.0
H2824 H 0.72989 0.097 0.43562 0.0
H2825 H 0.75595 0.12919 0.447 0.0
C2826 C 0.8486 0.73157 0.42613 0.0
C2827 C 0.84092 0.6955 0.41847 0.0
C2828 C 0.81674 0.63028 0.43168 0.0
C2829 C 0.82815 0.66721 0.43938 0.0
N2830 N 0.86394 0.75475 0.44406 0.0
N2831 N 0.82667 0.61299 0.414 0.0
C2832 C 0.84671 0.71841 0.43664 0.0
C2833 C 0.82764 0.64553 0.42127 0.0
N2834 N 0.85573 0.77781 0.42338 0.0
N2835 N 0.7937 0.58036 0.43428 0.0
H2836 H 0.83459 0.62292 0.40631 0.0
H2837 H 0.82252 0.57785 0.4157 0.0
H2838 H 0.78489 0.56766 0.4418 0.0
H2839 H 0.77939 0.55124 0.42893 0.0
H2840 H 0.85574 0.80353 0.42859 0.0
H2841 H 0.85751 0.78902 0.41579 0.0
H2842 H 0.88297 0.79326 0.44248 0.0
H2843 H 0.86321 0.74662 0.45182 0.0
C2844 C 0.90317 0.69317 0.92516 0.0
C2845 C 0.86246 0.68967 0.91924 0.0
C2846 C 0.80645 0.65619 0.93419 0.0
C2847 C 0.84789 0.66239 0.94022 0.0
N2848 N 0.93732 0.6944 0.942 0.0
N2849 N 0.77749 0.67503 0.91833 0.0
C2850 C 0.89677 0.68322 0.93586 0.0
C2851 C 0.81465 0.67322 0.92383 0.0
N2852 N 0.94744 0.70415 0.92046 0.0
N2853 N 0.75903 0.63273 0.9383 0.0
H2854 H 0.78208 0.68665 0.91071 0.0
H2855 H 0.74357 0.6687 0.92147 0.0
H2856 H 0.75195 0.62115 0.94591 0.0
H2857 H 0.72633 0.62178 0.93404 0.0
H2858 H 0.97641 0.70148 0.92407 0.0
H2859 H 0.95391 0.71221 0.91268 0.0
H2860 H 0.97464 0.71483 0.93955 0.0
H2861 H 0.93405 0.68683 0.94983 0.0
C2862 C 0.35022 0.22819 0.92424 0.0
C2863 C 0.33763 0.18213 0.91925 0.0
C2864 C 0.35659 0.15092 0.93505 0.0
C2865 C 0.36525 0.19537 0.94022 0.0
N2866 N 0.36214 0.2726 0.94027 0.0
N2867 N 0.32233 0.09697 0.92009 0.0
C2868 C 0.35977 0.23297 0.93495 0.0
C2869 C 0.33905 0.14271 0.92471 0.0
N2870 N 0.35463 0.26802 0.91866 0.0
N2871 N 0.36647 0.11727 0.93994 0.0
H2872 H 0.31002 0.08998 0.91251 0.0
H2873 H 0.31715 0.06494 0.92394 0.0
H2874 H 0.37854 0.12175 0.94753 0.0
H2875 H 0.36629 0.08693 0.9363 0.0
H2876 H 0.36927 0.3043 0.92161 0.0
H2877 H 0.34771 0.26604 0.91081 0.0
H2878 H 0.35277 0.29812 0.93711 0.0
H2879 H 0.36932 0.27767 0.9481 0.0
C2880 C 0.81228 0.12861 0.92408 0.0
C2881 C 0.85505 0.16474 0.91853 0.0
C2882 C 0.88929 0.21533 0.93419 0.0
C2883 C 0.84459 0.18126 0.9395 0.0
N2884 N 0.75966 0.11032 0.9391 0.0
N2885 N 0.93113 0.24577 0.91781 0.0
C2886 C 0.80499 0.13923 0.93432 0.0
C2887 C 0.89276 0.20907 0.92346 0.0
N2888 N 0.77942 0.08329 0.91967 0.0
N2889 N 0.92894 0.25283 0.93946 0.0
H2890 H 0.93504 0.24215 0.90999 0.0
H2891 H 0.95683 0.28127 0.92068 0.0
H2892 H 0.9274 0.25878 0.94728 0.0
H2893 H 0.96453 0.2756 0.93631 0.0
H2894 H 0.75087 0.05317 0.92368 0.0
H2895 H 0.78321 0.07404 0.91217 0.0
H2896 H 0.72751 0.08282 0.93536 0.0
H2897 H 0.75274 0.11664 0.9466 0.0
C2898 C 0.73339 0.85823 0.58856 0.0
C2899 C 0.68257 0.82757 0.58523 0.0
C2900 C 0.65711 0.80933 0.6033 0.0
C2901 C 0.70496 0.84963 0.60639 0.0
N2902 N 0.78984 0.91289 0.60174 0.0
N2903 N 0.6133 0.74675 0.5902 0.0
C2904 C 0.74359 0.87397 0.59897 0.0
C2905 C 0.64833 0.795 0.59278 0.0
N2906 N 0.77193 0.86503 0.58232 0.0
N2907 N 0.61988 0.78452 0.61035 0.0
H2908 H 0.61344 0.732 0.58301 0.0
H2909 H 0.59016 0.71972 0.59553 0.0
H2910 H 0.62538 0.79228 0.61816 0.0
H2911 H 0.58281 0.75851 0.60829 0.0
H2912 H 0.80959 0.88317 0.58466 0.0
H2913 H 0.76502 0.84576 0.57538 0.0
H2914 H 0.81738 0.93496 0.5964 0.0
H2915 H 0.79917 0.92545 0.60927 0.0
C2916 C 0.13745 0.78886 0.59066 0.0
C2917 C 0.1822 0.82463 0.58558 0.0
C2918 C 0.21281 0.87408 0.60146 0.0
C2919 C 0.16652 0.84016 0.60631 0.0
N2920 N 0.08139 0.77007 0.60514 0.0
N2921 N 0.25965 0.90453 0.58557 0.0
C2922 C 0.12787 0.79888 0.60079 0.0
C2923 C 0.21914 0.86821 0.59083 0.0
N2924 N 0.10475 0.74449 0.5859 0.0
N2925 N 0.25119 0.911 0.6071 0.0
H2926 H 0.26581 0.90097 0.57785 0.0
H2927 H 0.28517 0.93967 0.58862 0.0
H2928 H 0.2475 0.91682 0.61483 0.0
H2929 H 0.28771 0.93356 0.60435 0.0
H2930 H 0.07463 0.71436 0.58959 0.0
H2931 H 0.10991 0.73599 0.57844 0.0
H2932 H 0.04992 0.74315 0.60114 0.0
H2933 H 0.07296 0.77582 0.61257 0.0
C2934 C 0.14327 0.32745 0.59036 0.0
C2935 C 0.19187 0.34873 0.58583 0.0
C2936 C 0.2286 0.34825 0.60258 0.0
C2937 C 0.17946 0.32276 0.6069 0.0
N2938 N 0.0893 0.28354 0.60485 0.0
N2939 N 0.27999 0.3737 0.58724 0.0
C2940 C 0.13655 0.31123 0.60077 0.0
C2941 C 0.23437 0.35776 0.59185 0.0
N2942 N 0.10381 0.32386 0.58474 0.0
N2943 N 0.2699 0.36425 0.60879 0.0
H2944 H 0.28601 0.38173 0.57945 0.0
H2945 H 0.31098 0.37533 0.59093 0.0
H2946 H 0.2672 0.35721 0.61663 0.0
H2947 H 0.30682 0.38794 0.60636 0.0
H2948 H 0.06864 0.31374 0.58782 0.0
H2949 H 0.10732 0.33469 0.57709 0.0
H2950 H 0.05622 0.26883 0.60055 0.0
H2951 H 0.08311 0.27237 0.61249 0.0
C2952 C 0.96213 0.47578 0.75898 0.0
C2953 C 1.00069 0.49628 0.75145 0.0
C2954 C 0.06531 0.52778 0.76499 0.0
C2955 C 0.02675 0.50925 0.77253 0.0
N2956 N 0.93906 0.47568 0.77674 0.0
N2957 N 0.08823 0.55136 0.74726 0.0
C2958 C 0.9753 0.48643 0.76952 0.0
C2959 C 0.05209 0.52536 0.75447 0.0
N2960 N 0.91314 0.44405 0.75613 0.0
N2961 N 0.1144 0.54544 0.76784 0.0
H2962 H 0.07978 0.55062 0.7395 0.0
H2963 H 0.12565 0.57728 0.74905 0.0
H2964 H 0.12578 0.54791 0.77544 0.0
H2965 H 0.14332 0.55391 0.76264 0.0
H2966 H 0.88429 0.42331 0.76132 0.0
H2967 H 0.90183 0.43526 0.74852 0.0
H2968 H 0.90153 0.46381 0.77496 0.0
H2969 H 0.94746 0.48316 0.7845 0.0
C2970 C 0.5553 0.54535 0.75729 0.0
C2971 C 0.51484 0.50577 0.75175 0.0
C2972 C 0.46434 0.47783 0.76754 0.0
C2973 C 0.50325 0.51993 0.77283 0.0
N2974 N 0.58211 0.5987 0.77235 0.0
N2975 N 0.4284 0.43819 0.75118 0.0
C2976 C 0.54771 0.55508 0.76758 0.0
C2977 C 0.46862 0.473 0.75677 0.0
N2978 N 0.60169 0.57259 0.75281 0.0
N2979 N 0.42395 0.44176 0.77286 0.0
H2980 H 0.4304 0.43342 0.74333 0.0
H2981 H 0.39211 0.41672 0.75412 0.0
H2982 H 0.41938 0.44447 0.78069 0.0
H2983 H 0.39698 0.40748 0.76972 0.0
H2984 H 0.6341 0.59793 0.75679 0.0
H2985 H 0.60895 0.56675 0.74529 0.0
H2986 H 0.61228 0.62844 0.76858 0.0
H2987 H 0.57818 0.60722 0.77989 0.0
C2988 C 0.50825 0.96922 0.75556 0.0
C2989 C 0.53713 0.02046 0.75245 0.0
C2990 C 0.55309 0.04491 0.77057 0.0
C2991 C 0.51394 0.99609 0.77342 0.0
N2992 N 0.45423 0.91043 0.76844 0.0
N2993 N 0.61605 0.09165 0.75776 0.0
C2994 C 0.49182 0.95768 0.76587 0.0
C2995 C 0.5682 0.05493 0.76014 0.0
N2996 N 0.50359 0.93196 0.74915 0.0
N2997 N 0.57598 0.08186 0.77778 0.0
H2998 H 0.63168 0.09272 0.75061 0.0
H2999 H 0.64217 0.11521 0.7632 0.0
H3000 H 0.56755 0.07554 0.78555 0.0
H3001 H 0.60099 0.11939 0.77588 0.0
H3002 H 0.48691 0.89421 0.75134 0.0
H3003 H 0.52298 0.9403 0.74222 0.0
H3004 H 0.43358 0.88281 0.76299 0.0
H3005 H 0.44123 0.90014 0.77592 0.0
C3006 C 0.57516 0.02869 0.25748 0.0
C3007 C 0.53364 0.02286 0.25152 0.0
C3008 C 0.4776 0.98675 0.26638 0.0
C3009 C 0.5197 0.99517 0.27246 0.0
N3010 N 0.60979 0.03215 0.27437 0.0
N3011 N 0.44716 1.0037 0.25051 0.0
C3012 C 0.56888 0.0186 0.26817 0.0
C3013 C 0.48532 1.00401 0.25605 0.0
N3014 N 0.62018 0.04201 0.25284 0.0
N3015 N 0.43009 0.96092 0.27042 0.0
H3016 H 0.45145 0.01549 0.24291 0.0
H3017 H 0.41257 0.99545 0.25362 0.0
H3018 H 0.42326 0.94895 0.27802 0.0
H3019 H 0.39726 0.94845 0.26613 0.0
H3020 H 0.65001 0.04112 0.2565 0.0
H3021 H 0.62657 0.05022 0.24506 0.0
H3022 H 0.64699 0.05435 0.27196 0.0
H3023 H 0.60668 0.0248 0.28221 0.0
C3024 C 0.02692 0.55569 0.26764 0.0
C3025 C 0.0365 0.52042 0.2728 0.0
C3026 C 0.02653 0.47576 0.25653 0.0
C3027 C 0.01278 0.50854 0.25159 0.0
N3028 N 0.99082 0.57391 0.25284 0.0
N3029 N 0.03876 0.44285 0.27256 0.0
C3030 C 1.01048 0.54692 0.25726 0.0
C3031 C 0.03448 0.47929 0.26735 0.0
N3032 N 0.03518 0.59859 0.27256 0.0
N3033 N 0.03342 0.44223 0.25084 0.0
H3034 H 0.04503 0.44452 0.28043 0.0
H3035 H 0.03225 0.40915 0.26926 0.0
H3036 H 0.02762 0.43845 0.24295 0.0
H3037 H 0.04857 0.42097 0.25377 0.0
H3038 H 0.0345 0.62845 0.26888 0.0
H3039 H 0.04715 0.60651 0.28015 0.0
H3040 H 0.9828 0.59832 0.25691 0.0
H3041 H 0.97819 0.56865 0.24529 0.0
C3042 C 0.46091 0.45376 0.25645 0.0
C3043 C 0.50591 0.48891 0.25135 0.0
C3044 C 0.53678 0.53871 0.2672 0.0
C3045 C 0.49368 0.50128 0.27247 0.0
N3046 N 0.41846 0.41927 0.27256 0.0
N3047 N 0.58947 0.5616 0.25202 0.0
C3048 C 0.45674 0.45772 0.26721 0.0
C3049 C 0.54464 0.5306 0.25677 0.0
N3050 N 0.42147 0.4173 0.25093 0.0
N3051 N 0.56949 0.58257 0.2721 0.0
H3052 H 0.59608 0.55729 0.24437 0.0
H3053 H 0.62129 0.58932 0.2558 0.0
H3054 H 0.56525 0.58933 0.27976 0.0
H3055 H 0.59864 0.61369 0.26844 0.0
H3056 H 0.38566 0.39418 0.25396 0.0
H3057 H 0.42314 0.41284 0.24306 0.0
H3058 H 0.39374 0.38416 0.2694 0.0
H3059 H 0.41378 0.4208 0.28043 0.0
C3060 C 1.01086 0.22366 0.26704 0.0
C3061 C 0.99725 0.17699 0.27189 0.0
C3062 C 0.02854 0.15165 0.25698 0.0
C3063 C 0.03838 0.19651 0.25179 0.0
N3064 N 0.03251 0.27213 0.25127 0.0
N3065 N 0.98553 0.09312 0.27088 0.0
C3066 C 0.02777 0.2317 0.25666 0.0
C3067 C 1.00402 0.14003 0.26668 0.0
N3068 N 1.00901 0.2609 0.27245 0.0
N3069 N 0.04414 0.12085 0.25276 0.0
H3070 H 0.96765 0.08321 0.27797 0.0
H3071 H 0.98414 0.06275 0.267 0.0
H3072 H 0.06179 0.12777 0.24566 0.0
H3073 H 0.04344 0.09078 0.25664 0.0
H3074 H 0.02355 0.29765 0.26979 0.0
H3075 H 0.9964 0.25619 0.27999 0.0
H3076 H 0.02025 0.29622 0.25395 0.0
H3077 H 0.0452 0.27943 0.24372 0.0
C3078 C 0.82409 0.79182 0.26726 0.0
C3079 C 0.85007 0.83209 0.27432 0.0
C3080 C 0.86123 0.89299 0.26083 0.0
C3081 C 0.83158 0.85246 0.25404 0.0
N3082 N 0.77802 0.76315 0.25124 0.0
N3083 N 0.88726 0.92042 0.27834 0.0
C3084 C 0.81116 0.80179 0.25738 0.0
C3085 C 0.86693 0.88256 0.27124 0.0
N3086 N 0.81308 0.74412 0.26989 0.0
N3087 N 0.88544 0.94144 0.25724 0.0
H3088 H 0.89258 0.91424 0.28598 0.0
H3089 H 0.89519 0.95713 0.27689 0.0
H3090 H 0.88225 0.95059 0.2497 0.0
H3091 H 0.91192 0.97218 0.26147 0.0
H3092 H 0.79947 0.71424 0.26473 0.0
H3093 H 0.82141 0.73514 0.27706 0.0
H3094 H 0.75745 0.72578 0.25365 0.0
H3095 H 0.76775 0.76891 0.24397 0.0
C3096 C 0.17305 0.03698 0.26714 0.0
C3097 C 0.19703 0.0199 0.27412 0.0
C3098 C 0.19952 0.9645 0.26071 0.0
C3099 C 0.17995 0.98515 0.25349 0.0
N3100 N 0.15249 0.04456 0.24949 0.0
N3101 N 0.23767 0.97117 0.2774 0.0
C3102 C 0.16777 0.02227 0.25663 0.0
C3103 C 0.21128 0.98445 0.27087 0.0
N3104 N 0.1542 0.0664 0.27063 0.0
N3105 N 0.20605 0.92514 0.25787 0.0
H3106 H 0.24596 0.98411 0.28493 0.0
H3107 H 0.25434 0.95016 0.27522 0.0
H3108 H 0.19885 0.91036 0.25047 0.0
H3109 H 0.21492 0.90458 0.26297 0.0
H3110 H 0.13152 0.07573 0.26626 0.0
H3111 H 0.15786 0.07835 0.27821 0.0
H3112 H 0.14874 0.07595 0.25097 0.0
H3113 H 0.14666 0.03373 0.24182 0.0
C3114 C 1.00158 0.86272 0.76786 0.0
C3115 C 0.99742 0.81994 0.77305 0.0
C3116 C 0.02801 0.79733 0.75763 0.0
C3117 C 0.03592 0.84225 0.75275 0.0
N3118 N 0.03795 0.92191 0.75379 0.0
N3119 N 0.01313 0.75027 0.77346 0.0
C3120 C 0.02482 0.87611 0.75804 0.0
C3121 C 1.01241 0.78824 0.76808 0.0
N3122 N 0.98175 0.88968 0.77219 0.0
N3123 N 0.03405 0.76265 0.75216 0.0
H3124 H 1.00156 0.74228 0.78106 0.0
H3125 H 0.02878 0.72923 0.77069 0.0
H3126 H 0.04594 0.7683 0.74456 0.0
H3127 H 0.02364 0.72674 0.75486 0.0
H3128 H 0.97832 0.91762 0.76834 0.0
H3129 H 0.96474 0.88135 0.77938 0.0
H3130 H 0.03632 0.95065 0.75772 0.0
H3131 H 0.05453 0.93292 0.74659 0.0
C3132 C 0.22587 0.23404 0.75749 0.0
C3133 C 0.17945 0.19926 0.75273 0.0
C3134 C 0.15792 0.14255 0.76755 0.0
C3135 C 0.20237 0.17912 0.77265 0.0
N3136 N 0.27567 0.26231 0.77311 0.0
N3137 N 0.09775 0.12398 0.75377 0.0
C3138 C 0.23558 0.22563 0.76778 0.0
C3139 C 0.14451 0.15444 0.75792 0.0
N3140 N 0.26127 0.2744 0.75204 0.0
N3141 N 0.12922 0.0958 0.77179 0.0
H3142 H 0.08667 0.13104 0.7467 0.0
H3143 H 0.06849 0.09397 0.75767 0.0
H3144 H 0.13734 0.08586 0.77889 0.0
H3145 H 0.09976 0.06555 0.76796 0.0
H3146 H 0.29795 0.29823 0.75462 0.0
H3147 H 0.25522 0.28197 0.74456 0.0
H3148 H 0.2982 0.29901 0.77046 0.0
H3149 H 0.2843 0.25715 0.78058 0.0
C3150 C 0.85129 0.06439 0.76358 0.0
C3151 C 0.84428 0.03169 0.77193 0.0
C3152 C 0.8203 0.96154 0.75982 0.0
C3153 C 0.82357 0.99327 0.75155 0.0
N3154 N 0.83407 0.07268 0.74575 0.0
N3155 N 0.81348 0.94716 0.77816 0.0
C3156 C 0.83675 0.04411 0.7535 0.0
C3157 C 0.82628 0.97965 0.77008 0.0
N3158 N 0.87368 0.11521 0.76523 0.0
N3159 N 0.81332 0.91459 0.75784 0.0
H3160 H 0.81722 0.95895 0.78575 0.0
H3161 H 0.79504 0.90809 0.77735 0.0
H3162 H 0.80877 0.89991 0.75047 0.0
H3163 H 0.81633 0.89185 0.7634 0.0
H3164 H 0.8851 0.14165 0.75935 0.0
H3165 H 0.88466 0.13148 0.77246 0.0
H3166 H 0.83774 0.10806 0.74686 0.0
H3167 H 0.82391 0.05926 0.73829 0.0
C3168 C 0.66287 0.48307 0.60165 0.0
C3169 C 0.65984 0.52215 0.60689 0.0
C3170 C 0.69051 0.57535 0.59147 0.0
C3171 C 0.69734 0.53782 0.58654 0.0
N3172 N 0.69793 0.45941 0.58749 0.0
N3173 N 0.6771 0.60803 0.60738 0.0
C3174 C 0.68569 0.49262 0.59179 0.0
C3175 C 0.67541 0.56904 0.60195 0.0
N3176 N 0.64231 0.43615 0.60595 0.0
N3177 N 0.69707 0.61639 0.58604 0.0
H3178 H 0.66595 0.60459 0.61501 0.0
H3179 H 0.69313 0.64476 0.60461 0.0
H3180 H 0.7086 0.62245 0.57842 0.0
H3181 H 0.68746 0.64238 0.58879 0.0
H3182 H 0.63803 0.40458 0.60205 0.0
H3183 H 0.62553 0.42763 0.61315 0.0
H3184 H 0.69584 0.42875 0.59139 0.0
H3185 H 0.71428 0.46476 0.58027 0.0
C3186 C 0.48554 0.18687 0.60575 0.0
C3187 C 0.49951 0.14969 0.60762 0.0
C3188 C 0.49093 0.1299 0.58918 0.0
C3189 C 0.48216 0.17058 0.58721 0.0
N3190 N 0.47836 0.24267 0.5935 0.0
N3191 N 0.52293 0.09084 0.60091 0.0
C3192 C 0.48128 0.20032 0.59548 0.0
C3193 C 0.50405 0.12243 0.59927 0.0
N3194 N 0.47498 0.20842 0.61382 0.0
N3195 N 0.48541 0.0975 0.58145 0.0
H3196 H 0.53302 0.08435 0.60814 0.0
H3197 H 0.53259 0.07434 0.59503 0.0
H3198 H 0.47594 0.10179 0.57399 0.0
H3199 H 0.48582 0.06402 0.58258 0.0
H3200 H 0.45938 0.23169 0.613 0.0
H3201 H 0.47762 0.19952 0.62141 0.0
H3202 H 0.48334 0.26908 0.59907 0.0
H3203 H 0.4751 0.25375 0.58613 0.0
C3204 C 0.86945 0.38453 0.59827 0.0
C3205 C 0.86738 0.35418 0.6067 0.0
C3206 C 0.83955 0.28144 0.59517 0.0
C3207 C 0.84522 0.31277 0.58666 0.0
N3208 N 0.874 0.39596 0.57986 0.0
N3209 N 0.85861 0.27621 0.61302 0.0
C3210 C 0.86266 0.3649 0.58815 0.0
C3211 C 0.85475 0.30328 0.6051 0.0
N3212 N 0.87603 0.43154 0.59997 0.0
N3213 N 0.81795 0.23047 0.59381 0.0
H3214 H 0.86929 0.29084 0.62038 0.0
H3215 H 0.85532 0.24087 0.61213 0.0
H3216 H 0.80679 0.21315 0.58667 0.0
H3217 H 0.80747 0.2049 0.59983 0.0
H3218 H 0.8722 0.45327 0.59429 0.0
H3219 H 0.88114 0.44732 0.60725 0.0
H3220 H 0.89205 0.43512 0.5804 0.0
H3221 H 0.86938 0.38293 0.57234 0.0
C3222 C 0.72321 0.1843 0.09222 0.0
C3223 C 0.69024 0.15797 0.08395 0.0
C3224 C 0.62162 0.10962 0.09619 0.0
C3225 C 0.65291 0.14011 0.10432 0.0
N3226 N 0.73174 0.21098 0.10993 0.0
N3227 N 0.60656 0.09919 0.07787 0.0
C3228 C 0.70338 0.17851 0.1023 0.0
C3229 C 0.63904 0.12138 0.08589 0.0
N3230 N 0.77382 0.21411 0.09046 0.0
N3231 N 0.57561 0.06865 0.09835 0.0
H3232 H 0.61806 0.1063 0.07025 0.0
H3233 H 0.56764 0.07665 0.07871 0.0
H3234 H 0.56179 0.05894 0.10578 0.0
H3235 H 0.5531 0.04186 0.09292 0.0
H3236 H 0.80061 0.23 0.09627 0.0
H3237 H 0.78968 0.21937 0.08319 0.0
H3238 H 0.76651 0.2433 0.10869 0.0
H3239 H 0.71882 0.20797 0.11741 0.0
C3240 C 0.86848 0.56851 0.10457 0.0
C3241 C 0.87939 0.5293 0.10657 0.0
C3242 C 0.87152 0.50933 0.08818 0.0
C3243 C 0.85508 0.54463 0.08636 0.0
N3244 N 0.83162 0.60352 0.09301 0.0
N3245 N 0.88434 0.45744 0.10051 0.0
C3246 C 0.85206 0.57325 0.0946 0.0
C3247 C 0.87926 0.49849 0.09842 0.0
N3248 N 0.87499 0.60203 0.11214 0.0
N3249 N 0.88084 0.48694 0.08009 0.0
H3250 H 0.88999 0.44808 0.10787 0.0
H3251 H 0.87878 0.43026 0.09507 0.0
H3252 H 0.87554 0.49391 0.07251 0.0
H3253 H 0.89802 0.46506 0.08082 0.0
H3254 H 0.87288 0.63456 0.11091 0.0
H3255 H 0.88692 0.59969 0.1195 0.0
H3256 H 0.82296 0.62081 0.09889 0.0
H3257 H 0.81956 0.60831 0.08584 0.0
C3258 C 0.50817 0.38918 0.09788 0.0
C3259 C 0.50601 0.3573 0.10603 0.0
C3260 C 0.48686 0.28945 0.09361 0.0
C3261 C 0.48523 0.32 0.08558 0.0
N3262 N 0.48554 0.39568 0.08035 0.0
N3263 N 0.48435 0.27422 0.11189 0.0
C3264 C 0.49335 0.36896 0.08781 0.0
C3265 C 0.49272 0.30655 0.10395 0.0
N3266 N 0.52634 0.43936 0.09969 0.0
N3267 N 0.48482 0.24486 0.09133 0.0
H3268 H 0.48819 0.28533 0.11953 0.0
H3269 H 0.46931 0.23552 0.11095 0.0
H3270 H 0.48068 0.23104 0.08389 0.0
H3271 H 0.49152 0.22364 0.09668 0.0
H3272 H 0.53427 0.46567 0.0939 0.0
H3273 H 0.53755 0.45563 0.10691 0.0
H3274 H 0.48541 0.42912 0.08174 0.0
H3275 H 0.47478 0.38217 0.07291 0.0
C3276 C 0.31573 0.84138 0.92084 0.0
C3277 C 0.36839 0.87236 0.91907 0.0
C3278 C 0.38116 0.89292 0.93747 0.0
C3279 C 0.32952 0.85746 0.93938 0.0
N3280 N 0.24901 0.79228 0.93299 0.0
N3281 N 0.45249 0.92249 0.92592 0.0
C3282 C 0.29709 0.83033 0.93108 0.0
C3283 C 0.40144 0.89694 0.92745 0.0
N3284 N 0.28326 0.82341 0.91271 0.0
N3285 N 0.41061 0.92372 0.94519 0.0
H3286 H 0.4688 0.92647 0.91873 0.0
H3287 H 0.47878 0.93624 0.93185 0.0
H3288 H 0.39703 0.92198 0.95258 0.0
H3289 H 0.44697 0.9539 0.94408 0.0
H3290 H 0.24414 0.8052 0.91345 0.0
H3291 H 0.29547 0.83073 0.90514 0.0
H3292 H 0.22549 0.7673 0.9274 0.0
H3293 H 0.2339 0.78283 0.94033 0.0
C3294 C 0.1705 0.53973 0.93764 0.0
C3295 C 0.17335 0.49565 0.93978 0.0
C3296 C 0.15269 0.46966 0.92174 0.0
C3297 C 0.15505 0.51617 0.91939 0.0
N3298 N 0.17393 0.59906 0.92488 0.0
N3299 N 0.17496 0.42238 0.93349 0.0
C3300 C 0.16594 0.55214 0.9273 0.0
C3301 C 0.16643 0.46155 0.93172 0.0
N3302 N 0.17075 0.56909 0.94554 0.0
N3303 N 0.13589 0.43253 0.91449 0.0
H3304 H 0.18517 0.41518 0.94064 0.0
H3305 H 0.17618 0.39963 0.92771 0.0
H3306 H 0.12543 0.43699 0.90714 0.0
H3307 H 0.12802 0.3959 0.91602 0.0
H3308 H 0.16332 0.59857 0.94461 0.0
H3309 H 0.17395 0.5612 0.95317 0.0
H3310 H 0.18753 0.62879 0.93008 0.0
H3311 H 0.17113 0.60971 0.91743 0.0
C3312 C 0.50573 0.69825 0.92236 0.0
C3313 C 0.50661 0.65321 0.92016 0.0
C3314 C 0.5275 0.64798 0.93817 0.0
C3315 C 0.5241 0.69159 0.94047 0.0
N3316 N 0.50174 0.75343 0.93521 0.0
N3317 N 0.51118 0.58106 0.92609 0.0
C3318 C 0.51091 0.71538 0.93268 0.0
C3319 C 0.51527 0.62679 0.92812 0.0
N3320 N 0.50102 0.7253 0.91453 0.0
N3321 N 0.5443 0.62796 0.9455 0.0
H3322 H 0.5038 0.5652 0.91879 0.0
H3323 H 0.51143 0.55709 0.93171 0.0
H3324 H 0.55305 0.64209 0.95294 0.0
H3325 H 0.55309 0.59976 0.94408 0.0
H3326 H 0.50636 0.76147 0.9154 0.0
H3327 H 0.4949 0.71295 0.90696 0.0
H3328 H 0.48666 0.76876 0.93016 0.0
H3329 H 0.50537 0.76716 0.94265 0.0
C3330 C 0.32728 0.51233 0.43346 0.0
C3331 C 0.32628 0.47254 0.43926 0.0
C3332 C 0.35882 0.44834 0.42437 0.0
C3333 C 0.36406 0.49087 0.4189 0.0
N3334 N 0.36041 0.5678 0.41876 0.0
N3335 N 0.3468 0.40635 0.44077 0.0
C3336 C 0.35016 0.52405 0.42359 0.0
C3337 C 0.34356 0.44147 0.43485 0.0
N3338 N 0.30492 0.53801 0.43726 0.0
N3339 N 0.36713 0.41376 0.41945 0.0
H3340 H 0.33548 0.39993 0.4484 0.0
H3341 H 0.36416 0.38624 0.43839 0.0
H3342 H 0.37872 0.41784 0.41184 0.0
H3343 H 0.35878 0.3792 0.4226 0.0
H3344 H 0.29923 0.56346 0.43297 0.0
H3345 H 0.28806 0.53083 0.44445 0.0
H3346 H 0.35662 0.59634 0.42223 0.0
H3347 H 0.37672 0.57763 0.41152 0.0
C3348 C 0.47116 0.85175 0.42673 0.0
C3349 C 0.51217 0.87616 0.41982 0.0
C3350 C 0.57065 0.90008 0.4344 0.0
C3351 C 0.53058 0.86549 0.44079 0.0
N3352 N 0.4457 0.84681 0.44434 0.0
N3353 N 0.60222 0.92442 0.41716 0.0
C3354 C 0.48103 0.85163 0.43738 0.0
C3355 C 0.56232 0.9006 0.42368 0.0
N3356 N 0.42263 0.82832 0.42318 0.0
N3357 N 0.61286 0.93892 0.4387 0.0
H3358 H 0.59774 0.92653 0.40929 0.0
H3359 H 0.63951 0.9386 0.41953 0.0
H3360 H 0.61453 0.94676 0.44651 0.0
H3361 H 0.64157 0.96775 0.43444 0.0
H3362 H 0.39173 0.80548 0.4278 0.0
H3363 H 0.41358 0.82872 0.4155 0.0
H3364 H 0.41035 0.8414 0.44229 0.0
H3365 H 0.45484 0.85573 0.45204 0.0
C3366 C 0.1531 0.69386 0.4343 0.0
C3367 C 0.17994 0.67959 0.44115 0.0
C3368 C 0.19372 0.63392 0.42715 0.0
C3369 C 0.16322 0.64468 0.42055 0.0
N3370 N 0.10584 0.67665 0.41847 0.0
N3371 N 0.2196 0.63006 0.44457 0.0
C3372 C 0.14068 0.67239 0.42431 0.0
C3373 C 0.19847 0.64785 0.4377 0.0
N3374 N 0.14075 0.72922 0.43723 0.0
N3375 N 0.21972 0.61213 0.42326 0.0
H3376 H 0.22434 0.64011 0.45229 0.0
H3377 H 0.22882 0.60245 0.44282 0.0
H3378 H 0.21731 0.60156 0.41561 0.0
H3379 H 0.24675 0.60821 0.42738 0.0
H3380 H 0.12651 0.74554 0.43222 0.0
H3381 H 0.14881 0.74564 0.44448 0.0
H3382 H 0.08411 0.69166 0.42118 0.0
H3383 H 0.09504 0.66083 0.41119 0.0
loop_
_geom_bond_atom_site_label_1
_geom_bond_atom_site_label_2
_geom_bond_distance
_geom_bond_site_symmetry_2
_ccdc_geom_bond_type
Sm0 C2 2.846 . S
Sm0 O20 2.543 . S
Sm0 O21 2.450 . S
Sm0 O22 2.681 . S
Sm0 O23 2.464 . S
Sm0 O24 2.396 . S
Sm0 O28 2.386 . S
Sm0 O31 2.408 . S
Sm1 C11 2.846 . S
Sm1 O22 2.386 . S
Sm1 O25 2.408 . S
Sm1 O26 2.543 . S
Sm1 O27 2.450 . S
Sm1 O28 2.681 . S
Sm1 O29 2.464 . S
Sm1 O30 2.396 . S
C2 Sm0 2.846 . S
C2 C3 1.506 . S
C2 O20 1.261 . S
C2 O21 1.242 . S
C3 C2 1.506 . S
C3 C4 1.358 . S
C3 C8 1.382 . S
C4 C3 1.358 . S
C4 C5 1.385 . S
C4 H32 0.930 . S
C5 C4 1.385 . S
C5 C6 1.395 . S
C5 H33 0.929 . S
C6 C5 1.395 . S
C6 C7 1.335 . S
C7 C6 1.335 . S
C7 C8 1.398 . S
C7 H34 0.930 . S
C8 C3 1.382 . S
C8 C7 1.398 . S
C8 H35 0.929 . S
C9 O22 1.271 . S
C9 O23 1.251 . S
C10 O24 1.252 . S
C10 O25 1.272 . S
C11 Sm1 2.846 . S
C11 C12 1.506 . S
C11 O26 1.261 . S
C11 O27 1.242 . S
C12 C11 1.506 . S
C12 C13 1.358 . S
C12 C17 1.382 . S
C13 C12 1.358 . S
C13 C14 1.385 . S
C13 H36 0.930 . S
C14 C13 1.385 . S
C14 C15 1.395 . S
C14 H37 0.929 . S
C15 C14 1.395 . S
C15 C16 1.335 . S
C16 C15 1.335 . S
C16 C17 1.398 . S
C16 H38 0.930 . S
C17 C12 1.382 . S
C17 C16 1.398 . S
C17 H39 0.929 . S
C18 O28 1.271 . S
C18 O29 1.251 . S
C19 O30 1.252 . S
C19 O31 1.272 . S
O20 Sm0 2.543 . S
O20 C2 1.261 . S
O21 Sm0 2.450 . S
O21 C2 1.242 . S
O22 Sm0 2.681 . S
O22 Sm1 2.386 . S
O22 C9 1.271 . S
O23 Sm0 2.464 . S
O23 C9 1.251 . S
O24 Sm0 2.396 . S
O24 C10 1.252 . S
O25 Sm1 2.408 . S
O25 C10 1.272 . S
O26 Sm1 2.543 . S
O26 C11 1.261 . S
O27 Sm1 2.450 . S
O27 C11 1.242 . S
O28 Sm0 2.386 . S
O28 Sm1 2.681 . S
O28 C18 1.271 . S
O29 Sm1 2.464 . S
O29 C18 1.251 . S
O30 Sm1 2.396 . S
O30 C19 1.252 . S
O31 Sm0 2.408 . S
O31 C19 1.272 . S
H32 C4 0.930 . S
H33 C5 0.929 . S
H34 C7 0.930 . S
H35 C8 0.929 . S
H36 C13 0.930 . S
H37 C14 0.929 . S
H38 C16 0.930 . S
H39 C17 0.929 . S
Sm40 C42 2.846 . S
Sm40 O60 2.543 . S
Sm40 O61 2.450 . S
Sm40 O62 2.681 . S
Sm40 O63 2.464 . S
Sm40 O64 2.396 . S
Sm40 O68 2.386 . S
Sm40 O71 2.408 . S
Sm41 C51 2.846 . S
Sm41 O62 2.386 . S
Sm41 O65 2.408 . S
Sm41 O66 2.543 . S
Sm41 O67 2.450 . S
Sm41 O68 2.681 . S
Sm41 O69 2.464 . S
Sm41 O70 2.396 . S
C42 Sm40 2.846 . S
C42 C43 1.506 . S
C42 O60 1.261 . S
C42 O61 1.242 . S
C43 C42 1.506 . S
C43 C44 1.358 . S
C43 C48 1.382 . S
C44 C43 1.358 . S
C44 C45 1.385 . S
C44 H72 0.930 . S
C45 C44 1.385 . S
C45 C46 1.395 . S
C45 H73 0.929 . S
C46 C45 1.395 . S
C46 C47 1.335 . S
C47 C46 1.335 . S
C47 C48 1.398 . S
C47 H74 0.930 . S
C48 C43 1.382 . S
C48 C47 1.398 . S
C48 H75 0.929 . S
C49 O62 1.271 . S
C49 O63 1.251 . S
C50 O64 1.252 . S
C50 O65 1.272 . S
C51 Sm41 2.846 . S
C51 C52 1.506 . S
C51 O66 1.261 . S
C51 O67 1.242 . S
C52 C51 1.506 . S
C52 C53 1.358 . S
C52 C57 1.382 . S
C53 C52 1.358 . S
C53 C54 1.385 . S
C53 H76 0.930 . S
C54 C53 1.385 . S
C54 C55 1.395 . S
C54 H77 0.929 . S
C55 C54 1.395 . S
C55 C56 1.335 . S
C56 C55 1.335 . S
C56 C57 1.398 . S
C56 H78 0.930 . S
C57 C52 1.382 . S
C57 C56 1.398 . S
C57 H79 0.929 . S
C58 O68 1.271 . S
C58 O69 1.251 . S
C59 O70 1.252 . S
C59 O71 1.272 . S
O60 Sm40 2.543 . S
O60 C42 1.261 . S
O61 Sm40 2.450 . S
O61 C42 1.242 . S
O62 Sm40 2.681 . S
O62 Sm41 2.386 . S
O62 C49 1.271 . S
O63 Sm40 2.464 . S
O63 C49 1.251 . S
O64 Sm40 2.396 . S
O64 C50 1.252 . S
O65 Sm41 2.408 . S
O65 C50 1.272 . S
O66 Sm41 2.543 . S
O66 C51 1.261 . S
O67 Sm41 2.450 . S
O67 C51 1.242 . S
O68 Sm40 2.386 . S
O68 Sm41 2.681 . S
O68 C58 1.271 . S
O69 Sm41 2.464 . S
O69 C58 1.251 . S
O70 Sm41 2.396 . S
O70 C59 1.252 . S
O71 Sm40 2.408 . S
O71 C59 1.272 . S
H72 C44 0.930 . S
H73 C45 0.929 . S
H74 C47 0.930 . S
H75 C48 0.929 . S
H76 C53 0.930 . S
H77 C54 0.929 . S
H78 C56 0.930 . S
H79 C57 0.929 . S
Sm80 C82 2.846 . S
Sm80 O100 2.543 . S
Sm80 O101 2.450 . S
Sm80 O102 2.681 . S
Sm80 O103 2.464 . S
Sm80 O104 2.396 . S
Sm80 O108 2.386 . S
Sm80 O111 2.408 . S
Sm81 C91 2.846 . S
Sm81 O102 2.386 . S
Sm81 O105 2.408 . S
Sm81 O106 2.543 . S
Sm81 O107 2.450 . S
Sm81 O108 2.681 . S
Sm81 O109 2.464 . S
Sm81 O110 2.396 . S
C82 Sm80 2.846 . S
C82 C83 1.506 . S
C82 O100 1.261 . S
C82 O101 1.242 . S
C83 C82 1.506 . S
C83 C84 1.358 . S
C83 C88 1.382 . S
C84 C83 1.358 . S
C84 C85 1.385 . S
C84 H112 0.930 . S
C85 C84 1.385 . S
C85 C86 1.395 . S
C85 H113 0.929 . S
C86 C85 1.395 . S
C86 C87 1.335 . S
C87 C86 1.335 . S
C87 C88 1.398 . S
C87 H114 0.930 . S
C88 C83 1.382 . S
C88 C87 1.398 . S
C88 H115 0.929 . S
C89 O102 1.271 . S
C89 O103 1.251 . S
C90 O104 1.252 . S
C90 O105 1.272 . S
C91 Sm81 2.846 . S
C91 C92 1.506 . S
C91 O106 1.261 . S
C91 O107 1.242 . S
C92 C91 1.506 . S
C92 C93 1.358 . S
C92 C97 1.382 . S
C93 C92 1.358 . S
C93 C94 1.385 . S
C93 H116 0.930 . S
C94 C93 1.385 . S
C94 C95 1.395 . S
C94 H117 0.929 . S
C95 C94 1.395 . S
C95 C96 1.335 . S
C96 C95 1.335 . S
C96 C97 1.398 . S
C96 H118 0.930 . S
C97 C92 1.382 . S
C97 C96 1.398 . S
C97 H119 0.929 . S
C98 O108 1.271 . S
C98 O109 1.251 . S
C99 O110 1.252 . S
C99 O111 1.272 . S
O100 Sm80 2.543 . S
O100 C82 1.261 . S
O101 Sm80 2.450 . S
O101 C82 1.242 . S
O102 Sm80 2.681 . S
O102 Sm81 2.386 . S
O102 C89 1.271 . S
O103 Sm80 2.464 . S
O103 C89 1.251 . S
O104 Sm80 2.396 . S
O104 C90 1.252 . S
O105 Sm81 2.408 . S
O105 C90 1.272 . S
O106 Sm81 2.543 . S
O106 C91 1.261 . S
O107 Sm81 2.450 . S
O107 C91 1.242 . S
O108 Sm80 2.386 . S
O108 Sm81 2.681 . S
O108 C98 1.271 . S
O109 Sm81 2.464 . S
O109 C98 1.251 . S
O110 Sm81 2.396 . S
O110 C99 1.252 . S
O111 Sm80 2.408 . S
O111 C99 1.272 . S
H112 C84 0.930 . S
H113 C85 0.929 . S
H114 C87 0.930 . S
H115 C88 0.929 . S
H116 C93 0.930 . S
H117 C94 0.929 . S
H118 C96 0.930 . S
H119 C97 0.929 . S
Sm120 C122 2.846 . S
Sm120 O140 2.543 . S
Sm120 O141 2.450 . S
Sm120 O142 2.681 . S
Sm120 O143 2.464 . S
Sm120 O144 2.396 . S
Sm120 O148 2.386 . S
Sm120 O151 2.408 . S
Sm121 C131 2.846 . S
Sm121 O142 2.386 . S
Sm121 O145 2.408 . S
Sm121 O146 2.543 . S
Sm121 O147 2.450 . S
Sm121 O148 2.681 . S
Sm121 O149 2.464 . S
Sm121 O150 2.396 . S
C122 Sm120 2.846 . S
C122 C123 1.506 . S
C122 O140 1.261 . S
C122 O141 1.242 . S
C123 C122 1.506 . S
C123 C124 1.358 . S
C123 C128 1.382 . S
C124 C123 1.358 . S
C124 C125 1.385 . S
C124 H152 0.930 . S
C125 C124 1.385 . S
C125 C126 1.395 . S
C125 H153 0.929 . S
C126 C125 1.395 . S
C126 C127 1.335 . S
C127 C126 1.335 . S
C127 C128 1.398 . S
C127 H154 0.930 . S
C128 C123 1.382 . S
C128 C127 1.398 . S
C128 H155 0.929 . S
C129 O142 1.271 . S
C129 O143 1.251 . S
C130 O144 1.252 . S
C130 O145 1.272 . S
C131 Sm121 2.846 . S
C131 C132 1.506 . S
C131 O146 1.261 . S
C131 O147 1.242 . S
C132 C131 1.506 . S
C132 C133 1.358 . S
C132 C137 1.382 . S
C133 C132 1.358 . S
C133 C134 1.385 . S
C133 H156 0.930 . S
C134 C133 1.385 . S
C134 C135 1.395 . S
C134 H157 0.929 . S
C135 C134 1.395 . S
C135 C136 1.335 . S
C136 C135 1.335 . S
C136 C137 1.398 . S
C136 H158 0.930 . S
C137 C132 1.382 . S
C137 C136 1.398 . S
C137 H159 0.929 . S
C138 O148 1.271 . S
C138 O149 1.251 . S
C139 O150 1.252 . S
C139 O151 1.272 . S
O140 Sm120 2.543 . S
O140 C122 1.261 . S
O141 Sm120 2.450 . S
O141 C122 1.242 . S
O142 Sm120 2.681 . S
O142 Sm121 2.386 . S
O142 C129 1.271 . S
O143 Sm120 2.464 . S
O143 C129 1.251 . S
O144 Sm120 2.396 . S
O144 C130 1.252 . S
O145 Sm121 2.408 . S
O145 C130 1.272 . S
O146 Sm121 2.543 . S
O146 C131 1.261 . S
O147 Sm121 2.450 . S
O147 C131 1.242 . S
O148 Sm120 2.386 . S
O148 Sm121 2.681 . S
O148 C138 1.271 . S
O149 Sm121 2.464 . S
O149 C138 1.251 . S
O150 Sm121 2.396 . S
O150 C139 1.252 . S
O151 Sm120 2.408 . S
O151 C139 1.272 . S
H152 C124 0.930 . S
H153 C125 0.929 . S
H154 C127 0.930 . S
H155 C128 0.929 . S
H156 C133 0.930 . S
H157 C134 0.929 . S
H158 C136 0.930 . S
H159 C137 0.929 . S
Sm160 C162 2.846 . S
Sm160 O180 2.543 . S
Sm160 O181 2.450 . S
Sm160 O182 2.681 . S
Sm160 O183 2.464 . S
Sm160 O184 2.396 . S
Sm160 O188 2.386 . S
Sm160 O191 2.408 . S
Sm161 C171 2.846 . S
Sm161 O182 2.386 . S
Sm161 O185 2.408 . S
Sm161 O186 2.543 . S
Sm161 O187 2.450 . S
Sm161 O188 2.681 . S
Sm161 O189 2.464 . S
Sm161 O190 2.396 . S
C162 Sm160 2.846 . S
C162 C163 1.506 . S
C162 O180 1.261 . S
C162 O181 1.242 . S
C163 C162 1.506 . S
C163 C164 1.358 . S
C163 C168 1.382 . S
C164 C163 1.358 . S
C164 C165 1.385 . S
C164 H192 0.930 . S
C165 C164 1.385 . S
C165 C166 1.395 . S
C165 H193 0.929 . S
C166 C165 1.395 . S
C166 C167 1.335 . S
C167 C166 1.335 . S
C167 C168 1.398 . S
C167 H194 0.930 . S
C168 C163 1.382 . S
C168 C167 1.398 . S
C168 H195 0.929 . S
C169 O182 1.271 . S
C169 O183 1.251 . S
C170 O184 1.252 . S
C170 O185 1.272 . S
C171 Sm161 2.846 . S
C171 C172 1.506 . S
C171 O186 1.261 . S
C171 O187 1.242 . S
C172 C171 1.506 . S
C172 C173 1.358 . S
C172 C177 1.382 . S
C173 C172 1.358 . S
C173 C174 1.385 . S
C173 H196 0.930 . S
C174 C173 1.385 . S
C174 C175 1.395 . S
C174 H197 0.929 . S
C175 C174 1.395 . S
C175 C176 1.335 . S
C176 C175 1.335 . S
C176 C177 1.398 . S
C176 H198 0.930 . S
C177 C172 1.382 . S
C177 C176 1.398 . S
C177 H199 0.929 . S
C178 O188 1.271 . S
C178 O189 1.251 . S
C179 O190 1.252 . S
C179 O191 1.272 . S
O180 Sm160 2.543 . S
O180 C162 1.261 . S
O181 Sm160 2.450 . S
O181 C162 1.242 . S
O182 Sm160 2.681 . S
O182 Sm161 2.386 . S
O182 C169 1.271 . S
O183 Sm160 2.464 . S
O183 C169 1.251 . S
O184 Sm160 2.396 . S
O184 C170 1.252 . S
O185 Sm161 2.408 . S
O185 C170 1.272 . S
O186 Sm161 2.543 . S
O186 C171 1.261 . S
O187 Sm161 2.450 . S
O187 C171 1.242 . S
O188 Sm160 2.386 . S
O188 Sm161 2.681 . S
O188 C178 1.271 . S
O189 Sm161 2.464 . S
O189 C178 1.251 . S
O190 Sm161 2.396 . S
O190 C179 1.252 . S
O191 Sm160 2.408 . S
O191 C179 1.272 . S
H192 C164 0.930 . S
H193 C165 0.929 . S
H194 C167 0.930 . S
H195 C168 0.929 . S
H196 C173 0.930 . S
H197 C174 0.929 . S
H198 C176 0.930 . S
H199 C177 0.929 . S
Sm200 C202 2.846 . S
Sm200 O220 2.543 . S
Sm200 O221 2.450 . S
Sm200 O222 2.681 . S
Sm200 O223 2.464 . S
Sm200 O224 2.396 . S
Sm200 O228 2.386 . S
Sm200 O231 2.408 . S
Sm201 C211 2.846 . S
Sm201 O222 2.386 . S
Sm201 O225 2.408 . S
Sm201 O226 2.543 . S
Sm201 O227 2.450 . S
Sm201 O228 2.681 . S
Sm201 O229 2.464 . S
Sm201 O230 2.396 . S
C202 Sm200 2.846 . S
C202 C203 1.506 . S
C202 O220 1.261 . S
C202 O221 1.242 . S
C203 C202 1.506 . S
C203 C204 1.358 . S
C203 C208 1.382 . S
C204 C203 1.358 . S
C204 C205 1.385 . S
C204 H232 0.930 . S
C205 C204 1.385 . S
C205 C206 1.395 . S
C205 H233 0.929 . S
C206 C205 1.395 . S
C206 C207 1.335 . S
C207 C206 1.335 . S
C207 C208 1.398 . S
C207 H234 0.930 . S
C208 C203 1.382 . S
C208 C207 1.398 . S
C208 H235 0.929 . S
C209 O222 1.271 . S
C209 O223 1.251 . S
C210 O224 1.252 . S
C210 O225 1.272 . S
C211 Sm201 2.846 . S
C211 C212 1.506 . S
C211 O226 1.261 . S
C211 O227 1.242 . S
C212 C211 1.506 . S
C212 C213 1.358 . S
C212 C217 1.382 . S
C213 C212 1.358 . S
C213 C214 1.385 . S
C213 H236 0.930 . S
C214 C213 1.385 . S
C214 C215 1.395 . S
C214 H237 0.929 . S
C215 C214 1.395 . S
C215 C216 1.335 . S
C216 C215 1.335 . S
C216 C217 1.398 . S
C216 H238 0.930 . S
C217 C212 1.382 . S
C217 C216 1.398 . S
C217 H239 0.929 . S
C218 O228 1.271 . S
C218 O229 1.251 . S
C219 O230 1.252 . S
C219 O231 1.272 . S
O220 Sm200 2.543 . S
O220 C202 1.261 . S
O221 Sm200 2.450 . S
O221 C202 1.242 . S
O222 Sm200 2.681 . S
O222 Sm201 2.386 . S
O222 C209 1.271 . S
O223 Sm200 2.464 . S
O223 C209 1.251 . S
O224 Sm200 2.396 . S
O224 C210 1.252 . S
O225 Sm201 2.408 . S
O225 C210 1.272 . S
O226 Sm201 2.543 . S
O226 C211 1.261 . S
O227 Sm201 2.450 . S
O227 C211 1.242 . S
O228 Sm200 2.386 . S
O228 Sm201 2.681 . S
O228 C218 1.271 . S
O229 Sm201 2.464 . S
O229 C218 1.251 . S
O230 Sm201 2.396 . S
O230 C219 1.252 . S
O231 Sm200 2.408 . S
O231 C219 1.272 . S
H232 C204 0.930 . S
H233 C205 0.929 . S
H234 C207 0.930 . S
H235 C208 0.929 . S
H236 C213 0.930 . S
H237 C214 0.929 . S
H238 C216 0.930 . S
H239 C217 0.929 . S
Sm240 C242 2.846 . S
Sm240 O260 2.543 . S
Sm240 O261 2.450 . S
Sm240 O262 2.681 . S
Sm240 O263 2.464 . S
Sm240 O264 2.396 . S
Sm240 O268 2.386 . S
Sm240 O271 2.408 . S
Sm241 C251 2.846 . S
Sm241 O262 2.386 . S
Sm241 O265 2.408 . S
Sm241 O266 2.543 . S
Sm241 O267 2.450 . S
Sm241 O268 2.681 . S
Sm241 O269 2.464 . S
Sm241 O270 2.396 . S
C242 Sm240 2.846 . S
C242 C243 1.506 . S
C242 O260 1.261 . S
C242 O261 1.242 . S
C243 C242 1.506 . S
C243 C244 1.358 . S
C243 C248 1.382 . S
C244 C243 1.358 . S
C244 C245 1.385 . S
C244 H272 0.930 . S
C245 C244 1.385 . S
C245 C246 1.395 . S
C245 H273 0.929 . S
C246 C245 1.395 . S
C246 C247 1.335 . S
C247 C246 1.335 . S
C247 C248 1.398 . S
C247 H274 0.930 . S
C248 C243 1.382 . S
C248 C247 1.398 . S
C248 H275 0.929 . S
C249 O262 1.271 . S
C249 O263 1.251 . S
C250 O264 1.252 . S
C250 O265 1.272 . S
C251 Sm241 2.846 . S
C251 C252 1.506 . S
C251 O266 1.261 . S
C251 O267 1.242 . S
C252 C251 1.506 . S
C252 C253 1.358 . S
C252 C257 1.382 . S
C253 C252 1.358 . S
C253 C254 1.385 . S
C253 H276 0.930 . S
C254 C253 1.385 . S
C254 C255 1.395 . S
C254 H277 0.929 . S
C255 C254 1.395 . S
C255 C256 1.335 . S
C256 C255 1.335 . S
C256 C257 1.398 . S
C256 H278 0.930 . S
C257 C252 1.382 . S
C257 C256 1.398 . S
C257 H279 0.929 . S
C258 O268 1.271 . S
C258 O269 1.251 . S
C259 O270 1.252 . S
C259 O271 1.272 . S
O260 Sm240 2.543 . S
O260 C242 1.261 . S
O261 Sm240 2.450 . S
O261 C242 1.242 . S
O262 Sm240 2.681 . S
O262 Sm241 2.386 . S
O262 C249 1.271 . S
O263 Sm240 2.464 . S
O263 C249 1.251 . S
O264 Sm240 2.396 . S
O264 C250 1.252 . S
O265 Sm241 2.408 . S
O265 C250 1.272 . S
O266 Sm241 2.543 . S
O266 C251 1.261 . S
O267 Sm241 2.450 . S
O267 C251 1.242 . S
O268 Sm240 2.386 . S
O268 Sm241 2.681 . S
O268 C258 1.271 . S
O269 Sm241 2.464 . S
O269 C258 1.251 . S
O270 Sm241 2.396 . S
O270 C259 1.252 . S
O271 Sm240 2.408 . S
O271 C259 1.272 . S
H272 C244 0.930 . S
H273 C245 0.929 . S
H274 C247 0.930 . S
H275 C248 0.929 . S
H276 C253 0.930 . S
H277 C254 0.929 . S
H278 C256 0.930 . S
H279 C257 0.929 . S
Sm280 C282 2.846 . S
Sm280 O300 2.543 . S
Sm280 O301 2.450 . S
Sm280 O302 2.681 . S
Sm280 O303 2.464 . S
Sm280 O304 2.396 . S
Sm280 O308 2.386 . S
Sm280 O311 2.408 . S
Sm281 C291 2.846 . S
Sm281 O302 2.386 . S
Sm281 O305 2.408 . S
Sm281 O306 2.543 . S
Sm281 O307 2.450 . S
Sm281 O308 2.681 . S
Sm281 O309 2.464 . S
Sm281 O310 2.396 . S
C282 Sm280 2.846 . S
C282 C283 1.506 . S
C282 O300 1.261 . S
C282 O301 1.242 . S
C283 C282 1.506 . S
C283 C284 1.358 . S
C283 C288 1.382 . S
C284 C283 1.358 . S
C284 C285 1.385 . S
C284 H312 0.930 . S
C285 C284 1.385 . S
C285 C286 1.395 . S
C285 H313 0.929 . S
C286 C285 1.395 . S
C286 C287 1.335 . S
C287 C286 1.335 . S
C287 C288 1.398 . S
C287 H314 0.930 . S
C288 C283 1.382 . S
C288 C287 1.398 . S
C288 H315 0.929 . S
C289 O302 1.271 . S
C289 O303 1.251 . S
C290 O304 1.252 . S
C290 O305 1.272 . S
C291 Sm281 2.846 . S
C291 C292 1.506 . S
C291 O306 1.261 . S
C291 O307 1.242 . S
C292 C291 1.506 . S
C292 C293 1.358 . S
C292 C297 1.382 . S
C293 C292 1.358 . S
C293 C294 1.385 . S
C293 H316 0.930 . S
C294 C293 1.385 . S
C294 C295 1.395 . S
C294 H317 0.929 . S
C295 C294 1.395 . S
C295 C296 1.335 . S
C296 C295 1.335 . S
C296 C297 1.398 . S
C296 H318 0.930 . S
C297 C292 1.382 . S
C297 C296 1.398 . S
C297 H319 0.929 . S
C298 O308 1.271 . S
C298 O309 1.251 . S
C299 O310 1.252 . S
C299 O311 1.272 . S
O300 Sm280 2.543 . S
O300 C282 1.261 . S
O301 Sm280 2.450 . S
O301 C282 1.242 . S
O302 Sm280 2.681 . S
O302 Sm281 2.386 . S
O302 C289 1.271 . S
O303 Sm280 2.464 . S
O303 C289 1.251 . S
O304 Sm280 2.396 . S
O304 C290 1.252 . S
O305 Sm281 2.408 . S
O305 C290 1.272 . S
O306 Sm281 2.543 . S
O306 C291 1.261 . S
O307 Sm281 2.450 . S
O307 C291 1.242 . S
O308 Sm280 2.386 . S
O308 Sm281 2.681 . S
O308 C298 1.271 . S
O309 Sm281 2.464 . S
O309 C298 1.251 . S
O310 Sm281 2.396 . S
O310 C299 1.252 . S
O311 Sm280 2.408 . S
O311 C299 1.272 . S
H312 C284 0.930 . S
H313 C285 0.929 . S
H314 C287 0.930 . S
H315 C288 0.929 . S
H316 C293 0.930 . S
H317 C294 0.929 . S
H318 C296 0.930 . S
H319 C297 0.929 . S
Sm320 C322 2.846 . S
Sm320 O340 2.543 . S
Sm320 O341 2.450 . S
Sm320 O342 2.681 . S
Sm320 O343 2.464 . S
Sm320 O344 2.396 . S
Sm320 O348 2.386 . S
Sm320 O351 2.408 . S
Sm321 C331 2.846 . S
Sm321 O342 2.386 . S
Sm321 O345 2.408 . S
Sm321 O346 2.543 . S
Sm321 O347 2.450 . S
Sm321 O348 2.681 . S
Sm321 O349 2.464 . S
Sm321 O350 2.396 . S
C322 Sm320 2.846 . S
C322 C323 1.506 . S
C322 O340 1.261 . S
C322 O341 1.242 . S
C323 C322 1.506 . S
C323 C324 1.358 . S
C323 C328 1.382 . S
C324 C323 1.358 . S
C324 C325 1.385 . S
C324 H352 0.930 . S
C325 C324 1.385 . S
C325 C326 1.395 . S
C325 H353 0.929 . S
C326 C325 1.395 . S
C326 C327 1.335 . S
C327 C326 1.335 . S
C327 C328 1.398 . S
C327 H354 0.930 . S
C328 C323 1.382 . S
C328 C327 1.398 . S
C328 H355 0.929 . S
C329 O342 1.271 . S
C329 O343 1.251 . S
C330 O344 1.252 . S
C330 O345 1.272 . S
C331 Sm321 2.846 . S
C331 C332 1.506 . S
C331 O346 1.261 . S
C331 O347 1.242 . S
C332 C331 1.506 . S
C332 C333 1.358 . S
C332 C337 1.382 . S
C333 C332 1.358 . S
C333 C334 1.385 . S
C333 H356 0.930 . S
C334 C333 1.385 . S
C334 C335 1.395 . S
C334 H357 0.929 . S
C335 C334 1.395 . S
C335 C336 1.335 . S
C336 C335 1.335 . S
C336 C337 1.398 . S
C336 H358 0.930 . S
C337 C332 1.382 . S
C337 C336 1.398 . S
C337 H359 0.929 . S
C338 O348 1.271 . S
C338 O349 1.251 . S
C339 O350 1.252 . S
C339 O351 1.272 . S
O340 Sm320 2.543 . S
O340 C322 1.261 . S
O341 Sm320 2.450 . S
O341 C322 1.242 . S
O342 Sm320 2.681 . S
O342 Sm321 2.386 . S
O342 C329 1.271 . S
O343 Sm320 2.464 . S
O343 C329 1.251 . S
O344 Sm320 2.396 . S
O344 C330 1.252 . S
O345 Sm321 2.408 . S
O345 C330 1.272 . S
O346 Sm321 2.543 . S
O346 C331 1.261 . S
O347 Sm321 2.450 . S
O347 C331 1.242 . S
O348 Sm320 2.386 . S
O348 Sm321 2.681 . S
O348 C338 1.271 . S
O349 Sm321 2.464 . S
O349 C338 1.251 . S
O350 Sm321 2.396 . S
O350 C339 1.252 . S
O351 Sm320 2.408 . S
O351 C339 1.272 . S
H352 C324 0.930 . S
H353 C325 0.929 . S
H354 C327 0.930 . S
H355 C328 0.929 . S
H356 C333 0.930 . S
H357 C334 0.929 . S
H358 C336 0.930 . S
H359 C337 0.929 . S
Sm360 C362 2.846 . S
Sm360 O380 2.543 . S
Sm360 O381 2.450 . S
Sm360 O382 2.681 . S
Sm360 O383 2.464 . S
Sm360 O384 2.396 . S
Sm360 O388 2.386 . S
Sm360 O391 2.408 . S
Sm361 C371 2.846 . S
Sm361 O382 2.386 . S
Sm361 O385 2.408 . S
Sm361 O386 2.543 . S
Sm361 O387 2.450 . S
Sm361 O388 2.681 . S
Sm361 O389 2.464 . S
Sm361 O390 2.396 . S
C362 Sm360 2.846 . S
C362 C363 1.506 . S
C362 O380 1.261 . S
C362 O381 1.242 . S
C363 C362 1.506 . S
C363 C364 1.358 . S
C363 C368 1.382 . S
C364 C363 1.358 . S
C364 C365 1.385 . S
C364 H392 0.930 . S
C365 C364 1.385 . S
C365 C366 1.395 . S
C365 H393 0.929 . S
C366 C365 1.395 . S
C366 C367 1.335 . S
C367 C366 1.335 . S
C367 C368 1.398 . S
C367 H394 0.930 . S
C368 C363 1.382 . S
C368 C367 1.398 . S
C368 H395 0.929 . S
C369 O382 1.271 . S
C369 O383 1.251 . S
C370 O384 1.252 . S
C370 O385 1.272 . S
C371 Sm361 2.846 . S
C371 C372 1.506 . S
C371 O386 1.261 . S
C371 O387 1.242 . S
C372 C371 1.506 . S
C372 C373 1.358 . S
C372 C377 1.382 . S
C373 C372 1.358 . S
C373 C374 1.385 . S
C373 H396 0.930 . S
C374 C373 1.385 . S
C374 C375 1.395 . S
C374 H397 0.929 . S
C375 C374 1.395 . S
C375 C376 1.335 . S
C376 C375 1.335 . S
C376 C377 1.398 . S
C376 H398 0.930 . S
C377 C372 1.382 . S
C377 C376 1.398 . S
C377 H399 0.929 . S
C378 O388 1.271 . S
C378 O389 1.251 . S
C379 O390 1.252 . S
C379 O391 1.272 . S
O380 Sm360 2.543 . S
O380 C362 1.261 . S
O381 Sm360 2.450 . S
O381 C362 1.242 . S
O382 Sm360 2.681 . S
O382 Sm361 2.386 . S
O382 C369 1.271 . S
O383 Sm360 2.464 . S
O383 C369 1.251 . S
O384 Sm360 2.396 . S
O384 C370 1.252 . S
O385 Sm361 2.408 . S
O385 C370 1.272 . S
O386 Sm361 2.543 . S
O386 C371 1.261 . S
O387 Sm361 2.450 . S
O387 C371 1.242 . S
O388 Sm360 2.386 . S
O388 Sm361 2.681 . S
O388 C378 1.271 . S
O389 Sm361 2.464 . S
O389 C378 1.251 . S
O390 Sm361 2.396 . S
O390 C379 1.252 . S
O391 Sm360 2.408 . S
O391 C379 1.272 . S
H392 C364 0.930 . S
H393 C365 0.929 . S
H394 C367 0.930 . S
H395 C368 0.929 . S
H396 C373 0.930 . S
H397 C374 0.929 . S
H398 C376 0.930 . S
H399 C377 0.929 . S
Sm400 C402 2.846 . S
Sm400 O420 2.543 . S
Sm400 O421 2.450 . S
Sm400 O422 2.681 . S
Sm400 O423 2.464 . S
Sm400 O424 2.396 . S
Sm400 O428 2.386 . S
Sm400 O431 2.408 . S
Sm401 C411 2.846 . S
Sm401 O422 2.386 . S
Sm401 O425 2.408 . S
Sm401 O426 2.543 . S
Sm401 O427 2.450 . S
Sm401 O428 2.681 . S
Sm401 O429 2.464 . S
Sm401 O430 2.396 . S
C402 Sm400 2.846 . S
C402 C403 1.506 . S
C402 O420 1.261 . S
C402 O421 1.242 . S
C403 C402 1.506 . S
C403 C404 1.358 . S
C403 C408 1.382 . S
C404 C403 1.358 . S
C404 C405 1.385 . S
C404 H432 0.930 . S
C405 C404 1.385 . S
C405 C406 1.395 . S
C405 H433 0.929 . S
C406 C405 1.395 . S
C406 C407 1.335 . S
C407 C406 1.335 . S
C407 C408 1.398 . S
C407 H434 0.930 . S
C408 C403 1.382 . S
C408 C407 1.398 . S
C408 H435 0.929 . S
C409 O422 1.271 . S
C409 O423 1.251 . S
C410 O424 1.252 . S
C410 O425 1.272 . S
C411 Sm401 2.846 . S
C411 C412 1.506 . S
C411 O426 1.261 . S
C411 O427 1.242 . S
C412 C411 1.506 . S
C412 C413 1.358 . S
C412 C417 1.382 . S
C413 C412 1.358 . S
C413 C414 1.385 . S
C413 H436 0.930 . S
C414 C413 1.385 . S
C414 C415 1.395 . S
C414 H437 0.929 . S
C415 C414 1.395 . S
C415 C416 1.335 . S
C416 C415 1.335 . S
C416 C417 1.398 . S
C416 H438 0.930 . S
C417 C412 1.382 . S
C417 C416 1.398 . S
C417 H439 0.929 . S
C418 O428 1.271 . S
C418 O429 1.251 . S
C419 O430 1.252 . S
C419 O431 1.272 . S
O420 Sm400 2.543 . S
O420 C402 1.261 . S
O421 Sm400 2.450 . S
O421 C402 1.242 . S
O422 Sm400 2.681 . S
O422 Sm401 2.386 . S
O422 C409 1.271 . S
O423 Sm400 2.464 . S
O423 C409 1.251 . S
O424 Sm400 2.396 . S
O424 C410 1.252 . S
O425 Sm401 2.408 . S
O425 C410 1.272 . S
O426 Sm401 2.543 . S
O426 C411 1.261 . S
O427 Sm401 2.450 . S
O427 C411 1.242 . S
O428 Sm400 2.386 . S
O428 Sm401 2.681 . S
O428 C418 1.271 . S
O429 Sm401 2.464 . S
O429 C418 1.251 . S
O430 Sm401 2.396 . S
O430 C419 1.252 . S
O431 Sm400 2.408 . S
O431 C419 1.272 . S
H432 C404 0.930 . S
H433 C405 0.929 . S
H434 C407 0.930 . S
H435 C408 0.929 . S
H436 C413 0.930 . S
H437 C414 0.929 . S
H438 C416 0.930 . S
H439 C417 0.929 . S
Sm440 C442 2.846 . S
Sm440 O460 2.543 . S
Sm440 O461 2.450 . S
Sm440 O462 2.681 . S
Sm440 O463 2.464 . S
Sm440 O464 2.396 . S
Sm440 O468 2.386 . S
Sm440 O471 2.408 . S
Sm441 C451 2.846 . S
Sm441 O462 2.386 . S
Sm441 O465 2.408 . S
Sm441 O466 2.543 . S
Sm441 O467 2.450 . S
Sm441 O468 2.681 . S
Sm441 O469 2.464 . S
Sm441 O470 2.396 . S
C442 Sm440 2.846 . S
C442 C443 1.506 . S
C442 O460 1.261 . S
C442 O461 1.242 . S
C443 C442 1.506 . S
C443 C444 1.358 . S
C443 C448 1.382 . S
C444 C443 1.358 . S
C444 C445 1.385 . S
C444 H472 0.930 . S
C445 C444 1.385 . S
C445 C446 1.395 . S
C445 H473 0.929 . S
C446 C445 1.395 . S
C446 C447 1.335 . S
C447 C446 1.335 . S
C447 C448 1.398 . S
C447 H474 0.930 . S
C448 C443 1.382 . S
C448 C447 1.398 . S
C448 H475 0.929 . S
C449 O462 1.271 . S
C449 O463 1.251 . S
C450 O464 1.252 . S
C450 O465 1.272 . S
C451 Sm441 2.846 . S
C451 C452 1.506 . S
C451 O466 1.261 . S
C451 O467 1.242 . S
C452 C451 1.506 . S
C452 C453 1.358 . S
C452 C457 1.382 . S
C453 C452 1.358 . S
C453 C454 1.385 . S
C453 H476 0.930 . S
C454 C453 1.385 . S
C454 C455 1.395 . S
C454 H477 0.929 . S
C455 C454 1.395 . S
C455 C456 1.335 . S
C456 C455 1.335 . S
C456 C457 1.398 . S
C456 H478 0.930 . S
C457 C452 1.382 . S
C457 C456 1.398 . S
C457 H479 0.929 . S
C458 O468 1.271 . S
C458 O469 1.251 . S
C459 O470 1.252 . S
C459 O471 1.272 . S
O460 Sm440 2.543 . S
O460 C442 1.261 . S
O461 Sm440 2.450 . S
O461 C442 1.242 . S
O462 Sm440 2.681 . S
O462 Sm441 2.386 . S
O462 C449 1.271 . S
O463 Sm440 2.464 . S
O463 C449 1.251 . S
O464 Sm440 2.396 . S
O464 C450 1.252 . S
O465 Sm441 2.408 . S
O465 C450 1.272 . S
O466 Sm441 2.543 . S
O466 C451 1.261 . S
O467 Sm441 2.450 . S
O467 C451 1.242 . S
O468 Sm440 2.386 . S
O468 Sm441 2.681 . S
O468 C458 1.271 . S
O469 Sm441 2.464 . S
O469 C458 1.251 . S
O470 Sm441 2.396 . S
O470 C459 1.252 . S
O471 Sm440 2.408 . S
O471 C459 1.272 . S
H472 C444 0.930 . S
H473 C445 0.929 . S
H474 C447 0.930 . S
H475 C448 0.929 . S
H476 C453 0.930 . S
H477 C454 0.929 . S
H478 C456 0.930 . S
H479 C457 0.929 . S
Sm480 C482 2.846 . S
Sm480 O500 2.543 . S
Sm480 O501 2.450 . S
Sm480 O502 2.681 . S
Sm480 O503 2.464 . S
Sm480 O504 2.396 . S
Sm480 O508 2.386 . S
Sm480 O511 2.408 . S
Sm481 C491 2.846 . S
Sm481 O502 2.386 . S
Sm481 O505 2.408 . S
Sm481 O506 2.543 . S
Sm481 O507 2.450 . S
Sm481 O508 2.681 . S
Sm481 O509 2.464 . S
Sm481 O510 2.396 . S
C482 Sm480 2.846 . S
C482 C483 1.506 . S
C482 O500 1.261 . S
C482 O501 1.242 . S
C483 C482 1.506 . S
C483 C484 1.358 . S
C483 C488 1.382 . S
C484 C483 1.358 . S
C484 C485 1.385 . S
C484 H512 0.930 . S
C485 C484 1.385 . S
C485 C486 1.395 . S
C485 H513 0.929 . S
C486 C485 1.395 . S
C486 C487 1.335 . S
C487 C486 1.335 . S
C487 C488 1.398 . S
C487 H514 0.930 . S
C488 C483 1.382 . S
C488 C487 1.398 . S
C488 H515 0.929 . S
C489 O502 1.271 . S
C489 O503 1.251 . S
C490 O504 1.252 . S
C490 O505 1.272 . S
C491 Sm481 2.846 . S
C491 C492 1.506 . S
C491 O506 1.261 . S
C491 O507 1.242 . S
C492 C491 1.506 . S
C492 C493 1.358 . S
C492 C497 1.382 . S
C493 C492 1.358 . S
C493 C494 1.385 . S
C493 H516 0.930 . S
C494 C493 1.385 . S
C494 C495 1.395 . S
C494 H517 0.929 . S
C495 C494 1.395 . S
C495 C496 1.335 . S
C496 C495 1.335 . S
C496 C497 1.398 . S
C496 H518 0.930 . S
C497 C492 1.382 . S
C497 C496 1.398 . S
C497 H519 0.929 . S
C498 O508 1.271 . S
C498 O509 1.251 . S
C499 O510 1.252 . S
C499 O511 1.272 . S
O500 Sm480 2.543 . S
O500 C482 1.261 . S
O501 Sm480 2.450 . S
O501 C482 1.242 . S
O502 Sm480 2.681 . S
O502 Sm481 2.386 . S
O502 C489 1.271 . S
O503 Sm480 2.464 . S
O503 C489 1.251 . S
O504 Sm480 2.396 . S
O504 C490 1.252 . S
O505 Sm481 2.408 . S
O505 C490 1.272 . S
O506 Sm481 2.543 . S
O506 C491 1.261 . S
O507 Sm481 2.450 . S
O507 C491 1.242 . S
O508 Sm480 2.386 . S
O508 Sm481 2.681 . S
O508 C498 1.271 . S
O509 Sm481 2.464 . S
O509 C498 1.251 . S
O510 Sm481 2.396 . S
O510 C499 1.252 . S
O511 Sm480 2.408 . S
O511 C499 1.272 . S
H512 C484 0.930 . S
H513 C485 0.929 . S
H514 C487 0.930 . S
H515 C488 0.929 . S
H516 C493 0.930 . S
H517 C494 0.929 . S
H518 C496 0.930 . S
H519 C497 0.929 . S
Sm520 C522 2.846 . S
Sm520 O540 2.543 . S
Sm520 O541 2.450 . S
Sm520 O542 2.681 . S
Sm520 O543 2.464 . S
Sm520 O544 2.396 . S
Sm520 O548 2.386 . S
Sm520 O551 2.408 . S
Sm521 C531 2.846 . S
Sm521 O542 2.386 . S
Sm521 O545 2.408 . S
Sm521 O546 2.543 . S
Sm521 O547 2.450 . S
Sm521 O548 2.681 . S
Sm521 O549 2.464 . S
Sm521 O550 2.396 . S
C522 Sm520 2.846 . S
C522 C523 1.506 . S
C522 O540 1.261 . S
C522 O541 1.242 . S
C523 C522 1.506 . S
C523 C524 1.358 . S
C523 C528 1.382 . S
C524 C523 1.358 . S
C524 C525 1.385 . S
C524 H552 0.930 . S
C525 C524 1.385 . S
C525 C526 1.395 . S
C525 H553 0.929 . S
C526 C525 1.395 . S
C526 C527 1.335 . S
C527 C526 1.335 . S
C527 C528 1.398 . S
C527 H554 0.930 . S
C528 C523 1.382 . S
C528 C527 1.398 . S
C528 H555 0.929 . S
C529 O542 1.271 . S
C529 O543 1.251 . S
C530 O544 1.252 . S
C530 O545 1.272 . S
C531 Sm521 2.846 . S
C531 C532 1.506 . S
C531 O546 1.261 . S
C531 O547 1.242 . S
C532 C531 1.506 . S
C532 C533 1.358 . S
C532 C537 1.382 . S
C533 C532 1.358 . S
C533 C534 1.385 . S
C533 H556 0.930 . S
C534 C533 1.385 . S
C534 C535 1.395 . S
C534 H557 0.929 . S
C535 C534 1.395 . S
C535 C536 1.335 . S
C536 C535 1.335 . S
C536 C537 1.398 . S
C536 H558 0.930 . S
C537 C532 1.382 . S
C537 C536 1.398 . S
C537 H559 0.929 . S
C538 O548 1.271 . S
C538 O549 1.251 . S
C539 O550 1.252 . S
C539 O551 1.272 . S
O540 Sm520 2.543 . S
O540 C522 1.261 . S
O541 Sm520 2.450 . S
O541 C522 1.242 . S
O542 Sm520 2.681 . S
O542 Sm521 2.386 . S
O542 C529 1.271 . S
O543 Sm520 2.464 . S
O543 C529 1.251 . S
O544 Sm520 2.396 . S
O544 C530 1.252 . S
O545 Sm521 2.408 . S
O545 C530 1.272 . S
O546 Sm521 2.543 . S
O546 C531 1.261 . S
O547 Sm521 2.450 . S
O547 C531 1.242 . S
O548 Sm520 2.386 . S
O548 Sm521 2.681 . S
O548 C538 1.271 . S
O549 Sm521 2.464 . S
O549 C538 1.251 . S
O550 Sm521 2.396 . S
O550 C539 1.252 . S
O551 Sm520 2.408 . S
O551 C539 1.272 . S
H552 C524 0.930 . S
H553 C525 0.929 . S
H554 C527 0.930 . S
H555 C528 0.929 . S
H556 C533 0.930 . S
H557 C534 0.929 . S
H558 C536 0.930 . S
H559 C537 0.929 . S
Sm560 C562 2.846 . S
Sm560 O580 2.543 . S
Sm560 O581 2.450 . S
Sm560 O582 2.681 . S
Sm560 O583 2.464 . S
Sm560 O584 2.396 . S
Sm560 O588 2.386 . S
Sm560 O591 2.408 . S
Sm561 C571 2.846 . S
Sm561 O582 2.386 . S
Sm561 O585 2.408 . S
Sm561 O586 2.543 . S
Sm561 O587 2.450 . S
Sm561 O588 2.681 . S
Sm561 O589 2.464 . S
Sm561 O590 2.396 . S
C562 Sm560 2.846 . S
C562 C563 1.506 . S
C562 O580 1.261 . S
C562 O581 1.242 . S
C563 C562 1.506 . S
C563 C564 1.358 . S
C563 C568 1.382 . S
C564 C563 1.358 . S
C564 C565 1.385 . S
C564 H592 0.930 . S
C565 C564 1.385 . S
C565 C566 1.395 . S
C565 H593 0.929 . S
C566 C565 1.395 . S
C566 C567 1.335 . S
C567 C566 1.335 . S
C567 C568 1.398 . S
C567 H594 0.930 . S
C568 C563 1.382 . S
C568 C567 1.398 . S
C568 H595 0.929 . S
C569 O582 1.271 . S
C569 O583 1.251 . S
C570 O584 1.252 . S
C570 O585 1.272 . S
C571 Sm561 2.846 . S
C571 C572 1.506 . S
C571 O586 1.261 . S
C571 O587 1.242 . S
C572 C571 1.506 . S
C572 C573 1.358 . S
C572 C577 1.382 . S
C573 C572 1.358 . S
C573 C574 1.385 . S
C573 H596 0.930 . S
C574 C573 1.385 . S
C574 C575 1.395 . S
C574 H597 0.929 . S
C575 C574 1.395 . S
C575 C576 1.335 . S
C576 C575 1.335 . S
C576 C577 1.398 . S
C576 H598 0.930 . S
C577 C572 1.382 . S
C577 C576 1.398 . S
C577 H599 0.929 . S
C578 O588 1.271 . S
C578 O589 1.251 . S
C579 O590 1.252 . S
C579 O591 1.272 . S
O580 Sm560 2.543 . S
O580 C562 1.261 . S
O581 Sm560 2.450 . S
O581 C562 1.242 . S
O582 Sm560 2.681 . S
O582 Sm561 2.386 . S
O582 C569 1.271 . S
O583 Sm560 2.464 . S
O583 C569 1.251 . S
O584 Sm560 2.396 . S
O584 C570 1.252 . S
O585 Sm561 2.408 . S
O585 C570 1.272 . S
O586 Sm561 2.543 . S
O586 C571 1.261 . S
O587 Sm561 2.450 . S
O587 C571 1.242 . S
O588 Sm560 2.386 . S
O588 Sm561 2.681 . S
O588 C578 1.271 . S
O589 Sm561 2.464 . S
O589 C578 1.251 . S
O590 Sm561 2.396 . S
O590 C579 1.252 . S
O591 Sm560 2.408 . S
O591 C579 1.272 . S
H592 C564 0.930 . S
H593 C565 0.929 . S
H594 C567 0.930 . S
H595 C568 0.929 . S
H596 C573 0.930 . S
H597 C574 0.929 . S
H598 C576 0.930 . S
H599 C577 0.929 . S
Sm600 C602 2.846 . S
Sm600 O620 2.543 . S
Sm600 O621 2.450 . S
Sm600 O622 2.681 . S
Sm600 O623 2.464 . S
Sm600 O624 2.396 . S
Sm600 O628 2.386 . S
Sm600 O631 2.408 . S
Sm601 C611 2.846 . S
Sm601 O622 2.386 . S
Sm601 O625 2.408 . S
Sm601 O626 2.543 . S
Sm601 O627 2.450 . S
Sm601 O628 2.681 . S
Sm601 O629 2.464 . S
Sm601 O630 2.396 . S
C602 Sm600 2.846 . S
C602 C603 1.506 . S
C602 O620 1.261 . S
C602 O621 1.242 . S
C603 C602 1.506 . S
C603 C604 1.358 1_655 S
C603 C608 1.382 . S
C604 C603 1.358 1_455 S
C604 C605 1.385 . S
C604 H632 0.930 . S
C605 C604 1.385 . S
C605 C606 1.395 . S
C605 H633 0.929 . S
C606 C605 1.395 . S
C606 C607 1.335 1_455 S
C607 C606 1.335 1_655 S
C607 C608 1.398 . S
C607 H634 0.930 . S
C608 C603 1.382 . S
C608 C607 1.398 . S
C608 H635 0.929 . S
C609 O622 1.271 . S
C609 O623 1.251 . S
C610 O624 1.252 . S
C610 O625 1.272 . S
C611 Sm601 2.846 . S
C611 C612 1.506 . S
C611 O626 1.261 . S
C611 O627 1.242 . S
C612 C611 1.506 . S
C612 C613 1.358 . S
C612 C617 1.382 . S
C613 C612 1.358 . S
C613 C614 1.385 . S
C613 H636 0.930 . S
C614 C613 1.385 . S
C614 C615 1.395 . S
C614 H637 0.929 . S
C615 C614 1.395 . S
C615 C616 1.335 . S
C616 C615 1.335 . S
C616 C617 1.398 . S
C616 H638 0.930 . S
C617 C612 1.382 . S
C617 C616 1.398 . S
C617 H639 0.929 . S
C618 O628 1.271 . S
C618 O629 1.251 . S
C619 O630 1.252 . S
C619 O631 1.272 . S
O620 Sm600 2.543 . S
O620 C602 1.261 . S
O621 Sm600 2.450 . S
O621 C602 1.242 . S
O622 Sm600 2.681 . S
O622 Sm601 2.386 . S
O622 C609 1.271 . S
O623 Sm600 2.464 . S
O623 C609 1.251 . S
O624 Sm600 2.396 . S
O624 C610 1.252 . S
O625 Sm601 2.408 . S
O625 C610 1.272 . S
O626 Sm601 2.543 . S
O626 C611 1.261 . S
O627 Sm601 2.450 . S
O627 C611 1.242 . S
O628 Sm600 2.386 . S
O628 Sm601 2.681 . S
O628 C618 1.271 . S
O629 Sm601 2.464 . S
O629 C618 1.251 . S
O630 Sm601 2.396 . S
O630 C619 1.252 . S
O631 Sm600 2.408 . S
O631 C619 1.272 . S
H632 C604 0.930 . S
H633 C605 0.929 . S
H634 C607 0.930 . S
H635 C608 0.929 . S
H636 C613 0.930 . S
H637 C614 0.929 . S
H638 C616 0.930 . S
H639 C617 0.929 . S
Sm640 C642 2.846 . S
Sm640 O660 2.543 . S
Sm640 O661 2.450 . S
Sm640 O662 2.681 . S
Sm640 O663 2.464 . S
Sm640 O664 2.396 . S
Sm640 O668 2.386 . S
Sm640 O671 2.408 . S
Sm641 C651 2.846 . S
Sm641 O662 2.386 . S
Sm641 O665 2.408 . S
Sm641 O666 2.543 . S
Sm641 O667 2.450 . S
Sm641 O668 2.681 . S
Sm641 O669 2.464 . S
Sm641 O670 2.396 . S
C642 Sm640 2.846 . S
C642 C643 1.506 . S
C642 O660 1.261 . S
C642 O661 1.242 . S
C643 C642 1.506 . S
C643 C644 1.358 . S
C643 C648 1.382 . S
C644 C643 1.358 . S
C644 C645 1.385 . S
C644 H672 0.930 . S
C645 C644 1.385 . S
C645 C646 1.395 . S
C645 H673 0.929 . S
C646 C645 1.395 . S
C646 C647 1.335 . S
C647 C646 1.335 . S
C647 C648 1.398 . S
C647 H674 0.930 . S
C648 C643 1.382 . S
C648 C647 1.398 . S
C648 H675 0.929 . S
C649 O662 1.271 . S
C649 O663 1.251 . S
C650 O664 1.252 . S
C650 O665 1.272 . S
C651 Sm641 2.846 . S
C651 C652 1.506 . S
C651 O666 1.261 . S
C651 O667 1.242 . S
C652 C651 1.506 . S
C652 C653 1.358 . S
C652 C657 1.382 . S
C653 C652 1.358 . S
C653 C654 1.385 . S
C653 H676 0.930 . S
C654 C653 1.385 . S
C654 C655 1.395 . S
C654 H677 0.929 . S
C655 C654 1.395 . S
C655 C656 1.335 . S
C656 C655 1.335 . S
C656 C657 1.398 . S
C656 H678 0.930 . S
C657 C652 1.382 . S
C657 C656 1.398 . S
C657 H679 0.929 . S
C658 O668 1.271 . S
C658 O669 1.251 . S
C659 O670 1.252 . S
C659 O671 1.272 . S
O660 Sm640 2.543 . S
O660 C642 1.261 . S
O661 Sm640 2.450 . S
O661 C642 1.242 . S
O662 Sm640 2.681 . S
O662 Sm641 2.386 . S
O662 C649 1.271 . S
O663 Sm640 2.464 . S
O663 C649 1.251 . S
O664 Sm640 2.396 . S
O664 C650 1.252 . S
O665 Sm641 2.408 . S
O665 C650 1.272 . S
O666 Sm641 2.543 . S
O666 C651 1.261 . S
O667 Sm641 2.450 . S
O667 C651 1.242 . S
O668 Sm640 2.386 . S
O668 Sm641 2.681 . S
O668 C658 1.271 . S
O669 Sm641 2.464 . S
O669 C658 1.251 . S
O670 Sm641 2.396 . S
O670 C659 1.252 . S
O671 Sm640 2.408 . S
O671 C659 1.272 . S
H672 C644 0.930 . S
H673 C645 0.929 . S
H674 C647 0.930 . S
H675 C648 0.929 . S
H676 C653 0.930 . S
H677 C654 0.929 . S
H678 C656 0.930 . S
H679 C657 0.929 . S
Sm680 C682 2.846 . S
Sm680 O700 2.543 . S
Sm680 O701 2.450 . S
Sm680 O702 2.681 . S
Sm680 O703 2.464 . S
Sm680 O704 2.396 . S
Sm680 O708 2.386 . S
Sm680 O711 2.408 . S
Sm681 C691 2.846 . S
Sm681 O702 2.386 . S
Sm681 O705 2.408 . S
Sm681 O706 2.543 . S
Sm681 O707 2.450 . S
Sm681 O708 2.681 . S
Sm681 O709 2.464 . S
Sm681 O710 2.396 . S
C682 Sm680 2.846 . S
C682 C683 1.506 . S
C682 O700 1.261 . S
C682 O701 1.242 . S
C683 C682 1.506 . S
C683 C684 1.358 1_545 S
C683 C688 1.382 . S
C684 C683 1.358 1_565 S
C684 C685 1.385 . S
C684 H712 0.930 . S
C685 C684 1.385 . S
C685 C686 1.395 . S
C685 H713 0.929 . S
C686 C685 1.395 . S
C686 C687 1.335 1_565 S
C687 C686 1.335 1_545 S
C687 C688 1.398 . S
C687 H714 0.930 . S
C688 C683 1.382 . S
C688 C687 1.398 . S
C688 H715 0.929 . S
C689 O702 1.271 . S
C689 O703 1.251 . S
C690 O704 1.252 . S
C690 O705 1.272 . S
C691 Sm681 2.846 . S
C691 C692 1.506 . S
C691 O706 1.261 . S
C691 O707 1.242 . S
C692 C691 1.506 . S
C692 C693 1.358 . S
C692 C697 1.382 . S
C693 C692 1.358 . S
C693 C694 1.385 . S
C693 H716 0.930 . S
C694 C693 1.385 . S
C694 C695 1.395 . S
C694 H717 0.929 . S
C695 C694 1.395 . S
C695 C696 1.335 . S
C696 C695 1.335 . S
C696 C697 1.398 . S
C696 H718 0.930 . S
C697 C692 1.382 . S
C697 C696 1.398 . S
C697 H719 0.929 . S
C698 O708 1.271 . S
C698 O709 1.251 . S
C699 O710 1.252 . S
C699 O711 1.272 . S
O700 Sm680 2.543 . S
O700 C682 1.261 . S
O701 Sm680 2.450 . S
O701 C682 1.242 . S
O702 Sm680 2.681 . S
O702 Sm681 2.386 . S
O702 C689 1.271 . S
O703 Sm680 2.464 . S
O703 C689 1.251 . S
O704 Sm680 2.396 . S
O704 C690 1.252 . S
O705 Sm681 2.408 . S
O705 C690 1.272 . S
O706 Sm681 2.543 . S
O706 C691 1.261 . S
O707 Sm681 2.450 . S
O707 C691 1.242 . S
O708 Sm680 2.386 . S
O708 Sm681 2.681 . S
O708 C698 1.271 . S
O709 Sm681 2.464 . S
O709 C698 1.251 . S
O710 Sm681 2.396 . S
O710 C699 1.252 . S
O711 Sm680 2.408 . S
O711 C699 1.272 . S
H712 C684 0.930 . S
H713 C685 0.929 . S
H714 C687 0.930 . S
H715 C688 0.929 . S
H716 C693 0.930 . S
H717 C694 0.929 . S
H718 C696 0.930 . S
H719 C697 0.929 . S
Sm720 C722 2.846 . S
Sm720 O740 2.543 . S
Sm720 O741 2.450 . S
Sm720 O742 2.681 . S
Sm720 O743 2.464 . S
Sm720 O744 2.396 . S
Sm720 O748 2.386 . S
Sm720 O751 2.408 . S
Sm721 C731 2.846 . S
Sm721 O742 2.386 . S
Sm721 O745 2.408 . S
Sm721 O746 2.543 . S
Sm721 O747 2.450 . S
Sm721 O748 2.681 . S
Sm721 O749 2.464 . S
Sm721 O750 2.396 . S
C722 Sm720 2.846 . S
C722 C723 1.506 . S
C722 O740 1.261 . S
C722 O741 1.242 . S
C723 C722 1.506 . S
C723 C724 1.358 . S
C723 C728 1.382 . S
C724 C723 1.358 . S
C724 C725 1.385 . S
C724 H752 0.930 . S
C725 C724 1.385 . S
C725 C726 1.395 . S
C725 H753 0.929 . S
C726 C725 1.395 . S
C726 C727 1.335 . S
C727 C726 1.335 . S
C727 C728 1.398 . S
C727 H754 0.930 . S
C728 C723 1.382 . S
C728 C727 1.398 . S
C728 H755 0.929 . S
C729 O742 1.271 . S
C729 O743 1.251 . S
C730 O744 1.252 . S
C730 O745 1.272 . S
C731 Sm721 2.846 . S
C731 C732 1.506 . S
C731 O746 1.261 . S
C731 O747 1.242 . S
C732 C731 1.506 . S
C732 C733 1.358 1_545 S
C732 C737 1.382 . S
C733 C732 1.358 1_565 S
C733 C734 1.385 . S
C733 H756 0.930 . S
C734 C733 1.385 . S
C734 C735 1.395 . S
C734 H757 0.929 . S
C735 C734 1.395 . S
C735 C736 1.335 1_565 S
C736 C735 1.335 1_545 S
C736 C737 1.398 . S
C736 H758 0.930 . S
C737 C732 1.382 . S
C737 C736 1.398 . S
C737 H759 0.929 . S
C738 O748 1.271 . S
C738 O749 1.251 . S
C739 O750 1.252 . S
C739 O751 1.272 . S
O740 Sm720 2.543 . S
O740 C722 1.261 . S
O741 Sm720 2.450 . S
O741 C722 1.242 . S
O742 Sm720 2.681 . S
O742 Sm721 2.386 . S
O742 C729 1.271 . S
O743 Sm720 2.464 . S
O743 C729 1.251 . S
O744 Sm720 2.396 . S
O744 C730 1.252 . S
O745 Sm721 2.408 . S
O745 C730 1.272 . S
O746 Sm721 2.543 . S
O746 C731 1.261 . S
O747 Sm721 2.450 . S
O747 C731 1.242 . S
O748 Sm720 2.386 . S
O748 Sm721 2.681 . S
O748 C738 1.271 . S
O749 Sm721 2.464 . S
O749 C738 1.251 . S
O750 Sm721 2.396 . S
O750 C739 1.252 . S
O751 Sm720 2.408 . S
O751 C739 1.272 . S
H752 C724 0.930 . S
H753 C725 0.929 . S
H754 C727 0.930 . S
H755 C728 0.929 . S
H756 C733 0.930 . S
H757 C734 0.929 . S
H758 C736 0.930 . S
H759 C737 0.929 . S
Sm760 C762 2.846 . S
Sm760 O780 2.543 . S
Sm760 O781 2.450 . S
Sm760 O782 2.681 . S
Sm760 O783 2.464 . S
Sm760 O784 2.396 . S
Sm760 O788 2.386 . S
Sm760 O791 2.408 . S
Sm761 C771 2.846 . S
Sm761 O782 2.386 . S
Sm761 O785 2.408 . S
Sm761 O786 2.543 . S
Sm761 O787 2.450 . S
Sm761 O788 2.681 . S
Sm761 O789 2.464 . S
Sm761 O790 2.396 . S
C762 Sm760 2.846 . S
C762 C763 1.506 . S
C762 O780 1.261 . S
C762 O781 1.242 . S
C763 C762 1.506 . S
C763 C764 1.358 . S
C763 C768 1.382 . S
C764 C763 1.358 . S
C764 C765 1.385 . S
C764 H792 0.930 . S
C765 C764 1.385 . S
C765 C766 1.395 . S
C765 H793 0.929 . S
C766 C765 1.395 . S
C766 C767 1.335 . S
C767 C766 1.335 . S
C767 C768 1.398 . S
C767 H794 0.930 . S
C768 C763 1.382 . S
C768 C767 1.398 . S
C768 H795 0.929 . S
C769 O782 1.271 . S
C769 O783 1.251 . S
C770 O784 1.252 . S
C770 O785 1.272 . S
C771 Sm761 2.846 . S
C771 C772 1.506 . S
C771 O786 1.261 . S
C771 O787 1.242 . S
C772 C771 1.506 . S
C772 C773 1.358 1_655 S
C772 C777 1.382 . S
C773 C772 1.358 1_455 S
C773 C774 1.385 . S
C773 H796 0.930 . S
C774 C773 1.385 . S
C774 C775 1.395 . S
C774 H797 0.929 . S
C775 C774 1.395 . S
C775 C776 1.335 1_455 S
C776 C775 1.335 1_655 S
C776 C777 1.398 . S
C776 H798 0.930 . S
C777 C772 1.382 . S
C777 C776 1.398 . S
C777 H799 0.929 . S
C778 O788 1.271 . S
C778 O789 1.251 . S
C779 O790 1.252 . S
C779 O791 1.272 . S
O780 Sm760 2.543 . S
O780 C762 1.261 . S
O781 Sm760 2.450 . S
O781 C762 1.242 . S
O782 Sm760 2.681 . S
O782 Sm761 2.386 . S
O782 C769 1.271 . S
O783 Sm760 2.464 . S
O783 C769 1.251 . S
O784 Sm760 2.396 . S
O784 C770 1.252 . S
O785 Sm761 2.408 . S
O785 C770 1.272 . S
O786 Sm761 2.543 . S
O786 C771 1.261 . S
O787 Sm761 2.450 . S
O787 C771 1.242 . S
O788 Sm760 2.386 . S
O788 Sm761 2.681 . S
O788 C778 1.271 . S
O789 Sm761 2.464 . S
O789 C778 1.251 . S
O790 Sm761 2.396 . S
O790 C779 1.252 . S
O791 Sm760 2.408 . S
O791 C779 1.272 . S
H792 C764 0.930 . S
H793 C765 0.929 . S
H794 C767 0.930 . S
H795 C768 0.929 . S
H796 C773 0.930 . S
H797 C774 0.929 . S
H798 C776 0.930 . S
H799 C777 0.929 . S
Sm800 C802 2.846 . S
Sm800 O820 2.543 . S
Sm800 O821 2.450 . S
Sm800 O822 2.681 . S
Sm800 O823 2.464 . S
Sm800 O824 2.396 . S
Sm800 O828 2.386 . S
Sm800 O831 2.408 . S
Sm801 C811 2.846 . S
Sm801 O822 2.386 . S
Sm801 O825 2.408 . S
Sm801 O826 2.543 . S
Sm801 O827 2.450 . S
Sm801 O828 2.681 . S
Sm801 O829 2.464 . S
Sm801 O830 2.396 . S
C802 Sm800 2.846 . S
C802 C803 1.506 . S
C802 O820 1.261 . S
C802 O821 1.242 . S
C803 C802 1.506 . S
C803 C804 1.358 . S
C803 C808 1.382 . S
C804 C803 1.358 . S
C804 C805 1.385 . S
C804 H832 0.930 . S
C805 C804 1.385 . S
C805 C806 1.395 . S
C805 H833 0.929 . S
C806 C805 1.395 . S
C806 C807 1.335 . S
C807 C806 1.335 . S
C807 C808 1.398 . S
C807 H834 0.930 . S
C808 C803 1.382 . S
C808 C807 1.398 . S
C808 H835 0.929 . S
C809 O822 1.271 . S
C809 O823 1.251 . S
C810 O824 1.252 . S
C810 O825 1.272 . S
C811 Sm801 2.846 . S
C811 C812 1.506 . S
C811 O826 1.261 . S
C811 O827 1.242 . S
C812 C811 1.506 . S
C812 C813 1.358 . S
C812 C817 1.382 . S
C813 C812 1.358 . S
C813 C814 1.385 . S
C813 H836 0.930 . S
C814 C813 1.385 . S
C814 C815 1.395 . S
C814 H837 0.929 . S
C815 C814 1.395 . S
C815 C816 1.335 . S
C816 C815 1.335 . S
C816 C817 1.398 . S
C816 H838 0.930 . S
C817 C812 1.382 . S
C817 C816 1.398 . S
C817 H839 0.929 . S
C818 O828 1.271 . S
C818 O829 1.251 . S
C819 O830 1.252 . S
C819 O831 1.272 . S
O820 Sm800 2.543 . S
O820 C802 1.261 . S
O821 Sm800 2.450 . S
O821 C802 1.242 . S
O822 Sm800 2.681 . S
O822 Sm801 2.386 . S
O822 C809 1.271 . S
O823 Sm800 2.464 . S
O823 C809 1.251 . S
O824 Sm800 2.396 . S
O824 C810 1.252 . S
O825 Sm801 2.408 . S
O825 C810 1.272 . S
O826 Sm801 2.543 . S
O826 C811 1.261 . S
O827 Sm801 2.450 . S
O827 C811 1.242 . S
O828 Sm800 2.386 . S
O828 Sm801 2.681 . S
O828 C818 1.271 . S
O829 Sm801 2.464 . S
O829 C818 1.251 . S
O830 Sm801 2.396 . S
O830 C819 1.252 . S
O831 Sm800 2.408 . S
O831 C819 1.272 . S
H832 C804 0.930 . S
H833 C805 0.929 . S
H834 C807 0.930 . S
H835 C808 0.929 . S
H836 C813 0.930 . S
H837 C814 0.929 . S
H838 C816 0.930 . S
H839 C817 0.929 . S
Sm840 C842 2.846 . S
Sm840 O860 2.543 . S
Sm840 O861 2.450 . S
Sm840 O862 2.681 1_554 S
Sm840 O863 2.464 . S
Sm840 O864 2.396 . S
Sm840 O868 2.386 . S
Sm840 O871 2.408 . S
Sm841 C851 2.846 . S
Sm841 O862 2.386 . S
Sm841 O865 2.408 . S
Sm841 O866 2.543 . S
Sm841 O867 2.450 . S
Sm841 O868 2.681 1_556 S
Sm841 O869 2.464 . S
Sm841 O870 2.396 . S
C842 Sm840 2.846 . S
C842 C843 1.506 . S
C842 O860 1.261 . S
C842 O861 1.242 . S
C843 C842 1.506 . S
C843 C844 1.358 . S
C843 C848 1.382 . S
C844 C843 1.358 . S
C844 C845 1.385 . S
C844 H872 0.930 . S
C845 C844 1.385 . S
C845 C846 1.395 . S
C845 H873 0.929 . S
C846 C845 1.395 . S
C846 C847 1.335 . S
C847 C846 1.335 . S
C847 C848 1.398 . S
C847 H874 0.930 . S
C848 C843 1.382 . S
C848 C847 1.398 . S
C848 H875 0.929 . S
C849 O862 1.271 1_554 S
C849 O863 1.251 . S
C850 O864 1.252 . S
C850 O865 1.272 1_554 S
C851 Sm841 2.846 . S
C851 C852 1.506 . S
C851 O866 1.261 . S
C851 O867 1.242 . S
C852 C851 1.506 . S
C852 C853 1.358 . S
C852 C857 1.382 . S
C853 C852 1.358 . S
C853 C854 1.385 . S
C853 H876 0.930 . S
C854 C853 1.385 . S
C854 C855 1.395 . S
C854 H877 0.929 . S
C855 C854 1.395 . S
C855 C856 1.335 . S
C856 C855 1.335 . S
C856 C857 1.398 . S
C856 H878 0.930 . S
C857 C852 1.382 . S
C857 C856 1.398 . S
C857 H879 0.929 . S
C858 O868 1.271 1_556 S
C858 O869 1.251 . S
C859 O870 1.252 . S
C859 O871 1.272 1_556 S
O860 Sm840 2.543 . S
O860 C842 1.261 . S
O861 Sm840 2.450 . S
O861 C842 1.242 . S
O862 Sm840 2.681 1_556 S
O862 Sm841 2.386 . S
O862 C849 1.271 1_556 S
O863 Sm840 2.464 . S
O863 C849 1.251 . S
O864 Sm840 2.396 . S
O864 C850 1.252 . S
O865 Sm841 2.408 . S
O865 C850 1.272 1_556 S
O866 Sm841 2.543 . S
O866 C851 1.261 . S
O867 Sm841 2.450 . S
O867 C851 1.242 . S
O868 Sm840 2.386 . S
O868 Sm841 2.681 1_554 S
O868 C858 1.271 1_554 S
O869 Sm841 2.464 . S
O869 C858 1.251 . S
O870 Sm841 2.396 . S
O870 C859 1.252 . S
O871 Sm840 2.408 . S
O871 C859 1.272 1_554 S
H872 C844 0.930 . S
H873 C845 0.929 . S
H874 C847 0.930 . S
H875 C848 0.929 . S
H876 C853 0.930 . S
H877 C854 0.929 . S
H878 C856 0.930 . S
H879 C857 0.929 . S
Sm880 C882 2.846 . S
Sm880 O900 2.543 . S
Sm880 O901 2.450 . S
Sm880 O902 2.681 1_554 S
Sm880 O903 2.464 . S
Sm880 O904 2.396 . S
Sm880 O908 2.386 . S
Sm880 O911 2.408 . S
Sm881 C891 2.846 . S
Sm881 O902 2.386 . S
Sm881 O905 2.408 . S
Sm881 O906 2.543 . S
Sm881 O907 2.450 . S
Sm881 O908 2.681 1_556 S
Sm881 O909 2.464 . S
Sm881 O910 2.396 . S
C882 Sm880 2.846 . S
C882 C883 1.506 . S
C882 O900 1.261 . S
C882 O901 1.242 . S
C883 C882 1.506 . S
C883 C884 1.358 . S
C883 C888 1.382 . S
C884 C883 1.358 . S
C884 C885 1.385 . S
C884 H912 0.930 . S
C885 C884 1.385 . S
C885 C886 1.395 . S
C885 H913 0.929 . S
C886 C885 1.395 . S
C886 C887 1.335 . S
C887 C886 1.335 . S
C887 C888 1.398 . S
C887 H914 0.930 . S
C888 C883 1.382 . S
C888 C887 1.398 . S
C888 H915 0.929 . S
C889 O902 1.271 1_554 S
C889 O903 1.251 . S
C890 O904 1.252 . S
C890 O905 1.272 1_554 S
C891 Sm881 2.846 . S
C891 C892 1.506 . S
C891 O906 1.261 . S
C891 O907 1.242 . S
C892 C891 1.506 . S
C892 C893 1.358 . S
C892 C897 1.382 . S
C893 C892 1.358 . S
C893 C894 1.385 . S
C893 H916 0.930 . S
C894 C893 1.385 . S
C894 C895 1.395 . S
C894 H917 0.929 . S
C895 C894 1.395 . S
C895 C896 1.335 . S
C896 C895 1.335 . S
C896 C897 1.398 . S
C896 H918 0.930 . S
C897 C892 1.382 . S
C897 C896 1.398 . S
C897 H919 0.929 . S
C898 O908 1.271 1_556 S
C898 O909 1.251 . S
C899 O910 1.252 . S
C899 O911 1.272 1_556 S
O900 Sm880 2.543 . S
O900 C882 1.261 . S
O901 Sm880 2.450 . S
O901 C882 1.242 . S
O902 Sm880 2.681 1_556 S
O902 Sm881 2.386 . S
O902 C889 1.271 1_556 S
O903 Sm880 2.464 . S
O903 C889 1.251 . S
O904 Sm880 2.396 . S
O904 C890 1.252 . S
O905 Sm881 2.408 . S
O905 C890 1.272 1_556 S
O906 Sm881 2.543 . S
O906 C891 1.261 . S
O907 Sm881 2.450 . S
O907 C891 1.242 . S
O908 Sm880 2.386 . S
O908 Sm881 2.681 1_554 S
O908 C898 1.271 1_554 S
O909 Sm881 2.464 . S
O909 C898 1.251 . S
O910 Sm881 2.396 . S
O910 C899 1.252 . S
O911 Sm880 2.408 . S
O911 C899 1.272 1_554 S
H912 C884 0.930 . S
H913 C885 0.929 . S
H914 C887 0.930 . S
H915 C888 0.929 . S
H916 C893 0.930 . S
H917 C894 0.929 . S
H918 C896 0.930 . S
H919 C897 0.929 . S
Sm920 C922 2.846 . S
Sm920 O940 2.543 . S
Sm920 O941 2.450 . S
Sm920 O942 2.681 1_554 S
Sm920 O943 2.464 . S
Sm920 O944 2.396 . S
Sm920 O948 2.386 . S
Sm920 O951 2.408 . S
Sm921 C931 2.846 . S
Sm921 O942 2.386 . S
Sm921 O945 2.408 . S
Sm921 O946 2.543 . S
Sm921 O947 2.450 . S
Sm921 O948 2.681 1_556 S
Sm921 O949 2.464 . S
Sm921 O950 2.396 . S
C922 Sm920 2.846 . S
C922 C923 1.506 . S
C922 O940 1.261 . S
C922 O941 1.242 . S
C923 C922 1.506 . S
C923 C924 1.358 . S
C923 C928 1.382 . S
C924 C923 1.358 . S
C924 C925 1.385 . S
C924 H952 0.930 . S
C925 C924 1.385 . S
C925 C926 1.395 . S
C925 H953 0.929 . S
C926 C925 1.395 . S
C926 C927 1.335 . S
C927 C926 1.335 . S
C927 C928 1.398 . S
C927 H954 0.930 . S
C928 C923 1.382 . S
C928 C927 1.398 . S
C928 H955 0.929 . S
C929 O942 1.271 1_554 S
C929 O943 1.251 . S
C930 O944 1.252 . S
C930 O945 1.272 1_554 S
C931 Sm921 2.846 . S
C931 C932 1.506 . S
C931 O946 1.261 . S
C931 O947 1.242 . S
C932 C931 1.506 . S
C932 C933 1.358 . S
C932 C937 1.382 . S
C933 C932 1.358 . S
C933 C934 1.385 . S
C933 H956 0.930 . S
C934 C933 1.385 . S
C934 C935 1.395 . S
C934 H957 0.929 . S
C935 C934 1.395 . S
C935 C936 1.335 . S
C936 C935 1.335 . S
C936 C937 1.398 . S
C936 H958 0.930 . S
C937 C932 1.382 . S
C937 C936 1.398 . S
C937 H959 0.929 . S
C938 O948 1.271 1_556 S
C938 O949 1.251 . S
C939 O950 1.252 . S
C939 O951 1.272 1_556 S
O940 Sm920 2.543 . S
O940 C922 1.261 . S
O941 Sm920 2.450 . S
O941 C922 1.242 . S
O942 Sm920 2.681 1_556 S
O942 Sm921 2.386 . S
O942 C929 1.271 1_556 S
O943 Sm920 2.464 . S
O943 C929 1.251 . S
O944 Sm920 2.396 . S
O944 C930 1.252 . S
O945 Sm921 2.408 . S
O945 C930 1.272 1_556 S
O946 Sm921 2.543 . S
O946 C931 1.261 . S
O947 Sm921 2.450 . S
O947 C931 1.242 . S
O948 Sm920 2.386 . S
O948 Sm921 2.681 1_554 S
O948 C938 1.271 1_554 S
O949 Sm921 2.464 . S
O949 C938 1.251 . S
O950 Sm921 2.396 . S
O950 C939 1.252 . S
O951 Sm920 2.408 . S
O951 C939 1.272 1_554 S
H952 C924 0.930 . S
H953 C925 0.929 . S
H954 C927 0.930 . S
H955 C928 0.929 . S
H956 C933 0.930 . S
H957 C934 0.929 . S
H958 C936 0.930 . S
H959 C937 0.929 . S
Sm960 C962 2.846 . S
Sm960 O980 2.543 . S
Sm960 O981 2.450 . S
Sm960 O982 2.681 . S
Sm960 O983 2.464 . S
Sm960 O984 2.396 . S
Sm960 O988 2.386 . S
Sm960 O991 2.408 . S
Sm961 C971 2.846 . S
Sm961 O982 2.386 . S
Sm961 O985 2.408 . S
Sm961 O986 2.543 . S
Sm961 O987 2.450 . S
Sm961 O988 2.681 . S
Sm961 O989 2.464 . S
Sm961 O990 2.396 . S
C962 Sm960 2.846 . S
C962 C963 1.506 . S
C962 O980 1.261 . S
C962 O981 1.242 . S
C963 C962 1.506 . S
C963 C964 1.358 1_565 S
C963 C968 1.382 . S
C964 C963 1.358 1_545 S
C964 C965 1.385 . S
C964 H992 0.930 . S
C965 C964 1.385 . S
C965 C966 1.395 . S
C965 H993 0.929 . S
C966 C965 1.395 . S
C966 C967 1.335 1_545 S
C967 C966 1.335 1_565 S
C967 C968 1.398 . S
C967 H994 0.930 . S
C968 C963 1.382 . S
C968 C967 1.398 . S
C968 H995 0.929 . S
C969 O982 1.271 . S
C969 O983 1.251 . S
C970 O984 1.252 . S
C970 O985 1.272 . S
C971 Sm961 2.846 . S
C971 C972 1.506 . S
C971 O986 1.261 . S
C971 O987 1.242 . S
C972 C971 1.506 . S
C972 C973 1.358 . S
C972 C977 1.382 . S
C973 C972 1.358 . S
C973 C974 1.385 . S
C973 H996 0.930 . S
C974 C973 1.385 . S
C974 C975 1.395 . S
C974 H997 0.929 . S
C975 C974 1.395 . S
C975 C976 1.335 . S
C976 C975 1.335 . S
C976 C977 1.398 . S
C976 H998 0.930 . S
C977 C972 1.382 . S
C977 C976 1.398 . S
C977 H999 0.929 . S
C978 O988 1.271 . S
C978 O989 1.251 . S
C979 O990 1.252 . S
C979 O991 1.272 . S
O980 Sm960 2.543 . S
O980 C962 1.261 . S
O981 Sm960 2.450 . S
O981 C962 1.242 . S
O982 Sm960 2.681 . S
O982 Sm961 2.386 . S
O982 C969 1.271 . S
O983 Sm960 2.464 . S
O983 C969 1.251 . S
O984 Sm960 2.396 . S
O984 C970 1.252 . S
O985 Sm961 2.408 . S
O985 C970 1.272 . S
O986 Sm961 2.543 . S
O986 C971 1.261 . S
O987 Sm961 2.450 . S
O987 C971 1.242 . S
O988 Sm960 2.386 . S
O988 Sm961 2.681 . S
O988 C978 1.271 . S
O989 Sm961 2.464 . S
O989 C978 1.251 . S
O990 Sm961 2.396 . S
O990 C979 1.252 . S
O991 Sm960 2.408 . S
O991 C979 1.272 . S
H992 C964 0.930 . S
H993 C965 0.929 . S
H994 C967 0.930 . S
H995 C968 0.929 . S
H996 C973 0.930 . S
H997 C974 0.929 . S
H998 C976 0.930 . S
H999 C977 0.929 . S
Sm1000 C1002 2.846 . S
Sm1000 O1020 2.543 . S
Sm1000 O1021 2.450 . S
Sm1000 O1022 2.681 . S
Sm1000 O1023 2.464 . S
Sm1000 O1024 2.396 . S
Sm1000 O1028 2.386 . S
Sm1000 O1031 2.408 . S
Sm1001 C1011 2.846 . S
Sm1001 O1022 2.386 . S
Sm1001 O1025 2.408 . S
Sm1001 O1026 2.543 . S
Sm1001 O1027 2.450 . S
Sm1001 O1028 2.681 . S
Sm1001 O1029 2.464 . S
Sm1001 O1030 2.396 . S
C1002 Sm1000 2.846 . S
C1002 C1003 1.506 . S
C1002 O1020 1.261 . S
C1002 O1021 1.242 . S
C1003 C1002 1.506 . S
C1003 C1004 1.358 1_455 S
C1003 C1008 1.382 . S
C1004 C1003 1.358 1_655 S
C1004 C1005 1.385 . S
C1004 H1032 0.930 . S
C1005 C1004 1.385 . S
C1005 C1006 1.395 . S
C1005 H1033 0.929 . S
C1006 C1005 1.395 . S
C1006 C1007 1.335 1_655 S
C1007 C1006 1.335 1_455 S
C1007 C1008 1.398 . S
C1007 H1034 0.930 . S
C1008 C1003 1.382 . S
C1008 C1007 1.398 . S
C1008 H1035 0.929 . S
C1009 O1022 1.271 . S
C1009 O1023 1.251 . S
C1010 O1024 1.252 . S
C1010 O1025 1.272 . S
C1011 Sm1001 2.846 . S
C1011 C1012 1.506 . S
C1011 O1026 1.261 . S
C1011 O1027 1.242 . S
C1012 C1011 1.506 . S
C1012 C1013 1.358 . S
C1012 C1017 1.382 . S
C1013 C1012 1.358 . S
C1013 C1014 1.385 . S
C1013 H1036 0.930 . S
C1014 C1013 1.385 . S
C1014 C1015 1.395 . S
C1014 H1037 0.929 . S
C1015 C1014 1.395 . S
C1015 C1016 1.335 . S
C1016 C1015 1.335 . S
C1016 C1017 1.398 . S
C1016 H1038 0.930 . S
C1017 C1012 1.382 . S
C1017 C1016 1.398 . S
C1017 H1039 0.929 . S
C1018 O1028 1.271 . S
C1018 O1029 1.251 . S
C1019 O1030 1.252 . S
C1019 O1031 1.272 . S
O1020 Sm1000 2.543 . S
O1020 C1002 1.261 . S
O1021 Sm1000 2.450 . S
O1021 C1002 1.242 . S
O1022 Sm1000 2.681 . S
O1022 Sm1001 2.386 . S
O1022 C1009 1.271 . S
O1023 Sm1000 2.464 . S
O1023 C1009 1.251 . S
O1024 Sm1000 2.396 . S
O1024 C1010 1.252 . S
O1025 Sm1001 2.408 . S
O1025 C1010 1.272 . S
O1026 Sm1001 2.543 . S
O1026 C1011 1.261 . S
O1027 Sm1001 2.450 . S
O1027 C1011 1.242 . S
O1028 Sm1000 2.386 . S
O1028 Sm1001 2.681 . S
O1028 C1018 1.271 . S
O1029 Sm1001 2.464 . S
O1029 C1018 1.251 . S
O1030 Sm1001 2.396 . S
O1030 C1019 1.252 . S
O1031 Sm1000 2.408 . S
O1031 C1019 1.272 . S
H1032 C1004 0.930 . S
H1033 C1005 0.929 . S
H1034 C1007 0.930 . S
H1035 C1008 0.929 . S
H1036 C1013 0.930 . S
H1037 C1014 0.929 . S
H1038 C1016 0.930 . S
H1039 C1017 0.929 . S
Sm1040 C1042 2.846 . S
Sm1040 O1060 2.543 . S
Sm1040 O1061 2.450 . S
Sm1040 O1062 2.681 . S
Sm1040 O1063 2.464 . S
Sm1040 O1064 2.396 . S
Sm1040 O1068 2.386 . S
Sm1040 O1071 2.408 . S
Sm1041 C1051 2.846 . S
Sm1041 O1062 2.386 . S
Sm1041 O1065 2.408 . S
Sm1041 O1066 2.543 . S
Sm1041 O1067 2.450 . S
Sm1041 O1068 2.681 . S
Sm1041 O1069 2.464 . S
Sm1041 O1070 2.396 . S
C1042 Sm1040 2.846 . S
C1042 C1043 1.506 . S
C1042 O1060 1.261 . S
C1042 O1061 1.242 . S
C1043 C1042 1.506 . S
C1043 C1044 1.358 . S
C1043 C1048 1.382 . S
C1044 C1043 1.358 . S
C1044 C1045 1.385 . S
C1044 H1072 0.930 . S
C1045 C1044 1.385 . S
C1045 C1046 1.395 . S
C1045 H1073 0.929 . S
C1046 C1045 1.395 . S
C1046 C1047 1.335 . S
C1047 C1046 1.335 . S
C1047 C1048 1.398 . S
C1047 H1074 0.930 . S
C1048 C1043 1.382 . S
C1048 C1047 1.398 . S
C1048 H1075 0.929 . S
C1049 O1062 1.271 . S
C1049 O1063 1.251 . S
C1050 O1064 1.252 . S
C1050 O1065 1.272 . S
C1051 Sm1041 2.846 . S
C1051 C1052 1.506 . S
C1051 O1066 1.261 . S
C1051 O1067 1.242 . S
C1052 C1051 1.506 . S
C1052 C1053 1.358 . S
C1052 C1057 1.382 . S
C1053 C1052 1.358 . S
C1053 C1054 1.385 . S
C1053 H1076 0.930 . S
C1054 C1053 1.385 . S
C1054 C1055 1.395 . S
C1054 H1077 0.929 . S
C1055 C1054 1.395 . S
C1055 C1056 1.335 . S
C1056 C1055 1.335 . S
C1056 C1057 1.398 . S
C1056 H1078 0.930 . S
C1057 C1052 1.382 . S
C1057 C1056 1.398 . S
C1057 H1079 0.929 . S
C1058 O1068 1.271 . S
C1058 O1069 1.251 . S
C1059 O1070 1.252 . S
C1059 O1071 1.272 . S
O1060 Sm1040 2.543 . S
O1060 C1042 1.261 . S
O1061 Sm1040 2.450 . S
O1061 C1042 1.242 . S
O1062 Sm1040 2.681 . S
O1062 Sm1041 2.386 . S
O1062 C1049 1.271 . S
O1063 Sm1040 2.464 . S
O1063 C1049 1.251 . S
O1064 Sm1040 2.396 . S
O1064 C1050 1.252 . S
O1065 Sm1041 2.408 . S
O1065 C1050 1.272 . S
O1066 Sm1041 2.543 . S
O1066 C1051 1.261 . S
O1067 Sm1041 2.450 . S
O1067 C1051 1.242 . S
O1068 Sm1040 2.386 . S
O1068 Sm1041 2.681 . S
O1068 C1058 1.271 . S
O1069 Sm1041 2.464 . S
O1069 C1058 1.251 . S
O1070 Sm1041 2.396 . S
O1070 C1059 1.252 . S
O1071 Sm1040 2.408 . S
O1071 C1059 1.272 . S
H1072 C1044 0.930 . S
H1073 C1045 0.929 . S
H1074 C1047 0.930 . S
H1075 C1048 0.929 . S
H1076 C1053 0.930 . S
H1077 C1054 0.929 . S
H1078 C1056 0.930 . S
H1079 C1057 0.929 . S
Sm1080 C1082 2.846 . S
Sm1080 O1100 2.543 . S
Sm1080 O1101 2.450 . S
Sm1080 O1102 2.681 1_554 S
Sm1080 O1103 2.464 . S
Sm1080 O1104 2.396 . S
Sm1080 O1108 2.386 . S
Sm1080 O1111 2.408 . S
Sm1081 C1091 2.846 . S
Sm1081 O1102 2.386 . S
Sm1081 O1105 2.408 . S
Sm1081 O1106 2.543 . S
Sm1081 O1107 2.450 . S
Sm1081 O1108 2.681 1_556 S
Sm1081 O1109 2.464 . S
Sm1081 O1110 2.396 . S
C1082 Sm1080 2.846 . S
C1082 C1083 1.506 . S
C1082 O1100 1.261 . S
C1082 O1101 1.242 . S
C1083 C1082 1.506 . S
C1083 C1084 1.358 . S
C1083 C1088 1.382 . S
C1084 C1083 1.358 . S
C1084 C1085 1.385 . S
C1084 H1112 0.930 . S
C1085 C1084 1.385 . S
C1085 C1086 1.395 . S
C1085 H1113 0.929 . S
C1086 C1085 1.395 . S
C1086 C1087 1.335 . S
C1087 C1086 1.335 . S
C1087 C1088 1.398 . S
C1087 H1114 0.930 . S
C1088 C1083 1.382 . S
C1088 C1087 1.398 . S
C1088 H1115 0.929 . S
C1089 O1102 1.271 1_554 S
C1089 O1103 1.251 . S
C1090 O1104 1.252 . S
C1090 O1105 1.272 1_554 S
C1091 Sm1081 2.846 . S
C1091 C1092 1.506 . S
C1091 O1106 1.261 . S
C1091 O1107 1.242 . S
C1092 C1091 1.506 . S
C1092 C1093 1.358 . S
C1092 C1097 1.382 . S
C1093 C1092 1.358 . S
C1093 C1094 1.385 . S
C1093 H1116 0.930 . S
C1094 C1093 1.385 . S
C1094 C1095 1.395 . S
C1094 H1117 0.929 . S
C1095 C1094 1.395 . S
C1095 C1096 1.335 . S
C1096 C1095 1.335 . S
C1096 C1097 1.398 . S
C1096 H1118 0.930 . S
C1097 C1092 1.382 . S
C1097 C1096 1.398 . S
C1097 H1119 0.929 . S
C1098 O1108 1.271 1_556 S
C1098 O1109 1.251 . S
C1099 O1110 1.252 . S
C1099 O1111 1.272 1_556 S
O1100 Sm1080 2.543 . S
O1100 C1082 1.261 . S
O1101 Sm1080 2.450 . S
O1101 C1082 1.242 . S
O1102 Sm1080 2.681 1_556 S
O1102 Sm1081 2.386 . S
O1102 C1089 1.271 1_556 S
O1103 Sm1080 2.464 . S
O1103 C1089 1.251 . S
O1104 Sm1080 2.396 . S
O1104 C1090 1.252 . S
O1105 Sm1081 2.408 . S
O1105 C1090 1.272 1_556 S
O1106 Sm1081 2.543 . S
O1106 C1091 1.261 . S
O1107 Sm1081 2.450 . S
O1107 C1091 1.242 . S
O1108 Sm1080 2.386 . S
O1108 Sm1081 2.681 1_554 S
O1108 C1098 1.271 1_554 S
O1109 Sm1081 2.464 . S
O1109 C1098 1.251 . S
O1110 Sm1081 2.396 . S
O1110 C1099 1.252 . S
O1111 Sm1080 2.408 . S
O1111 C1099 1.272 1_554 S
H1112 C1084 0.930 . S
H1113 C1085 0.929 . S
H1114 C1087 0.930 . S
H1115 C1088 0.929 . S
H1116 C1093 0.930 . S
H1117 C1094 0.929 . S
H1118 C1096 0.930 . S
H1119 C1097 0.929 . S
Sm1120 C1122 2.846 . S
Sm1120 O1140 2.543 . S
Sm1120 O1141 2.450 . S
Sm1120 O1142 2.681 1_554 S
Sm1120 O1143 2.464 . S
Sm1120 O1144 2.396 . S
Sm1120 O1148 2.386 . S
Sm1120 O1151 2.408 . S
Sm1121 C1131 2.846 . S
Sm1121 O1142 2.386 . S
Sm1121 O1145 2.408 . S
Sm1121 O1146 2.543 . S
Sm1121 O1147 2.450 . S
Sm1121 O1148 2.681 1_556 S
Sm1121 O1149 2.464 . S
Sm1121 O1150 2.396 . S
C1122 Sm1120 2.846 . S
C1122 C1123 1.506 . S
C1122 O1140 1.261 . S
C1122 O1141 1.242 . S
C1123 C1122 1.506 . S
C1123 C1124 1.358 . S
C1123 C1128 1.382 . S
C1124 C1123 1.358 . S
C1124 C1125 1.385 . S
C1124 H1152 0.930 . S
C1125 C1124 1.385 . S
C1125 C1126 1.395 . S
C1125 H1153 0.929 . S
C1126 C1125 1.395 . S
C1126 C1127 1.335 . S
C1127 C1126 1.335 . S
C1127 C1128 1.398 . S
C1127 H1154 0.930 . S
C1128 C1123 1.382 . S
C1128 C1127 1.398 . S
C1128 H1155 0.929 . S
C1129 O1142 1.271 1_554 S
C1129 O1143 1.251 . S
C1130 O1144 1.252 . S
C1130 O1145 1.272 1_554 S
C1131 Sm1121 2.846 . S
C1131 C1132 1.506 . S
C1131 O1146 1.261 . S
C1131 O1147 1.242 . S
C1132 C1131 1.506 . S
C1132 C1133 1.358 . S
C1132 C1137 1.382 . S
C1133 C1132 1.358 . S
C1133 C1134 1.385 . S
C1133 H1156 0.930 . S
C1134 C1133 1.385 . S
C1134 C1135 1.395 . S
C1134 H1157 0.929 . S
C1135 C1134 1.395 . S
C1135 C1136 1.335 . S
C1136 C1135 1.335 . S
C1136 C1137 1.398 . S
C1136 H1158 0.930 . S
C1137 C1132 1.382 . S
C1137 C1136 1.398 . S
C1137 H1159 0.929 . S
C1138 O1148 1.271 1_556 S
C1138 O1149 1.251 . S
C1139 O1150 1.252 . S
C1139 O1151 1.272 1_556 S
O1140 Sm1120 2.543 . S
O1140 C1122 1.261 . S
O1141 Sm1120 2.450 . S
O1141 C1122 1.242 . S
O1142 Sm1120 2.681 1_556 S
O1142 Sm1121 2.386 . S
O1142 C1129 1.271 1_556 S
O1143 Sm1120 2.464 . S
O1143 C1129 1.251 . S
O1144 Sm1120 2.396 . S
O1144 C1130 1.252 . S
O1145 Sm1121 2.408 . S
O1145 C1130 1.272 1_556 S
O1146 Sm1121 2.543 . S
O1146 C1131 1.261 . S
O1147 Sm1121 2.450 . S
O1147 C1131 1.242 . S
O1148 Sm1120 2.386 . S
O1148 Sm1121 2.681 1_554 S
O1148 C1138 1.271 1_554 S
O1149 Sm1121 2.464 . S
O1149 C1138 1.251 . S
O1150 Sm1121 2.396 . S
O1150 C1139 1.252 . S
O1151 Sm1120 2.408 . S
O1151 C1139 1.272 1_554 S
H1152 C1124 0.930 . S
H1153 C1125 0.929 . S
H1154 C1127 0.930 . S
H1155 C1128 0.929 . S
H1156 C1133 0.930 . S
H1157 C1134 0.929 . S
H1158 C1136 0.930 . S
H1159 C1137 0.929 . S
Sm1160 C1162 2.846 . S
Sm1160 O1180 2.543 . S
Sm1160 O1181 2.450 . S
Sm1160 O1182 2.681 1_554 S
Sm1160 O1183 2.464 . S
Sm1160 O1184 2.396 . S
Sm1160 O1188 2.386 . S
Sm1160 O1191 2.408 . S
Sm1161 C1171 2.846 . S
Sm1161 O1182 2.386 . S
Sm1161 O1185 2.408 . S
Sm1161 O1186 2.543 . S
Sm1161 O1187 2.450 . S
Sm1161 O1188 2.681 1_556 S
Sm1161 O1189 2.464 . S
Sm1161 O1190 2.396 . S
C1162 Sm1160 2.846 . S
C1162 C1163 1.506 . S
C1162 O1180 1.261 . S
C1162 O1181 1.242 . S
C1163 C1162 1.506 . S
C1163 C1164 1.358 . S
C1163 C1168 1.382 . S
C1164 C1163 1.358 . S
C1164 C1165 1.385 . S
C1164 H1192 0.930 . S
C1165 C1164 1.385 . S
C1165 C1166 1.395 . S
C1165 H1193 0.929 . S
C1166 C1165 1.395 . S
C1166 C1167 1.335 . S
C1167 C1166 1.335 . S
C1167 C1168 1.398 . S
C1167 H1194 0.930 . S
C1168 C1163 1.382 . S
C1168 C1167 1.398 . S
C1168 H1195 0.929 . S
C1169 O1182 1.271 1_554 S
C1169 O1183 1.251 . S
C1170 O1184 1.252 . S
C1170 O1185 1.272 1_554 S
C1171 Sm1161 2.846 . S
C1171 C1172 1.506 . S
C1171 O1186 1.261 . S
C1171 O1187 1.242 . S
C1172 C1171 1.506 . S
C1172 C1173 1.358 . S
C1172 C1177 1.382 . S
C1173 C1172 1.358 . S
C1173 C1174 1.385 . S
C1173 H1196 0.930 . S
C1174 C1173 1.385 . S
C1174 C1175 1.395 . S
C1174 H1197 0.929 . S
C1175 C1174 1.395 . S
C1175 C1176 1.335 . S
C1176 C1175 1.335 . S
C1176 C1177 1.398 . S
C1176 H1198 0.930 . S
C1177 C1172 1.382 . S
C1177 C1176 1.398 . S
C1177 H1199 0.929 . S
C1178 O1188 1.271 1_556 S
C1178 O1189 1.251 . S
C1179 O1190 1.252 . S
C1179 O1191 1.272 1_556 S
O1180 Sm1160 2.543 . S
O1180 C1162 1.261 . S
O1181 Sm1160 2.450 . S
O1181 C1162 1.242 . S
O1182 Sm1160 2.681 1_556 S
O1182 Sm1161 2.386 . S
O1182 C1169 1.271 1_556 S
O1183 Sm1160 2.464 . S
O1183 C1169 1.251 . S
O1184 Sm1160 2.396 . S
O1184 C1170 1.252 . S
O1185 Sm1161 2.408 . S
O1185 C1170 1.272 1_556 S
O1186 Sm1161 2.543 . S
O1186 C1171 1.261 . S
O1187 Sm1161 2.450 . S
O1187 C1171 1.242 . S
O1188 Sm1160 2.386 . S
O1188 Sm1161 2.681 1_554 S
O1188 C1178 1.271 1_554 S
O1189 Sm1161 2.464 . S
O1189 C1178 1.251 . S
O1190 Sm1161 2.396 . S
O1190 C1179 1.252 . S
O1191 Sm1160 2.408 . S
O1191 C1179 1.272 1_554 S
H1192 C1164 0.930 . S
H1193 C1165 0.929 . S
H1194 C1167 0.930 . S
H1195 C1168 0.929 . S
H1196 C1173 0.930 . S
H1197 C1174 0.929 . S
H1198 C1176 0.930 . S
H1199 C1177 0.929 . S
Sm1200 C1202 2.846 . S
Sm1200 O1220 2.543 . S
Sm1200 O1221 2.450 . S
Sm1200 O1222 2.681 . S
Sm1200 O1223 2.464 . S
Sm1200 O1224 2.396 . S
Sm1200 O1228 2.386 . S
Sm1200 O1231 2.408 . S
Sm1201 C1211 2.846 . S
Sm1201 O1222 2.386 . S
Sm1201 O1225 2.408 . S
Sm1201 O1226 2.543 . S
Sm1201 O1227 2.450 . S
Sm1201 O1228 2.681 . S
Sm1201 O1229 2.464 . S
Sm1201 O1230 2.396 . S
C1202 Sm1200 2.846 . S
C1202 C1203 1.506 . S
C1202 O1220 1.261 . S
C1202 O1221 1.242 . S
C1203 C1202 1.506 . S
C1203 C1204 1.358 . S
C1203 C1208 1.382 . S
C1204 C1203 1.358 . S
C1204 C1205 1.385 . S
C1204 H1232 0.930 . S
C1205 C1204 1.385 . S
C1205 C1206 1.395 . S
C1205 H1233 0.929 . S
C1206 C1205 1.395 . S
C1206 C1207 1.335 . S
C1207 C1206 1.335 . S
C1207 C1208 1.398 . S
C1207 H1234 0.930 . S
C1208 C1203 1.382 . S
C1208 C1207 1.398 . S
C1208 H1235 0.929 . S
C1209 O1222 1.271 . S
C1209 O1223 1.251 . S
C1210 O1224 1.252 . S
C1210 O1225 1.272 . S
C1211 Sm1201 2.846 . S
C1211 C1212 1.506 . S
C1211 O1226 1.261 . S
C1211 O1227 1.242 . S
C1212 C1211 1.506 . S
C1212 C1213 1.358 . S
C1212 C1217 1.382 . S
C1213 C1212 1.358 . S
C1213 C1214 1.385 . S
C1213 H1236 0.930 . S
C1214 C1213 1.385 . S
C1214 C1215 1.395 . S
C1214 H1237 0.929 . S
C1215 C1214 1.395 . S
C1215 C1216 1.335 . S
C1216 C1215 1.335 . S
C1216 C1217 1.398 . S
C1216 H1238 0.930 . S
C1217 C1212 1.382 . S
C1217 C1216 1.398 . S
C1217 H1239 0.929 . S
C1218 O1228 1.271 . S
C1218 O1229 1.251 . S
C1219 O1230 1.252 . S
C1219 O1231 1.272 . S
O1220 Sm1200 2.543 . S
O1220 C1202 1.261 . S
O1221 Sm1200 2.450 . S
O1221 C1202 1.242 . S
O1222 Sm1200 2.681 . S
O1222 Sm1201 2.386 . S
O1222 C1209 1.271 . S
O1223 Sm1200 2.464 . S
O1223 C1209 1.251 . S
O1224 Sm1200 2.396 . S
O1224 C1210 1.252 . S
O1225 Sm1201 2.408 . S
O1225 C1210 1.272 . S
O1226 Sm1201 2.543 . S
O1226 C1211 1.261 . S
O1227 Sm1201 2.450 . S
O1227 C1211 1.242 . S
O1228 Sm1200 2.386 . S
O1228 Sm1201 2.681 . S
O1228 C1218 1.271 . S
O1229 Sm1201 2.464 . S
O1229 C1218 1.251 . S
O1230 Sm1201 2.396 . S
O1230 C1219 1.252 . S
O1231 Sm1200 2.408 . S
O1231 C1219 1.272 . S
H1232 C1204 0.930 . S
H1233 C1205 0.929 . S
H1234 C1207 0.930 . S
H1235 C1208 0.929 . S
H1236 C1213 0.930 . S
H1237 C1214 0.929 . S
H1238 C1216 0.930 . S
H1239 C1217 0.929 . S
Sm1240 C1242 2.846 . S
Sm1240 O1260 2.543 . S
Sm1240 O1261 2.450 . S
Sm1240 O1262 2.681 . S
Sm1240 O1263 2.464 . S
Sm1240 O1264 2.396 . S
Sm1240 O1268 2.386 . S
Sm1240 O1271 2.408 . S
Sm1241 C1251 2.846 . S
Sm1241 O1262 2.386 . S
Sm1241 O1265 2.408 . S
Sm1241 O1266 2.543 . S
Sm1241 O1267 2.450 . S
Sm1241 O1268 2.681 . S
Sm1241 O1269 2.464 . S
Sm1241 O1270 2.396 . S
C1242 Sm1240 2.846 . S
C1242 C1243 1.506 . S
C1242 O1260 1.261 . S
C1242 O1261 1.242 . S
C1243 C1242 1.506 . S
C1243 C1244 1.358 . S
C1243 C1248 1.382 . S
C1244 C1243 1.358 . S
C1244 C1245 1.385 . S
C1244 H1272 0.930 . S
C1245 C1244 1.385 . S
C1245 C1246 1.395 . S
C1245 H1273 0.929 . S
C1246 C1245 1.395 . S
C1246 C1247 1.335 . S
C1247 C1246 1.335 . S
C1247 C1248 1.398 . S
C1247 H1274 0.930 . S
C1248 C1243 1.382 . S
C1248 C1247 1.398 . S
C1248 H1275 0.929 . S
C1249 O1262 1.271 . S
C1249 O1263 1.251 . S
C1250 O1264 1.252 . S
C1250 O1265 1.272 . S
C1251 Sm1241 2.846 . S
C1251 C1252 1.506 . S
C1251 O1266 1.261 . S
C1251 O1267 1.242 . S
C1252 C1251 1.506 . S
C1252 C1253 1.358 . S
C1252 C1257 1.382 . S
C1253 C1252 1.358 . S
C1253 C1254 1.385 . S
C1253 H1276 0.930 . S
C1254 C1253 1.385 . S
C1254 C1255 1.395 . S
C1254 H1277 0.929 . S
C1255 C1254 1.395 . S
C1255 C1256 1.335 . S
C1256 C1255 1.335 . S
C1256 C1257 1.398 . S
C1256 H1278 0.930 . S
C1257 C1252 1.382 . S
C1257 C1256 1.398 . S
C1257 H1279 0.929 . S
C1258 O1268 1.271 . S
C1258 O1269 1.251 . S
C1259 O1270 1.252 . S
C1259 O1271 1.272 . S
O1260 Sm1240 2.543 . S
O1260 C1242 1.261 . S
O1261 Sm1240 2.450 . S
O1261 C1242 1.242 . S
O1262 Sm1240 2.681 . S
O1262 Sm1241 2.386 . S
O1262 C1249 1.271 . S
O1263 Sm1240 2.464 . S
O1263 C1249 1.251 . S
O1264 Sm1240 2.396 . S
O1264 C1250 1.252 . S
O1265 Sm1241 2.408 . S
O1265 C1250 1.272 . S
O1266 Sm1241 2.543 . S
O1266 C1251 1.261 . S
O1267 Sm1241 2.450 . S
O1267 C1251 1.242 . S
O1268 Sm1240 2.386 . S
O1268 Sm1241 2.681 . S
O1268 C1258 1.271 . S
O1269 Sm1241 2.464 . S
O1269 C1258 1.251 . S
O1270 Sm1241 2.396 . S
O1270 C1259 1.252 . S
O1271 Sm1240 2.408 . S
O1271 C1259 1.272 . S
H1272 C1244 0.930 . S
H1273 C1245 0.929 . S
H1274 C1247 0.930 . S
H1275 C1248 0.929 . S
H1276 C1253 0.930 . S
H1277 C1254 0.929 . S
H1278 C1256 0.930 . S
H1279 C1257 0.929 . S
Sm1280 C1282 2.846 . S
Sm1280 O1300 2.543 . S
Sm1280 O1301 2.450 . S
Sm1280 O1302 2.681 . S
Sm1280 O1303 2.464 . S
Sm1280 O1304 2.396 . S
Sm1280 O1308 2.386 . S
Sm1280 O1311 2.408 . S
Sm1281 C1291 2.846 . S
Sm1281 O1302 2.386 . S
Sm1281 O1305 2.408 . S
Sm1281 O1306 2.543 . S
Sm1281 O1307 2.450 . S
Sm1281 O1308 2.681 . S
Sm1281 O1309 2.464 . S
Sm1281 O1310 2.396 . S
C1282 Sm1280 2.846 . S
C1282 C1283 1.506 . S
C1282 O1300 1.261 . S
C1282 O1301 1.242 . S
C1283 C1282 1.506 . S
C1283 C1284 1.358 . S
C1283 C1288 1.382 . S
C1284 C1283 1.358 . S
C1284 C1285 1.385 . S
C1284 H1312 0.930 . S
C1285 C1284 1.385 . S
C1285 C1286 1.395 . S
C1285 H1313 0.929 . S
C1286 C1285 1.395 . S
C1286 C1287 1.335 . S
C1287 C1286 1.335 . S
C1287 C1288 1.398 . S
C1287 H1314 0.930 . S
C1288 C1283 1.382 . S
C1288 C1287 1.398 . S
C1288 H1315 0.929 . S
C1289 O1302 1.271 . S
C1289 O1303 1.251 . S
C1290 O1304 1.252 . S
C1290 O1305 1.272 . S
C1291 Sm1281 2.846 . S
C1291 C1292 1.506 . S
C1291 O1306 1.261 . S
C1291 O1307 1.242 . S
C1292 C1291 1.506 . S
C1292 C1293 1.358 . S
C1292 C1297 1.382 . S
C1293 C1292 1.358 . S
C1293 C1294 1.385 . S
C1293 H1316 0.930 . S
C1294 C1293 1.385 . S
C1294 C1295 1.395 . S
C1294 H1317 0.929 . S
C1295 C1294 1.395 . S
C1295 C1296 1.335 . S
C1296 C1295 1.335 . S
C1296 C1297 1.398 . S
C1296 H1318 0.930 . S
C1297 C1292 1.382 . S
C1297 C1296 1.398 . S
C1297 H1319 0.929 . S
C1298 O1308 1.271 . S
C1298 O1309 1.251 . S
C1299 O1310 1.252 . S
C1299 O1311 1.272 . S
O1300 Sm1280 2.543 . S
O1300 C1282 1.261 . S
O1301 Sm1280 2.450 . S
O1301 C1282 1.242 . S
O1302 Sm1280 2.681 . S
O1302 Sm1281 2.386 . S
O1302 C1289 1.271 . S
O1303 Sm1280 2.464 . S
O1303 C1289 1.251 . S
O1304 Sm1280 2.396 . S
O1304 C1290 1.252 . S
O1305 Sm1281 2.408 . S
O1305 C1290 1.272 . S
O1306 Sm1281 2.543 . S
O1306 C1291 1.261 . S
O1307 Sm1281 2.450 . S
O1307 C1291 1.242 . S
O1308 Sm1280 2.386 . S
O1308 Sm1281 2.681 . S
O1308 C1298 1.271 . S
O1309 Sm1281 2.464 . S
O1309 C1298 1.251 . S
O1310 Sm1281 2.396 . S
O1310 C1299 1.252 . S
O1311 Sm1280 2.408 . S
O1311 C1299 1.272 . S
H1312 C1284 0.930 . S
H1313 C1285 0.929 . S
H1314 C1287 0.930 . S
H1315 C1288 0.929 . S
H1316 C1293 0.930 . S
H1317 C1294 0.929 . S
H1318 C1296 0.930 . S
H1319 C1297 0.929 . S
Sm1320 C1322 2.846 . S
Sm1320 O1340 2.543 . S
Sm1320 O1341 2.450 . S
Sm1320 O1342 2.681 . S
Sm1320 O1343 2.464 . S
Sm1320 O1344 2.396 . S
Sm1320 O1348 2.386 . S
Sm1320 O1351 2.408 . S
Sm1321 C1331 2.846 . S
Sm1321 O1342 2.386 . S
Sm1321 O1345 2.408 . S
Sm1321 O1346 2.543 . S
Sm1321 O1347 2.450 . S
Sm1321 O1348 2.681 . S
Sm1321 O1349 2.464 . S
Sm1321 O1350 2.396 . S
C1322 Sm1320 2.846 . S
C1322 C1323 1.506 . S
C1322 O1340 1.261 . S
C1322 O1341 1.242 . S
C1323 C1322 1.506 . S
C1323 C1324 1.358 . S
C1323 C1328 1.382 . S
C1324 C1323 1.358 . S
C1324 C1325 1.385 . S
C1324 H1352 0.930 . S
C1325 C1324 1.385 . S
C1325 C1326 1.395 . S
C1325 H1353 0.929 . S
C1326 C1325 1.395 . S
C1326 C1327 1.335 . S
C1327 C1326 1.335 . S
C1327 C1328 1.398 . S
C1327 H1354 0.930 . S
C1328 C1323 1.382 . S
C1328 C1327 1.398 . S
C1328 H1355 0.929 . S
C1329 O1342 1.271 . S
C1329 O1343 1.251 . S
C1330 O1344 1.252 . S
C1330 O1345 1.272 . S
C1331 Sm1321 2.846 . S
C1331 C1332 1.506 . S
C1331 O1346 1.261 . S
C1331 O1347 1.242 . S
C1332 C1331 1.506 . S
C1332 C1333 1.358 1_455 S
C1332 C1337 1.382 . S
C1333 C1332 1.358 1_655 S
C1333 C1334 1.385 . S
C1333 H1356 0.930 . S
C1334 C1333 1.385 . S
C1334 C1335 1.395 . S
C1334 H1357 0.929 . S
C1335 C1334 1.395 . S
C1335 C1336 1.335 1_655 S
C1336 C1335 1.335 1_455 S
C1336 C1337 1.398 . S
C1336 H1358 0.930 . S
C1337 C1332 1.382 . S
C1337 C1336 1.398 . S
C1337 H1359 0.929 . S
C1338 O1348 1.271 . S
C1338 O1349 1.251 . S
C1339 O1350 1.252 . S
C1339 O1351 1.272 . S
O1340 Sm1320 2.543 . S
O1340 C1322 1.261 . S
O1341 Sm1320 2.450 . S
O1341 C1322 1.242 . S
O1342 Sm1320 2.681 . S
O1342 Sm1321 2.386 . S
O1342 C1329 1.271 . S
O1343 Sm1320 2.464 . S
O1343 C1329 1.251 . S
O1344 Sm1320 2.396 . S
O1344 C1330 1.252 . S
O1345 Sm1321 2.408 . S
O1345 C1330 1.272 . S
O1346 Sm1321 2.543 . S
O1346 C1331 1.261 . S
O1347 Sm1321 2.450 . S
O1347 C1331 1.242 . S
O1348 Sm1320 2.386 . S
O1348 Sm1321 2.681 . S
O1348 C1338 1.271 . S
O1349 Sm1321 2.464 . S
O1349 C1338 1.251 . S
O1350 Sm1321 2.396 . S
O1350 C1339 1.252 . S
O1351 Sm1320 2.408 . S
O1351 C1339 1.272 . S
H1352 C1324 0.930 . S
H1353 C1325 0.929 . S
H1354 C1327 0.930 . S
H1355 C1328 0.929 . S
H1356 C1333 0.930 . S
H1357 C1334 0.929 . S
H1358 C1336 0.930 . S
H1359 C1337 0.929 . S
Sm1360 C1362 2.846 . S
Sm1360 O1380 2.543 . S
Sm1360 O1381 2.450 . S
Sm1360 O1382 2.681 . S
Sm1360 O1383 2.464 . S
Sm1360 O1384 2.396 . S
Sm1360 O1388 2.386 . S
Sm1360 O1391 2.408 . S
Sm1361 C1371 2.846 . S
Sm1361 O1382 2.386 . S
Sm1361 O1385 2.408 . S
Sm1361 O1386 2.543 . S
Sm1361 O1387 2.450 . S
Sm1361 O1388 2.681 . S
Sm1361 O1389 2.464 . S
Sm1361 O1390 2.396 . S
C1362 Sm1360 2.846 . S
C1362 C1363 1.506 . S
C1362 O1380 1.261 . S
C1362 O1381 1.242 . S
C1363 C1362 1.506 . S
C1363 C1364 1.358 . S
C1363 C1368 1.382 . S
C1364 C1363 1.358 . S
C1364 C1365 1.385 . S
C1364 H1392 0.930 . S
C1365 C1364 1.385 . S
C1365 C1366 1.395 . S
C1365 H1393 0.929 . S
C1366 C1365 1.395 . S
C1366 C1367 1.335 . S
C1367 C1366 1.335 . S
C1367 C1368 1.398 . S
C1367 H1394 0.930 . S
C1368 C1363 1.382 . S
C1368 C1367 1.398 . S
C1368 H1395 0.929 . S
C1369 O1382 1.271 . S
C1369 O1383 1.251 . S
C1370 O1384 1.252 . S
C1370 O1385 1.272 . S
C1371 Sm1361 2.846 . S
C1371 C1372 1.506 . S
C1371 O1386 1.261 . S
C1371 O1387 1.242 . S
C1372 C1371 1.506 . S
C1372 C1373 1.358 . S
C1372 C1377 1.382 . S
C1373 C1372 1.358 . S
C1373 C1374 1.385 . S
C1373 H1396 0.930 . S
C1374 C1373 1.385 . S
C1374 C1375 1.395 . S
C1374 H1397 0.929 . S
C1375 C1374 1.395 . S
C1375 C1376 1.335 . S
C1376 C1375 1.335 . S
C1376 C1377 1.398 . S
C1376 H1398 0.930 . S
C1377 C1372 1.382 . S
C1377 C1376 1.398 . S
C1377 H1399 0.929 . S
C1378 O1388 1.271 . S
C1378 O1389 1.251 . S
C1379 O1390 1.252 . S
C1379 O1391 1.272 . S
O1380 Sm1360 2.543 . S
O1380 C1362 1.261 . S
O1381 Sm1360 2.450 . S
O1381 C1362 1.242 . S
O1382 Sm1360 2.681 . S
O1382 Sm1361 2.386 . S
O1382 C1369 1.271 . S
O1383 Sm1360 2.464 . S
O1383 C1369 1.251 . S
O1384 Sm1360 2.396 . S
O1384 C1370 1.252 . S
O1385 Sm1361 2.408 . S
O1385 C1370 1.272 . S
O1386 Sm1361 2.543 . S
O1386 C1371 1.261 . S
O1387 Sm1361 2.450 . S
O1387 C1371 1.242 . S
O1388 Sm1360 2.386 . S
O1388 Sm1361 2.681 . S
O1388 C1378 1.271 . S
O1389 Sm1361 2.464 . S
O1389 C1378 1.251 . S
O1390 Sm1361 2.396 . S
O1390 C1379 1.252 . S
O1391 Sm1360 2.408 . S
O1391 C1379 1.272 . S
H1392 C1364 0.930 . S
H1393 C1365 0.929 . S
H1394 C1367 0.930 . S
H1395 C1368 0.929 . S
H1396 C1373 0.930 . S
H1397 C1374 0.929 . S
H1398 C1376 0.930 . S
H1399 C1377 0.929 . S
Sm1400 C1402 2.846 . S
Sm1400 O1420 2.543 . S
Sm1400 O1421 2.450 . S
Sm1400 O1422 2.681 . S
Sm1400 O1423 2.464 . S
Sm1400 O1424 2.396 . S
Sm1400 O1428 2.386 . S
Sm1400 O1431 2.408 . S
Sm1401 C1411 2.846 . S
Sm1401 O1422 2.386 . S
Sm1401 O1425 2.408 . S
Sm1401 O1426 2.543 . S
Sm1401 O1427 2.450 . S
Sm1401 O1428 2.681 . S
Sm1401 O1429 2.464 . S
Sm1401 O1430 2.396 . S
C1402 Sm1400 2.846 . S
C1402 C1403 1.506 . S
C1402 O1420 1.261 . S
C1402 O1421 1.242 . S
C1403 C1402 1.506 . S
C1403 C1404 1.358 . S
C1403 C1408 1.382 . S
C1404 C1403 1.358 . S
C1404 C1405 1.385 . S
C1404 H1432 0.930 . S
C1405 C1404 1.385 . S
C1405 C1406 1.395 . S
C1405 H1433 0.929 . S
C1406 C1405 1.395 . S
C1406 C1407 1.335 . S
C1407 C1406 1.335 . S
C1407 C1408 1.398 . S
C1407 H1434 0.930 . S
C1408 C1403 1.382 . S
C1408 C1407 1.398 . S
C1408 H1435 0.929 . S
C1409 O1422 1.271 . S
C1409 O1423 1.251 . S
C1410 O1424 1.252 . S
C1410 O1425 1.272 . S
C1411 Sm1401 2.846 . S
C1411 C1412 1.506 . S
C1411 O1426 1.261 . S
C1411 O1427 1.242 . S
C1412 C1411 1.506 . S
C1412 C1413 1.358 1_565 S
C1412 C1417 1.382 . S
C1413 C1412 1.358 1_545 S
C1413 C1414 1.385 . S
C1413 H1436 0.930 . S
C1414 C1413 1.385 . S
C1414 C1415 1.395 . S
C1414 H1437 0.929 . S
C1415 C1414 1.395 . S
C1415 C1416 1.335 1_545 S
C1416 C1415 1.335 1_565 S
C1416 C1417 1.398 . S
C1416 H1438 0.930 . S
C1417 C1412 1.382 . S
C1417 C1416 1.398 . S
C1417 H1439 0.929 . S
C1418 O1428 1.271 . S
C1418 O1429 1.251 . S
C1419 O1430 1.252 . S
C1419 O1431 1.272 . S
O1420 Sm1400 2.543 . S
O1420 C1402 1.261 . S
O1421 Sm1400 2.450 . S
O1421 C1402 1.242 . S
O1422 Sm1400 2.681 . S
O1422 Sm1401 2.386 . S
O1422 C1409 1.271 . S
O1423 Sm1400 2.464 . S
O1423 C1409 1.251 . S
O1424 Sm1400 2.396 . S
O1424 C1410 1.252 . S
O1425 Sm1401 2.408 . S
O1425 C1410 1.272 . S
O1426 Sm1401 2.543 . S
O1426 C1411 1.261 . S
O1427 Sm1401 2.450 . S
O1427 C1411 1.242 . S
O1428 Sm1400 2.386 . S
O1428 Sm1401 2.681 . S
O1428 C1418 1.271 . S
O1429 Sm1401 2.464 . S
O1429 C1418 1.251 . S
O1430 Sm1401 2.396 . S
O1430 C1419 1.252 . S
O1431 Sm1400 2.408 . S
O1431 C1419 1.272 . S
H1432 C1404 0.930 . S
H1433 C1405 0.929 . S
H1434 C1407 0.930 . S
H1435 C1408 0.929 . S
H1436 C1413 0.930 . S
H1437 C1414 0.929 . S
H1438 C1416 0.930 . S
H1439 C1417 0.929 . S
C1440 C1441 1.363 . S
C1440 C1446 1.379 . S
C1440 N1448 1.356 . S
C1441 C1440 1.363 . S
C1441 C1447 1.363 . S
C1442 C1443 1.363 . S
C1442 C1447 1.379 . S
C1442 N1449 1.356 1_545 S
C1443 C1442 1.363 . S
C1443 C1446 1.363 . S
N1444 C1446 1.356 . S
N1444 H1456 0.984 . S
N1444 H1457 0.985 1_545 S
N1445 C1447 1.356 . S
N1445 H1450 0.984 . S
N1445 H1451 0.985 . S
C1446 C1440 1.379 . S
C1446 C1443 1.363 . S
C1446 N1444 1.356 . S
C1447 C1441 1.363 . S
C1447 C1442 1.379 . S
C1447 N1445 1.356 . S
N1448 C1440 1.356 . S
N1448 H1454 0.984 . S
N1448 H1455 0.984 . S
N1449 C1442 1.356 1_565 S
N1449 H1452 0.984 . S
N1449 H1453 0.985 . S
H1450 N1445 0.984 . S
H1451 N1445 0.985 . S
H1452 N1449 0.984 . S
H1453 N1449 0.985 . S
H1454 N1448 0.984 . S
H1455 N1448 0.984 . S
H1456 N1444 0.984 . S
H1457 N1444 0.985 1_565 S
C1458 C1459 1.363 . S
C1458 C1464 1.379 . S
C1458 N1466 1.356 . S
C1459 C1458 1.363 . S
C1459 C1465 1.363 . S
C1460 C1461 1.363 . S
C1460 C1465 1.379 . S
C1460 N1467 1.356 . S
C1461 C1460 1.363 . S
C1461 C1464 1.363 . S
N1462 C1464 1.356 . S
N1462 H1474 0.984 . S
N1462 H1475 0.985 . S
N1463 C1465 1.356 1_455 S
N1463 H1468 0.984 . S
N1463 H1469 0.985 1_455 S
C1464 C1458 1.379 . S
C1464 C1461 1.363 . S
C1464 N1462 1.356 . S
C1465 C1459 1.363 . S
C1465 C1460 1.379 . S
C1465 N1463 1.356 1_655 S
N1466 C1458 1.356 . S
N1466 H1472 0.984 . S
N1466 H1473 0.984 1_655 S
N1467 C1460 1.356 . S
N1467 H1470 0.984 1_545 S
N1467 H1471 0.985 1_545 S
H1468 N1463 0.984 . S
H1469 N1463 0.985 1_655 S
H1470 N1467 0.984 1_565 S
H1471 N1467 0.985 1_565 S
H1472 N1466 0.984 . S
H1473 N1466 0.984 1_455 S
H1474 N1462 0.984 . S
H1475 N1462 0.985 . S
C1476 C1477 1.363 . S
C1476 C1482 1.379 . S
C1476 N1484 1.356 . S
C1477 C1476 1.363 . S
C1477 C1483 1.363 . S
C1478 C1479 1.363 . S
C1478 C1483 1.379 . S
C1478 N1485 1.356 . S
C1479 C1478 1.363 . S
C1479 C1482 1.363 . S
N1480 C1482 1.356 . S
N1480 H1492 0.984 . S
N1480 H1493 0.985 . S
N1481 C1483 1.356 . S
N1481 H1486 0.984 . S
N1481 H1487 0.985 . S
C1482 C1476 1.379 . S
C1482 C1479 1.363 . S
C1482 N1480 1.356 . S
C1483 C1477 1.363 . S
C1483 C1478 1.379 . S
C1483 N1481 1.356 . S
N1484 C1476 1.356 . S
N1484 H1490 0.984 1_655 S
N1484 H1491 0.984 1_655 S
N1485 C1478 1.356 . S
N1485 H1488 0.984 . S
N1485 H1489 0.985 . S
H1486 N1481 0.984 . S
H1487 N1481 0.985 . S
H1488 N1485 0.984 . S
H1489 N1485 0.985 . S
H1490 N1484 0.984 1_455 S
H1491 N1484 0.984 1_455 S
H1492 N1480 0.984 . S
H1493 N1480 0.985 . S
C1494 C1495 1.363 . S
C1494 C1500 1.379 . S
C1494 N1502 1.356 . S
C1495 C1494 1.363 . S
C1495 C1501 1.363 . S
C1496 C1497 1.363 . S
C1496 C1501 1.379 . S
C1496 N1503 1.356 1_455 S
C1497 C1496 1.363 . S
C1497 C1500 1.363 . S
N1498 C1500 1.356 . S
N1498 H1510 0.984 . S
N1498 H1511 0.985 1_455 S
N1499 C1501 1.356 . S
N1499 H1504 0.984 . S
N1499 H1505 0.985 . S
C1500 C1494 1.379 . S
C1500 C1497 1.363 . S
C1500 N1498 1.356 . S
C1501 C1495 1.363 . S
C1501 C1496 1.379 . S
C1501 N1499 1.356 . S
N1502 C1494 1.356 . S
N1502 H1508 0.984 . S
N1502 H1509 0.984 . S
N1503 C1496 1.356 1_655 S
N1503 H1506 0.984 . S
N1503 H1507 0.985 . S
H1504 N1499 0.984 . S
H1505 N1499 0.985 . S
H1506 N1503 0.984 . S
H1507 N1503 0.985 . S
H1508 N1502 0.984 . S
H1509 N1502 0.984 . S
H1510 N1498 0.984 . S
H1511 N1498 0.985 1_655 S
C1512 C1513 1.363 . S
C1512 C1518 1.379 . S
C1512 N1520 1.356 . S
C1513 C1512 1.363 . S
C1513 C1519 1.363 . S
C1514 C1515 1.363 . S
C1514 C1519 1.379 . S
C1514 N1521 1.356 . S
C1515 C1514 1.363 . S
C1515 C1518 1.363 . S
N1516 C1518 1.356 1_545 S
N1516 H1528 0.984 . S
N1516 H1529 0.985 . S
N1517 C1519 1.356 . S
N1517 H1522 0.984 . S
N1517 H1523 0.985 . S
C1518 C1512 1.379 . S
C1518 C1515 1.363 . S
C1518 N1516 1.356 1_565 S
C1519 C1513 1.363 . S
C1519 C1514 1.379 . S
C1519 N1517 1.356 . S
N1520 C1512 1.356 . S
N1520 H1526 0.984 . S
N1520 H1527 0.984 . S
N1521 C1514 1.356 . S
N1521 H1524 0.984 . S
N1521 H1525 0.985 . S
H1522 N1517 0.984 . S
H1523 N1517 0.985 . S
H1524 N1521 0.984 . S
H1525 N1521 0.985 . S
H1526 N1520 0.984 . S
H1527 N1520 0.984 . S
H1528 N1516 0.984 . S
H1529 N1516 0.985 . S
C1530 C1531 1.363 . S
C1530 C1536 1.379 . S
C1530 N1538 1.356 . S
C1531 C1530 1.363 . S
C1531 C1537 1.363 . S
C1532 C1533 1.363 . S
C1532 C1537 1.379 . S
C1532 N1539 1.356 1_565 S
C1533 C1532 1.363 . S
C1533 C1536 1.363 . S
N1534 C1536 1.356 . S
N1534 H1546 0.984 . S
N1534 H1547 0.985 1_565 S
N1535 C1537 1.356 . S
N1535 H1540 0.984 1_455 S
N1535 H1541 0.985 . S
C1536 C1530 1.379 . S
C1536 C1533 1.363 . S
C1536 N1534 1.356 . S
C1537 C1531 1.363 . S
C1537 C1532 1.379 . S
C1537 N1535 1.356 . S
N1538 C1530 1.356 . S
N1538 H1544 0.984 . S
N1538 H1545 0.984 . S
N1539 C1532 1.356 1_545 S
N1539 H1542 0.984 . S
N1539 H1543 0.985 . S
H1540 N1535 0.984 1_655 S
H1541 N1535 0.985 . S
H1542 N1539 0.984 . S
H1543 N1539 0.985 . S
H1544 N1538 0.984 . S
H1545 N1538 0.984 . S
H1546 N1534 0.984 . S
H1547 N1534 0.985 1_545 S
C1548 C1549 1.363 . S
C1548 C1554 1.379 . S
C1548 N1556 1.356 . S
C1549 C1548 1.363 . S
C1549 C1555 1.363 . S
C1550 C1551 1.363 . S
C1550 C1555 1.379 . S
C1550 N1557 1.356 1_565 S
C1551 C1550 1.363 . S
C1551 C1554 1.363 . S
N1552 C1554 1.356 . S
N1552 H1564 0.984 . S
N1552 H1565 0.985 1_565 S
N1553 C1555 1.356 . S
N1553 H1558 0.984 . S
N1553 H1559 0.985 . S
C1554 C1548 1.379 . S
C1554 C1551 1.363 . S
C1554 N1552 1.356 . S
C1555 C1549 1.363 . S
C1555 C1550 1.379 . S
C1555 N1553 1.356 . S
N1556 C1548 1.356 . S
N1556 H1562 0.984 . S
N1556 H1563 0.984 . S
N1557 C1550 1.356 1_545 S
N1557 H1560 0.984 . S
N1557 H1561 0.985 1_545 S
H1558 N1553 0.984 . S
H1559 N1553 0.985 . S
H1560 N1557 0.984 . S
H1561 N1557 0.985 1_565 S
H1562 N1556 0.984 . S
H1563 N1556 0.984 . S
H1564 N1552 0.984 . S
H1565 N1552 0.985 1_545 S
C1566 C1567 1.363 . S
C1566 C1572 1.379 . S
C1566 N1574 1.356 . S
C1567 C1566 1.363 . S
C1567 C1573 1.363 . S
C1568 C1569 1.363 . S
C1568 C1573 1.379 . S
C1568 N1575 1.356 1_455 S
C1569 C1568 1.363 . S
C1569 C1572 1.363 . S
N1570 C1572 1.356 . S
N1570 H1582 0.984 . S
N1570 H1583 0.985 1_455 S
N1571 C1573 1.356 1_545 S
N1571 H1576 0.984 . S
N1571 H1577 0.985 . S
C1572 C1566 1.379 . S
C1572 C1569 1.363 . S
C1572 N1570 1.356 . S
C1573 C1567 1.363 . S
C1573 C1568 1.379 . S
C1573 N1571 1.356 1_565 S
N1574 C1566 1.356 . S
N1574 H1580 0.984 . S
N1574 H1581 0.984 . S
N1575 C1568 1.356 1_655 S
N1575 H1578 0.984 . S
N1575 H1579 0.985 . S
H1576 N1571 0.984 . S
H1577 N1571 0.985 . S
H1578 N1575 0.984 . S
H1579 N1575 0.985 . S
H1580 N1574 0.984 . S
H1581 N1574 0.984 . S
H1582 N1570 0.984 . S
H1583 N1570 0.985 1_655 S
C1584 C1585 1.363 . S
C1584 C1590 1.379 . S
C1584 N1592 1.356 . S
C1585 C1584 1.363 . S
C1585 C1591 1.363 . S
C1586 C1587 1.363 . S
C1586 C1591 1.379 . S
C1586 N1593 1.356 . S
C1587 C1586 1.363 . S
C1587 C1590 1.363 . S
N1588 C1590 1.356 . S
N1588 H1600 0.984 . S
N1588 H1601 0.985 . S
N1589 C1591 1.356 . S
N1589 H1594 0.984 . S
N1589 H1595 0.985 . S
C1590 C1584 1.379 . S
C1590 C1587 1.363 . S
C1590 N1588 1.356 . S
C1591 C1585 1.363 . S
C1591 C1586 1.379 . S
C1591 N1589 1.356 . S
N1592 C1584 1.356 . S
N1592 H1598 0.984 1_455 S
N1592 H1599 0.984 1_455 S
N1593 C1586 1.356 . S
N1593 H1596 0.984 . S
N1593 H1597 0.985 . S
H1594 N1589 0.984 . S
H1595 N1589 0.985 . S
H1596 N1593 0.984 . S
H1597 N1593 0.985 . S
H1598 N1592 0.984 1_655 S
H1599 N1592 0.984 1_655 S
H1600 N1588 0.984 . S
H1601 N1588 0.985 . S
C1602 C1603 1.363 . S
C1602 C1608 1.379 . S
C1602 N1610 1.356 . S
C1603 C1602 1.363 . S
C1603 C1609 1.363 . S
C1604 C1605 1.363 . S
C1604 C1609 1.379 . S
C1604 N1611 1.356 1_655 S
C1605 C1604 1.363 . S
C1605 C1608 1.363 . S
N1606 C1608 1.356 . S
N1606 H1618 0.984 . S
N1606 H1619 0.985 1_655 S
N1607 C1609 1.356 . S
N1607 H1612 0.984 . S
N1607 H1613 0.985 . S
C1608 C1602 1.379 . S
C1608 C1605 1.363 . S
C1608 N1606 1.356 . S
C1609 C1603 1.363 . S
C1609 C1604 1.379 . S
C1609 N1607 1.356 . S
N1610 C1602 1.356 . S
N1610 H1616 0.984 . S
N1610 H1617 0.984 . S
N1611 C1604 1.356 1_455 S
N1611 H1614 0.984 . S
N1611 H1615 0.985 . S
H1612 N1607 0.984 . S
H1613 N1607 0.985 . S
H1614 N1611 0.984 . S
H1615 N1611 0.985 . S
H1616 N1610 0.984 . S
H1617 N1610 0.984 . S
H1618 N1606 0.984 . S
H1619 N1606 0.985 1_455 S
C1620 C1621 1.363 . S
C1620 C1626 1.379 . S
C1620 N1628 1.356 . S
C1621 C1620 1.363 . S
C1621 C1627 1.363 . S
C1622 C1623 1.363 . S
C1622 C1627 1.379 . S
C1622 N1629 1.343 1_545 S
C1623 C1622 1.363 . S
C1623 C1626 1.363 . S
N1624 C1626 1.356 . S
N1624 H1636 0.984 . S
N1624 H1637 0.985 . S
N1625 C1627 1.356 . S
N1625 H1630 0.984 . S
N1625 H1631 0.985 . S
C1626 C1620 1.379 . S
C1626 C1623 1.363 . S
C1626 N1624 1.356 . S
C1627 C1621 1.363 . S
C1627 C1622 1.379 . S
C1627 N1625 1.356 . S
N1628 C1620 1.356 . S
N1628 H1634 0.984 . S
N1628 H1635 0.984 . S
N1629 C1622 1.343 1_565 S
N1629 H1632 0.999 . S
N1629 H1633 0.984 . S
H1630 N1625 0.984 . S
H1631 N1625 0.985 . S
H1632 N1629 0.999 . S
H1633 N1629 0.984 . S
H1634 N1628 0.984 . S
H1635 N1628 0.984 . S
H1636 N1624 0.984 . S
H1637 N1624 0.985 . S
C1638 C1639 1.363 . S
C1638 C1644 1.379 . S
C1638 N1646 1.356 . S
C1639 C1638 1.363 . S
C1639 C1645 1.363 . S
C1640 C1641 1.363 . S
C1640 C1645 1.379 . S
C1640 N1647 1.356 . S
C1641 C1640 1.363 . S
C1641 C1644 1.363 . S
N1642 C1644 1.356 . S
N1642 H1654 0.984 . S
N1642 H1655 0.985 . S
N1643 C1645 1.356 1_565 S
N1643 H1648 0.984 . S
N1643 H1649 0.985 . S
C1644 C1638 1.379 . S
C1644 C1641 1.363 . S
C1644 N1642 1.356 . S
C1645 C1639 1.363 . S
C1645 C1640 1.379 . S
C1645 N1643 1.356 1_545 S
N1646 C1638 1.356 . S
N1646 H1652 0.984 . S
N1646 H1653 0.984 1_545 S
N1647 C1640 1.356 . S
N1647 H1650 0.984 1_655 S
N1647 H1651 0.985 . S
H1648 N1643 0.984 . S
H1649 N1643 0.985 . S
H1650 N1647 0.984 1_455 S
H1651 N1647 0.985 . S
H1652 N1646 0.984 . S
H1653 N1646 0.984 1_565 S
H1654 N1642 0.984 . S
H1655 N1642 0.985 . S
C1656 C1657 1.363 . S
C1656 C1662 1.379 . S
C1656 N1664 1.356 . S
C1657 C1656 1.363 . S
C1657 C1663 1.363 . S
C1658 C1659 1.363 . S
C1658 C1663 1.379 . S
C1658 N1665 1.356 . S
C1659 C1658 1.363 . S
C1659 C1662 1.363 . S
N1660 C1662 1.356 . S
N1660 H1672 0.984 . S
N1660 H1673 0.985 . S
N1661 C1663 1.356 . S
N1661 H1666 0.984 . S
N1661 H1667 0.985 . S
C1662 C1656 1.379 . S
C1662 C1659 1.363 . S
C1662 N1660 1.356 . S
C1663 C1657 1.363 . S
C1663 C1658 1.379 . S
C1663 N1661 1.356 . S
N1664 C1656 1.356 . S
N1664 H1670 0.984 . S
N1664 H1671 0.984 . S
N1665 C1658 1.356 . S
N1665 H1668 0.984 . S
N1665 H1669 0.985 . S
H1666 N1661 0.984 . S
H1667 N1661 0.985 . S
H1668 N1665 0.984 . S
H1669 N1665 0.985 . S
H1670 N1664 0.984 . S
H1671 N1664 0.984 . S
H1672 N1660 0.984 . S
H1673 N1660 0.985 . S
C1674 C1675 1.363 . S
C1674 C1680 1.379 . S
C1674 N1682 1.356 . S
C1675 C1674 1.363 . S
C1675 C1681 1.363 . S
C1676 C1677 1.363 . S
C1676 C1681 1.379 . S
C1676 N1683 1.356 . S
C1677 C1676 1.363 . S
C1677 C1680 1.363 . S
N1678 C1680 1.356 . S
N1678 H1690 0.984 . S
N1678 H1691 0.985 . S
N1679 C1681 1.356 . S
N1679 H1684 0.984 . S
N1679 H1685 0.985 . S
C1680 C1674 1.379 . S
C1680 C1677 1.363 . S
C1680 N1678 1.356 . S
C1681 C1675 1.363 . S
C1681 C1676 1.379 . S
C1681 N1679 1.356 . S
N1682 C1674 1.356 . S
N1682 H1688 0.984 . S
N1682 H1689 0.984 . S
N1683 C1676 1.356 . S
N1683 H1686 0.984 . S
N1683 H1687 0.985 . S
H1684 N1679 0.984 . S
H1685 N1679 0.985 . S
H1686 N1683 0.984 . S
H1687 N1683 0.985 . S
H1688 N1682 0.984 . S
H1689 N1682 0.984 . S
H1690 N1678 0.984 . S
H1691 N1678 0.985 . S
C1692 C1693 1.363 . S
C1692 C1698 1.379 . S
C1692 N1700 1.356 . S
C1693 C1692 1.363 . S
C1693 C1699 1.363 . S
C1694 C1695 1.363 . S
C1694 C1699 1.379 . S
C1694 N1701 1.356 . S
C1695 C1694 1.363 . S
C1695 C1698 1.363 . S
N1696 C1698 1.356 . S
N1696 H1708 0.984 . S
N1696 H1709 0.985 . S
N1697 C1699 1.356 . S
N1697 H1702 0.984 . S
N1697 H1703 0.985 . S
C1698 C1692 1.379 . S
C1698 C1695 1.363 . S
C1698 N1696 1.356 . S
C1699 C1693 1.363 . S
C1699 C1694 1.379 . S
C1699 N1697 1.356 . S
N1700 C1692 1.356 . S
N1700 H1706 0.984 . S
N1700 H1707 0.984 . S
N1701 C1694 1.356 . S
N1701 H1704 0.984 . S
N1701 H1705 0.985 . S
H1702 N1697 0.984 . S
H1703 N1697 0.985 . S
H1704 N1701 0.984 . S
H1705 N1701 0.985 . S
H1706 N1700 0.984 . S
H1707 N1700 0.984 . S
H1708 N1696 0.984 . S
H1709 N1696 0.985 . S
C1710 C1711 1.363 . S
C1710 C1716 1.379 . S
C1710 N1718 1.356 . S
C1711 C1710 1.363 . S
C1711 C1717 1.363 . S
C1712 C1713 1.363 . S
C1712 C1717 1.379 . S
C1712 N1719 1.356 . S
C1713 C1712 1.363 . S
C1713 C1716 1.363 . S
N1714 C1716 1.356 . S
N1714 H1726 0.984 . S
N1714 H1727 0.985 . S
N1715 C1717 1.356 . S
N1715 H1720 0.984 . S
N1715 H1721 0.985 . S
C1716 C1710 1.379 . S
C1716 C1713 1.363 . S
C1716 N1714 1.356 . S
C1717 C1711 1.363 . S
C1717 C1712 1.379 . S
C1717 N1715 1.356 . S
N1718 C1710 1.356 . S
N1718 H1724 0.984 . S
N1718 H1725 0.984 . S
N1719 C1712 1.356 . S
N1719 H1722 0.984 . S
N1719 H1723 0.985 . S
H1720 N1715 0.984 . S
H1721 N1715 0.985 . S
H1722 N1719 0.984 . S
H1723 N1719 0.985 . S
H1724 N1718 0.984 . S
H1725 N1718 0.984 . S
H1726 N1714 0.984 . S
H1727 N1714 0.985 . S
C1728 C1729 1.363 . S
C1728 C1734 1.379 . S
C1728 N1736 1.356 . S
C1729 C1728 1.363 . S
C1729 C1735 1.363 . S
C1730 C1731 1.363 . S
C1730 C1735 1.379 . S
C1730 N1737 1.356 . S
C1731 C1730 1.363 . S
C1731 C1734 1.363 . S
N1732 C1734 1.356 . S
N1732 H1744 0.984 . S
N1732 H1745 0.985 . S
N1733 C1735 1.356 . S
N1733 H1738 0.984 . S
N1733 H1739 0.985 . S
C1734 C1728 1.379 . S
C1734 C1731 1.363 . S
C1734 N1732 1.356 . S
C1735 C1729 1.363 . S
C1735 C1730 1.379 . S
C1735 N1733 1.356 . S
N1736 C1728 1.356 . S
N1736 H1742 0.984 . S
N1736 H1743 0.984 . S
N1737 C1730 1.356 . S
N1737 H1740 0.984 . S
N1737 H1741 0.985 . S
H1738 N1733 0.984 . S
H1739 N1733 0.985 . S
H1740 N1737 0.984 . S
H1741 N1737 0.985 . S
H1742 N1736 0.984 . S
H1743 N1736 0.984 . S
H1744 N1732 0.984 . S
H1745 N1732 0.985 . S
C1746 C1747 1.363 . S
C1746 C1752 1.379 . S
C1746 N1754 1.356 . S
C1747 C1746 1.363 . S
C1747 C1753 1.363 . S
C1748 C1749 1.363 . S
C1748 C1753 1.379 . S
C1748 N1755 1.356 . S
C1749 C1748 1.363 . S
C1749 C1752 1.363 . S
N1750 C1752 1.356 . S
N1750 H1762 0.984 . S
N1750 H1763 0.985 . S
N1751 C1753 1.356 . S
N1751 H1756 0.984 . S
N1751 H1757 0.985 . S
C1752 C1746 1.379 . S
C1752 C1749 1.363 . S
C1752 N1750 1.356 . S
C1753 C1747 1.363 . S
C1753 C1748 1.379 . S
C1753 N1751 1.356 . S
N1754 C1746 1.356 . S
N1754 H1760 0.984 . S
N1754 H1761 0.984 . S
N1755 C1748 1.356 . S
N1755 H1758 0.984 . S
N1755 H1759 0.985 . S
H1756 N1751 0.984 . S
H1757 N1751 0.985 . S
H1758 N1755 0.984 . S
H1759 N1755 0.985 . S
H1760 N1754 0.984 . S
H1761 N1754 0.984 . S
H1762 N1750 0.984 . S
H1763 N1750 0.985 . S
C1764 C1765 1.363 . S
C1764 C1770 1.379 . S
C1764 N1772 1.356 . S
C1765 C1764 1.363 . S
C1765 C1771 1.363 . S
C1766 C1767 1.363 . S
C1766 C1771 1.379 . S
C1766 N1773 1.356 . S
C1767 C1766 1.363 . S
C1767 C1770 1.363 . S
N1768 C1770 1.356 . S
N1768 H1780 0.984 . S
N1768 H1781 0.985 . S
N1769 C1771 1.356 . S
N1769 H1774 0.984 . S
N1769 H1775 0.985 . S
C1770 C1764 1.379 . S
C1770 C1767 1.363 . S
C1770 N1768 1.356 . S
C1771 C1765 1.363 . S
C1771 C1766 1.379 . S
C1771 N1769 1.356 . S
N1772 C1764 1.356 . S
N1772 H1778 0.984 . S
N1772 H1779 0.984 . S
N1773 C1766 1.356 . S
N1773 H1776 0.984 . S
N1773 H1777 0.985 . S
H1774 N1769 0.984 . S
H1775 N1769 0.985 . S
H1776 N1773 0.984 . S
H1777 N1773 0.985 . S
H1778 N1772 0.984 . S
H1779 N1772 0.984 . S
H1780 N1768 0.984 . S
H1781 N1768 0.985 . S
C1782 C1783 1.363 . S
C1782 C1788 1.379 . S
C1782 N1790 1.356 . S
C1783 C1782 1.363 . S
C1783 C1789 1.363 . S
C1784 C1785 1.363 . S
C1784 C1789 1.379 . S
C1784 N1791 1.356 . S
C1785 C1784 1.363 . S
C1785 C1788 1.363 . S
N1786 C1788 1.356 . S
N1786 H1798 0.984 . S
N1786 H1799 0.985 . S
N1787 C1789 1.356 . S
N1787 H1792 0.984 . S
N1787 H1793 0.985 . S
C1788 C1782 1.379 . S
C1788 C1785 1.363 . S
C1788 N1786 1.356 . S
C1789 C1783 1.363 . S
C1789 C1784 1.379 . S
C1789 N1787 1.356 . S
N1790 C1782 1.356 . S
N1790 H1796 0.984 . S
N1790 H1797 0.984 . S
N1791 C1784 1.356 . S
N1791 H1794 0.984 . S
N1791 H1795 0.985 . S
H1792 N1787 0.984 . S
H1793 N1787 0.985 . S
H1794 N1791 0.984 . S
H1795 N1791 0.985 . S
H1796 N1790 0.984 . S
H1797 N1790 0.984 . S
H1798 N1786 0.984 . S
H1799 N1786 0.985 . S
C1800 C1801 1.363 . S
C1800 C1806 1.379 . S
C1800 N1808 1.356 . S
C1801 C1800 1.363 . S
C1801 C1807 1.363 . S
C1802 C1803 1.363 . S
C1802 C1807 1.379 . S
C1802 N1809 1.356 . S
C1803 C1802 1.363 . S
C1803 C1806 1.363 . S
N1804 C1806 1.356 . S
N1804 H1816 0.984 . S
N1804 H1817 0.985 . S
N1805 C1807 1.356 . S
N1805 H1810 0.984 . S
N1805 H1811 0.985 . S
C1806 C1800 1.379 . S
C1806 C1803 1.363 . S
C1806 N1804 1.356 . S
C1807 C1801 1.363 . S
C1807 C1802 1.379 . S
C1807 N1805 1.356 . S
N1808 C1800 1.356 . S
N1808 H1814 0.984 . S
N1808 H1815 0.984 . S
N1809 C1802 1.356 . S
N1809 H1812 0.984 . S
N1809 H1813 0.985 . S
H1810 N1805 0.984 . S
H1811 N1805 0.985 . S
H1812 N1809 0.984 . S
H1813 N1809 0.985 . S
H1814 N1808 0.984 . S
H1815 N1808 0.984 . S
H1816 N1804 0.984 . S
H1817 N1804 0.985 . S
C1818 C1819 1.363 . S
C1818 C1824 1.379 . S
C1818 N1826 1.356 . S
C1819 C1818 1.363 . S
C1819 C1825 1.363 1_554 S
C1820 C1821 1.363 1_556 S
C1820 C1825 1.379 . S
C1820 N1827 1.356 . S
C1821 C1820 1.363 1_554 S
C1821 C1824 1.363 . S
N1822 C1824 1.356 . S
N1822 H1834 0.984 . S
N1822 H1835 0.985 . S
N1823 C1825 1.356 . S
N1823 H1828 0.984 . S
N1823 H1829 0.985 . S
C1824 C1818 1.379 . S
C1824 C1821 1.363 . S
C1824 N1822 1.356 . S
C1825 C1819 1.363 1_556 S
C1825 C1820 1.379 . S
C1825 N1823 1.356 . S
N1826 C1818 1.356 . S
N1826 H1832 0.984 . S
N1826 H1833 0.984 . S
N1827 C1820 1.356 . S
N1827 H1830 0.984 . S
N1827 H1831 0.985 . S
H1828 N1823 0.984 . S
H1829 N1823 0.985 . S
H1830 N1827 0.984 . S
H1831 N1827 0.985 . S
H1832 N1826 0.984 . S
H1833 N1826 0.984 . S
H1834 N1822 0.984 . S
H1835 N1822 0.985 . S
C1836 C1837 1.363 . S
C1836 C1842 1.379 . S
C1836 N1844 1.356 . S
C1837 C1836 1.363 . S
C1837 C1843 1.363 1_554 S
C1838 C1839 1.363 1_556 S
C1838 C1843 1.379 . S
C1838 N1845 1.356 . S
C1839 C1838 1.363 1_554 S
C1839 C1842 1.363 . S
N1840 C1842 1.356 . S
N1840 H1852 0.984 . S
N1840 H1853 0.985 . S
N1841 C1843 1.356 . S
N1841 H1846 0.984 . S
N1841 H1847 0.985 . S
C1842 C1836 1.379 . S
C1842 C1839 1.363 . S
C1842 N1840 1.356 . S
C1843 C1837 1.363 1_556 S
C1843 C1838 1.379 . S
C1843 N1841 1.356 . S
N1844 C1836 1.356 . S
N1844 H1850 0.984 . S
N1844 H1851 0.984 . S
N1845 C1838 1.356 . S
N1845 H1848 0.984 . S
N1845 H1849 0.985 . S
H1846 N1841 0.984 . S
H1847 N1841 0.985 . S
H1848 N1845 0.984 . S
H1849 N1845 0.985 . S
H1850 N1844 0.984 . S
H1851 N1844 0.984 . S
H1852 N1840 0.984 . S
H1853 N1840 0.985 . S
C1854 C1855 1.363 . S
C1854 C1860 1.379 . S
C1854 N1862 1.356 . S
C1855 C1854 1.363 . S
C1855 C1861 1.363 1_554 S
C1856 C1857 1.363 1_556 S
C1856 C1861 1.379 . S
C1856 N1863 1.356 . S
C1857 C1856 1.363 1_554 S
C1857 C1860 1.363 . S
N1858 C1860 1.356 . S
N1858 H1870 0.984 . S
N1858 H1871 0.985 . S
N1859 C1861 1.356 . S
N1859 H1864 0.984 . S
N1859 H1865 0.985 . S
C1860 C1854 1.379 . S
C1860 C1857 1.363 . S
C1860 N1858 1.356 . S
C1861 C1855 1.363 1_556 S
C1861 C1856 1.379 . S
C1861 N1859 1.356 . S
N1862 C1854 1.356 . S
N1862 H1868 0.984 . S
N1862 H1869 0.984 . S
N1863 C1856 1.356 . S
N1863 H1866 0.984 . S
N1863 H1867 0.985 . S
H1864 N1859 0.984 . S
H1865 N1859 0.985 . S
H1866 N1863 0.984 . S
H1867 N1863 0.985 . S
H1868 N1862 0.984 . S
H1869 N1862 0.984 . S
H1870 N1858 0.984 . S
H1871 N1858 0.985 . S
C1872 C1873 1.363 . S
C1872 C1878 1.379 . S
C1872 N1880 1.356 . S
C1873 C1872 1.363 . S
C1873 C1879 1.363 . S
C1874 C1875 1.363 . S
C1874 C1879 1.379 . S
C1874 N1881 1.356 . S
C1875 C1874 1.363 . S
C1875 C1878 1.363 . S
N1876 C1878 1.356 . S
N1876 H1888 0.984 . S
N1876 H1889 0.985 . S
N1877 C1879 1.356 . S
N1877 H1882 0.984 . S
N1877 H1883 0.985 . S
C1878 C1872 1.379 . S
C1878 C1875 1.363 . S
C1878 N1876 1.356 . S
C1879 C1873 1.363 . S
C1879 C1874 1.379 . S
C1879 N1877 1.356 . S
N1880 C1872 1.356 . S
N1880 H1886 0.984 . S
N1880 H1887 0.984 . S
N1881 C1874 1.356 . S
N1881 H1884 0.984 . S
N1881 H1885 0.985 . S
H1882 N1877 0.984 . S
H1883 N1877 0.985 . S
H1884 N1881 0.984 . S
H1885 N1881 0.985 . S
H1886 N1880 0.984 . S
H1887 N1880 0.984 . S
H1888 N1876 0.984 . S
H1889 N1876 0.985 . S
C1890 C1891 1.363 . S
C1890 C1896 1.379 . S
C1890 N1898 1.356 . S
C1891 C1890 1.363 . S
C1891 C1897 1.363 . S
C1892 C1893 1.363 . S
C1892 C1897 1.379 . S
C1892 N1899 1.356 . S
C1893 C1892 1.363 . S
C1893 C1896 1.363 . S
N1894 C1896 1.356 . S
N1894 H1906 0.984 . S
N1894 H1907 0.985 . S
N1895 C1897 1.356 . S
N1895 H1900 0.984 . S
N1895 H1901 0.985 . S
C1896 C1890 1.379 . S
C1896 C1893 1.363 . S
C1896 N1894 1.356 . S
C1897 C1891 1.363 . S
C1897 C1892 1.379 . S
C1897 N1895 1.356 . S
N1898 C1890 1.356 . S
N1898 H1904 0.984 . S
N1898 H1905 0.984 . S
N1899 C1892 1.356 . S
N1899 H1902 0.984 . S
N1899 H1903 0.985 . S
H1900 N1895 0.984 . S
H1901 N1895 0.985 . S
H1902 N1899 0.984 . S
H1903 N1899 0.985 . S
H1904 N1898 0.984 . S
H1905 N1898 0.984 . S
H1906 N1894 0.984 . S
H1907 N1894 0.985 . S
C1908 C1909 1.363 . S
C1908 C1914 1.379 . S
C1908 N1916 1.356 . S
C1909 C1908 1.363 . S
C1909 C1915 1.363 . S
C1910 C1911 1.363 . S
C1910 C1915 1.379 . S
C1910 N1917 1.356 . S
C1911 C1910 1.363 . S
C1911 C1914 1.363 . S
N1912 C1914 1.356 . S
N1912 H1924 0.984 . S
N1912 H1925 0.985 . S
N1913 C1915 1.356 . S
N1913 H1918 0.984 . S
N1913 H1919 0.985 . S
C1914 C1908 1.379 . S
C1914 C1911 1.363 . S
C1914 N1912 1.356 . S
C1915 C1909 1.363 . S
C1915 C1910 1.379 . S
C1915 N1913 1.356 . S
N1916 C1908 1.356 . S
N1916 H1922 0.984 . S
N1916 H1923 0.984 . S
N1917 C1910 1.356 . S
N1917 H1920 0.984 . S
N1917 H1921 0.985 . S
H1918 N1913 0.984 . S
H1919 N1913 0.985 . S
H1920 N1917 0.984 . S
H1921 N1917 0.985 . S
H1922 N1916 0.984 . S
H1923 N1916 0.984 . S
H1924 N1912 0.984 . S
H1925 N1912 0.985 . S
C1926 C1927 1.363 . S
C1926 C1932 1.379 . S
C1926 N1934 1.356 . S
C1927 C1926 1.363 . S
C1927 C1933 1.374 . S
C1928 C1929 1.363 . S
C1928 C1933 1.396 . S
C1928 N1935 1.356 . S
C1929 C1928 1.363 . S
C1929 C1932 1.363 . S
N1930 C1932 1.356 . S
N1930 H1942 0.984 . S
N1930 H1943 0.985 . S
N1931 C1933 1.333 1_554 S
N1931 H1936 0.999 . S
N1931 H1937 1.004 . S
C1932 C1926 1.379 . S
C1932 C1929 1.363 . S
C1932 N1930 1.356 . S
C1933 C1927 1.374 . S
C1933 C1928 1.396 . S
C1933 N1931 1.333 1_556 S
N1934 C1926 1.356 . S
N1934 H1940 0.984 . S
N1934 H1941 0.984 . S
N1935 C1928 1.356 . S
N1935 H1938 0.984 . S
N1935 H1939 1.006 . S
H1936 N1931 0.999 . S
H1937 N1931 1.004 . S
H1938 N1935 0.984 . S
H1939 N1935 1.006 . S
H1940 N1934 0.984 . S
H1941 N1934 0.984 . S
H1942 N1930 0.984 . S
H1943 N1930 0.985 . S
C1944 C1945 1.363 1_554 S
C1944 C1950 1.379 . S
C1944 N1952 1.356 . S
C1945 C1944 1.363 1_556 S
C1945 C1951 1.363 . S
C1946 C1947 1.363 . S
C1946 C1951 1.379 . S
C1946 N1953 1.356 . S
C1947 C1946 1.363 . S
C1947 C1950 1.363 1_556 S
N1948 C1950 1.356 . S
N1948 H1960 0.984 . S
N1948 H1961 0.985 . S
N1949 C1951 1.356 . S
N1949 H1954 0.984 . S
N1949 H1955 0.985 . S
C1950 C1944 1.379 . S
C1950 C1947 1.363 1_554 S
C1950 N1948 1.356 . S
C1951 C1945 1.363 . S
C1951 C1946 1.379 . S
C1951 N1949 1.356 . S
N1952 C1944 1.356 . S
N1952 H1958 0.984 . S
N1952 H1959 0.984 . S
N1953 C1946 1.356 . S
N1953 H1956 0.984 . S
N1953 H1957 0.985 . S
H1954 N1949 0.984 . S
H1955 N1949 0.985 . S
H1956 N1953 0.984 . S
H1957 N1953 0.985 . S
H1958 N1952 0.984 . S
H1959 N1952 0.984 . S
H1960 N1948 0.984 . S
H1961 N1948 0.985 . S
C1962 C1963 1.363 1_554 S
C1962 C1968 1.379 . S
C1962 N1970 1.356 . S
C1963 C1962 1.363 1_556 S
C1963 C1969 1.363 . S
C1964 C1965 1.363 . S
C1964 C1969 1.379 . S
C1964 N1971 1.356 . S
C1965 C1964 1.363 . S
C1965 C1968 1.363 1_556 S
N1966 C1968 1.356 . S
N1966 H1978 0.984 . S
N1966 H1979 0.985 . S
N1967 C1969 1.356 . S
N1967 H1972 0.984 . S
N1967 H1973 0.985 . S
C1968 C1962 1.379 . S
C1968 C1965 1.363 1_554 S
C1968 N1966 1.356 . S
C1969 C1963 1.363 . S
C1969 C1964 1.379 . S
C1969 N1967 1.356 . S
N1970 C1962 1.356 . S
N1970 H1976 0.984 . S
N1970 H1977 0.984 . S
N1971 C1964 1.356 . S
N1971 H1974 0.984 . S
N1971 H1975 0.985 . S
H1972 N1967 0.984 . S
H1973 N1967 0.985 . S
H1974 N1971 0.984 . S
H1975 N1971 0.985 . S
H1976 N1970 0.984 . S
H1977 N1970 0.984 . S
H1978 N1966 0.984 . S
H1979 N1966 0.985 . S
C1980 C1981 1.363 . S
C1980 C1986 1.379 . S
C1980 N1988 1.356 . S
C1981 C1980 1.363 . S
C1981 C1987 1.363 . S
C1982 C1983 1.363 . S
C1982 C1987 1.379 . S
C1982 N1989 1.356 . S
C1983 C1982 1.363 . S
C1983 C1986 1.363 . S
N1984 C1986 1.356 . S
N1984 H1996 0.984 . S
N1984 H1997 0.985 . S
N1985 C1987 1.356 . S
N1985 H1990 0.984 . S
N1985 H1991 0.985 . S
C1986 C1980 1.379 . S
C1986 C1983 1.363 . S
C1986 N1984 1.356 . S
C1987 C1981 1.363 . S
C1987 C1982 1.379 . S
C1987 N1985 1.356 . S
N1988 C1980 1.356 . S
N1988 H1994 0.984 . S
N1988 H1995 0.984 . S
N1989 C1982 1.356 . S
N1989 H1992 0.984 . S
N1989 H1993 0.985 . S
H1990 N1985 0.984 . S
H1991 N1985 0.985 . S
H1992 N1989 0.984 . S
H1993 N1989 0.985 . S
H1994 N1988 0.984 . S
H1995 N1988 0.984 . S
H1996 N1984 0.984 . S
H1997 N1984 0.985 . S
C1998 C1999 1.363 . S
C1998 C2004 1.379 . S
C1998 N2006 1.356 . S
C1999 C1998 1.363 . S
C1999 C2005 1.363 . S
C2000 C2001 1.363 . S
C2000 C2005 1.379 . S
C2000 N2007 1.356 . S
C2001 C2000 1.363 . S
C2001 C2004 1.363 . S
N2002 C2004 1.356 . S
N2002 H2014 0.984 . S
N2002 H2015 0.985 . S
N2003 C2005 1.356 . S
N2003 H2008 0.984 . S
N2003 H2009 0.985 . S
C2004 C1998 1.379 . S
C2004 C2001 1.363 . S
C2004 N2002 1.356 . S
C2005 C1999 1.363 . S
C2005 C2000 1.379 . S
C2005 N2003 1.356 . S
N2006 C1998 1.356 . S
N2006 H2012 0.984 . S
N2006 H2013 0.984 . S
N2007 C2000 1.356 . S
N2007 H2010 0.984 . S
N2007 H2011 0.985 . S
H2008 N2003 0.984 . S
H2009 N2003 0.985 . S
H2010 N2007 0.984 . S
H2011 N2007 0.985 . S
H2012 N2006 0.984 . S
H2013 N2006 0.984 . S
H2014 N2002 0.984 . S
H2015 N2002 0.985 . S
C2016 C2017 1.363 . S
C2016 C2022 1.379 . S
C2016 N2024 1.356 . S
C2017 C2016 1.363 . S
C2017 C2023 1.363 . S
C2018 C2019 1.363 . S
C2018 C2023 1.379 . S
C2018 N2025 1.356 . S
C2019 C2018 1.363 . S
C2019 C2022 1.363 . S
N2020 C2022 1.356 . S
N2020 H2032 0.984 . S
N2020 H2033 0.985 . S
N2021 C2023 1.356 . S
N2021 H2026 0.984 . S
N2021 H2027 0.985 . S
C2022 C2016 1.379 . S
C2022 C2019 1.363 . S
C2022 N2020 1.356 . S
C2023 C2017 1.363 . S
C2023 C2018 1.379 . S
C2023 N2021 1.356 . S
N2024 C2016 1.356 . S
N2024 H2030 0.984 . S
N2024 H2031 0.984 . S
N2025 C2018 1.356 . S
N2025 H2028 0.984 . S
N2025 H2029 0.985 . S
H2026 N2021 0.984 . S
H2027 N2021 0.985 . S
H2028 N2025 0.984 . S
H2029 N2025 0.985 . S
H2030 N2024 0.984 . S
H2031 N2024 0.984 . S
H2032 N2020 0.984 . S
H2033 N2020 0.985 . S
C2034 C2035 1.363 . S
C2034 C2040 1.379 . S
C2034 N2042 1.356 . S
C2035 C2034 1.363 . S
C2035 C2041 1.363 . S
C2036 C2037 1.363 . S
C2036 C2041 1.379 . S
C2036 N2043 1.356 . S
C2037 C2036 1.363 . S
C2037 C2040 1.363 . S
N2038 C2040 1.356 . S
N2038 H2050 0.984 . S
N2038 H2051 0.985 . S
N2039 C2041 1.356 . S
N2039 H2044 0.984 . S
N2039 H2045 0.985 . S
C2040 C2034 1.379 . S
C2040 C2037 1.363 . S
C2040 N2038 1.356 . S
C2041 C2035 1.363 . S
C2041 C2036 1.379 . S
C2041 N2039 1.356 . S
N2042 C2034 1.356 . S
N2042 H2048 0.984 . S
N2042 H2049 0.984 . S
N2043 C2036 1.356 . S
N2043 H2046 0.984 . S
N2043 H2047 0.985 . S
H2044 N2039 0.984 . S
H2045 N2039 0.985 . S
H2046 N2043 0.984 . S
H2047 N2043 0.985 . S
H2048 N2042 0.984 . S
H2049 N2042 0.984 . S
H2050 N2038 0.984 . S
H2051 N2038 0.985 . S
C2052 C2053 1.363 . S
C2052 C2058 1.379 . S
C2052 N2060 1.356 . S
C2053 C2052 1.363 . S
C2053 C2059 1.363 . S
C2054 C2055 1.363 . S
C2054 C2059 1.379 . S
C2054 N2061 1.356 . S
C2055 C2054 1.363 . S
C2055 C2058 1.363 . S
N2056 C2058 1.356 . S
N2056 H2068 0.984 . S
N2056 H2069 0.985 . S
N2057 C2059 1.356 . S
N2057 H2062 0.984 . S
N2057 H2063 0.985 . S
C2058 C2052 1.379 . S
C2058 C2055 1.363 . S
C2058 N2056 1.356 . S
C2059 C2053 1.363 . S
C2059 C2054 1.379 . S
C2059 N2057 1.356 . S
N2060 C2052 1.356 . S
N2060 H2066 0.984 . S
N2060 H2067 0.984 . S
N2061 C2054 1.356 . S
N2061 H2064 0.984 . S
N2061 H2065 0.985 . S
H2062 N2057 0.984 . S
H2063 N2057 0.985 . S
H2064 N2061 0.984 . S
H2065 N2061 0.985 . S
H2066 N2060 0.984 . S
H2067 N2060 0.984 . S
H2068 N2056 0.984 . S
H2069 N2056 0.985 . S
C2070 C2071 1.363 . S
C2070 C2076 1.379 . S
C2070 N2078 1.356 . S
C2071 C2070 1.363 . S
C2071 C2077 1.363 . S
C2072 C2073 1.363 . S
C2072 C2077 1.379 . S
C2072 N2079 1.356 . S
C2073 C2072 1.363 . S
C2073 C2076 1.363 . S
N2074 C2076 1.356 . S
N2074 H2086 0.984 . S
N2074 H2087 0.985 . S
N2075 C2077 1.356 . S
N2075 H2080 0.984 . S
N2075 H2081 0.985 . S
C2076 C2070 1.379 . S
C2076 C2073 1.363 . S
C2076 N2074 1.356 . S
C2077 C2071 1.363 . S
C2077 C2072 1.379 . S
C2077 N2075 1.356 . S
N2078 C2070 1.356 . S
N2078 H2084 0.984 . S
N2078 H2085 0.984 . S
N2079 C2072 1.356 . S
N2079 H2082 0.984 . S
N2079 H2083 0.985 . S
H2080 N2075 0.984 . S
H2081 N2075 0.985 . S
H2082 N2079 0.984 . S
H2083 N2079 0.985 . S
H2084 N2078 0.984 . S
H2085 N2078 0.984 . S
H2086 N2074 0.984 . S
H2087 N2074 0.985 . S
C2088 C2089 1.363 . S
C2088 C2094 1.379 . S
C2088 N2096 1.356 . S
C2089 C2088 1.363 . S
C2089 C2095 1.363 . S
C2090 C2091 1.363 . S
C2090 C2095 1.379 . S
C2090 N2097 1.356 . S
C2091 C2090 1.363 . S
C2091 C2094 1.363 . S
N2092 C2094 1.356 . S
N2092 H2104 0.984 . S
N2092 H2105 0.985 . S
N2093 C2095 1.356 . S
N2093 H2098 0.984 . S
N2093 H2099 0.985 . S
C2094 C2088 1.379 . S
C2094 C2091 1.363 . S
C2094 N2092 1.356 . S
C2095 C2089 1.363 . S
C2095 C2090 1.379 . S
C2095 N2093 1.356 . S
N2096 C2088 1.356 . S
N2096 H2102 0.984 . S
N2096 H2103 0.984 . S
N2097 C2090 1.356 . S
N2097 H2100 0.984 . S
N2097 H2101 0.985 . S
H2098 N2093 0.984 . S
H2099 N2093 0.985 . S
H2100 N2097 0.984 . S
H2101 N2097 0.985 . S
H2102 N2096 0.984 . S
H2103 N2096 0.984 . S
H2104 N2092 0.984 . S
H2105 N2092 0.985 . S
C2106 C2107 1.363 . S
C2106 C2112 1.379 . S
C2106 N2114 1.356 . S
C2107 C2106 1.363 . S
C2107 C2113 1.363 1_565 S
C2108 C2109 1.363 . S
C2108 C2113 1.379 1_565 S
C2108 N2115 1.356 1_565 S
C2109 C2108 1.363 . S
C2109 C2112 1.363 . S
N2110 C2112 1.356 . S
N2110 H2122 0.984 . S
N2110 H2123 0.985 . S
N2111 C2113 1.356 . S
N2111 H2116 0.984 . S
N2111 H2117 0.985 . S
C2112 C2106 1.379 . S
C2112 C2109 1.363 . S
C2112 N2110 1.356 . S
C2113 C2107 1.363 1_545 S
C2113 C2108 1.379 1_545 S
C2113 N2111 1.356 . S
N2114 C2106 1.356 . S
N2114 H2120 0.984 . S
N2114 H2121 0.984 . S
N2115 C2108 1.356 1_545 S
N2115 H2118 0.984 1_545 S
N2115 H2119 0.985 . S
H2116 N2111 0.984 . S
H2117 N2111 0.985 . S
H2118 N2115 0.984 1_565 S
H2119 N2115 0.985 . S
H2120 N2114 0.984 . S
H2121 N2114 0.984 . S
H2122 N2110 0.984 . S
H2123 N2110 0.985 . S
C2124 C2125 1.363 . S
C2124 C2130 1.379 . S
C2124 N2132 1.356 . S
C2125 C2124 1.363 . S
C2125 C2131 1.363 . S
C2126 C2127 1.363 . S
C2126 C2131 1.379 . S
C2126 N2133 1.356 1_455 S
C2127 C2126 1.363 . S
C2127 C2130 1.363 . S
N2128 C2130 1.356 . S
N2128 H2140 0.984 . S
N2128 H2141 0.985 . S
N2129 C2131 1.356 . S
N2129 H2134 0.984 . S
N2129 H2135 0.985 . S
C2130 C2124 1.379 . S
C2130 C2127 1.363 . S
C2130 N2128 1.356 . S
C2131 C2125 1.363 . S
C2131 C2126 1.379 . S
C2131 N2129 1.356 . S
N2132 C2124 1.356 . S
N2132 H2138 0.984 . S
N2132 H2139 0.984 . S
N2133 C2126 1.356 1_655 S
N2133 H2136 0.984 . S
N2133 H2137 0.985 . S
H2134 N2129 0.984 . S
H2135 N2129 0.985 . S
H2136 N2133 0.984 . S
H2137 N2133 0.985 . S
H2138 N2132 0.984 . S
H2139 N2132 0.984 . S
H2140 N2128 0.984 . S
H2141 N2128 0.985 . S
C2142 C2143 1.363 . S
C2142 C2148 1.379 . S
C2142 N2150 1.356 . S
C2143 C2142 1.363 . S
C2143 C2149 1.363 . S
C2144 C2145 1.363 . S
C2144 C2149 1.379 . S
C2144 N2151 1.356 . S
C2145 C2144 1.363 . S
C2145 C2148 1.363 . S
N2146 C2148 1.356 . S
N2146 H2158 0.984 . S
N2146 H2159 0.985 . S
N2147 C2149 1.356 . S
N2147 H2152 0.984 . S
N2147 H2153 0.985 . S
C2148 C2142 1.379 . S
C2148 C2145 1.363 . S
C2148 N2146 1.356 . S
C2149 C2143 1.363 . S
C2149 C2144 1.379 . S
C2149 N2147 1.356 . S
N2150 C2142 1.356 . S
N2150 H2156 0.984 . S
N2150 H2157 0.984 . S
N2151 C2144 1.356 . S
N2151 H2154 0.984 . S
N2151 H2155 0.985 . S
H2152 N2147 0.984 . S
H2153 N2147 0.985 . S
H2154 N2151 0.984 . S
H2155 N2151 0.985 . S
H2156 N2150 0.984 . S
H2157 N2150 0.984 . S
H2158 N2146 0.984 . S
H2159 N2146 0.985 . S
C2160 C2161 1.378 . S
C2160 C2166 1.375 . S
C2160 N2168 1.350 1_545 S
C2161 C2160 1.378 . S
C2161 C2167 1.363 . S
C2162 C2163 1.363 . S
C2162 C2167 1.379 . S
C2162 N2169 1.356 . S
C2163 C2162 1.363 . S
C2163 C2166 1.363 . S
N2164 C2166 1.356 . S
N2164 H2176 0.984 1_545 S
N2164 H2177 0.985 . S
N2165 C2167 1.356 . S
N2165 H2170 0.984 . S
N2165 H2171 0.985 . S
C2166 C2160 1.375 . S
C2166 C2163 1.363 . S
C2166 N2164 1.356 . S
C2167 C2161 1.363 . S
C2167 C2162 1.379 . S
C2167 N2165 1.356 . S
N2168 C2160 1.350 1_565 S
N2168 H2174 0.984 . S
N2168 H2175 0.984 . S
N2169 C2162 1.356 . S
N2169 H2172 0.984 . S
N2169 H2173 0.985 . S
H2170 N2165 0.984 . S
H2171 N2165 0.985 . S
H2172 N2169 0.984 . S
H2173 N2169 0.985 . S
H2174 N2168 0.984 . S
H2175 N2168 0.984 . S
H2176 N2164 0.984 1_565 S
H2177 N2164 0.985 . S
C2178 C2179 1.363 . S
C2178 C2184 1.379 . S
C2178 N2186 1.356 . S
C2179 C2178 1.363 . S
C2179 C2185 1.363 . S
C2180 C2181 1.363 . S
C2180 C2185 1.379 . S
C2180 N2187 1.356 1_655 S
C2181 C2180 1.363 . S
C2181 C2184 1.363 . S
N2182 C2184 1.356 . S
N2182 H2194 0.984 . S
N2182 H2195 0.985 . S
N2183 C2185 1.356 . S
N2183 H2188 0.984 . S
N2183 H2189 0.985 1_655 S
C2184 C2178 1.379 . S
C2184 C2181 1.363 . S
C2184 N2182 1.356 . S
C2185 C2179 1.363 . S
C2185 C2180 1.379 . S
C2185 N2183 1.356 . S
N2186 C2178 1.356 . S
N2186 H2192 0.984 . S
N2186 H2193 0.984 . S
N2187 C2180 1.356 1_455 S
N2187 H2190 0.984 . S
N2187 H2191 0.985 . S
H2188 N2183 0.984 . S
H2189 N2183 0.985 1_455 S
H2190 N2187 0.984 . S
H2191 N2187 0.985 . S
H2192 N2186 0.984 . S
H2193 N2186 0.984 . S
H2194 N2182 0.984 . S
H2195 N2182 0.985 . S
C2196 C2197 1.363 . S
C2196 C2202 1.379 . S
C2196 N2204 1.356 . S
C2197 C2196 1.363 . S
C2197 C2203 1.363 . S
C2198 C2199 1.363 . S
C2198 C2203 1.379 . S
C2198 N2205 1.356 . S
C2199 C2198 1.363 . S
C2199 C2202 1.363 . S
N2200 C2202 1.356 . S
N2200 H2212 0.984 . S
N2200 H2213 0.985 . S
N2201 C2203 1.356 . S
N2201 H2206 0.984 . S
N2201 H2207 0.985 . S
C2202 C2196 1.379 . S
C2202 C2199 1.363 . S
C2202 N2200 1.356 . S
C2203 C2197 1.363 . S
C2203 C2198 1.379 . S
C2203 N2201 1.356 . S
N2204 C2196 1.356 . S
N2204 H2210 0.984 . S
N2204 H2211 0.984 . S
N2205 C2198 1.356 . S
N2205 H2208 0.984 . S
N2205 H2209 0.985 . S
H2206 N2201 0.984 . S
H2207 N2201 0.985 . S
H2208 N2205 0.984 . S
H2209 N2205 0.985 . S
H2210 N2204 0.984 . S
H2211 N2204 0.984 . S
H2212 N2200 0.984 . S
H2213 N2200 0.985 . S
C2214 C2215 1.363 . S
C2214 C2220 1.379 . S
C2214 N2222 1.356 . S
C2215 C2214 1.363 . S
C2215 C2221 1.363 . S
C2216 C2217 1.363 1_565 S
C2216 C2221 1.379 1_565 S
C2216 N2223 1.356 . S
C2217 C2216 1.363 1_545 S
C2217 C2220 1.363 . S
N2218 C2220 1.356 . S
N2218 H2230 0.984 . S
N2218 H2231 0.985 . S
N2219 C2221 1.356 1_565 S
N2219 H2224 0.984 1_565 S
N2219 H2225 0.985 . S
C2220 C2214 1.379 . S
C2220 C2217 1.363 . S
C2220 N2218 1.356 . S
C2221 C2215 1.363 . S
C2221 C2216 1.379 1_545 S
C2221 N2219 1.356 1_545 S
N2222 C2214 1.356 . S
N2222 H2228 0.984 . S
N2222 H2229 0.984 . S
N2223 C2216 1.356 . S
N2223 H2226 0.984 . S
N2223 H2227 0.985 . S
H2224 N2219 0.984 1_545 S
H2225 N2219 0.985 . S
H2226 N2223 0.984 . S
H2227 N2223 0.985 . S
H2228 N2222 0.984 . S
H2229 N2222 0.984 . S
H2230 N2218 0.984 . S
H2231 N2218 0.985 . S
C2232 C2233 1.363 . S
C2232 C2238 1.378 . S
C2232 N2240 1.356 . S
C2233 C2232 1.363 . S
C2233 C2239 1.363 . S
C2234 C2235 1.363 . S
C2234 C2239 1.379 . S
C2234 N2241 1.356 . S
C2235 C2234 1.363 . S
C2235 C2238 1.365 . S
N2236 C2238 1.355 1_455 S
N2236 H2248 0.984 . S
N2236 H2249 0.985 . S
N2237 C2239 1.356 . S
N2237 H2242 0.984 . S
N2237 H2243 0.985 . S
C2238 C2232 1.378 . S
C2238 C2235 1.365 . S
C2238 N2236 1.355 1_655 S
C2239 C2233 1.363 . S
C2239 C2234 1.379 . S
C2239 N2237 1.356 . S
N2240 C2232 1.356 . S
N2240 H2246 0.984 1_655 S
N2240 H2247 0.984 . S
N2241 C2234 1.356 . S
N2241 H2244 0.984 . S
N2241 H2245 0.985 . S
H2242 N2237 0.984 . S
H2243 N2237 0.985 . S
H2244 N2241 0.984 . S
H2245 N2241 0.985 . S
H2246 N2240 0.984 1_455 S
H2247 N2240 0.984 . S
H2248 N2236 0.984 . S
H2249 N2236 0.985 . S
C2250 C2251 1.363 . S
C2250 C2256 1.379 . S
C2250 N2258 1.356 . S
C2251 C2250 1.363 . S
C2251 C2257 1.363 . S
C2252 C2253 1.363 . S
C2252 C2257 1.379 . S
C2252 N2259 1.356 . S
C2253 C2252 1.363 . S
C2253 C2256 1.363 . S
N2254 C2256 1.356 . S
N2254 H2266 0.984 . S
N2254 H2267 0.985 . S
N2255 C2257 1.356 . S
N2255 H2260 0.984 . S
N2255 H2261 0.985 . S
C2256 C2250 1.379 . S
C2256 C2253 1.363 . S
C2256 N2254 1.356 . S
C2257 C2251 1.363 . S
C2257 C2252 1.379 . S
C2257 N2255 1.356 . S
N2258 C2250 1.356 . S
N2258 H2264 0.984 . S
N2258 H2265 0.984 . S
N2259 C2252 1.356 . S
N2259 H2262 0.984 . S
N2259 H2263 0.985 . S
H2260 N2255 0.984 . S
H2261 N2255 0.985 . S
H2262 N2259 0.984 . S
H2263 N2259 0.985 . S
H2264 N2258 0.984 . S
H2265 N2258 0.984 . S
H2266 N2254 0.984 . S
H2267 N2254 0.985 . S
C2268 C2269 1.363 . S
C2268 C2274 1.379 . S
C2268 N2276 1.356 1_565 S
C2269 C2268 1.363 . S
C2269 C2275 1.363 . S
C2270 C2271 1.363 . S
C2270 C2275 1.379 . S
C2270 N2277 1.356 . S
C2271 C2270 1.363 . S
C2271 C2274 1.363 . S
N2272 C2274 1.356 . S
N2272 H2284 0.984 1_565 S
N2272 H2285 0.985 . S
N2273 C2275 1.356 . S
N2273 H2278 0.984 . S
N2273 H2279 0.985 . S
C2274 C2268 1.379 . S
C2274 C2271 1.363 . S
C2274 N2272 1.356 . S
C2275 C2269 1.363 . S
C2275 C2270 1.379 . S
C2275 N2273 1.356 . S
N2276 C2268 1.356 1_545 S
N2276 H2282 0.984 . S
N2276 H2283 0.984 . S
N2277 C2270 1.356 . S
N2277 H2280 0.984 . S
N2277 H2281 0.985 . S
H2278 N2273 0.984 . S
H2279 N2273 0.985 . S
H2280 N2277 0.984 . S
H2281 N2277 0.985 . S
H2282 N2276 0.984 . S
H2283 N2276 0.984 . S
H2284 N2272 0.984 1_545 S
H2285 N2272 0.985 . S
C2286 C2287 1.363 . S
C2286 C2292 1.379 . S
C2286 N2294 1.356 . S
C2287 C2286 1.363 . S
C2287 C2293 1.363 . S
C2288 C2289 1.363 . S
C2288 C2293 1.379 . S
C2288 N2295 1.356 . S
C2289 C2288 1.363 . S
C2289 C2292 1.363 . S
N2290 C2292 1.356 . S
N2290 H2302 0.984 . S
N2290 H2303 0.985 . S
N2291 C2293 1.356 1_655 S
N2291 H2296 0.984 . S
N2291 H2297 0.985 . S
C2292 C2286 1.379 . S
C2292 C2289 1.363 . S
C2292 N2290 1.356 . S
C2293 C2287 1.363 . S
C2293 C2288 1.379 . S
C2293 N2291 1.356 1_455 S
N2294 C2286 1.356 . S
N2294 H2300 0.984 . S
N2294 H2301 0.984 . S
N2295 C2288 1.356 . S
N2295 H2298 0.984 . S
N2295 H2299 0.985 1_455 S
H2296 N2291 0.984 . S
H2297 N2291 0.985 . S
H2298 N2295 0.984 . S
H2299 N2295 0.985 1_655 S
H2300 N2294 0.984 . S
H2301 N2294 0.984 . S
H2302 N2290 0.984 . S
H2303 N2290 0.985 . S
C2304 C2305 1.363 1_455 S
C2304 C2310 1.379 . S
C2304 N2312 1.356 1_455 S
C2305 C2304 1.363 1_655 S
C2305 C2311 1.363 1_655 S
C2306 C2307 1.363 . S
C2306 C2311 1.379 . S
C2306 N2313 1.356 . S
C2307 C2306 1.363 . S
C2307 C2310 1.363 . S
N2308 C2310 1.356 . S
N2308 H2320 0.984 . S
N2308 H2321 0.985 . S
N2309 C2311 1.356 1_655 S
N2309 H2314 0.984 . S
N2309 H2315 0.985 . S
C2310 C2304 1.379 . S
C2310 C2307 1.363 . S
C2310 N2308 1.356 . S
C2311 C2305 1.363 1_455 S
C2311 C2306 1.379 . S
C2311 N2309 1.356 1_455 S
N2312 C2304 1.356 1_655 S
N2312 H2318 0.984 . S
N2312 H2319 0.984 . S
N2313 C2306 1.356 . S
N2313 H2316 0.984 . S
N2313 H2317 0.985 . S
H2314 N2309 0.984 . S
H2315 N2309 0.985 . S
H2316 N2313 0.984 . S
H2317 N2313 0.985 . S
H2318 N2312 0.984 . S
H2319 N2312 0.984 . S
H2320 N2308 0.984 . S
H2321 N2308 0.985 . S
C2322 C2323 1.363 . S
C2322 C2328 1.379 . S
C2322 N2330 1.356 . S
C2323 C2322 1.363 . S
C2323 C2329 1.363 . S
C2324 C2325 1.363 . S
C2324 C2329 1.379 . S
C2324 N2331 1.356 . S
C2325 C2324 1.363 . S
C2325 C2328 1.363 . S
N2326 C2328 1.356 . S
N2326 H2338 0.984 . S
N2326 H2339 0.985 . S
N2327 C2329 1.356 . S
N2327 H2332 0.984 . S
N2327 H2333 0.985 . S
C2328 C2322 1.379 . S
C2328 C2325 1.363 . S
C2328 N2326 1.356 . S
C2329 C2323 1.363 . S
C2329 C2324 1.379 . S
C2329 N2327 1.356 . S
N2330 C2322 1.356 . S
N2330 H2336 0.984 . S
N2330 H2337 0.984 . S
N2331 C2324 1.356 . S
N2331 H2334 0.984 . S
N2331 H2335 0.985 . S
H2332 N2327 0.984 . S
H2333 N2327 0.985 . S
H2334 N2331 0.984 . S
H2335 N2331 0.985 . S
H2336 N2330 0.984 . S
H2337 N2330 0.984 . S
H2338 N2326 0.984 . S
H2339 N2326 0.985 . S
C2340 C2341 1.363 . S
C2340 C2346 1.379 . S
C2340 N2348 1.356 . S
C2341 C2340 1.363 . S
C2341 C2347 1.363 . S
C2342 C2343 1.363 . S
C2342 C2347 1.379 1_545 S
C2342 N2349 1.356 . S
C2343 C2342 1.363 . S
C2343 C2346 1.363 1_545 S
N2344 C2346 1.356 1_545 S
N2344 H2356 0.984 . S
N2344 H2357 0.985 . S
N2345 C2347 1.356 . S
N2345 H2350 0.984 . S
N2345 H2351 0.985 . S
C2346 C2340 1.379 . S
C2346 C2343 1.363 1_565 S
C2346 N2344 1.356 1_565 S
C2347 C2341 1.363 . S
C2347 C2342 1.379 1_565 S
C2347 N2345 1.356 . S
N2348 C2340 1.356 . S
N2348 H2354 0.984 . S
N2348 H2355 0.984 . S
N2349 C2342 1.356 . S
N2349 H2352 0.984 . S
N2349 H2353 0.985 . S
H2350 N2345 0.984 . S
H2351 N2345 0.985 . S
H2352 N2349 0.984 . S
H2353 N2349 0.985 . S
H2354 N2348 0.984 . S
H2355 N2348 0.984 . S
H2356 N2344 0.984 . S
H2357 N2344 0.985 . S
C2358 C2359 1.363 . S
C2358 C2364 1.379 . S
C2358 N2366 1.356 . S
C2359 C2358 1.363 . S
C2359 C2365 1.363 . S
C2360 C2361 1.363 . S
C2360 C2365 1.379 . S
C2360 N2367 1.356 . S
C2361 C2360 1.363 . S
C2361 C2364 1.363 . S
N2362 C2364 1.356 1_655 S
N2362 H2374 0.984 . S
N2362 H2375 0.985 . S
N2363 C2365 1.356 . S
N2363 H2368 0.984 . S
N2363 H2369 0.985 . S
C2364 C2358 1.379 . S
C2364 C2361 1.363 . S
C2364 N2362 1.356 1_455 S
C2365 C2359 1.363 . S
C2365 C2360 1.379 . S
C2365 N2363 1.356 . S
N2366 C2358 1.356 . S
N2366 H2372 0.984 . S
N2366 H2373 0.984 . S
N2367 C2360 1.356 . S
N2367 H2370 0.984 . S
N2367 H2371 0.985 . S
H2368 N2363 0.984 . S
H2369 N2363 0.985 . S
H2370 N2367 0.984 . S
H2371 N2367 0.985 . S
H2372 N2366 0.984 . S
H2373 N2366 0.984 . S
H2374 N2362 0.984 . S
H2375 N2362 0.985 . S
C2376 C2377 1.363 . S
C2376 C2382 1.379 . S
C2376 N2384 1.356 . S
C2377 C2376 1.363 . S
C2377 C2383 1.363 . S
C2378 C2379 1.363 . S
C2378 C2383 1.379 . S
C2378 N2385 1.356 . S
C2379 C2378 1.363 . S
C2379 C2382 1.363 . S
N2380 C2382 1.356 . S
N2380 H2392 0.984 . S
N2380 H2393 0.985 . S
N2381 C2383 1.356 . S
N2381 H2386 0.984 . S
N2381 H2387 0.985 . S
C2382 C2376 1.379 . S
C2382 C2379 1.363 . S
C2382 N2380 1.356 . S
C2383 C2377 1.363 . S
C2383 C2378 1.379 . S
C2383 N2381 1.356 . S
N2384 C2376 1.356 . S
N2384 H2390 0.984 . S
N2384 H2391 0.984 . S
N2385 C2378 1.356 . S
N2385 H2388 0.984 . S
N2385 H2389 0.985 . S
H2386 N2381 0.984 . S
H2387 N2381 0.985 . S
H2388 N2385 0.984 . S
H2389 N2385 0.985 . S
H2390 N2384 0.984 . S
H2391 N2384 0.984 . S
H2392 N2380 0.984 . S
H2393 N2380 0.985 . S
C2394 C2395 1.363 . S
C2394 C2400 1.379 . S
C2394 N2402 1.356 . S
C2395 C2394 1.363 . S
C2395 C2401 1.363 . S
C2396 C2397 1.363 . S
C2396 C2401 1.379 . S
C2396 N2403 1.356 1_565 S
C2397 C2396 1.363 . S
C2397 C2400 1.363 . S
N2398 C2400 1.356 . S
N2398 H2410 0.984 . S
N2398 H2411 0.985 . S
N2399 C2401 1.356 . S
N2399 H2404 0.984 . S
N2399 H2405 0.985 . S
C2400 C2394 1.379 . S
C2400 C2397 1.363 . S
C2400 N2398 1.356 . S
C2401 C2395 1.363 . S
C2401 C2396 1.379 . S
C2401 N2399 1.356 . S
N2402 C2394 1.356 . S
N2402 H2408 0.984 . S
N2402 H2409 0.984 . S
N2403 C2396 1.356 1_545 S
N2403 H2406 0.984 . S
N2403 H2407 0.985 . S
H2404 N2399 0.984 . S
H2405 N2399 0.985 . S
H2406 N2403 0.984 . S
H2407 N2403 0.985 . S
H2408 N2402 0.984 . S
H2409 N2402 0.984 . S
H2410 N2398 0.984 . S
H2411 N2398 0.985 . S
C2412 C2413 1.363 . S
C2412 C2418 1.379 . S
C2412 N2420 1.356 . S
C2413 C2412 1.363 . S
C2413 C2419 1.363 . S
C2414 C2415 1.363 . S
C2414 C2419 1.379 . S
C2414 N2421 1.356 . S
C2415 C2414 1.363 . S
C2415 C2418 1.363 . S
N2416 C2418 1.356 1_545 S
N2416 H2428 0.984 . S
N2416 H2429 0.985 . S
N2417 C2419 1.356 . S
N2417 H2422 0.984 . S
N2417 H2423 0.985 . S
C2418 C2412 1.379 . S
C2418 C2415 1.363 . S
C2418 N2416 1.356 1_565 S
C2419 C2413 1.363 . S
C2419 C2414 1.379 . S
C2419 N2417 1.356 . S
N2420 C2412 1.356 . S
N2420 H2426 0.984 . S
N2420 H2427 0.984 . S
N2421 C2414 1.356 . S
N2421 H2424 0.984 . S
N2421 H2425 0.985 . S
H2422 N2417 0.984 . S
H2423 N2417 0.985 . S
H2424 N2421 0.984 . S
H2425 N2421 0.985 . S
H2426 N2420 0.984 . S
H2427 N2420 0.984 . S
H2428 N2416 0.984 . S
H2429 N2416 0.985 . S
C2430 C2431 1.363 . S
C2430 C2436 1.379 . S
C2430 N2438 1.343 1_455 S
C2431 C2430 1.363 . S
C2431 C2437 1.363 . S
C2432 C2433 1.363 . S
C2432 C2437 1.379 . S
C2432 N2439 1.356 . S
C2433 C2432 1.363 . S
C2433 C2436 1.363 . S
N2434 C2436 1.356 . S
N2434 H2446 0.984 . S
N2434 H2447 0.985 . S
N2435 C2437 1.356 . S
N2435 H2440 0.984 . S
N2435 H2441 0.985 . S
C2436 C2430 1.379 . S
C2436 C2433 1.363 . S
C2436 N2434 1.356 . S
C2437 C2431 1.363 . S
C2437 C2432 1.379 . S
C2437 N2435 1.356 . S
N2438 C2430 1.343 1_655 S
N2438 H2444 0.982 . S
N2438 H2445 1.001 . S
N2439 C2432 1.356 . S
N2439 H2442 0.984 . S
N2439 H2443 0.985 . S
H2440 N2435 0.984 . S
H2441 N2435 0.985 . S
H2442 N2439 0.984 . S
H2443 N2439 0.985 . S
H2444 N2438 0.982 . S
H2445 N2438 1.001 . S
H2446 N2434 0.984 . S
H2447 N2434 0.985 . S
C2448 C2449 1.363 . S
C2448 C2454 1.379 . S
C2448 N2456 1.356 . S
C2449 C2448 1.363 . S
C2449 C2455 1.363 . S
C2450 C2451 1.363 . S
C2450 C2455 1.379 . S
C2450 N2457 1.356 . S
C2451 C2450 1.363 . S
C2451 C2454 1.363 . S
N2452 C2454 1.356 . S
N2452 H2464 0.984 . S
N2452 H2465 0.985 . S
N2453 C2455 1.356 . S
N2453 H2458 0.984 . S
N2453 H2459 0.985 . S
C2454 C2448 1.379 . S
C2454 C2451 1.363 . S
C2454 N2452 1.356 . S
C2455 C2449 1.363 . S
C2455 C2450 1.379 . S
C2455 N2453 1.356 . S
N2456 C2448 1.356 . S
N2456 H2462 0.984 . S
N2456 H2463 0.984 . S
N2457 C2450 1.356 . S
N2457 H2460 0.984 . S
N2457 H2461 0.985 . S
H2458 N2453 0.984 . S
H2459 N2453 0.985 . S
H2460 N2457 0.984 . S
H2461 N2457 0.985 . S
H2462 N2456 0.984 . S
H2463 N2456 0.984 . S
H2464 N2452 0.984 . S
H2465 N2452 0.985 . S
C2466 C2467 1.318 1_554 S
C2466 C2472 1.379 1_565 S
C2466 N2474 1.356 . S
C2467 C2466 1.318 1_556 S
C2467 C2473 1.418 . S
C2468 C2469 1.363 1_565 S
C2468 C2473 1.379 . S
C2468 N2475 1.356 1_565 S
C2469 C2468 1.363 1_545 S
C2469 C2472 1.363 1_556 S
N2470 C2472 1.356 . S
N2470 H2482 0.984 . S
N2470 H2483 0.985 . S
N2471 C2473 1.356 . S
N2471 H2476 0.984 . S
N2471 H2477 0.985 . S
C2472 C2466 1.379 1_545 S
C2472 C2469 1.363 1_554 S
C2472 N2470 1.356 . S
C2473 C2467 1.418 . S
C2473 C2468 1.379 . S
C2473 N2471 1.356 . S
N2474 C2466 1.356 . S
N2474 H2480 0.984 . S
N2474 H2481 0.984 . S
N2475 C2468 1.356 1_545 S
N2475 H2478 0.984 . S
N2475 H2479 0.985 . S
H2476 N2471 0.984 . S
H2477 N2471 0.985 . S
H2478 N2475 0.984 . S
H2479 N2475 0.985 . S
H2480 N2474 0.984 . S
H2481 N2474 0.984 . S
H2482 N2470 0.984 . S
H2483 N2470 0.985 . S
C2484 C2485 1.387 . S
C2484 C2490 1.379 . S
C2484 N2492 1.356 . S
C2485 C2484 1.387 . S
C2485 C2491 1.350 1_556 S
C2486 C2487 1.354 1_554 S
C2486 C2491 1.382 1_655 S
C2486 N2493 1.360 . S
C2487 C2486 1.354 1_556 S
C2487 C2490 1.363 1_655 S
N2488 C2490 1.356 1_655 S
N2488 H2500 0.984 . S
N2488 H2501 0.985 . S
N2489 C2491 1.356 . S
N2489 H2494 0.984 . S
N2489 H2495 0.985 . S
C2490 C2484 1.379 . S
C2490 C2487 1.363 1_455 S
C2490 N2488 1.356 1_455 S
C2491 C2485 1.350 1_554 S
C2491 C2486 1.382 1_455 S
C2491 N2489 1.356 . S
N2492 C2484 1.356 . S
N2492 H2498 0.984 . S
N2492 H2499 0.984 . S
N2493 C2486 1.360 . S
N2493 H2496 0.981 1_554 S
N2493 H2497 0.985 . S
H2494 N2489 0.984 . S
H2495 N2489 0.985 . S
H2496 N2493 0.981 1_556 S
H2497 N2493 0.985 . S
H2498 N2492 0.984 . S
H2499 N2492 0.984 . S
H2500 N2488 0.984 . S
H2501 N2488 0.985 . S
C2502 C2503 1.363 1_554 S
C2502 C2508 1.379 . S
C2502 N2510 1.356 . S
C2503 C2502 1.363 1_556 S
C2503 C2509 1.363 . S
C2504 C2505 1.432 . S
C2504 C2509 1.379 . S
C2504 N2511 1.356 . S
C2505 C2504 1.432 . S
C2505 C2508 1.310 1_556 S
N2506 C2508 1.356 . S
N2506 H2518 0.984 . S
N2506 H2519 0.985 . S
N2507 C2509 1.356 . S
N2507 H2512 0.984 . S
N2507 H2513 0.985 . S
C2508 C2502 1.379 . S
C2508 C2505 1.310 1_554 S
C2508 N2506 1.356 . S
C2509 C2503 1.363 . S
C2509 C2504 1.379 . S
C2509 N2507 1.356 . S
N2510 C2502 1.356 . S
N2510 H2516 0.984 . S
N2510 H2517 0.984 . S
N2511 C2504 1.356 . S
N2511 H2514 0.984 . S
N2511 H2515 0.985 . S
H2512 N2507 0.984 . S
H2513 N2507 0.985 . S
H2514 N2511 0.984 . S
H2515 N2511 0.985 . S
H2516 N2510 0.984 . S
H2517 N2510 0.984 . S
H2518 N2506 0.984 . S
H2519 N2506 0.985 . S
C2520 C2521 1.363 . S
C2520 C2526 1.379 . S
C2520 N2528 1.356 . S
C2521 C2520 1.363 . S
C2521 C2527 1.363 . S
C2522 C2523 1.363 . S
C2522 C2527 1.379 . S
C2522 N2529 1.356 . S
C2523 C2522 1.363 . S
C2523 C2526 1.363 . S
N2524 C2526 1.356 1_565 S
N2524 H2536 0.984 . S
N2524 H2537 0.985 . S
N2525 C2527 1.356 . S
N2525 H2530 0.984 . S
N2525 H2531 0.985 . S
C2526 C2520 1.379 . S
C2526 C2523 1.363 . S
C2526 N2524 1.356 1_545 S
C2527 C2521 1.363 . S
C2527 C2522 1.379 . S
C2527 N2525 1.356 . S
N2528 C2520 1.356 . S
N2528 H2534 0.984 . S
N2528 H2535 0.984 . S
N2529 C2522 1.356 . S
N2529 H2532 0.984 . S
N2529 H2533 0.985 . S
H2530 N2525 0.984 . S
H2531 N2525 0.985 . S
H2532 N2529 0.984 . S
H2533 N2529 0.985 . S
H2534 N2528 0.984 . S
H2535 N2528 0.984 . S
H2536 N2524 0.984 . S
H2537 N2524 0.985 . S
C2538 C2539 1.363 . S
C2538 C2544 1.379 . S
C2538 N2546 1.356 . S
C2539 C2538 1.363 . S
C2539 C2545 1.363 . S
C2540 C2541 1.363 . S
C2540 C2545 1.379 . S
C2540 N2547 1.356 . S
C2541 C2540 1.363 . S
C2541 C2544 1.363 . S
N2542 C2544 1.356 . S
N2542 H2554 0.984 . S
N2542 H2555 0.985 . S
N2543 C2545 1.356 . S
N2543 H2548 0.984 . S
N2543 H2549 0.985 . S
C2544 C2538 1.379 . S
C2544 C2541 1.363 . S
C2544 N2542 1.356 . S
C2545 C2539 1.363 . S
C2545 C2540 1.379 . S
C2545 N2543 1.356 . S
N2546 C2538 1.356 . S
N2546 H2552 0.984 . S
N2546 H2553 0.984 . S
N2547 C2540 1.356 . S
N2547 H2550 0.984 1_655 S
N2547 H2551 0.985 . S
H2548 N2543 0.984 . S
H2549 N2543 0.985 . S
H2550 N2547 0.984 1_455 S
H2551 N2547 0.985 . S
H2552 N2546 0.984 . S
H2553 N2546 0.984 . S
H2554 N2542 0.984 . S
H2555 N2542 0.985 . S
C2556 C2557 1.363 . S
C2556 C2562 1.379 . S
C2556 N2564 1.356 . S
C2557 C2556 1.363 . S
C2557 C2563 1.363 . S
C2558 C2559 1.363 . S
C2558 C2563 1.379 . S
C2558 N2565 1.356 . S
C2559 C2558 1.363 . S
C2559 C2562 1.363 . S
N2560 C2562 1.356 . S
N2560 H2572 0.984 . S
N2560 H2573 0.985 . S
N2561 C2563 1.356 . S
N2561 H2566 0.984 . S
N2561 H2567 0.985 . S
C2562 C2556 1.379 . S
C2562 C2559 1.363 . S
C2562 N2560 1.356 . S
C2563 C2557 1.363 . S
C2563 C2558 1.379 . S
C2563 N2561 1.356 . S
N2564 C2556 1.356 . S
N2564 H2570 0.984 . S
N2564 H2571 0.984 . S
N2565 C2558 1.356 . S
N2565 H2568 0.984 . S
N2565 H2569 0.985 . S
H2566 N2561 0.984 . S
H2567 N2561 0.985 . S
H2568 N2565 0.984 . S
H2569 N2565 0.985 . S
H2570 N2564 0.984 . S
H2571 N2564 0.984 . S
H2572 N2560 0.984 . S
H2573 N2560 0.985 . S
C2574 C2575 1.363 1_556 S
C2574 C2580 1.379 1_565 S
C2574 N2582 1.356 . S
C2575 C2574 1.363 1_554 S
C2575 C2581 1.363 1_565 S
C2576 C2577 1.429 . S
C2576 C2581 1.379 . S
C2576 N2583 1.356 . S
C2577 C2576 1.429 . S
C2577 C2580 1.314 1_554 S
N2578 C2580 1.356 . S
N2578 H2590 0.984 . S
N2578 H2591 0.985 . S
N2579 C2581 1.356 1_565 S
N2579 H2584 0.984 . S
N2579 H2585 0.985 . S
C2580 C2574 1.379 1_545 S
C2580 C2577 1.314 1_556 S
C2580 N2578 1.356 . S
C2581 C2575 1.363 1_545 S
C2581 C2576 1.379 . S
C2581 N2579 1.356 1_545 S
N2582 C2574 1.356 . S
N2582 H2588 0.984 . S
N2582 H2589 0.984 . S
N2583 C2576 1.356 . S
N2583 H2586 0.984 . S
N2583 H2587 0.985 . S
H2584 N2579 0.984 . S
H2585 N2579 0.985 . S
H2586 N2583 0.984 . S
H2587 N2583 0.985 . S
H2588 N2582 0.984 . S
H2589 N2582 0.984 . S
H2590 N2578 0.984 . S
H2591 N2578 0.985 . S
C2592 C2593 1.415 . S
C2592 C2598 1.379 . S
C2592 N2600 1.356 . S
C2593 C2592 1.415 . S
C2593 C2599 1.321 1_554 S
C2594 C2595 1.363 1_556 S
C2594 C2599 1.379 1_455 S
C2594 N2601 1.356 . S
C2595 C2594 1.363 1_554 S
C2595 C2598 1.363 1_455 S
N2596 C2598 1.356 1_455 S
N2596 H2608 0.984 . S
N2596 H2609 0.985 . S
N2597 C2599 1.356 . S
N2597 H2602 0.984 . S
N2597 H2603 0.985 . S
C2598 C2592 1.379 . S
C2598 C2595 1.363 1_655 S
C2598 N2596 1.356 1_655 S
C2599 C2593 1.321 1_556 S
C2599 C2594 1.379 1_655 S
C2599 N2597 1.356 . S
N2600 C2592 1.356 . S
N2600 H2606 0.984 . S
N2600 H2607 0.984 . S
N2601 C2594 1.356 . S
N2601 H2604 0.984 . S
N2601 H2605 0.985 . S
H2602 N2597 0.984 . S
H2603 N2597 0.985 . S
H2604 N2601 0.984 . S
H2605 N2601 0.985 . S
H2606 N2600 0.984 . S
H2607 N2600 0.984 . S
H2608 N2596 0.984 . S
H2609 N2596 0.985 . S
C2610 C2611 1.363 . S
C2610 C2616 1.379 . S
C2610 N2618 1.356 . S
C2611 C2610 1.363 . S
C2611 C2617 1.363 1_554 S
C2612 C2613 1.307 1_556 S
C2612 C2617 1.379 . S
C2612 N2619 1.356 . S
C2613 C2612 1.307 1_554 S
C2613 C2616 1.435 . S
N2614 C2616 1.356 . S
N2614 H2626 0.984 . S
N2614 H2627 0.985 . S
N2615 C2617 1.356 . S
N2615 H2620 0.984 . S
N2615 H2621 0.985 . S
C2616 C2610 1.379 . S
C2616 C2613 1.435 . S
C2616 N2614 1.356 . S
C2617 C2611 1.363 1_556 S
C2617 C2612 1.379 . S
C2617 N2615 1.356 . S
N2618 C2610 1.356 . S
N2618 H2624 0.984 . S
N2618 H2625 0.984 . S
N2619 C2612 1.356 . S
N2619 H2622 0.984 . S
N2619 H2623 0.985 . S
H2620 N2615 0.984 . S
H2621 N2615 0.985 . S
H2622 N2619 0.984 . S
H2623 N2619 0.985 . S
H2624 N2618 0.984 . S
H2625 N2618 0.984 . S
H2626 N2614 0.984 . S
H2627 N2614 0.985 . S
C2628 C2629 1.363 . S
C2628 C2634 1.379 1_455 S
C2628 N2636 1.356 . S
C2629 C2628 1.363 . S
C2629 C2635 1.363 1_455 S
C2630 C2631 1.363 . S
C2630 C2635 1.379 . S
C2630 N2637 1.356 . S
C2631 C2630 1.363 . S
C2631 C2634 1.363 . S
N2632 C2634 1.356 . S
N2632 H2644 0.984 . S
N2632 H2645 0.985 . S
N2633 C2635 1.356 1_455 S
N2633 H2638 0.984 . S
N2633 H2639 0.985 . S
C2634 C2628 1.379 1_655 S
C2634 C2631 1.363 . S
C2634 N2632 1.356 . S
C2635 C2629 1.363 1_655 S
C2635 C2630 1.379 . S
C2635 N2633 1.356 1_655 S
N2636 C2628 1.356 . S
N2636 H2642 0.984 . S
N2636 H2643 0.984 . S
N2637 C2630 1.356 . S
N2637 H2640 0.984 . S
N2637 H2641 0.985 . S
H2638 N2633 0.984 . S
H2639 N2633 0.985 . S
H2640 N2637 0.984 . S
H2641 N2637 0.985 . S
H2642 N2636 0.984 . S
H2643 N2636 0.984 . S
H2644 N2632 0.984 . S
H2645 N2632 0.985 . S
C2646 C2647 1.363 . S
C2646 C2652 1.379 . S
C2646 N2654 1.356 . S
C2647 C2646 1.363 . S
C2647 C2653 1.363 . S
C2648 C2649 1.363 . S
C2648 C2653 1.379 . S
C2648 N2655 1.356 . S
C2649 C2648 1.363 . S
C2649 C2652 1.363 . S
N2650 C2652 1.356 . S
N2650 H2662 0.984 . S
N2650 H2663 0.985 . S
N2651 C2653 1.356 . S
N2651 H2656 0.984 . S
N2651 H2657 0.985 . S
C2652 C2646 1.379 . S
C2652 C2649 1.363 . S
C2652 N2650 1.356 . S
C2653 C2647 1.363 . S
C2653 C2648 1.379 . S
C2653 N2651 1.356 . S
N2654 C2646 1.356 . S
N2654 H2660 0.984 . S
N2654 H2661 0.984 . S
N2655 C2648 1.356 . S
N2655 H2658 0.984 . S
N2655 H2659 0.985 . S
H2656 N2651 0.984 . S
H2657 N2651 0.985 . S
H2658 N2655 0.984 . S
H2659 N2655 0.985 . S
H2660 N2654 0.984 . S
H2661 N2654 0.984 . S
H2662 N2650 0.984 . S
H2663 N2650 0.985 . S
C2664 C2665 1.363 1_545 S
C2664 C2670 1.379 . S
C2664 N2672 1.356 1_545 S
C2665 C2664 1.363 1_565 S
C2665 C2671 1.363 . S
C2666 C2667 1.363 . S
C2666 C2671 1.379 1_545 S
C2666 N2673 1.356 . S
C2667 C2666 1.363 . S
C2667 C2670 1.363 . S
N2668 C2670 1.356 . S
N2668 H2680 0.984 . S
N2668 H2681 0.985 . S
N2669 C2671 1.356 . S
N2669 H2674 0.984 . S
N2669 H2675 0.985 . S
C2670 C2664 1.379 . S
C2670 C2667 1.363 . S
C2670 N2668 1.356 . S
C2671 C2665 1.363 . S
C2671 C2666 1.379 1_565 S
C2671 N2669 1.356 . S
N2672 C2664 1.356 1_565 S
N2672 H2678 0.984 . S
N2672 H2679 0.984 . S
N2673 C2666 1.356 . S
N2673 H2676 0.984 . S
N2673 H2677 0.985 . S
H2674 N2669 0.984 . S
H2675 N2669 0.985 . S
H2676 N2673 0.984 . S
H2677 N2673 0.985 . S
H2678 N2672 0.984 . S
H2679 N2672 0.984 . S
H2680 N2668 0.984 . S
H2681 N2668 0.985 . S
C2682 C2683 1.363 . S
C2682 C2688 1.379 . S
C2682 N2690 1.356 . S
C2683 C2682 1.363 . S
C2683 C2689 1.363 . S
C2684 C2685 1.363 . S
C2684 C2689 1.379 . S
C2684 N2691 1.356 . S
C2685 C2684 1.363 . S
C2685 C2688 1.363 . S
N2686 C2688 1.356 . S
N2686 H2698 0.984 . S
N2686 H2699 0.985 . S
N2687 C2689 1.356 1_455 S
N2687 H2692 0.984 . S
N2687 H2693 0.985 . S
C2688 C2682 1.379 . S
C2688 C2685 1.363 . S
C2688 N2686 1.356 . S
C2689 C2683 1.363 . S
C2689 C2684 1.379 . S
C2689 N2687 1.356 1_655 S
N2690 C2682 1.356 . S
N2690 H2696 0.984 . S
N2690 H2697 0.984 . S
N2691 C2684 1.356 . S
N2691 H2694 0.984 . S
N2691 H2695 0.985 . S
H2692 N2687 0.984 . S
H2693 N2687 0.985 . S
H2694 N2691 0.984 . S
H2695 N2691 0.985 . S
H2696 N2690 0.984 . S
H2697 N2690 0.984 . S
H2698 N2686 0.984 . S
H2699 N2686 0.985 . S
C2700 C2701 1.363 . S
C2700 C2706 1.379 . S
C2700 N2708 1.356 . S
C2701 C2700 1.363 . S
C2701 C2707 1.363 . S
C2702 C2703 1.363 . S
C2702 C2707 1.379 . S
C2702 N2709 1.356 . S
C2703 C2702 1.363 . S
C2703 C2706 1.363 . S
N2704 C2706 1.356 . S
N2704 H2716 0.984 . S
N2704 H2717 0.985 . S
N2705 C2707 1.356 . S
N2705 H2710 0.984 . S
N2705 H2711 0.985 . S
C2706 C2700 1.379 . S
C2706 C2703 1.363 . S
C2706 N2704 1.356 . S
C2707 C2701 1.363 . S
C2707 C2702 1.379 . S
C2707 N2705 1.356 . S
N2708 C2700 1.356 . S
N2708 H2714 0.984 . S
N2708 H2715 0.984 . S
N2709 C2702 1.356 . S
N2709 H2712 0.984 . S
N2709 H2713 0.985 . S
H2710 N2705 0.984 . S
H2711 N2705 0.985 . S
H2712 N2709 0.984 . S
H2713 N2709 0.985 . S
H2714 N2708 0.984 . S
H2715 N2708 0.984 . S
H2716 N2704 0.984 . S
H2717 N2704 0.985 . S
C2718 C2719 1.363 . S
C2718 C2724 1.379 . S
C2718 N2726 1.356 . S
C2719 C2718 1.363 . S
C2719 C2725 1.363 . S
C2720 C2721 1.363 . S
C2720 C2725 1.379 . S
C2720 N2727 1.356 1_545 S
C2721 C2720 1.363 . S
C2721 C2724 1.363 . S
N2722 C2724 1.356 . S
N2722 H2734 0.984 . S
N2722 H2735 0.985 . S
N2723 C2725 1.356 . S
N2723 H2728 0.984 . S
N2723 H2729 0.985 . S
C2724 C2718 1.379 . S
C2724 C2721 1.363 . S
C2724 N2722 1.356 . S
C2725 C2719 1.363 . S
C2725 C2720 1.379 . S
C2725 N2723 1.356 . S
N2726 C2718 1.356 . S
N2726 H2732 0.984 . S
N2726 H2733 0.984 . S
N2727 C2720 1.356 1_565 S
N2727 H2730 0.984 . S
N2727 H2731 0.985 . S
H2728 N2723 0.984 . S
H2729 N2723 0.985 . S
H2730 N2727 0.984 . S
H2731 N2727 0.985 . S
H2732 N2726 0.984 . S
H2733 N2726 0.984 . S
H2734 N2722 0.984 . S
H2735 N2722 0.985 . S
C2736 C2737 1.363 . S
C2736 C2742 1.379 . S
C2736 N2744 1.356 . S
C2737 C2736 1.363 . S
C2737 C2743 1.363 . S
C2738 C2739 1.363 . S
C2738 C2743 1.379 . S
C2738 N2745 1.356 . S
C2739 C2738 1.363 . S
C2739 C2742 1.363 . S
N2740 C2742 1.356 . S
N2740 H2752 0.984 . S
N2740 H2753 0.985 . S
N2741 C2743 1.356 . S
N2741 H2746 0.984 . S
N2741 H2747 0.985 . S
C2742 C2736 1.379 . S
C2742 C2739 1.363 . S
C2742 N2740 1.356 . S
C2743 C2737 1.363 . S
C2743 C2738 1.379 . S
C2743 N2741 1.356 . S
N2744 C2736 1.356 . S
N2744 H2750 0.984 . S
N2744 H2751 0.984 . S
N2745 C2738 1.356 . S
N2745 H2748 0.984 . S
N2745 H2749 0.985 . S
H2746 N2741 0.984 . S
H2747 N2741 0.985 . S
H2748 N2745 0.984 . S
H2749 N2745 0.985 . S
H2750 N2744 0.984 . S
H2751 N2744 0.984 . S
H2752 N2740 0.984 . S
H2753 N2740 0.985 . S
C2754 C2755 1.363 . S
C2754 C2760 1.379 . S
C2754 N2762 1.356 . S
C2755 C2754 1.363 . S
C2755 C2761 1.363 . S
C2756 C2757 1.363 . S
C2756 C2761 1.379 . S
C2756 N2763 1.356 . S
C2757 C2756 1.363 . S
C2757 C2760 1.363 . S
N2758 C2760 1.356 . S
N2758 H2770 0.984 . S
N2758 H2771 0.985 . S
N2759 C2761 1.356 . S
N2759 H2764 0.984 . S
N2759 H2765 0.985 1_565 S
C2760 C2754 1.379 . S
C2760 C2757 1.363 . S
C2760 N2758 1.356 . S
C2761 C2755 1.363 . S
C2761 C2756 1.379 . S
C2761 N2759 1.356 . S
N2762 C2754 1.356 . S
N2762 H2768 0.984 . S
N2762 H2769 0.984 . S
N2763 C2756 1.356 . S
N2763 H2766 0.984 . S
N2763 H2767 0.985 1_565 S
H2764 N2759 0.984 . S
H2765 N2759 0.985 1_545 S
H2766 N2763 0.984 . S
H2767 N2763 0.985 1_545 S
H2768 N2762 0.984 . S
H2769 N2762 0.984 . S
H2770 N2758 0.984 . S
H2771 N2758 0.985 . S
C2772 C2773 1.363 . S
C2772 C2778 1.379 . S
C2772 N2780 1.356 . S
C2773 C2772 1.363 . S
C2773 C2779 1.363 . S
C2774 C2775 1.363 . S
C2774 C2779 1.379 . S
C2774 N2781 1.356 . S
C2775 C2774 1.363 . S
C2775 C2778 1.363 . S
N2776 C2778 1.356 . S
N2776 H2788 0.984 . S
N2776 H2789 0.985 . S
N2777 C2779 1.356 . S
N2777 H2782 0.984 . S
N2777 H2783 0.985 . S
C2778 C2772 1.379 . S
C2778 C2775 1.363 . S
C2778 N2776 1.356 . S
C2779 C2773 1.363 . S
C2779 C2774 1.379 . S
C2779 N2777 1.356 . S
N2780 C2772 1.356 . S
N2780 H2786 0.984 . S
N2780 H2787 0.984 . S
N2781 C2774 1.356 . S
N2781 H2784 0.984 . S
N2781 H2785 0.985 . S
H2782 N2777 0.984 . S
H2783 N2777 0.985 . S
H2784 N2781 0.984 . S
H2785 N2781 0.985 . S
H2786 N2780 0.984 . S
H2787 N2780 0.984 . S
H2788 N2776 0.984 . S
H2789 N2776 0.985 . S
C2790 C2791 1.363 . S
C2790 C2796 1.379 . S
C2790 N2798 1.356 . S
C2791 C2790 1.363 . S
C2791 C2797 1.363 . S
C2792 C2793 1.363 . S
C2792 C2797 1.379 . S
C2792 N2799 1.356 . S
C2793 C2792 1.363 . S
C2793 C2796 1.363 . S
N2794 C2796 1.356 . S
N2794 H2806 0.984 . S
N2794 H2807 0.985 . S
N2795 C2797 1.356 . S
N2795 H2800 0.984 . S
N2795 H2801 0.985 . S
C2796 C2790 1.379 . S
C2796 C2793 1.363 . S
C2796 N2794 1.356 . S
C2797 C2791 1.363 . S
C2797 C2792 1.379 . S
C2797 N2795 1.356 . S
N2798 C2790 1.356 . S
N2798 H2804 0.984 . S
N2798 H2805 0.984 . S
N2799 C2792 1.356 . S
N2799 H2802 0.984 . S
N2799 H2803 0.985 . S
H2800 N2795 0.984 . S
H2801 N2795 0.985 . S
H2802 N2799 0.984 . S
H2803 N2799 0.985 . S
H2804 N2798 0.984 . S
H2805 N2798 0.984 . S
H2806 N2794 0.984 . S
H2807 N2794 0.985 . S
C2808 C2809 1.363 . S
C2808 C2814 1.379 . S
C2808 N2816 1.356 . S
C2809 C2808 1.363 . S
C2809 C2815 1.363 . S
C2810 C2811 1.363 . S
C2810 C2815 1.379 . S
C2810 N2817 1.356 . S
C2811 C2810 1.363 . S
C2811 C2814 1.363 . S
N2812 C2814 1.356 1_565 S
N2812 H2824 0.984 . S
N2812 H2825 0.985 1_565 S
N2813 C2815 1.356 . S
N2813 H2818 0.984 . S
N2813 H2819 0.985 . S
C2814 C2808 1.379 . S
C2814 C2811 1.363 . S
C2814 N2812 1.356 1_545 S
C2815 C2809 1.363 . S
C2815 C2810 1.379 . S
C2815 N2813 1.356 . S
N2816 C2808 1.356 . S
N2816 H2822 0.984 1_545 S
N2816 H2823 0.984 . S
N2817 C2810 1.356 . S
N2817 H2820 0.984 . S
N2817 H2821 0.985 . S
H2818 N2813 0.984 . S
H2819 N2813 0.985 . S
H2820 N2817 0.984 . S
H2821 N2817 0.985 . S
H2822 N2816 0.984 1_565 S
H2823 N2816 0.984 . S
H2824 N2812 0.984 . S
H2825 N2812 0.985 1_545 S
C2826 C2827 1.363 . S
C2826 C2832 1.379 . S
C2826 N2834 1.356 . S
C2827 C2826 1.363 . S
C2827 C2833 1.363 . S
C2828 C2829 1.363 . S
C2828 C2833 1.379 . S
C2828 N2835 1.356 . S
C2829 C2828 1.363 . S
C2829 C2832 1.363 . S
N2830 C2832 1.356 . S
N2830 H2842 0.984 . S
N2830 H2843 0.985 . S
N2831 C2833 1.356 . S
N2831 H2836 0.984 . S
N2831 H2837 0.985 . S
C2832 C2826 1.379 . S
C2832 C2829 1.363 . S
C2832 N2830 1.356 . S
C2833 C2827 1.363 . S
C2833 C2828 1.379 . S
C2833 N2831 1.356 . S
N2834 C2826 1.356 . S
N2834 H2840 0.984 . S
N2834 H2841 0.984 . S
N2835 C2828 1.356 . S
N2835 H2838 0.984 . S
N2835 H2839 0.985 . S
H2836 N2831 0.984 . S
H2837 N2831 0.985 . S
H2838 N2835 0.984 . S
H2839 N2835 0.985 . S
H2840 N2834 0.984 . S
H2841 N2834 0.984 . S
H2842 N2830 0.984 . S
H2843 N2830 0.985 . S
C2844 C2845 1.363 . S
C2844 C2850 1.379 . S
C2844 N2852 1.356 . S
C2845 C2844 1.363 . S
C2845 C2851 1.363 . S
C2846 C2847 1.363 . S
C2846 C2851 1.379 . S
C2846 N2853 1.356 . S
C2847 C2846 1.363 . S
C2847 C2850 1.363 . S
N2848 C2850 1.356 . S
N2848 H2860 0.984 . S
N2848 H2861 0.985 . S
N2849 C2851 1.356 . S
N2849 H2854 0.984 . S
N2849 H2855 0.985 . S
C2850 C2844 1.379 . S
C2850 C2847 1.363 . S
C2850 N2848 1.356 . S
C2851 C2845 1.363 . S
C2851 C2846 1.379 . S
C2851 N2849 1.356 . S
N2852 C2844 1.356 . S
N2852 H2858 0.984 . S
N2852 H2859 0.984 . S
N2853 C2846 1.356 . S
N2853 H2856 0.984 . S
N2853 H2857 0.985 . S
H2854 N2849 0.984 . S
H2855 N2849 0.985 . S
H2856 N2853 0.984 . S
H2857 N2853 0.985 . S
H2858 N2852 0.984 . S
H2859 N2852 0.984 . S
H2860 N2848 0.984 . S
H2861 N2848 0.985 . S
C2862 C2863 1.363 . S
C2862 C2868 1.379 . S
C2862 N2870 1.356 . S
C2863 C2862 1.363 . S
C2863 C2869 1.363 . S
C2864 C2865 1.363 . S
C2864 C2869 1.379 . S
C2864 N2871 1.356 1_545 S
C2865 C2864 1.363 . S
C2865 C2868 1.363 . S
N2866 C2868 1.356 . S
N2866 H2878 0.984 . S
N2866 H2879 0.985 . S
N2867 C2869 1.356 1_565 S
N2867 H2872 0.984 1_565 S
N2867 H2873 0.985 . S
C2868 C2862 1.379 . S
C2868 C2865 1.363 . S
C2868 N2866 1.356 . S
C2869 C2863 1.363 . S
C2869 C2864 1.379 . S
C2869 N2867 1.356 1_545 S
N2870 C2862 1.356 . S
N2870 H2876 0.984 . S
N2870 H2877 0.984 . S
N2871 C2864 1.356 1_565 S
N2871 H2874 0.984 . S
N2871 H2875 0.985 . S
H2872 N2867 0.984 1_545 S
H2873 N2867 0.985 . S
H2874 N2871 0.984 . S
H2875 N2871 0.985 . S
H2876 N2870 0.984 . S
H2877 N2870 0.984 . S
H2878 N2866 0.984 . S
H2879 N2866 0.985 . S
C2880 C2881 1.363 . S
C2880 C2886 1.379 . S
C2880 N2888 1.356 . S
C2881 C2880 1.363 . S
C2881 C2887 1.363 . S
C2882 C2883 1.363 . S
C2882 C2887 1.379 . S
C2882 N2889 1.356 1_655 S
C2883 C2882 1.363 . S
C2883 C2886 1.363 . S
N2884 C2886 1.356 . S
N2884 H2896 0.984 . S
N2884 H2897 0.985 . S
N2885 C2887 1.356 1_455 S
N2885 H2890 0.984 1_455 S
N2885 H2891 0.985 . S
C2886 C2880 1.379 . S
C2886 C2883 1.363 . S
C2886 N2884 1.356 . S
C2887 C2881 1.363 . S
C2887 C2882 1.379 . S
C2887 N2885 1.356 1_655 S
N2888 C2880 1.356 . S
N2888 H2894 0.984 . S
N2888 H2895 0.984 . S
N2889 C2882 1.356 1_455 S
N2889 H2892 0.984 . S
N2889 H2893 0.985 . S
H2890 N2885 0.984 1_655 S
H2891 N2885 0.985 . S
H2892 N2889 0.984 . S
H2893 N2889 0.985 . S
H2894 N2888 0.984 . S
H2895 N2888 0.984 . S
H2896 N2884 0.984 . S
H2897 N2884 0.985 . S
C2898 C2899 1.363 . S
C2898 C2904 1.379 . S
C2898 N2906 1.356 . S
C2899 C2898 1.363 . S
C2899 C2905 1.363 . S
C2900 C2901 1.363 . S
C2900 C2905 1.379 . S
C2900 N2907 1.356 . S
C2901 C2900 1.363 . S
C2901 C2904 1.363 . S
N2902 C2904 1.356 . S
N2902 H2914 0.984 . S
N2902 H2915 0.985 . S
N2903 C2905 1.356 . S
N2903 H2908 0.984 . S
N2903 H2909 0.985 . S
C2904 C2898 1.379 . S
C2904 C2901 1.363 . S
C2904 N2902 1.356 . S
C2905 C2899 1.363 . S
C2905 C2900 1.379 . S
C2905 N2903 1.356 . S
N2906 C2898 1.356 . S
N2906 H2912 0.984 . S
N2906 H2913 0.984 . S
N2907 C2900 1.356 . S
N2907 H2910 0.984 . S
N2907 H2911 0.985 . S
H2908 N2903 0.984 . S
H2909 N2903 0.985 . S
H2910 N2907 0.984 . S
H2911 N2907 0.985 . S
H2912 N2906 0.984 . S
H2913 N2906 0.984 . S
H2914 N2902 0.984 . S
H2915 N2902 0.985 . S
C2916 C2917 1.363 . S
C2916 C2922 1.379 . S
C2916 N2924 1.356 . S
C2917 C2916 1.363 . S
C2917 C2923 1.363 . S
C2918 C2919 1.363 . S
C2918 C2923 1.379 . S
C2918 N2925 1.357 1_565 S
C2919 C2918 1.363 . S
C2919 C2922 1.363 . S
N2920 C2922 1.356 . S
N2920 H2932 0.984 . S
N2920 H2933 0.985 . S
N2921 C2923 1.356 1_545 S
N2921 H2926 0.984 . S
N2921 H2927 0.985 . S
C2922 C2916 1.379 . S
C2922 C2919 1.363 . S
C2922 N2920 1.356 . S
C2923 C2917 1.363 . S
C2923 C2918 1.379 . S
C2923 N2921 1.356 1_565 S
N2924 C2916 1.356 . S
N2924 H2930 0.984 . S
N2924 H2931 0.984 . S
N2925 C2918 1.357 1_545 S
N2925 H2928 0.985 1_545 S
N2925 H2929 0.984 . S
H2926 N2921 0.984 . S
H2927 N2921 0.985 . S
H2928 N2925 0.985 1_565 S
H2929 N2925 0.984 . S
H2930 N2924 0.984 . S
H2931 N2924 0.984 . S
H2932 N2920 0.984 . S
H2933 N2920 0.985 . S
C2934 C2935 1.363 . S
C2934 C2940 1.379 . S
C2934 N2942 1.356 1_455 S
C2935 C2934 1.363 . S
C2935 C2941 1.363 . S
C2936 C2937 1.363 . S
C2936 C2941 1.379 . S
C2936 N2943 1.356 . S
C2937 C2936 1.363 . S
C2937 C2940 1.363 . S
N2938 C2940 1.356 1_655 S
N2938 H2950 0.984 . S
N2938 H2951 0.985 1_655 S
N2939 C2941 1.356 . S
N2939 H2944 0.984 . S
N2939 H2945 0.985 . S
C2940 C2934 1.379 . S
C2940 C2937 1.363 . S
C2940 N2938 1.356 1_455 S
C2941 C2935 1.363 . S
C2941 C2936 1.379 . S
C2941 N2939 1.356 . S
N2942 C2934 1.356 1_655 S
N2942 H2948 0.984 . S
N2942 H2949 0.984 . S
N2943 C2936 1.356 . S
N2943 H2946 0.984 . S
N2943 H2947 0.985 . S
H2944 N2939 0.984 . S
H2945 N2939 0.985 . S
H2946 N2943 0.984 . S
H2947 N2943 0.985 . S
H2948 N2942 0.984 . S
H2949 N2942 0.984 . S
H2950 N2938 0.984 . S
H2951 N2938 0.985 1_455 S
C2952 C2953 1.363 1_655 S
C2952 C2958 1.379 . S
C2952 N2960 1.356 . S
C2953 C2952 1.363 1_455 S
C2953 C2959 1.363 . S
C2954 C2955 1.363 1_455 S
C2954 C2959 1.379 . S
C2954 N2961 1.356 . S
C2955 C2954 1.363 1_655 S
C2955 C2958 1.363 . S
N2956 C2958 1.356 . S
N2956 H2968 0.984 . S
N2956 H2969 0.985 . S
N2957 C2959 1.356 . S
N2957 H2962 0.984 . S
N2957 H2963 0.985 . S
C2958 C2952 1.379 . S
C2958 C2955 1.363 . S
C2958 N2956 1.356 . S
C2959 C2953 1.363 . S
C2959 C2954 1.379 . S
C2959 N2957 1.356 . S
N2960 C2952 1.356 . S
N2960 H2966 0.984 . S
N2960 H2967 0.984 . S
N2961 C2954 1.356 . S
N2961 H2964 0.984 . S
N2961 H2965 0.985 . S
H2962 N2957 0.984 . S
H2963 N2957 0.985 . S
H2964 N2961 0.984 . S
H2965 N2961 0.985 . S
H2966 N2960 0.984 . S
H2967 N2960 0.984 . S
H2968 N2956 0.984 . S
H2969 N2956 0.985 . S
C2970 C2971 1.363 . S
C2970 C2976 1.379 . S
C2970 N2978 1.356 . S
C2971 C2970 1.363 . S
C2971 C2977 1.363 . S
C2972 C2973 1.363 . S
C2972 C2977 1.379 . S
C2972 N2979 1.356 . S
C2973 C2972 1.363 . S
C2973 C2976 1.363 . S
N2974 C2976 1.356 . S
N2974 H2986 0.984 . S
N2974 H2987 0.985 . S
N2975 C2977 1.356 . S
N2975 H2980 0.984 . S
N2975 H2981 0.985 . S
C2976 C2970 1.379 . S
C2976 C2973 1.363 . S
C2976 N2974 1.356 . S
C2977 C2971 1.363 . S
C2977 C2972 1.379 . S
C2977 N2975 1.356 . S
N2978 C2970 1.356 . S
N2978 H2984 0.984 . S
N2978 H2985 0.984 . S
N2979 C2972 1.356 . S
N2979 H2982 0.984 . S
N2979 H2983 0.985 . S
H2980 N2975 0.984 . S
H2981 N2975 0.985 . S
H2982 N2979 0.984 . S
H2983 N2979 0.985 . S
H2984 N2978 0.984 . S
H2985 N2978 0.984 . S
H2986 N2974 0.984 . S
H2987 N2974 0.985 . S
C2988 C2989 1.363 . S
C2988 C2994 1.379 . S
C2988 N2996 1.356 . S
C2989 C2988 1.363 . S
C2989 C2995 1.363 1_565 S
C2990 C2991 1.363 . S
C2990 C2995 1.379 . S
C2990 N2997 1.356 . S
C2991 C2990 1.363 . S
C2991 C2994 1.363 1_545 S
N2992 C2994 1.356 . S
N2992 H3004 0.984 . S
N2992 H3005 0.985 . S
N2993 C2995 1.356 . S
N2993 H2998 0.984 . S
N2993 H2999 0.985 . S
C2994 C2988 1.379 . S
C2994 C2991 1.363 1_565 S
C2994 N2992 1.356 . S
C2995 C2989 1.363 1_545 S
C2995 C2990 1.379 . S
C2995 N2993 1.356 . S
N2996 C2988 1.356 . S
N2996 H3002 0.984 . S
N2996 H3003 0.984 . S
N2997 C2990 1.356 . S
N2997 H3000 0.984 . S
N2997 H3001 0.985 . S
H2998 N2993 0.984 . S
H2999 N2993 0.985 . S
H3000 N2997 0.984 . S
H3001 N2997 0.985 . S
H3002 N2996 0.984 . S
H3003 N2996 0.984 . S
H3004 N2992 0.984 . S
H3005 N2992 0.985 . S
C3006 C3007 1.363 1_545 S
C3006 C3012 1.379 . S
C3006 N3014 1.356 . S
C3007 C3006 1.363 1_565 S
C3007 C3013 1.363 . S
C3008 C3009 1.363 1_565 S
C3008 C3013 1.379 . S
C3008 N3015 1.356 . S
C3009 C3008 1.363 1_545 S
C3009 C3012 1.363 . S
N3010 C3012 1.356 . S
N3010 H3022 0.984 . S
N3010 H3023 0.985 . S
N3011 C3013 1.356 . S
N3011 H3016 0.984 . S
N3011 H3017 0.985 . S
C3012 C3006 1.379 . S
C3012 C3009 1.363 . S
C3012 N3010 1.356 . S
C3013 C3007 1.363 . S
C3013 C3008 1.379 . S
C3013 N3011 1.356 . S
N3014 C3006 1.356 . S
N3014 H3020 0.984 . S
N3014 H3021 0.984 . S
N3015 C3008 1.356 . S
N3015 H3018 0.984 . S
N3015 H3019 0.985 . S
H3016 N3011 0.984 . S
H3017 N3011 0.985 . S
H3018 N3015 0.984 . S
H3019 N3015 0.985 . S
H3020 N3014 0.984 . S
H3021 N3014 0.984 . S
H3022 N3010 0.984 . S
H3023 N3010 0.985 . S
C3024 C3025 1.363 . S
C3024 C3030 1.379 . S
C3024 N3032 1.356 . S
C3025 C3024 1.363 . S
C3025 C3031 1.363 . S
C3026 C3027 1.363 . S
C3026 C3031 1.379 1_455 S
C3026 N3033 1.356 . S
C3027 C3026 1.363 . S
C3027 C3030 1.363 1_455 S
N3028 C3030 1.356 . S
N3028 H3040 0.984 . S
N3028 H3041 0.987 . S
N3029 C3031 1.356 . S
N3029 H3034 0.984 . S
N3029 H3035 0.985 1_655 S
C3030 C3024 1.379 . S
C3030 C3027 1.363 1_655 S
C3030 N3028 1.356 . S
C3031 C3025 1.363 . S
C3031 C3026 1.379 1_655 S
C3031 N3029 1.356 . S
N3032 C3024 1.356 . S
N3032 H3038 0.984 . S
N3032 H3039 0.984 . S
N3033 C3026 1.356 . S
N3033 H3036 0.984 . S
N3033 H3037 0.985 . S
H3034 N3029 0.984 . S
H3035 N3029 0.985 1_455 S
H3036 N3033 0.984 . S
H3037 N3033 0.985 . S
H3038 N3032 0.984 . S
H3039 N3032 0.984 . S
H3040 N3028 0.984 . S
H3041 N3028 0.987 . S
C3042 C3043 1.363 . S
C3042 C3048 1.379 . S
C3042 N3050 1.356 . S
C3043 C3042 1.363 . S
C3043 C3049 1.363 . S
C3044 C3045 1.363 . S
C3044 C3049 1.379 . S
C3044 N3051 1.356 . S
C3045 C3044 1.363 . S
C3045 C3048 1.363 . S
N3046 C3048 1.356 . S
N3046 H3058 0.984 . S
N3046 H3059 0.985 . S
N3047 C3049 1.356 . S
N3047 H3052 0.984 . S
N3047 H3053 0.985 . S
C3048 C3042 1.379 . S
C3048 C3045 1.363 . S
C3048 N3046 1.356 . S
C3049 C3043 1.363 . S
C3049 C3044 1.379 . S
C3049 N3047 1.356 . S
N3050 C3042 1.356 . S
N3050 H3056 0.984 . S
N3050 H3057 0.984 . S
N3051 C3044 1.356 . S
N3051 H3054 0.984 . S
N3051 H3055 0.985 . S
H3052 N3047 0.984 . S
H3053 N3047 0.985 . S
H3054 N3051 0.984 . S
H3055 N3051 0.985 . S
H3056 N3050 0.984 . S
H3057 N3050 0.984 . S
H3058 N3046 0.984 . S
H3059 N3046 0.985 . S
C3060 C3061 1.363 . S
C3060 C3066 1.379 1_655 S
C3060 N3068 1.356 . S
C3061 C3060 1.363 . S
C3061 C3067 1.363 . S
C3062 C3063 1.363 . S
C3062 C3067 1.379 1_455 S
C3062 N3069 1.356 . S
C3063 C3062 1.363 . S
C3063 C3066 1.363 . S
N3064 C3066 1.356 . S
N3064 H3076 0.984 . S
N3064 H3077 0.985 . S
N3065 C3067 1.356 . S
N3065 H3070 0.984 . S
N3065 H3071 0.985 . S
C3066 C3060 1.379 1_455 S
C3066 C3063 1.363 . S
C3066 N3064 1.356 . S
C3067 C3061 1.363 . S
C3067 C3062 1.379 1_655 S
C3067 N3065 1.356 . S
N3068 C3060 1.356 . S
N3068 H3074 0.984 . S
N3068 H3075 0.984 . S
N3069 C3062 1.356 . S
N3069 H3072 0.984 . S
N3069 H3073 0.985 . S
H3070 N3065 0.984 . S
H3071 N3065 0.985 . S
H3072 N3069 0.984 . S
H3073 N3069 0.985 . S
H3074 N3068 0.984 . S
H3075 N3068 0.984 . S
H3076 N3064 0.984 . S
H3077 N3064 0.985 . S
C3078 C3079 1.363 . S
C3078 C3084 1.379 . S
C3078 N3086 1.356 . S
C3079 C3078 1.363 . S
C3079 C3085 1.363 . S
C3080 C3081 1.363 . S
C3080 C3085 1.379 . S
C3080 N3087 1.356 . S
C3081 C3080 1.363 . S
C3081 C3084 1.363 . S
N3082 C3084 1.356 . S
N3082 H3094 0.984 . S
N3082 H3095 0.985 . S
N3083 C3085 1.356 . S
N3083 H3088 0.984 . S
N3083 H3089 0.985 . S
C3084 C3078 1.379 . S
C3084 C3081 1.363 . S
C3084 N3082 1.356 . S
C3085 C3079 1.363 . S
C3085 C3080 1.379 . S
C3085 N3083 1.356 . S
N3086 C3078 1.356 . S
N3086 H3092 0.984 . S
N3086 H3093 0.984 . S
N3087 C3080 1.356 . S
N3087 H3090 0.984 . S
N3087 H3091 0.985 . S
H3088 N3083 0.984 . S
H3089 N3083 0.985 . S
H3090 N3087 0.984 . S
H3091 N3087 0.985 . S
H3092 N3086 0.984 . S
H3093 N3086 0.984 . S
H3094 N3082 0.984 . S
H3095 N3082 0.985 . S
C3096 C3097 1.363 . S
C3096 C3102 1.379 . S
C3096 N3104 1.356 . S
C3097 C3096 1.363 . S
C3097 C3103 1.363 1_545 S
C3098 C3099 1.363 . S
C3098 C3103 1.379 . S
C3098 N3105 1.356 . S
C3099 C3098 1.363 . S
C3099 C3102 1.363 1_565 S
N3100 C3102 1.356 . S
N3100 H3112 0.984 . S
N3100 H3113 0.985 . S
N3101 C3103 1.356 . S
N3101 H3106 0.984 . S
N3101 H3107 0.985 . S
C3102 C3096 1.379 . S
C3102 C3099 1.363 1_545 S
C3102 N3100 1.356 . S
C3103 C3097 1.363 1_565 S
C3103 C3098 1.379 . S
C3103 N3101 1.356 . S
N3104 C3096 1.356 . S
N3104 H3110 0.984 . S
N3104 H3111 0.984 . S
N3105 C3098 1.356 . S
N3105 H3108 0.984 . S
N3105 H3109 0.985 . S
H3106 N3101 0.984 . S
H3107 N3101 0.985 . S
H3108 N3105 0.984 . S
H3109 N3105 0.985 . S
H3110 N3104 0.984 . S
H3111 N3104 0.984 . S
H3112 N3100 0.984 . S
H3113 N3100 0.985 . S
C3114 C3115 1.363 . S
C3114 C3120 1.379 1_655 S
C3114 N3122 1.356 . S
C3115 C3114 1.363 . S
C3115 C3121 1.363 . S
C3116 C3117 1.363 . S
C3116 C3121 1.379 1_455 S
C3116 N3123 1.356 . S
C3117 C3116 1.363 . S
C3117 C3120 1.363 . S
N3118 C3120 1.356 . S
N3118 H3130 0.984 . S
N3118 H3131 0.985 . S
N3119 C3121 1.356 . S
N3119 H3124 0.984 . S
N3119 H3125 0.985 . S
C3120 C3114 1.379 1_455 S
C3120 C3117 1.363 . S
C3120 N3118 1.356 . S
C3121 C3115 1.363 . S
C3121 C3116 1.379 1_655 S
C3121 N3119 1.356 . S
N3122 C3114 1.356 . S
N3122 H3128 0.984 . S
N3122 H3129 0.984 . S
N3123 C3116 1.356 . S
N3123 H3126 0.984 . S
N3123 H3127 0.985 . S
H3124 N3119 0.984 . S
H3125 N3119 0.985 . S
H3126 N3123 0.984 . S
H3127 N3123 0.985 . S
H3128 N3122 0.984 . S
H3129 N3122 0.984 . S
H3130 N3118 0.984 . S
H3131 N3118 0.985 . S
C3132 C3133 1.363 . S
C3132 C3138 1.379 . S
C3132 N3140 1.356 . S
C3133 C3132 1.363 . S
C3133 C3139 1.363 . S
C3134 C3135 1.363 . S
C3134 C3139 1.379 . S
C3134 N3141 1.356 . S
C3135 C3134 1.363 . S
C3135 C3138 1.363 . S
N3136 C3138 1.356 . S
N3136 H3148 0.984 . S
N3136 H3149 0.985 . S
N3137 C3139 1.356 . S
N3137 H3142 0.984 . S
N3137 H3143 0.985 . S
C3138 C3132 1.379 . S
C3138 C3135 1.363 . S
C3138 N3136 1.356 . S
C3139 C3133 1.363 . S
C3139 C3134 1.379 . S
C3139 N3137 1.356 . S
N3140 C3132 1.356 . S
N3140 H3146 0.984 . S
N3140 H3147 0.984 . S
N3141 C3134 1.356 . S
N3141 H3144 0.984 . S
N3141 H3145 0.985 . S
H3142 N3137 0.984 . S
H3143 N3137 0.985 . S
H3144 N3141 0.984 . S
H3145 N3141 0.985 . S
H3146 N3140 0.984 . S
H3147 N3140 0.984 . S
H3148 N3136 0.984 . S
H3149 N3136 0.985 . S
C3150 C3151 1.363 . S
C3150 C3156 1.379 . S
C3150 N3158 1.356 . S
C3151 C3150 1.363 . S
C3151 C3157 1.363 1_545 S
C3152 C3153 1.363 . S
C3152 C3157 1.379 . S
C3152 N3159 1.356 . S
C3153 C3152 1.363 . S
C3153 C3156 1.363 1_565 S
N3154 C3156 1.356 . S
N3154 H3166 0.984 . S
N3154 H3167 0.985 . S
N3155 C3157 1.356 . S
N3155 H3160 0.984 . S
N3155 H3161 0.985 . S
C3156 C3150 1.379 . S
C3156 C3153 1.363 1_545 S
C3156 N3154 1.356 . S
C3157 C3151 1.363 1_565 S
C3157 C3152 1.379 . S
C3157 N3155 1.356 . S
N3158 C3150 1.356 . S
N3158 H3164 0.984 . S
N3158 H3165 0.984 . S
N3159 C3152 1.356 . S
N3159 H3162 0.984 . S
N3159 H3163 0.985 . S
H3160 N3155 0.984 . S
H3161 N3155 0.985 . S
H3162 N3159 0.984 . S
H3163 N3159 0.985 . S
H3164 N3158 0.984 . S
H3165 N3158 0.984 . S
H3166 N3154 0.984 . S
H3167 N3154 0.985 . S
C3168 C3169 1.363 . S
C3168 C3174 1.379 . S
C3168 N3176 1.356 . S
C3169 C3168 1.363 . S
C3169 C3175 1.363 . S
C3170 C3171 1.363 . S
C3170 C3175 1.379 . S
C3170 N3177 1.356 . S
C3171 C3170 1.363 . S
C3171 C3174 1.363 . S
N3172 C3174 1.356 . S
N3172 H3184 0.984 . S
N3172 H3185 0.985 . S
N3173 C3175 1.356 . S
N3173 H3178 0.984 . S
N3173 H3179 0.985 . S
C3174 C3168 1.379 . S
C3174 C3171 1.363 . S
C3174 N3172 1.356 . S
C3175 C3169 1.363 . S
C3175 C3170 1.379 . S
C3175 N3173 1.356 . S
N3176 C3168 1.356 . S
N3176 H3182 0.984 . S
N3176 H3183 0.984 . S
N3177 C3170 1.356 . S
N3177 H3180 0.984 . S
N3177 H3181 0.985 . S
H3178 N3173 0.984 . S
H3179 N3173 0.985 . S
H3180 N3177 0.984 . S
H3181 N3177 0.985 . S
H3182 N3176 0.984 . S
H3183 N3176 0.984 . S
H3184 N3172 0.984 . S
H3185 N3172 0.985 . S
C3186 C3187 1.363 . S
C3186 C3192 1.379 . S
C3186 N3194 1.356 . S
C3187 C3186 1.363 . S
C3187 C3193 1.363 . S
C3188 C3189 1.363 . S
C3188 C3193 1.379 . S
C3188 N3195 1.356 . S
C3189 C3188 1.363 . S
C3189 C3192 1.363 . S
N3190 C3192 1.356 . S
N3190 H3202 0.984 . S
N3190 H3203 0.985 . S
N3191 C3193 1.356 . S
N3191 H3196 0.984 . S
N3191 H3197 0.985 . S
C3192 C3186 1.379 . S
C3192 C3189 1.363 . S
C3192 N3190 1.356 . S
C3193 C3187 1.363 . S
C3193 C3188 1.379 . S
C3193 N3191 1.356 . S
N3194 C3186 1.356 . S
N3194 H3200 0.984 . S
N3194 H3201 0.984 . S
N3195 C3188 1.356 . S
N3195 H3198 0.984 . S
N3195 H3199 0.985 . S
H3196 N3191 0.984 . S
H3197 N3191 0.985 . S
H3198 N3195 0.984 . S
H3199 N3195 0.985 . S
H3200 N3194 0.984 . S
H3201 N3194 0.984 . S
H3202 N3190 0.984 . S
H3203 N3190 0.985 . S
C3204 C3205 1.363 . S
C3204 C3210 1.379 . S
C3204 N3212 1.356 . S
C3205 C3204 1.363 . S
C3205 C3211 1.363 . S
C3206 C3207 1.363 . S
C3206 C3211 1.379 . S
C3206 N3213 1.356 . S
C3207 C3206 1.363 . S
C3207 C3210 1.363 . S
N3208 C3210 1.356 . S
N3208 H3220 0.984 . S
N3208 H3221 0.985 . S
N3209 C3211 1.356 . S
N3209 H3214 0.984 . S
N3209 H3215 0.985 . S
C3210 C3204 1.379 . S
C3210 C3207 1.363 . S
C3210 N3208 1.356 . S
C3211 C3205 1.363 . S
C3211 C3206 1.379 . S
C3211 N3209 1.356 . S
N3212 C3204 1.356 . S
N3212 H3218 0.984 . S
N3212 H3219 0.984 . S
N3213 C3206 1.356 . S
N3213 H3216 0.984 . S
N3213 H3217 0.985 . S
H3214 N3209 0.984 . S
H3215 N3209 0.985 . S
H3216 N3213 0.984 . S
H3217 N3213 0.985 . S
H3218 N3212 0.984 . S
H3219 N3212 0.984 . S
H3220 N3208 0.984 . S
H3221 N3208 0.985 . S
C3222 C3223 1.363 . S
C3222 C3228 1.379 . S
C3222 N3230 1.356 . S
C3223 C3222 1.363 . S
C3223 C3229 1.363 . S
C3224 C3225 1.363 . S
C3224 C3229 1.379 . S
C3224 N3231 1.356 . S
C3225 C3224 1.363 . S
C3225 C3228 1.363 . S
N3226 C3228 1.356 . S
N3226 H3238 0.984 . S
N3226 H3239 0.985 . S
N3227 C3229 1.356 . S
N3227 H3232 0.984 . S
N3227 H3233 0.985 . S
C3228 C3222 1.379 . S
C3228 C3225 1.363 . S
C3228 N3226 1.356 . S
C3229 C3223 1.363 . S
C3229 C3224 1.379 . S
C3229 N3227 1.356 . S
N3230 C3222 1.356 . S
N3230 H3236 0.984 . S
N3230 H3237 0.984 . S
N3231 C3224 1.356 . S
N3231 H3234 0.984 . S
N3231 H3235 0.985 . S
H3232 N3227 0.984 . S
H3233 N3227 0.985 . S
H3234 N3231 0.984 . S
H3235 N3231 0.985 . S
H3236 N3230 0.984 . S
H3237 N3230 0.984 . S
H3238 N3226 0.984 . S
H3239 N3226 0.985 . S
C3240 C3241 1.363 . S
C3240 C3246 1.379 . S
C3240 N3248 1.356 . S
C3241 C3240 1.363 . S
C3241 C3247 1.363 . S
C3242 C3243 1.363 . S
C3242 C3247 1.379 . S
C3242 N3249 1.356 . S
C3243 C3242 1.363 . S
C3243 C3246 1.363 . S
N3244 C3246 1.356 . S
N3244 H3256 0.984 . S
N3244 H3257 0.985 . S
N3245 C3247 1.356 . S
N3245 H3250 0.984 . S
N3245 H3251 0.985 . S
C3246 C3240 1.379 . S
C3246 C3243 1.363 . S
C3246 N3244 1.356 . S
C3247 C3241 1.363 . S
C3247 C3242 1.379 . S
C3247 N3245 1.356 . S
N3248 C3240 1.356 . S
N3248 H3254 0.984 . S
N3248 H3255 0.984 . S
N3249 C3242 1.356 . S
N3249 H3252 0.984 . S
N3249 H3253 0.985 . S
H3250 N3245 0.984 . S
H3251 N3245 0.985 . S
H3252 N3249 0.984 . S
H3253 N3249 0.985 . S
H3254 N3248 0.984 . S
H3255 N3248 0.984 . S
H3256 N3244 0.984 . S
H3257 N3244 0.985 . S
C3258 C3259 1.363 . S
C3258 C3264 1.379 . S
C3258 N3266 1.356 . S
C3259 C3258 1.363 . S
C3259 C3265 1.363 . S
C3260 C3261 1.363 . S
C3260 C3265 1.379 . S
C3260 N3267 1.356 . S
C3261 C3260 1.363 . S
C3261 C3264 1.363 . S
N3262 C3264 1.356 . S
N3262 H3274 0.984 . S
N3262 H3275 0.985 . S
N3263 C3265 1.356 . S
N3263 H3268 0.984 . S
N3263 H3269 0.985 . S
C3264 C3258 1.379 . S
C3264 C3261 1.363 . S
C3264 N3262 1.356 . S
C3265 C3259 1.363 . S
C3265 C3260 1.379 . S
C3265 N3263 1.356 . S
N3266 C3258 1.356 . S
N3266 H3272 0.984 . S
N3266 H3273 0.984 . S
N3267 C3260 1.356 . S
N3267 H3270 0.984 . S
N3267 H3271 0.985 . S
H3268 N3263 0.984 . S
H3269 N3263 0.985 . S
H3270 N3267 0.984 . S
H3271 N3267 0.985 . S
H3272 N3266 0.984 . S
H3273 N3266 0.984 . S
H3274 N3262 0.984 . S
H3275 N3262 0.985 . S
C3276 C3277 1.363 . S
C3276 C3282 1.379 . S
C3276 N3284 1.356 . S
C3277 C3276 1.363 . S
C3277 C3283 1.363 . S
C3278 C3279 1.363 . S
C3278 C3283 1.379 . S
C3278 N3285 1.356 . S
C3279 C3278 1.363 . S
C3279 C3282 1.363 . S
N3280 C3282 1.356 . S
N3280 H3292 0.984 . S
N3280 H3293 0.985 . S
N3281 C3283 1.356 . S
N3281 H3286 0.984 . S
N3281 H3287 0.985 . S
C3282 C3276 1.379 . S
C3282 C3279 1.363 . S
C3282 N3280 1.356 . S
C3283 C3277 1.363 . S
C3283 C3278 1.379 . S
C3283 N3281 1.356 . S
N3284 C3276 1.356 . S
N3284 H3290 0.984 . S
N3284 H3291 0.984 . S
N3285 C3278 1.356 . S
N3285 H3288 0.984 . S
N3285 H3289 0.985 . S
H3286 N3281 0.984 . S
H3287 N3281 0.985 . S
H3288 N3285 0.984 . S
H3289 N3285 0.985 . S
H3290 N3284 0.984 . S
H3291 N3284 0.984 . S
H3292 N3280 0.984 . S
H3293 N3280 0.985 . S
C3294 C3295 1.363 . S
C3294 C3300 1.379 . S
C3294 N3302 1.356 . S
C3295 C3294 1.363 . S
C3295 C3301 1.363 . S
C3296 C3297 1.363 . S
C3296 C3301 1.379 . S
C3296 N3303 1.356 . S
C3297 C3296 1.363 . S
C3297 C3300 1.363 . S
N3298 C3300 1.356 . S
N3298 H3310 0.984 . S
N3298 H3311 0.985 . S
N3299 C3301 1.356 . S
N3299 H3304 0.984 . S
N3299 H3305 0.985 . S
C3300 C3294 1.379 . S
C3300 C3297 1.363 . S
C3300 N3298 1.356 . S
C3301 C3295 1.363 . S
C3301 C3296 1.379 . S
C3301 N3299 1.356 . S
N3302 C3294 1.356 . S
N3302 H3308 0.984 . S
N3302 H3309 0.984 . S
N3303 C3296 1.356 . S
N3303 H3306 0.984 . S
N3303 H3307 0.985 . S
H3304 N3299 0.984 . S
H3305 N3299 0.985 . S
H3306 N3303 0.984 . S
H3307 N3303 0.985 . S
H3308 N3302 0.984 . S
H3309 N3302 0.984 . S
H3310 N3298 0.984 . S
H3311 N3298 0.985 . S
C3312 C3313 1.363 . S
C3312 C3318 1.379 . S
C3312 N3320 1.356 . S
C3313 C3312 1.363 . S
C3313 C3319 1.363 . S
C3314 C3315 1.363 . S
C3314 C3319 1.379 . S
C3314 N3321 1.356 . S
C3315 C3314 1.363 . S
C3315 C3318 1.363 . S
N3316 C3318 1.356 . S
N3316 H3328 0.984 . S
N3316 H3329 0.985 . S
N3317 C3319 1.356 . S
N3317 H3322 0.984 . S
N3317 H3323 0.985 . S
C3318 C3312 1.379 . S
C3318 C3315 1.363 . S
C3318 N3316 1.356 . S
C3319 C3313 1.363 . S
C3319 C3314 1.379 . S
C3319 N3317 1.356 . S
N3320 C3312 1.356 . S
N3320 H3326 0.984 . S
N3320 H3327 0.984 . S
N3321 C3314 1.356 . S
N3321 H3324 0.984 . S
N3321 H3325 0.985 . S
H3322 N3317 0.984 . S
H3323 N3317 0.985 . S
H3324 N3321 0.984 . S
H3325 N3321 0.985 . S
H3326 N3320 0.984 . S
H3327 N3320 0.984 . S
H3328 N3316 0.984 . S
H3329 N3316 0.985 . S
C3330 C3331 1.363 . S
C3330 C3336 1.379 . S
C3330 N3338 1.356 . S
C3331 C3330 1.363 . S
C3331 C3337 1.363 . S
C3332 C3333 1.363 . S
C3332 C3337 1.379 . S
C3332 N3339 1.356 . S
C3333 C3332 1.363 . S
C3333 C3336 1.363 . S
N3334 C3336 1.356 . S
N3334 H3346 0.984 . S
N3334 H3347 0.985 . S
N3335 C3337 1.356 . S
N3335 H3340 0.984 . S
N3335 H3341 0.985 . S
C3336 C3330 1.379 . S
C3336 C3333 1.363 . S
C3336 N3334 1.356 . S
C3337 C3331 1.363 . S
C3337 C3332 1.379 . S
C3337 N3335 1.356 . S
N3338 C3330 1.356 . S
N3338 H3344 0.984 . S
N3338 H3345 0.984 . S
N3339 C3332 1.356 . S
N3339 H3342 0.984 . S
N3339 H3343 0.985 . S
H3340 N3335 0.984 . S
H3341 N3335 0.985 . S
H3342 N3339 0.984 . S
H3343 N3339 0.985 . S
H3344 N3338 0.984 . S
H3345 N3338 0.984 . S
H3346 N3334 0.984 . S
H3347 N3334 0.985 . S
C3348 C3349 1.363 . S
C3348 C3354 1.379 . S
C3348 N3356 1.356 . S
C3349 C3348 1.363 . S
C3349 C3355 1.363 . S
C3350 C3351 1.363 . S
C3350 C3355 1.379 . S
C3350 N3357 1.356 . S
C3351 C3350 1.363 . S
C3351 C3354 1.363 . S
N3352 C3354 1.356 . S
N3352 H3364 0.984 . S
N3352 H3365 0.985 . S
N3353 C3355 1.356 . S
N3353 H3358 0.984 . S
N3353 H3359 0.985 . S
C3354 C3348 1.379 . S
C3354 C3351 1.363 . S
C3354 N3352 1.356 . S
C3355 C3349 1.363 . S
C3355 C3350 1.379 . S
C3355 N3353 1.356 . S
N3356 C3348 1.356 . S
N3356 H3362 0.984 . S
N3356 H3363 0.984 . S
N3357 C3350 1.356 . S
N3357 H3360 0.984 . S
N3357 H3361 0.985 . S
H3358 N3353 0.984 . S
H3359 N3353 0.985 . S
H3360 N3357 0.984 . S
H3361 N3357 0.985 . S
H3362 N3356 0.984 . S
H3363 N3356 0.984 . S
H3364 N3352 0.984 . S
H3365 N3352 0.985 . S
C3366 C3367 1.363 . S
C3366 C3372 1.379 . S
C3366 N3374 1.356 . S
C3367 C3366 1.363 . S
C3367 C3373 1.363 . S
C3368 C3369 1.363 . S
C3368 C3373 1.379 . S
C3368 N3375 1.356 . S
C3369 C3368 1.363 . S
C3369 C3372 1.363 . S
N3370 C3372 1.356 . S
N3370 H3382 0.984 . S
N3370 H3383 0.985 . S
N3371 C3373 1.356 . S
N3371 H3376 0.984 . S
N3371 H3377 0.985 . S
C3372 C3366 1.379 . S
C3372 C3369 1.363 . S
C3372 N3370 1.356 . S
C3373 C3367 1.363 . S
C3373 C3368 1.379 . S
C3373 N3371 1.356 . S
N3374 C3366 1.356 . S
N3374 H3380 0.984 . S
N3374 H3381 0.984 . S
N3375 C3368 1.356 . S
N3375 H3378 0.984 . S
N3375 H3379 0.985 . S
H3376 N3371 0.984 . S
H3377 N3371 0.985 . S
H3378 N3375 0.984 . S
H3379 N3375 0.985 . S
H3380 N3374 0.984 . S
H3381 N3374 0.984 . S
H3382 N3370 0.984 . S
H3383 N3370 0.985 . S
C1441 C9 1.785 . S
C1443 C99 1.847 1_545 S
C1459 C19 1.847 1_655 S
C1461 C49 1.785 1_545 S
C1477 C89 1.785 1_655 S
C1479 C59 1.847 . S
C1495 C129 1.850 . S
C1497 C179 1.911 1_455 S
C1513 C219 1.911 . S
C1515 C169 1.850 1_565 S
C1531 C209 1.850 1_455 S
C1533 C139 1.911 1_565 S
C1549 C258 1.785 . S
C1551 C330 1.847 1_565 S
C1567 C298 1.785 1_565 S
C1569 C250 1.847 1_455 S
C1585 C338 1.785 1_455 S
C1587 C290 1.847 . S
C1603 C378 1.850 . S
C1605 C410 1.911 1_655 S
C1621 C450 1.911 . S
C1623 C418 1.850 1_545 S
C1639 C370 1.911 1_545 S
C1641 C458 1.850 1_655 S
C1657 C579 1.901 . S
C1659 C489 1.839 . S
C1675 C529 1.839 . S
C1677 C499 1.901 . S
C1693 C539 1.901 . S
C1695 C569 1.839 . S
C1711 C609 1.865 . S
C1713 C659 1.925 . S
C1729 C699 1.925 . S
C1731 C649 1.865 . S
C1747 C619 1.925 . S
C1749 C689 1.865 . S
C1765 C738 1.811 . S
C1767 C810 1.872 . S
C1783 C778 1.811 . S
C1785 C730 1.872 . S
C1801 C770 1.872 . S
C1803 C818 1.811 . S
C1819 C890 1.774 . S
C1821 C858 1.726 1_554 S
C1837 C898 1.726 1_554 S
C1839 C930 1.774 . S
C1855 C850 1.774 . S
C1857 C938 1.725 1_554 S
C1873 C969 1.811 . S
C1875 C1059 1.872 . S
C1891 C1009 1.811 . S
C1893 C979 1.872 . S
C1909 C1049 1.811 . S
C1911 C1019 1.872 . S
C1927 C1089 1.726 1_556 S
C1929 C1139 1.774 . S
C1945 C1129 1.725 1_556 S
C1947 C1179 1.774 . S
C1963 C1169 1.725 1_556 S
C1965 C1099 1.774 . S
C1981 C1218 1.839 . S
C1983 C1290 1.901 . S
C1999 C1258 1.839 . S
C2001 C1210 1.901 . S
C2017 C1250 1.901 . S
C2019 C1298 1.839 . S
C2035 C1338 1.865 . S
C2037 C1370 1.925 . S
C2053 C1378 1.864 . S
C2055 C1410 1.925 . S
C2071 C1330 1.925 . S
C2073 C1418 1.865 . S
C2089 C10 1.871 . S
C2091 C809 1.840 . S
C2107 C729 1.840 1_565 S
C2109 C50 1.871 . S
C2125 C90 1.871 . S
C2127 C769 1.840 1_455 S
C2143 C130 1.790 . S
C2145 C1369 1.749 . S
C2161 C1409 1.750 1_545 S
C2163 C170 1.790 . S
C2179 C210 1.789 . S
C2181 C1329 1.749 1_655 S
C2197 C1058 1.840 . S
C2199 C259 1.871 . S
C2215 C299 1.871 . S
C2217 C978 1.840 1_545 S
C2233 C339 1.871 . S
C2235 C1018 1.840 1_655 S
C2251 C658 1.749 . S
C2253 C379 1.790 . S
C2269 C698 1.750 1_565 S
C2271 C419 1.790 . S
C2287 C618 1.749 1_455 S
C2289 C459 1.789 . S
C2305 C490 1.831 . S
C2307 C1289 1.795 . S
C2323 C530 1.830 . S
C2325 C1209 1.795 . S
C2341 C1249 1.796 . S
C2343 C570 1.832 . S
C2359 C409 1.785 . S
C2361 C610 1.823 1_455 S
C2377 C449 1.786 . S
C2379 C650 1.823 . S
C2395 C369 1.785 . S
C2397 C690 1.823 1_565 S
C2413 C98 1.836 . S
C2415 C739 1.865 1_565 S
C2431 C779 1.865 1_455 S
C2433 C18 1.836 . S
C2449 C819 1.865 . S
C2451 C58 1.837 . S
C2467 C1138 1.809 . S
C2469 C859 1.850 . S
C2485 C1178 1.809 . S
C2487 C899 1.851 . S
C2503 C939 1.850 . S
C2505 C1098 1.809 . S
C2521 C329 1.836 . S
C2523 C970 1.865 1_545 S
C2539 C249 1.836 . S
C2541 C1010 1.865 1_655 S
C2557 C289 1.837 . S
C2559 C1050 1.865 . S
C2575 C1090 1.851 . S
C2577 C889 1.809 . S
C2593 C929 1.809 . S
C2595 C1130 1.851 . S
C2611 C1170 1.850 . S
C2613 C849 1.809 . S
C2629 C1219 1.831 . S
C2631 C578 1.795 . S
C2647 C1259 1.830 . S
C2649 C498 1.795 . S
C2665 C1299 1.832 . S
C2667 C538 1.796 . S
C2683 C1339 1.823 1_655 S
C2685 C178 1.785 . S
C2701 C218 1.786 . S
C2703 C1379 1.823 . S
C2719 C138 1.785 . S
C2721 C1419 1.823 1_545 S
C2737 C1166 2.270 . S
C2739 C6 2.263 . S
C2755 C1086 2.270 . S
C2757 C46 2.263 . S
C2773 C86 2.276 . S
C2775 C1126 2.257 . S
C2791 C526 2.438 . S
C2793 C126 2.436 . S
C2809 C166 2.436 . S
C2811 C566 2.438 . S
C2827 C206 2.437 . S
C2829 C486 2.439 . S
C2845 C255 2.276 . S
C2847 C935 2.257 . S
C2863 C295 2.276 . S
C2865 C855 2.257 . S
C2881 C335 2.276 . S
C2883 C895 2.257 . S
C2899 C1255 2.438 . S
C2901 C375 2.436 . S
C2917 C1295 2.438 . S
C2919 C415 2.436 . S
C2935 C1215 2.438 . S
C2937 C455 2.436 . S
C2953 C606 2.469 . S
C2955 C1006 2.474 . S
C2971 C646 2.469 . S
C2973 C1046 2.474 . S
C2989 C686 2.469 . S
C2991 C966 2.474 . S
C3007 C735 2.474 . S
C3009 C1415 2.469 . S
C3025 C1335 2.470 . S
C3027 C775 2.474 . S
C3043 C815 2.474 . S
C3045 C1375 2.470 . S
C3061 C175 1.241 . S
C3063 C15 1.243 . S
C3079 C215 1.241 . S
C3081 C55 1.243 . S
C3097 C135 1.242 . S
C3099 C95 1.243 . S
C3115 C246 1.243 . S
C3117 C406 1.241 . S
C3133 C446 1.241 . S
C3135 C286 1.243 . S
C3151 C326 1.243 . S
C3153 C366 1.241 . S
C3169 C655 1.307 . S
C3171 C495 1.308 . S
C3187 C695 1.307 . S
C3189 C535 1.308 . S
C3205 C615 1.306 . S
C3207 C575 1.308 . S
C3223 C886 1.529 . S
C3225 C726 1.562 . S
C3241 C766 1.549 . S
C3243 C926 1.542 . S
C3259 C806 1.549 . S
C3261 C846 1.542 . S
C3277 C975 1.548 . S
C3279 C1135 1.541 . S
C3295 C1175 1.529 . S
C3297 C1015 1.561 . S
C3313 C1055 1.548 . S
C3315 C1095 1.541 . S
C3331 C1206 1.308 . S
C3333 C1366 1.307 . S
C3349 C1406 1.307 . S
C3351 C1246 1.308 . S
C3367 C1286 1.308 . S
C3369 C1326 1.307 . S
