# Generated by pormake.
# Topology whk, (6)-cn, num edge types: 1
# Building blocks:
#     Node 0, Type 0, BuildingBlock: MIFKUJ_clean_sbu_0, # of connection points: 6
#     Node 1, Type 0, BuildingBlock: MIFKUJ_clean_sbu_0, # of connection points: 6
#     Node 2, Type 0, BuildingBlock: MIFKUJ_clean_sbu_0, # of connection points: 6
#     Node 3, Type 0, BuildingBlock: MIFKUJ_clean_sbu_0, # of connection points: 6
#     Node 4, Type 0, BuildingBlock: MIFKUJ_clean_sbu_0, # of connection points: 6
#     Node 5, Type 0, BuildingBlock: MIFKUJ_clean_sbu_0, # of connection points: 6
#     Node 6, Type 0, BuildingBlock: MIFKUJ_clean_sbu_0, # of connection points: 6
#     Node 7, Type 0, BuildingBlock: MIFKUJ_clean_sbu_0, # of connection points: 6
#     Node 8, Type 0, BuildingBlock: MIFKUJ_clean_sbu_0, # of connection points: 6
#     Node 9, Type 0, BuildingBlock: MIFKUJ_clean_sbu_0, # of connection points: 6
#     Node 10, Type 0, BuildingBlock: MIFKUJ_clean_sbu_0, # of connection points: 6
#     Node 11, Type 0, BuildingBlock: MIFKUJ_clean_sbu_0, # of connection points: 6
#     Node 12, Type 0, BuildingBlock: MIFKUJ_clean_sbu_0, # of connection points: 6
#     Node 13, Type 0, BuildingBlock: MIFKUJ_clean_sbu_0, # of connection points: 6
#     Node 14, Type 0, BuildingBlock: MIFKUJ_clean_sbu_0, # of connection points: 6
#     Node 15, Type 0, BuildingBlock: MIFKUJ_clean_sbu_0, # of connection points: 6
#     Edge 16, Type (0, 0), BuildingBlock: XUDNAN_clean_linker_2, # of connection points: 2
#     Edge 17, Type (0, 0), BuildingBlock: XUDNAN_clean_linker_2, # of connection points: 2
#     Edge 18, Type (0, 0), BuildingBlock: XUDNAN_clean_linker_2, # of connection points: 2
#     Edge 19, Type (0, 0), BuildingBlock: XUDNAN_clean_linker_2, # of connection points: 2
#     Edge 20, Type (0, 0), BuildingBlock: XUDNAN_clean_linker_2, # of connection points: 2
#     Edge 21, Type (0, 0), BuildingBlock: XUDNAN_clean_linker_2, # of connection points: 2
#     Edge 22, Type (0, 0), BuildingBlock: XUDNAN_clean_linker_2, # of connection points: 2
#     Edge 23, Type (0, 0), BuildingBlock: XUDNAN_clean_linker_2, # of connection points: 2
#     Edge 24, Type (0, 0), BuildingBlock: XUDNAN_clean_linker_2, # of connection points: 2
#     Edge 25, Type (0, 0), BuildingBlock: XUDNAN_clean_linker_2, # of connection points: 2
#     Edge 26, Type (0, 0), BuildingBlock: XUDNAN_clean_linker_2, # of connection points: 2
#     Edge 27, Type (0, 0), BuildingBlock: XUDNAN_clean_linker_2, # of connection points: 2
#     Edge 28, Type (0, 0), BuildingBlock: XUDNAN_clean_linker_2, # of connection points: 2
#     Edge 29, Type (0, 0), BuildingBlock: XUDNAN_clean_linker_2, # of connection points: 2
#     Edge 30, Type (0, 0), BuildingBlock: XUDNAN_clean_linker_2, # of connection points: 2
#     Edge 31, Type (0, 0), BuildingBlock: XUDNAN_clean_linker_2, # of connection points: 2
#     Edge 32, Type (0, 0), BuildingBlock: XUDNAN_clean_linker_2, # of connection points: 2
#     Edge 33, Type (0, 0), BuildingBlock: XUDNAN_clean_linker_2, # of connection points: 2
#     Edge 34, Type (0, 0), BuildingBlock: XUDNAN_clean_linker_2, # of connection points: 2
#     Edge 35, Type (0, 0), BuildingBlock: XUDNAN_clean_linker_2, # of connection points: 2
#     Edge 36, Type (0, 0), BuildingBlock: XUDNAN_clean_linker_2, # of connection points: 2
#     Edge 37, Type (0, 0), BuildingBlock: XUDNAN_clean_linker_2, # of connection points: 2
#     Edge 38, Type (0, 0), BuildingBlock: XUDNAN_clean_linker_2, # of connection points: 2
#     Edge 39, Type (0, 0), BuildingBlock: XUDNAN_clean_linker_2, # of connection points: 2
#     Edge 40, Type (0, 0), BuildingBlock: XUDNAN_clean_linker_2, # of connection points: 2
#     Edge 41, Type (0, 0), BuildingBlock: XUDNAN_clean_linker_2, # of connection points: 2
#     Edge 42, Type (0, 0), BuildingBlock: XUDNAN_clean_linker_2, # of connection points: 2
#     Edge 43, Type (0, 0), BuildingBlock: XUDNAN_clean_linker_2, # of connection points: 2
#     Edge 44, Type (0, 0), BuildingBlock: XUDNAN_clean_linker_2, # of connection points: 2
#     Edge 45, Type (0, 0), BuildingBlock: XUDNAN_clean_linker_2, # of connection points: 2
#     Edge 46, Type (0, 0), BuildingBlock: XUDNAN_clean_linker_2, # of connection points: 2
#     Edge 47, Type (0, 0), BuildingBlock: XUDNAN_clean_linker_2, # of connection points: 2
#     Edge 48, Type (0, 0), BuildingBlock: XUDNAN_clean_linker_2, # of connection points: 2
#     Edge 49, Type (0, 0), BuildingBlock: XUDNAN_clean_linker_2, # of connection points: 2
#     Edge 50, Type (0, 0), BuildingBlock: XUDNAN_clean_linker_2, # of connection points: 2
#     Edge 51, Type (0, 0), BuildingBlock: XUDNAN_clean_linker_2, # of connection points: 2
#     Edge 52, Type (0, 0), BuildingBlock: XUDNAN_clean_linker_2, # of connection points: 2
#     Edge 53, Type (0, 0), BuildingBlock: XUDNAN_clean_linker_2, # of connection points: 2
#     Edge 54, Type (0, 0), BuildingBlock: XUDNAN_clean_linker_2, # of connection points: 2
#     Edge 55, Type (0, 0), BuildingBlock: XUDNAN_clean_linker_2, # of connection points: 2
#     Edge 56, Type (0, 0), BuildingBlock: XUDNAN_clean_linker_2, # of connection points: 2
#     Edge 57, Type (0, 0), BuildingBlock: XUDNAN_clean_linker_2, # of connection points: 2
#     Edge 58, Type (0, 0), BuildingBlock: XUDNAN_clean_linker_2, # of connection points: 2
#     Edge 59, Type (0, 0), BuildingBlock: XUDNAN_clean_linker_2, # of connection points: 2
#     Edge 60, Type (0, 0), BuildingBlock: XUDNAN_clean_linker_2, # of connection points: 2
#     Edge 61, Type (0, 0), BuildingBlock: XUDNAN_clean_linker_2, # of connection points: 2
#     Edge 62, Type (0, 0), BuildingBlock: XUDNAN_clean_linker_2, # of connection points: 2
#     Edge 63, Type (0, 0), BuildingBlock: XUDNAN_clean_linker_2, # of connection points: 2
# Relax obj value: 0.392
# Max RMSD: 0.269
# Mean RMSD: 0.269
data_MOF--net-whk--node1-MIFKUJ_clean_sbu_0--edge1-XUDNAN_clean_linker_2
_symmetry_space_group_name_H-M    P1
_symmetry_Int_Tables_number       1
_symmetry_cell_setting            triclinic
loop_
_symmetry_equiv_pos_as_xyz
'x, y, z'
_cell_length_a     40.639678
_cell_length_b     40.648367
_cell_length_c     43.000225
_cell_angle_alpha  90.243954
_cell_angle_beta   89.821147
_cell_angle_gamma 89.835123
loop_
_atom_site_label
_atom_site_type_symbol
_atom_site_fract_x
_atom_site_fract_y
_atom_site_fract_z
_atom_type_partial_charge
Zn0 Zn 0.50325 0.1501 0.40974 0.0
Zn1 Zn 0.59463 0.17519 0.4 0.0
C2 C 0.48306 0.21787 0.38444 0.0
O3 O 0.50143 0.21471 0.3594 0.0
C4 C 0.6394 0.12325 0.41705 0.0
O5 O 0.63665 0.11646 0.38729 0.0
O6 O 0.4651 0.11811 0.41393 0.0
O7 O 0.53088 0.13401 0.37188 0.0
O8 O 0.58279 0.14948 0.36235 0.0
C9 C 0.44175 0.1224 0.39463 0.0
O10 O 0.44424 0.14616 0.37416 0.0
O11 O 0.48177 0.19468 0.40411 0.0
C12 C 0.61743 0.24181 0.40307 0.0
O13 O 0.59037 0.24586 0.41939 0.0
O14 O 0.62299 0.21416 0.39014 0.0
O15 O 0.55353 0.18986 0.41996 0.0
O16 O 0.52697 0.15792 0.45097 0.0
O17 O 0.62246 0.14676 0.42856 0.0
C18 C 0.55699 0.13355 0.35517 0.0
C19 C 0.54853 0.18012 0.44739 0.0
Zn20 Zn 0.32744 0.4864 0.3969 0.0
Zn21 Zn 0.36152 0.58008 0.42067 0.0
C22 C 0.2679 0.4515 0.3959 0.0
O23 O 0.27712 0.44783 0.42494 0.0
C24 C 0.41842 0.61934 0.4316 0.0
O25 O 0.41617 0.62216 0.40124 0.0
O26 O 0.35365 0.44729 0.41218 0.0
O27 O 0.35494 0.50804 0.36306 0.0
O28 O 0.37195 0.55598 0.3815 0.0
C29 C 0.36629 0.43005 0.39037 0.0
O30 O 0.36191 0.4394 0.36146 0.0
O31 O 0.2867 0.46702 0.37736 0.0
C32 C 0.33594 0.64322 0.42251 0.0
O33 O 0.34049 0.63789 0.45232 0.0
O34 O 0.34266 0.62064 0.40316 0.0
O35 O 0.32455 0.56404 0.44776 0.0
O36 O 0.30778 0.51504 0.43145 0.0
O37 O 0.40002 0.59856 0.44532 0.0
C38 C 0.37195 0.53409 0.36041 0.0
C39 C 0.30499 0.53979 0.44954 0.0
Zn40 Zn 0.99203 0.3214 0.39005 0.0
Zn41 Zn 0.89603 0.35914 0.4121 0.0
C42 C 0.01507 0.25579 0.37051 0.0
O43 O 0.01759 0.26797 0.34236 0.0
C44 C 0.8596 0.41873 0.41155 0.0
O45 O 0.84797 0.40474 0.38628 0.0
O46 O 0.03373 0.34849 0.39465 0.0
O47 O 0.97051 0.33632 0.35039 0.0
O48 O 0.92424 0.35559 0.3718 0.0
C49 C 0.04921 0.35282 0.36918 0.0
O50 O 0.03717 0.34003 0.34355 0.0
O51 O 0.00436 0.27382 0.39247 0.0
C52 C 0.83345 0.34086 0.4287 0.0
O53 O 0.84523 0.35465 0.45401 0.0
O54 O 0.85197 0.33823 0.40492 0.0
O55 O 0.9138 0.3331 0.4489 0.0
O56 O 0.95723 0.33123 0.42049 0.0
O57 O 0.88437 0.40574 0.42489 0.0
C58 C 0.9433 0.35197 0.34826 0.0
C59 C 0.94112 0.31955 0.44307 0.0
Zn60 Zn 0.16317 0.98415 0.39296 0.0
Zn61 Zn 0.1751 0.89792 0.38546 0.0
C62 C 0.22128 0.02591 0.3789 0.0
O63 O 0.2006 0.05077 0.37891 0.0
C64 C 0.12413 0.85409 0.40298 0.0
O65 O 0.12544 0.84955 0.37273 0.0
O66 O 0.13749 0.02543 0.4029 0.0
O67 O 0.13901 0.96407 0.3555 0.0
O68 O 0.15296 0.91197 0.34704 0.0
C69 C 0.1272 0.0423 0.38003 0.0
O70 O 0.13452 0.03264 0.35163 0.0
O71 O 0.21035 0.99679 0.38197 0.0
C72 C 0.21832 0.8489 0.39689 0.0
O73 O 0.21077 0.86016 0.42471 0.0
O74 O 0.20497 0.86183 0.37332 0.0
O75 O 0.20543 0.92986 0.40604 0.0
O76 O 0.17003 0.95856 0.43318 0.0
O77 O 0.14241 0.8761 0.41507 0.0
C78 C 0.13812 0.93797 0.3391 0.0
C79 C 0.19661 0.942 0.43188 0.0
Zn80 Zn 0.0016 0.82897 0.09879 0.0
Zn81 Zn 0.10017 0.86341 0.08494 0.0
C82 C 0.97586 0.76554 0.1216 0.0
O83 O 0.9747 0.77883 0.14948 0.0
C84 C 0.12705 0.9267 0.07072 0.0
O85 O 0.13989 0.92375 0.09858 0.0
O86 O 0.96347 0.85876 0.08657 0.0
O87 O 0.01799 0.84677 0.13982 0.0
O88 O 0.06647 0.86231 0.12119 0.0
C89 C 0.94205 0.86176 0.10816 0.0
O90 O 0.9468 0.84589 0.13433 0.0
O91 O 0.98622 0.78234 0.09882 0.0
C92 C 0.16932 0.85196 0.08262 0.0
O93 O 0.16465 0.86282 0.05424 0.0
O94 O 0.14488 0.85005 0.10107 0.0
O95 O 0.08965 0.83001 0.05145 0.0
O96 O 0.04185 0.83024 0.07307 0.0
O97 O 0.10499 0.90642 0.06245 0.0
C98 C 0.0455 0.86149 0.14343 0.0
C99 C 0.06111 0.8179 0.05298 0.0
Zn100 Zn 0.66086 0.98728 0.11515 0.0
Zn101 Zn 0.64862 0.08909 0.09822 0.0
C102 C 0.72054 0.95516 0.112 0.0
O103 O 0.70265 0.94126 0.09026 0.0
C104 C 0.60741 0.14405 0.0874 0.0
O105 O 0.61311 0.14719 0.11732 0.0
O106 O 0.63418 0.9457 0.11754 0.0
O107 O 0.63786 0.02397 0.14324 0.0
O108 O 0.62774 0.07791 0.13802 0.0
C109 C 0.62658 0.93406 0.14398 0.0
O110 O 0.63573 0.94989 0.16918 0.0
O111 O 0.70716 0.97638 0.12995 0.0
C112 C 0.69866 0.13616 0.08982 0.0
O113 O 0.68645 0.13659 0.06156 0.0
O114 O 0.68836 0.11484 0.10892 0.0
O115 O 0.65646 0.04536 0.08174 0.0
O116 O 0.67155 0.99688 0.06927 0.0
O117 O 0.61879 0.11891 0.07313 0.0
C118 C 0.62589 0.05132 0.15356 0.0
C119 C 0.6741 0.02732 0.06465 0.0
Zn120 Zn 0.49654 0.65438 0.1173 0.0
Zn121 Zn 0.39339 0.65961 0.11254 0.0
C122 C 0.53211 0.71362 0.11962 0.0
O123 O 0.54034 0.70248 0.09193 0.0
C124 C 0.33673 0.61847 0.10029 0.0
O125 O 0.33428 0.61922 0.13075 0.0
O126 O 0.53547 0.62357 0.11546 0.0
O127 O 0.45937 0.63639 0.14688 0.0
O128 O 0.40445 0.63701 0.15215 0.0
C129 C 0.54725 0.61261 0.14075 0.0
O130 O 0.5322 0.61975 0.16702 0.0
O131 O 0.51342 0.69629 0.13672 0.0
C132 C 0.35138 0.71128 0.13657 0.0
O133 O 0.33965 0.68766 0.15412 0.0
O134 O 0.37571 0.70523 0.11889 0.0
O135 O 0.43635 0.66109 0.09274 0.0
O136 O 0.4838 0.66976 0.07332 0.0
O137 O 0.36066 0.63319 0.08726 0.0
C138 C 0.43299 0.62825 0.16141 0.0
C139 C 0.45315 0.6744 0.07163 0.0
Zn140 Zn 0.83215 0.4913 0.10536 0.0
Zn141 Zn 0.80711 0.40723 0.10752 0.0
C142 C 0.77001 0.52477 0.10633 0.0
O143 O 0.77948 0.53192 0.07791 0.0
C144 C 0.84371 0.3559 0.07796 0.0
O145 O 0.83095 0.34031 0.10175 0.0
O146 O 0.85965 0.53127 0.09653 0.0
O147 O 0.8563 0.46548 0.13945 0.0
O148 O 0.83248 0.41665 0.14568 0.0
C149 C 0.86499 0.55148 0.11858 0.0
O150 O 0.8524 0.54553 0.14617 0.0
O151 O 0.78904 0.50781 0.12345 0.0
C152 C 0.77268 0.35702 0.14209 0.0
O153 O 0.79018 0.36729 0.16584 0.0
O154 O 0.7741 0.37251 0.11657 0.0
O155 O 0.78265 0.44554 0.09158 0.0
O156 O 0.82035 0.46958 0.06394 0.0
O157 O 0.83807 0.38662 0.07499 0.0
C158 C 0.85236 0.43877 0.1545 0.0
C159 C 0.79352 0.45371 0.0652 0.0
Zn160 Zn 0.40738 0.83387 0.60499 0.0
Zn161 Zn 0.49882 0.83934 0.61423 0.0
C162 C 0.36603 0.8827 0.58351 0.0
O163 O 0.36021 0.88092 0.61352 0.0
C164 C 0.52585 0.77548 0.61168 0.0
O165 O 0.53537 0.78765 0.58487 0.0
O166 O 0.36849 0.80501 0.61166 0.0
O167 O 0.44244 0.80171 0.59235 0.0
O168 O 0.48125 0.83022 0.57017 0.0
C169 C 0.36203 0.79071 0.58608 0.0
O170 O 0.38129 0.79594 0.56201 0.0
O171 O 0.38938 0.8653 0.57215 0.0
C172 C 0.55522 0.87223 0.63743 0.0
O173 O 0.53983 0.86481 0.66338 0.0
O174 O 0.54239 0.86368 0.61166 0.0
O175 O 0.47117 0.86463 0.64692 0.0
O176 O 0.41682 0.85925 0.64306 0.0
O177 O 0.50964 0.79381 0.63034 0.0
C178 C 0.46062 0.80676 0.56898 0.0
C179 C 0.44204 0.87052 0.6566 0.0
Zn180 Zn 0.68109 0.41269 0.59387 0.0
Zn181 Zn 0.65722 0.50286 0.60003 0.0
C182 C 0.6498 0.35554 0.56922 0.0
O183 O 0.66772 0.34279 0.5915 0.0
C184 C 0.70801 0.5471 0.59111 0.0
O185 O 0.68594 0.55503 0.57014 0.0
O186 O 0.71927 0.38225 0.5996 0.0
O187 O 0.7023 0.45261 0.57577 0.0
O188 O 0.66426 0.48442 0.55623 0.0
C189 C 0.73574 0.37754 0.57479 0.0
O190 O 0.72851 0.39494 0.55003 0.0
O191 O 0.65021 0.38669 0.56513 0.0
C192 C 0.61616 0.55245 0.6259 0.0
O193 O 0.62731 0.5383 0.65119 0.0
O194 O 0.62479 0.54092 0.59953 0.0
O195 O 0.64195 0.47232 0.63491 0.0
O196 O 0.65849 0.42008 0.63428 0.0
O197 O 0.70133 0.52393 0.60994 0.0
C198 C 0.69124 0.46884 0.55304 0.0
C199 C 0.64307 0.4438 0.64707 0.0
Zn200 Zn 0.08543 0.67108 0.59743 0.0
Zn201 Zn 0.99714 0.66358 0.59944 0.0
C202 C 0.11129 0.60966 0.5711 0.0
O203 O 0.10679 0.59855 0.59942 0.0
C204 C 0.96793 0.72747 0.59868 0.0
O205 O 0.96098 0.71734 0.5704 0.0
O206 O 0.1273 0.69521 0.60456 0.0
O207 O 0.05389 0.70567 0.58366 0.0
O208 O 0.02014 0.67431 0.55787 0.0
C209 C 0.13865 0.70463 0.57855 0.0
O210 O 0.1209 0.70024 0.55342 0.0
O211 O 0.1004 0.63808 0.56406 0.0
C212 C 0.93668 0.62494 0.6081 0.0
O213 O 0.94814 0.61926 0.63611 0.0
O214 O 0.95381 0.6417 0.58909 0.0
O215 O 0.01945 0.6373 0.63498 0.0
O216 O 0.07293 0.64874 0.63608 0.0
O217 O 0.98381 0.70832 0.61664 0.0
C218 C 0.03924 0.69904 0.55859 0.0
C219 C 0.04768 0.6353 0.64782 0.0
Zn220 Zn 0.84616 0.09635 0.59436 0.0
Zn221 Zn 0.83607 0.00322 0.60877 0.0
C222 C 0.89895 0.1266 0.56726 0.0
O223 O 0.89911 0.13608 0.59653 0.0
C224 C 0.7729 0.97355 0.60819 0.0
O225 O 0.78334 0.96655 0.57997 0.0
O226 O 0.82684 0.1417 0.59766 0.0
O227 O 0.80785 0.06715 0.58619 0.0
O228 O 0.82576 0.02148 0.56537 0.0
C229 C 0.82001 0.1537 0.57118 0.0
O230 O 0.82289 0.13503 0.5463 0.0
O231 O 0.87974 0.1032 0.55954 0.0
C232 C 0.87099 0.94742 0.63025 0.0
O233 O 0.86363 0.96239 0.65651 0.0
O234 O 0.86184 0.96045 0.60481 0.0
O235 O 0.86119 0.0314 0.64116 0.0
O236 O 0.86884 0.08511 0.6335 0.0
O237 O 0.79159 0.98991 0.62624 0.0
C238 C 0.80931 0.048 0.56304 0.0
C239 C 0.87265 0.05927 0.64956 0.0
Zn240 Zn 0.90725 0.12993 0.91642 0.0
Zn241 Zn -0.00058 0.1627 0.89642 0.0
C242 C 0.86995 0.07719 0.94048 0.0
O243 O 0.86006 0.07612 0.91143 0.0
C244 C 0.01158 0.22717 0.87249 0.0
O245 O 0.97965 0.23009 0.87661 0.0
O246 O 0.86328 0.14704 0.90446 0.0
O247 O 0.92598 0.16889 0.93853 0.0
O248 O 0.97608 0.18809 0.9304 0.0
C249 C 0.8445 0.15719 0.92611 0.0
O250 O 0.85505 0.15678 0.95496 0.0
O251 O 0.89488 0.09472 0.94718 0.0
C252 C 0.05214 0.11943 0.8904 0.0
O253 O 0.04412 0.12579 0.86146 0.0
O254 O 0.03485 0.13205 0.91216 0.0
O255 O 0.97357 0.13855 0.86306 0.0
O256 O 0.92576 0.11509 0.87522 0.0
O257 O 0.02506 0.19926 0.87653 0.0
C258 C 0.94859 0.18937 0.94439 0.0
C259 C 0.94892 0.12074 0.85601 0.0
Zn260 Zn 0.35908 0.90752 0.9105 0.0
Zn261 Zn 0.33903 -0.0013 0.90651 0.0
C262 C 0.40532 0.8702 0.94671 0.0
O263 O 0.41889 0.86506 0.91935 0.0
C264 C 0.2707 0.01661 0.88466 0.0
O265 O 0.2771 0.00319 0.85746 0.0
O266 O 0.347 0.86465 0.89032 0.0
O267 O 0.31576 0.92642 0.92261 0.0
O268 O 0.33736 0.96992 0.94418 0.0
C269 C 0.33057 0.84719 0.90922 0.0
O270 O 0.32249 0.85973 0.93639 0.0
O271 O 0.38284 0.89195 0.94923 0.0
C272 C 0.36368 0.06173 0.89334 0.0
O273 O 0.33907 0.05938 0.87372 0.0
O274 O 0.36952 0.03773 0.91147 0.0
O275 O 0.35243 0.9754 0.86606 0.0
O276 O 0.38544 0.93392 0.87964 0.0
O277 O 0.29281 0.01722 0.90546 0.0
C278 C 0.31306 0.95071 0.94085 0.0
C279 C 0.37403 0.95354 0.85927 0.0
Zn280 Zn 0.58951 0.32086 0.89539 0.0
Zn281 Zn 0.50037 0.34078 0.89291 0.0
C282 C 0.63663 0.36803 0.91198 0.0
O283 O 0.64144 0.36477 0.8819 0.0
C284 C 0.45943 0.28263 0.87649 0.0
O285 O 0.43538 0.30351 0.87121 0.0
O286 O 0.62127 0.2846 0.88813 0.0
O287 O 0.54858 0.30118 0.91132 0.0
O288 O 0.51904 0.33635 0.93715 0.0
C289 C 0.63649 0.27482 0.9121 0.0
O290 O 0.62938 0.28799 0.93926 0.0
O291 O 0.61297 0.35244 0.92461 0.0
C292 C 0.43659 0.37054 0.91235 0.0
O293 O 0.4392 0.35342 0.93808 0.0
O294 O 0.45923 0.36868 0.892 0.0
O295 O 0.52886 0.35929 0.85712 0.0
O296 O 0.58136 0.34349 0.85593 0.0
O297 O 0.48779 0.29347 0.88339 0.0
C298 C 0.53888 0.31212 0.93727 0.0
C299 C 0.55719 0.35876 0.84417 0.0
Zn300 Zn 0.17037 0.58929 0.89671 0.0
Zn301 Zn 0.15569 0.50108 0.8948 0.0
C302 C 0.1284 0.63844 0.92187 0.0
O303 O 0.13524 0.65033 0.89422 0.0
C304 C 0.21785 0.47325 0.90275 0.0
O305 O 0.20179 0.46445 0.92794 0.0
O306 O 0.20337 0.62311 0.88436 0.0
O307 O 0.19593 0.55188 0.91365 0.0
O308 O 0.15953 0.52241 0.93795 0.0
C309 C 0.2182 0.63751 0.90645 0.0
O310 O 0.21108 0.62941 0.93523 0.0
O311 O 0.14029 0.61053 0.92922 0.0
C312 C 0.10744 0.44756 0.88911 0.0
O313 O 0.08715 0.4701 0.87858 0.0
O314 O 0.13586 0.45594 0.89841 0.0
O315 O 0.13148 0.52481 0.85925 0.0
O316 O 0.14435 0.57797 0.85934 0.0
O317 O 0.2029 0.49052 0.88253 0.0
C318 C 0.1844 0.54127 0.93899 0.0
C319 C 0.12985 0.55343 0.84726 0.0
H320 H 0.55233 0.15275 0.29503 0.0
H321 H 0.5684 0.06783 0.35339 0.0
H322 H 0.58248 0.03432 0.30681 0.0
H323 H 0.51791 0.10616 0.22657 0.0
H324 H 0.53778 0.1334 0.19945 0.0
H325 H 0.52433 0.14871 0.2368 0.0
H326 H 0.58345 0.16942 0.24792 0.0
H327 H 0.5971 0.15394 0.21086 0.0
H328 H 0.61737 0.14078 0.24592 0.0
H329 H 0.60274 0.01281 0.25421 0.0
H330 H 0.62455 0.005 0.20077 0.0
H331 H 0.59245 0.10379 0.17752 0.0
C332 C 0.55762 0.12678 0.29771 0.0
C333 C 0.55865 0.11246 0.32741 0.0
C334 C 0.56675 0.0788 0.33053 0.0
C335 C 0.57488 0.0597 0.30426 0.0
C336 C 0.57435 0.07468 0.27513 0.0
C337 C 0.56535 0.10737 0.27173 0.0
C338 C 0.56893 0.1184 0.23838 0.0
C339 C 0.53523 0.12718 0.22449 0.0
C340 C 0.59316 0.14732 0.23564 0.0
C341 C 0.58276 0.08737 0.2238 0.0
C342 C 0.58547 0.06223 0.24512 0.0
C343 C 0.60003 0.03213 0.23716 0.0
C344 C 0.61234 0.02785 0.20673 0.0
C345 C 0.61011 0.05359 0.18474 0.0
C346 C 0.5945 0.08339 0.19353 0.0
H347 H 0.41742 0.65011 0.21911 0.0
H348 H 0.45052 0.56399 0.16831 0.0
H349 H 0.44257 0.52992 0.21554 0.0
H350 H 0.45526 0.62633 0.29541 0.0
H351 H 0.4213 0.64382 0.31696 0.0
H352 H 0.43341 0.66141 0.28027 0.0
H353 H 0.37386 0.65424 0.25998 0.0
H354 H 0.3617 0.63629 0.29637 0.0
H355 H 0.35527 0.61402 0.26056 0.0
H356 H 0.42193 0.50439 0.26598 0.0
H357 H 0.39723 0.49072 0.31716 0.0
H358 H 0.38216 0.59466 0.33563 0.0
C359 C 0.42401 0.62428 0.21837 0.0
C360 C 0.43493 0.60953 0.19048 0.0
C361 C 0.44268 0.57562 0.18981 0.0
C362 C 0.43808 0.55616 0.21642 0.0
C363 C 0.42637 0.57128 0.24352 0.0
C364 C 0.42026 0.60477 0.24485 0.0
C365 C 0.40662 0.61493 0.27623 0.0
C366 C 0.43058 0.63798 0.29322 0.0
C367 C 0.37233 0.63079 0.27307 0.0
C368 C 0.40473 0.5818 0.29199 0.0
C369 C 0.41612 0.55683 0.27284 0.0
C370 C 0.41377 0.52383 0.28147 0.0
C371 C 0.39958 0.51627 0.31046 0.0
C372 C 0.38835 0.54163 0.33053 0.0
C373 C 0.39133 0.57475 0.32114 0.0
H374 H 0.88291 0.35746 0.32027 0.0
H375 H 0.98584 0.38295 0.30959 0.0
H376 H 0.97316 0.41193 0.26062 0.0
H377 H 0.8705 0.33938 0.23939 0.0
H378 H 0.8289 0.35482 0.23879 0.0
H379 H 0.8457 0.33848 0.27421 0.0
H380 H 0.83189 0.39314 0.30273 0.0
H381 H 0.8152 0.40972 0.26731 0.0
H382 H 0.84741 0.43135 0.28752 0.0
H383 H 0.94892 0.43916 0.21317 0.0
H384 H 0.91629 0.45549 0.16703 0.0
H385 H 0.83056 0.40779 0.20646 0.0
C386 C 0.90265 0.36933 0.30763 0.0
C387 C 0.93528 0.36824 0.31865 0.0
C388 C 0.96068 0.3835 0.30136 0.0
C389 C 0.95369 0.40019 0.27369 0.0
C390 C 0.92126 0.40087 0.26335 0.0
C391 C 0.89625 0.38531 0.27947 0.0
C392 C 0.86403 0.38746 0.26204 0.0
C393 C 0.85156 0.35299 0.25307 0.0
C394 C 0.8381 0.40656 0.28103 0.0
C395 C 0.87484 0.40663 0.23368 0.0
C396 C 0.90777 0.41475 0.23513 0.0
C397 C 0.92313 0.43279 0.21167 0.0
C398 C 0.90446 0.44211 0.18568 0.0
C399 C 0.87112 0.43265 0.1832 0.0
C400 C 0.85614 0.41507 0.20771 0.0
H401 H 0.15978 0.9285 0.27996 0.0
H402 H 0.07158 0.94138 0.33545 0.0
H403 H 0.03745 0.92647 0.28985 0.0
H404 H 0.12243 0.96081 0.20547 0.0
H405 H 0.14592 0.93213 0.18221 0.0
H406 H 0.16268 0.94788 0.21806 0.0
H407 H 0.17135 0.88817 0.23731 0.0
H408 H 0.15413 0.87226 0.20186 0.0
H409 H 0.13674 0.86055 0.2388 0.0
H410 H 0.01413 0.90203 0.24093 0.0
H411 H 0.00222 0.87614 0.19024 0.0
H412 H 0.10562 0.88225 0.16527 0.0
C413 C 0.13322 0.92929 0.28204 0.0
C414 C 0.11805 0.93652 0.31081 0.0
C415 C 0.08339 0.9366 0.31326 0.0
C416 C 0.06393 0.92799 0.28758 0.0
C417 C 0.07964 0.9201 0.2596 0.0
C418 C 0.11348 0.92152 0.25644 0.0
C419 C 0.12432 0.91072 0.2242 0.0
C420 C 0.13975 0.93961 0.20643 0.0
C421 C 0.14802 0.88117 0.22566 0.0
C422 C 0.0915 0.90116 0.21031 0.0
C423 C 0.06603 0.90696 0.23103 0.0
C424 C 0.03377 0.89804 0.22427 0.0
C425 C 0.0273 0.88311 0.19548 0.0
C426 C 0.05295 0.8773 0.1737 0.0
C427 C 0.08542 0.8867 0.18126 0.0
H428 H 0.41913 0.90925 0.83596 0.0
H429 H 0.35496 0.98966 0.80856 0.0
H430 H 0.37114 0.98096 0.75379 0.0
H431 H 0.48453 0.92431 0.77753 0.0
H432 H 0.49176 0.88098 0.77149 0.0
H433 H 0.47797 0.89579 0.80892 0.0
H434 H 0.42838 0.85594 0.80685 0.0
H435 H 0.44199 0.84099 0.76953 0.0
H436 H 0.40094 0.85728 0.77401 0.0
H437 H 0.38861 0.95939 0.70198 0.0
H438 H 0.407 0.92683 0.65645 0.0
H439 H 0.46171 0.86177 0.71693 0.0
C440 C 0.40892 0.92551 0.81857 0.0
C441 C 0.38581 0.95027 0.82669 0.0
C442 C 0.37278 0.97064 0.80304 0.0
C443 C 0.3819 0.96594 0.77184 0.0
C444 C 0.40431 0.941 0.76466 0.0
C445 C 0.41784 0.92124 0.78735 0.0
C446 C 0.43969 0.89477 0.77321 0.0
C447 C 0.47563 0.89924 0.7834 0.0
C448 C 0.42698 0.86021 0.78138 0.0
C449 C 0.43556 0.90208 0.73891 0.0
C450 C 0.4152 0.92903 0.73456 0.0
C451 C 0.4052 0.9388 0.70506 0.0
C452 C 0.41576 0.92023 0.67938 0.0
C453 C 0.43637 0.89248 0.68333 0.0
C454 C 0.4469 0.88362 0.71337 0.0
H455 H 0.60469 0.34497 0.80156 0.0
H456 H 0.52271 0.41107 0.81941 0.0
H457 H 0.53591 0.44126 0.77086 0.0
H458 H 0.6602 0.40373 0.77144 0.0
H459 H 0.6772 0.37622 0.74255 0.0
H460 H 0.66073 0.36 0.77822 0.0
H461 H 0.62137 0.32228 0.74697 0.0
H462 H 0.63789 0.33817 0.71118 0.0
H463 H 0.59425 0.3402 0.71854 0.0
H464 H 0.56094 0.46576 0.72112 0.0
H465 H 0.59162 0.47882 0.67283 0.0
H466 H 0.65513 0.39449 0.68824 0.0
C467 C 0.58938 0.36576 0.79532 0.0
C468 C 0.56281 0.37587 0.81434 0.0
C469 C 0.54316 0.40292 0.8051 0.0
C470 C 0.55058 0.42025 0.77768 0.0
C471 C 0.57741 0.40987 0.75974 0.0
C472 C 0.59615 0.38292 0.76809 0.0
C473 C 0.62333 0.37612 0.74489 0.0
C474 C 0.65737 0.37922 0.7602 0.0
C475 C 0.61893 0.34219 0.72948 0.0
C476 C 0.61727 0.40361 0.72213 0.0
C477 C 0.59091 0.42308 0.73108 0.0
C478 C 0.58144 0.45049 0.71383 0.0
C479 C 0.5991 0.45782 0.68654 0.0
C480 C 0.62563 0.43756 0.6767 0.0
C481 C 0.63477 0.41028 0.69495 0.0
H482 H 0.09403 0.6486 0.69091 0.0
H483 H 0.0116 0.58383 0.67289 0.0
H484 H 0.02337 0.55422 0.72224 0.0
H485 H 0.14813 0.5895 0.72262 0.0
H486 H 0.1649 0.61747 0.75104 0.0
H487 H 0.14928 0.63302 0.71484 0.0
H488 H 0.10978 0.67221 0.74481 0.0
H489 H 0.12545 0.65696 0.78112 0.0
H490 H 0.08192 0.65549 0.77333 0.0
H491 H 0.04779 0.53003 0.7735 0.0
H492 H 0.07804 0.51788 0.82237 0.0
H493 H 0.14175 0.60127 0.80512 0.0
C494 C 0.07832 0.62818 0.69721 0.0
C495 C 0.05208 0.61828 0.67793 0.0
C496 C 0.03185 0.5918 0.68738 0.0
C497 C 0.03848 0.5748 0.71526 0.0
C498 C 0.06508 0.585 0.73346 0.0
C499 C 0.08428 0.61146 0.72481 0.0
C500 C 0.11107 0.61841 0.74812 0.0
C501 C 0.14536 0.61434 0.73326 0.0
C502 C 0.10678 0.6528 0.76271 0.0
C503 C 0.10427 0.59165 0.7714 0.0
C504 C 0.07794 0.57226 0.76267 0.0
C505 C 0.06819 0.54534 0.78059 0.0
C506 C 0.08556 0.53852 0.80821 0.0
C507 C 0.11198 0.55885 0.81773 0.0
C508 C 0.12134 0.58553 0.79882 0.0
H509 H 0.8541 0.04596 0.70956 0.0
H510 H 0.93486 0.08169 0.65322 0.0
H511 H 0.96617 0.09519 0.70074 0.0
H512 H 0.85726 0.10942 0.76353 0.0
H513 H 0.84687 0.08516 0.79712 0.0
H514 H 0.83316 0.07252 0.75919 0.0
H515 H 0.86117 0.01574 0.76637 0.0
H516 H 0.87479 0.02814 0.80451 0.0
H517 H 0.90425 0.01377 0.77609 0.0
H518 H 0.98613 0.11033 0.75347 0.0
H519 H 0.99294 0.12772 0.80801 0.0
H520 H 0.89823 0.08456 0.8308 0.0
C521 C 0.87886 0.05549 0.70743 0.0
C522 C 0.89257 0.06212 0.67794 0.0
C523 C 0.92436 0.07597 0.67575 0.0
C524 C 0.94228 0.08367 0.70256 0.0
C525 C 0.92787 0.07768 0.73141 0.0
C526 C 0.89688 0.06392 0.7341 0.0
C527 C 0.88562 0.06364 0.76778 0.0
C528 C 0.85386 0.0839 0.77214 0.0
C529 C 0.88121 0.02821 0.77937 0.0
C530 C 0.91471 0.08013 0.78336 0.0
C531 C 0.93901 0.08752 0.76201 0.0
C532 C 0.96747 0.10431 0.7705 0.0
C533 C 0.97107 0.11417 0.80159 0.0
C534 C 0.9462 0.10751 0.82386 0.0
C535 C 0.91788 0.08982 0.81452 0.0
H536 H 0.38205 0.1368 0.36935 0.0
H537 H 0.43388 0.06111 0.42064 0.0
H538 H 0.38389 0.02626 0.4193 0.0
H539 H 0.30523 0.1274 0.4086 0.0
H540 H 0.28099 0.1356 0.37445 0.0
H541 H 0.3213 0.15334 0.37826 0.0
H542 H 0.33843 0.12728 0.3255 0.0
H543 H 0.29822 0.10922 0.32164 0.0
H544 H 0.33439 0.0835 0.31987 0.0
H545 H 0.32775 -0.00042 0.41149 0.0
H546 H 0.26918 0.9859 0.40303 0.0
H547 H 0.25411 0.08071 0.35925 0.0
C548 C 0.38302 0.11281 0.38016 0.0
C549 C 0.41194 0.10151 0.39489 0.0
C550 C 0.41198 0.07021 0.40921 0.0
C551 C 0.38377 0.05022 0.40841 0.0
C552 C 0.35571 0.06208 0.39347 0.0
C553 C 0.35507 0.09285 0.37995 0.0
C554 C 0.32148 0.10074 0.36678 0.0
C555 C 0.30636 0.13106 0.383 0.0
C556 C 0.32325 0.10545 0.33134 0.0
C557 C 0.30313 0.06964 0.37505 0.0
C558 C 0.32336 0.04738 0.39002 0.0
C559 C 0.31175 0.01686 0.39981 0.0
C560 C 0.27848 0.00923 0.39472 0.0
C561 C 0.25711 0.03224 0.38041 0.0
C562 C 0.26984 0.06263 0.37021 0.0
H563 H 0.40414 0.39437 0.34974 0.0
H564 H 0.3686 0.39543 0.44505 0.0
H565 H 0.39555 0.34164 0.45398 0.0
H566 H 0.39312 0.30932 0.33535 0.0
H567 H 0.42998 0.30464 0.31231 0.0
H568 H 0.40908 0.34374 0.31379 0.0
H569 H 0.46272 0.372 0.33217 0.0
H570 H 0.48388 0.33302 0.33058 0.0
H571 H 0.48363 0.35671 0.36611 0.0
H572 H 0.42314 0.28634 0.45132 0.0
H573 H 0.45252 0.23497 0.43881 0.0
H574 H 0.47215 0.27076 0.34556 0.0
C575 C 0.40219 0.38344 0.37259 0.0
C576 C 0.38419 0.39906 0.39673 0.0
C577 C 0.38235 0.38397 0.42628 0.0
C578 C 0.3975 0.3534 0.43152 0.0
C579 C 0.41464 0.33849 0.40706 0.0
C580 C 0.41737 0.35316 0.37828 0.0
C581 C 0.43702 0.3319 0.35583 0.0
C582 C 0.41604 0.32181 0.32766 0.0
C583 C 0.46869 0.34945 0.34558 0.0
C584 C 0.44457 0.30266 0.37636 0.0
C585 C 0.43132 0.30697 0.40577 0.0
C586 C 0.43393 0.28288 0.42849 0.0
C587 C 0.45067 0.2537 0.42108 0.0
C588 C 0.46497 0.24885 0.39124 0.0
C589 C 0.46181 0.27379 0.36864 0.0
H590 H 0.09061 0.36959 0.41753 0.0
H591 H 0.07928 0.37662 0.3174 0.0
H592 H 0.13315 0.40386 0.3135 0.0
H593 H 0.13298 0.44823 0.42834 0.0
H594 H 0.1601 0.43234 0.4578 0.0
H595 H 0.11959 0.41516 0.45311 0.0
H596 H 0.14521 0.35713 0.44613 0.0
H597 H 0.18578 0.37414 0.45064 0.0
H598 H 0.17592 0.35047 0.41639 0.0
H599 H 0.18898 0.42872 0.31991 0.0
H600 H 0.24328 0.44946 0.33658 0.0
H601 H 0.21913 0.42532 0.43225 0.0
C602 C 0.09929 0.37727 0.39487 0.0
C603 C 0.08068 0.37102 0.36779 0.0
C604 C 0.0931 0.38106 0.33849 0.0
C605 C 0.12368 0.39663 0.336 0.0
C606 C 0.14167 0.40197 0.36301 0.0
C607 C 0.12999 0.39268 0.39191 0.0
C608 C 0.1549 0.40024 0.41708 0.0
C609 C 0.14106 0.4255 0.44046 0.0
C610 C 0.16612 0.36861 0.43352 0.0
C611 C 0.18243 0.41485 0.39773 0.0
C612 C 0.1742 0.41585 0.36663 0.0
C613 C 0.19572 0.42815 0.34423 0.0
C614 C 0.22651 0.43983 0.3539 0.0
C615 C 0.23554 0.43891 0.38566 0.0
C616 C 0.21308 0.42623 0.40776 0.0
H617 H 0.10881 0.08721 0.33623 0.0
H618 H 0.10236 0.06642 0.43503 0.0
H619 H 0.07022 0.11755 0.44287 0.0
H620 H 0.12001 0.17354 0.34397 0.0
H621 H 0.09607 0.18356 0.31007 0.0
H622 H 0.11715 0.14463 0.31218 0.0
H623 H 0.0621 0.11424 0.30243 0.0
H624 H 0.04082 0.15311 0.30042 0.0
H625 H 0.02743 0.12227 0.32763 0.0
H626 H 0.03976 0.17136 0.43994 0.0
H627 H 0.01566 0.22527 0.42711 0.0
H628 H 0.04272 0.21096 0.33017 0.0
C629 C 0.10049 0.09323 0.35952 0.0
C630 C 0.10795 0.07276 0.38502 0.0
C631 C 0.09688 0.08174 0.41515 0.0
C632 C 0.07854 0.11065 0.41981 0.0
C633 C 0.07159 0.13024 0.39411 0.0
C634 C 0.08235 0.12199 0.36459 0.0
C635 C 0.07269 0.14785 0.34107 0.0
C636 C 0.10331 0.16331 0.32594 0.0
C637 C 0.04937 0.1335 0.31644 0.0
C638 C 0.05503 0.17215 0.36201 0.0
C639 C 0.05442 0.1614 0.39247 0.0
C640 C 0.04001 0.17997 0.41616 0.0
C641 C 0.02633 0.21056 0.40858 0.0
C642 C 0.02725 0.22235 0.37759 0.0
C643 C 0.04149 0.20261 0.35403 0.0
H644 H 0.89076 0.86805 0.14912 0.0
H645 H 0.92492 0.90129 0.05884 0.0
H646 H 0.87382 0.93396 0.05292 0.0
H647 H 0.80794 0.85734 0.12829 0.0
H648 H 0.79154 0.87098 0.16516 0.0
H649 H 0.83187 0.85274 0.16324 0.0
H650 H 0.85643 0.90448 0.18972 0.0
H651 H 0.81611 0.92299 0.19154 0.0
H652 H 0.84948 0.9444 0.17282 0.0
H653 H 0.81746 0.95974 0.05532 0.0
H654 H 0.7592 0.97456 0.06467 0.0
H655 H 0.76181 0.92487 0.15355 0.0
C656 C 0.88777 0.88248 0.12821 0.0
C657 C 0.91199 0.88219 0.10445 0.0
C658 C 0.9068 0.90116 0.07736 0.0
C659 C 0.87792 0.9199 0.07388 0.0
C660 C 0.85453 0.91949 0.09774 0.0
C661 C 0.85914 0.90121 0.12436 0.0
C662 C 0.82943 0.90329 0.14573 0.0
C663 C 0.8143 0.86906 0.15088 0.0
C664 C 0.83841 0.91978 0.17679 0.0
C665 C 0.80695 0.92507 0.12669 0.0
C666 C 0.82209 0.93445 0.09923 0.0
C667 C 0.80559 0.95293 0.07692 0.0
C668 C 0.7726 0.96129 0.08244 0.0
C669 C 0.75649 0.95135 0.11005 0.0
C670 C 0.774 0.93354 0.13271 0.0
H671 H 0.56101 0.76079 0.08385 0.0
H672 H 0.52835 0.74088 0.17811 0.0
H673 H 0.54753 0.79603 0.19448 0.0
H674 H 0.63391 0.80448 0.10343 0.0
H675 H 0.62994 0.83359 0.07215 0.0
H676 H 0.61318 0.79287 0.06806 0.0
H677 H 0.55595 0.81781 0.05588 0.0
H678 H 0.5724 0.85868 0.06009 0.0
H679 H 0.53737 0.8463 0.08299 0.0
H680 H 0.57227 0.85266 0.20068 0.0
H681 H 0.59955 0.90668 0.19618 0.0
H682 H 0.61438 0.88952 0.09739 0.0
C683 C 0.55792 0.76793 0.10798 0.0
C684 C 0.54338 0.74647 0.12979 0.0
C685 C 0.53948 0.75693 0.16104 0.0
C686 C 0.55027 0.78818 0.17053 0.0
C687 C 0.56459 0.80869 0.14839 0.0
C688 C 0.56826 0.79902 0.11774 0.0
C689 C 0.58444 0.82555 0.09848 0.0
C690 C 0.61732 0.81339 0.08473 0.0
C691 C 0.56114 0.83781 0.07286 0.0
C692 C 0.58974 0.85159 0.12317 0.0
C693 C 0.57813 0.84143 0.15181 0.0
C694 C 0.58125 0.86095 0.17834 0.0
C695 C 0.59684 0.89156 0.17556 0.0
C696 C 0.60899 0.90237 0.14643 0.0
C697 C 0.60509 0.88212 0.11993 0.0
H698 H 0.59113 0.60493 0.09253 0.0
H699 H 0.57587 0.58088 0.18978 0.0
H700 H 0.6308 0.55482 0.1914 0.0
H701 H 0.63647 0.53062 0.07132 0.0
H702 H 0.66391 0.55216 0.0455 0.0
H703 H 0.62265 0.56719 0.05164 0.0
H704 H 0.64588 0.62393 0.06815 0.0
H705 H 0.68719 0.60902 0.06229 0.0
H706 H 0.67529 0.62618 0.09939 0.0
H707 H 0.68826 0.53299 0.18288 0.0
H708 H 0.74369 0.5166 0.16463 0.0
H709 H 0.72156 0.55591 0.07329 0.0
C710 C 0.59911 0.59378 0.11407 0.0
C711 C 0.5791 0.59481 0.14101 0.0
C712 C 0.59071 0.58034 0.16883 0.0
C713 C 0.62189 0.56547 0.16999 0.0
C714 C 0.64119 0.56534 0.14315 0.0
C715 C 0.63022 0.57903 0.11569 0.0
C716 C 0.6562 0.57661 0.09044 0.0
C717 C 0.64408 0.55537 0.06311 0.0
C718 C 0.66676 0.61098 0.07943 0.0
C719 C 0.68356 0.55961 0.10804 0.0
C720 C 0.67439 0.55319 0.13837 0.0
C721 C 0.69568 0.53782 0.15914 0.0
C722 C 0.72713 0.52864 0.14858 0.0
C723 C 0.73703 0.535 0.11756 0.0
C724 C 0.71483 0.55075 0.09716 0.0
H725 H 0.94424 0.72477 0.16268 0.0
H726 H 0.97975 0.73017 0.06747 0.0
H727 H 0.95703 0.67516 0.05685 0.0
H728 H 0.95946 0.63702 0.17324 0.0
H729 H 0.92269 0.63125 0.19611 0.0
H730 H 0.94345 0.67035 0.19664 0.0
H731 H 0.88941 0.69938 0.18018 0.0
H732 H 0.8685 0.66041 0.17945 0.0
H733 H 0.86864 0.68608 0.14536 0.0
H734 H 0.92808 0.62076 0.05579 0.0
H735 H 0.89569 0.57034 0.06469 0.0
H736 H 0.87902 0.60046 0.1605 0.0
C737 C 0.94757 0.71424 0.13971 0.0
C738 C 0.96381 0.73178 0.11596 0.0
C739 C 0.96741 0.71722 0.08609 0.0
C740 C 0.95461 0.68595 0.0798 0.0
C741 C 0.93833 0.66951 0.10362 0.0
C742 C 0.93488 0.68306 0.13299 0.0
C743 C 0.91539 0.66069 0.15416 0.0
C744 C 0.93652 0.64914 0.18166 0.0
C745 C 0.8836 0.67766 0.16544 0.0
C746 C 0.90807 0.63264 0.13199 0.0
C747 C 0.92163 0.63814 0.10299 0.0
C748 C 0.91751 0.61604 0.07846 0.0
C749 C 0.89903 0.58751 0.08374 0.0
C750 C 0.88486 0.58139 0.1133 0.0
C751 C 0.88962 0.60431 0.13768 0.0
H752 H 0.72586 0.94268 0.57314 0.0
H753 H 0.74578 0.97772 0.66671 0.0
H754 H 0.69175 0.95659 0.68398 0.0
H755 H 0.63882 0.96208 0.5731 0.0
H756 H 0.6279 0.926 0.55096 0.0
H757 H 0.66781 0.94443 0.54591 0.0
H758 H 0.69564 0.88867 0.55866 0.0
H759 H 0.65583 0.87008 0.56378 0.0
H760 H 0.68572 0.86825 0.59461 0.0
H761 H 0.63648 0.92988 0.69136 0.0
H762 H 0.5834 0.90087 0.68831 0.0
H763 H 0.599 0.88402 0.58956 0.0
C764 C 0.71888 0.94605 0.59727 0.0
C765 C 0.74014 0.96185 0.61861 0.0
C766 C 0.72994 0.96576 0.64994 0.0
C767 C 0.6993 0.95381 0.65995 0.0
C768 C 0.67908 0.93819 0.63833 0.0
C769 C 0.68838 0.93442 0.60761 0.0
C770 C 0.66221 0.91651 0.58908 0.0
C771 C 0.64837 0.93858 0.56324 0.0
C772 C 0.67566 0.88395 0.57575 0.0
C773 C 0.6368 0.91049 0.61425 0.0
C774 C 0.64704 0.92319 0.64248 0.0
C775 C 0.62814 0.92001 0.66935 0.0
C776 C 0.59802 0.9034 0.66736 0.0
C777 C 0.58693 0.89019 0.63868 0.0
C778 C 0.60664 0.89399 0.61178 0.0
H779 H 0.60266 0.59774 0.58026 0.0
H780 H 0.58562 0.57655 0.67783 0.0
H781 H 0.55701 0.62978 0.68403 0.0
H782 H 0.62134 0.68095 0.59011 0.0
H783 H 0.60132 0.69474 0.55514 0.0
H784 H 0.61714 0.65344 0.55737 0.0
H785 H 0.55971 0.63065 0.54338 0.0
H786 H 0.5432 0.67181 0.54146 0.0
H787 H 0.52457 0.64191 0.56681 0.0
H788 H 0.53381 0.68708 0.68067 0.0
H789 H 0.51827 0.74432 0.66782 0.0
H790 H 0.55125 0.72838 0.5728 0.0
C791 C 0.59229 0.60399 0.60276 0.0
C792 C 0.59624 0.5829 0.62853 0.0
C793 C 0.58286 0.59228 0.65773 0.0
C794 C 0.56648 0.62245 0.66149 0.0
C795 C 0.56361 0.643 0.63581 0.0
C796 C 0.57602 0.63414 0.60697 0.0
C797 C 0.57147 0.6616 0.58364 0.0
C798 C 0.6048 0.67337 0.57083 0.0
C799 C 0.54836 0.65086 0.55725 0.0
C800 C 0.55545 0.68754 0.60411 0.0
C801 C 0.5507 0.6762 0.63401 0.0
C802 C 0.53718 0.69615 0.65726 0.0
C803 C 0.52848 0.72863 0.64978 0.0
C804 C 0.53369 0.74089 0.61939 0.0
C805 C 0.54707 0.71983 0.5963 0.0
H806 H 0.89497 0.58365 0.64024 0.0
H807 H 0.90167 0.64338 0.55693 0.0
H808 H 0.84427 0.62978 0.54419 0.0
H809 H 0.84347 0.51933 0.60558 0.0
H810 H 0.82 0.5131 0.64069 0.0
H811 H 0.86211 0.52666 0.64296 0.0
H812 H 0.84356 0.57707 0.67577 0.0
H813 H 0.8014 0.56381 0.67333 0.0
H814 H 0.81262 0.60447 0.66059 0.0
H815 H 0.78593 0.61249 0.54157 0.0
H816 H 0.73051 0.58928 0.54705 0.0
H817 H 0.76072 0.53891 0.63124 0.0
C818 C 0.88443 0.59366 0.6192 0.0
C819 C 0.90289 0.61465 0.59961 0.0
C820 C 0.88817 0.62718 0.57226 0.0
C821 C 0.8555 0.61967 0.56484 0.0
C822 C 0.8379 0.59933 0.58482 0.0
C823 C 0.85184 0.58613 0.61123 0.0
C824 C 0.82726 0.56486 0.62859 0.0
C825 C 0.83891 0.52885 0.6295 0.0
C826 C 0.82083 0.57837 0.66152 0.0
C827 C 0.79719 0.56873 0.60807 0.0
C828 C 0.80402 0.58877 0.58299 0.0
C829 C 0.7803 0.59661 0.561 0.0
C830 C 0.74877 0.58338 0.56446 0.0
C831 C 0.74111 0.56232 0.58966 0.0
C832 C 0.76575 0.55499 0.61179 0.0
H833 H 0.88113 0.90346 0.58201 0.0
H834 H 0.90126 0.9192 0.68005 0.0
H835 H 0.92962 0.86559 0.6823 0.0
H836 H 0.86397 0.81769 0.58796 0.0
H837 H 0.883 0.80693 0.55138 0.0
H838 H 0.86566 0.84734 0.55694 0.0
H839 H 0.92159 0.87359 0.54223 0.0
H840 H 0.9391 0.83323 0.53656 0.0
H841 H 0.95815 0.86179 0.5631 0.0
H842 H 0.95479 0.80961 0.67441 0.0
H843 H 0.97416 0.75488 0.65685 0.0
H844 H 0.93699 0.77504 0.56428 0.0
C845 C 0.89177 0.89576 0.60386 0.0
C846 C 0.88902 0.91564 0.63082 0.0
C847 C 0.903 0.90446 0.65906 0.0
C848 C 0.91924 0.87403 0.66059 0.0
C849 C 0.92129 0.85492 0.63372 0.0
C850 C 0.90794 0.8653 0.60587 0.0
C851 C 0.91268 0.83951 0.58067 0.0
C852 C 0.87934 0.82714 0.56853 0.0
C853 C 0.93416 0.85283 0.55407 0.0
C854 C 0.93056 0.81301 0.59876 0.0
C855 C 0.93545 0.82246 0.62927 0.0
C856 C 0.95117 0.80196 0.65053 0.0
C857 C 0.96208 0.7709 0.64035 0.0
C858 C 0.95708 0.76057 0.60923 0.0
C859 C 0.94119 0.78211 0.58825 0.0
H860 H 0.09232 0.08862 0.84828 0.0
H861 H 0.08135 0.10837 0.94708 0.0
H862 H 0.13503 0.08143 0.95667 0.0
H863 H 0.13333 0.0084 0.85585 0.0
H864 H 0.15976 0.01567 0.82287 0.0
H865 H 0.11935 0.03397 0.82436 0.0
H866 H 0.14513 0.09162 0.81666 0.0
H867 H 0.1856 0.07358 0.8154 0.0
H868 H 0.17641 0.10565 0.8432 0.0
H869 H 0.19189 0.05641 0.95475 0.0
H870 H 0.24659 0.03372 0.94194 0.0
H871 H 0.21992 0.02969 0.84429 0.0
C872 C 0.1009 0.08689 0.87204 0.0
C873 C 0.08258 0.10059 0.89696 0.0
C874 C 0.09486 0.09793 0.92764 0.0
C875 C 0.12533 0.0827 0.9333 0.0
C876 C 0.14304 0.07007 0.90806 0.0
C877 C 0.13112 0.07176 0.87807 0.0
C878 C 0.15546 0.05754 0.85484 0.0
C879 C 0.14111 0.02708 0.83853 0.0
C880 C 0.16628 0.08366 0.83114 0.0
C881 C 0.18335 0.04824 0.87634 0.0
C882 C 0.17564 0.05552 0.90696 0.0
C883 C 0.19805 0.0504 0.93089 0.0
C884 C 0.22915 0.03763 0.92331 0.0
C885 C 0.23758 0.0299 0.89207 0.0
C886 C 0.21417 0.0351 0.86839 0.0
H887 H 0.34899 0.12112 0.86728 0.0
H888 H 0.42431 0.07059 0.92031 0.0
H889 H 0.4585 0.12093 0.91941 0.0
H890 H 0.40301 0.16853 0.81846 0.0
H891 H 0.37703 0.20454 0.81922 0.0
H892 H 0.35914 0.16428 0.8232 0.0
H893 H 0.33177 0.18205 0.87517 0.0
H894 H 0.34938 0.22241 0.87125 0.0
H895 H 0.35692 0.19872 0.90586 0.0
H896 H 0.48454 0.17703 0.91212 0.0
H897 H 0.49831 0.23533 0.90307 0.0
H898 H 0.40471 0.24932 0.85646 0.0
C899 C 0.37275 0.12052 0.87861 0.0
C900 C 0.3841 0.09185 0.89372 0.0
C901 C 0.41513 0.09228 0.9086 0.0
C902 C 0.43476 0.1207 0.90808 0.0
C903 C 0.42286 0.14849 0.89278 0.0
C904 C 0.39242 0.14868 0.87859 0.0
C905 C 0.38463 0.18203 0.86482 0.0
C906 C 0.38073 0.17969 0.82932 0.0
C907 C 0.35386 0.19719 0.88021 0.0
C908 C 0.41541 0.20072 0.87354 0.0
C909 C 0.43736 0.18087 0.88934 0.0
C910 C 0.46752 0.19276 0.89977 0.0
C911 C 0.47517 0.22591 0.89437 0.0
C912 C 0.45259 0.24693 0.87899 0.0
C913 C 0.4225 0.23392 0.86824 0.0
H914 H 0.38318 0.3809 0.9506 0.0
H915 H 0.42217 0.40475 0.85933 0.0
H916 H 0.37143 0.43562 0.84745 0.0
H917 H 0.30101 0.36783 0.92729 0.0
H918 H 0.28292 0.38607 0.96162 0.0
H919 H 0.32309 0.36745 0.9636 0.0
H920 H 0.34717 0.42193 0.98521 0.0
H921 H 0.30701 0.4407 0.98337 0.0
H922 H 0.34135 0.45953 0.96379 0.0
H923 H 0.31508 0.46215 0.84467 0.0
H924 H 0.25779 0.48192 0.85157 0.0
H925 H 0.2563 0.44061 0.94451 0.0
C926 C 0.38121 0.39284 0.92821 0.0
C927 C 0.40673 0.39039 0.90595 0.0
C928 C 0.40303 0.40632 0.87686 0.0
C929 C 0.37429 0.42395 0.86986 0.0
C930 C 0.34949 0.42564 0.89223 0.0
C931 C 0.35274 0.41064 0.92087 0.0
C932 C 0.32216 0.41545 0.94054 0.0
C933 C 0.30637 0.38222 0.94873 0.0
C934 C 0.32989 0.43561 0.96997 0.0
C935 C 0.30095 0.43487 0.91826 0.0
C936 C 0.31718 0.44077 0.89059 0.0
C937 C 0.30218 0.45781 0.86632 0.0
C938 C 0.26966 0.46893 0.87042 0.0
C939 C 0.25251 0.46277 0.89851 0.0
C940 C 0.26863 0.44571 0.9227 0.0
H941 H 0.04665 0.42002 0.87891 0.0
H942 H 0.14937 0.39522 0.89401 0.0
H943 H 0.13646 0.33643 0.88726 0.0
H944 H 0.01388 0.35129 0.9212 0.0
H945 H 0.97955 0.34554 0.89532 0.0
H946 H 0.99719 0.3858 0.90022 0.0
H947 H 0.00634 0.3895 0.84062 0.0
H948 H 0.9891 0.34904 0.83561 0.0
H949 H 0.02974 0.35784 0.82101 0.0
H950 H 0.11279 0.2805 0.8784 0.0
H951 H 0.07883 0.23055 0.8741 0.0
H952 H 0.99111 0.29127 0.86647 0.0
C953 C 0.06641 0.40221 0.88079 0.0
C954 C 0.09903 0.41225 0.88687 0.0
C955 C 0.12416 0.38816 0.88944 0.0
C956 C 0.11714 0.35469 0.88543 0.0
C957 C 0.08483 0.34566 0.87908 0.0
C958 C 0.05978 0.36862 0.87721 0.0
C959 C 0.0269 0.35215 0.87165 0.0
C960 C 0.00298 0.35911 0.89871 0.0
C961 C 0.01216 0.36277 0.84036 0.0
C962 C 0.03742 0.31637 0.87085 0.0
C963 C 0.071 0.31323 0.87476 0.0
C964 C 0.08645 0.28261 0.87532 0.0
C965 C 0.06693 0.25438 0.87271 0.0
C966 C 0.03227 0.25694 0.86993 0.0
C967 C 0.01753 0.28844 0.86838 0.0
H968 H 0.67565 0.24286 0.3707 0.0
H969 H 0.62039 0.29444 0.44261 0.0
H970 H 0.6695 0.3271 0.45533 0.0
H971 H 0.7486 0.23544 0.41029 0.0
H972 H 0.77553 0.24283 0.37769 0.0
H973 H 0.73522 0.22596 0.37134 0.0
H974 H 0.72111 0.27355 0.33369 0.0
H975 H 0.76168 0.29028 0.33941 0.0
H976 H 0.72589 0.31554 0.34652 0.0
H977 H 0.7262 0.34647 0.46642 0.0
H978 H 0.78514 0.36046 0.46834 0.0
H979 H 0.80313 0.29968 0.38682 0.0
C980 C 0.67361 0.2617 0.3885 0.0
C981 C 0.64428 0.26596 0.40579 0.0
C982 C 0.64255 0.29082 0.42893 0.0
C983 C 0.67038 0.30939 0.43648 0.0
C984 C 0.69935 0.30342 0.42002 0.0
C985 C 0.70096 0.28093 0.39589 0.0
C986 C 0.73544 0.27867 0.38252 0.0
C987 C 0.74951 0.24365 0.38566 0.0
C988 C 0.73606 0.29021 0.34852 0.0
C989 C 0.75315 0.30265 0.40358 0.0
C990 C 0.73189 0.31635 0.42523 0.0
C991 C 0.74293 0.33678 0.44899 0.0
C992 C 0.77646 0.34432 0.45006 0.0
C993 C 0.7985 0.33156 0.42746 0.0
C994 C 0.78667 0.31036 0.40398 0.0
H995 H 0.31421 0.6939 0.45832 0.0
H996 H 0.32859 0.66372 0.36225 0.0
H997 H 0.30455 0.71633 0.34462 0.0
H998 H 0.23567 0.73036 0.44607 0.0
H999 H 0.24345 0.76047 0.47608 0.0
H1000 H 0.26371 0.72098 0.47695 0.0
H1001 H 0.32083 0.75384 0.47913 0.0
H1002 H 0.2974 0.79141 0.47728 0.0
H1003 H 0.32904 0.78308 0.4488 0.0
H1004 H 0.27446 0.77006 0.33795 0.0
H1005 H 0.24014 0.82017 0.34278 0.0
H1006 H 0.24585 0.81349 0.44341 0.0
C1007 C 0.31284 0.69853 0.43356 0.0
C1008 C 0.32323 0.67492 0.41166 0.0
C1009 C 0.32067 0.68164 0.37944 0.0
C1010 C 0.30725 0.71145 0.36921 0.0
C1011 C 0.29676 0.73408 0.39154 0.0
C1012 C 0.29944 0.72791 0.42301 0.0
C1013 C 0.28373 0.75465 0.44234 0.0
C1014 C 0.2549 0.74088 0.46151 0.0
C1015 C 0.30927 0.77178 0.4631 0.0
C1016 C 0.27168 0.77693 0.41692 0.0
C1017 C 0.27944 0.7648 0.38773 0.0
C1018 C 0.26864 0.78007 0.36067 0.0
C1019 C 0.24911 0.80837 0.36365 0.0
C1020 C 0.24058 0.8207 0.39347 0.0
C1021 C 0.25237 0.80494 0.4203 0.0
H1022 H 0.2923 0.72815 0.163 0.0
H1023 H 0.36704 0.76312 0.09892 0.0
H1024 H 0.33038 0.80837 0.08319 0.0
H1025 H 0.22738 0.73848 0.11535 0.0
H1026 H 0.19816 0.75203 0.14435 0.0
H1027 H 0.23231 0.72653 0.15541 0.0
H1028 H 0.25065 0.77001 0.19594 0.0
H1029 H 0.21621 0.79565 0.18536 0.0
H1030 H 0.25741 0.81188 0.1839 0.0
H1031 H 0.28258 0.84288 0.06747 0.0
H1032 H 0.22811 0.86637 0.05522 0.0
H1033 H 0.18464 0.81037 0.13045 0.0
C1034 C 0.30144 0.74601 0.14652 0.0
C1035 C 0.33252 0.74206 0.1322 0.0
C1036 C 0.34334 0.76564 0.11027 0.0
C1037 C 0.3227 0.79153 0.10122 0.0
C1038 C 0.29158 0.79384 0.11474 0.0
C1039 C 0.28118 0.77206 0.13732 0.0
C1040 C 0.24544 0.77788 0.14586 0.0
C1041 C 0.22462 0.74689 0.13987 0.0
C1042 C 0.24225 0.78956 0.17978 0.0
C1043 C 0.23689 0.80516 0.12342 0.0
C1044 C 0.26397 0.8143 0.10595 0.0
C1045 C 0.26141 0.83659 0.08154 0.0
C1046 C 0.23035 0.84966 0.07464 0.0
C1047 C 0.20228 0.84045 0.0921 0.0
C1048 C 0.2058 0.8184 0.11716 0.0
H1049 H 0.74625 0.32446 0.09257 0.0
H1050 H 0.7706 0.31303 0.19026 0.0
H1051 H 0.75751 0.2538 0.18654 0.0
H1052 H 0.67882 0.26622 0.08958 0.0
H1053 H 0.69023 0.25209 0.05122 0.0
H1054 H 0.69928 0.29361 0.063 0.0
H1055 H 0.76043 0.28316 0.04871 0.0
H1056 H 0.75201 0.24095 0.03867 0.0
H1057 H 0.78254 0.25039 0.06763 0.0
H1058 H 0.74421 0.1957 0.17144 0.0
H1059 H 0.72512 0.14383 0.14778 0.0
H1060 H 0.71141 0.19379 0.05962 0.0
C1061 C 0.7482 0.30976 0.11343 0.0
C1062 C 0.75934 0.32337 0.14178 0.0
C1063 C 0.76193 0.30312 0.16836 0.0
C1064 C 0.75481 0.26945 0.16641 0.0
C1065 C 0.74527 0.25663 0.13772 0.0
C1066 C 0.74152 0.27624 0.11183 0.0
C1067 C 0.7316 0.2564 0.08357 0.0
C1068 C 0.69798 0.26775 0.07113 0.0
C1069 C 0.75824 0.25784 0.05813 0.0
C1070 C 0.72976 0.22255 0.09777 0.0
C1071 C 0.73809 0.22313 0.12891 0.0
C1072 C 0.73758 0.19491 0.14709 0.0
C1073 C 0.72689 0.16556 0.13338 0.0
C1074 C 0.71671 0.16482 0.10188 0.0
C1075 C 0.71924 0.19348 0.08367 0.0
H1076 H 0.17857 0.73292 0.62274 0.0
H1077 H 0.17611 0.69885 0.5269 0.0
H1078 H 0.23467 0.71146 0.52128 0.0
H1079 H 0.23001 0.80225 0.60717 0.0
H1080 H 0.25234 0.79974 0.64324 0.0
H1081 H 0.21069 0.78497 0.64116 0.0
H1082 H 0.22996 0.72803 0.66119 0.0
H1083 H 0.27178 0.74257 0.66303 0.0
H1084 H 0.26215 0.70625 0.64068 0.0
H1085 H 0.29211 0.7287 0.52459 0.0
H1086 H 0.34458 0.75635 0.53464 0.0
H1087 H 0.311 0.78235 0.62761 0.0
C1088 C 0.19053 0.72819 0.60063 0.0
C1089 C 0.17304 0.71468 0.57534 0.0
C1090 C 0.1891 0.70928 0.54655 0.0
C1091 C 0.2224 0.7163 0.54308 0.0
C1092 C 0.23911 0.72938 0.56836 0.0
C1093 C 0.22376 0.7359 0.59643 0.0
C1094 C 0.24708 0.75258 0.61891 0.0
C1095 C 0.23426 0.78692 0.62815 0.0
C1096 C 0.25309 0.73106 0.64765 0.0
C1097 C 0.27765 0.75474 0.59877 0.0
C1098 C 0.27252 0.74054 0.56997 0.0
C1099 C 0.29649 0.74013 0.54691 0.0
C1100 C 0.32628 0.75573 0.55296 0.0
C1101 C 0.33188 0.77138 0.58191 0.0
C1102 C 0.30747 0.77032 0.60535 0.0
H1103 H 0.79231 0.19561 0.61392 0.0
H1104 H 0.83193 0.19093 0.52016 0.0
H1105 H 0.82045 0.25005 0.51338 0.0
H1106 H 0.72581 0.24808 0.59505 0.0
H1107 H 0.7266 0.27049 0.6313 0.0
H1108 H 0.74097 0.22861 0.62979 0.0
H1109 H 0.79701 0.24702 0.65271 0.0
H1110 H 0.78286 0.28907 0.65397 0.0
H1111 H 0.82024 0.27873 0.63343 0.0
H1112 H 0.8025 0.30842 0.51564 0.0
H1113 H 0.77424 0.36128 0.52505 0.0
H1114 H 0.74492 0.32791 0.61681 0.0
C1115 C 0.79892 0.20722 0.59216 0.0
C1116 C 0.81302 0.18892 0.56759 0.0
C1117 C 0.82086 0.2046 0.53919 0.0
C1118 C 0.81473 0.23818 0.53522 0.0
C1119 C 0.80075 0.25561 0.55985 0.0
C1120 C 0.79259 0.24067 0.58765 0.0
C1121 C 0.77501 0.26434 0.60931 0.0
C1122 C 0.74003 0.25215 0.61678 0.0
C1123 C 0.79499 0.27013 0.63912 0.0
C1124 C 0.7743 0.29478 0.58919 0.0
C1125 C 0.7897 0.28932 0.56094 0.0
C1126 C 0.79062 0.31314 0.53778 0.0
C1127 C 0.77452 0.34306 0.54334 0.0
C1128 C 0.75749 0.34868 0.57166 0.0
C1129 C 0.75815 0.32451 0.59513 0.0
H1130 H 0.80134 0.1879 0.96558 0.0
H1131 H 0.8128 0.15374 0.87029 0.0
H1132 H 0.75789 0.1758 0.85768 0.0
H1133 H 0.71233 0.17337 0.97261 0.0
H1134 H 0.70574 0.21037 0.99507 0.0
H1135 H 0.74442 0.18878 0.99755 0.0
H1136 H 0.77527 0.24212 0.98238 0.0
H1137 H 0.73675 0.26376 0.97997 0.0
H1138 H 0.76438 0.26316 0.94707 0.0
H1139 H 0.70421 0.20487 0.8543 0.0
H1140 H 0.65544 0.24069 0.86009 0.0
H1141 H 0.67965 0.25654 0.95732 0.0
C1142 C 0.79213 0.18466 0.94218 0.0
C1143 C 0.81124 0.16912 0.91891 0.0
C1144 C 0.79852 0.16563 0.88846 0.0
C1145 C 0.76732 0.17789 0.88111 0.0
C1146 C 0.74927 0.19344 0.90449 0.0
C1147 C 0.76116 0.1969 0.93441 0.0
C1148 C 0.7379 0.21683 0.95459 0.0
C1149 C 0.72429 0.19609 0.98154 0.0
C1150 C 0.75456 0.24834 0.96668 0.0
C1151 C 0.71146 0.22458 0.93109 0.0
C1152 C 0.71828 0.21054 0.90246 0.0
C1153 C 0.69833 0.2157 0.87667 0.0
C1154 C 0.67079 0.23612 0.88017 0.0
C1155 C 0.66375 0.25121 0.90917 0.0
C1156 C 0.68417 0.24499 0.93496 0.0
H1157 H 0.31263 0.80019 0.95022 0.0
H1158 H 0.32636 0.81791 0.8516 0.0
H1159 H 0.30457 0.76229 0.84002 0.0
H1160 H 0.3325 0.71085 0.94842 0.0
H1161 H 0.30179 0.70212 0.97753 0.0
H1162 H 0.32274 0.74116 0.97777 0.0
H1163 H 0.26641 0.77131 0.97613 0.0
H1164 H 0.24542 0.73247 0.97568 0.0
H1165 H 0.23791 0.76195 0.94529 0.0
H1166 H 0.27452 0.70799 0.83941 0.0
H1167 H 0.24012 0.65914 0.84967 0.0
H1168 H 0.24714 0.67797 0.94886 0.0
C1169 C 0.31153 0.79222 0.92617 0.0
C1170 C 0.32089 0.81326 0.90173 0.0
C1171 C 0.31931 0.80199 0.87061 0.0
C1172 C 0.30706 0.77049 0.86387 0.0
C1173 C 0.29719 0.75063 0.88858 0.0
C1174 C 0.29972 0.76098 0.91913 0.0
C1175 C 0.28536 0.73622 0.94143 0.0
C1176 C 0.3122 0.72173 0.96253 0.0
C1177 C 0.2571 0.7514 0.96074 0.0
C1178 C 0.27287 0.71093 0.91858 0.0
C1179 C 0.28032 0.71934 0.88824 0.0
C1180 C 0.26908 0.70084 0.86308 0.0
C1181 C 0.24946 0.67325 0.86914 0.0
C1182 C 0.24115 0.66468 0.90008 0.0
C1183 C 0.2535 0.68355 0.92499 0.0
H1184 H 0.66518 0.14159 0.47362 0.0
H1185 H 0.67032 0.06537 0.40274 0.0
H1186 H 0.71448 0.03759 0.43203 0.0
H1187 H 0.75192 0.14619 0.48705 0.0
H1188 H 0.74795 0.1531 0.52831 0.0
H1189 H 0.71578 0.16635 0.50249 0.0
H1190 H 0.67317 0.13249 0.5337 0.0
H1191 H 0.70517 0.11933 0.55975 0.0
H1192 H 0.68031 0.08921 0.53994 0.0
H1193 H 0.75918 0.01852 0.4688 0.0
H1194 H 0.79993 0.00955 0.51071 0.0
H1195 H 0.76566 0.09872 0.55658 0.0
C1196 C 0.6753 0.11884 0.46445 0.0
C1197 C 0.66415 0.10555 0.43596 0.0
C1198 C 0.67842 0.07599 0.42454 0.0
C1199 C 0.70356 0.06003 0.44099 0.0
C1200 C 0.71435 0.07402 0.46874 0.0
C1201 C 0.70066 0.10276 0.48041 0.0
C1202 C 0.71721 0.11309 0.51038 0.0
C1203 C 0.73422 0.14666 0.50682 0.0
C1204 C 0.69249 0.11353 0.53755 0.0
C1205 C 0.74215 0.08558 0.5138 0.0
C1206 C 0.74023 0.06329 0.48959 0.0
C1207 C 0.76092 0.03583 0.4879 0.0
C1208 C 0.78403 0.03095 0.51175 0.0
C1209 C 0.78621 0.05344 0.53689 0.0
C1210 C 0.76493 0.0811 0.53764 0.0
H1211 H 0.43212 0.74617 0.57103 0.0
H1212 H 0.49421 0.80711 0.51273 0.0
H1213 H 0.4951 0.76278 0.47278 0.0
H1214 H 0.47005 0.66757 0.55112 0.0
H1215 H 0.43139 0.64597 0.55229 0.0
H1216 H 0.43768 0.68151 0.57674 0.0
H1217 H 0.38586 0.70941 0.55348 0.0
H1218 H 0.37915 0.67381 0.5294 0.0
H1219 H 0.38265 0.71381 0.51184 0.0
H1220 H 0.4846 0.71298 0.43745 0.0
H1221 H 0.46383 0.66358 0.41021 0.0
H1222 H 0.40993 0.63561 0.49316 0.0
C1223 C 0.44619 0.75034 0.55 0.0
C1224 C 0.46304 0.78034 0.545 0.0
C1225 C 0.48115 0.78441 0.51712 0.0
C1226 C 0.48182 0.75931 0.49436 0.0
C1227 C 0.46456 0.73021 0.50004 0.0
C1228 C 0.44723 0.72568 0.52733 0.0
C1229 C 0.42954 0.69294 0.52761 0.0
C1230 C 0.44297 0.67068 0.55348 0.0
C1231 C 0.39209 0.69781 0.53076 0.0
C1232 C 0.43878 0.67988 0.49577 0.0
C1233 C 0.45919 0.70155 0.48024 0.0
C1234 C 0.46905 0.69569 0.44963 0.0
C1235 C 0.45715 0.66749 0.43435 0.0
C1236 C 0.43557 0.6454 0.44963 0.0
C1237 C 0.42699 0.65148 0.481 0.0
H1238 H 0.7934 0.42826 0.40563 0.0
H1239 H 0.87814 0.4598 0.45887 0.0
H1240 H 0.84138 0.48926 0.49534 0.0
H1241 H 0.73864 0.5034 0.42283 0.0
H1242 H 0.70276 0.47764 0.42584 0.0
H1243 H 0.73547 0.4668 0.39921 0.0
H1244 H 0.74133 0.40911 0.42539 0.0
H1245 H 0.70765 0.42015 0.45043 0.0
H1246 H 0.74619 0.40755 0.46713 0.0
H1247 H 0.79716 0.50242 0.53197 0.0
H1248 H 0.74921 0.49756 0.56628 0.0
H1249 H 0.69099 0.46008 0.49006 0.0
C1250 C 0.80431 0.44272 0.4241 0.0
C1251 C 0.83871 0.44225 0.42913 0.0
C1252 C 0.85194 0.46024 0.45434 0.0
C1253 C 0.8312 0.47714 0.4751 0.0
C1254 C 0.79727 0.47596 0.47028 0.0
C1255 C 0.78385 0.45939 0.44524 0.0
C1256 C 0.74664 0.45735 0.4481 0.0
C1257 C 0.72989 0.47751 0.42247 0.0
C1258 C 0.73481 0.4214 0.4477 0.0
C1259 C 0.74145 0.47308 0.47977 0.0
C1260 C 0.77097 0.48449 0.49169 0.0
C1261 C 0.77371 0.49499 0.52241 0.0
C1262 C 0.74615 0.49248 0.54175 0.0
C1263 C 0.71592 0.48019 0.53035 0.0
C1264 C 0.71328 0.47132 0.49875 0.0
H1265 H 0.07812 0.7536 0.55587 0.0
H1266 H 0.01417 0.69278 0.49912 0.0
H1267 H 0.02637 0.72816 0.45367 0.0
H1268 H 0.05976 0.83175 0.52107 0.0
H1269 H 0.10163 0.84604 0.5235 0.0
H1270 H 0.08629 0.81707 0.55158 0.0
H1271 H 0.13393 0.777 0.53809 0.0
H1272 H 0.14957 0.8057 0.50996 0.0
H1273 H 0.14005 0.76416 0.49833 0.0
H1274 H 0.04754 0.76941 0.41414 0.0
H1275 H 0.07666 0.81142 0.38337 0.0
H1276 H 0.12779 0.84412 0.46635 0.0
C1277 C 0.0665 0.74759 0.53394 0.0
C1278 C 0.04524 0.7202 0.53106 0.0
C1279 C 0.03057 0.71352 0.5019 0.0
C1280 C 0.03736 0.73352 0.476 0.0
C1281 C 0.05888 0.76001 0.47969 0.0
C1282 C 0.07331 0.76693 0.50796 0.0
C1283 C 0.09676 0.79575 0.50571 0.0
C1284 C 0.08542 0.82435 0.52671 0.0
C1285 C 0.13216 0.785 0.51347 0.0
C1286 C 0.09327 0.80428 0.47163 0.0
C1287 C 0.07123 0.78343 0.45705 0.0
C1288 C 0.06468 0.78591 0.42538 0.0
C1289 C 0.08137 0.80992 0.4081 0.0
C1290 C 0.10441 0.83127 0.42243 0.0
C1291 C 0.11003 0.82855 0.45475 0.0
H1292 H 0.29723 0.97277 0.99885 0.0
H1293 H 0.25487 0.9453 0.91025 0.0
H1294 H 0.19914 0.94973 0.93278 0.0
H1295 H 0.24959 0.92244 0.04035 0.0
H1296 H 0.24458 0.9479 0.07447 0.0
H1297 H 0.28009 0.95286 0.05006 0.0
H1298 H 0.26649 0.01456 0.04254 0.0
H1299 H 0.23092 0.01023 0.06738 0.0
H1300 H 0.2264 0.02653 0.02869 0.0
H1301 H 0.14972 0.94655 0.96648 0.0
H1302 H 0.11163 0.93182 0.00881 0.0
H1303 H 0.18579 0.95871 0.07663 0.0
C1304 C 0.27606 0.96927 0.98398 0.0
C1305 C 0.28014 0.95946 0.95276 0.0
C1306 C 0.25211 0.95328 0.93419 0.0
C1307 C 0.22036 0.95593 0.94674 0.0
C1308 C 0.21706 0.9644 0.97804 0.0
C1309 C 0.24419 0.97094 0.99646 0.0
C1310 C 0.23455 0.97324 0.03046 0.0
C1311 C 0.25328 0.94758 0.04996 0.0
C1312 C 0.23991 0.00823 0.04301 0.0
C1313 C 0.19822 0.96531 0.02845 0.0
C1314 C 0.18839 0.96131 0.99794 0.0
C1315 C 0.15691 0.95039 0.99043 0.0
C1316 C 0.13539 0.94208 0.01471 0.0
C1317 C 0.14563 0.94424 0.04614 0.0
C1318 C 0.17695 0.95738 0.05294 0.0
H1319 H 0.60534 0.15323 0.02429 0.0
H1320 H 0.57471 0.19736 0.11179 0.0
H1321 H 0.55279 0.24547 0.0835 0.0
H1322 H 0.63265 0.22716 0.98898 0.0
H1323 H 0.61873 0.21502 0.95083 0.0
H1324 H 0.63028 0.18422 0.97862 0.0
H1325 H 0.57262 0.15734 0.97145 0.0
H1326 H 0.56138 0.18893 0.94421 0.0
H1327 H 0.53614 0.18178 0.97802 0.0
H1328 H 0.53551 0.29024 0.04469 0.0
H1329 H 0.52457 0.32619 0.99917 0.0
H1330 H 0.56804 0.252 0.93871 0.0
C1331 C 0.59354 0.17273 0.03751 0.0
C1332 C 0.59157 0.17139 0.07024 0.0
C1333 C 0.57643 0.19776 0.08665 0.0
C1334 C 0.56391 0.22524 0.0708 0.0
C1335 C 0.56681 0.22607 0.03852 0.0
C1336 C 0.58118 0.20037 0.02212 0.0
C1337 C 0.5824 0.20753 0.98771 0.0
C1338 C 0.61815 0.20857 0.97588 0.0
C1339 C 0.56191 0.18241 0.96927 0.0
C1340 C 0.56667 0.24129 0.98727 0.0
C1341 C 0.55763 0.25171 0.01665 0.0
C1342 C 0.54253 0.28229 0.02155 0.0
C1343 C 0.53644 0.30258 0.99564 0.0
C1344 C 0.54567 0.29218 0.96539 0.0
C1345 C 0.56093 0.26108 0.96148 0.0
H1346 H 0.24504 0.56867 0.94402 0.0
H1347 H 0.16484 0.53013 0.99976 0.0
H1348 H 0.19602 0.54391 0.04767 0.0
H1349 H 0.31113 0.54012 0.99242 0.0
H1350 H 0.3359 0.57615 0.98573 0.0
H1351 H 0.30752 0.56232 0.95639 0.0
H1352 H 0.27989 0.61969 0.95618 0.0
H1353 H 0.30787 0.63389 0.98561 0.0
H1354 H 0.26412 0.6368 0.99203 0.0
H1355 H 0.23618 0.56373 0.08937 0.0
H1356 H 0.28077 0.58782 0.12101 0.0
H1357 H 0.33372 0.6133 0.03668 0.0
C1358 C 0.23381 0.56312 0.96625 0.0
C1359 C 0.20232 0.54853 0.96817 0.0
C1360 C 0.18889 0.54135 0.99777 0.0
C1361 C 0.20643 0.5491 0.02503 0.0
C1362 C 0.23735 0.5638 0.02216 0.0
C1363 C 0.25085 0.57064 0.99343 0.0
C1364 C 0.28419 0.58685 0.99627 0.0
C1365 C 0.31128 0.56505 0.98186 0.0
C1366 C 0.28397 0.62135 0.98167 0.0
C1367 C 0.28731 0.58862 0.03124 0.0
C1368 C 0.2602 0.57503 0.04583 0.0
C1369 C 0.25752 0.57432 0.07814 0.0
C1370 C 0.28302 0.58806 0.09591 0.0
C1371 C 0.31081 0.60245 0.08136 0.0
C1372 C 0.31291 0.60243 0.04857 0.0
H1373 H 0.83834 0.29087 0.06434 0.0
H1374 H 0.89369 0.37816 0.04002 0.0
H1375 H 0.929 0.34446 0.00489 0.0
H1376 H 0.90445 0.23378 0.06503 0.0
H1377 H 0.88127 0.20078 0.04763 0.0
H1378 H 0.86049 0.23173 0.07052 0.0
H1379 H 0.82188 0.24507 0.02421 0.0
H1380 H 0.84207 0.21343 1.00182 0.0
H1381 H 0.83952 0.25472 0.98688 0.0
H1382 H 0.95949 0.29977 0.97379 0.0
H1383 H 0.97799 0.25017 0.945 0.0
H1384 H 0.90072 0.19338 0.9891 0.0
C1385 C 0.85791 0.30296 0.05164 0.0
C1386 C 0.8636 0.33705 0.05511 0.0
C1387 C 0.889 0.35205 0.03767 0.0
C1388 C 0.90923 0.33307 0.01783 0.0
C1389 C 0.90332 0.2993 0.01544 0.0
C1390 C 0.87783 0.28458 0.03149 0.0
C1391 C 0.87567 0.24819 0.0242 0.0
C1392 C 0.88079 0.22741 0.0536 0.0
C1393 C 0.84284 0.23989 0.00832 0.0
C1394 C 0.90419 0.24448 1.00183 0.0
C1395 C 0.92006 0.2741 0.99715 0.0
C1396 C 0.94713 0.27652 0.97726 0.0
C1397 C 0.95762 0.24814 0.96118 0.0
C1398 C 0.9408 0.21786 0.9648 0.0
C1399 C 0.91407 0.21612 0.98578 0.0
H1400 H 0.35642 0.87705 0.52005 0.0
H1401 H 0.32056 0.92778 0.60251 0.0
H1402 H 0.27475 0.95105 0.57232 0.0
H1403 H 0.3328 0.9429 0.46389 0.0
H1404 H 0.32133 0.91337 0.43452 0.0
H1405 H 0.35345 0.90362 0.4618 0.0
H1406 H 0.32199 0.8508 0.47776 0.0
H1407 H 0.29001 0.86068 0.45052 0.0
H1408 H 0.2799 0.85413 0.49086 0.0
H1409 H 0.22921 0.96423 0.53451 0.0
H1410 H 0.18985 0.96876 0.49078 0.0
H1411 H 0.25608 0.91061 0.43309 0.0
C1412 C 0.33949 0.8938 0.53151 0.0
C1413 C 0.34222 0.90064 0.56365 0.0
C1414 C 0.31906 0.92215 0.57791 0.0
C1415 C 0.29288 0.93554 0.56096 0.0
C1416 C 0.29019 0.92747 0.52961 0.0
C1417 C 0.31312 0.90748 0.51487 0.0
C1418 C 0.30365 0.90147 0.48128 0.0
C1419 C 0.32934 0.91623 0.45907 0.0
C1420 C 0.29857 0.86459 0.47476 0.0
C1421 C 0.27143 0.92027 0.47984 0.0
C1422 C 0.26412 0.9353 0.50784 0.0
C1423 C 0.23488 0.9529 0.51231 0.0
C1424 C 0.2126 0.95526 0.48742 0.0
C1425 C 0.21972 0.94006 0.45849 0.0
C1426 C 0.24971 0.92257 0.45485 0.0
H1427 H 0.66168 0.2909 0.55562 0.0
H1428 H 0.59166 0.36978 0.53978 0.0
H1429 H 0.55536 0.33076 0.51183 0.0
H1430 H 0.65287 0.25181 0.48076 0.0
H1431 H 0.65733 0.21087 0.4959 0.0
H1432 H 0.67674 0.24497 0.51533 0.0
H1433 H 0.64706 0.22868 0.56633 0.0
H1434 H 0.62701 0.19508 0.54663 0.0
H1435 H 0.60281 0.22562 0.56695 0.0
H1436 H 0.52596 0.28293 0.48748 0.0
H1437 H 0.51006 0.23238 0.45934 0.0
H1438 H 0.60089 0.18534 0.48737 0.0
C1439 C 0.63869 0.29996 0.54623 0.0
C1440 C 0.62923 0.33332 0.55009 0.0
C1441 C 0.5993 0.34438 0.53707 0.0
C1442 C 0.57847 0.32233 0.52141 0.0
C1443 C 0.58819 0.28945 0.51864 0.0
C1444 C 0.61795 0.27844 0.53004 0.0
C1445 C 0.62337 0.24226 0.5225 0.0
C1446 C 0.6544 0.2372 0.50242 0.0
C1447 C 0.62516 0.22171 0.55239 0.0
C1448 C 0.59221 0.23478 0.50449 0.0
C1449 C 0.57187 0.26213 0.50339 0.0
C1450 C 0.54165 0.26139 0.48825 0.0
C1451 C 0.53258 0.23246 0.4727 0.0
C1452 C 0.55381 0.20482 0.47197 0.0
C1453 C 0.58378 0.2058 0.48847 0.0
H1454 H 0.27821 0.59637 0.47395 0.0
H1455 H 0.26385 0.49068 0.47005 0.0
H1456 H 0.21163 0.497 0.4992 0.0
H1457 H 0.24539 0.60789 0.55105 0.0
H1458 H 0.22535 0.64635 0.54292 0.0
H1459 H 0.26211 0.63498 0.52193 0.0
H1460 H 0.23315 0.64091 0.46928 0.0
H1461 H 0.19613 0.65385 0.48894 0.0
H1462 H 0.19504 0.61953 0.4623 0.0
H1463 H 0.16125 0.51518 0.53019 0.0
H1464 H 0.11667 0.54377 0.55924 0.0
H1465 H 0.16207 0.63762 0.53915 0.0
C1466 C 0.26438 0.57443 0.47956 0.0
C1467 C 0.27534 0.54291 0.46979 0.0
C1468 C 0.25606 0.51502 0.47724 0.0
C1469 C 0.22632 0.5184 0.49379 0.0
C1470 C 0.21598 0.54989 0.50253 0.0
C1471 C 0.23447 0.57741 0.49565 0.0
C1472 C 0.21777 0.60854 0.50728 0.0
C1473 C 0.23893 0.62544 0.53225 0.0
C1474 C 0.21006 0.63208 0.48033 0.0
C1475 C 0.18661 0.59436 0.52125 0.0
C1476 C 0.18628 0.56043 0.51877 0.0
C1477 C 0.16104 0.54175 0.53184 0.0
C1478 C 0.13576 0.55814 0.54816 0.0
C1479 C 0.13545 0.59287 0.55061 0.0
C1480 C 0.16108 0.61112 0.53666 0.0
H1481 H 0.91994 0.18935 0.57613 0.0
H1482 H 0.9092 0.11471 0.50454 0.0
H1483 H 0.92769 0.15499 0.46497 0.0
H1484 H 0.88535 0.25241 0.53283 0.0
H1485 H 0.91107 0.28402 0.54918 0.0
H1486 H 0.90208 0.24771 0.57133 0.0
H1487 H 0.96499 0.2373 0.57745 0.0
H1488 H 0.97377 0.27332 0.55461 0.0
H1489 H 0.99053 0.23396 0.54322 0.0
H1490 H 0.94158 0.20574 0.43275 0.0
H1491 H 0.94516 0.26189 0.41099 0.0
H1492 H 0.94505 0.30287 0.50396 0.0
C1493 C 0.9224 0.18099 0.55229 0.0
C1494 C 0.91378 0.14856 0.54354 0.0
C1495 C 0.91619 0.13923 0.51186 0.0
C1496 C 0.92671 0.16196 0.48927 0.0
C1497 C 0.93447 0.19397 0.49874 0.0
C1498 C 0.9322 0.20341 0.52957 0.0
C1499 C 0.9379 0.23997 0.5336 0.0
C1500 C 0.90729 0.25701 0.54756 0.0
C1501 C 0.96863 0.24651 0.55339 0.0
C1502 C 0.94336 0.24996 0.50015 0.0
C1503 C 0.94185 0.22306 0.48035 0.0
C1504 C 0.94366 0.22676 0.44814 0.0
C1505 C 0.94628 0.25871 0.43595 0.0
C1506 C 0.94715 0.28648 0.45588 0.0
C1507 C 0.94591 0.28191 0.48833 0.0
H1508 H 0.81457 0.03911 0.93505 0.0
H1509 H 0.87169 0.095 1.00202 0.0
H1510 H 0.82731 0.08858 0.04072 0.0
H1511 H 0.73781 0.07175 0.95363 0.0
H1512 H 0.71512 0.03394 0.94963 0.0
H1513 H 0.75249 0.03984 0.9278 0.0
H1514 H 0.77735 0.98648 0.95099 0.0
H1515 H 0.73968 0.97995 0.97228 0.0
H1516 H 0.77836 0.98142 0.99262 0.0
H1517 H 0.77494 0.08028 0.07063 0.0
H1518 H 0.72069 0.06466 0.09186 0.0
H1519 H 0.69732 0.01419 0.00595 0.0
C1520 C 0.81814 0.04928 0.95811 0.0
C1521 C 0.84673 0.06747 0.96546 0.0
C1522 C 0.85024 0.08066 0.99585 0.0
C1523 C 0.82503 0.07736 0.01796 0.0
C1524 C 0.79666 0.06042 0.00951 0.0
C1525 C 0.79335 0.04595 0.98058 0.0
C1526 C 0.76008 0.0295 0.97727 0.0
C1527 C 0.74021 0.04467 0.95049 0.0
C1528 C 0.76412 0.99212 0.97304 0.0
C1529 C 0.74485 0.03776 0.00854 0.0
C1530 C 0.76638 0.05568 0.02675 0.0
C1531 C 0.75783 0.06645 0.05649 0.0
C1532 C 0.7267 0.05817 0.06811 0.0
C1533 C 0.70436 0.03972 0.04996 0.0
C1534 C 0.71368 0.02914 0.0199 0.0
H1535 H 0.45944 0.83264 0.96153 0.0
H1536 H 0.35672 0.84817 0.98529 0.0
H1537 H 0.35688 0.79716 0.01599 0.0
H1538 H 0.45996 0.74648 0.95594 0.0
H1539 H 0.49866 0.74025 0.97545 0.0
H1540 H 0.491 0.77808 0.95501 0.0
H1541 H 0.5031 0.81179 0.00499 0.0
H1542 H 0.51157 0.77411 0.02538 0.0
H1543 H 0.48116 0.80242 0.04034 0.0
H1544 H 0.36639 0.74061 0.03813 0.0
H1545 H 0.38819 0.69051 0.06302 0.0
H1546 H 0.48667 0.71611 0.03261 0.0
C1547 C 0.43721 0.8256 0.97372 0.0
C1548 C 0.40791 0.84411 0.97054 0.0
C1549 C 0.37936 0.83428 0.98705 0.0
C1550 C 0.37914 0.80519 0.00444 0.0
C1551 C 0.40804 0.78682 0.0061 0.0
C1552 C 0.43693 0.79732 0.99233 0.0
C1553 C 0.46511 0.77404 0.99961 0.0
C1554 C 0.47952 0.75882 0.96971 0.0
C1555 C 0.4918 0.79164 0.01872 0.0
C1556 C 0.4473 0.74845 0.01889 0.0
C1557 C 0.41426 0.75595 0.02175 0.0
C1558 C 0.39244 0.73508 0.03699 0.0
C1559 C 0.40506 0.70673 0.0512 0.0
C1560 C 0.43926 0.70006 0.05097 0.0
C1561 C 0.46043 0.72072 0.03366 0.0
H1562 H 0.74366 0.40924 0.06203 0.0
H1563 H 0.8011 0.47597 0.00517 0.0
H1564 H 0.76634 0.46197 0.95972 0.0
H1565 H 0.73126 0.34689 0.00253 0.0
H1566 H 0.69023 0.33764 0.01582 0.0
H1567 H 0.72061 0.35219 0.04296 0.0
H1568 H 0.68143 0.39963 0.0593 0.0
H1569 H 0.6511 0.38562 0.03187 0.0
H1570 H 0.66591 0.42735 0.03015 0.0
H1571 H 0.72407 0.44152 0.9211 0.0
H1572 H 0.67962 0.41455 0.89151 0.0
H1573 H 0.64951 0.36206 0.97449 0.0
C1574 C 0.74916 0.42083 0.04 0.0
C1575 C 0.77507 0.44379 0.03711 0.0
C1576 C 0.78148 0.45822 0.00783 0.0
C1577 C 0.76178 0.45051 0.98198 0.0
C1578 C 0.736 0.42823 0.98588 0.0
C1579 C 0.72991 0.41338 0.01411 0.0
C1580 C 0.70071 0.39037 0.0124 0.0
C1581 C 0.71134 0.35466 0.01879 0.0
C1582 C 0.67316 0.40142 0.03475 0.0
C1583 C 0.69081 0.39496 0.9788 0.0
C1584 C 0.71158 0.41675 0.96386 0.0
C1585 C 0.70769 0.42445 0.93257 0.0
C1586 C 0.68231 0.40906 0.916 0.0
C1587 C 0.66093 0.38643 0.93075 0.0
C1588 C 0.6651 0.37964 0.96269 0.0
H1589 H 0.06717 0.80779 0.9915 0.0
H1590 H 0.04545 0.75797 0.07775 0.0
H1591 H 0.05348 0.70407 0.05152 0.0
H1592 H 0.03157 0.7429 0.93694 0.0
H1593 H 0.06415 0.75027 0.90932 0.0
H1594 H 0.04893 0.78347 0.93334 0.0
H1595 H 0.1084 0.79421 0.95242 0.0
H1596 H 0.1237 0.76056 0.92935 0.0
H1597 H 0.13106 0.76137 0.97066 0.0
H1598 H 0.07609 0.65669 0.01806 0.0
H1599 H 0.10462 0.62074 0.97972 0.0
H1600 H 0.11013 0.70259 0.91556 0.0
C1601 C 0.06237 0.78544 0.00435 0.0
C1602 C 0.05477 0.78685 0.03629 0.0
C1603 C 0.05005 0.75728 0.05294 0.0
C1604 C 0.05496 0.72659 0.03825 0.0
C1605 C 0.06418 0.72607 0.0069 0.0
C1606 C 0.06696 0.75484 0.98999 0.0
C1607 C 0.08048 0.74836 0.95774 0.0
C1608 C 0.05474 0.75674 0.93286 0.0
C1609 C 0.11281 0.76723 0.95226 0.0
C1610 C 0.08642 0.7117 0.95943 0.0
C1611 C 0.07671 0.69905 0.9878 0.0
C1612 C 0.08291 0.66624 0.99549 0.0
C1613 C 0.09929 0.64603 0.97365 0.0
C1614 C 0.10931 0.6587 0.94446 0.0
C1615 C 0.1023 0.69188 0.93737 0.0
loop_
_geom_bond_atom_site_label_1
_geom_bond_atom_site_label_2
_geom_bond_distance
_geom_bond_site_symmetry_2
_ccdc_geom_bond_type
Zn0 O6 1.969 . S
Zn0 O7 1.965 . S
Zn0 O11 2.024 . S
Zn0 O16 1.969 . S
Zn1 O8 1.969 . S
Zn1 O14 1.969 . S
Zn1 O15 1.965 . S
Zn1 O17 2.024 . S
C2 O3 1.229 . S
C2 O11 1.058 . S
O3 C2 1.229 . S
C4 O5 1.229 . S
C4 O17 1.058 . S
O5 C4 1.229 . S
O6 Zn0 1.969 . S
O6 C9 1.267 . S
O7 Zn0 1.965 . S
O7 C18 1.260 . S
O8 Zn1 1.969 . S
O8 C18 1.258 . S
C9 O6 1.267 . S
C9 O10 1.228 . S
O10 C9 1.228 . S
O11 Zn0 2.024 . S
O11 C2 1.058 . S
C12 O13 1.228 . S
C12 O14 1.267 . S
O13 C12 1.228 . S
O14 Zn1 1.969 . S
O14 C12 1.267 . S
O15 Zn1 1.965 . S
O15 C19 1.260 . S
O16 Zn0 1.969 . S
O16 C19 1.258 . S
O17 Zn1 2.024 . S
O17 C4 1.058 . S
C18 O7 1.260 . S
C18 O8 1.258 . S
C19 O15 1.260 . S
C19 O16 1.258 . S
Zn20 O26 1.969 . S
Zn20 O27 1.965 . S
Zn20 O31 2.024 . S
Zn20 O36 1.969 . S
Zn21 O28 1.969 . S
Zn21 O34 1.969 . S
Zn21 O35 1.965 . S
Zn21 O37 2.024 . S
C22 O23 1.229 . S
C22 O31 1.058 . S
O23 C22 1.229 . S
C24 O25 1.229 . S
C24 O37 1.058 . S
O25 C24 1.229 . S
O26 Zn20 1.969 . S
O26 C29 1.267 . S
O27 Zn20 1.965 . S
O27 C38 1.260 . S
O28 Zn21 1.969 . S
O28 C38 1.258 . S
C29 O26 1.267 . S
C29 O30 1.228 . S
O30 C29 1.228 . S
O31 Zn20 2.024 . S
O31 C22 1.058 . S
C32 O33 1.228 . S
C32 O34 1.267 . S
O33 C32 1.228 . S
O34 Zn21 1.969 . S
O34 C32 1.267 . S
O35 Zn21 1.965 . S
O35 C39 1.260 . S
O36 Zn20 1.969 . S
O36 C39 1.258 . S
O37 Zn21 2.024 . S
O37 C24 1.058 . S
C38 O27 1.260 . S
C38 O28 1.258 . S
C39 O35 1.260 . S
C39 O36 1.258 . S
Zn40 O46 1.969 1_655 S
Zn40 O47 1.965 . S
Zn40 O51 2.024 1_655 S
Zn40 O56 1.969 . S
Zn41 O48 1.969 . S
Zn41 O54 1.969 . S
Zn41 O55 1.965 . S
Zn41 O57 2.024 . S
C42 O43 1.229 . S
C42 O51 1.058 . S
O43 C42 1.229 . S
C44 O45 1.229 . S
C44 O57 1.058 . S
O45 C44 1.229 . S
O46 Zn40 1.969 1_455 S
O46 C49 1.267 . S
O47 Zn40 1.965 . S
O47 C58 1.260 . S
O48 Zn41 1.969 . S
O48 C58 1.258 . S
C49 O46 1.267 . S
C49 O50 1.228 . S
O50 C49 1.228 . S
O51 Zn40 2.024 1_455 S
O51 C42 1.058 . S
C52 O53 1.228 . S
C52 O54 1.267 . S
O53 C52 1.228 . S
O54 Zn41 1.969 . S
O54 C52 1.267 . S
O55 Zn41 1.965 . S
O55 C59 1.260 . S
O56 Zn40 1.969 . S
O56 C59 1.258 . S
O57 Zn41 2.024 . S
O57 C44 1.058 . S
C58 O47 1.260 . S
C58 O48 1.258 . S
C59 O55 1.260 . S
C59 O56 1.258 . S
Zn60 O66 1.969 1_565 S
Zn60 O67 1.965 . S
Zn60 O71 2.024 1_565 S
Zn60 O76 1.969 . S
Zn61 O68 1.969 . S
Zn61 O74 1.969 . S
Zn61 O75 1.965 . S
Zn61 O77 2.024 . S
C62 O63 1.229 . S
C62 O71 1.058 . S
O63 C62 1.229 . S
C64 O65 1.229 . S
C64 O77 1.058 . S
O65 C64 1.229 . S
O66 Zn60 1.969 1_545 S
O66 C69 1.267 . S
O67 Zn60 1.965 . S
O67 C78 1.260 . S
O68 Zn61 1.969 . S
O68 C78 1.258 . S
C69 O66 1.267 . S
C69 O70 1.228 . S
O70 C69 1.228 . S
O71 Zn60 2.024 1_545 S
O71 C62 1.058 . S
C72 O73 1.228 . S
C72 O74 1.267 . S
O73 C72 1.228 . S
O74 Zn61 1.969 . S
O74 C72 1.267 . S
O75 Zn61 1.965 . S
O75 C79 1.260 . S
O76 Zn60 1.969 . S
O76 C79 1.258 . S
O77 Zn61 2.024 . S
O77 C64 1.058 . S
C78 O67 1.260 . S
C78 O68 1.258 . S
C79 O75 1.260 . S
C79 O76 1.258 . S
Zn80 O86 1.969 1_455 S
Zn80 O87 1.965 . S
Zn80 O91 2.024 1_455 S
Zn80 O96 1.969 . S
Zn81 O88 1.969 . S
Zn81 O94 1.969 . S
Zn81 O95 1.965 . S
Zn81 O97 2.024 . S
C82 O83 1.229 . S
C82 O91 1.058 . S
O83 C82 1.229 . S
C84 O85 1.229 . S
C84 O97 1.058 . S
O85 C84 1.229 . S
O86 Zn80 1.969 1_655 S
O86 C89 1.267 . S
O87 Zn80 1.965 . S
O87 C98 1.260 . S
O88 Zn81 1.969 . S
O88 C98 1.258 . S
C89 O86 1.267 . S
C89 O90 1.228 . S
O90 C89 1.228 . S
O91 Zn80 2.024 1_655 S
O91 C82 1.058 . S
C92 O93 1.228 . S
C92 O94 1.267 . S
O93 C92 1.228 . S
O94 Zn81 1.969 . S
O94 C92 1.267 . S
O95 Zn81 1.965 . S
O95 C99 1.260 . S
O96 Zn80 1.969 . S
O96 C99 1.258 . S
O97 Zn81 2.024 . S
O97 C84 1.058 . S
C98 O87 1.260 . S
C98 O88 1.258 . S
C99 O95 1.260 . S
C99 O96 1.258 . S
Zn100 O106 1.969 1_545 S
Zn100 O107 1.965 . S
Zn100 O111 2.024 1_545 S
Zn100 O116 1.969 . S
Zn101 O108 1.969 . S
Zn101 O114 1.969 . S
Zn101 O115 1.965 . S
Zn101 O117 2.024 . S
C102 O103 1.229 . S
C102 O111 1.058 . S
O103 C102 1.229 . S
C104 O105 1.229 . S
C104 O117 1.058 . S
O105 C104 1.229 . S
O106 Zn100 1.969 1_565 S
O106 C109 1.267 . S
O107 Zn100 1.965 . S
O107 C118 1.260 . S
O108 Zn101 1.969 . S
O108 C118 1.258 . S
C109 O106 1.267 . S
C109 O110 1.228 . S
O110 C109 1.228 . S
O111 Zn100 2.024 1_565 S
O111 C102 1.058 . S
C112 O113 1.228 . S
C112 O114 1.267 . S
O113 C112 1.228 . S
O114 Zn101 1.969 . S
O114 C112 1.267 . S
O115 Zn101 1.965 . S
O115 C119 1.260 . S
O116 Zn100 1.969 . S
O116 C119 1.258 . S
O117 Zn101 2.024 . S
O117 C104 1.058 . S
C118 O107 1.260 . S
C118 O108 1.258 . S
C119 O115 1.260 . S
C119 O116 1.258 . S
Zn120 O126 1.969 . S
Zn120 O127 1.965 . S
Zn120 O131 2.024 . S
Zn120 O136 1.969 . S
Zn121 O128 1.969 . S
Zn121 O134 1.969 . S
Zn121 O135 1.965 . S
Zn121 O137 2.024 . S
C122 O123 1.229 . S
C122 O131 1.058 . S
O123 C122 1.229 . S
C124 O125 1.229 . S
C124 O137 1.058 . S
O125 C124 1.229 . S
O126 Zn120 1.969 . S
O126 C129 1.267 . S
O127 Zn120 1.965 . S
O127 C138 1.260 . S
O128 Zn121 1.969 . S
O128 C138 1.258 . S
C129 O126 1.267 . S
C129 O130 1.228 . S
O130 C129 1.228 . S
O131 Zn120 2.024 . S
O131 C122 1.058 . S
C132 O133 1.228 . S
C132 O134 1.267 . S
O133 C132 1.228 . S
O134 Zn121 1.969 . S
O134 C132 1.267 . S
O135 Zn121 1.965 . S
O135 C139 1.260 . S
O136 Zn120 1.969 . S
O136 C139 1.258 . S
O137 Zn121 2.024 . S
O137 C124 1.058 . S
C138 O127 1.260 . S
C138 O128 1.258 . S
C139 O135 1.260 . S
C139 O136 1.258 . S
Zn140 O146 1.969 . S
Zn140 O147 1.965 . S
Zn140 O151 2.024 . S
Zn140 O156 1.969 . S
Zn141 O148 1.969 . S
Zn141 O154 1.969 . S
Zn141 O155 1.965 . S
Zn141 O157 2.024 . S
C142 O143 1.229 . S
C142 O151 1.058 . S
O143 C142 1.229 . S
C144 O145 1.229 . S
C144 O157 1.058 . S
O145 C144 1.229 . S
O146 Zn140 1.969 . S
O146 C149 1.267 . S
O147 Zn140 1.965 . S
O147 C158 1.260 . S
O148 Zn141 1.969 . S
O148 C158 1.258 . S
C149 O146 1.267 . S
C149 O150 1.228 . S
O150 C149 1.228 . S
O151 Zn140 2.024 . S
O151 C142 1.058 . S
C152 O153 1.228 . S
C152 O154 1.267 . S
O153 C152 1.228 . S
O154 Zn141 1.969 . S
O154 C152 1.267 . S
O155 Zn141 1.965 . S
O155 C159 1.260 . S
O156 Zn140 1.969 . S
O156 C159 1.258 . S
O157 Zn141 2.024 . S
O157 C144 1.058 . S
C158 O147 1.260 . S
C158 O148 1.258 . S
C159 O155 1.260 . S
C159 O156 1.258 . S
Zn160 O166 1.969 . S
Zn160 O167 1.965 . S
Zn160 O171 2.024 . S
Zn160 O176 1.969 . S
Zn161 O168 1.969 . S
Zn161 O174 1.969 . S
Zn161 O175 1.965 . S
Zn161 O177 2.024 . S
C162 O163 1.229 . S
C162 O171 1.058 . S
O163 C162 1.229 . S
C164 O165 1.229 . S
C164 O177 1.058 . S
O165 C164 1.229 . S
O166 Zn160 1.969 . S
O166 C169 1.267 . S
O167 Zn160 1.965 . S
O167 C178 1.260 . S
O168 Zn161 1.969 . S
O168 C178 1.258 . S
C169 O166 1.267 . S
C169 O170 1.228 . S
O170 C169 1.228 . S
O171 Zn160 2.024 . S
O171 C162 1.058 . S
C172 O173 1.228 . S
C172 O174 1.267 . S
O173 C172 1.228 . S
O174 Zn161 1.969 . S
O174 C172 1.267 . S
O175 Zn161 1.965 . S
O175 C179 1.260 . S
O176 Zn160 1.969 . S
O176 C179 1.258 . S
O177 Zn161 2.024 . S
O177 C164 1.058 . S
C178 O167 1.260 . S
C178 O168 1.258 . S
C179 O175 1.260 . S
C179 O176 1.258 . S
Zn180 O186 1.969 . S
Zn180 O187 1.965 . S
Zn180 O191 2.024 . S
Zn180 O196 1.969 . S
Zn181 O188 1.969 . S
Zn181 O194 1.969 . S
Zn181 O195 1.965 . S
Zn181 O197 2.024 . S
C182 O183 1.229 . S
C182 O191 1.058 . S
O183 C182 1.229 . S
C184 O185 1.229 . S
C184 O197 1.058 . S
O185 C184 1.229 . S
O186 Zn180 1.969 . S
O186 C189 1.267 . S
O187 Zn180 1.965 . S
O187 C198 1.260 . S
O188 Zn181 1.969 . S
O188 C198 1.258 . S
C189 O186 1.267 . S
C189 O190 1.228 . S
O190 C189 1.228 . S
O191 Zn180 2.024 . S
O191 C182 1.058 . S
C192 O193 1.228 . S
C192 O194 1.267 . S
O193 C192 1.228 . S
O194 Zn181 1.969 . S
O194 C192 1.267 . S
O195 Zn181 1.965 . S
O195 C199 1.260 . S
O196 Zn180 1.969 . S
O196 C199 1.258 . S
O197 Zn181 2.024 . S
O197 C184 1.058 . S
C198 O187 1.260 . S
C198 O188 1.258 . S
C199 O195 1.260 . S
C199 O196 1.258 . S
Zn200 O206 1.969 . S
Zn200 O207 1.965 . S
Zn200 O211 2.024 . S
Zn200 O216 1.969 . S
Zn201 O208 1.969 . S
Zn201 O214 1.969 1_455 S
Zn201 O215 1.965 . S
Zn201 O217 2.024 1_455 S
C202 O203 1.229 . S
C202 O211 1.058 . S
O203 C202 1.229 . S
C204 O205 1.229 . S
C204 O217 1.058 . S
O205 C204 1.229 . S
O206 Zn200 1.969 . S
O206 C209 1.267 . S
O207 Zn200 1.965 . S
O207 C218 1.260 . S
O208 Zn201 1.969 . S
O208 C218 1.258 . S
C209 O206 1.267 . S
C209 O210 1.228 . S
O210 C209 1.228 . S
O211 Zn200 2.024 . S
O211 C202 1.058 . S
C212 O213 1.228 . S
C212 O214 1.267 . S
O213 C212 1.228 . S
O214 Zn201 1.969 1_655 S
O214 C212 1.267 . S
O215 Zn201 1.965 . S
O215 C219 1.260 . S
O216 Zn200 1.969 . S
O216 C219 1.258 . S
O217 Zn201 2.024 1_655 S
O217 C204 1.058 . S
C218 O207 1.260 . S
C218 O208 1.258 . S
C219 O215 1.260 . S
C219 O216 1.258 . S
Zn220 O226 1.969 . S
Zn220 O227 1.965 . S
Zn220 O231 2.024 . S
Zn220 O236 1.969 . S
Zn221 O228 1.969 . S
Zn221 O234 1.969 1_545 S
Zn221 O235 1.965 . S
Zn221 O237 2.024 1_545 S
C222 O223 1.229 . S
C222 O231 1.058 . S
O223 C222 1.229 . S
C224 O225 1.229 . S
C224 O237 1.058 . S
O225 C224 1.229 . S
O226 Zn220 1.969 . S
O226 C229 1.267 . S
O227 Zn220 1.965 . S
O227 C238 1.260 . S
O228 Zn221 1.969 . S
O228 C238 1.258 . S
C229 O226 1.267 . S
C229 O230 1.228 . S
O230 C229 1.228 . S
O231 Zn220 2.024 . S
O231 C222 1.058 . S
C232 O233 1.228 . S
C232 O234 1.267 . S
O233 C232 1.228 . S
O234 Zn221 1.969 1_565 S
O234 C232 1.267 . S
O235 Zn221 1.965 . S
O235 C239 1.260 . S
O236 Zn220 1.969 . S
O236 C239 1.258 . S
O237 Zn221 2.024 1_565 S
O237 C224 1.058 . S
C238 O227 1.260 . S
C238 O228 1.258 . S
C239 O235 1.260 . S
C239 O236 1.258 . S
Zn240 O246 1.969 . S
Zn240 O247 1.965 . S
Zn240 O251 2.024 . S
Zn240 O256 1.969 . S
Zn241 O248 1.969 . S
Zn241 O254 1.969 1_655 S
Zn241 O255 1.965 . S
Zn241 O257 2.024 1_655 S
C242 O243 1.229 . S
C242 O251 1.058 . S
O243 C242 1.229 . S
C244 O245 1.229 . S
C244 O257 1.058 . S
O245 C244 1.229 . S
O246 Zn240 1.969 . S
O246 C249 1.267 . S
O247 Zn240 1.965 . S
O247 C258 1.260 . S
O248 Zn241 1.969 . S
O248 C258 1.258 . S
C249 O246 1.267 . S
C249 O250 1.228 . S
O250 C249 1.228 . S
O251 Zn240 2.024 . S
O251 C242 1.058 . S
C252 O253 1.228 . S
C252 O254 1.267 . S
O253 C252 1.228 . S
O254 Zn241 1.969 1_455 S
O254 C252 1.267 . S
O255 Zn241 1.965 . S
O255 C259 1.260 . S
O256 Zn240 1.969 . S
O256 C259 1.258 . S
O257 Zn241 2.024 1_455 S
O257 C244 1.058 . S
C258 O247 1.260 . S
C258 O248 1.258 . S
C259 O255 1.260 . S
C259 O256 1.258 . S
Zn260 O266 1.969 . S
Zn260 O267 1.965 . S
Zn260 O271 2.024 . S
Zn260 O276 1.969 . S
Zn261 O268 1.969 . S
Zn261 O274 1.969 1_565 S
Zn261 O275 1.965 . S
Zn261 O277 2.024 1_565 S
C262 O263 1.229 . S
C262 O271 1.058 . S
O263 C262 1.229 . S
C264 O265 1.229 . S
C264 O277 1.058 . S
O265 C264 1.229 . S
O266 Zn260 1.969 . S
O266 C269 1.267 . S
O267 Zn260 1.965 . S
O267 C278 1.260 . S
O268 Zn261 1.969 . S
O268 C278 1.258 . S
C269 O266 1.267 . S
C269 O270 1.228 . S
O270 C269 1.228 . S
O271 Zn260 2.024 . S
O271 C262 1.058 . S
C272 O273 1.228 . S
C272 O274 1.267 . S
O273 C272 1.228 . S
O274 Zn261 1.969 1_545 S
O274 C272 1.267 . S
O275 Zn261 1.965 . S
O275 C279 1.260 . S
O276 Zn260 1.969 . S
O276 C279 1.258 . S
O277 Zn261 2.024 1_545 S
O277 C264 1.058 . S
C278 O267 1.260 . S
C278 O268 1.258 . S
C279 O275 1.260 . S
C279 O276 1.258 . S
Zn280 O286 1.969 . S
Zn280 O287 1.965 . S
Zn280 O291 2.024 . S
Zn280 O296 1.969 . S
Zn281 O288 1.969 . S
Zn281 O294 1.969 . S
Zn281 O295 1.965 . S
Zn281 O297 2.024 . S
C282 O283 1.229 . S
C282 O291 1.058 . S
O283 C282 1.229 . S
C284 O285 1.229 . S
C284 O297 1.058 . S
O285 C284 1.229 . S
O286 Zn280 1.969 . S
O286 C289 1.267 . S
O287 Zn280 1.965 . S
O287 C298 1.260 . S
O288 Zn281 1.969 . S
O288 C298 1.258 . S
C289 O286 1.267 . S
C289 O290 1.228 . S
O290 C289 1.228 . S
O291 Zn280 2.024 . S
O291 C282 1.058 . S
C292 O293 1.228 . S
C292 O294 1.267 . S
O293 C292 1.228 . S
O294 Zn281 1.969 . S
O294 C292 1.267 . S
O295 Zn281 1.965 . S
O295 C299 1.260 . S
O296 Zn280 1.969 . S
O296 C299 1.258 . S
O297 Zn281 2.024 . S
O297 C284 1.058 . S
C298 O287 1.260 . S
C298 O288 1.258 . S
C299 O295 1.260 . S
C299 O296 1.258 . S
Zn300 O306 1.969 . S
Zn300 O307 1.965 . S
Zn300 O311 2.024 . S
Zn300 O316 1.969 . S
Zn301 O308 1.969 . S
Zn301 O314 1.969 . S
Zn301 O315 1.965 . S
Zn301 O317 2.024 . S
C302 O303 1.229 . S
C302 O311 1.058 . S
O303 C302 1.229 . S
C304 O305 1.229 . S
C304 O317 1.058 . S
O305 C304 1.229 . S
O306 Zn300 1.969 . S
O306 C309 1.267 . S
O307 Zn300 1.965 . S
O307 C318 1.260 . S
O308 Zn301 1.969 . S
O308 C318 1.258 . S
C309 O306 1.267 . S
C309 O310 1.228 . S
O310 C309 1.228 . S
O311 Zn300 2.024 . S
O311 C302 1.058 . S
C312 O313 1.228 . S
C312 O314 1.267 . S
O313 C312 1.228 . S
O314 Zn301 1.969 . S
O314 C312 1.267 . S
O315 Zn301 1.965 . S
O315 C319 1.260 . S
O316 Zn300 1.969 . S
O316 C319 1.258 . S
O317 Zn301 2.024 . S
O317 C304 1.058 . S
C318 O307 1.260 . S
C318 O308 1.258 . S
C319 O315 1.260 . S
C319 O316 1.258 . S
H320 C332 0.930 . S
H321 C334 0.930 . S
H322 C335 0.930 . S
H323 C339 0.959 . S
H324 C339 0.959 . S
H325 C339 0.961 . S
H326 C340 0.960 . S
H327 C340 0.961 . S
H328 C340 0.959 . S
H329 C343 0.929 . S
H330 C344 0.931 . S
H331 C346 0.930 . S
C332 H320 0.930 . S
C332 C333 1.399 . S
C332 C337 1.399 . S
C333 C332 1.399 . S
C333 C334 1.376 . S
C334 H321 0.930 . S
C334 C333 1.376 . S
C334 C335 1.388 . S
C335 H322 0.930 . S
C335 C334 1.388 . S
C335 C336 1.390 . S
C336 C335 1.390 . S
C336 C337 1.394 . S
C336 C342 1.465 . S
C337 C332 1.399 . S
C337 C336 1.394 . S
C337 C338 1.516 . S
C338 C337 1.516 . S
C338 C339 1.502 . S
C338 C340 1.561 . S
C338 C341 1.526 . S
C339 H323 0.959 . S
C339 H324 0.959 . S
C339 H325 0.961 . S
C339 C338 1.502 . S
C340 H326 0.960 . S
C340 H327 0.961 . S
C340 H328 0.959 . S
C340 C338 1.561 . S
C341 C338 1.526 . S
C341 C342 1.396 . S
C341 C346 1.390 . S
C342 C336 1.465 . S
C342 C341 1.396 . S
C342 C343 1.399 . S
C343 H329 0.929 . S
C343 C342 1.399 . S
C343 C344 1.385 . S
C344 H330 0.931 . S
C344 C343 1.385 . S
C344 C345 1.389 . S
C345 C344 1.389 . S
C345 C346 1.387 . S
C346 H331 0.930 . S
C346 C341 1.390 . S
C346 C345 1.387 . S
H347 C359 0.930 . S
H348 C361 0.930 . S
H349 C362 0.930 . S
H350 C366 0.959 . S
H351 C366 0.959 . S
H352 C366 0.961 . S
H353 C367 0.960 . S
H354 C367 0.961 . S
H355 C367 0.959 . S
H356 C370 0.929 . S
H357 C371 0.931 . S
H358 C373 0.930 . S
C359 H347 0.930 . S
C359 C360 1.399 . S
C359 C364 1.399 . S
C360 C359 1.399 . S
C360 C361 1.376 . S
C361 H348 0.930 . S
C361 C360 1.376 . S
C361 C362 1.388 . S
C362 H349 0.930 . S
C362 C361 1.388 . S
C362 C363 1.390 . S
C363 C362 1.390 . S
C363 C364 1.394 . S
C363 C369 1.465 . S
C364 C359 1.399 . S
C364 C363 1.394 . S
C364 C365 1.516 . S
C365 C364 1.516 . S
C365 C366 1.502 . S
C365 C367 1.561 . S
C365 C368 1.526 . S
C366 H350 0.959 . S
C366 H351 0.959 . S
C366 H352 0.961 . S
C366 C365 1.502 . S
C367 H353 0.960 . S
C367 H354 0.961 . S
C367 H355 0.959 . S
C367 C365 1.561 . S
C368 C365 1.526 . S
C368 C369 1.396 . S
C368 C373 1.390 . S
C369 C363 1.465 . S
C369 C368 1.396 . S
C369 C370 1.399 . S
C370 H356 0.929 . S
C370 C369 1.399 . S
C370 C371 1.385 . S
C371 H357 0.931 . S
C371 C370 1.385 . S
C371 C372 1.389 . S
C372 C371 1.389 . S
C372 C373 1.387 . S
C373 H358 0.930 . S
C373 C368 1.390 . S
C373 C372 1.387 . S
H374 C386 0.930 . S
H375 C388 0.930 . S
H376 C389 0.930 . S
H377 C393 0.959 . S
H378 C393 0.959 . S
H379 C393 0.961 . S
H380 C394 0.960 . S
H381 C394 0.961 . S
H382 C394 0.959 . S
H383 C397 0.929 . S
H384 C398 0.931 . S
H385 C400 0.930 . S
C386 H374 0.930 . S
C386 C387 1.399 . S
C386 C391 1.399 . S
C387 C386 1.399 . S
C387 C388 1.376 . S
C388 H375 0.930 . S
C388 C387 1.376 . S
C388 C389 1.388 . S
C389 H376 0.930 . S
C389 C388 1.388 . S
C389 C390 1.390 . S
C390 C389 1.390 . S
C390 C391 1.394 . S
C390 C396 1.465 . S
C391 C386 1.399 . S
C391 C390 1.394 . S
C391 C392 1.516 . S
C392 C391 1.516 . S
C392 C393 1.502 . S
C392 C394 1.561 . S
C392 C395 1.526 . S
C393 H377 0.959 . S
C393 H378 0.959 . S
C393 H379 0.961 . S
C393 C392 1.502 . S
C394 H380 0.960 . S
C394 H381 0.961 . S
C394 H382 0.959 . S
C394 C392 1.561 . S
C395 C392 1.526 . S
C395 C396 1.396 . S
C395 C400 1.390 . S
C396 C390 1.465 . S
C396 C395 1.396 . S
C396 C397 1.399 . S
C397 H383 0.929 . S
C397 C396 1.399 . S
C397 C398 1.385 . S
C398 H384 0.931 . S
C398 C397 1.385 . S
C398 C399 1.389 . S
C399 C398 1.389 . S
C399 C400 1.387 . S
C400 H385 0.930 . S
C400 C395 1.390 . S
C400 C399 1.387 . S
H401 C413 0.930 . S
H402 C415 0.930 . S
H403 C416 0.930 . S
H404 C420 0.959 . S
H405 C420 0.959 . S
H406 C420 0.961 . S
H407 C421 0.960 . S
H408 C421 0.961 . S
H409 C421 0.959 . S
H410 C424 0.929 . S
H411 C425 0.931 . S
H412 C427 0.930 . S
C413 H401 0.930 . S
C413 C414 1.399 . S
C413 C418 1.399 . S
C414 C413 1.399 . S
C414 C415 1.376 . S
C415 H402 0.930 . S
C415 C414 1.376 . S
C415 C416 1.388 . S
C416 H403 0.930 . S
C416 C415 1.388 . S
C416 C417 1.390 . S
C417 C416 1.390 . S
C417 C418 1.394 . S
C417 C423 1.465 . S
C418 C413 1.399 . S
C418 C417 1.394 . S
C418 C419 1.516 . S
C419 C418 1.516 . S
C419 C420 1.502 . S
C419 C421 1.561 . S
C419 C422 1.526 . S
C420 H404 0.959 . S
C420 H405 0.959 . S
C420 H406 0.961 . S
C420 C419 1.502 . S
C421 H407 0.960 . S
C421 H408 0.961 . S
C421 H409 0.959 . S
C421 C419 1.561 . S
C422 C419 1.526 . S
C422 C423 1.396 . S
C422 C427 1.390 . S
C423 C417 1.465 . S
C423 C422 1.396 . S
C423 C424 1.399 . S
C424 H410 0.929 . S
C424 C423 1.399 . S
C424 C425 1.385 . S
C425 H411 0.931 . S
C425 C424 1.385 . S
C425 C426 1.389 . S
C426 C425 1.389 . S
C426 C427 1.387 . S
C427 H412 0.930 . S
C427 C422 1.390 . S
C427 C426 1.387 . S
H428 C440 0.930 . S
H429 C442 0.930 . S
H430 C443 0.930 . S
H431 C447 0.959 . S
H432 C447 0.959 . S
H433 C447 0.961 . S
H434 C448 0.960 . S
H435 C448 0.961 . S
H436 C448 0.959 . S
H437 C451 0.929 . S
H438 C452 0.931 . S
H439 C454 0.930 . S
C440 H428 0.930 . S
C440 C441 1.399 . S
C440 C445 1.399 . S
C441 C440 1.399 . S
C441 C442 1.376 . S
C442 H429 0.930 . S
C442 C441 1.376 . S
C442 C443 1.388 . S
C443 H430 0.930 . S
C443 C442 1.388 . S
C443 C444 1.390 . S
C444 C443 1.390 . S
C444 C445 1.394 . S
C444 C450 1.465 . S
C445 C440 1.399 . S
C445 C444 1.394 . S
C445 C446 1.516 . S
C446 C445 1.516 . S
C446 C447 1.502 . S
C446 C448 1.561 . S
C446 C449 1.526 . S
C447 H431 0.959 . S
C447 H432 0.959 . S
C447 H433 0.961 . S
C447 C446 1.502 . S
C448 H434 0.960 . S
C448 H435 0.961 . S
C448 H436 0.959 . S
C448 C446 1.561 . S
C449 C446 1.526 . S
C449 C450 1.396 . S
C449 C454 1.390 . S
C450 C444 1.465 . S
C450 C449 1.396 . S
C450 C451 1.399 . S
C451 H437 0.929 . S
C451 C450 1.399 . S
C451 C452 1.385 . S
C452 H438 0.931 . S
C452 C451 1.385 . S
C452 C453 1.389 . S
C453 C452 1.389 . S
C453 C454 1.387 . S
C454 H439 0.930 . S
C454 C449 1.390 . S
C454 C453 1.387 . S
H455 C467 0.930 . S
H456 C469 0.930 . S
H457 C470 0.930 . S
H458 C474 0.959 . S
H459 C474 0.959 . S
H460 C474 0.961 . S
H461 C475 0.960 . S
H462 C475 0.961 . S
H463 C475 0.959 . S
H464 C478 0.929 . S
H465 C479 0.931 . S
H466 C481 0.930 . S
C467 H455 0.930 . S
C467 C468 1.399 . S
C467 C472 1.399 . S
C468 C467 1.399 . S
C468 C469 1.376 . S
C469 H456 0.930 . S
C469 C468 1.376 . S
C469 C470 1.388 . S
C470 H457 0.930 . S
C470 C469 1.388 . S
C470 C471 1.390 . S
C471 C470 1.390 . S
C471 C472 1.394 . S
C471 C477 1.465 . S
C472 C467 1.399 . S
C472 C471 1.394 . S
C472 C473 1.516 . S
C473 C472 1.516 . S
C473 C474 1.502 . S
C473 C475 1.561 . S
C473 C476 1.526 . S
C474 H458 0.959 . S
C474 H459 0.959 . S
C474 H460 0.961 . S
C474 C473 1.502 . S
C475 H461 0.960 . S
C475 H462 0.961 . S
C475 H463 0.959 . S
C475 C473 1.561 . S
C476 C473 1.526 . S
C476 C477 1.396 . S
C476 C481 1.390 . S
C477 C471 1.465 . S
C477 C476 1.396 . S
C477 C478 1.399 . S
C478 H464 0.929 . S
C478 C477 1.399 . S
C478 C479 1.385 . S
C479 H465 0.931 . S
C479 C478 1.385 . S
C479 C480 1.389 . S
C480 C479 1.389 . S
C480 C481 1.387 . S
C481 H466 0.930 . S
C481 C476 1.390 . S
C481 C480 1.387 . S
H482 C494 0.930 . S
H483 C496 0.930 . S
H484 C497 0.930 . S
H485 C501 0.959 . S
H486 C501 0.959 . S
H487 C501 0.961 . S
H488 C502 0.960 . S
H489 C502 0.961 . S
H490 C502 0.959 . S
H491 C505 0.929 . S
H492 C506 0.931 . S
H493 C508 0.930 . S
C494 H482 0.930 . S
C494 C495 1.399 . S
C494 C499 1.399 . S
C495 C494 1.399 . S
C495 C496 1.376 . S
C496 H483 0.930 . S
C496 C495 1.376 . S
C496 C497 1.388 . S
C497 H484 0.930 . S
C497 C496 1.388 . S
C497 C498 1.390 . S
C498 C497 1.390 . S
C498 C499 1.394 . S
C498 C504 1.465 . S
C499 C494 1.399 . S
C499 C498 1.394 . S
C499 C500 1.516 . S
C500 C499 1.516 . S
C500 C501 1.502 . S
C500 C502 1.561 . S
C500 C503 1.526 . S
C501 H485 0.959 . S
C501 H486 0.959 . S
C501 H487 0.961 . S
C501 C500 1.502 . S
C502 H488 0.960 . S
C502 H489 0.961 . S
C502 H490 0.959 . S
C502 C500 1.561 . S
C503 C500 1.526 . S
C503 C504 1.396 . S
C503 C508 1.390 . S
C504 C498 1.465 . S
C504 C503 1.396 . S
C504 C505 1.399 . S
C505 H491 0.929 . S
C505 C504 1.399 . S
C505 C506 1.385 . S
C506 H492 0.931 . S
C506 C505 1.385 . S
C506 C507 1.389 . S
C507 C506 1.389 . S
C507 C508 1.387 . S
C508 H493 0.930 . S
C508 C503 1.390 . S
C508 C507 1.387 . S
H509 C521 0.930 . S
H510 C523 0.930 . S
H511 C524 0.930 . S
H512 C528 0.959 . S
H513 C528 0.959 . S
H514 C528 0.961 . S
H515 C529 0.960 . S
H516 C529 0.961 . S
H517 C529 0.959 . S
H518 C532 0.929 . S
H519 C533 0.931 . S
H520 C535 0.930 . S
C521 H509 0.930 . S
C521 C522 1.399 . S
C521 C526 1.399 . S
C522 C521 1.399 . S
C522 C523 1.376 . S
C523 H510 0.930 . S
C523 C522 1.376 . S
C523 C524 1.388 . S
C524 H511 0.930 . S
C524 C523 1.388 . S
C524 C525 1.390 . S
C525 C524 1.390 . S
C525 C526 1.394 . S
C525 C531 1.465 . S
C526 C521 1.399 . S
C526 C525 1.394 . S
C526 C527 1.516 . S
C527 C526 1.516 . S
C527 C528 1.502 . S
C527 C529 1.561 . S
C527 C530 1.526 . S
C528 H512 0.959 . S
C528 H513 0.959 . S
C528 H514 0.961 . S
C528 C527 1.502 . S
C529 H515 0.960 . S
C529 H516 0.961 . S
C529 H517 0.959 . S
C529 C527 1.561 . S
C530 C527 1.526 . S
C530 C531 1.396 . S
C530 C535 1.390 . S
C531 C525 1.465 . S
C531 C530 1.396 . S
C531 C532 1.399 . S
C532 H518 0.929 . S
C532 C531 1.399 . S
C532 C533 1.385 . S
C533 H519 0.931 . S
C533 C532 1.385 . S
C533 C534 1.389 . S
C534 C533 1.389 . S
C534 C535 1.387 . S
C535 H520 0.930 . S
C535 C530 1.390 . S
C535 C534 1.387 . S
H536 C548 0.930 . S
H537 C550 0.930 . S
H538 C551 0.930 . S
H539 C555 0.959 . S
H540 C555 0.959 . S
H541 C555 0.961 . S
H542 C556 0.960 . S
H543 C556 0.961 . S
H544 C556 0.959 . S
H545 C559 0.929 . S
H546 C560 0.931 . S
H547 C562 0.930 . S
C548 H536 0.930 . S
C548 C549 1.399 . S
C548 C553 1.399 . S
C549 C548 1.399 . S
C549 C550 1.376 . S
C550 H537 0.930 . S
C550 C549 1.376 . S
C550 C551 1.388 . S
C551 H538 0.930 . S
C551 C550 1.388 . S
C551 C552 1.390 . S
C552 C551 1.390 . S
C552 C553 1.394 . S
C552 C558 1.465 . S
C553 C548 1.399 . S
C553 C552 1.394 . S
C553 C554 1.516 . S
C554 C553 1.516 . S
C554 C555 1.502 . S
C554 C556 1.561 . S
C554 C557 1.526 . S
C555 H539 0.959 . S
C555 H540 0.959 . S
C555 H541 0.961 . S
C555 C554 1.502 . S
C556 H542 0.960 . S
C556 H543 0.961 . S
C556 H544 0.959 . S
C556 C554 1.561 . S
C557 C554 1.526 . S
C557 C558 1.396 . S
C557 C562 1.390 . S
C558 C552 1.465 . S
C558 C557 1.396 . S
C558 C559 1.399 . S
C559 H545 0.929 . S
C559 C558 1.399 . S
C559 C560 1.385 . S
C560 H546 0.931 . S
C560 C559 1.385 . S
C560 C561 1.389 . S
C561 C560 1.389 . S
C561 C562 1.387 . S
C562 H547 0.930 . S
C562 C557 1.390 . S
C562 C561 1.387 . S
H563 C575 0.930 . S
H564 C577 0.930 . S
H565 C578 0.930 . S
H566 C582 0.959 . S
H567 C582 0.959 . S
H568 C582 0.961 . S
H569 C583 0.960 . S
H570 C583 0.961 . S
H571 C583 0.959 . S
H572 C586 0.929 . S
H573 C587 0.931 . S
H574 C589 0.930 . S
C575 H563 0.930 . S
C575 C576 1.399 . S
C575 C580 1.399 . S
C576 C575 1.399 . S
C576 C577 1.376 . S
C577 H564 0.930 . S
C577 C576 1.376 . S
C577 C578 1.388 . S
C578 H565 0.930 . S
C578 C577 1.388 . S
C578 C579 1.390 . S
C579 C578 1.390 . S
C579 C580 1.394 . S
C579 C585 1.465 . S
C580 C575 1.399 . S
C580 C579 1.394 . S
C580 C581 1.516 . S
C581 C580 1.516 . S
C581 C582 1.502 . S
C581 C583 1.561 . S
C581 C584 1.526 . S
C582 H566 0.959 . S
C582 H567 0.959 . S
C582 H568 0.961 . S
C582 C581 1.502 . S
C583 H569 0.960 . S
C583 H570 0.961 . S
C583 H571 0.959 . S
C583 C581 1.561 . S
C584 C581 1.526 . S
C584 C585 1.396 . S
C584 C589 1.390 . S
C585 C579 1.465 . S
C585 C584 1.396 . S
C585 C586 1.399 . S
C586 H572 0.929 . S
C586 C585 1.399 . S
C586 C587 1.385 . S
C587 H573 0.931 . S
C587 C586 1.385 . S
C587 C588 1.389 . S
C588 C587 1.389 . S
C588 C589 1.387 . S
C589 H574 0.930 . S
C589 C584 1.390 . S
C589 C588 1.387 . S
H590 C602 0.930 . S
H591 C604 0.930 . S
H592 C605 0.930 . S
H593 C609 0.959 . S
H594 C609 0.959 . S
H595 C609 0.961 . S
H596 C610 0.960 . S
H597 C610 0.961 . S
H598 C610 0.959 . S
H599 C613 0.929 . S
H600 C614 0.931 . S
H601 C616 0.930 . S
C602 H590 0.930 . S
C602 C603 1.399 . S
C602 C607 1.399 . S
C603 C602 1.399 . S
C603 C604 1.376 . S
C604 H591 0.930 . S
C604 C603 1.376 . S
C604 C605 1.388 . S
C605 H592 0.930 . S
C605 C604 1.388 . S
C605 C606 1.390 . S
C606 C605 1.390 . S
C606 C607 1.394 . S
C606 C612 1.465 . S
C607 C602 1.399 . S
C607 C606 1.394 . S
C607 C608 1.516 . S
C608 C607 1.516 . S
C608 C609 1.502 . S
C608 C610 1.561 . S
C608 C611 1.526 . S
C609 H593 0.959 . S
C609 H594 0.959 . S
C609 H595 0.961 . S
C609 C608 1.502 . S
C610 H596 0.960 . S
C610 H597 0.961 . S
C610 H598 0.959 . S
C610 C608 1.561 . S
C611 C608 1.526 . S
C611 C612 1.396 . S
C611 C616 1.390 . S
C612 C606 1.465 . S
C612 C611 1.396 . S
C612 C613 1.399 . S
C613 H599 0.929 . S
C613 C612 1.399 . S
C613 C614 1.385 . S
C614 H600 0.931 . S
C614 C613 1.385 . S
C614 C615 1.389 . S
C615 C614 1.389 . S
C615 C616 1.387 . S
C616 H601 0.930 . S
C616 C611 1.390 . S
C616 C615 1.387 . S
H617 C629 0.930 . S
H618 C631 0.930 . S
H619 C632 0.930 . S
H620 C636 0.959 . S
H621 C636 0.959 . S
H622 C636 0.961 . S
H623 C637 0.960 . S
H624 C637 0.961 . S
H625 C637 0.959 . S
H626 C640 0.929 . S
H627 C641 0.931 . S
H628 C643 0.930 . S
C629 H617 0.930 . S
C629 C630 1.399 . S
C629 C634 1.399 . S
C630 C629 1.399 . S
C630 C631 1.376 . S
C631 H618 0.930 . S
C631 C630 1.376 . S
C631 C632 1.388 . S
C632 H619 0.930 . S
C632 C631 1.388 . S
C632 C633 1.390 . S
C633 C632 1.390 . S
C633 C634 1.394 . S
C633 C639 1.465 . S
C634 C629 1.399 . S
C634 C633 1.394 . S
C634 C635 1.516 . S
C635 C634 1.516 . S
C635 C636 1.502 . S
C635 C637 1.561 . S
C635 C638 1.526 . S
C636 H620 0.959 . S
C636 H621 0.959 . S
C636 H622 0.961 . S
C636 C635 1.502 . S
C637 H623 0.960 . S
C637 H624 0.961 . S
C637 H625 0.959 . S
C637 C635 1.561 . S
C638 C635 1.526 . S
C638 C639 1.396 . S
C638 C643 1.390 . S
C639 C633 1.465 . S
C639 C638 1.396 . S
C639 C640 1.399 . S
C640 H626 0.929 . S
C640 C639 1.399 . S
C640 C641 1.385 . S
C641 H627 0.931 . S
C641 C640 1.385 . S
C641 C642 1.389 . S
C642 C641 1.389 . S
C642 C643 1.387 . S
C643 H628 0.930 . S
C643 C638 1.390 . S
C643 C642 1.387 . S
H644 C656 0.930 . S
H645 C658 0.930 . S
H646 C659 0.930 . S
H647 C663 0.959 . S
H648 C663 0.959 . S
H649 C663 0.961 . S
H650 C664 0.960 . S
H651 C664 0.961 . S
H652 C664 0.959 . S
H653 C667 0.929 . S
H654 C668 0.931 . S
H655 C670 0.930 . S
C656 H644 0.930 . S
C656 C657 1.399 . S
C656 C661 1.399 . S
C657 C656 1.399 . S
C657 C658 1.376 . S
C658 H645 0.930 . S
C658 C657 1.376 . S
C658 C659 1.388 . S
C659 H646 0.930 . S
C659 C658 1.388 . S
C659 C660 1.390 . S
C660 C659 1.390 . S
C660 C661 1.394 . S
C660 C666 1.465 . S
C661 C656 1.399 . S
C661 C660 1.394 . S
C661 C662 1.516 . S
C662 C661 1.516 . S
C662 C663 1.502 . S
C662 C664 1.561 . S
C662 C665 1.526 . S
C663 H647 0.959 . S
C663 H648 0.959 . S
C663 H649 0.961 . S
C663 C662 1.502 . S
C664 H650 0.960 . S
C664 H651 0.961 . S
C664 H652 0.959 . S
C664 C662 1.561 . S
C665 C662 1.526 . S
C665 C666 1.396 . S
C665 C670 1.390 . S
C666 C660 1.465 . S
C666 C665 1.396 . S
C666 C667 1.399 . S
C667 H653 0.929 . S
C667 C666 1.399 . S
C667 C668 1.385 . S
C668 H654 0.931 . S
C668 C667 1.385 . S
C668 C669 1.389 . S
C669 C668 1.389 . S
C669 C670 1.387 . S
C670 H655 0.930 . S
C670 C665 1.390 . S
C670 C669 1.387 . S
H671 C683 0.930 . S
H672 C685 0.930 . S
H673 C686 0.930 . S
H674 C690 0.959 . S
H675 C690 0.959 . S
H676 C690 0.961 . S
H677 C691 0.960 . S
H678 C691 0.961 . S
H679 C691 0.959 . S
H680 C694 0.929 . S
H681 C695 0.931 . S
H682 C697 0.930 . S
C683 H671 0.930 . S
C683 C684 1.399 . S
C683 C688 1.399 . S
C684 C683 1.399 . S
C684 C685 1.376 . S
C685 H672 0.930 . S
C685 C684 1.376 . S
C685 C686 1.388 . S
C686 H673 0.930 . S
C686 C685 1.388 . S
C686 C687 1.390 . S
C687 C686 1.390 . S
C687 C688 1.394 . S
C687 C693 1.465 . S
C688 C683 1.399 . S
C688 C687 1.394 . S
C688 C689 1.516 . S
C689 C688 1.516 . S
C689 C690 1.502 . S
C689 C691 1.561 . S
C689 C692 1.526 . S
C690 H674 0.959 . S
C690 H675 0.959 . S
C690 H676 0.961 . S
C690 C689 1.502 . S
C691 H677 0.960 . S
C691 H678 0.961 . S
C691 H679 0.959 . S
C691 C689 1.561 . S
C692 C689 1.526 . S
C692 C693 1.396 . S
C692 C697 1.390 . S
C693 C687 1.465 . S
C693 C692 1.396 . S
C693 C694 1.399 . S
C694 H680 0.929 . S
C694 C693 1.399 . S
C694 C695 1.385 . S
C695 H681 0.931 . S
C695 C694 1.385 . S
C695 C696 1.389 . S
C696 C695 1.389 . S
C696 C697 1.387 . S
C697 H682 0.930 . S
C697 C692 1.390 . S
C697 C696 1.387 . S
H698 C710 0.930 . S
H699 C712 0.930 . S
H700 C713 0.930 . S
H701 C717 0.959 . S
H702 C717 0.959 . S
H703 C717 0.961 . S
H704 C718 0.960 . S
H705 C718 0.961 . S
H706 C718 0.959 . S
H707 C721 0.929 . S
H708 C722 0.931 . S
H709 C724 0.930 . S
C710 H698 0.930 . S
C710 C711 1.399 . S
C710 C715 1.399 . S
C711 C710 1.399 . S
C711 C712 1.376 . S
C712 H699 0.930 . S
C712 C711 1.376 . S
C712 C713 1.388 . S
C713 H700 0.930 . S
C713 C712 1.388 . S
C713 C714 1.390 . S
C714 C713 1.390 . S
C714 C715 1.394 . S
C714 C720 1.465 . S
C715 C710 1.399 . S
C715 C714 1.394 . S
C715 C716 1.516 . S
C716 C715 1.516 . S
C716 C717 1.502 . S
C716 C718 1.561 . S
C716 C719 1.526 . S
C717 H701 0.959 . S
C717 H702 0.959 . S
C717 H703 0.961 . S
C717 C716 1.502 . S
C718 H704 0.960 . S
C718 H705 0.961 . S
C718 H706 0.959 . S
C718 C716 1.561 . S
C719 C716 1.526 . S
C719 C720 1.396 . S
C719 C724 1.390 . S
C720 C714 1.465 . S
C720 C719 1.396 . S
C720 C721 1.399 . S
C721 H707 0.929 . S
C721 C720 1.399 . S
C721 C722 1.385 . S
C722 H708 0.931 . S
C722 C721 1.385 . S
C722 C723 1.389 . S
C723 C722 1.389 . S
C723 C724 1.387 . S
C724 H709 0.930 . S
C724 C719 1.390 . S
C724 C723 1.387 . S
H725 C737 0.930 . S
H726 C739 0.930 . S
H727 C740 0.930 . S
H728 C744 0.959 . S
H729 C744 0.959 . S
H730 C744 0.961 . S
H731 C745 0.960 . S
H732 C745 0.961 . S
H733 C745 0.959 . S
H734 C748 0.929 . S
H735 C749 0.931 . S
H736 C751 0.930 . S
C737 H725 0.930 . S
C737 C738 1.399 . S
C737 C742 1.399 . S
C738 C737 1.399 . S
C738 C739 1.376 . S
C739 H726 0.930 . S
C739 C738 1.376 . S
C739 C740 1.388 . S
C740 H727 0.930 . S
C740 C739 1.388 . S
C740 C741 1.390 . S
C741 C740 1.390 . S
C741 C742 1.394 . S
C741 C747 1.465 . S
C742 C737 1.399 . S
C742 C741 1.394 . S
C742 C743 1.516 . S
C743 C742 1.516 . S
C743 C744 1.502 . S
C743 C745 1.561 . S
C743 C746 1.526 . S
C744 H728 0.959 . S
C744 H729 0.959 . S
C744 H730 0.961 . S
C744 C743 1.502 . S
C745 H731 0.960 . S
C745 H732 0.961 . S
C745 H733 0.959 . S
C745 C743 1.561 . S
C746 C743 1.526 . S
C746 C747 1.396 . S
C746 C751 1.390 . S
C747 C741 1.465 . S
C747 C746 1.396 . S
C747 C748 1.399 . S
C748 H734 0.929 . S
C748 C747 1.399 . S
C748 C749 1.385 . S
C749 H735 0.931 . S
C749 C748 1.385 . S
C749 C750 1.389 . S
C750 C749 1.389 . S
C750 C751 1.387 . S
C751 H736 0.930 . S
C751 C746 1.390 . S
C751 C750 1.387 . S
H752 C764 0.930 . S
H753 C766 0.930 . S
H754 C767 0.930 . S
H755 C771 0.959 . S
H756 C771 0.959 . S
H757 C771 0.961 . S
H758 C772 0.960 . S
H759 C772 0.961 . S
H760 C772 0.959 . S
H761 C775 0.929 . S
H762 C776 0.931 . S
H763 C778 0.930 . S
C764 H752 0.930 . S
C764 C765 1.399 . S
C764 C769 1.399 . S
C765 C764 1.399 . S
C765 C766 1.376 . S
C766 H753 0.930 . S
C766 C765 1.376 . S
C766 C767 1.388 . S
C767 H754 0.930 . S
C767 C766 1.388 . S
C767 C768 1.390 . S
C768 C767 1.390 . S
C768 C769 1.394 . S
C768 C774 1.465 . S
C769 C764 1.399 . S
C769 C768 1.394 . S
C769 C770 1.516 . S
C770 C769 1.516 . S
C770 C771 1.502 . S
C770 C772 1.561 . S
C770 C773 1.526 . S
C771 H755 0.959 . S
C771 H756 0.959 . S
C771 H757 0.961 . S
C771 C770 1.502 . S
C772 H758 0.960 . S
C772 H759 0.961 . S
C772 H760 0.959 . S
C772 C770 1.561 . S
C773 C770 1.526 . S
C773 C774 1.396 . S
C773 C778 1.390 . S
C774 C768 1.465 . S
C774 C773 1.396 . S
C774 C775 1.399 . S
C775 H761 0.929 . S
C775 C774 1.399 . S
C775 C776 1.385 . S
C776 H762 0.931 . S
C776 C775 1.385 . S
C776 C777 1.389 . S
C777 C776 1.389 . S
C777 C778 1.387 . S
C778 H763 0.930 . S
C778 C773 1.390 . S
C778 C777 1.387 . S
H779 C791 0.930 . S
H780 C793 0.930 . S
H781 C794 0.930 . S
H782 C798 0.959 . S
H783 C798 0.959 . S
H784 C798 0.961 . S
H785 C799 0.960 . S
H786 C799 0.961 . S
H787 C799 0.959 . S
H788 C802 0.929 . S
H789 C803 0.931 . S
H790 C805 0.930 . S
C791 H779 0.930 . S
C791 C792 1.399 . S
C791 C796 1.399 . S
C792 C791 1.399 . S
C792 C793 1.376 . S
C793 H780 0.930 . S
C793 C792 1.376 . S
C793 C794 1.388 . S
C794 H781 0.930 . S
C794 C793 1.388 . S
C794 C795 1.390 . S
C795 C794 1.390 . S
C795 C796 1.394 . S
C795 C801 1.465 . S
C796 C791 1.399 . S
C796 C795 1.394 . S
C796 C797 1.516 . S
C797 C796 1.516 . S
C797 C798 1.502 . S
C797 C799 1.561 . S
C797 C800 1.526 . S
C798 H782 0.959 . S
C798 H783 0.959 . S
C798 H784 0.961 . S
C798 C797 1.502 . S
C799 H785 0.960 . S
C799 H786 0.961 . S
C799 H787 0.959 . S
C799 C797 1.561 . S
C800 C797 1.526 . S
C800 C801 1.396 . S
C800 C805 1.390 . S
C801 C795 1.465 . S
C801 C800 1.396 . S
C801 C802 1.399 . S
C802 H788 0.929 . S
C802 C801 1.399 . S
C802 C803 1.385 . S
C803 H789 0.931 . S
C803 C802 1.385 . S
C803 C804 1.389 . S
C804 C803 1.389 . S
C804 C805 1.387 . S
C805 H790 0.930 . S
C805 C800 1.390 . S
C805 C804 1.387 . S
H806 C818 0.930 . S
H807 C820 0.930 . S
H808 C821 0.930 . S
H809 C825 0.959 . S
H810 C825 0.959 . S
H811 C825 0.961 . S
H812 C826 0.960 . S
H813 C826 0.961 . S
H814 C826 0.959 . S
H815 C829 0.929 . S
H816 C830 0.931 . S
H817 C832 0.930 . S
C818 H806 0.930 . S
C818 C819 1.399 . S
C818 C823 1.399 . S
C819 C818 1.399 . S
C819 C820 1.376 . S
C820 H807 0.930 . S
C820 C819 1.376 . S
C820 C821 1.388 . S
C821 H808 0.930 . S
C821 C820 1.388 . S
C821 C822 1.390 . S
C822 C821 1.390 . S
C822 C823 1.394 . S
C822 C828 1.465 . S
C823 C818 1.399 . S
C823 C822 1.394 . S
C823 C824 1.516 . S
C824 C823 1.516 . S
C824 C825 1.502 . S
C824 C826 1.561 . S
C824 C827 1.526 . S
C825 H809 0.959 . S
C825 H810 0.959 . S
C825 H811 0.961 . S
C825 C824 1.502 . S
C826 H812 0.960 . S
C826 H813 0.961 . S
C826 H814 0.959 . S
C826 C824 1.561 . S
C827 C824 1.526 . S
C827 C828 1.396 . S
C827 C832 1.390 . S
C828 C822 1.465 . S
C828 C827 1.396 . S
C828 C829 1.399 . S
C829 H815 0.929 . S
C829 C828 1.399 . S
C829 C830 1.385 . S
C830 H816 0.931 . S
C830 C829 1.385 . S
C830 C831 1.389 . S
C831 C830 1.389 . S
C831 C832 1.387 . S
C832 H817 0.930 . S
C832 C827 1.390 . S
C832 C831 1.387 . S
H833 C845 0.930 . S
H834 C847 0.930 . S
H835 C848 0.930 . S
H836 C852 0.959 . S
H837 C852 0.959 . S
H838 C852 0.961 . S
H839 C853 0.960 . S
H840 C853 0.961 . S
H841 C853 0.959 . S
H842 C856 0.929 . S
H843 C857 0.931 . S
H844 C859 0.930 . S
C845 H833 0.930 . S
C845 C846 1.399 . S
C845 C850 1.399 . S
C846 C845 1.399 . S
C846 C847 1.376 . S
C847 H834 0.930 . S
C847 C846 1.376 . S
C847 C848 1.388 . S
C848 H835 0.930 . S
C848 C847 1.388 . S
C848 C849 1.390 . S
C849 C848 1.390 . S
C849 C850 1.394 . S
C849 C855 1.465 . S
C850 C845 1.399 . S
C850 C849 1.394 . S
C850 C851 1.516 . S
C851 C850 1.516 . S
C851 C852 1.502 . S
C851 C853 1.561 . S
C851 C854 1.526 . S
C852 H836 0.959 . S
C852 H837 0.959 . S
C852 H838 0.961 . S
C852 C851 1.502 . S
C853 H839 0.960 . S
C853 H840 0.961 . S
C853 H841 0.959 . S
C853 C851 1.561 . S
C854 C851 1.526 . S
C854 C855 1.396 . S
C854 C859 1.390 . S
C855 C849 1.465 . S
C855 C854 1.396 . S
C855 C856 1.399 . S
C856 H842 0.929 . S
C856 C855 1.399 . S
C856 C857 1.385 . S
C857 H843 0.931 . S
C857 C856 1.385 . S
C857 C858 1.389 . S
C858 C857 1.389 . S
C858 C859 1.387 . S
C859 H844 0.930 . S
C859 C854 1.390 . S
C859 C858 1.387 . S
H860 C872 0.930 . S
H861 C874 0.930 . S
H862 C875 0.930 . S
H863 C879 0.959 . S
H864 C879 0.959 . S
H865 C879 0.961 . S
H866 C880 0.960 . S
H867 C880 0.961 . S
H868 C880 0.959 . S
H869 C883 0.929 . S
H870 C884 0.931 . S
H871 C886 0.930 . S
C872 H860 0.930 . S
C872 C873 1.399 . S
C872 C877 1.399 . S
C873 C872 1.399 . S
C873 C874 1.376 . S
C874 H861 0.930 . S
C874 C873 1.376 . S
C874 C875 1.388 . S
C875 H862 0.930 . S
C875 C874 1.388 . S
C875 C876 1.390 . S
C876 C875 1.390 . S
C876 C877 1.394 . S
C876 C882 1.465 . S
C877 C872 1.399 . S
C877 C876 1.394 . S
C877 C878 1.516 . S
C878 C877 1.516 . S
C878 C879 1.502 . S
C878 C880 1.561 . S
C878 C881 1.526 . S
C879 H863 0.959 . S
C879 H864 0.959 . S
C879 H865 0.961 . S
C879 C878 1.502 . S
C880 H866 0.960 . S
C880 H867 0.961 . S
C880 H868 0.959 . S
C880 C878 1.561 . S
C881 C878 1.526 . S
C881 C882 1.396 . S
C881 C886 1.390 . S
C882 C876 1.465 . S
C882 C881 1.396 . S
C882 C883 1.399 . S
C883 H869 0.929 . S
C883 C882 1.399 . S
C883 C884 1.385 . S
C884 H870 0.931 . S
C884 C883 1.385 . S
C884 C885 1.389 . S
C885 C884 1.389 . S
C885 C886 1.387 . S
C886 H871 0.930 . S
C886 C881 1.390 . S
C886 C885 1.387 . S
H887 C899 0.930 . S
H888 C901 0.930 . S
H889 C902 0.930 . S
H890 C906 0.959 . S
H891 C906 0.959 . S
H892 C906 0.961 . S
H893 C907 0.960 . S
H894 C907 0.961 . S
H895 C907 0.959 . S
H896 C910 0.929 . S
H897 C911 0.931 . S
H898 C913 0.930 . S
C899 H887 0.930 . S
C899 C900 1.399 . S
C899 C904 1.399 . S
C900 C899 1.399 . S
C900 C901 1.376 . S
C901 H888 0.930 . S
C901 C900 1.376 . S
C901 C902 1.388 . S
C902 H889 0.930 . S
C902 C901 1.388 . S
C902 C903 1.390 . S
C903 C902 1.390 . S
C903 C904 1.394 . S
C903 C909 1.465 . S
C904 C899 1.399 . S
C904 C903 1.394 . S
C904 C905 1.516 . S
C905 C904 1.516 . S
C905 C906 1.502 . S
C905 C907 1.561 . S
C905 C908 1.526 . S
C906 H890 0.959 . S
C906 H891 0.959 . S
C906 H892 0.961 . S
C906 C905 1.502 . S
C907 H893 0.960 . S
C907 H894 0.961 . S
C907 H895 0.959 . S
C907 C905 1.561 . S
C908 C905 1.526 . S
C908 C909 1.396 . S
C908 C913 1.390 . S
C909 C903 1.465 . S
C909 C908 1.396 . S
C909 C910 1.399 . S
C910 H896 0.929 . S
C910 C909 1.399 . S
C910 C911 1.385 . S
C911 H897 0.931 . S
C911 C910 1.385 . S
C911 C912 1.389 . S
C912 C911 1.389 . S
C912 C913 1.387 . S
C913 H898 0.930 . S
C913 C908 1.390 . S
C913 C912 1.387 . S
H914 C926 0.930 . S
H915 C928 0.930 . S
H916 C929 0.930 . S
H917 C933 0.959 . S
H918 C933 0.959 . S
H919 C933 0.961 . S
H920 C934 0.960 . S
H921 C934 0.961 . S
H922 C934 0.959 . S
H923 C937 0.929 . S
H924 C938 0.931 . S
H925 C940 0.930 . S
C926 H914 0.930 . S
C926 C927 1.399 . S
C926 C931 1.399 . S
C927 C926 1.399 . S
C927 C928 1.376 . S
C928 H915 0.930 . S
C928 C927 1.376 . S
C928 C929 1.388 . S
C929 H916 0.930 . S
C929 C928 1.388 . S
C929 C930 1.390 . S
C930 C929 1.390 . S
C930 C931 1.394 . S
C930 C936 1.465 . S
C931 C926 1.399 . S
C931 C930 1.394 . S
C931 C932 1.516 . S
C932 C931 1.516 . S
C932 C933 1.502 . S
C932 C934 1.561 . S
C932 C935 1.526 . S
C933 H917 0.959 . S
C933 H918 0.959 . S
C933 H919 0.961 . S
C933 C932 1.502 . S
C934 H920 0.960 . S
C934 H921 0.961 . S
C934 H922 0.959 . S
C934 C932 1.561 . S
C935 C932 1.526 . S
C935 C936 1.396 . S
C935 C940 1.390 . S
C936 C930 1.465 . S
C936 C935 1.396 . S
C936 C937 1.399 . S
C937 H923 0.929 . S
C937 C936 1.399 . S
C937 C938 1.385 . S
C938 H924 0.931 . S
C938 C937 1.385 . S
C938 C939 1.389 . S
C939 C938 1.389 . S
C939 C940 1.387 . S
C940 H925 0.930 . S
C940 C935 1.390 . S
C940 C939 1.387 . S
H941 C953 0.930 . S
H942 C955 0.930 . S
H943 C956 0.930 . S
H944 C960 0.959 . S
H945 C960 0.959 . S
H946 C960 0.961 . S
H947 C961 0.960 . S
H948 C961 0.961 . S
H949 C961 0.959 . S
H950 C964 0.929 . S
H951 C965 0.931 . S
H952 C967 0.930 . S
C953 H941 0.930 . S
C953 C954 1.399 . S
C953 C958 1.399 . S
C954 C953 1.399 . S
C954 C955 1.376 . S
C955 H942 0.930 . S
C955 C954 1.376 . S
C955 C956 1.388 . S
C956 H943 0.930 . S
C956 C955 1.388 . S
C956 C957 1.390 . S
C957 C956 1.390 . S
C957 C958 1.394 . S
C957 C963 1.465 . S
C958 C953 1.399 . S
C958 C957 1.394 . S
C958 C959 1.516 . S
C959 C958 1.516 . S
C959 C960 1.502 . S
C959 C961 1.561 . S
C959 C962 1.526 . S
C960 H944 0.959 . S
C960 H945 0.959 . S
C960 H946 0.961 . S
C960 C959 1.502 . S
C961 H947 0.960 . S
C961 H948 0.961 . S
C961 H949 0.959 . S
C961 C959 1.561 . S
C962 C959 1.526 . S
C962 C963 1.396 . S
C962 C967 1.390 . S
C963 C957 1.465 . S
C963 C962 1.396 . S
C963 C964 1.399 . S
C964 H950 0.929 . S
C964 C963 1.399 . S
C964 C965 1.385 . S
C965 H951 0.931 . S
C965 C964 1.385 . S
C965 C966 1.389 . S
C966 C965 1.389 . S
C966 C967 1.387 . S
C967 H952 0.930 . S
C967 C962 1.390 . S
C967 C966 1.387 . S
H968 C980 0.930 . S
H969 C982 0.930 . S
H970 C983 0.930 . S
H971 C987 0.959 . S
H972 C987 0.959 . S
H973 C987 0.961 . S
H974 C988 0.960 . S
H975 C988 0.961 . S
H976 C988 0.959 . S
H977 C991 0.929 . S
H978 C992 0.931 . S
H979 C994 0.930 . S
C980 H968 0.930 . S
C980 C981 1.399 . S
C980 C985 1.399 . S
C981 C980 1.399 . S
C981 C982 1.376 . S
C982 H969 0.930 . S
C982 C981 1.376 . S
C982 C983 1.388 . S
C983 H970 0.930 . S
C983 C982 1.388 . S
C983 C984 1.390 . S
C984 C983 1.390 . S
C984 C985 1.394 . S
C984 C990 1.465 . S
C985 C980 1.399 . S
C985 C984 1.394 . S
C985 C986 1.516 . S
C986 C985 1.516 . S
C986 C987 1.502 . S
C986 C988 1.561 . S
C986 C989 1.526 . S
C987 H971 0.959 . S
C987 H972 0.959 . S
C987 H973 0.961 . S
C987 C986 1.502 . S
C988 H974 0.960 . S
C988 H975 0.961 . S
C988 H976 0.959 . S
C988 C986 1.561 . S
C989 C986 1.526 . S
C989 C990 1.396 . S
C989 C994 1.390 . S
C990 C984 1.465 . S
C990 C989 1.396 . S
C990 C991 1.399 . S
C991 H977 0.929 . S
C991 C990 1.399 . S
C991 C992 1.385 . S
C992 H978 0.931 . S
C992 C991 1.385 . S
C992 C993 1.389 . S
C993 C992 1.389 . S
C993 C994 1.387 . S
C994 H979 0.930 . S
C994 C989 1.390 . S
C994 C993 1.387 . S
H995 C1007 0.930 . S
H996 C1009 0.930 . S
H997 C1010 0.930 . S
H998 C1014 0.959 . S
H999 C1014 0.959 . S
H1000 C1014 0.961 . S
H1001 C1015 0.960 . S
H1002 C1015 0.961 . S
H1003 C1015 0.959 . S
H1004 C1018 0.929 . S
H1005 C1019 0.931 . S
H1006 C1021 0.930 . S
C1007 H995 0.930 . S
C1007 C1008 1.399 . S
C1007 C1012 1.399 . S
C1008 C1007 1.399 . S
C1008 C1009 1.376 . S
C1009 H996 0.930 . S
C1009 C1008 1.376 . S
C1009 C1010 1.388 . S
C1010 H997 0.930 . S
C1010 C1009 1.388 . S
C1010 C1011 1.390 . S
C1011 C1010 1.390 . S
C1011 C1012 1.394 . S
C1011 C1017 1.465 . S
C1012 C1007 1.399 . S
C1012 C1011 1.394 . S
C1012 C1013 1.516 . S
C1013 C1012 1.516 . S
C1013 C1014 1.502 . S
C1013 C1015 1.561 . S
C1013 C1016 1.526 . S
C1014 H998 0.959 . S
C1014 H999 0.959 . S
C1014 H1000 0.961 . S
C1014 C1013 1.502 . S
C1015 H1001 0.960 . S
C1015 H1002 0.961 . S
C1015 H1003 0.959 . S
C1015 C1013 1.561 . S
C1016 C1013 1.526 . S
C1016 C1017 1.396 . S
C1016 C1021 1.390 . S
C1017 C1011 1.465 . S
C1017 C1016 1.396 . S
C1017 C1018 1.399 . S
C1018 H1004 0.929 . S
C1018 C1017 1.399 . S
C1018 C1019 1.385 . S
C1019 H1005 0.931 . S
C1019 C1018 1.385 . S
C1019 C1020 1.389 . S
C1020 C1019 1.389 . S
C1020 C1021 1.387 . S
C1021 H1006 0.930 . S
C1021 C1016 1.390 . S
C1021 C1020 1.387 . S
H1022 C1034 0.930 . S
H1023 C1036 0.930 . S
H1024 C1037 0.930 . S
H1025 C1041 0.959 . S
H1026 C1041 0.959 . S
H1027 C1041 0.961 . S
H1028 C1042 0.960 . S
H1029 C1042 0.961 . S
H1030 C1042 0.959 . S
H1031 C1045 0.929 . S
H1032 C1046 0.931 . S
H1033 C1048 0.930 . S
C1034 H1022 0.930 . S
C1034 C1035 1.399 . S
C1034 C1039 1.399 . S
C1035 C1034 1.399 . S
C1035 C1036 1.376 . S
C1036 H1023 0.930 . S
C1036 C1035 1.376 . S
C1036 C1037 1.388 . S
C1037 H1024 0.930 . S
C1037 C1036 1.388 . S
C1037 C1038 1.390 . S
C1038 C1037 1.390 . S
C1038 C1039 1.394 . S
C1038 C1044 1.465 . S
C1039 C1034 1.399 . S
C1039 C1038 1.394 . S
C1039 C1040 1.516 . S
C1040 C1039 1.516 . S
C1040 C1041 1.502 . S
C1040 C1042 1.561 . S
C1040 C1043 1.526 . S
C1041 H1025 0.959 . S
C1041 H1026 0.959 . S
C1041 H1027 0.961 . S
C1041 C1040 1.502 . S
C1042 H1028 0.960 . S
C1042 H1029 0.961 . S
C1042 H1030 0.959 . S
C1042 C1040 1.561 . S
C1043 C1040 1.526 . S
C1043 C1044 1.396 . S
C1043 C1048 1.390 . S
C1044 C1038 1.465 . S
C1044 C1043 1.396 . S
C1044 C1045 1.399 . S
C1045 H1031 0.929 . S
C1045 C1044 1.399 . S
C1045 C1046 1.385 . S
C1046 H1032 0.931 . S
C1046 C1045 1.385 . S
C1046 C1047 1.389 . S
C1047 C1046 1.389 . S
C1047 C1048 1.387 . S
C1048 H1033 0.930 . S
C1048 C1043 1.390 . S
C1048 C1047 1.387 . S
H1049 C1061 0.930 . S
H1050 C1063 0.930 . S
H1051 C1064 0.930 . S
H1052 C1068 0.959 . S
H1053 C1068 0.959 . S
H1054 C1068 0.961 . S
H1055 C1069 0.960 . S
H1056 C1069 0.961 . S
H1057 C1069 0.959 . S
H1058 C1072 0.929 . S
H1059 C1073 0.931 . S
H1060 C1075 0.930 . S
C1061 H1049 0.930 . S
C1061 C1062 1.399 . S
C1061 C1066 1.399 . S
C1062 C1061 1.399 . S
C1062 C1063 1.376 . S
C1063 H1050 0.930 . S
C1063 C1062 1.376 . S
C1063 C1064 1.388 . S
C1064 H1051 0.930 . S
C1064 C1063 1.388 . S
C1064 C1065 1.390 . S
C1065 C1064 1.390 . S
C1065 C1066 1.394 . S
C1065 C1071 1.465 . S
C1066 C1061 1.399 . S
C1066 C1065 1.394 . S
C1066 C1067 1.516 . S
C1067 C1066 1.516 . S
C1067 C1068 1.502 . S
C1067 C1069 1.561 . S
C1067 C1070 1.526 . S
C1068 H1052 0.959 . S
C1068 H1053 0.959 . S
C1068 H1054 0.961 . S
C1068 C1067 1.502 . S
C1069 H1055 0.960 . S
C1069 H1056 0.961 . S
C1069 H1057 0.959 . S
C1069 C1067 1.561 . S
C1070 C1067 1.526 . S
C1070 C1071 1.396 . S
C1070 C1075 1.390 . S
C1071 C1065 1.465 . S
C1071 C1070 1.396 . S
C1071 C1072 1.399 . S
C1072 H1058 0.929 . S
C1072 C1071 1.399 . S
C1072 C1073 1.385 . S
C1073 H1059 0.931 . S
C1073 C1072 1.385 . S
C1073 C1074 1.389 . S
C1074 C1073 1.389 . S
C1074 C1075 1.387 . S
C1075 H1060 0.930 . S
C1075 C1070 1.390 . S
C1075 C1074 1.387 . S
H1076 C1088 0.930 . S
H1077 C1090 0.930 . S
H1078 C1091 0.930 . S
H1079 C1095 0.959 . S
H1080 C1095 0.959 . S
H1081 C1095 0.961 . S
H1082 C1096 0.960 . S
H1083 C1096 0.961 . S
H1084 C1096 0.959 . S
H1085 C1099 0.929 . S
H1086 C1100 0.931 . S
H1087 C1102 0.930 . S
C1088 H1076 0.930 . S
C1088 C1089 1.399 . S
C1088 C1093 1.399 . S
C1089 C1088 1.399 . S
C1089 C1090 1.376 . S
C1090 H1077 0.930 . S
C1090 C1089 1.376 . S
C1090 C1091 1.388 . S
C1091 H1078 0.930 . S
C1091 C1090 1.388 . S
C1091 C1092 1.390 . S
C1092 C1091 1.390 . S
C1092 C1093 1.394 . S
C1092 C1098 1.465 . S
C1093 C1088 1.399 . S
C1093 C1092 1.394 . S
C1093 C1094 1.516 . S
C1094 C1093 1.516 . S
C1094 C1095 1.502 . S
C1094 C1096 1.561 . S
C1094 C1097 1.526 . S
C1095 H1079 0.959 . S
C1095 H1080 0.959 . S
C1095 H1081 0.961 . S
C1095 C1094 1.502 . S
C1096 H1082 0.960 . S
C1096 H1083 0.961 . S
C1096 H1084 0.959 . S
C1096 C1094 1.561 . S
C1097 C1094 1.526 . S
C1097 C1098 1.396 . S
C1097 C1102 1.390 . S
C1098 C1092 1.465 . S
C1098 C1097 1.396 . S
C1098 C1099 1.399 . S
C1099 H1085 0.929 . S
C1099 C1098 1.399 . S
C1099 C1100 1.385 . S
C1100 H1086 0.931 . S
C1100 C1099 1.385 . S
C1100 C1101 1.389 . S
C1101 C1100 1.389 . S
C1101 C1102 1.387 . S
C1102 H1087 0.930 . S
C1102 C1097 1.390 . S
C1102 C1101 1.387 . S
H1103 C1115 0.930 . S
H1104 C1117 0.930 . S
H1105 C1118 0.930 . S
H1106 C1122 0.959 . S
H1107 C1122 0.959 . S
H1108 C1122 0.961 . S
H1109 C1123 0.960 . S
H1110 C1123 0.961 . S
H1111 C1123 0.959 . S
H1112 C1126 0.929 . S
H1113 C1127 0.931 . S
H1114 C1129 0.930 . S
C1115 H1103 0.930 . S
C1115 C1116 1.399 . S
C1115 C1120 1.399 . S
C1116 C1115 1.399 . S
C1116 C1117 1.376 . S
C1117 H1104 0.930 . S
C1117 C1116 1.376 . S
C1117 C1118 1.388 . S
C1118 H1105 0.930 . S
C1118 C1117 1.388 . S
C1118 C1119 1.390 . S
C1119 C1118 1.390 . S
C1119 C1120 1.394 . S
C1119 C1125 1.465 . S
C1120 C1115 1.399 . S
C1120 C1119 1.394 . S
C1120 C1121 1.516 . S
C1121 C1120 1.516 . S
C1121 C1122 1.502 . S
C1121 C1123 1.561 . S
C1121 C1124 1.526 . S
C1122 H1106 0.959 . S
C1122 H1107 0.959 . S
C1122 H1108 0.961 . S
C1122 C1121 1.502 . S
C1123 H1109 0.960 . S
C1123 H1110 0.961 . S
C1123 H1111 0.959 . S
C1123 C1121 1.561 . S
C1124 C1121 1.526 . S
C1124 C1125 1.396 . S
C1124 C1129 1.390 . S
C1125 C1119 1.465 . S
C1125 C1124 1.396 . S
C1125 C1126 1.399 . S
C1126 H1112 0.929 . S
C1126 C1125 1.399 . S
C1126 C1127 1.385 . S
C1127 H1113 0.931 . S
C1127 C1126 1.385 . S
C1127 C1128 1.389 . S
C1128 C1127 1.389 . S
C1128 C1129 1.387 . S
C1129 H1114 0.930 . S
C1129 C1124 1.390 . S
C1129 C1128 1.387 . S
H1130 C1142 0.930 . S
H1131 C1144 0.930 . S
H1132 C1145 0.930 . S
H1133 C1149 0.959 . S
H1134 C1149 0.959 . S
H1135 C1149 0.961 . S
H1136 C1150 0.960 . S
H1137 C1150 0.961 . S
H1138 C1150 0.959 . S
H1139 C1153 0.929 . S
H1140 C1154 0.931 . S
H1141 C1156 0.930 . S
C1142 H1130 0.930 . S
C1142 C1143 1.399 . S
C1142 C1147 1.399 . S
C1143 C1142 1.399 . S
C1143 C1144 1.376 . S
C1144 H1131 0.930 . S
C1144 C1143 1.376 . S
C1144 C1145 1.388 . S
C1145 H1132 0.930 . S
C1145 C1144 1.388 . S
C1145 C1146 1.390 . S
C1146 C1145 1.390 . S
C1146 C1147 1.394 . S
C1146 C1152 1.465 . S
C1147 C1142 1.399 . S
C1147 C1146 1.394 . S
C1147 C1148 1.516 . S
C1148 C1147 1.516 . S
C1148 C1149 1.502 . S
C1148 C1150 1.561 . S
C1148 C1151 1.526 . S
C1149 H1133 0.959 . S
C1149 H1134 0.959 . S
C1149 H1135 0.961 . S
C1149 C1148 1.502 . S
C1150 H1136 0.960 . S
C1150 H1137 0.961 . S
C1150 H1138 0.959 . S
C1150 C1148 1.561 . S
C1151 C1148 1.526 . S
C1151 C1152 1.396 . S
C1151 C1156 1.390 . S
C1152 C1146 1.465 . S
C1152 C1151 1.396 . S
C1152 C1153 1.399 . S
C1153 H1139 0.929 . S
C1153 C1152 1.399 . S
C1153 C1154 1.385 . S
C1154 H1140 0.931 . S
C1154 C1153 1.385 . S
C1154 C1155 1.389 . S
C1155 C1154 1.389 . S
C1155 C1156 1.387 . S
C1156 H1141 0.930 . S
C1156 C1151 1.390 . S
C1156 C1155 1.387 . S
H1157 C1169 0.930 . S
H1158 C1171 0.930 . S
H1159 C1172 0.930 . S
H1160 C1176 0.959 . S
H1161 C1176 0.959 . S
H1162 C1176 0.961 . S
H1163 C1177 0.960 . S
H1164 C1177 0.961 . S
H1165 C1177 0.959 . S
H1166 C1180 0.929 . S
H1167 C1181 0.931 . S
H1168 C1183 0.930 . S
C1169 H1157 0.930 . S
C1169 C1170 1.399 . S
C1169 C1174 1.399 . S
C1170 C1169 1.399 . S
C1170 C1171 1.376 . S
C1171 H1158 0.930 . S
C1171 C1170 1.376 . S
C1171 C1172 1.388 . S
C1172 H1159 0.930 . S
C1172 C1171 1.388 . S
C1172 C1173 1.390 . S
C1173 C1172 1.390 . S
C1173 C1174 1.394 . S
C1173 C1179 1.465 . S
C1174 C1169 1.399 . S
C1174 C1173 1.394 . S
C1174 C1175 1.516 . S
C1175 C1174 1.516 . S
C1175 C1176 1.502 . S
C1175 C1177 1.561 . S
C1175 C1178 1.526 . S
C1176 H1160 0.959 . S
C1176 H1161 0.959 . S
C1176 H1162 0.961 . S
C1176 C1175 1.502 . S
C1177 H1163 0.960 . S
C1177 H1164 0.961 . S
C1177 H1165 0.959 . S
C1177 C1175 1.561 . S
C1178 C1175 1.526 . S
C1178 C1179 1.396 . S
C1178 C1183 1.390 . S
C1179 C1173 1.465 . S
C1179 C1178 1.396 . S
C1179 C1180 1.399 . S
C1180 H1166 0.929 . S
C1180 C1179 1.399 . S
C1180 C1181 1.385 . S
C1181 H1167 0.931 . S
C1181 C1180 1.385 . S
C1181 C1182 1.389 . S
C1182 C1181 1.389 . S
C1182 C1183 1.387 . S
C1183 H1168 0.930 . S
C1183 C1178 1.390 . S
C1183 C1182 1.387 . S
H1184 C1196 0.930 . S
H1185 C1198 0.930 . S
H1186 C1199 0.930 . S
H1187 C1203 0.959 . S
H1188 C1203 0.959 . S
H1189 C1203 0.961 . S
H1190 C1204 0.960 . S
H1191 C1204 0.961 . S
H1192 C1204 0.959 . S
H1193 C1207 0.929 . S
H1194 C1208 0.931 . S
H1195 C1210 0.930 . S
C1196 H1184 0.930 . S
C1196 C1197 1.399 . S
C1196 C1201 1.399 . S
C1197 C1196 1.399 . S
C1197 C1198 1.376 . S
C1198 H1185 0.930 . S
C1198 C1197 1.376 . S
C1198 C1199 1.388 . S
C1199 H1186 0.930 . S
C1199 C1198 1.388 . S
C1199 C1200 1.390 . S
C1200 C1199 1.390 . S
C1200 C1201 1.394 . S
C1200 C1206 1.465 . S
C1201 C1196 1.399 . S
C1201 C1200 1.394 . S
C1201 C1202 1.516 . S
C1202 C1201 1.516 . S
C1202 C1203 1.502 . S
C1202 C1204 1.561 . S
C1202 C1205 1.526 . S
C1203 H1187 0.959 . S
C1203 H1188 0.959 . S
C1203 H1189 0.961 . S
C1203 C1202 1.502 . S
C1204 H1190 0.960 . S
C1204 H1191 0.961 . S
C1204 H1192 0.959 . S
C1204 C1202 1.561 . S
C1205 C1202 1.526 . S
C1205 C1206 1.396 . S
C1205 C1210 1.390 . S
C1206 C1200 1.465 . S
C1206 C1205 1.396 . S
C1206 C1207 1.399 . S
C1207 H1193 0.929 . S
C1207 C1206 1.399 . S
C1207 C1208 1.385 . S
C1208 H1194 0.931 . S
C1208 C1207 1.385 . S
C1208 C1209 1.389 . S
C1209 C1208 1.389 . S
C1209 C1210 1.387 . S
C1210 H1195 0.930 . S
C1210 C1205 1.390 . S
C1210 C1209 1.387 . S
H1211 C1223 0.930 . S
H1212 C1225 0.930 . S
H1213 C1226 0.930 . S
H1214 C1230 0.959 . S
H1215 C1230 0.959 . S
H1216 C1230 0.961 . S
H1217 C1231 0.960 . S
H1218 C1231 0.961 . S
H1219 C1231 0.959 . S
H1220 C1234 0.929 . S
H1221 C1235 0.931 . S
H1222 C1237 0.930 . S
C1223 H1211 0.930 . S
C1223 C1224 1.399 . S
C1223 C1228 1.399 . S
C1224 C1223 1.399 . S
C1224 C1225 1.376 . S
C1225 H1212 0.930 . S
C1225 C1224 1.376 . S
C1225 C1226 1.388 . S
C1226 H1213 0.930 . S
C1226 C1225 1.388 . S
C1226 C1227 1.390 . S
C1227 C1226 1.390 . S
C1227 C1228 1.394 . S
C1227 C1233 1.465 . S
C1228 C1223 1.399 . S
C1228 C1227 1.394 . S
C1228 C1229 1.516 . S
C1229 C1228 1.516 . S
C1229 C1230 1.502 . S
C1229 C1231 1.561 . S
C1229 C1232 1.526 . S
C1230 H1214 0.959 . S
C1230 H1215 0.959 . S
C1230 H1216 0.961 . S
C1230 C1229 1.502 . S
C1231 H1217 0.960 . S
C1231 H1218 0.961 . S
C1231 H1219 0.959 . S
C1231 C1229 1.561 . S
C1232 C1229 1.526 . S
C1232 C1233 1.396 . S
C1232 C1237 1.390 . S
C1233 C1227 1.465 . S
C1233 C1232 1.396 . S
C1233 C1234 1.399 . S
C1234 H1220 0.929 . S
C1234 C1233 1.399 . S
C1234 C1235 1.385 . S
C1235 H1221 0.931 . S
C1235 C1234 1.385 . S
C1235 C1236 1.389 . S
C1236 C1235 1.389 . S
C1236 C1237 1.387 . S
C1237 H1222 0.930 . S
C1237 C1232 1.390 . S
C1237 C1236 1.387 . S
H1238 C1250 0.930 . S
H1239 C1252 0.930 . S
H1240 C1253 0.930 . S
H1241 C1257 0.959 . S
H1242 C1257 0.959 . S
H1243 C1257 0.961 . S
H1244 C1258 0.960 . S
H1245 C1258 0.961 . S
H1246 C1258 0.959 . S
H1247 C1261 0.929 . S
H1248 C1262 0.931 . S
H1249 C1264 0.930 . S
C1250 H1238 0.930 . S
C1250 C1251 1.399 . S
C1250 C1255 1.399 . S
C1251 C1250 1.399 . S
C1251 C1252 1.376 . S
C1252 H1239 0.930 . S
C1252 C1251 1.376 . S
C1252 C1253 1.388 . S
C1253 H1240 0.930 . S
C1253 C1252 1.388 . S
C1253 C1254 1.390 . S
C1254 C1253 1.390 . S
C1254 C1255 1.394 . S
C1254 C1260 1.465 . S
C1255 C1250 1.399 . S
C1255 C1254 1.394 . S
C1255 C1256 1.516 . S
C1256 C1255 1.516 . S
C1256 C1257 1.502 . S
C1256 C1258 1.561 . S
C1256 C1259 1.526 . S
C1257 H1241 0.959 . S
C1257 H1242 0.959 . S
C1257 H1243 0.961 . S
C1257 C1256 1.502 . S
C1258 H1244 0.960 . S
C1258 H1245 0.961 . S
C1258 H1246 0.959 . S
C1258 C1256 1.561 . S
C1259 C1256 1.526 . S
C1259 C1260 1.396 . S
C1259 C1264 1.390 . S
C1260 C1254 1.465 . S
C1260 C1259 1.396 . S
C1260 C1261 1.399 . S
C1261 H1247 0.929 . S
C1261 C1260 1.399 . S
C1261 C1262 1.385 . S
C1262 H1248 0.931 . S
C1262 C1261 1.385 . S
C1262 C1263 1.389 . S
C1263 C1262 1.389 . S
C1263 C1264 1.387 . S
C1264 H1249 0.930 . S
C1264 C1259 1.390 . S
C1264 C1263 1.387 . S
H1265 C1277 0.930 . S
H1266 C1279 0.930 . S
H1267 C1280 0.930 . S
H1268 C1284 0.959 . S
H1269 C1284 0.959 . S
H1270 C1284 0.961 . S
H1271 C1285 0.960 . S
H1272 C1285 0.961 . S
H1273 C1285 0.959 . S
H1274 C1288 0.929 . S
H1275 C1289 0.931 . S
H1276 C1291 0.930 . S
C1277 H1265 0.930 . S
C1277 C1278 1.399 . S
C1277 C1282 1.399 . S
C1278 C1277 1.399 . S
C1278 C1279 1.376 . S
C1279 H1266 0.930 . S
C1279 C1278 1.376 . S
C1279 C1280 1.388 . S
C1280 H1267 0.930 . S
C1280 C1279 1.388 . S
C1280 C1281 1.390 . S
C1281 C1280 1.390 . S
C1281 C1282 1.394 . S
C1281 C1287 1.465 . S
C1282 C1277 1.399 . S
C1282 C1281 1.394 . S
C1282 C1283 1.516 . S
C1283 C1282 1.516 . S
C1283 C1284 1.502 . S
C1283 C1285 1.561 . S
C1283 C1286 1.526 . S
C1284 H1268 0.959 . S
C1284 H1269 0.959 . S
C1284 H1270 0.961 . S
C1284 C1283 1.502 . S
C1285 H1271 0.960 . S
C1285 H1272 0.961 . S
C1285 H1273 0.959 . S
C1285 C1283 1.561 . S
C1286 C1283 1.526 . S
C1286 C1287 1.396 . S
C1286 C1291 1.390 . S
C1287 C1281 1.465 . S
C1287 C1286 1.396 . S
C1287 C1288 1.399 . S
C1288 H1274 0.929 . S
C1288 C1287 1.399 . S
C1288 C1289 1.385 . S
C1289 H1275 0.931 . S
C1289 C1288 1.385 . S
C1289 C1290 1.389 . S
C1290 C1289 1.389 . S
C1290 C1291 1.387 . S
C1291 H1276 0.930 . S
C1291 C1286 1.390 . S
C1291 C1290 1.387 . S
H1292 C1304 0.930 . S
H1293 C1306 0.930 . S
H1294 C1307 0.930 . S
H1295 C1311 0.959 . S
H1296 C1311 0.959 . S
H1297 C1311 0.961 . S
H1298 C1312 0.960 . S
H1299 C1312 0.961 . S
H1300 C1312 0.964 . S
H1301 C1315 0.929 1_556 S
H1302 C1316 0.931 . S
H1303 C1318 0.930 . S
C1304 H1292 0.930 . S
C1304 C1305 1.399 . S
C1304 C1309 1.399 . S
C1305 C1304 1.399 . S
C1305 C1306 1.376 . S
C1306 H1293 0.930 . S
C1306 C1305 1.376 . S
C1306 C1307 1.388 . S
C1307 H1294 0.930 . S
C1307 C1306 1.388 . S
C1307 C1308 1.390 . S
C1308 C1307 1.390 . S
C1308 C1309 1.394 . S
C1308 C1314 1.465 1_556 S
C1309 C1304 1.399 . S
C1309 C1308 1.394 . S
C1309 C1310 1.516 1_556 S
C1310 C1309 1.516 1_554 S
C1310 C1311 1.502 . S
C1310 C1312 1.561 . S
C1310 C1313 1.526 . S
C1311 H1295 0.959 . S
C1311 H1296 0.959 . S
C1311 H1297 0.961 . S
C1311 C1310 1.502 . S
C1312 H1298 0.960 . S
C1312 H1299 0.961 . S
C1312 H1300 0.964 . S
C1312 C1310 1.561 . S
C1313 C1310 1.526 . S
C1313 C1314 1.396 . S
C1313 C1318 1.390 . S
C1314 C1308 1.465 1_554 S
C1314 C1313 1.396 . S
C1314 C1315 1.399 . S
C1315 H1301 0.929 1_554 S
C1315 C1314 1.399 . S
C1315 C1316 1.385 . S
C1316 H1302 0.931 . S
C1316 C1315 1.385 . S
C1316 C1317 1.389 . S
C1317 C1316 1.389 . S
C1317 C1318 1.387 . S
C1318 H1303 0.930 . S
C1318 C1313 1.390 . S
C1318 C1317 1.387 . S
H1319 C1331 0.930 . S
H1320 C1333 0.930 . S
H1321 C1334 0.930 . S
H1322 C1338 0.959 . S
H1323 C1338 0.959 . S
H1324 C1338 0.961 . S
H1325 C1339 0.960 1_554 S
H1326 C1339 0.961 . S
H1327 C1339 0.959 . S
H1328 C1342 0.929 . S
H1329 C1343 0.931 . S
H1330 C1345 0.930 . S
C1331 H1319 0.930 . S
C1331 C1332 1.399 . S
C1331 C1336 1.399 . S
C1332 C1331 1.399 . S
C1332 C1333 1.376 . S
C1333 H1320 0.930 . S
C1333 C1332 1.376 . S
C1333 C1334 1.388 . S
C1334 H1321 0.930 . S
C1334 C1333 1.388 . S
C1334 C1335 1.390 . S
C1335 C1334 1.390 . S
C1335 C1336 1.394 . S
C1335 C1341 1.465 1_554 S
C1336 C1331 1.399 . S
C1336 C1335 1.394 . S
C1336 C1337 1.516 . S
C1337 C1336 1.516 . S
C1337 C1338 1.502 . S
C1337 C1339 1.561 1_554 S
C1337 C1340 1.526 1_554 S
C1338 H1322 0.959 . S
C1338 H1323 0.959 . S
C1338 H1324 0.961 . S
C1338 C1337 1.502 . S
C1339 H1325 0.960 1_556 S
C1339 H1326 0.961 . S
C1339 H1327 0.959 . S
C1339 C1337 1.561 1_556 S
C1340 C1337 1.526 1_556 S
C1340 C1341 1.396 . S
C1340 C1345 1.390 . S
C1341 C1335 1.465 1_556 S
C1341 C1340 1.396 . S
C1341 C1342 1.399 . S
C1342 H1328 0.929 . S
C1342 C1341 1.399 . S
C1342 C1343 1.385 . S
C1343 H1329 0.931 . S
C1343 C1342 1.385 . S
C1343 C1344 1.389 . S
C1344 C1343 1.389 . S
C1344 C1345 1.387 . S
C1345 H1330 0.930 . S
C1345 C1340 1.390 . S
C1345 C1344 1.387 . S
H1346 C1358 0.930 . S
H1347 C1360 0.930 . S
H1348 C1361 0.930 . S
H1349 C1365 0.959 . S
H1350 C1365 0.959 . S
H1351 C1365 0.961 . S
H1352 C1366 0.960 . S
H1353 C1366 0.961 . S
H1354 C1366 0.959 1_554 S
H1355 C1369 0.929 . S
H1356 C1370 0.931 . S
H1357 C1372 0.930 . S
C1358 H1346 0.930 . S
C1358 C1359 1.399 . S
C1358 C1363 1.399 . S
C1359 C1358 1.399 . S
C1359 C1360 1.376 . S
C1360 H1347 0.930 . S
C1360 C1359 1.376 . S
C1360 C1361 1.388 1_556 S
C1361 H1348 0.930 . S
C1361 C1360 1.388 1_554 S
C1361 C1362 1.390 . S
C1362 C1361 1.390 . S
C1362 C1363 1.394 1_554 S
C1362 C1368 1.465 . S
C1363 C1358 1.399 . S
C1363 C1362 1.394 1_556 S
C1363 C1364 1.516 . S
C1364 C1363 1.516 . S
C1364 C1365 1.502 . S
C1364 C1366 1.561 . S
C1364 C1367 1.526 1_556 S
C1365 H1349 0.959 . S
C1365 H1350 0.959 . S
C1365 H1351 0.961 . S
C1365 C1364 1.502 . S
C1366 H1352 0.960 . S
C1366 H1353 0.961 . S
C1366 H1354 0.959 1_556 S
C1366 C1364 1.561 . S
C1367 C1364 1.526 1_554 S
C1367 C1368 1.396 . S
C1367 C1372 1.390 . S
C1368 C1362 1.465 . S
C1368 C1367 1.396 . S
C1368 C1369 1.399 . S
C1369 H1355 0.929 . S
C1369 C1368 1.399 . S
C1369 C1370 1.385 . S
C1370 H1356 0.931 . S
C1370 C1369 1.385 . S
C1370 C1371 1.389 . S
C1371 C1370 1.389 . S
C1371 C1372 1.387 . S
C1372 H1357 0.930 . S
C1372 C1367 1.390 . S
C1372 C1371 1.387 . S
H1373 C1385 0.930 . S
H1374 C1387 0.930 . S
H1375 C1388 0.930 . S
H1376 C1392 0.959 . S
H1377 C1392 0.959 . S
H1378 C1392 0.961 . S
H1379 C1393 0.960 1_554 S
H1380 C1393 0.961 . S
H1381 C1393 0.959 . S
H1382 C1396 0.929 . S
H1383 C1397 0.931 . S
H1384 C1399 0.930 . S
C1385 H1373 0.930 . S
C1385 C1386 1.399 . S
C1385 C1390 1.399 . S
C1386 C1385 1.399 . S
C1386 C1387 1.376 . S
C1387 H1374 0.930 . S
C1387 C1386 1.376 . S
C1387 C1388 1.388 . S
C1388 H1375 0.930 . S
C1388 C1387 1.388 . S
C1388 C1389 1.390 . S
C1389 C1388 1.390 . S
C1389 C1390 1.394 . S
C1389 C1395 1.465 1_554 S
C1390 C1385 1.399 . S
C1390 C1389 1.394 . S
C1390 C1391 1.516 . S
C1391 C1390 1.516 . S
C1391 C1392 1.502 . S
C1391 C1393 1.561 1_554 S
C1391 C1394 1.526 1_554 S
C1392 H1376 0.959 . S
C1392 H1377 0.959 . S
C1392 H1378 0.961 . S
C1392 C1391 1.502 . S
C1393 H1379 0.960 1_556 S
C1393 H1380 0.961 . S
C1393 H1381 0.959 . S
C1393 C1391 1.561 1_556 S
C1394 C1391 1.526 1_556 S
C1394 C1395 1.396 . S
C1394 C1399 1.390 . S
C1395 C1389 1.465 1_556 S
C1395 C1394 1.396 . S
C1395 C1396 1.399 . S
C1396 H1382 0.929 . S
C1396 C1395 1.399 . S
C1396 C1397 1.385 . S
C1397 H1383 0.931 . S
C1397 C1396 1.385 . S
C1397 C1398 1.389 . S
C1398 C1397 1.389 . S
C1398 C1399 1.387 . S
C1399 H1384 0.930 . S
C1399 C1394 1.390 . S
C1399 C1398 1.387 . S
H1400 C1412 0.930 . S
H1401 C1414 0.930 . S
H1402 C1415 0.930 . S
H1403 C1419 0.959 . S
H1404 C1419 0.959 . S
H1405 C1419 0.961 . S
H1406 C1420 0.960 . S
H1407 C1420 0.961 . S
H1408 C1420 0.959 . S
H1409 C1423 0.929 . S
H1410 C1424 0.931 . S
H1411 C1426 0.930 . S
C1412 H1400 0.930 . S
C1412 C1413 1.399 . S
C1412 C1417 1.399 . S
C1413 C1412 1.399 . S
C1413 C1414 1.376 . S
C1414 H1401 0.930 . S
C1414 C1413 1.376 . S
C1414 C1415 1.388 . S
C1415 H1402 0.930 . S
C1415 C1414 1.388 . S
C1415 C1416 1.390 . S
C1416 C1415 1.390 . S
C1416 C1417 1.394 . S
C1416 C1422 1.465 . S
C1417 C1412 1.399 . S
C1417 C1416 1.394 . S
C1417 C1418 1.516 . S
C1418 C1417 1.516 . S
C1418 C1419 1.502 . S
C1418 C1420 1.561 . S
C1418 C1421 1.526 . S
C1419 H1403 0.959 . S
C1419 H1404 0.959 . S
C1419 H1405 0.961 . S
C1419 C1418 1.502 . S
C1420 H1406 0.960 . S
C1420 H1407 0.961 . S
C1420 H1408 0.959 . S
C1420 C1418 1.561 . S
C1421 C1418 1.526 . S
C1421 C1422 1.396 . S
C1421 C1426 1.390 . S
C1422 C1416 1.465 . S
C1422 C1421 1.396 . S
C1422 C1423 1.399 . S
C1423 H1409 0.929 . S
C1423 C1422 1.399 . S
C1423 C1424 1.385 . S
C1424 H1410 0.931 . S
C1424 C1423 1.385 . S
C1424 C1425 1.389 . S
C1425 C1424 1.389 . S
C1425 C1426 1.387 . S
C1426 H1411 0.930 . S
C1426 C1421 1.390 . S
C1426 C1425 1.387 . S
H1427 C1439 0.930 . S
H1428 C1441 0.930 . S
H1429 C1442 0.930 . S
H1430 C1446 0.959 . S
H1431 C1446 0.959 . S
H1432 C1446 0.961 . S
H1433 C1447 0.960 . S
H1434 C1447 0.961 . S
H1435 C1447 0.959 . S
H1436 C1450 0.929 . S
H1437 C1451 0.931 . S
H1438 C1453 0.930 . S
C1439 H1427 0.930 . S
C1439 C1440 1.399 . S
C1439 C1444 1.399 . S
C1440 C1439 1.399 . S
C1440 C1441 1.376 . S
C1441 H1428 0.930 . S
C1441 C1440 1.376 . S
C1441 C1442 1.388 . S
C1442 H1429 0.930 . S
C1442 C1441 1.388 . S
C1442 C1443 1.390 . S
C1443 C1442 1.390 . S
C1443 C1444 1.394 . S
C1443 C1449 1.465 . S
C1444 C1439 1.399 . S
C1444 C1443 1.394 . S
C1444 C1445 1.516 . S
C1445 C1444 1.516 . S
C1445 C1446 1.502 . S
C1445 C1447 1.561 . S
C1445 C1448 1.526 . S
C1446 H1430 0.959 . S
C1446 H1431 0.959 . S
C1446 H1432 0.961 . S
C1446 C1445 1.502 . S
C1447 H1433 0.960 . S
C1447 H1434 0.961 . S
C1447 H1435 0.959 . S
C1447 C1445 1.561 . S
C1448 C1445 1.526 . S
C1448 C1449 1.396 . S
C1448 C1453 1.390 . S
C1449 C1443 1.465 . S
C1449 C1448 1.396 . S
C1449 C1450 1.399 . S
C1450 H1436 0.929 . S
C1450 C1449 1.399 . S
C1450 C1451 1.385 . S
C1451 H1437 0.931 . S
C1451 C1450 1.385 . S
C1451 C1452 1.389 . S
C1452 C1451 1.389 . S
C1452 C1453 1.387 . S
C1453 H1438 0.930 . S
C1453 C1448 1.390 . S
C1453 C1452 1.387 . S
H1454 C1466 0.930 . S
H1455 C1468 0.930 . S
H1456 C1469 0.930 . S
H1457 C1473 0.959 . S
H1458 C1473 0.959 . S
H1459 C1473 0.961 . S
H1460 C1474 0.960 . S
H1461 C1474 0.961 . S
H1462 C1474 0.959 . S
H1463 C1477 0.929 . S
H1464 C1478 0.931 . S
H1465 C1480 0.930 . S
C1466 H1454 0.930 . S
C1466 C1467 1.399 . S
C1466 C1471 1.399 . S
C1467 C1466 1.399 . S
C1467 C1468 1.376 . S
C1468 H1455 0.930 . S
C1468 C1467 1.376 . S
C1468 C1469 1.388 . S
C1469 H1456 0.930 . S
C1469 C1468 1.388 . S
C1469 C1470 1.390 . S
C1470 C1469 1.390 . S
C1470 C1471 1.394 . S
C1470 C1476 1.465 . S
C1471 C1466 1.399 . S
C1471 C1470 1.394 . S
C1471 C1472 1.516 . S
C1472 C1471 1.516 . S
C1472 C1473 1.502 . S
C1472 C1474 1.561 . S
C1472 C1475 1.526 . S
C1473 H1457 0.959 . S
C1473 H1458 0.959 . S
C1473 H1459 0.961 . S
C1473 C1472 1.502 . S
C1474 H1460 0.960 . S
C1474 H1461 0.961 . S
C1474 H1462 0.959 . S
C1474 C1472 1.561 . S
C1475 C1472 1.526 . S
C1475 C1476 1.396 . S
C1475 C1480 1.390 . S
C1476 C1470 1.465 . S
C1476 C1475 1.396 . S
C1476 C1477 1.399 . S
C1477 H1463 0.929 . S
C1477 C1476 1.399 . S
C1477 C1478 1.385 . S
C1478 H1464 0.931 . S
C1478 C1477 1.385 . S
C1478 C1479 1.389 . S
C1479 C1478 1.389 . S
C1479 C1480 1.387 . S
C1480 H1465 0.930 . S
C1480 C1475 1.390 . S
C1480 C1479 1.387 . S
H1481 C1493 0.930 . S
H1482 C1495 0.930 . S
H1483 C1496 0.930 . S
H1484 C1500 0.959 . S
H1485 C1500 0.959 . S
H1486 C1500 0.961 . S
H1487 C1501 0.960 . S
H1488 C1501 0.961 . S
H1489 C1501 0.959 . S
H1490 C1504 0.929 . S
H1491 C1505 0.931 . S
H1492 C1507 0.930 . S
C1493 H1481 0.930 . S
C1493 C1494 1.399 . S
C1493 C1498 1.399 . S
C1494 C1493 1.399 . S
C1494 C1495 1.376 . S
C1495 H1482 0.930 . S
C1495 C1494 1.376 . S
C1495 C1496 1.388 . S
C1496 H1483 0.930 . S
C1496 C1495 1.388 . S
C1496 C1497 1.390 . S
C1497 C1496 1.390 . S
C1497 C1498 1.394 . S
C1497 C1503 1.465 . S
C1498 C1493 1.399 . S
C1498 C1497 1.394 . S
C1498 C1499 1.516 . S
C1499 C1498 1.516 . S
C1499 C1500 1.502 . S
C1499 C1501 1.561 . S
C1499 C1502 1.526 . S
C1500 H1484 0.959 . S
C1500 H1485 0.959 . S
C1500 H1486 0.961 . S
C1500 C1499 1.502 . S
C1501 H1487 0.960 . S
C1501 H1488 0.961 . S
C1501 H1489 0.959 . S
C1501 C1499 1.561 . S
C1502 C1499 1.526 . S
C1502 C1503 1.396 . S
C1502 C1507 1.390 . S
C1503 C1497 1.465 . S
C1503 C1502 1.396 . S
C1503 C1504 1.399 . S
C1504 H1490 0.929 . S
C1504 C1503 1.399 . S
C1504 C1505 1.385 . S
C1505 H1491 0.931 . S
C1505 C1504 1.385 . S
C1505 C1506 1.389 . S
C1506 C1505 1.389 . S
C1506 C1507 1.387 . S
C1507 H1492 0.930 . S
C1507 C1502 1.390 . S
C1507 C1506 1.387 . S
H1508 C1520 0.930 . S
H1509 C1522 0.930 . S
H1510 C1523 0.930 1_554 S
H1511 C1527 0.959 . S
H1512 C1527 0.959 . S
H1513 C1527 0.961 . S
H1514 C1528 0.960 . S
H1515 C1528 0.961 . S
H1516 C1528 0.959 . S
H1517 C1531 0.929 . S
H1518 C1532 0.931 . S
H1519 C1534 0.930 . S
C1520 H1508 0.930 . S
C1520 C1521 1.399 . S
C1520 C1525 1.399 . S
C1521 C1520 1.399 . S
C1521 C1522 1.376 . S
C1522 H1509 0.930 . S
C1522 C1521 1.376 . S
C1522 C1523 1.388 . S
C1523 H1510 0.930 1_556 S
C1523 C1522 1.388 . S
C1523 C1524 1.390 . S
C1524 C1523 1.390 . S
C1524 C1525 1.394 . S
C1524 C1530 1.465 1_556 S
C1525 C1520 1.399 . S
C1525 C1524 1.394 . S
C1525 C1526 1.516 . S
C1526 C1525 1.516 . S
C1526 C1527 1.502 . S
C1526 C1528 1.561 . S
C1526 C1529 1.526 1_556 S
C1527 H1511 0.959 . S
C1527 H1512 0.959 . S
C1527 H1513 0.961 . S
C1527 C1526 1.502 . S
C1528 H1514 0.960 . S
C1528 H1515 0.961 . S
C1528 H1516 0.959 . S
C1528 C1526 1.561 . S
C1529 C1526 1.526 1_554 S
C1529 C1530 1.396 . S
C1529 C1534 1.390 . S
C1530 C1524 1.465 1_554 S
C1530 C1529 1.396 . S
C1530 C1531 1.399 . S
C1531 H1517 0.929 . S
C1531 C1530 1.399 . S
C1531 C1532 1.385 . S
C1532 H1518 0.931 . S
C1532 C1531 1.385 . S
C1532 C1533 1.389 . S
C1533 C1532 1.389 . S
C1533 C1534 1.387 . S
C1534 H1519 0.930 . S
C1534 C1529 1.390 . S
C1534 C1533 1.387 . S
H1535 C1547 0.930 . S
H1536 C1549 0.930 . S
H1537 C1550 0.930 . S
H1538 C1554 0.959 . S
H1539 C1554 0.959 . S
H1540 C1554 0.961 . S
H1541 C1555 0.960 1_556 S
H1542 C1555 0.961 . S
H1543 C1555 0.959 . S
H1544 C1558 0.929 . S
H1545 C1559 0.931 . S
H1546 C1561 0.930 . S
C1547 H1535 0.930 . S
C1547 C1548 1.399 . S
C1547 C1552 1.399 . S
C1548 C1547 1.399 . S
C1548 C1549 1.376 . S
C1549 H1536 0.930 . S
C1549 C1548 1.376 . S
C1549 C1550 1.388 . S
C1550 H1537 0.930 . S
C1550 C1549 1.388 . S
C1550 C1551 1.390 . S
C1551 C1550 1.390 . S
C1551 C1552 1.394 . S
C1551 C1557 1.465 1_556 S
C1552 C1547 1.399 . S
C1552 C1551 1.394 . S
C1552 C1553 1.516 . S
C1553 C1552 1.516 . S
C1553 C1554 1.502 . S
C1553 C1555 1.561 1_556 S
C1553 C1556 1.526 1_556 S
C1554 H1538 0.959 . S
C1554 H1539 0.959 . S
C1554 H1540 0.961 . S
C1554 C1553 1.502 . S
C1555 H1541 0.960 1_554 S
C1555 H1542 0.961 . S
C1555 H1543 0.959 . S
C1555 C1553 1.561 1_554 S
C1556 C1553 1.526 1_554 S
C1556 C1557 1.396 . S
C1556 C1561 1.390 . S
C1557 C1551 1.465 1_554 S
C1557 C1556 1.396 . S
C1557 C1558 1.399 . S
C1558 H1544 0.929 . S
C1558 C1557 1.399 . S
C1558 C1559 1.385 . S
C1559 H1545 0.931 . S
C1559 C1558 1.385 . S
C1559 C1560 1.389 . S
C1560 C1559 1.389 . S
C1560 C1561 1.387 . S
C1561 H1546 0.930 . S
C1561 C1556 1.390 . S
C1561 C1560 1.387 . S
H1562 C1574 0.930 . S
H1563 C1576 0.930 . S
H1564 C1577 0.930 . S
H1565 C1581 0.959 . S
H1566 C1581 0.959 . S
H1567 C1581 0.961 . S
H1568 C1582 0.960 . S
H1569 C1582 0.961 . S
H1570 C1582 0.959 . S
H1571 C1585 0.929 . S
H1572 C1586 0.931 . S
H1573 C1588 0.930 . S
C1574 H1562 0.930 . S
C1574 C1575 1.399 . S
C1574 C1579 1.399 . S
C1575 C1574 1.399 . S
C1575 C1576 1.376 . S
C1576 H1563 0.930 . S
C1576 C1575 1.376 . S
C1576 C1577 1.388 . S
C1577 H1564 0.930 . S
C1577 C1576 1.388 . S
C1577 C1578 1.390 . S
C1578 C1577 1.390 . S
C1578 C1579 1.394 . S
C1578 C1584 1.465 1_554 S
C1579 C1574 1.399 . S
C1579 C1578 1.394 . S
C1579 C1580 1.516 1_554 S
C1580 C1579 1.516 1_556 S
C1580 C1581 1.502 . S
C1580 C1582 1.561 1_556 S
C1580 C1583 1.526 . S
C1581 H1565 0.959 . S
C1581 H1566 0.959 . S
C1581 H1567 0.961 . S
C1581 C1580 1.502 . S
C1582 H1568 0.960 . S
C1582 H1569 0.961 . S
C1582 H1570 0.959 . S
C1582 C1580 1.561 1_554 S
C1583 C1580 1.526 . S
C1583 C1584 1.396 . S
C1583 C1588 1.390 . S
C1584 C1578 1.465 1_556 S
C1584 C1583 1.396 . S
C1584 C1585 1.399 . S
C1585 H1571 0.929 . S
C1585 C1584 1.399 . S
C1585 C1586 1.385 . S
C1586 H1572 0.931 . S
C1586 C1585 1.385 . S
C1586 C1587 1.389 . S
C1587 C1586 1.389 . S
C1587 C1588 1.387 . S
C1588 H1573 0.930 . S
C1588 C1583 1.390 . S
C1588 C1587 1.387 . S
H1589 C1601 0.930 . S
H1590 C1603 0.930 . S
H1591 C1604 0.930 . S
H1592 C1608 0.959 . S
H1593 C1608 0.959 . S
H1594 C1608 0.961 . S
H1595 C1609 0.960 . S
H1596 C1609 0.961 . S
H1597 C1609 0.959 1_554 S
H1598 C1612 0.929 1_554 S
H1599 C1613 0.931 . S
H1600 C1615 0.930 . S
C1601 H1589 0.930 . S
C1601 C1602 1.399 . S
C1601 C1606 1.399 . S
C1602 C1601 1.399 . S
C1602 C1603 1.376 . S
C1603 H1590 0.930 . S
C1603 C1602 1.376 . S
C1603 C1604 1.388 . S
C1604 H1591 0.930 . S
C1604 C1603 1.388 . S
C1604 C1605 1.390 . S
C1605 C1604 1.390 . S
C1605 C1606 1.394 . S
C1605 C1611 1.465 1_554 S
C1606 C1601 1.399 . S
C1606 C1605 1.394 . S
C1606 C1607 1.516 1_554 S
C1607 C1606 1.516 1_556 S
C1607 C1608 1.502 . S
C1607 C1609 1.561 . S
C1607 C1610 1.526 . S
C1608 H1592 0.959 . S
C1608 H1593 0.959 . S
C1608 H1594 0.961 . S
C1608 C1607 1.502 . S
C1609 H1595 0.960 . S
C1609 H1596 0.961 . S
C1609 H1597 0.959 1_556 S
C1609 C1607 1.561 . S
C1610 C1607 1.526 . S
C1610 C1611 1.396 . S
C1610 C1615 1.390 . S
C1611 C1605 1.465 1_556 S
C1611 C1610 1.396 . S
C1611 C1612 1.399 . S
C1612 H1598 0.929 1_556 S
C1612 C1611 1.399 . S
C1612 C1613 1.385 . S
C1613 H1599 0.931 . S
C1613 C1612 1.385 . S
C1613 C1614 1.389 . S
C1614 C1613 1.389 . S
C1614 C1615 1.387 . S
C1615 H1600 0.930 . S
C1615 C1610 1.390 . S
C1615 C1614 1.387 . S
C333 C18 1.895 . S
C345 C118 1.932 . S
C360 C138 1.898 . S
C372 C38 1.955 . S
C387 C58 1.899 . S
C399 C158 1.956 . S
C414 C78 1.901 . S
C426 C98 1.922 . S
C441 C279 1.928 . S
C453 C179 1.895 . S
C468 C299 1.951 . S
C480 C199 1.956 . S
C495 C219 1.961 . S
C507 C319 1.941 . S
C522 C239 1.894 . S
C534 C259 1.923 . S
C549 C9 1.786 . S
C561 C62 1.639 . S
C576 C29 1.799 . S
C588 C2 1.610 . S
C603 C49 1.747 . S
C615 C22 1.665 . S
C630 C69 1.789 . S
C642 C42 1.632 . S
C657 C89 1.799 . S
C669 C102 1.608 . S
C684 C122 1.670 . S
C696 C109 1.766 . S
C711 C129 1.740 . S
C723 C142 1.674 . S
C738 C82 1.604 . S
C750 C149 1.794 . S
C765 C224 1.641 . S
C777 C172 1.742 . S
C792 C192 1.760 . S
C804 C164 1.701 . S
C819 C212 1.753 . S
C831 C184 1.624 . S
C846 C232 1.745 . S
C858 C204 1.708 . S
C873 C252 1.791 . S
C885 C264 1.604 . S
C900 C272 1.786 . S
C912 C284 1.603 . S
C927 C292 1.727 . S
C939 C304 1.696 . S
C954 C312 1.780 . S
C966 C244 1.604 . S
C981 C12 0.569 . S
C993 C52 0.461 . S
C1008 C32 0.586 . S
C1020 C72 0.655 . S
C1035 C132 0.540 . S
C1047 C92 0.474 . S
C1062 C152 0.646 . S
C1074 C112 0.486 . S
C1089 C209 0.456 . S
C1101 C169 0.542 . S
C1116 C229 0.491 . S
C1128 C189 0.606 . S
C1143 C249 0.664 . S
C1155 C289 0.608 . S
C1170 C269 0.663 . S
C1182 C309 0.589 . S
C1197 C4 1.284 . S
C1209 C238 1.286 . S
C1224 C178 1.318 . S
C1236 C24 1.166 . S
C1251 C44 1.254 . S
C1263 C198 1.248 . S
C1278 C218 1.321 . S
C1290 C64 1.171 . S
C1305 C278 1.251 . S
C1317 C84 1.198 . S
C1332 C104 1.276 . S
C1344 C298 1.260 . S
C1359 C318 1.324 . S
C1371 C124 1.240 . S
C1386 C144 1.278 . S
C1398 C258 1.262 . S
C1413 C162 1.227 . S
C1425 C79 1.312 . S
C1440 C182 1.283 . S
C1452 C19 1.266 . S
C1467 C39 1.296 . S
C1479 C202 1.254 . S
C1494 C222 1.283 . S
C1506 C59 1.251 . S
C1521 C242 1.235 . S
C1533 C119 1.254 . S
C1548 C262 1.195 . S
C1560 C139 1.273 . S
C1575 C159 1.260 . S
C1587 C282 1.284 . S
C1602 C99 1.246 . S
C1614 C302 1.274 . S
