# Generated by pormake.
# Topology uow, (4)-cn, num edge types: 1
# Building blocks:
#     Node 0, Type 0, BuildingBlock: ESEHIV_clean_sbu_0, # of connection points: 4
#     Node 1, Type 0, BuildingBlock: ESEHIV_clean_sbu_0, # of connection points: 4
#     Node 2, Type 0, BuildingBlock: ESEHIV_clean_sbu_0, # of connection points: 4
#     Node 3, Type 0, BuildingBlock: ESEHIV_clean_sbu_0, # of connection points: 4
#     Node 4, Type 0, BuildingBlock: ESEHIV_clean_sbu_0, # of connection points: 4
#     Node 5, Type 0, BuildingBlock: ESEHIV_clean_sbu_0, # of connection points: 4
#     Node 6, Type 0, BuildingBlock: ESEHIV_clean_sbu_0, # of connection points: 4
#     Node 7, Type 0, BuildingBlock: ESEHIV_clean_sbu_0, # of connection points: 4
#     Node 8, Type 0, BuildingBlock: ESEHIV_clean_sbu_0, # of connection points: 4
#     Node 9, Type 0, BuildingBlock: ESEHIV_clean_sbu_0, # of connection points: 4
#     Node 10, Type 0, BuildingBlock: ESEHIV_clean_sbu_0, # of connection points: 4
#     Node 11, Type 0, BuildingBlock: ESEHIV_clean_sbu_0, # of connection points: 4
#     Node 12, Type 0, BuildingBlock: ESEHIV_clean_sbu_0, # of connection points: 4
#     Node 13, Type 0, BuildingBlock: ESEHIV_clean_sbu_0, # of connection points: 4
#     Node 14, Type 0, BuildingBlock: ESEHIV_clean_sbu_0, # of connection points: 4
#     Node 15, Type 0, BuildingBlock: ESEHIV_clean_sbu_0, # of connection points: 4
#     Node 16, Type 0, BuildingBlock: ESEHIV_clean_sbu_0, # of connection points: 4
#     Node 17, Type 0, BuildingBlock: ESEHIV_clean_sbu_0, # of connection points: 4
#     Node 18, Type 0, BuildingBlock: ESEHIV_clean_sbu_0, # of connection points: 4
#     Node 19, Type 0, BuildingBlock: ESEHIV_clean_sbu_0, # of connection points: 4
#     Node 20, Type 0, BuildingBlock: ESEHIV_clean_sbu_0, # of connection points: 4
#     Node 21, Type 0, BuildingBlock: ESEHIV_clean_sbu_0, # of connection points: 4
#     Node 22, Type 0, BuildingBlock: ESEHIV_clean_sbu_0, # of connection points: 4
#     Node 23, Type 0, BuildingBlock: ESEHIV_clean_sbu_0, # of connection points: 4
#     Node 24, Type 0, BuildingBlock: ESEHIV_clean_sbu_0, # of connection points: 4
#     Node 25, Type 0, BuildingBlock: ESEHIV_clean_sbu_0, # of connection points: 4
#     Node 26, Type 0, BuildingBlock: ESEHIV_clean_sbu_0, # of connection points: 4
#     Node 27, Type 0, BuildingBlock: ESEHIV_clean_sbu_0, # of connection points: 4
#     Node 28, Type 0, BuildingBlock: ESEHIV_clean_sbu_0, # of connection points: 4
#     Node 29, Type 0, BuildingBlock: ESEHIV_clean_sbu_0, # of connection points: 4
#     Node 30, Type 0, BuildingBlock: ESEHIV_clean_sbu_0, # of connection points: 4
#     Node 31, Type 0, BuildingBlock: ESEHIV_clean_sbu_0, # of connection points: 4
#     Edge 32, Type (0, 0), None
#     Edge 33, Type (0, 0), None
#     Edge 34, Type (0, 0), None
#     Edge 35, Type (0, 0), None
#     Edge 36, Type (0, 0), None
#     Edge 37, Type (0, 0), None
#     Edge 38, Type (0, 0), None
#     Edge 39, Type (0, 0), None
#     Edge 40, Type (0, 0), None
#     Edge 41, Type (0, 0), None
#     Edge 42, Type (0, 0), None
#     Edge 43, Type (0, 0), None
#     Edge 44, Type (0, 0), None
#     Edge 45, Type (0, 0), None
#     Edge 46, Type (0, 0), None
#     Edge 47, Type (0, 0), None
#     Edge 48, Type (0, 0), None
#     Edge 49, Type (0, 0), None
#     Edge 50, Type (0, 0), None
#     Edge 51, Type (0, 0), None
#     Edge 52, Type (0, 0), None
#     Edge 53, Type (0, 0), None
#     Edge 54, Type (0, 0), None
#     Edge 55, Type (0, 0), None
#     Edge 56, Type (0, 0), None
#     Edge 57, Type (0, 0), None
#     Edge 58, Type (0, 0), None
#     Edge 59, Type (0, 0), None
#     Edge 60, Type (0, 0), None
#     Edge 61, Type (0, 0), None
#     Edge 62, Type (0, 0), None
#     Edge 63, Type (0, 0), None
#     Edge 64, Type (0, 0), None
#     Edge 65, Type (0, 0), None
#     Edge 66, Type (0, 0), None
#     Edge 67, Type (0, 0), None
#     Edge 68, Type (0, 0), None
#     Edge 69, Type (0, 0), None
#     Edge 70, Type (0, 0), None
#     Edge 71, Type (0, 0), None
#     Edge 72, Type (0, 0), None
#     Edge 73, Type (0, 0), None
#     Edge 74, Type (0, 0), None
#     Edge 75, Type (0, 0), None
#     Edge 76, Type (0, 0), None
#     Edge 77, Type (0, 0), None
#     Edge 78, Type (0, 0), None
#     Edge 79, Type (0, 0), None
#     Edge 80, Type (0, 0), None
#     Edge 81, Type (0, 0), None
#     Edge 82, Type (0, 0), None
#     Edge 83, Type (0, 0), None
#     Edge 84, Type (0, 0), None
#     Edge 85, Type (0, 0), None
#     Edge 86, Type (0, 0), None
#     Edge 87, Type (0, 0), None
#     Edge 88, Type (0, 0), None
#     Edge 89, Type (0, 0), None
#     Edge 90, Type (0, 0), None
#     Edge 91, Type (0, 0), None
#     Edge 92, Type (0, 0), None
#     Edge 93, Type (0, 0), None
#     Edge 94, Type (0, 0), None
#     Edge 95, Type (0, 0), None
# Relax obj value: 0.093
# Max RMSD: 0.268
# Mean RMSD: 0.229
data_MOF--net-uow--node1-ESEHIV_clean_sbu_0--edge1-none
_symmetry_space_group_name_H-M    P1
_symmetry_Int_Tables_number       1
_symmetry_cell_setting            triclinic
loop_
_symmetry_equiv_pos_as_xyz
'x, y, z'
_cell_length_a     32.203788
_cell_length_b     35.075097
_cell_length_c     21.903821
_cell_angle_alpha  89.999029
_cell_angle_beta   90.001039
_cell_angle_gamma 89.122047
loop_
_atom_site_label
_atom_site_type_symbol
_atom_site_fract_x
_atom_site_fract_y
_atom_site_fract_z
_atom_type_partial_charge
Cu0 Cu 0.07603 0.40586 0.34164 0.0
N1 N 0.09959 0.36618 0.38897 0.0
N2 N 0.10359 0.31396 0.4479 0.0
C3 C 0.07835 0.34043 0.42207 0.0
C4 C 0.14242 0.32368 0.43146 0.0
C5 C 0.13985 0.35601 0.39534 0.0
O6 O 0.02232 0.41706 0.37622 0.0
C7 C 0.09605 0.37172 0.22674 0.0
O8 O 0.1269 0.35484 0.25581 0.0
H9 H 0.04498 0.34037 0.42625 0.0
H10 H 0.16544 0.37052 0.37398 0.0
N11 N 0.10557 0.45127 0.34518 0.0
N12 N 0.1224 0.51023 0.31718 0.0
C13 C 0.11092 0.47543 0.29794 0.0
C14 C 0.11408 0.47162 0.39571 0.0
C15 C 0.12429 0.50822 0.37854 0.0
C16 C -0.00689 0.39316 0.37511 0.0
O17 O -0.00296 0.36226 0.34148 0.0
H18 H 0.10248 0.46884 0.25133 0.0
H19 H 0.10961 0.46156 0.44189 0.0
O20 O 0.07022 0.39245 0.25624 0.0
H21 H 0.17055 0.30809 0.44341 0.0
H22 H 0.13007 0.53201 0.40868 0.0
Cu23 Cu 0.84497 0.84596 0.59454 0.0
N24 N 0.87261 0.85475 0.52105 0.0
N25 N 0.88618 0.87431 0.42637 0.0
C26 C 0.85997 0.87694 0.47425 0.0
C27 C 0.91698 0.85027 0.44397 0.0
C28 C 0.9083 0.83799 0.5023 0.0
O29 O 0.78721 0.8643 0.58869 0.0
C30 C 0.91218 0.85949 0.6759 0.0
O31 O 0.92937 0.83041 0.64728 0.0
H32 H 0.83176 0.89414 0.47483 0.0
H33 H 0.92613 0.81738 0.52848 0.0
N34 N 0.84366 0.79332 0.60741 0.0
N35 N 0.85435 0.73572 0.64731 0.0
C36 C 0.85905 0.77346 0.65513 0.0
C37 C 0.82875 0.76696 0.56861 0.0
C38 C 0.83522 0.73121 0.5933 0.0
C39 C 0.76486 0.85614 0.54247 0.0
O40 O 0.78125 0.83657 0.49721 0.0
H41 H 0.87392 0.78616 0.69427 0.0
H42 H 0.81547 0.77308 0.52436 0.0
O43 O 0.87575 0.87085 0.66065 0.0
H44 H 0.943 0.84115 0.41594 0.0
H45 H 0.82849 0.70416 0.57202 0.0
Cu46 Cu 0.40852 0.65311 0.84162 0.0
N47 N 0.38497 0.69279 0.88895 0.0
N48 N 0.38097 0.74501 0.94788 0.0
C49 C 0.4062 0.71854 0.92206 0.0
C50 C 0.34213 0.73528 0.93144 0.0
C51 C 0.3447 0.70296 0.89532 0.0
O52 O 0.46223 0.64191 0.87621 0.0
C53 C 0.38851 0.68725 0.72672 0.0
O54 O 0.35766 0.70414 0.75579 0.0
H55 H 0.43958 0.7186 0.92623 0.0
H56 H 0.31911 0.68845 0.87396 0.0
N57 N 0.37898 0.6077 0.84516 0.0
N58 N 0.36215 0.54874 0.81716 0.0
C59 C 0.37364 0.58354 0.79792 0.0
C60 C 0.37047 0.58734 0.89569 0.0
C61 C 0.36026 0.55074 0.87852 0.0
C62 C 0.49144 0.6658 0.87511 0.0
O63 O 0.48752 0.6967 0.84147 0.0
H64 H 0.38208 0.59013 0.75131 0.0
H65 H 0.37494 0.59741 0.94187 0.0
O66 O 0.41434 0.66652 0.75623 0.0
H67 H 0.314 0.75088 0.94338 0.0
H68 H 0.35448 0.52695 0.90865 0.0
Cu69 Cu 0.63958 0.21301 0.09454 0.0
N70 N 0.61194 0.20422 1.02105 0.0
N71 N 0.59837 0.18465 0.92638 0.0
C72 C 0.62458 0.18202 0.97425 0.0
C73 C 0.56757 0.2087 0.94396 0.0
C74 C 0.57625 0.22099 1.00229 0.0
O75 O 0.69734 0.19467 0.0887 0.0
C76 C 0.57237 0.19948 0.1759 0.0
O77 O 0.55518 0.22856 0.14728 0.0
H78 H 0.65279 0.16483 0.97484 0.0
H79 H 0.55843 0.24159 1.02848 0.0
N80 N 0.64089 0.26565 0.10741 0.0
N81 N 0.6302 0.32325 0.14731 0.0
C82 C 0.6255 0.2855 0.15513 0.0
C83 C 0.65581 0.29201 0.06862 0.0
C84 C 0.64933 0.32775 0.0933 0.0
C85 C 0.71969 0.20283 1.04247 0.0
O86 O 0.7033 0.22239 0.99721 0.0
H87 H 0.61063 0.27281 0.19426 0.0
H88 H 0.66908 0.28589 1.02437 0.0
O89 O 0.6088 0.18812 0.16066 0.0
H90 H 0.54155 0.21782 0.91593 0.0
H91 H 0.65607 0.35481 0.07203 0.0
Cu92 Cu 0.08085 0.65106 0.24874 0.0
N93 N 0.1074 0.68702 0.19905 0.0
N94 N 0.11132 0.73875 0.13925 0.0
C95 C 0.08929 0.70758 0.15379 0.0
C96 C 0.14549 0.73698 0.17493 0.0
C97 C 0.14284 0.70521 0.21195 0.0
O98 O 0.02619 0.64397 0.21571 0.0
C99 C 0.10339 0.66832 0.37063 0.0
O100 O 0.13783 0.64947 0.35752 0.0
H101 H 0.05902 0.70157 0.1351 0.0
H102 H 0.16354 0.69769 0.24909 0.0
N103 N 0.10753 0.6031 0.25099 0.0
N104 N 0.12273 0.54382 0.28173 0.0
C105 C 0.10672 0.5781 0.29784 0.0
C106 C 0.12431 0.5836 0.20375 0.0
C107 C 0.13354 0.54677 0.22256 0.0
C108 C 0.00102 0.67202 0.2102 0.0
O109 O 0.01073 0.70526 0.23347 0.0
H110 H 0.09222 0.58409 0.34143 0.0
H111 H 0.12752 0.5948 0.158 0.0
O112 O 0.07528 0.67205 0.33019 0.0
H113 H 0.1692 0.75851 0.17725 0.0
H114 H 0.14582 0.52374 0.19471 0.0
Cu115 Cu 0.63805 0.84146 0.49722 0.0
N116 N 0.61107 0.859 0.56769 0.0
N117 N 0.59365 0.86983 0.66487 0.0
C118 C 0.6196 0.85091 0.6266 0.0
C119 C 0.56728 0.88984 0.62885 0.0
C120 C 0.57822 0.8832 0.569 0.0
O121 O 0.69794 0.84999 0.49916 0.0
C122 C 0.57355 0.85673 0.4132 0.0
O123 O 0.55416 0.83177 0.44712 0.0
H124 H 0.64492 0.83235 0.64108 0.0
H125 H 0.56365 0.89577 0.52918 0.0
N126 N 0.63296 0.78871 0.49219 0.0
N127 N 0.62118 0.73072 0.45587 0.0
C128 C 0.61851 0.7684 0.44484 0.0
C129 C 0.64563 0.7628 0.53398 0.0
C130 C 0.63827 0.72671 0.51162 0.0
C131 C 0.71971 0.86341 0.54261 0.0
O132 O 0.7017 0.87855 0.59072 0.0
H133 H 0.60682 0.78077 0.40291 0.0
H134 H 0.65939 0.76973 0.57755 0.0
O135 O 0.61086 0.86536 0.4264 0.0
H136 H 0.54282 0.90895 0.64464 0.0
H137 H 0.64411 0.69991 0.53478 0.0
Cu138 Cu 0.4037 0.40792 0.74872 0.0
N139 N 0.37715 0.37195 0.69903 0.0
N140 N 0.37323 0.32022 0.63923 0.0
C141 C 0.39527 0.35139 0.65378 0.0
C142 C 0.33906 0.32199 0.67491 0.0
C143 C 0.34171 0.35376 0.71193 0.0
O144 O 0.45836 0.415 0.71569 0.0
C145 C 0.38116 0.39065 0.8706 0.0
O146 O 0.34672 0.40949 0.85749 0.0
H147 H 0.42553 0.3574 0.63508 0.0
H148 H 0.32101 0.36128 0.74906 0.0
N149 N 0.37702 0.45587 0.75096 0.0
N150 N 0.36182 0.51515 0.78171 0.0
C151 C 0.37783 0.48087 0.79781 0.0
C152 C 0.36025 0.47537 0.70372 0.0
C153 C 0.35102 0.51221 0.72253 0.0
C154 C 0.48353 0.38696 0.71018 0.0
O155 O 0.47382 0.35371 0.73346 0.0
H156 H 0.39233 0.47487 0.84141 0.0
H157 H 0.35704 0.46418 0.65797 0.0
O158 O 0.40927 0.38692 0.83017 0.0
H159 H 0.31535 0.30046 0.67722 0.0
H160 H 0.33873 0.53523 0.69468 0.0
Cu161 Cu 0.84649 0.2175 0.99723 0.0
N162 N 0.87348 0.19997 0.0677 0.0
N163 N 0.8909 0.18914 0.16488 0.0
C164 C 0.86495 0.20806 0.12661 0.0
C165 C 0.91727 0.16913 0.12886 0.0
C166 C 0.90633 0.17577 0.06901 0.0
O167 O 0.7866 0.20897 0.99916 0.0
C168 C 0.911 0.20223 0.91321 0.0
O169 O 0.93039 0.22719 0.94713 0.0
H170 H 0.83963 0.22662 0.14108 0.0
H171 H 0.92089 0.1632 1.02919 0.0
N172 N 0.85159 0.27026 0.99219 0.0
N173 N 0.86336 0.32824 0.95587 0.0
C174 C 0.86604 0.29057 0.94485 0.0
C175 C 0.83891 0.29617 1.03397 0.0
C176 C 0.84627 0.33226 1.01161 0.0
C177 C 0.76483 0.19556 1.04261 0.0
O178 O 0.78284 0.18042 0.09073 0.0
H179 H 0.87773 0.2782 0.90291 0.0
H180 H 0.82515 0.28924 0.07754 0.0
O181 O 0.87369 0.19361 0.92641 0.0
H182 H 0.94173 0.15001 0.14465 0.0
H183 H 0.84042 0.35906 1.03477 0.0
Cu184 Cu 0.96847 0.66241 0.7777 0.0
N185 N 0.91887 0.67451 0.73825 0.0
N186 N 0.87218 0.70663 0.68335 0.0
C187 C 0.90828 0.7085 0.71401 0.0
C188 C 0.85951 0.67034 0.68758 0.0
C189 C 0.88845 0.65051 0.72215 0.0
O190 O 0.01161 0.69111 0.73571 0.0
C191 C 0.93435 0.69565 0.88781 0.0
O192 O 0.90783 0.7131 0.85149 0.0
H193 H 0.92752 0.7335 0.71643 0.0
H194 H 0.88815 0.62043 0.73297 0.0
N195 N 0.97807 0.61034 0.76489 0.0
N196 N 0.98416 0.54757 0.77823 0.0
C197 C 0.98044 0.58184 0.80602 0.0
C198 C 0.98041 0.59339 0.70973 0.0
C199 C 0.98414 0.55451 0.71778 0.0
C200 C 0.04761 0.67843 0.72103 0.0
O201 O 0.06037 0.64484 0.74046 0.0
H202 H 0.97817 0.58606 0.85484 0.0
H203 H 0.9786 0.60835 0.66661 0.0
O204 O 0.96291 0.67411 0.86531 0.0
H205 H 0.83205 0.65897 0.66621 0.0
H206 H 0.98626 0.53316 0.68222 0.0
Cu207 Cu 0.10955 0.20648 0.52814 0.0
N208 N 0.07099 0.17938 0.4832 0.0
N209 N 0.02276 0.16245 0.41617 0.0
C210 C 0.0491 0.18997 0.43352 0.0
C211 C 0.02913 0.13319 0.4552 0.0
C212 C 0.05927 0.14361 0.49608 0.0
O213 O 0.11894 0.25755 0.4955 0.0
C214 C 0.06033 0.19647 0.63788 0.0
O215 O 0.02843 0.19187 0.60146 0.0
H216 H 0.05097 0.21777 0.41237 0.0
H217 H 0.07096 0.12683 0.53398 0.0
N218 N 0.15965 0.18124 0.51557 0.0
N219 N 0.22562 0.16381 0.52704 0.0
C220 C 0.19107 0.17671 0.55534 0.0
C221 C 0.17492 0.17079 0.46068 0.0
C222 C 0.21605 0.16033 0.46754 0.0
C223 C 0.09183 0.28233 0.47937 0.0
O224 O 0.05232 0.27588 0.48951 0.0
H225 H 0.18975 0.18587 0.6025 0.0
H226 H 0.15807 0.17327 0.4181 0.0
O227 O 0.09581 0.20466 0.61563 0.0
H228 H 0.01218 0.10676 0.45549 0.0
H229 H 0.23778 0.15294 0.43159 0.0
Cu230 Cu 0.51609 0.39656 0.27769 0.0
N231 N 0.56568 0.38446 0.23824 0.0
N232 N 0.61238 0.35233 0.18335 0.0
C233 C 0.57627 0.35046 0.214 0.0
C234 C 0.62504 0.38863 0.18758 0.0
C235 C 0.59611 0.40845 0.22215 0.0
O236 O 0.47295 0.36786 0.23571 0.0
C237 C 0.55021 0.36332 0.3878 0.0
O238 O 0.57672 0.34588 0.35149 0.0
H239 H 0.55704 0.32547 0.21643 0.0
H240 H 0.59641 0.43854 0.23297 0.0
N241 N 0.50649 0.44863 0.26488 0.0
N242 N 0.50039 0.51141 0.27821 0.0
C243 C 0.50411 0.47713 0.30601 0.0
C244 C 0.50415 0.46558 0.20972 0.0
C245 C 0.50042 0.50446 0.21777 0.0
C246 C 0.43694 0.38054 0.22102 0.0
O247 O 0.42419 0.41413 0.24044 0.0
H248 H 0.50637 0.47291 0.35483 0.0
H249 H 0.50597 0.45062 0.1666 0.0
O250 O 0.52164 0.38486 0.3653 0.0
H251 H 0.6525 0.4 0.16621 0.0
H252 H 0.49831 0.52581 0.18221 0.0
Cu253 Cu 0.375 0.85249 1.02812 0.0
N254 N 0.41355 0.87959 0.98318 0.0
N255 N 0.46178 0.89652 0.91615 0.0
C256 C 0.43545 0.869 0.9335 0.0
C257 C 0.45541 0.92578 0.95518 0.0
C258 C 0.42527 0.91536 0.99606 0.0
O259 O 0.36561 0.80141 0.99548 0.0
C260 C 0.42422 0.8625 0.13785 0.0
O261 O 0.45612 0.86711 0.10144 0.0
H262 H 0.43358 0.8412 0.91235 0.0
H263 H 0.41358 0.93214 1.03395 0.0
N264 N 0.3249 0.87772 1.01555 0.0
N265 N 0.25893 0.89515 1.02702 0.0
C266 C 0.29348 0.88226 0.05532 0.0
C267 C 0.30963 0.88817 0.96066 0.0
C268 C 0.26849 0.89864 0.96753 0.0
C269 C 0.39272 0.77664 0.97935 0.0
O270 O 0.43223 0.78308 0.98949 0.0
H271 H 0.29481 0.8731 0.10249 0.0
H272 H 0.32647 0.88569 0.91808 0.0
O273 O 0.38874 0.85431 0.11561 0.0
H274 H 0.47237 0.95221 0.95546 0.0
H275 H 0.24676 0.90602 0.93158 0.0
Cu276 Cu 0.96991 0.39712 0.81223 0.0
N277 N 0.92192 0.38778 0.85664 0.0
N278 N 0.8791 0.35731 0.91858 0.0
C279 C 0.91149 0.35385 0.8801 0.0
C280 C 0.86856 0.39459 0.91994 0.0
C281 C 0.89512 0.41344 0.88114 0.0
O282 O 0.013 0.36722 0.85387 0.0
C283 C 0.9286 0.3698 0.70398 0.0
O284 O 0.89634 0.36545 0.73977 0.0
H285 H 0.92892 0.32769 0.87212 0.0
H286 H 0.89622 0.4439 0.87374 0.0
N287 N 0.98128 0.44888 0.82154 0.0
N288 N 0.98584 0.51148 0.80661 0.0
C289 C 0.97898 0.47731 0.78025 0.0
C290 C 0.98983 0.46578 0.87526 0.0
C291 C -0.00734 0.50452 0.86624 0.0
C292 C 0.04998 0.3774 0.86565 0.0
O293 O 0.06446 0.40898 0.84222 0.0
H294 H 0.97109 0.47317 0.73272 0.0
H295 H -0.00723 0.4509 0.91835 0.0
O296 O 0.96246 0.38266 0.72591 0.0
H297 H 0.8445 0.40729 0.94818 0.0
H298 H -0.00125 0.5258 0.90072 0.0
Cu299 Cu 0.37808 0.21156 0.56247 0.0
N300 N 0.41667 0.18463 0.60905 0.0
N301 N 0.46744 0.16886 0.67344 0.0
C302 C 0.44376 0.19757 0.65062 0.0
C303 C 0.45437 0.13678 0.64606 0.0
C304 C 0.4227 0.1466 0.60678 0.0
O305 O 0.364 0.2605 0.6006 0.0
C306 C 0.42819 0.19796 0.45451 0.0
O307 O 0.45432 0.18008 0.49089 0.0
H308 H 0.44717 0.22742 0.6619 0.0
H309 H 0.40584 0.12754 0.57729 0.0
N310 N 0.32984 0.18372 0.56809 0.0
N311 N 0.26578 0.16387 0.55184 0.0
C312 C 0.29889 0.18111 0.52724 0.0
C313 C 0.3157 0.16757 0.61976 0.0
C314 C 0.27577 0.15553 0.60998 0.0
C315 C 0.38588 0.29036 0.60348 0.0
O316 O 0.42211 0.29086 0.57588 0.0
H317 H 0.29929 0.19435 0.48261 0.0
H318 H 0.33235 0.16691 0.66264 0.0
O319 O 0.39565 0.21427 0.47646 0.0
H320 H 0.46742 0.10845 0.65288 0.0
H321 H 0.25494 0.14367 0.64353 0.0
Cu322 Cu 0.51464 0.66185 0.31222 0.0
N323 N 0.56262 0.67119 0.35664 0.0
N324 N 0.60544 0.70166 0.41858 0.0
C325 C 0.57305 0.70512 0.38009 0.0
C326 C 0.61598 0.66437 0.41994 0.0
C327 C 0.58941 0.64553 0.38115 0.0
O328 O 0.47155 0.69175 0.35386 0.0
C329 C 0.55595 0.68916 0.20398 0.0
O330 O 0.58821 0.6935 0.23976 0.0
H331 H 0.55562 0.73128 0.37211 0.0
H332 H 0.58832 0.61507 0.37375 0.0
N333 N 0.50326 0.61009 0.32153 0.0
N334 N 0.4987 0.54749 0.3066 0.0
C335 C 0.50557 0.58166 0.28024 0.0
C336 C 0.49471 0.59318 0.37525 0.0
C337 C 0.49187 0.55445 0.36622 0.0
C338 C 0.43456 0.68157 0.36564 0.0
O339 O 0.42008 0.64999 0.34221 0.0
H340 H 0.51347 0.5858 0.23271 0.0
H341 H 0.49176 0.60806 0.41833 0.0
O342 O 0.52209 0.67631 0.22591 0.0
H343 H 0.64004 0.65168 0.4482 0.0
H344 H 0.48579 0.53316 0.40071 0.0
Cu345 Cu 0.10647 0.84741 0.06248 0.0
N346 N 0.06788 0.87434 0.10907 0.0
N347 N 0.01711 0.89011 0.17345 0.0
C348 C 0.0408 0.8614 0.15063 0.0
C349 C 0.03019 0.92219 0.14607 0.0
C350 C 0.06185 0.91237 0.10679 0.0
O351 O 0.12055 0.79848 0.10062 0.0
C352 C 0.05636 0.86101 0.95452 0.0
O353 O 0.03023 0.87889 0.9909 0.0
H354 H 0.03738 0.83155 0.16191 0.0
H355 H 0.07872 0.93143 0.0773 0.0
N356 N 0.15471 0.87525 0.06809 0.0
N357 N 0.21878 0.8951 0.05183 0.0
C358 C 0.18565 0.87786 1.02724 0.0
C359 C 0.16886 0.8914 0.11976 0.0
C360 C 0.20878 0.90344 0.10998 0.0
C361 C 0.09867 0.76862 0.1035 0.0
O362 O 0.06244 0.7681 0.07589 0.0
H363 H 0.18526 0.86462 0.98261 0.0
H364 H 0.15221 0.89206 0.16264 0.0
O365 O 0.0889 0.8447 0.97647 0.0
H366 H 0.01713 0.95052 0.15289 0.0
H367 H 0.22962 0.9153 0.14351 0.0
Cu368 Cu 0.57601 0.90587 0.84161 0.0
N369 N 0.59957 0.86619 0.88894 0.0
N370 N 0.60357 0.81397 0.94789 0.0
C371 C 0.57834 0.84044 0.92206 0.0
C372 C 0.64241 0.8237 0.93143 0.0
C373 C 0.63983 0.85602 0.89531 0.0
O374 O 0.5223 0.91707 0.87618 0.0
C375 C 0.59602 0.87171 0.72672 0.0
O376 O 0.62686 0.85481 0.75579 0.0
H377 H 0.54496 0.84038 0.92624 0.0
H378 H 0.66542 0.87053 0.87394 0.0
N379 N 0.60555 0.95128 0.84516 0.0
N380 N 0.62238 1.01025 0.81717 0.0
C381 C 0.61089 0.97544 0.79792 0.0
C382 C 0.61406 0.97163 0.89569 0.0
C383 C 0.62426 1.00823 0.87853 0.0
C384 C 0.49308 0.89317 0.87506 0.0
O385 O 0.49702 0.86226 0.84145 0.0
H386 H 0.60245 0.96886 0.7513 0.0
H387 H 0.60959 0.96156 0.94186 0.0
O388 O 0.5702 0.89246 0.75621 0.0
H389 H 0.67054 0.8081 0.94338 0.0
H390 H 0.63005 0.03202 0.90867 0.0
Cu391 Cu 0.34498 0.34598 0.0945 0.0
N392 N 0.37261 0.35476 1.02101 0.0
N393 N 0.38616 0.37431 0.92632 0.0
C394 C 0.35995 0.37694 0.9742 0.0
C395 C 0.41699 0.3503 0.94394 0.0
C396 C 0.40832 0.33803 1.00228 0.0
O397 O 0.28721 0.36431 0.08866 0.0
C398 C 0.41218 0.3595 0.17588 0.0
O399 O 0.42937 0.33041 0.14729 0.0
H400 H 0.33173 0.39411 0.97477 0.0
H401 H 0.42617 0.31745 1.02848 0.0
N402 N 0.34368 0.29333 0.10737 0.0
N403 N 0.35436 0.23574 0.1473 0.0
C404 C 0.35903 0.27348 0.15513 0.0
C405 C 0.3288 0.26697 0.06855 0.0
C406 C 0.33527 0.23122 0.09325 0.0
C407 C 0.26486 0.35613 1.04245 0.0
O408 O 0.28124 0.33654 0.99721 0.0
H409 H 0.37387 0.28618 0.19428 0.0
H410 H 0.31557 0.27309 1.02428 0.0
O411 O 0.37575 0.37087 0.16061 0.0
H412 H 0.44302 0.34121 0.91592 0.0
H413 H 0.32857 0.20416 0.07196 0.0
Cu414 Cu 0.90854 0.1531 0.34162 0.0
N415 N 0.88498 0.19278 0.38895 0.0
N416 N 0.88097 0.245 0.44789 0.0
C417 C 0.90621 0.21853 0.42207 0.0
C418 C 0.84214 0.23527 0.43143 0.0
C419 C 0.84471 0.20295 0.39531 0.0
O420 O 0.96225 0.1419 0.3762 0.0
C421 C 0.88853 0.18726 0.22672 0.0
O422 O 0.85769 0.20416 0.25579 0.0
H423 H 0.93959 0.21858 0.42626 0.0
H424 H 0.81912 0.18844 0.37394 0.0
N425 N 0.879 0.10769 0.34516 0.0
N426 N 0.86217 0.04872 0.31717 0.0
C427 C 0.87366 0.08353 0.29793 0.0
C428 C 0.87049 0.08733 0.39569 0.0
C429 C 0.86029 0.05073 0.37853 0.0
C430 C 0.99146 0.1658 0.37508 0.0
O431 O 0.98753 0.1967 0.34147 0.0
H432 H 0.8821 0.09011 0.25131 0.0
H433 H 0.87496 0.0974 0.44187 0.0
O434 O 0.91435 0.16652 0.25623 0.0
H435 H 0.81401 0.25087 0.44337 0.0
H436 H 0.8545 1.02694 0.40867 0.0
Cu437 Cu 0.13958 0.713 0.59452 0.0
N438 N 0.11194 0.70422 0.52103 0.0
N439 N 0.09839 0.68466 0.42634 0.0
C440 C 0.1246 0.68203 0.47422 0.0
C441 C 0.06757 0.70868 0.44395 0.0
C442 C 0.07624 0.72096 0.50228 0.0
O443 O 0.19734 0.69467 0.58867 0.0
C444 C 0.07238 0.69947 0.67588 0.0
O445 O 0.05518 0.72856 0.64729 0.0
H446 H 0.15282 0.66485 0.4748 0.0
H447 H 0.05839 0.74155 0.52848 0.0
N448 N 0.14088 0.76565 0.6074 0.0
N449 N 0.13019 0.82324 0.64732 0.0
C450 C 0.12551 0.78549 0.65514 0.0
C451 C 0.15577 0.79201 0.56859 0.0
C452 C 0.1493 0.82775 0.59328 0.0
C453 C 0.21969 0.70284 0.54246 0.0
O454 O 0.2033 0.72243 0.49721 0.0
H455 H 0.11066 0.77279 0.69428 0.0
H456 H 0.16902 0.78589 0.52432 0.0
O457 O 0.1088 0.68811 0.66063 0.0
H458 H 0.04154 0.71778 0.41593 0.0
H459 H 0.15601 0.85481 0.572 0.0
Cu460 Cu 0.58084 0.15108 0.74876 0.0
N461 N 0.60737 0.18704 0.69905 0.0
N462 N 0.6113 0.23876 0.63925 0.0
C463 C 0.58925 0.20761 0.65381 0.0
C464 C 0.64548 0.23699 0.6749 0.0
C465 C 0.64283 0.20522 0.71193 0.0
O466 O 0.52617 0.14399 0.71574 0.0
C467 C 0.60338 0.16832 0.87065 0.0
O468 O 0.63781 0.14946 0.85756 0.0
H469 H 0.55898 0.2016 0.63514 0.0
H470 H 0.66353 0.1977 0.74905 0.0
N471 N 0.60751 0.10312 0.75099 0.0
N472 N 0.62271 0.04384 0.78172 0.0
C473 C 0.60669 0.07811 0.79783 0.0
C474 C 0.62429 0.08363 0.70375 0.0
C475 C 0.63352 0.04679 0.72255 0.0
C476 C 0.50099 0.17203 0.71025 0.0
O477 O 0.5107 0.20528 0.73352 0.0
H478 H 0.59219 0.08411 0.84143 0.0
H479 H 0.62751 0.09483 0.65801 0.0
O480 O 0.57527 0.17207 0.83021 0.0
H481 H 0.6692 0.25851 0.67719 0.0
H482 H 0.64581 1.02377 0.6947 0.0
Cu483 Cu 0.13805 0.34145 0.99724 0.0
N484 N 0.11107 0.35898 0.06771 0.0
N485 N 0.09369 0.36986 0.16489 0.0
C486 C 0.11964 0.35093 0.12662 0.0
C487 C 0.06728 0.38982 0.12887 0.0
C488 C 0.0782 0.38317 0.06902 0.0
O489 O 0.19794 0.34996 0.99916 0.0
C490 C 0.07354 0.35671 0.91322 0.0
O491 O 0.05415 0.33175 0.94713 0.0
H492 H 0.14496 0.33238 0.1411 0.0
H493 H 0.0636 0.3957 1.0292 0.0
N494 N 0.13294 0.28869 0.99221 0.0
N495 N 0.12116 0.23071 0.95589 0.0
C496 C 0.1185 0.26838 0.94486 0.0
C497 C 0.1456 0.26278 1.03401 0.0
C498 C 0.13824 0.22669 1.01165 0.0
C499 C 0.21971 0.3634 1.04258 0.0
O500 O 0.20171 0.37858 0.09067 0.0
H501 H 0.10683 0.28075 0.90291 0.0
H502 H 0.15934 0.26971 0.07759 0.0
O503 O 0.11085 0.36534 0.92642 0.0
H504 H 0.0428 0.40891 0.14467 0.0
H505 H 0.14407 0.19989 1.03482 0.0
Cu506 Cu 0.90372 0.9079 0.24876 0.0
N507 N 0.87718 0.87193 0.19905 0.0
N508 N 0.87326 0.82021 0.13924 0.0
C509 C 0.8953 0.85136 0.15381 0.0
C510 C 0.83907 0.82198 0.17489 0.0
C511 C 0.84173 0.85376 0.21192 0.0
O512 O 0.95838 0.91498 0.21575 0.0
C513 C 0.88117 0.89065 0.37065 0.0
O514 O 0.84674 0.9095 0.35755 0.0
H515 H 0.92558 0.85737 0.13514 0.0
H516 H 0.82102 0.86128 0.24904 0.0
N517 N 0.87704 0.95586 0.25099 0.0
N518 N 0.86185 1.01514 0.28172 0.0
C519 C 0.87786 0.98086 0.29783 0.0
C520 C 0.86027 0.97535 0.20375 0.0
C521 C 0.85104 1.01218 0.22255 0.0
C522 C 0.98357 0.88694 0.21026 0.0
O523 O 0.97385 0.85369 0.23353 0.0
H524 H 0.89236 0.97486 0.34143 0.0
H525 H 0.85705 0.96415 0.158 0.0
O526 O 0.90928 0.8869 0.33021 0.0
H527 H 0.81535 0.80047 0.17718 0.0
H528 H 0.83875 0.03521 0.1947 0.0
Cu529 Cu 0.3465 0.71752 0.49722 0.0
N530 N 0.37348 0.69999 0.5677 0.0
N531 N 0.39086 0.68911 0.66488 0.0
C532 C 0.36492 0.70805 0.62661 0.0
C533 C 0.41727 0.66915 0.62886 0.0
C534 C 0.40635 0.6758 0.56901 0.0
O535 O 0.28661 0.70901 0.49916 0.0
C536 C 0.411 0.70226 0.41321 0.0
O537 O 0.43039 0.72722 0.44712 0.0
H538 H 0.3396 0.7266 0.64108 0.0
H539 H 0.42094 0.66327 0.52919 0.0
N540 N 0.3516 0.77028 0.4922 0.0
N541 N 0.36338 0.82826 0.45587 0.0
C542 C 0.36604 0.79059 0.44484 0.0
C543 C 0.33894 0.79619 0.53399 0.0
C544 C 0.3463 0.83228 0.51163 0.0
C545 C 0.26484 0.69557 0.54259 0.0
O546 O 0.28284 0.68039 0.59068 0.0
H547 H 0.37772 0.77822 0.40289 0.0
H548 H 0.3252 0.78926 0.57757 0.0
O549 O 0.3737 0.69363 0.42641 0.0
H550 H 0.44175 0.65005 0.64466 0.0
H551 H 0.34047 0.85908 0.53479 0.0
Cu552 Cu 0.46846 0.16243 0.27771 0.0
N553 N 0.41887 0.17454 0.23826 0.0
N554 N 0.37217 0.20665 0.18335 0.0
C555 C 0.40827 0.20853 0.21402 0.0
C556 C 0.35951 0.17036 0.18758 0.0
C557 C 0.38844 0.15054 0.22215 0.0
O558 O 0.5116 0.19113 0.23572 0.0
C559 C 0.43434 0.19566 0.38782 0.0
O560 O 0.40782 0.21311 0.3515 0.0
H561 H 0.42751 0.23352 0.21645 0.0
H562 H 0.38814 0.12045 0.23296 0.0
N563 N 0.47806 0.11036 0.2649 0.0
N564 N 0.48416 0.04759 0.27823 0.0
C565 C 0.48043 0.08185 0.30602 0.0
C566 C 0.4804 0.09341 0.20974 0.0
C567 C 0.48413 0.05454 0.21778 0.0
C568 C 0.54761 0.17845 0.22105 0.0
O569 O 0.56036 0.14486 0.24049 0.0
H570 H 0.47817 0.08608 0.35484 0.0
H571 H 0.47858 0.10838 0.16662 0.0
O572 O 0.46291 0.17413 0.36532 0.0
H573 H 0.33206 0.15898 0.16619 0.0
H574 H 0.48625 0.03319 0.18222 0.0
Cu575 Cu 0.60955 0.70649 1.02814 0.0
N576 N 0.57099 0.6794 0.98321 0.0
N577 N 0.52271 0.66248 0.91625 0.0
C578 C 0.54907 0.68999 0.93355 0.0
C579 C 0.52912 0.63321 0.95524 0.0
C580 C 0.55928 0.64363 0.9961 0.0
O581 O 0.61894 0.75757 0.99548 0.0
C582 C 0.56034 0.69649 0.13787 0.0
O583 O 0.52843 0.6919 0.10146 0.0
H584 H 0.55094 0.71779 0.91239 0.0
H585 H 0.57099 0.62684 1.03396 0.0
N586 N 0.65965 0.68126 1.01556 0.0
N587 N 0.72562 0.66383 1.02702 0.0
C588 C 0.69107 0.67672 0.05532 0.0
C589 C 0.67492 0.67082 0.96066 0.0
C590 C 0.71605 0.66035 0.96752 0.0
C591 C 0.59182 0.78234 0.97936 0.0
O592 O 0.55232 0.77591 0.98951 0.0
H593 H 0.68975 0.68588 0.10249 0.0
H594 H 0.65807 0.6733 0.91808 0.0
O595 O 0.59582 0.70468 0.11562 0.0
H596 H 0.51217 0.60677 0.95552 0.0
H597 H 0.73779 0.65296 0.93157 0.0
Cu598 Cu 0.01609 0.89654 0.77772 0.0
N599 N 0.06568 0.88444 0.73827 0.0
N600 N 0.11237 0.85232 0.68337 0.0
C601 C 0.07627 0.85045 0.71403 0.0
C602 C 0.12504 0.88862 0.6876 0.0
C603 C 0.09611 0.90844 0.72218 0.0
O604 O 0.97294 0.86784 0.73573 0.0
C605 C 0.0502 0.8633 0.88783 0.0
O606 O 0.07672 0.84586 0.85152 0.0
H607 H 0.05704 0.82545 0.71645 0.0
H608 H 0.09641 0.93852 0.73299 0.0
N609 N 0.00649 0.94861 0.7649 0.0
N610 N 0.00039 1.01138 0.77824 0.0
C611 C 0.00411 0.97711 0.80603 0.0
C612 C 0.00414 0.96556 0.70975 0.0
C613 C 0.00042 1.00444 0.71779 0.0
C614 C 0.93694 0.88052 0.72105 0.0
O615 O 0.92418 0.91411 0.74049 0.0
H616 H 0.00637 0.97289 0.85485 0.0
H617 H 0.00597 0.9506 0.66663 0.0
O618 O 0.02164 0.88484 0.86533 0.0
H619 H 0.1525 0.89999 0.66622 0.0
H620 H -0.0017 1.02579 0.68223 0.0
Cu621 Cu 0.875 0.35247 0.52814 0.0
N622 N 0.91356 0.37957 0.48321 0.0
N623 N 0.96184 0.39649 0.41625 0.0
C624 C 0.93548 0.36897 0.43356 0.0
C625 C 0.95543 0.42576 0.45524 0.0
C626 C 0.92527 0.41534 0.49609 0.0
O627 O 0.86561 0.3014 0.49548 0.0
C628 C 0.92421 0.36248 0.63787 0.0
O629 O 0.95611 0.36708 0.60146 0.0
H630 H 0.93362 0.34118 0.4124 0.0
H631 H 0.91355 0.43213 0.53395 0.0
N632 N 0.8249 0.37771 0.51556 0.0
N633 N 0.75893 0.39515 0.52702 0.0
C634 C 0.79348 0.38225 0.55532 0.0
C635 C 0.80963 0.38815 0.46066 0.0
C636 C 0.7685 0.39863 0.46752 0.0
C637 C 0.89272 0.27662 0.47936 0.0
O638 O 0.93223 0.28306 0.48952 0.0
H639 H 0.7948 0.37309 0.60248 0.0
H640 H 0.82648 0.38567 0.41808 0.0
O641 O 0.88873 0.35429 0.61562 0.0
H642 H 0.97238 0.4522 0.45552 0.0
H643 H 0.74677 0.40602 0.43157 0.0
Cu644 Cu 0.46991 0.89714 0.31221 0.0
N645 N 0.42193 0.8878 0.35662 0.0
N646 N 0.37911 0.85733 0.41858 0.0
C647 C 0.4115 0.85387 0.38008 0.0
C648 C 0.36857 0.89461 0.41993 0.0
C649 C 0.39514 0.91346 0.38113 0.0
O650 O 0.513 0.86723 0.35386 0.0
C651 C 0.42861 0.86982 0.20397 0.0
O652 O 0.39636 0.86547 0.23975 0.0
H653 H 0.42893 0.82771 0.3721 0.0
H654 H 0.39623 0.94391 0.37374 0.0
N655 N 0.48129 0.9489 0.32153 0.0
N656 N 0.48584 1.0115 0.3066 0.0
C657 C 0.47898 0.97733 0.28024 0.0
C658 C 0.48984 0.9658 0.37525 0.0
C659 C 0.49267 1.00454 0.36623 0.0
C660 C 0.54999 0.87742 0.36563 0.0
O661 O 0.56447 0.909 0.34221 0.0
H662 H 0.47108 0.97319 0.23272 0.0
H663 H 0.49279 0.95092 0.41833 0.0
O664 O 0.46246 0.88268 0.2259 0.0
H665 H 0.34452 0.90731 0.44819 0.0
H666 H 0.49876 1.02582 0.40072 0.0
Cu667 Cu 0.87809 0.71155 0.06246 0.0
N668 N 0.91668 0.68462 0.10903 0.0
N669 N 0.96749 0.66886 0.17334 0.0
C670 C 0.94379 0.69756 0.15056 0.0
C671 C 0.95438 0.63677 0.14602 0.0
C672 C 0.9227 0.64659 0.10678 0.0
O673 O 0.86401 0.76049 0.10058 0.0
C674 C 0.92819 0.69795 0.95449 0.0
O675 O 0.95432 0.68006 0.99088 0.0
H676 H 0.94721 0.72741 0.16183 0.0
H677 H 0.90581 0.62752 0.07732 0.0
N678 N 0.82984 0.68371 0.06807 0.0
N679 N 0.76578 0.66388 0.05182 0.0
C680 C 0.7989 0.68111 1.02722 0.0
C681 C 0.8157 0.66757 0.11974 0.0
C682 C 0.77577 0.65554 0.10996 0.0
C683 C 0.88591 0.79034 0.10349 0.0
O684 O 0.92215 0.79084 0.07592 0.0
H685 H 0.79929 0.69435 0.98259 0.0
H686 H 0.83235 0.66691 0.16262 0.0
O687 O 0.89566 0.71426 0.97645 0.0
H688 H 0.96742 0.60844 0.15286 0.0
H689 H 0.75494 0.64368 0.1435 0.0
Cu690 Cu 0.01463 0.16183 0.81223 0.0
N691 N 0.06262 0.17117 0.85665 0.0
N692 N 0.10544 0.20164 0.9186 0.0
C693 C 0.07305 0.2051 0.8801 0.0
C694 C 0.11597 0.16436 0.91997 0.0
C695 C 0.08941 0.14551 0.88117 0.0
O696 O 0.97154 0.19173 0.85387 0.0
C697 C 0.05594 0.18914 0.70399 0.0
O698 O 0.0882 0.19349 0.73977 0.0
H699 H 0.05562 0.23126 0.87212 0.0
H700 H 0.08831 0.11505 0.87378 0.0
N701 N 0.00326 0.11007 0.82154 0.0
N702 N -0.0013 0.04747 0.80662 0.0
C703 C 0.00557 0.08164 0.78026 0.0
C704 C -0.00529 0.09317 0.87527 0.0
C705 C 0.99187 0.05443 0.86625 0.0
C706 C 0.93456 0.18155 0.86564 0.0
O707 O 0.92008 0.14997 0.84222 0.0
H708 H 0.01347 0.08578 0.73273 0.0
H709 H 0.99176 0.10805 0.91835 0.0
O710 O 0.02208 0.17629 0.72592 0.0
H711 H 0.14002 0.15166 0.94823 0.0
H712 H 0.98579 0.03315 0.90073 0.0
Cu713 Cu 0.60647 0.34743 0.56246 0.0
N714 N 0.56787 0.37435 0.60903 0.0
N715 N 0.51706 0.39012 0.67333 0.0
C716 C 0.54076 0.36141 0.65055 0.0
C717 C 0.53017 0.42221 0.64601 0.0
C718 C 0.56186 0.41239 0.60677 0.0
O719 O 0.62054 0.29849 0.60059 0.0
C720 C 0.55636 0.36103 0.45449 0.0
O721 O 0.53023 0.37891 0.49087 0.0
H722 H 0.53734 0.33156 0.66182 0.0
H723 H 0.57875 0.43145 0.57732 0.0
N724 N 0.65471 0.37526 0.56807 0.0
N725 N 0.71878 0.3951 0.55182 0.0
C726 C 0.68565 0.37786 0.52722 0.0
C727 C 0.66886 0.3914 0.61974 0.0
C728 C 0.70878 0.40344 0.60996 0.0
C729 C 0.59865 0.26863 0.60349 0.0
O730 O 0.56241 0.26813 0.57591 0.0
H731 H 0.68526 0.36462 0.48259 0.0
H732 H 0.65221 0.39207 0.66262 0.0
O733 O 0.5889 0.34471 0.47645 0.0
H734 H 0.51713 0.45054 0.65285 0.0
H735 H 0.72962 0.4153 0.6435 0.0
loop_
_geom_bond_atom_site_label_1
_geom_bond_atom_site_label_2
_geom_bond_distance
_geom_bond_site_symmetry_2
_ccdc_geom_bond_type
Cu0 N1 1.999 . S
Cu0 O6 1.974 . S
Cu0 N11 1.985 . S
Cu0 O20 1.959 . S
N1 Cu0 1.999 . S
N1 C3 1.263 . S
N1 C5 1.389 . S
N2 C3 1.358 . S
N2 C4 1.400 . S
C3 N1 1.263 . S
C3 N2 1.358 . S
C3 H9 0.930 . S
C4 N2 1.400 . S
C4 C5 1.351 . S
C4 H21 0.930 . S
C5 N1 1.389 . S
C5 C4 1.351 . S
C5 H10 0.930 . S
O6 Cu0 1.974 . S
O6 C16 1.282 . S
C7 O8 1.261 . S
C7 O20 1.251 . S
O8 C7 1.261 . S
H9 C3 0.930 . S
H10 C5 0.930 . S
N11 Cu0 1.985 . S
N11 C13 1.335 . S
N11 C14 1.390 . S
N12 C13 1.345 . S
N12 C15 1.336 . S
C13 N11 1.335 . S
C13 N12 1.345 . S
C13 H18 0.930 . S
C14 N11 1.390 . S
C14 C15 1.346 . S
C14 H19 0.930 . S
C15 N12 1.336 . S
C15 C14 1.346 . S
C15 H22 0.929 . S
C16 O6 1.282 . S
C16 O17 1.216 . S
O17 C16 1.216 . S
H18 C13 0.930 . S
H19 C14 0.930 . S
O20 Cu0 1.959 . S
O20 C7 1.251 . S
H21 C4 0.930 . S
H22 C15 0.929 . S
Cu23 N24 1.999 . S
Cu23 O29 1.974 . S
Cu23 N34 1.985 . S
Cu23 O43 1.959 . S
N24 Cu23 1.999 . S
N24 C26 1.263 . S
N24 C28 1.389 . S
N25 C26 1.358 . S
N25 C27 1.400 . S
C26 N24 1.263 . S
C26 N25 1.358 . S
C26 H32 0.930 . S
C27 N25 1.400 . S
C27 C28 1.351 . S
C27 H44 0.930 . S
C28 N24 1.389 . S
C28 C27 1.351 . S
C28 H33 0.930 . S
O29 Cu23 1.974 . S
O29 C39 1.282 . S
C30 O31 1.261 . S
C30 O43 1.251 . S
O31 C30 1.261 . S
H32 C26 0.930 . S
H33 C28 0.930 . S
N34 Cu23 1.985 . S
N34 C36 1.335 . S
N34 C37 1.390 . S
N35 C36 1.345 . S
N35 C38 1.336 . S
C36 N34 1.335 . S
C36 N35 1.345 . S
C36 H41 0.930 . S
C37 N34 1.390 . S
C37 C38 1.346 . S
C37 H42 0.930 . S
C38 N35 1.336 . S
C38 C37 1.346 . S
C38 H45 0.929 . S
C39 O29 1.282 . S
C39 O40 1.216 . S
O40 C39 1.216 . S
H41 C36 0.930 . S
H42 C37 0.930 . S
O43 Cu23 1.959 . S
O43 C30 1.251 . S
H44 C27 0.930 . S
H45 C38 0.929 . S
Cu46 N47 1.999 . S
Cu46 O52 1.974 . S
Cu46 N57 1.985 . S
Cu46 O66 1.959 . S
N47 Cu46 1.999 . S
N47 C49 1.263 . S
N47 C51 1.389 . S
N48 C49 1.358 . S
N48 C50 1.400 . S
C49 N47 1.263 . S
C49 N48 1.358 . S
C49 H55 0.930 . S
C50 N48 1.400 . S
C50 C51 1.351 . S
C50 H67 0.930 . S
C51 N47 1.389 . S
C51 C50 1.351 . S
C51 H56 0.930 . S
O52 Cu46 1.974 . S
O52 C62 1.282 . S
C53 O54 1.261 . S
C53 O66 1.251 . S
O54 C53 1.261 . S
H55 C49 0.930 . S
H56 C51 0.930 . S
N57 Cu46 1.985 . S
N57 C59 1.335 . S
N57 C60 1.390 . S
N58 C59 1.345 . S
N58 C61 1.336 . S
C59 N57 1.335 . S
C59 N58 1.345 . S
C59 H64 0.930 . S
C60 N57 1.390 . S
C60 C61 1.346 . S
C60 H65 0.930 . S
C61 N58 1.336 . S
C61 C60 1.346 . S
C61 H68 0.929 . S
C62 O52 1.282 . S
C62 O63 1.216 . S
O63 C62 1.216 . S
H64 C59 0.930 . S
H65 C60 0.930 . S
O66 Cu46 1.959 . S
O66 C53 1.251 . S
H67 C50 0.930 . S
H68 C61 0.929 . S
Cu69 N70 1.999 1_554 S
Cu69 O75 1.974 1_554 S
Cu69 N80 1.985 . S
Cu69 O89 1.959 . S
N70 Cu69 1.999 1_556 S
N70 C72 1.263 . S
N70 C74 1.389 . S
N71 C72 1.358 . S
N71 C73 1.400 . S
C72 N70 1.263 . S
C72 N71 1.358 . S
C72 H78 0.930 . S
C73 N71 1.400 . S
C73 C74 1.351 . S
C73 H90 0.930 . S
C74 N70 1.389 . S
C74 C73 1.351 . S
C74 H79 0.930 . S
O75 Cu69 1.974 1_556 S
O75 C85 1.282 1_556 S
C76 O77 1.261 . S
C76 O89 1.251 . S
O77 C76 1.261 . S
H78 C72 0.930 . S
H79 C74 0.930 . S
N80 Cu69 1.985 . S
N80 C82 1.335 . S
N80 C83 1.390 . S
N81 C82 1.345 . S
N81 C84 1.336 . S
C82 N80 1.335 . S
C82 N81 1.345 . S
C82 H87 0.930 . S
C83 N80 1.390 . S
C83 C84 1.346 . S
C83 H88 0.930 . S
C84 N81 1.336 . S
C84 C83 1.346 . S
C84 H91 0.929 . S
C85 O75 1.282 1_554 S
C85 O86 1.216 . S
O86 C85 1.216 . S
H87 C82 0.930 . S
H88 C83 0.930 . S
O89 Cu69 1.959 . S
O89 C76 1.251 . S
H90 C73 0.930 . S
H91 C84 0.929 . S
Cu92 N93 1.999 . S
Cu92 O98 1.974 . S
Cu92 N103 1.985 . S
Cu92 O112 1.959 . S
N93 Cu92 1.999 . S
N93 C95 1.263 . S
N93 C97 1.389 . S
N94 C95 1.358 . S
N94 C96 1.400 . S
C95 N93 1.263 . S
C95 N94 1.358 . S
C95 H101 0.930 . S
C96 N94 1.400 . S
C96 C97 1.351 . S
C96 H113 0.930 . S
C97 N93 1.389 . S
C97 C96 1.351 . S
C97 H102 0.930 . S
O98 Cu92 1.974 . S
O98 C108 1.282 . S
C99 O100 1.261 . S
C99 O112 1.251 . S
O100 C99 1.261 . S
H101 C95 0.930 . S
H102 C97 0.930 . S
N103 Cu92 1.985 . S
N103 C105 1.335 . S
N103 C106 1.390 . S
N104 C105 1.345 . S
N104 C107 1.336 . S
C105 N103 1.335 . S
C105 N104 1.345 . S
C105 H110 0.930 . S
C106 N103 1.390 . S
C106 C107 1.346 . S
C106 H111 0.930 . S
C107 N104 1.336 . S
C107 C106 1.346 . S
C107 H114 0.929 . S
C108 O98 1.282 . S
C108 O109 1.216 . S
O109 C108 1.216 . S
H110 C105 0.930 . S
H111 C106 0.930 . S
O112 Cu92 1.959 . S
O112 C99 1.251 . S
H113 C96 0.930 . S
H114 C107 0.929 . S
Cu115 N116 1.999 . S
Cu115 O121 1.974 . S
Cu115 N126 1.985 . S
Cu115 O135 1.959 . S
N116 Cu115 1.999 . S
N116 C118 1.263 . S
N116 C120 1.389 . S
N117 C118 1.358 . S
N117 C119 1.400 . S
C118 N116 1.263 . S
C118 N117 1.358 . S
C118 H124 0.930 . S
C119 N117 1.400 . S
C119 C120 1.351 . S
C119 H136 0.930 . S
C120 N116 1.389 . S
C120 C119 1.351 . S
C120 H125 0.930 . S
O121 Cu115 1.974 . S
O121 C131 1.282 . S
C122 O123 1.261 . S
C122 O135 1.251 . S
O123 C122 1.261 . S
H124 C118 0.930 . S
H125 C120 0.930 . S
N126 Cu115 1.985 . S
N126 C128 1.335 . S
N126 C129 1.390 . S
N127 C128 1.345 . S
N127 C130 1.336 . S
C128 N126 1.335 . S
C128 N127 1.345 . S
C128 H133 0.930 . S
C129 N126 1.390 . S
C129 C130 1.346 . S
C129 H134 0.930 . S
C130 N127 1.336 . S
C130 C129 1.346 . S
C130 H137 0.929 . S
C131 O121 1.282 . S
C131 O132 1.216 . S
O132 C131 1.216 . S
H133 C128 0.930 . S
H134 C129 0.930 . S
O135 Cu115 1.959 . S
O135 C122 1.251 . S
H136 C119 0.930 . S
H137 C130 0.929 . S
Cu138 N139 1.999 . S
Cu138 O144 1.974 . S
Cu138 N149 1.985 . S
Cu138 O158 1.959 . S
N139 Cu138 1.999 . S
N139 C141 1.263 . S
N139 C143 1.389 . S
N140 C141 1.358 . S
N140 C142 1.400 . S
C141 N139 1.263 . S
C141 N140 1.358 . S
C141 H147 0.930 . S
C142 N140 1.400 . S
C142 C143 1.351 . S
C142 H159 0.930 . S
C143 N139 1.389 . S
C143 C142 1.351 . S
C143 H148 0.930 . S
O144 Cu138 1.974 . S
O144 C154 1.282 . S
C145 O146 1.261 . S
C145 O158 1.251 . S
O146 C145 1.261 . S
H147 C141 0.930 . S
H148 C143 0.930 . S
N149 Cu138 1.985 . S
N149 C151 1.335 . S
N149 C152 1.390 . S
N150 C151 1.345 . S
N150 C153 1.336 . S
C151 N149 1.335 . S
C151 N150 1.345 . S
C151 H156 0.930 . S
C152 N149 1.390 . S
C152 C153 1.346 . S
C152 H157 0.930 . S
C153 N150 1.336 . S
C153 C152 1.346 . S
C153 H160 0.929 . S
C154 O144 1.282 . S
C154 O155 1.216 . S
O155 C154 1.216 . S
H156 C151 0.930 . S
H157 C152 0.930 . S
O158 Cu138 1.959 . S
O158 C145 1.251 . S
H159 C142 0.930 . S
H160 C153 0.929 . S
Cu161 N162 1.999 1_556 S
Cu161 O167 1.974 1_556 S
Cu161 N172 1.985 . S
Cu161 O181 1.959 . S
N162 Cu161 1.999 1_554 S
N162 C164 1.263 . S
N162 C166 1.389 . S
N163 C164 1.358 . S
N163 C165 1.400 . S
C164 N162 1.263 . S
C164 N163 1.358 . S
C164 H170 0.930 . S
C165 N163 1.400 . S
C165 C166 1.351 . S
C165 H182 0.930 . S
C166 N162 1.389 . S
C166 C165 1.351 . S
C166 H171 0.930 . S
O167 Cu161 1.974 1_554 S
O167 C177 1.282 1_554 S
C168 O169 1.261 . S
C168 O181 1.251 . S
O169 C168 1.261 . S
H170 C164 0.930 . S
H171 C166 0.930 . S
N172 Cu161 1.985 . S
N172 C174 1.335 . S
N172 C175 1.390 . S
N173 C174 1.345 . S
N173 C176 1.336 . S
C174 N172 1.335 . S
C174 N173 1.345 . S
C174 H179 0.930 . S
C175 N172 1.390 . S
C175 C176 1.346 . S
C175 H180 0.930 . S
C176 N173 1.336 . S
C176 C175 1.346 . S
C176 H183 0.929 . S
C177 O167 1.282 1_556 S
C177 O178 1.216 . S
O178 C177 1.216 . S
H179 C174 0.930 . S
H180 C175 0.930 . S
O181 Cu161 1.959 . S
O181 C168 1.251 . S
H182 C165 0.930 . S
H183 C176 0.929 . S
Cu184 N185 1.999 . S
Cu184 O190 1.974 . S
Cu184 N195 1.985 . S
Cu184 O204 1.959 . S
N185 Cu184 1.999 . S
N185 C187 1.263 . S
N185 C189 1.389 . S
N186 C187 1.358 . S
N186 C188 1.400 . S
C187 N185 1.263 . S
C187 N186 1.358 . S
C187 H193 0.930 . S
C188 N186 1.400 . S
C188 C189 1.351 . S
C188 H205 0.930 . S
C189 N185 1.389 . S
C189 C188 1.351 . S
C189 H194 0.930 . S
O190 Cu184 1.974 . S
O190 C200 1.282 1_655 S
C191 O192 1.261 . S
C191 O204 1.251 . S
O192 C191 1.261 . S
H193 C187 0.930 . S
H194 C189 0.930 . S
N195 Cu184 1.985 . S
N195 C197 1.335 . S
N195 C198 1.390 . S
N196 C197 1.345 . S
N196 C199 1.336 . S
C197 N195 1.335 . S
C197 N196 1.345 . S
C197 H202 0.930 . S
C198 N195 1.390 . S
C198 C199 1.346 . S
C198 H203 0.930 1_655 S
C199 N196 1.336 . S
C199 C198 1.346 . S
C199 H206 0.929 1_655 S
C200 O190 1.282 1_455 S
C200 O201 1.216 . S
O201 C200 1.216 . S
H202 C197 0.930 . S
H203 C198 0.930 1_455 S
O204 Cu184 1.959 . S
O204 C191 1.251 . S
H205 C188 0.930 . S
H206 C199 0.929 1_455 S
Cu207 N208 1.999 . S
Cu207 O213 1.974 . S
Cu207 N218 1.985 . S
Cu207 O227 1.959 . S
N208 Cu207 1.999 . S
N208 C210 1.263 . S
N208 C212 1.389 . S
N209 C210 1.358 1_655 S
N209 C211 1.400 . S
C210 N208 1.263 . S
C210 N209 1.358 1_455 S
C210 H216 0.930 . S
C211 N209 1.400 . S
C211 C212 1.351 1_655 S
C211 H228 0.930 . S
C212 N208 1.389 . S
C212 C211 1.351 1_455 S
C212 H217 0.930 . S
O213 Cu207 1.974 . S
O213 C223 1.282 . S
C214 O215 1.261 . S
C214 O227 1.251 . S
O215 C214 1.261 . S
H216 C210 0.930 . S
H217 C212 0.930 . S
N218 Cu207 1.985 . S
N218 C220 1.335 . S
N218 C221 1.390 . S
N219 C220 1.345 . S
N219 C222 1.336 . S
C220 N218 1.335 . S
C220 N219 1.345 . S
C220 H225 0.930 . S
C221 N218 1.390 . S
C221 C222 1.346 . S
C221 H226 0.930 . S
C222 N219 1.336 . S
C222 C221 1.346 . S
C222 H229 0.929 . S
C223 O213 1.282 . S
C223 O224 1.216 . S
O224 C223 1.216 . S
H225 C220 0.930 . S
H226 C221 0.930 . S
O227 Cu207 1.959 . S
O227 C214 1.251 . S
H228 C211 0.930 . S
H229 C222 0.929 . S
Cu230 N231 1.999 . S
Cu230 O236 1.974 . S
Cu230 N241 1.985 . S
Cu230 O250 1.959 . S
N231 Cu230 1.999 . S
N231 C233 1.263 . S
N231 C235 1.389 . S
N232 C233 1.358 . S
N232 C234 1.400 . S
C233 N231 1.263 . S
C233 N232 1.358 . S
C233 H239 0.930 . S
C234 N232 1.400 . S
C234 C235 1.351 . S
C234 H251 0.930 . S
C235 N231 1.389 . S
C235 C234 1.351 . S
C235 H240 0.930 . S
O236 Cu230 1.974 . S
O236 C246 1.282 . S
C237 O238 1.261 . S
C237 O250 1.251 . S
O238 C237 1.261 . S
H239 C233 0.930 . S
H240 C235 0.930 . S
N241 Cu230 1.985 . S
N241 C243 1.335 . S
N241 C244 1.390 . S
N242 C243 1.345 . S
N242 C245 1.336 . S
C243 N241 1.335 . S
C243 N242 1.345 . S
C243 H248 0.930 . S
C244 N241 1.390 . S
C244 C245 1.346 . S
C244 H249 0.930 . S
C245 N242 1.336 . S
C245 C244 1.346 . S
C245 H252 0.929 . S
C246 O236 1.282 . S
C246 O247 1.216 . S
O247 C246 1.216 . S
H248 C243 0.930 . S
H249 C244 0.930 . S
O250 Cu230 1.959 . S
O250 C237 1.251 . S
H251 C234 0.930 . S
H252 C245 0.929 . S
Cu253 N254 1.999 . S
Cu253 O259 1.974 . S
Cu253 N264 1.985 . S
Cu253 O273 1.959 1_556 S
N254 Cu253 1.999 . S
N254 C256 1.263 . S
N254 C258 1.389 . S
N255 C256 1.358 . S
N255 C257 1.400 . S
C256 N254 1.263 . S
C256 N255 1.358 . S
C256 H262 0.930 . S
C257 N255 1.400 . S
C257 C258 1.351 . S
C257 H274 0.930 . S
C258 N254 1.389 . S
C258 C257 1.351 . S
C258 H263 0.930 . S
O259 Cu253 1.974 . S
O259 C269 1.282 . S
C260 O261 1.261 . S
C260 O273 1.251 . S
O261 C260 1.261 . S
H262 C256 0.930 . S
H263 C258 0.930 . S
N264 Cu253 1.985 . S
N264 C266 1.335 1_556 S
N264 C267 1.390 . S
N265 C266 1.345 . S
N265 C268 1.336 1_554 S
C266 N264 1.335 1_554 S
C266 N265 1.345 . S
C266 H271 0.930 . S
C267 N264 1.390 . S
C267 C268 1.346 . S
C267 H272 0.930 . S
C268 N265 1.336 1_556 S
C268 C267 1.346 . S
C268 H275 0.929 . S
C269 O259 1.282 . S
C269 O270 1.216 . S
O270 C269 1.216 . S
H271 C266 0.930 . S
H272 C267 0.930 . S
O273 Cu253 1.959 1_554 S
O273 C260 1.251 . S
H274 C257 0.930 . S
H275 C268 0.929 . S
Cu276 N277 1.999 . S
Cu276 O282 1.974 . S
Cu276 N287 1.985 . S
Cu276 O296 1.959 . S
N277 Cu276 1.999 . S
N277 C279 1.263 . S
N277 C281 1.389 . S
N278 C279 1.358 . S
N278 C280 1.400 . S
C279 N277 1.263 . S
C279 N278 1.358 . S
C279 H285 0.930 . S
C280 N278 1.400 . S
C280 C281 1.351 . S
C280 H297 0.930 . S
C281 N277 1.389 . S
C281 C280 1.351 . S
C281 H286 0.930 . S
O282 Cu276 1.974 . S
O282 C292 1.282 1_655 S
C283 O284 1.261 . S
C283 O296 1.251 . S
O284 C283 1.261 . S
H285 C279 0.930 . S
H286 C281 0.930 . S
N287 Cu276 1.985 . S
N287 C289 1.335 . S
N287 C290 1.390 . S
N288 C289 1.345 . S
N288 C291 1.336 . S
C289 N287 1.335 . S
C289 N288 1.345 . S
C289 H294 0.930 . S
C290 N287 1.390 . S
C290 C291 1.346 . S
C290 H295 0.930 1_655 S
C291 N288 1.336 . S
C291 C290 1.346 . S
C291 H298 0.929 1_655 S
C292 O282 1.282 1_455 S
C292 O293 1.216 . S
O293 C292 1.216 . S
H294 C289 0.930 . S
H295 C290 0.930 1_455 S
O296 Cu276 1.959 . S
O296 C283 1.251 . S
H297 C280 0.930 . S
H298 C291 0.929 1_455 S
Cu299 N300 1.999 . S
Cu299 O305 1.974 . S
Cu299 N310 1.985 . S
Cu299 O319 1.959 . S
N300 Cu299 1.999 . S
N300 C302 1.263 . S
N300 C304 1.389 . S
N301 C302 1.358 . S
N301 C303 1.400 . S
C302 N300 1.263 . S
C302 N301 1.358 . S
C302 H308 0.930 . S
C303 N301 1.400 . S
C303 C304 1.351 . S
C303 H320 0.930 . S
C304 N300 1.389 . S
C304 C303 1.351 . S
C304 H309 0.930 . S
O305 Cu299 1.974 . S
O305 C315 1.282 . S
C306 O307 1.261 . S
C306 O319 1.251 . S
O307 C306 1.261 . S
H308 C302 0.930 . S
H309 C304 0.930 . S
N310 Cu299 1.985 . S
N310 C312 1.335 . S
N310 C313 1.390 . S
N311 C312 1.345 . S
N311 C314 1.336 . S
C312 N310 1.335 . S
C312 N311 1.345 . S
C312 H317 0.930 . S
C313 N310 1.390 . S
C313 C314 1.346 . S
C313 H318 0.930 . S
C314 N311 1.336 . S
C314 C313 1.346 . S
C314 H321 0.929 . S
C315 O305 1.282 . S
C315 O316 1.216 . S
O316 C315 1.216 . S
H317 C312 0.930 . S
H318 C313 0.930 . S
O319 Cu299 1.959 . S
O319 C306 1.251 . S
H320 C303 0.930 . S
H321 C314 0.929 . S
Cu322 N323 1.999 . S
Cu322 O328 1.974 . S
Cu322 N333 1.985 . S
Cu322 O342 1.959 . S
N323 Cu322 1.999 . S
N323 C325 1.263 . S
N323 C327 1.389 . S
N324 C325 1.358 . S
N324 C326 1.400 . S
C325 N323 1.263 . S
C325 N324 1.358 . S
C325 H331 0.930 . S
C326 N324 1.400 . S
C326 C327 1.351 . S
C326 H343 0.930 . S
C327 N323 1.389 . S
C327 C326 1.351 . S
C327 H332 0.930 . S
O328 Cu322 1.974 . S
O328 C338 1.282 . S
C329 O330 1.261 . S
C329 O342 1.251 . S
O330 C329 1.261 . S
H331 C325 0.930 . S
H332 C327 0.930 . S
N333 Cu322 1.985 . S
N333 C335 1.335 . S
N333 C336 1.390 . S
N334 C335 1.345 . S
N334 C337 1.336 . S
C335 N333 1.335 . S
C335 N334 1.345 . S
C335 H340 0.930 . S
C336 N333 1.390 . S
C336 C337 1.346 . S
C336 H341 0.930 . S
C337 N334 1.336 . S
C337 C336 1.346 . S
C337 H344 0.929 . S
C338 O328 1.282 . S
C338 O339 1.216 . S
O339 C338 1.216 . S
H340 C335 0.930 . S
H341 C336 0.930 . S
O342 Cu322 1.959 . S
O342 C329 1.251 . S
H343 C326 0.930 . S
H344 C337 0.929 . S
Cu345 N346 1.999 . S
Cu345 O351 1.974 . S
Cu345 N356 1.985 . S
Cu345 O365 1.959 1_554 S
N346 Cu345 1.999 . S
N346 C348 1.263 . S
N346 C350 1.389 . S
N347 C348 1.358 1_655 S
N347 C349 1.400 . S
C348 N346 1.263 . S
C348 N347 1.358 1_455 S
C348 H354 0.930 . S
C349 N347 1.400 . S
C349 C350 1.351 1_655 S
C349 H366 0.930 . S
C350 N346 1.389 . S
C350 C349 1.351 1_455 S
C350 H355 0.930 . S
O351 Cu345 1.974 . S
O351 C361 1.282 . S
C352 O353 1.261 . S
C352 O365 1.251 . S
O353 C352 1.261 . S
H354 C348 0.930 . S
H355 C350 0.930 . S
N356 Cu345 1.985 . S
N356 C358 1.335 1_554 S
N356 C359 1.390 . S
N357 C358 1.345 . S
N357 C360 1.336 1_556 S
C358 N356 1.335 1_556 S
C358 N357 1.345 . S
C358 H363 0.930 . S
C359 N356 1.390 . S
C359 C360 1.346 . S
C359 H364 0.930 . S
C360 N357 1.336 1_554 S
C360 C359 1.346 . S
C360 H367 0.929 . S
C361 O351 1.282 . S
C361 O362 1.216 . S
O362 C361 1.216 . S
H363 C358 0.930 . S
H364 C359 0.930 . S
O365 Cu345 1.959 1_556 S
O365 C352 1.251 . S
H366 C349 0.930 . S
H367 C360 0.929 . S
Cu368 N369 1.999 . S
Cu368 O374 1.974 . S
Cu368 N379 1.985 . S
Cu368 O388 1.959 . S
N369 Cu368 1.999 . S
N369 C371 1.263 . S
N369 C373 1.389 . S
N370 C371 1.358 . S
N370 C372 1.400 . S
C371 N369 1.263 . S
C371 N370 1.358 . S
C371 H377 0.930 . S
C372 N370 1.400 . S
C372 C373 1.351 . S
C372 H389 0.930 . S
C373 N369 1.389 . S
C373 C372 1.351 . S
C373 H378 0.930 . S
O374 Cu368 1.974 . S
O374 C384 1.282 . S
C375 O376 1.261 . S
C375 O388 1.251 . S
O376 C375 1.261 . S
H377 C371 0.930 . S
H378 C373 0.930 . S
N379 Cu368 1.985 . S
N379 C381 1.335 . S
N379 C382 1.390 . S
N380 C381 1.345 . S
N380 C383 1.336 . S
C381 N379 1.335 . S
C381 N380 1.345 . S
C381 H386 0.930 . S
C382 N379 1.390 . S
C382 C383 1.346 . S
C382 H387 0.930 . S
C383 N380 1.336 . S
C383 C382 1.346 . S
C383 H390 0.929 . S
C384 O374 1.282 . S
C384 O385 1.216 . S
O385 C384 1.216 . S
H386 C381 0.930 . S
H387 C382 0.930 . S
O388 Cu368 1.959 . S
O388 C375 1.251 . S
H389 C372 0.930 . S
H390 C383 0.929 . S
Cu391 N392 1.999 1_554 S
Cu391 O397 1.974 1_554 S
Cu391 N402 1.985 . S
Cu391 O411 1.959 . S
N392 Cu391 1.999 1_556 S
N392 C394 1.263 . S
N392 C396 1.389 . S
N393 C394 1.358 . S
N393 C395 1.400 . S
C394 N392 1.263 . S
C394 N393 1.358 . S
C394 H400 0.930 . S
C395 N393 1.400 . S
C395 C396 1.351 . S
C395 H412 0.930 . S
C396 N392 1.389 . S
C396 C395 1.351 . S
C396 H401 0.930 . S
O397 Cu391 1.974 1_556 S
O397 C407 1.282 1_556 S
C398 O399 1.261 . S
C398 O411 1.251 . S
O399 C398 1.261 . S
H400 C394 0.930 . S
H401 C396 0.930 . S
N402 Cu391 1.985 . S
N402 C404 1.335 . S
N402 C405 1.390 . S
N403 C404 1.345 . S
N403 C406 1.336 . S
C404 N402 1.335 . S
C404 N403 1.345 . S
C404 H409 0.930 . S
C405 N402 1.390 . S
C405 C406 1.346 . S
C405 H410 0.930 . S
C406 N403 1.336 . S
C406 C405 1.346 . S
C406 H413 0.929 . S
C407 O397 1.282 1_554 S
C407 O408 1.216 . S
O408 C407 1.216 . S
H409 C404 0.930 . S
H410 C405 0.930 . S
O411 Cu391 1.959 . S
O411 C398 1.251 . S
H412 C395 0.930 . S
H413 C406 0.929 . S
Cu414 N415 1.999 . S
Cu414 O420 1.974 . S
Cu414 N425 1.985 . S
Cu414 O434 1.959 . S
N415 Cu414 1.999 . S
N415 C417 1.263 . S
N415 C419 1.389 . S
N416 C417 1.358 . S
N416 C418 1.400 . S
C417 N415 1.263 . S
C417 N416 1.358 . S
C417 H423 0.930 . S
C418 N416 1.400 . S
C418 C419 1.351 . S
C418 H435 0.930 . S
C419 N415 1.389 . S
C419 C418 1.351 . S
C419 H424 0.930 . S
O420 Cu414 1.974 . S
O420 C430 1.282 . S
C421 O422 1.261 . S
C421 O434 1.251 . S
O422 C421 1.261 . S
H423 C417 0.930 . S
H424 C419 0.930 . S
N425 Cu414 1.985 . S
N425 C427 1.335 . S
N425 C428 1.390 . S
N426 C427 1.345 . S
N426 C429 1.336 . S
C427 N425 1.335 . S
C427 N426 1.345 . S
C427 H432 0.930 . S
C428 N425 1.390 . S
C428 C429 1.346 . S
C428 H433 0.930 . S
C429 N426 1.336 . S
C429 C428 1.346 . S
C429 H436 0.929 . S
C430 O420 1.282 . S
C430 O431 1.216 . S
O431 C430 1.216 . S
H432 C427 0.930 . S
H433 C428 0.930 . S
O434 Cu414 1.959 . S
O434 C421 1.251 . S
H435 C418 0.930 . S
H436 C429 0.929 . S
Cu437 N438 1.999 . S
Cu437 O443 1.974 . S
Cu437 N448 1.985 . S
Cu437 O457 1.959 . S
N438 Cu437 1.999 . S
N438 C440 1.263 . S
N438 C442 1.389 . S
N439 C440 1.358 . S
N439 C441 1.400 . S
C440 N438 1.263 . S
C440 N439 1.358 . S
C440 H446 0.930 . S
C441 N439 1.400 . S
C441 C442 1.351 . S
C441 H458 0.930 . S
C442 N438 1.389 . S
C442 C441 1.351 . S
C442 H447 0.930 . S
O443 Cu437 1.974 . S
O443 C453 1.282 . S
C444 O445 1.261 . S
C444 O457 1.251 . S
O445 C444 1.261 . S
H446 C440 0.930 . S
H447 C442 0.930 . S
N448 Cu437 1.985 . S
N448 C450 1.335 . S
N448 C451 1.390 . S
N449 C450 1.345 . S
N449 C452 1.336 . S
C450 N448 1.335 . S
C450 N449 1.345 . S
C450 H455 0.930 . S
C451 N448 1.390 . S
C451 C452 1.346 . S
C451 H456 0.930 . S
C452 N449 1.336 . S
C452 C451 1.346 . S
C452 H459 0.929 . S
C453 O443 1.282 . S
C453 O454 1.216 . S
O454 C453 1.216 . S
H455 C450 0.930 . S
H456 C451 0.930 . S
O457 Cu437 1.959 . S
O457 C444 1.251 . S
H458 C441 0.930 . S
H459 C452 0.929 . S
Cu460 N461 1.999 . S
Cu460 O466 1.974 . S
Cu460 N471 1.985 . S
Cu460 O480 1.959 . S
N461 Cu460 1.999 . S
N461 C463 1.263 . S
N461 C465 1.389 . S
N462 C463 1.358 . S
N462 C464 1.400 . S
C463 N461 1.263 . S
C463 N462 1.358 . S
C463 H469 0.930 . S
C464 N462 1.400 . S
C464 C465 1.351 . S
C464 H481 0.930 . S
C465 N461 1.389 . S
C465 C464 1.351 . S
C465 H470 0.930 . S
O466 Cu460 1.974 . S
O466 C476 1.282 . S
C467 O468 1.261 . S
C467 O480 1.251 . S
O468 C467 1.261 . S
H469 C463 0.930 . S
H470 C465 0.930 . S
N471 Cu460 1.985 . S
N471 C473 1.335 . S
N471 C474 1.390 . S
N472 C473 1.345 . S
N472 C475 1.336 . S
C473 N471 1.335 . S
C473 N472 1.345 . S
C473 H478 0.930 . S
C474 N471 1.390 . S
C474 C475 1.346 . S
C474 H479 0.930 . S
C475 N472 1.336 . S
C475 C474 1.346 . S
C475 H482 0.929 . S
C476 O466 1.282 . S
C476 O477 1.216 . S
O477 C476 1.216 . S
H478 C473 0.930 . S
H479 C474 0.930 . S
O480 Cu460 1.959 . S
O480 C467 1.251 . S
H481 C464 0.930 . S
H482 C475 0.929 . S
Cu483 N484 1.999 1_556 S
Cu483 O489 1.974 1_556 S
Cu483 N494 1.985 . S
Cu483 O503 1.959 . S
N484 Cu483 1.999 1_554 S
N484 C486 1.263 . S
N484 C488 1.389 . S
N485 C486 1.358 . S
N485 C487 1.400 . S
C486 N484 1.263 . S
C486 N485 1.358 . S
C486 H492 0.930 . S
C487 N485 1.400 . S
C487 C488 1.351 . S
C487 H504 0.930 . S
C488 N484 1.389 . S
C488 C487 1.351 . S
C488 H493 0.930 . S
O489 Cu483 1.974 1_554 S
O489 C499 1.282 1_554 S
C490 O491 1.261 . S
C490 O503 1.251 . S
O491 C490 1.261 . S
H492 C486 0.930 . S
H493 C488 0.930 . S
N494 Cu483 1.985 . S
N494 C496 1.335 . S
N494 C497 1.390 . S
N495 C496 1.345 . S
N495 C498 1.336 . S
C496 N494 1.335 . S
C496 N495 1.345 . S
C496 H501 0.930 . S
C497 N494 1.390 . S
C497 C498 1.346 . S
C497 H502 0.930 . S
C498 N495 1.336 . S
C498 C497 1.346 . S
C498 H505 0.929 . S
C499 O489 1.282 1_556 S
C499 O500 1.216 . S
O500 C499 1.216 . S
H501 C496 0.930 . S
H502 C497 0.930 . S
O503 Cu483 1.959 . S
O503 C490 1.251 . S
H504 C487 0.930 . S
H505 C498 0.929 . S
Cu506 N507 1.999 . S
Cu506 O512 1.974 . S
Cu506 N517 1.985 . S
Cu506 O526 1.959 . S
N507 Cu506 1.999 . S
N507 C509 1.263 . S
N507 C511 1.389 . S
N508 C509 1.358 . S
N508 C510 1.400 . S
C509 N507 1.263 . S
C509 N508 1.358 . S
C509 H515 0.930 . S
C510 N508 1.400 . S
C510 C511 1.351 . S
C510 H527 0.930 . S
C511 N507 1.389 . S
C511 C510 1.351 . S
C511 H516 0.930 . S
O512 Cu506 1.974 . S
O512 C522 1.282 . S
C513 O514 1.261 . S
C513 O526 1.251 . S
O514 C513 1.261 . S
H515 C509 0.930 . S
H516 C511 0.930 . S
N517 Cu506 1.985 . S
N517 C519 1.335 . S
N517 C520 1.390 . S
N518 C519 1.345 . S
N518 C521 1.336 . S
C519 N517 1.335 . S
C519 N518 1.345 . S
C519 H524 0.930 . S
C520 N517 1.390 . S
C520 C521 1.346 . S
C520 H525 0.930 . S
C521 N518 1.336 . S
C521 C520 1.346 . S
C521 H528 0.929 . S
C522 O512 1.282 . S
C522 O523 1.216 . S
O523 C522 1.216 . S
H524 C519 0.930 . S
H525 C520 0.930 . S
O526 Cu506 1.959 . S
O526 C513 1.251 . S
H527 C510 0.930 . S
H528 C521 0.929 . S
Cu529 N530 1.999 . S
Cu529 O535 1.974 . S
Cu529 N540 1.985 . S
Cu529 O549 1.959 . S
N530 Cu529 1.999 . S
N530 C532 1.263 . S
N530 C534 1.389 . S
N531 C532 1.358 . S
N531 C533 1.400 . S
C532 N530 1.263 . S
C532 N531 1.358 . S
C532 H538 0.930 . S
C533 N531 1.400 . S
C533 C534 1.351 . S
C533 H550 0.930 . S
C534 N530 1.389 . S
C534 C533 1.351 . S
C534 H539 0.930 . S
O535 Cu529 1.974 . S
O535 C545 1.282 . S
C536 O537 1.261 . S
C536 O549 1.251 . S
O537 C536 1.261 . S
H538 C532 0.930 . S
H539 C534 0.930 . S
N540 Cu529 1.985 . S
N540 C542 1.335 . S
N540 C543 1.390 . S
N541 C542 1.345 . S
N541 C544 1.336 . S
C542 N540 1.335 . S
C542 N541 1.345 . S
C542 H547 0.930 . S
C543 N540 1.390 . S
C543 C544 1.346 . S
C543 H548 0.930 . S
C544 N541 1.336 . S
C544 C543 1.346 . S
C544 H551 0.929 . S
C545 O535 1.282 . S
C545 O546 1.216 . S
O546 C545 1.216 . S
H547 C542 0.930 . S
H548 C543 0.930 . S
O549 Cu529 1.959 . S
O549 C536 1.251 . S
H550 C533 0.930 . S
H551 C544 0.929 . S
Cu552 N553 1.999 . S
Cu552 O558 1.974 . S
Cu552 N563 1.985 . S
Cu552 O572 1.959 . S
N553 Cu552 1.999 . S
N553 C555 1.263 . S
N553 C557 1.389 . S
N554 C555 1.358 . S
N554 C556 1.400 . S
C555 N553 1.263 . S
C555 N554 1.358 . S
C555 H561 0.930 . S
C556 N554 1.400 . S
C556 C557 1.351 . S
C556 H573 0.930 . S
C557 N553 1.389 . S
C557 C556 1.351 . S
C557 H562 0.930 . S
O558 Cu552 1.974 . S
O558 C568 1.282 . S
C559 O560 1.261 . S
C559 O572 1.251 . S
O560 C559 1.261 . S
H561 C555 0.930 . S
H562 C557 0.930 . S
N563 Cu552 1.985 . S
N563 C565 1.335 . S
N563 C566 1.390 . S
N564 C565 1.345 . S
N564 C567 1.336 . S
C565 N563 1.335 . S
C565 N564 1.345 . S
C565 H570 0.930 . S
C566 N563 1.390 . S
C566 C567 1.346 . S
C566 H571 0.930 . S
C567 N564 1.336 . S
C567 C566 1.346 . S
C567 H574 0.929 . S
C568 O558 1.282 . S
C568 O569 1.216 . S
O569 C568 1.216 . S
H570 C565 0.930 . S
H571 C566 0.930 . S
O572 Cu552 1.959 . S
O572 C559 1.251 . S
H573 C556 0.930 . S
H574 C567 0.929 . S
Cu575 N576 1.999 . S
Cu575 O581 1.974 . S
Cu575 N586 1.985 . S
Cu575 O595 1.959 1_556 S
N576 Cu575 1.999 . S
N576 C578 1.263 . S
N576 C580 1.389 . S
N577 C578 1.358 . S
N577 C579 1.400 . S
C578 N576 1.263 . S
C578 N577 1.358 . S
C578 H584 0.930 . S
C579 N577 1.400 . S
C579 C580 1.351 . S
C579 H596 0.930 . S
C580 N576 1.389 . S
C580 C579 1.351 . S
C580 H585 0.930 . S
O581 Cu575 1.974 . S
O581 C591 1.282 . S
C582 O583 1.261 . S
C582 O595 1.251 . S
O583 C582 1.261 . S
H584 C578 0.930 . S
H585 C580 0.930 . S
N586 Cu575 1.985 . S
N586 C588 1.335 1_556 S
N586 C589 1.390 . S
N587 C588 1.345 . S
N587 C590 1.336 1_554 S
C588 N586 1.335 1_554 S
C588 N587 1.345 . S
C588 H593 0.930 . S
C589 N586 1.390 . S
C589 C590 1.346 . S
C589 H594 0.930 . S
C590 N587 1.336 1_556 S
C590 C589 1.346 . S
C590 H597 0.929 . S
C591 O581 1.282 . S
C591 O592 1.216 . S
O592 C591 1.216 . S
H593 C588 0.930 . S
H594 C589 0.930 . S
O595 Cu575 1.959 1_554 S
O595 C582 1.251 . S
H596 C579 0.930 . S
H597 C590 0.929 . S
Cu598 N599 1.999 . S
Cu598 O604 1.974 . S
Cu598 N609 1.985 . S
Cu598 O618 1.959 . S
N599 Cu598 1.999 . S
N599 C601 1.263 . S
N599 C603 1.389 . S
N600 C601 1.358 . S
N600 C602 1.400 . S
C601 N599 1.263 . S
C601 N600 1.358 . S
C601 H607 0.930 . S
C602 N600 1.400 . S
C602 C603 1.351 . S
C602 H619 0.930 . S
C603 N599 1.389 . S
C603 C602 1.351 . S
C603 H608 0.930 . S
O604 Cu598 1.974 . S
O604 C614 1.282 1_455 S
C605 O606 1.261 . S
C605 O618 1.251 . S
O606 C605 1.261 . S
H607 C601 0.930 . S
H608 C603 0.930 . S
N609 Cu598 1.985 . S
N609 C611 1.335 . S
N609 C612 1.390 . S
N610 C611 1.345 . S
N610 C613 1.336 . S
C611 N609 1.335 . S
C611 N610 1.345 . S
C611 H616 0.930 . S
C612 N609 1.390 . S
C612 C613 1.346 . S
C612 H617 0.930 1_455 S
C613 N610 1.336 . S
C613 C612 1.346 . S
C613 H620 0.929 1_455 S
C614 O604 1.282 1_655 S
C614 O615 1.216 . S
O615 C614 1.216 . S
H616 C611 0.930 . S
H617 C612 0.930 1_655 S
O618 Cu598 1.959 . S
O618 C605 1.251 . S
H619 C602 0.930 . S
H620 C613 0.929 1_655 S
Cu621 N622 1.999 . S
Cu621 O627 1.974 . S
Cu621 N632 1.985 . S
Cu621 O641 1.959 . S
N622 Cu621 1.999 . S
N622 C624 1.263 . S
N622 C626 1.389 . S
N623 C624 1.358 1_455 S
N623 C625 1.400 . S
C624 N622 1.263 . S
C624 N623 1.358 1_655 S
C624 H630 0.930 . S
C625 N623 1.400 . S
C625 C626 1.351 1_455 S
C625 H642 0.930 . S
C626 N622 1.389 . S
C626 C625 1.351 1_655 S
C626 H631 0.930 . S
O627 Cu621 1.974 . S
O627 C637 1.282 . S
C628 O629 1.261 . S
C628 O641 1.251 . S
O629 C628 1.261 . S
H630 C624 0.930 . S
H631 C626 0.930 . S
N632 Cu621 1.985 . S
N632 C634 1.335 . S
N632 C635 1.390 . S
N633 C634 1.345 . S
N633 C636 1.336 . S
C634 N632 1.335 . S
C634 N633 1.345 . S
C634 H639 0.930 . S
C635 N632 1.390 . S
C635 C636 1.346 . S
C635 H640 0.930 . S
C636 N633 1.336 . S
C636 C635 1.346 . S
C636 H643 0.929 . S
C637 O627 1.282 . S
C637 O638 1.216 . S
O638 C637 1.216 . S
H639 C634 0.930 . S
H640 C635 0.930 . S
O641 Cu621 1.959 . S
O641 C628 1.251 . S
H642 C625 0.930 . S
H643 C636 0.929 . S
Cu644 N645 1.999 . S
Cu644 O650 1.974 . S
Cu644 N655 1.985 . S
Cu644 O664 1.959 . S
N645 Cu644 1.999 . S
N645 C647 1.263 . S
N645 C649 1.389 . S
N646 C647 1.358 . S
N646 C648 1.400 . S
C647 N645 1.263 . S
C647 N646 1.358 . S
C647 H653 0.930 . S
C648 N646 1.400 . S
C648 C649 1.351 . S
C648 H665 0.930 . S
C649 N645 1.389 . S
C649 C648 1.351 . S
C649 H654 0.930 . S
O650 Cu644 1.974 . S
O650 C660 1.282 . S
C651 O652 1.261 . S
C651 O664 1.251 . S
O652 C651 1.261 . S
H653 C647 0.930 . S
H654 C649 0.930 . S
N655 Cu644 1.985 . S
N655 C657 1.335 . S
N655 C658 1.390 . S
N656 C657 1.345 . S
N656 C659 1.336 . S
C657 N655 1.335 . S
C657 N656 1.345 . S
C657 H662 0.930 . S
C658 N655 1.390 . S
C658 C659 1.346 . S
C658 H663 0.930 . S
C659 N656 1.336 . S
C659 C658 1.346 . S
C659 H666 0.929 . S
C660 O650 1.282 . S
C660 O661 1.216 . S
O661 C660 1.216 . S
H662 C657 0.930 . S
H663 C658 0.930 . S
O664 Cu644 1.959 . S
O664 C651 1.251 . S
H665 C648 0.930 . S
H666 C659 0.929 . S
Cu667 N668 1.999 . S
Cu667 O673 1.974 . S
Cu667 N678 1.985 . S
Cu667 O687 1.959 1_554 S
N668 Cu667 1.999 . S
N668 C670 1.263 . S
N668 C672 1.389 . S
N669 C670 1.358 1_455 S
N669 C671 1.400 . S
C670 N668 1.263 . S
C670 N669 1.358 1_655 S
C670 H676 0.930 . S
C671 N669 1.400 . S
C671 C672 1.351 1_455 S
C671 H688 0.930 . S
C672 N668 1.389 . S
C672 C671 1.351 1_655 S
C672 H677 0.930 . S
O673 Cu667 1.974 . S
O673 C683 1.282 . S
C674 O675 1.261 . S
C674 O687 1.251 . S
O675 C674 1.261 . S
H676 C670 0.930 . S
H677 C672 0.930 . S
N678 Cu667 1.985 . S
N678 C680 1.335 1_554 S
N678 C681 1.390 . S
N679 C680 1.345 . S
N679 C682 1.336 1_556 S
C680 N678 1.335 1_556 S
C680 N679 1.345 . S
C680 H685 0.930 . S
C681 N678 1.390 . S
C681 C682 1.346 . S
C681 H686 0.930 . S
C682 N679 1.336 1_554 S
C682 C681 1.346 . S
C682 H689 0.929 . S
C683 O673 1.282 . S
C683 O684 1.216 . S
O684 C683 1.216 . S
H685 C680 0.930 . S
H686 C681 0.930 . S
O687 Cu667 1.959 1_556 S
O687 C674 1.251 . S
H688 C671 0.930 . S
H689 C682 0.929 . S
Cu690 N691 1.999 . S
Cu690 O696 1.974 . S
Cu690 N701 1.985 . S
Cu690 O710 1.959 . S
N691 Cu690 1.999 . S
N691 C693 1.263 . S
N691 C695 1.389 . S
N692 C693 1.358 . S
N692 C694 1.400 . S
C693 N691 1.263 . S
C693 N692 1.358 . S
C693 H699 0.930 . S
C694 N692 1.400 . S
C694 C695 1.351 . S
C694 H711 0.930 . S
C695 N691 1.389 . S
C695 C694 1.351 . S
C695 H700 0.930 . S
O696 Cu690 1.974 . S
O696 C706 1.282 1_455 S
C697 O698 1.261 . S
C697 O710 1.251 . S
O698 C697 1.261 . S
H699 C693 0.930 . S
H700 C695 0.930 . S
N701 Cu690 1.985 . S
N701 C703 1.335 . S
N701 C704 1.390 . S
N702 C703 1.345 . S
N702 C705 1.336 . S
C703 N701 1.335 . S
C703 N702 1.345 . S
C703 H708 0.930 . S
C704 N701 1.390 . S
C704 C705 1.346 . S
C704 H709 0.930 1_455 S
C705 N702 1.336 . S
C705 C704 1.346 . S
C705 H712 0.929 1_455 S
C706 O696 1.282 1_655 S
C706 O707 1.216 . S
O707 C706 1.216 . S
H708 C703 0.930 . S
H709 C704 0.930 1_655 S
O710 Cu690 1.959 . S
O710 C697 1.251 . S
H711 C694 0.930 . S
H712 C705 0.929 1_655 S
Cu713 N714 1.999 . S
Cu713 O719 1.974 . S
Cu713 N724 1.985 . S
Cu713 O733 1.959 . S
N714 Cu713 1.999 . S
N714 C716 1.263 . S
N714 C718 1.389 . S
N715 C716 1.358 . S
N715 C717 1.400 . S
C716 N714 1.263 . S
C716 N715 1.358 . S
C716 H722 0.930 . S
C717 N715 1.400 . S
C717 C718 1.351 . S
C717 H734 0.930 . S
C718 N714 1.389 . S
C718 C717 1.351 . S
C718 H723 0.930 . S
O719 Cu713 1.974 . S
O719 C729 1.282 . S
C720 O721 1.261 . S
C720 O733 1.251 . S
O721 C720 1.261 . S
H722 C716 0.930 . S
H723 C718 0.930 . S
N724 Cu713 1.985 . S
N724 C726 1.335 . S
N724 C727 1.390 . S
N725 C726 1.345 . S
N725 C728 1.336 . S
C726 N724 1.335 . S
C726 N725 1.345 . S
C726 H731 0.930 . S
C727 N724 1.390 . S
C727 C728 1.346 . S
C727 H732 0.930 . S
C728 N725 1.336 . S
C728 C727 1.346 . S
C728 H735 0.929 . S
C729 O719 1.282 . S
C729 O730 1.216 . S
O730 C729 1.216 . S
H731 C726 0.930 . S
H732 C727 0.930 . S
O733 Cu713 1.959 . S
O733 C720 1.251 . S
H734 C717 0.930 . S
H735 C728 0.929 . S
C7 N485 2.596 . S
C513 N25 2.596 . S
C53 N531 2.596 . S
C467 N71 2.596 . S
C99 N439 2.596 . S
N117 C375 2.596 . S
N393 C145 2.596 . S
N163 C421 2.596 . S
C191 C674 2.888 . S
C214 C697 2.888 . S
C720 C237 2.888 . S
C651 C260 2.888 . S
C283 C628 2.888 . S
C559 C306 2.888 . S
C329 C582 2.888 . S
C605 C352 2.888 . S
N2 C223 2.123 . S
C30 C614 2.350 . S
C269 N48 2.123 . S
C76 C568 2.350 . S
N94 C361 2.123 . S
C660 C122 2.350 . S
C315 N140 2.123 . S
C706 C168 2.350 . S
N186 N35 2.092 . S
C430 N209 1.103 . S
N81 N232 2.092 . S
N255 C384 1.103 . S
N173 N278 2.092 . S
C476 N301 1.103 . S
N127 N324 2.092 . S
N347 C522 1.103 . S
C591 N370 2.123 . S
C246 C398 2.350 . S
C637 N416 2.123 . S
C444 C200 2.350 . S
C729 N462 2.123 . S
C292 C490 2.350 . S
C683 N508 2.123 . S
C536 C338 2.350 . S
N554 N403 2.092 . S
C62 N577 1.103 . S
N600 N449 2.092 . S
N623 C16 1.103 . S
N646 N541 2.092 . S
C108 N669 1.103 . S
N495 N692 2.092 . S
N715 C154 1.103 . S
N12 N104 1.511 . S
C39 C131 1.983 . S
N150 N58 1.511 . S
C177 C85 1.983 1_556 S
N288 N196 1.642 . S
N311 N219 1.704 . S
N334 N242 1.642 . S
N357 N265 1.704 1_556 S
N380 N472 1.511 1_565 S
C407 C499 1.983 1_554 S
N426 N518 1.511 1_545 S
C545 C453 1.983 . S
N564 N656 1.642 1_545 S
N679 N587 1.704 1_556 S
N702 N610 1.642 1_545 S
N725 N633 1.704 . S
