# Generated by pormake.
# Topology swi, (7)-cn, num edge types: 1
# Building blocks:
#     Node 0, Type 0, BuildingBlock: HICVOG_clean_sbu_0, # of connection points: 7
#     Node 1, Type 0, BuildingBlock: HICVOG_clean_sbu_0, # of connection points: 7
#     Node 2, Type 0, BuildingBlock: HICVOG_clean_sbu_0, # of connection points: 7
#     Node 3, Type 0, BuildingBlock: HICVOG_clean_sbu_0, # of connection points: 7
#     Node 4, Type 0, BuildingBlock: HICVOG_clean_sbu_0, # of connection points: 7
#     Node 5, Type 0, BuildingBlock: HICVOG_clean_sbu_0, # of connection points: 7
#     Node 6, Type 0, BuildingBlock: HICVOG_clean_sbu_0, # of connection points: 7
#     Node 7, Type 0, BuildingBlock: HICVOG_clean_sbu_0, # of connection points: 7
#     Node 8, Type 0, BuildingBlock: HICVOG_clean_sbu_0, # of connection points: 7
#     Node 9, Type 0, BuildingBlock: HICVOG_clean_sbu_0, # of connection points: 7
#     Node 10, Type 0, BuildingBlock: HICVOG_clean_sbu_0, # of connection points: 7
#     Node 11, Type 0, BuildingBlock: HICVOG_clean_sbu_0, # of connection points: 7
#     Edge 12, Type (0, 0), BuildingBlock: OJICUG_clean_linker_0, # of connection points: 2
#     Edge 13, Type (0, 0), BuildingBlock: OJICUG_clean_linker_0, # of connection points: 2
#     Edge 14, Type (0, 0), BuildingBlock: OJICUG_clean_linker_0, # of connection points: 2
#     Edge 15, Type (0, 0), BuildingBlock: OJICUG_clean_linker_0, # of connection points: 2
#     Edge 16, Type (0, 0), BuildingBlock: OJICUG_clean_linker_0, # of connection points: 2
#     Edge 17, Type (0, 0), BuildingBlock: OJICUG_clean_linker_0, # of connection points: 2
#     Edge 18, Type (0, 0), BuildingBlock: OJICUG_clean_linker_0, # of connection points: 2
#     Edge 19, Type (0, 0), BuildingBlock: OJICUG_clean_linker_0, # of connection points: 2
#     Edge 20, Type (0, 0), BuildingBlock: OJICUG_clean_linker_0, # of connection points: 2
#     Edge 21, Type (0, 0), BuildingBlock: OJICUG_clean_linker_0, # of connection points: 2
#     Edge 22, Type (0, 0), BuildingBlock: OJICUG_clean_linker_0, # of connection points: 2
#     Edge 23, Type (0, 0), BuildingBlock: OJICUG_clean_linker_0, # of connection points: 2
#     Edge 24, Type (0, 0), BuildingBlock: OJICUG_clean_linker_0, # of connection points: 2
#     Edge 25, Type (0, 0), BuildingBlock: OJICUG_clean_linker_0, # of connection points: 2
#     Edge 26, Type (0, 0), BuildingBlock: OJICUG_clean_linker_0, # of connection points: 2
#     Edge 27, Type (0, 0), BuildingBlock: OJICUG_clean_linker_0, # of connection points: 2
#     Edge 28, Type (0, 0), BuildingBlock: OJICUG_clean_linker_0, # of connection points: 2
#     Edge 29, Type (0, 0), BuildingBlock: OJICUG_clean_linker_0, # of connection points: 2
#     Edge 30, Type (0, 0), BuildingBlock: OJICUG_clean_linker_0, # of connection points: 2
#     Edge 31, Type (0, 0), BuildingBlock: OJICUG_clean_linker_0, # of connection points: 2
#     Edge 32, Type (0, 0), BuildingBlock: OJICUG_clean_linker_0, # of connection points: 2
#     Edge 33, Type (0, 0), BuildingBlock: OJICUG_clean_linker_0, # of connection points: 2
#     Edge 34, Type (0, 0), BuildingBlock: OJICUG_clean_linker_0, # of connection points: 2
#     Edge 35, Type (0, 0), BuildingBlock: OJICUG_clean_linker_0, # of connection points: 2
#     Edge 36, Type (0, 0), BuildingBlock: OJICUG_clean_linker_0, # of connection points: 2
#     Edge 37, Type (0, 0), BuildingBlock: OJICUG_clean_linker_0, # of connection points: 2
#     Edge 38, Type (0, 0), BuildingBlock: OJICUG_clean_linker_0, # of connection points: 2
#     Edge 39, Type (0, 0), BuildingBlock: OJICUG_clean_linker_0, # of connection points: 2
#     Edge 40, Type (0, 0), BuildingBlock: OJICUG_clean_linker_0, # of connection points: 2
#     Edge 41, Type (0, 0), BuildingBlock: OJICUG_clean_linker_0, # of connection points: 2
#     Edge 42, Type (0, 0), BuildingBlock: OJICUG_clean_linker_0, # of connection points: 2
#     Edge 43, Type (0, 0), BuildingBlock: OJICUG_clean_linker_0, # of connection points: 2
#     Edge 44, Type (0, 0), BuildingBlock: OJICUG_clean_linker_0, # of connection points: 2
#     Edge 45, Type (0, 0), BuildingBlock: OJICUG_clean_linker_0, # of connection points: 2
#     Edge 46, Type (0, 0), BuildingBlock: OJICUG_clean_linker_0, # of connection points: 2
#     Edge 47, Type (0, 0), BuildingBlock: OJICUG_clean_linker_0, # of connection points: 2
#     Edge 48, Type (0, 0), BuildingBlock: OJICUG_clean_linker_0, # of connection points: 2
#     Edge 49, Type (0, 0), BuildingBlock: OJICUG_clean_linker_0, # of connection points: 2
#     Edge 50, Type (0, 0), BuildingBlock: OJICUG_clean_linker_0, # of connection points: 2
#     Edge 51, Type (0, 0), BuildingBlock: OJICUG_clean_linker_0, # of connection points: 2
#     Edge 52, Type (0, 0), BuildingBlock: OJICUG_clean_linker_0, # of connection points: 2
#     Edge 53, Type (0, 0), BuildingBlock: OJICUG_clean_linker_0, # of connection points: 2
# Relax obj value: 0.319
# Max RMSD: 0.248
# Mean RMSD: 0.248
data_MOF--net-swi--node1-HICVOG_clean_sbu_0--edge1-OJICUG_clean_linker_0
_symmetry_space_group_name_H-M    P1
_symmetry_Int_Tables_number       1
_symmetry_cell_setting            triclinic
loop_
_symmetry_equiv_pos_as_xyz
'x, y, z'
_cell_length_a     30.37879
_cell_length_b     30.490858
_cell_length_c     30.304893
_cell_angle_alpha  89.958679
_cell_angle_beta   90.075086
_cell_angle_gamma 119.89398
loop_
_atom_site_label
_atom_site_type_symbol
_atom_site_fract_x
_atom_site_fract_y
_atom_site_fract_z
_atom_type_partial_charge
Zn0 Zn 0.40797 0.08915 0.98851 0.0
C1 C 0.52249 0.13517 0.07937 0.0
N2 N 0.53183 0.10145 0.06022 0.0
C3 C 0.49418 0.07818 1.03088 0.0
N4 N 0.46133 0.09656 1.03194 0.0
N5 N 0.47898 0.131 0.06406 0.0
C6 C 0.52321 0.26446 0.08135 0.0
O7 O 0.50593 0.24858 1.04132 0.0
O8 O 0.3487 0.0165 0.98634 0.0
Zn9 Zn 0.44934 0.16449 0.0969 0.0
N10 N 0.43658 0.10471 0.92867 0.0
C11 C 0.47055 0.08312 0.86704 0.0
C12 C 0.45218 0.07427 0.91005 0.0
C13 C 0.43708 0.14305 0.90496 0.0
N14 N 0.4711 0.1212 0.84354 0.0
C15 C 0.45459 0.15167 0.86082 0.0
O16 O 0.39938 0.17471 0.06377 0.0
C17 C 0.37537 0.16536 1.02765 0.0
O18 O 0.37782 0.13655 0.99834 0.0
H19 H 0.44919 0.04249 0.92785 0.0
H20 H 0.42222 0.16502 0.92006 0.0
C21 C 0.41877 0.16052 0.18602 0.0
C22 C 0.39831 0.13852 0.2273 0.0
C23 C 0.38018 0.0586 0.19847 0.0
C24 C 0.40042 0.08075 0.15769 0.0
N25 N 0.41945 0.13122 0.15236 0.0
N26 N 0.37976 0.08785 0.23214 0.0
H27 H 0.43508 0.2007 0.18064 0.0
C28 C 0.31154 -0.0008 1.01308 0.0
O29 O 0.31138 0.02888 0.04443 0.0
O30 O 0.50433 0.23406 0.11337 0.0
H31 H 0.40126 0.05809 0.1306 0.0
H32 H 0.48328 0.05918 0.85205 0.0
H33 H 0.36504 0.01847 0.20339 0.0
Zn34 Zn 0.27621 0.44486 0.08919 0.0
C35 C 0.40598 0.49107 1.01987 0.0
N36 N 0.42094 0.5288 0.04903 0.0
C37 C 0.37867 0.5181 0.07056 0.0
N38 N 0.33911 0.47446 0.0562 0.0
N39 N 0.35526 0.45723 1.02318 0.0
C40 C 0.30297 0.30694 1.01334 0.0
O41 O 0.27242 0.30839 0.04324 0.0
O42 O 0.2605 0.49932 0.10545 0.0
Zn43 Zn 0.30968 0.40154 0.98217 0.0
N44 N 0.28031 0.41498 0.14425 0.0
C45 C 0.31322 0.37453 0.18973 0.0
C46 C 0.31129 0.39512 0.14912 0.0
C47 C 0.25087 0.41485 0.17816 0.0
N48 N 0.28398 0.37456 0.22367 0.0
C49 C 0.25234 0.39396 0.21921 0.0
O50 O 0.23231 0.37303 0.99086 0.0
C51 C 0.2012 0.37117 1.02012 0.0
O52 O 0.21604 0.39516 0.05616 0.0
H53 H 0.33435 0.3955 0.12177 0.0
H54 H 0.22741 0.43183 0.17307 0.0
C55 C 0.28804 0.43105 0.8976 0.0
C56 C 0.29653 0.44457 0.85245 0.0
C57 C 0.37597 0.44724 0.85743 0.0
C58 C 0.3665 0.43245 0.90142 0.0
N59 N 0.32338 0.42564 0.92108 0.0
N60 N 0.34086 0.45262 0.8341 0.0
H61 H 0.25315 0.42283 0.91382 0.0
C62 C 0.25003 0.51853 0.0729 0.0
O63 O 0.25087 0.50219 1.03296 0.0
O64 O 0.32319 0.34247 0.98516 0.0
H65 H 0.39268 0.42501 0.91922 0.0
H66 H 0.33783 0.35871 0.19431 0.0
H67 H 0.41036 0.45309 0.84155 0.0
Zn68 Zn 0.9025 0.31374 0.9704 0.0
C69 C 0.85641 0.3856 0.05754 0.0
N70 N 0.88667 0.42689 1.0345 0.0
C71 C 0.90883 0.41109 1.00535 0.0
N72 N 0.8926 0.36071 1.01004 0.0
N73 N 0.86049 0.34578 0.04402 0.0
C74 C 0.72564 0.25885 0.06884 0.0
O75 O 0.73733 0.25637 1.02753 0.0
O76 O 0.97428 0.32528 0.97543 0.0
Zn77 Zn 0.82729 0.28363 0.07785 0.0
N78 N 0.89434 0.32684 0.90841 0.0
C79 C 0.92981 0.37603 0.84355 0.0
C80 C 0.93326 0.3673 0.88811 0.0
C81 C 0.85276 0.29305 0.88498 0.0
N82 N 0.88853 0.34251 0.82028 0.0
C83 C 0.84965 0.30053 0.8392 0.0
O84 O 0.81209 0.22302 0.04356 0.0
C85 C 0.82045 0.2069 1.00785 0.0
O86 O 0.85189 0.23708 0.9793 0.0
H87 H 0.96753 0.3917 0.90583 0.0
H88 H 0.82394 0.25997 0.9018 0.0
C89 C 0.83354 0.25643 0.16571 0.0
C90 C 0.85608 0.25677 0.20644 0.0
C91 C 0.93664 0.31551 0.17629 0.0
C92 C 0.91389 0.31486 0.13603 0.0
N93 N 0.86281 0.2855 0.13165 0.0
N94 N 0.90737 0.28681 0.21041 0.0
H95 H 0.79291 0.23426 0.16113 0.0
C96 C 0.98829 0.30411 1.00392 0.0
O97 O 0.95536 0.27384 1.0333 0.0
O98 O 0.75936 0.27121 0.09826 0.0
H99 H 0.93654 0.33776 0.10866 0.0
H100 H 0.96043 0.40839 0.82718 0.0
H101 H 0.97727 0.33886 0.18048 0.0
Zn102 Zn 0.53746 0.81996 0.09302 0.0
C103 C 0.49155 0.90224 1.02152 0.0
N104 N 0.4514 0.87685 0.04794 0.0
C105 C 0.46182 0.84535 0.06988 0.0
N106 N 0.50736 0.8517 0.05836 0.0
N107 N 0.52625 0.88654 1.02665 0.0
C108 C 0.67985 -0.00492 0.97245 0.0
O109 O 0.67957 0.9742 0.93447 0.0
O110 O 0.48283 0.75087 0.11094 0.0
Zn111 Zn 0.58527 0.89933 0.98882 0.0
N112 N 0.56791 0.85501 0.14754 0.0
C113 C 0.60728 0.92815 0.19299 0.0
C114 C 0.58633 0.90542 0.15252 0.0
C115 C 0.56978 0.82635 0.18119 0.0
N116 N 0.60895 0.8995 0.22667 0.0
C117 C 0.59097 0.84888 0.22211 0.0
O118 O 0.6119 0.84879 0.99632 0.0
C119 C 0.61203 0.81827 1.02515 0.0
O120 O 0.58703 0.80862 0.06069 0.0
H121 H 0.58452 0.92758 0.1254 0.0
H122 H 0.55383 0.78619 0.17601 0.0
C123 C 0.56013 0.85539 0.9013 0.0
C124 C 0.55154 0.8551 0.85546 0.0
C125 C 0.55503 0.93433 0.86267 0.0
C126 C 0.56469 0.93489 0.90765 0.0
N127 N 0.56664 0.89536 0.92636 0.0
N128 N 0.54914 0.89488 0.83768 0.0
H129 H 0.56389 0.82542 0.91669 0.0
C130 C 0.46341 0.72005 0.07927 0.0
O131 O 0.48007 0.73537 1.03902 0.0
O132 O 0.64462 0.97005 1.0003 0.0
H133 H 0.57238 0.96748 0.92706 0.0
H134 H 0.62199 0.96825 0.19767 0.0
H135 H 0.5535 0.96566 0.84747 0.0
Zn136 Zn 0.67666 0.58155 0.98135 0.0
C137 C 0.60734 0.46691 0.07146 0.0
N138 N 0.56496 0.45629 0.05006 0.0
C139 C 0.57995 0.49349 1.02034 0.0
N140 N 0.63082 0.52698 1.02316 0.0
N141 N 0.64696 0.51018 0.05655 0.0
C142 C 0.73505 0.46673 0.07373 0.0
O143 O 0.7334 0.4827 1.0338 0.0
O144 O 0.66336 0.64062 0.98292 0.0
Zn145 Zn 0.70984 0.54051 0.0896 0.0
N146 N 0.66278 0.55596 0.92071 0.0
C147 C 0.60881 0.53017 0.85768 0.0
C148 C 0.61855 0.5464 0.9013 0.0
C149 C 0.6989 0.55193 0.89728 0.0
N150 N 0.64468 0.52614 0.8344 0.0
C151 C 0.69008 0.53696 0.85247 0.0
O152 O 0.77013 0.58993 0.05658 0.0
C153 C 0.78525 0.61327 1.02027 0.0
O154 O 0.75427 0.61065 0.99044 0.0
H155 H 0.59161 0.55271 0.91897 0.0
H156 H 0.73453 0.56229 0.91324 0.0
C157 C 0.73578 0.57151 0.17813 0.0
C158 C 0.73478 0.59286 0.21902 0.0
C159 C 0.67336 0.6117 0.18964 0.0
C160 C 0.67483 0.59065 0.14917 0.0
N161 N 0.70587 0.57086 0.14435 0.0
N162 N 0.70308 0.61219 0.22347 0.0
H163 H 0.75927 0.55457 0.17306 0.0
C164 C 0.68264 0.67532 1.01189 0.0
O165 O 0.71157 0.6726 0.04278 0.0
O166 O 0.7255 0.4864 0.10641 0.0
H167 H 0.65142 0.58987 0.12191 0.0
H168 H 0.57352 0.5221 0.84202 0.0
H169 H 0.64872 0.62748 0.1942 0.0
Zn170 Zn 0.16023 0.70548 0.08154 0.0
C171 C 0.08035 0.58119 1.00507 0.0
N172 N 0.10194 0.56408 1.03361 0.0
C173 C 0.13211 0.60432 0.05782 0.0
N174 N 0.12839 0.64482 0.04564 0.0
N175 N 0.0968 0.63141 1.01129 0.0
C176 C -0.00022 0.68529 1.00649 0.0
O177 O 0.03109 0.71306 1.03795 0.0
O178 O 0.22805 0.71742 0.10106 0.0
Zn179 Zn 0.08825 0.68019 0.97289 0.0
N180 N 0.12432 0.7007 0.1356 0.0
C181 C 0.05091 0.66841 0.18088 0.0
C182 C 0.07352 0.66982 0.1404 0.0
C183 C 0.15343 0.73051 0.16939 0.0
N184 N 0.08005 0.69799 0.21472 0.0
C185 C 0.13105 0.72954 0.21027 0.0
O186 O 0.13805 0.75676 0.98461 0.0
C187 C 0.16716 0.7855 1.01514 0.0
O188 O 0.17451 0.76794 0.05049 0.0
H189 H 0.05098 0.64647 0.11316 0.0
H190 H 0.19385 0.75389 0.16434 0.0
C191 C 0.14043 0.70478 0.88848 0.0
C192 C 0.14402 0.69984 0.84234 0.0
C193 C 0.06434 0.62355 0.84432 0.0
C194 C 0.06018 0.63002 0.88924 0.0
N195 N 0.09846 0.66986 0.91076 0.0
N196 N 0.10564 0.6586 0.82205 0.0
H197 H 0.16972 0.73624 0.90667 0.0
C198 C 0.25998 0.72808 0.0704 0.0
O199 O 0.24645 0.73013 1.02958 0.0
O200 O 0.0158 0.66754 0.97658 0.0
H201 H 0.02594 0.60427 0.90641 0.0
H202 H 0.01051 0.64389 0.18543 0.0
H203 H 0.03421 0.59174 0.82693 0.0
Zn204 Zn 0.82632 0.54112 0.49913 0.0
C205 C 0.90724 0.49383 0.57125 0.0
N206 N 0.88461 0.45582 0.54232 0.0
C207 C 0.85398 0.4669 0.51962 0.0
N208 N 0.85832 0.5109 0.53315 0.0
N209 N 0.89096 0.52805 0.56677 0.0
C210 C 0.98751 0.67732 0.57318 0.0
O211 O 0.95534 0.67372 0.54243 0.0
O212 O 0.75666 0.48702 0.48189 0.0
Zn213 Zn 0.90063 0.58425 0.60686 0.0
N214 N 0.86116 0.57107 0.44448 0.0
C215 C 0.93453 0.61087 0.39909 0.0
C216 C 0.9119 0.59026 0.43966 0.0
C217 C 0.83208 0.57189 0.41062 0.0
N218 N 0.90546 0.61151 0.36518 0.0
C219 C 0.85452 0.59277 0.36964 0.0
O220 O 0.85127 0.61233 0.59766 0.0
C221 C 0.82287 0.61433 0.56752 0.0
O222 O 0.81502 0.59066 0.53143 0.0
H223 H 0.9344 0.58934 0.46697 0.0
H224 H 0.79169 0.55541 0.41569 0.0
C225 C 0.85033 0.55454 0.6917 0.0
C226 C 0.84642 0.5422 0.7371 0.0
C227 C 0.92543 0.54395 0.73241 0.0
C228 C 0.92964 0.55767 0.6882 0.0
N229 N 0.89168 0.56162 0.66829 0.0
N230 N 0.88435 0.53688 0.75569 0.0
H231 H 0.82234 0.56059 0.67516 0.0
C232 C 0.72682 0.46728 0.51419 0.0
O233 O 0.74377 0.48299 0.55433 0.0
O234 O 0.97266 0.64348 0.60288 0.0
H235 H 0.96367 0.56662 0.67041 0.0
H236 H 0.97489 0.62618 0.39452 0.0
H237 H 0.95528 0.54032 0.7485 0.0
Zn238 Zn 0.30888 0.90007 0.59473 0.0
C239 C 0.3783 0.8473 0.5122 0.0
N240 N 0.42037 0.87898 0.53388 0.0
C241 C 0.40555 0.90381 0.56092 0.0
N242 N 0.355 0.88769 0.55636 0.0
N243 N 0.33898 0.85311 0.52442 0.0
C244 C 0.25072 0.72154 0.50562 0.0
O245 O 0.25014 0.7381 0.54553 0.0
O246 O 0.32051 0.97102 0.58418 0.0
Zn247 Zn 0.27692 0.82106 0.49003 0.0
N248 N 0.32315 0.89481 0.65707 0.0
C249 C 0.37423 0.93189 0.72089 0.0
C250 C 0.36523 0.93338 0.676 0.0
C251 C 0.28895 0.85493 0.68184 0.0
N252 N 0.33998 0.89253 0.74559 0.0
C253 C 0.29717 0.85372 0.72762 0.0
O254 O 0.21617 0.81052 0.52216 0.0
C255 C 0.20094 0.82014 0.55778 0.0
O256 O 0.23173 0.85012 0.58681 0.0
H257 H 0.39076 0.96593 0.65685 0.0
H258 H 0.25479 0.82579 0.6663 0.0
C259 C 0.25098 0.82635 0.4015 0.0
C260 C 0.25247 0.84849 0.36033 0.0
C261 C 0.31582 0.92792 0.38886 0.0
C262 C 0.3139 0.9056 0.42958 0.0
N263 N 0.28164 0.8553 0.43498 0.0
N264 N 0.28537 0.89899 0.35536 0.0
H265 H 0.22656 0.78628 0.40703 0.0
C266 C 0.31095 -0.00388 0.61245 0.0
O267 O 0.29106 0.97531 0.65063 0.0
O268 O 0.26186 0.75147 0.47328 0.0
H269 H 0.33795 0.92799 0.45657 0.0
H270 H 0.4076 0.96244 0.73626 0.0
H271 H 0.34143 0.96792 0.38384 0.0
Zn272 Zn 0.45132 0.28412 0.50681 0.0
C273 C 0.4964 0.41202 0.57824 0.0
N274 N 0.53437 0.42775 0.5491 0.0
C275 C 0.52376 0.38627 0.52658 0.0
N276 N 0.47997 0.34644 0.54031 0.0
N277 N 0.46255 0.36151 0.57401 0.0
C278 C 0.31041 0.30549 0.58236 0.0
O279 O 0.31252 0.27528 0.5526 0.0
O280 O 0.50706 0.27198 0.48664 0.0
Zn281 Zn 0.40628 0.31465 0.61433 0.0
N282 N 0.41758 0.28547 0.45287 0.0
C283 C 0.37341 0.31487 0.40799 0.0
C284 C 0.39564 0.31459 0.44829 0.0
C285 C 0.41789 0.25628 0.41896 0.0
N286 N 0.37408 0.28604 0.37403 0.0
C287 C 0.39556 0.25624 0.37819 0.0
O288 O 0.37993 0.23793 0.60538 0.0
C289 C 0.38128 0.20768 0.57696 0.0
O290 O 0.40593 0.22372 0.54131 0.0
H291 H 0.3958 0.33759 0.47553 0.0
H292 H 0.43652 0.2343 0.4237 0.0
C293 C 0.4349 0.29312 0.69967 0.0
C294 C 0.44655 0.30099 0.74525 0.0
C295 C 0.44609 0.37861 0.74043 0.0
C296 C 0.43301 0.36966 0.69604 0.0
N297 N 0.42877 0.32786 0.67606 0.0
N298 N 0.45222 0.34416 0.76386 0.0
H299 H 0.42855 0.25908 0.68323 0.0
C300 C 0.5284 0.25967 0.51611 0.0
O301 O 0.51398 0.25694 0.55738 0.0
O302 O 0.34602 0.3264 0.61052 0.0
H303 H 0.42462 0.39505 0.67821 0.0
H304 H 0.35595 0.33803 0.40364 0.0
H305 H 0.44992 0.412 0.75653 0.0
Zn306 Zn 0.08623 0.4027 0.60723 0.0
C307 C 0.13315 0.51965 0.51926 0.0
N308 N 0.10203 0.53052 0.5413 0.0
C309 C 0.07953 0.49281 0.57052 0.0
N310 N 0.0963 0.4589 0.56682 0.0
N311 N 0.12925 0.47605 0.53346 0.0
C312 C 0.26246 0.52091 0.51453 0.0
O313 O 0.24639 0.50535 0.55487 0.0
O314 O 0.01377 0.34345 0.60346 0.0
Zn315 Zn 0.16216 0.44644 0.49993 0.0
N316 N 0.09615 0.42578 0.66865 0.0
C317 C 0.06435 0.44539 0.73288 0.0
C318 C 0.05928 0.43135 0.68871 0.0
C319 C 0.13722 0.43162 0.69189 0.0
N320 N 0.10513 0.45117 0.75598 0.0
C321 C 0.14197 0.44425 0.73727 0.0
O322 O 0.1735 0.3972 0.53274 0.0
C323 C 0.16474 0.37314 0.56871 0.0
O324 O 0.13547 0.37463 0.59816 0.0
H325 H 0.02543 0.42348 0.67109 0.0
H326 H 0.16435 0.42446 0.67522 0.0
C327 C 0.15648 0.41561 0.41127 0.0
C328 C 0.13386 0.39451 0.37036 0.0
C329 C 0.05379 0.3755 0.40011 0.0
C330 C 0.07657 0.39632 0.4406 0.0
N331 N 0.12743 0.41607 0.44525 0.0
N332 N 0.08281 0.37521 0.36609 0.0
H333 H 0.19696 0.43253 0.41619 0.0
C334 C -0.00113 0.30868 0.57459 0.0
O335 O 0.03122 0.31109 0.54461 0.0
O336 O 0.23194 0.50094 0.48263 0.0
H337 H 0.05411 0.39698 0.468 0.0
H338 H 0.03538 0.4503 0.74908 0.0
H339 H 0.01333 0.35976 0.39569 0.0
Zn340 Zn 0.71087 0.16571 0.48813 0.0
C341 C 0.57921 0.07919 0.55347 0.0
N342 N 0.56503 0.10264 0.52415 0.0
C343 C 0.60822 0.13644 0.50521 0.0
N344 N 0.64745 0.1321 0.52059 0.0
N345 N 0.63044 0.09749 0.55257 0.0
C346 C 0.68222 0.00024 0.57105 0.0
O347 O 0.71156 0.03001 0.5395 0.0
O348 O 0.72569 0.23545 0.472 0.0
Zn349 Zn 0.67601 0.08998 0.59625 0.0
N350 N 0.70778 0.13254 0.43271 0.0
C351 C 0.67493 0.05967 0.38697 0.0
C352 C 0.67666 0.08198 0.42761 0.0
C353 C 0.73761 0.16179 0.39895 0.0
N354 N 0.70445 0.08885 0.3532 0.0
C355 C 0.73626 0.13962 0.35781 0.0
O356 O 0.75364 0.13751 0.58696 0.0
C357 C 0.78519 0.16641 0.55785 0.0
O358 O 0.77085 0.17582 0.52159 0.0
H359 H 0.6533 0.05936 0.45479 0.0
H360 H 0.76125 0.20204 0.40416 0.0
C361 C 0.70015 0.14368 0.67968 0.0
C362 C 0.6911 0.15236 0.72374 0.0
C363 C 0.6066 0.08374 0.71738 0.0
C364 C 0.61629 0.07484 0.67443 0.0
N365 N 0.66242 0.1053 0.65594 0.0
N366 N 0.64406 0.12188 0.74093 0.0
H367 H 0.73705 0.16565 0.66468 0.0
C368 C 0.73664 0.26513 0.5045 0.0
O369 O 0.73736 0.24837 0.54431 0.0
O370 O 0.66269 0.01743 0.59825 0.0
H371 H 0.58757 0.04303 0.65659 0.0
H372 H 0.65019 0.01946 0.38222 0.0
H373 H 0.56988 0.0598 0.73229 0.0
Zn374 Zn 0.58583 0.68112 0.61013 0.0
C375 C 0.46638 0.6058 0.5248 0.0
N376 N 0.45643 0.56532 0.54861 0.0
C377 C 0.49507 0.58226 0.57722 0.0
N378 N 0.52875 0.63256 0.57138 0.0
N379 N 0.51058 0.64622 0.53721 0.0
C380 C 0.46298 0.7301 0.51208 0.0
O381 O 0.47874 0.73257 0.5529 0.0
O382 O 0.64555 0.66826 0.60731 0.0
Zn383 Zn 0.5397 0.7069 0.50134 0.0
N384 N 0.5645 0.67071 0.67205 0.0
C385 C 0.55061 0.6237 0.73833 0.0
C386 C 0.56195 0.6304 0.69354 0.0
C387 C 0.55783 0.70589 0.69428 0.0
N388 N 0.54471 0.65897 0.76055 0.0
C389 C 0.54862 0.70068 0.74031 0.0
O390 O 0.58795 0.76922 0.53252 0.0
C391 C 0.61282 0.78661 0.56792 0.0
O392 O 0.61297 0.75773 0.59841 0.0
H393 H 0.57018 0.60444 0.67647 0.0
H394 H 0.56078 0.73773 0.67617 0.0
C395 C 0.57188 0.73177 0.41352 0.0
C396 C 0.59337 0.73065 0.37273 0.0
C397 C 0.61214 0.66951 0.40244 0.0
C398 C 0.59085 0.67106 0.44283 0.0
N399 N 0.57101 0.70201 0.44742 0.0
N400 N 0.61273 0.69902 0.36848 0.0
H401 H 0.5549 0.75522 0.4184 0.0
C402 C 0.68003 0.68622 0.57801 0.0
O403 O 0.67737 0.71438 0.54644 0.0
O404 O 0.48401 0.71899 0.48155 0.0
H405 H 0.5899 0.64775 0.47016 0.0
H406 H 0.5481 0.5915 0.75568 0.0
H407 H 0.62796 0.64492 0.39805 0.0
C408 C 0.23702 0.92336 0.04635 0.0
C409 C 0.27022 0.94548 1.01054 0.0
H410 H 0.17804 0.85532 0.07539 0.0
C411 C 0.26452 0.91522 0.9734 0.0
H412 H 0.24015 0.94539 0.07541 0.0
C413 C 0.22772 0.86352 0.97297 0.0
C414 C 0.19667 0.84113 1.00997 0.0
H415 H 0.28932 0.93117 0.94515 0.0
H416 H 0.22571 0.84054 0.94495 0.0
C417 C 0.20115 0.87178 0.04624 0.0
C418 C 0.3046 0.23482 0.05138 0.0
C419 C 0.3158 0.26583 1.01398 0.0
H420 H 0.31438 0.17822 0.08457 0.0
C421 C 0.34108 0.25835 0.97829 0.0
H422 H 0.28513 0.23937 0.0794 0.0
C423 C 0.35671 0.22212 0.98087 0.0
C424 C 0.34809 0.19343 1.01946 0.0
H425 H 0.35002 0.28143 0.94887 0.0
H426 H 0.37833 0.21889 0.95392 0.0
C427 C 0.32104 0.1995 0.05425 0.0
C428 C 0.07499 0.33932 0.96954 0.0
C429 C 0.04183 0.31543 1.00527 0.0
H430 H 0.15178 0.37423 0.94557 0.0
C431 C 0.06087 0.30421 0.04326 0.0
H432 H 0.06139 0.3482 0.93967 0.0
C433 C 0.11239 0.31937 0.04661 0.0
C434 C 0.14594 0.34508 1.01173 0.0
H435 H 0.03647 0.28578 0.07131 0.0
H436 H 0.12651 0.31279 0.07732 0.0
C437 C 0.12656 0.35363 0.97261 0.0
C438 C 0.7525 0.07969 0.94868 0.0
C439 C 0.71907 0.04829 0.98182 0.0
H440 H 0.81102 0.15456 0.93063 0.0
C441 C 0.7221 0.06879 1.02386 0.0
H442 H 0.75113 0.06504 0.91586 0.0
C443 C 0.75652 0.1196 1.03235 0.0
C444 C 0.78879 0.15172 0.99895 0.0
H445 H 0.69727 0.04575 0.05023 0.0
H446 H 0.75683 0.13392 0.06512 0.0
C447 C 0.78697 0.13097 0.95713 0.0
C448 C 0.64641 0.72531 0.97613 0.0
C449 C 0.67028 0.71672 1.01239 0.0
H450 H 0.61059 0.76596 0.95108 0.0
C451 C 0.68046 0.74685 0.05022 0.0
H452 H 0.63829 0.70289 0.94637 0.0
C453 C 0.66438 0.78243 0.05288 0.0
C454 C 0.63872 0.7896 1.01747 0.0
H455 H 0.69884 0.74143 0.07868 0.0
H456 H 0.67026 0.80307 0.08345 0.0
C457 C 0.63112 0.7618 0.97852 0.0
C458 C 0.92538 0.68175 0.04539 0.0
C459 C 0.94569 0.67245 1.00727 0.0
H460 H 0.85865 0.67072 0.07893 0.0
C461 C 0.91328 0.649 0.97094 0.0
H462 H 0.9491 0.69981 0.07392 0.0
C463 C 0.86129 0.63331 0.9735 0.0
C464 C 0.84076 0.64009 1.01268 0.0
H465 H 0.92779 0.64152 0.94096 0.0
H466 H 0.83676 0.61318 0.94592 0.0
C467 C 0.87355 0.66535 0.04819 0.0
C468 C 0.07391 0.72863 0.60819 0.0
C469 C 0.04121 0.71876 0.57187 0.0
H470 H 0.1505 0.77022 0.63281 0.0
C471 C 0.06088 0.74758 0.53331 0.0
H472 H 0.05981 0.70726 0.63849 0.0
C473 C 0.11252 0.78311 0.5301 0.0
C474 C 0.1456 0.79152 0.56563 0.0
H475 H 0.03686 0.74113 0.5048 0.0
H476 H 0.12706 0.80274 0.49906 0.0
C477 C 0.12564 0.76507 0.60522 0.0
C478 C 0.32328 0.08078 0.63651 0.0
C479 C 0.32464 0.04926 0.60316 0.0
H480 H 0.33995 0.15572 0.65468 0.0
C481 C 0.34106 0.06954 0.56088 0.0
H482 H 0.31078 0.06629 0.66952 0.0
C483 C 0.35717 0.12027 0.55236 0.0
C484 C 0.35776 0.15254 0.58595 0.0
H485 H 0.34229 0.04639 0.53432 0.0
H486 H 0.3704 0.13444 0.51939 0.0
C487 C 0.33979 0.13199 0.62803 0.0
C488 C 0.2374 0.30578 0.54419 0.0
C489 C 0.26835 0.31709 0.58174 0.0
H490 H 0.17985 0.3144 0.51107 0.0
C491 C 0.25987 0.34128 0.61769 0.0
H492 H 0.24274 0.28713 0.51599 0.0
C493 C 0.22268 0.35575 0.61526 0.0
C494 C 0.19402 0.34705 0.57656 0.0
H495 H 0.28289 0.35025 0.64723 0.0
H496 H 0.21864 0.37655 0.64245 0.0
C497 C 0.20111 0.32109 0.54147 0.0
C498 C 0.85996 0.2226 0.60557 0.0
C499 C 0.84047 0.19467 0.56653 0.0
H500 H 0.92544 0.28147 0.63855 0.0
C501 C 0.87408 0.20164 0.53189 0.0
H502 H 0.83474 0.21867 0.63242 0.0
C503 C 0.92575 0.23712 0.53537 0.0
C504 C 0.94499 0.26738 0.57325 0.0
H505 H 0.85992 0.18095 0.50125 0.0
H506 H 0.95016 0.24238 0.50747 0.0
C507 C 0.91175 0.25898 0.60877 0.0
C508 C 0.66479 0.873 0.53693 0.0
C509 C 0.63901 0.84221 0.57326 0.0
H510 H 0.69911 0.94671 0.50799 0.0
C511 C 0.63082 0.86447 0.61059 0.0
H512 H 0.67111 0.85666 0.50754 0.0
C513 C 0.64575 0.91616 0.61046 0.0
C514 C 0.66988 0.94655 0.57327 0.0
H515 H 0.61017 0.84139 0.63868 0.0
H516 H 0.63724 0.93201 0.63898 0.0
C517 C 0.68053 0.92457 0.53711 0.0
C518 C 0.76586 0.63416 0.61304 0.0
C519 C 0.79396 0.64105 0.57434 0.0
H520 H 0.70691 0.64227 0.64439 0.0
C521 C 0.7871 0.66632 0.53847 0.0
H522 H 0.76974 0.614 0.64087 0.0
C523 C 0.75161 0.68269 0.54045 0.0
C524 C 0.72125 0.67332 0.57808 0.0
H525 H 0.80799 0.67175 0.50808 0.0
H526 H 0.7465 0.70079 0.51167 0.0
C527 C 0.72949 0.64981 0.61477 0.0
C528 C 0.39695 0.18039 0.34548 0.0
C529 C 0.39592 0.22572 0.33969 0.0
H530 H 0.39862 0.11792 0.31497 0.0
C531 C 0.39463 0.24165 0.29633 0.0
H532 H 0.39649 0.16582 0.37814 0.0
C533 C 0.39549 0.21378 0.25987 0.0
C534 C 0.39741 0.16892 0.26569 0.0
H535 H 0.3934 0.27607 0.29046 0.0
H536 H 0.39383 0.22724 0.22721 0.0
C537 C 0.39759 0.15244 0.30905 0.0
C538 C 0.14697 0.39315 0.28857 0.0
C539 C 0.16415 0.39376 0.33183 0.0
H540 H 0.16006 0.39197 0.21946 0.0
C541 C 0.20983 0.39306 0.33749 0.0
H542 H 0.11179 0.39317 0.28281 0.0
C543 C 0.23797 0.39291 0.30097 0.0
C544 C 0.22143 0.39354 0.25771 0.0
H545 H 0.2238 0.39192 0.37007 0.0
H546 H 0.27308 0.39275 0.30675 0.0
C547 C 0.17516 0.39309 0.25205 0.0
C548 C 0.77924 0.18083 0.23949 0.0
C549 C 0.82542 0.2264 0.24509 0.0
H550 H 0.71537 0.1183 0.27025 0.0
C551 C 0.84262 0.24274 0.28837 0.0
H552 H 0.76515 0.16595 0.20689 0.0
C553 C 0.81403 0.21502 0.32495 0.0
C554 C 0.76741 0.1699 0.31932 0.0
H555 H 0.87815 0.27737 0.29409 0.0
H556 H 0.82911 0.22878 0.35756 0.0
C557 C 0.75078 0.15302 0.27603 0.0
C558 C 0.59442 0.8078 0.34014 0.0
C559 C 0.59413 0.76181 0.33429 0.0
H560 H 0.59347 0.87072 0.30975 0.0
C561 C 0.59474 0.74563 0.29095 0.0
H562 H 0.59565 0.8227 0.37279 0.0
C563 C 0.59408 0.77369 0.25455 0.0
C564 C 0.59286 0.81892 0.26043 0.0
H565 H 0.59509 0.71077 0.28502 0.0
H566 H 0.59506 0.75992 0.22189 0.0
C567 C 0.59381 0.83587 0.30378 0.0
C568 C 0.7502 0.59487 0.3007 0.0
C569 C 0.76619 0.59375 0.25738 0.0
H570 H 0.76507 0.59632 0.36973 0.0
C571 C 0.81232 0.59399 0.25152 0.0
H572 H 0.71523 0.59525 0.30663 0.0
C573 C 0.84081 0.59403 0.28792 0.0
C574 C 0.82411 0.59376 0.33124 0.0
H575 H 0.82704 0.59478 0.21887 0.0
H576 H 0.87582 0.59373 0.282 0.0
C577 C 0.77866 0.59485 0.33709 0.0
C578 C 0.14503 0.74491 0.292 0.0
C579 C 0.16169 0.76083 0.24857 0.0
H580 H 0.15925 0.75957 0.36098 0.0
C581 C 0.20747 0.8067 0.2425 0.0
H582 H 0.10977 0.71015 0.29809 0.0
C583 C 0.23634 0.83492 0.27873 0.0
C584 C 0.22046 0.81826 0.32216 0.0
H585 H 0.22106 0.82142 0.20979 0.0
H586 H 0.27157 0.86968 0.27258 0.0
C587 C 0.17394 0.77313 0.32826 0.0
C588 C 0.56428 0.78979 0.75348 0.0
C589 C 0.54588 0.73981 0.76821 0.0
H590 H 0.58035 0.86471 0.76932 0.0
C591 C 0.52767 0.72785 0.8119 0.0
H592 H 0.5797 0.80158 0.72073 0.0
C593 C 0.52892 0.76473 0.8402 0.0
C594 C 0.54825 0.81474 0.82563 0.0
H595 H 0.51279 0.68988 0.82466 0.0
H596 H 0.51447 0.7538 0.87341 0.0
C597 C 0.56506 0.82651 0.78169 0.0
C598 C 0.77283 0.5367 0.84057 0.0
C599 C 0.72921 0.53559 0.82345 0.0
H600 H 0.84325 0.53994 0.82723 0.0
C601 C 0.72313 0.53385 0.77723 0.0
H602 H 0.77889 0.53645 0.87569 0.0
C603 C 0.76005 0.53484 0.74905 0.0
C604 C 0.80465 0.53803 0.76614 0.0
H605 H 0.68997 0.53241 0.76243 0.0
H606 H 0.75301 0.5331 0.71397 0.0
C607 C 0.80992 0.5381 0.81239 0.0
C608 C 0.19123 0.72722 0.77027 0.0
C609 C 0.1861 0.73876 0.81441 0.0
H610 H 0.22985 0.7533 0.70855 0.0
C611 C 0.2192 0.7882 0.82965 0.0
H612 H 0.16697 0.68968 0.75706 0.0
C613 C 0.25551 0.82477 0.80155 0.0
C614 C 0.25948 0.81345 0.75722 0.0
H615 H 0.21661 0.79973 0.86278 0.0
H616 H 0.27962 0.86255 0.81438 0.0
C617 C 0.22724 0.76396 0.7421 0.0
C618 C 0.45667 0.18738 0.78555 0.0
C619 C 0.45353 0.19082 0.83172 0.0
H620 H 0.45828 0.21865 0.72229 0.0
C621 C 0.44974 0.23168 0.84882 0.0
H622 H 0.46 0.15681 0.77083 0.0
C623 C 0.44783 0.26705 0.82061 0.0
C624 C 0.44997 0.26308 0.77437 0.0
H625 H 0.44868 0.23709 0.88397 0.0
H626 H 0.44426 0.29746 0.83538 0.0
C627 C 0.45509 0.22294 0.75734 0.0
C628 C 0.263 0.44713 0.77717 0.0
C629 C 0.25799 0.44722 0.82342 0.0
H630 H 0.23275 0.44744 0.71393 0.0
C631 C 0.21597 0.44914 0.84056 0.0
H632 H 0.29492 0.44619 0.76232 0.0
C633 C 0.17931 0.44892 0.81243 0.0
C634 C 0.18343 0.44717 0.76618 0.0
H635 H 0.21085 0.45089 0.87566 0.0
H636 H 0.14721 0.44946 0.82735 0.0
C637 C 0.22654 0.44729 0.74902 0.0
C638 C 0.81349 0.26745 0.76388 0.0
C639 C 0.80768 0.26325 0.81015 0.0
H640 H 0.78227 0.2379 0.70055 0.0
C641 C 0.76228 0.22323 0.82721 0.0
H642 H 0.84748 0.29777 0.74902 0.0
C643 C 0.72488 0.18794 0.79901 0.0
C644 C 0.73131 0.19149 0.75283 0.0
H645 H 0.75493 0.21869 0.86225 0.0
H646 H 0.69095 0.15737 0.81374 0.0
C647 C 0.77595 0.23235 0.7357 0.0
C648 C 0.65185 0.21565 0.11999 0.0
C649 C 0.67288 0.24258 0.08073 0.0
H650 H 0.58362 0.15981 0.15171 0.0
C651 C 0.64108 0.24587 0.04912 0.0
H652 H 0.67589 0.2128 0.14494 0.0
C653 C 0.58872 0.21659 0.05351 0.0
C654 C 0.56736 0.18372 0.08961 0.0
H655 H 0.65655 0.26695 1.01885 0.0
H656 H 0.56558 0.21385 1.02527 0.0
C657 C 0.59908 0.18593 0.12425 0.0
C658 C 0.39022 0.6402 0.05358 0.0
C659 C 0.42512 0.66701 0.08704 0.0
H660 H 0.34513 0.56859 1.02347 0.0
C661 C 0.42892 0.64082 0.12366 0.0
H662 H 0.38631 0.65972 1.02525 0.0
C663 C 0.40405 0.58789 0.12312 0.0
C664 C 0.3749 0.56129 0.08631 0.0
H665 H 0.45562 0.66101 0.14997 0.0
H666 H 0.41322 0.56846 0.14829 0.0
C667 C 0.3652 0.58771 0.05329 0.0
C668 C 0.7722 0.37166 0.04359 0.0
C669 C 0.81017 0.38222 0.07505 0.0
H670 H 0.71776 0.39031 1.01893 0.0
C671 C 0.81385 0.4112 0.11226 0.0
H672 H 0.77024 0.35152 1.01353 0.0
C673 C 0.78434 0.43462 0.11489 0.0
C674 C 0.75183 0.42966 0.07987 0.0
H675 H 0.84394 0.42109 0.13614 0.0
H676 H 0.79143 0.46113 0.14144 0.0
C677 C 0.74313 0.39511 0.04601 0.0
C678 C 0.39391 0.76286 0.04948 0.0
C679 C 0.4185 0.79759 0.0838 0.0
H680 H 0.3232 0.71312 1.01837 0.0
C681 C 0.38992 0.7983 0.1198 0.0
H682 H 0.41477 0.76314 1.02042 0.0
C683 C 0.33687 0.77026 0.11816 0.0
C684 C 0.31262 0.74208 0.08019 0.0
H685 H 0.40801 0.82575 0.146 0.0
H686 H 0.31524 0.7756 0.14388 0.0
C687 C 0.34126 0.73534 0.04762 0.0
C688 C 0.55775 0.34418 0.12507 0.0
C689 C 0.56124 0.31773 0.08855 0.0
H690 H 0.57341 0.41665 0.14937 0.0
C691 C 0.59547 0.34438 0.05467 0.0
H692 H 0.53154 0.32413 0.15168 0.0
C693 C 0.62012 0.39687 0.05397 0.0
C694 C 0.6109 0.4235 0.08708 0.0
H695 H 0.59914 0.32467 1.02641 0.0
H696 H 0.63967 0.41578 1.02393 0.0
C697 C 0.58232 0.3971 0.12416 0.0
C698 C 0.20199 0.55196 0.11433 0.0
C699 C 0.23399 0.55622 0.07917 0.0
H700 H 0.14388 0.56742 0.13612 0.0
C701 C 0.24323 0.59111 0.04545 0.0
H702 H 0.19446 0.52518 0.14076 0.0
C703 C 0.21539 0.61592 0.04345 0.0
C704 C 0.17794 0.60634 0.07514 0.0
H705 H 0.26818 0.59538 1.01824 0.0
H706 H 0.21778 0.63644 1.01352 0.0
C707 C 0.17364 0.5767 0.11209 0.0
C708 C 0.77053 0.39642 0.53428 0.0
C709 C 0.8076 0.42414 0.50234 0.0
H710 H 0.71849 0.32335 0.55978 0.0
C711 C 0.81122 0.39899 0.46496 0.0
H712 H 0.76871 0.41439 0.56451 0.0
C713 C 0.783 0.34612 0.4627 0.0
C714 C 0.75178 0.31849 0.49822 0.0
H715 H 0.84061 0.4194 0.44066 0.0
H716 H 0.79025 0.32697 0.43599 0.0
C717 C 0.74284 0.34398 0.53227 0.0
C718 C 0.36384 0.7649 0.53274 0.0
C719 C 0.374 0.79957 0.49837 0.0
H720 H 0.38477 0.71522 0.56399 0.0
C721 C 0.40336 0.80027 0.46242 0.0
H722 H 0.34332 0.76526 0.56182 0.0
C723 C 0.42837 0.77224 0.46417 0.0
C724 C 0.42436 0.74408 0.50217 0.0
H725 H 0.41276 0.8277 0.4362 0.0
H726 H 0.45539 0.77756 0.4385 0.0
C727 C 0.38895 0.73738 0.53469 0.0
C728 C 0.64631 0.43538 0.47162 0.0
C729 C 0.67301 0.43036 0.50733 0.0
H730 H 0.57373 0.42191 0.44878 0.0
C731 C 0.64631 0.39582 0.54097 0.0
H732 H 0.66639 0.46187 0.44522 0.0
C733 C 0.59371 0.37235 0.54239 0.0
C734 C 0.56708 0.38294 0.51016 0.0
H735 H 0.66621 0.39096 0.56857 0.0
H736 H 0.57482 0.35219 0.57223 0.0
C737 C 0.59331 0.41197 0.47325 0.0
C738 C 0.2045 0.64095 0.46327 0.0
C739 C 0.23549 0.66821 0.49907 0.0
H740 H 0.147 0.56793 0.44061 0.0
C741 C 0.2442 0.64237 0.53302 0.0
H742 H 0.19746 0.66039 0.43663 0.0
C743 C 0.21651 0.58991 0.53461 0.0
C744 C 0.17963 0.56256 0.50239 0.0
H745 H 0.26838 0.66271 0.56073 0.0
H746 H 0.21816 0.57164 0.56474 0.0
C747 C 0.17625 0.58807 0.46513 0.0
C748 C 0.5597 0.21724 0.46483 0.0
C749 C 0.56509 0.24364 0.5043 0.0
H750 H 0.57261 0.16192 0.43279 0.0
C751 C 0.59986 0.24663 0.53611 0.0
H752 H 0.53309 0.21465 0.43972 0.0
C753 C 0.62307 0.21749 0.53165 0.0
C754 C 0.61204 0.1851 0.49526 0.0
H755 H 0.60508 0.26731 0.56656 0.0
H756 H 0.64314 0.21443 0.55999 0.0
C757 C 0.5829 0.18768 0.46048 0.0
C758 C 0.39559 0.61831 0.54087 0.0
C759 C 0.42231 0.60808 0.50851 0.0
H760 H 0.32316 0.59846 0.56786 0.0
C761 C 0.39571 0.57805 0.47212 0.0
H762 H 0.41474 0.63918 0.57038 0.0
C763 C 0.34257 0.55351 0.47116 0.0
C764 C 0.31605 0.55837 0.50702 0.0
H765 H 0.41532 0.56831 0.44758 0.0
H766 H 0.32242 0.52641 0.44515 0.0
C767 C 0.34289 0.5937 0.54014 0.0
C768 C 0.53993 0.03771 0.99937 0.0
C769 C 0.49334 0.03724 1.00402 0.0
H770 H 0.57675 0.99375 1.0043 0.0
C771 C 0.44832 0.99177 0.99705 0.0
H772 H 0.57567 0.07253 1.00383 0.0
C773 C 0.44986 0.94708 0.99103 0.0
C774 C 0.49569 0.94641 0.99756 0.0
H775 H 0.41201 0.98959 1.00103 0.0
H776 H 0.41396 0.91193 0.98949 0.0
C777 C 0.54107 0.99249 0.99854 0.0
C778 C 0.44791 0.4452 0.9897 0.0
C779 C 0.44553 0.48963 0.99261 0.0
H780 H 0.49573 0.41267 0.98881 0.0
C781 C 0.49078 0.53635 0.98637 0.0
H782 H 0.41448 0.40885 0.99511 0.0
C783 C 0.53799 0.53905 0.98933 0.0
C784 C 0.54036 0.49464 0.99283 0.0
H785 H 0.49011 0.57154 0.98778 0.0
H786 H 0.57147 0.57549 0.99436 0.0
C787 C 0.49509 0.44787 0.98691 0.0
C788 C -0.0042 0.45137 0.97324 0.0
C789 C 0.94929 0.4498 0.97719 0.0
H790 H 0.07612 0.49791 0.97036 0.0
C791 C 0.94825 0.49531 0.97106 0.0
H792 H -0.00145 0.41781 0.97874 0.0
C793 C 0.99312 0.54198 0.97364 0.0
C794 C 0.03972 0.5435 0.97632 0.0
H795 H 0.91264 0.49534 0.97321 0.0
H796 H 0.99057 0.57555 0.97953 0.0
C797 C 0.04048 0.49798 0.96934 0.0
C798 C -0.00482 0.54032 0.60132 0.0
C799 C 0.94844 0.49573 0.59867 0.0
H800 H 0.07558 0.57331 0.60206 0.0
C801 C 0.94738 0.44921 0.60499 0.0
H802 H -0.00214 0.57656 0.59575 0.0
C803 C 0.99202 0.44681 0.60161 0.0
C804 C 0.03868 0.49136 0.59805 0.0
H805 H 0.91163 0.41387 0.60376 0.0
H806 H 0.9892 0.41049 0.59637 0.0
C807 C 0.03989 0.53798 0.60402 0.0
C808 C 0.53824 0.99249 0.58666 0.0
C809 C 0.53895 0.03815 0.58013 0.0
H810 H 0.4924 0.91255 0.5931 0.0
C811 C 0.49291 0.03877 0.5848 0.0
H812 H 0.57233 0.99023 0.58269 0.0
C813 C 0.44641 0.99364 0.58508 0.0
C814 C 0.4455 0.94745 0.58546 0.0
H815 H 0.4922 0.07374 0.58071 0.0
H816 H 0.41212 -0.00487 0.57937 0.0
C817 C 0.49184 0.94781 0.59204 0.0
C818 C 0.45144 0.49904 0.61295 0.0
C819 C 0.4978 0.54451 0.60601 0.0
H820 H 0.4132 0.41877 0.60439 0.0
C821 C 0.54286 0.543 0.60905 0.0
H822 H 0.41576 0.49902 0.61168 0.0
C823 C 0.54102 0.49637 0.61213 0.0
C824 C 0.49448 0.45082 0.60609 0.0
H825 H 0.57902 0.57655 0.60319 0.0
H826 H 0.57668 0.4964 0.61029 0.0
C827 C 0.44951 0.4524 0.60965 0.0
loop_
_geom_bond_atom_site_label_1
_geom_bond_atom_site_label_2
_geom_bond_distance
_geom_bond_site_symmetry_2
_ccdc_geom_bond_type
Zn0 N4 2.020 . S
Zn0 O8 2.019 . S
Zn0 N10 2.119 . S
Zn0 O18 1.975 . S
C1 N2 1.345 . S
C1 N5 1.336 . S
N2 C1 1.345 . S
N2 C3 1.323 1_554 S
C3 N2 1.323 1_556 S
C3 N4 1.336 . S
N4 Zn0 2.020 . S
N4 C3 1.336 . S
N4 N5 1.354 1_556 S
N5 C1 1.336 . S
N5 N4 1.354 1_554 S
N5 Zn9 2.020 . S
C6 O7 1.244 1_554 S
C6 O30 1.257 . S
O7 C6 1.244 1_556 S
O8 Zn0 2.019 . S
O8 C28 1.257 . S
Zn9 N5 2.020 . S
Zn9 O16 1.975 . S
Zn9 N25 2.119 . S
Zn9 O30 2.019 . S
N10 Zn0 2.119 . S
N10 C12 1.334 . S
N10 C13 1.328 . S
C11 C12 1.391 . S
C11 N14 1.329 . S
C11 H32 0.930 . S
C12 N10 1.334 . S
C12 C11 1.391 . S
C12 H19 0.930 . S
C13 N10 1.328 . S
C13 C15 1.392 . S
C13 H20 0.930 . S
N14 C11 1.329 . S
N14 C15 1.331 . S
C15 C13 1.392 . S
C15 N14 1.331 . S
O16 Zn9 1.975 . S
O16 C17 1.252 1_554 S
C17 O16 1.252 1_556 S
C17 O18 1.253 . S
O18 Zn0 1.975 . S
O18 C17 1.253 . S
H19 C12 0.930 . S
H20 C13 0.930 . S
C21 C22 1.392 . S
C21 N25 1.328 . S
C21 H27 0.930 . S
C22 C21 1.392 . S
C22 N26 1.331 . S
C23 C24 1.391 . S
C23 N26 1.329 . S
C23 H33 0.930 . S
C24 C23 1.391 . S
C24 N25 1.334 . S
C24 H31 0.930 . S
N25 Zn9 2.119 . S
N25 C21 1.328 . S
N25 C24 1.334 . S
N26 C22 1.331 . S
N26 C23 1.329 . S
H27 C21 0.930 . S
C28 O8 1.257 . S
C28 O29 1.244 1_556 S
O29 C28 1.244 1_554 S
O30 C6 1.257 . S
O30 Zn9 2.019 . S
H31 C24 0.930 . S
H32 C11 0.930 . S
H33 C23 0.930 . S
Zn34 N38 2.020 . S
Zn34 O42 2.019 . S
Zn34 N44 2.119 . S
Zn34 O52 1.975 . S
C35 N36 1.323 1_556 S
C35 N39 1.336 . S
N36 C35 1.323 1_554 S
N36 C37 1.345 . S
C37 N36 1.345 . S
C37 N38 1.336 . S
N38 Zn34 2.020 . S
N38 C37 1.336 . S
N38 N39 1.354 1_554 S
N39 C35 1.336 . S
N39 N38 1.354 1_556 S
N39 Zn43 2.020 . S
C40 O41 1.244 1_556 S
C40 O64 1.257 . S
O41 C40 1.244 1_554 S
O42 Zn34 2.019 . S
O42 C62 1.257 . S
Zn43 N39 2.020 . S
Zn43 O50 1.975 . S
Zn43 N59 2.119 . S
Zn43 O64 2.019 . S
N44 Zn34 2.119 . S
N44 C46 1.334 . S
N44 C47 1.328 . S
C45 C46 1.391 . S
C45 N48 1.329 . S
C45 H66 0.930 . S
C46 N44 1.334 . S
C46 C45 1.391 . S
C46 H53 0.930 . S
C47 N44 1.328 . S
C47 C49 1.392 . S
C47 H54 0.930 . S
N48 C45 1.329 . S
N48 C49 1.331 . S
C49 C47 1.392 . S
C49 N48 1.331 . S
O50 Zn43 1.975 . S
O50 C51 1.253 . S
C51 O50 1.253 . S
C51 O52 1.252 1_556 S
O52 Zn34 1.975 . S
O52 C51 1.252 1_554 S
H53 C46 0.930 . S
H54 C47 0.930 . S
C55 C56 1.392 . S
C55 N59 1.328 . S
C55 H61 0.930 . S
C56 C55 1.392 . S
C56 N60 1.331 . S
C57 C58 1.391 . S
C57 N60 1.329 . S
C57 H67 0.930 . S
C58 C57 1.391 . S
C58 N59 1.334 . S
C58 H65 0.930 . S
N59 Zn43 2.119 . S
N59 C55 1.328 . S
N59 C58 1.334 . S
N60 C56 1.331 . S
N60 C57 1.329 . S
H61 C55 0.930 . S
C62 O42 1.257 . S
C62 O63 1.244 1_554 S
O63 C62 1.244 1_556 S
O64 C40 1.257 . S
O64 Zn43 2.019 . S
H65 C58 0.930 . S
H66 C45 0.930 . S
H67 C57 0.930 . S
Zn68 N72 2.020 . S
Zn68 O76 2.019 . S
Zn68 N78 2.119 . S
Zn68 O86 1.975 . S
C69 N70 1.345 . S
C69 N73 1.336 . S
N70 C69 1.345 . S
N70 C71 1.323 1_554 S
C71 N70 1.323 1_556 S
C71 N72 1.336 . S
N72 Zn68 2.020 . S
N72 C71 1.336 . S
N72 N73 1.354 1_556 S
N73 C69 1.336 . S
N73 N72 1.354 1_554 S
N73 Zn77 2.020 . S
C74 O75 1.244 1_554 S
C74 O98 1.257 . S
O75 C74 1.244 1_556 S
O76 Zn68 2.019 . S
O76 C96 1.257 . S
Zn77 N73 2.020 . S
Zn77 O84 1.975 . S
Zn77 N93 2.119 . S
Zn77 O98 2.019 . S
N78 Zn68 2.119 . S
N78 C80 1.334 . S
N78 C81 1.328 . S
C79 C80 1.391 . S
C79 N82 1.329 . S
C79 H100 0.930 . S
C80 N78 1.334 . S
C80 C79 1.391 . S
C80 H87 0.930 . S
C81 N78 1.328 . S
C81 C83 1.392 . S
C81 H88 0.930 . S
N82 C79 1.329 . S
N82 C83 1.331 . S
C83 C81 1.392 . S
C83 N82 1.331 . S
O84 Zn77 1.975 . S
O84 C85 1.252 1_554 S
C85 O84 1.252 1_556 S
C85 O86 1.253 . S
O86 Zn68 1.975 . S
O86 C85 1.253 . S
H87 C80 0.930 . S
H88 C81 0.930 . S
C89 C90 1.392 . S
C89 N93 1.328 . S
C89 H95 0.930 . S
C90 C89 1.392 . S
C90 N94 1.331 . S
C91 C92 1.391 . S
C91 N94 1.329 . S
C91 H101 0.930 . S
C92 C91 1.391 . S
C92 N93 1.334 . S
C92 H99 0.930 . S
N93 Zn77 2.119 . S
N93 C89 1.328 . S
N93 C92 1.334 . S
N94 C90 1.331 . S
N94 C91 1.329 . S
H95 C89 0.930 . S
C96 O76 1.257 . S
C96 O97 1.244 1_556 S
O97 C96 1.244 1_554 S
O98 C74 1.257 . S
O98 Zn77 2.019 . S
H99 C92 0.930 . S
H100 C79 0.930 . S
H101 C91 0.930 . S
Zn102 N106 2.020 . S
Zn102 O110 2.019 . S
Zn102 N112 2.119 . S
Zn102 O120 1.975 . S
C103 N104 1.323 1_556 S
C103 N107 1.336 . S
N104 C103 1.323 1_554 S
N104 C105 1.345 . S
C105 N104 1.345 . S
C105 N106 1.336 . S
N106 Zn102 2.020 . S
N106 C105 1.336 . S
N106 N107 1.354 1_554 S
N107 C103 1.336 . S
N107 N106 1.354 1_556 S
N107 Zn111 2.020 . S
C108 O109 1.244 1_556 S
C108 O132 1.257 . S
O109 C108 1.244 1_554 S
O110 Zn102 2.019 . S
O110 C130 1.257 . S
Zn111 N107 2.020 . S
Zn111 O118 1.975 . S
Zn111 N127 2.119 . S
Zn111 O132 2.019 . S
N112 Zn102 2.119 . S
N112 C114 1.334 . S
N112 C115 1.328 . S
C113 C114 1.391 . S
C113 N116 1.329 . S
C113 H134 0.930 . S
C114 N112 1.334 . S
C114 C113 1.391 . S
C114 H121 0.930 . S
C115 N112 1.328 . S
C115 C117 1.392 . S
C115 H122 0.930 . S
N116 C113 1.329 . S
N116 C117 1.331 . S
C117 C115 1.392 . S
C117 N116 1.331 . S
O118 Zn111 1.975 . S
O118 C119 1.253 . S
C119 O118 1.253 . S
C119 O120 1.252 1_556 S
O120 Zn102 1.975 . S
O120 C119 1.252 1_554 S
H121 C114 0.930 . S
H122 C115 0.930 . S
C123 C124 1.392 . S
C123 N127 1.328 . S
C123 H129 0.930 . S
C124 C123 1.392 . S
C124 N128 1.331 . S
C125 C126 1.391 . S
C125 N128 1.329 . S
C125 H135 0.930 . S
C126 C125 1.391 . S
C126 N127 1.334 . S
C126 H133 0.930 . S
N127 Zn111 2.119 . S
N127 C123 1.328 . S
N127 C126 1.334 . S
N128 C124 1.331 . S
N128 C125 1.329 . S
H129 C123 0.930 . S
C130 O110 1.257 . S
C130 O131 1.244 1_554 S
O131 C130 1.244 1_556 S
O132 C108 1.257 . S
O132 Zn111 2.019 . S
H133 C126 0.930 . S
H134 C113 0.930 . S
H135 C125 0.930 . S
Zn136 N140 2.020 . S
Zn136 O144 2.019 . S
Zn136 N146 2.119 . S
Zn136 O154 1.975 . S
C137 N138 1.345 . S
C137 N141 1.336 . S
N138 C137 1.345 . S
N138 C139 1.323 1_554 S
C139 N138 1.323 1_556 S
C139 N140 1.336 . S
N140 Zn136 2.020 . S
N140 C139 1.336 . S
N140 N141 1.354 1_556 S
N141 C137 1.336 . S
N141 N140 1.354 1_554 S
N141 Zn145 2.020 . S
C142 O143 1.244 1_554 S
C142 O166 1.257 . S
O143 C142 1.244 1_556 S
O144 Zn136 2.019 . S
O144 C164 1.257 . S
Zn145 N141 2.020 . S
Zn145 O152 1.975 . S
Zn145 N161 2.119 . S
Zn145 O166 2.019 . S
N146 Zn136 2.119 . S
N146 C148 1.334 . S
N146 C149 1.328 . S
C147 C148 1.391 . S
C147 N150 1.329 . S
C147 H168 0.930 . S
C148 N146 1.334 . S
C148 C147 1.391 . S
C148 H155 0.930 . S
C149 N146 1.328 . S
C149 C151 1.392 . S
C149 H156 0.930 . S
N150 C147 1.329 . S
N150 C151 1.331 . S
C151 C149 1.392 . S
C151 N150 1.331 . S
O152 Zn145 1.975 . S
O152 C153 1.252 1_554 S
C153 O152 1.252 1_556 S
C153 O154 1.253 . S
O154 Zn136 1.975 . S
O154 C153 1.253 . S
H155 C148 0.930 . S
H156 C149 0.930 . S
C157 C158 1.392 . S
C157 N161 1.328 . S
C157 H163 0.930 . S
C158 C157 1.392 . S
C158 N162 1.331 . S
C159 C160 1.391 . S
C159 N162 1.329 . S
C159 H169 0.930 . S
C160 C159 1.391 . S
C160 N161 1.334 . S
C160 H167 0.930 . S
N161 Zn145 2.119 . S
N161 C157 1.328 . S
N161 C160 1.334 . S
N162 C158 1.331 . S
N162 C159 1.329 . S
H163 C157 0.930 . S
C164 O144 1.257 . S
C164 O165 1.244 1_556 S
O165 C164 1.244 1_554 S
O166 C142 1.257 . S
O166 Zn145 2.019 . S
H167 C160 0.930 . S
H168 C147 0.930 . S
H169 C159 0.930 . S
Zn170 N174 2.020 . S
Zn170 O178 2.019 . S
Zn170 N180 2.119 . S
Zn170 O188 1.975 . S
C171 N172 1.323 1_556 S
C171 N175 1.336 . S
N172 C171 1.323 1_554 S
N172 C173 1.345 . S
C173 N172 1.345 . S
C173 N174 1.336 . S
N174 Zn170 2.020 . S
N174 C173 1.336 . S
N174 N175 1.354 1_554 S
N175 C171 1.336 . S
N175 N174 1.354 1_556 S
N175 Zn179 2.020 . S
C176 O177 1.244 1_556 S
C176 O200 1.257 . S
O177 C176 1.244 1_554 S
O178 Zn170 2.019 . S
O178 C198 1.257 . S
Zn179 N175 2.020 . S
Zn179 O186 1.975 . S
Zn179 N195 2.119 . S
Zn179 O200 2.019 . S
N180 Zn170 2.119 . S
N180 C182 1.334 . S
N180 C183 1.328 . S
C181 C182 1.391 . S
C181 N184 1.329 . S
C181 H202 0.930 . S
C182 N180 1.334 . S
C182 C181 1.391 . S
C182 H189 0.930 . S
C183 N180 1.328 . S
C183 C185 1.392 . S
C183 H190 0.930 . S
N184 C181 1.329 . S
N184 C185 1.331 . S
C185 C183 1.392 . S
C185 N184 1.331 . S
O186 Zn179 1.975 . S
O186 C187 1.253 . S
C187 O186 1.253 . S
C187 O188 1.252 1_556 S
O188 Zn170 1.975 . S
O188 C187 1.252 1_554 S
H189 C182 0.930 . S
H190 C183 0.930 . S
C191 C192 1.392 . S
C191 N195 1.328 . S
C191 H197 0.930 . S
C192 C191 1.392 . S
C192 N196 1.331 . S
C193 C194 1.391 . S
C193 N196 1.329 . S
C193 H203 0.930 . S
C194 C193 1.391 . S
C194 N195 1.334 . S
C194 H201 0.930 . S
N195 Zn179 2.119 . S
N195 C191 1.328 . S
N195 C194 1.334 . S
N196 C192 1.331 . S
N196 C193 1.329 . S
H197 C191 0.930 . S
C198 O178 1.257 . S
C198 O199 1.244 1_554 S
O199 C198 1.244 1_556 S
O200 C176 1.257 . S
O200 Zn179 2.019 . S
H201 C194 0.930 . S
H202 C181 0.930 . S
H203 C193 0.930 . S
Zn204 N208 2.020 . S
Zn204 O212 2.019 . S
Zn204 N214 2.119 . S
Zn204 O222 1.975 . S
C205 N206 1.334 . S
C205 N209 1.336 . S
N206 C205 1.334 . S
N206 C207 1.334 . S
C207 N206 1.334 . S
C207 N208 1.336 . S
N208 Zn204 2.020 . S
N208 C207 1.336 . S
N208 N209 1.354 . S
N209 C205 1.336 . S
N209 N208 1.354 . S
N209 Zn213 2.020 . S
C210 O211 1.244 . S
C210 O234 1.257 . S
O211 C210 1.244 . S
O212 Zn204 2.019 . S
O212 C232 1.257 . S
Zn213 N209 2.020 . S
Zn213 O220 1.975 . S
Zn213 N229 2.119 . S
Zn213 O234 2.019 . S
N214 Zn204 2.119 . S
N214 C216 1.334 . S
N214 C217 1.328 . S
C215 C216 1.391 . S
C215 N218 1.329 . S
C215 H236 0.930 . S
C216 N214 1.334 . S
C216 C215 1.391 . S
C216 H223 0.930 . S
C217 N214 1.328 . S
C217 C219 1.392 . S
C217 H224 0.930 . S
N218 C215 1.329 . S
N218 C219 1.331 . S
C219 C217 1.392 . S
C219 N218 1.331 . S
O220 Zn213 1.975 . S
O220 C221 1.252 . S
C221 O220 1.252 . S
C221 O222 1.252 . S
O222 Zn204 1.975 . S
O222 C221 1.252 . S
H223 C216 0.930 . S
H224 C217 0.930 . S
C225 C226 1.392 . S
C225 N229 1.328 . S
C225 H231 0.930 . S
C226 C225 1.392 . S
C226 N230 1.331 . S
C227 C228 1.391 . S
C227 N230 1.329 . S
C227 H237 0.930 . S
C228 C227 1.391 . S
C228 N229 1.334 . S
C228 H235 0.930 . S
N229 Zn213 2.119 . S
N229 C225 1.328 . S
N229 C228 1.334 . S
N230 C226 1.331 . S
N230 C227 1.329 . S
H231 C225 0.930 . S
C232 O212 1.257 . S
C232 O233 1.244 . S
O233 C232 1.244 . S
O234 C210 1.257 . S
O234 Zn213 2.019 . S
H235 C228 0.930 . S
H236 C215 0.930 . S
H237 C227 0.930 . S
Zn238 N242 2.020 . S
Zn238 O246 2.019 . S
Zn238 N248 2.119 . S
Zn238 O256 1.975 . S
C239 N240 1.334 . S
C239 N243 1.336 . S
N240 C239 1.334 . S
N240 C241 1.334 . S
C241 N240 1.334 . S
C241 N242 1.336 . S
N242 Zn238 2.020 . S
N242 C241 1.336 . S
N242 N243 1.354 . S
N243 C239 1.336 . S
N243 N242 1.354 . S
N243 Zn247 2.020 . S
C244 O245 1.244 . S
C244 O268 1.257 . S
O245 C244 1.244 . S
O246 Zn238 2.019 . S
O246 C266 1.257 . S
Zn247 N243 2.020 . S
Zn247 O254 1.975 . S
Zn247 N263 2.119 . S
Zn247 O268 2.019 . S
N248 Zn238 2.119 . S
N248 C250 1.334 . S
N248 C251 1.328 . S
C249 C250 1.391 . S
C249 N252 1.329 . S
C249 H270 0.930 . S
C250 N248 1.334 . S
C250 C249 1.391 . S
C250 H257 0.930 . S
C251 N248 1.328 . S
C251 C253 1.392 . S
C251 H258 0.930 . S
N252 C249 1.329 . S
N252 C253 1.331 . S
C253 C251 1.392 . S
C253 N252 1.331 . S
O254 Zn247 1.975 . S
O254 C255 1.252 . S
C255 O254 1.252 . S
C255 O256 1.252 . S
O256 Zn238 1.975 . S
O256 C255 1.252 . S
H257 C250 0.930 . S
H258 C251 0.930 . S
C259 C260 1.392 . S
C259 N263 1.328 . S
C259 H265 0.930 . S
C260 C259 1.392 . S
C260 N264 1.331 . S
C261 C262 1.391 . S
C261 N264 1.329 . S
C261 H271 0.930 . S
C262 C261 1.391 . S
C262 N263 1.334 . S
C262 H269 0.930 . S
N263 Zn247 2.119 . S
N263 C259 1.328 . S
N263 C262 1.334 . S
N264 C260 1.331 . S
N264 C261 1.329 . S
H265 C259 0.930 . S
C266 O246 1.257 . S
C266 O267 1.244 . S
O267 C266 1.244 . S
O268 C244 1.257 . S
O268 Zn247 2.019 . S
H269 C262 0.930 . S
H270 C249 0.930 . S
H271 C261 0.930 . S
Zn272 N276 2.020 . S
Zn272 O280 2.019 . S
Zn272 N282 2.119 . S
Zn272 O290 1.975 . S
C273 N274 1.334 . S
C273 N277 1.336 . S
N274 C273 1.334 . S
N274 C275 1.334 . S
C275 N274 1.334 . S
C275 N276 1.336 . S
N276 Zn272 2.020 . S
N276 C275 1.336 . S
N276 N277 1.354 . S
N277 C273 1.336 . S
N277 N276 1.354 . S
N277 Zn281 2.020 . S
C278 O279 1.244 . S
C278 O302 1.257 . S
O279 C278 1.244 . S
O280 Zn272 2.019 . S
O280 C300 1.257 . S
Zn281 N277 2.020 . S
Zn281 O288 1.975 . S
Zn281 N297 2.119 . S
Zn281 O302 2.019 . S
N282 Zn272 2.119 . S
N282 C284 1.334 . S
N282 C285 1.328 . S
C283 C284 1.391 . S
C283 N286 1.329 . S
C283 H304 0.930 . S
C284 N282 1.334 . S
C284 C283 1.391 . S
C284 H291 0.930 . S
C285 N282 1.328 . S
C285 C287 1.392 . S
C285 H292 0.930 . S
N286 C283 1.329 . S
N286 C287 1.331 . S
C287 C285 1.392 . S
C287 N286 1.331 . S
O288 Zn281 1.975 . S
O288 C289 1.252 . S
C289 O288 1.252 . S
C289 O290 1.252 . S
O290 Zn272 1.975 . S
O290 C289 1.252 . S
H291 C284 0.930 . S
H292 C285 0.930 . S
C293 C294 1.392 . S
C293 N297 1.328 . S
C293 H299 0.930 . S
C294 C293 1.392 . S
C294 N298 1.331 . S
C295 C296 1.391 . S
C295 N298 1.329 . S
C295 H305 0.930 . S
C296 C295 1.391 . S
C296 N297 1.334 . S
C296 H303 0.930 . S
N297 Zn281 2.119 . S
N297 C293 1.328 . S
N297 C296 1.334 . S
N298 C294 1.331 . S
N298 C295 1.329 . S
H299 C293 0.930 . S
C300 O280 1.257 . S
C300 O301 1.244 . S
O301 C300 1.244 . S
O302 C278 1.257 . S
O302 Zn281 2.019 . S
H303 C296 0.930 . S
H304 C283 0.930 . S
H305 C295 0.930 . S
Zn306 N310 2.020 . S
Zn306 O314 2.019 . S
Zn306 N316 2.119 . S
Zn306 O324 1.975 . S
C307 N308 1.334 . S
C307 N311 1.336 . S
N308 C307 1.334 . S
N308 C309 1.334 . S
C309 N308 1.334 . S
C309 N310 1.336 . S
N310 Zn306 2.020 . S
N310 C309 1.336 . S
N310 N311 1.354 . S
N311 C307 1.336 . S
N311 N310 1.354 . S
N311 Zn315 2.020 . S
C312 O313 1.244 . S
C312 O336 1.257 . S
O313 C312 1.244 . S
O314 Zn306 2.019 . S
O314 C334 1.257 . S
Zn315 N311 2.020 . S
Zn315 O322 1.975 . S
Zn315 N331 2.119 . S
Zn315 O336 2.019 . S
N316 Zn306 2.119 . S
N316 C318 1.334 . S
N316 C319 1.328 . S
C317 C318 1.391 . S
C317 N320 1.329 . S
C317 H338 0.930 . S
C318 N316 1.334 . S
C318 C317 1.391 . S
C318 H325 0.930 . S
C319 N316 1.328 . S
C319 C321 1.392 . S
C319 H326 0.930 . S
N320 C317 1.329 . S
N320 C321 1.331 . S
C321 C319 1.392 . S
C321 N320 1.331 . S
O322 Zn315 1.975 . S
O322 C323 1.252 . S
C323 O322 1.252 . S
C323 O324 1.252 . S
O324 Zn306 1.975 . S
O324 C323 1.252 . S
H325 C318 0.930 . S
H326 C319 0.930 . S
C327 C328 1.392 . S
C327 N331 1.328 . S
C327 H333 0.930 . S
C328 C327 1.392 . S
C328 N332 1.331 . S
C329 C330 1.391 . S
C329 N332 1.329 . S
C329 H339 0.930 . S
C330 C329 1.391 . S
C330 N331 1.334 . S
C330 H337 0.930 . S
N331 Zn315 2.119 . S
N331 C327 1.328 . S
N331 C330 1.334 . S
N332 C328 1.331 . S
N332 C329 1.329 . S
H333 C327 0.930 . S
C334 O314 1.257 . S
C334 O335 1.244 . S
O335 C334 1.244 . S
O336 C312 1.257 . S
O336 Zn315 2.019 . S
H337 C330 0.930 . S
H338 C317 0.930 . S
H339 C329 0.930 . S
Zn340 N344 2.020 . S
Zn340 O348 2.019 . S
Zn340 N350 2.119 . S
Zn340 O358 1.975 . S
C341 N342 1.334 . S
C341 N345 1.336 . S
N342 C341 1.334 . S
N342 C343 1.334 . S
C343 N342 1.334 . S
C343 N344 1.336 . S
N344 Zn340 2.020 . S
N344 C343 1.336 . S
N344 N345 1.354 . S
N345 C341 1.336 . S
N345 N344 1.354 . S
N345 Zn349 2.020 . S
C346 O347 1.244 . S
C346 O370 1.257 . S
O347 C346 1.244 . S
O348 Zn340 2.019 . S
O348 C368 1.257 . S
Zn349 N345 2.020 . S
Zn349 O356 1.975 . S
Zn349 N365 2.119 . S
Zn349 O370 2.019 . S
N350 Zn340 2.119 . S
N350 C352 1.334 . S
N350 C353 1.328 . S
C351 C352 1.391 . S
C351 N354 1.329 . S
C351 H372 0.930 . S
C352 N350 1.334 . S
C352 C351 1.391 . S
C352 H359 0.930 . S
C353 N350 1.328 . S
C353 C355 1.392 . S
C353 H360 0.930 . S
N354 C351 1.329 . S
N354 C355 1.331 . S
C355 C353 1.392 . S
C355 N354 1.331 . S
O356 Zn349 1.975 . S
O356 C357 1.252 . S
C357 O356 1.252 . S
C357 O358 1.252 . S
O358 Zn340 1.975 . S
O358 C357 1.252 . S
H359 C352 0.930 . S
H360 C353 0.930 . S
C361 C362 1.392 . S
C361 N365 1.328 . S
C361 H367 0.930 . S
C362 C361 1.392 . S
C362 N366 1.331 . S
C363 C364 1.391 . S
C363 N366 1.329 . S
C363 H373 0.930 . S
C364 C363 1.391 . S
C364 N365 1.334 . S
C364 H371 0.930 . S
N365 Zn349 2.119 . S
N365 C361 1.328 . S
N365 C364 1.334 . S
N366 C362 1.331 . S
N366 C363 1.329 . S
H367 C361 0.930 . S
C368 O348 1.257 . S
C368 O369 1.244 . S
O369 C368 1.244 . S
O370 C346 1.257 . S
O370 Zn349 2.019 . S
H371 C364 0.930 . S
H372 C351 0.930 . S
H373 C363 0.930 . S
Zn374 N378 2.020 . S
Zn374 O382 2.019 . S
Zn374 N384 2.119 . S
Zn374 O392 1.975 . S
C375 N376 1.334 . S
C375 N379 1.336 . S
N376 C375 1.334 . S
N376 C377 1.334 . S
C377 N376 1.334 . S
C377 N378 1.336 . S
N378 Zn374 2.020 . S
N378 C377 1.336 . S
N378 N379 1.354 . S
N379 C375 1.336 . S
N379 N378 1.354 . S
N379 Zn383 2.020 . S
C380 O381 1.244 . S
C380 O404 1.257 . S
O381 C380 1.244 . S
O382 Zn374 2.019 . S
O382 C402 1.257 . S
Zn383 N379 2.020 . S
Zn383 O390 1.975 . S
Zn383 N399 2.119 . S
Zn383 O404 2.019 . S
N384 Zn374 2.119 . S
N384 C386 1.334 . S
N384 C387 1.328 . S
C385 C386 1.391 . S
C385 N388 1.329 . S
C385 H406 0.930 . S
C386 N384 1.334 . S
C386 C385 1.391 . S
C386 H393 0.930 . S
C387 N384 1.328 . S
C387 C389 1.392 . S
C387 H394 0.930 . S
N388 C385 1.329 . S
N388 C389 1.331 . S
C389 C387 1.392 . S
C389 N388 1.331 . S
O390 Zn383 1.975 . S
O390 C391 1.252 . S
C391 O390 1.252 . S
C391 O392 1.252 . S
O392 Zn374 1.975 . S
O392 C391 1.252 . S
H393 C386 0.930 . S
H394 C387 0.930 . S
C395 C396 1.392 . S
C395 N399 1.328 . S
C395 H401 0.930 . S
C396 C395 1.392 . S
C396 N400 1.331 . S
C397 C398 1.391 . S
C397 N400 1.329 . S
C397 H407 0.930 . S
C398 C397 1.391 . S
C398 N399 1.334 . S
C398 H405 0.930 . S
N399 Zn383 2.119 . S
N399 C395 1.328 . S
N399 C398 1.334 . S
N400 C396 1.331 . S
N400 C397 1.329 . S
H401 C395 0.930 . S
C402 O382 1.257 . S
C402 O403 1.244 . S
O403 C402 1.244 . S
O404 C380 1.257 . S
O404 Zn383 2.019 . S
H405 C398 0.930 . S
H406 C385 0.930 . S
H407 C397 0.930 . S
C408 C409 1.387 1_554 S
C408 H412 0.950 . S
C408 C417 1.390 . S
C409 C408 1.387 1_556 S
C409 C411 1.387 . S
H410 C417 0.950 . S
C411 C409 1.387 . S
C411 C413 1.390 . S
C411 H415 0.950 . S
H412 C408 0.950 . S
C413 C411 1.390 . S
C413 C414 1.387 . S
C413 H416 0.950 . S
C414 C413 1.387 . S
C414 C417 1.387 1_556 S
H415 C411 0.950 . S
H416 C413 0.950 . S
C417 C408 1.390 . S
C417 H410 0.950 . S
C417 C414 1.387 1_554 S
C418 C419 1.387 1_554 S
C418 H422 0.950 . S
C418 C427 1.390 . S
C419 C418 1.387 1_556 S
C419 C421 1.387 . S
H420 C427 0.950 . S
C421 C419 1.387 . S
C421 C423 1.390 . S
C421 H425 0.950 . S
H422 C418 0.950 . S
C423 C421 1.390 . S
C423 C424 1.387 . S
C423 H426 0.950 . S
C424 C423 1.387 . S
C424 C427 1.387 1_556 S
H425 C421 0.950 . S
H426 C423 0.950 . S
C427 C418 1.390 . S
C427 H420 0.950 . S
C427 C424 1.387 1_554 S
C428 C429 1.387 . S
C428 H432 0.950 . S
C428 C437 1.390 . S
C429 C428 1.387 . S
C429 C431 1.387 1_556 S
H430 C437 0.950 . S
C431 C429 1.387 1_554 S
C431 C433 1.390 . S
C431 H435 0.950 . S
H432 C428 0.950 . S
C433 C431 1.390 . S
C433 C434 1.387 1_554 S
C433 H436 0.950 . S
C434 C433 1.387 1_556 S
C434 C437 1.387 . S
H435 C431 0.950 . S
H436 C433 0.950 . S
C437 C428 1.390 . S
C437 H430 0.950 . S
C437 C434 1.387 . S
C438 C439 1.387 . S
C438 H442 0.950 . S
C438 C447 1.390 . S
C439 C438 1.387 . S
C439 C441 1.387 . S
H440 C447 0.950 . S
C441 C439 1.387 . S
C441 C443 1.390 1_556 S
C441 H445 0.950 1_556 S
H442 C438 0.950 . S
C443 C441 1.390 1_554 S
C443 C444 1.387 1_554 S
C443 H446 0.950 . S
C444 C443 1.387 1_556 S
C444 C447 1.387 . S
H445 C441 0.950 1_554 S
H446 C443 0.950 . S
C447 C438 1.390 . S
C447 H440 0.950 . S
C447 C444 1.387 . S
C448 C449 1.387 . S
C448 H452 0.950 . S
C448 C457 1.390 . S
C449 C448 1.387 . S
C449 C451 1.387 1_556 S
H450 C457 0.950 . S
C451 C449 1.387 1_554 S
C451 C453 1.390 . S
C451 H455 0.950 . S
H452 C448 0.950 . S
C453 C451 1.390 . S
C453 C454 1.387 1_554 S
C453 H456 0.950 . S
C454 C453 1.387 1_556 S
C454 C457 1.387 . S
H455 C451 0.950 . S
H456 C453 0.950 . S
C457 C448 1.390 . S
C457 H450 0.950 . S
C457 C454 1.387 . S
C458 C459 1.387 1_554 S
C458 H462 0.950 . S
C458 C467 1.390 . S
C459 C458 1.387 1_556 S
C459 C461 1.387 . S
H460 C467 0.950 . S
C461 C459 1.387 . S
C461 C463 1.390 . S
C461 H465 0.950 . S
H462 C458 0.950 . S
C463 C461 1.390 . S
C463 C464 1.387 . S
C463 H466 0.950 . S
C464 C463 1.387 . S
C464 C467 1.387 1_556 S
H465 C461 0.950 . S
H466 C463 0.950 . S
C467 C458 1.390 . S
C467 H460 0.950 . S
C467 C464 1.387 1_554 S
C468 C469 1.387 . S
C468 H472 0.950 . S
C468 C477 1.390 . S
C469 C468 1.387 . S
C469 C471 1.387 . S
H470 C477 0.950 . S
C471 C469 1.387 . S
C471 C473 1.390 . S
C471 H475 0.950 . S
H472 C468 0.950 . S
C473 C471 1.390 . S
C473 C474 1.387 . S
C473 H476 0.950 . S
C474 C473 1.387 . S
C474 C477 1.387 . S
H475 C471 0.950 . S
H476 C473 0.950 . S
C477 C468 1.390 . S
C477 H470 0.950 . S
C477 C474 1.387 . S
C478 C479 1.387 . S
C478 H482 0.950 . S
C478 C487 1.390 . S
C479 C478 1.387 . S
C479 C481 1.387 . S
H480 C487 0.950 . S
C481 C479 1.387 . S
C481 C483 1.390 . S
C481 H485 0.950 . S
H482 C478 0.950 . S
C483 C481 1.390 . S
C483 C484 1.387 . S
C483 H486 0.950 . S
C484 C483 1.387 . S
C484 C487 1.387 . S
H485 C481 0.950 . S
H486 C483 0.950 . S
C487 C478 1.390 . S
C487 H480 0.950 . S
C487 C484 1.387 . S
C488 C489 1.387 . S
C488 H492 0.950 . S
C488 C497 1.390 . S
C489 C488 1.387 . S
C489 C491 1.387 . S
H490 C497 0.950 . S
C491 C489 1.387 . S
C491 C493 1.390 . S
C491 H495 0.950 . S
H492 C488 0.950 . S
C493 C491 1.390 . S
C493 C494 1.387 . S
C493 H496 0.950 . S
C494 C493 1.387 . S
C494 C497 1.387 . S
H495 C491 0.950 . S
H496 C493 0.950 . S
C497 C488 1.390 . S
C497 H490 0.950 . S
C497 C494 1.387 . S
C498 C499 1.387 . S
C498 H502 0.950 . S
C498 C507 1.390 . S
C499 C498 1.387 . S
C499 C501 1.387 . S
H500 C507 0.950 . S
C501 C499 1.387 . S
C501 C503 1.390 . S
C501 H505 0.950 . S
H502 C498 0.950 . S
C503 C501 1.390 . S
C503 C504 1.387 . S
C503 H506 0.950 . S
C504 C503 1.387 . S
C504 C507 1.387 . S
H505 C501 0.950 . S
H506 C503 0.950 . S
C507 C498 1.390 . S
C507 H500 0.950 . S
C507 C504 1.387 . S
C508 C509 1.387 . S
C508 H512 0.950 . S
C508 C517 1.390 . S
C509 C508 1.387 . S
C509 C511 1.387 . S
H510 C517 0.950 . S
C511 C509 1.387 . S
C511 C513 1.390 . S
C511 H515 0.950 . S
H512 C508 0.950 . S
C513 C511 1.390 . S
C513 C514 1.387 . S
C513 H516 0.950 . S
C514 C513 1.387 . S
C514 C517 1.387 . S
H515 C511 0.950 . S
H516 C513 0.950 . S
C517 C508 1.390 . S
C517 H510 0.950 . S
C517 C514 1.387 . S
C518 C519 1.387 . S
C518 H522 0.950 . S
C518 C527 1.390 . S
C519 C518 1.387 . S
C519 C521 1.387 . S
H520 C527 0.950 . S
C521 C519 1.387 . S
C521 C523 1.390 . S
C521 H525 0.950 . S
H522 C518 0.950 . S
C523 C521 1.390 . S
C523 C524 1.387 . S
C523 H526 0.950 . S
C524 C523 1.387 . S
C524 C527 1.387 . S
H525 C521 0.950 . S
H526 C523 0.950 . S
C527 C518 1.390 . S
C527 H520 0.950 . S
C527 C524 1.387 . S
C528 C529 1.387 . S
C528 H532 0.950 . S
C528 C537 1.390 . S
C529 C528 1.387 . S
C529 C531 1.387 . S
H530 C537 0.950 . S
C531 C529 1.387 . S
C531 C533 1.390 . S
C531 H535 0.950 . S
H532 C528 0.950 . S
C533 C531 1.390 . S
C533 C534 1.387 . S
C533 H536 0.950 . S
C534 C533 1.387 . S
C534 C537 1.387 . S
H535 C531 0.950 . S
H536 C533 0.950 . S
C537 C528 1.390 . S
C537 H530 0.950 . S
C537 C534 1.387 . S
C538 C539 1.387 . S
C538 H542 0.950 . S
C538 C547 1.390 . S
C539 C538 1.387 . S
C539 C541 1.387 . S
H540 C547 0.950 . S
C541 C539 1.387 . S
C541 C543 1.390 . S
C541 H545 0.950 . S
H542 C538 0.950 . S
C543 C541 1.390 . S
C543 C544 1.387 . S
C543 H546 0.950 . S
C544 C543 1.387 . S
C544 C547 1.387 . S
H545 C541 0.950 . S
H546 C543 0.950 . S
C547 C538 1.390 . S
C547 H540 0.950 . S
C547 C544 1.387 . S
C548 C549 1.387 . S
C548 H552 0.950 . S
C548 C557 1.390 . S
C549 C548 1.387 . S
C549 C551 1.387 . S
H550 C557 0.950 . S
C551 C549 1.387 . S
C551 C553 1.390 . S
C551 H555 0.950 . S
H552 C548 0.950 . S
C553 C551 1.390 . S
C553 C554 1.387 . S
C553 H556 0.950 . S
C554 C553 1.387 . S
C554 C557 1.387 . S
H555 C551 0.950 . S
H556 C553 0.950 . S
C557 C548 1.390 . S
C557 H550 0.950 . S
C557 C554 1.387 . S
C558 C559 1.387 . S
C558 H562 0.950 . S
C558 C567 1.390 . S
C559 C558 1.387 . S
C559 C561 1.387 . S
H560 C567 0.950 . S
C561 C559 1.387 . S
C561 C563 1.390 . S
C561 H565 0.950 . S
H562 C558 0.950 . S
C563 C561 1.390 . S
C563 C564 1.387 . S
C563 H566 0.950 . S
C564 C563 1.387 . S
C564 C567 1.387 . S
H565 C561 0.950 . S
H566 C563 0.950 . S
C567 C558 1.390 . S
C567 H560 0.950 . S
C567 C564 1.387 . S
C568 C569 1.387 . S
C568 H572 0.950 . S
C568 C577 1.390 . S
C569 C568 1.387 . S
C569 C571 1.387 . S
H570 C577 0.950 . S
C571 C569 1.387 . S
C571 C573 1.390 . S
C571 H575 0.950 . S
H572 C568 0.950 . S
C573 C571 1.390 . S
C573 C574 1.387 . S
C573 H576 0.950 . S
C574 C573 1.387 . S
C574 C577 1.387 . S
H575 C571 0.950 . S
H576 C573 0.950 . S
C577 C568 1.390 . S
C577 H570 0.950 . S
C577 C574 1.387 . S
C578 C579 1.387 . S
C578 H582 0.950 . S
C578 C587 1.390 . S
C579 C578 1.387 . S
C579 C581 1.387 . S
H580 C587 0.950 . S
C581 C579 1.387 . S
C581 C583 1.390 . S
C581 H585 0.950 . S
H582 C578 0.950 . S
C583 C581 1.390 . S
C583 C584 1.387 . S
C583 H586 0.950 . S
C584 C583 1.387 . S
C584 C587 1.387 . S
H585 C581 0.950 . S
H586 C583 0.950 . S
C587 C578 1.390 . S
C587 H580 0.950 . S
C587 C584 1.387 . S
C588 C589 1.387 . S
C588 H592 0.950 . S
C588 C597 1.390 . S
C589 C588 1.387 . S
C589 C591 1.387 . S
H590 C597 0.950 . S
C591 C589 1.387 . S
C591 C593 1.390 . S
C591 H595 0.950 . S
H592 C588 0.950 . S
C593 C591 1.390 . S
C593 C594 1.387 . S
C593 H596 0.950 . S
C594 C593 1.387 . S
C594 C597 1.387 . S
H595 C591 0.950 . S
H596 C593 0.950 . S
C597 C588 1.390 . S
C597 H590 0.950 . S
C597 C594 1.387 . S
C598 C599 1.387 . S
C598 H602 0.950 . S
C598 C607 1.390 . S
C599 C598 1.387 . S
C599 C601 1.387 . S
H600 C607 0.950 . S
C601 C599 1.387 . S
C601 C603 1.390 . S
C601 H605 0.950 . S
H602 C598 0.950 . S
C603 C601 1.390 . S
C603 C604 1.387 . S
C603 H606 0.950 . S
C604 C603 1.387 . S
C604 C607 1.387 . S
H605 C601 0.950 . S
H606 C603 0.950 . S
C607 C598 1.390 . S
C607 H600 0.950 . S
C607 C604 1.387 . S
C608 C609 1.387 . S
C608 H612 0.950 . S
C608 C617 1.390 . S
C609 C608 1.387 . S
C609 C611 1.387 . S
H610 C617 0.950 . S
C611 C609 1.387 . S
C611 C613 1.390 . S
C611 H615 0.950 . S
H612 C608 0.950 . S
C613 C611 1.390 . S
C613 C614 1.387 . S
C613 H616 0.950 . S
C614 C613 1.387 . S
C614 C617 1.387 . S
H615 C611 0.950 . S
H616 C613 0.950 . S
C617 C608 1.390 . S
C617 H610 0.950 . S
C617 C614 1.387 . S
C618 C619 1.387 . S
C618 H622 0.950 . S
C618 C627 1.390 . S
C619 C618 1.387 . S
C619 C621 1.387 . S
H620 C627 0.950 . S
C621 C619 1.387 . S
C621 C623 1.390 . S
C621 H625 0.950 . S
H622 C618 0.950 . S
C623 C621 1.390 . S
C623 C624 1.387 . S
C623 H626 0.950 . S
C624 C623 1.387 . S
C624 C627 1.387 . S
H625 C621 0.950 . S
H626 C623 0.950 . S
C627 C618 1.390 . S
C627 H620 0.950 . S
C627 C624 1.387 . S
C628 C629 1.387 . S
C628 H632 0.950 . S
C628 C637 1.390 . S
C629 C628 1.387 . S
C629 C631 1.387 . S
H630 C637 0.950 . S
C631 C629 1.387 . S
C631 C633 1.390 . S
C631 H635 0.950 . S
H632 C628 0.950 . S
C633 C631 1.390 . S
C633 C634 1.387 . S
C633 H636 0.950 . S
C634 C633 1.387 . S
C634 C637 1.387 . S
H635 C631 0.950 . S
H636 C633 0.950 . S
C637 C628 1.390 . S
C637 H630 0.950 . S
C637 C634 1.387 . S
C638 C639 1.387 . S
C638 H642 0.950 . S
C638 C647 1.390 . S
C639 C638 1.387 . S
C639 C641 1.387 . S
H640 C647 0.950 . S
C641 C639 1.387 . S
C641 C643 1.390 . S
C641 H645 0.950 . S
H642 C638 0.950 . S
C643 C641 1.390 . S
C643 C644 1.387 . S
C643 H646 0.950 . S
C644 C643 1.387 . S
C644 C647 1.387 . S
H645 C641 0.950 . S
H646 C643 0.950 . S
C647 C638 1.390 . S
C647 H640 0.950 . S
C647 C644 1.387 . S
C648 C649 1.387 . S
C648 H652 0.950 . S
C648 C657 1.390 . S
C649 C648 1.387 . S
C649 C651 1.387 1_554 S
H650 C657 0.950 . S
C651 C649 1.387 1_556 S
C651 C653 1.390 . S
C651 H655 0.950 . S
H652 C648 0.950 . S
C653 C651 1.390 . S
C653 C654 1.387 1_556 S
C653 H656 0.950 . S
C654 C653 1.387 1_554 S
C654 C657 1.387 . S
H655 C651 0.950 . S
H656 C653 0.950 . S
C657 C648 1.390 . S
C657 H650 0.950 . S
C657 C654 1.387 . S
C658 C659 1.387 1_556 S
C658 H662 0.950 . S
C658 C667 1.390 . S
C659 C658 1.387 1_554 S
C659 C661 1.387 . S
H660 C667 0.950 . S
C661 C659 1.387 . S
C661 C663 1.390 . S
C661 H665 0.950 . S
H662 C658 0.950 . S
C663 C661 1.390 . S
C663 C664 1.387 . S
C663 H666 0.950 . S
C664 C663 1.387 . S
C664 C667 1.387 1_554 S
H665 C661 0.950 . S
H666 C663 0.950 . S
C667 C658 1.390 . S
C667 H660 0.950 . S
C667 C664 1.387 1_556 S
C668 C669 1.387 1_556 S
C668 H672 0.950 . S
C668 C677 1.390 . S
C669 C668 1.387 1_554 S
C669 C671 1.387 . S
H670 C677 0.950 . S
C671 C669 1.387 . S
C671 C673 1.390 . S
C671 H675 0.950 . S
H672 C668 0.950 . S
C673 C671 1.390 . S
C673 C674 1.387 . S
C673 H676 0.950 . S
C674 C673 1.387 . S
C674 C677 1.387 1_554 S
H675 C671 0.950 . S
H676 C673 0.950 . S
C677 C668 1.390 . S
C677 H670 0.950 . S
C677 C674 1.387 1_556 S
C678 C679 1.387 1_556 S
C678 H682 0.950 . S
C678 C687 1.390 . S
C679 C678 1.387 1_554 S
C679 C681 1.387 . S
H680 C687 0.950 . S
C681 C679 1.387 . S
C681 C683 1.390 . S
C681 H685 0.950 . S
H682 C678 0.950 . S
C683 C681 1.390 . S
C683 C684 1.387 . S
C683 H686 0.950 . S
C684 C683 1.387 . S
C684 C687 1.387 1_554 S
H685 C681 0.950 . S
H686 C683 0.950 . S
C687 C678 1.390 . S
C687 H680 0.950 . S
C687 C684 1.387 1_556 S
C688 C689 1.387 . S
C688 H692 0.950 . S
C688 C697 1.390 . S
C689 C688 1.387 . S
C689 C691 1.387 1_554 S
H690 C697 0.950 . S
C691 C689 1.387 1_556 S
C691 C693 1.390 . S
C691 H695 0.950 . S
H692 C688 0.950 . S
C693 C691 1.390 . S
C693 C694 1.387 1_556 S
C693 H696 0.950 . S
C694 C693 1.387 1_554 S
C694 C697 1.387 . S
H695 C691 0.950 . S
H696 C693 0.950 . S
C697 C688 1.390 . S
C697 H690 0.950 . S
C697 C694 1.387 . S
C698 C699 1.387 . S
C698 H702 0.950 . S
C698 C707 1.390 . S
C699 C698 1.387 . S
C699 C701 1.387 1_554 S
H700 C707 0.950 . S
C701 C699 1.387 1_556 S
C701 C703 1.390 . S
C701 H705 0.950 . S
H702 C698 0.950 . S
C703 C701 1.390 . S
C703 C704 1.387 1_556 S
C703 H706 0.950 . S
C704 C703 1.387 1_554 S
C704 C707 1.387 . S
H705 C701 0.950 . S
H706 C703 0.950 . S
C707 C698 1.390 . S
C707 H700 0.950 . S
C707 C704 1.387 . S
C708 C709 1.387 . S
C708 H712 0.950 . S
C708 C717 1.390 . S
C709 C708 1.387 . S
C709 C711 1.387 . S
H710 C717 0.950 . S
C711 C709 1.387 . S
C711 C713 1.390 . S
C711 H715 0.950 . S
H712 C708 0.950 . S
C713 C711 1.390 . S
C713 C714 1.387 . S
C713 H716 0.950 . S
C714 C713 1.387 . S
C714 C717 1.387 . S
H715 C711 0.950 . S
H716 C713 0.950 . S
C717 C708 1.390 . S
C717 H710 0.950 . S
C717 C714 1.387 . S
C718 C719 1.387 . S
C718 H722 0.950 . S
C718 C727 1.390 . S
C719 C718 1.387 . S
C719 C721 1.387 . S
H720 C727 0.950 . S
C721 C719 1.387 . S
C721 C723 1.390 . S
C721 H725 0.950 . S
H722 C718 0.950 . S
C723 C721 1.390 . S
C723 C724 1.387 . S
C723 H726 0.950 . S
C724 C723 1.387 . S
C724 C727 1.387 . S
H725 C721 0.950 . S
H726 C723 0.950 . S
C727 C718 1.390 . S
C727 H720 0.950 . S
C727 C724 1.387 . S
C728 C729 1.387 . S
C728 H732 0.950 . S
C728 C737 1.390 . S
C729 C728 1.387 . S
C729 C731 1.387 . S
H730 C737 0.950 . S
C731 C729 1.387 . S
C731 C733 1.390 . S
C731 H735 0.950 . S
H732 C728 0.950 . S
C733 C731 1.390 . S
C733 C734 1.387 . S
C733 H736 0.950 . S
C734 C733 1.387 . S
C734 C737 1.387 . S
H735 C731 0.950 . S
H736 C733 0.950 . S
C737 C728 1.390 . S
C737 H730 0.950 . S
C737 C734 1.387 . S
C738 C739 1.387 . S
C738 H742 0.950 . S
C738 C747 1.390 . S
C739 C738 1.387 . S
C739 C741 1.387 . S
H740 C747 0.950 . S
C741 C739 1.387 . S
C741 C743 1.390 . S
C741 H745 0.950 . S
H742 C738 0.950 . S
C743 C741 1.390 . S
C743 C744 1.387 . S
C743 H746 0.950 . S
C744 C743 1.387 . S
C744 C747 1.387 . S
H745 C741 0.950 . S
H746 C743 0.950 . S
C747 C738 1.390 . S
C747 H740 0.950 . S
C747 C744 1.387 . S
C748 C749 1.387 . S
C748 H752 0.950 . S
C748 C757 1.390 . S
C749 C748 1.387 . S
C749 C751 1.387 . S
H750 C757 0.950 . S
C751 C749 1.387 . S
C751 C753 1.390 . S
C751 H755 0.950 . S
H752 C748 0.950 . S
C753 C751 1.390 . S
C753 C754 1.387 . S
C753 H756 0.950 . S
C754 C753 1.387 . S
C754 C757 1.387 . S
H755 C751 0.950 . S
H756 C753 0.950 . S
C757 C748 1.390 . S
C757 H750 0.950 . S
C757 C754 1.387 . S
C758 C759 1.387 . S
C758 H762 0.950 . S
C758 C767 1.390 . S
C759 C758 1.387 . S
C759 C761 1.387 . S
H760 C767 0.950 . S
C761 C759 1.387 . S
C761 C763 1.390 . S
C761 H765 0.950 . S
H762 C758 0.950 . S
C763 C761 1.390 . S
C763 C764 1.387 . S
C763 H766 0.950 . S
C764 C763 1.387 . S
C764 C767 1.387 . S
H765 C761 0.950 . S
H766 C763 0.950 . S
C767 C758 1.390 . S
C767 H760 0.950 . S
C767 C764 1.387 . S
C768 C769 1.387 1_554 S
C768 H772 0.950 . S
C768 C777 1.390 1_545 S
C769 C768 1.387 1_556 S
C769 C771 1.387 . S
H770 C777 0.950 . S
C771 C769 1.387 . S
C771 C773 1.390 1_545 S
C771 H775 0.950 . S
H772 C768 0.950 . S
C773 C771 1.390 1_565 S
C773 C774 1.387 . S
C773 H776 0.950 . S
C774 C773 1.387 . S
C774 C777 1.387 1_556 S
H775 C771 0.950 . S
H776 C773 0.950 . S
C777 C768 1.390 1_565 S
C777 H770 0.950 . S
C777 C774 1.387 1_554 S
C778 C779 1.387 1_554 S
C778 H782 0.950 . S
C778 C787 1.390 . S
C779 C778 1.387 1_556 S
C779 C781 1.387 . S
H780 C787 0.950 . S
C781 C779 1.387 . S
C781 C783 1.390 . S
C781 H785 0.950 . S
H782 C778 0.950 . S
C783 C781 1.390 . S
C783 C784 1.387 . S
C783 H786 0.950 . S
C784 C783 1.387 . S
C784 C787 1.387 1_556 S
H785 C781 0.950 . S
H786 C783 0.950 . S
C787 C778 1.390 . S
C787 H780 0.950 . S
C787 C784 1.387 1_554 S
C788 C789 1.387 1_554 S
C788 H792 0.950 . S
C788 C797 1.390 1_655 S
C789 C788 1.387 1_556 S
C789 C791 1.387 . S
H790 C797 0.950 . S
C791 C789 1.387 . S
C791 C793 1.390 1_655 S
C791 H795 0.950 . S
H792 C788 0.950 . S
C793 C791 1.390 1_455 S
C793 C794 1.387 . S
C793 H796 0.950 . S
C794 C793 1.387 . S
C794 C797 1.387 1_556 S
H795 C791 0.950 . S
H796 C793 0.950 . S
C797 C788 1.390 1_455 S
C797 H790 0.950 . S
C797 C794 1.387 1_554 S
C798 C799 1.387 . S
C798 H802 0.950 . S
C798 C807 1.390 1_655 S
C799 C798 1.387 . S
C799 C801 1.387 . S
H800 C807 0.950 . S
C801 C799 1.387 . S
C801 C803 1.390 1_655 S
C801 H805 0.950 . S
H802 C798 0.950 . S
C803 C801 1.390 1_455 S
C803 C804 1.387 . S
C803 H806 0.950 . S
C804 C803 1.387 . S
C804 C807 1.387 . S
H805 C801 0.950 . S
H806 C803 0.950 . S
C807 C798 1.390 1_455 S
C807 H800 0.950 . S
C807 C804 1.387 . S
C808 C809 1.387 . S
C808 H812 0.950 . S
C808 C817 1.390 1_545 S
C809 C808 1.387 . S
C809 C811 1.387 . S
H810 C817 0.950 . S
C811 C809 1.387 . S
C811 C813 1.390 1_545 S
C811 H815 0.950 . S
H812 C808 0.950 . S
C813 C811 1.390 1_565 S
C813 C814 1.387 . S
C813 H816 0.950 . S
C814 C813 1.387 . S
C814 C817 1.387 . S
H815 C811 0.950 . S
H816 C813 0.950 . S
C817 C808 1.390 1_565 S
C817 H810 0.950 . S
C817 C814 1.387 . S
C818 C819 1.387 . S
C818 H822 0.950 . S
C818 C827 1.390 . S
C819 C818 1.387 . S
C819 C821 1.387 . S
H820 C827 0.950 . S
C821 C819 1.387 . S
C821 C823 1.390 . S
C821 H825 0.950 . S
H822 C818 0.950 . S
C823 C821 1.390 . S
C823 C824 1.387 . S
C823 H826 0.950 . S
C824 C823 1.387 . S
C824 C827 1.387 . S
H825 C821 0.950 . S
H826 C823 0.950 . S
C827 C818 1.390 . S
C827 H820 0.950 . S
C827 C824 1.387 . S
C409 C28 1.012 1_565 S
C414 C187 1.024 . S
C419 C40 1.010 . S
C424 C17 1.024 . S
C429 C96 1.014 1_455 S
C434 C51 1.022 . S
C439 C108 1.011 1_545 S
C444 C85 1.021 . S
C449 C164 1.013 . S
C454 C119 1.021 . S
C459 C176 1.010 1_655 S
C464 C153 1.023 . S
C469 C210 1.013 1_455 S
C474 C255 1.021 . S
C479 C266 1.010 1_545 S
C484 C289 1.022 . S
C489 C278 1.010 . S
C494 C323 1.023 . S
C499 C357 1.021 . S
C504 C334 1.013 1_655 S
C509 C391 1.023 . S
C514 C346 1.010 1_565 S
C519 C221 1.022 . S
C524 C402 1.014 . S
C529 C287 1.589 . S
C534 C22 1.587 . S
C539 C328 1.591 . S
C544 C49 1.591 . S
C549 C90 1.588 . S
C554 C355 1.587 . S
C559 C396 1.589 . S
C564 C117 1.587 . S
C569 C158 1.591 . S
C574 C219 1.591 . S
C579 C185 1.588 . S
C584 C260 1.588 . S
C589 C389 2.171 . S
C594 C124 2.169 . S
C599 C151 2.171 . S
C604 C226 2.171 . S
C609 C192 2.169 . S
C614 C253 2.171 . S
C619 C15 2.171 . S
C624 C294 2.171 . S
C629 C56 2.171 . S
C634 C321 2.171 . S
C639 C83 2.169 . S
C644 C362 2.171 . S
C649 C74 1.172 . S
C654 C1 1.072 . S
C659 C130 1.171 . S
C664 C37 1.068 . S
C669 C69 1.067 . S
C674 C142 1.172 . S
C679 C105 1.068 . S
C684 C198 1.172 . S
C689 C6 1.172 . S
C694 C137 1.072 . S
C699 C62 1.172 . S
C704 C173 1.072 . S
C709 C207 1.068 . S
C714 C368 1.172 . S
C719 C239 1.069 . S
C724 C380 1.172 . S
C729 C232 1.172 . S
C734 C275 1.072 . S
C739 C244 1.172 . S
C744 C307 1.072 . S
C749 C300 1.172 . S
C754 C343 1.072 . S
C759 C375 1.067 . S
C764 C312 1.171 . S
C769 C3 2.199 . S
C774 C103 2.199 . S
C779 C35 2.199 . S
C784 C139 2.199 . S
C789 C71 2.199 . S
C794 C171 2.199 . S
C799 C205 2.199 . S
C804 C309 2.199 . S
C809 C341 2.202 . S
C814 C241 2.202 . S
C819 C377 2.202 . S
C824 C273 2.202 . S
