# Generated by pormake.
# Topology unw, (4)-cn, num edge types: 1
# Building blocks:
#     Node 0, Type 0, BuildingBlock: ICAMEG_clean_sbu_1, # of connection points: 4
#     Node 1, Type 0, BuildingBlock: ICAMEG_clean_sbu_1, # of connection points: 4
#     Node 2, Type 0, BuildingBlock: ICAMEG_clean_sbu_1, # of connection points: 4
#     Node 3, Type 0, BuildingBlock: ICAMEG_clean_sbu_1, # of connection points: 4
#     Node 4, Type 0, BuildingBlock: ICAMEG_clean_sbu_1, # of connection points: 4
#     Node 5, Type 0, BuildingBlock: ICAMEG_clean_sbu_1, # of connection points: 4
#     Node 6, Type 0, BuildingBlock: ICAMEG_clean_sbu_1, # of connection points: 4
#     Node 7, Type 0, BuildingBlock: ICAMEG_clean_sbu_1, # of connection points: 4
#     Node 8, Type 0, BuildingBlock: ICAMEG_clean_sbu_1, # of connection points: 4
#     Node 9, Type 0, BuildingBlock: ICAMEG_clean_sbu_1, # of connection points: 4
#     Node 10, Type 0, BuildingBlock: ICAMEG_clean_sbu_1, # of connection points: 4
#     Node 11, Type 0, BuildingBlock: ICAMEG_clean_sbu_1, # of connection points: 4
#     Node 12, Type 0, BuildingBlock: ICAMEG_clean_sbu_1, # of connection points: 4
#     Node 13, Type 0, BuildingBlock: ICAMEG_clean_sbu_1, # of connection points: 4
#     Node 14, Type 0, BuildingBlock: ICAMEG_clean_sbu_1, # of connection points: 4
#     Node 15, Type 0, BuildingBlock: ICAMEG_clean_sbu_1, # of connection points: 4
#     Node 16, Type 0, BuildingBlock: ICAMEG_clean_sbu_1, # of connection points: 4
#     Node 17, Type 0, BuildingBlock: ICAMEG_clean_sbu_1, # of connection points: 4
#     Node 18, Type 0, BuildingBlock: ICAMEG_clean_sbu_1, # of connection points: 4
#     Node 19, Type 0, BuildingBlock: ICAMEG_clean_sbu_1, # of connection points: 4
#     Node 20, Type 0, BuildingBlock: ICAMEG_clean_sbu_1, # of connection points: 4
#     Node 21, Type 0, BuildingBlock: ICAMEG_clean_sbu_1, # of connection points: 4
#     Node 22, Type 0, BuildingBlock: ICAMEG_clean_sbu_1, # of connection points: 4
#     Node 23, Type 0, BuildingBlock: ICAMEG_clean_sbu_1, # of connection points: 4
#     Edge 24, Type (0, 0), BuildingBlock: CIFDUS_clean_linker_0, # of connection points: 2
#     Edge 25, Type (0, 0), BuildingBlock: CIFDUS_clean_linker_0, # of connection points: 2
#     Edge 26, Type (0, 0), BuildingBlock: CIFDUS_clean_linker_0, # of connection points: 2
#     Edge 27, Type (0, 0), BuildingBlock: CIFDUS_clean_linker_0, # of connection points: 2
#     Edge 28, Type (0, 0), BuildingBlock: CIFDUS_clean_linker_0, # of connection points: 2
#     Edge 29, Type (0, 0), BuildingBlock: CIFDUS_clean_linker_0, # of connection points: 2
#     Edge 30, Type (0, 0), BuildingBlock: CIFDUS_clean_linker_0, # of connection points: 2
#     Edge 31, Type (0, 0), BuildingBlock: CIFDUS_clean_linker_0, # of connection points: 2
#     Edge 32, Type (0, 0), BuildingBlock: CIFDUS_clean_linker_0, # of connection points: 2
#     Edge 33, Type (0, 0), BuildingBlock: CIFDUS_clean_linker_0, # of connection points: 2
#     Edge 34, Type (0, 0), BuildingBlock: CIFDUS_clean_linker_0, # of connection points: 2
#     Edge 35, Type (0, 0), BuildingBlock: CIFDUS_clean_linker_0, # of connection points: 2
#     Edge 36, Type (0, 0), BuildingBlock: CIFDUS_clean_linker_0, # of connection points: 2
#     Edge 37, Type (0, 0), BuildingBlock: CIFDUS_clean_linker_0, # of connection points: 2
#     Edge 38, Type (0, 0), BuildingBlock: CIFDUS_clean_linker_0, # of connection points: 2
#     Edge 39, Type (0, 0), BuildingBlock: CIFDUS_clean_linker_0, # of connection points: 2
#     Edge 40, Type (0, 0), BuildingBlock: CIFDUS_clean_linker_0, # of connection points: 2
#     Edge 41, Type (0, 0), BuildingBlock: CIFDUS_clean_linker_0, # of connection points: 2
#     Edge 42, Type (0, 0), BuildingBlock: CIFDUS_clean_linker_0, # of connection points: 2
#     Edge 43, Type (0, 0), BuildingBlock: CIFDUS_clean_linker_0, # of connection points: 2
#     Edge 44, Type (0, 0), BuildingBlock: CIFDUS_clean_linker_0, # of connection points: 2
#     Edge 45, Type (0, 0), BuildingBlock: CIFDUS_clean_linker_0, # of connection points: 2
#     Edge 46, Type (0, 0), BuildingBlock: CIFDUS_clean_linker_0, # of connection points: 2
#     Edge 47, Type (0, 0), BuildingBlock: CIFDUS_clean_linker_0, # of connection points: 2
#     Edge 48, Type (0, 0), BuildingBlock: CIFDUS_clean_linker_0, # of connection points: 2
#     Edge 49, Type (0, 0), BuildingBlock: CIFDUS_clean_linker_0, # of connection points: 2
#     Edge 50, Type (0, 0), BuildingBlock: CIFDUS_clean_linker_0, # of connection points: 2
#     Edge 51, Type (0, 0), BuildingBlock: CIFDUS_clean_linker_0, # of connection points: 2
#     Edge 52, Type (0, 0), BuildingBlock: CIFDUS_clean_linker_0, # of connection points: 2
#     Edge 53, Type (0, 0), BuildingBlock: CIFDUS_clean_linker_0, # of connection points: 2
#     Edge 54, Type (0, 0), BuildingBlock: CIFDUS_clean_linker_0, # of connection points: 2
#     Edge 55, Type (0, 0), BuildingBlock: CIFDUS_clean_linker_0, # of connection points: 2
#     Edge 56, Type (0, 0), BuildingBlock: CIFDUS_clean_linker_0, # of connection points: 2
#     Edge 57, Type (0, 0), BuildingBlock: CIFDUS_clean_linker_0, # of connection points: 2
#     Edge 58, Type (0, 0), BuildingBlock: CIFDUS_clean_linker_0, # of connection points: 2
#     Edge 59, Type (0, 0), BuildingBlock: CIFDUS_clean_linker_0, # of connection points: 2
#     Edge 60, Type (0, 0), BuildingBlock: CIFDUS_clean_linker_0, # of connection points: 2
#     Edge 61, Type (0, 0), BuildingBlock: CIFDUS_clean_linker_0, # of connection points: 2
#     Edge 62, Type (0, 0), BuildingBlock: CIFDUS_clean_linker_0, # of connection points: 2
#     Edge 63, Type (0, 0), BuildingBlock: CIFDUS_clean_linker_0, # of connection points: 2
#     Edge 64, Type (0, 0), BuildingBlock: CIFDUS_clean_linker_0, # of connection points: 2
#     Edge 65, Type (0, 0), BuildingBlock: CIFDUS_clean_linker_0, # of connection points: 2
#     Edge 66, Type (0, 0), BuildingBlock: CIFDUS_clean_linker_0, # of connection points: 2
#     Edge 67, Type (0, 0), BuildingBlock: CIFDUS_clean_linker_0, # of connection points: 2
#     Edge 68, Type (0, 0), BuildingBlock: CIFDUS_clean_linker_0, # of connection points: 2
#     Edge 69, Type (0, 0), BuildingBlock: CIFDUS_clean_linker_0, # of connection points: 2
#     Edge 70, Type (0, 0), BuildingBlock: CIFDUS_clean_linker_0, # of connection points: 2
#     Edge 71, Type (0, 0), BuildingBlock: CIFDUS_clean_linker_0, # of connection points: 2
# Relax obj value: 0.230
# Max RMSD: 0.173
# Mean RMSD: 0.172
data_MOF--net-unw--node1-ICAMEG_clean_sbu_1--edge1-CIFDUS_clean_linker_0
_symmetry_space_group_name_H-M    P1
_symmetry_Int_Tables_number       1
_symmetry_cell_setting            triclinic
loop_
_symmetry_equiv_pos_as_xyz
'x, y, z'
_cell_length_a     45.840553
_cell_length_b     45.856043
_cell_length_c     45.860125
_cell_angle_alpha  89.966583
_cell_angle_beta   89.982525
_cell_angle_gamma 90.068233
loop_
_atom_site_label
_atom_site_type_symbol
_atom_site_fract_x
_atom_site_fract_y
_atom_site_fract_z
_atom_type_partial_charge
Co0 Co 0.16082 0.37492 0.25799 0.0
Co1 Co 0.11371 0.33125 0.21866 0.0
O2 O 0.12323 0.36724 0.23947 0.0
C3 C 0.15532 0.41989 0.21234 0.0
O4 O 0.1413 0.40078 0.19633 0.0
C5 C 0.07329 0.33316 0.26849 0.0
O6 O 0.09424 0.34529 0.28371 0.0
O7 O 0.13378 0.30672 0.24834 0.0
O8 O 0.15962 0.33626 0.27761 0.0
H9 H 0.13498 0.23329 0.17448 0.0
H10 H 0.11351 0.41854 0.26332 0.0
O11 O 0.16344 0.41359 0.23814 0.0
H12 H 0.13623 0.38864 0.36409 0.0
H13 H 0.2353 0.43743 0.30908 0.0
H14 H 0.21417 0.34002 0.26871 0.0
H15 H 0.16337 0.3678 0.32258 0.0
H16 H 0.18769 0.42699 0.28624 0.0
O17 O 0.07693 0.32712 0.24163 0.0
H18 H 0.14693 0.27885 0.20046 0.0
H19 H 0.05905 0.30711 0.19301 0.0
H20 H 0.26194 0.34942 0.29161 0.0
H21 H 0.08597 0.44012 0.3042 0.0
H22 H 0.27276 0.39844 0.31198 0.0
H23 H 0.09725 0.4251 0.355 0.0
O24 O 0.18242 0.35761 0.22468 0.0
H25 H 0.04528 0.40979 0.18488 0.0
H26 H 0.11516 0.33427 0.15372 0.0
H27 H 0.09099 0.36488 0.11666 0.0
H28 H 0.05575 0.40294 0.13219 0.0
H29 H 0.07012 0.37885 0.22122 0.0
H30 H 0.04607 0.26173 0.16718 0.0
H31 H 0.08422 0.2245 0.15765 0.0
O32 O 0.15056 0.33405 0.19586 0.0
C33 C 0.14993 0.3112 0.27053 0.0
C34 C 0.11819 0.2494 0.17838 0.0
C35 C 0.06828 0.26535 0.17432 0.0
N36 N 0.10379 0.29575 0.19792 0.0
C37 C 0.12486 0.27529 0.19298 0.0
C38 C 0.07575 0.29098 0.18897 0.0
C39 C 0.0897 0.24447 0.16898 0.0
C40 C 0.1187 0.41212 0.28539 0.0
N41 N 0.1401 0.39208 0.29059 0.0
C42 C 0.10297 0.42432 0.30844 0.0
C43 C 0.10928 0.41585 0.33694 0.0
C44 C 0.13114 0.39538 0.34205 0.0
C45 C 0.14639 0.38362 0.31847 0.0
C46 C 0.23081 0.41596 0.30037 0.0
C47 C 0.21862 0.36133 0.27775 0.0
C48 C 0.20391 0.40994 0.28738 0.0
N49 N 0.19806 0.38283 0.27644 0.0
C50 C 0.24575 0.36655 0.29059 0.0
C51 C 0.25182 0.39407 0.30199 0.0
C52 C 0.1761 0.34343 0.20163 0.0
C53 C 0.06053 0.39323 0.17784 0.0
C54 C 0.09988 0.35083 0.16064 0.0
C55 C 0.08623 0.36805 0.13956 0.0
C56 C 0.06645 0.38939 0.14828 0.0
N57 N 0.09392 0.35469 0.18958 0.0
C58 C 0.07456 0.37557 0.19831 0.0
Co59 Co 0.60916 0.16762 0.29129 0.0
Co60 Co 0.64478 0.12208 0.24307 0.0
O61 O 0.61181 0.13207 0.268 0.0
C62 C 0.56275 0.17127 0.24793 0.0
O63 O 0.58152 0.15931 0.23005 0.0
C64 C 0.64134 0.07514 0.28685 0.0
O65 O 0.63252 0.09466 0.30578 0.0
O66 O 0.67298 0.13492 0.27322 0.0
O67 O 0.64901 0.16064 0.30743 0.0
H68 H 0.7417 0.13915 0.19473 0.0
H69 H 0.56132 0.12417 0.29442 0.0
O70 O 0.56961 0.17574 0.2745 0.0
H71 H 0.60041 0.13093 0.39437 0.0
H72 H 0.5573 0.23972 0.35569 0.0
H73 H 0.64952 0.21614 0.30565 0.0
H74 H 0.62098 0.16115 0.35484 0.0
H75 H 0.56172 0.19488 0.32629 0.0
O76 O 0.64594 0.08214 0.26035 0.0
H77 H 0.69953 0.15188 0.2256 0.0
H78 H 0.66068 0.06957 0.20826 0.0
H79 H 0.64618 0.26103 0.33505 0.0
H80 H 0.5399 0.09373 0.33334 0.0
H81 H 0.59979 0.27307 0.36032 0.0
H82 H 0.55954 0.09695 0.38371 0.0
O83 O 0.62638 0.19184 0.25971 0.0
H84 H 0.55635 0.06857 0.20657 0.0
H85 H 0.63798 0.13326 0.17937 0.0
H86 H 0.60218 0.11861 0.14197 0.0
H87 H 0.56099 0.08606 0.15551 0.0
H88 H 0.59252 0.08396 0.24334 0.0
H89 H 0.70258 0.05581 0.17743 0.0
H90 H 0.7434 0.09079 0.1704 0.0
O91 O 0.64509 0.16198 0.22576 0.0
C92 C 0.67209 0.14881 0.29728 0.0
C93 C 0.72398 0.12377 0.19751 0.0
C94 C 0.70204 0.07698 0.18783 0.0
N95 N 0.67752 0.11163 0.21842 0.0
C96 C 0.69999 0.1309 0.21487 0.0
C97 C 0.6784 0.08488 0.20533 0.0
C98 C 0.72494 0.09662 0.1839 0.0
C99 C 0.56977 0.12588 0.31635 0.0
N100 N 0.59224 0.1445 0.32241 0.0
C101 C 0.55765 0.10851 0.33827 0.0
C102 C 0.56871 0.1103 0.36652 0.0
C103 C 0.59165 0.12935 0.37251 0.0
C104 C 0.60325 0.14635 0.35004 0.0
C105 C 0.57766 0.23466 0.34487 0.0
C106 C 0.62936 0.22109 0.31681 0.0
C107 C 0.58028 0.20933 0.32818 0.0
N108 N 0.60597 0.20274 0.3146 0.0
C109 C 0.62755 0.24661 0.33332 0.0
C110 C 0.60151 0.25336 0.34746 0.0
C111 C 0.63879 0.18733 0.23526 0.0
C112 C 0.57425 0.0827 0.20039 0.0
C113 C 0.62012 0.11907 0.18542 0.0
C114 C 0.59994 0.11083 0.16414 0.0
C115 C 0.57684 0.09255 0.17175 0.0
N116 N 0.6174 0.10933 0.21346 0.0
C117 C 0.59486 0.09136 0.22108 0.0
Co118 Co 0.87501 0.64833 0.24149 0.0
Co119 Co 0.82634 0.60791 0.28234 0.0
O120 O 0.86401 0.61307 0.26286 0.0
C121 C 0.91777 0.6456 0.2899 0.0
O122 O 0.89811 0.6329 0.30639 0.0
C123 C 0.82657 0.56293 0.23637 0.0
O124 O 0.84084 0.58123 0.2196 0.0
O125 O 0.80469 0.62719 0.24973 0.0
O126 O 0.83773 0.64716 0.21965 0.0
H127 H 0.72846 0.64028 0.31944 0.0
H128 H 0.916 0.59853 0.24356 0.0
O129 O 0.91258 0.65117 0.26321 0.0
H130 H 0.89358 0.61269 0.13934 0.0
H131 H 0.94454 0.71417 0.18754 0.0
H132 H 0.84391 0.70214 0.22367 0.0
H133 H 0.87197 0.64489 0.17659 0.0
H134 H 0.93006 0.66956 0.21395 0.0
O135 O 0.82036 0.56966 0.26256 0.0
H136 H 0.77598 0.64642 0.29496 0.0
H137 H 0.79678 0.55768 0.31134 0.0
H138 H 0.85738 0.74698 0.19715 0.0
H139 H 0.9383 0.56595 0.20701 0.0
H140 H 0.90804 0.75322 0.1789 0.0
H141 H 0.92704 0.5729 0.15449 0.0
O142 O 0.85698 0.67409 0.27151 0.0
H143 H 0.89756 0.53691 0.32569 0.0
H144 H 0.82638 0.61458 0.34705 0.0
H145 H 0.8531 0.5913 0.38752 0.0
H146 H 0.88894 0.55212 0.37694 0.0
H147 H 0.87054 0.56096 0.28586 0.0
H148 H 0.74935 0.5505 0.33578 0.0
H149 H 0.71487 0.59203 0.34004 0.0
O150 O 0.83102 0.64602 0.30212 0.0
C151 C 0.81161 0.64044 0.22624 0.0
C152 C 0.74334 0.62205 0.31781 0.0
C153 C 0.75505 0.57165 0.32695 0.0
N154 N 0.78924 0.60251 0.30197 0.0
C155 C 0.77032 0.62542 0.30407 0.0
C156 C 0.78185 0.57583 0.31306 0.0
C157 C 0.73572 0.59496 0.32934 0.0
C158 C 0.91123 0.60183 0.22071 0.0
N159 N 0.89285 0.62365 0.21219 0.0
C160 C 0.92382 0.58325 0.20013 0.0
C161 C 0.91746 0.58715 0.17067 0.0
C162 C 0.89868 0.60946 0.16216 0.0
C163 C 0.88646 0.62759 0.18335 0.0
C164 C 0.92238 0.71167 0.1953 0.0
C165 C 0.86593 0.70458 0.21558 0.0
C166 C 0.91406 0.68647 0.2103 0.0
N167 N 0.88609 0.68313 0.22009 0.0
C168 C 0.87346 0.73007 0.20067 0.0
C169 C 0.90189 0.73357 0.19047 0.0
C170 C 0.84172 0.67048 0.29451 0.0
C171 C 0.88194 0.5539 0.33058 0.0
C172 C 0.84202 0.59761 0.34227 0.0
C173 C 0.85703 0.58447 0.36528 0.0
C174 C 0.87712 0.56247 0.35933 0.0
N175 N 0.84681 0.58901 0.31414 0.0
C176 C 0.86651 0.56751 0.30813 0.0
Co177 Co 0.33533 0.87993 0.22503 0.0
Co178 Co 0.38476 0.84403 0.26916 0.0
O179 O 0.37251 0.87717 0.24542 0.0
C180 C 0.33518 0.92869 0.26641 0.0
O181 O 0.34725 0.91081 0.28518 0.0
C182 C 0.42763 0.84646 0.2217 0.0
O183 O 0.40535 0.84977 0.20408 0.0
O184 O 0.37031 0.81549 0.23975 0.0
O185 O 0.33987 0.83959 0.20983 0.0
H186 H 0.37365 0.74633 0.31766 0.0
H187 H 0.37977 0.92612 0.21651 0.0
O188 O 0.32956 0.92024 0.24056 0.0
H189 H 0.36302 0.88427 0.1189 0.0
H190 H 0.2589 0.93108 0.16511 0.0
H191 H 0.28497 0.84019 0.21634 0.0
H192 H 0.33582 0.8659 0.16157 0.0
H193 H 0.3061 0.92667 0.19059 0.0
O194 O 0.42367 0.84459 0.24916 0.0
H195 H 0.35767 0.78832 0.2881 0.0
H196 H 0.43992 0.82931 0.30011 0.0
H197 H 0.23769 0.84356 0.19093 0.0
H198 H 0.4073 0.94533 0.1744 0.0
H199 H 0.22439 0.88927 0.16508 0.0
H200 H 0.39902 0.92431 0.12519 0.0
O201 O 0.31376 0.86436 0.25918 0.0
H202 H 0.43862 0.93322 0.30323 0.0
H203 H 0.3774 0.85001 0.33345 0.0
H204 H 0.39371 0.88566 0.3703 0.0
H205 H 0.42455 0.92763 0.35524 0.0
H206 H 0.42164 0.89718 0.26707 0.0
H207 H 0.45689 0.78764 0.32963 0.0
H208 H 0.42359 0.74582 0.33865 0.0
O209 O 0.34589 0.84243 0.289 0.0
C210 C 0.35302 0.81649 0.21798 0.0
C211 C 0.38831 0.76448 0.31399 0.0
C212 C 0.43505 0.78765 0.32067 0.0
N213 N 0.39773 0.81138 0.29268 0.0
C214 C 0.37935 0.78837 0.29736 0.0
C215 C 0.42534 0.81116 0.30392 0.0
C216 C 0.41635 0.76419 0.32573 0.0
C217 C 0.37589 0.91706 0.19511 0.0
N218 N 0.35611 0.89507 0.19145 0.0
C219 C 0.39161 0.92794 0.17138 0.0
C220 C 0.38698 0.91611 0.14377 0.0
C221 C 0.36679 0.89363 0.14023 0.0
C222 C 0.3515 0.88328 0.16447 0.0
C223 C 0.26448 0.91102 0.17622 0.0
C224 C 0.27944 0.86008 0.20494 0.0
C225 C 0.29115 0.90842 0.19072 0.0
N226 N 0.29839 0.8831 0.20467 0.0
C227 C 0.25259 0.86189 0.19068 0.0
C228 C 0.24513 0.88755 0.17621 0.0
C229 C 0.32003 0.85034 0.28234 0.0
C230 C 0.42526 0.91498 0.31006 0.0
C231 C 0.39079 0.86823 0.32674 0.0
C232 C 0.4 0.88832 0.3477 0.0
C233 C 0.41732 0.91185 0.33924 0.0
N234 N 0.39868 0.87146 0.29817 0.0
C235 C 0.41569 0.89445 0.28971 0.0
Co236 Co 0.11729 0.66361 0.75579 0.0
Co237 Co 0.15401 0.6088 0.71962 0.0
O238 O 0.11932 0.62497 0.7382 0.0
C239 C 0.07451 0.66412 0.70803 0.0
O240 O 0.09273 0.64812 0.69291 0.0
C241 C 0.14145 0.56954 0.76899 0.0
O242 O 0.13343 0.59249 0.78402 0.0
O243 O 0.17983 0.62388 0.75107 0.0
O244 O 0.15443 0.65662 0.77714 0.0
H245 H 0.25738 0.61013 0.68312 0.0
H246 H 0.06617 0.62418 0.75994 0.0
O247 O 0.08046 0.67173 0.73408 0.0
H248 H 0.09516 0.64414 0.86154 0.0
H249 H 0.06559 0.74833 0.80257 0.0
H250 H 0.16006 0.71076 0.76754 0.0
H251 H 0.12201 0.66644 0.82056 0.0
H252 H 0.06909 0.69921 0.78091 0.0
O253 O 0.14903 0.57207 0.74236 0.0
H254 H 0.21323 0.63097 0.70567 0.0
H255 H 0.16856 0.55049 0.69495 0.0
H256 H 0.15761 0.75987 0.7893 0.0
H257 H 0.03853 0.60162 0.80027 0.0
H258 H 0.1101 0.77896 0.80699 0.0
H259 H 0.05306 0.6115 0.8515 0.0
O260 O 0.13945 0.68131 0.72306 0.0
H261 H 0.06602 0.55701 0.67975 0.0
H262 H 0.15591 0.61064 0.65467 0.0
H263 H 0.1238 0.59288 0.61532 0.0
H264 H 0.0785 0.56583 0.62778 0.0
H265 H 0.09864 0.57534 0.71841 0.0
H266 H 0.21232 0.52868 0.67254 0.0
H267 H 0.25711 0.55861 0.6664 0.0
O268 O 0.16029 0.64545 0.69705 0.0
C269 C 0.17741 0.64179 0.77218 0.0
C270 C 0.23795 0.59691 0.68554 0.0
C271 C 0.21267 0.55118 0.67964 0.0
N272 N 0.18824 0.59208 0.70128 0.0
C273 C 0.21285 0.60863 0.69817 0.0
C274 C 0.18797 0.56364 0.69236 0.0
C275 C 0.2378 0.56799 0.6762 0.0
C276 C 0.07243 0.62879 0.78218 0.0
N277 N 0.09555 0.64671 0.7879 0.0
C278 C 0.05679 0.61586 0.80492 0.0
C279 C 0.06497 0.62139 0.83366 0.0
C280 C 0.0886 0.63969 0.83931 0.0
C281 C 0.10376 0.6522 0.81602 0.0
C282 C 0.08643 0.74022 0.79503 0.0
C283 C 0.13936 0.71882 0.77541 0.0
C284 C 0.08853 0.71245 0.78271 0.0
N285 N 0.11481 0.70203 0.77326 0.0
C286 C 0.13808 0.74668 0.78761 0.0
C287 C 0.11141 0.75739 0.7975 0.0
C288 C 0.15459 0.67227 0.70159 0.0
C289 C 0.08574 0.56869 0.67405 0.0
C290 C 0.13621 0.59893 0.66025 0.0
C291 C 0.11814 0.58888 0.63788 0.0
C292 C 0.09273 0.57369 0.64489 0.0
N293 N 0.12921 0.5939 0.68879 0.0
C294 C 0.10435 0.57901 0.69584 0.0
Co295 Co 0.3657 0.15615 0.7333 0.0
Co296 Co 0.32811 0.10748 0.77708 0.0
O297 O 0.36232 0.11932 0.75442 0.0
C298 C 0.41385 0.15811 0.77591 0.0
O299 O 0.39643 0.14547 0.79481 0.0
C300 C 0.33323 0.06304 0.73111 0.0
O301 O 0.34091 0.08404 0.71324 0.0
O302 O 0.30058 0.12163 0.74643 0.0
O303 O 0.32613 0.15088 0.7166 0.0
H304 H 0.22905 0.12052 0.82216 0.0
H305 H 0.41247 0.11201 0.72754 0.0
O306 O 0.40538 0.16283 0.74991 0.0
H307 H 0.37402 0.12592 0.62809 0.0
H308 H 0.41825 0.23158 0.67308 0.0
H309 H 0.32595 0.20587 0.72206 0.0
H310 H 0.35412 0.15414 0.6693 0.0
H311 H 0.41339 0.18504 0.69967 0.0
O312 O 0.32837 0.06845 0.7579 0.0
H313 H 0.27217 0.13543 0.7936 0.0
H314 H 0.31167 0.05306 0.80868 0.0
H315 H 0.32977 0.2525 0.6955 0.0
H316 H 0.43321 0.08349 0.68691 0.0
H317 H 0.37619 0.26561 0.67077 0.0
H318 H 0.41387 0.0903 0.63678 0.0
O319 O 0.34879 0.17834 0.76655 0.0
H320 H 0.41554 0.05318 0.81457 0.0
H321 H 0.33219 0.11553 0.84149 0.0
H322 H 0.36647 0.09926 0.87961 0.0
H323 H 0.40849 0.06784 0.86623 0.0
H324 H 0.38085 0.07016 0.77711 0.0
H325 H 0.26886 0.03715 0.8372 0.0
H326 H 0.22722 0.07105 0.84419 0.0
O327 O 0.32658 0.14627 0.79628 0.0
C328 C 0.30262 0.13811 0.72411 0.0
C329 C 0.24711 0.10559 0.81937 0.0
C330 C 0.26944 0.05879 0.82778 0.0
N331 N 0.29453 0.09526 0.79976 0.0
C332 C 0.27162 0.11395 0.80331 0.0
C333 C 0.2936 0.0679 0.81158 0.0
C334 C 0.24608 0.07782 0.8317 0.0
C335 C 0.40417 0.11529 0.70573 0.0
N336 N 0.38223 0.1348 0.70077 0.0
C337 C 0.4159 0.099 0.68284 0.0
C338 C 0.40501 0.1028 0.65472 0.0
C339 C 0.38264 0.12277 0.64983 0.0
C340 C 0.37142 0.13865 0.67326 0.0
C341 C 0.39789 0.22609 0.68372 0.0
C342 C 0.34616 0.21134 0.7112 0.0
C343 C 0.39503 0.19979 0.69885 0.0
N344 N 0.36933 0.19265 0.71219 0.0
C345 C 0.34822 0.23781 0.69626 0.0
C346 C 0.37428 0.24517 0.68242 0.0
C347 C 0.33446 0.17207 0.78958 0.0
C348 C 0.39726 0.0668 0.82069 0.0
C349 C 0.35045 0.1019 0.83549 0.0
C350 C 0.36975 0.09271 0.85718 0.0
C351 C 0.39332 0.07506 0.84966 0.0
N352 N 0.35445 0.09367 0.80713 0.0
C353 C 0.37749 0.07637 0.79959 0.0
Co354 Co 0.84244 0.37385 0.74278 0.0
Co355 Co 0.88702 0.33123 0.78608 0.0
O356 O 0.87823 0.36693 0.76472 0.0
C357 C 0.84122 0.41974 0.78776 0.0
O358 O 0.84524 0.39925 0.80731 0.0
C359 C 0.9327 0.33436 0.7413 0.0
O360 O 0.91247 0.34401 0.72354 0.0
O361 O 0.87224 0.30635 0.75379 0.0
O362 O 0.84459 0.33441 0.72467 0.0
H363 H 0.86588 0.23135 0.82605 0.0
H364 H 0.8908 0.41685 0.73971 0.0
O365 O 0.83965 0.41352 0.76075 0.0
H366 H 0.87597 0.38325 0.63866 0.0
H367 H 0.77365 0.43531 0.6833 0.0
H368 H 0.78969 0.33907 0.72857 0.0
H369 H 0.84516 0.36435 0.67853 0.0
H370 H 0.81884 0.42522 0.71071 0.0
O371 O 0.92672 0.32971 0.76804 0.0
H372 H 0.8548 0.2766 0.79918 0.0
H373 H 0.93912 0.30986 0.81847 0.0
H374 H 0.74431 0.34815 0.70118 0.0
H375 H 0.92191 0.43652 0.70044 0.0
H376 H 0.73607 0.39656 0.67831 0.0
H377 H 0.91466 0.41962 0.64951 0.0
O378 O 0.81778 0.35717 0.77461 0.0
H379 H 0.94553 0.41308 0.82943 0.0
H380 H 0.87685 0.33286 0.85028 0.0
H381 H 0.89403 0.36415 0.89053 0.0
H382 H 0.92867 0.40456 0.88021 0.0
H383 H 0.92761 0.38138 0.7898 0.0
H384 H 0.95122 0.26484 0.84535 0.0
H385 H 0.9144 0.22525 0.84937 0.0
O386 O 0.84742 0.33118 0.80376 0.0
C387 C 0.8561 0.31003 0.73145 0.0
C388 C 0.88207 0.24848 0.82455 0.0
C389 C 0.92998 0.26727 0.83535 0.0
N390 N 0.89619 0.29595 0.80751 0.0
C391 C 0.87589 0.2742 0.80945 0.0
C392 C 0.92302 0.29268 0.82007 0.0
C393 C 0.90931 0.24507 0.8376 0.0
C394 C 0.8873 0.40962 0.71755 0.0
N395 N 0.86607 0.38961 0.71139 0.0
C396 C 0.90508 0.42074 0.69543 0.0
C397 C 0.90102 0.41122 0.66686 0.0
C398 C 0.87933 0.3908 0.66076 0.0
C399 C 0.86198 0.38014 0.68344 0.0
C400 C 0.77702 0.4141 0.69312 0.0
C401 C 0.78635 0.36014 0.71852 0.0
C402 C 0.80254 0.40828 0.7087 0.0
N403 N 0.807 0.38151 0.721 0.0
C404 C 0.76057 0.36518 0.70311 0.0
C405 C 0.75595 0.39235 0.69031 0.0
C406 C 0.82231 0.34075 0.79666 0.0
C407 C 0.93051 0.39549 0.83422 0.0
C408 C 0.89187 0.35045 0.84562 0.0
C409 C 0.90157 0.36805 0.86851 0.0
C410 C 0.92101 0.39072 0.8627 0.0
N411 N 0.90137 0.35522 0.81777 0.0
C412 C 0.92038 0.37742 0.81189 0.0
Co413 Co 0.65296 0.885 0.76404 0.0
Co414 Co 0.60669 0.8375 0.72837 0.0
O415 O 0.61548 0.87525 0.74623 0.0
C416 C 0.64761 0.92656 0.71489 0.0
O417 O 0.63343 0.90659 0.70009 0.0
C418 C 0.56563 0.84203 0.77788 0.0
O419 O 0.58569 0.85629 0.79247 0.0
O420 O 0.62746 0.81573 0.75978 0.0
O421 O 0.65233 0.84809 0.78676 0.0
H422 H 0.63008 0.73678 0.6922 0.0
H423 H 0.60506 0.92822 0.76571 0.0
O424 O 0.65521 0.92202 0.74121 0.0
H425 H 0.62797 0.90707 0.86863 0.0
H426 H 0.72644 0.95257 0.8099 0.0
H427 H 0.70686 0.85191 0.77746 0.0
H428 H 0.65545 0.88321 0.82902 0.0
H429 H 0.67897 0.93956 0.78812 0.0
O430 O 0.57003 0.83423 0.7516 0.0
H431 H 0.64105 0.78456 0.71431 0.0
H432 H 0.55257 0.81022 0.70471 0.0
H433 H 0.75452 0.8639 0.79936 0.0
H434 H 0.57717 0.95276 0.80464 0.0
H435 H 0.76456 0.91456 0.81573 0.0
H436 H 0.58855 0.94216 0.85652 0.0
O437 O 0.67493 0.86535 0.7322 0.0
H438 H 0.53634 0.91159 0.68891 0.0
H439 H 0.60785 0.83549 0.66338 0.0
H440 H 0.58281 0.8625 0.62417 0.0
H441 H 0.54673 0.90082 0.63686 0.0
H442 H 0.56207 0.8842 0.72742 0.0
H443 H 0.54058 0.76261 0.68271 0.0
H444 H 0.57952 0.72555 0.67623 0.0
O445 O 0.64331 0.83938 0.70527 0.0
C446 C 0.64345 0.82229 0.78157 0.0
C447 C 0.61295 0.7528 0.69478 0.0
C448 C 0.56271 0.76728 0.68949 0.0
N449 N 0.59755 0.80028 0.71048 0.0
C450 C 0.61905 0.77993 0.70718 0.0
C451 C 0.56963 0.79419 0.70198 0.0
C452 C 0.58457 0.7465 0.68586 0.0
C453 C 0.61027 0.92371 0.78825 0.0
N454 N 0.63192 0.90445 0.79511 0.0
C455 C 0.59435 0.93757 0.81019 0.0
C456 C 0.60072 0.93158 0.8393 0.0
C457 C 0.62283 0.91188 0.84611 0.0
C458 C 0.63827 0.8984 0.82359 0.0
C459 C 0.72229 0.9304 0.80294 0.0
C460 C 0.71097 0.87395 0.78477 0.0
C461 C 0.69547 0.92291 0.79057 0.0
N462 N 0.69005 0.89494 0.78182 0.0
C463 C 0.73804 0.88063 0.79705 0.0
C464 C 0.74367 0.90906 0.8062 0.0
C465 C 0.66873 0.84942 0.71026 0.0
C466 C 0.55196 0.89488 0.68311 0.0
C467 C 0.59223 0.85219 0.66906 0.0
C468 C 0.57808 0.86737 0.64677 0.0
C469 C 0.55783 0.88886 0.65391 0.0
N470 N 0.5863 0.85818 0.69765 0.0
C471 C 0.5665 0.87923 0.70482 0.0
Co472 Co 0.29352 0.16776 0.38513 0.0
Co473 Co 0.24995 0.12544 0.34058 0.0
O474 O 0.27182 0.13207 0.37651 0.0
C475 C 0.24738 0.16536 0.42969 0.0
O476 O 0.23031 0.15425 0.40962 0.0
C477 C 0.2955 0.08 0.3409 0.0
O478 O 0.31314 0.09884 0.35325 0.0
O479 O 0.28124 0.14338 0.31641 0.0
O480 O 0.31271 0.16623 0.34623 0.0
H481 H 0.20727 0.15358 0.24366 0.0
H482 H 0.29487 0.11885 0.42735 0.0
O483 O 0.27407 0.17072 0.42404 0.0
H484 H 0.39708 0.1334 0.39704 0.0
H485 H 0.35156 0.23503 0.44963 0.0
H486 H 0.30877 0.22122 0.35195 0.0
H487 H 0.35803 0.16477 0.37744 0.0
H488 H 0.32436 0.19011 0.43779 0.0
O489 O 0.26913 0.08673 0.33537 0.0
H490 H 0.23463 0.16169 0.28924 0.0
H491 H 0.21896 0.07416 0.31527 0.0
H492 H 0.33602 0.26634 0.36277 0.0
H493 H 0.33326 0.08711 0.44769 0.0
H494 H 0.35764 0.27347 0.41192 0.0
H495 H 0.38478 0.09426 0.43245 0.0
O496 O 0.2622 0.19294 0.36854 0.0
H497 H 0.21022 0.0587 0.41793 0.0
H498 H 0.18543 0.13289 0.34411 0.0
H499 H 0.1464 0.11168 0.37454 0.0
H500 H 0.15871 0.07429 0.41175 0.0
H501 H 0.2486 0.08067 0.38719 0.0
H502 H 0.19166 0.065 0.26982 0.0
H503 H 0.18557 0.10493 0.23371 0.0
O504 O 0.23084 0.1641 0.3444 0.0
C505 C 0.30459 0.15781 0.32101 0.0
C506 C 0.20967 0.13604 0.25928 0.0
C507 C 0.20094 0.08631 0.27395 0.0
N508 N 0.22811 0.11852 0.30503 0.0
C509 C 0.22505 0.14053 0.28518 0.0
C510 C 0.21645 0.09161 0.29962 0.0
C511 C 0.19753 0.10873 0.2537 0.0
C512 C 0.31728 0.12224 0.42085 0.0
N513 N 0.32424 0.14371 0.40138 0.0
C514 C 0.3389 0.10414 0.43233 0.0
C515 C 0.3678 0.10814 0.42375 0.0
C516 C 0.37472 0.13009 0.40386 0.0
C517 C 0.35251 0.14774 0.3928 0.0
C518 C 0.34232 0.23214 0.42811 0.0
C519 C 0.31832 0.22406 0.37332 0.0
C520 C 0.32686 0.20678 0.42129 0.0
N521 N 0.31526 0.20293 0.39412 0.0
C522 C 0.33363 0.2497 0.37935 0.0
C523 C 0.34572 0.2537 0.40694 0.0
C524 C 0.2388 0.18891 0.35405 0.0
C525 C 0.20457 0.07491 0.40173 0.0
C526 C 0.19095 0.11665 0.36029 0.0
C527 C 0.16876 0.10469 0.37742 0.0
C528 C 0.17568 0.0837 0.39828 0.0
N529 N 0.21923 0.10789 0.36379 0.0
C530 C 0.22619 0.08733 0.38419 0.0
Co531 Co 0.87696 0.22305 0.33514 0.0
Co532 Co 0.84912 0.2712 0.38592 0.0
O533 O 0.87927 0.24482 0.37155 0.0
C534 C 0.92719 0.26199 0.3285 0.0
O535 O 0.91163 0.28161 0.34228 0.0
C536 C 0.85203 0.22416 0.42897 0.0
O537 O 0.85402 0.20645 0.40665 0.0
O538 O 0.8173 0.24385 0.37452 0.0
O539 O 0.83667 0.21006 0.3448 0.0
H540 H 0.75492 0.32698 0.38148 0.0
H541 H 0.92737 0.21376 0.37449 0.0
O542 O 0.91707 0.23644 0.32434 0.0
H543 H 0.87938 0.11781 0.36627 0.0
H544 H 0.91655 0.15823 0.25595 0.0
H545 H 0.83143 0.21438 0.29002 0.0
H546 H 0.86012 0.1604 0.33965 0.0
H547 H 0.91859 0.18554 0.30225 0.0
O548 O 0.85101 0.25167 0.42504 0.0
H549 H 0.79308 0.29395 0.36293 0.0
H550 H 0.84124 0.30402 0.44138 0.0
H551 H 0.82834 0.18718 0.24374 0.0
H552 H 0.94753 0.17169 0.40131 0.0
H553 H 0.87113 0.15885 0.22642 0.0
H554 H 0.92344 0.12331 0.39733 0.0
O555 O 0.86084 0.2572 0.31406 0.0
H556 H 0.94467 0.29895 0.4319 0.0
H557 H 0.85955 0.3347 0.37676 0.0
H558 H 0.89919 0.36887 0.38941 0.0
H559 H 0.94213 0.35102 0.41718 0.0
H560 H 0.90464 0.26549 0.41858 0.0
H561 H 0.80348 0.33699 0.4609 0.0
H562 H 0.76 0.34875 0.43081 0.0
O563 O 0.84608 0.29049 0.34688 0.0
C564 C 0.81534 0.22084 0.35904 0.0
C565 C 0.77383 0.32213 0.39475 0.0
C566 C 0.80106 0.32772 0.43934 0.0
N567 N 0.81952 0.29738 0.40091 0.0
C568 C 0.79556 0.30354 0.38431 0.0
C569 C 0.82235 0.30902 0.42819 0.0
C570 C 0.77668 0.33431 0.42244 0.0
C571 C 0.91694 0.19271 0.37246 0.0
N572 N 0.89273 0.18948 0.35541 0.0
C573 C 0.92837 0.169 0.38778 0.0
C574 C 0.91482 0.14187 0.38556 0.0
C575 C 0.8901 0.13877 0.36816 0.0
C576 C 0.87926 0.16297 0.35318 0.0
C577 C 0.89774 0.17043 0.2633 0.0
C578 C 0.85006 0.20192 0.28274 0.0
C579 C 0.89878 0.18597 0.28947 0.0
N580 N 0.87506 0.2013 0.29895 0.0
C581 C 0.84822 0.18665 0.25646 0.0
C582 C 0.87224 0.17079 0.24675 0.0
C583 C 0.85017 0.28199 0.32068 0.0
C584 C 0.92604 0.307 0.41987 0.0
C585 C 0.87819 0.32678 0.38883 0.0
C586 C 0.90054 0.34623 0.39597 0.0
C587 C 0.92462 0.33621 0.41156 0.0
N588 N 0.87975 0.29818 0.39706 0.0
C589 C 0.90326 0.28819 0.41238 0.0
Co590 Co 0.73329 0.84604 0.38049 0.0
Co591 Co 0.77092 0.8859 0.32885 0.0
O592 O 0.75255 0.8817 0.36711 0.0
C593 C 0.78243 0.85434 0.42148 0.0
O594 O 0.79769 0.86627 0.40041 0.0
C595 C 0.72299 0.92859 0.32844 0.0
O596 O 0.70746 0.9102 0.34393 0.0
O597 O 0.73863 0.86432 0.30923 0.0
O598 O 0.71057 0.84378 0.34372 0.0
H599 H 0.80668 0.85055 0.23152 0.0
H600 H 0.73349 0.89824 0.4185 0.0
O601 O 0.75601 0.84676 0.4175 0.0
H602 H 0.62972 0.87714 0.39945 0.0
H603 H 0.68458 0.78168 0.45504 0.0
H604 H 0.71787 0.78952 0.35307 0.0
H605 H 0.66824 0.84578 0.37884 0.0
H606 H 0.70816 0.82671 0.43731 0.0
O607 O 0.74929 0.92286 0.32171 0.0
H608 H 0.78383 0.84562 0.27998 0.0
H609 H 0.79685 0.93588 0.29618 0.0
H610 H 0.69419 0.74418 0.36981 0.0
H611 H 0.69567 0.93006 0.43974 0.0
H612 H 0.67737 0.74006 0.42115 0.0
H613 H 0.64336 0.91962 0.43017 0.0
O614 O 0.76423 0.82091 0.36316 0.0
H615 H 0.81299 0.96201 0.39545 0.0
H616 H 0.83587 0.88206 0.32732 0.0
H617 H 0.87599 0.9083 0.35178 0.0
H618 H 0.86464 0.94863 0.38608 0.0
H619 H 0.77354 0.93501 0.3707 0.0
H620 H 0.81963 0.94185 0.24779 0.0
H621 H 0.82476 0.89895 0.21515 0.0
O622 O 0.79249 0.84893 0.33463 0.0
C623 C 0.71611 0.85004 0.31725 0.0
C624 C 0.80468 0.86938 0.2456 0.0
C625 C 0.81191 0.92063 0.25471 0.0
N626 N 0.78929 0.89037 0.291 0.0
C627 C 0.79185 0.8667 0.27309 0.0
C628 C 0.79897 0.91713 0.28207 0.0
C629 C 0.81479 0.89655 0.23641 0.0
C630 C 0.71076 0.89342 0.41448 0.0
N631 N 0.70307 0.87011 0.39761 0.0
C632 C 0.68945 0.91157 0.42646 0.0
C633 C 0.66011 0.90572 0.42105 0.0
C634 C 0.65244 0.8819 0.4038 0.0
C635 C 0.67434 0.86425 0.39215 0.0
C636 C 0.69172 0.78325 0.43259 0.0
C637 C 0.71037 0.78799 0.37537 0.0
C638 C 0.7051 0.80868 0.42244 0.0
N639 N 0.71408 0.81085 0.39409 0.0
C640 C 0.69708 0.76222 0.38475 0.0
C641 C 0.68768 0.75991 0.41357 0.0
C642 C 0.78645 0.82475 0.34685 0.0
C643 C 0.81822 0.94453 0.38049 0.0
C644 C 0.83077 0.89953 0.34228 0.0
C645 C 0.85357 0.91435 0.35602 0.0
C646 C 0.84719 0.93698 0.37525 0.0
N647 N 0.80241 0.90711 0.34749 0.0
C648 C 0.79598 0.92925 0.36633 0.0
Co649 Co 0.10441 0.78012 0.33316 0.0
Co650 Co 0.14968 0.7365 0.37464 0.0
O651 O 0.11358 0.75833 0.36861 0.0
C652 C 0.05907 0.73455 0.33663 0.0
O653 O 0.07905 0.71705 0.34722 0.0
C654 C 0.15026 0.78218 0.41978 0.0
O655 O 0.13725 0.7995 0.40112 0.0
O656 O 0.17373 0.76786 0.35658 0.0
O657 O 0.14355 0.79903 0.33392 0.0
H658 H 0.24634 0.69411 0.34523 0.0
H659 H 0.06324 0.78194 0.38293 0.0
O660 O 0.06517 0.76109 0.33104 0.0
H661 H 0.09415 0.88384 0.36754 0.0
H662 H 0.03917 0.8386 0.26704 0.0
H663 H 0.13672 0.79502 0.27912 0.0
H664 H 0.11277 0.84456 0.33588 0.0
H665 H 0.05159 0.81138 0.31176 0.0
O666 O 0.15553 0.75571 0.41326 0.0
H667 H 0.20063 0.72143 0.33775 0.0
H668 H 0.17559 0.70535 0.42547 0.0
H669 H 0.12533 0.82228 0.23417 0.0
H670 H 0.04387 0.82057 0.41497 0.0
H671 H 0.07623 0.84429 0.22792 0.0
H672 H 0.05941 0.87193 0.4074 0.0
O673 O 0.12003 0.74857 0.30779 0.0
H674 H 0.07328 0.69666 0.44242 0.0
H675 H 0.14589 0.67203 0.367 0.0
H676 H 0.11569 0.63298 0.38852 0.0
H677 H 0.07909 0.64522 0.42653 0.0
H678 H 0.10379 0.73505 0.42013 0.0
H679 H 0.22118 0.67809 0.43401 0.0
H680 H 0.25686 0.67222 0.39366 0.0
O681 O 0.14526 0.71746 0.33595 0.0
C682 C 0.1689 0.79119 0.34226 0.0
C683 C 0.23091 0.6964 0.36294 0.0
C684 C 0.2168 0.68744 0.41278 0.0
N685 N 0.18532 0.71466 0.38104 0.0
C686 C 0.20494 0.71174 0.3588 0.0
C687 C 0.19104 0.70292 0.40783 0.0
C688 C 0.23681 0.68416 0.39013 0.0
C689 C 0.06986 0.80428 0.37935 0.0
N690 N 0.08897 0.81102 0.35749 0.0
C691 C 0.05893 0.82604 0.39762 0.0
C692 C 0.06769 0.85485 0.39339 0.0
C693 C 0.0872 0.86154 0.37104 0.0
C694 C 0.09771 0.83921 0.35322 0.0
C695 C 0.06066 0.82918 0.26955 0.0
C696 C 0.11539 0.80473 0.27665 0.0
C697 C 0.0678 0.81371 0.29479 0.0
N698 N 0.09494 0.80188 0.29815 0.0
C699 C 0.10903 0.82005 0.25111 0.0
C700 C 0.08147 0.83237 0.24761 0.0
C701 C 0.13466 0.72523 0.31147 0.0
C702 C 0.08921 0.69105 0.42593 0.0
C703 C 0.12997 0.67752 0.3835 0.0
C704 C 0.11298 0.65531 0.39564 0.0
C705 C 0.09246 0.66219 0.41698 0.0
N706 N 0.12668 0.70575 0.39243 0.0
C707 C 0.10662 0.71267 0.41333 0.0
Co708 Co 0.24422 0.87697 0.6452 0.0
Co709 Co 0.2858 0.82892 0.60507 0.0
O710 O 0.26639 0.86652 0.61034 0.0
C711 C 0.29274 0.91983 0.64326 0.0
O712 O 0.30929 0.90065 0.63001 0.0
C713 C 0.24023 0.83022 0.55986 0.0
O714 O 0.22386 0.84459 0.57837 0.0
O715 O 0.25293 0.80708 0.62368 0.0
O716 O 0.22217 0.83988 0.64284 0.0
H717 H 0.32251 0.7308 0.63712 0.0
H718 H 0.24779 0.9188 0.59607 0.0
O719 O 0.26617 0.91427 0.64912 0.0
H720 H 0.14307 0.89677 0.60737 0.0
H721 H 0.18913 0.94564 0.71075 0.0
H722 H 0.22474 0.84502 0.69798 0.0
H723 H 0.17939 0.87443 0.64015 0.0
H724 H 0.21664 0.93181 0.66665 0.0
O725 O 0.26632 0.82339 0.56649 0.0
H726 H 0.29796 0.77822 0.64334 0.0
H727 H 0.31522 0.79983 0.55493 0.0
H728 H 0.19709 0.85783 0.74229 0.0
H729 H 0.21219 0.94184 0.56295 0.0
H730 H 0.17909 0.90848 0.7489 0.0
H731 H 0.15942 0.93076 0.56845 0.0
O732 O 0.27345 0.85826 0.67142 0.0
H733 H 0.33032 0.9007 0.53522 0.0
H734 H 0.35039 0.8289 0.61274 0.0
H735 H 0.39128 0.8558 0.59028 0.0
H736 H 0.38135 0.89195 0.55118 0.0
H737 H 0.29007 0.87349 0.55847 0.0
H738 H 0.33974 0.75251 0.54766 0.0
H739 H 0.3436 0.71768 0.58898 0.0
O740 O 0.30499 0.83321 0.64362 0.0
C741 C 0.22903 0.81385 0.63621 0.0
C742 C 0.32106 0.74583 0.61897 0.0
C743 C 0.3307 0.75801 0.56875 0.0
N744 N 0.30542 0.79187 0.59961 0.0
C745 C 0.30728 0.77276 0.62239 0.0
C746 C 0.31676 0.78474 0.57299 0.0
C747 C 0.33286 0.73848 0.59195 0.0
C748 C 0.22484 0.91412 0.59876 0.0
N749 N 0.21566 0.89545 0.6201 0.0
C750 C 0.20479 0.92712 0.57987 0.0
C751 C 0.17519 0.92087 0.58295 0.0
C752 C 0.166 0.90179 0.60477 0.0
C753 C 0.18667 0.88917 0.62324 0.0
C754 C 0.19678 0.92348 0.70809 0.0
C755 C 0.21677 0.86704 0.70059 0.0
C756 C 0.2124 0.91553 0.68318 0.0
N757 N 0.22203 0.88756 0.67962 0.0
C758 C 0.20122 0.87419 0.72577 0.0
C759 C 0.19116 0.90262 0.72948 0.0
C760 C 0.2966 0.8432 0.66814 0.0
C761 C 0.33493 0.88494 0.55218 0.0
C762 C 0.3459 0.84467 0.5958 0.0
C763 C 0.36914 0.85978 0.58312 0.0
C764 C 0.36355 0.88005 0.56117 0.0
N765 N 0.31791 0.84954 0.5868 0.0
C766 C 0.31225 0.8694 0.56533 0.0
Co767 Co 0.15533 0.27143 0.60447 0.0
Co768 Co 0.11307 0.23155 0.65219 0.0
O769 O 0.11942 0.25067 0.6146 0.0
C770 C 0.15293 0.22187 0.56318 0.0
O771 O 0.13854 0.20661 0.58265 0.0
C772 C 0.06913 0.2788 0.65012 0.0
O773 O 0.08706 0.29408 0.63387 0.0
O774 O 0.13295 0.26358 0.67366 0.0
O775 O 0.15306 0.29427 0.64124 0.0
H776 H 0.14284 0.19461 0.75096 0.0
H777 H 0.10723 0.26877 0.56145 0.0
O778 O 0.15932 0.24852 0.56772 0.0
H779 H 0.12162 0.3734 0.58177 0.0
H780 H 0.22408 0.32303 0.53603 0.0
H781 H 0.20846 0.28908 0.63689 0.0
H782 H 0.15239 0.33639 0.6058 0.0
H783 H 0.17869 0.29744 0.5496 0.0
O784 O 0.07543 0.25284 0.65777 0.0
H785 H 0.15044 0.21834 0.70328 0.0
H786 H 0.06153 0.20439 0.68124 0.0
H787 H 0.25404 0.31483 0.62435 0.0
H788 H 0.07611 0.30504 0.53674 0.0
H789 H 0.26208 0.33198 0.57358 0.0
H790 H 0.08319 0.35778 0.54692 0.0
O791 O 0.18005 0.24167 0.62423 0.0
H792 H 0.04141 0.19 0.58052 0.0
H793 H 0.11771 0.1667 0.65263 0.0
H794 H 0.0934 0.12678 0.62595 0.0
H795 H 0.0549 0.13835 0.58964 0.0
H796 H 0.06648 0.22924 0.60754 0.0
H797 H 0.05288 0.18076 0.72881 0.0
H798 H 0.09375 0.17564 0.764 0.0
O799 O 0.15082 0.21054 0.64823 0.0
C800 C 0.14601 0.28727 0.66718 0.0
C801 C 0.12489 0.19658 0.73576 0.0
C802 C 0.07439 0.18884 0.72334 0.0
N803 N 0.10656 0.2124 0.68935 0.0
C804 C 0.12909 0.20988 0.70868 0.0
C805 C 0.07942 0.20225 0.69645 0.0
C806 C 0.09733 0.18597 0.74307 0.0
C807 C 0.11058 0.29169 0.56578 0.0
N808 N 0.13168 0.30048 0.58489 0.0
C809 C 0.09284 0.31212 0.55182 0.0
C810 C 0.09679 0.34171 0.55757 0.0
C811 C 0.11834 0.35049 0.57714 0.0
C812 C 0.13566 0.32944 0.59072 0.0
C813 C 0.22078 0.31578 0.55825 0.0
C814 C 0.21167 0.29676 0.61483 0.0
C815 C 0.19513 0.30127 0.56606 0.0
N816 N 0.19076 0.29215 0.59411 0.0
C817 C 0.23758 0.3112 0.60783 0.0
C818 C 0.24209 0.32079 0.57933 0.0
C819 C 0.17581 0.21842 0.63892 0.0
C820 C 0.05809 0.18468 0.59634 0.0
C821 C 0.10104 0.17189 0.6368 0.0
C822 C 0.08731 0.1492 0.6218 0.0
C823 C 0.0657 0.15571 0.60145 0.0
N824 N 0.09338 0.20024 0.63173 0.0
C825 C 0.07227 0.2068 0.61177 0.0
Co826 Co 0.76971 0.11814 0.66057 0.0
Co827 Co 0.7306 0.15496 0.60774 0.0
O828 O 0.75313 0.12156 0.62163 0.0
C829 C 0.72889 0.06862 0.65709 0.0
O830 O 0.71086 0.08596 0.6432 0.0
C831 C 0.78219 0.15443 0.56983 0.0
O832 O 0.79798 0.15209 0.59354 0.0
O833 O 0.75816 0.18351 0.62583 0.0
O834 O 0.78497 0.15861 0.65837 0.0
H835 H 0.68066 0.25215 0.61566 0.0
H836 H 0.78306 0.07317 0.61625 0.0
O837 O 0.75423 0.07757 0.66419 0.0
H838 H 0.87821 0.11523 0.64376 0.0
H839 H 0.82234 0.06618 0.74171 0.0
H840 H 0.7727 0.15688 0.71224 0.0
H841 H 0.83287 0.13258 0.66691 0.0
H842 H 0.80179 0.07128 0.69225 0.0
O843 O 0.75445 0.15532 0.57122 0.0
H844 H 0.70868 0.20998 0.63377 0.0
H845 H 0.70539 0.17071 0.54999 0.0
H846 H 0.79315 0.15281 0.76181 0.0
H847 H 0.8279 0.05497 0.59269 0.0
H848 H 0.81818 0.10719 0.77683 0.0
H849 H 0.87589 0.07609 0.60639 0.0
O850 O 0.73327 0.13285 0.67874 0.0
H851 H 0.70295 0.06696 0.54856 0.0
H852 H 0.6659 0.14841 0.60814 0.0
H853 H 0.63119 0.11306 0.58711 0.0
H854 H 0.64968 0.072 0.55705 0.0
H855 H 0.73692 0.10265 0.57022 0.0
H856 H 0.67753 0.21257 0.53089 0.0
H857 H 0.66489 0.25362 0.56386 0.0
O858 O 0.70681 0.15544 0.64417 0.0
C859 C 0.77813 0.18207 0.64516 0.0
C860 C 0.68591 0.23434 0.60111 0.0
C861 C 0.68419 0.21214 0.55352 0.0
N862 N 0.70834 0.18776 0.59305 0.0
C863 C 0.70167 0.21035 0.61127 0.0
C864 C 0.7 0.18852 0.56445 0.0
C865 C 0.6771 0.23516 0.57204 0.0
C866 C 0.8039 0.08228 0.62246 0.0
N867 N 0.80539 0.10378 0.64301 0.0
C868 C 0.8292 0.07197 0.60899 0.0
C869 C 0.85612 0.08386 0.61667 0.0
C870 C 0.85743 0.10583 0.63762 0.0
C871 C 0.83169 0.11562 0.65061 0.0
C872 C 0.81154 0.08619 0.7354 0.0
C873 C 0.78374 0.13704 0.71855 0.0
C874 C 0.79982 0.08918 0.70745 0.0
N875 N 0.78628 0.11444 0.6993 0.0
C876 C 0.7952 0.13483 0.74668 0.0
C877 C 0.80921 0.10921 0.7551 0.0
C878 C 0.71069 0.14673 0.6703 0.0
C879 C 0.69463 0.0848 0.56156 0.0
C880 C 0.67411 0.13055 0.59514 0.0
C881 C 0.65435 0.11065 0.58324 0.0
C882 C 0.66474 0.08762 0.56636 0.0
N883 N 0.70339 0.12766 0.59029 0.0
C884 C 0.71374 0.10514 0.57378 0.0
Co885 Co 0.84049 0.74007 0.61704 0.0
Co886 Co 0.88389 0.78818 0.65559 0.0
O887 O 0.87571 0.76368 0.62168 0.0
C888 C 0.83847 0.78211 0.56852 0.0
O889 O 0.84953 0.80161 0.58629 0.0
C890 C 0.9308 0.74461 0.65541 0.0
O891 O 0.91142 0.72557 0.6464 0.0
O892 O 0.86942 0.75771 0.68316 0.0
O893 O 0.8451 0.72417 0.65703 0.0
H894 H 0.86105 0.836 0.75146 0.0
H895 H 0.88701 0.73692 0.57227 0.0
O896 O 0.83456 0.75594 0.57697 0.0
H897 H 0.87808 0.63712 0.61142 0.0
H898 H 0.77174 0.67451 0.56192 0.0
H899 H 0.78981 0.72579 0.65467 0.0
H900 H 0.84634 0.67652 0.62961 0.0
H901 H 0.81617 0.70419 0.56856 0.0
O902 O 0.92378 0.77121 0.65895 0.0
H903 H 0.8509 0.80524 0.70853 0.0
H904 H 0.93529 0.8232 0.67468 0.0
H905 H 0.74525 0.69614 0.64907 0.0
H906 H 0.91903 0.69811 0.55326 0.0
H907 H 0.73598 0.67024 0.60241 0.0
H908 H 0.91473 0.64781 0.57295 0.0
O909 O 0.81519 0.77182 0.63254 0.0
H910 H 0.94248 0.82547 0.5708 0.0
H911 H 0.87295 0.8519 0.64847 0.0
H912 H 0.88976 0.88963 0.61395 0.0
H913 H 0.92479 0.87649 0.57478 0.0
H914 H 0.92491 0.78837 0.60564 0.0
H915 H 0.94646 0.85396 0.71737 0.0
H916 H 0.90914 0.86061 0.75607 0.0
O917 O 0.8442 0.80522 0.65355 0.0
C918 C 0.85536 0.73377 0.68097 0.0
C919 C 0.87746 0.83336 0.73469 0.0
C920 C 0.9254 0.84341 0.71557 0.0
N921 N 0.89238 0.81266 0.689 0.0
C922 C 0.8718 0.81604 0.71029 0.0
C923 C 0.91897 0.82593 0.69148 0.0
C924 C 0.90445 0.84713 0.73728 0.0
C925 C 0.88483 0.71502 0.58072 0.0
N926 N 0.86474 0.70895 0.60188 0.0
C927 C 0.9031 0.69316 0.56997 0.0
C928 C 0.90069 0.66495 0.58105 0.0
C929 C 0.88015 0.65894 0.60265 0.0
C930 C 0.86227 0.68135 0.6129 0.0
C931 C 0.77557 0.68563 0.58238 0.0
C932 C 0.78604 0.71441 0.63438 0.0
C933 C 0.80066 0.7025 0.58625 0.0
N934 N 0.8057 0.71648 0.61207 0.0
C935 C 0.76072 0.69774 0.6313 0.0
C936 C 0.75552 0.68324 0.60511 0.0
C937 C 0.81923 0.79607 0.64555 0.0
C938 C 0.92728 0.83148 0.58782 0.0
C939 C 0.88817 0.84601 0.63145 0.0
C940 C 0.89765 0.86748 0.61201 0.0
C941 C 0.91732 0.8601 0.59005 0.0
N942 N 0.89807 0.818 0.62914 0.0
C943 C 0.91736 0.8106 0.60768 0.0
Co944 Co 0.3465 0.23641 0.10587 0.0
Co945 Co 0.38895 0.27784 0.15184 0.0
O946 O 0.38264 0.25699 0.11524 0.0
C947 C 0.35064 0.284 0.06247 0.0
O948 O 0.36496 0.29971 0.08159 0.0
C949 C 0.43103 0.22944 0.1528 0.0
O950 O 0.41261 0.21409 0.13723 0.0
O951 O 0.36819 0.24729 0.17483 0.0
O952 O 0.34829 0.21522 0.14365 0.0
H953 H 0.35886 0.3207 0.24805 0.0
H954 H 0.39501 0.23632 0.06314 0.0
O955 O 0.34329 0.2578 0.06813 0.0
H956 H 0.37847 0.13297 0.08802 0.0
H957 H 0.27712 0.18331 0.03936 0.0
H958 H 0.29308 0.22072 0.13888 0.0
H959 H 0.34821 0.17156 0.11009 0.0
H960 H 0.32288 0.20867 0.05203 0.0
O961 O 0.42588 0.25603 0.15889 0.0
H962 H 0.35126 0.2947 0.2016 0.0
H963 H 0.44078 0.30516 0.18009 0.0
H964 H 0.24711 0.19529 0.12723 0.0
H965 H 0.42564 0.19841 0.04035 0.0
H966 H 0.23889 0.17639 0.07714 0.0
H967 H 0.41748 0.14632 0.05285 0.0
O968 O 0.32213 0.26733 0.12419 0.0
H969 H 0.46228 0.31406 0.07888 0.0
H970 H 0.38577 0.34272 0.14883 0.0
H971 H 0.41121 0.38066 0.12031 0.0
H972 H 0.4498 0.36639 0.08508 0.0
H973 H 0.43609 0.27683 0.10768 0.0
H974 H 0.44944 0.33105 0.22644 0.0
H975 H 0.40826 0.33906 0.26073 0.0
O976 O 0.35183 0.29936 0.14626 0.0
C977 C 0.35517 0.22332 0.16931 0.0
C978 C 0.37695 0.31747 0.23323 0.0
C979 C 0.42779 0.32324 0.22112 0.0
N980 N 0.39547 0.29874 0.18801 0.0
C981 C 0.37275 0.30286 0.20684 0.0
C982 C 0.42277 0.30855 0.19492 0.0
C983 C 0.40468 0.32773 0.24035 0.0
C984 C 0.39118 0.21367 0.06845 0.0
N985 N 0.36976 0.20613 0.08776 0.0
C986 C 0.40865 0.19232 0.05559 0.0
C987 C 0.40409 0.1631 0.06263 0.0
C988 C 0.38221 0.15559 0.08238 0.0
C989 C 0.36519 0.17753 0.09485 0.0
C990 C 0.28049 0.19134 0.06129 0.0
C991 C 0.28978 0.21231 0.11711 0.0
C992 C 0.30634 0.20573 0.06858 0.0
N993 N 0.31079 0.21584 0.09626 0.0
C994 C 0.26366 0.19803 0.11061 0.0
C995 C 0.25905 0.18747 0.0825 0.0
C996 C 0.32672 0.29129 0.13753 0.0
C997 C 0.44555 0.32055 0.09422 0.0
C998 C 0.40249 0.33635 0.13347 0.0
C999 C 0.41686 0.35793 0.11744 0.0
C1000 C 0.43852 0.34991 0.09768 0.0
N1001 N 0.40957 0.30762 0.12999 0.0
C1002 C 0.43075 0.29958 0.11066 0.0
Co1003 Co 0.37272 0.72348 0.83789 0.0
Co1004 Co 0.33613 0.76873 0.88564 0.0
O1005 O 0.36963 0.74471 0.87461 0.0
C1006 C 0.4215 0.76543 0.83665 0.0
O1007 O 0.40448 0.78407 0.85009 0.0
C1008 C 0.33802 0.72062 0.92812 0.0
O1009 O 0.34814 0.70409 0.90715 0.0
O1010 O 0.30777 0.7404 0.86899 0.0
O1011 O 0.33277 0.70733 0.84309 0.0
H1012 H 0.24057 0.81987 0.86954 0.0
H1013 H 0.41946 0.71695 0.88198 0.0
O1014 O 0.41266 0.73964 0.83129 0.0
H1015 H 0.37958 0.61805 0.86777 0.0
H1016 H 0.42449 0.66302 0.7623 0.0
H1017 H 0.33287 0.71303 0.78807 0.0
H1018 H 0.3601 0.65967 0.83981 0.0
H1019 H 0.41992 0.6893 0.80901 0.0
O1020 O 0.33296 0.74761 0.92376 0.0
H1021 H 0.28279 0.78964 0.85557 0.0
H1022 H 0.31855 0.7987 0.9405 0.0
H1023 H 0.33639 0.68678 0.74128 0.0
H1024 H 0.43977 0.6759 0.91023 0.0
H1025 H 0.38248 0.66155 0.72813 0.0
H1026 H 0.41972 0.62604 0.90325 0.0
O1027 O 0.35653 0.75702 0.81576 0.0
H1028 H 0.42223 0.79901 0.9463 0.0
H1029 H 0.34428 0.83301 0.88049 0.0
H1030 H 0.37958 0.86849 0.9003 0.0
H1031 H 0.41888 0.85153 0.93349 0.0
H1032 H 0.3866 0.76424 0.92579 0.0
H1033 H 0.27658 0.82881 0.9555 0.0
H1034 H 0.23728 0.83968 0.91984 0.0
O1035 O 0.33782 0.78948 0.84741 0.0
C1036 C 0.30915 0.7171 0.85395 0.0
C1037 C 0.25762 0.81541 0.88524 0.0
C1038 C 0.27781 0.8204 0.93349 0.0
N1039 N 0.30328 0.79274 0.89709 0.0
C1040 C 0.28164 0.79842 0.87741 0.0
C1041 C 0.30151 0.80331 0.92489 0.0
C1042 C 0.25577 0.82648 0.91347 0.0
C1043 C 0.41085 0.69526 0.87863 0.0
N1044 N 0.38876 0.69067 0.85918 0.0
C1045 C 0.42234 0.67213 0.89477 0.0
C1046 C 0.41105 0.64416 0.89087 0.0
C1047 C 0.38851 0.63966 0.87098 0.0
C1048 C 0.37754 0.66332 0.85525 0.0
C1049 C 0.40427 0.67386 0.76782 0.0
C1050 C 0.35291 0.7019 0.78261 0.0
C1051 C 0.40157 0.68881 0.79421 0.0
N1052 N 0.37605 0.70243 0.80137 0.0
C1053 C 0.35482 0.68717 0.75604 0.0
C1054 C 0.38069 0.67304 0.74866 0.0
C1055 C 0.34474 0.78151 0.82166 0.0
C1056 C 0.40515 0.80667 0.93193 0.0
C1057 C 0.36136 0.82547 0.89488 0.0
C1058 C 0.38125 0.84567 0.90607 0.0
C1059 C 0.40328 0.83614 0.9247 0.0
N1060 N 0.36331 0.79663 0.90212 0.0
C1061 C 0.38485 0.78711 0.92035 0.0
Co1062 Co 0.21515 0.33885 0.88066 0.0
Co1063 Co 0.25776 0.38304 0.83737 0.0
O1064 O 0.23565 0.3755 0.87307 0.0
C1065 C 0.26129 0.34075 0.92544 0.0
O1066 O 0.27803 0.35434 0.90661 0.0
C1067 C 0.20953 0.42566 0.83505 0.0
O1068 O 0.19287 0.40763 0.84977 0.0
O1069 O 0.22807 0.36283 0.81264 0.0
O1070 O 0.19538 0.34182 0.84242 0.0
H1071 H 0.30366 0.35631 0.74154 0.0
H1072 H 0.21313 0.38591 0.92484 0.0
O1073 O 0.23498 0.33458 0.91909 0.0
H1074 H 0.11081 0.36933 0.89605 0.0
H1075 H 0.15984 0.26695 0.94271 0.0
H1076 H 0.20104 0.28659 0.84531 0.0
H1077 H 0.15042 0.34024 0.87422 0.0
H1078 H 0.18549 0.3132 0.93263 0.0
O1079 O 0.23634 0.42008 0.83059 0.0
H1080 H 0.27613 0.34713 0.78684 0.0
H1081 H 0.28628 0.43571 0.8119 0.0
H1082 H 0.17534 0.24018 0.85436 0.0
H1083 H 0.17417 0.41535 0.94742 0.0
H1084 H 0.15454 0.23011 0.90337 0.0
H1085 H 0.12259 0.40715 0.93299 0.0
O1086 O 0.24704 0.31518 0.86263 0.0
H1087 H 0.29095 0.45383 0.91403 0.0
H1088 H 0.32257 0.38003 0.84254 0.0
H1089 H 0.35931 0.40455 0.87329 0.0
H1090 H 0.34356 0.44177 0.90931 0.0
H1091 H 0.25493 0.4286 0.88299 0.0
H1092 H 0.31371 0.44593 0.76674 0.0
H1093 H 0.32265 0.40603 0.73124 0.0
O1094 O 0.27925 0.34601 0.84247 0.0
C1095 C 0.2041 0.34938 0.81719 0.0
C1096 C 0.30003 0.37385 0.7569 0.0
C1097 C 0.30564 0.42415 0.77103 0.0
N1098 N 0.27993 0.39077 0.80216 0.0
C1099 C 0.28456 0.36875 0.78264 0.0
C1100 C 0.29009 0.41824 0.79655 0.0
C1101 C 0.31065 0.40175 0.75112 0.0
C1102 C 0.19071 0.38208 0.91864 0.0
N1103 N 0.18403 0.36129 0.89839 0.0
C1104 C 0.16876 0.39888 0.93141 0.0
C1105 C 0.13982 0.39429 0.92327 0.0
C1106 C 0.13319 0.37308 0.90254 0.0
C1107 C 0.15572 0.35672 0.89021 0.0
C1108 C 0.16874 0.27112 0.92125 0.0
C1109 C 0.19184 0.28247 0.86662 0.0
C1110 C 0.18331 0.29725 0.91542 0.0
N1111 N 0.1945 0.3027 0.88833 0.0
C1112 C 0.1774 0.25611 0.87165 0.0
C1113 C 0.16577 0.25046 0.89916 0.0
C1114 C 0.27131 0.32055 0.85008 0.0
C1115 C 0.29809 0.4377 0.89837 0.0
C1116 C 0.31555 0.39616 0.85822 0.0
C1117 C 0.33645 0.41 0.87553 0.0
C1118 C 0.3276 0.4309 0.89573 0.0
N1119 N 0.28666 0.40301 0.8609 0.0
C1120 C 0.27781 0.42344 0.88067 0.0
Co1121 Co 0.60925 0.25415 0.83919 0.0
Co1122 Co 0.65726 0.21245 0.8796 0.0
O1123 O 0.62041 0.23333 0.87482 0.0
C1124 C 0.56518 0.20734 0.84522 0.0
O1125 O 0.58542 0.19059 0.8565 0.0
C1126 C 0.66022 0.2583 0.92474 0.0
O1127 O 0.64632 0.27596 0.90702 0.0
O1128 O 0.6796 0.24451 0.86031 0.0
O1129 O 0.64751 0.27454 0.83865 0.0
H1130 H 0.75341 0.1723 0.84578 0.0
H1131 H 0.5697 0.25498 0.89031 0.0
O1132 O 0.57076 0.2337 0.8384 0.0
H1133 H 0.5959 0.35782 0.87264 0.0
H1134 H 0.5397 0.30907 0.77441 0.0
H1135 H 0.63925 0.26957 0.78396 0.0
H1136 H 0.61509 0.3189 0.84088 0.0
H1137 H 0.55461 0.2831 0.8191 0.0
O1138 O 0.66449 0.23179 0.9178 0.0
H1139 H 0.7067 0.19839 0.84041 0.0
H1140 H 0.68638 0.18218 0.92933 0.0
H1141 H 0.62535 0.2956 0.739 0.0
H1142 H 0.54982 0.29323 0.92248 0.0
H1143 H 0.57524 0.31556 0.73401 0.0
H1144 H 0.56297 0.34506 0.91375 0.0
O1145 O 0.62535 0.22296 0.81346 0.0
H1146 H 0.58505 0.17149 0.95112 0.0
H1147 H 0.655 0.14771 0.87297 0.0
H1148 H 0.62693 0.10818 0.89638 0.0
H1149 H 0.59168 0.11998 0.93578 0.0
H1150 H 0.61341 0.21037 0.92693 0.0
H1151 H 0.73301 0.15615 0.93574 0.0
H1152 H 0.76683 0.15098 0.89373 0.0
O1153 O 0.65161 0.19284 0.84159 0.0
C1154 C 0.67335 0.26771 0.84624 0.0
C1155 C 0.73881 0.17432 0.86422 0.0
C1156 C 0.72738 0.16528 0.91472 0.0
N1157 N 0.69372 0.19157 0.88445 0.0
C1158 C 0.71229 0.18899 0.86129 0.0
C1159 C 0.70103 0.18009 0.91097 0.0
C1160 C 0.74634 0.16239 0.89114 0.0
C1161 C 0.57531 0.27751 0.88624 0.0
N1162 N 0.59338 0.28472 0.86367 0.0
C1163 C 0.56408 0.29906 0.90458 0.0
C1164 C 0.5715 0.32814 0.8997 0.0
C1165 C 0.58999 0.33531 0.87664 0.0
C1166 C 0.60083 0.31318 0.85877 0.0
C1167 C 0.56163 0.30056 0.77636 0.0
C1168 C 0.61749 0.2784 0.78205 0.0
C1169 C 0.57018 0.2858 0.80159 0.0
N1170 N 0.59787 0.27509 0.80425 0.0
C1171 C 0.60971 0.29303 0.7565 0.0
C1172 C 0.58158 0.30419 0.7537 0.0
C1173 C 0.64047 0.19995 0.81723 0.0
C1174 C 0.60039 0.16606 0.93402 0.0
C1175 C 0.63964 0.15302 0.89004 0.0
C1176 C 0.62385 0.13054 0.90326 0.0
C1177 C 0.60409 0.13717 0.92538 0.0
N1178 N 0.6359 0.18129 0.89867 0.0
C1179 C 0.61658 0.18797 0.92034 0.0
Co1180 Co 0.7713 0.66491 0.875 0.0
Co1181 Co 0.73061 0.61368 0.83758 0.0
O1182 O 0.753 0.62672 0.87134 0.0
C1183 C 0.73024 0.66237 0.92428 0.0
O1184 O 0.71141 0.65035 0.90639 0.0
C1185 C 0.77893 0.57156 0.84029 0.0
O1186 O 0.79679 0.59392 0.8411 0.0
O1187 O 0.76049 0.62907 0.80979 0.0
O1188 O 0.78656 0.66236 0.83458 0.0
H1189 H 0.68449 0.62317 0.73863 0.0
H1190 H 0.78248 0.61966 0.91975 0.0
O1191 O 0.75585 0.66869 0.91553 0.0
H1192 H 0.87887 0.64318 0.87808 0.0
H1193 H 0.82744 0.7431 0.92786 0.0
H1194 H 0.77697 0.71673 0.83665 0.0
H1195 H 0.83468 0.66847 0.86075 0.0
H1196 H 0.80451 0.69472 0.92229 0.0
O1197 O 0.75144 0.57536 0.83914 0.0
H1198 H 0.7124 0.64009 0.78137 0.0
H1199 H 0.70172 0.55755 0.82209 0.0
H1200 H 0.79982 0.76523 0.84118 0.0
H1201 H 0.82614 0.59398 0.9379 0.0
H1202 H 0.82527 0.77869 0.88706 0.0
H1203 H 0.87475 0.60568 0.91697 0.0
O1204 O 0.73582 0.68496 0.86014 0.0
H1205 H 0.69537 0.55926 0.92601 0.0
H1206 H 0.66592 0.61901 0.84157 0.0
H1207 H 0.62847 0.60168 0.87614 0.0
H1208 H 0.64313 0.57157 0.91871 0.0
H1209 H 0.73214 0.57725 0.89105 0.0
H1210 H 0.67388 0.53965 0.77968 0.0
H1211 H 0.66501 0.57261 0.73761 0.0
O1212 O 0.70969 0.65174 0.83532 0.0
C1213 C 0.78053 0.64838 0.81135 0.0
C1214 C 0.68812 0.60864 0.75687 0.0
C1215 C 0.6822 0.56175 0.7799 0.0
N1216 N 0.70845 0.59991 0.8043 0.0
C1217 C 0.70383 0.61812 0.78117 0.0
C1218 C 0.69802 0.57199 0.80382 0.0
C1219 C 0.67722 0.58025 0.7563 0.0
C1220 C 0.8036 0.62502 0.91072 0.0
N1221 N 0.80607 0.64564 0.88936 0.0
C1222 C 0.82822 0.61034 0.921 0.0
C1223 C 0.85549 0.61689 0.90922 0.0
C1224 C 0.85781 0.63792 0.88739 0.0
C1225 C 0.83271 0.65212 0.87762 0.0
C1226 C 0.81647 0.73747 0.90774 0.0
C1227 C 0.78818 0.72235 0.85661 0.0
C1228 C 0.8034 0.71013 0.90449 0.0
N1229 N 0.78963 0.70283 0.87909 0.0
C1230 C 0.801 0.74988 0.85908 0.0
C1231 C 0.81525 0.75743 0.88484 0.0
C1232 C 0.71395 0.67762 0.8446 0.0
C1233 C 0.68871 0.5723 0.9075 0.0
C1234 C 0.67247 0.60595 0.86007 0.0
C1235 C 0.65117 0.59616 0.87954 0.0
C1236 C 0.6594 0.57925 0.90341 0.0
N1237 N 0.70117 0.59902 0.86422 0.0
C1238 C 0.70941 0.58244 0.88756 0.0
Co1239 Co 0.65986 0.76072 0.11389 0.0
Co1240 Co 0.60784 0.72974 0.15888 0.0
O1241 O 0.62085 0.74538 0.1214 0.0
C1242 C 0.65443 0.71186 0.07203 0.0
O1243 O 0.63971 0.697 0.09159 0.0
C1244 C 0.56935 0.78044 0.1504 0.0
O1245 O 0.59269 0.79597 0.14468 0.0
O1246 O 0.62695 0.76208 0.1811 0.0
O1247 O 0.65868 0.7835 0.15052 0.0
H1248 H 0.61917 0.69866 0.26337 0.0
H1249 H 0.61432 0.76528 0.06834 0.0
O1250 O 0.66258 0.7379 0.07707 0.0
H1251 H 0.64312 0.86661 0.09011 0.0
H1252 H 0.73983 0.80175 0.05067 0.0
H1253 H 0.71252 0.77094 0.15006 0.0
H1254 H 0.66668 0.82543 0.11545 0.0
H1255 H 0.69044 0.78295 0.06091 0.0
O1256 O 0.57126 0.75332 0.15599 0.0
H1257 H 0.63583 0.71808 0.21605 0.0
H1258 H 0.55055 0.70843 0.18115 0.0
H1259 H 0.76206 0.78986 0.14084 0.0
H1260 H 0.59033 0.80579 0.0423 0.0
H1261 H 0.77599 0.8054 0.09084 0.0
H1262 H 0.60468 0.85689 0.05319 0.0
O1263 O 0.6785 0.72768 0.13504 0.0
H1264 H 0.5456 0.68648 0.07973 0.0
H1265 H 0.60779 0.66498 0.16478 0.0
H1266 H 0.58536 0.62442 0.13746 0.0
H1267 H 0.55397 0.63508 0.09462 0.0
H1268 H 0.56867 0.72636 0.10753 0.0
H1269 H 0.53291 0.6891 0.22818 0.0
H1270 H 0.56736 0.68401 0.26966 0.0
O1271 O 0.64413 0.70625 0.16268 0.0
C1272 C 0.64621 0.78134 0.17521 0.0
C1273 C 0.60397 0.70067 0.24543 0.0
C1274 C 0.55555 0.69534 0.22568 0.0
N1275 N 0.59425 0.71413 0.19579 0.0
C1276 C 0.6133 0.71157 0.21855 0.0
C1277 C 0.56565 0.70634 0.19913 0.0
C1278 C 0.57489 0.69249 0.24895 0.0
C1279 C 0.62082 0.78746 0.07303 0.0
N1280 N 0.64196 0.79299 0.09327 0.0
C1281 C 0.6071 0.8103 0.05829 0.0
C1282 C 0.61514 0.83897 0.06443 0.0
C1283 C 0.63669 0.84444 0.08516 0.0
C1284 C 0.64991 0.82104 0.09949 0.0
C1285 C 0.73399 0.79512 0.07257 0.0
C1286 C 0.71835 0.77787 0.12828 0.0
C1287 C 0.70608 0.78441 0.07849 0.0
N1288 N 0.69853 0.77609 0.1061 0.0
C1289 C 0.74646 0.78847 0.12318 0.0
C1290 C 0.75427 0.79716 0.09511 0.0
C1291 C 0.67018 0.70825 0.15317 0.0
C1292 C 0.55917 0.68156 0.0984 0.0
C1293 C 0.59423 0.66978 0.14612 0.0
C1294 C 0.58153 0.64673 0.13077 0.0
C1295 C 0.56391 0.65273 0.10675 0.0
N1296 N 0.58943 0.698 0.13783 0.0
C1297 C 0.5722 0.70406 0.11429 0.0
Co1298 Co 0.2704 0.61702 0.15846 0.0
Co1299 Co 0.21916 0.65521 0.11859 0.0
O1300 O 0.24517 0.62198 0.12444 0.0
C1301 C 0.2291 0.56801 0.16088 0.0
O1302 O 0.20932 0.58598 0.15073 0.0
C1303 C 0.26153 0.65907 0.0707 0.0
O1304 O 0.28104 0.64873 0.08887 0.0
O1305 O 0.24894 0.68311 0.13336 0.0
O1306 O 0.28531 0.65754 0.15392 0.0
H1307 H 0.16858 0.74795 0.14752 0.0
H1308 H 0.27225 0.57322 0.11101 0.0
O1309 O 0.25536 0.57648 0.1643 0.0
H1310 H 0.37162 0.61423 0.11598 0.0
H1311 H 0.34003 0.56163 0.22274 0.0
H1312 H 0.28638 0.6538 0.2092 0.0
H1313 H 0.33335 0.63102 0.14986 0.0
H1314 H 0.3081 0.56867 0.18001 0.0
O1315 O 0.23495 0.66142 0.07844 0.0
H1316 H 0.20134 0.70591 0.15453 0.0
H1317 H 0.18181 0.67533 0.06934 0.0
H1318 H 0.31829 0.64781 0.25208 0.0
H1319 H 0.30993 0.55561 0.07686 0.0
H1320 H 0.34538 0.60145 0.25906 0.0
H1321 H 0.36 0.57624 0.07918 0.0
O1322 O 0.23962 0.63135 0.18555 0.0
H1323 H 0.18337 0.57205 0.05696 0.0
H1324 H 0.15614 0.64492 0.13117 0.0
H1325 H 0.11927 0.60973 0.11384 0.0
H1326 H 0.13282 0.57297 0.07646 0.0
H1327 H 0.21961 0.60751 0.07509 0.0
H1328 H 0.14905 0.71722 0.06126 0.0
H1329 H 0.14216 0.75381 0.10059 0.0
O1330 O 0.20345 0.65059 0.15874 0.0
C1331 C 0.27392 0.68144 0.14546 0.0
C1332 C 0.17129 0.73209 0.13026 0.0
C1333 C 0.16036 0.71486 0.08184 0.0
N1334 N 0.19319 0.688 0.11251 0.0
C1335 C 0.18973 0.70817 0.13415 0.0
C1336 C 0.17896 0.69121 0.08652 0.0
C1337 C 0.15651 0.73538 0.10391 0.0
C1338 C 0.29407 0.58207 0.11232 0.0
N1339 N 0.30065 0.60297 0.13249 0.0
C1340 C 0.31528 0.57211 0.09286 0.0
C1341 C 0.34336 0.58373 0.09414 0.0
C1342 C 0.3499 0.60506 0.11478 0.0
C1343 C 0.32813 0.61451 0.13387 0.0
C1344 C 0.3284 0.58196 0.2199 0.0
C1345 C 0.29828 0.63365 0.21197 0.0
C1346 C 0.31026 0.58605 0.19577 0.0
N1347 N 0.29565 0.61174 0.19197 0.0
C1348 C 0.31623 0.63035 0.23635 0.0
C1349 C 0.3314 0.60431 0.24026 0.0
C1350 C 0.21446 0.64292 0.18307 0.0
C1351 C 0.17718 0.58802 0.07319 0.0
C1352 C 0.16219 0.62897 0.11491 0.0
C1353 C 0.14122 0.60913 0.10516 0.0
C1354 C 0.14883 0.58852 0.08417 0.0
N1355 N 0.18994 0.62833 0.10401 0.0
C1356 C 0.19757 0.60821 0.08344 0.0
Co1357 Co 0.73072 0.37432 0.15633 0.0
Co1358 Co 0.77087 0.33187 0.1089 0.0
O1359 O 0.74993 0.36755 0.11897 0.0
C1360 C 0.77617 0.41978 0.15257 0.0
O1361 O 0.79282 0.40097 0.13893 0.0
C1362 C 0.72194 0.33533 0.06725 0.0
O1363 O 0.70624 0.34683 0.08818 0.0
O1364 O 0.74076 0.30674 0.1276 0.0
O1365 O 0.7115 0.33549 0.15426 0.0
H1366 H 0.81465 0.23332 0.12826 0.0
H1367 H 0.72578 0.41881 0.10971 0.0
O1368 O 0.75017 0.4131 0.15979 0.0
H1369 H 0.62491 0.38733 0.13009 0.0
H1370 H 0.67773 0.43509 0.23078 0.0
H1371 H 0.71946 0.33845 0.209 0.0
H1372 H 0.66615 0.36647 0.15762 0.0
H1373 H 0.7015 0.42565 0.18345 0.0
O1374 O 0.74868 0.32899 0.07145 0.0
H1375 H 0.78844 0.27851 0.14099 0.0
H1376 H 0.79762 0.30937 0.05413 0.0
H1377 H 0.69563 0.34685 0.25647 0.0
H1378 H 0.68517 0.44043 0.08182 0.0
H1379 H 0.67457 0.39548 0.26762 0.0
H1380 H 0.63431 0.4246 0.0919 0.0
O1381 O 0.76379 0.35683 0.17826 0.0
H1382 H 0.80649 0.41236 0.04354 0.0
H1383 H 0.83575 0.33475 0.112 0.0
H1384 H 0.87349 0.36595 0.08959 0.0
H1385 H 0.85892 0.40506 0.05506 0.0
H1386 H 0.76946 0.3808 0.06665 0.0
H1387 H 0.82368 0.26439 0.04037 0.0
H1388 H 0.83245 0.22604 0.07762 0.0
O1389 O 0.79277 0.33346 0.14643 0.0
C1390 C 0.71862 0.31071 0.14393 0.0
C1391 C 0.81107 0.24992 0.11186 0.0
C1392 C 0.81611 0.26735 0.06253 0.0
N1393 N 0.7918 0.29668 0.09841 0.0
C1394 C 0.79635 0.2756 0.11897 0.0
C1395 C 0.80131 0.29275 0.07043 0.0
C1396 C 0.82102 0.24584 0.08344 0.0
C1397 C 0.70368 0.41205 0.1144 0.0
N1398 N 0.69832 0.39154 0.13535 0.0
C1399 C 0.68079 0.42426 0.09846 0.0
C1400 C 0.65226 0.41534 0.1041 0.0
C1401 C 0.64697 0.39442 0.12552 0.0
C1402 C 0.67041 0.38265 0.14099 0.0
C1403 C 0.68674 0.41379 0.22614 0.0
C1404 C 0.71011 0.35959 0.21359 0.0
C1405 C 0.70025 0.40832 0.1994 0.0
N1406 N 0.71156 0.38143 0.19335 0.0
C1407 C 0.69675 0.36425 0.24055 0.0
C1408 C 0.68497 0.39155 0.2468 0.0
C1409 C 0.7867 0.34234 0.17208 0.0
C1410 C 0.81311 0.39534 0.05849 0.0
C1411 C 0.82925 0.35177 0.09704 0.0
C1412 C 0.85071 0.36933 0.08438 0.0
C1413 C 0.84253 0.39126 0.06499 0.0
N1414 N 0.80046 0.35588 0.0905 0.0
C1415 C 0.79226 0.37734 0.07154 0.0
H1416 H 0.18014 0.53795 0.14655 0.0
H1417 H 0.25817 0.53324 0.1991 0.0
H1418 H 0.24157 0.48731 0.22019 0.0
H1419 H 0.20443 0.44935 0.22479 0.0
H1420 H 0.1277 0.45187 0.17046 0.0
H1421 H 0.14416 0.49807 0.149 0.0
C1422 C 0.19354 0.52676 0.16251 0.0
C1423 C 0.22022 0.539 0.1714 0.0
C1424 C 0.184 0.50021 0.17437 0.0
C1425 C 0.23757 0.52418 0.19183 0.0
C1426 C 0.22804 0.49802 0.20404 0.0
C1427 C 0.19123 0.46014 0.20838 0.0
C1428 C 0.16473 0.44768 0.19947 0.0
C1429 C 0.20118 0.48605 0.1957 0.0
C1430 C 0.14812 0.46134 0.17771 0.0
C1431 C 0.15753 0.48763 0.16546 0.0
H1432 H 0.53687 0.15516 0.1977 0.0
H1433 H 0.52761 0.21326 0.27117 0.0
H1434 H 0.48603 0.23683 0.24757 0.0
H1435 H 0.45421 0.24246 0.20504 0.0
H1436 H 0.46213 0.18323 0.13241 0.0
H1437 H 0.50287 0.15859 0.15665 0.0
C1438 C 0.52559 0.17284 0.20864 0.0
C1439 C 0.53535 0.1827 0.23595 0.0
C1440 C 0.5019 0.18627 0.19495 0.0
C1441 C 0.52039 0.2053 0.25013 0.0
C1442 C 0.49681 0.21891 0.23657 0.0
C1443 C 0.46504 0.22429 0.19445 0.0
C1444 C 0.45578 0.21491 0.16682 0.0
C1445 C 0.48779 0.20991 0.20877 0.0
C1446 C 0.46926 0.19088 0.1536 0.0
C1447 C 0.4924 0.1768 0.16745 0.0
H1448 H 0.75883 0.44976 0.19972 0.0
H1449 H 0.82192 0.45084 0.12994 0.0
H1450 H 0.84333 0.49579 0.14963 0.0
H1451 H 0.84406 0.53445 0.18723 0.0
H1452 H 0.78229 0.5304 0.2583 0.0
H1453 H 0.76053 0.4867 0.2376 0.0
C1454 C 0.7771 0.45997 0.18863 0.0
C1455 C 0.78861 0.44735 0.16327 0.0
C1456 C 0.78966 0.48508 0.20046 0.0
C1457 C 0.81267 0.46037 0.14947 0.0
C1458 C 0.8249 0.48597 0.16073 0.0
C1459 C 0.82589 0.52391 0.19815 0.0
C1460 C 0.81481 0.53563 0.22422 0.0
C1461 C 0.81362 0.49845 0.18631 0.0
C1462 C 0.79138 0.5217 0.23831 0.0
C1463 C 0.77879 0.49679 0.22643 0.0
H1464 H 0.55893 0.81964 0.19236 0.0
H1465 H 0.51797 0.77218 0.12246 0.0
H1466 H 0.47022 0.79182 0.13648 0.0
H1467 H 0.43995 0.81877 0.17141 0.0
H1468 H 0.48023 0.86072 0.24529 0.0
H1469 H 0.52861 0.84719 0.22705 0.0
C1470 C 0.53952 0.8142 0.17994 0.0
C1471 C 0.54163 0.79506 0.1562 0.0
C1472 C 0.51217 0.82435 0.18908 0.0
C1473 C 0.51656 0.78724 0.1406 0.0
C1474 C 0.48938 0.79833 0.1487 0.0
C1475 C 0.45939 0.82534 0.18321 0.0
C1476 C 0.45674 0.84083 0.20949 0.0
C1477 C 0.48687 0.81639 0.17329 0.0
C1478 C 0.48192 0.84877 0.22499 0.0
C1479 C 0.50948 0.84103 0.21459 0.0
H1480 H 0.16754 0.46372 0.85297 0.0
H1481 H 0.22255 0.44088 0.78011 0.0
H1482 H 0.20322 0.48145 0.75194 0.0
H1483 H 0.17383 0.52499 0.74913 0.0
H1484 H 0.12186 0.55198 0.82279 0.0
H1485 H 0.13653 0.50802 0.8495 0.0
C1486 C 0.17502 0.46771 0.83088 0.0
C1487 C 0.19655 0.44975 0.81863 0.0
C1488 C 0.16442 0.4917 0.81502 0.0
C1489 C 0.20629 0.45486 0.79005 0.0
C1490 C 0.19518 0.4779 0.77389 0.0
C1491 C 0.16529 0.52115 0.77087 0.0
C1492 C 0.14682 0.54166 0.78399 0.0
C1493 C 0.17467 0.4967 0.78633 0.0
C1494 C 0.1362 0.53644 0.81227 0.0
C1495 C 0.14465 0.51141 0.82756 0.0
H1496 H 0.53115 0.22449 0.80079 0.0
H1497 H 0.53611 0.16183 0.87075 0.0
H1498 H 0.48912 0.14094 0.85574 0.0
H1499 H 0.44674 0.14068 0.82227 0.0
H1500 H 0.44468 0.20169 0.75051 0.0
H1501 H 0.4906 0.22295 0.7666 0.0
C1502 C 0.52183 0.2064 0.81292 0.0
C1503 C 0.53673 0.19491 0.83703 0.0
C1504 C 0.49548 0.19411 0.80369 0.0
C1505 C 0.52483 0.17107 0.85216 0.0
C1506 C 0.49805 0.15915 0.84357 0.0
C1507 C 0.45644 0.15859 0.8102 0.0
C1508 C 0.44235 0.16964 0.78531 0.0
C1509 C 0.4832 0.17048 0.8193 0.0
C1510 C 0.4552 0.19267 0.76965 0.0
C1511 C 0.48138 0.20496 0.77889 0.0
H1512 H 0.82233 0.55442 0.80476 0.0
H1513 H 0.76059 0.52267 0.86816 0.0
H1514 H 0.77718 0.47254 0.85988 0.0
H1515 H 0.80671 0.43759 0.83182 0.0
H1516 H 0.86326 0.469 0.76359 0.0
H1517 H 0.85154 0.5195 0.77646 0.0
C1518 C 0.81292 0.53648 0.81702 0.0
C1519 C 0.7906 0.54195 0.83722 0.0
C1520 C 0.82154 0.50776 0.81108 0.0
C1521 C 0.77792 0.51871 0.85258 0.0
C1522 C 0.78735 0.49016 0.84782 0.0
C1523 C 0.81672 0.4556 0.82014 0.0
C1524 C 0.83597 0.44989 0.79706 0.0
C1525 C 0.80879 0.48438 0.82675 0.0
C1526 C 0.84842 0.47313 0.78151 0.0
C1527 C 0.84171 0.5019 0.78884 0.0
H1528 H 0.53522 0.79354 0.76569 0.0
H1529 H 0.53704 0.8676 0.82359 0.0
H1530 H 0.49247 0.8501 0.84764 0.0
H1531 H 0.45258 0.81395 0.85125 0.0
H1532 H 0.45335 0.73879 0.79447 0.0
H1533 H 0.49761 0.75644 0.77109 0.0
C1534 C 0.52576 0.80596 0.78348 0.0
C1535 C 0.53898 0.832 0.79264 0.0
C1536 C 0.50079 0.79547 0.79748 0.0
C1537 C 0.52701 0.84754 0.81613 0.0
C1538 C 0.50162 0.83755 0.82984 0.0
C1539 C 0.46257 0.80141 0.83387 0.0
C1540 C 0.44964 0.7752 0.82453 0.0
C1541 C 0.48827 0.81155 0.8206 0.0
C1542 C 0.46291 0.75899 0.80216 0.0
C1543 C 0.48814 0.76912 0.78865 0.0
H1544 H 0.20614 0.23218 0.54161 0.0
H1545 H 0.13012 0.17809 0.52967 0.0
H1546 H 0.1533 0.15451 0.48749 0.0
H1547 H 0.19477 0.15092 0.45321 0.0
H1548 H 0.27156 0.20362 0.46795 0.0
H1549 H 0.2486 0.22584 0.5103 0.0
C1550 C 0.1946 0.21532 0.52964 0.0
C1551 C 0.16632 0.2072 0.5381 0.0
C1552 C 0.20828 0.20151 0.5062 0.0
C1553 C 0.15184 0.18478 0.52315 0.0
C1554 C 0.16509 0.17135 0.49917 0.0
C1555 C 0.20653 0.16708 0.46587 0.0
C1556 C 0.23471 0.17579 0.45731 0.0
C1557 C 0.19325 0.17972 0.49039 0.0
C1558 C 0.24986 0.1965 0.47407 0.0
C1559 C 0.23671 0.20937 0.4982 0.0
H1560 H 0.82414 0.19411 0.55983 0.0
H1561 H 0.77077 0.12922 0.5177 0.0
H1562 H 0.79096 0.143 0.47014 0.0
H1563 H 0.82048 0.17624 0.44054 0.0
H1564 H 0.86851 0.24574 0.48186 0.0
H1565 H 0.85392 0.2275 0.53001 0.0
C1566 C 0.81743 0.18274 0.5402 0.0
C1567 C 0.79641 0.16054 0.54193 0.0
C1568 C 0.82799 0.1918 0.51297 0.0
C1569 C 0.78711 0.14628 0.51657 0.0
C1570 C 0.79856 0.1542 0.48951 0.0
C1571 C 0.82813 0.18706 0.46014 0.0
C1572 C 0.84571 0.21205 0.45792 0.0
C1573 C 0.81856 0.1773 0.48743 0.0
C1574 C 0.855 0.22639 0.48328 0.0
C1575 C 0.84664 0.216 0.51069 0.0
H1576 H 0.77092 0.80609 0.45212 0.0
H1577 H 0.82661 0.8819 0.45083 0.0
H1578 H 0.84962 0.86599 0.49656 0.0
H1579 H 0.85273 0.83068 0.53733 0.0
H1580 H 0.79848 0.75358 0.53562 0.0
H1581 H 0.77619 0.76975 0.49031 0.0
C1582 C 0.78799 0.81923 0.46195 0.0
C1583 C 0.79679 0.84534 0.44864 0.0
C1584 C 0.80144 0.80961 0.4875 0.0
C1585 C 0.81943 0.86181 0.46101 0.0
C1586 C 0.83253 0.85271 0.48704 0.0
C1587 C 0.83614 0.81741 0.5269 0.0
C1588 C 0.82714 0.79109 0.53987 0.0
C1589 C 0.82358 0.82667 0.50055 0.0
C1590 C 0.80587 0.77389 0.52604 0.0
C1591 C 0.79298 0.78316 0.50021 0.0
H1592 H 0.19852 0.76392 0.44751 0.0
H1593 H 0.12995 0.8281 0.45173 0.0
H1594 H 0.15196 0.84906 0.49575 0.0
H1595 H 0.19093 0.8489 0.53281 0.0
H1596 H 0.26089 0.78626 0.52598 0.0
H1597 H 0.23821 0.76508 0.48287 0.0
C1598 C 0.18824 0.78233 0.45824 0.0
C1599 C 0.1625 0.79427 0.4468 0.0
C1600 C 0.20142 0.79468 0.4828 0.0
C1601 C 0.14973 0.81852 0.46039 0.0
C1602 C 0.16232 0.8305 0.48544 0.0
C1603 C 0.20122 0.83069 0.52178 0.0
C1604 C 0.22747 0.81912 0.53258 0.0
C1605 C 0.18823 0.81878 0.49678 0.0
C1606 C 0.24075 0.79568 0.518 0.0
C1607 C 0.22773 0.78343 0.49345 0.0
H1608 H 0.69757 0.95472 0.72643 0.0
H1609 H 0.62263 0.95656 0.66967 0.0
H1610 H 0.6417 0.00055 0.64568 0.0
H1611 H 0.67933 0.03913 0.64211 0.0
H1612 H 0.75521 0.03458 0.69783 0.0
H1613 H 0.73622 0.99068 0.72072 0.0
C1614 C 0.6853 0.96486 0.70892 0.0
C1615 C 0.65853 0.95289 0.70012 0.0
C1616 C 0.69668 0.98946 0.69493 0.0
C1617 C 0.64321 0.96567 0.6769 0.0
C1618 C 0.65412 0.99072 0.66322 0.0
C1619 C 0.69178 0.02838 0.6591 0.0
C1620 C 0.71855 0.04027 0.66835 0.0
C1621 C 0.6808 0.00289 0.67217 0.0
C1622 C 0.73457 0.02594 0.69022 0.0
C1623 C 0.72368 0.00089 0.70348 0.0
H1624 H 0.95801 0.69381 0.64177 0.0
H1625 H 0.96805 0.7731 0.6916 0.0
H1626 H 0.01333 0.75484 0.71241 0.0
H1627 H 0.04887 0.71568 0.71818 0.0
H1628 H 0.04116 0.63741 0.66669 0.0
H1629 H 0.99599 0.65587 0.64478 0.0
C1630 C 0.97026 0.70712 0.65702 0.0
C1631 C 0.95963 0.73462 0.6653 0.0
C1632 C 0.99647 0.6966 0.66876 0.0
C1633 C 0.97581 0.75186 0.68482 0.0
C1634 C 0.00162 0.74139 0.69688 0.0
C1635 C 0.03722 0.70267 0.70221 0.0
C1636 C 0.04784 0.67514 0.69429 0.0
C1637 C 0.01189 0.71367 0.68933 0.0
C1638 C 0.03311 0.65866 0.67313 0.0
C1639 C 0.00738 0.66919 0.66065 0.0
H1640 H 0.35037 0.0393 0.67936 0.0
H1641 H 0.30025 0.02141 0.75718 0.0
H1642 H 0.2839 0.97535 0.73666 0.0
H1643 H 0.28143 0.94158 0.6959 0.0
H1644 H 0.33302 0.95668 0.61879 0.0
H1645 H 0.35139 0.00255 0.63974 0.0
C1646 C 0.33607 0.02516 0.69185 0.0
C1647 C 0.32631 0.03387 0.7196 0.0
C1648 C 0.32689 -0.00156 0.68001 0.0
C1649 C 0.30809 0.01524 0.73577 0.0
C1650 C 0.29859 0.98894 0.72403 0.0
C1651 C 0.29672 0.95495 0.6837 0.0
C1652 C 0.30554 0.94634 0.65574 0.0
C1653 C 0.30744 0.98062 0.69604 0.0
C1654 C 0.32588 0.96323 0.64033 0.0
C1655 C 0.33628 0.98935 0.65228 0.0
H1656 H 0.04724 0.26947 0.70361 0.0
H1657 H 0.03409 0.32018 0.62553 0.0
H1658 H 0.99101 0.34317 0.64745 0.0
H1659 H 0.95638 0.34741 0.68845 0.0
H1660 H 0.97199 0.29833 0.76735 0.0
H1661 H 0.01523 0.2765 0.74561 0.0
C1662 C 0.03481 0.28545 0.69135 0.0
C1663 C 0.04329 0.2928 0.66287 0.0
C1664 C 0.01077 0.29903 0.70433 0.0
C1665 C 0.02765 0.31408 0.64744 0.0
C1666 C 0.00313 0.32721 0.65997 0.0
C1667 C 0.96942 0.33214 0.70095 0.0
C1668 C 0.96085 0.32435 0.72937 0.0
C1669 C 0.99441 0.31971 0.68837 0.0
C1670 C 0.9781 0.30476 0.74545 0.0
C1671 C 0.00274 0.29209 0.73298 0.0
H1672 H 0.67704 0.95877 0.3506 0.0
H1673 H 0.73884 0.95754 0.27953 0.0
H1674 H 0.71698 0.00136 0.25907 0.0
H1675 H 0.68189 0.04087 0.26222 0.0
H1676 H 0.6224 0.0454 0.33497 0.0
H1677 H 0.64156 -0.00082 0.35387 0.0
C1678 C 0.68557 0.96813 0.3306 0.0
C1679 C 0.70951 0.95512 0.31663 0.0
C1680 C 0.6733 0.99375 0.31925 0.0
C1681 C 0.72059 0.96741 0.29083 0.0
C1682 C 0.70804 0.99236 0.27903 0.0
C1683 C 0.6728 0.03155 0.282 0.0
C1684 C 0.65065 0.04625 0.2971 0.0
C1685 C 0.68457 0.00578 0.29316 0.0
C1686 C 0.63946 0.0343 0.32299 0.0
C1687 C 0.65044 0.00799 0.3338 0.0
H1688 H 0.94227 0.69671 0.2761 0.0
H1689 H 0.95169 0.62291 0.33357 0.0
H1690 H 0.99638 0.6444 0.35405 0.0
H1691 H 0.03341 0.68379 0.35411 0.0
H1692 H 0.02106 0.75861 0.29818 0.0
H1693 H 0.97653 0.7372 0.27878 0.0
C1694 C 0.9542 0.68525 0.29303 0.0
C1695 C 0.94424 0.65808 0.303 0.0
C1696 C 0.97915 0.69802 0.30504 0.0
C1697 C 0.95927 0.64378 0.32547 0.0
C1698 C 0.98472 0.65606 0.33713 0.0
C1699 C 0.02082 0.69544 0.33783 0.0
C1700 C 0.03062 0.72264 0.32746 0.0
C1701 C 0.99496 0.68311 0.32691 0.0
C1702 C 0.01397 0.73769 0.3066 0.0
C1703 C 0.98858 0.72541 0.29535 0.0
H1704 H 0.35562 0.95976 0.31245 0.0
H1705 H 0.29346 0.96276 0.24179 0.0
H1706 H 0.27526 0.00953 0.2593 0.0
H1707 H 0.27631 0.04898 0.29501 0.0
H1708 H 0.34015 0.04816 0.36407 0.0
H1709 H 0.35843 0.00093 0.34693 0.0
C1710 C 0.33816 0.97075 0.30089 0.0
C1711 C 0.32579 0.95783 0.27599 0.0
C1712 C 0.32804 -0.00217 0.31085 0.0
C1713 C 0.30341 0.97236 0.26095 0.0
C1714 C 0.29289 -0.00099 0.27102 0.0
C1715 C 0.29413 0.03837 0.3064 0.0
C1716 C 0.30668 0.05168 0.33094 0.0
C1717 C 0.30489 0.0118 0.29603 0.0
C1718 C 0.33014 0.03813 0.34516 0.0
C1719 C 0.34056 0.01121 0.33538 0.0
H1720 H 0.03968 0.28718 0.25434 0.0
H1721 H 0.04729 0.35796 0.31578 0.0
H1722 H 0.00265 0.34175 0.34036 0.0
H1723 H 0.96133 0.30769 0.34377 0.0
H1724 H 0.95569 0.23532 0.28383 0.0
H1725 H 9e-05 0.25173 0.25939 0.0
C1726 C 0.03142 0.29914 0.273 0.0
C1727 C 0.04633 0.3239 0.28309 0.0
C1728 C 0.00636 0.28928 0.28736 0.0
C1729 C 0.03594 0.3389 0.30764 0.0
C1730 C 0.01052 0.32963 0.32166 0.0
C1731 C 0.96992 0.29548 0.32543 0.0
C1732 C 0.95526 0.27047 0.31547 0.0
C1733 C 0.99555 0.30486 0.31167 0.0
C1734 C 0.96671 0.2546 0.29193 0.0
C1735 C 0.99196 0.26404 0.27785 0.0
H1736 H 0.68126 0.64616 0.95411 0.0
H1737 H 0.75839 0.70011 0.96016 0.0
H1738 H 0.74152 0.7197 0.0064 0.0
H1739 H 0.70429 0.72334 0.0439 0.0
H1740 H 0.62787 0.66856 0.04037 0.0
H1741 H 0.64508 0.64732 0.99427 0.0
C1742 C 0.69441 0.66206 0.96568 0.0
C1743 C 0.72091 0.67183 0.95357 0.0
C1744 C 0.68467 0.6732 0.99252 0.0
C1745 C 0.73792 0.69219 0.96894 0.0
C1746 C 0.72826 0.70354 0.99536 0.0
C1747 C 0.69133 0.70679 0.033 0.0
C1748 C 0.66466 0.69781 0.04508 0.0
C1749 C 0.70154 0.69451 0.00708 0.0
C1750 C 0.64842 0.67586 0.03124 0.0
C1751 C 0.65824 0.6638 0.00495 0.0
H1752 H 0.31103 0.64699 0.04073 0.0
H1753 H 0.23361 0.70048 0.0388 0.0
H1754 H 0.25158 0.7256 0.99548 0.0
H1755 H 0.28955 0.7329 0.95859 0.0
H1756 H 0.36507 0.677 0.95769 0.0
H1757 H 0.34785 0.65244 0.002 0.0
C1758 C 0.29806 0.66402 0.03067 0.0
C1759 C 0.27112 0.67193 0.04291 0.0
C1760 C 0.30835 0.67814 0.00556 0.0
C1761 C 0.25435 0.69386 0.02962 0.0
C1762 C 0.26469 0.70839 0.005 0.0
C1763 C 0.30232 0.71553 0.96835 0.0
C1764 C 0.32869 0.70698 0.95547 0.0
C1765 C 0.29175 0.70089 0.99297 0.0
C1766 C 0.34479 0.68399 0.96762 0.0
C1767 C 0.33492 0.66994 0.99278 0.0
H1768 H 0.31247 0.35596 0.95165 0.0
H1769 H 0.23823 0.29832 0.95965 0.0
H1770 H 0.2602 0.27511 0.00188 0.0
H1771 H 0.30045 0.27038 0.03591 0.0
H1772 H 0.37369 0.32929 0.03107 0.0
H1773 H 0.35223 0.35278 0.98798 0.0
C1774 C 0.30109 0.33844 0.96278 0.0
C1775 C 0.27383 0.32885 0.95248 0.0
C1776 C 0.31373 0.32527 0.98736 0.0
C1777 C 0.25917 0.30626 0.9672 0.0
C1778 C 0.27177 0.29282 0.99126 0.0
C1779 C 0.31188 0.2882 0.02527 0.0
C1780 C 0.33877 0.29786 0.03617 0.0
C1781 C 0.29909 0.30196 0.00132 0.0
C1782 C 0.35301 0.32143 0.02275 0.0
C1783 C 0.34074 0.33484 -0.00175 0.0
H1784 H 0.73775 0.29066 0.03285 0.0
H1785 H 0.67384 0.35907 0.04127 0.0
H1786 H 0.64907 0.34176 0.99712 0.0
H1787 H 0.64525 0.30618 0.95668 0.0
H1788 H 0.70769 0.23591 0.95162 0.0
H1789 H 0.73327 0.25485 0.99401 0.0
C1790 C 0.71857 0.30198 0.02485 0.0
C1791 C 0.70776 0.32624 0.03996 0.0
C1792 C 0.70403 0.29138 0.00023 0.0
C1793 C 0.68256 0.34036 0.02979 0.0
C1794 C 0.6684 0.33045 0.00465 0.0
C1795 C 0.66443 0.29508 0.96497 0.0
C1796 C 0.6745 0.26968 0.95114 0.0
C1797 C 0.67884 0.30581 0.9898 0.0
C1798 C 0.69928 0.25534 0.96209 0.0
C1799 C 0.71406 0.26623 0.98622 0.0
H1800 H 0.18876 0.31043 0.31548 0.0
H1801 H 0.13282 0.25435 0.26432 0.0
H1802 H 0.15331 0.21162 0.28831 0.0
H1803 H 0.19025 0.19005 0.31998 0.0
H1804 H 0.2478 0.24593 0.36951 0.0
H1805 H 0.22311 0.28885 0.35016 0.0
C1806 C 0.18073 0.28891 0.30978 0.0
C1807 C 0.15951 0.28568 0.28782 0.0
C1808 C 0.19297 0.26434 0.32325 0.0
C1809 C 0.14931 0.25756 0.28094 0.0
C1810 C 0.16104 0.23306 0.29462 0.0
C1811 C 0.19723 0.21156 0.3269 0.0
C1812 C 0.22114 0.21467 0.34592 0.0
C1813 C 0.18339 0.23617 0.31523 0.0
C1814 C 0.22963 0.24281 0.35474 0.0
C1815 C 0.21557 0.26741 0.34362 0.0
H1816 H 0.80252 0.17067 0.33028 0.0
H1817 H 0.763 0.23936 0.38117 0.0
H1818 H 0.71465 0.22024 0.36987 0.0
H1819 H 0.68371 0.18793 0.34051 0.0
H1820 H 0.72369 0.12081 0.2879 0.0
H1821 H 0.7717 0.1352 0.30543 0.0
C1822 C 0.78341 0.1813 0.33927 0.0
C1823 C 0.78645 0.20673 0.35612 0.0
C1824 C 0.75567 0.17057 0.33227 0.0
C1825 C 0.76136 0.21991 0.36788 0.0
C1826 C 0.73365 0.20904 0.36138 0.0
C1827 C 0.70284 0.17609 0.33327 0.0
C1828 C 0.70009 0.15372 0.31248 0.0
C1829 C 0.73054 0.18495 0.34283 0.0
C1830 C 0.72516 0.13843 0.30357 0.0
C1831 C 0.75268 0.14667 0.31351 0.0
H1832 H 0.85953 0.72654 0.28622 0.0
H1833 H 0.80591 0.67277 0.34219 0.0
H1834 H 0.78662 0.71613 0.36587 0.0
H1835 H 0.78053 0.76908 0.36665 0.0
H1836 H 0.8333 0.82286 0.30989 0.0
H1837 H 0.85755 0.77964 0.29099 0.0
C1838 C 0.84393 0.72423 0.30387 0.0
C1839 C 0.83382 0.69641 0.31196 0.0
C1840 C 0.83256 0.74926 0.31719 0.0
C1841 C 0.81389 0.69389 0.3352 0.0
C1842 C 0.80275 0.7187 0.34877 0.0
C1843 C 0.79764 0.77146 0.35047 0.0
C1844 C 0.80462 0.79919 0.33937 0.0
C1845 C 0.81124 0.74649 0.3393 0.0
C1846 C 0.82716 0.80179 0.31865 0.0
C1847 C 0.84104 0.77705 0.30772 0.0
H1848 H 0.26349 0.86773 0.27908 0.0
H1849 H 0.32107 0.81107 0.32751 0.0
H1850 H 0.27919 0.78949 0.3524 0.0
H1851 H 0.22614 0.78318 0.35649 0.0
H1852 H 0.16885 0.83948 0.30719 0.0
H1853 H 0.21088 0.86479 0.28678 0.0
C1854 C 0.26702 0.85091 0.29534 0.0
C1855 C 0.29543 0.84075 0.30103 0.0
C1856 C 0.24287 0.83832 0.30927 0.0
C1857 C 0.29948 0.81922 0.3225 0.0
C1858 C 0.27551 0.80675 0.33668 0.0
C1859 C 0.22277 0.8012 0.34155 0.0
C1860 C 0.19428 0.80906 0.33311 0.0
C1861 C 0.24707 0.81556 0.32961 0.0
C1862 C 0.19045 0.83273 0.31396 0.0
C1863 C 0.2145 0.84723 0.30218 0.0
H1864 H 0.14062 0.72956 0.69809 0.0
H1865 H 0.19862 0.66491 0.66176 0.0
H1866 H 0.22544 0.70308 0.636 0.0
H1867 H 0.23542 0.75518 0.62804 0.0
H1868 H 0.17729 0.81942 0.66517 0.0
H1869 H 0.14751 0.78088 0.68614 0.0
C1870 C 0.15894 0.7237 0.68429 0.0
C1871 C 0.16788 0.69446 0.6823 0.0
C1872 C 0.17442 0.74571 0.66982 0.0
C1873 C 0.19136 0.68727 0.6639 0.0
C1874 C 0.2068 0.7091 0.64923 0.0
C1875 C 0.21603 0.76079 0.64039 0.0
C1876 C 0.20895 0.79024 0.64533 0.0
C1877 C 0.19901 0.73848 0.6527 0.0
C1878 C 0.18354 0.797 0.66118 0.0
C1879 C 0.16644 0.77496 0.67327 0.0
H1880 H 0.29877 0.17039 0.67458 0.0
H1881 H 0.24616 0.1219 0.736 0.0
H1882 H 0.20188 0.14008 0.71266 0.0
H1883 H 0.17837 0.17391 0.67841 0.0
H1884 H 0.2316 0.22398 0.61877 0.0
H1885 H 0.27534 0.20068 0.63779 0.0
C1886 C 0.27767 0.16341 0.68273 0.0
C1887 C 0.2759 0.14506 0.7073 0.0
C1888 C 0.25235 0.17441 0.66967 0.0
C1889 C 0.24826 0.1361 0.71723 0.0
C1890 C 0.22289 0.14659 0.70397 0.0
C1891 C 0.19947 0.17947 0.66926 0.0
C1892 C 0.20165 0.20104 0.64748 0.0
C1893 C 0.2247 0.16642 0.68071 0.0
C1894 C 0.22923 0.20774 0.63578 0.0
C1895 C 0.25431 0.19444 0.64666 0.0
H1896 H 0.82514 0.18674 0.68082 0.0
H1897 H 0.76531 0.23843 0.62963 0.0
H1898 H 0.78639 0.28302 0.64977 0.0
H1899 H 0.81837 0.30691 0.6855 0.0
H1900 H 0.87697 0.25456 0.73756 0.0
H1901 H 0.85984 0.21067 0.71315 0.0
C1902 C 0.81684 0.20772 0.67374 0.0
C1903 C 0.79339 0.20914 0.65399 0.0
C1904 C 0.82871 0.23319 0.68569 0.0
C1905 C 0.78324 0.23661 0.64489 0.0
C1906 C 0.79522 0.26215 0.65649 0.0
C1907 C 0.82771 0.28598 0.69128 0.0
C1908 C 0.84868 0.28411 0.71366 0.0
C1909 C 0.81745 0.26065 0.67747 0.0
C1910 C 0.86063 0.25673 0.72064 0.0
C1911 C 0.85082 0.23155 0.70672 0.0
H1912 H 0.76203 0.78411 0.63447 0.0
H1913 H 0.81834 0.84707 0.67642 0.0
H1914 H 0.77611 0.871 0.69777 0.0
H1915 H 0.72404 0.87072 0.70908 0.0
H1916 H 0.66762 0.80753 0.66773 0.0
H1917 H 0.70913 0.78737 0.64138 0.0
C1918 C 0.7651 0.80332 0.64791 0.0
C1919 C 0.79342 0.81338 0.6542 0.0
C1920 C 0.74074 0.81686 0.66048 0.0
C1921 C 0.79687 0.83856 0.67141 0.0
C1922 C 0.77271 0.85228 0.68374 0.0
C1923 C 0.7207 0.85275 0.69405 0.0
C1924 C 0.69283 0.84032 0.69088 0.0
C1925 C 0.74466 0.84106 0.67916 0.0
C1926 C 0.68887 0.81738 0.67089 0.0
C1927 C 0.71262 0.80575 0.65583 0.0
H1928 H 0.29527 0.14425 0.26398 0.0
H1929 H 0.35194 0.19431 0.32029 0.0
H1930 H 0.37417 0.21739 0.27789 0.0
H1931 H 0.374 0.22709 0.22537 0.0
H1932 H 0.3171 0.17732 0.1691 0.0
H1933 H 0.29866 0.15034 0.21108 0.0
C1934 C 0.31276 0.1599 0.26705 0.0
C1935 C 0.32153 0.16783 0.29538 0.0
C1936 C 0.32523 0.17341 0.2426 0.0
C1937 C 0.34451 0.18791 0.29881 0.0
C1938 C 0.35719 0.20126 0.27455 0.0
C1939 C 0.35772 0.21018 0.22221 0.0
C1940 C 0.34658 0.20464 0.19417 0.0
C1941 C 0.34712 0.1948 0.24643 0.0
C1942 C 0.32589 0.18227 0.19045 0.0
C1943 C 0.31528 0.16683 0.21446 0.0
H1944 H 0.86464 0.27698 0.26354 0.0
H1945 H 0.8138 0.32937 0.323 0.0
H1946 H 0.79177 0.355 0.28183 0.0
H1947 H 0.78299 0.35854 0.22916 0.0
H1948 H 0.83355 0.30545 0.16996 0.0
H1949 H 0.85983 0.28436 0.21099 0.0
C1950 C 0.84897 0.29424 0.26758 0.0
C1951 C 0.84049 0.30085 0.29634 0.0
C1952 C 0.83619 0.30864 0.24387 0.0
C1953 C 0.82058 0.32365 0.30112 0.0
C1954 C 0.80787 0.33825 0.27757 0.0
C1955 C 0.80002 0.34264 0.22513 0.0
C1956 C 0.80586 0.33327 0.19646 0.0
C1957 C 0.81489 0.33031 0.24886 0.0
C1958 C 0.82832 0.31293 0.19174 0.0
C1959 C 0.84335 0.30075 0.21522 0.0
H1960 H 0.63463 0.77807 0.23353 0.0
H1961 H 0.68131 0.82907 0.16937 0.0
H1962 H 0.705 0.85666 0.20789 0.0
H1963 H 0.71657 0.86283 0.25941 0.0
H1964 H 0.67087 0.81148 0.32393 0.0
H1965 H 0.64259 0.78786 0.2856 0.0
C1966 C 0.64957 0.79556 0.22794 0.0
C1967 C 0.65642 0.80113 0.19856 0.0
C1968 C 0.6636 0.81116 0.25025 0.0
C1969 C 0.6758 0.824 0.19178 0.0
C1970 C 0.68947 0.83982 0.2138 0.0
C1971 C 0.70022 0.8467 0.26519 0.0
C1972 C 0.69626 0.83864 0.29449 0.0
C1973 C 0.68421 0.83298 0.24308 0.0
C1974 C 0.67463 0.81798 0.30153 0.0
C1975 C 0.65844 0.80438 0.27961 0.0
H1976 H 0.16498 0.67525 0.18787 0.0
H1977 H 0.22778 0.62721 0.23911 0.0
H1978 H 0.20587 0.64582 0.28382 0.0
H1979 H 0.17287 0.68001 0.30794 0.0
H1980 H 0.11236 0.73061 0.2564 0.0
H1981 H 0.12933 0.70637 0.21224 0.0
C1982 C 0.17369 0.66846 0.20878 0.0
C1983 C 0.19829 0.65018 0.21003 0.0
C1984 C 0.16156 0.67989 0.23438 0.0
C1985 C 0.20905 0.64149 0.23742 0.0
C1986 C 0.19658 0.65217 0.26304 0.0
C1987 C 0.16305 0.68551 0.28714 0.0
C1988 C 0.14166 0.70743 0.2855 0.0
C1989 C 0.17344 0.67209 0.26172 0.0
C1990 C 0.12909 0.71405 0.25831 0.0
C1991 C 0.1388 0.70023 0.23301 0.0
H1992 H 0.36595 0.77865 0.76661 0.0
H1993 H 0.30654 0.8275 0.8209 0.0
H1994 H 0.28843 0.85346 0.77806 0.0
H1995 H 0.28558 0.85801 0.72474 0.0
H1996 H 0.34489 0.8084 0.67083 0.0
H1997 H 0.36706 0.78732 0.71414 0.0
C1998 C 0.34924 0.7952 0.76918 0.0
C1999 C 0.3372 0.80067 0.79684 0.0
C2000 C 0.33876 0.80981 0.74451 0.0
C2001 C 0.31602 0.82262 0.79983 0.0
C2002 C 0.30556 0.83743 0.77532 0.0
C2003 C 0.30364 0.84292 0.72242 0.0
C2004 C 0.31313 0.83445 0.69446 0.0
C2005 C 0.31616 0.83054 0.74745 0.0
C2006 C 0.33683 0.81513 0.69199 0.0
C2007 C 0.34954 0.80296 0.71677 0.0
H2008 H 0.2129 0.36268 0.75984 0.0
H2009 H 0.15533 0.31511 0.81751 0.0
H2010 H 0.13029 0.29409 0.77579 0.0
H2011 H 0.12801 0.28514 0.72344 0.0
H2012 H 0.18536 0.33231 0.66537 0.0
H2013 H 0.20682 0.35784 0.70683 0.0
C2014 C 0.19467 0.34799 0.76332 0.0
C2015 C 0.18645 0.34012 0.79183 0.0
C2016 C 0.18037 0.33575 0.73919 0.0
C2017 C 0.16244 0.32137 0.79586 0.0
C2018 C 0.14806 0.30925 0.772 0.0
C2019 C 0.14498 0.30124 0.71975 0.0
C2020 C 0.15547 0.30631 0.6914 0.0
C2021 C 0.15738 0.31565 0.74363 0.0
C2022 C 0.17707 0.32769 0.687 0.0
C2023 C 0.18944 0.34226 0.71072 0.0
H2024 H 0.70469 0.1238 0.72441 0.0
H2025 H 0.66829 0.1887 0.66673 0.0
H2026 H 0.63975 0.20876 0.70694 0.0
H2027 H 0.63076 0.21206 0.75971 0.0
H2028 H 0.66842 0.14744 0.81708 0.0
H2029 H 0.69045 0.12296 0.77561 0.0
C2030 C 0.6902 0.14208 0.72048 0.0
C2031 C 0.68918 0.15514 0.69277 0.0
C2032 C 0.6742 0.15374 0.7437 0.0
C2033 C 0.66979 0.17841 0.68793 0.0
C2034 C 0.65352 0.18998 0.71095 0.0
C2035 C 0.64327 0.19228 0.76312 0.0
C2036 C 0.64837 0.18202 0.79159 0.0
C2037 C 0.6564 0.17848 0.73915 0.0
C2038 C 0.66444 0.15617 0.7955 0.0
C2039 C 0.67715 0.14212 0.77177 0.0
H2040 H 0.82265 0.68437 0.68599 0.0
H2041 H 0.87291 0.74594 0.73673 0.0
H2042 H 0.85655 0.72249 0.78158 0.0
H2043 H 0.82437 0.68803 0.80628 0.0
H2044 H 0.77222 0.62791 0.75575 0.0
H2045 H 0.79339 0.64721 0.71085 0.0
C2046 C 0.83037 0.69252 0.7068 0.0
C2047 C 0.84873 0.71717 0.7079 0.0
C2048 C 0.82045 0.67932 0.73255 0.0
C2049 C 0.85861 0.72718 0.73515 0.0
C2050 C 0.84922 0.71382 0.76085 0.0
C2051 C 0.81781 0.6788 0.78552 0.0
C2052 C 0.79641 0.65674 0.78447 0.0
C2053 C 0.82955 0.69039 0.7598 0.0
C2054 C 0.7885 0.64498 0.75728 0.0
C2055 C 0.80052 0.65608 0.73156 0.0
H2056 H 0.23152 0.36438 0.2024 0.0
H2057 H 0.17505 0.30473 0.15615 0.0
H2058 H 0.21681 0.28577 0.12925 0.0
H2059 H 0.26977 0.28187 0.12356 0.0
H2060 H 0.3262 0.34081 0.17082 0.0
H2061 H 0.28383 0.36452 0.19225 0.0
C2062 C 0.22822 0.34748 0.18618 0.0
C2063 C 0.20026 0.33558 0.18179 0.0
C2064 C 0.25233 0.33639 0.17107 0.0
C2065 C 0.19636 0.31409 0.16026 0.0
C2066 C 0.22025 0.30315 0.14489 0.0
C2067 C 0.27286 0.30019 0.13819 0.0
C2068 C 0.3012 0.30909 0.146 0.0
C2069 C 0.24843 0.31347 0.15086 0.0
C2070 C 0.3047 0.3332 0.16465 0.0
C2071 C 0.28046 0.34676 0.17703 0.0
H2072 H 0.30233 0.66782 0.82153 0.0
H2073 H 0.25366 0.73255 0.86968 0.0
H2074 H 0.20809 0.71241 0.85119 0.0
H2075 H 0.18256 0.68035 0.81706 0.0
H2076 H 0.2314 0.61674 0.76762 0.0
H2077 H 0.27629 0.63239 0.79135 0.0
C2078 C 0.28177 0.67732 0.82837 0.0
C2079 C 0.28155 0.70198 0.84662 0.0
C2080 C 0.25561 0.66598 0.81728 0.0
C2081 C 0.25461 0.71373 0.85544 0.0
C2082 C 0.22847 0.70228 0.84482 0.0
C2083 C 0.20291 0.66955 0.81174 0.0
C2084 C 0.20356 0.6477 0.7902 0.0
C2085 C 0.22879 0.679 0.82504 0.0
C2086 C 0.23019 0.63381 0.78389 0.0
C2087 C 0.25595 0.6428 0.79739 0.0
H2088 H 0.26454 0.26312 0.86397 0.0
H2089 H 0.32077 0.3224 0.81682 0.0
H2090 H 0.34719 0.28142 0.79608 0.0
H2091 H 0.35089 0.22902 0.78704 0.0
H2092 H 0.29496 0.16957 0.83429 0.0
H2093 H 0.27228 0.21042 0.85948 0.0
C2094 C 0.28282 0.26713 0.84949 0.0
C2095 C 0.2902 0.29583 0.84157 0.0
C2096 C 0.29794 0.24344 0.83744 0.0
C2097 C 0.31429 0.30056 0.82309 0.0
C2098 C 0.32945 0.27712 0.81111 0.0
C2099 C 0.334 0.22491 0.80312 0.0
C2100 C 0.32428 0.19629 0.80827 0.0
C2101 C 0.32089 0.24849 0.81745 0.0
C2102 C 0.3027 0.19139 0.82957 0.0
C2103 C 0.28962 0.21476 0.84399 0.0
H2104 H 0.72945 0.26723 0.86562 0.0
H2105 H 0.67142 0.31246 0.80682 0.0
H2106 H 0.71207 0.34145 0.78849 0.0
H2107 H 0.76464 0.3508 0.78595 0.0
H2108 H 0.82264 0.30537 0.84472 0.0
H2109 H 0.78131 0.28012 0.86649 0.0
C2110 C 0.72562 0.28357 0.84894 0.0
C2111 C 0.69748 0.28726 0.83731 0.0
C2112 C 0.74908 0.30021 0.83844 0.0
C2113 C 0.69287 0.30891 0.81604 0.0
C2114 C 0.71613 0.32554 0.80549 0.0
C2115 C 0.76827 0.33577 0.80385 0.0
C2116 C 0.79685 0.32978 0.81332 0.0
C2117 C 0.74442 0.32093 0.81609 0.0
C2118 C 0.80097 0.31031 0.83672 0.0
C2119 C 0.77733 0.2957 0.84916 0.0
H2120 H 0.71508 0.73516 0.85928 0.0
H2121 H 0.66748 0.67253 0.80735 0.0
H2122 H 0.63928 0.71183 0.78537 0.0
H2123 H 0.63178 0.7641 0.77709 0.0
H2124 H 0.68019 0.82664 0.8284 0.0
H2125 H 0.70409 0.78711 0.85453 0.0
C2126 C 0.69828 0.72998 0.84345 0.0
C2127 C 0.69379 0.70088 0.83474 0.0
C2128 C 0.68236 0.75269 0.83057 0.0
C2129 C 0.67166 0.6947 0.81437 0.0
C2130 C 0.65553 0.71719 0.80168 0.0
C2131 C 0.64724 0.76916 0.79426 0.0
C2132 C 0.6544 0.79839 0.8004 0.0
C2133 C 0.66126 0.74631 0.80903 0.0
C2134 C 0.67435 0.80441 0.82295 0.0
C2135 C 0.68814 0.78179 0.83791 0.0
H2136 H 0.72783 0.70518 0.13922 0.0
H2137 H 0.66291 0.66742 0.19625 0.0
H2138 H 0.70087 0.64101 0.22241 0.0
H2139 H 0.75282 0.63252 0.23223 0.0
H2140 H 0.81754 0.67102 0.1754 0.0
H2141 H 0.77922 0.69297 0.14608 0.0
C2142 C 0.72185 0.69089 0.15711 0.0
C2143 C 0.69253 0.6887 0.16593 0.0
C2144 C 0.74379 0.676 0.17235 0.0
C2145 C 0.68529 0.66978 0.18903 0.0
C2146 C 0.70701 0.65469 0.20413 0.0
C2147 C 0.75859 0.64539 0.21323 0.0
C2148 C 0.78811 0.65035 0.20638 0.0
C2149 C 0.73641 0.65826 0.19647 0.0
C2150 C 0.79506 0.66695 0.18146 0.0
C2151 C 0.77314 0.6796 0.16462 0.0
H2152 H 0.31492 0.80893 0.17325 0.0
H2153 H 0.37537 0.762 0.22822 0.0
H2154 H 0.35828 0.71588 0.20794 0.0
H2155 H 0.32257 0.68885 0.17876 0.0
H2156 H 0.26048 0.73608 0.12588 0.0
H2157 H 0.28213 0.78213 0.14115 0.0
C2158 C 0.3247 0.7887 0.18059 0.0
C2159 C 0.34614 0.789 0.20255 0.0
C2160 C 0.31432 0.76225 0.16941 0.0
C2161 C 0.35868 0.76248 0.21152 0.0
C2162 C 0.34886 0.73605 0.2 0.0
C2163 C 0.31398 0.70917 0.17024 0.0
C2164 C 0.28964 0.70895 0.15153 0.0
C2165 C 0.3261 0.73566 0.17958 0.0
C2166 C 0.27897 0.73555 0.14059 0.0
C2167 C 0.29132 0.76194 0.1493 0.0
H2168 H 0.67422 0.30906 0.18322 0.0
H2169 H 0.72569 0.25387 0.12684 0.0
H2170 H 0.70331 0.21066 0.14843 0.0
H2171 H 0.67291 0.18856 0.18656 0.0
H2172 H 0.62342 0.24413 0.24434 0.0
H2173 H 0.6413 0.28711 0.21877 0.0
C2174 C 0.68034 0.28764 0.17531 0.0
C2175 C 0.70189 0.28481 0.15364 0.0
C2176 C 0.66796 0.26287 0.18827 0.0
C2177 C 0.70931 0.25678 0.14362 0.0
C2178 C 0.6966 0.232 0.15603 0.0
C2179 C 0.66574 0.21003 0.19337 0.0
C2180 C 0.64711 0.21304 0.21758 0.0
C2181 C 0.67649 0.23479 0.1789 0.0
C2182 C 0.63798 0.24109 0.22598 0.0
C2183 C 0.64818 0.26575 0.21137 0.0
loop_
_geom_bond_atom_site_label_1
_geom_bond_atom_site_label_2
_geom_bond_distance
_geom_bond_site_symmetry_2
_ccdc_geom_bond_type
Co0 O2 2.143 . S
Co0 O8 2.074 . S
Co0 O11 2.093 . S
Co0 O24 2.097 . S
Co0 N41 2.151 . S
Co0 N49 2.214 . S
Co1 O2 2.160 . S
Co1 O7 2.058 . S
Co1 O17 2.057 . S
Co1 O32 2.037 . S
Co1 N36 2.145 . S
Co1 N57 2.257 . S
O2 Co0 2.143 . S
O2 Co1 2.160 . S
C3 O4 1.278 . S
C3 O11 1.224 . S
O4 C3 1.278 . S
C5 O6 1.245 . S
C5 O17 1.232 . S
O6 C5 1.245 . S
O7 Co1 2.058 . S
O7 C33 1.269 . S
O8 Co0 2.074 . S
O8 C33 1.257 . S
H9 C34 0.930 . S
H10 C40 0.930 . S
O11 Co0 2.093 . S
O11 C3 1.224 . S
H12 C44 0.929 . S
H13 C46 0.930 . S
H14 C47 0.930 . S
H15 C45 0.929 . S
H16 C48 0.928 . S
O17 Co1 2.057 . S
O17 C5 1.232 . S
H18 C37 0.929 . S
H19 C38 0.929 . S
H20 C50 0.931 . S
H21 C42 0.929 . S
H22 C51 0.930 . S
H23 C43 0.931 . S
O24 Co0 2.097 . S
O24 C52 1.214 . S
H25 C53 0.929 . S
H26 C54 0.929 . S
H27 C55 0.930 . S
H28 C56 0.929 . S
H29 C58 0.930 . S
H30 C35 0.930 . S
H31 C39 0.930 . S
O32 Co1 2.037 . S
O32 C52 1.234 . S
C33 O7 1.269 . S
C33 O8 1.257 . S
C34 H9 0.930 . S
C34 C37 1.388 . S
C34 C39 1.418 . S
C35 H30 0.930 . S
C35 C38 1.404 . S
C35 C39 1.353 . S
N36 Co1 2.145 . S
N36 C37 1.397 . S
N36 C38 1.334 . S
C37 H18 0.929 . S
C37 C34 1.388 . S
C37 N36 1.397 . S
C38 H19 0.929 . S
C38 C35 1.404 . S
C38 N36 1.334 . S
C39 H31 0.930 . S
C39 C34 1.418 . S
C39 C35 1.353 . S
C40 H10 0.930 . S
C40 N41 1.330 . S
C40 C42 1.446 . S
N41 Co0 2.151 . S
N41 C40 1.330 . S
N41 C45 1.418 . S
C42 H21 0.929 . S
C42 C40 1.446 . S
C42 C43 1.332 . S
C43 H23 0.931 . S
C43 C42 1.332 . S
C43 C44 1.267 . S
C44 H12 0.929 . S
C44 C43 1.267 . S
C44 C45 1.251 . S
C45 H15 0.929 . S
C45 N41 1.418 . S
C45 C44 1.251 . S
C46 H13 0.930 . S
C46 C48 1.406 . S
C46 C51 1.261 . S
C47 H14 0.930 . S
C47 N49 1.325 . S
C47 C50 1.357 . S
C48 H16 0.928 . S
C48 C46 1.406 . S
C48 N49 1.261 . S
N49 Co0 2.214 . S
N49 C47 1.325 . S
N49 C48 1.261 . S
C50 H20 0.931 . S
C50 C47 1.357 . S
C50 C51 1.312 . S
C51 H22 0.930 . S
C51 C46 1.261 . S
C51 C50 1.312 . S
C52 O24 1.214 . S
C52 O32 1.234 . S
C53 H25 0.929 . S
C53 C56 1.391 . S
C53 C58 1.391 . S
C54 H26 0.929 . S
C54 C55 1.390 . S
C54 N57 1.391 . S
C55 H27 0.930 . S
C55 C54 1.390 . S
C55 C56 1.392 . S
C56 H28 0.929 . S
C56 C53 1.391 . S
C56 C55 1.392 . S
N57 Co1 2.257 . S
N57 C54 1.391 . S
N57 C58 1.388 . S
C58 H29 0.930 . S
C58 C53 1.391 . S
C58 N57 1.388 . S
Co59 O61 2.143 . S
Co59 O67 2.074 . S
Co59 O70 2.093 . S
Co59 O83 2.097 . S
Co59 N100 2.151 . S
Co59 N108 2.214 . S
Co60 O61 2.160 . S
Co60 O66 2.058 . S
Co60 O76 2.057 . S
Co60 O91 2.037 . S
Co60 N95 2.145 . S
Co60 N116 2.257 . S
O61 Co59 2.143 . S
O61 Co60 2.160 . S
C62 O63 1.278 . S
C62 O70 1.224 . S
O63 C62 1.278 . S
C64 O65 1.245 . S
C64 O76 1.232 . S
O65 C64 1.245 . S
O66 Co60 2.058 . S
O66 C92 1.269 . S
O67 Co59 2.074 . S
O67 C92 1.257 . S
H68 C93 0.930 . S
H69 C99 0.930 . S
O70 Co59 2.093 . S
O70 C62 1.224 . S
H71 C103 0.929 . S
H72 C105 0.930 . S
H73 C106 0.930 . S
H74 C104 0.929 . S
H75 C107 0.928 . S
O76 Co60 2.057 . S
O76 C64 1.232 . S
H77 C96 0.929 . S
H78 C97 0.929 . S
H79 C109 0.931 . S
H80 C101 0.929 . S
H81 C110 0.930 . S
H82 C102 0.931 . S
O83 Co59 2.097 . S
O83 C111 1.214 . S
H84 C112 0.929 . S
H85 C113 0.929 . S
H86 C114 0.930 . S
H87 C115 0.929 . S
H88 C117 0.930 . S
H89 C94 0.930 . S
H90 C98 0.930 . S
O91 Co60 2.037 . S
O91 C111 1.234 . S
C92 O66 1.269 . S
C92 O67 1.257 . S
C93 H68 0.930 . S
C93 C96 1.388 . S
C93 C98 1.418 . S
C94 H89 0.930 . S
C94 C97 1.404 . S
C94 C98 1.353 . S
N95 Co60 2.145 . S
N95 C96 1.397 . S
N95 C97 1.334 . S
C96 H77 0.929 . S
C96 C93 1.388 . S
C96 N95 1.397 . S
C97 H78 0.929 . S
C97 C94 1.404 . S
C97 N95 1.334 . S
C98 H90 0.930 . S
C98 C93 1.418 . S
C98 C94 1.353 . S
C99 H69 0.930 . S
C99 N100 1.330 . S
C99 C101 1.446 . S
N100 Co59 2.151 . S
N100 C99 1.330 . S
N100 C104 1.418 . S
C101 H80 0.929 . S
C101 C99 1.446 . S
C101 C102 1.332 . S
C102 H82 0.931 . S
C102 C101 1.332 . S
C102 C103 1.267 . S
C103 H71 0.929 . S
C103 C102 1.267 . S
C103 C104 1.251 . S
C104 H74 0.929 . S
C104 N100 1.418 . S
C104 C103 1.251 . S
C105 H72 0.930 . S
C105 C107 1.406 . S
C105 C110 1.261 . S
C106 H73 0.930 . S
C106 N108 1.325 . S
C106 C109 1.357 . S
C107 H75 0.928 . S
C107 C105 1.406 . S
C107 N108 1.261 . S
N108 Co59 2.214 . S
N108 C106 1.325 . S
N108 C107 1.261 . S
C109 H79 0.931 . S
C109 C106 1.357 . S
C109 C110 1.312 . S
C110 H81 0.930 . S
C110 C105 1.261 . S
C110 C109 1.312 . S
C111 O83 1.214 . S
C111 O91 1.234 . S
C112 H84 0.929 . S
C112 C115 1.391 . S
C112 C117 1.391 . S
C113 H85 0.929 . S
C113 C114 1.390 . S
C113 N116 1.391 . S
C114 H86 0.930 . S
C114 C113 1.390 . S
C114 C115 1.392 . S
C115 H87 0.929 . S
C115 C112 1.391 . S
C115 C114 1.392 . S
N116 Co60 2.257 . S
N116 C113 1.391 . S
N116 C117 1.388 . S
C117 H88 0.930 . S
C117 C112 1.391 . S
C117 N116 1.388 . S
Co118 O120 2.143 . S
Co118 O126 2.074 . S
Co118 O129 2.093 . S
Co118 O142 2.097 . S
Co118 N159 2.151 . S
Co118 N167 2.214 . S
Co119 O120 2.160 . S
Co119 O125 2.058 . S
Co119 O135 2.057 . S
Co119 O150 2.037 . S
Co119 N154 2.145 . S
Co119 N175 2.257 . S
O120 Co118 2.143 . S
O120 Co119 2.160 . S
C121 O122 1.278 . S
C121 O129 1.224 . S
O122 C121 1.278 . S
C123 O124 1.245 . S
C123 O135 1.232 . S
O124 C123 1.245 . S
O125 Co119 2.058 . S
O125 C151 1.269 . S
O126 Co118 2.074 . S
O126 C151 1.257 . S
H127 C152 0.930 . S
H128 C158 0.930 . S
O129 Co118 2.093 . S
O129 C121 1.224 . S
H130 C162 0.929 . S
H131 C164 0.930 . S
H132 C165 0.930 . S
H133 C163 0.929 . S
H134 C166 0.928 . S
O135 Co119 2.057 . S
O135 C123 1.232 . S
H136 C155 0.929 . S
H137 C156 0.929 . S
H138 C168 0.931 . S
H139 C160 0.929 . S
H140 C169 0.930 . S
H141 C161 0.931 . S
O142 Co118 2.097 . S
O142 C170 1.214 . S
H143 C171 0.929 . S
H144 C172 0.929 . S
H145 C173 0.930 . S
H146 C174 0.929 . S
H147 C176 0.930 . S
H148 C153 0.930 . S
H149 C157 0.930 . S
O150 Co119 2.037 . S
O150 C170 1.234 . S
C151 O125 1.269 . S
C151 O126 1.257 . S
C152 H127 0.930 . S
C152 C155 1.388 . S
C152 C157 1.418 . S
C153 H148 0.930 . S
C153 C156 1.404 . S
C153 C157 1.353 . S
N154 Co119 2.145 . S
N154 C155 1.397 . S
N154 C156 1.334 . S
C155 H136 0.929 . S
C155 C152 1.388 . S
C155 N154 1.397 . S
C156 H137 0.929 . S
C156 C153 1.404 . S
C156 N154 1.334 . S
C157 H149 0.930 . S
C157 C152 1.418 . S
C157 C153 1.353 . S
C158 H128 0.930 . S
C158 N159 1.330 . S
C158 C160 1.446 . S
N159 Co118 2.151 . S
N159 C158 1.330 . S
N159 C163 1.418 . S
C160 H139 0.929 . S
C160 C158 1.446 . S
C160 C161 1.332 . S
C161 H141 0.931 . S
C161 C160 1.332 . S
C161 C162 1.267 . S
C162 H130 0.929 . S
C162 C161 1.267 . S
C162 C163 1.251 . S
C163 H133 0.929 . S
C163 N159 1.418 . S
C163 C162 1.251 . S
C164 H131 0.930 . S
C164 C166 1.406 . S
C164 C169 1.261 . S
C165 H132 0.930 . S
C165 N167 1.325 . S
C165 C168 1.357 . S
C166 H134 0.928 . S
C166 C164 1.406 . S
C166 N167 1.261 . S
N167 Co118 2.214 . S
N167 C165 1.325 . S
N167 C166 1.261 . S
C168 H138 0.931 . S
C168 C165 1.357 . S
C168 C169 1.312 . S
C169 H140 0.930 . S
C169 C164 1.261 . S
C169 C168 1.312 . S
C170 O142 1.214 . S
C170 O150 1.234 . S
C171 H143 0.929 . S
C171 C174 1.391 . S
C171 C176 1.391 . S
C172 H144 0.929 . S
C172 C173 1.390 . S
C172 N175 1.391 . S
C173 H145 0.930 . S
C173 C172 1.390 . S
C173 C174 1.392 . S
C174 H146 0.929 . S
C174 C171 1.391 . S
C174 C173 1.392 . S
N175 Co119 2.257 . S
N175 C172 1.391 . S
N175 C176 1.388 . S
C176 H147 0.930 . S
C176 C171 1.391 . S
C176 N175 1.388 . S
Co177 O179 2.143 . S
Co177 O185 2.074 . S
Co177 O188 2.093 . S
Co177 O201 2.097 . S
Co177 N218 2.151 . S
Co177 N226 2.214 . S
Co178 O179 2.160 . S
Co178 O184 2.058 . S
Co178 O194 2.057 . S
Co178 O209 2.037 . S
Co178 N213 2.145 . S
Co178 N234 2.257 . S
O179 Co177 2.143 . S
O179 Co178 2.160 . S
C180 O181 1.278 . S
C180 O188 1.224 . S
O181 C180 1.278 . S
C182 O183 1.245 . S
C182 O194 1.232 . S
O183 C182 1.245 . S
O184 Co178 2.058 . S
O184 C210 1.269 . S
O185 Co177 2.074 . S
O185 C210 1.257 . S
H186 C211 0.930 . S
H187 C217 0.930 . S
O188 Co177 2.093 . S
O188 C180 1.224 . S
H189 C221 0.929 . S
H190 C223 0.930 . S
H191 C224 0.930 . S
H192 C222 0.929 . S
H193 C225 0.928 . S
O194 Co178 2.057 . S
O194 C182 1.232 . S
H195 C214 0.929 . S
H196 C215 0.929 . S
H197 C227 0.931 . S
H198 C219 0.929 . S
H199 C228 0.930 . S
H200 C220 0.931 . S
O201 Co177 2.097 . S
O201 C229 1.214 . S
H202 C230 0.929 . S
H203 C231 0.929 . S
H204 C232 0.930 . S
H205 C233 0.929 . S
H206 C235 0.930 . S
H207 C212 0.930 . S
H208 C216 0.930 . S
O209 Co178 2.037 . S
O209 C229 1.234 . S
C210 O184 1.269 . S
C210 O185 1.257 . S
C211 H186 0.930 . S
C211 C214 1.388 . S
C211 C216 1.418 . S
C212 H207 0.930 . S
C212 C215 1.404 . S
C212 C216 1.353 . S
N213 Co178 2.145 . S
N213 C214 1.397 . S
N213 C215 1.334 . S
C214 H195 0.929 . S
C214 C211 1.388 . S
C214 N213 1.397 . S
C215 H196 0.929 . S
C215 C212 1.404 . S
C215 N213 1.334 . S
C216 H208 0.930 . S
C216 C211 1.418 . S
C216 C212 1.353 . S
C217 H187 0.930 . S
C217 N218 1.330 . S
C217 C219 1.446 . S
N218 Co177 2.151 . S
N218 C217 1.330 . S
N218 C222 1.418 . S
C219 H198 0.929 . S
C219 C217 1.446 . S
C219 C220 1.332 . S
C220 H200 0.931 . S
C220 C219 1.332 . S
C220 C221 1.267 . S
C221 H189 0.929 . S
C221 C220 1.267 . S
C221 C222 1.251 . S
C222 H192 0.929 . S
C222 N218 1.418 . S
C222 C221 1.251 . S
C223 H190 0.930 . S
C223 C225 1.406 . S
C223 C228 1.261 . S
C224 H191 0.930 . S
C224 N226 1.325 . S
C224 C227 1.357 . S
C225 H193 0.928 . S
C225 C223 1.406 . S
C225 N226 1.261 . S
N226 Co177 2.214 . S
N226 C224 1.325 . S
N226 C225 1.261 . S
C227 H197 0.931 . S
C227 C224 1.357 . S
C227 C228 1.312 . S
C228 H199 0.930 . S
C228 C223 1.261 . S
C228 C227 1.312 . S
C229 O201 1.214 . S
C229 O209 1.234 . S
C230 H202 0.929 . S
C230 C233 1.391 . S
C230 C235 1.391 . S
C231 H203 0.929 . S
C231 C232 1.390 . S
C231 N234 1.391 . S
C232 H204 0.930 . S
C232 C231 1.390 . S
C232 C233 1.392 . S
C233 H205 0.929 . S
C233 C230 1.391 . S
C233 C232 1.392 . S
N234 Co178 2.257 . S
N234 C231 1.391 . S
N234 C235 1.388 . S
C235 H206 0.930 . S
C235 C230 1.391 . S
C235 N234 1.388 . S
Co236 O238 2.143 . S
Co236 O244 2.074 . S
Co236 O247 2.093 . S
Co236 O260 2.097 . S
Co236 N277 2.151 . S
Co236 N285 2.214 . S
Co237 O238 2.160 . S
Co237 O243 2.058 . S
Co237 O253 2.057 . S
Co237 O268 2.037 . S
Co237 N272 2.145 . S
Co237 N293 2.257 . S
O238 Co236 2.143 . S
O238 Co237 2.160 . S
C239 O240 1.278 . S
C239 O247 1.224 . S
O240 C239 1.278 . S
C241 O242 1.245 . S
C241 O253 1.232 . S
O242 C241 1.245 . S
O243 Co237 2.058 . S
O243 C269 1.269 . S
O244 Co236 2.074 . S
O244 C269 1.257 . S
H245 C270 0.930 . S
H246 C276 0.930 . S
O247 Co236 2.093 . S
O247 C239 1.224 . S
H248 C280 0.929 . S
H249 C282 0.930 . S
H250 C283 0.930 . S
H251 C281 0.929 . S
H252 C284 0.928 . S
O253 Co237 2.057 . S
O253 C241 1.232 . S
H254 C273 0.929 . S
H255 C274 0.929 . S
H256 C286 0.931 . S
H257 C278 0.929 . S
H258 C287 0.930 . S
H259 C279 0.931 . S
O260 Co236 2.097 . S
O260 C288 1.214 . S
H261 C289 0.929 . S
H262 C290 0.929 . S
H263 C291 0.930 . S
H264 C292 0.929 . S
H265 C294 0.930 . S
H266 C271 0.930 . S
H267 C275 0.930 . S
O268 Co237 2.037 . S
O268 C288 1.234 . S
C269 O243 1.269 . S
C269 O244 1.257 . S
C270 H245 0.930 . S
C270 C273 1.388 . S
C270 C275 1.418 . S
C271 H266 0.930 . S
C271 C274 1.404 . S
C271 C275 1.353 . S
N272 Co237 2.145 . S
N272 C273 1.397 . S
N272 C274 1.334 . S
C273 H254 0.929 . S
C273 C270 1.388 . S
C273 N272 1.397 . S
C274 H255 0.929 . S
C274 C271 1.404 . S
C274 N272 1.334 . S
C275 H267 0.930 . S
C275 C270 1.418 . S
C275 C271 1.353 . S
C276 H246 0.930 . S
C276 N277 1.330 . S
C276 C278 1.446 . S
N277 Co236 2.151 . S
N277 C276 1.330 . S
N277 C281 1.418 . S
C278 H257 0.929 . S
C278 C276 1.446 . S
C278 C279 1.332 . S
C279 H259 0.931 . S
C279 C278 1.332 . S
C279 C280 1.267 . S
C280 H248 0.929 . S
C280 C279 1.267 . S
C280 C281 1.251 . S
C281 H251 0.929 . S
C281 N277 1.418 . S
C281 C280 1.251 . S
C282 H249 0.930 . S
C282 C284 1.406 . S
C282 C287 1.261 . S
C283 H250 0.930 . S
C283 N285 1.325 . S
C283 C286 1.357 . S
C284 H252 0.928 . S
C284 C282 1.406 . S
C284 N285 1.261 . S
N285 Co236 2.214 . S
N285 C283 1.325 . S
N285 C284 1.261 . S
C286 H256 0.931 . S
C286 C283 1.357 . S
C286 C287 1.312 . S
C287 H258 0.930 . S
C287 C282 1.261 . S
C287 C286 1.312 . S
C288 O260 1.214 . S
C288 O268 1.234 . S
C289 H261 0.929 . S
C289 C292 1.391 . S
C289 C294 1.391 . S
C290 H262 0.929 . S
C290 C291 1.390 . S
C290 N293 1.391 . S
C291 H263 0.930 . S
C291 C290 1.390 . S
C291 C292 1.392 . S
C292 H264 0.929 . S
C292 C289 1.391 . S
C292 C291 1.392 . S
N293 Co237 2.257 . S
N293 C290 1.391 . S
N293 C294 1.388 . S
C294 H265 0.930 . S
C294 C289 1.391 . S
C294 N293 1.388 . S
Co295 O297 2.143 . S
Co295 O303 2.074 . S
Co295 O306 2.093 . S
Co295 O319 2.097 . S
Co295 N336 2.151 . S
Co295 N344 2.214 . S
Co296 O297 2.160 . S
Co296 O302 2.058 . S
Co296 O312 2.057 . S
Co296 O327 2.037 . S
Co296 N331 2.145 . S
Co296 N352 2.257 . S
O297 Co295 2.143 . S
O297 Co296 2.160 . S
C298 O299 1.278 . S
C298 O306 1.224 . S
O299 C298 1.278 . S
C300 O301 1.245 . S
C300 O312 1.232 . S
O301 C300 1.245 . S
O302 Co296 2.058 . S
O302 C328 1.269 . S
O303 Co295 2.074 . S
O303 C328 1.257 . S
H304 C329 0.930 . S
H305 C335 0.930 . S
O306 Co295 2.093 . S
O306 C298 1.224 . S
H307 C339 0.929 . S
H308 C341 0.930 . S
H309 C342 0.930 . S
H310 C340 0.929 . S
H311 C343 0.928 . S
O312 Co296 2.057 . S
O312 C300 1.232 . S
H313 C332 0.929 . S
H314 C333 0.929 . S
H315 C345 0.931 . S
H316 C337 0.929 . S
H317 C346 0.930 . S
H318 C338 0.931 . S
O319 Co295 2.097 . S
O319 C347 1.214 . S
H320 C348 0.929 . S
H321 C349 0.929 . S
H322 C350 0.930 . S
H323 C351 0.929 . S
H324 C353 0.930 . S
H325 C330 0.930 . S
H326 C334 0.930 . S
O327 Co296 2.037 . S
O327 C347 1.234 . S
C328 O302 1.269 . S
C328 O303 1.257 . S
C329 H304 0.930 . S
C329 C332 1.388 . S
C329 C334 1.418 . S
C330 H325 0.930 . S
C330 C333 1.404 . S
C330 C334 1.353 . S
N331 Co296 2.145 . S
N331 C332 1.397 . S
N331 C333 1.334 . S
C332 H313 0.929 . S
C332 C329 1.388 . S
C332 N331 1.397 . S
C333 H314 0.929 . S
C333 C330 1.404 . S
C333 N331 1.334 . S
C334 H326 0.930 . S
C334 C329 1.418 . S
C334 C330 1.353 . S
C335 H305 0.930 . S
C335 N336 1.330 . S
C335 C337 1.446 . S
N336 Co295 2.151 . S
N336 C335 1.330 . S
N336 C340 1.418 . S
C337 H316 0.929 . S
C337 C335 1.446 . S
C337 C338 1.332 . S
C338 H318 0.931 . S
C338 C337 1.332 . S
C338 C339 1.267 . S
C339 H307 0.929 . S
C339 C338 1.267 . S
C339 C340 1.251 . S
C340 H310 0.929 . S
C340 N336 1.418 . S
C340 C339 1.251 . S
C341 H308 0.930 . S
C341 C343 1.406 . S
C341 C346 1.261 . S
C342 H309 0.930 . S
C342 N344 1.325 . S
C342 C345 1.357 . S
C343 H311 0.928 . S
C343 C341 1.406 . S
C343 N344 1.261 . S
N344 Co295 2.214 . S
N344 C342 1.325 . S
N344 C343 1.261 . S
C345 H315 0.931 . S
C345 C342 1.357 . S
C345 C346 1.312 . S
C346 H317 0.930 . S
C346 C341 1.261 . S
C346 C345 1.312 . S
C347 O319 1.214 . S
C347 O327 1.234 . S
C348 H320 0.929 . S
C348 C351 1.391 . S
C348 C353 1.391 . S
C349 H321 0.929 . S
C349 C350 1.390 . S
C349 N352 1.391 . S
C350 H322 0.930 . S
C350 C349 1.390 . S
C350 C351 1.392 . S
C351 H323 0.929 . S
C351 C348 1.391 . S
C351 C350 1.392 . S
N352 Co296 2.257 . S
N352 C349 1.391 . S
N352 C353 1.388 . S
C353 H324 0.930 . S
C353 C348 1.391 . S
C353 N352 1.388 . S
Co354 O356 2.143 . S
Co354 O362 2.074 . S
Co354 O365 2.093 . S
Co354 O378 2.097 . S
Co354 N395 2.151 . S
Co354 N403 2.214 . S
Co355 O356 2.160 . S
Co355 O361 2.058 . S
Co355 O371 2.057 . S
Co355 O386 2.037 . S
Co355 N390 2.145 . S
Co355 N411 2.257 . S
O356 Co354 2.143 . S
O356 Co355 2.160 . S
C357 O358 1.278 . S
C357 O365 1.224 . S
O358 C357 1.278 . S
C359 O360 1.245 . S
C359 O371 1.232 . S
O360 C359 1.245 . S
O361 Co355 2.058 . S
O361 C387 1.269 . S
O362 Co354 2.074 . S
O362 C387 1.257 . S
H363 C388 0.930 . S
H364 C394 0.930 . S
O365 Co354 2.093 . S
O365 C357 1.224 . S
H366 C398 0.929 . S
H367 C400 0.930 . S
H368 C401 0.930 . S
H369 C399 0.929 . S
H370 C402 0.928 . S
O371 Co355 2.057 . S
O371 C359 1.232 . S
H372 C391 0.929 . S
H373 C392 0.929 . S
H374 C404 0.931 . S
H375 C396 0.929 . S
H376 C405 0.930 . S
H377 C397 0.931 . S
O378 Co354 2.097 . S
O378 C406 1.214 . S
H379 C407 0.929 . S
H380 C408 0.929 . S
H381 C409 0.930 . S
H382 C410 0.929 . S
H383 C412 0.930 . S
H384 C389 0.930 . S
H385 C393 0.930 . S
O386 Co355 2.037 . S
O386 C406 1.234 . S
C387 O361 1.269 . S
C387 O362 1.257 . S
C388 H363 0.930 . S
C388 C391 1.388 . S
C388 C393 1.418 . S
C389 H384 0.930 . S
C389 C392 1.404 . S
C389 C393 1.353 . S
N390 Co355 2.145 . S
N390 C391 1.397 . S
N390 C392 1.334 . S
C391 H372 0.929 . S
C391 C388 1.388 . S
C391 N390 1.397 . S
C392 H373 0.929 . S
C392 C389 1.404 . S
C392 N390 1.334 . S
C393 H385 0.930 . S
C393 C388 1.418 . S
C393 C389 1.353 . S
C394 H364 0.930 . S
C394 N395 1.330 . S
C394 C396 1.446 . S
N395 Co354 2.151 . S
N395 C394 1.330 . S
N395 C399 1.418 . S
C396 H375 0.929 . S
C396 C394 1.446 . S
C396 C397 1.332 . S
C397 H377 0.931 . S
C397 C396 1.332 . S
C397 C398 1.267 . S
C398 H366 0.929 . S
C398 C397 1.267 . S
C398 C399 1.251 . S
C399 H369 0.929 . S
C399 N395 1.418 . S
C399 C398 1.251 . S
C400 H367 0.930 . S
C400 C402 1.406 . S
C400 C405 1.261 . S
C401 H368 0.930 . S
C401 N403 1.325 . S
C401 C404 1.357 . S
C402 H370 0.928 . S
C402 C400 1.406 . S
C402 N403 1.261 . S
N403 Co354 2.214 . S
N403 C401 1.325 . S
N403 C402 1.261 . S
C404 H374 0.931 . S
C404 C401 1.357 . S
C404 C405 1.312 . S
C405 H376 0.930 . S
C405 C400 1.261 . S
C405 C404 1.312 . S
C406 O378 1.214 . S
C406 O386 1.234 . S
C407 H379 0.929 . S
C407 C410 1.391 . S
C407 C412 1.391 . S
C408 H380 0.929 . S
C408 C409 1.390 . S
C408 N411 1.391 . S
C409 H381 0.930 . S
C409 C408 1.390 . S
C409 C410 1.392 . S
C410 H382 0.929 . S
C410 C407 1.391 . S
C410 C409 1.392 . S
N411 Co355 2.257 . S
N411 C408 1.391 . S
N411 C412 1.388 . S
C412 H383 0.930 . S
C412 C407 1.391 . S
C412 N411 1.388 . S
Co413 O415 2.143 . S
Co413 O421 2.074 . S
Co413 O424 2.093 . S
Co413 O437 2.097 . S
Co413 N454 2.151 . S
Co413 N462 2.214 . S
Co414 O415 2.160 . S
Co414 O420 2.058 . S
Co414 O430 2.057 . S
Co414 O445 2.037 . S
Co414 N449 2.145 . S
Co414 N470 2.257 . S
O415 Co413 2.143 . S
O415 Co414 2.160 . S
C416 O417 1.278 . S
C416 O424 1.224 . S
O417 C416 1.278 . S
C418 O419 1.245 . S
C418 O430 1.232 . S
O419 C418 1.245 . S
O420 Co414 2.058 . S
O420 C446 1.269 . S
O421 Co413 2.074 . S
O421 C446 1.257 . S
H422 C447 0.930 . S
H423 C453 0.930 . S
O424 Co413 2.093 . S
O424 C416 1.224 . S
H425 C457 0.929 . S
H426 C459 0.930 . S
H427 C460 0.930 . S
H428 C458 0.929 . S
H429 C461 0.928 . S
O430 Co414 2.057 . S
O430 C418 1.232 . S
H431 C450 0.929 . S
H432 C451 0.929 . S
H433 C463 0.931 . S
H434 C455 0.929 . S
H435 C464 0.930 . S
H436 C456 0.931 . S
O437 Co413 2.097 . S
O437 C465 1.214 . S
H438 C466 0.929 . S
H439 C467 0.929 . S
H440 C468 0.930 . S
H441 C469 0.929 . S
H442 C471 0.930 . S
H443 C448 0.930 . S
H444 C452 0.930 . S
O445 Co414 2.037 . S
O445 C465 1.234 . S
C446 O420 1.269 . S
C446 O421 1.257 . S
C447 H422 0.930 . S
C447 C450 1.388 . S
C447 C452 1.418 . S
C448 H443 0.930 . S
C448 C451 1.404 . S
C448 C452 1.353 . S
N449 Co414 2.145 . S
N449 C450 1.397 . S
N449 C451 1.334 . S
C450 H431 0.929 . S
C450 C447 1.388 . S
C450 N449 1.397 . S
C451 H432 0.929 . S
C451 C448 1.404 . S
C451 N449 1.334 . S
C452 H444 0.930 . S
C452 C447 1.418 . S
C452 C448 1.353 . S
C453 H423 0.930 . S
C453 N454 1.330 . S
C453 C455 1.446 . S
N454 Co413 2.151 . S
N454 C453 1.330 . S
N454 C458 1.418 . S
C455 H434 0.929 . S
C455 C453 1.446 . S
C455 C456 1.332 . S
C456 H436 0.931 . S
C456 C455 1.332 . S
C456 C457 1.267 . S
C457 H425 0.929 . S
C457 C456 1.267 . S
C457 C458 1.251 . S
C458 H428 0.929 . S
C458 N454 1.418 . S
C458 C457 1.251 . S
C459 H426 0.930 . S
C459 C461 1.406 . S
C459 C464 1.261 . S
C460 H427 0.930 . S
C460 N462 1.325 . S
C460 C463 1.357 . S
C461 H429 0.928 . S
C461 C459 1.406 . S
C461 N462 1.261 . S
N462 Co413 2.214 . S
N462 C460 1.325 . S
N462 C461 1.261 . S
C463 H433 0.931 . S
C463 C460 1.357 . S
C463 C464 1.312 . S
C464 H435 0.930 . S
C464 C459 1.261 . S
C464 C463 1.312 . S
C465 O437 1.214 . S
C465 O445 1.234 . S
C466 H438 0.929 . S
C466 C469 1.391 . S
C466 C471 1.391 . S
C467 H439 0.929 . S
C467 C468 1.390 . S
C467 N470 1.391 . S
C468 H440 0.930 . S
C468 C467 1.390 . S
C468 C469 1.392 . S
C469 H441 0.929 . S
C469 C466 1.391 . S
C469 C468 1.392 . S
N470 Co414 2.257 . S
N470 C467 1.391 . S
N470 C471 1.388 . S
C471 H442 0.930 . S
C471 C466 1.391 . S
C471 N470 1.388 . S
Co472 O474 2.143 . S
Co472 O480 2.074 . S
Co472 O483 2.093 . S
Co472 O496 2.097 . S
Co472 N513 2.151 . S
Co472 N521 2.214 . S
Co473 O474 2.160 . S
Co473 O479 2.058 . S
Co473 O489 2.057 . S
Co473 O504 2.037 . S
Co473 N508 2.145 . S
Co473 N529 2.257 . S
O474 Co472 2.143 . S
O474 Co473 2.160 . S
C475 O476 1.278 . S
C475 O483 1.224 . S
O476 C475 1.278 . S
C477 O478 1.245 . S
C477 O489 1.232 . S
O478 C477 1.245 . S
O479 Co473 2.058 . S
O479 C505 1.269 . S
O480 Co472 2.074 . S
O480 C505 1.257 . S
H481 C506 0.930 . S
H482 C512 0.930 . S
O483 Co472 2.093 . S
O483 C475 1.224 . S
H484 C516 0.929 . S
H485 C518 0.930 . S
H486 C519 0.930 . S
H487 C517 0.929 . S
H488 C520 0.928 . S
O489 Co473 2.057 . S
O489 C477 1.232 . S
H490 C509 0.929 . S
H491 C510 0.929 . S
H492 C522 0.931 . S
H493 C514 0.929 . S
H494 C523 0.930 . S
H495 C515 0.931 . S
O496 Co472 2.097 . S
O496 C524 1.214 . S
H497 C525 0.929 . S
H498 C526 0.929 . S
H499 C527 0.930 . S
H500 C528 0.929 . S
H501 C530 0.930 . S
H502 C507 0.930 . S
H503 C511 0.930 . S
O504 Co473 2.037 . S
O504 C524 1.234 . S
C505 O479 1.269 . S
C505 O480 1.257 . S
C506 H481 0.930 . S
C506 C509 1.388 . S
C506 C511 1.418 . S
C507 H502 0.930 . S
C507 C510 1.404 . S
C507 C511 1.353 . S
N508 Co473 2.145 . S
N508 C509 1.397 . S
N508 C510 1.334 . S
C509 H490 0.929 . S
C509 C506 1.388 . S
C509 N508 1.397 . S
C510 H491 0.929 . S
C510 C507 1.404 . S
C510 N508 1.334 . S
C511 H503 0.930 . S
C511 C506 1.418 . S
C511 C507 1.353 . S
C512 H482 0.930 . S
C512 N513 1.330 . S
C512 C514 1.446 . S
N513 Co472 2.151 . S
N513 C512 1.330 . S
N513 C517 1.418 . S
C514 H493 0.929 . S
C514 C512 1.446 . S
C514 C515 1.332 . S
C515 H495 0.931 . S
C515 C514 1.332 . S
C515 C516 1.267 . S
C516 H484 0.929 . S
C516 C515 1.267 . S
C516 C517 1.251 . S
C517 H487 0.929 . S
C517 N513 1.418 . S
C517 C516 1.251 . S
C518 H485 0.930 . S
C518 C520 1.406 . S
C518 C523 1.261 . S
C519 H486 0.930 . S
C519 N521 1.325 . S
C519 C522 1.357 . S
C520 H488 0.928 . S
C520 C518 1.406 . S
C520 N521 1.261 . S
N521 Co472 2.214 . S
N521 C519 1.325 . S
N521 C520 1.261 . S
C522 H492 0.931 . S
C522 C519 1.357 . S
C522 C523 1.312 . S
C523 H494 0.930 . S
C523 C518 1.261 . S
C523 C522 1.312 . S
C524 O496 1.214 . S
C524 O504 1.234 . S
C525 H497 0.929 . S
C525 C528 1.391 . S
C525 C530 1.391 . S
C526 H498 0.929 . S
C526 C527 1.390 . S
C526 N529 1.391 . S
C527 H499 0.930 . S
C527 C526 1.390 . S
C527 C528 1.392 . S
C528 H500 0.929 . S
C528 C525 1.391 . S
C528 C527 1.392 . S
N529 Co473 2.257 . S
N529 C526 1.391 . S
N529 C530 1.388 . S
C530 H501 0.930 . S
C530 C525 1.391 . S
C530 N529 1.388 . S
Co531 O533 2.143 . S
Co531 O539 2.074 . S
Co531 O542 2.093 . S
Co531 O555 2.097 . S
Co531 N572 2.151 . S
Co531 N580 2.214 . S
Co532 O533 2.160 . S
Co532 O538 2.058 . S
Co532 O548 2.057 . S
Co532 O563 2.037 . S
Co532 N567 2.145 . S
Co532 N588 2.257 . S
O533 Co531 2.143 . S
O533 Co532 2.160 . S
C534 O535 1.278 . S
C534 O542 1.224 . S
O535 C534 1.278 . S
C536 O537 1.245 . S
C536 O548 1.232 . S
O537 C536 1.245 . S
O538 Co532 2.058 . S
O538 C564 1.269 . S
O539 Co531 2.074 . S
O539 C564 1.257 . S
H540 C565 0.930 . S
H541 C571 0.930 . S
O542 Co531 2.093 . S
O542 C534 1.224 . S
H543 C575 0.929 . S
H544 C577 0.930 . S
H545 C578 0.930 . S
H546 C576 0.929 . S
H547 C579 0.928 . S
O548 Co532 2.057 . S
O548 C536 1.232 . S
H549 C568 0.929 . S
H550 C569 0.929 . S
H551 C581 0.931 . S
H552 C573 0.929 . S
H553 C582 0.930 . S
H554 C574 0.931 . S
O555 Co531 2.097 . S
O555 C583 1.214 . S
H556 C584 0.929 . S
H557 C585 0.929 . S
H558 C586 0.930 . S
H559 C587 0.929 . S
H560 C589 0.930 . S
H561 C566 0.930 . S
H562 C570 0.930 . S
O563 Co532 2.037 . S
O563 C583 1.234 . S
C564 O538 1.269 . S
C564 O539 1.257 . S
C565 H540 0.930 . S
C565 C568 1.388 . S
C565 C570 1.418 . S
C566 H561 0.930 . S
C566 C569 1.404 . S
C566 C570 1.353 . S
N567 Co532 2.145 . S
N567 C568 1.397 . S
N567 C569 1.334 . S
C568 H549 0.929 . S
C568 C565 1.388 . S
C568 N567 1.397 . S
C569 H550 0.929 . S
C569 C566 1.404 . S
C569 N567 1.334 . S
C570 H562 0.930 . S
C570 C565 1.418 . S
C570 C566 1.353 . S
C571 H541 0.930 . S
C571 N572 1.330 . S
C571 C573 1.446 . S
N572 Co531 2.151 . S
N572 C571 1.330 . S
N572 C576 1.418 . S
C573 H552 0.929 . S
C573 C571 1.446 . S
C573 C574 1.332 . S
C574 H554 0.931 . S
C574 C573 1.332 . S
C574 C575 1.267 . S
C575 H543 0.929 . S
C575 C574 1.267 . S
C575 C576 1.251 . S
C576 H546 0.929 . S
C576 N572 1.418 . S
C576 C575 1.251 . S
C577 H544 0.930 . S
C577 C579 1.406 . S
C577 C582 1.261 . S
C578 H545 0.930 . S
C578 N580 1.325 . S
C578 C581 1.357 . S
C579 H547 0.928 . S
C579 C577 1.406 . S
C579 N580 1.261 . S
N580 Co531 2.214 . S
N580 C578 1.325 . S
N580 C579 1.261 . S
C581 H551 0.931 . S
C581 C578 1.357 . S
C581 C582 1.312 . S
C582 H553 0.930 . S
C582 C577 1.261 . S
C582 C581 1.312 . S
C583 O555 1.214 . S
C583 O563 1.234 . S
C584 H556 0.929 . S
C584 C587 1.391 . S
C584 C589 1.391 . S
C585 H557 0.929 . S
C585 C586 1.390 . S
C585 N588 1.391 . S
C586 H558 0.930 . S
C586 C585 1.390 . S
C586 C587 1.392 . S
C587 H559 0.929 . S
C587 C584 1.391 . S
C587 C586 1.392 . S
N588 Co532 2.257 . S
N588 C585 1.391 . S
N588 C589 1.388 . S
C589 H560 0.930 . S
C589 C584 1.391 . S
C589 N588 1.388 . S
Co590 O592 2.143 . S
Co590 O598 2.074 . S
Co590 O601 2.093 . S
Co590 O614 2.097 . S
Co590 N631 2.151 . S
Co590 N639 2.214 . S
Co591 O592 2.160 . S
Co591 O597 2.058 . S
Co591 O607 2.057 . S
Co591 O622 2.037 . S
Co591 N626 2.145 . S
Co591 N647 2.257 . S
O592 Co590 2.143 . S
O592 Co591 2.160 . S
C593 O594 1.278 . S
C593 O601 1.224 . S
O594 C593 1.278 . S
C595 O596 1.245 . S
C595 O607 1.232 . S
O596 C595 1.245 . S
O597 Co591 2.058 . S
O597 C623 1.269 . S
O598 Co590 2.074 . S
O598 C623 1.257 . S
H599 C624 0.930 . S
H600 C630 0.930 . S
O601 Co590 2.093 . S
O601 C593 1.224 . S
H602 C634 0.929 . S
H603 C636 0.930 . S
H604 C637 0.930 . S
H605 C635 0.929 . S
H606 C638 0.928 . S
O607 Co591 2.057 . S
O607 C595 1.232 . S
H608 C627 0.929 . S
H609 C628 0.929 . S
H610 C640 0.931 . S
H611 C632 0.929 . S
H612 C641 0.930 . S
H613 C633 0.931 . S
O614 Co590 2.097 . S
O614 C642 1.214 . S
H615 C643 0.929 . S
H616 C644 0.929 . S
H617 C645 0.930 . S
H618 C646 0.929 . S
H619 C648 0.930 . S
H620 C625 0.930 . S
H621 C629 0.930 . S
O622 Co591 2.037 . S
O622 C642 1.234 . S
C623 O597 1.269 . S
C623 O598 1.257 . S
C624 H599 0.930 . S
C624 C627 1.388 . S
C624 C629 1.418 . S
C625 H620 0.930 . S
C625 C628 1.404 . S
C625 C629 1.353 . S
N626 Co591 2.145 . S
N626 C627 1.397 . S
N626 C628 1.334 . S
C627 H608 0.929 . S
C627 C624 1.388 . S
C627 N626 1.397 . S
C628 H609 0.929 . S
C628 C625 1.404 . S
C628 N626 1.334 . S
C629 H621 0.930 . S
C629 C624 1.418 . S
C629 C625 1.353 . S
C630 H600 0.930 . S
C630 N631 1.330 . S
C630 C632 1.446 . S
N631 Co590 2.151 . S
N631 C630 1.330 . S
N631 C635 1.418 . S
C632 H611 0.929 . S
C632 C630 1.446 . S
C632 C633 1.332 . S
C633 H613 0.931 . S
C633 C632 1.332 . S
C633 C634 1.267 . S
C634 H602 0.929 . S
C634 C633 1.267 . S
C634 C635 1.251 . S
C635 H605 0.929 . S
C635 N631 1.418 . S
C635 C634 1.251 . S
C636 H603 0.930 . S
C636 C638 1.406 . S
C636 C641 1.261 . S
C637 H604 0.930 . S
C637 N639 1.325 . S
C637 C640 1.357 . S
C638 H606 0.928 . S
C638 C636 1.406 . S
C638 N639 1.261 . S
N639 Co590 2.214 . S
N639 C637 1.325 . S
N639 C638 1.261 . S
C640 H610 0.931 . S
C640 C637 1.357 . S
C640 C641 1.312 . S
C641 H612 0.930 . S
C641 C636 1.261 . S
C641 C640 1.312 . S
C642 O614 1.214 . S
C642 O622 1.234 . S
C643 H615 0.929 . S
C643 C646 1.391 . S
C643 C648 1.391 . S
C644 H616 0.929 . S
C644 C645 1.390 . S
C644 N647 1.391 . S
C645 H617 0.930 . S
C645 C644 1.390 . S
C645 C646 1.392 . S
C646 H618 0.929 . S
C646 C643 1.391 . S
C646 C645 1.392 . S
N647 Co591 2.257 . S
N647 C644 1.391 . S
N647 C648 1.388 . S
C648 H619 0.930 . S
C648 C643 1.391 . S
C648 N647 1.388 . S
Co649 O651 2.143 . S
Co649 O657 2.074 . S
Co649 O660 2.093 . S
Co649 O673 2.097 . S
Co649 N690 2.151 . S
Co649 N698 2.214 . S
Co650 O651 2.160 . S
Co650 O656 2.058 . S
Co650 O666 2.057 . S
Co650 O681 2.037 . S
Co650 N685 2.145 . S
Co650 N706 2.257 . S
O651 Co649 2.143 . S
O651 Co650 2.160 . S
C652 O653 1.278 . S
C652 O660 1.224 . S
O653 C652 1.278 . S
C654 O655 1.245 . S
C654 O666 1.232 . S
O655 C654 1.245 . S
O656 Co650 2.058 . S
O656 C682 1.269 . S
O657 Co649 2.074 . S
O657 C682 1.257 . S
H658 C683 0.930 . S
H659 C689 0.930 . S
O660 Co649 2.093 . S
O660 C652 1.224 . S
H661 C693 0.929 . S
H662 C695 0.930 . S
H663 C696 0.930 . S
H664 C694 0.929 . S
H665 C697 0.928 . S
O666 Co650 2.057 . S
O666 C654 1.232 . S
H667 C686 0.929 . S
H668 C687 0.929 . S
H669 C699 0.931 . S
H670 C691 0.929 . S
H671 C700 0.930 . S
H672 C692 0.931 . S
O673 Co649 2.097 . S
O673 C701 1.214 . S
H674 C702 0.929 . S
H675 C703 0.929 . S
H676 C704 0.930 . S
H677 C705 0.929 . S
H678 C707 0.930 . S
H679 C684 0.930 . S
H680 C688 0.930 . S
O681 Co650 2.037 . S
O681 C701 1.234 . S
C682 O656 1.269 . S
C682 O657 1.257 . S
C683 H658 0.930 . S
C683 C686 1.388 . S
C683 C688 1.418 . S
C684 H679 0.930 . S
C684 C687 1.404 . S
C684 C688 1.353 . S
N685 Co650 2.145 . S
N685 C686 1.397 . S
N685 C687 1.334 . S
C686 H667 0.929 . S
C686 C683 1.388 . S
C686 N685 1.397 . S
C687 H668 0.929 . S
C687 C684 1.404 . S
C687 N685 1.334 . S
C688 H680 0.930 . S
C688 C683 1.418 . S
C688 C684 1.353 . S
C689 H659 0.930 . S
C689 N690 1.330 . S
C689 C691 1.446 . S
N690 Co649 2.151 . S
N690 C689 1.330 . S
N690 C694 1.418 . S
C691 H670 0.929 . S
C691 C689 1.446 . S
C691 C692 1.332 . S
C692 H672 0.931 . S
C692 C691 1.332 . S
C692 C693 1.267 . S
C693 H661 0.929 . S
C693 C692 1.267 . S
C693 C694 1.251 . S
C694 H664 0.929 . S
C694 N690 1.418 . S
C694 C693 1.251 . S
C695 H662 0.930 . S
C695 C697 1.406 . S
C695 C700 1.261 . S
C696 H663 0.930 . S
C696 N698 1.325 . S
C696 C699 1.357 . S
C697 H665 0.928 . S
C697 C695 1.406 . S
C697 N698 1.261 . S
N698 Co649 2.214 . S
N698 C696 1.325 . S
N698 C697 1.261 . S
C699 H669 0.931 . S
C699 C696 1.357 . S
C699 C700 1.312 . S
C700 H671 0.930 . S
C700 C695 1.261 . S
C700 C699 1.312 . S
C701 O673 1.214 . S
C701 O681 1.234 . S
C702 H674 0.929 . S
C702 C705 1.391 . S
C702 C707 1.391 . S
C703 H675 0.929 . S
C703 C704 1.390 . S
C703 N706 1.391 . S
C704 H676 0.930 . S
C704 C703 1.390 . S
C704 C705 1.392 . S
C705 H677 0.929 . S
C705 C702 1.391 . S
C705 C704 1.392 . S
N706 Co650 2.257 . S
N706 C703 1.391 . S
N706 C707 1.388 . S
C707 H678 0.930 . S
C707 C702 1.391 . S
C707 N706 1.388 . S
Co708 O710 2.143 . S
Co708 O716 2.074 . S
Co708 O719 2.093 . S
Co708 O732 2.097 . S
Co708 N749 2.151 . S
Co708 N757 2.214 . S
Co709 O710 2.160 . S
Co709 O715 2.058 . S
Co709 O725 2.057 . S
Co709 O740 2.037 . S
Co709 N744 2.145 . S
Co709 N765 2.257 . S
O710 Co708 2.143 . S
O710 Co709 2.160 . S
C711 O712 1.278 . S
C711 O719 1.224 . S
O712 C711 1.278 . S
C713 O714 1.245 . S
C713 O725 1.232 . S
O714 C713 1.245 . S
O715 Co709 2.058 . S
O715 C741 1.269 . S
O716 Co708 2.074 . S
O716 C741 1.257 . S
H717 C742 0.930 . S
H718 C748 0.930 . S
O719 Co708 2.093 . S
O719 C711 1.224 . S
H720 C752 0.929 . S
H721 C754 0.930 . S
H722 C755 0.930 . S
H723 C753 0.929 . S
H724 C756 0.928 . S
O725 Co709 2.057 . S
O725 C713 1.232 . S
H726 C745 0.929 . S
H727 C746 0.929 . S
H728 C758 0.931 . S
H729 C750 0.929 . S
H730 C759 0.930 . S
H731 C751 0.931 . S
O732 Co708 2.097 . S
O732 C760 1.214 . S
H733 C761 0.929 . S
H734 C762 0.929 . S
H735 C763 0.930 . S
H736 C764 0.929 . S
H737 C766 0.930 . S
H738 C743 0.930 . S
H739 C747 0.930 . S
O740 Co709 2.037 . S
O740 C760 1.234 . S
C741 O715 1.269 . S
C741 O716 1.257 . S
C742 H717 0.930 . S
C742 C745 1.388 . S
C742 C747 1.418 . S
C743 H738 0.930 . S
C743 C746 1.404 . S
C743 C747 1.353 . S
N744 Co709 2.145 . S
N744 C745 1.397 . S
N744 C746 1.334 . S
C745 H726 0.929 . S
C745 C742 1.388 . S
C745 N744 1.397 . S
C746 H727 0.929 . S
C746 C743 1.404 . S
C746 N744 1.334 . S
C747 H739 0.930 . S
C747 C742 1.418 . S
C747 C743 1.353 . S
C748 H718 0.930 . S
C748 N749 1.330 . S
C748 C750 1.446 . S
N749 Co708 2.151 . S
N749 C748 1.330 . S
N749 C753 1.418 . S
C750 H729 0.929 . S
C750 C748 1.446 . S
C750 C751 1.332 . S
C751 H731 0.931 . S
C751 C750 1.332 . S
C751 C752 1.267 . S
C752 H720 0.929 . S
C752 C751 1.267 . S
C752 C753 1.251 . S
C753 H723 0.929 . S
C753 N749 1.418 . S
C753 C752 1.251 . S
C754 H721 0.930 . S
C754 C756 1.406 . S
C754 C759 1.261 . S
C755 H722 0.930 . S
C755 N757 1.325 . S
C755 C758 1.357 . S
C756 H724 0.928 . S
C756 C754 1.406 . S
C756 N757 1.261 . S
N757 Co708 2.214 . S
N757 C755 1.325 . S
N757 C756 1.261 . S
C758 H728 0.931 . S
C758 C755 1.357 . S
C758 C759 1.312 . S
C759 H730 0.930 . S
C759 C754 1.261 . S
C759 C758 1.312 . S
C760 O732 1.214 . S
C760 O740 1.234 . S
C761 H733 0.929 . S
C761 C764 1.391 . S
C761 C766 1.391 . S
C762 H734 0.929 . S
C762 C763 1.390 . S
C762 N765 1.391 . S
C763 H735 0.930 . S
C763 C762 1.390 . S
C763 C764 1.392 . S
C764 H736 0.929 . S
C764 C761 1.391 . S
C764 C763 1.392 . S
N765 Co709 2.257 . S
N765 C762 1.391 . S
N765 C766 1.388 . S
C766 H737 0.930 . S
C766 C761 1.391 . S
C766 N765 1.388 . S
Co767 O769 2.143 . S
Co767 O775 2.074 . S
Co767 O778 2.093 . S
Co767 O791 2.097 . S
Co767 N808 2.151 . S
Co767 N816 2.214 . S
Co768 O769 2.160 . S
Co768 O774 2.058 . S
Co768 O784 2.057 . S
Co768 O799 2.037 . S
Co768 N803 2.145 . S
Co768 N824 2.257 . S
O769 Co767 2.143 . S
O769 Co768 2.160 . S
C770 O771 1.278 . S
C770 O778 1.224 . S
O771 C770 1.278 . S
C772 O773 1.245 . S
C772 O784 1.232 . S
O773 C772 1.245 . S
O774 Co768 2.058 . S
O774 C800 1.269 . S
O775 Co767 2.074 . S
O775 C800 1.257 . S
H776 C801 0.930 . S
H777 C807 0.930 . S
O778 Co767 2.093 . S
O778 C770 1.224 . S
H779 C811 0.929 . S
H780 C813 0.930 . S
H781 C814 0.930 . S
H782 C812 0.929 . S
H783 C815 0.928 . S
O784 Co768 2.057 . S
O784 C772 1.232 . S
H785 C804 0.929 . S
H786 C805 0.929 . S
H787 C817 0.931 . S
H788 C809 0.929 . S
H789 C818 0.930 . S
H790 C810 0.931 . S
O791 Co767 2.097 . S
O791 C819 1.214 . S
H792 C820 0.929 . S
H793 C821 0.929 . S
H794 C822 0.930 . S
H795 C823 0.929 . S
H796 C825 0.930 . S
H797 C802 0.930 . S
H798 C806 0.930 . S
O799 Co768 2.037 . S
O799 C819 1.234 . S
C800 O774 1.269 . S
C800 O775 1.257 . S
C801 H776 0.930 . S
C801 C804 1.388 . S
C801 C806 1.418 . S
C802 H797 0.930 . S
C802 C805 1.404 . S
C802 C806 1.353 . S
N803 Co768 2.145 . S
N803 C804 1.397 . S
N803 C805 1.334 . S
C804 H785 0.929 . S
C804 C801 1.388 . S
C804 N803 1.397 . S
C805 H786 0.929 . S
C805 C802 1.404 . S
C805 N803 1.334 . S
C806 H798 0.930 . S
C806 C801 1.418 . S
C806 C802 1.353 . S
C807 H777 0.930 . S
C807 N808 1.330 . S
C807 C809 1.446 . S
N808 Co767 2.151 . S
N808 C807 1.330 . S
N808 C812 1.418 . S
C809 H788 0.929 . S
C809 C807 1.446 . S
C809 C810 1.332 . S
C810 H790 0.931 . S
C810 C809 1.332 . S
C810 C811 1.267 . S
C811 H779 0.929 . S
C811 C810 1.267 . S
C811 C812 1.251 . S
C812 H782 0.929 . S
C812 N808 1.418 . S
C812 C811 1.251 . S
C813 H780 0.930 . S
C813 C815 1.406 . S
C813 C818 1.261 . S
C814 H781 0.930 . S
C814 N816 1.325 . S
C814 C817 1.357 . S
C815 H783 0.928 . S
C815 C813 1.406 . S
C815 N816 1.261 . S
N816 Co767 2.214 . S
N816 C814 1.325 . S
N816 C815 1.261 . S
C817 H787 0.931 . S
C817 C814 1.357 . S
C817 C818 1.312 . S
C818 H789 0.930 . S
C818 C813 1.261 . S
C818 C817 1.312 . S
C819 O791 1.214 . S
C819 O799 1.234 . S
C820 H792 0.929 . S
C820 C823 1.391 . S
C820 C825 1.391 . S
C821 H793 0.929 . S
C821 C822 1.390 . S
C821 N824 1.391 . S
C822 H794 0.930 . S
C822 C821 1.390 . S
C822 C823 1.392 . S
C823 H795 0.929 . S
C823 C820 1.391 . S
C823 C822 1.392 . S
N824 Co768 2.257 . S
N824 C821 1.391 . S
N824 C825 1.388 . S
C825 H796 0.930 . S
C825 C820 1.391 . S
C825 N824 1.388 . S
Co826 O828 2.143 . S
Co826 O834 2.074 . S
Co826 O837 2.093 . S
Co826 O850 2.097 . S
Co826 N867 2.151 . S
Co826 N875 2.214 . S
Co827 O828 2.160 . S
Co827 O833 2.058 . S
Co827 O843 2.057 . S
Co827 O858 2.037 . S
Co827 N862 2.145 . S
Co827 N883 2.257 . S
O828 Co826 2.143 . S
O828 Co827 2.160 . S
C829 O830 1.278 . S
C829 O837 1.224 . S
O830 C829 1.278 . S
C831 O832 1.245 . S
C831 O843 1.232 . S
O832 C831 1.245 . S
O833 Co827 2.058 . S
O833 C859 1.269 . S
O834 Co826 2.074 . S
O834 C859 1.257 . S
H835 C860 0.930 . S
H836 C866 0.930 . S
O837 Co826 2.093 . S
O837 C829 1.224 . S
H838 C870 0.929 . S
H839 C872 0.930 . S
H840 C873 0.930 . S
H841 C871 0.929 . S
H842 C874 0.928 . S
O843 Co827 2.057 . S
O843 C831 1.232 . S
H844 C863 0.929 . S
H845 C864 0.929 . S
H846 C876 0.931 . S
H847 C868 0.929 . S
H848 C877 0.930 . S
H849 C869 0.931 . S
O850 Co826 2.097 . S
O850 C878 1.214 . S
H851 C879 0.929 . S
H852 C880 0.929 . S
H853 C881 0.930 . S
H854 C882 0.929 . S
H855 C884 0.930 . S
H856 C861 0.930 . S
H857 C865 0.930 . S
O858 Co827 2.037 . S
O858 C878 1.234 . S
C859 O833 1.269 . S
C859 O834 1.257 . S
C860 H835 0.930 . S
C860 C863 1.388 . S
C860 C865 1.418 . S
C861 H856 0.930 . S
C861 C864 1.404 . S
C861 C865 1.353 . S
N862 Co827 2.145 . S
N862 C863 1.397 . S
N862 C864 1.334 . S
C863 H844 0.929 . S
C863 C860 1.388 . S
C863 N862 1.397 . S
C864 H845 0.929 . S
C864 C861 1.404 . S
C864 N862 1.334 . S
C865 H857 0.930 . S
C865 C860 1.418 . S
C865 C861 1.353 . S
C866 H836 0.930 . S
C866 N867 1.330 . S
C866 C868 1.446 . S
N867 Co826 2.151 . S
N867 C866 1.330 . S
N867 C871 1.418 . S
C868 H847 0.929 . S
C868 C866 1.446 . S
C868 C869 1.332 . S
C869 H849 0.931 . S
C869 C868 1.332 . S
C869 C870 1.267 . S
C870 H838 0.929 . S
C870 C869 1.267 . S
C870 C871 1.251 . S
C871 H841 0.929 . S
C871 N867 1.418 . S
C871 C870 1.251 . S
C872 H839 0.930 . S
C872 C874 1.406 . S
C872 C877 1.261 . S
C873 H840 0.930 . S
C873 N875 1.325 . S
C873 C876 1.357 . S
C874 H842 0.928 . S
C874 C872 1.406 . S
C874 N875 1.261 . S
N875 Co826 2.214 . S
N875 C873 1.325 . S
N875 C874 1.261 . S
C876 H846 0.931 . S
C876 C873 1.357 . S
C876 C877 1.312 . S
C877 H848 0.930 . S
C877 C872 1.261 . S
C877 C876 1.312 . S
C878 O850 1.214 . S
C878 O858 1.234 . S
C879 H851 0.929 . S
C879 C882 1.391 . S
C879 C884 1.391 . S
C880 H852 0.929 . S
C880 C881 1.390 . S
C880 N883 1.391 . S
C881 H853 0.930 . S
C881 C880 1.390 . S
C881 C882 1.392 . S
C882 H854 0.929 . S
C882 C879 1.391 . S
C882 C881 1.392 . S
N883 Co827 2.257 . S
N883 C880 1.391 . S
N883 C884 1.388 . S
C884 H855 0.930 . S
C884 C879 1.391 . S
C884 N883 1.388 . S
Co885 O887 2.143 . S
Co885 O893 2.074 . S
Co885 O896 2.093 . S
Co885 O909 2.097 . S
Co885 N926 2.151 . S
Co885 N934 2.214 . S
Co886 O887 2.160 . S
Co886 O892 2.058 . S
Co886 O902 2.057 . S
Co886 O917 2.037 . S
Co886 N921 2.145 . S
Co886 N942 2.257 . S
O887 Co885 2.143 . S
O887 Co886 2.160 . S
C888 O889 1.278 . S
C888 O896 1.224 . S
O889 C888 1.278 . S
C890 O891 1.245 . S
C890 O902 1.232 . S
O891 C890 1.245 . S
O892 Co886 2.058 . S
O892 C918 1.269 . S
O893 Co885 2.074 . S
O893 C918 1.257 . S
H894 C919 0.930 . S
H895 C925 0.930 . S
O896 Co885 2.093 . S
O896 C888 1.224 . S
H897 C929 0.929 . S
H898 C931 0.930 . S
H899 C932 0.930 . S
H900 C930 0.929 . S
H901 C933 0.928 . S
O902 Co886 2.057 . S
O902 C890 1.232 . S
H903 C922 0.929 . S
H904 C923 0.929 . S
H905 C935 0.931 . S
H906 C927 0.929 . S
H907 C936 0.930 . S
H908 C928 0.931 . S
O909 Co885 2.097 . S
O909 C937 1.214 . S
H910 C938 0.929 . S
H911 C939 0.929 . S
H912 C940 0.930 . S
H913 C941 0.929 . S
H914 C943 0.930 . S
H915 C920 0.930 . S
H916 C924 0.930 . S
O917 Co886 2.037 . S
O917 C937 1.234 . S
C918 O892 1.269 . S
C918 O893 1.257 . S
C919 H894 0.930 . S
C919 C922 1.388 . S
C919 C924 1.418 . S
C920 H915 0.930 . S
C920 C923 1.404 . S
C920 C924 1.353 . S
N921 Co886 2.145 . S
N921 C922 1.397 . S
N921 C923 1.334 . S
C922 H903 0.929 . S
C922 C919 1.388 . S
C922 N921 1.397 . S
C923 H904 0.929 . S
C923 C920 1.404 . S
C923 N921 1.334 . S
C924 H916 0.930 . S
C924 C919 1.418 . S
C924 C920 1.353 . S
C925 H895 0.930 . S
C925 N926 1.330 . S
C925 C927 1.446 . S
N926 Co885 2.151 . S
N926 C925 1.330 . S
N926 C930 1.418 . S
C927 H906 0.929 . S
C927 C925 1.446 . S
C927 C928 1.332 . S
C928 H908 0.931 . S
C928 C927 1.332 . S
C928 C929 1.267 . S
C929 H897 0.929 . S
C929 C928 1.267 . S
C929 C930 1.251 . S
C930 H900 0.929 . S
C930 N926 1.418 . S
C930 C929 1.251 . S
C931 H898 0.930 . S
C931 C933 1.406 . S
C931 C936 1.261 . S
C932 H899 0.930 . S
C932 N934 1.325 . S
C932 C935 1.357 . S
C933 H901 0.928 . S
C933 C931 1.406 . S
C933 N934 1.261 . S
N934 Co885 2.214 . S
N934 C932 1.325 . S
N934 C933 1.261 . S
C935 H905 0.931 . S
C935 C932 1.357 . S
C935 C936 1.312 . S
C936 H907 0.930 . S
C936 C931 1.261 . S
C936 C935 1.312 . S
C937 O909 1.214 . S
C937 O917 1.234 . S
C938 H910 0.929 . S
C938 C941 1.391 . S
C938 C943 1.391 . S
C939 H911 0.929 . S
C939 C940 1.390 . S
C939 N942 1.391 . S
C940 H912 0.930 . S
C940 C939 1.390 . S
C940 C941 1.392 . S
C941 H913 0.929 . S
C941 C938 1.391 . S
C941 C940 1.392 . S
N942 Co886 2.257 . S
N942 C939 1.391 . S
N942 C943 1.388 . S
C943 H914 0.930 . S
C943 C938 1.391 . S
C943 N942 1.388 . S
Co944 O946 2.143 . S
Co944 O952 2.074 . S
Co944 O955 2.093 . S
Co944 O968 2.097 . S
Co944 N985 2.151 . S
Co944 N993 2.214 . S
Co945 O946 2.160 . S
Co945 O951 2.058 . S
Co945 O961 2.057 . S
Co945 O976 2.037 . S
Co945 N980 2.145 . S
Co945 N1001 2.257 . S
O946 Co944 2.143 . S
O946 Co945 2.160 . S
C947 O948 1.278 . S
C947 O955 1.224 . S
O948 C947 1.278 . S
C949 O950 1.245 . S
C949 O961 1.232 . S
O950 C949 1.245 . S
O951 Co945 2.058 . S
O951 C977 1.269 . S
O952 Co944 2.074 . S
O952 C977 1.257 . S
H953 C978 0.930 . S
H954 C984 0.930 . S
O955 Co944 2.093 . S
O955 C947 1.224 . S
H956 C988 0.929 . S
H957 C990 0.930 . S
H958 C991 0.930 . S
H959 C989 0.929 . S
H960 C992 0.928 . S
O961 Co945 2.057 . S
O961 C949 1.232 . S
H962 C981 0.929 . S
H963 C982 0.929 . S
H964 C994 0.931 . S
H965 C986 0.929 . S
H966 C995 0.930 . S
H967 C987 0.931 . S
O968 Co944 2.097 . S
O968 C996 1.214 . S
H969 C997 0.929 . S
H970 C998 0.929 . S
H971 C999 0.930 . S
H972 C1000 0.929 . S
H973 C1002 0.930 . S
H974 C979 0.930 . S
H975 C983 0.930 . S
O976 Co945 2.037 . S
O976 C996 1.234 . S
C977 O951 1.269 . S
C977 O952 1.257 . S
C978 H953 0.930 . S
C978 C981 1.388 . S
C978 C983 1.418 . S
C979 H974 0.930 . S
C979 C982 1.404 . S
C979 C983 1.353 . S
N980 Co945 2.145 . S
N980 C981 1.397 . S
N980 C982 1.334 . S
C981 H962 0.929 . S
C981 C978 1.388 . S
C981 N980 1.397 . S
C982 H963 0.929 . S
C982 C979 1.404 . S
C982 N980 1.334 . S
C983 H975 0.930 . S
C983 C978 1.418 . S
C983 C979 1.353 . S
C984 H954 0.930 . S
C984 N985 1.330 . S
C984 C986 1.446 . S
N985 Co944 2.151 . S
N985 C984 1.330 . S
N985 C989 1.418 . S
C986 H965 0.929 . S
C986 C984 1.446 . S
C986 C987 1.332 . S
C987 H967 0.931 . S
C987 C986 1.332 . S
C987 C988 1.267 . S
C988 H956 0.929 . S
C988 C987 1.267 . S
C988 C989 1.251 . S
C989 H959 0.929 . S
C989 N985 1.418 . S
C989 C988 1.251 . S
C990 H957 0.930 . S
C990 C992 1.406 . S
C990 C995 1.261 . S
C991 H958 0.930 . S
C991 N993 1.325 . S
C991 C994 1.357 . S
C992 H960 0.928 . S
C992 C990 1.406 . S
C992 N993 1.261 . S
N993 Co944 2.214 . S
N993 C991 1.325 . S
N993 C992 1.261 . S
C994 H964 0.931 . S
C994 C991 1.357 . S
C994 C995 1.312 . S
C995 H966 0.930 . S
C995 C990 1.261 . S
C995 C994 1.312 . S
C996 O968 1.214 . S
C996 O976 1.234 . S
C997 H969 0.929 . S
C997 C1000 1.391 . S
C997 C1002 1.391 . S
C998 H970 0.929 . S
C998 C999 1.390 . S
C998 N1001 1.391 . S
C999 H971 0.930 . S
C999 C998 1.390 . S
C999 C1000 1.392 . S
C1000 H972 0.929 . S
C1000 C997 1.391 . S
C1000 C999 1.392 . S
N1001 Co945 2.257 . S
N1001 C998 1.391 . S
N1001 C1002 1.388 . S
C1002 H973 0.930 . S
C1002 C997 1.391 . S
C1002 N1001 1.388 . S
Co1003 O1005 2.143 . S
Co1003 O1011 2.074 . S
Co1003 O1014 2.093 . S
Co1003 O1027 2.097 . S
Co1003 N1044 2.151 . S
Co1003 N1052 2.214 . S
Co1004 O1005 2.160 . S
Co1004 O1010 2.058 . S
Co1004 O1020 2.057 . S
Co1004 O1035 2.037 . S
Co1004 N1039 2.145 . S
Co1004 N1060 2.257 . S
O1005 Co1003 2.143 . S
O1005 Co1004 2.160 . S
C1006 O1007 1.278 . S
C1006 O1014 1.224 . S
O1007 C1006 1.278 . S
C1008 O1009 1.245 . S
C1008 O1020 1.232 . S
O1009 C1008 1.245 . S
O1010 Co1004 2.058 . S
O1010 C1036 1.269 . S
O1011 Co1003 2.074 . S
O1011 C1036 1.257 . S
H1012 C1037 0.930 . S
H1013 C1043 0.930 . S
O1014 Co1003 2.093 . S
O1014 C1006 1.224 . S
H1015 C1047 0.929 . S
H1016 C1049 0.930 . S
H1017 C1050 0.930 . S
H1018 C1048 0.929 . S
H1019 C1051 0.928 . S
O1020 Co1004 2.057 . S
O1020 C1008 1.232 . S
H1021 C1040 0.929 . S
H1022 C1041 0.929 . S
H1023 C1053 0.931 . S
H1024 C1045 0.929 . S
H1025 C1054 0.930 . S
H1026 C1046 0.931 . S
O1027 Co1003 2.097 . S
O1027 C1055 1.214 . S
H1028 C1056 0.929 . S
H1029 C1057 0.929 . S
H1030 C1058 0.930 . S
H1031 C1059 0.929 . S
H1032 C1061 0.930 . S
H1033 C1038 0.930 . S
H1034 C1042 0.930 . S
O1035 Co1004 2.037 . S
O1035 C1055 1.234 . S
C1036 O1010 1.269 . S
C1036 O1011 1.257 . S
C1037 H1012 0.930 . S
C1037 C1040 1.388 . S
C1037 C1042 1.418 . S
C1038 H1033 0.930 . S
C1038 C1041 1.404 . S
C1038 C1042 1.353 . S
N1039 Co1004 2.145 . S
N1039 C1040 1.397 . S
N1039 C1041 1.334 . S
C1040 H1021 0.929 . S
C1040 C1037 1.388 . S
C1040 N1039 1.397 . S
C1041 H1022 0.929 . S
C1041 C1038 1.404 . S
C1041 N1039 1.334 . S
C1042 H1034 0.930 . S
C1042 C1037 1.418 . S
C1042 C1038 1.353 . S
C1043 H1013 0.930 . S
C1043 N1044 1.330 . S
C1043 C1045 1.446 . S
N1044 Co1003 2.151 . S
N1044 C1043 1.330 . S
N1044 C1048 1.418 . S
C1045 H1024 0.929 . S
C1045 C1043 1.446 . S
C1045 C1046 1.332 . S
C1046 H1026 0.931 . S
C1046 C1045 1.332 . S
C1046 C1047 1.267 . S
C1047 H1015 0.929 . S
C1047 C1046 1.267 . S
C1047 C1048 1.251 . S
C1048 H1018 0.929 . S
C1048 N1044 1.418 . S
C1048 C1047 1.251 . S
C1049 H1016 0.930 . S
C1049 C1051 1.406 . S
C1049 C1054 1.261 . S
C1050 H1017 0.930 . S
C1050 N1052 1.325 . S
C1050 C1053 1.357 . S
C1051 H1019 0.928 . S
C1051 C1049 1.406 . S
C1051 N1052 1.261 . S
N1052 Co1003 2.214 . S
N1052 C1050 1.325 . S
N1052 C1051 1.261 . S
C1053 H1023 0.931 . S
C1053 C1050 1.357 . S
C1053 C1054 1.312 . S
C1054 H1025 0.930 . S
C1054 C1049 1.261 . S
C1054 C1053 1.312 . S
C1055 O1027 1.214 . S
C1055 O1035 1.234 . S
C1056 H1028 0.929 . S
C1056 C1059 1.391 . S
C1056 C1061 1.391 . S
C1057 H1029 0.929 . S
C1057 C1058 1.390 . S
C1057 N1060 1.391 . S
C1058 H1030 0.930 . S
C1058 C1057 1.390 . S
C1058 C1059 1.392 . S
C1059 H1031 0.929 . S
C1059 C1056 1.391 . S
C1059 C1058 1.392 . S
N1060 Co1004 2.257 . S
N1060 C1057 1.391 . S
N1060 C1061 1.388 . S
C1061 H1032 0.930 . S
C1061 C1056 1.391 . S
C1061 N1060 1.388 . S
Co1062 O1064 2.143 . S
Co1062 O1070 2.074 . S
Co1062 O1073 2.093 . S
Co1062 O1086 2.097 . S
Co1062 N1103 2.151 . S
Co1062 N1111 2.214 . S
Co1063 O1064 2.160 . S
Co1063 O1069 2.058 . S
Co1063 O1079 2.057 . S
Co1063 O1094 2.037 . S
Co1063 N1098 2.145 . S
Co1063 N1119 2.257 . S
O1064 Co1062 2.143 . S
O1064 Co1063 2.160 . S
C1065 O1066 1.278 . S
C1065 O1073 1.224 . S
O1066 C1065 1.278 . S
C1067 O1068 1.245 . S
C1067 O1079 1.232 . S
O1068 C1067 1.245 . S
O1069 Co1063 2.058 . S
O1069 C1095 1.269 . S
O1070 Co1062 2.074 . S
O1070 C1095 1.257 . S
H1071 C1096 0.930 . S
H1072 C1102 0.930 . S
O1073 Co1062 2.093 . S
O1073 C1065 1.224 . S
H1074 C1106 0.929 . S
H1075 C1108 0.930 . S
H1076 C1109 0.930 . S
H1077 C1107 0.929 . S
H1078 C1110 0.928 . S
O1079 Co1063 2.057 . S
O1079 C1067 1.232 . S
H1080 C1099 0.929 . S
H1081 C1100 0.929 . S
H1082 C1112 0.931 . S
H1083 C1104 0.929 . S
H1084 C1113 0.930 . S
H1085 C1105 0.931 . S
O1086 Co1062 2.097 . S
O1086 C1114 1.214 . S
H1087 C1115 0.929 . S
H1088 C1116 0.929 . S
H1089 C1117 0.930 . S
H1090 C1118 0.929 . S
H1091 C1120 0.930 . S
H1092 C1097 0.930 . S
H1093 C1101 0.930 . S
O1094 Co1063 2.037 . S
O1094 C1114 1.234 . S
C1095 O1069 1.269 . S
C1095 O1070 1.257 . S
C1096 H1071 0.930 . S
C1096 C1099 1.388 . S
C1096 C1101 1.418 . S
C1097 H1092 0.930 . S
C1097 C1100 1.404 . S
C1097 C1101 1.353 . S
N1098 Co1063 2.145 . S
N1098 C1099 1.397 . S
N1098 C1100 1.334 . S
C1099 H1080 0.929 . S
C1099 C1096 1.388 . S
C1099 N1098 1.397 . S
C1100 H1081 0.929 . S
C1100 C1097 1.404 . S
C1100 N1098 1.334 . S
C1101 H1093 0.930 . S
C1101 C1096 1.418 . S
C1101 C1097 1.353 . S
C1102 H1072 0.930 . S
C1102 N1103 1.330 . S
C1102 C1104 1.446 . S
N1103 Co1062 2.151 . S
N1103 C1102 1.330 . S
N1103 C1107 1.418 . S
C1104 H1083 0.929 . S
C1104 C1102 1.446 . S
C1104 C1105 1.332 . S
C1105 H1085 0.931 . S
C1105 C1104 1.332 . S
C1105 C1106 1.267 . S
C1106 H1074 0.929 . S
C1106 C1105 1.267 . S
C1106 C1107 1.251 . S
C1107 H1077 0.929 . S
C1107 N1103 1.418 . S
C1107 C1106 1.251 . S
C1108 H1075 0.930 . S
C1108 C1110 1.406 . S
C1108 C1113 1.261 . S
C1109 H1076 0.930 . S
C1109 N1111 1.325 . S
C1109 C1112 1.357 . S
C1110 H1078 0.928 . S
C1110 C1108 1.406 . S
C1110 N1111 1.261 . S
N1111 Co1062 2.214 . S
N1111 C1109 1.325 . S
N1111 C1110 1.261 . S
C1112 H1082 0.931 . S
C1112 C1109 1.357 . S
C1112 C1113 1.312 . S
C1113 H1084 0.930 . S
C1113 C1108 1.261 . S
C1113 C1112 1.312 . S
C1114 O1086 1.214 . S
C1114 O1094 1.234 . S
C1115 H1087 0.929 . S
C1115 C1118 1.391 . S
C1115 C1120 1.391 . S
C1116 H1088 0.929 . S
C1116 C1117 1.390 . S
C1116 N1119 1.391 . S
C1117 H1089 0.930 . S
C1117 C1116 1.390 . S
C1117 C1118 1.392 . S
C1118 H1090 0.929 . S
C1118 C1115 1.391 . S
C1118 C1117 1.392 . S
N1119 Co1063 2.257 . S
N1119 C1116 1.391 . S
N1119 C1120 1.388 . S
C1120 H1091 0.930 . S
C1120 C1115 1.391 . S
C1120 N1119 1.388 . S
Co1121 O1123 2.143 . S
Co1121 O1129 2.074 . S
Co1121 O1132 2.093 . S
Co1121 O1145 2.097 . S
Co1121 N1162 2.151 . S
Co1121 N1170 2.214 . S
Co1122 O1123 2.160 . S
Co1122 O1128 2.058 . S
Co1122 O1138 2.057 . S
Co1122 O1153 2.037 . S
Co1122 N1157 2.145 . S
Co1122 N1178 2.257 . S
O1123 Co1121 2.143 . S
O1123 Co1122 2.160 . S
C1124 O1125 1.278 . S
C1124 O1132 1.224 . S
O1125 C1124 1.278 . S
C1126 O1127 1.245 . S
C1126 O1138 1.232 . S
O1127 C1126 1.245 . S
O1128 Co1122 2.058 . S
O1128 C1154 1.269 . S
O1129 Co1121 2.074 . S
O1129 C1154 1.257 . S
H1130 C1155 0.930 . S
H1131 C1161 0.930 . S
O1132 Co1121 2.093 . S
O1132 C1124 1.224 . S
H1133 C1165 0.929 . S
H1134 C1167 0.930 . S
H1135 C1168 0.930 . S
H1136 C1166 0.929 . S
H1137 C1169 0.928 . S
O1138 Co1122 2.057 . S
O1138 C1126 1.232 . S
H1139 C1158 0.929 . S
H1140 C1159 0.929 . S
H1141 C1171 0.931 . S
H1142 C1163 0.929 . S
H1143 C1172 0.930 . S
H1144 C1164 0.931 . S
O1145 Co1121 2.097 . S
O1145 C1173 1.214 . S
H1146 C1174 0.929 . S
H1147 C1175 0.929 . S
H1148 C1176 0.930 . S
H1149 C1177 0.929 . S
H1150 C1179 0.930 . S
H1151 C1156 0.930 . S
H1152 C1160 0.930 . S
O1153 Co1122 2.037 . S
O1153 C1173 1.234 . S
C1154 O1128 1.269 . S
C1154 O1129 1.257 . S
C1155 H1130 0.930 . S
C1155 C1158 1.388 . S
C1155 C1160 1.418 . S
C1156 H1151 0.930 . S
C1156 C1159 1.404 . S
C1156 C1160 1.353 . S
N1157 Co1122 2.145 . S
N1157 C1158 1.397 . S
N1157 C1159 1.334 . S
C1158 H1139 0.929 . S
C1158 C1155 1.388 . S
C1158 N1157 1.397 . S
C1159 H1140 0.929 . S
C1159 C1156 1.404 . S
C1159 N1157 1.334 . S
C1160 H1152 0.930 . S
C1160 C1155 1.418 . S
C1160 C1156 1.353 . S
C1161 H1131 0.930 . S
C1161 N1162 1.330 . S
C1161 C1163 1.446 . S
N1162 Co1121 2.151 . S
N1162 C1161 1.330 . S
N1162 C1166 1.418 . S
C1163 H1142 0.929 . S
C1163 C1161 1.446 . S
C1163 C1164 1.332 . S
C1164 H1144 0.931 . S
C1164 C1163 1.332 . S
C1164 C1165 1.267 . S
C1165 H1133 0.929 . S
C1165 C1164 1.267 . S
C1165 C1166 1.251 . S
C1166 H1136 0.929 . S
C1166 N1162 1.418 . S
C1166 C1165 1.251 . S
C1167 H1134 0.930 . S
C1167 C1169 1.406 . S
C1167 C1172 1.261 . S
C1168 H1135 0.930 . S
C1168 N1170 1.325 . S
C1168 C1171 1.357 . S
C1169 H1137 0.928 . S
C1169 C1167 1.406 . S
C1169 N1170 1.261 . S
N1170 Co1121 2.214 . S
N1170 C1168 1.325 . S
N1170 C1169 1.261 . S
C1171 H1141 0.931 . S
C1171 C1168 1.357 . S
C1171 C1172 1.312 . S
C1172 H1143 0.930 . S
C1172 C1167 1.261 . S
C1172 C1171 1.312 . S
C1173 O1145 1.214 . S
C1173 O1153 1.234 . S
C1174 H1146 0.929 . S
C1174 C1177 1.391 . S
C1174 C1179 1.391 . S
C1175 H1147 0.929 . S
C1175 C1176 1.390 . S
C1175 N1178 1.391 . S
C1176 H1148 0.930 . S
C1176 C1175 1.390 . S
C1176 C1177 1.392 . S
C1177 H1149 0.929 . S
C1177 C1174 1.391 . S
C1177 C1176 1.392 . S
N1178 Co1122 2.257 . S
N1178 C1175 1.391 . S
N1178 C1179 1.388 . S
C1179 H1150 0.930 . S
C1179 C1174 1.391 . S
C1179 N1178 1.388 . S
Co1180 O1182 2.143 . S
Co1180 O1188 2.074 . S
Co1180 O1191 2.093 . S
Co1180 O1204 2.097 . S
Co1180 N1221 2.151 . S
Co1180 N1229 2.214 . S
Co1181 O1182 2.160 . S
Co1181 O1187 2.058 . S
Co1181 O1197 2.057 . S
Co1181 O1212 2.037 . S
Co1181 N1216 2.145 . S
Co1181 N1237 2.257 . S
O1182 Co1180 2.143 . S
O1182 Co1181 2.160 . S
C1183 O1184 1.278 . S
C1183 O1191 1.224 . S
O1184 C1183 1.278 . S
C1185 O1186 1.245 . S
C1185 O1197 1.232 . S
O1186 C1185 1.245 . S
O1187 Co1181 2.058 . S
O1187 C1213 1.269 . S
O1188 Co1180 2.074 . S
O1188 C1213 1.257 . S
H1189 C1214 0.930 . S
H1190 C1220 0.930 . S
O1191 Co1180 2.093 . S
O1191 C1183 1.224 . S
H1192 C1224 0.929 . S
H1193 C1226 0.930 . S
H1194 C1227 0.930 . S
H1195 C1225 0.929 . S
H1196 C1228 0.928 . S
O1197 Co1181 2.057 . S
O1197 C1185 1.232 . S
H1198 C1217 0.929 . S
H1199 C1218 0.929 . S
H1200 C1230 0.931 . S
H1201 C1222 0.929 . S
H1202 C1231 0.930 . S
H1203 C1223 0.931 . S
O1204 Co1180 2.097 . S
O1204 C1232 1.214 . S
H1205 C1233 0.929 . S
H1206 C1234 0.929 . S
H1207 C1235 0.930 . S
H1208 C1236 0.929 . S
H1209 C1238 0.930 . S
H1210 C1215 0.930 . S
H1211 C1219 0.930 . S
O1212 Co1181 2.037 . S
O1212 C1232 1.234 . S
C1213 O1187 1.269 . S
C1213 O1188 1.257 . S
C1214 H1189 0.930 . S
C1214 C1217 1.388 . S
C1214 C1219 1.418 . S
C1215 H1210 0.930 . S
C1215 C1218 1.404 . S
C1215 C1219 1.353 . S
N1216 Co1181 2.145 . S
N1216 C1217 1.397 . S
N1216 C1218 1.334 . S
C1217 H1198 0.929 . S
C1217 C1214 1.388 . S
C1217 N1216 1.397 . S
C1218 H1199 0.929 . S
C1218 C1215 1.404 . S
C1218 N1216 1.334 . S
C1219 H1211 0.930 . S
C1219 C1214 1.418 . S
C1219 C1215 1.353 . S
C1220 H1190 0.930 . S
C1220 N1221 1.330 . S
C1220 C1222 1.446 . S
N1221 Co1180 2.151 . S
N1221 C1220 1.330 . S
N1221 C1225 1.418 . S
C1222 H1201 0.929 . S
C1222 C1220 1.446 . S
C1222 C1223 1.332 . S
C1223 H1203 0.931 . S
C1223 C1222 1.332 . S
C1223 C1224 1.267 . S
C1224 H1192 0.929 . S
C1224 C1223 1.267 . S
C1224 C1225 1.251 . S
C1225 H1195 0.929 . S
C1225 N1221 1.418 . S
C1225 C1224 1.251 . S
C1226 H1193 0.930 . S
C1226 C1228 1.406 . S
C1226 C1231 1.261 . S
C1227 H1194 0.930 . S
C1227 N1229 1.325 . S
C1227 C1230 1.357 . S
C1228 H1196 0.928 . S
C1228 C1226 1.406 . S
C1228 N1229 1.261 . S
N1229 Co1180 2.214 . S
N1229 C1227 1.325 . S
N1229 C1228 1.261 . S
C1230 H1200 0.931 . S
C1230 C1227 1.357 . S
C1230 C1231 1.312 . S
C1231 H1202 0.930 . S
C1231 C1226 1.261 . S
C1231 C1230 1.312 . S
C1232 O1204 1.214 . S
C1232 O1212 1.234 . S
C1233 H1205 0.929 . S
C1233 C1236 1.391 . S
C1233 C1238 1.391 . S
C1234 H1206 0.929 . S
C1234 C1235 1.390 . S
C1234 N1237 1.391 . S
C1235 H1207 0.930 . S
C1235 C1234 1.390 . S
C1235 C1236 1.392 . S
C1236 H1208 0.929 . S
C1236 C1233 1.391 . S
C1236 C1235 1.392 . S
N1237 Co1181 2.257 . S
N1237 C1234 1.391 . S
N1237 C1238 1.388 . S
C1238 H1209 0.930 . S
C1238 C1233 1.391 . S
C1238 N1237 1.388 . S
Co1239 O1241 2.143 . S
Co1239 O1247 2.074 . S
Co1239 O1250 2.093 . S
Co1239 O1263 2.097 . S
Co1239 N1280 2.151 . S
Co1239 N1288 2.214 . S
Co1240 O1241 2.160 . S
Co1240 O1246 2.058 . S
Co1240 O1256 2.057 . S
Co1240 O1271 2.037 . S
Co1240 N1275 2.145 . S
Co1240 N1296 2.257 . S
O1241 Co1239 2.143 . S
O1241 Co1240 2.160 . S
C1242 O1243 1.278 . S
C1242 O1250 1.224 . S
O1243 C1242 1.278 . S
C1244 O1245 1.245 . S
C1244 O1256 1.232 . S
O1245 C1244 1.245 . S
O1246 Co1240 2.058 . S
O1246 C1272 1.269 . S
O1247 Co1239 2.074 . S
O1247 C1272 1.257 . S
H1248 C1273 0.930 . S
H1249 C1279 0.930 . S
O1250 Co1239 2.093 . S
O1250 C1242 1.224 . S
H1251 C1283 0.929 . S
H1252 C1285 0.930 . S
H1253 C1286 0.930 . S
H1254 C1284 0.929 . S
H1255 C1287 0.928 . S
O1256 Co1240 2.057 . S
O1256 C1244 1.232 . S
H1257 C1276 0.929 . S
H1258 C1277 0.929 . S
H1259 C1289 0.931 . S
H1260 C1281 0.929 . S
H1261 C1290 0.930 . S
H1262 C1282 0.931 . S
O1263 Co1239 2.097 . S
O1263 C1291 1.214 . S
H1264 C1292 0.929 . S
H1265 C1293 0.929 . S
H1266 C1294 0.930 . S
H1267 C1295 0.929 . S
H1268 C1297 0.930 . S
H1269 C1274 0.930 . S
H1270 C1278 0.930 . S
O1271 Co1240 2.037 . S
O1271 C1291 1.234 . S
C1272 O1246 1.269 . S
C1272 O1247 1.257 . S
C1273 H1248 0.930 . S
C1273 C1276 1.388 . S
C1273 C1278 1.418 . S
C1274 H1269 0.930 . S
C1274 C1277 1.404 . S
C1274 C1278 1.353 . S
N1275 Co1240 2.145 . S
N1275 C1276 1.397 . S
N1275 C1277 1.334 . S
C1276 H1257 0.929 . S
C1276 C1273 1.388 . S
C1276 N1275 1.397 . S
C1277 H1258 0.929 . S
C1277 C1274 1.404 . S
C1277 N1275 1.334 . S
C1278 H1270 0.930 . S
C1278 C1273 1.418 . S
C1278 C1274 1.353 . S
C1279 H1249 0.930 . S
C1279 N1280 1.330 . S
C1279 C1281 1.446 . S
N1280 Co1239 2.151 . S
N1280 C1279 1.330 . S
N1280 C1284 1.418 . S
C1281 H1260 0.929 . S
C1281 C1279 1.446 . S
C1281 C1282 1.332 . S
C1282 H1262 0.931 . S
C1282 C1281 1.332 . S
C1282 C1283 1.267 . S
C1283 H1251 0.929 . S
C1283 C1282 1.267 . S
C1283 C1284 1.251 . S
C1284 H1254 0.929 . S
C1284 N1280 1.418 . S
C1284 C1283 1.251 . S
C1285 H1252 0.930 . S
C1285 C1287 1.406 . S
C1285 C1290 1.261 . S
C1286 H1253 0.930 . S
C1286 N1288 1.325 . S
C1286 C1289 1.357 . S
C1287 H1255 0.928 . S
C1287 C1285 1.406 . S
C1287 N1288 1.261 . S
N1288 Co1239 2.214 . S
N1288 C1286 1.325 . S
N1288 C1287 1.261 . S
C1289 H1259 0.931 . S
C1289 C1286 1.357 . S
C1289 C1290 1.312 . S
C1290 H1261 0.930 . S
C1290 C1285 1.261 . S
C1290 C1289 1.312 . S
C1291 O1263 1.214 . S
C1291 O1271 1.234 . S
C1292 H1264 0.929 . S
C1292 C1295 1.391 . S
C1292 C1297 1.391 . S
C1293 H1265 0.929 . S
C1293 C1294 1.390 . S
C1293 N1296 1.391 . S
C1294 H1266 0.930 . S
C1294 C1293 1.390 . S
C1294 C1295 1.392 . S
C1295 H1267 0.929 . S
C1295 C1292 1.391 . S
C1295 C1294 1.392 . S
N1296 Co1240 2.257 . S
N1296 C1293 1.391 . S
N1296 C1297 1.388 . S
C1297 H1268 0.930 . S
C1297 C1292 1.391 . S
C1297 N1296 1.388 . S
Co1298 O1300 2.143 . S
Co1298 O1306 2.074 . S
Co1298 O1309 2.093 . S
Co1298 O1322 2.097 . S
Co1298 N1339 2.151 . S
Co1298 N1347 2.214 . S
Co1299 O1300 2.160 . S
Co1299 O1305 2.058 . S
Co1299 O1315 2.057 . S
Co1299 O1330 2.037 . S
Co1299 N1334 2.145 . S
Co1299 N1355 2.257 . S
O1300 Co1298 2.143 . S
O1300 Co1299 2.160 . S
C1301 O1302 1.278 . S
C1301 O1309 1.224 . S
O1302 C1301 1.278 . S
C1303 O1304 1.245 . S
C1303 O1315 1.232 . S
O1304 C1303 1.245 . S
O1305 Co1299 2.058 . S
O1305 C1331 1.269 . S
O1306 Co1298 2.074 . S
O1306 C1331 1.257 . S
H1307 C1332 0.930 . S
H1308 C1338 0.930 . S
O1309 Co1298 2.093 . S
O1309 C1301 1.224 . S
H1310 C1342 0.929 . S
H1311 C1344 0.930 . S
H1312 C1345 0.930 . S
H1313 C1343 0.929 . S
H1314 C1346 0.928 . S
O1315 Co1299 2.057 . S
O1315 C1303 1.232 . S
H1316 C1335 0.929 . S
H1317 C1336 0.929 . S
H1318 C1348 0.931 . S
H1319 C1340 0.929 . S
H1320 C1349 0.930 . S
H1321 C1341 0.931 . S
O1322 Co1298 2.097 . S
O1322 C1350 1.214 . S
H1323 C1351 0.929 . S
H1324 C1352 0.929 . S
H1325 C1353 0.930 . S
H1326 C1354 0.929 . S
H1327 C1356 0.930 . S
H1328 C1333 0.930 . S
H1329 C1337 0.930 . S
O1330 Co1299 2.037 . S
O1330 C1350 1.234 . S
C1331 O1305 1.269 . S
C1331 O1306 1.257 . S
C1332 H1307 0.930 . S
C1332 C1335 1.388 . S
C1332 C1337 1.418 . S
C1333 H1328 0.930 . S
C1333 C1336 1.404 . S
C1333 C1337 1.353 . S
N1334 Co1299 2.145 . S
N1334 C1335 1.397 . S
N1334 C1336 1.334 . S
C1335 H1316 0.929 . S
C1335 C1332 1.388 . S
C1335 N1334 1.397 . S
C1336 H1317 0.929 . S
C1336 C1333 1.404 . S
C1336 N1334 1.334 . S
C1337 H1329 0.930 . S
C1337 C1332 1.418 . S
C1337 C1333 1.353 . S
C1338 H1308 0.930 . S
C1338 N1339 1.330 . S
C1338 C1340 1.446 . S
N1339 Co1298 2.151 . S
N1339 C1338 1.330 . S
N1339 C1343 1.418 . S
C1340 H1319 0.929 . S
C1340 C1338 1.446 . S
C1340 C1341 1.332 . S
C1341 H1321 0.931 . S
C1341 C1340 1.332 . S
C1341 C1342 1.267 . S
C1342 H1310 0.929 . S
C1342 C1341 1.267 . S
C1342 C1343 1.251 . S
C1343 H1313 0.929 . S
C1343 N1339 1.418 . S
C1343 C1342 1.251 . S
C1344 H1311 0.930 . S
C1344 C1346 1.406 . S
C1344 C1349 1.261 . S
C1345 H1312 0.930 . S
C1345 N1347 1.325 . S
C1345 C1348 1.357 . S
C1346 H1314 0.928 . S
C1346 C1344 1.406 . S
C1346 N1347 1.261 . S
N1347 Co1298 2.214 . S
N1347 C1345 1.325 . S
N1347 C1346 1.261 . S
C1348 H1318 0.931 . S
C1348 C1345 1.357 . S
C1348 C1349 1.312 . S
C1349 H1320 0.930 . S
C1349 C1344 1.261 . S
C1349 C1348 1.312 . S
C1350 O1322 1.214 . S
C1350 O1330 1.234 . S
C1351 H1323 0.929 . S
C1351 C1354 1.391 . S
C1351 C1356 1.391 . S
C1352 H1324 0.929 . S
C1352 C1353 1.390 . S
C1352 N1355 1.391 . S
C1353 H1325 0.930 . S
C1353 C1352 1.390 . S
C1353 C1354 1.392 . S
C1354 H1326 0.929 . S
C1354 C1351 1.391 . S
C1354 C1353 1.392 . S
N1355 Co1299 2.257 . S
N1355 C1352 1.391 . S
N1355 C1356 1.388 . S
C1356 H1327 0.930 . S
C1356 C1351 1.391 . S
C1356 N1355 1.388 . S
Co1357 O1359 2.143 . S
Co1357 O1365 2.074 . S
Co1357 O1368 2.093 . S
Co1357 O1381 2.097 . S
Co1357 N1398 2.151 . S
Co1357 N1406 2.214 . S
Co1358 O1359 2.160 . S
Co1358 O1364 2.058 . S
Co1358 O1374 2.057 . S
Co1358 O1389 2.037 . S
Co1358 N1393 2.145 . S
Co1358 N1414 2.257 . S
O1359 Co1357 2.143 . S
O1359 Co1358 2.160 . S
C1360 O1361 1.278 . S
C1360 O1368 1.224 . S
O1361 C1360 1.278 . S
C1362 O1363 1.245 . S
C1362 O1374 1.232 . S
O1363 C1362 1.245 . S
O1364 Co1358 2.058 . S
O1364 C1390 1.269 . S
O1365 Co1357 2.074 . S
O1365 C1390 1.257 . S
H1366 C1391 0.930 . S
H1367 C1397 0.930 . S
O1368 Co1357 2.093 . S
O1368 C1360 1.224 . S
H1369 C1401 0.929 . S
H1370 C1403 0.930 . S
H1371 C1404 0.930 . S
H1372 C1402 0.929 . S
H1373 C1405 0.928 . S
O1374 Co1358 2.057 . S
O1374 C1362 1.232 . S
H1375 C1394 0.929 . S
H1376 C1395 0.929 . S
H1377 C1407 0.931 . S
H1378 C1399 0.929 . S
H1379 C1408 0.930 . S
H1380 C1400 0.931 . S
O1381 Co1357 2.097 . S
O1381 C1409 1.214 . S
H1382 C1410 0.929 . S
H1383 C1411 0.929 . S
H1384 C1412 0.930 . S
H1385 C1413 0.929 . S
H1386 C1415 0.930 . S
H1387 C1392 0.930 . S
H1388 C1396 0.930 . S
O1389 Co1358 2.037 . S
O1389 C1409 1.234 . S
C1390 O1364 1.269 . S
C1390 O1365 1.257 . S
C1391 H1366 0.930 . S
C1391 C1394 1.388 . S
C1391 C1396 1.418 . S
C1392 H1387 0.930 . S
C1392 C1395 1.404 . S
C1392 C1396 1.353 . S
N1393 Co1358 2.145 . S
N1393 C1394 1.397 . S
N1393 C1395 1.334 . S
C1394 H1375 0.929 . S
C1394 C1391 1.388 . S
C1394 N1393 1.397 . S
C1395 H1376 0.929 . S
C1395 C1392 1.404 . S
C1395 N1393 1.334 . S
C1396 H1388 0.930 . S
C1396 C1391 1.418 . S
C1396 C1392 1.353 . S
C1397 H1367 0.930 . S
C1397 N1398 1.330 . S
C1397 C1399 1.446 . S
N1398 Co1357 2.151 . S
N1398 C1397 1.330 . S
N1398 C1402 1.418 . S
C1399 H1378 0.929 . S
C1399 C1397 1.446 . S
C1399 C1400 1.332 . S
C1400 H1380 0.931 . S
C1400 C1399 1.332 . S
C1400 C1401 1.267 . S
C1401 H1369 0.929 . S
C1401 C1400 1.267 . S
C1401 C1402 1.251 . S
C1402 H1372 0.929 . S
C1402 N1398 1.418 . S
C1402 C1401 1.251 . S
C1403 H1370 0.930 . S
C1403 C1405 1.406 . S
C1403 C1408 1.261 . S
C1404 H1371 0.930 . S
C1404 N1406 1.325 . S
C1404 C1407 1.357 . S
C1405 H1373 0.928 . S
C1405 C1403 1.406 . S
C1405 N1406 1.261 . S
N1406 Co1357 2.214 . S
N1406 C1404 1.325 . S
N1406 C1405 1.261 . S
C1407 H1377 0.931 . S
C1407 C1404 1.357 . S
C1407 C1408 1.312 . S
C1408 H1379 0.930 . S
C1408 C1403 1.261 . S
C1408 C1407 1.312 . S
C1409 O1381 1.214 . S
C1409 O1389 1.234 . S
C1410 H1382 0.929 . S
C1410 C1413 1.391 . S
C1410 C1415 1.391 . S
C1411 H1383 0.929 . S
C1411 C1412 1.390 . S
C1411 N1414 1.391 . S
C1412 H1384 0.930 . S
C1412 C1411 1.390 . S
C1412 C1413 1.392 . S
C1413 H1385 0.929 . S
C1413 C1410 1.391 . S
C1413 C1412 1.392 . S
N1414 Co1358 2.257 . S
N1414 C1411 1.391 . S
N1414 C1415 1.388 . S
C1415 H1386 0.930 . S
C1415 C1410 1.391 . S
C1415 N1414 1.388 . S
H1416 C1422 0.930 . S
H1417 C1425 0.930 . S
H1418 C1426 0.930 . S
H1419 C1427 0.930 . S
H1420 C1430 0.930 . S
H1421 C1431 0.930 . S
C1422 H1416 0.930 . S
C1422 C1423 1.355 . S
C1422 C1424 1.415 . S
C1423 C1422 1.355 . S
C1423 C1425 1.419 . S
C1424 C1422 1.415 . S
C1424 C1429 1.425 . S
C1424 C1431 1.409 . S
C1425 H1417 0.930 . S
C1425 C1423 1.419 . S
C1425 C1426 1.362 . S
C1426 H1418 0.930 . S
C1426 C1425 1.362 . S
C1426 C1429 1.409 . S
C1427 H1419 0.930 . S
C1427 C1428 1.355 . S
C1427 C1429 1.415 . S
C1428 C1427 1.355 . S
C1428 C1430 1.419 . S
C1429 C1424 1.425 . S
C1429 C1426 1.409 . S
C1429 C1427 1.415 . S
C1430 H1420 0.930 . S
C1430 C1428 1.419 . S
C1430 C1431 1.362 . S
C1431 H1421 0.930 . S
C1431 C1424 1.409 . S
C1431 C1430 1.362 . S
H1432 C1438 0.930 . S
H1433 C1441 0.930 . S
H1434 C1442 0.930 . S
H1435 C1443 0.930 . S
H1436 C1446 0.930 . S
H1437 C1447 0.930 . S
C1438 H1432 0.930 . S
C1438 C1439 1.355 . S
C1438 C1440 1.415 . S
C1439 C1438 1.355 . S
C1439 C1441 1.419 . S
C1440 C1438 1.415 . S
C1440 C1445 1.425 . S
C1440 C1447 1.409 . S
C1441 H1433 0.930 . S
C1441 C1439 1.419 . S
C1441 C1442 1.362 . S
C1442 H1434 0.930 . S
C1442 C1441 1.362 . S
C1442 C1445 1.409 . S
C1443 H1435 0.930 . S
C1443 C1444 1.355 . S
C1443 C1445 1.415 . S
C1444 C1443 1.355 . S
C1444 C1446 1.419 . S
C1445 C1440 1.425 . S
C1445 C1442 1.409 . S
C1445 C1443 1.415 . S
C1446 H1436 0.930 . S
C1446 C1444 1.419 . S
C1446 C1447 1.362 . S
C1447 H1437 0.930 . S
C1447 C1440 1.409 . S
C1447 C1446 1.362 . S
H1448 C1454 0.930 . S
H1449 C1457 0.930 . S
H1450 C1458 0.930 . S
H1451 C1459 0.930 . S
H1452 C1462 0.930 . S
H1453 C1463 0.930 . S
C1454 H1448 0.930 . S
C1454 C1455 1.355 . S
C1454 C1456 1.415 . S
C1455 C1454 1.355 . S
C1455 C1457 1.419 . S
C1456 C1454 1.415 . S
C1456 C1461 1.425 . S
C1456 C1463 1.409 . S
C1457 H1449 0.930 . S
C1457 C1455 1.419 . S
C1457 C1458 1.362 . S
C1458 H1450 0.930 . S
C1458 C1457 1.362 . S
C1458 C1461 1.409 . S
C1459 H1451 0.930 . S
C1459 C1460 1.355 . S
C1459 C1461 1.415 . S
C1460 C1459 1.355 . S
C1460 C1462 1.419 . S
C1461 C1456 1.425 . S
C1461 C1458 1.409 . S
C1461 C1459 1.415 . S
C1462 H1452 0.930 . S
C1462 C1460 1.419 . S
C1462 C1463 1.362 . S
C1463 H1453 0.930 . S
C1463 C1456 1.409 . S
C1463 C1462 1.362 . S
H1464 C1470 0.930 . S
H1465 C1473 0.930 . S
H1466 C1474 0.930 . S
H1467 C1475 0.930 . S
H1468 C1478 0.930 . S
H1469 C1479 0.930 . S
C1470 H1464 0.930 . S
C1470 C1471 1.355 . S
C1470 C1472 1.415 . S
C1471 C1470 1.355 . S
C1471 C1473 1.419 . S
C1472 C1470 1.415 . S
C1472 C1477 1.425 . S
C1472 C1479 1.409 . S
C1473 H1465 0.930 . S
C1473 C1471 1.419 . S
C1473 C1474 1.362 . S
C1474 H1466 0.930 . S
C1474 C1473 1.362 . S
C1474 C1477 1.409 . S
C1475 H1467 0.930 . S
C1475 C1476 1.355 . S
C1475 C1477 1.415 . S
C1476 C1475 1.355 . S
C1476 C1478 1.419 . S
C1477 C1472 1.425 . S
C1477 C1474 1.409 . S
C1477 C1475 1.415 . S
C1478 H1468 0.930 . S
C1478 C1476 1.419 . S
C1478 C1479 1.362 . S
C1479 H1469 0.930 . S
C1479 C1472 1.409 . S
C1479 C1478 1.362 . S
H1480 C1486 0.930 . S
H1481 C1489 0.930 . S
H1482 C1490 0.930 . S
H1483 C1491 0.930 . S
H1484 C1494 0.930 . S
H1485 C1495 0.930 . S
C1486 H1480 0.930 . S
C1486 C1487 1.355 . S
C1486 C1488 1.415 . S
C1487 C1486 1.355 . S
C1487 C1489 1.419 . S
C1488 C1486 1.415 . S
C1488 C1493 1.425 . S
C1488 C1495 1.409 . S
C1489 H1481 0.930 . S
C1489 C1487 1.419 . S
C1489 C1490 1.362 . S
C1490 H1482 0.930 . S
C1490 C1489 1.362 . S
C1490 C1493 1.409 . S
C1491 H1483 0.930 . S
C1491 C1492 1.355 . S
C1491 C1493 1.415 . S
C1492 C1491 1.355 . S
C1492 C1494 1.419 . S
C1493 C1488 1.425 . S
C1493 C1490 1.409 . S
C1493 C1491 1.415 . S
C1494 H1484 0.930 . S
C1494 C1492 1.419 . S
C1494 C1495 1.362 . S
C1495 H1485 0.930 . S
C1495 C1488 1.409 . S
C1495 C1494 1.362 . S
H1496 C1502 0.930 . S
H1497 C1505 0.930 . S
H1498 C1506 0.930 . S
H1499 C1507 0.930 . S
H1500 C1510 0.930 . S
H1501 C1511 0.930 . S
C1502 H1496 0.930 . S
C1502 C1503 1.355 . S
C1502 C1504 1.415 . S
C1503 C1502 1.355 . S
C1503 C1505 1.419 . S
C1504 C1502 1.415 . S
C1504 C1509 1.425 . S
C1504 C1511 1.409 . S
C1505 H1497 0.930 . S
C1505 C1503 1.419 . S
C1505 C1506 1.362 . S
C1506 H1498 0.930 . S
C1506 C1505 1.362 . S
C1506 C1509 1.409 . S
C1507 H1499 0.930 . S
C1507 C1508 1.355 . S
C1507 C1509 1.415 . S
C1508 C1507 1.355 . S
C1508 C1510 1.419 . S
C1509 C1504 1.425 . S
C1509 C1506 1.409 . S
C1509 C1507 1.415 . S
C1510 H1500 0.930 . S
C1510 C1508 1.419 . S
C1510 C1511 1.362 . S
C1511 H1501 0.930 . S
C1511 C1504 1.409 . S
C1511 C1510 1.362 . S
H1512 C1518 0.930 . S
H1513 C1521 0.930 . S
H1514 C1522 0.930 . S
H1515 C1523 0.930 . S
H1516 C1526 0.930 . S
H1517 C1527 0.930 . S
C1518 H1512 0.930 . S
C1518 C1519 1.355 . S
C1518 C1520 1.415 . S
C1519 C1518 1.355 . S
C1519 C1521 1.419 . S
C1520 C1518 1.415 . S
C1520 C1525 1.425 . S
C1520 C1527 1.409 . S
C1521 H1513 0.930 . S
C1521 C1519 1.419 . S
C1521 C1522 1.362 . S
C1522 H1514 0.930 . S
C1522 C1521 1.362 . S
C1522 C1525 1.409 . S
C1523 H1515 0.930 . S
C1523 C1524 1.355 . S
C1523 C1525 1.415 . S
C1524 C1523 1.355 . S
C1524 C1526 1.419 . S
C1525 C1520 1.425 . S
C1525 C1522 1.409 . S
C1525 C1523 1.415 . S
C1526 H1516 0.930 . S
C1526 C1524 1.419 . S
C1526 C1527 1.362 . S
C1527 H1517 0.930 . S
C1527 C1520 1.409 . S
C1527 C1526 1.362 . S
H1528 C1534 0.930 . S
H1529 C1537 0.930 . S
H1530 C1538 0.930 . S
H1531 C1539 0.930 . S
H1532 C1542 0.930 . S
H1533 C1543 0.930 . S
C1534 H1528 0.930 . S
C1534 C1535 1.355 . S
C1534 C1536 1.415 . S
C1535 C1534 1.355 . S
C1535 C1537 1.419 . S
C1536 C1534 1.415 . S
C1536 C1541 1.425 . S
C1536 C1543 1.409 . S
C1537 H1529 0.930 . S
C1537 C1535 1.419 . S
C1537 C1538 1.362 . S
C1538 H1530 0.930 . S
C1538 C1537 1.362 . S
C1538 C1541 1.409 . S
C1539 H1531 0.930 . S
C1539 C1540 1.355 . S
C1539 C1541 1.415 . S
C1540 C1539 1.355 . S
C1540 C1542 1.419 . S
C1541 C1536 1.425 . S
C1541 C1538 1.409 . S
C1541 C1539 1.415 . S
C1542 H1532 0.930 . S
C1542 C1540 1.419 . S
C1542 C1543 1.362 . S
C1543 H1533 0.930 . S
C1543 C1536 1.409 . S
C1543 C1542 1.362 . S
H1544 C1550 0.930 . S
H1545 C1553 0.930 . S
H1546 C1554 0.930 . S
H1547 C1555 0.930 . S
H1548 C1558 0.930 . S
H1549 C1559 0.930 . S
C1550 H1544 0.930 . S
C1550 C1551 1.355 . S
C1550 C1552 1.415 . S
C1551 C1550 1.355 . S
C1551 C1553 1.419 . S
C1552 C1550 1.415 . S
C1552 C1557 1.425 . S
C1552 C1559 1.409 . S
C1553 H1545 0.930 . S
C1553 C1551 1.419 . S
C1553 C1554 1.362 . S
C1554 H1546 0.930 . S
C1554 C1553 1.362 . S
C1554 C1557 1.409 . S
C1555 H1547 0.930 . S
C1555 C1556 1.355 . S
C1555 C1557 1.415 . S
C1556 C1555 1.355 . S
C1556 C1558 1.419 . S
C1557 C1552 1.425 . S
C1557 C1554 1.409 . S
C1557 C1555 1.415 . S
C1558 H1548 0.930 . S
C1558 C1556 1.419 . S
C1558 C1559 1.362 . S
C1559 H1549 0.930 . S
C1559 C1552 1.409 . S
C1559 C1558 1.362 . S
H1560 C1566 0.930 . S
H1561 C1569 0.930 . S
H1562 C1570 0.930 . S
H1563 C1571 0.930 . S
H1564 C1574 0.930 . S
H1565 C1575 0.930 . S
C1566 H1560 0.930 . S
C1566 C1567 1.355 . S
C1566 C1568 1.415 . S
C1567 C1566 1.355 . S
C1567 C1569 1.419 . S
C1568 C1566 1.415 . S
C1568 C1573 1.425 . S
C1568 C1575 1.409 . S
C1569 H1561 0.930 . S
C1569 C1567 1.419 . S
C1569 C1570 1.362 . S
C1570 H1562 0.930 . S
C1570 C1569 1.362 . S
C1570 C1573 1.409 . S
C1571 H1563 0.930 . S
C1571 C1572 1.355 . S
C1571 C1573 1.415 . S
C1572 C1571 1.355 . S
C1572 C1574 1.419 . S
C1573 C1568 1.425 . S
C1573 C1570 1.409 . S
C1573 C1571 1.415 . S
C1574 H1564 0.930 . S
C1574 C1572 1.419 . S
C1574 C1575 1.362 . S
C1575 H1565 0.930 . S
C1575 C1568 1.409 . S
C1575 C1574 1.362 . S
H1576 C1582 0.930 . S
H1577 C1585 0.930 . S
H1578 C1586 0.930 . S
H1579 C1587 0.930 . S
H1580 C1590 0.930 . S
H1581 C1591 0.930 . S
C1582 H1576 0.930 . S
C1582 C1583 1.355 . S
C1582 C1584 1.415 . S
C1583 C1582 1.355 . S
C1583 C1585 1.419 . S
C1584 C1582 1.415 . S
C1584 C1589 1.425 . S
C1584 C1591 1.409 . S
C1585 H1577 0.930 . S
C1585 C1583 1.419 . S
C1585 C1586 1.362 . S
C1586 H1578 0.930 . S
C1586 C1585 1.362 . S
C1586 C1589 1.409 . S
C1587 H1579 0.930 . S
C1587 C1588 1.355 . S
C1587 C1589 1.415 . S
C1588 C1587 1.355 . S
C1588 C1590 1.419 . S
C1589 C1584 1.425 . S
C1589 C1586 1.409 . S
C1589 C1587 1.415 . S
C1590 H1580 0.930 . S
C1590 C1588 1.419 . S
C1590 C1591 1.362 . S
C1591 H1581 0.930 . S
C1591 C1584 1.409 . S
C1591 C1590 1.362 . S
H1592 C1598 0.930 . S
H1593 C1601 0.930 . S
H1594 C1602 0.930 . S
H1595 C1603 0.930 . S
H1596 C1606 0.930 . S
H1597 C1607 0.930 . S
C1598 H1592 0.930 . S
C1598 C1599 1.355 . S
C1598 C1600 1.415 . S
C1599 C1598 1.355 . S
C1599 C1601 1.419 . S
C1600 C1598 1.415 . S
C1600 C1605 1.425 . S
C1600 C1607 1.409 . S
C1601 H1593 0.930 . S
C1601 C1599 1.419 . S
C1601 C1602 1.362 . S
C1602 H1594 0.930 . S
C1602 C1601 1.362 . S
C1602 C1605 1.409 . S
C1603 H1595 0.930 . S
C1603 C1604 1.355 . S
C1603 C1605 1.415 . S
C1604 C1603 1.355 . S
C1604 C1606 1.419 . S
C1605 C1600 1.425 . S
C1605 C1602 1.409 . S
C1605 C1603 1.415 . S
C1606 H1596 0.930 . S
C1606 C1604 1.419 . S
C1606 C1607 1.362 . S
C1607 H1597 0.930 . S
C1607 C1600 1.409 . S
C1607 C1606 1.362 . S
H1608 C1614 0.930 . S
H1609 C1617 0.930 . S
H1610 C1618 0.930 . S
H1611 C1619 0.930 . S
H1612 C1622 0.930 . S
H1613 C1623 0.930 . S
C1614 H1608 0.930 . S
C1614 C1615 1.355 . S
C1614 C1616 1.431 . S
C1615 C1614 1.355 . S
C1615 C1617 1.419 . S
C1616 C1614 1.431 . S
C1616 C1621 1.424 1_565 S
C1616 C1623 1.394 1_565 S
C1617 H1609 0.930 . S
C1617 C1615 1.419 . S
C1617 C1618 1.362 . S
C1618 H1610 0.930 . S
C1618 C1617 1.362 . S
C1618 C1621 1.393 1_565 S
C1619 H1611 0.930 . S
C1619 C1620 1.355 . S
C1619 C1621 1.432 . S
C1620 C1619 1.355 . S
C1620 C1622 1.419 . S
C1621 C1616 1.424 1_545 S
C1621 C1618 1.393 1_545 S
C1621 C1619 1.432 . S
C1622 H1612 0.930 . S
C1622 C1620 1.419 . S
C1622 C1623 1.362 . S
C1623 H1613 0.930 . S
C1623 C1616 1.394 1_545 S
C1623 C1622 1.362 . S
H1624 C1630 0.930 . S
H1625 C1633 0.930 . S
H1626 C1634 0.930 . S
H1627 C1635 0.930 . S
H1628 C1638 0.930 . S
H1629 C1639 0.930 . S
C1630 H1624 0.930 . S
C1630 C1631 1.355 . S
C1630 C1632 1.415 . S
C1631 C1630 1.355 . S
C1631 C1633 1.419 . S
C1632 C1630 1.415 . S
C1632 C1637 1.425 1_655 S
C1632 C1639 1.409 . S
C1633 H1625 0.930 . S
C1633 C1631 1.419 . S
C1633 C1634 1.362 1_655 S
C1634 H1626 0.930 . S
C1634 C1633 1.362 1_455 S
C1634 C1637 1.409 . S
C1635 H1627 0.930 . S
C1635 C1636 1.355 . S
C1635 C1637 1.415 . S
C1636 C1635 1.355 . S
C1636 C1638 1.419 . S
C1637 C1632 1.425 1_455 S
C1637 C1634 1.409 . S
C1637 C1635 1.415 . S
C1638 H1628 0.930 . S
C1638 C1636 1.419 . S
C1638 C1639 1.362 1_455 S
C1639 H1629 0.930 . S
C1639 C1632 1.409 . S
C1639 C1638 1.362 1_655 S
H1640 C1646 0.930 . S
H1641 C1649 0.930 . S
H1642 C1650 0.930 . S
H1643 C1651 0.930 . S
H1644 C1654 0.930 . S
H1645 C1655 0.930 . S
C1646 H1640 0.930 . S
C1646 C1647 1.355 . S
C1646 C1648 1.412 . S
C1647 C1646 1.355 . S
C1647 C1649 1.419 . S
C1648 C1646 1.412 . S
C1648 C1653 1.425 1_545 S
C1648 C1655 1.412 1_545 S
C1649 H1641 0.930 . S
C1649 C1647 1.419 . S
C1649 C1650 1.362 . S
C1650 H1642 0.930 . S
C1650 C1649 1.362 . S
C1650 C1653 1.394 1_545 S
C1651 H1643 0.930 . S
C1651 C1652 1.355 . S
C1651 C1653 1.431 . S
C1652 C1651 1.355 . S
C1652 C1654 1.419 . S
C1653 C1648 1.425 1_565 S
C1653 C1650 1.394 1_565 S
C1653 C1651 1.431 . S
C1654 H1644 0.930 . S
C1654 C1652 1.419 . S
C1654 C1655 1.362 . S
C1655 H1645 0.930 . S
C1655 C1648 1.412 1_565 S
C1655 C1654 1.362 . S
H1656 C1662 0.930 . S
H1657 C1665 0.930 . S
H1658 C1666 0.930 1_655 S
H1659 C1667 0.930 . S
H1660 C1670 0.930 . S
H1661 C1671 0.930 1_455 S
C1662 H1656 0.930 . S
C1662 C1663 1.355 . S
C1662 C1664 1.415 . S
C1663 C1662 1.355 . S
C1663 C1665 1.419 . S
C1664 C1662 1.415 . S
C1664 C1669 1.425 1_455 S
C1664 C1671 1.409 1_455 S
C1665 H1657 0.930 . S
C1665 C1663 1.419 . S
C1665 C1666 1.362 . S
C1666 H1658 0.930 1_455 S
C1666 C1665 1.362 . S
C1666 C1669 1.409 1_455 S
C1667 H1659 0.930 . S
C1667 C1668 1.355 . S
C1667 C1669 1.415 . S
C1668 C1667 1.355 . S
C1668 C1670 1.419 . S
C1669 C1664 1.425 1_655 S
C1669 C1666 1.409 1_655 S
C1669 C1667 1.415 . S
C1670 H1660 0.930 . S
C1670 C1668 1.419 . S
C1670 C1671 1.362 . S
C1671 H1661 0.930 1_655 S
C1671 C1664 1.409 1_655 S
C1671 C1670 1.362 . S
H1672 C1678 0.930 . S
H1673 C1681 0.930 . S
H1674 C1682 0.930 . S
H1675 C1683 0.930 . S
H1676 C1686 0.930 . S
H1677 C1687 0.930 . S
C1678 H1672 0.930 . S
C1678 C1679 1.355 . S
C1678 C1680 1.415 1_565 S
C1679 C1678 1.355 . S
C1679 C1681 1.419 . S
C1680 C1678 1.415 1_545 S
C1680 C1685 1.425 1_545 S
C1680 C1687 1.409 . S
C1681 H1673 0.930 . S
C1681 C1679 1.419 . S
C1681 C1682 1.362 . S
C1682 H1674 0.930 . S
C1682 C1681 1.362 . S
C1682 C1685 1.409 . S
C1683 H1675 0.930 . S
C1683 C1684 1.355 . S
C1683 C1685 1.415 1_545 S
C1684 C1683 1.355 . S
C1684 C1686 1.419 . S
C1685 C1680 1.425 1_565 S
C1685 C1682 1.409 . S
C1685 C1683 1.415 1_565 S
C1686 H1676 0.930 . S
C1686 C1684 1.419 . S
C1686 C1687 1.362 . S
C1687 H1677 0.930 . S
C1687 C1680 1.409 . S
C1687 C1686 1.362 . S
H1688 C1694 0.930 . S
H1689 C1697 0.930 . S
H1690 C1698 0.930 . S
H1691 C1699 0.930 . S
H1692 C1702 0.930 . S
H1693 C1703 0.930 . S
C1694 H1688 0.930 . S
C1694 C1695 1.355 . S
C1694 C1696 1.415 1_655 S
C1695 C1694 1.355 . S
C1695 C1697 1.419 . S
C1696 C1694 1.415 1_455 S
C1696 C1701 1.425 1_455 S
C1696 C1703 1.409 . S
C1697 H1689 0.930 . S
C1697 C1695 1.419 . S
C1697 C1698 1.362 . S
C1698 H1690 0.930 . S
C1698 C1697 1.362 . S
C1698 C1701 1.409 . S
C1699 H1691 0.930 . S
C1699 C1700 1.355 . S
C1699 C1701 1.415 1_455 S
C1700 C1699 1.355 . S
C1700 C1702 1.419 . S
C1701 C1696 1.425 1_655 S
C1701 C1698 1.409 . S
C1701 C1699 1.415 1_655 S
C1702 H1692 0.930 . S
C1702 C1700 1.419 . S
C1702 C1703 1.362 . S
C1703 H1693 0.930 . S
C1703 C1696 1.409 . S
C1703 C1702 1.362 . S
H1704 C1710 0.930 . S
H1705 C1713 0.930 . S
H1706 C1714 0.930 . S
H1707 C1715 0.930 . S
H1708 C1718 0.930 . S
H1709 C1719 0.930 . S
C1710 H1704 0.930 . S
C1710 C1711 1.355 . S
C1710 C1712 1.415 1_565 S
C1711 C1710 1.355 . S
C1711 C1713 1.419 . S
C1712 C1710 1.415 1_545 S
C1712 C1717 1.425 1_545 S
C1712 C1719 1.409 . S
C1713 H1705 0.930 . S
C1713 C1711 1.419 . S
C1713 C1714 1.362 . S
C1714 H1706 0.930 . S
C1714 C1713 1.362 . S
C1714 C1717 1.409 . S
C1715 H1707 0.930 . S
C1715 C1716 1.355 . S
C1715 C1717 1.415 1_545 S
C1716 C1715 1.355 . S
C1716 C1718 1.419 . S
C1717 C1712 1.425 1_565 S
C1717 C1714 1.409 . S
C1717 C1715 1.415 1_565 S
C1718 H1708 0.930 . S
C1718 C1716 1.419 . S
C1718 C1719 1.362 . S
C1719 H1709 0.930 . S
C1719 C1712 1.409 . S
C1719 C1718 1.362 . S
H1720 C1726 0.930 . S
H1721 C1729 0.930 . S
H1722 C1730 0.930 . S
H1723 C1731 0.930 . S
H1724 C1734 0.930 . S
H1725 C1735 0.930 . S
C1726 H1720 0.930 . S
C1726 C1727 1.355 . S
C1726 C1728 1.415 . S
C1727 C1726 1.355 . S
C1727 C1729 1.419 . S
C1728 C1726 1.415 . S
C1728 C1733 1.425 1_455 S
C1728 C1735 1.409 . S
C1729 H1721 0.930 . S
C1729 C1727 1.419 . S
C1729 C1730 1.362 1_455 S
C1730 H1722 0.930 . S
C1730 C1729 1.362 1_655 S
C1730 C1733 1.409 . S
C1731 H1723 0.930 . S
C1731 C1732 1.355 . S
C1731 C1733 1.415 . S
C1732 C1731 1.355 . S
C1732 C1734 1.419 . S
C1733 C1728 1.425 1_655 S
C1733 C1730 1.409 . S
C1733 C1731 1.415 . S
C1734 H1724 0.930 . S
C1734 C1732 1.419 . S
C1734 C1735 1.362 1_655 S
C1735 H1725 0.930 . S
C1735 C1728 1.409 . S
C1735 C1734 1.362 1_455 S
H1736 C1742 0.930 . S
H1737 C1745 0.930 . S
H1738 C1746 0.930 1_554 S
H1739 C1747 0.930 . S
H1740 C1750 0.930 . S
H1741 C1751 0.930 1_556 S
C1742 H1736 0.930 . S
C1742 C1743 1.355 . S
C1742 C1744 1.415 . S
C1743 C1742 1.355 . S
C1743 C1745 1.419 . S
C1744 C1742 1.415 . S
C1744 C1749 1.425 1_556 S
C1744 C1751 1.409 1_556 S
C1745 H1737 0.930 . S
C1745 C1743 1.419 . S
C1745 C1746 1.362 . S
C1746 H1738 0.930 1_556 S
C1746 C1745 1.362 . S
C1746 C1749 1.409 1_556 S
C1747 H1739 0.930 . S
C1747 C1748 1.355 . S
C1747 C1749 1.415 . S
C1748 C1747 1.355 . S
C1748 C1750 1.419 . S
C1749 C1744 1.425 1_554 S
C1749 C1746 1.409 1_554 S
C1749 C1747 1.415 . S
C1750 H1740 0.930 . S
C1750 C1748 1.419 . S
C1750 C1751 1.362 . S
C1751 H1741 0.930 1_554 S
C1751 C1744 1.409 1_554 S
C1751 C1750 1.362 . S
H1752 C1758 0.930 . S
H1753 C1761 0.930 . S
H1754 C1762 0.923 1_556 S
H1755 C1763 0.930 . S
H1756 C1766 0.930 . S
H1757 C1767 0.922 1_554 S
C1758 H1752 0.930 . S
C1758 C1759 1.355 . S
C1758 C1760 1.415 . S
C1759 C1758 1.355 . S
C1759 C1761 1.419 . S
C1760 C1758 1.415 . S
C1760 C1765 1.425 1_554 S
C1760 C1767 1.409 1_554 S
C1761 H1753 0.930 . S
C1761 C1759 1.419 . S
C1761 C1762 1.362 . S
C1762 H1754 0.923 1_554 S
C1762 C1761 1.362 . S
C1762 C1765 1.409 1_554 S
C1763 H1755 0.930 . S
C1763 C1764 1.355 . S
C1763 C1765 1.415 . S
C1764 C1763 1.355 . S
C1764 C1766 1.419 . S
C1765 C1760 1.425 1_556 S
C1765 C1762 1.409 1_556 S
C1765 C1763 1.415 . S
C1766 H1756 0.930 . S
C1766 C1764 1.419 . S
C1766 C1767 1.362 . S
C1767 H1757 0.922 1_556 S
C1767 C1760 1.409 1_556 S
C1767 C1766 1.362 . S
H1768 C1774 0.930 . S
H1769 C1777 0.930 . S
H1770 C1778 0.930 . S
H1771 C1779 0.930 . S
H1772 C1782 0.930 . S
H1773 C1783 0.930 . S
C1774 H1768 0.930 . S
C1774 C1775 1.355 . S
C1774 C1776 1.415 1_556 S
C1775 C1774 1.355 . S
C1775 C1777 1.419 . S
C1776 C1774 1.415 1_554 S
C1776 C1781 1.425 1_554 S
C1776 C1783 1.409 . S
C1777 H1769 0.930 . S
C1777 C1775 1.419 . S
C1777 C1778 1.362 . S
C1778 H1770 0.930 . S
C1778 C1777 1.362 . S
C1778 C1781 1.409 . S
C1779 H1771 0.930 . S
C1779 C1780 1.355 . S
C1779 C1781 1.415 1_554 S
C1780 C1779 1.355 . S
C1780 C1782 1.419 . S
C1781 C1776 1.425 1_556 S
C1781 C1778 1.409 . S
C1781 C1779 1.415 1_556 S
C1782 H1772 0.930 . S
C1782 C1780 1.419 . S
C1782 C1783 1.362 . S
C1783 H1773 0.930 . S
C1783 C1776 1.409 . S
C1783 C1782 1.362 . S
H1784 C1790 0.930 . S
H1785 C1793 0.930 . S
H1786 C1794 0.930 . S
H1787 C1795 0.930 . S
H1788 C1798 0.930 . S
H1789 C1799 0.930 . S
C1790 H1784 0.930 . S
C1790 C1791 1.355 . S
C1790 C1792 1.390 1_554 S
C1791 C1790 1.355 . S
C1791 C1793 1.419 . S
C1792 C1790 1.390 1_556 S
C1792 C1797 1.423 1_556 S
C1792 C1799 1.437 . S
C1793 H1785 0.930 . S
C1793 C1791 1.419 . S
C1793 C1794 1.362 . S
C1794 H1786 0.930 . S
C1794 C1793 1.362 . S
C1794 C1797 1.434 . S
C1795 H1787 0.930 . S
C1795 C1796 1.355 . S
C1795 C1797 1.393 1_556 S
C1796 C1795 1.355 . S
C1796 C1798 1.419 . S
C1797 C1792 1.423 1_554 S
C1797 C1794 1.434 . S
C1797 C1795 1.393 1_554 S
C1798 H1788 0.930 . S
C1798 C1796 1.419 . S
C1798 C1799 1.362 . S
C1799 H1789 0.930 . S
C1799 C1792 1.437 . S
C1799 C1798 1.362 . S
H1800 C1806 0.930 . S
H1801 C1809 0.930 . S
H1802 C1810 0.930 . S
H1803 C1811 0.930 . S
H1804 C1814 0.930 . S
H1805 C1815 0.930 . S
C1806 H1800 0.930 . S
C1806 C1807 1.355 . S
C1806 C1808 1.415 . S
C1807 C1806 1.355 . S
C1807 C1809 1.419 . S
C1808 C1806 1.415 . S
C1808 C1813 1.425 . S
C1808 C1815 1.409 . S
C1809 H1801 0.930 . S
C1809 C1807 1.419 . S
C1809 C1810 1.362 . S
C1810 H1802 0.930 . S
C1810 C1809 1.362 . S
C1810 C1813 1.409 . S
C1811 H1803 0.930 . S
C1811 C1812 1.355 . S
C1811 C1813 1.415 . S
C1812 C1811 1.355 . S
C1812 C1814 1.419 . S
C1813 C1808 1.425 . S
C1813 C1810 1.409 . S
C1813 C1811 1.415 . S
C1814 H1804 0.930 . S
C1814 C1812 1.419 . S
C1814 C1815 1.362 . S
C1815 H1805 0.930 . S
C1815 C1808 1.409 . S
C1815 C1814 1.362 . S
H1816 C1822 0.930 . S
H1817 C1825 0.930 . S
H1818 C1826 0.930 . S
H1819 C1827 0.930 . S
H1820 C1830 0.930 . S
H1821 C1831 0.930 . S
C1822 H1816 0.930 . S
C1822 C1823 1.355 . S
C1822 C1824 1.415 . S
C1823 C1822 1.355 . S
C1823 C1825 1.419 . S
C1824 C1822 1.415 . S
C1824 C1829 1.425 . S
C1824 C1831 1.409 . S
C1825 H1817 0.930 . S
C1825 C1823 1.419 . S
C1825 C1826 1.362 . S
C1826 H1818 0.930 . S
C1826 C1825 1.362 . S
C1826 C1829 1.409 . S
C1827 H1819 0.930 . S
C1827 C1828 1.355 . S
C1827 C1829 1.415 . S
C1828 C1827 1.355 . S
C1828 C1830 1.419 . S
C1829 C1824 1.425 . S
C1829 C1826 1.409 . S
C1829 C1827 1.415 . S
C1830 H1820 0.930 . S
C1830 C1828 1.419 . S
C1830 C1831 1.362 . S
C1831 H1821 0.930 . S
C1831 C1824 1.409 . S
C1831 C1830 1.362 . S
H1832 C1838 0.930 . S
H1833 C1841 0.930 . S
H1834 C1842 0.930 . S
H1835 C1843 0.930 . S
H1836 C1846 0.930 . S
H1837 C1847 0.930 . S
C1838 H1832 0.930 . S
C1838 C1839 1.355 . S
C1838 C1840 1.415 . S
C1839 C1838 1.355 . S
C1839 C1841 1.419 . S
C1840 C1838 1.415 . S
C1840 C1845 1.425 . S
C1840 C1847 1.409 . S
C1841 H1833 0.930 . S
C1841 C1839 1.419 . S
C1841 C1842 1.362 . S
C1842 H1834 0.930 . S
C1842 C1841 1.362 . S
C1842 C1845 1.409 . S
C1843 H1835 0.930 . S
C1843 C1844 1.355 . S
C1843 C1845 1.415 . S
C1844 C1843 1.355 . S
C1844 C1846 1.419 . S
C1845 C1840 1.425 . S
C1845 C1842 1.409 . S
C1845 C1843 1.415 . S
C1846 H1836 0.930 . S
C1846 C1844 1.419 . S
C1846 C1847 1.362 . S
C1847 H1837 0.930 . S
C1847 C1840 1.409 . S
C1847 C1846 1.362 . S
H1848 C1854 0.930 . S
H1849 C1857 0.930 . S
H1850 C1858 0.930 . S
H1851 C1859 0.930 . S
H1852 C1862 0.930 . S
H1853 C1863 0.930 . S
C1854 H1848 0.930 . S
C1854 C1855 1.355 . S
C1854 C1856 1.415 . S
C1855 C1854 1.355 . S
C1855 C1857 1.419 . S
C1856 C1854 1.415 . S
C1856 C1861 1.425 . S
C1856 C1863 1.409 . S
C1857 H1849 0.930 . S
C1857 C1855 1.419 . S
C1857 C1858 1.362 . S
C1858 H1850 0.930 . S
C1858 C1857 1.362 . S
C1858 C1861 1.409 . S
C1859 H1851 0.930 . S
C1859 C1860 1.355 . S
C1859 C1861 1.415 . S
C1860 C1859 1.355 . S
C1860 C1862 1.419 . S
C1861 C1856 1.425 . S
C1861 C1858 1.409 . S
C1861 C1859 1.415 . S
C1862 H1852 0.930 . S
C1862 C1860 1.419 . S
C1862 C1863 1.362 . S
C1863 H1853 0.930 . S
C1863 C1856 1.409 . S
C1863 C1862 1.362 . S
H1864 C1870 0.930 . S
H1865 C1873 0.930 . S
H1866 C1874 0.930 . S
H1867 C1875 0.930 . S
H1868 C1878 0.930 . S
H1869 C1879 0.930 . S
C1870 H1864 0.930 . S
C1870 C1871 1.355 . S
C1870 C1872 1.415 . S
C1871 C1870 1.355 . S
C1871 C1873 1.419 . S
C1872 C1870 1.415 . S
C1872 C1877 1.425 . S
C1872 C1879 1.409 . S
C1873 H1865 0.930 . S
C1873 C1871 1.419 . S
C1873 C1874 1.362 . S
C1874 H1866 0.930 . S
C1874 C1873 1.362 . S
C1874 C1877 1.409 . S
C1875 H1867 0.930 . S
C1875 C1876 1.355 . S
C1875 C1877 1.415 . S
C1876 C1875 1.355 . S
C1876 C1878 1.419 . S
C1877 C1872 1.425 . S
C1877 C1874 1.409 . S
C1877 C1875 1.415 . S
C1878 H1868 0.930 . S
C1878 C1876 1.419 . S
C1878 C1879 1.362 . S
C1879 H1869 0.930 . S
C1879 C1872 1.409 . S
C1879 C1878 1.362 . S
H1880 C1886 0.930 . S
H1881 C1889 0.930 . S
H1882 C1890 0.930 . S
H1883 C1891 0.930 . S
H1884 C1894 0.930 . S
H1885 C1895 0.930 . S
C1886 H1880 0.930 . S
C1886 C1887 1.355 . S
C1886 C1888 1.415 . S
C1887 C1886 1.355 . S
C1887 C1889 1.419 . S
C1888 C1886 1.415 . S
C1888 C1893 1.425 . S
C1888 C1895 1.409 . S
C1889 H1881 0.930 . S
C1889 C1887 1.419 . S
C1889 C1890 1.362 . S
C1890 H1882 0.930 . S
C1890 C1889 1.362 . S
C1890 C1893 1.409 . S
C1891 H1883 0.930 . S
C1891 C1892 1.355 . S
C1891 C1893 1.415 . S
C1892 C1891 1.355 . S
C1892 C1894 1.419 . S
C1893 C1888 1.425 . S
C1893 C1890 1.409 . S
C1893 C1891 1.415 . S
C1894 H1884 0.930 . S
C1894 C1892 1.419 . S
C1894 C1895 1.362 . S
C1895 H1885 0.930 . S
C1895 C1888 1.409 . S
C1895 C1894 1.362 . S
H1896 C1902 0.930 . S
H1897 C1905 0.930 . S
H1898 C1906 0.930 . S
H1899 C1907 0.930 . S
H1900 C1910 0.930 . S
H1901 C1911 0.930 . S
C1902 H1896 0.930 . S
C1902 C1903 1.355 . S
C1902 C1904 1.415 . S
C1903 C1902 1.355 . S
C1903 C1905 1.419 . S
C1904 C1902 1.415 . S
C1904 C1909 1.425 . S
C1904 C1911 1.409 . S
C1905 H1897 0.930 . S
C1905 C1903 1.419 . S
C1905 C1906 1.362 . S
C1906 H1898 0.930 . S
C1906 C1905 1.362 . S
C1906 C1909 1.409 . S
C1907 H1899 0.930 . S
C1907 C1908 1.355 . S
C1907 C1909 1.415 . S
C1908 C1907 1.355 . S
C1908 C1910 1.419 . S
C1909 C1904 1.425 . S
C1909 C1906 1.409 . S
C1909 C1907 1.415 . S
C1910 H1900 0.930 . S
C1910 C1908 1.419 . S
C1910 C1911 1.362 . S
C1911 H1901 0.930 . S
C1911 C1904 1.409 . S
C1911 C1910 1.362 . S
H1912 C1918 0.930 . S
H1913 C1921 0.930 . S
H1914 C1922 0.930 . S
H1915 C1923 0.930 . S
H1916 C1926 0.930 . S
H1917 C1927 0.930 . S
C1918 H1912 0.930 . S
C1918 C1919 1.355 . S
C1918 C1920 1.415 . S
C1919 C1918 1.355 . S
C1919 C1921 1.419 . S
C1920 C1918 1.415 . S
C1920 C1925 1.425 . S
C1920 C1927 1.409 . S
C1921 H1913 0.930 . S
C1921 C1919 1.419 . S
C1921 C1922 1.362 . S
C1922 H1914 0.930 . S
C1922 C1921 1.362 . S
C1922 C1925 1.409 . S
C1923 H1915 0.930 . S
C1923 C1924 1.355 . S
C1923 C1925 1.415 . S
C1924 C1923 1.355 . S
C1924 C1926 1.419 . S
C1925 C1920 1.425 . S
C1925 C1922 1.409 . S
C1925 C1923 1.415 . S
C1926 H1916 0.930 . S
C1926 C1924 1.419 . S
C1926 C1927 1.362 . S
C1927 H1917 0.930 . S
C1927 C1920 1.409 . S
C1927 C1926 1.362 . S
H1928 C1934 0.930 . S
H1929 C1937 0.930 . S
H1930 C1938 0.930 . S
H1931 C1939 0.930 . S
H1932 C1942 0.930 . S
H1933 C1943 0.930 . S
C1934 H1928 0.930 . S
C1934 C1935 1.355 . S
C1934 C1936 1.415 . S
C1935 C1934 1.355 . S
C1935 C1937 1.419 . S
C1936 C1934 1.415 . S
C1936 C1941 1.425 . S
C1936 C1943 1.409 . S
C1937 H1929 0.930 . S
C1937 C1935 1.419 . S
C1937 C1938 1.362 . S
C1938 H1930 0.930 . S
C1938 C1937 1.362 . S
C1938 C1941 1.409 . S
C1939 H1931 0.930 . S
C1939 C1940 1.355 . S
C1939 C1941 1.415 . S
C1940 C1939 1.355 . S
C1940 C1942 1.419 . S
C1941 C1936 1.425 . S
C1941 C1938 1.409 . S
C1941 C1939 1.415 . S
C1942 H1932 0.930 . S
C1942 C1940 1.419 . S
C1942 C1943 1.362 . S
C1943 H1933 0.930 . S
C1943 C1936 1.409 . S
C1943 C1942 1.362 . S
H1944 C1950 0.930 . S
H1945 C1953 0.930 . S
H1946 C1954 0.930 . S
H1947 C1955 0.930 . S
H1948 C1958 0.930 . S
H1949 C1959 0.930 . S
C1950 H1944 0.930 . S
C1950 C1951 1.355 . S
C1950 C1952 1.415 . S
C1951 C1950 1.355 . S
C1951 C1953 1.419 . S
C1952 C1950 1.415 . S
C1952 C1957 1.425 . S
C1952 C1959 1.409 . S
C1953 H1945 0.930 . S
C1953 C1951 1.419 . S
C1953 C1954 1.362 . S
C1954 H1946 0.930 . S
C1954 C1953 1.362 . S
C1954 C1957 1.409 . S
C1955 H1947 0.930 . S
C1955 C1956 1.355 . S
C1955 C1957 1.415 . S
C1956 C1955 1.355 . S
C1956 C1958 1.419 . S
C1957 C1952 1.425 . S
C1957 C1954 1.409 . S
C1957 C1955 1.415 . S
C1958 H1948 0.930 . S
C1958 C1956 1.419 . S
C1958 C1959 1.362 . S
C1959 H1949 0.930 . S
C1959 C1952 1.409 . S
C1959 C1958 1.362 . S
H1960 C1966 0.930 . S
H1961 C1969 0.930 . S
H1962 C1970 0.930 . S
H1963 C1971 0.930 . S
H1964 C1974 0.930 . S
H1965 C1975 0.930 . S
C1966 H1960 0.930 . S
C1966 C1967 1.355 . S
C1966 C1968 1.415 . S
C1967 C1966 1.355 . S
C1967 C1969 1.419 . S
C1968 C1966 1.415 . S
C1968 C1973 1.425 . S
C1968 C1975 1.409 . S
C1969 H1961 0.930 . S
C1969 C1967 1.419 . S
C1969 C1970 1.362 . S
C1970 H1962 0.930 . S
C1970 C1969 1.362 . S
C1970 C1973 1.409 . S
C1971 H1963 0.930 . S
C1971 C1972 1.355 . S
C1971 C1973 1.415 . S
C1972 C1971 1.355 . S
C1972 C1974 1.419 . S
C1973 C1968 1.425 . S
C1973 C1970 1.409 . S
C1973 C1971 1.415 . S
C1974 H1964 0.930 . S
C1974 C1972 1.419 . S
C1974 C1975 1.362 . S
C1975 H1965 0.930 . S
C1975 C1968 1.409 . S
C1975 C1974 1.362 . S
H1976 C1982 0.930 . S
H1977 C1985 0.930 . S
H1978 C1986 0.930 . S
H1979 C1987 0.930 . S
H1980 C1990 0.930 . S
H1981 C1991 0.930 . S
C1982 H1976 0.930 . S
C1982 C1983 1.355 . S
C1982 C1984 1.415 . S
C1983 C1982 1.355 . S
C1983 C1985 1.419 . S
C1984 C1982 1.415 . S
C1984 C1989 1.425 . S
C1984 C1991 1.409 . S
C1985 H1977 0.930 . S
C1985 C1983 1.419 . S
C1985 C1986 1.362 . S
C1986 H1978 0.930 . S
C1986 C1985 1.362 . S
C1986 C1989 1.409 . S
C1987 H1979 0.930 . S
C1987 C1988 1.355 . S
C1987 C1989 1.415 . S
C1988 C1987 1.355 . S
C1988 C1990 1.419 . S
C1989 C1984 1.425 . S
C1989 C1986 1.409 . S
C1989 C1987 1.415 . S
C1990 H1980 0.930 . S
C1990 C1988 1.419 . S
C1990 C1991 1.362 . S
C1991 H1981 0.930 . S
C1991 C1984 1.409 . S
C1991 C1990 1.362 . S
H1992 C1998 0.930 . S
H1993 C2001 0.930 . S
H1994 C2002 0.930 . S
H1995 C2003 0.930 . S
H1996 C2006 0.930 . S
H1997 C2007 0.930 . S
C1998 H1992 0.930 . S
C1998 C1999 1.355 . S
C1998 C2000 1.415 . S
C1999 C1998 1.355 . S
C1999 C2001 1.419 . S
C2000 C1998 1.415 . S
C2000 C2005 1.425 . S
C2000 C2007 1.409 . S
C2001 H1993 0.930 . S
C2001 C1999 1.419 . S
C2001 C2002 1.362 . S
C2002 H1994 0.930 . S
C2002 C2001 1.362 . S
C2002 C2005 1.409 . S
C2003 H1995 0.930 . S
C2003 C2004 1.355 . S
C2003 C2005 1.415 . S
C2004 C2003 1.355 . S
C2004 C2006 1.419 . S
C2005 C2000 1.425 . S
C2005 C2002 1.409 . S
C2005 C2003 1.415 . S
C2006 H1996 0.930 . S
C2006 C2004 1.419 . S
C2006 C2007 1.362 . S
C2007 H1997 0.930 . S
C2007 C2000 1.409 . S
C2007 C2006 1.362 . S
H2008 C2014 0.930 . S
H2009 C2017 0.930 . S
H2010 C2018 0.930 . S
H2011 C2019 0.930 . S
H2012 C2022 0.930 . S
H2013 C2023 0.930 . S
C2014 H2008 0.930 . S
C2014 C2015 1.355 . S
C2014 C2016 1.415 . S
C2015 C2014 1.355 . S
C2015 C2017 1.419 . S
C2016 C2014 1.415 . S
C2016 C2021 1.425 . S
C2016 C2023 1.409 . S
C2017 H2009 0.930 . S
C2017 C2015 1.419 . S
C2017 C2018 1.362 . S
C2018 H2010 0.930 . S
C2018 C2017 1.362 . S
C2018 C2021 1.409 . S
C2019 H2011 0.930 . S
C2019 C2020 1.355 . S
C2019 C2021 1.415 . S
C2020 C2019 1.355 . S
C2020 C2022 1.419 . S
C2021 C2016 1.425 . S
C2021 C2018 1.409 . S
C2021 C2019 1.415 . S
C2022 H2012 0.930 . S
C2022 C2020 1.419 . S
C2022 C2023 1.362 . S
C2023 H2013 0.930 . S
C2023 C2016 1.409 . S
C2023 C2022 1.362 . S
H2024 C2030 0.930 . S
H2025 C2033 0.930 . S
H2026 C2034 0.930 . S
H2027 C2035 0.930 . S
H2028 C2038 0.930 . S
H2029 C2039 0.930 . S
C2030 H2024 0.930 . S
C2030 C2031 1.355 . S
C2030 C2032 1.415 . S
C2031 C2030 1.355 . S
C2031 C2033 1.419 . S
C2032 C2030 1.415 . S
C2032 C2037 1.425 . S
C2032 C2039 1.409 . S
C2033 H2025 0.930 . S
C2033 C2031 1.419 . S
C2033 C2034 1.362 . S
C2034 H2026 0.930 . S
C2034 C2033 1.362 . S
C2034 C2037 1.409 . S
C2035 H2027 0.930 . S
C2035 C2036 1.355 . S
C2035 C2037 1.415 . S
C2036 C2035 1.355 . S
C2036 C2038 1.419 . S
C2037 C2032 1.425 . S
C2037 C2034 1.409 . S
C2037 C2035 1.415 . S
C2038 H2028 0.930 . S
C2038 C2036 1.419 . S
C2038 C2039 1.362 . S
C2039 H2029 0.930 . S
C2039 C2032 1.409 . S
C2039 C2038 1.362 . S
H2040 C2046 0.930 . S
H2041 C2049 0.930 . S
H2042 C2050 0.930 . S
H2043 C2051 0.930 . S
H2044 C2054 0.930 . S
H2045 C2055 0.930 . S
C2046 H2040 0.930 . S
C2046 C2047 1.355 . S
C2046 C2048 1.415 . S
C2047 C2046 1.355 . S
C2047 C2049 1.419 . S
C2048 C2046 1.415 . S
C2048 C2053 1.425 . S
C2048 C2055 1.409 . S
C2049 H2041 0.930 . S
C2049 C2047 1.419 . S
C2049 C2050 1.362 . S
C2050 H2042 0.930 . S
C2050 C2049 1.362 . S
C2050 C2053 1.409 . S
C2051 H2043 0.930 . S
C2051 C2052 1.355 . S
C2051 C2053 1.415 . S
C2052 C2051 1.355 . S
C2052 C2054 1.419 . S
C2053 C2048 1.425 . S
C2053 C2050 1.409 . S
C2053 C2051 1.415 . S
C2054 H2044 0.930 . S
C2054 C2052 1.419 . S
C2054 C2055 1.362 . S
C2055 H2045 0.930 . S
C2055 C2048 1.409 . S
C2055 C2054 1.362 . S
H2056 C2062 0.930 . S
H2057 C2065 0.930 . S
H2058 C2066 0.930 . S
H2059 C2067 0.930 . S
H2060 C2070 0.930 . S
H2061 C2071 0.930 . S
C2062 H2056 0.930 . S
C2062 C2063 1.355 . S
C2062 C2064 1.415 . S
C2063 C2062 1.355 . S
C2063 C2065 1.419 . S
C2064 C2062 1.415 . S
C2064 C2069 1.425 . S
C2064 C2071 1.409 . S
C2065 H2057 0.930 . S
C2065 C2063 1.419 . S
C2065 C2066 1.362 . S
C2066 H2058 0.930 . S
C2066 C2065 1.362 . S
C2066 C2069 1.409 . S
C2067 H2059 0.930 . S
C2067 C2068 1.355 . S
C2067 C2069 1.415 . S
C2068 C2067 1.355 . S
C2068 C2070 1.419 . S
C2069 C2064 1.425 . S
C2069 C2066 1.409 . S
C2069 C2067 1.415 . S
C2070 H2060 0.930 . S
C2070 C2068 1.419 . S
C2070 C2071 1.362 . S
C2071 H2061 0.930 . S
C2071 C2064 1.409 . S
C2071 C2070 1.362 . S
H2072 C2078 0.930 . S
H2073 C2081 0.930 . S
H2074 C2082 0.930 . S
H2075 C2083 0.930 . S
H2076 C2086 0.930 . S
H2077 C2087 0.930 . S
C2078 H2072 0.930 . S
C2078 C2079 1.355 . S
C2078 C2080 1.415 . S
C2079 C2078 1.355 . S
C2079 C2081 1.419 . S
C2080 C2078 1.415 . S
C2080 C2085 1.425 . S
C2080 C2087 1.409 . S
C2081 H2073 0.930 . S
C2081 C2079 1.419 . S
C2081 C2082 1.362 . S
C2082 H2074 0.930 . S
C2082 C2081 1.362 . S
C2082 C2085 1.409 . S
C2083 H2075 0.930 . S
C2083 C2084 1.355 . S
C2083 C2085 1.415 . S
C2084 C2083 1.355 . S
C2084 C2086 1.419 . S
C2085 C2080 1.425 . S
C2085 C2082 1.409 . S
C2085 C2083 1.415 . S
C2086 H2076 0.930 . S
C2086 C2084 1.419 . S
C2086 C2087 1.362 . S
C2087 H2077 0.930 . S
C2087 C2080 1.409 . S
C2087 C2086 1.362 . S
H2088 C2094 0.930 . S
H2089 C2097 0.930 . S
H2090 C2098 0.930 . S
H2091 C2099 0.930 . S
H2092 C2102 0.930 . S
H2093 C2103 0.930 . S
C2094 H2088 0.930 . S
C2094 C2095 1.355 . S
C2094 C2096 1.415 . S
C2095 C2094 1.355 . S
C2095 C2097 1.419 . S
C2096 C2094 1.415 . S
C2096 C2101 1.425 . S
C2096 C2103 1.409 . S
C2097 H2089 0.930 . S
C2097 C2095 1.419 . S
C2097 C2098 1.362 . S
C2098 H2090 0.930 . S
C2098 C2097 1.362 . S
C2098 C2101 1.409 . S
C2099 H2091 0.930 . S
C2099 C2100 1.355 . S
C2099 C2101 1.415 . S
C2100 C2099 1.355 . S
C2100 C2102 1.419 . S
C2101 C2096 1.425 . S
C2101 C2098 1.409 . S
C2101 C2099 1.415 . S
C2102 H2092 0.930 . S
C2102 C2100 1.419 . S
C2102 C2103 1.362 . S
C2103 H2093 0.930 . S
C2103 C2096 1.409 . S
C2103 C2102 1.362 . S
H2104 C2110 0.930 . S
H2105 C2113 0.930 . S
H2106 C2114 0.930 . S
H2107 C2115 0.930 . S
H2108 C2118 0.930 . S
H2109 C2119 0.930 . S
C2110 H2104 0.930 . S
C2110 C2111 1.355 . S
C2110 C2112 1.415 . S
C2111 C2110 1.355 . S
C2111 C2113 1.419 . S
C2112 C2110 1.415 . S
C2112 C2117 1.425 . S
C2112 C2119 1.409 . S
C2113 H2105 0.930 . S
C2113 C2111 1.419 . S
C2113 C2114 1.362 . S
C2114 H2106 0.930 . S
C2114 C2113 1.362 . S
C2114 C2117 1.409 . S
C2115 H2107 0.930 . S
C2115 C2116 1.355 . S
C2115 C2117 1.415 . S
C2116 C2115 1.355 . S
C2116 C2118 1.419 . S
C2117 C2112 1.425 . S
C2117 C2114 1.409 . S
C2117 C2115 1.415 . S
C2118 H2108 0.930 . S
C2118 C2116 1.419 . S
C2118 C2119 1.362 . S
C2119 H2109 0.930 . S
C2119 C2112 1.409 . S
C2119 C2118 1.362 . S
H2120 C2126 0.930 . S
H2121 C2129 0.930 . S
H2122 C2130 0.930 . S
H2123 C2131 0.930 . S
H2124 C2134 0.930 . S
H2125 C2135 0.930 . S
C2126 H2120 0.930 . S
C2126 C2127 1.355 . S
C2126 C2128 1.415 . S
C2127 C2126 1.355 . S
C2127 C2129 1.419 . S
C2128 C2126 1.415 . S
C2128 C2133 1.425 . S
C2128 C2135 1.409 . S
C2129 H2121 0.930 . S
C2129 C2127 1.419 . S
C2129 C2130 1.362 . S
C2130 H2122 0.930 . S
C2130 C2129 1.362 . S
C2130 C2133 1.409 . S
C2131 H2123 0.930 . S
C2131 C2132 1.355 . S
C2131 C2133 1.415 . S
C2132 C2131 1.355 . S
C2132 C2134 1.419 . S
C2133 C2128 1.425 . S
C2133 C2130 1.409 . S
C2133 C2131 1.415 . S
C2134 H2124 0.930 . S
C2134 C2132 1.419 . S
C2134 C2135 1.362 . S
C2135 H2125 0.930 . S
C2135 C2128 1.409 . S
C2135 C2134 1.362 . S
H2136 C2142 0.930 . S
H2137 C2145 0.930 . S
H2138 C2146 0.930 . S
H2139 C2147 0.930 . S
H2140 C2150 0.930 . S
H2141 C2151 0.930 . S
C2142 H2136 0.930 . S
C2142 C2143 1.355 . S
C2142 C2144 1.415 . S
C2143 C2142 1.355 . S
C2143 C2145 1.419 . S
C2144 C2142 1.415 . S
C2144 C2149 1.425 . S
C2144 C2151 1.409 . S
C2145 H2137 0.930 . S
C2145 C2143 1.419 . S
C2145 C2146 1.362 . S
C2146 H2138 0.930 . S
C2146 C2145 1.362 . S
C2146 C2149 1.409 . S
C2147 H2139 0.930 . S
C2147 C2148 1.355 . S
C2147 C2149 1.415 . S
C2148 C2147 1.355 . S
C2148 C2150 1.419 . S
C2149 C2144 1.425 . S
C2149 C2146 1.409 . S
C2149 C2147 1.415 . S
C2150 H2140 0.930 . S
C2150 C2148 1.419 . S
C2150 C2151 1.362 . S
C2151 H2141 0.930 . S
C2151 C2144 1.409 . S
C2151 C2150 1.362 . S
H2152 C2158 0.930 . S
H2153 C2161 0.930 . S
H2154 C2162 0.930 . S
H2155 C2163 0.930 . S
H2156 C2166 0.930 . S
H2157 C2167 0.930 . S
C2158 H2152 0.930 . S
C2158 C2159 1.355 . S
C2158 C2160 1.415 . S
C2159 C2158 1.355 . S
C2159 C2161 1.419 . S
C2160 C2158 1.415 . S
C2160 C2165 1.425 . S
C2160 C2167 1.409 . S
C2161 H2153 0.930 . S
C2161 C2159 1.419 . S
C2161 C2162 1.362 . S
C2162 H2154 0.930 . S
C2162 C2161 1.362 . S
C2162 C2165 1.409 . S
C2163 H2155 0.930 . S
C2163 C2164 1.355 . S
C2163 C2165 1.415 . S
C2164 C2163 1.355 . S
C2164 C2166 1.419 . S
C2165 C2160 1.425 . S
C2165 C2162 1.409 . S
C2165 C2163 1.415 . S
C2166 H2156 0.930 . S
C2166 C2164 1.419 . S
C2166 C2167 1.362 . S
C2167 H2157 0.930 . S
C2167 C2160 1.409 . S
C2167 C2166 1.362 . S
H2168 C2174 0.930 . S
H2169 C2177 0.930 . S
H2170 C2178 0.930 . S
H2171 C2179 0.930 . S
H2172 C2182 0.930 . S
H2173 C2183 0.930 . S
C2174 H2168 0.930 . S
C2174 C2175 1.355 . S
C2174 C2176 1.415 . S
C2175 C2174 1.355 . S
C2175 C2177 1.419 . S
C2176 C2174 1.415 . S
C2176 C2181 1.425 . S
C2176 C2183 1.409 . S
C2177 H2169 0.930 . S
C2177 C2175 1.419 . S
C2177 C2178 1.362 . S
C2178 H2170 0.930 . S
C2178 C2177 1.362 . S
C2178 C2181 1.409 . S
C2179 H2171 0.930 . S
C2179 C2180 1.355 . S
C2179 C2181 1.415 . S
C2180 C2179 1.355 . S
C2180 C2182 1.419 . S
C2181 C2176 1.425 . S
C2181 C2178 1.409 . S
C2181 C2179 1.415 . S
C2182 H2172 0.930 . S
C2182 C2180 1.419 . S
C2182 C2183 1.362 . S
C2183 H2173 0.930 . S
C2183 C2176 1.409 . S
C2183 C2182 1.362 . S
C1423 C1301 1.645 . S
C1428 C3 1.657 . S
C1439 C62 1.700 . S
C1444 C949 1.747 . S
C1455 C1360 1.629 . S
C1460 C123 1.678 . S
C1471 C1244 1.732 . S
C1476 C182 1.736 . S
C1487 C1067 1.678 . S
C1492 C241 1.676 . S
C1503 C1124 1.708 . S
C1508 C298 1.709 . S
C1519 C1185 1.754 . S
C1524 C357 1.712 . S
C1535 C418 1.687 . S
C1540 C1006 1.627 . S
C1551 C770 1.704 . S
C1556 C475 1.694 . S
C1567 C831 1.740 . S
C1572 C536 1.743 . S
C1583 C593 1.649 . S
C1588 C888 1.638 . S
C1599 C654 1.690 . S
C1604 C713 1.686 . S
C1615 C416 1.675 . S
C1620 C829 1.662 . S
C1631 C890 1.744 . S
C1636 C239 1.707 . S
C1647 C300 1.686 . S
C1652 C711 1.640 . S
C1663 C772 1.738 . S
C1668 C359 1.733 . S
C1679 C595 1.675 . S
C1684 C64 1.676 . S
C1695 C121 1.627 . S
C1700 C652 1.621 . S
C1711 C180 1.627 . S
C1716 C477 1.680 . S
C1727 C5 1.749 . S
C1732 C534 1.705 . S
C1743 C1183 1.664 . S
C1748 C1242 1.677 . S
C1759 C1303 1.704 . S
C1764 C1008 1.709 . S
C1775 C1065 1.622 . S
C1780 C947 1.622 . S
C1791 C1362 1.709 . S
C1796 C1126 1.704 . S
C1807 C33 0.798 . S
C1812 C524 0.850 . S
C1823 C564 0.780 . S
C1828 C92 0.820 . S
C1839 C170 0.819 . S
C1844 C642 0.797 . S
C1855 C229 0.877 . S
C1860 C682 0.831 . S
C1871 C288 0.875 . S
C1876 C741 0.830 . S
C1887 C328 0.789 . S
C1892 C819 0.837 . S
C1903 C859 0.799 . S
C1908 C387 0.787 . S
C1919 C937 0.804 . S
C1924 C465 0.834 . S
C1935 C505 0.851 . S
C1940 C977 0.795 . S
C1951 C583 0.826 . S
C1956 C1409 0.864 . S
C1967 C1272 0.878 . S
C1972 C623 0.895 . S
C1983 C1350 0.800 . S
C1988 C701 0.832 . S
C1999 C1055 0.824 . S
C2004 C760 0.861 . S
C2015 C1095 0.865 . S
C2020 C800 0.805 . S
C2031 C878 0.866 . S
C2036 C1173 0.829 . S
C2047 C918 0.787 . S
C2052 C1213 0.811 . S
C2063 C52 0.889 . S
C2068 C996 0.887 . S
C2079 C1036 0.792 . S
C2084 C269 0.851 . S
C2095 C1114 0.859 . S
C2100 C347 0.821 . S
C2111 C1154 0.893 . S
C2116 C406 0.858 . S
C2127 C1232 0.864 . S
C2132 C446 0.896 . S
C2143 C1291 0.847 . S
C2148 C151 0.888 . S
C2159 C210 0.802 . S
C2164 C1331 0.785 . S
C2175 C1390 0.781 . S
C2180 C111 0.808 . S
