# Generated by pormake.
# Topology uka, (4)-cn, num edge types: 1
# Building blocks:
#     Node 0, Type 0, BuildingBlock: KUFVIS_clean_sbu_0, # of connection points: 4
#     Node 1, Type 0, BuildingBlock: KUFVIS_clean_sbu_0, # of connection points: 4
#     Node 2, Type 0, BuildingBlock: KUFVIS_clean_sbu_0, # of connection points: 4
#     Node 3, Type 0, BuildingBlock: KUFVIS_clean_sbu_0, # of connection points: 4
#     Node 4, Type 0, BuildingBlock: KUFVIS_clean_sbu_0, # of connection points: 4
#     Node 5, Type 0, BuildingBlock: KUFVIS_clean_sbu_0, # of connection points: 4
#     Node 6, Type 0, BuildingBlock: KUFVIS_clean_sbu_0, # of connection points: 4
#     Node 7, Type 0, BuildingBlock: KUFVIS_clean_sbu_0, # of connection points: 4
#     Node 8, Type 0, BuildingBlock: KUFVIS_clean_sbu_0, # of connection points: 4
#     Node 9, Type 0, BuildingBlock: KUFVIS_clean_sbu_0, # of connection points: 4
#     Node 10, Type 0, BuildingBlock: KUFVIS_clean_sbu_0, # of connection points: 4
#     Node 11, Type 0, BuildingBlock: KUFVIS_clean_sbu_0, # of connection points: 4
#     Node 12, Type 0, BuildingBlock: KUFVIS_clean_sbu_0, # of connection points: 4
#     Node 13, Type 0, BuildingBlock: KUFVIS_clean_sbu_0, # of connection points: 4
#     Node 14, Type 0, BuildingBlock: KUFVIS_clean_sbu_0, # of connection points: 4
#     Node 15, Type 0, BuildingBlock: KUFVIS_clean_sbu_0, # of connection points: 4
#     Node 16, Type 0, BuildingBlock: KUFVIS_clean_sbu_0, # of connection points: 4
#     Node 17, Type 0, BuildingBlock: KUFVIS_clean_sbu_0, # of connection points: 4
#     Node 18, Type 0, BuildingBlock: KUFVIS_clean_sbu_0, # of connection points: 4
#     Node 19, Type 0, BuildingBlock: KUFVIS_clean_sbu_0, # of connection points: 4
#     Node 20, Type 0, BuildingBlock: KUFVIS_clean_sbu_0, # of connection points: 4
#     Node 21, Type 0, BuildingBlock: KUFVIS_clean_sbu_0, # of connection points: 4
#     Node 22, Type 0, BuildingBlock: KUFVIS_clean_sbu_0, # of connection points: 4
#     Node 23, Type 0, BuildingBlock: KUFVIS_clean_sbu_0, # of connection points: 4
#     Node 24, Type 0, BuildingBlock: KUFVIS_clean_sbu_0, # of connection points: 4
#     Node 25, Type 0, BuildingBlock: KUFVIS_clean_sbu_0, # of connection points: 4
#     Node 26, Type 0, BuildingBlock: KUFVIS_clean_sbu_0, # of connection points: 4
#     Node 27, Type 0, BuildingBlock: KUFVIS_clean_sbu_0, # of connection points: 4
#     Node 28, Type 0, BuildingBlock: KUFVIS_clean_sbu_0, # of connection points: 4
#     Node 29, Type 0, BuildingBlock: KUFVIS_clean_sbu_0, # of connection points: 4
#     Node 30, Type 0, BuildingBlock: KUFVIS_clean_sbu_0, # of connection points: 4
#     Node 31, Type 0, BuildingBlock: KUFVIS_clean_sbu_0, # of connection points: 4
#     Edge 32, Type (0, 0), BuildingBlock: XIVTED_clean_linker_0, # of connection points: 2
#     Edge 33, Type (0, 0), BuildingBlock: XIVTED_clean_linker_0, # of connection points: 2
#     Edge 34, Type (0, 0), BuildingBlock: XIVTED_clean_linker_0, # of connection points: 2
#     Edge 35, Type (0, 0), BuildingBlock: XIVTED_clean_linker_0, # of connection points: 2
#     Edge 36, Type (0, 0), BuildingBlock: XIVTED_clean_linker_0, # of connection points: 2
#     Edge 37, Type (0, 0), BuildingBlock: XIVTED_clean_linker_0, # of connection points: 2
#     Edge 38, Type (0, 0), BuildingBlock: XIVTED_clean_linker_0, # of connection points: 2
#     Edge 39, Type (0, 0), BuildingBlock: XIVTED_clean_linker_0, # of connection points: 2
#     Edge 40, Type (0, 0), BuildingBlock: XIVTED_clean_linker_0, # of connection points: 2
#     Edge 41, Type (0, 0), BuildingBlock: XIVTED_clean_linker_0, # of connection points: 2
#     Edge 42, Type (0, 0), BuildingBlock: XIVTED_clean_linker_0, # of connection points: 2
#     Edge 43, Type (0, 0), BuildingBlock: XIVTED_clean_linker_0, # of connection points: 2
#     Edge 44, Type (0, 0), BuildingBlock: XIVTED_clean_linker_0, # of connection points: 2
#     Edge 45, Type (0, 0), BuildingBlock: XIVTED_clean_linker_0, # of connection points: 2
#     Edge 46, Type (0, 0), BuildingBlock: XIVTED_clean_linker_0, # of connection points: 2
#     Edge 47, Type (0, 0), BuildingBlock: XIVTED_clean_linker_0, # of connection points: 2
#     Edge 48, Type (0, 0), BuildingBlock: XIVTED_clean_linker_0, # of connection points: 2
#     Edge 49, Type (0, 0), BuildingBlock: XIVTED_clean_linker_0, # of connection points: 2
#     Edge 50, Type (0, 0), BuildingBlock: XIVTED_clean_linker_0, # of connection points: 2
#     Edge 51, Type (0, 0), BuildingBlock: XIVTED_clean_linker_0, # of connection points: 2
#     Edge 52, Type (0, 0), BuildingBlock: XIVTED_clean_linker_0, # of connection points: 2
#     Edge 53, Type (0, 0), BuildingBlock: XIVTED_clean_linker_0, # of connection points: 2
#     Edge 54, Type (0, 0), BuildingBlock: XIVTED_clean_linker_0, # of connection points: 2
#     Edge 55, Type (0, 0), BuildingBlock: XIVTED_clean_linker_0, # of connection points: 2
#     Edge 56, Type (0, 0), BuildingBlock: XIVTED_clean_linker_0, # of connection points: 2
#     Edge 57, Type (0, 0), BuildingBlock: XIVTED_clean_linker_0, # of connection points: 2
#     Edge 58, Type (0, 0), BuildingBlock: XIVTED_clean_linker_0, # of connection points: 2
#     Edge 59, Type (0, 0), BuildingBlock: XIVTED_clean_linker_0, # of connection points: 2
#     Edge 60, Type (0, 0), BuildingBlock: XIVTED_clean_linker_0, # of connection points: 2
#     Edge 61, Type (0, 0), BuildingBlock: XIVTED_clean_linker_0, # of connection points: 2
#     Edge 62, Type (0, 0), BuildingBlock: XIVTED_clean_linker_0, # of connection points: 2
#     Edge 63, Type (0, 0), BuildingBlock: XIVTED_clean_linker_0, # of connection points: 2
#     Edge 64, Type (0, 0), BuildingBlock: XIVTED_clean_linker_0, # of connection points: 2
#     Edge 65, Type (0, 0), BuildingBlock: XIVTED_clean_linker_0, # of connection points: 2
#     Edge 66, Type (0, 0), BuildingBlock: XIVTED_clean_linker_0, # of connection points: 2
#     Edge 67, Type (0, 0), BuildingBlock: XIVTED_clean_linker_0, # of connection points: 2
#     Edge 68, Type (0, 0), BuildingBlock: XIVTED_clean_linker_0, # of connection points: 2
#     Edge 69, Type (0, 0), BuildingBlock: XIVTED_clean_linker_0, # of connection points: 2
#     Edge 70, Type (0, 0), BuildingBlock: XIVTED_clean_linker_0, # of connection points: 2
#     Edge 71, Type (0, 0), BuildingBlock: XIVTED_clean_linker_0, # of connection points: 2
#     Edge 72, Type (0, 0), BuildingBlock: XIVTED_clean_linker_0, # of connection points: 2
#     Edge 73, Type (0, 0), BuildingBlock: XIVTED_clean_linker_0, # of connection points: 2
#     Edge 74, Type (0, 0), BuildingBlock: XIVTED_clean_linker_0, # of connection points: 2
#     Edge 75, Type (0, 0), BuildingBlock: XIVTED_clean_linker_0, # of connection points: 2
#     Edge 76, Type (0, 0), BuildingBlock: XIVTED_clean_linker_0, # of connection points: 2
#     Edge 77, Type (0, 0), BuildingBlock: XIVTED_clean_linker_0, # of connection points: 2
#     Edge 78, Type (0, 0), BuildingBlock: XIVTED_clean_linker_0, # of connection points: 2
#     Edge 79, Type (0, 0), BuildingBlock: XIVTED_clean_linker_0, # of connection points: 2
#     Edge 80, Type (0, 0), BuildingBlock: XIVTED_clean_linker_0, # of connection points: 2
#     Edge 81, Type (0, 0), BuildingBlock: XIVTED_clean_linker_0, # of connection points: 2
#     Edge 82, Type (0, 0), BuildingBlock: XIVTED_clean_linker_0, # of connection points: 2
#     Edge 83, Type (0, 0), BuildingBlock: XIVTED_clean_linker_0, # of connection points: 2
#     Edge 84, Type (0, 0), BuildingBlock: XIVTED_clean_linker_0, # of connection points: 2
#     Edge 85, Type (0, 0), BuildingBlock: XIVTED_clean_linker_0, # of connection points: 2
#     Edge 86, Type (0, 0), BuildingBlock: XIVTED_clean_linker_0, # of connection points: 2
#     Edge 87, Type (0, 0), BuildingBlock: XIVTED_clean_linker_0, # of connection points: 2
#     Edge 88, Type (0, 0), BuildingBlock: XIVTED_clean_linker_0, # of connection points: 2
#     Edge 89, Type (0, 0), BuildingBlock: XIVTED_clean_linker_0, # of connection points: 2
#     Edge 90, Type (0, 0), BuildingBlock: XIVTED_clean_linker_0, # of connection points: 2
#     Edge 91, Type (0, 0), BuildingBlock: XIVTED_clean_linker_0, # of connection points: 2
#     Edge 92, Type (0, 0), BuildingBlock: XIVTED_clean_linker_0, # of connection points: 2
#     Edge 93, Type (0, 0), BuildingBlock: XIVTED_clean_linker_0, # of connection points: 2
#     Edge 94, Type (0, 0), BuildingBlock: XIVTED_clean_linker_0, # of connection points: 2
#     Edge 95, Type (0, 0), BuildingBlock: XIVTED_clean_linker_0, # of connection points: 2
# Relax obj value: 0.145
# Max RMSD: 0.209
# Mean RMSD: 0.204
data_MOF--net-uka--node1-KUFVIS_clean_sbu_0--edge1-XIVTED_clean_linker_0
_symmetry_space_group_name_H-M    P1
_symmetry_Int_Tables_number       1
_symmetry_cell_setting            triclinic
loop_
_symmetry_equiv_pos_as_xyz
'x, y, z'
_cell_length_a     57.824883
_cell_length_b     60.023185
_cell_length_c     42.412476
_cell_angle_alpha  90.022307
_cell_angle_beta   90.037199
_cell_angle_gamma 89.962446
loop_
_atom_site_label
_atom_site_type_symbol
_atom_site_fract_x
_atom_site_fract_y
_atom_site_fract_z
_atom_type_partial_charge
Mn0 Mn 0.11081 0.25927 0.26532 0.0
Mn1 Mn 0.10511 0.21679 0.21405 0.0
C2 C 0.11835 0.2235 0.28169 0.0
C3 C 0.09437 0.28254 0.3027 0.0
C4 C 0.14701 0.24693 0.216 0.0
O5 O 0.0923 0.27316 0.23001 0.0
O6 O 0.08933 0.24386 0.1971 0.0
C7 C 0.05452 0.21023 0.21921 0.0
N8 N 0.0764 0.20198 0.22155 0.0
C9 C 0.06212 0.16581 0.23632 0.0
C10 C 0.03943 0.17388 0.23385 0.0
C11 C 0.03562 0.19619 0.22528 0.0
C12 C 0.08026 0.18051 0.22963 0.0
H13 H 0.05151 0.2274 0.21279 0.0
C14 C 0.08539 0.26424 0.20446 0.0
O15 O 0.11297 0.28853 0.2877 0.0
O16 O 0.08511 0.26367 0.29504 0.0
N17 N 0.11934 0.1896 0.22742 0.0
C18 C 0.14227 0.18486 0.23072 0.0
C19 C 0.14904 0.16346 0.24041 0.0
C20 C 0.1322 0.14715 0.24641 0.0
C21 C 0.10872 0.15238 0.24262 0.0
C22 C 0.10301 0.17395 0.2327 0.0
H23 H 0.15528 0.19737 0.22628 0.0
O24 O 0.1268 0.24046 0.29674 0.0
O25 O 0.10521 0.22803 0.25748 0.0
O26 O 0.14014 0.25963 0.23825 0.0
O27 O 0.13518 0.23064 0.20528 0.0
C28 C 0.09075 0.1372 0.24897 0.0
C29 C 0.06747 0.1439 0.24581 0.0
H30 H 0.02481 0.16316 0.23876 0.0
H31 H 0.01816 0.20257 0.22348 0.0
H32 H 0.16719 0.15957 0.24335 0.0
H33 H 0.13748 0.13072 0.25414 0.0
H34 H 0.09463 0.12041 0.25671 0.0
H35 H 0.0538 0.13216 0.25115 0.0
Mn36 Mn 0.94955 0.88061 0.51558 0.0
Mn37 Mn 3e-05 0.87767 0.47594 0.0
C38 C 0.98381 0.87773 0.54306 0.0
C39 C 0.91776 0.8624 0.53629 0.0
C40 C 0.9735 0.9207 0.48672 0.0
O41 O 0.93942 0.87378 0.47069 0.0
O42 O 0.97416 0.8682 0.44803 0.0
C43 C 0.00258 0.82881 0.46675 0.0
N44 N 0.0122 0.84807 0.47753 0.0
C45 C 0.04631 0.82867 0.49499 0.0
C46 C 0.0369 0.80868 0.48368 0.0
C47 C 0.0149 0.80875 0.46961 0.0
C48 C 0.0333 0.84818 0.49128 0.0
H49 H 0.9856 0.82875 0.45617 0.0
C50 C 0.952 0.86784 0.44746 0.0
O51 O 0.91685 0.88359 0.53016 0.0
O52 O 0.93676 0.8519 0.52988 0.0
N53 N 0.02661 0.8859 0.50028 0.0
C54 C 0.03248 0.90625 0.51207 0.0
C55 C 0.05352 0.9088 0.52824 0.0
C56 C 0.06841 0.89048 0.53184 0.0
C57 C 0.06213 0.86976 0.51919 0.0
C58 C 0.04098 0.86824 0.50321 0.0
H59 H 0.02114 0.92041 0.50943 0.0
O60 O 0.96524 0.88478 0.55696 0.0
O61 O 0.98162 0.87175 0.51372 0.0
O62 O 0.95735 0.91263 0.50367 0.0
O63 O 0.9893 0.90887 0.4739 0.0
C64 C 0.07581 0.85046 0.52237 0.0
C65 C 0.06787 0.82992 0.51038 0.0
H66 H 0.04628 0.79314 0.48602 0.0
H67 H 0.00743 0.79335 0.46109 0.0
H68 H 0.05823 0.92484 0.53798 0.0
H69 H 0.08452 0.89246 0.54458 0.0
H70 H 0.09233 0.85116 0.53438 0.0
H71 H 0.07836 0.81512 0.51348 0.0
Mn72 Mn 0.36063 0.71662 0.80081 0.0
Mn73 Mn 0.38163 0.76094 0.76128 0.0
C74 C 0.37275 0.74786 0.82784 0.0
C75 C 0.36682 0.68302 0.82614 0.0
C76 C 0.33047 0.75023 0.76602 0.0
O77 O 0.36753 0.70363 0.7575 0.0
O78 O 0.38377 0.73372 0.73463 0.0
C79 C 0.43067 0.74681 0.75782 0.0
N80 N 0.41447 0.76211 0.76653 0.0
C81 C 0.44367 0.78613 0.78847 0.0
C82 C 0.46068 0.77078 0.77927 0.0
C83 C 0.45413 0.75102 0.76395 0.0
C84 C 0.42057 0.78114 0.78143 0.0
H85 H 0.42573 0.73144 0.74648 0.0
C86 C 0.37791 0.71311 0.73457 0.0
O87 O 0.3463 0.68836 0.81619 0.0
O88 O 0.38362 0.69665 0.82026 0.0
N89 N 0.38106 0.78819 0.78481 0.0
C90 C 0.36247 0.80069 0.79367 0.0
C91 C 0.36602 0.82071 0.81012 0.0
C92 C 0.38861 0.82771 0.81721 0.0
C93 C 0.40746 0.81467 0.80762 0.0
C94 C 0.40288 0.79501 0.79095 0.0
H95 H 0.34507 0.79535 0.78848 0.0
O96 O 0.35862 0.73394 0.84097 0.0
O97 O 0.37949 0.74296 0.79949 0.0
O98 O 0.33263 0.73305 0.78344 0.0
O99 O 0.34762 0.76148 0.75559 0.0
C100 C 0.4306 0.8202 0.81451 0.0
C101 C 0.44868 0.80593 0.80497 0.0
H102 H 0.47878 0.77387 0.78419 0.0
H103 H 0.46712 0.73899 0.75704 0.0
H104 H 0.35137 0.83065 0.8175 0.0
H105 H 0.39126 0.84301 0.83026 0.0
H106 H 0.43465 0.83523 0.82752 0.0
H107 H 0.46638 0.81021 0.81079 0.0
Mn108 Mn 0.53474 0.11987 0.01521 0.0
Mn109 Mn 0.49031 0.11255 0.96449 0.0
C110 C 0.49754 0.11854 0.03397 0.0
C111 C 0.56035 0.14351 0.04074 0.0
C112 C 0.52087 0.07488 0.9877 0.0
O113 O 0.54922 0.12641 0.97277 0.0
O114 O 0.51806 0.12335 0.94117 0.0
C115 C 0.48276 0.15953 0.94579 0.0
N116 N 0.47447 0.14015 0.95806 0.0
C117 C 0.43662 0.1561 0.965 0.0
C118 C 0.4447 0.17617 0.9522 0.0
C119 C 0.46788 0.1779 0.9426 0.0
C120 C 0.45218 0.13828 0.96728 0.0
H121 H 0.50059 0.16099 0.93854 0.0
C122 C 0.53943 0.12796 0.94593 0.0
O123 O 0.56513 0.12251 0.03716 0.0
O124 O 0.54106 0.15075 0.02899 0.0
N125 N 0.46223 0.1026 0.98384 0.0
C126 C 0.45757 0.08262 -0.00228 0.0
C127 C 0.43537 0.07855 0.0098 0.0
C128 C 0.41815 0.09497 0.00731 0.0
C129 C 0.42328 0.1153 0.99265 0.0
C130 C 0.44566 0.11836 0.98081 0.0
H131 H 0.47074 0.06996 -0.00013 0.0
O132 O 0.51492 0.11499 0.05265 0.0
O133 O 0.50243 0.12356 0.00484 0.0
O134 O 0.53373 0.08653 0.00573 0.0
O135 O 0.50494 0.08316 0.97041 0.0
C136 C 0.40722 0.13287 0.99007 0.0
C137 C 0.41388 0.15325 0.97625 0.0
H138 H 0.43334 0.19044 0.94995 0.0
H139 H 0.47428 0.19337 0.93288 0.0
H140 H 0.43157 0.06282 0.02114 0.0
H141 H 0.40112 0.09185 0.01698 0.0
H142 H 0.38981 0.13101 -0.0009 0.0
H143 H 0.40148 0.16675 0.97482 0.0
Mn144 Mn 0.1381 0.70309 0.19189 0.0
Mn145 Mn 0.12391 0.74462 0.24189 0.0
C146 C 0.12466 0.73652 0.17259 0.0
C147 C 0.1275 0.67177 0.16347 0.0
C148 C 0.17323 0.7329 0.22483 0.0
O149 O 0.13532 0.68704 0.23404 0.0
O150 O 0.12407 0.71579 0.26483 0.0
C151 C 0.07543 0.73153 0.25446 0.0
N152 N 0.09097 0.74689 0.24402 0.0
C153 C 0.06054 0.77274 0.23127 0.0
C154 C 0.04423 0.75726 0.24211 0.0
C155 C 0.05172 0.73656 0.25372 0.0
C156 C 0.08396 0.76687 0.23282 0.0
H157 H 0.0811 0.71552 0.26316 0.0
C158 C 0.12889 0.69518 0.26045 0.0
O159 O 0.14912 0.67575 0.16959 0.0
O160 O 0.11224 0.68537 0.17482 0.0
N161 N 0.12289 0.77336 0.22238 0.0
C162 C 0.14074 0.78601 0.21152 0.0
C163 C 0.13614 0.80706 0.19849 0.0
C164 C 0.11328 0.81489 0.19683 0.0
C165 C 0.09521 0.80165 0.20844 0.0
C166 C 0.10087 0.78094 0.22154 0.0
H167 H 0.15834 0.78002 0.21256 0.0
O168 O 0.13648 0.72326 0.15465 0.0
O169 O 0.12086 0.72966 0.20118 0.0
O170 O 0.16862 0.71743 0.2052 0.0
O171 O 0.15801 0.7437 0.2404 0.0
C172 C 0.07178 0.80803 0.20702 0.0
C173 C 0.05446 0.79358 0.2184 0.0
H174 H 0.02591 0.761 0.24135 0.0
H175 H 0.03922 0.72447 0.26194 0.0
H176 H 0.15017 0.81716 0.18954 0.0
H177 H 0.10977 0.83102 0.18642 0.0
H178 H 0.06687 0.82391 0.19689 0.0
H179 H 0.03649 0.79856 0.21684 0.0
Mn180 Mn 0.53757 0.89276 0.47658 0.0
Mn181 Mn 0.48974 0.89393 0.52189 0.0
C182 C 0.50152 0.8912 0.45328 0.0
C183 C 0.56637 0.87158 0.45287 0.0
C184 C 0.51837 0.93497 0.50621 0.0
O185 O 0.55001 0.8862 0.52066 0.0
O186 O 0.51639 0.88283 0.5471 0.0
C187 C 0.48353 0.84566 0.53349 0.0
N188 N 0.475 0.86544 0.52291 0.0
C189 C 0.43856 0.84855 0.50947 0.0
C190 C 0.44685 0.82807 0.52068 0.0
C191 C 0.46946 0.82661 0.53265 0.0
C192 C 0.45327 0.86704 0.51131 0.0
H193 H 0.501 0.84438 0.54231 0.0
C194 C 0.53846 0.88108 0.54529 0.0
O195 O 0.56933 0.89278 0.45764 0.0
O196 O 0.54722 0.86279 0.46251 0.0
N197 N 0.46267 0.90387 0.49992 0.0
C198 C 0.45811 0.92427 0.48723 0.0
C199 C 0.4367 0.92813 0.47259 0.0
C200 C 0.42016 0.91104 0.47122 0.0
C201 C 0.42518 0.89022 0.48454 0.0
C202 C 0.44674 0.88739 0.4991 0.0
H203 H 0.47076 0.93746 0.48802 0.0
O204 O 0.51952 0.89689 0.43697 0.0
O205 O 0.50528 0.88598 0.48258 0.0
O206 O 0.53268 0.92572 0.48738 0.0
O207 O 0.50305 0.92419 0.52164 0.0
C208 C 0.40989 0.87198 0.48315 0.0
C209 C 0.41657 0.85117 0.49563 0.0
H210 H 0.43614 0.81328 0.51974 0.0
H211 H 0.47607 0.81081 0.54102 0.0
H212 H 0.43299 0.94423 0.46225 0.0
H213 H 0.40377 0.91402 0.45959 0.0
H214 H 0.39312 0.87367 0.472 0.0
H215 H 0.40484 0.83716 0.49387 0.0
Mn216 Mn 0.36804 0.27424 0.71511 0.0
Mn217 Mn 0.36553 0.23431 0.77042 0.0
C218 C 0.3587 0.23845 0.70029 0.0
C219 C 0.39125 0.29425 0.68093 0.0
C220 C 0.32791 0.26909 0.75996 0.0
O221 O 0.38318 0.28838 0.75319 0.0
O222 O 0.38547 0.25908 0.78626 0.0
C223 C 0.41419 0.21902 0.77038 0.0
N224 N 0.39126 0.21448 0.76691 0.0
C225 C 0.39917 0.17581 0.75654 0.0
C226 C 0.42286 0.18002 0.76032 0.0
C227 C 0.43039 0.20173 0.76722 0.0
C228 C 0.3838 0.19365 0.76035 0.0
H229 H 0.42006 0.23572 0.7754 0.0
C230 C 0.38979 0.27936 0.77881 0.0
O231 O 0.37164 0.30245 0.69055 0.0
O232 O 0.39729 0.27494 0.69169 0.0
N233 N 0.34704 0.20937 0.75793 0.0
C234 C 0.32381 0.20847 0.75259 0.0
C235 C 0.31361 0.18813 0.74398 0.0
C236 C 0.32736 0.16895 0.74104 0.0
C237 C 0.3512 0.17026 0.74678 0.0
C238 C 0.36038 0.19094 0.75556 0.0
H239 H 0.31316 0.22316 0.75469 0.0
O240 O 0.35412 0.25517 0.68195 0.0
O241 O 0.3695 0.24322 0.72643 0.0
O242 O 0.33633 0.2782 0.73537 0.0
O243 O 0.33805 0.25355 0.77533 0.0
C244 C 0.36629 0.15198 0.74343 0.0
C245 C 0.39026 0.15474 0.74832 0.0
H246 H 0.43543 0.16677 0.7576 0.0
H247 H 0.44866 0.20514 0.76994 0.0
H248 H 0.2952 0.18727 0.73952 0.0
H249 H 0.31945 0.15334 0.73411 0.0
H250 H 0.3597 0.13578 0.73665 0.0
H251 H 0.40172 0.14064 0.7452 0.0
Mn252 Mn 0.98074 0.11562 0.98989 0.0
Mn253 Mn 0.0247 0.10738 0.04088 0.0
C254 C 0.01717 0.10812 0.97132 0.0
C255 C 0.95816 0.13916 0.95924 0.0
C256 C 0.9896 0.07186 0.02448 0.0
O257 O 0.9682 0.12834 0.0304 0.0
O258 O -0.00167 0.12218 0.06299 0.0
C259 C 0.03691 0.15448 0.05352 0.0
N260 N 0.04311 0.13378 0.04336 0.0
C261 C 0.082 0.14598 0.03293 0.0
C262 C 0.07606 0.16737 0.04349 0.0
C263 C 0.05341 0.17163 0.05381 0.0
C264 C 0.06491 0.12946 0.03359 0.0
H265 H 0.01949 0.15792 0.06129 0.0
C266 C 0.97801 0.12978 0.0572 0.0
O267 O 0.95043 0.11986 0.96823 0.0
O268 O 0.97851 0.145 0.96903 0.0
N269 N 0.05142 0.0938 0.02234 0.0
C270 C 0.05392 0.07275 0.01073 0.0
C271 C 0.07531 0.06612 -0.0018 0.0
C272 C 0.09392 0.08114 -0.00221 0.0
C273 C 0.09098 0.10267 0.00998 0.0
C274 C 0.06931 0.10829 0.02243 0.0
H275 H 0.03964 0.06119 0.01068 0.0
O276 O -0.00089 0.1043 0.95395 0.0
O277 O 0.01335 0.11645 -0.00079 0.0
O278 O 0.97727 0.08388 0.00629 0.0
O279 O 0.00738 0.07914 0.03908 0.0
C280 C 0.10853 0.11893 0.00957 0.0
C281 C 0.10406 0.14056 0.02108 0.0
H282 H 0.08868 0.1807 0.04346 0.0
H283 H 0.04866 0.18812 0.06184 0.0
H284 H 0.07741 0.0495 0.9887 0.0
H285 H 0.11032 0.07602 0.98781 0.0
H286 H 0.12545 0.11506 5e-05 0.0
H287 H 0.11761 0.15299 0.02025 0.0
Mn288 Mn 0.86678 0.7091 0.68813 0.0
Mn289 Mn 0.85216 0.6548 0.68799 0.0
C290 C 0.88986 0.68428 0.66189 0.0
C291 C 0.8614 0.74406 0.66566 0.0
C292 C 0.87561 0.67782 0.74336 0.0
O293 O 0.83408 0.70887 0.70442 0.0
O294 O 0.82398 0.6731 0.69689 0.0
C295 C 0.82233 0.65505 0.63122 0.0
N296 N 0.84119 0.6471 0.64686 0.0
C297 C 0.85197 0.62426 0.60258 0.0
C298 C 0.83255 0.63207 0.58612 0.0
C299 C 0.81768 0.64754 0.60051 0.0
C300 C 0.85565 0.63227 0.63319 0.0
H301 H 0.81099 0.66714 0.64203 0.0
C302 C 0.81915 0.69332 0.70411 0.0
O303 O 0.86883 0.74205 0.69448 0.0
O304 O 0.85684 0.72587 0.65046 0.0
N305 N 0.87744 0.63511 0.67918 0.0
C306 C 0.89522 0.62895 0.69841 0.0
C307 C 0.91159 0.61342 0.68761 0.0
C308 C 0.90942 0.60427 0.65727 0.0
C309 C 0.89065 0.61042 0.63822 0.0
C310 C 0.87468 0.62571 0.65044 0.0
H311 H 0.89704 0.63592 0.72174 0.0
O312 O 0.89755 0.70396 0.66884 0.0
O313 O 0.86844 0.68012 0.66923 0.0
O314 O 0.87861 0.6967 0.73005 0.0
O315 O 0.86447 0.66165 0.7307 0.0
C316 C 0.88725 0.6021 0.6075 0.0
C317 C 0.86795 0.60905 0.58966 0.0
H318 H 0.82897 0.6264 0.56236 0.0
H319 H 0.80274 0.65375 0.58788 0.0
H320 H 0.92593 0.60864 0.70255 0.0
H321 H 0.92223 0.59252 0.64887 0.0
H322 H 0.89943 0.59042 0.59731 0.0
H323 H 0.8656 0.60264 0.566 0.0
Mn324 Mn 0.04304 0.11834 0.47693 0.0
Mn325 Mn 0.99627 0.12853 0.52239 0.0
C326 C 0.00833 0.12869 0.45436 0.0
C327 C 0.07589 0.12977 0.45025 0.0
C328 C 0.01254 0.08212 0.50557 0.0
O329 O 0.05747 0.12232 0.52039 0.0
O330 O 0.02507 0.13004 0.54789 0.0
C331 C 0.00623 0.17579 0.53735 0.0
N332 N 0.99171 0.16003 0.52545 0.0
C333 C 0.96313 0.18776 0.51262 0.0
C334 C 0.97768 0.20425 0.52508 0.0
C335 C -0.00066 0.19823 0.53743 0.0
C336 C 0.97085 0.16565 0.51341 0.0
H337 H 0.023 0.17132 0.54658 0.0
C338 C 0.04707 0.12768 0.54586 0.0
O339 O 0.07278 0.10897 0.45741 0.0
O340 O 0.0607 0.14401 0.4603 0.0
N341 N 0.96733 0.12812 0.50041 0.0
C342 C 0.95593 0.11043 0.48759 0.0
C343 C 0.93429 0.11375 0.4733 0.0
C344 C 0.92454 0.13517 0.47249 0.0
C345 C 0.93646 0.15308 0.48614 0.0
C346 C 0.95788 0.14873 0.50033 0.0
H347 H 0.96337 0.09393 0.48797 0.0
O348 O 0.02373 0.11817 0.43791 0.0
O349 O 0.01374 0.13308 0.48343 0.0
O350 O 0.02993 0.08823 0.48936 0.0
O351 O -0.00095 0.09574 0.51963 0.0
C352 C 0.92817 0.17515 0.48563 0.0
C353 C 0.9415 0.19248 0.49882 0.0
H354 H 0.97251 0.2216 0.52496 0.0
H355 H 0.01076 0.21088 0.54684 0.0
H356 H 0.92521 0.09985 0.46279 0.0
H357 H 0.90796 0.13771 0.46114 0.0
H358 H 0.91171 0.17903 0.47472 0.0
H359 H 0.93509 0.20943 0.49786 0.0
Mn360 Mn 0.63569 0.29391 0.20166 0.0
Mn361 Mn 0.66126 0.34418 0.2063 0.0
C362 C 0.61744 0.32489 0.18173 0.0
C363 C 0.63084 0.26095 0.17349 0.0
C364 C 0.637 0.32201 0.26153 0.0
O365 O 0.66878 0.28622 0.21243 0.0
O366 O 0.68503 0.32031 0.21003 0.0
C367 C 0.68786 0.34206 0.14671 0.0
N368 N 0.67189 0.35243 0.16522 0.0
C369 C 0.66444 0.37989 0.12513 0.0
C370 C 0.68107 0.3697 0.10586 0.0
C371 C 0.69279 0.35068 0.11669 0.0
C372 C 0.66042 0.37068 0.15496 0.0
H373 H 0.69661 0.32721 0.15466 0.0
C374 C 0.68628 0.29908 0.21299 0.0
O375 O 0.62636 0.26179 0.20353 0.0
O376 O 0.63865 0.27893 0.16048 0.0
N377 N 0.64008 0.36857 0.20221 0.0
C378 C 0.62389 0.37591 0.22313 0.0
C379 C 0.6103 0.39455 0.21557 0.0
C380 C 0.61349 0.40548 0.18662 0.0
C381 C 0.63042 0.39778 0.16561 0.0
C382 C 0.64369 0.37932 0.17463 0.0
H383 H 0.62124 0.36753 0.24535 0.0
O384 O 0.60567 0.30706 0.18806 0.0
O385 O 0.63954 0.32375 0.18659 0.0
O386 O 0.63004 0.30475 0.24665 0.0
O387 O 0.64975 0.33709 0.24916 0.0
C388 C 0.63439 0.40749 0.13587 0.0
C389 C 0.65136 0.39853 0.11563 0.0
H390 H 0.68477 0.37619 0.08258 0.0
H391 H 0.70546 0.34258 0.10182 0.0
H392 H 0.59727 0.40039 0.23192 0.0
H393 H 0.60278 0.41969 0.18071 0.0
H394 H 0.62432 0.42172 0.1282 0.0
H395 H 0.65406 0.40599 0.09267 0.0
Mn396 Mn 0.4982 0.86713 0.98833 0.0
Mn397 Mn 0.54341 0.8698 0.03848 0.0
C398 C 0.53494 0.86879 0.96843 0.0
C399 C 0.47091 0.84607 0.96157 0.0
C400 C 0.51484 0.91 0.01986 0.0
O401 O 0.48399 0.8591 0.03004 0.0
O402 O 0.51506 0.8599 0.06187 0.0
C403 C 0.54731 0.82155 0.05208 0.0
N404 N 0.557 0.84083 0.04153 0.0
C405 C 0.59307 0.82232 0.03079 0.0
C406 C 0.58354 0.80231 0.04181 0.0
C407 C 0.56054 0.80193 0.05245 0.0
C408 C 0.5791 0.84138 0.0312 0.0
H409 H 0.52959 0.82112 0.06007 0.0
C410 C 0.49345 0.85658 0.05684 0.0
O411 O 0.46714 0.86692 0.96806 0.0
O412 O 0.49032 0.83753 0.97102 0.0
N413 N 0.57203 0.87867 0.01959 0.0
C414 C 0.57836 0.89909 0.00853 0.0
C415 C 0.60067 0.90212 0.99618 0.0
C416 C 0.6163 0.88421 0.99562 0.0
C417 C 0.60953 0.86345 0.0076 0.0
C418 C 0.58712 0.86145 0.0198 0.0
H419 H 0.56641 0.91291 0.00872 0.0
O420 O 0.51723 0.87362 0.95094 0.0
O421 O 0.53057 0.86183 0.99701 0.0
O422 O 0.50086 0.89961 0.00182 0.0
O423 O 0.53093 0.90042 0.03552 0.0
C424 C 0.62398 0.84455 0.00734 0.0
C425 C 0.61576 0.824 0.01892 0.0
H426 H 0.59364 0.78711 0.04195 0.0
H427 H 0.55301 0.78652 0.06081 0.0
H428 H 0.60576 0.9182 0.98699 0.0
H429 H 0.63342 0.88657 0.98582 0.0
H430 H 0.64137 0.84557 -0.00203 0.0
H431 H 0.62696 0.80953 0.01829 0.0
Mn432 Mn 0.86914 0.27642 0.78492 0.0
Mn433 Mn 0.82946 0.31672 0.77219 0.0
C434 C 0.87185 0.30977 0.81095 0.0
C435 C 0.88149 0.24469 0.81131 0.0
C436 C 0.86965 0.30837 0.72838 0.0
O437 O 0.84346 0.25953 0.76336 0.0
O438 O 0.81834 0.28767 0.75531 0.0
C439 C 0.79373 0.29892 0.81537 0.0
N440 N 0.80817 0.31575 0.80665 0.0
C441 C 0.79588 0.33834 0.85045 0.0
C442 C 0.78079 0.3213 0.85978 0.0
C443 C 0.77973 0.3015 0.84216 0.0
C444 C 0.80938 0.33483 0.8235 0.0
H445 H 0.79295 0.2836 0.80207 0.0
C446 C 0.82443 0.26721 0.753 0.0
O447 O 0.88966 0.24986 0.78374 0.0
O448 O 0.86575 0.25763 0.82312 0.0
N449 N 0.83765 0.34563 0.7876 0.0
C450 C 0.85255 0.36072 0.77485 0.0
C451 C 0.85552 0.3815 0.78955 0.0
C452 C 0.84295 0.38663 0.81694 0.0
C453 C 0.8272 0.37109 0.82906 0.0
C454 C 0.82482 0.35074 0.81324 0.0
H455 H 0.86229 0.35685 0.75384 0.0
O456 O 0.88976 0.29691 0.80824 0.0
O457 O 0.85249 0.30239 0.79931 0.0
O458 O 0.87786 0.29177 0.74356 0.0
O459 O 0.85147 0.31897 0.73676 0.0
C460 C 0.81377 0.37499 0.85622 0.0
C461 C 0.79816 0.35861 0.86694 0.0
H462 H 0.77 0.3232 0.88048 0.0
H463 H 0.76819 0.28824 0.84928 0.0
H464 H 0.86756 0.39348 0.77989 0.0
H465 H 0.84542 0.4026 0.82835 0.0
H466 H 0.81532 0.39053 0.86904 0.0
H467 H 0.78796 0.36178 0.88789 0.0
Mn468 Mn 0.43539 0.12808 0.51838 0.0
Mn469 Mn 0.48274 0.14123 0.47561 0.0
C470 C 0.46888 0.13886 0.54337 0.0
C471 C 0.40129 0.13825 0.54326 0.0
C472 C 0.46848 0.09371 0.48992 0.0
O473 O 0.42208 0.1322 0.4744 0.0
O474 O 0.45452 0.14225 0.44872 0.0
C475 C 0.47068 0.18842 0.4631 0.0
N476 N 0.48573 0.17298 0.47469 0.0
C477 C 0.51241 0.20158 0.49079 0.0
C478 C 0.49729 0.21776 0.47875 0.0
C479 C 0.47632 0.21114 0.46492 0.0
C480 C 0.5059 0.17918 0.48823 0.0
H481 H 0.45445 0.18346 0.45266 0.0
C482 C 0.43267 0.1387 0.44967 0.0
O483 O 0.40531 0.11759 0.53598 0.0
O484 O 0.41637 0.15297 0.53453 0.0
N485 N 0.5113 0.14144 0.49851 0.0
C486 C 0.5238 0.12382 0.50955 0.0
C487 C 0.54514 0.12765 0.52442 0.0
C488 C 0.55353 0.14949 0.52749 0.0
C489 C 0.54062 0.16731 0.51535 0.0
C490 C 0.51956 0.16246 0.50051 0.0
H491 H 0.51747 0.10698 0.50731 0.0
O492 O 0.45321 0.12776 0.55846 0.0
O493 O 0.46431 0.1439 0.51419 0.0
O494 O 0.4504 0.09868 0.50566 0.0
O495 O 0.48141 0.10823 0.47665 0.0
C496 C 0.54765 0.18971 0.51781 0.0
C497 C 0.53353 0.20684 0.50563 0.0
H498 H 0.50154 0.23531 0.48022 0.0
H499 H 0.46449 0.22354 0.45578 0.0
H500 H 0.55505 0.1138 0.53364 0.0
H501 H 0.56987 0.1524 0.5393 0.0
H502 H 0.56377 0.19397 0.52935 0.0
H503 H 0.539 0.22401 0.50797 0.0
Mn504 Mn 0.61873 0.71201 0.30255 0.0
Mn505 Mn 0.63534 0.65813 0.30542 0.0
C506 C 0.59607 0.68644 0.32806 0.0
C507 C 0.62113 0.74736 0.32535 0.0
C508 C 0.61254 0.67919 0.24793 0.0
O509 O 0.6521 0.71314 0.28918 0.0
O510 O 0.66254 0.67726 0.29521 0.0
C511 C 0.66525 0.66144 0.36193 0.0
N512 N 0.64685 0.6521 0.34685 0.0
C513 C 0.63777 0.62962 0.39217 0.0
C514 C 0.65673 0.63888 0.40808 0.0
C515 C 0.67051 0.65487 0.39289 0.0
C516 C 0.63344 0.63674 0.36128 0.0
H517 H 0.67576 0.67391 0.3505 0.0
C518 C 0.66716 0.69767 0.28895 0.0
O519 O 0.61514 0.74499 0.29595 0.0
O520 O 0.62602 0.72939 0.3408 0.0
N521 N 0.61109 0.63761 0.31564 0.0
C522 C 0.59322 0.63049 0.29724 0.0
C523 C 0.57785 0.61438 0.30894 0.0
C524 C 0.58101 0.60572 0.33939 0.0
C525 C 0.59969 0.61305 0.35774 0.0
C526 C 0.61469 0.62885 0.34461 0.0
H527 H 0.5905 0.63725 0.27401 0.0
O528 O 0.58743 0.70543 0.31947 0.0
O529 O 0.6179 0.6833 0.32236 0.0
O530 O 0.60963 0.69866 0.25964 0.0
O531 O 0.62262 0.66324 0.26263 0.0
C532 C 0.60382 0.60552 0.38869 0.0
C533 C 0.6228 0.61386 0.40594 0.0
H534 H 0.66078 0.63395 0.43202 0.0
H535 H 0.6851 0.66219 0.40508 0.0
H536 H 0.56347 0.60882 0.29462 0.0
H537 H 0.56894 0.59352 0.34848 0.0
H538 H 0.59238 0.59349 0.39957 0.0
H539 H 0.62566 0.60812 0.42984 0.0
Mn540 Mn 0.00096 0.86274 0.01951 0.0
Mn541 Mn 0.95785 0.86949 0.9666 0.0
C542 C 0.96357 0.86576 0.03676 0.0
C543 C 0.02587 0.8398 0.04747 0.0
C544 C 0.98745 0.90748 0.99037 0.0
O545 O 0.01649 0.85516 0.97834 0.0
O546 O 0.98677 0.85964 0.94474 0.0
C547 C 0.95304 0.822 0.94876 0.0
N548 N 0.94348 0.8412 0.95991 0.0
C549 C 0.90632 0.82364 0.96565 0.0
C550 C 0.91571 0.80375 0.95392 0.0
C551 C 0.93919 0.80293 0.94551 0.0
C552 C 0.92093 0.84215 0.96818 0.0
H553 H 0.97111 0.82121 0.94251 0.0
C554 C 0.00789 0.85473 0.95077 0.0
O555 O 0.03106 0.8605 0.04206 0.0
O556 O 0.00658 0.83238 0.03594 0.0
N557 N 0.92869 0.87859 0.9837 0.0
C558 C 0.92248 0.8988 0.9957 0.0
C559 C 0.89969 0.90218 0.00604 0.0
C560 C 0.88345 0.88488 0.0036 0.0
C561 C 0.89012 0.86438 0.99061 0.0
C562 C 0.91304 0.86201 0.9805 0.0
H563 H 0.93488 0.91214 -0.00222 0.0
O564 O 0.98075 0.8692 0.05581 0.0
O565 O 0.9687 0.85938 0.00816 0.0
O566 O 0.00057 0.89567 0.00784 0.0
O567 O 0.97122 0.89941 0.97336 0.0
C568 C 0.87503 0.84606 0.98787 0.0
C569 C 0.88313 0.8257 0.97542 0.0
H570 H 0.90512 0.78897 0.95154 0.0
H571 H 0.94661 0.7876 0.93664 0.0
H572 H 0.89467 0.91806 0.01601 0.0
H573 H 0.86594 0.88749 0.01188 0.0
H574 H 0.85723 0.84737 0.99559 0.0
H575 H 0.87142 0.81166 0.97375 0.0
Mn576 Mn 0.62867 0.78093 0.7779 0.0
Mn577 Mn 0.60576 0.7375 0.73841 0.0
C578 C 0.61674 0.74953 0.80478 0.0
C579 C 0.62454 0.81414 0.80502 0.0
C580 C 0.65719 0.74731 0.74051 0.0
O581 O 0.62052 0.79474 0.73547 0.0
O582 O 0.60349 0.7651 0.71236 0.0
C583 C 0.55697 0.75269 0.73777 0.0
N584 N 0.57305 0.73696 0.7453 0.0
C585 C 0.54402 0.71355 0.76884 0.0
C586 C 0.52713 0.72935 0.76089 0.0
C587 C 0.53365 0.74903 0.74537 0.0
C588 C 0.56697 0.71801 0.7604 0.0
H589 H 0.56192 0.768 0.72632 0.0
C590 C 0.60957 0.78568 0.71265 0.0
O591 O 0.64439 0.80846 0.79319 0.0
O592 O 0.60705 0.80119 0.79971 0.0
N593 N 0.60637 0.71007 0.76148 0.0
C594 C 0.62493 0.69724 0.76945 0.0
C595 C 0.62144 0.67731 0.78613 0.0
C596 C 0.59893 0.67078 0.79442 0.0
C597 C 0.58009 0.68418 0.7858 0.0
C598 C 0.5846 0.70372 0.76883 0.0
H599 H 0.64229 0.70224 0.76342 0.0
O600 O 0.63173 0.76292 0.81727 0.0
O601 O 0.60916 0.75497 0.77699 0.0
O602 O 0.65565 0.76435 0.75827 0.0
O603 O 0.63965 0.73623 0.73093 0.0
C604 C 0.55707 0.67915 0.79398 0.0
C605 C 0.53905 0.69384 0.78553 0.0
H606 H 0.50916 0.72669 0.76701 0.0
H607 H 0.52074 0.76141 0.73949 0.0
H608 H 0.63607 0.6671 0.79278 0.0
H609 H 0.59633 0.65555 0.80763 0.0
H610 H 0.55308 0.66421 0.8072 0.0
H611 H 0.52147 0.68997 0.7924 0.0
Mn612 Mn 0.47148 0.38027 0.00951 0.0
Mn613 Mn 0.5196 0.38624 0.96533 0.0
C614 C 0.507 0.38167 0.03368 0.0
C615 C 0.44386 0.35692 0.03146 0.0
C616 C 0.48746 0.42449 0.98225 0.0
O617 O 0.46029 0.37378 0.96514 0.0
O618 O 0.49415 0.37383 0.9388 0.0
C619 C 0.52934 0.33863 0.95255 0.0
N620 N 0.53641 0.35882 0.96356 0.0
C621 C 0.57392 0.34418 0.97692 0.0
C622 C 0.56719 0.32336 0.96506 0.0
C623 C 0.54476 0.32056 0.95296 0.0
C624 C 0.5579 0.36167 0.9755 0.0
H625 H 0.51199 0.33628 0.9438 0.0
C626 C 0.47228 0.37044 0.94036 0.0
O627 O 0.43951 0.37793 0.02699 0.0
O628 O 0.46387 0.34951 0.02254 0.0
N629 N 0.54572 0.39755 0.98809 0.0
C630 C 0.54875 0.41803 0.00139 0.0
C631 C 0.56979 0.42311 0.01626 0.0
C632 C 0.58756 0.40717 0.01719 0.0
C633 C 0.58413 0.38627 0.00318 0.0
C634 C 0.56286 0.38221 0.98842 0.0
H635 H 0.53515 0.43033 0.00096 0.0
O636 O 0.48827 0.38528 0.04967 0.0
O637 O 0.50436 0.37635 0.00413 0.0
O638 O 0.47371 0.41341 -0.00026 0.0
O639 O 0.50406 0.41563 0.96674 0.0
C640 C 0.60073 0.3691 0.0041 0.0
C641 C 0.59563 0.34807 0.99098 0.0
H642 H 0.57895 0.30931 0.96566 0.0
H643 H 0.53932 0.30446 0.94419 0.0
H644 H 0.57227 0.43925 0.02712 0.0
H645 H 0.60367 0.41107 0.02901 0.0
H646 H 0.61731 0.37175 0.0154 0.0
H647 H 0.60837 0.33486 0.9924 0.0
Mn648 Mn 0.88494 0.23774 0.28043 0.0
Mn649 Mn 0.8912 0.27951 0.22821 0.0
C650 C 0.87961 0.27386 0.29653 0.0
C651 C 0.90211 0.21401 0.31658 0.0
C652 C 0.84793 0.25135 0.23292 0.0
O653 O 0.90148 0.22286 0.2443 0.0
O654 O 0.90519 0.25169 0.21076 0.0
C655 C 0.94217 0.28377 0.23092 0.0
N656 N 0.92079 0.29302 0.23425 0.0
C657 C 0.93722 0.3284 0.24875 0.0
C658 C 0.95941 0.31929 0.24523 0.0
C659 C 0.96189 0.29688 0.2363 0.0
C660 C 0.91821 0.3146 0.2427 0.0
H661 H 0.94415 0.26651 0.22426 0.0
C662 C 0.90819 0.23121 0.21833 0.0
O663 O 0.88261 0.20862 0.30331 0.0
O664 O 0.91155 0.23262 0.30824 0.0
N665 N 0.87868 0.30737 0.24203 0.0
C666 C 0.85611 0.31319 0.24625 0.0
C667 C 0.85066 0.33483 0.25639 0.0
C668 C 0.86845 0.35028 0.26191 0.0
C669 C 0.89153 0.34396 0.25714 0.0
C670 C 0.8959 0.32221 0.24678 0.0
H671 H 0.84238 0.30133 0.24223 0.0
O672 O 0.87096 0.25746 0.31255 0.0
O673 O 0.89168 0.26852 0.27168 0.0
O674 O 0.85473 0.23855 0.25512 0.0
O675 O 0.8603 0.26692 0.2212 0.0
C676 C 0.9104 0.35824 0.26292 0.0
C677 C 0.93323 0.35047 0.2587 0.0
H678 H 0.97467 0.32929 0.24963 0.0
H679 H 0.97895 0.2897 0.2337 0.0
H680 H 0.83281 0.33957 0.26008 0.0
H681 H 0.86419 0.3669 0.27001 0.0
H682 H 0.90756 0.37514 0.271 0.0
H683 H 0.94759 0.36152 0.26359 0.0
Mn684 Mn 0.05217 0.61895 0.51444 0.0
Mn685 Mn 0.00645 0.61684 0.46492 0.0
C686 C 0.01538 0.62301 0.5341 0.0
C687 C 0.0811 0.63942 0.53866 0.0
C688 C 0.03135 0.57583 0.48918 0.0
O689 O 0.06706 0.62227 0.47148 0.0
O690 O 0.03536 0.62241 0.4406 0.0
C691 C 0.00667 0.66392 0.44415 0.0
N692 N 0.99537 0.64637 0.45741 0.0
C693 C 0.96087 0.66825 0.46447 0.0
C694 C 0.97208 0.6865 0.45065 0.0
C695 C 0.9951 0.68433 0.4405 0.0
C696 C 0.97323 0.64828 0.46727 0.0
H697 H 0.0244 0.66236 0.43647 0.0
C698 C 0.05729 0.62381 0.44463 0.0
O699 O 0.08285 0.61792 0.53597 0.0
O700 O 0.06304 0.64893 0.52654 0.0
N701 N 0.97722 0.61175 0.48486 0.0
C702 C 0.9692 0.59285 0.4989 0.0
C703 C 0.94667 0.59248 0.51122 0.0
C704 C 0.93253 0.61142 0.50868 0.0
C705 C 0.941 0.63053 0.49359 0.0
C706 C 0.96355 0.62988 0.48157 0.0
H707 H 0.98001 0.57825 0.50102 0.0
O708 O 0.0324 0.61766 0.55249 0.0
O709 O 0.02049 0.62678 0.50463 0.0
O710 O 0.04617 0.58585 0.50639 0.0
O711 O 0.01633 0.58592 0.47229 0.0
C712 C 0.92813 0.65036 0.49063 0.0
C713 C 0.93806 0.66921 0.47609 0.0
H714 H 0.96326 0.70232 0.44797 0.0
H715 H 0.00391 0.69838 0.42997 0.0
H716 H 0.94026 0.57766 0.5228 0.0
H717 H 0.91525 0.61115 0.51854 0.0
H718 H 0.91068 0.65139 0.49981 0.0
H719 H 0.92808 0.68443 0.47427 0.0
Mn720 Mn 0.62382 0.22151 0.70306 0.0
Mn721 Mn 0.63962 0.25833 0.75895 0.0
C722 C 0.63341 0.25722 0.68866 0.0
C723 C 0.59484 0.20397 0.67472 0.0
C724 C 0.6714 0.22248 0.73338 0.0
O725 O 0.61358 0.20675 0.74357 0.0
O726 O 0.62251 0.23324 0.77916 0.0
C727 C 0.59335 0.27463 0.77788 0.0
N728 N 0.61494 0.27882 0.76653 0.0
C729 C 0.60679 0.31803 0.76235 0.0
C730 C 0.58452 0.31416 0.77423 0.0
C731 C 0.57778 0.29236 0.78199 0.0
C732 C 0.62164 0.29974 0.75907 0.0
H733 H 0.58805 0.25788 0.7837 0.0
C734 C 0.61393 0.21426 0.77165 0.0
O735 O 0.61497 0.19468 0.67836 0.0
O736 O 0.59151 0.22314 0.68807 0.0
N737 N 0.6561 0.28344 0.7426 0.0
C738 C 0.67763 0.28413 0.72957 0.0
C739 C 0.68666 0.30461 0.71941 0.0
C740 C 0.67353 0.32415 0.72286 0.0
C741 C 0.65149 0.32305 0.73653 0.0
C742 C 0.64346 0.30219 0.74645 0.0
H743 H 0.68775 0.26915 0.72671 0.0
O744 O 0.63371 0.24117 0.66816 0.0
O745 O 0.62675 0.25194 0.71707 0.0
O746 O 0.6576 0.21457 0.71284 0.0
O747 O 0.66622 0.23833 0.7522 0.0
C748 C 0.63697 0.34174 0.74008 0.0
C749 C 0.61464 0.33924 0.75299 0.0
H750 H 0.57239 0.32776 0.77719 0.0
H751 H 0.56058 0.28922 0.79101 0.0
H752 H 0.70367 0.30531 0.70882 0.0
H753 H 0.68048 0.33989 0.71474 0.0
H754 H 0.6427 0.35808 0.73259 0.0
H755 H 0.60354 0.35369 0.75522 0.0
Mn756 Mn -0.00271 0.37211 0.97946 0.0
Mn757 Mn 0.95432 0.37951 0.03235 0.0
C758 C 0.95998 0.37736 0.96238 0.0
C759 C 0.02119 0.34915 0.94966 0.0
C760 C 0.98677 0.41636 0.01228 0.0
O761 O 0.01159 0.36128 0.02002 0.0
O762 O 0.98209 0.36666 0.05381 0.0
C763 C 0.9453 0.33212 0.04746 0.0
N764 N 0.93758 0.35224 0.03696 0.0
C765 C 0.89912 0.33783 0.02951 0.0
C766 C 0.90664 0.31701 0.04046 0.0
C767 C 0.92984 0.31415 0.04944 0.0
C768 C 0.91526 0.3552 0.02836 0.0
H769 H 0.96313 0.32975 0.05423 0.0
C770 C 0.00265 0.36001 0.04737 0.0
O771 O 0.02748 0.36921 0.95725 0.0
O772 O 0.00126 0.34231 0.95982 0.0
N773 N 0.9263 0.39125 0.01488 0.0
C774 C 0.92214 0.41196 0.00295 0.0
C775 C 0.89995 0.41726 0.9918 0.0
C776 C 0.88223 0.4013 0.99318 0.0
C777 C 0.88686 0.38017 0.00577 0.0
C778 C 0.90927 0.37588 0.01676 0.0
H779 H 0.93571 0.42426 0.0016 0.0
O780 O 0.97735 0.38135 0.94383 0.0
O781 O 0.96493 0.3699 0.99043 0.0
O782 O -0.00085 0.40445 0.99402 0.0
O783 O 0.96991 0.40863 0.02832 0.0
C784 C 0.87025 0.36305 0.0072 0.0
C785 C 0.87637 0.3419 0.01907 0.0
H786 H 0.89481 0.30306 0.04179 0.0
H787 H 0.9358 0.2981 0.05776 0.0
H788 H 0.89653 0.43359 0.98203 0.0
H789 H 0.86519 0.4054 0.98429 0.0
H790 H 0.85278 0.36587 -0.00115 0.0
H791 H 0.86352 0.32878 0.01967 0.0
Mn792 Mn 0.8588 0.7774 0.20881 0.0
Mn793 Mn 0.88155 0.73217 0.24429 0.0
C794 C 0.8688 0.74652 0.1794 0.0
C795 C 0.86344 0.81141 0.18425 0.0
C796 C 0.83052 0.74379 0.24618 0.0
O797 O 0.86861 0.78951 0.25154 0.0
O798 O 0.88578 0.75887 0.27167 0.0
C799 C 0.93084 0.74555 0.24261 0.0
N800 N 0.9139 0.7307 0.23511 0.0
C801 C 0.94115 0.70699 0.20833 0.0
C802 C 0.95892 0.72188 0.21617 0.0
C803 C 0.95373 0.74127 0.23333 0.0
C804 C 0.9187 0.71203 0.2185 0.0
H805 H 0.92692 0.76064 0.25539 0.0
C806 C 0.88016 0.77955 0.27299 0.0
O807 O 0.84366 0.80598 0.1965 0.0
O808 O 0.8805 0.79758 0.18733 0.0
N809 N 0.87904 0.70546 0.2198 0.0
C810 C 0.85977 0.69341 0.21266 0.0
C811 C 0.86191 0.6738 0.19483 0.0
C812 C 0.88381 0.66677 0.18455 0.0
C813 C 0.90341 0.67936 0.19235 0.0
C814 C 0.90026 0.6986 0.21054 0.0
H815 H 0.84286 0.6988 0.22028 0.0
O816 O 0.85399 0.76079 0.16851 0.0
O817 O 0.87736 0.75086 0.20704 0.0
O818 O 0.83196 0.76109 0.22896 0.0
O819 O 0.84798 0.73194 0.2541 0.0
C820 C 0.9259 0.67379 0.18227 0.0
C821 C 0.94474 0.68761 0.19023 0.0
H822 H 0.97656 0.71874 0.20883 0.0
H823 H 0.96732 0.75295 0.23922 0.0
H824 H 0.84668 0.66421 0.18883 0.0
H825 H 0.88535 0.65179 0.17046 0.0
H826 H 0.92884 0.65908 0.16802 0.0
H827 H 0.9619 0.68331 0.18198 0.0
Mn828 Mn 0.44655 0.61342 0.49195 0.0
Mn829 Mn 0.4958 0.61199 0.53435 0.0
C830 C 0.48169 0.61641 0.46683 0.0
C831 C 0.41694 0.63478 0.47065 0.0
C832 C 0.46737 0.57091 0.51822 0.0
O833 O 0.43541 0.61839 0.53694 0.0
O834 O 0.46976 0.62181 0.5617 0.0
C835 C 0.50149 0.66001 0.54833 0.0
N836 N 0.50998 0.64073 0.53597 0.0
C837 C 0.5454 0.6588 0.52074 0.0
C838 C 0.53716 0.67876 0.53372 0.0
C839 C 0.51508 0.67938 0.5475 0.0
C840 C 0.53121 0.63994 0.52265 0.0
H841 H 0.48442 0.66064 0.55859 0.0
C842 C 0.44761 0.62298 0.5612 0.0
O843 O 0.41434 0.61343 0.47446 0.0
O844 O 0.43609 0.64358 0.48024 0.0
N845 N 0.52226 0.60319 0.51014 0.0
C846 C 0.5268 0.5832 0.49617 0.0
C847 C 0.54765 0.58021 0.47976 0.0
C848 C 0.56368 0.59773 0.47797 0.0
C849 C 0.55871 0.61809 0.4927 0.0
C850 C 0.53771 0.62006 0.50893 0.0
H851 H 0.51454 0.56968 0.49727 0.0
O852 O 0.46337 0.61076 0.45117 0.0
O853 O 0.47878 0.62067 0.49659 0.0
O854 O 0.45237 0.58034 0.50061 0.0
O855 O 0.48304 0.58154 0.53324 0.0
C856 C 0.5735 0.63669 0.49118 0.0
C857 C 0.56686 0.65703 0.50518 0.0
H858 H 0.54748 0.6938 0.53282 0.0
H859 H 0.5085 0.69478 0.55728 0.0
H860 H 0.55132 0.56447 0.46836 0.0
H861 H 0.57963 0.59545 0.46498 0.0
H862 H 0.58986 0.63565 0.47881 0.0
H863 H 0.57819 0.67133 0.50333 0.0
Mn864 Mn 0.36018 0.20857 0.18782 0.0
Mn865 Mn 0.33423 0.15839 0.18871 0.0
C866 C 0.37915 0.17777 0.16847 0.0
C867 C 0.36648 0.24184 0.16085 0.0
C868 C 0.35578 0.17978 0.24674 0.0
O869 O 0.32665 0.2163 0.19584 0.0
O870 O 0.31042 0.18231 0.19084 0.0
C871 C 0.31045 0.16119 0.12696 0.0
N872 N 0.3255 0.15059 0.14662 0.0
C873 C 0.3345 0.12333 0.10683 0.0
C874 C 0.31884 0.13377 0.08635 0.0
C875 C 0.3068 0.1528 0.09645 0.0
C876 C 0.33725 0.13231 0.13709 0.0
H877 H 0.30146 0.17604 0.13439 0.0
C878 C 0.30911 0.20351 0.19432 0.0
O879 O 0.36959 0.24066 0.1912 0.0
O880 O 0.35917 0.22405 0.14683 0.0
N881 N 0.3555 0.13399 0.18596 0.0
C882 C 0.37084 0.12654 0.20798 0.0
C883 C 0.38473 0.10795 0.20121 0.0
C884 C 0.3827 0.0972 0.17192 0.0
C885 C 0.36666 0.10503 0.14975 0.0
C886 C 0.35304 0.12344 0.15798 0.0
H887 H 0.3726 0.13479 0.23047 0.0
O888 O 0.3907 0.1954 0.17645 0.0
O889 O 0.35689 0.17897 0.17154 0.0
O890 O 0.36368 0.19715 0.23304 0.0
O891 O 0.34363 0.16496 0.23268 0.0
C892 C 0.36393 0.09553 0.11959 0.0
C893 C 0.34788 0.10469 0.09814 0.0
H894 H 0.31614 0.12748 0.06269 0.0
H895 H 0.29487 0.16109 0.08067 0.0
H896 H 0.39708 0.102 0.21845 0.0
H897 H 0.39364 0.08302 0.16665 0.0
H898 H 0.37428 0.08134 0.11252 0.0
H899 H 0.34617 0.09742 0.07487 0.0
Mn900 Mn 0.50797 0.63336 0.99136 0.0
Mn901 Mn 0.46571 0.62712 0.04544 0.0
C902 C 0.47024 0.63026 0.97528 0.0
C903 C 0.5322 0.65549 0.9609 0.0
C904 C 0.49407 0.58869 0.02111 0.0
O905 O 0.52411 0.64229 0.03172 0.0
O906 O 0.49555 0.63528 0.06632 0.0
C907 C 0.46338 0.67452 0.0647 0.0
N908 N 0.45277 0.65591 0.05334 0.0
C909 C 0.41632 0.67509 0.04943 0.0
C910 C 0.42682 0.6944 0.0613 0.0
C911 C 0.45047 0.69412 0.06891 0.0
C912 C 0.43004 0.65603 0.04586 0.0
H913 H 0.48156 0.67444 0.07045 0.0
C914 C 0.51626 0.64126 0.05967 0.0
O915 O 0.53757 0.635 0.96746 0.0
O916 O 0.51326 0.66328 0.97304 0.0
N917 N 0.43579 0.61944 0.02946 0.0
C918 C 0.42837 0.59957 0.0176 0.0
C919 C 0.40521 0.59723 0.00822 0.0
C920 C 0.38984 0.61521 0.01156 0.0
C921 C 0.39774 0.63532 0.02446 0.0
C922 C 0.42099 0.63665 0.03353 0.0
H923 H 0.4401 0.5857 0.01494 0.0
O924 O 0.4871 0.62604 0.95607 0.0
O925 O 0.47586 0.63715 0.0035 0.0
O926 O 0.50784 0.60042 0.00443 0.0
O927 O 0.47761 0.59694 0.03745 0.0
C928 C 0.38355 0.65423 0.02818 0.0
C929 C 0.39284 0.67411 0.04062 0.0
H930 H 0.41695 0.70958 0.06447 0.0
H931 H 0.45873 0.70898 0.07795 0.0
H932 H 0.39923 0.58163 -0.00163 0.0
H933 H 0.37203 0.61339 0.00407 0.0
H934 H 0.36552 0.65373 0.02128 0.0
H935 H 0.3818 0.68859 0.04312 0.0
Mn936 Mn 0.12087 0.78873 0.7108 0.0
Mn937 Mn 0.136 0.84263 0.71816 0.0
C938 C 0.09918 0.81543 0.68607 0.0
C939 C 0.12664 0.75523 0.68436 0.0
C940 C 0.11042 0.81667 0.76887 0.0
O941 O 0.15294 0.7875 0.72927 0.0
O942 O 0.16357 0.82352 0.72689 0.0
C943 C 0.16816 0.84563 0.66404 0.0
N944 N 0.14875 0.8528 0.67915 0.0
C945 C 0.14021 0.87873 0.63746 0.0
C946 C 0.16023 0.87178 0.62162 0.0
C947 C 0.17425 0.85514 0.63497 0.0
C948 C 0.13512 0.86878 0.6665 0.0
H949 H 0.17885 0.83267 0.67401 0.0
C950 C 0.16793 0.80289 0.73198 0.0
O951 O 0.1182 0.75553 0.71279 0.0
O952 O 0.13196 0.77423 0.67189 0.0
N953 N 0.11118 0.86295 0.70981 0.0
C954 C 0.09218 0.86746 0.72773 0.0
C955 C 0.07621 0.88353 0.71744 0.0
C956 C 0.07998 0.89488 0.68896 0.0
C957 C 0.09987 0.89027 0.67122 0.0
C958 C 0.11534 0.8743 0.68287 0.0
H959 H 0.0891 0.85875 0.74959 0.0
O960 O 0.0909 0.79558 0.6902 0.0
O961 O 0.12037 0.81871 0.69527 0.0
O962 O 0.10768 0.79866 0.75324 0.0
O963 O 0.12204 0.8334 0.75883 0.0
C964 C 0.10476 0.90065 0.64219 0.0
C965 C 0.12489 0.89486 0.6253 0.0
H966 H 0.16489 0.87895 0.59908 0.0
H967 H 0.18964 0.84958 0.62278 0.0
H968 H 0.06094 0.88705 0.73133 0.0
H969 H 0.06747 0.90706 0.6809 0.0
H970 H 0.09302 0.91295 0.63249 0.0
H971 H 0.12834 0.90279 0.60285 0.0
Mn972 Mn 0.96968 0.37803 0.48283 0.0
Mn973 Mn 0.01704 0.36676 0.52654 0.0
C974 C 0.00397 0.36864 0.45875 0.0
C975 C 0.93624 0.3672 0.45713 0.0
C976 C 5e-05 0.41349 0.51347 0.0
O977 O 0.95612 0.3727 0.52616 0.0
O978 O 0.98866 0.36426 0.55301 0.0
C979 C 0.00774 0.31905 0.53913 0.0
N980 N 0.02179 0.33523 0.52731 0.0
C981 C 0.04981 0.308 0.51059 0.0
C982 C 0.03572 0.29109 0.52284 0.0
C983 C 0.01459 0.29665 0.53715 0.0
C984 C 0.04219 0.33006 0.51354 0.0
H985 H 0.99138 0.32319 0.54988 0.0
C986 C 0.96664 0.36671 0.55121 0.0
O987 O 0.93947 0.38784 0.46515 0.0
O988 O 0.95185 0.35279 0.46532 0.0
N989 N 0.04544 0.36804 0.5034 0.0
C990 C 0.05638 0.38618 0.49114 0.0
C991 C 0.07745 0.38338 0.47516 0.0
C992 C 0.08706 0.362 0.47201 0.0
C993 C 0.07557 0.34361 0.48501 0.0
C994 C 0.05476 0.34745 0.50099 0.0
H995 H 0.04899 0.40263 0.49321 0.0
O996 O 0.98824 0.37959 0.44342 0.0
O997 O -0.00094 0.3633 0.48769 0.0
O998 O 0.98271 0.40764 0.49699 0.0
O999 O 0.01403 0.39966 0.52619 0.0
C1000 C 0.08372 0.32158 0.48216 0.0
C1001 C 0.07085 0.30379 0.49494 0.0
H1002 H 0.04085 0.27377 0.52111 0.0
H1003 H 0.00355 0.28368 0.54647 0.0
H1004 H 0.08617 0.39765 0.46511 0.0
H1005 H 0.10318 0.35988 0.45935 0.0
H1006 H 0.09973 0.3181 0.46985 0.0
H1007 H 0.07716 0.2869 0.49226 0.0
Mn1008 Mn 0.37851 0.78536 0.29327 0.0
Mn1009 Mn 0.35576 0.83596 0.27748 0.0
C1010 C 0.39468 0.81644 0.31546 0.0
C1011 C 0.37681 0.75293 0.32339 0.0
C1012 C 0.38809 0.81162 0.23286 0.0
O1013 O 0.34769 0.77813 0.27363 0.0
O1014 O 0.33265 0.81243 0.26707 0.0
C1015 C 0.31959 0.83577 0.32686 0.0
N1016 N 0.33861 0.84535 0.31365 0.0
C1017 C 0.33952 0.87377 0.35367 0.0
C1018 C 0.31984 0.86431 0.36754 0.0
C1019 C 0.30985 0.84521 0.35409 0.0
C1020 C 0.34843 0.86366 0.32651 0.0
H1021 H 0.31196 0.82097 0.31677 0.0
C1022 C 0.33132 0.79115 0.26582 0.0
O1023 O 0.38629 0.75291 0.29558 0.0
O1024 O 0.36839 0.77165 0.33336 0.0
N1025 N 0.37587 0.86045 0.28665 0.0
C1026 C 0.39444 0.86788 0.2699 0.0
C1027 C 0.40632 0.88697 0.28011 0.0
C1028 C 0.39885 0.89834 0.30721 0.0
C1029 C 0.3793 0.89076 0.32352 0.0
C1030 C 0.36799 0.8718 0.312 0.0
H1031 H 0.40028 0.85921 0.24906 0.0
O1032 O 0.40615 0.79788 0.3145 0.0
O1033 O 0.3736 0.81598 0.30471 0.0
O1034 O 0.39182 0.79459 0.25029 0.0
O1035 O 0.37413 0.82738 0.24012 0.0
C1036 C 0.37061 0.90126 0.35077 0.0
C1037 C 0.35077 0.89273 0.36588 0.0
H1038 H 0.31232 0.87151 0.3886 0.0
H1039 H 0.29473 0.83774 0.36475 0.0
H1040 H 0.42128 0.89282 0.26723 0.0
H1041 H 0.4082 0.91293 0.31519 0.0
H1042 H 0.37907 0.91587 0.36034 0.0
H1043 H 0.3443 0.90089 0.38689 0.0
Mn1044 Mn 0.97769 0.62606 -0.00083 0.0
Mn1045 Mn 0.02078 0.61778 0.94677 0.0
C1046 C 0.01525 0.62375 0.01667 0.0
C1047 C 0.95309 0.65001 0.0261 0.0
C1048 C 0.99078 0.58053 0.97227 0.0
O1049 O 0.96207 0.63232 0.95741 0.0
O1050 O 0.99214 0.62783 0.92438 0.0
C1051 C 0.02673 0.6648 0.92723 0.0
N1052 N 0.03583 0.64561 0.93907 0.0
C1053 C 0.07343 0.6624 0.94414 0.0
C1054 C 0.06452 0.68225 0.93162 0.0
C1055 C 0.04106 0.68346 0.92321 0.0
C1056 C 0.05836 0.64429 0.94739 0.0
H1057 H 0.00866 0.6659 0.92102 0.0
C1058 C 0.97092 0.63262 0.92995 0.0
O1059 O 0.94773 0.62919 0.02195 0.0
O1060 O 0.97223 0.65696 0.01359 0.0
N1061 N 0.04965 0.60843 0.96452 0.0
C1062 C 0.0553 0.58841 0.9776 0.0
C1063 C 0.078 0.58473 0.98818 0.0
C1064 C 0.0947 0.60154 0.9849 0.0
C1065 C 0.08858 0.62186 0.9709 0.0
C1066 C 0.06573 0.62454 0.96061 0.0
H1067 H 0.04255 0.57543 0.98029 0.0
O1068 O -0.00191 0.62084 0.03588 0.0
O1069 O 0.00998 0.62904 0.9877 0.0
O1070 O 0.97802 0.59272 0.98972 0.0
O1071 O 0.00675 0.58825 0.9545 0.0
C1072 C 0.10414 0.63974 0.96737 0.0
C1073 C 0.09656 0.66 0.95403 0.0
H1074 H 0.07548 0.69673 0.92867 0.0
H1075 H 0.03401 0.69878 0.91378 0.0
H1076 H 0.08259 0.56899 -0.00106 0.0
H1077 H 0.11214 0.5987 0.99336 0.0
H1078 H 0.1219 0.63818 0.9752 0.0
H1079 H 0.10862 0.67372 0.9518 0.0
Mn1080 Mn 0.12376 0.20852 0.79607 0.0
Mn1081 Mn 0.15908 0.16375 0.79523 0.0
C1082 C 0.11257 0.17553 0.81928 0.0
C1083 C 0.11069 0.24122 0.81951 0.0
C1084 C 0.13114 0.17877 0.73853 0.0
O1085 O 0.15486 0.22206 0.7848 0.0
O1086 O 0.17735 0.19145 0.78945 0.0
C1087 C 0.18433 0.17326 0.85453 0.0
N1088 N 0.17129 0.15919 0.83668 0.0
C1089 C 0.17042 0.13195 0.87831 0.0
C1090 C 0.18435 0.14592 0.89679 0.0
C1091 C 0.19124 0.16671 0.88488 0.0
C1092 C 0.16431 0.13926 0.84807 0.0
H1093 H 0.18914 0.18949 0.84587 0.0
C1094 C 0.17455 0.21245 0.7852 0.0
O1095 O 0.10735 0.23732 0.78974 0.0
O1096 O 0.12235 0.22653 0.83536 0.0
N1097 N 0.14332 0.13603 0.80145 0.0
C1098 C 0.12857 0.12521 0.78159 0.0
C1099 C 0.11927 0.10456 0.79057 0.0
C1100 C 0.12523 0.09523 0.81983 0.0
C1101 C 0.14058 0.10657 0.83976 0.0
C1102 C 0.14958 0.12694 0.82935 0.0
H1103 H 0.12378 0.13232 0.75915 0.0
O1104 O 0.09717 0.19016 0.81114 0.0
O1105 O 0.1339 0.18079 0.81394 0.0
O1106 O 0.12098 0.19487 0.75238 0.0
O1107 O 0.14649 0.16663 0.75183 0.0
C1108 C 0.14692 0.09867 0.86982 0.0
C1109 C 0.16181 0.11137 0.8891 0.0
H1110 H 0.18949 0.14104 0.92036 0.0
H1111 H 0.20166 0.17776 0.89921 0.0
H1112 H 0.10741 0.09593 0.77506 0.0
H1113 H 0.11779 0.07944 0.82684 0.0
H1114 H 0.14017 0.08302 0.87854 0.0
H1115 H 0.16623 0.1053 0.9124 0.0
Mn1116 Mn 0.54456 0.37605 0.52252 0.0
Mn1117 Mn 0.49756 0.36489 0.47783 0.0
C1118 C 0.51031 0.36585 0.54603 0.0
C1119 C 0.57822 0.36426 0.54714 0.0
C1120 C 0.51331 0.41173 0.49379 0.0
O1121 O 0.55833 0.37231 0.47875 0.0
O1122 O 0.52616 0.36279 0.45198 0.0
C1123 C 0.50761 0.31729 0.46509 0.0
N1124 N 0.49306 0.33332 0.47625 0.0
C1125 C 0.4646 0.30587 0.49049 0.0
C1126 C 0.47916 0.28911 0.47879 0.0
C1127 C 0.50079 0.29485 0.46613 0.0
C1128 C 0.47227 0.32796 0.48868 0.0
H1129 H 0.52435 0.32157 0.45562 0.0
C1130 C 0.54805 0.36591 0.45371 0.0
O1131 O 0.57486 0.38522 0.54104 0.0
O1132 O 0.56257 0.35025 0.53795 0.0
N1133 N 0.46867 0.36578 0.49988 0.0
C1134 C 0.45705 0.3838 0.51139 0.0
C1135 C 0.43534 0.38082 0.52556 0.0
C1136 C 0.42569 0.3594 0.52753 0.0
C1137 C 0.43778 0.34116 0.51505 0.0
C1138 C 0.45926 0.34517 0.50092 0.0
H1139 H 0.46436 0.40031 0.51003 0.0
O1140 O 0.5261 0.37612 0.56213 0.0
O1141 O 0.51526 0.36124 0.51686 0.0
O1142 O 0.5307 0.40607 0.51051 0.0
O1143 O 0.50038 0.39776 0.47937 0.0
C1144 C 0.42953 0.31911 0.51661 0.0
C1145 C 0.44296 0.30147 0.50441 0.0
H1146 H 0.47402 0.27177 0.47971 0.0
H1147 H 0.51221 0.28199 0.45732 0.0
H1148 H 0.4261 0.39498 0.53509 0.0
H1149 H 0.40906 0.35713 0.5388 0.0
H1150 H 0.41303 0.31549 0.52755 0.0
H1151 H 0.43658 0.28455 0.50615 0.0
H1152 H 0.10376 0.16631 0.45013 0.0
H1153 H 0.08191 0.19566 0.29022 0.0
H1154 H 0.08372 0.10947 0.39436 0.0
H1155 H 0.15371 0.20458 0.31413 0.0
H1156 H 0.07964 0.16503 0.32804 0.0
H1157 H 0.12157 0.1829 0.4031 0.0
C1158 C 0.10392 0.157 0.42825 0.0
C1159 C 0.09248 0.13652 0.42595 0.0
C1160 C 0.09613 0.17311 0.32404 0.0
C1161 C 0.11165 0.15567 0.37235 0.0
C1162 C 0.09752 0.19032 0.30212 0.0
C1163 C 0.1183 0.2019 0.29801 0.0
C1164 C 0.11522 0.16852 0.34334 0.0
C1165 C 0.13753 0.19563 0.31619 0.0
C1166 C 0.11402 0.16641 0.40154 0.0
C1167 C 0.09266 0.12521 0.39699 0.0
N1168 N 0.13537 0.17975 0.33883 0.0
N1169 N 0.10135 0.13532 0.3709 0.0
H1170 H 0.00525 0.90486 0.58532 0.0
H1171 H 0.11138 0.83215 0.62913 0.0
H1172 H 0.00697 0.83864 0.54608 0.0
H1173 H 0.05671 0.83211 0.69813 0.0
H1174 H 0.08567 0.85213 0.59237 0.0
H1175 H 0.03715 0.89444 0.62122 0.0
C1176 C 0.01277 0.88836 0.5838 0.0
C1177 C 0.00432 0.87278 0.56202 0.0
C1178 C 0.07969 0.84825 0.6159 0.0
C1179 C 0.04014 0.86106 0.60231 0.0
C1180 C 0.09425 0.83707 0.6368 0.0
C1181 C 0.08614 0.83114 0.66675 0.0
C1182 C 0.0571 0.85335 0.62527 0.0
C1183 C 0.06356 0.83691 0.67537 0.0
C1184 C 0.03082 0.88253 0.60406 0.0
C1185 C 0.01386 0.85136 0.56156 0.0
N1186 N 0.04969 0.84773 0.65461 0.0
N1187 N 0.03143 0.84609 0.58139 0.0
H1188 H 0.42782 0.8581 0.94015 0.0
H1189 H 0.35472 0.78065 0.8651 0.0
H1190 H 0.4765 0.80352 0.94098 0.0
H1191 H 0.41875 0.74981 0.83698 0.0
H1192 H 0.37653 0.80609 0.8995 0.0
H1193 H 0.40163 0.83552 0.90784 0.0
C1194 C 0.43286 0.8413 0.93384 0.0
C1195 C 0.4543 0.83261 0.94335 0.0
C1196 C 0.38584 0.79407 0.88534 0.0
C1197 C 0.42443 0.80668 0.90697 0.0
C1198 C 0.37341 0.77954 0.86596 0.0
C1199 C 0.38519 0.76389 0.84749 0.0
C1200 C 0.41008 0.79235 0.88663 0.0
C1201 C 0.40924 0.7623 0.85009 0.0
C1202 C 0.41783 0.82836 0.91564 0.0
C1203 C 0.4601 0.81085 0.93431 0.0
N1204 N 0.42092 0.77639 0.86931 0.0
N1205 N 0.44532 0.79871 0.91645 0.0
H1206 H 0.36785 0.16814 0.10828 0.0
H1207 H 0.46862 0.15339 0.02512 0.0
H1208 H 0.4164 0.15187 0.1819 0.0
H1209 H 0.4764 0.09229 0.0773 0.0
H1210 H 0.43311 0.16131 0.05436 0.0
H1211 H 0.39196 0.14764 0.07039 0.0
C1212 C 0.38318 0.15955 0.11658 0.0
C1213 C 0.39023 0.16136 0.14807 0.0
C1214 C 0.44214 0.14577 0.05858 0.0
C1215 C 0.41768 0.13852 0.10531 0.0
C1216 C 0.46224 0.14121 0.0418 0.0
C1217 C 0.47462 0.12166 0.04783 0.0
C1218 C 0.43521 0.13125 0.08267 0.0
C1219 C 0.46679 0.10722 0.07149 0.0
C1220 C 0.39687 0.14805 0.09505 0.0
C1221 C 0.41048 0.1506 0.15775 0.0
N1222 N 0.44772 0.11252 0.08861 0.0
N1223 N 0.42365 0.13962 0.13631 0.0
H1224 H 0.14013 0.77107 0.13674 0.0
H1225 H 0.01434 0.80026 0.07436 0.0
H1226 H 0.07824 0.74065 0.17324 0.0
H1227 H 0.0709 0.84672 0.0654 0.0
H1228 H 0.03856 0.77665 0.1075 0.0
H1229 H 0.1161 0.79793 0.10757 0.0
C1230 C 0.12148 0.77036 0.13891 0.0
C1231 C 0.111 0.75424 0.15796 0.0
C1232 C 0.04567 0.79205 0.09839 0.0
C1233 C 0.08363 0.78399 0.12412 0.0
C1234 C 0.03191 0.80545 0.07929 0.0
C1235 C 0.04069 0.82541 0.06705 0.0
C1236 C 0.06851 0.79845 0.10491 0.0
C1237 C 0.06352 0.83142 0.0744 0.0
C1238 C 0.10782 0.78559 0.12236 0.0
C1239 C 0.08686 0.75336 0.15946 0.0
N1240 N 0.07676 0.81788 0.09272 0.0
N1241 N 0.07394 0.768 0.14264 0.0
H1242 H 0.43311 0.83985 0.30116 0.0
H1243 H 0.47714 0.85302 0.45819 0.0
H1244 H 0.37946 0.83325 0.37097 0.0
H1245 H 0.47957 0.91525 0.40778 0.0
H1246 H 0.44425 0.84146 0.4257 0.0
H1247 H 0.4541 0.86502 0.33677 0.0
C1248 C 0.42549 0.84433 0.32363 0.0
C1249 C 0.40441 0.8351 0.33308 0.0
C1250 C 0.45153 0.85794 0.42252 0.0
C1251 C 0.42862 0.86256 0.37403 0.0
C1252 C 0.47006 0.8646 0.44116 0.0
C1253 C 0.48009 0.88555 0.43668 0.0
C1254 C 0.44404 0.8718 0.39802 0.0
C1255 C 0.47169 0.89923 0.41244 0.0
C1256 C 0.43735 0.85864 0.34375 0.0
C1257 C 0.39547 0.84059 0.36278 0.0
N1258 N 0.45433 0.89192 0.39344 0.0
N1259 N 0.40799 0.85357 0.38273 0.0
H1260 H 0.39225 0.20684 0.69946 0.0
H1261 H 0.37016 0.17208 0.53916 0.0
H1262 H 0.32328 0.22082 0.66664 0.0
H1263 H 0.39441 0.11999 0.60074 0.0
H1264 H 0.35131 0.19003 0.5843 0.0
H1265 H 0.39349 0.17407 0.66531 0.0
C1266 C 0.37688 0.20226 0.68641 0.0
C1267 C 0.35727 0.21593 0.68683 0.0
C1268 C 0.35997 0.1742 0.58768 0.0
C1269 C 0.35939 0.17985 0.64558 0.0
C1270 C 0.37064 0.16398 0.56198 0.0
C1271 C 0.38363 0.14455 0.5664 0.0
C1272 C 0.36334 0.16543 0.61801 0.0
C1273 C 0.38427 0.13487 0.59648 0.0
C1274 C 0.3777 0.18376 0.66657 0.0
C1275 C 0.33852 0.21034 0.66736 0.0
N1276 N 0.37498 0.14586 0.6215 0.0
N1277 N 0.34027 0.19305 0.64679 0.0
H1278 H 0.12938 0.17066 0.87806 0.0
H1279 H 0.03566 0.08042 0.92725 0.0
H1280 H 0.08087 0.14236 0.81211 0.0
H1281 H 0.04741 0.14213 0.9766 0.0
H1282 H 0.06696 0.09023 0.89044 0.0
H1283 H 0.11392 0.14633 0.91944 0.0
C1284 C 0.11599 0.15875 0.87215 0.0
C1285 C 0.10639 0.15819 0.84185 0.0
C1286 C 0.06331 0.10098 0.91034 0.0
C1287 C 0.08881 0.13069 0.88858 0.0
C1288 C 0.0456 0.09545 0.93124 0.0
C1289 C 0.03955 0.11021 0.9555 0.0
C1290 C 0.07495 0.12127 0.91414 0.0
C1291 C 0.05232 0.12982 0.95923 0.0
C1292 C 0.10727 0.14495 0.89562 0.0
C1293 C 0.08867 0.14304 0.8353 0.0
N1294 N 0.06942 0.13484 0.93867 0.0
N1295 N 0.08028 0.12988 0.85866 0.0
H1296 H 0.89541 0.82564 0.51604 0.0
H1297 H 0.87566 0.78512 0.68696 0.0
H1298 H 0.89953 0.87153 0.59391 0.0
H1299 H 0.84481 0.75224 0.60678 0.0
H1300 H 0.88078 0.81867 0.65475 0.0
H1301 H 0.87283 0.80024 0.54874 0.0
C1302 C 0.89084 0.8306 0.53981 0.0
C1303 C 0.89909 0.85059 0.55242 0.0
C1304 C 0.87238 0.80427 0.64448 0.0
C1305 C 0.87434 0.82132 0.59046 0.0
C1306 C 0.86951 0.78512 0.66283 0.0
C1307 C 0.86032 0.76573 0.64928 0.0
C1308 C 0.86628 0.80379 0.61239 0.0
C1309 C 0.85246 0.76667 0.618 0.0
C1310 C 0.87805 0.81612 0.55855 0.0
C1311 C 0.89317 0.85627 0.58343 0.0
N1312 N 0.85604 0.78522 0.60045 0.0
N1313 N 0.88161 0.8414 0.60178 0.0
H1314 H -0.00126 0.17248 0.45691 0.0
H1315 H 0.89897 0.16861 0.32602 0.0
H1316 H 0.97663 0.11123 0.41339 0.0
H1317 H 0.93121 0.22832 0.36178 0.0
H1318 H 0.92233 0.14651 0.36333 0.0
H1319 H 0.96914 0.19256 0.42756 0.0
C1320 C 0.98726 0.16326 0.44148 0.0
C1321 C 0.98946 0.1402 0.43815 0.0
C1322 C 0.92405 0.16447 0.36308 0.0
C1323 C 0.95618 0.16304 0.40342 0.0
C1324 C 0.91071 0.17703 0.34198 0.0
C1325 C 0.91349 0.20021 0.34063 0.0
C1326 C 0.93993 0.17537 0.38294 0.0
C1327 C 0.92884 0.21042 0.36171 0.0
C1328 C 0.97051 0.17469 0.42451 0.0
C1329 C 0.975 0.12903 0.41688 0.0
N1330 N 0.94151 0.19794 0.38184 0.0
N1331 N 0.95882 0.14058 0.40024 0.0
H1332 H 0.58688 0.13396 0.09251 0.0
H1333 H 0.63293 0.25821 0.1097 0.0
H1334 H 0.56743 0.18743 0.02998 0.0
H1335 H 0.61641 0.21914 0.19215 0.0
H1336 H 0.61966 0.22775 0.07639 0.0
H1337 H 0.60796 0.16102 0.12554 0.0
C1338 C 0.58745 0.1513 0.08547 0.0
C1339 C 0.57545 0.15862 0.05864 0.0
C1340 C 0.61919 0.22577 0.10177 0.0
C1341 C 0.5995 0.1892 0.09568 0.0
C1342 C 0.62681 0.2431 0.12086 0.0
C1343 C 0.6255 0.24131 0.15381 0.0
C1344 C 0.61046 0.20635 0.1156 0.0
C1345 C 0.6175 0.22125 0.16685 0.0
C1346 C 0.59927 0.16665 0.10436 0.0
C1347 C 0.57641 0.18121 0.05059 0.0
N1348 N 0.61014 0.20448 0.14764 0.0
N1349 N 0.5883 0.19571 0.06898 0.0
H1350 H 0.55433 0.90017 0.93144 0.0
H1351 H 0.64688 0.81597 0.86079 0.0
H1352 H 0.56522 0.83402 0.96788 0.0
H1353 H 0.59579 0.84995 0.8046 0.0
H1354 H 0.63268 0.83574 0.90773 0.0
H1355 H 0.58556 0.89397 0.89322 0.0
C1356 C 0.56405 0.88474 0.93231 0.0
C1357 C 0.55766 0.86772 0.95318 0.0
C1358 C 0.62536 0.83956 0.88483 0.0
C1359 C 0.59306 0.86064 0.90989 0.0
C1360 C 0.63352 0.82849 0.85811 0.0
C1361 C 0.62243 0.83151 0.82902 0.0
C1362 C 0.60642 0.85399 0.882 0.0
C1363 C 0.60478 0.84736 0.82671 0.0
C1364 C 0.58176 0.88127 0.9106 0.0
C1365 C 0.57022 0.84779 0.95289 0.0
N1366 N 0.59712 0.85792 0.85302 0.0
N1367 N 0.58729 0.8447 0.93134 0.0
H1368 H 0.92276 0.22358 0.80277 0.0
H1369 H 0.91144 0.13989 0.94747 0.0
H1370 H 0.86215 0.22375 0.86212 0.0
H1371 H 0.97594 0.17027 0.91986 0.0
H1372 H 0.89117 0.16364 0.90895 0.0
H1373 H 0.94055 0.19603 0.83776 0.0
C1374 C 0.91305 0.21754 0.82286 0.0
C1375 C 0.89105 0.22604 0.82977 0.0
C1376 C 0.90976 0.16499 0.91145 0.0
C1377 C 0.91121 0.19459 0.86961 0.0
C1378 C 0.92129 0.15151 0.9333 0.0
C1379 C 0.94532 0.15332 0.93694 0.0
C1380 C 0.92254 0.17981 0.89269 0.0
C1381 C 0.95735 0.16855 0.91801 0.0
C1382 C 0.92326 0.20197 0.84288 0.0
C1383 C 0.87925 0.21771 0.85618 0.0
N1384 N 0.94585 0.1811 0.89654 0.0
N1385 N 0.8895 0.20241 0.87524 0.0
H1386 H 0.59303 0.16132 0.65183 0.0
H1387 H 0.47968 0.18251 0.54925 0.0
H1388 H 0.55538 0.22346 0.65325 0.0
H1389 H 0.50034 0.11685 0.57912 0.0
H1390 H 0.51082 0.1985 0.58136 0.0
H1391 H 0.56247 0.14514 0.61885 0.0
C1392 C 0.57834 0.17151 0.64525 0.0
C1393 C 0.57662 0.19369 0.65536 0.0
C1394 C 0.50861 0.18059 0.58079 0.0
C1395 C 0.54196 0.17546 0.61767 0.0
C1396 C 0.49107 0.17152 0.56231 0.0
C1397 C 0.4882 0.14841 0.56092 0.0
C1398 C 0.52324 0.16635 0.59793 0.0
C1399 C 0.50257 0.13476 0.57915 0.0
C1400 C 0.56094 0.16228 0.62655 0.0
C1401 C 0.55729 0.20623 0.64614 0.0
N1402 N 0.51975 0.14393 0.59669 0.0
N1403 N 0.54074 0.19696 0.62766 0.0
H1404 H 0.63581 0.75586 0.38496 0.0
H1405 H 0.58401 0.87906 0.39411 0.0
H1406 H 0.60531 0.78814 0.30404 0.0
H1407 H 0.58456 0.83219 0.47101 0.0
H1408 H 0.60349 0.85114 0.36066 0.0
H1409 H 0.62919 0.78942 0.41588 0.0
C1410 C 0.62801 0.77013 0.3735 0.0
C1411 C 0.62068 0.76903 0.34198 0.0
C1412 C 0.59983 0.84726 0.38508 0.0
C1413 C 0.61311 0.80759 0.37745 0.0
C1414 C 0.58899 0.86319 0.40419 0.0
C1415 C 0.5829 0.8578 0.43527 0.0
C1416 C 0.60488 0.82613 0.39755 0.0
C1417 C 0.58913 0.83691 0.44717 0.0
C1418 C 0.62425 0.78928 0.39124 0.0
C1419 C 0.61099 0.78821 0.32836 0.0
N1420 N 0.59974 0.82181 0.42828 0.0
N1421 N 0.60719 0.8067 0.34633 0.0
H1422 H 0.84409 0.81514 0.12679 0.0
H1423 H 0.94431 0.89729 0.07387 0.0
H1424 H 0.89029 0.84813 0.19134 0.0
H1425 H 0.9313 0.83298 0.0324 0.0
H1426 H 0.90995 0.89257 0.10724 0.0
H1427 H 0.86123 0.8363 0.08313 0.0
C1428 C 0.8569 0.82781 0.13194 0.0
C1429 C 0.86592 0.83005 0.16244 0.0
C1430 C 0.9141 0.88 0.08979 0.0
C1431 C 0.8854 0.85394 0.11316 0.0
C1432 C 0.93362 0.88261 0.07091 0.0
C1433 C 0.94018 0.86568 0.04997 0.0
C1434 C 0.90125 0.86029 0.08768 0.0
C1435 C 0.92629 0.8467 0.04749 0.0
C1436 C 0.86676 0.83966 0.10708 0.0
C1437 C 0.88292 0.84612 0.16803 0.0
N1438 N 0.90747 0.84443 0.06633 0.0
N1439 N 0.89241 0.85731 0.14345 0.0
H1440 H 0.57506 0.64625 0.9362 0.0
H1441 H 0.57084 0.74839 0.81595 0.0
H1442 H 0.52029 0.69514 0.93435 0.0
H1443 H 0.63495 0.71657 0.84157 0.0
H1444 H 0.55043 0.72474 0.85373 0.0
H1445 H 0.5961 0.66817 0.89662 0.0
C1446 C 0.56754 0.66163 0.92762 0.0
C1447 C 0.54595 0.66895 0.93865 0.0
C1448 C 0.56894 0.72279 0.85099 0.0
C1449 C 0.56964 0.69375 0.89325 0.0
C1450 C 0.5805 0.73607 0.82922 0.0
C1451 C 0.6044 0.73384 0.82519 0.0
C1452 C 0.58144 0.7073 0.86903 0.0
C1453 C 0.61638 0.71836 0.84373 0.0
C1454 C 0.57953 0.67408 0.90508 0.0
C1455 C 0.53694 0.68893 0.92666 0.0
N1456 N 0.60473 0.70548 0.86479 0.0
N1457 N 0.54875 0.70055 0.90449 0.0
H1458 H 0.58027 0.3512 0.19373 0.0
H1459 H 0.53678 0.34702 0.0305 0.0
H1460 H 0.63037 0.33457 0.12231 0.0
H1461 H 0.52466 0.4093 0.07821 0.0
H1462 H 0.57024 0.3404 0.0646 0.0
H1463 H 0.55818 0.3723 0.15421 0.0
C1464 C 0.5869 0.35264 0.16992 0.0
C1465 C 0.60716 0.34159 0.16108 0.0
C1466 C 0.56069 0.35585 0.06689 0.0
C1467 C 0.58179 0.36446 0.11604 0.0
C1468 C 0.54181 0.3597 0.04733 0.0
C1469 C 0.52884 0.3792 0.0507 0.0
C1470 C 0.56562 0.371 0.09113 0.0
C1471 C 0.5348 0.39435 0.07452 0.0
C1472 C 0.57443 0.36465 0.14754 0.0
C1473 C 0.61493 0.34328 0.1299 0.0
N1474 N 0.55261 0.38975 0.09436 0.0
N1475 N 0.60187 0.35406 0.10815 0.0
H1476 H 0.84592 0.29576 0.32858 0.0
H1477 H 0.92307 0.3893 0.4043 0.0
H1478 H 0.91807 0.29903 0.30381 0.0
H1479 H 0.90988 0.32978 0.45822 0.0
H1480 H 0.90254 0.3726 0.35926 0.0
H1481 H 0.85226 0.32551 0.36768 0.0
C1482 C 0.86277 0.30355 0.33023 0.0
C1483 C 0.88137 0.29556 0.31226 0.0
C1484 C 0.9033 0.36375 0.3815 0.0
C1485 C 0.88849 0.32929 0.35615 0.0
C1486 C 0.91486 0.37321 0.40714 0.0
C1487 C 0.91811 0.36076 0.43478 0.0
C1488 C 0.89448 0.34213 0.38422 0.0
C1489 C 0.90768 0.3398 0.43719 0.0
C1490 C 0.8663 0.3204 0.35241 0.0
C1491 C 0.90309 0.3055 0.31602 0.0
N1492 N 0.8965 0.33097 0.41199 0.0
N1493 N 0.90611 0.32182 0.33775 0.0
H1494 H 0.93025 0.66584 0.67986 0.0
H1495 H 0.99171 0.59705 0.57496 0.0
H1496 H 0.88366 0.67163 0.60096 0.0
H1497 H 0.9896 0.66069 0.52806 0.0
H1498 H 0.95734 0.60784 0.60565 0.0
H1499 H 0.95797 0.64623 0.64583 0.0
C1500 C 0.92572 0.66245 0.65552 0.0
C1501 C 0.90449 0.66946 0.64325 0.0
C1502 C 0.96409 0.61905 0.58789 0.0
C1503 C 0.93622 0.64836 0.6043 0.0
C1504 C 0.98354 0.613 0.57052 0.0
C1505 C 0.99283 0.62777 0.5483 0.0
C1506 C 0.95411 0.64002 0.58299 0.0
C1507 C 0.98227 0.64855 0.54404 0.0
C1508 C 0.94143 0.65138 0.63627 0.0
C1509 C 0.89964 0.66569 0.6113 0.0
N1510 N 0.96331 0.65411 0.56125 0.0
N1511 N 0.91565 0.65565 0.59258 0.0
H1512 H 0.60922 0.33132 0.53576 0.0
H1513 H 0.60291 0.29072 0.70005 0.0
H1514 H 0.58772 0.37859 0.60633 0.0
H1515 H 0.66414 0.27441 0.6471 0.0
H1516 H 0.59843 0.32463 0.66875 0.0
H1517 H 0.63156 0.31136 0.57591 0.0
C1518 C 0.60995 0.3379 0.55953 0.0
C1519 C 0.59685 0.35658 0.56791 0.0
C1520 C 0.61339 0.31412 0.66481 0.0
C1521 C 0.62125 0.33341 0.61402 0.0
C1522 C 0.61609 0.29491 0.68295 0.0
C1523 C 0.63431 0.28019 0.67674 0.0
C1524 C 0.62826 0.31784 0.63919 0.0
C1525 C 0.65004 0.28559 0.6528 0.0
C1526 C 0.62264 0.32656 0.58242 0.0
C1527 C 0.59788 0.36433 0.59907 0.0
N1528 N 0.64633 0.30372 0.63429 0.0
N1529 N 0.60928 0.35227 0.62135 0.0
H1530 H 0.93005 0.34301 0.96883 0.0
H1531 H 0.8994 0.34566 0.80408 0.0
H1532 H 0.9393 0.40572 0.92118 0.0
H1533 H 0.84961 0.31582 0.86657 0.0
H1534 H 0.91099 0.37107 0.84621 0.0
H1535 H 0.89698 0.33503 0.93505 0.0
C1536 C 0.92432 0.35562 0.95233 0.0
C1537 C 0.93692 0.3753 0.94828 0.0
C1538 C 0.89687 0.3596 0.85042 0.0
C1539 C 0.9004 0.36551 0.90788 0.0
C1540 C 0.89035 0.34511 0.82643 0.0
C1541 C 0.87345 0.32895 0.83202 0.0
C1542 C 0.88744 0.35686 0.88064 0.0
C1543 C 0.86254 0.32835 0.86148 0.0
C1544 C 0.90556 0.35099 0.93284 0.0
C1545 C 0.92978 0.39044 0.9251 0.0
N1546 N 0.87025 0.34167 0.88517 0.0
N1547 N 0.91233 0.38497 0.9051 0.0
H1548 H 0.96478 0.69125 0.04727 0.0
H1549 H 0.84874 0.71434 0.14293 0.0
H1550 H 0.91012 0.64237 0.05162 0.0
H1551 H 0.91408 0.74516 0.16475 0.0
H1552 H 0.86841 0.69045 0.10397 0.0
H1553 H 0.94354 0.71445 0.08445 0.0
C1554 C 0.94818 0.68548 0.05581 0.0
C1555 C 0.93921 0.66482 0.0464 0.0
C1556 C 0.87841 0.70233 0.11751 0.0
C1557 C 0.91483 0.69134 0.08905 0.0
C1558 C 0.86725 0.71586 0.13962 0.0
C1559 C 0.88006 0.73107 0.15753 0.0
C1560 C 0.9023 0.70478 0.11268 0.0
C1561 C 0.90381 0.73307 0.15196 0.0
C1562 C 0.93615 0.69868 0.0772 0.0
C1563 C 0.91765 0.65818 0.05835 0.0
N1564 N 0.91419 0.72008 0.12999 0.0
N1565 N 0.90612 0.67145 0.07911 0.0
H1566 H 0.60551 0.67625 0.38879 0.0
H1567 H 0.50363 0.59344 0.42043 0.0
H1568 H 0.55553 0.66597 0.31478 0.0
H1569 H 0.50456 0.65547 0.47158 0.0
H1570 H 0.53504 0.60758 0.38654 0.0
H1571 H 0.58015 0.65581 0.42542 0.0
C1572 C 0.58947 0.66915 0.38021 0.0
C1573 C 0.58265 0.67209 0.3488 0.0
C1574 C 0.52871 0.61768 0.40586 0.0
C1575 C 0.55424 0.64893 0.38983 0.0
C1576 C 0.51097 0.60972 0.42504 0.0
C1577 C 0.50239 0.62305 0.4495 0.0
C1578 C 0.53771 0.63895 0.41152 0.0
C1579 C 0.51165 0.64435 0.45397 0.0
C1580 C 0.57514 0.65766 0.40096 0.0
C1581 C 0.56142 0.6635 0.33877 0.0
N1582 N 0.52904 0.65166 0.43524 0.0
N1583 N 0.54793 0.65202 0.35925 0.0
H1584 H 0.436 0.31345 0.01863 0.0
H1585 H 0.38139 0.28309 0.18143 0.0
H1586 H 0.41571 0.36636 0.0816 0.0
H1587 H 0.36632 0.24545 0.0971 0.0
H1588 H 0.39622 0.31353 0.14816 0.0
H1589 H 0.41297 0.28729 0.04961 0.0
C1590 C 0.42641 0.31956 0.0388 0.0
C1591 C 0.42757 0.342 0.04759 0.0
C1592 C 0.38929 0.29869 0.13712 0.0
C1593 C 0.40181 0.31217 0.0836 0.0
C1594 C 0.38091 0.28134 0.15602 0.0
C1595 C 0.37283 0.26163 0.14203 0.0
C1596 C 0.38994 0.29598 0.10422 0.0
C1597 C 0.37254 0.26025 0.10898 0.0
C1598 C 0.41327 0.30468 0.05643 0.0
C1599 C 0.41497 0.34915 0.07399 0.0
N1600 N 0.38132 0.27701 0.09126 0.0
N1601 N 0.40287 0.33415 0.09154 0.0
H1602 H 0.43885 0.66386 0.98049 0.0
H1603 H 0.39471 0.64712 0.81853 0.0
H1604 H 0.44981 0.59961 0.93778 0.0
H1605 H 0.34988 0.67974 0.88516 0.0
H1606 H 0.41276 0.62662 0.86193 0.0
H1607 H 0.40403 0.66861 0.94835 0.0
C1608 C 0.43331 0.65036 0.96533 0.0
C1609 C 0.44673 0.63108 0.96229 0.0
C1610 C 0.39832 0.63756 0.86698 0.0
C1611 C 0.40803 0.63697 0.92405 0.0
C1612 C 0.38798 0.64912 0.8422 0.0
C1613 C 0.37077 0.66488 0.84849 0.0
C1614 C 0.39209 0.64271 0.89815 0.0
C1615 C 0.36297 0.66745 0.87954 0.0
C1616 C 0.41355 0.6531 0.94685 0.0
C1617 C 0.43963 0.61459 0.94097 0.0
N1618 N 0.37425 0.65704 0.90349 0.0
N1619 N 0.42101 0.6181 0.9221 0.0
H1620 H 0.1129 0.71274 0.70013 0.0
H1621 H 0.09853 0.67999 0.52456 0.0
H1622 H 0.14398 0.75099 0.62511 0.0
H1623 H 0.09888 0.62926 0.59642 0.0
H1624 H 0.11741 0.70556 0.5612 0.0
H1625 H 0.1096 0.68094 0.66398 0.0
C1626 C 0.11943 0.71431 0.6763 0.0
C1627 C 0.12827 0.73466 0.6654 0.0
C1628 C 0.11391 0.68868 0.56881 0.0
C1629 C 0.12439 0.69862 0.6241 0.0
C1630 C 0.10318 0.67412 0.54789 0.0
C1631 C 0.09726 0.65262 0.55763 0.0
C1632 C 0.11794 0.6819 0.60004 0.0
C1633 C 0.1034 0.64574 0.5881 0.0
C1634 C 0.11761 0.69617 0.65573 0.0
C1635 C 0.13664 0.73575 0.63438 0.0
N1636 N 0.11292 0.66057 0.60863 0.0
N1637 N 0.13408 0.71815 0.61467 0.0
H1638 H 0.03441 0.38677 0.41687 0.0
H1639 H 0.06607 0.26754 0.34858 0.0
H1640 H 0.01291 0.32463 0.45827 0.0
H1641 H 0.10026 0.32715 0.31608 0.0
H1642 H 0.04807 0.28879 0.39051 0.0
H1643 H 0.06042 0.36612 0.38144 0.0
C1644 C 0.03563 0.36882 0.41887 0.0
C1645 C 0.02213 0.3573 0.44089 0.0
C1646 C 0.05959 0.29732 0.37441 0.0
C1647 C 0.05097 0.3337 0.40025 0.0
C1648 C 0.06977 0.28519 0.35028 0.0
C1649 C 0.08442 0.2957 0.32861 0.0
C1650 C 0.06371 0.32029 0.37671 0.0
C1651 C 0.08892 0.31851 0.33227 0.0
C1652 C 0.05039 0.35708 0.39876 0.0
C1653 C 0.02365 0.33409 0.44222 0.0
N1654 N 0.07832 0.33019 0.35572 0.0
N1655 N 0.03775 0.32304 0.42209 0.0
H1656 H 0.40013 0.67538 0.48602 0.0
H1657 H 0.39035 0.71012 0.30915 0.0
H1658 H 0.39945 0.62594 0.41239 0.0
H1659 H 0.36207 0.75034 0.38421 0.0
H1660 H 0.39255 0.67847 0.3457 0.0
H1661 H 0.38394 0.70254 0.44923 0.0
C1662 C 0.39578 0.6701 0.46231 0.0
C1663 C 0.40087 0.64846 0.45216 0.0
C1664 C 0.38551 0.69415 0.35394 0.0
C1665 C 0.38352 0.67961 0.40951 0.0
C1666 C 0.38439 0.71223 0.33317 0.0
C1667 C 0.37633 0.73296 0.34377 0.0
C1668 C 0.37886 0.69701 0.38556 0.0
C1669 C 0.36865 0.73474 0.37507 0.0
C1670 C 0.38671 0.68561 0.44123 0.0
C1671 C 0.39541 0.64245 0.42109 0.0
N1672 N 0.37043 0.71711 0.39495 0.0
N1673 N 0.38753 0.65813 0.40053 0.0
H1674 H 0.04728 0.65667 0.01034 0.0
H1675 H 0.0968 0.63822 0.17188 0.0
H1676 H 0.03487 0.59364 0.05575 0.0
H1677 H 0.13999 0.66957 0.10213 0.0
H1678 H 0.07518 0.61977 0.12964 0.0
H1679 H 0.08257 0.66108 0.04179 0.0
C1680 C 0.05256 0.64336 0.02601 0.0
C1681 C 0.03869 0.62446 0.02987 0.0
C1682 C 0.08992 0.63003 0.12357 0.0
C1683 C 0.07794 0.62999 0.06722 0.0
C1684 C 0.10227 0.64044 0.14765 0.0
C1685 C 0.12021 0.65516 0.14026 0.0
C1686 C 0.09496 0.63527 0.09204 0.0
C1687 C 0.12639 0.65804 0.10858 0.0
C1688 C 0.07256 0.64592 0.04408 0.0
C1689 C 0.04544 0.60827 0.05184 0.0
N1690 N 0.11329 0.64872 0.08545 0.0
N1691 N 0.06439 0.61157 0.07016 0.0
H1692 H 0.07199 0.26376 0.80141 0.0
H1693 H 0.06835 0.3492 0.94414 0.0
H1694 H 0.12395 0.26146 0.8744 0.0
H1695 H 0.00686 0.31689 0.90913 0.0
H1696 H 0.09191 0.32474 0.91031 0.0
H1697 H 0.05084 0.2918 0.83206 0.0
C1698 C 0.07917 0.26948 0.82358 0.0
C1699 C 0.09967 0.26026 0.83552 0.0
C1700 C 0.07325 0.32316 0.91007 0.0
C1701 C 0.07575 0.2923 0.87032 0.0
C1702 C 0.05985 0.33706 0.92922 0.0
C1703 C 0.0357 0.33488 0.92947 0.0
C1704 C 0.06229 0.30757 0.89047 0.0
C1705 C 0.02546 0.31891 0.90978 0.0
C1706 C 0.06703 0.28531 0.84109 0.0
C1707 C 0.10812 0.26811 0.86451 0.0
N1708 N 0.03881 0.30596 0.89084 0.0
N1709 N 0.09613 0.28376 0.88097 0.0
H1710 H 0.49897 0.32236 0.54774 0.0
H1711 H 0.39126 0.33858 0.66401 0.0
H1712 H 0.47872 0.38668 0.58338 0.0
H1713 H 0.42551 0.27588 0.64634 0.0
H1714 H 0.41887 0.35688 0.62822 0.0
H1715 H 0.46769 0.30521 0.57782 0.0
C1716 C 0.4876 0.33284 0.56162 0.0
C1717 C 0.49073 0.3559 0.56251 0.0
C1718 C 0.42018 0.33911 0.63222 0.0
C1719 C 0.45549 0.33656 0.59762 0.0
C1720 C 0.40445 0.3287 0.65246 0.0
C1721 C 0.40633 0.30579 0.65834 0.0
C1722 C 0.43757 0.32635 0.61768 0.0
C1723 C 0.42363 0.29365 0.6428 0.0
C1724 C 0.46991 0.32311 0.57896 0.0
C1725 C 0.47634 0.36883 0.58176 0.0
N1726 N 0.43857 0.30408 0.62325 0.0
N1727 N 0.45912 0.35898 0.59851 0.0
H1728 H 0.29639 0.24428 0.2182 0.0
H1729 H 0.16568 0.22884 0.16285 0.0
H1730 H 0.26919 0.18629 0.17061 0.0
H1731 H 0.18352 0.26825 0.24455 0.0
H1732 H 0.20663 0.22236 0.15319 0.0
H1733 H 0.25746 0.26078 0.21761 0.0
C1734 C 0.2823 0.23508 0.20752 0.0
C1735 C 0.28596 0.21379 0.19469 0.0
C1736 C 0.20156 0.23276 0.17291 0.0
C1737 C 0.24194 0.23277 0.19316 0.0
C1738 C 0.17821 0.23657 0.17837 0.0
C1739 C 0.17116 0.24861 0.20505 0.0
C1740 C 0.21797 0.24105 0.19422 0.0
C1741 C 0.18821 0.25861 0.22395 0.0
C1742 C 0.26021 0.24453 0.20713 0.0
C1743 C 0.26715 0.20263 0.18106 0.0
N1744 N 0.21094 0.25424 0.21852 0.0
N1745 N 0.24599 0.21228 0.1806 0.0
H1746 H 0.00434 0.94455 0.45147 0.0
H1747 H 0.97476 0.06149 0.53213 0.0
H1748 H 0.94908 0.9527 0.51906 0.0
H1749 H 0.03615 0.0482 0.47711 0.0
H1750 H 0.96309 0.0226 0.52519 0.0
H1751 H 0.01318 0.98396 0.45631 0.0
C1752 C 0.99382 0.95466 0.46703 0.0
C1753 C 0.97607 0.94518 0.48513 0.0
C1754 C 0.97915 0.02825 0.5148 0.0
C1755 C 0.9864 0.99042 0.49112 0.0
C1756 C 0.98592 0.0504 0.51891 0.0
C1757 C 0.00647 0.0582 0.50515 0.0
C1758 C 0.99298 0.01389 0.49669 0.0
C1759 C 0.02014 0.04305 0.48813 0.0
C1760 C -0.00098 0.97719 0.46995 0.0
C1761 C 0.96298 0.95925 0.50473 0.0
N1762 N 0.01308 0.0217 0.48428 0.0
N1763 N 0.96855 0.98116 0.50743 0.0
H1764 H 0.31715 0.78978 0.73869 0.0
H1765 H 0.18237 0.76289 0.75529 0.0
H1766 H 0.28965 0.72902 0.77834 0.0
H1767 H 0.20809 0.827 0.72519 0.0
H1768 H 0.22189 0.7503 0.76291 0.0
H1769 H 0.27763 0.80348 0.73158 0.0
C1770 C 0.30285 0.77924 0.7457 0.0
C1771 C 0.30678 0.75821 0.75921 0.0
C1772 C 0.21896 0.76717 0.75478 0.0
C1773 C 0.26159 0.77387 0.75132 0.0
C1774 C 0.19634 0.77441 0.75044 0.0
C1775 C 0.19187 0.79604 0.73947 0.0
C1776 C 0.23738 0.78157 0.74795 0.0
C1777 C 0.21073 0.81021 0.73378 0.0
C1778 C 0.2803 0.78715 0.74179 0.0
C1779 C 0.28754 0.74536 0.76794 0.0
N1780 N 0.23272 0.80266 0.73789 0.0
N1781 N 0.26584 0.75341 0.76386 0.0
H1782 H 0.49623 0.04408 0.954 0.0
H1783 H 0.54346 0.93935 0.05084 0.0
H1784 H 0.54814 0.04956 0.02696 0.0
H1785 H 0.48555 0.93698 0.98644 0.0
H1786 H 0.54621 0.97948 0.04212 0.0
H1787 H 0.49413 0.00422 0.9636 0.0
C1788 C 0.50743 0.0369 0.97179 0.0
C1789 C 0.5223 0.05032 0.98982 0.0
C1790 C 0.53281 0.97016 0.03012 0.0
C1791 C 0.51969 0.00453 0.00124 0.0
C1792 C 0.5311 0.94725 0.03523 0.0
C1793 C 0.51432 0.93465 0.01921 0.0
C1794 C 0.51769 0.98053 0.00875 0.0
C1795 C 0.49884 0.9459 -0.00075 0.0
C1796 C 0.50606 0.0141 0.97743 0.0
C1797 C 0.53639 0.03994 0.0125 0.0
N1798 N 0.50103 0.96813 0.99442 0.0
N1799 N 0.53463 0.01766 0.01769 0.0
H1800 H 0.20455 0.74314 0.17929 0.0
H1801 H 0.31219 0.75413 0.29141 0.0
H1802 H 0.19636 0.73784 0.28005 0.0
H1803 H 0.29982 0.80521 0.22182 0.0
H1804 H 0.27393 0.73847 0.28013 0.0
H1805 H 0.24429 0.75686 0.18746 0.0
C1806 C 0.2113 0.74458 0.20304 0.0
C1807 C 0.19744 0.73939 0.22911 0.0
C1808 C 0.27977 0.75298 0.26721 0.0
C1809 C 0.24237 0.75449 0.23839 0.0
C1810 C 0.30153 0.76184 0.27344 0.0
C1811 C 0.30903 0.78097 0.25748 0.0
C1812 C 0.26578 0.76296 0.24427 0.0
C1813 C 0.29451 0.79049 0.23467 0.0
C1814 C 0.23374 0.7525 0.20763 0.0
C1815 C 0.20666 0.74173 0.25946 0.0
N1816 N 0.27352 0.78126 0.2285 0.0
N1817 N 0.22873 0.74893 0.26332 0.0
H1818 H 0.53717 0.96558 0.46504 0.0
H1819 H 0.44903 0.0589 0.5218 0.0
H1820 H 0.49467 0.96052 0.54844 0.0
H1821 H 0.5059 0.07472 0.45965 0.0
H1822 H 0.46423 0.02144 0.52764 0.0
H1823 H 0.52615 0.00494 0.46042 0.0
C1824 C 0.52599 0.97281 0.48278 0.0
C1825 C 0.51663 0.95959 0.50697 0.0
C1826 C 0.47342 0.03308 0.51269 0.0
C1827 C 0.50355 0.0043 0.50128 0.0
C1828 C 0.46461 0.05449 0.50906 0.0
C1829 C 0.47618 0.07013 0.4902 0.0
C1830 C 0.49391 0.027 0.49719 0.0
C1831 C 0.49637 0.06325 0.47442 0.0
C1832 C 0.51956 0.99522 0.47995 0.0
C1833 C 0.50211 0.9699 0.52915 0.0
N1834 N 0.5046 0.04215 0.47825 0.0
N1835 N 0.49579 0.99149 0.5255 0.0
H1836 H 0.21674 0.20244 0.80914 0.0
H1837 H 0.29257 0.28245 0.72118 0.0
H1838 H 0.18032 0.25389 0.75802 0.0
H1839 H 0.30783 0.26467 0.81756 0.0
H1840 H 0.25153 0.27502 0.7312 0.0
H1841 H 0.25126 0.22519 0.80862 0.0
C1842 C 0.21594 0.21858 0.79785 0.0
C1843 C 0.19556 0.22629 0.78365 0.0
C1844 C 0.2638 0.27364 0.75042 0.0
C1845 C 0.23534 0.2524 0.78273 0.0
C1846 C 0.2872 0.27794 0.74479 0.0
C1847 C 0.30363 0.27346 0.76837 0.0
C1848 C 0.25721 0.26466 0.77956 0.0
C1849 C 0.29575 0.26769 0.79851 0.0
C1850 C 0.23564 0.23168 0.79786 0.0
C1851 C 0.19572 0.24739 0.76925 0.0
N1852 N 0.27314 0.2628 0.80302 0.0
N1853 N 0.21555 0.25965 0.76859 0.0
H1854 H 0.95696 0.04837 0.99125 0.0
H1855 H 0.01804 0.93155 0.02606 0.0
H1856 H 0.01359 0.03969 0.05667 0.0
H1857 H 0.96013 0.93935 0.96252 0.0
H1858 H 0.01655 0.97125 0.03738 0.0
H1859 H 0.95642 0.00823 0.9825 0.0
C1860 C 0.96901 0.03804 0.00424 0.0
C1861 C 0.98555 0.04754 0.02446 0.0
C1862 C 0.00421 0.9643 0.02087 0.0
C1863 C 0.98528 0.00158 0.01399 0.0
C1864 C 0.00517 0.94161 0.01415 0.0
C1865 C 0.98911 0.93198 0.99338 0.0
C1866 C 0.98709 0.97754 0.00673 0.0
C1867 C 0.97285 0.94597 0.97873 0.0
C1868 C 0.96881 0.01511 -0.00101 0.0
C1869 C 0.00065 0.03321 0.04066 0.0
N1870 N 0.97219 0.96803 0.98583 0.0
N1871 N 0.00032 0.01099 0.03479 0.0
H1872 H 0.77938 0.66883 0.69427 0.0
H1873 H 0.6978 0.76966 0.74825 0.0
H1874 H 0.80348 0.73254 0.72844 0.0
H1875 H 0.67042 0.70703 0.7147 0.0
H1876 H 0.73666 0.75579 0.73979 0.0
H1877 H 0.73938 0.68163 0.70154 0.0
C1878 C 0.77631 0.68538 0.70355 0.0
C1879 C 0.79487 0.69963 0.71067 0.0
C1880 C 0.72222 0.74502 0.73416 0.0
C1881 C 0.7493 0.71438 0.71868 0.0
C1882 C 0.69993 0.75297 0.73894 0.0
C1883 C 0.68073 0.73946 0.73237 0.0
C1884 C 0.72556 0.72329 0.72277 0.0
C1885 C 0.68471 0.71803 0.7201 0.0
C1886 C 0.75349 0.69271 0.7075 0.0
C1887 C 0.78983 0.72096 0.72242 0.0
N1888 N 0.70673 0.71054 0.71585 0.0
N1889 N 0.76761 0.72764 0.72596 0.0
H1890 H 0.69802 0.25778 0.2359 0.0
H1891 H 0.82879 0.27042 0.18078 0.0
H1892 H 0.7271 0.31681 0.19331 0.0
H1893 H 0.81114 0.23157 0.26307 0.0
H1894 H 0.78799 0.27862 0.17291 0.0
H1895 H 0.73673 0.24075 0.23592 0.0
C1896 C 0.71249 0.26712 0.22654 0.0
C1897 C 0.70939 0.28879 0.21472 0.0
C1898 C 0.79305 0.26799 0.19237 0.0
C1899 C 0.75312 0.26923 0.21381 0.0
C1900 C 0.81631 0.26318 0.19683 0.0
C1901 C 0.82345 0.25077 0.22313 0.0
C1902 C 0.77679 0.26025 0.21423 0.0
C1903 C 0.80641 0.24146 0.24272 0.0
C1904 C 0.73444 0.25738 0.22649 0.0
C1905 C 0.72867 0.30016 0.20284 0.0
N1906 N 0.78377 0.24672 0.23819 0.0
N1907 N 0.74968 0.29018 0.20253 0.0
H1908 H 0.69999 0.21398 0.78287 0.0
H1909 H 0.79543 0.27257 0.70308 0.0
H1910 H 0.69814 0.21748 0.68138 0.0
H1911 H 0.81366 0.22659 0.77715 0.0
H1912 H 0.76082 0.25045 0.69213 0.0
H1913 H 0.74227 0.21504 0.78099 0.0
C1914 C 0.70859 0.21415 0.76017 0.0
C1915 C 0.69577 0.21583 0.73226 0.0
C1916 C 0.77279 0.24477 0.71007 0.0
C1917 C 0.74372 0.2179 0.72998 0.0
C1918 C 0.79241 0.25745 0.71641 0.0
C1919 C 0.80712 0.25143 0.74119 0.0
C1920 C 0.76751 0.22655 0.72951 0.0
C1921 C 0.8026 0.23173 0.75786 0.0
C1922 C 0.73265 0.21471 0.75907 0.0
C1923 C 0.70755 0.21615 0.70339 0.0
N1924 N 0.78272 0.22032 0.7524 0.0
N1925 N 0.73095 0.21799 0.70299 0.0
H1926 H 0.81683 0.70351 0.27119 0.0
H1927 H 0.68325 0.73821 0.26984 0.0
H1928 H 0.79074 0.76801 0.24317 0.0
H1929 H 0.70642 0.67187 0.29381 0.0
H1930 H 0.72311 0.74929 0.26185 0.0
H1931 H 0.77708 0.69169 0.28238 0.0
C1932 C 0.80283 0.71523 0.26765 0.0
C1933 C 0.80713 0.73673 0.25598 0.0
C1934 C 0.71956 0.73228 0.2688 0.0
C1935 C 0.76179 0.7233 0.26854 0.0
C1936 C 0.69671 0.72589 0.27333 0.0
C1937 C 0.6914 0.70403 0.28248 0.0
C1938 C 0.73739 0.71675 0.27345 0.0
C1939 C 0.7097 0.68888 0.28661 0.0
C1940 C 0.78016 0.70844 0.2739 0.0
C1941 C 0.78831 0.75121 0.25182 0.0
N1942 N 0.73193 0.69554 0.2821 0.0
N1943 N 0.76653 0.7442 0.258 0.0
H1944 H 0.51462 0.45479 0.95093 0.0
H1945 H 0.46807 0.55767 0.05247 0.0
H1946 H 0.4584 0.45046 0.01774 0.0
H1947 H 0.52164 0.56363 0.98198 0.0
H1948 H 0.46532 0.51805 0.04098 0.0
H1949 H 0.51718 0.49471 0.96119 0.0
C1950 C 0.50255 0.46224 0.96738 0.0
C1951 C 0.48635 0.44912 0.98364 0.0
C1952 C 0.47777 0.52799 0.02812 0.0
C1953 C 0.48953 0.49481 0.99588 0.0
C1954 C 0.4795 0.55064 0.03485 0.0
C1955 C 0.49507 0.56413 0.01809 0.0
C1956 C 0.4917 0.51865 0.00447 0.0
C1957 C 0.50939 0.55395 0.99553 0.0
C1958 C 0.50417 0.48504 0.9734 0.0
C1959 C 0.47122 0.4598 0.00469 0.0
N1960 N 0.50726 0.53184 0.98926 0.0
N1961 N 0.47332 0.48196 0.01038 0.0
H1962 H 0.03927 0.43449 0.53585 0.0
H1963 H 0.00251 0.54877 0.45578 0.0
H1964 H 0.97248 0.44752 0.49387 0.0
H1965 H 0.05592 0.54692 0.52713 0.0
H1966 H 0.99565 0.5094 0.46404 0.0
H1967 H 0.04887 0.47415 0.52983 0.0
C1968 C 0.02654 0.44566 0.5258 0.0
C1969 C 0.00514 0.43758 0.51498 0.0
C1970 C 0.00892 0.51757 0.47788 0.0
C1971 C 0.01619 0.48252 0.50756 0.0
C1972 C 0.01299 0.54008 0.47302 0.0
C1973 C 0.02966 0.55131 0.49105 0.0
C1974 C 0.02164 0.50603 0.50081 0.0
C1975 C 0.0428 0.53896 0.51283 0.0
C1976 C 0.03208 0.4682 0.52226 0.0
C1977 C 0.98931 0.45282 0.50217 0.0
N1978 N 0.03843 0.51691 0.51724 0.0
N1979 N 0.99526 0.47445 0.49854 0.0
H1980 H 0.96196 0.44855 0.04353 0.0
H1981 H 0.01656 0.54817 0.94294 0.0
H1982 H 0.01804 0.44016 0.97726 0.0
H1983 H 0.96143 0.55695 0.01058 0.0
H1984 H 0.01712 0.50848 0.95502 0.0
H1985 H 0.96251 0.48852 0.03329 0.0
C1986 C 0.97466 0.4551 0.02721 0.0
C1987 C 0.98986 0.44084 0.01106 0.0
C1988 C 0.00483 0.51908 0.96711 0.0
C1989 C 0.99027 0.48664 -0.00117 0.0
C1990 C 0.00436 0.54177 0.96005 0.0
C1991 C 0.98896 0.55604 0.97581 0.0
C1992 C 0.98979 0.51054 0.9901 0.0
C1993 C 0.97363 0.54666 -0.00219 0.0
C1994 C 0.97482 0.47794 0.02119 0.0
C1995 C 0.0059 0.45041 0.99019 0.0
N1996 N 0.97451 0.52454 0.00439 0.0
N1997 N 0.00554 0.47266 0.98449 0.0
H1998 H 0.47712 0.43183 0.46235 0.0
H1999 H 0.49125 0.54487 0.55958 0.0
H2000 H 0.53269 0.44565 0.52769 0.0
H2001 H 0.44862 0.54099 0.4761 0.0
H2002 H 0.50148 0.50589 0.55292 0.0
H2003 H 0.46287 0.46994 0.46998 0.0
C2004 C 0.4865 0.44288 0.47798 0.0
C2005 C 0.50617 0.43543 0.49442 0.0
C2006 C 0.48974 0.51349 0.53615 0.0
C2007 C 0.4896 0.47875 0.50371 0.0
C2008 C 0.48372 0.53573 0.54008 0.0
C2009 C 0.46926 0.54634 0.51814 0.0
C2010 C 0.48127 0.50162 0.51011 0.0
C2011 C 0.45987 0.53351 0.49355 0.0
C2012 C 0.47825 0.46457 0.48243 0.0
C2013 C 0.51749 0.45052 0.51446 0.0
N2014 N 0.46623 0.51181 0.48997 0.0
N2015 N 0.50895 0.47134 0.51868 0.0
H2016 H 0.99494 0.35927 0.11143 0.0
H2017 H 0.0806 0.25794 0.14097 0.0
H2018 H 0.04022 0.33304 0.03942 0.0
H2019 H 0.06142 0.30278 0.2162 0.0
H2020 H 0.06101 0.28239 0.1034 0.0
H2021 H 0.01509 0.33622 0.15059 0.0
C2022 C 0.00921 0.34886 0.10389 0.0
C2023 C 0.01591 0.34814 0.07208 0.0
C2024 C 0.06112 0.28686 0.12814 0.0
C2025 C 0.03856 0.3215 0.1165 0.0
C2026 C 0.07214 0.27284 0.14962 0.0
C2027 C 0.07271 0.27837 0.18174 0.0
C2028 C 0.05023 0.30634 0.1389 0.0
C2029 C 0.06153 0.29798 0.19159 0.0
C2030 C 0.02066 0.33573 0.12622 0.0
C2031 C 0.0345 0.33427 0.06365 0.0
N2032 N 0.05062 0.31123 0.17025 0.0
N2033 N 0.04499 0.32134 0.08565 0.0
H2034 H 0.9162 0.76919 0.31184 0.0
H2035 H 0.90617 0.87019 0.42974 0.0
H2036 H 0.86503 0.82027 0.29487 0.0
H2037 H 0.97182 0.84197 0.40196 0.0
H2038 H 0.88748 0.84943 0.38669 0.0
H2039 H 0.93321 0.79237 0.35291 0.0
C2040 C 0.90838 0.7852 0.31689 0.0
C2041 C 0.8892 0.79284 0.29969 0.0
C2042 C 0.906 0.84805 0.39002 0.0
C2043 C 0.9086 0.81936 0.34696 0.0
C2044 C 0.91667 0.85983 0.4145 0.0
C2045 C 0.94061 0.85776 0.41961 0.0
C2046 C 0.91929 0.83373 0.37117 0.0
C2047 C 0.95336 0.84411 0.39906 0.0
C2048 C 0.91822 0.79847 0.3402 0.0
C2049 C 0.87989 0.8138 0.30741 0.0
N2050 N 0.94249 0.83239 0.37609 0.0
N2051 N 0.88961 0.82634 0.33067 0.0
H2052 H 0.41161 0.72306 0.692 0.0
H2053 H 0.40119 0.62232 0.57644 0.0
H2054 H 0.36246 0.67158 0.71594 0.0
H2055 H 0.46739 0.64626 0.60941 0.0
H2056 H 0.38235 0.64316 0.61939 0.0
H2057 H 0.42759 0.6989 0.6514 0.0
C2058 C 0.40396 0.70677 0.68857 0.0
C2059 C 0.38575 0.69928 0.70769 0.0
C2060 C 0.401 0.64352 0.6172 0.0
C2061 C 0.40393 0.6717 0.66083 0.0
C2062 C 0.41177 0.63171 0.5928 0.0
C2063 C 0.43592 0.63266 0.58911 0.0
C2064 C 0.41448 0.65676 0.63731 0.0
C2065 C 0.44876 0.64505 0.61109 0.0
C2066 C 0.41323 0.69297 0.66548 0.0
C2067 C 0.3766 0.67795 0.70189 0.0
N2068 N 0.43785 0.65692 0.63386 0.0
N2069 N 0.38574 0.66485 0.67877 0.0
H2070 H 0.58475 0.17865 0.76499 0.0
H2071 H 0.58044 0.15071 0.94894 0.0
H2072 H 0.62011 0.21776 0.83562 0.0
H2073 H 0.52863 0.12803 0.8829 0.0
H2074 H 0.59969 0.17062 0.90617 0.0
H2075 H 0.56821 0.15566 0.80679 0.0
C2076 C 0.58911 0.18238 0.78927 0.0
C2077 C 0.60381 0.20024 0.7968 0.0
C2078 C 0.5842 0.16115 0.90105 0.0
C2079 C 0.58505 0.17381 0.84468 0.0
C2080 C 0.57327 0.14961 0.92539 0.0
C2081 C 0.5528 0.1377 0.91956 0.0
C2082 C 0.57476 0.1606 0.87058 0.0
C2083 C 0.5443 0.13707 0.88854 0.0
C2084 C 0.57961 0.16926 0.81309 0.0
C2085 C 0.60876 0.20428 0.82871 0.0
N2086 N 0.5553 0.1484 0.86522 0.0
N2087 N 0.59945 0.19112 0.85148 0.0
H2088 H 0.04723 0.61697 0.38224 0.0
H2089 H 0.13814 0.70298 0.32226 0.0
H2090 H 0.10022 0.64295 0.44386 0.0
H2091 H 0.10952 0.65366 0.25945 0.0
H2092 H 0.1247 0.68112 0.3673 0.0
H2093 H 0.06947 0.62997 0.33675 0.0
C2094 C 0.06366 0.62518 0.38619 0.0
C2095 C 0.07178 0.62907 0.41691 0.0
C2096 C 0.12176 0.67483 0.3437 0.0
C2097 C 0.0971 0.64417 0.36504 0.0
C2098 C 0.12939 0.6873 0.31804 0.0
C2099 C 0.12485 0.68008 0.28722 0.0
C2100 C 0.1089 0.65535 0.33846 0.0
C2101 C 0.11344 0.65969 0.28292 0.0
C2102 C 0.07639 0.63247 0.36022 0.0
C2103 C 0.09327 0.63964 0.42061 0.0
N2104 N 0.10539 0.64822 0.30831 0.0
N2105 N 0.10499 0.64718 0.395 0.0
H2106 H 0.57449 0.77716 0.67137 0.0
H2107 H 0.58535 0.87967 0.55809 0.0
H2108 H 0.62586 0.82689 0.69402 0.0
H2109 H 0.5193 0.85686 0.59299 0.0
H2110 H 0.6046 0.8572 0.59908 0.0
H2111 H 0.55839 0.80215 0.63177 0.0
C2112 C 0.58259 0.79322 0.66784 0.0
C2113 C 0.60147 0.79998 0.68634 0.0
C2114 C 0.5859 0.85741 0.59773 0.0
C2115 C 0.58317 0.82853 0.64059 0.0
C2116 C 0.5749 0.87017 0.57444 0.0
C2117 C 0.55064 0.8701 0.57191 0.0
C2118 C 0.57253 0.84409 0.61786 0.0
C2119 C 0.538 0.85745 0.59381 0.0
C2120 C 0.57327 0.8075 0.64533 0.0
C2121 C 0.61119 0.82107 0.68047 0.0
N2122 N 0.54909 0.8447 0.61545 0.0
N2123 N 0.60197 0.83463 0.65792 0.0
H2124 H 0.42574 0.26717 0.8171 0.0
H2125 H 0.42665 0.37334 0.9235 0.0
H2126 H 0.38302 0.3233 0.79158 0.0
H2127 H 0.49128 0.34315 0.89564 0.0
H2128 H 0.40695 0.35195 0.88208 0.0
H2129 H 0.44696 0.29123 0.85411 0.0
C2130 C 0.42082 0.28451 0.81938 0.0
C2131 C 0.40271 0.29335 0.8013 0.0
C2132 C 0.42548 0.35023 0.88501 0.0
C2133 C 0.42642 0.32058 0.84367 0.0
C2134 C 0.43671 0.36237 0.90855 0.0
C2135 C 0.46063 0.35995 0.91311 0.0
C2136 C 0.43814 0.3351 0.86667 0.0
C2137 C 0.47283 0.34551 0.89303 0.0
C2138 C 0.43297 0.29819 0.84025 0.0
C2139 C 0.39701 0.31594 0.805 0.0
N2140 N 0.46138 0.33329 0.87102 0.0
N2141 N 0.40863 0.32875 0.82612 0.0
H2142 H 0.93102 0.19221 0.23036 0.0
H2143 H 0.94165 0.15839 0.04993 0.0
H2144 H 0.91066 0.23582 0.15428 0.0
H2145 H 0.98783 0.13168 0.12061 0.0
H2146 H 0.92499 0.18299 0.0896 0.0
H2147 H 0.94764 0.16644 0.19173 0.0
C2148 C 0.93008 0.19638 0.20554 0.0
C2149 C 0.91943 0.21617 0.19546 0.0
C2150 C 0.93871 0.17168 0.09641 0.0
C2151 C 0.93803 0.18666 0.15136 0.0
C2152 C 0.94812 0.15746 0.07388 0.0
C2153 C 0.96622 0.14292 0.08193 0.0
C2154 C 0.9472 0.1712 0.12735 0.0
C2155 C 0.97395 0.14265 0.11334 0.0
C2156 C 0.9396 0.1817 0.18359 0.0
C2157 C 0.91881 0.2208 0.16307 0.0
N2158 N 0.96435 0.15658 0.13498 0.0
N2159 N 0.9278 0.20604 0.14212 0.0
H2160 H 0.9238 0.62928 0.92523 0.0
H2161 H 0.91448 0.69825 0.76576 0.0
H2162 H 0.98395 0.65173 0.87409 0.0
H2163 H 0.86502 0.64699 0.78896 0.0
H2164 H 0.93728 0.6877 0.81203 0.0
H2165 H 0.89934 0.64149 0.8812 0.0
C2166 C 0.93186 0.63681 0.90479 0.0
C2167 C 0.95597 0.63943 0.90328 0.0
C2168 C 0.92133 0.67892 0.80708 0.0
C2169 C 0.92807 0.65378 0.85332 0.0
C2170 C 0.90818 0.68505 0.78088 0.0
C2171 C 0.88778 0.67349 0.77348 0.0
C2172 C 0.91384 0.66138 0.82637 0.0
C2173 C 0.88065 0.65631 0.79376 0.0
C2174 C 0.9179 0.6437 0.87972 0.0
C2175 C 0.96547 0.64925 0.87618 0.0
N2176 N 0.89364 0.6508 0.81936 0.0
N2177 N 0.95148 0.65624 0.85238 0.0
H2178 H 0.14609 0.1446 0.69976 0.0
H2179 H 0.03194 0.14884 0.59875 0.0
H2180 H 0.09642 0.19833 0.70483 0.0
H2181 H 0.09369 0.12068 0.55737 0.0
H2182 H 0.0547 0.16185 0.64304 0.0
H2183 H 0.12722 0.13157 0.65114 0.0
C2184 C 0.1315 0.15385 0.69051 0.0
C2185 C 0.1227 0.17248 0.70672 0.0
C2186 C 0.0633 0.15282 0.62428 0.0
C2187 C 0.10097 0.15739 0.65178 0.0
C2188 C 0.05028 0.14517 0.599 0.0
C2189 C 0.06089 0.13367 0.57406 0.0
C2190 C 0.08714 0.14872 0.62516 0.0
C2191 C 0.08481 0.12955 0.57601 0.0
C2192 C 0.12078 0.14637 0.66284 0.0
C2193 C 0.10376 0.18379 0.69351 0.0
N2194 N 0.0972 0.13701 0.60127 0.0
N2195 N 0.09337 0.17587 0.66717 0.0
H2196 H 0.53444 0.34186 0.40236 0.0
H2197 H 0.65019 0.35393 0.30452 0.0
H2198 H 0.59382 0.37567 0.44157 0.0
H2199 H 0.60146 0.30025 0.29084 0.0
H2200 H 0.62969 0.36438 0.35288 0.0
H2201 H 0.55805 0.32963 0.35826 0.0
C2202 C 0.55242 0.34689 0.40165 0.0
C2203 C 0.56213 0.35987 0.42581 0.0
C2204 C 0.62375 0.35014 0.33944 0.0
C2205 C 0.58934 0.34573 0.37511 0.0
C2206 C 0.63543 0.34413 0.31188 0.0
C2207 C 0.62747 0.32624 0.29339 0.0
C2208 C 0.60379 0.33844 0.34824 0.0
C2209 C 0.60826 0.31416 0.30418 0.0
C2210 C 0.56595 0.33969 0.37652 0.0
C2211 C 0.58562 0.36567 0.4235 0.0
N2212 N 0.59691 0.32067 0.33061 0.0
N2213 N 0.59843 0.35866 0.39845 0.0
H2214 H 0.50601 0.83741 0.11343 0.0
H2215 H 0.37731 0.83576 0.18041 0.0
H2216 H 0.44639 0.85837 0.05967 0.0
H2217 H 0.43167 0.79565 0.22095 0.0
H2218 H 0.4031 0.84571 0.13717 0.0
H2219 H 0.47995 0.82402 0.15506 0.0
C2220 C 0.48751 0.8393 0.11044 0.0
C2221 C 0.4784 0.84907 0.08302 0.0
C2222 C 0.40934 0.83452 0.15531 0.0
C2223 C 0.44861 0.83379 0.13036 0.0
C2224 C 0.39459 0.8288 0.17997 0.0
C2225 C 0.40232 0.8148 0.20426 0.0
C2226 C 0.43218 0.82654 0.15515 0.0
C2227 C 0.42494 0.80632 0.20252 0.0
C2228 C 0.47266 0.8315 0.13406 0.0
C2229 C 0.45425 0.85091 0.0803 0.0
N2230 N 0.4392 0.81255 0.17857 0.0
N2231 N 0.44026 0.84346 0.10368 0.0
H2232 H 0.98109 0.34547 0.60481 0.0
H2233 H 0.85632 0.33957 0.68456 0.0
H2234 H 0.92003 0.3729 0.5606 0.0
H2235 H 0.91343 0.2968 0.71026 0.0
H2236 H 0.8799 0.35517 0.64206 0.0
H2237 H 0.95712 0.33152 0.64765 0.0
C2238 C 0.96268 0.34879 0.60421 0.0
C2239 C 0.95258 0.36032 0.5789 0.0
C2240 C 0.88716 0.34229 0.65696 0.0
C2241 C 0.925 0.34419 0.62794 0.0
C2242 C 0.87373 0.33334 0.68118 0.0
C2243 C 0.88286 0.31678 0.70102 0.0
C2244 C 0.90997 0.33483 0.65282 0.0
C2245 C 0.90556 0.30942 0.69552 0.0
C2246 C 0.94898 0.34066 0.62861 0.0
C2247 C 0.92858 0.36401 0.57952 0.0
N2248 N 0.91836 0.31859 0.67208 0.0
N2249 N 0.91558 0.35594 0.60364 0.0
H2250 H 0.33957 0.14746 0.28691 0.0
H2251 H 0.38682 0.12946 0.43736 0.0
H2252 H 0.38913 0.20112 0.28137 0.0
H2253 H 0.44721 0.16057 0.39677 0.0
H2254 H 0.36463 0.1402 0.3906 0.0
H2255 H 0.35574 0.13682 0.33787 0.0
C2256 C 0.35355 0.1573 0.29666 0.0
C2257 C 0.36298 0.17525 0.27969 0.0
C2258 C 0.38281 0.14436 0.39174 0.0
C2259 C 0.38156 0.16315 0.33825 0.0
C2260 C 0.39548 0.13833 0.41854 0.0
C2261 C 0.41902 0.14389 0.42096 0.0
C2262 C 0.39375 0.15616 0.36732 0.0
C2263 C 0.42922 0.15565 0.39592 0.0
C2264 C 0.3627 0.15126 0.32592 0.0
C2265 C 0.3812 0.18724 0.29353 0.0
N2266 N 0.4165 0.16147 0.37032 0.0
N2267 N 0.39007 0.18078 0.32175 0.0
H2268 H 0.54813 0.67486 0.06131 0.0
H2269 H 0.6059 0.63807 0.22136 0.0
H2270 H 0.51967 0.62159 0.11737 0.0
H2271 H 0.59436 0.70811 0.20379 0.0
H2272 H 0.5832 0.62917 0.17456 0.0
H2273 H 0.5736 0.6849 0.10569 0.0
C2274 C 0.54737 0.66523 0.08289 0.0
C2275 C 0.53181 0.6474 0.08585 0.0
C2276 C 0.58583 0.64647 0.18092 0.0
C2277 C 0.56106 0.65841 0.13588 0.0
C2278 C 0.59883 0.65164 0.2076 0.0
C2279 C 0.60173 0.67393 0.21703 0.0
C2280 C 0.57621 0.66366 0.16289 0.0
C2281 C 0.59237 0.69071 0.19769 0.0
C2282 C 0.56177 0.67101 0.10809 0.0
C2283 C 0.53135 0.63551 0.11428 0.0
N2284 N 0.58002 0.68523 0.17144 0.0
N2285 N 0.54597 0.64106 0.13811 0.0
H2286 H 0.12067 0.84405 0.81858 0.0
H2287 H 0.99566 0.83691 0.89358 0.0
H2288 H 0.0701 0.79639 0.78616 0.0
H2289 H 0.05504 0.85711 0.94831 0.0
H2290 H 0.02168 0.82542 0.85094 0.0
H2291 H 0.09606 0.85214 0.86416 0.0
C2292 C 0.10454 0.83509 0.82127 0.0
C2293 C 0.09745 0.81947 0.79862 0.0
C2294 C 0.02895 0.83229 0.87237 0.0
C2295 C 0.06903 0.82906 0.85014 0.0
C2296 C 0.01414 0.839 0.89659 0.0
C2297 C 0.0232 0.848 0.92452 0.0
C2298 C 0.05293 0.83504 0.87588 0.0
C2299 C 0.04731 0.85018 0.92722 0.0
C2300 C 0.09052 0.83972 0.84724 0.0
C2301 C 0.07633 0.8084 0.80321 0.0
N2302 N 0.06134 0.84394 0.9031 0.0
N2303 N 0.06269 0.81364 0.82823 0.0
loop_
_geom_bond_atom_site_label_1
_geom_bond_atom_site_label_2
_geom_bond_distance
_geom_bond_site_symmetry_2
_ccdc_geom_bond_type
Mn0 O5 2.095 . S
Mn0 O15 2.162 . S
Mn0 O16 2.297 . S
Mn0 O24 2.385 . S
Mn0 O25 2.209 . S
Mn0 O26 2.094 . S
Mn1 O6 2.121 . S
Mn1 N8 2.257 . S
Mn1 N17 2.282 . S
Mn1 O25 2.215 . S
Mn1 O27 2.117 . S
C2 O24 1.234 . S
C2 O25 1.283 . S
C3 O15 1.281 . S
C3 O16 1.236 . S
C4 O26 1.240 . S
C4 O27 1.264 . S
O5 Mn0 2.095 . S
O5 C14 1.250 . S
O6 Mn1 2.121 . S
O6 C14 1.258 . S
C7 N8 1.326 . S
C7 C11 1.460 . S
C7 H13 0.929 . S
N8 Mn1 2.257 . S
N8 C7 1.326 . S
N8 C12 1.362 . S
C9 C10 1.258 . S
C9 C12 1.431 . S
C9 C29 1.449 . S
C10 C9 1.258 . S
C10 C11 1.477 . S
C10 H30 0.931 . S
C11 C7 1.460 . S
C11 C10 1.477 . S
C11 H31 0.930 . S
C12 N8 1.362 . S
C12 C9 1.431 . S
C12 C22 1.476 . S
H13 C7 0.929 . S
C14 O5 1.250 . S
C14 O6 1.258 . S
O15 Mn0 2.162 . S
O15 C3 1.281 . S
O16 Mn0 2.297 . S
O16 C3 1.236 . S
N17 Mn1 2.282 . S
N17 C18 1.328 . S
N17 C22 1.318 . S
C18 N17 1.328 . S
C18 C19 1.457 . S
C18 H23 0.929 . S
C19 C18 1.457 . S
C19 C20 1.291 . S
C19 H32 0.931 . S
C20 C19 1.291 . S
C20 C21 1.373 . S
C20 H33 0.929 . S
C21 C20 1.373 . S
C21 C22 1.396 . S
C21 C28 1.403 . S
C22 C12 1.476 . S
C22 N17 1.318 . S
C22 C21 1.396 . S
H23 C18 0.929 . S
O24 Mn0 2.385 . S
O24 C2 1.234 . S
O25 Mn0 2.209 . S
O25 Mn1 2.215 . S
O25 C2 1.283 . S
O26 Mn0 2.094 . S
O26 C4 1.240 . S
O27 Mn1 2.117 . S
O27 C4 1.264 . S
C28 C21 1.403 . S
C28 C29 1.399 . S
C28 H34 0.929 . S
C29 C9 1.449 . S
C29 C28 1.399 . S
C29 H35 0.930 . S
H30 C10 0.931 . S
H31 C11 0.930 . S
H32 C19 0.931 . S
H33 C20 0.929 . S
H34 C28 0.929 . S
H35 C29 0.930 . S
Mn36 O41 2.095 . S
Mn36 O51 2.162 . S
Mn36 O52 2.297 . S
Mn36 O60 2.385 . S
Mn36 O61 2.209 . S
Mn36 O62 2.094 . S
Mn37 O42 2.121 . S
Mn37 N44 2.257 1_655 S
Mn37 N53 2.282 1_655 S
Mn37 O61 2.215 . S
Mn37 O63 2.117 . S
C38 O60 1.234 . S
C38 O61 1.283 . S
C39 O51 1.281 . S
C39 O52 1.236 . S
C40 O62 1.240 . S
C40 O63 1.264 . S
O41 Mn36 2.095 . S
O41 C50 1.250 . S
O42 Mn37 2.121 . S
O42 C50 1.258 . S
C43 N44 1.326 . S
C43 C47 1.460 . S
C43 H49 0.929 . S
N44 Mn37 2.257 1_455 S
N44 C43 1.326 . S
N44 C48 1.362 . S
C45 C46 1.258 . S
C45 C48 1.431 . S
C45 C65 1.449 . S
C46 C45 1.258 . S
C46 C47 1.477 . S
C46 H66 0.931 . S
C47 C43 1.460 . S
C47 C46 1.477 . S
C47 H67 0.930 . S
C48 N44 1.362 . S
C48 C45 1.431 . S
C48 C58 1.476 . S
H49 C43 0.929 . S
C50 O41 1.250 . S
C50 O42 1.258 . S
O51 Mn36 2.162 . S
O51 C39 1.281 . S
O52 Mn36 2.297 . S
O52 C39 1.236 . S
N53 Mn37 2.282 1_455 S
N53 C54 1.328 . S
N53 C58 1.318 . S
C54 N53 1.328 . S
C54 C55 1.457 . S
C54 H59 0.929 . S
C55 C54 1.457 . S
C55 C56 1.291 . S
C55 H68 0.931 . S
C56 C55 1.291 . S
C56 C57 1.373 . S
C56 H69 0.929 . S
C57 C56 1.373 . S
C57 C58 1.396 . S
C57 C64 1.403 . S
C58 C48 1.476 . S
C58 N53 1.318 . S
C58 C57 1.396 . S
H59 C54 0.929 . S
O60 Mn36 2.385 . S
O60 C38 1.234 . S
O61 Mn36 2.209 . S
O61 Mn37 2.215 . S
O61 C38 1.283 . S
O62 Mn36 2.094 . S
O62 C40 1.240 . S
O63 Mn37 2.117 . S
O63 C40 1.264 . S
C64 C57 1.403 . S
C64 C65 1.399 . S
C64 H70 0.929 . S
C65 C45 1.449 . S
C65 C64 1.399 . S
C65 H71 0.930 . S
H66 C46 0.931 . S
H67 C47 0.930 . S
H68 C55 0.931 . S
H69 C56 0.929 . S
H70 C64 0.929 . S
H71 C65 0.930 . S
Mn72 O77 2.095 . S
Mn72 O87 2.162 . S
Mn72 O88 2.297 . S
Mn72 O96 2.385 . S
Mn72 O97 2.209 . S
Mn72 O98 2.094 . S
Mn73 O78 2.121 . S
Mn73 N80 2.257 . S
Mn73 N89 2.282 . S
Mn73 O97 2.215 . S
Mn73 O99 2.117 . S
C74 O96 1.234 . S
C74 O97 1.283 . S
C75 O87 1.281 . S
C75 O88 1.236 . S
C76 O98 1.240 . S
C76 O99 1.264 . S
O77 Mn72 2.095 . S
O77 C86 1.250 . S
O78 Mn73 2.121 . S
O78 C86 1.258 . S
C79 N80 1.326 . S
C79 C83 1.460 . S
C79 H85 0.929 . S
N80 Mn73 2.257 . S
N80 C79 1.326 . S
N80 C84 1.362 . S
C81 C82 1.258 . S
C81 C84 1.431 . S
C81 C101 1.449 . S
C82 C81 1.258 . S
C82 C83 1.477 . S
C82 H102 0.931 . S
C83 C79 1.460 . S
C83 C82 1.477 . S
C83 H103 0.930 . S
C84 N80 1.362 . S
C84 C81 1.431 . S
C84 C94 1.476 . S
H85 C79 0.929 . S
C86 O77 1.250 . S
C86 O78 1.258 . S
O87 Mn72 2.162 . S
O87 C75 1.281 . S
O88 Mn72 2.297 . S
O88 C75 1.236 . S
N89 Mn73 2.282 . S
N89 C90 1.328 . S
N89 C94 1.318 . S
C90 N89 1.328 . S
C90 C91 1.457 . S
C90 H95 0.929 . S
C91 C90 1.457 . S
C91 C92 1.291 . S
C91 H104 0.931 . S
C92 C91 1.291 . S
C92 C93 1.373 . S
C92 H105 0.929 . S
C93 C92 1.373 . S
C93 C94 1.396 . S
C93 C100 1.403 . S
C94 C84 1.476 . S
C94 N89 1.318 . S
C94 C93 1.396 . S
H95 C90 0.929 . S
O96 Mn72 2.385 . S
O96 C74 1.234 . S
O97 Mn72 2.209 . S
O97 Mn73 2.215 . S
O97 C74 1.283 . S
O98 Mn72 2.094 . S
O98 C76 1.240 . S
O99 Mn73 2.117 . S
O99 C76 1.264 . S
C100 C93 1.403 . S
C100 C101 1.399 . S
C100 H106 0.929 . S
C101 C81 1.449 . S
C101 C100 1.399 . S
C101 H107 0.930 . S
H102 C82 0.931 . S
H103 C83 0.930 . S
H104 C91 0.931 . S
H105 C92 0.929 . S
H106 C100 0.929 . S
H107 C101 0.930 . S
Mn108 O113 2.095 1_554 S
Mn108 O123 2.162 . S
Mn108 O124 2.297 . S
Mn108 O132 2.385 . S
Mn108 O133 2.209 . S
Mn108 O134 2.094 . S
Mn109 O114 2.121 . S
Mn109 N116 2.257 . S
Mn109 N125 2.282 1_556 S
Mn109 O133 2.215 1_556 S
Mn109 O135 2.117 1_556 S
C110 O132 1.234 . S
C110 O133 1.283 . S
C111 O123 1.281 . S
C111 O124 1.236 . S
C112 O134 1.240 . S
C112 O135 1.264 . S
O113 Mn108 2.095 1_556 S
O113 C122 1.250 . S
O114 Mn109 2.121 . S
O114 C122 1.258 . S
C115 N116 1.326 . S
C115 C119 1.460 . S
C115 H121 0.929 . S
N116 Mn109 2.257 . S
N116 C115 1.326 . S
N116 C120 1.362 . S
C117 C118 1.258 . S
C117 C120 1.431 . S
C117 C137 1.449 . S
C118 C117 1.258 . S
C118 C119 1.477 . S
C118 H138 0.931 . S
C119 C115 1.460 . S
C119 C118 1.477 . S
C119 H139 0.930 . S
C120 N116 1.362 . S
C120 C117 1.431 . S
C120 C130 1.476 1_556 S
H121 C115 0.929 . S
C122 O113 1.250 . S
C122 O114 1.258 . S
O123 Mn108 2.162 . S
O123 C111 1.281 . S
O124 Mn108 2.297 . S
O124 C111 1.236 . S
N125 Mn109 2.282 1_554 S
N125 C126 1.328 . S
N125 C130 1.318 . S
C126 N125 1.328 . S
C126 C127 1.457 . S
C126 H131 0.929 . S
C127 C126 1.457 . S
C127 C128 1.291 . S
C127 H140 0.931 . S
C128 C127 1.291 . S
C128 C129 1.373 . S
C128 H141 0.929 . S
C129 C128 1.373 . S
C129 C130 1.396 . S
C129 C136 1.403 . S
C130 C120 1.476 1_554 S
C130 N125 1.318 . S
C130 C129 1.396 . S
H131 C126 0.929 . S
O132 Mn108 2.385 . S
O132 C110 1.234 . S
O133 Mn108 2.209 . S
O133 Mn109 2.215 1_554 S
O133 C110 1.283 . S
O134 Mn108 2.094 . S
O134 C112 1.240 . S
O135 Mn109 2.117 1_554 S
O135 C112 1.264 . S
C136 C129 1.403 . S
C136 C137 1.399 1_554 S
C136 H142 0.929 . S
C137 C117 1.449 . S
C137 C136 1.399 1_556 S
C137 H143 0.930 . S
H138 C118 0.931 . S
H139 C119 0.930 . S
H140 C127 0.931 . S
H141 C128 0.929 . S
H142 C136 0.929 . S
H143 C137 0.930 . S
Mn144 O149 2.095 . S
Mn144 O159 2.162 . S
Mn144 O160 2.297 . S
Mn144 O168 2.385 . S
Mn144 O169 2.209 . S
Mn144 O170 2.094 . S
Mn145 O150 2.121 . S
Mn145 N152 2.257 . S
Mn145 N161 2.282 . S
Mn145 O169 2.215 . S
Mn145 O171 2.117 . S
C146 O168 1.234 . S
C146 O169 1.283 . S
C147 O159 1.281 . S
C147 O160 1.236 . S
C148 O170 1.240 . S
C148 O171 1.264 . S
O149 Mn144 2.095 . S
O149 C158 1.250 . S
O150 Mn145 2.121 . S
O150 C158 1.258 . S
C151 N152 1.326 . S
C151 C155 1.460 . S
C151 H157 0.929 . S
N152 Mn145 2.257 . S
N152 C151 1.326 . S
N152 C156 1.362 . S
C153 C154 1.258 . S
C153 C156 1.431 . S
C153 C173 1.449 . S
C154 C153 1.258 . S
C154 C155 1.477 . S
C154 H174 0.931 . S
C155 C151 1.460 . S
C155 C154 1.477 . S
C155 H175 0.930 . S
C156 N152 1.362 . S
C156 C153 1.431 . S
C156 C166 1.476 . S
H157 C151 0.929 . S
C158 O149 1.250 . S
C158 O150 1.258 . S
O159 Mn144 2.162 . S
O159 C147 1.281 . S
O160 Mn144 2.297 . S
O160 C147 1.236 . S
N161 Mn145 2.282 . S
N161 C162 1.328 . S
N161 C166 1.318 . S
C162 N161 1.328 . S
C162 C163 1.457 . S
C162 H167 0.929 . S
C163 C162 1.457 . S
C163 C164 1.291 . S
C163 H176 0.931 . S
C164 C163 1.291 . S
C164 C165 1.373 . S
C164 H177 0.929 . S
C165 C164 1.373 . S
C165 C166 1.396 . S
C165 C172 1.403 . S
C166 C156 1.476 . S
C166 N161 1.318 . S
C166 C165 1.396 . S
H167 C162 0.929 . S
O168 Mn144 2.385 . S
O168 C146 1.234 . S
O169 Mn144 2.209 . S
O169 Mn145 2.215 . S
O169 C146 1.283 . S
O170 Mn144 2.094 . S
O170 C148 1.240 . S
O171 Mn145 2.117 . S
O171 C148 1.264 . S
C172 C165 1.403 . S
C172 C173 1.399 . S
C172 H178 0.929 . S
C173 C153 1.449 . S
C173 C172 1.399 . S
C173 H179 0.930 . S
H174 C154 0.931 . S
H175 C155 0.930 . S
H176 C163 0.931 . S
H177 C164 0.929 . S
H178 C172 0.929 . S
H179 C173 0.930 . S
Mn180 O185 2.095 . S
Mn180 O195 2.162 . S
Mn180 O196 2.297 . S
Mn180 O204 2.385 . S
Mn180 O205 2.209 . S
Mn180 O206 2.094 . S
Mn181 O186 2.121 . S
Mn181 N188 2.257 . S
Mn181 N197 2.282 . S
Mn181 O205 2.215 . S
Mn181 O207 2.117 . S
C182 O204 1.234 . S
C182 O205 1.283 . S
C183 O195 1.281 . S
C183 O196 1.236 . S
C184 O206 1.240 . S
C184 O207 1.264 . S
O185 Mn180 2.095 . S
O185 C194 1.250 . S
O186 Mn181 2.121 . S
O186 C194 1.258 . S
C187 N188 1.326 . S
C187 C191 1.460 . S
C187 H193 0.929 . S
N188 Mn181 2.257 . S
N188 C187 1.326 . S
N188 C192 1.362 . S
C189 C190 1.258 . S
C189 C192 1.431 . S
C189 C209 1.449 . S
C190 C189 1.258 . S
C190 C191 1.477 . S
C190 H210 0.931 . S
C191 C187 1.460 . S
C191 C190 1.477 . S
C191 H211 0.930 . S
C192 N188 1.362 . S
C192 C189 1.431 . S
C192 C202 1.476 . S
H193 C187 0.929 . S
C194 O185 1.250 . S
C194 O186 1.258 . S
O195 Mn180 2.162 . S
O195 C183 1.281 . S
O196 Mn180 2.297 . S
O196 C183 1.236 . S
N197 Mn181 2.282 . S
N197 C198 1.328 . S
N197 C202 1.318 . S
C198 N197 1.328 . S
C198 C199 1.457 . S
C198 H203 0.929 . S
C199 C198 1.457 . S
C199 C200 1.291 . S
C199 H212 0.931 . S
C200 C199 1.291 . S
C200 C201 1.373 . S
C200 H213 0.929 . S
C201 C200 1.373 . S
C201 C202 1.396 . S
C201 C208 1.403 . S
C202 C192 1.476 . S
C202 N197 1.318 . S
C202 C201 1.396 . S
H203 C198 0.929 . S
O204 Mn180 2.385 . S
O204 C182 1.234 . S
O205 Mn180 2.209 . S
O205 Mn181 2.215 . S
O205 C182 1.283 . S
O206 Mn180 2.094 . S
O206 C184 1.240 . S
O207 Mn181 2.117 . S
O207 C184 1.264 . S
C208 C201 1.403 . S
C208 C209 1.399 . S
C208 H214 0.929 . S
C209 C189 1.449 . S
C209 C208 1.399 . S
C209 H215 0.930 . S
H210 C190 0.931 . S
H211 C191 0.930 . S
H212 C199 0.931 . S
H213 C200 0.929 . S
H214 C208 0.929 . S
H215 C209 0.930 . S
Mn216 O221 2.095 . S
Mn216 O231 2.162 . S
Mn216 O232 2.297 . S
Mn216 O240 2.385 . S
Mn216 O241 2.209 . S
Mn216 O242 2.094 . S
Mn217 O222 2.121 . S
Mn217 N224 2.257 . S
Mn217 N233 2.282 . S
Mn217 O241 2.215 . S
Mn217 O243 2.117 . S
C218 O240 1.234 . S
C218 O241 1.283 . S
C219 O231 1.281 . S
C219 O232 1.236 . S
C220 O242 1.240 . S
C220 O243 1.264 . S
O221 Mn216 2.095 . S
O221 C230 1.250 . S
O222 Mn217 2.121 . S
O222 C230 1.258 . S
C223 N224 1.326 . S
C223 C227 1.460 . S
C223 H229 0.929 . S
N224 Mn217 2.257 . S
N224 C223 1.326 . S
N224 C228 1.362 . S
C225 C226 1.258 . S
C225 C228 1.431 . S
C225 C245 1.449 . S
C226 C225 1.258 . S
C226 C227 1.477 . S
C226 H246 0.931 . S
C227 C223 1.460 . S
C227 C226 1.477 . S
C227 H247 0.930 . S
C228 N224 1.362 . S
C228 C225 1.431 . S
C228 C238 1.476 . S
H229 C223 0.929 . S
C230 O221 1.250 . S
C230 O222 1.258 . S
O231 Mn216 2.162 . S
O231 C219 1.281 . S
O232 Mn216 2.297 . S
O232 C219 1.236 . S
N233 Mn217 2.282 . S
N233 C234 1.328 . S
N233 C238 1.318 . S
C234 N233 1.328 . S
C234 C235 1.457 . S
C234 H239 0.929 . S
C235 C234 1.457 . S
C235 C236 1.291 . S
C235 H248 0.931 . S
C236 C235 1.291 . S
C236 C237 1.373 . S
C236 H249 0.929 . S
C237 C236 1.373 . S
C237 C238 1.396 . S
C237 C244 1.403 . S
C238 C228 1.476 . S
C238 N233 1.318 . S
C238 C237 1.396 . S
H239 C234 0.929 . S
O240 Mn216 2.385 . S
O240 C218 1.234 . S
O241 Mn216 2.209 . S
O241 Mn217 2.215 . S
O241 C218 1.283 . S
O242 Mn216 2.094 . S
O242 C220 1.240 . S
O243 Mn217 2.117 . S
O243 C220 1.264 . S
C244 C237 1.403 . S
C244 C245 1.399 . S
C244 H250 0.929 . S
C245 C225 1.449 . S
C245 C244 1.399 . S
C245 H251 0.930 . S
H246 C226 0.931 . S
H247 C227 0.930 . S
H248 C235 0.931 . S
H249 C236 0.929 . S
H250 C244 0.929 . S
H251 C245 0.930 . S
Mn252 O257 2.095 1_556 S
Mn252 O267 2.162 . S
Mn252 O268 2.297 . S
Mn252 O276 2.385 . S
Mn252 O277 2.209 . S
Mn252 O278 2.094 . S
Mn253 O258 2.121 . S
Mn253 N260 2.257 1_655 S
Mn253 N269 2.282 1_654 S
Mn253 O277 2.215 1_554 S
Mn253 O279 2.117 1_554 S
C254 O276 1.234 . S
C254 O277 1.283 . S
C255 O267 1.281 . S
C255 O268 1.236 . S
C256 O278 1.240 . S
C256 O279 1.264 . S
O257 Mn252 2.095 1_554 S
O257 C266 1.250 . S
O258 Mn253 2.121 . S
O258 C266 1.258 . S
C259 N260 1.326 . S
C259 C263 1.460 . S
C259 H265 0.929 . S
N260 Mn253 2.257 1_455 S
N260 C259 1.326 . S
N260 C264 1.362 . S
C261 C262 1.258 . S
C261 C264 1.431 . S
C261 C281 1.449 . S
C262 C261 1.258 . S
C262 C263 1.477 . S
C262 H282 0.931 . S
C263 C259 1.460 . S
C263 C262 1.477 . S
C263 H283 0.930 . S
C264 N260 1.362 . S
C264 C261 1.431 . S
C264 C274 1.476 1_554 S
H265 C259 0.929 . S
C266 O257 1.250 . S
C266 O258 1.258 . S
O267 Mn252 2.162 . S
O267 C255 1.281 . S
O268 Mn252 2.297 . S
O268 C255 1.236 . S
N269 Mn253 2.282 1_456 S
N269 C270 1.328 . S
N269 C274 1.318 . S
C270 N269 1.328 . S
C270 C271 1.457 . S
C270 H275 0.929 . S
C271 C270 1.457 . S
C271 C272 1.291 . S
C271 H284 0.931 . S
C272 C271 1.291 . S
C272 C273 1.373 . S
C272 H285 0.929 . S
C273 C272 1.373 . S
C273 C274 1.396 . S
C273 C280 1.403 . S
C274 C264 1.476 1_556 S
C274 N269 1.318 . S
C274 C273 1.396 . S
H275 C270 0.929 . S
O276 Mn252 2.385 . S
O276 C254 1.234 . S
O277 Mn252 2.209 . S
O277 Mn253 2.215 1_556 S
O277 C254 1.283 . S
O278 Mn252 2.094 . S
O278 C256 1.240 . S
O279 Mn253 2.117 1_556 S
O279 C256 1.264 . S
C280 C273 1.403 . S
C280 C281 1.399 1_556 S
C280 H286 0.929 . S
C281 C261 1.449 . S
C281 C280 1.399 1_554 S
C281 H287 0.930 . S
H282 C262 0.931 . S
H283 C263 0.930 . S
H284 C271 0.931 . S
H285 C272 0.929 . S
H286 C280 0.929 . S
H287 C281 0.930 . S
Mn288 O293 2.095 . S
Mn288 O303 2.162 . S
Mn288 O304 2.297 . S
Mn288 O312 2.385 . S
Mn288 O313 2.209 . S
Mn288 O314 2.094 . S
Mn289 O294 2.121 . S
Mn289 N296 2.257 . S
Mn289 N305 2.282 . S
Mn289 O313 2.215 . S
Mn289 O315 2.117 . S
C290 O312 1.234 . S
C290 O313 1.283 . S
C291 O303 1.281 . S
C291 O304 1.236 . S
C292 O314 1.240 . S
C292 O315 1.264 . S
O293 Mn288 2.095 . S
O293 C302 1.250 . S
O294 Mn289 2.121 . S
O294 C302 1.258 . S
C295 N296 1.326 . S
C295 C299 1.460 . S
C295 H301 0.929 . S
N296 Mn289 2.257 . S
N296 C295 1.326 . S
N296 C300 1.362 . S
C297 C298 1.258 . S
C297 C300 1.431 . S
C297 C317 1.449 . S
C298 C297 1.258 . S
C298 C299 1.477 . S
C298 H318 0.931 . S
C299 C295 1.460 . S
C299 C298 1.477 . S
C299 H319 0.930 . S
C300 N296 1.362 . S
C300 C297 1.431 . S
C300 C310 1.476 . S
H301 C295 0.929 . S
C302 O293 1.250 . S
C302 O294 1.258 . S
O303 Mn288 2.162 . S
O303 C291 1.281 . S
O304 Mn288 2.297 . S
O304 C291 1.236 . S
N305 Mn289 2.282 . S
N305 C306 1.328 . S
N305 C310 1.318 . S
C306 N305 1.328 . S
C306 C307 1.457 . S
C306 H311 0.929 . S
C307 C306 1.457 . S
C307 C308 1.291 . S
C307 H320 0.931 . S
C308 C307 1.291 . S
C308 C309 1.373 . S
C308 H321 0.929 . S
C309 C308 1.373 . S
C309 C310 1.396 . S
C309 C316 1.403 . S
C310 C300 1.476 . S
C310 N305 1.318 . S
C310 C309 1.396 . S
H311 C306 0.929 . S
O312 Mn288 2.385 . S
O312 C290 1.234 . S
O313 Mn288 2.209 . S
O313 Mn289 2.215 . S
O313 C290 1.283 . S
O314 Mn288 2.094 . S
O314 C292 1.240 . S
O315 Mn289 2.117 . S
O315 C292 1.264 . S
C316 C309 1.403 . S
C316 C317 1.399 . S
C316 H322 0.929 . S
C317 C297 1.449 . S
C317 C316 1.399 . S
C317 H323 0.930 . S
H318 C298 0.931 . S
H319 C299 0.930 . S
H320 C307 0.931 . S
H321 C308 0.929 . S
H322 C316 0.929 . S
H323 C317 0.930 . S
Mn324 O329 2.095 . S
Mn324 O339 2.162 . S
Mn324 O340 2.297 . S
Mn324 O348 2.385 . S
Mn324 O349 2.209 . S
Mn324 O350 2.094 . S
Mn325 O330 2.121 . S
Mn325 N332 2.257 1_455 S
Mn325 N341 2.282 1_455 S
Mn325 O349 2.215 . S
Mn325 O351 2.117 . S
C326 O348 1.234 . S
C326 O349 1.283 . S
C327 O339 1.281 . S
C327 O340 1.236 . S
C328 O350 1.240 . S
C328 O351 1.264 . S
O329 Mn324 2.095 . S
O329 C338 1.250 . S
O330 Mn325 2.121 . S
O330 C338 1.258 . S
C331 N332 1.326 . S
C331 C335 1.460 . S
C331 H337 0.929 1_655 S
N332 Mn325 2.257 1_655 S
N332 C331 1.326 . S
N332 C336 1.362 . S
C333 C334 1.258 . S
C333 C336 1.431 . S
C333 C353 1.449 . S
C334 C333 1.258 . S
C334 C335 1.477 . S
C334 H354 0.931 . S
C335 C331 1.460 . S
C335 C334 1.477 . S
C335 H355 0.930 . S
C336 N332 1.362 . S
C336 C333 1.431 . S
C336 C346 1.476 . S
H337 C331 0.929 1_455 S
C338 O329 1.250 . S
C338 O330 1.258 . S
O339 Mn324 2.162 . S
O339 C327 1.281 . S
O340 Mn324 2.297 . S
O340 C327 1.236 . S
N341 Mn325 2.282 1_655 S
N341 C342 1.328 . S
N341 C346 1.318 . S
C342 N341 1.328 . S
C342 C343 1.457 . S
C342 H347 0.929 . S
C343 C342 1.457 . S
C343 C344 1.291 . S
C343 H356 0.931 . S
C344 C343 1.291 . S
C344 C345 1.373 . S
C344 H357 0.929 . S
C345 C344 1.373 . S
C345 C346 1.396 . S
C345 C352 1.403 . S
C346 C336 1.476 . S
C346 N341 1.318 . S
C346 C345 1.396 . S
H347 C342 0.929 . S
O348 Mn324 2.385 . S
O348 C326 1.234 . S
O349 Mn324 2.209 . S
O349 Mn325 2.215 . S
O349 C326 1.283 . S
O350 Mn324 2.094 . S
O350 C328 1.240 . S
O351 Mn325 2.117 . S
O351 C328 1.264 . S
C352 C345 1.403 . S
C352 C353 1.399 . S
C352 H358 0.929 . S
C353 C333 1.449 . S
C353 C352 1.399 . S
C353 H359 0.930 . S
H354 C334 0.931 . S
H355 C335 0.930 . S
H356 C343 0.931 . S
H357 C344 0.929 . S
H358 C352 0.929 . S
H359 C353 0.930 . S
Mn360 O365 2.095 . S
Mn360 O375 2.162 . S
Mn360 O376 2.297 . S
Mn360 O384 2.385 . S
Mn360 O385 2.209 . S
Mn360 O386 2.094 . S
Mn361 O366 2.121 . S
Mn361 N368 2.257 . S
Mn361 N377 2.282 . S
Mn361 O385 2.215 . S
Mn361 O387 2.117 . S
C362 O384 1.234 . S
C362 O385 1.283 . S
C363 O375 1.281 . S
C363 O376 1.236 . S
C364 O386 1.240 . S
C364 O387 1.264 . S
O365 Mn360 2.095 . S
O365 C374 1.250 . S
O366 Mn361 2.121 . S
O366 C374 1.258 . S
C367 N368 1.326 . S
C367 C371 1.460 . S
C367 H373 0.929 . S
N368 Mn361 2.257 . S
N368 C367 1.326 . S
N368 C372 1.362 . S
C369 C370 1.258 . S
C369 C372 1.431 . S
C369 C389 1.449 . S
C370 C369 1.258 . S
C370 C371 1.477 . S
C370 H390 0.931 . S
C371 C367 1.460 . S
C371 C370 1.477 . S
C371 H391 0.930 . S
C372 N368 1.362 . S
C372 C369 1.431 . S
C372 C382 1.476 . S
H373 C367 0.929 . S
C374 O365 1.250 . S
C374 O366 1.258 . S
O375 Mn360 2.162 . S
O375 C363 1.281 . S
O376 Mn360 2.297 . S
O376 C363 1.236 . S
N377 Mn361 2.282 . S
N377 C378 1.328 . S
N377 C382 1.318 . S
C378 N377 1.328 . S
C378 C379 1.457 . S
C378 H383 0.929 . S
C379 C378 1.457 . S
C379 C380 1.291 . S
C379 H392 0.931 . S
C380 C379 1.291 . S
C380 C381 1.373 . S
C380 H393 0.929 . S
C381 C380 1.373 . S
C381 C382 1.396 . S
C381 C388 1.403 . S
C382 C372 1.476 . S
C382 N377 1.318 . S
C382 C381 1.396 . S
H383 C378 0.929 . S
O384 Mn360 2.385 . S
O384 C362 1.234 . S
O385 Mn360 2.209 . S
O385 Mn361 2.215 . S
O385 C362 1.283 . S
O386 Mn360 2.094 . S
O386 C364 1.240 . S
O387 Mn361 2.117 . S
O387 C364 1.264 . S
C388 C381 1.403 . S
C388 C389 1.399 . S
C388 H394 0.929 . S
C389 C369 1.449 . S
C389 C388 1.399 . S
C389 H395 0.930 . S
H390 C370 0.931 . S
H391 C371 0.930 . S
H392 C379 0.931 . S
H393 C380 0.929 . S
H394 C388 0.929 . S
H395 C389 0.930 . S
Mn396 O401 2.095 . S
Mn396 O411 2.162 . S
Mn396 O412 2.297 . S
Mn396 O420 2.385 . S
Mn396 O421 2.209 . S
Mn396 O422 2.094 . S
Mn397 O402 2.121 . S
Mn397 N404 2.257 . S
Mn397 N413 2.282 1_554 S
Mn397 O421 2.215 1_554 S
Mn397 O423 2.117 1_554 S
C398 O420 1.234 . S
C398 O421 1.283 . S
C399 O411 1.281 . S
C399 O412 1.236 . S
C400 O422 1.240 . S
C400 O423 1.264 . S
O401 Mn396 2.095 . S
O401 C410 1.250 1_556 S
O402 Mn397 2.121 . S
O402 C410 1.258 . S
C403 N404 1.326 . S
C403 C407 1.460 . S
C403 H409 0.929 . S
N404 Mn397 2.257 . S
N404 C403 1.326 . S
N404 C408 1.362 . S
C405 C406 1.258 . S
C405 C408 1.431 . S
C405 C425 1.449 . S
C406 C405 1.258 . S
C406 C407 1.477 . S
C406 H426 0.931 . S
C407 C403 1.460 . S
C407 C406 1.477 . S
C407 H427 0.930 . S
C408 N404 1.362 . S
C408 C405 1.431 . S
C408 C418 1.476 1_554 S
H409 C403 0.929 . S
C410 O401 1.250 1_554 S
C410 O402 1.258 . S
O411 Mn396 2.162 . S
O411 C399 1.281 . S
O412 Mn396 2.297 . S
O412 C399 1.236 . S
N413 Mn397 2.282 1_556 S
N413 C414 1.328 . S
N413 C418 1.318 . S
C414 N413 1.328 . S
C414 C415 1.457 . S
C414 H419 0.929 . S
C415 C414 1.457 . S
C415 C416 1.291 . S
C415 H428 0.931 . S
C416 C415 1.291 . S
C416 C417 1.373 . S
C416 H429 0.929 . S
C417 C416 1.373 . S
C417 C418 1.396 . S
C417 C424 1.403 . S
C418 C408 1.476 1_556 S
C418 N413 1.318 . S
C418 C417 1.396 . S
H419 C414 0.929 . S
O420 Mn396 2.385 . S
O420 C398 1.234 . S
O421 Mn396 2.209 . S
O421 Mn397 2.215 1_556 S
O421 C398 1.283 . S
O422 Mn396 2.094 . S
O422 C400 1.240 . S
O423 Mn397 2.117 1_556 S
O423 C400 1.264 . S
C424 C417 1.403 . S
C424 C425 1.399 1_556 S
C424 H430 0.929 . S
C425 C405 1.449 . S
C425 C424 1.399 1_554 S
C425 H431 0.930 . S
H426 C406 0.931 . S
H427 C407 0.930 . S
H428 C415 0.931 . S
H429 C416 0.929 . S
H430 C424 0.929 . S
H431 C425 0.930 . S
Mn432 O437 2.095 . S
Mn432 O447 2.162 . S
Mn432 O448 2.297 . S
Mn432 O456 2.385 . S
Mn432 O457 2.209 . S
Mn432 O458 2.094 . S
Mn433 O438 2.121 . S
Mn433 N440 2.257 . S
Mn433 N449 2.282 . S
Mn433 O457 2.215 . S
Mn433 O459 2.117 . S
C434 O456 1.234 . S
C434 O457 1.283 . S
C435 O447 1.281 . S
C435 O448 1.236 . S
C436 O458 1.240 . S
C436 O459 1.264 . S
O437 Mn432 2.095 . S
O437 C446 1.250 . S
O438 Mn433 2.121 . S
O438 C446 1.258 . S
C439 N440 1.326 . S
C439 C443 1.460 . S
C439 H445 0.929 . S
N440 Mn433 2.257 . S
N440 C439 1.326 . S
N440 C444 1.362 . S
C441 C442 1.258 . S
C441 C444 1.431 . S
C441 C461 1.449 . S
C442 C441 1.258 . S
C442 C443 1.477 . S
C442 H462 0.931 . S
C443 C439 1.460 . S
C443 C442 1.477 . S
C443 H463 0.930 . S
C444 N440 1.362 . S
C444 C441 1.431 . S
C444 C454 1.476 . S
H445 C439 0.929 . S
C446 O437 1.250 . S
C446 O438 1.258 . S
O447 Mn432 2.162 . S
O447 C435 1.281 . S
O448 Mn432 2.297 . S
O448 C435 1.236 . S
N449 Mn433 2.282 . S
N449 C450 1.328 . S
N449 C454 1.318 . S
C450 N449 1.328 . S
C450 C451 1.457 . S
C450 H455 0.929 . S
C451 C450 1.457 . S
C451 C452 1.291 . S
C451 H464 0.931 . S
C452 C451 1.291 . S
C452 C453 1.373 . S
C452 H465 0.929 . S
C453 C452 1.373 . S
C453 C454 1.396 . S
C453 C460 1.403 . S
C454 C444 1.476 . S
C454 N449 1.318 . S
C454 C453 1.396 . S
H455 C450 0.929 . S
O456 Mn432 2.385 . S
O456 C434 1.234 . S
O457 Mn432 2.209 . S
O457 Mn433 2.215 . S
O457 C434 1.283 . S
O458 Mn432 2.094 . S
O458 C436 1.240 . S
O459 Mn433 2.117 . S
O459 C436 1.264 . S
C460 C453 1.403 . S
C460 C461 1.399 . S
C460 H466 0.929 . S
C461 C441 1.449 . S
C461 C460 1.399 . S
C461 H467 0.930 . S
H462 C442 0.931 . S
H463 C443 0.930 . S
H464 C451 0.931 . S
H465 C452 0.929 . S
H466 C460 0.929 . S
H467 C461 0.930 . S
Mn468 O473 2.095 . S
Mn468 O483 2.162 . S
Mn468 O484 2.297 . S
Mn468 O492 2.385 . S
Mn468 O493 2.209 . S
Mn468 O494 2.094 . S
Mn469 O474 2.121 . S
Mn469 N476 2.257 . S
Mn469 N485 2.282 . S
Mn469 O493 2.215 . S
Mn469 O495 2.117 . S
C470 O492 1.234 . S
C470 O493 1.283 . S
C471 O483 1.281 . S
C471 O484 1.236 . S
C472 O494 1.240 . S
C472 O495 1.264 . S
O473 Mn468 2.095 . S
O473 C482 1.250 . S
O474 Mn469 2.121 . S
O474 C482 1.258 . S
C475 N476 1.326 . S
C475 C479 1.460 . S
C475 H481 0.929 . S
N476 Mn469 2.257 . S
N476 C475 1.326 . S
N476 C480 1.362 . S
C477 C478 1.258 . S
C477 C480 1.431 . S
C477 C497 1.449 . S
C478 C477 1.258 . S
C478 C479 1.477 . S
C478 H498 0.931 . S
C479 C475 1.460 . S
C479 C478 1.477 . S
C479 H499 0.930 . S
C480 N476 1.362 . S
C480 C477 1.431 . S
C480 C490 1.476 . S
H481 C475 0.929 . S
C482 O473 1.250 . S
C482 O474 1.258 . S
O483 Mn468 2.162 . S
O483 C471 1.281 . S
O484 Mn468 2.297 . S
O484 C471 1.236 . S
N485 Mn469 2.282 . S
N485 C486 1.328 . S
N485 C490 1.318 . S
C486 N485 1.328 . S
C486 C487 1.457 . S
C486 H491 0.929 . S
C487 C486 1.457 . S
C487 C488 1.291 . S
C487 H500 0.931 . S
C488 C487 1.291 . S
C488 C489 1.373 . S
C488 H501 0.929 . S
C489 C488 1.373 . S
C489 C490 1.396 . S
C489 C496 1.403 . S
C490 C480 1.476 . S
C490 N485 1.318 . S
C490 C489 1.396 . S
H491 C486 0.929 . S
O492 Mn468 2.385 . S
O492 C470 1.234 . S
O493 Mn468 2.209 . S
O493 Mn469 2.215 . S
O493 C470 1.283 . S
O494 Mn468 2.094 . S
O494 C472 1.240 . S
O495 Mn469 2.117 . S
O495 C472 1.264 . S
C496 C489 1.403 . S
C496 C497 1.399 . S
C496 H502 0.929 . S
C497 C477 1.449 . S
C497 C496 1.399 . S
C497 H503 0.930 . S
H498 C478 0.931 . S
H499 C479 0.930 . S
H500 C487 0.931 . S
H501 C488 0.929 . S
H502 C496 0.929 . S
H503 C497 0.930 . S
Mn504 O509 2.095 . S
Mn504 O519 2.162 . S
Mn504 O520 2.297 . S
Mn504 O528 2.385 . S
Mn504 O529 2.209 . S
Mn504 O530 2.094 . S
Mn505 O510 2.121 . S
Mn505 N512 2.257 . S
Mn505 N521 2.282 . S
Mn505 O529 2.215 . S
Mn505 O531 2.117 . S
C506 O528 1.234 . S
C506 O529 1.283 . S
C507 O519 1.281 . S
C507 O520 1.236 . S
C508 O530 1.240 . S
C508 O531 1.264 . S
O509 Mn504 2.095 . S
O509 C518 1.250 . S
O510 Mn505 2.121 . S
O510 C518 1.258 . S
C511 N512 1.326 . S
C511 C515 1.460 . S
C511 H517 0.929 . S
N512 Mn505 2.257 . S
N512 C511 1.326 . S
N512 C516 1.362 . S
C513 C514 1.258 . S
C513 C516 1.431 . S
C513 C533 1.449 . S
C514 C513 1.258 . S
C514 C515 1.477 . S
C514 H534 0.931 . S
C515 C511 1.460 . S
C515 C514 1.477 . S
C515 H535 0.930 . S
C516 N512 1.362 . S
C516 C513 1.431 . S
C516 C526 1.476 . S
H517 C511 0.929 . S
C518 O509 1.250 . S
C518 O510 1.258 . S
O519 Mn504 2.162 . S
O519 C507 1.281 . S
O520 Mn504 2.297 . S
O520 C507 1.236 . S
N521 Mn505 2.282 . S
N521 C522 1.328 . S
N521 C526 1.318 . S
C522 N521 1.328 . S
C522 C523 1.457 . S
C522 H527 0.929 . S
C523 C522 1.457 . S
C523 C524 1.291 . S
C523 H536 0.931 . S
C524 C523 1.291 . S
C524 C525 1.373 . S
C524 H537 0.929 . S
C525 C524 1.373 . S
C525 C526 1.396 . S
C525 C532 1.403 . S
C526 C516 1.476 . S
C526 N521 1.318 . S
C526 C525 1.396 . S
H527 C522 0.929 . S
O528 Mn504 2.385 . S
O528 C506 1.234 . S
O529 Mn504 2.209 . S
O529 Mn505 2.215 . S
O529 C506 1.283 . S
O530 Mn504 2.094 . S
O530 C508 1.240 . S
O531 Mn505 2.117 . S
O531 C508 1.264 . S
C532 C525 1.403 . S
C532 C533 1.399 . S
C532 H538 0.929 . S
C533 C513 1.449 . S
C533 C532 1.399 . S
C533 H539 0.930 . S
H534 C514 0.931 . S
H535 C515 0.930 . S
H536 C523 0.931 . S
H537 C524 0.929 . S
H538 C532 0.929 . S
H539 C533 0.930 . S
Mn540 O545 2.095 . S
Mn540 O555 2.162 . S
Mn540 O556 2.297 . S
Mn540 O564 2.385 . S
Mn540 O565 2.209 . S
Mn540 O566 2.094 . S
Mn541 O546 2.121 . S
Mn541 N548 2.257 1_455 S
Mn541 N557 2.282 1_456 S
Mn541 O565 2.215 1_556 S
Mn541 O567 2.117 1_556 S
C542 O564 1.234 . S
C542 O565 1.283 . S
C543 O555 1.281 . S
C543 O556 1.236 . S
C544 O566 1.240 . S
C544 O567 1.264 . S
O545 Mn540 2.095 . S
O545 C554 1.250 1_554 S
O546 Mn541 2.121 . S
O546 C554 1.258 . S
C547 N548 1.326 . S
C547 C551 1.460 . S
C547 H553 0.929 1_655 S
N548 Mn541 2.257 1_655 S
N548 C547 1.326 . S
N548 C552 1.362 . S
C549 C550 1.258 . S
C549 C552 1.431 . S
C549 C569 1.449 . S
C550 C549 1.258 . S
C550 C551 1.477 . S
C550 H570 0.931 . S
C551 C547 1.460 . S
C551 C550 1.477 . S
C551 H571 0.930 . S
C552 N548 1.362 . S
C552 C549 1.431 . S
C552 C562 1.476 1_556 S
H553 C547 0.929 1_455 S
C554 O545 1.250 1_556 S
C554 O546 1.258 . S
O555 Mn540 2.162 . S
O555 C543 1.281 . S
O556 Mn540 2.297 . S
O556 C543 1.236 . S
N557 Mn541 2.282 1_654 S
N557 C558 1.328 . S
N557 C562 1.318 . S
C558 N557 1.328 . S
C558 C559 1.457 . S
C558 H563 0.929 . S
C559 C558 1.457 . S
C559 C560 1.291 . S
C559 H572 0.931 . S
C560 C559 1.291 . S
C560 C561 1.373 . S
C560 H573 0.929 . S
C561 C560 1.373 . S
C561 C562 1.396 . S
C561 C568 1.403 . S
C562 C552 1.476 1_554 S
C562 N557 1.318 . S
C562 C561 1.396 . S
H563 C558 0.929 . S
O564 Mn540 2.385 . S
O564 C542 1.234 . S
O565 Mn540 2.209 . S
O565 Mn541 2.215 1_554 S
O565 C542 1.283 . S
O566 Mn540 2.094 . S
O566 C544 1.240 . S
O567 Mn541 2.117 1_554 S
O567 C544 1.264 . S
C568 C561 1.403 . S
C568 C569 1.399 1_554 S
C568 H574 0.929 . S
C569 C549 1.449 . S
C569 C568 1.399 1_556 S
C569 H575 0.930 . S
H570 C550 0.931 . S
H571 C551 0.930 . S
H572 C559 0.931 . S
H573 C560 0.929 . S
H574 C568 0.929 . S
H575 C569 0.930 . S
Mn576 O581 2.095 . S
Mn576 O591 2.162 . S
Mn576 O592 2.297 . S
Mn576 O600 2.385 . S
Mn576 O601 2.209 . S
Mn576 O602 2.094 . S
Mn577 O582 2.121 . S
Mn577 N584 2.257 . S
Mn577 N593 2.282 . S
Mn577 O601 2.215 . S
Mn577 O603 2.117 . S
C578 O600 1.234 . S
C578 O601 1.283 . S
C579 O591 1.281 . S
C579 O592 1.236 . S
C580 O602 1.240 . S
C580 O603 1.264 . S
O581 Mn576 2.095 . S
O581 C590 1.250 . S
O582 Mn577 2.121 . S
O582 C590 1.258 . S
C583 N584 1.326 . S
C583 C587 1.460 . S
C583 H589 0.929 . S
N584 Mn577 2.257 . S
N584 C583 1.326 . S
N584 C588 1.362 . S
C585 C586 1.258 . S
C585 C588 1.431 . S
C585 C605 1.449 . S
C586 C585 1.258 . S
C586 C587 1.477 . S
C586 H606 0.931 . S
C587 C583 1.460 . S
C587 C586 1.477 . S
C587 H607 0.930 . S
C588 N584 1.362 . S
C588 C585 1.431 . S
C588 C598 1.476 . S
H589 C583 0.929 . S
C590 O581 1.250 . S
C590 O582 1.258 . S
O591 Mn576 2.162 . S
O591 C579 1.281 . S
O592 Mn576 2.297 . S
O592 C579 1.236 . S
N593 Mn577 2.282 . S
N593 C594 1.328 . S
N593 C598 1.318 . S
C594 N593 1.328 . S
C594 C595 1.457 . S
C594 H599 0.929 . S
C595 C594 1.457 . S
C595 C596 1.291 . S
C595 H608 0.931 . S
C596 C595 1.291 . S
C596 C597 1.373 . S
C596 H609 0.929 . S
C597 C596 1.373 . S
C597 C598 1.396 . S
C597 C604 1.403 . S
C598 C588 1.476 . S
C598 N593 1.318 . S
C598 C597 1.396 . S
H599 C594 0.929 . S
O600 Mn576 2.385 . S
O600 C578 1.234 . S
O601 Mn576 2.209 . S
O601 Mn577 2.215 . S
O601 C578 1.283 . S
O602 Mn576 2.094 . S
O602 C580 1.240 . S
O603 Mn577 2.117 . S
O603 C580 1.264 . S
C604 C597 1.403 . S
C604 C605 1.399 . S
C604 H610 0.929 . S
C605 C585 1.449 . S
C605 C604 1.399 . S
C605 H611 0.930 . S
H606 C586 0.931 . S
H607 C587 0.930 . S
H608 C595 0.931 . S
H609 C596 0.929 . S
H610 C604 0.929 . S
H611 C605 0.930 . S
Mn612 O617 2.095 1_554 S
Mn612 O627 2.162 . S
Mn612 O628 2.297 . S
Mn612 O636 2.385 . S
Mn612 O637 2.209 . S
Mn612 O638 2.094 . S
Mn613 O618 2.121 . S
Mn613 N620 2.257 . S
Mn613 N629 2.282 1_556 S
Mn613 O637 2.215 1_556 S
Mn613 O639 2.117 1_556 S
C614 O636 1.234 . S
C614 O637 1.283 . S
C615 O627 1.281 . S
C615 O628 1.236 . S
C616 O638 1.240 . S
C616 O639 1.264 . S
O617 Mn612 2.095 1_556 S
O617 C626 1.250 . S
O618 Mn613 2.121 . S
O618 C626 1.258 . S
C619 N620 1.326 . S
C619 C623 1.460 . S
C619 H625 0.929 . S
N620 Mn613 2.257 . S
N620 C619 1.326 . S
N620 C624 1.362 . S
C621 C622 1.258 . S
C621 C624 1.431 . S
C621 C641 1.449 . S
C622 C621 1.258 . S
C622 C623 1.477 . S
C622 H642 0.931 . S
C623 C619 1.460 . S
C623 C622 1.477 . S
C623 H643 0.930 . S
C624 N620 1.362 . S
C624 C621 1.431 . S
C624 C634 1.476 1_556 S
H625 C619 0.929 . S
C626 O617 1.250 . S
C626 O618 1.258 . S
O627 Mn612 2.162 . S
O627 C615 1.281 . S
O628 Mn612 2.297 . S
O628 C615 1.236 . S
N629 Mn613 2.282 1_554 S
N629 C630 1.328 . S
N629 C634 1.318 . S
C630 N629 1.328 . S
C630 C631 1.457 . S
C630 H635 0.929 . S
C631 C630 1.457 . S
C631 C632 1.291 . S
C631 H644 0.931 . S
C632 C631 1.291 . S
C632 C633 1.373 . S
C632 H645 0.929 . S
C633 C632 1.373 . S
C633 C634 1.396 . S
C633 C640 1.403 . S
C634 C624 1.476 1_554 S
C634 N629 1.318 . S
C634 C633 1.396 . S
H635 C630 0.929 . S
O636 Mn612 2.385 . S
O636 C614 1.234 . S
O637 Mn612 2.209 . S
O637 Mn613 2.215 1_554 S
O637 C614 1.283 . S
O638 Mn612 2.094 . S
O638 C616 1.240 . S
O639 Mn613 2.117 1_554 S
O639 C616 1.264 . S
C640 C633 1.403 . S
C640 C641 1.399 1_554 S
C640 H646 0.929 . S
C641 C621 1.449 . S
C641 C640 1.399 1_556 S
C641 H647 0.930 . S
H642 C622 0.931 . S
H643 C623 0.930 . S
H644 C631 0.931 . S
H645 C632 0.929 . S
H646 C640 0.929 . S
H647 C641 0.930 . S
Mn648 O653 2.095 . S
Mn648 O663 2.162 . S
Mn648 O664 2.297 . S
Mn648 O672 2.385 . S
Mn648 O673 2.209 . S
Mn648 O674 2.094 . S
Mn649 O654 2.121 . S
Mn649 N656 2.257 . S
Mn649 N665 2.282 . S
Mn649 O673 2.215 . S
Mn649 O675 2.117 . S
C650 O672 1.234 . S
C650 O673 1.283 . S
C651 O663 1.281 . S
C651 O664 1.236 . S
C652 O674 1.240 . S
C652 O675 1.264 . S
O653 Mn648 2.095 . S
O653 C662 1.250 . S
O654 Mn649 2.121 . S
O654 C662 1.258 . S
C655 N656 1.326 . S
C655 C659 1.460 . S
C655 H661 0.929 . S
N656 Mn649 2.257 . S
N656 C655 1.326 . S
N656 C660 1.362 . S
C657 C658 1.258 . S
C657 C660 1.431 . S
C657 C677 1.449 . S
C658 C657 1.258 . S
C658 C659 1.477 . S
C658 H678 0.931 . S
C659 C655 1.460 . S
C659 C658 1.477 . S
C659 H679 0.930 . S
C660 N656 1.362 . S
C660 C657 1.431 . S
C660 C670 1.476 . S
H661 C655 0.929 . S
C662 O653 1.250 . S
C662 O654 1.258 . S
O663 Mn648 2.162 . S
O663 C651 1.281 . S
O664 Mn648 2.297 . S
O664 C651 1.236 . S
N665 Mn649 2.282 . S
N665 C666 1.328 . S
N665 C670 1.318 . S
C666 N665 1.328 . S
C666 C667 1.457 . S
C666 H671 0.929 . S
C667 C666 1.457 . S
C667 C668 1.291 . S
C667 H680 0.931 . S
C668 C667 1.291 . S
C668 C669 1.373 . S
C668 H681 0.929 . S
C669 C668 1.373 . S
C669 C670 1.396 . S
C669 C676 1.403 . S
C670 C660 1.476 . S
C670 N665 1.318 . S
C670 C669 1.396 . S
H671 C666 0.929 . S
O672 Mn648 2.385 . S
O672 C650 1.234 . S
O673 Mn648 2.209 . S
O673 Mn649 2.215 . S
O673 C650 1.283 . S
O674 Mn648 2.094 . S
O674 C652 1.240 . S
O675 Mn649 2.117 . S
O675 C652 1.264 . S
C676 C669 1.403 . S
C676 C677 1.399 . S
C676 H682 0.929 . S
C677 C657 1.449 . S
C677 C676 1.399 . S
C677 H683 0.930 . S
H678 C658 0.931 . S
H679 C659 0.930 . S
H680 C667 0.931 . S
H681 C668 0.929 . S
H682 C676 0.929 . S
H683 C677 0.930 . S
Mn684 O689 2.095 . S
Mn684 O699 2.162 . S
Mn684 O700 2.297 . S
Mn684 O708 2.385 . S
Mn684 O709 2.209 . S
Mn684 O710 2.094 . S
Mn685 O690 2.121 . S
Mn685 N692 2.257 1_455 S
Mn685 N701 2.282 1_455 S
Mn685 O709 2.215 . S
Mn685 O711 2.117 . S
C686 O708 1.234 . S
C686 O709 1.283 . S
C687 O699 1.281 . S
C687 O700 1.236 . S
C688 O710 1.240 . S
C688 O711 1.264 . S
O689 Mn684 2.095 . S
O689 C698 1.250 . S
O690 Mn685 2.121 . S
O690 C698 1.258 . S
C691 N692 1.326 . S
C691 C695 1.460 . S
C691 H697 0.929 . S
N692 Mn685 2.257 1_655 S
N692 C691 1.326 . S
N692 C696 1.362 . S
C693 C694 1.258 . S
C693 C696 1.431 . S
C693 C713 1.449 . S
C694 C693 1.258 . S
C694 C695 1.477 . S
C694 H714 0.931 . S
C695 C691 1.460 . S
C695 C694 1.477 . S
C695 H715 0.930 . S
C696 N692 1.362 . S
C696 C693 1.431 . S
C696 C706 1.476 . S
H697 C691 0.929 . S
C698 O689 1.250 . S
C698 O690 1.258 . S
O699 Mn684 2.162 . S
O699 C687 1.281 . S
O700 Mn684 2.297 . S
O700 C687 1.236 . S
N701 Mn685 2.282 1_655 S
N701 C702 1.328 . S
N701 C706 1.318 . S
C702 N701 1.328 . S
C702 C703 1.457 . S
C702 H707 0.929 . S
C703 C702 1.457 . S
C703 C704 1.291 . S
C703 H716 0.931 . S
C704 C703 1.291 . S
C704 C705 1.373 . S
C704 H717 0.929 . S
C705 C704 1.373 . S
C705 C706 1.396 . S
C705 C712 1.403 . S
C706 C696 1.476 . S
C706 N701 1.318 . S
C706 C705 1.396 . S
H707 C702 0.929 . S
O708 Mn684 2.385 . S
O708 C686 1.234 . S
O709 Mn684 2.209 . S
O709 Mn685 2.215 . S
O709 C686 1.283 . S
O710 Mn684 2.094 . S
O710 C688 1.240 . S
O711 Mn685 2.117 . S
O711 C688 1.264 . S
C712 C705 1.403 . S
C712 C713 1.399 . S
C712 H718 0.929 . S
C713 C693 1.449 . S
C713 C712 1.399 . S
C713 H719 0.930 . S
H714 C694 0.931 . S
H715 C695 0.930 . S
H716 C703 0.931 . S
H717 C704 0.929 . S
H718 C712 0.929 . S
H719 C713 0.930 . S
Mn720 O725 2.095 . S
Mn720 O735 2.162 . S
Mn720 O736 2.297 . S
Mn720 O744 2.385 . S
Mn720 O745 2.209 . S
Mn720 O746 2.094 . S
Mn721 O726 2.121 . S
Mn721 N728 2.257 . S
Mn721 N737 2.282 . S
Mn721 O745 2.215 . S
Mn721 O747 2.117 . S
C722 O744 1.234 . S
C722 O745 1.283 . S
C723 O735 1.281 . S
C723 O736 1.236 . S
C724 O746 1.240 . S
C724 O747 1.264 . S
O725 Mn720 2.095 . S
O725 C734 1.250 . S
O726 Mn721 2.121 . S
O726 C734 1.258 . S
C727 N728 1.326 . S
C727 C731 1.460 . S
C727 H733 0.929 . S
N728 Mn721 2.257 . S
N728 C727 1.326 . S
N728 C732 1.362 . S
C729 C730 1.258 . S
C729 C732 1.431 . S
C729 C749 1.449 . S
C730 C729 1.258 . S
C730 C731 1.477 . S
C730 H750 0.931 . S
C731 C727 1.460 . S
C731 C730 1.477 . S
C731 H751 0.930 . S
C732 N728 1.362 . S
C732 C729 1.431 . S
C732 C742 1.476 . S
H733 C727 0.929 . S
C734 O725 1.250 . S
C734 O726 1.258 . S
O735 Mn720 2.162 . S
O735 C723 1.281 . S
O736 Mn720 2.297 . S
O736 C723 1.236 . S
N737 Mn721 2.282 . S
N737 C738 1.328 . S
N737 C742 1.318 . S
C738 N737 1.328 . S
C738 C739 1.457 . S
C738 H743 0.929 . S
C739 C738 1.457 . S
C739 C740 1.291 . S
C739 H752 0.931 . S
C740 C739 1.291 . S
C740 C741 1.373 . S
C740 H753 0.929 . S
C741 C740 1.373 . S
C741 C742 1.396 . S
C741 C748 1.403 . S
C742 C732 1.476 . S
C742 N737 1.318 . S
C742 C741 1.396 . S
H743 C738 0.929 . S
O744 Mn720 2.385 . S
O744 C722 1.234 . S
O745 Mn720 2.209 . S
O745 Mn721 2.215 . S
O745 C722 1.283 . S
O746 Mn720 2.094 . S
O746 C724 1.240 . S
O747 Mn721 2.117 . S
O747 C724 1.264 . S
C748 C741 1.403 . S
C748 C749 1.399 . S
C748 H754 0.929 . S
C749 C729 1.449 . S
C749 C748 1.399 . S
C749 H755 0.930 . S
H750 C730 0.931 . S
H751 C731 0.930 . S
H752 C739 0.931 . S
H753 C740 0.929 . S
H754 C748 0.929 . S
H755 C749 0.930 . S
Mn756 O761 2.095 1_556 S
Mn756 O771 2.162 . S
Mn756 O772 2.297 . S
Mn756 O780 2.385 . S
Mn756 O781 2.209 . S
Mn756 O782 2.094 . S
Mn757 O762 2.121 . S
Mn757 N764 2.257 1_455 S
Mn757 N773 2.282 1_454 S
Mn757 O781 2.215 1_554 S
Mn757 O783 2.117 1_554 S
C758 O780 1.234 . S
C758 O781 1.283 . S
C759 O771 1.281 . S
C759 O772 1.236 . S
C760 O782 1.240 . S
C760 O783 1.264 . S
O761 Mn756 2.095 1_554 S
O761 C770 1.250 . S
O762 Mn757 2.121 . S
O762 C770 1.258 . S
C763 N764 1.326 . S
C763 C767 1.460 . S
C763 H769 0.929 . S
N764 Mn757 2.257 1_655 S
N764 C763 1.326 . S
N764 C768 1.362 . S
C765 C766 1.258 . S
C765 C768 1.431 . S
C765 C785 1.449 . S
C766 C765 1.258 . S
C766 C767 1.477 . S
C766 H786 0.931 . S
C767 C763 1.460 . S
C767 C766 1.477 . S
C767 H787 0.930 . S
C768 N764 1.362 . S
C768 C765 1.431 . S
C768 C778 1.476 1_554 S
H769 C763 0.929 . S
C770 O761 1.250 . S
C770 O762 1.258 . S
O771 Mn756 2.162 . S
O771 C759 1.281 . S
O772 Mn756 2.297 . S
O772 C759 1.236 . S
N773 Mn757 2.282 1_656 S
N773 C774 1.328 . S
N773 C778 1.318 . S
C774 N773 1.328 . S
C774 C775 1.457 . S
C774 H779 0.929 . S
C775 C774 1.457 . S
C775 C776 1.291 . S
C775 H788 0.931 . S
C776 C775 1.291 . S
C776 C777 1.373 . S
C776 H789 0.929 . S
C777 C776 1.373 . S
C777 C778 1.396 . S
C777 C784 1.403 . S
C778 C768 1.476 1_556 S
C778 N773 1.318 . S
C778 C777 1.396 . S
H779 C774 0.929 . S
O780 Mn756 2.385 . S
O780 C758 1.234 . S
O781 Mn756 2.209 . S
O781 Mn757 2.215 1_556 S
O781 C758 1.283 . S
O782 Mn756 2.094 . S
O782 C760 1.240 . S
O783 Mn757 2.117 1_556 S
O783 C760 1.264 . S
C784 C777 1.403 . S
C784 C785 1.399 1_556 S
C784 H790 0.929 . S
C785 C765 1.449 . S
C785 C784 1.399 1_554 S
C785 H791 0.930 . S
H786 C766 0.931 . S
H787 C767 0.930 . S
H788 C775 0.931 . S
H789 C776 0.929 . S
H790 C784 0.929 . S
H791 C785 0.930 . S
Mn792 O797 2.095 . S
Mn792 O807 2.162 . S
Mn792 O808 2.297 . S
Mn792 O816 2.385 . S
Mn792 O817 2.209 . S
Mn792 O818 2.094 . S
Mn793 O798 2.121 . S
Mn793 N800 2.257 . S
Mn793 N809 2.282 . S
Mn793 O817 2.215 . S
Mn793 O819 2.117 . S
C794 O816 1.234 . S
C794 O817 1.283 . S
C795 O807 1.281 . S
C795 O808 1.236 . S
C796 O818 1.240 . S
C796 O819 1.264 . S
O797 Mn792 2.095 . S
O797 C806 1.250 . S
O798 Mn793 2.121 . S
O798 C806 1.258 . S
C799 N800 1.326 . S
C799 C803 1.460 . S
C799 H805 0.929 . S
N800 Mn793 2.257 . S
N800 C799 1.326 . S
N800 C804 1.362 . S
C801 C802 1.258 . S
C801 C804 1.431 . S
C801 C821 1.449 . S
C802 C801 1.258 . S
C802 C803 1.477 . S
C802 H822 0.931 . S
C803 C799 1.460 . S
C803 C802 1.477 . S
C803 H823 0.930 . S
C804 N800 1.362 . S
C804 C801 1.431 . S
C804 C814 1.476 . S
H805 C799 0.929 . S
C806 O797 1.250 . S
C806 O798 1.258 . S
O807 Mn792 2.162 . S
O807 C795 1.281 . S
O808 Mn792 2.297 . S
O808 C795 1.236 . S
N809 Mn793 2.282 . S
N809 C810 1.328 . S
N809 C814 1.318 . S
C810 N809 1.328 . S
C810 C811 1.457 . S
C810 H815 0.929 . S
C811 C810 1.457 . S
C811 C812 1.291 . S
C811 H824 0.931 . S
C812 C811 1.291 . S
C812 C813 1.373 . S
C812 H825 0.929 . S
C813 C812 1.373 . S
C813 C814 1.396 . S
C813 C820 1.403 . S
C814 C804 1.476 . S
C814 N809 1.318 . S
C814 C813 1.396 . S
H815 C810 0.929 . S
O816 Mn792 2.385 . S
O816 C794 1.234 . S
O817 Mn792 2.209 . S
O817 Mn793 2.215 . S
O817 C794 1.283 . S
O818 Mn792 2.094 . S
O818 C796 1.240 . S
O819 Mn793 2.117 . S
O819 C796 1.264 . S
C820 C813 1.403 . S
C820 C821 1.399 . S
C820 H826 0.929 . S
C821 C801 1.449 . S
C821 C820 1.399 . S
C821 H827 0.930 . S
H822 C802 0.931 . S
H823 C803 0.930 . S
H824 C811 0.931 . S
H825 C812 0.929 . S
H826 C820 0.929 . S
H827 C821 0.930 . S
Mn828 O833 2.095 . S
Mn828 O843 2.162 . S
Mn828 O844 2.297 . S
Mn828 O852 2.385 . S
Mn828 O853 2.209 . S
Mn828 O854 2.094 . S
Mn829 O834 2.121 . S
Mn829 N836 2.257 . S
Mn829 N845 2.282 . S
Mn829 O853 2.215 . S
Mn829 O855 2.117 . S
C830 O852 1.234 . S
C830 O853 1.283 . S
C831 O843 1.281 . S
C831 O844 1.236 . S
C832 O854 1.240 . S
C832 O855 1.264 . S
O833 Mn828 2.095 . S
O833 C842 1.250 . S
O834 Mn829 2.121 . S
O834 C842 1.258 . S
C835 N836 1.326 . S
C835 C839 1.460 . S
C835 H841 0.929 . S
N836 Mn829 2.257 . S
N836 C835 1.326 . S
N836 C840 1.362 . S
C837 C838 1.258 . S
C837 C840 1.431 . S
C837 C857 1.449 . S
C838 C837 1.258 . S
C838 C839 1.477 . S
C838 H858 0.931 . S
C839 C835 1.460 . S
C839 C838 1.477 . S
C839 H859 0.930 . S
C840 N836 1.362 . S
C840 C837 1.431 . S
C840 C850 1.476 . S
H841 C835 0.929 . S
C842 O833 1.250 . S
C842 O834 1.258 . S
O843 Mn828 2.162 . S
O843 C831 1.281 . S
O844 Mn828 2.297 . S
O844 C831 1.236 . S
N845 Mn829 2.282 . S
N845 C846 1.328 . S
N845 C850 1.318 . S
C846 N845 1.328 . S
C846 C847 1.457 . S
C846 H851 0.929 . S
C847 C846 1.457 . S
C847 C848 1.291 . S
C847 H860 0.931 . S
C848 C847 1.291 . S
C848 C849 1.373 . S
C848 H861 0.929 . S
C849 C848 1.373 . S
C849 C850 1.396 . S
C849 C856 1.403 . S
C850 C840 1.476 . S
C850 N845 1.318 . S
C850 C849 1.396 . S
H851 C846 0.929 . S
O852 Mn828 2.385 . S
O852 C830 1.234 . S
O853 Mn828 2.209 . S
O853 Mn829 2.215 . S
O853 C830 1.283 . S
O854 Mn828 2.094 . S
O854 C832 1.240 . S
O855 Mn829 2.117 . S
O855 C832 1.264 . S
C856 C849 1.403 . S
C856 C857 1.399 . S
C856 H862 0.929 . S
C857 C837 1.449 . S
C857 C856 1.399 . S
C857 H863 0.930 . S
H858 C838 0.931 . S
H859 C839 0.930 . S
H860 C847 0.931 . S
H861 C848 0.929 . S
H862 C856 0.929 . S
H863 C857 0.930 . S
Mn864 O869 2.095 . S
Mn864 O879 2.162 . S
Mn864 O880 2.297 . S
Mn864 O888 2.385 . S
Mn864 O889 2.209 . S
Mn864 O890 2.094 . S
Mn865 O870 2.121 . S
Mn865 N872 2.257 . S
Mn865 N881 2.282 . S
Mn865 O889 2.215 . S
Mn865 O891 2.117 . S
C866 O888 1.234 . S
C866 O889 1.283 . S
C867 O879 1.281 . S
C867 O880 1.236 . S
C868 O890 1.240 . S
C868 O891 1.264 . S
O869 Mn864 2.095 . S
O869 C878 1.250 . S
O870 Mn865 2.121 . S
O870 C878 1.258 . S
C871 N872 1.326 . S
C871 C875 1.460 . S
C871 H877 0.929 . S
N872 Mn865 2.257 . S
N872 C871 1.326 . S
N872 C876 1.362 . S
C873 C874 1.258 . S
C873 C876 1.431 . S
C873 C893 1.449 . S
C874 C873 1.258 . S
C874 C875 1.477 . S
C874 H894 0.931 . S
C875 C871 1.460 . S
C875 C874 1.477 . S
C875 H895 0.930 . S
C876 N872 1.362 . S
C876 C873 1.431 . S
C876 C886 1.476 . S
H877 C871 0.929 . S
C878 O869 1.250 . S
C878 O870 1.258 . S
O879 Mn864 2.162 . S
O879 C867 1.281 . S
O880 Mn864 2.297 . S
O880 C867 1.236 . S
N881 Mn865 2.282 . S
N881 C882 1.328 . S
N881 C886 1.318 . S
C882 N881 1.328 . S
C882 C883 1.457 . S
C882 H887 0.929 . S
C883 C882 1.457 . S
C883 C884 1.291 . S
C883 H896 0.931 . S
C884 C883 1.291 . S
C884 C885 1.373 . S
C884 H897 0.929 . S
C885 C884 1.373 . S
C885 C886 1.396 . S
C885 C892 1.403 . S
C886 C876 1.476 . S
C886 N881 1.318 . S
C886 C885 1.396 . S
H887 C882 0.929 . S
O888 Mn864 2.385 . S
O888 C866 1.234 . S
O889 Mn864 2.209 . S
O889 Mn865 2.215 . S
O889 C866 1.283 . S
O890 Mn864 2.094 . S
O890 C868 1.240 . S
O891 Mn865 2.117 . S
O891 C868 1.264 . S
C892 C885 1.403 . S
C892 C893 1.399 . S
C892 H898 0.929 . S
C893 C873 1.449 . S
C893 C892 1.399 . S
C893 H899 0.930 . S
H894 C874 0.931 . S
H895 C875 0.930 . S
H896 C883 0.931 . S
H897 C884 0.929 . S
H898 C892 0.929 . S
H899 C893 0.930 . S
Mn900 O905 2.095 . S
Mn900 O915 2.162 . S
Mn900 O916 2.297 . S
Mn900 O924 2.385 . S
Mn900 O925 2.209 . S
Mn900 O926 2.094 . S
Mn901 O906 2.121 . S
Mn901 N908 2.257 . S
Mn901 N917 2.282 1_554 S
Mn901 O925 2.215 1_554 S
Mn901 O927 2.117 1_554 S
C902 O924 1.234 . S
C902 O925 1.283 . S
C903 O915 1.281 . S
C903 O916 1.236 . S
C904 O926 1.240 . S
C904 O927 1.264 . S
O905 Mn900 2.095 . S
O905 C914 1.250 1_556 S
O906 Mn901 2.121 . S
O906 C914 1.258 . S
C907 N908 1.326 . S
C907 C911 1.460 . S
C907 H913 0.929 . S
N908 Mn901 2.257 . S
N908 C907 1.326 . S
N908 C912 1.362 . S
C909 C910 1.258 . S
C909 C912 1.431 . S
C909 C929 1.449 . S
C910 C909 1.258 . S
C910 C911 1.477 . S
C910 H930 0.931 . S
C911 C907 1.460 . S
C911 C910 1.477 . S
C911 H931 0.930 . S
C912 N908 1.362 . S
C912 C909 1.431 . S
C912 C922 1.476 1_554 S
H913 C907 0.929 . S
C914 O905 1.250 1_554 S
C914 O906 1.258 . S
O915 Mn900 2.162 . S
O915 C903 1.281 . S
O916 Mn900 2.297 . S
O916 C903 1.236 . S
N917 Mn901 2.282 1_556 S
N917 C918 1.328 . S
N917 C922 1.318 . S
C918 N917 1.328 . S
C918 C919 1.457 . S
C918 H923 0.929 . S
C919 C918 1.457 . S
C919 C920 1.291 . S
C919 H932 0.931 . S
C920 C919 1.291 . S
C920 C921 1.373 . S
C920 H933 0.929 . S
C921 C920 1.373 . S
C921 C922 1.396 . S
C921 C928 1.403 . S
C922 C912 1.476 1_556 S
C922 N917 1.318 . S
C922 C921 1.396 . S
H923 C918 0.929 . S
O924 Mn900 2.385 . S
O924 C902 1.234 . S
O925 Mn900 2.209 . S
O925 Mn901 2.215 1_556 S
O925 C902 1.283 . S
O926 Mn900 2.094 . S
O926 C904 1.240 . S
O927 Mn901 2.117 1_556 S
O927 C904 1.264 . S
C928 C921 1.403 . S
C928 C929 1.399 1_556 S
C928 H934 0.929 . S
C929 C909 1.449 . S
C929 C928 1.399 1_554 S
C929 H935 0.930 . S
H930 C910 0.931 . S
H931 C911 0.930 . S
H932 C919 0.931 . S
H933 C920 0.929 . S
H934 C928 0.929 . S
H935 C929 0.930 . S
Mn936 O941 2.095 . S
Mn936 O951 2.162 . S
Mn936 O952 2.297 . S
Mn936 O960 2.385 . S
Mn936 O961 2.209 . S
Mn936 O962 2.094 . S
Mn937 O942 2.121 . S
Mn937 N944 2.257 . S
Mn937 N953 2.282 . S
Mn937 O961 2.215 . S
Mn937 O963 2.117 . S
C938 O960 1.234 . S
C938 O961 1.283 . S
C939 O951 1.281 . S
C939 O952 1.236 . S
C940 O962 1.240 . S
C940 O963 1.264 . S
O941 Mn936 2.095 . S
O941 C950 1.250 . S
O942 Mn937 2.121 . S
O942 C950 1.258 . S
C943 N944 1.326 . S
C943 C947 1.460 . S
C943 H949 0.929 . S
N944 Mn937 2.257 . S
N944 C943 1.326 . S
N944 C948 1.362 . S
C945 C946 1.258 . S
C945 C948 1.431 . S
C945 C965 1.449 . S
C946 C945 1.258 . S
C946 C947 1.477 . S
C946 H966 0.931 . S
C947 C943 1.460 . S
C947 C946 1.477 . S
C947 H967 0.930 . S
C948 N944 1.362 . S
C948 C945 1.431 . S
C948 C958 1.476 . S
H949 C943 0.929 . S
C950 O941 1.250 . S
C950 O942 1.258 . S
O951 Mn936 2.162 . S
O951 C939 1.281 . S
O952 Mn936 2.297 . S
O952 C939 1.236 . S
N953 Mn937 2.282 . S
N953 C954 1.328 . S
N953 C958 1.318 . S
C954 N953 1.328 . S
C954 C955 1.457 . S
C954 H959 0.929 . S
C955 C954 1.457 . S
C955 C956 1.291 . S
C955 H968 0.931 . S
C956 C955 1.291 . S
C956 C957 1.373 . S
C956 H969 0.929 . S
C957 C956 1.373 . S
C957 C958 1.396 . S
C957 C964 1.403 . S
C958 C948 1.476 . S
C958 N953 1.318 . S
C958 C957 1.396 . S
H959 C954 0.929 . S
O960 Mn936 2.385 . S
O960 C938 1.234 . S
O961 Mn936 2.209 . S
O961 Mn937 2.215 . S
O961 C938 1.283 . S
O962 Mn936 2.094 . S
O962 C940 1.240 . S
O963 Mn937 2.117 . S
O963 C940 1.264 . S
C964 C957 1.403 . S
C964 C965 1.399 . S
C964 H970 0.929 . S
C965 C945 1.449 . S
C965 C964 1.399 . S
C965 H971 0.930 . S
H966 C946 0.931 . S
H967 C947 0.930 . S
H968 C955 0.931 . S
H969 C956 0.929 . S
H970 C964 0.929 . S
H971 C965 0.930 . S
Mn972 O977 2.095 . S
Mn972 O987 2.162 . S
Mn972 O988 2.297 . S
Mn972 O996 2.385 . S
Mn972 O997 2.209 . S
Mn972 O998 2.094 . S
Mn973 O978 2.121 . S
Mn973 N980 2.257 1_655 S
Mn973 N989 2.282 1_655 S
Mn973 O997 2.215 . S
Mn973 O999 2.117 . S
C974 O996 1.234 . S
C974 O997 1.283 . S
C975 O987 1.281 . S
C975 O988 1.236 . S
C976 O998 1.240 . S
C976 O999 1.264 . S
O977 Mn972 2.095 . S
O977 C986 1.250 . S
O978 Mn973 2.121 . S
O978 C986 1.258 . S
C979 N980 1.326 . S
C979 C983 1.460 . S
C979 H985 0.929 1_455 S
N980 Mn973 2.257 1_455 S
N980 C979 1.326 . S
N980 C984 1.362 . S
C981 C982 1.258 . S
C981 C984 1.431 . S
C981 C1001 1.449 . S
C982 C981 1.258 . S
C982 C983 1.477 . S
C982 H1002 0.931 . S
C983 C979 1.460 . S
C983 C982 1.477 . S
C983 H1003 0.930 . S
C984 N980 1.362 . S
C984 C981 1.431 . S
C984 C994 1.476 . S
H985 C979 0.929 1_655 S
C986 O977 1.250 . S
C986 O978 1.258 . S
O987 Mn972 2.162 . S
O987 C975 1.281 . S
O988 Mn972 2.297 . S
O988 C975 1.236 . S
N989 Mn973 2.282 1_455 S
N989 C990 1.328 . S
N989 C994 1.318 . S
C990 N989 1.328 . S
C990 C991 1.457 . S
C990 H995 0.929 . S
C991 C990 1.457 . S
C991 C992 1.291 . S
C991 H1004 0.931 . S
C992 C991 1.291 . S
C992 C993 1.373 . S
C992 H1005 0.929 . S
C993 C992 1.373 . S
C993 C994 1.396 . S
C993 C1000 1.403 . S
C994 C984 1.476 . S
C994 N989 1.318 . S
C994 C993 1.396 . S
H995 C990 0.929 . S
O996 Mn972 2.385 . S
O996 C974 1.234 . S
O997 Mn972 2.209 . S
O997 Mn973 2.215 . S
O997 C974 1.283 . S
O998 Mn972 2.094 . S
O998 C976 1.240 . S
O999 Mn973 2.117 . S
O999 C976 1.264 . S
C1000 C993 1.403 . S
C1000 C1001 1.399 . S
C1000 H1006 0.929 . S
C1001 C981 1.449 . S
C1001 C1000 1.399 . S
C1001 H1007 0.930 . S
H1002 C982 0.931 . S
H1003 C983 0.930 . S
H1004 C991 0.931 . S
H1005 C992 0.929 . S
H1006 C1000 0.929 . S
H1007 C1001 0.930 . S
Mn1008 O1013 2.095 . S
Mn1008 O1023 2.162 . S
Mn1008 O1024 2.297 . S
Mn1008 O1032 2.385 . S
Mn1008 O1033 2.209 . S
Mn1008 O1034 2.094 . S
Mn1009 O1014 2.121 . S
Mn1009 N1016 2.257 . S
Mn1009 N1025 2.282 . S
Mn1009 O1033 2.215 . S
Mn1009 O1035 2.117 . S
C1010 O1032 1.234 . S
C1010 O1033 1.283 . S
C1011 O1023 1.281 . S
C1011 O1024 1.236 . S
C1012 O1034 1.240 . S
C1012 O1035 1.264 . S
O1013 Mn1008 2.095 . S
O1013 C1022 1.250 . S
O1014 Mn1009 2.121 . S
O1014 C1022 1.258 . S
C1015 N1016 1.326 . S
C1015 C1019 1.460 . S
C1015 H1021 0.929 . S
N1016 Mn1009 2.257 . S
N1016 C1015 1.326 . S
N1016 C1020 1.362 . S
C1017 C1018 1.258 . S
C1017 C1020 1.431 . S
C1017 C1037 1.449 . S
C1018 C1017 1.258 . S
C1018 C1019 1.477 . S
C1018 H1038 0.931 . S
C1019 C1015 1.460 . S
C1019 C1018 1.477 . S
C1019 H1039 0.930 . S
C1020 N1016 1.362 . S
C1020 C1017 1.431 . S
C1020 C1030 1.476 . S
H1021 C1015 0.929 . S
C1022 O1013 1.250 . S
C1022 O1014 1.258 . S
O1023 Mn1008 2.162 . S
O1023 C1011 1.281 . S
O1024 Mn1008 2.297 . S
O1024 C1011 1.236 . S
N1025 Mn1009 2.282 . S
N1025 C1026 1.328 . S
N1025 C1030 1.318 . S
C1026 N1025 1.328 . S
C1026 C1027 1.457 . S
C1026 H1031 0.929 . S
C1027 C1026 1.457 . S
C1027 C1028 1.291 . S
C1027 H1040 0.931 . S
C1028 C1027 1.291 . S
C1028 C1029 1.373 . S
C1028 H1041 0.929 . S
C1029 C1028 1.373 . S
C1029 C1030 1.396 . S
C1029 C1036 1.403 . S
C1030 C1020 1.476 . S
C1030 N1025 1.318 . S
C1030 C1029 1.396 . S
H1031 C1026 0.929 . S
O1032 Mn1008 2.385 . S
O1032 C1010 1.234 . S
O1033 Mn1008 2.209 . S
O1033 Mn1009 2.215 . S
O1033 C1010 1.283 . S
O1034 Mn1008 2.094 . S
O1034 C1012 1.240 . S
O1035 Mn1009 2.117 . S
O1035 C1012 1.264 . S
C1036 C1029 1.403 . S
C1036 C1037 1.399 . S
C1036 H1042 0.929 . S
C1037 C1017 1.449 . S
C1037 C1036 1.399 . S
C1037 H1043 0.930 . S
H1038 C1018 0.931 . S
H1039 C1019 0.930 . S
H1040 C1027 0.931 . S
H1041 C1028 0.929 . S
H1042 C1036 0.929 . S
H1043 C1037 0.930 . S
Mn1044 O1049 2.095 . S
Mn1044 O1059 2.162 . S
Mn1044 O1060 2.297 . S
Mn1044 O1068 2.385 . S
Mn1044 O1069 2.209 . S
Mn1044 O1070 2.094 . S
Mn1045 O1050 2.121 . S
Mn1045 N1052 2.257 1_655 S
Mn1045 N1061 2.282 1_656 S
Mn1045 O1069 2.215 1_556 S
Mn1045 O1071 2.117 1_556 S
C1046 O1068 1.234 . S
C1046 O1069 1.283 . S
C1047 O1059 1.281 . S
C1047 O1060 1.236 . S
C1048 O1070 1.240 . S
C1048 O1071 1.264 . S
O1049 Mn1044 2.095 . S
O1049 C1058 1.250 1_554 S
O1050 Mn1045 2.121 . S
O1050 C1058 1.258 . S
C1051 N1052 1.326 . S
C1051 C1055 1.460 . S
C1051 H1057 0.929 1_455 S
N1052 Mn1045 2.257 1_455 S
N1052 C1051 1.326 . S
N1052 C1056 1.362 . S
C1053 C1054 1.258 . S
C1053 C1056 1.431 . S
C1053 C1073 1.449 . S
C1054 C1053 1.258 . S
C1054 C1055 1.477 . S
C1054 H1074 0.931 . S
C1055 C1051 1.460 . S
C1055 C1054 1.477 . S
C1055 H1075 0.930 . S
C1056 N1052 1.362 . S
C1056 C1053 1.431 . S
C1056 C1066 1.476 1_556 S
H1057 C1051 0.929 1_655 S
C1058 O1049 1.250 1_556 S
C1058 O1050 1.258 . S
O1059 Mn1044 2.162 . S
O1059 C1047 1.281 . S
O1060 Mn1044 2.297 . S
O1060 C1047 1.236 . S
N1061 Mn1045 2.282 1_454 S
N1061 C1062 1.328 . S
N1061 C1066 1.318 . S
C1062 N1061 1.328 . S
C1062 C1063 1.457 . S
C1062 H1067 0.929 . S
C1063 C1062 1.457 . S
C1063 C1064 1.291 . S
C1063 H1076 0.931 . S
C1064 C1063 1.291 . S
C1064 C1065 1.373 . S
C1064 H1077 0.929 . S
C1065 C1064 1.373 . S
C1065 C1066 1.396 . S
C1065 C1072 1.403 . S
C1066 C1056 1.476 1_554 S
C1066 N1061 1.318 . S
C1066 C1065 1.396 . S
H1067 C1062 0.929 . S
O1068 Mn1044 2.385 . S
O1068 C1046 1.234 . S
O1069 Mn1044 2.209 . S
O1069 Mn1045 2.215 1_554 S
O1069 C1046 1.283 . S
O1070 Mn1044 2.094 . S
O1070 C1048 1.240 . S
O1071 Mn1045 2.117 1_554 S
O1071 C1048 1.264 . S
C1072 C1065 1.403 . S
C1072 C1073 1.399 1_554 S
C1072 H1078 0.929 . S
C1073 C1053 1.449 . S
C1073 C1072 1.399 1_556 S
C1073 H1079 0.930 . S
H1074 C1054 0.931 . S
H1075 C1055 0.930 . S
H1076 C1063 0.931 . S
H1077 C1064 0.929 . S
H1078 C1072 0.929 . S
H1079 C1073 0.930 . S
Mn1080 O1085 2.095 . S
Mn1080 O1095 2.162 . S
Mn1080 O1096 2.297 . S
Mn1080 O1104 2.385 . S
Mn1080 O1105 2.209 . S
Mn1080 O1106 2.094 . S
Mn1081 O1086 2.121 . S
Mn1081 N1088 2.257 . S
Mn1081 N1097 2.282 . S
Mn1081 O1105 2.215 . S
Mn1081 O1107 2.117 . S
C1082 O1104 1.234 . S
C1082 O1105 1.283 . S
C1083 O1095 1.281 . S
C1083 O1096 1.236 . S
C1084 O1106 1.240 . S
C1084 O1107 1.264 . S
O1085 Mn1080 2.095 . S
O1085 C1094 1.250 . S
O1086 Mn1081 2.121 . S
O1086 C1094 1.258 . S
C1087 N1088 1.326 . S
C1087 C1091 1.460 . S
C1087 H1093 0.929 . S
N1088 Mn1081 2.257 . S
N1088 C1087 1.326 . S
N1088 C1092 1.362 . S
C1089 C1090 1.258 . S
C1089 C1092 1.431 . S
C1089 C1109 1.449 . S
C1090 C1089 1.258 . S
C1090 C1091 1.477 . S
C1090 H1110 0.931 . S
C1091 C1087 1.460 . S
C1091 C1090 1.477 . S
C1091 H1111 0.930 . S
C1092 N1088 1.362 . S
C1092 C1089 1.431 . S
C1092 C1102 1.476 . S
H1093 C1087 0.929 . S
C1094 O1085 1.250 . S
C1094 O1086 1.258 . S
O1095 Mn1080 2.162 . S
O1095 C1083 1.281 . S
O1096 Mn1080 2.297 . S
O1096 C1083 1.236 . S
N1097 Mn1081 2.282 . S
N1097 C1098 1.328 . S
N1097 C1102 1.318 . S
C1098 N1097 1.328 . S
C1098 C1099 1.457 . S
C1098 H1103 0.929 . S
C1099 C1098 1.457 . S
C1099 C1100 1.291 . S
C1099 H1112 0.931 . S
C1100 C1099 1.291 . S
C1100 C1101 1.373 . S
C1100 H1113 0.929 . S
C1101 C1100 1.373 . S
C1101 C1102 1.396 . S
C1101 C1108 1.403 . S
C1102 C1092 1.476 . S
C1102 N1097 1.318 . S
C1102 C1101 1.396 . S
H1103 C1098 0.929 . S
O1104 Mn1080 2.385 . S
O1104 C1082 1.234 . S
O1105 Mn1080 2.209 . S
O1105 Mn1081 2.215 . S
O1105 C1082 1.283 . S
O1106 Mn1080 2.094 . S
O1106 C1084 1.240 . S
O1107 Mn1081 2.117 . S
O1107 C1084 1.264 . S
C1108 C1101 1.403 . S
C1108 C1109 1.399 . S
C1108 H1114 0.929 . S
C1109 C1089 1.449 . S
C1109 C1108 1.399 . S
C1109 H1115 0.930 . S
H1110 C1090 0.931 . S
H1111 C1091 0.930 . S
H1112 C1099 0.931 . S
H1113 C1100 0.929 . S
H1114 C1108 0.929 . S
H1115 C1109 0.930 . S
Mn1116 O1121 2.095 . S
Mn1116 O1131 2.162 . S
Mn1116 O1132 2.297 . S
Mn1116 O1140 2.385 . S
Mn1116 O1141 2.209 . S
Mn1116 O1142 2.094 . S
Mn1117 O1122 2.121 . S
Mn1117 N1124 2.257 . S
Mn1117 N1133 2.282 . S
Mn1117 O1141 2.215 . S
Mn1117 O1143 2.117 . S
C1118 O1140 1.234 . S
C1118 O1141 1.283 . S
C1119 O1131 1.281 . S
C1119 O1132 1.236 . S
C1120 O1142 1.240 . S
C1120 O1143 1.264 . S
O1121 Mn1116 2.095 . S
O1121 C1130 1.250 . S
O1122 Mn1117 2.121 . S
O1122 C1130 1.258 . S
C1123 N1124 1.326 . S
C1123 C1127 1.460 . S
C1123 H1129 0.929 . S
N1124 Mn1117 2.257 . S
N1124 C1123 1.326 . S
N1124 C1128 1.362 . S
C1125 C1126 1.258 . S
C1125 C1128 1.431 . S
C1125 C1145 1.449 . S
C1126 C1125 1.258 . S
C1126 C1127 1.477 . S
C1126 H1146 0.931 . S
C1127 C1123 1.460 . S
C1127 C1126 1.477 . S
C1127 H1147 0.930 . S
C1128 N1124 1.362 . S
C1128 C1125 1.431 . S
C1128 C1138 1.476 . S
H1129 C1123 0.929 . S
C1130 O1121 1.250 . S
C1130 O1122 1.258 . S
O1131 Mn1116 2.162 . S
O1131 C1119 1.281 . S
O1132 Mn1116 2.297 . S
O1132 C1119 1.236 . S
N1133 Mn1117 2.282 . S
N1133 C1134 1.328 . S
N1133 C1138 1.318 . S
C1134 N1133 1.328 . S
C1134 C1135 1.457 . S
C1134 H1139 0.929 . S
C1135 C1134 1.457 . S
C1135 C1136 1.291 . S
C1135 H1148 0.931 . S
C1136 C1135 1.291 . S
C1136 C1137 1.373 . S
C1136 H1149 0.929 . S
C1137 C1136 1.373 . S
C1137 C1138 1.396 . S
C1137 C1144 1.403 . S
C1138 C1128 1.476 . S
C1138 N1133 1.318 . S
C1138 C1137 1.396 . S
H1139 C1134 0.929 . S
O1140 Mn1116 2.385 . S
O1140 C1118 1.234 . S
O1141 Mn1116 2.209 . S
O1141 Mn1117 2.215 . S
O1141 C1118 1.283 . S
O1142 Mn1116 2.094 . S
O1142 C1120 1.240 . S
O1143 Mn1117 2.117 . S
O1143 C1120 1.264 . S
C1144 C1137 1.403 . S
C1144 C1145 1.399 . S
C1144 H1150 0.929 . S
C1145 C1125 1.449 . S
C1145 C1144 1.399 . S
C1145 H1151 0.930 . S
H1146 C1126 0.931 . S
H1147 C1127 0.930 . S
H1148 C1135 0.931 . S
H1149 C1136 0.929 . S
H1150 C1144 0.929 . S
H1151 C1145 0.930 . S
H1152 C1158 0.930 . S
H1153 C1162 0.930 . S
H1154 C1167 0.929 . S
H1155 C1165 0.929 . S
H1156 C1160 0.929 . S
H1157 C1166 0.929 . S
C1158 H1152 0.930 . S
C1158 C1159 1.367 . S
C1158 C1166 1.378 . S
C1159 C1158 1.367 . S
C1159 C1167 1.433 . S
C1160 H1156 0.929 . S
C1160 C1162 1.378 . S
C1160 C1164 1.350 . S
C1161 C1164 1.463 . S
C1161 C1166 1.350 . S
C1161 N1169 1.427 . S
C1162 H1153 0.930 . S
C1162 C1160 1.378 . S
C1162 C1163 1.367 . S
C1163 C1162 1.367 . S
C1163 C1165 1.433 . S
C1164 C1160 1.350 . S
C1164 C1161 1.463 . S
C1164 N1168 1.427 . S
C1165 H1155 0.929 . S
C1165 C1163 1.433 . S
C1165 N1168 1.384 . S
C1166 H1157 0.929 . S
C1166 C1158 1.378 . S
C1166 C1161 1.350 . S
C1167 H1154 0.929 . S
C1167 C1159 1.433 . S
C1167 N1169 1.384 . S
N1168 C1164 1.427 . S
N1168 C1165 1.384 . S
N1169 C1161 1.427 . S
N1169 C1167 1.384 . S
H1170 C1176 0.930 . S
H1171 C1180 0.930 . S
H1172 C1185 0.929 . S
H1173 C1183 0.929 . S
H1174 C1178 0.929 . S
H1175 C1184 0.929 . S
C1176 H1170 0.930 . S
C1176 C1177 1.367 . S
C1176 C1184 1.378 . S
C1177 C1176 1.367 . S
C1177 C1185 1.433 . S
C1178 H1174 0.929 . S
C1178 C1180 1.378 . S
C1178 C1182 1.350 . S
C1179 C1182 1.463 . S
C1179 C1184 1.350 . S
C1179 N1187 1.427 . S
C1180 H1171 0.930 . S
C1180 C1178 1.378 . S
C1180 C1181 1.367 . S
C1181 C1180 1.367 . S
C1181 C1183 1.433 . S
C1182 C1178 1.350 . S
C1182 C1179 1.463 . S
C1182 N1186 1.427 . S
C1183 H1173 0.929 . S
C1183 C1181 1.433 . S
C1183 N1186 1.384 . S
C1184 H1175 0.929 . S
C1184 C1176 1.378 . S
C1184 C1179 1.350 . S
C1185 H1172 0.929 . S
C1185 C1177 1.433 . S
C1185 N1187 1.384 . S
N1186 C1182 1.427 . S
N1186 C1183 1.384 . S
N1187 C1179 1.427 . S
N1187 C1185 1.384 . S
H1188 C1194 0.930 . S
H1189 C1198 0.930 . S
H1190 C1203 0.929 . S
H1191 C1201 0.929 . S
H1192 C1196 0.929 . S
H1193 C1202 0.929 . S
C1194 H1188 0.930 . S
C1194 C1195 1.367 . S
C1194 C1202 1.378 . S
C1195 C1194 1.367 . S
C1195 C1203 1.433 . S
C1196 H1192 0.929 . S
C1196 C1198 1.378 . S
C1196 C1200 1.350 . S
C1197 C1200 1.463 . S
C1197 C1202 1.350 . S
C1197 N1205 1.427 . S
C1198 H1189 0.930 . S
C1198 C1196 1.378 . S
C1198 C1199 1.367 . S
C1199 C1198 1.367 . S
C1199 C1201 1.433 . S
C1200 C1196 1.350 . S
C1200 C1197 1.463 . S
C1200 N1204 1.427 . S
C1201 H1191 0.929 . S
C1201 C1199 1.433 . S
C1201 N1204 1.384 . S
C1202 H1193 0.929 . S
C1202 C1194 1.378 . S
C1202 C1197 1.350 . S
C1203 H1190 0.929 . S
C1203 C1195 1.433 . S
C1203 N1205 1.384 . S
N1204 C1200 1.427 . S
N1204 C1201 1.384 . S
N1205 C1197 1.427 . S
N1205 C1203 1.384 . S
H1206 C1212 0.930 . S
H1207 C1216 0.930 . S
H1208 C1221 0.929 . S
H1209 C1219 0.929 . S
H1210 C1214 0.929 . S
H1211 C1220 0.929 . S
C1212 H1206 0.930 . S
C1212 C1213 1.367 . S
C1212 C1220 1.378 . S
C1213 C1212 1.367 . S
C1213 C1221 1.433 . S
C1214 H1210 0.929 . S
C1214 C1216 1.378 . S
C1214 C1218 1.350 . S
C1215 C1218 1.463 . S
C1215 C1220 1.350 . S
C1215 N1223 1.427 . S
C1216 H1207 0.930 . S
C1216 C1214 1.378 . S
C1216 C1217 1.367 . S
C1217 C1216 1.367 . S
C1217 C1219 1.433 . S
C1218 C1214 1.350 . S
C1218 C1215 1.463 . S
C1218 N1222 1.427 . S
C1219 H1209 0.929 . S
C1219 C1217 1.433 . S
C1219 N1222 1.384 . S
C1220 H1211 0.929 . S
C1220 C1212 1.378 . S
C1220 C1215 1.350 . S
C1221 H1208 0.929 . S
C1221 C1213 1.433 . S
C1221 N1223 1.384 . S
N1222 C1218 1.427 . S
N1222 C1219 1.384 . S
N1223 C1215 1.427 . S
N1223 C1221 1.384 . S
H1224 C1230 0.930 . S
H1225 C1234 0.930 . S
H1226 C1239 0.929 . S
H1227 C1237 0.929 . S
H1228 C1232 0.929 . S
H1229 C1238 0.929 . S
C1230 H1224 0.930 . S
C1230 C1231 1.367 . S
C1230 C1238 1.378 . S
C1231 C1230 1.367 . S
C1231 C1239 1.433 . S
C1232 H1228 0.929 . S
C1232 C1234 1.378 . S
C1232 C1236 1.350 . S
C1233 C1236 1.463 . S
C1233 C1238 1.350 . S
C1233 N1241 1.427 . S
C1234 H1225 0.930 . S
C1234 C1232 1.378 . S
C1234 C1235 1.367 . S
C1235 C1234 1.367 . S
C1235 C1237 1.433 . S
C1236 C1232 1.350 . S
C1236 C1233 1.463 . S
C1236 N1240 1.427 . S
C1237 H1227 0.929 . S
C1237 C1235 1.433 . S
C1237 N1240 1.384 . S
C1238 H1229 0.929 . S
C1238 C1230 1.378 . S
C1238 C1233 1.350 . S
C1239 H1226 0.929 . S
C1239 C1231 1.433 . S
C1239 N1241 1.384 . S
N1240 C1236 1.427 . S
N1240 C1237 1.384 . S
N1241 C1233 1.427 . S
N1241 C1239 1.384 . S
H1242 C1248 0.930 . S
H1243 C1252 0.930 . S
H1244 C1257 0.929 . S
H1245 C1255 0.929 . S
H1246 C1250 0.929 . S
H1247 C1256 0.929 . S
C1248 H1242 0.930 . S
C1248 C1249 1.367 . S
C1248 C1256 1.378 . S
C1249 C1248 1.367 . S
C1249 C1257 1.433 . S
C1250 H1246 0.929 . S
C1250 C1252 1.378 . S
C1250 C1254 1.350 . S
C1251 C1254 1.463 . S
C1251 C1256 1.350 . S
C1251 N1259 1.427 . S
C1252 H1243 0.930 . S
C1252 C1250 1.378 . S
C1252 C1253 1.367 . S
C1253 C1252 1.367 . S
C1253 C1255 1.433 . S
C1254 C1250 1.350 . S
C1254 C1251 1.463 . S
C1254 N1258 1.427 . S
C1255 H1245 0.929 . S
C1255 C1253 1.433 . S
C1255 N1258 1.384 . S
C1256 H1247 0.929 . S
C1256 C1248 1.378 . S
C1256 C1251 1.350 . S
C1257 H1244 0.929 . S
C1257 C1249 1.433 . S
C1257 N1259 1.384 . S
N1258 C1254 1.427 . S
N1258 C1255 1.384 . S
N1259 C1251 1.427 . S
N1259 C1257 1.384 . S
H1260 C1266 0.930 . S
H1261 C1270 0.930 . S
H1262 C1275 0.929 . S
H1263 C1273 0.929 . S
H1264 C1268 0.929 . S
H1265 C1274 0.929 . S
C1266 H1260 0.930 . S
C1266 C1267 1.367 . S
C1266 C1274 1.378 . S
C1267 C1266 1.367 . S
C1267 C1275 1.433 . S
C1268 H1264 0.929 . S
C1268 C1270 1.378 . S
C1268 C1272 1.350 . S
C1269 C1272 1.463 . S
C1269 C1274 1.350 . S
C1269 N1277 1.427 . S
C1270 H1261 0.930 . S
C1270 C1268 1.378 . S
C1270 C1271 1.367 . S
C1271 C1270 1.367 . S
C1271 C1273 1.433 . S
C1272 C1268 1.350 . S
C1272 C1269 1.463 . S
C1272 N1276 1.427 . S
C1273 H1263 0.929 . S
C1273 C1271 1.433 . S
C1273 N1276 1.384 . S
C1274 H1265 0.929 . S
C1274 C1266 1.378 . S
C1274 C1269 1.350 . S
C1275 H1262 0.929 . S
C1275 C1267 1.433 . S
C1275 N1277 1.384 . S
N1276 C1272 1.427 . S
N1276 C1273 1.384 . S
N1277 C1269 1.427 . S
N1277 C1275 1.384 . S
H1278 C1284 0.930 . S
H1279 C1288 0.930 . S
H1280 C1293 0.929 . S
H1281 C1291 0.929 . S
H1282 C1286 0.929 . S
H1283 C1292 0.929 . S
C1284 H1278 0.930 . S
C1284 C1285 1.367 . S
C1284 C1292 1.378 . S
C1285 C1284 1.367 . S
C1285 C1293 1.433 . S
C1286 H1282 0.929 . S
C1286 C1288 1.378 . S
C1286 C1290 1.350 . S
C1287 C1290 1.463 . S
C1287 C1292 1.350 . S
C1287 N1295 1.427 . S
C1288 H1279 0.930 . S
C1288 C1286 1.378 . S
C1288 C1289 1.367 . S
C1289 C1288 1.367 . S
C1289 C1291 1.433 . S
C1290 C1286 1.350 . S
C1290 C1287 1.463 . S
C1290 N1294 1.427 . S
C1291 H1281 0.929 . S
C1291 C1289 1.433 . S
C1291 N1294 1.384 . S
C1292 H1283 0.929 . S
C1292 C1284 1.378 . S
C1292 C1287 1.350 . S
C1293 H1280 0.929 . S
C1293 C1285 1.433 . S
C1293 N1295 1.384 . S
N1294 C1290 1.427 . S
N1294 C1291 1.384 . S
N1295 C1287 1.427 . S
N1295 C1293 1.384 . S
H1296 C1302 0.930 . S
H1297 C1306 0.930 . S
H1298 C1311 0.929 . S
H1299 C1309 0.929 . S
H1300 C1304 0.929 . S
H1301 C1310 0.929 . S
C1302 H1296 0.930 . S
C1302 C1303 1.367 . S
C1302 C1310 1.378 . S
C1303 C1302 1.367 . S
C1303 C1311 1.433 . S
C1304 H1300 0.929 . S
C1304 C1306 1.378 . S
C1304 C1308 1.350 . S
C1305 C1308 1.463 . S
C1305 C1310 1.350 . S
C1305 N1313 1.427 . S
C1306 H1297 0.930 . S
C1306 C1304 1.378 . S
C1306 C1307 1.367 . S
C1307 C1306 1.367 . S
C1307 C1309 1.433 . S
C1308 C1304 1.350 . S
C1308 C1305 1.463 . S
C1308 N1312 1.427 . S
C1309 H1299 0.929 . S
C1309 C1307 1.433 . S
C1309 N1312 1.384 . S
C1310 H1301 0.929 . S
C1310 C1302 1.378 . S
C1310 C1305 1.350 . S
C1311 H1298 0.929 . S
C1311 C1303 1.433 . S
C1311 N1313 1.384 . S
N1312 C1308 1.427 . S
N1312 C1309 1.384 . S
N1313 C1305 1.427 . S
N1313 C1311 1.384 . S
H1314 C1320 0.930 . S
H1315 C1324 0.930 . S
H1316 C1329 0.929 . S
H1317 C1327 0.929 . S
H1318 C1322 0.929 . S
H1319 C1328 0.929 . S
C1320 H1314 0.930 . S
C1320 C1321 1.378 . S
C1320 C1328 1.378 . S
C1321 C1320 1.378 . S
C1321 C1329 1.432 1_655 S
C1322 H1318 0.929 . S
C1322 C1324 1.378 . S
C1322 C1326 1.350 . S
C1323 C1326 1.463 . S
C1323 C1328 1.350 . S
C1323 N1331 1.427 . S
C1324 H1315 0.930 . S
C1324 C1322 1.378 . S
C1324 C1325 1.367 . S
C1325 C1324 1.367 . S
C1325 C1327 1.433 . S
C1326 C1322 1.350 . S
C1326 C1323 1.463 . S
C1326 N1330 1.427 . S
C1327 H1317 0.929 . S
C1327 C1325 1.433 . S
C1327 N1330 1.384 . S
C1328 H1319 0.929 . S
C1328 C1320 1.378 . S
C1328 C1323 1.350 . S
C1329 H1316 0.929 . S
C1329 C1321 1.432 1_455 S
C1329 N1331 1.384 1_455 S
N1330 C1326 1.427 . S
N1330 C1327 1.384 . S
N1331 C1323 1.427 . S
N1331 C1329 1.384 1_655 S
H1332 C1338 0.930 . S
H1333 C1342 0.930 . S
H1334 C1347 0.929 . S
H1335 C1345 0.929 . S
H1336 C1340 0.929 . S
H1337 C1346 0.929 . S
C1338 H1332 0.930 . S
C1338 C1339 1.367 . S
C1338 C1346 1.378 . S
C1339 C1338 1.367 . S
C1339 C1347 1.433 . S
C1340 H1336 0.929 . S
C1340 C1342 1.378 . S
C1340 C1344 1.350 . S
C1341 C1344 1.463 . S
C1341 C1346 1.350 . S
C1341 N1349 1.427 . S
C1342 H1333 0.930 . S
C1342 C1340 1.378 . S
C1342 C1343 1.367 . S
C1343 C1342 1.367 . S
C1343 C1345 1.433 . S
C1344 C1340 1.350 . S
C1344 C1341 1.463 . S
C1344 N1348 1.427 . S
C1345 H1335 0.929 . S
C1345 C1343 1.433 . S
C1345 N1348 1.384 . S
C1346 H1337 0.929 . S
C1346 C1338 1.378 . S
C1346 C1341 1.350 . S
C1347 H1334 0.929 . S
C1347 C1339 1.433 . S
C1347 N1349 1.384 . S
N1348 C1344 1.427 . S
N1348 C1345 1.384 . S
N1349 C1341 1.427 . S
N1349 C1347 1.384 . S
H1350 C1356 0.930 . S
H1351 C1360 0.930 . S
H1352 C1365 0.929 . S
H1353 C1363 0.929 . S
H1354 C1358 0.929 . S
H1355 C1364 0.929 . S
C1356 H1350 0.930 . S
C1356 C1357 1.367 . S
C1356 C1364 1.378 . S
C1357 C1356 1.367 . S
C1357 C1365 1.433 . S
C1358 H1354 0.929 . S
C1358 C1360 1.378 . S
C1358 C1362 1.350 . S
C1359 C1362 1.463 . S
C1359 C1364 1.350 . S
C1359 N1367 1.427 . S
C1360 H1351 0.930 . S
C1360 C1358 1.378 . S
C1360 C1361 1.367 . S
C1361 C1360 1.367 . S
C1361 C1363 1.433 . S
C1362 C1358 1.350 . S
C1362 C1359 1.463 . S
C1362 N1366 1.427 . S
C1363 H1353 0.929 . S
C1363 C1361 1.433 . S
C1363 N1366 1.384 . S
C1364 H1355 0.929 . S
C1364 C1356 1.378 . S
C1364 C1359 1.350 . S
C1365 H1352 0.929 . S
C1365 C1357 1.433 . S
C1365 N1367 1.384 . S
N1366 C1362 1.427 . S
N1366 C1363 1.384 . S
N1367 C1359 1.427 . S
N1367 C1365 1.384 . S
H1368 C1374 0.930 . S
H1369 C1378 0.930 . S
H1370 C1383 0.929 . S
H1371 C1381 0.929 . S
H1372 C1376 0.929 . S
H1373 C1382 0.929 . S
C1374 H1368 0.930 . S
C1374 C1375 1.367 . S
C1374 C1382 1.378 . S
C1375 C1374 1.367 . S
C1375 C1383 1.433 . S
C1376 H1372 0.929 . S
C1376 C1378 1.378 . S
C1376 C1380 1.350 . S
C1377 C1380 1.463 . S
C1377 C1382 1.350 . S
C1377 N1385 1.427 . S
C1378 H1369 0.930 . S
C1378 C1376 1.378 . S
C1378 C1379 1.367 . S
C1379 C1378 1.367 . S
C1379 C1381 1.433 . S
C1380 C1376 1.350 . S
C1380 C1377 1.463 . S
C1380 N1384 1.427 . S
C1381 H1371 0.929 . S
C1381 C1379 1.433 . S
C1381 N1384 1.384 . S
C1382 H1373 0.929 . S
C1382 C1374 1.378 . S
C1382 C1377 1.350 . S
C1383 H1370 0.929 . S
C1383 C1375 1.433 . S
C1383 N1385 1.384 . S
N1384 C1380 1.427 . S
N1384 C1381 1.384 . S
N1385 C1377 1.427 . S
N1385 C1383 1.384 . S
H1386 C1392 0.930 . S
H1387 C1396 0.930 . S
H1388 C1401 0.929 . S
H1389 C1399 0.929 . S
H1390 C1394 0.929 . S
H1391 C1400 0.929 . S
C1392 H1386 0.930 . S
C1392 C1393 1.367 . S
C1392 C1400 1.378 . S
C1393 C1392 1.367 . S
C1393 C1401 1.433 . S
C1394 H1390 0.929 . S
C1394 C1396 1.378 . S
C1394 C1398 1.350 . S
C1395 C1398 1.463 . S
C1395 C1400 1.350 . S
C1395 N1403 1.427 . S
C1396 H1387 0.930 . S
C1396 C1394 1.378 . S
C1396 C1397 1.367 . S
C1397 C1396 1.367 . S
C1397 C1399 1.433 . S
C1398 C1394 1.350 . S
C1398 C1395 1.463 . S
C1398 N1402 1.427 . S
C1399 H1389 0.929 . S
C1399 C1397 1.433 . S
C1399 N1402 1.384 . S
C1400 H1391 0.929 . S
C1400 C1392 1.378 . S
C1400 C1395 1.350 . S
C1401 H1388 0.929 . S
C1401 C1393 1.433 . S
C1401 N1403 1.384 . S
N1402 C1398 1.427 . S
N1402 C1399 1.384 . S
N1403 C1395 1.427 . S
N1403 C1401 1.384 . S
H1404 C1410 0.930 . S
H1405 C1414 0.930 . S
H1406 C1419 0.929 . S
H1407 C1417 0.929 . S
H1408 C1412 0.929 . S
H1409 C1418 0.929 . S
C1410 H1404 0.930 . S
C1410 C1411 1.367 . S
C1410 C1418 1.378 . S
C1411 C1410 1.367 . S
C1411 C1419 1.433 . S
C1412 H1408 0.929 . S
C1412 C1414 1.378 . S
C1412 C1416 1.350 . S
C1413 C1416 1.463 . S
C1413 C1418 1.350 . S
C1413 N1421 1.427 . S
C1414 H1405 0.930 . S
C1414 C1412 1.378 . S
C1414 C1415 1.367 . S
C1415 C1414 1.367 . S
C1415 C1417 1.433 . S
C1416 C1412 1.350 . S
C1416 C1413 1.463 . S
C1416 N1420 1.427 . S
C1417 H1407 0.929 . S
C1417 C1415 1.433 . S
C1417 N1420 1.384 . S
C1418 H1409 0.929 . S
C1418 C1410 1.378 . S
C1418 C1413 1.350 . S
C1419 H1406 0.929 . S
C1419 C1411 1.433 . S
C1419 N1421 1.384 . S
N1420 C1416 1.427 . S
N1420 C1417 1.384 . S
N1421 C1413 1.427 . S
N1421 C1419 1.384 . S
H1422 C1428 0.930 . S
H1423 C1432 0.930 1_455 S
H1424 C1437 0.929 . S
H1425 C1435 0.929 . S
H1426 C1430 0.929 . S
H1427 C1436 0.929 . S
C1428 H1422 0.930 . S
C1428 C1429 1.367 . S
C1428 C1436 1.378 . S
C1429 C1428 1.367 . S
C1429 C1437 1.433 . S
C1430 H1426 0.929 . S
C1430 C1432 1.378 . S
C1430 C1434 1.350 . S
C1431 C1434 1.463 . S
C1431 C1436 1.350 . S
C1431 N1439 1.427 . S
C1432 H1423 0.930 1_655 S
C1432 C1430 1.378 . S
C1432 C1433 1.368 1_655 S
C1433 C1432 1.368 1_455 S
C1433 C1435 1.436 1_455 S
C1434 C1430 1.350 . S
C1434 C1431 1.463 . S
C1434 N1438 1.427 . S
C1435 H1425 0.929 . S
C1435 C1433 1.436 1_655 S
C1435 N1438 1.384 . S
C1436 H1427 0.929 . S
C1436 C1428 1.378 . S
C1436 C1431 1.350 . S
C1437 H1424 0.929 . S
C1437 C1429 1.433 . S
C1437 N1439 1.384 . S
N1438 C1434 1.427 . S
N1438 C1435 1.384 . S
N1439 C1431 1.427 . S
N1439 C1437 1.384 . S
H1440 C1446 0.930 . S
H1441 C1450 0.930 . S
H1442 C1455 0.929 . S
H1443 C1453 0.929 . S
H1444 C1448 0.929 . S
H1445 C1454 0.929 . S
C1446 H1440 0.930 . S
C1446 C1447 1.367 . S
C1446 C1454 1.378 . S
C1447 C1446 1.367 . S
C1447 C1455 1.433 . S
C1448 H1444 0.929 . S
C1448 C1450 1.378 . S
C1448 C1452 1.350 . S
C1449 C1452 1.463 . S
C1449 C1454 1.350 . S
C1449 N1457 1.427 . S
C1450 H1441 0.930 . S
C1450 C1448 1.378 . S
C1450 C1451 1.367 . S
C1451 C1450 1.367 . S
C1451 C1453 1.433 . S
C1452 C1448 1.350 . S
C1452 C1449 1.463 . S
C1452 N1456 1.427 . S
C1453 H1443 0.929 . S
C1453 C1451 1.433 . S
C1453 N1456 1.384 . S
C1454 H1445 0.929 . S
C1454 C1446 1.378 . S
C1454 C1449 1.350 . S
C1455 H1442 0.929 . S
C1455 C1447 1.433 . S
C1455 N1457 1.384 . S
N1456 C1452 1.427 . S
N1456 C1453 1.384 . S
N1457 C1449 1.427 . S
N1457 C1455 1.384 . S
H1458 C1464 0.930 . S
H1459 C1468 0.930 . S
H1460 C1473 0.929 . S
H1461 C1471 0.929 . S
H1462 C1466 0.929 . S
H1463 C1472 0.929 . S
C1464 H1458 0.930 . S
C1464 C1465 1.367 . S
C1464 C1472 1.378 . S
C1465 C1464 1.367 . S
C1465 C1473 1.433 . S
C1466 H1462 0.929 . S
C1466 C1468 1.378 . S
C1466 C1470 1.350 . S
C1467 C1470 1.463 . S
C1467 C1472 1.350 . S
C1467 N1475 1.427 . S
C1468 H1459 0.930 . S
C1468 C1466 1.378 . S
C1468 C1469 1.367 . S
C1469 C1468 1.367 . S
C1469 C1471 1.433 . S
C1470 C1466 1.350 . S
C1470 C1467 1.463 . S
C1470 N1474 1.427 . S
C1471 H1461 0.929 . S
C1471 C1469 1.433 . S
C1471 N1474 1.384 . S
C1472 H1463 0.929 . S
C1472 C1464 1.378 . S
C1472 C1467 1.350 . S
C1473 H1460 0.929 . S
C1473 C1465 1.433 . S
C1473 N1475 1.384 . S
N1474 C1470 1.427 . S
N1474 C1471 1.384 . S
N1475 C1467 1.427 . S
N1475 C1473 1.384 . S
H1476 C1482 0.930 . S
H1477 C1486 0.930 . S
H1478 C1491 0.929 . S
H1479 C1489 0.929 . S
H1480 C1484 0.929 . S
H1481 C1490 0.929 . S
C1482 H1476 0.930 . S
C1482 C1483 1.367 . S
C1482 C1490 1.378 . S
C1483 C1482 1.367 . S
C1483 C1491 1.433 . S
C1484 H1480 0.929 . S
C1484 C1486 1.378 . S
C1484 C1488 1.350 . S
C1485 C1488 1.463 . S
C1485 C1490 1.350 . S
C1485 N1493 1.427 . S
C1486 H1477 0.930 . S
C1486 C1484 1.378 . S
C1486 C1487 1.367 . S
C1487 C1486 1.367 . S
C1487 C1489 1.433 . S
C1488 C1484 1.350 . S
C1488 C1485 1.463 . S
C1488 N1492 1.427 . S
C1489 H1479 0.929 . S
C1489 C1487 1.433 . S
C1489 N1492 1.384 . S
C1490 H1481 0.929 . S
C1490 C1482 1.378 . S
C1490 C1485 1.350 . S
C1491 H1478 0.929 . S
C1491 C1483 1.433 . S
C1491 N1493 1.384 . S
N1492 C1488 1.427 . S
N1492 C1489 1.384 . S
N1493 C1485 1.427 . S
N1493 C1491 1.384 . S
H1494 C1500 0.930 . S
H1495 C1504 0.930 . S
H1496 C1509 0.929 . S
H1497 C1507 0.929 1_455 S
H1498 C1502 0.929 . S
H1499 C1508 0.929 . S
C1500 H1494 0.930 . S
C1500 C1501 1.367 . S
C1500 C1508 1.378 . S
C1501 C1500 1.367 . S
C1501 C1509 1.433 . S
C1502 H1498 0.929 . S
C1502 C1504 1.378 . S
C1502 C1506 1.350 . S
C1503 C1506 1.463 . S
C1503 C1508 1.350 . S
C1503 N1511 1.427 . S
C1504 H1495 0.930 . S
C1504 C1502 1.378 . S
C1504 C1505 1.367 . S
C1505 C1504 1.367 . S
C1505 C1507 1.433 . S
C1506 C1502 1.350 . S
C1506 C1503 1.463 . S
C1506 N1510 1.427 . S
C1507 H1497 0.929 1_655 S
C1507 C1505 1.433 . S
C1507 N1510 1.384 . S
C1508 H1499 0.929 . S
C1508 C1500 1.378 . S
C1508 C1503 1.350 . S
C1509 H1496 0.929 . S
C1509 C1501 1.433 . S
C1509 N1511 1.384 . S
N1510 C1506 1.427 . S
N1510 C1507 1.384 . S
N1511 C1503 1.427 . S
N1511 C1509 1.384 . S
H1512 C1518 0.930 . S
H1513 C1522 0.930 . S
H1514 C1527 0.929 . S
H1515 C1525 0.929 . S
H1516 C1520 0.929 . S
H1517 C1526 0.929 . S
C1518 H1512 0.930 . S
C1518 C1519 1.367 . S
C1518 C1526 1.378 . S
C1519 C1518 1.367 . S
C1519 C1527 1.433 . S
C1520 H1516 0.929 . S
C1520 C1522 1.378 . S
C1520 C1524 1.350 . S
C1521 C1524 1.463 . S
C1521 C1526 1.350 . S
C1521 N1529 1.427 . S
C1522 H1513 0.930 . S
C1522 C1520 1.378 . S
C1522 C1523 1.367 . S
C1523 C1522 1.367 . S
C1523 C1525 1.433 . S
C1524 C1520 1.350 . S
C1524 C1521 1.463 . S
C1524 N1528 1.427 . S
C1525 H1515 0.929 . S
C1525 C1523 1.433 . S
C1525 N1528 1.384 . S
C1526 H1517 0.929 . S
C1526 C1518 1.378 . S
C1526 C1521 1.350 . S
C1527 H1514 0.929 . S
C1527 C1519 1.433 . S
C1527 N1529 1.384 . S
N1528 C1524 1.427 . S
N1528 C1525 1.384 . S
N1529 C1521 1.427 . S
N1529 C1527 1.384 . S
H1530 C1536 0.930 . S
H1531 C1540 0.930 . S
H1532 C1545 0.929 . S
H1533 C1543 0.929 . S
H1534 C1538 0.929 . S
H1535 C1544 0.929 . S
C1536 H1530 0.930 . S
C1536 C1537 1.367 . S
C1536 C1544 1.378 . S
C1537 C1536 1.367 . S
C1537 C1545 1.433 . S
C1538 H1534 0.929 . S
C1538 C1540 1.378 . S
C1538 C1542 1.350 . S
C1539 C1542 1.463 . S
C1539 C1544 1.350 . S
C1539 N1547 1.427 . S
C1540 H1531 0.930 . S
C1540 C1538 1.378 . S
C1540 C1541 1.367 . S
C1541 C1540 1.367 . S
C1541 C1543 1.433 . S
C1542 C1538 1.350 . S
C1542 C1539 1.463 . S
C1542 N1546 1.427 . S
C1543 H1533 0.929 . S
C1543 C1541 1.433 . S
C1543 N1546 1.384 . S
C1544 H1535 0.929 . S
C1544 C1536 1.378 . S
C1544 C1539 1.350 . S
C1545 H1532 0.929 . S
C1545 C1537 1.433 . S
C1545 N1547 1.384 . S
N1546 C1542 1.427 . S
N1546 C1543 1.384 . S
N1547 C1539 1.427 . S
N1547 C1545 1.384 . S
H1548 C1554 0.930 . S
H1549 C1558 0.930 . S
H1550 C1563 0.929 . S
H1551 C1561 0.929 . S
H1552 C1556 0.929 . S
H1553 C1562 0.929 . S
C1554 H1548 0.930 . S
C1554 C1555 1.367 . S
C1554 C1562 1.378 . S
C1555 C1554 1.367 . S
C1555 C1563 1.433 . S
C1556 H1552 0.929 . S
C1556 C1558 1.378 . S
C1556 C1560 1.350 . S
C1557 C1560 1.463 . S
C1557 C1562 1.350 . S
C1557 N1565 1.427 . S
C1558 H1549 0.930 . S
C1558 C1556 1.378 . S
C1558 C1559 1.367 . S
C1559 C1558 1.367 . S
C1559 C1561 1.433 . S
C1560 C1556 1.350 . S
C1560 C1557 1.463 . S
C1560 N1564 1.427 . S
C1561 H1551 0.929 . S
C1561 C1559 1.433 . S
C1561 N1564 1.384 . S
C1562 H1553 0.929 . S
C1562 C1554 1.378 . S
C1562 C1557 1.350 . S
C1563 H1550 0.929 . S
C1563 C1555 1.433 . S
C1563 N1565 1.384 . S
N1564 C1560 1.427 . S
N1564 C1561 1.384 . S
N1565 C1557 1.427 . S
N1565 C1563 1.384 . S
H1566 C1572 0.930 . S
H1567 C1576 0.930 . S
H1568 C1581 0.929 . S
H1569 C1579 0.929 . S
H1570 C1574 0.929 . S
H1571 C1580 0.929 . S
C1572 H1566 0.930 . S
C1572 C1573 1.367 . S
C1572 C1580 1.378 . S
C1573 C1572 1.367 . S
C1573 C1581 1.433 . S
C1574 H1570 0.929 . S
C1574 C1576 1.378 . S
C1574 C1578 1.350 . S
C1575 C1578 1.463 . S
C1575 C1580 1.350 . S
C1575 N1583 1.427 . S
C1576 H1567 0.930 . S
C1576 C1574 1.378 . S
C1576 C1577 1.367 . S
C1577 C1576 1.367 . S
C1577 C1579 1.433 . S
C1578 C1574 1.350 . S
C1578 C1575 1.463 . S
C1578 N1582 1.427 . S
C1579 H1569 0.929 . S
C1579 C1577 1.433 . S
C1579 N1582 1.384 . S
C1580 H1571 0.929 . S
C1580 C1572 1.378 . S
C1580 C1575 1.350 . S
C1581 H1568 0.929 . S
C1581 C1573 1.433 . S
C1581 N1583 1.384 . S
N1582 C1578 1.427 . S
N1582 C1579 1.384 . S
N1583 C1575 1.427 . S
N1583 C1581 1.384 . S
H1584 C1590 0.930 . S
H1585 C1594 0.930 . S
H1586 C1599 0.929 . S
H1587 C1597 0.929 . S
H1588 C1592 0.929 . S
H1589 C1598 0.929 . S
C1590 H1584 0.930 . S
C1590 C1591 1.367 . S
C1590 C1598 1.378 . S
C1591 C1590 1.367 . S
C1591 C1599 1.433 . S
C1592 H1588 0.929 . S
C1592 C1594 1.378 . S
C1592 C1596 1.350 . S
C1593 C1596 1.463 . S
C1593 C1598 1.350 . S
C1593 N1601 1.427 . S
C1594 H1585 0.930 . S
C1594 C1592 1.378 . S
C1594 C1595 1.367 . S
C1595 C1594 1.367 . S
C1595 C1597 1.433 . S
C1596 C1592 1.350 . S
C1596 C1593 1.463 . S
C1596 N1600 1.427 . S
C1597 H1587 0.929 . S
C1597 C1595 1.433 . S
C1597 N1600 1.384 . S
C1598 H1589 0.929 . S
C1598 C1590 1.378 . S
C1598 C1593 1.350 . S
C1599 H1586 0.929 . S
C1599 C1591 1.433 . S
C1599 N1601 1.384 . S
N1600 C1596 1.427 . S
N1600 C1597 1.384 . S
N1601 C1593 1.427 . S
N1601 C1599 1.384 . S
H1602 C1608 0.930 . S
H1603 C1612 0.930 . S
H1604 C1617 0.929 . S
H1605 C1615 0.929 . S
H1606 C1610 0.929 . S
H1607 C1616 0.929 . S
C1608 H1602 0.930 . S
C1608 C1609 1.367 . S
C1608 C1616 1.378 . S
C1609 C1608 1.367 . S
C1609 C1617 1.433 . S
C1610 H1606 0.929 . S
C1610 C1612 1.378 . S
C1610 C1614 1.350 . S
C1611 C1614 1.463 . S
C1611 C1616 1.350 . S
C1611 N1619 1.427 . S
C1612 H1603 0.930 . S
C1612 C1610 1.378 . S
C1612 C1613 1.367 . S
C1613 C1612 1.367 . S
C1613 C1615 1.433 . S
C1614 C1610 1.350 . S
C1614 C1611 1.463 . S
C1614 N1618 1.427 . S
C1615 H1605 0.929 . S
C1615 C1613 1.433 . S
C1615 N1618 1.384 . S
C1616 H1607 0.929 . S
C1616 C1608 1.378 . S
C1616 C1611 1.350 . S
C1617 H1604 0.929 . S
C1617 C1609 1.433 . S
C1617 N1619 1.384 . S
N1618 C1614 1.427 . S
N1618 C1615 1.384 . S
N1619 C1611 1.427 . S
N1619 C1617 1.384 . S
H1620 C1626 0.930 . S
H1621 C1630 0.930 . S
H1622 C1635 0.929 . S
H1623 C1633 0.929 . S
H1624 C1628 0.929 . S
H1625 C1634 0.929 . S
C1626 H1620 0.930 . S
C1626 C1627 1.367 . S
C1626 C1634 1.378 . S
C1627 C1626 1.367 . S
C1627 C1635 1.433 . S
C1628 H1624 0.929 . S
C1628 C1630 1.378 . S
C1628 C1632 1.350 . S
C1629 C1632 1.463 . S
C1629 C1634 1.350 . S
C1629 N1637 1.427 . S
C1630 H1621 0.930 . S
C1630 C1628 1.378 . S
C1630 C1631 1.367 . S
C1631 C1630 1.367 . S
C1631 C1633 1.433 . S
C1632 C1628 1.350 . S
C1632 C1629 1.463 . S
C1632 N1636 1.427 . S
C1633 H1623 0.929 . S
C1633 C1631 1.433 . S
C1633 N1636 1.384 . S
C1634 H1625 0.929 . S
C1634 C1626 1.378 . S
C1634 C1629 1.350 . S
C1635 H1622 0.929 . S
C1635 C1627 1.433 . S
C1635 N1637 1.384 . S
N1636 C1632 1.427 . S
N1636 C1633 1.384 . S
N1637 C1629 1.427 . S
N1637 C1635 1.384 . S
H1638 C1644 0.930 . S
H1639 C1648 0.930 . S
H1640 C1653 0.929 . S
H1641 C1651 0.929 . S
H1642 C1646 0.929 . S
H1643 C1652 0.929 . S
C1644 H1638 0.930 . S
C1644 C1645 1.377 . S
C1644 C1652 1.378 . S
C1645 C1644 1.377 . S
C1645 C1653 1.433 1_455 S
C1646 H1642 0.929 . S
C1646 C1648 1.378 . S
C1646 C1650 1.350 . S
C1647 C1650 1.463 . S
C1647 C1652 1.350 . S
C1647 N1655 1.427 . S
C1648 H1639 0.930 . S
C1648 C1646 1.378 . S
C1648 C1649 1.367 . S
C1649 C1648 1.367 . S
C1649 C1651 1.433 . S
C1650 C1646 1.350 . S
C1650 C1647 1.463 . S
C1650 N1654 1.427 . S
C1651 H1641 0.929 . S
C1651 C1649 1.433 . S
C1651 N1654 1.384 . S
C1652 H1643 0.929 . S
C1652 C1644 1.378 . S
C1652 C1647 1.350 . S
C1653 H1640 0.929 . S
C1653 C1645 1.433 1_655 S
C1653 N1655 1.384 1_655 S
N1654 C1650 1.427 . S
N1654 C1651 1.384 . S
N1655 C1647 1.427 . S
N1655 C1653 1.384 1_455 S
H1656 C1662 0.930 . S
H1657 C1666 0.930 . S
H1658 C1671 0.929 . S
H1659 C1669 0.929 . S
H1660 C1664 0.929 . S
H1661 C1670 0.929 . S
C1662 H1656 0.930 . S
C1662 C1663 1.367 . S
C1662 C1670 1.378 . S
C1663 C1662 1.367 . S
C1663 C1671 1.433 . S
C1664 H1660 0.929 . S
C1664 C1666 1.378 . S
C1664 C1668 1.350 . S
C1665 C1668 1.463 . S
C1665 C1670 1.350 . S
C1665 N1673 1.427 . S
C1666 H1657 0.930 . S
C1666 C1664 1.378 . S
C1666 C1667 1.367 . S
C1667 C1666 1.367 . S
C1667 C1669 1.433 . S
C1668 C1664 1.350 . S
C1668 C1665 1.463 . S
C1668 N1672 1.427 . S
C1669 H1659 0.929 . S
C1669 C1667 1.433 . S
C1669 N1672 1.384 . S
C1670 H1661 0.929 . S
C1670 C1662 1.378 . S
C1670 C1665 1.350 . S
C1671 H1658 0.929 . S
C1671 C1663 1.433 . S
C1671 N1673 1.384 . S
N1672 C1668 1.427 . S
N1672 C1669 1.384 . S
N1673 C1665 1.427 . S
N1673 C1671 1.384 . S
H1674 C1680 0.930 . S
H1675 C1684 0.930 . S
H1676 C1689 0.929 1_655 S
H1677 C1687 0.929 . S
H1678 C1682 0.929 . S
H1679 C1688 0.929 . S
C1680 H1674 0.930 . S
C1680 C1681 1.373 . S
C1680 C1688 1.378 . S
C1681 C1680 1.373 . S
C1681 C1689 1.434 . S
C1682 H1678 0.929 . S
C1682 C1684 1.378 . S
C1682 C1686 1.350 . S
C1683 C1686 1.463 . S
C1683 C1688 1.350 . S
C1683 N1691 1.427 . S
C1684 H1675 0.930 . S
C1684 C1682 1.378 . S
C1684 C1685 1.367 . S
C1685 C1684 1.367 . S
C1685 C1687 1.433 . S
C1686 C1682 1.350 . S
C1686 C1683 1.463 . S
C1686 N1690 1.427 . S
C1687 H1677 0.929 . S
C1687 C1685 1.433 . S
C1687 N1690 1.384 . S
C1688 H1679 0.929 . S
C1688 C1680 1.378 . S
C1688 C1683 1.350 . S
C1689 H1676 0.929 1_455 S
C1689 C1681 1.434 . S
C1689 N1691 1.384 . S
N1690 C1686 1.427 . S
N1690 C1687 1.384 . S
N1691 C1683 1.427 . S
N1691 C1689 1.384 . S
H1692 C1698 0.930 . S
H1693 C1702 0.930 . S
H1694 C1707 0.929 . S
H1695 C1705 0.929 . S
H1696 C1700 0.929 . S
H1697 C1706 0.929 . S
C1698 H1692 0.930 . S
C1698 C1699 1.367 . S
C1698 C1706 1.378 . S
C1699 C1698 1.367 . S
C1699 C1707 1.433 . S
C1700 H1696 0.929 . S
C1700 C1702 1.378 . S
C1700 C1704 1.350 . S
C1701 C1704 1.463 . S
C1701 C1706 1.350 . S
C1701 N1709 1.427 . S
C1702 H1693 0.930 . S
C1702 C1700 1.378 . S
C1702 C1703 1.367 . S
C1703 C1702 1.367 . S
C1703 C1705 1.433 . S
C1704 C1700 1.350 . S
C1704 C1701 1.463 . S
C1704 N1708 1.427 . S
C1705 H1695 0.929 . S
C1705 C1703 1.433 . S
C1705 N1708 1.384 . S
C1706 H1697 0.929 . S
C1706 C1698 1.378 . S
C1706 C1701 1.350 . S
C1707 H1694 0.929 . S
C1707 C1699 1.433 . S
C1707 N1709 1.384 . S
N1708 C1704 1.427 . S
N1708 C1705 1.384 . S
N1709 C1701 1.427 . S
N1709 C1707 1.384 . S
H1710 C1716 0.930 . S
H1711 C1720 0.930 . S
H1712 C1725 0.929 . S
H1713 C1723 0.929 . S
H1714 C1718 0.929 . S
H1715 C1724 0.929 . S
C1716 H1710 0.930 . S
C1716 C1717 1.367 . S
C1716 C1724 1.378 . S
C1717 C1716 1.367 . S
C1717 C1725 1.433 . S
C1718 H1714 0.929 . S
C1718 C1720 1.378 . S
C1718 C1722 1.350 . S
C1719 C1722 1.463 . S
C1719 C1724 1.350 . S
C1719 N1727 1.427 . S
C1720 H1711 0.930 . S
C1720 C1718 1.378 . S
C1720 C1721 1.367 . S
C1721 C1720 1.367 . S
C1721 C1723 1.433 . S
C1722 C1718 1.350 . S
C1722 C1719 1.463 . S
C1722 N1726 1.427 . S
C1723 H1713 0.929 . S
C1723 C1721 1.433 . S
C1723 N1726 1.384 . S
C1724 H1715 0.929 . S
C1724 C1716 1.378 . S
C1724 C1719 1.350 . S
C1725 H1712 0.929 . S
C1725 C1717 1.433 . S
C1725 N1727 1.384 . S
N1726 C1722 1.427 . S
N1726 C1723 1.384 . S
N1727 C1719 1.427 . S
N1727 C1725 1.384 . S
H1728 C1734 0.930 . S
H1729 C1738 0.930 . S
H1730 C1743 0.929 . S
H1731 C1741 0.929 . S
H1732 C1736 0.929 . S
H1733 C1742 0.929 . S
C1734 H1728 0.930 . S
C1734 C1735 1.367 . S
C1734 C1742 1.378 . S
C1735 C1734 1.367 . S
C1735 C1743 1.433 . S
C1736 H1732 0.929 . S
C1736 C1738 1.378 . S
C1736 C1740 1.350 . S
C1737 C1740 1.463 . S
C1737 C1742 1.350 . S
C1737 N1745 1.427 . S
C1738 H1729 0.930 . S
C1738 C1736 1.378 . S
C1738 C1739 1.367 . S
C1739 C1738 1.367 . S
C1739 C1741 1.433 . S
C1740 C1736 1.350 . S
C1740 C1737 1.463 . S
C1740 N1744 1.427 . S
C1741 H1731 0.929 . S
C1741 C1739 1.433 . S
C1741 N1744 1.384 . S
C1742 H1733 0.929 . S
C1742 C1734 1.378 . S
C1742 C1737 1.350 . S
C1743 H1730 0.929 . S
C1743 C1735 1.433 . S
C1743 N1745 1.384 . S
N1744 C1740 1.427 . S
N1744 C1741 1.384 . S
N1745 C1737 1.427 . S
N1745 C1743 1.384 . S
H1746 C1752 0.930 . S
H1747 C1756 0.930 . S
H1748 C1761 0.928 1_455 S
H1749 C1759 0.929 . S
H1750 C1754 0.929 1_565 S
H1751 C1760 0.928 . S
C1752 H1746 0.930 . S
C1752 C1753 1.367 . S
C1752 C1760 1.378 . S
C1753 C1752 1.367 . S
C1753 C1761 1.433 . S
C1754 H1750 0.929 1_545 S
C1754 C1756 1.378 . S
C1754 C1758 1.350 . S
C1755 C1758 1.463 1_665 S
C1755 C1760 1.350 . S
C1755 N1763 1.427 1_655 S
C1756 H1747 0.930 . S
C1756 C1754 1.378 . S
C1756 C1757 1.367 . S
C1757 C1756 1.367 . S
C1757 C1759 1.433 . S
C1758 C1754 1.350 . S
C1758 C1755 1.463 1_445 S
C1758 N1762 1.427 . S
C1759 H1749 0.929 . S
C1759 C1757 1.433 . S
C1759 N1762 1.384 . S
C1760 H1751 0.928 . S
C1760 C1752 1.378 . S
C1760 C1755 1.350 . S
C1761 H1748 0.928 1_655 S
C1761 C1753 1.433 . S
C1761 N1763 1.384 1_655 S
N1762 C1758 1.427 . S
N1762 C1759 1.384 . S
N1763 C1755 1.427 1_455 S
N1763 C1761 1.384 1_455 S
H1764 C1770 0.930 . S
H1765 C1774 0.930 . S
H1766 C1779 0.929 . S
H1767 C1777 0.929 . S
H1768 C1772 0.929 . S
H1769 C1778 0.929 . S
C1770 H1764 0.930 . S
C1770 C1771 1.367 . S
C1770 C1778 1.378 . S
C1771 C1770 1.367 . S
C1771 C1779 1.433 . S
C1772 H1768 0.929 . S
C1772 C1774 1.378 . S
C1772 C1776 1.350 . S
C1773 C1776 1.463 . S
C1773 C1778 1.350 . S
C1773 N1781 1.427 . S
C1774 H1765 0.930 . S
C1774 C1772 1.378 . S
C1774 C1775 1.367 . S
C1775 C1774 1.367 . S
C1775 C1777 1.433 . S
C1776 C1772 1.350 . S
C1776 C1773 1.463 . S
C1776 N1780 1.427 . S
C1777 H1767 0.929 . S
C1777 C1775 1.433 . S
C1777 N1780 1.384 . S
C1778 H1769 0.929 . S
C1778 C1770 1.378 . S
C1778 C1773 1.350 . S
C1779 H1766 0.929 . S
C1779 C1771 1.433 . S
C1779 N1781 1.384 . S
N1780 C1776 1.427 . S
N1780 C1777 1.384 . S
N1781 C1773 1.427 . S
N1781 C1779 1.384 . S
H1782 C1788 0.930 . S
H1783 C1792 0.922 1_554 S
H1784 C1797 0.929 . S
H1785 C1795 0.929 . S
H1786 C1790 0.908 1_545 S
H1787 C1796 0.929 . S
C1788 H1782 0.930 . S
C1788 C1789 1.367 1_556 S
C1788 C1796 1.378 . S
C1789 C1788 1.367 1_554 S
C1789 C1797 1.433 . S
C1790 H1786 0.908 1_565 S
C1790 C1792 1.378 1_554 S
C1790 C1794 1.350 1_554 S
C1791 C1794 1.460 1_544 S
C1791 C1796 1.346 1_554 S
C1791 N1799 1.434 . S
C1792 H1783 0.922 1_556 S
C1792 C1790 1.378 1_556 S
C1792 C1793 1.367 . S
C1793 C1792 1.367 . S
C1793 C1795 1.433 . S
C1794 C1790 1.350 1_556 S
C1794 C1791 1.460 1_566 S
C1794 N1798 1.427 . S
C1795 H1785 0.929 . S
C1795 C1793 1.433 . S
C1795 N1798 1.384 . S
C1796 H1787 0.929 . S
C1796 C1788 1.378 . S
C1796 C1791 1.346 1_556 S
C1797 H1784 0.929 . S
C1797 C1789 1.433 . S
C1797 N1799 1.384 . S
N1798 C1794 1.427 . S
N1798 C1795 1.384 . S
N1799 C1791 1.434 . S
N1799 C1797 1.384 . S
H1800 C1806 0.930 . S
H1801 C1810 0.930 . S
H1802 C1815 0.929 . S
H1803 C1813 0.929 . S
H1804 C1808 0.929 . S
H1805 C1814 0.929 . S
C1806 H1800 0.930 . S
C1806 C1807 1.367 . S
C1806 C1814 1.378 . S
C1807 C1806 1.367 . S
C1807 C1815 1.433 . S
C1808 H1804 0.929 . S
C1808 C1810 1.378 . S
C1808 C1812 1.350 . S
C1809 C1812 1.463 . S
C1809 C1814 1.350 . S
C1809 N1817 1.427 . S
C1810 H1801 0.930 . S
C1810 C1808 1.378 . S
C1810 C1811 1.367 . S
C1811 C1810 1.367 . S
C1811 C1813 1.433 . S
C1812 C1808 1.350 . S
C1812 C1809 1.463 . S
C1812 N1816 1.427 . S
C1813 H1803 0.929 . S
C1813 C1811 1.433 . S
C1813 N1816 1.384 . S
C1814 H1805 0.929 . S
C1814 C1806 1.378 . S
C1814 C1809 1.350 . S
C1815 H1802 0.929 . S
C1815 C1807 1.433 . S
C1815 N1817 1.384 . S
N1816 C1812 1.427 . S
N1816 C1813 1.384 . S
N1817 C1809 1.427 . S
N1817 C1815 1.384 . S
H1818 C1824 0.930 . S
H1819 C1828 0.930 . S
H1820 C1833 0.929 . S
H1821 C1831 0.929 . S
H1822 C1826 0.929 1_565 S
H1823 C1832 0.929 1_545 S
C1824 H1818 0.930 . S
C1824 C1825 1.367 . S
C1824 C1832 1.378 . S
C1825 C1824 1.367 . S
C1825 C1833 1.433 . S
C1826 H1822 0.929 1_545 S
C1826 C1828 1.378 . S
C1826 C1830 1.350 . S
C1827 C1830 1.463 1_565 S
C1827 C1832 1.350 . S
C1827 N1835 1.427 . S
C1828 H1819 0.930 . S
C1828 C1826 1.378 . S
C1828 C1829 1.367 . S
C1829 C1828 1.367 . S
C1829 C1831 1.433 . S
C1830 C1826 1.350 . S
C1830 C1827 1.463 1_545 S
C1830 N1834 1.427 . S
C1831 H1821 0.929 . S
C1831 C1829 1.433 . S
C1831 N1834 1.384 . S
C1832 H1823 0.929 1_565 S
C1832 C1824 1.378 . S
C1832 C1827 1.350 . S
C1833 H1820 0.929 . S
C1833 C1825 1.433 . S
C1833 N1835 1.384 . S
N1834 C1830 1.427 . S
N1834 C1831 1.384 . S
N1835 C1827 1.427 . S
N1835 C1833 1.384 . S
H1836 C1842 0.930 . S
H1837 C1846 0.930 . S
H1838 C1851 0.929 . S
H1839 C1849 0.929 . S
H1840 C1844 0.929 . S
H1841 C1850 0.929 . S
C1842 H1836 0.930 . S
C1842 C1843 1.367 . S
C1842 C1850 1.378 . S
C1843 C1842 1.367 . S
C1843 C1851 1.433 . S
C1844 H1840 0.929 . S
C1844 C1846 1.378 . S
C1844 C1848 1.350 . S
C1845 C1848 1.463 . S
C1845 C1850 1.350 . S
C1845 N1853 1.427 . S
C1846 H1837 0.930 . S
C1846 C1844 1.378 . S
C1846 C1847 1.367 . S
C1847 C1846 1.367 . S
C1847 C1849 1.433 . S
C1848 C1844 1.350 . S
C1848 C1845 1.463 . S
C1848 N1852 1.427 . S
C1849 H1839 0.929 . S
C1849 C1847 1.433 . S
C1849 N1852 1.384 . S
C1850 H1841 0.929 . S
C1850 C1842 1.378 . S
C1850 C1845 1.350 . S
C1851 H1838 0.929 . S
C1851 C1843 1.433 . S
C1851 N1853 1.384 . S
N1852 C1848 1.427 . S
N1852 C1849 1.384 . S
N1853 C1845 1.427 . S
N1853 C1851 1.384 . S
H1854 C1860 0.930 . S
H1855 C1864 0.930 . S
H1856 C1869 0.929 . S
H1857 C1867 0.929 . S
H1858 C1862 0.929 1_655 S
H1859 C1868 0.929 . S
C1860 H1854 0.930 . S
C1860 C1861 1.367 . S
C1860 C1868 1.378 1_655 S
C1861 C1860 1.367 . S
C1861 C1869 1.433 1_556 S
C1862 H1858 0.929 1_455 S
C1862 C1864 1.378 . S
C1862 C1866 1.350 . S
C1863 C1866 1.463 1_646 S
C1863 C1868 1.350 1_655 S
C1863 N1871 1.427 1_556 S
C1864 H1855 0.930 . S
C1864 C1862 1.378 . S
C1864 C1865 1.367 . S
C1865 C1864 1.367 . S
C1865 C1867 1.433 1_554 S
C1866 C1862 1.350 . S
C1866 C1863 1.463 1_464 S
C1866 N1870 1.427 1_554 S
C1867 H1857 0.929 . S
C1867 C1865 1.433 1_556 S
C1867 N1870 1.384 . S
C1868 H1859 0.929 . S
C1868 C1860 1.378 1_455 S
C1868 C1863 1.350 1_455 S
C1869 H1856 0.929 . S
C1869 C1861 1.433 1_554 S
C1869 N1871 1.384 . S
N1870 C1866 1.427 1_556 S
N1870 C1867 1.384 . S
N1871 C1863 1.427 1_554 S
N1871 C1869 1.384 . S
H1872 C1878 0.930 . S
H1873 C1882 0.930 . S
H1874 C1887 0.929 . S
H1875 C1885 0.929 . S
H1876 C1880 0.929 . S
H1877 C1886 0.929 . S
C1878 H1872 0.930 . S
C1878 C1879 1.367 . S
C1878 C1886 1.378 . S
C1879 C1878 1.367 . S
C1879 C1887 1.433 . S
C1880 H1876 0.929 . S
C1880 C1882 1.378 . S
C1880 C1884 1.350 . S
C1881 C1884 1.463 . S
C1881 C1886 1.350 . S
C1881 N1889 1.427 . S
C1882 H1873 0.930 . S
C1882 C1880 1.378 . S
C1882 C1883 1.367 . S
C1883 C1882 1.367 . S
C1883 C1885 1.433 . S
C1884 C1880 1.350 . S
C1884 C1881 1.463 . S
C1884 N1888 1.427 . S
C1885 H1875 0.929 . S
C1885 C1883 1.433 . S
C1885 N1888 1.384 . S
C1886 H1877 0.929 . S
C1886 C1878 1.378 . S
C1886 C1881 1.350 . S
C1887 H1874 0.929 . S
C1887 C1879 1.433 . S
C1887 N1889 1.384 . S
N1888 C1884 1.427 . S
N1888 C1885 1.384 . S
N1889 C1881 1.427 . S
N1889 C1887 1.384 . S
H1890 C1896 0.930 . S
H1891 C1900 0.930 . S
H1892 C1905 0.929 . S
H1893 C1903 0.929 . S
H1894 C1898 0.929 . S
H1895 C1904 0.929 . S
C1896 H1890 0.930 . S
C1896 C1897 1.367 . S
C1896 C1904 1.378 . S
C1897 C1896 1.367 . S
C1897 C1905 1.433 . S
C1898 H1894 0.929 . S
C1898 C1900 1.378 . S
C1898 C1902 1.350 . S
C1899 C1902 1.463 . S
C1899 C1904 1.350 . S
C1899 N1907 1.427 . S
C1900 H1891 0.930 . S
C1900 C1898 1.378 . S
C1900 C1901 1.367 . S
C1901 C1900 1.367 . S
C1901 C1903 1.433 . S
C1902 C1898 1.350 . S
C1902 C1899 1.463 . S
C1902 N1906 1.427 . S
C1903 H1893 0.929 . S
C1903 C1901 1.433 . S
C1903 N1906 1.384 . S
C1904 H1895 0.929 . S
C1904 C1896 1.378 . S
C1904 C1899 1.350 . S
C1905 H1892 0.929 . S
C1905 C1897 1.433 . S
C1905 N1907 1.384 . S
N1906 C1902 1.427 . S
N1906 C1903 1.384 . S
N1907 C1899 1.427 . S
N1907 C1905 1.384 . S
H1908 C1914 0.930 . S
H1909 C1918 0.930 . S
H1910 C1923 0.929 . S
H1911 C1921 0.929 . S
H1912 C1916 0.929 . S
H1913 C1922 0.929 . S
C1914 H1908 0.930 . S
C1914 C1915 1.367 . S
C1914 C1922 1.378 . S
C1915 C1914 1.367 . S
C1915 C1923 1.433 . S
C1916 H1912 0.929 . S
C1916 C1918 1.378 . S
C1916 C1920 1.350 . S
C1917 C1920 1.463 . S
C1917 C1922 1.350 . S
C1917 N1925 1.427 . S
C1918 H1909 0.930 . S
C1918 C1916 1.378 . S
C1918 C1919 1.367 . S
C1919 C1918 1.367 . S
C1919 C1921 1.433 . S
C1920 C1916 1.350 . S
C1920 C1917 1.463 . S
C1920 N1924 1.427 . S
C1921 H1911 0.929 . S
C1921 C1919 1.433 . S
C1921 N1924 1.384 . S
C1922 H1913 0.929 . S
C1922 C1914 1.378 . S
C1922 C1917 1.350 . S
C1923 H1910 0.929 . S
C1923 C1915 1.433 . S
C1923 N1925 1.384 . S
N1924 C1920 1.427 . S
N1924 C1921 1.384 . S
N1925 C1917 1.427 . S
N1925 C1923 1.384 . S
H1926 C1932 0.930 . S
H1927 C1936 0.930 . S
H1928 C1941 0.929 . S
H1929 C1939 0.929 . S
H1930 C1934 0.929 . S
H1931 C1940 0.929 . S
C1932 H1926 0.930 . S
C1932 C1933 1.367 . S
C1932 C1940 1.378 . S
C1933 C1932 1.367 . S
C1933 C1941 1.433 . S
C1934 H1930 0.929 . S
C1934 C1936 1.378 . S
C1934 C1938 1.350 . S
C1935 C1938 1.463 . S
C1935 C1940 1.350 . S
C1935 N1943 1.427 . S
C1936 H1927 0.930 . S
C1936 C1934 1.378 . S
C1936 C1937 1.367 . S
C1937 C1936 1.367 . S
C1937 C1939 1.433 . S
C1938 C1934 1.350 . S
C1938 C1935 1.463 . S
C1938 N1942 1.427 . S
C1939 H1929 0.929 . S
C1939 C1937 1.433 . S
C1939 N1942 1.384 . S
C1940 H1931 0.929 . S
C1940 C1932 1.378 . S
C1940 C1935 1.350 . S
C1941 H1928 0.929 . S
C1941 C1933 1.433 . S
C1941 N1943 1.384 . S
N1942 C1938 1.427 . S
N1942 C1939 1.384 . S
N1943 C1935 1.427 . S
N1943 C1941 1.384 . S
H1944 C1950 0.930 . S
H1945 C1954 0.930 1_554 S
H1946 C1959 0.929 . S
H1947 C1957 0.929 . S
H1948 C1952 0.929 . S
H1949 C1958 0.929 . S
C1950 H1944 0.930 . S
C1950 C1951 1.367 1_556 S
C1950 C1958 1.378 . S
C1951 C1950 1.367 1_554 S
C1951 C1959 1.433 . S
C1952 H1948 0.929 . S
C1952 C1954 1.378 1_554 S
C1952 C1956 1.350 1_554 S
C1953 C1956 1.461 1_554 S
C1953 C1958 1.348 1_554 S
C1953 N1961 1.431 . S
C1954 H1945 0.930 1_556 S
C1954 C1952 1.378 1_556 S
C1954 C1955 1.367 . S
C1955 C1954 1.367 . S
C1955 C1957 1.433 . S
C1956 C1952 1.350 1_556 S
C1956 C1953 1.461 1_556 S
C1956 N1960 1.427 . S
C1957 H1947 0.929 . S
C1957 C1955 1.433 . S
C1957 N1960 1.384 . S
C1958 H1949 0.929 . S
C1958 C1950 1.378 . S
C1958 C1953 1.348 1_556 S
C1959 H1946 0.929 . S
C1959 C1951 1.433 . S
C1959 N1961 1.384 . S
N1960 C1956 1.427 . S
N1960 C1957 1.384 . S
N1961 C1953 1.431 . S
N1961 C1959 1.384 . S
H1962 C1968 0.930 . S
H1963 C1972 0.930 . S
H1964 C1977 0.929 . S
H1965 C1975 0.929 . S
H1966 C1970 0.936 . S
H1967 C1976 0.929 1_455 S
C1968 H1962 0.930 . S
C1968 C1969 1.367 . S
C1968 C1976 1.378 . S
C1969 C1968 1.367 . S
C1969 C1977 1.433 . S
C1970 H1966 0.936 . S
C1970 C1972 1.371 1_655 S
C1970 C1974 1.349 1_655 S
C1971 C1974 1.463 1_655 S
C1971 C1976 1.350 . S
C1971 N1979 1.427 . S
C1972 H1963 0.930 . S
C1972 C1970 1.371 1_455 S
C1972 C1973 1.367 . S
C1973 C1972 1.367 . S
C1973 C1975 1.433 . S
C1974 C1970 1.349 1_455 S
C1974 C1971 1.463 1_455 S
C1974 N1978 1.427 . S
C1975 H1965 0.929 . S
C1975 C1973 1.433 . S
C1975 N1978 1.384 . S
C1976 H1967 0.929 1_655 S
C1976 C1968 1.378 . S
C1976 C1971 1.350 . S
C1977 H1964 0.929 . S
C1977 C1969 1.433 . S
C1977 N1979 1.384 . S
N1978 C1974 1.427 . S
N1978 C1975 1.384 . S
N1979 C1971 1.427 . S
N1979 C1977 1.384 . S
H1980 C1986 0.930 . S
H1981 C1990 0.942 . S
H1982 C1995 0.929 . S
H1983 C1993 0.929 . S
H1984 C1988 0.929 . S
H1985 C1994 0.929 . S
C1986 H1980 0.930 . S
C1986 C1987 1.367 1_554 S
C1986 C1994 1.378 . S
C1987 C1986 1.367 1_556 S
C1987 C1995 1.433 . S
C1988 H1984 0.929 . S
C1988 C1990 1.384 . S
C1988 C1992 1.350 1_556 S
C1989 C1992 1.463 1_456 S
C1989 C1994 1.350 1_556 S
C1989 N1997 1.427 1_455 S
C1990 H1981 0.942 . S
C1990 C1988 1.384 . S
C1990 C1991 1.349 1_556 S
C1991 C1990 1.349 1_554 S
C1991 C1993 1.433 . S
C1992 C1988 1.350 1_554 S
C1992 C1989 1.463 1_654 S
C1992 N1996 1.427 . S
C1993 H1983 0.929 . S
C1993 C1991 1.433 . S
C1993 N1996 1.384 . S
C1994 H1985 0.929 . S
C1994 C1986 1.378 . S
C1994 C1989 1.350 1_554 S
C1995 H1982 0.929 . S
C1995 C1987 1.433 . S
C1995 N1997 1.384 1_455 S
N1996 C1992 1.427 . S
N1996 C1993 1.384 . S
N1997 C1989 1.427 1_655 S
N1997 C1995 1.384 1_655 S
H1998 C2004 0.930 . S
H1999 C2008 0.930 . S
H2000 C2013 0.929 . S
H2001 C2011 0.929 . S
H2002 C2006 0.929 . S
H2003 C2012 0.929 . S
C2004 H1998 0.930 . S
C2004 C2005 1.367 . S
C2004 C2012 1.378 . S
C2005 C2004 1.367 . S
C2005 C2013 1.433 . S
C2006 H2002 0.929 . S
C2006 C2008 1.378 . S
C2006 C2010 1.350 . S
C2007 C2010 1.463 . S
C2007 C2012 1.350 . S
C2007 N2015 1.427 . S
C2008 H1999 0.930 . S
C2008 C2006 1.378 . S
C2008 C2009 1.367 . S
C2009 C2008 1.367 . S
C2009 C2011 1.433 . S
C2010 C2006 1.350 . S
C2010 C2007 1.463 . S
C2010 N2014 1.427 . S
C2011 H2001 0.929 . S
C2011 C2009 1.433 . S
C2011 N2014 1.384 . S
C2012 H2003 0.929 . S
C2012 C2004 1.378 . S
C2012 C2007 1.350 . S
C2013 H2000 0.929 . S
C2013 C2005 1.433 . S
C2013 N2015 1.384 . S
N2014 C2010 1.427 . S
N2014 C2011 1.384 . S
N2015 C2007 1.427 . S
N2015 C2013 1.384 . S
H2016 C2022 0.930 . S
H2017 C2026 0.930 . S
H2018 C2031 0.929 . S
H2019 C2029 0.929 . S
H2020 C2024 0.929 . S
H2021 C2030 0.929 . S
C2022 H2016 0.930 . S
C2022 C2023 1.367 . S
C2022 C2030 1.378 . S
C2023 C2022 1.367 . S
C2023 C2031 1.433 . S
C2024 H2020 0.929 . S
C2024 C2026 1.378 . S
C2024 C2028 1.350 . S
C2025 C2028 1.463 . S
C2025 C2030 1.350 . S
C2025 N2033 1.427 . S
C2026 H2017 0.930 . S
C2026 C2024 1.378 . S
C2026 C2027 1.367 . S
C2027 C2026 1.367 . S
C2027 C2029 1.433 . S
C2028 C2024 1.350 . S
C2028 C2025 1.463 . S
C2028 N2032 1.427 . S
C2029 H2019 0.929 . S
C2029 C2027 1.433 . S
C2029 N2032 1.384 . S
C2030 H2021 0.929 . S
C2030 C2022 1.378 . S
C2030 C2025 1.350 . S
C2031 H2018 0.929 . S
C2031 C2023 1.433 . S
C2031 N2033 1.384 . S
N2032 C2028 1.427 . S
N2032 C2029 1.384 . S
N2033 C2025 1.427 . S
N2033 C2031 1.384 . S
H2034 C2040 0.930 . S
H2035 C2044 0.930 . S
H2036 C2049 0.929 . S
H2037 C2047 0.929 . S
H2038 C2042 0.929 . S
H2039 C2048 0.929 . S
C2040 H2034 0.930 . S
C2040 C2041 1.367 . S
C2040 C2048 1.378 . S
C2041 C2040 1.367 . S
C2041 C2049 1.433 . S
C2042 H2038 0.929 . S
C2042 C2044 1.378 . S
C2042 C2046 1.350 . S
C2043 C2046 1.463 . S
C2043 C2048 1.350 . S
C2043 N2051 1.427 . S
C2044 H2035 0.930 . S
C2044 C2042 1.378 . S
C2044 C2045 1.367 . S
C2045 C2044 1.367 . S
C2045 C2047 1.433 . S
C2046 C2042 1.350 . S
C2046 C2043 1.463 . S
C2046 N2050 1.427 . S
C2047 H2037 0.929 . S
C2047 C2045 1.433 . S
C2047 N2050 1.384 . S
C2048 H2039 0.929 . S
C2048 C2040 1.378 . S
C2048 C2043 1.350 . S
C2049 H2036 0.929 . S
C2049 C2041 1.433 . S
C2049 N2051 1.384 . S
N2050 C2046 1.427 . S
N2050 C2047 1.384 . S
N2051 C2043 1.427 . S
N2051 C2049 1.384 . S
H2052 C2058 0.930 . S
H2053 C2062 0.930 . S
H2054 C2067 0.929 . S
H2055 C2065 0.929 . S
H2056 C2060 0.929 . S
H2057 C2066 0.929 . S
C2058 H2052 0.930 . S
C2058 C2059 1.367 . S
C2058 C2066 1.378 . S
C2059 C2058 1.367 . S
C2059 C2067 1.433 . S
C2060 H2056 0.929 . S
C2060 C2062 1.378 . S
C2060 C2064 1.350 . S
C2061 C2064 1.463 . S
C2061 C2066 1.350 . S
C2061 N2069 1.427 . S
C2062 H2053 0.930 . S
C2062 C2060 1.378 . S
C2062 C2063 1.367 . S
C2063 C2062 1.367 . S
C2063 C2065 1.433 . S
C2064 C2060 1.350 . S
C2064 C2061 1.463 . S
C2064 N2068 1.427 . S
C2065 H2055 0.929 . S
C2065 C2063 1.433 . S
C2065 N2068 1.384 . S
C2066 H2057 0.929 . S
C2066 C2058 1.378 . S
C2066 C2061 1.350 . S
C2067 H2054 0.929 . S
C2067 C2059 1.433 . S
C2067 N2069 1.384 . S
N2068 C2064 1.427 . S
N2068 C2065 1.384 . S
N2069 C2061 1.427 . S
N2069 C2067 1.384 . S
H2070 C2076 0.930 . S
H2071 C2080 0.930 . S
H2072 C2085 0.929 . S
H2073 C2083 0.929 . S
H2074 C2078 0.929 . S
H2075 C2084 0.929 . S
C2076 H2070 0.930 . S
C2076 C2077 1.367 . S
C2076 C2084 1.378 . S
C2077 C2076 1.367 . S
C2077 C2085 1.433 . S
C2078 H2074 0.929 . S
C2078 C2080 1.378 . S
C2078 C2082 1.350 . S
C2079 C2082 1.463 . S
C2079 C2084 1.350 . S
C2079 N2087 1.427 . S
C2080 H2071 0.930 . S
C2080 C2078 1.378 . S
C2080 C2081 1.367 . S
C2081 C2080 1.367 . S
C2081 C2083 1.433 . S
C2082 C2078 1.350 . S
C2082 C2079 1.463 . S
C2082 N2086 1.427 . S
C2083 H2073 0.929 . S
C2083 C2081 1.433 . S
C2083 N2086 1.384 . S
C2084 H2075 0.929 . S
C2084 C2076 1.378 . S
C2084 C2079 1.350 . S
C2085 H2072 0.929 . S
C2085 C2077 1.433 . S
C2085 N2087 1.384 . S
N2086 C2082 1.427 . S
N2086 C2083 1.384 . S
N2087 C2079 1.427 . S
N2087 C2085 1.384 . S
H2088 C2094 0.930 . S
H2089 C2098 0.930 . S
H2090 C2103 0.929 . S
H2091 C2101 0.929 . S
H2092 C2096 0.929 . S
H2093 C2102 0.929 . S
C2094 H2088 0.930 . S
C2094 C2095 1.367 . S
C2094 C2102 1.378 . S
C2095 C2094 1.367 . S
C2095 C2103 1.433 . S
C2096 H2092 0.929 . S
C2096 C2098 1.378 . S
C2096 C2100 1.350 . S
C2097 C2100 1.463 . S
C2097 C2102 1.350 . S
C2097 N2105 1.427 . S
C2098 H2089 0.930 . S
C2098 C2096 1.378 . S
C2098 C2099 1.367 . S
C2099 C2098 1.367 . S
C2099 C2101 1.433 . S
C2100 C2096 1.350 . S
C2100 C2097 1.463 . S
C2100 N2104 1.427 . S
C2101 H2091 0.929 . S
C2101 C2099 1.433 . S
C2101 N2104 1.384 . S
C2102 H2093 0.929 . S
C2102 C2094 1.378 . S
C2102 C2097 1.350 . S
C2103 H2090 0.929 . S
C2103 C2095 1.433 . S
C2103 N2105 1.384 . S
N2104 C2100 1.427 . S
N2104 C2101 1.384 . S
N2105 C2097 1.427 . S
N2105 C2103 1.384 . S
H2106 C2112 0.930 . S
H2107 C2116 0.930 . S
H2108 C2121 0.929 . S
H2109 C2119 0.929 . S
H2110 C2114 0.929 . S
H2111 C2120 0.929 . S
C2112 H2106 0.930 . S
C2112 C2113 1.367 . S
C2112 C2120 1.378 . S
C2113 C2112 1.367 . S
C2113 C2121 1.433 . S
C2114 H2110 0.929 . S
C2114 C2116 1.378 . S
C2114 C2118 1.350 . S
C2115 C2118 1.463 . S
C2115 C2120 1.350 . S
C2115 N2123 1.427 . S
C2116 H2107 0.930 . S
C2116 C2114 1.378 . S
C2116 C2117 1.367 . S
C2117 C2116 1.367 . S
C2117 C2119 1.433 . S
C2118 C2114 1.350 . S
C2118 C2115 1.463 . S
C2118 N2122 1.427 . S
C2119 H2109 0.929 . S
C2119 C2117 1.433 . S
C2119 N2122 1.384 . S
C2120 H2111 0.929 . S
C2120 C2112 1.378 . S
C2120 C2115 1.350 . S
C2121 H2108 0.929 . S
C2121 C2113 1.433 . S
C2121 N2123 1.384 . S
N2122 C2118 1.427 . S
N2122 C2119 1.384 . S
N2123 C2115 1.427 . S
N2123 C2121 1.384 . S
H2124 C2130 0.930 . S
H2125 C2134 0.930 . S
H2126 C2139 0.929 . S
H2127 C2137 0.929 . S
H2128 C2132 0.929 . S
H2129 C2138 0.929 . S
C2130 H2124 0.930 . S
C2130 C2131 1.367 . S
C2130 C2138 1.378 . S
C2131 C2130 1.367 . S
C2131 C2139 1.433 . S
C2132 H2128 0.929 . S
C2132 C2134 1.378 . S
C2132 C2136 1.350 . S
C2133 C2136 1.463 . S
C2133 C2138 1.350 . S
C2133 N2141 1.427 . S
C2134 H2125 0.930 . S
C2134 C2132 1.378 . S
C2134 C2135 1.367 . S
C2135 C2134 1.367 . S
C2135 C2137 1.433 . S
C2136 C2132 1.350 . S
C2136 C2133 1.463 . S
C2136 N2140 1.427 . S
C2137 H2127 0.929 . S
C2137 C2135 1.433 . S
C2137 N2140 1.384 . S
C2138 H2129 0.929 . S
C2138 C2130 1.378 . S
C2138 C2133 1.350 . S
C2139 H2126 0.929 . S
C2139 C2131 1.433 . S
C2139 N2141 1.384 . S
N2140 C2136 1.427 . S
N2140 C2137 1.384 . S
N2141 C2133 1.427 . S
N2141 C2139 1.384 . S
H2142 C2148 0.930 . S
H2143 C2152 0.930 . S
H2144 C2157 0.929 . S
H2145 C2155 0.929 . S
H2146 C2150 0.929 . S
H2147 C2156 0.929 . S
C2148 H2142 0.930 . S
C2148 C2149 1.367 . S
C2148 C2156 1.378 . S
C2149 C2148 1.367 . S
C2149 C2157 1.433 . S
C2150 H2146 0.929 . S
C2150 C2152 1.378 . S
C2150 C2154 1.350 . S
C2151 C2154 1.463 . S
C2151 C2156 1.350 . S
C2151 N2159 1.427 . S
C2152 H2143 0.930 . S
C2152 C2150 1.378 . S
C2152 C2153 1.367 . S
C2153 C2152 1.367 . S
C2153 C2155 1.433 . S
C2154 C2150 1.350 . S
C2154 C2151 1.463 . S
C2154 N2158 1.427 . S
C2155 H2145 0.929 . S
C2155 C2153 1.433 . S
C2155 N2158 1.384 . S
C2156 H2147 0.929 . S
C2156 C2148 1.378 . S
C2156 C2151 1.350 . S
C2157 H2144 0.929 . S
C2157 C2149 1.433 . S
C2157 N2159 1.384 . S
N2158 C2154 1.427 . S
N2158 C2155 1.384 . S
N2159 C2151 1.427 . S
N2159 C2157 1.384 . S
H2160 C2166 0.930 . S
H2161 C2170 0.930 . S
H2162 C2175 0.929 . S
H2163 C2173 0.929 . S
H2164 C2168 0.929 . S
H2165 C2174 0.929 . S
C2166 H2160 0.930 . S
C2166 C2167 1.367 . S
C2166 C2174 1.378 . S
C2167 C2166 1.367 . S
C2167 C2175 1.433 . S
C2168 H2164 0.929 . S
C2168 C2170 1.378 . S
C2168 C2172 1.350 . S
C2169 C2172 1.463 . S
C2169 C2174 1.350 . S
C2169 N2177 1.427 . S
C2170 H2161 0.930 . S
C2170 C2168 1.378 . S
C2170 C2171 1.367 . S
C2171 C2170 1.367 . S
C2171 C2173 1.433 . S
C2172 C2168 1.350 . S
C2172 C2169 1.463 . S
C2172 N2176 1.427 . S
C2173 H2163 0.929 . S
C2173 C2171 1.433 . S
C2173 N2176 1.384 . S
C2174 H2165 0.929 . S
C2174 C2166 1.378 . S
C2174 C2169 1.350 . S
C2175 H2162 0.929 . S
C2175 C2167 1.433 . S
C2175 N2177 1.384 . S
N2176 C2172 1.427 . S
N2176 C2173 1.384 . S
N2177 C2169 1.427 . S
N2177 C2175 1.384 . S
H2178 C2184 0.930 . S
H2179 C2188 0.930 . S
H2180 C2193 0.929 . S
H2181 C2191 0.929 . S
H2182 C2186 0.929 . S
H2183 C2192 0.929 . S
C2184 H2178 0.930 . S
C2184 C2185 1.367 . S
C2184 C2192 1.378 . S
C2185 C2184 1.367 . S
C2185 C2193 1.433 . S
C2186 H2182 0.929 . S
C2186 C2188 1.378 . S
C2186 C2190 1.350 . S
C2187 C2190 1.463 . S
C2187 C2192 1.350 . S
C2187 N2195 1.427 . S
C2188 H2179 0.930 . S
C2188 C2186 1.378 . S
C2188 C2189 1.367 . S
C2189 C2188 1.367 . S
C2189 C2191 1.433 . S
C2190 C2186 1.350 . S
C2190 C2187 1.463 . S
C2190 N2194 1.427 . S
C2191 H2181 0.929 . S
C2191 C2189 1.433 . S
C2191 N2194 1.384 . S
C2192 H2183 0.929 . S
C2192 C2184 1.378 . S
C2192 C2187 1.350 . S
C2193 H2180 0.929 . S
C2193 C2185 1.433 . S
C2193 N2195 1.384 . S
N2194 C2190 1.427 . S
N2194 C2191 1.384 . S
N2195 C2187 1.427 . S
N2195 C2193 1.384 . S
H2196 C2202 0.930 . S
H2197 C2206 0.930 . S
H2198 C2211 0.929 . S
H2199 C2209 0.929 . S
H2200 C2204 0.929 . S
H2201 C2210 0.929 . S
C2202 H2196 0.930 . S
C2202 C2203 1.367 . S
C2202 C2210 1.378 . S
C2203 C2202 1.367 . S
C2203 C2211 1.433 . S
C2204 H2200 0.929 . S
C2204 C2206 1.378 . S
C2204 C2208 1.350 . S
C2205 C2208 1.463 . S
C2205 C2210 1.350 . S
C2205 N2213 1.427 . S
C2206 H2197 0.930 . S
C2206 C2204 1.378 . S
C2206 C2207 1.367 . S
C2207 C2206 1.367 . S
C2207 C2209 1.433 . S
C2208 C2204 1.350 . S
C2208 C2205 1.463 . S
C2208 N2212 1.427 . S
C2209 H2199 0.929 . S
C2209 C2207 1.433 . S
C2209 N2212 1.384 . S
C2210 H2201 0.929 . S
C2210 C2202 1.378 . S
C2210 C2205 1.350 . S
C2211 H2198 0.929 . S
C2211 C2203 1.433 . S
C2211 N2213 1.384 . S
N2212 C2208 1.427 . S
N2212 C2209 1.384 . S
N2213 C2205 1.427 . S
N2213 C2211 1.384 . S
H2214 C2220 0.930 . S
H2215 C2224 0.930 . S
H2216 C2229 0.929 . S
H2217 C2227 0.929 . S
H2218 C2222 0.929 . S
H2219 C2228 0.929 . S
C2220 H2214 0.930 . S
C2220 C2221 1.367 . S
C2220 C2228 1.378 . S
C2221 C2220 1.367 . S
C2221 C2229 1.433 . S
C2222 H2218 0.929 . S
C2222 C2224 1.378 . S
C2222 C2226 1.350 . S
C2223 C2226 1.463 . S
C2223 C2228 1.350 . S
C2223 N2231 1.427 . S
C2224 H2215 0.930 . S
C2224 C2222 1.378 . S
C2224 C2225 1.367 . S
C2225 C2224 1.367 . S
C2225 C2227 1.433 . S
C2226 C2222 1.350 . S
C2226 C2223 1.463 . S
C2226 N2230 1.427 . S
C2227 H2217 0.929 . S
C2227 C2225 1.433 . S
C2227 N2230 1.384 . S
C2228 H2219 0.929 . S
C2228 C2220 1.378 . S
C2228 C2223 1.350 . S
C2229 H2216 0.929 . S
C2229 C2221 1.433 . S
C2229 N2231 1.384 . S
N2230 C2226 1.427 . S
N2230 C2227 1.384 . S
N2231 C2223 1.427 . S
N2231 C2229 1.384 . S
H2232 C2238 0.930 . S
H2233 C2242 0.930 . S
H2234 C2247 0.929 . S
H2235 C2245 0.929 . S
H2236 C2240 0.929 . S
H2237 C2246 0.929 . S
C2238 H2232 0.930 . S
C2238 C2239 1.367 . S
C2238 C2246 1.378 . S
C2239 C2238 1.367 . S
C2239 C2247 1.433 . S
C2240 H2236 0.929 . S
C2240 C2242 1.378 . S
C2240 C2244 1.350 . S
C2241 C2244 1.463 . S
C2241 C2246 1.350 . S
C2241 N2249 1.427 . S
C2242 H2233 0.930 . S
C2242 C2240 1.378 . S
C2242 C2243 1.367 . S
C2243 C2242 1.367 . S
C2243 C2245 1.433 . S
C2244 C2240 1.350 . S
C2244 C2241 1.463 . S
C2244 N2248 1.427 . S
C2245 H2235 0.929 . S
C2245 C2243 1.433 . S
C2245 N2248 1.384 . S
C2246 H2237 0.929 . S
C2246 C2238 1.378 . S
C2246 C2241 1.350 . S
C2247 H2234 0.929 . S
C2247 C2239 1.433 . S
C2247 N2249 1.384 . S
N2248 C2244 1.427 . S
N2248 C2245 1.384 . S
N2249 C2241 1.427 . S
N2249 C2247 1.384 . S
H2250 C2256 0.930 . S
H2251 C2260 0.930 . S
H2252 C2265 0.929 . S
H2253 C2263 0.929 . S
H2254 C2258 0.929 . S
H2255 C2264 0.929 . S
C2256 H2250 0.930 . S
C2256 C2257 1.367 . S
C2256 C2264 1.378 . S
C2257 C2256 1.367 . S
C2257 C2265 1.433 . S
C2258 H2254 0.929 . S
C2258 C2260 1.378 . S
C2258 C2262 1.350 . S
C2259 C2262 1.463 . S
C2259 C2264 1.350 . S
C2259 N2267 1.427 . S
C2260 H2251 0.930 . S
C2260 C2258 1.378 . S
C2260 C2261 1.367 . S
C2261 C2260 1.367 . S
C2261 C2263 1.433 . S
C2262 C2258 1.350 . S
C2262 C2259 1.463 . S
C2262 N2266 1.427 . S
C2263 H2253 0.929 . S
C2263 C2261 1.433 . S
C2263 N2266 1.384 . S
C2264 H2255 0.929 . S
C2264 C2256 1.378 . S
C2264 C2259 1.350 . S
C2265 H2252 0.929 . S
C2265 C2257 1.433 . S
C2265 N2267 1.384 . S
N2266 C2262 1.427 . S
N2266 C2263 1.384 . S
N2267 C2259 1.427 . S
N2267 C2265 1.384 . S
H2268 C2274 0.930 . S
H2269 C2278 0.930 . S
H2270 C2283 0.929 . S
H2271 C2281 0.929 . S
H2272 C2276 0.929 . S
H2273 C2282 0.929 . S
C2274 H2268 0.930 . S
C2274 C2275 1.367 . S
C2274 C2282 1.378 . S
C2275 C2274 1.367 . S
C2275 C2283 1.433 . S
C2276 H2272 0.929 . S
C2276 C2278 1.378 . S
C2276 C2280 1.350 . S
C2277 C2280 1.463 . S
C2277 C2282 1.350 . S
C2277 N2285 1.427 . S
C2278 H2269 0.930 . S
C2278 C2276 1.378 . S
C2278 C2279 1.367 . S
C2279 C2278 1.367 . S
C2279 C2281 1.433 . S
C2280 C2276 1.350 . S
C2280 C2277 1.463 . S
C2280 N2284 1.427 . S
C2281 H2271 0.929 . S
C2281 C2279 1.433 . S
C2281 N2284 1.384 . S
C2282 H2273 0.929 . S
C2282 C2274 1.378 . S
C2282 C2277 1.350 . S
C2283 H2270 0.929 . S
C2283 C2275 1.433 . S
C2283 N2285 1.384 . S
N2284 C2280 1.427 . S
N2284 C2281 1.384 . S
N2285 C2277 1.427 . S
N2285 C2283 1.384 . S
H2286 C2292 0.930 . S
H2287 C2296 0.930 . S
H2288 C2301 0.929 . S
H2289 C2299 0.929 . S
H2290 C2294 0.929 . S
H2291 C2300 0.929 . S
C2292 H2286 0.930 . S
C2292 C2293 1.367 . S
C2292 C2300 1.378 . S
C2293 C2292 1.367 . S
C2293 C2301 1.433 . S
C2294 H2290 0.929 . S
C2294 C2296 1.378 . S
C2294 C2298 1.350 . S
C2295 C2298 1.463 . S
C2295 C2300 1.350 . S
C2295 N2303 1.427 . S
C2296 H2287 0.930 . S
C2296 C2294 1.378 . S
C2296 C2297 1.367 . S
C2297 C2296 1.367 . S
C2297 C2299 1.433 . S
C2298 C2294 1.350 . S
C2298 C2295 1.463 . S
C2298 N2302 1.427 . S
C2299 H2289 0.929 . S
C2299 C2297 1.433 . S
C2299 N2302 1.384 . S
C2300 H2291 0.929 . S
C2300 C2292 1.378 . S
C2300 C2295 1.350 . S
C2301 H2288 0.929 . S
C2301 C2293 1.433 . S
C2301 N2303 1.384 . S
N2302 C2298 1.427 . S
N2302 C2299 1.384 . S
N2303 C2295 1.427 . S
N2303 C2301 1.384 . S
C1159 C327 1.182 . S
C1163 C2 1.207 . S
C1177 C38 1.210 1_455 S
C1181 C938 1.127 . S
C1195 C399 1.187 . S
C1199 C74 1.198 . S
C1213 C866 1.152 . S
C1217 C110 1.212 . S
C1231 C146 1.200 . S
C1235 C543 1.173 . S
C1249 C1010 1.136 . S
C1253 C182 1.219 . S
C1267 C218 1.204 . S
C1271 C471 1.175 . S
C1285 C1082 1.128 . S
C1289 C254 1.209 1_455 S
C1303 C39 1.038 . S
C1307 C291 1.062 . S
C1321 C326 1.136 1_655 S
C1325 C651 1.118 . S
C1339 C111 1.046 . S
C1343 C363 1.064 . S
C1357 C398 1.142 . S
C1361 C579 1.134 . S
C1375 C435 1.064 . S
C1379 C255 1.047 . S
C1393 C723 1.134 . S
C1397 C470 1.145 . S
C1411 C507 1.062 . S
C1415 C183 1.036 . S
C1429 C795 1.123 . S
C1433 C542 1.134 . S
C1447 C903 1.182 . S
C1451 C578 1.207 . S
C1465 C362 1.138 . S
C1469 C614 1.219 . S
C1483 C650 1.201 . S
C1487 C975 1.173 . S
C1501 C290 1.125 . S
C1505 C686 1.213 1_655 S
C1519 C1119 1.174 . S
C1523 C722 1.204 . S
C1537 C758 1.217 1_655 S
C1541 C434 1.146 . S
C1555 C1047 1.182 . S
C1559 C794 1.196 . S
C1573 C506 1.148 . S
C1577 C830 1.208 . S
C1591 C615 1.034 . S
C1595 C867 1.062 . S
C1609 C902 1.148 . S
C1613 C75 1.119 . S
C1627 C939 1.061 . S
C1631 C687 1.031 . S
C1645 C974 1.134 1_455 S
C1649 C3 1.116 . S
C1663 C831 1.031 . S
C1667 C1011 1.061 . S
C1681 C1046 1.142 1_455 S
C1685 C147 1.124 . S
C1699 C1083 1.064 . S
C1703 C759 1.047 . S
C1717 C1118 1.149 . S
C1721 C219 1.130 . S
C1735 C878 1.508 . S
C1739 C4 1.431 . S
C1753 C40 1.382 . S
C1757 C328 1.378 . S
C1771 C76 1.430 . S
C1775 C950 1.508 . S
C1789 C112 1.382 . S
C1793 C400 1.378 . S
C1807 C148 1.429 . S
C1811 C1022 1.517 . S
C1825 C184 1.383 . S
C1829 C472 1.380 . S
C1843 C1094 1.520 . S
C1847 C220 1.439 . S
C1861 C256 1.374 . S
C1865 C544 1.370 . S
C1879 C302 1.518 . S
C1883 C580 1.444 . S
C1897 C374 1.508 . S
C1901 C652 1.426 . S
C1915 C724 1.438 . S
C1919 C446 1.511 . S
C1933 C796 1.428 . S
C1937 C518 1.508 . S
C1951 C616 1.380 . S
C1955 C904 1.377 . S
C1969 C976 1.363 . S
C1973 C688 1.367 . S
C1987 C760 1.378 . S
C1991 C1048 1.374 . S
C2005 C1120 1.364 . S
C2009 C832 1.368 . S
C2023 C770 1.675 . S
C2027 C14 1.669 . S
C2041 C806 1.670 . S
C2045 C50 1.677 . S
C2059 C86 1.671 . S
C2063 C842 1.678 . S
C2077 C734 1.676 . S
C2081 C122 1.678 . S
C2095 C698 1.674 . S
C2099 C158 1.668 . S
C2113 C590 1.670 . S
C2117 C194 1.676 . S
C2131 C230 1.673 . S
C2135 C626 1.679 . S
C2149 C662 1.676 . S
C2153 C266 1.678 . S
C2167 C1058 1.646 . S
C2171 C292 1.666 . S
C2185 C1084 1.665 . S
C2189 C338 1.643 . S
C2203 C1130 1.640 . S
C2207 C364 1.667 . S
C2221 C410 1.642 . S
C2225 C1012 1.666 . S
C2239 C986 1.641 . S
C2243 C436 1.666 . S
C2257 C868 1.664 . S
C2261 C482 1.647 . S
C2275 C914 1.647 . S
C2279 C508 1.664 . S
C2293 C940 1.668 . S
C2297 C554 1.638 . S
