# Generated by pormake.
# Topology pbp, (3)-cn, num edge types: 1
# Building blocks:
#     Node 0, Type 0, BuildingBlock: OLANEW_clean_sbu_2, # of connection points: 3
#     Node 1, Type 0, BuildingBlock: OLANEW_clean_sbu_2, # of connection points: 3
#     Node 2, Type 0, BuildingBlock: OLANEW_clean_sbu_2, # of connection points: 3
#     Node 3, Type 0, BuildingBlock: OLANEW_clean_sbu_2, # of connection points: 3
#     Node 4, Type 0, BuildingBlock: OLANEW_clean_sbu_2, # of connection points: 3
#     Node 5, Type 0, BuildingBlock: OLANEW_clean_sbu_2, # of connection points: 3
#     Node 6, Type 0, BuildingBlock: OLANEW_clean_sbu_2, # of connection points: 3
#     Node 7, Type 0, BuildingBlock: OLANEW_clean_sbu_2, # of connection points: 3
#     Node 8, Type 0, BuildingBlock: OLANEW_clean_sbu_2, # of connection points: 3
#     Node 9, Type 0, BuildingBlock: OLANEW_clean_sbu_2, # of connection points: 3
#     Node 10, Type 0, BuildingBlock: OLANEW_clean_sbu_2, # of connection points: 3
#     Node 11, Type 0, BuildingBlock: OLANEW_clean_sbu_2, # of connection points: 3
#     Node 12, Type 0, BuildingBlock: OLANEW_clean_sbu_2, # of connection points: 3
#     Node 13, Type 0, BuildingBlock: OLANEW_clean_sbu_2, # of connection points: 3
#     Node 14, Type 0, BuildingBlock: OLANEW_clean_sbu_2, # of connection points: 3
#     Node 15, Type 0, BuildingBlock: OLANEW_clean_sbu_2, # of connection points: 3
#     Node 16, Type 0, BuildingBlock: OLANEW_clean_sbu_2, # of connection points: 3
#     Node 17, Type 0, BuildingBlock: OLANEW_clean_sbu_2, # of connection points: 3
#     Node 18, Type 0, BuildingBlock: OLANEW_clean_sbu_2, # of connection points: 3
#     Node 19, Type 0, BuildingBlock: OLANEW_clean_sbu_2, # of connection points: 3
#     Node 20, Type 0, BuildingBlock: OLANEW_clean_sbu_2, # of connection points: 3
#     Node 21, Type 0, BuildingBlock: OLANEW_clean_sbu_2, # of connection points: 3
#     Node 22, Type 0, BuildingBlock: OLANEW_clean_sbu_2, # of connection points: 3
#     Node 23, Type 0, BuildingBlock: OLANEW_clean_sbu_2, # of connection points: 3
#     Node 24, Type 0, BuildingBlock: OLANEW_clean_sbu_2, # of connection points: 3
#     Node 25, Type 0, BuildingBlock: OLANEW_clean_sbu_2, # of connection points: 3
#     Node 26, Type 0, BuildingBlock: OLANEW_clean_sbu_2, # of connection points: 3
#     Node 27, Type 0, BuildingBlock: OLANEW_clean_sbu_2, # of connection points: 3
#     Node 28, Type 0, BuildingBlock: OLANEW_clean_sbu_2, # of connection points: 3
#     Node 29, Type 0, BuildingBlock: OLANEW_clean_sbu_2, # of connection points: 3
#     Node 30, Type 0, BuildingBlock: OLANEW_clean_sbu_2, # of connection points: 3
#     Node 31, Type 0, BuildingBlock: OLANEW_clean_sbu_2, # of connection points: 3
#     Node 32, Type 0, BuildingBlock: OLANEW_clean_sbu_2, # of connection points: 3
#     Node 33, Type 0, BuildingBlock: OLANEW_clean_sbu_2, # of connection points: 3
#     Node 34, Type 0, BuildingBlock: OLANEW_clean_sbu_2, # of connection points: 3
#     Node 35, Type 0, BuildingBlock: OLANEW_clean_sbu_2, # of connection points: 3
#     Node 36, Type 0, BuildingBlock: OLANEW_clean_sbu_2, # of connection points: 3
#     Node 37, Type 0, BuildingBlock: OLANEW_clean_sbu_2, # of connection points: 3
#     Node 38, Type 0, BuildingBlock: OLANEW_clean_sbu_2, # of connection points: 3
#     Node 39, Type 0, BuildingBlock: OLANEW_clean_sbu_2, # of connection points: 3
#     Node 40, Type 0, BuildingBlock: OLANEW_clean_sbu_2, # of connection points: 3
#     Node 41, Type 0, BuildingBlock: OLANEW_clean_sbu_2, # of connection points: 3
#     Node 42, Type 0, BuildingBlock: OLANEW_clean_sbu_2, # of connection points: 3
#     Node 43, Type 0, BuildingBlock: OLANEW_clean_sbu_2, # of connection points: 3
#     Node 44, Type 0, BuildingBlock: OLANEW_clean_sbu_2, # of connection points: 3
#     Node 45, Type 0, BuildingBlock: OLANEW_clean_sbu_2, # of connection points: 3
#     Node 46, Type 0, BuildingBlock: OLANEW_clean_sbu_2, # of connection points: 3
#     Node 47, Type 0, BuildingBlock: OLANEW_clean_sbu_2, # of connection points: 3
#     Edge 48, Type (0, 0), BuildingBlock: KIFKEQ_clean_linker_1, # of connection points: 2
#     Edge 49, Type (0, 0), BuildingBlock: KIFKEQ_clean_linker_1, # of connection points: 2
#     Edge 50, Type (0, 0), BuildingBlock: KIFKEQ_clean_linker_1, # of connection points: 2
#     Edge 51, Type (0, 0), BuildingBlock: KIFKEQ_clean_linker_1, # of connection points: 2
#     Edge 52, Type (0, 0), BuildingBlock: KIFKEQ_clean_linker_1, # of connection points: 2
#     Edge 53, Type (0, 0), BuildingBlock: KIFKEQ_clean_linker_1, # of connection points: 2
#     Edge 54, Type (0, 0), BuildingBlock: KIFKEQ_clean_linker_1, # of connection points: 2
#     Edge 55, Type (0, 0), BuildingBlock: KIFKEQ_clean_linker_1, # of connection points: 2
#     Edge 56, Type (0, 0), BuildingBlock: KIFKEQ_clean_linker_1, # of connection points: 2
#     Edge 57, Type (0, 0), BuildingBlock: KIFKEQ_clean_linker_1, # of connection points: 2
#     Edge 58, Type (0, 0), BuildingBlock: KIFKEQ_clean_linker_1, # of connection points: 2
#     Edge 59, Type (0, 0), BuildingBlock: KIFKEQ_clean_linker_1, # of connection points: 2
#     Edge 60, Type (0, 0), BuildingBlock: KIFKEQ_clean_linker_1, # of connection points: 2
#     Edge 61, Type (0, 0), BuildingBlock: KIFKEQ_clean_linker_1, # of connection points: 2
#     Edge 62, Type (0, 0), BuildingBlock: KIFKEQ_clean_linker_1, # of connection points: 2
#     Edge 63, Type (0, 0), BuildingBlock: KIFKEQ_clean_linker_1, # of connection points: 2
#     Edge 64, Type (0, 0), BuildingBlock: KIFKEQ_clean_linker_1, # of connection points: 2
#     Edge 65, Type (0, 0), BuildingBlock: KIFKEQ_clean_linker_1, # of connection points: 2
#     Edge 66, Type (0, 0), BuildingBlock: KIFKEQ_clean_linker_1, # of connection points: 2
#     Edge 67, Type (0, 0), BuildingBlock: KIFKEQ_clean_linker_1, # of connection points: 2
#     Edge 68, Type (0, 0), BuildingBlock: KIFKEQ_clean_linker_1, # of connection points: 2
#     Edge 69, Type (0, 0), BuildingBlock: KIFKEQ_clean_linker_1, # of connection points: 2
#     Edge 70, Type (0, 0), BuildingBlock: KIFKEQ_clean_linker_1, # of connection points: 2
#     Edge 71, Type (0, 0), BuildingBlock: KIFKEQ_clean_linker_1, # of connection points: 2
#     Edge 72, Type (0, 0), BuildingBlock: KIFKEQ_clean_linker_1, # of connection points: 2
#     Edge 73, Type (0, 0), BuildingBlock: KIFKEQ_clean_linker_1, # of connection points: 2
#     Edge 74, Type (0, 0), BuildingBlock: KIFKEQ_clean_linker_1, # of connection points: 2
#     Edge 75, Type (0, 0), BuildingBlock: KIFKEQ_clean_linker_1, # of connection points: 2
#     Edge 76, Type (0, 0), BuildingBlock: KIFKEQ_clean_linker_1, # of connection points: 2
#     Edge 77, Type (0, 0), BuildingBlock: KIFKEQ_clean_linker_1, # of connection points: 2
#     Edge 78, Type (0, 0), BuildingBlock: KIFKEQ_clean_linker_1, # of connection points: 2
#     Edge 79, Type (0, 0), BuildingBlock: KIFKEQ_clean_linker_1, # of connection points: 2
#     Edge 80, Type (0, 0), BuildingBlock: KIFKEQ_clean_linker_1, # of connection points: 2
#     Edge 81, Type (0, 0), BuildingBlock: KIFKEQ_clean_linker_1, # of connection points: 2
#     Edge 82, Type (0, 0), BuildingBlock: KIFKEQ_clean_linker_1, # of connection points: 2
#     Edge 83, Type (0, 0), BuildingBlock: KIFKEQ_clean_linker_1, # of connection points: 2
#     Edge 84, Type (0, 0), BuildingBlock: KIFKEQ_clean_linker_1, # of connection points: 2
#     Edge 85, Type (0, 0), BuildingBlock: KIFKEQ_clean_linker_1, # of connection points: 2
#     Edge 86, Type (0, 0), BuildingBlock: KIFKEQ_clean_linker_1, # of connection points: 2
#     Edge 87, Type (0, 0), BuildingBlock: KIFKEQ_clean_linker_1, # of connection points: 2
#     Edge 88, Type (0, 0), BuildingBlock: KIFKEQ_clean_linker_1, # of connection points: 2
#     Edge 89, Type (0, 0), BuildingBlock: KIFKEQ_clean_linker_1, # of connection points: 2
#     Edge 90, Type (0, 0), BuildingBlock: KIFKEQ_clean_linker_1, # of connection points: 2
#     Edge 91, Type (0, 0), BuildingBlock: KIFKEQ_clean_linker_1, # of connection points: 2
#     Edge 92, Type (0, 0), BuildingBlock: KIFKEQ_clean_linker_1, # of connection points: 2
#     Edge 93, Type (0, 0), BuildingBlock: KIFKEQ_clean_linker_1, # of connection points: 2
#     Edge 94, Type (0, 0), BuildingBlock: KIFKEQ_clean_linker_1, # of connection points: 2
#     Edge 95, Type (0, 0), BuildingBlock: KIFKEQ_clean_linker_1, # of connection points: 2
#     Edge 96, Type (0, 0), BuildingBlock: KIFKEQ_clean_linker_1, # of connection points: 2
#     Edge 97, Type (0, 0), BuildingBlock: KIFKEQ_clean_linker_1, # of connection points: 2
#     Edge 98, Type (0, 0), BuildingBlock: KIFKEQ_clean_linker_1, # of connection points: 2
#     Edge 99, Type (0, 0), BuildingBlock: KIFKEQ_clean_linker_1, # of connection points: 2
#     Edge 100, Type (0, 0), BuildingBlock: KIFKEQ_clean_linker_1, # of connection points: 2
#     Edge 101, Type (0, 0), BuildingBlock: KIFKEQ_clean_linker_1, # of connection points: 2
#     Edge 102, Type (0, 0), BuildingBlock: KIFKEQ_clean_linker_1, # of connection points: 2
#     Edge 103, Type (0, 0), BuildingBlock: KIFKEQ_clean_linker_1, # of connection points: 2
#     Edge 104, Type (0, 0), BuildingBlock: KIFKEQ_clean_linker_1, # of connection points: 2
#     Edge 105, Type (0, 0), BuildingBlock: KIFKEQ_clean_linker_1, # of connection points: 2
#     Edge 106, Type (0, 0), BuildingBlock: KIFKEQ_clean_linker_1, # of connection points: 2
#     Edge 107, Type (0, 0), BuildingBlock: KIFKEQ_clean_linker_1, # of connection points: 2
#     Edge 108, Type (0, 0), BuildingBlock: KIFKEQ_clean_linker_1, # of connection points: 2
#     Edge 109, Type (0, 0), BuildingBlock: KIFKEQ_clean_linker_1, # of connection points: 2
#     Edge 110, Type (0, 0), BuildingBlock: KIFKEQ_clean_linker_1, # of connection points: 2
#     Edge 111, Type (0, 0), BuildingBlock: KIFKEQ_clean_linker_1, # of connection points: 2
#     Edge 112, Type (0, 0), BuildingBlock: KIFKEQ_clean_linker_1, # of connection points: 2
#     Edge 113, Type (0, 0), BuildingBlock: KIFKEQ_clean_linker_1, # of connection points: 2
#     Edge 114, Type (0, 0), BuildingBlock: KIFKEQ_clean_linker_1, # of connection points: 2
#     Edge 115, Type (0, 0), BuildingBlock: KIFKEQ_clean_linker_1, # of connection points: 2
#     Edge 116, Type (0, 0), BuildingBlock: KIFKEQ_clean_linker_1, # of connection points: 2
#     Edge 117, Type (0, 0), BuildingBlock: KIFKEQ_clean_linker_1, # of connection points: 2
#     Edge 118, Type (0, 0), BuildingBlock: KIFKEQ_clean_linker_1, # of connection points: 2
#     Edge 119, Type (0, 0), BuildingBlock: KIFKEQ_clean_linker_1, # of connection points: 2
# Relax obj value: 0.011
# Max RMSD: 0.092
# Mean RMSD: 0.072
data_MOF--net-pbp--node1-OLANEW_clean_sbu_2--edge1-KIFKEQ_clean_linker_1
_symmetry_space_group_name_H-M    P1
_symmetry_Int_Tables_number       1
_symmetry_cell_setting            triclinic
loop_
_symmetry_equiv_pos_as_xyz
'x, y, z'
_cell_length_a     88.818996
_cell_length_b     89.29255
_cell_length_c     88.928952
_cell_angle_alpha  90.031426
_cell_angle_beta   90.06228
_cell_angle_gamma 96.297945
loop_
_atom_site_label
_atom_site_type_symbol
_atom_site_fract_x
_atom_site_fract_y
_atom_site_fract_z
_atom_type_partial_charge
O0 O 0.09138 0.28122 0.25838 0.0
Cd1 Cd 0.07443 0.25888 0.26298 0.0
O2 O 0.10637 0.26321 0.25719 0.0
Cd3 Cd 0.10613 0.23877 0.25956 0.0
O4 O 0.10645 0.237 0.28477 0.0
C5 C 0.12006 0.24233 0.28739 0.0
O6 O 0.12853 0.24605 0.2755 0.0
C7 C 0.10442 0.2771 0.25622 0.0
C8 C 0.04421 0.2645 0.26842 0.0
O9 O 0.05522 0.27496 0.26789 0.0
O10 O 0.04731 0.25096 0.26647 0.0
O11 O 0.73617 0.095 0.28823 0.0
Cd12 Cd 0.7144 0.07725 0.28236 0.0
O13 O 0.71434 0.10287 0.29211 0.0
Cd14 Cd 0.69082 0.10667 0.29488 0.0
O15 O 0.68843 0.10787 0.27069 0.0
C16 C 0.69028 0.12182 0.26763 0.0
O17 O 0.69328 0.13121 0.27893 0.0
C18 C 0.72871 0.10541 0.2928 0.0
C19 C 0.71859 0.04805 0.27399 0.0
O20 O 0.73029 0.05777 0.2748 0.0
O21 O 0.70568 0.05254 0.2767 0.0
O22 O 0.88695 0.6858 0.28015 0.0
Cd23 Cd 0.90309 0.70883 0.28413 0.0
O24 O 0.8731 0.7045 0.27897 0.0
Cd25 Cd 0.87133 0.72872 0.28061 0.0
O26 O 0.87251 0.73243 0.30526 0.0
C27 C 0.86018 0.72546 0.30996 0.0
O28 O 0.85172 0.71782 0.29973 0.0
C29 C 0.87412 0.69041 0.278 0.0
C30 C 0.9343 0.70763 0.28683 0.0
O31 O 0.92557 0.69523 0.28685 0.0
O32 O 0.92813 0.71988 0.28597 0.0
O33 O 0.30098 0.89902 0.27437 0.0
Cd34 Cd 0.27914 0.91125 0.27926 0.0
O35 O 0.28315 0.88001 0.27237 0.0
Cd36 Cd 0.2588 0.87439 0.27454 0.0
O37 O 0.25775 0.87547 0.29898 0.0
C38 C 0.26207 0.86324 0.30379 0.0
O39 O 0.26493 0.85321 0.29363 0.0
C40 C 0.29706 0.88514 0.27174 0.0
C41 C 0.28292 0.94264 0.28257 0.0
O42 O 0.29457 0.93542 0.28184 0.0
O43 O 0.26987 0.93504 0.28196 0.0
O44 O 0.0928 0.73009 0.70807 0.0
Cd45 Cd 0.07451 0.70915 0.71423 0.0
O46 O 0.10145 0.70843 0.70696 0.0
Cd47 Cd 0.10539 0.68502 0.70528 0.0
O48 O 0.10384 0.68477 0.72974 0.0
C49 C 0.11668 0.68982 0.73499 0.0
O50 O 0.12563 0.69844 0.72591 0.0
C51 C 0.10374 0.7226 0.70516 0.0
C52 C 0.04488 0.71361 0.72132 0.0
O53 O 0.05447 0.72521 0.71931 0.0
O54 O 0.04961 0.70063 0.72037 0.0
O55 O 0.30456 0.10005 0.721 0.0
Cd56 Cd 0.2818 0.08437 0.71404 0.0
O57 O 0.28625 0.11446 0.72165 0.0
Cd58 Cd 0.26258 0.11737 0.71793 0.0
O59 O 0.26254 0.11656 0.69328 0.0
C60 C 0.2687 0.12935 0.68902 0.0
O61 O 0.27305 0.13911 0.69973 0.0
C62 C 0.30011 0.11278 0.72383 0.0
C63 C 0.2842 0.05367 0.70961 0.0
O64 O 0.2961 0.06295 0.71129 0.0
O65 O 0.27133 0.05878 0.71002 0.0
O66 O 0.89312 0.28313 0.68497 0.0
Cd67 Cd 0.91198 0.30292 0.6921 0.0
O68 O 0.88076 0.30275 0.68069 0.0
Cd69 Cd 0.88365 0.32722 0.68409 0.0
O70 O 0.88189 0.33029 0.70889 0.0
C71 C 0.86792 0.32611 0.71104 0.0
O72 O 0.86017 0.32084 0.69913 0.0
C73 C 0.88143 0.28858 0.68002 0.0
C74 C 0.94051 0.29425 0.70045 0.0
O75 O 0.92912 0.28445 0.69822 0.0
O76 O 0.93845 0.30812 0.69879 0.0
O77 O 0.7306 0.8928 0.70431 0.0
Cd78 Cd 0.70949 0.90739 0.71054 0.0
O79 O 0.70804 0.88132 0.7017 0.0
Cd80 Cd 0.68367 0.87591 0.70102 0.0
O81 O 0.68064 0.87313 0.72551 0.0
C82 C 0.6822 0.8592 0.72632 0.0
O83 O 0.68418 0.85209 0.7136 0.0
C84 C 0.72226 0.88103 0.70036 0.0
C85 C 0.71547 0.93754 0.71845 0.0
O86 O 0.72637 0.92946 0.71669 0.0
O87 O 0.70193 0.93142 0.71646 0.0
O88 O 0.29983 0.1008 0.2664 0.0
Cd89 Cd 0.29508 0.08493 0.28842 0.0
O90 O 0.3041 0.11493 0.28619 0.0
Cd91 Cd 0.30494 0.11756 0.31051 0.0
O92 O 0.28068 0.11638 0.31536 0.0
C93 C 0.27647 0.12784 0.30877 0.0
O94 O 0.28646 0.1351 0.29962 0.0
C95 C 0.30377 0.11373 0.27195 0.0
C96 C 0.28763 0.05386 0.28471 0.0
O97 O 0.28865 0.06258 0.27325 0.0
O98 O 0.29002 0.05974 0.29771 0.0
O99 O 0.89416 0.28691 0.31145 0.0
Cd100 Cd 0.90802 0.29086 0.28809 0.0
O101 O 0.87703 0.28537 0.29358 0.0
Cd102 Cd 0.87359 0.28757 0.26931 0.0
O103 O 0.87701 0.31248 0.26544 0.0
C104 C 0.86428 0.31573 0.27017 0.0
O105 O 0.85482 0.30439 0.2751 0.0
C106 C 0.88037 0.28459 0.30748 0.0
C107 C 0.93995 0.29232 0.28807 0.0
O108 O 0.93289 0.29274 0.30059 0.0
O109 O 0.93202 0.29141 0.27604 0.0
O110 O 0.72554 0.89412 0.29089 0.0
Cd111 Cd 0.72123 0.90665 0.26802 0.0
O112 O 0.7253 0.87667 0.27346 0.0
Cd113 Cd 0.72228 0.87335 0.24926 0.0
O114 O 0.69667 0.87221 0.24811 0.0
C115 C 0.69399 0.85848 0.25196 0.0
O116 O 0.70592 0.85118 0.25401 0.0
C117 C 0.72671 0.88057 0.28721 0.0
C118 C 0.71885 0.93745 0.27066 0.0
O119 O 0.71862 0.9292 0.28241 0.0
O120 O 0.72014 0.93123 0.25784 0.0
O121 O 0.09031 0.72576 0.28707 0.0
Cd122 Cd 0.07654 0.72125 0.26457 0.0
O123 O 0.10815 0.72707 0.26988 0.0
Cd124 Cd 0.11266 0.72518 0.24588 0.0
O125 O 0.10891 0.7005 0.24385 0.0
C126 C 0.12191 0.69669 0.24689 0.0
O127 O 0.13326 0.70734 0.24842 0.0
C128 C 0.10421 0.7279 0.28358 0.0
C129 C 0.04525 0.71693 0.26862 0.0
O130 O 0.05418 0.71686 0.27988 0.0
O131 O 0.051 0.719 0.25551 0.0
O132 O 0.29729 0.89846 0.72079 0.0
Cd133 Cd 0.29119 0.91313 0.70015 0.0
O134 O 0.30091 0.8844 0.70109 0.0
Cd135 Cd 0.29836 0.88364 0.67658 0.0
O136 O 0.27367 0.88031 0.67295 0.0
C137 C 0.27029 0.86747 0.67892 0.0
O138 O 0.28118 0.86196 0.68659 0.0
C139 C 0.30154 0.88651 0.71527 0.0
C140 C 0.28626 0.94308 0.70528 0.0
O141 O 0.28698 0.93436 0.71663 0.0
O142 O 0.28754 0.93741 0.6922 0.0
O143 O 0.09201 0.27801 0.73688 0.0
Cd144 Cd 0.07575 0.27102 0.71568 0.0
O145 O 0.10431 0.27894 0.71583 0.0
Cd146 Cd 0.11082 0.27867 0.69239 0.0
O147 O 0.10661 0.25424 0.68984 0.0
C148 C 0.11702 0.24852 0.69689 0.0
O149 O 0.12332 0.25655 0.70816 0.0
C150 C 0.10445 0.28094 0.72998 0.0
C151 C 0.04428 0.26596 0.71886 0.0
O152 O 0.05268 0.26746 0.7306 0.0
O153 O 0.05078 0.26672 0.70604 0.0
O154 O 0.73059 0.09318 0.6989 0.0
Cd155 Cd 0.72467 0.08015 0.72191 0.0
O156 O 0.73004 0.1105 0.71624 0.0
Cd157 Cd 0.72721 0.11657 0.73971 0.0
O158 O 0.70255 0.11273 0.73989 0.0
C159 C 0.69855 0.12508 0.73509 0.0
O160 O 0.70904 0.13652 0.73336 0.0
C161 C 0.73169 0.10697 0.70253 0.0
C162 C 0.72151 0.04868 0.72012 0.0
O163 O 0.72265 0.05661 0.70812 0.0
O164 O 0.72158 0.05565 0.7327 0.0
O165 O 0.88745 0.69085 0.71507 0.0
Cd166 Cd 0.9039 0.69774 0.69474 0.0
O167 O 0.87237 0.68729 0.69552 0.0
Cd168 Cd 0.87199 0.69011 0.67115 0.0
O169 O 0.87319 0.71476 0.66809 0.0
C170 C 0.86063 0.71798 0.6733 0.0
O171 O 0.85204 0.70679 0.67979 0.0
C172 C 0.87447 0.68652 0.70964 0.0
C173 C 0.93446 0.70504 0.70177 0.0
O174 O 0.9246 0.70395 0.71229 0.0
O175 O 0.92984 0.70277 0.68825 0.0
O176 O 0.29481 0.27669 0.09573 0.0
Cd177 Cd 0.27239 0.28037 0.08225 0.0
O178 O 0.27702 0.27413 0.113 0.0
Cd179 Cd 0.25266 0.27472 0.11611 0.0
O180 O 0.25197 0.29953 0.1156 0.0
C181 C 0.25507 0.30227 0.12933 0.0
O182 O 0.25596 0.29063 0.13825 0.0
C183 C 0.2909 0.27444 0.10934 0.0
C184 C 0.27489 0.28518 0.05128 0.0
O185 O 0.28688 0.28561 0.05932 0.0
O186 O 0.26207 0.2826 0.05783 0.0
O187 O 0.31216 0.72338 0.89416 0.0
Cd188 Cd 0.28994 0.71512 0.90867 0.0
O189 O 0.29327 0.72255 0.87839 0.0
Cd190 Cd 0.26923 0.71744 0.87398 0.0
O191 O 0.26809 0.69285 0.87514 0.0
C192 C 0.2731 0.68854 0.86268 0.0
O193 O 0.27716 0.69916 0.85274 0.0
C194 C 0.30736 0.72556 0.88096 0.0
C195 C 0.29301 0.71096 0.93978 0.0
O196 O 0.30487 0.71267 0.93154 0.0
O197 O 0.28017 0.71107 0.9333 0.0
O198 O 0.28967 0.27249 0.89509 0.0
Cd199 Cd 0.28471 0.29311 0.90994 0.0
O200 O 0.29543 0.29193 0.88011 0.0
Cd201 Cd 0.29489 0.31639 0.88048 0.0
O202 O 0.27037 0.31804 0.87801 0.0
C203 C 0.26916 0.3149 0.86412 0.0
O204 O 0.28163 0.31217 0.85705 0.0
C205 C 0.29443 0.27778 0.88252 0.0
C206 C 0.27776 0.28788 0.94015 0.0
O207 O 0.27798 0.27651 0.93142 0.0
O208 O 0.28032 0.30104 0.93442 0.0
O209 O 0.7219 0.28704 0.89497 0.0
Cd210 Cd 0.70068 0.27907 0.91019 0.0
O211 O 0.70141 0.28937 0.88216 0.0
Cd212 Cd 0.67734 0.28831 0.87851 0.0
O213 O 0.67649 0.26406 0.87703 0.0
C214 C 0.67918 0.26113 0.86339 0.0
O215 O 0.68309 0.27269 0.85449 0.0
C216 C 0.71576 0.29077 0.88289 0.0
C217 C 0.70586 0.27247 0.94019 0.0
O218 O 0.71728 0.27447 0.93135 0.0
O219 O 0.69273 0.27326 0.93457 0.0
O220 O 0.73679 0.69867 0.89542 0.0
Cd221 Cd 0.73251 0.7208 0.90861 0.0
O222 O 0.73617 0.716 0.87795 0.0
Cd223 Cd 0.73333 0.7396 0.8741 0.0
O224 O 0.70817 0.73843 0.87604 0.0
C225 C 0.7049 0.73505 0.86249 0.0
O226 O 0.71631 0.7346 0.85308 0.0
C227 C 0.73755 0.70248 0.88168 0.0
C228 C 0.72997 0.71859 0.93986 0.0
O229 O 0.72988 0.70662 0.93193 0.0
O230 O 0.73114 0.73125 0.933 0.0
O231 O 0.74231 0.70286 0.09725 0.0
Cd232 Cd 0.72132 0.70735 0.08045 0.0
O233 O 0.7197 0.6982 0.10616 0.0
Cd234 Cd 0.69583 0.69409 0.11147 0.0
O235 O 0.69338 0.71799 0.11294 0.0
C236 C 0.69484 0.72052 0.12692 0.0
O237 O 0.69707 0.70906 0.13564 0.0
C238 C 0.73388 0.69812 0.1081 0.0
C239 C 0.72749 0.71591 0.05091 0.0
O240 O 0.73841 0.7159 0.06029 0.0
O241 O 0.71402 0.71204 0.05559 0.0
O242 O 0.30816 0.72612 0.0974 0.0
Cd243 Cd 0.30199 0.70454 0.08187 0.0
O244 O 0.31151 0.70743 0.11262 0.0
Cd245 Cd 0.30974 0.68295 0.11439 0.0
O246 O 0.28522 0.67704 0.11468 0.0
C247 C 0.28068 0.68266 0.12676 0.0
O248 O 0.29086 0.69172 0.13419 0.0
C249 C 0.31197 0.72152 0.11023 0.0
C250 C 0.29585 0.70879 0.05131 0.0
O251 O 0.2962 0.72001 0.06032 0.0
O252 O 0.29825 0.69602 0.05676 0.0
O253 O 0.71806 0.29117 0.09534 0.0
Cd254 Cd 0.71257 0.26756 0.08244 0.0
O255 O 0.71809 0.2733 0.11216 0.0
Cd256 Cd 0.71522 0.24949 0.1182 0.0
O257 O 0.69041 0.24629 0.1169 0.0
C258 C 0.68673 0.24985 0.1301 0.0
O259 O 0.69746 0.25223 0.14029 0.0
C260 C 0.71982 0.28726 0.10886 0.0
C261 C 0.70877 0.26893 0.05131 0.0
O262 O 0.71021 0.28099 0.05917 0.0
O263 O 0.70907 0.25633 0.05805 0.0
O264 O 0.59209 0.78218 0.75964 0.0
Cd265 Cd 0.57522 0.76032 0.76457 0.0
O266 O 0.60832 0.76512 0.75822 0.0
Cd267 Cd 0.60694 0.74052 0.76103 0.0
O268 O 0.60725 0.73825 0.78619 0.0
C269 C 0.62079 0.74358 0.78915 0.0
O270 O 0.62943 0.74776 0.77749 0.0
C271 C 0.60543 0.77879 0.75743 0.0
C272 C 0.54503 0.76574 0.77007 0.0
O273 O 0.55585 0.77642 0.76981 0.0
O274 O 0.54831 0.75232 0.76774 0.0
O275 O 0.23324 0.59606 0.78997 0.0
Cd276 Cd 0.21205 0.5787 0.78395 0.0
O277 O 0.21247 0.60626 0.79448 0.0
Cd278 Cd 0.18794 0.60595 0.79478 0.0
O279 O 0.18291 0.60772 0.77083 0.0
C280 C 0.18998 0.62026 0.76698 0.0
O281 O 0.20037 0.62629 0.77644 0.0
C282 C 0.22686 0.60717 0.79466 0.0
C283 C 0.21691 0.54951 0.77584 0.0
O284 O 0.22843 0.55945 0.77668 0.0
O285 O 0.20389 0.55372 0.77857 0.0
O286 O 0.38603 0.186 0.7817 0.0
Cd287 Cd 0.40216 0.20848 0.78586 0.0
O288 O 0.37011 0.2031 0.77973 0.0
Cd289 Cd 0.36843 0.2271 0.78193 0.0
O290 O 0.37074 0.22951 0.80632 0.0
C291 C 0.3584 0.2236 0.81204 0.0
O292 O 0.34833 0.21704 0.80253 0.0
C293 C 0.37277 0.18941 0.77906 0.0
C294 C 0.43323 0.20663 0.78862 0.0
O295 O 0.42407 0.19454 0.78836 0.0
O296 O 0.42775 0.21922 0.78749 0.0
O297 O 0.80353 0.39731 0.776 0.0
Cd298 Cd 0.781 0.40963 0.78064 0.0
O299 O 0.78433 0.37996 0.7748 0.0
Cd300 Cd 0.76001 0.37369 0.77635 0.0
O301 O 0.75752 0.37467 0.80094 0.0
C302 C 0.76328 0.36317 0.80572 0.0
O303 O 0.76907 0.3548 0.79545 0.0
C304 C 0.79854 0.38361 0.77389 0.0
C305 C 0.78421 0.44107 0.78408 0.0
O306 O 0.79593 0.43396 0.78333 0.0
O307 O 0.77122 0.43335 0.78345 0.0
O308 O 0.59478 0.22989 0.20657 0.0
Cd309 Cd 0.57618 0.20817 0.2126 0.0
O310 O 0.6016 0.20744 0.20563 0.0
Cd311 Cd 0.60434 0.1836 0.20394 0.0
O312 O 0.60564 0.18143 0.22842 0.0
C313 C 0.61991 0.1838 0.22972 0.0
O314 O 0.62799 0.18535 0.2173 0.0
C315 C 0.60501 0.22151 0.20357 0.0
C316 C 0.54642 0.21203 0.21778 0.0
O317 O 0.55608 0.22369 0.21636 0.0
O318 O 0.55112 0.19901 0.21721 0.0
O319 O 0.80573 0.60206 0.21928 0.0
Cd320 Cd 0.7832 0.58617 0.21259 0.0
O321 O 0.78777 0.61677 0.21952 0.0
Cd322 Cd 0.76391 0.61961 0.21664 0.0
O323 O 0.76417 0.61879 0.19222 0.0
C324 C 0.76865 0.63213 0.18805 0.0
O325 O 0.77008 0.64273 0.19838 0.0
C326 C 0.80171 0.61512 0.2212 0.0
C327 C 0.78587 0.55541 0.20867 0.0
O328 O 0.79779 0.56471 0.21015 0.0
O329 O 0.77308 0.56075 0.20876 0.0
O330 O 0.39172 0.78319 0.18341 0.0
Cd331 Cd 0.41061 0.80382 0.19058 0.0
O332 O 0.38057 0.80351 0.18002 0.0
Cd333 Cd 0.38117 0.82799 0.18172 0.0
O334 O 0.37878 0.82993 0.20614 0.0
C335 C 0.36467 0.82786 0.20891 0.0
O336 O 0.35545 0.82651 0.19731 0.0
C337 C 0.38021 0.78924 0.17902 0.0
C338 C 0.43947 0.79605 0.19896 0.0
O339 O 0.4282 0.78598 0.19739 0.0
O340 O 0.43729 0.80977 0.19653 0.0
O341 O 0.22879 0.39051 0.20344 0.0
Cd342 Cd 0.20871 0.40544 0.20904 0.0
O343 O 0.20661 0.37792 0.19991 0.0
Cd344 Cd 0.18197 0.37708 0.20039 0.0
O345 O 0.1782 0.37271 0.22485 0.0
C346 C 0.18202 0.35943 0.22517 0.0
O347 O 0.18728 0.35435 0.2125 0.0
C348 C 0.22095 0.37838 0.19962 0.0
C349 C 0.2148 0.43572 0.21678 0.0
O350 O 0.22606 0.42801 0.21538 0.0
O351 O 0.20151 0.42887 0.21501 0.0
O352 O 0.80054 0.60189 0.76711 0.0
Cd353 Cd 0.79606 0.58648 0.78971 0.0
O354 O 0.80517 0.6155 0.78715 0.0
Cd355 Cd 0.807 0.62072 0.81092 0.0
O356 O 0.78251 0.61878 0.81327 0.0
C357 C 0.77807 0.63149 0.81026 0.0
O358 O 0.7885 0.64211 0.80562 0.0
C359 C 0.80514 0.61455 0.77288 0.0
C360 C 0.78866 0.5554 0.78621 0.0
O361 O 0.78966 0.56407 0.77473 0.0
O362 O 0.79105 0.56132 0.7992 0.0
O363 O 0.3925 0.78796 0.81179 0.0
Cd364 Cd 0.40646 0.79246 0.78936 0.0
O365 O 0.3743 0.78646 0.79497 0.0
Cd366 Cd 0.36909 0.78881 0.77129 0.0
O367 O 0.37404 0.81321 0.76939 0.0
C368 C 0.36286 0.81916 0.77478 0.0
O369 O 0.35194 0.80985 0.78071 0.0
C370 C 0.37851 0.78546 0.80858 0.0
C371 C 0.43827 0.79388 0.78946 0.0
O372 O 0.43156 0.79409 0.80221 0.0
O373 O 0.43001 0.79356 0.77766 0.0
O374 O 0.22383 0.39232 0.793 0.0
Cd375 Cd 0.21998 0.40505 0.76973 0.0
O376 O 0.2236 0.37572 0.77493 0.0
Cd377 Cd 0.22124 0.36997 0.75121 0.0
O378 O 0.1963 0.36958 0.74953 0.0
C379 C 0.19148 0.35723 0.75586 0.0
O380 O 0.20186 0.34898 0.76085 0.0
C381 C 0.225 0.37894 0.78883 0.0
C382 C 0.21764 0.43592 0.7722 0.0
O383 O 0.21786 0.42773 0.78396 0.0
O384 O 0.21844 0.42963 0.75936 0.0
O385 O 0.59172 0.22388 0.78864 0.0
Cd386 Cd 0.57798 0.21997 0.76581 0.0
O387 O 0.60884 0.22482 0.77112 0.0
Cd388 Cd 0.61445 0.22368 0.74744 0.0
O389 O 0.61034 0.1991 0.7458 0.0
C390 C 0.62289 0.19481 0.7498 0.0
O391 O 0.63449 0.20514 0.75154 0.0
C392 C 0.60557 0.22549 0.78498 0.0
C393 C 0.54669 0.21516 0.77034 0.0
O394 O 0.55598 0.2158 0.78136 0.0
O395 O 0.55219 0.2167 0.75707 0.0
O396 O 0.7985 0.3962 0.22039 0.0
Cd397 Cd 0.79313 0.41175 0.19886 0.0
O398 O 0.80118 0.38358 0.19989 0.0
Cd399 Cd 0.80028 0.38259 0.17542 0.0
O400 O 0.77538 0.37876 0.17238 0.0
C401 C 0.77371 0.36475 0.17516 0.0
O402 O 0.78604 0.35842 0.17842 0.0
C403 C 0.80171 0.38415 0.21416 0.0
C404 C 0.78702 0.44159 0.20346 0.0
O405 O 0.78838 0.43286 0.21467 0.0
O406 O 0.78856 0.43634 0.19025 0.0
O407 O 0.59436 0.77846 0.23612 0.0
Cd408 Cd 0.57738 0.77265 0.21547 0.0
O409 O 0.60537 0.77958 0.21443 0.0
Cd410 Cd 0.61113 0.78119 0.19081 0.0
O411 O 0.6089 0.75675 0.18942 0.0
C412 C 0.6223 0.75415 0.19251 0.0
O413 O 0.63224 0.76584 0.19548 0.0
C414 C 0.60644 0.78126 0.22859 0.0
C415 C 0.54593 0.76769 0.21817 0.0
O416 O 0.5535 0.76948 0.23046 0.0
O417 O 0.55346 0.76729 0.20595 0.0
O418 O 0.22933 0.59467 0.19742 0.0
Cd419 Cd 0.22345 0.58149 0.22051 0.0
O420 O 0.22869 0.61199 0.21471 0.0
Cd421 Cd 0.22586 0.61803 0.23816 0.0
O422 O 0.20114 0.61412 0.23771 0.0
C423 C 0.19703 0.62609 0.23209 0.0
O424 O 0.20759 0.63738 0.22988 0.0
C425 C 0.23035 0.60848 0.201 0.0
C426 C 0.21993 0.55005 0.2185 0.0
O427 O 0.22066 0.55809 0.20659 0.0
O428 O 0.22076 0.55674 0.23123 0.0
O429 O 0.38574 0.18972 0.21372 0.0
Cd430 Cd 0.40284 0.19599 0.1933 0.0
O431 O 0.37076 0.18643 0.19412 0.0
Cd432 Cd 0.37029 0.18843 0.16977 0.0
O433 O 0.37123 0.21296 0.16805 0.0
C434 C 0.3585 0.21648 0.17253 0.0
O435 O 0.34883 0.20526 0.17741 0.0
C436 C 0.37263 0.18606 0.20827 0.0
C437 C 0.43342 0.2034 0.20064 0.0
O438 O 0.4234 0.20106 0.21092 0.0
O439 O 0.42911 0.2023 0.18692 0.0
O440 O 0.79627 0.77822 0.59756 0.0
Cd441 Cd 0.77363 0.78198 0.58397 0.0
O442 O 0.77777 0.77582 0.61386 0.0
Cd443 Cd 0.75383 0.77569 0.61905 0.0
O444 O 0.75368 0.80005 0.61833 0.0
C445 C 0.75792 0.8047 0.63131 0.0
O446 O 0.75942 0.79459 0.64179 0.0
C447 C 0.79179 0.77586 0.61096 0.0
C448 C 0.77636 0.78623 0.5529 0.0
O449 O 0.78829 0.78653 0.56101 0.0
O450 O 0.76353 0.78433 0.55954 0.0
O451 O 0.81342 0.22151 0.3923 0.0
Cd452 Cd 0.79115 0.21353 0.40716 0.0
O453 O 0.79461 0.2205 0.37648 0.0
Cd454 Cd 0.77055 0.21597 0.37192 0.0
O455 O 0.7697 0.1916 0.37315 0.0
C456 C 0.77352 0.18733 0.36021 0.0
O457 O 0.77542 0.19758 0.34956 0.0
C458 C 0.80873 0.22322 0.379 0.0
C459 C 0.79439 0.21011 0.43837 0.0
O460 O 0.80609 0.2127 0.43001 0.0
O461 O 0.78138 0.20897 0.43206 0.0
O462 O 0.79108 0.77381 0.39334 0.0
Cd463 Cd 0.78621 0.79478 0.40857 0.0
O464 O 0.79601 0.79365 0.37923 0.0
Cd465 Cd 0.79692 0.81781 0.37649 0.0
O466 O 0.77272 0.81836 0.37521 0.0
C467 C 0.77014 0.81568 0.3614 0.0
O468 O 0.78178 0.81397 0.35264 0.0
C469 C 0.79548 0.77947 0.38081 0.0
C470 C 0.77854 0.78983 0.43873 0.0
O471 O 0.77907 0.77851 0.42998 0.0
O472 O 0.78166 0.80302 0.43326 0.0
O473 O 0.22134 0.789 0.39367 0.0
Cd474 Cd 0.19995 0.78055 0.40883 0.0
O475 O 0.20002 0.79097 0.38228 0.0
Cd476 Cd 0.1758 0.78942 0.37874 0.0
O477 O 0.17245 0.76488 0.37633 0.0
C478 C 0.17454 0.76394 0.36228 0.0
O479 O 0.17673 0.7766 0.35459 0.0
C480 C 0.21441 0.79303 0.38217 0.0
C481 C 0.20462 0.77297 0.43864 0.0
O482 O 0.21621 0.77504 0.43003 0.0
O483 O 0.19162 0.77412 0.43286 0.0
O484 O 0.23545 0.19692 0.39427 0.0
Cd485 Cd 0.2315 0.2192 0.40715 0.0
O486 O 0.23499 0.21396 0.37632 0.0
Cd487 Cd 0.23223 0.23769 0.37243 0.0
O488 O 0.20708 0.23654 0.37448 0.0
C489 C 0.20352 0.23336 0.36094 0.0
O490 O 0.21469 0.23334 0.35119 0.0
C491 C 0.23623 0.20051 0.38049 0.0
C492 C 0.22892 0.21708 0.43838 0.0
O493 O 0.22873 0.20508 0.43048 0.0
O494 O 0.2302 0.22973 0.43152 0.0
O495 O 0.2396 0.20095 0.5982 0.0
Cd496 Cd 0.21925 0.20583 0.58201 0.0
O497 O 0.21801 0.19586 0.60949 0.0
Cd498 Cd 0.19395 0.19297 0.61352 0.0
O499 O 0.1924 0.21713 0.61345 0.0
C500 C 0.19659 0.22233 0.62623 0.0
O501 O 0.20471 0.21387 0.63443 0.0
C502 C 0.23234 0.19624 0.60982 0.0
C503 C 0.22607 0.21433 0.55247 0.0
O504 O 0.23694 0.21433 0.56192 0.0
O505 O 0.21258 0.21058 0.55712 0.0
O506 O 0.80886 0.22578 0.59944 0.0
Cd507 Cd 0.80356 0.20349 0.58361 0.0
O508 O 0.81177 0.20592 0.61292 0.0
Cd509 Cd 0.81104 0.18161 0.61575 0.0
O510 O 0.78646 0.17576 0.61621 0.0
C511 C 0.78181 0.18124 0.62832 0.0
O512 O 0.79196 0.19014 0.63595 0.0
C513 C 0.81247 0.22019 0.61187 0.0
C514 C 0.79788 0.20695 0.55282 0.0
O515 O 0.79915 0.21844 0.56153 0.0
O516 O 0.79903 0.19403 0.55863 0.0
O517 O 0.21642 0.79288 0.59691 0.0
Cd518 Cd 0.21095 0.76934 0.58397 0.0
O519 O 0.21641 0.77473 0.6136 0.0
Cd520 Cd 0.21305 0.75024 0.61658 0.0
O521 O 0.18734 0.74749 0.61663 0.0
C522 C 0.18584 0.75191 0.63007 0.0
O523 O 0.19847 0.7553 0.63768 0.0
C524 C 0.21797 0.78871 0.61038 0.0
C525 C 0.20727 0.77096 0.55284 0.0
O526 O 0.20783 0.78287 0.56087 0.0
O527 O 0.20834 0.75839 0.55943 0.0
H528 H 0.19606 0.2184 0.33623 0.0
H529 H 0.17513 0.24148 0.37203 0.0
H530 H 0.17679 0.22187 0.32018 0.0
H531 H 0.15292 0.24357 0.35563 0.0
H532 H 0.11608 0.25036 0.31853 0.0
H533 H 0.13493 0.2474 0.3387 0.0
H534 H 0.16239 0.22771 0.30481 0.0
H535 H 0.14363 0.22795 0.28748 0.0
C536 C 0.18689 0.2242 0.34075 0.0
C537 C 0.18782 0.23066 0.355 0.0
C538 C 0.17532 0.22659 0.33112 0.0
C539 C 0.16282 0.2341 0.33568 0.0
C540 C 0.16241 0.23837 0.35112 0.0
C541 C 0.17498 0.23684 0.36074 0.0
C542 C 0.12597 0.24465 0.31608 0.0
C543 C 0.1283 0.23911 0.30137 0.0
C544 C 0.13702 0.2432 0.32754 0.0
C545 C 0.15059 0.23663 0.32424 0.0
C546 C 0.15243 0.2319 0.30924 0.0
C547 C 0.14135 0.23232 0.29859 0.0
H548 H 0.79098 0.16738 0.34704 0.0
H549 H 0.74566 0.17401 0.36082 0.0
H550 H 0.78097 0.14837 0.32902 0.0
H551 H 0.73535 0.1561 0.34325 0.0
H552 H 0.71521 0.12596 0.30839 0.0
H553 H 0.72632 0.14382 0.32556 0.0
H554 H 0.77132 0.13365 0.31182 0.0
H555 H 0.75932 0.11503 0.2945 0.0
C556 C 0.77882 0.16421 0.34656 0.0
C557 C 0.769 0.17193 0.3553 0.0
C558 C 0.7729 0.15354 0.33585 0.0
C559 C 0.757 0.15058 0.33361 0.0
C560 C 0.74753 0.15774 0.34355 0.0
C561 C 0.75345 0.16794 0.35436 0.0
C562 C 0.7275 0.12764 0.30896 0.0
C563 C 0.7363 0.11877 0.30049 0.0
C564 C 0.73421 0.13796 0.31927 0.0
C565 C 0.75015 0.14022 0.32129 0.0
C566 C 0.75909 0.13227 0.31145 0.0
C567 C 0.75221 0.12158 0.30124 0.0
H568 H 0.7919 0.77518 0.35027 0.0
H569 H 0.81841 0.76473 0.38878 0.0
H570 H 0.80732 0.76169 0.33431 0.0
H571 H 0.83456 0.75149 0.37327 0.0
H572 H 0.86488 0.72723 0.34189 0.0
H573 H 0.84877 0.73943 0.35957 0.0
H574 H 0.82017 0.74918 0.32159 0.0
H575 H 0.83616 0.7386 0.30526 0.0
C576 C 0.80111 0.76977 0.35521 0.0
C577 C 0.80394 0.77069 0.37067 0.0
C578 C 0.81028 0.76179 0.34606 0.0
C579 C 0.82271 0.75474 0.35215 0.0
C580 C 0.82533 0.7562 0.36774 0.0
C581 C 0.81595 0.76384 0.37682 0.0
C582 C 0.85519 0.73239 0.33767 0.0
C583 C 0.85184 0.73223 0.32211 0.0
C584 C 0.84575 0.73941 0.34778 0.0
C585 C 0.83288 0.74624 0.34237 0.0
C586 C 0.82977 0.74505 0.3269 0.0
C587 C 0.83911 0.73856 0.31714 0.0
H588 H 0.23383 0.85381 0.3076 0.0
H589 H 0.27703 0.85681 0.33019 0.0
H590 H 0.22363 0.83531 0.3243 0.0
H591 H 0.26658 0.83847 0.3488 0.0
H592 H 0.24425 0.8042 0.38171 0.0
H593 H 0.25641 0.82228 0.36429 0.0
H594 H 0.21422 0.81926 0.33851 0.0
H595 H 0.20292 0.80143 0.35568 0.0
C596 C 0.24088 0.851 0.31699 0.0
C597 C 0.25592 0.85708 0.31794 0.0
C598 C 0.23508 0.83985 0.32679 0.0
C599 C 0.24378 0.83492 0.33878 0.0
C600 C 0.25902 0.84172 0.34015 0.0
C601 C 0.26509 0.85261 0.32967 0.0
C602 C 0.23787 0.80731 0.37198 0.0
C603 C 0.22262 0.80157 0.37007 0.0
C604 C 0.24483 0.81792 0.36189 0.0
C605 C 0.23674 0.82293 0.34945 0.0
C606 C 0.22151 0.8164 0.34749 0.0
C607 C 0.21471 0.80577 0.35747 0.0
H608 H 0.13376 0.73223 0.71082 0.0
H609 H 0.09925 0.72646 0.6765 0.0
H610 H 0.15237 0.73994 0.69225 0.0
H611 H 0.11739 0.73373 0.65732 0.0
H612 H 0.15387 0.74616 0.6218 0.0
H613 H 0.13336 0.74019 0.64014 0.0
H614 H 0.16662 0.74886 0.67613 0.0
H615 H 0.18485 0.75585 0.65924 0.0
C616 C 0.1303 0.73293 0.69913 0.0
C617 C 0.11529 0.72893 0.69485 0.0
C618 C 0.14099 0.73743 0.68806 0.0
C619 C 0.13679 0.73799 0.67247 0.0
C620 C 0.12153 0.73383 0.66875 0.0
C621 C 0.11094 0.72969 0.67983 0.0
C622 C 0.1564 0.74681 0.63375 0.0
C623 C 0.17146 0.75055 0.6389 0.0
C624 C 0.14466 0.74319 0.64448 0.0
C625 C 0.14805 0.74288 0.66028 0.0
C626 C 0.16286 0.74778 0.66464 0.0
C627 C 0.17387 0.75208 0.65439 0.0
H628 H 0.28032 0.13078 0.65938 0.0
H629 H 0.2449 0.14337 0.68847 0.0
H630 H 0.27285 0.14814 0.64014 0.0
H631 H 0.23808 0.16082 0.67102 0.0
H632 H 0.22446 0.19435 0.63942 0.0
H633 H 0.23343 0.17805 0.65756 0.0
H634 H 0.26663 0.16496 0.62515 0.0
H635 H 0.25747 0.18205 0.60738 0.0
C636 C 0.27075 0.13711 0.66145 0.0
C637 C 0.26305 0.13587 0.67532 0.0
C638 C 0.26654 0.14742 0.65055 0.0
C639 C 0.25496 0.15692 0.65371 0.0
C640 C 0.24722 0.15466 0.66751 0.0
C641 C 0.25095 0.14417 0.6778 0.0
C642 C 0.23382 0.18808 0.63641 0.0
C643 C 0.24 0.18909 0.62197 0.0
C644 C 0.23903 0.17821 0.64682 0.0
C645 C 0.25056 0.1689 0.64304 0.0
C646 C 0.25753 0.17118 0.62881 0.0
C647 C 0.2524 0.18127 0.61851 0.0
H648 H 0.80378 0.24581 0.62588 0.0
H649 H 0.83877 0.21595 0.62414 0.0
H650 H 0.81916 0.26242 0.64314 0.0
H651 H 0.85407 0.23163 0.6406 0.0
H652 H 0.8847 0.26158 0.66833 0.0
H653 H 0.86821 0.24594 0.65324 0.0
H654 H 0.83401 0.27732 0.6571 0.0
H655 H 0.85171 0.29348 0.67269 0.0
C656 C 0.81481 0.24284 0.62931 0.0
C657 C 0.82025 0.22973 0.62364 0.0
C658 C 0.82383 0.25243 0.63922 0.0
C659 C 0.83858 0.24919 0.6435 0.0
C660 C 0.84333 0.23551 0.63795 0.0
C661 C 0.83433 0.22603 0.62837 0.0
C662 C 0.87357 0.26512 0.66617 0.0
C663 C 0.86963 0.27875 0.67181 0.0
C664 C 0.86369 0.25594 0.65716 0.0
C665 C 0.84904 0.25969 0.65345 0.0
C666 C 0.84493 0.27352 0.65939 0.0
C667 C 0.85511 0.28294 0.66847 0.0
H668 H 0.75144 0.87235 0.70053 0.0
H669 H 0.70685 0.86223 0.68119 0.0
H670 H 0.76149 0.85529 0.6827 0.0
H671 H 0.71602 0.84577 0.66384 0.0
H672 H 0.73267 0.81795 0.62832 0.0
H673 H 0.72416 0.83461 0.6462 0.0
H674 H 0.76975 0.84198 0.66527 0.0
H675 H 0.77769 0.82427 0.64706 0.0
C676 C 0.7438 0.86632 0.6925 0.0
C677 C 0.72841 0.86881 0.692 0.0
C678 C 0.74954 0.85652 0.68203 0.0
C679 C 0.74 0.84918 0.67074 0.0
C680 C 0.72442 0.85118 0.67137 0.0
C681 C 0.7188 0.86068 0.68178 0.0
C682 C 0.74096 0.8237 0.63596 0.0
C683 C 0.75572 0.81986 0.6364 0.0
C684 C 0.736 0.83312 0.64692 0.0
C685 C 0.74589 0.83974 0.65829 0.0
C686 C 0.76134 0.83715 0.65735 0.0
C687 C 0.76616 0.82726 0.64653 0.0
H688 H 0.29614 0.14176 0.2624 0.0
H689 H 0.33067 0.11142 0.2607 0.0
H690 H 0.3118 0.15992 0.24678 0.0
H691 H 0.34638 0.12864 0.24627 0.0
H692 H 0.37619 0.15925 0.21854 0.0
H693 H 0.35981 0.14279 0.23305 0.0
H694 H 0.32622 0.17511 0.23266 0.0
H695 H 0.34382 0.19187 0.21743 0.0
C696 C 0.30716 0.13908 0.25864 0.0
C697 C 0.31234 0.12526 0.26262 0.0
C698 C 0.3163 0.1495 0.24962 0.0
C699 C 0.33084 0.14632 0.2446 0.0
C700 C 0.3356 0.13231 0.24911 0.0
C701 C 0.32646 0.12202 0.25768 0.0
C702 C 0.36531 0.16284 0.2217 0.0
C703 C 0.36141 0.17682 0.21727 0.0
C704 C 0.35549 0.15324 0.23028 0.0
C705 C 0.34111 0.15713 0.23486 0.0
C706 C 0.33703 0.17132 0.22986 0.0
C707 C 0.3471 0.18107 0.22106 0.0
H708 H 0.7917 0.35953 0.23202 0.0
H709 H 0.83146 0.38625 0.21511 0.0
H710 H 0.8074 0.34465 0.24666 0.0
H711 H 0.84757 0.37203 0.2296 0.0
H712 H 0.87715 0.34327 0.25638 0.0
H713 H 0.86193 0.36022 0.24304 0.0
H714 H 0.82126 0.33519 0.26169 0.0
H715 H 0.83617 0.32116 0.27628 0.0
C716 C 0.80394 0.36211 0.23152 0.0
C717 C 0.81051 0.37394 0.2225 0.0
C718 C 0.81327 0.35366 0.24013 0.0
C719 C 0.82942 0.35704 0.2401 0.0
C720 C 0.83554 0.36877 0.23054 0.0
C721 C 0.82624 0.37705 0.222 0.0
C722 C 0.86494 0.34197 0.25785 0.0
C723 C 0.85776 0.32994 0.26642 0.0
C724 C 0.85595 0.35147 0.24983 0.0
C725 C 0.83974 0.34867 0.24992 0.0
C726 C 0.83329 0.33769 0.26004 0.0
C727 C 0.84215 0.32941 0.26882 0.0
H728 H 0.69036 0.82927 0.25641 0.0
H729 H 0.66295 0.86587 0.24836 0.0
H730 H 0.67096 0.81178 0.25055 0.0
H731 H 0.64105 0.84694 0.2443 0.0
H732 H 0.60424 0.80976 0.2332 0.0
H733 H 0.62377 0.82934 0.23928 0.0
H734 H 0.65541 0.79516 0.2431 0.0
H735 H 0.63536 0.77609 0.2369 0.0
C736 C 0.67992 0.83379 0.2533 0.0
C737 C 0.67891 0.84923 0.25176 0.0
C738 C 0.66821 0.82319 0.24976 0.0
C739 C 0.65391 0.82714 0.246 0.0
C740 C 0.65188 0.84289 0.24644 0.0
C741 C 0.66443 0.85397 0.249 0.0
C742 C 0.61546 0.80665 0.23577 0.0
C743 C 0.61846 0.79168 0.23479 0.0
C744 C 0.62688 0.81798 0.23916 0.0
C745 C 0.64168 0.81462 0.24215 0.0
C746 C 0.64448 0.79908 0.24142 0.0
C747 C 0.63292 0.78772 0.23783 0.0
H748 H 0.18828 0.63611 0.25771 0.0
H749 H 0.17344 0.62777 0.21201 0.0
H750 H 0.16992 0.65274 0.26137 0.0
H751 H 0.15337 0.64394 0.21556 0.0
H752 H 0.11796 0.67585 0.22435 0.0
H753 H 0.13576 0.65769 0.21988 0.0
H754 H 0.15318 0.66605 0.26547 0.0
H755 H 0.13549 0.6836 0.26921 0.0
C756 C 0.18019 0.63721 0.24868 0.0
C757 C 0.18185 0.63022 0.23489 0.0
C758 C 0.16949 0.64722 0.25059 0.0
C759 C 0.1591 0.6499 0.23906 0.0
C760 C 0.16053 0.64229 0.22512 0.0
C761 C 0.17186 0.63259 0.22305 0.0
C762 C 0.1252 0.67301 0.23353 0.0
C763 C 0.12551 0.68109 0.24706 0.0
C764 C 0.13596 0.66288 0.23087 0.0
C765 C 0.14692 0.66023 0.24193 0.0
C766 C 0.14576 0.66741 0.2561 0.0
C767 C 0.13506 0.67738 0.25866 0.0
H768 H 0.35272 0.81599 0.74786 0.0
H769 H 0.35945 0.84904 0.78338 0.0
H770 H 0.3362 0.83023 0.73537 0.0
H771 H 0.3435 0.86521 0.76986 0.0
H772 H 0.3138 0.89277 0.74259 0.0
H773 H 0.32946 0.87813 0.75709 0.0
H774 H 0.32207 0.84227 0.72351 0.0
H775 H 0.30667 0.8573 0.7094 0.0
C776 C 0.3512 0.82701 0.75253 0.0
C777 C 0.35768 0.83158 0.76624 0.0
C778 C 0.34127 0.83542 0.74534 0.0
C779 C 0.33816 0.84956 0.75088 0.0
C780 C 0.34539 0.85464 0.76465 0.0
C781 C 0.35491 0.84555 0.77242 0.0
C782 C 0.31539 0.88156 0.73856 0.0
C783 C 0.30906 0.8762 0.72489 0.0
C784 C 0.32463 0.87301 0.74693 0.0
C785 C 0.32765 0.85858 0.74205 0.0
C786 C 0.32065 0.85309 0.72834 0.0
C787 C 0.31148 0.86175 0.71995 0.0
H788 H 0.10285 0.30296 0.75017 0.0
H789 H 0.13466 0.27852 0.72623 0.0
H790 H 0.12251 0.32268 0.75614 0.0
H791 H 0.15474 0.2971 0.73284 0.0
H792 H 0.18986 0.33457 0.73771 0.0
H793 H 0.17044 0.3153 0.73443 0.0
H794 H 0.13953 0.3412 0.75916 0.0
H795 H 0.16091 0.36047 0.76384 0.0
C796 C 0.11434 0.30164 0.74662 0.0
C797 C 0.11728 0.28959 0.73738 0.0
C798 C 0.12576 0.3132 0.74984 0.0
C799 C 0.14066 0.3126 0.74452 0.0
C800 C 0.14371 0.29922 0.73676 0.0
C801 C 0.13213 0.28799 0.7331 0.0
C802 C 0.17887 0.3362 0.74247 0.0
C803 C 0.17706 0.34883 0.75115 0.0
C804 C 0.16732 0.32476 0.74075 0.0
C805 C 0.15279 0.32571 0.74675 0.0
C806 C 0.1504 0.33934 0.75448 0.0
C807 C 0.1626 0.35072 0.75697 0.0
H808 H 0.62853 0.17439 0.7712 0.0
H809 H 0.62725 0.18216 0.72343 0.0
H810 H 0.64635 0.15627 0.76769 0.0
H811 H 0.64518 0.16466 0.71929 0.0
H812 H 0.68191 0.13498 0.71258 0.0
H813 H 0.66247 0.15123 0.71598 0.0
H814 H 0.66306 0.14199 0.76424 0.0
H815 H 0.68202 0.12543 0.76006 0.0
C816 C 0.63162 0.17155 0.75981 0.0
C817 C 0.62641 0.17939 0.74753 0.0
C818 C 0.64239 0.16139 0.75764 0.0
C819 C 0.64816 0.15872 0.74306 0.0
C820 C 0.64177 0.16601 0.7308 0.0
C821 C 0.63086 0.17589 0.73302 0.0
C822 C 0.67703 0.13584 0.72372 0.0
C823 C 0.68295 0.12859 0.73599 0.0
C824 C 0.66596 0.14562 0.72593 0.0
C825 C 0.6603 0.14828 0.74055 0.0
C826 C 0.66629 0.14047 0.75269 0.0
C827 C 0.67707 0.13044 0.75034 0.0
H828 H 0.87745 0.67835 0.73852 0.0
H829 H 0.84434 0.67783 0.70283 0.0
H830 H 0.86082 0.66206 0.75304 0.0
H831 H 0.82659 0.66134 0.71769 0.0
H832 H 0.79704 0.62636 0.74547 0.0
H833 H 0.81254 0.64476 0.73021 0.0
H834 H 0.84773 0.64592 0.76469 0.0
H835 H 0.83196 0.62887 0.7794 0.0
C836 C 0.86633 0.67476 0.73384 0.0
C837 C 0.86247 0.67898 0.71935 0.0
C838 C 0.85646 0.66493 0.74224 0.0
C839 C 0.84196 0.65918 0.73674 0.0
C840 C 0.8376 0.66469 0.72255 0.0
C841 C 0.84778 0.6744 0.71393 0.0
C842 C 0.80804 0.63106 0.74967 0.0
C843 C 0.81325 0.62657 0.76374 0.0
C844 C 0.81714 0.64165 0.74088 0.0
C845 C 0.83179 0.64773 0.74586 0.0
C846 C 0.83673 0.64254 0.75994 0.0
C847 C 0.82752 0.63251 0.76876 0.0
H848 H 0.23795 0.35511 0.20703 0.0
H849 H 0.21801 0.3779 0.1705 0.0
H850 H 0.24762 0.33792 0.18937 0.0
H851 H 0.2271 0.36132 0.15268 0.0
H852 H 0.24394 0.32916 0.11942 0.0
H853 H 0.23604 0.34782 0.13666 0.0
H854 H 0.25809 0.32592 0.17327 0.0
H855 H 0.26726 0.30945 0.15587 0.0
C856 C 0.23586 0.35641 0.19508 0.0
C857 C 0.22752 0.3678 0.18988 0.0
C858 C 0.24141 0.34654 0.18465 0.0
C859 C 0.23881 0.34806 0.16885 0.0
C860 C 0.22997 0.35944 0.16426 0.0
C861 C 0.2246 0.36916 0.17459 0.0
C862 C 0.24748 0.32895 0.13111 0.0
C863 C 0.25533 0.31722 0.13656 0.0
C864 C 0.24256 0.33945 0.14138 0.0
C865 C 0.24528 0.33819 0.15719 0.0
C866 C 0.25473 0.32738 0.16176 0.0
C867 C 0.26033 0.31778 0.15149 0.0
H868 H 0.28452 0.66038 0.86 0.0
H869 H 0.24681 0.68545 0.8502 0.0
H870 H 0.27452 0.64077 0.84232 0.0
H871 H 0.23741 0.66766 0.83242 0.0
H872 H 0.2192 0.63563 0.79814 0.0
H873 H 0.23041 0.65419 0.81484 0.0
H874 H 0.26597 0.62554 0.82518 0.0
H875 H 0.25437 0.60721 0.80774 0.0
C876 C 0.27389 0.66143 0.85426 0.0
C877 C 0.26624 0.67428 0.85639 0.0
C878 C 0.26818 0.65035 0.84374 0.0
C879 C 0.25511 0.65235 0.8349 0.0
C880 C 0.24754 0.6651 0.83805 0.0
C881 C 0.25278 0.67552 0.84878 0.0
C882 C 0.22955 0.63351 0.80388 0.0
C883 C 0.23569 0.61989 0.80201 0.0
C884 C 0.23611 0.64418 0.81399 0.0
C885 C 0.24907 0.64153 0.82266 0.0
C886 C 0.25587 0.62826 0.8195 0.0
C887 C 0.24931 0.61766 0.8092 0.0
H888 H 0.30927 0.25429 0.88984 0.0
H889 H 0.29615 0.2799 0.85173 0.0
H890 H 0.32545 0.2412 0.87431 0.0
H891 H 0.31133 0.26638 0.83555 0.0
H892 H 0.34438 0.24681 0.80753 0.0
H893 H 0.32749 0.25759 0.82311 0.0
H894 H 0.34125 0.23095 0.86096 0.0
H895 H 0.35747 0.2186 0.84365 0.0
C896 C 0.30968 0.25686 0.87789 0.0
C897 C 0.30172 0.26821 0.87201 0.0
C898 C 0.31922 0.24937 0.86881 0.0
C899 C 0.32081 0.25269 0.85334 0.0
C900 C 0.3116 0.26343 0.84729 0.0
C901 C 0.30243 0.27128 0.85656 0.0
C902 C 0.34385 0.24329 0.81927 0.0
C903 C 0.35204 0.23188 0.82428 0.0
C904 C 0.33376 0.24946 0.82852 0.0
C905 C 0.33208 0.24535 0.84377 0.0
C906 C 0.34153 0.23455 0.84935 0.0
C907 C 0.3512 0.22755 0.83953 0.0
H908 H 0.76805 0.36686 0.83724 0.0
H909 H 0.74274 0.34066 0.80293 0.0
H910 H 0.7577 0.34872 0.8563 0.0
H911 H 0.73332 0.32277 0.82041 0.0
H912 H 0.7142 0.28827 0.85229 0.0
H913 H 0.72607 0.30571 0.83457 0.0
H914 H 0.74912 0.33144 0.87143 0.0
H915 H 0.73731 0.31318 0.8887 0.0
C916 C 0.76018 0.35727 0.83388 0.0
C917 C 0.7562 0.35493 0.81862 0.0
C918 C 0.7543 0.34658 0.84475 0.0
C919 C 0.74469 0.33335 0.84035 0.0
C920 C 0.74072 0.33197 0.82504 0.0
C921 C 0.74611 0.34258 0.81461 0.0
C922 C 0.72199 0.29764 0.85636 0.0
C923 C 0.72475 0.29963 0.87172 0.0
C924 C 0.72886 0.30813 0.84617 0.0
C925 C 0.73846 0.32111 0.85116 0.0
C926 C 0.74172 0.32222 0.86669 0.0
C927 C 0.73505 0.31155 0.87676 0.0
H928 H 0.67634 0.74293 0.87348 0.0
H929 H 0.69817 0.72236 0.83651 0.0
H930 H 0.65392 0.74482 0.85723 0.0
H931 H 0.67937 0.72667 0.82065 0.0
H932 H 0.64427 0.72912 0.78904 0.0
H933 H 0.66273 0.72828 0.80636 0.0
H934 H 0.63502 0.74705 0.84073 0.0
H935 H 0.61599 0.74989 0.82068 0.0
C936 C 0.67635 0.73878 0.862 0.0
C937 C 0.68937 0.73306 0.85605 0.0
C938 C 0.66364 0.74017 0.8525 0.0
C939 C 0.66406 0.73619 0.83698 0.0
C940 C 0.67719 0.73003 0.83194 0.0
C941 C 0.68878 0.72754 0.84141 0.0
C942 C 0.64195 0.73331 0.80022 0.0
C943 C 0.62882 0.73988 0.80312 0.0
C944 C 0.65302 0.73286 0.81085 0.0
C945 C 0.65129 0.73771 0.82584 0.0
C946 C 0.63728 0.74331 0.82944 0.0
C947 C 0.62615 0.74467 0.81803 0.0
H948 H 0.76349 0.69989 0.11868 0.0
H949 H 0.718 0.67905 0.12679 0.0
H950 H 0.77329 0.68289 0.1367 0.0
H951 H 0.72692 0.66249 0.14421 0.0
H952 H 0.74265 0.62807 0.17336 0.0
H953 H 0.7345 0.64537 0.15602 0.0
H954 H 0.78113 0.66611 0.15093 0.0
H955 H 0.78874 0.64852 0.16951 0.0
C956 C 0.75559 0.69172 0.12449 0.0
C957 C 0.73999 0.6905 0.1211 0.0
C958 C 0.76119 0.68172 0.13484 0.0
C959 C 0.75127 0.67022 0.1419 0.0
C960 C 0.73556 0.6702 0.13905 0.0
C961 C 0.7301 0.68015 0.12899 0.0
C962 C 0.7512 0.63595 0.16798 0.0
C963 C 0.76622 0.63699 0.17268 0.0
C964 C 0.7465 0.64658 0.15815 0.0
C965 C 0.75685 0.65821 0.1519 0.0
C966 C 0.77242 0.65792 0.15541 0.0
C967 C 0.77701 0.64748 0.1658 0.0
H968 H 0.37115 0.79454 0.15116 0.0
H969 H 0.36295 0.76315 0.18783 0.0
H970 H 0.35473 0.77884 0.13531 0.0
H971 H 0.34566 0.74685 0.17221 0.0
H972 H 0.31486 0.7172 0.14076 0.0
H973 H 0.3302 0.7333 0.15814 0.0
H974 H 0.33958 0.76599 0.12192 0.0
H975 H 0.32454 0.74994 0.10536 0.0
C976 C 0.36527 0.78431 0.15592 0.0
C977 C 0.36801 0.78025 0.17074 0.0
C978 C 0.35566 0.7749 0.14669 0.0
C979 C 0.34793 0.76114 0.15204 0.0
C980 C 0.3508 0.75721 0.16722 0.0
C981 C 0.36072 0.76664 0.17641 0.0
C982 C 0.32027 0.72796 0.13676 0.0
C983 C 0.31882 0.7322 0.12161 0.0
C984 C 0.32932 0.73733 0.14674 0.0
C985 C 0.33721 0.7512 0.14182 0.0
C986 C 0.33463 0.75553 0.12674 0.0
C987 C 0.32558 0.74627 0.11693 0.0
H988 H 0.67552 0.27031 0.14739 0.0
H989 H 0.66364 0.22748 0.12562 0.0
H990 H 0.65744 0.26381 0.16693 0.0
H991 H 0.64472 0.22087 0.14407 0.0
H992 H 0.61402 0.20649 0.18063 0.0
H993 H 0.63156 0.21404 0.16201 0.0
H994 H 0.64326 0.25688 0.18534 0.0
H995 H 0.6243 0.24866 0.20433 0.0
C996 C 0.66829 0.2597 0.14646 0.0
C997 C 0.67109 0.24925 0.13532 0.0
C998 C 0.65805 0.25567 0.15802 0.0
C999 C 0.64951 0.24136 0.15817 0.0
C1000 C 0.65101 0.2318 0.14547 0.0
C1001 C 0.66163 0.23574 0.13417 0.0
C1002 C 0.62045 0.2175 0.18191 0.0
C1003 C 0.6178 0.22689 0.19387 0.0
C1004 C 0.63072 0.22217 0.17082 0.0
C1005 C 0.63912 0.23652 0.17117 0.0
C1006 C 0.63705 0.24586 0.18392 0.0
C1007 C 0.62621 0.24118 0.19505 0.0
H1008 H 0.8651 0.75035 0.6715 0.0
H1009 H 0.83773 0.71018 0.65625 0.0
H1010 H 0.84847 0.76592 0.65734 0.0
H1011 H 0.82219 0.72404 0.6431 0.0
H1012 H 0.79063 0.74722 0.61768 0.0
H1013 H 0.80697 0.73493 0.6325 0.0
H1014 H 0.83257 0.77808 0.6442 0.0
H1015 H 0.81504 0.79038 0.62816 0.0
C1016 C 0.85557 0.74491 0.66516 0.0
C1017 C 0.85245 0.729 0.66512 0.0
C1018 C 0.84591 0.75378 0.65703 0.0
C1019 C 0.83317 0.74674 0.64883 0.0
C1020 C 0.83097 0.73085 0.64902 0.0
C1021 C 0.84025 0.72239 0.65685 0.0
C1022 C 0.79973 0.75404 0.62353 0.0
C1023 C 0.80166 0.76955 0.62182 0.0
C1024 C 0.80971 0.74694 0.63223 0.0
C1025 C 0.82213 0.75511 0.63989 0.0
C1026 C 0.82358 0.77105 0.63857 0.0
C1027 C 0.81348 0.77821 0.62944 0.0
H1028 H 0.20344 0.81194 0.62175 0.0
H1029 H 0.24416 0.78989 0.62455 0.0
H1030 H 0.21414 0.83152 0.63916 0.0
H1031 H 0.25497 0.80814 0.64111 0.0
H1032 H 0.27691 0.84133 0.66997 0.0
H1033 H 0.26461 0.82427 0.6544 0.0
H1034 H 0.22502 0.84936 0.6537 0.0
H1035 H 0.23941 0.86852 0.66982 0.0
C1036 C 0.21472 0.81136 0.62628 0.0
C1037 C 0.22317 0.79966 0.62193 0.0
C1038 C 0.22098 0.82264 0.63623 0.0
C1039 C 0.23585 0.82238 0.6419 0.0
C1040 C 0.24377 0.80997 0.63754 0.0
C1041 C 0.2375 0.79889 0.62785 0.0
C1042 C 0.26547 0.84339 0.66688 0.0
C1043 C 0.25935 0.85638 0.67124 0.0
C1044 C 0.25797 0.83316 0.65736 0.0
C1045 C 0.24323 0.83456 0.6522 0.0
C1046 C 0.23635 0.84747 0.65716 0.0
C1047 C 0.24449 0.85848 0.66655 0.0
H1048 H 0.19214 0.25195 0.63477 0.0
H1049 H 0.17415 0.20497 0.63637 0.0
H1050 H 0.17311 0.25786 0.6525 0.0
H1051 H 0.15665 0.20973 0.65476 0.0
H1052 H 0.12221 0.21893 0.68901 0.0
H1053 H 0.14207 0.21286 0.67212 0.0
H1054 H 0.15685 0.2612 0.66795 0.0
H1055 H 0.13665 0.26639 0.68286 0.0
C1056 C 0.184 0.24299 0.63902 0.0
C1057 C 0.1845 0.228 0.6346 0.0
C1058 C 0.17302 0.24613 0.64954 0.0
C1059 C 0.16305 0.23413 0.65611 0.0
C1060 C 0.16382 0.21946 0.65086 0.0
C1061 C 0.17393 0.21662 0.63994 0.0
C1062 C 0.12972 0.22796 0.68394 0.0
C1063 C 0.12806 0.24311 0.68692 0.0
C1064 C 0.14131 0.22468 0.67415 0.0
C1065 C 0.15139 0.23662 0.66764 0.0
C1066 C 0.14963 0.25146 0.67173 0.0
C1067 C 0.13784 0.2546 0.68057 0.0
H1068 H 0.79208 0.16279 0.6465 0.0
H1069 H 0.74956 0.17687 0.63142 0.0
H1070 H 0.78017 0.14749 0.66442 0.0
H1071 H 0.736 0.15921 0.64956 0.0
H1072 H 0.71536 0.12374 0.68393 0.0
H1073 H 0.72575 0.14216 0.66522 0.0
H1074 H 0.77094 0.13157 0.67824 0.0
H1075 H 0.7604 0.11471 0.69631 0.0
C1076 C 0.77976 0.16215 0.64696 0.0
C1077 C 0.77186 0.1709 0.6376 0.0
C1078 C 0.77248 0.15288 0.65749 0.0
C1079 C 0.75657 0.1509 0.65872 0.0
C1080 C 0.74823 0.15983 0.64908 0.0
C1081 C 0.7559 0.16992 0.63855 0.0
C1082 C 0.72756 0.12597 0.68265 0.0
C1083 C 0.73727 0.11837 0.69165 0.0
C1084 C 0.73362 0.13651 0.67188 0.0
C1085 C 0.7495 0.13948 0.66995 0.0
C1086 C 0.75883 0.131 0.67895 0.0
C1087 C 0.75281 0.12086 0.68966 0.0
H1088 H 0.81718 0.21491 0.35039 0.0
H1089 H 0.82272 0.25069 0.38319 0.0
H1090 H 0.83412 0.22967 0.33341 0.0
H1091 H 0.83906 0.26594 0.36665 0.0
H1092 H 0.87099 0.2938 0.33551 0.0
H1093 H 0.85395 0.27914 0.35255 0.0
H1094 H 0.84887 0.24286 0.31933 0.0
H1095 H 0.86499 0.25803 0.30271 0.0
C1096 C 0.82206 0.22608 0.35384 0.0
C1097 C 0.81873 0.23174 0.36805 0.0
C1098 C 0.83199 0.23481 0.34408 0.0
C1099 C 0.83864 0.24956 0.34818 0.0
C1100 C 0.83479 0.25492 0.36252 0.0
C1101 C 0.82523 0.2461 0.37226 0.0
C1102 C 0.8658 0.28277 0.33197 0.0
C1103 C 0.86902 0.27706 0.31776 0.0
C1104 C 0.85594 0.27407 0.34181 0.0
C1105 C 0.84929 0.25929 0.33776 0.0
C1106 C 0.85302 0.25394 0.32339 0.0
C1107 C 0.86238 0.26278 0.31354 0.0
H1108 H 0.75406 0.8383 0.36988 0.0
H1109 H 0.75769 0.80445 0.3358 0.0
H1110 H 0.74413 0.85433 0.35191 0.0
H1111 H 0.74846 0.82029 0.31722 0.0
H1112 H 0.73229 0.85129 0.28283 0.0
H1113 H 0.74055 0.83434 0.30113 0.0
H1114 H 0.73572 0.86802 0.33601 0.0
H1115 H 0.72781 0.88454 0.31744 0.0
C1116 C 0.75183 0.83397 0.35857 0.0
C1117 C 0.75671 0.82028 0.35411 0.0
C1118 C 0.7465 0.84346 0.34781 0.0
C1119 C 0.74512 0.83913 0.33242 0.0
C1120 C 0.7489 0.82459 0.32857 0.0
C1121 C 0.75389 0.81505 0.33942 0.0
C1122 C 0.73306 0.85491 0.2945 0.0
C1123 C 0.72987 0.86942 0.29866 0.0
C1124 C 0.738 0.84513 0.30528 0.0
C1125 C 0.73958 0.84946 0.32065 0.0
C1126 C 0.73538 0.8638 0.32464 0.0
C1127 C 0.73058 0.87354 0.31385 0.0
H1128 H 0.13301 0.7413 0.28026 0.0
H1129 H 0.10111 0.72144 0.31322 0.0
H1130 H 0.15122 0.74784 0.29958 0.0
H1131 H 0.11888 0.72776 0.33289 0.0
H1132 H 0.15266 0.74061 0.36918 0.0
H1133 H 0.13477 0.73228 0.34989 0.0
H1134 H 0.16758 0.7505 0.31612 0.0
H1135 H 0.18529 0.75695 0.33552 0.0
C1136 C 0.13006 0.73816 0.29178 0.0
C1137 C 0.11572 0.7309 0.2953 0.0
C1138 C 0.1406 0.74194 0.30319 0.0
C1139 C 0.13722 0.73818 0.31847 0.0
C1140 C 0.12261 0.7309 0.32167 0.0
C1141 C 0.11215 0.72715 0.31025 0.0
C1142 C 0.15618 0.7418 0.3575 0.0
C1143 C 0.16986 0.75024 0.35369 0.0
C1144 C 0.1456 0.73762 0.34615 0.0
C1145 C 0.14885 0.74132 0.3308 0.0
C1146 C 0.16374 0.74768 0.32737 0.0
C1147 C 0.17441 0.75095 0.33864 0.0
H1148 H 0.28875 0.15128 0.3225 0.0
H1149 H 0.24479 0.12632 0.31539 0.0
H1150 H 0.27872 0.16814 0.33764 0.0
H1151 H 0.23345 0.14402 0.33234 0.0
H1152 H 0.21779 0.17794 0.36686 0.0
H1153 H 0.22562 0.15962 0.3488 0.0
H1154 H 0.27204 0.18133 0.35376 0.0
H1155 H 0.2637 0.19904 0.37009 0.0
C1156 C 0.27657 0.14949 0.32439 0.0
C1157 C 0.2677 0.13751 0.31782 0.0
C1158 C 0.27047 0.15933 0.33372 0.0
C1159 C 0.25499 0.15772 0.33749 0.0
C1160 C 0.24554 0.14576 0.33035 0.0
C1161 C 0.25194 0.13555 0.32058 0.0
C1162 C 0.2296 0.17858 0.36349 0.0
C1163 C 0.24026 0.18977 0.36945 0.0
C1164 C 0.23419 0.16807 0.35315 0.0
C1165 C 0.24956 0.16864 0.34875 0.0
C1166 C 0.26 0.18 0.35548 0.0
C1167 C 0.25534 0.19052 0.36531 0.0
H1168 H 0.63205 0.77629 0.74285 0.0
H1169 H 0.60691 0.80795 0.76616 0.0
H1170 H 0.65189 0.79591 0.73754 0.0
H1171 H 0.62642 0.82789 0.76118 0.0
H1172 H 0.66314 0.86495 0.75014 0.0
H1173 H 0.64382 0.84523 0.75758 0.0
H1174 H 0.67012 0.81235 0.73643 0.0
H1175 H 0.68976 0.83172 0.7318 0.0
C1176 C 0.63095 0.78757 0.747 0.0
C1177 C 0.61795 0.79068 0.75483 0.0
C1178 C 0.64248 0.79915 0.74398 0.0
C1179 C 0.64155 0.81415 0.74913 0.0
C1180 C 0.62827 0.81691 0.75697 0.0
C1181 C 0.61681 0.80533 0.75993 0.0
C1182 C 0.665 0.8533 0.7481 0.0
C1183 C 0.67728 0.84981 0.73935 0.0
C1184 C 0.65352 0.84176 0.75176 0.0
C1185 C 0.65433 0.82663 0.74684 0.0
C1186 C 0.66803 0.82345 0.74009 0.0
C1187 C 0.67983 0.8347 0.73778 0.0
H1188 H 0.12687 0.68736 0.76476 0.0
H1189 H 0.1241 0.66699 0.72056 0.0
H1190 H 0.14545 0.67093 0.77192 0.0
H1191 H 0.14392 0.65286 0.72596 0.0
H1192 H 0.17988 0.62355 0.73713 0.0
H1193 H 0.16213 0.64093 0.72958 0.0
H1194 H 0.16234 0.65776 0.77592 0.0
H1195 H 0.17914 0.64093 0.78255 0.0
C1196 C 0.13028 0.6792 0.75672 0.0
C1197 C 0.12435 0.6783 0.74212 0.0
C1198 C 0.14138 0.66986 0.7605 0.0
C1199 C 0.14725 0.66041 0.74931 0.0
C1200 C 0.14052 0.6597 0.73507 0.0
C1201 C 0.12871 0.66778 0.73192 0.0
C1202 C 0.17589 0.63118 0.74538 0.0
C1203 C 0.18069 0.63099 0.76042 0.0
C1204 C 0.16548 0.64123 0.74125 0.0
C1205 C 0.15968 0.65085 0.7523 0.0
C1206 C 0.16554 0.65073 0.76688 0.0
C1207 C 0.17564 0.64097 0.77082 0.0
H1208 H 0.34169 0.18491 0.78331 0.0
H1209 H 0.37881 0.16938 0.75858 0.0
H1210 H 0.32398 0.16691 0.77004 0.0
H1211 H 0.36199 0.15215 0.74493 0.0
H1212 H 0.33063 0.11891 0.71966 0.0
H1213 H 0.34766 0.13674 0.73308 0.0
H1214 H 0.30933 0.15118 0.75792 0.0
H1215 H 0.29269 0.13353 0.74376 0.0
C1216 C 0.34598 0.1775 0.77501 0.0
C1217 C 0.36159 0.17823 0.77209 0.0
C1218 C 0.33581 0.16704 0.76719 0.0
C1219 C 0.34103 0.15737 0.75598 0.0
C1220 C 0.35682 0.15871 0.75325 0.0
C1221 C 0.36682 0.16876 0.76127 0.0
C1222 C 0.32599 0.12619 0.72785 0.0
C1223 C 0.31039 0.12493 0.73064 0.0
C1224 C 0.33584 0.13663 0.73586 0.0
C1225 C 0.33039 0.14613 0.74708 0.0
C1226 C 0.31454 0.14464 0.74957 0.0
C1227 C 0.30473 0.13445 0.74127 0.0
H1228 H 0.82062 0.36802 0.78693 0.0
H1229 H 0.79835 0.37661 0.74524 0.0
H1230 H 0.83817 0.35327 0.77347 0.0
H1231 H 0.8145 0.36267 0.73192 0.0
H1232 H 0.84507 0.34074 0.70515 0.0
H1233 H 0.8294 0.35249 0.7201 0.0
H1234 H 0.85419 0.34112 0.76019 0.0
H1235 H 0.87097 0.32809 0.74345 0.0
C1236 C 0.8195 0.36657 0.77484 0.0
C1237 C 0.80828 0.37335 0.76694 0.0
C1238 C 0.82961 0.35816 0.76701 0.0
C1239 C 0.82868 0.35652 0.75114 0.0
C1240 C 0.81681 0.36324 0.74378 0.0
C1241 C 0.80693 0.37141 0.75151 0.0
C1242 C 0.84728 0.34034 0.71718 0.0
C1243 C 0.85924 0.33327 0.72285 0.0
C1244 C 0.83791 0.34747 0.72631 0.0
C1245 C 0.8397 0.34818 0.74205 0.0
C1246 C 0.852 0.34104 0.7482 0.0
C1247 C 0.86175 0.33356 0.73863 0.0
H1248 H 0.69845 0.145 0.2481 0.0
H1249 H 0.6618 0.11208 0.26176 0.0
H1250 H 0.68069 0.16265 0.24228 0.0
H1251 H 0.64409 0.12931 0.25748 0.0
H1252 H 0.6111 0.16232 0.25104 0.0
H1253 H 0.62896 0.14512 0.25691 0.0
H1254 H 0.66547 0.17882 0.24221 0.0
H1255 H 0.64729 0.19604 0.23837 0.0
C1256 C 0.6864 0.14136 0.24911 0.0
C1257 C 0.68141 0.12736 0.25553 0.0
C1258 C 0.67601 0.15174 0.24639 0.0
C1259 C 0.66041 0.14819 0.25002 0.0
C1260 C 0.65565 0.13329 0.25472 0.0
C1261 C 0.66592 0.12287 0.25674 0.0
C1262 C 0.62309 0.16623 0.25018 0.0
C1263 C 0.62791 0.17999 0.2433 0.0
C1264 C 0.63363 0.15601 0.25284 0.0
C1265 C 0.64923 0.15971 0.24918 0.0
C1266 C 0.65389 0.17473 0.2448 0.0
C1267 C 0.64339 0.18507 0.24312 0.0
H1268 H 0.81179 0.61289 0.24897 0.0
H1269 H 0.81536 0.64234 0.21043 0.0
H1270 H 0.82843 0.63039 0.26306 0.0
H1271 H 0.83268 0.66029 0.22404 0.0
H1272 H 0.86222 0.69385 0.25112 0.0
H1273 H 0.84574 0.67625 0.23701 0.0
H1274 H 0.84171 0.64626 0.27596 0.0
H1275 H 0.85915 0.66414 0.28947 0.0
C1276 C 0.81624 0.62339 0.2436 0.0
C1277 C 0.81204 0.62653 0.22891 0.0
C1278 C 0.82596 0.6337 0.25174 0.0
C1279 C 0.83206 0.64761 0.2454 0.0
C1280 C 0.82825 0.65028 0.23008 0.0
C1281 C 0.8182 0.63994 0.22201 0.0
C1282 C 0.85758 0.68348 0.2566 0.0
C1283 C 0.86187 0.6803 0.27124 0.0
C1284 C 0.84809 0.67302 0.24838 0.0
C1285 C 0.84212 0.65905 0.25468 0.0
C1286 C 0.84593 0.65638 0.27 0.0
C1287 C 0.8559 0.66677 0.27807 0.0
H1288 H 0.32215 0.89488 0.25662 0.0
H1289 H 0.29686 0.85402 0.27286 0.0
H1290 H 0.33869 0.88098 0.24349 0.0
H1291 H 0.31413 0.83904 0.25974 0.0
H1292 H 0.34529 0.81366 0.2301 0.0
H1293 H 0.32862 0.82664 0.24619 0.0
H1294 H 0.35211 0.86934 0.23054 0.0
H1295 H 0.36877 0.8563 0.2165 0.0
C1296 C 0.32029 0.88267 0.25745 0.0
C1297 C 0.30811 0.87562 0.26557 0.0
C1298 C 0.32989 0.87428 0.24954 0.0
C1299 C 0.32804 0.85827 0.24961 0.0
C1300 C 0.31612 0.85116 0.25868 0.0
C1301 C 0.30615 0.85975 0.26641 0.0
C1302 C 0.34723 0.82585 0.23113 0.0
C1303 C 0.35869 0.83407 0.22262 0.0
C1304 C 0.33739 0.83347 0.2401 0.0
C1305 C 0.33862 0.84951 0.24045 0.0
C1306 C 0.35036 0.85728 0.23168 0.0
C1307 C 0.36047 0.84971 0.22351 0.0
H1308 H 0.11139 0.3024 0.27266 0.0
H1309 H 0.1267 0.27694 0.23552 0.0
H1310 H 0.13099 0.3228 0.26776 0.0
H1311 H 0.14594 0.29655 0.23006 0.0
H1312 H 0.18337 0.33016 0.22242 0.0
H1313 H 0.16293 0.31296 0.22658 0.0
H1314 H 0.14719 0.34157 0.26189 0.0
H1315 H 0.1661 0.36187 0.25308 0.0
C1316 C 0.11914 0.30129 0.26338 0.0
C1317 C 0.11749 0.28841 0.25424 0.0
C1318 C 0.13043 0.3131 0.26041 0.0
C1319 C 0.14046 0.31227 0.24821 0.0
C1320 C 0.13897 0.29866 0.23955 0.0
C1321 C 0.12777 0.28691 0.24264 0.0
C1322 C 0.17538 0.33323 0.23084 0.0
C1323 C 0.17554 0.34795 0.23612 0.0
C1324 C 0.16314 0.32288 0.23346 0.0
C1325 C 0.1526 0.32504 0.24479 0.0
C1326 C 0.15462 0.33906 0.25281 0.0
C1327 C 0.16584 0.35069 0.24818 0.0
H1328 H 0.72439 0.69529 0.85417 0.0
H1329 H 0.76067 0.68637 0.88401 0.0
H1330 H 0.73191 0.67668 0.83637 0.0
H1331 H 0.76896 0.66911 0.86697 0.0
H1332 H 0.78253 0.63383 0.83869 0.0
H1333 H 0.77418 0.65197 0.8541 0.0
H1334 H 0.73921 0.66001 0.8213 0.0
H1335 H 0.75011 0.64237 0.80439 0.0
C1336 C 0.73409 0.68931 0.85676 0.0
C1337 C 0.74191 0.69189 0.87043 0.0
C1338 C 0.73851 0.67856 0.84656 0.0
C1339 C 0.75104 0.67048 0.84977 0.0
C1340 C 0.759 0.67399 0.86344 0.0
C1341 C 0.75434 0.68426 0.8736 0.0
C1342 C 0.77273 0.63915 0.8349 0.0
C1343 C 0.76698 0.63668 0.82048 0.0
C1344 C 0.76791 0.65026 0.84379 0.0
C1345 C 0.75582 0.65839 0.83944 0.0
C1346 C 0.74867 0.6545 0.82539 0.0
C1347 C 0.75455 0.64401 0.81573 0.0
H1348 H 0.74662 0.37072 0.16035 0.0
H1349 H 0.77022 0.33531 0.17945 0.0
H1350 H 0.73214 0.35198 0.14434 0.0
H1351 H 0.75989 0.31839 0.16188 0.0
H1352 H 0.73984 0.28422 0.13073 0.0
H1353 H 0.75089 0.30268 0.14731 0.0
H1354 H 0.72114 0.33471 0.13008 0.0
H1355 H 0.71066 0.31538 0.11263 0.0
C1356 C 0.74862 0.35896 0.1612 0.0
C1357 C 0.76024 0.3546 0.17052 0.0
C1358 C 0.74067 0.34814 0.15163 0.0
C1359 C 0.74471 0.33308 0.15098 0.0
C1360 C 0.75579 0.32925 0.16121 0.0
C1361 C 0.76203 0.33932 0.17174 0.0
C1362 C 0.73565 0.29523 0.13064 0.0
C1363 C 0.72465 0.29849 0.12035 0.0
C1364 C 0.74213 0.30632 0.14028 0.0
C1365 C 0.73746 0.32111 0.14041 0.0
C1366 C 0.72562 0.32394 0.13048 0.0
C1367 C 0.7194 0.31278 0.12046 0.0
H1368 H 0.64557 0.74052 0.20352 0.0
H1369 H 0.6137 0.73928 0.16685 0.0
H1370 H 0.66568 0.73733 0.18644 0.0
H1371 H 0.63309 0.73545 0.1494 0.0
H1372 H 0.67022 0.7327 0.11696 0.0
H1373 H 0.65057 0.73634 0.13412 0.0
H1374 H 0.68338 0.73865 0.17098 0.0
H1375 H 0.70268 0.73455 0.15319 0.0
C1376 C 0.64276 0.7385 0.19173 0.0
C1377 C 0.62843 0.74099 0.18631 0.0
C1378 C 0.65454 0.73731 0.18159 0.0
C1379 C 0.65181 0.7369 0.16585 0.0
C1380 C 0.6365 0.73632 0.16103 0.0
C1381 C 0.62488 0.73784 0.17124 0.0
C1382 C 0.67326 0.73482 0.12867 0.0
C1383 C 0.68771 0.73272 0.13392 0.0
C1384 C 0.66171 0.73636 0.13894 0.0
C1385 C 0.66459 0.73702 0.15465 0.0
C1386 C 0.67993 0.73762 0.15935 0.0
C1387 C 0.6914 0.73588 0.149 0.0
H1388 H 0.25906 0.61729 0.19583 0.0
H1389 H 0.21405 0.62421 0.18132 0.0
H1390 H 0.26971 0.63433 0.17798 0.0
H1391 H 0.22452 0.64248 0.1625 0.0
H1392 H 0.24843 0.67728 0.12883 0.0
H1393 H 0.23477 0.65952 0.14681 0.0
H1394 H 0.27888 0.65048 0.16436 0.0
H1395 H 0.29098 0.66549 0.14632 0.0
C1396 C 0.25148 0.62298 0.18873 0.0
C1397 C 0.23592 0.61988 0.1901 0.0
C1398 C 0.25755 0.6332 0.17812 0.0
C1399 C 0.24824 0.64102 0.16845 0.0
C1400 C 0.23235 0.63737 0.16969 0.0
C1401 C 0.22625 0.6269 0.18051 0.0
C1402 C 0.25477 0.67087 0.1365 0.0
C1403 C 0.27076 0.67248 0.13624 0.0
C1404 C 0.24703 0.66073 0.14694 0.0
C1405 C 0.25534 0.65249 0.15728 0.0
C1406 C 0.27126 0.65523 0.15682 0.0
C1407 C 0.27864 0.6644 0.14627 0.0
H1408 H 0.29881 0.24721 0.10688 0.0
H1409 H 0.30642 0.28723 0.13421 0.0
H1410 H 0.31543 0.23506 0.1215 0.0
H1411 H 0.32415 0.27498 0.15009 0.0
H1412 H 0.35492 0.24714 0.17909 0.0
H1413 H 0.33862 0.26255 0.16447 0.0
H1414 H 0.32848 0.2238 0.13462 0.0
H1415 H 0.3455 0.2108 0.14723 0.0
C1416 C 0.30416 0.25329 0.11644 0.0
C1417 C 0.30123 0.2679 0.11958 0.0
C1418 C 0.31401 0.24623 0.12532 0.0
C1419 C 0.32144 0.25345 0.138 0.0
C1420 C 0.31865 0.26856 0.1409 0.0
C1421 C 0.30846 0.27568 0.13182 0.0
C1422 C 0.34957 0.24263 0.16881 0.0
C1423 C 0.3517 0.22796 0.16386 0.0
C1424 C 0.33996 0.25131 0.16048 0.0
C1425 C 0.33198 0.24508 0.14756 0.0
C1426 C 0.33424 0.23015 0.14357 0.0
C1427 C 0.34433 0.22222 0.15103 0.0
H1428 H 0.24293 0.32894 0.87151 0.0
H1429 H 0.26648 0.30957 0.83498 0.0
H1430 H 0.23087 0.3444 0.85331 0.0
H1431 H 0.25885 0.32692 0.81836 0.0
H1432 H 0.24339 0.35738 0.78478 0.0
H1433 H 0.25209 0.34124 0.80292 0.0
H1434 H 0.22201 0.35811 0.83641 0.0
H1435 H 0.21404 0.37504 0.81742 0.0
C1436 C 0.24542 0.3279 0.85962 0.0
C1437 C 0.25641 0.31873 0.85472 0.0
C1438 C 0.23893 0.33719 0.84908 0.0
C1439 C 0.24386 0.33774 0.83377 0.0
C1440 C 0.25419 0.32763 0.82946 0.0
C1441 C 0.25881 0.31724 0.83933 0.0
C1442 C 0.23861 0.35746 0.79603 0.0
C1443 C 0.22828 0.3675 0.7998 0.0
C1444 C 0.2437 0.34808 0.80694 0.0
C1445 C 0.23821 0.34802 0.82202 0.0
C1446 C 0.22705 0.35768 0.82537 0.0
C1447 C 0.22227 0.3674 0.81441 0.0
H1448 H 0.65007 0.25839 0.86619 0.0
H1449 H 0.6864 0.23938 0.8433 0.0
H1450 H 0.63391 0.25242 0.84624 0.0
H1451 H 0.66918 0.23072 0.82305 0.0
H1452 H 0.6347 0.21749 0.78606 0.0
H1453 H 0.65315 0.2236 0.80594 0.0
H1454 H 0.6191 0.24657 0.82967 0.0
H1455 H 0.60194 0.24056 0.81024 0.0
C1456 C 0.65418 0.2516 0.8572 0.0
C1457 C 0.66934 0.24911 0.85641 0.0
C1458 C 0.64477 0.24828 0.8451 0.0
C1459 C 0.64945 0.24035 0.83245 0.0
C1460 C 0.66457 0.23649 0.83239 0.0
C1461 C 0.67448 0.24097 0.84428 0.0
C1462 C 0.63161 0.22407 0.79563 0.0
C1463 C 0.61711 0.22887 0.79659 0.0
C1464 C 0.64219 0.22767 0.80718 0.0
C1465 C 0.63842 0.2362 0.81986 0.0
C1466 C 0.6235 0.24044 0.82056 0.0
C1467 C 0.61316 0.23686 0.80919 0.0
H1468 H 0.33828 0.72811 0.88066 0.0
H1469 H 0.29964 0.73827 0.85458 0.0
H1470 H 0.35492 0.74309 0.86412 0.0
H1471 H 0.31594 0.75341 0.83768 0.0
H1472 H 0.34728 0.78362 0.808 0.0
H1473 H 0.33005 0.76883 0.82465 0.0
H1474 H 0.3687 0.75864 0.85166 0.0
H1475 H 0.38518 0.77333 0.83515 0.0
C1476 C 0.33338 0.73361 0.87122 0.0
C1477 C 0.31765 0.73243 0.86922 0.0
C1478 C 0.343 0.74257 0.86156 0.0
C1479 C 0.33722 0.75065 0.84942 0.0
C1480 C 0.32136 0.74822 0.84689 0.0
C1481 C 0.31178 0.73923 0.85659 0.0
C1482 C 0.35188 0.77819 0.81765 0.0
C1483 C 0.36761 0.77924 0.82004 0.0
C1484 C 0.34196 0.7694 0.82731 0.0
C1485 C 0.34754 0.76134 0.83959 0.0
C1486 C 0.36335 0.7637 0.84234 0.0
C1487 C 0.37311 0.77252 0.83283 0.0
H1488 H 0.96697 0.30946 0.29645 0.0
H1489 H 0.94832 0.26686 0.27772 0.0
H1490 H 0.99246 0.30303 0.29164 0.0
H1491 H 0.97298 0.25996 0.27302 0.0
H1492 H 0.01686 0.24764 0.2624 0.0
H1493 H 0.99436 0.25432 0.26732 0.0
H1494 H 0.01158 0.29734 0.28576 0.0
H1495 H 0.03627 0.29023 0.28074 0.0
C1496 C 0.96844 0.29862 0.29143 0.0
C1497 C 0.95574 0.28866 0.2873 0.0
C1498 C 0.9832 0.2948 0.28844 0.0
C1499 C 0.98561 0.28084 0.28138 0.0
C1500 C 0.97249 0.27089 0.27805 0.0
C1501 C 0.95798 0.27479 0.28087 0.0
C1502 C 0.01569 0.25843 0.26766 0.0
C1503 C 0.02859 0.26827 0.2714 0.0
C1504 C 0.00108 0.26249 0.2706 0.0
C1505 C -0.00117 0.27652 0.27754 0.0
C1506 C 0.01206 0.28636 0.28079 0.0
C1507 C 0.02656 0.28228 0.27782 0.0
H1508 H 0.69588 0.02627 0.27794 0.0
H1509 H 0.74312 0.03283 0.26513 0.0
H1510 H 0.69603 0.00011 0.27766 0.0
H1511 H 0.74356 0.00567 0.2642 0.0
H1512 H 0.74252 0.95803 0.26505 0.0
H1513 H 0.74328 0.98509 0.26518 0.0
H1514 H 0.6959 0.98026 0.27936 0.0
H1515 H 0.69578 0.95343 0.2789 0.0
C1516 C 0.70646 0.02199 0.27488 0.0
C1517 C 0.71951 0.03175 0.27177 0.0
C1518 C 0.70665 0.00649 0.27482 0.0
C1519 C 0.7199 -0.00022 0.27133 0.0
C1520 C 0.733 0.00974 0.26736 0.0
C1521 C 0.73284 0.02555 0.26774 0.0
C1522 C 0.73234 0.96304 0.26813 0.0
C1523 C 0.71908 0.95385 0.27179 0.0
C1524 C 0.73266 0.97876 0.26821 0.0
C1525 C 0.71959 0.98581 0.27186 0.0
C1526 C 0.70636 0.97615 0.27604 0.0
C1527 C 0.70614 0.96043 0.27596 0.0
H1528 H 0.95315 0.73163 0.27872 0.0
H1529 H 0.95322 0.68523 0.29263 0.0
H1530 H 0.97928 0.73371 0.27416 0.0
H1531 H 0.98037 0.68706 0.2885 0.0
H1532 H 0.02799 0.69192 0.27829 0.0
H1533 H 0.00112 0.68897 0.2832 0.0
H1534 H -0.00079 0.73537 0.26825 0.0
H1535 H 0.02586 0.73766 0.26365 0.0
C1536 C 0.95894 0.72176 0.28096 0.0
C1537 C 0.95099 0.70824 0.28587 0.0
C1538 C 0.97439 0.72286 0.27815 0.0
C1539 C 0.98285 0.71051 0.28037 0.0
C1540 C 0.97484 0.69698 0.28613 0.0
C1541 C 0.95907 0.69582 0.28867 0.0
C1542 C 0.02155 0.70138 0.27617 0.0
C1543 C 0.02882 0.71502 0.27078 0.0
C1544 C 0.00594 0.6998 0.27902 0.0
C1545 C -0.00287 0.71194 0.2767 0.0
C1546 C 0.00479 0.72554 0.27077 0.0
C1547 C 0.02036 0.72701 0.26789 0.0
H1548 H 0.30784 0.03733 0.27235 0.0
H1549 H 0.26448 0.03369 0.29449 0.0
H1550 H 0.30758 0.01043 0.2723 0.0
H1551 H 0.26356 0.00665 0.29467 0.0
H1552 H 0.26222 0.95959 0.29392 0.0
H1553 H 0.26261 0.98636 0.29393 0.0
H1554 H 0.30682 0.99007 0.27197 0.0
H1555 H 0.30606 0.96306 0.27251 0.0
C1556 C 0.29799 0.03052 0.27687 0.0
C1557 C 0.28601 0.03741 0.28302 0.0
C1558 C 0.29777 0.01481 0.27703 0.0
C1559 C 0.28538 0.00538 0.2832 0.0
C1560 C 0.27336 0.01271 0.28945 0.0
C1561 C 0.2737 0.02847 0.28935 0.0
C1562 C 0.2721 0.96628 0.28929 0.0
C1563 C 0.28418 0.95926 0.28343 0.0
C1564 C 0.27243 0.98197 0.28923 0.0
C1565 C 0.28489 0.99136 0.28318 0.0
C1566 C 0.29696 0.984 0.27709 0.0
C1567 C 0.29668 0.96823 0.27741 0.0
H1568 H 0.02883 0.70023 0.69971 0.0
H1569 H 0.02441 0.72797 0.73891 0.0
H1570 H 0.00272 0.69805 0.69551 0.0
H1571 H -0.00298 0.72613 0.73496 0.0
H1572 H 0.94898 0.72149 0.72481 0.0
H1573 H 0.97592 0.72453 0.73018 0.0
H1574 H 0.98287 0.69711 0.69056 0.0
H1575 H 0.95661 0.69438 0.6859 0.0
C1576 C 0.02196 0.70606 0.70743 0.0
C1577 C 0.02859 0.71433 0.71947 0.0
C1578 C 0.00651 0.7049 0.70503 0.0
C1579 C -0.00322 0.71214 0.71453 0.0
C1580 C 0.00361 0.72047 0.72697 0.0
C1581 C 0.01945 0.72169 0.72933 0.0
C1582 C 0.95655 0.71613 0.71745 0.0
C1583 C 0.95079 0.7076 0.70503 0.0
C1584 C 0.97219 0.71783 0.72048 0.0
C1585 C 0.98246 0.71087 0.71124 0.0
C1586 C 0.97624 0.70262 0.69856 0.0
C1587 C 0.96078 0.70104 0.69558 0.0
H1588 H 0.2849 0.96045 0.73116 0.0
H1589 H 0.2856 0.96285 0.68259 0.0
H1590 H 0.28468 0.98749 0.73247 0.0
H1591 H 0.28588 0.98925 0.68341 0.0
H1592 H 0.28517 0.03606 0.68469 0.0
H1593 H 0.28521 0.00919 0.68375 0.0
H1594 H 0.28408 0.00786 0.73287 0.0
H1595 H 0.28433 0.03484 0.73312 0.0
C1596 C 0.28485 0.9668 0.72075 0.0
C1597 C 0.28508 0.95944 0.70677 0.0
C1598 C 0.28479 0.98258 0.72137 0.0
C1599 C 0.28499 0.99146 0.70801 0.0
C1600 C 0.28542 0.98367 0.69417 0.0
C1601 C 0.28527 0.96808 0.69361 0.0
C1602 C 0.28518 0.02983 0.69519 0.0
C1603 C 0.28509 0.03738 0.70896 0.0
C1604 C 0.28517 0.01411 0.69482 0.0
C1605 C 0.28498 0.00542 0.70831 0.0
C1606 C 0.28455 0.01342 0.72208 0.0
C1607 C 0.28472 0.02913 0.72235 0.0
H1608 H 0.96626 0.3125 0.70769 0.0
H1609 H 0.94899 0.26567 0.70231 0.0
H1610 H 0.99092 0.30557 0.71291 0.0
H1611 H 0.97364 0.25819 0.7077 0.0
H1612 H 0.01868 0.24557 0.71555 0.0
H1613 H 0.99568 0.25191 0.7112 0.0
H1614 H 0.00986 0.29945 0.7166 0.0
H1615 H 0.03446 0.29257 0.7216 0.0
C1616 C 0.96783 0.3006 0.70762 0.0
C1617 C 0.95565 0.28969 0.7044 0.0
C1618 C 0.98229 0.29639 0.71063 0.0
C1619 C 0.98523 0.28101 0.7106 0.0
C1620 C 0.97265 0.27014 0.70773 0.0
C1621 C 0.95818 0.27441 0.70465 0.0
C1622 C 0.01645 0.25727 0.71637 0.0
C1623 C 0.02829 0.26858 0.71951 0.0
C1624 C 0.0017 0.26112 0.71363 0.0
C1625 C -0.0015 0.27646 0.71366 0.0
C1626 C 0.01086 0.28753 0.71666 0.0
C1627 C 0.02531 0.28361 0.71979 0.0
H1628 H 0.7219 0.95631 0.69558 0.0
H1629 H 0.71384 0.95523 0.74336 0.0
H1630 H 0.72283 0.98317 0.69541 0.0
H1631 H 0.7147 0.98233 0.74389 0.0
H1632 H 0.71713 0.02947 0.74373 0.0
H1633 H 0.71646 0.00271 0.74392 0.0
H1634 H 0.72437 0.00349 0.69544 0.0
H1635 H 0.72471 0.03038 0.69573 0.0
C1636 C 0.72075 0.96212 0.7062 0.0
C1637 C 0.71829 0.95393 0.71952 0.0
C1638 C 0.72113 0.97779 0.70622 0.0
C1639 C 0.71921 0.98592 0.71969 0.0
C1640 C 0.71662 0.97729 0.73312 0.0
C1641 C 0.7162 0.96152 0.73301 0.0
C1642 C 0.71855 0.0238 0.7331 0.0
C1643 C 0.72073 0.03204 0.7197 0.0
C1644 C 0.71818 0.0081 0.7331 0.0
C1645 C 0.72002 -6e-05 0.71965 0.0
C1646 C 0.72254 0.00854 0.70622 0.0
C1647 C 0.72276 0.02429 0.70625 0.0
H1648 H 0.26156 0.26583 0.95771 0.0
H1649 H 0.29276 0.30645 0.95963 0.0
H1650 H 0.26065 0.2651 0.98494 0.0
H1651 H 0.29253 0.30599 0.98616 0.0
H1652 H 0.2914 0.30597 0.03337 0.0
H1653 H 0.2919 0.30658 0.00635 0.0
H1654 H 0.25973 0.26586 0.00545 0.0
H1655 H 0.25961 0.26584 0.03235 0.0
C1656 C 0.26821 0.2746 0.96407 0.0
C1657 C 0.27695 0.2864 0.95663 0.0
C1658 C 0.26775 0.27435 0.97992 0.0
C1659 C 0.27624 0.28576 0.98867 0.0
C1660 C 0.28538 0.29706 0.98071 0.0
C1661 C 0.28557 0.29741 0.9651 0.0
C1662 C 0.28462 0.29716 0.02716 0.0
C1663 C 0.2756 0.28578 0.0348 0.0
C1664 C 0.28478 0.29736 0.01137 0.0
C1665 C 0.27608 0.28598 0.00277 0.0
C1666 C 0.26691 0.27479 0.01089 0.0
C1667 C 0.26671 0.27473 0.02659 0.0
H1668 H 0.27271 0.72012 0.95908 0.0
H1669 H 0.31482 0.70016 0.95793 0.0
H1670 H 0.27299 0.72026 0.98583 0.0
H1671 H 0.31535 0.69965 0.98506 0.0
H1672 H 0.31638 0.70057 0.03227 0.0
H1673 H 0.31626 0.70072 0.00548 0.0
H1674 H 0.27409 0.72168 0.00629 0.0
H1675 H 0.2747 0.72116 0.03351 0.0
C1676 C 0.28211 0.71564 0.96473 0.0
C1677 C 0.29378 0.71027 0.95639 0.0
C1678 C 0.28239 0.71576 0.98042 0.0
C1679 C 0.29435 0.7103 0.98859 0.0
C1680 C 0.3059 0.70438 0.97996 0.0
C1681 C 0.30572 0.70457 0.96411 0.0
C1682 C 0.30708 0.70518 0.02657 0.0
C1683 C 0.2955 0.71065 0.03487 0.0
C1684 C 0.30689 0.70527 0.01088 0.0
C1685 C 0.29497 0.71083 0.00274 0.0
C1686 C 0.2835 0.71691 0.0114 0.0
C1687 C 0.28379 0.71682 0.02726 0.0
H1688 H 0.73269 0.27441 0.03291 0.0
H1689 H 0.68417 0.26411 0.03306 0.0
H1690 H 0.73297 0.27466 0.00585 0.0
H1691 H 0.68375 0.26406 0.0061 0.0
H1692 H 0.68306 0.26535 0.9595 0.0
H1693 H 0.68342 0.26509 0.98595 0.0
H1694 H 0.7326 0.27559 0.98523 0.0
H1695 H 0.73171 0.27586 0.95803 0.0
C1696 C 0.722 0.27237 0.02691 0.0
C1697 C 0.70841 0.26955 0.03486 0.0
C1698 C 0.72203 0.27245 0.01117 0.0
C1699 C 0.70838 0.26972 0.00283 0.0
C1700 C 0.69473 0.26658 0.01125 0.0
C1701 C 0.69478 0.26656 0.02701 0.0
C1702 C 0.69402 0.26742 0.96499 0.0
C1703 C 0.70733 0.27051 0.9566 0.0
C1704 C 0.69432 0.26731 0.98061 0.0
C1705 C 0.70806 0.27007 0.98872 0.0
C1706 C 0.72159 0.27313 0.98008 0.0
C1707 C 0.72123 0.27322 0.96424 0.0
H1708 H 0.74 0.73993 0.0336 0.0
H1709 H 0.72071 0.69347 0.03198 0.0
H1710 H 0.74055 0.74085 0.00635 0.0
H1711 H 0.72122 0.69367 0.00528 0.0
H1712 H 0.71977 0.69481 0.95813 0.0
H1713 H 0.71962 0.6942 0.98507 0.0
H1714 H 0.73888 0.74137 0.98582 0.0
H1715 H 0.73887 0.74143 0.95896 0.0
C1716 C 0.73607 0.72985 0.02724 0.0
C1717 C 0.73017 0.71666 0.03468 0.0
C1718 C 0.73616 0.73027 0.0114 0.0
C1719 C 0.73051 0.71741 0.00268 0.0
C1720 C 0.7254 0.70411 0.01071 0.0
C1721 C 0.72518 0.70383 0.02634 0.0
C1722 C 0.72403 0.70495 0.96423 0.0
C1723 C 0.72945 0.7181 0.95645 0.0
C1724 C 0.72402 0.70475 0.98001 0.0
C1725 C 0.72962 0.71769 0.98857 0.0
C1726 C 0.73467 0.73091 0.9804 0.0
C1727 C 0.73462 0.73106 0.96468 0.0
H1728 H 0.4486 0.77754 0.76779 0.0
H1729 H 0.46425 0.80353 0.80689 0.0
H1730 H 0.47299 0.77085 0.76327 0.0
H1731 H 0.48989 0.79708 0.80236 0.0
H1732 H 0.53632 0.78256 0.79303 0.0
H1733 H 0.51155 0.78986 0.79833 0.0
H1734 H 0.49383 0.7632 0.75978 0.0
H1735 H 0.51876 0.75626 0.75497 0.0
C1736 C 0.45751 0.78196 0.7755 0.0
C1737 C 0.45433 0.79097 0.78774 0.0
C1738 C 0.47195 0.77793 0.77295 0.0
C1739 C 0.48426 0.78282 0.78246 0.0
C1740 C 0.48114 0.79251 0.79466 0.0
C1741 C 0.4663 0.79636 0.7974 0.0
C1742 C 0.52696 0.77835 0.78576 0.0
C1743 C 0.52943 0.76898 0.77356 0.0
C1744 C 0.5125 0.78259 0.78875 0.0
C1745 C 0.4999 0.77772 0.77949 0.0
C1746 C 0.50261 0.76782 0.76737 0.0
C1747 C 0.51712 0.76353 0.7645 0.0
H1748 H 0.19331 0.45181 0.77302 0.0
H1749 H 0.24208 0.45653 0.77405 0.0
H1750 H 0.19332 0.47865 0.77323 0.0
H1751 H 0.2428 0.48361 0.77441 0.0
H1752 H 0.24265 0.53434 0.77361 0.0
H1753 H 0.24318 0.50725 0.7731 0.0
H1754 H 0.19377 0.50171 0.77144 0.0
H1755 H 0.19372 0.52803 0.77188 0.0
C1756 C 0.20409 0.45885 0.77332 0.0
C1757 C 0.21767 0.45229 0.77337 0.0
C1758 C 0.2043 0.47456 0.77335 0.0
C1759 C 0.21818 0.48427 0.7734 0.0
C1760 C 0.23174 0.47724 0.77403 0.0
C1761 C 0.23145 0.46151 0.77391 0.0
C1762 C 0.23201 0.52711 0.773 0.0
C1763 C 0.21814 0.53334 0.77311 0.0
C1764 C 0.23217 0.51132 0.77286 0.0
C1765 C 0.21845 0.50136 0.77277 0.0
C1766 C 0.20477 0.5081 0.77199 0.0
C1767 C 0.20466 0.52365 0.77212 0.0
H1768 H 0.52394 0.21276 0.74941 0.0
H1769 H 0.53217 0.21281 0.79732 0.0
H1770 H 0.49722 0.21034 0.75371 0.0
H1771 H 0.50557 0.21018 0.80213 0.0
H1772 H 0.45527 0.20699 0.81035 0.0
H1773 H 0.48232 0.20911 0.80629 0.0
H1774 H 0.47415 0.20924 0.7578 0.0
H1775 H 0.44757 0.20673 0.76249 0.0
C1776 C 0.51991 0.21225 0.76095 0.0
C1777 C 0.53017 0.21311 0.773 0.0
C1778 C 0.50428 0.21088 0.76362 0.0
C1779 C 0.49831 0.2103 0.7785 0.0
C1780 C 0.50892 0.2108 0.79046 0.0
C1781 C 0.52452 0.21227 0.78774 0.0
C1782 C 0.45955 0.2071 0.7989 0.0
C1783 C 0.44953 0.20623 0.78669 0.0
C1784 C 0.47527 0.20845 0.79637 0.0
C1785 C 0.48134 0.20907 0.7815 0.0
C1786 C 0.4708 0.2085 0.76946 0.0
C1787 C 0.45523 0.20697 0.77205 0.0
H1788 H 0.80885 0.53888 0.7738 0.0
H1789 H 0.76554 0.53523 0.79606 0.0
H1790 H 0.80858 0.51197 0.77374 0.0
H1791 H 0.76462 0.50819 0.79623 0.0
H1792 H 0.76346 0.45801 0.79546 0.0
H1793 H 0.76385 0.4848 0.79549 0.0
H1794 H 0.808 0.48852 0.77342 0.0
H1795 H 0.80725 0.46151 0.77396 0.0
C1796 C 0.79901 0.53206 0.77835 0.0
C1797 C 0.78705 0.53895 0.78455 0.0
C1798 C 0.79879 0.51635 0.7785 0.0
C1799 C 0.78641 0.50693 0.7847 0.0
C1800 C 0.7744 0.51426 0.79099 0.0
C1801 C 0.77475 0.53002 0.79089 0.0
C1802 C 0.77332 0.46471 0.79082 0.0
C1803 C 0.78539 0.45769 0.78492 0.0
C1804 C 0.77366 0.48041 0.79077 0.0
C1805 C 0.7861 0.48981 0.78469 0.0
C1806 C 0.79815 0.48244 0.77856 0.0
C1807 C 0.79787 0.46668 0.77887 0.0
H1808 H 0.45375 0.2271 0.19259 0.0
H1809 H 0.44916 0.18522 0.21712 0.0
H1810 H 0.48062 0.2303 0.19742 0.0
H1811 H 0.4757 0.18774 0.22218 0.0
H1812 H 0.52527 0.19172 0.22959 0.0
H1813 H 0.49879 0.1895 0.2254 0.0
H1814 H 0.50409 0.23225 0.201 0.0
H1815 H 0.53096 0.23398 0.20555 0.0
C1816 C 0.4587 0.21856 0.19907 0.0
C1817 C 0.44957 0.20591 0.20444 0.0
C1818 C 0.47433 0.22026 0.20191 0.0
C1819 C 0.48132 0.20921 0.21008 0.0
C1820 C 0.47167 0.19667 0.21566 0.0
C1821 C 0.45609 0.19511 0.2129 0.0
C1822 C 0.5206 0.20081 0.22365 0.0
C1823 C 0.53008 0.21307 0.21807 0.0
C1824 C 0.50508 0.19956 0.22101 0.0
C1825 C 0.49831 0.21073 0.21286 0.0
C1826 C 0.50811 0.22329 0.20751 0.0
C1827 C 0.52376 0.22453 0.21029 0.0
H1828 H 0.81034 0.46224 0.20957 0.0
H1829 H 0.76235 0.4572 0.20084 0.0
H1830 H 0.81074 0.48914 0.21036 0.0
H1831 H 0.76207 0.48415 0.20149 0.0
H1832 H 0.76237 0.53406 0.20357 0.0
H1833 H 0.76216 0.50743 0.20294 0.0
H1834 H 0.81083 0.51253 0.21163 0.0
H1835 H 0.81057 0.53945 0.21197 0.0
C1836 C 0.79973 0.46711 0.20815 0.0
C1837 C 0.78628 0.4578 0.20557 0.0
C1838 C 0.79984 0.48279 0.20849 0.0
C1839 C 0.78638 0.48977 0.20634 0.0
C1840 C 0.77284 0.48002 0.20356 0.0
C1841 C 0.77282 0.46428 0.20322 0.0
C1842 C 0.77307 0.52943 0.20517 0.0
C1843 C 0.7865 0.53893 0.20761 0.0
C1844 C 0.77304 0.51378 0.20482 0.0
C1845 C 0.78652 0.50687 0.20692 0.0
C1846 C 0.80003 0.51666 0.20962 0.0
C1847 C 0.80002 0.53241 0.20983 0.0
H1848 H 0.53297 0.77718 0.19382 0.0
H1849 H 0.52166 0.76279 0.23931 0.0
H1850 H 0.50889 0.78369 0.18982 0.0
H1851 H 0.49572 0.7691 0.2352 0.0
H1852 H 0.44892 0.78404 0.22514 0.0
H1853 H 0.47377 0.77645 0.23084 0.0
H1854 H 0.48867 0.79181 0.1861 0.0
H1855 H 0.46414 0.79891 0.18108 0.0
C1856 C 0.52508 0.77518 0.20313 0.0
C1857 C 0.52954 0.76955 0.21692 0.0
C1858 C 0.51071 0.77925 0.20084 0.0
C1859 C 0.49952 0.77764 0.21215 0.0
C1860 C 0.50368 0.77107 0.22603 0.0
C1861 C 0.51864 0.76727 0.2285 0.0
C1862 C 0.45773 0.7856 0.21665 0.0
C1863 C 0.45468 0.79188 0.20264 0.0
C1864 C 0.47217 0.78122 0.21986 0.0
C1865 C 0.48397 0.78284 0.20905 0.0
C1866 C 0.48059 0.78963 0.19506 0.0
C1867 C 0.46625 0.794 0.19197 0.0
H1868 H 0.19687 0.52982 0.20864 0.0
H1869 H 0.24228 0.53361 0.22637 0.0
H1870 H 0.19584 0.50291 0.20867 0.0
H1871 H 0.24205 0.50659 0.22627 0.0
H1872 H 0.23952 0.45544 0.22693 0.0
H1873 H 0.24114 0.48283 0.22737 0.0
H1874 H 0.19476 0.47988 0.21046 0.0
H1875 H 0.19368 0.4536 0.21006 0.0
C1876 C 0.2067 0.52466 0.21252 0.0
C1877 C 0.21955 0.5336 0.21769 0.0
C1878 C 0.20625 0.50892 0.2127 0.0
C1879 C 0.21879 0.5016 0.2179 0.0
C1880 C 0.23188 0.51104 0.22246 0.0
C1881 C 0.23215 0.52676 0.22251 0.0
C1882 C 0.22981 0.46093 0.22333 0.0
C1883 C 0.2165 0.45232 0.21837 0.0
C1884 C 0.23063 0.47684 0.22349 0.0
C1885 C 0.2182 0.48449 0.21853 0.0
C1886 C 0.20493 0.47539 0.21409 0.0
C1887 C 0.20416 0.4598 0.21399 0.0
H1888 H 0.80118 0.79718 0.45756 0.0
H1889 H 0.75406 0.77947 0.4564 0.0
H1890 H 0.80117 0.79682 0.48435 0.0
H1891 H 0.7533 0.77914 0.48356 0.0
H1892 H 0.75351 0.77798 0.53367 0.0
H1893 H 0.75358 0.77818 0.50697 0.0
H1894 H 0.80148 0.7956 0.50768 0.0
H1895 H 0.80084 0.79535 0.53471 0.0
C1896 C 0.79076 0.79298 0.46331 0.0
C1897 C 0.77777 0.78805 0.45508 0.0
C1898 C 0.79062 0.79276 0.47897 0.0
C1899 C 0.77733 0.78762 0.48709 0.0
C1900 C 0.76407 0.78292 0.47848 0.0
C1901 C 0.76435 0.78299 0.46266 0.0
C1902 C 0.764 0.78207 0.52803 0.0
C1903 C 0.77706 0.78692 0.53631 0.0
C1904 C 0.76414 0.78218 0.51235 0.0
C1905 C 0.77742 0.78725 0.5042 0.0
C1906 C 0.79071 0.79183 0.51278 0.0
C1907 C 0.7905 0.7917 0.52858 0.0
H1908 H 0.81281 0.22809 0.53457 0.0
H1909 H 0.78021 0.18858 0.53418 0.0
H1910 H 0.8128 0.22873 0.50751 0.0
H1911 H 0.77978 0.18871 0.50725 0.0
H1912 H 0.77871 0.19002 0.45693 0.0
H1913 H 0.77891 0.18946 0.48387 0.0
H1914 H 0.81239 0.22913 0.48394 0.0
H1915 H 0.81214 0.22886 0.45686 0.0
C1916 C 0.80532 0.21971 0.52852 0.0
C1917 C 0.79631 0.20846 0.53639 0.0
C1918 C 0.80533 0.21989 0.51273 0.0
C1919 C 0.79608 0.20892 0.50423 0.0
C1920 C 0.78702 0.19768 0.51255 0.0
C1921 C 0.78714 0.19751 0.5283 0.0
C1922 C 0.78627 0.19841 0.46289 0.0
C1923 C 0.79562 0.20926 0.45489 0.0
C1924 C 0.78647 0.19822 0.47865 0.0
C1925 C 0.79589 0.20911 0.48705 0.0
C1926 C 0.80506 0.2202 0.47865 0.0
C1927 C 0.80508 0.22011 0.46285 0.0
H1928 H 0.18412 0.78014 0.45834 0.0
H1929 H 0.22751 0.7625 0.4562 0.0
H1930 H 0.18465 0.77993 0.48466 0.0
H1931 H 0.22832 0.76174 0.48352 0.0
H1932 H 0.22862 0.76271 0.53425 0.0
H1933 H 0.22882 0.76271 0.50722 0.0
H1934 H 0.18545 0.78159 0.50773 0.0
H1935 H 0.18584 0.78129 0.53468 0.0
C1936 C 0.19389 0.77603 0.46367 0.0
C1937 C 0.20578 0.77144 0.45512 0.0
C1938 C 0.19434 0.776 0.47925 0.0
C1939 C 0.2067 0.77119 0.48721 0.0
C1940 C 0.21855 0.76594 0.47845 0.0
C1941 C 0.21819 0.76626 0.46257 0.0
C1942 C 0.21915 0.76675 0.52832 0.0
C1943 C 0.20713 0.77176 0.53637 0.0
C1944 C 0.21916 0.76678 0.51259 0.0
C1945 C 0.20698 0.77173 0.50433 0.0
C1946 C 0.19509 0.77723 0.51281 0.0
C1947 C 0.1952 0.77724 0.52858 0.0
H1948 H 0.24132 0.23718 0.53518 0.0
H1949 H 0.21654 0.19287 0.53334 0.0
H1950 H 0.24194 0.23814 0.50789 0.0
H1951 H 0.21703 0.19313 0.50672 0.0
H1952 H 0.21611 0.19437 0.45661 0.0
H1953 H 0.21587 0.19378 0.48354 0.0
H1954 H 0.24067 0.23883 0.48431 0.0
H1955 H 0.24062 0.23888 0.45741 0.0
C1956 C 0.23617 0.22757 0.52879 0.0
C1957 C 0.22872 0.215 0.53619 0.0
C1958 C 0.2363 0.22804 0.51293 0.0
C1959 C 0.22914 0.21584 0.50418 0.0
C1960 C 0.22244 0.20309 0.51216 0.0
C1961 C 0.22219 0.20278 0.52777 0.0
C1962 C 0.22156 0.20403 0.46272 0.0
C1963 C 0.22848 0.2166 0.45495 0.0
C1964 C 0.22152 0.20384 0.47849 0.0
C1965 C 0.22862 0.21618 0.48706 0.0
C1966 C 0.23524 0.22884 0.47888 0.0
C1967 C 0.23518 0.229 0.46316 0.0
loop_
_geom_bond_atom_site_label_1
_geom_bond_atom_site_label_2
_geom_bond_distance
_geom_bond_site_symmetry_2
_ccdc_geom_bond_type
O0 Cd1 2.300 . S
O0 C7 1.275 . S
Cd1 O0 2.300 . S
Cd1 O9 2.381 . S
Cd1 O10 2.378 . S
O2 Cd3 2.385 . S
O2 C7 1.255 . S
Cd3 O2 2.385 . S
Cd3 O4 2.317 . S
O4 Cd3 2.317 . S
O4 C5 1.232 . S
C5 O4 1.232 . S
C5 O6 1.218 . S
O6 C5 1.218 . S
C7 O0 1.275 . S
C7 O2 1.255 . S
C8 O9 1.258 . S
C8 O10 1.256 . S
O9 Cd1 2.381 . S
O9 C8 1.258 . S
O10 Cd1 2.378 . S
O10 C8 1.256 . S
O11 Cd12 2.300 . S
O11 C18 1.275 . S
Cd12 O11 2.300 . S
Cd12 O20 2.381 . S
Cd12 O21 2.378 . S
O13 Cd14 2.385 . S
O13 C18 1.255 . S
Cd14 O13 2.385 . S
Cd14 O15 2.317 . S
O15 Cd14 2.317 . S
O15 C16 1.232 . S
C16 O15 1.232 . S
C16 O17 1.218 . S
O17 C16 1.218 . S
C18 O11 1.275 . S
C18 O13 1.255 . S
C19 O20 1.258 . S
C19 O21 1.256 . S
O20 Cd12 2.381 . S
O20 C19 1.258 . S
O21 Cd12 2.378 . S
O21 C19 1.256 . S
O22 Cd23 2.300 . S
O22 C29 1.275 . S
Cd23 O22 2.300 . S
Cd23 O31 2.381 . S
Cd23 O32 2.378 . S
O24 Cd25 2.385 . S
O24 C29 1.255 . S
Cd25 O24 2.385 . S
Cd25 O26 2.317 . S
O26 Cd25 2.317 . S
O26 C27 1.232 . S
C27 O26 1.232 . S
C27 O28 1.218 . S
O28 C27 1.218 . S
C29 O22 1.275 . S
C29 O24 1.255 . S
C30 O31 1.258 . S
C30 O32 1.256 . S
O31 Cd23 2.381 . S
O31 C30 1.258 . S
O32 Cd23 2.378 . S
O32 C30 1.256 . S
O33 Cd34 2.300 . S
O33 C40 1.275 . S
Cd34 O33 2.300 . S
Cd34 O42 2.381 . S
Cd34 O43 2.378 . S
O35 Cd36 2.385 . S
O35 C40 1.255 . S
Cd36 O35 2.385 . S
Cd36 O37 2.317 . S
O37 Cd36 2.317 . S
O37 C38 1.232 . S
C38 O37 1.232 . S
C38 O39 1.218 . S
O39 C38 1.218 . S
C40 O33 1.275 . S
C40 O35 1.255 . S
C41 O42 1.258 . S
C41 O43 1.256 . S
O42 Cd34 2.381 . S
O42 C41 1.258 . S
O43 Cd34 2.378 . S
O43 C41 1.256 . S
O44 Cd45 2.300 . S
O44 C51 1.275 . S
Cd45 O44 2.300 . S
Cd45 O53 2.381 . S
Cd45 O54 2.378 . S
O46 Cd47 2.385 . S
O46 C51 1.255 . S
Cd47 O46 2.385 . S
Cd47 O48 2.317 . S
O48 Cd47 2.317 . S
O48 C49 1.232 . S
C49 O48 1.232 . S
C49 O50 1.218 . S
O50 C49 1.218 . S
C51 O44 1.275 . S
C51 O46 1.255 . S
C52 O53 1.258 . S
C52 O54 1.256 . S
O53 Cd45 2.381 . S
O53 C52 1.258 . S
O54 Cd45 2.378 . S
O54 C52 1.256 . S
O55 Cd56 2.300 . S
O55 C62 1.275 . S
Cd56 O55 2.300 . S
Cd56 O64 2.381 . S
Cd56 O65 2.378 . S
O57 Cd58 2.385 . S
O57 C62 1.255 . S
Cd58 O57 2.385 . S
Cd58 O59 2.317 . S
O59 Cd58 2.317 . S
O59 C60 1.232 . S
C60 O59 1.232 . S
C60 O61 1.218 . S
O61 C60 1.218 . S
C62 O55 1.275 . S
C62 O57 1.255 . S
C63 O64 1.258 . S
C63 O65 1.256 . S
O64 Cd56 2.381 . S
O64 C63 1.258 . S
O65 Cd56 2.378 . S
O65 C63 1.256 . S
O66 Cd67 2.300 . S
O66 C73 1.275 . S
Cd67 O66 2.300 . S
Cd67 O75 2.381 . S
Cd67 O76 2.378 . S
O68 Cd69 2.385 . S
O68 C73 1.255 . S
Cd69 O68 2.385 . S
Cd69 O70 2.317 . S
O70 Cd69 2.317 . S
O70 C71 1.232 . S
C71 O70 1.232 . S
C71 O72 1.218 . S
O72 C71 1.218 . S
C73 O66 1.275 . S
C73 O68 1.255 . S
C74 O75 1.258 . S
C74 O76 1.256 . S
O75 Cd67 2.381 . S
O75 C74 1.258 . S
O76 Cd67 2.378 . S
O76 C74 1.256 . S
O77 Cd78 2.300 . S
O77 C84 1.275 . S
Cd78 O77 2.300 . S
Cd78 O86 2.381 . S
Cd78 O87 2.378 . S
O79 Cd80 2.385 . S
O79 C84 1.255 . S
Cd80 O79 2.385 . S
Cd80 O81 2.317 . S
O81 Cd80 2.317 . S
O81 C82 1.232 . S
C82 O81 1.232 . S
C82 O83 1.218 . S
O83 C82 1.218 . S
C84 O77 1.275 . S
C84 O79 1.255 . S
C85 O86 1.258 . S
C85 O87 1.256 . S
O86 Cd78 2.381 . S
O86 C85 1.258 . S
O87 Cd78 2.378 . S
O87 C85 1.256 . S
O88 Cd89 2.300 . S
O88 C95 1.275 . S
Cd89 O88 2.300 . S
Cd89 O97 2.381 . S
Cd89 O98 2.378 . S
O90 Cd91 2.385 . S
O90 C95 1.255 . S
Cd91 O90 2.385 . S
Cd91 O92 2.317 . S
O92 Cd91 2.317 . S
O92 C93 1.232 . S
C93 O92 1.232 . S
C93 O94 1.218 . S
O94 C93 1.218 . S
C95 O88 1.275 . S
C95 O90 1.255 . S
C96 O97 1.258 . S
C96 O98 1.256 . S
O97 Cd89 2.381 . S
O97 C96 1.258 . S
O98 Cd89 2.378 . S
O98 C96 1.256 . S
O99 Cd100 2.300 . S
O99 C106 1.275 . S
Cd100 O99 2.300 . S
Cd100 O108 2.381 . S
Cd100 O109 2.378 . S
O101 Cd102 2.385 . S
O101 C106 1.255 . S
Cd102 O101 2.385 . S
Cd102 O103 2.317 . S
O103 Cd102 2.317 . S
O103 C104 1.232 . S
C104 O103 1.232 . S
C104 O105 1.218 . S
O105 C104 1.218 . S
C106 O99 1.275 . S
C106 O101 1.255 . S
C107 O108 1.258 . S
C107 O109 1.256 . S
O108 Cd100 2.381 . S
O108 C107 1.258 . S
O109 Cd100 2.378 . S
O109 C107 1.256 . S
O110 Cd111 2.300 . S
O110 C117 1.275 . S
Cd111 O110 2.300 . S
Cd111 O119 2.381 . S
Cd111 O120 2.378 . S
O112 Cd113 2.385 . S
O112 C117 1.255 . S
Cd113 O112 2.385 . S
Cd113 O114 2.317 . S
O114 Cd113 2.317 . S
O114 C115 1.232 . S
C115 O114 1.232 . S
C115 O116 1.218 . S
O116 C115 1.218 . S
C117 O110 1.275 . S
C117 O112 1.255 . S
C118 O119 1.258 . S
C118 O120 1.256 . S
O119 Cd111 2.381 . S
O119 C118 1.258 . S
O120 Cd111 2.378 . S
O120 C118 1.256 . S
O121 Cd122 2.300 . S
O121 C128 1.275 . S
Cd122 O121 2.300 . S
Cd122 O130 2.381 . S
Cd122 O131 2.378 . S
O123 Cd124 2.385 . S
O123 C128 1.255 . S
Cd124 O123 2.385 . S
Cd124 O125 2.317 . S
O125 Cd124 2.317 . S
O125 C126 1.232 . S
C126 O125 1.232 . S
C126 O127 1.218 . S
O127 C126 1.218 . S
C128 O121 1.275 . S
C128 O123 1.255 . S
C129 O130 1.258 . S
C129 O131 1.256 . S
O130 Cd122 2.381 . S
O130 C129 1.258 . S
O131 Cd122 2.378 . S
O131 C129 1.256 . S
O132 Cd133 2.300 . S
O132 C139 1.275 . S
Cd133 O132 2.300 . S
Cd133 O141 2.381 . S
Cd133 O142 2.378 . S
O134 Cd135 2.385 . S
O134 C139 1.255 . S
Cd135 O134 2.385 . S
Cd135 O136 2.317 . S
O136 Cd135 2.317 . S
O136 C137 1.232 . S
C137 O136 1.232 . S
C137 O138 1.218 . S
O138 C137 1.218 . S
C139 O132 1.275 . S
C139 O134 1.255 . S
C140 O141 1.258 . S
C140 O142 1.256 . S
O141 Cd133 2.381 . S
O141 C140 1.258 . S
O142 Cd133 2.378 . S
O142 C140 1.256 . S
O143 Cd144 2.300 . S
O143 C150 1.275 . S
Cd144 O143 2.300 . S
Cd144 O152 2.381 . S
Cd144 O153 2.378 . S
O145 Cd146 2.385 . S
O145 C150 1.255 . S
Cd146 O145 2.385 . S
Cd146 O147 2.317 . S
O147 Cd146 2.317 . S
O147 C148 1.232 . S
C148 O147 1.232 . S
C148 O149 1.218 . S
O149 C148 1.218 . S
C150 O143 1.275 . S
C150 O145 1.255 . S
C151 O152 1.258 . S
C151 O153 1.256 . S
O152 Cd144 2.381 . S
O152 C151 1.258 . S
O153 Cd144 2.378 . S
O153 C151 1.256 . S
O154 Cd155 2.300 . S
O154 C161 1.275 . S
Cd155 O154 2.300 . S
Cd155 O163 2.381 . S
Cd155 O164 2.378 . S
O156 Cd157 2.385 . S
O156 C161 1.255 . S
Cd157 O156 2.385 . S
Cd157 O158 2.317 . S
O158 Cd157 2.317 . S
O158 C159 1.232 . S
C159 O158 1.232 . S
C159 O160 1.218 . S
O160 C159 1.218 . S
C161 O154 1.275 . S
C161 O156 1.255 . S
C162 O163 1.258 . S
C162 O164 1.256 . S
O163 Cd155 2.381 . S
O163 C162 1.258 . S
O164 Cd155 2.378 . S
O164 C162 1.256 . S
O165 Cd166 2.300 . S
O165 C172 1.275 . S
Cd166 O165 2.300 . S
Cd166 O174 2.381 . S
Cd166 O175 2.378 . S
O167 Cd168 2.385 . S
O167 C172 1.255 . S
Cd168 O167 2.385 . S
Cd168 O169 2.317 . S
O169 Cd168 2.317 . S
O169 C170 1.232 . S
C170 O169 1.232 . S
C170 O171 1.218 . S
O171 C170 1.218 . S
C172 O165 1.275 . S
C172 O167 1.255 . S
C173 O174 1.258 . S
C173 O175 1.256 . S
O174 Cd166 2.381 . S
O174 C173 1.258 . S
O175 Cd166 2.378 . S
O175 C173 1.256 . S
O176 Cd177 2.300 . S
O176 C183 1.275 . S
Cd177 O176 2.300 . S
Cd177 O185 2.381 . S
Cd177 O186 2.378 . S
O178 Cd179 2.385 . S
O178 C183 1.255 . S
Cd179 O178 2.385 . S
Cd179 O180 2.317 . S
O180 Cd179 2.317 . S
O180 C181 1.232 . S
C181 O180 1.232 . S
C181 O182 1.218 . S
O182 C181 1.218 . S
C183 O176 1.275 . S
C183 O178 1.255 . S
C184 O185 1.258 . S
C184 O186 1.256 . S
O185 Cd177 2.381 . S
O185 C184 1.258 . S
O186 Cd177 2.378 . S
O186 C184 1.256 . S
O187 Cd188 2.300 . S
O187 C194 1.275 . S
Cd188 O187 2.300 . S
Cd188 O196 2.381 . S
Cd188 O197 2.378 . S
O189 Cd190 2.385 . S
O189 C194 1.255 . S
Cd190 O189 2.385 . S
Cd190 O191 2.317 . S
O191 Cd190 2.317 . S
O191 C192 1.232 . S
C192 O191 1.232 . S
C192 O193 1.218 . S
O193 C192 1.218 . S
C194 O187 1.275 . S
C194 O189 1.255 . S
C195 O196 1.258 . S
C195 O197 1.256 . S
O196 Cd188 2.381 . S
O196 C195 1.258 . S
O197 Cd188 2.378 . S
O197 C195 1.256 . S
O198 Cd199 2.300 . S
O198 C205 1.275 . S
Cd199 O198 2.300 . S
Cd199 O207 2.381 . S
Cd199 O208 2.378 . S
O200 Cd201 2.385 . S
O200 C205 1.255 . S
Cd201 O200 2.385 . S
Cd201 O202 2.317 . S
O202 Cd201 2.317 . S
O202 C203 1.232 . S
C203 O202 1.232 . S
C203 O204 1.218 . S
O204 C203 1.218 . S
C205 O198 1.275 . S
C205 O200 1.255 . S
C206 O207 1.258 . S
C206 O208 1.256 . S
O207 Cd199 2.381 . S
O207 C206 1.258 . S
O208 Cd199 2.378 . S
O208 C206 1.256 . S
O209 Cd210 2.300 . S
O209 C216 1.275 . S
Cd210 O209 2.300 . S
Cd210 O218 2.381 . S
Cd210 O219 2.378 . S
O211 Cd212 2.385 . S
O211 C216 1.255 . S
Cd212 O211 2.385 . S
Cd212 O213 2.317 . S
O213 Cd212 2.317 . S
O213 C214 1.232 . S
C214 O213 1.232 . S
C214 O215 1.218 . S
O215 C214 1.218 . S
C216 O209 1.275 . S
C216 O211 1.255 . S
C217 O218 1.258 . S
C217 O219 1.256 . S
O218 Cd210 2.381 . S
O218 C217 1.258 . S
O219 Cd210 2.378 . S
O219 C217 1.256 . S
O220 Cd221 2.300 . S
O220 C227 1.275 . S
Cd221 O220 2.300 . S
Cd221 O229 2.381 . S
Cd221 O230 2.378 . S
O222 Cd223 2.385 . S
O222 C227 1.255 . S
Cd223 O222 2.385 . S
Cd223 O224 2.317 . S
O224 Cd223 2.317 . S
O224 C225 1.232 . S
C225 O224 1.232 . S
C225 O226 1.218 . S
O226 C225 1.218 . S
C227 O220 1.275 . S
C227 O222 1.255 . S
C228 O229 1.258 . S
C228 O230 1.256 . S
O229 Cd221 2.381 . S
O229 C228 1.258 . S
O230 Cd221 2.378 . S
O230 C228 1.256 . S
O231 Cd232 2.300 . S
O231 C238 1.275 . S
Cd232 O231 2.300 . S
Cd232 O240 2.381 . S
Cd232 O241 2.378 . S
O233 Cd234 2.385 . S
O233 C238 1.255 . S
Cd234 O233 2.385 . S
Cd234 O235 2.317 . S
O235 Cd234 2.317 . S
O235 C236 1.232 . S
C236 O235 1.232 . S
C236 O237 1.218 . S
O237 C236 1.218 . S
C238 O231 1.275 . S
C238 O233 1.255 . S
C239 O240 1.258 . S
C239 O241 1.256 . S
O240 Cd232 2.381 . S
O240 C239 1.258 . S
O241 Cd232 2.378 . S
O241 C239 1.256 . S
O242 Cd243 2.300 . S
O242 C249 1.275 . S
Cd243 O242 2.300 . S
Cd243 O251 2.381 . S
Cd243 O252 2.378 . S
O244 Cd245 2.385 . S
O244 C249 1.255 . S
Cd245 O244 2.385 . S
Cd245 O246 2.317 . S
O246 Cd245 2.317 . S
O246 C247 1.232 . S
C247 O246 1.232 . S
C247 O248 1.218 . S
O248 C247 1.218 . S
C249 O242 1.275 . S
C249 O244 1.255 . S
C250 O251 1.258 . S
C250 O252 1.256 . S
O251 Cd243 2.381 . S
O251 C250 1.258 . S
O252 Cd243 2.378 . S
O252 C250 1.256 . S
O253 Cd254 2.300 . S
O253 C260 1.275 . S
Cd254 O253 2.300 . S
Cd254 O262 2.381 . S
Cd254 O263 2.378 . S
O255 Cd256 2.385 . S
O255 C260 1.255 . S
Cd256 O255 2.385 . S
Cd256 O257 2.317 . S
O257 Cd256 2.317 . S
O257 C258 1.232 . S
C258 O257 1.232 . S
C258 O259 1.218 . S
O259 C258 1.218 . S
C260 O253 1.275 . S
C260 O255 1.255 . S
C261 O262 1.258 . S
C261 O263 1.256 . S
O262 Cd254 2.381 . S
O262 C261 1.258 . S
O263 Cd254 2.378 . S
O263 C261 1.256 . S
O264 Cd265 2.300 . S
O264 C271 1.275 . S
Cd265 O264 2.300 . S
Cd265 O273 2.381 . S
Cd265 O274 2.378 . S
O266 Cd267 2.385 . S
O266 C271 1.255 . S
Cd267 O266 2.385 . S
Cd267 O268 2.317 . S
O268 Cd267 2.317 . S
O268 C269 1.232 . S
C269 O268 1.232 . S
C269 O270 1.218 . S
O270 C269 1.218 . S
C271 O264 1.275 . S
C271 O266 1.255 . S
C272 O273 1.258 . S
C272 O274 1.256 . S
O273 Cd265 2.381 . S
O273 C272 1.258 . S
O274 Cd265 2.378 . S
O274 C272 1.256 . S
O275 Cd276 2.300 . S
O275 C282 1.275 . S
Cd276 O275 2.300 . S
Cd276 O284 2.381 . S
Cd276 O285 2.378 . S
O277 Cd278 2.385 . S
O277 C282 1.255 . S
Cd278 O277 2.385 . S
Cd278 O279 2.317 . S
O279 Cd278 2.317 . S
O279 C280 1.232 . S
C280 O279 1.232 . S
C280 O281 1.218 . S
O281 C280 1.218 . S
C282 O275 1.275 . S
C282 O277 1.255 . S
C283 O284 1.258 . S
C283 O285 1.256 . S
O284 Cd276 2.381 . S
O284 C283 1.258 . S
O285 Cd276 2.378 . S
O285 C283 1.256 . S
O286 Cd287 2.300 . S
O286 C293 1.275 . S
Cd287 O286 2.300 . S
Cd287 O295 2.381 . S
Cd287 O296 2.378 . S
O288 Cd289 2.385 . S
O288 C293 1.255 . S
Cd289 O288 2.385 . S
Cd289 O290 2.317 . S
O290 Cd289 2.317 . S
O290 C291 1.232 . S
C291 O290 1.232 . S
C291 O292 1.218 . S
O292 C291 1.218 . S
C293 O286 1.275 . S
C293 O288 1.255 . S
C294 O295 1.258 . S
C294 O296 1.256 . S
O295 Cd287 2.381 . S
O295 C294 1.258 . S
O296 Cd287 2.378 . S
O296 C294 1.256 . S
O297 Cd298 2.300 . S
O297 C304 1.275 . S
Cd298 O297 2.300 . S
Cd298 O306 2.381 . S
Cd298 O307 2.378 . S
O299 Cd300 2.385 . S
O299 C304 1.255 . S
Cd300 O299 2.385 . S
Cd300 O301 2.317 . S
O301 Cd300 2.317 . S
O301 C302 1.232 . S
C302 O301 1.232 . S
C302 O303 1.218 . S
O303 C302 1.218 . S
C304 O297 1.275 . S
C304 O299 1.255 . S
C305 O306 1.258 . S
C305 O307 1.256 . S
O306 Cd298 2.381 . S
O306 C305 1.258 . S
O307 Cd298 2.378 . S
O307 C305 1.256 . S
O308 Cd309 2.300 . S
O308 C315 1.275 . S
Cd309 O308 2.300 . S
Cd309 O317 2.381 . S
Cd309 O318 2.378 . S
O310 Cd311 2.385 . S
O310 C315 1.255 . S
Cd311 O310 2.385 . S
Cd311 O312 2.317 . S
O312 Cd311 2.317 . S
O312 C313 1.232 . S
C313 O312 1.232 . S
C313 O314 1.218 . S
O314 C313 1.218 . S
C315 O308 1.275 . S
C315 O310 1.255 . S
C316 O317 1.258 . S
C316 O318 1.256 . S
O317 Cd309 2.381 . S
O317 C316 1.258 . S
O318 Cd309 2.378 . S
O318 C316 1.256 . S
O319 Cd320 2.300 . S
O319 C326 1.275 . S
Cd320 O319 2.300 . S
Cd320 O328 2.381 . S
Cd320 O329 2.378 . S
O321 Cd322 2.385 . S
O321 C326 1.255 . S
Cd322 O321 2.385 . S
Cd322 O323 2.317 . S
O323 Cd322 2.317 . S
O323 C324 1.232 . S
C324 O323 1.232 . S
C324 O325 1.218 . S
O325 C324 1.218 . S
C326 O319 1.275 . S
C326 O321 1.255 . S
C327 O328 1.258 . S
C327 O329 1.256 . S
O328 Cd320 2.381 . S
O328 C327 1.258 . S
O329 Cd320 2.378 . S
O329 C327 1.256 . S
O330 Cd331 2.300 . S
O330 C337 1.275 . S
Cd331 O330 2.300 . S
Cd331 O339 2.381 . S
Cd331 O340 2.378 . S
O332 Cd333 2.385 . S
O332 C337 1.255 . S
Cd333 O332 2.385 . S
Cd333 O334 2.317 . S
O334 Cd333 2.317 . S
O334 C335 1.232 . S
C335 O334 1.232 . S
C335 O336 1.218 . S
O336 C335 1.218 . S
C337 O330 1.275 . S
C337 O332 1.255 . S
C338 O339 1.258 . S
C338 O340 1.256 . S
O339 Cd331 2.381 . S
O339 C338 1.258 . S
O340 Cd331 2.378 . S
O340 C338 1.256 . S
O341 Cd342 2.300 . S
O341 C348 1.275 . S
Cd342 O341 2.300 . S
Cd342 O350 2.381 . S
Cd342 O351 2.378 . S
O343 Cd344 2.385 . S
O343 C348 1.255 . S
Cd344 O343 2.385 . S
Cd344 O345 2.317 . S
O345 Cd344 2.317 . S
O345 C346 1.232 . S
C346 O345 1.232 . S
C346 O347 1.218 . S
O347 C346 1.218 . S
C348 O341 1.275 . S
C348 O343 1.255 . S
C349 O350 1.258 . S
C349 O351 1.256 . S
O350 Cd342 2.381 . S
O350 C349 1.258 . S
O351 Cd342 2.378 . S
O351 C349 1.256 . S
O352 Cd353 2.300 . S
O352 C359 1.275 . S
Cd353 O352 2.300 . S
Cd353 O361 2.381 . S
Cd353 O362 2.378 . S
O354 Cd355 2.385 . S
O354 C359 1.255 . S
Cd355 O354 2.385 . S
Cd355 O356 2.317 . S
O356 Cd355 2.317 . S
O356 C357 1.232 . S
C357 O356 1.232 . S
C357 O358 1.218 . S
O358 C357 1.218 . S
C359 O352 1.275 . S
C359 O354 1.255 . S
C360 O361 1.258 . S
C360 O362 1.256 . S
O361 Cd353 2.381 . S
O361 C360 1.258 . S
O362 Cd353 2.378 . S
O362 C360 1.256 . S
O363 Cd364 2.300 . S
O363 C370 1.275 . S
Cd364 O363 2.300 . S
Cd364 O372 2.381 . S
Cd364 O373 2.378 . S
O365 Cd366 2.385 . S
O365 C370 1.255 . S
Cd366 O365 2.385 . S
Cd366 O367 2.317 . S
O367 Cd366 2.317 . S
O367 C368 1.232 . S
C368 O367 1.232 . S
C368 O369 1.218 . S
O369 C368 1.218 . S
C370 O363 1.275 . S
C370 O365 1.255 . S
C371 O372 1.258 . S
C371 O373 1.256 . S
O372 Cd364 2.381 . S
O372 C371 1.258 . S
O373 Cd364 2.378 . S
O373 C371 1.256 . S
O374 Cd375 2.300 . S
O374 C381 1.275 . S
Cd375 O374 2.300 . S
Cd375 O383 2.381 . S
Cd375 O384 2.378 . S
O376 Cd377 2.385 . S
O376 C381 1.255 . S
Cd377 O376 2.385 . S
Cd377 O378 2.317 . S
O378 Cd377 2.317 . S
O378 C379 1.232 . S
C379 O378 1.232 . S
C379 O380 1.218 . S
O380 C379 1.218 . S
C381 O374 1.275 . S
C381 O376 1.255 . S
C382 O383 1.258 . S
C382 O384 1.256 . S
O383 Cd375 2.381 . S
O383 C382 1.258 . S
O384 Cd375 2.378 . S
O384 C382 1.256 . S
O385 Cd386 2.300 . S
O385 C392 1.275 . S
Cd386 O385 2.300 . S
Cd386 O394 2.381 . S
Cd386 O395 2.378 . S
O387 Cd388 2.385 . S
O387 C392 1.255 . S
Cd388 O387 2.385 . S
Cd388 O389 2.317 . S
O389 Cd388 2.317 . S
O389 C390 1.232 . S
C390 O389 1.232 . S
C390 O391 1.218 . S
O391 C390 1.218 . S
C392 O385 1.275 . S
C392 O387 1.255 . S
C393 O394 1.258 . S
C393 O395 1.256 . S
O394 Cd386 2.381 . S
O394 C393 1.258 . S
O395 Cd386 2.378 . S
O395 C393 1.256 . S
O396 Cd397 2.300 . S
O396 C403 1.275 . S
Cd397 O396 2.300 . S
Cd397 O405 2.381 . S
Cd397 O406 2.378 . S
O398 Cd399 2.385 . S
O398 C403 1.255 . S
Cd399 O398 2.385 . S
Cd399 O400 2.317 . S
O400 Cd399 2.317 . S
O400 C401 1.232 . S
C401 O400 1.232 . S
C401 O402 1.218 . S
O402 C401 1.218 . S
C403 O396 1.275 . S
C403 O398 1.255 . S
C404 O405 1.258 . S
C404 O406 1.256 . S
O405 Cd397 2.381 . S
O405 C404 1.258 . S
O406 Cd397 2.378 . S
O406 C404 1.256 . S
O407 Cd408 2.300 . S
O407 C414 1.275 . S
Cd408 O407 2.300 . S
Cd408 O416 2.381 . S
Cd408 O417 2.378 . S
O409 Cd410 2.385 . S
O409 C414 1.255 . S
Cd410 O409 2.385 . S
Cd410 O411 2.317 . S
O411 Cd410 2.317 . S
O411 C412 1.232 . S
C412 O411 1.232 . S
C412 O413 1.218 . S
O413 C412 1.218 . S
C414 O407 1.275 . S
C414 O409 1.255 . S
C415 O416 1.258 . S
C415 O417 1.256 . S
O416 Cd408 2.381 . S
O416 C415 1.258 . S
O417 Cd408 2.378 . S
O417 C415 1.256 . S
O418 Cd419 2.300 . S
O418 C425 1.275 . S
Cd419 O418 2.300 . S
Cd419 O427 2.381 . S
Cd419 O428 2.378 . S
O420 Cd421 2.385 . S
O420 C425 1.255 . S
Cd421 O420 2.385 . S
Cd421 O422 2.317 . S
O422 Cd421 2.317 . S
O422 C423 1.232 . S
C423 O422 1.232 . S
C423 O424 1.218 . S
O424 C423 1.218 . S
C425 O418 1.275 . S
C425 O420 1.255 . S
C426 O427 1.258 . S
C426 O428 1.256 . S
O427 Cd419 2.381 . S
O427 C426 1.258 . S
O428 Cd419 2.378 . S
O428 C426 1.256 . S
O429 Cd430 2.300 . S
O429 C436 1.275 . S
Cd430 O429 2.300 . S
Cd430 O438 2.381 . S
Cd430 O439 2.378 . S
O431 Cd432 2.385 . S
O431 C436 1.255 . S
Cd432 O431 2.385 . S
Cd432 O433 2.317 . S
O433 Cd432 2.317 . S
O433 C434 1.232 . S
C434 O433 1.232 . S
C434 O435 1.218 . S
O435 C434 1.218 . S
C436 O429 1.275 . S
C436 O431 1.255 . S
C437 O438 1.258 . S
C437 O439 1.256 . S
O438 Cd430 2.381 . S
O438 C437 1.258 . S
O439 Cd430 2.378 . S
O439 C437 1.256 . S
O440 Cd441 2.300 . S
O440 C447 1.275 . S
Cd441 O440 2.300 . S
Cd441 O449 2.381 . S
Cd441 O450 2.378 . S
O442 Cd443 2.385 . S
O442 C447 1.255 . S
Cd443 O442 2.385 . S
Cd443 O444 2.317 . S
O444 Cd443 2.317 . S
O444 C445 1.232 . S
C445 O444 1.232 . S
C445 O446 1.218 . S
O446 C445 1.218 . S
C447 O440 1.275 . S
C447 O442 1.255 . S
C448 O449 1.258 . S
C448 O450 1.256 . S
O449 Cd441 2.381 . S
O449 C448 1.258 . S
O450 Cd441 2.378 . S
O450 C448 1.256 . S
O451 Cd452 2.300 . S
O451 C458 1.275 . S
Cd452 O451 2.300 . S
Cd452 O460 2.381 . S
Cd452 O461 2.378 . S
O453 Cd454 2.385 . S
O453 C458 1.255 . S
Cd454 O453 2.385 . S
Cd454 O455 2.317 . S
O455 Cd454 2.317 . S
O455 C456 1.232 . S
C456 O455 1.232 . S
C456 O457 1.218 . S
O457 C456 1.218 . S
C458 O451 1.275 . S
C458 O453 1.255 . S
C459 O460 1.258 . S
C459 O461 1.256 . S
O460 Cd452 2.381 . S
O460 C459 1.258 . S
O461 Cd452 2.378 . S
O461 C459 1.256 . S
O462 Cd463 2.300 . S
O462 C469 1.275 . S
Cd463 O462 2.300 . S
Cd463 O471 2.381 . S
Cd463 O472 2.378 . S
O464 Cd465 2.385 . S
O464 C469 1.255 . S
Cd465 O464 2.385 . S
Cd465 O466 2.317 . S
O466 Cd465 2.317 . S
O466 C467 1.232 . S
C467 O466 1.232 . S
C467 O468 1.218 . S
O468 C467 1.218 . S
C469 O462 1.275 . S
C469 O464 1.255 . S
C470 O471 1.258 . S
C470 O472 1.256 . S
O471 Cd463 2.381 . S
O471 C470 1.258 . S
O472 Cd463 2.378 . S
O472 C470 1.256 . S
O473 Cd474 2.300 . S
O473 C480 1.275 . S
Cd474 O473 2.300 . S
Cd474 O482 2.381 . S
Cd474 O483 2.378 . S
O475 Cd476 2.385 . S
O475 C480 1.255 . S
Cd476 O475 2.385 . S
Cd476 O477 2.317 . S
O477 Cd476 2.317 . S
O477 C478 1.232 . S
C478 O477 1.232 . S
C478 O479 1.218 . S
O479 C478 1.218 . S
C480 O473 1.275 . S
C480 O475 1.255 . S
C481 O482 1.258 . S
C481 O483 1.256 . S
O482 Cd474 2.381 . S
O482 C481 1.258 . S
O483 Cd474 2.378 . S
O483 C481 1.256 . S
O484 Cd485 2.300 . S
O484 C491 1.275 . S
Cd485 O484 2.300 . S
Cd485 O493 2.381 . S
Cd485 O494 2.378 . S
O486 Cd487 2.385 . S
O486 C491 1.255 . S
Cd487 O486 2.385 . S
Cd487 O488 2.317 . S
O488 Cd487 2.317 . S
O488 C489 1.232 . S
C489 O488 1.232 . S
C489 O490 1.218 . S
O490 C489 1.218 . S
C491 O484 1.275 . S
C491 O486 1.255 . S
C492 O493 1.258 . S
C492 O494 1.256 . S
O493 Cd485 2.381 . S
O493 C492 1.258 . S
O494 Cd485 2.378 . S
O494 C492 1.256 . S
O495 Cd496 2.300 . S
O495 C502 1.275 . S
Cd496 O495 2.300 . S
Cd496 O504 2.381 . S
Cd496 O505 2.378 . S
O497 Cd498 2.385 . S
O497 C502 1.255 . S
Cd498 O497 2.385 . S
Cd498 O499 2.317 . S
O499 Cd498 2.317 . S
O499 C500 1.232 . S
C500 O499 1.232 . S
C500 O501 1.218 . S
O501 C500 1.218 . S
C502 O495 1.275 . S
C502 O497 1.255 . S
C503 O504 1.258 . S
C503 O505 1.256 . S
O504 Cd496 2.381 . S
O504 C503 1.258 . S
O505 Cd496 2.378 . S
O505 C503 1.256 . S
O506 Cd507 2.300 . S
O506 C513 1.275 . S
Cd507 O506 2.300 . S
Cd507 O515 2.381 . S
Cd507 O516 2.378 . S
O508 Cd509 2.385 . S
O508 C513 1.255 . S
Cd509 O508 2.385 . S
Cd509 O510 2.317 . S
O510 Cd509 2.317 . S
O510 C511 1.232 . S
C511 O510 1.232 . S
C511 O512 1.218 . S
O512 C511 1.218 . S
C513 O506 1.275 . S
C513 O508 1.255 . S
C514 O515 1.258 . S
C514 O516 1.256 . S
O515 Cd507 2.381 . S
O515 C514 1.258 . S
O516 Cd507 2.378 . S
O516 C514 1.256 . S
O517 Cd518 2.300 . S
O517 C524 1.275 . S
Cd518 O517 2.300 . S
Cd518 O526 2.381 . S
Cd518 O527 2.378 . S
O519 Cd520 2.385 . S
O519 C524 1.255 . S
Cd520 O519 2.385 . S
Cd520 O521 2.317 . S
O521 Cd520 2.317 . S
O521 C522 1.232 . S
C522 O521 1.232 . S
C522 O523 1.218 . S
O523 C522 1.218 . S
C524 O517 1.275 . S
C524 O519 1.255 . S
C525 O526 1.258 . S
C525 O527 1.256 . S
O526 Cd518 2.381 . S
O526 C525 1.258 . S
O527 Cd518 2.378 . S
O527 C525 1.256 . S
H528 C536 0.950 . S
H529 C541 0.950 . S
H530 C538 0.950 . S
H531 C540 0.950 . S
H532 C542 0.950 . S
H533 C544 0.950 . S
H534 C546 0.950 . S
H535 C547 0.950 . S
C536 H528 0.950 . S
C536 C537 1.386 . S
C536 C538 1.391 . S
C537 C536 1.386 . S
C537 C541 1.393 . S
C538 H530 0.950 . S
C538 C536 1.391 . S
C538 C539 1.400 . S
C539 C538 1.400 . S
C539 C540 1.398 . S
C539 C545 1.491 . S
C540 H531 0.950 . S
C540 C539 1.398 . S
C540 C541 1.391 . S
C541 H529 0.950 . S
C541 C537 1.393 . S
C541 C540 1.391 . S
C542 H532 0.950 . S
C542 C543 1.386 . S
C542 C544 1.391 . S
C543 C542 1.386 . S
C543 C547 1.393 . S
C544 H533 0.950 . S
C544 C542 1.391 . S
C544 C545 1.400 . S
C545 C539 1.491 . S
C545 C544 1.400 . S
C545 C546 1.398 . S
C546 H534 0.950 . S
C546 C545 1.398 . S
C546 C547 1.391 . S
C547 H535 0.950 . S
C547 C543 1.393 . S
C547 C546 1.391 . S
H548 C556 0.950 . S
H549 C561 0.950 . S
H550 C558 0.950 . S
H551 C560 0.950 . S
H552 C562 0.950 . S
H553 C564 0.950 . S
H554 C566 0.950 . S
H555 C567 0.950 . S
C556 H548 0.950 . S
C556 C557 1.386 . S
C556 C558 1.391 . S
C557 C556 1.386 . S
C557 C561 1.393 . S
C558 H550 0.950 . S
C558 C556 1.391 . S
C558 C559 1.400 . S
C559 C558 1.400 . S
C559 C560 1.398 . S
C559 C565 1.491 . S
C560 H551 0.950 . S
C560 C559 1.398 . S
C560 C561 1.391 . S
C561 H549 0.950 . S
C561 C557 1.393 . S
C561 C560 1.391 . S
C562 H552 0.950 . S
C562 C563 1.386 . S
C562 C564 1.391 . S
C563 C562 1.386 . S
C563 C567 1.393 . S
C564 H553 0.950 . S
C564 C562 1.391 . S
C564 C565 1.400 . S
C565 C559 1.491 . S
C565 C564 1.400 . S
C565 C566 1.398 . S
C566 H554 0.950 . S
C566 C565 1.398 . S
C566 C567 1.391 . S
C567 H555 0.950 . S
C567 C563 1.393 . S
C567 C566 1.391 . S
H568 C576 0.950 . S
H569 C581 0.950 . S
H570 C578 0.950 . S
H571 C580 0.950 . S
H572 C582 0.950 . S
H573 C584 0.950 . S
H574 C586 0.950 . S
H575 C587 0.950 . S
C576 H568 0.950 . S
C576 C577 1.386 . S
C576 C578 1.391 . S
C577 C576 1.386 . S
C577 C581 1.393 . S
C578 H570 0.950 . S
C578 C576 1.391 . S
C578 C579 1.400 . S
C579 C578 1.400 . S
C579 C580 1.398 . S
C579 C585 1.491 . S
C580 H571 0.950 . S
C580 C579 1.398 . S
C580 C581 1.391 . S
C581 H569 0.950 . S
C581 C577 1.393 . S
C581 C580 1.391 . S
C582 H572 0.950 . S
C582 C583 1.386 . S
C582 C584 1.391 . S
C583 C582 1.386 . S
C583 C587 1.393 . S
C584 H573 0.950 . S
C584 C582 1.391 . S
C584 C585 1.400 . S
C585 C579 1.491 . S
C585 C584 1.400 . S
C585 C586 1.398 . S
C586 H574 0.950 . S
C586 C585 1.398 . S
C586 C587 1.391 . S
C587 H575 0.950 . S
C587 C583 1.393 . S
C587 C586 1.391 . S
H588 C596 0.950 . S
H589 C601 0.950 . S
H590 C598 0.950 . S
H591 C600 0.950 . S
H592 C602 0.950 . S
H593 C604 0.950 . S
H594 C606 0.950 . S
H595 C607 0.950 . S
C596 H588 0.950 . S
C596 C597 1.386 . S
C596 C598 1.391 . S
C597 C596 1.386 . S
C597 C601 1.393 . S
C598 H590 0.950 . S
C598 C596 1.391 . S
C598 C599 1.400 . S
C599 C598 1.400 . S
C599 C600 1.398 . S
C599 C605 1.491 . S
C600 H591 0.950 . S
C600 C599 1.398 . S
C600 C601 1.391 . S
C601 H589 0.950 . S
C601 C597 1.393 . S
C601 C600 1.391 . S
C602 H592 0.950 . S
C602 C603 1.386 . S
C602 C604 1.391 . S
C603 C602 1.386 . S
C603 C607 1.393 . S
C604 H593 0.950 . S
C604 C602 1.391 . S
C604 C605 1.400 . S
C605 C599 1.491 . S
C605 C604 1.400 . S
C605 C606 1.398 . S
C606 H594 0.950 . S
C606 C605 1.398 . S
C606 C607 1.391 . S
C607 H595 0.950 . S
C607 C603 1.393 . S
C607 C606 1.391 . S
H608 C616 0.950 . S
H609 C621 0.950 . S
H610 C618 0.950 . S
H611 C620 0.950 . S
H612 C622 0.950 . S
H613 C624 0.950 . S
H614 C626 0.950 . S
H615 C627 0.950 . S
C616 H608 0.950 . S
C616 C617 1.386 . S
C616 C618 1.391 . S
C617 C616 1.386 . S
C617 C621 1.393 . S
C618 H610 0.950 . S
C618 C616 1.391 . S
C618 C619 1.400 . S
C619 C618 1.400 . S
C619 C620 1.398 . S
C619 C625 1.491 . S
C620 H611 0.950 . S
C620 C619 1.398 . S
C620 C621 1.391 . S
C621 H609 0.950 . S
C621 C617 1.393 . S
C621 C620 1.391 . S
C622 H612 0.950 . S
C622 C623 1.386 . S
C622 C624 1.391 . S
C623 C622 1.386 . S
C623 C627 1.393 . S
C624 H613 0.950 . S
C624 C622 1.391 . S
C624 C625 1.400 . S
C625 C619 1.491 . S
C625 C624 1.400 . S
C625 C626 1.398 . S
C626 H614 0.950 . S
C626 C625 1.398 . S
C626 C627 1.391 . S
C627 H615 0.950 . S
C627 C623 1.393 . S
C627 C626 1.391 . S
H628 C636 0.950 . S
H629 C641 0.950 . S
H630 C638 0.950 . S
H631 C640 0.950 . S
H632 C642 0.950 . S
H633 C644 0.950 . S
H634 C646 0.950 . S
H635 C647 0.950 . S
C636 H628 0.950 . S
C636 C637 1.386 . S
C636 C638 1.391 . S
C637 C636 1.386 . S
C637 C641 1.393 . S
C638 H630 0.950 . S
C638 C636 1.391 . S
C638 C639 1.400 . S
C639 C638 1.400 . S
C639 C640 1.398 . S
C639 C645 1.491 . S
C640 H631 0.950 . S
C640 C639 1.398 . S
C640 C641 1.391 . S
C641 H629 0.950 . S
C641 C637 1.393 . S
C641 C640 1.391 . S
C642 H632 0.950 . S
C642 C643 1.386 . S
C642 C644 1.391 . S
C643 C642 1.386 . S
C643 C647 1.393 . S
C644 H633 0.950 . S
C644 C642 1.391 . S
C644 C645 1.400 . S
C645 C639 1.491 . S
C645 C644 1.400 . S
C645 C646 1.398 . S
C646 H634 0.950 . S
C646 C645 1.398 . S
C646 C647 1.391 . S
C647 H635 0.950 . S
C647 C643 1.393 . S
C647 C646 1.391 . S
H648 C656 0.950 . S
H649 C661 0.950 . S
H650 C658 0.950 . S
H651 C660 0.950 . S
H652 C662 0.950 . S
H653 C664 0.950 . S
H654 C666 0.950 . S
H655 C667 0.950 . S
C656 H648 0.950 . S
C656 C657 1.386 . S
C656 C658 1.391 . S
C657 C656 1.386 . S
C657 C661 1.393 . S
C658 H650 0.950 . S
C658 C656 1.391 . S
C658 C659 1.400 . S
C659 C658 1.400 . S
C659 C660 1.398 . S
C659 C665 1.491 . S
C660 H651 0.950 . S
C660 C659 1.398 . S
C660 C661 1.391 . S
C661 H649 0.950 . S
C661 C657 1.393 . S
C661 C660 1.391 . S
C662 H652 0.950 . S
C662 C663 1.386 . S
C662 C664 1.391 . S
C663 C662 1.386 . S
C663 C667 1.393 . S
C664 H653 0.950 . S
C664 C662 1.391 . S
C664 C665 1.400 . S
C665 C659 1.491 . S
C665 C664 1.400 . S
C665 C666 1.398 . S
C666 H654 0.950 . S
C666 C665 1.398 . S
C666 C667 1.391 . S
C667 H655 0.950 . S
C667 C663 1.393 . S
C667 C666 1.391 . S
H668 C676 0.950 . S
H669 C681 0.950 . S
H670 C678 0.950 . S
H671 C680 0.950 . S
H672 C682 0.950 . S
H673 C684 0.950 . S
H674 C686 0.950 . S
H675 C687 0.950 . S
C676 H668 0.950 . S
C676 C677 1.386 . S
C676 C678 1.391 . S
C677 C676 1.386 . S
C677 C681 1.393 . S
C678 H670 0.950 . S
C678 C676 1.391 . S
C678 C679 1.400 . S
C679 C678 1.400 . S
C679 C680 1.398 . S
C679 C685 1.491 . S
C680 H671 0.950 . S
C680 C679 1.398 . S
C680 C681 1.391 . S
C681 H669 0.950 . S
C681 C677 1.393 . S
C681 C680 1.391 . S
C682 H672 0.950 . S
C682 C683 1.386 . S
C682 C684 1.391 . S
C683 C682 1.386 . S
C683 C687 1.393 . S
C684 H673 0.950 . S
C684 C682 1.391 . S
C684 C685 1.400 . S
C685 C679 1.491 . S
C685 C684 1.400 . S
C685 C686 1.398 . S
C686 H674 0.950 . S
C686 C685 1.398 . S
C686 C687 1.391 . S
C687 H675 0.950 . S
C687 C683 1.393 . S
C687 C686 1.391 . S
H688 C696 0.950 . S
H689 C701 0.950 . S
H690 C698 0.950 . S
H691 C700 0.950 . S
H692 C702 0.950 . S
H693 C704 0.950 . S
H694 C706 0.950 . S
H695 C707 0.950 . S
C696 H688 0.950 . S
C696 C697 1.386 . S
C696 C698 1.391 . S
C697 C696 1.386 . S
C697 C701 1.393 . S
C698 H690 0.950 . S
C698 C696 1.391 . S
C698 C699 1.400 . S
C699 C698 1.400 . S
C699 C700 1.398 . S
C699 C705 1.491 . S
C700 H691 0.950 . S
C700 C699 1.398 . S
C700 C701 1.391 . S
C701 H689 0.950 . S
C701 C697 1.393 . S
C701 C700 1.391 . S
C702 H692 0.950 . S
C702 C703 1.386 . S
C702 C704 1.391 . S
C703 C702 1.386 . S
C703 C707 1.393 . S
C704 H693 0.950 . S
C704 C702 1.391 . S
C704 C705 1.400 . S
C705 C699 1.491 . S
C705 C704 1.400 . S
C705 C706 1.398 . S
C706 H694 0.950 . S
C706 C705 1.398 . S
C706 C707 1.391 . S
C707 H695 0.950 . S
C707 C703 1.393 . S
C707 C706 1.391 . S
H708 C716 0.950 . S
H709 C721 0.950 . S
H710 C718 0.950 . S
H711 C720 0.950 . S
H712 C722 0.950 . S
H713 C724 0.950 . S
H714 C726 0.950 . S
H715 C727 0.950 . S
C716 H708 0.950 . S
C716 C717 1.386 . S
C716 C718 1.391 . S
C717 C716 1.386 . S
C717 C721 1.393 . S
C718 H710 0.950 . S
C718 C716 1.391 . S
C718 C719 1.400 . S
C719 C718 1.400 . S
C719 C720 1.398 . S
C719 C725 1.491 . S
C720 H711 0.950 . S
C720 C719 1.398 . S
C720 C721 1.391 . S
C721 H709 0.950 . S
C721 C717 1.393 . S
C721 C720 1.391 . S
C722 H712 0.950 . S
C722 C723 1.386 . S
C722 C724 1.391 . S
C723 C722 1.386 . S
C723 C727 1.393 . S
C724 H713 0.950 . S
C724 C722 1.391 . S
C724 C725 1.400 . S
C725 C719 1.491 . S
C725 C724 1.400 . S
C725 C726 1.398 . S
C726 H714 0.950 . S
C726 C725 1.398 . S
C726 C727 1.391 . S
C727 H715 0.950 . S
C727 C723 1.393 . S
C727 C726 1.391 . S
H728 C736 0.950 . S
H729 C741 0.950 . S
H730 C738 0.950 . S
H731 C740 0.950 . S
H732 C742 0.950 . S
H733 C744 0.950 . S
H734 C746 0.950 . S
H735 C747 0.950 . S
C736 H728 0.950 . S
C736 C737 1.386 . S
C736 C738 1.391 . S
C737 C736 1.386 . S
C737 C741 1.393 . S
C738 H730 0.950 . S
C738 C736 1.391 . S
C738 C739 1.400 . S
C739 C738 1.400 . S
C739 C740 1.398 . S
C739 C745 1.491 . S
C740 H731 0.950 . S
C740 C739 1.398 . S
C740 C741 1.391 . S
C741 H729 0.950 . S
C741 C737 1.393 . S
C741 C740 1.391 . S
C742 H732 0.950 . S
C742 C743 1.386 . S
C742 C744 1.391 . S
C743 C742 1.386 . S
C743 C747 1.393 . S
C744 H733 0.950 . S
C744 C742 1.391 . S
C744 C745 1.400 . S
C745 C739 1.491 . S
C745 C744 1.400 . S
C745 C746 1.398 . S
C746 H734 0.950 . S
C746 C745 1.398 . S
C746 C747 1.391 . S
C747 H735 0.950 . S
C747 C743 1.393 . S
C747 C746 1.391 . S
H748 C756 0.950 . S
H749 C761 0.950 . S
H750 C758 0.950 . S
H751 C760 0.950 . S
H752 C762 0.950 . S
H753 C764 0.950 . S
H754 C766 0.950 . S
H755 C767 0.950 . S
C756 H748 0.950 . S
C756 C757 1.386 . S
C756 C758 1.391 . S
C757 C756 1.386 . S
C757 C761 1.393 . S
C758 H750 0.950 . S
C758 C756 1.391 . S
C758 C759 1.400 . S
C759 C758 1.400 . S
C759 C760 1.398 . S
C759 C765 1.491 . S
C760 H751 0.950 . S
C760 C759 1.398 . S
C760 C761 1.391 . S
C761 H749 0.950 . S
C761 C757 1.393 . S
C761 C760 1.391 . S
C762 H752 0.950 . S
C762 C763 1.386 . S
C762 C764 1.391 . S
C763 C762 1.386 . S
C763 C767 1.393 . S
C764 H753 0.950 . S
C764 C762 1.391 . S
C764 C765 1.400 . S
C765 C759 1.491 . S
C765 C764 1.400 . S
C765 C766 1.398 . S
C766 H754 0.950 . S
C766 C765 1.398 . S
C766 C767 1.391 . S
C767 H755 0.950 . S
C767 C763 1.393 . S
C767 C766 1.391 . S
H768 C776 0.950 . S
H769 C781 0.950 . S
H770 C778 0.950 . S
H771 C780 0.950 . S
H772 C782 0.950 . S
H773 C784 0.950 . S
H774 C786 0.950 . S
H775 C787 0.950 . S
C776 H768 0.950 . S
C776 C777 1.386 . S
C776 C778 1.391 . S
C777 C776 1.386 . S
C777 C781 1.393 . S
C778 H770 0.950 . S
C778 C776 1.391 . S
C778 C779 1.400 . S
C779 C778 1.400 . S
C779 C780 1.398 . S
C779 C785 1.491 . S
C780 H771 0.950 . S
C780 C779 1.398 . S
C780 C781 1.391 . S
C781 H769 0.950 . S
C781 C777 1.393 . S
C781 C780 1.391 . S
C782 H772 0.950 . S
C782 C783 1.386 . S
C782 C784 1.391 . S
C783 C782 1.386 . S
C783 C787 1.393 . S
C784 H773 0.950 . S
C784 C782 1.391 . S
C784 C785 1.400 . S
C785 C779 1.491 . S
C785 C784 1.400 . S
C785 C786 1.398 . S
C786 H774 0.950 . S
C786 C785 1.398 . S
C786 C787 1.391 . S
C787 H775 0.950 . S
C787 C783 1.393 . S
C787 C786 1.391 . S
H788 C796 0.950 . S
H789 C801 0.950 . S
H790 C798 0.950 . S
H791 C800 0.950 . S
H792 C802 0.950 . S
H793 C804 0.950 . S
H794 C806 0.950 . S
H795 C807 0.950 . S
C796 H788 0.950 . S
C796 C797 1.386 . S
C796 C798 1.391 . S
C797 C796 1.386 . S
C797 C801 1.393 . S
C798 H790 0.950 . S
C798 C796 1.391 . S
C798 C799 1.400 . S
C799 C798 1.400 . S
C799 C800 1.398 . S
C799 C805 1.491 . S
C800 H791 0.950 . S
C800 C799 1.398 . S
C800 C801 1.391 . S
C801 H789 0.950 . S
C801 C797 1.393 . S
C801 C800 1.391 . S
C802 H792 0.950 . S
C802 C803 1.386 . S
C802 C804 1.391 . S
C803 C802 1.386 . S
C803 C807 1.393 . S
C804 H793 0.950 . S
C804 C802 1.391 . S
C804 C805 1.400 . S
C805 C799 1.491 . S
C805 C804 1.400 . S
C805 C806 1.398 . S
C806 H794 0.950 . S
C806 C805 1.398 . S
C806 C807 1.391 . S
C807 H795 0.950 . S
C807 C803 1.393 . S
C807 C806 1.391 . S
H808 C816 0.950 . S
H809 C821 0.950 . S
H810 C818 0.950 . S
H811 C820 0.950 . S
H812 C822 0.950 . S
H813 C824 0.950 . S
H814 C826 0.950 . S
H815 C827 0.950 . S
C816 H808 0.950 . S
C816 C817 1.386 . S
C816 C818 1.391 . S
C817 C816 1.386 . S
C817 C821 1.393 . S
C818 H810 0.950 . S
C818 C816 1.391 . S
C818 C819 1.400 . S
C819 C818 1.400 . S
C819 C820 1.398 . S
C819 C825 1.491 . S
C820 H811 0.950 . S
C820 C819 1.398 . S
C820 C821 1.391 . S
C821 H809 0.950 . S
C821 C817 1.393 . S
C821 C820 1.391 . S
C822 H812 0.950 . S
C822 C823 1.386 . S
C822 C824 1.391 . S
C823 C822 1.386 . S
C823 C827 1.393 . S
C824 H813 0.950 . S
C824 C822 1.391 . S
C824 C825 1.400 . S
C825 C819 1.491 . S
C825 C824 1.400 . S
C825 C826 1.398 . S
C826 H814 0.950 . S
C826 C825 1.398 . S
C826 C827 1.391 . S
C827 H815 0.950 . S
C827 C823 1.393 . S
C827 C826 1.391 . S
H828 C836 0.950 . S
H829 C841 0.950 . S
H830 C838 0.950 . S
H831 C840 0.950 . S
H832 C842 0.950 . S
H833 C844 0.950 . S
H834 C846 0.950 . S
H835 C847 0.950 . S
C836 H828 0.950 . S
C836 C837 1.386 . S
C836 C838 1.391 . S
C837 C836 1.386 . S
C837 C841 1.393 . S
C838 H830 0.950 . S
C838 C836 1.391 . S
C838 C839 1.400 . S
C839 C838 1.400 . S
C839 C840 1.398 . S
C839 C845 1.491 . S
C840 H831 0.950 . S
C840 C839 1.398 . S
C840 C841 1.391 . S
C841 H829 0.950 . S
C841 C837 1.393 . S
C841 C840 1.391 . S
C842 H832 0.950 . S
C842 C843 1.386 . S
C842 C844 1.391 . S
C843 C842 1.386 . S
C843 C847 1.393 . S
C844 H833 0.950 . S
C844 C842 1.391 . S
C844 C845 1.400 . S
C845 C839 1.491 . S
C845 C844 1.400 . S
C845 C846 1.398 . S
C846 H834 0.950 . S
C846 C845 1.398 . S
C846 C847 1.391 . S
C847 H835 0.950 . S
C847 C843 1.393 . S
C847 C846 1.391 . S
H848 C856 0.950 . S
H849 C861 0.950 . S
H850 C858 0.950 . S
H851 C860 0.950 . S
H852 C862 0.950 . S
H853 C864 0.950 . S
H854 C866 0.950 . S
H855 C867 0.950 . S
C856 H848 0.950 . S
C856 C857 1.386 . S
C856 C858 1.391 . S
C857 C856 1.386 . S
C857 C861 1.393 . S
C858 H850 0.950 . S
C858 C856 1.391 . S
C858 C859 1.400 . S
C859 C858 1.400 . S
C859 C860 1.398 . S
C859 C865 1.491 . S
C860 H851 0.950 . S
C860 C859 1.398 . S
C860 C861 1.391 . S
C861 H849 0.950 . S
C861 C857 1.393 . S
C861 C860 1.391 . S
C862 H852 0.950 . S
C862 C863 1.386 . S
C862 C864 1.391 . S
C863 C862 1.386 . S
C863 C867 1.393 . S
C864 H853 0.950 . S
C864 C862 1.391 . S
C864 C865 1.400 . S
C865 C859 1.491 . S
C865 C864 1.400 . S
C865 C866 1.398 . S
C866 H854 0.950 . S
C866 C865 1.398 . S
C866 C867 1.391 . S
C867 H855 0.950 . S
C867 C863 1.393 . S
C867 C866 1.391 . S
H868 C876 0.950 . S
H869 C881 0.950 . S
H870 C878 0.950 . S
H871 C880 0.950 . S
H872 C882 0.950 . S
H873 C884 0.950 . S
H874 C886 0.950 . S
H875 C887 0.950 . S
C876 H868 0.950 . S
C876 C877 1.386 . S
C876 C878 1.391 . S
C877 C876 1.386 . S
C877 C881 1.393 . S
C878 H870 0.950 . S
C878 C876 1.391 . S
C878 C879 1.400 . S
C879 C878 1.400 . S
C879 C880 1.398 . S
C879 C885 1.491 . S
C880 H871 0.950 . S
C880 C879 1.398 . S
C880 C881 1.391 . S
C881 H869 0.950 . S
C881 C877 1.393 . S
C881 C880 1.391 . S
C882 H872 0.950 . S
C882 C883 1.386 . S
C882 C884 1.391 . S
C883 C882 1.386 . S
C883 C887 1.393 . S
C884 H873 0.950 . S
C884 C882 1.391 . S
C884 C885 1.400 . S
C885 C879 1.491 . S
C885 C884 1.400 . S
C885 C886 1.398 . S
C886 H874 0.950 . S
C886 C885 1.398 . S
C886 C887 1.391 . S
C887 H875 0.950 . S
C887 C883 1.393 . S
C887 C886 1.391 . S
H888 C896 0.950 . S
H889 C901 0.950 . S
H890 C898 0.950 . S
H891 C900 0.950 . S
H892 C902 0.950 . S
H893 C904 0.950 . S
H894 C906 0.950 . S
H895 C907 0.950 . S
C896 H888 0.950 . S
C896 C897 1.386 . S
C896 C898 1.391 . S
C897 C896 1.386 . S
C897 C901 1.393 . S
C898 H890 0.950 . S
C898 C896 1.391 . S
C898 C899 1.400 . S
C899 C898 1.400 . S
C899 C900 1.398 . S
C899 C905 1.491 . S
C900 H891 0.950 . S
C900 C899 1.398 . S
C900 C901 1.391 . S
C901 H889 0.950 . S
C901 C897 1.393 . S
C901 C900 1.391 . S
C902 H892 0.950 . S
C902 C903 1.386 . S
C902 C904 1.391 . S
C903 C902 1.386 . S
C903 C907 1.393 . S
C904 H893 0.950 . S
C904 C902 1.391 . S
C904 C905 1.400 . S
C905 C899 1.491 . S
C905 C904 1.400 . S
C905 C906 1.398 . S
C906 H894 0.950 . S
C906 C905 1.398 . S
C906 C907 1.391 . S
C907 H895 0.950 . S
C907 C903 1.393 . S
C907 C906 1.391 . S
H908 C916 0.950 . S
H909 C921 0.950 . S
H910 C918 0.950 . S
H911 C920 0.950 . S
H912 C922 0.950 . S
H913 C924 0.950 . S
H914 C926 0.950 . S
H915 C927 0.950 . S
C916 H908 0.950 . S
C916 C917 1.386 . S
C916 C918 1.391 . S
C917 C916 1.386 . S
C917 C921 1.393 . S
C918 H910 0.950 . S
C918 C916 1.391 . S
C918 C919 1.400 . S
C919 C918 1.400 . S
C919 C920 1.398 . S
C919 C925 1.491 . S
C920 H911 0.950 . S
C920 C919 1.398 . S
C920 C921 1.391 . S
C921 H909 0.950 . S
C921 C917 1.393 . S
C921 C920 1.391 . S
C922 H912 0.950 . S
C922 C923 1.386 . S
C922 C924 1.391 . S
C923 C922 1.386 . S
C923 C927 1.393 . S
C924 H913 0.950 . S
C924 C922 1.391 . S
C924 C925 1.400 . S
C925 C919 1.491 . S
C925 C924 1.400 . S
C925 C926 1.398 . S
C926 H914 0.950 . S
C926 C925 1.398 . S
C926 C927 1.391 . S
C927 H915 0.950 . S
C927 C923 1.393 . S
C927 C926 1.391 . S
H928 C936 0.950 . S
H929 C941 0.950 . S
H930 C938 0.950 . S
H931 C940 0.950 . S
H932 C942 0.950 . S
H933 C944 0.950 . S
H934 C946 0.950 . S
H935 C947 0.950 . S
C936 H928 0.950 . S
C936 C937 1.386 . S
C936 C938 1.391 . S
C937 C936 1.386 . S
C937 C941 1.393 . S
C938 H930 0.950 . S
C938 C936 1.391 . S
C938 C939 1.400 . S
C939 C938 1.400 . S
C939 C940 1.398 . S
C939 C945 1.491 . S
C940 H931 0.950 . S
C940 C939 1.398 . S
C940 C941 1.391 . S
C941 H929 0.950 . S
C941 C937 1.393 . S
C941 C940 1.391 . S
C942 H932 0.950 . S
C942 C943 1.386 . S
C942 C944 1.391 . S
C943 C942 1.386 . S
C943 C947 1.393 . S
C944 H933 0.950 . S
C944 C942 1.391 . S
C944 C945 1.400 . S
C945 C939 1.491 . S
C945 C944 1.400 . S
C945 C946 1.398 . S
C946 H934 0.950 . S
C946 C945 1.398 . S
C946 C947 1.391 . S
C947 H935 0.950 . S
C947 C943 1.393 . S
C947 C946 1.391 . S
H948 C956 0.950 . S
H949 C961 0.950 . S
H950 C958 0.950 . S
H951 C960 0.950 . S
H952 C962 0.950 . S
H953 C964 0.950 . S
H954 C966 0.950 . S
H955 C967 0.950 . S
C956 H948 0.950 . S
C956 C957 1.386 . S
C956 C958 1.391 . S
C957 C956 1.386 . S
C957 C961 1.393 . S
C958 H950 0.950 . S
C958 C956 1.391 . S
C958 C959 1.400 . S
C959 C958 1.400 . S
C959 C960 1.398 . S
C959 C965 1.491 . S
C960 H951 0.950 . S
C960 C959 1.398 . S
C960 C961 1.391 . S
C961 H949 0.950 . S
C961 C957 1.393 . S
C961 C960 1.391 . S
C962 H952 0.950 . S
C962 C963 1.386 . S
C962 C964 1.391 . S
C963 C962 1.386 . S
C963 C967 1.393 . S
C964 H953 0.950 . S
C964 C962 1.391 . S
C964 C965 1.400 . S
C965 C959 1.491 . S
C965 C964 1.400 . S
C965 C966 1.398 . S
C966 H954 0.950 . S
C966 C965 1.398 . S
C966 C967 1.391 . S
C967 H955 0.950 . S
C967 C963 1.393 . S
C967 C966 1.391 . S
H968 C976 0.950 . S
H969 C981 0.950 . S
H970 C978 0.950 . S
H971 C980 0.950 . S
H972 C982 0.950 . S
H973 C984 0.950 . S
H974 C986 0.950 . S
H975 C987 0.950 . S
C976 H968 0.950 . S
C976 C977 1.386 . S
C976 C978 1.391 . S
C977 C976 1.386 . S
C977 C981 1.393 . S
C978 H970 0.950 . S
C978 C976 1.391 . S
C978 C979 1.400 . S
C979 C978 1.400 . S
C979 C980 1.398 . S
C979 C985 1.491 . S
C980 H971 0.950 . S
C980 C979 1.398 . S
C980 C981 1.391 . S
C981 H969 0.950 . S
C981 C977 1.393 . S
C981 C980 1.391 . S
C982 H972 0.950 . S
C982 C983 1.386 . S
C982 C984 1.391 . S
C983 C982 1.386 . S
C983 C987 1.393 . S
C984 H973 0.950 . S
C984 C982 1.391 . S
C984 C985 1.400 . S
C985 C979 1.491 . S
C985 C984 1.400 . S
C985 C986 1.398 . S
C986 H974 0.950 . S
C986 C985 1.398 . S
C986 C987 1.391 . S
C987 H975 0.950 . S
C987 C983 1.393 . S
C987 C986 1.391 . S
H988 C996 0.950 . S
H989 C1001 0.950 . S
H990 C998 0.950 . S
H991 C1000 0.950 . S
H992 C1002 0.950 . S
H993 C1004 0.950 . S
H994 C1006 0.950 . S
H995 C1007 0.950 . S
C996 H988 0.950 . S
C996 C997 1.386 . S
C996 C998 1.391 . S
C997 C996 1.386 . S
C997 C1001 1.393 . S
C998 H990 0.950 . S
C998 C996 1.391 . S
C998 C999 1.400 . S
C999 C998 1.400 . S
C999 C1000 1.398 . S
C999 C1005 1.491 . S
C1000 H991 0.950 . S
C1000 C999 1.398 . S
C1000 C1001 1.391 . S
C1001 H989 0.950 . S
C1001 C997 1.393 . S
C1001 C1000 1.391 . S
C1002 H992 0.950 . S
C1002 C1003 1.386 . S
C1002 C1004 1.391 . S
C1003 C1002 1.386 . S
C1003 C1007 1.393 . S
C1004 H993 0.950 . S
C1004 C1002 1.391 . S
C1004 C1005 1.400 . S
C1005 C999 1.491 . S
C1005 C1004 1.400 . S
C1005 C1006 1.398 . S
C1006 H994 0.950 . S
C1006 C1005 1.398 . S
C1006 C1007 1.391 . S
C1007 H995 0.950 . S
C1007 C1003 1.393 . S
C1007 C1006 1.391 . S
H1008 C1016 0.950 . S
H1009 C1021 0.950 . S
H1010 C1018 0.950 . S
H1011 C1020 0.950 . S
H1012 C1022 0.950 . S
H1013 C1024 0.950 . S
H1014 C1026 0.950 . S
H1015 C1027 0.950 . S
C1016 H1008 0.950 . S
C1016 C1017 1.386 . S
C1016 C1018 1.391 . S
C1017 C1016 1.386 . S
C1017 C1021 1.393 . S
C1018 H1010 0.950 . S
C1018 C1016 1.391 . S
C1018 C1019 1.400 . S
C1019 C1018 1.400 . S
C1019 C1020 1.398 . S
C1019 C1025 1.491 . S
C1020 H1011 0.950 . S
C1020 C1019 1.398 . S
C1020 C1021 1.391 . S
C1021 H1009 0.950 . S
C1021 C1017 1.393 . S
C1021 C1020 1.391 . S
C1022 H1012 0.950 . S
C1022 C1023 1.386 . S
C1022 C1024 1.391 . S
C1023 C1022 1.386 . S
C1023 C1027 1.393 . S
C1024 H1013 0.950 . S
C1024 C1022 1.391 . S
C1024 C1025 1.400 . S
C1025 C1019 1.491 . S
C1025 C1024 1.400 . S
C1025 C1026 1.398 . S
C1026 H1014 0.950 . S
C1026 C1025 1.398 . S
C1026 C1027 1.391 . S
C1027 H1015 0.950 . S
C1027 C1023 1.393 . S
C1027 C1026 1.391 . S
H1028 C1036 0.950 . S
H1029 C1041 0.950 . S
H1030 C1038 0.950 . S
H1031 C1040 0.950 . S
H1032 C1042 0.950 . S
H1033 C1044 0.950 . S
H1034 C1046 0.950 . S
H1035 C1047 0.950 . S
C1036 H1028 0.950 . S
C1036 C1037 1.386 . S
C1036 C1038 1.391 . S
C1037 C1036 1.386 . S
C1037 C1041 1.393 . S
C1038 H1030 0.950 . S
C1038 C1036 1.391 . S
C1038 C1039 1.400 . S
C1039 C1038 1.400 . S
C1039 C1040 1.398 . S
C1039 C1045 1.491 . S
C1040 H1031 0.950 . S
C1040 C1039 1.398 . S
C1040 C1041 1.391 . S
C1041 H1029 0.950 . S
C1041 C1037 1.393 . S
C1041 C1040 1.391 . S
C1042 H1032 0.950 . S
C1042 C1043 1.386 . S
C1042 C1044 1.391 . S
C1043 C1042 1.386 . S
C1043 C1047 1.393 . S
C1044 H1033 0.950 . S
C1044 C1042 1.391 . S
C1044 C1045 1.400 . S
C1045 C1039 1.491 . S
C1045 C1044 1.400 . S
C1045 C1046 1.398 . S
C1046 H1034 0.950 . S
C1046 C1045 1.398 . S
C1046 C1047 1.391 . S
C1047 H1035 0.950 . S
C1047 C1043 1.393 . S
C1047 C1046 1.391 . S
H1048 C1056 0.950 . S
H1049 C1061 0.950 . S
H1050 C1058 0.950 . S
H1051 C1060 0.950 . S
H1052 C1062 0.950 . S
H1053 C1064 0.950 . S
H1054 C1066 0.950 . S
H1055 C1067 0.950 . S
C1056 H1048 0.950 . S
C1056 C1057 1.386 . S
C1056 C1058 1.391 . S
C1057 C1056 1.386 . S
C1057 C1061 1.393 . S
C1058 H1050 0.950 . S
C1058 C1056 1.391 . S
C1058 C1059 1.400 . S
C1059 C1058 1.400 . S
C1059 C1060 1.398 . S
C1059 C1065 1.491 . S
C1060 H1051 0.950 . S
C1060 C1059 1.398 . S
C1060 C1061 1.391 . S
C1061 H1049 0.950 . S
C1061 C1057 1.393 . S
C1061 C1060 1.391 . S
C1062 H1052 0.950 . S
C1062 C1063 1.386 . S
C1062 C1064 1.391 . S
C1063 C1062 1.386 . S
C1063 C1067 1.393 . S
C1064 H1053 0.950 . S
C1064 C1062 1.391 . S
C1064 C1065 1.400 . S
C1065 C1059 1.491 . S
C1065 C1064 1.400 . S
C1065 C1066 1.398 . S
C1066 H1054 0.950 . S
C1066 C1065 1.398 . S
C1066 C1067 1.391 . S
C1067 H1055 0.950 . S
C1067 C1063 1.393 . S
C1067 C1066 1.391 . S
H1068 C1076 0.950 . S
H1069 C1081 0.950 . S
H1070 C1078 0.950 . S
H1071 C1080 0.950 . S
H1072 C1082 0.950 . S
H1073 C1084 0.950 . S
H1074 C1086 0.950 . S
H1075 C1087 0.950 . S
C1076 H1068 0.950 . S
C1076 C1077 1.386 . S
C1076 C1078 1.391 . S
C1077 C1076 1.386 . S
C1077 C1081 1.393 . S
C1078 H1070 0.950 . S
C1078 C1076 1.391 . S
C1078 C1079 1.400 . S
C1079 C1078 1.400 . S
C1079 C1080 1.398 . S
C1079 C1085 1.491 . S
C1080 H1071 0.950 . S
C1080 C1079 1.398 . S
C1080 C1081 1.391 . S
C1081 H1069 0.950 . S
C1081 C1077 1.393 . S
C1081 C1080 1.391 . S
C1082 H1072 0.950 . S
C1082 C1083 1.386 . S
C1082 C1084 1.391 . S
C1083 C1082 1.386 . S
C1083 C1087 1.393 . S
C1084 H1073 0.950 . S
C1084 C1082 1.391 . S
C1084 C1085 1.400 . S
C1085 C1079 1.491 . S
C1085 C1084 1.400 . S
C1085 C1086 1.398 . S
C1086 H1074 0.950 . S
C1086 C1085 1.398 . S
C1086 C1087 1.391 . S
C1087 H1075 0.950 . S
C1087 C1083 1.393 . S
C1087 C1086 1.391 . S
H1088 C1096 0.950 . S
H1089 C1101 0.950 . S
H1090 C1098 0.950 . S
H1091 C1100 0.950 . S
H1092 C1102 0.950 . S
H1093 C1104 0.950 . S
H1094 C1106 0.950 . S
H1095 C1107 0.950 . S
C1096 H1088 0.950 . S
C1096 C1097 1.386 . S
C1096 C1098 1.391 . S
C1097 C1096 1.386 . S
C1097 C1101 1.393 . S
C1098 H1090 0.950 . S
C1098 C1096 1.391 . S
C1098 C1099 1.400 . S
C1099 C1098 1.400 . S
C1099 C1100 1.398 . S
C1099 C1105 1.491 . S
C1100 H1091 0.950 . S
C1100 C1099 1.398 . S
C1100 C1101 1.391 . S
C1101 H1089 0.950 . S
C1101 C1097 1.393 . S
C1101 C1100 1.391 . S
C1102 H1092 0.950 . S
C1102 C1103 1.386 . S
C1102 C1104 1.391 . S
C1103 C1102 1.386 . S
C1103 C1107 1.393 . S
C1104 H1093 0.950 . S
C1104 C1102 1.391 . S
C1104 C1105 1.400 . S
C1105 C1099 1.491 . S
C1105 C1104 1.400 . S
C1105 C1106 1.398 . S
C1106 H1094 0.950 . S
C1106 C1105 1.398 . S
C1106 C1107 1.391 . S
C1107 H1095 0.950 . S
C1107 C1103 1.393 . S
C1107 C1106 1.391 . S
H1108 C1116 0.950 . S
H1109 C1121 0.950 . S
H1110 C1118 0.950 . S
H1111 C1120 0.950 . S
H1112 C1122 0.950 . S
H1113 C1124 0.950 . S
H1114 C1126 0.950 . S
H1115 C1127 0.950 . S
C1116 H1108 0.950 . S
C1116 C1117 1.386 . S
C1116 C1118 1.391 . S
C1117 C1116 1.386 . S
C1117 C1121 1.393 . S
C1118 H1110 0.950 . S
C1118 C1116 1.391 . S
C1118 C1119 1.400 . S
C1119 C1118 1.400 . S
C1119 C1120 1.398 . S
C1119 C1125 1.491 . S
C1120 H1111 0.950 . S
C1120 C1119 1.398 . S
C1120 C1121 1.391 . S
C1121 H1109 0.950 . S
C1121 C1117 1.393 . S
C1121 C1120 1.391 . S
C1122 H1112 0.950 . S
C1122 C1123 1.386 . S
C1122 C1124 1.391 . S
C1123 C1122 1.386 . S
C1123 C1127 1.393 . S
C1124 H1113 0.950 . S
C1124 C1122 1.391 . S
C1124 C1125 1.400 . S
C1125 C1119 1.491 . S
C1125 C1124 1.400 . S
C1125 C1126 1.398 . S
C1126 H1114 0.950 . S
C1126 C1125 1.398 . S
C1126 C1127 1.391 . S
C1127 H1115 0.950 . S
C1127 C1123 1.393 . S
C1127 C1126 1.391 . S
H1128 C1136 0.950 . S
H1129 C1141 0.950 . S
H1130 C1138 0.950 . S
H1131 C1140 0.950 . S
H1132 C1142 0.950 . S
H1133 C1144 0.950 . S
H1134 C1146 0.950 . S
H1135 C1147 0.950 . S
C1136 H1128 0.950 . S
C1136 C1137 1.386 . S
C1136 C1138 1.391 . S
C1137 C1136 1.386 . S
C1137 C1141 1.393 . S
C1138 H1130 0.950 . S
C1138 C1136 1.391 . S
C1138 C1139 1.400 . S
C1139 C1138 1.400 . S
C1139 C1140 1.398 . S
C1139 C1145 1.491 . S
C1140 H1131 0.950 . S
C1140 C1139 1.398 . S
C1140 C1141 1.391 . S
C1141 H1129 0.950 . S
C1141 C1137 1.393 . S
C1141 C1140 1.391 . S
C1142 H1132 0.950 . S
C1142 C1143 1.386 . S
C1142 C1144 1.391 . S
C1143 C1142 1.386 . S
C1143 C1147 1.393 . S
C1144 H1133 0.950 . S
C1144 C1142 1.391 . S
C1144 C1145 1.400 . S
C1145 C1139 1.491 . S
C1145 C1144 1.400 . S
C1145 C1146 1.398 . S
C1146 H1134 0.950 . S
C1146 C1145 1.398 . S
C1146 C1147 1.391 . S
C1147 H1135 0.950 . S
C1147 C1143 1.393 . S
C1147 C1146 1.391 . S
H1148 C1156 0.950 . S
H1149 C1161 0.950 . S
H1150 C1158 0.950 . S
H1151 C1160 0.950 . S
H1152 C1162 0.950 . S
H1153 C1164 0.950 . S
H1154 C1166 0.950 . S
H1155 C1167 0.950 . S
C1156 H1148 0.950 . S
C1156 C1157 1.386 . S
C1156 C1158 1.391 . S
C1157 C1156 1.386 . S
C1157 C1161 1.393 . S
C1158 H1150 0.950 . S
C1158 C1156 1.391 . S
C1158 C1159 1.400 . S
C1159 C1158 1.400 . S
C1159 C1160 1.398 . S
C1159 C1165 1.491 . S
C1160 H1151 0.950 . S
C1160 C1159 1.398 . S
C1160 C1161 1.391 . S
C1161 H1149 0.950 . S
C1161 C1157 1.393 . S
C1161 C1160 1.391 . S
C1162 H1152 0.950 . S
C1162 C1163 1.386 . S
C1162 C1164 1.391 . S
C1163 C1162 1.386 . S
C1163 C1167 1.393 . S
C1164 H1153 0.950 . S
C1164 C1162 1.391 . S
C1164 C1165 1.400 . S
C1165 C1159 1.491 . S
C1165 C1164 1.400 . S
C1165 C1166 1.398 . S
C1166 H1154 0.950 . S
C1166 C1165 1.398 . S
C1166 C1167 1.391 . S
C1167 H1155 0.950 . S
C1167 C1163 1.393 . S
C1167 C1166 1.391 . S
H1168 C1176 0.950 . S
H1169 C1181 0.950 . S
H1170 C1178 0.950 . S
H1171 C1180 0.950 . S
H1172 C1182 0.950 . S
H1173 C1184 0.950 . S
H1174 C1186 0.950 . S
H1175 C1187 0.950 . S
C1176 H1168 0.950 . S
C1176 C1177 1.386 . S
C1176 C1178 1.391 . S
C1177 C1176 1.386 . S
C1177 C1181 1.393 . S
C1178 H1170 0.950 . S
C1178 C1176 1.391 . S
C1178 C1179 1.400 . S
C1179 C1178 1.400 . S
C1179 C1180 1.398 . S
C1179 C1185 1.491 . S
C1180 H1171 0.950 . S
C1180 C1179 1.398 . S
C1180 C1181 1.391 . S
C1181 H1169 0.950 . S
C1181 C1177 1.393 . S
C1181 C1180 1.391 . S
C1182 H1172 0.950 . S
C1182 C1183 1.386 . S
C1182 C1184 1.391 . S
C1183 C1182 1.386 . S
C1183 C1187 1.393 . S
C1184 H1173 0.950 . S
C1184 C1182 1.391 . S
C1184 C1185 1.400 . S
C1185 C1179 1.491 . S
C1185 C1184 1.400 . S
C1185 C1186 1.398 . S
C1186 H1174 0.950 . S
C1186 C1185 1.398 . S
C1186 C1187 1.391 . S
C1187 H1175 0.950 . S
C1187 C1183 1.393 . S
C1187 C1186 1.391 . S
H1188 C1196 0.950 . S
H1189 C1201 0.950 . S
H1190 C1198 0.950 . S
H1191 C1200 0.950 . S
H1192 C1202 0.950 . S
H1193 C1204 0.950 . S
H1194 C1206 0.950 . S
H1195 C1207 0.950 . S
C1196 H1188 0.950 . S
C1196 C1197 1.386 . S
C1196 C1198 1.391 . S
C1197 C1196 1.386 . S
C1197 C1201 1.393 . S
C1198 H1190 0.950 . S
C1198 C1196 1.391 . S
C1198 C1199 1.400 . S
C1199 C1198 1.400 . S
C1199 C1200 1.398 . S
C1199 C1205 1.491 . S
C1200 H1191 0.950 . S
C1200 C1199 1.398 . S
C1200 C1201 1.391 . S
C1201 H1189 0.950 . S
C1201 C1197 1.393 . S
C1201 C1200 1.391 . S
C1202 H1192 0.950 . S
C1202 C1203 1.386 . S
C1202 C1204 1.391 . S
C1203 C1202 1.386 . S
C1203 C1207 1.393 . S
C1204 H1193 0.950 . S
C1204 C1202 1.391 . S
C1204 C1205 1.400 . S
C1205 C1199 1.491 . S
C1205 C1204 1.400 . S
C1205 C1206 1.398 . S
C1206 H1194 0.950 . S
C1206 C1205 1.398 . S
C1206 C1207 1.391 . S
C1207 H1195 0.950 . S
C1207 C1203 1.393 . S
C1207 C1206 1.391 . S
H1208 C1216 0.950 . S
H1209 C1221 0.950 . S
H1210 C1218 0.950 . S
H1211 C1220 0.950 . S
H1212 C1222 0.950 . S
H1213 C1224 0.950 . S
H1214 C1226 0.950 . S
H1215 C1227 0.950 . S
C1216 H1208 0.950 . S
C1216 C1217 1.386 . S
C1216 C1218 1.391 . S
C1217 C1216 1.386 . S
C1217 C1221 1.393 . S
C1218 H1210 0.950 . S
C1218 C1216 1.391 . S
C1218 C1219 1.400 . S
C1219 C1218 1.400 . S
C1219 C1220 1.398 . S
C1219 C1225 1.491 . S
C1220 H1211 0.950 . S
C1220 C1219 1.398 . S
C1220 C1221 1.391 . S
C1221 H1209 0.950 . S
C1221 C1217 1.393 . S
C1221 C1220 1.391 . S
C1222 H1212 0.950 . S
C1222 C1223 1.386 . S
C1222 C1224 1.391 . S
C1223 C1222 1.386 . S
C1223 C1227 1.393 . S
C1224 H1213 0.950 . S
C1224 C1222 1.391 . S
C1224 C1225 1.400 . S
C1225 C1219 1.491 . S
C1225 C1224 1.400 . S
C1225 C1226 1.398 . S
C1226 H1214 0.950 . S
C1226 C1225 1.398 . S
C1226 C1227 1.391 . S
C1227 H1215 0.950 . S
C1227 C1223 1.393 . S
C1227 C1226 1.391 . S
H1228 C1236 0.950 . S
H1229 C1241 0.950 . S
H1230 C1238 0.950 . S
H1231 C1240 0.950 . S
H1232 C1242 0.950 . S
H1233 C1244 0.950 . S
H1234 C1246 0.950 . S
H1235 C1247 0.950 . S
C1236 H1228 0.950 . S
C1236 C1237 1.386 . S
C1236 C1238 1.391 . S
C1237 C1236 1.386 . S
C1237 C1241 1.393 . S
C1238 H1230 0.950 . S
C1238 C1236 1.391 . S
C1238 C1239 1.400 . S
C1239 C1238 1.400 . S
C1239 C1240 1.398 . S
C1239 C1245 1.491 . S
C1240 H1231 0.950 . S
C1240 C1239 1.398 . S
C1240 C1241 1.391 . S
C1241 H1229 0.950 . S
C1241 C1237 1.393 . S
C1241 C1240 1.391 . S
C1242 H1232 0.950 . S
C1242 C1243 1.386 . S
C1242 C1244 1.391 . S
C1243 C1242 1.386 . S
C1243 C1247 1.393 . S
C1244 H1233 0.950 . S
C1244 C1242 1.391 . S
C1244 C1245 1.400 . S
C1245 C1239 1.491 . S
C1245 C1244 1.400 . S
C1245 C1246 1.398 . S
C1246 H1234 0.950 . S
C1246 C1245 1.398 . S
C1246 C1247 1.391 . S
C1247 H1235 0.950 . S
C1247 C1243 1.393 . S
C1247 C1246 1.391 . S
H1248 C1256 0.950 . S
H1249 C1261 0.950 . S
H1250 C1258 0.950 . S
H1251 C1260 0.950 . S
H1252 C1262 0.950 . S
H1253 C1264 0.950 . S
H1254 C1266 0.950 . S
H1255 C1267 0.950 . S
C1256 H1248 0.950 . S
C1256 C1257 1.386 . S
C1256 C1258 1.391 . S
C1257 C1256 1.386 . S
C1257 C1261 1.393 . S
C1258 H1250 0.950 . S
C1258 C1256 1.391 . S
C1258 C1259 1.400 . S
C1259 C1258 1.400 . S
C1259 C1260 1.398 . S
C1259 C1265 1.491 . S
C1260 H1251 0.950 . S
C1260 C1259 1.398 . S
C1260 C1261 1.391 . S
C1261 H1249 0.950 . S
C1261 C1257 1.393 . S
C1261 C1260 1.391 . S
C1262 H1252 0.950 . S
C1262 C1263 1.386 . S
C1262 C1264 1.391 . S
C1263 C1262 1.386 . S
C1263 C1267 1.393 . S
C1264 H1253 0.950 . S
C1264 C1262 1.391 . S
C1264 C1265 1.400 . S
C1265 C1259 1.491 . S
C1265 C1264 1.400 . S
C1265 C1266 1.398 . S
C1266 H1254 0.950 . S
C1266 C1265 1.398 . S
C1266 C1267 1.391 . S
C1267 H1255 0.950 . S
C1267 C1263 1.393 . S
C1267 C1266 1.391 . S
H1268 C1276 0.950 . S
H1269 C1281 0.950 . S
H1270 C1278 0.950 . S
H1271 C1280 0.950 . S
H1272 C1282 0.950 . S
H1273 C1284 0.950 . S
H1274 C1286 0.950 . S
H1275 C1287 0.950 . S
C1276 H1268 0.950 . S
C1276 C1277 1.386 . S
C1276 C1278 1.391 . S
C1277 C1276 1.386 . S
C1277 C1281 1.393 . S
C1278 H1270 0.950 . S
C1278 C1276 1.391 . S
C1278 C1279 1.400 . S
C1279 C1278 1.400 . S
C1279 C1280 1.398 . S
C1279 C1285 1.491 . S
C1280 H1271 0.950 . S
C1280 C1279 1.398 . S
C1280 C1281 1.391 . S
C1281 H1269 0.950 . S
C1281 C1277 1.393 . S
C1281 C1280 1.391 . S
C1282 H1272 0.950 . S
C1282 C1283 1.386 . S
C1282 C1284 1.391 . S
C1283 C1282 1.386 . S
C1283 C1287 1.393 . S
C1284 H1273 0.950 . S
C1284 C1282 1.391 . S
C1284 C1285 1.400 . S
C1285 C1279 1.491 . S
C1285 C1284 1.400 . S
C1285 C1286 1.398 . S
C1286 H1274 0.950 . S
C1286 C1285 1.398 . S
C1286 C1287 1.391 . S
C1287 H1275 0.950 . S
C1287 C1283 1.393 . S
C1287 C1286 1.391 . S
H1288 C1296 0.950 . S
H1289 C1301 0.950 . S
H1290 C1298 0.950 . S
H1291 C1300 0.950 . S
H1292 C1302 0.950 . S
H1293 C1304 0.950 . S
H1294 C1306 0.950 . S
H1295 C1307 0.950 . S
C1296 H1288 0.950 . S
C1296 C1297 1.386 . S
C1296 C1298 1.391 . S
C1297 C1296 1.386 . S
C1297 C1301 1.393 . S
C1298 H1290 0.950 . S
C1298 C1296 1.391 . S
C1298 C1299 1.400 . S
C1299 C1298 1.400 . S
C1299 C1300 1.398 . S
C1299 C1305 1.491 . S
C1300 H1291 0.950 . S
C1300 C1299 1.398 . S
C1300 C1301 1.391 . S
C1301 H1289 0.950 . S
C1301 C1297 1.393 . S
C1301 C1300 1.391 . S
C1302 H1292 0.950 . S
C1302 C1303 1.386 . S
C1302 C1304 1.391 . S
C1303 C1302 1.386 . S
C1303 C1307 1.393 . S
C1304 H1293 0.950 . S
C1304 C1302 1.391 . S
C1304 C1305 1.400 . S
C1305 C1299 1.491 . S
C1305 C1304 1.400 . S
C1305 C1306 1.398 . S
C1306 H1294 0.950 . S
C1306 C1305 1.398 . S
C1306 C1307 1.391 . S
C1307 H1295 0.950 . S
C1307 C1303 1.393 . S
C1307 C1306 1.391 . S
H1308 C1316 0.950 . S
H1309 C1321 0.950 . S
H1310 C1318 0.950 . S
H1311 C1320 0.950 . S
H1312 C1322 0.950 . S
H1313 C1324 0.950 . S
H1314 C1326 0.950 . S
H1315 C1327 0.950 . S
C1316 H1308 0.950 . S
C1316 C1317 1.386 . S
C1316 C1318 1.391 . S
C1317 C1316 1.386 . S
C1317 C1321 1.393 . S
C1318 H1310 0.950 . S
C1318 C1316 1.391 . S
C1318 C1319 1.400 . S
C1319 C1318 1.400 . S
C1319 C1320 1.398 . S
C1319 C1325 1.491 . S
C1320 H1311 0.950 . S
C1320 C1319 1.398 . S
C1320 C1321 1.391 . S
C1321 H1309 0.950 . S
C1321 C1317 1.393 . S
C1321 C1320 1.391 . S
C1322 H1312 0.950 . S
C1322 C1323 1.386 . S
C1322 C1324 1.391 . S
C1323 C1322 1.386 . S
C1323 C1327 1.393 . S
C1324 H1313 0.950 . S
C1324 C1322 1.391 . S
C1324 C1325 1.400 . S
C1325 C1319 1.491 . S
C1325 C1324 1.400 . S
C1325 C1326 1.398 . S
C1326 H1314 0.950 . S
C1326 C1325 1.398 . S
C1326 C1327 1.391 . S
C1327 H1315 0.950 . S
C1327 C1323 1.393 . S
C1327 C1326 1.391 . S
H1328 C1336 0.950 . S
H1329 C1341 0.950 . S
H1330 C1338 0.950 . S
H1331 C1340 0.950 . S
H1332 C1342 0.950 . S
H1333 C1344 0.950 . S
H1334 C1346 0.950 . S
H1335 C1347 0.950 . S
C1336 H1328 0.950 . S
C1336 C1337 1.386 . S
C1336 C1338 1.391 . S
C1337 C1336 1.386 . S
C1337 C1341 1.393 . S
C1338 H1330 0.950 . S
C1338 C1336 1.391 . S
C1338 C1339 1.400 . S
C1339 C1338 1.400 . S
C1339 C1340 1.398 . S
C1339 C1345 1.491 . S
C1340 H1331 0.950 . S
C1340 C1339 1.398 . S
C1340 C1341 1.391 . S
C1341 H1329 0.950 . S
C1341 C1337 1.393 . S
C1341 C1340 1.391 . S
C1342 H1332 0.950 . S
C1342 C1343 1.386 . S
C1342 C1344 1.391 . S
C1343 C1342 1.386 . S
C1343 C1347 1.393 . S
C1344 H1333 0.950 . S
C1344 C1342 1.391 . S
C1344 C1345 1.400 . S
C1345 C1339 1.491 . S
C1345 C1344 1.400 . S
C1345 C1346 1.398 . S
C1346 H1334 0.950 . S
C1346 C1345 1.398 . S
C1346 C1347 1.391 . S
C1347 H1335 0.950 . S
C1347 C1343 1.393 . S
C1347 C1346 1.391 . S
H1348 C1356 0.950 . S
H1349 C1361 0.950 . S
H1350 C1358 0.950 . S
H1351 C1360 0.950 . S
H1352 C1362 0.950 . S
H1353 C1364 0.950 . S
H1354 C1366 0.950 . S
H1355 C1367 0.950 . S
C1356 H1348 0.950 . S
C1356 C1357 1.386 . S
C1356 C1358 1.391 . S
C1357 C1356 1.386 . S
C1357 C1361 1.393 . S
C1358 H1350 0.950 . S
C1358 C1356 1.391 . S
C1358 C1359 1.400 . S
C1359 C1358 1.400 . S
C1359 C1360 1.398 . S
C1359 C1365 1.491 . S
C1360 H1351 0.950 . S
C1360 C1359 1.398 . S
C1360 C1361 1.391 . S
C1361 H1349 0.950 . S
C1361 C1357 1.393 . S
C1361 C1360 1.391 . S
C1362 H1352 0.950 . S
C1362 C1363 1.386 . S
C1362 C1364 1.391 . S
C1363 C1362 1.386 . S
C1363 C1367 1.393 . S
C1364 H1353 0.950 . S
C1364 C1362 1.391 . S
C1364 C1365 1.400 . S
C1365 C1359 1.491 . S
C1365 C1364 1.400 . S
C1365 C1366 1.398 . S
C1366 H1354 0.950 . S
C1366 C1365 1.398 . S
C1366 C1367 1.391 . S
C1367 H1355 0.950 . S
C1367 C1363 1.393 . S
C1367 C1366 1.391 . S
H1368 C1376 0.950 . S
H1369 C1381 0.950 . S
H1370 C1378 0.950 . S
H1371 C1380 0.950 . S
H1372 C1382 0.950 . S
H1373 C1384 0.950 . S
H1374 C1386 0.950 . S
H1375 C1387 0.950 . S
C1376 H1368 0.950 . S
C1376 C1377 1.386 . S
C1376 C1378 1.391 . S
C1377 C1376 1.386 . S
C1377 C1381 1.393 . S
C1378 H1370 0.950 . S
C1378 C1376 1.391 . S
C1378 C1379 1.400 . S
C1379 C1378 1.400 . S
C1379 C1380 1.398 . S
C1379 C1385 1.491 . S
C1380 H1371 0.950 . S
C1380 C1379 1.398 . S
C1380 C1381 1.391 . S
C1381 H1369 0.950 . S
C1381 C1377 1.393 . S
C1381 C1380 1.391 . S
C1382 H1372 0.950 . S
C1382 C1383 1.386 . S
C1382 C1384 1.391 . S
C1383 C1382 1.386 . S
C1383 C1387 1.393 . S
C1384 H1373 0.950 . S
C1384 C1382 1.391 . S
C1384 C1385 1.400 . S
C1385 C1379 1.491 . S
C1385 C1384 1.400 . S
C1385 C1386 1.398 . S
C1386 H1374 0.950 . S
C1386 C1385 1.398 . S
C1386 C1387 1.391 . S
C1387 H1375 0.950 . S
C1387 C1383 1.393 . S
C1387 C1386 1.391 . S
H1388 C1396 0.950 . S
H1389 C1401 0.950 . S
H1390 C1398 0.950 . S
H1391 C1400 0.950 . S
H1392 C1402 0.950 . S
H1393 C1404 0.950 . S
H1394 C1406 0.950 . S
H1395 C1407 0.950 . S
C1396 H1388 0.950 . S
C1396 C1397 1.386 . S
C1396 C1398 1.391 . S
C1397 C1396 1.386 . S
C1397 C1401 1.393 . S
C1398 H1390 0.950 . S
C1398 C1396 1.391 . S
C1398 C1399 1.400 . S
C1399 C1398 1.400 . S
C1399 C1400 1.398 . S
C1399 C1405 1.491 . S
C1400 H1391 0.950 . S
C1400 C1399 1.398 . S
C1400 C1401 1.391 . S
C1401 H1389 0.950 . S
C1401 C1397 1.393 . S
C1401 C1400 1.391 . S
C1402 H1392 0.950 . S
C1402 C1403 1.386 . S
C1402 C1404 1.391 . S
C1403 C1402 1.386 . S
C1403 C1407 1.393 . S
C1404 H1393 0.950 . S
C1404 C1402 1.391 . S
C1404 C1405 1.400 . S
C1405 C1399 1.491 . S
C1405 C1404 1.400 . S
C1405 C1406 1.398 . S
C1406 H1394 0.950 . S
C1406 C1405 1.398 . S
C1406 C1407 1.391 . S
C1407 H1395 0.950 . S
C1407 C1403 1.393 . S
C1407 C1406 1.391 . S
H1408 C1416 0.950 . S
H1409 C1421 0.950 . S
H1410 C1418 0.950 . S
H1411 C1420 0.950 . S
H1412 C1422 0.950 . S
H1413 C1424 0.950 . S
H1414 C1426 0.950 . S
H1415 C1427 0.950 . S
C1416 H1408 0.950 . S
C1416 C1417 1.386 . S
C1416 C1418 1.391 . S
C1417 C1416 1.386 . S
C1417 C1421 1.393 . S
C1418 H1410 0.950 . S
C1418 C1416 1.391 . S
C1418 C1419 1.400 . S
C1419 C1418 1.400 . S
C1419 C1420 1.398 . S
C1419 C1425 1.491 . S
C1420 H1411 0.950 . S
C1420 C1419 1.398 . S
C1420 C1421 1.391 . S
C1421 H1409 0.950 . S
C1421 C1417 1.393 . S
C1421 C1420 1.391 . S
C1422 H1412 0.950 . S
C1422 C1423 1.386 . S
C1422 C1424 1.391 . S
C1423 C1422 1.386 . S
C1423 C1427 1.393 . S
C1424 H1413 0.950 . S
C1424 C1422 1.391 . S
C1424 C1425 1.400 . S
C1425 C1419 1.491 . S
C1425 C1424 1.400 . S
C1425 C1426 1.398 . S
C1426 H1414 0.950 . S
C1426 C1425 1.398 . S
C1426 C1427 1.391 . S
C1427 H1415 0.950 . S
C1427 C1423 1.393 . S
C1427 C1426 1.391 . S
H1428 C1436 0.950 . S
H1429 C1441 0.950 . S
H1430 C1438 0.950 . S
H1431 C1440 0.950 . S
H1432 C1442 0.950 . S
H1433 C1444 0.950 . S
H1434 C1446 0.950 . S
H1435 C1447 0.950 . S
C1436 H1428 0.950 . S
C1436 C1437 1.386 . S
C1436 C1438 1.391 . S
C1437 C1436 1.386 . S
C1437 C1441 1.393 . S
C1438 H1430 0.950 . S
C1438 C1436 1.391 . S
C1438 C1439 1.400 . S
C1439 C1438 1.400 . S
C1439 C1440 1.398 . S
C1439 C1445 1.491 . S
C1440 H1431 0.950 . S
C1440 C1439 1.398 . S
C1440 C1441 1.391 . S
C1441 H1429 0.950 . S
C1441 C1437 1.393 . S
C1441 C1440 1.391 . S
C1442 H1432 0.950 . S
C1442 C1443 1.386 . S
C1442 C1444 1.391 . S
C1443 C1442 1.386 . S
C1443 C1447 1.393 . S
C1444 H1433 0.950 . S
C1444 C1442 1.391 . S
C1444 C1445 1.400 . S
C1445 C1439 1.491 . S
C1445 C1444 1.400 . S
C1445 C1446 1.398 . S
C1446 H1434 0.950 . S
C1446 C1445 1.398 . S
C1446 C1447 1.391 . S
C1447 H1435 0.950 . S
C1447 C1443 1.393 . S
C1447 C1446 1.391 . S
H1448 C1456 0.950 . S
H1449 C1461 0.950 . S
H1450 C1458 0.950 . S
H1451 C1460 0.950 . S
H1452 C1462 0.950 . S
H1453 C1464 0.950 . S
H1454 C1466 0.950 . S
H1455 C1467 0.950 . S
C1456 H1448 0.950 . S
C1456 C1457 1.386 . S
C1456 C1458 1.391 . S
C1457 C1456 1.386 . S
C1457 C1461 1.393 . S
C1458 H1450 0.950 . S
C1458 C1456 1.391 . S
C1458 C1459 1.400 . S
C1459 C1458 1.400 . S
C1459 C1460 1.398 . S
C1459 C1465 1.491 . S
C1460 H1451 0.950 . S
C1460 C1459 1.398 . S
C1460 C1461 1.391 . S
C1461 H1449 0.950 . S
C1461 C1457 1.393 . S
C1461 C1460 1.391 . S
C1462 H1452 0.950 . S
C1462 C1463 1.386 . S
C1462 C1464 1.391 . S
C1463 C1462 1.386 . S
C1463 C1467 1.393 . S
C1464 H1453 0.950 . S
C1464 C1462 1.391 . S
C1464 C1465 1.400 . S
C1465 C1459 1.491 . S
C1465 C1464 1.400 . S
C1465 C1466 1.398 . S
C1466 H1454 0.950 . S
C1466 C1465 1.398 . S
C1466 C1467 1.391 . S
C1467 H1455 0.950 . S
C1467 C1463 1.393 . S
C1467 C1466 1.391 . S
H1468 C1476 0.950 . S
H1469 C1481 0.950 . S
H1470 C1478 0.950 . S
H1471 C1480 0.950 . S
H1472 C1482 0.950 . S
H1473 C1484 0.950 . S
H1474 C1486 0.950 . S
H1475 C1487 0.950 . S
C1476 H1468 0.950 . S
C1476 C1477 1.386 . S
C1476 C1478 1.391 . S
C1477 C1476 1.386 . S
C1477 C1481 1.393 . S
C1478 H1470 0.950 . S
C1478 C1476 1.391 . S
C1478 C1479 1.400 . S
C1479 C1478 1.400 . S
C1479 C1480 1.398 . S
C1479 C1485 1.491 . S
C1480 H1471 0.950 . S
C1480 C1479 1.398 . S
C1480 C1481 1.391 . S
C1481 H1469 0.950 . S
C1481 C1477 1.393 . S
C1481 C1480 1.391 . S
C1482 H1472 0.950 . S
C1482 C1483 1.386 . S
C1482 C1484 1.391 . S
C1483 C1482 1.386 . S
C1483 C1487 1.393 . S
C1484 H1473 0.950 . S
C1484 C1482 1.391 . S
C1484 C1485 1.400 . S
C1485 C1479 1.491 . S
C1485 C1484 1.400 . S
C1485 C1486 1.398 . S
C1486 H1474 0.950 . S
C1486 C1485 1.398 . S
C1486 C1487 1.391 . S
C1487 H1475 0.950 . S
C1487 C1483 1.393 . S
C1487 C1486 1.391 . S
H1488 C1496 0.950 . S
H1489 C1501 0.950 . S
H1490 C1498 0.950 . S
H1491 C1500 0.950 . S
H1492 C1502 0.950 . S
H1493 C1504 0.950 1_655 S
H1494 C1506 0.950 . S
H1495 C1507 0.950 . S
C1496 H1488 0.950 . S
C1496 C1497 1.386 . S
C1496 C1498 1.391 . S
C1497 C1496 1.386 . S
C1497 C1501 1.393 . S
C1498 H1490 0.950 . S
C1498 C1496 1.391 . S
C1498 C1499 1.400 . S
C1499 C1498 1.400 . S
C1499 C1500 1.398 . S
C1499 C1505 1.491 1_655 S
C1500 H1491 0.950 . S
C1500 C1499 1.398 . S
C1500 C1501 1.391 . S
C1501 H1489 0.950 . S
C1501 C1497 1.393 . S
C1501 C1500 1.391 . S
C1502 H1492 0.950 . S
C1502 C1503 1.386 . S
C1502 C1504 1.391 . S
C1503 C1502 1.386 . S
C1503 C1507 1.393 . S
C1504 H1493 0.950 1_455 S
C1504 C1502 1.391 . S
C1504 C1505 1.400 . S
C1505 C1499 1.491 1_455 S
C1505 C1504 1.400 . S
C1505 C1506 1.398 . S
C1506 H1494 0.950 . S
C1506 C1505 1.398 . S
C1506 C1507 1.391 . S
C1507 H1495 0.950 . S
C1507 C1503 1.393 . S
C1507 C1506 1.391 . S
H1508 C1516 0.950 . S
H1509 C1521 0.950 . S
H1510 C1518 0.950 . S
H1511 C1520 0.950 . S
H1512 C1522 0.950 . S
H1513 C1524 0.950 . S
H1514 C1526 0.950 . S
H1515 C1527 0.950 . S
C1516 H1508 0.950 . S
C1516 C1517 1.386 . S
C1516 C1518 1.391 . S
C1517 C1516 1.386 . S
C1517 C1521 1.393 . S
C1518 H1510 0.950 . S
C1518 C1516 1.391 . S
C1518 C1519 1.400 . S
C1519 C1518 1.400 . S
C1519 C1520 1.398 . S
C1519 C1525 1.491 1_545 S
C1520 H1511 0.950 . S
C1520 C1519 1.398 . S
C1520 C1521 1.391 . S
C1521 H1509 0.950 . S
C1521 C1517 1.393 . S
C1521 C1520 1.391 . S
C1522 H1512 0.950 . S
C1522 C1523 1.386 . S
C1522 C1524 1.391 . S
C1523 C1522 1.386 . S
C1523 C1527 1.393 . S
C1524 H1513 0.950 . S
C1524 C1522 1.391 . S
C1524 C1525 1.400 . S
C1525 C1519 1.491 1_565 S
C1525 C1524 1.400 . S
C1525 C1526 1.398 . S
C1526 H1514 0.950 . S
C1526 C1525 1.398 . S
C1526 C1527 1.391 . S
C1527 H1515 0.950 . S
C1527 C1523 1.393 . S
C1527 C1526 1.391 . S
H1528 C1536 0.950 . S
H1529 C1541 0.950 . S
H1530 C1538 0.950 . S
H1531 C1540 0.950 . S
H1532 C1542 0.950 . S
H1533 C1544 0.950 . S
H1534 C1546 0.950 . S
H1535 C1547 0.950 . S
C1536 H1528 0.950 . S
C1536 C1537 1.386 . S
C1536 C1538 1.391 . S
C1537 C1536 1.386 . S
C1537 C1541 1.393 . S
C1538 H1530 0.950 . S
C1538 C1536 1.391 . S
C1538 C1539 1.400 . S
C1539 C1538 1.400 . S
C1539 C1540 1.398 . S
C1539 C1545 1.491 1_655 S
C1540 H1531 0.950 . S
C1540 C1539 1.398 . S
C1540 C1541 1.391 . S
C1541 H1529 0.950 . S
C1541 C1537 1.393 . S
C1541 C1540 1.391 . S
C1542 H1532 0.950 . S
C1542 C1543 1.386 . S
C1542 C1544 1.391 . S
C1543 C1542 1.386 . S
C1543 C1547 1.393 . S
C1544 H1533 0.950 . S
C1544 C1542 1.391 . S
C1544 C1545 1.400 . S
C1545 C1539 1.491 1_455 S
C1545 C1544 1.400 . S
C1545 C1546 1.398 . S
C1546 H1534 0.950 . S
C1546 C1545 1.398 . S
C1546 C1547 1.391 . S
C1547 H1535 0.950 . S
C1547 C1543 1.393 . S
C1547 C1546 1.391 . S
H1548 C1556 0.950 . S
H1549 C1561 0.950 . S
H1550 C1558 0.950 . S
H1551 C1560 0.950 . S
H1552 C1562 0.950 . S
H1553 C1564 0.950 . S
H1554 C1566 0.950 . S
H1555 C1567 0.950 . S
C1556 H1548 0.950 . S
C1556 C1557 1.386 . S
C1556 C1558 1.391 . S
C1557 C1556 1.386 . S
C1557 C1561 1.393 . S
C1558 H1550 0.950 . S
C1558 C1556 1.391 . S
C1558 C1559 1.400 . S
C1559 C1558 1.400 . S
C1559 C1560 1.398 . S
C1559 C1565 1.491 1_545 S
C1560 H1551 0.950 . S
C1560 C1559 1.398 . S
C1560 C1561 1.391 . S
C1561 H1549 0.950 . S
C1561 C1557 1.393 . S
C1561 C1560 1.391 . S
C1562 H1552 0.950 . S
C1562 C1563 1.386 . S
C1562 C1564 1.391 . S
C1563 C1562 1.386 . S
C1563 C1567 1.393 . S
C1564 H1553 0.950 . S
C1564 C1562 1.391 . S
C1564 C1565 1.400 . S
C1565 C1559 1.491 1_565 S
C1565 C1564 1.400 . S
C1565 C1566 1.398 . S
C1566 H1554 0.950 . S
C1566 C1565 1.398 . S
C1566 C1567 1.391 . S
C1567 H1555 0.950 . S
C1567 C1563 1.393 . S
C1567 C1566 1.391 . S
H1568 C1576 0.950 . S
H1569 C1581 0.950 . S
H1570 C1578 0.950 . S
H1571 C1580 0.950 . S
H1572 C1582 0.950 . S
H1573 C1584 0.950 . S
H1574 C1586 0.950 . S
H1575 C1587 0.950 . S
C1576 H1568 0.950 . S
C1576 C1577 1.386 . S
C1576 C1578 1.391 . S
C1577 C1576 1.386 . S
C1577 C1581 1.393 . S
C1578 H1570 0.950 . S
C1578 C1576 1.391 . S
C1578 C1579 1.400 . S
C1579 C1578 1.400 . S
C1579 C1580 1.398 . S
C1579 C1585 1.491 1_455 S
C1580 H1571 0.950 . S
C1580 C1579 1.398 . S
C1580 C1581 1.391 . S
C1581 H1569 0.950 . S
C1581 C1577 1.393 . S
C1581 C1580 1.391 . S
C1582 H1572 0.950 . S
C1582 C1583 1.386 . S
C1582 C1584 1.391 . S
C1583 C1582 1.386 . S
C1583 C1587 1.393 . S
C1584 H1573 0.950 . S
C1584 C1582 1.391 . S
C1584 C1585 1.400 . S
C1585 C1579 1.491 1_655 S
C1585 C1584 1.400 . S
C1585 C1586 1.398 . S
C1586 H1574 0.950 . S
C1586 C1585 1.398 . S
C1586 C1587 1.391 . S
C1587 H1575 0.950 . S
C1587 C1583 1.393 . S
C1587 C1586 1.391 . S
H1588 C1596 0.950 . S
H1589 C1601 0.950 . S
H1590 C1598 0.950 . S
H1591 C1600 0.950 . S
H1592 C1602 0.950 . S
H1593 C1604 0.950 . S
H1594 C1606 0.950 . S
H1595 C1607 0.950 . S
C1596 H1588 0.950 . S
C1596 C1597 1.386 . S
C1596 C1598 1.391 . S
C1597 C1596 1.386 . S
C1597 C1601 1.393 . S
C1598 H1590 0.950 . S
C1598 C1596 1.391 . S
C1598 C1599 1.400 . S
C1599 C1598 1.400 . S
C1599 C1600 1.398 . S
C1599 C1605 1.491 1_565 S
C1600 H1591 0.950 . S
C1600 C1599 1.398 . S
C1600 C1601 1.391 . S
C1601 H1589 0.950 . S
C1601 C1597 1.393 . S
C1601 C1600 1.391 . S
C1602 H1592 0.950 . S
C1602 C1603 1.386 . S
C1602 C1604 1.391 . S
C1603 C1602 1.386 . S
C1603 C1607 1.393 . S
C1604 H1593 0.950 . S
C1604 C1602 1.391 . S
C1604 C1605 1.400 . S
C1605 C1599 1.491 1_545 S
C1605 C1604 1.400 . S
C1605 C1606 1.398 . S
C1606 H1594 0.950 . S
C1606 C1605 1.398 . S
C1606 C1607 1.391 . S
C1607 H1595 0.950 . S
C1607 C1603 1.393 . S
C1607 C1606 1.391 . S
H1608 C1616 0.950 . S
H1609 C1621 0.950 . S
H1610 C1618 0.950 . S
H1611 C1620 0.950 . S
H1612 C1622 0.950 . S
H1613 C1624 0.950 1_655 S
H1614 C1626 0.950 . S
H1615 C1627 0.950 . S
C1616 H1608 0.950 . S
C1616 C1617 1.386 . S
C1616 C1618 1.391 . S
C1617 C1616 1.386 . S
C1617 C1621 1.393 . S
C1618 H1610 0.950 . S
C1618 C1616 1.391 . S
C1618 C1619 1.400 . S
C1619 C1618 1.400 . S
C1619 C1620 1.398 . S
C1619 C1625 1.491 1_655 S
C1620 H1611 0.950 . S
C1620 C1619 1.398 . S
C1620 C1621 1.391 . S
C1621 H1609 0.950 . S
C1621 C1617 1.393 . S
C1621 C1620 1.391 . S
C1622 H1612 0.950 . S
C1622 C1623 1.386 . S
C1622 C1624 1.391 . S
C1623 C1622 1.386 . S
C1623 C1627 1.393 . S
C1624 H1613 0.950 1_455 S
C1624 C1622 1.391 . S
C1624 C1625 1.400 . S
C1625 C1619 1.491 1_455 S
C1625 C1624 1.400 . S
C1625 C1626 1.398 . S
C1626 H1614 0.950 . S
C1626 C1625 1.398 . S
C1626 C1627 1.391 . S
C1627 H1615 0.950 . S
C1627 C1623 1.393 . S
C1627 C1626 1.391 . S
H1628 C1636 0.950 . S
H1629 C1641 0.950 . S
H1630 C1638 0.950 . S
H1631 C1640 0.950 . S
H1632 C1642 0.950 . S
H1633 C1644 0.950 . S
H1634 C1646 0.950 . S
H1635 C1647 0.950 . S
C1636 H1628 0.950 . S
C1636 C1637 1.386 . S
C1636 C1638 1.391 . S
C1637 C1636 1.386 . S
C1637 C1641 1.393 . S
C1638 H1630 0.950 . S
C1638 C1636 1.391 . S
C1638 C1639 1.400 . S
C1639 C1638 1.400 . S
C1639 C1640 1.398 . S
C1639 C1645 1.491 1_565 S
C1640 H1631 0.950 . S
C1640 C1639 1.398 . S
C1640 C1641 1.391 . S
C1641 H1629 0.950 . S
C1641 C1637 1.393 . S
C1641 C1640 1.391 . S
C1642 H1632 0.950 . S
C1642 C1643 1.386 . S
C1642 C1644 1.391 . S
C1643 C1642 1.386 . S
C1643 C1647 1.393 . S
C1644 H1633 0.950 . S
C1644 C1642 1.391 . S
C1644 C1645 1.400 . S
C1645 C1639 1.491 1_545 S
C1645 C1644 1.400 . S
C1645 C1646 1.398 . S
C1646 H1634 0.950 . S
C1646 C1645 1.398 . S
C1646 C1647 1.391 . S
C1647 H1635 0.950 . S
C1647 C1643 1.393 . S
C1647 C1646 1.391 . S
H1648 C1656 0.950 . S
H1649 C1661 0.950 . S
H1650 C1658 0.950 . S
H1651 C1660 0.950 . S
H1652 C1662 0.950 . S
H1653 C1664 0.950 . S
H1654 C1666 0.950 . S
H1655 C1667 0.950 . S
C1656 H1648 0.950 . S
C1656 C1657 1.386 . S
C1656 C1658 1.391 . S
C1657 C1656 1.386 . S
C1657 C1661 1.393 . S
C1658 H1650 0.950 . S
C1658 C1656 1.391 . S
C1658 C1659 1.400 . S
C1659 C1658 1.400 . S
C1659 C1660 1.398 . S
C1659 C1665 1.491 1_556 S
C1660 H1651 0.950 . S
C1660 C1659 1.398 . S
C1660 C1661 1.391 . S
C1661 H1649 0.950 . S
C1661 C1657 1.393 . S
C1661 C1660 1.391 . S
C1662 H1652 0.950 . S
C1662 C1663 1.386 . S
C1662 C1664 1.391 . S
C1663 C1662 1.386 . S
C1663 C1667 1.393 . S
C1664 H1653 0.950 . S
C1664 C1662 1.391 . S
C1664 C1665 1.400 . S
C1665 C1659 1.491 1_554 S
C1665 C1664 1.400 . S
C1665 C1666 1.398 . S
C1666 H1654 0.950 . S
C1666 C1665 1.398 . S
C1666 C1667 1.391 . S
C1667 H1655 0.950 . S
C1667 C1663 1.393 . S
C1667 C1666 1.391 . S
H1668 C1676 0.950 . S
H1669 C1681 0.950 . S
H1670 C1678 0.950 . S
H1671 C1680 0.950 . S
H1672 C1682 0.950 . S
H1673 C1684 0.950 . S
H1674 C1686 0.950 . S
H1675 C1687 0.950 . S
C1676 H1668 0.950 . S
C1676 C1677 1.386 . S
C1676 C1678 1.391 . S
C1677 C1676 1.386 . S
C1677 C1681 1.393 . S
C1678 H1670 0.950 . S
C1678 C1676 1.391 . S
C1678 C1679 1.400 . S
C1679 C1678 1.400 . S
C1679 C1680 1.398 . S
C1679 C1685 1.491 1_556 S
C1680 H1671 0.950 . S
C1680 C1679 1.398 . S
C1680 C1681 1.391 . S
C1681 H1669 0.950 . S
C1681 C1677 1.393 . S
C1681 C1680 1.391 . S
C1682 H1672 0.950 . S
C1682 C1683 1.386 . S
C1682 C1684 1.391 . S
C1683 C1682 1.386 . S
C1683 C1687 1.393 . S
C1684 H1673 0.950 . S
C1684 C1682 1.391 . S
C1684 C1685 1.400 . S
C1685 C1679 1.491 1_554 S
C1685 C1684 1.400 . S
C1685 C1686 1.398 . S
C1686 H1674 0.950 . S
C1686 C1685 1.398 . S
C1686 C1687 1.391 . S
C1687 H1675 0.950 . S
C1687 C1683 1.393 . S
C1687 C1686 1.391 . S
H1688 C1696 0.950 . S
H1689 C1701 0.950 . S
H1690 C1698 0.950 . S
H1691 C1700 0.950 . S
H1692 C1702 0.950 . S
H1693 C1704 0.950 . S
H1694 C1706 0.950 . S
H1695 C1707 0.950 . S
C1696 H1688 0.950 . S
C1696 C1697 1.386 . S
C1696 C1698 1.391 . S
C1697 C1696 1.386 . S
C1697 C1701 1.393 . S
C1698 H1690 0.950 . S
C1698 C1696 1.391 . S
C1698 C1699 1.400 . S
C1699 C1698 1.400 . S
C1699 C1700 1.398 . S
C1699 C1705 1.491 1_554 S
C1700 H1691 0.950 . S
C1700 C1699 1.398 . S
C1700 C1701 1.391 . S
C1701 H1689 0.950 . S
C1701 C1697 1.393 . S
C1701 C1700 1.391 . S
C1702 H1692 0.950 . S
C1702 C1703 1.386 . S
C1702 C1704 1.391 . S
C1703 C1702 1.386 . S
C1703 C1707 1.393 . S
C1704 H1693 0.950 . S
C1704 C1702 1.391 . S
C1704 C1705 1.400 . S
C1705 C1699 1.491 1_556 S
C1705 C1704 1.400 . S
C1705 C1706 1.398 . S
C1706 H1694 0.950 . S
C1706 C1705 1.398 . S
C1706 C1707 1.391 . S
C1707 H1695 0.950 . S
C1707 C1703 1.393 . S
C1707 C1706 1.391 . S
H1708 C1716 0.950 . S
H1709 C1721 0.950 . S
H1710 C1718 0.950 . S
H1711 C1720 0.950 . S
H1712 C1722 0.950 . S
H1713 C1724 0.950 . S
H1714 C1726 0.950 . S
H1715 C1727 0.950 . S
C1716 H1708 0.950 . S
C1716 C1717 1.386 . S
C1716 C1718 1.391 . S
C1717 C1716 1.386 . S
C1717 C1721 1.393 . S
C1718 H1710 0.950 . S
C1718 C1716 1.391 . S
C1718 C1719 1.400 . S
C1719 C1718 1.400 . S
C1719 C1720 1.398 . S
C1719 C1725 1.491 1_554 S
C1720 H1711 0.950 . S
C1720 C1719 1.398 . S
C1720 C1721 1.391 . S
C1721 H1709 0.950 . S
C1721 C1717 1.393 . S
C1721 C1720 1.391 . S
C1722 H1712 0.950 . S
C1722 C1723 1.386 . S
C1722 C1724 1.391 . S
C1723 C1722 1.386 . S
C1723 C1727 1.393 . S
C1724 H1713 0.950 . S
C1724 C1722 1.391 . S
C1724 C1725 1.400 . S
C1725 C1719 1.491 1_556 S
C1725 C1724 1.400 . S
C1725 C1726 1.398 . S
C1726 H1714 0.950 . S
C1726 C1725 1.398 . S
C1726 C1727 1.391 . S
C1727 H1715 0.950 . S
C1727 C1723 1.393 . S
C1727 C1726 1.391 . S
H1728 C1736 0.950 . S
H1729 C1741 0.950 . S
H1730 C1738 0.950 . S
H1731 C1740 0.950 . S
H1732 C1742 0.950 . S
H1733 C1744 0.950 . S
H1734 C1746 0.950 . S
H1735 C1747 0.950 . S
C1736 H1728 0.950 . S
C1736 C1737 1.386 . S
C1736 C1738 1.391 . S
C1737 C1736 1.386 . S
C1737 C1741 1.393 . S
C1738 H1730 0.950 . S
C1738 C1736 1.391 . S
C1738 C1739 1.400 . S
C1739 C1738 1.400 . S
C1739 C1740 1.398 . S
C1739 C1745 1.491 . S
C1740 H1731 0.950 . S
C1740 C1739 1.398 . S
C1740 C1741 1.391 . S
C1741 H1729 0.950 . S
C1741 C1737 1.393 . S
C1741 C1740 1.391 . S
C1742 H1732 0.950 . S
C1742 C1743 1.386 . S
C1742 C1744 1.391 . S
C1743 C1742 1.386 . S
C1743 C1747 1.393 . S
C1744 H1733 0.950 . S
C1744 C1742 1.391 . S
C1744 C1745 1.400 . S
C1745 C1739 1.491 . S
C1745 C1744 1.400 . S
C1745 C1746 1.398 . S
C1746 H1734 0.950 . S
C1746 C1745 1.398 . S
C1746 C1747 1.391 . S
C1747 H1735 0.950 . S
C1747 C1743 1.393 . S
C1747 C1746 1.391 . S
H1748 C1756 0.950 . S
H1749 C1761 0.950 . S
H1750 C1758 0.950 . S
H1751 C1760 0.950 . S
H1752 C1762 0.950 . S
H1753 C1764 0.950 . S
H1754 C1766 0.950 . S
H1755 C1767 0.950 . S
C1756 H1748 0.950 . S
C1756 C1757 1.386 . S
C1756 C1758 1.391 . S
C1757 C1756 1.386 . S
C1757 C1761 1.393 . S
C1758 H1750 0.950 . S
C1758 C1756 1.391 . S
C1758 C1759 1.400 . S
C1759 C1758 1.400 . S
C1759 C1760 1.398 . S
C1759 C1765 1.491 . S
C1760 H1751 0.950 . S
C1760 C1759 1.398 . S
C1760 C1761 1.391 . S
C1761 H1749 0.950 . S
C1761 C1757 1.393 . S
C1761 C1760 1.391 . S
C1762 H1752 0.950 . S
C1762 C1763 1.386 . S
C1762 C1764 1.391 . S
C1763 C1762 1.386 . S
C1763 C1767 1.393 . S
C1764 H1753 0.950 . S
C1764 C1762 1.391 . S
C1764 C1765 1.400 . S
C1765 C1759 1.491 . S
C1765 C1764 1.400 . S
C1765 C1766 1.398 . S
C1766 H1754 0.950 . S
C1766 C1765 1.398 . S
C1766 C1767 1.391 . S
C1767 H1755 0.950 . S
C1767 C1763 1.393 . S
C1767 C1766 1.391 . S
H1768 C1776 0.950 . S
H1769 C1781 0.950 . S
H1770 C1778 0.950 . S
H1771 C1780 0.950 . S
H1772 C1782 0.950 . S
H1773 C1784 0.950 . S
H1774 C1786 0.950 . S
H1775 C1787 0.950 . S
C1776 H1768 0.950 . S
C1776 C1777 1.386 . S
C1776 C1778 1.391 . S
C1777 C1776 1.386 . S
C1777 C1781 1.393 . S
C1778 H1770 0.950 . S
C1778 C1776 1.391 . S
C1778 C1779 1.400 . S
C1779 C1778 1.400 . S
C1779 C1780 1.398 . S
C1779 C1785 1.491 . S
C1780 H1771 0.950 . S
C1780 C1779 1.398 . S
C1780 C1781 1.391 . S
C1781 H1769 0.950 . S
C1781 C1777 1.393 . S
C1781 C1780 1.391 . S
C1782 H1772 0.950 . S
C1782 C1783 1.386 . S
C1782 C1784 1.391 . S
C1783 C1782 1.386 . S
C1783 C1787 1.393 . S
C1784 H1773 0.950 . S
C1784 C1782 1.391 . S
C1784 C1785 1.400 . S
C1785 C1779 1.491 . S
C1785 C1784 1.400 . S
C1785 C1786 1.398 . S
C1786 H1774 0.950 . S
C1786 C1785 1.398 . S
C1786 C1787 1.391 . S
C1787 H1775 0.950 . S
C1787 C1783 1.393 . S
C1787 C1786 1.391 . S
H1788 C1796 0.950 . S
H1789 C1801 0.950 . S
H1790 C1798 0.950 . S
H1791 C1800 0.950 . S
H1792 C1802 0.950 . S
H1793 C1804 0.950 . S
H1794 C1806 0.950 . S
H1795 C1807 0.950 . S
C1796 H1788 0.950 . S
C1796 C1797 1.386 . S
C1796 C1798 1.391 . S
C1797 C1796 1.386 . S
C1797 C1801 1.393 . S
C1798 H1790 0.950 . S
C1798 C1796 1.391 . S
C1798 C1799 1.400 . S
C1799 C1798 1.400 . S
C1799 C1800 1.398 . S
C1799 C1805 1.491 . S
C1800 H1791 0.950 . S
C1800 C1799 1.398 . S
C1800 C1801 1.391 . S
C1801 H1789 0.950 . S
C1801 C1797 1.393 . S
C1801 C1800 1.391 . S
C1802 H1792 0.950 . S
C1802 C1803 1.386 . S
C1802 C1804 1.391 . S
C1803 C1802 1.386 . S
C1803 C1807 1.393 . S
C1804 H1793 0.950 . S
C1804 C1802 1.391 . S
C1804 C1805 1.400 . S
C1805 C1799 1.491 . S
C1805 C1804 1.400 . S
C1805 C1806 1.398 . S
C1806 H1794 0.950 . S
C1806 C1805 1.398 . S
C1806 C1807 1.391 . S
C1807 H1795 0.950 . S
C1807 C1803 1.393 . S
C1807 C1806 1.391 . S
H1808 C1816 0.950 . S
H1809 C1821 0.950 . S
H1810 C1818 0.950 . S
H1811 C1820 0.950 . S
H1812 C1822 0.950 . S
H1813 C1824 0.950 . S
H1814 C1826 0.950 . S
H1815 C1827 0.950 . S
C1816 H1808 0.950 . S
C1816 C1817 1.386 . S
C1816 C1818 1.391 . S
C1817 C1816 1.386 . S
C1817 C1821 1.393 . S
C1818 H1810 0.950 . S
C1818 C1816 1.391 . S
C1818 C1819 1.400 . S
C1819 C1818 1.400 . S
C1819 C1820 1.398 . S
C1819 C1825 1.491 . S
C1820 H1811 0.950 . S
C1820 C1819 1.398 . S
C1820 C1821 1.391 . S
C1821 H1809 0.950 . S
C1821 C1817 1.393 . S
C1821 C1820 1.391 . S
C1822 H1812 0.950 . S
C1822 C1823 1.386 . S
C1822 C1824 1.391 . S
C1823 C1822 1.386 . S
C1823 C1827 1.393 . S
C1824 H1813 0.950 . S
C1824 C1822 1.391 . S
C1824 C1825 1.400 . S
C1825 C1819 1.491 . S
C1825 C1824 1.400 . S
C1825 C1826 1.398 . S
C1826 H1814 0.950 . S
C1826 C1825 1.398 . S
C1826 C1827 1.391 . S
C1827 H1815 0.950 . S
C1827 C1823 1.393 . S
C1827 C1826 1.391 . S
H1828 C1836 0.950 . S
H1829 C1841 0.950 . S
H1830 C1838 0.950 . S
H1831 C1840 0.950 . S
H1832 C1842 0.950 . S
H1833 C1844 0.950 . S
H1834 C1846 0.950 . S
H1835 C1847 0.950 . S
C1836 H1828 0.950 . S
C1836 C1837 1.386 . S
C1836 C1838 1.391 . S
C1837 C1836 1.386 . S
C1837 C1841 1.393 . S
C1838 H1830 0.950 . S
C1838 C1836 1.391 . S
C1838 C1839 1.400 . S
C1839 C1838 1.400 . S
C1839 C1840 1.398 . S
C1839 C1845 1.491 . S
C1840 H1831 0.950 . S
C1840 C1839 1.398 . S
C1840 C1841 1.391 . S
C1841 H1829 0.950 . S
C1841 C1837 1.393 . S
C1841 C1840 1.391 . S
C1842 H1832 0.950 . S
C1842 C1843 1.386 . S
C1842 C1844 1.391 . S
C1843 C1842 1.386 . S
C1843 C1847 1.393 . S
C1844 H1833 0.950 . S
C1844 C1842 1.391 . S
C1844 C1845 1.400 . S
C1845 C1839 1.491 . S
C1845 C1844 1.400 . S
C1845 C1846 1.398 . S
C1846 H1834 0.950 . S
C1846 C1845 1.398 . S
C1846 C1847 1.391 . S
C1847 H1835 0.950 . S
C1847 C1843 1.393 . S
C1847 C1846 1.391 . S
H1848 C1856 0.950 . S
H1849 C1861 0.950 . S
H1850 C1858 0.950 . S
H1851 C1860 0.950 . S
H1852 C1862 0.950 . S
H1853 C1864 0.950 . S
H1854 C1866 0.950 . S
H1855 C1867 0.950 . S
C1856 H1848 0.950 . S
C1856 C1857 1.386 . S
C1856 C1858 1.391 . S
C1857 C1856 1.386 . S
C1857 C1861 1.393 . S
C1858 H1850 0.950 . S
C1858 C1856 1.391 . S
C1858 C1859 1.400 . S
C1859 C1858 1.400 . S
C1859 C1860 1.398 . S
C1859 C1865 1.491 . S
C1860 H1851 0.950 . S
C1860 C1859 1.398 . S
C1860 C1861 1.391 . S
C1861 H1849 0.950 . S
C1861 C1857 1.393 . S
C1861 C1860 1.391 . S
C1862 H1852 0.950 . S
C1862 C1863 1.386 . S
C1862 C1864 1.391 . S
C1863 C1862 1.386 . S
C1863 C1867 1.393 . S
C1864 H1853 0.950 . S
C1864 C1862 1.391 . S
C1864 C1865 1.400 . S
C1865 C1859 1.491 . S
C1865 C1864 1.400 . S
C1865 C1866 1.398 . S
C1866 H1854 0.950 . S
C1866 C1865 1.398 . S
C1866 C1867 1.391 . S
C1867 H1855 0.950 . S
C1867 C1863 1.393 . S
C1867 C1866 1.391 . S
H1868 C1876 0.950 . S
H1869 C1881 0.950 . S
H1870 C1878 0.950 . S
H1871 C1880 0.950 . S
H1872 C1882 0.950 . S
H1873 C1884 0.950 . S
H1874 C1886 0.950 . S
H1875 C1887 0.950 . S
C1876 H1868 0.950 . S
C1876 C1877 1.386 . S
C1876 C1878 1.391 . S
C1877 C1876 1.386 . S
C1877 C1881 1.393 . S
C1878 H1870 0.950 . S
C1878 C1876 1.391 . S
C1878 C1879 1.400 . S
C1879 C1878 1.400 . S
C1879 C1880 1.398 . S
C1879 C1885 1.491 . S
C1880 H1871 0.950 . S
C1880 C1879 1.398 . S
C1880 C1881 1.391 . S
C1881 H1869 0.950 . S
C1881 C1877 1.393 . S
C1881 C1880 1.391 . S
C1882 H1872 0.950 . S
C1882 C1883 1.386 . S
C1882 C1884 1.391 . S
C1883 C1882 1.386 . S
C1883 C1887 1.393 . S
C1884 H1873 0.950 . S
C1884 C1882 1.391 . S
C1884 C1885 1.400 . S
C1885 C1879 1.491 . S
C1885 C1884 1.400 . S
C1885 C1886 1.398 . S
C1886 H1874 0.950 . S
C1886 C1885 1.398 . S
C1886 C1887 1.391 . S
C1887 H1875 0.950 . S
C1887 C1883 1.393 . S
C1887 C1886 1.391 . S
H1888 C1896 0.950 . S
H1889 C1901 0.950 . S
H1890 C1898 0.950 . S
H1891 C1900 0.950 . S
H1892 C1902 0.950 . S
H1893 C1904 0.950 . S
H1894 C1906 0.950 . S
H1895 C1907 0.950 . S
C1896 H1888 0.950 . S
C1896 C1897 1.386 . S
C1896 C1898 1.391 . S
C1897 C1896 1.386 . S
C1897 C1901 1.393 . S
C1898 H1890 0.950 . S
C1898 C1896 1.391 . S
C1898 C1899 1.400 . S
C1899 C1898 1.400 . S
C1899 C1900 1.398 . S
C1899 C1905 1.491 . S
C1900 H1891 0.950 . S
C1900 C1899 1.398 . S
C1900 C1901 1.391 . S
C1901 H1889 0.950 . S
C1901 C1897 1.393 . S
C1901 C1900 1.391 . S
C1902 H1892 0.950 . S
C1902 C1903 1.386 . S
C1902 C1904 1.391 . S
C1903 C1902 1.386 . S
C1903 C1907 1.393 . S
C1904 H1893 0.950 . S
C1904 C1902 1.391 . S
C1904 C1905 1.400 . S
C1905 C1899 1.491 . S
C1905 C1904 1.400 . S
C1905 C1906 1.398 . S
C1906 H1894 0.950 . S
C1906 C1905 1.398 . S
C1906 C1907 1.391 . S
C1907 H1895 0.950 . S
C1907 C1903 1.393 . S
C1907 C1906 1.391 . S
H1908 C1916 0.950 . S
H1909 C1921 0.950 . S
H1910 C1918 0.950 . S
H1911 C1920 0.950 . S
H1912 C1922 0.950 . S
H1913 C1924 0.950 . S
H1914 C1926 0.950 . S
H1915 C1927 0.950 . S
C1916 H1908 0.950 . S
C1916 C1917 1.386 . S
C1916 C1918 1.391 . S
C1917 C1916 1.386 . S
C1917 C1921 1.393 . S
C1918 H1910 0.950 . S
C1918 C1916 1.391 . S
C1918 C1919 1.400 . S
C1919 C1918 1.400 . S
C1919 C1920 1.398 . S
C1919 C1925 1.491 . S
C1920 H1911 0.950 . S
C1920 C1919 1.398 . S
C1920 C1921 1.391 . S
C1921 H1909 0.950 . S
C1921 C1917 1.393 . S
C1921 C1920 1.391 . S
C1922 H1912 0.950 . S
C1922 C1923 1.386 . S
C1922 C1924 1.391 . S
C1923 C1922 1.386 . S
C1923 C1927 1.393 . S
C1924 H1913 0.950 . S
C1924 C1922 1.391 . S
C1924 C1925 1.400 . S
C1925 C1919 1.491 . S
C1925 C1924 1.400 . S
C1925 C1926 1.398 . S
C1926 H1914 0.950 . S
C1926 C1925 1.398 . S
C1926 C1927 1.391 . S
C1927 H1915 0.950 . S
C1927 C1923 1.393 . S
C1927 C1926 1.391 . S
H1928 C1936 0.950 . S
H1929 C1941 0.950 . S
H1930 C1938 0.950 . S
H1931 C1940 0.950 . S
H1932 C1942 0.950 . S
H1933 C1944 0.950 . S
H1934 C1946 0.950 . S
H1935 C1947 0.950 . S
C1936 H1928 0.950 . S
C1936 C1937 1.386 . S
C1936 C1938 1.391 . S
C1937 C1936 1.386 . S
C1937 C1941 1.393 . S
C1938 H1930 0.950 . S
C1938 C1936 1.391 . S
C1938 C1939 1.400 . S
C1939 C1938 1.400 . S
C1939 C1940 1.398 . S
C1939 C1945 1.491 . S
C1940 H1931 0.950 . S
C1940 C1939 1.398 . S
C1940 C1941 1.391 . S
C1941 H1929 0.950 . S
C1941 C1937 1.393 . S
C1941 C1940 1.391 . S
C1942 H1932 0.950 . S
C1942 C1943 1.386 . S
C1942 C1944 1.391 . S
C1943 C1942 1.386 . S
C1943 C1947 1.393 . S
C1944 H1933 0.950 . S
C1944 C1942 1.391 . S
C1944 C1945 1.400 . S
C1945 C1939 1.491 . S
C1945 C1944 1.400 . S
C1945 C1946 1.398 . S
C1946 H1934 0.950 . S
C1946 C1945 1.398 . S
C1946 C1947 1.391 . S
C1947 H1935 0.950 . S
C1947 C1943 1.393 . S
C1947 C1946 1.391 . S
H1948 C1956 0.950 . S
H1949 C1961 0.950 . S
H1950 C1958 0.950 . S
H1951 C1960 0.950 . S
H1952 C1962 0.950 . S
H1953 C1964 0.950 . S
H1954 C1966 0.950 . S
H1955 C1967 0.950 . S
C1956 H1948 0.950 . S
C1956 C1957 1.386 . S
C1956 C1958 1.391 . S
C1957 C1956 1.386 . S
C1957 C1961 1.393 . S
C1958 H1950 0.950 . S
C1958 C1956 1.391 . S
C1958 C1959 1.400 . S
C1959 C1958 1.400 . S
C1959 C1960 1.398 . S
C1959 C1965 1.491 . S
C1960 H1951 0.950 . S
C1960 C1959 1.398 . S
C1960 C1961 1.391 . S
C1961 H1949 0.950 . S
C1961 C1957 1.393 . S
C1961 C1960 1.391 . S
C1962 H1952 0.950 . S
C1962 C1963 1.386 . S
C1962 C1964 1.391 . S
C1963 C1962 1.386 . S
C1963 C1967 1.393 . S
C1964 H1953 0.950 . S
C1964 C1962 1.391 . S
C1964 C1965 1.400 . S
C1965 C1959 1.491 . S
C1965 C1964 1.400 . S
C1965 C1966 1.398 . S
C1966 H1954 0.950 . S
C1966 C1965 1.398 . S
C1966 C1967 1.391 . S
C1967 H1955 0.950 . S
C1967 C1963 1.393 . S
C1967 C1966 1.391 . S
C537 C489 1.507 . S
C543 C5 1.492 . S
C557 C456 1.395 . S
C563 C18 1.499 . S
C577 C469 1.568 . S
C583 C27 1.426 . S
C597 C38 1.377 . S
C603 C480 1.480 . S
C617 C51 1.402 . S
C623 C522 1.361 . S
C637 C60 1.365 . S
C643 C502 1.470 . S
C657 C513 1.619 . S
C663 C73 1.610 . S
C677 C84 1.473 . S
C683 C445 1.391 . S
C697 C95 1.564 . S
C703 C436 1.568 . S
C717 C403 1.616 . S
C723 C104 1.440 . S
C737 C115 1.435 . S
C743 C414 1.442 . S
C757 C423 1.392 . S
C763 C126 1.419 . S
C777 C368 1.418 . S
C783 C139 1.606 . S
C797 C150 1.466 . S
C803 C379 1.426 . S
C817 C390 1.415 . S
C823 C159 1.384 . S
C837 C172 1.579 . S
C843 C359 1.560 . S
C857 C348 1.462 . S
C863 C181 1.389 . S
C877 C192 1.383 . S
C883 C282 1.499 . S
C897 C205 1.586 . S
C903 C291 1.424 . S
C917 C302 1.380 . S
C923 C216 1.502 . S
C937 C225 1.475 . S
C943 C269 1.497 . S
C957 C238 1.467 . S
C963 C324 1.385 . S
C977 C337 1.610 . S
C983 C249 1.622 . S
C997 C258 1.373 . S
C1003 C315 1.421 . S
C1017 C170 1.410 . S
C1023 C447 1.600 . S
C1037 C524 1.533 . S
C1043 C137 1.290 . S
C1057 C500 1.275 . S
C1063 C148 1.226 . S
C1077 C511 1.313 . S
C1083 C161 1.527 . S
C1097 C458 1.621 . S
C1103 C106 1.587 . S
C1117 C467 1.247 . S
C1123 C117 1.516 . S
C1137 C128 1.479 . S
C1143 C478 1.225 . S
C1157 C93 1.284 . S
C1163 C491 1.503 . S
C1177 C271 1.541 . S
C1183 C82 1.256 . S
C1197 C49 1.188 . S
C1203 C280 1.238 . S
C1217 C293 1.562 . S
C1223 C62 1.581 . S
C1237 C304 1.630 . S
C1243 C71 1.480 . S
C1257 C16 1.249 . S
C1263 C313 1.223 . S
C1277 C326 1.592 . S
C1283 C29 1.578 . S
C1297 C40 1.635 . S
C1303 C335 1.472 . S
C1317 C7 1.549 . S
C1323 C346 1.208 . S
C1337 C227 1.504 . S
C1343 C357 1.285 . S
C1357 C401 1.279 . S
C1363 C260 1.536 . S
C1377 C412 1.248 . S
C1383 C236 1.310 . S
C1397 C425 1.529 . S
C1403 C247 1.308 . S
C1417 C183 1.596 . S
C1423 C434 1.417 . S
C1437 C203 1.247 . S
C1443 C381 1.516 . S
C1457 C214 1.180 . S
C1463 C392 1.484 . S
C1477 C194 1.634 . S
C1483 C370 1.606 . S
C1497 C107 1.687 . S
C1503 C8 1.715 . S
C1517 C19 1.555 . S
C1523 C118 1.571 . S
C1537 C30 1.584 . S
C1543 C129 1.599 . S
C1557 C96 1.557 . S
C1563 C41 1.568 . S
C1577 C52 1.553 . S
C1583 C173 1.596 . S
C1597 C140 1.560 . S
C1603 C63 1.570 . S
C1617 C74 1.722 . S
C1623 C151 1.640 . S
C1637 C85 1.544 . S
C1643 C162 1.568 . S
C1657 C206 1.529 . S
C1663 C184 1.541 . S
C1677 C195 1.602 . S
C1683 C250 1.595 . S
C1697 C261 1.565 . S
C1703 C217 1.543 . S
C1717 C239 1.554 . S
C1723 C228 1.574 . S
C1737 C371 1.690 . S
C1743 C272 1.718 . S
C1757 C382 1.571 . S
C1763 C283 1.555 . S
C1777 C393 1.597 . S
C1783 C294 1.574 . S
C1797 C360 1.557 . S
C1803 C305 1.568 . S
C1817 C437 1.597 . S
C1823 C316 1.541 . S
C1837 C404 1.560 . S
C1843 C327 1.570 . S
C1857 C415 1.658 . S
C1863 C338 1.722 . S
C1877 C426 1.570 . S
C1883 C349 1.552 . S
C1897 C470 1.530 . S
C1903 C448 1.540 . S
C1917 C514 1.587 . S
C1923 C459 1.597 . S
C1937 C481 1.553 . S
C1943 C525 1.567 . S
C1957 C503 1.553 . S
C1963 C492 1.574 . S
