# Generated by pormake.
# Topology unu, (4)-cn, num edge types: 1
# Building blocks:
#     Node 0, Type 0, BuildingBlock: CEKHIL_clean_sbu_0, # of connection points: 4
#     Node 1, Type 0, BuildingBlock: CEKHIL_clean_sbu_0, # of connection points: 4
#     Node 2, Type 0, BuildingBlock: CEKHIL_clean_sbu_0, # of connection points: 4
#     Node 3, Type 0, BuildingBlock: CEKHIL_clean_sbu_0, # of connection points: 4
#     Node 4, Type 0, BuildingBlock: CEKHIL_clean_sbu_0, # of connection points: 4
#     Node 5, Type 0, BuildingBlock: CEKHIL_clean_sbu_0, # of connection points: 4
#     Node 6, Type 0, BuildingBlock: CEKHIL_clean_sbu_0, # of connection points: 4
#     Node 7, Type 0, BuildingBlock: CEKHIL_clean_sbu_0, # of connection points: 4
#     Node 8, Type 0, BuildingBlock: CEKHIL_clean_sbu_0, # of connection points: 4
#     Node 9, Type 0, BuildingBlock: CEKHIL_clean_sbu_0, # of connection points: 4
#     Node 10, Type 0, BuildingBlock: CEKHIL_clean_sbu_0, # of connection points: 4
#     Node 11, Type 0, BuildingBlock: CEKHIL_clean_sbu_0, # of connection points: 4
#     Node 12, Type 0, BuildingBlock: CEKHIL_clean_sbu_0, # of connection points: 4
#     Node 13, Type 0, BuildingBlock: CEKHIL_clean_sbu_0, # of connection points: 4
#     Node 14, Type 0, BuildingBlock: CEKHIL_clean_sbu_0, # of connection points: 4
#     Node 15, Type 0, BuildingBlock: CEKHIL_clean_sbu_0, # of connection points: 4
#     Node 16, Type 0, BuildingBlock: CEKHIL_clean_sbu_0, # of connection points: 4
#     Node 17, Type 0, BuildingBlock: CEKHIL_clean_sbu_0, # of connection points: 4
#     Node 18, Type 0, BuildingBlock: CEKHIL_clean_sbu_0, # of connection points: 4
#     Node 19, Type 0, BuildingBlock: CEKHIL_clean_sbu_0, # of connection points: 4
#     Node 20, Type 0, BuildingBlock: CEKHIL_clean_sbu_0, # of connection points: 4
#     Node 21, Type 0, BuildingBlock: CEKHIL_clean_sbu_0, # of connection points: 4
#     Node 22, Type 0, BuildingBlock: CEKHIL_clean_sbu_0, # of connection points: 4
#     Node 23, Type 0, BuildingBlock: CEKHIL_clean_sbu_0, # of connection points: 4
#     Node 24, Type 0, BuildingBlock: CEKHIL_clean_sbu_0, # of connection points: 4
#     Node 25, Type 0, BuildingBlock: CEKHIL_clean_sbu_0, # of connection points: 4
#     Node 26, Type 0, BuildingBlock: CEKHIL_clean_sbu_0, # of connection points: 4
#     Node 27, Type 0, BuildingBlock: CEKHIL_clean_sbu_0, # of connection points: 4
#     Node 28, Type 0, BuildingBlock: CEKHIL_clean_sbu_0, # of connection points: 4
#     Node 29, Type 0, BuildingBlock: CEKHIL_clean_sbu_0, # of connection points: 4
#     Node 30, Type 0, BuildingBlock: CEKHIL_clean_sbu_0, # of connection points: 4
#     Node 31, Type 0, BuildingBlock: CEKHIL_clean_sbu_0, # of connection points: 4
#     Node 32, Type 0, BuildingBlock: CEKHIL_clean_sbu_0, # of connection points: 4
#     Node 33, Type 0, BuildingBlock: CEKHIL_clean_sbu_0, # of connection points: 4
#     Node 34, Type 0, BuildingBlock: CEKHIL_clean_sbu_0, # of connection points: 4
#     Node 35, Type 0, BuildingBlock: CEKHIL_clean_sbu_0, # of connection points: 4
#     Edge 36, Type (0, 0), BuildingBlock: CIFDUS_clean_linker_0, # of connection points: 2
#     Edge 37, Type (0, 0), BuildingBlock: CIFDUS_clean_linker_0, # of connection points: 2
#     Edge 38, Type (0, 0), BuildingBlock: CIFDUS_clean_linker_0, # of connection points: 2
#     Edge 39, Type (0, 0), BuildingBlock: CIFDUS_clean_linker_0, # of connection points: 2
#     Edge 40, Type (0, 0), BuildingBlock: CIFDUS_clean_linker_0, # of connection points: 2
#     Edge 41, Type (0, 0), BuildingBlock: CIFDUS_clean_linker_0, # of connection points: 2
#     Edge 42, Type (0, 0), BuildingBlock: CIFDUS_clean_linker_0, # of connection points: 2
#     Edge 43, Type (0, 0), BuildingBlock: CIFDUS_clean_linker_0, # of connection points: 2
#     Edge 44, Type (0, 0), BuildingBlock: CIFDUS_clean_linker_0, # of connection points: 2
#     Edge 45, Type (0, 0), BuildingBlock: CIFDUS_clean_linker_0, # of connection points: 2
#     Edge 46, Type (0, 0), BuildingBlock: CIFDUS_clean_linker_0, # of connection points: 2
#     Edge 47, Type (0, 0), BuildingBlock: CIFDUS_clean_linker_0, # of connection points: 2
#     Edge 48, Type (0, 0), BuildingBlock: CIFDUS_clean_linker_0, # of connection points: 2
#     Edge 49, Type (0, 0), BuildingBlock: CIFDUS_clean_linker_0, # of connection points: 2
#     Edge 50, Type (0, 0), BuildingBlock: CIFDUS_clean_linker_0, # of connection points: 2
#     Edge 51, Type (0, 0), BuildingBlock: CIFDUS_clean_linker_0, # of connection points: 2
#     Edge 52, Type (0, 0), BuildingBlock: CIFDUS_clean_linker_0, # of connection points: 2
#     Edge 53, Type (0, 0), BuildingBlock: CIFDUS_clean_linker_0, # of connection points: 2
#     Edge 54, Type (0, 0), BuildingBlock: CIFDUS_clean_linker_0, # of connection points: 2
#     Edge 55, Type (0, 0), BuildingBlock: CIFDUS_clean_linker_0, # of connection points: 2
#     Edge 56, Type (0, 0), BuildingBlock: CIFDUS_clean_linker_0, # of connection points: 2
#     Edge 57, Type (0, 0), BuildingBlock: CIFDUS_clean_linker_0, # of connection points: 2
#     Edge 58, Type (0, 0), BuildingBlock: CIFDUS_clean_linker_0, # of connection points: 2
#     Edge 59, Type (0, 0), BuildingBlock: CIFDUS_clean_linker_0, # of connection points: 2
#     Edge 60, Type (0, 0), BuildingBlock: CIFDUS_clean_linker_0, # of connection points: 2
#     Edge 61, Type (0, 0), BuildingBlock: CIFDUS_clean_linker_0, # of connection points: 2
#     Edge 62, Type (0, 0), BuildingBlock: CIFDUS_clean_linker_0, # of connection points: 2
#     Edge 63, Type (0, 0), BuildingBlock: CIFDUS_clean_linker_0, # of connection points: 2
#     Edge 64, Type (0, 0), BuildingBlock: CIFDUS_clean_linker_0, # of connection points: 2
#     Edge 65, Type (0, 0), BuildingBlock: CIFDUS_clean_linker_0, # of connection points: 2
#     Edge 66, Type (0, 0), BuildingBlock: CIFDUS_clean_linker_0, # of connection points: 2
#     Edge 67, Type (0, 0), BuildingBlock: CIFDUS_clean_linker_0, # of connection points: 2
#     Edge 68, Type (0, 0), BuildingBlock: CIFDUS_clean_linker_0, # of connection points: 2
#     Edge 69, Type (0, 0), BuildingBlock: CIFDUS_clean_linker_0, # of connection points: 2
#     Edge 70, Type (0, 0), BuildingBlock: CIFDUS_clean_linker_0, # of connection points: 2
#     Edge 71, Type (0, 0), BuildingBlock: CIFDUS_clean_linker_0, # of connection points: 2
#     Edge 72, Type (0, 0), BuildingBlock: CIFDUS_clean_linker_0, # of connection points: 2
#     Edge 73, Type (0, 0), BuildingBlock: CIFDUS_clean_linker_0, # of connection points: 2
#     Edge 74, Type (0, 0), BuildingBlock: CIFDUS_clean_linker_0, # of connection points: 2
#     Edge 75, Type (0, 0), BuildingBlock: CIFDUS_clean_linker_0, # of connection points: 2
#     Edge 76, Type (0, 0), BuildingBlock: CIFDUS_clean_linker_0, # of connection points: 2
#     Edge 77, Type (0, 0), BuildingBlock: CIFDUS_clean_linker_0, # of connection points: 2
#     Edge 78, Type (0, 0), BuildingBlock: CIFDUS_clean_linker_0, # of connection points: 2
#     Edge 79, Type (0, 0), BuildingBlock: CIFDUS_clean_linker_0, # of connection points: 2
#     Edge 80, Type (0, 0), BuildingBlock: CIFDUS_clean_linker_0, # of connection points: 2
#     Edge 81, Type (0, 0), BuildingBlock: CIFDUS_clean_linker_0, # of connection points: 2
#     Edge 82, Type (0, 0), BuildingBlock: CIFDUS_clean_linker_0, # of connection points: 2
#     Edge 83, Type (0, 0), BuildingBlock: CIFDUS_clean_linker_0, # of connection points: 2
#     Edge 84, Type (0, 0), BuildingBlock: CIFDUS_clean_linker_0, # of connection points: 2
#     Edge 85, Type (0, 0), BuildingBlock: CIFDUS_clean_linker_0, # of connection points: 2
#     Edge 86, Type (0, 0), BuildingBlock: CIFDUS_clean_linker_0, # of connection points: 2
#     Edge 87, Type (0, 0), BuildingBlock: CIFDUS_clean_linker_0, # of connection points: 2
#     Edge 88, Type (0, 0), BuildingBlock: CIFDUS_clean_linker_0, # of connection points: 2
#     Edge 89, Type (0, 0), BuildingBlock: CIFDUS_clean_linker_0, # of connection points: 2
#     Edge 90, Type (0, 0), BuildingBlock: CIFDUS_clean_linker_0, # of connection points: 2
#     Edge 91, Type (0, 0), BuildingBlock: CIFDUS_clean_linker_0, # of connection points: 2
#     Edge 92, Type (0, 0), BuildingBlock: CIFDUS_clean_linker_0, # of connection points: 2
#     Edge 93, Type (0, 0), BuildingBlock: CIFDUS_clean_linker_0, # of connection points: 2
#     Edge 94, Type (0, 0), BuildingBlock: CIFDUS_clean_linker_0, # of connection points: 2
#     Edge 95, Type (0, 0), BuildingBlock: CIFDUS_clean_linker_0, # of connection points: 2
#     Edge 96, Type (0, 0), BuildingBlock: CIFDUS_clean_linker_0, # of connection points: 2
#     Edge 97, Type (0, 0), BuildingBlock: CIFDUS_clean_linker_0, # of connection points: 2
#     Edge 98, Type (0, 0), BuildingBlock: CIFDUS_clean_linker_0, # of connection points: 2
#     Edge 99, Type (0, 0), BuildingBlock: CIFDUS_clean_linker_0, # of connection points: 2
#     Edge 100, Type (0, 0), BuildingBlock: CIFDUS_clean_linker_0, # of connection points: 2
#     Edge 101, Type (0, 0), BuildingBlock: CIFDUS_clean_linker_0, # of connection points: 2
#     Edge 102, Type (0, 0), BuildingBlock: CIFDUS_clean_linker_0, # of connection points: 2
#     Edge 103, Type (0, 0), BuildingBlock: CIFDUS_clean_linker_0, # of connection points: 2
#     Edge 104, Type (0, 0), BuildingBlock: CIFDUS_clean_linker_0, # of connection points: 2
#     Edge 105, Type (0, 0), BuildingBlock: CIFDUS_clean_linker_0, # of connection points: 2
#     Edge 106, Type (0, 0), BuildingBlock: CIFDUS_clean_linker_0, # of connection points: 2
#     Edge 107, Type (0, 0), BuildingBlock: CIFDUS_clean_linker_0, # of connection points: 2
# Relax obj value: 0.187
# Max RMSD: 0.232
# Mean RMSD: 0.232
data_MOF--net-unu--node1-CEKHIL_clean_sbu_0--edge1-CIFDUS_clean_linker_0
_symmetry_space_group_name_H-M    P1
_symmetry_Int_Tables_number       1
_symmetry_cell_setting            triclinic
loop_
_symmetry_equiv_pos_as_xyz
'x, y, z'
_cell_length_a     38.110534
_cell_length_b     38.077894
_cell_length_c     87.566951
_cell_angle_alpha  90.030437
_cell_angle_beta   89.95548
_cell_angle_gamma 119.94803
loop_
_atom_site_label
_atom_site_type_symbol
_atom_site_fract_x
_atom_site_fract_y
_atom_site_fract_z
_atom_type_partial_charge
Co0 Co 0.1913 0.00857 0.12173 0.0
O1 O 0.22584 0.98704 0.11704 0.0
O2 O 0.23188 0.04311 0.10684 0.0
C3 C 0.13138 0.95081 0.11976 0.0
O4 O 0.15984 0.03868 0.12454 0.0
Co5 Co 0.14279 0.97711 0.15214 0.0
O6 O 0.11908 0.01005 0.14495 0.0
C7 C 0.22705 0.04284 0.15338 0.0
C8 C 0.2452 0.01764 0.10797 0.0
C9 C 0.13241 0.03557 0.134 0.0
O10 O 0.22837 0.04172 0.13874 0.0
O11 O 0.19645 0.0175 0.16122 0.0
O12 O 0.14982 0.9712 0.1076 0.0
O13 O 0.15275 0.96249 0.13213 0.0
Co14 Co 0.98762 0.18907 0.11867 0.0
O15 O 0.01462 0.24687 0.11641 0.0
O16 O 0.96208 0.20366 0.10257 0.0
C17 C 0.04302 0.182 0.11896 0.0
O18 O 0.95331 0.12714 0.1183 0.0
Co19 Co 0.00443 0.15853 0.14946 0.0
O20 O 0.96984 0.10524 0.13967 0.0
C21 C 0.94406 0.18467 0.14885 0.0
C22 C 0.98937 0.2411 0.10551 0.0
C23 C 0.94995 0.09867 0.12727 0.0
O24 O 0.94937 0.19046 0.13434 0.0
O25 O 0.96575 0.17553 0.15727 0.0
O26 O 0.02851 0.18607 0.10611 0.0
O27 O 0.02764 0.18889 0.13098 0.0
Co28 Co 0.80908 0.79639 0.12966 0.0
O29 O 0.75173 0.76715 0.1267 0.0
O30 O 0.79509 0.75607 0.11363 0.0
C31 C 0.81732 0.85933 0.12998 0.0
O32 O 0.87066 0.82194 0.13025 0.0
Co33 Co 0.83773 0.8429 0.1607 0.0
O34 O 0.89163 0.85888 0.152 0.0
C35 C 0.809 0.75568 0.15994 0.0
C36 C 0.75769 0.74651 0.1163 0.0
C37 C 0.89859 0.84533 0.13972 0.0
O38 O 0.80451 0.75584 0.1454 0.0
O39 O 0.81874 0.78663 0.16841 0.0
O40 O 0.81496 0.84152 0.11706 0.0
O41 O 0.80888 0.83648 0.14188 0.0
Co42 Co 0.02629 0.20935 0.38745 0.0
O43 O 0.00297 0.24315 0.39009 0.0
O44 O 0.05443 0.24836 0.40367 0.0
C45 C 0.96808 0.14944 0.3871 0.0
O46 O 0.05696 0.17798 0.38729 0.0
Co47 Co 0.00643 0.16289 0.35646 0.0
O48 O 0.03582 0.13839 0.36621 0.0
C49 C 0.07188 0.24773 0.3576 0.0
C50 C 0.02914 0.26121 0.40086 0.0
C51 C 0.05688 0.15089 0.37838 0.0
O52 O 0.06535 0.24824 0.37197 0.0
O53 O 0.05026 0.21717 0.34903 0.0
O54 O 0.98421 0.16699 0.39996 0.0
O55 O 0.98433 0.17141 0.37506 0.0
Co56 Co 0.79778 0.82792 0.38456 0.0
O57 O 0.76727 0.77228 0.39042 0.0
O58 O 0.75847 0.82107 0.4002 0.0
C59 C 0.85968 0.83419 0.38587 0.0
O60 O 0.82544 0.88904 0.38074 0.0
Co61 Co 0.84294 0.84449 0.35347 0.0
O62 O 0.86389 0.90147 0.35958 0.0
C63 C 0.75658 0.81924 0.35351 0.0
C64 C 0.74796 0.78282 0.39981 0.0
C65 C 0.85084 0.91336 0.37071 0.0
O66 O 0.75702 0.81837 0.36817 0.0
O67 O 0.78739 0.8271 0.34526 0.0
O68 O 0.84198 0.83694 0.39809 0.0
O69 O 0.83712 0.82203 0.37377 0.0
Co70 Co 0.18237 0.97443 0.37659 0.0
O71 O 0.23959 0.00191 0.3796 0.0
O72 O 0.19551 0.94938 0.39336 0.0
C73 C 0.17584 0.02995 0.37536 0.0
O74 O 0.12049 0.9397 0.37601 0.0
Co75 Co 0.15464 0.99027 0.34503 0.0
O76 O 0.10044 0.95562 0.35402 0.0
C77 C 0.18198 0.93065 0.34712 0.0
C78 C 0.23304 0.97669 0.39058 0.0
C79 C 0.09287 0.93601 0.36653 0.0
O80 O 0.18665 0.93667 0.3616 0.0
O81 O 0.17195 0.95089 0.33825 0.0
O82 O 0.17756 0.01516 0.38849 0.0
O83 O 0.18375 0.01421 0.3637 0.0
Co84 Co 0.79613 0.97521 0.8822 0.0
O85 O 0.7638 0.00076 0.88378 0.0
O86 O 0.75799 0.95153 0.89893 0.0
C87 C 0.85677 0.03181 0.87994 0.0
O88 O 0.82508 0.94234 0.88374 0.0
Co89 Co 0.84345 0.98512 0.85194 0.0
O90 O 0.87137 0.96375 0.86479 0.0
C91 C 0.7566 0.92464 0.85364 0.0
C92 C 0.74581 0.97684 0.89522 0.0
C93 C 0.85563 0.94348 0.87693 0.0
O94 O 0.75603 0.93403 0.8677 0.0
O95 O 0.7879 0.9429 0.84507 0.0
O96 O 0.84054 0.01954 0.89333 0.0
O97 O 0.83365 0.01267 0.8685 0.0
Co98 Co 0.03597 0.82218 0.87924 0.0
O99 O 0.00754 0.76506 0.88314 0.0
O100 O 0.06705 0.8085 0.89319 0.0
C101 C 0.98391 0.83358 0.88292 0.0
O102 O 0.07294 0.88353 0.87748 0.0
Co103 Co 0.00836 0.84942 0.8503 0.0
O104 O 0.05032 0.90376 0.85734 0.0
C105 C 0.06378 0.81767 0.84665 0.0
C106 C 0.03735 0.77129 0.89195 0.0
C107 C 0.07476 0.91111 0.86841 0.0
O108 O 0.06443 0.81441 0.86125 0.0
O109 O 0.04061 0.82794 0.83981 0.0
O110 O 0.00404 0.83137 0.89445 0.0
O111 O 0.99186 0.82284 0.86993 0.0
Co112 Co 0.18506 0.20206 0.89033 0.0
O113 O 0.2416 0.2369 0.8939 0.0
O114 O 0.19261 0.24038 0.90634 0.0
C115 C 0.18465 0.14274 0.89011 0.0
O116 O 0.12338 0.1702 0.88945 0.0
Co117 Co 0.16052 0.15536 0.85942 0.0
O118 O 0.10561 0.13073 0.86841 0.0
C119 C 0.18233 0.24091 0.85998 0.0
C120 C 0.23117 0.25454 0.90415 0.0
C121 C 0.09667 0.14317 0.88053 0.0
O122 O 0.18616 0.24088 0.87455 0.0
O123 O 0.1746 0.21042 0.85155 0.0
O124 O 0.18419 0.1595 0.90297 0.0
O125 O 0.19109 0.16502 0.87812 0.0
Co126 Co 0.9906 0.80349 0.62327 0.0
O127 O 0.02114 0.7763 0.62114 0.0
O128 O 0.97165 0.76776 0.6056 0.0
C129 C 0.04254 0.86668 0.62714 0.0
O130 O 0.95334 0.8278 0.62248 0.0
Co131 Co 0.99406 0.84061 0.65549 0.0
O132 O 0.96113 0.86013 0.64499 0.0
C133 C 0.9389 0.7538 0.65056 0.0
C134 C 0.99892 0.75819 0.60935 0.0
C135 C 0.94562 0.84953 0.63172 0.0
O136 O 0.94997 0.75812 0.6365 0.0
O137 O 0.95465 0.78252 0.66036 0.0
O138 O 0.03313 0.85223 0.61337 0.0
O139 O 0.02465 0.84051 0.63792 0.0
Co140 Co 0.2115 0.19569 0.62047 0.0
O141 O 0.24881 0.25195 0.61706 0.0
O142 O 0.24806 0.20171 0.60398 0.0
C143 C 0.15468 0.19988 0.62128 0.0
O144 O 0.17647 0.13407 0.62096 0.0
Co145 Co 0.16345 0.17136 0.65123 0.0
O146 O 0.13644 0.11672 0.64183 0.0
C147 C 0.24757 0.188 0.65059 0.0
C148 C 0.26377 0.24056 0.60611 0.0
C149 C 0.14842 0.10752 0.62964 0.0
O150 O 0.24876 0.19263 0.63601 0.0
O151 O 0.21772 0.18297 0.65888 0.0
O152 O 0.17024 0.19861 0.60824 0.0
O153 O 0.17681 0.20416 0.63307 0.0
Co154 Co 0.8275 0.02737 0.61203 0.0
O155 O 0.7703 0.99792 0.60901 0.0
O156 O 0.81271 0.05482 0.59691 0.0
C157 C 0.83838 0.97462 0.61087 0.0
O158 O 0.88856 0.06501 0.61243 0.0
Co159 Co 0.85941 0.00935 0.642 0.0
O160 O 0.9126 0.04781 0.63295 0.0
C161 C 0.8251 0.06306 0.64322 0.0
C162 C 0.7757 0.02576 0.59925 0.0
C163 C 0.91775 0.06909 0.62104 0.0
O164 O 0.82063 0.05982 0.62866 0.0
O165 O 0.83788 0.04332 0.65104 0.0
O166 O 0.83535 0.99135 0.5984 0.0
O167 O 0.82925 0.98657 0.62333 0.0
Co168 Co 0.86162 0.35254 0.45253 0.0
O169 O 0.8952 0.32873 0.45013 0.0
O170 O 0.90138 0.38079 0.43662 0.0
C171 C 0.80154 0.29459 0.45303 0.0
O172 O 0.83167 0.38431 0.45209 0.0
Co173 Co 0.81199 0.33357 0.4828 0.0
O174 O 0.79153 0.36674 0.47296 0.0
C175 C 0.89839 0.39466 0.48296 0.0
C176 C 0.91416 0.35554 0.43959 0.0
C177 C 0.80535 0.38671 0.46059 0.0
O178 O 0.89972 0.39092 0.4684 0.0
O179 O 0.86718 0.37197 0.49106 0.0
O180 O 0.81857 0.31029 0.44002 0.0
O181 O 0.82351 0.31139 0.46494 0.0
Co182 Co 0.65299 0.5327 0.45825 0.0
O183 O 0.67631 0.59004 0.45551 0.0
O184 O 0.62525 0.54331 0.44192 0.0
C185 C 0.71081 0.53032 0.45932 0.0
O186 O 0.62202 0.47093 0.45796 0.0
Co187 Co 0.67111 0.50281 0.48892 0.0
O188 O 0.64096 0.44933 0.4787 0.0
C189 C 0.60888 0.52673 0.48824 0.0
C190 C 0.65023 0.58152 0.44463 0.0
C191 C 0.62082 0.44257 0.46635 0.0
O192 O 0.61345 0.53206 0.4737 0.0
O193 O 0.6315 0.5187 0.4966 0.0
O194 O 0.696 0.53217 0.44618 0.0
O195 O 0.69373 0.53611 0.47102 0.0
Co196 Co 0.47253 0.14077 0.45723 0.0
O197 O 0.41456 0.11143 0.45775 0.0
O198 O 0.45172 0.10329 0.44017 0.0
C199 C 0.48175 0.20308 0.46159 0.0
O200 O 0.53338 0.16688 0.45339 0.0
Co201 Co 0.51647 0.18311 0.48765 0.0
O202 O 0.56498 0.20319 0.47449 0.0
C203 C 0.48511 0.09583 0.48376 0.0
C204 C 0.41594 0.09258 0.44564 0.0
C205 C 0.56556 0.19085 0.46099 0.0
O206 O 0.47419 0.09781 0.47006 0.0
O207 O 0.49972 0.12581 0.49304 0.0
O208 O 0.47349 0.18802 0.44788 0.0
O209 O 0.47832 0.17805 0.47218 0.0
Co210 Co 0.67255 0.51974 0.70684 0.0
O211 O 0.64159 0.54674 0.70567 0.0
O212 O 0.68525 0.55634 0.72409 0.0
C213 C 0.62218 0.45627 0.70199 0.0
O214 O 0.70884 0.49552 0.71134 0.0
Co215 Co 0.67984 0.48081 0.67639 0.0
O216 O 0.70726 0.46087 0.69012 0.0
C217 C 0.73231 0.56816 0.68115 0.0
C218 C 0.65939 0.56538 0.71814 0.0
C219 C 0.71857 0.47246 0.70381 0.0
O220 O 0.71757 0.56458 0.69466 0.0
O221 O 0.71917 0.53885 0.6716 0.0
O222 O 0.62672 0.47122 0.71565 0.0
O223 O 0.64382 0.48205 0.69157 0.0
Co224 Co 0.44943 0.12682 0.70843 0.0
O225 O 0.41192 0.07035 0.71143 0.0
O226 O 0.41126 0.11997 0.72444 0.0
C227 C 0.50677 0.12358 0.70821 0.0
O228 O 0.48437 0.18851 0.70819 0.0
Co229 Co 0.49894 0.15155 0.678 0.0
O230 O 0.52638 0.20555 0.68793 0.0
C231 C 0.41511 0.13535 0.67794 0.0
C232 C 0.39551 0.08123 0.72201 0.0
C233 C 0.51357 0.21492 0.69985 0.0
O234 O 0.41321 0.13019 0.6925 0.0
O235 O 0.44533 0.14063 0.66984 0.0
O236 O 0.49012 0.12396 0.72111 0.0
O237 O 0.48513 0.119 0.69624 0.0
Co238 Co 0.83457 0.29273 0.71859 0.0
O239 O 0.89147 0.3172 0.72199 0.0
O240 O 0.84442 0.26673 0.73578 0.0
C241 C 0.83275 0.35073 0.71607 0.0
O242 O 0.77291 0.26072 0.7181 0.0
Co243 Co 0.80682 0.30765 0.6869 0.0
O244 O 0.75242 0.27614 0.69619 0.0
C245 C 0.83227 0.24651 0.68968 0.0
C246 C 0.88264 0.29178 0.73313 0.0
C247 C 0.74507 0.25745 0.7089 0.0
O248 O 0.83673 0.2526 0.70417 0.0
O249 O 0.82328 0.2673 0.68067 0.0
O250 O 0.83229 0.33643 0.72957 0.0
O251 O 0.83892 0.3323 0.70491 0.0
Co252 Co 0.44895 0.3011 0.2104 0.0
O253 O 0.41585 0.3253 0.21337 0.0
O254 O 0.41186 0.27493 0.22733 0.0
C255 C 0.50898 0.35907 0.20869 0.0
O256 O 0.47964 0.26977 0.21023 0.0
Co257 Co 0.49413 0.31847 0.17904 0.0
O258 O 0.51717 0.28735 0.18863 0.0
C259 C 0.40788 0.25657 0.18087 0.0
C260 C 0.39915 0.3004 0.22464 0.0
C261 C 0.50537 0.26782 0.20117 0.0
O262 O 0.40848 0.26092 0.19546 0.0
O263 O 0.43775 0.27933 0.17219 0.0
O264 O 0.49345 0.3445 0.22197 0.0
O265 O 0.48535 0.34141 0.19724 0.0
Co266 Co 0.68294 0.14576 0.20333 0.0
O267 O 0.66084 0.08944 0.20793 0.0
O268 O 0.71216 0.13937 0.22032 0.0
C269 C 0.62392 0.14607 0.20202 0.0
O270 O 0.71254 0.20744 0.20129 0.0
Co271 Co 0.66043 0.16537 0.17136 0.0
O272 O 0.69018 0.22133 0.17948 0.0
C273 C 0.7262 0.14646 0.17362 0.0
C274 C 0.68735 0.10058 0.21877 0.0
C275 C 0.71183 0.23252 0.19155 0.0
O276 O 0.72211 0.1439 0.18824 0.0
O277 O 0.7023 0.15136 0.16474 0.0
O278 O 0.64047 0.1479 0.21516 0.0
O279 O 0.64028 0.13809 0.1906 0.0
Co280 Co 0.83876 0.52759 0.21341 0.0
O281 O 0.89632 0.56067 0.21493 0.0
O282 O 0.85253 0.5677 0.22944 0.0
C283 C 0.8352 0.46675 0.21263 0.0
O284 O 0.77701 0.49768 0.21461 0.0
Co285 Co 0.80656 0.47908 0.18294 0.0
O286 O 0.75404 0.45784 0.19364 0.0
C287 C 0.83044 0.56512 0.18358 0.0
C288 C 0.89007 0.57992 0.22581 0.0
C289 C 0.74814 0.47121 0.20618 0.0
O290 O 0.83708 0.56597 0.198 0.0
O291 O 0.82144 0.53428 0.17516 0.0
O292 O 0.839 0.48468 0.22564 0.0
O293 O 0.83991 0.48878 0.20075 0.0
Co294 Co 0.64087 0.13193 0.94805 0.0
O295 O 0.66759 0.10185 0.94389 0.0
O296 O 0.61088 0.09077 0.93263 0.0
C297 C 0.69615 0.19424 0.94659 0.0
O298 O 0.60593 0.15868 0.95008 0.0
Co299 Co 0.66555 0.18031 0.97859 0.0
O300 O 0.62793 0.19806 0.97121 0.0
C301 C 0.60507 0.09354 0.97922 0.0
C302 C 0.63903 0.0811 0.9342 0.0
C303 C 0.60468 0.18384 0.95965 0.0
O304 O 0.60822 0.09247 0.96464 0.0
O305 O 0.62682 0.12533 0.9872 0.0
O306 O 0.67709 0.17518 0.93433 0.0
O307 O 0.68454 0.17291 0.95901 0.0
Co308 Co 0.88118 0.51669 0.94786 0.0
O309 O 0.90974 0.57288 0.94244 0.0
O310 O 0.92265 0.5267 0.93274 0.0
C311 C 0.81791 0.50601 0.94591 0.0
O312 O 0.85602 0.45543 0.95117 0.0
Co313 Co 0.83369 0.49604 0.97851 0.0
O314 O 0.81655 0.43995 0.97221 0.0
C315 C 0.9207 0.5257 0.97933 0.0
C316 C 0.93121 0.56438 0.93332 0.0
C317 C 0.83095 0.42985 0.96099 0.0
O318 O 0.92107 0.52752 0.96469 0.0
O319 O 0.88898 0.51547 0.98736 0.0
O320 O 0.83749 0.5057 0.93384 0.0
O321 O 0.83927 0.51905 0.95828 0.0
Co322 Co 0.49047 0.36727 0.95278 0.0
O323 O 0.43291 0.34279 0.95164 0.0
O324 O 0.47636 0.39804 0.93896 0.0
C325 C 0.49412 0.31053 0.9497 0.0
O326 O 0.55198 0.40008 0.95139 0.0
Co327 Co 0.52621 0.34398 0.98027 0.0
O328 O 0.57582 0.37066 0.96751 0.0
C329 C 0.50249 0.40588 0.98448 0.0
C330 C 0.43893 0.37117 0.94205 0.0
C331 C 0.5809 0.39585 0.95698 0.0
O332 O 0.49213 0.40181 0.97035 0.0
O333 O 0.51471 0.38389 0.99107 0.0
O334 O 0.49024 0.32907 0.93796 0.0
O335 O 0.49006 0.32363 0.96288 0.0
Co336 Co 0.53077 0.68563 0.78409 0.0
O337 O 0.55509 0.6524 0.78233 0.0
O338 O 0.56749 0.70304 0.76667 0.0
C339 C 0.46622 0.63567 0.7875 0.0
O340 O 0.50952 0.72554 0.78313 0.0
Co341 Co 0.49241 0.68239 0.8161 0.0
O342 O 0.47911 0.72063 0.8059 0.0
C343 C 0.58014 0.73051 0.81236 0.0
C344 C 0.57455 0.67413 0.77063 0.0
C345 C 0.49001 0.73571 0.79256 0.0
O346 O 0.57634 0.72421 0.79786 0.0
O347 O 0.55075 0.71257 0.82176 0.0
O348 O 0.48119 0.6447 0.7738 0.0
O349 O 0.49222 0.6526 0.79834 0.0
Co350 Co 0.29421 0.83123 0.77789 0.0
O351 O 0.31722 0.88816 0.77458 0.0
O352 O 0.26122 0.84087 0.76345 0.0
C353 C 0.35183 0.82881 0.77506 0.0
O354 O 0.26279 0.76945 0.77886 0.0
Co355 Co 0.32371 0.80588 0.80683 0.0
O356 O 0.28814 0.75081 0.79857 0.0
C357 C 0.26131 0.82926 0.81007 0.0
C358 C 0.28774 0.87916 0.76517 0.0
C359 C 0.26386 0.74235 0.78736 0.0
O360 O 0.2612 0.83337 0.7955 0.0
O361 O 0.28632 0.82161 0.81699 0.0
O362 O 0.33131 0.82846 0.7632 0.0
O363 O 0.3399 0.83599 0.78793 0.0
Co364 Co 0.13726 0.44525 0.78758 0.0
O365 O 0.08046 0.40855 0.78579 0.0
O366 O 0.12715 0.40879 0.77058 0.0
C367 C 0.1349 0.50292 0.79002 0.0
O368 O 0.19886 0.48027 0.78633 0.0
Co369 Co 0.16719 0.49024 0.81869 0.0
O370 O 0.21723 0.5221 0.80664 0.0
C371 C 0.15039 0.40635 0.81608 0.0
C372 C 0.08905 0.39307 0.77419 0.0
C373 C 0.22554 0.51067 0.79412 0.0
O374 O 0.14249 0.40653 0.80182 0.0
O375 O 0.15842 0.43592 0.82508 0.0
O376 O 0.13257 0.48735 0.77662 0.0
O377 O 0.13215 0.47993 0.80136 0.0
Co378 Co 0.37373 0.88651 0.05625 0.0
O379 O 0.34546 0.91581 0.05876 0.0
O380 O 0.39984 0.92767 0.07199 0.0
C381 C 0.31923 0.82356 0.05668 0.0
O382 O 0.40952 0.86056 0.05626 0.0
Co383 Co 0.356 0.83784 0.02586 0.0
O384 O 0.39076 0.81943 0.03561 0.0
C385 C 0.41508 0.92507 0.02575 0.0
C386 C 0.37165 0.93669 0.0692 0.0
C387 C 0.41203 0.83443 0.04762 0.0
O388 O 0.40947 0.92626 0.04018 0.0
O389 O 0.39495 0.89311 0.01766 0.0
O390 O 0.3351 0.84265 0.06933 0.0
O391 O 0.33304 0.84521 0.04443 0.0
Co392 Co 0.14203 0.49986 0.04791 0.0
O393 O 0.11155 0.44261 0.05156 0.0
O394 O 0.10805 0.48858 0.06595 0.0
C395 C 0.203 0.50474 0.04417 0.0
O396 O 0.17044 0.56195 0.04698 0.0
Co397 Co 0.17938 0.52572 0.01516 0.0
O398 O 0.20278 0.5804 0.02421 0.0
C399 C 0.09391 0.502 0.02022 0.0
C400 C 0.09602 0.45052 0.06329 0.0
C401 C 0.19332 0.58897 0.0371 0.0
O402 O 0.09728 0.49643 0.03451 0.0
O403 O 0.12227 0.51106 0.0105 0.0
O404 O 0.18991 0.50395 0.05792 0.0
O405 O 0.17664 0.49669 0.03352 0.0
Co406 Co 0.53369 0.65837 0.04441 0.0
O407 O 0.5911 0.68119 0.04588 0.0
O408 O 0.5465 0.63091 0.06033 0.0
C409 C 0.53336 0.71744 0.04405 0.0
O410 O 0.47178 0.62833 0.04569 0.0
Co411 Co 0.50182 0.67773 0.01452 0.0
O412 O 0.44943 0.64836 0.02542 0.0
C413 C 0.52424 0.61409 0.01418 0.0
C414 C 0.58426 0.6557 0.05681 0.0
C415 C 0.44314 0.62797 0.03769 0.0
O416 O 0.53072 0.61829 0.02866 0.0
O417 O 0.51591 0.63725 0.00626 0.0
O418 O 0.53572 0.70195 0.05694 0.0
O419 O 0.53668 0.69968 0.03203 0.0
Co420 Co 0.12743 0.65116 0.53887 0.0
O421 O 0.0972 0.67903 0.53929 0.0
O422 O 0.08837 0.63055 0.55546 0.0
C423 C 0.18934 0.70636 0.5366 0.0
O424 O 0.15443 0.61679 0.54168 0.0
Co425 Co 0.1758 0.65874 0.50893 0.0
O426 O 0.19435 0.62726 0.5211 0.0
C427 C 0.08783 0.60316 0.50982 0.0
C428 C 0.07836 0.65707 0.55106 0.0
C429 C 0.1801 0.61104 0.53406 0.0
O430 O 0.08711 0.60956 0.52424 0.0
O431 O 0.11929 0.6229 0.50146 0.0
O432 O 0.17247 0.69547 0.54996 0.0
O433 O 0.16637 0.68691 0.52523 0.0
Co434 Co 0.34756 0.48276 0.54394 0.0
O435 O 0.3267 0.42601 0.54738 0.0
O436 O 0.37661 0.47537 0.56058 0.0
C437 C 0.28791 0.4815 0.5424 0.0
O438 O 0.37621 0.54425 0.54369 0.0
Co439 Co 0.32803 0.50999 0.51298 0.0
O440 O 0.35775 0.5645 0.52247 0.0
C441 C 0.39244 0.48895 0.51418 0.0
C442 C 0.35308 0.4367 0.55829 0.0
C443 C 0.37729 0.572 0.53499 0.0
O444 O 0.38805 0.48425 0.52875 0.0
O445 O 0.36906 0.49558 0.50568 0.0
O446 O 0.30333 0.48191 0.55567 0.0
O447 O 0.30607 0.47644 0.53089 0.0
Co448 Co 0.5184 0.8709 0.54497 0.0
O449 O 0.57532 0.90293 0.5484 0.0
O450 O 0.5282 0.90447 0.56287 0.0
C451 C 0.51489 0.81096 0.54102 0.0
O452 O 0.45666 0.84111 0.54455 0.0
Co453 Co 0.49106 0.83344 0.51242 0.0
O454 O 0.43706 0.80704 0.52222 0.0
C455 C 0.51566 0.91886 0.5174 0.0
C456 C 0.5664 0.91804 0.56003 0.0
C457 C 0.42915 0.81668 0.5352 0.0
O458 O 0.5203 0.91476 0.53169 0.0
O459 O 0.50665 0.89079 0.50755 0.0
O460 O 0.5162 0.82394 0.55485 0.0
O461 O 0.52209 0.83717 0.53037 0.0
Co462 Co 0.30042 0.45707 0.28261 0.0
O463 O 0.33022 0.43042 0.2775 0.0
O464 O 0.27172 0.41635 0.26698 0.0
C465 C 0.35222 0.52166 0.28158 0.0
O466 O 0.2622 0.47971 0.28545 0.0
Co467 Co 0.32266 0.50286 0.31371 0.0
O468 O 0.2794 0.51435 0.30772 0.0
C469 C 0.26719 0.41512 0.31353 0.0
C470 C 0.30148 0.40887 0.26795 0.0
C471 C 0.25726 0.50095 0.29584 0.0
O472 O 0.27002 0.41545 0.2989 0.0
O473 O 0.28781 0.44657 0.3218 0.0
O474 O 0.33398 0.5026 0.26921 0.0
O475 O 0.34259 0.49938 0.29374 0.0
Co476 Co 0.54514 0.85061 0.28047 0.0
O477 O 0.57755 0.90818 0.27763 0.0
O478 O 0.5816 0.86236 0.26332 0.0
C479 C 0.48463 0.84758 0.28277 0.0
O480 O 0.51543 0.78863 0.28016 0.0
Co481 Co 0.49996 0.81816 0.31143 0.0
O482 O 0.4702 0.76746 0.29946 0.0
C483 C 0.58642 0.8422 0.30912 0.0
C484 C 0.59392 0.90039 0.26611 0.0
C485 C 0.48483 0.76066 0.28747 0.0
O486 O 0.58658 0.85112 0.29493 0.0
O487 O 0.55556 0.83062 0.31783 0.0
O488 O 0.50002 0.84937 0.26938 0.0
O489 O 0.50848 0.85298 0.29414 0.0
Co490 Co 0.15415 0.69037 0.27489 0.0
O491 O 0.09682 0.66527 0.27248 0.0
O492 O 0.14149 0.71718 0.25865 0.0
C493 C 0.15747 0.63302 0.27546 0.0
O494 O 0.21623 0.72291 0.27474 0.0
Co495 Co 0.18338 0.67309 0.30571 0.0
O496 O 0.23699 0.70429 0.29584 0.0
C497 C 0.15874 0.73477 0.30473 0.0
C498 C 0.10373 0.69116 0.26171 0.0
C499 C 0.24429 0.72461 0.28351 0.0
O500 O 0.15286 0.72879 0.2903 0.0
O501 O 0.1688 0.714 0.31329 0.0
O502 O 0.15579 0.64871 0.26253 0.0
O503 O 0.15168 0.64939 0.28745 0.0
H504 H 0.28329 0.11244 0.14012 0.0
H505 H 0.24452 0.05428 0.18409 0.0
H506 H 0.29546 0.11653 0.19665 0.0
H507 H 0.35093 0.18753 0.19499 0.0
H508 H 0.38761 0.24475 0.15074 0.0
H509 H 0.33668 0.18273 0.13848 0.0
C510 C 0.28613 0.11299 0.15245 0.0
C511 C 0.26033 0.07849 0.16113 0.0
C512 C 0.31462 0.14895 0.15956 0.0
C513 C 0.26418 0.08027 0.17712 0.0
C514 C 0.29311 0.11594 0.18431 0.0
C515 C 0.34736 0.18665 0.18268 0.0
C516 C 0.3731 0.22085 0.17381 0.0
C517 C 0.31828 0.15058 0.17563 0.0
C518 C 0.3683 0.21895 0.15786 0.0
C519 C 0.33932 0.1834 0.15081 0.0
H520 H 0.7954 0.16158 0.18826 0.0
H521 H 0.74053 0.13879 0.14355 0.0
H522 H 0.8041 0.15183 0.13192 0.0
H523 H 0.8753 0.17036 0.13436 0.0
H524 H 0.93018 0.19225 0.17902 0.0
H525 H 0.86668 0.17971 0.19071 0.0
C526 C 0.7971 0.15887 0.17599 0.0
C527 C 0.76304 0.14899 0.16682 0.0
C528 C 0.83398 0.16706 0.16933 0.0
C529 C 0.76614 0.14621 0.15091 0.0
C530 C 0.80259 0.15392 0.14422 0.0
C531 C 0.87365 0.17308 0.14663 0.0
C532 C 0.90764 0.18268 0.15578 0.0
C533 C 0.83681 0.16484 0.15331 0.0
C534 C 0.90458 0.18519 0.1717 0.0
C535 C 0.8682 0.17774 0.1784 0.0
H536 H 0.82602 0.62538 0.19849 0.0
H537 H 0.82942 0.58189 0.15325 0.0
H538 H 0.81978 0.63517 0.14207 0.0
H539 H 0.81059 0.69387 0.14511 0.0
H540 H 0.80761 0.73778 0.19032 0.0
H541 H 0.81604 0.68375 0.20154 0.0
C542 C 0.82513 0.62776 0.18617 0.0
C543 C 0.82874 0.59978 0.17673 0.0
C544 C 0.81896 0.65805 0.17982 0.0
C545 C 0.82691 0.60307 0.16079 0.0
C546 C 0.82117 0.6334 0.15439 0.0
C547 C 0.81117 0.69139 0.15744 0.0
C548 C 0.80829 0.71985 0.16685 0.0
C549 C 0.81688 0.66084 0.1638 0.0
C550 C 0.80962 0.71627 0.18279 0.0
C551 C 0.81472 0.68555 0.18922 0.0
H552 H 0.11079 0.2512 0.33102 0.0
H553 H 0.11594 0.32327 0.36997 0.0
H554 H 0.17915 0.37982 0.36056 0.0
H555 H 0.23207 0.40946 0.34107 0.0
H556 H 0.22674 0.33824 0.30184 0.0
H557 H 0.16495 0.28047 0.31177 0.0
C558 C 0.12548 0.27941 0.33737 0.0
C559 C 0.10834 0.28302 0.35111 0.0
C560 C 0.16216 0.31178 0.33199 0.0
C561 C 0.12826 0.31964 0.35932 0.0
C562 C 0.16456 0.35198 0.35399 0.0
C563 C 0.2179 0.38109 0.33482 0.0
C564 C 0.23418 0.37821 0.32076 0.0
C565 C 0.18183 0.34836 0.34037 0.0
C566 C 0.21495 0.3413 0.31272 0.0
C567 C 0.17943 0.30832 0.31832 0.0
H568 H 0.75138 0.84989 0.32607 0.0
H569 H 0.6797 0.78137 0.36478 0.0
H570 H 0.62118 0.78343 0.35461 0.0
H571 H 0.59117 0.80689 0.33538 0.0
H572 H 0.66253 0.87607 0.29669 0.0
H573 H 0.72053 0.87194 0.30634 0.0
C574 C 0.72275 0.83478 0.33213 0.0
C575 C 0.71989 0.81537 0.34614 0.0
C576 C 0.68939 0.83684 0.32639 0.0
C577 C 0.68272 0.7965 0.35398 0.0
C578 C 0.64929 0.79785 0.34822 0.0
C579 C 0.61947 0.82141 0.32908 0.0
C580 C 0.6225 0.8421 0.31539 0.0
C581 C 0.6525 0.81854 0.33459 0.0
C582 C 0.65933 0.86012 0.30731 0.0
C583 C 0.69249 0.85763 0.31278 0.0
H584 H 0.14905 0.89098 0.32062 0.0
H585 H 0.21809 0.89084 0.35967 0.0
H586 H 0.21506 0.82881 0.35044 0.0
H587 H 0.19225 0.77431 0.33138 0.0
H588 H 0.12261 0.77462 0.29254 0.0
H589 H 0.12596 0.8366 0.30177 0.0
C590 C 0.16395 0.87775 0.32703 0.0
C591 C 0.18404 0.89574 0.34075 0.0
C592 C 0.16143 0.84173 0.32183 0.0
C593 C 0.20254 0.87771 0.34903 0.0
C594 C 0.20065 0.84212 0.34381 0.0
C595 C 0.17736 0.78763 0.32503 0.0
C596 C 0.15712 0.76973 0.31131 0.0
C597 C 0.17984 0.82366 0.33029 0.0
C598 C 0.13843 0.78773 0.30314 0.0
C599 C 0.14046 0.8233 0.30836 0.0
H600 H 0.59111 0.76783 0.83954 0.0
H601 H 0.6547 0.77006 0.79838 0.0
H602 H 0.71508 0.83137 0.80738 0.0
H603 H 0.74864 0.88528 0.82666 0.0
H604 H 0.68251 0.88295 0.86716 0.0
H605 H 0.62386 0.82078 0.85846 0.0
C606 C 0.61828 0.78124 0.83256 0.0
C607 C 0.61845 0.7642 0.81834 0.0
C608 C 0.65216 0.81684 0.83756 0.0
C609 C 0.65383 0.78249 0.80941 0.0
C610 C 0.68823 0.81765 0.8145 0.0
C611 C 0.72129 0.8714 0.83352 0.0
C612 C 0.72007 0.88892 0.84754 0.0
C613 C 0.68749 0.8354 0.82848 0.0
C614 C 0.68443 0.87026 0.85633 0.0
C615 C 0.65085 0.83456 0.8514 0.0
H616 H 0.13125 0.81869 0.85727 0.0
H617 H 0.06782 0.81203 0.81555 0.0
H618 H 0.12419 0.81684 0.8006 0.0
H619 H 0.19213 0.82485 0.79937 0.0
H620 H 0.25564 0.83222 0.84116 0.0
H621 H 0.19865 0.8259 0.85606 0.0
C622 C 0.12936 0.81767 0.84491 0.0
C623 C 0.09514 0.81481 0.83757 0.0
C624 C 0.16221 0.82134 0.83638 0.0
C625 C 0.09366 0.81408 0.82152 0.0
C626 C 0.12602 0.81709 0.81295 0.0
C627 C 0.19378 0.82551 0.81174 0.0
C628 C 0.22838 0.82931 0.81911 0.0
C629 C 0.16068 0.82133 0.82026 0.0
C630 C 0.22957 0.82953 0.83516 0.0
C631 C 0.19688 0.82569 0.84371 0.0
H632 H 0.15309 0.24601 0.83217 0.0
H633 H 0.21309 0.31633 0.87233 0.0
H634 H 0.20765 0.37318 0.86241 0.0
H635 H 0.18389 0.40213 0.84288 0.0
H636 H 0.12373 0.33229 0.80265 0.0
H637 H 0.13099 0.27596 0.81215 0.0
C638 C 0.16549 0.27396 0.83865 0.0
C639 C 0.18341 0.27681 0.85299 0.0
C640 C 0.16174 0.30643 0.83299 0.0
C641 C 0.199 0.31319 0.86129 0.0
C642 C 0.19579 0.34571 0.85566 0.0
C643 C 0.17206 0.37451 0.83621 0.0
C644 C 0.15295 0.37139 0.82214 0.0
C645 C 0.17666 0.34243 0.84165 0.0
C646 C 0.13841 0.33552 0.81357 0.0
C647 C 0.14266 0.30331 0.81896 0.0
H648 H 0.78336 0.58193 0.65736 0.0
H649 H 0.76422 0.64112 0.69596 0.0
H650 H 0.82795 0.70294 0.69047 0.0
H651 H 0.88904 0.74005 0.67477 0.0
H652 H 0.90771 0.68072 0.63613 0.0
H653 H 0.84436 0.61875 0.6418 0.0
C654 C 0.79281 0.60843 0.66451 0.0
C655 C 0.76883 0.60686 0.67701 0.0
C656 C 0.8297 0.64365 0.66144 0.0
C657 C 0.78196 0.64145 0.68623 0.0
C658 C 0.81852 0.67678 0.68315 0.0
C659 C 0.87959 0.71339 0.66772 0.0
C660 C 0.90324 0.71496 0.65511 0.0
C661 C 0.84277 0.67809 0.67086 0.0
C662 C 0.89015 0.68031 0.64594 0.0
C663 C 0.85383 0.64492 0.64912 0.0
H664 H 0.3619 0.15285 0.69165 0.0
H665 H 0.39824 0.13177 0.64743 0.0
H666 H 0.35154 0.14915 0.63502 0.0
H667 H 0.30105 0.17089 0.63675 0.0
H668 H 0.26508 0.19219 0.68102 0.0
H669 H 0.31182 0.17491 0.69337 0.0
C670 C 0.35924 0.15146 0.6793 0.0
C671 C 0.38333 0.14072 0.67049 0.0
C672 C 0.33303 0.16228 0.67224 0.0
C673 C 0.37992 0.13976 0.65449 0.0
C674 C 0.35343 0.14994 0.64738 0.0
C675 C 0.30383 0.17237 0.6491 0.0
C676 C 0.27972 0.18304 0.65794 0.0
C677 C 0.33018 0.16167 0.65615 0.0
C678 C 0.28335 0.1842 0.67393 0.0
C679 C 0.30987 0.17407 0.68102 0.0
H680 H 0.80058 0.20808 0.66294 0.0
H681 H 0.86807 0.20623 0.70221 0.0
H682 H 0.86918 0.14711 0.69184 0.0
H683 H 0.85242 0.09716 0.67125 0.0
H684 H 0.78442 0.09953 0.6322 0.0
H685 H 0.78159 0.15696 0.64304 0.0
C686 C 0.81585 0.19501 0.6692 0.0
C687 C 0.83465 0.21186 0.68323 0.0
C688 C 0.81589 0.16084 0.6633 0.0
C689 C 0.85356 0.19397 0.69133 0.0
C690 C 0.8541 0.16011 0.68543 0.0
C691 C 0.83645 0.10982 0.66522 0.0
C692 C 0.81877 0.09407 0.6509 0.0
C693 C 0.83537 0.14331 0.67142 0.0
C694 C 0.79846 0.11112 0.6432 0.0
C695 C 0.79694 0.14409 0.64935 0.0
H696 H 0.02689 0.53725 0.52399 0.0
H697 H 0.06977 0.59064 0.47951 0.0
H698 H 0.01638 0.52982 0.46735 0.0
H699 H 0.9586 0.46134 0.46923 0.0
H700 H 0.91487 0.40742 0.51357 0.0
H701 H 0.96805 0.46848 0.52587 0.0
C702 C 0.02417 0.53583 0.51165 0.0
C703 C 0.05222 0.56853 0.50269 0.0
C704 C 0.99375 0.50045 0.50468 0.0
C705 C 0.04858 0.56593 0.48669 0.0
C706 C 0.01819 0.53108 0.47971 0.0
C707 C 0.96089 0.46264 0.48159 0.0
C708 C 0.93291 0.42969 0.49045 0.0
C709 C 0.99097 0.49801 0.48858 0.0
C710 C 0.93609 0.43228 0.50646 0.0
C711 C 0.96635 0.46727 0.51351 0.0
H712 H 0.46127 0.50222 0.52844 0.0
H713 H 0.40627 0.48369 0.48387 0.0
H714 H 0.46951 0.49683 0.4719 0.0
H715 H 0.54035 0.51414 0.47404 0.0
H716 H 0.59539 0.53234 0.51858 0.0
H717 H 0.53223 0.51954 0.53058 0.0
C718 C 0.46288 0.50047 0.51612 0.0
C719 C 0.42896 0.49174 0.50709 0.0
C720 C 0.49952 0.50877 0.50928 0.0
C721 C 0.43186 0.49021 0.49111 0.0
C722 C 0.46808 0.49798 0.48424 0.0
C723 C 0.5388 0.51595 0.48636 0.0
C724 C 0.57267 0.52448 0.49539 0.0
C725 C 0.5022 0.50771 0.49321 0.0
C726 C 0.56982 0.526 0.51136 0.0
C727 C 0.53365 0.51842 0.51824 0.0
H728 H 0.52108 0.0853 0.50872 0.0
H729 H 0.44959 0.02259 0.46909 0.0
H730 H 0.45529 0.96329 0.47548 0.0
H731 H 0.48068 0.92943 0.49222 0.0
H732 H 0.55154 0.99197 0.53194 0.0
H733 H 0.54647 0.05159 0.5254 0.0
C734 C 0.50631 0.05855 0.50155 0.0
C735 C 0.48477 0.05841 0.48849 0.0
C736 C 0.51012 0.02479 0.50515 0.0
C737 C 0.46625 0.02354 0.47925 0.0
C738 C 0.46967 0.98967 0.48284 0.0
C739 C 0.49552 0.9563 0.49933 0.0
C740 C 0.51665 0.95638 0.51249 0.0
C741 C 0.49181 0.99012 0.49569 0.0
C742 C 0.53515 0.9912 0.52173 0.0
C743 C 0.53211 0.0252 0.51804 0.0
H744 H 0.45273 0.92853 0.99893 0.0
H745 H 0.45543 0.0027 0.03674 0.0
H746 H 0.51607 0.06062 0.02622 0.0
H747 H 0.5685 0.09022 0.00633 0.0
H748 H 0.56548 0.01583 0.96856 0.0
H749 H 0.5052 0.95787 0.9792 0.0
C750 C 0.46622 0.95747 0.0048 0.0
C751 C 0.44928 0.96123 0.01856 0.0
C752 C 0.50148 0.99049 0.99883 0.0
C753 C 0.46768 0.9989 0.0261 0.0
C754 C 0.50252 0.03203 0.02013 0.0
C755 C 0.55504 0.06118 0.00055 0.0
C756 C 0.57171 0.05738 0.98672 0.0
C757 C 0.51988 0.02808 0.00658 0.0
C758 C 0.5534 0.01963 0.97925 0.0
C759 C 0.51876 0.98649 0.98527 0.0
H760 H 0.92646 0.49194 0.00598 0.0
H761 H 0.99791 0.56996 0.969 0.0
H762 H 0.05743 0.56863 0.97835 0.0
H763 H 0.08808 0.54216 0.9959 0.0
H764 H 0.01806 0.46444 0.03313 0.0
H765 H 0.95881 0.46842 0.02469 0.0
C766 C 0.95528 0.50936 0.00018 0.0
C767 C 0.95777 0.531 0.98681 0.0
C768 C 0.98932 0.50776 0.00544 0.0
C769 C 0.9952 0.553 0.9793 0.0
C770 C 0.02918 0.55205 0.98457 0.0
C771 C 0.05977 0.52571 0.00211 0.0
C772 C 0.05724 0.50237 0.01494 0.0
C773 C 0.02631 0.52874 0.99738 0.0
C774 C 0.02063 0.48223 0.0231 0.0
C775 C 0.98685 0.48467 0.01833 0.0
H776 H 0.49963 0.46951 0.97223 0.0
H777 H 0.51188 0.42173 0.01536 0.0
H778 H 0.52155 0.48295 0.02833 0.0
H779 H 0.52704 0.55027 0.02725 0.0
H780 H 0.5164 0.59744 0.98366 0.0
H781 H 0.50623 0.53619 0.97105 0.0
C782 C 0.50396 0.47207 0.98451 0.0
C783 C 0.50465 0.44079 0.99281 0.0
C784 C 0.51039 0.50752 0.99178 0.0
C785 C 0.51096 0.4452 0.00868 0.0
C786 C 0.51671 0.48029 0.01609 0.0
C787 C 0.52293 0.54739 0.01497 0.0
C788 C 0.52252 0.57861 0.00646 0.0
C789 C 0.5168 0.5118 0.00772 0.0
C790 C 0.5169 0.57408 0.99055 0.0
C791 C 0.51087 0.53892 0.9833 0.0
H792 H 0.30441 0.00485 0.11806 0.0
H793 H 0.26098 0.03589 0.07775 0.0
H794 H 0.30419 0.02019 0.06174 0.0
H795 H 0.3427 0.98426 0.05927 0.0
H796 H 0.38571 0.95281 0.09963 0.0
H797 H 0.35523 0.98314 0.1157 0.0
C798 C 0.30548 0.00938 0.10579 0.0
C799 C 0.27929 0.02082 0.09898 0.0
C800 C 0.32994 -0.00018 0.09674 0.0
C801 C 0.28098 0.02711 0.08317 0.0
C802 C 0.30537 0.01775 0.07404 0.0
C803 C 0.34645 0.98525 0.07158 0.0
C804 C 0.36566 0.96577 0.07834 0.0
C805 C 0.32828 0.00209 0.08068 0.0
C806 C 0.37096 0.96759 0.09422 0.0
C807 C 0.35315 0.98453 0.10339 0.0
H808 H 0.04189 0.37394 0.05502 0.0
H809 H 0.08893 0.45214 0.0943 0.0
H810 H 0.05489 0.39324 0.11126 0.0
H811 H 0.02065 0.31901 0.11455 0.0
H812 H 0.97239 0.24102 0.07525 0.0
H813 H 0.99738 0.3004 0.05859 0.0
C814 C 0.04391 0.37811 0.06731 0.0
C815 C 0.0683 0.41714 0.07345 0.0
C816 C 0.02435 0.34416 0.07692 0.0
C817 C 0.07032 0.42237 0.08935 0.0
C818 C 0.05113 0.38866 0.09902 0.0
C819 C 0.01481 0.31508 0.10237 0.0
C820 C 0.99524 0.27578 0.09607 0.0
C821 C 0.02939 0.34934 0.0929 0.0
C822 C 0.98736 0.27095 0.08033 0.0
C823 C 0.00195 0.30491 0.07081 0.0
H824 H 0.5869 0.64345 0.08718 0.0
H825 H 0.65926 0.67775 0.04624 0.0
H826 H 0.72089 0.70239 0.0614 0.0
H827 H 0.75472 0.72631 0.08631 0.0
H828 H 0.68212 0.69791 0.12708 0.0
H829 H 0.6205 0.65846 0.11219 0.0
C830 C 0.61605 0.65502 0.08162 0.0
C831 C 0.6187 0.65913 0.06568 0.0
C832 C 0.65156 0.67096 0.09045 0.0
C833 C 0.65664 0.6746 0.05855 0.0
C834 C 0.69192 0.68893 0.06721 0.0
C835 C 0.72547 0.71041 0.09193 0.0
C836 C 0.72278 0.7153 0.10768 0.0
C837 C 0.68993 0.68916 0.08318 0.0
C838 C 0.68476 0.69488 0.11488 0.0
C839 C 0.64949 0.6724 0.10638 0.0
H840 H 0.96662 0.33305 0.44995 0.0
H841 H 0.93385 0.37511 0.40965 0.0
H842 H 0.97508 0.3563 0.39391 0.0
H843 H 0.0085 0.31556 0.39134 0.0
H844 H 0.04059 0.27275 0.43158 0.0
H845 H 0.0126 0.3053 0.44778 0.0
C846 C 0.96938 0.33899 0.43776 0.0
C847 C 0.94665 0.35451 0.43085 0.0
C848 C 0.99276 0.32776 0.42884 0.0
C849 C 0.95093 0.36292 0.41515 0.0
C850 C 0.97426 0.35193 0.40617 0.0
C851 C 0.01051 0.31454 0.40368 0.0
C852 C 0.02582 0.29133 0.41033 0.0
C853 C 0.9936 0.33252 0.41282 0.0
C854 C 0.02888 0.29048 0.42626 0.0
C855 C 0.01243 0.30866 0.43549 0.0
H856 H 0.67737 0.65947 0.45277 0.0
H857 H 0.62853 0.57683 0.41474 0.0
H858 H 0.64825 0.63386 0.39731 0.0
H859 H 0.69113 0.70696 0.39255 0.0
H860 H 0.74013 0.7898 0.43043 0.0
H861 H 0.70769 0.73299 0.44839 0.0
C862 C 0.67019 0.65397 0.44071 0.0
C863 C 0.65239 0.61421 0.43494 0.0
C864 C 0.68187 0.68691 0.43077 0.0
C865 C 0.64247 0.60723 0.41939 0.0
C866 C 0.65397 0.63984 0.40942 0.0
C867 C 0.69346 0.71257 0.40476 0.0
C868 C 0.71823 0.75218 0.41025 0.0
C869 C 0.67538 0.67979 0.41491 0.0
C870 C 0.72102 0.75947 0.42601 0.0
C871 C 0.70291 0.72695 0.43625 0.0
H872 H 0.40621 0.05735 0.41764 0.0
H873 H 0.34027 0.05708 0.45776 0.0
H874 H 0.27627 0.0124 0.44511 0.0
H875 H 0.23894 0.98259 0.42131 0.0
H876 H 0.30478 0.98768 0.38061 0.0
H877 H 0.36847 0.01985 0.39482 0.0
C878 C 0.37785 0.04694 0.42368 0.0
C879 C 0.378 0.06119 0.43848 0.0
C880 C 0.34094 0.02188 0.4162 0.0
C881 C 0.341 0.04719 0.44623 0.0
C882 C 0.3043 0.02149 0.43902 0.0
C883 C 0.2671 0.98932 0.41576 0.0
C884 C 0.26743 0.98273 0.40003 0.0
C885 C 0.30382 0.00983 0.42383 0.0
C886 C 0.30405 0.99238 0.39279 0.0
C887 C 0.34047 0.01117 0.40086 0.0
H888 H 0.69576 0.003 0.88509 0.0
H889 H 0.72865 0.96144 0.92551 0.0
H890 H 0.69091 0.98425 0.94135 0.0
H891 H 0.65968 0.02701 0.94384 0.0
H892 H 0.62637 0.06842 0.90355 0.0
H893 H 0.65226 0.03374 0.88738 0.0
C894 C 0.69385 0.99815 0.89734 0.0
C895 C 0.71558 0.98141 0.90421 0.0
C896 C 0.67225 0.01148 0.90633 0.0
C897 C 0.71235 0.97449 0.92001 0.0
C898 C 0.69099 0.98775 0.92906 0.0
C899 C 0.65694 0.02727 0.93151 0.0
C900 C 0.64169 0.05047 0.92481 0.0
C901 C 0.67241 0.00786 0.92239 0.0
C902 C 0.63789 0.05055 0.90889 0.0
C903 C 0.65314 0.03116 0.89968 0.0
H904 H 0.98748 0.63948 0.94202 0.0
H905 H 0.94141 0.56148 0.90269 0.0
H906 H 0.9768 0.62024 0.88576 0.0
H907 H 0.00958 0.69443 0.88256 0.0
H908 H 0.05703 0.77234 0.92188 0.0
H909 H 0.03318 0.71298 0.93851 0.0
C910 C 0.98638 0.63535 0.92973 0.0
C911 C 0.96169 0.59653 0.92352 0.0
C912 C 0.00661 0.66925 0.92014 0.0
C913 C 0.96044 0.59116 0.90765 0.0
C914 C 0.98032 0.62479 0.898 0.0
C915 C 0.01578 0.69831 0.89473 0.0
C916 C 0.03447 0.73746 0.90109 0.0
C917 C 0.00184 0.66408 0.90415 0.0
C918 C 0.04276 0.74243 0.91678 0.0
C919 C 0.02877 0.70849 0.92628 0.0
H920 H 0.3635 0.34377 0.95287 0.0
H921 H 0.43673 0.39107 0.91237 0.0
H922 H 0.37562 0.36433 0.89668 0.0
H923 H 0.30301 0.31452 0.89428 0.0
H924 H 0.22974 0.26662 0.93472 0.0
H925 H 0.28915 0.30723 0.95078 0.0
C926 C 0.36594 0.34938 0.94066 0.0
C927 C 0.40428 0.36848 0.93368 0.0
C928 C 0.33076 0.33324 0.93175 0.0
C929 C 0.40742 0.37627 0.91794 0.0
C930 C 0.37251 0.3606 0.90896 0.0
C931 C 0.29996 0.31406 0.90661 0.0
C932 C 0.26259 0.28723 0.91341 0.0
C933 C 0.33423 0.33703 0.91568 0.0
C934 C 0.25842 0.28705 0.92932 0.0
C935 C 0.29242 0.30997 0.93847 0.0
H936 H 0.98618 0.73959 0.57902 0.0
H937 H 0.02773 0.71136 0.62053 0.0
H938 H 0.04956 0.67062 0.60625 0.0
H939 H 0.06578 0.65118 0.58164 0.0
H940 H 0.03035 0.68484 0.5399 0.0
H941 H 0.9966 0.71433 0.55444 0.0
C942 C 0.99923 0.72378 0.58492 0.0
C943 C 0.00572 0.72875 0.60074 0.0
C944 C 0.01311 0.7015 0.57655 0.0
C945 C 0.02289 0.70835 0.60829 0.0
C946 C 0.03539 0.68503 0.60015 0.0
C947 C 0.04965 0.66394 0.57577 0.0
C948 C 0.05056 0.66597 0.55977 0.0
C949 C 0.03195 0.68253 0.58421 0.0
C950 C 0.03012 0.68312 0.55226 0.0
C951 C 0.011 0.70018 0.56056 0.0
H952 H 0.31925 0.31825 0.6123 0.0
H953 H 0.2711 0.23124 0.57563 0.0
H954 H 0.30125 0.28611 0.55688 0.0
H955 H 0.32871 0.35863 0.55138 0.0
H956 H 0.37647 0.44559 0.5881 0.0
H957 H 0.3597 0.39097 0.60642 0.0
C958 C 0.31649 0.31132 0.60019 0.0
C959 C 0.29241 0.27101 0.59529 0.0
C960 C 0.33319 0.34302 0.58954 0.0
C961 C 0.28943 0.26212 0.57964 0.0
C962 C 0.30628 0.29352 0.56893 0.0
C963 C 0.33629 0.36563 0.56335 0.0
C964 C 0.35282 0.4058 0.5685 0.0
C965 C 0.32624 0.33408 0.57379 0.0
C966 C 0.36339 0.41479 0.58393 0.0
C967 C 0.35358 0.38356 0.59441 0.0
H968 H 0.69961 0.99518 0.60964 0.0
H969 H 0.77399 0.04713 0.56969 0.0
H970 H 0.71321 0.02336 0.55391 0.0
H971 H 0.64003 0.97655 0.55106 0.0
H972 H 0.56568 0.92439 0.591 0.0
H973 H 0.6254 0.9602 0.6074 0.0
C974 C 0.70239 0.00213 0.59753 0.0
C975 C 0.74088 0.02195 0.59068 0.0
C976 C 0.66746 0.98797 0.5886 0.0
C977 C 0.74451 0.03166 0.57511 0.0
C978 C 0.70982 0.01779 0.56611 0.0
C979 C 0.63688 0.97395 0.56339 0.0
C980 C 0.59899 0.9474 0.5699 0.0
C981 C 0.67128 0.99419 0.57264 0.0
C982 C 0.59474 0.9446 0.58582 0.0
C983 C 0.62888 0.96478 0.59515 0.0
H984 H 0.67351 0.59406 0.74737 0.0
H985 H 0.62165 0.60163 0.7046 0.0
H986 H 0.59629 0.64243 0.71656 0.0
H987 H 0.58128 0.66867 0.73993 0.0
H988 H 0.62834 0.65613 0.78302 0.0
H989 H 0.66376 0.62569 0.77027 0.0
C990 C 0.65726 0.60524 0.74065 0.0
C991 C 0.64907 0.59441 0.72519 0.0
C992 C 0.64175 0.62787 0.7477 0.0
C993 C 0.62792 0.60909 0.71659 0.0
C994 C 0.6134 0.63251 0.72341 0.0
C995 C 0.60025 0.66027 0.7464 0.0
C996 C 0.60236 0.66457 0.76233 0.0
C997 C 0.61907 0.64109 0.73906 0.0
C998 C 0.62635 0.65296 0.77071 0.0
C999 C 0.6464 0.63536 0.76344 0.0
H1000 H 0.33815 0.00585 0.71369 0.0
H1001 H 0.38284 0.08671 0.75232 0.0
H1002 H 0.34499 0.02958 0.76968 0.0
H1003 H 0.31188 0.95584 0.77373 0.0
H1004 H 0.26754 0.87491 0.73514 0.0
H1005 H 0.29158 0.93288 0.71781 0.0
C1006 C 0.33855 0.01102 0.7259 0.0
C1007 C 0.3638 0.05011 0.73181 0.0
C1008 C 0.31714 0.978 0.73576 0.0
C1009 C 0.36372 0.0568 0.74756 0.0
C1010 C 0.34237 0.02409 0.75747 0.0
C1011 C 0.30628 0.95096 0.76155 0.0
C1012 C 0.2887 0.91143 0.75562 0.0
C1013 C 0.32083 0.9844 0.75171 0.0
C1014 C 0.28105 0.90516 0.73991 0.0
C1015 C 0.29522 0.93831 0.73001 0.0
H1016 H 0.95805 0.31308 0.72406 0.0
H1017 H 0.88044 0.27639 0.76365 0.0
H1018 H 0.93941 0.29833 0.7803 0.0
H1019 H 0.01318 0.34007 0.78344 0.0
H1020 H 0.09072 0.37832 0.74378 0.0
H1021 H 0.03152 0.34262 0.7272 0.0
C1022 C 0.95405 0.309 0.73632 0.0
C1023 C 0.91534 0.2941 0.74273 0.0
C1024 C 0.98802 0.32226 0.74574 0.0
C1025 C 0.9101 0.28806 0.75854 0.0
C1026 C 0.94381 0.30088 0.76804 0.0
C1027 C 0.01712 0.33966 0.77118 0.0
C1028 C 0.05597 0.36246 0.76475 0.0
C1029 C 0.98298 0.31988 0.76176 0.0
C1030 C 0.06101 0.36116 0.74893 0.0
C1031 C 0.02716 0.34107 0.73946 0.0
H1032 H 0.34626 0.32474 0.21657 0.0
H1033 H 0.38989 0.28816 0.25539 0.0
H1034 H 0.35786 0.3144 0.27269 0.0
H1035 H 0.32807 0.35828 0.27645 0.0
H1036 H 0.28312 0.39365 0.23772 0.0
H1037 H 0.30453 0.35684 0.2206 0.0
C1038 C 0.34776 0.32156 0.22883 0.0
C1039 C 0.37085 0.30518 0.23476 0.0
C1040 C 0.32954 0.33696 0.23865 0.0
C1041 C 0.37227 0.30067 0.2506 0.0
C1042 C 0.3543 0.31603 0.26048 0.0
C1043 C 0.3221 0.35699 0.26429 0.0
C1044 C 0.30469 0.379 0.25824 0.0
C1045 C 0.33448 0.33584 0.2546 0.0
C1046 C 0.29651 0.37687 0.24256 0.0
C1047 C 0.30903 0.35611 0.23279 0.0
H1048 H 0.6414 0.9799 0.27313 0.0
H1049 H 0.60743 0.89496 0.23586 0.0
H1050 H 0.63968 0.95109 0.21771 0.0
H1051 H 0.66707 0.02355 0.21228 0.0
H1052 H 0.70192 0.10876 0.24944 0.0
H1053 H 0.68055 0.05335 0.26789 0.0
C1054 C 0.64189 0.97374 0.26106 0.0
C1055 C 0.62146 0.93342 0.25578 0.0
C1056 C 0.66033 0.00617 0.25071 0.0
C1057 C 0.62282 0.92573 0.24018 0.0
C1058 C 0.64101 0.95783 0.22979 0.0
C1059 C 0.67095 0.03004 0.22443 0.0
C1060 C 0.68546 0.06995 0.22956 0.0
C1061 C 0.65831 0.99805 0.23489 0.0
C1062 C 0.69086 0.07823 0.24527 0.0
C1063 C 0.67827 0.04651 0.25579 0.0
H1064 H 0.96439 0.63085 0.21456 0.0
H1065 H 0.89379 0.59964 0.25596 0.0
H1066 H 0.95565 0.63915 0.27092 0.0
H1067 H 0.02984 0.67086 0.27238 0.0
H1068 H 0.10049 0.70166 0.23103 0.0
H1069 H 0.0385 0.67486 0.21576 0.0
C1070 C 0.96254 0.6336 0.22683 0.0
C1071 C 0.92487 0.61181 0.23424 0.0
C1072 C 0.99819 0.65595 0.23531 0.0
C1073 C 0.92254 0.61605 0.25006 0.0
C1074 C 0.95791 0.63836 0.2586 0.0
C1075 C 0.03164 0.67277 0.26001 0.0
C1076 C 0.06937 0.68749 0.25276 0.0
C1077 C 0.99593 0.65673 0.25139 0.0
C1078 C 0.07169 0.69042 0.2368 0.0
C1079 C 0.03624 0.6747 0.2281 0.0
H1080 H 0.05664 0.14764 0.14359 0.0
H1081 H 0.0831 0.1697 0.09554 0.0
H1082 H 0.11528 0.12784 0.09585 0.0
H1083 H 0.13163 0.08077 0.10959 0.0
H1084 H 0.09945 0.05601 0.15728 0.0
H1085 H 0.07332 0.10237 0.15718 0.0
C1086 C 0.06972 0.14364 0.13321 0.0
C1087 C 0.06731 0.16158 0.11958 0.0
C1088 C 0.08666 0.11838 0.13333 0.0
C1089 C 0.08452 0.15608 0.10621 0.0
C1090 C 0.10273 0.13198 0.10636 0.0
C1091 C 0.11902 0.0857 0.11993 0.0
C1092 C 0.11721 0.06454 0.13334 0.0
C1093 C 0.10324 0.11223 0.1198 0.0
C1094 C 0.10074 0.07131 0.14669 0.0
C1095 C 0.08595 0.09809 0.14671 0.0
H1096 H 0.90337 0.04314 0.14782 0.0
H1097 H 0.93036 0.0583 0.09967 0.0
H1098 H 0.88831 0.98458 0.09594 0.0
H1099 H 0.84941 0.91555 0.10711 0.0
H1100 H 0.82466 0.9026 0.15555 0.0
H1101 H 0.86034 0.976 0.15845 0.0
C1102 C 0.89978 0.03034 0.13646 0.0
C1103 C 0.92027 0.05583 0.12405 0.0
C1104 C 0.87624 0.98841 0.13452 0.0
C1105 C 0.91481 0.03914 0.10937 0.0
C1106 C 0.89104 0.99706 0.10729 0.0
C1107 C 0.85141 0.92886 0.11826 0.0
C1108 C 0.83478 0.90366 0.13115 0.0
C1109 C 0.87243 0.97132 0.11987 0.0
C1110 C 0.83747 0.92128 0.14549 0.0
C1111 C 0.85788 0.96325 0.14716 0.0
H1112 H 0.94183 0.86605 0.11296 0.0
H1113 H 0.95022 0.84807 0.16116 0.0
H1114 H 0.02274 0.8744 0.15885 0.0
H1115 H 0.08477 0.90974 0.14393 0.0
H1116 H 0.07844 0.93141 0.09595 0.0
H1117 H 0.00451 0.89607 0.09729 0.0
C1118 C 0.95957 0.86728 0.12284 0.0
C1119 C 0.94096 0.85574 0.13723 0.0
C1120 C 0.00173 0.88347 0.12151 0.0
C1121 C 0.96413 0.85747 0.14999 0.0
C1122 C 0.00558 0.87247 0.1487 0.0
C1123 C 0.06722 0.90621 0.13372 0.0
C1124 C 0.08703 0.9236 0.11995 0.0
C1125 C 0.0249 0.88674 0.13464 0.0
C1126 C 0.06386 0.91847 0.10676 0.0
C1127 C 0.02156 0.89841 0.10752 0.0
H1128 H 0.09716 0.13446 0.35728 0.0
H1129 H 0.07736 0.13067 0.40588 0.0
H1130 H 0.11558 0.09487 0.40938 0.0
H1131 H 0.1493 0.05971 0.3981 0.0
H1132 H 0.16709 0.06342 0.34928 0.0
H1133 H 0.13487 0.10454 0.34636 0.0
C1134 C 0.1014 0.12601 0.36868 0.0
C1135 C 0.08407 0.13453 0.3813 0.0
C1136 C 0.12278 0.10533 0.3705 0.0
C1137 C 0.09047 0.12431 0.39602 0.0
C1138 C 0.11205 0.10368 0.39798 0.0
C1139 C 0.14649 0.0699 0.38684 0.0
C1140 C 0.16018 0.05823 0.37388 0.0
C1141 C 0.12754 0.09326 0.38524 0.0
C1142 C 0.15654 0.07176 0.35939 0.0
C1143 C 0.1381 0.09522 0.35772 0.0
H1144 H 0.93861 0.10195 0.36193 0.0
H1145 H 0.93216 0.09838 0.41112 0.0
H1146 H 0.8913 0.02456 0.41054 0.0
H1147 H 0.86322 0.96037 0.39606 0.0
H1148 H 0.87237 0.96508 0.34689 0.0
H1149 H 0.9058 0.03865 0.34747 0.0
C1150 C 0.92778 0.08506 0.3725 0.0
C1151 C 0.93876 0.10555 0.38651 0.0
C1152 C 0.90495 0.04259 0.37211 0.0
C1153 C 0.92436 0.08325 0.40014 0.0
C1154 C 0.90104 0.04099 0.39984 0.0
C1155 C 0.87196 0.97756 0.3855 0.0
C1156 C 0.86588 0.95736 0.3715 0.0
C1157 C 0.89201 0.02021 0.3859 0.0
C1158 C 0.87737 0.97999 0.35787 0.0
C1159 C 0.89646 0.02211 0.35816 0.0
H1160 H 0.04979 0.92489 0.39281 0.0
H1161 H 0.03951 0.88333 0.34636 0.0
H1162 H 0.96595 0.84512 0.34853 0.0
H1163 H 0.90437 0.82991 0.36255 0.0
H1164 H 0.91373 0.87241 0.40884 0.0
H1165 H 0.98731 0.90361 0.40785 0.0
C1166 C 0.03135 0.90658 0.38336 0.0
C1167 C 0.04981 0.90697 0.36945 0.0
C1168 C 0.98879 0.88542 0.38454 0.0
C1169 C 0.02573 0.88357 0.35717 0.0
C1170 C 0.9837 0.86187 0.35836 0.0
C1171 C 0.92251 0.8456 0.37246 0.0
C1172 C 0.90368 0.84922 0.38564 0.0
C1173 C 0.96484 0.86367 0.3718 0.0
C1174 C 0.92753 0.86938 0.39848 0.0
C1175 C 0.96967 0.88729 0.39794 0.0
H1176 H 0.93129 0.96558 0.88587 0.0
H1177 H 0.81388 0.86149 0.87775 0.0
H1178 H 0.84313 0.81692 0.87878 0.0
H1179 H 0.90401 0.80901 0.87934 0.0
H1180 H 0.01992 0.91279 0.88987 0.0
H1181 H 0.98981 0.9563 0.89042 0.0
C1182 C 0.91206 0.93298 0.88481 0.0
C1183 C 0.87066 0.91657 0.88185 0.0
C1184 C 0.92907 0.90777 0.88544 0.0
C1185 C 0.8458 0.87447 0.88031 0.0
C1186 C 0.86261 0.84914 0.88068 0.0
C1187 C 0.92239 0.84112 0.8818 0.0
C1188 C 0.96421 0.85819 0.88403 0.0
C1189 C 0.90446 0.86563 0.88276 0.0
C1190 C 0.98782 0.89945 0.88767 0.0
C1191 C 0.97058 0.92423 0.88812 0.0
H1192 H 0.0996 0.95269 0.89528 0.0
H1193 H 0.11724 0.96563 0.84652 0.0
H1194 H 0.15709 0.03908 0.84911 0.0
H1195 H 0.17942 0.09968 0.86475 0.0
H1196 H 0.15947 0.08783 0.91342 0.0
H1197 H 0.12843 0.01426 0.9114 0.0
C1198 C 0.11312 0.97166 0.88532 0.0
C1199 C 0.1054 0.95399 0.87075 0.0
C1200 C 0.13503 0.01413 0.88684 0.0
C1201 C 0.12263 0.97876 0.85786 0.0
C1202 C 0.14528 0.02073 0.85931 0.0
C1203 C 0.16881 0.08105 0.87494 0.0
C1204 C 0.17127 0.0991 0.88916 0.0
C1205 C 0.15044 0.0388 0.87367 0.0
C1206 C 0.15766 0.07461 0.90229 0.0
C1207 C 0.13982 0.03249 0.90116 0.0
H1208 H 0.03853 0.12273 0.85958 0.0
H1209 H 0.05782 0.12842 0.90824 0.0
H1210 H 0.98448 0.0969 0.91253 0.0
H1211 H 0.91477 0.06348 0.90211 0.0
H1212 H 0.89751 0.05962 0.85326 0.0
H1213 H 0.97049 0.0952 0.84937 0.0
C1214 C 0.0267 0.11711 0.87115 0.0
C1215 C 0.05326 0.12712 0.88358 0.0
C1216 C 0.985 0.09943 0.87346 0.0
C1217 C 0.03777 0.12069 0.8985 0.0
C1218 C 0.99594 0.10264 0.90093 0.0
C1219 C 0.92705 0.07099 0.89064 0.0
C1220 C 0.90078 0.05855 0.87797 0.0
C1221 C 0.96922 0.09132 0.88846 0.0
C1222 C 0.91706 0.06857 0.86318 0.0
C1223 C 0.95879 0.08881 0.86094 0.0
H1224 H 0.82951 0.92062 0.63256 0.0
H1225 H 0.88715 0.96935 0.58926 0.0
H1226 H 0.92235 0.93043 0.59071 0.0
H1227 H 0.94195 0.88765 0.6058 0.0
H1228 H 0.88365 0.83994 0.64911 0.0
H1229 H 0.84277 0.87229 0.646 0.0
C1230 C 0.84945 0.92232 0.62338 0.0
C1231 C 0.85614 0.948 0.61094 0.0
C1232 C 0.86935 0.89984 0.62427 0.0
C1233 C 0.88161 0.9497 0.59899 0.0
C1234 C 0.90181 0.92754 0.59983 0.0
C1235 C 0.91947 0.88356 0.61428 0.0
C1236 C 0.9158 0.86175 0.62768 0.0
C1237 C 0.89657 0.9031 0.61258 0.0
C1238 C 0.887 0.85689 0.63874 0.0
C1239 C 0.86379 0.87552 0.63702 0.0
H1240 H 0.11804 0.04641 0.64998 0.0
H1241 H 0.14093 0.07094 0.60181 0.0
H1242 H 0.11159 0.99818 0.59679 0.0
H1243 H 0.07768 0.92755 0.60622 0.0
H1244 H 0.05748 0.90477 0.65463 0.0
H1245 H 0.08798 0.97721 0.65944 0.0
C1246 C 0.11643 0.0359 0.63835 0.0
C1247 C 0.13106 0.06392 0.62625 0.0
C1248 C 0.10026 0.99443 0.63562 0.0
C1249 C 0.12965 0.0499 0.6113 0.0
C1250 C 0.11292 0.00836 0.60844 0.0
C1251 C 0.08031 0.9385 0.61783 0.0
C1252 C 0.06507 0.91077 0.63005 0.0
C1253 C 0.09797 0.98034 0.62053 0.0
C1254 C 0.06882 0.9254 0.64502 0.0
C1255 C 0.08614 0.96683 0.64779 0.0
H1256 H 0.09751 0.17162 0.59889 0.0
H1257 H 0.11458 0.1979 0.64718 0.0
H1258 H 0.04149 0.16328 0.65091 0.0
H1259 H 0.97363 0.11781 0.64115 0.0
H1260 H 0.95517 0.08981 0.59312 0.0
H1261 H 0.02811 0.13337 0.58849 0.0
C1262 C 0.0852 0.17047 0.61017 0.0
C1263 C 0.11132 0.18657 0.62281 0.0
C1264 C 0.04306 0.14987 0.61228 0.0
C1265 C 0.09505 0.18521 0.63732 0.0
C1266 C 0.05329 0.16534 0.63948 0.0
C1267 C 0.9856 0.12175 0.62963 0.0
C1268 C 0.95958 0.10031 0.61751 0.0
C1269 C 0.02716 0.14628 0.62716 0.0
C1270 C 0.97493 0.10606 0.6026 0.0
C1271 C 0.01653 0.13071 0.59999 0.0
H1272 H 0.73366 0.49473 0.43731 0.0
H1273 H 0.7457 0.52435 0.48535 0.0
H1274 H 0.77791 0.48382 0.48964 0.0
H1275 H 0.79659 0.43511 0.48037 0.0
H1276 H 0.7865 0.40519 0.43252 0.0
H1277 H 0.75965 0.45091 0.42745 0.0
C1278 C 0.74405 0.4929 0.44865 0.0
C1279 C 0.73684 0.51209 0.46104 0.0
C1280 C 0.7623 0.46911 0.45109 0.0
C1281 C 0.75054 0.50956 0.47566 0.0
C1282 C 0.76883 0.48628 0.47814 0.0
C1283 C 0.78862 0.43873 0.46881 0.0
C1284 C 0.79262 0.4164 0.45687 0.0
C1285 C 0.77373 0.46504 0.46605 0.0
C1286 C 0.7833 0.42199 0.44189 0.0
C1287 C 0.76794 0.44801 0.43902 0.0
H1288 H 0.51045 0.26499 0.4408 0.0
H1289 H 0.49938 0.23973 0.4892 0.0
H1290 H 0.54091 0.31165 0.49472 0.0
H1291 H 0.58331 0.38082 0.48601 0.0
H1292 H 0.59472 0.40857 0.4379 0.0
H1293 H 0.5499 0.33643 0.43202 0.0
C1294 C 0.51668 0.27537 0.45254 0.0
C1295 C 0.50213 0.24705 0.46458 0.0
C1296 C 0.54092 0.31702 0.45568 0.0
C1297 C 0.51043 0.26086 0.47973 0.0
C1298 C 0.53427 0.30198 0.48292 0.0
C1299 C 0.57613 0.37115 0.47421 0.0
C1300 C 0.5928 0.39976 0.46238 0.0
C1301 C 0.55029 0.33014 0.47099 0.0
C1302 C 0.58239 0.38695 0.44719 0.0
C1303 C 0.55683 0.34579 0.44384 0.0
H1304 H 0.74067 0.27983 0.43301 0.0
H1305 H 0.76522 0.2437 0.47659 0.0
H1306 H 0.6929 0.20314 0.48173 0.0
H1307 H 0.62394 0.18576 0.47555 0.0
H1308 H 0.59732 0.2234 0.43283 0.0
H1309 H 0.66914 0.25518 0.42543 0.0
C1310 C 0.73001 0.2623 0.44345 0.0
C1311 C 0.75808 0.26494 0.4545 0.0
C1312 C 0.68818 0.23981 0.44652 0.0
C1313 C 0.74409 0.24237 0.46802 0.0
C1314 C 0.7028 0.21926 0.47097 0.0
C1315 C 0.63383 0.20036 0.46449 0.0
C1316 C 0.60588 0.20282 0.45479 0.0
C1317 C 0.67478 0.21899 0.46057 0.0
C1318 C 0.61856 0.22122 0.44043 0.0
C1319 C 0.65957 0.23959 0.43629 0.0
H1320 H 0.77805 0.46808 0.68959 0.0
H1321 H 0.71745 0.44506 0.73306 0.0
H1322 H 0.75197 0.40851 0.74163 0.0
H1323 H 0.79214 0.37531 0.7351 0.0
H1324 H 0.84837 0.39628 0.69068 0.0
H1325 H 0.8229 0.44161 0.68411 0.0
C1326 C 0.77288 0.45558 0.70105 0.0
C1327 C 0.74496 0.45864 0.71063 0.0
C1328 C 0.79168 0.43385 0.70561 0.0
C1329 C 0.73892 0.44303 0.72551 0.0
C1330 C 0.75833 0.42184 0.73033 0.0
C1331 C 0.79933 0.39042 0.72411 0.0
C1332 C 0.82168 0.38216 0.7133 0.0
C1333 C 0.78367 0.41583 0.72024 0.0
C1334 C 0.83081 0.40181 0.69909 0.0
C1335 C 0.8163 0.42774 0.69534 0.0
H1336 H 0.55286 0.27665 0.68008 0.0
H1337 H 0.51346 0.25151 0.72702 0.0
H1338 H 0.54261 0.32437 0.7318 0.0
H1339 H 0.58028 0.3953 0.7225 0.0
H1340 H 0.61656 0.41811 0.67515 0.0
H1341 H 0.58733 0.34577 0.67068 0.0
C1342 C 0.5508 0.28694 0.69143 0.0
C1343 C 0.53143 0.25867 0.70324 0.0
C1344 C 0.56685 0.32844 0.69398 0.0
C1345 C 0.52838 0.27266 0.71776 0.0
C1346 C 0.54499 0.31427 0.72048 0.0
C1347 C 0.58143 0.38435 0.71118 0.0
C1348 C 0.60075 0.41211 0.69918 0.0
C1349 C 0.56432 0.34246 0.70865 0.0
C1350 C 0.60199 0.3975 0.68458 0.0
C1351 C 0.58538 0.3561 0.68202 0.0
H1352 H 0.68871 0.20887 0.68892 0.0
H1353 H 0.70609 0.24124 0.7366 0.0
H1354 H 0.63297 0.19808 0.74111 0.0
H1355 H 0.56372 0.15676 0.73068 0.0
H1356 H 0.5482 0.12525 0.68281 0.0
H1357 H 0.62134 0.16203 0.67921 0.0
C1358 C 0.67648 0.2063 0.70033 0.0
C1359 C 0.7023 0.22866 0.71237 0.0
C1360 C 0.63491 0.1816 0.70276 0.0
C1361 C 0.68651 0.2244 0.72716 0.0
C1362 C 0.64482 0.19987 0.7297 0.0
C1363 C 0.57642 0.15729 0.71953 0.0
C1364 C 0.55062 0.1388 0.70696 0.0
C1365 C 0.61863 0.17905 0.71749 0.0
C1366 C 0.56742 0.13958 0.69261 0.0
C1367 C 0.60922 0.16073 0.69053 0.0
H1368 H 0.59348 0.17456 0.2239 0.0
H1369 H 0.58977 0.15117 0.17549 0.0
H1370 H 0.55007 0.18442 0.17133 0.0
H1371 H 0.52186 0.22514 0.18099 0.0
H1372 H 0.52462 0.24932 0.2292 0.0
H1373 H 0.55895 0.21025 0.23397 0.0
C1374 C 0.58349 0.17626 0.21247 0.0
C1375 C 0.59501 0.16087 0.19998 0.0
C1376 C 0.56084 0.19577 0.21013 0.0
C1377 C 0.58164 0.16306 0.18527 0.0
C1378 C 0.559 0.18215 0.18287 0.0
C1379 C 0.52978 0.22168 0.19257 0.0
C1380 C 0.52142 0.24057 0.20471 0.0
C1381 C 0.54939 0.19946 0.19515 0.0
C1382 C 0.53092 0.23512 0.21969 0.0
C1383 C 0.55068 0.21298 0.22238 0.0
H1384 H 0.74219 0.2758 0.21812 0.0
H1385 H 0.74273 0.28835 0.16908 0.0
H1386 H 0.78416 0.36138 0.1713 0.0
H1387 H 0.81669 0.42202 0.18692 0.0
H1388 H 0.81446 0.41201 0.236 0.0
H1389 H 0.77805 0.33796 0.23401 0.0
C1390 C 0.75171 0.2946 0.20796 0.0
C1391 C 0.73891 0.27663 0.19349 0.0
C1392 C 0.77527 0.33709 0.20929 0.0
C1393 C 0.7515 0.30137 0.1804 0.0
C1394 C 0.7754 0.34322 0.18162 0.0
C1395 C 0.80859 0.40371 0.1972 0.0
C1396 C 0.818 0.42244 0.21156 0.0
C1397 C 0.78688 0.36143 0.19598 0.0
C1398 C 0.80747 0.39825 0.22477 0.0
C1399 C 0.78649 0.35591 0.22365 0.0
H1400 H 0.68899 0.45833 0.18677 0.0
H1401 H 0.71213 0.452 0.23456 0.0
H1402 H 0.63911 0.41957 0.23994 0.0
H1403 H 0.56849 0.38721 0.23034 0.0
H1404 H 0.54749 0.39407 0.18225 0.0
H1405 H 0.62018 0.43256 0.17768 0.0
C1406 C 0.67806 0.45008 0.1984 0.0
C1407 C 0.70555 0.45678 0.21024 0.0
C1408 C 0.63654 0.4315 0.2013 0.0
C1409 C 0.69133 0.44692 0.22529 0.0
C1410 C 0.64967 0.42826 0.22832 0.0
C1411 C 0.57989 0.39771 0.21891 0.0
C1412 C 0.55267 0.38739 0.2066 0.0
C1413 C 0.62192 0.41954 0.21632 0.0
C1414 C 0.5678 0.40128 0.19188 0.0
C1415 C 0.60935 0.42323 0.18925 0.0
H1416 H 0.58709 0.21636 0.935 0.0
H1417 H 0.55426 0.17961 0.98181 0.0
H1418 H 0.51381 0.21292 0.98258 0.0
H1419 H 0.49495 0.25967 0.97109 0.0
H1420 H 0.52801 0.29783 0.92439 0.0
H1421 H 0.56096 0.25703 0.9224 0.0
C1422 C 0.57008 0.21477 0.94516 0.0
C1423 C 0.57362 0.19583 0.95834 0.0
C1424 C 0.54757 0.23495 0.94566 0.0
C1425 C 0.55196 0.19427 0.97156 0.0
C1426 C 0.52904 0.21348 0.97205 0.0
C1427 C 0.50892 0.25859 0.96043 0.0
C1428 C 0.50947 0.282 0.948 0.0
C1429 C 0.52784 0.23515 0.95936 0.0
C1430 C 0.5273 0.28009 0.93418 0.0
C1431 C 0.54625 0.25683 0.93302 0.0
H1432 H 0.80413 0.38253 0.93546 0.0
H1433 H 0.82389 0.37936 0.98378 0.0
H1434 H 0.78615 0.30546 0.9835 0.0
H1435 H 0.74087 0.24204 0.9702 0.0
H1436 H 0.7186 0.24475 0.92205 0.0
H1437 H 0.76353 0.31805 0.92158 0.0
C1438 C 0.801 0.36552 0.9458 0.0
C1439 C 0.8166 0.38617 0.95961 0.0
C1440 C 0.77803 0.32287 0.94567 0.0
C1441 C 0.81199 0.36392 0.97301 0.0
C1442 C 0.7902 0.3217 0.97289 0.0
C1443 C 0.74621 0.25864 0.95959 0.0
C1444 C 0.72612 0.23805 0.94625 0.0
C1445 C 0.77192 0.30088 0.9594 0.0
C1446 C 0.73352 0.25993 0.93254 0.0
C1447 C 0.75926 0.3019 0.93224 0.0
H1448 H 0.76402 0.52986 0.95404 0.0
H1449 H 0.7733 0.42819 0.93754 0.0
H1450 H 0.69979 0.38513 0.93832 0.0
H1451 H 0.63313 0.37546 0.94518 0.0
H1452 H 0.62212 0.47771 0.95949 0.0
H1453 H 0.69581 0.52201 0.9577 0.0
C1454 C 0.74968 0.4983 0.95062 0.0
C1455 C 0.77362 0.48167 0.94613 0.0
C1456 C 0.70721 0.47415 0.95049 0.0
C1457 C 0.75515 0.44116 0.94131 0.0
C1458 C 0.71322 0.41665 0.94166 0.0
C1459 C 0.64697 0.40768 0.94751 0.0
C1460 C 0.62277 0.42363 0.95237 0.0
C1461 C 0.689 0.4327 0.94638 0.0
C1462 C 0.64051 0.46519 0.95549 0.0
C1463 C 0.68255 0.49031 0.95466 0.0
H1464 H 0.41172 0.84459 0.79519 0.0
H1465 H 0.35984 0.78359 0.75268 0.0
H1466 H 0.404 0.75409 0.75275 0.0
H1467 H 0.45063 0.73816 0.76692 0.0
H1468 H 0.5018 0.7996 0.80943 0.0
H1469 H 0.46588 0.83732 0.80711 0.0
C1470 C 0.41055 0.82528 0.78585 0.0
C1471 C 0.3822 0.81566 0.77412 0.0
C1472 C 0.4361 0.8086 0.78594 0.0
C1473 C 0.38133 0.79119 0.76193 0.0
C1474 C 0.40652 0.77425 0.76196 0.0
C1475 C 0.45494 0.76088 0.77534 0.0
C1476 C 0.47849 0.76601 0.78836 0.0
C1477 C 0.43321 0.78176 0.77415 0.0
C1478 C 0.48359 0.79515 0.79933 0.0
C1479 C 0.46281 0.81646 0.7981 0.0
H1480 H 0.2279 0.68578 0.80905 0.0
H1481 H 0.2337 0.70225 0.76022 0.0
H1482 H 0.19017 0.62877 0.75671 0.0
H1483 H 0.1559 0.55974 0.76769 0.0
H1484 H 0.15032 0.54483 0.81668 0.0
H1485 H 0.18804 0.61817 0.81999 0.0
C1486 C 0.21947 0.67329 0.79762 0.0
C1487 C 0.23446 0.69908 0.78488 0.0
C1488 C 0.19455 0.63146 0.79576 0.0
C1489 C 0.22261 0.68281 0.77017 0.0
C1490 C 0.19787 0.64089 0.76819 0.0
C1491 C 0.16234 0.57257 0.77909 0.0
C1492 C 0.15085 0.54686 0.79193 0.0
C1493 C 0.18438 0.61487 0.78091 0.0
C1494 C 0.15913 0.56391 0.80662 0.0
C1495 C 0.18084 0.60584 0.80852 0.0
H1496 H 0.40453 0.58523 0.76835 0.0
H1497 H 0.42902 0.63876 0.81337 0.0
H1498 H 0.3574 0.60802 0.81841 0.0
H1499 H 0.2885 0.56496 0.8108 0.0
H1500 H 0.25999 0.50451 0.76706 0.0
H1501 H 0.33256 0.53883 0.76078 0.0
C1502 C 0.39401 0.58992 0.77926 0.0
C1503 C 0.42225 0.61446 0.79045 0.0
C1504 C 0.35216 0.57088 0.78235 0.0
C1505 C 0.40828 0.62016 0.80455 0.0
C1506 C 0.36714 0.60257 0.80747 0.0
C1507 C 0.29774 0.55917 0.7998 0.0
C1508 C 0.26867 0.53218 0.78941 0.0
C1509 C 0.33896 0.5778 0.79652 0.0
C1510 C 0.28171 0.52518 0.77528 0.0
C1511 C 0.32318 0.54473 0.77171 0.0
H1512 H 0.45861 0.82572 0.02704 0.0
H1513 H 0.43155 0.81375 0.07517 0.0
H1514 H 0.47141 0.77967 0.07872 0.0
H1515 H 0.50642 0.74585 0.06725 0.0
H1516 H 0.53023 0.75669 0.01875 0.0
H1517 H 0.49926 0.79897 0.0162 0.0
C1518 C 0.46195 0.81614 0.03836 0.0
C1519 C 0.44189 0.82159 0.05081 0.0
C1520 C 0.48393 0.79608 0.04017 0.0
C1521 C 0.44684 0.8098 0.06545 0.0
C1522 C 0.4693 0.79007 0.06742 0.0
C1523 C 0.5054 0.75806 0.05618 0.0
C1524 C 0.5201 0.74775 0.04315 0.0
C1525 C 0.48685 0.78188 0.05475 0.0
C1526 C 0.51874 0.76384 0.0289 0.0
C1527 C 0.50103 0.78799 0.02743 0.0
H1528 H 0.22437 0.63278 0.06349 0.0
H1529 H 0.19631 0.64262 0.01652 0.0
H1530 H 0.23061 0.71608 0.01864 0.0
H1531 H 0.27419 0.77792 0.03292 0.0
H1532 H 0.30343 0.76971 0.07985 0.0
H1533 H 0.26335 0.69575 0.07869 0.0
C1534 C 0.22517 0.6511 0.05387 0.0
C1535 C 0.2083 0.63243 0.03984 0.0
C1536 C 0.24572 0.69373 0.05506 0.0
C1537 C 0.20962 0.65643 0.0274 0.0
C1538 C 0.22927 0.69846 0.02857 0.0
C1539 C 0.27147 0.75993 0.04292 0.0
C1540 C 0.29198 0.77917 0.05636 0.0
C1541 C 0.24844 0.7175 0.04219 0.0
C1542 C 0.28791 0.75554 0.06931 0.0
C1543 C 0.26506 0.71321 0.06867 0.0
H1544 H 0.38038 0.59007 0.01851 0.0
H1545 H 0.40985 0.60573 0.06647 0.0
H1546 H 0.33739 0.56629 0.07285 0.0
H1547 H 0.26558 0.53153 0.0645 0.0
H1548 H 0.23821 0.51613 0.01628 0.0
H1549 H 0.3102 0.55129 0.01028 0.0
C1550 C 0.37102 0.58481 0.03039 0.0
C1551 C 0.40028 0.60129 0.04202 0.0
C1552 C 0.32975 0.56227 0.03388 0.0
C1553 C 0.3878 0.59344 0.05733 0.0
C1554 C 0.34643 0.57106 0.06095 0.0
C1555 C 0.27542 0.53548 0.05269 0.0
C1556 C 0.24653 0.5216 0.04083 0.0
C1557 C 0.3171 0.5559 0.04929 0.0
C1558 C 0.25972 0.52674 0.0256 0.0
C1559 C 0.30092 0.54691 0.02216 0.0
H1560 H 0.1834 0.55364 0.51777 0.0
H1561 H 0.20548 0.60543 0.56289 0.0
H1562 H 0.23734 0.56545 0.5703 0.0
H1563 H 0.26596 0.52199 0.56262 0.0
H1564 H 0.24404 0.47239 0.51701 0.0
H1565 H 0.20443 0.50481 0.51114 0.0
C1566 C 0.1947 0.55569 0.5293 0.0
C1567 C 0.19269 0.58261 0.53974 0.0
C1568 C 0.2131 0.53315 0.53332 0.0
C1569 C 0.20676 0.58476 0.5547 0.0
C1570 C 0.22516 0.56214 0.55887 0.0
C1571 C 0.25175 0.51763 0.55152 0.0
C1572 C 0.25825 0.4952 0.54018 0.0
C1573 C 0.22953 0.53709 0.54811 0.0
C1574 C 0.23979 0.48983 0.52585 0.0
C1575 C 0.21722 0.50842 0.52247 0.0
H1576 H 0.41703 0.63395 0.51545 0.0
H1577 H 0.3994 0.60561 0.5635 0.0
H1578 H 0.44368 0.67745 0.56974 0.0
H1579 H 0.48419 0.74854 0.56132 0.0
H1580 H 0.50255 0.77548 0.51311 0.0
H1581 H 0.46159 0.70359 0.50713 0.0
C1582 C 0.42276 0.64352 0.5273 0.0
C1583 C 0.40448 0.61483 0.53902 0.0
C1584 C 0.44853 0.68445 0.53074 0.0
C1585 C 0.41297 0.62735 0.55431 0.0
C1586 C 0.43825 0.66832 0.55786 0.0
C1587 C 0.4797 0.73861 0.54952 0.0
C1588 C 0.49596 0.76731 0.53766 0.0
C1589 C 0.45585 0.69718 0.54615 0.0
C1590 C 0.49009 0.75401 0.52243 0.0
C1591 C 0.46654 0.71294 0.51899 0.0
H1592 H 0.36988 0.79933 0.51512 0.0
H1593 H 0.39185 0.79851 0.56338 0.0
H1594 H 0.31876 0.76678 0.56838 0.0
H1595 H 0.24832 0.73488 0.55852 0.0
H1596 H 0.22888 0.73677 0.51001 0.0
H1597 H 0.3016 0.77287 0.50562 0.0
C1598 C 0.35875 0.79222 0.52676 0.0
C1599 C 0.38598 0.80049 0.53885 0.0
C1600 C 0.31723 0.77426 0.52947 0.0
C1601 C 0.3713 0.79215 0.55389 0.0
C1602 C 0.3296 0.77396 0.55673 0.0
C1603 C 0.26012 0.74378 0.54704 0.0
C1604 C 0.23331 0.7329 0.53458 0.0
C1605 C 0.30221 0.76429 0.54455 0.0
C1606 C 0.24889 0.74453 0.51976 0.0
C1607 C 0.29046 0.7651 0.51723 0.0
H1608 H 0.23556 0.52196 0.26925 0.0
H1609 H 0.21403 0.51218 0.31783 0.0
H1610 H 0.17788 0.54969 0.31567 0.0
H1611 H 0.16008 0.59261 0.30054 0.0
H1612 H 0.18291 0.60419 0.25203 0.0
H1613 H 0.21062 0.55874 0.25357 0.0
C1614 C 0.22188 0.52706 0.27925 0.0
C1615 C 0.22763 0.51465 0.29367 0.0
C1616 C 0.20207 0.54971 0.278 0.0
C1617 C 0.2102 0.52179 0.30661 0.0
C1618 C 0.18972 0.54341 0.30541 0.0
C1619 C 0.17069 0.58478 0.29029 0.0
C1620 C 0.16998 0.60213 0.27626 0.0
C1621 C 0.1868 0.55882 0.29126 0.0
C1622 C 0.18343 0.59144 0.26302 0.0
C1623 C 0.19931 0.56544 0.26388 0.0
H1624 H 0.40594 0.70656 0.28447 0.0
H1625 H 0.5245 0.71931 0.28119 0.0
H1626 H 0.49407 0.64535 0.27949 0.0
H1627 H 0.43299 0.57651 0.2809 0.0
H1628 H 0.31516 0.566 0.28183 0.0
H1629 H 0.34567 0.63932 0.28277 0.0
C1630 C 0.425 0.69306 0.28307 0.0
C1631 C 0.46721 0.71796 0.28294 0.0
C1632 C 0.40735 0.65088 0.28212 0.0
C1633 C 0.49182 0.70049 0.28111 0.0
C1634 C 0.47444 0.65827 0.28034 0.0
C1635 C 0.41427 0.59053 0.28142 0.0
C1636 C 0.37195 0.56607 0.28214 0.0
C1637 C 0.43221 0.63308 0.28122 0.0
C1638 C 0.34774 0.58422 0.28213 0.0
C1639 C 0.36519 0.6262 0.2824 0.0
H1640 H 0.42576 0.82118 0.26087 0.0
H1641 H 0.44491 0.83818 0.30955 0.0
H1642 H 0.37203 0.80422 0.31373 0.0
H1643 H 0.30336 0.76507 0.30391 0.0
H1644 H 0.28215 0.74672 0.25545 0.0
H1645 H 0.35554 0.78646 0.25076 0.0
C1646 C 0.41395 0.81792 0.27237 0.0
C1647 C 0.44075 0.83182 0.28491 0.0
C1648 C 0.37178 0.79797 0.27471 0.0
C1649 C 0.42501 0.82752 0.29972 0.0
C1650 C 0.38332 0.80803 0.30213 0.0
C1651 C 0.31474 0.76991 0.29228 0.0
C1652 C 0.28753 0.75248 0.28003 0.0
C1653 C 0.35653 0.79236 0.28976 0.0
C1654 C 0.30257 0.75977 0.26504 0.0
C1655 C 0.34448 0.78228 0.2624 0.0
loop_
_geom_bond_atom_site_label_1
_geom_bond_atom_site_label_2
_geom_bond_distance
_geom_bond_site_symmetry_2
_ccdc_geom_bond_type
Co0 O1 2.216 . S
Co0 O2 2.091 . S
Co0 O4 2.004 . S
Co0 O10 2.021 . S
Co0 O12 2.137 1_545 S
Co0 O13 2.244 . S
O1 Co0 2.216 . S
O1 C8 1.247 . S
O2 Co0 2.091 . S
O2 C8 1.261 . S
C3 O12 1.247 . S
C3 O13 1.272 1_565 S
O4 Co0 2.004 . S
O4 C9 1.259 . S
Co5 O6 2.061 . S
Co5 O11 2.052 . S
Co5 O13 2.135 . S
O6 Co5 2.061 . S
O6 C9 1.235 . S
C7 O10 1.238 . S
C7 O11 1.241 . S
C8 O1 1.247 . S
C8 O2 1.261 . S
C9 O4 1.259 . S
C9 O6 1.235 . S
O10 Co0 2.021 . S
O10 C7 1.238 . S
O11 Co5 2.052 . S
O11 C7 1.241 . S
O12 Co0 2.137 1_565 S
O12 C3 1.247 . S
O13 Co0 2.244 . S
O13 C3 1.272 1_545 S
O13 Co5 2.135 . S
Co14 O15 2.216 . S
Co14 O16 2.091 . S
Co14 O18 2.004 . S
Co14 O24 2.021 . S
Co14 O26 2.137 1_655 S
Co14 O27 2.244 . S
O15 Co14 2.216 . S
O15 C22 1.247 . S
O16 Co14 2.091 . S
O16 C22 1.261 . S
C17 O26 1.247 . S
C17 O27 1.272 1_455 S
O18 Co14 2.004 . S
O18 C23 1.259 . S
Co19 O20 2.061 . S
Co19 O25 2.052 . S
Co19 O27 2.135 . S
O20 Co19 2.061 . S
O20 C23 1.235 . S
C21 O24 1.238 . S
C21 O25 1.241 . S
C22 O15 1.247 . S
C22 O16 1.261 . S
C23 O18 1.259 . S
C23 O20 1.235 . S
O24 Co14 2.021 . S
O24 C21 1.238 . S
O25 Co19 2.052 . S
O25 C21 1.241 . S
O26 Co14 2.137 1_455 S
O26 C17 1.247 . S
O27 Co14 2.244 . S
O27 C17 1.272 1_655 S
O27 Co19 2.135 . S
Co28 O29 2.216 . S
Co28 O30 2.091 . S
Co28 O32 2.004 . S
Co28 O38 2.021 . S
Co28 O40 2.137 . S
Co28 O41 2.244 . S
O29 Co28 2.216 . S
O29 C36 1.247 . S
O30 Co28 2.091 . S
O30 C36 1.261 . S
C31 O40 1.247 . S
C31 O41 1.272 . S
O32 Co28 2.004 . S
O32 C37 1.259 . S
Co33 O34 2.061 . S
Co33 O39 2.052 . S
Co33 O41 2.135 . S
O34 Co33 2.061 . S
O34 C37 1.235 . S
C35 O38 1.238 . S
C35 O39 1.241 . S
C36 O29 1.247 . S
C36 O30 1.261 . S
C37 O32 1.259 . S
C37 O34 1.235 . S
O38 Co28 2.021 . S
O38 C35 1.238 . S
O39 Co33 2.052 . S
O39 C35 1.241 . S
O40 Co28 2.137 . S
O40 C31 1.247 . S
O41 Co28 2.244 . S
O41 C31 1.272 . S
O41 Co33 2.135 . S
Co42 O43 2.216 . S
Co42 O44 2.091 . S
Co42 O46 2.004 . S
Co42 O52 2.021 . S
Co42 O54 2.137 1_455 S
Co42 O55 2.244 . S
O43 Co42 2.216 . S
O43 C50 1.247 . S
O44 Co42 2.091 . S
O44 C50 1.261 . S
C45 O54 1.247 . S
C45 O55 1.272 1_655 S
O46 Co42 2.004 . S
O46 C51 1.259 . S
Co47 O48 2.061 . S
Co47 O53 2.052 . S
Co47 O55 2.135 . S
O48 Co47 2.061 . S
O48 C51 1.235 . S
C49 O52 1.238 . S
C49 O53 1.241 . S
C50 O43 1.247 . S
C50 O44 1.261 . S
C51 O46 1.259 . S
C51 O48 1.235 . S
O52 Co42 2.021 . S
O52 C49 1.238 . S
O53 Co47 2.052 . S
O53 C49 1.241 . S
O54 Co42 2.137 1_655 S
O54 C45 1.247 . S
O55 Co42 2.244 . S
O55 C45 1.272 1_455 S
O55 Co47 2.135 . S
Co56 O57 2.216 . S
Co56 O58 2.091 . S
Co56 O60 2.004 . S
Co56 O66 2.021 . S
Co56 O68 2.137 . S
Co56 O69 2.244 . S
O57 Co56 2.216 . S
O57 C64 1.247 . S
O58 Co56 2.091 . S
O58 C64 1.261 . S
C59 O68 1.247 . S
C59 O69 1.272 . S
O60 Co56 2.004 . S
O60 C65 1.259 . S
Co61 O62 2.061 . S
Co61 O67 2.052 . S
Co61 O69 2.135 . S
O62 Co61 2.061 . S
O62 C65 1.235 . S
C63 O66 1.238 . S
C63 O67 1.241 . S
C64 O57 1.247 . S
C64 O58 1.261 . S
C65 O60 1.259 . S
C65 O62 1.235 . S
O66 Co56 2.021 . S
O66 C63 1.238 . S
O67 Co61 2.052 . S
O67 C63 1.241 . S
O68 Co56 2.137 . S
O68 C59 1.247 . S
O69 Co56 2.244 . S
O69 C59 1.272 . S
O69 Co61 2.135 . S
Co70 O71 2.216 . S
Co70 O72 2.091 . S
Co70 O74 2.004 . S
Co70 O80 2.021 . S
Co70 O82 2.137 1_565 S
Co70 O83 2.244 . S
O71 Co70 2.216 . S
O71 C78 1.247 . S
O72 Co70 2.091 . S
O72 C78 1.261 . S
C73 O82 1.247 . S
C73 O83 1.272 1_545 S
O74 Co70 2.004 . S
O74 C79 1.259 . S
Co75 O76 2.061 . S
Co75 O81 2.052 . S
Co75 O83 2.135 . S
O76 Co75 2.061 . S
O76 C79 1.235 . S
C77 O80 1.238 . S
C77 O81 1.241 . S
C78 O71 1.247 . S
C78 O72 1.261 . S
C79 O74 1.259 . S
C79 O76 1.235 . S
O80 Co70 2.021 . S
O80 C77 1.238 . S
O81 Co75 2.052 . S
O81 C77 1.241 . S
O82 Co70 2.137 1_545 S
O82 C73 1.247 . S
O83 Co70 2.244 . S
O83 C73 1.272 1_565 S
O83 Co75 2.135 . S
Co84 O85 2.216 . S
Co84 O86 2.091 . S
Co84 O88 2.004 . S
Co84 O94 2.021 . S
Co84 O96 2.137 1_565 S
Co84 O97 2.244 . S
O85 Co84 2.216 . S
O85 C92 1.247 . S
O86 Co84 2.091 . S
O86 C92 1.261 . S
C87 O96 1.247 . S
C87 O97 1.272 1_545 S
O88 Co84 2.004 . S
O88 C93 1.259 . S
Co89 O90 2.061 . S
Co89 O95 2.052 . S
Co89 O97 2.135 . S
O90 Co89 2.061 . S
O90 C93 1.235 . S
C91 O94 1.238 . S
C91 O95 1.241 . S
C92 O85 1.247 . S
C92 O86 1.261 . S
C93 O88 1.259 . S
C93 O90 1.235 . S
O94 Co84 2.021 . S
O94 C91 1.238 . S
O95 Co89 2.052 . S
O95 C91 1.241 . S
O96 Co84 2.137 1_545 S
O96 C87 1.247 . S
O97 Co84 2.244 . S
O97 C87 1.272 1_565 S
O97 Co89 2.135 . S
Co98 O99 2.216 . S
Co98 O100 2.091 . S
Co98 O102 2.004 . S
Co98 O108 2.021 . S
Co98 O110 2.137 1_455 S
Co98 O111 2.244 . S
O99 Co98 2.216 . S
O99 C106 1.247 . S
O100 Co98 2.091 . S
O100 C106 1.261 . S
C101 O110 1.247 . S
C101 O111 1.272 1_655 S
O102 Co98 2.004 . S
O102 C107 1.259 . S
Co103 O104 2.061 . S
Co103 O109 2.052 . S
Co103 O111 2.135 . S
O104 Co103 2.061 . S
O104 C107 1.235 . S
C105 O108 1.238 . S
C105 O109 1.241 . S
C106 O99 1.247 . S
C106 O100 1.261 . S
C107 O102 1.259 . S
C107 O104 1.235 . S
O108 Co98 2.021 . S
O108 C105 1.238 . S
O109 Co103 2.052 . S
O109 C105 1.241 . S
O110 Co98 2.137 1_655 S
O110 C101 1.247 . S
O111 Co98 2.244 . S
O111 C101 1.272 1_455 S
O111 Co103 2.135 . S
Co112 O113 2.216 . S
Co112 O114 2.091 . S
Co112 O116 2.004 . S
Co112 O122 2.021 . S
Co112 O124 2.137 . S
Co112 O125 2.244 . S
O113 Co112 2.216 . S
O113 C120 1.247 . S
O114 Co112 2.091 . S
O114 C120 1.261 . S
C115 O124 1.247 . S
C115 O125 1.272 . S
O116 Co112 2.004 . S
O116 C121 1.259 . S
Co117 O118 2.061 . S
Co117 O123 2.052 . S
Co117 O125 2.135 . S
O118 Co117 2.061 . S
O118 C121 1.235 . S
C119 O122 1.238 . S
C119 O123 1.241 . S
C120 O113 1.247 . S
C120 O114 1.261 . S
C121 O116 1.259 . S
C121 O118 1.235 . S
O122 Co112 2.021 . S
O122 C119 1.238 . S
O123 Co117 2.052 . S
O123 C119 1.241 . S
O124 Co112 2.137 . S
O124 C115 1.247 . S
O125 Co112 2.244 . S
O125 C115 1.272 . S
O125 Co117 2.135 . S
Co126 O127 2.216 . S
Co126 O128 2.091 . S
Co126 O130 2.004 . S
Co126 O136 2.021 . S
Co126 O138 2.137 1_655 S
Co126 O139 2.244 . S
O127 Co126 2.216 . S
O127 C134 1.247 . S
O128 Co126 2.091 . S
O128 C134 1.261 . S
C129 O138 1.247 . S
C129 O139 1.272 1_455 S
O130 Co126 2.004 . S
O130 C135 1.259 . S
Co131 O132 2.061 . S
Co131 O137 2.052 . S
Co131 O139 2.135 . S
O132 Co131 2.061 . S
O132 C135 1.235 . S
C133 O136 1.238 . S
C133 O137 1.241 . S
C134 O127 1.247 . S
C134 O128 1.261 . S
C135 O130 1.259 . S
C135 O132 1.235 . S
O136 Co126 2.021 . S
O136 C133 1.238 . S
O137 Co131 2.052 . S
O137 C133 1.241 . S
O138 Co126 2.137 1_455 S
O138 C129 1.247 . S
O139 Co126 2.244 . S
O139 C129 1.272 1_655 S
O139 Co131 2.135 . S
Co140 O141 2.216 . S
Co140 O142 2.091 . S
Co140 O144 2.004 . S
Co140 O150 2.021 . S
Co140 O152 2.137 . S
Co140 O153 2.244 . S
O141 Co140 2.216 . S
O141 C148 1.247 . S
O142 Co140 2.091 . S
O142 C148 1.261 . S
C143 O152 1.247 . S
C143 O153 1.272 . S
O144 Co140 2.004 . S
O144 C149 1.259 . S
Co145 O146 2.061 . S
Co145 O151 2.052 . S
Co145 O153 2.135 . S
O146 Co145 2.061 . S
O146 C149 1.235 . S
C147 O150 1.238 . S
C147 O151 1.241 . S
C148 O141 1.247 . S
C148 O142 1.261 . S
C149 O144 1.259 . S
C149 O146 1.235 . S
O150 Co140 2.021 . S
O150 C147 1.238 . S
O151 Co145 2.052 . S
O151 C147 1.241 . S
O152 Co140 2.137 . S
O152 C143 1.247 . S
O153 Co140 2.244 . S
O153 C143 1.272 . S
O153 Co145 2.135 . S
Co154 O155 2.216 . S
Co154 O156 2.091 . S
Co154 O158 2.004 . S
Co154 O164 2.021 . S
Co154 O166 2.137 1_545 S
Co154 O167 2.244 . S
O155 Co154 2.216 . S
O155 C162 1.247 . S
O156 Co154 2.091 . S
O156 C162 1.261 . S
C157 O166 1.247 . S
C157 O167 1.272 1_565 S
O158 Co154 2.004 . S
O158 C163 1.259 . S
Co159 O160 2.061 . S
Co159 O165 2.052 . S
Co159 O167 2.135 . S
O160 Co159 2.061 . S
O160 C163 1.235 . S
C161 O164 1.238 . S
C161 O165 1.241 . S
C162 O155 1.247 . S
C162 O156 1.261 . S
C163 O158 1.259 . S
C163 O160 1.235 . S
O164 Co154 2.021 . S
O164 C161 1.238 . S
O165 Co159 2.052 . S
O165 C161 1.241 . S
O166 Co154 2.137 1_565 S
O166 C157 1.247 . S
O167 Co154 2.244 . S
O167 C157 1.272 1_545 S
O167 Co159 2.135 . S
Co168 O169 2.216 . S
Co168 O170 2.091 . S
Co168 O172 2.004 . S
Co168 O178 2.021 . S
Co168 O180 2.137 . S
Co168 O181 2.244 . S
O169 Co168 2.216 . S
O169 C176 1.247 . S
O170 Co168 2.091 . S
O170 C176 1.261 . S
C171 O180 1.247 . S
C171 O181 1.272 . S
O172 Co168 2.004 . S
O172 C177 1.259 . S
Co173 O174 2.061 . S
Co173 O179 2.052 . S
Co173 O181 2.135 . S
O174 Co173 2.061 . S
O174 C177 1.235 . S
C175 O178 1.238 . S
C175 O179 1.241 . S
C176 O169 1.247 . S
C176 O170 1.261 . S
C177 O172 1.259 . S
C177 O174 1.235 . S
O178 Co168 2.021 . S
O178 C175 1.238 . S
O179 Co173 2.052 . S
O179 C175 1.241 . S
O180 Co168 2.137 . S
O180 C171 1.247 . S
O181 Co168 2.244 . S
O181 C171 1.272 . S
O181 Co173 2.135 . S
Co182 O183 2.216 . S
Co182 O184 2.091 . S
Co182 O186 2.004 . S
Co182 O192 2.021 . S
Co182 O194 2.137 . S
Co182 O195 2.244 . S
O183 Co182 2.216 . S
O183 C190 1.247 . S
O184 Co182 2.091 . S
O184 C190 1.261 . S
C185 O194 1.247 . S
C185 O195 1.272 . S
O186 Co182 2.004 . S
O186 C191 1.259 . S
Co187 O188 2.061 . S
Co187 O193 2.052 . S
Co187 O195 2.135 . S
O188 Co187 2.061 . S
O188 C191 1.235 . S
C189 O192 1.238 . S
C189 O193 1.241 . S
C190 O183 1.247 . S
C190 O184 1.261 . S
C191 O186 1.259 . S
C191 O188 1.235 . S
O192 Co182 2.021 . S
O192 C189 1.238 . S
O193 Co187 2.052 . S
O193 C189 1.241 . S
O194 Co182 2.137 . S
O194 C185 1.247 . S
O195 Co182 2.244 . S
O195 C185 1.272 . S
O195 Co187 2.135 . S
Co196 O197 2.216 . S
Co196 O198 2.091 . S
Co196 O200 2.004 . S
Co196 O206 2.021 . S
Co196 O208 2.137 . S
Co196 O209 2.244 . S
O197 Co196 2.216 . S
O197 C204 1.247 . S
O198 Co196 2.091 . S
O198 C204 1.261 . S
C199 O208 1.247 . S
C199 O209 1.272 . S
O200 Co196 2.004 . S
O200 C205 1.259 . S
Co201 O202 2.061 . S
Co201 O207 2.052 . S
Co201 O209 2.135 . S
O202 Co201 2.061 . S
O202 C205 1.235 . S
C203 O206 1.238 . S
C203 O207 1.241 . S
C204 O197 1.247 . S
C204 O198 1.261 . S
C205 O200 1.259 . S
C205 O202 1.235 . S
O206 Co196 2.021 . S
O206 C203 1.238 . S
O207 Co201 2.052 . S
O207 C203 1.241 . S
O208 Co196 2.137 . S
O208 C199 1.247 . S
O209 Co196 2.244 . S
O209 C199 1.272 . S
O209 Co201 2.135 . S
Co210 O211 2.216 . S
Co210 O212 2.091 . S
Co210 O214 2.004 . S
Co210 O220 2.021 . S
Co210 O222 2.137 . S
Co210 O223 2.244 . S
O211 Co210 2.216 . S
O211 C218 1.247 . S
O212 Co210 2.091 . S
O212 C218 1.261 . S
C213 O222 1.247 . S
C213 O223 1.272 . S
O214 Co210 2.004 . S
O214 C219 1.259 . S
Co215 O216 2.061 . S
Co215 O221 2.052 . S
Co215 O223 2.135 . S
O216 Co215 2.061 . S
O216 C219 1.235 . S
C217 O220 1.238 . S
C217 O221 1.241 . S
C218 O211 1.247 . S
C218 O212 1.261 . S
C219 O214 1.259 . S
C219 O216 1.235 . S
O220 Co210 2.021 . S
O220 C217 1.238 . S
O221 Co215 2.052 . S
O221 C217 1.241 . S
O222 Co210 2.137 . S
O222 C213 1.247 . S
O223 Co210 2.244 . S
O223 C213 1.272 . S
O223 Co215 2.135 . S
Co224 O225 2.216 . S
Co224 O226 2.091 . S
Co224 O228 2.004 . S
Co224 O234 2.021 . S
Co224 O236 2.137 . S
Co224 O237 2.244 . S
O225 Co224 2.216 . S
O225 C232 1.247 . S
O226 Co224 2.091 . S
O226 C232 1.261 . S
C227 O236 1.247 . S
C227 O237 1.272 . S
O228 Co224 2.004 . S
O228 C233 1.259 . S
Co229 O230 2.061 . S
Co229 O235 2.052 . S
Co229 O237 2.135 . S
O230 Co229 2.061 . S
O230 C233 1.235 . S
C231 O234 1.238 . S
C231 O235 1.241 . S
C232 O225 1.247 . S
C232 O226 1.261 . S
C233 O228 1.259 . S
C233 O230 1.235 . S
O234 Co224 2.021 . S
O234 C231 1.238 . S
O235 Co229 2.052 . S
O235 C231 1.241 . S
O236 Co224 2.137 . S
O236 C227 1.247 . S
O237 Co224 2.244 . S
O237 C227 1.272 . S
O237 Co229 2.135 . S
Co238 O239 2.216 . S
Co238 O240 2.091 . S
Co238 O242 2.004 . S
Co238 O248 2.021 . S
Co238 O250 2.137 . S
Co238 O251 2.244 . S
O239 Co238 2.216 . S
O239 C246 1.247 . S
O240 Co238 2.091 . S
O240 C246 1.261 . S
C241 O250 1.247 . S
C241 O251 1.272 . S
O242 Co238 2.004 . S
O242 C247 1.259 . S
Co243 O244 2.061 . S
Co243 O249 2.052 . S
Co243 O251 2.135 . S
O244 Co243 2.061 . S
O244 C247 1.235 . S
C245 O248 1.238 . S
C245 O249 1.241 . S
C246 O239 1.247 . S
C246 O240 1.261 . S
C247 O242 1.259 . S
C247 O244 1.235 . S
O248 Co238 2.021 . S
O248 C245 1.238 . S
O249 Co243 2.052 . S
O249 C245 1.241 . S
O250 Co238 2.137 . S
O250 C241 1.247 . S
O251 Co238 2.244 . S
O251 C241 1.272 . S
O251 Co243 2.135 . S
Co252 O253 2.216 . S
Co252 O254 2.091 . S
Co252 O256 2.004 . S
Co252 O262 2.021 . S
Co252 O264 2.137 . S
Co252 O265 2.244 . S
O253 Co252 2.216 . S
O253 C260 1.247 . S
O254 Co252 2.091 . S
O254 C260 1.261 . S
C255 O264 1.247 . S
C255 O265 1.272 . S
O256 Co252 2.004 . S
O256 C261 1.259 . S
Co257 O258 2.061 . S
Co257 O263 2.052 . S
Co257 O265 2.135 . S
O258 Co257 2.061 . S
O258 C261 1.235 . S
C259 O262 1.238 . S
C259 O263 1.241 . S
C260 O253 1.247 . S
C260 O254 1.261 . S
C261 O256 1.259 . S
C261 O258 1.235 . S
O262 Co252 2.021 . S
O262 C259 1.238 . S
O263 Co257 2.052 . S
O263 C259 1.241 . S
O264 Co252 2.137 . S
O264 C255 1.247 . S
O265 Co252 2.244 . S
O265 C255 1.272 . S
O265 Co257 2.135 . S
Co266 O267 2.216 . S
Co266 O268 2.091 . S
Co266 O270 2.004 . S
Co266 O276 2.021 . S
Co266 O278 2.137 . S
Co266 O279 2.244 . S
O267 Co266 2.216 . S
O267 C274 1.247 . S
O268 Co266 2.091 . S
O268 C274 1.261 . S
C269 O278 1.247 . S
C269 O279 1.272 . S
O270 Co266 2.004 . S
O270 C275 1.259 . S
Co271 O272 2.061 . S
Co271 O277 2.052 . S
Co271 O279 2.135 . S
O272 Co271 2.061 . S
O272 C275 1.235 . S
C273 O276 1.238 . S
C273 O277 1.241 . S
C274 O267 1.247 . S
C274 O268 1.261 . S
C275 O270 1.259 . S
C275 O272 1.235 . S
O276 Co266 2.021 . S
O276 C273 1.238 . S
O277 Co271 2.052 . S
O277 C273 1.241 . S
O278 Co266 2.137 . S
O278 C269 1.247 . S
O279 Co266 2.244 . S
O279 C269 1.272 . S
O279 Co271 2.135 . S
Co280 O281 2.216 . S
Co280 O282 2.091 . S
Co280 O284 2.004 . S
Co280 O290 2.021 . S
Co280 O292 2.137 . S
Co280 O293 2.244 . S
O281 Co280 2.216 . S
O281 C288 1.247 . S
O282 Co280 2.091 . S
O282 C288 1.261 . S
C283 O292 1.247 . S
C283 O293 1.272 . S
O284 Co280 2.004 . S
O284 C289 1.259 . S
Co285 O286 2.061 . S
Co285 O291 2.052 . S
Co285 O293 2.135 . S
O286 Co285 2.061 . S
O286 C289 1.235 . S
C287 O290 1.238 . S
C287 O291 1.241 . S
C288 O281 1.247 . S
C288 O282 1.261 . S
C289 O284 1.259 . S
C289 O286 1.235 . S
O290 Co280 2.021 . S
O290 C287 1.238 . S
O291 Co285 2.052 . S
O291 C287 1.241 . S
O292 Co280 2.137 . S
O292 C283 1.247 . S
O293 Co280 2.244 . S
O293 C283 1.272 . S
O293 Co285 2.135 . S
Co294 O295 2.216 . S
Co294 O296 2.091 . S
Co294 O298 2.004 . S
Co294 O304 2.021 . S
Co294 O306 2.137 . S
Co294 O307 2.244 . S
O295 Co294 2.216 . S
O295 C302 1.247 . S
O296 Co294 2.091 . S
O296 C302 1.261 . S
C297 O306 1.247 . S
C297 O307 1.272 . S
O298 Co294 2.004 . S
O298 C303 1.259 . S
Co299 O300 2.061 . S
Co299 O305 2.052 . S
Co299 O307 2.135 . S
O300 Co299 2.061 . S
O300 C303 1.235 . S
C301 O304 1.238 . S
C301 O305 1.241 . S
C302 O295 1.247 . S
C302 O296 1.261 . S
C303 O298 1.259 . S
C303 O300 1.235 . S
O304 Co294 2.021 . S
O304 C301 1.238 . S
O305 Co299 2.052 . S
O305 C301 1.241 . S
O306 Co294 2.137 . S
O306 C297 1.247 . S
O307 Co294 2.244 . S
O307 C297 1.272 . S
O307 Co299 2.135 . S
Co308 O309 2.216 . S
Co308 O310 2.091 . S
Co308 O312 2.004 . S
Co308 O318 2.021 . S
Co308 O320 2.137 . S
Co308 O321 2.244 . S
O309 Co308 2.216 . S
O309 C316 1.247 . S
O310 Co308 2.091 . S
O310 C316 1.261 . S
C311 O320 1.247 . S
C311 O321 1.272 . S
O312 Co308 2.004 . S
O312 C317 1.259 . S
Co313 O314 2.061 . S
Co313 O319 2.052 . S
Co313 O321 2.135 . S
O314 Co313 2.061 . S
O314 C317 1.235 . S
C315 O318 1.238 . S
C315 O319 1.241 . S
C316 O309 1.247 . S
C316 O310 1.261 . S
C317 O312 1.259 . S
C317 O314 1.235 . S
O318 Co308 2.021 . S
O318 C315 1.238 . S
O319 Co313 2.052 . S
O319 C315 1.241 . S
O320 Co308 2.137 . S
O320 C311 1.247 . S
O321 Co308 2.244 . S
O321 C311 1.272 . S
O321 Co313 2.135 . S
Co322 O323 2.216 . S
Co322 O324 2.091 . S
Co322 O326 2.004 . S
Co322 O332 2.021 . S
Co322 O334 2.137 . S
Co322 O335 2.244 . S
O323 Co322 2.216 . S
O323 C330 1.247 . S
O324 Co322 2.091 . S
O324 C330 1.261 . S
C325 O334 1.247 . S
C325 O335 1.272 . S
O326 Co322 2.004 . S
O326 C331 1.259 . S
Co327 O328 2.061 . S
Co327 O333 2.052 . S
Co327 O335 2.135 . S
O328 Co327 2.061 . S
O328 C331 1.235 . S
C329 O332 1.238 . S
C329 O333 1.241 . S
C330 O323 1.247 . S
C330 O324 1.261 . S
C331 O326 1.259 . S
C331 O328 1.235 . S
O332 Co322 2.021 . S
O332 C329 1.238 . S
O333 Co327 2.052 . S
O333 C329 1.241 . S
O334 Co322 2.137 . S
O334 C325 1.247 . S
O335 Co322 2.244 . S
O335 C325 1.272 . S
O335 Co327 2.135 . S
Co336 O337 2.216 . S
Co336 O338 2.091 . S
Co336 O340 2.004 . S
Co336 O346 2.021 . S
Co336 O348 2.137 . S
Co336 O349 2.244 . S
O337 Co336 2.216 . S
O337 C344 1.247 . S
O338 Co336 2.091 . S
O338 C344 1.261 . S
C339 O348 1.247 . S
C339 O349 1.272 . S
O340 Co336 2.004 . S
O340 C345 1.259 . S
Co341 O342 2.061 . S
Co341 O347 2.052 . S
Co341 O349 2.135 . S
O342 Co341 2.061 . S
O342 C345 1.235 . S
C343 O346 1.238 . S
C343 O347 1.241 . S
C344 O337 1.247 . S
C344 O338 1.261 . S
C345 O340 1.259 . S
C345 O342 1.235 . S
O346 Co336 2.021 . S
O346 C343 1.238 . S
O347 Co341 2.052 . S
O347 C343 1.241 . S
O348 Co336 2.137 . S
O348 C339 1.247 . S
O349 Co336 2.244 . S
O349 C339 1.272 . S
O349 Co341 2.135 . S
Co350 O351 2.216 . S
Co350 O352 2.091 . S
Co350 O354 2.004 . S
Co350 O360 2.021 . S
Co350 O362 2.137 . S
Co350 O363 2.244 . S
O351 Co350 2.216 . S
O351 C358 1.247 . S
O352 Co350 2.091 . S
O352 C358 1.261 . S
C353 O362 1.247 . S
C353 O363 1.272 . S
O354 Co350 2.004 . S
O354 C359 1.259 . S
Co355 O356 2.061 . S
Co355 O361 2.052 . S
Co355 O363 2.135 . S
O356 Co355 2.061 . S
O356 C359 1.235 . S
C357 O360 1.238 . S
C357 O361 1.241 . S
C358 O351 1.247 . S
C358 O352 1.261 . S
C359 O354 1.259 . S
C359 O356 1.235 . S
O360 Co350 2.021 . S
O360 C357 1.238 . S
O361 Co355 2.052 . S
O361 C357 1.241 . S
O362 Co350 2.137 . S
O362 C353 1.247 . S
O363 Co350 2.244 . S
O363 C353 1.272 . S
O363 Co355 2.135 . S
Co364 O365 2.216 . S
Co364 O366 2.091 . S
Co364 O368 2.004 . S
Co364 O374 2.021 . S
Co364 O376 2.137 . S
Co364 O377 2.244 . S
O365 Co364 2.216 . S
O365 C372 1.247 . S
O366 Co364 2.091 . S
O366 C372 1.261 . S
C367 O376 1.247 . S
C367 O377 1.272 . S
O368 Co364 2.004 . S
O368 C373 1.259 . S
Co369 O370 2.061 . S
Co369 O375 2.052 . S
Co369 O377 2.135 . S
O370 Co369 2.061 . S
O370 C373 1.235 . S
C371 O374 1.238 . S
C371 O375 1.241 . S
C372 O365 1.247 . S
C372 O366 1.261 . S
C373 O368 1.259 . S
C373 O370 1.235 . S
O374 Co364 2.021 . S
O374 C371 1.238 . S
O375 Co369 2.052 . S
O375 C371 1.241 . S
O376 Co364 2.137 . S
O376 C367 1.247 . S
O377 Co364 2.244 . S
O377 C367 1.272 . S
O377 Co369 2.135 . S
Co378 O379 2.216 . S
Co378 O380 2.091 . S
Co378 O382 2.004 . S
Co378 O388 2.021 . S
Co378 O390 2.137 . S
Co378 O391 2.244 . S
O379 Co378 2.216 . S
O379 C386 1.247 . S
O380 Co378 2.091 . S
O380 C386 1.261 . S
C381 O390 1.247 . S
C381 O391 1.272 . S
O382 Co378 2.004 . S
O382 C387 1.259 . S
Co383 O384 2.061 . S
Co383 O389 2.052 . S
Co383 O391 2.135 . S
O384 Co383 2.061 . S
O384 C387 1.235 . S
C385 O388 1.238 . S
C385 O389 1.241 . S
C386 O379 1.247 . S
C386 O380 1.261 . S
C387 O382 1.259 . S
C387 O384 1.235 . S
O388 Co378 2.021 . S
O388 C385 1.238 . S
O389 Co383 2.052 . S
O389 C385 1.241 . S
O390 Co378 2.137 . S
O390 C381 1.247 . S
O391 Co378 2.244 . S
O391 C381 1.272 . S
O391 Co383 2.135 . S
Co392 O393 2.216 . S
Co392 O394 2.091 . S
Co392 O396 2.004 . S
Co392 O402 2.021 . S
Co392 O404 2.137 . S
Co392 O405 2.244 . S
O393 Co392 2.216 . S
O393 C400 1.247 . S
O394 Co392 2.091 . S
O394 C400 1.261 . S
C395 O404 1.247 . S
C395 O405 1.272 . S
O396 Co392 2.004 . S
O396 C401 1.259 . S
Co397 O398 2.061 . S
Co397 O403 2.052 . S
Co397 O405 2.135 . S
O398 Co397 2.061 . S
O398 C401 1.235 . S
C399 O402 1.238 . S
C399 O403 1.241 . S
C400 O393 1.247 . S
C400 O394 1.261 . S
C401 O396 1.259 . S
C401 O398 1.235 . S
O402 Co392 2.021 . S
O402 C399 1.238 . S
O403 Co397 2.052 . S
O403 C399 1.241 . S
O404 Co392 2.137 . S
O404 C395 1.247 . S
O405 Co392 2.244 . S
O405 C395 1.272 . S
O405 Co397 2.135 . S
Co406 O407 2.216 . S
Co406 O408 2.091 . S
Co406 O410 2.004 . S
Co406 O416 2.021 . S
Co406 O418 2.137 . S
Co406 O419 2.244 . S
O407 Co406 2.216 . S
O407 C414 1.247 . S
O408 Co406 2.091 . S
O408 C414 1.261 . S
C409 O418 1.247 . S
C409 O419 1.272 . S
O410 Co406 2.004 . S
O410 C415 1.259 . S
Co411 O412 2.061 . S
Co411 O417 2.052 . S
Co411 O419 2.135 . S
O412 Co411 2.061 . S
O412 C415 1.235 . S
C413 O416 1.238 . S
C413 O417 1.241 . S
C414 O407 1.247 . S
C414 O408 1.261 . S
C415 O410 1.259 . S
C415 O412 1.235 . S
O416 Co406 2.021 . S
O416 C413 1.238 . S
O417 Co411 2.052 . S
O417 C413 1.241 . S
O418 Co406 2.137 . S
O418 C409 1.247 . S
O419 Co406 2.244 . S
O419 C409 1.272 . S
O419 Co411 2.135 . S
Co420 O421 2.216 . S
Co420 O422 2.091 . S
Co420 O424 2.004 . S
Co420 O430 2.021 . S
Co420 O432 2.137 . S
Co420 O433 2.244 . S
O421 Co420 2.216 . S
O421 C428 1.247 . S
O422 Co420 2.091 . S
O422 C428 1.261 . S
C423 O432 1.247 . S
C423 O433 1.272 . S
O424 Co420 2.004 . S
O424 C429 1.259 . S
Co425 O426 2.061 . S
Co425 O431 2.052 . S
Co425 O433 2.135 . S
O426 Co425 2.061 . S
O426 C429 1.235 . S
C427 O430 1.238 . S
C427 O431 1.241 . S
C428 O421 1.247 . S
C428 O422 1.261 . S
C429 O424 1.259 . S
C429 O426 1.235 . S
O430 Co420 2.021 . S
O430 C427 1.238 . S
O431 Co425 2.052 . S
O431 C427 1.241 . S
O432 Co420 2.137 . S
O432 C423 1.247 . S
O433 Co420 2.244 . S
O433 C423 1.272 . S
O433 Co425 2.135 . S
Co434 O435 2.216 . S
Co434 O436 2.091 . S
Co434 O438 2.004 . S
Co434 O444 2.021 . S
Co434 O446 2.137 . S
Co434 O447 2.244 . S
O435 Co434 2.216 . S
O435 C442 1.247 . S
O436 Co434 2.091 . S
O436 C442 1.261 . S
C437 O446 1.247 . S
C437 O447 1.272 . S
O438 Co434 2.004 . S
O438 C443 1.259 . S
Co439 O440 2.061 . S
Co439 O445 2.052 . S
Co439 O447 2.135 . S
O440 Co439 2.061 . S
O440 C443 1.235 . S
C441 O444 1.238 . S
C441 O445 1.241 . S
C442 O435 1.247 . S
C442 O436 1.261 . S
C443 O438 1.259 . S
C443 O440 1.235 . S
O444 Co434 2.021 . S
O444 C441 1.238 . S
O445 Co439 2.052 . S
O445 C441 1.241 . S
O446 Co434 2.137 . S
O446 C437 1.247 . S
O447 Co434 2.244 . S
O447 C437 1.272 . S
O447 Co439 2.135 . S
Co448 O449 2.216 . S
Co448 O450 2.091 . S
Co448 O452 2.004 . S
Co448 O458 2.021 . S
Co448 O460 2.137 . S
Co448 O461 2.244 . S
O449 Co448 2.216 . S
O449 C456 1.247 . S
O450 Co448 2.091 . S
O450 C456 1.261 . S
C451 O460 1.247 . S
C451 O461 1.272 . S
O452 Co448 2.004 . S
O452 C457 1.259 . S
Co453 O454 2.061 . S
Co453 O459 2.052 . S
Co453 O461 2.135 . S
O454 Co453 2.061 . S
O454 C457 1.235 . S
C455 O458 1.238 . S
C455 O459 1.241 . S
C456 O449 1.247 . S
C456 O450 1.261 . S
C457 O452 1.259 . S
C457 O454 1.235 . S
O458 Co448 2.021 . S
O458 C455 1.238 . S
O459 Co453 2.052 . S
O459 C455 1.241 . S
O460 Co448 2.137 . S
O460 C451 1.247 . S
O461 Co448 2.244 . S
O461 C451 1.272 . S
O461 Co453 2.135 . S
Co462 O463 2.216 . S
Co462 O464 2.091 . S
Co462 O466 2.004 . S
Co462 O472 2.021 . S
Co462 O474 2.137 . S
Co462 O475 2.244 . S
O463 Co462 2.216 . S
O463 C470 1.247 . S
O464 Co462 2.091 . S
O464 C470 1.261 . S
C465 O474 1.247 . S
C465 O475 1.272 . S
O466 Co462 2.004 . S
O466 C471 1.259 . S
Co467 O468 2.061 . S
Co467 O473 2.052 . S
Co467 O475 2.135 . S
O468 Co467 2.061 . S
O468 C471 1.235 . S
C469 O472 1.238 . S
C469 O473 1.241 . S
C470 O463 1.247 . S
C470 O464 1.261 . S
C471 O466 1.259 . S
C471 O468 1.235 . S
O472 Co462 2.021 . S
O472 C469 1.238 . S
O473 Co467 2.052 . S
O473 C469 1.241 . S
O474 Co462 2.137 . S
O474 C465 1.247 . S
O475 Co462 2.244 . S
O475 C465 1.272 . S
O475 Co467 2.135 . S
Co476 O477 2.216 . S
Co476 O478 2.091 . S
Co476 O480 2.004 . S
Co476 O486 2.021 . S
Co476 O488 2.137 . S
Co476 O489 2.244 . S
O477 Co476 2.216 . S
O477 C484 1.247 . S
O478 Co476 2.091 . S
O478 C484 1.261 . S
C479 O488 1.247 . S
C479 O489 1.272 . S
O480 Co476 2.004 . S
O480 C485 1.259 . S
Co481 O482 2.061 . S
Co481 O487 2.052 . S
Co481 O489 2.135 . S
O482 Co481 2.061 . S
O482 C485 1.235 . S
C483 O486 1.238 . S
C483 O487 1.241 . S
C484 O477 1.247 . S
C484 O478 1.261 . S
C485 O480 1.259 . S
C485 O482 1.235 . S
O486 Co476 2.021 . S
O486 C483 1.238 . S
O487 Co481 2.052 . S
O487 C483 1.241 . S
O488 Co476 2.137 . S
O488 C479 1.247 . S
O489 Co476 2.244 . S
O489 C479 1.272 . S
O489 Co481 2.135 . S
Co490 O491 2.216 . S
Co490 O492 2.091 . S
Co490 O494 2.004 . S
Co490 O500 2.021 . S
Co490 O502 2.137 . S
Co490 O503 2.244 . S
O491 Co490 2.216 . S
O491 C498 1.247 . S
O492 Co490 2.091 . S
O492 C498 1.261 . S
C493 O502 1.247 . S
C493 O503 1.272 . S
O494 Co490 2.004 . S
O494 C499 1.259 . S
Co495 O496 2.061 . S
Co495 O501 2.052 . S
Co495 O503 2.135 . S
O496 Co495 2.061 . S
O496 C499 1.235 . S
C497 O500 1.238 . S
C497 O501 1.241 . S
C498 O491 1.247 . S
C498 O492 1.261 . S
C499 O494 1.259 . S
C499 O496 1.235 . S
O500 Co490 2.021 . S
O500 C497 1.238 . S
O501 Co495 2.052 . S
O501 C497 1.241 . S
O502 Co490 2.137 . S
O502 C493 1.247 . S
O503 Co490 2.244 . S
O503 C493 1.272 . S
O503 Co495 2.135 . S
H504 C510 0.930 . S
H505 C513 0.930 . S
H506 C514 0.930 . S
H507 C515 0.930 . S
H508 C518 0.930 . S
H509 C519 0.930 . S
C510 H504 0.930 . S
C510 C511 1.355 . S
C510 C512 1.415 . S
C511 C510 1.355 . S
C511 C513 1.419 . S
C512 C510 1.415 . S
C512 C517 1.425 . S
C512 C519 1.409 . S
C513 H505 0.930 . S
C513 C511 1.419 . S
C513 C514 1.362 . S
C514 H506 0.930 . S
C514 C513 1.362 . S
C514 C517 1.409 . S
C515 H507 0.930 . S
C515 C516 1.355 . S
C515 C517 1.415 . S
C516 C515 1.355 . S
C516 C518 1.419 . S
C517 C512 1.425 . S
C517 C514 1.409 . S
C517 C515 1.415 . S
C518 H508 0.930 . S
C518 C516 1.419 . S
C518 C519 1.362 . S
C519 H509 0.930 . S
C519 C512 1.409 . S
C519 C518 1.362 . S
H520 C526 0.930 . S
H521 C529 0.930 . S
H522 C530 0.930 . S
H523 C531 0.930 . S
H524 C534 0.930 . S
H525 C535 0.930 . S
C526 H520 0.930 . S
C526 C527 1.355 . S
C526 C528 1.415 . S
C527 C526 1.355 . S
C527 C529 1.419 . S
C528 C526 1.415 . S
C528 C533 1.425 . S
C528 C535 1.409 . S
C529 H521 0.930 . S
C529 C527 1.419 . S
C529 C530 1.362 . S
C530 H522 0.930 . S
C530 C529 1.362 . S
C530 C533 1.409 . S
C531 H523 0.930 . S
C531 C532 1.355 . S
C531 C533 1.415 . S
C532 C531 1.355 . S
C532 C534 1.419 . S
C533 C528 1.425 . S
C533 C530 1.409 . S
C533 C531 1.415 . S
C534 H524 0.930 . S
C534 C532 1.419 . S
C534 C535 1.362 . S
C535 H525 0.930 . S
C535 C528 1.409 . S
C535 C534 1.362 . S
H536 C542 0.930 . S
H537 C545 0.930 . S
H538 C546 0.930 . S
H539 C547 0.930 . S
H540 C550 0.930 . S
H541 C551 0.930 . S
C542 H536 0.930 . S
C542 C543 1.355 . S
C542 C544 1.415 . S
C543 C542 1.355 . S
C543 C545 1.419 . S
C544 C542 1.415 . S
C544 C549 1.425 . S
C544 C551 1.409 . S
C545 H537 0.930 . S
C545 C543 1.419 . S
C545 C546 1.362 . S
C546 H538 0.930 . S
C546 C545 1.362 . S
C546 C549 1.409 . S
C547 H539 0.930 . S
C547 C548 1.355 . S
C547 C549 1.415 . S
C548 C547 1.355 . S
C548 C550 1.419 . S
C549 C544 1.425 . S
C549 C546 1.409 . S
C549 C547 1.415 . S
C550 H540 0.930 . S
C550 C548 1.419 . S
C550 C551 1.362 . S
C551 H541 0.930 . S
C551 C544 1.409 . S
C551 C550 1.362 . S
H552 C558 0.930 . S
H553 C561 0.930 . S
H554 C562 0.930 . S
H555 C563 0.930 . S
H556 C566 0.930 . S
H557 C567 0.930 . S
C558 H552 0.930 . S
C558 C559 1.355 . S
C558 C560 1.415 . S
C559 C558 1.355 . S
C559 C561 1.419 . S
C560 C558 1.415 . S
C560 C565 1.425 . S
C560 C567 1.409 . S
C561 H553 0.930 . S
C561 C559 1.419 . S
C561 C562 1.362 . S
C562 H554 0.930 . S
C562 C561 1.362 . S
C562 C565 1.409 . S
C563 H555 0.930 . S
C563 C564 1.355 . S
C563 C565 1.415 . S
C564 C563 1.355 . S
C564 C566 1.419 . S
C565 C560 1.425 . S
C565 C562 1.409 . S
C565 C563 1.415 . S
C566 H556 0.930 . S
C566 C564 1.419 . S
C566 C567 1.362 . S
C567 H557 0.930 . S
C567 C560 1.409 . S
C567 C566 1.362 . S
H568 C574 0.930 . S
H569 C577 0.930 . S
H570 C578 0.930 . S
H571 C579 0.930 . S
H572 C582 0.930 . S
H573 C583 0.930 . S
C574 H568 0.930 . S
C574 C575 1.355 . S
C574 C576 1.415 . S
C575 C574 1.355 . S
C575 C577 1.419 . S
C576 C574 1.415 . S
C576 C581 1.425 . S
C576 C583 1.409 . S
C577 H569 0.930 . S
C577 C575 1.419 . S
C577 C578 1.362 . S
C578 H570 0.930 . S
C578 C577 1.362 . S
C578 C581 1.409 . S
C579 H571 0.930 . S
C579 C580 1.355 . S
C579 C581 1.415 . S
C580 C579 1.355 . S
C580 C582 1.419 . S
C581 C576 1.425 . S
C581 C578 1.409 . S
C581 C579 1.415 . S
C582 H572 0.930 . S
C582 C580 1.419 . S
C582 C583 1.362 . S
C583 H573 0.930 . S
C583 C576 1.409 . S
C583 C582 1.362 . S
H584 C590 0.930 . S
H585 C593 0.930 . S
H586 C594 0.930 . S
H587 C595 0.930 . S
H588 C598 0.930 . S
H589 C599 0.930 . S
C590 H584 0.930 . S
C590 C591 1.355 . S
C590 C592 1.415 . S
C591 C590 1.355 . S
C591 C593 1.419 . S
C592 C590 1.415 . S
C592 C597 1.425 . S
C592 C599 1.409 . S
C593 H585 0.930 . S
C593 C591 1.419 . S
C593 C594 1.362 . S
C594 H586 0.930 . S
C594 C593 1.362 . S
C594 C597 1.409 . S
C595 H587 0.930 . S
C595 C596 1.355 . S
C595 C597 1.415 . S
C596 C595 1.355 . S
C596 C598 1.419 . S
C597 C592 1.425 . S
C597 C594 1.409 . S
C597 C595 1.415 . S
C598 H588 0.930 . S
C598 C596 1.419 . S
C598 C599 1.362 . S
C599 H589 0.930 . S
C599 C592 1.409 . S
C599 C598 1.362 . S
H600 C606 0.930 . S
H601 C609 0.930 . S
H602 C610 0.930 . S
H603 C611 0.930 . S
H604 C614 0.930 . S
H605 C615 0.930 . S
C606 H600 0.930 . S
C606 C607 1.355 . S
C606 C608 1.415 . S
C607 C606 1.355 . S
C607 C609 1.419 . S
C608 C606 1.415 . S
C608 C613 1.425 . S
C608 C615 1.409 . S
C609 H601 0.930 . S
C609 C607 1.419 . S
C609 C610 1.362 . S
C610 H602 0.930 . S
C610 C609 1.362 . S
C610 C613 1.409 . S
C611 H603 0.930 . S
C611 C612 1.355 . S
C611 C613 1.415 . S
C612 C611 1.355 . S
C612 C614 1.419 . S
C613 C608 1.425 . S
C613 C610 1.409 . S
C613 C611 1.415 . S
C614 H604 0.930 . S
C614 C612 1.419 . S
C614 C615 1.362 . S
C615 H605 0.930 . S
C615 C608 1.409 . S
C615 C614 1.362 . S
H616 C622 0.930 . S
H617 C625 0.930 . S
H618 C626 0.930 . S
H619 C627 0.930 . S
H620 C630 0.930 . S
H621 C631 0.930 . S
C622 H616 0.930 . S
C622 C623 1.355 . S
C622 C624 1.415 . S
C623 C622 1.355 . S
C623 C625 1.419 . S
C624 C622 1.415 . S
C624 C629 1.425 . S
C624 C631 1.409 . S
C625 H617 0.930 . S
C625 C623 1.419 . S
C625 C626 1.362 . S
C626 H618 0.930 . S
C626 C625 1.362 . S
C626 C629 1.409 . S
C627 H619 0.930 . S
C627 C628 1.355 . S
C627 C629 1.415 . S
C628 C627 1.355 . S
C628 C630 1.419 . S
C629 C624 1.425 . S
C629 C626 1.409 . S
C629 C627 1.415 . S
C630 H620 0.930 . S
C630 C628 1.419 . S
C630 C631 1.362 . S
C631 H621 0.930 . S
C631 C624 1.409 . S
C631 C630 1.362 . S
H632 C638 0.930 . S
H633 C641 0.930 . S
H634 C642 0.930 . S
H635 C643 0.930 . S
H636 C646 0.930 . S
H637 C647 0.930 . S
C638 H632 0.930 . S
C638 C639 1.355 . S
C638 C640 1.415 . S
C639 C638 1.355 . S
C639 C641 1.419 . S
C640 C638 1.415 . S
C640 C645 1.425 . S
C640 C647 1.409 . S
C641 H633 0.930 . S
C641 C639 1.419 . S
C641 C642 1.362 . S
C642 H634 0.930 . S
C642 C641 1.362 . S
C642 C645 1.409 . S
C643 H635 0.930 . S
C643 C644 1.355 . S
C643 C645 1.415 . S
C644 C643 1.355 . S
C644 C646 1.419 . S
C645 C640 1.425 . S
C645 C642 1.409 . S
C645 C643 1.415 . S
C646 H636 0.930 . S
C646 C644 1.419 . S
C646 C647 1.362 . S
C647 H637 0.930 . S
C647 C640 1.409 . S
C647 C646 1.362 . S
H648 C654 0.930 . S
H649 C657 0.930 . S
H650 C658 0.930 . S
H651 C659 0.930 . S
H652 C662 0.930 . S
H653 C663 0.930 . S
C654 H648 0.930 . S
C654 C655 1.355 . S
C654 C656 1.415 . S
C655 C654 1.355 . S
C655 C657 1.419 . S
C656 C654 1.415 . S
C656 C661 1.425 . S
C656 C663 1.409 . S
C657 H649 0.930 . S
C657 C655 1.419 . S
C657 C658 1.362 . S
C658 H650 0.930 . S
C658 C657 1.362 . S
C658 C661 1.409 . S
C659 H651 0.930 . S
C659 C660 1.355 . S
C659 C661 1.415 . S
C660 C659 1.355 . S
C660 C662 1.419 . S
C661 C656 1.425 . S
C661 C658 1.409 . S
C661 C659 1.415 . S
C662 H652 0.930 . S
C662 C660 1.419 . S
C662 C663 1.362 . S
C663 H653 0.930 . S
C663 C656 1.409 . S
C663 C662 1.362 . S
H664 C670 0.930 . S
H665 C673 0.930 . S
H666 C674 0.930 . S
H667 C675 0.930 . S
H668 C678 0.930 . S
H669 C679 0.930 . S
C670 H664 0.930 . S
C670 C671 1.355 . S
C670 C672 1.415 . S
C671 C670 1.355 . S
C671 C673 1.419 . S
C672 C670 1.415 . S
C672 C677 1.425 . S
C672 C679 1.409 . S
C673 H665 0.930 . S
C673 C671 1.419 . S
C673 C674 1.362 . S
C674 H666 0.930 . S
C674 C673 1.362 . S
C674 C677 1.409 . S
C675 H667 0.930 . S
C675 C676 1.355 . S
C675 C677 1.415 . S
C676 C675 1.355 . S
C676 C678 1.419 . S
C677 C672 1.425 . S
C677 C674 1.409 . S
C677 C675 1.415 . S
C678 H668 0.930 . S
C678 C676 1.419 . S
C678 C679 1.362 . S
C679 H669 0.930 . S
C679 C672 1.409 . S
C679 C678 1.362 . S
H680 C686 0.930 . S
H681 C689 0.930 . S
H682 C690 0.930 . S
H683 C691 0.930 . S
H684 C694 0.930 . S
H685 C695 0.930 . S
C686 H680 0.930 . S
C686 C687 1.355 . S
C686 C688 1.415 . S
C687 C686 1.355 . S
C687 C689 1.419 . S
C688 C686 1.415 . S
C688 C693 1.425 . S
C688 C695 1.409 . S
C689 H681 0.930 . S
C689 C687 1.419 . S
C689 C690 1.362 . S
C690 H682 0.930 . S
C690 C689 1.362 . S
C690 C693 1.409 . S
C691 H683 0.930 . S
C691 C692 1.355 . S
C691 C693 1.415 . S
C692 C691 1.355 . S
C692 C694 1.419 . S
C693 C688 1.425 . S
C693 C690 1.409 . S
C693 C691 1.415 . S
C694 H684 0.930 . S
C694 C692 1.419 . S
C694 C695 1.362 . S
C695 H685 0.930 . S
C695 C688 1.409 . S
C695 C694 1.362 . S
H696 C702 0.930 . S
H697 C705 0.930 . S
H698 C706 0.930 1_655 S
H699 C707 0.930 . S
H700 C710 0.930 . S
H701 C711 0.930 1_455 S
C702 H696 0.930 . S
C702 C703 1.355 . S
C702 C704 1.415 . S
C703 C702 1.355 . S
C703 C705 1.419 . S
C704 C702 1.415 . S
C704 C709 1.425 1_455 S
C704 C711 1.409 1_455 S
C705 H697 0.930 . S
C705 C703 1.419 . S
C705 C706 1.362 . S
C706 H698 0.930 1_455 S
C706 C705 1.362 . S
C706 C709 1.409 1_455 S
C707 H699 0.930 . S
C707 C708 1.355 . S
C707 C709 1.415 . S
C708 C707 1.355 . S
C708 C710 1.419 . S
C709 C704 1.425 1_655 S
C709 C706 1.409 1_655 S
C709 C707 1.415 . S
C710 H700 0.930 . S
C710 C708 1.419 . S
C710 C711 1.362 . S
C711 H701 0.930 1_655 S
C711 C704 1.409 1_655 S
C711 C710 1.362 . S
H712 C718 0.930 . S
H713 C721 0.930 . S
H714 C722 0.930 . S
H715 C723 0.930 . S
H716 C726 0.930 . S
H717 C727 0.930 . S
C718 H712 0.930 . S
C718 C719 1.355 . S
C718 C720 1.415 . S
C719 C718 1.355 . S
C719 C721 1.419 . S
C720 C718 1.415 . S
C720 C725 1.425 . S
C720 C727 1.409 . S
C721 H713 0.930 . S
C721 C719 1.419 . S
C721 C722 1.362 . S
C722 H714 0.930 . S
C722 C721 1.362 . S
C722 C725 1.409 . S
C723 H715 0.930 . S
C723 C724 1.355 . S
C723 C725 1.415 . S
C724 C723 1.355 . S
C724 C726 1.419 . S
C725 C720 1.425 . S
C725 C722 1.409 . S
C725 C723 1.415 . S
C726 H716 0.930 . S
C726 C724 1.419 . S
C726 C727 1.362 . S
C727 H717 0.930 . S
C727 C720 1.409 . S
C727 C726 1.362 . S
H728 C734 0.930 . S
H729 C737 0.930 . S
H730 C738 0.930 . S
H731 C739 0.930 . S
H732 C742 0.930 . S
H733 C743 0.930 . S
C734 H728 0.930 . S
C734 C735 1.355 . S
C734 C736 1.415 . S
C735 C734 1.355 . S
C735 C737 1.419 . S
C736 C734 1.415 . S
C736 C741 1.425 1_545 S
C736 C743 1.409 . S
C737 H729 0.930 . S
C737 C735 1.419 . S
C737 C738 1.362 1_545 S
C738 H730 0.930 . S
C738 C737 1.362 1_565 S
C738 C741 1.409 . S
C739 H731 0.930 . S
C739 C740 1.355 . S
C739 C741 1.415 . S
C740 C739 1.355 . S
C740 C742 1.419 . S
C741 C736 1.425 1_565 S
C741 C738 1.409 . S
C741 C739 1.415 . S
C742 H732 0.930 . S
C742 C740 1.419 . S
C742 C743 1.362 1_565 S
C743 H733 0.930 . S
C743 C736 1.409 . S
C743 C742 1.362 1_545 S
H744 C750 0.922 1_556 S
H745 C753 0.930 . S
H746 C754 0.930 . S
H747 C755 0.922 1_554 S
H748 C758 0.930 . S
H749 C759 0.930 . S
C750 H744 0.922 1_554 S
C750 C751 1.355 . S
C750 C752 1.415 1_554 S
C751 C750 1.355 . S
C751 C753 1.419 . S
C752 C750 1.415 1_556 S
C752 C757 1.425 1_566 S
C752 C759 1.409 . S
C753 H745 0.930 . S
C753 C751 1.419 . S
C753 C754 1.362 1_565 S
C754 H746 0.930 . S
C754 C753 1.362 1_545 S
C754 C757 1.409 . S
C755 H747 0.922 1_556 S
C755 C756 1.355 . S
C755 C757 1.415 1_556 S
C756 C755 1.355 . S
C756 C758 1.419 . S
C757 C752 1.425 1_544 S
C757 C754 1.409 . S
C757 C755 1.415 1_554 S
C758 H748 0.930 . S
C758 C756 1.419 . S
C758 C759 1.362 1_545 S
C759 H749 0.930 . S
C759 C752 1.409 . S
C759 C758 1.362 1_565 S
H760 C766 0.930 . S
H761 C769 0.930 . S
H762 C770 0.930 . S
H763 C771 0.930 . S
H764 C774 0.930 . S
H765 C775 0.930 . S
C766 H760 0.930 . S
C766 C767 1.355 . S
C766 C768 1.462 . S
C767 C766 1.355 . S
C767 C769 1.419 . S
C768 C766 1.462 . S
C768 C773 1.415 1_656 S
C768 C775 1.373 1_556 S
C769 H761 0.930 . S
C769 C767 1.419 . S
C769 C770 1.362 1_655 S
C770 H762 0.930 . S
C770 C769 1.362 1_455 S
C770 C773 1.373 1_556 S
C771 H763 0.930 . S
C771 C772 1.355 . S
C771 C773 1.462 . S
C772 C771 1.355 . S
C772 C774 1.419 . S
C773 C768 1.415 1_454 S
C773 C770 1.373 1_554 S
C773 C771 1.462 . S
C774 H764 0.930 . S
C774 C772 1.419 . S
C774 C775 1.362 1_455 S
C775 H765 0.930 . S
C775 C768 1.373 1_554 S
C775 C774 1.362 1_655 S
H776 C782 0.930 . S
H777 C785 0.930 . S
H778 C786 0.931 . S
H779 C787 0.930 . S
H780 C790 0.930 . S
H781 C791 0.931 . S
C782 H776 0.930 . S
C782 C783 1.355 . S
C782 C784 1.415 . S
C783 C782 1.355 . S
C783 C785 1.419 . S
C784 C782 1.415 . S
C784 C789 1.425 1_556 S
C784 C791 1.409 . S
C785 H777 0.930 . S
C785 C783 1.419 . S
C785 C786 1.362 1_556 S
C786 H778 0.931 . S
C786 C785 1.362 1_554 S
C786 C789 1.409 . S
C787 H779 0.930 . S
C787 C788 1.355 . S
C787 C789 1.415 . S
C788 C787 1.355 . S
C788 C790 1.419 . S
C789 C784 1.425 1_554 S
C789 C786 1.409 . S
C789 C787 1.415 . S
C790 H780 0.930 . S
C790 C788 1.419 . S
C790 C791 1.362 1_554 S
C791 H781 0.931 . S
C791 C784 1.409 . S
C791 C790 1.362 1_556 S
H792 C798 0.930 . S
H793 C801 0.930 . S
H794 C802 0.930 . S
H795 C803 0.930 . S
H796 C806 0.930 . S
H797 C807 0.919 1_545 S
C798 H792 0.930 . S
C798 C799 1.355 . S
C798 C800 1.415 1_545 S
C799 C798 1.355 . S
C799 C801 1.419 1_545 S
C800 C798 1.415 1_565 S
C800 C805 1.425 . S
C800 C807 1.403 . S
C801 H793 0.930 . S
C801 C799 1.419 1_565 S
C801 C802 1.362 . S
C802 H794 0.930 . S
C802 C801 1.362 . S
C802 C805 1.409 . S
C803 H795 0.930 . S
C803 C804 1.355 . S
C803 C805 1.415 . S
C804 C803 1.355 . S
C804 C806 1.419 . S
C805 C800 1.425 . S
C805 C802 1.409 . S
C805 C803 1.415 . S
C806 H796 0.930 . S
C806 C804 1.419 . S
C806 C807 1.380 . S
C807 H797 0.919 1_565 S
C807 C800 1.403 . S
C807 C806 1.380 . S
H808 C814 0.930 . S
H809 C817 0.930 . S
H810 C818 0.930 . S
H811 C819 0.930 . S
H812 C822 0.930 . S
H813 C823 0.930 . S
C814 H808 0.930 . S
C814 C815 1.355 . S
C814 C816 1.415 . S
C815 C814 1.355 . S
C815 C817 1.419 . S
C816 C814 1.415 . S
C816 C821 1.425 . S
C816 C823 1.409 . S
C817 H809 0.930 . S
C817 C815 1.419 . S
C817 C818 1.362 1_455 S
C818 H810 0.930 . S
C818 C817 1.362 1_655 S
C818 C821 1.409 1_655 S
C819 H811 0.930 . S
C819 C820 1.355 . S
C819 C821 1.415 1_655 S
C820 C819 1.355 . S
C820 C822 1.419 1_655 S
C821 C816 1.425 . S
C821 C818 1.409 1_455 S
C821 C819 1.415 1_455 S
C822 H812 0.930 . S
C822 C820 1.419 1_455 S
C822 C823 1.362 . S
C823 H813 0.930 . S
C823 C816 1.409 . S
C823 C822 1.362 . S
H824 C830 0.930 . S
H825 C833 0.930 . S
H826 C834 0.930 . S
H827 C835 0.930 . S
H828 C838 0.930 . S
H829 C839 0.930 . S
C830 H824 0.930 . S
C830 C831 1.355 . S
C830 C832 1.415 . S
C831 C830 1.355 . S
C831 C833 1.419 . S
C832 C830 1.415 . S
C832 C837 1.425 . S
C832 C839 1.409 . S
C833 H825 0.930 . S
C833 C831 1.419 . S
C833 C834 1.362 . S
C834 H826 0.930 . S
C834 C833 1.362 . S
C834 C837 1.409 . S
C835 H827 0.930 . S
C835 C836 1.355 . S
C835 C837 1.415 . S
C836 C835 1.355 . S
C836 C838 1.419 . S
C837 C832 1.425 . S
C837 C834 1.409 . S
C837 C835 1.415 . S
C838 H828 0.930 . S
C838 C836 1.419 . S
C838 C839 1.362 . S
C839 H829 0.930 . S
C839 C832 1.409 . S
C839 C838 1.362 . S
H840 C846 0.930 . S
H841 C849 0.930 . S
H842 C850 0.930 . S
H843 C851 0.930 . S
H844 C854 0.930 . S
H845 C855 0.930 . S
C846 H840 0.930 . S
C846 C847 1.355 . S
C846 C848 1.415 . S
C847 C846 1.355 . S
C847 C849 1.419 . S
C848 C846 1.415 . S
C848 C853 1.425 . S
C848 C855 1.409 . S
C849 H841 0.930 . S
C849 C847 1.419 . S
C849 C850 1.362 1_655 S
C850 H842 0.930 . S
C850 C849 1.362 1_455 S
C850 C853 1.409 1_455 S
C851 H843 0.930 . S
C851 C852 1.355 . S
C851 C853 1.415 1_455 S
C852 C851 1.355 . S
C852 C854 1.419 1_455 S
C853 C848 1.425 . S
C853 C850 1.409 1_655 S
C853 C851 1.415 1_655 S
C854 H844 0.930 . S
C854 C852 1.419 1_655 S
C854 C855 1.362 . S
C855 H845 0.930 . S
C855 C848 1.409 . S
C855 C854 1.362 . S
H856 C862 0.930 . S
H857 C865 0.930 . S
H858 C866 0.930 . S
H859 C867 0.930 . S
H860 C870 0.930 . S
H861 C871 0.930 . S
C862 H856 0.930 . S
C862 C863 1.355 . S
C862 C864 1.415 . S
C863 C862 1.355 . S
C863 C865 1.419 . S
C864 C862 1.415 . S
C864 C869 1.425 . S
C864 C871 1.409 . S
C865 H857 0.930 . S
C865 C863 1.419 . S
C865 C866 1.362 . S
C866 H858 0.930 . S
C866 C865 1.362 . S
C866 C869 1.409 . S
C867 H859 0.930 . S
C867 C868 1.355 . S
C867 C869 1.415 . S
C868 C867 1.355 . S
C868 C870 1.419 . S
C869 C864 1.425 . S
C869 C866 1.409 . S
C869 C867 1.415 . S
C870 H860 0.930 . S
C870 C868 1.419 . S
C870 C871 1.362 . S
C871 H861 0.930 . S
C871 C864 1.409 . S
C871 C870 1.362 . S
H872 C878 0.930 . S
H873 C881 0.930 . S
H874 C882 0.930 . S
H875 C883 0.930 . S
H876 C886 0.930 . S
H877 C887 0.930 . S
C878 H872 0.930 . S
C878 C879 1.355 . S
C878 C880 1.415 . S
C879 C878 1.355 . S
C879 C881 1.419 . S
C880 C878 1.415 . S
C880 C885 1.425 . S
C880 C887 1.409 1_545 S
C881 H873 0.930 . S
C881 C879 1.419 . S
C881 C882 1.362 . S
C882 H874 0.930 . S
C882 C881 1.362 . S
C882 C885 1.409 . S
C883 H875 0.930 . S
C883 C884 1.355 1_545 S
C883 C885 1.415 . S
C884 C883 1.355 1_565 S
C884 C886 1.419 . S
C885 C880 1.425 . S
C885 C882 1.409 . S
C885 C883 1.415 . S
C886 H876 0.930 . S
C886 C884 1.419 . S
C886 C887 1.362 . S
C887 H877 0.930 . S
C887 C880 1.409 1_565 S
C887 C886 1.362 . S
H888 C894 0.930 . S
H889 C897 0.930 . S
H890 C898 0.930 . S
H891 C899 0.930 . S
H892 C902 0.930 . S
H893 C903 0.930 . S
C894 H888 0.930 . S
C894 C895 1.355 1_545 S
C894 C896 1.415 . S
C895 C894 1.355 1_565 S
C895 C897 1.419 . S
C896 C894 1.415 . S
C896 C901 1.425 . S
C896 C903 1.409 . S
C897 H889 0.930 . S
C897 C895 1.419 . S
C897 C898 1.362 . S
C898 H890 0.930 . S
C898 C897 1.362 . S
C898 C901 1.409 1_565 S
C899 H891 0.930 . S
C899 C900 1.355 . S
C899 C901 1.415 . S
C900 C899 1.355 . S
C900 C902 1.419 . S
C901 C896 1.425 . S
C901 C898 1.409 1_545 S
C901 C899 1.415 . S
C902 H892 0.930 . S
C902 C900 1.419 . S
C902 C903 1.362 . S
C903 H893 0.930 . S
C903 C896 1.409 . S
C903 C902 1.362 . S
H904 C910 0.930 . S
H905 C913 0.930 . S
H906 C914 0.930 . S
H907 C915 0.930 . S
H908 C918 0.930 . S
H909 C919 0.930 . S
C910 H904 0.930 . S
C910 C911 1.355 . S
C910 C912 1.415 . S
C911 C910 1.355 . S
C911 C913 1.419 . S
C912 C910 1.415 . S
C912 C917 1.425 . S
C912 C919 1.409 . S
C913 H905 0.930 . S
C913 C911 1.419 . S
C913 C914 1.362 . S
C914 H906 0.930 . S
C914 C913 1.362 . S
C914 C917 1.409 . S
C915 H907 0.930 . S
C915 C916 1.355 . S
C915 C917 1.415 1_455 S
C916 C915 1.355 . S
C916 C918 1.419 1_455 S
C917 C912 1.425 . S
C917 C914 1.409 . S
C917 C915 1.415 1_655 S
C918 H908 0.930 . S
C918 C916 1.419 1_655 S
C918 C919 1.362 . S
C919 H909 0.930 . S
C919 C912 1.409 . S
C919 C918 1.362 . S
H920 C926 0.930 . S
H921 C929 0.930 . S
H922 C930 0.930 . S
H923 C931 0.930 . S
H924 C934 0.930 . S
H925 C935 0.930 . S
C926 H920 0.930 . S
C926 C927 1.355 . S
C926 C928 1.415 . S
C927 C926 1.355 . S
C927 C929 1.419 . S
C928 C926 1.415 . S
C928 C933 1.425 . S
C928 C935 1.409 . S
C929 H921 0.930 . S
C929 C927 1.419 . S
C929 C930 1.362 . S
C930 H922 0.930 . S
C930 C929 1.362 . S
C930 C933 1.409 . S
C931 H923 0.930 . S
C931 C932 1.355 . S
C931 C933 1.415 . S
C932 C931 1.355 . S
C932 C934 1.419 . S
C933 C928 1.425 . S
C933 C930 1.409 . S
C933 C931 1.415 . S
C934 H924 0.930 . S
C934 C932 1.419 . S
C934 C935 1.362 . S
C935 H925 0.930 . S
C935 C928 1.409 . S
C935 C934 1.362 . S
H936 C942 0.930 . S
H937 C945 0.930 . S
H938 C946 0.930 . S
H939 C947 0.930 . S
H940 C950 0.930 . S
H941 C951 0.930 1_655 S
C942 H936 0.930 . S
C942 C943 1.355 . S
C942 C944 1.415 1_655 S
C943 C942 1.355 . S
C943 C945 1.419 1_655 S
C944 C942 1.415 1_455 S
C944 C949 1.425 . S
C944 C951 1.409 . S
C945 H937 0.930 . S
C945 C943 1.419 1_455 S
C945 C946 1.362 . S
C946 H938 0.930 . S
C946 C945 1.362 . S
C946 C949 1.409 . S
C947 H939 0.930 . S
C947 C948 1.355 . S
C947 C949 1.415 . S
C948 C947 1.355 . S
C948 C950 1.419 . S
C949 C944 1.425 . S
C949 C946 1.409 . S
C949 C947 1.415 . S
C950 H940 0.930 . S
C950 C948 1.419 . S
C950 C951 1.362 . S
C951 H941 0.930 1_455 S
C951 C944 1.409 . S
C951 C950 1.362 . S
H952 C958 0.930 . S
H953 C961 0.930 . S
H954 C962 0.930 . S
H955 C963 0.930 . S
H956 C966 0.930 . S
H957 C967 0.930 . S
C958 H952 0.930 . S
C958 C959 1.355 . S
C958 C960 1.415 . S
C959 C958 1.355 . S
C959 C961 1.419 . S
C960 C958 1.415 . S
C960 C965 1.425 . S
C960 C967 1.409 . S
C961 H953 0.930 . S
C961 C959 1.419 . S
C961 C962 1.362 . S
C962 H954 0.930 . S
C962 C961 1.362 . S
C962 C965 1.409 . S
C963 H955 0.930 . S
C963 C964 1.355 . S
C963 C965 1.415 . S
C964 C963 1.355 . S
C964 C966 1.419 . S
C965 C960 1.425 . S
C965 C962 1.409 . S
C965 C963 1.415 . S
C966 H956 0.930 . S
C966 C964 1.419 . S
C966 C967 1.362 . S
C967 H957 0.930 . S
C967 C960 1.409 . S
C967 C966 1.362 . S
H968 C974 0.930 . S
H969 C977 0.930 . S
H970 C978 0.930 . S
H971 C979 0.930 . S
H972 C982 0.930 . S
H973 C983 0.930 . S
C974 H968 0.930 . S
C974 C975 1.355 1_565 S
C974 C976 1.415 . S
C975 C974 1.355 1_545 S
C975 C977 1.419 . S
C976 C974 1.415 . S
C976 C981 1.425 . S
C976 C983 1.409 . S
C977 H969 0.930 . S
C977 C975 1.419 . S
C977 C978 1.362 . S
C978 H970 0.930 . S
C978 C977 1.362 . S
C978 C981 1.409 1_545 S
C979 H971 0.930 . S
C979 C980 1.355 . S
C979 C981 1.415 . S
C980 C979 1.355 . S
C980 C982 1.419 . S
C981 C976 1.425 . S
C981 C978 1.409 1_565 S
C981 C979 1.415 . S
C982 H972 0.930 . S
C982 C980 1.419 . S
C982 C983 1.362 . S
C983 H973 0.930 . S
C983 C976 1.409 . S
C983 C982 1.362 . S
H984 C990 0.930 . S
H985 C993 0.930 . S
H986 C994 0.930 . S
H987 C995 0.930 . S
H988 C998 0.930 . S
H989 C999 0.930 . S
C990 H984 0.930 . S
C990 C991 1.355 . S
C990 C992 1.415 . S
C991 C990 1.355 . S
C991 C993 1.419 . S
C992 C990 1.415 . S
C992 C997 1.425 . S
C992 C999 1.409 . S
C993 H985 0.930 . S
C993 C991 1.419 . S
C993 C994 1.362 . S
C994 H986 0.930 . S
C994 C993 1.362 . S
C994 C997 1.409 . S
C995 H987 0.930 . S
C995 C996 1.355 . S
C995 C997 1.415 . S
C996 C995 1.355 . S
C996 C998 1.419 . S
C997 C992 1.425 . S
C997 C994 1.409 . S
C997 C995 1.415 . S
C998 H988 0.930 . S
C998 C996 1.419 . S
C998 C999 1.362 . S
C999 H989 0.930 . S
C999 C992 1.409 . S
C999 C998 1.362 . S
H1000 C1006 0.930 . S
H1001 C1009 0.930 . S
H1002 C1010 0.930 . S
H1003 C1011 0.930 . S
H1004 C1014 0.930 . S
H1005 C1015 0.930 . S
C1006 H1000 0.930 . S
C1006 C1007 1.355 . S
C1006 C1008 1.415 . S
C1007 C1006 1.355 . S
C1007 C1009 1.419 . S
C1008 C1006 1.415 . S
C1008 C1013 1.425 1_545 S
C1008 C1015 1.409 1_545 S
C1009 H1001 0.930 . S
C1009 C1007 1.419 . S
C1009 C1010 1.362 . S
C1010 H1002 0.930 . S
C1010 C1009 1.362 . S
C1010 C1013 1.409 1_545 S
C1011 H1003 0.930 . S
C1011 C1012 1.355 . S
C1011 C1013 1.415 . S
C1012 C1011 1.355 . S
C1012 C1014 1.419 . S
C1013 C1008 1.425 1_565 S
C1013 C1010 1.409 1_565 S
C1013 C1011 1.415 . S
C1014 H1004 0.930 . S
C1014 C1012 1.419 . S
C1014 C1015 1.362 . S
C1015 H1005 0.930 . S
C1015 C1008 1.409 1_565 S
C1015 C1014 1.362 . S
H1016 C1022 0.930 . S
H1017 C1025 0.930 . S
H1018 C1026 0.930 . S
H1019 C1027 0.930 . S
H1020 C1030 0.930 . S
H1021 C1031 0.930 . S
C1022 H1016 0.930 . S
C1022 C1023 1.355 . S
C1022 C1024 1.415 . S
C1023 C1022 1.355 . S
C1023 C1025 1.419 . S
C1024 C1022 1.415 . S
C1024 C1029 1.425 1_655 S
C1024 C1031 1.409 1_655 S
C1025 H1017 0.930 . S
C1025 C1023 1.419 . S
C1025 C1026 1.362 . S
C1026 H1018 0.930 . S
C1026 C1025 1.362 . S
C1026 C1029 1.409 1_655 S
C1027 H1019 0.930 . S
C1027 C1028 1.355 . S
C1027 C1029 1.415 . S
C1028 C1027 1.355 . S
C1028 C1030 1.419 . S
C1029 C1024 1.425 1_455 S
C1029 C1026 1.409 1_455 S
C1029 C1027 1.415 . S
C1030 H1020 0.930 . S
C1030 C1028 1.419 . S
C1030 C1031 1.362 . S
C1031 H1021 0.930 . S
C1031 C1024 1.409 1_455 S
C1031 C1030 1.362 . S
H1032 C1038 0.930 . S
H1033 C1041 0.930 . S
H1034 C1042 0.930 . S
H1035 C1043 0.930 . S
H1036 C1046 0.930 . S
H1037 C1047 0.930 . S
C1038 H1032 0.930 . S
C1038 C1039 1.355 . S
C1038 C1040 1.415 . S
C1039 C1038 1.355 . S
C1039 C1041 1.419 . S
C1040 C1038 1.415 . S
C1040 C1045 1.425 . S
C1040 C1047 1.409 . S
C1041 H1033 0.930 . S
C1041 C1039 1.419 . S
C1041 C1042 1.362 . S
C1042 H1034 0.930 . S
C1042 C1041 1.362 . S
C1042 C1045 1.409 . S
C1043 H1035 0.930 . S
C1043 C1044 1.355 . S
C1043 C1045 1.415 . S
C1044 C1043 1.355 . S
C1044 C1046 1.419 . S
C1045 C1040 1.425 . S
C1045 C1042 1.409 . S
C1045 C1043 1.415 . S
C1046 H1036 0.930 . S
C1046 C1044 1.419 . S
C1046 C1047 1.362 . S
C1047 H1037 0.930 . S
C1047 C1040 1.409 . S
C1047 C1046 1.362 . S
H1048 C1054 0.930 . S
H1049 C1057 0.930 . S
H1050 C1058 0.930 . S
H1051 C1059 0.930 . S
H1052 C1062 0.930 . S
H1053 C1063 0.930 . S
C1054 H1048 0.930 . S
C1054 C1055 1.355 . S
C1054 C1056 1.415 . S
C1055 C1054 1.355 . S
C1055 C1057 1.419 . S
C1056 C1054 1.415 . S
C1056 C1061 1.425 1_565 S
C1056 C1063 1.409 1_565 S
C1057 H1049 0.930 . S
C1057 C1055 1.419 . S
C1057 C1058 1.362 . S
C1058 H1050 0.930 . S
C1058 C1057 1.362 . S
C1058 C1061 1.409 1_565 S
C1059 H1051 0.930 . S
C1059 C1060 1.355 . S
C1059 C1061 1.415 . S
C1060 C1059 1.355 . S
C1060 C1062 1.419 . S
C1061 C1056 1.425 1_545 S
C1061 C1058 1.409 1_545 S
C1061 C1059 1.415 . S
C1062 H1052 0.930 . S
C1062 C1060 1.419 . S
C1062 C1063 1.362 . S
C1063 H1053 0.930 . S
C1063 C1056 1.409 1_545 S
C1063 C1062 1.362 . S
H1064 C1070 0.930 . S
H1065 C1073 0.930 . S
H1066 C1074 0.930 . S
H1067 C1075 0.930 . S
H1068 C1078 0.930 . S
H1069 C1079 0.930 . S
C1070 H1064 0.930 . S
C1070 C1071 1.355 . S
C1070 C1072 1.428 . S
C1071 C1070 1.355 . S
C1071 C1073 1.419 . S
C1072 C1070 1.428 . S
C1072 C1077 1.423 1_655 S
C1072 C1079 1.397 1_655 S
C1073 H1065 0.930 . S
C1073 C1071 1.419 . S
C1073 C1074 1.362 . S
C1074 H1066 0.930 . S
C1074 C1073 1.362 . S
C1074 C1077 1.397 1_655 S
C1075 H1067 0.930 . S
C1075 C1076 1.355 . S
C1075 C1077 1.428 . S
C1076 C1075 1.355 . S
C1076 C1078 1.419 . S
C1077 C1072 1.423 1_455 S
C1077 C1074 1.397 1_455 S
C1077 C1075 1.428 . S
C1078 H1068 0.930 . S
C1078 C1076 1.419 . S
C1078 C1079 1.362 . S
C1079 H1069 0.930 . S
C1079 C1072 1.397 1_455 S
C1079 C1078 1.362 . S
H1080 C1086 0.930 . S
H1081 C1089 0.930 . S
H1082 C1090 0.930 . S
H1083 C1091 0.930 . S
H1084 C1094 0.930 . S
H1085 C1095 0.930 . S
C1086 H1080 0.930 . S
C1086 C1087 1.355 . S
C1086 C1088 1.415 . S
C1087 C1086 1.355 . S
C1087 C1089 1.419 . S
C1088 C1086 1.415 . S
C1088 C1093 1.425 . S
C1088 C1095 1.409 . S
C1089 H1081 0.930 . S
C1089 C1087 1.419 . S
C1089 C1090 1.362 . S
C1090 H1082 0.930 . S
C1090 C1089 1.362 . S
C1090 C1093 1.409 . S
C1091 H1083 0.930 . S
C1091 C1092 1.355 . S
C1091 C1093 1.415 . S
C1092 C1091 1.355 . S
C1092 C1094 1.419 . S
C1093 C1088 1.425 . S
C1093 C1090 1.409 . S
C1093 C1091 1.415 . S
C1094 H1084 0.930 . S
C1094 C1092 1.419 . S
C1094 C1095 1.362 . S
C1095 H1085 0.930 . S
C1095 C1088 1.409 . S
C1095 C1094 1.362 . S
H1096 C1102 0.930 . S
H1097 C1105 0.930 . S
H1098 C1106 0.930 . S
H1099 C1107 0.930 . S
H1100 C1110 0.930 . S
H1101 C1111 0.930 . S
C1102 H1096 0.930 . S
C1102 C1103 1.355 . S
C1102 C1104 1.415 1_545 S
C1103 C1102 1.355 . S
C1103 C1105 1.419 . S
C1104 C1102 1.415 1_565 S
C1104 C1109 1.425 . S
C1104 C1111 1.409 . S
C1105 H1097 0.930 . S
C1105 C1103 1.419 . S
C1105 C1106 1.362 . S
C1106 H1098 0.930 . S
C1106 C1105 1.362 . S
C1106 C1109 1.409 1_545 S
C1107 H1099 0.930 . S
C1107 C1108 1.355 . S
C1107 C1109 1.415 . S
C1108 C1107 1.355 . S
C1108 C1110 1.419 . S
C1109 C1104 1.425 . S
C1109 C1106 1.409 1_565 S
C1109 C1107 1.415 . S
C1110 H1100 0.930 . S
C1110 C1108 1.419 . S
C1110 C1111 1.362 . S
C1111 H1101 0.930 . S
C1111 C1104 1.409 . S
C1111 C1110 1.362 . S
H1112 C1118 0.930 . S
H1113 C1121 0.930 . S
H1114 C1122 0.930 . S
H1115 C1123 0.930 . S
H1116 C1126 0.930 . S
H1117 C1127 0.930 . S
C1118 H1112 0.930 . S
C1118 C1119 1.355 . S
C1118 C1120 1.415 1_655 S
C1119 C1118 1.355 . S
C1119 C1121 1.419 . S
C1120 C1118 1.415 1_455 S
C1120 C1125 1.425 . S
C1120 C1127 1.409 . S
C1121 H1113 0.930 . S
C1121 C1119 1.419 . S
C1121 C1122 1.362 1_655 S
C1122 H1114 0.930 . S
C1122 C1121 1.362 1_455 S
C1122 C1125 1.409 . S
C1123 H1115 0.930 . S
C1123 C1124 1.355 . S
C1123 C1125 1.415 . S
C1124 C1123 1.355 . S
C1124 C1126 1.419 . S
C1125 C1120 1.425 . S
C1125 C1122 1.409 . S
C1125 C1123 1.415 . S
C1126 H1116 0.930 . S
C1126 C1124 1.419 . S
C1126 C1127 1.362 . S
C1127 H1117 0.930 . S
C1127 C1120 1.409 . S
C1127 C1126 1.362 . S
H1128 C1134 0.930 . S
H1129 C1137 0.930 . S
H1130 C1138 0.930 . S
H1131 C1139 0.930 . S
H1132 C1142 0.930 . S
H1133 C1143 0.930 . S
C1134 H1128 0.930 . S
C1134 C1135 1.355 . S
C1134 C1136 1.415 . S
C1135 C1134 1.355 . S
C1135 C1137 1.419 . S
C1136 C1134 1.415 . S
C1136 C1141 1.425 . S
C1136 C1143 1.409 . S
C1137 H1129 0.930 . S
C1137 C1135 1.419 . S
C1137 C1138 1.362 . S
C1138 H1130 0.930 . S
C1138 C1137 1.362 . S
C1138 C1141 1.409 . S
C1139 H1131 0.930 . S
C1139 C1140 1.355 . S
C1139 C1141 1.415 . S
C1140 C1139 1.355 . S
C1140 C1142 1.419 . S
C1141 C1136 1.425 . S
C1141 C1138 1.409 . S
C1141 C1139 1.415 . S
C1142 H1132 0.930 . S
C1142 C1140 1.419 . S
C1142 C1143 1.362 . S
C1143 H1133 0.930 . S
C1143 C1136 1.409 . S
C1143 C1142 1.362 . S
H1144 C1150 0.930 . S
H1145 C1153 0.930 . S
H1146 C1154 0.930 . S
H1147 C1155 0.930 . S
H1148 C1158 0.930 . S
H1149 C1159 0.930 . S
C1150 H1144 0.930 . S
C1150 C1151 1.355 . S
C1150 C1152 1.415 . S
C1151 C1150 1.355 . S
C1151 C1153 1.419 . S
C1152 C1150 1.415 . S
C1152 C1157 1.425 . S
C1152 C1159 1.409 . S
C1153 H1145 0.930 . S
C1153 C1151 1.419 . S
C1153 C1154 1.362 . S
C1154 H1146 0.930 . S
C1154 C1153 1.362 . S
C1154 C1157 1.409 . S
C1155 H1147 0.930 . S
C1155 C1156 1.355 . S
C1155 C1157 1.415 1_565 S
C1156 C1155 1.355 . S
C1156 C1158 1.419 . S
C1157 C1152 1.425 . S
C1157 C1154 1.409 . S
C1157 C1155 1.415 1_545 S
C1158 H1148 0.930 . S
C1158 C1156 1.419 . S
C1158 C1159 1.362 1_565 S
C1159 H1149 0.930 . S
C1159 C1152 1.409 . S
C1159 C1158 1.362 1_545 S
H1160 C1166 0.930 . S
H1161 C1169 0.930 . S
H1162 C1170 0.930 . S
H1163 C1171 0.930 . S
H1164 C1174 0.930 . S
H1165 C1175 0.930 . S
C1166 H1160 0.930 . S
C1166 C1167 1.355 . S
C1166 C1168 1.415 1_455 S
C1167 C1166 1.355 . S
C1167 C1169 1.419 . S
C1168 C1166 1.415 1_655 S
C1168 C1173 1.425 . S
C1168 C1175 1.409 . S
C1169 H1161 0.930 . S
C1169 C1167 1.419 . S
C1169 C1170 1.362 1_455 S
C1170 H1162 0.930 . S
C1170 C1169 1.362 1_655 S
C1170 C1173 1.409 . S
C1171 H1163 0.930 . S
C1171 C1172 1.355 . S
C1171 C1173 1.415 . S
C1172 C1171 1.355 . S
C1172 C1174 1.419 . S
C1173 C1168 1.425 . S
C1173 C1170 1.409 . S
C1173 C1171 1.415 . S
C1174 H1164 0.930 . S
C1174 C1172 1.419 . S
C1174 C1175 1.362 . S
C1175 H1165 0.930 . S
C1175 C1168 1.409 . S
C1175 C1174 1.362 . S
H1176 C1182 0.930 . S
H1177 C1185 0.930 . S
H1178 C1186 0.930 . S
H1179 C1187 0.930 . S
H1180 C1190 0.930 1_455 S
H1181 C1191 0.930 . S
C1182 H1176 0.930 . S
C1182 C1183 1.355 . S
C1182 C1184 1.415 . S
C1183 C1182 1.355 . S
C1183 C1185 1.419 . S
C1184 C1182 1.415 . S
C1184 C1189 1.425 . S
C1184 C1191 1.409 . S
C1185 H1177 0.930 . S
C1185 C1183 1.419 . S
C1185 C1186 1.362 . S
C1186 H1178 0.930 . S
C1186 C1185 1.362 . S
C1186 C1189 1.409 . S
C1187 H1179 0.930 . S
C1187 C1188 1.355 . S
C1187 C1189 1.415 . S
C1188 C1187 1.355 . S
C1188 C1190 1.419 . S
C1189 C1184 1.425 . S
C1189 C1186 1.409 . S
C1189 C1187 1.415 . S
C1190 H1180 0.930 1_655 S
C1190 C1188 1.419 . S
C1190 C1191 1.362 . S
C1191 H1181 0.930 . S
C1191 C1184 1.409 . S
C1191 C1190 1.362 . S
H1192 C1198 0.930 . S
H1193 C1201 0.930 . S
H1194 C1202 0.930 . S
H1195 C1203 0.930 . S
H1196 C1206 0.930 . S
H1197 C1207 0.930 . S
C1198 H1192 0.930 . S
C1198 C1199 1.355 . S
C1198 C1200 1.415 1_565 S
C1199 C1198 1.355 . S
C1199 C1201 1.419 . S
C1200 C1198 1.415 1_545 S
C1200 C1205 1.425 . S
C1200 C1207 1.409 . S
C1201 H1193 0.930 . S
C1201 C1199 1.419 . S
C1201 C1202 1.362 1_565 S
C1202 H1194 0.930 . S
C1202 C1201 1.362 1_545 S
C1202 C1205 1.409 . S
C1203 H1195 0.930 . S
C1203 C1204 1.355 . S
C1203 C1205 1.415 . S
C1204 C1203 1.355 . S
C1204 C1206 1.419 . S
C1205 C1200 1.425 . S
C1205 C1202 1.409 . S
C1205 C1203 1.415 . S
C1206 H1196 0.930 . S
C1206 C1204 1.419 . S
C1206 C1207 1.362 . S
C1207 H1197 0.930 . S
C1207 C1200 1.409 . S
C1207 C1206 1.362 . S
H1208 C1214 0.930 . S
H1209 C1217 0.930 . S
H1210 C1218 0.930 . S
H1211 C1219 0.930 . S
H1212 C1222 0.930 . S
H1213 C1223 0.930 . S
C1214 H1208 0.930 . S
C1214 C1215 1.355 . S
C1214 C1216 1.415 1_455 S
C1215 C1214 1.355 . S
C1215 C1217 1.419 . S
C1216 C1214 1.415 1_655 S
C1216 C1221 1.425 . S
C1216 C1223 1.409 . S
C1217 H1209 0.930 . S
C1217 C1215 1.419 . S
C1217 C1218 1.362 1_455 S
C1218 H1210 0.930 . S
C1218 C1217 1.362 1_655 S
C1218 C1221 1.409 . S
C1219 H1211 0.930 . S
C1219 C1220 1.355 . S
C1219 C1221 1.415 . S
C1220 C1219 1.355 . S
C1220 C1222 1.419 . S
C1221 C1216 1.425 . S
C1221 C1218 1.409 . S
C1221 C1219 1.415 . S
C1222 H1212 0.930 . S
C1222 C1220 1.419 . S
C1222 C1223 1.362 . S
C1223 H1213 0.930 . S
C1223 C1216 1.409 . S
C1223 C1222 1.362 . S
H1224 C1230 0.930 . S
H1225 C1233 0.930 . S
H1226 C1234 0.930 . S
H1227 C1235 0.930 . S
H1228 C1238 0.930 . S
H1229 C1239 0.930 . S
C1230 H1224 0.930 . S
C1230 C1231 1.355 . S
C1230 C1232 1.415 . S
C1231 C1230 1.355 . S
C1231 C1233 1.419 . S
C1232 C1230 1.415 . S
C1232 C1237 1.425 . S
C1232 C1239 1.409 . S
C1233 H1225 0.930 . S
C1233 C1231 1.419 . S
C1233 C1234 1.362 . S
C1234 H1226 0.930 . S
C1234 C1233 1.362 . S
C1234 C1237 1.409 . S
C1235 H1227 0.930 . S
C1235 C1236 1.355 . S
C1235 C1237 1.415 . S
C1236 C1235 1.355 . S
C1236 C1238 1.419 . S
C1237 C1232 1.425 . S
C1237 C1234 1.409 . S
C1237 C1235 1.415 . S
C1238 H1228 0.930 . S
C1238 C1236 1.419 . S
C1238 C1239 1.362 . S
C1239 H1229 0.930 . S
C1239 C1232 1.409 . S
C1239 C1238 1.362 . S
H1240 C1246 0.930 . S
H1241 C1249 0.930 . S
H1242 C1250 0.930 . S
H1243 C1251 0.930 . S
H1244 C1254 0.930 . S
H1245 C1255 0.930 . S
C1246 H1240 0.930 . S
C1246 C1247 1.355 . S
C1246 C1248 1.415 1_545 S
C1247 C1246 1.355 . S
C1247 C1249 1.419 . S
C1248 C1246 1.415 1_565 S
C1248 C1253 1.425 . S
C1248 C1255 1.409 . S
C1249 H1241 0.930 . S
C1249 C1247 1.419 . S
C1249 C1250 1.362 1_545 S
C1250 H1242 0.930 . S
C1250 C1249 1.362 1_565 S
C1250 C1253 1.409 . S
C1251 H1243 0.930 . S
C1251 C1252 1.355 . S
C1251 C1253 1.415 . S
C1252 C1251 1.355 . S
C1252 C1254 1.419 . S
C1253 C1248 1.425 . S
C1253 C1250 1.409 . S
C1253 C1251 1.415 . S
C1254 H1244 0.930 . S
C1254 C1252 1.419 . S
C1254 C1255 1.362 . S
C1255 H1245 0.930 . S
C1255 C1248 1.409 . S
C1255 C1254 1.362 . S
H1256 C1262 0.930 . S
H1257 C1265 0.930 . S
H1258 C1266 0.930 . S
H1259 C1267 0.930 . S
H1260 C1270 0.930 . S
H1261 C1271 0.916 1_455 S
C1262 H1256 0.930 . S
C1262 C1263 1.355 . S
C1262 C1264 1.415 . S
C1263 C1262 1.355 . S
C1263 C1265 1.419 . S
C1264 C1262 1.415 . S
C1264 C1269 1.425 . S
C1264 C1271 1.407 1_455 S
C1265 H1257 0.930 . S
C1265 C1263 1.419 . S
C1265 C1266 1.362 . S
C1266 H1258 0.930 . S
C1266 C1265 1.362 . S
C1266 C1269 1.409 . S
C1267 H1259 0.930 . S
C1267 C1268 1.355 . S
C1267 C1269 1.415 1_655 S
C1268 C1267 1.355 . S
C1268 C1270 1.419 . S
C1269 C1264 1.425 . S
C1269 C1266 1.409 . S
C1269 C1267 1.415 1_455 S
C1270 H1260 0.930 . S
C1270 C1268 1.419 . S
C1270 C1271 1.367 . S
C1271 H1261 0.916 1_655 S
C1271 C1264 1.407 1_655 S
C1271 C1270 1.367 . S
H1272 C1278 0.930 . S
H1273 C1281 0.930 . S
H1274 C1282 0.930 . S
H1275 C1283 0.930 . S
H1276 C1286 0.930 . S
H1277 C1287 0.930 . S
C1278 H1272 0.930 . S
C1278 C1279 1.355 . S
C1278 C1280 1.415 . S
C1279 C1278 1.355 . S
C1279 C1281 1.419 . S
C1280 C1278 1.415 . S
C1280 C1285 1.425 . S
C1280 C1287 1.409 . S
C1281 H1273 0.930 . S
C1281 C1279 1.419 . S
C1281 C1282 1.362 . S
C1282 H1274 0.930 . S
C1282 C1281 1.362 . S
C1282 C1285 1.409 . S
C1283 H1275 0.930 . S
C1283 C1284 1.355 . S
C1283 C1285 1.415 . S
C1284 C1283 1.355 . S
C1284 C1286 1.419 . S
C1285 C1280 1.425 . S
C1285 C1282 1.409 . S
C1285 C1283 1.415 . S
C1286 H1276 0.930 . S
C1286 C1284 1.419 . S
C1286 C1287 1.362 . S
C1287 H1277 0.930 . S
C1287 C1280 1.409 . S
C1287 C1286 1.362 . S
H1288 C1294 0.930 . S
H1289 C1297 0.930 . S
H1290 C1298 0.930 . S
H1291 C1299 0.930 . S
H1292 C1302 0.930 . S
H1293 C1303 0.930 . S
C1294 H1288 0.930 . S
C1294 C1295 1.355 . S
C1294 C1296 1.415 . S
C1295 C1294 1.355 . S
C1295 C1297 1.419 . S
C1296 C1294 1.415 . S
C1296 C1301 1.425 . S
C1296 C1303 1.409 . S
C1297 H1289 0.930 . S
C1297 C1295 1.419 . S
C1297 C1298 1.362 . S
C1298 H1290 0.930 . S
C1298 C1297 1.362 . S
C1298 C1301 1.409 . S
C1299 H1291 0.930 . S
C1299 C1300 1.355 . S
C1299 C1301 1.415 . S
C1300 C1299 1.355 . S
C1300 C1302 1.419 . S
C1301 C1296 1.425 . S
C1301 C1298 1.409 . S
C1301 C1299 1.415 . S
C1302 H1292 0.930 . S
C1302 C1300 1.419 . S
C1302 C1303 1.362 . S
C1303 H1293 0.930 . S
C1303 C1296 1.409 . S
C1303 C1302 1.362 . S
H1304 C1310 0.930 . S
H1305 C1313 0.930 . S
H1306 C1314 0.930 . S
H1307 C1315 0.930 . S
H1308 C1318 0.930 . S
H1309 C1319 0.930 . S
C1310 H1304 0.930 . S
C1310 C1311 1.355 . S
C1310 C1312 1.415 . S
C1311 C1310 1.355 . S
C1311 C1313 1.419 . S
C1312 C1310 1.415 . S
C1312 C1317 1.425 . S
C1312 C1319 1.409 . S
C1313 H1305 0.930 . S
C1313 C1311 1.419 . S
C1313 C1314 1.362 . S
C1314 H1306 0.930 . S
C1314 C1313 1.362 . S
C1314 C1317 1.409 . S
C1315 H1307 0.930 . S
C1315 C1316 1.355 . S
C1315 C1317 1.415 . S
C1316 C1315 1.355 . S
C1316 C1318 1.419 . S
C1317 C1312 1.425 . S
C1317 C1314 1.409 . S
C1317 C1315 1.415 . S
C1318 H1308 0.930 . S
C1318 C1316 1.419 . S
C1318 C1319 1.362 . S
C1319 H1309 0.930 . S
C1319 C1312 1.409 . S
C1319 C1318 1.362 . S
H1320 C1326 0.930 . S
H1321 C1329 0.930 . S
H1322 C1330 0.930 . S
H1323 C1331 0.930 . S
H1324 C1334 0.930 . S
H1325 C1335 0.930 . S
C1326 H1320 0.930 . S
C1326 C1327 1.355 . S
C1326 C1328 1.415 . S
C1327 C1326 1.355 . S
C1327 C1329 1.419 . S
C1328 C1326 1.415 . S
C1328 C1333 1.425 . S
C1328 C1335 1.409 . S
C1329 H1321 0.930 . S
C1329 C1327 1.419 . S
C1329 C1330 1.362 . S
C1330 H1322 0.930 . S
C1330 C1329 1.362 . S
C1330 C1333 1.409 . S
C1331 H1323 0.930 . S
C1331 C1332 1.355 . S
C1331 C1333 1.415 . S
C1332 C1331 1.355 . S
C1332 C1334 1.419 . S
C1333 C1328 1.425 . S
C1333 C1330 1.409 . S
C1333 C1331 1.415 . S
C1334 H1324 0.930 . S
C1334 C1332 1.419 . S
C1334 C1335 1.362 . S
C1335 H1325 0.930 . S
C1335 C1328 1.409 . S
C1335 C1334 1.362 . S
H1336 C1342 0.930 . S
H1337 C1345 0.930 . S
H1338 C1346 0.930 . S
H1339 C1347 0.930 . S
H1340 C1350 0.930 . S
H1341 C1351 0.930 . S
C1342 H1336 0.930 . S
C1342 C1343 1.355 . S
C1342 C1344 1.415 . S
C1343 C1342 1.355 . S
C1343 C1345 1.419 . S
C1344 C1342 1.415 . S
C1344 C1349 1.425 . S
C1344 C1351 1.409 . S
C1345 H1337 0.930 . S
C1345 C1343 1.419 . S
C1345 C1346 1.362 . S
C1346 H1338 0.930 . S
C1346 C1345 1.362 . S
C1346 C1349 1.409 . S
C1347 H1339 0.930 . S
C1347 C1348 1.355 . S
C1347 C1349 1.415 . S
C1348 C1347 1.355 . S
C1348 C1350 1.419 . S
C1349 C1344 1.425 . S
C1349 C1346 1.409 . S
C1349 C1347 1.415 . S
C1350 H1340 0.930 . S
C1350 C1348 1.419 . S
C1350 C1351 1.362 . S
C1351 H1341 0.930 . S
C1351 C1344 1.409 . S
C1351 C1350 1.362 . S
H1352 C1358 0.930 . S
H1353 C1361 0.930 . S
H1354 C1362 0.930 . S
H1355 C1363 0.930 . S
H1356 C1366 0.930 . S
H1357 C1367 0.930 . S
C1358 H1352 0.930 . S
C1358 C1359 1.355 . S
C1358 C1360 1.415 . S
C1359 C1358 1.355 . S
C1359 C1361 1.419 . S
C1360 C1358 1.415 . S
C1360 C1365 1.425 . S
C1360 C1367 1.409 . S
C1361 H1353 0.930 . S
C1361 C1359 1.419 . S
C1361 C1362 1.362 . S
C1362 H1354 0.930 . S
C1362 C1361 1.362 . S
C1362 C1365 1.409 . S
C1363 H1355 0.930 . S
C1363 C1364 1.355 . S
C1363 C1365 1.415 . S
C1364 C1363 1.355 . S
C1364 C1366 1.419 . S
C1365 C1360 1.425 . S
C1365 C1362 1.409 . S
C1365 C1363 1.415 . S
C1366 H1356 0.930 . S
C1366 C1364 1.419 . S
C1366 C1367 1.362 . S
C1367 H1357 0.930 . S
C1367 C1360 1.409 . S
C1367 C1366 1.362 . S
H1368 C1374 0.930 . S
H1369 C1377 0.930 . S
H1370 C1378 0.930 . S
H1371 C1379 0.930 . S
H1372 C1382 0.930 . S
H1373 C1383 0.930 . S
C1374 H1368 0.930 . S
C1374 C1375 1.355 . S
C1374 C1376 1.415 . S
C1375 C1374 1.355 . S
C1375 C1377 1.419 . S
C1376 C1374 1.415 . S
C1376 C1381 1.425 . S
C1376 C1383 1.409 . S
C1377 H1369 0.930 . S
C1377 C1375 1.419 . S
C1377 C1378 1.362 . S
C1378 H1370 0.930 . S
C1378 C1377 1.362 . S
C1378 C1381 1.409 . S
C1379 H1371 0.930 . S
C1379 C1380 1.355 . S
C1379 C1381 1.415 . S
C1380 C1379 1.355 . S
C1380 C1382 1.419 . S
C1381 C1376 1.425 . S
C1381 C1378 1.409 . S
C1381 C1379 1.415 . S
C1382 H1372 0.930 . S
C1382 C1380 1.419 . S
C1382 C1383 1.362 . S
C1383 H1373 0.930 . S
C1383 C1376 1.409 . S
C1383 C1382 1.362 . S
H1384 C1390 0.930 . S
H1385 C1393 0.930 . S
H1386 C1394 0.930 . S
H1387 C1395 0.930 . S
H1388 C1398 0.930 . S
H1389 C1399 0.930 . S
C1390 H1384 0.930 . S
C1390 C1391 1.355 . S
C1390 C1392 1.415 . S
C1391 C1390 1.355 . S
C1391 C1393 1.419 . S
C1392 C1390 1.415 . S
C1392 C1397 1.425 . S
C1392 C1399 1.409 . S
C1393 H1385 0.930 . S
C1393 C1391 1.419 . S
C1393 C1394 1.362 . S
C1394 H1386 0.930 . S
C1394 C1393 1.362 . S
C1394 C1397 1.409 . S
C1395 H1387 0.930 . S
C1395 C1396 1.355 . S
C1395 C1397 1.415 . S
C1396 C1395 1.355 . S
C1396 C1398 1.419 . S
C1397 C1392 1.425 . S
C1397 C1394 1.409 . S
C1397 C1395 1.415 . S
C1398 H1388 0.930 . S
C1398 C1396 1.419 . S
C1398 C1399 1.362 . S
C1399 H1389 0.930 . S
C1399 C1392 1.409 . S
C1399 C1398 1.362 . S
H1400 C1406 0.930 . S
H1401 C1409 0.930 . S
H1402 C1410 0.930 . S
H1403 C1411 0.930 . S
H1404 C1414 0.930 . S
H1405 C1415 0.930 . S
C1406 H1400 0.930 . S
C1406 C1407 1.355 . S
C1406 C1408 1.415 . S
C1407 C1406 1.355 . S
C1407 C1409 1.419 . S
C1408 C1406 1.415 . S
C1408 C1413 1.425 . S
C1408 C1415 1.409 . S
C1409 H1401 0.930 . S
C1409 C1407 1.419 . S
C1409 C1410 1.362 . S
C1410 H1402 0.930 . S
C1410 C1409 1.362 . S
C1410 C1413 1.409 . S
C1411 H1403 0.930 . S
C1411 C1412 1.355 . S
C1411 C1413 1.415 . S
C1412 C1411 1.355 . S
C1412 C1414 1.419 . S
C1413 C1408 1.425 . S
C1413 C1410 1.409 . S
C1413 C1411 1.415 . S
C1414 H1404 0.930 . S
C1414 C1412 1.419 . S
C1414 C1415 1.362 . S
C1415 H1405 0.930 . S
C1415 C1408 1.409 . S
C1415 C1414 1.362 . S
H1416 C1422 0.930 . S
H1417 C1425 0.930 . S
H1418 C1426 0.930 . S
H1419 C1427 0.930 . S
H1420 C1430 0.930 . S
H1421 C1431 0.930 . S
C1422 H1416 0.930 . S
C1422 C1423 1.355 . S
C1422 C1424 1.415 . S
C1423 C1422 1.355 . S
C1423 C1425 1.419 . S
C1424 C1422 1.415 . S
C1424 C1429 1.425 . S
C1424 C1431 1.409 . S
C1425 H1417 0.930 . S
C1425 C1423 1.419 . S
C1425 C1426 1.362 . S
C1426 H1418 0.930 . S
C1426 C1425 1.362 . S
C1426 C1429 1.409 . S
C1427 H1419 0.930 . S
C1427 C1428 1.355 . S
C1427 C1429 1.415 . S
C1428 C1427 1.355 . S
C1428 C1430 1.419 . S
C1429 C1424 1.425 . S
C1429 C1426 1.409 . S
C1429 C1427 1.415 . S
C1430 H1420 0.930 . S
C1430 C1428 1.419 . S
C1430 C1431 1.362 . S
C1431 H1421 0.930 . S
C1431 C1424 1.409 . S
C1431 C1430 1.362 . S
H1432 C1438 0.930 . S
H1433 C1441 0.930 . S
H1434 C1442 0.930 . S
H1435 C1443 0.930 . S
H1436 C1446 0.930 . S
H1437 C1447 0.930 . S
C1438 H1432 0.930 . S
C1438 C1439 1.355 . S
C1438 C1440 1.415 . S
C1439 C1438 1.355 . S
C1439 C1441 1.419 . S
C1440 C1438 1.415 . S
C1440 C1445 1.425 . S
C1440 C1447 1.409 . S
C1441 H1433 0.930 . S
C1441 C1439 1.419 . S
C1441 C1442 1.362 . S
C1442 H1434 0.930 . S
C1442 C1441 1.362 . S
C1442 C1445 1.409 . S
C1443 H1435 0.930 . S
C1443 C1444 1.355 . S
C1443 C1445 1.415 . S
C1444 C1443 1.355 . S
C1444 C1446 1.419 . S
C1445 C1440 1.425 . S
C1445 C1442 1.409 . S
C1445 C1443 1.415 . S
C1446 H1436 0.930 . S
C1446 C1444 1.419 . S
C1446 C1447 1.362 . S
C1447 H1437 0.930 . S
C1447 C1440 1.409 . S
C1447 C1446 1.362 . S
H1448 C1454 0.930 . S
H1449 C1457 0.930 . S
H1450 C1458 0.930 . S
H1451 C1459 0.930 . S
H1452 C1462 0.930 . S
H1453 C1463 0.930 . S
C1454 H1448 0.930 . S
C1454 C1455 1.355 . S
C1454 C1456 1.415 . S
C1455 C1454 1.355 . S
C1455 C1457 1.419 . S
C1456 C1454 1.415 . S
C1456 C1461 1.425 . S
C1456 C1463 1.409 . S
C1457 H1449 0.930 . S
C1457 C1455 1.419 . S
C1457 C1458 1.362 . S
C1458 H1450 0.930 . S
C1458 C1457 1.362 . S
C1458 C1461 1.409 . S
C1459 H1451 0.930 . S
C1459 C1460 1.355 . S
C1459 C1461 1.415 . S
C1460 C1459 1.355 . S
C1460 C1462 1.419 . S
C1461 C1456 1.425 . S
C1461 C1458 1.409 . S
C1461 C1459 1.415 . S
C1462 H1452 0.930 . S
C1462 C1460 1.419 . S
C1462 C1463 1.362 . S
C1463 H1453 0.930 . S
C1463 C1456 1.409 . S
C1463 C1462 1.362 . S
H1464 C1470 0.930 . S
H1465 C1473 0.930 . S
H1466 C1474 0.930 . S
H1467 C1475 0.930 . S
H1468 C1478 0.930 . S
H1469 C1479 0.930 . S
C1470 H1464 0.930 . S
C1470 C1471 1.355 . S
C1470 C1472 1.415 . S
C1471 C1470 1.355 . S
C1471 C1473 1.419 . S
C1472 C1470 1.415 . S
C1472 C1477 1.425 . S
C1472 C1479 1.409 . S
C1473 H1465 0.930 . S
C1473 C1471 1.419 . S
C1473 C1474 1.362 . S
C1474 H1466 0.930 . S
C1474 C1473 1.362 . S
C1474 C1477 1.409 . S
C1475 H1467 0.930 . S
C1475 C1476 1.355 . S
C1475 C1477 1.415 . S
C1476 C1475 1.355 . S
C1476 C1478 1.419 . S
C1477 C1472 1.425 . S
C1477 C1474 1.409 . S
C1477 C1475 1.415 . S
C1478 H1468 0.930 . S
C1478 C1476 1.419 . S
C1478 C1479 1.362 . S
C1479 H1469 0.930 . S
C1479 C1472 1.409 . S
C1479 C1478 1.362 . S
H1480 C1486 0.930 . S
H1481 C1489 0.930 . S
H1482 C1490 0.930 . S
H1483 C1491 0.930 . S
H1484 C1494 0.930 . S
H1485 C1495 0.930 . S
C1486 H1480 0.930 . S
C1486 C1487 1.355 . S
C1486 C1488 1.415 . S
C1487 C1486 1.355 . S
C1487 C1489 1.419 . S
C1488 C1486 1.415 . S
C1488 C1493 1.425 . S
C1488 C1495 1.409 . S
C1489 H1481 0.930 . S
C1489 C1487 1.419 . S
C1489 C1490 1.362 . S
C1490 H1482 0.930 . S
C1490 C1489 1.362 . S
C1490 C1493 1.409 . S
C1491 H1483 0.930 . S
C1491 C1492 1.355 . S
C1491 C1493 1.415 . S
C1492 C1491 1.355 . S
C1492 C1494 1.419 . S
C1493 C1488 1.425 . S
C1493 C1490 1.409 . S
C1493 C1491 1.415 . S
C1494 H1484 0.930 . S
C1494 C1492 1.419 . S
C1494 C1495 1.362 . S
C1495 H1485 0.930 . S
C1495 C1488 1.409 . S
C1495 C1494 1.362 . S
H1496 C1502 0.930 . S
H1497 C1505 0.930 . S
H1498 C1506 0.930 . S
H1499 C1507 0.930 . S
H1500 C1510 0.930 . S
H1501 C1511 0.930 . S
C1502 H1496 0.930 . S
C1502 C1503 1.355 . S
C1502 C1504 1.415 . S
C1503 C1502 1.355 . S
C1503 C1505 1.419 . S
C1504 C1502 1.415 . S
C1504 C1509 1.425 . S
C1504 C1511 1.409 . S
C1505 H1497 0.930 . S
C1505 C1503 1.419 . S
C1505 C1506 1.362 . S
C1506 H1498 0.930 . S
C1506 C1505 1.362 . S
C1506 C1509 1.409 . S
C1507 H1499 0.930 . S
C1507 C1508 1.355 . S
C1507 C1509 1.415 . S
C1508 C1507 1.355 . S
C1508 C1510 1.419 . S
C1509 C1504 1.425 . S
C1509 C1506 1.409 . S
C1509 C1507 1.415 . S
C1510 H1500 0.930 . S
C1510 C1508 1.419 . S
C1510 C1511 1.362 . S
C1511 H1501 0.930 . S
C1511 C1504 1.409 . S
C1511 C1510 1.362 . S
H1512 C1518 0.930 . S
H1513 C1521 0.930 . S
H1514 C1522 0.930 . S
H1515 C1523 0.930 . S
H1516 C1526 0.930 . S
H1517 C1527 0.930 . S
C1518 H1512 0.930 . S
C1518 C1519 1.355 . S
C1518 C1520 1.415 . S
C1519 C1518 1.355 . S
C1519 C1521 1.419 . S
C1520 C1518 1.415 . S
C1520 C1525 1.425 . S
C1520 C1527 1.409 . S
C1521 H1513 0.930 . S
C1521 C1519 1.419 . S
C1521 C1522 1.362 . S
C1522 H1514 0.930 . S
C1522 C1521 1.362 . S
C1522 C1525 1.409 . S
C1523 H1515 0.930 . S
C1523 C1524 1.355 . S
C1523 C1525 1.415 . S
C1524 C1523 1.355 . S
C1524 C1526 1.419 . S
C1525 C1520 1.425 . S
C1525 C1522 1.409 . S
C1525 C1523 1.415 . S
C1526 H1516 0.930 . S
C1526 C1524 1.419 . S
C1526 C1527 1.362 . S
C1527 H1517 0.930 . S
C1527 C1520 1.409 . S
C1527 C1526 1.362 . S
H1528 C1534 0.930 . S
H1529 C1537 0.930 . S
H1530 C1538 0.930 . S
H1531 C1539 0.930 . S
H1532 C1542 0.930 . S
H1533 C1543 0.930 . S
C1534 H1528 0.930 . S
C1534 C1535 1.355 . S
C1534 C1536 1.415 . S
C1535 C1534 1.355 . S
C1535 C1537 1.419 . S
C1536 C1534 1.415 . S
C1536 C1541 1.425 . S
C1536 C1543 1.409 . S
C1537 H1529 0.930 . S
C1537 C1535 1.419 . S
C1537 C1538 1.362 . S
C1538 H1530 0.930 . S
C1538 C1537 1.362 . S
C1538 C1541 1.409 . S
C1539 H1531 0.930 . S
C1539 C1540 1.355 . S
C1539 C1541 1.415 . S
C1540 C1539 1.355 . S
C1540 C1542 1.419 . S
C1541 C1536 1.425 . S
C1541 C1538 1.409 . S
C1541 C1539 1.415 . S
C1542 H1532 0.930 . S
C1542 C1540 1.419 . S
C1542 C1543 1.362 . S
C1543 H1533 0.930 . S
C1543 C1536 1.409 . S
C1543 C1542 1.362 . S
H1544 C1550 0.930 . S
H1545 C1553 0.930 . S
H1546 C1554 0.930 . S
H1547 C1555 0.930 . S
H1548 C1558 0.930 . S
H1549 C1559 0.930 . S
C1550 H1544 0.930 . S
C1550 C1551 1.355 . S
C1550 C1552 1.415 . S
C1551 C1550 1.355 . S
C1551 C1553 1.419 . S
C1552 C1550 1.415 . S
C1552 C1557 1.425 . S
C1552 C1559 1.409 . S
C1553 H1545 0.930 . S
C1553 C1551 1.419 . S
C1553 C1554 1.362 . S
C1554 H1546 0.930 . S
C1554 C1553 1.362 . S
C1554 C1557 1.409 . S
C1555 H1547 0.930 . S
C1555 C1556 1.355 . S
C1555 C1557 1.415 . S
C1556 C1555 1.355 . S
C1556 C1558 1.419 . S
C1557 C1552 1.425 . S
C1557 C1554 1.409 . S
C1557 C1555 1.415 . S
C1558 H1548 0.930 . S
C1558 C1556 1.419 . S
C1558 C1559 1.362 . S
C1559 H1549 0.930 . S
C1559 C1552 1.409 . S
C1559 C1558 1.362 . S
H1560 C1566 0.930 . S
H1561 C1569 0.930 . S
H1562 C1570 0.930 . S
H1563 C1571 0.930 . S
H1564 C1574 0.930 . S
H1565 C1575 0.930 . S
C1566 H1560 0.930 . S
C1566 C1567 1.355 . S
C1566 C1568 1.415 . S
C1567 C1566 1.355 . S
C1567 C1569 1.419 . S
C1568 C1566 1.415 . S
C1568 C1573 1.425 . S
C1568 C1575 1.409 . S
C1569 H1561 0.930 . S
C1569 C1567 1.419 . S
C1569 C1570 1.362 . S
C1570 H1562 0.930 . S
C1570 C1569 1.362 . S
C1570 C1573 1.409 . S
C1571 H1563 0.930 . S
C1571 C1572 1.355 . S
C1571 C1573 1.415 . S
C1572 C1571 1.355 . S
C1572 C1574 1.419 . S
C1573 C1568 1.425 . S
C1573 C1570 1.409 . S
C1573 C1571 1.415 . S
C1574 H1564 0.930 . S
C1574 C1572 1.419 . S
C1574 C1575 1.362 . S
C1575 H1565 0.930 . S
C1575 C1568 1.409 . S
C1575 C1574 1.362 . S
H1576 C1582 0.930 . S
H1577 C1585 0.930 . S
H1578 C1586 0.930 . S
H1579 C1587 0.930 . S
H1580 C1590 0.930 . S
H1581 C1591 0.930 . S
C1582 H1576 0.930 . S
C1582 C1583 1.355 . S
C1582 C1584 1.415 . S
C1583 C1582 1.355 . S
C1583 C1585 1.419 . S
C1584 C1582 1.415 . S
C1584 C1589 1.425 . S
C1584 C1591 1.409 . S
C1585 H1577 0.930 . S
C1585 C1583 1.419 . S
C1585 C1586 1.362 . S
C1586 H1578 0.930 . S
C1586 C1585 1.362 . S
C1586 C1589 1.409 . S
C1587 H1579 0.930 . S
C1587 C1588 1.355 . S
C1587 C1589 1.415 . S
C1588 C1587 1.355 . S
C1588 C1590 1.419 . S
C1589 C1584 1.425 . S
C1589 C1586 1.409 . S
C1589 C1587 1.415 . S
C1590 H1580 0.930 . S
C1590 C1588 1.419 . S
C1590 C1591 1.362 . S
C1591 H1581 0.930 . S
C1591 C1584 1.409 . S
C1591 C1590 1.362 . S
H1592 C1598 0.930 . S
H1593 C1601 0.930 . S
H1594 C1602 0.930 . S
H1595 C1603 0.930 . S
H1596 C1606 0.930 . S
H1597 C1607 0.930 . S
C1598 H1592 0.930 . S
C1598 C1599 1.355 . S
C1598 C1600 1.415 . S
C1599 C1598 1.355 . S
C1599 C1601 1.419 . S
C1600 C1598 1.415 . S
C1600 C1605 1.425 . S
C1600 C1607 1.409 . S
C1601 H1593 0.930 . S
C1601 C1599 1.419 . S
C1601 C1602 1.362 . S
C1602 H1594 0.930 . S
C1602 C1601 1.362 . S
C1602 C1605 1.409 . S
C1603 H1595 0.930 . S
C1603 C1604 1.355 . S
C1603 C1605 1.415 . S
C1604 C1603 1.355 . S
C1604 C1606 1.419 . S
C1605 C1600 1.425 . S
C1605 C1602 1.409 . S
C1605 C1603 1.415 . S
C1606 H1596 0.930 . S
C1606 C1604 1.419 . S
C1606 C1607 1.362 . S
C1607 H1597 0.930 . S
C1607 C1600 1.409 . S
C1607 C1606 1.362 . S
H1608 C1614 0.930 . S
H1609 C1617 0.930 . S
H1610 C1618 0.930 . S
H1611 C1619 0.930 . S
H1612 C1622 0.930 . S
H1613 C1623 0.930 . S
C1614 H1608 0.930 . S
C1614 C1615 1.355 . S
C1614 C1616 1.415 . S
C1615 C1614 1.355 . S
C1615 C1617 1.419 . S
C1616 C1614 1.415 . S
C1616 C1621 1.425 . S
C1616 C1623 1.409 . S
C1617 H1609 0.930 . S
C1617 C1615 1.419 . S
C1617 C1618 1.362 . S
C1618 H1610 0.930 . S
C1618 C1617 1.362 . S
C1618 C1621 1.409 . S
C1619 H1611 0.930 . S
C1619 C1620 1.355 . S
C1619 C1621 1.415 . S
C1620 C1619 1.355 . S
C1620 C1622 1.419 . S
C1621 C1616 1.425 . S
C1621 C1618 1.409 . S
C1621 C1619 1.415 . S
C1622 H1612 0.930 . S
C1622 C1620 1.419 . S
C1622 C1623 1.362 . S
C1623 H1613 0.930 . S
C1623 C1616 1.409 . S
C1623 C1622 1.362 . S
H1624 C1630 0.930 . S
H1625 C1633 0.930 . S
H1626 C1634 0.930 . S
H1627 C1635 0.930 . S
H1628 C1638 0.930 . S
H1629 C1639 0.930 . S
C1630 H1624 0.930 . S
C1630 C1631 1.355 . S
C1630 C1632 1.415 . S
C1631 C1630 1.355 . S
C1631 C1633 1.419 . S
C1632 C1630 1.415 . S
C1632 C1637 1.425 . S
C1632 C1639 1.409 . S
C1633 H1625 0.930 . S
C1633 C1631 1.419 . S
C1633 C1634 1.362 . S
C1634 H1626 0.930 . S
C1634 C1633 1.362 . S
C1634 C1637 1.409 . S
C1635 H1627 0.930 . S
C1635 C1636 1.355 . S
C1635 C1637 1.415 . S
C1636 C1635 1.355 . S
C1636 C1638 1.419 . S
C1637 C1632 1.425 . S
C1637 C1634 1.409 . S
C1637 C1635 1.415 . S
C1638 H1628 0.930 . S
C1638 C1636 1.419 . S
C1638 C1639 1.362 . S
C1639 H1629 0.930 . S
C1639 C1632 1.409 . S
C1639 C1638 1.362 . S
H1640 C1646 0.930 . S
H1641 C1649 0.930 . S
H1642 C1650 0.930 . S
H1643 C1651 0.930 . S
H1644 C1654 0.930 . S
H1645 C1655 0.930 . S
C1646 H1640 0.930 . S
C1646 C1647 1.355 . S
C1646 C1648 1.415 . S
C1647 C1646 1.355 . S
C1647 C1649 1.419 . S
C1648 C1646 1.415 . S
C1648 C1653 1.425 . S
C1648 C1655 1.409 . S
C1649 H1641 0.930 . S
C1649 C1647 1.419 . S
C1649 C1650 1.362 . S
C1650 H1642 0.930 . S
C1650 C1649 1.362 . S
C1650 C1653 1.409 . S
C1651 H1643 0.930 . S
C1651 C1652 1.355 . S
C1651 C1653 1.415 . S
C1652 C1651 1.355 . S
C1652 C1654 1.419 . S
C1653 C1648 1.425 . S
C1653 C1650 1.409 . S
C1653 C1651 1.415 . S
C1654 H1644 0.930 . S
C1654 C1652 1.419 . S
C1654 C1655 1.362 . S
C1655 H1645 0.930 . S
C1655 C1648 1.409 . S
C1655 C1654 1.362 . S
C511 C7 1.403 . S
C516 C259 1.403 . S
C527 C273 1.374 . S
C532 C21 1.374 . S
C543 C287 1.398 . S
C548 C35 1.398 . S
C559 C49 1.376 . S
C564 C469 1.376 . S
C575 C63 1.404 . S
C580 C483 1.404 . S
C591 C77 1.429 . S
C596 C497 1.429 . S
C607 C343 1.413 . S
C612 C91 1.413 . S
C623 C105 1.373 . S
C628 C357 1.373 . S
C639 C119 1.412 . S
C644 C371 1.412 . S
C655 C217 1.403 . S
C660 C133 1.403 . S
C671 C231 1.400 . S
C676 C147 1.400 . S
C687 C245 1.433 . S
C692 C161 1.433 . S
C703 C427 1.411 . S
C708 C175 1.411 . S
C719 C441 1.392 . S
C724 C189 1.392 . S
C735 C203 1.433 . S
C740 C455 1.433 . S
C751 C385 1.406 . S
C756 C301 1.406 . S
C767 C315 1.425 . S
C772 C399 1.425 . S
C783 C329 1.374 . S
C788 C413 1.374 . S
C799 C8 1.430 . S
C804 C386 1.448 . S
C815 C400 1.432 . S
C820 C22 1.411 . S
C831 C414 1.425 . S
C836 C36 1.411 . S
C847 C176 1.440 . S
C852 C50 1.414 . S
C863 C190 1.447 . S
C868 C64 1.425 . S
C879 C204 1.413 . S
C884 C78 1.438 . S
C895 C92 1.447 . S
C900 C302 1.425 . S
C911 C316 1.445 . S
C916 C106 1.441 . S
C927 C330 1.412 . S
C932 C120 1.436 . S
C943 C134 1.412 . S
C948 C428 1.422 . S
C959 C148 1.447 . S
C964 C442 1.434 . S
C975 C162 1.443 . S
C980 C456 1.442 . S
C991 C218 1.415 . S
C996 C344 1.441 . S
C1007 C232 1.439 . S
C1012 C358 1.414 . S
C1023 C246 1.429 . S
C1028 C372 1.448 . S
C1039 C260 1.440 . S
C1044 C470 1.415 . S
C1055 C484 1.448 . S
C1060 C274 1.428 . S
C1071 C288 1.436 . S
C1076 C498 1.447 . S
C1087 C17 1.148 . S
C1092 C9 1.015 . S
C1103 C23 1.021 . S
C1108 C31 1.156 . S
C1119 C37 1.053 . S
C1124 C3 1.114 . S
C1135 C51 1.015 . S
C1140 C73 1.127 . S
C1151 C45 1.115 . S
C1156 C65 1.042 . S
C1167 C79 1.123 . S
C1172 C59 1.132 . S
C1183 C93 1.102 . S
C1188 C101 1.122 . S
C1199 C107 1.023 . S
C1204 C115 1.121 . S
C1215 C121 1.092 . S
C1220 C87 1.188 . S
C1231 C157 1.117 . S
C1236 C135 1.087 . S
C1247 C149 1.151 . S
C1252 C129 1.174 . S
C1263 C143 1.163 . S
C1268 C163 1.028 . S
C1279 C185 1.177 . S
C1284 C177 1.052 . S
C1295 C199 1.154 . S
C1300 C191 1.148 . S
C1311 C171 1.150 . S
C1316 C205 1.016 . S
C1327 C219 1.069 . S
C1332 C241 1.183 . S
C1343 C233 1.145 . S
C1348 C213 1.150 . S
C1359 C247 1.113 . S
C1364 C227 1.190 . S
C1375 C269 1.185 . S
C1380 C261 1.077 . S
C1391 C275 1.011 . S
C1396 C283 1.137 . S
C1407 C289 1.023 . S
C1412 C255 1.158 . S
C1423 C303 1.069 . S
C1428 C325 1.114 . S
C1439 C317 1.036 . S
C1444 C297 1.116 . S
C1455 C311 1.152 . S
C1460 C331 1.147 . S
C1471 C353 1.114 . S
C1476 C345 1.062 . S
C1487 C359 1.149 . S
C1492 C367 1.178 . S
C1503 C339 1.139 . S
C1508 C373 1.134 . S
C1519 C387 1.060 . S
C1524 C409 1.180 . S
C1535 C401 1.134 . S
C1540 C381 1.139 . S
C1551 C415 1.146 . S
C1556 C395 1.181 . S
C1567 C429 1.015 . S
C1572 C437 1.150 . S
C1583 C443 1.116 . S
C1588 C451 1.190 . S
C1599 C457 1.140 . S
C1604 C423 1.144 . S
C1615 C471 1.011 . S
C1620 C493 1.136 . S
C1631 C485 1.083 . S
C1636 C465 1.117 . S
C1647 C479 1.144 . S
C1652 C499 1.013 . S
