# Generated by pormake.
# Topology sqp, (5)-cn, num edge types: 1
# Building blocks:
#     Node 0, Type 0, BuildingBlock: XOMCOT_clean_sbu_0, # of connection points: 5
#     Node 1, Type 0, BuildingBlock: XOMCOT_clean_sbu_0, # of connection points: 5
#     Node 2, Type 0, BuildingBlock: XOMCOT_clean_sbu_0, # of connection points: 5
#     Node 3, Type 0, BuildingBlock: XOMCOT_clean_sbu_0, # of connection points: 5
#     Edge 4, Type (0, 0), BuildingBlock: MIFKUJ_clean_linker_0, # of connection points: 2
#     Edge 5, Type (0, 0), BuildingBlock: MIFKUJ_clean_linker_0, # of connection points: 2
#     Edge 6, Type (0, 0), BuildingBlock: MIFKUJ_clean_linker_0, # of connection points: 2
#     Edge 7, Type (0, 0), BuildingBlock: MIFKUJ_clean_linker_0, # of connection points: 2
#     Edge 8, Type (0, 0), BuildingBlock: MIFKUJ_clean_linker_0, # of connection points: 2
#     Edge 9, Type (0, 0), BuildingBlock: MIFKUJ_clean_linker_0, # of connection points: 2
#     Edge 10, Type (0, 0), BuildingBlock: MIFKUJ_clean_linker_0, # of connection points: 2
#     Edge 11, Type (0, 0), BuildingBlock: MIFKUJ_clean_linker_0, # of connection points: 2
#     Edge 12, Type (0, 0), BuildingBlock: MIFKUJ_clean_linker_0, # of connection points: 2
#     Edge 13, Type (0, 0), BuildingBlock: MIFKUJ_clean_linker_0, # of connection points: 2
# Relax obj value: 0.119
# Max RMSD: 0.202
# Mean RMSD: 0.202
data_MOF--net-sqp--node1-XOMCOT_clean_sbu_0--edge1-MIFKUJ_clean_linker_0
_symmetry_space_group_name_H-M    P1
_symmetry_Int_Tables_number       1
_symmetry_cell_setting            triclinic
loop_
_symmetry_equiv_pos_as_xyz
'x, y, z'
_cell_length_a     30.717588
_cell_length_b     24.784986
_cell_length_c     58.98278
_cell_angle_alpha  90.446309
_cell_angle_beta   89.694501
_cell_angle_gamma 89.728579
loop_
_atom_site_label
_atom_site_type_symbol
_atom_site_fract_x
_atom_site_fract_y
_atom_site_fract_z
_atom_type_partial_charge
Co0 Co 1.00971 0.99871 0.30251 0.0
C1 C 0.9367 0.0802 0.29932 0.0
C2 C 0.99055 0.0965 0.27727 0.0
C3 C 0.95859 0.13375 0.2732 0.0
N4 N 0.97777 0.06369 0.29417 0.0
N5 N 0.92448 0.12344 0.28692 0.0
H6 H 0.91487 0.05908 0.31049 0.0
H7 H 0.02037 0.09223 0.26761 0.0
C8 C 0.07919 0.08242 0.30144 0.0
O9 O 0.05458 0.11151 0.31519 0.0
N10 N 0.04194 0.93401 0.30938 0.0
C11 C 0.03194 0.89569 0.32458 0.0
C12 C 0.06167 0.85403 0.3223 0.0
C13 C 0.0773 0.9155 0.29811 0.0
N14 N 0.09014 0.86674 0.30567 0.0
C15 C 0.97562 0.02468 0.34669 0.0
C16 C 0.05445 0.03056 0.36884 0.0
C17 C 0.01596 0.03674 0.38162 0.0
C18 C 0.9762 0.03344 0.37009 0.0
C19 C 0.05233 0.02091 0.34545 0.0
N20 N 0.01325 0.02005 0.33443 0.0
H21 H 0.94464 0.01841 0.33876 0.0
H22 H 0.08224 0.01279 0.3363 0.0
H23 H 1.00448 0.89743 0.33612 0.0
H24 H 0.09222 0.9363 0.28402 0.0
O25 O 0.95623 0.95896 0.30417 0.0
O26 O 0.99574 0.96827 0.27293 0.0
O27 O 0.06644 0.03591 0.29471 0.0
C28 C 0.96136 0.94813 0.28275 0.0
H29 H 0.96017 0.16523 0.26063 0.0
H30 H 0.0621 0.81712 0.33198 0.0
H31 H 0.08608 0.03224 0.37679 0.0
H32 H 0.94547 0.0351 0.37915 0.0
Co33 Co 0.02291 1.00285 0.70593 0.0
C34 C 0.09506 0.08294 0.71239 0.0
C35 C 0.03358 0.12081 0.70589 0.0
C36 C 0.06408 0.16033 0.70905 0.0
N37 N 0.05268 0.07202 0.70801 0.0
N38 N 0.10275 0.13669 0.71329 0.0
H39 H 0.11964 0.05256 0.71542 0.0
H40 H 0.99961 0.12787 0.70247 0.0
C41 C 0.92682 0.0303 0.70919 0.0
O42 O 0.91787 0.99128 0.69479 0.0
N43 N 0.99306 0.93382 0.70442 0.0
C44 C 0.99649 0.89418 0.6887 0.0
C45 C 0.96998 0.85212 0.69491 0.0
C46 C 0.96553 0.91435 0.72032 0.0
N47 N 0.95025 0.86501 0.71471 0.0
C48 C 0.04323 0.98806 0.65895 0.0
C49 C 0.98492 0.06087 0.64102 0.0
C50 C 0.01276 0.03239 0.62616 0.0
C51 C 0.04189 0.99526 0.63558 0.0
C52 C 0.98681 0.05169 0.66446 0.0
N53 N 0.01526 0.01475 0.67327 0.0
H54 H 0.06702 0.96011 0.66536 0.0
H55 H 0.96605 0.07578 0.67525 0.0
H56 H 0.01668 0.8948 0.67374 0.0
H57 H 0.95647 0.93637 0.73556 0.0
O58 O 0.07799 0.96525 0.70459 0.0
O59 O 0.04221 0.98374 0.73636 0.0
O60 O 0.96625 0.04072 0.71455 0.0
C61 C 0.07579 0.96126 0.72646 0.0
H62 H 0.05807 0.20332 0.70825 0.0
H63 H 0.96486 0.81543 0.68524 0.0
H64 H 0.96252 0.09102 0.63472 0.0
H65 H 0.06367 0.97137 0.62504 0.0
Co66 Co 0.51232 0.50127 0.80948 0.0
C67 C 0.43932 0.579 0.79887 0.0
C68 C 0.49761 0.61766 0.81046 0.0
C69 C 0.46738 0.65684 0.8057 0.0
N70 N 0.48049 0.56877 0.80594 0.0
N71 N 0.43082 0.63265 0.79843 0.0
H72 H 0.41625 0.54839 0.79386 0.0
H73 H 0.52994 0.62451 0.817 0.0
C74 C 0.6076 0.52922 0.79904 0.0
O75 O 0.6218 0.48385 0.80762 0.0
N76 N 0.54389 0.4337 0.81285 0.0
C77 C 0.54748 0.40315 0.83156 0.0
C78 C 0.57243 0.35823 0.82634 0.0
C79 C 0.565 0.40579 0.79632 0.0
N80 N 0.58388 0.36041 0.80425 0.0
C81 C 0.48306 0.52365 0.85415 0.0
C82 C 0.56249 0.53982 0.87471 0.0
C83 C 0.52451 0.54291 0.88808 0.0
C84 C 0.48445 0.53462 0.87734 0.0
C85 C 0.55967 0.528 0.85147 0.0
N86 N 0.52023 0.51972 0.84145 0.0
H87 H 0.45168 0.51808 0.84634 0.0
H88 H 0.58934 0.52503 0.84192 0.0
H89 H 0.53351 0.41299 0.84795 0.0
H90 H 0.56822 0.41985 0.77906 0.0
O91 O 0.45921 0.46111 0.81264 0.0
O92 O 0.49239 0.47604 0.77991 0.0
O93 O 0.56701 0.54155 0.79955 0.0
C94 C 0.46055 0.45308 0.79088 0.0
H95 H 0.47169 0.69995 0.80772 0.0
H96 H 0.58284 0.32754 0.83812 0.0
H97 H 0.59424 0.54659 0.88205 0.0
H98 H 0.45413 0.53548 0.88678 0.0
Co99 Co 0.52381 0.50018 0.2099 0.0
C100 C 0.59476 0.58132 0.20931 0.0
C101 C 0.54034 0.60685 0.22981 0.0
C102 C 0.57187 0.64586 0.23092 0.0
N103 N 0.55447 0.5666 0.21614 0.0
N104 N 0.60612 0.62982 0.21811 0.0
H105 H 0.61546 0.55681 0.19843 0.0
H106 H 0.50983 0.60727 0.23901 0.0
C107 C 0.42855 0.5324 0.21005 0.0
O108 O 0.42004 0.49686 0.19407 0.0
N109 N 0.49283 0.43295 0.20447 0.0
C110 C 0.49858 0.39568 0.18791 0.0
C111 C 0.47111 0.35302 0.1918 0.0
C112 C 0.46288 0.41129 0.21857 0.0
N113 N 0.44845 0.36291 0.21104 0.0
C114 C 0.54886 0.49366 0.16323 0.0
C115 C 0.49762 0.57661 0.14722 0.0
C116 C 0.52366 0.54732 0.13175 0.0
C117 C 0.54969 0.5056 0.14021 0.0
C118 C 0.4975 0.56288 0.17027 0.0
N119 N 0.52142 0.52004 0.17788 0.0
H120 H 0.57056 0.4626 0.16914 0.0
H121 H 0.479 0.58784 0.18189 0.0
H122 H 0.5216 0.39767 0.17415 0.0
H123 H 0.45139 0.43131 0.23384 0.0
O124 O 0.57819 0.4614 0.20936 0.0
O125 O 0.53783 0.47466 0.24013 0.0
O126 O 0.46728 0.53853 0.2174 0.0
C127 C 0.57292 0.45415 0.23096 0.0
H128 H 0.57046 0.68217 0.24123 0.0
H129 H 0.46877 0.31698 0.18141 0.0
H130 H 0.47819 0.61056 0.14169 0.0
H131 H 0.57047 0.48163 0.12915 0.0
H132 H 0.07489 0.99406 0.41179 0.0
H133 H 0.07386 1.00053 0.45293 0.0
H134 H 0.95615 0.09585 0.45042 0.0
H135 H 0.95897 0.09363 0.40913 0.0
H136 H 1.00203 0.13309 0.48262 0.0
H137 H 0.95745 0.95535 0.46266 0.0
H138 H 0.9615 0.86626 0.44384 0.0
H139 H 0.08018 0.8309 0.47899 0.0
H140 H 0.07717 0.92012 0.4978 0.0
H141 H 0.94256 0.05579 0.59877 0.0
H142 H 0.94202 0.06399 0.55737 0.0
H143 H 0.08021 0.03403 0.55517 0.0
H144 H 0.08186 0.0291 0.59637 0.0
H145 H 0.01913 0.96375 0.52606 0.0
H146 H 0.0602 0.14812 0.54521 0.0
H147 H 0.04904 0.23561 0.56461 0.0
H148 H 0.92595 0.25479 0.53138 0.0
H149 H 0.93612 0.16693 0.51203 0.0
C150 C 0.04926 0.01755 0.41982 0.0
C151 C 0.01679 0.04293 0.40687 0.0
C152 C 0.0483 0.02041 0.44351 0.0
C153 C 0.01422 0.04739 0.45494 0.0
C154 C 0.98257 0.07427 0.44211 0.0
C155 C 0.98397 0.07234 0.4184 0.0
C156 C 1.01129 0.04685 0.4802 0.0
C157 C 1.00521 0.09585 0.49202 0.0
C158 C 0.01539 0.99842 0.4927 0.0
C159 C 0.01729 0.94464 0.48147 0.0
C160 C 0.98458 0.92873 0.46626 0.0
C161 C 0.98666 0.87819 0.45561 0.0
C162 C 0.02113 0.843 0.46017 0.0
C163 C 0.05353 0.85823 0.47545 0.0
C164 C 0.05164 0.90877 0.48612 0.0
C165 C 0.97305 0.05208 0.58959 0.0
C166 C 0.01216 0.04099 0.60109 0.0
C167 C 0.97257 0.05641 0.56591 0.0
C168 C 1.01103 0.04916 0.55329 0.0
C169 C 0.05013 0.03922 0.56463 0.0
C170 C 0.05084 0.03594 0.58824 0.0
C171 C 1.01058 0.04978 0.52818 0.0
C172 C 0.01583 1.00074 0.51649 0.0
C173 C 1.00468 0.09785 0.51585 0.0
C174 C 0.99867 0.15067 0.52741 0.0
C175 C 0.03054 0.17071 0.54223 0.0
C176 C 0.02445 0.22043 0.55317 0.0
C177 C 0.98674 0.25066 0.54929 0.0
C178 C 0.95511 0.23129 0.53441 0.0
C179 C 0.96103 0.18155 0.52344 0.0
H180 H 0.98209 0.28915 0.55777 0.0
H181 H 0.02269 0.80389 0.45191 0.0
H182 H 0.45525 0.57925 0.1049 0.0
H183 H 0.45509 0.59049 0.06378 0.0
H184 H 0.5919 0.55057 0.06113 0.0
H185 H 0.59306 0.54327 0.10221 0.0
H186 H 0.57804 0.62267 0.03157 0.0
H187 H 0.50765 0.45608 0.04972 0.0
H188 H 0.45385 0.39729 0.06829 0.0
H189 H 0.34982 0.4833 0.03603 0.0
H190 H 0.40303 0.54309 0.01749 0.0
H191 H 0.58707 0.51022 0.91847 0.0
H192 H 0.58708 0.52283 0.95962 0.0
H193 H 0.46511 0.60875 0.95593 0.0
H194 H 0.46578 0.59921 0.91473 0.0
H195 H 0.46885 0.51845 0.98795 0.0
H196 H 0.54535 0.6803 0.96723 0.0
H197 H 0.60303 0.73165 0.94793 0.0
H198 H 0.70065 0.64408 0.9845 0.0
H199 H 0.64353 0.59161 1.00379 0.0
C200 C 0.48554 0.57402 0.09566 0.0
C201 C 0.52399 0.55932 0.10697 0.0
C202 C 0.48527 0.57976 0.07204 0.0
C203 C 0.52323 0.56992 0.05917 0.0
C204 C 0.56204 0.55787 0.07055 0.0
C205 C 0.5625 0.55298 0.09412 0.0
C206 C 0.52247 0.57007 0.03388 0.0
C207 C 0.55432 0.59948 0.0221 0.0
C208 C 0.49134 0.54032 0.02133 0.0
C209 C 0.45928 0.50444 0.03243 0.0
C210 C 0.47328 0.4627 0.04672 0.0
C211 C 0.4429 0.42917 0.05722 0.0
C212 C 0.39844 0.43666 0.0534 0.0
C213 C 0.38427 0.47762 0.03901 0.0
C214 C 0.41452 0.51133 0.0285 0.0
C215 C 0.56068 0.53292 0.92624 0.0
C216 C 0.52625 0.55329 0.91308 0.0
C217 C 0.56063 0.53972 0.94983 0.0
C218 C 0.52599 0.5665 0.96078 0.0
C219 C 0.49198 0.5876 0.94779 0.0
C220 C 0.49233 0.58167 0.9242 0.0
C221 C 0.52444 0.57067 0.98587 0.0
C222 C 0.49224 0.54193 0.99754 0.0
C223 C 0.55579 0.59997 0.99828 0.0
C224 C 0.59016 0.63166 0.98679 0.0
C225 C 0.57912 0.67164 0.97101 0.0
C226 C 0.61172 0.70103 0.9601 0.0
C227 C 0.65549 0.69104 0.96494 0.0
C228 C 0.66674 0.65173 0.98075 0.0
C229 C 0.63427 0.62219 0.99169 0.0
H230 H 0.68067 0.71384 0.95648 0.0
H231 H 0.37497 0.41065 0.06154 0.0
H232 H 0.1211 0.05945 0.26147 0.0
H233 H 0.18633 0.10285 0.24629 0.0
H234 H 0.19658 0.19847 0.30753 0.0
H235 H 0.13007 0.15739 0.3221 0.0
H236 H 0.20921 0.2601 0.27429 0.0
H237 H 0.26525 0.08395 0.29263 0.0
H238 H 0.26671 0.98445 0.29123 0.0
H239 H 0.28667 0.98834 0.21916 0.0
H240 H 0.28443 0.08777 0.22005 0.0
H241 H 0.42092 0.36215 0.25499 0.0
H242 H 0.36146 0.30912 0.27093 0.0
H243 H 0.34023 0.23449 0.20568 0.0
H244 H 0.39915 0.28769 0.18952 0.0
H245 H 0.3346 0.16098 0.24048 0.0
H246 H 0.27794 0.33771 0.22283 0.0
H247 H 0.27663 0.43718 0.22481 0.0
H248 H 0.25848 0.43067 0.29697 0.0
H249 H 0.26079 0.33154 0.2955 0.0
C250 C 0.13756 0.08942 0.27173 0.0
C251 C 0.12054 0.1051 0.29295 0.0
C252 C 0.17501 0.11406 0.2631 0.0
C253 C 0.19698 0.15358 0.27586 0.0
C254 C 0.18032 0.1683 0.29728 0.0
C255 C 0.14235 0.14467 0.30565 0.0
C256 C 0.23612 0.18148 0.26663 0.0
C257 C 0.23686 0.23817 0.26726 0.0
C258 C 0.27194 0.15324 0.25684 0.0
C259 C 0.27427 0.09337 0.25639 0.0
C260 C 0.2697 0.06358 0.27646 0.0
C261 C 0.27063 0.00716 0.27575 0.0
C262 C 0.27659 0.98004 0.2551 0.0
C263 C 0.28188 0.00932 0.23514 0.0
C264 C 0.28081 0.06572 0.23573 0.0
C265 C 0.4036 0.33466 0.24397 0.0
C266 C 0.41482 0.32967 0.22088 0.0
C267 C 0.36971 0.30411 0.25316 0.0
C268 C 0.34614 0.26814 0.23944 0.0
C269 C 0.35807 0.26182 0.2166 0.0
C270 C 0.3919 0.29234 0.20739 0.0
C271 C 0.30768 0.23918 0.24859 0.0
C272 C 0.30697 0.18254 0.24774 0.0
C273 C 0.27195 0.26732 0.25833 0.0
C274 C 0.26998 0.32716 0.25908 0.0
C275 C 0.27406 0.35757 0.23915 0.0
C276 C 0.27318 0.41396 0.24018 0.0
C277 C 0.26773 0.44038 0.26102 0.0
C278 C 0.26297 0.41042 0.28084 0.0
C279 C 0.26406 0.3541 0.27992 0.0
H280 H 0.26703 0.48401 0.2618 0.0
H281 H 0.27722 0.93637 0.25458 0.0
H282 H 0.88913 0.17987 0.25236 0.0
H283 H 0.82372 0.23513 0.25346 0.0
H284 H 0.79812 0.18536 0.32206 0.0
H285 H 0.86531 0.13074 0.32149 0.0
H286 H 0.72187 0.18863 0.28533 0.0
H287 H 0.82798 0.29541 0.32436 0.0
H288 H 0.90113 0.33318 0.33046 0.0
H289 H 0.89487 0.4131 0.26622 0.0
H290 H 0.82196 0.37505 0.25956 0.0
H291 H 0.56329 0.40488 0.27233 0.0
H292 H 0.61747 0.34829 0.29175 0.0
H293 H 0.70975 0.37821 0.23795 0.0
H294 H 0.6563 0.43391 0.21864 0.0
H295 H 0.747 0.38585 0.28014 0.0
H296 H 0.65133 0.26549 0.23782 0.0
H297 H 0.57994 0.22573 0.22887 0.0
H298 H 0.56741 0.1706 0.29743 0.0
H299 H 0.63852 0.2108 0.30686 0.0
C300 C 0.87007 0.1807 0.26782 0.0
C301 C 0.88317 0.15157 0.28702 0.0
C302 C 0.83234 0.21201 0.26831 0.0
C303 C 0.80643 0.21463 0.28788 0.0
C304 C 0.81787 0.18376 0.3068 0.0
C305 C 0.85616 0.15255 0.30641 0.0
C306 C 0.76894 0.25233 0.2883 0.0
C307 C 0.72693 0.23191 0.28496 0.0
C308 C 0.77588 0.30862 0.28742 0.0
C309 C 0.81957 0.33212 0.29142 0.0
C310 C 0.84233 0.3207 0.31145 0.0
C311 C 0.88374 0.34222 0.31503 0.0
C312 C 0.90266 0.37547 0.29873 0.0
C313 C 0.88017 0.38735 0.27884 0.0
C314 C 0.83877 0.36587 0.27517 0.0
C315 C 0.59534 0.39972 0.26486 0.0
C316 C 0.60557 0.42349 0.24394 0.0
C317 C 0.62613 0.36735 0.2759 0.0
C318 C 0.66758 0.35898 0.26624 0.0
C319 C 0.67806 0.38425 0.24575 0.0
C320 C 0.64736 0.41586 0.23466 0.0
C321 C 0.70005 0.32217 0.2765 0.0
C322 C 0.74134 0.34282 0.28156 0.0
C323 C 0.6924 0.26618 0.27883 0.0
C324 C 0.64988 0.24177 0.27312 0.0
C325 C 0.63316 0.2453 0.25103 0.0
C326 C 0.59279 0.22263 0.24586 0.0
C327 C 0.56907 0.19584 0.26259 0.0
C328 C 0.58576 0.19151 0.28451 0.0
C329 C 0.62608 0.21423 0.28977 0.0
H330 H 0.53783 0.1783 0.25856 0.0
H331 H 0.93473 0.39209 0.30152 0.0
H332 H 0.61919 0.73737 0.21925 0.0
H333 H 0.68873 0.78385 0.22205 0.0
H334 H 0.75652 0.63152 0.21596 0.0
H335 H 0.68648 0.58454 0.21367 0.0
H336 H 0.78571 0.68634 0.25108 0.0
H337 H 0.76473 0.72617 0.17389 0.0
H338 H 0.72569 0.75509 0.13963 0.0
H339 H 0.7098 0.91412 0.16794 0.0
H340 H 0.74817 0.88599 0.20254 0.0
H341 H 0.96482 0.90985 0.23876 0.0
H342 H 0.91321 0.84789 0.22038 0.0
H343 H 0.83529 0.84658 0.28142 0.0
H344 H 0.88631 0.90735 0.29976 0.0
H345 H 0.82568 0.85478 0.21122 0.0
H346 H 0.79834 0.72329 0.29143 0.0
H347 H 0.84047 0.69206 0.32432 0.0
H348 H 0.95933 0.70901 0.28646 0.0
H349 H 0.91789 0.73949 0.25321 0.0
C350 C 0.6489 0.71379 0.21827 0.0
C351 C 0.64732 0.65725 0.21642 0.0
C352 C 0.68873 0.74048 0.21962 0.0
C353 C 0.72801 0.71132 0.21905 0.0
C354 C 0.72665 0.65493 0.21635 0.0
C355 C 0.68665 0.62814 0.2149 0.0
C356 C 0.76975 0.73958 0.22362 0.0
C357 C 0.79471 0.72277 0.24216 0.0
C358 C 0.78225 0.7865 0.21169 0.0
C359 C 0.75921 0.80383 0.19088 0.0
C360 C 0.75266 0.76722 0.17289 0.0
C361 C 0.73068 0.78349 0.15339 0.0
C362 C 0.71524 0.83639 0.15162 0.0
C363 C 0.7218 0.87315 0.16933 0.0
C364 C 0.74374 0.85708 0.18888 0.0
C365 C 0.93658 0.89638 0.24817 0.0
C366 C 0.92984 0.91318 0.27076 0.0
C367 C 0.90715 0.86107 0.23767 0.0
C368 C 0.87081 0.84184 0.24967 0.0
C369 C 0.86355 0.85993 0.27197 0.0
C370 C 0.89275 0.89494 0.28241 0.0
C371 C 0.84 0.80282 0.2393 0.0
C372 C 0.81714 0.81769 0.21977 0.0
C373 C 0.82984 0.75354 0.25006 0.0
C374 C 0.85496 0.73394 0.26984 0.0
C375 C 0.83343 0.71996 0.29005 0.0
C376 C 0.85721 0.70247 0.30878 0.0
C377 C 0.90255 0.69864 0.3075 0.0
C378 C 0.92421 0.71211 0.28745 0.0
C379 C 0.90059 0.72953 0.26866 0.0
H380 H 0.9209 0.68519 0.32203 0.0
H381 H 0.69823 0.8489 0.13651 0.0
H382 H 0.16689 0.90138 0.28854 0.0
H383 H 0.22569 0.8458 0.27254 0.0
H384 H 0.15106 0.70232 0.28604 0.0
H385 H 0.09284 0.75781 0.3026 0.0
H386 H 0.2317 0.68506 0.29663 0.0
H387 H 0.16059 0.76133 0.23159 0.0
H388 H 0.13232 0.83524 0.208 0.0
H389 H 0.26096 0.90082 0.20208 0.0
H390 H 0.28987 0.82798 0.22605 0.0
H391 H 0.3435 0.50625 0.21795 0.0
H392 H 0.28662 0.56415 0.23498 0.0
H393 H 0.37778 0.69554 0.23921 0.0
H394 H 0.43493 0.63754 0.22292 0.0
H395 H 0.29086 0.71998 0.21976 0.0
H396 H 0.36235 0.63852 0.28247 0.0
H397 H 0.38988 0.5664 0.30706 0.0
H398 H 0.25929 0.51249 0.31913 0.0
H399 H 0.2311 0.58191 0.29336 0.0
C400 C 0.16307 0.85799 0.28803 0.0
C401 C 0.12521 0.83393 0.29675 0.0
C402 C 0.19662 0.82622 0.27882 0.0
C403 C 0.19259 0.76977 0.27768 0.0
C404 C 0.15502 0.74572 0.28669 0.0
C405 C 0.12176 0.77743 0.2962 0.0
C406 C 0.22742 0.73559 0.2672 0.0
C407 C 0.24408 0.69213 0.27966 0.0
C408 C 0.24461 0.74579 0.24531 0.0
C409 C 0.22732 0.78945 0.23078 0.0
C410 C 0.18279 0.79176 0.2254 0.0
C411 C 0.16666 0.83349 0.21198 0.0
C412 C 0.1948 0.87286 0.20364 0.0
C413 C 0.23917 0.87047 0.20865 0.0
C414 C 0.25545 0.82896 0.22214 0.0
C415 C 0.35123 0.54755 0.22246 0.0
C416 C 0.39355 0.56747 0.21922 0.0
C417 C 0.31888 0.58041 0.23225 0.0
C418 C 0.32816 0.63397 0.23844 0.0
C419 C 0.37006 0.6543 0.2346 0.0
C420 C 0.40265 0.62111 0.22539 0.0
C421 C 0.29429 0.6689 0.24903 0.0
C422 C 0.2781 0.71263 0.23664 0.0
C423 C 0.27739 0.65873 0.27094 0.0
C424 C 0.29463 0.61487 0.28547 0.0
C425 C 0.33953 0.61029 0.28975 0.0
C426 C 0.35529 0.56982 0.30394 0.0
C427 C 0.32641 0.53436 0.31441 0.0
C428 C 0.28171 0.53934 0.3107 0.0
C429 C 0.26585 0.57904 0.29618 0.0
H430 H 0.33862 0.50336 0.32556 0.0
H431 H 0.18226 0.90511 0.19323 0.0
H432 H 0.42592 0.72139 0.77275 0.0
H433 H 0.36106 0.77463 0.76431 0.0
H434 H 0.28202 0.66122 0.8012 0.0
H435 H 0.34739 0.60642 0.80881 0.0
H436 H 0.23814 0.69424 0.76649 0.0
H437 H 0.31476 0.78606 0.82443 0.0
H438 H 0.37686 0.82784 0.84407 0.0
H439 H 0.38946 0.94362 0.79068 0.0
H440 H 0.32796 0.90195 0.77049 0.0
H441 H 0.06715 0.89893 0.76447 0.0
H442 H 0.12334 0.84027 0.78121 0.0
H443 H 0.2172 0.89853 0.73272 0.0
H444 H 0.16129 0.95551 0.71565 0.0
H445 H 0.24674 0.8918 0.78003 0.0
H446 H 0.17361 0.78781 0.72079 0.0
H447 H 0.10835 0.7474 0.70354 0.0
H448 H 0.08549 0.65596 0.76395 0.0
H449 H 0.15027 0.69659 0.7817 0.0
C450 C 0.39462 0.70767 0.77889 0.0
C451 C 0.39164 0.66017 0.79161 0.0
C452 C 0.35755 0.7383 0.77423 0.0
C453 C 0.31662 0.72313 0.78275 0.0
C454 C 0.31321 0.67423 0.79463 0.0
C455 C 0.35045 0.64285 0.79893 0.0
C456 C 0.27798 0.75897 0.77932 0.0
C457 C 0.23987 0.73724 0.7699 0.0
C458 C 0.27973 0.81532 0.78379 0.0
C459 C 0.31691 0.84052 0.79584 0.0
C460 C 0.33099 0.82014 0.81677 0.0
C461 C 0.36608 0.84384 0.82802 0.0
C462 C 0.38716 0.88826 0.8186 0.0
C463 C 0.37315 0.90914 0.79794 0.0
C464 C 0.33815 0.88551 0.78659 0.0
C465 C 0.09999 0.89973 0.7577 0.0
C466 C 0.10999 0.93169 0.73882 0.0
C467 C 0.13191 0.86607 0.76715 0.0
C468 C 0.17435 0.86495 0.75811 0.0
C469 C 0.18469 0.8988 0.73994 0.0
C470 C 0.15272 0.93127 0.73021 0.0
C471 C 0.208 0.82714 0.76667 0.0
C472 C 0.24505 0.8486 0.77705 0.0
C473 C 0.20493 0.77066 0.76348 0.0
C474 C 0.16642 0.74574 0.75267 0.0
C475 C 0.15444 0.75947 0.73047 0.0
C476 C 0.11758 0.73646 0.72059 0.0
C477 C 0.0927 0.69928 0.73267 0.0
C478 C 0.10473 0.68487 0.75463 0.0
C479 C 0.14151 0.70786 0.76461 0.0
H480 H 0.06417 0.68152 0.72499 0.0
H481 H 0.4143 0.90658 0.82735 0.0
H482 H 0.18578 0.09992 0.70695 0.0
H483 H 0.25327 0.14816 0.71591 0.0
H484 H 0.17789 0.28343 0.741 0.0
H485 H 0.11102 0.23586 0.73229 0.0
H486 H 0.24294 0.31811 0.71514 0.0
H487 H 0.22481 0.19035 0.77656 0.0
H488 H 0.21742 0.09918 0.79258 0.0
H489 H 0.34133 0.05372 0.76411 0.0
H490 H 0.34916 0.14449 0.74765 0.0
H491 H 0.39602 0.39697 0.81144 0.0
H492 H 0.34256 0.33758 0.79416 0.0
H493 H 0.39759 0.36839 0.72812 0.0
H494 H 0.45172 0.4286 0.74546 0.0
H495 H 0.35007 0.24493 0.76964 0.0
H496 H 0.31016 0.36816 0.69056 0.0
H497 H 0.31388 0.46203 0.677 0.0
H498 H 0.30003 0.52078 0.74536 0.0
H499 H 0.29565 0.42733 0.75925 0.0
C500 C 0.18366 0.13981 0.71448 0.0
C501 C 0.14286 0.16406 0.71874 0.0
C502 C 0.22225 0.16742 0.71952 0.0
C503 C 0.22069 0.21956 0.72909 0.0
C504 C 0.18002 0.24359 0.73337 0.0
C505 C 0.14167 0.21623 0.72832 0.0
C506 C 0.26092 0.24938 0.73528 0.0
C507 C 0.26663 0.30178 0.72685 0.0
C508 C 0.29188 0.22832 0.7506 0.0
C509 C 0.28731 0.17395 0.76064 0.0
C510 C 0.25032 0.16077 0.77357 0.0
C511 C 0.24608 0.1092 0.78275 0.0
C512 C 0.27881 0.07061 0.77929 0.0
C513 C 0.31595 0.08361 0.76672 0.0
C514 C 0.32031 0.13511 0.75747 0.0
C515 C 0.39691 0.39129 0.79322 0.0
C516 C 0.42801 0.41784 0.77979 0.0
C517 C 0.36645 0.35689 0.78338 0.0
C518 C 0.36603 0.34838 0.75987 0.0
C519 C 0.39721 0.37451 0.74632 0.0
C520 C 0.42802 0.40896 0.75622 0.0
C521 C 0.33153 0.31391 0.74981 0.0
C522 C 0.32695 0.26068 0.75749 0.0
C523 C 0.30117 0.33445 0.73409 0.0
C524 C 0.30316 0.3908 0.72593 0.0
C525 C 0.30781 0.40115 0.70267 0.0
C526 C 0.31003 0.45427 0.69493 0.0
C527 C 0.30737 0.49734 0.71032 0.0
C528 C 0.30227 0.48739 0.73347 0.0
C529 C 0.29996 0.43437 0.74128 0.0
H530 H 0.30914 0.53841 0.7043 0.0
H531 H 0.27547 0.0307 0.7864 0.0
H532 H 0.84872 0.99642 0.7255 0.0
H533 H 0.78973 0.05157 0.74147 0.0
H534 H 0.86401 0.19557 0.72804 0.0
H535 H 0.92434 0.13981 0.71397 0.0
H536 H 0.82752 0.21327 0.76409 0.0
H537 H 0.76976 0.14635 0.69464 0.0
H538 H 0.74925 0.07897 0.66567 0.0
H539 H 0.66265 1.00378 0.71313 0.0
H540 H 0.68308 0.07031 0.7425 0.0
H541 H 0.64353 0.39035 0.77287 0.0
H542 H 0.70031 0.33357 0.75553 0.0
H543 H 0.65242 0.19617 0.79226 0.0
H544 H 0.59562 0.25302 0.8098 0.0
H545 H 0.67373 0.1774 0.7439 0.0
H546 H 0.73598 0.25454 0.81283 0.0
H547 H 0.75463 0.33169 0.83754 0.0
H548 H 0.832 0.39966 0.78417 0.0
H549 H 0.81339 0.32314 0.75904 0.0
C550 C 0.85233 0.03988 0.72605 0.0
C551 C 0.89099 0.06393 0.71848 0.0
C552 C 0.81839 0.07158 0.73497 0.0
C553 C 0.82149 0.12829 0.73552 0.0
C554 C 0.8604 0.15212 0.72792 0.0
C555 C 0.89495 0.12025 0.71979 0.0
C556 C 0.78473 0.16269 0.74433 0.0
C557 C 0.79407 0.20559 0.7593 0.0
C558 C 0.74062 0.15319 0.73841 0.0
C559 C 0.72824 0.11304 0.72082 0.0
C560 C 0.74656 0.11523 0.69894 0.0
C561 C 0.73492 0.07722 0.68245 0.0
C562 C 0.70472 0.03709 0.68757 0.0
C563 C 0.68607 0.03488 0.7092 0.0
C564 C 0.69763 0.07275 0.72577 0.0
C565 C 0.64464 0.34787 0.77697 0.0
C566 C 0.61504 0.32606 0.79267 0.0
C567 C 0.67727 0.31557 0.76716 0.0
C568 C 0.68069 0.26072 0.77269 0.0
C569 C 0.65034 0.2384 0.78777 0.0
C570 C 0.61807 0.27089 0.79785 0.0
C571 C 0.71696 0.22716 0.76341 0.0
C572 C 0.70739 0.18465 0.74846 0.0
C573 C 0.7609 0.23816 0.76869 0.0
C574 C 0.77302 0.28333 0.78401 0.0
C575 C 0.7568 0.28606 0.80633 0.0
C576 C 0.76739 0.32966 0.82041 0.0
C577 C 0.79441 0.37061 0.81241 0.0
C578 C 0.81107 0.36792 0.79034 0.0
C579 C 0.80057 0.3244 0.77619 0.0
H580 H 0.80249 0.40437 0.82332 0.0
H581 H 0.69572 0.00774 0.67477 0.0
H582 H 0.68401 0.50482 0.77819 0.0
H583 H 0.74024 0.56666 0.76527 0.0
H584 H 0.66202 0.70215 0.78782 0.0
H585 H 0.60429 0.63999 0.79956 0.0
H586 H 0.70074 0.72881 0.75089 0.0
H587 H 0.75231 0.6507 0.8195 0.0
H588 H 0.76933 0.57665 0.84575 0.0
H589 H 0.86123 0.51079 0.79778 0.0
H590 H 0.8445 0.58424 0.77115 0.0
H591 H 0.88434 0.90348 0.74125 0.0
H592 H 0.82539 0.85129 0.75837 0.0
H593 H 0.88127 0.70474 0.73079 0.0
H594 H 0.94081 0.75643 0.71421 0.0
H595 H 0.8529 0.69083 0.77397 0.0
H596 H 0.79568 0.76892 0.7047 0.0
H597 H 0.77851 0.84547 0.67974 0.0
H598 H 0.69724 0.91547 0.73173 0.0
H599 H 0.71429 0.83955 0.75707 0.0
C600 C 0.67869 0.54784 0.78027 0.0
C601 C 0.63998 0.56761 0.79007 0.0
C602 C 0.71103 0.58322 0.77304 0.0
C603 C 0.70619 0.6392 0.77622 0.0
C604 C 0.66682 0.65918 0.78534 0.0
C605 C 0.63383 0.62367 0.79206 0.0
C606 C 0.74247 0.67636 0.77018 0.0
C607 C 0.73385 0.72094 0.7563 0.0
C608 C 0.78593 0.6663 0.77707 0.0
C609 C 0.79696 0.62284 0.79328 0.0
C610 C 0.77608 0.62036 0.81453 0.0
C611 C 0.78568 0.5785 0.82948 0.0
C612 C 0.81631 0.53902 0.82342 0.0
C613 C 0.83754 0.54144 0.80245 0.0
C614 C 0.8281 0.58326 0.78745 0.0
C615 C 0.88448 0.86007 0.73915 0.0
C616 C 0.9172 0.83417 0.72623 0.0
C617 C 0.85051 0.83033 0.74877 0.0
C618 C 0.84853 0.77414 0.7456 0.0
C619 C 0.88196 0.74806 0.73339 0.0
C620 C 0.91583 0.77772 0.72376 0.0
C621 C 0.81119 0.74233 0.75436 0.0
C622 C 0.81966 0.69887 0.7688 0.0
C623 C 0.76762 0.75391 0.74826 0.0
C624 C 0.75655 0.79883 0.73283 0.0
C625 C 0.77429 0.80076 0.71083 0.0
C626 C 0.76457 0.84401 0.69662 0.0
C627 C 0.73688 0.88537 0.70416 0.0
C628 C 0.7187 0.88344 0.72591 0.0
C629 C 0.72833 0.84027 0.74019 0.0
H630 H 0.72946 0.91881 0.69314 0.0
H631 H 0.82363 0.50659 0.835 0.0
loop_
_geom_bond_atom_site_label_1
_geom_bond_atom_site_label_2
_geom_bond_distance
_geom_bond_site_symmetry_2
_ccdc_geom_bond_type
Co0 N4 2.148 1_465 S
Co0 N10 2.128 . S
Co0 N20 2.193 1_465 S
Co0 O25 2.351 1_455 S
Co0 O26 2.155 1_455 S
Co0 O27 2.096 1_565 S
C1 N4 1.301 . S
C1 N5 1.328 . S
C1 H6 0.930 . S
C2 C3 1.333 . S
C2 N4 1.317 . S
C2 H7 0.930 . S
C3 C2 1.333 . S
C3 N5 1.350 . S
C3 H29 0.931 . S
N4 Co0 2.148 1_645 S
N4 C1 1.301 . S
N4 C2 1.317 . S
N5 C1 1.328 . S
N5 C3 1.350 . S
H6 C1 0.930 . S
H7 C2 0.930 . S
C8 O9 1.224 . S
C8 O27 1.247 . S
O9 C8 1.224 . S
N10 Co0 2.128 . S
N10 C11 1.355 . S
N10 C13 1.311 . S
C11 N10 1.355 . S
C11 C12 1.363 . S
C11 H23 0.929 . S
C12 C11 1.363 . S
C12 N14 1.375 . S
C12 H30 0.931 . S
C13 N10 1.311 . S
C13 N14 1.347 . S
C13 H24 0.929 . S
N14 C12 1.375 . S
N14 C13 1.347 . S
C15 C18 1.365 . S
C15 N20 1.330 1_565 S
C15 H21 0.929 . S
C16 C17 1.362 . S
C16 C19 1.378 . S
C16 H31 0.929 . S
C17 C16 1.362 . S
C17 C18 1.366 1_445 S
C18 C15 1.365 . S
C18 C17 1.366 1_665 S
C18 H32 0.930 . S
C19 C16 1.378 . S
C19 N20 1.313 1_455 S
C19 H22 0.930 . S
N20 Co0 2.193 1_645 S
N20 C15 1.330 1_545 S
N20 C19 1.313 1_655 S
H21 C15 0.929 . S
H22 C19 0.930 . S
H23 C11 0.929 . S
H24 C13 0.929 . S
O25 Co0 2.351 1_655 S
O25 C28 1.244 . S
O26 Co0 2.155 1_655 S
O26 C28 1.240 . S
O27 Co0 2.096 1_545 S
O27 C8 1.247 . S
C28 O25 1.244 . S
C28 O26 1.240 . S
H29 C3 0.931 . S
H30 C12 0.931 . S
H31 C16 0.929 . S
H32 C18 0.930 . S
Co33 N37 2.148 1_565 S
Co33 N43 2.128 1_455 S
Co33 N53 2.194 1_565 S
Co33 O58 2.351 . S
Co33 O59 2.155 . S
Co33 O60 2.096 1_465 S
C34 N37 1.301 . S
C34 N38 1.328 . S
C34 H39 0.930 . S
C35 C36 1.333 . S
C35 N37 1.317 . S
C35 H40 0.930 . S
C36 C35 1.333 . S
C36 N38 1.350 . S
C36 H62 0.931 . S
N37 Co33 2.148 1_545 S
N37 C34 1.301 . S
N37 C35 1.317 . S
N38 C34 1.328 . S
N38 C36 1.350 . S
H39 C34 0.930 . S
H40 C35 0.930 . S
C41 O42 1.224 . S
C41 O60 1.247 . S
O42 C41 1.224 . S
N43 Co33 2.128 1_655 S
N43 C44 1.355 . S
N43 C46 1.311 . S
C44 N43 1.355 . S
C44 C45 1.363 . S
C44 H56 0.929 . S
C45 C44 1.363 . S
C45 N47 1.375 . S
C45 H63 0.931 . S
C46 N43 1.311 . S
C46 N47 1.347 . S
C46 H57 0.929 . S
N47 C45 1.375 . S
N47 C46 1.347 . S
C48 C51 1.365 . S
C48 N53 1.328 1_565 S
C48 H54 0.929 . S
C49 C50 1.362 1_655 S
C49 C52 1.378 . S
C49 H64 0.929 . S
C50 C49 1.362 1_455 S
C50 C51 1.366 1_545 S
C51 C48 1.365 . S
C51 C50 1.366 1_565 S
C51 H65 0.930 . S
C52 C49 1.378 . S
C52 N53 1.315 1_655 S
C52 H55 0.930 . S
N53 Co33 2.194 1_545 S
N53 C48 1.328 1_545 S
N53 C52 1.315 1_455 S
H54 C48 0.929 . S
H55 C52 0.930 . S
H56 C44 0.929 . S
H57 C46 0.929 . S
O58 Co33 2.351 . S
O58 C61 1.244 . S
O59 Co33 2.155 . S
O59 C61 1.240 . S
O60 Co33 2.096 1_645 S
O60 C41 1.247 . S
C61 O58 1.244 . S
C61 O59 1.240 . S
H62 C36 0.931 . S
H63 C45 0.931 . S
H64 C49 0.929 . S
H65 C51 0.930 . S
Co66 N70 2.148 . S
Co66 N76 2.128 . S
Co66 N86 2.194 . S
Co66 O91 2.351 . S
Co66 O92 2.155 . S
Co66 O93 2.096 . S
C67 N70 1.301 . S
C67 N71 1.328 . S
C67 H72 0.930 . S
C68 C69 1.333 . S
C68 N70 1.317 . S
C68 H73 0.930 . S
C69 C68 1.333 . S
C69 N71 1.350 . S
C69 H95 0.931 . S
N70 Co66 2.148 . S
N70 C67 1.301 . S
N70 C68 1.317 . S
N71 C67 1.328 . S
N71 C69 1.350 . S
H72 C67 0.930 . S
H73 C68 0.930 . S
C74 O75 1.224 . S
C74 O93 1.247 . S
O75 C74 1.224 . S
N76 Co66 2.128 . S
N76 C77 1.355 . S
N76 C79 1.311 . S
C77 N76 1.355 . S
C77 C78 1.363 . S
C77 H89 0.929 . S
C78 C77 1.363 . S
C78 N80 1.375 . S
C78 H96 0.931 . S
C79 N76 1.311 . S
C79 N80 1.347 . S
C79 H90 0.929 . S
N80 C78 1.375 . S
N80 C79 1.347 . S
C81 C84 1.365 . S
C81 N86 1.328 . S
C81 H87 0.929 . S
C82 C83 1.362 . S
C82 C85 1.378 . S
C82 H97 0.929 . S
C83 C82 1.362 . S
C83 C84 1.366 . S
C84 C81 1.365 . S
C84 C83 1.366 . S
C84 H98 0.930 . S
C85 C82 1.378 . S
C85 N86 1.315 . S
C85 H88 0.930 . S
N86 Co66 2.194 . S
N86 C81 1.328 . S
N86 C85 1.315 . S
H87 C81 0.929 . S
H88 C85 0.930 . S
H89 C77 0.929 . S
H90 C79 0.929 . S
O91 Co66 2.351 . S
O91 C94 1.244 . S
O92 Co66 2.155 . S
O92 C94 1.240 . S
O93 Co66 2.096 . S
O93 C74 1.247 . S
C94 O91 1.244 . S
C94 O92 1.240 . S
H95 C69 0.931 . S
H96 C78 0.931 . S
H97 C82 0.929 . S
H98 C84 0.930 . S
Co99 N103 2.148 . S
Co99 N109 2.128 . S
Co99 N119 2.194 . S
Co99 O124 2.351 . S
Co99 O125 2.155 . S
Co99 O126 2.096 . S
C100 N103 1.301 . S
C100 N104 1.328 . S
C100 H105 0.930 . S
C101 C102 1.333 . S
C101 N103 1.317 . S
C101 H106 0.930 . S
C102 C101 1.333 . S
C102 N104 1.350 . S
C102 H128 0.931 . S
N103 Co99 2.148 . S
N103 C100 1.301 . S
N103 C101 1.317 . S
N104 C100 1.328 . S
N104 C102 1.350 . S
H105 C100 0.930 . S
H106 C101 0.930 . S
C107 O108 1.224 . S
C107 O126 1.247 . S
O108 C107 1.224 . S
N109 Co99 2.128 . S
N109 C110 1.355 . S
N109 C112 1.311 . S
C110 N109 1.355 . S
C110 C111 1.363 . S
C110 H122 0.929 . S
C111 C110 1.363 . S
C111 N113 1.375 . S
C111 H129 0.931 . S
C112 N109 1.311 . S
C112 N113 1.347 . S
C112 H123 0.929 . S
N113 C111 1.375 . S
N113 C112 1.347 . S
C114 C117 1.365 . S
C114 N119 1.328 . S
C114 H120 0.929 . S
C115 C116 1.362 . S
C115 C118 1.378 . S
C115 H130 0.929 . S
C116 C115 1.362 . S
C116 C117 1.366 . S
C117 C114 1.365 . S
C117 C116 1.366 . S
C117 H131 0.930 . S
C118 C115 1.378 . S
C118 N119 1.315 . S
C118 H121 0.930 . S
N119 Co99 2.194 . S
N119 C114 1.328 . S
N119 C118 1.315 . S
H120 C114 0.929 . S
H121 C118 0.930 . S
H122 C110 0.929 . S
H123 C112 0.929 . S
O124 Co99 2.351 . S
O124 C127 1.244 . S
O125 Co99 2.155 . S
O125 C127 1.240 . S
O126 Co99 2.096 . S
O126 C107 1.247 . S
C127 O124 1.244 . S
C127 O125 1.240 . S
H128 C102 0.931 . S
H129 C111 0.931 . S
H130 C115 0.929 . S
H131 C117 0.930 . S
H132 C150 0.951 . S
H133 C152 0.951 . S
H134 C154 0.950 . S
H135 C155 0.950 . S
H136 C157 0.950 . S
H137 C160 0.950 . S
H138 C161 0.950 . S
H139 C163 0.950 . S
H140 C164 0.950 . S
H141 C165 0.951 . S
H142 C167 0.951 . S
H143 C169 0.950 . S
H144 C170 0.950 . S
H145 C172 0.950 . S
H146 C175 0.950 . S
H147 C176 0.950 . S
H148 C178 0.950 . S
H149 C179 0.950 . S
C150 H132 0.951 . S
C150 C151 1.366 1_565 S
C150 C152 1.388 . S
C151 C150 1.366 1_545 S
C151 C155 1.385 1_455 S
C152 H133 0.951 . S
C152 C150 1.388 . S
C152 C153 1.366 1_565 S
C153 C152 1.366 1_545 S
C153 C154 1.414 1_455 S
C153 C156 1.499 . S
C154 H134 0.950 . S
C154 C153 1.414 1_655 S
C154 C155 1.374 . S
C155 H135 0.950 . S
C155 C151 1.385 1_655 S
C155 C154 1.374 . S
C156 C153 1.499 . S
C156 C157 1.373 1_455 S
C156 C158 1.389 1_545 S
C157 H136 0.950 . S
C157 C156 1.373 1_655 S
C157 C173 1.377 . S
C158 C156 1.389 1_565 S
C158 C159 1.524 . S
C158 C172 1.377 . S
C159 C158 1.524 . S
C159 C160 1.397 1_455 S
C159 C164 1.363 . S
C160 H137 0.950 . S
C160 C159 1.397 1_655 S
C160 C161 1.334 . S
C161 H138 0.950 . S
C161 C160 1.334 . S
C161 C162 1.287 1_655 S
C162 C161 1.287 1_455 S
C162 C163 1.524 . S
C162 H181 0.913 . S
C163 H139 0.950 . S
C163 C162 1.524 . S
C163 C164 1.415 . S
C164 H140 0.950 . S
C164 C159 1.363 . S
C164 C163 1.415 . S
C165 H141 0.951 . S
C165 C166 1.366 1_655 S
C165 C167 1.388 . S
C166 C165 1.366 1_455 S
C166 C170 1.385 1_545 S
C167 H142 0.951 . S
C167 C165 1.388 . S
C167 C168 1.366 1_655 S
C168 C167 1.366 1_455 S
C168 C169 1.414 1_545 S
C168 C171 1.499 . S
C169 H143 0.950 . S
C169 C168 1.414 1_565 S
C169 C170 1.374 . S
C170 H144 0.950 . S
C170 C166 1.385 1_565 S
C170 C169 1.374 . S
C171 C168 1.499 . S
C171 C172 1.373 1_545 S
C171 C173 1.389 1_455 S
C172 H145 0.950 . S
C172 C158 1.377 . S
C172 C171 1.373 1_565 S
C173 C157 1.377 . S
C173 C171 1.389 1_655 S
C173 C174 1.524 . S
C174 C173 1.524 . S
C174 C175 1.397 1_655 S
C174 C179 1.363 . S
C175 H146 0.950 . S
C175 C174 1.397 1_455 S
C175 C176 1.334 . S
C176 H147 0.950 . S
C176 C175 1.334 . S
C176 C177 1.287 1_455 S
C177 C176 1.287 1_655 S
C177 C178 1.524 . S
C177 H180 0.999 . S
C178 H148 0.950 . S
C178 C177 1.524 . S
C178 C179 1.415 . S
C179 H149 0.950 . S
C179 C174 1.363 . S
C179 C178 1.415 . S
H180 C177 0.999 . S
H181 C162 0.913 . S
H182 C200 0.951 . S
H183 C202 0.951 . S
H184 C204 0.950 . S
H185 C205 0.950 . S
H186 C207 0.950 . S
H187 C210 0.950 . S
H188 C211 0.950 . S
H189 C213 0.950 . S
H190 C214 0.950 . S
H191 C215 0.951 . S
H192 C217 0.951 . S
H193 C219 0.950 . S
H194 C220 0.950 . S
H195 C222 0.950 . S
H196 C225 0.950 . S
H197 C226 0.950 . S
H198 C228 0.950 . S
H199 C229 0.950 . S
C200 H182 0.951 . S
C200 C201 1.366 . S
C200 C202 1.388 . S
C201 C200 1.366 . S
C201 C205 1.385 . S
C202 H183 0.951 . S
C202 C200 1.388 . S
C202 C203 1.366 . S
C203 C202 1.366 . S
C203 C204 1.414 . S
C203 C206 1.499 . S
C204 H184 0.950 . S
C204 C203 1.414 . S
C204 C205 1.374 . S
C205 H185 0.950 . S
C205 C201 1.385 . S
C205 C204 1.374 . S
C206 C203 1.499 . S
C206 C207 1.373 . S
C206 C208 1.389 . S
C207 H186 0.950 . S
C207 C206 1.373 . S
C207 C223 1.377 1_554 S
C208 C206 1.389 . S
C208 C209 1.524 . S
C208 C222 1.377 1_554 S
C209 C208 1.524 . S
C209 C210 1.397 . S
C209 C214 1.363 . S
C210 H187 0.950 . S
C210 C209 1.397 . S
C210 C211 1.334 . S
C211 H188 0.950 . S
C211 C210 1.334 . S
C211 C212 1.287 . S
C212 C211 1.287 . S
C212 C213 1.524 . S
C212 H231 0.913 . S
C213 H189 0.950 . S
C213 C212 1.524 . S
C213 C214 1.415 . S
C214 H190 0.950 . S
C214 C209 1.363 . S
C214 C213 1.415 . S
C215 H191 0.951 . S
C215 C216 1.366 . S
C215 C217 1.388 . S
C216 C215 1.366 . S
C216 C220 1.385 . S
C217 H192 0.951 . S
C217 C215 1.388 . S
C217 C218 1.366 . S
C218 C217 1.366 . S
C218 C219 1.414 . S
C218 C221 1.499 . S
C219 H193 0.950 . S
C219 C218 1.414 . S
C219 C220 1.374 . S
C220 H194 0.950 . S
C220 C216 1.385 . S
C220 C219 1.374 . S
C221 C218 1.499 . S
C221 C222 1.373 . S
C221 C223 1.389 . S
C222 H195 0.950 . S
C222 C208 1.377 1_556 S
C222 C221 1.373 . S
C223 C207 1.377 1_556 S
C223 C221 1.389 . S
C223 C224 1.524 . S
C224 C223 1.524 . S
C224 C225 1.397 . S
C224 C229 1.363 . S
C225 H196 0.950 . S
C225 C224 1.397 . S
C225 C226 1.334 . S
C226 H197 0.950 . S
C226 C225 1.334 . S
C226 C227 1.287 . S
C227 C226 1.287 . S
C227 C228 1.524 . S
C227 H230 0.999 . S
C228 H198 0.950 . S
C228 C227 1.524 . S
C228 C229 1.415 . S
C229 H199 0.950 . S
C229 C224 1.363 . S
C229 C228 1.415 . S
H230 C227 0.999 . S
H231 C212 0.913 . S
H232 C250 0.951 . S
H233 C252 0.951 . S
H234 C254 0.950 . S
H235 C255 0.950 . S
H236 C257 0.950 . S
H237 C260 0.950 . S
H238 C261 0.950 . S
H239 C263 0.950 . S
H240 C264 0.950 . S
H241 C265 0.951 . S
H242 C267 0.951 . S
H243 C269 0.950 . S
H244 C270 0.950 . S
H245 C272 0.950 . S
H246 C275 0.950 . S
H247 C276 0.950 . S
H248 C278 0.950 . S
H249 C279 0.950 . S
C250 H232 0.951 . S
C250 C251 1.366 . S
C250 C252 1.388 . S
C251 C250 1.366 . S
C251 C255 1.385 . S
C252 H233 0.951 . S
C252 C250 1.388 . S
C252 C253 1.366 . S
C253 C252 1.366 . S
C253 C254 1.414 . S
C253 C256 1.499 . S
C254 H234 0.950 . S
C254 C253 1.414 . S
C254 C255 1.374 . S
C255 H235 0.950 . S
C255 C251 1.385 . S
C255 C254 1.374 . S
C256 C253 1.499 . S
C256 C257 1.373 . S
C256 C258 1.389 . S
C257 H236 0.950 . S
C257 C256 1.373 . S
C257 C273 1.377 . S
C258 C256 1.389 . S
C258 C259 1.524 . S
C258 C272 1.377 . S
C259 C258 1.524 . S
C259 C260 1.397 . S
C259 C264 1.363 . S
C260 H237 0.950 . S
C260 C259 1.397 . S
C260 C261 1.334 . S
C261 H238 0.950 . S
C261 C260 1.334 . S
C261 C262 1.287 . S
C262 C261 1.287 . S
C262 C263 1.524 . S
C262 H281 0.913 . S
C263 H239 0.950 . S
C263 C262 1.524 . S
C263 C264 1.415 . S
C264 H240 0.950 . S
C264 C259 1.363 . S
C264 C263 1.415 . S
C265 H241 0.951 . S
C265 C266 1.366 . S
C265 C267 1.388 . S
C266 C265 1.366 . S
C266 C270 1.385 . S
C267 H242 0.951 . S
C267 C265 1.388 . S
C267 C268 1.366 . S
C268 C267 1.366 . S
C268 C269 1.414 . S
C268 C271 1.499 . S
C269 H243 0.950 . S
C269 C268 1.414 . S
C269 C270 1.374 . S
C270 H244 0.950 . S
C270 C266 1.385 . S
C270 C269 1.374 . S
C271 C268 1.499 . S
C271 C272 1.373 . S
C271 C273 1.389 . S
C272 H245 0.950 . S
C272 C258 1.377 . S
C272 C271 1.373 . S
C273 C257 1.377 . S
C273 C271 1.389 . S
C273 C274 1.524 . S
C274 C273 1.524 . S
C274 C275 1.397 . S
C274 C279 1.363 . S
C275 H246 0.950 . S
C275 C274 1.397 . S
C275 C276 1.334 . S
C276 H247 0.950 . S
C276 C275 1.334 . S
C276 C277 1.287 . S
C277 C276 1.287 . S
C277 C278 1.524 . S
C277 H280 0.999 . S
C278 H248 0.950 . S
C278 C277 1.524 . S
C278 C279 1.415 . S
C279 H249 0.950 . S
C279 C274 1.363 . S
C279 C278 1.415 . S
H280 C277 0.999 . S
H281 C262 0.913 . S
H282 C300 0.951 . S
H283 C302 0.951 . S
H284 C304 0.950 . S
H285 C305 0.950 . S
H286 C307 0.950 . S
H287 C310 0.950 . S
H288 C311 0.950 . S
H289 C313 0.950 . S
H290 C314 0.950 . S
H291 C315 0.951 . S
H292 C317 0.951 . S
H293 C319 0.950 . S
H294 C320 0.950 . S
H295 C322 0.950 . S
H296 C325 0.950 . S
H297 C326 0.950 . S
H298 C328 0.950 . S
H299 C329 0.950 . S
C300 H282 0.951 . S
C300 C301 1.366 . S
C300 C302 1.388 . S
C301 C300 1.366 . S
C301 C305 1.385 . S
C302 H283 0.951 . S
C302 C300 1.388 . S
C302 C303 1.366 . S
C303 C302 1.366 . S
C303 C304 1.414 . S
C303 C306 1.499 . S
C304 H284 0.950 . S
C304 C303 1.414 . S
C304 C305 1.374 . S
C305 H285 0.950 . S
C305 C301 1.385 . S
C305 C304 1.374 . S
C306 C303 1.499 . S
C306 C307 1.373 . S
C306 C308 1.389 . S
C307 H286 0.950 . S
C307 C306 1.373 . S
C307 C323 1.377 . S
C308 C306 1.389 . S
C308 C309 1.524 . S
C308 C322 1.377 . S
C309 C308 1.524 . S
C309 C310 1.397 . S
C309 C314 1.363 . S
C310 H287 0.950 . S
C310 C309 1.397 . S
C310 C311 1.334 . S
C311 H288 0.950 . S
C311 C310 1.334 . S
C311 C312 1.287 . S
C312 C311 1.287 . S
C312 C313 1.524 . S
C312 H331 0.913 . S
C313 H289 0.950 . S
C313 C312 1.524 . S
C313 C314 1.415 . S
C314 H290 0.950 . S
C314 C309 1.363 . S
C314 C313 1.415 . S
C315 H291 0.951 . S
C315 C316 1.366 . S
C315 C317 1.388 . S
C316 C315 1.366 . S
C316 C320 1.385 . S
C317 H292 0.951 . S
C317 C315 1.388 . S
C317 C318 1.366 . S
C318 C317 1.366 . S
C318 C319 1.414 . S
C318 C321 1.499 . S
C319 H293 0.950 . S
C319 C318 1.414 . S
C319 C320 1.374 . S
C320 H294 0.950 . S
C320 C316 1.385 . S
C320 C319 1.374 . S
C321 C318 1.499 . S
C321 C322 1.373 . S
C321 C323 1.389 . S
C322 H295 0.950 . S
C322 C308 1.377 . S
C322 C321 1.373 . S
C323 C307 1.377 . S
C323 C321 1.389 . S
C323 C324 1.524 . S
C324 C323 1.524 . S
C324 C325 1.397 . S
C324 C329 1.363 . S
C325 H296 0.950 . S
C325 C324 1.397 . S
C325 C326 1.334 . S
C326 H297 0.950 . S
C326 C325 1.334 . S
C326 C327 1.287 . S
C327 C326 1.287 . S
C327 C328 1.524 . S
C327 H330 0.999 . S
C328 H298 0.950 . S
C328 C327 1.524 . S
C328 C329 1.415 . S
C329 H299 0.950 . S
C329 C324 1.363 . S
C329 C328 1.415 . S
H330 C327 0.999 . S
H331 C312 0.913 . S
H332 C350 0.951 . S
H333 C352 0.951 . S
H334 C354 0.950 . S
H335 C355 0.950 . S
H336 C357 0.950 . S
H337 C360 0.950 . S
H338 C361 0.950 . S
H339 C363 0.950 . S
H340 C364 0.950 . S
H341 C365 0.951 . S
H342 C367 0.951 . S
H343 C369 0.950 . S
H344 C370 0.950 . S
H345 C372 0.950 . S
H346 C375 0.950 . S
H347 C376 0.950 . S
H348 C378 0.950 . S
H349 C379 0.950 . S
C350 H332 0.951 . S
C350 C351 1.366 . S
C350 C352 1.388 . S
C351 C350 1.366 . S
C351 C355 1.385 . S
C352 H333 0.951 . S
C352 C350 1.388 . S
C352 C353 1.366 . S
C353 C352 1.366 . S
C353 C354 1.414 . S
C353 C356 1.499 . S
C354 H334 0.950 . S
C354 C353 1.414 . S
C354 C355 1.374 . S
C355 H335 0.950 . S
C355 C351 1.385 . S
C355 C354 1.374 . S
C356 C353 1.499 . S
C356 C357 1.373 . S
C356 C358 1.389 . S
C357 H336 0.950 . S
C357 C356 1.373 . S
C357 C373 1.377 . S
C358 C356 1.389 . S
C358 C359 1.524 . S
C358 C372 1.377 . S
C359 C358 1.524 . S
C359 C360 1.397 . S
C359 C364 1.363 . S
C360 H337 0.950 . S
C360 C359 1.397 . S
C360 C361 1.334 . S
C361 H338 0.950 . S
C361 C360 1.334 . S
C361 C362 1.287 . S
C362 C361 1.287 . S
C362 C363 1.524 . S
C362 H381 0.913 . S
C363 H339 0.950 . S
C363 C362 1.524 . S
C363 C364 1.415 . S
C364 H340 0.950 . S
C364 C359 1.363 . S
C364 C363 1.415 . S
C365 H341 0.951 . S
C365 C366 1.366 . S
C365 C367 1.388 . S
C366 C365 1.366 . S
C366 C370 1.385 . S
C367 H342 0.951 . S
C367 C365 1.388 . S
C367 C368 1.366 . S
C368 C367 1.366 . S
C368 C369 1.414 . S
C368 C371 1.499 . S
C369 H343 0.950 . S
C369 C368 1.414 . S
C369 C370 1.374 . S
C370 H344 0.950 . S
C370 C366 1.385 . S
C370 C369 1.374 . S
C371 C368 1.499 . S
C371 C372 1.373 . S
C371 C373 1.389 . S
C372 H345 0.950 . S
C372 C358 1.377 . S
C372 C371 1.373 . S
C373 C357 1.377 . S
C373 C371 1.389 . S
C373 C374 1.524 . S
C374 C373 1.524 . S
C374 C375 1.397 . S
C374 C379 1.363 . S
C375 H346 0.950 . S
C375 C374 1.397 . S
C375 C376 1.334 . S
C376 H347 0.950 . S
C376 C375 1.334 . S
C376 C377 1.287 . S
C377 C376 1.287 . S
C377 C378 1.524 . S
C377 H380 0.999 . S
C378 H348 0.950 . S
C378 C377 1.524 . S
C378 C379 1.415 . S
C379 H349 0.950 . S
C379 C374 1.363 . S
C379 C378 1.415 . S
H380 C377 0.999 . S
H381 C362 0.913 . S
H382 C400 0.951 . S
H383 C402 0.951 . S
H384 C404 0.950 . S
H385 C405 0.950 . S
H386 C407 0.950 . S
H387 C410 0.950 . S
H388 C411 0.950 . S
H389 C413 0.950 . S
H390 C414 0.950 . S
H391 C415 0.951 . S
H392 C417 0.951 . S
H393 C419 0.950 . S
H394 C420 0.950 . S
H395 C422 0.950 . S
H396 C425 0.950 . S
H397 C426 0.950 . S
H398 C428 0.950 . S
H399 C429 0.950 . S
C400 H382 0.951 . S
C400 C401 1.366 . S
C400 C402 1.388 . S
C401 C400 1.366 . S
C401 C405 1.385 . S
C402 H383 0.951 . S
C402 C400 1.388 . S
C402 C403 1.366 . S
C403 C402 1.366 . S
C403 C404 1.414 . S
C403 C406 1.499 . S
C404 H384 0.950 . S
C404 C403 1.414 . S
C404 C405 1.374 . S
C405 H385 0.950 . S
C405 C401 1.385 . S
C405 C404 1.374 . S
C406 C403 1.499 . S
C406 C407 1.373 . S
C406 C408 1.389 . S
C407 H386 0.950 . S
C407 C406 1.373 . S
C407 C423 1.377 . S
C408 C406 1.389 . S
C408 C409 1.524 . S
C408 C422 1.377 . S
C409 C408 1.524 . S
C409 C410 1.397 . S
C409 C414 1.363 . S
C410 H387 0.950 . S
C410 C409 1.397 . S
C410 C411 1.334 . S
C411 H388 0.950 . S
C411 C410 1.334 . S
C411 C412 1.287 . S
C412 C411 1.287 . S
C412 C413 1.524 . S
C412 H431 0.913 . S
C413 H389 0.950 . S
C413 C412 1.524 . S
C413 C414 1.415 . S
C414 H390 0.950 . S
C414 C409 1.363 . S
C414 C413 1.415 . S
C415 H391 0.951 . S
C415 C416 1.366 . S
C415 C417 1.388 . S
C416 C415 1.366 . S
C416 C420 1.385 . S
C417 H392 0.951 . S
C417 C415 1.388 . S
C417 C418 1.366 . S
C418 C417 1.366 . S
C418 C419 1.414 . S
C418 C421 1.499 . S
C419 H393 0.950 . S
C419 C418 1.414 . S
C419 C420 1.374 . S
C420 H394 0.950 . S
C420 C416 1.385 . S
C420 C419 1.374 . S
C421 C418 1.499 . S
C421 C422 1.373 . S
C421 C423 1.389 . S
C422 H395 0.950 . S
C422 C408 1.377 . S
C422 C421 1.373 . S
C423 C407 1.377 . S
C423 C421 1.389 . S
C423 C424 1.524 . S
C424 C423 1.524 . S
C424 C425 1.397 . S
C424 C429 1.363 . S
C425 H396 0.950 . S
C425 C424 1.397 . S
C425 C426 1.334 . S
C426 H397 0.950 . S
C426 C425 1.334 . S
C426 C427 1.287 . S
C427 C426 1.287 . S
C427 C428 1.524 . S
C427 H430 0.999 . S
C428 H398 0.950 . S
C428 C427 1.524 . S
C428 C429 1.415 . S
C429 H399 0.950 . S
C429 C424 1.363 . S
C429 C428 1.415 . S
H430 C427 0.999 . S
H431 C412 0.913 . S
H432 C450 0.951 . S
H433 C452 0.951 . S
H434 C454 0.950 . S
H435 C455 0.950 . S
H436 C457 0.950 . S
H437 C460 0.950 . S
H438 C461 0.950 . S
H439 C463 0.950 . S
H440 C464 0.950 . S
H441 C465 0.951 . S
H442 C467 0.951 . S
H443 C469 0.950 . S
H444 C470 0.950 . S
H445 C472 0.950 . S
H446 C475 0.950 . S
H447 C476 0.950 . S
H448 C478 0.950 . S
H449 C479 0.950 . S
C450 H432 0.951 . S
C450 C451 1.366 . S
C450 C452 1.388 . S
C451 C450 1.366 . S
C451 C455 1.385 . S
C452 H433 0.951 . S
C452 C450 1.388 . S
C452 C453 1.366 . S
C453 C452 1.366 . S
C453 C454 1.414 . S
C453 C456 1.499 . S
C454 H434 0.950 . S
C454 C453 1.414 . S
C454 C455 1.374 . S
C455 H435 0.950 . S
C455 C451 1.385 . S
C455 C454 1.374 . S
C456 C453 1.499 . S
C456 C457 1.373 . S
C456 C458 1.389 . S
C457 H436 0.950 . S
C457 C456 1.373 . S
C457 C473 1.377 . S
C458 C456 1.389 . S
C458 C459 1.524 . S
C458 C472 1.377 . S
C459 C458 1.524 . S
C459 C460 1.397 . S
C459 C464 1.363 . S
C460 H437 0.950 . S
C460 C459 1.397 . S
C460 C461 1.334 . S
C461 H438 0.950 . S
C461 C460 1.334 . S
C461 C462 1.287 . S
C462 C461 1.287 . S
C462 C463 1.524 . S
C462 H481 0.913 . S
C463 H439 0.950 . S
C463 C462 1.524 . S
C463 C464 1.415 . S
C464 H440 0.950 . S
C464 C459 1.363 . S
C464 C463 1.415 . S
C465 H441 0.951 . S
C465 C466 1.366 . S
C465 C467 1.388 . S
C466 C465 1.366 . S
C466 C470 1.385 . S
C467 H442 0.951 . S
C467 C465 1.388 . S
C467 C468 1.366 . S
C468 C467 1.366 . S
C468 C469 1.414 . S
C468 C471 1.499 . S
C469 H443 0.950 . S
C469 C468 1.414 . S
C469 C470 1.374 . S
C470 H444 0.950 . S
C470 C466 1.385 . S
C470 C469 1.374 . S
C471 C468 1.499 . S
C471 C472 1.373 . S
C471 C473 1.389 . S
C472 H445 0.950 . S
C472 C458 1.377 . S
C472 C471 1.373 . S
C473 C457 1.377 . S
C473 C471 1.389 . S
C473 C474 1.524 . S
C474 C473 1.524 . S
C474 C475 1.397 . S
C474 C479 1.363 . S
C475 H446 0.950 . S
C475 C474 1.397 . S
C475 C476 1.334 . S
C476 H447 0.950 . S
C476 C475 1.334 . S
C476 C477 1.287 . S
C477 C476 1.287 . S
C477 C478 1.524 . S
C477 H480 0.999 . S
C478 H448 0.950 . S
C478 C477 1.524 . S
C478 C479 1.415 . S
C479 H449 0.950 . S
C479 C474 1.363 . S
C479 C478 1.415 . S
H480 C477 0.999 . S
H481 C462 0.913 . S
H482 C500 0.951 . S
H483 C502 0.951 . S
H484 C504 0.950 . S
H485 C505 0.950 . S
H486 C507 0.950 . S
H487 C510 0.950 . S
H488 C511 0.950 . S
H489 C513 0.950 . S
H490 C514 0.950 . S
H491 C515 0.951 . S
H492 C517 0.951 . S
H493 C519 0.950 . S
H494 C520 0.950 . S
H495 C522 0.950 . S
H496 C525 0.950 . S
H497 C526 0.950 . S
H498 C528 0.950 . S
H499 C529 0.950 . S
C500 H482 0.951 . S
C500 C501 1.366 . S
C500 C502 1.388 . S
C501 C500 1.366 . S
C501 C505 1.385 . S
C502 H483 0.951 . S
C502 C500 1.388 . S
C502 C503 1.366 . S
C503 C502 1.366 . S
C503 C504 1.414 . S
C503 C506 1.499 . S
C504 H484 0.950 . S
C504 C503 1.414 . S
C504 C505 1.374 . S
C505 H485 0.950 . S
C505 C501 1.385 . S
C505 C504 1.374 . S
C506 C503 1.499 . S
C506 C507 1.373 . S
C506 C508 1.389 . S
C507 H486 0.950 . S
C507 C506 1.373 . S
C507 C523 1.377 . S
C508 C506 1.389 . S
C508 C509 1.524 . S
C508 C522 1.377 . S
C509 C508 1.524 . S
C509 C510 1.397 . S
C509 C514 1.363 . S
C510 H487 0.950 . S
C510 C509 1.397 . S
C510 C511 1.334 . S
C511 H488 0.950 . S
C511 C510 1.334 . S
C511 C512 1.287 . S
C512 C511 1.287 . S
C512 C513 1.524 . S
C512 H531 0.913 . S
C513 H489 0.950 . S
C513 C512 1.524 . S
C513 C514 1.415 . S
C514 H490 0.950 . S
C514 C509 1.363 . S
C514 C513 1.415 . S
C515 H491 0.951 . S
C515 C516 1.366 . S
C515 C517 1.388 . S
C516 C515 1.366 . S
C516 C520 1.385 . S
C517 H492 0.951 . S
C517 C515 1.388 . S
C517 C518 1.366 . S
C518 C517 1.366 . S
C518 C519 1.414 . S
C518 C521 1.499 . S
C519 H493 0.950 . S
C519 C518 1.414 . S
C519 C520 1.374 . S
C520 H494 0.950 . S
C520 C516 1.385 . S
C520 C519 1.374 . S
C521 C518 1.499 . S
C521 C522 1.373 . S
C521 C523 1.389 . S
C522 H495 0.950 . S
C522 C508 1.377 . S
C522 C521 1.373 . S
C523 C507 1.377 . S
C523 C521 1.389 . S
C523 C524 1.524 . S
C524 C523 1.524 . S
C524 C525 1.397 . S
C524 C529 1.363 . S
C525 H496 0.950 . S
C525 C524 1.397 . S
C525 C526 1.334 . S
C526 H497 0.950 . S
C526 C525 1.334 . S
C526 C527 1.287 . S
C527 C526 1.287 . S
C527 C528 1.524 . S
C527 H530 0.999 . S
C528 H498 0.950 . S
C528 C527 1.524 . S
C528 C529 1.415 . S
C529 H499 0.950 . S
C529 C524 1.363 . S
C529 C528 1.415 . S
H530 C527 0.999 . S
H531 C512 0.913 . S
H532 C550 0.951 . S
H533 C552 0.951 . S
H534 C554 0.950 . S
H535 C555 0.950 . S
H536 C557 0.950 . S
H537 C560 0.950 . S
H538 C561 0.950 . S
H539 C563 0.950 . S
H540 C564 0.950 . S
H541 C565 0.951 . S
H542 C567 0.951 . S
H543 C569 0.950 . S
H544 C570 0.950 . S
H545 C572 0.950 . S
H546 C575 0.950 . S
H547 C576 0.950 . S
H548 C578 0.950 . S
H549 C579 0.950 . S
C550 H532 0.951 . S
C550 C551 1.366 . S
C550 C552 1.388 . S
C551 C550 1.366 . S
C551 C555 1.385 . S
C552 H533 0.951 . S
C552 C550 1.388 . S
C552 C553 1.366 . S
C553 C552 1.366 . S
C553 C554 1.414 . S
C553 C556 1.499 . S
C554 H534 0.950 . S
C554 C553 1.414 . S
C554 C555 1.374 . S
C555 H535 0.950 . S
C555 C551 1.385 . S
C555 C554 1.374 . S
C556 C553 1.499 . S
C556 C557 1.373 . S
C556 C558 1.389 . S
C557 H536 0.950 . S
C557 C556 1.373 . S
C557 C573 1.377 . S
C558 C556 1.389 . S
C558 C559 1.524 . S
C558 C572 1.377 . S
C559 C558 1.524 . S
C559 C560 1.397 . S
C559 C564 1.363 . S
C560 H537 0.950 . S
C560 C559 1.397 . S
C560 C561 1.334 . S
C561 H538 0.950 . S
C561 C560 1.334 . S
C561 C562 1.287 . S
C562 C561 1.287 . S
C562 C563 1.524 . S
C562 H581 0.913 . S
C563 H539 0.950 . S
C563 C562 1.524 . S
C563 C564 1.415 . S
C564 H540 0.950 . S
C564 C559 1.363 . S
C564 C563 1.415 . S
C565 H541 0.951 . S
C565 C566 1.366 . S
C565 C567 1.388 . S
C566 C565 1.366 . S
C566 C570 1.385 . S
C567 H542 0.951 . S
C567 C565 1.388 . S
C567 C568 1.366 . S
C568 C567 1.366 . S
C568 C569 1.414 . S
C568 C571 1.499 . S
C569 H543 0.950 . S
C569 C568 1.414 . S
C569 C570 1.374 . S
C570 H544 0.950 . S
C570 C566 1.385 . S
C570 C569 1.374 . S
C571 C568 1.499 . S
C571 C572 1.373 . S
C571 C573 1.389 . S
C572 H545 0.950 . S
C572 C558 1.377 . S
C572 C571 1.373 . S
C573 C557 1.377 . S
C573 C571 1.389 . S
C573 C574 1.524 . S
C574 C573 1.524 . S
C574 C575 1.397 . S
C574 C579 1.363 . S
C575 H546 0.950 . S
C575 C574 1.397 . S
C575 C576 1.334 . S
C576 H547 0.950 . S
C576 C575 1.334 . S
C576 C577 1.287 . S
C577 C576 1.287 . S
C577 C578 1.524 . S
C577 H580 0.999 . S
C578 H548 0.950 . S
C578 C577 1.524 . S
C578 C579 1.415 . S
C579 H549 0.950 . S
C579 C574 1.363 . S
C579 C578 1.415 . S
H580 C577 0.999 . S
H581 C562 0.913 . S
H582 C600 0.951 . S
H583 C602 0.951 . S
H584 C604 0.950 . S
H585 C605 0.950 . S
H586 C607 0.950 . S
H587 C610 0.950 . S
H588 C611 0.950 . S
H589 C613 0.950 . S
H590 C614 0.950 . S
H591 C615 0.951 . S
H592 C617 0.951 . S
H593 C619 0.950 . S
H594 C620 0.950 . S
H595 C622 0.950 . S
H596 C625 0.950 . S
H597 C626 0.950 . S
H598 C628 0.950 . S
H599 C629 0.950 . S
C600 H582 0.951 . S
C600 C601 1.366 . S
C600 C602 1.388 . S
C601 C600 1.366 . S
C601 C605 1.385 . S
C602 H583 0.951 . S
C602 C600 1.388 . S
C602 C603 1.366 . S
C603 C602 1.366 . S
C603 C604 1.414 . S
C603 C606 1.499 . S
C604 H584 0.950 . S
C604 C603 1.414 . S
C604 C605 1.374 . S
C605 H585 0.950 . S
C605 C601 1.385 . S
C605 C604 1.374 . S
C606 C603 1.499 . S
C606 C607 1.373 . S
C606 C608 1.389 . S
C607 H586 0.950 . S
C607 C606 1.373 . S
C607 C623 1.377 . S
C608 C606 1.389 . S
C608 C609 1.524 . S
C608 C622 1.377 . S
C609 C608 1.524 . S
C609 C610 1.397 . S
C609 C614 1.363 . S
C610 H587 0.950 . S
C610 C609 1.397 . S
C610 C611 1.334 . S
C611 H588 0.950 . S
C611 C610 1.334 . S
C611 C612 1.287 . S
C612 C611 1.287 . S
C612 C613 1.524 . S
C612 H631 0.913 . S
C613 H589 0.950 . S
C613 C612 1.524 . S
C613 C614 1.415 . S
C614 H590 0.950 . S
C614 C609 1.363 . S
C614 C613 1.415 . S
C615 H591 0.951 . S
C615 C616 1.366 . S
C615 C617 1.388 . S
C616 C615 1.366 . S
C616 C620 1.385 . S
C617 H592 0.951 . S
C617 C615 1.388 . S
C617 C618 1.366 . S
C618 C617 1.366 . S
C618 C619 1.414 . S
C618 C621 1.499 . S
C619 H593 0.950 . S
C619 C618 1.414 . S
C619 C620 1.374 . S
C620 H594 0.950 . S
C620 C616 1.385 . S
C620 C619 1.374 . S
C621 C618 1.499 . S
C621 C622 1.373 . S
C621 C623 1.389 . S
C622 H595 0.950 . S
C622 C608 1.377 . S
C622 C621 1.373 . S
C623 C607 1.377 . S
C623 C621 1.389 . S
C623 C624 1.524 . S
C624 C623 1.524 . S
C624 C625 1.397 . S
C624 C629 1.363 . S
C625 H596 0.950 . S
C625 C624 1.397 . S
C625 C626 1.334 . S
C626 H597 0.950 . S
C626 C625 1.334 . S
C626 C627 1.287 . S
C627 C626 1.287 . S
C627 C628 1.524 . S
C627 H630 0.999 . S
C628 H598 0.950 . S
C628 C627 1.524 . S
C628 C629 1.415 . S
C629 H599 0.950 . S
C629 C624 1.363 . S
C629 C628 1.415 . S
H630 C627 0.999 . S
H631 C612 0.913 . S
C151 C17 1.485 . S
C166 C50 1.485 . S
C201 C116 1.485 . S
C216 C83 1.485 . S
C251 C8 1.498 . S
C266 N113 1.478 . S
C301 N5 1.350 . S
C316 C127 1.417 . S
C351 N104 1.349 . S
C366 C28 1.420 . S
C401 N14 1.479 . S
C416 C107 1.500 . S
C451 N71 1.350 . S
C466 C61 1.420 . S
C501 N38 1.351 . S
C516 C94 1.417 . S
C551 C41 1.498 . S
C566 N80 1.478 . S
C601 C74 1.498 . S
C616 N47 1.480 . S
