# Generated by pormake.
# Topology ukr, (4)-cn, num edge types: 1
# Building blocks:
#     Node 0, Type 0, BuildingBlock: QUQFOY_clean_sbu_1, # of connection points: 4
#     Node 1, Type 0, BuildingBlock: QUQFOY_clean_sbu_1, # of connection points: 4
#     Node 2, Type 0, BuildingBlock: QUQFOY_clean_sbu_1, # of connection points: 4
#     Node 3, Type 0, BuildingBlock: QUQFOY_clean_sbu_1, # of connection points: 4
#     Node 4, Type 0, BuildingBlock: QUQFOY_clean_sbu_1, # of connection points: 4
#     Node 5, Type 0, BuildingBlock: QUQFOY_clean_sbu_1, # of connection points: 4
#     Node 6, Type 0, BuildingBlock: QUQFOY_clean_sbu_1, # of connection points: 4
#     Node 7, Type 0, BuildingBlock: QUQFOY_clean_sbu_1, # of connection points: 4
#     Node 8, Type 0, BuildingBlock: QUQFOY_clean_sbu_1, # of connection points: 4
#     Node 9, Type 0, BuildingBlock: QUQFOY_clean_sbu_1, # of connection points: 4
#     Node 10, Type 0, BuildingBlock: QUQFOY_clean_sbu_1, # of connection points: 4
#     Node 11, Type 0, BuildingBlock: QUQFOY_clean_sbu_1, # of connection points: 4
#     Node 12, Type 0, BuildingBlock: QUQFOY_clean_sbu_1, # of connection points: 4
#     Node 13, Type 0, BuildingBlock: QUQFOY_clean_sbu_1, # of connection points: 4
#     Node 14, Type 0, BuildingBlock: QUQFOY_clean_sbu_1, # of connection points: 4
#     Node 15, Type 0, BuildingBlock: QUQFOY_clean_sbu_1, # of connection points: 4
#     Node 16, Type 0, BuildingBlock: QUQFOY_clean_sbu_1, # of connection points: 4
#     Node 17, Type 0, BuildingBlock: QUQFOY_clean_sbu_1, # of connection points: 4
#     Node 18, Type 0, BuildingBlock: QUQFOY_clean_sbu_1, # of connection points: 4
#     Node 19, Type 0, BuildingBlock: QUQFOY_clean_sbu_1, # of connection points: 4
#     Node 20, Type 0, BuildingBlock: QUQFOY_clean_sbu_1, # of connection points: 4
#     Node 21, Type 0, BuildingBlock: QUQFOY_clean_sbu_1, # of connection points: 4
#     Node 22, Type 0, BuildingBlock: QUQFOY_clean_sbu_1, # of connection points: 4
#     Node 23, Type 0, BuildingBlock: QUQFOY_clean_sbu_1, # of connection points: 4
#     Node 24, Type 0, BuildingBlock: QUQFOY_clean_sbu_1, # of connection points: 4
#     Node 25, Type 0, BuildingBlock: QUQFOY_clean_sbu_1, # of connection points: 4
#     Node 26, Type 0, BuildingBlock: QUQFOY_clean_sbu_1, # of connection points: 4
#     Node 27, Type 0, BuildingBlock: QUQFOY_clean_sbu_1, # of connection points: 4
#     Node 28, Type 0, BuildingBlock: QUQFOY_clean_sbu_1, # of connection points: 4
#     Node 29, Type 0, BuildingBlock: QUQFOY_clean_sbu_1, # of connection points: 4
#     Node 30, Type 0, BuildingBlock: QUQFOY_clean_sbu_1, # of connection points: 4
#     Node 31, Type 0, BuildingBlock: QUQFOY_clean_sbu_1, # of connection points: 4
#     Node 32, Type 0, BuildingBlock: QUQFOY_clean_sbu_1, # of connection points: 4
#     Node 33, Type 0, BuildingBlock: QUQFOY_clean_sbu_1, # of connection points: 4
#     Node 34, Type 0, BuildingBlock: QUQFOY_clean_sbu_1, # of connection points: 4
#     Node 35, Type 0, BuildingBlock: QUQFOY_clean_sbu_1, # of connection points: 4
#     Node 36, Type 0, BuildingBlock: QUQFOY_clean_sbu_1, # of connection points: 4
#     Node 37, Type 0, BuildingBlock: QUQFOY_clean_sbu_1, # of connection points: 4
#     Node 38, Type 0, BuildingBlock: QUQFOY_clean_sbu_1, # of connection points: 4
#     Node 39, Type 0, BuildingBlock: QUQFOY_clean_sbu_1, # of connection points: 4
#     Node 40, Type 0, BuildingBlock: QUQFOY_clean_sbu_1, # of connection points: 4
#     Node 41, Type 0, BuildingBlock: QUQFOY_clean_sbu_1, # of connection points: 4
#     Node 42, Type 0, BuildingBlock: QUQFOY_clean_sbu_1, # of connection points: 4
#     Node 43, Type 0, BuildingBlock: QUQFOY_clean_sbu_1, # of connection points: 4
#     Node 44, Type 0, BuildingBlock: QUQFOY_clean_sbu_1, # of connection points: 4
#     Node 45, Type 0, BuildingBlock: QUQFOY_clean_sbu_1, # of connection points: 4
#     Node 46, Type 0, BuildingBlock: QUQFOY_clean_sbu_1, # of connection points: 4
#     Node 47, Type 0, BuildingBlock: QUQFOY_clean_sbu_1, # of connection points: 4
#     Edge 48, Type (0, 0), BuildingBlock: UVAHIK_clean_linker_0, # of connection points: 2
#     Edge 49, Type (0, 0), BuildingBlock: UVAHIK_clean_linker_0, # of connection points: 2
#     Edge 50, Type (0, 0), BuildingBlock: UVAHIK_clean_linker_0, # of connection points: 2
#     Edge 51, Type (0, 0), BuildingBlock: UVAHIK_clean_linker_0, # of connection points: 2
#     Edge 52, Type (0, 0), BuildingBlock: UVAHIK_clean_linker_0, # of connection points: 2
#     Edge 53, Type (0, 0), BuildingBlock: UVAHIK_clean_linker_0, # of connection points: 2
#     Edge 54, Type (0, 0), BuildingBlock: UVAHIK_clean_linker_0, # of connection points: 2
#     Edge 55, Type (0, 0), BuildingBlock: UVAHIK_clean_linker_0, # of connection points: 2
#     Edge 56, Type (0, 0), BuildingBlock: UVAHIK_clean_linker_0, # of connection points: 2
#     Edge 57, Type (0, 0), BuildingBlock: UVAHIK_clean_linker_0, # of connection points: 2
#     Edge 58, Type (0, 0), BuildingBlock: UVAHIK_clean_linker_0, # of connection points: 2
#     Edge 59, Type (0, 0), BuildingBlock: UVAHIK_clean_linker_0, # of connection points: 2
#     Edge 60, Type (0, 0), BuildingBlock: UVAHIK_clean_linker_0, # of connection points: 2
#     Edge 61, Type (0, 0), BuildingBlock: UVAHIK_clean_linker_0, # of connection points: 2
#     Edge 62, Type (0, 0), BuildingBlock: UVAHIK_clean_linker_0, # of connection points: 2
#     Edge 63, Type (0, 0), BuildingBlock: UVAHIK_clean_linker_0, # of connection points: 2
#     Edge 64, Type (0, 0), BuildingBlock: UVAHIK_clean_linker_0, # of connection points: 2
#     Edge 65, Type (0, 0), BuildingBlock: UVAHIK_clean_linker_0, # of connection points: 2
#     Edge 66, Type (0, 0), BuildingBlock: UVAHIK_clean_linker_0, # of connection points: 2
#     Edge 67, Type (0, 0), BuildingBlock: UVAHIK_clean_linker_0, # of connection points: 2
#     Edge 68, Type (0, 0), BuildingBlock: UVAHIK_clean_linker_0, # of connection points: 2
#     Edge 69, Type (0, 0), BuildingBlock: UVAHIK_clean_linker_0, # of connection points: 2
#     Edge 70, Type (0, 0), BuildingBlock: UVAHIK_clean_linker_0, # of connection points: 2
#     Edge 71, Type (0, 0), BuildingBlock: UVAHIK_clean_linker_0, # of connection points: 2
#     Edge 72, Type (0, 0), BuildingBlock: UVAHIK_clean_linker_0, # of connection points: 2
#     Edge 73, Type (0, 0), BuildingBlock: UVAHIK_clean_linker_0, # of connection points: 2
#     Edge 74, Type (0, 0), BuildingBlock: UVAHIK_clean_linker_0, # of connection points: 2
#     Edge 75, Type (0, 0), BuildingBlock: UVAHIK_clean_linker_0, # of connection points: 2
#     Edge 76, Type (0, 0), BuildingBlock: UVAHIK_clean_linker_0, # of connection points: 2
#     Edge 77, Type (0, 0), BuildingBlock: UVAHIK_clean_linker_0, # of connection points: 2
#     Edge 78, Type (0, 0), BuildingBlock: UVAHIK_clean_linker_0, # of connection points: 2
#     Edge 79, Type (0, 0), BuildingBlock: UVAHIK_clean_linker_0, # of connection points: 2
#     Edge 80, Type (0, 0), BuildingBlock: UVAHIK_clean_linker_0, # of connection points: 2
#     Edge 81, Type (0, 0), BuildingBlock: UVAHIK_clean_linker_0, # of connection points: 2
#     Edge 82, Type (0, 0), BuildingBlock: UVAHIK_clean_linker_0, # of connection points: 2
#     Edge 83, Type (0, 0), BuildingBlock: UVAHIK_clean_linker_0, # of connection points: 2
#     Edge 84, Type (0, 0), BuildingBlock: UVAHIK_clean_linker_0, # of connection points: 2
#     Edge 85, Type (0, 0), BuildingBlock: UVAHIK_clean_linker_0, # of connection points: 2
#     Edge 86, Type (0, 0), BuildingBlock: UVAHIK_clean_linker_0, # of connection points: 2
#     Edge 87, Type (0, 0), BuildingBlock: UVAHIK_clean_linker_0, # of connection points: 2
#     Edge 88, Type (0, 0), BuildingBlock: UVAHIK_clean_linker_0, # of connection points: 2
#     Edge 89, Type (0, 0), BuildingBlock: UVAHIK_clean_linker_0, # of connection points: 2
#     Edge 90, Type (0, 0), BuildingBlock: UVAHIK_clean_linker_0, # of connection points: 2
#     Edge 91, Type (0, 0), BuildingBlock: UVAHIK_clean_linker_0, # of connection points: 2
#     Edge 92, Type (0, 0), BuildingBlock: UVAHIK_clean_linker_0, # of connection points: 2
#     Edge 93, Type (0, 0), BuildingBlock: UVAHIK_clean_linker_0, # of connection points: 2
#     Edge 94, Type (0, 0), BuildingBlock: UVAHIK_clean_linker_0, # of connection points: 2
#     Edge 95, Type (0, 0), BuildingBlock: UVAHIK_clean_linker_0, # of connection points: 2
#     Edge 96, Type (0, 0), BuildingBlock: UVAHIK_clean_linker_0, # of connection points: 2
#     Edge 97, Type (0, 0), BuildingBlock: UVAHIK_clean_linker_0, # of connection points: 2
#     Edge 98, Type (0, 0), BuildingBlock: UVAHIK_clean_linker_0, # of connection points: 2
#     Edge 99, Type (0, 0), BuildingBlock: UVAHIK_clean_linker_0, # of connection points: 2
#     Edge 100, Type (0, 0), BuildingBlock: UVAHIK_clean_linker_0, # of connection points: 2
#     Edge 101, Type (0, 0), BuildingBlock: UVAHIK_clean_linker_0, # of connection points: 2
#     Edge 102, Type (0, 0), BuildingBlock: UVAHIK_clean_linker_0, # of connection points: 2
#     Edge 103, Type (0, 0), BuildingBlock: UVAHIK_clean_linker_0, # of connection points: 2
#     Edge 104, Type (0, 0), BuildingBlock: UVAHIK_clean_linker_0, # of connection points: 2
#     Edge 105, Type (0, 0), BuildingBlock: UVAHIK_clean_linker_0, # of connection points: 2
#     Edge 106, Type (0, 0), BuildingBlock: UVAHIK_clean_linker_0, # of connection points: 2
#     Edge 107, Type (0, 0), BuildingBlock: UVAHIK_clean_linker_0, # of connection points: 2
#     Edge 108, Type (0, 0), BuildingBlock: UVAHIK_clean_linker_0, # of connection points: 2
#     Edge 109, Type (0, 0), BuildingBlock: UVAHIK_clean_linker_0, # of connection points: 2
#     Edge 110, Type (0, 0), BuildingBlock: UVAHIK_clean_linker_0, # of connection points: 2
#     Edge 111, Type (0, 0), BuildingBlock: UVAHIK_clean_linker_0, # of connection points: 2
#     Edge 112, Type (0, 0), BuildingBlock: UVAHIK_clean_linker_0, # of connection points: 2
#     Edge 113, Type (0, 0), BuildingBlock: UVAHIK_clean_linker_0, # of connection points: 2
#     Edge 114, Type (0, 0), BuildingBlock: UVAHIK_clean_linker_0, # of connection points: 2
#     Edge 115, Type (0, 0), BuildingBlock: UVAHIK_clean_linker_0, # of connection points: 2
#     Edge 116, Type (0, 0), BuildingBlock: UVAHIK_clean_linker_0, # of connection points: 2
#     Edge 117, Type (0, 0), BuildingBlock: UVAHIK_clean_linker_0, # of connection points: 2
#     Edge 118, Type (0, 0), BuildingBlock: UVAHIK_clean_linker_0, # of connection points: 2
#     Edge 119, Type (0, 0), BuildingBlock: UVAHIK_clean_linker_0, # of connection points: 2
#     Edge 120, Type (0, 0), BuildingBlock: UVAHIK_clean_linker_0, # of connection points: 2
#     Edge 121, Type (0, 0), BuildingBlock: UVAHIK_clean_linker_0, # of connection points: 2
#     Edge 122, Type (0, 0), BuildingBlock: UVAHIK_clean_linker_0, # of connection points: 2
#     Edge 123, Type (0, 0), BuildingBlock: UVAHIK_clean_linker_0, # of connection points: 2
#     Edge 124, Type (0, 0), BuildingBlock: UVAHIK_clean_linker_0, # of connection points: 2
#     Edge 125, Type (0, 0), BuildingBlock: UVAHIK_clean_linker_0, # of connection points: 2
#     Edge 126, Type (0, 0), BuildingBlock: UVAHIK_clean_linker_0, # of connection points: 2
#     Edge 127, Type (0, 0), BuildingBlock: UVAHIK_clean_linker_0, # of connection points: 2
#     Edge 128, Type (0, 0), BuildingBlock: UVAHIK_clean_linker_0, # of connection points: 2
#     Edge 129, Type (0, 0), BuildingBlock: UVAHIK_clean_linker_0, # of connection points: 2
#     Edge 130, Type (0, 0), BuildingBlock: UVAHIK_clean_linker_0, # of connection points: 2
#     Edge 131, Type (0, 0), BuildingBlock: UVAHIK_clean_linker_0, # of connection points: 2
#     Edge 132, Type (0, 0), BuildingBlock: UVAHIK_clean_linker_0, # of connection points: 2
#     Edge 133, Type (0, 0), BuildingBlock: UVAHIK_clean_linker_0, # of connection points: 2
#     Edge 134, Type (0, 0), BuildingBlock: UVAHIK_clean_linker_0, # of connection points: 2
#     Edge 135, Type (0, 0), BuildingBlock: UVAHIK_clean_linker_0, # of connection points: 2
#     Edge 136, Type (0, 0), BuildingBlock: UVAHIK_clean_linker_0, # of connection points: 2
#     Edge 137, Type (0, 0), BuildingBlock: UVAHIK_clean_linker_0, # of connection points: 2
#     Edge 138, Type (0, 0), BuildingBlock: UVAHIK_clean_linker_0, # of connection points: 2
#     Edge 139, Type (0, 0), BuildingBlock: UVAHIK_clean_linker_0, # of connection points: 2
#     Edge 140, Type (0, 0), BuildingBlock: UVAHIK_clean_linker_0, # of connection points: 2
#     Edge 141, Type (0, 0), BuildingBlock: UVAHIK_clean_linker_0, # of connection points: 2
#     Edge 142, Type (0, 0), BuildingBlock: UVAHIK_clean_linker_0, # of connection points: 2
#     Edge 143, Type (0, 0), BuildingBlock: UVAHIK_clean_linker_0, # of connection points: 2
# Relax obj value: 0.382
# Max RMSD: 0.179
# Mean RMSD: 0.179
data_MOF--net-ukr--node1-QUQFOY_clean_sbu_1--edge1-UVAHIK_clean_linker_0
_symmetry_space_group_name_H-M    P1
_symmetry_Int_Tables_number       1
_symmetry_cell_setting            triclinic
loop_
_symmetry_equiv_pos_as_xyz
'x, y, z'
_cell_length_a     93.478589
_cell_length_b     93.487589
_cell_length_c     93.450631
_cell_angle_alpha  89.99791
_cell_angle_beta   90.004478
_cell_angle_gamma 90.00035
loop_
_atom_site_label
_atom_site_type_symbol
_atom_site_fract_x
_atom_site_fract_y
_atom_site_fract_z
_atom_type_partial_charge
O0 O 0.10549 0.24755 0.19442 0.0
Cd1 Cd 0.10247 0.26339 0.17941 0.0
Cd2 Cd 0.11967 0.27876 0.19702 0.0
O3 O 0.11732 0.26088 0.2099 0.0
O4 O 0.08466 0.25859 0.16894 0.0
O5 O 0.08694 0.27797 0.1824 0.0
C6 C 0.07906 0.27002 0.17427 0.0
C7 C 0.12223 0.30073 0.20878 0.0
C8 C 0.11166 0.249 0.20645 0.0
C9 C 0.13039 0.27119 0.16707 0.0
O10 O 0.13271 0.27679 0.17924 0.0
O11 O 0.11837 0.2655 0.16437 0.0
O12 O 0.13222 0.29128 0.2087 0.0
O13 O 0.11037 0.29768 0.20241 0.0
O14 O 0.25432 0.59841 0.69331 0.0
Cd15 Cd 0.23555 0.59887 0.68164 0.0
Cd16 Cd 0.226 0.613 0.70397 0.0
O17 O 0.24372 0.60398 0.71359 0.0
O18 O 0.23619 0.58255 0.66809 0.0
O19 O 0.22064 0.58406 0.68595 0.0
C20 C 0.22587 0.5769 0.67532 0.0
C21 C 0.20506 0.61495 0.71754 0.0
C22 C 0.25477 0.5999 0.70682 0.0
C23 C 0.23062 0.62928 0.67643 0.0
O24 O 0.22947 0.62988 0.68998 0.0
O25 O 0.23156 0.61723 0.67023 0.0
O26 O 0.21631 0.62234 0.72042 0.0
O27 O 0.2057 0.60605 0.70698 0.0
O28 O 0.89914 0.75565 0.1942 0.0
Cd29 Cd 0.89927 0.73835 0.18056 0.0
Cd30 Cd 0.88416 0.72519 0.20109 0.0
O31 O 0.88946 0.74366 0.21202 0.0
O32 O 0.91607 0.74044 0.16776 0.0
O33 O 0.91398 0.72308 0.18381 0.0
C34 C 0.92149 0.7294 0.17405 0.0
C35 C 0.88442 0.7041 0.21443 0.0
C36 C 0.89492 0.7551 0.2071 0.0
C37 C 0.86945 0.73088 0.17276 0.0
O38 O 0.86835 0.72655 0.18562 0.0
O39 O 0.88135 0.73549 0.16809 0.0
O40 O 0.87488 0.71378 0.21646 0.0
O41 O 0.89403 0.70624 0.20475 0.0
O42 O 0.74698 0.40102 0.69374 0.0
Cd43 Cd 0.76511 0.4006 0.68124 0.0
Cd44 Cd 0.77627 0.38612 0.7031 0.0
O45 O 0.75811 0.39377 0.7132 0.0
O46 O 0.76384 0.41698 0.66784 0.0
O47 O 0.78029 0.41532 0.68486 0.0
C48 C 0.77454 0.42256 0.67455 0.0
C49 C 0.79707 0.38448 0.71696 0.0
C50 C 0.74691 0.39846 0.70708 0.0
C51 C 0.77097 0.3703 0.67522 0.0
O52 O 0.77377 0.36957 0.68852 0.0
O53 O 0.76823 0.38231 0.66949 0.0
O54 O 0.78612 0.37648 0.71928 0.0
O55 O 0.79624 0.39377 0.70677 0.0
O56 O 0.09657 0.75566 0.80648 0.0
Cd57 Cd 0.09699 0.73778 0.81948 0.0
Cd58 Cd 0.11337 0.72694 0.79862 0.0
O59 O 0.1064 0.74493 0.78797 0.0
O60 O 0.08006 0.73921 0.83221 0.0
O61 O 0.08252 0.72234 0.81573 0.0
C62 C 0.07483 0.72828 0.82558 0.0
C63 C 0.11587 0.706 0.7851 0.0
C64 C 0.10052 0.75587 0.79348 0.0
C65 C 0.12722 0.73269 0.8273 0.0
O66 O 0.12888 0.72991 0.81409 0.0
O67 O 0.1148 0.7351 0.83226 0.0
O68 O 0.10599 0.70692 0.79471 0.0
O69 O 0.12402 0.71692 0.78319 0.0
O70 O 0.74867 0.59987 0.30551 0.0
Cd71 Cd 0.76339 0.59738 0.3217 0.0
Cd72 Cd 0.77979 0.61546 0.30568 0.0
O73 O 0.7628 0.61277 0.29176 0.0
O74 O 0.75809 0.57952 0.33186 0.0
O75 O 0.77834 0.58202 0.31979 0.0
C76 C 0.7699 0.57402 0.32728 0.0
C77 C 0.80221 0.61747 0.29487 0.0
C78 C 0.75092 0.60651 0.29387 0.0
C79 C 0.77001 0.6256 0.33493 0.0
O80 O 0.77659 0.62838 0.32335 0.0
O81 O 0.76422 0.61344 0.33679 0.0
O82 O 0.79266 0.62726 0.29356 0.0
O83 O 0.7992 0.60632 0.30241 0.0
O84 O 0.90389 0.24523 0.80881 0.0
Cd85 Cd 0.9035 0.26342 0.82126 0.0
Cd86 Cd 0.88814 0.27418 0.79996 0.0
O87 O 0.89606 0.25634 0.78956 0.0
O88 O 0.92046 0.26282 0.834 0.0
O89 O 0.91762 0.27895 0.81682 0.0
C90 C 0.92544 0.27358 0.82691 0.0
C91 C 0.88592 0.29508 0.78636 0.0
C92 C 0.90109 0.24521 0.79551 0.0
C93 C 0.87327 0.26855 0.82824 0.0
O94 O 0.87201 0.27114 0.81494 0.0
O95 O 0.88556 0.26631 0.8336 0.0
O96 O 0.878 0.28406 0.7841 0.0
O97 O 0.89541 0.29429 0.79637 0.0
O98 O 0.25234 0.399 0.30899 0.0
Cd99 Cd 0.23732 0.40218 0.32476 0.0
Cd100 Cd 0.22154 0.38303 0.30956 0.0
O101 O 0.23917 0.38424 0.29614 0.0
O102 O 0.24173 0.42078 0.33391 0.0
O103 O 0.22184 0.41677 0.32163 0.0
C104 C 0.22976 0.42548 0.3289 0.0
C105 C 0.1994 0.37978 0.29829 0.0
C106 C 0.25073 0.39117 0.298 0.0
C107 C 0.23039 0.37526 0.33994 0.0
O108 O 0.22373 0.37192 0.32858 0.0
O109 O 0.23668 0.38725 0.34091 0.0
O110 O 0.20866 0.36965 0.29925 0.0
O111 O 0.2027 0.39209 0.3036 0.0
O112 O 0.19536 0.09587 0.24523 0.0
Cd113 Cd 0.1825 0.0967 0.26319 0.0
Cd114 Cd 0.20327 0.11302 0.27382 0.0
O115 O 0.21382 0.10597 0.25579 0.0
O116 O 0.1703 0.07934 0.26303 0.0
O117 O 0.18702 0.08337 0.27937 0.0
C118 C 0.17732 0.07502 0.27412 0.0
C119 C 0.21691 0.11524 0.2947 0.0
C120 C 0.20834 0.09989 0.24494 0.0
C121 C 0.17463 0.12693 0.26802 0.0
O122 O 0.18782 0.12858 0.27091 0.0
O123 O 0.16968 0.11452 0.26556 0.0
O124 O 0.21883 0.12347 0.28384 0.0
O125 O 0.20718 0.10548 0.29378 0.0
O126 O 0.39729 0.69175 0.74777 0.0
Cd127 Cd 0.40088 0.67593 0.76274 0.0
Cd128 Cd 0.38145 0.69101 0.77827 0.0
O129 O 0.38325 0.70503 0.76128 0.0
O130 O 0.41932 0.66702 0.75729 0.0
O131 O 0.41623 0.67892 0.77755 0.0
C132 C 0.4246 0.67192 0.76906 0.0
C133 C 0.37825 0.70141 0.80082 0.0
C134 C 0.38992 0.70303 0.7496 0.0
C135 C 0.37379 0.66075 0.76895 0.0
O136 O 0.37004 0.67238 0.7749 0.0
O137 O 0.38627 0.65946 0.76374 0.0
O138 O 0.36817 0.70105 0.79146 0.0
O139 O 0.39046 0.69594 0.79741 0.0
O140 O 0.80711 0.90229 0.24719 0.0
Cd141 Cd 0.82321 0.9053 0.26187 0.0
Cd142 Cd 0.80873 0.88553 0.27776 0.0
O143 O 0.7951 0.88676 0.26028 0.0
O144 O 0.8317 0.9244 0.25834 0.0
O145 O 0.82015 0.9188 0.27829 0.0
C146 C 0.82695 0.92819 0.27074 0.0
C147 C 0.79752 0.8811 0.29975 0.0
C148 C 0.79644 0.89405 0.24887 0.0
C149 C 0.83914 0.87868 0.26806 0.0
O150 O 0.82811 0.87514 0.27519 0.0
O151 O 0.83959 0.89062 0.26161 0.0
O152 O 0.79896 0.87132 0.29019 0.0
O153 O 0.80237 0.8937 0.29689 0.0
O154 O 0.59817 0.31021 0.74496 0.0
Cd155 Cd 0.5975 0.32458 0.76172 0.0
Cd156 Cd 0.61679 0.30678 0.77358 0.0
O157 O 0.61231 0.29467 0.75565 0.0
O158 O 0.57904 0.33486 0.76024 0.0
O159 O 0.58448 0.3205 0.77831 0.0
C160 C 0.57535 0.32883 0.7721 0.0
C161 C 0.62098 0.2944 0.79492 0.0
C162 C 0.60475 0.29831 0.74495 0.0
C163 C 0.62609 0.33714 0.76645 0.0
O164 O 0.62938 0.32471 0.77084 0.0
O165 O 0.61335 0.33987 0.76264 0.0
O166 O 0.63017 0.29458 0.78468 0.0
O167 O 0.60905 0.30108 0.79305 0.0
O168 O 0.19323 0.89882 0.75151 0.0
Cd169 Cd 0.17684 0.90212 0.73716 0.0
Cd170 Cd 0.18942 0.88138 0.72183 0.0
O171 O 0.20369 0.88195 0.73878 0.0
O172 O 0.16908 0.92155 0.74056 0.0
O173 O 0.17981 0.9152 0.72037 0.0
C174 C 0.17344 0.92491 0.7279 0.0
C175 C 0.19965 0.87821 0.69922 0.0
C176 C 0.20325 0.88978 0.74989 0.0
C177 C 0.15926 0.87609 0.73241 0.0
O178 O 0.16985 0.87159 0.72517 0.0
O179 O 0.15972 0.88834 0.73825 0.0
O180 O 0.19848 0.86785 0.70819 0.0
O181 O 0.19495 0.89063 0.70301 0.0
O182 O 0.60281 0.68965 0.25395 0.0
Cd183 Cd 0.60052 0.67532 0.2374 0.0
Cd184 Cd 0.61721 0.69384 0.22305 0.0
O185 O 0.61359 0.70625 0.2411 0.0
O186 O 0.58266 0.66448 0.2409 0.0
O187 O 0.58559 0.6791 0.22243 0.0
C188 C 0.57746 0.6705 0.22961 0.0
C189 C 0.61935 0.70596 0.20126 0.0
C190 C 0.6081 0.70211 0.25284 0.0
C191 C 0.62883 0.66405 0.22976 0.0
O192 O 0.63098 0.67655 0.22487 0.0
O193 O 0.61672 0.66074 0.2349 0.0
O194 O 0.6292 0.70639 0.21085 0.0
O195 O 0.60785 0.69888 0.20409 0.0
O196 O 0.81341 0.09874 0.75677 0.0
Cd197 Cd 0.82798 0.09706 0.74028 0.0
Cd198 Cd 0.81034 0.11628 0.72644 0.0
O199 O 0.79813 0.11161 0.74425 0.0
O200 O 0.83818 0.07869 0.74288 0.0
O201 O 0.82387 0.08311 0.72447 0.0
C202 C 0.83214 0.07433 0.73125 0.0
C203 C 0.79639 0.12283 0.70657 0.0
C204 C 0.80136 0.10491 0.75563 0.0
C205 C 0.84088 0.12525 0.73402 0.0
O206 O 0.82862 0.12848 0.7291 0.0
O207 O 0.84332 0.11272 0.73863 0.0
O208 O 0.803 0.11072 0.70667 0.0
O209 O 0.79789 0.13098 0.71753 0.0
O210 O 0.39761 0.30534 0.25287 0.0
Cd211 Cd 0.40025 0.32128 0.23788 0.0
Cd212 Cd 0.38186 0.30551 0.22182 0.0
O213 O 0.38314 0.29232 0.23955 0.0
O214 O 0.41893 0.3307 0.2415 0.0
O215 O 0.41417 0.31838 0.22179 0.0
C216 C 0.42315 0.32576 0.22931 0.0
C217 C 0.37869 0.29365 0.19995 0.0
C218 C 0.38994 0.29425 0.25118 0.0
C219 C 0.3728 0.33547 0.23086 0.0
O220 O 0.37009 0.3241 0.22392 0.0
O221 O 0.38465 0.33684 0.23737 0.0
O222 O 0.3686 0.29471 0.20921 0.0
O223 O 0.39091 0.29929 0.20303 0.0
O224 O 0.24996 0.19227 0.10337 0.0
Cd225 Cd 0.26414 0.17595 0.09917 0.0
Cd226 Cd 0.27992 0.18869 0.12035 0.0
O227 O 0.26291 0.20285 0.12001 0.0
O228 O 0.25793 0.16797 0.08053 0.0
O229 O 0.27895 0.17841 0.08368 0.0
C230 C 0.26996 0.17214 0.07525 0.0
C231 C 0.30236 0.19917 0.12396 0.0
C232 C 0.25166 0.2023 0.11238 0.0
C233 C 0.26972 0.15826 0.12513 0.0
O234 O 0.27672 0.16893 0.1298 0.0
O235 O 0.26388 0.15873 0.11287 0.0
O236 O 0.29332 0.19762 0.13422 0.0
O237 O 0.29876 0.19467 0.11141 0.0
O238 O 0.24807 0.80636 0.896 0.0
Cd239 Cd 0.2641 0.8212 0.89887 0.0
Cd240 Cd 0.27918 0.80359 0.88149 0.0
O241 O 0.26122 0.79085 0.884 0.0
O242 O 0.25994 0.83157 0.91691 0.0
O243 O 0.27898 0.81774 0.91401 0.0
C244 C 0.27139 0.82594 0.92217 0.0
C245 C 0.30099 0.79156 0.87882 0.0
C246 C 0.24941 0.79434 0.88979 0.0
C247 C 0.27172 0.83358 0.87089 0.0
O248 O 0.27725 0.8214 0.86849 0.0
O249 O 0.26615 0.83627 0.88298 0.0
O250 O 0.29152 0.79179 0.86886 0.0
O251 O 0.29808 0.79797 0.8907 0.0
O252 O 0.69444 0.74723 0.39924 0.0
Cd253 Cd 0.67933 0.76324 0.40124 0.0
Cd254 Cd 0.69673 0.77754 0.38295 0.0
O255 O 0.70965 0.76 0.38651 0.0
O256 O 0.66946 0.7606 0.41986 0.0
O257 O 0.68314 0.77934 0.41493 0.0
C258 C 0.67522 0.77247 0.42396 0.0
C259 C 0.70849 0.79928 0.37876 0.0
C260 C 0.70643 0.74846 0.39295 0.0
C261 C 0.6668 0.76913 0.3729 0.0
O262 O 0.67902 0.77438 0.37013 0.0
O263 O 0.66403 0.7645 0.38537 0.0
O264 O 0.70836 0.78916 0.36947 0.0
O265 O 0.70212 0.7971 0.39081 0.0
O266 O 0.75022 0.19553 0.89531 0.0
Cd267 Cd 0.73616 0.179 0.89911 0.0
Cd268 Cd 0.72028 0.1919 0.87832 0.0
O269 O 0.73786 0.20536 0.87778 0.0
O270 O 0.7419 0.1706 0.91774 0.0
O271 O 0.72094 0.18107 0.91424 0.0
C272 C 0.72968 0.17457 0.92276 0.0
C273 C 0.69809 0.20298 0.8749 0.0
C274 C 0.74892 0.20507 0.88571 0.0
C275 C 0.73019 0.16157 0.87305 0.0
O276 O 0.72257 0.17205 0.86895 0.0
O277 O 0.73678 0.16213 0.88491 0.0
O278 O 0.7069 0.20096 0.86453 0.0
O279 O 0.70182 0.19872 0.88749 0.0
O280 O 0.30551 0.25472 0.40338 0.0
Cd281 Cd 0.32007 0.23822 0.40389 0.0
Cd282 Cd 0.30131 0.22425 0.38683 0.0
O283 O 0.28926 0.2421 0.39191 0.0
O284 O 0.33122 0.23993 0.42185 0.0
O285 O 0.31651 0.22188 0.41731 0.0
C286 C 0.32521 0.22821 0.42601 0.0
C287 C 0.28803 0.20321 0.38376 0.0
C288 C 0.29304 0.25359 0.3981 0.0
C289 C 0.33049 0.23197 0.37463 0.0
O290 O 0.31809 0.22677 0.37256 0.0
O291 O 0.33394 0.23681 0.38686 0.0
O292 O 0.2967 0.20442 0.39444 0.0
O293 O 0.28705 0.21379 0.37504 0.0
O294 O 0.748 0.80403 0.10681 0.0
Cd295 Cd 0.73422 0.82073 0.10265 0.0
Cd296 Cd 0.71672 0.80659 0.12123 0.0
O297 O 0.73367 0.79235 0.12146 0.0
O298 O 0.74098 0.82946 0.08452 0.0
O299 O 0.7199 0.81887 0.08667 0.0
C300 C 0.72914 0.82539 0.07871 0.0
C301 C 0.69396 0.79634 0.12329 0.0
C302 C 0.74556 0.79342 0.11494 0.0
C303 C 0.72689 0.8364 0.12933 0.0
O304 O 0.7194 0.82547 0.13235 0.0
O305 O 0.73373 0.83696 0.11759 0.0
O306 O 0.70259 0.79717 0.13397 0.0
O307 O 0.69822 0.80128 0.11112 0.0
O308 O 0.69561 0.25047 0.60655 0.0
Cd309 Cd 0.67876 0.23727 0.60122 0.0
Cd310 Cd 0.69002 0.21987 0.62149 0.0
O311 O 0.70447 0.2365 0.62334 0.0
O312 O 0.67173 0.24414 0.58244 0.0
O313 O 0.681 0.22258 0.58562 0.0
C314 C 0.67541 0.23195 0.57713 0.0
C315 C 0.69985 0.19706 0.62399 0.0
C316 C 0.70488 0.24806 0.6162 0.0
C317 C 0.65998 0.23097 0.62619 0.0
O318 O 0.67007 0.22294 0.63046 0.0
O319 O 0.66118 0.2378 0.61451 0.0
O320 O 0.6978 0.2053 0.63481 0.0
O321 O 0.69628 0.20164 0.61147 0.0
O322 O 0.3044 0.74944 0.60597 0.0
Cd323 Cd 0.31989 0.76464 0.60226 0.0
Cd324 Cd 0.30434 0.7808 0.62046 0.0
O325 O 0.29092 0.76319 0.6196 0.0
O326 O 0.32877 0.76038 0.58347 0.0
O327 O 0.31633 0.78011 0.58779 0.0
C328 C 0.32353 0.77232 0.5789 0.0
C329 C 0.29287 0.80293 0.62299 0.0
C330 C 0.29318 0.7513 0.6134 0.0
C331 C 0.33456 0.77217 0.6292 0.0
O332 O 0.32303 0.77874 0.63215 0.0
O333 O 0.33594 0.76584 0.61726 0.0
O334 O 0.29378 0.79395 0.63336 0.0
O335 O 0.29842 0.79939 0.61085 0.0
O336 O 0.90017 0.75397 0.80655 0.0
Cd337 Cd 0.90104 0.7363 0.81966 0.0
Cd338 Cd 0.88548 0.7237 0.79896 0.0
O339 O 0.89158 0.74202 0.78814 0.0
O340 O 0.91814 0.73842 0.83206 0.0
O341 O 0.91594 0.72134 0.81574 0.0
C342 C 0.92358 0.72759 0.82544 0.0
C343 C 0.88334 0.70315 0.78476 0.0
C344 C 0.89646 0.75352 0.79349 0.0
C345 C 0.87133 0.7294 0.82772 0.0
O346 O 0.86993 0.72576 0.81468 0.0
O347 O 0.88349 0.73313 0.8325 0.0
O348 O 0.87484 0.71386 0.78341 0.0
O349 O 0.8933 0.70396 0.79429 0.0
O350 O 0.74832 0.39476 0.30436 0.0
Cd351 Cd 0.76323 0.39792 0.32029 0.0
Cd352 Cd 0.77961 0.37984 0.30403 0.0
O353 O 0.76183 0.3809 0.29087 0.0
O354 O 0.75769 0.41582 0.33027 0.0
O355 O 0.77789 0.41353 0.31811 0.0
C356 C 0.7694 0.42144 0.32563 0.0
C357 C 0.80164 0.37706 0.29239 0.0
C358 C 0.75006 0.38734 0.2931 0.0
C359 C 0.77103 0.37039 0.33403 0.0
O360 O 0.77771 0.36785 0.32248 0.0
O361 O 0.7645 0.38219 0.3357 0.0
O362 O 0.79248 0.36685 0.2932 0.0
O363 O 0.79832 0.38921 0.29803 0.0
O364 O 0.09752 0.24516 0.80573 0.0
Cd365 Cd 0.09782 0.26371 0.81775 0.0
Cd366 Cd 0.11265 0.27364 0.79591 0.0
O367 O 0.10418 0.25591 0.78587 0.0
O368 O 0.08125 0.26299 0.83099 0.0
O369 O 0.08324 0.27887 0.81347 0.0
C370 C 0.07587 0.27355 0.8239 0.0
C371 C 0.11491 0.29458 0.78238 0.0
C372 C 0.09971 0.24482 0.79232 0.0
C373 C 0.12817 0.26847 0.82381 0.0
O374 O 0.12912 0.27011 0.81034 0.0
O375 O 0.11597 0.26725 0.82966 0.0
O376 O 0.12247 0.28339 0.77976 0.0
O377 O 0.10573 0.29393 0.79267 0.0
O378 O 0.25283 0.60084 0.30221 0.0
Cd379 Cd 0.23558 0.59983 0.31604 0.0
Cd380 Cd 0.22268 0.61627 0.29625 0.0
O381 O 0.24045 0.61044 0.28463 0.0
O382 O 0.23881 0.5829 0.32839 0.0
O383 O 0.22083 0.58448 0.31301 0.0
C384 C 0.22777 0.57712 0.32245 0.0
C385 C 0.20153 0.6185 0.28302 0.0
C386 C 0.25203 0.60511 0.28933 0.0
C387 C 0.22914 0.62947 0.3251 0.0
O388 O 0.2256 0.63145 0.31211 0.0
O389 O 0.23249 0.61704 0.32945 0.0
O390 O 0.21211 0.62713 0.28137 0.0
O391 O 0.20281 0.6084 0.29235 0.0
O392 O 0.89966 0.24634 0.18887 0.0
Cd393 Cd 0.90305 0.26238 0.17416 0.0
Cd394 Cd 0.88392 0.27683 0.19065 0.0
O395 O 0.88681 0.25927 0.20387 0.0
O396 O 0.92145 0.25785 0.16465 0.0
O397 O 0.9182 0.27718 0.17796 0.0
C398 C 0.92661 0.26935 0.17026 0.0
C399 C 0.88004 0.29877 0.20209 0.0
C400 C 0.89306 0.24763 0.20068 0.0
C401 C 0.87558 0.26886 0.16007 0.0
O402 O 0.87201 0.27402 0.17214 0.0
O403 O 0.88814 0.26411 0.15813 0.0
O404 O 0.87041 0.28896 0.20167 0.0
O405 O 0.89223 0.29614 0.19616 0.0
O406 O 0.25548 0.4036 0.69286 0.0
Cd407 Cd 0.23848 0.4041 0.67886 0.0
Cd408 Cd 0.22517 0.38703 0.69829 0.0
O409 O 0.24341 0.39231 0.70967 0.0
O410 O 0.24032 0.42164 0.66708 0.0
O411 O 0.22268 0.41815 0.68257 0.0
C412 C 0.22893 0.42633 0.67333 0.0
C413 C 0.20451 0.38388 0.71214 0.0
C414 C 0.25477 0.39845 0.70542 0.0
C415 C 0.23179 0.37476 0.66888 0.0
O416 O 0.22714 0.37269 0.6815 0.0
O417 O 0.23643 0.38699 0.6652 0.0
O418 O 0.21519 0.37526 0.71291 0.0
O419 O 0.20544 0.39456 0.70343 0.0
O420 O 0.09676 0.7581 0.19203 0.0
Cd421 Cd 0.09521 0.74054 0.17871 0.0
Cd422 Cd 0.11206 0.72802 0.19819 0.0
O423 O 0.10623 0.74587 0.2098 0.0
O424 O 0.07767 0.74297 0.16703 0.0
O425 O 0.0804 0.72556 0.18291 0.0
C426 C 0.07248 0.73195 0.17353 0.0
C427 C 0.11451 0.70694 0.21148 0.0
C428 C 0.10103 0.75742 0.20492 0.0
C429 C 0.12443 0.73399 0.16882 0.0
O430 O 0.12681 0.73072 0.18181 0.0
O431 O 0.11187 0.73723 0.16479 0.0
O432 O 0.12322 0.71749 0.21288 0.0
O433 O 0.10421 0.70822 0.20238 0.0
O434 O 0.74486 0.59654 0.69136 0.0
Cd435 Cd 0.7616 0.59564 0.67696 0.0
Cd436 Cd 0.77481 0.61392 0.69521 0.0
O437 O 0.75735 0.60833 0.70748 0.0
O438 O 0.75929 0.57779 0.66575 0.0
O439 O 0.77742 0.58157 0.68058 0.0
C440 C 0.77085 0.5732 0.67174 0.0
C441 C 0.79583 0.61758 0.70835 0.0
C442 C 0.74595 0.60193 0.70379 0.0
C443 C 0.76708 0.6248 0.66563 0.0
O444 O 0.77149 0.62773 0.67817 0.0
O445 O 0.76334 0.61213 0.66248 0.0
O446 O 0.79483 0.6068 0.69978 0.0
O447 O 0.78512 0.62615 0.7092 0.0
O448 O 0.80195 0.89941 0.75368 0.0
Cd449 Cd 0.817 0.90071 0.73753 0.0
Cd450 Cd 0.79934 0.88203 0.72448 0.0
O451 O 0.78619 0.88671 0.74158 0.0
O452 O 0.82817 0.91828 0.74138 0.0
O453 O 0.81461 0.91556 0.72212 0.0
C454 C 0.82314 0.92345 0.72962 0.0
C455 C 0.78874 0.87838 0.70215 0.0
C456 C 0.78973 0.8935 0.75282 0.0
C457 C 0.82906 0.8719 0.73279 0.0
O458 O 0.81661 0.86877 0.72833 0.0
O459 O 0.83201 0.88465 0.73637 0.0
O460 O 0.78764 0.86918 0.71232 0.0
O461 O 0.79553 0.89013 0.7047 0.0
O462 O 0.59571 0.30561 0.25516 0.0
Cd463 Cd 0.59525 0.32022 0.23869 0.0
Cd464 Cd 0.61166 0.30104 0.22439 0.0
O465 O 0.60638 0.28906 0.24223 0.0
O466 O 0.57752 0.33171 0.24069 0.0
O467 O 0.58151 0.31694 0.22255 0.0
C468 C 0.57305 0.32577 0.22904 0.0
C469 C 0.61442 0.28766 0.20335 0.0
C470 C 0.60054 0.29298 0.25387 0.0
C471 C 0.6247 0.32988 0.23212 0.0
O472 O 0.62638 0.31742 0.22691 0.0
O473 O 0.61261 0.33367 0.23703 0.0
O474 O 0.62308 0.28646 0.21396 0.0
O475 O 0.60398 0.29662 0.20451 0.0
O476 O 0.18939 0.09577 0.75554 0.0
Cd477 Cd 0.17488 0.09508 0.73892 0.0
Cd478 Cd 0.19265 0.11362 0.7255 0.0
O479 O 0.20497 0.10821 0.74301 0.0
O480 O 0.1646 0.0766 0.74 0.0
O481 O 0.17918 0.08238 0.72218 0.0
C482 C 0.17081 0.07312 0.72816 0.0
C483 C 0.20644 0.11826 0.70508 0.0
C484 C 0.20164 0.10151 0.75435 0.0
C485 C 0.16285 0.12389 0.73356 0.0
O486 O 0.17519 0.12691 0.72868 0.0
O487 O 0.16004 0.11127 0.73773 0.0
O488 O 0.20639 0.12668 0.71595 0.0
O489 O 0.19826 0.10716 0.70548 0.0
O490 O 0.40146 0.69584 0.25743 0.0
Cd491 Cd 0.40322 0.68107 0.24123 0.0
Cd492 Cd 0.38474 0.69847 0.22658 0.0
O493 O 0.38805 0.71058 0.24484 0.0
O494 O 0.42098 0.67009 0.2448 0.0
O495 O 0.41794 0.68401 0.22584 0.0
C496 C 0.42603 0.67548 0.23313 0.0
C497 C 0.38155 0.712 0.20572 0.0
C498 C 0.39471 0.70758 0.25631 0.0
C499 C 0.37492 0.6684 0.23391 0.0
O500 O 0.372 0.68039 0.22818 0.0
O501 O 0.38706 0.66627 0.2396 0.0
O502 O 0.37225 0.71191 0.21585 0.0
O503 O 0.39284 0.70422 0.20724 0.0
O504 O 0.80331 0.10259 0.24767 0.0
Cd505 Cd 0.81909 0.10054 0.26304 0.0
Cd506 Cd 0.8024 0.11833 0.27816 0.0
O507 O 0.78874 0.11538 0.26109 0.0
O508 O 0.82904 0.0821 0.25967 0.0
O509 O 0.81624 0.08661 0.27913 0.0
C510 C 0.82397 0.0778 0.27178 0.0
C511 C 0.79169 0.12102 0.30064 0.0
C512 C 0.79144 0.10901 0.24938 0.0
C513 C 0.83176 0.12884 0.26882 0.0
O514 O 0.81978 0.13148 0.27466 0.0
O515 O 0.83435 0.11647 0.26384 0.0
O516 O 0.79121 0.13091 0.29109 0.0
O517 O 0.79814 0.10924 0.29746 0.0
O518 O 0.40199 0.30989 0.74408 0.0
Cd519 Cd 0.40477 0.32566 0.75917 0.0
Cd520 Cd 0.38585 0.31085 0.77492 0.0
O521 O 0.38685 0.29749 0.75724 0.0
O522 O 0.42401 0.33422 0.7568 0.0
O523 O 0.41746 0.32191 0.77603 0.0
C524 C 0.42718 0.32901 0.7692 0.0
C525 C 0.38277 0.29941 0.79692 0.0
C526 C 0.39391 0.29909 0.74571 0.0
C527 C 0.37807 0.34114 0.76583 0.0
O528 O 0.37484 0.32996 0.77285 0.0
O529 O 0.38992 0.34188 0.75925 0.0
O530 O 0.37254 0.30048 0.78781 0.0
O531 O 0.39506 0.30476 0.79365 0.0
O532 O 0.19274 0.90159 0.24424 0.0
Cd533 Cd 0.17931 0.90352 0.26168 0.0
Cd534 Cd 0.19768 0.88578 0.27458 0.0
O535 O 0.20955 0.89064 0.25659 0.0
O536 O 0.16912 0.92208 0.26032 0.0
O537 O 0.18462 0.91694 0.27754 0.0
C538 C 0.17596 0.926 0.27167 0.0
C539 C 0.21136 0.88251 0.29532 0.0
C540 C 0.20524 0.89631 0.24502 0.0
C541 C 0.16778 0.87487 0.26812 0.0
O542 O 0.18049 0.87198 0.27201 0.0
O543 O 0.16449 0.88752 0.2644 0.0
O544 O 0.21181 0.87366 0.2848 0.0
O545 O 0.20287 0.89334 0.29431 0.0
O546 O 0.60584 0.69423 0.74656 0.0
Cd547 Cd 0.60124 0.67867 0.76141 0.0
Cd548 Cd 0.62074 0.69292 0.77771 0.0
O549 O 0.62058 0.7066 0.76024 0.0
O550 O 0.58271 0.67023 0.75552 0.0
O551 O 0.58569 0.68182 0.77598 0.0
C552 C 0.57735 0.67499 0.76731 0.0
C553 C 0.62352 0.70392 0.80005 0.0
C554 C 0.61403 0.70492 0.74843 0.0
C555 C 0.62731 0.66227 0.76882 0.0
O556 O 0.63113 0.67347 0.77553 0.0
O557 O 0.61533 0.66187 0.76244 0.0
O558 O 0.63397 0.70264 0.79119 0.0
O559 O 0.61119 0.699 0.79626 0.0
O560 O 0.75155 0.80473 0.89671 0.0
Cd561 Cd 0.73764 0.82112 0.90156 0.0
Cd562 Cd 0.71977 0.80744 0.8826 0.0
O563 O 0.73723 0.79386 0.88143 0.0
O564 O 0.7441 0.82931 0.92004 0.0
O565 O 0.72317 0.81855 0.91728 0.0
C566 C 0.73221 0.82498 0.92555 0.0
C567 C 0.69755 0.79622 0.87951 0.0
C568 C 0.74915 0.79462 0.88795 0.0
C569 C 0.72911 0.83791 0.87593 0.0
O570 O 0.72145 0.82715 0.87277 0.0
O571 O 0.7367 0.83784 0.8872 0.0
O572 O 0.70624 0.79824 0.86905 0.0
O573 O 0.70142 0.80052 0.89205 0.0
O574 O 0.75336 0.19402 0.09836 0.0
Cd575 Cd 0.73665 0.17971 0.09758 0.0
Cd576 Cd 0.72338 0.19849 0.11562 0.0
O577 O 0.74189 0.20987 0.11148 0.0
O578 O 0.73988 0.16802 0.08017 0.0
O579 O 0.72137 0.1826 0.0827 0.0
C580 C 0.72851 0.17373 0.07484 0.0
C581 C 0.70277 0.21249 0.11819 0.0
C582 C 0.75298 0.20607 0.10461 0.0
C583 C 0.72983 0.1687 0.12673 0.0
O584 O 0.72484 0.1811 0.12924 0.0
O585 O 0.73481 0.16565 0.11446 0.0
O586 O 0.7041 0.20408 0.10732 0.0
O587 O 0.71296 0.21277 0.12741 0.0
O588 O 0.30289 0.25334 0.60027 0.0
Cd589 Cd 0.31899 0.23849 0.5979 0.0
Cd590 Cd 0.30345 0.22266 0.61694 0.0
O591 O 0.28997 0.24008 0.6149 0.0
O592 O 0.32828 0.24171 0.5791 0.0
O593 O 0.31622 0.22199 0.58444 0.0
C594 C 0.3235 0.22934 0.57525 0.0
C595 C 0.29205 0.20091 0.62206 0.0
C596 C 0.29177 0.2516 0.60789 0.0
C597 C 0.33348 0.23242 0.62538 0.0
O598 O 0.32215 0.22553 0.62839 0.0
O599 O 0.33473 0.23855 0.61332 0.0
O600 O 0.29301 0.21102 0.6313 0.0
O601 O 0.29737 0.20309 0.60951 0.0
O602 O 0.24422 0.80564 0.09843 0.0
Cd603 Cd 0.2619 0.81881 0.09702 0.0
Cd604 Cd 0.27389 0.79914 0.1141 0.0
O605 O 0.25614 0.78763 0.10782 0.0
O606 O 0.25925 0.83064 0.0796 0.0
O607 O 0.27672 0.81479 0.08196 0.0
C608 C 0.27017 0.82416 0.07417 0.0
C609 C 0.29488 0.78579 0.11708 0.0
C610 C 0.24468 0.79271 0.10259 0.0
C611 C 0.26772 0.82848 0.12647 0.0
O612 O 0.27073 0.81542 0.12886 0.0
O613 O 0.26506 0.83266 0.11382 0.0
O614 O 0.29392 0.79497 0.10681 0.0
O615 O 0.28407 0.78434 0.12546 0.0
O616 O 0.69407 0.74431 0.59663 0.0
Cd617 Cd 0.68175 0.76265 0.59616 0.0
Cd618 Cd 0.70331 0.77385 0.61033 0.0
O619 O 0.71362 0.75578 0.60295 0.0
O620 O 0.66947 0.76204 0.57883 0.0
O621 O 0.68681 0.77793 0.58201 0.0
C622 C 0.67686 0.77265 0.57396 0.0
C623 C 0.71721 0.79463 0.61198 0.0
C624 C 0.70745 0.74435 0.59899 0.0
C625 C 0.67548 0.7688 0.62617 0.0
O626 O 0.68888 0.77102 0.62692 0.0
O627 O 0.66961 0.7666 0.61411 0.0
O628 O 0.71944 0.78368 0.62001 0.0
O629 O 0.70698 0.79389 0.60274 0.0
O630 O 0.24649 0.19132 0.89474 0.0
Cd631 Cd 0.26184 0.17609 0.89874 0.0
Cd632 Cd 0.27778 0.1912 0.87839 0.0
O633 O 0.25986 0.20414 0.88012 0.0
O634 O 0.25654 0.16721 0.91724 0.0
O635 O 0.27658 0.17944 0.91407 0.0
C636 C 0.26825 0.17229 0.92248 0.0
C637 C 0.29824 0.20423 0.87173 0.0
C638 C 0.2482 0.20222 0.88684 0.0
C639 C 0.26927 0.1602 0.87224 0.0
O640 O 0.27569 0.17153 0.86835 0.0
O641 O 0.26309 0.15959 0.88432 0.0
O642 O 0.28794 0.20171 0.86299 0.0
O643 O 0.29717 0.19909 0.8845 0.0
O644 O 0.30299 0.7458 0.4014 0.0
Cd645 Cd 0.31838 0.7611 0.40508 0.0
Cd646 Cd 0.30267 0.77704 0.38622 0.0
O647 O 0.28926 0.75946 0.38788 0.0
O648 O 0.3271 0.75722 0.42403 0.0
O649 O 0.31469 0.77685 0.41921 0.0
C650 C 0.32188 0.76928 0.42829 0.0
C651 C 0.2914 0.79888 0.38121 0.0
C652 C 0.29165 0.74761 0.39413 0.0
C653 C 0.33327 0.76828 0.37828 0.0
O654 O 0.32167 0.77459 0.37505 0.0
O655 O 0.33461 0.76216 0.39032 0.0
O656 O 0.29242 0.78887 0.37186 0.0
O657 O 0.29647 0.79649 0.39383 0.0
O658 O 0.69233 0.2504 0.39659 0.0
Cd659 Cd 0.67626 0.23587 0.40041 0.0
Cd660 Cd 0.69068 0.21964 0.38098 0.0
O661 O 0.70451 0.23697 0.38151 0.0
O662 O 0.66761 0.24175 0.41883 0.0
O663 O 0.67888 0.22112 0.41588 0.0
C664 C 0.67219 0.2299 0.42421 0.0
C665 C 0.70149 0.19722 0.37836 0.0
C666 C 0.70306 0.24857 0.38846 0.0
C667 C 0.6603 0.22895 0.37388 0.0
O668 O 0.67145 0.22205 0.37028 0.0
O669 O 0.65977 0.23533 0.38585 0.0
O670 O 0.70046 0.20608 0.36788 0.0
O671 O 0.69643 0.20105 0.39062 0.0
C672 C 0.94874 0.28285 0.17738 0.0
C673 C 0.94193 0.27283 0.16847 0.0
C674 C 0.96362 0.28465 0.17677 0.0
C675 C 0.99552 0.26401 0.16682 0.0
H676 H 0.01588 0.29996 0.17057 0.0
C677 C 0.05619 0.2656 0.16128 0.0
C678 C 0.0638 0.27331 0.17169 0.0
C679 C 0.04145 0.26732 0.15984 0.0
C680 C 0.01032 0.28984 0.16961 0.0
H681 H 0.9452 0.25759 0.15127 0.0
H682 H 0.97094 0.2609 0.15005 0.0
H683 H 0.98965 0.29987 0.16988 0.0
H684 H 0.06204 0.28941 0.1883 0.0
H685 H 0.03611 0.29225 0.18594 0.0
H686 H 0.01598 0.25391 0.16673 0.0
C687 C 0.96492 0.2671 0.15777 0.0
C688 C 0.99532 0.28979 0.16921 0.0
C689 C 0.95014 0.26525 0.15843 0.0
C690 C 0.05645 0.28331 0.18018 0.0
C691 C 0.04161 0.28497 0.1788 0.0
C692 C 0.01041 0.26406 0.16721 0.0
C693 C 0.97189 0.27648 0.16722 0.0
C694 C 0.98778 0.27686 0.1677 0.0
C695 C 0.03391 0.27669 0.16887 0.0
C696 C 0.01802 0.27696 0.16849 0.0
H697 H 0.94268 0.28886 0.18522 0.0
H698 H 0.96868 0.29194 0.18422 0.0
H699 H 0.99006 0.25382 0.16604 0.0
H700 H 0.06157 0.25795 0.15443 0.0
H701 H 0.03589 0.26103 0.15185 0.0
C702 C 0.21319 0.55428 0.68223 0.0
C703 C 0.22117 0.56213 0.67218 0.0
C704 C 0.21091 0.5396 0.68027 0.0
C705 C 0.22873 0.5094 0.66289 0.0
H706 H 0.1952 0.4878 0.67427 0.0
C707 C 0.229 0.44859 0.65864 0.0
C708 C 0.22394 0.44108 0.67062 0.0
C709 C 0.22606 0.46313 0.65701 0.0
C710 C 0.20466 0.4937 0.67111 0.0
H711 H 0.23193 0.56106 0.65165 0.0
H712 H 0.22773 0.53562 0.64813 0.0
H713 H 0.19452 0.514 0.67464 0.0
H714 H 0.21115 0.44269 0.6899 0.0
H715 H 0.20632 0.46824 0.68728 0.0
H716 H 0.23908 0.48933 0.65979 0.0
C717 C 0.22356 0.54067 0.6577 0.0
C718 C 0.20426 0.50868 0.6713 0.0
C719 C 0.22592 0.55527 0.65968 0.0
C720 C 0.21519 0.44821 0.68055 0.0
C721 C 0.21238 0.46285 0.67901 0.0
C722 C 0.22915 0.49451 0.66273 0.0
C723 C 0.21651 0.53256 0.66821 0.0
C724 C 0.21633 0.51669 0.66724 0.0
C725 C 0.21817 0.47056 0.66744 0.0
C726 C 0.21716 0.48644 0.66688 0.0
H727 H 0.20938 0.55928 0.69196 0.0
H728 H 0.20547 0.53365 0.68859 0.0
H729 H 0.23835 0.51521 0.66004 0.0
H730 H 0.2356 0.44333 0.65069 0.0
H731 H 0.23036 0.46865 0.64778 0.0
C732 C 0.05014 0.733 0.15899 0.0
C733 C 0.05758 0.72745 0.17081 0.0
C734 C 0.03557 0.73033 0.15727 0.0
C735 C 0.00482 0.7086 0.17015 0.0
H736 H 0.98356 0.74291 0.16062 0.0
C737 C 0.944 0.71631 0.1805 0.0
C738 C 0.93635 0.725 0.17091 0.0
C739 C 0.95872 0.7142 0.17871 0.0
C740 C 0.98929 0.73313 0.16302 0.0
H741 H 0.05575 0.71409 0.18968 0.0
H742 H 0.03013 0.70968 0.18686 0.0
H743 H 0.00944 0.74356 0.16074 0.0
H744 H 0.93781 0.73725 0.15126 0.0
H745 H 0.96332 0.7333 0.14795 0.0
H746 H 0.98445 0.69833 0.17278 0.0
C747 C 0.03562 0.71595 0.17882 0.0
C748 C 0.00418 0.73351 0.16309 0.0
C749 C 0.05029 0.71853 0.18048 0.0
C750 C 0.94346 0.73067 0.15895 0.0
C751 C 0.9581 0.72847 0.1571 0.0
C752 C 0.98983 0.70823 0.17008 0.0
C753 C 0.02802 0.72218 0.16741 0.0
C754 C 0.01216 0.72128 0.1667 0.0
C755 C 0.96601 0.72067 0.16724 0.0
C756 C 0.9819 0.72053 0.16656 0.0
H757 H 0.0555 0.73974 0.15124 0.0
H758 H 0.03011 0.735 0.14817 0.0
H759 H 0.01066 0.69898 0.17288 0.0
H760 H 0.9388 0.71179 0.18982 0.0
H761 H 0.96451 0.70818 0.18674 0.0
C762 C 0.78743 0.4452 0.68101 0.0
C763 C 0.77912 0.43733 0.67125 0.0
C764 C 0.78958 0.45988 0.67899 0.0
C765 C 0.77096 0.48999 0.6623 0.0
H766 H 0.80475 0.51182 0.67238 0.0
C767 C 0.77034 0.55072 0.65742 0.0
C768 C 0.77575 0.5584 0.66913 0.0
C769 C 0.77326 0.53617 0.6559 0.0
C770 C 0.79522 0.50586 0.66958 0.0
H771 H 0.76764 0.43837 0.65111 0.0
H772 H 0.77162 0.46382 0.64747 0.0
H773 H 0.8056 0.48562 0.67282 0.0
H774 H 0.78912 0.55709 0.68804 0.0
H775 H 0.79393 0.5315 0.68561 0.0
H776 H 0.76039 0.50999 0.65948 0.0
C777 C 0.77614 0.45878 0.65688 0.0
C778 C 0.79572 0.49087 0.66982 0.0
C779 C 0.77391 0.44418 0.65893 0.0
C780 C 0.7848 0.55142 0.67889 0.0
C781 C 0.7876 0.53677 0.67747 0.0
C782 C 0.77045 0.50487 0.6621 0.0
C783 C 0.78352 0.46692 0.66715 0.0
C784 C 0.78355 0.48278 0.6662 0.0
C785 C 0.78149 0.5289 0.66618 0.0
C786 C 0.78254 0.51302 0.66576 0.0
H787 H 0.79159 0.4402 0.6906 0.0
H788 H 0.79528 0.46585 0.68713 0.0
H789 H 0.76128 0.48412 0.65981 0.0
H790 H 0.7635 0.55586 0.6496 0.0
H791 H 0.76869 0.53052 0.64687 0.0
C792 C 0.94606 0.71464 0.8185 0.0
C793 C 0.93855 0.72329 0.82824 0.0
C794 C 0.96079 0.71243 0.82011 0.0
C795 C 0.99182 0.73067 0.83593 0.0
H796 H 0.01243 0.69611 0.82584 0.0
C797 C 0.05264 0.72906 0.84039 0.0
C798 C 0.05998 0.72363 0.82846 0.0
C799 C 0.038 0.72661 0.84204 0.0
C800 C 0.00681 0.70585 0.82864 0.0
H801 H 0.94034 0.73548 0.8479 0.0
H802 H 0.96586 0.73137 0.85089 0.0
H803 H 0.98622 0.6961 0.82576 0.0
H804 H 0.05794 0.71066 0.80934 0.0
H805 H 0.03226 0.70659 0.81209 0.0
H806 H 0.01222 0.74056 0.8385 0.0
C807 C 0.96051 0.72663 0.84177 0.0
C808 C 0.99181 0.70584 0.82859 0.0
C809 C 0.94586 0.72892 0.8401 0.0
C810 C 0.05256 0.71498 0.81865 0.0
C811 C 0.03785 0.71261 0.82026 0.0
C812 C 0.00673 0.73067 0.83598 0.0
C813 C 0.96826 0.71877 0.83155 0.0
C814 C 0.98415 0.71828 0.83221 0.0
C815 C 0.03033 0.7188 0.83173 0.0
C816 C 0.01443 0.71829 0.83231 0.0
H817 H 0.94071 0.71015 0.80925 0.0
H818 H 0.96643 0.70637 0.81201 0.0
H819 H 0.98632 0.74055 0.8384 0.0
H820 H 0.05809 0.73561 0.84824 0.0
H821 H 0.03261 0.73124 0.8512 0.0
C822 C 0.78368 0.55155 0.32198 0.0
C823 C 0.77302 0.55871 0.32982 0.0
C824 C 0.7852 0.53668 0.32307 0.0
C825 C 0.76335 0.50522 0.33196 0.0
H826 H 0.79925 0.48444 0.33122 0.0
C827 C 0.76392 0.44448 0.33794 0.0
C828 C 0.77246 0.43674 0.32829 0.0
C829 C 0.76557 0.45923 0.33939 0.0
C830 C 0.78915 0.49012 0.33134 0.0
H831 H 0.75629 0.55605 0.34568 0.0
H832 H 0.75911 0.53029 0.34778 0.0
H833 H 0.79941 0.51066 0.33161 0.0
H834 H 0.78991 0.43832 0.31309 0.0
H835 H 0.79266 0.46425 0.31548 0.0
H836 H 0.75303 0.48487 0.33147 0.0
C837 C 0.76605 0.53605 0.3405 0.0
C838 C 0.78924 0.50511 0.33157 0.0
C839 C 0.76448 0.55084 0.33935 0.0
C840 C 0.78316 0.444 0.32061 0.0
C841 C 0.78477 0.45884 0.32201 0.0
C842 C 0.76326 0.49032 0.33173 0.0
C843 C 0.77611 0.52873 0.33206 0.0
C844 C 0.77632 0.51282 0.33196 0.0
C845 C 0.77573 0.46666 0.33116 0.0
C846 C 0.77613 0.48256 0.3315 0.0
H847 H 0.79042 0.55734 0.31454 0.0
H848 H 0.79302 0.53136 0.31639 0.0
H849 H 0.7532 0.5108 0.33187 0.0
H850 H 0.7557 0.43919 0.34416 0.0
H851 H 0.75867 0.46488 0.34679 0.0
C852 C 0.05343 0.28653 0.81694 0.0
C853 C 0.06118 0.27852 0.82703 0.0
C854 C 0.03883 0.28918 0.81898 0.0
C855 C 0.00829 0.27265 0.83729 0.0
H856 H 0.98754 0.3063 0.82475 0.0
C857 C 0.94753 0.27421 0.84187 0.0
C858 C 0.94017 0.27867 0.82955 0.0
C859 C 0.96212 0.27697 0.84339 0.0
C860 C 0.9932 0.29683 0.82826 0.0
H861 H 0.06005 0.26807 0.84772 0.0
H862 H 0.03477 0.27299 0.85144 0.0
H863 H 0.01374 0.30623 0.82416 0.0
H864 H 0.94211 0.29031 0.80958 0.0
H865 H 0.96772 0.29486 0.81208 0.0
H866 H 0.98796 0.26304 0.84102 0.0
C867 C 0.0398 0.27685 0.84174 0.0
C868 C 0.00819 0.29679 0.82793 0.0
C869 C 0.05432 0.27409 0.83964 0.0
C870 C 0.9475 0.28673 0.81919 0.0
C871 C 0.96217 0.28939 0.82066 0.0
C872 C 0.9934 0.27269 0.83762 0.0
C873 C 0.03176 0.28396 0.8312 0.0
C874 C 0.0159 0.28465 0.83237 0.0
C875 C 0.96974 0.28411 0.83256 0.0
C876 C 0.98563 0.28472 0.83304 0.0
H877 H 0.05844 0.29008 0.80711 0.0
H878 H 0.03294 0.29464 0.81062 0.0
H879 H 0.01384 0.26298 0.84045 0.0
H880 H 0.94213 0.26814 0.85013 0.0
H881 H 0.96755 0.27306 0.85286 0.0
C882 C 0.23288 0.44889 0.34122 0.0
C883 C 0.2258 0.44065 0.33086 0.0
C884 C 0.23061 0.4636 0.34205 0.0
C885 C 0.20773 0.49367 0.3296 0.0
H886 H 0.24301 0.51501 0.33411 0.0
C887 C 0.21463 0.55436 0.31686 0.0
C888 C 0.22395 0.56213 0.32575 0.0
C889 C 0.21278 0.53962 0.31888 0.0
C890 C 0.23301 0.50925 0.33306 0.0
H891 H 0.21021 0.4412 0.3137 0.0
H892 H 0.20649 0.46709 0.31488 0.0
H893 H 0.24353 0.48913 0.3351 0.0
H894 H 0.23774 0.56082 0.34437 0.0
H895 H 0.23436 0.53529 0.348 0.0
H896 H 0.19734 0.51402 0.3272 0.0
C897 C 0.21366 0.46212 0.32251 0.0
C898 C 0.2333 0.49437 0.33365 0.0
C899 C 0.21582 0.44731 0.32179 0.0
C900 C 0.23065 0.55509 0.33721 0.0
C901 C 0.22876 0.54045 0.33926 0.0
C902 C 0.20745 0.50865 0.32896 0.0
C903 C 0.22135 0.47048 0.33239 0.0
C904 C 0.22068 0.48637 0.33199 0.0
C905 C 0.2202 0.53245 0.32984 0.0
C906 C 0.2201 0.51659 0.33076 0.0
H907 H 0.24047 0.44403 0.34851 0.0
H908 H 0.23642 0.46966 0.35004 0.0
H909 H 0.19781 0.48782 0.32834 0.0
H910 H 0.2093 0.5595 0.30795 0.0
H911 H 0.20614 0.53374 0.31142 0.0
C912 C 0.16378 0.94977 0.27159 0.0
C913 C 0.17432 0.9407 0.27729 0.0
C914 C 0.16297 0.96406 0.2758 0.0
C915 C 0.18584 0.99289 0.28868 0.0
H916 H 0.14989 0.01343 0.29133 0.0
C917 C 0.18448 0.05447 0.28987 0.0
C918 C 0.17501 0.06043 0.27982 0.0
C919 C 0.18344 0.04001 0.29361 0.0
C920 C 0.16002 0.00785 0.29065 0.0
H921 H 0.19196 0.93938 0.29231 0.0
H922 H 0.19058 0.96448 0.29964 0.0
H923 H 0.14984 0.98733 0.29055 0.0
H924 H 0.1565 0.05613 0.26649 0.0
H925 H 0.15476 0.03102 0.2729 0.0
H926 H 0.196 0.01337 0.28812 0.0
C927 C 0.18298 0.96049 0.29186 0.0
C928 C 0.15999 0.99291 0.29021 0.0
C929 C 0.18373 0.94611 0.2877 0.0
C930 C 0.164 0.05186 0.27423 0.0
C931 C 0.16294 0.03746 0.278 0.0
C932 C 0.18587 0.00783 0.28909 0.0
C933 C 0.17273 0.96967 0.28577 0.0
C934 C 0.17287 0.98528 0.28875 0.0
C935 C 0.17287 0.03126 0.28744 0.0
C936 C 0.17293 0.0155 0.28961 0.0
H937 H 0.15634 0.94593 0.26358 0.0
H938 H 0.15507 0.97087 0.27076 0.0
H939 H 0.19593 0.98735 0.28742 0.0
H940 H 0.19305 0.06081 0.29441 0.0
H941 H 0.19115 0.03558 0.30105 0.0
C942 C 0.55379 0.66392 0.76164 0.0
C943 C 0.56195 0.67305 0.77034 0.0
C944 C 0.53902 0.66296 0.76342 0.0
C945 C 0.50877 0.67083 0.78763 0.0
H946 H 0.4876 0.67146 0.75194 0.0
C947 C 0.44684 0.67836 0.78276 0.0
C948 C 0.44003 0.67022 0.77209 0.0
C949 C 0.46176 0.678 0.7842 0.0
C950 C 0.49334 0.67109 0.76201 0.0
H951 H 0.56112 0.68787 0.78817 0.0
H952 H 0.53512 0.68634 0.79115 0.0
H953 H 0.51353 0.67223 0.75146 0.0
H954 H 0.44339 0.65458 0.75527 0.0
H955 H 0.46922 0.65382 0.7579 0.0
H956 H 0.48834 0.66983 0.79812 0.0
C957 C 0.54022 0.67985 0.78303 0.0
C958 C 0.50822 0.67153 0.76173 0.0
C959 C 0.55509 0.68077 0.78128 0.0
C960 C 0.44831 0.66114 0.76346 0.0
C961 C 0.46314 0.66074 0.76492 0.0
C962 C 0.49377 0.67041 0.78791 0.0
C963 C 0.53201 0.67118 0.77387 0.0
C964 C 0.51613 0.67121 0.77451 0.0
C965 C 0.47007 0.66948 0.77499 0.0
C966 C 0.48593 0.67034 0.77506 0.0
H967 H 0.55876 0.65768 0.75324 0.0
H968 H 0.53305 0.65591 0.75642 0.0
H969 H 0.51459 0.67055 0.79765 0.0
H970 H 0.44072 0.68545 0.78958 0.0
H971 H 0.46681 0.68486 0.79204 0.0
C972 C 0.83618 0.05421 0.26919 0.0
C973 C 0.82649 0.06295 0.27663 0.0
C974 C 0.83771 0.03981 0.27278 0.0
C975 C 0.81739 0.0102 0.28802 0.0
H976 H 0.85367 0.99039 0.28447 0.0
C977 C 0.821 0.9484 0.28743 0.0
C978 C 0.82884 0.94307 0.27575 0.0
C979 C 0.82188 0.96289 0.29117 0.0
C980 C 0.84346 0.99577 0.28554 0.0
H981 H 0.81117 0.06358 0.29405 0.0
H982 H 0.81382 0.03828 0.30031 0.0
H983 H 0.85317 0.01649 0.28468 0.0
H984 H 0.84423 0.94857 0.25927 0.0
H985 H 0.84576 0.97368 0.26576 0.0
H986 H 0.80764 0.98947 0.28831 0.0
C987 C 0.82017 0.04261 0.29164 0.0
C988 C 0.84318 0.0107 0.28566 0.0
C989 C 0.81871 0.0571 0.2881 0.0
C990 C 0.838 0.95235 0.26829 0.0
C991 C 0.83898 0.96674 0.27209 0.0
C992 C 0.81768 0.99524 0.28792 0.0
C993 C 0.82955 0.03377 0.28387 0.0
C994 C 0.83009 0.01808 0.2864 0.0
C995 C 0.83074 0.97224 0.2834 0.0
C996 C 0.83068 0.98788 0.28618 0.0
H997 H 0.84236 0.05839 0.26033 0.0
H998 H 0.84487 0.03327 0.26644 0.0
H999 H 0.80713 0.01555 0.28849 0.0
H1000 H 0.81385 0.9415 0.29339 0.0
H1001 H 0.81547 0.96682 0.29999 0.0
C1002 C 0.55181 0.34134 0.77179 0.0
C1003 C 0.56076 0.33089 0.77782 0.0
C1004 C 0.53751 0.34235 0.77587 0.0
C1005 C 0.50849 0.31982 0.78878 0.0
H1006 H 0.48784 0.35581 0.78863 0.0
C1007 C 0.4467 0.32216 0.78635 0.0
C1008 C 0.44175 0.33079 0.77507 0.0
C1009 C 0.46096 0.32304 0.79087 0.0
C1010 C 0.49347 0.34568 0.7888 0.0
H1011 H 0.5619 0.31372 0.79338 0.0
H1012 H 0.53674 0.31546 0.8005 0.0
H1013 H 0.51394 0.35589 0.78947 0.0
H1014 H 0.44763 0.34757 0.76015 0.0
H1015 H 0.47235 0.34915 0.76805 0.0
H1016 H 0.48802 0.30963 0.7875 0.0
C1017 C 0.54084 0.32281 0.79255 0.0
C1018 C 0.5084 0.34572 0.78927 0.0
C1019 C 0.55525 0.32186 0.78852 0.0
C1020 C 0.45113 0.34073 0.76883 0.0
C1021 C 0.46528 0.34172 0.77345 0.0
C1022 C 0.49354 0.31978 0.78836 0.0
C1023 C 0.53176 0.3329 0.78605 0.0
C1024 C 0.51609 0.33281 0.78867 0.0
C1025 C 0.47043 0.33272 0.78433 0.0
C1026 C 0.48591 0.33272 0.78779 0.0
H1027 H 0.55574 0.3485 0.76356 0.0
H1028 H 0.53079 0.35011 0.77049 0.0
H1029 H 0.51409 0.3097 0.78821 0.0
H1030 H 0.4397 0.3144 0.79136 0.0
H1031 H 0.46464 0.31601 0.79932 0.0
C1032 C 0.17791 0.05347 0.71126 0.0
C1033 C 0.16893 0.0586 0.72219 0.0
C1034 C 0.17717 0.03914 0.70696 0.0
C1035 C 0.15495 0.00618 0.71001 0.0
H1036 H 0.19147 0.98651 0.71048 0.0
C1037 C 0.16167 0.94876 0.72931 0.0
C1038 C 0.17141 0.9396 0.72247 0.0
C1039 C 0.16034 0.96297 0.72503 0.0
C1040 C 0.1812 0.99185 0.70998 0.0
H1041 H 0.15164 0.05296 0.7366 0.0
H1042 H 0.15042 0.02812 0.72922 0.0
H1043 H 0.19088 0.01258 0.71035 0.0
H1044 H 0.18713 0.93803 0.70549 0.0
H1045 H 0.18498 0.96313 0.69813 0.0
H1046 H 0.1453 0.98541 0.71046 0.0
C1047 C 0.15796 0.0351 0.72386 0.0
C1048 C 0.18085 0.0068 0.70989 0.0
C1049 C 0.15875 0.04934 0.72819 0.0
C1050 C 0.17953 0.94485 0.71095 0.0
C1051 C 0.17834 0.9592 0.70678 0.0
C1052 C 0.15531 0.99125 0.71016 0.0
C1053 C 0.16737 0.02973 0.71342 0.0
C1054 C 0.16772 0.01412 0.71047 0.0
C1055 C 0.16882 0.96842 0.71388 0.0
C1056 C 0.16843 0.98395 0.7107 0.0
H1057 H 0.18586 0.06037 0.70641 0.0
H1058 H 0.18449 0.03534 0.69881 0.0
H1059 H 0.14467 0.01151 0.71015 0.0
H1060 H 0.15521 0.94501 0.73818 0.0
H1061 H 0.15306 0.96986 0.73085 0.0
C1062 C 0.4482 0.68136 0.21917 0.0
C1063 C 0.44093 0.67244 0.22884 0.0
C1064 C 0.46287 0.67949 0.21672 0.0
C1065 C 0.49425 0.66509 0.23546 0.0
H1066 H 0.51403 0.67101 0.19947 0.0
C1067 C 0.5545 0.65724 0.23232 0.0
C1068 C 0.5623 0.66827 0.22574 0.0
C1069 C 0.53974 0.65625 0.23045 0.0
C1070 C 0.50863 0.66939 0.20959 0.0
H1071 H 0.44299 0.65391 0.24265 0.0
H1072 H 0.46835 0.65045 0.23813 0.0
H1073 H 0.48782 0.67196 0.20021 0.0
H1074 H 0.5609 0.68639 0.21134 0.0
H1075 H 0.53495 0.68482 0.20826 0.0
H1076 H 0.51486 0.66276 0.24495 0.0
C1077 C 0.46291 0.65916 0.23277 0.0
C1078 C 0.49365 0.66994 0.21002 0.0
C1079 C 0.44835 0.6611 0.23531 0.0
C1080 C 0.55516 0.67779 0.21656 0.0
C1081 C 0.54031 0.67686 0.21476 0.0
C1082 C 0.50913 0.66452 0.23503 0.0
C1083 C 0.47046 0.66861 0.22384 0.0
C1084 C 0.48631 0.66775 0.22298 0.0
C1085 C 0.5324 0.66635 0.22207 0.0
C1086 C 0.51651 0.66662 0.22211 0.0
H1087 H 0.44274 0.69019 0.21402 0.0
H1088 H 0.46838 0.68699 0.20981 0.0
H1089 H 0.48899 0.66375 0.2457 0.0
H1090 H 0.55973 0.64961 0.2393 0.0
H1091 H 0.53401 0.64782 0.23594 0.0
C1092 C 0.8241 0.05288 0.71726 0.0
C1093 C 0.83397 0.05936 0.72657 0.0
C1094 C 0.82463 0.03811 0.71477 0.0
C1095 C 0.83648 0.00588 0.73356 0.0
H1096 H 0.82782 0.98606 0.69815 0.0
C1097 C 0.83833 0.94519 0.7318 0.0
C1098 C 0.8266 0.93829 0.72546 0.0
C1099 C 0.84066 0.95973 0.72956 0.0
C1100 C 0.83019 0.99148 0.70812 0.0
H1101 H 0.85284 0.05575 0.73958 0.0
H1102 H 0.85395 0.03017 0.73501 0.0
H1103 H 0.82946 0.01226 0.69833 0.0
H1104 H 0.80857 0.94097 0.71112 0.0
H1105 H 0.81245 0.96662 0.70746 0.0
H1106 H 0.8369 0.98537 0.74349 0.0
C1107 C 0.84555 0.03636 0.72996 0.0
C1108 C 0.83113 0.00645 0.70822 0.0
C1109 C 0.84495 0.05102 0.73253 0.0
C1110 C 0.81769 0.94604 0.71616 0.0
C1111 C 0.81994 0.96071 0.71403 0.0
C1112 C 0.83552 0.99103 0.73347 0.0
C1113 C 0.83508 0.02964 0.72151 0.0
C1114 C 0.83436 0.01378 0.72096 0.0
C1115 C 0.8312 0.96778 0.72108 0.0
C1116 C 0.83244 0.98362 0.72076 0.0
H1117 H 0.81553 0.05906 0.71251 0.0
H1118 H 0.8164 0.03325 0.70823 0.0
H1119 H 0.83857 0.0112 0.74365 0.0
H1120 H 0.84552 0.93943 0.73884 0.0
H1121 H 0.84966 0.96478 0.73484 0.0
C1122 C 0.55239 0.32009 0.21282 0.0
C1123 C 0.55828 0.32833 0.22393 0.0
C1124 C 0.53788 0.32134 0.20931 0.0
C1125 C 0.50565 0.31815 0.21314 0.0
H1126 H 0.48496 0.35397 0.21621 0.0
C1127 C 0.44697 0.33755 0.232 0.0
C1128 C 0.43807 0.32802 0.22452 0.0
C1129 C 0.4614 0.33886 0.22842 0.0
C1130 C 0.49059 0.34388 0.21528 0.0
H1131 H 0.55375 0.34488 0.23956 0.0
H1132 H 0.52857 0.34698 0.23356 0.0
H1133 H 0.51106 0.35412 0.2159 0.0
H1134 H 0.43722 0.31274 0.20708 0.0
H1135 H 0.46258 0.31497 0.20088 0.0
H1136 H 0.48518 0.30789 0.213 0.0
C1137 C 0.5351 0.33962 0.22744 0.0
C1138 C 0.50554 0.34396 0.21512 0.0
C1139 C 0.54955 0.33834 0.23097 0.0
C1140 C 0.44382 0.32016 0.21305 0.0
C1141 C 0.45833 0.32139 0.20954 0.0
C1142 C 0.49069 0.31807 0.21327 0.0
C1143 C 0.529 0.33092 0.21679 0.0
C1144 C 0.51325 0.33106 0.21451 0.0
C1145 C 0.46732 0.33061 0.21733 0.0
C1146 C 0.48301 0.33091 0.21479 0.0
H1147 H 0.55885 0.31231 0.20716 0.0
H1148 H 0.53354 0.3146 0.20094 0.0
H1149 H 0.51124 0.308 0.21281 0.0
H1150 H 0.44287 0.34379 0.24086 0.0
H1151 H 0.46805 0.34592 0.23476 0.0
C1152 C 0.28376 0.17799 0.05291 0.0
C1153 C 0.27285 0.17029 0.05982 0.0
C1154 C 0.2852 0.17737 0.03799 0.0
C1155 C 0.26298 0.17018 0.00637 0.0
H1156 H 0.29875 0.16868 0.9854 0.0
C1157 C 0.26295 0.1613 0.94617 0.0
C1158 C 0.27148 0.17045 0.93786 0.0
C1159 C 0.26476 0.1606 0.96095 0.0
C1160 C 0.2887 0.16922 0.99114 0.0
H1161 H 0.25556 0.15513 0.05667 0.0
H1162 H 0.25822 0.15384 0.03086 0.0
H1163 H 0.29903 0.16862 0.01167 0.0
H1164 H 0.28911 0.18552 0.93842 0.0
H1165 H 0.29219 0.18439 0.96445 0.0
H1166 H 0.25259 0.17084 0.98606 0.0
C1167 C 0.26542 0.16068 0.03684 0.0
C1168 C 0.28886 0.16918 0.00615 0.0
C1169 C 0.26393 0.16138 0.05165 0.0
C1170 C 0.28235 0.17839 0.94457 0.0
C1171 C 0.28415 0.17772 0.95945 0.0
C1172 C 0.26282 0.1702 0.99148 0.0
C1173 C 0.27577 0.16898 0.02978 0.0
C1174 C 0.27596 0.16947 0.0139 0.0
C1175 C 0.2751 0.16909 0.96781 0.0
C1176 C 0.27564 0.16952 0.98368 0.0
H1177 H 0.29081 0.18494 0.05894 0.0
H1178 H 0.29327 0.1839 0.03285 0.0
H1179 H 0.25287 0.17083 0.012 0.0
H1180 H 0.2546 0.1549 0.94132 0.0
H1181 H 0.25784 0.1536 0.96707 0.0
C1182 C 0.26806 0.83826 0.05161 0.0
C1183 C 0.27428 0.82682 0.05912 0.0
C1184 C 0.27026 0.83978 0.03693 0.0
C1185 C 0.29183 0.82774 0.00587 0.0
H1186 H 0.25648 0.83488 0.98535 0.0
C1187 C 0.28445 0.81895 0.94459 0.0
C1188 C 0.27508 0.82824 0.93738 0.0
C1189 C 0.28631 0.82007 0.95943 0.0
C1190 C 0.26652 0.83314 0.99087 0.0
H1191 H 0.28836 0.80848 0.05729 0.0
H1192 H 0.29204 0.81103 0.03148 0.0
H1193 H 0.2564 0.83464 0.01127 0.0
H1194 H 0.26116 0.84663 0.93984 0.0
H1195 H 0.26467 0.84881 0.96552 0.0
H1196 H 0.30186 0.82605 0.98528 0.0
C1197 C 0.28556 0.81888 0.03701 0.0
C1198 C 0.26647 0.83299 0.00577 0.0
C1199 C 0.28341 0.81739 0.05178 0.0
C1200 C 0.26829 0.83917 0.94512 0.0
C1201 C 0.27025 0.84037 0.95986 0.0
C1202 C 0.29189 0.82793 0.99086 0.0
C1203 C 0.27864 0.82985 0.02937 0.0
C1204 C 0.2791 0.83032 0.01348 0.0
C1205 C 0.2789 0.83056 0.96728 0.0
C1206 C 0.27922 0.83066 0.9832 0.0
H1207 H 0.26113 0.84582 0.05699 0.0
H1208 H 0.26506 0.84854 0.03141 0.0
H1209 H 0.30174 0.82571 0.01151 0.0
H1210 H 0.28983 0.81041 0.93889 0.0
H1211 H 0.29301 0.8123 0.96481 0.0
C1212 C 0.68381 0.78807 0.55307 0.0
C1213 C 0.6746 0.77787 0.55917 0.0
C1214 C 0.68266 0.79163 0.53856 0.0
C1215 C 0.65903 0.78791 0.50659 0.0
H1216 H 0.69485 0.78698 0.48568 0.0
C1217 C 0.66326 0.77086 0.4478 0.0
C1218 C 0.67332 0.77752 0.43885 0.0
C1219 C 0.66237 0.77449 0.46226 0.0
C1220 C 0.68476 0.78757 0.49135 0.0
H1221 H 0.6565 0.76394 0.555 0.0
H1222 H 0.6546 0.76999 0.52981 0.0
H1223 H 0.69514 0.78702 0.51174 0.0
H1224 H 0.68999 0.79363 0.43791 0.0
H1225 H 0.6885 0.79992 0.4633 0.0
H1226 H 0.64867 0.78781 0.48615 0.0
C1227 C 0.66264 0.77538 0.53618 0.0
C1228 C 0.68492 0.78761 0.50631 0.0
C1229 C 0.6638 0.77182 0.55064 0.0
C1230 C 0.68214 0.78829 0.44455 0.0
C1231 C 0.68133 0.79185 0.45909 0.0
C1232 C 0.65887 0.78782 0.49163 0.0
C1233 C 0.67224 0.78509 0.52988 0.0
C1234 C 0.67205 0.78736 0.51411 0.0
C1235 C 0.67159 0.78481 0.46814 0.0
C1236 C 0.67173 0.78723 0.48386 0.0
H1237 H 0.69222 0.79296 0.55937 0.0
H1238 H 0.69011 0.79928 0.53408 0.0
H1239 H 0.64893 0.78801 0.51226 0.0
H1240 H 0.65628 0.76255 0.44374 0.0
H1241 H 0.65486 0.76875 0.46896 0.0
C1242 C 0.71477 0.17979 0.05254 0.0
C1243 C 0.72461 0.17099 0.05975 0.0
C1244 C 0.71294 0.17855 0.0377 0.0
C1245 C 0.73394 0.16769 0.00659 0.0
H1246 H 0.69848 0.17091 0.98529 0.0
C1247 C 0.73427 0.16219 0.9459 0.0
C1248 C 0.72624 0.17212 0.938 0.0
C1249 C 0.73223 0.16076 0.9606 0.0
C1250 C 0.70847 0.17011 0.99111 0.0
H1251 H 0.73936 0.15324 0.05729 0.0
H1252 H 0.73605 0.15099 0.03158 0.0
H1253 H 0.69793 0.17059 0.01154 0.0
H1254 H 0.7093 0.1879 0.93917 0.0
H1255 H 0.70597 0.18569 0.96506 0.0
H1256 H 0.74459 0.16758 0.98643 0.0
C1257 C 0.73 0.15906 0.03728 0.0
C1258 C 0.70814 0.1699 0.00611 0.0
C1259 C 0.73185 0.16032 0.05203 0.0
C1260 C 0.71565 0.18016 0.94501 0.0
C1261 C 0.71371 0.17885 0.95982 0.0
C1262 C 0.73428 0.16798 0.9917 0.0
C1263 C 0.72092 0.16848 0.02987 0.0
C1264 C 0.72089 0.16857 0.01399 0.0
C1265 C 0.72225 0.16938 0.96783 0.0
C1266 C 0.72157 0.16908 0.98374 0.0
H1267 H 0.70902 0.1881 0.05821 0.0
H1268 H 0.70588 0.18597 0.03228 0.0
H1269 H 0.74399 0.16705 0.01234 0.0
H1270 H 0.74236 0.15567 0.94076 0.0
H1271 H 0.73872 0.15308 0.96636 0.0
C1272 C 0.33563 0.23127 0.55154 0.0
C1273 C 0.3259 0.22414 0.5605 0.0
C1274 C 0.3371 0.2273 0.53723 0.0
C1275 C 0.31645 0.21197 0.50805 0.0
H1276 H 0.35277 0.21371 0.48808 0.0
C1277 C 0.31909 0.21178 0.44638 0.0
C1278 C 0.32757 0.22283 0.44072 0.0
C1279 C 0.32017 0.20805 0.46086 0.0
C1280 C 0.34254 0.21316 0.4935 0.0
H1281 H 0.31041 0.20691 0.5616 0.0
H1282 H 0.31288 0.20005 0.53642 0.0
H1283 H 0.35233 0.21419 0.51419 0.0
H1284 H 0.34435 0.2381 0.4456 0.0
H1285 H 0.34614 0.23173 0.47071 0.0
H1286 H 0.3066 0.21163 0.48739 0.0
C1287 C 0.31936 0.20872 0.54054 0.0
C1288 C 0.3423 0.21342 0.50844 0.0
C1289 C 0.31799 0.21261 0.55495 0.0
C1290 C 0.33763 0.22957 0.44962 0.0
C1291 C 0.33874 0.22582 0.46403 0.0
C1292 C 0.31669 0.21175 0.49309 0.0
C1293 C 0.32879 0.21617 0.53149 0.0
C1294 C 0.32922 0.2133 0.51586 0.0
C1295 C 0.3298 0.21525 0.46991 0.0
C1296 C 0.32972 0.21283 0.48564 0.0
H1297 H 0.34193 0.24016 0.5555 0.0
H1298 H 0.34432 0.23338 0.53051 0.0
H1299 H 0.30619 0.21198 0.51345 0.0
H1300 H 0.31126 0.20636 0.43978 0.0
H1301 H 0.31324 0.19976 0.46504 0.0
C1302 C 0.71564 0.82045 0.05596 0.0
C1303 C 0.72678 0.82751 0.0632 0.0
C1304 C 0.71459 0.82125 0.04102 0.0
C1305 C 0.73775 0.82737 0.00983 0.0
H1306 H 0.7024 0.8307 0.98837 0.0
C1307 C 0.73884 0.83523 0.94929 0.0
C1308 C 0.72945 0.8269 0.94102 0.0
C1309 C 0.73718 0.83612 0.96408 0.0
C1310 C 0.71234 0.82965 0.99423 0.0
H1311 H 0.745 0.84165 0.06055 0.0
H1312 H 0.74304 0.8432 0.03467 0.0
H1313 H 0.70177 0.83091 0.0146 0.0
H1314 H 0.71059 0.81342 0.94175 0.0
H1315 H 0.70779 0.81484 0.96777 0.0
H1316 H 0.74836 0.82596 0.98966 0.0
C1317 C 0.73532 0.83676 0.04044 0.0
C1318 C 0.71197 0.82977 0.00924 0.0
C1319 C 0.73639 0.83593 0.0553 0.0
C1320 C 0.71801 0.81991 0.94784 0.0
C1321 C 0.71637 0.82077 0.96273 0.0
C1322 C 0.73811 0.82724 0.99493 0.0
C1323 C 0.72466 0.82913 0.03308 0.0
C1324 C 0.72472 0.82878 0.01718 0.0
C1325 C 0.72615 0.82864 0.97104 0.0
C1326 C 0.72545 0.82852 0.98693 0.0
H1327 H 0.70807 0.81388 0.06177 0.0
H1328 H 0.70628 0.81521 0.03566 0.0
H1329 H 0.74773 0.8262 0.01561 0.0
H1330 H 0.74767 0.84089 0.94436 0.0
H1331 H 0.7447 0.84255 0.97012 0.0
C1332 C 0.6656 0.23879 0.55332 0.0
C1333 C 0.6736 0.22919 0.56166 0.0
C1334 C 0.66472 0.23708 0.53854 0.0
C1335 C 0.67039 0.21195 0.50853 0.0
H1336 H 0.67433 0.24725 0.48708 0.0
C1337 C 0.67799 0.2159 0.44646 0.0
C1338 C 0.67052 0.22708 0.43969 0.0
C1339 C 0.67772 0.21457 0.46139 0.0
C1340 C 0.67306 0.23731 0.4929 0.0
H1341 H 0.68651 0.20993 0.56111 0.0
H1342 H 0.68515 0.20706 0.53507 0.0
H1343 H 0.67524 0.24785 0.51301 0.0
H1344 H 0.65616 0.24499 0.44317 0.0
H1345 H 0.65561 0.24257 0.46904 0.0
H1346 H 0.66835 0.20146 0.48817 0.0
C1347 C 0.67946 0.21584 0.54006 0.0
C1348 C 0.67357 0.23765 0.50778 0.0
C1349 C 0.68028 0.21751 0.55494 0.0
C1350 C 0.66219 0.23637 0.44805 0.0
C1351 C 0.66191 0.23503 0.46289 0.0
C1352 C 0.66993 0.21161 0.49353 0.0
C1353 C 0.67191 0.22581 0.53168 0.0
C1354 C 0.67201 0.22503 0.5158 0.0
C1355 C 0.66999 0.22439 0.46976 0.0
C1356 C 0.67103 0.22434 0.4856 0.0
H1357 H 0.66016 0.24779 0.55817 0.0
H1358 H 0.65852 0.24474 0.53244 0.0
H1359 H 0.66913 0.20206 0.51442 0.0
H1360 H 0.68448 0.20856 0.44028 0.0
H1361 H 0.68406 0.20627 0.46642 0.0
C1362 C 0.31598 0.78547 0.44894 0.0
C1363 C 0.3238 0.77393 0.4433 0.0
C1364 C 0.31712 0.78903 0.46346 0.0
C1365 C 0.33968 0.78337 0.49567 0.0
H1366 H 0.30405 0.78687 0.51662 0.0
C1367 C 0.3345 0.76864 0.55484 0.0
C1368 C 0.3253 0.77651 0.56374 0.0
C1369 C 0.3354 0.77168 0.54026 0.0
C1370 C 0.31412 0.78623 0.51092 0.0
H1371 H 0.33933 0.75742 0.44832 0.0
H1372 H 0.34128 0.76358 0.47349 0.0
H1373 H 0.30368 0.78627 0.49052 0.0
H1374 H 0.31014 0.79406 0.5644 0.0
H1375 H 0.31168 0.79934 0.53877 0.0
H1376 H 0.35007 0.78279 0.51607 0.0
C1377 C 0.33434 0.76996 0.46675 0.0
C1378 C 0.31391 0.78588 0.49596 0.0
C1379 C 0.33312 0.76635 0.45233 0.0
C1380 C 0.31732 0.78779 0.5578 0.0
C1381 C 0.31815 0.79078 0.54314 0.0
C1382 C 0.33989 0.78372 0.51061 0.0
C1383 C 0.32622 0.78121 0.47255 0.0
C1384 C 0.32665 0.78398 0.48819 0.0
C1385 C 0.32708 0.78262 0.53418 0.0
C1386 C 0.32708 0.78469 0.51841 0.0
H1387 H 0.30872 0.79152 0.44224 0.0
H1388 H 0.3108 0.79781 0.4676 0.0
H1389 H 0.3497 0.78218 0.48997 0.0
H1390 H 0.34082 0.75989 0.55907 0.0
H1391 H 0.34223 0.76505 0.53364 0.0
C1392 C 0.1786 0.38771 0.28321 0.0
C1393 C 0.18559 0.37705 0.29117 0.0
C1394 C 0.16665 0.38423 0.27481 0.0
C1395 C 0.13972 0.35576 0.26792 0.0
H1396 H 0.14771 0.36261 0.2278 0.0
C1397 C 0.11381 0.32162 0.22347 0.0
C1398 C 0.12471 0.31456 0.21591 0.0
C1399 C 0.11704 0.33366 0.23185 0.0
C1400 C 0.14511 0.36086 0.23896 0.0
H1401 H 0.18507 0.35476 0.29749 0.0
H1402 H 0.16422 0.34877 0.28317 0.0
H1403 H 0.1608 0.37597 0.24604 0.0
H1404 H 0.14718 0.31502 0.21026 0.0
H1405 H 0.15272 0.33605 0.22448 0.0
H1406 H 0.12486 0.33984 0.26084 0.0
C1407 C 0.16789 0.35976 0.28328 0.0
C1408 C 0.15254 0.36857 0.24941 0.0
C1409 C 0.17992 0.36316 0.29137 0.0
C1410 C 0.1386 0.32023 0.21607 0.0
C1411 C 0.14174 0.33236 0.22411 0.0
C1412 C 0.13222 0.34813 0.25747 0.0
C1413 C 0.16136 0.37013 0.27458 0.0
C1414 C 0.1505 0.36549 0.26398 0.0
C1415 C 0.13111 0.33899 0.2324 0.0
C1416 C 0.13545 0.35004 0.24292 0.0
H1417 H 0.1828 0.3985 0.28287 0.0
H1418 H 0.16183 0.3924 0.26816 0.0
H1419 H 0.13785 0.35329 0.27909 0.0
H1420 H 0.10302 0.31741 0.22352 0.0
H1421 H 0.10867 0.33855 0.2382 0.0
C1422 C 0.12617 0.69347 0.76402 0.0
C1423 C 0.11848 0.69275 0.77691 0.0
C1424 C 0.13056 0.68103 0.7571 0.0
C1425 C 0.14211 0.64526 0.76585 0.0
H1426 H 0.14673 0.64278 0.72468 0.0
C1427 C 0.19238 0.62427 0.739 0.0
C1428 C 0.19172 0.6175 0.72561 0.0
C1429 C 0.17994 0.62892 0.74577 0.0
C1430 C 0.14529 0.64304 0.73618 0.0
H1431 H 0.10873 0.67844 0.79231 0.0
H1432 H 0.11671 0.6565 0.78027 0.0
H1433 H 0.12992 0.65997 0.73478 0.0
H1434 H 0.17746 0.60949 0.70917 0.0
H1435 H 0.15556 0.61786 0.72098 0.0
H1436 H 0.15803 0.62884 0.76727 0.0
C1437 C 0.11924 0.66676 0.77553 0.0
C1438 C 0.13574 0.65299 0.74196 0.0
C1439 C 0.11463 0.67929 0.78238 0.0
C1440 C 0.17827 0.61469 0.7195 0.0
C1441 C 0.16577 0.61953 0.72622 0.0
C1442 C 0.15169 0.63534 0.76007 0.0
C1443 C 0.12752 0.66753 0.76297 0.0
C1444 C 0.13456 0.65467 0.75687 0.0
C1445 C 0.16652 0.62703 0.73925 0.0
C1446 C 0.15387 0.63461 0.74519 0.0
H1447 H 0.12923 0.7037 0.75951 0.0
H1448 H 0.13708 0.68203 0.74757 0.0
H1449 H 0.14147 0.64631 0.77738 0.0
H1450 H 0.20259 0.62652 0.744 0.0
H1451 H 0.18094 0.63481 0.7557 0.0
C1452 C 0.82813 0.62334 0.29591 0.0
C1453 C 0.81611 0.61937 0.28786 0.0
C1454 C 0.84032 0.6287 0.28905 0.0
C1455 C 0.8582 0.63368 0.254 0.0
H1456 H 0.86494 0.67232 0.26739 0.0
C1457 C 0.87714 0.67874 0.21691 0.0
C1458 C 0.88376 0.69083 0.22275 0.0
C1459 C 0.8732 0.66732 0.22573 0.0
C1460 C 0.86363 0.66145 0.26364 0.0
H1461 H 0.80745 0.61708 0.26653 0.0
H1462 H 0.82886 0.62601 0.25447 0.0
H1463 H 0.85043 0.65622 0.28158 0.0
H1464 H 0.89233 0.70034 0.24201 0.0
H1465 H 0.88623 0.6801 0.25738 0.0
H1466 H 0.87117 0.63898 0.23589 0.0
C1467 C 0.82898 0.62498 0.26602 0.0
C1468 C 0.85523 0.6522 0.27183 0.0
C1469 C 0.81673 0.6199 0.27289 0.0
C1470 C 0.8873 0.69101 0.23731 0.0
C1471 C 0.88362 0.67949 0.24611 0.0
C1472 C 0.86682 0.64286 0.24589 0.0
C1473 C 0.84067 0.62997 0.27405 0.0
C1474 C 0.85201 0.63841 0.26686 0.0
C1475 C 0.87593 0.66776 0.24057 0.0
C1476 C 0.8692 0.65706 0.25034 0.0
H1477 H 0.82772 0.62322 0.3075 0.0
H1478 H 0.84918 0.6325 0.29547 0.0
H1479 H 0.85596 0.62304 0.24999 0.0
H1480 H 0.87411 0.67856 0.20572 0.0
H1481 H 0.86715 0.65864 0.22104 0.0
C1482 C 0.87622 0.30754 0.76495 0.0
C1483 C 0.88347 0.30831 0.77808 0.0
C1484 C 0.87191 0.31996 0.75792 0.0
C1485 C 0.86667 0.34797 0.74277 0.0
H1486 H 0.84335 0.37161 0.76761 0.0
C1487 C 0.82379 0.38546 0.71951 0.0
C1488 C 0.8103 0.38223 0.72529 0.0
C1489 C 0.83627 0.3809 0.72647 0.0
C1490 C 0.84999 0.36526 0.76054 0.0
H1491 H 0.89256 0.32269 0.79383 0.0
H1492 H 0.88472 0.34458 0.78159 0.0
H1493 H 0.85998 0.35443 0.77805 0.0
H1494 H 0.79926 0.37275 0.74334 0.0
H1495 H 0.82085 0.36496 0.75548 0.0
H1496 H 0.85589 0.35804 0.72526 0.0
C1497 C 0.88247 0.3343 0.77674 0.0
C1498 C 0.85961 0.3555 0.76652 0.0
C1499 C 0.88699 0.3218 0.7837 0.0
C1500 C 0.80952 0.37532 0.7386 0.0
C1501 C 0.82192 0.37096 0.74562 0.0
C1502 C 0.85708 0.35777 0.73679 0.0
C1503 C 0.87459 0.33347 0.76393 0.0
C1504 C 0.86752 0.34626 0.75769 0.0
C1505 C 0.83543 0.37327 0.73943 0.0
C1506 C 0.84813 0.366 0.74562 0.0
H1507 H 0.87343 0.29729 0.76032 0.0
H1508 H 0.8657 0.31891 0.74819 0.0
H1509 H 0.87278 0.34112 0.7357 0.0
H1510 H 0.82469 0.39077 0.70924 0.0
H1511 H 0.84654 0.38288 0.72149 0.0
C1512 C 0.26679 0.19114 0.37339 0.0
C1513 C 0.27962 0.19013 0.38111 0.0
C1514 C 0.25955 0.17886 0.36906 0.0
C1515 C 0.26725 0.14323 0.35714 0.0
H1516 H 0.22595 0.14139 0.35364 0.0
C1517 C 0.2385 0.12466 0.30702 0.0
C1518 C 0.2253 0.11757 0.30788 0.0
C1519 C 0.24569 0.12883 0.3194 0.0
C1520 C 0.23748 0.14147 0.35478 0.0
H1521 H 0.29468 0.17551 0.39093 0.0
H1522 H 0.28212 0.1538 0.38294 0.0
H1523 H 0.23676 0.15807 0.37056 0.0
H1524 H 0.20956 0.10861 0.32235 0.0
H1525 H 0.22204 0.11626 0.34418 0.0
H1526 H 0.26798 0.12728 0.34069 0.0
C1527 C 0.27763 0.16418 0.38042 0.0
C1528 C 0.24367 0.1511 0.36439 0.0
C1529 C 0.28477 0.17656 0.38501 0.0
C1530 C 0.21974 0.11405 0.3214 0.0
C1531 C 0.22685 0.11846 0.33386 0.0
C1532 C 0.26106 0.13366 0.34746 0.0
C1533 C 0.26508 0.16524 0.37217 0.0
C1534 C 0.25862 0.15255 0.36517 0.0
C1535 C 0.23975 0.12617 0.33295 0.0
C1536 C 0.24613 0.13318 0.3457 0.0
H1537 H 0.26254 0.20148 0.3703 0.0
H1538 H 0.25003 0.18006 0.36255 0.0
H1539 H 0.2788 0.14413 0.35747 0.0
H1540 H 0.24307 0.12744 0.29674 0.0
H1541 H 0.25549 0.13491 0.31831 0.0
C1542 C 0.32038 0.78399 0.86243 0.0
C1543 C 0.31469 0.78418 0.87632 0.0
C1544 C 0.33232 0.77569 0.85925 0.0
C1545 C 0.34719 0.74186 0.86848 0.0
H1546 H 0.37551 0.75288 0.84021 0.0
C1547 C 0.36171 0.70821 0.82042 0.0
C1548 C 0.37563 0.7082 0.81481 0.0
C1549 C 0.35844 0.71617 0.83258 0.0
C1550 C 0.36797 0.74962 0.84838 0.0
H1551 H 0.31729 0.77631 0.89796 0.0
H1552 H 0.33808 0.76117 0.89222 0.0
H1553 H 0.36254 0.77131 0.85341 0.0
H1554 H 0.39725 0.71595 0.81786 0.0
H1555 H 0.39139 0.73041 0.83906 0.0
H1556 H 0.35182 0.72019 0.86263 0.0
C1557 C 0.33337 0.76771 0.8839 0.0
C1558 C 0.36048 0.76017 0.85587 0.0
C1559 C 0.32154 0.77636 0.88717 0.0
C1560 C 0.38644 0.71577 0.82201 0.0
C1561 C 0.38309 0.72403 0.83409 0.0
C1562 C 0.3546 0.73131 0.8609 0.0
C1563 C 0.33871 0.76714 0.86983 0.0
C1564 C 0.3495 0.75639 0.86543 0.0
C1565 C 0.36897 0.72453 0.8393 0.0
C1566 C 0.36451 0.73511 0.85024 0.0
H1567 H 0.31533 0.78999 0.85389 0.0
H1568 H 0.33603 0.77531 0.84827 0.0
H1569 H 0.33876 0.73863 0.87575 0.0
H1570 H 0.35319 0.7024 0.81511 0.0
H1571 H 0.34743 0.71648 0.83618 0.0
C1572 C 0.72303 0.82077 0.38585 0.0
C1573 C 0.71573 0.81287 0.37535 0.0
C1574 C 0.73136 0.83263 0.38191 0.0
C1575 C 0.73803 0.85844 0.35267 0.0
H1576 H 0.77836 0.85272 0.3605 0.0
C1577 C 0.78169 0.88781 0.3204 0.0
C1578 C 0.79028 0.8777 0.31335 0.0
C1579 C 0.77317 0.88366 0.33204 0.0
C1580 C 0.76712 0.85466 0.35846 0.0
H1581 H 0.71057 0.81161 0.35278 0.0
H1582 H 0.72469 0.83239 0.34601 0.0
H1583 H 0.76052 0.83877 0.3736 0.0
H1584 H 0.79756 0.8557 0.31348 0.0
H1585 H 0.78306 0.84857 0.33387 0.0
H1586 H 0.74465 0.87363 0.33685 0.0
C1587 C 0.72415 0.82945 0.35721 0.0
C1588 C 0.75691 0.84675 0.36601 0.0
C1589 C 0.71617 0.81748 0.36107 0.0
C1590 C 0.79096 0.86368 0.31868 0.0
C1591 C 0.78275 0.85964 0.33044 0.0
C1592 C 0.74822 0.86647 0.34524 0.0
C1593 C 0.73211 0.83695 0.36751 0.0
C1594 C 0.74233 0.84805 0.36266 0.0
C1595 C 0.77345 0.86945 0.33699 0.0
C1596 C 0.76288 0.86413 0.34756 0.0
H1597 H 0.72288 0.81738 0.39693 0.0
H1598 H 0.73746 0.83822 0.39003 0.0
H1599 H 0.72683 0.85968 0.34995 0.0
H1600 H 0.78096 0.89868 0.31644 0.0
H1601 H 0.76605 0.89141 0.33689 0.0
C1602 C 0.67838 0.21959 0.88242 0.0
C1603 C 0.68445 0.21041 0.87218 0.0
C1604 C 0.66685 0.22844 0.8787 0.0
C1605 C 0.63939 0.2352 0.85072 0.0
H1606 H 0.65041 0.275 0.8545 0.0
C1607 C 0.61372 0.28026 0.81663 0.0
C1608 C 0.6244 0.28684 0.80835 0.0
C1609 C 0.61748 0.27184 0.82848 0.0
C1610 C 0.64699 0.26396 0.85361 0.0
H1611 H 0.68262 0.2024 0.85051 0.0
H1612 H 0.66245 0.21753 0.84413 0.0
H1613 H 0.66291 0.25677 0.86841 0.0
H1614 H 0.6472 0.29056 0.80636 0.0
H1615 H 0.65369 0.27626 0.82709 0.0
H1616 H 0.62415 0.24234 0.83514 0.0
C1617 C 0.66654 0.21803 0.85497 0.0
C1618 C 0.65408 0.25353 0.86164 0.0
C1619 C 0.67818 0.20945 0.85857 0.0
C1620 C 0.63876 0.28552 0.81251 0.0
C1621 C 0.64247 0.27744 0.82447 0.0
C1622 C 0.6322 0.24566 0.84279 0.0
C1623 C 0.66105 0.22796 0.86481 0.0
C1624 C 0.65085 0.23899 0.8597 0.0
C1625 C 0.63193 0.27027 0.83241 0.0
C1626 C 0.63646 0.26004 0.84363 0.0
H1627 H 0.68307 0.22054 0.89298 0.0
H1628 H 0.66282 0.23603 0.88648 0.0
H1629 H 0.63662 0.22407 0.84911 0.0
H1630 H 0.60257 0.28111 0.8136 0.0
H1631 H 0.60918 0.26635 0.83441 0.0
C1632 C 0.28529 0.8227 0.63895 0.0
C1633 C 0.2854 0.81663 0.62522 0.0
C1634 C 0.27667 0.83446 0.64196 0.0
C1635 C 0.24219 0.84801 0.63241 0.0
H1636 H 0.25197 0.87667 0.66078 0.0
C1637 C 0.20692 0.86191 0.67955 0.0
C1638 C 0.20673 0.87576 0.68532 0.0
C1639 C 0.21523 0.8588 0.66757 0.0
C1640 C 0.24903 0.86903 0.65259 0.0
H1641 H 0.27713 0.81846 0.60365 0.0
H1642 H 0.26154 0.83896 0.60906 0.0
H1643 H 0.27094 0.86426 0.64786 0.0
H1644 H 0.21448 0.89744 0.68271 0.0
H1645 H 0.22947 0.89189 0.66183 0.0
H1646 H 0.2203 0.85207 0.63786 0.0
C1647 C 0.26833 0.83466 0.61741 0.0
C1648 C 0.25991 0.86185 0.64526 0.0
C1649 C 0.27725 0.82299 0.61431 0.0
C1650 C 0.21444 0.88667 0.67844 0.0
C1651 C 0.22302 0.88349 0.66654 0.0
C1652 C 0.23131 0.85514 0.63979 0.0
C1653 C 0.26775 0.8403 0.63137 0.0
C1654 C 0.2566 0.85075 0.63567 0.0
C1655 C 0.22373 0.86944 0.6612 0.0
C1656 C 0.23466 0.86516 0.6505 0.0
H1657 H 0.29154 0.81803 0.64753 0.0
H1658 H 0.27632 0.8384 0.65286 0.0
H1659 H 0.2393 0.83949 0.6251 0.0
H1660 H 0.20101 0.85331 0.6846 0.0
H1661 H 0.21569 0.84783 0.66387 0.0
C1662 C 0.67372 0.78108 0.11443 0.0
C1663 C 0.67987 0.78953 0.12522 0.0
C1664 C 0.66175 0.77255 0.11746 0.0
C1665 C 0.63389 0.76514 0.14508 0.0
H1666 H 0.64443 0.72543 0.13955 0.0
C1667 C 0.61034 0.71985 0.18004 0.0
C1668 C 0.62162 0.71325 0.18746 0.0
C1669 C 0.61318 0.72821 0.16788 0.0
C1670 C 0.64112 0.73645 0.14092 0.0
H1671 H 0.67775 0.79672 0.14715 0.0
H1672 H 0.65689 0.78216 0.15236 0.0
H1673 H 0.6567 0.74402 0.12597 0.0
H1674 H 0.64446 0.70933 0.18758 0.0
H1675 H 0.64936 0.72352 0.16637 0.0
H1676 H 0.61916 0.7576 0.16094 0.0
C1677 C 0.6612 0.78197 0.1416 0.0
C1678 C 0.64807 0.7471 0.13307 0.0
C1679 C 0.67325 0.79022 0.13867 0.0
C1680 C 0.63558 0.7144 0.1821 0.0
C1681 C 0.63837 0.7224 0.16986 0.0
C1682 C 0.62687 0.75447 0.15287 0.0
C1683 C 0.65562 0.77264 0.13122 0.0
C1684 C 0.64513 0.7616 0.13573 0.0
C1685 C 0.62728 0.72968 0.16281 0.0
C1686 C 0.63104 0.74011 0.15147 0.0
H1687 H 0.67867 0.78036 0.10397 0.0
H1688 H 0.65766 0.76544 0.10927 0.0
H1689 H 0.6313 0.77623 0.14721 0.0
H1690 H 0.59948 0.71913 0.18401 0.0
H1691 H 0.60447 0.73379 0.16267 0.0
C1692 C 0.78293 0.11787 0.68367 0.0
C1693 C 0.78688 0.12729 0.69473 0.0
C1694 C 0.77278 0.12205 0.6734 0.0
C1695 C 0.74237 0.14628 0.67034 0.0
H1696 H 0.74704 0.14482 0.62915 0.0
C1697 C 0.70102 0.17368 0.63627 0.0
C1698 C 0.70681 0.18318 0.62624 0.0
C1699 C 0.70928 0.16252 0.64172 0.0
C1700 C 0.74554 0.14521 0.64063 0.0
H1701 H 0.78393 0.14873 0.70318 0.0
H1702 H 0.76644 0.1559 0.68545 0.0
H1703 H 0.76534 0.1342 0.64475 0.0
H1704 H 0.7253 0.18808 0.61323 0.0
H1705 H 0.74009 0.16896 0.62322 0.0
H1706 H 0.72321 0.15791 0.66661 0.0
C1707 C 0.77093 0.14524 0.68481 0.0
C1708 C 0.75596 0.13905 0.64953 0.0
C1709 C 0.781 0.14112 0.69495 0.0
C1710 C 0.7206 0.18073 0.62086 0.0
C1711 C 0.72904 0.16975 0.62659 0.0
C1712 C 0.73204 0.15239 0.66155 0.0
C1713 C 0.76644 0.13566 0.67416 0.0
C1714 C 0.75465 0.13997 0.66448 0.0
C1715 C 0.7237 0.161 0.63765 0.0
C1716 C 0.73363 0.15228 0.64658 0.0
H1717 H 0.78733 0.10716 0.68321 0.0
H1718 H 0.76951 0.1145 0.66524 0.0
H1719 H 0.74101 0.14699 0.68184 0.0
H1720 H 0.69037 0.17542 0.64053 0.0
H1721 H 0.70467 0.15572 0.64989 0.0
C1722 C 0.32172 0.20655 0.14061 0.0
C1723 C 0.31609 0.20648 0.12669 0.0
C1724 C 0.33347 0.21507 0.14399 0.0
C1725 C 0.36097 0.2316 0.1481 0.0
H1726 H 0.35243 0.27125 0.13946 0.0
C1727 C 0.38684 0.2778 0.17982 0.0
C1728 C 0.37607 0.28593 0.18644 0.0
C1729 C 0.38346 0.26875 0.16833 0.0
C1730 C 0.35516 0.26022 0.14175 0.0
H1731 H 0.31874 0.21469 0.10517 0.0
H1732 H 0.33922 0.23002 0.11121 0.0
H1733 H 0.33966 0.25227 0.12689 0.0
H1734 H 0.35368 0.29184 0.18568 0.0
H1735 H 0.34787 0.27641 0.16559 0.0
H1736 H 0.3757 0.23958 0.16372 0.0
C1737 C 0.33457 0.22332 0.11945 0.0
C1738 C 0.34791 0.24934 0.13448 0.0
C1739 C 0.3229 0.21454 0.11599 0.0
C1740 C 0.36216 0.28562 0.18082 0.0
C1741 C 0.35887 0.27687 0.16922 0.0
C1742 C 0.36829 0.24248 0.1553 0.0
C1743 C 0.33975 0.2239 0.13357 0.0
C1744 C 0.35021 0.23494 0.13813 0.0
C1745 C 0.36936 0.26802 0.1631 0.0
C1746 C 0.3649 0.25689 0.15271 0.0
H1747 H 0.31672 0.20037 0.14905 0.0
H1748 H 0.33706 0.21541 0.15501 0.0
H1749 H 0.36306 0.22058 0.15101 0.0
H1750 H 0.39765 0.27783 0.18402 0.0
H1751 H 0.39174 0.26201 0.16381 0.0
C1752 C 0.80745 0.62816 0.72976 0.0
C1753 C 0.80875 0.62033 0.71701 0.0
C1754 C 0.81956 0.63217 0.73746 0.0
C1755 C 0.85584 0.64299 0.73155 0.0
H1756 H 0.85617 0.64538 0.77299 0.0
C1757 C 0.87449 0.69172 0.76248 0.0
C1758 C 0.88115 0.6903 0.77586 0.0
C1759 C 0.87033 0.67967 0.75476 0.0
C1760 C 0.85651 0.64454 0.76144 0.0
H1761 H 0.82367 0.6101 0.70254 0.0
H1762 H 0.8451 0.61759 0.71588 0.0
H1763 H 0.83936 0.62934 0.76108 0.0
H1764 H 0.88934 0.67519 0.7914 0.0
H1765 H 0.88165 0.65392 0.77798 0.0
H1766 H 0.87232 0.65892 0.73188 0.0
C1767 C 0.83462 0.62041 0.71995 0.0
C1768 C 0.84681 0.63543 0.75462 0.0
C1769 C 0.8224 0.61612 0.71236 0.0
C1770 C 0.88425 0.67655 0.78108 0.0
C1771 C 0.87982 0.66442 0.77344 0.0
C1772 C 0.86547 0.65219 0.73837 0.0
C1773 C 0.83329 0.62864 0.73249 0.0
C1774 C 0.84593 0.63508 0.73961 0.0
C1775 C 0.87253 0.6659 0.76034 0.0
C1776 C 0.86542 0.65354 0.75336 0.0
H1777 H 0.79705 0.63148 0.73365 0.0
H1778 H 0.81818 0.63869 0.74695 0.0
H1779 H 0.85538 0.64298 0.71997 0.0
H1780 H 0.87203 0.7022 0.75818 0.0
H1781 H 0.86458 0.68119 0.74481 0.0
C1782 C 0.88756 0.32018 0.21653 0.0
C1783 C 0.8769 0.31247 0.20925 0.0
C1784 C 0.88387 0.33212 0.22486 0.0
C1785 C 0.8547 0.35804 0.23213 0.0
H1786 H 0.86347 0.35191 0.27221 0.0
C1787 C 0.82188 0.38521 0.27669 0.0
C1788 C 0.81539 0.37457 0.28508 0.0
C1789 C 0.83367 0.38183 0.26803 0.0
C1790 C 0.86117 0.35398 0.26104 0.0
H1791 H 0.85431 0.31166 0.20412 0.0
H1792 H 0.84796 0.33251 0.21829 0.0
H1793 H 0.87642 0.33844 0.25393 0.0
H1794 H 0.81665 0.35247 0.29191 0.0
H1795 H 0.83727 0.34666 0.27717 0.0
H1796 H 0.8387 0.37278 0.23928 0.0
C1797 C 0.85911 0.3294 0.21771 0.0
C1798 C 0.86864 0.34634 0.25057 0.0
C1799 C 0.86272 0.31737 0.2097 0.0
C1800 C 0.82142 0.36084 0.28546 0.0
C1801 C 0.83332 0.35756 0.27712 0.0
C1802 C 0.84732 0.36577 0.24259 0.0
C1803 C 0.86955 0.33669 0.22567 0.0
C1804 C 0.86492 0.34773 0.23608 0.0
C1805 C 0.83931 0.36787 0.26798 0.0
C1806 C 0.84995 0.36323 0.25716 0.0
H1807 H 0.89857 0.31657 0.21636 0.0
H1808 H 0.89211 0.33753 0.23095 0.0
H1809 H 0.85172 0.35938 0.22101 0.0
H1810 H 0.81737 0.39587 0.2762 0.0
H1811 H 0.83807 0.38995 0.26104 0.0
C1812 C 0.11481 0.32136 0.78028 0.0
C1813 C 0.11752 0.30787 0.77423 0.0
C1814 C 0.11963 0.3338 0.77343 0.0
C1815 C 0.14321 0.35403 0.76292 0.0
H1816 H 0.14516 0.35799 0.72165 0.0
C1817 C 0.19274 0.37292 0.73329 0.0
C1818 C 0.19156 0.38106 0.72072 0.0
C1819 C 0.18055 0.36844 0.74059 0.0
C1820 C 0.14448 0.3573 0.7332 0.0
H1821 H 0.12635 0.29683 0.75585 0.0
H1822 H 0.13456 0.31839 0.74389 0.0
H1823 H 0.12799 0.34142 0.73227 0.0
H1824 H 0.17674 0.39144 0.70624 0.0
H1825 H 0.15521 0.38324 0.71892 0.0
H1826 H 0.16029 0.36929 0.76381 0.0
C1827 C 0.12879 0.31947 0.75388 0.0
C1828 C 0.13473 0.34773 0.73927 0.0
C1829 C 0.12419 0.30709 0.7608 0.0
C1830 C 0.17793 0.3852 0.71594 0.0
C1831 C 0.16564 0.38048 0.72314 0.0
C1832 C 0.15302 0.36354 0.75685 0.0
C1833 C 0.12698 0.33293 0.76031 0.0
C1834 C 0.13445 0.34553 0.75416 0.0
C1835 C 0.16686 0.37182 0.7354 0.0
C1836 C 0.15419 0.36479 0.7419 0.0
H1837 H 0.1097 0.32225 0.79064 0.0
H1838 H 0.11805 0.34405 0.7786 0.0
H1839 H 0.14331 0.35255 0.77442 0.0
H1840 H 0.20312 0.36962 0.73726 0.0
H1841 H 0.18186 0.36163 0.74988 0.0
C1842 C 0.18918 0.62766 0.26139 0.0
C1843 C 0.18834 0.62068 0.27465 0.0
C1844 C 0.1768 0.63173 0.25417 0.0
C1845 C 0.1488 0.63655 0.23879 0.0
H1846 H 0.12612 0.6615 0.26293 0.0
C1847 C 0.11264 0.68031 0.21468 0.0
C1848 C 0.11677 0.69378 0.21991 0.0
C1849 C 0.1168 0.66782 0.22189 0.0
C1850 C 0.13216 0.65438 0.25607 0.0
H1851 H 0.17392 0.61181 0.29048 0.0
H1852 H 0.15206 0.61935 0.27795 0.0
H1853 H 0.1427 0.64456 0.27387 0.0
H1854 H 0.12755 0.70486 0.2372 0.0
H1855 H 0.13459 0.68326 0.2498 0.0
H1856 H 0.13907 0.64715 0.22097 0.0
C1857 C 0.16237 0.6215 0.27311 0.0
C1858 C 0.14158 0.6446 0.26233 0.0
C1859 C 0.17484 0.61717 0.28024 0.0
C1860 C 0.12429 0.69461 0.23288 0.0
C1861 C 0.1282 0.68222 0.24018 0.0
C1862 C 0.13933 0.64628 0.23253 0.0
C1863 C 0.16326 0.62911 0.26014 0.0
C1864 C 0.15054 0.63613 0.25373 0.0
C1865 C 0.12487 0.66868 0.23458 0.0
C1866 C 0.13149 0.65581 0.24111 0.0
H1867 H 0.19945 0.63042 0.25679 0.0
H1868 H 0.17788 0.63775 0.24432 0.0
H1869 H 0.15548 0.63003 0.23192 0.0
H1870 H 0.10685 0.6794 0.20468 0.0
H1871 H 0.1141 0.65752 0.21734 0.0
C1872 C 0.78349 0.86065 0.68323 0.0
C1873 C 0.78302 0.87491 0.68788 0.0
C1874 C 0.77766 0.85678 0.6701 0.0
C1875 C 0.74858 0.86251 0.64764 0.0
H1876 H 0.77004 0.83868 0.62131 0.0
C1877 C 0.72036 0.82133 0.61131 0.0
C1878 C 0.72595 0.80762 0.61393 0.0
C1879 C 0.72805 0.83353 0.61548 0.0
C1880 C 0.76389 0.84548 0.6284 0.0
H1881 H 0.77622 0.89638 0.68246 0.0
H1882 H 0.76522 0.88937 0.65946 0.0
H1883 H 0.78275 0.85364 0.63854 0.0
H1884 H 0.74426 0.79588 0.62194 0.0
H1885 H 0.75763 0.81692 0.62901 0.0
H1886 H 0.7297 0.85326 0.63852 0.0
C1887 C 0.77048 0.88135 0.66596 0.0
C1888 C 0.77117 0.85409 0.63818 0.0
C1889 C 0.77673 0.88533 0.67904 0.0
C1890 C 0.73966 0.80632 0.61986 0.0
C1891 C 0.74739 0.81842 0.62379 0.0
C1892 C 0.74126 0.85377 0.63791 0.0
C1893 C 0.77094 0.86702 0.66143 0.0
C1894 C 0.76357 0.86207 0.64837 0.0
C1895 C 0.74154 0.83216 0.62203 0.0
C1896 C 0.74888 0.84453 0.62879 0.0
H1897 H 0.78835 0.85243 0.68981 0.0
H1898 H 0.77798 0.84564 0.66691 0.0
H1899 H 0.74251 0.86851 0.65548 0.0
H1900 H 0.70977 0.8226 0.60678 0.0
H1901 H 0.72329 0.84399 0.61399 0.0
C1902 C 0.61382 0.28464 0.17665 0.0
C1903 C 0.61688 0.27914 0.1903 0.0
C1904 C 0.61844 0.27734 0.16438 0.0
C1905 C 0.63291 0.24266 0.15143 0.0
H1906 H 0.65951 0.26576 0.12955 0.0
C1907 C 0.67638 0.21706 0.11574 0.0
C1908 C 0.68997 0.22146 0.12043 0.0
C1909 C 0.66415 0.22477 0.1198 0.0
C1910 C 0.65192 0.2592 0.13536 0.0
H1911 H 0.62613 0.26133 0.20189 0.0
H1912 H 0.63387 0.24851 0.18062 0.0
H1913 H 0.64252 0.27737 0.14564 0.0
H1914 H 0.70159 0.23776 0.13212 0.0
H1915 H 0.68044 0.25127 0.13892 0.0
H1916 H 0.64302 0.22444 0.14191 0.0
C1917 C 0.62802 0.25843 0.17929 0.0
C1918 C 0.64213 0.26585 0.14449 0.0
C1919 C 0.6237 0.26583 0.19148 0.0
C1920 C 0.69123 0.23409 0.12843 0.0
C1921 C 0.67911 0.2419 0.13221 0.0
C1922 C 0.64263 0.23601 0.1422 0.0
C1923 C 0.62583 0.26429 0.16562 0.0
C1924 C 0.63303 0.2576 0.15316 0.0
C1925 C 0.66542 0.23714 0.12828 0.0
C1926 C 0.65271 0.2442 0.13464 0.0
H1927 H 0.60861 0.29493 0.17549 0.0
H1928 H 0.61664 0.28209 0.15396 0.0
H1929 H 0.62593 0.23606 0.15792 0.0
H1930 H 0.67515 0.20732 0.10959 0.0
H1931 H 0.65371 0.22086 0.11666 0.0
C1932 C 0.27769 0.17885 0.61627 0.0
C1933 C 0.28527 0.18727 0.62616 0.0
C1934 C 0.27014 0.16671 0.62092 0.0
C1935 C 0.26738 0.14126 0.65104 0.0
H1936 H 0.22624 0.1434 0.64615 0.0
C1937 C 0.22851 0.12928 0.69541 0.0
C1938 C 0.21607 0.12127 0.69293 0.0
C1939 C 0.23757 0.13287 0.68416 0.0
C1940 C 0.23773 0.14236 0.6473 0.0
H1941 H 0.29155 0.18929 0.6484 0.0
H1942 H 0.27879 0.16815 0.65637 0.0
H1943 H 0.24189 0.15812 0.63112 0.0
H1944 H 0.20336 0.11056 0.67677 0.0
H1945 H 0.21916 0.11739 0.65675 0.0
H1946 H 0.26321 0.1264 0.66794 0.0
C1947 C 0.27853 0.17085 0.6451 0.0
C1948 C 0.24668 0.15077 0.6387 0.0
C1949 C 0.28574 0.18304 0.64055 0.0
C1950 C 0.21293 0.11672 0.67894 0.0
C1951 C 0.22191 0.12062 0.66753 0.0
C1952 C 0.25847 0.13291 0.65961 0.0
C1953 C 0.27046 0.16268 0.63542 0.0
C1954 C 0.26153 0.15086 0.64107 0.0
C1955 C 0.23432 0.12872 0.6701 0.0
C1956 C 0.24354 0.13398 0.65834 0.0
H1957 H 0.27713 0.18195 0.60512 0.0
H1958 H 0.26393 0.16061 0.61327 0.0
H1959 H 0.27882 0.14101 0.65295 0.0
H1960 H 0.23125 0.13287 0.70609 0.0
H1961 H 0.24694 0.13932 0.68643 0.0
C1962 C 0.32158 0.78285 0.11654 0.0
C1963 C 0.30795 0.77735 0.11968 0.0
C1964 C 0.33388 0.77562 0.12118 0.0
C1965 C 0.35394 0.76444 0.14483 0.0
H1966 H 0.35674 0.72305 0.14614 0.0
C1967 C 0.37066 0.73322 0.19407 0.0
C1968 C 0.37896 0.72077 0.19286 0.0
C1969 C 0.36662 0.74085 0.18193 0.0
C1970 C 0.35638 0.73462 0.14563 0.0
H1971 H 0.29646 0.75957 0.12912 0.0
H1972 H 0.31778 0.74689 0.13693 0.0
H1973 H 0.34048 0.73441 0.1291 0.0
H1974 H 0.38999 0.70676 0.17806 0.0
H1975 H 0.38243 0.71995 0.15655 0.0
H1976 H 0.36906 0.7646 0.16207 0.0
C1977 C 0.31906 0.75676 0.13099 0.0
C1978 C 0.34701 0.74112 0.13594 0.0
C1979 C 0.30684 0.76409 0.12664 0.0
C1980 C 0.38363 0.71637 0.17926 0.0
C1981 C 0.37929 0.72387 0.167 0.0
C1982 C 0.3632 0.75794 0.15461 0.0
C1983 C 0.3327 0.76263 0.12871 0.0
C1984 C 0.34522 0.75605 0.13591 0.0
C1985 C 0.37056 0.73607 0.16824 0.0
C1986 C 0.36401 0.74295 0.15554 0.0
H1987 H 0.32271 0.79308 0.11121 0.0
H1988 H 0.34428 0.78038 0.1193 0.0
H1989 H 0.35275 0.77596 0.14511 0.0
H1990 H 0.36698 0.73688 0.20444 0.0
H1991 H 0.35973 0.75008 0.18323 0.0
C1992 C 0.70833 0.17712 0.36245 0.0
C1993 C 0.70861 0.18333 0.37611 0.0
C1994 C 0.71663 0.16513 0.35941 0.0
C1995 C 0.75101 0.15109 0.36848 0.0
H1996 H 0.74036 0.12246 0.34039 0.0
C1997 C 0.78446 0.13737 0.32019 0.0
C1998 C 0.78489 0.12343 0.31465 0.0
C1999 C 0.7765 0.14042 0.33241 0.0
C2000 C 0.74352 0.13009 0.34852 0.0
H2001 H 0.7172 0.1815 0.39756 0.0
H2002 H 0.73222 0.1606 0.39208 0.0
H2003 H 0.72176 0.13513 0.35365 0.0
H2004 H 0.77789 0.10158 0.31781 0.0
H2005 H 0.76337 0.10706 0.33911 0.0
H2006 H 0.77273 0.14682 0.36254 0.0
C2007 C 0.72538 0.16497 0.38381 0.0
C2008 C 0.73287 0.13741 0.35603 0.0
C2009 C 0.71679 0.17687 0.38694 0.0
C2010 C 0.77774 0.11241 0.32194 0.0
C2011 C 0.76944 0.11554 0.33406 0.0
C2012 C 0.76165 0.14383 0.36089 0.0
C2013 C 0.7256 0.15919 0.3699 0.0
C2014 C 0.7365 0.14853 0.3655 0.0
C2015 C 0.76856 0.12965 0.33923 0.0
C2016 C 0.75797 0.13383 0.35028 0.0
H2017 H 0.70204 0.18185 0.35393 0.0
H2018 H 0.7167 0.16108 0.34855 0.0
H2019 H 0.75415 0.15961 0.37568 0.0
H2020 H 0.78995 0.14604 0.3148 0.0
H2021 H 0.77587 0.15143 0.33598 0.0
C2022 C 0.31084 0.21821 0.85295 0.0
C2023 C 0.31034 0.21336 0.86717 0.0
C2024 C 0.32114 0.22806 0.84865 0.0
C2025 C 0.35591 0.24361 0.85502 0.0
H2026 H 0.33912 0.27582 0.83495 0.0
C2027 C 0.38503 0.27824 0.81285 0.0
C2028 C 0.38007 0.29221 0.81059 0.0
C2029 C 0.37905 0.26982 0.82372 0.0
C2030 C 0.34408 0.26712 0.84078 0.0
H2031 H 0.32079 0.21446 0.88787 0.0
H2032 H 0.33907 0.2318 0.88018 0.0
H2033 H 0.32371 0.25823 0.84608 0.0
H2034 H 0.36608 0.30887 0.81839 0.0
H2035 H 0.35612 0.29451 0.83778 0.0
H2036 H 0.37636 0.25237 0.84924 0.0
C2037 C 0.33133 0.22793 0.87248 0.0
C2038 C 0.33519 0.25694 0.84703 0.0
C2039 C 0.32088 0.21805 0.87685 0.0
C2040 C 0.37006 0.29811 0.82004 0.0
C2041 C 0.36429 0.28983 0.83103 0.0
C2042 C 0.36488 0.25384 0.84866 0.0
C2043 C 0.33125 0.23328 0.85842 0.0
C2044 C 0.34098 0.2449 0.85384 0.0
C2045 C 0.36809 0.27533 0.83247 0.0
C2046 C 0.35903 0.26556 0.8412 0.0
H2047 H 0.30301 0.21472 0.84515 0.0
H2048 H 0.32101 0.23183 0.83769 0.0
H2049 H 0.3606 0.23439 0.86023 0.0
H2050 H 0.39261 0.27346 0.8055 0.0
H2051 H 0.38217 0.25869 0.82446 0.0
C2052 C 0.28623 0.81724 0.36286 0.0
C2053 C 0.285 0.8127 0.37711 0.0
C2054 C 0.27951 0.82968 0.35826 0.0
C2055 C 0.2478 0.85011 0.36334 0.0
H2056 H 0.26641 0.87508 0.33591 0.0
C2057 C 0.21643 0.88429 0.32173 0.0
C2058 C 0.22061 0.88014 0.30789 0.0
C2059 C 0.22483 0.88052 0.33361 0.0
C2060 C 0.26108 0.86839 0.34374 0.0
H2061 H 0.276 0.81771 0.39787 0.0
H2062 H 0.26361 0.8395 0.38959 0.0
H2063 H 0.28087 0.8599 0.35149 0.0
H2064 H 0.23708 0.86955 0.29549 0.0
H2065 H 0.25178 0.86332 0.31598 0.0
H2066 H 0.22796 0.85781 0.35474 0.0
C2067 C 0.27006 0.83345 0.38211 0.0
C2068 C 0.26934 0.85973 0.35264 0.0
C2069 C 0.27713 0.82105 0.38683 0.0
C2070 C 0.23357 0.87282 0.30604 0.0
C2071 C 0.24205 0.86936 0.31778 0.0
C2072 C 0.2395 0.8588 0.35439 0.0
C2073 C 0.27117 0.83781 0.36774 0.0
C2074 C 0.26277 0.84993 0.36194 0.0
C2075 C 0.23769 0.87294 0.3317 0.0
C2076 C 0.24609 0.8674 0.34396 0.0
H2077 H 0.29229 0.81104 0.35515 0.0
H2078 H 0.28037 0.83264 0.34708 0.0
H2079 H 0.24247 0.8426 0.37038 0.0
H2080 H 0.20643 0.8899 0.32341 0.0
H2081 H 0.22121 0.88333 0.34425 0.0
C2082 C 0.61487 0.71871 0.82078 0.0
C2083 C 0.62587 0.71112 0.8139 0.0
C2084 C 0.61791 0.72718 0.8328 0.0
C2085 C 0.64595 0.73492 0.86003 0.0
H2086 H 0.6366 0.77472 0.85315 0.0
C2087 C 0.67765 0.77996 0.8874 0.0
C2088 C 0.68388 0.78876 0.87694 0.0
C2089 C 0.66606 0.7711 0.88386 0.0
C2090 C 0.6391 0.76363 0.85541 0.0
H2091 H 0.64836 0.70556 0.81472 0.0
H2092 H 0.65361 0.72004 0.83562 0.0
H2093 H 0.62451 0.75607 0.83945 0.0
H2094 H 0.68229 0.79612 0.855 0.0
H2095 H 0.66212 0.78095 0.84891 0.0
H2096 H 0.66136 0.74252 0.87516 0.0
C2097 C 0.64267 0.71958 0.83183 0.0
C2098 C 0.63209 0.75294 0.84764 0.0
C2099 C 0.63969 0.71138 0.81975 0.0
C2100 C 0.67774 0.78936 0.86325 0.0
C2101 C 0.66608 0.78075 0.8598 0.0
C2102 C 0.65291 0.7456 0.86784 0.0
C2103 C 0.63193 0.72789 0.83827 0.0
C2104 C 0.63603 0.73853 0.84932 0.0
C2105 C 0.66039 0.77118 0.8699 0.0
C2106 C 0.65012 0.76009 0.86503 0.0
H2107 H 0.60412 0.71869 0.81646 0.0
H2108 H 0.60944 0.73349 0.83756 0.0
H2109 H 0.64906 0.72387 0.86167 0.0
H2110 H 0.68222 0.77931 0.89803 0.0
H2111 H 0.66187 0.76383 0.89185 0.0
C2112 C 0.11663 0.23818 0.23049 0.0
C2113 C 0.11344 0.23645 0.21591 0.0
C2114 C 0.11995 0.22633 0.23901 0.0
C2115 C 0.12142 0.18606 0.23865 0.0
H2116 H 0.1522 0.19236 0.26568 0.0
C2117 C 0.17164 0.15325 0.26458 0.0
C2118 C 0.1654 0.13969 0.26622 0.0
C2119 C 0.16326 0.16512 0.26117 0.0
C2120 C 0.14368 0.19035 0.2581 0.0
H2121 H 0.11078 0.2209 0.19892 0.0
H2122 H 0.11724 0.20041 0.21343 0.0
H2123 H 0.14113 0.21263 0.25405 0.0
H2124 H 0.14532 0.12809 0.26637 0.0
H2125 H 0.13056 0.14895 0.26102 0.0
H2126 H 0.12486 0.16371 0.24178 0.0
C2127 C 0.11673 0.21078 0.21856 0.0
C2128 C 0.13708 0.20207 0.25158 0.0
C2129 C 0.11311 0.22258 0.21015 0.0
C2130 C 0.15047 0.13839 0.26506 0.0
C2131 C 0.14202 0.15035 0.26188 0.0
C2132 C 0.12823 0.17432 0.24494 0.0
C2133 C 0.12049 0.21249 0.23306 0.0
C2134 C 0.1261 0.2001 0.24147 0.0
C2135 C 0.14834 0.16383 0.25956 0.0
C2136 C 0.13973 0.17629 0.25446 0.0
H2137 H 0.11681 0.24874 0.23527 0.0
H2138 H 0.12239 0.2281 0.25019 0.0
H2139 H 0.11275 0.18407 0.23124 0.0
H2140 H 0.18312 0.15464 0.2653 0.0
H2141 H 0.16865 0.17518 0.25921 0.0
C2142 C 0.34849 0.65223 0.76929 0.0
C2143 C 0.36301 0.64935 0.76674 0.0
C2144 C 0.33798 0.64244 0.76528 0.0
C2145 C 0.3167 0.61928 0.75934 0.0
H2146 H 0.32276 0.60088 0.7227 0.0
C2147 C 0.26883 0.59597 0.72924 0.0
C2148 C 0.26853 0.59879 0.7145 0.0
C2149 C 0.28156 0.59738 0.73698 0.0
C2150 C 0.32081 0.606 0.7329 0.0
H2151 H 0.37795 0.63343 0.75889 0.0
H2152 H 0.35958 0.61604 0.75237 0.0
H2153 H 0.34252 0.61295 0.73437 0.0
H2154 H 0.2814 0.60458 0.69612 0.0
H2155 H 0.30331 0.60785 0.70957 0.0
H2156 H 0.29475 0.61363 0.75729 0.0
C2157 C 0.35628 0.62611 0.75704 0.0
C2158 C 0.33228 0.61273 0.73976 0.0
C2159 C 0.36683 0.63603 0.76088 0.0
C2160 C 0.28133 0.60226 0.70748 0.0
C2161 C 0.29397 0.60405 0.71525 0.0
C2162 C 0.30518 0.61285 0.75233 0.0
C2163 C 0.34168 0.62935 0.75882 0.0
C2164 C 0.33026 0.61993 0.75284 0.0
C2165 C 0.29418 0.60209 0.73021 0.0
C2166 C 0.30694 0.60654 0.73877 0.0
H2167 H 0.34513 0.66239 0.77374 0.0
H2168 H 0.3269 0.64555 0.76662 0.0
H2169 H 0.31479 0.62429 0.7696 0.0
H2170 H 0.25913 0.59309 0.73489 0.0
H2171 H 0.28133 0.5953 0.74837 0.0
C2172 C 0.85152 0.85599 0.27485 0.0
C2173 C 0.8506 0.86799 0.26587 0.0
C2174 C 0.86034 0.84449 0.27125 0.0
C2175 C 0.88807 0.83168 0.24538 0.0
H2176 H 0.8674 0.79596 0.24941 0.0
C2177 C 0.89741 0.78167 0.21004 0.0
C2178 C 0.89508 0.76812 0.21613 0.0
C2179 C 0.8953 0.79409 0.21814 0.0
C2180 C 0.87352 0.80575 0.24844 0.0
H2181 H 0.859 0.87782 0.2466 0.0
H2182 H 0.87408 0.8576 0.24008 0.0
H2183 H 0.85793 0.81745 0.26025 0.0
H2184 H 0.88993 0.75694 0.23582 0.0
H2185 H 0.8865 0.77853 0.24995 0.0
H2186 H 0.90336 0.81988 0.23297 0.0
C2187 C 0.86818 0.85711 0.25004 0.0
C2188 C 0.86807 0.81813 0.2547 0.0
C2189 C 0.85948 0.86871 0.25375 0.0
C2190 C 0.8916 0.76722 0.23073 0.0
C2191 C 0.88958 0.7796 0.23883 0.0
C2192 C 0.89351 0.81924 0.23904 0.0
C2193 C 0.86827 0.84464 0.25846 0.0
C2194 C 0.87515 0.83131 0.2531 0.0
C2195 C 0.8909 0.79317 0.2325 0.0
C2196 C 0.88617 0.80617 0.24035 0.0
H2197 H 0.84495 0.85521 0.28438 0.0
H2198 H 0.86046 0.83521 0.27819 0.0
H2199 H 0.89387 0.84162 0.24405 0.0
H2200 H 0.90013 0.78274 0.19882 0.0
H2201 H 0.89633 0.80437 0.2129 0.0
C2202 C 0.65192 0.34391 0.76595 0.0
C2203 C 0.63752 0.34797 0.76459 0.0
C2204 C 0.66286 0.35343 0.76252 0.0
C2205 C 0.68524 0.37598 0.7587 0.0
H2206 H 0.67933 0.3988 0.72461 0.0
C2207 C 0.73352 0.40039 0.73018 0.0
C2208 C 0.73338 0.39918 0.71521 0.0
C2209 C 0.72091 0.39867 0.73804 0.0
C2210 C 0.68122 0.39244 0.73411 0.0
H2211 H 0.62333 0.36556 0.75935 0.0
H2212 H 0.64251 0.38242 0.75379 0.0
H2213 H 0.6592 0.3865 0.73544 0.0
H2214 H 0.71987 0.39597 0.69666 0.0
H2215 H 0.69812 0.3922 0.71024 0.0
H2216 H 0.70742 0.38072 0.75667 0.0
C2217 C 0.64533 0.37169 0.75713 0.0
C2218 C 0.66957 0.38555 0.74049 0.0
C2219 C 0.63433 0.36206 0.7604 0.0
C2220 C 0.72029 0.39702 0.70819 0.0
C2221 C 0.70775 0.39495 0.71605 0.0
C2222 C 0.69692 0.38258 0.75215 0.0
C2223 C 0.65975 0.36739 0.75783 0.0
C2224 C 0.67152 0.3768 0.75259 0.0
C2225 C 0.70794 0.39529 0.73112 0.0
C2226 C 0.69517 0.39052 0.73947 0.0
H2227 H 0.6548 0.33313 0.76909 0.0
H2228 H 0.67376 0.34954 0.76294 0.0
H2229 H 0.68712 0.36969 0.76825 0.0
H2230 H 0.74345 0.40225 0.73586 0.0
H2231 H 0.72146 0.39949 0.74958 0.0
C2232 C 0.09462 0.782 0.79133 0.0
C2233 C 0.0997 0.7693 0.78508 0.0
C2234 C 0.09594 0.79506 0.78412 0.0
C2235 C 0.10582 0.81148 0.74896 0.0
H2236 H 0.12279 0.84076 0.77292 0.0
C2237 C 0.14657 0.85276 0.72894 0.0
C2238 C 0.1471 0.86636 0.73534 0.0
C2239 C 0.13656 0.84263 0.73346 0.0
C2240 C 0.11777 0.83288 0.76608 0.0
H2241 H 0.10924 0.76024 0.76594 0.0
H2242 H 0.11179 0.78289 0.75357 0.0
H2243 H 0.11253 0.8196 0.78391 0.0
H2244 H 0.13681 0.88033 0.75077 0.0
H2245 H 0.11934 0.8626 0.75865 0.0
H2246 H 0.11183 0.82452 0.73107 0.0
C2247 C 0.10664 0.78284 0.76395 0.0
C2248 C 0.11185 0.82071 0.77239 0.0
C2249 C 0.10528 0.76981 0.77112 0.0
C2250 C 0.13677 0.86992 0.74568 0.0
C2251 C 0.12679 0.85975 0.75025 0.0
C2252 C 0.11181 0.82364 0.74263 0.0
C2253 C 0.10239 0.79568 0.77053 0.0
C2254 C 0.10621 0.80964 0.7639 0.0
C2255 C 0.12689 0.84585 0.74451 0.0
C2256 C 0.11824 0.83426 0.75111 0.0
H2257 H 0.09014 0.78197 0.80202 0.0
H2258 H 0.09234 0.80472 0.78939 0.0
H2259 H 0.10132 0.80329 0.74211 0.0
H2260 H 0.15431 0.84968 0.72088 0.0
H2261 H 0.13701 0.83199 0.72889 0.0
C2262 C 0.64027 0.64222 0.24031 0.0
C2263 C 0.64102 0.65401 0.23101 0.0
C2264 C 0.65256 0.63434 0.24358 0.0
C2265 C 0.69136 0.64002 0.24539 0.0
H2266 H 0.69207 0.60006 0.25648 0.0
C2267 C 0.74164 0.61568 0.27045 0.0
C2268 C 0.73928 0.60808 0.28322 0.0
C2269 C 0.73027 0.61891 0.26131 0.0
C2270 C 0.69203 0.61123 0.25341 0.0
H2271 H 0.65496 0.66595 0.21681 0.0
H2272 H 0.67628 0.65199 0.22221 0.0
H2273 H 0.67079 0.60991 0.24486 0.0
H2274 H 0.72322 0.59716 0.29594 0.0
H2275 H 0.70335 0.60296 0.28008 0.0
H2276 H 0.71236 0.64152 0.25425 0.0
C2277 C 0.66631 0.6491 0.22734 0.0
C2278 C 0.67984 0.61688 0.24677 0.0
C2279 C 0.65406 0.65705 0.22418 0.0
C2280 C 0.72541 0.60307 0.28622 0.0
C2281 C 0.71402 0.60632 0.27708 0.0
C2282 C 0.70351 0.63439 0.25196 0.0
C2283 C 0.66583 0.63802 0.23751 0.0
C2284 C 0.67928 0.63142 0.24292 0.0
C2285 C 0.71626 0.61463 0.26474 0.0
C2286 C 0.70391 0.62 0.25629 0.0
H2287 H 0.63038 0.63958 0.24575 0.0
H2288 H 0.65179 0.62595 0.25152 0.0
H2289 H 0.69124 0.65133 0.24287 0.0
H2290 H 0.75221 0.61957 0.26772 0.0
H2291 H 0.73238 0.62511 0.25176 0.0
C2292 C 0.8997 0.21861 0.79403 0.0
C2293 C 0.90199 0.23179 0.78723 0.0
C2294 C 0.89778 0.20618 0.78596 0.0
C2295 C 0.89562 0.1799 0.76751 0.0
H2296 H 0.87385 0.18624 0.73281 0.0
C2297 C 0.86576 0.13335 0.74027 0.0
C2298 C 0.85179 0.13661 0.73576 0.0
C2299 C 0.87539 0.1443 0.7437 0.0
C2300 C 0.87985 0.18423 0.74251 0.0
H2301 H 0.90545 0.24215 0.7668 0.0
H2302 H 0.90302 0.22035 0.75272 0.0
H2303 H 0.88455 0.20637 0.74495 0.0
H2304 H 0.83719 0.15394 0.73074 0.0
H2305 H 0.85358 0.17284 0.73718 0.0
H2306 H 0.88969 0.15792 0.76577 0.0
C2307 C 0.90196 0.21963 0.76423 0.0
C2308 C 0.88628 0.19582 0.74939 0.0
C2309 C 0.9035 0.23213 0.77229 0.0
C2310 C 0.84788 0.15102 0.73413 0.0
C2311 C 0.85739 0.16192 0.73774 0.0
C2312 C 0.8889 0.16834 0.76079 0.0
C2313 C 0.89844 0.20658 0.77089 0.0
C2314 C 0.89386 0.19391 0.76227 0.0
C2315 C 0.87119 0.15874 0.74287 0.0
C2316 C 0.88049 0.17044 0.74848 0.0
H2317 H 0.89841 0.21804 0.80553 0.0
H2318 H 0.89491 0.19647 0.79158 0.0
H2319 H 0.90172 0.17788 0.77714 0.0
H2320 H 0.86915 0.12234 0.74152 0.0
H2321 H 0.88601 0.14142 0.74733 0.0
C2322 C 0.34833 0.34478 0.22532 0.0
C2323 C 0.36123 0.34611 0.23295 0.0
C2324 C 0.33632 0.35271 0.22928 0.0
C2325 C 0.32307 0.38232 0.25235 0.0
H2326 H 0.2902 0.35741 0.25681 0.0
C2327 C 0.27651 0.39428 0.29122 0.0
C2328 C 0.26271 0.38937 0.28777 0.0
C2329 C 0.28811 0.39125 0.28229 0.0
C2330 C 0.29912 0.36466 0.25538 0.0
H2331 H 0.37192 0.35771 0.24998 0.0
H2332 H 0.35089 0.37144 0.25699 0.0
H2333 H 0.31138 0.34861 0.24473 0.0
H2334 H 0.25016 0.3782 0.27176 0.0
H2335 H 0.27032 0.37321 0.25603 0.0
H2336 H 0.31081 0.39828 0.26334 0.0
C2337 C 0.35009 0.36431 0.24789 0.0
C2338 C 0.31131 0.35959 0.24843 0.0
C2339 C 0.36215 0.3564 0.24389 0.0
C2340 C 0.26067 0.38199 0.27483 0.0
C2341 C 0.27225 0.37907 0.26584 0.0
C2342 C 0.3108 0.38744 0.25926 0.0
C2343 C 0.33689 0.36212 0.241 0.0
C2344 C 0.32351 0.36827 0.24701 0.0
C2345 C 0.28619 0.38333 0.26963 0.0
C2346 C 0.29875 0.37857 0.26107 0.0
H2347 H 0.3473 0.33709 0.21671 0.0
H2348 H 0.32639 0.35102 0.22355 0.0
H2349 H 0.33225 0.3893 0.25131 0.0
H2350 H 0.27846 0.4 0.30111 0.0
H2351 H 0.29869 0.39458 0.28565 0.0
C2352 C 0.27325 0.1454 0.14838 0.0
C2353 C 0.26692 0.14596 0.13474 0.0
C2354 C 0.26873 0.13531 0.15844 0.0
C2355 C 0.2361 0.11648 0.16793 0.0
H2356 H 0.25984 0.10002 0.19769 0.0
C2357 C 0.21051 0.09377 0.21884 0.0
C2358 C 0.21675 0.09889 0.23153 0.0
C2359 C 0.21776 0.09494 0.2058 0.0
C2360 C 0.25306 0.10453 0.18945 0.0
H2361 H 0.25166 0.13562 0.12062 0.0
H2362 H 0.24377 0.11802 0.13822 0.0
H2363 H 0.27103 0.11048 0.17651 0.0
H2364 H 0.23594 0.10834 0.24059 0.0
H2365 H 0.24839 0.11064 0.21796 0.0
H2366 H 0.21818 0.11133 0.18111 0.0
C2367 C 0.25212 0.12551 0.14116 0.0
C2368 C 0.25947 0.11049 0.17731 0.0
C2369 C 0.25669 0.13556 0.13106 0.0
C2370 C 0.23076 0.10435 0.23102 0.0
C2371 C 0.23797 0.10556 0.21801 0.0
C2372 C 0.2297 0.1106 0.18007 0.0
C2373 C 0.25775 0.12559 0.1551 0.0
C2374 C 0.25107 0.11693 0.16663 0.0
C2375 C 0.23141 0.10128 0.20517 0.0
C2376 C 0.23811 0.10498 0.19121 0.0
H2377 H 0.28122 0.15319 0.15155 0.0
H2378 H 0.27322 0.13575 0.16911 0.0
H2379 H 0.22932 0.12151 0.15999 0.0
H2380 H 0.19978 0.08938 0.21887 0.0
H2381 H 0.21249 0.09131 0.19614 0.0
C2382 C 0.35578 0.75936 0.63945 0.0
C2383 C 0.34541 0.7702 0.64058 0.0
C2384 C 0.36385 0.75531 0.65139 0.0
C2385 C 0.35936 0.75445 0.69021 0.0
H2386 H 0.39772 0.7387 0.69012 0.0
C2387 C 0.38154 0.72668 0.74016 0.0
C2388 C 0.3884 0.71351 0.7378 0.0
C2389 C 0.37884 0.73597 0.72877 0.0
C2390 C 0.38697 0.74303 0.6903 0.0
H2391 H 0.33645 0.78628 0.65472 0.0
H2392 H 0.35069 0.77941 0.67542 0.0
H2393 H 0.38883 0.7513 0.66897 0.0
H2394 H 0.39836 0.70007 0.72171 0.0
H2395 H 0.39333 0.71611 0.70181 0.0
H2396 H 0.35718 0.74577 0.71121 0.0
C2397 C 0.35231 0.77376 0.66543 0.0
C2398 C 0.3819 0.75027 0.6782 0.0
C2399 C 0.3442 0.77775 0.65353 0.0
C2400 C 0.39304 0.71013 0.7239 0.0
C2401 C 0.39024 0.71938 0.71248 0.0
C2402 C 0.36439 0.7472 0.70225 0.0
C2403 C 0.36175 0.76207 0.66467 0.0
C2404 C 0.36795 0.75588 0.67795 0.0
C2405 C 0.38281 0.73228 0.71473 0.0
C2406 C 0.37817 0.7412 0.70238 0.0
H2407 H 0.35701 0.75334 0.62962 0.0
H2408 H 0.37099 0.74625 0.65044 0.0
H2409 H 0.34844 0.75834 0.69031 0.0
H2410 H 0.37799 0.7297 0.75077 0.0
H2411 H 0.37336 0.74595 0.73094 0.0
C2412 C 0.77303 0.88493 0.2395 0.0
C2413 C 0.78596 0.89222 0.23712 0.0
C2414 C 0.7638 0.88194 0.22813 0.0
C2415 C 0.75669 0.8897 0.1895 0.0
H2416 H 0.74157 0.8511 0.18999 0.0
C2417 C 0.74041 0.85741 0.13918 0.0
C2418 C 0.72923 0.84742 0.14049 0.0
C2419 C 0.74463 0.86564 0.15096 0.0
C2420 C 0.74544 0.86202 0.18976 0.0
H2421 H 0.79905 0.90259 0.221 0.0
H2422 H 0.78319 0.89699 0.20112 0.0
H2423 H 0.7541 0.86016 0.21079 0.0
H2424 H 0.7128 0.83932 0.15476 0.0
H2425 H 0.72007 0.85376 0.17517 0.0
H2426 H 0.74849 0.89119 0.16809 0.0
C2427 C 0.78 0.89382 0.2118 0.0
C2428 C 0.75264 0.86725 0.20174 0.0
C2429 C 0.78916 0.89696 0.2232 0.0
C2430 C 0.72159 0.84676 0.15343 0.0
C2431 C 0.72579 0.85499 0.16516 0.0
C2432 C 0.74954 0.88441 0.17743 0.0
C2433 C 0.76735 0.88599 0.21406 0.0
C2434 C 0.75853 0.88109 0.20172 0.0
C2435 C 0.73773 0.86406 0.16424 0.0
C2436 C 0.74399 0.87044 0.17739 0.0
H2437 H 0.77015 0.88129 0.25012 0.0
H2438 H 0.75399 0.87618 0.23033 0.0
H2439 H 0.7609 0.90049 0.18918 0.0
H2440 H 0.7465 0.85822 0.12936 0.0
H2441 H 0.75389 0.87252 0.1499 0.0
C2442 C 0.59796 0.29386 0.71934 0.0
C2443 C 0.60441 0.28907 0.73207 0.0
C2444 C 0.59911 0.28584 0.70675 0.0
C2445 C 0.60962 0.25031 0.69221 0.0
H2446 H 0.62386 0.27256 0.66025 0.0
C2447 C 0.6474 0.22776 0.64961 0.0
C2448 C 0.64778 0.23392 0.63588 0.0
C2449 C 0.63777 0.23272 0.65989 0.0
C2450 C 0.61955 0.26615 0.66888 0.0
H2451 H 0.6164 0.27169 0.74172 0.0
H2452 H 0.61848 0.25782 0.7198 0.0
H2453 H 0.61479 0.28473 0.6813 0.0
H2454 H 0.63735 0.24913 0.62179 0.0
H2455 H 0.62036 0.2576 0.63969 0.0
H2456 H 0.61488 0.2317 0.67993 0.0
C2457 C 0.61246 0.26771 0.71954 0.0
C2458 C 0.61436 0.27316 0.681 0.0
C2459 C 0.61137 0.27574 0.7321 0.0
C2460 C 0.63746 0.24427 0.63231 0.0
C2461 C 0.62778 0.24919 0.6426 0.0
C2462 C 0.61475 0.24328 0.68004 0.0
C2463 C 0.60666 0.27283 0.70665 0.0
C2464 C 0.60977 0.26533 0.69298 0.0
C2465 C 0.62822 0.24389 0.65669 0.0
C2466 C 0.62023 0.25112 0.66841 0.0
H2467 H 0.59243 0.30403 0.71895 0.0
H2468 H 0.59439 0.28999 0.69702 0.0
H2469 H 0.60592 0.24399 0.70119 0.0
H2470 H 0.65512 0.2197 0.65272 0.0
H2471 H 0.63852 0.22843 0.67063 0.0
C2472 C 0.21182 0.89357 0.77506 0.0
C2473 C 0.21397 0.88768 0.76138 0.0
C2474 C 0.2211 0.89026 0.78631 0.0
C2475 C 0.24586 0.86165 0.79722 0.0
H2476 H 0.25444 0.88726 0.82872 0.0
C2477 C 0.27664 0.841 0.84565 0.0
C2478 C 0.27004 0.84378 0.85887 0.0
C2479 C 0.2728 0.84873 0.83346 0.0
C2480 C 0.25213 0.88 0.81999 0.0
H2481 H 0.22811 0.87446 0.74859 0.0
H2482 H 0.24447 0.86896 0.76811 0.0
H2483 H 0.24204 0.89642 0.80756 0.0
H2484 H 0.25508 0.8577 0.86988 0.0
H2485 H 0.24825 0.87108 0.84856 0.0
H2486 H 0.25557 0.84517 0.80968 0.0
C2487 C 0.23538 0.87582 0.77025 0.0
C2488 C 0.24501 0.88523 0.80788 0.0
C2489 C 0.22603 0.87902 0.75904 0.0
C2490 C 0.26035 0.85525 0.85986 0.0
C2491 C 0.25646 0.86297 0.84763 0.0
C2492 C 0.253 0.85646 0.80925 0.0
C2493 C 0.23282 0.88107 0.78413 0.0
C2494 C 0.24159 0.87605 0.79644 0.0
C2495 C 0.26222 0.85939 0.83419 0.0
C2496 C 0.25605 0.86551 0.82087 0.0
H2497 H 0.20263 0.90029 0.77723 0.0
H2498 H 0.2187 0.8944 0.79687 0.0
H2499 H 0.24316 0.85418 0.78878 0.0
H2500 H 0.28429 0.83236 0.84454 0.0
H2501 H 0.27768 0.84594 0.82332 0.0
C2502 C 0.60915 0.72637 0.26416 0.0
C2503 C 0.60889 0.71143 0.26557 0.0
C2504 C 0.61119 0.73508 0.27617 0.0
C2505 C 0.61488 0.73376 0.31642 0.0
H2506 H 0.63823 0.7673 0.30975 0.0
C2507 C 0.66131 0.76797 0.34682 0.0
C2508 C 0.65653 0.76691 0.36103 0.0
C2509 C 0.65252 0.76388 0.3355 0.0
C2510 C 0.63182 0.75789 0.31187 0.0
H2511 H 0.61028 0.69386 0.2806 0.0
H2512 H 0.61478 0.70881 0.30129 0.0
H2513 H 0.62865 0.75432 0.28961 0.0
H2514 H 0.63836 0.76163 0.37443 0.0
H2515 H 0.62268 0.75511 0.35458 0.0
H2516 H 0.61929 0.73653 0.33864 0.0
C2517 C 0.61279 0.71403 0.29115 0.0
C2518 C 0.62602 0.75055 0.30023 0.0
C2519 C 0.61033 0.70537 0.27922 0.0
C2520 C 0.6424 0.76246 0.3636 0.0
C2521 C 0.63346 0.7586 0.3522 0.0
C2522 C 0.62103 0.74088 0.32805 0.0
C2523 C 0.61349 0.72903 0.2898 0.0
C2524 C 0.61781 0.73809 0.30228 0.0
C2525 C 0.63854 0.75886 0.33799 0.0
C2526 C 0.62999 0.75278 0.32592 0.0
H2527 H 0.60789 0.73132 0.25376 0.0
H2528 H 0.61122 0.74656 0.27465 0.0
H2529 H 0.60821 0.72454 0.31856 0.0
H2530 H 0.67215 0.77128 0.34442 0.0
H2531 H 0.65705 0.76399 0.32485 0.0
C2532 C 0.777 0.10937 0.76565 0.0
C2533 C 0.79128 0.1052 0.76783 0.0
C2534 C 0.76786 0.11148 0.77726 0.0
C2535 C 0.76387 0.10676 0.81669 0.0
H2536 H 0.74292 0.14239 0.8134 0.0
C2537 C 0.74511 0.14094 0.86468 0.0
C2538 C 0.73301 0.14971 0.86294 0.0
C2539 C 0.7497 0.13208 0.85353 0.0
C2540 C 0.74839 0.13224 0.81446 0.0
H2541 H 0.80693 0.09919 0.78386 0.0
H2542 H 0.79106 0.10327 0.8042 0.0
H2543 H 0.75581 0.13326 0.79292 0.0
H2544 H 0.71535 0.15486 0.84878 0.0
H2545 H 0.72316 0.13915 0.82952 0.0
H2546 H 0.75679 0.10615 0.83853 0.0
C2547 C 0.78686 0.10469 0.7935 0.0
C2548 C 0.75583 0.12698 0.80266 0.0
C2549 C 0.79599 0.10243 0.78184 0.0
C2550 C 0.72485 0.14841 0.85038 0.0
C2551 C 0.72937 0.13946 0.8393 0.0
C2552 C 0.7564 0.11206 0.82856 0.0
C2553 C 0.7728 0.10966 0.79135 0.0
C2554 C 0.76383 0.11429 0.80365 0.0
C2555 C 0.74222 0.13173 0.84047 0.0
C2556 C 0.74874 0.12498 0.82762 0.0
H2557 H 0.77297 0.11138 0.75497 0.0
H2558 H 0.757 0.11497 0.77519 0.0
H2559 H 0.7698 0.09687 0.81777 0.0
H2560 H 0.75162 0.14166 0.87424 0.0
H2561 H 0.75966 0.1263 0.8548 0.0
C2562 C 0.39296 0.28736 0.27698 0.0
C2563 C 0.38788 0.28409 0.26319 0.0
C2564 C 0.3893 0.27875 0.28866 0.0
C2565 C 0.36036 0.25479 0.29979 0.0
H2566 H 0.38448 0.24775 0.33281 0.0
C2567 C 0.33728 0.2271 0.34918 0.0
C2568 C 0.34033 0.23372 0.36233 0.0
C2569 C 0.34519 0.23046 0.33696 0.0
C2570 C 0.3776 0.24967 0.32368 0.0
H2571 H 0.37584 0.26863 0.25073 0.0
H2572 H 0.36965 0.25356 0.27105 0.0
H2573 H 0.3947 0.25882 0.3114 0.0
H2574 H 0.35468 0.24842 0.37313 0.0
H2575 H 0.36827 0.25454 0.35176 0.0
H2576 H 0.34318 0.24618 0.31207 0.0
C2577 C 0.37619 0.26295 0.27289 0.0
C2578 C 0.38346 0.25599 0.31142 0.0
C2579 C 0.37979 0.27157 0.26123 0.0
C2580 C 0.35204 0.24313 0.36317 0.0
C2581 C 0.35989 0.24659 0.3509 0.0
C2582 C 0.35452 0.24852 0.312 0.0
C2583 C 0.38053 0.26667 0.2868 0.0
C2584 C 0.37485 0.25878 0.29939 0.0
C2585 C 0.35626 0.24064 0.33756 0.0
C2586 C 0.363 0.24603 0.32417 0.0
H2587 H 0.39924 0.29691 0.27887 0.0
H2588 H 0.39275 0.28198 0.29924 0.0
H2589 H 0.35334 0.25704 0.29085 0.0
H2590 H 0.32845 0.21966 0.3482 0.0
H2591 H 0.34233 0.22542 0.32693 0.0
C2592 C 0.22652 0.21086 0.10858 0.0
C2593 C 0.24016 0.21299 0.11454 0.0
C2594 C 0.21529 0.22022 0.11174 0.0
C2595 C 0.20424 0.24535 0.13996 0.0
H2596 H 0.17311 0.25376 0.11384 0.0
C2597 C 0.15561 0.27629 0.15974 0.0
C2598 C 0.14246 0.26955 0.15693 0.0
C2599 C 0.16788 0.27246 0.15213 0.0
C2600 C 0.18174 0.25151 0.12124 0.0
H2601 H 0.25292 0.22712 0.12782 0.0
H2602 H 0.23344 0.2436 0.13307 0.0
H2603 H 0.19434 0.24122 0.10509 0.0
H2604 H 0.13165 0.2544 0.14306 0.0
H2605 H 0.1531 0.2476 0.1299 0.0
H2606 H 0.19161 0.25528 0.15617 0.0
C2607 C 0.23131 0.23448 0.12625 0.0
C2608 C 0.19388 0.2443 0.11625 0.0
C2609 C 0.2425 0.22506 0.12319 0.0
C2610 C 0.14162 0.25977 0.14553 0.0
C2611 C 0.15392 0.25589 0.13794 0.0
C2612 C 0.19218 0.25259 0.14491 0.0
C2613 C 0.21748 0.23199 0.12085 0.0
C2614 C 0.20518 0.24092 0.12562 0.0
C2615 C 0.16729 0.26177 0.14158 0.0
C2616 C 0.18069 0.25557 0.13569 0.0
H2617 H 0.22435 0.20166 0.10187 0.0
H2618 H 0.20477 0.21785 0.10752 0.0
H2619 H 0.21256 0.24269 0.14757 0.0
H2620 H 0.1566 0.28402 0.16832 0.0
H2621 H 0.17796 0.27742 0.15496 0.0
C2622 C 0.22298 0.79071 0.88842 0.0
C2623 C 0.23682 0.78491 0.88813 0.0
C2624 C 0.21115 0.7823 0.88489 0.0
C2625 C 0.18638 0.76223 0.88036 0.0
H2626 H 0.19264 0.73492 0.84983 0.0
C2627 C 0.13867 0.7357 0.85148 0.0
C2628 C 0.13998 0.73446 0.83654 0.0
C2629 C 0.15063 0.7389 0.85992 0.0
C2630 C 0.19064 0.74258 0.85829 0.0
H2631 H 0.24907 0.76549 0.88494 0.0
H2632 H 0.22838 0.75058 0.87952 0.0
H2633 H 0.21293 0.7466 0.86082 0.0
H2634 H 0.15496 0.73523 0.81883 0.0
H2635 H 0.1755 0.74135 0.8333 0.0
H2636 H 0.16401 0.75912 0.87693 0.0
C2637 C 0.22664 0.76179 0.88185 0.0
C2638 C 0.20237 0.74912 0.86483 0.0
C2639 C 0.23852 0.7703 0.88508 0.0
C2640 C 0.15356 0.73602 0.83031 0.0
C2641 C 0.16543 0.73944 0.83869 0.0
C2642 C 0.17462 0.75591 0.8736 0.0
C2643 C 0.21282 0.76777 0.88126 0.0
C2644 C 0.20041 0.75934 0.87572 0.0
C2645 C 0.16412 0.74115 0.8536 0.0
C2646 C 0.17658 0.74628 0.86219 0.0
H2647 H 0.22133 0.80196 0.89064 0.0
H2648 H 0.20079 0.78745 0.88434 0.0
H2649 H 0.18439 0.76972 0.88896 0.0
H2650 H 0.12836 0.73445 0.85662 0.0
H2651 H 0.14922 0.73984 0.87138 0.0
C2652 C 0.72992 0.73767 0.38596 0.0
C2653 C 0.71622 0.73603 0.39192 0.0
C2654 C 0.73842 0.72574 0.38304 0.0
C2655 C 0.74216 0.68648 0.38869 0.0
H2656 H 0.75795 0.68768 0.35035 0.0
C2657 C 0.75676 0.63614 0.35575 0.0
C2658 C 0.76775 0.63717 0.34553 0.0
C2659 C 0.75292 0.64803 0.36399 0.0
C2660 C 0.75392 0.6872 0.36121 0.0
H2661 H 0.70105 0.72058 0.4003 0.0
H2662 H 0.71578 0.69973 0.39496 0.0
H2663 H 0.7468 0.70886 0.36024 0.0
H2664 H 0.78417 0.65108 0.33687 0.0
H2665 H 0.77775 0.67165 0.35149 0.0
H2666 H 0.74901 0.66459 0.38941 0.0
C2667 C 0.72003 0.71026 0.39268 0.0
C2668 C 0.74749 0.69939 0.36689 0.0
C2669 C 0.71155 0.72223 0.39568 0.0
C2670 C 0.77552 0.64999 0.3445 0.0
C2671 C 0.77178 0.66182 0.35283 0.0
C2672 C 0.74866 0.67423 0.38299 0.0
C2673 C 0.73338 0.71186 0.38592 0.0
C2674 C 0.74136 0.69916 0.38062 0.0
C2675 C 0.76007 0.66115 0.36227 0.0
C2676 C 0.75445 0.6744 0.36909 0.0
H2677 H 0.73394 0.74816 0.38311 0.0
H2678 H 0.74878 0.72736 0.37812 0.0
H2679 H 0.73766 0.68599 0.39936 0.0
H2680 H 0.75056 0.62641 0.35681 0.0
H2681 H 0.7438 0.64713 0.37109 0.0
C2682 C 0.77296 0.21528 0.89191 0.0
C2683 C 0.76079 0.21525 0.88307 0.0
C2684 C 0.7848 0.22377 0.88852 0.0
C2685 C 0.79719 0.2536 0.86508 0.0
H2686 H 0.83367 0.23404 0.86773 0.0
C2687 C 0.86142 0.26187 0.85139 0.0
C2688 C 0.86029 0.26667 0.83717 0.0
C2689 C 0.84919 0.25808 0.85912 0.0
C2690 C 0.82363 0.2398 0.86716 0.0
H2691 H 0.7513 0.22463 0.86407 0.0
H2692 H 0.77199 0.2392 0.85803 0.0
H2693 H 0.81236 0.2228 0.87745 0.0
H2694 H 0.84533 0.27209 0.82025 0.0
H2695 H 0.82406 0.2654 0.8337 0.0
H2696 H 0.80849 0.27038 0.85429 0.0
C2697 C 0.77235 0.23282 0.86769 0.0
C2698 C 0.81138 0.23334 0.87275 0.0
C2699 C 0.76049 0.22438 0.87111 0.0
C2700 C 0.84661 0.26838 0.83116 0.0
C2701 C 0.83438 0.26462 0.83891 0.0
C2702 C 0.80946 0.26004 0.85943 0.0
C2703 C 0.78477 0.23239 0.87618 0.0
C2704 C 0.79796 0.24004 0.87157 0.0
C2705 C 0.83556 0.25905 0.85283 0.0
C2706 C 0.82278 0.2531 0.8602 0.0
H2707 H 0.77351 0.20848 0.90128 0.0
H2708 H 0.79408 0.22338 0.89544 0.0
H2709 H 0.78706 0.25915 0.86419 0.0
H2710 H 0.87178 0.26051 0.85639 0.0
H2711 H 0.85043 0.25403 0.86991 0.0
C2712 C 0.28839 0.27988 0.40096 0.0
C2713 C 0.2833 0.26608 0.39784 0.0
C2714 C 0.27982 0.29188 0.39841 0.0
C2715 C 0.25083 0.30245 0.37434 0.0
H2716 H 0.25169 0.33802 0.39565 0.0
C2717 C 0.2238 0.35193 0.35124 0.0
C2718 C 0.23227 0.36435 0.35126 0.0
C2719 C 0.22726 0.34038 0.36007 0.0
C2720 C 0.25135 0.32816 0.38958 0.0
H2721 H 0.26478 0.25398 0.39078 0.0
H2722 H 0.2498 0.27486 0.38658 0.0
H2723 H 0.26302 0.31665 0.40565 0.0
H2724 H 0.25037 0.37479 0.36133 0.0
H2725 H 0.25663 0.35453 0.37645 0.0
H2726 H 0.23976 0.3139 0.35804 0.0
C2727 C 0.26054 0.27645 0.39063 0.0
C2728 C 0.25784 0.31593 0.39531 0.0
C2729 C 0.26912 0.26448 0.3931 0.0
C2730 C 0.24364 0.36537 0.36105 0.0
C2731 C 0.2472 0.35374 0.36978 0.0
C2732 C 0.24441 0.31462 0.36862 0.0
C2733 C 0.26596 0.29031 0.39276 0.0
C2734 C 0.25782 0.30298 0.38764 0.0
C2735 C 0.23937 0.34091 0.36898 0.0
C2736 C 0.24477 0.3277 0.37604 0.0
H2737 H 0.29926 0.28149 0.40465 0.0
H2738 H 0.28436 0.30241 0.40009 0.0
H2739 H 0.25087 0.29276 0.36799 0.0
H2740 H 0.21484 0.35088 0.34396 0.0
H2741 H 0.22077 0.3308 0.35946 0.0
C2742 C 0.75475 0.77141 0.12725 0.0
C2743 C 0.75703 0.7828 0.11769 0.0
C2744 C 0.76604 0.76241 0.13117 0.0
C2745 C 0.80335 0.75185 0.1222 0.0
H2746 H 0.80658 0.74644 0.1632 0.0
C2747 C 0.85668 0.73997 0.15098 0.0
C2748 C 0.85645 0.73201 0.16375 0.0
C2749 C 0.84396 0.74307 0.14374 0.0
C2750 C 0.80575 0.74753 0.15169 0.0
H2751 H 0.7728 0.79318 0.10417 0.0
H2752 H 0.79248 0.7776 0.11114 0.0
H2753 H 0.78525 0.75748 0.15338 0.0
H2754 H 0.84282 0.72007 0.17825 0.0
H2755 H 0.82071 0.72521 0.16544 0.0
H2756 H 0.8241 0.74221 0.12061 0.0
C2757 C 0.78195 0.77554 0.11552 0.0
C2758 C 0.79348 0.7539 0.14605 0.0
C2759 C 0.77067 0.78453 0.1116 0.0
C2760 C 0.84335 0.72639 0.16855 0.0
C2761 C 0.83066 0.72941 0.16125 0.0
C2762 C 0.81565 0.74542 0.12786 0.0
C2763 C 0.77985 0.7646 0.12562 0.0
C2764 C 0.79224 0.75637 0.13127 0.0
C2765 C 0.83075 0.7382 0.14904 0.0
C2766 C 0.8171 0.74343 0.14271 0.0
H2767 H 0.74436 0.76968 0.13206 0.0
H2768 H 0.76401 0.75393 0.1388 0.0
H2769 H 0.80263 0.75344 0.11075 0.0
H2770 H 0.86657 0.74446 0.14697 0.0
H2771 H 0.84444 0.74996 0.13443 0.0
C2772 C 0.76277 0.35724 0.65327 0.0
C2773 C 0.76934 0.35697 0.6668 0.0
C2774 C 0.7591 0.3445 0.64635 0.0
C2775 C 0.75009 0.30735 0.65549 0.0
H2776 H 0.74849 0.30241 0.61433 0.0
C2777 C 0.72563 0.25676 0.63079 0.0
C2778 C 0.71562 0.25915 0.61981 0.0
C2779 C 0.73475 0.26772 0.63527 0.0
C2780 C 0.74885 0.30365 0.62584 0.0
H2781 H 0.77824 0.3431 0.68314 0.0
H2782 H 0.77215 0.3209 0.67093 0.0
H2783 H 0.76039 0.32341 0.62439 0.0
H2784 H 0.70786 0.27475 0.60447 0.0
H2785 H 0.72366 0.2939 0.61241 0.0
H2786 H 0.73831 0.28783 0.65699 0.0
C2787 C 0.76945 0.33096 0.66584 0.0
C2788 C 0.75566 0.31568 0.63161 0.0
C2789 C 0.77303 0.34369 0.67281 0.0
C2790 C 0.71541 0.27255 0.61298 0.0
C2791 C 0.72454 0.28351 0.61747 0.0
C2792 C 0.74335 0.29534 0.64974 0.0
C2793 C 0.76202 0.3312 0.65276 0.0
C2794 C 0.75617 0.31778 0.64651 0.0
C2795 C 0.73408 0.28132 0.62889 0.0
C2796 C 0.74246 0.29345 0.63485 0.0
H2797 H 0.75978 0.36729 0.64833 0.0
H2798 H 0.7533 0.34512 0.63634 0.0
H2799 H 0.74999 0.30873 0.667 0.0
H2800 H 0.72619 0.24653 0.63621 0.0
H2801 H 0.74215 0.26562 0.64394 0.0
C2802 C 0.23148 0.64251 0.65306 0.0
C2803 C 0.23232 0.64263 0.66807 0.0
C2804 C 0.23468 0.65483 0.64517 0.0
C2805 C 0.24222 0.69408 0.64907 0.0
H2806 H 0.26449 0.68806 0.61463 0.0
C2807 C 0.28813 0.72506 0.61434 0.0
C2808 C 0.2833 0.7392 0.61591 0.0
C2809 C 0.2795 0.71359 0.6185 0.0
C2810 C 0.25838 0.68997 0.62428 0.0
H2811 H 0.23676 0.65588 0.68659 0.0
H2812 H 0.24286 0.67705 0.67296 0.0
H2813 H 0.25387 0.66772 0.62671 0.0
H2814 H 0.26528 0.75238 0.62214 0.0
H2815 H 0.24994 0.73237 0.62876 0.0
H2816 H 0.24769 0.71615 0.64733 0.0
C2817 C 0.23934 0.66766 0.66717 0.0
C2818 C 0.25204 0.67827 0.63111 0.0
C2819 C 0.23593 0.65544 0.67504 0.0
C2820 C 0.26935 0.7416 0.62096 0.0
C2821 C 0.2606 0.7301 0.62487 0.0
C2822 C 0.24878 0.70573 0.6424 0.0
C2823 C 0.239 0.66748 0.65211 0.0
C2824 C 0.24415 0.68011 0.6438 0.0
C2825 C 0.26571 0.71595 0.62409 0.0
C2826 C 0.25724 0.70381 0.63009 0.0
H2827 H 0.22861 0.63283 0.64738 0.0
H2828 H 0.23398 0.65433 0.63361 0.0
H2829 H 0.23595 0.69601 0.65861 0.0
H2830 H 0.29886 0.72286 0.61056 0.0
H2831 H 0.28398 0.70293 0.61793 0.0
C2832 C 0.85407 0.86355 0.73808 0.0
C2833 C 0.83971 0.86037 0.73494 0.0
C2834 C 0.8637 0.8526 0.74148 0.0
C2835 C 0.86743 0.81264 0.742 0.0
H2836 H 0.8932 0.82033 0.77354 0.0
C2837 C 0.89407 0.78004 0.79163 0.0
C2838 C 0.89601 0.76677 0.78489 0.0
C2839 C 0.8908 0.79221 0.78358 0.0
C2840 C 0.88602 0.81794 0.76478 0.0
H2841 H 0.8243 0.84318 0.73256 0.0
H2842 H 0.84078 0.82429 0.73898 0.0
H2843 H 0.87985 0.83986 0.76286 0.0
H2844 H 0.8974 0.75603 0.7644 0.0
H2845 H 0.89253 0.77738 0.75026 0.0
H2846 H 0.87255 0.79061 0.74469 0.0
C2847 C 0.84485 0.83512 0.73843 0.0
C2848 C 0.87851 0.82923 0.75846 0.0
C2849 C 0.83531 0.84601 0.73484 0.0
C2850 C 0.89577 0.76611 0.76988 0.0
C2851 C 0.89283 0.77834 0.7618 0.0
C2852 C 0.8747 0.80133 0.7485 0.0
C2853 C 0.85914 0.83825 0.74201 0.0
C2854 C 0.86878 0.82667 0.74726 0.0
C2855 C 0.8897 0.79144 0.76856 0.0
C2856 C 0.8838 0.80375 0.76025 0.0
H2857 H 0.85781 0.87451 0.73814 0.0
H2858 H 0.87467 0.85542 0.74391 0.0
H2859 H 0.86035 0.81026 0.73315 0.0
H2860 H 0.89411 0.78087 0.80319 0.0
H2861 H 0.88831 0.80197 0.78927 0.0
C2862 C 0.63683 0.35115 0.24311 0.0
C2863 C 0.6373 0.33936 0.23379 0.0
C2864 C 0.64933 0.35866 0.24649 0.0
C2865 C 0.6881 0.3523 0.2483 0.0
H2866 H 0.68978 0.39258 0.25807 0.0
C2867 C 0.73964 0.37681 0.27072 0.0
C2868 C 0.73792 0.38518 0.28311 0.0
C2869 C 0.72784 0.37324 0.26227 0.0
C2870 C 0.68946 0.38131 0.2554 0.0
H2871 H 0.65104 0.32695 0.2198 0.0
H2872 H 0.67272 0.34024 0.22541 0.0
H2873 H 0.66806 0.38276 0.24727 0.0
H2874 H 0.72253 0.39701 0.29584 0.0
H2875 H 0.70195 0.39061 0.2812 0.0
H2876 H 0.70928 0.35071 0.25671 0.0
C2877 C 0.66279 0.34343 0.23045 0.0
C2878 C 0.67702 0.37568 0.24923 0.0
C2879 C 0.65034 0.33586 0.22717 0.0
C2880 C 0.72424 0.39051 0.2864 0.0
C2881 C 0.71243 0.38691 0.27795 0.0
C2882 C 0.7005 0.35792 0.25442 0.0
C2883 C 0.66254 0.3546 0.24053 0.0
C2884 C 0.67613 0.36106 0.24578 0.0
C2885 C 0.71404 0.37792 0.266 0.0
C2886 C 0.70128 0.37244 0.25824 0.0
H2887 H 0.62696 0.35413 0.2484 0.0
H2888 H 0.64873 0.36714 0.25436 0.0
H2889 H 0.68773 0.34094 0.2461 0.0
H2890 H 0.75004 0.37264 0.26778 0.0
H2891 H 0.72948 0.36651 0.25298 0.0
C2892 C 0.13806 0.1323 0.7397 0.0
C2893 C 0.15218 0.13543 0.73556 0.0
C2894 C 0.12852 0.14332 0.74314 0.0
C2895 C 0.11469 0.16738 0.76 0.0
H2896 H 0.11906 0.20527 0.74383 0.0
C2897 C 0.10162 0.21819 0.79173 0.0
C2898 C 0.09911 0.2311 0.78448 0.0
C2899 C 0.10413 0.2056 0.78408 0.0
C2900 C 0.11735 0.19475 0.74833 0.0
H2901 H 0.16718 0.15262 0.73132 0.0
H2902 H 0.15087 0.17167 0.73773 0.0
H2903 H 0.13064 0.18515 0.73243 0.0
H2904 H 0.09581 0.24072 0.76365 0.0
H2905 H 0.09938 0.21862 0.75031 0.0
H2906 H 0.1011 0.17694 0.77571 0.0
C2907 C 0.14692 0.16079 0.738 0.0
C2908 C 0.12427 0.18318 0.7419 0.0
C2909 C 0.15637 0.14981 0.73441 0.0
C2910 C 0.09792 0.23094 0.76951 0.0
C2911 C 0.10011 0.21827 0.76186 0.0
C2912 C 0.10754 0.17892 0.76629 0.0
C2913 C 0.13293 0.15771 0.74265 0.0
C2914 C 0.12352 0.16944 0.74797 0.0
C2915 C 0.10391 0.20556 0.769 0.0
C2916 C 0.10922 0.19287 0.76088 0.0
H2917 H 0.13446 0.12132 0.74059 0.0
H2918 H 0.11777 0.14053 0.74641 0.0
H2919 H 0.11383 0.15699 0.76503 0.0
H2920 H 0.10266 0.218 0.80327 0.0
H2921 H 0.10715 0.19615 0.79004 0.0
C2922 C 0.36456 0.64676 0.24578 0.0
C2923 C 0.3636 0.65741 0.23521 0.0
C2924 C 0.35294 0.63779 0.24859 0.0
C2925 C 0.31367 0.63814 0.24488 0.0
H2926 H 0.31662 0.60021 0.26144 0.0
C2927 C 0.26384 0.61005 0.26585 0.0
C2928 C 0.26495 0.60555 0.28016 0.0
C2929 C 0.27609 0.61316 0.2579 0.0
C2930 C 0.31566 0.61078 0.25679 0.0
H2931 H 0.35018 0.66621 0.21848 0.0
H2932 H 0.33011 0.65021 0.22297 0.0
H2933 H 0.3379 0.61164 0.25134 0.0
H2934 H 0.27985 0.59963 0.29695 0.0
H2935 H 0.30127 0.60517 0.28306 0.0
H2936 H 0.29155 0.63742 0.2505 0.0
C2937 C 0.33962 0.64912 0.22949 0.0
C2938 C 0.32783 0.61736 0.25104 0.0
C2939 C 0.35116 0.65824 0.22684 0.0
C2940 C 0.27862 0.60314 0.28598 0.0
C2941 C 0.2909 0.60625 0.27799 0.0
C2942 C 0.30153 0.63153 0.25047 0.0
C2943 C 0.34015 0.63913 0.24076 0.0
C2944 C 0.32704 0.63126 0.24527 0.0
C2945 C 0.28972 0.61183 0.26407 0.0
C2946 C 0.30242 0.61789 0.25671 0.0
H2947 H 0.374 0.64585 0.25244 0.0
H2948 H 0.35375 0.63035 0.25744 0.0
H2949 H 0.31263 0.64895 0.24087 0.0
H2950 H 0.25349 0.61184 0.26096 0.0
H2951 H 0.27487 0.61718 0.2471 0.0
C2952 C 0.83692 0.1549 0.26684 0.0
C2953 C 0.8419 0.14074 0.26635 0.0
C2954 C 0.84568 0.1662 0.2626 0.0
C2955 C 0.87799 0.17338 0.24052 0.0
H2956 H 0.86941 0.21208 0.25255 0.0
C2957 C 0.89036 0.23695 0.2251 0.0
C2958 C 0.89166 0.23515 0.21025 0.0
C2959 C 0.88779 0.22517 0.23396 0.0
C2960 C 0.87231 0.20139 0.24919 0.0
H2961 H 0.86031 0.1274 0.26188 0.0
H2962 H 0.87595 0.14723 0.2552 0.0
H2963 H 0.8594 0.19222 0.26561 0.0
H2964 H 0.89153 0.21969 0.19301 0.0
H2965 H 0.88608 0.19938 0.20815 0.0
H2966 H 0.89156 0.18253 0.22462 0.0
C2967 C 0.86505 0.14959 0.25831 0.0
C2968 C 0.86625 0.1899 0.25656 0.0
C2969 C 0.85614 0.1382 0.26227 0.0
C2970 C 0.89069 0.22135 0.20446 0.0
C2971 C 0.88768 0.20965 0.21324 0.0
C2972 C 0.8844 0.18487 0.23342 0.0
C2973 C 0.85982 0.16373 0.25803 0.0
C2974 C 0.86845 0.17574 0.25194 0.0
C2975 C 0.88596 0.21137 0.22813 0.0
C2976 C 0.88117 0.19909 0.23723 0.0
H2977 H 0.82597 0.15725 0.26982 0.0
H2978 H 0.84101 0.17678 0.26228 0.0
H2979 H 0.88003 0.1627 0.23655 0.0
H2980 H 0.89123 0.24749 0.22984 0.0
H2981 H 0.887 0.22699 0.24537 0.0
C2982 C 0.26643 0.39391 0.72908 0.0
C2983 C 0.26758 0.39832 0.71475 0.0
C2984 C 0.27867 0.39158 0.73731 0.0
C2985 C 0.31826 0.3961 0.73858 0.0
H2986 H 0.3166 0.35937 0.75777 0.0
C2987 C 0.36793 0.36191 0.75226 0.0
C2988 C 0.36718 0.35247 0.76395 0.0
C2989 C 0.35626 0.37061 0.74879 0.0
C2990 C 0.31723 0.36981 0.75279 0.0
H2991 H 0.28248 0.40467 0.69812 0.0
H2992 H 0.30387 0.40034 0.71242 0.0
H2993 H 0.29517 0.36914 0.74705 0.0
H2994 H 0.35421 0.3458 0.78199 0.0
H2995 H 0.33406 0.36126 0.77621 0.0
H2996 H 0.34055 0.39645 0.74402 0.0
C2997 C 0.29349 0.39882 0.71735 0.0
C2998 C 0.30489 0.37543 0.7466 0.0
C2999 C 0.28122 0.40124 0.70912 0.0
C3000 C 0.35503 0.35279 0.77278 0.0
C3001 C 0.34344 0.3616 0.76942 0.0
C3002 C 0.33066 0.39047 0.74484 0.0
C3003 C 0.29236 0.39351 0.73139 0.0
C3004 C 0.30527 0.38852 0.73923 0.0
C3005 C 0.34366 0.37015 0.75703 0.0
C3006 C 0.33034 0.37713 0.75182 0.0
H3007 H 0.25607 0.39175 0.73382 0.0
H3008 H 0.27742 0.38779 0.7482 0.0
H3009 H 0.31887 0.40628 0.73309 0.0
H3010 H 0.37715 0.36192 0.74524 0.0
H3011 H 0.3568 0.377 0.73914 0.0
C3012 C 0.16184 0.84888 0.26626 0.0
C3013 C 0.15723 0.86317 0.2664 0.0
C3014 C 0.15243 0.83791 0.26253 0.0
C3015 C 0.11889 0.83217 0.24224 0.0
H3016 H 0.12536 0.79316 0.25462 0.0
C3017 C 0.10352 0.7839 0.2075 0.0
C3018 C 0.10162 0.77044 0.21386 0.0
C3019 C 0.10686 0.79582 0.21588 0.0
C3020 C 0.12308 0.80398 0.25119 0.0
H3021 H 0.13885 0.87707 0.2637 0.0
H3022 H 0.12225 0.85784 0.25773 0.0
H3023 H 0.13732 0.81256 0.26686 0.0
H3024 H 0.10041 0.7591 0.23404 0.0
H3025 H 0.1054 0.78001 0.24876 0.0
H3026 H 0.10434 0.82361 0.22682 0.0
C3027 C 0.13328 0.85514 0.26002 0.0
C3028 C 0.1302 0.81515 0.2581 0.0
C3029 C 0.14277 0.86616 0.26355 0.0
C3030 C 0.10201 0.76933 0.22884 0.0
C3031 C 0.10501 0.78132 0.23726 0.0
C3032 C 0.11155 0.82101 0.2355 0.0
C3033 C 0.13808 0.84089 0.25906 0.0
C3034 C 0.12864 0.82934 0.25337 0.0
C3035 C 0.10808 0.79461 0.23087 0.0
C3036 C 0.11393 0.8067 0.23953 0.0
H3037 H 0.17292 0.84619 0.26832 0.0
H3038 H 0.15667 0.82716 0.2617 0.0
H3039 H 0.11741 0.84292 0.23821 0.0
H3040 H 0.10337 0.78505 0.19596 0.0
H3041 H 0.1093 0.80576 0.21047 0.0
C3042 C 0.73548 0.60613 0.72801 0.0
C3043 C 0.73357 0.60204 0.71366 0.0
C3044 C 0.72369 0.60859 0.73683 0.0
C3045 C 0.68413 0.60521 0.73992 0.0
H3046 H 0.68773 0.64184 0.75901 0.0
C3047 C 0.63617 0.64083 0.75545 0.0
C3048 C 0.63771 0.65049 0.76687 0.0
C3049 C 0.6474 0.63168 0.7517 0.0
C3050 C 0.68657 0.63142 0.75409 0.0
H3051 H 0.71782 0.59634 0.69761 0.0
H3052 H 0.69718 0.60091 0.71296 0.0
H3053 H 0.70835 0.63148 0.74732 0.0
H3054 H 0.65159 0.65709 0.78424 0.0
H3055 H 0.67097 0.64083 0.77801 0.0
H3056 H 0.66213 0.60545 0.7464 0.0
C3057 C 0.70781 0.60207 0.71744 0.0
C3058 C 0.69844 0.62547 0.74733 0.0
C3059 C 0.71964 0.59951 0.70861 0.0
C3060 C 0.65017 0.64993 0.77524 0.0
C3061 C 0.66132 0.64066 0.77161 0.0
C3062 C 0.6722 0.61116 0.74676 0.0
C3063 C 0.70971 0.60713 0.73149 0.0
C3064 C 0.69734 0.61242 0.73995 0.0
C3065 C 0.66033 0.63191 0.7594 0.0
C3066 C 0.67323 0.62448 0.75372 0.0
H3067 H 0.74608 0.60796 0.73231 0.0
H3068 H 0.72552 0.61216 0.7477 0.0
H3069 H 0.68298 0.59507 0.73443 0.0
H3070 H 0.62669 0.64098 0.74879 0.0
H3071 H 0.64626 0.62516 0.7422 0.0
C3072 C 0.74253 0.8588 0.86576 0.0
C3073 C 0.73065 0.84958 0.86533 0.0
C3074 C 0.74574 0.86757 0.85406 0.0
C3075 C 0.74101 0.86646 0.81531 0.0
H3076 H 0.76096 0.90281 0.81605 0.0
C3077 C 0.76591 0.88853 0.76403 0.0
C3078 C 0.78007 0.8934 0.76537 0.0
C3079 C 0.75738 0.88655 0.77615 0.0
C3080 C 0.75541 0.89264 0.81567 0.0
H3081 H 0.71197 0.8435 0.85296 0.0
H3082 H 0.71741 0.85899 0.83273 0.0
H3083 H 0.75009 0.89353 0.83799 0.0
H3084 H 0.79609 0.90082 0.78044 0.0
H3085 H 0.78139 0.89697 0.80158 0.0
H3086 H 0.74679 0.86513 0.79329 0.0
C3087 C 0.72449 0.85913 0.84191 0.0
C3088 C 0.74917 0.88735 0.82823 0.0
C3089 C 0.72133 0.85031 0.85354 0.0
C3090 C 0.78523 0.89703 0.77903 0.0
C3091 C 0.77675 0.8949 0.79117 0.0
C3092 C 0.74726 0.8717 0.80282 0.0
C3093 C 0.73708 0.86735 0.84175 0.0
C3094 C 0.74211 0.87407 0.82823 0.0
C3095 C 0.76287 0.88923 0.78991 0.0
C3096 C 0.75477 0.88472 0.80287 0.0
H3097 H 0.7499 0.85852 0.8747 0.0
H3098 H 0.75555 0.87373 0.85428 0.0
H3099 H 0.73593 0.85605 0.81495 0.0
H3100 H 0.76153 0.88584 0.75364 0.0
H3101 H 0.74662 0.88249 0.77475 0.0
C3102 C 0.59816 0.2883 0.28021 0.0
C3103 C 0.60078 0.28317 0.26631 0.0
C3104 C 0.60077 0.27961 0.29212 0.0
C3105 C 0.62437 0.25003 0.30195 0.0
H3106 H 0.60407 0.25126 0.33811 0.0
C3107 C 0.64831 0.22255 0.35082 0.0
C3108 C 0.64875 0.231 0.36324 0.0
C3109 C 0.63925 0.22616 0.3395 0.0
C3110 C 0.60986 0.25082 0.32808 0.0
H3111 H 0.607 0.26451 0.25398 0.0
H3112 H 0.61132 0.24935 0.2747 0.0
H3113 H 0.59375 0.26287 0.31702 0.0
H3114 H 0.63923 0.24924 0.37397 0.0
H3115 H 0.62372 0.25577 0.3541 0.0
H3116 H 0.64074 0.23859 0.31295 0.0
C3117 C 0.6076 0.26018 0.27642 0.0
C3118 C 0.60394 0.25746 0.31601 0.0
C3119 C 0.60507 0.26887 0.26454 0.0
C3120 C 0.63917 0.24252 0.36453 0.0
C3121 C 0.63021 0.24623 0.35313 0.0
C3122 C 0.63028 0.24346 0.31397 0.0
C3123 C 0.606 0.26561 0.29036 0.0
C3124 C 0.61126 0.25731 0.30286 0.0
C3125 C 0.63055 0.23841 0.34027 0.0
C3126 C 0.62323 0.24395 0.32725 0.0
H3127 H 0.59483 0.29926 0.28194 0.0
H3128 H 0.5995 0.28416 0.3027 0.0
H3129 H 0.63046 0.24995 0.29209 0.0
H3130 H 0.65542 0.21348 0.34958 0.0
H3131 H 0.6395 0.21968 0.3299 0.0
C3132 C 0.22605 0.10576 0.76432 0.0
C3133 C 0.21179 0.10154 0.76651 0.0
C3134 C 0.23516 0.10804 0.77592 0.0
C3135 C 0.23935 0.10385 0.8153 0.0
H3136 H 0.25822 0.14062 0.81191 0.0
C3137 C 0.25601 0.13865 0.86348 0.0
C3138 C 0.26728 0.14847 0.86179 0.0
C3139 C 0.25207 0.12963 0.85221 0.0
C3140 C 0.25338 0.13016 0.813 0.0
H3141 H 0.19619 0.09544 0.78255 0.0
H3142 H 0.21205 0.09971 0.80289 0.0
H3143 H 0.24597 0.13065 0.79143 0.0
H3144 H 0.28423 0.15544 0.84757 0.0
H3145 H 0.27768 0.13939 0.82812 0.0
H3146 H 0.24648 0.10366 0.83711 0.0
C3147 C 0.21623 0.10111 0.79217 0.0
C3148 C 0.24628 0.12443 0.80121 0.0
C3149 C 0.20711 0.09872 0.78052 0.0
C3150 C 0.27535 0.14815 0.84912 0.0
C3151 C 0.27153 0.13901 0.83793 0.0
C3152 C 0.24653 0.10958 0.82715 0.0
C3153 C 0.2302 0.10627 0.79 0.0
C3154 C 0.23898 0.11134 0.80225 0.0
C3155 C 0.25942 0.13014 0.83908 0.0
C3156 C 0.25342 0.12294 0.8262 0.0
H3157 H 0.23006 0.10781 0.75364 0.0
H3158 H 0.24596 0.1117 0.77387 0.0
H3159 H 0.23393 0.09367 0.81639 0.0
H3160 H 0.24958 0.1386 0.87312 0.0
H3161 H 0.24266 0.123 0.85349 0.0
C3162 C 0.34383 0.77483 0.35458 0.0
C3163 C 0.34446 0.76665 0.36719 0.0
C3164 C 0.3526 0.77154 0.34295 0.0
C3165 C 0.38324 0.74902 0.33073 0.0
H3166 H 0.3611 0.74735 0.29568 0.0
C3167 C 0.39718 0.71262 0.28258 0.0
C3168 C 0.39345 0.71729 0.26877 0.0
C3169 C 0.39393 0.721 0.29456 0.0
C3170 C 0.36759 0.74801 0.30526 0.0
H3171 H 0.35556 0.74928 0.37784 0.0
H3172 H 0.37066 0.74333 0.35743 0.0
H3173 H 0.35073 0.7581 0.31683 0.0
H3174 H 0.38445 0.73491 0.25663 0.0
H3175 H 0.37906 0.74958 0.27745 0.0
H3176 H 0.39994 0.73841 0.3191 0.0
C3177 C 0.3635 0.7524 0.35657 0.0
C3178 C 0.36163 0.75421 0.31744 0.0
C3179 C 0.3548 0.75578 0.36827 0.0
C3180 C 0.38728 0.7309 0.26713 0.0
C3181 C 0.38413 0.73929 0.27907 0.0
C3182 C 0.38923 0.74279 0.31848 0.0
C3183 C 0.36212 0.7599 0.34359 0.0
C3184 C 0.36927 0.75464 0.33038 0.0
C3185 C 0.38696 0.73424 0.29296 0.0
C3186 C 0.38139 0.74204 0.30566 0.0
H3187 H 0.33612 0.78341 0.35347 0.0
H3188 H 0.35152 0.77776 0.33324 0.0
H3189 H 0.38946 0.7493 0.3405 0.0
H3190 H 0.40196 0.70219 0.28421 0.0
H3191 H 0.39618 0.71673 0.30509 0.0
C3192 C 0.72408 0.16071 0.15165 0.0
C3193 C 0.73127 0.15836 0.13866 0.0
C3194 C 0.72721 0.15238 0.16367 0.0
C3195 C 0.74739 0.12024 0.17643 0.0
H3196 H 0.75242 0.14355 0.21036 0.0
C3197 C 0.78517 0.10597 0.22342 0.0
C3198 C 0.78126 0.11032 0.23729 0.0
C3199 C 0.77647 0.10925 0.21169 0.0
C3200 C 0.75082 0.13677 0.2011 0.0
H3201 H 0.74671 0.14483 0.12785 0.0
H3202 H 0.75247 0.13059 0.14888 0.0
H3203 H 0.74164 0.15393 0.18923 0.0
H3204 H 0.76457 0.1205 0.24982 0.0
H3205 H 0.74938 0.12606 0.22941 0.0
H3206 H 0.75723 0.10324 0.18832 0.0
C3207 C 0.74424 0.1387 0.14978 0.0
C3208 C 0.74459 0.14274 0.18893 0.0
C3209 C 0.74098 0.14692 0.1377 0.0
C3210 C 0.76801 0.11716 0.23927 0.0
C3211 C 0.75931 0.1204 0.22756 0.0
C3212 C 0.75372 0.11427 0.18864 0.0
C3213 C 0.73773 0.14164 0.16303 0.0
C3214 C 0.74296 0.13463 0.17636 0.0
C3215 C 0.76366 0.11691 0.2136 0.0
C3216 C 0.75568 0.12255 0.20105 0.0
H3217 H 0.71639 0.16931 0.15269 0.0
H3218 H 0.72171 0.15471 0.1736 0.0
H3219 H 0.74614 0.11363 0.167 0.0
H3220 H 0.79528 0.10064 0.22152 0.0
H3221 H 0.78017 0.10647 0.20107 0.0
C3222 C 0.39644 0.29229 0.71987 0.0
C3223 C 0.39185 0.28887 0.73378 0.0
C3224 C 0.39291 0.28346 0.70831 0.0
C3225 C 0.36531 0.25729 0.69809 0.0
H3226 H 0.38865 0.25267 0.66409 0.0
C3227 C 0.34323 0.2273 0.64976 0.0
C3228 C 0.34431 0.23471 0.63672 0.0
C3229 C 0.35155 0.2313 0.6615 0.0
C3230 C 0.38203 0.25388 0.67352 0.0
H3231 H 0.38081 0.27298 0.7466 0.0
H3232 H 0.37497 0.25744 0.72653 0.0
H3233 H 0.39867 0.26447 0.68521 0.0
H3234 H 0.35582 0.25143 0.62546 0.0
H3235 H 0.37025 0.25853 0.64602 0.0
H3236 H 0.34859 0.24703 0.68642 0.0
C3237 C 0.38094 0.26715 0.72446 0.0
C3238 C 0.38775 0.26066 0.68561 0.0
C3239 C 0.38435 0.27603 0.73599 0.0
C3240 C 0.35469 0.24551 0.63536 0.0
C3241 C 0.36301 0.24956 0.64715 0.0
C3242 C 0.35965 0.25048 0.68609 0.0
C3243 C 0.3848 0.27096 0.71042 0.0
C3244 C 0.37938 0.26262 0.69798 0.0
C3245 C 0.36112 0.24285 0.66049 0.0
C3246 C 0.36785 0.24885 0.67359 0.0
H3247 H 0.40223 0.3021 0.71779 0.0
H3248 H 0.39596 0.28682 0.69765 0.0
H3249 H 0.35842 0.25887 0.70727 0.0
H3250 H 0.33547 0.21879 0.65113 0.0
H3251 H 0.35008 0.22571 0.67154 0.0
C3252 C 0.208 0.89394 0.21852 0.0
C3253 C 0.21429 0.89511 0.23211 0.0
C3254 C 0.21626 0.89003 0.20667 0.0
C3255 C 0.23598 0.88425 0.18171 0.0
H3256 H 0.26491 0.85577 0.19013 0.0
C3257 C 0.26397 0.85321 0.13628 0.0
C3258 C 0.26581 0.83847 0.13863 0.0
C3259 C 0.26035 0.86233 0.1476 0.0
C3260 C 0.25682 0.86365 0.18754 0.0
H3261 H 0.23431 0.89438 0.24376 0.0
H3262 H 0.24885 0.88834 0.22301 0.0
H3263 H 0.25304 0.86803 0.20959 0.0
H3264 H 0.26576 0.82184 0.15481 0.0
H3265 H 0.25902 0.8375 0.17433 0.0
H3266 H 0.23897 0.87899 0.15966 0.0
C3267 C 0.23746 0.88977 0.22154 0.0
C3268 C 0.25015 0.87092 0.19876 0.0
C3269 C 0.22915 0.89337 0.23343 0.0
C3270 C 0.26451 0.83315 0.15262 0.0
C3271 C 0.26071 0.84221 0.16388 0.0
C3272 C 0.24248 0.87679 0.17048 0.0
C3273 C 0.23105 0.88746 0.2081 0.0
C3274 C 0.2394 0.88112 0.19603 0.0
C3275 C 0.25831 0.85688 0.16149 0.0
C3276 C 0.25275 0.86613 0.17326 0.0
H3277 H 0.19655 0.89513 0.2172 0.0
H3278 H 0.21083 0.88823 0.1966 0.0
H3279 H 0.22799 0.89223 0.17912 0.0
H3280 H 0.26501 0.85767 0.12563 0.0
H3281 H 0.25891 0.8736 0.14538 0.0
C3282 C 0.67415 0.76428 0.65246 0.0
C3283 C 0.66709 0.76717 0.63951 0.0
C3284 C 0.66641 0.76078 0.66473 0.0
C3285 C 0.63082 0.74674 0.67552 0.0
H3286 H 0.64729 0.75157 0.71325 0.0
C3287 C 0.62194 0.72873 0.73894 0.0
C3288 C 0.61678 0.71485 0.73643 0.0
C3289 C 0.62566 0.73763 0.7275 0.0
C3290 C 0.64228 0.75032 0.70289 0.0
H3291 H 0.64631 0.76956 0.62951 0.0
H3292 H 0.63271 0.76416 0.65113 0.0
H3293 H 0.65789 0.76377 0.69305 0.0
H3294 H 0.61125 0.69948 0.71998 0.0
H3295 H 0.61841 0.71455 0.70014 0.0
H3296 H 0.61483 0.73381 0.68546 0.0
C3297 C 0.64428 0.76403 0.6517 0.0
C3298 C 0.64858 0.75715 0.69117 0.0
C3299 C 0.65206 0.76726 0.63931 0.0
C3300 C 0.61509 0.71018 0.72226 0.0
C3301 C 0.61912 0.71892 0.71084 0.0
C3302 C 0.62432 0.74019 0.68729 0.0
C3303 C 0.65135 0.76035 0.6645 0.0
C3304 C 0.64328 0.75503 0.67723 0.0
C3305 C 0.62465 0.73273 0.71327 0.0
C3306 C 0.63025 0.74145 0.70108 0.0
H3307 H 0.68572 0.76402 0.65297 0.0
H3308 H 0.67235 0.75777 0.6742 0.0
H3309 H 0.62638 0.74473 0.66502 0.0
H3310 H 0.62321 0.73267 0.74977 0.0
H3311 H 0.62952 0.74829 0.72986 0.0
C3312 C 0.85912 0.73863 0.84976 0.0
C3313 C 0.85844 0.73096 0.83683 0.0
C3314 C 0.8466 0.74229 0.85708 0.0
C3315 C 0.80861 0.7489 0.8493 0.0
H3316 H 0.80577 0.75402 0.89038 0.0
C3317 C 0.7582 0.77316 0.87462 0.0
C3318 C 0.76061 0.78418 0.88458 0.0
C3319 C 0.76937 0.76423 0.8703 0.0
C3320 C 0.80643 0.75267 0.87889 0.0
H3321 H 0.84415 0.72011 0.8221 0.0
H3322 H 0.82238 0.72619 0.83506 0.0
H3323 H 0.82677 0.74217 0.88023 0.0
H3324 H 0.77657 0.79396 0.89832 0.0
H3325 H 0.79609 0.77846 0.89066 0.0
H3326 H 0.78849 0.75964 0.84788 0.0
C3327 C 0.83255 0.72975 0.83932 0.0
C3328 C 0.81845 0.74589 0.87307 0.0
C3329 C 0.84505 0.72618 0.83194 0.0
C3330 C 0.77433 0.78561 0.8906 0.0
C3331 C 0.78551 0.77667 0.88627 0.0
C3332 C 0.79661 0.75561 0.85511 0.0
C3333 C 0.83313 0.73829 0.8517 0.0
C3334 C 0.81978 0.74411 0.85817 0.0
C3335 C 0.78323 0.76608 0.87583 0.0
C3336 C 0.79545 0.75777 0.86994 0.0
H3337 H 0.86925 0.74248 0.85384 0.0
H3338 H 0.84747 0.74895 0.86653 0.0
H3339 H 0.80937 0.74801 0.83777 0.0
H3340 H 0.74774 0.77166 0.86985 0.0
H3341 H 0.76721 0.75602 0.86241 0.0
C3342 C 0.86732 0.25829 0.13682 0.0
C3343 C 0.8645 0.26679 0.14891 0.0
C3344 C 0.8562 0.25413 0.12771 0.0
C3345 C 0.82962 0.23717 0.12 0.0
H3346 H 0.79632 0.2602 0.111 0.0
C3347 C 0.77851 0.21112 0.09788 0.0
C3348 C 0.76586 0.21532 0.10485 0.0
C3349 C 0.79108 0.21906 0.09952 0.0
C3350 C 0.80554 0.25362 0.11344 0.0
H3351 H 0.84798 0.27853 0.16025 0.0
H3352 H 0.82866 0.27122 0.14445 0.0
H3353 H 0.81781 0.27167 0.12049 0.0
H3354 H 0.75636 0.2316 0.1184 0.0
H3355 H 0.77824 0.24523 0.12148 0.0
H3356 H 0.81723 0.21906 0.11365 0.0
C3357 C 0.83943 0.26778 0.14196 0.0
C3358 C 0.81785 0.2602 0.11884 0.0
C3359 C 0.85053 0.2719 0.15108 0.0
C3360 C 0.7659 0.22802 0.11291 0.0
C3361 C 0.77846 0.23592 0.11458 0.0
C3362 C 0.81732 0.2306 0.11466 0.0
C3363 C 0.84206 0.25844 0.13047 0.0
C3364 C 0.82989 0.25199 0.12254 0.0
C3365 C 0.79129 0.23137 0.10819 0.0
C3366 C 0.80499 0.23869 0.11169 0.0
H3367 H 0.87798 0.25424 0.13477 0.0
H3368 H 0.85859 0.24709 0.11882 0.0
H3369 H 0.83863 0.23049 0.12293 0.0
H3370 H 0.77882 0.20145 0.09148 0.0
H3371 H 0.80072 0.21538 0.09426 0.0
C3372 C 0.24208 0.36329 0.64693 0.0
C3373 C 0.23308 0.36248 0.65895 0.0
C3374 C 0.24511 0.35105 0.63888 0.0
C3375 C 0.24664 0.31208 0.64387 0.0
H3376 H 0.25602 0.3118 0.60346 0.0
C3377 C 0.26894 0.26149 0.61783 0.0
C3378 C 0.28148 0.26352 0.60977 0.0
C3379 C 0.26032 0.27312 0.62149 0.0
C3380 C 0.25343 0.31173 0.61475 0.0
H3381 H 0.21926 0.34846 0.67124 0.0
H3382 H 0.22423 0.32723 0.65699 0.0
H3383 H 0.24539 0.3332 0.61415 0.0
H3384 H 0.29425 0.27925 0.59844 0.0
H3385 H 0.27929 0.29956 0.60502 0.0
H3386 H 0.25496 0.29084 0.64464 0.0
C3387 C 0.22932 0.33721 0.65403 0.0
C3388 C 0.24737 0.32398 0.62088 0.0
C3389 C 0.22641 0.3494 0.66216 0.0
C3390 C 0.2847 0.27731 0.6047 0.0
C3391 C 0.27607 0.28896 0.60841 0.0
C3392 C 0.25263 0.29987 0.63776 0.0
C3393 C 0.23911 0.33776 0.64261 0.0
C3394 C 0.2441 0.32437 0.63558 0.0
C3395 C 0.26404 0.28705 0.61724 0.0
C3396 C 0.2563 0.2996 0.62318 0.0
H3397 H 0.2474 0.37321 0.64416 0.0
H3398 H 0.25278 0.35188 0.63023 0.0
H3399 H 0.24458 0.31206 0.65528 0.0
H3400 H 0.26604 0.25099 0.62176 0.0
H3401 H 0.25095 0.27125 0.62806 0.0
C3402 C 0.2181 0.79068 0.10443 0.0
C3403 C 0.23149 0.78401 0.10313 0.0
C3404 C 0.20595 0.78265 0.10782 0.0
C3405 C 0.19687 0.74844 0.12563 0.0
H3406 H 0.15825 0.76148 0.11815 0.0
C3407 C 0.13407 0.73742 0.14397 0.0
C3408 C 0.13653 0.7354 0.15868 0.0
C3409 C 0.14542 0.7405 0.13471 0.0
C3410 C 0.16892 0.75744 0.12017 0.0
H3411 H 0.24248 0.76361 0.103 0.0
H3412 H 0.22119 0.74949 0.10818 0.0
H3413 H 0.17806 0.77191 0.105 0.0
H3414 H 0.15291 0.73451 0.17509 0.0
H3415 H 0.17253 0.74031 0.15917 0.0
H3416 H 0.18773 0.73375 0.14055 0.0
C3417 C 0.22011 0.76098 0.10724 0.0
C3418 C 0.18035 0.76362 0.11276 0.0
C3419 C 0.23231 0.76905 0.10414 0.0
C3420 C 0.15064 0.73594 0.16381 0.0
C3421 C 0.16194 0.73919 0.15461 0.0
C3422 C 0.18544 0.7421 0.13285 0.0
C3423 C 0.20688 0.76772 0.10973 0.0
C3424 C 0.19453 0.75956 0.11574 0.0
C3425 C 0.15947 0.74179 0.13998 0.0
C3426 C 0.17135 0.74687 0.13061 0.0
H3427 H 0.21715 0.80221 0.10378 0.0
H3428 H 0.19606 0.78832 0.10979 0.0
H3429 H 0.20759 0.74504 0.12838 0.0
H3430 H 0.12333 0.73695 0.13966 0.0
H3431 H 0.14313 0.74213 0.12348 0.0
C3432 C 0.76547 0.6508 0.6595 0.0
C3433 C 0.76508 0.63645 0.65507 0.0
C3434 C 0.76181 0.66177 0.65005 0.0
C3435 C 0.758 0.6843 0.62741 0.0
H3436 H 0.72559 0.67695 0.60261 0.0
C3437 C 0.73061 0.73092 0.59873 0.0
C3438 C 0.71559 0.73078 0.59917 0.0
C3439 C 0.73841 0.71851 0.60168 0.0
C3440 C 0.73462 0.67923 0.6095 0.0
H3441 H 0.76138 0.62243 0.63695 0.0
H3442 H 0.75546 0.64163 0.62029 0.0
H3443 H 0.73631 0.65735 0.61586 0.0
H3444 H 0.69695 0.71734 0.60221 0.0
H3445 H 0.71043 0.69591 0.60793 0.0
H3446 H 0.75562 0.70631 0.62202 0.0
C3447 C 0.75816 0.64439 0.63121 0.0
C3448 C 0.74094 0.6679 0.61696 0.0
C3449 C 0.76166 0.63338 0.64074 0.0
C3450 C 0.70852 0.71778 0.60173 0.0
C3451 C 0.71631 0.70543 0.60495 0.0
C3452 C 0.75155 0.69564 0.62014 0.0
C3453 C 0.75786 0.65872 0.63584 0.0
C3454 C 0.75247 0.67035 0.62633 0.0
C3455 C 0.73137 0.70574 0.60545 0.0
C3456 C 0.73952 0.69334 0.61137 0.0
H3457 H 0.76799 0.65356 0.67048 0.0
H3458 H 0.76149 0.6726 0.65414 0.0
H3459 H 0.76708 0.68657 0.63424 0.0
H3460 H 0.73635 0.74076 0.59662 0.0
H3461 H 0.74997 0.71909 0.60152 0.0
C3462 C 0.14081 0.26657 0.84746 0.0
C3463 C 0.1413 0.26642 0.83243 0.0
C3464 C 0.15291 0.26291 0.8555 0.0
C3465 C 0.19217 0.25512 0.85217 0.0
H3466 H 0.18515 0.23142 0.88545 0.0
C3467 C 0.22202 0.20752 0.88575 0.0
C3468 C 0.23621 0.21225 0.8845 0.0
C3469 C 0.21069 0.2164 0.8817 0.0
C3470 C 0.18734 0.23792 0.87612 0.0
H3471 H 0.155 0.26272 0.81406 0.0
H3472 H 0.17576 0.25582 0.82792 0.0
H3473 H 0.16519 0.24279 0.8734 0.0
H3474 H 0.24967 0.2303 0.87902 0.0
H3475 H 0.22993 0.24608 0.8727 0.0
H3476 H 0.21413 0.24931 0.85412 0.0
C3477 C 0.16626 0.25916 0.83363 0.0
C3478 C 0.17586 0.2447 0.86933 0.0
C3479 C 0.15427 0.26304 0.82563 0.0
C3480 C 0.23883 0.22632 0.87992 0.0
C3481 C 0.22748 0.23531 0.87618 0.0
C3482 C 0.2036 0.24812 0.85878 0.0
C3483 C 0.1657 0.25878 0.84868 0.0
C3484 C 0.17807 0.25312 0.85704 0.0
C3485 C 0.21327 0.23034 0.87659 0.0
C3486 C 0.20132 0.23915 0.87067 0.0
H3487 H 0.131 0.26924 0.85302 0.0
H3488 H 0.15212 0.26306 0.86706 0.0
H3489 H 0.1944 0.2618 0.84297 0.0
H3490 H 0.21968 0.19669 0.88916 0.0
H3491 H 0.19998 0.21202 0.88198 0.0
C3492 C 0.26754 0.73778 0.38779 0.0
C3493 C 0.28186 0.73545 0.39169 0.0
C3494 C 0.25881 0.72631 0.38377 0.0
C3495 C 0.24618 0.70296 0.3655 0.0
H3496 H 0.25437 0.66396 0.37685 0.0
C3497 C 0.23271 0.65563 0.32901 0.0
C3498 C 0.23077 0.6419 0.33476 0.0
C3499 C 0.23614 0.66715 0.33786 0.0
C3500 C 0.25164 0.67476 0.3737 0.0
H3501 H 0.29815 0.71927 0.39486 0.0
H3502 H 0.28333 0.69946 0.38714 0.0
H3503 H 0.26496 0.68357 0.39003 0.0
H3504 H 0.23001 0.62963 0.35442 0.0
H3505 H 0.23528 0.64988 0.37 0.0
H3506 H 0.23237 0.69418 0.34958 0.0
C3507 C 0.27852 0.70998 0.38765 0.0
C3508 C 0.25799 0.68608 0.38113 0.0
C3509 C 0.28712 0.72139 0.39201 0.0
C3510 C 0.23158 0.64008 0.34966 0.0
C3511 C 0.23473 0.65169 0.35858 0.0
C3512 C 0.23957 0.69166 0.3583 0.0
C3513 C 0.2643 0.71228 0.38317 0.0
C3514 C 0.25578 0.70034 0.37681 0.0
C3515 C 0.23743 0.66533 0.35277 0.0
C3516 C 0.24262 0.67737 0.36192 0.0
H3517 H 0.26316 0.7485 0.3876 0.0
H3518 H 0.24784 0.72854 0.38082 0.0
H3519 H 0.2442 0.71371 0.36169 0.0
H3520 H 0.23228 0.65738 0.31756 0.0
H3521 H 0.23841 0.67734 0.33284 0.0
C3522 C 0.77676 0.34577 0.3428 0.0
C3523 C 0.76921 0.35867 0.34455 0.0
C3524 C 0.77291 0.33361 0.35058 0.0
C3525 C 0.75038 0.31984 0.38034 0.0
H3526 H 0.74467 0.28783 0.35458 0.0
C3527 C 0.71059 0.27408 0.39183 0.0
C3528 C 0.71352 0.26032 0.38651 0.0
C3529 C 0.71978 0.2855 0.38888 0.0
C3530 C 0.74646 0.29649 0.36206 0.0
H3531 H 0.75254 0.36922 0.35678 0.0
H3532 H 0.74575 0.34795 0.37026 0.0
H3533 H 0.75702 0.309 0.34614 0.0
H3534 H 0.72885 0.24761 0.37461 0.0
H3535 H 0.74505 0.26744 0.36973 0.0
H3536 H 0.73949 0.30736 0.39619 0.0
C3537 C 0.75467 0.34725 0.3629 0.0
C3538 C 0.75356 0.30868 0.35719 0.0
C3539 C 0.75855 0.35945 0.35514 0.0
C3540 C 0.72619 0.25811 0.37873 0.0
C3541 C 0.73545 0.2695 0.37588 0.0
C3542 C 0.74333 0.30758 0.38526 0.0
C3543 C 0.76142 0.33406 0.36026 0.0
C3544 C 0.75539 0.3206 0.36618 0.0
C3545 C 0.73219 0.28341 0.38063 0.0
C3546 C 0.74104 0.29585 0.37608 0.0
H3547 H 0.78516 0.34484 0.33488 0.0
H3548 H 0.77852 0.32368 0.34853 0.0
H3549 H 0.75175 0.3288 0.38756 0.0
H3550 H 0.70093 0.27618 0.39787 0.0
H3551 H 0.71682 0.29607 0.39257 0.0
loop_
_geom_bond_atom_site_label_1
_geom_bond_atom_site_label_2
_geom_bond_distance
_geom_bond_site_symmetry_2
_ccdc_geom_bond_type
O0 Cd1 2.223 . S
O0 C8 1.315 . S
Cd1 O0 2.223 . S
Cd1 O4 2.297 . S
Cd1 O5 2.439 . S
Cd1 O11 2.240 . S
Cd2 O3 2.240 . S
Cd2 O10 2.223 . S
Cd2 O12 2.297 . S
Cd2 O13 2.439 . S
O3 Cd2 2.240 . S
O3 C8 1.279 . S
O4 Cd1 2.297 . S
O4 C6 1.247 . S
O5 Cd1 2.439 . S
O5 C6 1.208 . S
C6 O4 1.247 . S
C6 O5 1.208 . S
C7 O12 1.247 . S
C7 O13 1.208 . S
C8 O0 1.315 . S
C8 O3 1.279 . S
C9 O10 1.315 . S
C9 O11 1.279 . S
O10 Cd2 2.223 . S
O10 C9 1.315 . S
O11 Cd1 2.240 . S
O11 C9 1.279 . S
O12 Cd2 2.297 . S
O12 C7 1.247 . S
O13 Cd2 2.439 . S
O13 C7 1.208 . S
O14 Cd15 2.223 . S
O14 C22 1.315 . S
Cd15 O14 2.223 . S
Cd15 O18 2.297 . S
Cd15 O19 2.439 . S
Cd15 O25 2.240 . S
Cd16 O17 2.240 . S
Cd16 O24 2.223 . S
Cd16 O26 2.297 . S
Cd16 O27 2.439 . S
O17 Cd16 2.240 . S
O17 C22 1.279 . S
O18 Cd15 2.297 . S
O18 C20 1.247 . S
O19 Cd15 2.439 . S
O19 C20 1.208 . S
C20 O18 1.247 . S
C20 O19 1.208 . S
C21 O26 1.247 . S
C21 O27 1.208 . S
C22 O14 1.315 . S
C22 O17 1.279 . S
C23 O24 1.315 . S
C23 O25 1.279 . S
O24 Cd16 2.223 . S
O24 C23 1.315 . S
O25 Cd15 2.240 . S
O25 C23 1.279 . S
O26 Cd16 2.297 . S
O26 C21 1.247 . S
O27 Cd16 2.439 . S
O27 C21 1.208 . S
O28 Cd29 2.223 . S
O28 C36 1.315 . S
Cd29 O28 2.223 . S
Cd29 O32 2.297 . S
Cd29 O33 2.439 . S
Cd29 O39 2.240 . S
Cd30 O31 2.240 . S
Cd30 O38 2.223 . S
Cd30 O40 2.297 . S
Cd30 O41 2.439 . S
O31 Cd30 2.240 . S
O31 C36 1.279 . S
O32 Cd29 2.297 . S
O32 C34 1.247 . S
O33 Cd29 2.439 . S
O33 C34 1.208 . S
C34 O32 1.247 . S
C34 O33 1.208 . S
C35 O40 1.247 . S
C35 O41 1.208 . S
C36 O28 1.315 . S
C36 O31 1.279 . S
C37 O38 1.315 . S
C37 O39 1.279 . S
O38 Cd30 2.223 . S
O38 C37 1.315 . S
O39 Cd29 2.240 . S
O39 C37 1.279 . S
O40 Cd30 2.297 . S
O40 C35 1.247 . S
O41 Cd30 2.439 . S
O41 C35 1.208 . S
O42 Cd43 2.223 . S
O42 C50 1.315 . S
Cd43 O42 2.223 . S
Cd43 O46 2.297 . S
Cd43 O47 2.439 . S
Cd43 O53 2.240 . S
Cd44 O45 2.240 . S
Cd44 O52 2.223 . S
Cd44 O54 2.297 . S
Cd44 O55 2.439 . S
O45 Cd44 2.240 . S
O45 C50 1.279 . S
O46 Cd43 2.297 . S
O46 C48 1.247 . S
O47 Cd43 2.439 . S
O47 C48 1.208 . S
C48 O46 1.247 . S
C48 O47 1.208 . S
C49 O54 1.247 . S
C49 O55 1.208 . S
C50 O42 1.315 . S
C50 O45 1.279 . S
C51 O52 1.315 . S
C51 O53 1.279 . S
O52 Cd44 2.223 . S
O52 C51 1.315 . S
O53 Cd43 2.240 . S
O53 C51 1.279 . S
O54 Cd44 2.297 . S
O54 C49 1.247 . S
O55 Cd44 2.439 . S
O55 C49 1.208 . S
O56 Cd57 2.223 . S
O56 C64 1.315 . S
Cd57 O56 2.223 . S
Cd57 O60 2.297 . S
Cd57 O61 2.439 . S
Cd57 O67 2.240 . S
Cd58 O59 2.240 . S
Cd58 O66 2.223 . S
Cd58 O68 2.297 . S
Cd58 O69 2.439 . S
O59 Cd58 2.240 . S
O59 C64 1.279 . S
O60 Cd57 2.297 . S
O60 C62 1.247 . S
O61 Cd57 2.439 . S
O61 C62 1.208 . S
C62 O60 1.247 . S
C62 O61 1.208 . S
C63 O68 1.247 . S
C63 O69 1.208 . S
C64 O56 1.315 . S
C64 O59 1.279 . S
C65 O66 1.315 . S
C65 O67 1.279 . S
O66 Cd58 2.223 . S
O66 C65 1.315 . S
O67 Cd57 2.240 . S
O67 C65 1.279 . S
O68 Cd58 2.297 . S
O68 C63 1.247 . S
O69 Cd58 2.439 . S
O69 C63 1.208 . S
O70 Cd71 2.223 . S
O70 C78 1.315 . S
Cd71 O70 2.223 . S
Cd71 O74 2.297 . S
Cd71 O75 2.439 . S
Cd71 O81 2.240 . S
Cd72 O73 2.240 . S
Cd72 O80 2.223 . S
Cd72 O82 2.297 . S
Cd72 O83 2.439 . S
O73 Cd72 2.240 . S
O73 C78 1.279 . S
O74 Cd71 2.297 . S
O74 C76 1.247 . S
O75 Cd71 2.439 . S
O75 C76 1.208 . S
C76 O74 1.247 . S
C76 O75 1.208 . S
C77 O82 1.247 . S
C77 O83 1.208 . S
C78 O70 1.315 . S
C78 O73 1.279 . S
C79 O80 1.315 . S
C79 O81 1.279 . S
O80 Cd72 2.223 . S
O80 C79 1.315 . S
O81 Cd71 2.240 . S
O81 C79 1.279 . S
O82 Cd72 2.297 . S
O82 C77 1.247 . S
O83 Cd72 2.439 . S
O83 C77 1.208 . S
O84 Cd85 2.223 . S
O84 C92 1.315 . S
Cd85 O84 2.223 . S
Cd85 O88 2.297 . S
Cd85 O89 2.439 . S
Cd85 O95 2.240 . S
Cd86 O87 2.240 . S
Cd86 O94 2.223 . S
Cd86 O96 2.297 . S
Cd86 O97 2.439 . S
O87 Cd86 2.240 . S
O87 C92 1.279 . S
O88 Cd85 2.297 . S
O88 C90 1.247 . S
O89 Cd85 2.439 . S
O89 C90 1.208 . S
C90 O88 1.247 . S
C90 O89 1.208 . S
C91 O96 1.247 . S
C91 O97 1.208 . S
C92 O84 1.315 . S
C92 O87 1.279 . S
C93 O94 1.315 . S
C93 O95 1.279 . S
O94 Cd86 2.223 . S
O94 C93 1.315 . S
O95 Cd85 2.240 . S
O95 C93 1.279 . S
O96 Cd86 2.297 . S
O96 C91 1.247 . S
O97 Cd86 2.439 . S
O97 C91 1.208 . S
O98 Cd99 2.223 . S
O98 C106 1.315 . S
Cd99 O98 2.223 . S
Cd99 O102 2.297 . S
Cd99 O103 2.439 . S
Cd99 O109 2.240 . S
Cd100 O101 2.240 . S
Cd100 O108 2.223 . S
Cd100 O110 2.297 . S
Cd100 O111 2.439 . S
O101 Cd100 2.240 . S
O101 C106 1.279 . S
O102 Cd99 2.297 . S
O102 C104 1.247 . S
O103 Cd99 2.439 . S
O103 C104 1.208 . S
C104 O102 1.247 . S
C104 O103 1.208 . S
C105 O110 1.247 . S
C105 O111 1.208 . S
C106 O98 1.315 . S
C106 O101 1.279 . S
C107 O108 1.315 . S
C107 O109 1.279 . S
O108 Cd100 2.223 . S
O108 C107 1.315 . S
O109 Cd99 2.240 . S
O109 C107 1.279 . S
O110 Cd100 2.297 . S
O110 C105 1.247 . S
O111 Cd100 2.439 . S
O111 C105 1.208 . S
O112 Cd113 2.223 . S
O112 C120 1.315 . S
Cd113 O112 2.223 . S
Cd113 O116 2.297 . S
Cd113 O117 2.439 . S
Cd113 O123 2.240 . S
Cd114 O115 2.240 . S
Cd114 O122 2.223 . S
Cd114 O124 2.297 . S
Cd114 O125 2.439 . S
O115 Cd114 2.240 . S
O115 C120 1.279 . S
O116 Cd113 2.297 . S
O116 C118 1.247 . S
O117 Cd113 2.439 . S
O117 C118 1.208 . S
C118 O116 1.247 . S
C118 O117 1.208 . S
C119 O124 1.247 . S
C119 O125 1.208 . S
C120 O112 1.315 . S
C120 O115 1.279 . S
C121 O122 1.315 . S
C121 O123 1.279 . S
O122 Cd114 2.223 . S
O122 C121 1.315 . S
O123 Cd113 2.240 . S
O123 C121 1.279 . S
O124 Cd114 2.297 . S
O124 C119 1.247 . S
O125 Cd114 2.439 . S
O125 C119 1.208 . S
O126 Cd127 2.223 . S
O126 C134 1.315 . S
Cd127 O126 2.223 . S
Cd127 O130 2.297 . S
Cd127 O131 2.439 . S
Cd127 O137 2.240 . S
Cd128 O129 2.240 . S
Cd128 O136 2.223 . S
Cd128 O138 2.297 . S
Cd128 O139 2.439 . S
O129 Cd128 2.240 . S
O129 C134 1.279 . S
O130 Cd127 2.297 . S
O130 C132 1.247 . S
O131 Cd127 2.439 . S
O131 C132 1.208 . S
C132 O130 1.247 . S
C132 O131 1.208 . S
C133 O138 1.247 . S
C133 O139 1.208 . S
C134 O126 1.315 . S
C134 O129 1.279 . S
C135 O136 1.315 . S
C135 O137 1.279 . S
O136 Cd128 2.223 . S
O136 C135 1.315 . S
O137 Cd127 2.240 . S
O137 C135 1.279 . S
O138 Cd128 2.297 . S
O138 C133 1.247 . S
O139 Cd128 2.439 . S
O139 C133 1.208 . S
O140 Cd141 2.223 . S
O140 C148 1.315 . S
Cd141 O140 2.223 . S
Cd141 O144 2.297 . S
Cd141 O145 2.439 . S
Cd141 O151 2.240 . S
Cd142 O143 2.240 . S
Cd142 O150 2.223 . S
Cd142 O152 2.297 . S
Cd142 O153 2.439 . S
O143 Cd142 2.240 . S
O143 C148 1.279 . S
O144 Cd141 2.297 . S
O144 C146 1.247 . S
O145 Cd141 2.439 . S
O145 C146 1.208 . S
C146 O144 1.247 . S
C146 O145 1.208 . S
C147 O152 1.247 . S
C147 O153 1.208 . S
C148 O140 1.315 . S
C148 O143 1.279 . S
C149 O150 1.315 . S
C149 O151 1.279 . S
O150 Cd142 2.223 . S
O150 C149 1.315 . S
O151 Cd141 2.240 . S
O151 C149 1.279 . S
O152 Cd142 2.297 . S
O152 C147 1.247 . S
O153 Cd142 2.439 . S
O153 C147 1.208 . S
O154 Cd155 2.223 . S
O154 C162 1.315 . S
Cd155 O154 2.223 . S
Cd155 O158 2.297 . S
Cd155 O159 2.439 . S
Cd155 O165 2.240 . S
Cd156 O157 2.240 . S
Cd156 O164 2.223 . S
Cd156 O166 2.297 . S
Cd156 O167 2.439 . S
O157 Cd156 2.240 . S
O157 C162 1.279 . S
O158 Cd155 2.297 . S
O158 C160 1.247 . S
O159 Cd155 2.439 . S
O159 C160 1.208 . S
C160 O158 1.247 . S
C160 O159 1.208 . S
C161 O166 1.247 . S
C161 O167 1.208 . S
C162 O154 1.315 . S
C162 O157 1.279 . S
C163 O164 1.315 . S
C163 O165 1.279 . S
O164 Cd156 2.223 . S
O164 C163 1.315 . S
O165 Cd155 2.240 . S
O165 C163 1.279 . S
O166 Cd156 2.297 . S
O166 C161 1.247 . S
O167 Cd156 2.439 . S
O167 C161 1.208 . S
O168 Cd169 2.223 . S
O168 C176 1.315 . S
Cd169 O168 2.223 . S
Cd169 O172 2.297 . S
Cd169 O173 2.439 . S
Cd169 O179 2.240 . S
Cd170 O171 2.240 . S
Cd170 O178 2.223 . S
Cd170 O180 2.297 . S
Cd170 O181 2.439 . S
O171 Cd170 2.240 . S
O171 C176 1.279 . S
O172 Cd169 2.297 . S
O172 C174 1.247 . S
O173 Cd169 2.439 . S
O173 C174 1.208 . S
C174 O172 1.247 . S
C174 O173 1.208 . S
C175 O180 1.247 . S
C175 O181 1.208 . S
C176 O168 1.315 . S
C176 O171 1.279 . S
C177 O178 1.315 . S
C177 O179 1.279 . S
O178 Cd170 2.223 . S
O178 C177 1.315 . S
O179 Cd169 2.240 . S
O179 C177 1.279 . S
O180 Cd170 2.297 . S
O180 C175 1.247 . S
O181 Cd170 2.439 . S
O181 C175 1.208 . S
O182 Cd183 2.223 . S
O182 C190 1.315 . S
Cd183 O182 2.223 . S
Cd183 O186 2.297 . S
Cd183 O187 2.439 . S
Cd183 O193 2.240 . S
Cd184 O185 2.240 . S
Cd184 O192 2.223 . S
Cd184 O194 2.297 . S
Cd184 O195 2.439 . S
O185 Cd184 2.240 . S
O185 C190 1.279 . S
O186 Cd183 2.297 . S
O186 C188 1.247 . S
O187 Cd183 2.439 . S
O187 C188 1.208 . S
C188 O186 1.247 . S
C188 O187 1.208 . S
C189 O194 1.247 . S
C189 O195 1.208 . S
C190 O182 1.315 . S
C190 O185 1.279 . S
C191 O192 1.315 . S
C191 O193 1.279 . S
O192 Cd184 2.223 . S
O192 C191 1.315 . S
O193 Cd183 2.240 . S
O193 C191 1.279 . S
O194 Cd184 2.297 . S
O194 C189 1.247 . S
O195 Cd184 2.439 . S
O195 C189 1.208 . S
O196 Cd197 2.223 . S
O196 C204 1.315 . S
Cd197 O196 2.223 . S
Cd197 O200 2.297 . S
Cd197 O201 2.439 . S
Cd197 O207 2.240 . S
Cd198 O199 2.240 . S
Cd198 O206 2.223 . S
Cd198 O208 2.297 . S
Cd198 O209 2.439 . S
O199 Cd198 2.240 . S
O199 C204 1.279 . S
O200 Cd197 2.297 . S
O200 C202 1.247 . S
O201 Cd197 2.439 . S
O201 C202 1.208 . S
C202 O200 1.247 . S
C202 O201 1.208 . S
C203 O208 1.247 . S
C203 O209 1.208 . S
C204 O196 1.315 . S
C204 O199 1.279 . S
C205 O206 1.315 . S
C205 O207 1.279 . S
O206 Cd198 2.223 . S
O206 C205 1.315 . S
O207 Cd197 2.240 . S
O207 C205 1.279 . S
O208 Cd198 2.297 . S
O208 C203 1.247 . S
O209 Cd198 2.439 . S
O209 C203 1.208 . S
O210 Cd211 2.223 . S
O210 C218 1.315 . S
Cd211 O210 2.223 . S
Cd211 O214 2.297 . S
Cd211 O215 2.439 . S
Cd211 O221 2.240 . S
Cd212 O213 2.240 . S
Cd212 O220 2.223 . S
Cd212 O222 2.297 . S
Cd212 O223 2.439 . S
O213 Cd212 2.240 . S
O213 C218 1.279 . S
O214 Cd211 2.297 . S
O214 C216 1.247 . S
O215 Cd211 2.439 . S
O215 C216 1.208 . S
C216 O214 1.247 . S
C216 O215 1.208 . S
C217 O222 1.247 . S
C217 O223 1.208 . S
C218 O210 1.315 . S
C218 O213 1.279 . S
C219 O220 1.315 . S
C219 O221 1.279 . S
O220 Cd212 2.223 . S
O220 C219 1.315 . S
O221 Cd211 2.240 . S
O221 C219 1.279 . S
O222 Cd212 2.297 . S
O222 C217 1.247 . S
O223 Cd212 2.439 . S
O223 C217 1.208 . S
O224 Cd225 2.223 . S
O224 C232 1.315 . S
Cd225 O224 2.223 . S
Cd225 O228 2.297 . S
Cd225 O229 2.439 . S
Cd225 O235 2.240 . S
Cd226 O227 2.240 . S
Cd226 O234 2.223 . S
Cd226 O236 2.297 . S
Cd226 O237 2.439 . S
O227 Cd226 2.240 . S
O227 C232 1.279 . S
O228 Cd225 2.297 . S
O228 C230 1.247 . S
O229 Cd225 2.439 . S
O229 C230 1.208 . S
C230 O228 1.247 . S
C230 O229 1.208 . S
C231 O236 1.247 . S
C231 O237 1.208 . S
C232 O224 1.315 . S
C232 O227 1.279 . S
C233 O234 1.315 . S
C233 O235 1.279 . S
O234 Cd226 2.223 . S
O234 C233 1.315 . S
O235 Cd225 2.240 . S
O235 C233 1.279 . S
O236 Cd226 2.297 . S
O236 C231 1.247 . S
O237 Cd226 2.439 . S
O237 C231 1.208 . S
O238 Cd239 2.223 . S
O238 C246 1.315 . S
Cd239 O238 2.223 . S
Cd239 O242 2.297 . S
Cd239 O243 2.439 . S
Cd239 O249 2.240 . S
Cd240 O241 2.240 . S
Cd240 O248 2.223 . S
Cd240 O250 2.297 . S
Cd240 O251 2.439 . S
O241 Cd240 2.240 . S
O241 C246 1.279 . S
O242 Cd239 2.297 . S
O242 C244 1.247 . S
O243 Cd239 2.439 . S
O243 C244 1.208 . S
C244 O242 1.247 . S
C244 O243 1.208 . S
C245 O250 1.247 . S
C245 O251 1.208 . S
C246 O238 1.315 . S
C246 O241 1.279 . S
C247 O248 1.315 . S
C247 O249 1.279 . S
O248 Cd240 2.223 . S
O248 C247 1.315 . S
O249 Cd239 2.240 . S
O249 C247 1.279 . S
O250 Cd240 2.297 . S
O250 C245 1.247 . S
O251 Cd240 2.439 . S
O251 C245 1.208 . S
O252 Cd253 2.223 . S
O252 C260 1.315 . S
Cd253 O252 2.223 . S
Cd253 O256 2.297 . S
Cd253 O257 2.439 . S
Cd253 O263 2.240 . S
Cd254 O255 2.240 . S
Cd254 O262 2.223 . S
Cd254 O264 2.297 . S
Cd254 O265 2.439 . S
O255 Cd254 2.240 . S
O255 C260 1.279 . S
O256 Cd253 2.297 . S
O256 C258 1.247 . S
O257 Cd253 2.439 . S
O257 C258 1.208 . S
C258 O256 1.247 . S
C258 O257 1.208 . S
C259 O264 1.247 . S
C259 O265 1.208 . S
C260 O252 1.315 . S
C260 O255 1.279 . S
C261 O262 1.315 . S
C261 O263 1.279 . S
O262 Cd254 2.223 . S
O262 C261 1.315 . S
O263 Cd253 2.240 . S
O263 C261 1.279 . S
O264 Cd254 2.297 . S
O264 C259 1.247 . S
O265 Cd254 2.439 . S
O265 C259 1.208 . S
O266 Cd267 2.223 . S
O266 C274 1.315 . S
Cd267 O266 2.223 . S
Cd267 O270 2.297 . S
Cd267 O271 2.439 . S
Cd267 O277 2.240 . S
Cd268 O269 2.240 . S
Cd268 O276 2.223 . S
Cd268 O278 2.297 . S
Cd268 O279 2.439 . S
O269 Cd268 2.240 . S
O269 C274 1.279 . S
O270 Cd267 2.297 . S
O270 C272 1.247 . S
O271 Cd267 2.439 . S
O271 C272 1.208 . S
C272 O270 1.247 . S
C272 O271 1.208 . S
C273 O278 1.247 . S
C273 O279 1.208 . S
C274 O266 1.315 . S
C274 O269 1.279 . S
C275 O276 1.315 . S
C275 O277 1.279 . S
O276 Cd268 2.223 . S
O276 C275 1.315 . S
O277 Cd267 2.240 . S
O277 C275 1.279 . S
O278 Cd268 2.297 . S
O278 C273 1.247 . S
O279 Cd268 2.439 . S
O279 C273 1.208 . S
O280 Cd281 2.223 . S
O280 C288 1.315 . S
Cd281 O280 2.223 . S
Cd281 O284 2.297 . S
Cd281 O285 2.439 . S
Cd281 O291 2.240 . S
Cd282 O283 2.240 . S
Cd282 O290 2.223 . S
Cd282 O292 2.297 . S
Cd282 O293 2.439 . S
O283 Cd282 2.240 . S
O283 C288 1.279 . S
O284 Cd281 2.297 . S
O284 C286 1.247 . S
O285 Cd281 2.439 . S
O285 C286 1.208 . S
C286 O284 1.247 . S
C286 O285 1.208 . S
C287 O292 1.247 . S
C287 O293 1.208 . S
C288 O280 1.315 . S
C288 O283 1.279 . S
C289 O290 1.315 . S
C289 O291 1.279 . S
O290 Cd282 2.223 . S
O290 C289 1.315 . S
O291 Cd281 2.240 . S
O291 C289 1.279 . S
O292 Cd282 2.297 . S
O292 C287 1.247 . S
O293 Cd282 2.439 . S
O293 C287 1.208 . S
O294 Cd295 2.223 . S
O294 C302 1.315 . S
Cd295 O294 2.223 . S
Cd295 O298 2.297 . S
Cd295 O299 2.439 . S
Cd295 O305 2.240 . S
Cd296 O297 2.240 . S
Cd296 O304 2.223 . S
Cd296 O306 2.297 . S
Cd296 O307 2.439 . S
O297 Cd296 2.240 . S
O297 C302 1.279 . S
O298 Cd295 2.297 . S
O298 C300 1.247 . S
O299 Cd295 2.439 . S
O299 C300 1.208 . S
C300 O298 1.247 . S
C300 O299 1.208 . S
C301 O306 1.247 . S
C301 O307 1.208 . S
C302 O294 1.315 . S
C302 O297 1.279 . S
C303 O304 1.315 . S
C303 O305 1.279 . S
O304 Cd296 2.223 . S
O304 C303 1.315 . S
O305 Cd295 2.240 . S
O305 C303 1.279 . S
O306 Cd296 2.297 . S
O306 C301 1.247 . S
O307 Cd296 2.439 . S
O307 C301 1.208 . S
O308 Cd309 2.223 . S
O308 C316 1.315 . S
Cd309 O308 2.223 . S
Cd309 O312 2.297 . S
Cd309 O313 2.439 . S
Cd309 O319 2.240 . S
Cd310 O311 2.240 . S
Cd310 O318 2.223 . S
Cd310 O320 2.297 . S
Cd310 O321 2.439 . S
O311 Cd310 2.240 . S
O311 C316 1.279 . S
O312 Cd309 2.297 . S
O312 C314 1.247 . S
O313 Cd309 2.439 . S
O313 C314 1.208 . S
C314 O312 1.247 . S
C314 O313 1.208 . S
C315 O320 1.247 . S
C315 O321 1.208 . S
C316 O308 1.315 . S
C316 O311 1.279 . S
C317 O318 1.315 . S
C317 O319 1.279 . S
O318 Cd310 2.223 . S
O318 C317 1.315 . S
O319 Cd309 2.240 . S
O319 C317 1.279 . S
O320 Cd310 2.297 . S
O320 C315 1.247 . S
O321 Cd310 2.439 . S
O321 C315 1.208 . S
O322 Cd323 2.223 . S
O322 C330 1.315 . S
Cd323 O322 2.223 . S
Cd323 O326 2.297 . S
Cd323 O327 2.439 . S
Cd323 O333 2.240 . S
Cd324 O325 2.240 . S
Cd324 O332 2.223 . S
Cd324 O334 2.297 . S
Cd324 O335 2.439 . S
O325 Cd324 2.240 . S
O325 C330 1.279 . S
O326 Cd323 2.297 . S
O326 C328 1.247 . S
O327 Cd323 2.439 . S
O327 C328 1.208 . S
C328 O326 1.247 . S
C328 O327 1.208 . S
C329 O334 1.247 . S
C329 O335 1.208 . S
C330 O322 1.315 . S
C330 O325 1.279 . S
C331 O332 1.315 . S
C331 O333 1.279 . S
O332 Cd324 2.223 . S
O332 C331 1.315 . S
O333 Cd323 2.240 . S
O333 C331 1.279 . S
O334 Cd324 2.297 . S
O334 C329 1.247 . S
O335 Cd324 2.439 . S
O335 C329 1.208 . S
O336 Cd337 2.223 . S
O336 C344 1.315 . S
Cd337 O336 2.223 . S
Cd337 O340 2.297 . S
Cd337 O341 2.439 . S
Cd337 O347 2.240 . S
Cd338 O339 2.240 . S
Cd338 O346 2.223 . S
Cd338 O348 2.297 . S
Cd338 O349 2.439 . S
O339 Cd338 2.240 . S
O339 C344 1.279 . S
O340 Cd337 2.297 . S
O340 C342 1.247 . S
O341 Cd337 2.439 . S
O341 C342 1.208 . S
C342 O340 1.247 . S
C342 O341 1.208 . S
C343 O348 1.247 . S
C343 O349 1.208 . S
C344 O336 1.315 . S
C344 O339 1.279 . S
C345 O346 1.315 . S
C345 O347 1.279 . S
O346 Cd338 2.223 . S
O346 C345 1.315 . S
O347 Cd337 2.240 . S
O347 C345 1.279 . S
O348 Cd338 2.297 . S
O348 C343 1.247 . S
O349 Cd338 2.439 . S
O349 C343 1.208 . S
O350 Cd351 2.223 . S
O350 C358 1.315 . S
Cd351 O350 2.223 . S
Cd351 O354 2.297 . S
Cd351 O355 2.439 . S
Cd351 O361 2.240 . S
Cd352 O353 2.240 . S
Cd352 O360 2.223 . S
Cd352 O362 2.297 . S
Cd352 O363 2.439 . S
O353 Cd352 2.240 . S
O353 C358 1.279 . S
O354 Cd351 2.297 . S
O354 C356 1.247 . S
O355 Cd351 2.439 . S
O355 C356 1.208 . S
C356 O354 1.247 . S
C356 O355 1.208 . S
C357 O362 1.247 . S
C357 O363 1.208 . S
C358 O350 1.315 . S
C358 O353 1.279 . S
C359 O360 1.315 . S
C359 O361 1.279 . S
O360 Cd352 2.223 . S
O360 C359 1.315 . S
O361 Cd351 2.240 . S
O361 C359 1.279 . S
O362 Cd352 2.297 . S
O362 C357 1.247 . S
O363 Cd352 2.439 . S
O363 C357 1.208 . S
O364 Cd365 2.223 . S
O364 C372 1.315 . S
Cd365 O364 2.223 . S
Cd365 O368 2.297 . S
Cd365 O369 2.439 . S
Cd365 O375 2.240 . S
Cd366 O367 2.240 . S
Cd366 O374 2.223 . S
Cd366 O376 2.297 . S
Cd366 O377 2.439 . S
O367 Cd366 2.240 . S
O367 C372 1.279 . S
O368 Cd365 2.297 . S
O368 C370 1.247 . S
O369 Cd365 2.439 . S
O369 C370 1.208 . S
C370 O368 1.247 . S
C370 O369 1.208 . S
C371 O376 1.247 . S
C371 O377 1.208 . S
C372 O364 1.315 . S
C372 O367 1.279 . S
C373 O374 1.315 . S
C373 O375 1.279 . S
O374 Cd366 2.223 . S
O374 C373 1.315 . S
O375 Cd365 2.240 . S
O375 C373 1.279 . S
O376 Cd366 2.297 . S
O376 C371 1.247 . S
O377 Cd366 2.439 . S
O377 C371 1.208 . S
O378 Cd379 2.223 . S
O378 C386 1.315 . S
Cd379 O378 2.223 . S
Cd379 O382 2.297 . S
Cd379 O383 2.439 . S
Cd379 O389 2.240 . S
Cd380 O381 2.240 . S
Cd380 O388 2.223 . S
Cd380 O390 2.297 . S
Cd380 O391 2.439 . S
O381 Cd380 2.240 . S
O381 C386 1.279 . S
O382 Cd379 2.297 . S
O382 C384 1.247 . S
O383 Cd379 2.439 . S
O383 C384 1.208 . S
C384 O382 1.247 . S
C384 O383 1.208 . S
C385 O390 1.247 . S
C385 O391 1.208 . S
C386 O378 1.315 . S
C386 O381 1.279 . S
C387 O388 1.315 . S
C387 O389 1.279 . S
O388 Cd380 2.223 . S
O388 C387 1.315 . S
O389 Cd379 2.240 . S
O389 C387 1.279 . S
O390 Cd380 2.297 . S
O390 C385 1.247 . S
O391 Cd380 2.439 . S
O391 C385 1.208 . S
O392 Cd393 2.223 . S
O392 C400 1.315 . S
Cd393 O392 2.223 . S
Cd393 O396 2.297 . S
Cd393 O397 2.439 . S
Cd393 O403 2.240 . S
Cd394 O395 2.240 . S
Cd394 O402 2.223 . S
Cd394 O404 2.297 . S
Cd394 O405 2.439 . S
O395 Cd394 2.240 . S
O395 C400 1.279 . S
O396 Cd393 2.297 . S
O396 C398 1.247 . S
O397 Cd393 2.439 . S
O397 C398 1.208 . S
C398 O396 1.247 . S
C398 O397 1.208 . S
C399 O404 1.247 . S
C399 O405 1.208 . S
C400 O392 1.315 . S
C400 O395 1.279 . S
C401 O402 1.315 . S
C401 O403 1.279 . S
O402 Cd394 2.223 . S
O402 C401 1.315 . S
O403 Cd393 2.240 . S
O403 C401 1.279 . S
O404 Cd394 2.297 . S
O404 C399 1.247 . S
O405 Cd394 2.439 . S
O405 C399 1.208 . S
O406 Cd407 2.223 . S
O406 C414 1.315 . S
Cd407 O406 2.223 . S
Cd407 O410 2.297 . S
Cd407 O411 2.439 . S
Cd407 O417 2.240 . S
Cd408 O409 2.240 . S
Cd408 O416 2.223 . S
Cd408 O418 2.297 . S
Cd408 O419 2.439 . S
O409 Cd408 2.240 . S
O409 C414 1.279 . S
O410 Cd407 2.297 . S
O410 C412 1.247 . S
O411 Cd407 2.439 . S
O411 C412 1.208 . S
C412 O410 1.247 . S
C412 O411 1.208 . S
C413 O418 1.247 . S
C413 O419 1.208 . S
C414 O406 1.315 . S
C414 O409 1.279 . S
C415 O416 1.315 . S
C415 O417 1.279 . S
O416 Cd408 2.223 . S
O416 C415 1.315 . S
O417 Cd407 2.240 . S
O417 C415 1.279 . S
O418 Cd408 2.297 . S
O418 C413 1.247 . S
O419 Cd408 2.439 . S
O419 C413 1.208 . S
O420 Cd421 2.223 . S
O420 C428 1.315 . S
Cd421 O420 2.223 . S
Cd421 O424 2.297 . S
Cd421 O425 2.439 . S
Cd421 O431 2.240 . S
Cd422 O423 2.240 . S
Cd422 O430 2.223 . S
Cd422 O432 2.297 . S
Cd422 O433 2.439 . S
O423 Cd422 2.240 . S
O423 C428 1.279 . S
O424 Cd421 2.297 . S
O424 C426 1.247 . S
O425 Cd421 2.439 . S
O425 C426 1.208 . S
C426 O424 1.247 . S
C426 O425 1.208 . S
C427 O432 1.247 . S
C427 O433 1.208 . S
C428 O420 1.315 . S
C428 O423 1.279 . S
C429 O430 1.315 . S
C429 O431 1.279 . S
O430 Cd422 2.223 . S
O430 C429 1.315 . S
O431 Cd421 2.240 . S
O431 C429 1.279 . S
O432 Cd422 2.297 . S
O432 C427 1.247 . S
O433 Cd422 2.439 . S
O433 C427 1.208 . S
O434 Cd435 2.223 . S
O434 C442 1.315 . S
Cd435 O434 2.223 . S
Cd435 O438 2.297 . S
Cd435 O439 2.439 . S
Cd435 O445 2.240 . S
Cd436 O437 2.240 . S
Cd436 O444 2.223 . S
Cd436 O446 2.297 . S
Cd436 O447 2.439 . S
O437 Cd436 2.240 . S
O437 C442 1.279 . S
O438 Cd435 2.297 . S
O438 C440 1.247 . S
O439 Cd435 2.439 . S
O439 C440 1.208 . S
C440 O438 1.247 . S
C440 O439 1.208 . S
C441 O446 1.247 . S
C441 O447 1.208 . S
C442 O434 1.315 . S
C442 O437 1.279 . S
C443 O444 1.315 . S
C443 O445 1.279 . S
O444 Cd436 2.223 . S
O444 C443 1.315 . S
O445 Cd435 2.240 . S
O445 C443 1.279 . S
O446 Cd436 2.297 . S
O446 C441 1.247 . S
O447 Cd436 2.439 . S
O447 C441 1.208 . S
O448 Cd449 2.223 . S
O448 C456 1.315 . S
Cd449 O448 2.223 . S
Cd449 O452 2.297 . S
Cd449 O453 2.439 . S
Cd449 O459 2.240 . S
Cd450 O451 2.240 . S
Cd450 O458 2.223 . S
Cd450 O460 2.297 . S
Cd450 O461 2.439 . S
O451 Cd450 2.240 . S
O451 C456 1.279 . S
O452 Cd449 2.297 . S
O452 C454 1.247 . S
O453 Cd449 2.439 . S
O453 C454 1.208 . S
C454 O452 1.247 . S
C454 O453 1.208 . S
C455 O460 1.247 . S
C455 O461 1.208 . S
C456 O448 1.315 . S
C456 O451 1.279 . S
C457 O458 1.315 . S
C457 O459 1.279 . S
O458 Cd450 2.223 . S
O458 C457 1.315 . S
O459 Cd449 2.240 . S
O459 C457 1.279 . S
O460 Cd450 2.297 . S
O460 C455 1.247 . S
O461 Cd450 2.439 . S
O461 C455 1.208 . S
O462 Cd463 2.223 . S
O462 C470 1.315 . S
Cd463 O462 2.223 . S
Cd463 O466 2.297 . S
Cd463 O467 2.439 . S
Cd463 O473 2.240 . S
Cd464 O465 2.240 . S
Cd464 O472 2.223 . S
Cd464 O474 2.297 . S
Cd464 O475 2.439 . S
O465 Cd464 2.240 . S
O465 C470 1.279 . S
O466 Cd463 2.297 . S
O466 C468 1.247 . S
O467 Cd463 2.439 . S
O467 C468 1.208 . S
C468 O466 1.247 . S
C468 O467 1.208 . S
C469 O474 1.247 . S
C469 O475 1.208 . S
C470 O462 1.315 . S
C470 O465 1.279 . S
C471 O472 1.315 . S
C471 O473 1.279 . S
O472 Cd464 2.223 . S
O472 C471 1.315 . S
O473 Cd463 2.240 . S
O473 C471 1.279 . S
O474 Cd464 2.297 . S
O474 C469 1.247 . S
O475 Cd464 2.439 . S
O475 C469 1.208 . S
O476 Cd477 2.223 . S
O476 C484 1.315 . S
Cd477 O476 2.223 . S
Cd477 O480 2.297 . S
Cd477 O481 2.439 . S
Cd477 O487 2.240 . S
Cd478 O479 2.240 . S
Cd478 O486 2.223 . S
Cd478 O488 2.297 . S
Cd478 O489 2.439 . S
O479 Cd478 2.240 . S
O479 C484 1.279 . S
O480 Cd477 2.297 . S
O480 C482 1.247 . S
O481 Cd477 2.439 . S
O481 C482 1.208 . S
C482 O480 1.247 . S
C482 O481 1.208 . S
C483 O488 1.247 . S
C483 O489 1.208 . S
C484 O476 1.315 . S
C484 O479 1.279 . S
C485 O486 1.315 . S
C485 O487 1.279 . S
O486 Cd478 2.223 . S
O486 C485 1.315 . S
O487 Cd477 2.240 . S
O487 C485 1.279 . S
O488 Cd478 2.297 . S
O488 C483 1.247 . S
O489 Cd478 2.439 . S
O489 C483 1.208 . S
O490 Cd491 2.223 . S
O490 C498 1.315 . S
Cd491 O490 2.223 . S
Cd491 O494 2.297 . S
Cd491 O495 2.439 . S
Cd491 O501 2.240 . S
Cd492 O493 2.240 . S
Cd492 O500 2.223 . S
Cd492 O502 2.297 . S
Cd492 O503 2.439 . S
O493 Cd492 2.240 . S
O493 C498 1.279 . S
O494 Cd491 2.297 . S
O494 C496 1.247 . S
O495 Cd491 2.439 . S
O495 C496 1.208 . S
C496 O494 1.247 . S
C496 O495 1.208 . S
C497 O502 1.247 . S
C497 O503 1.208 . S
C498 O490 1.315 . S
C498 O493 1.279 . S
C499 O500 1.315 . S
C499 O501 1.279 . S
O500 Cd492 2.223 . S
O500 C499 1.315 . S
O501 Cd491 2.240 . S
O501 C499 1.279 . S
O502 Cd492 2.297 . S
O502 C497 1.247 . S
O503 Cd492 2.439 . S
O503 C497 1.208 . S
O504 Cd505 2.223 . S
O504 C512 1.315 . S
Cd505 O504 2.223 . S
Cd505 O508 2.297 . S
Cd505 O509 2.439 . S
Cd505 O515 2.240 . S
Cd506 O507 2.240 . S
Cd506 O514 2.223 . S
Cd506 O516 2.297 . S
Cd506 O517 2.439 . S
O507 Cd506 2.240 . S
O507 C512 1.279 . S
O508 Cd505 2.297 . S
O508 C510 1.247 . S
O509 Cd505 2.439 . S
O509 C510 1.208 . S
C510 O508 1.247 . S
C510 O509 1.208 . S
C511 O516 1.247 . S
C511 O517 1.208 . S
C512 O504 1.315 . S
C512 O507 1.279 . S
C513 O514 1.315 . S
C513 O515 1.279 . S
O514 Cd506 2.223 . S
O514 C513 1.315 . S
O515 Cd505 2.240 . S
O515 C513 1.279 . S
O516 Cd506 2.297 . S
O516 C511 1.247 . S
O517 Cd506 2.439 . S
O517 C511 1.208 . S
O518 Cd519 2.223 . S
O518 C526 1.315 . S
Cd519 O518 2.223 . S
Cd519 O522 2.297 . S
Cd519 O523 2.439 . S
Cd519 O529 2.240 . S
Cd520 O521 2.240 . S
Cd520 O528 2.223 . S
Cd520 O530 2.297 . S
Cd520 O531 2.439 . S
O521 Cd520 2.240 . S
O521 C526 1.279 . S
O522 Cd519 2.297 . S
O522 C524 1.247 . S
O523 Cd519 2.439 . S
O523 C524 1.208 . S
C524 O522 1.247 . S
C524 O523 1.208 . S
C525 O530 1.247 . S
C525 O531 1.208 . S
C526 O518 1.315 . S
C526 O521 1.279 . S
C527 O528 1.315 . S
C527 O529 1.279 . S
O528 Cd520 2.223 . S
O528 C527 1.315 . S
O529 Cd519 2.240 . S
O529 C527 1.279 . S
O530 Cd520 2.297 . S
O530 C525 1.247 . S
O531 Cd520 2.439 . S
O531 C525 1.208 . S
O532 Cd533 2.223 . S
O532 C540 1.315 . S
Cd533 O532 2.223 . S
Cd533 O536 2.297 . S
Cd533 O537 2.439 . S
Cd533 O543 2.240 . S
Cd534 O535 2.240 . S
Cd534 O542 2.223 . S
Cd534 O544 2.297 . S
Cd534 O545 2.439 . S
O535 Cd534 2.240 . S
O535 C540 1.279 . S
O536 Cd533 2.297 . S
O536 C538 1.247 . S
O537 Cd533 2.439 . S
O537 C538 1.208 . S
C538 O536 1.247 . S
C538 O537 1.208 . S
C539 O544 1.247 . S
C539 O545 1.208 . S
C540 O532 1.315 . S
C540 O535 1.279 . S
C541 O542 1.315 . S
C541 O543 1.279 . S
O542 Cd534 2.223 . S
O542 C541 1.315 . S
O543 Cd533 2.240 . S
O543 C541 1.279 . S
O544 Cd534 2.297 . S
O544 C539 1.247 . S
O545 Cd534 2.439 . S
O545 C539 1.208 . S
O546 Cd547 2.223 . S
O546 C554 1.315 . S
Cd547 O546 2.223 . S
Cd547 O550 2.297 . S
Cd547 O551 2.439 . S
Cd547 O557 2.240 . S
Cd548 O549 2.240 . S
Cd548 O556 2.223 . S
Cd548 O558 2.297 . S
Cd548 O559 2.439 . S
O549 Cd548 2.240 . S
O549 C554 1.279 . S
O550 Cd547 2.297 . S
O550 C552 1.247 . S
O551 Cd547 2.439 . S
O551 C552 1.208 . S
C552 O550 1.247 . S
C552 O551 1.208 . S
C553 O558 1.247 . S
C553 O559 1.208 . S
C554 O546 1.315 . S
C554 O549 1.279 . S
C555 O556 1.315 . S
C555 O557 1.279 . S
O556 Cd548 2.223 . S
O556 C555 1.315 . S
O557 Cd547 2.240 . S
O557 C555 1.279 . S
O558 Cd548 2.297 . S
O558 C553 1.247 . S
O559 Cd548 2.439 . S
O559 C553 1.208 . S
O560 Cd561 2.223 . S
O560 C568 1.315 . S
Cd561 O560 2.223 . S
Cd561 O564 2.297 . S
Cd561 O565 2.439 . S
Cd561 O571 2.240 . S
Cd562 O563 2.240 . S
Cd562 O570 2.223 . S
Cd562 O572 2.297 . S
Cd562 O573 2.439 . S
O563 Cd562 2.240 . S
O563 C568 1.279 . S
O564 Cd561 2.297 . S
O564 C566 1.247 . S
O565 Cd561 2.439 . S
O565 C566 1.208 . S
C566 O564 1.247 . S
C566 O565 1.208 . S
C567 O572 1.247 . S
C567 O573 1.208 . S
C568 O560 1.315 . S
C568 O563 1.279 . S
C569 O570 1.315 . S
C569 O571 1.279 . S
O570 Cd562 2.223 . S
O570 C569 1.315 . S
O571 Cd561 2.240 . S
O571 C569 1.279 . S
O572 Cd562 2.297 . S
O572 C567 1.247 . S
O573 Cd562 2.439 . S
O573 C567 1.208 . S
O574 Cd575 2.223 . S
O574 C582 1.315 . S
Cd575 O574 2.223 . S
Cd575 O578 2.297 . S
Cd575 O579 2.439 . S
Cd575 O585 2.240 . S
Cd576 O577 2.240 . S
Cd576 O584 2.223 . S
Cd576 O586 2.297 . S
Cd576 O587 2.439 . S
O577 Cd576 2.240 . S
O577 C582 1.279 . S
O578 Cd575 2.297 . S
O578 C580 1.247 . S
O579 Cd575 2.439 . S
O579 C580 1.208 . S
C580 O578 1.247 . S
C580 O579 1.208 . S
C581 O586 1.247 . S
C581 O587 1.208 . S
C582 O574 1.315 . S
C582 O577 1.279 . S
C583 O584 1.315 . S
C583 O585 1.279 . S
O584 Cd576 2.223 . S
O584 C583 1.315 . S
O585 Cd575 2.240 . S
O585 C583 1.279 . S
O586 Cd576 2.297 . S
O586 C581 1.247 . S
O587 Cd576 2.439 . S
O587 C581 1.208 . S
O588 Cd589 2.223 . S
O588 C596 1.315 . S
Cd589 O588 2.223 . S
Cd589 O592 2.297 . S
Cd589 O593 2.439 . S
Cd589 O599 2.240 . S
Cd590 O591 2.240 . S
Cd590 O598 2.223 . S
Cd590 O600 2.297 . S
Cd590 O601 2.439 . S
O591 Cd590 2.240 . S
O591 C596 1.279 . S
O592 Cd589 2.297 . S
O592 C594 1.247 . S
O593 Cd589 2.439 . S
O593 C594 1.208 . S
C594 O592 1.247 . S
C594 O593 1.208 . S
C595 O600 1.247 . S
C595 O601 1.208 . S
C596 O588 1.315 . S
C596 O591 1.279 . S
C597 O598 1.315 . S
C597 O599 1.279 . S
O598 Cd590 2.223 . S
O598 C597 1.315 . S
O599 Cd589 2.240 . S
O599 C597 1.279 . S
O600 Cd590 2.297 . S
O600 C595 1.247 . S
O601 Cd590 2.439 . S
O601 C595 1.208 . S
O602 Cd603 2.223 . S
O602 C610 1.315 . S
Cd603 O602 2.223 . S
Cd603 O606 2.297 . S
Cd603 O607 2.439 . S
Cd603 O613 2.240 . S
Cd604 O605 2.240 . S
Cd604 O612 2.223 . S
Cd604 O614 2.297 . S
Cd604 O615 2.439 . S
O605 Cd604 2.240 . S
O605 C610 1.279 . S
O606 Cd603 2.297 . S
O606 C608 1.247 . S
O607 Cd603 2.439 . S
O607 C608 1.208 . S
C608 O606 1.247 . S
C608 O607 1.208 . S
C609 O614 1.247 . S
C609 O615 1.208 . S
C610 O602 1.315 . S
C610 O605 1.279 . S
C611 O612 1.315 . S
C611 O613 1.279 . S
O612 Cd604 2.223 . S
O612 C611 1.315 . S
O613 Cd603 2.240 . S
O613 C611 1.279 . S
O614 Cd604 2.297 . S
O614 C609 1.247 . S
O615 Cd604 2.439 . S
O615 C609 1.208 . S
O616 Cd617 2.223 . S
O616 C624 1.315 . S
Cd617 O616 2.223 . S
Cd617 O620 2.297 . S
Cd617 O621 2.439 . S
Cd617 O627 2.240 . S
Cd618 O619 2.240 . S
Cd618 O626 2.223 . S
Cd618 O628 2.297 . S
Cd618 O629 2.439 . S
O619 Cd618 2.240 . S
O619 C624 1.279 . S
O620 Cd617 2.297 . S
O620 C622 1.247 . S
O621 Cd617 2.439 . S
O621 C622 1.208 . S
C622 O620 1.247 . S
C622 O621 1.208 . S
C623 O628 1.247 . S
C623 O629 1.208 . S
C624 O616 1.315 . S
C624 O619 1.279 . S
C625 O626 1.315 . S
C625 O627 1.279 . S
O626 Cd618 2.223 . S
O626 C625 1.315 . S
O627 Cd617 2.240 . S
O627 C625 1.279 . S
O628 Cd618 2.297 . S
O628 C623 1.247 . S
O629 Cd618 2.439 . S
O629 C623 1.208 . S
O630 Cd631 2.223 . S
O630 C638 1.315 . S
Cd631 O630 2.223 . S
Cd631 O634 2.297 . S
Cd631 O635 2.439 . S
Cd631 O641 2.240 . S
Cd632 O633 2.240 . S
Cd632 O640 2.223 . S
Cd632 O642 2.297 . S
Cd632 O643 2.439 . S
O633 Cd632 2.240 . S
O633 C638 1.279 . S
O634 Cd631 2.297 . S
O634 C636 1.247 . S
O635 Cd631 2.439 . S
O635 C636 1.208 . S
C636 O634 1.247 . S
C636 O635 1.208 . S
C637 O642 1.247 . S
C637 O643 1.208 . S
C638 O630 1.315 . S
C638 O633 1.279 . S
C639 O640 1.315 . S
C639 O641 1.279 . S
O640 Cd632 2.223 . S
O640 C639 1.315 . S
O641 Cd631 2.240 . S
O641 C639 1.279 . S
O642 Cd632 2.297 . S
O642 C637 1.247 . S
O643 Cd632 2.439 . S
O643 C637 1.208 . S
O644 Cd645 2.223 . S
O644 C652 1.315 . S
Cd645 O644 2.223 . S
Cd645 O648 2.297 . S
Cd645 O649 2.439 . S
Cd645 O655 2.240 . S
Cd646 O647 2.240 . S
Cd646 O654 2.223 . S
Cd646 O656 2.297 . S
Cd646 O657 2.439 . S
O647 Cd646 2.240 . S
O647 C652 1.279 . S
O648 Cd645 2.297 . S
O648 C650 1.247 . S
O649 Cd645 2.439 . S
O649 C650 1.208 . S
C650 O648 1.247 . S
C650 O649 1.208 . S
C651 O656 1.247 . S
C651 O657 1.208 . S
C652 O644 1.315 . S
C652 O647 1.279 . S
C653 O654 1.315 . S
C653 O655 1.279 . S
O654 Cd646 2.223 . S
O654 C653 1.315 . S
O655 Cd645 2.240 . S
O655 C653 1.279 . S
O656 Cd646 2.297 . S
O656 C651 1.247 . S
O657 Cd646 2.439 . S
O657 C651 1.208 . S
O658 Cd659 2.223 . S
O658 C666 1.315 . S
Cd659 O658 2.223 . S
Cd659 O662 2.297 . S
Cd659 O663 2.439 . S
Cd659 O669 2.240 . S
Cd660 O661 2.240 . S
Cd660 O668 2.223 . S
Cd660 O670 2.297 . S
Cd660 O671 2.439 . S
O661 Cd660 2.240 . S
O661 C666 1.279 . S
O662 Cd659 2.297 . S
O662 C664 1.247 . S
O663 Cd659 2.439 . S
O663 C664 1.208 . S
C664 O662 1.247 . S
C664 O663 1.208 . S
C665 O670 1.247 . S
C665 O671 1.208 . S
C666 O658 1.315 . S
C666 O661 1.279 . S
C667 O668 1.315 . S
C667 O669 1.279 . S
O668 Cd660 2.223 . S
O668 C667 1.315 . S
O669 Cd659 2.240 . S
O669 C667 1.279 . S
O670 Cd660 2.297 . S
O670 C665 1.247 . S
O671 Cd660 2.439 . S
O671 C665 1.208 . S
C672 C673 1.349 . S
C672 C674 1.327 . S
C672 H697 0.950 . S
C673 C672 1.349 . S
C673 C689 1.349 . S
C674 C672 1.327 . S
C674 C693 1.429 . S
C674 H698 0.950 . S
C675 C692 1.574 1_655 S
C675 C694 1.368 . S
C675 H699 0.949 . S
H676 C680 0.949 . S
C677 C678 1.349 . S
C677 C679 1.327 . S
C677 H700 0.950 . S
C678 C677 1.349 . S
C678 C690 1.349 . S
C679 C677 1.327 . S
C679 C695 1.429 . S
C679 H701 0.950 . S
C680 H676 0.949 . S
C680 C688 1.574 1_455 S
C680 C696 1.368 . S
H681 C689 0.950 . S
H682 C687 0.950 . S
H683 C688 0.949 . S
H684 C690 0.950 . S
H685 C691 0.950 . S
H686 C692 0.949 . S
C687 H682 0.950 . S
C687 C689 1.327 . S
C687 C693 1.429 . S
C688 C680 1.574 1_655 S
C688 H683 0.949 . S
C688 C694 1.368 . S
C689 C673 1.349 . S
C689 H681 0.950 . S
C689 C687 1.327 . S
C690 C678 1.349 . S
C690 H684 0.950 . S
C690 C691 1.327 . S
C691 H685 0.950 . S
C691 C690 1.327 . S
C691 C695 1.429 . S
C692 C675 1.574 1_455 S
C692 H686 0.949 . S
C692 C696 1.368 . S
C693 C674 1.429 . S
C693 C687 1.429 . S
C693 C694 1.523 . S
C694 C675 1.368 . S
C694 C688 1.368 . S
C694 C693 1.523 . S
C695 C679 1.429 . S
C695 C691 1.429 . S
C695 C696 1.523 . S
C696 C680 1.368 . S
C696 C692 1.368 . S
C696 C695 1.523 . S
H697 C672 0.950 . S
H698 C674 0.950 . S
H699 C675 0.949 . S
H700 C677 0.950 . S
H701 C679 0.950 . S
C702 C703 1.349 . S
C702 C704 1.327 . S
C702 H727 0.950 . S
C703 C702 1.349 . S
C703 C719 1.349 . S
C704 C702 1.327 . S
C704 C723 1.429 . S
C704 H728 0.950 . S
C705 C722 1.574 . S
C705 C724 1.368 . S
C705 H729 0.949 . S
H706 C710 0.949 . S
C707 C708 1.349 . S
C707 C709 1.327 . S
C707 H730 0.950 . S
C708 C707 1.349 . S
C708 C720 1.349 . S
C709 C707 1.327 . S
C709 C725 1.429 . S
C709 H731 0.950 . S
C710 H706 0.949 . S
C710 C718 1.574 . S
C710 C726 1.368 . S
H711 C719 0.950 . S
H712 C717 0.950 . S
H713 C718 0.949 . S
H714 C720 0.950 . S
H715 C721 0.950 . S
H716 C722 0.949 . S
C717 H712 0.950 . S
C717 C719 1.327 . S
C717 C723 1.429 . S
C718 C710 1.574 . S
C718 H713 0.949 . S
C718 C724 1.368 . S
C719 C703 1.349 . S
C719 H711 0.950 . S
C719 C717 1.327 . S
C720 C708 1.349 . S
C720 H714 0.950 . S
C720 C721 1.327 . S
C721 H715 0.950 . S
C721 C720 1.327 . S
C721 C725 1.429 . S
C722 C705 1.574 . S
C722 H716 0.949 . S
C722 C726 1.368 . S
C723 C704 1.429 . S
C723 C717 1.429 . S
C723 C724 1.523 . S
C724 C705 1.368 . S
C724 C718 1.368 . S
C724 C723 1.523 . S
C725 C709 1.429 . S
C725 C721 1.429 . S
C725 C726 1.523 . S
C726 C710 1.368 . S
C726 C722 1.368 . S
C726 C725 1.523 . S
H727 C702 0.950 . S
H728 C704 0.950 . S
H729 C705 0.949 . S
H730 C707 0.950 . S
H731 C709 0.950 . S
C732 C733 1.349 . S
C732 C734 1.327 . S
C732 H757 0.950 . S
C733 C732 1.349 . S
C733 C749 1.349 . S
C734 C732 1.327 . S
C734 C753 1.429 . S
C734 H758 0.950 . S
C735 C752 1.574 1_455 S
C735 C754 1.368 . S
C735 H759 0.949 . S
H736 C740 0.949 . S
C737 C738 1.349 . S
C737 C739 1.327 . S
C737 H760 0.950 . S
C738 C737 1.349 . S
C738 C750 1.349 . S
C739 C737 1.327 . S
C739 C755 1.429 . S
C739 H761 0.950 . S
C740 H736 0.949 . S
C740 C748 1.574 1_655 S
C740 C756 1.368 . S
H741 C749 0.950 . S
H742 C747 0.950 . S
H743 C748 0.949 . S
H744 C750 0.950 . S
H745 C751 0.950 . S
H746 C752 0.949 . S
C747 H742 0.950 . S
C747 C749 1.327 . S
C747 C753 1.429 . S
C748 C740 1.574 1_455 S
C748 H743 0.949 . S
C748 C754 1.368 . S
C749 C733 1.349 . S
C749 H741 0.950 . S
C749 C747 1.327 . S
C750 C738 1.349 . S
C750 H744 0.950 . S
C750 C751 1.327 . S
C751 H745 0.950 . S
C751 C750 1.327 . S
C751 C755 1.429 . S
C752 C735 1.574 1_655 S
C752 H746 0.949 . S
C752 C756 1.368 . S
C753 C734 1.429 . S
C753 C747 1.429 . S
C753 C754 1.523 . S
C754 C735 1.368 . S
C754 C748 1.368 . S
C754 C753 1.523 . S
C755 C739 1.429 . S
C755 C751 1.429 . S
C755 C756 1.523 . S
C756 C740 1.368 . S
C756 C752 1.368 . S
C756 C755 1.523 . S
H757 C732 0.950 . S
H758 C734 0.950 . S
H759 C735 0.949 . S
H760 C737 0.950 . S
H761 C739 0.950 . S
C762 C763 1.349 . S
C762 C764 1.327 . S
C762 H787 0.950 . S
C763 C762 1.349 . S
C763 C779 1.349 . S
C764 C762 1.327 . S
C764 C783 1.429 . S
C764 H788 0.950 . S
C765 C782 1.574 . S
C765 C784 1.368 . S
C765 H789 0.949 . S
H766 C770 0.949 . S
C767 C768 1.349 . S
C767 C769 1.327 . S
C767 H790 0.950 . S
C768 C767 1.349 . S
C768 C780 1.349 . S
C769 C767 1.327 . S
C769 C785 1.429 . S
C769 H791 0.950 . S
C770 H766 0.949 . S
C770 C778 1.574 . S
C770 C786 1.368 . S
H771 C779 0.950 . S
H772 C777 0.950 . S
H773 C778 0.949 . S
H774 C780 0.950 . S
H775 C781 0.950 . S
H776 C782 0.949 . S
C777 H772 0.950 . S
C777 C779 1.327 . S
C777 C783 1.429 . S
C778 C770 1.574 . S
C778 H773 0.949 . S
C778 C784 1.368 . S
C779 C763 1.349 . S
C779 H771 0.950 . S
C779 C777 1.327 . S
C780 C768 1.349 . S
C780 H774 0.950 . S
C780 C781 1.327 . S
C781 H775 0.950 . S
C781 C780 1.327 . S
C781 C785 1.429 . S
C782 C765 1.574 . S
C782 H776 0.949 . S
C782 C786 1.368 . S
C783 C764 1.429 . S
C783 C777 1.429 . S
C783 C784 1.523 . S
C784 C765 1.368 . S
C784 C778 1.368 . S
C784 C783 1.523 . S
C785 C769 1.429 . S
C785 C781 1.429 . S
C785 C786 1.523 . S
C786 C770 1.368 . S
C786 C782 1.368 . S
C786 C785 1.523 . S
H787 C762 0.950 . S
H788 C764 0.950 . S
H789 C765 0.949 . S
H790 C767 0.950 . S
H791 C769 0.950 . S
C792 C793 1.349 . S
C792 C794 1.327 . S
C792 H817 0.950 . S
C793 C792 1.349 . S
C793 C809 1.349 . S
C794 C792 1.327 . S
C794 C813 1.429 . S
C794 H818 0.950 . S
C795 C812 1.574 1_655 S
C795 C814 1.368 . S
C795 H819 0.949 . S
H796 C800 0.949 . S
C797 C798 1.349 . S
C797 C799 1.327 . S
C797 H820 0.950 . S
C798 C797 1.349 . S
C798 C810 1.349 . S
C799 C797 1.327 . S
C799 C815 1.429 . S
C799 H821 0.950 . S
C800 H796 0.949 . S
C800 C808 1.574 1_455 S
C800 C816 1.368 . S
H801 C809 0.950 . S
H802 C807 0.950 . S
H803 C808 0.949 . S
H804 C810 0.950 . S
H805 C811 0.950 . S
H806 C812 0.949 . S
C807 H802 0.950 . S
C807 C809 1.327 . S
C807 C813 1.429 . S
C808 C800 1.574 1_655 S
C808 H803 0.949 . S
C808 C814 1.368 . S
C809 C793 1.349 . S
C809 H801 0.950 . S
C809 C807 1.327 . S
C810 C798 1.349 . S
C810 H804 0.950 . S
C810 C811 1.327 . S
C811 H805 0.950 . S
C811 C810 1.327 . S
C811 C815 1.429 . S
C812 C795 1.574 1_455 S
C812 H806 0.949 . S
C812 C816 1.368 . S
C813 C794 1.429 . S
C813 C807 1.429 . S
C813 C814 1.523 . S
C814 C795 1.368 . S
C814 C808 1.368 . S
C814 C813 1.523 . S
C815 C799 1.429 . S
C815 C811 1.429 . S
C815 C816 1.523 . S
C816 C800 1.368 . S
C816 C812 1.368 . S
C816 C815 1.523 . S
H817 C792 0.950 . S
H818 C794 0.950 . S
H819 C795 0.949 . S
H820 C797 0.950 . S
H821 C799 0.950 . S
C822 C823 1.349 . S
C822 C824 1.327 . S
C822 H847 0.950 . S
C823 C822 1.349 . S
C823 C839 1.349 . S
C824 C822 1.327 . S
C824 C843 1.429 . S
C824 H848 0.950 . S
C825 C842 1.574 . S
C825 C844 1.368 . S
C825 H849 0.949 . S
H826 C830 0.949 . S
C827 C828 1.349 . S
C827 C829 1.327 . S
C827 H850 0.950 . S
C828 C827 1.349 . S
C828 C840 1.349 . S
C829 C827 1.327 . S
C829 C845 1.429 . S
C829 H851 0.950 . S
C830 H826 0.949 . S
C830 C838 1.574 . S
C830 C846 1.368 . S
H831 C839 0.950 . S
H832 C837 0.950 . S
H833 C838 0.949 . S
H834 C840 0.950 . S
H835 C841 0.950 . S
H836 C842 0.949 . S
C837 H832 0.950 . S
C837 C839 1.327 . S
C837 C843 1.429 . S
C838 C830 1.574 . S
C838 H833 0.949 . S
C838 C844 1.368 . S
C839 C823 1.349 . S
C839 H831 0.950 . S
C839 C837 1.327 . S
C840 C828 1.349 . S
C840 H834 0.950 . S
C840 C841 1.327 . S
C841 H835 0.950 . S
C841 C840 1.327 . S
C841 C845 1.429 . S
C842 C825 1.574 . S
C842 H836 0.949 . S
C842 C846 1.368 . S
C843 C824 1.429 . S
C843 C837 1.429 . S
C843 C844 1.523 . S
C844 C825 1.368 . S
C844 C838 1.368 . S
C844 C843 1.523 . S
C845 C829 1.429 . S
C845 C841 1.429 . S
C845 C846 1.523 . S
C846 C830 1.368 . S
C846 C842 1.368 . S
C846 C845 1.523 . S
H847 C822 0.950 . S
H848 C824 0.950 . S
H849 C825 0.949 . S
H850 C827 0.950 . S
H851 C829 0.950 . S
C852 C853 1.349 . S
C852 C854 1.327 . S
C852 H877 0.950 . S
C853 C852 1.349 . S
C853 C869 1.349 . S
C854 C852 1.327 . S
C854 C873 1.429 . S
C854 H878 0.950 . S
C855 C872 1.574 1_455 S
C855 C874 1.368 . S
C855 H879 0.949 . S
H856 C860 0.949 . S
C857 C858 1.349 . S
C857 C859 1.327 . S
C857 H880 0.950 . S
C858 C857 1.349 . S
C858 C870 1.349 . S
C859 C857 1.327 . S
C859 C875 1.429 . S
C859 H881 0.950 . S
C860 H856 0.949 . S
C860 C868 1.574 1_655 S
C860 C876 1.368 . S
H861 C869 0.950 . S
H862 C867 0.950 . S
H863 C868 0.949 . S
H864 C870 0.950 . S
H865 C871 0.950 . S
H866 C872 0.949 . S
C867 H862 0.950 . S
C867 C869 1.327 . S
C867 C873 1.429 . S
C868 C860 1.574 1_455 S
C868 H863 0.949 . S
C868 C874 1.368 . S
C869 C853 1.349 . S
C869 H861 0.950 . S
C869 C867 1.327 . S
C870 C858 1.349 . S
C870 H864 0.950 . S
C870 C871 1.327 . S
C871 H865 0.950 . S
C871 C870 1.327 . S
C871 C875 1.429 . S
C872 C855 1.574 1_655 S
C872 H866 0.949 . S
C872 C876 1.368 . S
C873 C854 1.429 . S
C873 C867 1.429 . S
C873 C874 1.523 . S
C874 C855 1.368 . S
C874 C868 1.368 . S
C874 C873 1.523 . S
C875 C859 1.429 . S
C875 C871 1.429 . S
C875 C876 1.523 . S
C876 C860 1.368 . S
C876 C872 1.368 . S
C876 C875 1.523 . S
H877 C852 0.950 . S
H878 C854 0.950 . S
H879 C855 0.949 . S
H880 C857 0.950 . S
H881 C859 0.950 . S
C882 C883 1.349 . S
C882 C884 1.327 . S
C882 H907 0.950 . S
C883 C882 1.349 . S
C883 C899 1.349 . S
C884 C882 1.327 . S
C884 C903 1.429 . S
C884 H908 0.950 . S
C885 C902 1.574 . S
C885 C904 1.368 . S
C885 H909 0.949 . S
H886 C890 0.949 . S
C887 C888 1.349 . S
C887 C889 1.327 . S
C887 H910 0.950 . S
C888 C887 1.349 . S
C888 C900 1.349 . S
C889 C887 1.327 . S
C889 C905 1.429 . S
C889 H911 0.950 . S
C890 H886 0.949 . S
C890 C898 1.574 . S
C890 C906 1.368 . S
H891 C899 0.950 . S
H892 C897 0.950 . S
H893 C898 0.949 . S
H894 C900 0.950 . S
H895 C901 0.950 . S
H896 C902 0.949 . S
C897 H892 0.950 . S
C897 C899 1.327 . S
C897 C903 1.429 . S
C898 C890 1.574 . S
C898 H893 0.949 . S
C898 C904 1.368 . S
C899 C883 1.349 . S
C899 H891 0.950 . S
C899 C897 1.327 . S
C900 C888 1.349 . S
C900 H894 0.950 . S
C900 C901 1.327 . S
C901 H895 0.950 . S
C901 C900 1.327 . S
C901 C905 1.429 . S
C902 C885 1.574 . S
C902 H896 0.949 . S
C902 C906 1.368 . S
C903 C884 1.429 . S
C903 C897 1.429 . S
C903 C904 1.523 . S
C904 C885 1.368 . S
C904 C898 1.368 . S
C904 C903 1.523 . S
C905 C889 1.429 . S
C905 C901 1.429 . S
C905 C906 1.523 . S
C906 C890 1.368 . S
C906 C902 1.368 . S
C906 C905 1.523 . S
H907 C882 0.950 . S
H908 C884 0.950 . S
H909 C885 0.949 . S
H910 C887 0.950 . S
H911 C889 0.950 . S
C912 C913 1.349 . S
C912 C914 1.327 . S
C912 H937 0.950 . S
C913 C912 1.349 . S
C913 C929 1.349 . S
C914 C912 1.327 . S
C914 C933 1.429 . S
C914 H938 0.950 . S
C915 C932 1.574 1_565 S
C915 C934 1.368 . S
C915 H939 0.949 . S
H916 C920 0.949 . S
C917 C918 1.349 . S
C917 C919 1.327 . S
C917 H940 0.950 . S
C918 C917 1.349 . S
C918 C930 1.349 . S
C919 C917 1.327 . S
C919 C935 1.429 . S
C919 H941 0.950 . S
C920 H916 0.949 . S
C920 C928 1.574 1_545 S
C920 C936 1.368 . S
H921 C929 0.950 . S
H922 C927 0.950 . S
H923 C928 0.949 . S
H924 C930 0.950 . S
H925 C931 0.950 . S
H926 C932 0.949 . S
C927 H922 0.950 . S
C927 C929 1.327 . S
C927 C933 1.429 . S
C928 C920 1.574 1_565 S
C928 H923 0.949 . S
C928 C934 1.368 . S
C929 C913 1.349 . S
C929 H921 0.950 . S
C929 C927 1.327 . S
C930 C918 1.349 . S
C930 H924 0.950 . S
C930 C931 1.327 . S
C931 H925 0.950 . S
C931 C930 1.327 . S
C931 C935 1.429 . S
C932 C915 1.574 1_545 S
C932 H926 0.949 . S
C932 C936 1.368 . S
C933 C914 1.429 . S
C933 C927 1.429 . S
C933 C934 1.523 . S
C934 C915 1.368 . S
C934 C928 1.368 . S
C934 C933 1.523 . S
C935 C919 1.429 . S
C935 C931 1.429 . S
C935 C936 1.523 . S
C936 C920 1.368 . S
C936 C932 1.368 . S
C936 C935 1.523 . S
H937 C912 0.950 . S
H938 C914 0.950 . S
H939 C915 0.949 . S
H940 C917 0.950 . S
H941 C919 0.950 . S
C942 C943 1.349 . S
C942 C944 1.327 . S
C942 H967 0.950 . S
C943 C942 1.349 . S
C943 C959 1.349 . S
C944 C942 1.327 . S
C944 C963 1.429 . S
C944 H968 0.950 . S
C945 C962 1.574 . S
C945 C964 1.368 . S
C945 H969 0.949 . S
H946 C950 0.949 . S
C947 C948 1.349 . S
C947 C949 1.327 . S
C947 H970 0.950 . S
C948 C947 1.349 . S
C948 C960 1.349 . S
C949 C947 1.327 . S
C949 C965 1.429 . S
C949 H971 0.950 . S
C950 H946 0.949 . S
C950 C958 1.574 . S
C950 C966 1.368 . S
H951 C959 0.950 . S
H952 C957 0.950 . S
H953 C958 0.949 . S
H954 C960 0.950 . S
H955 C961 0.950 . S
H956 C962 0.949 . S
C957 H952 0.950 . S
C957 C959 1.327 . S
C957 C963 1.429 . S
C958 C950 1.574 . S
C958 H953 0.949 . S
C958 C964 1.368 . S
C959 C943 1.349 . S
C959 H951 0.950 . S
C959 C957 1.327 . S
C960 C948 1.349 . S
C960 H954 0.950 . S
C960 C961 1.327 . S
C961 H955 0.950 . S
C961 C960 1.327 . S
C961 C965 1.429 . S
C962 C945 1.574 . S
C962 H956 0.949 . S
C962 C966 1.368 . S
C963 C944 1.429 . S
C963 C957 1.429 . S
C963 C964 1.523 . S
C964 C945 1.368 . S
C964 C958 1.368 . S
C964 C963 1.523 . S
C965 C949 1.429 . S
C965 C961 1.429 . S
C965 C966 1.523 . S
C966 C950 1.368 . S
C966 C962 1.368 . S
C966 C965 1.523 . S
H967 C942 0.950 . S
H968 C944 0.950 . S
H969 C945 0.949 . S
H970 C947 0.950 . S
H971 C949 0.950 . S
C972 C973 1.349 . S
C972 C974 1.327 . S
C972 H997 0.950 . S
C973 C972 1.349 . S
C973 C989 1.349 . S
C974 C972 1.327 . S
C974 C993 1.429 . S
C974 H998 0.950 . S
C975 C992 1.574 1_545 S
C975 C994 1.368 . S
C975 H999 0.949 . S
H976 C980 0.949 . S
C977 C978 1.349 . S
C977 C979 1.327 . S
C977 H1000 0.950 . S
C978 C977 1.349 . S
C978 C990 1.349 . S
C979 C977 1.327 . S
C979 C995 1.429 . S
C979 H1001 0.950 . S
C980 H976 0.949 . S
C980 C988 1.574 1_565 S
C980 C996 1.368 . S
H981 C989 0.950 . S
H982 C987 0.950 . S
H983 C988 0.949 . S
H984 C990 0.950 . S
H985 C991 0.950 . S
H986 C992 0.949 . S
C987 H982 0.950 . S
C987 C989 1.327 . S
C987 C993 1.429 . S
C988 C980 1.574 1_545 S
C988 H983 0.949 . S
C988 C994 1.368 . S
C989 C973 1.349 . S
C989 H981 0.950 . S
C989 C987 1.327 . S
C990 C978 1.349 . S
C990 H984 0.950 . S
C990 C991 1.327 . S
C991 H985 0.950 . S
C991 C990 1.327 . S
C991 C995 1.429 . S
C992 C975 1.574 1_565 S
C992 H986 0.949 . S
C992 C996 1.368 . S
C993 C974 1.429 . S
C993 C987 1.429 . S
C993 C994 1.523 . S
C994 C975 1.368 . S
C994 C988 1.368 . S
C994 C993 1.523 . S
C995 C979 1.429 . S
C995 C991 1.429 . S
C995 C996 1.523 . S
C996 C980 1.368 . S
C996 C992 1.368 . S
C996 C995 1.523 . S
H997 C972 0.950 . S
H998 C974 0.950 . S
H999 C975 0.949 . S
H1000 C977 0.950 . S
H1001 C979 0.950 . S
C1002 C1003 1.349 . S
C1002 C1004 1.327 . S
C1002 H1027 0.950 . S
C1003 C1002 1.349 . S
C1003 C1019 1.349 . S
C1004 C1002 1.327 . S
C1004 C1023 1.429 . S
C1004 H1028 0.950 . S
C1005 C1022 1.574 . S
C1005 C1024 1.368 . S
C1005 H1029 0.949 . S
H1006 C1010 0.949 . S
C1007 C1008 1.349 . S
C1007 C1009 1.327 . S
C1007 H1030 0.950 . S
C1008 C1007 1.349 . S
C1008 C1020 1.349 . S
C1009 C1007 1.327 . S
C1009 C1025 1.429 . S
C1009 H1031 0.950 . S
C1010 H1006 0.949 . S
C1010 C1018 1.574 . S
C1010 C1026 1.368 . S
H1011 C1019 0.950 . S
H1012 C1017 0.950 . S
H1013 C1018 0.949 . S
H1014 C1020 0.950 . S
H1015 C1021 0.950 . S
H1016 C1022 0.949 . S
C1017 H1012 0.950 . S
C1017 C1019 1.327 . S
C1017 C1023 1.429 . S
C1018 C1010 1.574 . S
C1018 H1013 0.949 . S
C1018 C1024 1.368 . S
C1019 C1003 1.349 . S
C1019 H1011 0.950 . S
C1019 C1017 1.327 . S
C1020 C1008 1.349 . S
C1020 H1014 0.950 . S
C1020 C1021 1.327 . S
C1021 H1015 0.950 . S
C1021 C1020 1.327 . S
C1021 C1025 1.429 . S
C1022 C1005 1.574 . S
C1022 H1016 0.949 . S
C1022 C1026 1.368 . S
C1023 C1004 1.429 . S
C1023 C1017 1.429 . S
C1023 C1024 1.523 . S
C1024 C1005 1.368 . S
C1024 C1018 1.368 . S
C1024 C1023 1.523 . S
C1025 C1009 1.429 . S
C1025 C1021 1.429 . S
C1025 C1026 1.523 . S
C1026 C1010 1.368 . S
C1026 C1022 1.368 . S
C1026 C1025 1.523 . S
H1027 C1002 0.950 . S
H1028 C1004 0.950 . S
H1029 C1005 0.949 . S
H1030 C1007 0.950 . S
H1031 C1009 0.950 . S
C1032 C1033 1.349 . S
C1032 C1034 1.327 . S
C1032 H1057 0.950 . S
C1033 C1032 1.349 . S
C1033 C1049 1.349 . S
C1034 C1032 1.327 . S
C1034 C1053 1.429 . S
C1034 H1058 0.950 . S
C1035 C1052 1.574 1_545 S
C1035 C1054 1.368 . S
C1035 H1059 0.949 . S
H1036 C1040 0.949 . S
C1037 C1038 1.349 . S
C1037 C1039 1.327 . S
C1037 H1060 0.950 . S
C1038 C1037 1.349 . S
C1038 C1050 1.349 . S
C1039 C1037 1.327 . S
C1039 C1055 1.429 . S
C1039 H1061 0.950 . S
C1040 H1036 0.949 . S
C1040 C1048 1.574 1_565 S
C1040 C1056 1.368 . S
H1041 C1049 0.950 . S
H1042 C1047 0.950 . S
H1043 C1048 0.949 . S
H1044 C1050 0.950 . S
H1045 C1051 0.950 . S
H1046 C1052 0.949 . S
C1047 H1042 0.950 . S
C1047 C1049 1.327 . S
C1047 C1053 1.429 . S
C1048 C1040 1.574 1_545 S
C1048 H1043 0.949 . S
C1048 C1054 1.368 . S
C1049 C1033 1.349 . S
C1049 H1041 0.950 . S
C1049 C1047 1.327 . S
C1050 C1038 1.349 . S
C1050 H1044 0.950 . S
C1050 C1051 1.327 . S
C1051 H1045 0.950 . S
C1051 C1050 1.327 . S
C1051 C1055 1.429 . S
C1052 C1035 1.574 1_565 S
C1052 H1046 0.949 . S
C1052 C1056 1.368 . S
C1053 C1034 1.429 . S
C1053 C1047 1.429 . S
C1053 C1054 1.523 . S
C1054 C1035 1.368 . S
C1054 C1048 1.368 . S
C1054 C1053 1.523 . S
C1055 C1039 1.429 . S
C1055 C1051 1.429 . S
C1055 C1056 1.523 . S
C1056 C1040 1.368 . S
C1056 C1052 1.368 . S
C1056 C1055 1.523 . S
H1057 C1032 0.950 . S
H1058 C1034 0.950 . S
H1059 C1035 0.949 . S
H1060 C1037 0.950 . S
H1061 C1039 0.950 . S
C1062 C1063 1.349 . S
C1062 C1064 1.327 . S
C1062 H1087 0.950 . S
C1063 C1062 1.349 . S
C1063 C1079 1.349 . S
C1064 C1062 1.327 . S
C1064 C1083 1.429 . S
C1064 H1088 0.950 . S
C1065 C1082 1.574 . S
C1065 C1084 1.368 . S
C1065 H1089 0.949 . S
H1066 C1070 0.949 . S
C1067 C1068 1.349 . S
C1067 C1069 1.327 . S
C1067 H1090 0.950 . S
C1068 C1067 1.349 . S
C1068 C1080 1.349 . S
C1069 C1067 1.327 . S
C1069 C1085 1.429 . S
C1069 H1091 0.950 . S
C1070 H1066 0.949 . S
C1070 C1078 1.574 . S
C1070 C1086 1.368 . S
H1071 C1079 0.950 . S
H1072 C1077 0.950 . S
H1073 C1078 0.949 . S
H1074 C1080 0.950 . S
H1075 C1081 0.950 . S
H1076 C1082 0.949 . S
C1077 H1072 0.950 . S
C1077 C1079 1.327 . S
C1077 C1083 1.429 . S
C1078 C1070 1.574 . S
C1078 H1073 0.949 . S
C1078 C1084 1.368 . S
C1079 C1063 1.349 . S
C1079 H1071 0.950 . S
C1079 C1077 1.327 . S
C1080 C1068 1.349 . S
C1080 H1074 0.950 . S
C1080 C1081 1.327 . S
C1081 H1075 0.950 . S
C1081 C1080 1.327 . S
C1081 C1085 1.429 . S
C1082 C1065 1.574 . S
C1082 H1076 0.949 . S
C1082 C1086 1.368 . S
C1083 C1064 1.429 . S
C1083 C1077 1.429 . S
C1083 C1084 1.523 . S
C1084 C1065 1.368 . S
C1084 C1078 1.368 . S
C1084 C1083 1.523 . S
C1085 C1069 1.429 . S
C1085 C1081 1.429 . S
C1085 C1086 1.523 . S
C1086 C1070 1.368 . S
C1086 C1082 1.368 . S
C1086 C1085 1.523 . S
H1087 C1062 0.950 . S
H1088 C1064 0.950 . S
H1089 C1065 0.949 . S
H1090 C1067 0.950 . S
H1091 C1069 0.950 . S
C1092 C1093 1.349 . S
C1092 C1094 1.327 . S
C1092 H1117 0.950 . S
C1093 C1092 1.349 . S
C1093 C1109 1.349 . S
C1094 C1092 1.327 . S
C1094 C1113 1.429 . S
C1094 H1118 0.950 . S
C1095 C1112 1.574 1_545 S
C1095 C1114 1.368 . S
C1095 H1119 0.949 . S
H1096 C1100 0.949 . S
C1097 C1098 1.349 . S
C1097 C1099 1.327 . S
C1097 H1120 0.950 . S
C1098 C1097 1.349 . S
C1098 C1110 1.349 . S
C1099 C1097 1.327 . S
C1099 C1115 1.429 . S
C1099 H1121 0.950 . S
C1100 H1096 0.949 . S
C1100 C1108 1.574 1_565 S
C1100 C1116 1.368 . S
H1101 C1109 0.950 . S
H1102 C1107 0.950 . S
H1103 C1108 0.949 . S
H1104 C1110 0.950 . S
H1105 C1111 0.950 . S
H1106 C1112 0.949 . S
C1107 H1102 0.950 . S
C1107 C1109 1.327 . S
C1107 C1113 1.429 . S
C1108 C1100 1.574 1_545 S
C1108 H1103 0.949 . S
C1108 C1114 1.368 . S
C1109 C1093 1.349 . S
C1109 H1101 0.950 . S
C1109 C1107 1.327 . S
C1110 C1098 1.349 . S
C1110 H1104 0.950 . S
C1110 C1111 1.327 . S
C1111 H1105 0.950 . S
C1111 C1110 1.327 . S
C1111 C1115 1.429 . S
C1112 C1095 1.574 1_565 S
C1112 H1106 0.949 . S
C1112 C1116 1.368 . S
C1113 C1094 1.429 . S
C1113 C1107 1.429 . S
C1113 C1114 1.523 . S
C1114 C1095 1.368 . S
C1114 C1108 1.368 . S
C1114 C1113 1.523 . S
C1115 C1099 1.429 . S
C1115 C1111 1.429 . S
C1115 C1116 1.523 . S
C1116 C1100 1.368 . S
C1116 C1112 1.368 . S
C1116 C1115 1.523 . S
H1117 C1092 0.950 . S
H1118 C1094 0.950 . S
H1119 C1095 0.949 . S
H1120 C1097 0.950 . S
H1121 C1099 0.950 . S
C1122 C1123 1.349 . S
C1122 C1124 1.327 . S
C1122 H1147 0.950 . S
C1123 C1122 1.349 . S
C1123 C1139 1.349 . S
C1124 C1122 1.327 . S
C1124 C1143 1.429 . S
C1124 H1148 0.950 . S
C1125 C1142 1.574 . S
C1125 C1144 1.368 . S
C1125 H1149 0.949 . S
H1126 C1130 0.949 . S
C1127 C1128 1.349 . S
C1127 C1129 1.327 . S
C1127 H1150 0.950 . S
C1128 C1127 1.349 . S
C1128 C1140 1.349 . S
C1129 C1127 1.327 . S
C1129 C1145 1.429 . S
C1129 H1151 0.950 . S
C1130 H1126 0.949 . S
C1130 C1138 1.574 . S
C1130 C1146 1.368 . S
H1131 C1139 0.950 . S
H1132 C1137 0.950 . S
H1133 C1138 0.949 . S
H1134 C1140 0.950 . S
H1135 C1141 0.950 . S
H1136 C1142 0.949 . S
C1137 H1132 0.950 . S
C1137 C1139 1.327 . S
C1137 C1143 1.429 . S
C1138 C1130 1.574 . S
C1138 H1133 0.949 . S
C1138 C1144 1.368 . S
C1139 C1123 1.349 . S
C1139 H1131 0.950 . S
C1139 C1137 1.327 . S
C1140 C1128 1.349 . S
C1140 H1134 0.950 . S
C1140 C1141 1.327 . S
C1141 H1135 0.950 . S
C1141 C1140 1.327 . S
C1141 C1145 1.429 . S
C1142 C1125 1.574 . S
C1142 H1136 0.949 . S
C1142 C1146 1.368 . S
C1143 C1124 1.429 . S
C1143 C1137 1.429 . S
C1143 C1144 1.523 . S
C1144 C1125 1.368 . S
C1144 C1138 1.368 . S
C1144 C1143 1.523 . S
C1145 C1129 1.429 . S
C1145 C1141 1.429 . S
C1145 C1146 1.523 . S
C1146 C1130 1.368 . S
C1146 C1142 1.368 . S
C1146 C1145 1.523 . S
H1147 C1122 0.950 . S
H1148 C1124 0.950 . S
H1149 C1125 0.949 . S
H1150 C1127 0.950 . S
H1151 C1129 0.950 . S
C1152 C1153 1.349 . S
C1152 C1154 1.327 . S
C1152 H1177 0.950 . S
C1153 C1152 1.349 . S
C1153 C1169 1.349 . S
C1154 C1152 1.327 . S
C1154 C1173 1.429 . S
C1154 H1178 0.950 . S
C1155 C1172 1.574 1_554 S
C1155 C1174 1.368 . S
C1155 H1179 0.949 . S
H1156 C1160 0.949 . S
C1157 C1158 1.349 . S
C1157 C1159 1.327 . S
C1157 H1180 0.950 . S
C1158 C1157 1.349 . S
C1158 C1170 1.349 . S
C1159 C1157 1.327 . S
C1159 C1175 1.429 . S
C1159 H1181 0.950 . S
C1160 H1156 0.949 . S
C1160 C1168 1.574 1_556 S
C1160 C1176 1.368 . S
H1161 C1169 0.950 . S
H1162 C1167 0.950 . S
H1163 C1168 0.949 . S
H1164 C1170 0.950 . S
H1165 C1171 0.950 . S
H1166 C1172 0.949 . S
C1167 H1162 0.950 . S
C1167 C1169 1.327 . S
C1167 C1173 1.429 . S
C1168 C1160 1.574 1_554 S
C1168 H1163 0.949 . S
C1168 C1174 1.368 . S
C1169 C1153 1.349 . S
C1169 H1161 0.950 . S
C1169 C1167 1.327 . S
C1170 C1158 1.349 . S
C1170 H1164 0.950 . S
C1170 C1171 1.327 . S
C1171 H1165 0.950 . S
C1171 C1170 1.327 . S
C1171 C1175 1.429 . S
C1172 C1155 1.574 1_556 S
C1172 H1166 0.949 . S
C1172 C1176 1.368 . S
C1173 C1154 1.429 . S
C1173 C1167 1.429 . S
C1173 C1174 1.523 . S
C1174 C1155 1.368 . S
C1174 C1168 1.368 . S
C1174 C1173 1.523 . S
C1175 C1159 1.429 . S
C1175 C1171 1.429 . S
C1175 C1176 1.523 . S
C1176 C1160 1.368 . S
C1176 C1172 1.368 . S
C1176 C1175 1.523 . S
H1177 C1152 0.950 . S
H1178 C1154 0.950 . S
H1179 C1155 0.949 . S
H1180 C1157 0.950 . S
H1181 C1159 0.950 . S
C1182 C1183 1.349 . S
C1182 C1184 1.327 . S
C1182 H1207 0.950 . S
C1183 C1182 1.349 . S
C1183 C1199 1.349 . S
C1184 C1182 1.327 . S
C1184 C1203 1.429 . S
C1184 H1208 0.950 . S
C1185 C1202 1.574 1_554 S
C1185 C1204 1.368 . S
C1185 H1209 0.949 . S
H1186 C1190 0.949 . S
C1187 C1188 1.349 . S
C1187 C1189 1.327 . S
C1187 H1210 0.950 . S
C1188 C1187 1.349 . S
C1188 C1200 1.349 . S
C1189 C1187 1.327 . S
C1189 C1205 1.429 . S
C1189 H1211 0.950 . S
C1190 H1186 0.949 . S
C1190 C1198 1.574 1_556 S
C1190 C1206 1.368 . S
H1191 C1199 0.950 . S
H1192 C1197 0.950 . S
H1193 C1198 0.949 . S
H1194 C1200 0.950 . S
H1195 C1201 0.950 . S
H1196 C1202 0.949 . S
C1197 H1192 0.950 . S
C1197 C1199 1.327 . S
C1197 C1203 1.429 . S
C1198 C1190 1.574 1_554 S
C1198 H1193 0.949 . S
C1198 C1204 1.368 . S
C1199 C1183 1.349 . S
C1199 H1191 0.950 . S
C1199 C1197 1.327 . S
C1200 C1188 1.349 . S
C1200 H1194 0.950 . S
C1200 C1201 1.327 . S
C1201 H1195 0.950 . S
C1201 C1200 1.327 . S
C1201 C1205 1.429 . S
C1202 C1185 1.574 1_556 S
C1202 H1196 0.949 . S
C1202 C1206 1.368 . S
C1203 C1184 1.429 . S
C1203 C1197 1.429 . S
C1203 C1204 1.523 . S
C1204 C1185 1.368 . S
C1204 C1198 1.368 . S
C1204 C1203 1.523 . S
C1205 C1189 1.429 . S
C1205 C1201 1.429 . S
C1205 C1206 1.523 . S
C1206 C1190 1.368 . S
C1206 C1202 1.368 . S
C1206 C1205 1.523 . S
H1207 C1182 0.950 . S
H1208 C1184 0.950 . S
H1209 C1185 0.949 . S
H1210 C1187 0.950 . S
H1211 C1189 0.950 . S
C1212 C1213 1.349 . S
C1212 C1214 1.327 . S
C1212 H1237 0.950 . S
C1213 C1212 1.349 . S
C1213 C1229 1.349 . S
C1214 C1212 1.327 . S
C1214 C1233 1.429 . S
C1214 H1238 0.950 . S
C1215 C1232 1.574 . S
C1215 C1234 1.368 . S
C1215 H1239 0.949 . S
H1216 C1220 0.949 . S
C1217 C1218 1.349 . S
C1217 C1219 1.327 . S
C1217 H1240 0.950 . S
C1218 C1217 1.349 . S
C1218 C1230 1.349 . S
C1219 C1217 1.327 . S
C1219 C1235 1.429 . S
C1219 H1241 0.950 . S
C1220 H1216 0.949 . S
C1220 C1228 1.574 . S
C1220 C1236 1.368 . S
H1221 C1229 0.950 . S
H1222 C1227 0.950 . S
H1223 C1228 0.949 . S
H1224 C1230 0.950 . S
H1225 C1231 0.950 . S
H1226 C1232 0.949 . S
C1227 H1222 0.950 . S
C1227 C1229 1.327 . S
C1227 C1233 1.429 . S
C1228 C1220 1.574 . S
C1228 H1223 0.949 . S
C1228 C1234 1.368 . S
C1229 C1213 1.349 . S
C1229 H1221 0.950 . S
C1229 C1227 1.327 . S
C1230 C1218 1.349 . S
C1230 H1224 0.950 . S
C1230 C1231 1.327 . S
C1231 H1225 0.950 . S
C1231 C1230 1.327 . S
C1231 C1235 1.429 . S
C1232 C1215 1.574 . S
C1232 H1226 0.949 . S
C1232 C1236 1.368 . S
C1233 C1214 1.429 . S
C1233 C1227 1.429 . S
C1233 C1234 1.523 . S
C1234 C1215 1.368 . S
C1234 C1228 1.368 . S
C1234 C1233 1.523 . S
C1235 C1219 1.429 . S
C1235 C1231 1.429 . S
C1235 C1236 1.523 . S
C1236 C1220 1.368 . S
C1236 C1232 1.368 . S
C1236 C1235 1.523 . S
H1237 C1212 0.950 . S
H1238 C1214 0.950 . S
H1239 C1215 0.949 . S
H1240 C1217 0.950 . S
H1241 C1219 0.950 . S
C1242 C1243 1.349 . S
C1242 C1244 1.327 . S
C1242 H1267 0.950 . S
C1243 C1242 1.349 . S
C1243 C1259 1.349 . S
C1244 C1242 1.327 . S
C1244 C1263 1.429 . S
C1244 H1268 0.950 . S
C1245 C1262 1.574 1_554 S
C1245 C1264 1.368 . S
C1245 H1269 0.949 . S
H1246 C1250 0.949 . S
C1247 C1248 1.349 . S
C1247 C1249 1.327 . S
C1247 H1270 0.950 . S
C1248 C1247 1.349 . S
C1248 C1260 1.349 . S
C1249 C1247 1.327 . S
C1249 C1265 1.429 . S
C1249 H1271 0.950 . S
C1250 H1246 0.949 . S
C1250 C1258 1.574 1_556 S
C1250 C1266 1.368 . S
H1251 C1259 0.950 . S
H1252 C1257 0.950 . S
H1253 C1258 0.949 . S
H1254 C1260 0.950 . S
H1255 C1261 0.950 . S
H1256 C1262 0.949 . S
C1257 H1252 0.950 . S
C1257 C1259 1.327 . S
C1257 C1263 1.429 . S
C1258 C1250 1.574 1_554 S
C1258 H1253 0.949 . S
C1258 C1264 1.368 . S
C1259 C1243 1.349 . S
C1259 H1251 0.950 . S
C1259 C1257 1.327 . S
C1260 C1248 1.349 . S
C1260 H1254 0.950 . S
C1260 C1261 1.327 . S
C1261 H1255 0.950 . S
C1261 C1260 1.327 . S
C1261 C1265 1.429 . S
C1262 C1245 1.574 1_556 S
C1262 H1256 0.949 . S
C1262 C1266 1.368 . S
C1263 C1244 1.429 . S
C1263 C1257 1.429 . S
C1263 C1264 1.523 . S
C1264 C1245 1.368 . S
C1264 C1258 1.368 . S
C1264 C1263 1.523 . S
C1265 C1249 1.429 . S
C1265 C1261 1.429 . S
C1265 C1266 1.523 . S
C1266 C1250 1.368 . S
C1266 C1262 1.368 . S
C1266 C1265 1.523 . S
H1267 C1242 0.950 . S
H1268 C1244 0.950 . S
H1269 C1245 0.949 . S
H1270 C1247 0.950 . S
H1271 C1249 0.950 . S
C1272 C1273 1.349 . S
C1272 C1274 1.327 . S
C1272 H1297 0.950 . S
C1273 C1272 1.349 . S
C1273 C1289 1.349 . S
C1274 C1272 1.327 . S
C1274 C1293 1.429 . S
C1274 H1298 0.950 . S
C1275 C1292 1.574 . S
C1275 C1294 1.368 . S
C1275 H1299 0.949 . S
H1276 C1280 0.949 . S
C1277 C1278 1.349 . S
C1277 C1279 1.327 . S
C1277 H1300 0.950 . S
C1278 C1277 1.349 . S
C1278 C1290 1.349 . S
C1279 C1277 1.327 . S
C1279 C1295 1.429 . S
C1279 H1301 0.950 . S
C1280 H1276 0.949 . S
C1280 C1288 1.574 . S
C1280 C1296 1.368 . S
H1281 C1289 0.950 . S
H1282 C1287 0.950 . S
H1283 C1288 0.949 . S
H1284 C1290 0.950 . S
H1285 C1291 0.950 . S
H1286 C1292 0.949 . S
C1287 H1282 0.950 . S
C1287 C1289 1.327 . S
C1287 C1293 1.429 . S
C1288 C1280 1.574 . S
C1288 H1283 0.949 . S
C1288 C1294 1.368 . S
C1289 C1273 1.349 . S
C1289 H1281 0.950 . S
C1289 C1287 1.327 . S
C1290 C1278 1.349 . S
C1290 H1284 0.950 . S
C1290 C1291 1.327 . S
C1291 H1285 0.950 . S
C1291 C1290 1.327 . S
C1291 C1295 1.429 . S
C1292 C1275 1.574 . S
C1292 H1286 0.949 . S
C1292 C1296 1.368 . S
C1293 C1274 1.429 . S
C1293 C1287 1.429 . S
C1293 C1294 1.523 . S
C1294 C1275 1.368 . S
C1294 C1288 1.368 . S
C1294 C1293 1.523 . S
C1295 C1279 1.429 . S
C1295 C1291 1.429 . S
C1295 C1296 1.523 . S
C1296 C1280 1.368 . S
C1296 C1292 1.368 . S
C1296 C1295 1.523 . S
H1297 C1272 0.950 . S
H1298 C1274 0.950 . S
H1299 C1275 0.949 . S
H1300 C1277 0.950 . S
H1301 C1279 0.950 . S
C1302 C1303 1.349 . S
C1302 C1304 1.327 . S
C1302 H1327 0.950 . S
C1303 C1302 1.349 . S
C1303 C1319 1.349 . S
C1304 C1302 1.327 . S
C1304 C1323 1.429 . S
C1304 H1328 0.950 . S
C1305 C1322 1.574 1_554 S
C1305 C1324 1.368 . S
C1305 H1329 0.949 . S
H1306 C1310 0.949 . S
C1307 C1308 1.349 . S
C1307 C1309 1.327 . S
C1307 H1330 0.950 . S
C1308 C1307 1.349 . S
C1308 C1320 1.349 . S
C1309 C1307 1.327 . S
C1309 C1325 1.429 . S
C1309 H1331 0.950 . S
C1310 H1306 0.949 . S
C1310 C1318 1.574 1_556 S
C1310 C1326 1.368 . S
H1311 C1319 0.950 . S
H1312 C1317 0.950 . S
H1313 C1318 0.949 . S
H1314 C1320 0.950 . S
H1315 C1321 0.950 . S
H1316 C1322 0.949 . S
C1317 H1312 0.950 . S
C1317 C1319 1.327 . S
C1317 C1323 1.429 . S
C1318 C1310 1.574 1_554 S
C1318 H1313 0.949 . S
C1318 C1324 1.368 . S
C1319 C1303 1.349 . S
C1319 H1311 0.950 . S
C1319 C1317 1.327 . S
C1320 C1308 1.349 . S
C1320 H1314 0.950 . S
C1320 C1321 1.327 . S
C1321 H1315 0.950 . S
C1321 C1320 1.327 . S
C1321 C1325 1.429 . S
C1322 C1305 1.574 1_556 S
C1322 H1316 0.949 . S
C1322 C1326 1.368 . S
C1323 C1304 1.429 . S
C1323 C1317 1.429 . S
C1323 C1324 1.523 . S
C1324 C1305 1.368 . S
C1324 C1318 1.368 . S
C1324 C1323 1.523 . S
C1325 C1309 1.429 . S
C1325 C1321 1.429 . S
C1325 C1326 1.523 . S
C1326 C1310 1.368 . S
C1326 C1322 1.368 . S
C1326 C1325 1.523 . S
H1327 C1302 0.950 . S
H1328 C1304 0.950 . S
H1329 C1305 0.949 . S
H1330 C1307 0.950 . S
H1331 C1309 0.950 . S
C1332 C1333 1.349 . S
C1332 C1334 1.327 . S
C1332 H1357 0.950 . S
C1333 C1332 1.349 . S
C1333 C1349 1.349 . S
C1334 C1332 1.327 . S
C1334 C1353 1.429 . S
C1334 H1358 0.950 . S
C1335 C1352 1.574 . S
C1335 C1354 1.368 . S
C1335 H1359 0.949 . S
H1336 C1340 0.949 . S
C1337 C1338 1.349 . S
C1337 C1339 1.327 . S
C1337 H1360 0.950 . S
C1338 C1337 1.349 . S
C1338 C1350 1.349 . S
C1339 C1337 1.327 . S
C1339 C1355 1.429 . S
C1339 H1361 0.950 . S
C1340 H1336 0.949 . S
C1340 C1348 1.574 . S
C1340 C1356 1.368 . S
H1341 C1349 0.950 . S
H1342 C1347 0.950 . S
H1343 C1348 0.949 . S
H1344 C1350 0.950 . S
H1345 C1351 0.950 . S
H1346 C1352 0.949 . S
C1347 H1342 0.950 . S
C1347 C1349 1.327 . S
C1347 C1353 1.429 . S
C1348 C1340 1.574 . S
C1348 H1343 0.949 . S
C1348 C1354 1.368 . S
C1349 C1333 1.349 . S
C1349 H1341 0.950 . S
C1349 C1347 1.327 . S
C1350 C1338 1.349 . S
C1350 H1344 0.950 . S
C1350 C1351 1.327 . S
C1351 H1345 0.950 . S
C1351 C1350 1.327 . S
C1351 C1355 1.429 . S
C1352 C1335 1.574 . S
C1352 H1346 0.949 . S
C1352 C1356 1.368 . S
C1353 C1334 1.429 . S
C1353 C1347 1.429 . S
C1353 C1354 1.523 . S
C1354 C1335 1.368 . S
C1354 C1348 1.368 . S
C1354 C1353 1.523 . S
C1355 C1339 1.429 . S
C1355 C1351 1.429 . S
C1355 C1356 1.523 . S
C1356 C1340 1.368 . S
C1356 C1352 1.368 . S
C1356 C1355 1.523 . S
H1357 C1332 0.950 . S
H1358 C1334 0.950 . S
H1359 C1335 0.949 . S
H1360 C1337 0.950 . S
H1361 C1339 0.950 . S
C1362 C1363 1.349 . S
C1362 C1364 1.327 . S
C1362 H1387 0.950 . S
C1363 C1362 1.349 . S
C1363 C1379 1.349 . S
C1364 C1362 1.327 . S
C1364 C1383 1.429 . S
C1364 H1388 0.950 . S
C1365 C1382 1.574 . S
C1365 C1384 1.368 . S
C1365 H1389 0.949 . S
H1366 C1370 0.949 . S
C1367 C1368 1.349 . S
C1367 C1369 1.327 . S
C1367 H1390 0.950 . S
C1368 C1367 1.349 . S
C1368 C1380 1.349 . S
C1369 C1367 1.327 . S
C1369 C1385 1.429 . S
C1369 H1391 0.950 . S
C1370 H1366 0.949 . S
C1370 C1378 1.574 . S
C1370 C1386 1.368 . S
H1371 C1379 0.950 . S
H1372 C1377 0.950 . S
H1373 C1378 0.949 . S
H1374 C1380 0.950 . S
H1375 C1381 0.950 . S
H1376 C1382 0.949 . S
C1377 H1372 0.950 . S
C1377 C1379 1.327 . S
C1377 C1383 1.429 . S
C1378 C1370 1.574 . S
C1378 H1373 0.949 . S
C1378 C1384 1.368 . S
C1379 C1363 1.349 . S
C1379 H1371 0.950 . S
C1379 C1377 1.327 . S
C1380 C1368 1.349 . S
C1380 H1374 0.950 . S
C1380 C1381 1.327 . S
C1381 H1375 0.950 . S
C1381 C1380 1.327 . S
C1381 C1385 1.429 . S
C1382 C1365 1.574 . S
C1382 H1376 0.949 . S
C1382 C1386 1.368 . S
C1383 C1364 1.429 . S
C1383 C1377 1.429 . S
C1383 C1384 1.523 . S
C1384 C1365 1.368 . S
C1384 C1378 1.368 . S
C1384 C1383 1.523 . S
C1385 C1369 1.429 . S
C1385 C1381 1.429 . S
C1385 C1386 1.523 . S
C1386 C1370 1.368 . S
C1386 C1382 1.368 . S
C1386 C1385 1.523 . S
H1387 C1362 0.950 . S
H1388 C1364 0.950 . S
H1389 C1365 0.949 . S
H1390 C1367 0.950 . S
H1391 C1369 0.950 . S
C1392 C1393 1.349 . S
C1392 C1394 1.327 . S
C1392 H1417 0.950 . S
C1393 C1392 1.349 . S
C1393 C1409 1.349 . S
C1394 C1392 1.327 . S
C1394 C1413 1.429 . S
C1394 H1418 0.950 . S
C1395 C1412 1.574 . S
C1395 C1414 1.368 . S
C1395 H1419 0.949 . S
H1396 C1400 0.949 . S
C1397 C1398 1.349 . S
C1397 C1399 1.327 . S
C1397 H1420 0.950 . S
C1398 C1397 1.349 . S
C1398 C1410 1.349 . S
C1399 C1397 1.327 . S
C1399 C1415 1.429 . S
C1399 H1421 0.950 . S
C1400 H1396 0.949 . S
C1400 C1408 1.574 . S
C1400 C1416 1.368 . S
H1401 C1409 0.950 . S
H1402 C1407 0.950 . S
H1403 C1408 0.949 . S
H1404 C1410 0.950 . S
H1405 C1411 0.950 . S
H1406 C1412 0.949 . S
C1407 H1402 0.950 . S
C1407 C1409 1.327 . S
C1407 C1413 1.429 . S
C1408 C1400 1.574 . S
C1408 H1403 0.949 . S
C1408 C1414 1.368 . S
C1409 C1393 1.349 . S
C1409 H1401 0.950 . S
C1409 C1407 1.327 . S
C1410 C1398 1.349 . S
C1410 H1404 0.950 . S
C1410 C1411 1.327 . S
C1411 H1405 0.950 . S
C1411 C1410 1.327 . S
C1411 C1415 1.429 . S
C1412 C1395 1.574 . S
C1412 H1406 0.949 . S
C1412 C1416 1.368 . S
C1413 C1394 1.429 . S
C1413 C1407 1.429 . S
C1413 C1414 1.523 . S
C1414 C1395 1.368 . S
C1414 C1408 1.368 . S
C1414 C1413 1.523 . S
C1415 C1399 1.429 . S
C1415 C1411 1.429 . S
C1415 C1416 1.523 . S
C1416 C1400 1.368 . S
C1416 C1412 1.368 . S
C1416 C1415 1.523 . S
H1417 C1392 0.950 . S
H1418 C1394 0.950 . S
H1419 C1395 0.949 . S
H1420 C1397 0.950 . S
H1421 C1399 0.950 . S
C1422 C1423 1.349 . S
C1422 C1424 1.327 . S
C1422 H1447 0.950 . S
C1423 C1422 1.349 . S
C1423 C1439 1.349 . S
C1424 C1422 1.327 . S
C1424 C1443 1.429 . S
C1424 H1448 0.950 . S
C1425 C1442 1.574 . S
C1425 C1444 1.368 . S
C1425 H1449 0.949 . S
H1426 C1430 0.949 . S
C1427 C1428 1.349 . S
C1427 C1429 1.327 . S
C1427 H1450 0.950 . S
C1428 C1427 1.349 . S
C1428 C1440 1.349 . S
C1429 C1427 1.327 . S
C1429 C1445 1.429 . S
C1429 H1451 0.950 . S
C1430 H1426 0.949 . S
C1430 C1438 1.574 . S
C1430 C1446 1.368 . S
H1431 C1439 0.950 . S
H1432 C1437 0.950 . S
H1433 C1438 0.949 . S
H1434 C1440 0.950 . S
H1435 C1441 0.950 . S
H1436 C1442 0.949 . S
C1437 H1432 0.950 . S
C1437 C1439 1.327 . S
C1437 C1443 1.429 . S
C1438 C1430 1.574 . S
C1438 H1433 0.949 . S
C1438 C1444 1.368 . S
C1439 C1423 1.349 . S
C1439 H1431 0.950 . S
C1439 C1437 1.327 . S
C1440 C1428 1.349 . S
C1440 H1434 0.950 . S
C1440 C1441 1.327 . S
C1441 H1435 0.950 . S
C1441 C1440 1.327 . S
C1441 C1445 1.429 . S
C1442 C1425 1.574 . S
C1442 H1436 0.949 . S
C1442 C1446 1.368 . S
C1443 C1424 1.429 . S
C1443 C1437 1.429 . S
C1443 C1444 1.523 . S
C1444 C1425 1.368 . S
C1444 C1438 1.368 . S
C1444 C1443 1.523 . S
C1445 C1429 1.429 . S
C1445 C1441 1.429 . S
C1445 C1446 1.523 . S
C1446 C1430 1.368 . S
C1446 C1442 1.368 . S
C1446 C1445 1.523 . S
H1447 C1422 0.950 . S
H1448 C1424 0.950 . S
H1449 C1425 0.949 . S
H1450 C1427 0.950 . S
H1451 C1429 0.950 . S
C1452 C1453 1.349 . S
C1452 C1454 1.327 . S
C1452 H1477 0.950 . S
C1453 C1452 1.349 . S
C1453 C1469 1.349 . S
C1454 C1452 1.327 . S
C1454 C1473 1.429 . S
C1454 H1478 0.950 . S
C1455 C1472 1.574 . S
C1455 C1474 1.368 . S
C1455 H1479 0.949 . S
H1456 C1460 0.949 . S
C1457 C1458 1.349 . S
C1457 C1459 1.327 . S
C1457 H1480 0.950 . S
C1458 C1457 1.349 . S
C1458 C1470 1.349 . S
C1459 C1457 1.327 . S
C1459 C1475 1.429 . S
C1459 H1481 0.950 . S
C1460 H1456 0.949 . S
C1460 C1468 1.574 . S
C1460 C1476 1.368 . S
H1461 C1469 0.950 . S
H1462 C1467 0.950 . S
H1463 C1468 0.949 . S
H1464 C1470 0.950 . S
H1465 C1471 0.950 . S
H1466 C1472 0.949 . S
C1467 H1462 0.950 . S
C1467 C1469 1.327 . S
C1467 C1473 1.429 . S
C1468 C1460 1.574 . S
C1468 H1463 0.949 . S
C1468 C1474 1.368 . S
C1469 C1453 1.349 . S
C1469 H1461 0.950 . S
C1469 C1467 1.327 . S
C1470 C1458 1.349 . S
C1470 H1464 0.950 . S
C1470 C1471 1.327 . S
C1471 H1465 0.950 . S
C1471 C1470 1.327 . S
C1471 C1475 1.429 . S
C1472 C1455 1.574 . S
C1472 H1466 0.949 . S
C1472 C1476 1.368 . S
C1473 C1454 1.429 . S
C1473 C1467 1.429 . S
C1473 C1474 1.523 . S
C1474 C1455 1.368 . S
C1474 C1468 1.368 . S
C1474 C1473 1.523 . S
C1475 C1459 1.429 . S
C1475 C1471 1.429 . S
C1475 C1476 1.523 . S
C1476 C1460 1.368 . S
C1476 C1472 1.368 . S
C1476 C1475 1.523 . S
H1477 C1452 0.950 . S
H1478 C1454 0.950 . S
H1479 C1455 0.949 . S
H1480 C1457 0.950 . S
H1481 C1459 0.950 . S
C1482 C1483 1.349 . S
C1482 C1484 1.327 . S
C1482 H1507 0.950 . S
C1483 C1482 1.349 . S
C1483 C1499 1.349 . S
C1484 C1482 1.327 . S
C1484 C1503 1.429 . S
C1484 H1508 0.950 . S
C1485 C1502 1.574 . S
C1485 C1504 1.368 . S
C1485 H1509 0.949 . S
H1486 C1490 0.949 . S
C1487 C1488 1.349 . S
C1487 C1489 1.327 . S
C1487 H1510 0.950 . S
C1488 C1487 1.349 . S
C1488 C1500 1.349 . S
C1489 C1487 1.327 . S
C1489 C1505 1.429 . S
C1489 H1511 0.950 . S
C1490 H1486 0.949 . S
C1490 C1498 1.574 . S
C1490 C1506 1.368 . S
H1491 C1499 0.950 . S
H1492 C1497 0.950 . S
H1493 C1498 0.949 . S
H1494 C1500 0.950 . S
H1495 C1501 0.950 . S
H1496 C1502 0.949 . S
C1497 H1492 0.950 . S
C1497 C1499 1.327 . S
C1497 C1503 1.429 . S
C1498 C1490 1.574 . S
C1498 H1493 0.949 . S
C1498 C1504 1.368 . S
C1499 C1483 1.349 . S
C1499 H1491 0.950 . S
C1499 C1497 1.327 . S
C1500 C1488 1.349 . S
C1500 H1494 0.950 . S
C1500 C1501 1.327 . S
C1501 H1495 0.950 . S
C1501 C1500 1.327 . S
C1501 C1505 1.429 . S
C1502 C1485 1.574 . S
C1502 H1496 0.949 . S
C1502 C1506 1.368 . S
C1503 C1484 1.429 . S
C1503 C1497 1.429 . S
C1503 C1504 1.523 . S
C1504 C1485 1.368 . S
C1504 C1498 1.368 . S
C1504 C1503 1.523 . S
C1505 C1489 1.429 . S
C1505 C1501 1.429 . S
C1505 C1506 1.523 . S
C1506 C1490 1.368 . S
C1506 C1502 1.368 . S
C1506 C1505 1.523 . S
H1507 C1482 0.950 . S
H1508 C1484 0.950 . S
H1509 C1485 0.949 . S
H1510 C1487 0.950 . S
H1511 C1489 0.950 . S
C1512 C1513 1.349 . S
C1512 C1514 1.327 . S
C1512 H1537 0.950 . S
C1513 C1512 1.349 . S
C1513 C1529 1.349 . S
C1514 C1512 1.327 . S
C1514 C1533 1.429 . S
C1514 H1538 0.950 . S
C1515 C1532 1.574 . S
C1515 C1534 1.368 . S
C1515 H1539 0.949 . S
H1516 C1520 0.949 . S
C1517 C1518 1.349 . S
C1517 C1519 1.327 . S
C1517 H1540 0.950 . S
C1518 C1517 1.349 . S
C1518 C1530 1.349 . S
C1519 C1517 1.327 . S
C1519 C1535 1.429 . S
C1519 H1541 0.950 . S
C1520 H1516 0.949 . S
C1520 C1528 1.574 . S
C1520 C1536 1.368 . S
H1521 C1529 0.950 . S
H1522 C1527 0.950 . S
H1523 C1528 0.949 . S
H1524 C1530 0.950 . S
H1525 C1531 0.950 . S
H1526 C1532 0.949 . S
C1527 H1522 0.950 . S
C1527 C1529 1.327 . S
C1527 C1533 1.429 . S
C1528 C1520 1.574 . S
C1528 H1523 0.949 . S
C1528 C1534 1.368 . S
C1529 C1513 1.349 . S
C1529 H1521 0.950 . S
C1529 C1527 1.327 . S
C1530 C1518 1.349 . S
C1530 H1524 0.950 . S
C1530 C1531 1.327 . S
C1531 H1525 0.950 . S
C1531 C1530 1.327 . S
C1531 C1535 1.429 . S
C1532 C1515 1.574 . S
C1532 H1526 0.949 . S
C1532 C1536 1.368 . S
C1533 C1514 1.429 . S
C1533 C1527 1.429 . S
C1533 C1534 1.523 . S
C1534 C1515 1.368 . S
C1534 C1528 1.368 . S
C1534 C1533 1.523 . S
C1535 C1519 1.429 . S
C1535 C1531 1.429 . S
C1535 C1536 1.523 . S
C1536 C1520 1.368 . S
C1536 C1532 1.368 . S
C1536 C1535 1.523 . S
H1537 C1512 0.950 . S
H1538 C1514 0.950 . S
H1539 C1515 0.949 . S
H1540 C1517 0.950 . S
H1541 C1519 0.950 . S
C1542 C1543 1.349 . S
C1542 C1544 1.327 . S
C1542 H1567 0.950 . S
C1543 C1542 1.349 . S
C1543 C1559 1.349 . S
C1544 C1542 1.327 . S
C1544 C1563 1.429 . S
C1544 H1568 0.950 . S
C1545 C1562 1.574 . S
C1545 C1564 1.368 . S
C1545 H1569 0.949 . S
H1546 C1550 0.949 . S
C1547 C1548 1.349 . S
C1547 C1549 1.327 . S
C1547 H1570 0.950 . S
C1548 C1547 1.349 . S
C1548 C1560 1.349 . S
C1549 C1547 1.327 . S
C1549 C1565 1.429 . S
C1549 H1571 0.950 . S
C1550 H1546 0.949 . S
C1550 C1558 1.574 . S
C1550 C1566 1.368 . S
H1551 C1559 0.950 . S
H1552 C1557 0.950 . S
H1553 C1558 0.949 . S
H1554 C1560 0.950 . S
H1555 C1561 0.950 . S
H1556 C1562 0.949 . S
C1557 H1552 0.950 . S
C1557 C1559 1.327 . S
C1557 C1563 1.429 . S
C1558 C1550 1.574 . S
C1558 H1553 0.949 . S
C1558 C1564 1.368 . S
C1559 C1543 1.349 . S
C1559 H1551 0.950 . S
C1559 C1557 1.327 . S
C1560 C1548 1.349 . S
C1560 H1554 0.950 . S
C1560 C1561 1.327 . S
C1561 H1555 0.950 . S
C1561 C1560 1.327 . S
C1561 C1565 1.429 . S
C1562 C1545 1.574 . S
C1562 H1556 0.949 . S
C1562 C1566 1.368 . S
C1563 C1544 1.429 . S
C1563 C1557 1.429 . S
C1563 C1564 1.523 . S
C1564 C1545 1.368 . S
C1564 C1558 1.368 . S
C1564 C1563 1.523 . S
C1565 C1549 1.429 . S
C1565 C1561 1.429 . S
C1565 C1566 1.523 . S
C1566 C1550 1.368 . S
C1566 C1562 1.368 . S
C1566 C1565 1.523 . S
H1567 C1542 0.950 . S
H1568 C1544 0.950 . S
H1569 C1545 0.949 . S
H1570 C1547 0.950 . S
H1571 C1549 0.950 . S
C1572 C1573 1.349 . S
C1572 C1574 1.327 . S
C1572 H1597 0.950 . S
C1573 C1572 1.349 . S
C1573 C1589 1.349 . S
C1574 C1572 1.327 . S
C1574 C1593 1.429 . S
C1574 H1598 0.950 . S
C1575 C1592 1.574 . S
C1575 C1594 1.368 . S
C1575 H1599 0.949 . S
H1576 C1580 0.949 . S
C1577 C1578 1.349 . S
C1577 C1579 1.327 . S
C1577 H1600 0.950 . S
C1578 C1577 1.349 . S
C1578 C1590 1.349 . S
C1579 C1577 1.327 . S
C1579 C1595 1.429 . S
C1579 H1601 0.950 . S
C1580 H1576 0.949 . S
C1580 C1588 1.574 . S
C1580 C1596 1.368 . S
H1581 C1589 0.950 . S
H1582 C1587 0.950 . S
H1583 C1588 0.949 . S
H1584 C1590 0.950 . S
H1585 C1591 0.950 . S
H1586 C1592 0.949 . S
C1587 H1582 0.950 . S
C1587 C1589 1.327 . S
C1587 C1593 1.429 . S
C1588 C1580 1.574 . S
C1588 H1583 0.949 . S
C1588 C1594 1.368 . S
C1589 C1573 1.349 . S
C1589 H1581 0.950 . S
C1589 C1587 1.327 . S
C1590 C1578 1.349 . S
C1590 H1584 0.950 . S
C1590 C1591 1.327 . S
C1591 H1585 0.950 . S
C1591 C1590 1.327 . S
C1591 C1595 1.429 . S
C1592 C1575 1.574 . S
C1592 H1586 0.949 . S
C1592 C1596 1.368 . S
C1593 C1574 1.429 . S
C1593 C1587 1.429 . S
C1593 C1594 1.523 . S
C1594 C1575 1.368 . S
C1594 C1588 1.368 . S
C1594 C1593 1.523 . S
C1595 C1579 1.429 . S
C1595 C1591 1.429 . S
C1595 C1596 1.523 . S
C1596 C1580 1.368 . S
C1596 C1592 1.368 . S
C1596 C1595 1.523 . S
H1597 C1572 0.950 . S
H1598 C1574 0.950 . S
H1599 C1575 0.949 . S
H1600 C1577 0.950 . S
H1601 C1579 0.950 . S
C1602 C1603 1.349 . S
C1602 C1604 1.327 . S
C1602 H1627 0.950 . S
C1603 C1602 1.349 . S
C1603 C1619 1.349 . S
C1604 C1602 1.327 . S
C1604 C1623 1.429 . S
C1604 H1628 0.950 . S
C1605 C1622 1.574 . S
C1605 C1624 1.368 . S
C1605 H1629 0.949 . S
H1606 C1610 0.949 . S
C1607 C1608 1.349 . S
C1607 C1609 1.327 . S
C1607 H1630 0.950 . S
C1608 C1607 1.349 . S
C1608 C1620 1.349 . S
C1609 C1607 1.327 . S
C1609 C1625 1.429 . S
C1609 H1631 0.950 . S
C1610 H1606 0.949 . S
C1610 C1618 1.574 . S
C1610 C1626 1.368 . S
H1611 C1619 0.950 . S
H1612 C1617 0.950 . S
H1613 C1618 0.949 . S
H1614 C1620 0.950 . S
H1615 C1621 0.950 . S
H1616 C1622 0.949 . S
C1617 H1612 0.950 . S
C1617 C1619 1.327 . S
C1617 C1623 1.429 . S
C1618 C1610 1.574 . S
C1618 H1613 0.949 . S
C1618 C1624 1.368 . S
C1619 C1603 1.349 . S
C1619 H1611 0.950 . S
C1619 C1617 1.327 . S
C1620 C1608 1.349 . S
C1620 H1614 0.950 . S
C1620 C1621 1.327 . S
C1621 H1615 0.950 . S
C1621 C1620 1.327 . S
C1621 C1625 1.429 . S
C1622 C1605 1.574 . S
C1622 H1616 0.949 . S
C1622 C1626 1.368 . S
C1623 C1604 1.429 . S
C1623 C1617 1.429 . S
C1623 C1624 1.523 . S
C1624 C1605 1.368 . S
C1624 C1618 1.368 . S
C1624 C1623 1.523 . S
C1625 C1609 1.429 . S
C1625 C1621 1.429 . S
C1625 C1626 1.523 . S
C1626 C1610 1.368 . S
C1626 C1622 1.368 . S
C1626 C1625 1.523 . S
H1627 C1602 0.950 . S
H1628 C1604 0.950 . S
H1629 C1605 0.949 . S
H1630 C1607 0.950 . S
H1631 C1609 0.950 . S
C1632 C1633 1.349 . S
C1632 C1634 1.327 . S
C1632 H1657 0.950 . S
C1633 C1632 1.349 . S
C1633 C1649 1.349 . S
C1634 C1632 1.327 . S
C1634 C1653 1.429 . S
C1634 H1658 0.950 . S
C1635 C1652 1.574 . S
C1635 C1654 1.368 . S
C1635 H1659 0.949 . S
H1636 C1640 0.949 . S
C1637 C1638 1.349 . S
C1637 C1639 1.327 . S
C1637 H1660 0.950 . S
C1638 C1637 1.349 . S
C1638 C1650 1.349 . S
C1639 C1637 1.327 . S
C1639 C1655 1.429 . S
C1639 H1661 0.950 . S
C1640 H1636 0.949 . S
C1640 C1648 1.574 . S
C1640 C1656 1.368 . S
H1641 C1649 0.950 . S
H1642 C1647 0.950 . S
H1643 C1648 0.949 . S
H1644 C1650 0.950 . S
H1645 C1651 0.950 . S
H1646 C1652 0.949 . S
C1647 H1642 0.950 . S
C1647 C1649 1.327 . S
C1647 C1653 1.429 . S
C1648 C1640 1.574 . S
C1648 H1643 0.949 . S
C1648 C1654 1.368 . S
C1649 C1633 1.349 . S
C1649 H1641 0.950 . S
C1649 C1647 1.327 . S
C1650 C1638 1.349 . S
C1650 H1644 0.950 . S
C1650 C1651 1.327 . S
C1651 H1645 0.950 . S
C1651 C1650 1.327 . S
C1651 C1655 1.429 . S
C1652 C1635 1.574 . S
C1652 H1646 0.949 . S
C1652 C1656 1.368 . S
C1653 C1634 1.429 . S
C1653 C1647 1.429 . S
C1653 C1654 1.523 . S
C1654 C1635 1.368 . S
C1654 C1648 1.368 . S
C1654 C1653 1.523 . S
C1655 C1639 1.429 . S
C1655 C1651 1.429 . S
C1655 C1656 1.523 . S
C1656 C1640 1.368 . S
C1656 C1652 1.368 . S
C1656 C1655 1.523 . S
H1657 C1632 0.950 . S
H1658 C1634 0.950 . S
H1659 C1635 0.949 . S
H1660 C1637 0.950 . S
H1661 C1639 0.950 . S
C1662 C1663 1.349 . S
C1662 C1664 1.327 . S
C1662 H1687 0.950 . S
C1663 C1662 1.349 . S
C1663 C1679 1.349 . S
C1664 C1662 1.327 . S
C1664 C1683 1.429 . S
C1664 H1688 0.950 . S
C1665 C1682 1.574 . S
C1665 C1684 1.368 . S
C1665 H1689 0.949 . S
H1666 C1670 0.949 . S
C1667 C1668 1.349 . S
C1667 C1669 1.327 . S
C1667 H1690 0.950 . S
C1668 C1667 1.349 . S
C1668 C1680 1.349 . S
C1669 C1667 1.327 . S
C1669 C1685 1.429 . S
C1669 H1691 0.950 . S
C1670 H1666 0.949 . S
C1670 C1678 1.574 . S
C1670 C1686 1.368 . S
H1671 C1679 0.950 . S
H1672 C1677 0.950 . S
H1673 C1678 0.949 . S
H1674 C1680 0.950 . S
H1675 C1681 0.950 . S
H1676 C1682 0.949 . S
C1677 H1672 0.950 . S
C1677 C1679 1.327 . S
C1677 C1683 1.429 . S
C1678 C1670 1.574 . S
C1678 H1673 0.949 . S
C1678 C1684 1.368 . S
C1679 C1663 1.349 . S
C1679 H1671 0.950 . S
C1679 C1677 1.327 . S
C1680 C1668 1.349 . S
C1680 H1674 0.950 . S
C1680 C1681 1.327 . S
C1681 H1675 0.950 . S
C1681 C1680 1.327 . S
C1681 C1685 1.429 . S
C1682 C1665 1.574 . S
C1682 H1676 0.949 . S
C1682 C1686 1.368 . S
C1683 C1664 1.429 . S
C1683 C1677 1.429 . S
C1683 C1684 1.523 . S
C1684 C1665 1.368 . S
C1684 C1678 1.368 . S
C1684 C1683 1.523 . S
C1685 C1669 1.429 . S
C1685 C1681 1.429 . S
C1685 C1686 1.523 . S
C1686 C1670 1.368 . S
C1686 C1682 1.368 . S
C1686 C1685 1.523 . S
H1687 C1662 0.950 . S
H1688 C1664 0.950 . S
H1689 C1665 0.949 . S
H1690 C1667 0.950 . S
H1691 C1669 0.950 . S
C1692 C1693 1.349 . S
C1692 C1694 1.327 . S
C1692 H1717 0.950 . S
C1693 C1692 1.349 . S
C1693 C1709 1.349 . S
C1694 C1692 1.327 . S
C1694 C1713 1.429 . S
C1694 H1718 0.950 . S
C1695 C1712 1.574 . S
C1695 C1714 1.368 . S
C1695 H1719 0.949 . S
H1696 C1700 0.949 . S
C1697 C1698 1.349 . S
C1697 C1699 1.327 . S
C1697 H1720 0.950 . S
C1698 C1697 1.349 . S
C1698 C1710 1.349 . S
C1699 C1697 1.327 . S
C1699 C1715 1.429 . S
C1699 H1721 0.950 . S
C1700 H1696 0.949 . S
C1700 C1708 1.574 . S
C1700 C1716 1.368 . S
H1701 C1709 0.950 . S
H1702 C1707 0.950 . S
H1703 C1708 0.949 . S
H1704 C1710 0.950 . S
H1705 C1711 0.950 . S
H1706 C1712 0.949 . S
C1707 H1702 0.950 . S
C1707 C1709 1.327 . S
C1707 C1713 1.429 . S
C1708 C1700 1.574 . S
C1708 H1703 0.949 . S
C1708 C1714 1.368 . S
C1709 C1693 1.349 . S
C1709 H1701 0.950 . S
C1709 C1707 1.327 . S
C1710 C1698 1.349 . S
C1710 H1704 0.950 . S
C1710 C1711 1.327 . S
C1711 H1705 0.950 . S
C1711 C1710 1.327 . S
C1711 C1715 1.429 . S
C1712 C1695 1.574 . S
C1712 H1706 0.949 . S
C1712 C1716 1.368 . S
C1713 C1694 1.429 . S
C1713 C1707 1.429 . S
C1713 C1714 1.523 . S
C1714 C1695 1.368 . S
C1714 C1708 1.368 . S
C1714 C1713 1.523 . S
C1715 C1699 1.429 . S
C1715 C1711 1.429 . S
C1715 C1716 1.523 . S
C1716 C1700 1.368 . S
C1716 C1712 1.368 . S
C1716 C1715 1.523 . S
H1717 C1692 0.950 . S
H1718 C1694 0.950 . S
H1719 C1695 0.949 . S
H1720 C1697 0.950 . S
H1721 C1699 0.950 . S
C1722 C1723 1.349 . S
C1722 C1724 1.327 . S
C1722 H1747 0.950 . S
C1723 C1722 1.349 . S
C1723 C1739 1.349 . S
C1724 C1722 1.327 . S
C1724 C1743 1.429 . S
C1724 H1748 0.950 . S
C1725 C1742 1.574 . S
C1725 C1744 1.368 . S
C1725 H1749 0.949 . S
H1726 C1730 0.949 . S
C1727 C1728 1.349 . S
C1727 C1729 1.327 . S
C1727 H1750 0.950 . S
C1728 C1727 1.349 . S
C1728 C1740 1.349 . S
C1729 C1727 1.327 . S
C1729 C1745 1.429 . S
C1729 H1751 0.950 . S
C1730 H1726 0.949 . S
C1730 C1738 1.574 . S
C1730 C1746 1.368 . S
H1731 C1739 0.950 . S
H1732 C1737 0.950 . S
H1733 C1738 0.949 . S
H1734 C1740 0.950 . S
H1735 C1741 0.950 . S
H1736 C1742 0.949 . S
C1737 H1732 0.950 . S
C1737 C1739 1.327 . S
C1737 C1743 1.429 . S
C1738 C1730 1.574 . S
C1738 H1733 0.949 . S
C1738 C1744 1.368 . S
C1739 C1723 1.349 . S
C1739 H1731 0.950 . S
C1739 C1737 1.327 . S
C1740 C1728 1.349 . S
C1740 H1734 0.950 . S
C1740 C1741 1.327 . S
C1741 H1735 0.950 . S
C1741 C1740 1.327 . S
C1741 C1745 1.429 . S
C1742 C1725 1.574 . S
C1742 H1736 0.949 . S
C1742 C1746 1.368 . S
C1743 C1724 1.429 . S
C1743 C1737 1.429 . S
C1743 C1744 1.523 . S
C1744 C1725 1.368 . S
C1744 C1738 1.368 . S
C1744 C1743 1.523 . S
C1745 C1729 1.429 . S
C1745 C1741 1.429 . S
C1745 C1746 1.523 . S
C1746 C1730 1.368 . S
C1746 C1742 1.368 . S
C1746 C1745 1.523 . S
H1747 C1722 0.950 . S
H1748 C1724 0.950 . S
H1749 C1725 0.949 . S
H1750 C1727 0.950 . S
H1751 C1729 0.950 . S
C1752 C1753 1.349 . S
C1752 C1754 1.327 . S
C1752 H1777 0.950 . S
C1753 C1752 1.349 . S
C1753 C1769 1.349 . S
C1754 C1752 1.327 . S
C1754 C1773 1.429 . S
C1754 H1778 0.950 . S
C1755 C1772 1.574 . S
C1755 C1774 1.368 . S
C1755 H1779 0.949 . S
H1756 C1760 0.949 . S
C1757 C1758 1.349 . S
C1757 C1759 1.327 . S
C1757 H1780 0.950 . S
C1758 C1757 1.349 . S
C1758 C1770 1.349 . S
C1759 C1757 1.327 . S
C1759 C1775 1.429 . S
C1759 H1781 0.950 . S
C1760 H1756 0.949 . S
C1760 C1768 1.574 . S
C1760 C1776 1.368 . S
H1761 C1769 0.950 . S
H1762 C1767 0.950 . S
H1763 C1768 0.949 . S
H1764 C1770 0.950 . S
H1765 C1771 0.950 . S
H1766 C1772 0.949 . S
C1767 H1762 0.950 . S
C1767 C1769 1.327 . S
C1767 C1773 1.429 . S
C1768 C1760 1.574 . S
C1768 H1763 0.949 . S
C1768 C1774 1.368 . S
C1769 C1753 1.349 . S
C1769 H1761 0.950 . S
C1769 C1767 1.327 . S
C1770 C1758 1.349 . S
C1770 H1764 0.950 . S
C1770 C1771 1.327 . S
C1771 H1765 0.950 . S
C1771 C1770 1.327 . S
C1771 C1775 1.429 . S
C1772 C1755 1.574 . S
C1772 H1766 0.949 . S
C1772 C1776 1.368 . S
C1773 C1754 1.429 . S
C1773 C1767 1.429 . S
C1773 C1774 1.523 . S
C1774 C1755 1.368 . S
C1774 C1768 1.368 . S
C1774 C1773 1.523 . S
C1775 C1759 1.429 . S
C1775 C1771 1.429 . S
C1775 C1776 1.523 . S
C1776 C1760 1.368 . S
C1776 C1772 1.368 . S
C1776 C1775 1.523 . S
H1777 C1752 0.950 . S
H1778 C1754 0.950 . S
H1779 C1755 0.949 . S
H1780 C1757 0.950 . S
H1781 C1759 0.950 . S
C1782 C1783 1.349 . S
C1782 C1784 1.327 . S
C1782 H1807 0.950 . S
C1783 C1782 1.349 . S
C1783 C1799 1.349 . S
C1784 C1782 1.327 . S
C1784 C1803 1.429 . S
C1784 H1808 0.950 . S
C1785 C1802 1.574 . S
C1785 C1804 1.368 . S
C1785 H1809 0.949 . S
H1786 C1790 0.949 . S
C1787 C1788 1.349 . S
C1787 C1789 1.327 . S
C1787 H1810 0.950 . S
C1788 C1787 1.349 . S
C1788 C1800 1.349 . S
C1789 C1787 1.327 . S
C1789 C1805 1.429 . S
C1789 H1811 0.950 . S
C1790 H1786 0.949 . S
C1790 C1798 1.574 . S
C1790 C1806 1.368 . S
H1791 C1799 0.950 . S
H1792 C1797 0.950 . S
H1793 C1798 0.949 . S
H1794 C1800 0.950 . S
H1795 C1801 0.950 . S
H1796 C1802 0.949 . S
C1797 H1792 0.950 . S
C1797 C1799 1.327 . S
C1797 C1803 1.429 . S
C1798 C1790 1.574 . S
C1798 H1793 0.949 . S
C1798 C1804 1.368 . S
C1799 C1783 1.349 . S
C1799 H1791 0.950 . S
C1799 C1797 1.327 . S
C1800 C1788 1.349 . S
C1800 H1794 0.950 . S
C1800 C1801 1.327 . S
C1801 H1795 0.950 . S
C1801 C1800 1.327 . S
C1801 C1805 1.429 . S
C1802 C1785 1.574 . S
C1802 H1796 0.949 . S
C1802 C1806 1.368 . S
C1803 C1784 1.429 . S
C1803 C1797 1.429 . S
C1803 C1804 1.523 . S
C1804 C1785 1.368 . S
C1804 C1798 1.368 . S
C1804 C1803 1.523 . S
C1805 C1789 1.429 . S
C1805 C1801 1.429 . S
C1805 C1806 1.523 . S
C1806 C1790 1.368 . S
C1806 C1802 1.368 . S
C1806 C1805 1.523 . S
H1807 C1782 0.950 . S
H1808 C1784 0.950 . S
H1809 C1785 0.949 . S
H1810 C1787 0.950 . S
H1811 C1789 0.950 . S
C1812 C1813 1.349 . S
C1812 C1814 1.327 . S
C1812 H1837 0.950 . S
C1813 C1812 1.349 . S
C1813 C1829 1.349 . S
C1814 C1812 1.327 . S
C1814 C1833 1.429 . S
C1814 H1838 0.950 . S
C1815 C1832 1.574 . S
C1815 C1834 1.368 . S
C1815 H1839 0.949 . S
H1816 C1820 0.949 . S
C1817 C1818 1.349 . S
C1817 C1819 1.327 . S
C1817 H1840 0.950 . S
C1818 C1817 1.349 . S
C1818 C1830 1.349 . S
C1819 C1817 1.327 . S
C1819 C1835 1.429 . S
C1819 H1841 0.950 . S
C1820 H1816 0.949 . S
C1820 C1828 1.574 . S
C1820 C1836 1.368 . S
H1821 C1829 0.950 . S
H1822 C1827 0.950 . S
H1823 C1828 0.949 . S
H1824 C1830 0.950 . S
H1825 C1831 0.950 . S
H1826 C1832 0.949 . S
C1827 H1822 0.950 . S
C1827 C1829 1.327 . S
C1827 C1833 1.429 . S
C1828 C1820 1.574 . S
C1828 H1823 0.949 . S
C1828 C1834 1.368 . S
C1829 C1813 1.349 . S
C1829 H1821 0.950 . S
C1829 C1827 1.327 . S
C1830 C1818 1.349 . S
C1830 H1824 0.950 . S
C1830 C1831 1.327 . S
C1831 H1825 0.950 . S
C1831 C1830 1.327 . S
C1831 C1835 1.429 . S
C1832 C1815 1.574 . S
C1832 H1826 0.949 . S
C1832 C1836 1.368 . S
C1833 C1814 1.429 . S
C1833 C1827 1.429 . S
C1833 C1834 1.523 . S
C1834 C1815 1.368 . S
C1834 C1828 1.368 . S
C1834 C1833 1.523 . S
C1835 C1819 1.429 . S
C1835 C1831 1.429 . S
C1835 C1836 1.523 . S
C1836 C1820 1.368 . S
C1836 C1832 1.368 . S
C1836 C1835 1.523 . S
H1837 C1812 0.950 . S
H1838 C1814 0.950 . S
H1839 C1815 0.949 . S
H1840 C1817 0.950 . S
H1841 C1819 0.950 . S
C1842 C1843 1.349 . S
C1842 C1844 1.327 . S
C1842 H1867 0.950 . S
C1843 C1842 1.349 . S
C1843 C1859 1.349 . S
C1844 C1842 1.327 . S
C1844 C1863 1.429 . S
C1844 H1868 0.950 . S
C1845 C1862 1.574 . S
C1845 C1864 1.368 . S
C1845 H1869 0.949 . S
H1846 C1850 0.949 . S
C1847 C1848 1.349 . S
C1847 C1849 1.327 . S
C1847 H1870 0.950 . S
C1848 C1847 1.349 . S
C1848 C1860 1.349 . S
C1849 C1847 1.327 . S
C1849 C1865 1.429 . S
C1849 H1871 0.950 . S
C1850 H1846 0.949 . S
C1850 C1858 1.574 . S
C1850 C1866 1.368 . S
H1851 C1859 0.950 . S
H1852 C1857 0.950 . S
H1853 C1858 0.949 . S
H1854 C1860 0.950 . S
H1855 C1861 0.950 . S
H1856 C1862 0.949 . S
C1857 H1852 0.950 . S
C1857 C1859 1.327 . S
C1857 C1863 1.429 . S
C1858 C1850 1.574 . S
C1858 H1853 0.949 . S
C1858 C1864 1.368 . S
C1859 C1843 1.349 . S
C1859 H1851 0.950 . S
C1859 C1857 1.327 . S
C1860 C1848 1.349 . S
C1860 H1854 0.950 . S
C1860 C1861 1.327 . S
C1861 H1855 0.950 . S
C1861 C1860 1.327 . S
C1861 C1865 1.429 . S
C1862 C1845 1.574 . S
C1862 H1856 0.949 . S
C1862 C1866 1.368 . S
C1863 C1844 1.429 . S
C1863 C1857 1.429 . S
C1863 C1864 1.523 . S
C1864 C1845 1.368 . S
C1864 C1858 1.368 . S
C1864 C1863 1.523 . S
C1865 C1849 1.429 . S
C1865 C1861 1.429 . S
C1865 C1866 1.523 . S
C1866 C1850 1.368 . S
C1866 C1862 1.368 . S
C1866 C1865 1.523 . S
H1867 C1842 0.950 . S
H1868 C1844 0.950 . S
H1869 C1845 0.949 . S
H1870 C1847 0.950 . S
H1871 C1849 0.950 . S
C1872 C1873 1.349 . S
C1872 C1874 1.327 . S
C1872 H1897 0.950 . S
C1873 C1872 1.349 . S
C1873 C1889 1.349 . S
C1874 C1872 1.327 . S
C1874 C1893 1.429 . S
C1874 H1898 0.950 . S
C1875 C1892 1.574 . S
C1875 C1894 1.368 . S
C1875 H1899 0.949 . S
H1876 C1880 0.949 . S
C1877 C1878 1.349 . S
C1877 C1879 1.327 . S
C1877 H1900 0.950 . S
C1878 C1877 1.349 . S
C1878 C1890 1.349 . S
C1879 C1877 1.327 . S
C1879 C1895 1.429 . S
C1879 H1901 0.950 . S
C1880 H1876 0.949 . S
C1880 C1888 1.574 . S
C1880 C1896 1.368 . S
H1881 C1889 0.950 . S
H1882 C1887 0.950 . S
H1883 C1888 0.949 . S
H1884 C1890 0.950 . S
H1885 C1891 0.950 . S
H1886 C1892 0.949 . S
C1887 H1882 0.950 . S
C1887 C1889 1.327 . S
C1887 C1893 1.429 . S
C1888 C1880 1.574 . S
C1888 H1883 0.949 . S
C1888 C1894 1.368 . S
C1889 C1873 1.349 . S
C1889 H1881 0.950 . S
C1889 C1887 1.327 . S
C1890 C1878 1.349 . S
C1890 H1884 0.950 . S
C1890 C1891 1.327 . S
C1891 H1885 0.950 . S
C1891 C1890 1.327 . S
C1891 C1895 1.429 . S
C1892 C1875 1.574 . S
C1892 H1886 0.949 . S
C1892 C1896 1.368 . S
C1893 C1874 1.429 . S
C1893 C1887 1.429 . S
C1893 C1894 1.523 . S
C1894 C1875 1.368 . S
C1894 C1888 1.368 . S
C1894 C1893 1.523 . S
C1895 C1879 1.429 . S
C1895 C1891 1.429 . S
C1895 C1896 1.523 . S
C1896 C1880 1.368 . S
C1896 C1892 1.368 . S
C1896 C1895 1.523 . S
H1897 C1872 0.950 . S
H1898 C1874 0.950 . S
H1899 C1875 0.949 . S
H1900 C1877 0.950 . S
H1901 C1879 0.950 . S
C1902 C1903 1.349 . S
C1902 C1904 1.327 . S
C1902 H1927 0.950 . S
C1903 C1902 1.349 . S
C1903 C1919 1.349 . S
C1904 C1902 1.327 . S
C1904 C1923 1.429 . S
C1904 H1928 0.950 . S
C1905 C1922 1.574 . S
C1905 C1924 1.368 . S
C1905 H1929 0.949 . S
H1906 C1910 0.949 . S
C1907 C1908 1.349 . S
C1907 C1909 1.327 . S
C1907 H1930 0.950 . S
C1908 C1907 1.349 . S
C1908 C1920 1.349 . S
C1909 C1907 1.327 . S
C1909 C1925 1.429 . S
C1909 H1931 0.950 . S
C1910 H1906 0.949 . S
C1910 C1918 1.574 . S
C1910 C1926 1.368 . S
H1911 C1919 0.950 . S
H1912 C1917 0.950 . S
H1913 C1918 0.949 . S
H1914 C1920 0.950 . S
H1915 C1921 0.950 . S
H1916 C1922 0.949 . S
C1917 H1912 0.950 . S
C1917 C1919 1.327 . S
C1917 C1923 1.429 . S
C1918 C1910 1.574 . S
C1918 H1913 0.949 . S
C1918 C1924 1.368 . S
C1919 C1903 1.349 . S
C1919 H1911 0.950 . S
C1919 C1917 1.327 . S
C1920 C1908 1.349 . S
C1920 H1914 0.950 . S
C1920 C1921 1.327 . S
C1921 H1915 0.950 . S
C1921 C1920 1.327 . S
C1921 C1925 1.429 . S
C1922 C1905 1.574 . S
C1922 H1916 0.949 . S
C1922 C1926 1.368 . S
C1923 C1904 1.429 . S
C1923 C1917 1.429 . S
C1923 C1924 1.523 . S
C1924 C1905 1.368 . S
C1924 C1918 1.368 . S
C1924 C1923 1.523 . S
C1925 C1909 1.429 . S
C1925 C1921 1.429 . S
C1925 C1926 1.523 . S
C1926 C1910 1.368 . S
C1926 C1922 1.368 . S
C1926 C1925 1.523 . S
H1927 C1902 0.950 . S
H1928 C1904 0.950 . S
H1929 C1905 0.949 . S
H1930 C1907 0.950 . S
H1931 C1909 0.950 . S
C1932 C1933 1.349 . S
C1932 C1934 1.327 . S
C1932 H1957 0.950 . S
C1933 C1932 1.349 . S
C1933 C1949 1.349 . S
C1934 C1932 1.327 . S
C1934 C1953 1.429 . S
C1934 H1958 0.950 . S
C1935 C1952 1.574 . S
C1935 C1954 1.368 . S
C1935 H1959 0.949 . S
H1936 C1940 0.949 . S
C1937 C1938 1.349 . S
C1937 C1939 1.327 . S
C1937 H1960 0.950 . S
C1938 C1937 1.349 . S
C1938 C1950 1.349 . S
C1939 C1937 1.327 . S
C1939 C1955 1.429 . S
C1939 H1961 0.950 . S
C1940 H1936 0.949 . S
C1940 C1948 1.574 . S
C1940 C1956 1.368 . S
H1941 C1949 0.950 . S
H1942 C1947 0.950 . S
H1943 C1948 0.949 . S
H1944 C1950 0.950 . S
H1945 C1951 0.950 . S
H1946 C1952 0.949 . S
C1947 H1942 0.950 . S
C1947 C1949 1.327 . S
C1947 C1953 1.429 . S
C1948 C1940 1.574 . S
C1948 H1943 0.949 . S
C1948 C1954 1.368 . S
C1949 C1933 1.349 . S
C1949 H1941 0.950 . S
C1949 C1947 1.327 . S
C1950 C1938 1.349 . S
C1950 H1944 0.950 . S
C1950 C1951 1.327 . S
C1951 H1945 0.950 . S
C1951 C1950 1.327 . S
C1951 C1955 1.429 . S
C1952 C1935 1.574 . S
C1952 H1946 0.949 . S
C1952 C1956 1.368 . S
C1953 C1934 1.429 . S
C1953 C1947 1.429 . S
C1953 C1954 1.523 . S
C1954 C1935 1.368 . S
C1954 C1948 1.368 . S
C1954 C1953 1.523 . S
C1955 C1939 1.429 . S
C1955 C1951 1.429 . S
C1955 C1956 1.523 . S
C1956 C1940 1.368 . S
C1956 C1952 1.368 . S
C1956 C1955 1.523 . S
H1957 C1932 0.950 . S
H1958 C1934 0.950 . S
H1959 C1935 0.949 . S
H1960 C1937 0.950 . S
H1961 C1939 0.950 . S
C1962 C1963 1.349 . S
C1962 C1964 1.327 . S
C1962 H1987 0.950 . S
C1963 C1962 1.349 . S
C1963 C1979 1.349 . S
C1964 C1962 1.327 . S
C1964 C1983 1.429 . S
C1964 H1988 0.950 . S
C1965 C1982 1.574 . S
C1965 C1984 1.368 . S
C1965 H1989 0.949 . S
H1966 C1970 0.949 . S
C1967 C1968 1.349 . S
C1967 C1969 1.327 . S
C1967 H1990 0.950 . S
C1968 C1967 1.349 . S
C1968 C1980 1.349 . S
C1969 C1967 1.327 . S
C1969 C1985 1.429 . S
C1969 H1991 0.950 . S
C1970 H1966 0.949 . S
C1970 C1978 1.574 . S
C1970 C1986 1.368 . S
H1971 C1979 0.950 . S
H1972 C1977 0.950 . S
H1973 C1978 0.949 . S
H1974 C1980 0.950 . S
H1975 C1981 0.950 . S
H1976 C1982 0.949 . S
C1977 H1972 0.950 . S
C1977 C1979 1.327 . S
C1977 C1983 1.429 . S
C1978 C1970 1.574 . S
C1978 H1973 0.949 . S
C1978 C1984 1.368 . S
C1979 C1963 1.349 . S
C1979 H1971 0.950 . S
C1979 C1977 1.327 . S
C1980 C1968 1.349 . S
C1980 H1974 0.950 . S
C1980 C1981 1.327 . S
C1981 H1975 0.950 . S
C1981 C1980 1.327 . S
C1981 C1985 1.429 . S
C1982 C1965 1.574 . S
C1982 H1976 0.949 . S
C1982 C1986 1.368 . S
C1983 C1964 1.429 . S
C1983 C1977 1.429 . S
C1983 C1984 1.523 . S
C1984 C1965 1.368 . S
C1984 C1978 1.368 . S
C1984 C1983 1.523 . S
C1985 C1969 1.429 . S
C1985 C1981 1.429 . S
C1985 C1986 1.523 . S
C1986 C1970 1.368 . S
C1986 C1982 1.368 . S
C1986 C1985 1.523 . S
H1987 C1962 0.950 . S
H1988 C1964 0.950 . S
H1989 C1965 0.949 . S
H1990 C1967 0.950 . S
H1991 C1969 0.950 . S
C1992 C1993 1.349 . S
C1992 C1994 1.327 . S
C1992 H2017 0.950 . S
C1993 C1992 1.349 . S
C1993 C2009 1.349 . S
C1994 C1992 1.327 . S
C1994 C2013 1.429 . S
C1994 H2018 0.950 . S
C1995 C2012 1.574 . S
C1995 C2014 1.368 . S
C1995 H2019 0.949 . S
H1996 C2000 0.949 . S
C1997 C1998 1.349 . S
C1997 C1999 1.327 . S
C1997 H2020 0.950 . S
C1998 C1997 1.349 . S
C1998 C2010 1.349 . S
C1999 C1997 1.327 . S
C1999 C2015 1.429 . S
C1999 H2021 0.950 . S
C2000 H1996 0.949 . S
C2000 C2008 1.574 . S
C2000 C2016 1.368 . S
H2001 C2009 0.950 . S
H2002 C2007 0.950 . S
H2003 C2008 0.949 . S
H2004 C2010 0.950 . S
H2005 C2011 0.950 . S
H2006 C2012 0.949 . S
C2007 H2002 0.950 . S
C2007 C2009 1.327 . S
C2007 C2013 1.429 . S
C2008 C2000 1.574 . S
C2008 H2003 0.949 . S
C2008 C2014 1.368 . S
C2009 C1993 1.349 . S
C2009 H2001 0.950 . S
C2009 C2007 1.327 . S
C2010 C1998 1.349 . S
C2010 H2004 0.950 . S
C2010 C2011 1.327 . S
C2011 H2005 0.950 . S
C2011 C2010 1.327 . S
C2011 C2015 1.429 . S
C2012 C1995 1.574 . S
C2012 H2006 0.949 . S
C2012 C2016 1.368 . S
C2013 C1994 1.429 . S
C2013 C2007 1.429 . S
C2013 C2014 1.523 . S
C2014 C1995 1.368 . S
C2014 C2008 1.368 . S
C2014 C2013 1.523 . S
C2015 C1999 1.429 . S
C2015 C2011 1.429 . S
C2015 C2016 1.523 . S
C2016 C2000 1.368 . S
C2016 C2012 1.368 . S
C2016 C2015 1.523 . S
H2017 C1992 0.950 . S
H2018 C1994 0.950 . S
H2019 C1995 0.949 . S
H2020 C1997 0.950 . S
H2021 C1999 0.950 . S
C2022 C2023 1.349 . S
C2022 C2024 1.327 . S
C2022 H2047 0.950 . S
C2023 C2022 1.349 . S
C2023 C2039 1.349 . S
C2024 C2022 1.327 . S
C2024 C2043 1.429 . S
C2024 H2048 0.950 . S
C2025 C2042 1.574 . S
C2025 C2044 1.368 . S
C2025 H2049 0.949 . S
H2026 C2030 0.949 . S
C2027 C2028 1.349 . S
C2027 C2029 1.327 . S
C2027 H2050 0.950 . S
C2028 C2027 1.349 . S
C2028 C2040 1.349 . S
C2029 C2027 1.327 . S
C2029 C2045 1.429 . S
C2029 H2051 0.950 . S
C2030 H2026 0.949 . S
C2030 C2038 1.574 . S
C2030 C2046 1.368 . S
H2031 C2039 0.950 . S
H2032 C2037 0.950 . S
H2033 C2038 0.949 . S
H2034 C2040 0.950 . S
H2035 C2041 0.950 . S
H2036 C2042 0.949 . S
C2037 H2032 0.950 . S
C2037 C2039 1.327 . S
C2037 C2043 1.429 . S
C2038 C2030 1.574 . S
C2038 H2033 0.949 . S
C2038 C2044 1.368 . S
C2039 C2023 1.349 . S
C2039 H2031 0.950 . S
C2039 C2037 1.327 . S
C2040 C2028 1.349 . S
C2040 H2034 0.950 . S
C2040 C2041 1.327 . S
C2041 H2035 0.950 . S
C2041 C2040 1.327 . S
C2041 C2045 1.429 . S
C2042 C2025 1.574 . S
C2042 H2036 0.949 . S
C2042 C2046 1.368 . S
C2043 C2024 1.429 . S
C2043 C2037 1.429 . S
C2043 C2044 1.523 . S
C2044 C2025 1.368 . S
C2044 C2038 1.368 . S
C2044 C2043 1.523 . S
C2045 C2029 1.429 . S
C2045 C2041 1.429 . S
C2045 C2046 1.523 . S
C2046 C2030 1.368 . S
C2046 C2042 1.368 . S
C2046 C2045 1.523 . S
H2047 C2022 0.950 . S
H2048 C2024 0.950 . S
H2049 C2025 0.949 . S
H2050 C2027 0.950 . S
H2051 C2029 0.950 . S
C2052 C2053 1.349 . S
C2052 C2054 1.327 . S
C2052 H2077 0.950 . S
C2053 C2052 1.349 . S
C2053 C2069 1.349 . S
C2054 C2052 1.327 . S
C2054 C2073 1.429 . S
C2054 H2078 0.950 . S
C2055 C2072 1.574 . S
C2055 C2074 1.368 . S
C2055 H2079 0.949 . S
H2056 C2060 0.949 . S
C2057 C2058 1.349 . S
C2057 C2059 1.327 . S
C2057 H2080 0.950 . S
C2058 C2057 1.349 . S
C2058 C2070 1.349 . S
C2059 C2057 1.327 . S
C2059 C2075 1.429 . S
C2059 H2081 0.950 . S
C2060 H2056 0.949 . S
C2060 C2068 1.574 . S
C2060 C2076 1.368 . S
H2061 C2069 0.950 . S
H2062 C2067 0.950 . S
H2063 C2068 0.949 . S
H2064 C2070 0.950 . S
H2065 C2071 0.950 . S
H2066 C2072 0.949 . S
C2067 H2062 0.950 . S
C2067 C2069 1.327 . S
C2067 C2073 1.429 . S
C2068 C2060 1.574 . S
C2068 H2063 0.949 . S
C2068 C2074 1.368 . S
C2069 C2053 1.349 . S
C2069 H2061 0.950 . S
C2069 C2067 1.327 . S
C2070 C2058 1.349 . S
C2070 H2064 0.950 . S
C2070 C2071 1.327 . S
C2071 H2065 0.950 . S
C2071 C2070 1.327 . S
C2071 C2075 1.429 . S
C2072 C2055 1.574 . S
C2072 H2066 0.949 . S
C2072 C2076 1.368 . S
C2073 C2054 1.429 . S
C2073 C2067 1.429 . S
C2073 C2074 1.523 . S
C2074 C2055 1.368 . S
C2074 C2068 1.368 . S
C2074 C2073 1.523 . S
C2075 C2059 1.429 . S
C2075 C2071 1.429 . S
C2075 C2076 1.523 . S
C2076 C2060 1.368 . S
C2076 C2072 1.368 . S
C2076 C2075 1.523 . S
H2077 C2052 0.950 . S
H2078 C2054 0.950 . S
H2079 C2055 0.949 . S
H2080 C2057 0.950 . S
H2081 C2059 0.950 . S
C2082 C2083 1.349 . S
C2082 C2084 1.327 . S
C2082 H2107 0.950 . S
C2083 C2082 1.349 . S
C2083 C2099 1.349 . S
C2084 C2082 1.327 . S
C2084 C2103 1.429 . S
C2084 H2108 0.950 . S
C2085 C2102 1.574 . S
C2085 C2104 1.368 . S
C2085 H2109 0.949 . S
H2086 C2090 0.949 . S
C2087 C2088 1.349 . S
C2087 C2089 1.327 . S
C2087 H2110 0.950 . S
C2088 C2087 1.349 . S
C2088 C2100 1.349 . S
C2089 C2087 1.327 . S
C2089 C2105 1.429 . S
C2089 H2111 0.950 . S
C2090 H2086 0.949 . S
C2090 C2098 1.574 . S
C2090 C2106 1.368 . S
H2091 C2099 0.950 . S
H2092 C2097 0.950 . S
H2093 C2098 0.949 . S
H2094 C2100 0.950 . S
H2095 C2101 0.950 . S
H2096 C2102 0.949 . S
C2097 H2092 0.950 . S
C2097 C2099 1.327 . S
C2097 C2103 1.429 . S
C2098 C2090 1.574 . S
C2098 H2093 0.949 . S
C2098 C2104 1.368 . S
C2099 C2083 1.349 . S
C2099 H2091 0.950 . S
C2099 C2097 1.327 . S
C2100 C2088 1.349 . S
C2100 H2094 0.950 . S
C2100 C2101 1.327 . S
C2101 H2095 0.950 . S
C2101 C2100 1.327 . S
C2101 C2105 1.429 . S
C2102 C2085 1.574 . S
C2102 H2096 0.949 . S
C2102 C2106 1.368 . S
C2103 C2084 1.429 . S
C2103 C2097 1.429 . S
C2103 C2104 1.523 . S
C2104 C2085 1.368 . S
C2104 C2098 1.368 . S
C2104 C2103 1.523 . S
C2105 C2089 1.429 . S
C2105 C2101 1.429 . S
C2105 C2106 1.523 . S
C2106 C2090 1.368 . S
C2106 C2102 1.368 . S
C2106 C2105 1.523 . S
H2107 C2082 0.950 . S
H2108 C2084 0.950 . S
H2109 C2085 0.949 . S
H2110 C2087 0.950 . S
H2111 C2089 0.950 . S
C2112 C2113 1.349 . S
C2112 C2114 1.327 . S
C2112 H2137 0.950 . S
C2113 C2112 1.349 . S
C2113 C2129 1.349 . S
C2114 C2112 1.327 . S
C2114 C2133 1.429 . S
C2114 H2138 0.950 . S
C2115 C2132 1.574 . S
C2115 C2134 1.368 . S
C2115 H2139 0.949 . S
H2116 C2120 0.949 . S
C2117 C2118 1.349 . S
C2117 C2119 1.327 . S
C2117 H2140 0.950 . S
C2118 C2117 1.349 . S
C2118 C2130 1.349 . S
C2119 C2117 1.327 . S
C2119 C2135 1.429 . S
C2119 H2141 0.950 . S
C2120 H2116 0.949 . S
C2120 C2128 1.574 . S
C2120 C2136 1.368 . S
H2121 C2129 0.950 . S
H2122 C2127 0.950 . S
H2123 C2128 0.949 . S
H2124 C2130 0.950 . S
H2125 C2131 0.950 . S
H2126 C2132 0.949 . S
C2127 H2122 0.950 . S
C2127 C2129 1.327 . S
C2127 C2133 1.429 . S
C2128 C2120 1.574 . S
C2128 H2123 0.949 . S
C2128 C2134 1.368 . S
C2129 C2113 1.349 . S
C2129 H2121 0.950 . S
C2129 C2127 1.327 . S
C2130 C2118 1.349 . S
C2130 H2124 0.950 . S
C2130 C2131 1.327 . S
C2131 H2125 0.950 . S
C2131 C2130 1.327 . S
C2131 C2135 1.429 . S
C2132 C2115 1.574 . S
C2132 H2126 0.949 . S
C2132 C2136 1.368 . S
C2133 C2114 1.429 . S
C2133 C2127 1.429 . S
C2133 C2134 1.523 . S
C2134 C2115 1.368 . S
C2134 C2128 1.368 . S
C2134 C2133 1.523 . S
C2135 C2119 1.429 . S
C2135 C2131 1.429 . S
C2135 C2136 1.523 . S
C2136 C2120 1.368 . S
C2136 C2132 1.368 . S
C2136 C2135 1.523 . S
H2137 C2112 0.950 . S
H2138 C2114 0.950 . S
H2139 C2115 0.949 . S
H2140 C2117 0.950 . S
H2141 C2119 0.950 . S
C2142 C2143 1.349 . S
C2142 C2144 1.327 . S
C2142 H2167 0.950 . S
C2143 C2142 1.349 . S
C2143 C2159 1.349 . S
C2144 C2142 1.327 . S
C2144 C2163 1.429 . S
C2144 H2168 0.950 . S
C2145 C2162 1.574 . S
C2145 C2164 1.368 . S
C2145 H2169 0.949 . S
H2146 C2150 0.949 . S
C2147 C2148 1.349 . S
C2147 C2149 1.327 . S
C2147 H2170 0.950 . S
C2148 C2147 1.349 . S
C2148 C2160 1.349 . S
C2149 C2147 1.327 . S
C2149 C2165 1.429 . S
C2149 H2171 0.950 . S
C2150 H2146 0.949 . S
C2150 C2158 1.574 . S
C2150 C2166 1.368 . S
H2151 C2159 0.950 . S
H2152 C2157 0.950 . S
H2153 C2158 0.949 . S
H2154 C2160 0.950 . S
H2155 C2161 0.950 . S
H2156 C2162 0.949 . S
C2157 H2152 0.950 . S
C2157 C2159 1.327 . S
C2157 C2163 1.429 . S
C2158 C2150 1.574 . S
C2158 H2153 0.949 . S
C2158 C2164 1.368 . S
C2159 C2143 1.349 . S
C2159 H2151 0.950 . S
C2159 C2157 1.327 . S
C2160 C2148 1.349 . S
C2160 H2154 0.950 . S
C2160 C2161 1.327 . S
C2161 H2155 0.950 . S
C2161 C2160 1.327 . S
C2161 C2165 1.429 . S
C2162 C2145 1.574 . S
C2162 H2156 0.949 . S
C2162 C2166 1.368 . S
C2163 C2144 1.429 . S
C2163 C2157 1.429 . S
C2163 C2164 1.523 . S
C2164 C2145 1.368 . S
C2164 C2158 1.368 . S
C2164 C2163 1.523 . S
C2165 C2149 1.429 . S
C2165 C2161 1.429 . S
C2165 C2166 1.523 . S
C2166 C2150 1.368 . S
C2166 C2162 1.368 . S
C2166 C2165 1.523 . S
H2167 C2142 0.950 . S
H2168 C2144 0.950 . S
H2169 C2145 0.949 . S
H2170 C2147 0.950 . S
H2171 C2149 0.950 . S
C2172 C2173 1.349 . S
C2172 C2174 1.327 . S
C2172 H2197 0.950 . S
C2173 C2172 1.349 . S
C2173 C2189 1.349 . S
C2174 C2172 1.327 . S
C2174 C2193 1.429 . S
C2174 H2198 0.950 . S
C2175 C2192 1.574 . S
C2175 C2194 1.368 . S
C2175 H2199 0.949 . S
H2176 C2180 0.949 . S
C2177 C2178 1.349 . S
C2177 C2179 1.327 . S
C2177 H2200 0.950 . S
C2178 C2177 1.349 . S
C2178 C2190 1.349 . S
C2179 C2177 1.327 . S
C2179 C2195 1.429 . S
C2179 H2201 0.950 . S
C2180 H2176 0.949 . S
C2180 C2188 1.574 . S
C2180 C2196 1.368 . S
H2181 C2189 0.950 . S
H2182 C2187 0.950 . S
H2183 C2188 0.949 . S
H2184 C2190 0.950 . S
H2185 C2191 0.950 . S
H2186 C2192 0.949 . S
C2187 H2182 0.950 . S
C2187 C2189 1.327 . S
C2187 C2193 1.429 . S
C2188 C2180 1.574 . S
C2188 H2183 0.949 . S
C2188 C2194 1.368 . S
C2189 C2173 1.349 . S
C2189 H2181 0.950 . S
C2189 C2187 1.327 . S
C2190 C2178 1.349 . S
C2190 H2184 0.950 . S
C2190 C2191 1.327 . S
C2191 H2185 0.950 . S
C2191 C2190 1.327 . S
C2191 C2195 1.429 . S
C2192 C2175 1.574 . S
C2192 H2186 0.949 . S
C2192 C2196 1.368 . S
C2193 C2174 1.429 . S
C2193 C2187 1.429 . S
C2193 C2194 1.523 . S
C2194 C2175 1.368 . S
C2194 C2188 1.368 . S
C2194 C2193 1.523 . S
C2195 C2179 1.429 . S
C2195 C2191 1.429 . S
C2195 C2196 1.523 . S
C2196 C2180 1.368 . S
C2196 C2192 1.368 . S
C2196 C2195 1.523 . S
H2197 C2172 0.950 . S
H2198 C2174 0.950 . S
H2199 C2175 0.949 . S
H2200 C2177 0.950 . S
H2201 C2179 0.950 . S
C2202 C2203 1.349 . S
C2202 C2204 1.327 . S
C2202 H2227 0.950 . S
C2203 C2202 1.349 . S
C2203 C2219 1.349 . S
C2204 C2202 1.327 . S
C2204 C2223 1.429 . S
C2204 H2228 0.950 . S
C2205 C2222 1.574 . S
C2205 C2224 1.368 . S
C2205 H2229 0.949 . S
H2206 C2210 0.949 . S
C2207 C2208 1.349 . S
C2207 C2209 1.327 . S
C2207 H2230 0.950 . S
C2208 C2207 1.349 . S
C2208 C2220 1.349 . S
C2209 C2207 1.327 . S
C2209 C2225 1.429 . S
C2209 H2231 0.950 . S
C2210 H2206 0.949 . S
C2210 C2218 1.574 . S
C2210 C2226 1.368 . S
H2211 C2219 0.950 . S
H2212 C2217 0.950 . S
H2213 C2218 0.949 . S
H2214 C2220 0.950 . S
H2215 C2221 0.950 . S
H2216 C2222 0.949 . S
C2217 H2212 0.950 . S
C2217 C2219 1.327 . S
C2217 C2223 1.429 . S
C2218 C2210 1.574 . S
C2218 H2213 0.949 . S
C2218 C2224 1.368 . S
C2219 C2203 1.349 . S
C2219 H2211 0.950 . S
C2219 C2217 1.327 . S
C2220 C2208 1.349 . S
C2220 H2214 0.950 . S
C2220 C2221 1.327 . S
C2221 H2215 0.950 . S
C2221 C2220 1.327 . S
C2221 C2225 1.429 . S
C2222 C2205 1.574 . S
C2222 H2216 0.949 . S
C2222 C2226 1.368 . S
C2223 C2204 1.429 . S
C2223 C2217 1.429 . S
C2223 C2224 1.523 . S
C2224 C2205 1.368 . S
C2224 C2218 1.368 . S
C2224 C2223 1.523 . S
C2225 C2209 1.429 . S
C2225 C2221 1.429 . S
C2225 C2226 1.523 . S
C2226 C2210 1.368 . S
C2226 C2222 1.368 . S
C2226 C2225 1.523 . S
H2227 C2202 0.950 . S
H2228 C2204 0.950 . S
H2229 C2205 0.949 . S
H2230 C2207 0.950 . S
H2231 C2209 0.950 . S
C2232 C2233 1.349 . S
C2232 C2234 1.327 . S
C2232 H2257 0.950 . S
C2233 C2232 1.349 . S
C2233 C2249 1.349 . S
C2234 C2232 1.327 . S
C2234 C2253 1.429 . S
C2234 H2258 0.950 . S
C2235 C2252 1.574 . S
C2235 C2254 1.368 . S
C2235 H2259 0.949 . S
H2236 C2240 0.949 . S
C2237 C2238 1.349 . S
C2237 C2239 1.327 . S
C2237 H2260 0.950 . S
C2238 C2237 1.349 . S
C2238 C2250 1.349 . S
C2239 C2237 1.327 . S
C2239 C2255 1.429 . S
C2239 H2261 0.950 . S
C2240 H2236 0.949 . S
C2240 C2248 1.574 . S
C2240 C2256 1.368 . S
H2241 C2249 0.950 . S
H2242 C2247 0.950 . S
H2243 C2248 0.949 . S
H2244 C2250 0.950 . S
H2245 C2251 0.950 . S
H2246 C2252 0.949 . S
C2247 H2242 0.950 . S
C2247 C2249 1.327 . S
C2247 C2253 1.429 . S
C2248 C2240 1.574 . S
C2248 H2243 0.949 . S
C2248 C2254 1.368 . S
C2249 C2233 1.349 . S
C2249 H2241 0.950 . S
C2249 C2247 1.327 . S
C2250 C2238 1.349 . S
C2250 H2244 0.950 . S
C2250 C2251 1.327 . S
C2251 H2245 0.950 . S
C2251 C2250 1.327 . S
C2251 C2255 1.429 . S
C2252 C2235 1.574 . S
C2252 H2246 0.949 . S
C2252 C2256 1.368 . S
C2253 C2234 1.429 . S
C2253 C2247 1.429 . S
C2253 C2254 1.523 . S
C2254 C2235 1.368 . S
C2254 C2248 1.368 . S
C2254 C2253 1.523 . S
C2255 C2239 1.429 . S
C2255 C2251 1.429 . S
C2255 C2256 1.523 . S
C2256 C2240 1.368 . S
C2256 C2252 1.368 . S
C2256 C2255 1.523 . S
H2257 C2232 0.950 . S
H2258 C2234 0.950 . S
H2259 C2235 0.949 . S
H2260 C2237 0.950 . S
H2261 C2239 0.950 . S
C2262 C2263 1.349 . S
C2262 C2264 1.327 . S
C2262 H2287 0.950 . S
C2263 C2262 1.349 . S
C2263 C2279 1.349 . S
C2264 C2262 1.327 . S
C2264 C2283 1.429 . S
C2264 H2288 0.950 . S
C2265 C2282 1.574 . S
C2265 C2284 1.368 . S
C2265 H2289 0.949 . S
H2266 C2270 0.949 . S
C2267 C2268 1.349 . S
C2267 C2269 1.327 . S
C2267 H2290 0.950 . S
C2268 C2267 1.349 . S
C2268 C2280 1.349 . S
C2269 C2267 1.327 . S
C2269 C2285 1.429 . S
C2269 H2291 0.950 . S
C2270 H2266 0.949 . S
C2270 C2278 1.574 . S
C2270 C2286 1.368 . S
H2271 C2279 0.950 . S
H2272 C2277 0.950 . S
H2273 C2278 0.949 . S
H2274 C2280 0.950 . S
H2275 C2281 0.950 . S
H2276 C2282 0.949 . S
C2277 H2272 0.950 . S
C2277 C2279 1.327 . S
C2277 C2283 1.429 . S
C2278 C2270 1.574 . S
C2278 H2273 0.949 . S
C2278 C2284 1.368 . S
C2279 C2263 1.349 . S
C2279 H2271 0.950 . S
C2279 C2277 1.327 . S
C2280 C2268 1.349 . S
C2280 H2274 0.950 . S
C2280 C2281 1.327 . S
C2281 H2275 0.950 . S
C2281 C2280 1.327 . S
C2281 C2285 1.429 . S
C2282 C2265 1.574 . S
C2282 H2276 0.949 . S
C2282 C2286 1.368 . S
C2283 C2264 1.429 . S
C2283 C2277 1.429 . S
C2283 C2284 1.523 . S
C2284 C2265 1.368 . S
C2284 C2278 1.368 . S
C2284 C2283 1.523 . S
C2285 C2269 1.429 . S
C2285 C2281 1.429 . S
C2285 C2286 1.523 . S
C2286 C2270 1.368 . S
C2286 C2282 1.368 . S
C2286 C2285 1.523 . S
H2287 C2262 0.950 . S
H2288 C2264 0.950 . S
H2289 C2265 0.949 . S
H2290 C2267 0.950 . S
H2291 C2269 0.950 . S
C2292 C2293 1.349 . S
C2292 C2294 1.327 . S
C2292 H2317 0.950 . S
C2293 C2292 1.349 . S
C2293 C2309 1.349 . S
C2294 C2292 1.327 . S
C2294 C2313 1.429 . S
C2294 H2318 0.950 . S
C2295 C2312 1.574 . S
C2295 C2314 1.368 . S
C2295 H2319 0.949 . S
H2296 C2300 0.949 . S
C2297 C2298 1.349 . S
C2297 C2299 1.327 . S
C2297 H2320 0.950 . S
C2298 C2297 1.349 . S
C2298 C2310 1.349 . S
C2299 C2297 1.327 . S
C2299 C2315 1.429 . S
C2299 H2321 0.950 . S
C2300 H2296 0.949 . S
C2300 C2308 1.574 . S
C2300 C2316 1.368 . S
H2301 C2309 0.950 . S
H2302 C2307 0.950 . S
H2303 C2308 0.949 . S
H2304 C2310 0.950 . S
H2305 C2311 0.950 . S
H2306 C2312 0.949 . S
C2307 H2302 0.950 . S
C2307 C2309 1.327 . S
C2307 C2313 1.429 . S
C2308 C2300 1.574 . S
C2308 H2303 0.949 . S
C2308 C2314 1.368 . S
C2309 C2293 1.349 . S
C2309 H2301 0.950 . S
C2309 C2307 1.327 . S
C2310 C2298 1.349 . S
C2310 H2304 0.950 . S
C2310 C2311 1.327 . S
C2311 H2305 0.950 . S
C2311 C2310 1.327 . S
C2311 C2315 1.429 . S
C2312 C2295 1.574 . S
C2312 H2306 0.949 . S
C2312 C2316 1.368 . S
C2313 C2294 1.429 . S
C2313 C2307 1.429 . S
C2313 C2314 1.523 . S
C2314 C2295 1.368 . S
C2314 C2308 1.368 . S
C2314 C2313 1.523 . S
C2315 C2299 1.429 . S
C2315 C2311 1.429 . S
C2315 C2316 1.523 . S
C2316 C2300 1.368 . S
C2316 C2312 1.368 . S
C2316 C2315 1.523 . S
H2317 C2292 0.950 . S
H2318 C2294 0.950 . S
H2319 C2295 0.949 . S
H2320 C2297 0.950 . S
H2321 C2299 0.950 . S
C2322 C2323 1.349 . S
C2322 C2324 1.327 . S
C2322 H2347 0.950 . S
C2323 C2322 1.349 . S
C2323 C2339 1.349 . S
C2324 C2322 1.327 . S
C2324 C2343 1.429 . S
C2324 H2348 0.950 . S
C2325 C2342 1.574 . S
C2325 C2344 1.368 . S
C2325 H2349 0.949 . S
H2326 C2330 0.949 . S
C2327 C2328 1.349 . S
C2327 C2329 1.327 . S
C2327 H2350 0.950 . S
C2328 C2327 1.349 . S
C2328 C2340 1.349 . S
C2329 C2327 1.327 . S
C2329 C2345 1.429 . S
C2329 H2351 0.950 . S
C2330 H2326 0.949 . S
C2330 C2338 1.574 . S
C2330 C2346 1.368 . S
H2331 C2339 0.950 . S
H2332 C2337 0.950 . S
H2333 C2338 0.949 . S
H2334 C2340 0.950 . S
H2335 C2341 0.950 . S
H2336 C2342 0.949 . S
C2337 H2332 0.950 . S
C2337 C2339 1.327 . S
C2337 C2343 1.429 . S
C2338 C2330 1.574 . S
C2338 H2333 0.949 . S
C2338 C2344 1.368 . S
C2339 C2323 1.349 . S
C2339 H2331 0.950 . S
C2339 C2337 1.327 . S
C2340 C2328 1.349 . S
C2340 H2334 0.950 . S
C2340 C2341 1.327 . S
C2341 H2335 0.950 . S
C2341 C2340 1.327 . S
C2341 C2345 1.429 . S
C2342 C2325 1.574 . S
C2342 H2336 0.949 . S
C2342 C2346 1.368 . S
C2343 C2324 1.429 . S
C2343 C2337 1.429 . S
C2343 C2344 1.523 . S
C2344 C2325 1.368 . S
C2344 C2338 1.368 . S
C2344 C2343 1.523 . S
C2345 C2329 1.429 . S
C2345 C2341 1.429 . S
C2345 C2346 1.523 . S
C2346 C2330 1.368 . S
C2346 C2342 1.368 . S
C2346 C2345 1.523 . S
H2347 C2322 0.950 . S
H2348 C2324 0.950 . S
H2349 C2325 0.949 . S
H2350 C2327 0.950 . S
H2351 C2329 0.950 . S
C2352 C2353 1.349 . S
C2352 C2354 1.327 . S
C2352 H2377 0.950 . S
C2353 C2352 1.349 . S
C2353 C2369 1.349 . S
C2354 C2352 1.327 . S
C2354 C2373 1.429 . S
C2354 H2378 0.950 . S
C2355 C2372 1.574 . S
C2355 C2374 1.368 . S
C2355 H2379 0.949 . S
H2356 C2360 0.949 . S
C2357 C2358 1.349 . S
C2357 C2359 1.327 . S
C2357 H2380 0.950 . S
C2358 C2357 1.349 . S
C2358 C2370 1.349 . S
C2359 C2357 1.327 . S
C2359 C2375 1.429 . S
C2359 H2381 0.950 . S
C2360 H2356 0.949 . S
C2360 C2368 1.574 . S
C2360 C2376 1.368 . S
H2361 C2369 0.950 . S
H2362 C2367 0.950 . S
H2363 C2368 0.949 . S
H2364 C2370 0.950 . S
H2365 C2371 0.950 . S
H2366 C2372 0.949 . S
C2367 H2362 0.950 . S
C2367 C2369 1.327 . S
C2367 C2373 1.429 . S
C2368 C2360 1.574 . S
C2368 H2363 0.949 . S
C2368 C2374 1.368 . S
C2369 C2353 1.349 . S
C2369 H2361 0.950 . S
C2369 C2367 1.327 . S
C2370 C2358 1.349 . S
C2370 H2364 0.950 . S
C2370 C2371 1.327 . S
C2371 H2365 0.950 . S
C2371 C2370 1.327 . S
C2371 C2375 1.429 . S
C2372 C2355 1.574 . S
C2372 H2366 0.949 . S
C2372 C2376 1.368 . S
C2373 C2354 1.429 . S
C2373 C2367 1.429 . S
C2373 C2374 1.523 . S
C2374 C2355 1.368 . S
C2374 C2368 1.368 . S
C2374 C2373 1.523 . S
C2375 C2359 1.429 . S
C2375 C2371 1.429 . S
C2375 C2376 1.523 . S
C2376 C2360 1.368 . S
C2376 C2372 1.368 . S
C2376 C2375 1.523 . S
H2377 C2352 0.950 . S
H2378 C2354 0.950 . S
H2379 C2355 0.949 . S
H2380 C2357 0.950 . S
H2381 C2359 0.950 . S
C2382 C2383 1.349 . S
C2382 C2384 1.327 . S
C2382 H2407 0.950 . S
C2383 C2382 1.349 . S
C2383 C2399 1.349 . S
C2384 C2382 1.327 . S
C2384 C2403 1.429 . S
C2384 H2408 0.950 . S
C2385 C2402 1.574 . S
C2385 C2404 1.368 . S
C2385 H2409 0.949 . S
H2386 C2390 0.949 . S
C2387 C2388 1.349 . S
C2387 C2389 1.327 . S
C2387 H2410 0.950 . S
C2388 C2387 1.349 . S
C2388 C2400 1.349 . S
C2389 C2387 1.327 . S
C2389 C2405 1.429 . S
C2389 H2411 0.950 . S
C2390 H2386 0.949 . S
C2390 C2398 1.574 . S
C2390 C2406 1.368 . S
H2391 C2399 0.950 . S
H2392 C2397 0.950 . S
H2393 C2398 0.949 . S
H2394 C2400 0.950 . S
H2395 C2401 0.950 . S
H2396 C2402 0.949 . S
C2397 H2392 0.950 . S
C2397 C2399 1.327 . S
C2397 C2403 1.429 . S
C2398 C2390 1.574 . S
C2398 H2393 0.949 . S
C2398 C2404 1.368 . S
C2399 C2383 1.349 . S
C2399 H2391 0.950 . S
C2399 C2397 1.327 . S
C2400 C2388 1.349 . S
C2400 H2394 0.950 . S
C2400 C2401 1.327 . S
C2401 H2395 0.950 . S
C2401 C2400 1.327 . S
C2401 C2405 1.429 . S
C2402 C2385 1.574 . S
C2402 H2396 0.949 . S
C2402 C2406 1.368 . S
C2403 C2384 1.429 . S
C2403 C2397 1.429 . S
C2403 C2404 1.523 . S
C2404 C2385 1.368 . S
C2404 C2398 1.368 . S
C2404 C2403 1.523 . S
C2405 C2389 1.429 . S
C2405 C2401 1.429 . S
C2405 C2406 1.523 . S
C2406 C2390 1.368 . S
C2406 C2402 1.368 . S
C2406 C2405 1.523 . S
H2407 C2382 0.950 . S
H2408 C2384 0.950 . S
H2409 C2385 0.949 . S
H2410 C2387 0.950 . S
H2411 C2389 0.950 . S
C2412 C2413 1.349 . S
C2412 C2414 1.327 . S
C2412 H2437 0.950 . S
C2413 C2412 1.349 . S
C2413 C2429 1.349 . S
C2414 C2412 1.327 . S
C2414 C2433 1.429 . S
C2414 H2438 0.950 . S
C2415 C2432 1.574 . S
C2415 C2434 1.368 . S
C2415 H2439 0.949 . S
H2416 C2420 0.949 . S
C2417 C2418 1.349 . S
C2417 C2419 1.327 . S
C2417 H2440 0.950 . S
C2418 C2417 1.349 . S
C2418 C2430 1.349 . S
C2419 C2417 1.327 . S
C2419 C2435 1.429 . S
C2419 H2441 0.950 . S
C2420 H2416 0.949 . S
C2420 C2428 1.574 . S
C2420 C2436 1.368 . S
H2421 C2429 0.950 . S
H2422 C2427 0.950 . S
H2423 C2428 0.949 . S
H2424 C2430 0.950 . S
H2425 C2431 0.950 . S
H2426 C2432 0.949 . S
C2427 H2422 0.950 . S
C2427 C2429 1.327 . S
C2427 C2433 1.429 . S
C2428 C2420 1.574 . S
C2428 H2423 0.949 . S
C2428 C2434 1.368 . S
C2429 C2413 1.349 . S
C2429 H2421 0.950 . S
C2429 C2427 1.327 . S
C2430 C2418 1.349 . S
C2430 H2424 0.950 . S
C2430 C2431 1.327 . S
C2431 H2425 0.950 . S
C2431 C2430 1.327 . S
C2431 C2435 1.429 . S
C2432 C2415 1.574 . S
C2432 H2426 0.949 . S
C2432 C2436 1.368 . S
C2433 C2414 1.429 . S
C2433 C2427 1.429 . S
C2433 C2434 1.523 . S
C2434 C2415 1.368 . S
C2434 C2428 1.368 . S
C2434 C2433 1.523 . S
C2435 C2419 1.429 . S
C2435 C2431 1.429 . S
C2435 C2436 1.523 . S
C2436 C2420 1.368 . S
C2436 C2432 1.368 . S
C2436 C2435 1.523 . S
H2437 C2412 0.950 . S
H2438 C2414 0.950 . S
H2439 C2415 0.949 . S
H2440 C2417 0.950 . S
H2441 C2419 0.950 . S
C2442 C2443 1.349 . S
C2442 C2444 1.327 . S
C2442 H2467 0.950 . S
C2443 C2442 1.349 . S
C2443 C2459 1.349 . S
C2444 C2442 1.327 . S
C2444 C2463 1.429 . S
C2444 H2468 0.950 . S
C2445 C2462 1.574 . S
C2445 C2464 1.368 . S
C2445 H2469 0.949 . S
H2446 C2450 0.949 . S
C2447 C2448 1.349 . S
C2447 C2449 1.327 . S
C2447 H2470 0.950 . S
C2448 C2447 1.349 . S
C2448 C2460 1.349 . S
C2449 C2447 1.327 . S
C2449 C2465 1.429 . S
C2449 H2471 0.950 . S
C2450 H2446 0.949 . S
C2450 C2458 1.574 . S
C2450 C2466 1.368 . S
H2451 C2459 0.950 . S
H2452 C2457 0.950 . S
H2453 C2458 0.949 . S
H2454 C2460 0.950 . S
H2455 C2461 0.950 . S
H2456 C2462 0.949 . S
C2457 H2452 0.950 . S
C2457 C2459 1.327 . S
C2457 C2463 1.429 . S
C2458 C2450 1.574 . S
C2458 H2453 0.949 . S
C2458 C2464 1.368 . S
C2459 C2443 1.349 . S
C2459 H2451 0.950 . S
C2459 C2457 1.327 . S
C2460 C2448 1.349 . S
C2460 H2454 0.950 . S
C2460 C2461 1.327 . S
C2461 H2455 0.950 . S
C2461 C2460 1.327 . S
C2461 C2465 1.429 . S
C2462 C2445 1.574 . S
C2462 H2456 0.949 . S
C2462 C2466 1.368 . S
C2463 C2444 1.429 . S
C2463 C2457 1.429 . S
C2463 C2464 1.523 . S
C2464 C2445 1.368 . S
C2464 C2458 1.368 . S
C2464 C2463 1.523 . S
C2465 C2449 1.429 . S
C2465 C2461 1.429 . S
C2465 C2466 1.523 . S
C2466 C2450 1.368 . S
C2466 C2462 1.368 . S
C2466 C2465 1.523 . S
H2467 C2442 0.950 . S
H2468 C2444 0.950 . S
H2469 C2445 0.949 . S
H2470 C2447 0.950 . S
H2471 C2449 0.950 . S
C2472 C2473 1.349 . S
C2472 C2474 1.327 . S
C2472 H2497 0.950 . S
C2473 C2472 1.349 . S
C2473 C2489 1.349 . S
C2474 C2472 1.327 . S
C2474 C2493 1.429 . S
C2474 H2498 0.950 . S
C2475 C2492 1.574 . S
C2475 C2494 1.368 . S
C2475 H2499 0.949 . S
H2476 C2480 0.949 . S
C2477 C2478 1.349 . S
C2477 C2479 1.327 . S
C2477 H2500 0.950 . S
C2478 C2477 1.349 . S
C2478 C2490 1.349 . S
C2479 C2477 1.327 . S
C2479 C2495 1.429 . S
C2479 H2501 0.950 . S
C2480 H2476 0.949 . S
C2480 C2488 1.574 . S
C2480 C2496 1.368 . S
H2481 C2489 0.950 . S
H2482 C2487 0.950 . S
H2483 C2488 0.949 . S
H2484 C2490 0.950 . S
H2485 C2491 0.950 . S
H2486 C2492 0.949 . S
C2487 H2482 0.950 . S
C2487 C2489 1.327 . S
C2487 C2493 1.429 . S
C2488 C2480 1.574 . S
C2488 H2483 0.949 . S
C2488 C2494 1.368 . S
C2489 C2473 1.349 . S
C2489 H2481 0.950 . S
C2489 C2487 1.327 . S
C2490 C2478 1.349 . S
C2490 H2484 0.950 . S
C2490 C2491 1.327 . S
C2491 H2485 0.950 . S
C2491 C2490 1.327 . S
C2491 C2495 1.429 . S
C2492 C2475 1.574 . S
C2492 H2486 0.949 . S
C2492 C2496 1.368 . S
C2493 C2474 1.429 . S
C2493 C2487 1.429 . S
C2493 C2494 1.523 . S
C2494 C2475 1.368 . S
C2494 C2488 1.368 . S
C2494 C2493 1.523 . S
C2495 C2479 1.429 . S
C2495 C2491 1.429 . S
C2495 C2496 1.523 . S
C2496 C2480 1.368 . S
C2496 C2492 1.368 . S
C2496 C2495 1.523 . S
H2497 C2472 0.950 . S
H2498 C2474 0.950 . S
H2499 C2475 0.949 . S
H2500 C2477 0.950 . S
H2501 C2479 0.950 . S
C2502 C2503 1.349 . S
C2502 C2504 1.327 . S
C2502 H2527 0.950 . S
C2503 C2502 1.349 . S
C2503 C2519 1.349 . S
C2504 C2502 1.327 . S
C2504 C2523 1.429 . S
C2504 H2528 0.950 . S
C2505 C2522 1.574 . S
C2505 C2524 1.368 . S
C2505 H2529 0.949 . S
H2506 C2510 0.949 . S
C2507 C2508 1.349 . S
C2507 C2509 1.327 . S
C2507 H2530 0.950 . S
C2508 C2507 1.349 . S
C2508 C2520 1.349 . S
C2509 C2507 1.327 . S
C2509 C2525 1.429 . S
C2509 H2531 0.950 . S
C2510 H2506 0.949 . S
C2510 C2518 1.574 . S
C2510 C2526 1.368 . S
H2511 C2519 0.950 . S
H2512 C2517 0.950 . S
H2513 C2518 0.949 . S
H2514 C2520 0.950 . S
H2515 C2521 0.950 . S
H2516 C2522 0.949 . S
C2517 H2512 0.950 . S
C2517 C2519 1.327 . S
C2517 C2523 1.429 . S
C2518 C2510 1.574 . S
C2518 H2513 0.949 . S
C2518 C2524 1.368 . S
C2519 C2503 1.349 . S
C2519 H2511 0.950 . S
C2519 C2517 1.327 . S
C2520 C2508 1.349 . S
C2520 H2514 0.950 . S
C2520 C2521 1.327 . S
C2521 H2515 0.950 . S
C2521 C2520 1.327 . S
C2521 C2525 1.429 . S
C2522 C2505 1.574 . S
C2522 H2516 0.949 . S
C2522 C2526 1.368 . S
C2523 C2504 1.429 . S
C2523 C2517 1.429 . S
C2523 C2524 1.523 . S
C2524 C2505 1.368 . S
C2524 C2518 1.368 . S
C2524 C2523 1.523 . S
C2525 C2509 1.429 . S
C2525 C2521 1.429 . S
C2525 C2526 1.523 . S
C2526 C2510 1.368 . S
C2526 C2522 1.368 . S
C2526 C2525 1.523 . S
H2527 C2502 0.950 . S
H2528 C2504 0.950 . S
H2529 C2505 0.949 . S
H2530 C2507 0.950 . S
H2531 C2509 0.950 . S
C2532 C2533 1.349 . S
C2532 C2534 1.327 . S
C2532 H2557 0.950 . S
C2533 C2532 1.349 . S
C2533 C2549 1.349 . S
C2534 C2532 1.327 . S
C2534 C2553 1.429 . S
C2534 H2558 0.950 . S
C2535 C2552 1.574 . S
C2535 C2554 1.368 . S
C2535 H2559 0.949 . S
H2536 C2540 0.949 . S
C2537 C2538 1.349 . S
C2537 C2539 1.327 . S
C2537 H2560 0.950 . S
C2538 C2537 1.349 . S
C2538 C2550 1.349 . S
C2539 C2537 1.327 . S
C2539 C2555 1.429 . S
C2539 H2561 0.950 . S
C2540 H2536 0.949 . S
C2540 C2548 1.574 . S
C2540 C2556 1.368 . S
H2541 C2549 0.950 . S
H2542 C2547 0.950 . S
H2543 C2548 0.949 . S
H2544 C2550 0.950 . S
H2545 C2551 0.950 . S
H2546 C2552 0.949 . S
C2547 H2542 0.950 . S
C2547 C2549 1.327 . S
C2547 C2553 1.429 . S
C2548 C2540 1.574 . S
C2548 H2543 0.949 . S
C2548 C2554 1.368 . S
C2549 C2533 1.349 . S
C2549 H2541 0.950 . S
C2549 C2547 1.327 . S
C2550 C2538 1.349 . S
C2550 H2544 0.950 . S
C2550 C2551 1.327 . S
C2551 H2545 0.950 . S
C2551 C2550 1.327 . S
C2551 C2555 1.429 . S
C2552 C2535 1.574 . S
C2552 H2546 0.949 . S
C2552 C2556 1.368 . S
C2553 C2534 1.429 . S
C2553 C2547 1.429 . S
C2553 C2554 1.523 . S
C2554 C2535 1.368 . S
C2554 C2548 1.368 . S
C2554 C2553 1.523 . S
C2555 C2539 1.429 . S
C2555 C2551 1.429 . S
C2555 C2556 1.523 . S
C2556 C2540 1.368 . S
C2556 C2552 1.368 . S
C2556 C2555 1.523 . S
H2557 C2532 0.950 . S
H2558 C2534 0.950 . S
H2559 C2535 0.949 . S
H2560 C2537 0.950 . S
H2561 C2539 0.950 . S
C2562 C2563 1.349 . S
C2562 C2564 1.327 . S
C2562 H2587 0.950 . S
C2563 C2562 1.349 . S
C2563 C2579 1.349 . S
C2564 C2562 1.327 . S
C2564 C2583 1.429 . S
C2564 H2588 0.950 . S
C2565 C2582 1.574 . S
C2565 C2584 1.368 . S
C2565 H2589 0.949 . S
H2566 C2570 0.949 . S
C2567 C2568 1.349 . S
C2567 C2569 1.327 . S
C2567 H2590 0.950 . S
C2568 C2567 1.349 . S
C2568 C2580 1.349 . S
C2569 C2567 1.327 . S
C2569 C2585 1.429 . S
C2569 H2591 0.950 . S
C2570 H2566 0.949 . S
C2570 C2578 1.574 . S
C2570 C2586 1.368 . S
H2571 C2579 0.950 . S
H2572 C2577 0.950 . S
H2573 C2578 0.949 . S
H2574 C2580 0.950 . S
H2575 C2581 0.950 . S
H2576 C2582 0.949 . S
C2577 H2572 0.950 . S
C2577 C2579 1.327 . S
C2577 C2583 1.429 . S
C2578 C2570 1.574 . S
C2578 H2573 0.949 . S
C2578 C2584 1.368 . S
C2579 C2563 1.349 . S
C2579 H2571 0.950 . S
C2579 C2577 1.327 . S
C2580 C2568 1.349 . S
C2580 H2574 0.950 . S
C2580 C2581 1.327 . S
C2581 H2575 0.950 . S
C2581 C2580 1.327 . S
C2581 C2585 1.429 . S
C2582 C2565 1.574 . S
C2582 H2576 0.949 . S
C2582 C2586 1.368 . S
C2583 C2564 1.429 . S
C2583 C2577 1.429 . S
C2583 C2584 1.523 . S
C2584 C2565 1.368 . S
C2584 C2578 1.368 . S
C2584 C2583 1.523 . S
C2585 C2569 1.429 . S
C2585 C2581 1.429 . S
C2585 C2586 1.523 . S
C2586 C2570 1.368 . S
C2586 C2582 1.368 . S
C2586 C2585 1.523 . S
H2587 C2562 0.950 . S
H2588 C2564 0.950 . S
H2589 C2565 0.949 . S
H2590 C2567 0.950 . S
H2591 C2569 0.950 . S
C2592 C2593 1.349 . S
C2592 C2594 1.327 . S
C2592 H2617 0.950 . S
C2593 C2592 1.349 . S
C2593 C2609 1.349 . S
C2594 C2592 1.327 . S
C2594 C2613 1.429 . S
C2594 H2618 0.950 . S
C2595 C2612 1.574 . S
C2595 C2614 1.368 . S
C2595 H2619 0.949 . S
H2596 C2600 0.949 . S
C2597 C2598 1.349 . S
C2597 C2599 1.327 . S
C2597 H2620 0.950 . S
C2598 C2597 1.349 . S
C2598 C2610 1.349 . S
C2599 C2597 1.327 . S
C2599 C2615 1.429 . S
C2599 H2621 0.950 . S
C2600 H2596 0.949 . S
C2600 C2608 1.574 . S
C2600 C2616 1.368 . S
H2601 C2609 0.950 . S
H2602 C2607 0.950 . S
H2603 C2608 0.949 . S
H2604 C2610 0.950 . S
H2605 C2611 0.950 . S
H2606 C2612 0.949 . S
C2607 H2602 0.950 . S
C2607 C2609 1.327 . S
C2607 C2613 1.429 . S
C2608 C2600 1.574 . S
C2608 H2603 0.949 . S
C2608 C2614 1.368 . S
C2609 C2593 1.349 . S
C2609 H2601 0.950 . S
C2609 C2607 1.327 . S
C2610 C2598 1.349 . S
C2610 H2604 0.950 . S
C2610 C2611 1.327 . S
C2611 H2605 0.950 . S
C2611 C2610 1.327 . S
C2611 C2615 1.429 . S
C2612 C2595 1.574 . S
C2612 H2606 0.949 . S
C2612 C2616 1.368 . S
C2613 C2594 1.429 . S
C2613 C2607 1.429 . S
C2613 C2614 1.523 . S
C2614 C2595 1.368 . S
C2614 C2608 1.368 . S
C2614 C2613 1.523 . S
C2615 C2599 1.429 . S
C2615 C2611 1.429 . S
C2615 C2616 1.523 . S
C2616 C2600 1.368 . S
C2616 C2612 1.368 . S
C2616 C2615 1.523 . S
H2617 C2592 0.950 . S
H2618 C2594 0.950 . S
H2619 C2595 0.949 . S
H2620 C2597 0.950 . S
H2621 C2599 0.950 . S
C2622 C2623 1.349 . S
C2622 C2624 1.327 . S
C2622 H2647 0.950 . S
C2623 C2622 1.349 . S
C2623 C2639 1.349 . S
C2624 C2622 1.327 . S
C2624 C2643 1.429 . S
C2624 H2648 0.950 . S
C2625 C2642 1.574 . S
C2625 C2644 1.368 . S
C2625 H2649 0.949 . S
H2626 C2630 0.949 . S
C2627 C2628 1.349 . S
C2627 C2629 1.327 . S
C2627 H2650 0.950 . S
C2628 C2627 1.349 . S
C2628 C2640 1.349 . S
C2629 C2627 1.327 . S
C2629 C2645 1.429 . S
C2629 H2651 0.950 . S
C2630 H2626 0.949 . S
C2630 C2638 1.574 . S
C2630 C2646 1.368 . S
H2631 C2639 0.950 . S
H2632 C2637 0.950 . S
H2633 C2638 0.949 . S
H2634 C2640 0.950 . S
H2635 C2641 0.950 . S
H2636 C2642 0.949 . S
C2637 H2632 0.950 . S
C2637 C2639 1.327 . S
C2637 C2643 1.429 . S
C2638 C2630 1.574 . S
C2638 H2633 0.949 . S
C2638 C2644 1.368 . S
C2639 C2623 1.349 . S
C2639 H2631 0.950 . S
C2639 C2637 1.327 . S
C2640 C2628 1.349 . S
C2640 H2634 0.950 . S
C2640 C2641 1.327 . S
C2641 H2635 0.950 . S
C2641 C2640 1.327 . S
C2641 C2645 1.429 . S
C2642 C2625 1.574 . S
C2642 H2636 0.949 . S
C2642 C2646 1.368 . S
C2643 C2624 1.429 . S
C2643 C2637 1.429 . S
C2643 C2644 1.523 . S
C2644 C2625 1.368 . S
C2644 C2638 1.368 . S
C2644 C2643 1.523 . S
C2645 C2629 1.429 . S
C2645 C2641 1.429 . S
C2645 C2646 1.523 . S
C2646 C2630 1.368 . S
C2646 C2642 1.368 . S
C2646 C2645 1.523 . S
H2647 C2622 0.950 . S
H2648 C2624 0.950 . S
H2649 C2625 0.949 . S
H2650 C2627 0.950 . S
H2651 C2629 0.950 . S
C2652 C2653 1.349 . S
C2652 C2654 1.327 . S
C2652 H2677 0.950 . S
C2653 C2652 1.349 . S
C2653 C2669 1.349 . S
C2654 C2652 1.327 . S
C2654 C2673 1.429 . S
C2654 H2678 0.950 . S
C2655 C2672 1.574 . S
C2655 C2674 1.368 . S
C2655 H2679 0.949 . S
H2656 C2660 0.949 . S
C2657 C2658 1.349 . S
C2657 C2659 1.327 . S
C2657 H2680 0.950 . S
C2658 C2657 1.349 . S
C2658 C2670 1.349 . S
C2659 C2657 1.327 . S
C2659 C2675 1.429 . S
C2659 H2681 0.950 . S
C2660 H2656 0.949 . S
C2660 C2668 1.574 . S
C2660 C2676 1.368 . S
H2661 C2669 0.950 . S
H2662 C2667 0.950 . S
H2663 C2668 0.949 . S
H2664 C2670 0.950 . S
H2665 C2671 0.950 . S
H2666 C2672 0.949 . S
C2667 H2662 0.950 . S
C2667 C2669 1.327 . S
C2667 C2673 1.429 . S
C2668 C2660 1.574 . S
C2668 H2663 0.949 . S
C2668 C2674 1.368 . S
C2669 C2653 1.349 . S
C2669 H2661 0.950 . S
C2669 C2667 1.327 . S
C2670 C2658 1.349 . S
C2670 H2664 0.950 . S
C2670 C2671 1.327 . S
C2671 H2665 0.950 . S
C2671 C2670 1.327 . S
C2671 C2675 1.429 . S
C2672 C2655 1.574 . S
C2672 H2666 0.949 . S
C2672 C2676 1.368 . S
C2673 C2654 1.429 . S
C2673 C2667 1.429 . S
C2673 C2674 1.523 . S
C2674 C2655 1.368 . S
C2674 C2668 1.368 . S
C2674 C2673 1.523 . S
C2675 C2659 1.429 . S
C2675 C2671 1.429 . S
C2675 C2676 1.523 . S
C2676 C2660 1.368 . S
C2676 C2672 1.368 . S
C2676 C2675 1.523 . S
H2677 C2652 0.950 . S
H2678 C2654 0.950 . S
H2679 C2655 0.949 . S
H2680 C2657 0.950 . S
H2681 C2659 0.950 . S
C2682 C2683 1.349 . S
C2682 C2684 1.327 . S
C2682 H2707 0.950 . S
C2683 C2682 1.349 . S
C2683 C2699 1.349 . S
C2684 C2682 1.327 . S
C2684 C2703 1.429 . S
C2684 H2708 0.950 . S
C2685 C2702 1.574 . S
C2685 C2704 1.368 . S
C2685 H2709 0.949 . S
H2686 C2690 0.949 . S
C2687 C2688 1.349 . S
C2687 C2689 1.327 . S
C2687 H2710 0.950 . S
C2688 C2687 1.349 . S
C2688 C2700 1.349 . S
C2689 C2687 1.327 . S
C2689 C2705 1.429 . S
C2689 H2711 0.950 . S
C2690 H2686 0.949 . S
C2690 C2698 1.574 . S
C2690 C2706 1.368 . S
H2691 C2699 0.950 . S
H2692 C2697 0.950 . S
H2693 C2698 0.949 . S
H2694 C2700 0.950 . S
H2695 C2701 0.950 . S
H2696 C2702 0.949 . S
C2697 H2692 0.950 . S
C2697 C2699 1.327 . S
C2697 C2703 1.429 . S
C2698 C2690 1.574 . S
C2698 H2693 0.949 . S
C2698 C2704 1.368 . S
C2699 C2683 1.349 . S
C2699 H2691 0.950 . S
C2699 C2697 1.327 . S
C2700 C2688 1.349 . S
C2700 H2694 0.950 . S
C2700 C2701 1.327 . S
C2701 H2695 0.950 . S
C2701 C2700 1.327 . S
C2701 C2705 1.429 . S
C2702 C2685 1.574 . S
C2702 H2696 0.949 . S
C2702 C2706 1.368 . S
C2703 C2684 1.429 . S
C2703 C2697 1.429 . S
C2703 C2704 1.523 . S
C2704 C2685 1.368 . S
C2704 C2698 1.368 . S
C2704 C2703 1.523 . S
C2705 C2689 1.429 . S
C2705 C2701 1.429 . S
C2705 C2706 1.523 . S
C2706 C2690 1.368 . S
C2706 C2702 1.368 . S
C2706 C2705 1.523 . S
H2707 C2682 0.950 . S
H2708 C2684 0.950 . S
H2709 C2685 0.949 . S
H2710 C2687 0.950 . S
H2711 C2689 0.950 . S
C2712 C2713 1.349 . S
C2712 C2714 1.327 . S
C2712 H2737 0.950 . S
C2713 C2712 1.349 . S
C2713 C2729 1.349 . S
C2714 C2712 1.327 . S
C2714 C2733 1.429 . S
C2714 H2738 0.950 . S
C2715 C2732 1.574 . S
C2715 C2734 1.368 . S
C2715 H2739 0.949 . S
H2716 C2720 0.949 . S
C2717 C2718 1.349 . S
C2717 C2719 1.327 . S
C2717 H2740 0.950 . S
C2718 C2717 1.349 . S
C2718 C2730 1.349 . S
C2719 C2717 1.327 . S
C2719 C2735 1.429 . S
C2719 H2741 0.950 . S
C2720 H2716 0.949 . S
C2720 C2728 1.574 . S
C2720 C2736 1.368 . S
H2721 C2729 0.950 . S
H2722 C2727 0.950 . S
H2723 C2728 0.949 . S
H2724 C2730 0.950 . S
H2725 C2731 0.950 . S
H2726 C2732 0.949 . S
C2727 H2722 0.950 . S
C2727 C2729 1.327 . S
C2727 C2733 1.429 . S
C2728 C2720 1.574 . S
C2728 H2723 0.949 . S
C2728 C2734 1.368 . S
C2729 C2713 1.349 . S
C2729 H2721 0.950 . S
C2729 C2727 1.327 . S
C2730 C2718 1.349 . S
C2730 H2724 0.950 . S
C2730 C2731 1.327 . S
C2731 H2725 0.950 . S
C2731 C2730 1.327 . S
C2731 C2735 1.429 . S
C2732 C2715 1.574 . S
C2732 H2726 0.949 . S
C2732 C2736 1.368 . S
C2733 C2714 1.429 . S
C2733 C2727 1.429 . S
C2733 C2734 1.523 . S
C2734 C2715 1.368 . S
C2734 C2728 1.368 . S
C2734 C2733 1.523 . S
C2735 C2719 1.429 . S
C2735 C2731 1.429 . S
C2735 C2736 1.523 . S
C2736 C2720 1.368 . S
C2736 C2732 1.368 . S
C2736 C2735 1.523 . S
H2737 C2712 0.950 . S
H2738 C2714 0.950 . S
H2739 C2715 0.949 . S
H2740 C2717 0.950 . S
H2741 C2719 0.950 . S
C2742 C2743 1.349 . S
C2742 C2744 1.327 . S
C2742 H2767 0.950 . S
C2743 C2742 1.349 . S
C2743 C2759 1.349 . S
C2744 C2742 1.327 . S
C2744 C2763 1.429 . S
C2744 H2768 0.950 . S
C2745 C2762 1.574 . S
C2745 C2764 1.368 . S
C2745 H2769 0.949 . S
H2746 C2750 0.949 . S
C2747 C2748 1.349 . S
C2747 C2749 1.327 . S
C2747 H2770 0.950 . S
C2748 C2747 1.349 . S
C2748 C2760 1.349 . S
C2749 C2747 1.327 . S
C2749 C2765 1.429 . S
C2749 H2771 0.950 . S
C2750 H2746 0.949 . S
C2750 C2758 1.574 . S
C2750 C2766 1.368 . S
H2751 C2759 0.950 . S
H2752 C2757 0.950 . S
H2753 C2758 0.949 . S
H2754 C2760 0.950 . S
H2755 C2761 0.950 . S
H2756 C2762 0.949 . S
C2757 H2752 0.950 . S
C2757 C2759 1.327 . S
C2757 C2763 1.429 . S
C2758 C2750 1.574 . S
C2758 H2753 0.949 . S
C2758 C2764 1.368 . S
C2759 C2743 1.349 . S
C2759 H2751 0.950 . S
C2759 C2757 1.327 . S
C2760 C2748 1.349 . S
C2760 H2754 0.950 . S
C2760 C2761 1.327 . S
C2761 H2755 0.950 . S
C2761 C2760 1.327 . S
C2761 C2765 1.429 . S
C2762 C2745 1.574 . S
C2762 H2756 0.949 . S
C2762 C2766 1.368 . S
C2763 C2744 1.429 . S
C2763 C2757 1.429 . S
C2763 C2764 1.523 . S
C2764 C2745 1.368 . S
C2764 C2758 1.368 . S
C2764 C2763 1.523 . S
C2765 C2749 1.429 . S
C2765 C2761 1.429 . S
C2765 C2766 1.523 . S
C2766 C2750 1.368 . S
C2766 C2762 1.368 . S
C2766 C2765 1.523 . S
H2767 C2742 0.950 . S
H2768 C2744 0.950 . S
H2769 C2745 0.949 . S
H2770 C2747 0.950 . S
H2771 C2749 0.950 . S
C2772 C2773 1.349 . S
C2772 C2774 1.327 . S
C2772 H2797 0.950 . S
C2773 C2772 1.349 . S
C2773 C2789 1.349 . S
C2774 C2772 1.327 . S
C2774 C2793 1.429 . S
C2774 H2798 0.950 . S
C2775 C2792 1.574 . S
C2775 C2794 1.368 . S
C2775 H2799 0.949 . S
H2776 C2780 0.949 . S
C2777 C2778 1.349 . S
C2777 C2779 1.327 . S
C2777 H2800 0.950 . S
C2778 C2777 1.349 . S
C2778 C2790 1.349 . S
C2779 C2777 1.327 . S
C2779 C2795 1.429 . S
C2779 H2801 0.950 . S
C2780 H2776 0.949 . S
C2780 C2788 1.574 . S
C2780 C2796 1.368 . S
H2781 C2789 0.950 . S
H2782 C2787 0.950 . S
H2783 C2788 0.949 . S
H2784 C2790 0.950 . S
H2785 C2791 0.950 . S
H2786 C2792 0.949 . S
C2787 H2782 0.950 . S
C2787 C2789 1.327 . S
C2787 C2793 1.429 . S
C2788 C2780 1.574 . S
C2788 H2783 0.949 . S
C2788 C2794 1.368 . S
C2789 C2773 1.349 . S
C2789 H2781 0.950 . S
C2789 C2787 1.327 . S
C2790 C2778 1.349 . S
C2790 H2784 0.950 . S
C2790 C2791 1.327 . S
C2791 H2785 0.950 . S
C2791 C2790 1.327 . S
C2791 C2795 1.429 . S
C2792 C2775 1.574 . S
C2792 H2786 0.949 . S
C2792 C2796 1.368 . S
C2793 C2774 1.429 . S
C2793 C2787 1.429 . S
C2793 C2794 1.523 . S
C2794 C2775 1.368 . S
C2794 C2788 1.368 . S
C2794 C2793 1.523 . S
C2795 C2779 1.429 . S
C2795 C2791 1.429 . S
C2795 C2796 1.523 . S
C2796 C2780 1.368 . S
C2796 C2792 1.368 . S
C2796 C2795 1.523 . S
H2797 C2772 0.950 . S
H2798 C2774 0.950 . S
H2799 C2775 0.949 . S
H2800 C2777 0.950 . S
H2801 C2779 0.950 . S
C2802 C2803 1.349 . S
C2802 C2804 1.327 . S
C2802 H2827 0.950 . S
C2803 C2802 1.349 . S
C2803 C2819 1.349 . S
C2804 C2802 1.327 . S
C2804 C2823 1.429 . S
C2804 H2828 0.950 . S
C2805 C2822 1.574 . S
C2805 C2824 1.368 . S
C2805 H2829 0.949 . S
H2806 C2810 0.949 . S
C2807 C2808 1.349 . S
C2807 C2809 1.327 . S
C2807 H2830 0.950 . S
C2808 C2807 1.349 . S
C2808 C2820 1.349 . S
C2809 C2807 1.327 . S
C2809 C2825 1.429 . S
C2809 H2831 0.950 . S
C2810 H2806 0.949 . S
C2810 C2818 1.574 . S
C2810 C2826 1.368 . S
H2811 C2819 0.950 . S
H2812 C2817 0.950 . S
H2813 C2818 0.949 . S
H2814 C2820 0.950 . S
H2815 C2821 0.950 . S
H2816 C2822 0.949 . S
C2817 H2812 0.950 . S
C2817 C2819 1.327 . S
C2817 C2823 1.429 . S
C2818 C2810 1.574 . S
C2818 H2813 0.949 . S
C2818 C2824 1.368 . S
C2819 C2803 1.349 . S
C2819 H2811 0.950 . S
C2819 C2817 1.327 . S
C2820 C2808 1.349 . S
C2820 H2814 0.950 . S
C2820 C2821 1.327 . S
C2821 H2815 0.950 . S
C2821 C2820 1.327 . S
C2821 C2825 1.429 . S
C2822 C2805 1.574 . S
C2822 H2816 0.949 . S
C2822 C2826 1.368 . S
C2823 C2804 1.429 . S
C2823 C2817 1.429 . S
C2823 C2824 1.523 . S
C2824 C2805 1.368 . S
C2824 C2818 1.368 . S
C2824 C2823 1.523 . S
C2825 C2809 1.429 . S
C2825 C2821 1.429 . S
C2825 C2826 1.523 . S
C2826 C2810 1.368 . S
C2826 C2822 1.368 . S
C2826 C2825 1.523 . S
H2827 C2802 0.950 . S
H2828 C2804 0.950 . S
H2829 C2805 0.949 . S
H2830 C2807 0.950 . S
H2831 C2809 0.950 . S
C2832 C2833 1.349 . S
C2832 C2834 1.327 . S
C2832 H2857 0.950 . S
C2833 C2832 1.349 . S
C2833 C2849 1.349 . S
C2834 C2832 1.327 . S
C2834 C2853 1.429 . S
C2834 H2858 0.950 . S
C2835 C2852 1.574 . S
C2835 C2854 1.368 . S
C2835 H2859 0.949 . S
H2836 C2840 0.949 . S
C2837 C2838 1.349 . S
C2837 C2839 1.327 . S
C2837 H2860 0.950 . S
C2838 C2837 1.349 . S
C2838 C2850 1.349 . S
C2839 C2837 1.327 . S
C2839 C2855 1.429 . S
C2839 H2861 0.950 . S
C2840 H2836 0.949 . S
C2840 C2848 1.574 . S
C2840 C2856 1.368 . S
H2841 C2849 0.950 . S
H2842 C2847 0.950 . S
H2843 C2848 0.949 . S
H2844 C2850 0.950 . S
H2845 C2851 0.950 . S
H2846 C2852 0.949 . S
C2847 H2842 0.950 . S
C2847 C2849 1.327 . S
C2847 C2853 1.429 . S
C2848 C2840 1.574 . S
C2848 H2843 0.949 . S
C2848 C2854 1.368 . S
C2849 C2833 1.349 . S
C2849 H2841 0.950 . S
C2849 C2847 1.327 . S
C2850 C2838 1.349 . S
C2850 H2844 0.950 . S
C2850 C2851 1.327 . S
C2851 H2845 0.950 . S
C2851 C2850 1.327 . S
C2851 C2855 1.429 . S
C2852 C2835 1.574 . S
C2852 H2846 0.949 . S
C2852 C2856 1.368 . S
C2853 C2834 1.429 . S
C2853 C2847 1.429 . S
C2853 C2854 1.523 . S
C2854 C2835 1.368 . S
C2854 C2848 1.368 . S
C2854 C2853 1.523 . S
C2855 C2839 1.429 . S
C2855 C2851 1.429 . S
C2855 C2856 1.523 . S
C2856 C2840 1.368 . S
C2856 C2852 1.368 . S
C2856 C2855 1.523 . S
H2857 C2832 0.950 . S
H2858 C2834 0.950 . S
H2859 C2835 0.949 . S
H2860 C2837 0.950 . S
H2861 C2839 0.950 . S
C2862 C2863 1.349 . S
C2862 C2864 1.327 . S
C2862 H2887 0.950 . S
C2863 C2862 1.349 . S
C2863 C2879 1.349 . S
C2864 C2862 1.327 . S
C2864 C2883 1.429 . S
C2864 H2888 0.950 . S
C2865 C2882 1.574 . S
C2865 C2884 1.368 . S
C2865 H2889 0.949 . S
H2866 C2870 0.949 . S
C2867 C2868 1.349 . S
C2867 C2869 1.327 . S
C2867 H2890 0.950 . S
C2868 C2867 1.349 . S
C2868 C2880 1.349 . S
C2869 C2867 1.327 . S
C2869 C2885 1.429 . S
C2869 H2891 0.950 . S
C2870 H2866 0.949 . S
C2870 C2878 1.574 . S
C2870 C2886 1.368 . S
H2871 C2879 0.950 . S
H2872 C2877 0.950 . S
H2873 C2878 0.949 . S
H2874 C2880 0.950 . S
H2875 C2881 0.950 . S
H2876 C2882 0.949 . S
C2877 H2872 0.950 . S
C2877 C2879 1.327 . S
C2877 C2883 1.429 . S
C2878 C2870 1.574 . S
C2878 H2873 0.949 . S
C2878 C2884 1.368 . S
C2879 C2863 1.349 . S
C2879 H2871 0.950 . S
C2879 C2877 1.327 . S
C2880 C2868 1.349 . S
C2880 H2874 0.950 . S
C2880 C2881 1.327 . S
C2881 H2875 0.950 . S
C2881 C2880 1.327 . S
C2881 C2885 1.429 . S
C2882 C2865 1.574 . S
C2882 H2876 0.949 . S
C2882 C2886 1.368 . S
C2883 C2864 1.429 . S
C2883 C2877 1.429 . S
C2883 C2884 1.523 . S
C2884 C2865 1.368 . S
C2884 C2878 1.368 . S
C2884 C2883 1.523 . S
C2885 C2869 1.429 . S
C2885 C2881 1.429 . S
C2885 C2886 1.523 . S
C2886 C2870 1.368 . S
C2886 C2882 1.368 . S
C2886 C2885 1.523 . S
H2887 C2862 0.950 . S
H2888 C2864 0.950 . S
H2889 C2865 0.949 . S
H2890 C2867 0.950 . S
H2891 C2869 0.950 . S
C2892 C2893 1.349 . S
C2892 C2894 1.327 . S
C2892 H2917 0.950 . S
C2893 C2892 1.349 . S
C2893 C2909 1.349 . S
C2894 C2892 1.327 . S
C2894 C2913 1.429 . S
C2894 H2918 0.950 . S
C2895 C2912 1.574 . S
C2895 C2914 1.368 . S
C2895 H2919 0.949 . S
H2896 C2900 0.949 . S
C2897 C2898 1.349 . S
C2897 C2899 1.327 . S
C2897 H2920 0.950 . S
C2898 C2897 1.349 . S
C2898 C2910 1.349 . S
C2899 C2897 1.327 . S
C2899 C2915 1.429 . S
C2899 H2921 0.950 . S
C2900 H2896 0.949 . S
C2900 C2908 1.574 . S
C2900 C2916 1.368 . S
H2901 C2909 0.950 . S
H2902 C2907 0.950 . S
H2903 C2908 0.949 . S
H2904 C2910 0.950 . S
H2905 C2911 0.950 . S
H2906 C2912 0.949 . S
C2907 H2902 0.950 . S
C2907 C2909 1.327 . S
C2907 C2913 1.429 . S
C2908 C2900 1.574 . S
C2908 H2903 0.949 . S
C2908 C2914 1.368 . S
C2909 C2893 1.349 . S
C2909 H2901 0.950 . S
C2909 C2907 1.327 . S
C2910 C2898 1.349 . S
C2910 H2904 0.950 . S
C2910 C2911 1.327 . S
C2911 H2905 0.950 . S
C2911 C2910 1.327 . S
C2911 C2915 1.429 . S
C2912 C2895 1.574 . S
C2912 H2906 0.949 . S
C2912 C2916 1.368 . S
C2913 C2894 1.429 . S
C2913 C2907 1.429 . S
C2913 C2914 1.523 . S
C2914 C2895 1.368 . S
C2914 C2908 1.368 . S
C2914 C2913 1.523 . S
C2915 C2899 1.429 . S
C2915 C2911 1.429 . S
C2915 C2916 1.523 . S
C2916 C2900 1.368 . S
C2916 C2912 1.368 . S
C2916 C2915 1.523 . S
H2917 C2892 0.950 . S
H2918 C2894 0.950 . S
H2919 C2895 0.949 . S
H2920 C2897 0.950 . S
H2921 C2899 0.950 . S
C2922 C2923 1.349 . S
C2922 C2924 1.327 . S
C2922 H2947 0.950 . S
C2923 C2922 1.349 . S
C2923 C2939 1.349 . S
C2924 C2922 1.327 . S
C2924 C2943 1.429 . S
C2924 H2948 0.950 . S
C2925 C2942 1.574 . S
C2925 C2944 1.368 . S
C2925 H2949 0.949 . S
H2926 C2930 0.949 . S
C2927 C2928 1.349 . S
C2927 C2929 1.327 . S
C2927 H2950 0.950 . S
C2928 C2927 1.349 . S
C2928 C2940 1.349 . S
C2929 C2927 1.327 . S
C2929 C2945 1.429 . S
C2929 H2951 0.950 . S
C2930 H2926 0.949 . S
C2930 C2938 1.574 . S
C2930 C2946 1.368 . S
H2931 C2939 0.950 . S
H2932 C2937 0.950 . S
H2933 C2938 0.949 . S
H2934 C2940 0.950 . S
H2935 C2941 0.950 . S
H2936 C2942 0.949 . S
C2937 H2932 0.950 . S
C2937 C2939 1.327 . S
C2937 C2943 1.429 . S
C2938 C2930 1.574 . S
C2938 H2933 0.949 . S
C2938 C2944 1.368 . S
C2939 C2923 1.349 . S
C2939 H2931 0.950 . S
C2939 C2937 1.327 . S
C2940 C2928 1.349 . S
C2940 H2934 0.950 . S
C2940 C2941 1.327 . S
C2941 H2935 0.950 . S
C2941 C2940 1.327 . S
C2941 C2945 1.429 . S
C2942 C2925 1.574 . S
C2942 H2936 0.949 . S
C2942 C2946 1.368 . S
C2943 C2924 1.429 . S
C2943 C2937 1.429 . S
C2943 C2944 1.523 . S
C2944 C2925 1.368 . S
C2944 C2938 1.368 . S
C2944 C2943 1.523 . S
C2945 C2929 1.429 . S
C2945 C2941 1.429 . S
C2945 C2946 1.523 . S
C2946 C2930 1.368 . S
C2946 C2942 1.368 . S
C2946 C2945 1.523 . S
H2947 C2922 0.950 . S
H2948 C2924 0.950 . S
H2949 C2925 0.949 . S
H2950 C2927 0.950 . S
H2951 C2929 0.950 . S
C2952 C2953 1.349 . S
C2952 C2954 1.327 . S
C2952 H2977 0.950 . S
C2953 C2952 1.349 . S
C2953 C2969 1.349 . S
C2954 C2952 1.327 . S
C2954 C2973 1.429 . S
C2954 H2978 0.950 . S
C2955 C2972 1.574 . S
C2955 C2974 1.368 . S
C2955 H2979 0.949 . S
H2956 C2960 0.949 . S
C2957 C2958 1.349 . S
C2957 C2959 1.327 . S
C2957 H2980 0.950 . S
C2958 C2957 1.349 . S
C2958 C2970 1.349 . S
C2959 C2957 1.327 . S
C2959 C2975 1.429 . S
C2959 H2981 0.950 . S
C2960 H2956 0.949 . S
C2960 C2968 1.574 . S
C2960 C2976 1.368 . S
H2961 C2969 0.950 . S
H2962 C2967 0.950 . S
H2963 C2968 0.949 . S
H2964 C2970 0.950 . S
H2965 C2971 0.950 . S
H2966 C2972 0.949 . S
C2967 H2962 0.950 . S
C2967 C2969 1.327 . S
C2967 C2973 1.429 . S
C2968 C2960 1.574 . S
C2968 H2963 0.949 . S
C2968 C2974 1.368 . S
C2969 C2953 1.349 . S
C2969 H2961 0.950 . S
C2969 C2967 1.327 . S
C2970 C2958 1.349 . S
C2970 H2964 0.950 . S
C2970 C2971 1.327 . S
C2971 H2965 0.950 . S
C2971 C2970 1.327 . S
C2971 C2975 1.429 . S
C2972 C2955 1.574 . S
C2972 H2966 0.949 . S
C2972 C2976 1.368 . S
C2973 C2954 1.429 . S
C2973 C2967 1.429 . S
C2973 C2974 1.523 . S
C2974 C2955 1.368 . S
C2974 C2968 1.368 . S
C2974 C2973 1.523 . S
C2975 C2959 1.429 . S
C2975 C2971 1.429 . S
C2975 C2976 1.523 . S
C2976 C2960 1.368 . S
C2976 C2972 1.368 . S
C2976 C2975 1.523 . S
H2977 C2952 0.950 . S
H2978 C2954 0.950 . S
H2979 C2955 0.949 . S
H2980 C2957 0.950 . S
H2981 C2959 0.950 . S
C2982 C2983 1.349 . S
C2982 C2984 1.327 . S
C2982 H3007 0.950 . S
C2983 C2982 1.349 . S
C2983 C2999 1.349 . S
C2984 C2982 1.327 . S
C2984 C3003 1.429 . S
C2984 H3008 0.950 . S
C2985 C3002 1.574 . S
C2985 C3004 1.368 . S
C2985 H3009 0.949 . S
H2986 C2990 0.949 . S
C2987 C2988 1.349 . S
C2987 C2989 1.327 . S
C2987 H3010 0.950 . S
C2988 C2987 1.349 . S
C2988 C3000 1.349 . S
C2989 C2987 1.327 . S
C2989 C3005 1.429 . S
C2989 H3011 0.950 . S
C2990 H2986 0.949 . S
C2990 C2998 1.574 . S
C2990 C3006 1.368 . S
H2991 C2999 0.950 . S
H2992 C2997 0.950 . S
H2993 C2998 0.949 . S
H2994 C3000 0.950 . S
H2995 C3001 0.950 . S
H2996 C3002 0.949 . S
C2997 H2992 0.950 . S
C2997 C2999 1.327 . S
C2997 C3003 1.429 . S
C2998 C2990 1.574 . S
C2998 H2993 0.949 . S
C2998 C3004 1.368 . S
C2999 C2983 1.349 . S
C2999 H2991 0.950 . S
C2999 C2997 1.327 . S
C3000 C2988 1.349 . S
C3000 H2994 0.950 . S
C3000 C3001 1.327 . S
C3001 H2995 0.950 . S
C3001 C3000 1.327 . S
C3001 C3005 1.429 . S
C3002 C2985 1.574 . S
C3002 H2996 0.949 . S
C3002 C3006 1.368 . S
C3003 C2984 1.429 . S
C3003 C2997 1.429 . S
C3003 C3004 1.523 . S
C3004 C2985 1.368 . S
C3004 C2998 1.368 . S
C3004 C3003 1.523 . S
C3005 C2989 1.429 . S
C3005 C3001 1.429 . S
C3005 C3006 1.523 . S
C3006 C2990 1.368 . S
C3006 C3002 1.368 . S
C3006 C3005 1.523 . S
H3007 C2982 0.950 . S
H3008 C2984 0.950 . S
H3009 C2985 0.949 . S
H3010 C2987 0.950 . S
H3011 C2989 0.950 . S
C3012 C3013 1.349 . S
C3012 C3014 1.327 . S
C3012 H3037 0.950 . S
C3013 C3012 1.349 . S
C3013 C3029 1.349 . S
C3014 C3012 1.327 . S
C3014 C3033 1.429 . S
C3014 H3038 0.950 . S
C3015 C3032 1.574 . S
C3015 C3034 1.368 . S
C3015 H3039 0.949 . S
H3016 C3020 0.949 . S
C3017 C3018 1.349 . S
C3017 C3019 1.327 . S
C3017 H3040 0.950 . S
C3018 C3017 1.349 . S
C3018 C3030 1.349 . S
C3019 C3017 1.327 . S
C3019 C3035 1.429 . S
C3019 H3041 0.950 . S
C3020 H3016 0.949 . S
C3020 C3028 1.574 . S
C3020 C3036 1.368 . S
H3021 C3029 0.950 . S
H3022 C3027 0.950 . S
H3023 C3028 0.949 . S
H3024 C3030 0.950 . S
H3025 C3031 0.950 . S
H3026 C3032 0.949 . S
C3027 H3022 0.950 . S
C3027 C3029 1.327 . S
C3027 C3033 1.429 . S
C3028 C3020 1.574 . S
C3028 H3023 0.949 . S
C3028 C3034 1.368 . S
C3029 C3013 1.349 . S
C3029 H3021 0.950 . S
C3029 C3027 1.327 . S
C3030 C3018 1.349 . S
C3030 H3024 0.950 . S
C3030 C3031 1.327 . S
C3031 H3025 0.950 . S
C3031 C3030 1.327 . S
C3031 C3035 1.429 . S
C3032 C3015 1.574 . S
C3032 H3026 0.949 . S
C3032 C3036 1.368 . S
C3033 C3014 1.429 . S
C3033 C3027 1.429 . S
C3033 C3034 1.523 . S
C3034 C3015 1.368 . S
C3034 C3028 1.368 . S
C3034 C3033 1.523 . S
C3035 C3019 1.429 . S
C3035 C3031 1.429 . S
C3035 C3036 1.523 . S
C3036 C3020 1.368 . S
C3036 C3032 1.368 . S
C3036 C3035 1.523 . S
H3037 C3012 0.950 . S
H3038 C3014 0.950 . S
H3039 C3015 0.949 . S
H3040 C3017 0.950 . S
H3041 C3019 0.950 . S
C3042 C3043 1.349 . S
C3042 C3044 1.327 . S
C3042 H3067 0.950 . S
C3043 C3042 1.349 . S
C3043 C3059 1.349 . S
C3044 C3042 1.327 . S
C3044 C3063 1.429 . S
C3044 H3068 0.950 . S
C3045 C3062 1.574 . S
C3045 C3064 1.368 . S
C3045 H3069 0.949 . S
H3046 C3050 0.949 . S
C3047 C3048 1.349 . S
C3047 C3049 1.327 . S
C3047 H3070 0.950 . S
C3048 C3047 1.349 . S
C3048 C3060 1.349 . S
C3049 C3047 1.327 . S
C3049 C3065 1.429 . S
C3049 H3071 0.950 . S
C3050 H3046 0.949 . S
C3050 C3058 1.574 . S
C3050 C3066 1.368 . S
H3051 C3059 0.950 . S
H3052 C3057 0.950 . S
H3053 C3058 0.949 . S
H3054 C3060 0.950 . S
H3055 C3061 0.950 . S
H3056 C3062 0.949 . S
C3057 H3052 0.950 . S
C3057 C3059 1.327 . S
C3057 C3063 1.429 . S
C3058 C3050 1.574 . S
C3058 H3053 0.949 . S
C3058 C3064 1.368 . S
C3059 C3043 1.349 . S
C3059 H3051 0.950 . S
C3059 C3057 1.327 . S
C3060 C3048 1.349 . S
C3060 H3054 0.950 . S
C3060 C3061 1.327 . S
C3061 H3055 0.950 . S
C3061 C3060 1.327 . S
C3061 C3065 1.429 . S
C3062 C3045 1.574 . S
C3062 H3056 0.949 . S
C3062 C3066 1.368 . S
C3063 C3044 1.429 . S
C3063 C3057 1.429 . S
C3063 C3064 1.523 . S
C3064 C3045 1.368 . S
C3064 C3058 1.368 . S
C3064 C3063 1.523 . S
C3065 C3049 1.429 . S
C3065 C3061 1.429 . S
C3065 C3066 1.523 . S
C3066 C3050 1.368 . S
C3066 C3062 1.368 . S
C3066 C3065 1.523 . S
H3067 C3042 0.950 . S
H3068 C3044 0.950 . S
H3069 C3045 0.949 . S
H3070 C3047 0.950 . S
H3071 C3049 0.950 . S
C3072 C3073 1.349 . S
C3072 C3074 1.327 . S
C3072 H3097 0.950 . S
C3073 C3072 1.349 . S
C3073 C3089 1.349 . S
C3074 C3072 1.327 . S
C3074 C3093 1.429 . S
C3074 H3098 0.950 . S
C3075 C3092 1.574 . S
C3075 C3094 1.368 . S
C3075 H3099 0.949 . S
H3076 C3080 0.949 . S
C3077 C3078 1.349 . S
C3077 C3079 1.327 . S
C3077 H3100 0.950 . S
C3078 C3077 1.349 . S
C3078 C3090 1.349 . S
C3079 C3077 1.327 . S
C3079 C3095 1.429 . S
C3079 H3101 0.950 . S
C3080 H3076 0.949 . S
C3080 C3088 1.574 . S
C3080 C3096 1.368 . S
H3081 C3089 0.950 . S
H3082 C3087 0.950 . S
H3083 C3088 0.949 . S
H3084 C3090 0.950 . S
H3085 C3091 0.950 . S
H3086 C3092 0.949 . S
C3087 H3082 0.950 . S
C3087 C3089 1.327 . S
C3087 C3093 1.429 . S
C3088 C3080 1.574 . S
C3088 H3083 0.949 . S
C3088 C3094 1.368 . S
C3089 C3073 1.349 . S
C3089 H3081 0.950 . S
C3089 C3087 1.327 . S
C3090 C3078 1.349 . S
C3090 H3084 0.950 . S
C3090 C3091 1.327 . S
C3091 H3085 0.950 . S
C3091 C3090 1.327 . S
C3091 C3095 1.429 . S
C3092 C3075 1.574 . S
C3092 H3086 0.949 . S
C3092 C3096 1.368 . S
C3093 C3074 1.429 . S
C3093 C3087 1.429 . S
C3093 C3094 1.523 . S
C3094 C3075 1.368 . S
C3094 C3088 1.368 . S
C3094 C3093 1.523 . S
C3095 C3079 1.429 . S
C3095 C3091 1.429 . S
C3095 C3096 1.523 . S
C3096 C3080 1.368 . S
C3096 C3092 1.368 . S
C3096 C3095 1.523 . S
H3097 C3072 0.950 . S
H3098 C3074 0.950 . S
H3099 C3075 0.949 . S
H3100 C3077 0.950 . S
H3101 C3079 0.950 . S
C3102 C3103 1.349 . S
C3102 C3104 1.327 . S
C3102 H3127 0.950 . S
C3103 C3102 1.349 . S
C3103 C3119 1.349 . S
C3104 C3102 1.327 . S
C3104 C3123 1.429 . S
C3104 H3128 0.950 . S
C3105 C3122 1.574 . S
C3105 C3124 1.368 . S
C3105 H3129 0.949 . S
H3106 C3110 0.949 . S
C3107 C3108 1.349 . S
C3107 C3109 1.327 . S
C3107 H3130 0.950 . S
C3108 C3107 1.349 . S
C3108 C3120 1.349 . S
C3109 C3107 1.327 . S
C3109 C3125 1.429 . S
C3109 H3131 0.950 . S
C3110 H3106 0.949 . S
C3110 C3118 1.574 . S
C3110 C3126 1.368 . S
H3111 C3119 0.950 . S
H3112 C3117 0.950 . S
H3113 C3118 0.949 . S
H3114 C3120 0.950 . S
H3115 C3121 0.950 . S
H3116 C3122 0.949 . S
C3117 H3112 0.950 . S
C3117 C3119 1.327 . S
C3117 C3123 1.429 . S
C3118 C3110 1.574 . S
C3118 H3113 0.949 . S
C3118 C3124 1.368 . S
C3119 C3103 1.349 . S
C3119 H3111 0.950 . S
C3119 C3117 1.327 . S
C3120 C3108 1.349 . S
C3120 H3114 0.950 . S
C3120 C3121 1.327 . S
C3121 H3115 0.950 . S
C3121 C3120 1.327 . S
C3121 C3125 1.429 . S
C3122 C3105 1.574 . S
C3122 H3116 0.949 . S
C3122 C3126 1.368 . S
C3123 C3104 1.429 . S
C3123 C3117 1.429 . S
C3123 C3124 1.523 . S
C3124 C3105 1.368 . S
C3124 C3118 1.368 . S
C3124 C3123 1.523 . S
C3125 C3109 1.429 . S
C3125 C3121 1.429 . S
C3125 C3126 1.523 . S
C3126 C3110 1.368 . S
C3126 C3122 1.368 . S
C3126 C3125 1.523 . S
H3127 C3102 0.950 . S
H3128 C3104 0.950 . S
H3129 C3105 0.949 . S
H3130 C3107 0.950 . S
H3131 C3109 0.950 . S
C3132 C3133 1.349 . S
C3132 C3134 1.327 . S
C3132 H3157 0.950 . S
C3133 C3132 1.349 . S
C3133 C3149 1.349 . S
C3134 C3132 1.327 . S
C3134 C3153 1.429 . S
C3134 H3158 0.950 . S
C3135 C3152 1.574 . S
C3135 C3154 1.368 . S
C3135 H3159 0.949 . S
H3136 C3140 0.949 . S
C3137 C3138 1.349 . S
C3137 C3139 1.327 . S
C3137 H3160 0.950 . S
C3138 C3137 1.349 . S
C3138 C3150 1.349 . S
C3139 C3137 1.327 . S
C3139 C3155 1.429 . S
C3139 H3161 0.950 . S
C3140 H3136 0.949 . S
C3140 C3148 1.574 . S
C3140 C3156 1.368 . S
H3141 C3149 0.950 . S
H3142 C3147 0.950 . S
H3143 C3148 0.949 . S
H3144 C3150 0.950 . S
H3145 C3151 0.950 . S
H3146 C3152 0.949 . S
C3147 H3142 0.950 . S
C3147 C3149 1.327 . S
C3147 C3153 1.429 . S
C3148 C3140 1.574 . S
C3148 H3143 0.949 . S
C3148 C3154 1.368 . S
C3149 C3133 1.349 . S
C3149 H3141 0.950 . S
C3149 C3147 1.327 . S
C3150 C3138 1.349 . S
C3150 H3144 0.950 . S
C3150 C3151 1.327 . S
C3151 H3145 0.950 . S
C3151 C3150 1.327 . S
C3151 C3155 1.429 . S
C3152 C3135 1.574 . S
C3152 H3146 0.949 . S
C3152 C3156 1.368 . S
C3153 C3134 1.429 . S
C3153 C3147 1.429 . S
C3153 C3154 1.523 . S
C3154 C3135 1.368 . S
C3154 C3148 1.368 . S
C3154 C3153 1.523 . S
C3155 C3139 1.429 . S
C3155 C3151 1.429 . S
C3155 C3156 1.523 . S
C3156 C3140 1.368 . S
C3156 C3152 1.368 . S
C3156 C3155 1.523 . S
H3157 C3132 0.950 . S
H3158 C3134 0.950 . S
H3159 C3135 0.949 . S
H3160 C3137 0.950 . S
H3161 C3139 0.950 . S
C3162 C3163 1.349 . S
C3162 C3164 1.327 . S
C3162 H3187 0.950 . S
C3163 C3162 1.349 . S
C3163 C3179 1.349 . S
C3164 C3162 1.327 . S
C3164 C3183 1.429 . S
C3164 H3188 0.950 . S
C3165 C3182 1.574 . S
C3165 C3184 1.368 . S
C3165 H3189 0.949 . S
H3166 C3170 0.949 . S
C3167 C3168 1.349 . S
C3167 C3169 1.327 . S
C3167 H3190 0.950 . S
C3168 C3167 1.349 . S
C3168 C3180 1.349 . S
C3169 C3167 1.327 . S
C3169 C3185 1.429 . S
C3169 H3191 0.950 . S
C3170 H3166 0.949 . S
C3170 C3178 1.574 . S
C3170 C3186 1.368 . S
H3171 C3179 0.950 . S
H3172 C3177 0.950 . S
H3173 C3178 0.949 . S
H3174 C3180 0.950 . S
H3175 C3181 0.950 . S
H3176 C3182 0.949 . S
C3177 H3172 0.950 . S
C3177 C3179 1.327 . S
C3177 C3183 1.429 . S
C3178 C3170 1.574 . S
C3178 H3173 0.949 . S
C3178 C3184 1.368 . S
C3179 C3163 1.349 . S
C3179 H3171 0.950 . S
C3179 C3177 1.327 . S
C3180 C3168 1.349 . S
C3180 H3174 0.950 . S
C3180 C3181 1.327 . S
C3181 H3175 0.950 . S
C3181 C3180 1.327 . S
C3181 C3185 1.429 . S
C3182 C3165 1.574 . S
C3182 H3176 0.949 . S
C3182 C3186 1.368 . S
C3183 C3164 1.429 . S
C3183 C3177 1.429 . S
C3183 C3184 1.523 . S
C3184 C3165 1.368 . S
C3184 C3178 1.368 . S
C3184 C3183 1.523 . S
C3185 C3169 1.429 . S
C3185 C3181 1.429 . S
C3185 C3186 1.523 . S
C3186 C3170 1.368 . S
C3186 C3182 1.368 . S
C3186 C3185 1.523 . S
H3187 C3162 0.950 . S
H3188 C3164 0.950 . S
H3189 C3165 0.949 . S
H3190 C3167 0.950 . S
H3191 C3169 0.950 . S
C3192 C3193 1.349 . S
C3192 C3194 1.327 . S
C3192 H3217 0.950 . S
C3193 C3192 1.349 . S
C3193 C3209 1.349 . S
C3194 C3192 1.327 . S
C3194 C3213 1.429 . S
C3194 H3218 0.950 . S
C3195 C3212 1.574 . S
C3195 C3214 1.368 . S
C3195 H3219 0.949 . S
H3196 C3200 0.949 . S
C3197 C3198 1.349 . S
C3197 C3199 1.327 . S
C3197 H3220 0.950 . S
C3198 C3197 1.349 . S
C3198 C3210 1.349 . S
C3199 C3197 1.327 . S
C3199 C3215 1.429 . S
C3199 H3221 0.950 . S
C3200 H3196 0.949 . S
C3200 C3208 1.574 . S
C3200 C3216 1.368 . S
H3201 C3209 0.950 . S
H3202 C3207 0.950 . S
H3203 C3208 0.949 . S
H3204 C3210 0.950 . S
H3205 C3211 0.950 . S
H3206 C3212 0.949 . S
C3207 H3202 0.950 . S
C3207 C3209 1.327 . S
C3207 C3213 1.429 . S
C3208 C3200 1.574 . S
C3208 H3203 0.949 . S
C3208 C3214 1.368 . S
C3209 C3193 1.349 . S
C3209 H3201 0.950 . S
C3209 C3207 1.327 . S
C3210 C3198 1.349 . S
C3210 H3204 0.950 . S
C3210 C3211 1.327 . S
C3211 H3205 0.950 . S
C3211 C3210 1.327 . S
C3211 C3215 1.429 . S
C3212 C3195 1.574 . S
C3212 H3206 0.949 . S
C3212 C3216 1.368 . S
C3213 C3194 1.429 . S
C3213 C3207 1.429 . S
C3213 C3214 1.523 . S
C3214 C3195 1.368 . S
C3214 C3208 1.368 . S
C3214 C3213 1.523 . S
C3215 C3199 1.429 . S
C3215 C3211 1.429 . S
C3215 C3216 1.523 . S
C3216 C3200 1.368 . S
C3216 C3212 1.368 . S
C3216 C3215 1.523 . S
H3217 C3192 0.950 . S
H3218 C3194 0.950 . S
H3219 C3195 0.949 . S
H3220 C3197 0.950 . S
H3221 C3199 0.950 . S
C3222 C3223 1.349 . S
C3222 C3224 1.327 . S
C3222 H3247 0.950 . S
C3223 C3222 1.349 . S
C3223 C3239 1.349 . S
C3224 C3222 1.327 . S
C3224 C3243 1.429 . S
C3224 H3248 0.950 . S
C3225 C3242 1.574 . S
C3225 C3244 1.368 . S
C3225 H3249 0.949 . S
H3226 C3230 0.949 . S
C3227 C3228 1.349 . S
C3227 C3229 1.327 . S
C3227 H3250 0.950 . S
C3228 C3227 1.349 . S
C3228 C3240 1.349 . S
C3229 C3227 1.327 . S
C3229 C3245 1.429 . S
C3229 H3251 0.950 . S
C3230 H3226 0.949 . S
C3230 C3238 1.574 . S
C3230 C3246 1.368 . S
H3231 C3239 0.950 . S
H3232 C3237 0.950 . S
H3233 C3238 0.949 . S
H3234 C3240 0.950 . S
H3235 C3241 0.950 . S
H3236 C3242 0.949 . S
C3237 H3232 0.950 . S
C3237 C3239 1.327 . S
C3237 C3243 1.429 . S
C3238 C3230 1.574 . S
C3238 H3233 0.949 . S
C3238 C3244 1.368 . S
C3239 C3223 1.349 . S
C3239 H3231 0.950 . S
C3239 C3237 1.327 . S
C3240 C3228 1.349 . S
C3240 H3234 0.950 . S
C3240 C3241 1.327 . S
C3241 H3235 0.950 . S
C3241 C3240 1.327 . S
C3241 C3245 1.429 . S
C3242 C3225 1.574 . S
C3242 H3236 0.949 . S
C3242 C3246 1.368 . S
C3243 C3224 1.429 . S
C3243 C3237 1.429 . S
C3243 C3244 1.523 . S
C3244 C3225 1.368 . S
C3244 C3238 1.368 . S
C3244 C3243 1.523 . S
C3245 C3229 1.429 . S
C3245 C3241 1.429 . S
C3245 C3246 1.523 . S
C3246 C3230 1.368 . S
C3246 C3242 1.368 . S
C3246 C3245 1.523 . S
H3247 C3222 0.950 . S
H3248 C3224 0.950 . S
H3249 C3225 0.949 . S
H3250 C3227 0.950 . S
H3251 C3229 0.950 . S
C3252 C3253 1.349 . S
C3252 C3254 1.327 . S
C3252 H3277 0.950 . S
C3253 C3252 1.349 . S
C3253 C3269 1.349 . S
C3254 C3252 1.327 . S
C3254 C3273 1.429 . S
C3254 H3278 0.950 . S
C3255 C3272 1.574 . S
C3255 C3274 1.368 . S
C3255 H3279 0.949 . S
H3256 C3260 0.949 . S
C3257 C3258 1.349 . S
C3257 C3259 1.327 . S
C3257 H3280 0.950 . S
C3258 C3257 1.349 . S
C3258 C3270 1.349 . S
C3259 C3257 1.327 . S
C3259 C3275 1.429 . S
C3259 H3281 0.950 . S
C3260 H3256 0.949 . S
C3260 C3268 1.574 . S
C3260 C3276 1.368 . S
H3261 C3269 0.950 . S
H3262 C3267 0.950 . S
H3263 C3268 0.949 . S
H3264 C3270 0.950 . S
H3265 C3271 0.950 . S
H3266 C3272 0.949 . S
C3267 H3262 0.950 . S
C3267 C3269 1.327 . S
C3267 C3273 1.429 . S
C3268 C3260 1.574 . S
C3268 H3263 0.949 . S
C3268 C3274 1.368 . S
C3269 C3253 1.349 . S
C3269 H3261 0.950 . S
C3269 C3267 1.327 . S
C3270 C3258 1.349 . S
C3270 H3264 0.950 . S
C3270 C3271 1.327 . S
C3271 H3265 0.950 . S
C3271 C3270 1.327 . S
C3271 C3275 1.429 . S
C3272 C3255 1.574 . S
C3272 H3266 0.949 . S
C3272 C3276 1.368 . S
C3273 C3254 1.429 . S
C3273 C3267 1.429 . S
C3273 C3274 1.523 . S
C3274 C3255 1.368 . S
C3274 C3268 1.368 . S
C3274 C3273 1.523 . S
C3275 C3259 1.429 . S
C3275 C3271 1.429 . S
C3275 C3276 1.523 . S
C3276 C3260 1.368 . S
C3276 C3272 1.368 . S
C3276 C3275 1.523 . S
H3277 C3252 0.950 . S
H3278 C3254 0.950 . S
H3279 C3255 0.949 . S
H3280 C3257 0.950 . S
H3281 C3259 0.950 . S
C3282 C3283 1.349 . S
C3282 C3284 1.327 . S
C3282 H3307 0.950 . S
C3283 C3282 1.349 . S
C3283 C3299 1.349 . S
C3284 C3282 1.327 . S
C3284 C3303 1.429 . S
C3284 H3308 0.950 . S
C3285 C3302 1.574 . S
C3285 C3304 1.368 . S
C3285 H3309 0.949 . S
H3286 C3290 0.949 . S
C3287 C3288 1.349 . S
C3287 C3289 1.327 . S
C3287 H3310 0.950 . S
C3288 C3287 1.349 . S
C3288 C3300 1.349 . S
C3289 C3287 1.327 . S
C3289 C3305 1.429 . S
C3289 H3311 0.950 . S
C3290 H3286 0.949 . S
C3290 C3298 1.574 . S
C3290 C3306 1.368 . S
H3291 C3299 0.950 . S
H3292 C3297 0.950 . S
H3293 C3298 0.949 . S
H3294 C3300 0.950 . S
H3295 C3301 0.950 . S
H3296 C3302 0.949 . S
C3297 H3292 0.950 . S
C3297 C3299 1.327 . S
C3297 C3303 1.429 . S
C3298 C3290 1.574 . S
C3298 H3293 0.949 . S
C3298 C3304 1.368 . S
C3299 C3283 1.349 . S
C3299 H3291 0.950 . S
C3299 C3297 1.327 . S
C3300 C3288 1.349 . S
C3300 H3294 0.950 . S
C3300 C3301 1.327 . S
C3301 H3295 0.950 . S
C3301 C3300 1.327 . S
C3301 C3305 1.429 . S
C3302 C3285 1.574 . S
C3302 H3296 0.949 . S
C3302 C3306 1.368 . S
C3303 C3284 1.429 . S
C3303 C3297 1.429 . S
C3303 C3304 1.523 . S
C3304 C3285 1.368 . S
C3304 C3298 1.368 . S
C3304 C3303 1.523 . S
C3305 C3289 1.429 . S
C3305 C3301 1.429 . S
C3305 C3306 1.523 . S
C3306 C3290 1.368 . S
C3306 C3302 1.368 . S
C3306 C3305 1.523 . S
H3307 C3282 0.950 . S
H3308 C3284 0.950 . S
H3309 C3285 0.949 . S
H3310 C3287 0.950 . S
H3311 C3289 0.950 . S
C3312 C3313 1.349 . S
C3312 C3314 1.327 . S
C3312 H3337 0.950 . S
C3313 C3312 1.349 . S
C3313 C3329 1.349 . S
C3314 C3312 1.327 . S
C3314 C3333 1.429 . S
C3314 H3338 0.950 . S
C3315 C3332 1.574 . S
C3315 C3334 1.368 . S
C3315 H3339 0.949 . S
H3316 C3320 0.949 . S
C3317 C3318 1.349 . S
C3317 C3319 1.327 . S
C3317 H3340 0.950 . S
C3318 C3317 1.349 . S
C3318 C3330 1.349 . S
C3319 C3317 1.327 . S
C3319 C3335 1.429 . S
C3319 H3341 0.950 . S
C3320 H3316 0.949 . S
C3320 C3328 1.574 . S
C3320 C3336 1.368 . S
H3321 C3329 0.950 . S
H3322 C3327 0.950 . S
H3323 C3328 0.949 . S
H3324 C3330 0.950 . S
H3325 C3331 0.950 . S
H3326 C3332 0.949 . S
C3327 H3322 0.950 . S
C3327 C3329 1.327 . S
C3327 C3333 1.429 . S
C3328 C3320 1.574 . S
C3328 H3323 0.949 . S
C3328 C3334 1.368 . S
C3329 C3313 1.349 . S
C3329 H3321 0.950 . S
C3329 C3327 1.327 . S
C3330 C3318 1.349 . S
C3330 H3324 0.950 . S
C3330 C3331 1.327 . S
C3331 H3325 0.950 . S
C3331 C3330 1.327 . S
C3331 C3335 1.429 . S
C3332 C3315 1.574 . S
C3332 H3326 0.949 . S
C3332 C3336 1.368 . S
C3333 C3314 1.429 . S
C3333 C3327 1.429 . S
C3333 C3334 1.523 . S
C3334 C3315 1.368 . S
C3334 C3328 1.368 . S
C3334 C3333 1.523 . S
C3335 C3319 1.429 . S
C3335 C3331 1.429 . S
C3335 C3336 1.523 . S
C3336 C3320 1.368 . S
C3336 C3332 1.368 . S
C3336 C3335 1.523 . S
H3337 C3312 0.950 . S
H3338 C3314 0.950 . S
H3339 C3315 0.949 . S
H3340 C3317 0.950 . S
H3341 C3319 0.950 . S
C3342 C3343 1.349 . S
C3342 C3344 1.327 . S
C3342 H3367 0.950 . S
C3343 C3342 1.349 . S
C3343 C3359 1.349 . S
C3344 C3342 1.327 . S
C3344 C3363 1.429 . S
C3344 H3368 0.950 . S
C3345 C3362 1.574 . S
C3345 C3364 1.368 . S
C3345 H3369 0.949 . S
H3346 C3350 0.949 . S
C3347 C3348 1.349 . S
C3347 C3349 1.327 . S
C3347 H3370 0.950 . S
C3348 C3347 1.349 . S
C3348 C3360 1.349 . S
C3349 C3347 1.327 . S
C3349 C3365 1.429 . S
C3349 H3371 0.950 . S
C3350 H3346 0.949 . S
C3350 C3358 1.574 . S
C3350 C3366 1.368 . S
H3351 C3359 0.950 . S
H3352 C3357 0.950 . S
H3353 C3358 0.949 . S
H3354 C3360 0.950 . S
H3355 C3361 0.950 . S
H3356 C3362 0.949 . S
C3357 H3352 0.950 . S
C3357 C3359 1.327 . S
C3357 C3363 1.429 . S
C3358 C3350 1.574 . S
C3358 H3353 0.949 . S
C3358 C3364 1.368 . S
C3359 C3343 1.349 . S
C3359 H3351 0.950 . S
C3359 C3357 1.327 . S
C3360 C3348 1.349 . S
C3360 H3354 0.950 . S
C3360 C3361 1.327 . S
C3361 H3355 0.950 . S
C3361 C3360 1.327 . S
C3361 C3365 1.429 . S
C3362 C3345 1.574 . S
C3362 H3356 0.949 . S
C3362 C3366 1.368 . S
C3363 C3344 1.429 . S
C3363 C3357 1.429 . S
C3363 C3364 1.523 . S
C3364 C3345 1.368 . S
C3364 C3358 1.368 . S
C3364 C3363 1.523 . S
C3365 C3349 1.429 . S
C3365 C3361 1.429 . S
C3365 C3366 1.523 . S
C3366 C3350 1.368 . S
C3366 C3362 1.368 . S
C3366 C3365 1.523 . S
H3367 C3342 0.950 . S
H3368 C3344 0.950 . S
H3369 C3345 0.949 . S
H3370 C3347 0.950 . S
H3371 C3349 0.950 . S
C3372 C3373 1.349 . S
C3372 C3374 1.327 . S
C3372 H3397 0.950 . S
C3373 C3372 1.349 . S
C3373 C3389 1.349 . S
C3374 C3372 1.327 . S
C3374 C3393 1.429 . S
C3374 H3398 0.950 . S
C3375 C3392 1.574 . S
C3375 C3394 1.368 . S
C3375 H3399 0.949 . S
H3376 C3380 0.949 . S
C3377 C3378 1.349 . S
C3377 C3379 1.327 . S
C3377 H3400 0.950 . S
C3378 C3377 1.349 . S
C3378 C3390 1.349 . S
C3379 C3377 1.327 . S
C3379 C3395 1.429 . S
C3379 H3401 0.950 . S
C3380 H3376 0.949 . S
C3380 C3388 1.574 . S
C3380 C3396 1.368 . S
H3381 C3389 0.950 . S
H3382 C3387 0.950 . S
H3383 C3388 0.949 . S
H3384 C3390 0.950 . S
H3385 C3391 0.950 . S
H3386 C3392 0.949 . S
C3387 H3382 0.950 . S
C3387 C3389 1.327 . S
C3387 C3393 1.429 . S
C3388 C3380 1.574 . S
C3388 H3383 0.949 . S
C3388 C3394 1.368 . S
C3389 C3373 1.349 . S
C3389 H3381 0.950 . S
C3389 C3387 1.327 . S
C3390 C3378 1.349 . S
C3390 H3384 0.950 . S
C3390 C3391 1.327 . S
C3391 H3385 0.950 . S
C3391 C3390 1.327 . S
C3391 C3395 1.429 . S
C3392 C3375 1.574 . S
C3392 H3386 0.949 . S
C3392 C3396 1.368 . S
C3393 C3374 1.429 . S
C3393 C3387 1.429 . S
C3393 C3394 1.523 . S
C3394 C3375 1.368 . S
C3394 C3388 1.368 . S
C3394 C3393 1.523 . S
C3395 C3379 1.429 . S
C3395 C3391 1.429 . S
C3395 C3396 1.523 . S
C3396 C3380 1.368 . S
C3396 C3392 1.368 . S
C3396 C3395 1.523 . S
H3397 C3372 0.950 . S
H3398 C3374 0.950 . S
H3399 C3375 0.949 . S
H3400 C3377 0.950 . S
H3401 C3379 0.950 . S
C3402 C3403 1.349 . S
C3402 C3404 1.327 . S
C3402 H3427 0.950 . S
C3403 C3402 1.349 . S
C3403 C3419 1.349 . S
C3404 C3402 1.327 . S
C3404 C3423 1.429 . S
C3404 H3428 0.950 . S
C3405 C3422 1.574 . S
C3405 C3424 1.368 . S
C3405 H3429 0.949 . S
H3406 C3410 0.949 . S
C3407 C3408 1.349 . S
C3407 C3409 1.327 . S
C3407 H3430 0.950 . S
C3408 C3407 1.349 . S
C3408 C3420 1.349 . S
C3409 C3407 1.327 . S
C3409 C3425 1.429 . S
C3409 H3431 0.950 . S
C3410 H3406 0.949 . S
C3410 C3418 1.574 . S
C3410 C3426 1.368 . S
H3411 C3419 0.950 . S
H3412 C3417 0.950 . S
H3413 C3418 0.949 . S
H3414 C3420 0.950 . S
H3415 C3421 0.950 . S
H3416 C3422 0.949 . S
C3417 H3412 0.950 . S
C3417 C3419 1.327 . S
C3417 C3423 1.429 . S
C3418 C3410 1.574 . S
C3418 H3413 0.949 . S
C3418 C3424 1.368 . S
C3419 C3403 1.349 . S
C3419 H3411 0.950 . S
C3419 C3417 1.327 . S
C3420 C3408 1.349 . S
C3420 H3414 0.950 . S
C3420 C3421 1.327 . S
C3421 H3415 0.950 . S
C3421 C3420 1.327 . S
C3421 C3425 1.429 . S
C3422 C3405 1.574 . S
C3422 H3416 0.949 . S
C3422 C3426 1.368 . S
C3423 C3404 1.429 . S
C3423 C3417 1.429 . S
C3423 C3424 1.523 . S
C3424 C3405 1.368 . S
C3424 C3418 1.368 . S
C3424 C3423 1.523 . S
C3425 C3409 1.429 . S
C3425 C3421 1.429 . S
C3425 C3426 1.523 . S
C3426 C3410 1.368 . S
C3426 C3422 1.368 . S
C3426 C3425 1.523 . S
H3427 C3402 0.950 . S
H3428 C3404 0.950 . S
H3429 C3405 0.949 . S
H3430 C3407 0.950 . S
H3431 C3409 0.950 . S
C3432 C3433 1.349 . S
C3432 C3434 1.327 . S
C3432 H3457 0.950 . S
C3433 C3432 1.349 . S
C3433 C3449 1.349 . S
C3434 C3432 1.327 . S
C3434 C3453 1.429 . S
C3434 H3458 0.950 . S
C3435 C3452 1.574 . S
C3435 C3454 1.368 . S
C3435 H3459 0.949 . S
H3436 C3440 0.949 . S
C3437 C3438 1.349 . S
C3437 C3439 1.327 . S
C3437 H3460 0.950 . S
C3438 C3437 1.349 . S
C3438 C3450 1.349 . S
C3439 C3437 1.327 . S
C3439 C3455 1.429 . S
C3439 H3461 0.950 . S
C3440 H3436 0.949 . S
C3440 C3448 1.574 . S
C3440 C3456 1.368 . S
H3441 C3449 0.950 . S
H3442 C3447 0.950 . S
H3443 C3448 0.949 . S
H3444 C3450 0.950 . S
H3445 C3451 0.950 . S
H3446 C3452 0.949 . S
C3447 H3442 0.950 . S
C3447 C3449 1.327 . S
C3447 C3453 1.429 . S
C3448 C3440 1.574 . S
C3448 H3443 0.949 . S
C3448 C3454 1.368 . S
C3449 C3433 1.349 . S
C3449 H3441 0.950 . S
C3449 C3447 1.327 . S
C3450 C3438 1.349 . S
C3450 H3444 0.950 . S
C3450 C3451 1.327 . S
C3451 H3445 0.950 . S
C3451 C3450 1.327 . S
C3451 C3455 1.429 . S
C3452 C3435 1.574 . S
C3452 H3446 0.949 . S
C3452 C3456 1.368 . S
C3453 C3434 1.429 . S
C3453 C3447 1.429 . S
C3453 C3454 1.523 . S
C3454 C3435 1.368 . S
C3454 C3448 1.368 . S
C3454 C3453 1.523 . S
C3455 C3439 1.429 . S
C3455 C3451 1.429 . S
C3455 C3456 1.523 . S
C3456 C3440 1.368 . S
C3456 C3452 1.368 . S
C3456 C3455 1.523 . S
H3457 C3432 0.950 . S
H3458 C3434 0.950 . S
H3459 C3435 0.949 . S
H3460 C3437 0.950 . S
H3461 C3439 0.950 . S
C3462 C3463 1.349 . S
C3462 C3464 1.327 . S
C3462 H3487 0.950 . S
C3463 C3462 1.349 . S
C3463 C3479 1.349 . S
C3464 C3462 1.327 . S
C3464 C3483 1.429 . S
C3464 H3488 0.950 . S
C3465 C3482 1.574 . S
C3465 C3484 1.368 . S
C3465 H3489 0.949 . S
H3466 C3470 0.949 . S
C3467 C3468 1.349 . S
C3467 C3469 1.327 . S
C3467 H3490 0.950 . S
C3468 C3467 1.349 . S
C3468 C3480 1.349 . S
C3469 C3467 1.327 . S
C3469 C3485 1.429 . S
C3469 H3491 0.950 . S
C3470 H3466 0.949 . S
C3470 C3478 1.574 . S
C3470 C3486 1.368 . S
H3471 C3479 0.950 . S
H3472 C3477 0.950 . S
H3473 C3478 0.949 . S
H3474 C3480 0.950 . S
H3475 C3481 0.950 . S
H3476 C3482 0.949 . S
C3477 H3472 0.950 . S
C3477 C3479 1.327 . S
C3477 C3483 1.429 . S
C3478 C3470 1.574 . S
C3478 H3473 0.949 . S
C3478 C3484 1.368 . S
C3479 C3463 1.349 . S
C3479 H3471 0.950 . S
C3479 C3477 1.327 . S
C3480 C3468 1.349 . S
C3480 H3474 0.950 . S
C3480 C3481 1.327 . S
C3481 H3475 0.950 . S
C3481 C3480 1.327 . S
C3481 C3485 1.429 . S
C3482 C3465 1.574 . S
C3482 H3476 0.949 . S
C3482 C3486 1.368 . S
C3483 C3464 1.429 . S
C3483 C3477 1.429 . S
C3483 C3484 1.523 . S
C3484 C3465 1.368 . S
C3484 C3478 1.368 . S
C3484 C3483 1.523 . S
C3485 C3469 1.429 . S
C3485 C3481 1.429 . S
C3485 C3486 1.523 . S
C3486 C3470 1.368 . S
C3486 C3482 1.368 . S
C3486 C3485 1.523 . S
H3487 C3462 0.950 . S
H3488 C3464 0.950 . S
H3489 C3465 0.949 . S
H3490 C3467 0.950 . S
H3491 C3469 0.950 . S
C3492 C3493 1.349 . S
C3492 C3494 1.327 . S
C3492 H3517 0.950 . S
C3493 C3492 1.349 . S
C3493 C3509 1.349 . S
C3494 C3492 1.327 . S
C3494 C3513 1.429 . S
C3494 H3518 0.950 . S
C3495 C3512 1.574 . S
C3495 C3514 1.368 . S
C3495 H3519 0.949 . S
H3496 C3500 0.949 . S
C3497 C3498 1.349 . S
C3497 C3499 1.327 . S
C3497 H3520 0.950 . S
C3498 C3497 1.349 . S
C3498 C3510 1.349 . S
C3499 C3497 1.327 . S
C3499 C3515 1.429 . S
C3499 H3521 0.950 . S
C3500 H3496 0.949 . S
C3500 C3508 1.574 . S
C3500 C3516 1.368 . S
H3501 C3509 0.950 . S
H3502 C3507 0.950 . S
H3503 C3508 0.949 . S
H3504 C3510 0.950 . S
H3505 C3511 0.950 . S
H3506 C3512 0.949 . S
C3507 H3502 0.950 . S
C3507 C3509 1.327 . S
C3507 C3513 1.429 . S
C3508 C3500 1.574 . S
C3508 H3503 0.949 . S
C3508 C3514 1.368 . S
C3509 C3493 1.349 . S
C3509 H3501 0.950 . S
C3509 C3507 1.327 . S
C3510 C3498 1.349 . S
C3510 H3504 0.950 . S
C3510 C3511 1.327 . S
C3511 H3505 0.950 . S
C3511 C3510 1.327 . S
C3511 C3515 1.429 . S
C3512 C3495 1.574 . S
C3512 H3506 0.949 . S
C3512 C3516 1.368 . S
C3513 C3494 1.429 . S
C3513 C3507 1.429 . S
C3513 C3514 1.523 . S
C3514 C3495 1.368 . S
C3514 C3508 1.368 . S
C3514 C3513 1.523 . S
C3515 C3499 1.429 . S
C3515 C3511 1.429 . S
C3515 C3516 1.523 . S
C3516 C3500 1.368 . S
C3516 C3512 1.368 . S
C3516 C3515 1.523 . S
H3517 C3492 0.950 . S
H3518 C3494 0.950 . S
H3519 C3495 0.949 . S
H3520 C3497 0.950 . S
H3521 C3499 0.950 . S
C3522 C3523 1.349 . S
C3522 C3524 1.327 . S
C3522 H3547 0.950 . S
C3523 C3522 1.349 . S
C3523 C3539 1.349 . S
C3524 C3522 1.327 . S
C3524 C3543 1.429 . S
C3524 H3548 0.950 . S
C3525 C3542 1.574 . S
C3525 C3544 1.368 . S
C3525 H3549 0.949 . S
H3526 C3530 0.949 . S
C3527 C3528 1.349 . S
C3527 C3529 1.327 . S
C3527 H3550 0.950 . S
C3528 C3527 1.349 . S
C3528 C3540 1.349 . S
C3529 C3527 1.327 . S
C3529 C3545 1.429 . S
C3529 H3551 0.950 . S
C3530 H3526 0.949 . S
C3530 C3538 1.574 . S
C3530 C3546 1.368 . S
H3531 C3539 0.950 . S
H3532 C3537 0.950 . S
H3533 C3538 0.949 . S
H3534 C3540 0.950 . S
H3535 C3541 0.950 . S
H3536 C3542 0.949 . S
C3537 H3532 0.950 . S
C3537 C3539 1.327 . S
C3537 C3543 1.429 . S
C3538 C3530 1.574 . S
C3538 H3533 0.949 . S
C3538 C3544 1.368 . S
C3539 C3523 1.349 . S
C3539 H3531 0.950 . S
C3539 C3537 1.327 . S
C3540 C3528 1.349 . S
C3540 H3534 0.950 . S
C3540 C3541 1.327 . S
C3541 H3535 0.950 . S
C3541 C3540 1.327 . S
C3541 C3545 1.429 . S
C3542 C3525 1.574 . S
C3542 H3536 0.949 . S
C3542 C3546 1.368 . S
C3543 C3524 1.429 . S
C3543 C3537 1.429 . S
C3543 C3544 1.523 . S
C3544 C3525 1.368 . S
C3544 C3538 1.368 . S
C3544 C3543 1.523 . S
C3545 C3529 1.429 . S
C3545 C3541 1.429 . S
C3545 C3546 1.523 . S
C3546 C3530 1.368 . S
C3546 C3542 1.368 . S
C3546 C3545 1.523 . S
H3547 C3522 0.950 . S
H3548 C3524 0.950 . S
H3549 C3525 0.949 . S
H3550 C3527 0.950 . S
H3551 C3529 0.950 . S
C673 C398 0.962 . S
C678 C6 0.962 . S
C703 C20 0.962 . S
C708 C412 0.962 . S
C733 C426 0.962 . S
C738 C34 0.962 . S
C763 C48 0.962 . S
C768 C440 0.962 . S
C793 C342 0.962 . S
C798 C62 0.962 . S
C823 C76 0.962 . S
C828 C356 0.962 . S
C853 C370 0.962 . S
C858 C90 0.962 . S
C883 C104 0.962 . S
C888 C384 0.962 . S
C913 C538 0.962 . S
C918 C118 0.962 . S
C943 C552 0.962 . S
C948 C132 0.962 . S
C973 C510 0.962 . S
C978 C146 0.962 . S
C1003 C160 0.962 . S
C1008 C524 0.962 . S
C1033 C482 0.962 . S
C1038 C174 0.962 . S
C1063 C496 0.962 . S
C1068 C188 0.962 . S
C1093 C202 0.962 . S
C1098 C454 0.962 . S
C1123 C468 0.962 . S
C1128 C216 0.962 . S
C1153 C230 0.962 . S
C1158 C636 0.962 . S
C1183 C608 0.962 . S
C1188 C244 0.962 . S
C1213 C622 0.962 . S
C1218 C258 0.962 . S
C1243 C580 0.962 . S
C1248 C272 0.962 . S
C1273 C594 0.962 . S
C1278 C286 0.962 . S
C1303 C300 0.962 . S
C1308 C566 0.962 . S
C1333 C314 0.962 . S
C1338 C664 0.962 . S
C1363 C650 0.962 . S
C1368 C328 0.962 . S
C1393 C105 1.511 . S
C1398 C7 1.511 . S
C1423 C63 1.511 . S
C1428 C21 1.511 . S
C1453 C77 1.511 . S
C1458 C35 1.511 . S
C1483 C91 1.511 . S
C1488 C49 1.511 . S
C1513 C287 1.511 . S
C1518 C119 1.511 . S
C1543 C245 1.511 . S
C1548 C133 1.511 . S
C1573 C259 1.511 . S
C1578 C147 1.511 . S
C1603 C273 1.511 . S
C1608 C161 1.511 . S
C1633 C329 1.511 . S
C1638 C175 1.511 . S
C1663 C301 1.511 . S
C1668 C189 1.511 . S
C1693 C203 1.511 . S
C1698 C315 1.511 . S
C1723 C231 1.511 . S
C1728 C217 1.511 . S
C1753 C441 1.511 . S
C1758 C343 1.511 . S
C1783 C399 1.511 . S
C1788 C357 1.511 . S
C1813 C371 1.511 . S
C1818 C413 1.511 . S
C1843 C385 1.511 . S
C1848 C427 1.511 . S
C1873 C455 1.511 . S
C1878 C623 1.511 . S
C1903 C469 1.511 . S
C1908 C581 1.511 . S
C1933 C595 1.511 . S
C1938 C483 1.511 . S
C1963 C609 1.511 . S
C1968 C497 1.511 . S
C1993 C665 1.511 . S
C1998 C511 1.511 . S
C2023 C637 1.511 . S
C2028 C525 1.511 . S
C2053 C651 1.511 . S
C2058 C539 1.511 . S
C2083 C553 1.511 . S
C2088 C567 1.511 . S
C2113 C8 1.118 . S
C2118 C121 1.086 . S
C2143 C135 1.086 . S
C2148 C22 1.118 . S
C2173 C149 1.086 . S
C2178 C36 1.118 . S
C2203 C163 1.086 . S
C2208 C50 1.118 . S
C2233 C64 1.118 . S
C2238 C177 1.086 . S
C2263 C191 1.086 . S
C2268 C78 1.118 . S
C2293 C92 1.118 . S
C2298 C205 1.086 . S
C2323 C219 1.086 . S
C2328 C106 1.118 . S
C2353 C233 1.086 . S
C2358 C120 1.118 . S
C2383 C331 1.086 . S
C2388 C134 1.118 . S
C2413 C148 1.118 . S
C2418 C303 1.086 . S
C2443 C162 1.118 . S
C2448 C317 1.086 . S
C2473 C176 1.118 . S
C2478 C247 1.086 . S
C2503 C190 1.118 . S
C2508 C261 1.086 . S
C2533 C204 1.118 . S
C2538 C275 1.086 . S
C2563 C218 1.118 . S
C2568 C289 1.086 . S
C2593 C232 1.118 . S
C2598 C9 1.086 . S
C2623 C246 1.118 . S
C2628 C65 1.086 . S
C2653 C260 1.118 . S
C2658 C79 1.086 . S
C2683 C274 1.118 . S
C2688 C93 1.086 . S
C2713 C288 1.118 . S
C2718 C107 1.086 . S
C2743 C302 1.118 . S
C2748 C37 1.086 . S
C2773 C51 1.086 . S
C2778 C316 1.118 . S
C2803 C23 1.086 . S
C2808 C330 1.118 . S
C2833 C457 1.086 . S
C2838 C344 1.118 . S
C2863 C471 1.086 . S
C2868 C358 1.118 . S
C2893 C485 1.086 . S
C2898 C372 1.118 . S
C2923 C499 1.086 . S
C2928 C386 1.118 . S
C2953 C513 1.086 . S
C2958 C400 1.118 . S
C2983 C414 1.118 . S
C2988 C527 1.086 . S
C3013 C541 1.086 . S
C3018 C428 1.118 . S
C3043 C442 1.118 . S
C3048 C555 1.086 . S
C3073 C569 1.086 . S
C3078 C456 1.118 . S
C3103 C470 1.118 . S
C3108 C667 1.086 . S
C3133 C484 1.118 . S
C3138 C639 1.086 . S
C3163 C653 1.086 . S
C3168 C498 1.118 . S
C3193 C583 1.086 . S
C3198 C512 1.118 . S
C3223 C526 1.118 . S
C3228 C597 1.086 . S
C3253 C540 1.118 . S
C3258 C611 1.086 . S
C3283 C625 1.086 . S
C3288 C554 1.118 . S
C3313 C345 1.086 . S
C3318 C568 1.118 . S
C3343 C401 1.086 . S
C3348 C582 1.118 . S
C3373 C415 1.086 . S
C3378 C596 1.118 . S
C3403 C610 1.118 . S
C3408 C429 1.086 . S
C3433 C443 1.086 . S
C3438 C624 1.118 . S
C3463 C373 1.086 . S
C3468 C638 1.118 . S
C3493 C652 1.118 . S
C3498 C387 1.086 . S
C3523 C359 1.086 . S
C3528 C666 1.118 . S
