# Generated by pormake.
# Topology zfl, (5)-cn, num edge types: 1
# Building blocks:
#     Node 0, Type 0, BuildingBlock: BEQFEK_clean_sbu_0, # of connection points: 5
#     Node 1, Type 0, BuildingBlock: BEQFEK_clean_sbu_0, # of connection points: 5
#     Node 2, Type 0, BuildingBlock: BEQFEK_clean_sbu_0, # of connection points: 5
#     Node 3, Type 0, BuildingBlock: BEQFEK_clean_sbu_0, # of connection points: 5
#     Node 4, Type 0, BuildingBlock: BEQFEK_clean_sbu_0, # of connection points: 5
#     Node 5, Type 0, BuildingBlock: BEQFEK_clean_sbu_0, # of connection points: 5
#     Node 6, Type 0, BuildingBlock: BEQFEK_clean_sbu_0, # of connection points: 5
#     Node 7, Type 0, BuildingBlock: BEQFEK_clean_sbu_0, # of connection points: 5
#     Node 8, Type 0, BuildingBlock: BEQFEK_clean_sbu_0, # of connection points: 5
#     Node 9, Type 0, BuildingBlock: BEQFEK_clean_sbu_0, # of connection points: 5
#     Node 10, Type 0, BuildingBlock: BEQFEK_clean_sbu_0, # of connection points: 5
#     Node 11, Type 0, BuildingBlock: BEQFEK_clean_sbu_0, # of connection points: 5
#     Node 12, Type 0, BuildingBlock: BEQFEK_clean_sbu_0, # of connection points: 5
#     Node 13, Type 0, BuildingBlock: BEQFEK_clean_sbu_0, # of connection points: 5
#     Node 14, Type 0, BuildingBlock: BEQFEK_clean_sbu_0, # of connection points: 5
#     Node 15, Type 0, BuildingBlock: BEQFEK_clean_sbu_0, # of connection points: 5
#     Edge 16, Type (0, 0), BuildingBlock: TEMPAE_clean_linker_10, # of connection points: 2
#     Edge 17, Type (0, 0), BuildingBlock: TEMPAE_clean_linker_10, # of connection points: 2
#     Edge 18, Type (0, 0), BuildingBlock: TEMPAE_clean_linker_10, # of connection points: 2
#     Edge 19, Type (0, 0), BuildingBlock: TEMPAE_clean_linker_10, # of connection points: 2
#     Edge 20, Type (0, 0), BuildingBlock: TEMPAE_clean_linker_10, # of connection points: 2
#     Edge 21, Type (0, 0), BuildingBlock: TEMPAE_clean_linker_10, # of connection points: 2
#     Edge 22, Type (0, 0), BuildingBlock: TEMPAE_clean_linker_10, # of connection points: 2
#     Edge 23, Type (0, 0), BuildingBlock: TEMPAE_clean_linker_10, # of connection points: 2
#     Edge 24, Type (0, 0), BuildingBlock: TEMPAE_clean_linker_10, # of connection points: 2
#     Edge 25, Type (0, 0), BuildingBlock: TEMPAE_clean_linker_10, # of connection points: 2
#     Edge 26, Type (0, 0), BuildingBlock: TEMPAE_clean_linker_10, # of connection points: 2
#     Edge 27, Type (0, 0), BuildingBlock: TEMPAE_clean_linker_10, # of connection points: 2
#     Edge 28, Type (0, 0), BuildingBlock: TEMPAE_clean_linker_10, # of connection points: 2
#     Edge 29, Type (0, 0), BuildingBlock: TEMPAE_clean_linker_10, # of connection points: 2
#     Edge 30, Type (0, 0), BuildingBlock: TEMPAE_clean_linker_10, # of connection points: 2
#     Edge 31, Type (0, 0), BuildingBlock: TEMPAE_clean_linker_10, # of connection points: 2
#     Edge 32, Type (0, 0), BuildingBlock: TEMPAE_clean_linker_10, # of connection points: 2
#     Edge 33, Type (0, 0), BuildingBlock: TEMPAE_clean_linker_10, # of connection points: 2
#     Edge 34, Type (0, 0), BuildingBlock: TEMPAE_clean_linker_10, # of connection points: 2
#     Edge 35, Type (0, 0), BuildingBlock: TEMPAE_clean_linker_10, # of connection points: 2
#     Edge 36, Type (0, 0), BuildingBlock: TEMPAE_clean_linker_10, # of connection points: 2
#     Edge 37, Type (0, 0), BuildingBlock: TEMPAE_clean_linker_10, # of connection points: 2
#     Edge 38, Type (0, 0), BuildingBlock: TEMPAE_clean_linker_10, # of connection points: 2
#     Edge 39, Type (0, 0), BuildingBlock: TEMPAE_clean_linker_10, # of connection points: 2
#     Edge 40, Type (0, 0), BuildingBlock: TEMPAE_clean_linker_10, # of connection points: 2
#     Edge 41, Type (0, 0), BuildingBlock: TEMPAE_clean_linker_10, # of connection points: 2
#     Edge 42, Type (0, 0), BuildingBlock: TEMPAE_clean_linker_10, # of connection points: 2
#     Edge 43, Type (0, 0), BuildingBlock: TEMPAE_clean_linker_10, # of connection points: 2
#     Edge 44, Type (0, 0), BuildingBlock: TEMPAE_clean_linker_10, # of connection points: 2
#     Edge 45, Type (0, 0), BuildingBlock: TEMPAE_clean_linker_10, # of connection points: 2
#     Edge 46, Type (0, 0), BuildingBlock: TEMPAE_clean_linker_10, # of connection points: 2
#     Edge 47, Type (0, 0), BuildingBlock: TEMPAE_clean_linker_10, # of connection points: 2
#     Edge 48, Type (0, 0), BuildingBlock: TEMPAE_clean_linker_10, # of connection points: 2
#     Edge 49, Type (0, 0), BuildingBlock: TEMPAE_clean_linker_10, # of connection points: 2
#     Edge 50, Type (0, 0), BuildingBlock: TEMPAE_clean_linker_10, # of connection points: 2
#     Edge 51, Type (0, 0), BuildingBlock: TEMPAE_clean_linker_10, # of connection points: 2
#     Edge 52, Type (0, 0), BuildingBlock: TEMPAE_clean_linker_10, # of connection points: 2
#     Edge 53, Type (0, 0), BuildingBlock: TEMPAE_clean_linker_10, # of connection points: 2
#     Edge 54, Type (0, 0), BuildingBlock: TEMPAE_clean_linker_10, # of connection points: 2
#     Edge 55, Type (0, 0), BuildingBlock: TEMPAE_clean_linker_10, # of connection points: 2
# Relax obj value: 0.191
# Max RMSD: 0.233
# Mean RMSD: 0.219
data_MOF--net-zfl--node1-BEQFEK_clean_sbu_0--edge1-TEMPAE_clean_linker_10
_symmetry_space_group_name_H-M    P1
_symmetry_Int_Tables_number       1
_symmetry_cell_setting            triclinic
loop_
_symmetry_equiv_pos_as_xyz
'x, y, z'
_cell_length_a     27.63725
_cell_length_b     27.657714
_cell_length_c     76.68393
_cell_angle_alpha  89.991754
_cell_angle_beta   90.042948
_cell_angle_gamma 90.006614
loop_
_atom_site_label
_atom_site_type_symbol
_atom_site_fract_x
_atom_site_fract_y
_atom_site_fract_z
_atom_type_partial_charge
Co0 Co 0.58265 0.02877 0.16269 0.0
Co1 Co 0.60275 0.0312 0.12204 0.0
C2 C 0.51007 0.06846 0.13779 0.0
O3 O 0.52208 0.05677 0.15326 0.0
O4 O 0.53804 0.06017 0.12497 0.0
C5 C 0.53164 0.0085 0.19457 0.0
O6 O 0.49378 0.00955 0.18421 0.0
C7 C 0.58076 0.01017 0.08533 0.0
C8 C 0.64686 0.0355 0.07199 0.0
C9 C 0.60113 0.01674 0.06896 0.0
N10 N 0.61303 0.02435 0.09746 0.0
N11 N 0.65262 0.03903 0.08939 0.0
C12 C 0.52977 0.99584 0.08937 0.0
H13 H 0.50511 0.02588 0.08574 0.0
H14 H 0.52561 0.98776 0.10346 0.0
H15 H 0.51912 0.96363 0.08169 0.0
C16 C 0.6038 0.92501 0.15668 0.0
N17 N 0.60034 0.9709 0.15093 0.0
N18 N 0.60827 0.97162 0.134 0.0
C19 C 0.61687 0.92617 0.1285 0.0
C20 C 0.61457 0.89523 0.14269 0.0
C21 C 0.59208 0.90936 0.17487 0.0
H22 H 0.61392 0.93067 0.18427 0.0
H23 H 0.5533 0.91659 0.17752 0.0
H24 H 0.5994 0.87028 0.17685 0.0
O25 O 0.63289 0.07967 0.1598 0.0
O26 O 0.64986 0.07871 0.13139 0.0
H27 H 0.65023 0.93675 0.10358 0.0
H28 H 0.63741 0.87421 0.1088 0.0
C29 C 0.62401 0.91194 0.10986 0.0
H30 H 0.58902 0.91476 0.10286 0.0
H31 H 0.68296 0.05304 0.09573 0.0
O32 O 0.57346 0.01587 0.18815 0.0
C33 C 0.65639 0.0956 0.14669 0.0
Co34 Co 0.45893 0.56939 0.66476 0.0
Co35 Co 0.45919 0.58234 0.62349 0.0
C36 C 0.41915 0.49359 0.64128 0.0
O37 O 0.43058 0.50804 0.65648 0.0
O38 O 0.42813 0.51908 0.62787 0.0
C39 C 0.46254 0.52555 0.69895 0.0
O40 O 0.44598 0.48772 0.6905 0.0
C41 C 0.48287 0.55401 0.58712 0.0
C42 C 0.46479 0.62073 0.57274 0.0
C43 C 0.48066 0.57358 0.57034 0.0
N44 N 0.4689 0.58806 0.59868 0.0
N45 N 0.45847 0.62789 0.58995 0.0
C46 C 0.49565 0.50321 0.5921 0.0
H47 H 0.53533 0.49819 0.59103 0.0
H48 H 0.47755 0.47712 0.58324 0.0
H49 H 0.4857 0.49539 0.60574 0.0
C50 C 0.56315 0.58778 0.65914 0.0
N51 N 0.51763 0.58364 0.65305 0.0
N52 N 0.51797 0.58938 0.636 0.0
C53 C 0.56374 0.59792 0.63079 0.0
C54 C 0.59375 0.59746 0.64527 0.0
C55 C 0.57739 0.57914 0.67771 0.0
H56 H 0.5659 0.54228 0.68165 0.0
H57 H 0.61702 0.58298 0.67961 0.0
H58 H 0.55828 0.60537 0.68621 0.0
O59 O 0.40919 0.61982 0.66007 0.0
O60 O 0.41168 0.63182 0.63131 0.0
H61 H 0.61708 0.61647 0.61128 0.0
H62 H 0.5761 0.5683 0.6055 0.0
C63 C 0.57911 0.60365 0.61221 0.0
H64 H 0.55494 0.62974 0.60553 0.0
H65 H 0.44602 0.65971 0.59572 0.0
O66 O 0.47039 0.56456 0.69058 0.0
C67 C 0.39413 0.64116 0.64634 0.0
Co68 Co 0.92312 0.47038 0.16199 0.0
Co69 Co 0.90734 0.46425 0.12098 0.0
C70 C 0.99743 0.42707 0.13872 0.0
O71 O 0.98394 0.44046 0.15384 0.0
O72 O 0.9712 0.43454 0.12535 0.0
C73 C 0.93535 0.45645 0.19925 0.0
O74 O 0.93002 0.4104 0.19548 0.0
C75 C 0.93087 0.48365 0.08381 0.0
C76 C 0.86278 0.46253 0.07082 0.0
C77 C 0.90906 0.47957 0.06747 0.0
N78 N 0.89879 0.46987 0.09611 0.0
N79 N 0.85816 0.45747 0.0882 0.0
C80 C 0.98212 0.49777 0.08764 0.0
H81 H 0.98579 0.53759 0.08672 0.0
H82 H 0.00701 0.48107 0.07801 0.0
H83 H 0.99281 0.48712 0.10097 0.0
C84 C 0.90119 0.57289 0.15455 0.0
N85 N 0.90703 0.52686 0.14923 0.0
N86 N 0.9007 0.52473 0.13222 0.0
C87 C 0.89057 0.56941 0.12625 0.0
C88 C 0.89027 0.60124 0.14019 0.0
C89 C 0.90961 0.58981 0.17284 0.0
H90 H 0.94715 0.58073 0.1768 0.0
H91 H 0.90391 0.62936 0.17415 0.0
H92 H 0.88458 0.57051 0.18175 0.0
O93 O 0.87226 0.42011 0.15923 0.0
O94 O 0.85898 0.41799 0.13052 0.0
H95 H 0.86821 0.6192 0.10604 0.0
H96 H 0.91741 0.57932 0.10041 0.0
C97 C 0.88258 0.58193 0.10749 0.0
H98 H 0.85679 0.55597 0.10157 0.0
H99 H 0.82742 0.44489 0.09466 0.0
O100 O 0.93258 0.48747 0.18705 0.0
C101 C 0.85029 0.40295 0.14595 0.0
Co102 Co 0.02205 0.91298 0.6607 0.0
Co103 Co 0.02221 0.89193 0.61992 0.0
C104 C 0.06159 0.9845 0.63593 0.0
O105 O 0.04933 0.97391 0.65146 0.0
O106 O 0.05329 0.9556 0.62337 0.0
C107 C 0.00124 0.96153 0.69311 0.0
O108 O 0.99735 -0.00067 0.68283 0.0
C109 C -0.00178 0.91599 0.58316 0.0
C110 C 0.01808 0.84841 0.56965 0.0
C111 C 0.00106 0.89488 0.56665 0.0
N112 N 0.01285 0.88342 0.59517 0.0
N113 N 0.02436 0.84305 0.58696 0.0
C114 C 0.98444 0.96701 0.58742 0.0
H115 H 0.99474 0.97659 0.6009 0.0
H116 H 0.94463 0.97103 0.58642 0.0
H117 H 0.00161 0.99244 0.57809 0.0
C118 C 0.91755 0.89308 0.65524 0.0
N119 N 0.96327 0.8961 0.64927 0.0
N120 N 0.96338 0.88645 0.63245 0.0
C121 C 0.91787 0.87618 0.62732 0.0
C122 C 0.88735 0.88013 0.64158 0.0
C123 C 0.90259 0.90472 0.67351 0.0
H124 H 0.92514 0.88386 0.68281 0.0
H125 H 0.9086 0.94377 0.67599 0.0
H126 H 0.86388 0.89605 0.67577 0.0
O127 O 0.07279 0.86268 0.65689 0.0
O128 O 0.06957 0.84374 0.62863 0.0
H129 H 0.92836 0.84017 0.60288 0.0
H130 H 0.86572 0.8527 0.608 0.0
C131 C 0.90326 0.8667 0.60884 0.0
H132 H 0.90549 0.90085 0.60133 0.0
H133 H 0.03754 0.81212 0.59315 0.0
O134 O 0.0115 0.92065 0.68643 0.0
C135 C 0.08768 0.83825 0.64382 0.0
Co136 Co 0.56911 0.46026 0.85996 0.0
Co137 Co 0.58904 0.45896 0.90064 0.0
C138 C 0.49558 0.42303 0.88472 0.0
O139 O 0.50765 0.43443 0.86924 0.0
O140 O 0.52374 0.43113 0.89752 0.0
C141 C 0.52067 0.48756 0.82846 0.0
O142 O 0.48555 0.49747 0.83943 0.0
C143 C 0.56361 0.48229 0.93667 0.0
C144 C 0.63055 0.46548 0.95116 0.0
C145 C 0.58321 0.48109 0.9534 0.0
N146 N 0.59754 0.4677 0.92525 0.0
N147 N 0.6375 0.45769 0.93399 0.0
C148 C 0.51453 0.4996 0.93127 0.0
H149 H 0.51529 0.51251 0.91756 0.0
H150 H 0.50196 0.52917 0.93993 0.0
H151 H 0.48851 0.46914 0.93208 0.0
C152 C 0.59566 0.56327 0.86531 0.0
N153 N 0.58878 0.51805 0.87134 0.0
N154 N 0.5973 0.51752 0.88824 0.0
C155 C 0.6101 0.56231 0.8934 0.0
C156 C 0.60968 0.59262 0.87903 0.0
C157 C 0.58642 0.57899 0.84694 0.0
H158 H 0.60427 0.55365 0.83778 0.0
H159 H 0.54692 0.57835 0.8444 0.0
H160 H 0.60015 0.61614 0.84459 0.0
O161 O 0.61776 0.40828 0.8635 0.0
O162 O 0.6352 0.40978 0.89191 0.0
H163 H 0.64516 0.55091 0.91796 0.0
H164 H 0.63449 0.61382 0.91274 0.0
C165 C 0.61944 0.57668 0.9119 0.0
H166 H 0.58504 0.57534 0.91931 0.0
H167 H 0.66938 0.44522 0.92826 0.0
O168 O 0.56044 0.47119 0.8344 0.0
C169 C 0.64098 0.39219 0.87667 0.0
Co170 Co 0.02055 0.57335 0.3581 0.0
Co171 Co 0.02325 0.57873 0.39947 0.0
C172 C 0.05908 0.49214 0.38058 0.0
O173 O 0.05066 0.5117 0.36583 0.0
O174 O 0.04781 0.51321 0.39476 0.0
C175 C 0.03486 0.5491 0.32183 0.0
O176 O 0.07863 0.53767 0.32711 0.0
C177 C 0.01169 0.55435 0.43686 0.0
C178 C 0.00694 0.62673 0.4489 0.0
C179 C 0.00553 0.5778 0.45276 0.0
N180 N 0.01571 0.58793 0.42422 0.0
N181 N 0.01315 0.6311 0.43155 0.0
C182 C 0.01835 0.50137 0.43375 0.0
H183 H 0.05437 0.49559 0.42778 0.0
H184 H 0.99053 0.48841 0.42441 0.0
H185 H 0.01683 0.4799 0.44593 0.0
C186 C 0.91734 0.59294 0.36501 0.0
N187 N 0.96318 0.58718 0.37057 0.0
N188 N 0.96405 0.58985 0.38771 0.0
C189 C 0.9187 0.59741 0.39355 0.0
C190 C 0.88777 0.60012 0.37935 0.0
C191 C 0.90178 0.58842 0.34639 0.0
H192 H 0.92309 0.61382 0.33825 0.0
H193 H 0.90934 0.55117 0.34175 0.0
H194 H 0.86265 0.59633 0.34479 0.0
O195 O 0.0696 0.62479 0.36197 0.0
O196 O 0.07419 0.62358 0.39103 0.0
H197 H 0.92024 0.62859 0.41901 0.0
H198 H 0.86462 0.59738 0.41404 0.0
C199 C 0.90449 0.59664 0.41238 0.0
H200 H 0.91923 0.56367 0.41867 0.0
H201 H 0.0153 0.66359 0.42468 0.0
O202 O 0.00498 0.56634 0.33279 0.0
C203 C 0.08871 0.63895 0.37624 0.0
Co204 Co 0.91062 0.02282 0.8561 0.0
Co205 Co 0.89674 0.02411 0.89732 0.0
C206 C 0.98543 0.06468 0.88012 0.0
O207 O 0.9707 0.05348 0.86491 0.0
O208 O 0.96058 0.05471 0.89363 0.0
C209 C 0.95917 0.00685 0.82329 0.0
O210 O -0.00195 0.01055 0.83307 0.0
C211 C 0.92046 0.01067 0.9346 0.0
C212 C 0.84805 0.00847 0.9467 0.0
C213 C 0.89701 0.00632 0.95054 0.0
N214 N 0.88695 0.01547 0.92195 0.0
N215 N 0.84373 0.01425 0.92932 0.0
C216 C 0.97366 0.00738 0.93126 0.0
H217 H 0.98051 0.99164 0.91819 0.0
H218 H 0.99172 0.98501 0.94137 0.0
H219 H 0.98936 0.04426 0.93166 0.0
C220 C 0.89267 0.91863 0.86232 0.0
N221 N 0.89646 0.96447 0.86809 0.0
N222 N 0.89165 0.96482 0.88518 0.0
C223 C 0.88516 0.91916 0.8908 0.0
C224 C 0.88517 0.88848 0.87651 0.0
C225 C 0.90093 0.90368 0.84381 0.0
H226 H 0.93878 0.91221 0.84012 0.0
H227 H 0.89439 0.86446 0.8419 0.0
H228 H 0.87659 0.92461 0.83513 0.0
O229 O 0.85878 0.07127 0.85984 0.0
O230 O 0.84754 0.07048 0.88862 0.0
H231 H 0.87695 0.86521 0.91111 0.0
H232 H 0.91464 0.91657 0.91657 0.0
C233 C 0.88153 0.90484 0.90957 0.0
H234 H 0.85008 0.9233 0.91556 0.0
H235 H 0.81124 0.01728 0.92246 0.0
O236 O 0.91773 0.01074 0.83042 0.0
C237 C 0.8374 0.08668 0.87348 0.0
Co238 Co 0.45563 0.90809 0.35556 0.0
Co239 Co 0.45329 0.91104 0.39693 0.0
C240 C 0.41482 0.99229 0.37648 0.0
O241 O 0.42291 0.96941 0.36236 0.0
O242 O 0.42776 0.97523 0.39116 0.0
C243 C 0.48178 0.95311 0.32369 0.0
O244 O 0.48666 0.99009 0.33431 0.0
C245 C 0.4631 0.93997 0.43405 0.0
C246 C 0.47232 0.86907 0.44689 0.0
C247 C 0.47088 0.91831 0.4502 0.0
N248 N 0.46104 0.9051 0.42179 0.0
N249 N 0.46615 0.86283 0.42961 0.0
C250 C 0.45352 0.99225 0.43035 0.0
H251 H 0.41862 0.99554 0.42332 0.0
H252 H 0.48242 0.00669 0.42176 0.0
H253 H 0.45104 0.01417 0.4424 0.0
C254 C 0.55917 0.88897 0.3629 0.0
N255 N 0.51348 0.89732 0.36822 0.0
N256 N 0.51276 0.89974 0.38537 0.0
C257 C 0.55818 0.89425 0.39144 0.0
C258 C 0.58884 0.88655 0.37743 0.0
C259 C 0.57468 0.88687 0.34424 0.0
H260 H 0.54884 0.86453 0.33665 0.0
H261 H 0.57453 0.92397 0.33874 0.0
H262 H 0.61167 0.87164 0.34297 0.0
O263 O 0.40857 0.85597 0.36046 0.0
O264 O 0.40308 0.86373 0.38934 0.0
H265 H 0.55837 0.86748 0.41753 0.0
H266 H 0.6123 0.90028 0.41181 0.0
C267 C 0.57242 0.899 0.41019 0.0
H268 H 0.55615 0.93223 0.41576 0.0
H269 H 0.46592 0.82968 0.42311 0.0
O270 O 0.46896 0.91246 0.32997 0.0
C271 C 0.38934 0.84466 0.37501 0.0
Co272 Co 0.42969 0.95686 0.9146 0.0
Co273 Co 0.40983 0.95868 0.87363 0.0
C274 C 0.502 0.91958 0.88848 0.0
O275 O 0.48798 0.92866 0.90392 0.0
O276 O 0.47565 0.93005 0.87538 0.0
C277 C 0.48764 0.96994 0.94514 0.0
O278 O 0.52237 0.96813 0.93348 0.0
C279 C 0.42471 0.9781 0.83596 0.0
C280 C 0.34955 0.98316 0.82635 0.0
C281 C 0.39733 0.98703 0.82105 0.0
N282 N 0.39441 0.97031 0.84944 0.0
N283 N 0.34956 0.97301 0.84353 0.0
C284 C 0.47847 0.97288 0.8373 0.0
H285 H 0.49293 0.00039 0.84646 0.0
H286 H 0.49678 0.97581 0.82451 0.0
H287 H 0.48684 0.93673 0.84268 0.0
C288 C 0.40866 0.0609 0.91009 0.0
N289 N 0.41265 0.01578 0.90366 0.0
N290 N 0.40486 0.01686 0.88671 0.0
C291 C 0.39564 0.06282 0.88189 0.0
C292 C 0.39719 0.092 0.89656 0.0
C293 C 0.41866 0.07431 0.92864 0.0
H294 H 0.39713 0.05084 0.93743 0.0
H295 H 0.45751 0.06802 0.93151 0.0
H296 H 0.40977 0.1128 0.93121 0.0
O297 O 0.37793 0.90775 0.91158 0.0
O298 O 0.36373 0.9097 0.88295 0.0
H299 H 0.35596 0.06284 0.85799 0.0
H300 H 0.38635 0.11917 0.86251 0.0
C301 C 0.3893 0.07923 0.86343 0.0
H302 H 0.42048 0.06686 0.85552 0.0
H303 H 0.31889 0.96845 0.85129 0.0
O304 O 0.44383 0.96667 0.94007 0.0
C305 C 0.35552 0.89244 0.8981 0.0
Co306 Co 0.52137 0.4064 0.41544 0.0
Co307 Co 0.51934 0.39994 0.37392 0.0
C308 C 0.55998 0.48568 0.392 0.0
O309 O 0.55168 0.4666 0.40679 0.0
O310 O 0.54749 0.46464 0.37794 0.0
C311 C 0.54313 0.43932 0.44958 0.0
O312 O 0.58287 0.45267 0.44153 0.0
C313 C 0.49675 0.42125 0.3365 0.0
C314 C 0.49971 0.34787 0.32523 0.0
C315 C 0.49037 0.39568 0.321 0.0
N316 N 0.50834 0.38973 0.34929 0.0
N317 N 0.51034 0.34603 0.34236 0.0
C318 C 0.49405 0.4749 0.33897 0.0
H319 H 0.45733 0.48481 0.34357 0.0
H320 H 0.50166 0.49427 0.3266 0.0
H321 H 0.52049 0.4869 0.34885 0.0
C322 C 0.41692 0.38951 0.41012 0.0
N323 N 0.46218 0.39431 0.40389 0.0
N324 N 0.46119 0.39085 0.38676 0.0
C325 C 0.4152 0.38309 0.38162 0.0
C326 C 0.38576 0.38173 0.39624 0.0
C327 C 0.40371 0.39448 0.42895 0.0
H328 H 0.42601 0.36925 0.43683 0.0
H329 H 0.41204 0.43178 0.43336 0.0
H330 H 0.36479 0.38675 0.43117 0.0
O331 O 0.56821 0.35328 0.41096 0.0
O332 O 0.56962 0.35334 0.38185 0.0
H333 H 0.41756 0.3511 0.35626 0.0
H334 H 0.35939 0.37642 0.36182 0.0
C335 C 0.39909 0.38137 0.36299 0.0
H336 H 0.40943 0.41551 0.35641 0.0
H337 H 0.5185 0.31476 0.34939 0.0
O338 O 0.51114 0.41606 0.44107 0.0
C339 C 0.58518 0.3379 0.39651 0.0
Co340 Co 0.07419 0.52712 0.91187 0.0
Co341 Co 0.10373 0.52243 0.87183 0.0
C342 C 0.00817 0.56325 0.88424 0.0
O343 O 0.01601 0.55294 0.90017 0.0
O344 O 0.03926 0.55355 0.87252 0.0
C345 C 0.02666 0.54465 0.94462 0.0
O346 O 0.00511 0.57872 0.93554 0.0
C347 C 0.08811 0.49764 0.83485 0.0
C348 C 0.16255 0.49597 0.82442 0.0
C349 C 0.11461 0.48861 0.81977 0.0
N350 N 0.11908 0.50881 0.84782 0.0
N351 N 0.16349 0.50805 0.84144 0.0
C352 C 0.03422 0.49942 0.83683 0.0
H353 H 0.02354 0.53654 0.84059 0.0
H354 H 0.02291 0.4747 0.84748 0.0
H355 H 0.0147 0.49048 0.82466 0.0
C356 C 0.09304 0.4223 0.90866 0.0
N357 N 0.09281 0.46724 0.90193 0.0
N358 N 0.10521 0.46507 0.88538 0.0
C359 C 0.11423 0.41865 0.88113 0.0
C360 C 0.10696 0.39003 0.89576 0.0
C361 C 0.07766 0.41042 0.92687 0.0
H362 H 0.03927 0.42107 0.92868 0.0
H363 H 0.08191 0.37133 0.92976 0.0
H364 H 0.09974 0.43164 0.93622 0.0
O365 O 0.12603 0.5767 0.90908 0.0
O366 O 0.15004 0.57045 0.8814 0.0
H367 H 0.15687 0.41996 0.85788 0.0
H368 H 0.1299 0.36187 0.86237 0.0
C369 C 0.1242 0.4015 0.86297 0.0
H370 H 0.09318 0.41098 0.85446 0.0
H371 H 0.19449 0.51538 0.84876 0.0
O372 O 0.0586 0.51862 0.93721 0.0
C373 C 0.1531 0.58989 0.89645 0.0
Co374 Co 0.95272 0.0621 0.41128 0.0
Co375 Co 0.95387 0.07849 0.37012 0.0
C376 C 0.91889 0.98635 0.38535 0.0
O377 O 0.92607 0.00203 0.40075 0.0
O378 O 0.93008 0.01165 0.37209 0.0
C379 C 0.9351 0.01978 0.44466 0.0
O380 O 0.89779 0.00201 0.43619 0.0
C381 C 0.97462 0.06503 0.33242 0.0
C382 C 0.97748 0.14052 0.32312 0.0
C383 C 0.98382 0.09312 0.31772 0.0
N384 N 0.96456 0.09459 0.34592 0.0
N385 N 0.96581 0.13963 0.34017 0.0
C386 C 0.97256 0.01106 0.33356 0.0
H387 H 0.0025 -0.00215 0.34195 0.0
H388 H 0.97437 0.99361 0.32058 0.0
H389 H 0.938 0.00032 0.33968 0.0
C390 C 0.05602 0.08663 0.40652 0.0
N391 N 0.01095 0.08078 0.40019 0.0
N392 N 0.01158 0.08741 0.38319 0.0
C393 C 0.0572 0.0975 0.37817 0.0
C394 C 0.0868 0.09777 0.3928 0.0
C395 C 0.06942 0.07974 0.42526 0.0
H396 H 0.04428 0.10071 0.43362 0.0
H397 H 0.06547 0.04098 0.42872 0.0
H398 H 0.10715 0.09148 0.42786 0.0
O399 O 0.90265 0.11303 0.40831 0.0
O400 O 0.90081 0.1199 0.3793 0.0
H401 H 0.05791 0.13386 0.35358 0.0
H402 H 0.11299 0.10137 0.3582 0.0
C403 C 0.07307 0.10062 0.35953 0.0
H404 H 0.05908 0.06896 0.35227 0.0
H405 H 0.95969 0.16988 0.348 0.0
O406 O 0.9637 0.04832 0.43668 0.0
C407 C 0.88463 0.13075 0.39438 0.0
Co408 Co 0.42072 0.52998 0.10856 0.0
Co409 Co 0.39181 0.52888 0.14854 0.0
C410 C 0.48651 0.56999 0.13572 0.0
O411 O 0.47793 0.55871 0.11992 0.0
O412 O 0.45631 0.56033 0.14776 0.0
C413 C 0.44074 0.55166 0.07231 0.0
O414 O 0.42948 0.59609 0.07681 0.0
C415 C 0.40652 0.50657 0.18563 0.0
C416 C 0.33216 0.50802 0.19611 0.0
C417 C 0.37996 0.50008 0.20083 0.0
N418 N 0.37591 0.51794 0.1726 0.0
N419 N 0.33153 0.51911 0.17899 0.0
C420 C 0.45955 0.49818 0.18309 0.0
H421 H 0.46679 0.48605 0.16955 0.0
H422 H 0.47332 0.47077 0.19243 0.0
H423 H 0.4792 0.53263 0.1853 0.0
C424 C 0.40278 0.42546 0.113 0.0
N425 N 0.40304 0.47092 0.11926 0.0
N426 N 0.39065 0.47012 0.13583 0.0
C427 C 0.38153 0.42404 0.14053 0.0
C428 C 0.38864 0.39435 0.12621 0.0
C429 C 0.41905 0.41184 0.09506 0.0
H430 H 0.45714 0.42345 0.09321 0.0
H431 H 0.41615 0.37229 0.09282 0.0
H432 H 0.39656 0.43116 0.0853 0.0
O433 O 0.36773 0.57857 0.11031 0.0
O434 O 0.3454 0.57566 0.13823 0.0
H435 H 0.36152 0.3689 0.15925 0.0
H436 H 0.40172 0.41534 0.16724 0.0
C437 C 0.37016 0.40807 0.15871 0.0
H438 H 0.33889 0.42892 0.16373 0.0
H439 H 0.30072 0.52666 0.17161 0.0
O440 O 0.43837 0.5183 0.0837 0.0
C441 C 0.34115 0.59303 0.12289 0.0
Co442 Co 0.9582 0.41467 0.60826 0.0
Co443 Co 0.96245 0.3955 0.64903 0.0
C444 C 0.92345 0.48765 0.63484 0.0
O445 O 0.93056 0.47354 0.61924 0.0
O446 O 0.93602 0.46164 0.64777 0.0
C447 C 0.93892 0.4569 0.57487 0.0
O448 O 0.90131 0.4744 0.58322 0.0
C449 C 0.98827 0.40998 0.68594 0.0
C450 C 0.98736 0.33536 0.69618 0.0
C451 C 0.99658 0.38286 0.70089 0.0
N452 N 0.97482 0.3799 0.67301 0.0
N453 N 0.97385 0.33539 0.67929 0.0
C454 C 0.99721 0.4629 0.68345 0.0
H455 H 0.00861 0.47028 0.66984 0.0
H456 H 0.02539 0.47616 0.6926 0.0
H457 H 0.96314 0.48292 0.68598 0.0
C458 C 0.06225 0.39265 0.61187 0.0
N459 N 0.01758 0.39693 0.61866 0.0
N460 N 0.0195 0.38819 0.63552 0.0
C461 C 0.06552 0.37753 0.63992 0.0
C462 C 0.09404 0.37977 0.62507 0.0
C463 C 0.07452 0.40319 0.59325 0.0
H464 H 0.06645 0.44169 0.59039 0.0
H465 H 0.11319 0.39571 0.59043 0.0
H466 H 0.05151 0.38069 0.5846 0.0
O467 O 0.90957 0.36239 0.61124 0.0
O468 O 0.91018 0.35298 0.64015 0.0
H469 H 0.06335 0.33935 0.66414 0.0
H470 H 0.12223 0.36333 0.65887 0.0
C471 C 0.08277 0.37035 0.65825 0.0
H472 H 0.07461 0.40313 0.66601 0.0
H473 H 0.96516 0.30489 0.67192 0.0
O474 O 0.96786 0.429 0.58296 0.0
C475 C 0.8931 0.343 0.62512 0.0
Co476 Co 0.06809 0.96368 0.10554 0.0
Co477 Co 0.09509 0.96672 0.14571 0.0
C478 C -0.00051 0.92857 0.13264 0.0
O479 O 0.00893 0.93852 0.11681 0.0
O480 O 0.02978 0.93769 0.1447 0.0
C481 C 0.01275 0.98871 0.07537 0.0
O482 O 0.98257 0.00431 0.08735 0.0
C483 C 0.07801 0.99062 0.18251 0.0
C484 C 0.15145 0.98815 0.19382 0.0
C485 C 0.10342 0.9969 0.19798 0.0
N486 N 0.10949 0.97861 0.16984 0.0
N487 N 0.15331 0.97686 0.17673 0.0
C488 C 0.02534 -0.00022 0.17939 0.0
H489 H 0.01942 0.01243 0.16582 0.0
H490 H 0.01111 0.0271 0.18866 0.0
H491 H 0.00506 0.96553 0.18124 0.0
C492 C 0.09224 0.06841 0.10916 0.0
N493 N 0.08834 0.02328 0.11567 0.0
N494 N 0.09936 0.02435 0.13239 0.0
C495 C 0.11072 0.07001 0.13697 0.0
C496 C 0.10665 0.09939 0.1224 0.0
C497 C 0.08084 0.08225 0.09076 0.0
H498 H 0.09533 0.05467 0.08167 0.0
H499 H 0.04103 0.08416 0.08911 0.0
H500 H 0.09647 0.11811 0.0875 0.0
O501 O 0.11852 0.91279 0.10849 0.0
O502 O 0.14039 0.91748 0.13643 0.0
H503 H 0.15183 0.06539 0.16053 0.0
H504 H 0.12875 0.12514 0.15609 0.0
C505 C 0.12065 0.08596 0.15528 0.0
H506 H 0.08863 0.07818 0.1635 0.0
H507 H 0.18457 0.96859 0.16971 0.0
O508 O 0.05293 0.97046 0.08013 0.0
C509 C 0.14419 0.89845 0.12134 0.0
Co510 Co 0.52258 0.07553 0.60595 0.0
Co511 Co 0.52291 0.08423 0.64716 0.0
C512 C 0.55986 0.9962 0.62995 0.0
O513 O 0.55175 0.01484 0.61503 0.0
O514 O 0.54815 0.01818 0.6439 0.0
C515 C 0.54126 0.04224 0.5715 0.0
O516 O 0.58155 0.02794 0.579 0.0
C517 C 0.50248 0.0652 0.68438 0.0
C518 C 0.50572 0.13877 0.69552 0.0
C519 C 0.49694 0.09091 0.69984 0.0
N520 N 0.51394 0.09649 0.67158 0.0
N521 N 0.51625 0.14033 0.67838 0.0
C522 C 0.49316 0.01253 0.68145 0.0
H523 H 0.48071 0.00621 0.66788 0.0
H524 H 0.46566 -0.00131 0.69073 0.0
H525 H 0.52733 0.99221 0.68346 0.0
C526 C 0.41897 0.09623 0.61165 0.0
N527 N 0.46443 0.09076 0.61765 0.0
N528 N 0.46427 0.09424 0.63477 0.0
C529 C 0.41852 0.10198 0.64015 0.0
C530 C 0.38845 0.1039 0.6257 0.0
C531 C 0.40456 0.08941 0.59301 0.0
H532 H 0.41267 0.05171 0.589 0.0
H533 H 0.36547 0.09682 0.59099 0.0
H534 H 0.42627 0.11391 0.58464 0.0
O535 O 0.57128 0.12722 0.60948 0.0
O536 O 0.57464 0.12803 0.63854 0.0
H537 H 0.36364 0.11058 0.66009 0.0
H538 H 0.41169 0.06856 0.66516 0.0
C539 C 0.40302 0.10354 0.65884 0.0
H540 H 0.42311 0.13249 0.66572 0.0
H541 H 0.524 0.17149 0.67124 0.0
O542 O 0.51038 0.06537 0.58054 0.0
C543 C 0.5898 0.14232 0.6237 0.0
C544 C 0.56576 0.99015 0.22421 0.0
C545 C 0.52547 -0.00179 0.21344 0.0
C546 C 0.56012 0.98073 0.24211 0.0
C547 C 0.51312 0.9797 0.24946 0.0
C548 C 0.47233 0.98744 0.23863 0.0
C549 C 0.47899 0.99641 0.22077 0.0
C550 C 0.60449 0.97233 0.2532 0.0
C551 C 0.42163 0.98703 0.24597 0.0
C552 C 0.49147 0.91936 0.29346 0.0
C553 C 0.49084 0.95928 0.30474 0.0
C554 C 0.49943 0.92532 0.27546 0.0
C555 C 0.50654 0.97233 0.26858 0.0
C556 C 0.5062 0.01269 0.27993 0.0
C557 C 0.49856 0.00566 0.29785 0.0
C558 C 0.49989 0.88137 0.26379 0.0
C559 C 0.51327 0.06345 0.27312 0.0
H560 H 0.60179 0.99116 0.21865 0.0
H561 H 0.44763 0.0026 0.21257 0.0
H562 H 0.60724 0.00093 0.2633 0.0
H563 H 0.6015 0.9372 0.26011 0.0
H564 H 0.63832 0.97236 0.24539 0.0
H565 H 0.39369 0.9926 0.23574 0.0
H566 H 0.41445 0.9521 0.25259 0.0
H567 H 0.41783 0.01595 0.2559 0.0
H568 H 0.48577 0.88338 0.29868 0.0
H569 H 0.49807 0.03677 0.30643 0.0
H570 H 0.53445 0.87967 0.25646 0.0
H571 H 0.4703 0.88402 0.25406 0.0
H572 H 0.4954 0.84719 0.27124 0.0
H573 H 0.54832 0.06617 0.26615 0.0
H574 H 0.51267 0.0909 0.28369 0.0
H575 H 0.48435 0.07229 0.2636 0.0
C576 C 0.47122 0.51718 0.80323 0.0
C577 C 0.51404 0.49608 0.80948 0.0
C578 C 0.46371 0.52442 0.7853 0.0
C579 C 0.49981 0.51008 0.77328 0.0
C580 C 0.54346 0.4895 0.7795 0.0
C581 C 0.5501 0.48283 0.79752 0.0
C582 C 0.41671 0.5466 0.77921 0.0
C583 C 0.58277 0.47362 0.7671 0.0
C584 C 0.45949 0.48013 0.72714 0.0
C585 C 0.47225 0.52216 0.71796 0.0
C586 C 0.46839 0.47579 0.74509 0.0
C587 C 0.49078 0.51434 0.75416 0.0
C588 C 0.50393 0.55686 0.745 0.0
C589 C 0.49444 0.5603 0.72701 0.0
C590 C 0.45365 0.4299 0.75436 0.0
C591 C 0.52794 0.5987 0.75422 0.0
H592 H 0.44323 0.5278 0.81235 0.0
H593 H 0.58335 0.46662 0.80222 0.0
H594 H 0.42406 0.57862 0.77091 0.0
H595 H 0.39651 0.52018 0.77112 0.0
H596 H 0.39329 0.55789 0.79025 0.0
H597 H 0.61545 0.4603 0.77404 0.0
H598 H 0.56899 0.44427 0.75857 0.0
H599 H 0.59341 0.50409 0.75851 0.0
H600 H 0.44227 0.45045 0.7203 0.0
H601 H 0.5046 0.59283 0.72003 0.0
H602 H 0.42741 0.43839 0.76486 0.0
H603 H 0.48568 0.41303 0.76062 0.0
H604 H 0.43691 0.40313 0.7454 0.0
H605 H 0.50405 0.61236 0.76474 0.0
H606 H 0.53637 0.62901 0.74521 0.0
H607 H 0.56203 0.58646 0.76046 0.0
C608 C 0.95947 0.52015 0.2209 0.0
C609 C 0.94706 0.47191 0.21733 0.0
C610 C 0.97292 0.53478 0.23778 0.0
C611 C 0.97366 0.50048 0.25149 0.0
C612 C 0.96024 0.45196 0.24805 0.0
C613 C 0.94729 0.43825 0.23102 0.0
C614 C 0.98721 0.58677 0.24087 0.0
C615 C 0.96013 0.41436 0.26233 0.0
C616 C 0.05321 0.52264 0.29125 0.0
C617 C 0.01954 0.53904 0.3036 0.0
C618 C 0.03888 0.51074 0.27419 0.0
C619 C 0.98959 0.51496 0.26935 0.0
C620 C 0.95551 0.53206 0.28168 0.0
C621 C 0.9709 0.54406 0.29861 0.0
C622 C 0.07645 0.49304 0.26141 0.0
C623 C 0.9026 0.53686 0.27707 0.0
H624 H 0.95947 0.54647 0.21043 0.0
H625 H 0.93761 0.40096 0.22843 0.0
H626 H 0.96445 0.60272 0.2513 0.0
H627 H 0.02531 0.5885 0.24539 0.0
H628 H 0.98355 0.60926 0.22893 0.0
H629 H 0.94711 0.37862 0.25767 0.0
H630 H 0.99724 0.40993 0.26762 0.0
H631 H 0.9367 0.42635 0.27325 0.0
H632 H 0.09088 0.51875 0.29494 0.0
H633 H 0.94455 0.55659 0.30805 0.0
H634 H 0.07616 0.51599 0.24954 0.0
H635 H 0.0677 0.45562 0.25726 0.0
H636 H 0.11352 0.49333 0.26702 0.0
H637 H 0.89823 0.56086 0.26558 0.0
H638 H 0.88086 0.55168 0.28801 0.0
H639 H 0.88774 0.50097 0.27344 0.0
C640 C 0.98304 0.01221 0.7194 0.0
C641 C 0.99312 0.96666 0.71219 0.0
C642 C 0.97602 0.01805 0.73743 0.0
C643 C 0.97902 0.97737 0.74859 0.0
C644 C 0.98856 0.93116 0.74139 0.0
C645 C 0.99554 0.92636 0.72329 0.0
C646 C 0.96602 0.06796 0.74456 0.0
C647 C 0.99193 0.88687 0.75283 0.0
C648 C 0.0096 0.00053 0.79626 0.0
C649 C 0.96394 -0.0016 0.80423 0.0
C650 C 0.01498 0.99341 0.77823 0.0
C651 C 0.97376 0.98357 0.76784 0.0
C652 C 0.9276 0.98079 0.77581 0.0
C653 C 0.92321 0.9884 0.79389 0.0
C654 C 0.06481 0.99699 0.77025 0.0
C655 C 0.8828 0.9701 0.76522 0.0
H656 H 0.98098 0.04359 0.71097 0.0
H657 H 0.00311 0.89099 0.71786 0.0
H658 H 0.93159 0.06796 0.75198 0.0
H659 H 0.99517 0.07857 0.75375 0.0
H660 H 0.96362 0.09569 0.73411 0.0
H661 H 0.99792 0.85331 0.74517 0.0
H662 H 0.02217 0.89108 0.76223 0.0
H663 H 0.95825 0.8827 0.76055 0.0
H664 H 0.04131 0.0083 0.80409 0.0
H665 H 0.88781 0.98643 0.79993 0.0
H666 H 0.06553 0.02647 0.76044 0.0
H667 H 0.07382 0.96291 0.76335 0.0
H668 H 0.09329 0.0042 0.78015 0.0
H669 H 0.8774 -0.00123 0.75529 0.0
H670 H 0.84978 0.96782 0.77343 0.0
H671 H 0.88726 0.93542 0.75813 0.0
C672 C 0.3882 0.98217 0.78865 0.0
C673 C 0.41361 -0.00029 0.80316 0.0
C674 C 0.40166 0.99517 0.7716 0.0
C675 C 0.44162 0.02642 0.769 0.0
C676 C 0.46741 0.04425 0.78362 0.0
C677 C 0.45256 0.03136 0.80051 0.0
C678 C 0.37266 0.97609 0.7564 0.0
C679 C 0.51028 0.07754 0.78143 0.0
C680 C 0.50136 0.03046 0.72423 0.0
C681 C 0.48209 0.0732 0.71728 0.0
C682 C 0.48848 0.01468 0.74104 0.0
C683 C 0.45523 0.0421 0.75104 0.0
C684 C 0.43543 0.08509 0.74398 0.0
C685 C 0.4495 0.10035 0.72727 0.0
C686 C 0.51108 0.96915 0.74822 0.0
C687 C 0.39938 0.11505 0.75408 0.0
H688 H 0.35762 0.95824 0.79063 0.0
H689 H 0.47088 0.04702 0.81165 0.0
H690 H 0.35669 0.00668 0.74901 0.0
H691 H 0.39661 0.95611 0.74731 0.0
H692 H 0.343 0.95162 0.76061 0.0
H693 H 0.52843 0.08558 0.79403 0.0
H694 H 0.53712 0.06111 0.77245 0.0
H695 H 0.49837 0.11213 0.77549 0.0
H696 H 0.52746 0.01 0.71672 0.0
H697 H 0.43455 0.13342 0.72192 0.0
H698 H 0.48247 0.94291 0.75187 0.0
H699 H 0.53173 0.97771 0.76025 0.0
H700 H 0.53586 0.95165 0.73873 0.0
H701 H 0.36783 0.09247 0.75779 0.0
H702 H 0.3862 0.14667 0.74651 0.0
H703 H 0.41613 0.12833 0.76632 0.0
C704 C 0.4429 0.45161 0.30144 0.0
C705 C 0.47577 0.41332 0.30342 0.0
C706 C 0.42832 0.46737 0.28481 0.0
C707 C 0.44584 0.44337 0.26977 0.0
C708 C 0.47844 0.40423 0.27169 0.0
C709 C 0.49305 0.38978 0.28846 0.0
C710 C 0.39361 0.50935 0.28336 0.0
C711 C 0.49744 0.37718 0.25602 0.0
C712 C 0.37083 0.45207 0.22822 0.0
C713 C 0.39725 0.48566 0.2184 0.0
C714 C 0.38643 0.43771 0.24488 0.0
C715 C 0.42899 0.45824 0.25206 0.0
C716 C 0.45538 0.49282 0.2423 0.0
C717 C 0.43929 0.50597 0.22555 0.0
C718 C 0.35758 0.40027 0.25473 0.0
C719 C 0.50038 0.51624 0.2496 0.0
H720 H 0.42749 0.46862 0.31286 0.0
H721 H 0.51806 0.35985 0.28987 0.0
H722 H 0.40878 0.53748 0.27461 0.0
H723 H 0.35908 0.49695 0.27749 0.0
H724 H 0.38569 0.52603 0.29622 0.0
H725 H 0.52276 0.34771 0.25971 0.0
H726 H 0.46684 0.36128 0.2486 0.0
H727 H 0.51649 0.40244 0.24713 0.0
H728 H 0.33826 0.43636 0.22273 0.0
H729 H 0.45913 0.53288 0.21819 0.0
H730 H 0.34478 0.41553 0.26728 0.0
H731 H 0.38089 0.36878 0.25787 0.0
H732 H 0.32571 0.38734 0.24723 0.0
H733 H 0.49164 0.53507 0.26198 0.0
H734 H 0.51657 0.54275 0.24042 0.0
H735 H 0.52781 0.48821 0.25266 0.0
C736 C 0.06073 0.4386 0.80052 0.0
C737 C 0.09727 0.47344 0.80227 0.0
C738 C 0.04373 0.42458 0.78401 0.0
C739 C 0.06509 0.44447 0.76884 0.0
C740 C 0.10323 0.47838 0.77052 0.0
C741 C 0.11878 0.49253 0.78722 0.0
C742 C 0.00289 0.38845 0.78282 0.0
C743 C 0.12771 0.49961 0.75467 0.0
C744 C 0.05058 0.37309 0.72673 0.0
C745 C 0.01442 0.39934 0.7181 0.0
C746 C 0.06803 0.38786 0.7431 0.0
C747 C 0.04794 0.42924 0.75122 0.0
C748 C 0.01096 0.45557 0.74262 0.0
C749 C 0.99487 0.44047 0.7261 0.0
C750 C 0.10807 0.35927 0.75166 0.0
C751 C 0.98789 0.49924 0.751 0.0
H752 H 0.04574 0.42176 0.81207 0.0
H753 H 0.14763 0.51885 0.78851 0.0
H754 H 0.97273 0.40375 0.77501 0.0
H755 H 0.01544 0.35534 0.77604 0.0
H756 H 0.98876 0.37806 0.79585 0.0
H757 H 0.15743 0.52484 0.7582 0.0
H758 H 0.14279 0.47022 0.74647 0.0
H759 H 0.1009 0.51939 0.74661 0.0
H760 H 0.06576 0.34129 0.72054 0.0
H761 H 0.9662 0.46024 0.7196 0.0
H762 H 0.0953 0.34422 0.76425 0.0
H763 H 0.13917 0.38333 0.75458 0.0
H764 H 0.12091 0.32899 0.74335 0.0
H765 H 0.97125 0.48881 0.76361 0.0
H766 H 0.95959 0.51576 0.7426 0.0
H767 H 0.01582 0.52695 0.75385 0.0
C768 C 0.04204 0.99091 0.22196 0.0
C769 C 0.08475 0.01117 0.21535 0.0
C770 C 0.02467 0.00367 0.23856 0.0
C771 C 0.05048 0.03778 0.24874 0.0
C772 C 0.09362 0.0584 0.24209 0.0
C773 C 0.11049 0.04444 0.22555 0.0
C774 C 0.97906 0.98017 0.2453 0.0
C775 C 0.1219 0.09533 0.25241 0.0
C776 C 0.98391 0.10305 0.28529 0.0
C777 C -3e-05 0.07788 0.30008 0.0
C778 C -8e-05 0.09035 0.26851 0.0
C779 C 0.03275 0.05145 0.26644 0.0
C780 C 0.04934 0.02611 0.28135 0.0
C781 C 0.03338 0.04015 0.29798 0.0
C782 C 0.982 0.11881 0.25299 0.0
C783 C 0.08426 0.98437 0.27974 0.0
H784 H 0.02271 0.96424 0.2143 0.0
H785 H 0.14357 0.0601 0.22047 0.0
H786 H 0.98698 0.96034 0.25756 0.0
H787 H 0.95172 0.00821 0.24843 0.0
H788 H 0.96313 0.9545 0.23575 0.0
H789 H 0.15403 0.10882 0.24521 0.0
H790 H 0.09835 0.12653 0.25567 0.0
H791 H 0.13423 0.0793 0.26491 0.0
H792 H 0.95866 0.13273 0.28686 0.0
H793 H 0.04788 0.0221 0.30938 0.0
H794 H 0.9632 0.09442 0.24372 0.0
H795 H 0.0131 0.13501 0.24596 0.0
H796 H 0.95673 0.1482 0.2568 0.0
H797 H 0.06944 0.95671 0.27072 0.0
H798 H 0.09183 0.96694 0.29251 0.0
H799 H 0.11894 0.9972 0.27412 0.0
C800 C 0.67371 0.17534 0.1604 0.0
C801 C 0.68748 0.1386 0.14883 0.0
C802 C 0.69886 0.2194 0.16097 0.0
C803 C 0.73965 0.22621 0.1501 0.0
C804 C 0.75496 0.18835 0.13893 0.0
C805 C 0.72812 0.14529 0.1382 0.0
C806 C 0.68055 0.25935 0.17266 0.0
C807 C 0.79915 0.19368 0.12752 0.0
C808 C 0.78034 0.35192 0.13652 0.0
C809 C 0.81838 0.36055 0.1482 0.0
C810 C 0.75316 0.30909 0.13744 0.0
C811 C 0.76548 0.27343 0.14995 0.0
C812 C 0.80346 0.2823 0.16192 0.0
C813 C 0.82899 0.3261 0.16107 0.0
C814 C 0.71193 0.3016 0.1248 0.0
C815 C 0.81852 0.2447 0.17514 0.0
H816 H 0.64177 0.17055 0.16842 0.0
H817 H 0.73874 0.11688 0.12924 0.0
H818 H 0.70968 0.27169 0.18156 0.0
H819 H 0.66972 0.29089 0.1646 0.0
H820 H 0.649 0.24785 0.18061 0.0
H821 H 0.80843 0.15954 0.12066 0.0
H822 H 0.79282 0.22222 0.11762 0.0
H823 H 0.8307 0.20509 0.13549 0.0
H824 H 0.77209 0.37855 0.12657 0.0
H825 H 0.85888 0.33236 0.16995 0.0
H826 H 0.67852 0.29155 0.13195 0.0
H827 H 0.7206 0.27135 0.11583 0.0
H828 H 0.70448 0.3344 0.11688 0.0
H829 H 0.7872 0.23401 0.1833 0.0
H830 H 0.84796 0.25774 0.18382 0.0
H831 H 0.83123 0.21173 0.16828 0.0
C832 C 0.13727 0.76629 0.63533 0.0
C833 C 0.13079 0.80713 0.64588 0.0
C834 C 0.18009 0.739 0.63622 0.0
C835 C 0.21792 0.75398 0.64748 0.0
C836 C 0.21144 0.79514 0.6582 0.0
C837 C 0.16765 0.82076 0.65746 0.0
C838 C 0.18506 0.69447 0.62498 0.0
C839 C 0.25134 0.81308 0.67001 0.0
C840 C 0.31548 0.66358 0.66003 0.0
C841 C 0.35138 0.67315 0.64757 0.0
C842 C 0.27187 0.68957 0.66015 0.0
C843 C 0.26457 0.72702 0.64784 0.0
C844 C 0.30149 0.73808 0.63566 0.0
C845 C 0.34415 0.71044 0.63548 0.0
C846 C 0.23294 0.6758 0.67304 0.0
C847 C 0.29567 0.7787 0.62267 0.0
H848 H 0.10882 0.75572 0.62636 0.0
H849 H 0.16308 0.85282 0.66543 0.0
H850 H 0.21452 0.69978 0.61535 0.0
H851 H 0.19503 0.66286 0.63314 0.0
H852 H 0.15117 0.68594 0.61781 0.0
H853 H 0.24045 0.84558 0.67756 0.0
H854 H 0.26216 0.7843 0.67929 0.0
H855 H 0.28373 0.82222 0.66212 0.0
H856 H 0.32059 0.63426 0.66923 0.0
H857 H 0.37185 0.71791 0.62584 0.0
H858 H 0.19994 0.66421 0.66593 0.0
H859 H 0.22286 0.70749 0.68112 0.0
H860 H 0.24446 0.64602 0.68184 0.0
H861 H 0.26553 0.77038 0.61359 0.0
H862 H 0.32902 0.78481 0.6149 0.0
H863 H 0.28624 0.81275 0.62953 0.0
C864 C 0.76705 0.13513 0.88408 0.0
C865 C 0.80455 0.12854 0.87204 0.0
C866 C 0.73907 0.17748 0.88395 0.0
C867 C 0.75006 0.21468 0.87188 0.0
C868 C 0.78748 0.20787 0.85954 0.0
C869 C 0.81382 0.16453 0.8596 0.0
C870 C 0.69842 0.18284 0.89696 0.0
C871 C 0.80108 0.24715 0.84676 0.0
C872 C 0.65698 0.31241 0.86286 0.0
C873 C 0.67123 0.34867 0.87456 0.0
C874 C 0.68214 0.26847 0.86191 0.0
C875 C 0.72341 0.26131 0.87253 0.0
C876 C 0.73889 0.29849 0.88397 0.0
C877 C 0.71206 0.34147 0.88507 0.0
C878 C 0.66369 0.22918 0.84995 0.0
C879 C 0.78353 0.29268 0.89514 0.0
H880 H 0.75986 0.10728 0.89369 0.0
H881 H 0.84331 0.15982 0.85044 0.0
H882 H 0.70702 0.21229 0.90628 0.0
H883 H 0.66443 0.19297 0.89017 0.0
H884 H 0.69204 0.14908 0.90447 0.0
H885 H 0.83048 0.23574 0.83779 0.0
H886 H 0.76917 0.25781 0.83888 0.0
H887 H 0.81324 0.27974 0.85399 0.0
H888 H 0.62489 0.31763 0.85494 0.0
H889 H 0.72303 0.36953 0.89412 0.0
H890 H 0.65448 0.19656 0.8577 0.0
H891 H 0.69224 0.21854 0.84055 0.0
H892 H 0.6311 0.24058 0.84253 0.0
H893 H 0.77816 0.26276 0.90457 0.0
H894 H 0.79232 0.32611 0.90252 0.0
H895 H 0.81503 0.283 0.88688 0.0
C896 C 0.17041 0.66029 0.38724 0.0
C897 C 0.13221 0.66975 0.37571 0.0
C898 C 0.21332 0.68721 0.38658 0.0
C899 C 0.21743 0.72566 0.3745 0.0
C900 C 0.17869 0.73575 0.36293 0.0
C901 C 0.13677 0.70698 0.36345 0.0
C902 C 0.25432 0.6743 0.39877 0.0
C903 C 0.18121 0.7774 0.35024 0.0
C904 C 0.30821 0.82295 0.38651 0.0
C905 C 0.34654 0.81281 0.37513 0.0
C906 C 0.26552 0.79563 0.3861 0.0
C907 C 0.26174 0.75616 0.37443 0.0
C908 C 0.30074 0.74519 0.36311 0.0
C909 C 0.34243 0.77429 0.36337 0.0
C910 C 0.22426 0.80937 0.39803 0.0
C911 C 0.29863 0.70245 0.35089 0.0
H912 H 0.16721 0.63087 0.39652 0.0
H913 H 0.10718 0.71417 0.35452 0.0
H914 H 0.28804 0.66829 0.39122 0.0
H915 H 0.26125 0.70463 0.40789 0.0
H916 H 0.24652 0.64128 0.40653 0.0
H917 H 0.14776 0.78078 0.34228 0.0
H918 H 0.18697 0.81172 0.35744 0.0
H919 H 0.21244 0.77268 0.34133 0.0
H920 H 0.31102 0.85332 0.3954 0.0
H921 H 0.3721 0.76654 0.35456 0.0
H922 H 0.21698 0.7796 0.40735 0.0
H923 H 0.19077 0.81503 0.3903 0.0
H924 H 0.23196 0.84281 0.40556 0.0
H925 H 0.29236 0.66879 0.35845 0.0
H926 H 0.33243 0.69823 0.34321 0.0
H927 H 0.26785 0.70653 0.34173 0.0
C928 C 0.22698 0.63746 0.88864 0.0
C929 C 0.18512 0.63226 0.89877 0.0
C930 C 0.25512 0.67967 0.88961 0.0
C931 C 0.24015 0.71813 0.90055 0.0
C932 C 0.19817 0.71282 0.91094 0.0
C933 C 0.17154 0.66966 0.9101 0.0
C934 C 0.3004 0.68343 0.87868 0.0
C935 C 0.18034 0.75341 0.92243 0.0
C936 C 0.3317 0.81517 0.91257 0.0
C937 C 0.32292 0.85027 0.89975 0.0
C938 C 0.30492 0.77205 0.91305 0.0
C939 C 0.26761 0.76445 0.90069 0.0
C940 C 0.25733 0.80064 0.88814 0.0
C941 C 0.28559 0.84282 0.88766 0.0
C942 C 0.31774 0.73388 0.92636 0.0
C943 C 0.217 0.79446 0.87504 0.0
H944 H 0.23758 0.60856 0.87988 0.0
H945 H 0.13879 0.66607 0.91777 0.0
H946 H 0.29596 0.71231 0.86877 0.0
H947 H 0.33168 0.69356 0.88699 0.0
H948 H 0.30894 0.64904 0.87186 0.0
H949 H 0.14763 0.74313 0.92999 0.0
H950 H 0.20908 0.76455 0.93169 0.0
H951 H 0.17151 0.7854 0.91429 0.0
H952 H 0.36098 0.82045 0.92179 0.0
H953 H 0.27866 0.86993 0.87775 0.0
H954 H 0.32961 0.70045 0.9196 0.0
H955 H 0.28551 0.7244 0.93426 0.0
H956 H 0.34708 0.7458 0.93529 0.0
H957 H 0.22528 0.7637 0.86625 0.0
H958 H 0.2115 0.82735 0.86696 0.0
H959 H 0.18261 0.78584 0.88183 0.0
C960 C 0.80075 0.14898 0.38502 0.0
C961 C 0.84058 0.16048 0.39553 0.0
C962 C 0.75772 0.17565 0.38607 0.0
C963 C 0.75521 0.21597 0.3974 0.0
C964 C 0.79553 0.2278 0.40803 0.0
C965 C 0.83753 0.19919 0.40722 0.0
C966 C 0.71506 0.16078 0.37497 0.0
C967 C 0.79479 0.2714 0.41987 0.0
C968 C 0.66461 0.31256 0.38446 0.0
C969 C 0.62753 0.3054 0.39665 0.0
C970 C 0.7068 0.28447 0.38487 0.0
C971 C 0.7113 0.24713 0.3974 0.0
C972 C 0.67353 0.23913 0.40956 0.0
C973 C 0.63239 0.26907 0.40926 0.0
C974 C 0.74679 0.29517 0.37201 0.0
C975 C 0.67631 0.19861 0.42271 0.0
H976 H 0.80298 0.1184 0.37621 0.0
H977 H 0.86846 0.20785 0.41535 0.0
H978 H 0.68215 0.15726 0.38316 0.0
H979 H 0.70763 0.189 0.36505 0.0
H980 H 0.72139 0.12591 0.36815 0.0
H981 H 0.82897 0.27544 0.42736 0.0
H982 H 0.78901 0.3046 0.41201 0.0
H983 H 0.76426 0.26872 0.42919 0.0
H984 H 0.66123 0.34122 0.37489 0.0
H985 H 0.60368 0.26359 0.41868 0.0
H986 H 0.75239 0.26363 0.36332 0.0
H987 H 0.78129 0.30156 0.37906 0.0
H988 H 0.73877 0.32731 0.36381 0.0
H989 H 0.68112 0.16357 0.41588 0.0
H990 H 0.64336 0.19645 0.43096 0.0
H991 H 0.70819 0.20369 0.4313 0.0
C992 C 0.21571 0.84853 0.12999 0.0
C993 C 0.17536 0.8554 0.1192 0.0
C994 C 0.24276 0.80561 0.12922 0.0
C995 C 0.22822 0.76816 0.11775 0.0
C996 C 0.18789 0.77519 0.10665 0.0
C997 C 0.16232 0.81901 0.10735 0.0
C998 C 0.28629 0.79996 0.14096 0.0
C999 C 0.17057 0.73574 0.09455 0.0
C1000 C 0.31981 0.66972 0.10751 0.0
C1001 C 0.30857 0.6348 0.12015 0.0
C1002 C 0.2935 0.71303 0.10638 0.0
C1003 C 0.25427 0.72105 0.11788 0.0
C1004 C 0.24126 0.68485 0.13008 0.0
C1005 C 0.26899 0.64243 0.13123 0.0
C1006 C 0.3091 0.7511 0.09343 0.0
C1007 C 0.19888 0.69151 0.14226 0.0
H1008 H 0.22592 0.87663 0.13914 0.0
H1009 H 0.13072 0.8239 0.09915 0.0
H1010 H 0.27958 0.77076 0.15058 0.0
H1011 H 0.31841 0.7893 0.13319 0.0
H1012 H 0.29486 0.83374 0.14817 0.0
H1013 H 0.13967 0.74756 0.08632 0.0
H1014 H 0.20042 0.72377 0.08591 0.0
H1015 H 0.1591 0.70386 0.10231 0.0
H1016 H 0.35074 0.66428 0.09904 0.0
H1017 H 0.26008 0.61546 0.14098 0.0
H1018 H 0.32158 0.78378 0.10053 0.0
H1019 H 0.27812 0.76214 0.08514 0.0
H1020 H 0.33888 0.73836 0.08486 0.0
H1021 H 0.20656 0.72144 0.15148 0.0
H1022 H 0.19101 0.65833 0.14992 0.0
H1023 H 0.16602 0.7016 0.13478 0.0
C1024 C 0.67285 0.16073 0.63386 0.0
C1025 C 0.63363 0.17247 0.62309 0.0
C1026 C 0.716 0.1872 0.63315 0.0
C1027 C 0.7193 0.22756 0.62186 0.0
C1028 C 0.67956 0.23982 0.61102 0.0
C1029 C 0.6374 0.2114 0.61151 0.0
C1030 C 0.75803 0.17197 0.6445 0.0
C1031 C 0.68118 0.28355 0.59925 0.0
C1032 C 0.81149 0.32123 0.63584 0.0
C1033 C 0.84931 0.31287 0.62408 0.0
C1034 C 0.76828 0.29491 0.63481 0.0
C1035 C 0.76357 0.25808 0.62211 0.0
C1036 C 0.80192 0.24921 0.61026 0.0
C1037 C 0.84411 0.27751 0.61117 0.0
C1038 C 0.7277 0.30659 0.6473 0.0
C1039 C 0.7988 0.20918 0.59693 0.0
H1040 H 0.67014 0.12997 0.64258 0.0
H1041 H 0.60696 0.22027 0.60317 0.0
H1042 H 0.79119 0.16785 0.63648 0.0
H1043 H 0.76548 0.20027 0.65438 0.0
H1044 H 0.75098 0.13732 0.65138 0.0
H1045 H 0.6473 0.28804 0.59162 0.0
H1046 H 0.68709 0.3166 0.60718 0.0
H1047 H 0.71198 0.28063 0.59005 0.0
H1048 H 0.81528 0.3493 0.64563 0.0
H1049 H 0.87346 0.27129 0.60207 0.0
H1050 H 0.72128 0.27545 0.65611 0.0
H1051 H 0.69365 0.31312 0.63999 0.0
H1052 H 0.7357 0.33894 0.6554 0.0
H1053 H 0.79375 0.17397 0.60364 0.0
H1054 H 0.83175 0.20701 0.58867 0.0
H1055 H 0.76696 0.21471 0.58836 0.0
C1056 C 0.5576 0.61898 0.12599 0.0
C1057 C 0.52684 0.60373 0.13948 0.0
C1058 C 0.58452 0.66176 0.12757 0.0
C1059 C 0.58001 0.68986 0.14288 0.0
C1060 C 0.55477 0.67097 0.15741 0.0
C1061 C 0.5286 0.62785 0.15557 0.0
C1062 C 0.61329 0.67959 0.11215 0.0
C1063 C 0.55058 0.69913 0.1742 0.0
C1064 C 0.64375 0.81114 0.14819 0.0
C1065 C 0.60792 0.84257 0.14206 0.0
C1066 C 0.63595 0.76089 0.14832 0.0
C1067 C 0.59116 0.74236 0.14228 0.0
C1068 C 0.55515 0.77447 0.13596 0.0
C1069 C 0.56418 0.82419 0.13585 0.0
C1070 C 0.67587 0.72813 0.15469 0.0
C1071 C 0.50656 0.75647 0.12962 0.0
H1072 H 0.55763 0.59983 0.11365 0.0
H1073 H 0.50598 0.61573 0.16626 0.0
H1074 H 0.59252 0.70821 0.1053 0.0
H1075 H 0.64805 0.69566 0.11651 0.0
H1076 H 0.62094 0.65007 0.10272 0.0
H1077 H 0.53681 0.67635 0.18505 0.0
H1078 H 0.58615 0.71445 0.17801 0.0
H1079 H 0.52519 0.72977 0.17228 0.0
H1080 H 0.67769 0.82587 0.1529 0.0
H1081 H 0.53662 0.84901 0.13121 0.0
H1082 H 0.69736 0.71565 0.14333 0.0
H1083 H 0.66147 0.69568 0.16143 0.0
H1084 H 0.70067 0.74746 0.16371 0.0
H1085 H 0.5116 0.73126 0.11852 0.0
H1086 H 0.4825 0.78637 0.12532 0.0
H1087 H 0.48805 0.73622 0.14018 0.0
C1088 C 0.87157 0.53688 0.65472 0.0
C1089 C 0.88966 0.52843 0.63788 0.0
C1090 C 0.82733 0.5608 0.65712 0.0
C1091 C 0.80103 0.57669 0.64236 0.0
C1092 C 0.82291 0.57519 0.62569 0.0
C1093 C 0.86721 0.55114 0.62364 0.0
C1094 C 0.80597 0.56321 0.6752 0.0
C1095 C 0.79673 0.59313 0.60967 0.0
C1096 C 0.66729 0.54772 0.64242 0.0
C1097 C 0.6467 0.59312 0.64514 0.0
C1098 C 0.71753 0.54214 0.64167 0.0
C1099 C 0.74781 0.58321 0.64369 0.0
C1100 C 0.72697 0.62928 0.64667 0.0
C1101 C 0.6763 0.63373 0.64729 0.0
C1102 C 0.73811 0.49224 0.63854 0.0
C1103 C 0.7579 0.67382 0.64885 0.0
H1104 H 0.88928 0.52066 0.6659 0.0
H1105 H 0.88157 0.54608 0.61062 0.0
H1106 H 0.78647 0.59779 0.67724 0.0
H1107 H 0.77948 0.53338 0.67682 0.0
H1108 H 0.83423 0.55936 0.68542 0.0
H1109 H 0.82181 0.59825 0.5985 0.0
H1110 H 0.76884 0.56628 0.60582 0.0
H1111 H 0.77803 0.6278 0.61235 0.0
H1112 H 0.64388 0.51658 0.64075 0.0
H1113 H 0.6598 0.66885 0.64931 0.0
H1114 H 0.76273 0.4821 0.64938 0.0
H1115 H 0.75966 0.49204 0.62634 0.0
H1116 H 0.70949 0.46418 0.63746 0.0
H1117 H 0.7895 0.66637 0.65737 0.0
H1118 H 0.73706 0.70446 0.65445 0.0
H1119 H 0.77206 0.68506 0.63594 0.0
C1120 C 0.93386 0.6761 0.13273 0.0
C1121 C 0.89221 0.65422 0.13928 0.0
C1122 C 0.93862 0.7264 0.13269 0.0
C1123 C 0.90025 0.75547 0.13912 0.0
C1124 C 0.85738 0.73334 0.14536 0.0
C1125 C 0.85399 0.68261 0.14545 0.0
C1126 C 0.9854 0.74826 0.12616 0.0
C1127 C 0.81489 0.76268 0.15173 0.0
C1128 C 0.95649 0.8723 0.15272 0.0
C1129 C 0.95845 0.89584 0.13652 0.0
C1130 C 0.93151 0.82852 0.15457 0.0
C1131 C 0.90748 0.80861 0.13995 0.0
C1132 C 0.902 0.8366 0.12465 0.0
C1133 C 0.92799 0.87995 0.12302 0.0
C1134 C 0.93654 0.80057 0.17138 0.0
C1135 C 0.87371 0.81791 0.10924 0.0
H1136 H 0.96326 0.65362 0.12804 0.0
H1137 H 0.82165 0.66513 0.15037 0.0
H1138 H 0.97803 0.77258 0.11497 0.0
H1139 H 0.00237 0.7703 0.1366 0.0
H1140 H 0.01182 0.72037 0.12191 0.0
H1141 H 0.79267 0.74178 0.16115 0.0
H1142 H 0.82638 0.79695 0.15799 0.0
H1143 H 0.79157 0.77196 0.14043 0.0
H1144 H 0.97865 0.88507 0.16345 0.0
H1145 H 0.92789 0.89879 0.11062 0.0
H1146 H 0.96344 0.77119 0.16957 0.0
H1147 H 0.90164 0.78357 0.17504 0.0
H1148 H 0.9489 0.82398 0.18228 0.0
H1149 H 0.89588 0.79099 0.10209 0.0
H1150 H 0.86401 0.84748 0.10008 0.0
H1151 H 0.84012 0.79959 0.11364 0.0
C1152 C 0.60665 0.93592 0.64749 0.0
C1153 C 0.59361 0.95469 0.63114 0.0
C1154 C 0.65001 0.91015 0.64961 0.0
C1155 C 0.68105 0.90397 0.63512 0.0
C1156 C 0.6646 0.91655 0.61824 0.0
C1157 C 0.62066 0.94131 0.61642 0.0
C1158 C 0.66515 0.89465 0.66766 0.0
C1159 C 0.69617 0.90971 0.60237 0.0
C1160 C 0.81355 0.9302 0.64291 0.0
C1161 C 0.83432 0.8845 0.64108 0.0
C1162 C 0.76357 0.93657 0.64128 0.0
C1163 C 0.73359 0.89593 0.63798 0.0
C1164 C 0.75445 0.8493 0.63656 0.0
C1165 C 0.80491 0.84416 0.63806 0.0
C1166 C 0.74309 0.98715 0.6426 0.0
C1167 C 0.72375 0.80493 0.63358 0.0
H1168 H 0.58526 0.94484 0.65889 0.0
H1169 H 0.61035 0.95453 0.60364 0.0
H1170 H 0.68362 0.85905 0.66725 0.0
H1171 H 0.6911 0.9214 0.67305 0.0
H1172 H 0.6337 0.8923 0.67664 0.0
H1173 H 0.67537 0.9139 0.59005 0.0
H1174 H 0.72551 0.93713 0.60251 0.0
H1175 H 0.71342 0.87351 0.60247 0.0
H1176 H 0.83674 0.96123 0.64516 0.0
H1177 H 0.82144 0.80879 0.63677 0.0
H1178 H 0.7163 0.98901 0.65334 0.0
H1179 H 0.724 0.99667 0.63033 0.0
H1180 H 0.77153 0.01473 0.64504 0.0
H1181 H 0.70632 0.79449 0.64606 0.0
H1182 H 0.74569 0.77388 0.62892 0.0
H1183 H 0.6945 0.81199 0.624 0.0
C1184 C 0.56218 0.6677 0.88001 0.0
C1185 C 0.60745 0.64559 0.87939 0.0
C1186 C 0.55811 0.71796 0.88084 0.0
C1187 C 0.60062 0.74676 0.88087 0.0
C1188 C 0.6467 0.7244 0.88007 0.0
C1189 C 0.64955 0.67367 0.87935 0.0
C1190 C 0.50815 0.74009 0.88192 0.0
C1191 C 0.6928 0.7536 0.87965 0.0
C1192 C 0.55675 0.87035 0.86949 0.0
C1193 C 0.54393 0.88683 0.88616 0.0
C1194 C 0.58278 0.82719 0.86744 0.0
C1195 C 0.59527 0.79996 0.88238 0.0
C1196 C 0.58965 0.82057 0.89913 0.0
C1197 C 0.56432 0.86417 0.90082 0.0
C1198 C 0.59115 0.80768 0.84933 0.0
C1199 C 0.60399 0.7934 0.9154 0.0
H1200 H 0.52987 0.64541 0.88005 0.0
H1201 H 0.68452 0.65597 0.87876 0.0
H1202 H 0.50499 0.76234 0.89391 0.0
H1203 H 0.50194 0.76425 0.87059 0.0
H1204 H 0.47907 0.71235 0.8821 0.0
H1205 H 0.72428 0.73191 0.88412 0.0
H1206 H 0.69981 0.76531 0.86605 0.0
H1207 H 0.69017 0.78656 0.88783 0.0
H1208 H 0.54286 0.88855 0.85804 0.0
H1209 H 0.55614 0.87744 0.91379 0.0
H1210 H 0.56268 0.78073 0.84619 0.0
H1211 H 0.62672 0.78921 0.84851 0.0
H1212 H 0.58972 0.83685 0.83937 0.0
H1213 H 0.57673 0.76485 0.91806 0.0
H1214 H 0.60591 0.81761 0.92694 0.0
H1215 H 0.63954 0.77542 0.91368 0.0
C1216 C 0.6235 0.53711 0.40558 0.0
C1217 C 0.59453 0.52651 0.39104 0.0
C1218 C 0.66765 0.56131 0.40363 0.0
C1219 C 0.68217 0.57658 0.38682 0.0
C1220 C 0.64939 0.5732 0.3727 0.0
C1221 C 0.606 0.54755 0.37491 0.0
C1222 C 0.70134 0.56454 0.41911 0.0
C1223 C 0.66249 0.59175 0.35482 0.0
C1224 C 0.80607 0.63595 0.38425 0.0
C1225 C 0.83481 0.59618 0.37981 0.0
C1226 C 0.75568 0.63092 0.38596 0.0
C1227 C 0.73434 0.58491 0.3834 0.0
C1228 C 0.76362 0.5449 0.37864 0.0
C1229 C 0.81352 0.55123 0.37677 0.0
C1230 C 0.72552 0.67461 0.39047 0.0
C1231 C 0.74259 0.49489 0.37617 0.0
H1232 H 0.61447 0.52206 0.41821 0.0
H1233 H 0.58314 0.54077 0.36368 0.0
H1234 H 0.73018 0.53684 0.41776 0.0
H1235 H 0.71918 0.6004 0.41968 0.0
H1236 H 0.68211 0.55814 0.43162 0.0
H1237 H 0.62993 0.59639 0.34648 0.0
H1238 H 0.68182 0.62682 0.35576 0.0
H1239 H 0.68703 0.56556 0.34835 0.0
H1240 H 0.82308 0.67071 0.38652 0.0
H1241 H 0.83629 0.52065 0.37345 0.0
H1242 H 0.69871 0.66607 0.40077 0.0
H1243 H 0.70496 0.68611 0.37875 0.0
H1244 H 0.74817 0.70537 0.39494 0.0
H1245 H 0.72443 0.48295 0.38834 0.0
H1246 H 0.77058 0.46772 0.37269 0.0
H1247 H 0.71492 0.49544 0.36569 0.0
C1248 C 0.93293 0.81608 0.88393 0.0
C1249 C 0.89073 0.83567 0.87687 0.0
C1250 C 0.94061 0.76616 0.88395 0.0
C1251 C 0.90477 0.73512 0.87687 0.0
C1252 C 0.86144 0.75481 0.87001 0.0
C1253 C 0.85503 0.80524 0.86999 0.0
C1254 C 0.98767 0.74684 0.89122 0.0
C1255 C 0.82217 0.72274 0.86271 0.0
C1256 C 0.96817 0.62122 0.86396 0.0
C1257 C 0.96782 0.59641 0.87993 0.0
C1258 C 0.94227 0.66435 0.86188 0.0
C1259 C 0.91497 0.68251 0.87604 0.0
C1260 C 0.90835 0.65368 0.89109 0.0
C1261 C 0.93515 0.6109 0.89292 0.0
C1262 C 0.94998 0.69365 0.8455 0.0
C1263 C 0.878 0.67093 0.90621 0.0
H1264 H 0.96037 0.84009 0.88917 0.0
H1265 H 0.82231 0.82094 0.86462 0.0
H1266 H 0.00744 0.72658 0.88097 0.0
H1267 H 0.01163 0.77604 0.89617 0.0
H1268 H 0.9803 0.72137 0.90207 0.0
H1269 H 0.79157 0.7439 0.85723 0.0
H1270 H 0.83696 0.69904 0.85234 0.0
H1271 H 0.80811 0.69877 0.87314 0.0
H1272 H 0.99259 0.61002 0.85369 0.0
H1273 H 0.93362 0.59128 0.90515 0.0
H1274 H 0.97752 0.72199 0.84809 0.0
H1275 H 0.9162 0.71204 0.8414 0.0
H1276 H 0.9631 0.67082 0.83456 0.0
H1277 H 0.8994 0.69677 0.91416 0.0
H1278 H 0.86694 0.64043 0.91475 0.0
H1279 H 0.84513 0.69003 0.90156 0.0
C1280 C 0.66479 0.93243 0.38055 0.0
C1281 C 0.6419 0.88821 0.37766 0.0
C1282 C 0.71523 0.93551 0.38107 0.0
C1283 C 0.74331 0.89303 0.37878 0.0
C1284 C 0.72016 0.84814 0.37573 0.0
C1285 C 0.66935 0.84628 0.37518 0.0
C1286 C 0.73837 0.98436 0.3841 0.0
C1287 C 0.74884 0.8022 0.37339 0.0
C1288 C 0.86696 0.93487 0.3663 0.0
C1289 C 0.88601 0.94455 0.38291 0.0
C1290 C 0.82228 0.91152 0.36443 0.0
C1291 C 0.7968 0.89704 0.37954 0.0
C1292 C 0.82 0.89874 0.39598 0.0
C1293 C 0.8646 0.92256 0.39749 0.0
C1294 C 0.79943 0.90916 0.34657 0.0
C1295 C 0.79483 0.88177 0.41232 0.0
H1296 H 0.64301 0.96466 0.38239 0.0
H1297 H 0.65105 0.81213 0.37299 0.0
H1298 H 0.76315 0.99324 0.37318 0.0
H1299 H 0.71122 0.01381 0.38525 0.0
H1300 H 0.76023 0.98356 0.39624 0.0
H1301 H 0.726 0.77209 0.36848 0.0
H1302 H 0.77935 0.80781 0.36422 0.0
H1303 H 0.76463 0.79136 0.3861 0.0
H1304 H 0.88393 0.9502 0.35485 0.0
H1305 H 0.87985 0.9283 0.41035 0.0
H1306 H 0.77451 0.94033 0.34495 0.0
H1307 H 0.77795 0.87561 0.34493 0.0
H1308 H 0.8271 0.91096 0.33609 0.0
H1309 H 0.76871 0.90984 0.41661 0.0
H1310 H 0.82095 0.87542 0.4231 0.0
H1311 H 0.77426 0.84801 0.40987 0.0
C1312 C 0.43572 0.36381 0.87308 0.0
C1313 C 0.45484 0.38903 0.88739 0.0
C1314 C 0.41307 0.3189 0.8754 0.0
C1315 C 0.40907 0.29945 0.8924 0.0
C1316 C 0.42066 0.32856 0.90698 0.0
C1317 C 0.4436 0.37316 0.90431 0.0
C1318 C 0.39962 0.2896 0.85952 0.0
C1319 C 0.41469 0.31001 0.92535 0.0
C1320 C 0.35694 0.17268 0.89708 0.0
C1321 C 0.39931 0.14503 0.89678 0.0
C1322 C 0.35918 0.22341 0.89624 0.0
C1323 C 0.40481 0.24628 0.89462 0.0
C1324 C 0.44767 0.218 0.89453 0.0
C1325 C 0.4443 0.16766 0.89572 0.0
C1326 C 0.31273 0.25203 0.89659 0.0
C1327 C 0.49717 0.24077 0.89276 0.0
H1328 H 0.44309 0.37631 0.85994 0.0
H1329 H 0.45693 0.39312 0.91549 0.0
H1330 H 0.42785 0.26179 0.85719 0.0
H1331 H 0.36478 0.27055 0.86156 0.0
H1332 H 0.39667 0.31252 0.84766 0.0
H1333 H 0.41516 0.33994 0.93501 0.0
H1334 H 0.38035 0.28957 0.92673 0.0
H1335 H 0.44489 0.28499 0.92846 0.0
H1336 H 0.32218 0.15461 0.89781 0.0
H1337 H 0.47683 0.14572 0.8954 0.0
H1338 H 0.30165 0.26044 0.88302 0.0
H1339 H 0.31726 0.28678 0.90363 0.0
H1340 H 0.28305 0.23122 0.90284 0.0
H1341 H 0.49944 0.26117 0.88033 0.0
H1342 H 0.52672 0.21353 0.89298 0.0
H1343 H 0.50336 0.2668 0.90354 0.0
C1344 C 0.12509 0.44275 0.3676 0.0
C1345 C 0.09313 0.45094 0.3815 0.0
C1346 C 0.16904 0.41866 0.37035 0.0
C1347 C 0.18068 0.40207 0.38729 0.0
C1348 C 0.14512 0.40301 0.40051 0.0
C1349 C 0.10158 0.42769 0.39748 0.0
C1350 C 0.2053 0.41614 0.35567 0.0
C1351 C 0.15509 0.38249 0.41838 0.0
C1352 C 0.30484 0.34424 0.39143 0.0
C1353 C 0.33266 0.38423 0.39636 0.0
C1354 C 0.2545 0.34836 0.38944 0.0
C1355 C 0.2322 0.39393 0.39193 0.0
C1356 C 0.26034 0.43395 0.39754 0.0
C1357 C 0.31026 0.4284 0.39983 0.0
C1358 C 0.22628 0.30422 0.38401 0.0
C1359 C 0.23818 0.48335 0.40026 0.0
H1360 H 0.11838 0.45953 0.35505 0.0
H1361 H 0.07609 0.43213 0.40808 0.0
H1362 H 0.23512 0.44211 0.35821 0.0
H1363 H 0.22139 0.37946 0.35491 0.0
H1364 H 0.18873 0.42508 0.34286 0.0
H1365 H 0.12125 0.37749 0.42598 0.0
H1366 H 0.17404 0.34722 0.41732 0.0
H1367 H 0.17904 0.40755 0.42568 0.0
H1368 H 0.32258 0.31006 0.38875 0.0
H1369 H 0.33225 0.45922 0.40355 0.0
H1370 H 0.2325 0.29738 0.36993 0.0
H1371 H 0.18682 0.30788 0.38627 0.0
H1372 H 0.23949 0.27211 0.39128 0.0
H1373 H 0.22275 0.49673 0.38779 0.0
H1374 H 0.26495 0.51025 0.40503 0.0
H1375 H 0.20818 0.48113 0.40982 0.0
C1376 C 0.04561 0.10904 0.89845 0.0
C1377 C 0.02603 0.09917 0.88194 0.0
C1378 C 0.07153 0.15183 0.90149 0.0
C1379 C 0.07697 0.18561 0.88779 0.0
C1380 C 0.06292 0.1728 0.87065 0.0
C1381 C 0.03799 0.12935 0.86788 0.0
C1382 C 0.08846 0.16314 0.91975 0.0
C1383 C 0.06888 0.20749 0.85559 0.0
C1384 C 0.05537 0.31737 0.89821 0.0
C1385 C 0.10141 0.3371 0.89592 0.0
C1386 C 0.0475 0.26774 0.89616 0.0
C1387 C 0.08691 0.23714 0.89185 0.0
C1388 C 0.13401 0.25678 0.89021 0.0
C1389 C 0.1407 0.30684 0.89224 0.0
C1390 C 0.9965 0.2485 0.89778 0.0
C1391 C 0.17716 0.22529 0.88616 0.0
H1392 H 0.03767 0.08517 0.90927 0.0
H1393 H 0.02367 0.12168 0.85501 0.0
H1394 H 0.12454 0.18074 0.91948 0.0
H1395 H 0.06275 0.1887 0.92595 0.0
H1396 H 0.09051 0.13008 0.92794 0.0
H1397 H 0.06258 0.18963 0.84281 0.0
H1398 H 0.04252 0.23753 0.85699 0.0
H1399 H 0.10566 0.22353 0.8556 0.0
H1400 H 0.02509 0.34117 0.9009 0.0
H1401 H 0.17635 0.32254 0.89057 0.0
H1402 H 0.99508 0.21956 0.90778 0.0
H1403 H 0.98489 0.23239 0.8852 0.0
H1404 H 0.97017 0.27711 0.90143 0.0
H1405 H 0.18813 0.20576 0.89817 0.0
H1406 H 0.20846 0.24695 0.88154 0.0
H1407 H 0.16836 0.19776 0.87613 0.0
C1408 C 0.37268 0.06066 0.39134 0.0
C1409 C 0.37925 0.03217 0.37639 0.0
C1410 C 0.32895 0.0852 0.39416 0.0
C1411 C 0.29103 0.08009 0.38191 0.0
C1412 C 0.29999 0.05692 0.36577 0.0
C1413 C 0.34444 0.03381 0.36309 0.0
C1414 C 0.32157 0.11181 0.41112 0.0
C1415 C 0.26061 0.05074 0.35227 0.0
C1416 C 0.16451 0.05598 0.39829 0.0
C1417 C 0.14009 0.09749 0.39281 0.0
C1418 C 0.21431 0.05106 0.39558 0.0
C1419 C 0.24022 0.08889 0.38728 0.0
C1420 C 0.21609 0.13211 0.38261 0.0
C1421 C 0.16603 0.13591 0.38545 0.0
C1422 C 0.23849 0.004 0.40055 0.0
C1423 C 0.24275 0.17345 0.3741 0.0
H1424 H 0.40007 0.06064 0.40147 0.0
H1425 H 0.34945 0.01244 0.35138 0.0
H1426 H 0.29935 0.14476 0.40912 0.0
H1427 H 0.30203 0.08806 0.42041 0.0
H1428 H 0.35662 0.12228 0.41714 0.0
H1429 H 0.2753 0.03875 0.33951 0.0
H1430 H 0.23445 0.02309 0.35689 0.0
H1431 H 0.24036 0.08491 0.35032 0.0
H1432 H 0.14411 0.0262 0.40382 0.0
H1433 H 0.14675 0.16807 0.3813 0.0
H1434 H 0.27001 0.01102 0.40914 0.0
H1435 H 0.25214 0.98563 0.38866 0.0
H1436 H 0.21347 0.97898 0.40741 0.0
H1437 H 0.26966 0.1884 0.38339 0.0
H1438 H 0.21789 0.20283 0.36997 0.0
H1439 H 0.26306 0.1607 0.36251 0.0
C1440 C 0.45812 0.11845 0.11821 0.0
C1441 C 0.46874 0.1017 0.13507 0.0
C1442 C 0.4326 0.16171 0.11575 0.0
C1443 C 0.41752 0.18848 0.13048 0.0
C1444 C 0.42145 0.16787 0.14731 0.0
C1445 C 0.44704 0.12448 0.14943 0.0
C1446 C 0.42712 0.18155 0.09752 0.0
C1447 C 0.40403 0.19452 0.16328 0.0
C1448 C 0.44155 0.32292 0.1285 0.0
C1449 C 0.39501 0.34166 0.12656 0.0
C1450 C 0.44905 0.27304 0.1297 0.0
C1451 C 0.40886 0.24123 0.12872 0.0
C1452 C 0.36168 0.26016 0.12637 0.0
C1453 C 0.35522 0.31053 0.12553 0.0
C1454 C 0.50004 0.25451 0.13222 0.0
C1455 C 0.31797 0.22769 0.12511 0.0
H1456 H 0.47349 0.1003 0.10698 0.0
H1457 H 0.45395 0.11118 0.16249 0.0
H1458 H 0.39116 0.19875 0.09581 0.0
H1459 H 0.45507 0.20969 0.09527 0.0
H1460 H 0.43163 0.1529 0.0875 0.0
H1461 H 0.40194 0.17042 0.17485 0.0
H1462 H 0.42948 0.22446 0.16627 0.0
H1463 H 0.36788 0.21066 0.16093 0.0
H1464 H 0.47204 0.34751 0.12935 0.0
H1465 H 0.3192 0.32557 0.12411 0.0
H1466 H 0.50983 0.22969 0.12142 0.0
H1467 H 0.50245 0.23369 0.14457 0.0
H1468 H 0.52712 0.28418 0.13269 0.0
H1469 H 0.3265 0.19322 0.11839 0.0
H1470 H 0.28788 0.24577 0.11806 0.0
H1471 H 0.30528 0.21884 0.13846 0.0
C1472 C 0.37625 0.43263 0.62292 0.0
C1473 C 0.38537 0.45252 0.63943 0.0
C1474 C 0.33361 0.40656 0.61973 0.0
C1475 C 0.29915 0.40174 0.63324 0.0
C1476 C 0.31135 0.41589 0.65043 0.0
C1477 C 0.3548 0.44064 0.65337 0.0
C1478 C 0.32307 0.3891 0.60149 0.0
C1479 C 0.27586 0.41076 0.66528 0.0
C1480 C 0.16873 0.4278 0.62202 0.0
C1481 C 0.14712 0.38282 0.6247 0.0
C1482 C 0.21859 0.43379 0.62416 0.0
C1483 C 0.24753 0.39344 0.62884 0.0
C1484 C 0.22602 0.34727 0.63074 0.0
C1485 C 0.1757 0.34254 0.62872 0.0
C1486 C 0.2398 0.48393 0.62232 0.0
C1487 C 0.25582 0.30314 0.63507 0.0
H1488 H 0.40045 0.44065 0.61217 0.0
H1489 H 0.36196 0.45522 0.66624 0.0
H1490 H 0.30427 0.35365 0.6018 0.0
H1491 H 0.29888 0.41531 0.59485 0.0
H1492 H 0.35671 0.3856 0.59367 0.0
H1493 H 0.29329 0.41692 0.67815 0.0
H1494 H 0.24637 0.43764 0.66365 0.0
H1495 H 0.25912 0.37432 0.66527 0.0
H1496 H 0.14616 0.45882 0.61906 0.0
H1497 H 0.15849 0.30773 0.63069 0.0
H1498 H 0.26875 0.48395 0.61232 0.0
H1499 H 0.25637 0.49532 0.63486 0.0
H1500 H 0.21221 0.51122 0.61855 0.0
H1501 H 0.23291 0.27275 0.6397 0.0
H1502 H 0.28336 0.31117 0.64519 0.0
H1503 H 0.2754 0.29125 0.6232 0.0
C1504 C 0.04851 0.36166 0.15109 0.0
C1505 C 0.03782 0.39241 0.13707 0.0
C1506 C 0.07208 0.31749 0.14829 0.0
C1507 C 0.08623 0.30469 0.13116 0.0
C1508 C 0.0825 0.33904 0.11757 0.0
C1509 C 0.05762 0.38243 0.12062 0.0
C1510 C 0.07617 0.28214 0.16323 0.0
C1511 C 0.10002 0.32778 0.0994 0.0
C1512 C 0.14432 0.18069 0.12661 0.0
C1513 C 0.10387 0.15253 0.12241 0.0
C1514 C 0.13994 0.23094 0.12886 0.0
C1515 C 0.09397 0.2529 0.12691 0.0
C1516 C 0.05341 0.22441 0.12209 0.0
C1517 C 0.05903 0.17457 0.11978 0.0
C1518 C 0.18433 0.26011 0.13341 0.0
C1519 C 0.00346 0.24609 0.12021 0.0
H1520 H 0.03383 0.36938 0.1639 0.0
H1521 H 0.05039 0.40666 0.10981 0.0
H1522 H 0.04888 0.25306 0.16154 0.0
H1523 H 0.11239 0.26487 0.16338 0.0
H1524 H 0.06991 0.2998 0.17604 0.0
H1525 H 0.10389 0.36109 0.09142 0.0
H1526 H 0.13534 0.30873 0.09986 0.0
H1527 H 0.07367 0.30357 0.09284 0.0
H1528 H 0.17904 0.16321 0.12854 0.0
H1529 H 0.02783 0.15238 0.11667 0.0
H1530 H 0.17609 0.28894 0.14301 0.0
H1531 H 0.19805 0.27792 0.12143 0.0
H1532 H 0.21353 0.23691 0.13878 0.0
H1533 H 0.99214 0.2627 0.13273 0.0
H1534 H 0.97591 0.21881 0.11638 0.0
H1535 H 0.00383 0.27509 0.11022 0.0
C1536 C 0.3048 0.13708 0.62275 0.0
C1537 C 0.33567 0.09792 0.62584 0.0
C1538 C 0.25431 0.13105 0.62347 0.0
C1539 C 0.23501 0.08487 0.62741 0.0
C1540 C 0.26658 0.04527 0.63037 0.0
C1541 C 0.31657 0.05242 0.62959 0.0
C1542 C 0.22188 0.17409 0.62038 0.0
C1543 C 0.24764 0.99523 0.63443 0.0
C1544 C 0.1159 0.04995 0.64701 0.0
C1545 C 0.09508 0.02543 0.63286 0.0
C1546 C 0.15926 0.07571 0.64497 0.0
C1547 C 0.18204 0.07655 0.62845 0.0
C1548 C 0.15736 0.05823 0.6137 0.0
C1549 C 0.11386 0.03308 0.61607 0.0
C1550 C 0.18361 0.09655 0.6609 0.0
C1551 C 0.17988 0.05933 0.59578 0.0
H1552 H 0.32016 0.17232 0.61996 0.0
H1553 H 0.34098 0.02242 0.63197 0.0
H1554 H 0.19119 0.16448 0.61172 0.0
H1555 H 0.20635 0.18606 0.63299 0.0
H1556 H 0.24187 0.20488 0.61451 0.0
H1557 H 0.22607 0.99605 0.64662 0.0
H1558 H 0.22341 0.98273 0.6238 0.0
H1559 H 0.27717 0.96833 0.63604 0.0
H1560 H 0.10101 0.04535 0.65998 0.0
H1561 H 0.09725 0.01547 0.60494 0.0
H1562 H 0.20138 0.13146 0.6578 0.0
H1563 H 0.21204 0.07118 0.66548 0.0
H1564 H 0.1575 0.10223 0.67172 0.0
H1565 H 0.19821 0.09434 0.59334 0.0
H1566 H 0.15253 0.05315 0.58539 0.0
H1567 H 0.20759 0.03039 0.59487 0.0
C1568 C 0.54764 0.96639 0.96943 0.0
C1569 C 0.50013 0.97541 0.96385 0.0
C1570 C 0.56104 0.97209 0.98695 0.0
C1571 C 0.52629 0.9879 0.99924 0.0
C1572 C 0.47812 0.99678 0.99375 0.0
C1573 C 0.46549 0.9901 0.97612 0.0
C1574 C 0.61265 0.96162 0.99227 0.0
C1575 C 0.44021 0.01418 1.00644 0.0
C1576 C 0.55759 0.96586 0.04695 0.0
C1577 C 0.57854 0.01011 0.05164 0.0
C1578 C 0.53894 0.95853 0.03009 0.0
C1579 C 0.54121 0.99646 0.01768 0.0
C1580 C 0.56134 0.04161 0.02255 0.0
C1581 C 0.58021 0.04769 0.03941 0.0
C1582 C 0.51857 0.90963 0.02535 0.0
C1583 C 0.5641 0.08312 1.00979 0.0
H1584 H 0.57455 0.95462 0.96007 0.0
H1585 H 0.42876 0.99729 0.97188 0.0
H1586 H 0.62994 0.99507 0.99725 0.0
H1587 H 0.61329 0.93469 1.00299 0.0
H1588 H 0.6347 0.94757 0.98127 0.0
H1589 H 0.40414 0.01834 1.00021 0.0
H1590 H 0.43696 0.98844 0.01747 0.0
H1591 H 0.45126 0.04955 0.01198 0.0
H1592 H 0.55753 0.93634 0.05624 0.0
H1593 H 0.59649 0.08191 0.04305 0.0
H1594 H 0.54195 0.89235 0.01538 0.0
H1595 H 0.48201 0.91359 0.01955 0.0
H1596 H 0.51611 0.88516 0.03681 0.0
H1597 H 0.58905 0.0737 0.99899 0.0
H1598 H 0.57715 0.11696 0.01602 0.0
H1599 H 0.52801 0.08998 1.00395 0.0
C1600 C 0.46448 0.5677 0.53829 0.0
C1601 C 0.48915 0.55032 0.55304 0.0
C1602 C 0.47226 0.54775 0.52168 0.0
C1603 C 0.50523 0.50898 0.51968 0.0
C1604 C 0.52994 0.49088 0.53449 0.0
C1605 C 0.52224 0.51226 0.55089 0.0
C1606 C 0.44585 0.56883 0.50619 0.0
C1607 C 0.56525 0.44944 0.53295 0.0
C1608 C 0.4966 0.43528 0.47774 0.0
C1609 C 0.53436 0.45507 0.46782 0.0
C1610 C 0.48733 0.45165 0.4948 0.0
C1611 C 0.51587 0.48934 0.50196 0.0
C1612 C 0.55411 0.50926 0.49201 0.0
C1613 C 0.56314 0.49161 0.47517 0.0
C1614 C 0.44683 0.42886 0.50513 0.0
C1615 C 0.58488 0.55005 0.499 0.0
H1616 H 0.43898 0.59721 0.5397 0.0
H1617 H 0.54337 0.49977 0.56182 0.0
H1618 H 0.47236 0.58332 0.49667 0.0
H1619 H 0.42483 0.54023 0.49945 0.0
H1620 H 0.42075 0.59838 0.50997 0.0
H1621 H 0.57822 0.43672 0.54588 0.0
H1622 H 0.54815 0.41862 0.52603 0.0
H1623 H 0.59702 0.46087 0.52514 0.0
H1624 H 0.47429 0.40696 0.47218 0.0
H1625 H 0.59219 0.5074 0.46757 0.0
H1626 H 0.41889 0.4564 0.50815 0.0
H1627 H 0.46089 0.41511 0.51775 0.0
H1628 H 0.42938 0.39853 0.49801 0.0
H1629 H 0.56172 0.58174 0.502 0.0
H1630 H 0.61332 0.56146 0.48963 0.0
H1631 H 0.60262 0.53893 0.51134 0.0
C1632 C 0.91346 0.46071 0.03561 0.0
C1633 C 0.92955 0.48849 0.04979 0.0
C1634 C 0.9308 0.46902 0.01865 0.0
C1635 C 0.96523 0.50605 0.01572 0.0
C1636 C 0.98185 0.5341 0.02997 0.0
C1637 C 0.96342 0.52537 0.04677 0.0
C1638 C 0.91169 0.43861 1.00381 0.0
C1639 C 0.01847 0.57399 0.02742 0.0
C1640 C 0.03722 0.50197 0.97334 0.0
C1641 C 0.01218 0.53556 0.96299 0.0
C1642 C 0.02283 0.49249 0.99061 0.0
C1643 C 0.98214 0.51678 0.99764 0.0
C1644 C 0.9569 0.55084 0.98728 0.0
C1645 C 0.97233 0.55996 0.97015 0.0
C1646 C 0.05098 0.45629 1.00129 0.0
C1647 C 0.91307 0.5772 0.9942 0.0
H1648 H 0.88712 0.43228 0.03777 0.0
H1649 H 0.97464 0.54852 0.05736 0.0
H1650 H 0.89315 0.46206 0.99415 0.0
H1651 H 0.94206 0.42054 0.99696 0.0
H1652 H 0.8858 0.41053 1.00831 0.0
H1653 H 0.03015 0.59033 0.03997 0.0
H1654 H 0.05085 0.55983 0.02056 0.0
H1655 H 0.00277 0.60283 0.0191 0.0
H1656 H 0.06808 0.48299 0.96795 0.0
H1657 H 0.95261 0.58585 0.96227 0.0
H1658 H 0.02707 0.42588 1.00512 0.0
H1659 H 0.0641 0.47349 0.01349 0.0
H1660 H 0.08253 0.44146 0.9941 0.0
H1661 H 0.88461 0.55077 0.99785 0.0
H1662 H 0.89769 0.60289 0.98454 0.0
H1663 H 0.92275 0.59757 1.00617 0.0
C1664 C 0.98042 0.02715 0.47303 0.0
C1665 C 0.9447 0.00443 0.46292 0.0
C1666 C 0.99013 0.01182 0.4902 0.0
C1667 C 0.96401 0.97239 0.49733 0.0
C1668 C 0.92791 0.94942 0.48717 0.0
C1669 C 0.91851 0.96589 0.47018 0.0
C1670 C 0.02844 0.03768 0.50068 0.0
C1671 C 0.89965 0.90686 0.49416 0.0
C1672 C 0.01838 0.89957 0.53466 0.0
C1673 C 0.99203 0.91636 0.54909 0.0
C1674 C 0.01018 0.91797 0.51783 0.0
C1675 C 0.97485 0.95437 0.51528 0.0
C1676 C 0.94831 0.97175 0.52977 0.0
C1677 C 0.95672 0.9521 0.54642 0.0
C1678 C 0.0388 0.89784 0.50271 0.0
C1679 C 0.91032 0.01055 0.52764 0.0
H1680 H 0.00077 0.05701 0.46755 0.0
H1681 H 0.89101 0.94787 0.46247 0.0
H1682 H 0.01269 0.05131 0.51305 0.0
H1683 H 0.05779 0.01211 0.5042 0.0
H1684 H 0.0445 0.06859 0.49347 0.0
H1685 H 0.87269 0.89308 0.48462 0.0
H1686 H 0.92477 0.87702 0.49756 0.0
H1687 H 0.8804 0.91727 0.50627 0.0
H1688 H 0.0456 0.87182 0.5365 0.0
H1689 H 0.9345 0.96398 0.55716 0.0
H1690 H 0.05818 0.92743 0.49589 0.0
H1691 H 0.01388 0.881 0.49312 0.0
H1692 H 0.06565 0.87031 0.50691 0.0
H1693 H 0.92581 0.04224 0.52074 0.0
H1694 H 0.89546 0.02278 0.54035 0.0
H1695 H 0.88009 0.99666 0.51954 0.0
C1696 C 0.511 0.48309 0.97346 0.0
C1697 C 0.56015 0.49267 0.97043 0.0
C1698 C 0.4896 0.49303 0.98969 0.0
C1699 C 0.51823 0.51207 1.00339 0.0
C1700 C 0.568 0.52125 1.00049 0.0
C1701 C 0.5883 0.51143 0.98407 0.0
C1702 C 0.43645 0.4826 0.99226 0.0
C1703 C 0.59992 0.54115 0.01478 0.0
C1704 C 0.4585 0.57691 0.04153 0.0
C1705 C 0.4585 0.54091 0.05444 0.0
C1706 C 0.47705 0.56778 0.02478 0.0
C1707 C 0.49644 0.52165 0.02085 0.0
C1708 C 0.49598 0.48498 0.03375 0.0
C1709 C 0.47687 0.49498 0.05034 0.0
C1710 C 0.47639 0.60768 0.01134 0.0
C1711 C 0.51651 0.43539 0.03012 0.0
H1712 H 0.4893 0.46664 0.96333 0.0
H1713 H 0.62639 0.51857 0.9819 0.0
H1714 H 0.43176 0.45466 1.0025 0.0
H1715 H 0.41751 0.51565 0.99679 0.0
H1716 H 0.41875 0.46971 0.9801 0.0
H1717 H 0.63787 0.54641 0.01041 0.0
H1718 H 0.58554 0.57635 0.01938 0.0
H1719 H 0.59985 0.51618 0.0261 0.0
H1720 H 0.44423 0.61244 0.04453 0.0
H1721 H 0.47708 0.4669 0.0602 0.0
H1722 H 0.45711 0.59537 0.99945 0.0
H1723 H 0.51395 0.61677 1.00744 0.0
H1724 H 0.45857 0.641 0.01625 0.0
H1725 H 0.49821 0.41909 0.01867 0.0
H1726 H 0.51244 0.41054 0.04141 0.0
H1727 H 0.55552 0.43841 0.0269 0.0
C1728 C 0.96635 0.51769 0.47282 0.0
C1729 C 0.99775 0.55693 0.47036 0.0
C1730 C 0.95759 0.4989 0.48955 0.0
C1731 C 0.97988 0.5206 0.50423 0.0
C1732 C 0.01129 0.56053 0.50183 0.0
C1733 C 0.01973 0.57826 0.48493 0.0
C1734 C 0.92375 0.45641 0.49154 0.0
C1735 C 0.0354 0.58502 0.51714 0.0
C1736 C 0.91956 0.5068 0.54852 0.0
C1737 C 0.94864 0.47167 0.55657 0.0
C1738 C 0.92921 0.52279 0.53149 0.0
C1739 C 0.96872 0.50297 0.52218 0.0
C1740 C 0.99783 0.46699 0.53011 0.0
C1741 C 0.98758 0.4519 0.54724 0.0
C1742 C 0.89745 0.56143 0.52356 0.0
C1743 C 0.04004 0.44472 0.52056 0.0
H1744 H 0.94765 0.50235 0.4617 0.0
H1745 H 0.04359 0.60896 0.48309 0.0
H1746 H 0.94178 0.42701 0.49894 0.0
H1747 H 0.89138 0.46746 0.49911 0.0
H1748 H 0.91163 0.44185 0.47876 0.0
H1749 H 0.05981 0.61483 0.51303 0.0
H1750 H 0.00751 0.60002 0.52602 0.0
H1751 H 0.05675 0.55832 0.52472 0.0
H1752 H 0.88949 0.52243 0.55561 0.0
H1753 H 0.01023 0.42473 0.55333 0.0
H1754 H 0.88119 0.54811 0.51124 0.0
H1755 H 0.91958 0.59365 0.52028 0.0
H1756 H 0.86785 0.57278 0.53246 0.0
H1757 H 0.02748 0.4285 0.50812 0.0
H1758 H 0.05843 0.41632 0.52838 0.0
H1759 H 0.06684 0.4731 0.51722 0.0
C1760 C 0.9625 0.02339 0.05129 0.0
C1761 C -0.00037 0.99216 0.05664 0.0
C1762 C 0.94826 0.02603 0.03373 0.0
C1763 C 0.97106 0.99606 0.02122 0.0
C1764 C 0.00889 0.96473 0.02651 0.0
C1765 C 0.02303 0.96348 0.04414 0.0
C1766 C 0.90839 0.06059 0.0286 0.0
C1767 C 0.03364 0.93173 0.01362 0.0
C1768 C 0.89719 0.9702 0.98037 0.0
C1769 C 0.91816 0.00171 0.96824 0.0
C1770 C 0.91508 0.96687 0.99749 0.0
C1771 C 0.9542 0.99666 1.00272 0.0
C1772 C 0.97562 0.02849 0.99047 0.0
C1773 C 0.95746 0.03047 0.97335 0.0
C1774 C 0.89165 0.93196 1.01005 0.0
C1775 C 0.01672 0.06153 0.99559 0.0
H1776 H 0.94452 0.04596 0.06085 0.0
H1777 H 0.05162 0.93911 0.04819 0.0
H1778 H 0.92101 0.0848 0.018 0.0
H1779 H 0.87693 0.04006 0.02351 0.0
H1780 H 0.89608 0.08317 0.03972 0.0
H1781 H 0.06304 0.9102 0.01974 0.0
H1782 H 0.00678 0.90652 1.00787 0.0
H1783 H 0.04916 0.95317 1.00276 0.0
H1784 H 0.86674 0.94799 0.97645 0.0
H1785 H 0.97298 0.0558 0.96414 0.0
H1786 H 0.87445 0.95223 0.02088 0.0
H1787 H 0.91942 0.90792 0.01589 0.0
H1788 H 0.86364 0.90923 1.00365 0.0
H1789 H 0.00427 0.08712 1.00579 0.0
H1790 H 0.03073 0.08267 0.98436 0.0
H1791 H 0.0469 0.04024 1.00126 0.0
C1792 C 0.45952 0.91835 0.48249 0.0
C1793 C 0.47811 0.94092 0.46756 0.0
C1794 C 0.46837 0.93714 0.49921 0.0
C1795 C 0.49662 0.97956 0.50107 0.0
C1796 C 0.51512 0.0028 0.48602 0.0
C1797 C 0.50617 0.98284 0.46947 0.0
C1798 C 0.44844 0.9109 0.51491 0.0
C1799 C 0.54541 0.04806 0.48743 0.0
C1800 C 0.48929 0.04565 0.5446 0.0
C1801 C 0.53082 0.02854 0.55315 0.0
C1802 C 0.47819 0.03089 0.5275 0.0
C1803 C 0.50907 -0.00214 0.51882 0.0
C1804 C 0.55132 0.98099 0.52731 0.0
C1805 C 0.56178 0.99669 0.54431 0.0
C1806 C 0.43312 0.05012 0.5188 0.0
C1807 C 0.58502 0.94545 0.51858 0.0
H1808 H 0.43824 0.88564 0.48109 0.0
H1809 H 0.52242 -0.00067 0.45808 0.0
H1810 H 0.47868 0.89799 0.52322 0.0
H1811 H 0.42633 0.9359 0.52293 0.0
H1812 H 0.42575 0.87936 0.51122 0.0
H1813 H 0.55375 0.06391 0.47446 0.0
H1814 H 0.52637 0.0756 0.4954 0.0
H1815 H 0.57999 0.03967 0.49413 0.0
H1816 H 0.46521 0.07035 0.55131 0.0
H1817 H 0.59389 0.98314 0.55079 0.0
H1818 H 0.40791 0.0199 0.51598 0.0
H1819 H 0.44251 0.06715 0.50615 0.0
H1820 H 0.41402 0.07716 0.52701 0.0
H1821 H 0.56529 0.91148 0.51563 0.0
H1822 H 0.61689 0.93657 0.52682 0.0
H1823 H 0.59805 0.96035 0.50601 0.0
loop_
_geom_bond_atom_site_label_1
_geom_bond_atom_site_label_2
_geom_bond_distance
_geom_bond_site_symmetry_2
_ccdc_geom_bond_type
Co0 O3 1.970 . S
Co0 N17 1.989 . S
Co0 O25 1.967 . S
Co0 O32 1.920 . S
Co1 O4 1.966 . S
Co1 N10 2.022 . S
Co1 N18 1.993 . S
Co1 O26 1.941 . S
C2 O3 1.258 . S
C2 O4 1.263 . S
O3 Co0 1.970 . S
O3 C2 1.258 . S
O4 Co1 1.966 . S
O4 C2 1.263 . S
C5 O6 1.235 . S
C5 O32 1.289 . S
O6 C5 1.235 . S
C7 C9 1.400 . S
C7 N10 1.351 . S
C7 C12 1.501 . S
C8 C9 1.387 . S
C8 N11 1.341 . S
C9 C7 1.400 . S
C9 C8 1.387 . S
N10 Co1 2.022 . S
N10 C7 1.351 . S
N10 N11 1.365 . S
N11 C8 1.341 . S
N11 N10 1.365 . S
N11 H31 0.862 . S
C12 C7 1.501 . S
C12 H13 0.961 . S
C12 H14 0.961 . S
C12 H15 0.960 . S
H13 C12 0.961 . S
H14 C12 0.961 . S
H15 C12 0.960 . S
C16 N17 1.342 1_565 S
C16 C20 1.401 . S
C16 C21 1.499 . S
N17 Co0 1.989 . S
N17 C16 1.342 1_545 S
N17 N18 1.388 . S
N18 Co1 1.993 . S
N18 N17 1.388 . S
N18 C19 1.346 1_545 S
C19 N18 1.346 1_565 S
C19 C20 1.396 . S
C19 C29 1.510 . S
C20 C16 1.401 . S
C20 C19 1.396 . S
C21 C16 1.499 . S
C21 H22 0.959 . S
C21 H23 0.960 . S
C21 H24 0.961 . S
H22 C21 0.959 . S
H23 C21 0.960 . S
H24 C21 0.961 . S
O25 Co0 1.967 . S
O25 C33 1.258 . S
O26 Co1 1.941 . S
O26 C33 1.266 . S
H27 C29 0.959 . S
H28 C29 0.961 . S
C29 C19 1.510 . S
C29 H27 0.959 . S
C29 H28 0.961 . S
C29 H30 0.960 . S
H30 C29 0.960 . S
H31 N11 0.862 . S
O32 Co0 1.920 . S
O32 C5 1.289 . S
C33 O25 1.258 . S
C33 O26 1.266 . S
Co34 O37 1.970 . S
Co34 N51 1.989 . S
Co34 O59 1.967 . S
Co34 O66 1.920 . S
Co35 O38 1.966 . S
Co35 N44 2.022 . S
Co35 N52 1.993 . S
Co35 O60 1.941 . S
C36 O37 1.258 . S
C36 O38 1.263 . S
O37 Co34 1.970 . S
O37 C36 1.258 . S
O38 Co35 1.966 . S
O38 C36 1.263 . S
C39 O40 1.235 . S
C39 O66 1.289 . S
O40 C39 1.235 . S
C41 C43 1.400 . S
C41 N44 1.351 . S
C41 C46 1.501 . S
C42 C43 1.387 . S
C42 N45 1.341 . S
C43 C41 1.400 . S
C43 C42 1.387 . S
N44 Co35 2.022 . S
N44 C41 1.351 . S
N44 N45 1.365 . S
N45 C42 1.341 . S
N45 N44 1.365 . S
N45 H65 0.862 . S
C46 C41 1.501 . S
C46 H47 0.961 . S
C46 H48 0.961 . S
C46 H49 0.960 . S
H47 C46 0.961 . S
H48 C46 0.961 . S
H49 C46 0.960 . S
C50 N51 1.342 . S
C50 C54 1.401 . S
C50 C55 1.499 . S
N51 Co34 1.989 . S
N51 C50 1.342 . S
N51 N52 1.388 . S
N52 Co35 1.993 . S
N52 N51 1.388 . S
N52 C53 1.346 . S
C53 N52 1.346 . S
C53 C54 1.396 . S
C53 C63 1.510 . S
C54 C50 1.401 . S
C54 C53 1.396 . S
C55 C50 1.499 . S
C55 H56 0.959 . S
C55 H57 0.960 . S
C55 H58 0.961 . S
H56 C55 0.959 . S
H57 C55 0.960 . S
H58 C55 0.961 . S
O59 Co34 1.967 . S
O59 C67 1.258 . S
O60 Co35 1.941 . S
O60 C67 1.266 . S
H61 C63 0.959 . S
H62 C63 0.961 . S
C63 C53 1.510 . S
C63 H61 0.959 . S
C63 H62 0.961 . S
C63 H64 0.960 . S
H64 C63 0.960 . S
H65 N45 0.862 . S
O66 Co34 1.920 . S
O66 C39 1.289 . S
C67 O59 1.258 . S
C67 O60 1.266 . S
Co68 O71 1.970 1_655 S
Co68 N85 1.989 . S
Co68 O93 1.967 . S
Co68 O100 1.920 . S
Co69 O72 1.966 . S
Co69 N78 2.022 . S
Co69 N86 1.993 . S
Co69 O94 1.941 . S
C70 O71 1.258 . S
C70 O72 1.263 1_455 S
O71 Co68 1.970 1_455 S
O71 C70 1.258 . S
O72 Co69 1.966 . S
O72 C70 1.263 1_655 S
C73 O74 1.235 1_655 S
C73 O100 1.289 . S
O74 C73 1.235 1_455 S
C75 C77 1.400 . S
C75 N78 1.351 . S
C75 C80 1.501 1_655 S
C76 C77 1.387 . S
C76 N79 1.341 . S
C77 C75 1.400 . S
C77 C76 1.387 . S
N78 Co69 2.022 . S
N78 C75 1.351 . S
N78 N79 1.365 . S
N79 C76 1.341 . S
N79 N78 1.365 . S
N79 H99 0.862 . S
C80 C75 1.501 1_455 S
C80 H81 0.961 . S
C80 H82 0.961 . S
C80 H83 0.960 . S
H81 C80 0.961 . S
H82 C80 0.961 . S
H83 C80 0.960 . S
C84 N85 1.342 . S
C84 C88 1.401 . S
C84 C89 1.499 . S
N85 Co68 1.989 . S
N85 C84 1.342 . S
N85 N86 1.388 . S
N86 Co69 1.993 . S
N86 N85 1.388 . S
N86 C87 1.346 . S
C87 N86 1.346 . S
C87 C88 1.396 . S
C87 C97 1.510 . S
C88 C84 1.401 . S
C88 C87 1.396 . S
C89 C84 1.499 . S
C89 H90 0.959 . S
C89 H91 0.960 1_655 S
C89 H92 0.961 . S
H90 C89 0.959 . S
H91 C89 0.960 1_455 S
H92 C89 0.961 . S
O93 Co68 1.967 . S
O93 C101 1.258 . S
O94 Co69 1.941 . S
O94 C101 1.266 . S
H95 C97 0.959 . S
H96 C97 0.961 1_455 S
C97 C87 1.510 . S
C97 H95 0.959 . S
C97 H96 0.961 1_655 S
C97 H98 0.960 . S
H98 C97 0.960 . S
H99 N79 0.862 . S
O100 Co68 1.920 . S
O100 C73 1.289 . S
C101 O93 1.258 . S
C101 O94 1.266 . S
Co102 O105 1.970 1_565 S
Co102 N119 1.989 . S
Co102 O127 1.967 . S
Co102 O134 1.920 . S
Co103 O106 1.966 . S
Co103 N112 2.022 . S
Co103 N120 1.993 . S
Co103 O128 1.941 . S
C104 O105 1.258 . S
C104 O106 1.263 1_545 S
O105 Co102 1.970 1_545 S
O105 C104 1.258 . S
O106 Co103 1.966 . S
O106 C104 1.263 1_565 S
C107 O108 1.235 1_565 S
C107 O134 1.289 . S
O108 C107 1.235 1_545 S
C109 C111 1.400 . S
C109 N112 1.351 . S
C109 C114 1.501 1_565 S
C110 C111 1.387 . S
C110 N113 1.341 . S
C111 C109 1.400 . S
C111 C110 1.387 . S
N112 Co103 2.022 . S
N112 C109 1.351 . S
N112 N113 1.365 . S
N113 C110 1.341 . S
N113 N112 1.365 . S
N113 H133 0.862 . S
C114 C109 1.501 1_545 S
C114 H115 0.961 . S
C114 H116 0.961 . S
C114 H117 0.960 . S
H115 C114 0.961 . S
H116 C114 0.961 . S
H117 C114 0.960 . S
C118 N119 1.342 1_655 S
C118 C122 1.401 . S
C118 C123 1.499 . S
N119 Co102 1.989 . S
N119 C118 1.342 1_455 S
N119 N120 1.388 . S
N120 Co103 1.993 . S
N120 N119 1.388 . S
N120 C121 1.346 1_455 S
C121 N120 1.346 1_655 S
C121 C122 1.396 . S
C121 C131 1.510 . S
C122 C118 1.401 . S
C122 C121 1.396 . S
C123 C118 1.499 . S
C123 H124 0.959 . S
C123 H125 0.960 1_565 S
C123 H126 0.961 . S
H124 C123 0.959 . S
H125 C123 0.960 1_545 S
H126 C123 0.961 . S
O127 Co102 1.967 . S
O127 C135 1.258 . S
O128 Co103 1.941 . S
O128 C135 1.266 . S
H129 C131 0.959 . S
H130 C131 0.961 1_545 S
C131 C121 1.510 . S
C131 H129 0.959 . S
C131 H130 0.961 1_565 S
C131 H132 0.960 . S
H132 C131 0.960 . S
H133 N113 0.862 . S
O134 Co102 1.920 . S
O134 C107 1.289 . S
C135 O127 1.258 . S
C135 O128 1.266 . S
Co136 O139 1.970 . S
Co136 N153 1.989 . S
Co136 O161 1.967 . S
Co136 O168 1.920 . S
Co137 O140 1.966 . S
Co137 N146 2.022 . S
Co137 N154 1.993 . S
Co137 O162 1.941 . S
C138 O139 1.258 . S
C138 O140 1.263 . S
O139 Co136 1.970 . S
O139 C138 1.258 . S
O140 Co137 1.966 . S
O140 C138 1.263 . S
C141 O142 1.235 . S
C141 O168 1.289 . S
O142 C141 1.235 . S
C143 C145 1.400 . S
C143 N146 1.351 . S
C143 C148 1.501 . S
C144 C145 1.387 . S
C144 N147 1.341 . S
C145 C143 1.400 . S
C145 C144 1.387 . S
N146 Co137 2.022 . S
N146 C143 1.351 . S
N146 N147 1.365 . S
N147 C144 1.341 . S
N147 N146 1.365 . S
N147 H167 0.862 . S
C148 C143 1.501 . S
C148 H149 0.961 . S
C148 H150 0.961 . S
C148 H151 0.960 . S
H149 C148 0.961 . S
H150 C148 0.961 . S
H151 C148 0.960 . S
C152 N153 1.342 . S
C152 C156 1.401 . S
C152 C157 1.499 . S
N153 Co136 1.989 . S
N153 C152 1.342 . S
N153 N154 1.388 . S
N154 Co137 1.993 . S
N154 N153 1.388 . S
N154 C155 1.346 . S
C155 N154 1.346 . S
C155 C156 1.396 . S
C155 C165 1.510 . S
C156 C152 1.401 . S
C156 C155 1.396 . S
C157 C152 1.499 . S
C157 H158 0.959 . S
C157 H159 0.960 . S
C157 H160 0.961 . S
H158 C157 0.959 . S
H159 C157 0.960 . S
H160 C157 0.961 . S
O161 Co136 1.967 . S
O161 C169 1.258 . S
O162 Co137 1.941 . S
O162 C169 1.266 . S
H163 C165 0.959 . S
H164 C165 0.961 . S
C165 C155 1.510 . S
C165 H163 0.959 . S
C165 H164 0.961 . S
C165 H166 0.960 . S
H166 C165 0.960 . S
H167 N147 0.862 . S
O168 Co136 1.920 . S
O168 C141 1.289 . S
C169 O161 1.258 . S
C169 O162 1.266 . S
Co170 O173 1.970 . S
Co170 N187 1.989 . S
Co170 O195 1.967 . S
Co170 O202 1.920 . S
Co171 O174 1.966 . S
Co171 N180 2.022 . S
Co171 N188 1.993 . S
Co171 O196 1.941 . S
C172 O173 1.258 . S
C172 O174 1.263 . S
O173 Co170 1.970 . S
O173 C172 1.258 . S
O174 Co171 1.966 . S
O174 C172 1.263 . S
C175 O176 1.235 . S
C175 O202 1.289 . S
O176 C175 1.235 . S
C177 C179 1.400 . S
C177 N180 1.351 . S
C177 C182 1.501 . S
C178 C179 1.387 . S
C178 N181 1.341 . S
C179 C177 1.400 . S
C179 C178 1.387 . S
N180 Co171 2.022 . S
N180 C177 1.351 . S
N180 N181 1.365 . S
N181 C178 1.341 . S
N181 N180 1.365 . S
N181 H201 0.862 . S
C182 C177 1.501 . S
C182 H183 0.961 . S
C182 H184 0.961 . S
C182 H185 0.960 . S
H183 C182 0.961 . S
H184 C182 0.961 . S
H185 C182 0.960 . S
C186 N187 1.342 1_655 S
C186 C190 1.401 . S
C186 C191 1.499 . S
N187 Co170 1.989 . S
N187 C186 1.342 1_455 S
N187 N188 1.388 . S
N188 Co171 1.993 . S
N188 N187 1.388 . S
N188 C189 1.346 1_455 S
C189 N188 1.346 1_655 S
C189 C190 1.396 . S
C189 C199 1.510 . S
C190 C186 1.401 . S
C190 C189 1.396 . S
C191 C186 1.499 . S
C191 H192 0.959 . S
C191 H193 0.960 . S
C191 H194 0.961 . S
H192 C191 0.959 . S
H193 C191 0.960 . S
H194 C191 0.961 . S
O195 Co170 1.967 . S
O195 C203 1.258 . S
O196 Co171 1.941 . S
O196 C203 1.266 . S
H197 C199 0.959 . S
H198 C199 0.961 . S
C199 C189 1.510 . S
C199 H197 0.959 . S
C199 H198 0.961 . S
C199 H200 0.960 . S
H200 C199 0.960 . S
H201 N181 0.862 . S
O202 Co170 1.920 . S
O202 C175 1.289 . S
C203 O195 1.258 . S
C203 O196 1.266 . S
Co204 O207 1.970 1_655 S
Co204 N221 1.989 . S
Co204 O229 1.967 . S
Co204 O236 1.920 . S
Co205 O208 1.966 . S
Co205 N214 2.022 . S
Co205 N222 1.993 . S
Co205 O230 1.941 . S
C206 O207 1.258 . S
C206 O208 1.263 1_455 S
O207 Co204 1.970 1_455 S
O207 C206 1.258 . S
O208 Co205 1.966 . S
O208 C206 1.263 1_655 S
C209 O210 1.235 1_655 S
C209 O236 1.289 . S
O210 C209 1.235 1_455 S
C211 C213 1.400 . S
C211 N214 1.351 . S
C211 C216 1.501 1_655 S
C212 C213 1.387 . S
C212 N215 1.341 . S
C213 C211 1.400 . S
C213 C212 1.387 . S
N214 Co205 2.022 . S
N214 C211 1.351 . S
N214 N215 1.365 . S
N215 C212 1.341 . S
N215 N214 1.365 . S
N215 H235 0.862 . S
C216 C211 1.501 1_455 S
C216 H217 0.961 . S
C216 H218 0.961 . S
C216 H219 0.960 . S
H217 C216 0.961 . S
H218 C216 0.961 . S
H219 C216 0.960 . S
C220 N221 1.342 1_565 S
C220 C224 1.401 . S
C220 C225 1.499 . S
N221 Co204 1.989 . S
N221 C220 1.342 1_545 S
N221 N222 1.388 . S
N222 Co205 1.993 . S
N222 N221 1.388 . S
N222 C223 1.346 1_545 S
C223 N222 1.346 1_565 S
C223 C224 1.396 . S
C223 C233 1.510 . S
C224 C220 1.401 . S
C224 C223 1.396 . S
C225 C220 1.499 . S
C225 H226 0.959 . S
C225 H227 0.960 1_655 S
C225 H228 0.961 . S
H226 C225 0.959 . S
H227 C225 0.960 1_455 S
H228 C225 0.961 . S
O229 Co204 1.967 . S
O229 C237 1.258 . S
O230 Co205 1.941 . S
O230 C237 1.266 . S
H231 C233 0.959 . S
H232 C233 0.961 1_455 S
C233 C223 1.510 . S
C233 H231 0.959 . S
C233 H232 0.961 1_655 S
C233 H234 0.960 . S
H234 C233 0.960 . S
H235 N215 0.862 . S
O236 Co204 1.920 . S
O236 C209 1.289 . S
C237 O229 1.258 . S
C237 O230 1.266 . S
Co238 O241 1.970 1_565 S
Co238 N255 1.989 . S
Co238 O263 1.967 . S
Co238 O270 1.920 . S
Co239 O242 1.966 . S
Co239 N248 2.022 . S
Co239 N256 1.993 . S
Co239 O264 1.941 . S
C240 O241 1.258 . S
C240 O242 1.263 1_545 S
O241 Co238 1.970 1_545 S
O241 C240 1.258 . S
O242 Co239 1.966 . S
O242 C240 1.263 1_565 S
C243 O244 1.235 1_565 S
C243 O270 1.289 . S
O244 C243 1.235 1_545 S
C245 C247 1.400 . S
C245 N248 1.351 . S
C245 C250 1.501 1_565 S
C246 C247 1.387 . S
C246 N249 1.341 . S
C247 C245 1.400 . S
C247 C246 1.387 . S
N248 Co239 2.022 . S
N248 C245 1.351 . S
N248 N249 1.365 . S
N249 C246 1.341 . S
N249 N248 1.365 . S
N249 H269 0.862 . S
C250 C245 1.501 1_545 S
C250 H251 0.961 . S
C250 H252 0.961 . S
C250 H253 0.960 . S
H251 C250 0.961 . S
H252 C250 0.961 . S
H253 C250 0.960 . S
C254 N255 1.342 . S
C254 C258 1.401 . S
C254 C259 1.499 . S
N255 Co238 1.989 . S
N255 C254 1.342 . S
N255 N256 1.388 . S
N256 Co239 1.993 . S
N256 N255 1.388 . S
N256 C257 1.346 . S
C257 N256 1.346 . S
C257 C258 1.396 . S
C257 C267 1.510 . S
C258 C254 1.401 . S
C258 C257 1.396 . S
C259 C254 1.499 . S
C259 H260 0.959 . S
C259 H261 0.960 1_565 S
C259 H262 0.961 . S
H260 C259 0.959 . S
H261 C259 0.960 1_545 S
H262 C259 0.961 . S
O263 Co238 1.967 . S
O263 C271 1.258 . S
O264 Co239 1.941 . S
O264 C271 1.266 . S
H265 C267 0.959 . S
H266 C267 0.961 1_545 S
C267 C257 1.510 . S
C267 H265 0.959 . S
C267 H266 0.961 1_565 S
C267 H268 0.960 . S
H268 C267 0.960 . S
H269 N249 0.862 . S
O270 Co238 1.920 . S
O270 C243 1.289 . S
C271 O263 1.258 . S
C271 O264 1.266 . S
Co272 O275 1.970 . S
Co272 N289 1.989 . S
Co272 O297 1.967 . S
Co272 O304 1.920 . S
Co273 O276 1.966 . S
Co273 N282 2.022 . S
Co273 N290 1.993 . S
Co273 O298 1.941 . S
C274 O275 1.258 . S
C274 O276 1.263 . S
O275 Co272 1.970 . S
O275 C274 1.258 . S
O276 Co273 1.966 . S
O276 C274 1.263 . S
C277 O278 1.235 . S
C277 O304 1.289 . S
O278 C277 1.235 . S
C279 C281 1.400 . S
C279 N282 1.351 . S
C279 C284 1.501 . S
C280 C281 1.387 . S
C280 N283 1.341 . S
C281 C279 1.400 . S
C281 C280 1.387 . S
N282 Co273 2.022 . S
N282 C279 1.351 . S
N282 N283 1.365 . S
N283 C280 1.341 . S
N283 N282 1.365 . S
N283 H303 0.862 . S
C284 C279 1.501 . S
C284 H285 0.961 . S
C284 H286 0.961 . S
C284 H287 0.960 . S
H285 C284 0.961 . S
H286 C284 0.961 . S
H287 C284 0.960 . S
C288 N289 1.342 1_545 S
C288 C292 1.401 . S
C288 C293 1.499 . S
N289 Co272 1.989 . S
N289 C288 1.342 1_565 S
N289 N290 1.388 . S
N290 Co273 1.993 . S
N290 N289 1.388 . S
N290 C291 1.346 1_565 S
C291 N290 1.346 1_545 S
C291 C292 1.396 . S
C291 C301 1.510 . S
C292 C288 1.401 . S
C292 C291 1.396 . S
C293 C288 1.499 . S
C293 H294 0.959 . S
C293 H295 0.960 . S
C293 H296 0.961 . S
H294 C293 0.959 . S
H295 C293 0.960 . S
H296 C293 0.961 . S
O297 Co272 1.967 . S
O297 C305 1.258 . S
O298 Co273 1.941 . S
O298 C305 1.266 . S
H299 C301 0.959 . S
H300 C301 0.961 . S
C301 C291 1.510 . S
C301 H299 0.959 . S
C301 H300 0.961 . S
C301 H302 0.960 . S
H302 C301 0.960 . S
H303 N283 0.862 . S
O304 Co272 1.920 . S
O304 C277 1.289 . S
C305 O297 1.258 . S
C305 O298 1.266 . S
Co306 O309 1.970 . S
Co306 N323 1.989 . S
Co306 O331 1.967 . S
Co306 O338 1.920 . S
Co307 O310 1.966 . S
Co307 N316 2.022 . S
Co307 N324 1.993 . S
Co307 O332 1.941 . S
C308 O309 1.258 . S
C308 O310 1.263 . S
O309 Co306 1.970 . S
O309 C308 1.258 . S
O310 Co307 1.966 . S
O310 C308 1.263 . S
C311 O312 1.235 . S
C311 O338 1.289 . S
O312 C311 1.235 . S
C313 C315 1.400 . S
C313 N316 1.351 . S
C313 C318 1.501 . S
C314 C315 1.387 . S
C314 N317 1.341 . S
C315 C313 1.400 . S
C315 C314 1.387 . S
N316 Co307 2.022 . S
N316 C313 1.351 . S
N316 N317 1.365 . S
N317 C314 1.341 . S
N317 N316 1.365 . S
N317 H337 0.862 . S
C318 C313 1.501 . S
C318 H319 0.961 . S
C318 H320 0.961 . S
C318 H321 0.960 . S
H319 C318 0.961 . S
H320 C318 0.961 . S
H321 C318 0.960 . S
C322 N323 1.342 . S
C322 C326 1.401 . S
C322 C327 1.499 . S
N323 Co306 1.989 . S
N323 C322 1.342 . S
N323 N324 1.388 . S
N324 Co307 1.993 . S
N324 N323 1.388 . S
N324 C325 1.346 . S
C325 N324 1.346 . S
C325 C326 1.396 . S
C325 C335 1.510 . S
C326 C322 1.401 . S
C326 C325 1.396 . S
C327 C322 1.499 . S
C327 H328 0.959 . S
C327 H329 0.960 . S
C327 H330 0.961 . S
H328 C327 0.959 . S
H329 C327 0.960 . S
H330 C327 0.961 . S
O331 Co306 1.967 . S
O331 C339 1.258 . S
O332 Co307 1.941 . S
O332 C339 1.266 . S
H333 C335 0.959 . S
H334 C335 0.961 . S
C335 C325 1.510 . S
C335 H333 0.959 . S
C335 H334 0.961 . S
C335 H336 0.960 . S
H336 C335 0.960 . S
H337 N317 0.862 . S
O338 Co306 1.920 . S
O338 C311 1.289 . S
C339 O331 1.258 . S
C339 O332 1.266 . S
Co340 O343 1.970 . S
Co340 N357 1.989 . S
Co340 O365 1.967 . S
Co340 O372 1.920 . S
Co341 O344 1.966 . S
Co341 N350 2.022 . S
Co341 N358 1.993 . S
Co341 O366 1.941 . S
C342 O343 1.258 . S
C342 O344 1.263 . S
O343 Co340 1.970 . S
O343 C342 1.258 . S
O344 Co341 1.966 . S
O344 C342 1.263 . S
C345 O346 1.235 1_455 S
C345 O372 1.289 . S
O346 C345 1.235 1_655 S
C347 C349 1.400 . S
C347 N350 1.351 . S
C347 C352 1.501 1_455 S
C348 C349 1.387 . S
C348 N351 1.341 . S
C349 C347 1.400 . S
C349 C348 1.387 . S
N350 Co341 2.022 . S
N350 C347 1.351 . S
N350 N351 1.365 . S
N351 C348 1.341 . S
N351 N350 1.365 . S
N351 H371 0.862 . S
C352 C347 1.501 1_655 S
C352 H353 0.961 . S
C352 H354 0.961 . S
C352 H355 0.960 . S
H353 C352 0.961 . S
H354 C352 0.961 . S
H355 C352 0.960 . S
C356 N357 1.342 . S
C356 C360 1.401 . S
C356 C361 1.499 . S
N357 Co340 1.989 . S
N357 C356 1.342 . S
N357 N358 1.388 . S
N358 Co341 1.993 . S
N358 N357 1.388 . S
N358 C359 1.346 . S
C359 N358 1.346 . S
C359 C360 1.396 . S
C359 C369 1.510 . S
C360 C356 1.401 . S
C360 C359 1.396 . S
C361 C356 1.499 . S
C361 H362 0.959 . S
C361 H363 0.960 . S
C361 H364 0.961 . S
H362 C361 0.959 . S
H363 C361 0.960 . S
H364 C361 0.961 . S
O365 Co340 1.967 . S
O365 C373 1.258 . S
O366 Co341 1.941 . S
O366 C373 1.266 . S
H367 C369 0.959 . S
H368 C369 0.961 . S
C369 C359 1.510 . S
C369 H367 0.959 . S
C369 H368 0.961 . S
C369 H370 0.960 . S
H370 C369 0.960 . S
H371 N351 0.862 . S
O372 Co340 1.920 . S
O372 C345 1.289 . S
C373 O365 1.258 . S
C373 O366 1.266 . S
Co374 O377 1.970 . S
Co374 N391 1.989 . S
Co374 O399 1.967 . S
Co374 O406 1.920 . S
Co375 O378 1.966 . S
Co375 N384 2.022 . S
Co375 N392 1.993 . S
Co375 O400 1.941 . S
C376 O377 1.258 . S
C376 O378 1.263 . S
O377 Co374 1.970 . S
O377 C376 1.258 . S
O378 Co375 1.966 . S
O378 C376 1.263 . S
C379 O380 1.235 1_545 S
C379 O406 1.289 . S
O380 C379 1.235 1_565 S
C381 C383 1.400 . S
C381 N384 1.351 . S
C381 C386 1.501 1_545 S
C382 C383 1.387 . S
C382 N385 1.341 . S
C383 C381 1.400 . S
C383 C382 1.387 . S
N384 Co375 2.022 . S
N384 C381 1.351 . S
N384 N385 1.365 . S
N385 C382 1.341 . S
N385 N384 1.365 . S
N385 H405 0.862 . S
C386 C381 1.501 1_565 S
C386 H387 0.961 . S
C386 H388 0.961 . S
C386 H389 0.960 . S
H387 C386 0.961 . S
H388 C386 0.961 . S
H389 C386 0.960 . S
C390 N391 1.342 1_455 S
C390 C394 1.401 . S
C390 C395 1.499 . S
N391 Co374 1.989 . S
N391 C390 1.342 1_655 S
N391 N392 1.388 . S
N392 Co375 1.993 . S
N392 N391 1.388 . S
N392 C393 1.346 1_655 S
C393 N392 1.346 1_455 S
C393 C394 1.396 . S
C393 C403 1.510 . S
C394 C390 1.401 . S
C394 C393 1.396 . S
C395 C390 1.499 . S
C395 H396 0.959 . S
C395 H397 0.960 . S
C395 H398 0.961 . S
H396 C395 0.959 . S
H397 C395 0.960 . S
H398 C395 0.961 . S
O399 Co374 1.967 . S
O399 C407 1.258 . S
O400 Co375 1.941 . S
O400 C407 1.266 . S
H401 C403 0.959 . S
H402 C403 0.961 . S
C403 C393 1.510 . S
C403 H401 0.959 . S
C403 H402 0.961 . S
C403 H404 0.960 . S
H404 C403 0.960 . S
H405 N385 0.862 . S
O406 Co374 1.920 . S
O406 C379 1.289 . S
C407 O399 1.258 . S
C407 O400 1.266 . S
Co408 O411 1.970 . S
Co408 N425 1.989 . S
Co408 O433 1.967 . S
Co408 O440 1.920 . S
Co409 O412 1.966 . S
Co409 N418 2.022 . S
Co409 N426 1.993 . S
Co409 O434 1.941 . S
C410 O411 1.258 . S
C410 O412 1.263 . S
O411 Co408 1.970 . S
O411 C410 1.258 . S
O412 Co409 1.966 . S
O412 C410 1.263 . S
C413 O414 1.235 . S
C413 O440 1.289 . S
O414 C413 1.235 . S
C415 C417 1.400 . S
C415 N418 1.351 . S
C415 C420 1.501 . S
C416 C417 1.387 . S
C416 N419 1.341 . S
C417 C415 1.400 . S
C417 C416 1.387 . S
N418 Co409 2.022 . S
N418 C415 1.351 . S
N418 N419 1.365 . S
N419 C416 1.341 . S
N419 N418 1.365 . S
N419 H439 0.862 . S
C420 C415 1.501 . S
C420 H421 0.961 . S
C420 H422 0.961 . S
C420 H423 0.960 . S
H421 C420 0.961 . S
H422 C420 0.961 . S
H423 C420 0.960 . S
C424 N425 1.342 . S
C424 C428 1.401 . S
C424 C429 1.499 . S
N425 Co408 1.989 . S
N425 C424 1.342 . S
N425 N426 1.388 . S
N426 Co409 1.993 . S
N426 N425 1.388 . S
N426 C427 1.346 . S
C427 N426 1.346 . S
C427 C428 1.396 . S
C427 C437 1.510 . S
C428 C424 1.401 . S
C428 C427 1.396 . S
C429 C424 1.499 . S
C429 H430 0.959 . S
C429 H431 0.960 . S
C429 H432 0.961 . S
H430 C429 0.959 . S
H431 C429 0.960 . S
H432 C429 0.961 . S
O433 Co408 1.967 . S
O433 C441 1.258 . S
O434 Co409 1.941 . S
O434 C441 1.266 . S
H435 C437 0.959 . S
H436 C437 0.961 . S
C437 C427 1.510 . S
C437 H435 0.959 . S
C437 H436 0.961 . S
C437 H438 0.960 . S
H438 C437 0.960 . S
H439 N419 0.862 . S
O440 Co408 1.920 . S
O440 C413 1.289 . S
C441 O433 1.258 . S
C441 O434 1.266 . S
Co442 O445 1.970 . S
Co442 N459 1.989 . S
Co442 O467 1.967 . S
Co442 O474 1.920 . S
Co443 O446 1.966 . S
Co443 N452 2.022 . S
Co443 N460 1.993 . S
Co443 O468 1.941 . S
C444 O445 1.258 . S
C444 O446 1.263 . S
O445 Co442 1.970 . S
O445 C444 1.258 . S
O446 Co443 1.966 . S
O446 C444 1.263 . S
C447 O448 1.235 . S
C447 O474 1.289 . S
O448 C447 1.235 . S
C449 C451 1.400 . S
C449 N452 1.351 . S
C449 C454 1.501 . S
C450 C451 1.387 . S
C450 N453 1.341 . S
C451 C449 1.400 . S
C451 C450 1.387 . S
N452 Co443 2.022 . S
N452 C449 1.351 . S
N452 N453 1.365 . S
N453 C450 1.341 . S
N453 N452 1.365 . S
N453 H473 0.862 . S
C454 C449 1.501 . S
C454 H455 0.961 . S
C454 H456 0.961 . S
C454 H457 0.960 . S
H455 C454 0.961 . S
H456 C454 0.961 . S
H457 C454 0.960 . S
C458 N459 1.342 1_455 S
C458 C462 1.401 . S
C458 C463 1.499 . S
N459 Co442 1.989 . S
N459 C458 1.342 1_655 S
N459 N460 1.388 . S
N460 Co443 1.993 . S
N460 N459 1.388 . S
N460 C461 1.346 1_655 S
C461 N460 1.346 1_455 S
C461 C462 1.396 . S
C461 C471 1.510 . S
C462 C458 1.401 . S
C462 C461 1.396 . S
C463 C458 1.499 . S
C463 H464 0.959 . S
C463 H465 0.960 . S
C463 H466 0.961 . S
H464 C463 0.959 . S
H465 C463 0.960 . S
H466 C463 0.961 . S
O467 Co442 1.967 . S
O467 C475 1.258 . S
O468 Co443 1.941 . S
O468 C475 1.266 . S
H469 C471 0.959 . S
H470 C471 0.961 . S
C471 C461 1.510 . S
C471 H469 0.959 . S
C471 H470 0.961 . S
C471 H472 0.960 . S
H472 C471 0.960 . S
H473 N453 0.862 . S
O474 Co442 1.920 . S
O474 C447 1.289 . S
C475 O467 1.258 . S
C475 O468 1.266 . S
Co476 O479 1.970 . S
Co476 N493 1.989 . S
Co476 O501 1.967 . S
Co476 O508 1.920 . S
Co477 O480 1.966 . S
Co477 N486 2.022 . S
Co477 N494 1.993 . S
Co477 O502 1.941 . S
C478 O479 1.258 . S
C478 O480 1.263 . S
O479 Co476 1.970 . S
O479 C478 1.258 . S
O480 Co477 1.966 . S
O480 C478 1.263 . S
C481 O482 1.235 1_455 S
C481 O508 1.289 . S
O482 C481 1.235 1_655 S
C483 C485 1.400 . S
C483 N486 1.351 . S
C483 C488 1.501 1_455 S
C484 C485 1.387 . S
C484 N487 1.341 . S
C485 C483 1.400 . S
C485 C484 1.387 . S
N486 Co477 2.022 . S
N486 C483 1.351 . S
N486 N487 1.365 . S
N487 C484 1.341 . S
N487 N486 1.365 . S
N487 H507 0.862 . S
C488 C483 1.501 1_655 S
C488 H489 0.961 . S
C488 H490 0.961 . S
C488 H491 0.960 . S
H489 C488 0.961 . S
H490 C488 0.961 . S
H491 C488 0.960 . S
C492 N493 1.342 1_545 S
C492 C496 1.401 . S
C492 C497 1.499 . S
N493 Co476 1.989 . S
N493 C492 1.342 1_565 S
N493 N494 1.388 . S
N494 Co477 1.993 . S
N494 N493 1.388 . S
N494 C495 1.346 1_565 S
C495 N494 1.346 1_545 S
C495 C496 1.396 . S
C495 C505 1.510 . S
C496 C492 1.401 . S
C496 C495 1.396 . S
C497 C492 1.499 . S
C497 H498 0.959 . S
C497 H499 0.960 . S
C497 H500 0.961 . S
H498 C497 0.959 . S
H499 C497 0.960 . S
H500 C497 0.961 . S
O501 Co476 1.967 . S
O501 C509 1.258 . S
O502 Co477 1.941 . S
O502 C509 1.266 . S
H503 C505 0.959 . S
H504 C505 0.961 . S
C505 C495 1.510 . S
C505 H503 0.959 . S
C505 H504 0.961 . S
C505 H506 0.960 . S
H506 C505 0.960 . S
H507 N487 0.862 . S
O508 Co476 1.920 . S
O508 C481 1.289 . S
C509 O501 1.258 . S
C509 O502 1.266 . S
Co510 O513 1.970 . S
Co510 N527 1.989 . S
Co510 O535 1.967 . S
Co510 O542 1.920 . S
Co511 O514 1.966 . S
Co511 N520 2.022 . S
Co511 N528 1.993 . S
Co511 O536 1.941 . S
C512 O513 1.258 . S
C512 O514 1.263 . S
O513 Co510 1.970 . S
O513 C512 1.258 . S
O514 Co511 1.966 . S
O514 C512 1.263 . S
C515 O516 1.235 1_545 S
C515 O542 1.289 . S
O516 C515 1.235 1_565 S
C517 C519 1.400 . S
C517 N520 1.351 . S
C517 C522 1.501 1_545 S
C518 C519 1.387 . S
C518 N521 1.341 . S
C519 C517 1.400 . S
C519 C518 1.387 . S
N520 Co511 2.022 . S
N520 C517 1.351 . S
N520 N521 1.365 . S
N521 C518 1.341 . S
N521 N520 1.365 . S
N521 H541 0.862 . S
C522 C517 1.501 1_565 S
C522 H523 0.961 . S
C522 H524 0.961 . S
C522 H525 0.960 . S
H523 C522 0.961 . S
H524 C522 0.961 . S
H525 C522 0.960 . S
C526 N527 1.342 . S
C526 C530 1.401 . S
C526 C531 1.499 . S
N527 Co510 1.989 . S
N527 C526 1.342 . S
N527 N528 1.388 . S
N528 Co511 1.993 . S
N528 N527 1.388 . S
N528 C529 1.346 . S
C529 N528 1.346 . S
C529 C530 1.396 . S
C529 C539 1.510 . S
C530 C526 1.401 . S
C530 C529 1.396 . S
C531 C526 1.499 . S
C531 H532 0.959 . S
C531 H533 0.960 . S
C531 H534 0.961 . S
H532 C531 0.959 . S
H533 C531 0.960 . S
H534 C531 0.961 . S
O535 Co510 1.967 . S
O535 C543 1.258 . S
O536 Co511 1.941 . S
O536 C543 1.266 . S
H537 C539 0.959 . S
H538 C539 0.961 . S
C539 C529 1.510 . S
C539 H537 0.959 . S
C539 H538 0.961 . S
C539 H540 0.960 . S
H540 C539 0.960 . S
H541 N521 0.862 . S
O542 Co510 1.920 . S
O542 C515 1.289 . S
C543 O535 1.258 . S
C543 O536 1.266 . S
C544 C545 1.391 . S
C544 C546 1.394 . S
C544 H560 0.931 . S
C545 C544 1.391 . S
C545 C549 1.376 . S
C546 C544 1.394 . S
C546 C547 1.369 . S
C546 C550 1.531 . S
C547 C546 1.369 . S
C547 C548 1.410 . S
C547 C555 1.503 . S
C548 C547 1.410 . S
C548 C549 1.392 . S
C548 C551 1.511 . S
C549 C545 1.376 . S
C549 C548 1.392 . S
C549 H561 0.929 . S
C550 C546 1.531 . S
C550 H562 0.960 . S
C550 H563 0.962 . S
C550 H564 0.960 . S
C551 C548 1.511 . S
C551 H565 0.961 . S
C551 H566 0.954 1_545 S
C551 H567 0.961 . S
C552 C553 1.370 . S
C552 C554 1.363 . S
C552 H568 0.931 . S
C553 C552 1.370 . S
C553 C557 1.408 1_565 S
C554 C552 1.363 . S
C554 C555 1.370 1_565 S
C554 C558 1.524 . S
C555 C547 1.503 . S
C555 C554 1.370 1_545 S
C555 C556 1.403 . S
C556 C555 1.403 . S
C556 C557 1.404 . S
C556 C559 1.539 . S
C557 C553 1.408 1_545 S
C557 C556 1.404 . S
C557 H569 0.930 . S
C558 C554 1.524 . S
C558 H570 0.956 . S
C558 H571 0.961 . S
C558 H572 0.961 . S
C559 C556 1.539 . S
C559 H573 0.958 . S
C559 H574 0.961 . S
C559 H575 0.960 . S
H560 C544 0.931 . S
H561 C549 0.929 . S
H562 C550 0.960 . S
H563 C550 0.962 . S
H564 C550 0.960 . S
H565 C551 0.961 . S
H566 C551 0.954 1_565 S
H567 C551 0.961 . S
H568 C552 0.931 . S
H569 C557 0.930 . S
H570 C558 0.956 . S
H571 C558 0.961 . S
H572 C558 0.961 . S
H573 C559 0.958 . S
H574 C559 0.961 . S
H575 C559 0.960 . S
C576 C577 1.391 . S
C576 C578 1.394 . S
C576 H592 0.931 . S
C577 C576 1.391 . S
C577 C581 1.376 . S
C578 C576 1.394 . S
C578 C579 1.369 . S
C578 C582 1.531 . S
C579 C578 1.369 . S
C579 C580 1.410 . S
C579 C587 1.503 . S
C580 C579 1.410 . S
C580 C581 1.392 . S
C580 C583 1.511 . S
C581 C577 1.376 . S
C581 C580 1.392 . S
C581 H593 0.929 . S
C582 C578 1.531 . S
C582 H594 0.960 . S
C582 H595 0.962 . S
C582 H596 0.960 . S
C583 C580 1.511 . S
C583 H597 0.961 . S
C583 H598 0.961 . S
C583 H599 0.961 . S
C584 C585 1.370 . S
C584 C586 1.363 . S
C584 H600 0.931 . S
C585 C584 1.370 . S
C585 C589 1.408 . S
C586 C584 1.363 . S
C586 C587 1.370 . S
C586 C590 1.524 . S
C587 C579 1.503 . S
C587 C586 1.370 . S
C587 C588 1.403 . S
C588 C587 1.403 . S
C588 C589 1.404 . S
C588 C591 1.539 . S
C589 C585 1.408 . S
C589 C588 1.404 . S
C589 H601 0.930 . S
C590 C586 1.524 . S
C590 H602 0.956 . S
C590 H603 0.961 . S
C590 H604 0.961 . S
C591 C588 1.539 . S
C591 H605 0.958 . S
C591 H606 0.961 . S
C591 H607 0.960 . S
H592 C576 0.931 . S
H593 C581 0.929 . S
H594 C582 0.960 . S
H595 C582 0.962 . S
H596 C582 0.960 . S
H597 C583 0.961 . S
H598 C583 0.961 . S
H599 C583 0.961 . S
H600 C584 0.931 . S
H601 C589 0.930 . S
H602 C590 0.956 . S
H603 C590 0.961 . S
H604 C590 0.961 . S
H605 C591 0.958 . S
H606 C591 0.961 . S
H607 C591 0.960 . S
C608 C609 1.391 1_455 S
C608 C610 1.394 . S
C608 H624 0.931 . S
C609 C608 1.391 1_655 S
C609 C613 1.376 . S
C610 C608 1.394 . S
C610 C611 1.369 . S
C610 C614 1.531 . S
C611 C610 1.369 . S
C611 C612 1.410 1_455 S
C611 C619 1.503 . S
C612 C611 1.410 1_655 S
C612 C613 1.392 . S
C612 C615 1.511 . S
C613 C609 1.376 . S
C613 C612 1.392 . S
C613 H625 0.929 . S
C614 C610 1.531 . S
C614 H626 0.960 . S
C614 H627 0.962 . S
C614 H628 0.960 . S
C615 C612 1.511 . S
C615 H629 0.961 . S
C615 H630 0.961 . S
C615 H631 0.961 . S
C616 C617 1.370 . S
C616 C618 1.363 . S
C616 H632 0.931 . S
C617 C616 1.370 . S
C617 C621 1.408 . S
C618 C616 1.363 . S
C618 C619 1.370 . S
C618 C622 1.524 . S
C619 C611 1.503 . S
C619 C618 1.370 . S
C619 C620 1.403 1_455 S
C620 C619 1.403 1_655 S
C620 C621 1.404 1_655 S
C620 C623 1.539 . S
C621 C617 1.408 . S
C621 C620 1.404 1_455 S
C621 H633 0.930 1_455 S
C622 C618 1.524 . S
C622 H634 0.956 . S
C622 H635 0.961 . S
C622 H636 0.961 . S
C623 C620 1.539 . S
C623 H637 0.958 . S
C623 H638 0.961 . S
C623 H639 0.960 . S
H624 C608 0.931 . S
H625 C613 0.929 . S
H626 C614 0.960 . S
H627 C614 0.962 . S
H628 C614 0.960 . S
H629 C615 0.961 . S
H630 C615 0.961 . S
H631 C615 0.961 . S
H632 C616 0.931 . S
H633 C621 0.930 1_655 S
H634 C622 0.956 . S
H635 C622 0.961 . S
H636 C622 0.961 . S
H637 C623 0.958 . S
H638 C623 0.961 . S
H639 C623 0.960 . S
C640 C641 1.391 1_545 S
C640 C642 1.394 1_455 S
C640 H656 0.931 1_455 S
C641 C640 1.391 1_565 S
C641 C645 1.376 . S
C642 C640 1.394 1_655 S
C642 C643 1.369 1_655 S
C642 C646 1.531 . S
C643 C642 1.369 1_455 S
C643 C644 1.410 1_545 S
C643 C651 1.503 . S
C644 C643 1.410 1_565 S
C644 C645 1.392 . S
C644 C647 1.511 . S
C645 C641 1.376 . S
C645 C644 1.392 . S
C645 H657 0.929 . S
C646 C642 1.531 . S
C646 H658 0.960 . S
C646 H659 0.962 . S
C646 H660 0.960 . S
C647 C644 1.511 . S
C647 H661 0.961 . S
C647 H662 0.961 . S
C647 H663 0.961 . S
C648 C649 1.370 1_455 S
C648 C650 1.363 . S
C648 H664 0.931 . S
C649 C648 1.370 1_655 S
C649 C653 1.423 . S
C650 C648 1.363 . S
C650 C651 1.370 . S
C650 C654 1.524 . S
C651 C643 1.503 . S
C651 C650 1.370 . S
C651 C652 1.403 1_445 S
C652 C651 1.403 1_665 S
C652 C653 1.400 1_565 S
C652 C655 1.539 . S
C653 C649 1.423 . S
C653 C652 1.400 1_545 S
C653 H665 0.920 1_545 S
C654 C650 1.524 . S
C654 H666 0.956 . S
C654 H667 0.961 . S
C654 H668 0.961 . S
C655 C652 1.539 . S
C655 H669 0.958 . S
C655 H670 0.961 . S
C655 H671 0.960 . S
H656 C640 0.931 1_655 S
H657 C645 0.929 . S
H658 C646 0.960 . S
H659 C646 0.962 . S
H660 C646 0.960 . S
H661 C647 0.961 . S
H662 C647 0.961 . S
H663 C647 0.961 . S
H664 C648 0.931 . S
H665 C653 0.920 1_565 S
H666 C654 0.956 . S
H667 C654 0.961 . S
H668 C654 0.961 . S
H669 C655 0.958 . S
H670 C655 0.961 . S
H671 C655 0.960 . S
C672 C673 1.391 . S
C672 C674 1.394 . S
C672 H688 0.931 . S
C673 C672 1.391 . S
C673 C677 1.376 . S
C674 C672 1.394 . S
C674 C675 1.369 . S
C674 C678 1.531 . S
C675 C674 1.369 . S
C675 C676 1.410 1_565 S
C675 C683 1.503 . S
C676 C675 1.410 1_545 S
C676 C677 1.392 1_545 S
C676 C679 1.511 . S
C677 C673 1.376 . S
C677 C676 1.392 1_565 S
C677 H689 0.929 1_565 S
C678 C674 1.531 . S
C678 H690 0.960 . S
C678 H691 0.962 . S
C678 H692 0.960 . S
C679 C676 1.511 . S
C679 H693 0.961 . S
C679 H694 0.961 . S
C679 H695 0.961 . S
C680 C681 1.370 1_565 S
C680 C682 1.363 . S
C680 H696 0.931 . S
C681 C680 1.370 1_545 S
C681 C685 1.408 . S
C682 C680 1.363 . S
C682 C683 1.370 . S
C682 C686 1.524 . S
C683 C675 1.503 . S
C683 C682 1.370 . S
C683 C684 1.403 1_565 S
C684 C683 1.403 1_545 S
C684 C685 1.404 . S
C684 C687 1.539 . S
C685 C681 1.408 . S
C685 C684 1.404 . S
C685 H697 0.930 . S
C686 C682 1.524 . S
C686 H698 0.956 . S
C686 H699 0.961 . S
C686 H700 0.961 . S
C687 C684 1.539 . S
C687 H701 0.958 . S
C687 H702 0.961 . S
C687 H703 0.960 . S
H688 C672 0.931 . S
H689 C677 0.929 1_545 S
H690 C678 0.960 . S
H691 C678 0.962 . S
H692 C678 0.960 . S
H693 C679 0.961 . S
H694 C679 0.961 . S
H695 C679 0.961 . S
H696 C680 0.931 . S
H697 C685 0.930 . S
H698 C686 0.956 . S
H699 C686 0.961 . S
H700 C686 0.961 . S
H701 C687 0.958 . S
H702 C687 0.961 . S
H703 C687 0.960 . S
C704 C705 1.391 . S
C704 C706 1.394 . S
C704 H720 0.931 . S
C705 C704 1.391 . S
C705 C709 1.376 . S
C706 C704 1.394 . S
C706 C707 1.369 . S
C706 C710 1.531 . S
C707 C706 1.369 . S
C707 C708 1.410 . S
C707 C715 1.503 . S
C708 C707 1.410 . S
C708 C709 1.392 . S
C708 C711 1.511 . S
C709 C705 1.376 . S
C709 C708 1.392 . S
C709 H721 0.929 . S
C710 C706 1.531 . S
C710 H722 0.960 . S
C710 H723 0.962 . S
C710 H724 0.960 . S
C711 C708 1.511 . S
C711 H725 0.961 . S
C711 H726 0.961 . S
C711 H727 0.961 . S
C712 C713 1.370 . S
C712 C714 1.363 . S
C712 H728 0.931 . S
C713 C712 1.370 . S
C713 C717 1.408 . S
C714 C712 1.363 . S
C714 C715 1.370 . S
C714 C718 1.524 . S
C715 C707 1.503 . S
C715 C714 1.370 . S
C715 C716 1.403 . S
C716 C715 1.403 . S
C716 C717 1.404 . S
C716 C719 1.539 . S
C717 C713 1.408 . S
C717 C716 1.404 . S
C717 H729 0.930 . S
C718 C714 1.524 . S
C718 H730 0.956 . S
C718 H731 0.961 . S
C718 H732 0.961 . S
C719 C716 1.539 . S
C719 H733 0.958 . S
C719 H734 0.961 . S
C719 H735 0.960 . S
H720 C704 0.931 . S
H721 C709 0.929 . S
H722 C710 0.960 . S
H723 C710 0.962 . S
H724 C710 0.960 . S
H725 C711 0.961 . S
H726 C711 0.961 . S
H727 C711 0.961 . S
H728 C712 0.931 . S
H729 C717 0.930 . S
H730 C718 0.956 . S
H731 C718 0.961 . S
H732 C718 0.961 . S
H733 C719 0.958 . S
H734 C719 0.961 . S
H735 C719 0.960 . S
C736 C737 1.391 1_655 S
C736 C738 1.394 . S
C736 H752 0.931 . S
C737 C736 1.391 1_455 S
C737 C741 1.376 . S
C738 C736 1.394 . S
C738 C739 1.369 . S
C738 C742 1.531 . S
C739 C738 1.369 . S
C739 C740 1.410 1_655 S
C739 C747 1.503 . S
C740 C739 1.410 1_455 S
C740 C741 1.392 . S
C740 C743 1.511 . S
C741 C737 1.376 . S
C741 C740 1.392 . S
C741 H753 0.929 . S
C742 C738 1.531 . S
C742 H754 0.960 . S
C742 H755 0.962 . S
C742 H756 0.960 . S
C743 C740 1.511 . S
C743 H757 0.961 . S
C743 H758 0.961 . S
C743 H759 0.961 . S
C744 C745 1.370 . S
C744 C746 1.363 . S
C744 H760 0.931 . S
C745 C744 1.370 . S
C745 C749 1.408 . S
C746 C744 1.363 . S
C746 C747 1.370 . S
C746 C750 1.524 . S
C747 C739 1.503 . S
C747 C746 1.370 . S
C747 C748 1.403 . S
C748 C747 1.403 . S
C748 C749 1.404 . S
C748 C751 1.539 1_655 S
C749 C745 1.408 . S
C749 C748 1.404 . S
C749 H761 0.930 . S
C750 C746 1.524 . S
C750 H762 0.956 . S
C750 H763 0.961 . S
C750 H764 0.961 . S
C751 C748 1.539 1_455 S
C751 H765 0.958 . S
C751 H766 0.961 . S
C751 H767 0.960 . S
H752 C736 0.931 . S
H753 C741 0.929 . S
H754 C742 0.960 . S
H755 C742 0.962 . S
H756 C742 0.960 . S
H757 C743 0.961 . S
H758 C743 0.961 . S
H759 C743 0.961 . S
H760 C744 0.931 . S
H761 C749 0.930 . S
H762 C750 0.956 . S
H763 C750 0.961 . S
H764 C750 0.961 . S
H765 C751 0.958 . S
H766 C751 0.961 . S
H767 C751 0.960 . S
C768 C769 1.391 1_655 S
C768 C770 1.394 . S
C768 H784 0.931 . S
C769 C768 1.391 1_455 S
C769 C773 1.376 . S
C770 C768 1.394 . S
C770 C771 1.369 . S
C770 C774 1.531 . S
C771 C770 1.369 . S
C771 C772 1.410 1_655 S
C771 C779 1.503 . S
C772 C771 1.410 1_455 S
C772 C773 1.392 . S
C772 C775 1.511 1_565 S
C773 C769 1.376 . S
C773 C772 1.392 . S
C773 H785 0.929 . S
C774 C770 1.531 . S
C774 H786 0.960 . S
C774 H787 0.962 . S
C774 H788 0.960 . S
C775 C772 1.511 1_545 S
C775 H789 0.961 . S
C775 H790 0.961 . S
C775 H791 0.961 1_545 S
C776 C777 1.370 . S
C776 C778 1.363 . S
C776 H792 0.931 . S
C777 C776 1.370 . S
C777 C781 1.408 1_545 S
C778 C776 1.363 . S
C778 C779 1.370 1_545 S
C778 C782 1.524 . S
C779 C771 1.503 . S
C779 C778 1.370 1_565 S
C779 C780 1.403 . S
C780 C779 1.403 . S
C780 C781 1.404 . S
C780 C783 1.539 1_655 S
C781 C777 1.408 1_565 S
C781 C780 1.404 . S
C781 H793 0.930 . S
C782 C778 1.524 . S
C782 H794 0.956 . S
C782 H795 0.961 . S
C782 H796 0.961 . S
C783 C780 1.539 1_455 S
C783 H797 0.965 . S
C783 H798 0.961 . S
C783 H799 0.960 . S
H784 C768 0.931 . S
H785 C773 0.929 . S
H786 C774 0.960 . S
H787 C774 0.962 . S
H788 C774 0.960 . S
H789 C775 0.961 . S
H790 C775 0.961 . S
H791 C775 0.961 1_565 S
H792 C776 0.931 . S
H793 C781 0.930 . S
H794 C782 0.956 . S
H795 C782 0.961 . S
H796 C782 0.961 . S
H797 C783 0.965 . S
H798 C783 0.961 . S
H799 C783 0.960 . S
C800 C801 1.391 . S
C800 C802 1.394 . S
C800 H816 0.931 . S
C801 C800 1.391 . S
C801 C805 1.376 . S
C802 C800 1.394 . S
C802 C803 1.369 . S
C802 C806 1.531 . S
C803 C802 1.369 . S
C803 C804 1.410 . S
C803 C811 1.503 . S
C804 C803 1.410 . S
C804 C805 1.392 . S
C804 C807 1.511 . S
C805 C801 1.376 . S
C805 C804 1.392 . S
C805 H817 0.929 . S
C806 C802 1.531 . S
C806 H818 0.960 . S
C806 H819 0.962 . S
C806 H820 0.960 . S
C807 C804 1.511 . S
C807 H821 0.961 . S
C807 H822 0.961 . S
C807 H823 0.961 . S
C808 C809 1.370 . S
C808 C810 1.363 . S
C808 H824 0.931 . S
C809 C808 1.370 . S
C809 C813 1.408 . S
C810 C808 1.363 . S
C810 C811 1.370 . S
C810 C814 1.524 . S
C811 C803 1.503 . S
C811 C810 1.370 . S
C811 C812 1.403 . S
C812 C811 1.403 . S
C812 C813 1.404 . S
C812 C815 1.539 . S
C813 C809 1.408 . S
C813 C812 1.404 . S
C813 H825 0.930 . S
C814 C810 1.524 . S
C814 H826 0.956 . S
C814 H827 0.961 . S
C814 H828 0.961 . S
C815 C812 1.539 . S
C815 H829 0.958 . S
C815 H830 0.961 . S
C815 H831 0.960 . S
H816 C800 0.931 . S
H817 C805 0.929 . S
H818 C806 0.960 . S
H819 C806 0.962 . S
H820 C806 0.960 . S
H821 C807 0.961 . S
H822 C807 0.961 . S
H823 C807 0.961 . S
H824 C808 0.931 . S
H825 C813 0.930 . S
H826 C814 0.956 . S
H827 C814 0.961 . S
H828 C814 0.961 . S
H829 C815 0.958 . S
H830 C815 0.961 . S
H831 C815 0.960 . S
C832 C833 1.391 . S
C832 C834 1.394 . S
C832 H848 0.931 . S
C833 C832 1.391 . S
C833 C837 1.376 . S
C834 C832 1.394 . S
C834 C835 1.369 . S
C834 C838 1.531 . S
C835 C834 1.369 . S
C835 C836 1.410 . S
C835 C843 1.503 . S
C836 C835 1.410 . S
C836 C837 1.392 . S
C836 C839 1.511 . S
C837 C833 1.376 . S
C837 C836 1.392 . S
C837 H849 0.929 . S
C838 C834 1.531 . S
C838 H850 0.960 . S
C838 H851 0.962 . S
C838 H852 0.960 . S
C839 C836 1.511 . S
C839 H853 0.961 . S
C839 H854 0.961 . S
C839 H855 0.961 . S
C840 C841 1.370 . S
C840 C842 1.363 . S
C840 H856 0.931 . S
C841 C840 1.370 . S
C841 C845 1.408 . S
C842 C840 1.363 . S
C842 C843 1.370 . S
C842 C846 1.524 . S
C843 C835 1.503 . S
C843 C842 1.370 . S
C843 C844 1.403 . S
C844 C843 1.403 . S
C844 C845 1.404 . S
C844 C847 1.539 . S
C845 C841 1.408 . S
C845 C844 1.404 . S
C845 H857 0.930 . S
C846 C842 1.524 . S
C846 H858 0.956 . S
C846 H859 0.961 . S
C846 H860 0.961 . S
C847 C844 1.539 . S
C847 H861 0.958 . S
C847 H862 0.961 . S
C847 H863 0.960 . S
H848 C832 0.931 . S
H849 C837 0.929 . S
H850 C838 0.960 . S
H851 C838 0.962 . S
H852 C838 0.960 . S
H853 C839 0.961 . S
H854 C839 0.961 . S
H855 C839 0.961 . S
H856 C840 0.931 . S
H857 C845 0.930 . S
H858 C846 0.956 . S
H859 C846 0.961 . S
H860 C846 0.961 . S
H861 C847 0.958 . S
H862 C847 0.961 . S
H863 C847 0.960 . S
C864 C865 1.391 . S
C864 C866 1.394 . S
C864 H880 0.931 . S
C865 C864 1.391 . S
C865 C869 1.376 . S
C866 C864 1.394 . S
C866 C867 1.369 . S
C866 C870 1.531 . S
C867 C866 1.369 . S
C867 C868 1.410 . S
C867 C875 1.503 . S
C868 C867 1.410 . S
C868 C869 1.392 . S
C868 C871 1.511 . S
C869 C865 1.376 . S
C869 C868 1.392 . S
C869 H881 0.929 . S
C870 C866 1.531 . S
C870 H882 0.960 . S
C870 H883 0.962 . S
C870 H884 0.960 . S
C871 C868 1.511 . S
C871 H885 0.961 . S
C871 H886 0.961 . S
C871 H887 0.961 . S
C872 C873 1.370 . S
C872 C874 1.363 . S
C872 H888 0.931 . S
C873 C872 1.370 . S
C873 C877 1.408 . S
C874 C872 1.363 . S
C874 C875 1.370 . S
C874 C878 1.524 . S
C875 C867 1.503 . S
C875 C874 1.370 . S
C875 C876 1.403 . S
C876 C875 1.403 . S
C876 C877 1.404 . S
C876 C879 1.539 . S
C877 C873 1.408 . S
C877 C876 1.404 . S
C877 H889 0.930 . S
C878 C874 1.524 . S
C878 H890 0.956 . S
C878 H891 0.961 . S
C878 H892 0.961 . S
C879 C876 1.539 . S
C879 H893 0.958 . S
C879 H894 0.961 . S
C879 H895 0.960 . S
H880 C864 0.931 . S
H881 C869 0.929 . S
H882 C870 0.960 . S
H883 C870 0.962 . S
H884 C870 0.960 . S
H885 C871 0.961 . S
H886 C871 0.961 . S
H887 C871 0.961 . S
H888 C872 0.931 . S
H889 C877 0.930 . S
H890 C878 0.956 . S
H891 C878 0.961 . S
H892 C878 0.961 . S
H893 C879 0.958 . S
H894 C879 0.961 . S
H895 C879 0.960 . S
C896 C897 1.391 . S
C896 C898 1.394 . S
C896 H912 0.931 . S
C897 C896 1.391 . S
C897 C901 1.376 . S
C898 C896 1.394 . S
C898 C899 1.369 . S
C898 C902 1.531 . S
C899 C898 1.369 . S
C899 C900 1.410 . S
C899 C907 1.503 . S
C900 C899 1.410 . S
C900 C901 1.392 . S
C900 C903 1.511 . S
C901 C897 1.376 . S
C901 C900 1.392 . S
C901 H913 0.929 . S
C902 C898 1.531 . S
C902 H914 0.960 . S
C902 H915 0.962 . S
C902 H916 0.960 . S
C903 C900 1.511 . S
C903 H917 0.961 . S
C903 H918 0.961 . S
C903 H919 0.961 . S
C904 C905 1.370 . S
C904 C906 1.363 . S
C904 H920 0.931 . S
C905 C904 1.370 . S
C905 C909 1.408 . S
C906 C904 1.363 . S
C906 C907 1.370 . S
C906 C910 1.524 . S
C907 C899 1.503 . S
C907 C906 1.370 . S
C907 C908 1.403 . S
C908 C907 1.403 . S
C908 C909 1.404 . S
C908 C911 1.539 . S
C909 C905 1.408 . S
C909 C908 1.404 . S
C909 H921 0.930 . S
C910 C906 1.524 . S
C910 H922 0.956 . S
C910 H923 0.961 . S
C910 H924 0.961 . S
C911 C908 1.539 . S
C911 H925 0.958 . S
C911 H926 0.961 . S
C911 H927 0.960 . S
H912 C896 0.931 . S
H913 C901 0.929 . S
H914 C902 0.960 . S
H915 C902 0.962 . S
H916 C902 0.960 . S
H917 C903 0.961 . S
H918 C903 0.961 . S
H919 C903 0.961 . S
H920 C904 0.931 . S
H921 C909 0.930 . S
H922 C910 0.956 . S
H923 C910 0.961 . S
H924 C910 0.961 . S
H925 C911 0.958 . S
H926 C911 0.961 . S
H927 C911 0.960 . S
C928 C929 1.391 . S
C928 C930 1.394 . S
C928 H944 0.931 . S
C929 C928 1.391 . S
C929 C933 1.376 . S
C930 C928 1.394 . S
C930 C931 1.369 . S
C930 C934 1.531 . S
C931 C930 1.369 . S
C931 C932 1.410 . S
C931 C939 1.503 . S
C932 C931 1.410 . S
C932 C933 1.392 . S
C932 C935 1.511 . S
C933 C929 1.376 . S
C933 C932 1.392 . S
C933 H945 0.929 . S
C934 C930 1.531 . S
C934 H946 0.960 . S
C934 H947 0.962 . S
C934 H948 0.960 . S
C935 C932 1.511 . S
C935 H949 0.961 . S
C935 H950 0.961 . S
C935 H951 0.961 . S
C936 C937 1.370 . S
C936 C938 1.363 . S
C936 H952 0.931 . S
C937 C936 1.370 . S
C937 C941 1.408 . S
C938 C936 1.363 . S
C938 C939 1.370 . S
C938 C942 1.524 . S
C939 C931 1.503 . S
C939 C938 1.370 . S
C939 C940 1.403 . S
C940 C939 1.403 . S
C940 C941 1.404 . S
C940 C943 1.539 . S
C941 C937 1.408 . S
C941 C940 1.404 . S
C941 H953 0.930 . S
C942 C938 1.524 . S
C942 H954 0.956 . S
C942 H955 0.961 . S
C942 H956 0.961 . S
C943 C940 1.539 . S
C943 H957 0.958 . S
C943 H958 0.961 . S
C943 H959 0.960 . S
H944 C928 0.931 . S
H945 C933 0.929 . S
H946 C934 0.960 . S
H947 C934 0.962 . S
H948 C934 0.960 . S
H949 C935 0.961 . S
H950 C935 0.961 . S
H951 C935 0.961 . S
H952 C936 0.931 . S
H953 C941 0.930 . S
H954 C942 0.956 . S
H955 C942 0.961 . S
H956 C942 0.961 . S
H957 C943 0.958 . S
H958 C943 0.961 . S
H959 C943 0.960 . S
C960 C961 1.391 . S
C960 C962 1.394 . S
C960 H976 0.931 . S
C961 C960 1.391 . S
C961 C965 1.376 . S
C962 C960 1.394 . S
C962 C963 1.369 . S
C962 C966 1.531 . S
C963 C962 1.369 . S
C963 C964 1.410 . S
C963 C971 1.503 . S
C964 C963 1.410 . S
C964 C965 1.392 . S
C964 C967 1.511 . S
C965 C961 1.376 . S
C965 C964 1.392 . S
C965 H977 0.929 . S
C966 C962 1.531 . S
C966 H978 0.960 . S
C966 H979 0.962 . S
C966 H980 0.960 . S
C967 C964 1.511 . S
C967 H981 0.961 . S
C967 H982 0.961 . S
C967 H983 0.961 . S
C968 C969 1.370 . S
C968 C970 1.363 . S
C968 H984 0.931 . S
C969 C968 1.370 . S
C969 C973 1.408 . S
C970 C968 1.363 . S
C970 C971 1.370 . S
C970 C974 1.524 . S
C971 C963 1.503 . S
C971 C970 1.370 . S
C971 C972 1.403 . S
C972 C971 1.403 . S
C972 C973 1.404 . S
C972 C975 1.539 . S
C973 C969 1.408 . S
C973 C972 1.404 . S
C973 H985 0.930 . S
C974 C970 1.524 . S
C974 H986 0.956 . S
C974 H987 0.961 . S
C974 H988 0.961 . S
C975 C972 1.539 . S
C975 H989 0.958 . S
C975 H990 0.961 . S
C975 H991 0.960 . S
H976 C960 0.931 . S
H977 C965 0.929 . S
H978 C966 0.960 . S
H979 C966 0.962 . S
H980 C966 0.960 . S
H981 C967 0.961 . S
H982 C967 0.961 . S
H983 C967 0.961 . S
H984 C968 0.931 . S
H985 C973 0.930 . S
H986 C974 0.956 . S
H987 C974 0.961 . S
H988 C974 0.961 . S
H989 C975 0.958 . S
H990 C975 0.961 . S
H991 C975 0.960 . S
C992 C993 1.391 . S
C992 C994 1.394 . S
C992 H1008 0.931 . S
C993 C992 1.391 . S
C993 C997 1.376 . S
C994 C992 1.394 . S
C994 C995 1.369 . S
C994 C998 1.531 . S
C995 C994 1.369 . S
C995 C996 1.410 . S
C995 C1003 1.503 . S
C996 C995 1.410 . S
C996 C997 1.392 . S
C996 C999 1.511 . S
C997 C993 1.376 . S
C997 C996 1.392 . S
C997 H1009 0.929 . S
C998 C994 1.531 . S
C998 H1010 0.960 . S
C998 H1011 0.962 . S
C998 H1012 0.960 . S
C999 C996 1.511 . S
C999 H1013 0.961 . S
C999 H1014 0.961 . S
C999 H1015 0.961 . S
C1000 C1001 1.370 . S
C1000 C1002 1.363 . S
C1000 H1016 0.931 . S
C1001 C1000 1.370 . S
C1001 C1005 1.408 . S
C1002 C1000 1.363 . S
C1002 C1003 1.370 . S
C1002 C1006 1.524 . S
C1003 C995 1.503 . S
C1003 C1002 1.370 . S
C1003 C1004 1.403 . S
C1004 C1003 1.403 . S
C1004 C1005 1.404 . S
C1004 C1007 1.539 . S
C1005 C1001 1.408 . S
C1005 C1004 1.404 . S
C1005 H1017 0.930 . S
C1006 C1002 1.524 . S
C1006 H1018 0.956 . S
C1006 H1019 0.961 . S
C1006 H1020 0.961 . S
C1007 C1004 1.539 . S
C1007 H1021 0.958 . S
C1007 H1022 0.961 . S
C1007 H1023 0.960 . S
H1008 C992 0.931 . S
H1009 C997 0.929 . S
H1010 C998 0.960 . S
H1011 C998 0.962 . S
H1012 C998 0.960 . S
H1013 C999 0.961 . S
H1014 C999 0.961 . S
H1015 C999 0.961 . S
H1016 C1000 0.931 . S
H1017 C1005 0.930 . S
H1018 C1006 0.956 . S
H1019 C1006 0.961 . S
H1020 C1006 0.961 . S
H1021 C1007 0.958 . S
H1022 C1007 0.961 . S
H1023 C1007 0.960 . S
C1024 C1025 1.391 . S
C1024 C1026 1.394 . S
C1024 H1040 0.931 . S
C1025 C1024 1.391 . S
C1025 C1029 1.376 . S
C1026 C1024 1.394 . S
C1026 C1027 1.369 . S
C1026 C1030 1.531 . S
C1027 C1026 1.369 . S
C1027 C1028 1.410 . S
C1027 C1035 1.503 . S
C1028 C1027 1.410 . S
C1028 C1029 1.392 . S
C1028 C1031 1.511 . S
C1029 C1025 1.376 . S
C1029 C1028 1.392 . S
C1029 H1041 0.929 . S
C1030 C1026 1.531 . S
C1030 H1042 0.960 . S
C1030 H1043 0.962 . S
C1030 H1044 0.960 . S
C1031 C1028 1.511 . S
C1031 H1045 0.961 . S
C1031 H1046 0.961 . S
C1031 H1047 0.961 . S
C1032 C1033 1.370 . S
C1032 C1034 1.363 . S
C1032 H1048 0.931 . S
C1033 C1032 1.370 . S
C1033 C1037 1.408 . S
C1034 C1032 1.363 . S
C1034 C1035 1.370 . S
C1034 C1038 1.524 . S
C1035 C1027 1.503 . S
C1035 C1034 1.370 . S
C1035 C1036 1.403 . S
C1036 C1035 1.403 . S
C1036 C1037 1.404 . S
C1036 C1039 1.539 . S
C1037 C1033 1.408 . S
C1037 C1036 1.404 . S
C1037 H1049 0.930 . S
C1038 C1034 1.524 . S
C1038 H1050 0.956 . S
C1038 H1051 0.961 . S
C1038 H1052 0.961 . S
C1039 C1036 1.539 . S
C1039 H1053 0.958 . S
C1039 H1054 0.961 . S
C1039 H1055 0.960 . S
H1040 C1024 0.931 . S
H1041 C1029 0.929 . S
H1042 C1030 0.960 . S
H1043 C1030 0.962 . S
H1044 C1030 0.960 . S
H1045 C1031 0.961 . S
H1046 C1031 0.961 . S
H1047 C1031 0.961 . S
H1048 C1032 0.931 . S
H1049 C1037 0.930 . S
H1050 C1038 0.956 . S
H1051 C1038 0.961 . S
H1052 C1038 0.961 . S
H1053 C1039 0.958 . S
H1054 C1039 0.961 . S
H1055 C1039 0.960 . S
C1056 C1057 1.391 . S
C1056 C1058 1.394 . S
C1056 H1072 0.931 . S
C1057 C1056 1.391 . S
C1057 C1061 1.376 . S
C1058 C1056 1.394 . S
C1058 C1059 1.369 . S
C1058 C1062 1.531 . S
C1059 C1058 1.369 . S
C1059 C1060 1.410 . S
C1059 C1067 1.503 . S
C1060 C1059 1.410 . S
C1060 C1061 1.392 . S
C1060 C1063 1.511 . S
C1061 C1057 1.376 . S
C1061 C1060 1.392 . S
C1061 H1073 0.929 . S
C1062 C1058 1.531 . S
C1062 H1074 0.960 . S
C1062 H1075 0.962 . S
C1062 H1076 0.960 . S
C1063 C1060 1.511 . S
C1063 H1077 0.961 . S
C1063 H1078 0.961 . S
C1063 H1079 0.961 . S
C1064 C1065 1.370 . S
C1064 C1066 1.363 . S
C1064 H1080 0.931 . S
C1065 C1064 1.370 . S
C1065 C1069 1.408 . S
C1066 C1064 1.363 . S
C1066 C1067 1.370 . S
C1066 C1070 1.524 . S
C1067 C1059 1.503 . S
C1067 C1066 1.370 . S
C1067 C1068 1.403 . S
C1068 C1067 1.403 . S
C1068 C1069 1.404 . S
C1068 C1071 1.539 . S
C1069 C1065 1.408 . S
C1069 C1068 1.404 . S
C1069 H1081 0.930 . S
C1070 C1066 1.524 . S
C1070 H1082 0.956 . S
C1070 H1083 0.961 . S
C1070 H1084 0.961 . S
C1071 C1068 1.539 . S
C1071 H1085 0.958 . S
C1071 H1086 0.961 . S
C1071 H1087 0.960 . S
H1072 C1056 0.931 . S
H1073 C1061 0.929 . S
H1074 C1062 0.960 . S
H1075 C1062 0.962 . S
H1076 C1062 0.960 . S
H1077 C1063 0.961 . S
H1078 C1063 0.961 . S
H1079 C1063 0.961 . S
H1080 C1064 0.931 . S
H1081 C1069 0.930 . S
H1082 C1070 0.956 . S
H1083 C1070 0.961 . S
H1084 C1070 0.961 . S
H1085 C1071 0.958 . S
H1086 C1071 0.961 . S
H1087 C1071 0.960 . S
C1088 C1089 1.391 . S
C1088 C1090 1.394 . S
C1088 H1104 0.931 . S
C1089 C1088 1.391 . S
C1089 C1093 1.376 . S
C1090 C1088 1.394 . S
C1090 C1091 1.369 . S
C1090 C1094 1.531 . S
C1091 C1090 1.369 . S
C1091 C1092 1.410 . S
C1091 C1099 1.503 . S
C1092 C1091 1.410 . S
C1092 C1093 1.392 . S
C1092 C1095 1.511 . S
C1093 C1089 1.376 . S
C1093 C1092 1.392 . S
C1093 H1105 0.929 . S
C1094 C1090 1.531 . S
C1094 H1106 0.960 . S
C1094 H1107 0.962 . S
C1094 H1108 0.960 . S
C1095 C1092 1.511 . S
C1095 H1109 0.961 . S
C1095 H1110 0.961 . S
C1095 H1111 0.961 . S
C1096 C1097 1.370 . S
C1096 C1098 1.363 . S
C1096 H1112 0.931 . S
C1097 C1096 1.370 . S
C1097 C1101 1.408 . S
C1098 C1096 1.363 . S
C1098 C1099 1.370 . S
C1098 C1102 1.524 . S
C1099 C1091 1.503 . S
C1099 C1098 1.370 . S
C1099 C1100 1.403 . S
C1100 C1099 1.403 . S
C1100 C1101 1.404 . S
C1100 C1103 1.539 . S
C1101 C1097 1.408 . S
C1101 C1100 1.404 . S
C1101 H1113 0.930 . S
C1102 C1098 1.524 . S
C1102 H1114 0.956 . S
C1102 H1115 0.961 . S
C1102 H1116 0.961 . S
C1103 C1100 1.539 . S
C1103 H1117 0.958 . S
C1103 H1118 0.961 . S
C1103 H1119 0.960 . S
H1104 C1088 0.931 . S
H1105 C1093 0.929 . S
H1106 C1094 0.960 . S
H1107 C1094 0.962 . S
H1108 C1094 0.960 . S
H1109 C1095 0.961 . S
H1110 C1095 0.961 . S
H1111 C1095 0.961 . S
H1112 C1096 0.931 . S
H1113 C1101 0.930 . S
H1114 C1102 0.956 . S
H1115 C1102 0.961 . S
H1116 C1102 0.961 . S
H1117 C1103 0.958 . S
H1118 C1103 0.961 . S
H1119 C1103 0.960 . S
C1120 C1121 1.391 1_455 S
C1120 C1122 1.394 . S
C1120 H1136 0.931 . S
C1121 C1120 1.391 1_655 S
C1121 C1125 1.376 . S
C1122 C1120 1.394 . S
C1122 C1123 1.369 1_455 S
C1122 C1126 1.531 . S
C1123 C1122 1.369 1_655 S
C1123 C1124 1.410 . S
C1123 C1131 1.503 . S
C1124 C1123 1.410 . S
C1124 C1125 1.392 . S
C1124 C1127 1.511 . S
C1125 C1121 1.376 . S
C1125 C1124 1.392 . S
C1125 H1137 0.929 . S
C1126 C1122 1.531 . S
C1126 H1138 0.960 . S
C1126 H1139 0.962 . S
C1126 H1140 0.960 . S
C1127 C1124 1.511 . S
C1127 H1141 0.961 . S
C1127 H1142 0.961 . S
C1127 H1143 0.961 . S
C1128 C1129 1.370 1_455 S
C1128 C1130 1.363 . S
C1128 H1144 0.931 . S
C1129 C1128 1.370 1_655 S
C1129 C1133 1.409 . S
C1130 C1128 1.363 . S
C1130 C1131 1.370 1_455 S
C1130 C1134 1.524 . S
C1131 C1123 1.503 . S
C1131 C1130 1.370 1_655 S
C1131 C1132 1.403 . S
C1132 C1131 1.403 . S
C1132 C1133 1.404 . S
C1132 C1135 1.539 . S
C1133 C1129 1.409 . S
C1133 C1132 1.404 . S
C1133 H1145 0.930 . S
C1134 C1130 1.524 . S
C1134 H1146 0.956 . S
C1134 H1147 0.961 . S
C1134 H1148 0.961 . S
C1135 C1132 1.539 . S
C1135 H1149 0.958 . S
C1135 H1150 0.961 . S
C1135 H1151 0.960 . S
H1136 C1120 0.931 . S
H1137 C1125 0.929 . S
H1138 C1126 0.960 . S
H1139 C1126 0.962 . S
H1140 C1126 0.960 . S
H1141 C1127 0.961 . S
H1142 C1127 0.961 . S
H1143 C1127 0.961 . S
H1144 C1128 0.931 . S
H1145 C1133 0.930 . S
H1146 C1134 0.956 . S
H1147 C1134 0.961 . S
H1148 C1134 0.961 . S
H1149 C1135 0.958 . S
H1150 C1135 0.961 . S
H1151 C1135 0.960 . S
C1152 C1153 1.400 . S
C1152 C1154 1.394 . S
C1152 H1168 0.931 . S
C1153 C1152 1.400 . S
C1153 C1157 1.368 1_565 S
C1154 C1152 1.394 . S
C1154 C1155 1.369 . S
C1154 C1158 1.531 . S
C1155 C1154 1.369 . S
C1155 C1156 1.410 1_565 S
C1155 C1163 1.503 . S
C1156 C1155 1.410 1_545 S
C1156 C1157 1.392 . S
C1156 C1159 1.511 . S
C1157 C1153 1.368 1_545 S
C1157 C1156 1.392 . S
C1157 H1169 0.929 . S
C1158 C1154 1.531 . S
C1158 H1170 0.960 . S
C1158 H1171 0.962 . S
C1158 H1172 0.960 . S
C1159 C1156 1.511 . S
C1159 H1173 0.961 . S
C1159 H1174 0.961 . S
C1159 H1175 0.961 . S
C1160 C1161 1.370 1_545 S
C1160 C1162 1.363 . S
C1160 H1176 0.931 . S
C1161 C1160 1.370 1_565 S
C1161 C1165 1.408 . S
C1162 C1160 1.363 . S
C1162 C1163 1.370 1_545 S
C1162 C1166 1.524 . S
C1163 C1155 1.503 . S
C1163 C1162 1.370 1_565 S
C1163 C1164 1.403 . S
C1164 C1163 1.403 . S
C1164 C1165 1.404 . S
C1164 C1167 1.539 . S
C1165 C1161 1.408 . S
C1165 C1164 1.404 . S
C1165 H1177 0.930 . S
C1166 C1162 1.524 . S
C1166 H1178 0.956 . S
C1166 H1179 0.961 . S
C1166 H1180 0.961 . S
C1167 C1164 1.539 . S
C1167 H1181 0.958 . S
C1167 H1182 0.961 . S
C1167 H1183 0.960 . S
H1168 C1152 0.931 . S
H1169 C1157 0.929 . S
H1170 C1158 0.960 . S
H1171 C1158 0.962 . S
H1172 C1158 0.960 . S
H1173 C1159 0.961 . S
H1174 C1159 0.961 . S
H1175 C1159 0.961 . S
H1176 C1160 0.931 . S
H1177 C1165 0.930 . S
H1178 C1166 0.956 . S
H1179 C1166 0.961 . S
H1180 C1166 0.961 . S
H1181 C1167 0.958 . S
H1182 C1167 0.961 . S
H1183 C1167 0.960 . S
C1184 C1185 1.391 . S
C1184 C1186 1.394 . S
C1184 H1200 0.931 . S
C1185 C1184 1.391 . S
C1185 C1189 1.376 . S
C1186 C1184 1.394 . S
C1186 C1187 1.369 . S
C1186 C1190 1.531 . S
C1187 C1186 1.369 . S
C1187 C1188 1.410 . S
C1187 C1195 1.503 . S
C1188 C1187 1.410 . S
C1188 C1189 1.392 . S
C1188 C1191 1.511 . S
C1189 C1185 1.376 . S
C1189 C1188 1.392 . S
C1189 H1201 0.929 . S
C1190 C1186 1.531 . S
C1190 H1202 0.960 . S
C1190 H1203 0.962 . S
C1190 H1204 0.960 . S
C1191 C1188 1.511 . S
C1191 H1205 0.961 . S
C1191 H1206 0.961 . S
C1191 H1207 0.961 . S
C1192 C1193 1.370 . S
C1192 C1194 1.363 . S
C1192 H1208 0.931 . S
C1193 C1192 1.370 . S
C1193 C1197 1.408 . S
C1194 C1192 1.363 . S
C1194 C1195 1.370 . S
C1194 C1198 1.524 . S
C1195 C1187 1.503 . S
C1195 C1194 1.370 . S
C1195 C1196 1.403 . S
C1196 C1195 1.403 . S
C1196 C1197 1.404 . S
C1196 C1199 1.539 . S
C1197 C1193 1.408 . S
C1197 C1196 1.404 . S
C1197 H1209 0.930 . S
C1198 C1194 1.524 . S
C1198 H1210 0.956 . S
C1198 H1211 0.961 . S
C1198 H1212 0.961 . S
C1199 C1196 1.539 . S
C1199 H1213 0.958 . S
C1199 H1214 0.961 . S
C1199 H1215 0.960 . S
H1200 C1184 0.931 . S
H1201 C1189 0.929 . S
H1202 C1190 0.960 . S
H1203 C1190 0.962 . S
H1204 C1190 0.960 . S
H1205 C1191 0.961 . S
H1206 C1191 0.961 . S
H1207 C1191 0.961 . S
H1208 C1192 0.931 . S
H1209 C1197 0.930 . S
H1210 C1198 0.956 . S
H1211 C1198 0.961 . S
H1212 C1198 0.961 . S
H1213 C1199 0.958 . S
H1214 C1199 0.961 . S
H1215 C1199 0.960 . S
C1216 C1217 1.391 . S
C1216 C1218 1.394 . S
C1216 H1232 0.931 . S
C1217 C1216 1.391 . S
C1217 C1221 1.376 . S
C1218 C1216 1.394 . S
C1218 C1219 1.369 . S
C1218 C1222 1.531 . S
C1219 C1218 1.369 . S
C1219 C1220 1.410 . S
C1219 C1227 1.503 . S
C1220 C1219 1.410 . S
C1220 C1221 1.392 . S
C1220 C1223 1.511 . S
C1221 C1217 1.376 . S
C1221 C1220 1.392 . S
C1221 H1233 0.929 . S
C1222 C1218 1.531 . S
C1222 H1234 0.960 . S
C1222 H1235 0.962 . S
C1222 H1236 0.960 . S
C1223 C1220 1.511 . S
C1223 H1237 0.961 . S
C1223 H1238 0.961 . S
C1223 H1239 0.961 . S
C1224 C1225 1.370 . S
C1224 C1226 1.363 . S
C1224 H1240 0.931 . S
C1225 C1224 1.370 . S
C1225 C1229 1.408 . S
C1226 C1224 1.363 . S
C1226 C1227 1.370 . S
C1226 C1230 1.524 . S
C1227 C1219 1.503 . S
C1227 C1226 1.370 . S
C1227 C1228 1.403 . S
C1228 C1227 1.403 . S
C1228 C1229 1.404 . S
C1228 C1231 1.539 . S
C1229 C1225 1.408 . S
C1229 C1228 1.404 . S
C1229 H1241 0.930 . S
C1230 C1226 1.524 . S
C1230 H1242 0.956 . S
C1230 H1243 0.961 . S
C1230 H1244 0.961 . S
C1231 C1228 1.539 . S
C1231 H1245 0.958 . S
C1231 H1246 0.961 . S
C1231 H1247 0.960 . S
H1232 C1216 0.931 . S
H1233 C1221 0.929 . S
H1234 C1222 0.960 . S
H1235 C1222 0.962 . S
H1236 C1222 0.960 . S
H1237 C1223 0.961 . S
H1238 C1223 0.961 . S
H1239 C1223 0.961 . S
H1240 C1224 0.931 . S
H1241 C1229 0.930 . S
H1242 C1230 0.956 . S
H1243 C1230 0.961 . S
H1244 C1230 0.961 . S
H1245 C1231 0.958 . S
H1246 C1231 0.961 . S
H1247 C1231 0.960 . S
C1248 C1249 1.391 1_455 S
C1248 C1250 1.394 . S
C1248 H1264 0.931 . S
C1249 C1248 1.391 1_655 S
C1249 C1253 1.376 . S
C1250 C1248 1.394 . S
C1250 C1251 1.369 1_455 S
C1250 C1254 1.531 . S
C1251 C1250 1.369 1_655 S
C1251 C1252 1.410 . S
C1251 C1259 1.503 . S
C1252 C1251 1.410 . S
C1252 C1253 1.392 . S
C1252 C1255 1.511 . S
C1253 C1249 1.376 . S
C1253 C1252 1.392 . S
C1253 H1265 0.929 . S
C1254 C1250 1.531 . S
C1254 H1266 0.960 . S
C1254 H1267 0.962 . S
C1254 H1268 0.960 . S
C1255 C1252 1.511 . S
C1255 H1269 0.961 . S
C1255 H1270 0.961 . S
C1255 H1271 0.961 . S
C1256 C1257 1.369 1_455 S
C1256 C1258 1.363 . S
C1256 H1272 0.931 . S
C1257 C1256 1.369 1_655 S
C1257 C1261 1.409 . S
C1258 C1256 1.363 . S
C1258 C1259 1.370 1_455 S
C1258 C1262 1.524 . S
C1259 C1251 1.503 . S
C1259 C1258 1.370 1_655 S
C1259 C1260 1.403 . S
C1260 C1259 1.403 . S
C1260 C1261 1.404 . S
C1260 C1263 1.539 . S
C1261 C1257 1.409 . S
C1261 C1260 1.404 . S
C1261 H1273 0.930 . S
C1262 C1258 1.524 . S
C1262 H1274 0.956 . S
C1262 H1275 0.961 . S
C1262 H1276 0.961 . S
C1263 C1260 1.539 . S
C1263 H1277 0.958 . S
C1263 H1278 0.961 . S
C1263 H1279 0.960 . S
H1264 C1248 0.931 . S
H1265 C1253 0.929 . S
H1266 C1254 0.960 . S
H1267 C1254 0.962 . S
H1268 C1254 0.960 . S
H1269 C1255 0.961 . S
H1270 C1255 0.961 . S
H1271 C1255 0.961 . S
H1272 C1256 0.931 . S
H1273 C1261 0.930 . S
H1274 C1262 0.956 . S
H1275 C1262 0.961 . S
H1276 C1262 0.961 . S
H1277 C1263 0.958 . S
H1278 C1263 0.961 . S
H1279 C1263 0.960 . S
C1280 C1281 1.391 1_545 S
C1280 C1282 1.394 . S
C1280 H1296 0.931 . S
C1281 C1280 1.391 1_565 S
C1281 C1285 1.376 . S
C1282 C1280 1.394 . S
C1282 C1283 1.369 1_545 S
C1282 C1286 1.531 . S
C1283 C1282 1.369 1_565 S
C1283 C1284 1.410 . S
C1283 C1291 1.503 . S
C1284 C1283 1.410 . S
C1284 C1285 1.392 . S
C1284 C1287 1.511 . S
C1285 C1281 1.376 . S
C1285 C1284 1.392 . S
C1285 H1297 0.929 . S
C1286 C1282 1.531 . S
C1286 H1298 0.960 . S
C1286 H1299 0.962 . S
C1286 H1300 0.960 . S
C1287 C1284 1.511 . S
C1287 H1301 0.961 . S
C1287 H1302 0.961 . S
C1287 H1303 0.961 . S
C1288 C1289 1.373 . S
C1288 C1290 1.363 . S
C1288 H1304 0.931 . S
C1289 C1288 1.373 . S
C1289 C1293 1.405 1_545 S
C1290 C1288 1.363 . S
C1290 C1291 1.370 1_545 S
C1290 C1294 1.524 . S
C1291 C1283 1.503 . S
C1291 C1290 1.370 1_565 S
C1291 C1292 1.403 . S
C1292 C1291 1.403 . S
C1292 C1293 1.404 . S
C1292 C1295 1.539 . S
C1293 C1289 1.405 1_565 S
C1293 C1292 1.404 . S
C1293 H1305 0.930 . S
C1294 C1290 1.524 . S
C1294 H1306 0.956 . S
C1294 H1307 0.961 1_545 S
C1294 H1308 0.961 . S
C1295 C1292 1.539 . S
C1295 H1309 0.958 1_565 S
C1295 H1310 0.961 . S
C1295 H1311 0.960 . S
H1296 C1280 0.931 . S
H1297 C1285 0.929 . S
H1298 C1286 0.960 . S
H1299 C1286 0.962 . S
H1300 C1286 0.960 . S
H1301 C1287 0.961 . S
H1302 C1287 0.961 . S
H1303 C1287 0.961 . S
H1304 C1288 0.931 . S
H1305 C1293 0.930 . S
H1306 C1294 0.956 . S
H1307 C1294 0.961 1_565 S
H1308 C1294 0.961 . S
H1309 C1295 0.958 1_545 S
H1310 C1295 0.961 . S
H1311 C1295 0.960 . S
C1312 C1313 1.391 . S
C1312 C1314 1.394 . S
C1312 H1328 0.931 . S
C1313 C1312 1.391 . S
C1313 C1317 1.376 . S
C1314 C1312 1.394 . S
C1314 C1315 1.369 . S
C1314 C1318 1.531 . S
C1315 C1314 1.369 . S
C1315 C1316 1.410 . S
C1315 C1323 1.503 . S
C1316 C1315 1.410 . S
C1316 C1317 1.392 . S
C1316 C1319 1.511 . S
C1317 C1313 1.376 . S
C1317 C1316 1.392 . S
C1317 H1329 0.929 . S
C1318 C1314 1.531 . S
C1318 H1330 0.960 . S
C1318 H1331 0.962 . S
C1318 H1332 0.960 . S
C1319 C1316 1.511 . S
C1319 H1333 0.961 . S
C1319 H1334 0.961 . S
C1319 H1335 0.961 . S
C1320 C1321 1.370 . S
C1320 C1322 1.363 . S
C1320 H1336 0.931 . S
C1321 C1320 1.370 . S
C1321 C1325 1.408 . S
C1322 C1320 1.363 . S
C1322 C1323 1.370 . S
C1322 C1326 1.524 . S
C1323 C1315 1.503 . S
C1323 C1322 1.370 . S
C1323 C1324 1.403 . S
C1324 C1323 1.403 . S
C1324 C1325 1.404 . S
C1324 C1327 1.539 . S
C1325 C1321 1.408 . S
C1325 C1324 1.404 . S
C1325 H1337 0.930 . S
C1326 C1322 1.524 . S
C1326 H1338 0.956 . S
C1326 H1339 0.961 . S
C1326 H1340 0.961 . S
C1327 C1324 1.539 . S
C1327 H1341 0.958 . S
C1327 H1342 0.961 . S
C1327 H1343 0.960 . S
H1328 C1312 0.931 . S
H1329 C1317 0.929 . S
H1330 C1318 0.960 . S
H1331 C1318 0.962 . S
H1332 C1318 0.960 . S
H1333 C1319 0.961 . S
H1334 C1319 0.961 . S
H1335 C1319 0.961 . S
H1336 C1320 0.931 . S
H1337 C1325 0.930 . S
H1338 C1326 0.956 . S
H1339 C1326 0.961 . S
H1340 C1326 0.961 . S
H1341 C1327 0.958 . S
H1342 C1327 0.961 . S
H1343 C1327 0.960 . S
C1344 C1345 1.391 . S
C1344 C1346 1.394 . S
C1344 H1360 0.931 . S
C1345 C1344 1.391 . S
C1345 C1349 1.376 . S
C1346 C1344 1.394 . S
C1346 C1347 1.369 . S
C1346 C1350 1.531 . S
C1347 C1346 1.369 . S
C1347 C1348 1.410 . S
C1347 C1355 1.503 . S
C1348 C1347 1.410 . S
C1348 C1349 1.392 . S
C1348 C1351 1.511 . S
C1349 C1345 1.376 . S
C1349 C1348 1.392 . S
C1349 H1361 0.929 . S
C1350 C1346 1.531 . S
C1350 H1362 0.960 . S
C1350 H1363 0.962 . S
C1350 H1364 0.960 . S
C1351 C1348 1.511 . S
C1351 H1365 0.961 . S
C1351 H1366 0.961 . S
C1351 H1367 0.961 . S
C1352 C1353 1.370 . S
C1352 C1354 1.363 . S
C1352 H1368 0.931 . S
C1353 C1352 1.370 . S
C1353 C1357 1.408 . S
C1354 C1352 1.363 . S
C1354 C1355 1.370 . S
C1354 C1358 1.524 . S
C1355 C1347 1.503 . S
C1355 C1354 1.370 . S
C1355 C1356 1.403 . S
C1356 C1355 1.403 . S
C1356 C1357 1.404 . S
C1356 C1359 1.539 . S
C1357 C1353 1.408 . S
C1357 C1356 1.404 . S
C1357 H1369 0.930 . S
C1358 C1354 1.524 . S
C1358 H1370 0.956 . S
C1358 H1371 0.961 . S
C1358 H1372 0.961 . S
C1359 C1356 1.539 . S
C1359 H1373 0.958 . S
C1359 H1374 0.961 . S
C1359 H1375 0.960 . S
H1360 C1344 0.931 . S
H1361 C1349 0.929 . S
H1362 C1350 0.960 . S
H1363 C1350 0.962 . S
H1364 C1350 0.960 . S
H1365 C1351 0.961 . S
H1366 C1351 0.961 . S
H1367 C1351 0.961 . S
H1368 C1352 0.931 . S
H1369 C1357 0.930 . S
H1370 C1358 0.956 . S
H1371 C1358 0.961 . S
H1372 C1358 0.961 . S
H1373 C1359 0.958 . S
H1374 C1359 0.961 . S
H1375 C1359 0.960 . S
C1376 C1377 1.391 . S
C1376 C1378 1.394 . S
C1376 H1392 0.931 1_455 S
C1377 C1376 1.391 . S
C1377 C1381 1.376 . S
C1378 C1376 1.394 . S
C1378 C1379 1.369 . S
C1378 C1382 1.531 . S
C1379 C1378 1.369 . S
C1379 C1380 1.410 . S
C1379 C1387 1.503 . S
C1380 C1379 1.410 . S
C1380 C1381 1.392 . S
C1380 C1383 1.511 . S
C1381 C1377 1.376 . S
C1381 C1380 1.392 . S
C1381 H1393 0.929 . S
C1382 C1378 1.531 . S
C1382 H1394 0.960 . S
C1382 H1395 0.962 1_455 S
C1382 H1396 0.960 . S
C1383 C1380 1.511 . S
C1383 H1397 0.961 . S
C1383 H1398 0.961 . S
C1383 H1399 0.961 . S
C1384 C1385 1.370 . S
C1384 C1386 1.363 . S
C1384 H1400 0.931 1_455 S
C1385 C1384 1.370 . S
C1385 C1389 1.408 . S
C1386 C1384 1.363 . S
C1386 C1387 1.370 . S
C1386 C1390 1.524 1_455 S
C1387 C1379 1.503 . S
C1387 C1386 1.370 . S
C1387 C1388 1.403 . S
C1388 C1387 1.403 . S
C1388 C1389 1.404 . S
C1388 C1391 1.539 . S
C1389 C1385 1.408 . S
C1389 C1388 1.404 . S
C1389 H1401 0.930 . S
C1390 C1386 1.524 1_655 S
C1390 H1402 0.956 . S
C1390 H1403 0.961 . S
C1390 H1404 0.961 . S
C1391 C1388 1.539 . S
C1391 H1405 0.958 . S
C1391 H1406 0.961 . S
C1391 H1407 0.960 . S
H1392 C1376 0.931 1_655 S
H1393 C1381 0.929 . S
H1394 C1382 0.960 . S
H1395 C1382 0.962 1_655 S
H1396 C1382 0.960 . S
H1397 C1383 0.961 . S
H1398 C1383 0.961 . S
H1399 C1383 0.961 . S
H1400 C1384 0.931 1_655 S
H1401 C1389 0.930 . S
H1402 C1390 0.956 . S
H1403 C1390 0.961 . S
H1404 C1390 0.961 . S
H1405 C1391 0.958 . S
H1406 C1391 0.961 . S
H1407 C1391 0.960 . S
C1408 C1409 1.391 . S
C1408 C1410 1.394 . S
C1408 H1424 0.931 . S
C1409 C1408 1.391 . S
C1409 C1413 1.376 1_545 S
C1410 C1408 1.394 . S
C1410 C1411 1.369 . S
C1410 C1414 1.531 . S
C1411 C1410 1.369 . S
C1411 C1412 1.410 1_545 S
C1411 C1419 1.503 . S
C1412 C1411 1.410 1_565 S
C1412 C1413 1.392 . S
C1412 C1415 1.511 . S
C1413 C1409 1.376 1_565 S
C1413 C1412 1.392 . S
C1413 H1425 0.929 . S
C1414 C1410 1.531 . S
C1414 H1426 0.960 . S
C1414 H1427 0.962 . S
C1414 H1428 0.960 . S
C1415 C1412 1.511 . S
C1415 H1429 0.961 . S
C1415 H1430 0.961 . S
C1415 H1431 0.961 . S
C1416 C1417 1.370 . S
C1416 C1418 1.363 . S
C1416 H1432 0.931 . S
C1417 C1416 1.370 . S
C1417 C1421 1.408 . S
C1418 C1416 1.363 . S
C1418 C1419 1.370 . S
C1418 C1422 1.524 . S
C1419 C1411 1.503 . S
C1419 C1418 1.370 . S
C1419 C1420 1.403 . S
C1420 C1419 1.403 . S
C1420 C1421 1.404 . S
C1420 C1423 1.539 . S
C1421 C1417 1.408 . S
C1421 C1420 1.404 . S
C1421 H1433 0.930 . S
C1422 C1418 1.524 . S
C1422 H1434 0.956 . S
C1422 H1435 0.961 . S
C1422 H1436 0.961 . S
C1423 C1420 1.539 . S
C1423 H1437 0.958 . S
C1423 H1438 0.961 . S
C1423 H1439 0.960 . S
H1424 C1408 0.931 . S
H1425 C1413 0.929 . S
H1426 C1414 0.960 . S
H1427 C1414 0.962 . S
H1428 C1414 0.960 . S
H1429 C1415 0.961 . S
H1430 C1415 0.961 . S
H1431 C1415 0.961 . S
H1432 C1416 0.931 . S
H1433 C1421 0.930 . S
H1434 C1422 0.956 . S
H1435 C1422 0.961 . S
H1436 C1422 0.961 . S
H1437 C1423 0.958 . S
H1438 C1423 0.961 . S
H1439 C1423 0.960 . S
C1440 C1441 1.391 . S
C1440 C1442 1.394 . S
C1440 H1456 0.931 . S
C1441 C1440 1.391 . S
C1441 C1445 1.376 . S
C1442 C1440 1.394 . S
C1442 C1443 1.369 . S
C1442 C1446 1.531 . S
C1443 C1442 1.369 . S
C1443 C1444 1.410 . S
C1443 C1451 1.503 . S
C1444 C1443 1.410 . S
C1444 C1445 1.392 . S
C1444 C1447 1.511 . S
C1445 C1441 1.376 . S
C1445 C1444 1.392 . S
C1445 H1457 0.929 . S
C1446 C1442 1.531 . S
C1446 H1458 0.960 . S
C1446 H1459 0.962 . S
C1446 H1460 0.960 . S
C1447 C1444 1.511 . S
C1447 H1461 0.961 . S
C1447 H1462 0.961 . S
C1447 H1463 0.961 . S
C1448 C1449 1.370 . S
C1448 C1450 1.363 . S
C1448 H1464 0.931 . S
C1449 C1448 1.370 . S
C1449 C1453 1.408 . S
C1450 C1448 1.363 . S
C1450 C1451 1.370 . S
C1450 C1454 1.524 . S
C1451 C1443 1.503 . S
C1451 C1450 1.370 . S
C1451 C1452 1.403 . S
C1452 C1451 1.403 . S
C1452 C1453 1.404 . S
C1452 C1455 1.539 . S
C1453 C1449 1.408 . S
C1453 C1452 1.404 . S
C1453 H1465 0.930 . S
C1454 C1450 1.524 . S
C1454 H1466 0.956 . S
C1454 H1467 0.961 . S
C1454 H1468 0.961 . S
C1455 C1452 1.539 . S
C1455 H1469 0.958 . S
C1455 H1470 0.961 . S
C1455 H1471 0.960 . S
H1456 C1440 0.931 . S
H1457 C1445 0.929 . S
H1458 C1446 0.960 . S
H1459 C1446 0.962 . S
H1460 C1446 0.960 . S
H1461 C1447 0.961 . S
H1462 C1447 0.961 . S
H1463 C1447 0.961 . S
H1464 C1448 0.931 . S
H1465 C1453 0.930 . S
H1466 C1454 0.956 . S
H1467 C1454 0.961 . S
H1468 C1454 0.961 . S
H1469 C1455 0.958 . S
H1470 C1455 0.961 . S
H1471 C1455 0.960 . S
C1472 C1473 1.391 . S
C1472 C1474 1.394 . S
C1472 H1488 0.931 . S
C1473 C1472 1.391 . S
C1473 C1477 1.376 . S
C1474 C1472 1.394 . S
C1474 C1475 1.369 . S
C1474 C1478 1.531 . S
C1475 C1474 1.369 . S
C1475 C1476 1.410 . S
C1475 C1483 1.503 . S
C1476 C1475 1.410 . S
C1476 C1477 1.392 . S
C1476 C1479 1.511 . S
C1477 C1473 1.376 . S
C1477 C1476 1.392 . S
C1477 H1489 0.929 . S
C1478 C1474 1.531 . S
C1478 H1490 0.960 . S
C1478 H1491 0.962 . S
C1478 H1492 0.960 . S
C1479 C1476 1.511 . S
C1479 H1493 0.961 . S
C1479 H1494 0.961 . S
C1479 H1495 0.961 . S
C1480 C1481 1.370 . S
C1480 C1482 1.363 . S
C1480 H1496 0.931 . S
C1481 C1480 1.370 . S
C1481 C1485 1.408 . S
C1482 C1480 1.363 . S
C1482 C1483 1.370 . S
C1482 C1486 1.524 . S
C1483 C1475 1.503 . S
C1483 C1482 1.370 . S
C1483 C1484 1.403 . S
C1484 C1483 1.403 . S
C1484 C1485 1.404 . S
C1484 C1487 1.539 . S
C1485 C1481 1.408 . S
C1485 C1484 1.404 . S
C1485 H1497 0.930 . S
C1486 C1482 1.524 . S
C1486 H1498 0.956 . S
C1486 H1499 0.961 . S
C1486 H1500 0.961 . S
C1487 C1484 1.539 . S
C1487 H1501 0.958 . S
C1487 H1502 0.961 . S
C1487 H1503 0.960 . S
H1488 C1472 0.931 . S
H1489 C1477 0.929 . S
H1490 C1478 0.960 . S
H1491 C1478 0.962 . S
H1492 C1478 0.960 . S
H1493 C1479 0.961 . S
H1494 C1479 0.961 . S
H1495 C1479 0.961 . S
H1496 C1480 0.931 . S
H1497 C1485 0.930 . S
H1498 C1486 0.956 . S
H1499 C1486 0.961 . S
H1500 C1486 0.961 . S
H1501 C1487 0.958 . S
H1502 C1487 0.961 . S
H1503 C1487 0.960 . S
C1504 C1505 1.391 . S
C1504 C1506 1.394 . S
C1504 H1520 0.931 . S
C1505 C1504 1.391 . S
C1505 C1509 1.376 . S
C1506 C1504 1.394 . S
C1506 C1507 1.369 . S
C1506 C1510 1.531 . S
C1507 C1506 1.369 . S
C1507 C1508 1.410 . S
C1507 C1515 1.503 . S
C1508 C1507 1.410 . S
C1508 C1509 1.392 . S
C1508 C1511 1.511 . S
C1509 C1505 1.376 . S
C1509 C1508 1.392 . S
C1509 H1521 0.929 . S
C1510 C1506 1.531 . S
C1510 H1522 0.960 . S
C1510 H1523 0.962 . S
C1510 H1524 0.960 . S
C1511 C1508 1.511 . S
C1511 H1525 0.961 . S
C1511 H1526 0.961 . S
C1511 H1527 0.961 1_455 S
C1512 C1513 1.370 . S
C1512 C1514 1.363 . S
C1512 H1528 0.931 . S
C1513 C1512 1.370 . S
C1513 C1517 1.408 1_455 S
C1514 C1512 1.363 . S
C1514 C1515 1.370 . S
C1514 C1518 1.524 . S
C1515 C1507 1.503 . S
C1515 C1514 1.370 . S
C1515 C1516 1.403 1_455 S
C1516 C1515 1.403 1_655 S
C1516 C1517 1.404 . S
C1516 C1519 1.539 . S
C1517 C1513 1.408 1_655 S
C1517 C1516 1.404 . S
C1517 H1529 0.930 . S
C1518 C1514 1.524 . S
C1518 H1530 0.956 . S
C1518 H1531 0.961 . S
C1518 H1532 0.961 . S
C1519 C1516 1.539 . S
C1519 H1533 0.958 . S
C1519 H1534 0.961 . S
C1519 H1535 0.960 . S
H1520 C1504 0.931 . S
H1521 C1509 0.929 . S
H1522 C1510 0.960 . S
H1523 C1510 0.962 . S
H1524 C1510 0.960 . S
H1525 C1511 0.961 . S
H1526 C1511 0.961 . S
H1527 C1511 0.961 1_655 S
H1528 C1512 0.931 . S
H1529 C1517 0.930 . S
H1530 C1518 0.956 . S
H1531 C1518 0.961 . S
H1532 C1518 0.961 . S
H1533 C1519 0.958 . S
H1534 C1519 0.961 . S
H1535 C1519 0.960 . S
C1536 C1537 1.391 . S
C1536 C1538 1.394 . S
C1536 H1552 0.931 . S
C1537 C1536 1.391 . S
C1537 C1541 1.376 . S
C1538 C1536 1.394 . S
C1538 C1539 1.369 . S
C1538 C1542 1.531 . S
C1539 C1538 1.369 . S
C1539 C1540 1.410 . S
C1539 C1547 1.503 . S
C1540 C1539 1.410 . S
C1540 C1541 1.392 . S
C1540 C1543 1.511 1_545 S
C1541 C1537 1.376 . S
C1541 C1540 1.392 . S
C1541 H1553 0.929 1_545 S
C1542 C1538 1.531 . S
C1542 H1554 0.960 . S
C1542 H1555 0.962 . S
C1542 H1556 0.960 . S
C1543 C1540 1.511 1_565 S
C1543 H1557 0.961 . S
C1543 H1558 0.961 . S
C1543 H1559 0.961 . S
C1544 C1545 1.370 . S
C1544 C1546 1.363 . S
C1544 H1560 0.931 . S
C1545 C1544 1.370 . S
C1545 C1549 1.408 1_545 S
C1546 C1544 1.363 . S
C1546 C1547 1.370 . S
C1546 C1550 1.524 . S
C1547 C1539 1.503 . S
C1547 C1546 1.370 . S
C1547 C1548 1.403 1_545 S
C1548 C1547 1.403 1_565 S
C1548 C1549 1.404 . S
C1548 C1551 1.539 . S
C1549 C1545 1.408 1_565 S
C1549 C1548 1.404 . S
C1549 H1561 0.930 . S
C1550 C1546 1.524 . S
C1550 H1562 0.956 . S
C1550 H1563 0.961 . S
C1550 H1564 0.961 . S
C1551 C1548 1.539 . S
C1551 H1565 0.958 . S
C1551 H1566 0.961 . S
C1551 H1567 0.960 . S
H1552 C1536 0.931 . S
H1553 C1541 0.929 1_565 S
H1554 C1542 0.960 . S
H1555 C1542 0.962 . S
H1556 C1542 0.960 . S
H1557 C1543 0.961 . S
H1558 C1543 0.961 . S
H1559 C1543 0.961 . S
H1560 C1544 0.931 . S
H1561 C1549 0.930 . S
H1562 C1550 0.956 . S
H1563 C1550 0.961 . S
H1564 C1550 0.961 . S
H1565 C1551 0.958 . S
H1566 C1551 0.961 . S
H1567 C1551 0.960 . S
C1568 C1569 1.391 . S
C1568 C1570 1.394 . S
C1568 H1584 0.931 . S
C1569 C1568 1.391 . S
C1569 C1573 1.376 . S
C1570 C1568 1.394 . S
C1570 C1571 1.369 . S
C1570 C1574 1.531 1_565 S
C1571 C1570 1.369 . S
C1571 C1572 1.410 . S
C1571 C1579 1.503 1_566 S
C1572 C1571 1.410 . S
C1572 C1573 1.392 . S
C1572 C1575 1.511 . S
C1573 C1569 1.376 . S
C1573 C1572 1.392 . S
C1573 H1585 0.929 . S
C1574 C1570 1.531 1_545 S
C1574 H1586 0.960 . S
C1574 H1587 0.962 1_545 S
C1574 H1588 0.960 . S
C1575 C1572 1.511 . S
C1575 H1589 0.961 . S
C1575 H1590 0.961 1_556 S
C1575 H1591 0.961 . S
C1576 C1577 1.370 1_565 S
C1576 C1578 1.363 . S
C1576 H1592 0.931 . S
C1577 C1576 1.370 1_545 S
C1577 C1581 1.408 . S
C1578 C1576 1.363 . S
C1578 C1579 1.370 1_565 S
C1578 C1582 1.524 . S
C1579 C1571 1.503 1_544 S
C1579 C1578 1.370 1_545 S
C1579 C1580 1.403 . S
C1580 C1579 1.403 . S
C1580 C1581 1.404 . S
C1580 C1583 1.539 1_554 S
C1581 C1577 1.408 . S
C1581 C1580 1.404 . S
C1581 H1593 0.930 . S
C1582 C1578 1.524 . S
C1582 H1594 0.956 . S
C1582 H1595 0.961 . S
C1582 H1596 0.961 . S
C1583 C1580 1.539 1_556 S
C1583 H1597 0.958 . S
C1583 H1598 0.961 1_556 S
C1583 H1599 0.960 . S
H1584 C1568 0.931 . S
H1585 C1573 0.929 . S
H1586 C1574 0.960 . S
H1587 C1574 0.962 1_565 S
H1588 C1574 0.960 . S
H1589 C1575 0.961 . S
H1590 C1575 0.961 1_554 S
H1591 C1575 0.961 . S
H1592 C1576 0.931 . S
H1593 C1581 0.930 . S
H1594 C1582 0.956 . S
H1595 C1582 0.961 . S
H1596 C1582 0.961 . S
H1597 C1583 0.958 . S
H1598 C1583 0.961 1_554 S
H1599 C1583 0.960 . S
C1600 C1601 1.391 . S
C1600 C1602 1.394 . S
C1600 H1616 0.931 . S
C1601 C1600 1.391 . S
C1601 C1605 1.376 . S
C1602 C1600 1.394 . S
C1602 C1603 1.369 . S
C1602 C1606 1.531 . S
C1603 C1602 1.369 . S
C1603 C1604 1.410 . S
C1603 C1611 1.503 . S
C1604 C1603 1.410 . S
C1604 C1605 1.392 . S
C1604 C1607 1.511 . S
C1605 C1601 1.376 . S
C1605 C1604 1.392 . S
C1605 H1617 0.929 . S
C1606 C1602 1.531 . S
C1606 H1618 0.960 . S
C1606 H1619 0.962 . S
C1606 H1620 0.960 . S
C1607 C1604 1.511 . S
C1607 H1621 0.961 . S
C1607 H1622 0.961 . S
C1607 H1623 0.961 . S
C1608 C1609 1.370 . S
C1608 C1610 1.363 . S
C1608 H1624 0.931 . S
C1609 C1608 1.370 . S
C1609 C1613 1.408 . S
C1610 C1608 1.363 . S
C1610 C1611 1.370 . S
C1610 C1614 1.524 . S
C1611 C1603 1.503 . S
C1611 C1610 1.370 . S
C1611 C1612 1.403 . S
C1612 C1611 1.403 . S
C1612 C1613 1.404 . S
C1612 C1615 1.539 . S
C1613 C1609 1.408 . S
C1613 C1612 1.404 . S
C1613 H1625 0.930 . S
C1614 C1610 1.524 . S
C1614 H1626 0.956 . S
C1614 H1627 0.961 . S
C1614 H1628 0.961 . S
C1615 C1612 1.539 . S
C1615 H1629 0.958 . S
C1615 H1630 0.961 . S
C1615 H1631 0.960 . S
H1616 C1600 0.931 . S
H1617 C1605 0.929 . S
H1618 C1606 0.960 . S
H1619 C1606 0.962 . S
H1620 C1606 0.960 . S
H1621 C1607 0.961 . S
H1622 C1607 0.961 . S
H1623 C1607 0.961 . S
H1624 C1608 0.931 . S
H1625 C1613 0.930 . S
H1626 C1614 0.956 . S
H1627 C1614 0.961 . S
H1628 C1614 0.961 . S
H1629 C1615 0.958 . S
H1630 C1615 0.961 . S
H1631 C1615 0.960 . S
C1632 C1633 1.391 1_655 S
C1632 C1634 1.394 . S
C1632 H1648 0.931 . S
C1633 C1632 1.391 1_455 S
C1633 C1637 1.376 . S
C1634 C1632 1.394 . S
C1634 C1635 1.369 1_655 S
C1634 C1638 1.531 1_554 S
C1635 C1634 1.369 1_455 S
C1635 C1636 1.410 . S
C1635 C1643 1.503 1_554 S
C1636 C1635 1.410 . S
C1636 C1637 1.392 . S
C1636 C1639 1.511 . S
C1637 C1633 1.376 . S
C1637 C1636 1.392 . S
C1637 H1649 0.929 . S
C1638 C1634 1.531 1_556 S
C1638 H1650 0.960 . S
C1638 H1651 0.962 . S
C1638 H1652 0.960 1_556 S
C1639 C1636 1.511 . S
C1639 H1653 0.961 . S
C1639 H1654 0.961 . S
C1639 H1655 0.961 . S
C1640 C1641 1.370 . S
C1640 C1642 1.363 . S
C1640 H1656 0.931 . S
C1641 C1640 1.370 . S
C1641 C1645 1.408 . S
C1642 C1640 1.363 . S
C1642 C1643 1.370 . S
C1642 C1646 1.524 . S
C1643 C1635 1.503 1_556 S
C1643 C1642 1.370 . S
C1643 C1644 1.402 1_455 S
C1644 C1643 1.402 1_655 S
C1644 C1645 1.404 1_655 S
C1644 C1647 1.540 . S
C1645 C1641 1.408 . S
C1645 C1644 1.404 1_455 S
C1645 H1657 0.930 1_455 S
C1646 C1642 1.524 . S
C1646 H1658 0.956 . S
C1646 H1659 0.961 . S
C1646 H1660 0.961 . S
C1647 C1644 1.540 . S
C1647 H1661 0.958 . S
C1647 H1662 0.961 . S
C1647 H1663 0.960 1_556 S
H1648 C1632 0.931 . S
H1649 C1637 0.929 . S
H1650 C1638 0.960 . S
H1651 C1638 0.962 . S
H1652 C1638 0.960 1_554 S
H1653 C1639 0.961 . S
H1654 C1639 0.961 . S
H1655 C1639 0.961 . S
H1656 C1640 0.931 . S
H1657 C1645 0.930 1_655 S
H1658 C1646 0.956 . S
H1659 C1646 0.961 . S
H1660 C1646 0.961 . S
H1661 C1647 0.958 . S
H1662 C1647 0.961 . S
H1663 C1647 0.960 1_554 S
C1664 C1665 1.391 . S
C1664 C1666 1.394 . S
C1664 H1680 0.931 . S
C1665 C1664 1.391 . S
C1665 C1669 1.376 . S
C1666 C1664 1.394 . S
C1666 C1667 1.369 . S
C1666 C1670 1.531 1_655 S
C1667 C1666 1.369 . S
C1667 C1668 1.410 1_545 S
C1667 C1675 1.503 . S
C1668 C1667 1.410 1_565 S
C1668 C1669 1.392 1_565 S
C1668 C1671 1.511 . S
C1669 C1665 1.376 . S
C1669 C1668 1.392 1_545 S
C1669 H1681 0.929 1_545 S
C1670 C1666 1.531 1_455 S
C1670 H1682 0.960 . S
C1670 H1683 0.962 . S
C1670 H1684 0.960 . S
C1671 C1668 1.511 . S
C1671 H1685 0.961 . S
C1671 H1686 0.961 . S
C1671 H1687 0.961 . S
C1672 C1673 1.370 1_565 S
C1672 C1674 1.363 . S
C1672 H1688 0.931 . S
C1673 C1672 1.370 1_545 S
C1673 C1677 1.408 1_455 S
C1674 C1672 1.363 . S
C1674 C1675 1.370 1_465 S
C1674 C1678 1.524 . S
C1675 C1667 1.503 . S
C1675 C1674 1.370 1_645 S
C1675 C1676 1.403 . S
C1676 C1675 1.403 . S
C1676 C1677 1.404 . S
C1676 C1679 1.539 . S
C1677 C1673 1.408 1_655 S
C1677 C1676 1.404 . S
C1677 H1689 0.930 . S
C1678 C1674 1.524 . S
C1678 H1690 0.956 . S
C1678 H1691 0.961 . S
C1678 H1692 0.961 . S
C1679 C1676 1.539 . S
C1679 H1693 0.958 . S
C1679 H1694 0.961 . S
C1679 H1695 0.960 . S
H1680 C1664 0.931 . S
H1681 C1669 0.929 1_565 S
H1682 C1670 0.960 . S
H1683 C1670 0.962 . S
H1684 C1670 0.960 . S
H1685 C1671 0.961 . S
H1686 C1671 0.961 . S
H1687 C1671 0.961 . S
H1688 C1672 0.931 . S
H1689 C1677 0.930 . S
H1690 C1678 0.956 . S
H1691 C1678 0.961 . S
H1692 C1678 0.961 . S
H1693 C1679 0.958 . S
H1694 C1679 0.961 . S
H1695 C1679 0.960 . S
C1696 C1697 1.391 . S
C1696 C1698 1.394 . S
C1696 H1712 0.931 . S
C1697 C1696 1.391 . S
C1697 C1701 1.376 . S
C1698 C1696 1.394 . S
C1698 C1699 1.369 . S
C1698 C1702 1.565 . S
C1699 C1698 1.369 . S
C1699 C1700 1.410 . S
C1699 C1707 1.503 1_556 S
C1700 C1699 1.410 . S
C1700 C1701 1.392 . S
C1700 C1703 1.511 . S
C1701 C1697 1.376 . S
C1701 C1700 1.392 . S
C1701 H1713 0.929 . S
C1702 C1698 1.565 . S
C1702 H1714 0.901 1_556 S
C1702 H1715 0.969 . S
C1702 H1716 0.983 . S
C1703 C1700 1.511 . S
C1703 H1717 0.961 . S
C1703 H1718 0.961 1_556 S
C1703 H1719 0.974 . S
C1704 C1705 1.370 . S
C1704 C1706 1.363 . S
C1704 H1720 0.931 . S
C1705 C1704 1.370 . S
C1705 C1709 1.408 . S
C1706 C1704 1.363 . S
C1706 C1707 1.370 . S
C1706 C1710 1.546 . S
C1707 C1699 1.503 1_554 S
C1707 C1706 1.370 . S
C1707 C1708 1.403 . S
C1708 C1707 1.403 . S
C1708 C1709 1.404 . S
C1708 C1711 1.539 . S
C1709 C1705 1.408 . S
C1709 C1708 1.404 . S
C1709 H1721 0.930 . S
C1710 C1706 1.546 . S
C1710 H1722 0.944 1_554 S
C1710 H1723 0.943 1_554 S
C1710 H1724 0.969 . S
C1711 C1708 1.539 . S
C1711 H1725 0.958 . S
C1711 H1726 0.961 . S
C1711 H1727 0.960 . S
H1712 C1696 0.931 . S
H1713 C1701 0.929 . S
H1714 C1702 0.901 1_554 S
H1715 C1702 0.969 . S
H1716 C1702 0.983 . S
H1717 C1703 0.961 . S
H1718 C1703 0.961 1_554 S
H1719 C1703 0.974 . S
H1720 C1704 0.931 . S
H1721 C1709 0.930 . S
H1722 C1710 0.944 1_556 S
H1723 C1710 0.943 1_556 S
H1724 C1710 0.969 . S
H1725 C1711 0.958 . S
H1726 C1711 0.961 . S
H1727 C1711 0.960 . S
C1728 C1729 1.391 . S
C1728 C1730 1.394 1_455 S
C1728 H1744 0.927 1_455 S
C1729 C1728 1.391 . S
C1729 C1733 1.376 . S
C1730 C1728 1.394 1_655 S
C1730 C1731 1.369 1_655 S
C1730 C1734 1.531 . S
C1731 C1730 1.369 1_455 S
C1731 C1732 1.410 . S
C1731 C1739 1.503 1_455 S
C1732 C1731 1.410 . S
C1732 C1733 1.392 . S
C1732 C1735 1.511 . S
C1733 C1729 1.376 . S
C1733 C1732 1.392 . S
C1733 H1745 0.929 . S
C1734 C1730 1.531 . S
C1734 H1746 0.960 . S
C1734 H1747 0.962 . S
C1734 H1748 0.960 . S
C1735 C1732 1.511 . S
C1735 H1749 0.961 . S
C1735 H1750 0.961 . S
C1735 H1751 0.961 . S
C1736 C1737 1.370 . S
C1736 C1738 1.363 . S
C1736 H1752 0.931 . S
C1737 C1736 1.370 . S
C1737 C1741 1.408 . S
C1738 C1736 1.363 . S
C1738 C1739 1.370 . S
C1738 C1742 1.524 . S
C1739 C1731 1.503 1_655 S
C1739 C1738 1.370 . S
C1739 C1740 1.403 1_655 S
C1740 C1739 1.403 1_455 S
C1740 C1741 1.404 1_455 S
C1740 C1743 1.539 . S
C1741 C1737 1.408 . S
C1741 C1740 1.404 1_655 S
C1741 H1753 0.930 1_655 S
C1742 C1738 1.524 . S
C1742 H1754 0.956 . S
C1742 H1755 0.961 . S
C1742 H1756 0.961 . S
C1743 C1740 1.539 . S
C1743 H1757 0.958 . S
C1743 H1758 0.961 . S
C1743 H1759 0.960 . S
H1744 C1728 0.927 1_655 S
H1745 C1733 0.929 . S
H1746 C1734 0.960 . S
H1747 C1734 0.962 . S
H1748 C1734 0.960 . S
H1749 C1735 0.961 . S
H1750 C1735 0.961 . S
H1751 C1735 0.961 . S
H1752 C1736 0.931 . S
H1753 C1741 0.930 1_455 S
H1754 C1742 0.956 . S
H1755 C1742 0.961 . S
H1756 C1742 0.961 . S
H1757 C1743 0.958 . S
H1758 C1743 0.961 . S
H1759 C1743 0.960 . S
C1760 C1761 1.391 1_655 S
C1760 C1762 1.394 . S
C1760 H1776 0.931 . S
C1761 C1760 1.391 1_455 S
C1761 C1765 1.376 . S
C1762 C1760 1.394 . S
C1762 C1763 1.369 1_655 S
C1762 C1766 1.531 1_565 S
C1763 C1762 1.369 1_455 S
C1763 C1764 1.410 . S
C1763 C1771 1.503 1_564 S
C1764 C1763 1.410 . S
C1764 C1765 1.392 . S
C1764 C1767 1.511 . S
C1765 C1761 1.376 . S
C1765 C1764 1.392 . S
C1765 H1777 0.929 . S
C1766 C1762 1.531 1_545 S
C1766 H1778 0.960 . S
C1766 H1779 0.962 1_545 S
C1766 H1780 0.960 . S
C1767 C1764 1.511 . S
C1767 H1781 0.961 . S
C1767 H1782 0.961 1_554 S
C1767 H1783 0.961 . S
C1768 C1769 1.370 1_665 S
C1768 C1770 1.362 1_655 S
C1768 H1784 0.931 . S
C1769 C1768 1.370 1_445 S
C1769 C1773 1.408 . S
C1770 C1768 1.362 1_455 S
C1770 C1771 1.374 1_565 S
C1770 C1774 1.522 1_455 S
C1771 C1763 1.503 1_546 S
C1771 C1770 1.374 1_545 S
C1771 C1772 1.403 . S
C1772 C1771 1.403 . S
C1772 C1773 1.404 . S
C1772 C1775 1.539 1_556 S
C1773 C1769 1.408 . S
C1773 C1772 1.404 . S
C1773 H1785 0.930 . S
C1774 C1770 1.522 1_655 S
C1774 H1786 0.956 . S
C1774 H1787 0.961 1_655 S
C1774 H1788 0.961 . S
C1775 C1772 1.539 1_554 S
C1775 H1789 0.958 . S
C1775 H1790 0.961 1_554 S
C1775 H1791 0.960 . S
H1776 C1760 0.931 . S
H1777 C1765 0.929 . S
H1778 C1766 0.960 . S
H1779 C1766 0.962 1_565 S
H1780 C1766 0.960 . S
H1781 C1767 0.961 . S
H1782 C1767 0.961 1_556 S
H1783 C1767 0.961 . S
H1784 C1768 0.931 . S
H1785 C1773 0.930 . S
H1786 C1774 0.956 . S
H1787 C1774 0.961 1_455 S
H1788 C1774 0.961 . S
H1789 C1775 0.958 . S
H1790 C1775 0.961 1_556 S
H1791 C1775 0.960 . S
C1792 C1793 1.391 1_565 S
C1792 C1794 1.394 . S
C1792 H1808 0.931 . S
C1793 C1792 1.391 1_545 S
C1793 C1797 1.376 . S
C1794 C1792 1.394 . S
C1794 C1795 1.369 1_565 S
C1794 C1798 1.531 . S
C1795 C1794 1.369 1_545 S
C1795 C1796 1.410 . S
C1795 C1803 1.503 . S
C1796 C1795 1.410 . S
C1796 C1797 1.392 . S
C1796 C1799 1.511 . S
C1797 C1793 1.376 . S
C1797 C1796 1.392 . S
C1797 H1809 0.929 . S
C1798 C1794 1.531 . S
C1798 H1810 0.960 . S
C1798 H1811 0.962 . S
C1798 H1812 0.960 . S
C1799 C1796 1.511 . S
C1799 H1813 0.961 . S
C1799 H1814 0.961 . S
C1799 H1815 0.961 . S
C1800 C1801 1.370 . S
C1800 C1802 1.363 . S
C1800 H1816 0.931 . S
C1801 C1800 1.370 . S
C1801 C1805 1.408 . S
C1802 C1800 1.363 . S
C1802 C1803 1.370 . S
C1802 C1806 1.524 . S
C1803 C1795 1.503 . S
C1803 C1802 1.370 . S
C1803 C1804 1.403 . S
C1804 C1803 1.403 . S
C1804 C1805 1.404 . S
C1804 C1807 1.539 . S
C1805 C1801 1.408 . S
C1805 C1804 1.404 . S
C1805 H1817 0.930 . S
C1806 C1802 1.524 . S
C1806 H1818 0.956 1_545 S
C1806 H1819 0.961 . S
C1806 H1820 0.961 . S
C1807 C1804 1.539 . S
C1807 H1821 0.958 . S
C1807 H1822 0.961 . S
C1807 H1823 0.960 . S
H1808 C1792 0.931 . S
H1809 C1797 0.929 . S
H1810 C1798 0.960 . S
H1811 C1798 0.962 . S
H1812 C1798 0.960 . S
H1813 C1799 0.961 . S
H1814 C1799 0.961 . S
H1815 C1799 0.961 . S
H1816 C1800 0.931 . S
H1817 C1805 0.930 . S
H1818 C1806 0.956 1_565 S
H1819 C1806 0.961 . S
H1820 C1806 0.961 . S
H1821 C1807 0.958 . S
H1822 C1807 0.961 . S
H1823 C1807 0.960 . S
C545 C5 1.881 . S
C553 C243 1.875 . S
C577 C141 1.881 . S
C585 C39 1.881 . S
C609 C73 1.886 . S
C617 C175 1.879 . S
C641 C107 1.887 . S
C649 C209 1.879 . S
C673 C281 1.308 . S
C681 C519 1.327 . S
C705 C315 1.370 . S
C713 C417 1.351 . S
C737 C349 1.332 . S
C745 C451 1.346 . S
C769 C485 1.334 . S
C777 C383 1.347 . S
C801 C33 1.927 . S
C809 C101 1.894 . S
C833 C135 1.890 . S
C841 C67 1.905 . S
C865 C237 1.872 . S
C873 C169 1.915 . S
C897 C203 1.885 . S
C905 C271 1.913 . S
C929 C373 1.317 . S
C937 C305 1.344 . S
C961 C407 1.309 . S
C969 C339 1.353 . S
C993 C509 1.290 . S
C1001 C441 1.358 . S
C1025 C543 1.341 . S
C1033 C475 1.341 . S
C1057 C410 0.504 . S
C1065 C20 0.532 . S
C1089 C444 0.599 . S
C1097 C54 0.538 . S
C1121 C88 0.534 . S
C1129 C478 0.590 1_655 S
C1153 C512 0.592 1_565 S
C1161 C122 0.531 . S
C1185 C156 0.528 . S
C1193 C274 0.572 . S
C1217 C308 0.494 . S
C1225 C190 0.534 . S
C1249 C224 0.534 . S
C1257 C342 0.589 1_655 S
C1281 C258 0.528 . S
C1289 C376 0.589 . S
C1313 C138 0.537 . S
C1321 C292 0.563 . S
C1345 C172 0.573 . S
C1353 C326 0.569 . S
C1377 C206 0.646 . S
C1385 C360 0.572 . S
C1409 C240 0.586 . S
C1417 C394 0.565 . S
C1441 C2 0.605 . S
C1449 C428 0.571 . S
C1473 C36 0.649 . S
C1481 C462 0.571 . S
C1505 C70 0.527 . S
C1513 C496 0.564 . S
C1537 C530 0.566 . S
C1545 C104 0.565 . S
C1569 C277 1.635 . S
C1577 C9 1.614 . S
C1601 C43 1.565 . S
C1609 C311 1.651 . S
C1633 C77 1.571 1_455 S
C1641 C345 1.655 . S
C1665 C379 1.670 . S
C1673 C111 1.603 1_545 S
C1697 C145 1.595 . S
C1705 C413 1.641 . S
C1729 C179 1.626 . S
C1737 C447 1.646 . S
C1761 C481 1.637 . S
C1769 C213 1.615 1_455 S
C1793 C247 1.588 1_545 S
C1801 C515 1.659 . S
