# Generated by pormake.
# Topology mmt, (4)-cn, num edge types: 1
# Building blocks:
#     Node 0, Type 0, BuildingBlock: NAHDIM_clean_sbu_0, # of connection points: 4
#     Node 1, Type 0, BuildingBlock: NAHDIM_clean_sbu_0, # of connection points: 4
#     Node 2, Type 0, BuildingBlock: NAHDIM_clean_sbu_0, # of connection points: 4
#     Node 3, Type 0, BuildingBlock: NAHDIM_clean_sbu_0, # of connection points: 4
#     Node 4, Type 0, BuildingBlock: NAHDIM_clean_sbu_0, # of connection points: 4
#     Node 5, Type 0, BuildingBlock: NAHDIM_clean_sbu_0, # of connection points: 4
#     Node 6, Type 0, BuildingBlock: NAHDIM_clean_sbu_0, # of connection points: 4
#     Node 7, Type 0, BuildingBlock: NAHDIM_clean_sbu_0, # of connection points: 4
#     Edge 8, Type (0, 0), BuildingBlock: ZUJKAS_clean_linker_0, # of connection points: 2
#     Edge 9, Type (0, 0), BuildingBlock: ZUJKAS_clean_linker_0, # of connection points: 2
#     Edge 10, Type (0, 0), BuildingBlock: ZUJKAS_clean_linker_0, # of connection points: 2
#     Edge 11, Type (0, 0), BuildingBlock: ZUJKAS_clean_linker_0, # of connection points: 2
#     Edge 12, Type (0, 0), BuildingBlock: ZUJKAS_clean_linker_0, # of connection points: 2
#     Edge 13, Type (0, 0), BuildingBlock: ZUJKAS_clean_linker_0, # of connection points: 2
#     Edge 14, Type (0, 0), BuildingBlock: ZUJKAS_clean_linker_0, # of connection points: 2
#     Edge 15, Type (0, 0), BuildingBlock: ZUJKAS_clean_linker_0, # of connection points: 2
#     Edge 16, Type (0, 0), BuildingBlock: ZUJKAS_clean_linker_0, # of connection points: 2
#     Edge 17, Type (0, 0), BuildingBlock: ZUJKAS_clean_linker_0, # of connection points: 2
#     Edge 18, Type (0, 0), BuildingBlock: ZUJKAS_clean_linker_0, # of connection points: 2
#     Edge 19, Type (0, 0), BuildingBlock: ZUJKAS_clean_linker_0, # of connection points: 2
#     Edge 20, Type (0, 0), BuildingBlock: ZUJKAS_clean_linker_0, # of connection points: 2
#     Edge 21, Type (0, 0), BuildingBlock: ZUJKAS_clean_linker_0, # of connection points: 2
#     Edge 22, Type (0, 0), BuildingBlock: ZUJKAS_clean_linker_0, # of connection points: 2
#     Edge 23, Type (0, 0), BuildingBlock: ZUJKAS_clean_linker_0, # of connection points: 2
# Relax obj value: 0.080
# Max RMSD: 0.131
# Mean RMSD: 0.131
data_MOF--net-mmt--node1-NAHDIM_clean_sbu_0--edge1-ZUJKAS_clean_linker_0
_symmetry_space_group_name_H-M    P1
_symmetry_Int_Tables_number       1
_symmetry_cell_setting            triclinic
loop_
_symmetry_equiv_pos_as_xyz
'x, y, z'
_cell_length_a     28.627218
_cell_length_b     48.99094
_cell_length_c     57.064086
_cell_angle_alpha  90.040202
_cell_angle_beta   89.99714
_cell_angle_gamma 90.084708
loop_
_atom_site_label
_atom_site_type_symbol
_atom_site_fract_x
_atom_site_fract_y
_atom_site_fract_z
_atom_type_partial_charge
C0 C 0.0924 0.54424 0.38556 0.0
O1 O 0.06928 0.56098 0.37184 0.0
O2 O 0.17784 0.59382 0.35715 0.0
Zn3 Zn 0.16105 0.55464 0.35105 0.0
O4 O 0.11418 0.55159 0.3248 0.0
C5 C 0.23836 0.54649 0.32262 0.0
O6 O 0.21824 0.56791 0.31315 0.0
O7 O 0.13413 0.53793 0.38024 0.0
C8 C 0.11249 0.52934 0.31335 0.0
O9 O 0.14076 0.50937 0.3192 0.0
C10 C 0.15205 0.61402 0.35202 0.0
O11 O 0.11077 0.60965 0.34267 0.0
O12 O 0.21995 0.53586 0.34071 0.0
C13 C 0.39311 0.95746 0.38865 0.0
O14 O 0.41977 0.94493 0.37332 0.0
O15 O 0.30631 0.90663 0.35741 0.0
Zn16 Zn 0.32522 0.94594 0.35347 0.0
O17 O 0.37509 0.94995 0.32884 0.0
C18 C 0.24167 0.95486 0.32838 0.0
O19 O 0.25202 0.92993 0.3217 0.0
O20 O 0.34997 0.96063 0.38408 0.0
C21 C 0.37919 0.93504 0.31072 0.0
O22 O 0.34946 0.915 0.30723 0.0
C23 C 0.33411 0.88684 0.36073 0.0
O24 O 0.3792 0.89153 0.36211 0.0
O25 O 0.26854 0.96695 0.34279 0.0
C26 C 0.60228 0.44588 0.10191 0.0
O27 O 0.58186 0.42631 0.11389 0.0
O28 O 0.67775 0.40154 0.13704 0.0
Zn29 Zn 0.66374 0.44165 0.14039 0.0
O30 O 0.61357 0.44711 0.1647 0.0
C31 C 0.76219 0.45217 0.14907 0.0
O32 O 0.76808 0.42864 0.13843 0.0
O33 O 0.63993 0.45619 0.10975 0.0
C34 C 0.62327 0.45234 0.18598 0.0
O35 O 0.66722 0.45383 0.19249 0.0
C36 C 0.68745 0.38731 0.15499 0.0
O37 O 0.68774 0.39903 0.17569 0.0
O38 O 0.72128 0.46197 0.1509 0.0
C39 C 0.89004 0.04303 0.10497 0.0
O40 O 0.91243 0.06117 0.1177 0.0
O41 O 0.80981 0.08885 0.13855 0.0
Zn42 Zn 0.82621 0.04908 0.14253 0.0
O43 O 0.87628 0.04496 0.16696 0.0
C44 C 0.73418 0.04024 0.16149 0.0
O45 O 0.73393 0.06705 0.16167 0.0
O46 O 0.85065 0.0343 0.11204 0.0
C47 C 0.86905 0.05088 0.18834 0.0
O48 O 0.82789 0.06017 0.19466 0.0
C49 C 0.83691 0.10805 0.14489 0.0
O50 O 0.87795 0.10207 0.15378 0.0
O51 O 0.76971 0.02783 0.15342 0.0
C52 C 0.88923 0.44843 0.60062 0.0
O53 O 0.9142 0.43267 0.61437 0.0
O54 O 0.81273 0.40255 0.63775 0.0
Zn55 Zn 0.82794 0.44266 0.63907 0.0
O56 O 0.87981 0.44884 0.66212 0.0
C57 C 0.73098 0.45272 0.64952 0.0
O58 O 0.72539 0.42924 0.63875 0.0
O59 O 0.84887 0.45586 0.60736 0.0
C60 C 0.87462 0.44321 0.6837 0.0
O61 O 0.83456 0.43317 0.69095 0.0
C62 C 0.84187 0.38401 0.64304 0.0
O63 O 0.88455 0.39088 0.64911 0.0
O64 O 0.77162 0.4631 0.65078 0.0
C65 C 0.5954 0.04738 0.60594 0.0
O66 O 0.57223 0.06361 0.6201 0.0
O67 O 0.67452 0.09242 0.64109 0.0
Zn68 Zn 0.6598 0.05234 0.64309 0.0
O69 O 0.60987 0.04612 0.66737 0.0
C70 C 0.75832 0.04044 0.64779 0.0
O71 O 0.763 0.06171 0.63398 0.0
O72 O 0.63583 0.0393 0.61194 0.0
C73 C 0.61959 0.04029 0.68852 0.0
O74 O 0.66354 0.03857 0.69496 0.0
C75 C 0.69278 0.10456 0.65852 0.0
O76 O 0.70084 0.09071 0.6778 0.0
O77 O 0.71758 0.03204 0.65293 0.0
C78 C 0.38755 0.54672 0.89145 0.0
O79 O 0.40784 0.56638 0.87953 0.0
O80 O 0.31105 0.58968 0.8551 0.0
Zn81 Zn 0.32811 0.54995 0.85224 0.0
O82 O 0.37949 0.54496 0.82851 0.0
C83 C 0.25968 0.53434 0.81979 0.0
O84 O 0.28493 0.55154 0.80748 0.0
O85 O 0.35061 0.53589 0.88328 0.0
C86 C 0.38574 0.52157 0.81941 0.0
O87 O 0.35935 0.5011 0.82624 0.0
C88 C 0.32167 0.60685 0.83928 0.0
O89 O 0.34586 0.59872 0.82101 0.0
O90 O 0.27117 0.52964 0.84092 0.0
C91 C 0.09213 0.94542 0.89015 0.0
O92 O 0.06991 0.9268 0.87785 0.0
O93 O 0.16329 0.89883 0.8552 0.0
Zn94 Zn 0.15316 0.9393 0.85188 0.0
O95 O 0.1052 0.94722 0.82694 0.0
C96 C 0.22984 0.94693 0.82243 0.0
O97 O 0.20585 0.92806 0.8113 0.0
O98 O 0.13076 0.95461 0.8825 0.0
C99 C 0.10711 0.96971 0.81589 0.0
O100 O 0.13965 0.98753 0.82141 0.0
C101 C 0.14766 0.88156 0.84053 0.0
O102 O 0.12213 0.89007 0.82286 0.0
O103 O 0.21429 0.95592 0.84181 0.0
H104 H 0.28333 0.56434 0.28351 0.0
H105 H 0.35174 0.54454 0.26467 0.0
H106 H 0.35851 0.48261 0.31823 0.0
H107 H 0.28921 0.50212 0.33715 0.0
H108 H 0.4411 0.53687 0.28261 0.0
H109 H 0.35825 0.43847 0.25689 0.0
H110 H 0.32464 0.46754 0.26651 0.0
H111 H 0.3555 0.44706 0.28749 0.0
C112 C 0.29924 0.54649 0.29134 0.0
C113 C 0.28068 0.53471 0.31178 0.0
C114 C 0.33842 0.53524 0.28055 0.0
C115 C 0.35983 0.51196 0.28991 0.0
C116 C 0.34197 0.50033 0.31053 0.0
H117 H 0.63141 0.461 0.23317 0.0
H118 H 0.56929 0.47297 0.26076 0.0
C119 C 0.30256 0.51157 0.32136 0.0
C120 C 0.40083 0.50017 0.27782 0.0
H121 H 0.43692 0.44496 0.24613 0.0
C122 C 0.44046 0.51668 0.27481 0.0
C123 C 0.39953 0.47391 0.26753 0.0
C124 C 0.35714 0.45571 0.26954 0.0
C125 C 0.47845 0.50794 0.26124 0.0
C126 C 0.47706 0.48175 0.25081 0.0
C127 C 0.4379 0.46495 0.2543 0.0
C128 C 0.5143 0.47231 0.23475 0.0
C129 C 0.51875 0.52733 0.25733 0.0
C130 C 0.50362 0.46697 0.2112 0.0
C131 C 0.53889 0.45989 0.19544 0.0
C132 C 0.58553 0.45804 0.20298 0.0
C133 C 0.5959 0.46253 0.22677 0.0
C134 C 0.56051 0.46947 0.24255 0.0
H135 H 0.50972 0.54862 0.26226 0.0
H136 H 0.54883 0.52086 0.26825 0.0
H137 H 0.52996 0.5271 0.23871 0.0
H138 H 0.46811 0.46898 0.20486 0.0
H139 H 0.5297 0.45646 0.17726 0.0
H140 H 0.8646 0.05937 0.23576 0.0
H141 H 0.92582 0.05062 0.26479 0.0
H142 H 0.01834 0.02386 0.20976 0.0
H143 H 0.95789 0.03284 0.18068 0.0
H144 H 0.96681 0.00134 0.2743 0.0
H145 H 0.10131 0.07578 0.24676 0.0
H146 H 0.0413 0.07788 0.23715 0.0
H147 H 0.08155 0.05522 0.22269 0.0
C148 C 0.89817 0.05192 0.22982 0.0
C149 C 0.90639 0.0468 0.20591 0.0
C150 C 0.93308 0.04696 0.24642 0.0
C151 C 0.97686 0.03705 0.23938 0.0
C152 C 0.98522 0.03216 0.21552 0.0
H153 H 0.17625 0.93303 0.29926 0.0
H154 H 0.10953 0.95578 0.2815 0.0
C155 C 0.95043 0.03708 0.19894 0.0
C156 C 0.01278 0.02973 0.25694 0.0
H157 H 0.1286 0.03738 0.26952 0.0
C158 C 0.00197 0.00958 0.27356 0.0
C159 C 0.0584 0.04084 0.25626 0.0
C160 C 0.07122 0.06385 0.23991 0.0
C161 C 0.03641 -0.00105 0.28844 0.0
C162 C 0.0829 0.00843 0.28635 0.0
C163 C 0.09303 0.02988 0.27087 0.0
C164 C 0.12213 0.99466 0.29838 0.0
C165 C 0.0229 0.97721 0.30589 0.0
C166 C 0.15196 0.00915 0.31346 0.0
C167 C 0.19052 -0.00382 0.32362 0.0
C168 C 0.20004 0.96861 0.31862 0.0
C169 C 0.1699 0.95423 0.30356 0.0
C170 C 0.13147 0.96715 0.29351 0.0
H171 H 0.98537 0.97869 0.31069 0.0
H172 H 0.0287 0.9568 0.29796 0.0
H173 H 0.04423 0.9787 0.3221 0.0
H174 H 0.14554 0.03048 0.31724 0.0
H175 H 0.21318 0.00783 0.33508 0.0
H176 H 0.84972 0.43169 0.15643 0.0
H177 H 0.91078 0.45071 0.18155 0.0
H178 H 0.82525 0.52144 0.19487 0.0
H179 H 0.76345 0.50227 0.17024 0.0
H180 H 0.96155 0.49892 0.18153 0.0
H181 H 0.84812 0.49179 0.2604 0.0
H182 H 0.8329 0.47593 0.23291 0.0
H183 H 0.82453 0.51198 0.237 0.0
C184 C 0.84404 0.45143 0.16449 0.0
C185 C 0.80149 0.4653 0.16159 0.0
C186 C 0.879 0.46227 0.17884 0.0
C187 C 0.87209 0.48718 0.19047 0.0
C188 C 0.83079 0.50185 0.18651 0.0
H189 H 0.04207 0.56376 0.29989 0.0
H190 H 0.98498 0.55648 0.26847 0.0
C191 C 0.79564 0.49093 0.17232 0.0
C192 C 0.9072 0.49702 0.20758 0.0
H193 H 0.92315 0.51057 0.26575 0.0
C194 C 0.95315 0.5016 0.19993 0.0
C195 C 0.89609 0.50044 0.23159 0.0
C196 C 0.84788 0.49456 0.24108 0.0
C197 C 0.9884 0.50935 0.21569 0.0
C198 C 0.9774 0.51231 0.2397 0.0
C199 C 0.9313 0.50839 0.24727 0.0
C200 C 0.01369 0.51768 0.25757 0.0
C201 C 0.03716 0.51423 0.20658 0.0
C202 C 0.0484 0.49816 0.26188 0.0
C203 C 0.08077 0.50213 0.27985 0.0
C204 C 0.07897 0.52571 0.29389 0.0
C205 C 0.04443 0.54541 0.28936 0.0
C206 C 0.01185 0.54132 0.27143 0.0
H207 H 0.03725 0.51824 0.18742 0.0
H208 H 0.05384 0.53175 0.2157 0.0
H209 H 0.05871 0.49581 0.20986 0.0
H210 H 0.04982 0.47954 0.25166 0.0
H211 H 0.10691 0.48657 0.28287 0.0
H212 H 0.65437 0.06095 0.18052 0.0
H213 H 0.59394 0.03636 0.20207 0.0
H214 H 0.66509 0.96034 0.18899 0.0
H215 H 0.72632 0.98486 0.16755 0.0
H216 H 0.5339 0.9929 0.18923 0.0
H217 H 0.65613 0.96452 0.26107 0.0
H218 H 0.67055 0.98994 0.23937 0.0
H219 H 0.6728 0.95433 0.23198 0.0
C220 C 0.65711 0.03898 0.18204 0.0
C221 C 0.69544 0.0249 0.17252 0.0
C222 C 0.62244 0.02495 0.19432 0.0
C223 C 0.62543 -0.00338 0.19738 0.0
C224 C 0.66258 0.98229 0.18711 0.0
H225 H 0.39551 0.90965 0.26863 0.0
H226 H 0.45588 0.92097 0.23971 0.0
C227 C 0.69739 -0.00368 0.1748 0.0
C228 C 0.59062 0.98257 0.21231 0.0
H229 H 0.57758 0.95162 0.26549 0.0
C230 C 0.54339 0.98353 0.20577 0.0
C231 C 0.60327 0.97063 0.23396 0.0
C232 C 0.65335 0.96988 0.24221 0.0
C233 C 0.50824 0.97353 0.22063 0.0
C234 C 0.52086 0.96201 0.24244 0.0
C235 C 0.56817 0.96032 0.24867 0.0
C236 C 0.48537 0.95408 0.26003 0.0
C237 C 0.4578 0.97653 0.21341 0.0
C238 C 0.48277 0.96852 0.28121 0.0
C239 C 0.44861 0.96209 0.29773 0.0
C240 C 0.41639 0.94098 0.29345 0.0
C241 C 0.41966 0.92611 0.2724 0.0
C242 C 0.45396 0.93261 0.25582 0.0
H243 H 0.45374 0.99005 0.19792 0.0
H244 H 0.44339 0.95616 0.20888 0.0
H245 H 0.43671 0.98494 0.22806 0.0
H246 H 0.5068 0.98512 0.28479 0.0
H247 H 0.44725 0.97388 0.31379 0.0
H248 H 0.40025 0.47597 0.7929 0.0
H249 H 0.45784 0.46959 0.76172 0.0
H250 H 0.50807 0.55168 0.77228 0.0
H251 H 0.45044 0.55837 0.80351 0.0
H252 H 0.47024 0.50552 0.71907 0.0
H253 H 0.62503 0.49881 0.778 0.0
H254 H 0.56636 0.49243 0.78831 0.0
H255 H 0.58507 0.5267 0.78243 0.0
C256 C 0.42358 0.49267 0.78866 0.0
C257 C 0.42093 0.51764 0.80076 0.0
C258 C 0.4563 0.48901 0.77079 0.0
C259 C 0.48718 0.51012 0.76486 0.0
C260 C 0.48464 0.53511 0.77678 0.0
H261 H 0.72975 0.50165 0.6727 0.0
H262 H 0.6683 0.51912 0.69842 0.0
C263 C 0.4517 0.53887 0.79458 0.0
C264 C 0.52229 0.50577 0.74628 0.0
H265 H 0.63845 0.49442 0.73759 0.0
C266 C 0.5071 0.50325 0.72302 0.0
C267 C 0.57022 0.50305 0.75159 0.0
C268 C 0.58795 0.50522 0.77642 0.0
C269 C 0.53875 0.49779 0.70482 0.0
C270 C 0.58657 0.49409 0.71022 0.0
C271 C 0.6018 0.4973 0.73346 0.0
C272 C 0.62112 0.48527 0.69242 0.0
C273 C 0.52065 0.49622 0.68003 0.0
C274 C 0.61475 0.46062 0.68027 0.0
C275 C 0.64961 0.4507 0.66543 0.0
C276 C 0.69185 0.46503 0.66274 0.0
C277 C 0.69763 0.4901 0.67441 0.0
C278 C 0.66258 0.50011 0.68913 0.0
H279 H 0.48812 0.50831 0.6779 0.0
H280 H 0.54699 0.50372 0.66727 0.0
H281 H 0.51228 0.47466 0.67575 0.0
H282 H 0.58359 0.44847 0.68297 0.0
H283 H 0.64414 0.43124 0.65683 0.0
H284 H 0.84737 0.06064 0.64867 0.0
H285 H 0.91154 0.04593 0.67399 0.0
H286 H 0.82585 0.98067 0.70092 0.0
H287 H 0.76143 0.9952 0.67575 0.0
H288 H 0.89872 0.04379 0.7247 0.0
H289 H 0.95553 0.94456 0.68701 0.0
H290 H 0.92476 0.96998 0.67006 0.0
H291 H 0.89357 0.94902 0.69057 0.0
C292 C 0.84246 0.0428 0.6596 0.0
C293 C 0.79923 0.02915 0.66028 0.0
C294 C 0.87913 0.03447 0.67407 0.0
C295 C 0.87342 0.01215 0.68917 0.0
C296 C 0.83109 -0.00228 0.68913 0.0
H297 H 0.02965 0.94035 0.80326 0.0
H298 H 0.97381 0.95096 0.77209 0.0
C299 C 0.79428 0.00614 0.67481 0.0
C300 C 0.90972 0.00572 0.70671 0.0
H301 H 0.98573 0.95629 0.72443 0.0
C302 C 0.91811 0.02478 0.72457 0.0
C303 C 0.93433 0.98076 0.70655 0.0
C304 C 0.92701 0.95991 0.68745 0.0
C305 C 0.94991 0.01933 0.74264 0.0
C306 C 0.97488 0.99442 0.74245 0.0
C307 C 0.96661 0.97538 0.72449 0.0
C308 C 0.00942 0.9877 0.76088 0.0
C309 C 0.9553 0.03994 0.76214 0.0
C310 C 0.04829 0.00461 0.76466 0.0
C311 C 0.07993 -0.00123 0.78257 0.0
C312 C 0.07366 0.97567 0.79684 0.0
C313 C 0.03534 0.95836 0.79264 0.0
C314 C 0.00348 0.96435 0.77481 0.0
H315 H 0.92478 0.05387 0.76317 0.0
H316 H 0.95959 0.02969 0.77936 0.0
H317 H 0.9868 0.05258 0.75881 0.0
H318 H 0.05415 0.02236 0.75374 0.0
H319 H 0.10941 0.01233 0.78516 0.0
H320 H 0.23339 0.53624 0.77403 0.0
H321 H 0.16586 0.51452 0.75579 0.0
H322 H 0.12614 0.4798 0.82228 0.0
H323 H 0.19407 0.50155 0.84088 0.0
H324 H 0.14254 0.45502 0.75686 0.0
H325 H 0.0084 0.52327 0.79669 0.0
H326 H 0.06904 0.53323 0.79465 0.0
H327 H 0.05147 0.50785 0.81549 0.0
C328 C 0.21039 0.52401 0.78485 0.0
C329 C 0.21898 0.52071 0.80894 0.0
C330 C 0.17189 0.51157 0.77436 0.0
C331 C 0.14104 0.49576 0.78774 0.0
C332 C 0.1495 0.49215 0.81175 0.0
H333 H 0.8755 0.43401 0.73107 0.0
H334 H 0.93977 0.44272 0.75847 0.0
C335 C 0.18831 0.50451 0.8223 0.0
C336 C 0.09999 0.48336 0.77622 0.0
H337 H 0.98294 0.49218 0.76807 0.0
C338 C 0.10749 0.46283 0.75952 0.0
C339 C 0.05442 0.49352 0.77991 0.0
C340 C 0.04496 0.51576 0.79757 0.0
C341 C 0.0707 0.45281 0.74575 0.0
C342 C 0.02559 0.46412 0.74844 0.0
C343 C 0.01764 0.48366 0.76599 0.0
C344 C 0.98726 0.45769 0.73192 0.0
C345 C 0.08065 0.43049 0.72822 0.0
C346 C 0.99256 0.46356 0.70801 0.0
C347 C 0.95608 0.45864 0.69236 0.0
C348 C 0.91336 0.44796 0.70035 0.0
C349 C 0.90802 0.44218 0.72436 0.0
C350 C 0.94465 0.44713 0.74003 0.0
H351 H 0.11143 0.41816 0.73353 0.0
H352 H 0.05014 0.41668 0.72612 0.0
H353 H 0.08856 0.43982 0.71096 0.0
H354 H 0.02475 0.47237 0.70148 0.0
H355 H 0.96131 0.46345 0.67402 0.0
H356 H 0.28749 0.98696 0.83982 0.0
H357 H 0.35809 0.00562 0.8214 0.0
H358 H 0.33981 0.95085 0.76291 0.0
H359 H 0.27001 0.93191 0.78118 0.0
H360 H 0.43134 0.95266 0.78017 0.0
H361 H 0.35976 0.0565 0.76381 0.0
H362 H 0.35713 0.0445 0.79356 0.0
H363 H 0.32302 0.02784 0.77135 0.0
C364 C 0.2986 0.97889 0.82306 0.0
C365 C 0.27307 0.95803 0.81192 0.0
C366 C 0.33876 0.98966 0.81252 0.0
C367 C 0.35376 0.97981 0.79069 0.0
C368 C 0.32872 0.95875 0.77975 0.0
H369 H 0.52557 0.03942 0.68028 0.0
H370 H 0.46361 0.02634 0.70749 0.0
C371 C 0.28876 0.94799 0.79023 0.0
C372 C 0.39549 0.99121 0.77893 0.0
H373 H 0.43676 0.04808 0.75122 0.0
C374 C 0.43283 0.9736 0.77403 0.0
C375 C 0.39693 0.01846 0.77081 0.0
C376 C 0.35701 0.03796 0.77494 0.0
C377 C 0.47121 0.9823 0.7607 0.0
C378 C 0.47252 0.00949 0.75242 0.0
C379 C 0.43567 0.0273 0.75776 0.0
C380 C 0.51016 0.01916 0.73671 0.0
C381 C 0.50899 0.96199 0.75473 0.0
C382 C 0.55674 0.01998 0.7443 0.0
C383 C 0.59232 0.02732 0.72875 0.0
C384 C 0.58181 0.03412 0.70539 0.0
C385 C 0.53489 0.03417 0.69811 0.0
C386 C 0.49941 0.02678 0.71365 0.0
H387 H 0.49795 0.94065 0.75835 0.0
H388 H 0.51898 0.9636 0.73598 0.0
H389 H 0.54044 0.96638 0.76546 0.0
H390 H 0.56561 0.01461 0.76216 0.0
H391 H 0.62807 0.02729 0.73496 0.0
H392 H 0.13061 0.50995 0.41822 0.0
H393 H 0.09395 0.49277 0.45406 0.0
H394 H 0.96815 0.53709 0.43758 0.0
H395 H 0.00417 0.55411 0.40163 0.0
H396 H 0.0586 0.52395 0.49141 0.0
H397 H 0.92002 0.45978 0.45116 0.0
H398 H 0.96986 0.47202 0.43485 0.0
H399 H 0.92162 0.4944 0.44085 0.0
C400 C 0.09503 0.5159 0.42213 0.0
C401 C 0.07026 0.53334 0.40704 0.0
C402 C 0.07417 0.50608 0.44261 0.0
C403 C 0.02815 0.51337 0.44827 0.0
C404 C 0.00337 0.53079 0.43328 0.0
H405 H 0.84775 0.48143 0.56789 0.0
H406 H 0.8814 0.49761 0.53091 0.0
C407 C 0.02416 0.54062 0.41281 0.0
C408 C 0.00672 0.50363 0.47035 0.0
H409 H 0.91576 0.46645 0.49232 0.0
C410 C 0.02751 0.51127 0.49163 0.0
C411 C 0.96601 0.48723 0.47052 0.0
C412 C 0.94321 0.47764 0.44814 0.0
C413 C 0.00834 0.50319 0.51316 0.0
C414 C 0.96778 0.48668 0.51334 0.0
C415 C 0.94682 0.47915 0.49207 0.0
C416 C 0.94716 0.47658 0.53548 0.0
C417 C 0.03117 0.5128 0.53554 0.0
C418 C 0.97276 0.45906 0.55002 0.0
C419 C 0.95373 0.44981 0.57109 0.0
C420 C 0.90859 0.4578 0.57797 0.0
C421 C 0.88266 0.47498 0.56314 0.0
C422 C 0.90177 0.48422 0.54202 0.0
H423 H 0.05417 0.53075 0.53252 0.0
H424 H 0.00454 0.5183 0.54888 0.0
H425 H 0.05297 0.49609 0.54277 0.0
H426 H 0.0075 0.45251 0.54505 0.0
H427 H 0.97454 0.43646 0.58201 0.0
H428 H 0.34934 0.98626 0.42351 0.0
H429 H 0.38358 0.00289 0.46019 0.0
H430 H 0.51608 0.96757 0.441 0.0
H431 H 0.48256 0.9513 0.40423 0.0
H432 H 0.42442 0.97311 0.49604 0.0
H433 H 0.55205 0.04566 0.4576 0.0
H434 H 0.5045 0.03122 0.44089 0.0
H435 H 0.55667 0.0117 0.44603 0.0
C436 C 0.38584 0.98216 0.42704 0.0
C437 C 0.4133 0.96759 0.41089 0.0
C438 C 0.40531 0.99166 0.448 0.0
C439 C 0.45255 0.98686 0.4531 0.0
C440 C 0.47985 0.97206 0.43714 0.0
H441 H 0.63522 0.01618 0.57147 0.0
H442 H 0.59955 0.00142 0.53455 0.0
C443 C 0.4605 0.96263 0.41619 0.0
C444 C 0.47303 -0.00343 0.47544 0.0
H445 H 0.56063 0.03582 0.49823 0.0
C446 C 0.45397 0.98698 0.49655 0.0
C447 C 0.51163 0.01464 0.476 0.0
C448 C 0.53218 0.02663 0.45393 0.0
C449 C 0.47315 0.99452 0.51824 0.0
C450 C 0.51202 0.01234 0.51877 0.0
C451 C 0.53095 0.02205 0.4977 0.0
C452 C 0.53339 0.02129 0.54109 0.0
C453 C 0.45237 0.9829 0.5404 0.0
C454 C 0.50811 0.0376 0.55677 0.0
C455 C 0.52835 0.04612 0.57781 0.0
C456 C 0.57432 0.0385 0.58352 0.0
C457 C 0.59971 0.02232 0.56763 0.0
C458 C 0.57944 0.0139 0.54654 0.0
H459 H 0.42971 0.96495 0.53681 0.0
H460 H 0.48028 0.97674 0.55283 0.0
H461 H 0.43075 -0.00124 0.54906 0.0
H462 H 0.47276 0.04387 0.55267 0.0
H463 H 0.50788 0.05864 0.58961 0.0
H464 H 0.52258 0.4278 0.08063 0.0
H465 H 0.48672 0.44506 0.04472 0.0
H466 H 0.59699 0.5046 0.03792 0.0
H467 H 0.63353 0.48725 0.07368 0.0
H468 H 0.45473 0.49797 0.03566 0.0
H469 H 0.59458 0.46789 0.97336 0.0
H470 H 0.59093 0.45435 0.00273 0.0
H471 H 0.61435 0.48792 -0.00219 0.0
C472 C 0.53941 0.44447 0.07145 0.0
C473 C 0.58105 0.45608 0.07997 0.0
C474 C 0.51881 0.45432 0.05095 0.0
C475 C 0.53953 0.47585 0.03853 0.0
C476 C 0.58094 0.4876 0.04701 0.0
H477 H 0.46627 0.56555 0.91314 0.0
H478 H 0.50162 0.54879 0.94935 0.0
C479 C 0.60164 0.47775 0.06751 0.0
C480 C 0.51705 0.48643 0.01702 0.0
H481 H 0.53394 0.49577 0.95836 0.0
C482 C 0.47191 0.49741 0.01873 0.0
C483 C 0.53966 0.48567 0.99499 0.0
C484 C 0.58739 0.47311 0.99197 0.0
C485 C 0.449 0.50807 -0.00098 0.0
C486 C 0.47162 0.50731 0.977 0.0
C487 C 0.51676 0.49634 0.9753 0.0
C488 C 0.44914 0.5178 0.95547 0.0
C489 C 0.40123 0.52057 0.00201 0.0
C490 C 0.40803 0.50579 0.94687 0.0
C491 C 0.38765 0.51534 0.92618 0.0
C492 C 0.40824 0.53696 0.91367 0.0
C493 C 0.44945 0.5489 0.92236 0.0
C494 C 0.46977 0.53934 0.94303 0.0
H495 H 0.39391 0.52573 0.02062 0.0
H496 H 0.39772 0.53937 0.99129 0.0
H497 H 0.37434 0.50577 0.99609 0.0
H498 H 0.39205 0.48879 0.95599 0.0
H499 H 0.35605 0.50561 0.91989 0.0
H500 H 0.01047 0.92976 0.91092 0.0
H501 H 0.97682 0.94685 0.94743 0.0
H502 H 0.09477 0.00067 0.9565 0.0
H503 H 0.12856 0.98394 0.91981 0.0
H504 H 0.01547 0.94578 0.9927 0.0
H505 H 0.9819 0.05187 0.96282 0.0
H506 H 0.99441 0.02436 0.94272 0.0
H507 H 0.04092 0.04036 0.95884 0.0
C508 C 0.02925 0.9453 0.92061 0.0
C509 C 0.0721 0.9556 0.91239 0.0
C510 C 0.00997 0.955 0.94149 0.0
C511 C 0.03299 0.97527 0.95446 0.0
C512 C 0.07603 0.98539 0.94649 0.0
H513 H 0.9726 0.05844 0.08497 0.0
H514 H 0.00737 0.04131 0.04872 0.0
C515 C 0.09539 0.9757 0.92559 0.0
C516 C 0.01222 0.98544 0.97655 0.0
H517 H 0.9693 0.04261 0.00308 0.0
C518 C 0.0052 0.96692 0.99497 0.0
C519 C -0.00106 0.01303 0.9794 0.0
C520 C 0.00399 0.03356 0.95986 0.0
C521 C 0.98585 0.97537 0.01637 0.0
C522 C 0.9725 0.00295 0.01921 0.0
C523 C 0.97961 0.02148 0.00081 0.0
C524 C 0.95123 0.01305 0.04119 0.0
C525 C 0.9807 0.95485 0.03591 0.0
C526 C 0.90786 0.00302 0.04878 0.0
C527 C 0.88783 0.01276 0.0695 0.0
C528 C 0.9108 0.03279 0.08292 0.0
C529 C 0.95405 0.04296 0.0751 0.0
C530 C 0.97398 0.03323 0.05438 0.0
H531 H 0.0028 0.93654 0.03298 0.0
H532 H 0.99019 0.96406 0.05306 0.0
H533 H 0.94375 0.94806 0.03689 0.0
H534 H 0.88936 0.98779 0.0386 0.0
H535 H 0.85439 0.0046 0.07498 0.0
H536 H 0.10645 0.66215 0.34357 0.0
H537 H 0.13802 0.70849 0.34719 0.0
H538 H 0.26902 0.67579 0.37154 0.0
H539 H 0.23806 0.62949 0.36795 0.0
H540 H 0.17948 0.73505 0.3885 0.0
H541 H 0.30278 0.72421 0.31373 0.0
H542 H 0.25369 0.70155 0.31798 0.0
H543 H 0.30531 0.69778 0.33554 0.0
C544 C 0.14192 0.66482 0.34977 0.0
C545 C 0.16983 0.64212 0.35532 0.0
C546 C 0.15983 0.69128 0.35185 0.0
C547 C 0.20597 0.69543 0.35932 0.0
C548 C 0.23353 0.67291 0.36541 0.0
H549 H 0.38235 0.83973 0.36969 0.0
H550 H 0.35121 0.79317 0.37113 0.0
C551 C 0.21566 0.64649 0.36343 0.0
C552 C 0.22561 0.72331 0.36049 0.0
H553 H 0.30746 0.76495 0.33572 0.0
C554 C 0.2074 0.74168 0.37697 0.0
C555 C 0.26217 0.7317 0.34548 0.0
C556 C 0.28203 0.71291 0.32703 0.0
C557 C 0.22521 0.76828 0.379 0.0
C558 C 0.26143 0.77681 0.36378 0.0
C559 C 0.2798 0.75833 0.34741 0.0
C560 C 0.27985 0.80507 0.36398 0.0
C561 C 0.20564 0.78683 0.39769 0.0
C562 C 0.2501 0.82712 0.3593 0.0
C563 C 0.2677 0.85368 0.35855 0.0
C564 C 0.31555 0.8587 0.36222 0.0
C565 C 0.34534 0.83656 0.36683 0.0
C566 C 0.32762 0.80996 0.36766 0.0
H567 H 0.18879 0.77503 0.41201 0.0
H568 H 0.23336 0.79996 0.40537 0.0
H569 H 0.17871 0.80024 0.3898 0.0
H570 H 0.21335 0.82374 0.35582 0.0
H571 H 0.24383 0.87024 0.35476 0.0
H572 H 0.88261 0.15347 0.16068 0.0
H573 H 0.85468 0.20059 0.16036 0.0
H574 H 0.7286 0.17489 0.1253 0.0
H575 H 0.7558 0.12759 0.12592 0.0
H576 H 0.82989 0.23439 0.12343 0.0
H577 H 0.67918 0.2156 0.18266 0.0
H578 H 0.72558 0.19113 0.17872 0.0
H579 H 0.68047 0.19438 0.157 0.0
C580 C 0.84897 0.15782 0.15285 0.0
C581 C 0.82126 0.13675 0.14349 0.0
C582 C 0.83311 0.18476 0.15266 0.0
C583 C 0.78927 0.19113 0.14316 0.0
C584 C 0.7621 0.1703 0.13318 0.0
H585 H 0.6931 0.3571 0.11469 0.0
H586 H 0.71651 0.30927 0.11085 0.0
C587 C 0.77784 0.14331 0.13344 0.0
C588 C 0.77202 0.21958 0.14391 0.0
H589 H 0.68561 0.25983 0.16634 0.0
C590 C 0.79829 0.23998 0.13275 0.0
C591 C 0.73106 0.22678 0.15633 0.0
C592 C 0.70259 0.2059 0.16955 0.0
C593 C 0.7847 0.26747 0.13367 0.0
C594 C 0.74336 0.2746 0.14577 0.0
C595 C 0.71707 0.2542 0.15692 0.0
C596 C 0.7279 0.30329 0.14797 0.0
C597 C 0.81536 0.28873 0.12226 0.0
C598 C 0.72536 0.31549 0.17017 0.0
C599 C 0.71179 0.34272 0.17246 0.0
C600 C 0.70028 0.35821 0.15256 0.0
C601 C 0.70199 0.34576 0.13035 0.0
C602 C 0.71558 0.31849 0.1281 0.0
H603 H 0.85083 0.28073 0.11839 0.0
H604 H 0.79927 0.29521 0.10547 0.0
H605 H 0.8188 0.30703 0.13363 0.0
H606 H 0.73454 0.30402 0.18573 0.0
H607 H 0.7107 0.35165 0.18982 0.0
H608 H 0.68401 0.13854 0.62075 0.0
H609 H 0.70965 0.18606 0.61765 0.0
H610 H 0.75959 0.18349 0.68891 0.0
H611 H 0.7337 0.13608 0.69229 0.0
H612 H 0.7065 0.23019 0.67813 0.0
H613 H 0.84645 0.21189 0.61255 0.0
H614 H 0.78994 0.19895 0.60445 0.0
H615 H 0.81991 0.18468 0.62923 0.0
C616 C 0.70042 0.14808 0.63578 0.0
C617 C 0.707 0.1335 0.65674 0.0
C618 C 0.71527 0.17516 0.63392 0.0
C619 C 0.73712 0.18808 0.65293 0.0
C620 C 0.74301 0.17378 0.674 0.0
H621 H 0.89456 0.33935 0.65423 0.0
H622 H 0.86875 0.29179 0.6566 0.0
C623 C 0.72821 0.1467 0.67588 0.0
C624 C 0.75334 0.21666 0.65101 0.0
H625 H 0.8291 0.25809 0.62148 0.0
C626 C 0.73333 0.23632 0.66578 0.0
C627 C 0.78875 0.22444 0.63506 0.0
C628 C 0.8129 0.20389 0.61954 0.0
C629 C 0.74737 0.26374 0.66481 0.0
C630 C 0.78185 0.27166 0.64841 0.0
C631 C 0.80235 0.25193 0.63387 0.0
C632 C 0.79752 0.30032 0.64632 0.0
C633 C 0.72575 0.28391 0.6816 0.0
C634 C 0.76616 0.32071 0.63933 0.0
C635 C 0.78073 0.34787 0.63797 0.0
C636 C 0.82704 0.35509 0.64347 0.0
C637 C 0.85864 0.33449 0.64995 0.0
C638 C 0.844 0.30731 0.6513 0.0
H639 H 0.70862 0.27354 0.69664 0.0
H640 H 0.75245 0.29831 0.68847 0.0
H641 H 0.6988 0.29597 0.67224 0.0
H642 H 0.73035 0.31561 0.635 0.0
H643 H 0.75557 0.36322 0.63279 0.0
H644 H 0.27112 0.63041 0.87462 0.0
H645 H 0.24028 0.67691 0.87606 0.0
H646 H 0.30183 0.6939 0.80865 0.0
H647 H 0.33342 0.64761 0.80716 0.0
H648 H 0.31671 0.73501 0.84127 0.0
H649 H 0.12957 0.70528 0.8377 0.0
H650 H 0.16205 0.68942 0.86091 0.0
H651 H 0.17618 0.68179 0.83092 0.0
C652 C 0.27819 0.64404 0.86011 0.0
C653 C 0.30454 0.63527 0.84071 0.0
C654 C 0.26027 0.67054 0.86091 0.0
C655 C 0.26809 0.68864 0.84227 0.0
C656 C 0.29519 0.68015 0.82314 0.0
H657 H 0.12781 0.84026 0.80981 0.0
H658 H 0.15663 0.7933 0.81098 0.0
C659 C 0.3132 0.65369 0.82233 0.0
C660 C 0.24848 0.71657 0.84277 0.0
H661 H 0.14602 0.7521 0.84451 0.0
C662 C 0.27941 0.73878 0.84198 0.0
C663 C 0.19977 0.72134 0.84337 0.0
C664 C 0.16486 0.69823 0.84305 0.0
C665 C 0.26295 0.76573 0.84199 0.0
C666 C 0.21429 0.77052 0.84326 0.0
C667 C 0.18332 0.74831 0.8438 0.0
C668 C 0.19488 0.79849 0.84338 0.0
C669 C 0.29773 0.78881 0.84014 0.0
C670 C 0.20591 0.8167 0.86153 0.0
C671 C 0.18963 0.84355 0.8609 0.0
C672 C 0.16174 0.85259 0.84216 0.0
C673 C 0.14934 0.83398 0.82445 0.0
C674 C 0.16575 0.80714 0.82508 0.0
H675 H 0.33209 0.78167 0.83348 0.0
H676 H 0.28461 0.80511 0.82835 0.0
H677 H 0.30331 0.79784 0.85775 0.0
H678 H 0.22754 0.81022 0.87607 0.0
H679 H 0.19952 0.8573 0.87492 0.0
loop_
_geom_bond_atom_site_label_1
_geom_bond_atom_site_label_2
_geom_bond_distance
_geom_bond_site_symmetry_2
_ccdc_geom_bond_type
C0 O1 1.160 . S
C0 O7 1.185 . S
O1 C0 1.160 . S
O2 Zn3 1.899 . S
O2 C10 1.284 . S
Zn3 O2 1.899 . S
Zn3 O4 2.032 . S
Zn3 O7 2.086 . S
Zn3 O12 1.977 . S
O4 Zn3 2.032 . S
O4 C8 1.278 . S
C5 O6 1.203 . S
C5 O12 1.267 . S
O6 C5 1.203 . S
O7 C0 1.185 . S
O7 Zn3 2.086 . S
C8 O4 1.278 . S
C8 O9 1.211 . S
O9 C8 1.211 . S
C10 O2 1.284 . S
C10 O11 1.273 . S
O11 C10 1.273 . S
O12 Zn3 1.977 . S
O12 C5 1.267 . S
C13 O14 1.160 . S
C13 O20 1.185 . S
O14 C13 1.160 . S
O15 Zn16 1.899 . S
O15 C23 1.284 . S
Zn16 O15 1.899 . S
Zn16 O17 2.032 . S
Zn16 O20 2.086 . S
Zn16 O25 1.977 . S
O17 Zn16 2.032 . S
O17 C21 1.278 . S
C18 O19 1.203 . S
C18 O25 1.267 . S
O19 C18 1.203 . S
O20 C13 1.185 . S
O20 Zn16 2.086 . S
C21 O17 1.278 . S
C21 O22 1.211 . S
O22 C21 1.211 . S
C23 O15 1.284 . S
C23 O24 1.273 . S
O24 C23 1.273 . S
O25 Zn16 1.977 . S
O25 C18 1.267 . S
C26 O27 1.160 . S
C26 O33 1.185 . S
O27 C26 1.160 . S
O28 Zn29 1.899 . S
O28 C36 1.284 . S
Zn29 O28 1.899 . S
Zn29 O30 2.032 . S
Zn29 O33 2.086 . S
Zn29 O38 1.977 . S
O30 Zn29 2.032 . S
O30 C34 1.278 . S
C31 O32 1.203 . S
C31 O38 1.267 . S
O32 C31 1.203 . S
O33 C26 1.185 . S
O33 Zn29 2.086 . S
C34 O30 1.278 . S
C34 O35 1.211 . S
O35 C34 1.211 . S
C36 O28 1.284 . S
C36 O37 1.273 . S
O37 C36 1.273 . S
O38 Zn29 1.977 . S
O38 C31 1.267 . S
C39 O40 1.160 . S
C39 O46 1.185 . S
O40 C39 1.160 . S
O41 Zn42 1.899 . S
O41 C49 1.284 . S
Zn42 O41 1.899 . S
Zn42 O43 2.032 . S
Zn42 O46 2.086 . S
Zn42 O51 1.977 . S
O43 Zn42 2.032 . S
O43 C47 1.278 . S
C44 O45 1.203 . S
C44 O51 1.267 . S
O45 C44 1.203 . S
O46 C39 1.185 . S
O46 Zn42 2.086 . S
C47 O43 1.278 . S
C47 O48 1.211 . S
O48 C47 1.211 . S
C49 O41 1.284 . S
C49 O50 1.273 . S
O50 C49 1.273 . S
O51 Zn42 1.977 . S
O51 C44 1.267 . S
C52 O53 1.160 . S
C52 O59 1.185 . S
O53 C52 1.160 . S
O54 Zn55 1.899 . S
O54 C62 1.284 . S
Zn55 O54 1.899 . S
Zn55 O56 2.032 . S
Zn55 O59 2.086 . S
Zn55 O64 1.977 . S
O56 Zn55 2.032 . S
O56 C60 1.278 . S
C57 O58 1.203 . S
C57 O64 1.267 . S
O58 C57 1.203 . S
O59 C52 1.185 . S
O59 Zn55 2.086 . S
C60 O56 1.278 . S
C60 O61 1.211 . S
O61 C60 1.211 . S
C62 O54 1.284 . S
C62 O63 1.273 . S
O63 C62 1.273 . S
O64 Zn55 1.977 . S
O64 C57 1.267 . S
C65 O66 1.160 . S
C65 O72 1.185 . S
O66 C65 1.160 . S
O67 Zn68 1.899 . S
O67 C75 1.284 . S
Zn68 O67 1.899 . S
Zn68 O69 2.032 . S
Zn68 O72 2.086 . S
Zn68 O77 1.977 . S
O69 Zn68 2.032 . S
O69 C73 1.278 . S
C70 O71 1.203 . S
C70 O77 1.267 . S
O71 C70 1.203 . S
O72 C65 1.185 . S
O72 Zn68 2.086 . S
C73 O69 1.278 . S
C73 O74 1.211 . S
O74 C73 1.211 . S
C75 O67 1.284 . S
C75 O76 1.273 . S
O76 C75 1.273 . S
O77 Zn68 1.977 . S
O77 C70 1.267 . S
C78 O79 1.160 . S
C78 O85 1.185 . S
O79 C78 1.160 . S
O80 Zn81 1.899 . S
O80 C88 1.284 . S
Zn81 O80 1.899 . S
Zn81 O82 2.032 . S
Zn81 O85 2.086 . S
Zn81 O90 1.977 . S
O82 Zn81 2.032 . S
O82 C86 1.278 . S
C83 O84 1.203 . S
C83 O90 1.267 . S
O84 C83 1.203 . S
O85 C78 1.185 . S
O85 Zn81 2.086 . S
C86 O82 1.278 . S
C86 O87 1.211 . S
O87 C86 1.211 . S
C88 O80 1.284 . S
C88 O89 1.273 . S
O89 C88 1.273 . S
O90 Zn81 1.977 . S
O90 C83 1.267 . S
C91 O92 1.160 . S
C91 O98 1.185 . S
O92 C91 1.160 . S
O93 Zn94 1.899 . S
O93 C101 1.284 . S
Zn94 O93 1.899 . S
Zn94 O95 2.032 . S
Zn94 O98 2.086 . S
Zn94 O103 1.977 . S
O95 Zn94 2.032 . S
O95 C99 1.278 . S
C96 O97 1.203 . S
C96 O103 1.267 . S
O97 C96 1.203 . S
O98 C91 1.185 . S
O98 Zn94 2.086 . S
C99 O95 1.278 . S
C99 O100 1.211 . S
O100 C99 1.211 . S
C101 O93 1.284 . S
C101 O102 1.273 . S
O102 C101 1.273 . S
O103 Zn94 1.977 . S
O103 C96 1.267 . S
H104 C112 0.929 . S
H105 C114 0.930 . S
H106 C116 0.930 . S
H107 C119 0.929 . S
H108 C122 0.930 . S
H109 C124 0.960 . S
H110 C124 0.960 . S
H111 C124 0.960 . S
C112 H104 0.929 . S
C112 C113 1.377 . S
C112 C114 1.384 . S
C113 C112 1.377 . S
C113 C119 1.390 . S
C114 H105 0.930 . S
C114 C112 1.384 . S
C114 C115 1.372 . S
C115 C114 1.372 . S
C115 C116 1.400 . S
C115 C120 1.490 . S
C116 H106 0.930 . S
C116 C115 1.400 . S
C116 C119 1.386 . S
H117 C133 0.930 . S
H118 C134 0.931 . S
C119 H107 0.929 . S
C119 C113 1.390 . S
C119 C116 1.386 . S
C120 C115 1.490 . S
C120 C122 1.395 . S
C120 C123 1.403 . S
H121 C127 0.930 . S
C122 H108 0.930 . S
C122 C120 1.395 . S
C122 C125 1.403 . S
C123 C120 1.403 . S
C123 C124 1.524 . S
C123 C127 1.400 . S
C124 H109 0.960 . S
C124 H110 0.960 . S
C124 H111 0.960 . S
C124 C123 1.524 . S
C125 C122 1.403 . S
C125 C126 1.392 . S
C125 C129 1.495 . S
C126 C125 1.392 . S
C126 C127 1.385 . S
C126 C128 1.478 . S
C127 H121 0.930 . S
C127 C123 1.400 . S
C127 C126 1.385 . S
C128 C126 1.478 . S
C128 C130 1.381 . S
C128 C134 1.383 . S
C129 C125 1.495 . S
C129 H135 0.959 . S
C129 H136 0.961 . S
C129 H137 0.960 . S
C130 C128 1.381 . S
C130 C131 1.394 . S
C130 H138 0.930 . S
C131 C130 1.394 . S
C131 C132 1.383 . S
C131 H139 0.929 . S
C132 C131 1.383 . S
C132 C133 1.377 . S
C133 H117 0.930 . S
C133 C132 1.377 . S
C133 C134 1.379 . S
C134 H118 0.931 . S
C134 C128 1.383 . S
C134 C133 1.379 . S
H135 C129 0.959 . S
H136 C129 0.961 . S
H137 C129 0.960 . S
H138 C130 0.930 . S
H139 C131 0.929 . S
H140 C148 0.929 . S
H141 C150 0.930 . S
H142 C152 0.930 1_565 S
H143 C155 0.929 . S
H144 C158 0.930 . S
H145 C160 0.960 . S
H146 C160 0.960 . S
H147 C160 0.960 . S
C148 H140 0.929 . S
C148 C149 1.377 . S
C148 C150 1.384 1_655 S
C149 C148 1.377 . S
C149 C155 1.390 . S
C150 H141 0.930 . S
C150 C148 1.384 1_455 S
C150 C151 1.372 . S
C151 C150 1.372 . S
C151 C152 1.400 . S
C151 C156 1.490 . S
C152 H142 0.930 1_545 S
C152 C151 1.400 . S
C152 C155 1.386 1_455 S
H153 C169 0.930 . S
H154 C170 0.931 . S
C155 H143 0.929 . S
C155 C149 1.390 . S
C155 C152 1.386 1_655 S
C156 C151 1.490 . S
C156 C158 1.395 . S
C156 C159 1.403 . S
H157 C163 0.930 . S
C158 H144 0.930 . S
C158 C156 1.395 . S
C158 C161 1.403 . S
C159 C156 1.403 . S
C159 C160 1.524 . S
C159 C163 1.400 . S
C160 H145 0.960 . S
C160 H146 0.960 . S
C160 H147 0.960 . S
C160 C159 1.524 . S
C161 C158 1.403 . S
C161 C162 1.389 1_545 S
C161 C165 1.495 1_545 S
C162 C161 1.389 1_565 S
C162 C163 1.380 1_565 S
C162 C164 1.486 . S
C163 H157 0.930 . S
C163 C159 1.400 . S
C163 C162 1.380 1_545 S
C164 C162 1.486 . S
C164 C166 1.381 1_565 S
C164 C170 1.383 . S
C165 C161 1.495 1_565 S
C165 H171 0.959 1_565 S
C165 H172 0.961 . S
C165 H173 0.960 1_565 S
C166 C164 1.381 1_545 S
C166 C167 1.394 1_545 S
C166 H174 0.930 . S
C167 C166 1.394 1_565 S
C167 C168 1.383 . S
C167 H175 0.929 1_565 S
C168 C167 1.383 . S
C168 C169 1.377 . S
C169 H153 0.930 . S
C169 C168 1.377 . S
C169 C170 1.379 . S
C170 H154 0.931 . S
C170 C164 1.383 . S
C170 C169 1.379 . S
H171 C165 0.959 1_545 S
H172 C165 0.961 . S
H173 C165 0.960 1_545 S
H174 C166 0.930 . S
H175 C167 0.929 1_545 S
H176 C184 0.929 . S
H177 C186 0.930 . S
H178 C188 0.930 . S
H179 C191 0.929 . S
H180 C194 0.930 . S
H181 C196 0.960 . S
H182 C196 0.960 . S
H183 C196 0.960 . S
C184 H176 0.929 . S
C184 C185 1.377 . S
C184 C186 1.384 . S
C185 C184 1.377 . S
C185 C191 1.390 . S
C186 H177 0.930 . S
C186 C184 1.384 . S
C186 C187 1.372 . S
C187 C186 1.372 . S
C187 C188 1.400 . S
C187 C192 1.490 . S
C188 H178 0.930 . S
C188 C187 1.400 . S
C188 C191 1.386 . S
H189 C205 0.927 1_655 S
H190 C206 0.931 . S
C191 H179 0.929 . S
C191 C185 1.390 . S
C191 C188 1.386 . S
C192 C187 1.490 . S
C192 C194 1.395 . S
C192 C195 1.403 . S
H193 C199 0.930 . S
C194 H180 0.930 . S
C194 C192 1.395 . S
C194 C197 1.403 . S
C195 C192 1.403 . S
C195 C196 1.524 . S
C195 C199 1.400 . S
C196 H181 0.960 . S
C196 H182 0.960 . S
C196 H183 0.960 . S
C196 C195 1.524 . S
C197 C194 1.403 . S
C197 C198 1.392 . S
C197 C201 1.495 . S
C198 C197 1.392 . S
C198 C199 1.385 . S
C198 C200 1.478 . S
C199 H193 0.930 . S
C199 C195 1.400 . S
C199 C198 1.385 . S
C200 C198 1.478 . S
C200 C202 1.381 1_655 S
C200 C206 1.383 . S
C201 C197 1.495 . S
C201 H207 0.959 . S
C201 H208 0.961 . S
C201 H209 0.960 1_655 S
C202 C200 1.381 1_455 S
C202 C203 1.394 . S
C202 H210 0.930 . S
C203 C202 1.394 . S
C203 C204 1.383 . S
C203 H211 0.929 . S
C204 C203 1.383 . S
C204 C205 1.393 . S
C205 H189 0.927 1_455 S
C205 C204 1.393 . S
C205 C206 1.366 1_455 S
C206 H190 0.931 . S
C206 C200 1.383 . S
C206 C205 1.366 1_655 S
H207 C201 0.959 . S
H208 C201 0.961 . S
H209 C201 0.960 1_455 S
H210 C202 0.930 . S
H211 C203 0.929 . S
H212 C220 0.929 . S
H213 C222 0.930 . S
H214 C224 0.930 . S
H215 C227 0.929 1_565 S
H216 C230 0.930 . S
H217 C232 0.960 . S
H218 C232 0.960 . S
H219 C232 0.960 . S
C220 H212 0.929 . S
C220 C221 1.377 . S
C220 C222 1.384 . S
C221 C220 1.377 . S
C221 C227 1.390 . S
C222 H213 0.930 . S
C222 C220 1.384 . S
C222 C223 1.372 . S
C223 C222 1.372 . S
C223 C224 1.400 1_545 S
C223 C228 1.490 . S
C224 H214 0.930 . S
C224 C223 1.400 1_565 S
C224 C227 1.386 1_565 S
H225 C241 0.930 . S
H226 C242 0.931 . S
C227 H215 0.929 1_545 S
C227 C221 1.390 . S
C227 C224 1.386 1_545 S
C228 C223 1.490 . S
C228 C230 1.395 . S
C228 C231 1.403 1_545 S
H229 C235 0.930 . S
C230 H216 0.930 . S
C230 C228 1.395 . S
C230 C233 1.403 . S
C231 C228 1.403 1_565 S
C231 C232 1.524 . S
C231 C235 1.400 . S
C232 H217 0.960 . S
C232 H218 0.960 . S
C232 H219 0.960 . S
C232 C231 1.524 . S
C233 C230 1.403 . S
C233 C234 1.392 1_545 S
C233 C237 1.495 . S
C234 C233 1.392 1_565 S
C234 C235 1.385 . S
C234 C236 1.478 . S
C235 H229 0.930 . S
C235 C231 1.400 . S
C235 C234 1.385 . S
C236 C234 1.478 . S
C236 C238 1.381 . S
C236 C242 1.383 . S
C237 C233 1.495 . S
C237 H243 0.959 . S
C237 H244 0.961 1_545 S
C237 H245 0.960 . S
C238 C236 1.381 . S
C238 C239 1.394 . S
C238 H246 0.930 1_565 S
C239 C238 1.394 . S
C239 C240 1.383 . S
C239 H247 0.929 . S
C240 C239 1.383 . S
C240 C241 1.377 . S
C241 H225 0.930 . S
C241 C240 1.377 . S
C241 C242 1.379 . S
C242 H226 0.931 . S
C242 C236 1.383 . S
C242 C241 1.379 . S
H243 C237 0.959 . S
H244 C237 0.961 1_565 S
H245 C237 0.960 . S
H246 C238 0.930 1_545 S
H247 C239 0.929 . S
H248 C256 0.929 . S
H249 C258 0.930 . S
H250 C260 0.930 . S
H251 C263 0.929 . S
H252 C266 0.930 . S
H253 C268 0.960 . S
H254 C268 0.960 . S
H255 C268 0.960 . S
C256 H248 0.929 . S
C256 C257 1.377 . S
C256 C258 1.384 . S
C257 C256 1.377 . S
C257 C263 1.390 . S
C258 H249 0.930 . S
C258 C256 1.384 . S
C258 C259 1.372 . S
C259 C258 1.372 . S
C259 C260 1.400 . S
C259 C264 1.490 . S
C260 H250 0.930 . S
C260 C259 1.400 . S
C260 C263 1.386 . S
H261 C277 0.930 . S
H262 C278 0.931 . S
C263 H251 0.929 . S
C263 C257 1.390 . S
C263 C260 1.386 . S
C264 C259 1.490 . S
C264 C266 1.395 . S
C264 C267 1.403 . S
H265 C271 0.930 . S
C266 H252 0.930 . S
C266 C264 1.395 . S
C266 C269 1.403 . S
C267 C264 1.403 . S
C267 C268 1.524 . S
C267 C271 1.400 . S
C268 H253 0.960 . S
C268 H254 0.960 . S
C268 H255 0.960 . S
C268 C267 1.524 . S
C269 C266 1.403 . S
C269 C270 1.392 . S
C269 C273 1.495 . S
C270 C269 1.392 . S
C270 C271 1.385 . S
C270 C272 1.478 . S
C271 H265 0.930 . S
C271 C267 1.400 . S
C271 C270 1.385 . S
C272 C270 1.478 . S
C272 C274 1.381 . S
C272 C278 1.383 . S
C273 C269 1.495 . S
C273 H279 0.959 . S
C273 H280 0.961 . S
C273 H281 0.960 . S
C274 C272 1.381 . S
C274 C275 1.394 . S
C274 H282 0.930 . S
C275 C274 1.394 . S
C275 C276 1.383 . S
C275 H283 0.929 . S
C276 C275 1.383 . S
C276 C277 1.377 . S
C277 H261 0.930 . S
C277 C276 1.377 . S
C277 C278 1.379 . S
C278 H262 0.931 . S
C278 C272 1.383 . S
C278 C277 1.379 . S
H279 C273 0.959 . S
H280 C273 0.961 . S
H281 C273 0.960 . S
H282 C274 0.930 . S
H283 C275 0.929 . S
H284 C292 0.929 . S
H285 C294 0.930 . S
H286 C296 0.950 . S
H287 C299 0.929 . S
H288 C302 0.930 . S
H289 C304 0.960 . S
H290 C304 0.960 . S
H291 C304 0.960 . S
C292 H284 0.929 . S
C292 C293 1.377 . S
C292 C294 1.384 . S
C293 C292 1.377 . S
C293 C299 1.390 . S
C294 H285 0.930 . S
C294 C292 1.384 . S
C294 C295 1.372 . S
C295 C294 1.372 . S
C295 C296 1.388 1_545 S
C295 C300 1.490 . S
C296 H286 0.950 . S
C296 C295 1.388 1_565 S
C296 C299 1.377 1_565 S
H297 C313 0.930 . S
H298 C314 0.931 . S
C299 H287 0.929 . S
C299 C293 1.390 . S
C299 C296 1.377 1_545 S
C300 C295 1.490 . S
C300 C302 1.395 . S
C300 C303 1.403 1_545 S
H301 C307 0.930 . S
C302 H288 0.930 . S
C302 C300 1.395 . S
C302 C305 1.403 . S
C303 C300 1.403 1_565 S
C303 C304 1.524 . S
C303 C307 1.400 . S
C304 H289 0.960 . S
C304 H290 0.960 . S
C304 H291 0.960 . S
C304 C303 1.524 . S
C305 C302 1.403 . S
C305 C306 1.392 1_545 S
C305 C309 1.495 . S
C306 C305 1.392 1_565 S
C306 C307 1.385 . S
C306 C308 1.478 . S
C307 H301 0.930 . S
C307 C303 1.400 . S
C307 C306 1.385 . S
C308 C306 1.478 . S
C308 C310 1.381 1_655 S
C308 C314 1.383 . S
C309 C305 1.495 . S
C309 H315 0.959 . S
C309 H316 0.961 . S
C309 H317 0.960 . S
C310 C308 1.381 1_455 S
C310 C311 1.394 . S
C310 H318 0.937 . S
C311 C310 1.394 . S
C311 C312 1.383 . S
C311 H319 0.929 . S
C312 C311 1.383 . S
C312 C313 1.377 1_455 S
C313 H297 0.930 . S
C313 C312 1.377 1_655 S
C313 C314 1.379 . S
C314 H298 0.931 . S
C314 C308 1.383 . S
C314 C313 1.379 . S
H315 C309 0.959 . S
H316 C309 0.961 . S
H317 C309 0.960 . S
H318 C310 0.937 . S
H319 C311 0.929 . S
H320 C328 0.929 . S
H321 C330 0.930 . S
H322 C332 0.930 . S
H323 C335 0.929 . S
H324 C338 0.930 . S
H325 C340 0.960 . S
H326 C340 0.960 . S
H327 C340 0.960 . S
C328 H320 0.929 . S
C328 C329 1.377 . S
C328 C330 1.384 . S
C329 C328 1.377 . S
C329 C335 1.390 . S
C330 H321 0.930 . S
C330 C328 1.384 . S
C330 C331 1.372 . S
C331 C330 1.372 . S
C331 C332 1.400 . S
C331 C336 1.490 . S
C332 H322 0.930 . S
C332 C331 1.400 . S
C332 C335 1.386 . S
H333 C349 0.930 . S
H334 C350 0.931 . S
C335 H323 0.929 . S
C335 C329 1.390 . S
C335 C332 1.386 . S
C336 C331 1.490 . S
C336 C338 1.395 . S
C336 C339 1.403 . S
H337 C343 0.930 . S
C338 H324 0.930 . S
C338 C336 1.395 . S
C338 C341 1.403 . S
C339 C336 1.403 . S
C339 C340 1.524 . S
C339 C343 1.400 . S
C340 H325 0.960 . S
C340 H326 0.960 . S
C340 H327 0.960 . S
C340 C339 1.524 . S
C341 C338 1.403 . S
C341 C342 1.392 . S
C341 C345 1.495 . S
C342 C341 1.392 . S
C342 C343 1.385 . S
C342 C344 1.478 . S
C343 H337 0.930 . S
C343 C339 1.400 . S
C343 C342 1.385 . S
C344 C342 1.478 . S
C344 C346 1.381 . S
C344 C350 1.383 . S
C345 C341 1.495 . S
C345 H351 0.959 . S
C345 H352 0.961 . S
C345 H353 0.960 . S
C346 C344 1.381 . S
C346 C347 1.394 1_455 S
C346 H354 0.930 . S
C347 C346 1.394 1_655 S
C347 C348 1.383 . S
C347 H355 0.929 . S
C348 C347 1.383 . S
C348 C349 1.377 . S
C349 H333 0.930 . S
C349 C348 1.377 . S
C349 C350 1.379 1_655 S
C350 H334 0.931 . S
C350 C344 1.383 . S
C350 C349 1.379 1_455 S
H351 C345 0.959 . S
H352 C345 0.961 . S
H353 C345 0.960 . S
H354 C346 0.930 . S
H355 C347 0.929 . S
H356 C364 0.929 . S
H357 C366 0.930 . S
H358 C368 0.930 . S
H359 C371 0.929 . S
H360 C374 0.930 . S
H361 C376 0.960 . S
H362 C376 0.960 . S
H363 C376 0.960 . S
C364 H356 0.929 . S
C364 C365 1.377 . S
C364 C366 1.384 . S
C365 C364 1.377 . S
C365 C371 1.390 . S
C366 H357 0.930 . S
C366 C364 1.384 . S
C366 C367 1.372 . S
C367 C366 1.372 . S
C367 C368 1.400 . S
C367 C372 1.490 . S
C368 H358 0.930 . S
C368 C367 1.400 . S
C368 C371 1.386 . S
H369 C385 0.930 . S
H370 C386 0.931 . S
C371 H359 0.929 . S
C371 C365 1.390 . S
C371 C368 1.386 . S
C372 C367 1.490 . S
C372 C374 1.395 . S
C372 C375 1.403 1_565 S
H373 C379 0.930 . S
C374 H360 0.930 . S
C374 C372 1.395 . S
C374 C377 1.403 . S
C375 C372 1.403 1_545 S
C375 C376 1.524 . S
C375 C379 1.400 . S
C376 H361 0.960 . S
C376 H362 0.960 . S
C376 H363 0.960 . S
C376 C375 1.524 . S
C377 C374 1.403 . S
C377 C378 1.392 1_565 S
C377 C381 1.495 . S
C378 C377 1.392 1_545 S
C378 C379 1.385 . S
C378 C380 1.478 . S
C379 H373 0.930 . S
C379 C375 1.400 . S
C379 C378 1.385 . S
C380 C378 1.478 . S
C380 C382 1.381 . S
C380 C386 1.383 . S
C381 C377 1.495 . S
C381 H387 0.959 . S
C381 H388 0.961 . S
C381 H389 0.960 . S
C382 C380 1.381 . S
C382 C383 1.394 . S
C382 H390 0.930 . S
C383 C382 1.394 . S
C383 C384 1.383 . S
C383 H391 0.929 . S
C384 C383 1.383 . S
C384 C385 1.377 . S
C385 H369 0.930 . S
C385 C384 1.377 . S
C385 C386 1.379 . S
C386 H370 0.931 . S
C386 C380 1.383 . S
C386 C385 1.379 . S
H387 C381 0.959 . S
H388 C381 0.961 . S
H389 C381 0.960 . S
H390 C382 0.930 . S
H391 C383 0.929 . S
H392 C400 0.929 . S
H393 C402 0.930 . S
H394 C404 0.930 1_655 S
H395 C407 0.929 . S
H396 C410 0.930 . S
H397 C412 0.960 . S
H398 C412 0.960 1_455 S
H399 C412 0.960 . S
C400 H392 0.929 . S
C400 C401 1.377 . S
C400 C402 1.384 . S
C401 C400 1.377 . S
C401 C407 1.390 . S
C402 H393 0.930 . S
C402 C400 1.384 . S
C402 C403 1.372 . S
C403 C402 1.372 . S
C403 C404 1.400 . S
C403 C408 1.490 . S
C404 H394 0.930 1_455 S
C404 C403 1.400 . S
C404 C407 1.386 . S
H405 C421 0.930 . S
H406 C422 0.931 . S
C407 H395 0.929 . S
C407 C401 1.390 . S
C407 C404 1.386 . S
C408 C403 1.490 . S
C408 C410 1.395 . S
C408 C411 1.403 1_455 S
H409 C415 0.930 . S
C410 H396 0.930 . S
C410 C408 1.395 . S
C410 C413 1.403 . S
C411 C408 1.403 1_655 S
C411 C412 1.524 . S
C411 C415 1.400 . S
C412 H397 0.960 . S
C412 H398 0.960 1_655 S
C412 H399 0.960 . S
C412 C411 1.524 . S
C413 C410 1.403 . S
C413 C414 1.392 1_455 S
C413 C417 1.495 . S
C414 C413 1.392 1_655 S
C414 C415 1.385 . S
C414 C416 1.478 . S
C415 H409 0.930 . S
C415 C411 1.400 . S
C415 C414 1.385 . S
C416 C414 1.478 . S
C416 C418 1.381 . S
C416 C422 1.383 . S
C417 C413 1.495 . S
C417 H423 0.959 . S
C417 H424 0.961 1_455 S
C417 H425 0.960 . S
C418 C416 1.381 . S
C418 C419 1.394 . S
C418 H426 0.930 1_655 S
C419 C418 1.394 . S
C419 C420 1.383 . S
C419 H427 0.929 . S
C420 C419 1.383 . S
C420 C421 1.377 . S
C421 H405 0.930 . S
C421 C420 1.377 . S
C421 C422 1.379 . S
C422 H406 0.931 . S
C422 C416 1.383 . S
C422 C421 1.379 . S
H423 C417 0.959 . S
H424 C417 0.961 1_655 S
H425 C417 0.960 . S
H426 C418 0.930 1_455 S
H427 C419 0.929 . S
H428 C436 0.929 . S
H429 C438 0.930 . S
H430 C440 0.930 . S
H431 C443 0.929 . S
H432 C446 0.930 . S
H433 C448 0.960 . S
H434 C448 0.960 . S
H435 C448 0.960 . S
C436 H428 0.929 . S
C436 C437 1.377 . S
C436 C438 1.384 . S
C437 C436 1.377 . S
C437 C443 1.390 . S
C438 H429 0.930 . S
C438 C436 1.384 . S
C438 C439 1.372 . S
C439 C438 1.372 . S
C439 C440 1.400 . S
C439 C444 1.490 . S
C440 H430 0.930 . S
C440 C439 1.400 . S
C440 C443 1.386 . S
H441 C457 0.930 . S
H442 C458 0.931 . S
C443 H431 0.929 . S
C443 C437 1.390 . S
C443 C440 1.386 . S
C444 C439 1.490 . S
C444 C446 1.395 . S
C444 C447 1.403 1_565 S
H445 C451 0.930 . S
C446 H432 0.930 . S
C446 C444 1.395 . S
C446 C449 1.403 . S
C447 C444 1.403 1_545 S
C447 C448 1.524 . S
C447 C451 1.400 . S
C448 H433 0.960 . S
C448 H434 0.960 . S
C448 H435 0.960 . S
C448 C447 1.524 . S
C449 C446 1.403 . S
C449 C450 1.392 1_565 S
C449 C453 1.495 . S
C450 C449 1.392 1_545 S
C450 C451 1.385 . S
C450 C452 1.478 . S
C451 H445 0.930 . S
C451 C447 1.400 . S
C451 C450 1.385 . S
C452 C450 1.478 . S
C452 C454 1.381 . S
C452 C458 1.383 . S
C453 C449 1.495 . S
C453 H459 0.959 . S
C453 H460 0.961 . S
C453 H461 0.960 . S
C454 C452 1.381 . S
C454 C455 1.394 . S
C454 H462 0.930 . S
C455 C454 1.394 . S
C455 C456 1.383 . S
C455 H463 0.929 . S
C456 C455 1.383 . S
C456 C457 1.377 . S
C457 H441 0.930 . S
C457 C456 1.377 . S
C457 C458 1.379 . S
C458 H442 0.931 . S
C458 C452 1.383 . S
C458 C457 1.379 . S
H459 C453 0.959 . S
H460 C453 0.961 . S
H461 C453 0.960 . S
H462 C454 0.930 . S
H463 C455 0.929 . S
H464 C472 0.929 . S
H465 C474 0.930 . S
H466 C476 0.930 . S
H467 C479 0.929 . S
H468 C482 0.930 . S
H469 C484 0.960 . S
H470 C484 0.956 1_554 S
H471 C484 0.960 1_554 S
C472 H464 0.929 . S
C472 C473 1.377 . S
C472 C474 1.384 . S
C473 C472 1.377 . S
C473 C479 1.390 . S
C474 H465 0.930 . S
C474 C472 1.384 . S
C474 C475 1.372 . S
C475 C474 1.372 . S
C475 C476 1.400 . S
C475 C480 1.490 . S
C476 H466 0.930 . S
C476 C475 1.400 . S
C476 C479 1.386 . S
H477 C493 0.930 . S
H478 C494 0.931 . S
C479 H467 0.929 . S
C479 C473 1.390 . S
C479 C476 1.386 . S
C480 C475 1.490 . S
C480 C482 1.395 . S
C480 C483 1.404 . S
H481 C487 0.930 . S
C482 H468 0.930 . S
C482 C480 1.395 . S
C482 C485 1.403 . S
C483 C480 1.404 . S
C483 C484 1.524 1_554 S
C483 C487 1.399 1_554 S
C484 H469 0.960 . S
C484 H470 0.956 1_556 S
C484 H471 0.960 1_556 S
C484 C483 1.524 1_556 S
C485 C482 1.403 . S
C485 C486 1.392 1_554 S
C485 C489 1.495 . S
C486 C485 1.392 1_556 S
C486 C487 1.385 . S
C486 C488 1.478 . S
C487 H481 0.930 . S
C487 C483 1.399 1_556 S
C487 C486 1.385 . S
C488 C486 1.478 . S
C488 C490 1.381 . S
C488 C494 1.383 . S
C489 C485 1.495 . S
C489 H495 0.959 . S
C489 H496 0.961 1_554 S
C489 H497 0.960 1_554 S
C490 C488 1.381 . S
C490 C491 1.394 . S
C490 H498 0.930 . S
C491 C490 1.394 . S
C491 C492 1.383 . S
C491 H499 0.929 . S
C492 C491 1.383 . S
C492 C493 1.377 . S
C493 H477 0.930 . S
C493 C492 1.377 . S
C493 C494 1.379 . S
C494 H478 0.931 . S
C494 C488 1.383 . S
C494 C493 1.379 . S
H495 C489 0.959 . S
H496 C489 0.961 1_556 S
H497 C489 0.960 1_556 S
H498 C490 0.930 . S
H499 C491 0.929 . S
H500 C508 0.929 . S
H501 C510 0.930 . S
H502 C512 0.956 . S
H503 C515 0.929 1_545 S
H504 C518 0.930 . S
H505 C520 0.960 . S
H506 C520 0.960 . S
H507 C520 0.960 1_455 S
C508 H500 0.929 . S
C508 C509 1.377 . S
C508 C510 1.384 . S
C509 C508 1.377 . S
C509 C515 1.390 . S
C510 H501 0.930 . S
C510 C508 1.384 . S
C510 C511 1.372 . S
C511 C510 1.372 . S
C511 C512 1.382 1_565 S
C511 C516 1.490 . S
C512 H502 0.956 . S
C512 C511 1.382 1_545 S
C512 C515 1.378 1_545 S
H513 C529 0.930 . S
H514 C530 0.931 . S
C515 H503 0.929 1_565 S
C515 C509 1.390 . S
C515 C512 1.378 1_565 S
C516 C511 1.490 . S
C516 C518 1.394 . S
C516 C519 1.403 1_465 S
H517 C523 0.930 . S
C518 H504 0.930 . S
C518 C516 1.394 . S
C518 C521 1.404 1_556 S
C519 C516 1.403 1_645 S
C519 C520 1.524 . S
C519 C523 1.400 1_556 S
C520 H505 0.960 . S
C520 H506 0.960 . S
C520 H507 0.960 1_655 S
C520 C519 1.524 . S
C521 C518 1.404 1_554 S
C521 C522 1.392 1_465 S
C521 C525 1.495 . S
C522 C521 1.392 1_645 S
C522 C523 1.385 . S
C522 C524 1.478 . S
C523 H517 0.930 . S
C523 C519 1.400 1_554 S
C523 C522 1.385 . S
C524 C522 1.478 . S
C524 C526 1.381 1_545 S
C524 C530 1.383 . S
C525 C521 1.495 . S
C525 H531 0.959 . S
C525 H532 0.961 . S
C525 H533 0.960 1_455 S
C526 C524 1.381 1_565 S
C526 C527 1.394 1_565 S
C526 H534 0.930 . S
C527 C526 1.394 1_545 S
C527 C528 1.383 . S
C527 H535 0.929 1_545 S
C528 C527 1.383 . S
C528 C529 1.377 . S
C529 H513 0.930 . S
C529 C528 1.377 . S
C529 C530 1.379 . S
C530 H514 0.931 . S
C530 C524 1.383 . S
C530 C529 1.379 . S
H531 C525 0.959 . S
H532 C525 0.961 . S
H533 C525 0.960 1_655 S
H534 C526 0.930 . S
H535 C527 0.929 1_565 S
H536 C544 0.929 . S
H537 C546 0.930 . S
H538 C548 0.930 . S
H539 C551 0.929 . S
H540 C554 0.930 . S
H541 C556 0.960 . S
H542 C556 0.960 . S
H543 C556 0.960 . S
C544 H536 0.929 . S
C544 C545 1.377 . S
C544 C546 1.384 . S
C545 C544 1.377 . S
C545 C551 1.390 . S
C546 H537 0.930 . S
C546 C544 1.384 . S
C546 C547 1.372 . S
C547 C546 1.372 . S
C547 C548 1.400 . S
C547 C552 1.490 . S
C548 H538 0.930 . S
C548 C547 1.400 . S
C548 C551 1.386 . S
H549 C565 0.930 . S
H550 C566 0.931 . S
C551 H539 0.929 . S
C551 C545 1.390 . S
C551 C548 1.386 . S
C552 C547 1.490 . S
C552 C554 1.395 . S
C552 C555 1.403 . S
H553 C559 0.930 . S
C554 H540 0.930 . S
C554 C552 1.395 . S
C554 C557 1.403 . S
C555 C552 1.403 . S
C555 C556 1.524 . S
C555 C559 1.400 . S
C556 H541 0.960 . S
C556 H542 0.960 . S
C556 H543 0.960 . S
C556 C555 1.524 . S
C557 C554 1.403 . S
C557 C558 1.392 . S
C557 C561 1.495 . S
C558 C557 1.392 . S
C558 C559 1.385 . S
C558 C560 1.478 . S
C559 H553 0.930 . S
C559 C555 1.400 . S
C559 C558 1.385 . S
C560 C558 1.478 . S
C560 C562 1.381 . S
C560 C566 1.383 . S
C561 C557 1.495 . S
C561 H567 0.959 . S
C561 H568 0.961 . S
C561 H569 0.960 . S
C562 C560 1.381 . S
C562 C563 1.394 . S
C562 H570 0.930 . S
C563 C562 1.394 . S
C563 C564 1.383 . S
C563 H571 0.929 . S
C564 C563 1.383 . S
C564 C565 1.377 . S
C565 H549 0.930 . S
C565 C564 1.377 . S
C565 C566 1.379 . S
C566 H550 0.931 . S
C566 C560 1.383 . S
C566 C565 1.379 . S
H567 C561 0.959 . S
H568 C561 0.961 . S
H569 C561 0.960 . S
H570 C562 0.930 . S
H571 C563 0.929 . S
H572 C580 0.929 . S
H573 C582 0.930 . S
H574 C584 0.930 . S
H575 C587 0.929 . S
H576 C590 0.930 . S
H577 C592 0.960 . S
H578 C592 0.960 . S
H579 C592 0.960 . S
C580 H572 0.929 . S
C580 C581 1.377 . S
C580 C582 1.384 . S
C581 C580 1.377 . S
C581 C587 1.390 . S
C582 H573 0.930 . S
C582 C580 1.384 . S
C582 C583 1.372 . S
C583 C582 1.372 . S
C583 C584 1.400 . S
C583 C588 1.490 . S
C584 H574 0.930 . S
C584 C583 1.400 . S
C584 C587 1.386 . S
H585 C601 0.930 . S
H586 C602 0.931 . S
C587 H575 0.929 . S
C587 C581 1.390 . S
C587 C584 1.386 . S
C588 C583 1.490 . S
C588 C590 1.395 . S
C588 C591 1.403 . S
H589 C595 0.930 . S
C590 H576 0.930 . S
C590 C588 1.395 . S
C590 C593 1.403 . S
C591 C588 1.403 . S
C591 C592 1.524 . S
C591 C595 1.400 . S
C592 H577 0.960 . S
C592 H578 0.960 . S
C592 H579 0.960 . S
C592 C591 1.524 . S
C593 C590 1.403 . S
C593 C594 1.392 . S
C593 C597 1.495 . S
C594 C593 1.392 . S
C594 C595 1.385 . S
C594 C596 1.478 . S
C595 H589 0.930 . S
C595 C591 1.400 . S
C595 C594 1.385 . S
C596 C594 1.478 . S
C596 C598 1.381 . S
C596 C602 1.383 . S
C597 C593 1.495 . S
C597 H603 0.959 . S
C597 H604 0.961 . S
C597 H605 0.960 . S
C598 C596 1.381 . S
C598 C599 1.394 . S
C598 H606 0.930 . S
C599 C598 1.394 . S
C599 C600 1.383 . S
C599 H607 0.929 . S
C600 C599 1.383 . S
C600 C601 1.377 . S
C601 H585 0.930 . S
C601 C600 1.377 . S
C601 C602 1.379 . S
C602 H586 0.931 . S
C602 C596 1.383 . S
C602 C601 1.379 . S
H603 C597 0.959 . S
H604 C597 0.961 . S
H605 C597 0.960 . S
H606 C598 0.930 . S
H607 C599 0.929 . S
H608 C616 0.929 . S
H609 C618 0.930 . S
H610 C620 0.930 . S
H611 C623 0.929 . S
H612 C626 0.930 . S
H613 C628 0.960 . S
H614 C628 0.960 . S
H615 C628 0.960 . S
C616 H608 0.929 . S
C616 C617 1.377 . S
C616 C618 1.384 . S
C617 C616 1.377 . S
C617 C623 1.390 . S
C618 H609 0.930 . S
C618 C616 1.384 . S
C618 C619 1.372 . S
C619 C618 1.372 . S
C619 C620 1.400 . S
C619 C624 1.490 . S
C620 H610 0.930 . S
C620 C619 1.400 . S
C620 C623 1.386 . S
H621 C637 0.930 . S
H622 C638 0.931 . S
C623 H611 0.929 . S
C623 C617 1.390 . S
C623 C620 1.386 . S
C624 C619 1.490 . S
C624 C626 1.395 . S
C624 C627 1.403 . S
H625 C631 0.930 . S
C626 H612 0.930 . S
C626 C624 1.395 . S
C626 C629 1.403 . S
C627 C624 1.403 . S
C627 C628 1.524 . S
C627 C631 1.400 . S
C628 H613 0.960 . S
C628 H614 0.960 . S
C628 H615 0.960 . S
C628 C627 1.524 . S
C629 C626 1.403 . S
C629 C630 1.392 . S
C629 C633 1.495 . S
C630 C629 1.392 . S
C630 C631 1.385 . S
C630 C632 1.478 . S
C631 H625 0.930 . S
C631 C627 1.400 . S
C631 C630 1.385 . S
C632 C630 1.478 . S
C632 C634 1.381 . S
C632 C638 1.383 . S
C633 C629 1.495 . S
C633 H639 0.959 . S
C633 H640 0.961 . S
C633 H641 0.960 . S
C634 C632 1.381 . S
C634 C635 1.394 . S
C634 H642 0.930 . S
C635 C634 1.394 . S
C635 C636 1.383 . S
C635 H643 0.929 . S
C636 C635 1.383 . S
C636 C637 1.377 . S
C637 H621 0.930 . S
C637 C636 1.377 . S
C637 C638 1.379 . S
C638 H622 0.931 . S
C638 C632 1.383 . S
C638 C637 1.379 . S
H639 C633 0.959 . S
H640 C633 0.961 . S
H641 C633 0.960 . S
H642 C634 0.930 . S
H643 C635 0.929 . S
H644 C652 0.929 . S
H645 C654 0.930 . S
H646 C656 0.930 . S
H647 C659 0.929 . S
H648 C662 0.930 . S
H649 C664 0.960 . S
H650 C664 0.960 . S
H651 C664 0.960 . S
C652 H644 0.929 . S
C652 C653 1.377 . S
C652 C654 1.384 . S
C653 C652 1.377 . S
C653 C659 1.390 . S
C654 H645 0.930 . S
C654 C652 1.384 . S
C654 C655 1.372 . S
C655 C654 1.372 . S
C655 C656 1.400 . S
C655 C660 1.490 . S
C656 H646 0.930 . S
C656 C655 1.400 . S
C656 C659 1.386 . S
H657 C673 0.930 . S
H658 C674 0.931 . S
C659 H647 0.929 . S
C659 C653 1.390 . S
C659 C656 1.386 . S
C660 C655 1.490 . S
C660 C662 1.395 . S
C660 C663 1.403 . S
H661 C667 0.930 . S
C662 H648 0.930 . S
C662 C660 1.395 . S
C662 C665 1.403 . S
C663 C660 1.403 . S
C663 C664 1.524 . S
C663 C667 1.400 . S
C664 H649 0.960 . S
C664 H650 0.960 . S
C664 H651 0.960 . S
C664 C663 1.524 . S
C665 C662 1.403 . S
C665 C666 1.392 . S
C665 C669 1.495 . S
C666 C665 1.392 . S
C666 C667 1.385 . S
C666 C668 1.478 . S
C667 H661 0.930 . S
C667 C663 1.400 . S
C667 C666 1.385 . S
C668 C666 1.478 . S
C668 C670 1.381 . S
C668 C674 1.383 . S
C669 C665 1.495 . S
C669 H675 0.959 . S
C669 H676 0.961 . S
C669 H677 0.960 . S
C670 C668 1.381 . S
C670 C671 1.394 . S
C670 H678 0.930 . S
C671 C670 1.394 . S
C671 C672 1.383 . S
C671 H679 0.929 . S
C672 C671 1.383 . S
C672 C673 1.377 . S
C673 H657 0.930 . S
C673 C672 1.377 . S
C673 C674 1.379 . S
C674 H658 0.931 . S
C674 C668 1.383 . S
C674 C673 1.379 . S
H675 C669 0.959 . S
H676 C669 0.961 . S
H677 C669 0.960 . S
H678 C670 0.930 . S
H679 C671 0.929 . S
C113 C5 1.040 . S
C132 C34 1.015 . S
C149 C47 1.057 . S
C168 C18 1.060 . S
C185 C31 1.039 . S
C204 C8 1.025 . S
C221 C44 1.040 . S
C240 C21 1.015 . S
C257 C86 1.050 . S
C276 C57 1.066 . S
C293 C70 1.052 . S
C312 C99 1.043 . S
C329 C83 1.040 . S
C348 C60 1.083 . S
C365 C96 1.054 . S
C384 C73 1.019 . S
C401 C0 1.488 . S
C420 C52 1.498 . S
C437 C13 1.488 . S
C456 C65 1.497 . S
C473 C26 1.481 . S
C492 C78 1.485 . S
C509 C91 1.482 . S
C528 C39 1.493 . S
C545 C10 1.503 . S
C564 C23 1.510 . S
C581 C49 1.503 . S
C600 C36 1.500 . S
C617 C75 1.506 . S
C636 C62 1.502 . S
C653 C88 1.506 . S
C672 C101 1.504 . S
