# Generated by pormake.
# Topology wkh, (6)-cn, num edge types: 1
# Building blocks:
#     Node 0, Type 0, BuildingBlock: IZENUY_clean_sbu_0, # of connection points: 6
#     Node 1, Type 0, BuildingBlock: IZENUY_clean_sbu_0, # of connection points: 6
#     Node 2, Type 0, BuildingBlock: IZENUY_clean_sbu_0, # of connection points: 6
#     Node 3, Type 0, BuildingBlock: IZENUY_clean_sbu_0, # of connection points: 6
#     Node 4, Type 0, BuildingBlock: IZENUY_clean_sbu_0, # of connection points: 6
#     Node 5, Type 0, BuildingBlock: IZENUY_clean_sbu_0, # of connection points: 6
#     Node 6, Type 0, BuildingBlock: IZENUY_clean_sbu_0, # of connection points: 6
#     Node 7, Type 0, BuildingBlock: IZENUY_clean_sbu_0, # of connection points: 6
#     Node 8, Type 0, BuildingBlock: IZENUY_clean_sbu_0, # of connection points: 6
#     Node 9, Type 0, BuildingBlock: IZENUY_clean_sbu_0, # of connection points: 6
#     Node 10, Type 0, BuildingBlock: IZENUY_clean_sbu_0, # of connection points: 6
#     Node 11, Type 0, BuildingBlock: IZENUY_clean_sbu_0, # of connection points: 6
#     Edge 12, Type (0, 0), BuildingBlock: CIFDUS_clean_linker_0, # of connection points: 2
#     Edge 13, Type (0, 0), BuildingBlock: CIFDUS_clean_linker_0, # of connection points: 2
#     Edge 14, Type (0, 0), BuildingBlock: CIFDUS_clean_linker_0, # of connection points: 2
#     Edge 15, Type (0, 0), BuildingBlock: CIFDUS_clean_linker_0, # of connection points: 2
#     Edge 16, Type (0, 0), BuildingBlock: CIFDUS_clean_linker_0, # of connection points: 2
#     Edge 17, Type (0, 0), BuildingBlock: CIFDUS_clean_linker_0, # of connection points: 2
#     Edge 18, Type (0, 0), BuildingBlock: CIFDUS_clean_linker_0, # of connection points: 2
#     Edge 19, Type (0, 0), BuildingBlock: CIFDUS_clean_linker_0, # of connection points: 2
#     Edge 20, Type (0, 0), BuildingBlock: CIFDUS_clean_linker_0, # of connection points: 2
#     Edge 21, Type (0, 0), BuildingBlock: CIFDUS_clean_linker_0, # of connection points: 2
#     Edge 22, Type (0, 0), BuildingBlock: CIFDUS_clean_linker_0, # of connection points: 2
#     Edge 23, Type (0, 0), BuildingBlock: CIFDUS_clean_linker_0, # of connection points: 2
#     Edge 24, Type (0, 0), BuildingBlock: CIFDUS_clean_linker_0, # of connection points: 2
#     Edge 25, Type (0, 0), BuildingBlock: CIFDUS_clean_linker_0, # of connection points: 2
#     Edge 26, Type (0, 0), BuildingBlock: CIFDUS_clean_linker_0, # of connection points: 2
#     Edge 27, Type (0, 0), BuildingBlock: CIFDUS_clean_linker_0, # of connection points: 2
#     Edge 28, Type (0, 0), BuildingBlock: CIFDUS_clean_linker_0, # of connection points: 2
#     Edge 29, Type (0, 0), BuildingBlock: CIFDUS_clean_linker_0, # of connection points: 2
#     Edge 30, Type (0, 0), BuildingBlock: CIFDUS_clean_linker_0, # of connection points: 2
#     Edge 31, Type (0, 0), BuildingBlock: CIFDUS_clean_linker_0, # of connection points: 2
#     Edge 32, Type (0, 0), BuildingBlock: CIFDUS_clean_linker_0, # of connection points: 2
#     Edge 33, Type (0, 0), BuildingBlock: CIFDUS_clean_linker_0, # of connection points: 2
#     Edge 34, Type (0, 0), BuildingBlock: CIFDUS_clean_linker_0, # of connection points: 2
#     Edge 35, Type (0, 0), BuildingBlock: CIFDUS_clean_linker_0, # of connection points: 2
#     Edge 36, Type (0, 0), BuildingBlock: CIFDUS_clean_linker_0, # of connection points: 2
#     Edge 37, Type (0, 0), BuildingBlock: CIFDUS_clean_linker_0, # of connection points: 2
#     Edge 38, Type (0, 0), BuildingBlock: CIFDUS_clean_linker_0, # of connection points: 2
#     Edge 39, Type (0, 0), BuildingBlock: CIFDUS_clean_linker_0, # of connection points: 2
#     Edge 40, Type (0, 0), BuildingBlock: CIFDUS_clean_linker_0, # of connection points: 2
#     Edge 41, Type (0, 0), BuildingBlock: CIFDUS_clean_linker_0, # of connection points: 2
#     Edge 42, Type (0, 0), BuildingBlock: CIFDUS_clean_linker_0, # of connection points: 2
#     Edge 43, Type (0, 0), BuildingBlock: CIFDUS_clean_linker_0, # of connection points: 2
#     Edge 44, Type (0, 0), BuildingBlock: CIFDUS_clean_linker_0, # of connection points: 2
#     Edge 45, Type (0, 0), BuildingBlock: CIFDUS_clean_linker_0, # of connection points: 2
#     Edge 46, Type (0, 0), BuildingBlock: CIFDUS_clean_linker_0, # of connection points: 2
#     Edge 47, Type (0, 0), BuildingBlock: CIFDUS_clean_linker_0, # of connection points: 2
# Relax obj value: 0.285
# Max RMSD: 0.257
# Mean RMSD: 0.257
data_MOF--net-wkh--node1-IZENUY_clean_sbu_0--edge1-CIFDUS_clean_linker_0
_symmetry_space_group_name_H-M    P1
_symmetry_Int_Tables_number       1
_symmetry_cell_setting            triclinic
loop_
_symmetry_equiv_pos_as_xyz
'x, y, z'
_cell_length_a     23.513714
_cell_length_b     23.414952
_cell_length_c     68.286879
_cell_angle_alpha  89.607763
_cell_angle_beta   89.803166
_cell_angle_gamma 119.97565
loop_
_atom_site_label
_atom_site_type_symbol
_atom_site_fract_x
_atom_site_fract_y
_atom_site_fract_z
_atom_type_partial_charge
Fe0 Fe 0.22554 0.32062 1.03272 0.0
Fe1 Fe 0.33077 0.28087 1.03514 0.0
O2 O 0.29397 0.32429 0.04474 0.0
Fe3 Fe 0.32538 0.37117 0.06631 0.0
O4 O 0.2477 0.3214 0.07894 0.0
O5 O 0.1857 0.32657 0.05566 0.0
O6 O 0.17734 0.23289 1.03606 0.0
C7 C 0.19491 0.19365 1.02993 0.0
C8 C 0.28117 0.44585 0.04332 0.0
O9 O 0.25421 0.21344 1.02541 0.0
C10 C 0.44094 0.39995 0.04838 0.0
O11 O 0.25159 0.31123 1.00764 0.0
O12 O 0.35031 0.32674 1.01234 0.0
O13 O 0.30075 0.43337 0.05936 0.0
O14 O 0.27027 0.40851 1.02897 0.0
C15 C 0.33219 0.25502 0.07404 0.0
O16 O 0.41403 0.34007 0.04334 0.0
O17 O 0.40634 0.42326 0.05508 0.0
C18 C 0.30612 0.32075 1.00074 0.0
O19 O 0.31271 0.23199 0.05723 0.0
O20 O 0.35213 0.31554 0.07746 0.0
C21 C 0.1934 0.31384 0.07326 0.0
Fe22 Fe 0.95424 0.33867 0.23102 0.0
Fe23 Fe 0.91629 0.2321 0.19958 0.0
O24 O 0.97596 0.30512 0.21109 0.0
Fe25 Fe 0.05792 0.34445 0.20253 0.0
O26 O 0.08622 0.33166 0.22589 0.0
O27 O 0.03371 0.36917 0.24365 0.0
O28 O 0.92507 0.26361 0.24528 0.0
C29 C 0.88123 0.20673 0.24025 0.0
C30 C 0.04345 0.45368 0.21278 0.0
O31 O 0.86712 0.19356 0.22226 0.0
C32 C 0.99699 0.3123 0.16756 0.0
O33 O 0.86914 0.31001 0.22216 0.0
O34 O 0.86891 0.27049 0.19313 0.0
O35 O 0.07778 0.42733 0.20927 0.0
O36 O 0.98413 0.41848 0.21843 0.0
C37 C 0.01784 0.2097 0.19921 0.0
O38 O 0.95519 0.2566 0.17486 0.0
O39 O 0.03382 0.35911 0.17865 0.0
C40 C 0.84116 0.28692 0.20583 0.0
O41 O 0.96033 0.18943 0.20528 0.0
O42 O 0.05464 0.26919 0.19427 0.0
C43 C 0.07739 0.35246 0.24197 0.0
Fe44 Fe 0.69047 0.91918 0.36904 0.0
Fe45 Fe 0.71576 0.05885 0.37551 0.0
O46 O 0.67417 0.97491 0.38211 0.0
Fe47 Fe 0.61649 0.94743 0.40159 0.0
O48 O 0.66327 0.91844 0.41505 0.0
O49 O 0.67918 0.86577 0.39092 0.0
O50 O 0.77614 0.96369 0.37531 0.0
C51 C 0.81286 0.02298 0.37055 0.0
C52 C 0.56157 0.83853 0.37467 0.0
O53 O 0.78973 0.0602 0.36696 0.0
C54 C 0.58963 0.03742 0.38481 0.0
O55 O 0.70759 0.96502 0.34496 0.0
O56 O 0.67886 0.03836 0.35156 0.0
O57 O 0.56369 0.86416 0.39123 0.0
O58 O 0.60564 0.87044 0.36207 0.0
C59 C 0.72215 0.06776 0.41518 0.0
O60 O 0.65073 0.07452 0.38293 0.0
O61 O 0.5662 0.97715 0.38949 0.0
C62 C 0.69645 0.01053 0.33916 0.0
O63 O 0.75382 0.08214 0.39924 0.0
O64 O 0.6616 0.02411 0.41583 0.0
C65 C 0.68077 0.87868 0.40909 0.0
Fe66 Fe 0.69023 0.61294 0.56491 0.0
Fe67 Fe 0.80096 0.72253 0.53997 0.0
O68 O 0.72162 0.68637 0.55069 0.0
Fe69 Fe 0.67449 0.72623 0.54819 0.0
O70 O 0.63307 0.6994 0.57193 0.0
O71 O 0.68478 0.65607 0.58658 0.0
O72 O 0.76944 0.62937 0.57425 0.0
C73 C 0.82469 0.6812 0.57547 0.0
C74 C 0.57668 0.60028 0.54481 0.0
O75 O 0.84036 0.72915 0.56379 0.0
C76 C 0.73576 0.74704 0.51077 0.0
O77 O 0.69822 0.56607 0.5446 0.0
O78 O 0.79658 0.64465 0.53525 0.0
O79 O 0.60879 0.65539 0.53621 0.0
O80 O 0.60371 0.58339 0.55804 0.0
C81 C 0.79615 0.83049 0.55526 0.0
O82 O 0.76865 0.7195 0.51525 0.0
O83 O 0.70735 0.76154 0.52396 0.0
C84 C 0.75286 0.58454 0.53589 0.0
O85 O 0.81907 0.80667 0.54316 0.0
O86 O 0.7367 0.79895 0.56038 0.0
C87 C 0.65611 0.68947 0.58735 0.0
Fe88 Fe 0.0855 0.68313 0.73213 0.0
Fe89 Fe 0.09516 0.78992 0.70357 0.0
O90 O 0.04974 0.71025 0.71415 0.0
Fe91 Fe 0.96642 0.65874 0.70769 0.0
O92 O 0.9397 0.61824 0.73166 0.0
O93 O 0.02449 0.67552 0.75032 0.0
O94 O 0.14016 0.76519 0.74231 0.0
C95 C 0.13704 0.81759 0.74172 0.0
C96 C 1.00059 0.56558 0.71041 0.0
O97 O 0.10993 0.82918 0.72752 0.0
C98 C 0.02671 0.72184 0.67149 0.0
O99 O 0.15093 0.69278 0.71534 0.0
O100 O 0.17218 0.7903 0.70423 0.0
O101 O 0.98301 0.59605 0.69889 0.0
O102 O 0.03569 0.59488 0.72525 0.0
C103 C 0.97408 0.77791 0.71139 0.0
O104 O 0.08301 0.7578 0.67871 0.0
O105 O 0.97696 0.68977 0.68246 0.0
C106 C 0.18917 0.74741 0.70681 0.0
O107 O 0.02586 0.80259 0.70128 0.0
O108 O 0.94535 0.71829 0.71656 0.0
C109 C 0.96299 0.64233 0.74814 0.0
Fe110 Fe 0.32847 0.09816 0.86915 0.0
Fe111 Fe 0.29326 0.95407 0.87528 0.0
O112 O 0.34195 0.03837 0.88125 0.0
Fe113 Fe 0.40413 0.06242 0.89914 0.0
O114 O 0.36685 0.0982 0.91426 0.0
O115 O 0.3489 0.15257 0.89086 0.0
O116 O 0.24503 0.05998 0.87751 0.0
C117 C 0.20333 1.00084 0.87466 0.0
C118 C 0.4594 0.17104 0.8714 0.0
O119 O 0.21967 0.95908 0.8697 0.0
C120 C 0.41897 0.96695 0.88053 0.0
O121 O 0.30398 0.0533 0.84538 0.0
O122 O 0.32173 0.9706 0.85026 0.0
O123 O 0.45946 0.14454 0.88775 0.0
O124 O 0.41166 0.14148 0.86003 0.0
C125 C 0.29712 0.94393 0.91492 0.0
O126 O 0.35707 0.93241 0.87986 0.0
O127 O 0.44615 0.02718 0.88532 0.0
C128 C 0.31258 1.0074 0.83875 0.0
O129 O 0.26201 0.93253 0.89997 0.0
O130 O 0.35816 0.98634 0.91429 0.0
C131 C 0.35386 0.14212 0.90892 0.0
Fe132 Fe 0.72916 0.66903 0.87566 0.0
Fe133 Fe 0.64087 0.68109 0.84509 0.0
O134 O 0.68909 0.71013 0.86652 0.0
Fe135 Fe 0.69828 0.78012 0.87908 0.0
O136 O 0.78674 0.82386 0.87555 0.0
O137 O 0.79692 0.74153 0.88671 0.0
O138 O 0.77869 0.68952 0.85381 0.0
C139 C 0.75652 0.67469 0.83669 0.0
C140 C 0.68884 0.69153 0.91004 0.0
O141 O 0.69631 0.6556 0.83315 0.0
C142 C 0.57132 0.72799 0.86936 0.0
O143 O 0.6706 0.58824 0.86628 0.0
O144 O 0.58821 0.59831 0.85576 0.0
O145 O 0.70515 0.74924 0.90376 0.0
O146 O 0.68129 0.64753 0.89807 0.0
C147 C 0.6985 0.81448 0.83864 0.0
O148 O 0.58014 0.70606 0.85321 0.0
O149 O 0.61102 0.74081 0.88321 0.0
C150 C 0.61083 0.56242 0.86194 0.0
O151 O 0.68922 0.75977 0.83258 0.0
O152 O 0.69304 0.82316 0.85674 0.0
C153 C 0.82163 0.80177 0.88244 0.0
Fe154 Fe 0.05185 0.71381 0.04109 0.0
Fe155 Fe 0.94407 0.60697 1.01565 0.0
O156 O 0.96901 0.66987 1.0334 0.0
Fe157 Fe 0.91184 0.69133 0.04325 0.0
O158 O 0.95829 0.77379 1.03324 0.0
O159 O 0.05241 0.7909 0.04471 0.0
O160 O 0.08099 0.74299 1.01655 0.0
C161 C 0.06808 0.70842 1.00142 0.0
C162 C 0.99419 0.70619 0.07606 0.0
O163 O 0.0219 0.64867 1.00145 0.0
C164 C 0.83267 0.5595 0.04227 0.0
O165 O 0.0674 0.64563 1.03843 0.0
O166 O 0.97289 0.56019 1.03026 0.0
O167 O 0.95288 0.71735 0.06738 0.0
O168 O 0.02799 0.68807 0.0663 0.0
C169 C 0.87475 0.66701 1.00351 0.0
O170 O 0.86043 0.55632 1.02652 0.0
O171 O 0.86095 0.60929 0.05318 0.0
C172 C 0.03121 0.58424 1.0365 0.0
O173 O 0.91554 0.64896 0.99928 0.0
O174 O 0.86081 0.67129 1.02113 0.0
C175 C 0.01865 0.81102 1.03591 0.0
Fe176 Fe 0.35931 0.06617 0.20204 0.0
Fe177 Fe 0.34776 0.94419 0.18205 0.0
O178 O 0.31311 0.9805 0.19712 0.0
Fe179 Fe 0.23219 0.93365 0.2065 0.0
O180 O 0.2147 1.00067 0.2048 0.0
O181 O 0.2999 0.08058 0.18955 0.0
O182 O 0.40656 0.08913 0.17921 0.0
C183 C 0.38666 0.06242 0.16284 0.0
C184 C 0.29431 0.01325 0.23786 0.0
O185 O 0.35669 1.00031 0.16177 0.0
C186 C 0.28009 0.84326 0.20863 0.0
O187 O 0.42108 0.05574 0.21459 0.0
O188 O 0.4333 0.99972 0.19081 0.0
O189 O 0.26087 0.95465 0.23185 0.0
O190 O 0.32166 0.06078 0.2259 0.0
C191 C 0.21468 0.88004 0.16959 0.0
O192 O 0.33604 0.88199 0.20083 0.0
O193 O 0.23616 0.85913 0.20945 0.0
C194 C 0.45569 0.03666 0.20579 0.0
O195 O 0.2704 0.88449 0.17083 0.0
O196 O 0.19678 0.90829 0.18192 0.0
C197 C 0.23948 0.05059 0.19361 0.0
Fe198 Fe 0.4028 0.32992 0.34509 0.0
Fe199 Fe 0.29501 0.23202 0.37342 0.0
O200 O 0.33399 0.30802 0.36056 0.0
Fe201 Fe 0.30121 0.36122 0.3625 0.0
O202 O 0.32538 0.39682 0.33793 0.0
O203 O 0.35879 0.33565 0.32385 0.0
O204 O 0.37478 0.24481 0.33712 0.0
C205 C 0.31776 0.19423 0.33733 0.0
C206 C 0.42958 0.45208 0.3634 0.0
O207 O 0.27647 0.18633 0.35053 0.0
C208 C 0.29054 0.31356 0.40111 0.0
O209 O 0.45037 0.32131 0.36498 0.0
O210 O 0.36925 0.2277 0.37648 0.0
O211 O 0.37632 0.42422 0.37284 0.0
O212 O 0.44142 0.42036 0.35032 0.0
C213 C 0.19078 0.24284 0.35887 0.0
O214 O 0.31033 0.27343 0.39722 0.0
O215 O 0.27095 0.33643 0.38755 0.0
C216 C 0.42997 0.26744 0.37444 0.0
O217 O 0.21368 0.22236 0.37209 0.0
O218 O 0.22435 0.30027 0.35201 0.0
C219 C 0.33005 0.36876 0.32286 0.0
Fe220 Fe 0.07746 0.40765 0.51184 0.0
Fe221 Fe 0.11272 0.3354 0.5434 0.0
O222 O 0.05404 0.34979 0.5315 0.0
Fe223 Fe 0.97099 0.30564 0.53924 0.0
O224 O 0.94562 0.2675 0.51548 0.0
O225 O 0.9995 0.36015 0.49859 0.0
O226 O 0.10791 0.36372 0.4975 0.0
C227 C 0.14821 0.34629 0.50295 0.0
C228 C 0.98703 0.43088 0.52978 0.0
O229 O 0.16145 0.34546 0.52093 0.0
C230 C 0.02822 0.33049 0.5749 0.0
O231 O 0.16154 0.46339 0.52104 0.0
O232 O 0.16135 0.42113 0.54972 0.0
O233 O 0.95214 0.36957 0.53255 0.0
O234 O 0.04676 0.45588 0.52457 0.0
C235 C 1.0107 0.21084 0.54347 0.0
O236 O 0.07301 0.32079 0.56794 0.0
O237 O 0.99194 0.34077 0.5635 0.0
C238 C 0.19024 0.46565 0.53699 0.0
O239 O 0.06866 0.24864 0.53789 0.0
O240 O 0.97285 0.23272 0.54742 0.0
C241 C 0.95702 0.29915 0.49955 0.0
Fe242 Fe 0.68807 0.96306 0.70884 0.0
Fe243 Fe 0.68547 0.06363 0.68046 0.0
O244 O 0.72408 0.04445 0.69956 0.0
Fe245 Fe 0.79866 0.10666 0.70959 0.0
O246 O 0.84161 0.06412 0.70266 0.0
O247 O 0.7658 0.96893 0.71486 0.0
O248 O 0.69462 0.93222 0.68518 0.0
C249 C 0.67036 0.93932 0.66954 0.0
C250 C 0.73003 0.0263 0.74327 0.0
O251 O 0.6528 0.98263 0.66828 0.0
C252 C 0.74167 0.17964 0.70458 0.0
O253 O 0.6035 0.94194 0.70421 0.0
O254 O 0.61036 0.03501 0.69478 0.0
O255 O 0.78205 0.06965 0.73461 0.0
O256 O 0.68013 0.9888 0.73328 0.0
C257 C 0.81304 0.13928 0.66865 0.0
O258 O 0.71455 0.14945 0.68885 0.0
O259 O 0.75917 0.15194 0.71707 0.0
C260 C 0.57683 0.9764 0.70116 0.0
O261 O 0.75663 0.09248 0.66467 0.0
O262 O 0.83002 0.15485 0.68634 0.0
C263 C 0.82359 1.00679 0.70878 0.0
H264 H 0.74705 0.58959 0.06006 0.0
H265 H 0.75403 0.43528 1.02784 0.0
H266 H 0.63385 0.3732 1.02678 0.0
H267 H 0.52727 0.36499 1.03373 0.0
H268 H 0.52051 0.52189 0.06456 0.0
H269 H 0.64033 0.58122 0.0671 0.0
C270 C 0.72244 0.5417 0.05315 0.0
C271 C 0.75997 0.51669 0.04432 0.0
C272 C 0.65333 0.5074 0.05198 0.0
C273 C 0.72672 0.45538 1.03497 0.0
C274 C 0.65793 0.42013 1.03422 0.0
C275 C 0.55178 0.41225 0.04101 0.0
C276 C 0.51432 0.43878 0.04893 0.0
C277 C 0.62079 0.44613 0.04241 0.0
C278 C 0.54758 0.50025 0.05822 0.0
C279 C 0.61624 0.53405 0.05978 0.0
H280 H 0.17153 0.75852 0.2292 0.0
H281 H 0.32861 0.76515 0.1945 0.0
H282 H 0.26733 0.64434 0.1925 0.0
H283 H 0.16491 0.53864 0.19798 0.0
H284 H 1.0047 0.5344 0.23038 0.0
H285 H 0.07051 0.6538 0.23495 0.0
C286 C 0.19321 0.73377 0.22139 0.0
C287 C 0.25506 0.77147 0.21198 0.0
C288 C 0.15594 0.66508 0.21926 0.0
C289 C 0.28195 0.73794 0.20211 0.0
C290 C 0.24618 0.66885 0.20066 0.0
C291 C 0.14399 0.56367 0.206 0.0
C292 C 0.07932 0.52715 0.21375 0.0
C293 C 0.18231 0.63226 0.20864 0.0
C294 C 0.05357 0.5609 0.22405 0.0
C295 C 0.0916 0.62911 0.22685 0.0
H296 H 0.39505 0.14895 0.39135 0.0
H297 H 0.56181 0.32056 0.36577 0.0
H298 H 0.62453 0.26276 0.36655 0.0
H299 H 0.62899 0.16178 0.37231 0.0
H300 H 0.46066 0.98845 0.39647 0.0
H301 H 0.40011 0.04859 0.39762 0.0
C302 C 0.44544 0.17447 0.3861 0.0
C303 C 0.47354 0.2395 0.37844 0.0
C304 C 0.48005 0.14001 0.38584 0.0
C305 C 0.53896 0.27109 0.37185 0.0
C306 C 0.57451 0.23765 0.37208 0.0
C307 C 0.57896 0.13672 0.37787 0.0
C308 C 0.54937 0.07024 0.3843 0.0
C309 C 0.54494 0.17171 0.37862 0.0
C310 C 0.48447 0.03908 0.3913 0.0
C311 C 0.45015 0.07373 0.39211 0.0
H312 H 0.26997 0.43416 0.55708 0.0
H313 H 0.27513 0.58006 0.51704 0.0
H314 H 0.39522 0.6325 0.51488 0.0
H315 H 0.49848 0.63563 0.52423 0.0
H316 H 0.48969 0.48465 0.56296 0.0
H317 H 0.37083 0.43449 0.56527 0.0
C318 C 0.29715 0.47821 0.54812 0.0
C319 C 0.26334 0.50399 0.53758 0.0
C320 C 0.36551 0.50627 0.54636 0.0
C321 C 0.29979 0.55985 0.52559 0.0
C322 C 0.36841 0.5894 0.52421 0.0
C323 C 0.4706 0.59123 0.53297 0.0
C324 C 0.50361 0.5642 0.54344 0.0
C325 C 0.40177 0.56261 0.53439 0.0
C326 C 0.46615 0.50669 0.55472 0.0
C327 C 0.39802 0.47817 0.55619 0.0
H328 H 0.84116 0.26077 0.72856 0.0
H329 H 0.72669 0.2643 0.67972 0.0
H330 H 0.80012 0.38354 0.67621 0.0
H331 H 0.8984 0.48591 0.68652 0.0
H332 H 0.01436 0.47963 0.73457 0.0
H333 H 0.93972 0.3613 0.73828 0.0
C334 C 0.83122 0.28738 0.71729 0.0
C335 C 0.77751 0.25315 0.70456 0.0
C336 C 0.87507 0.35518 0.71484 0.0
C337 C 0.7668 0.28912 0.68991 0.0
C338 C 0.80935 0.35724 0.68774 0.0
C339 C 0.9081 0.45868 0.69765 0.0
C340 C 0.96241 0.49216 0.71025 0.0
C341 C 0.86423 0.39057 0.69994 0.0
C342 C 0.97347 0.45557 0.72461 0.0
C343 C 0.93032 0.38789 0.72688 0.0
H344 H 0.60501 0.84446 0.88635 0.0
H345 H 0.45168 0.69138 0.85206 0.0
H346 H 0.39192 0.75282 0.85203 0.0
H347 H 0.38319 0.84995 0.8623 0.0
H348 H 0.54191 1.00561 0.89455 0.0
H349 H 0.60014 0.94355 0.89456 0.0
C350 C 0.55801 0.8238 0.87905 0.0
C351 C 0.5319 0.76209 0.86969 0.0
C352 C 0.52541 0.86044 0.87854 0.0
C353 C 0.47227 0.73785 0.85968 0.0
C354 C 0.43836 0.77326 0.85961 0.0
C355 C 0.43077 0.87055 0.86924 0.0
C356 C 0.45786 0.93258 0.87854 0.0
C357 C 0.46444 0.83462 0.86903 0.0
C358 C 0.51987 0.9585 0.88723 0.0
C359 C 0.55302 0.9227 0.88736 0.0
H360 H 0.64324 0.47868 0.87953 0.0
H361 H 0.4917 0.47986 0.84432 0.0
H362 H 0.43522 0.35902 0.84265 0.0
H363 H 0.42909 0.2535 0.85137 0.0
H364 H 0.57899 0.25357 0.88772 0.0
H365 H 0.63712 0.37424 0.88827 0.0
C366 C 0.59777 0.45281 0.87145 0.0
C367 C 0.57192 0.48881 0.862 0.0
C368 C 0.566 0.38367 0.87049 0.0
C369 C 0.51261 0.45382 0.85182 0.0
C370 C 0.48064 0.38469 0.85074 0.0
C371 C 0.47523 0.27978 0.85909 0.0
C372 C 0.50028 0.24412 0.86921 0.0
C373 C 0.50716 0.34917 0.85991 0.0
C374 C 0.55911 0.27944 0.87959 0.0
C375 C 0.592 0.34845 0.88004 0.0
H376 H 0.14061 0.61361 0.05742 0.0
H377 H 0.9978 0.46585 1.01921 0.0
H378 H 0.06474 0.41267 1.01737 0.0
H379 H 0.16634 0.41187 1.02505 0.0
H380 H 0.3072 0.55607 0.06443 0.0
H381 H 0.23889 0.60797 0.06707 0.0
C382 C 0.12356 0.56921 0.04887 0.0
C383 C 0.06403 0.54395 1.03838 0.0
C384 C 0.16272 0.53933 0.04773 0.0
C385 C 0.04277 0.48612 1.02754 0.0
C386 C 0.08155 0.45618 1.0263 0.0
C387 C 0.18286 0.45531 1.03402 0.0
C388 C 0.24323 0.48135 0.04408 0.0
C389 C 0.14225 0.48326 1.03597 0.0
C390 C 0.26201 0.53595 0.05622 0.0
C391 C 0.22261 0.56522 0.05783 0.0
H392 H 0.54866 0.11129 0.17902 0.0
H393 H 0.52175 0.05673 0.24011 0.0
H394 H 0.63783 0.13623 0.24627 0.0
H395 H 0.74778 0.22048 0.23398 0.0
H396 H 0.77251 0.27695 0.17296 0.0
H397 H 0.65626 0.19971 0.1672 0.0
C398 C 0.5687 0.11591 0.19359 0.0
C399 C 0.52745 0.07649 0.20897 0.0
C400 C 0.63462 0.16376 0.19714 0.0
C401 C 0.55317 0.08511 0.22795 0.0
C402 C 0.61925 0.13122 0.23151 0.0
C403 C 0.72721 0.21752 0.21958 0.0
C404 C 0.76873 0.25552 0.20398 0.0
C405 C 0.66043 0.17128 0.21623 0.0
C406 C 0.7415 0.24927 0.18527 0.0
C407 C 0.6752 0.2043 0.18191 0.0
H408 H 0.40706 0.53057 0.38756 0.0
H409 H 0.53466 0.53991 0.34047 0.0
H410 H 0.58249 0.65993 0.33867 0.0
H411 H 0.58602 0.7615 0.35002 0.0
H412 H 0.45683 0.75024 0.39688 0.0
H413 H 0.40973 0.63071 0.3986 0.0
C414 C 0.44575 0.55853 0.37694 0.0
C415 C 0.46719 0.52563 0.36417 0.0
C416 C 0.47144 0.62699 0.37559 0.0
C417 C 0.51747 0.56349 0.3506 0.0
C418 C 0.54427 0.63213 0.34942 0.0
C419 C 0.54661 0.73295 0.36037 0.0
C420 C 0.52448 0.76524 0.37317 0.0
C421 C 0.52088 0.66424 0.36164 0.0
C422 C 0.47433 0.72702 0.38672 0.0
C423 C 0.44789 0.65867 0.38785 0.0
H424 H 0.86481 0.3921 0.54393 0.0
H425 H 0.02803 0.55357 0.51356 0.0
H426 H 0.9633 0.60853 0.5096 0.0
H427 H 0.86243 0.6118 0.51544 0.0
H428 H 0.70234 0.45515 0.54818 0.0
H429 H 0.76258 0.39473 0.54934 0.0
C430 C 0.8866 0.43951 0.53647 0.0
C431 C 0.95173 0.46885 0.52913 0.0
C432 C 0.84894 0.47051 0.53417 0.0
C433 C 0.9787 0.53024 0.51957 0.0
C434 C 0.94132 0.56123 0.51711 0.0
C435 C 0.83988 0.56387 0.52262 0.0
C436 C 0.77758 0.53827 0.53179 0.0
C437 C 0.87649 0.53171 0.52433 0.0
C438 C 0.7495 0.47588 0.54082 0.0
C439 C 0.78461 0.44195 0.5418 0.0
H440 H 0.49198 0.85582 0.7169 0.0
H441 H 0.49816 0.01802 0.68447 0.0
H442 H 0.37927 0.95498 0.68064 0.0
H443 H 0.27491 0.8559 0.68664 0.0
H444 H 0.26461 0.69674 0.7217 0.0
H445 H 0.38506 0.75523 0.7233 0.0
C446 C 0.4673 0.87764 0.7091 0.0
C447 C 0.50412 0.9419 0.70104 0.0
C448 C 0.39877 0.84103 0.70695 0.0
C449 C 0.47124 0.96924 0.69101 0.0
C450 C 0.40332 0.93287 0.68861 0.0
C451 C 0.29864 0.83329 0.69456 0.0
C452 C 0.26042 0.77192 0.70416 0.0
C453 C 0.36688 0.86883 0.69645 0.0
C454 C 0.29255 0.74347 0.71406 0.0
C455 C 0.36135 0.77748 0.71523 0.0
H456 H 0.40922 0.31916 0.98304 0.0
H457 H 0.21192 0.27831 0.9719 0.0
H458 H 0.21127 0.22509 0.94107 0.0
H459 H 0.26223 0.17744 0.91922 0.0
H460 H 0.45582 0.21206 0.93269 0.0
H461 H 0.46238 0.28001 0.96048 0.0
C462 C 0.36631 0.29984 0.97376 0.0
C463 C 0.31052 0.30265 0.98002 0.0
C464 C 0.3653 0.26701 0.95646 0.0
C465 C 0.2557 0.27718 0.96758 0.0
C466 C 0.25507 0.24609 0.94997 0.0
C467 C 0.30612 0.20096 0.92808 0.0
C468 C 0.35848 0.18967 0.92396 0.0
C469 C 0.30881 0.23872 0.94455 0.0
C470 C 0.41484 0.21978 0.93566 0.0
C471 C 0.41862 0.25865 0.95155 0.0
H472 H 1.00858 0.21964 0.14735 0.0
H473 H 0.039 0.41647 0.14212 0.0
H474 H 0.09511 0.43117 0.11057 0.0
H475 H 0.14731 0.39255 0.08644 0.0
H476 H 0.12802 0.20097 0.09427 0.0
H477 H 0.05568 0.17922 0.12263 0.0
C478 C 0.02572 0.26499 0.13901 0.0
C479 C 0.01862 0.31652 0.14689 0.0
C480 C 0.06085 0.2742 0.12141 0.0
C481 C 0.04316 0.37586 0.13623 0.0
C482 C 0.07566 0.38439 0.11826 0.0
C483 C 0.12579 0.34554 0.09413 0.0
C484 C 0.14192 0.29789 0.08821 0.0
C485 C 0.08648 0.33462 0.11097 0.0
C486 C 0.11549 0.23787 0.09852 0.0
C487 C 0.07441 0.22561 0.11476 0.0
H488 H 0.8713 0.23364 0.27806 0.0
H489 H 0.80081 0.07085 0.23814 0.0
H490 H 0.73788 0.99385 0.26497 0.0
H491 H 0.70316 0.97331 0.30058 0.0
H492 H 0.77245 0.14205 0.33842 0.0
H493 H 0.83531 0.21506 0.31181 0.0
C494 C 0.84247 0.18128 0.2751 0.0
C495 C 0.84155 0.15831 0.25606 0.0
C496 C 0.80574 0.13787 0.2904 0.0
C497 C 0.80273 0.09017 0.25264 0.0
C498 C 0.76675 0.04605 0.26802 0.0
C499 C 0.73179 0.02602 0.30288 0.0
C500 C 0.73207 0.05169 0.3216 0.0
C501 C 0.76781 0.06928 0.28709 0.0
C502 C 0.76989 0.12041 0.32424 0.0
C503 C 0.80646 0.16264 0.309 0.0
H504 H 0.74701 0.93141 0.44219 0.0
H505 H 0.65304 0.74907 0.41043 0.0
H506 H 0.66793 0.6915 0.43856 0.0
H507 H 0.69745 0.69181 0.47395 0.0
H508 H 0.79064 0.87672 0.50459 0.0
H509 H 0.78711 0.93441 0.47522 0.0
C510 C 0.7306 0.87917 0.44129 0.0
C511 C 0.69851 0.8445 0.4243 0.0
C512 C 0.7391 0.84677 0.45745 0.0
C513 C 0.67813 0.777 0.4233 0.0
C514 C 0.68628 0.74404 0.43946 0.0
C515 C 0.71849 0.7449 0.47394 0.0
C516 C 0.74448 0.78005 0.49144 0.0
C517 C 0.71535 0.77811 0.45686 0.0
C518 C 0.77059 0.84869 0.49132 0.0
C519 C 0.7683 0.88172 0.47455 0.0
H520 H 0.93263 0.78697 0.59272 0.0
H521 H 0.82046 0.57408 0.59197 0.0
H522 H 0.88012 0.56812 0.61999 0.0
H523 H 0.95291 0.62195 0.64748 0.0
H524 H 0.0679 0.83364 0.64919 0.0
H525 H 0.01994 0.8415 0.61807 0.0
C526 C 0.92228 0.73943 0.59847 0.0
C527 C 0.87076 0.68119 0.59043 0.0
C528 C 0.95721 0.73595 0.61489 0.0
C529 C 0.85852 0.61993 0.59805 0.0
C530 C 0.89283 0.61623 0.61411 0.0
C531 C 0.96898 0.66973 0.64069 0.0
C532 C 0.01395 0.727 0.65052 0.0
C533 C 0.9406 0.67373 0.62305 0.0
C534 C 0.03407 0.78873 0.64171 0.0
C535 C 1.00592 0.7932 0.62404 0.0
H536 H 0.22335 0.01193 0.81372 0.0
H537 H 0.36835 0.95085 0.81772 0.0
H538 H 0.3292 0.88994 0.78733 0.0
H539 H 0.24598 0.84311 0.76179 0.0
H540 H 0.10051 0.90292 0.75685 0.0
H541 H 0.1474 0.97508 0.78526 0.0
C542 C 0.24757 0.98696 0.80759 0.0
C543 C 0.29867 0.98585 0.81805 0.0
C544 C 0.22378 0.95056 0.79014 0.0
C545 C 0.3289 0.95239 0.81002 0.0
C546 C 0.30624 0.9171 0.79269 0.0
C547 C 0.22487 0.8724 0.76682 0.0
C548 C 0.16931 0.86698 0.75741 0.0
C549 C 0.25232 0.91391 0.78301 0.0
C550 C 0.14323 0.90612 0.76388 0.0
C551 C 0.16996 0.94725 0.78017 0.0
H552 H 0.79045 0.77905 0.93205 0.0
H553 H 0.62537 0.5811 0.93295 0.0
H554 H 0.66609 0.55687 0.96306 0.0
H555 H 0.75521 0.58868 0.98725 0.0
H556 H 0.92468 0.78344 0.98432 0.0
H557 H 0.87652 0.81229 0.95687 0.0
C558 C 0.76232 0.73128 0.93918 0.0
C559 C 0.70426 0.68227 0.93047 0.0
C560 C 0.78787 0.71674 0.9559 0.0
C561 C 0.66957 0.61991 0.93955 0.0
C562 C 0.69327 0.60585 0.95664 0.0
C563 C 0.781 0.6375 0.98064 0.0
C564 C 0.84326 0.68402 0.98764 0.0
C565 C 0.75338 0.65324 0.96463 0.0
C566 C 0.87672 0.74704 0.97904 0.0
C567 C 0.84912 0.7635 0.96341 0.0
H568 H 0.07746 0.68755 0.0992 0.0
H569 H 0.96355 0.78562 0.09802 0.0
H570 H 0.0178 0.84533 0.12781 0.0
H571 H 0.10695 0.87856 0.15246 0.0
H572 H 0.22054 0.77976 0.15223 0.0
H573 H 0.15743 0.71234 0.125 0.0
C574 C 0.06355 0.72115 0.10559 0.0
C575 C 0.0167 0.73217 0.09618 0.0
C576 C 0.09586 0.75635 0.12247 0.0
C577 C 0.99929 0.77579 0.10487 0.0
C578 C 0.03079 0.81052 0.12188 0.0
C579 C 0.1172 0.84171 0.14658 0.0
C580 C 0.16945 0.83543 0.15428 0.0
C581 C 0.08062 0.80265 0.13054 0.0
C582 C 0.18171 0.78701 0.14646 0.0
C583 C 0.14539 0.74795 0.13086 0.0
H584 H 0.20294 1.00428 0.26462 0.0
H585 H 0.40772 0.06569 0.25735 0.0
H586 H 0.43295 0.12342 0.28852 0.0
H587 H 0.39938 0.16839 0.31565 0.0
H588 H 0.19508 0.10891 0.32338 0.0
H589 H 0.16697 0.0385 0.29452 0.0
C590 C 0.25252 0.02826 0.2703 0.0
C591 C 0.30333 0.02994 0.25888 0.0
C592 C 0.267 0.06301 0.28814 0.0
C593 C 0.36776 0.0629 0.26606 0.0
C594 C 0.38232 0.09654 0.28378 0.0
C595 C 0.34856 0.13934 0.31118 0.0
C596 C 0.29957 0.14455 0.32156 0.0
C597 C 0.33278 0.09892 0.2946 0.0
C598 C 0.23384 0.10589 0.31568 0.0
C599 C 0.21774 0.06575 0.2991 0.0
H600 H 0.249 0.23635 0.43492 0.0
H601 H 0.31461 0.43257 0.41257 0.0
H602 H 0.2812 0.46181 0.44283 0.0
H603 H 0.22069 0.42826 0.47385 0.0
H604 H 0.15593 0.23451 0.49758 0.0
H605 H 0.20151 0.20764 0.46888 0.0
C606 C 0.25757 0.28591 0.43696 0.0
C607 C 0.28366 0.33199 0.42139 0.0
C608 C 0.23729 0.30255 0.45455 0.0
C609 C 0.29404 0.39597 0.42422 0.0
C610 C 0.27471 0.41279 0.44152 0.0
C611 C 0.21769 0.38058 0.47286 0.0
C612 C 0.1848 0.33326 0.48763 0.0
C613 C 0.24418 0.3659 0.45647 0.0
C614 C 0.18137 0.27176 0.48634 0.0
C615 C 0.20712 0.25636 0.46989 0.0
H616 H 0.91433 0.31035 0.5916 0.0
H617 H 0.08895 0.30092 0.60452 0.0
H618 H 0.04058 0.24589 0.63581 0.0
H619 H 0.94286 0.18925 0.65804 0.0
H620 H 0.76679 0.19275 0.64287 0.0
H621 H 0.8213 0.26098 0.61414 0.0
C622 C 0.94265 0.29759 0.60137 0.0
C623 C 1.00537 0.3099 0.59554 0.0
C624 C 0.91358 0.26369 0.61895 0.0
C625 C 0.04066 0.2923 0.60852 0.0
C626 C 0.01276 0.2603 0.6264 0.0
C627 C 0.91703 0.20579 0.64852 0.0
C628 C 0.85071 0.18553 0.65245 0.0
C629 C 0.94839 0.24393 0.63155 0.0
C630 C 0.81757 0.20703 0.64 0.0
C631 C 0.84876 0.24621 0.62358 0.0
H632 H 0.79966 0.92131 0.81998 0.0
H633 H 0.58882 0.80575 0.82376 0.0
H634 H 0.57877 0.86556 0.7957 0.0
H635 H 0.63001 0.94278 0.76793 0.0
H636 H 0.8412 0.06032 0.76436 0.0
H637 H 0.85092 1.00904 0.79441 0.0
C638 C 0.75169 0.91045 0.81486 0.0
C639 C 0.69501 0.85934 0.82389 0.0
C640 C 0.74628 0.94521 0.79861 0.0
C641 C 0.63306 0.84513 0.81705 0.0
C642 C 0.62731 0.87915 0.80095 0.0
C643 C 0.67815 0.95826 0.77393 0.0
C644 C 0.73467 1.00532 0.76368 0.0
C645 C 0.68356 0.92821 0.79128 0.0
C646 C 0.79662 0.0246 0.77183 0.0
C647 C 0.80236 0.9948 0.78901 0.0
H648 H 0.31303 0.0277 0.12946 0.0
H649 H 0.46965 0.19454 0.15877 0.0
H650 H 0.46586 0.26926 0.13445 0.0
H651 H 0.41451 0.28847 0.10557 0.0
H652 H 0.25903 0.12149 0.076 0.0
H653 H 0.26558 0.04642 0.09963 0.0
C654 C 0.3473 0.08023 0.13027 0.0
C655 C 0.39169 0.10519 0.14593 0.0
C656 C 0.3443 0.12341 0.11633 0.0
C657 C 0.43498 0.17373 0.14688 0.0
C658 C 0.43261 0.21674 0.13303 0.0
C659 C 0.38194 0.23571 0.10437 0.0
C660 C 0.33614 0.21087 0.08908 0.0
C661 C 0.38663 0.19236 0.11788 0.0
C662 C 0.29486 0.14213 0.08761 0.0
C663 C 0.2986 0.09898 0.10111 0.0
H664 H 0.17425 0.32038 0.24376 0.0
H665 H 0.08259 0.40862 0.27738 0.0
H666 H 0.15638 0.42603 0.30455 0.0
H667 H 0.24401 0.41327 0.31918 0.0
H668 H 0.33347 0.32116 0.28645 0.0
H669 H 0.26402 0.30928 0.25837 0.0
C670 C 0.1705 0.34368 0.25699 0.0
C671 C 0.1227 0.36315 0.25845 0.0
C672 C 0.21299 0.3533 0.27267 0.0
C673 C 0.11862 0.393 0.27579 0.0
C674 C 0.16097 0.40315 0.29135 0.0
C675 C 0.24925 0.39147 0.30582 0.0
C676 C 0.2945 0.36869 0.30492 0.0
C677 C 0.2081 0.38329 0.28997 0.0
C678 C 0.29956 0.33964 0.28753 0.0
C679 C 0.25954 0.33247 0.27151 0.0
H680 H 0.8328 0.18747 0.41705 0.0
H681 H 0.68691 0.03062 0.45332 0.0
H682 H 0.7463 0.0886 0.48273 0.0
H683 H 0.84157 0.18242 0.49803 0.0
H684 H 0.98541 0.34042 0.46156 0.0
H685 H 0.92472 0.2834 0.43233 0.0
C686 C 0.81381 0.16605 0.43139 0.0
C687 C 0.75559 0.10476 0.433 0.0
C688 C 0.84789 0.19981 0.44819 0.0
C689 C 0.73139 0.07795 0.4517 0.0
C690 C 0.76548 0.11093 0.46851 0.0
C691 C 0.85954 0.20447 0.48369 0.0
C692 C 0.91811 0.26555 0.482 0.0
C693 C 0.82406 0.17167 0.46692 0.0
C694 C 0.94039 0.29363 0.4633 0.0
C695 C 0.90582 0.26097 0.44657 0.0
H696 H 0.61034 0.77482 0.59164 0.0
H697 H 0.70283 0.68435 0.62388 0.0
H698 H 0.71364 0.75233 0.65229 0.0
H699 H 0.70206 0.84168 0.66732 0.0
H700 H 0.61258 0.93378 0.63431 0.0
H701 H 0.59589 0.86107 0.60683 0.0
C702 C 0.63209 0.76904 0.60495 0.0
C703 C 0.65536 0.72391 0.60557 0.0
C704 C 0.63942 0.80926 0.62105 0.0
C705 C 0.68398 0.71808 0.62296 0.0
C706 C 0.69056 0.75732 0.63919 0.0
C707 C 0.67856 0.84574 0.65417 0.0
C708 C 0.65868 0.89354 0.65298 0.0
C709 C 0.66932 0.8038 0.6383 0.0
C710 C 0.62849 0.89781 0.63573 0.0
C711 C 0.61884 0.85609 0.61998 0.0
H712 H 0.99063 0.71192 0.7821 0.0
H713 H 0.83043 0.5588 0.74967 0.0
H714 H 0.75184 0.55659 0.77349 0.0
H715 H 0.72764 0.60009 0.80337 0.0
H716 H 0.88863 0.75236 0.83578 0.0
H717 H 0.96696 0.75329 0.81218 0.0
C718 C 0.93865 0.67729 0.78041 0.0
C719 C 0.9168 0.63539 0.76414 0.0
C720 C 0.89334 0.67671 0.79408 0.0
C721 C 0.84894 0.59157 0.76207 0.0
C722 C 0.80371 0.59045 0.77566 0.0
C723 C 0.7798 0.63367 0.80516 0.0
C724 C 0.80204 0.67604 0.82132 0.0
C725 C 0.82517 0.63335 0.79162 0.0
C726 C 0.87002 0.71889 0.82353 0.0
C727 C 0.91505 0.71948 0.81004 0.0
H728 H 0.18912 0.81827 0.99866 0.0
H729 H 0.03458 0.66951 0.9635 0.0
H730 H 0.09292 0.72844 0.93368 0.0
H731 H 0.18441 0.8254 0.91768 0.0
H732 H 0.34032 0.97304 0.95271 0.0
H733 H 0.28469 0.91129 0.98253 0.0
C734 C 0.16837 0.79839 0.98447 0.0
C735 C 0.10724 0.73958 0.98335 0.0
C736 C 0.20222 0.83256 0.96738 0.0
C737 C 0.08157 0.71432 0.96482 0.0
C738 C 0.11475 0.74827 0.94775 0.0
C739 C 0.20653 0.84398 0.93183 0.0
C740 C 0.26637 0.90414 0.93295 0.0
C741 C 0.17457 0.80793 0.94887 0.0
C742 C 0.29451 0.92694 0.95141 0.0
C743 C 0.26258 0.89172 0.96847 0.0
H744 H 0.21505 0.10115 1.01377 0.0
H745 H 0.06574 0.12975 0.0414 0.0
H746 H 0.99178 0.01048 0.04281 0.0
H747 H 0.97692 0.89864 1.04067 0.0
H748 H 0.13293 0.87413 1.01645 0.0
H749 H 0.19693 0.99142 1.00895 0.0
C750 C 0.16607 0.08148 1.01991 0.0
C751 C 0.14628 0.12374 1.02786 0.0
C752 C 0.12529 0.01361 1.02137 0.0
C753 C 0.08225 0.09777 1.03539 0.0
C754 C 0.04008 0.02974 1.03627 0.0
C755 C 0.02441 0.91933 1.03344 0.0
C756 C 0.0511 0.87911 1.02928 0.0
C757 C 0.06215 0.98723 1.03 0.0
C758 C 0.11239 0.90518 1.01996 0.0
C759 C 0.14885 0.97196 1.01568 0.0
H760 H 0.11429 1.00688 0.20463 0.0
H761 H 0.27438 0.15958 0.17069 0.0
H762 H 0.21273 0.21742 0.16685 0.0
H763 H 0.12198 0.23197 0.17729 0.0
H764 H 0.9667 0.08438 0.21373 0.0
H765 H 0.01803 0.01586 0.21218 0.0
C766 C 0.13563 0.05253 0.19622 0.0
C767 C 0.19952 0.08024 0.18849 0.0
C768 C 0.10118 0.08631 0.19468 0.0
C769 C 0.22581 0.13831 0.17719 0.0
C770 C 0.19069 0.17127 0.17499 0.0
C771 C 0.09908 0.18462 0.18483 0.0
C772 C 0.04187 0.16377 0.19609 0.0
C773 C 0.12974 0.14702 0.1844 0.0
C774 C 1.0114 0.10158 0.20523 0.0
C775 C 0.04075 0.06267 0.20438 0.0
H776 H 0.11095 0.11677 0.36926 0.0
H777 H 0.11509 0.28008 0.33806 0.0
H778 H 0.99529 0.21963 0.33656 0.0
H779 H 0.89176 0.12946 0.34873 0.0
H780 H 0.888 0.97065 0.38243 0.0
H781 H 1.00683 0.02085 0.37828 0.0
C782 C 0.0857 0.13904 0.36201 0.0
C783 C 0.12105 0.20349 0.35446 0.0
C784 C 0.01756 0.10541 0.36189 0.0
C785 C 0.08836 0.23096 0.3444 0.0
C786 C 0.02014 0.19663 0.3436 0.0
C787 C 0.91687 0.10564 0.35514 0.0
C788 C 0.88213 0.04774 0.36638 0.0
C789 C 0.98455 0.13536 0.35312 0.0
C790 C 0.91444 0.01598 0.374 0.0
C791 C 0.98205 0.04457 0.37164 0.0
H792 H 0.90795 0.13036 0.56623 0.0
H793 H 0.06322 0.13677 0.53055 0.0
H794 H 0.01506 0.0175 0.53458 0.0
H795 H 0.92121 0.91213 0.54405 0.0
H796 H 0.76095 0.90554 0.57719 0.0
H797 H 0.82025 0.02573 0.57878 0.0
C798 C 0.93149 0.10576 0.55937 0.0
C799 C 0.98777 0.14143 0.54762 0.0
C800 C 0.90282 0.03777 0.56131 0.0
C801 C 0.01917 0.10969 0.53939 0.0
C802 C 0.9917 0.0418 0.54168 0.0
C803 C 0.89939 0.93682 0.55182 0.0
C804 C 0.83596 0.90049 0.55991 0.0
C805 C 0.93227 1.00534 0.55197 0.0
C806 C 0.80919 0.93281 0.57046 0.0
C807 C 0.84288 1.00132 0.57132 0.0
H808 H 1.0102 0.89625 0.69543 0.0
H809 H 0.87542 0.75198 0.73724 0.0
H810 H 0.82501 0.81983 0.7429 0.0
H811 H 0.81209 0.91212 0.73312 0.0
H812 H 0.93915 0.05028 0.68887 0.0
H813 H 1.0029 0.99367 0.68764 0.0
C814 C 0.97002 0.8797 0.70588 0.0
C815 C 0.94515 0.81872 0.71558 0.0
C816 C 0.94087 0.9179 0.70871 0.0
C817 C 0.89395 0.79817 0.72928 0.0
C818 C 0.86564 0.837 0.73261 0.0
C819 C 0.85402 0.93013 0.72326 0.0
C820 C 0.87019 0.98363 0.71063 0.0
C821 C 0.88757 0.89574 0.72195 0.0
C822 C 0.92578 1.00842 0.6985 0.0
C823 C 0.96161 0.97587 0.6977 0.0
H824 H 0.11703 0.91238 0.89953 0.0
H825 H 0.13748 0.04545 0.85268 0.0
H826 H 0.01822 1.00147 0.85271 0.0
H827 H 0.90781 0.91522 0.86366 0.0
H828 H 0.89037 0.7838 0.91093 0.0
H829 H 1.0091 0.83843 0.91366 0.0
C830 C 0.09501 0.932 0.88954 0.0
C831 C 0.13424 0.98059 0.87593 0.0
C832 C 0.02742 0.90709 0.88981 0.0
C833 C 0.10685 1.00729 0.86317 0.0
C834 C 0.03911 0.98226 0.8632 0.0
C835 C 0.93025 0.89998 0.87485 0.0
C836 C 0.89107 0.84505 0.88677 0.0
C837 C 0.99873 0.93084 0.87613 0.0
C838 C 0.92008 0.82541 0.90132 0.0
C839 C 0.98782 0.85636 0.90289 0.0
loop_
_geom_bond_atom_site_label_1
_geom_bond_atom_site_label_2
_geom_bond_distance
_geom_bond_site_symmetry_2
_ccdc_geom_bond_type
Fe0 O2 1.899 1_556 S
Fe0 O5 1.956 1_556 S
Fe0 O6 2.000 1_556 S
Fe0 O11 2.019 . S
Fe0 O14 2.003 . S
Fe1 O2 1.918 . S
Fe1 O9 1.997 . S
Fe1 O12 1.996 1_554 S
Fe1 O16 1.976 . S
Fe1 O19 2.002 . S
O2 Fe0 1.899 1_554 S
O2 Fe1 1.918 . S
O2 Fe3 1.918 . S
Fe3 O2 1.918 . S
Fe3 O4 2.002 . S
Fe3 O13 1.976 . S
Fe3 O17 1.996 . S
Fe3 O20 1.997 . S
O4 Fe3 2.002 . S
O4 C21 1.295 . S
O5 Fe0 1.956 1_554 S
O5 C21 1.235 . S
O6 Fe0 2.000 1_554 S
O6 C7 1.295 . S
C7 O6 1.295 . S
C7 O9 1.235 . S
C8 O13 1.287 . S
C8 O14 1.255 1_554 S
O9 Fe1 1.997 . S
O9 C7 1.235 . S
C10 O16 1.287 . S
C10 O17 1.255 . S
O11 Fe0 2.019 . S
O11 C18 1.287 . S
O12 Fe1 1.996 1_556 S
O12 C18 1.255 . S
O13 Fe3 1.976 . S
O13 C8 1.287 . S
O14 Fe0 2.003 . S
O14 C8 1.255 1_556 S
C15 O19 1.295 . S
C15 O20 1.235 . S
O16 Fe1 1.976 . S
O16 C10 1.287 . S
O17 Fe3 1.996 . S
O17 C10 1.255 . S
C18 O11 1.287 . S
C18 O12 1.255 . S
O19 Fe1 2.002 . S
O19 C15 1.295 . S
O20 Fe3 1.997 . S
O20 C15 1.235 . S
C21 O4 1.295 . S
C21 O5 1.235 . S
Fe22 O24 1.918 . S
Fe22 O27 1.997 1_655 S
Fe22 O28 2.002 . S
Fe22 O33 1.976 . S
Fe22 O36 1.996 . S
Fe23 O24 1.918 . S
Fe23 O31 1.997 . S
Fe23 O34 1.996 . S
Fe23 O38 1.976 . S
Fe23 O41 2.002 . S
O24 Fe22 1.918 . S
O24 Fe23 1.918 . S
O24 Fe25 1.918 1_655 S
Fe25 O24 1.918 1_455 S
Fe25 O26 2.002 . S
Fe25 O35 1.976 . S
Fe25 O39 1.996 . S
Fe25 O42 1.997 . S
O26 Fe25 2.002 . S
O26 C43 1.295 . S
O27 Fe22 1.997 1_455 S
O27 C43 1.235 . S
O28 Fe22 2.002 . S
O28 C29 1.295 . S
C29 O28 1.295 . S
C29 O31 1.235 . S
C30 O35 1.287 . S
C30 O36 1.255 1_455 S
O31 Fe23 1.997 . S
O31 C29 1.235 . S
C32 O38 1.287 . S
C32 O39 1.255 1_655 S
O33 Fe22 1.976 . S
O33 C40 1.287 . S
O34 Fe23 1.996 . S
O34 C40 1.255 . S
O35 Fe25 1.976 . S
O35 C30 1.287 . S
O36 Fe22 1.996 . S
O36 C30 1.255 1_655 S
C37 O41 1.295 1_455 S
C37 O42 1.235 . S
O38 Fe23 1.976 . S
O38 C32 1.287 . S
O39 Fe25 1.996 . S
O39 C32 1.255 1_455 S
C40 O33 1.287 . S
C40 O34 1.255 . S
O41 Fe23 2.002 . S
O41 C37 1.295 1_655 S
O42 Fe25 1.997 . S
O42 C37 1.235 . S
C43 O26 1.295 . S
C43 O27 1.235 . S
Fe44 O46 1.918 . S
Fe44 O49 1.997 . S
Fe44 O50 2.002 . S
Fe44 O55 1.976 . S
Fe44 O58 1.996 . S
Fe45 O46 1.918 1_545 S
Fe45 O53 1.997 . S
Fe45 O56 1.996 . S
Fe45 O60 1.976 . S
Fe45 O63 2.002 . S
O46 Fe44 1.918 . S
O46 Fe45 1.918 1_565 S
O46 Fe47 1.918 . S
Fe47 O46 1.918 . S
Fe47 O48 2.002 . S
Fe47 O57 1.976 . S
Fe47 O61 1.996 . S
Fe47 O64 1.997 1_565 S
O48 Fe47 2.002 . S
O48 C65 1.295 . S
O49 Fe44 1.997 . S
O49 C65 1.235 . S
O50 Fe44 2.002 . S
O50 C51 1.295 1_565 S
C51 O50 1.295 1_545 S
C51 O53 1.235 . S
C52 O57 1.287 . S
C52 O58 1.255 . S
O53 Fe45 1.997 . S
O53 C51 1.235 . S
C54 O60 1.287 . S
C54 O61 1.255 1_545 S
O55 Fe44 1.976 . S
O55 C62 1.287 . S
O56 Fe45 1.996 . S
O56 C62 1.255 1_545 S
O57 Fe47 1.976 . S
O57 C52 1.287 . S
O58 Fe44 1.996 . S
O58 C52 1.255 . S
C59 O63 1.295 . S
C59 O64 1.235 . S
O60 Fe45 1.976 . S
O60 C54 1.287 . S
O61 Fe47 1.996 . S
O61 C54 1.255 1_565 S
C62 O55 1.287 . S
C62 O56 1.255 1_565 S
O63 Fe45 2.002 . S
O63 C59 1.295 . S
O64 Fe47 1.997 1_545 S
O64 C59 1.235 . S
C65 O48 1.295 . S
C65 O49 1.235 . S
Fe66 O68 1.918 . S
Fe66 O71 1.997 . S
Fe66 O72 2.002 . S
Fe66 O77 1.976 . S
Fe66 O80 1.996 . S
Fe67 O68 1.918 . S
Fe67 O75 1.997 . S
Fe67 O78 1.996 . S
Fe67 O82 1.976 . S
Fe67 O85 2.002 . S
O68 Fe66 1.918 . S
O68 Fe67 1.918 . S
O68 Fe69 1.918 . S
Fe69 O68 1.918 . S
Fe69 O70 2.002 . S
Fe69 O79 1.976 . S
Fe69 O83 1.996 . S
Fe69 O86 1.997 . S
O70 Fe69 2.002 . S
O70 C87 1.295 . S
O71 Fe66 1.997 . S
O71 C87 1.235 . S
O72 Fe66 2.002 . S
O72 C73 1.295 . S
C73 O72 1.295 . S
C73 O75 1.235 . S
C74 O79 1.287 . S
C74 O80 1.255 . S
O75 Fe67 1.997 . S
O75 C73 1.235 . S
C76 O82 1.287 . S
C76 O83 1.255 . S
O77 Fe66 1.976 . S
O77 C84 1.287 . S
O78 Fe67 1.996 . S
O78 C84 1.255 . S
O79 Fe69 1.976 . S
O79 C74 1.287 . S
O80 Fe66 1.996 . S
O80 C74 1.255 . S
C81 O85 1.295 . S
C81 O86 1.235 . S
O82 Fe67 1.976 . S
O82 C76 1.287 . S
O83 Fe69 1.996 . S
O83 C76 1.255 . S
C84 O77 1.287 . S
C84 O78 1.255 . S
O85 Fe67 2.002 . S
O85 C81 1.295 . S
O86 Fe69 1.997 . S
O86 C81 1.235 . S
C87 O70 1.295 . S
C87 O71 1.235 . S
Fe88 O90 1.918 . S
Fe88 O93 1.997 1_455 S
Fe88 O94 2.002 . S
Fe88 O99 1.976 . S
Fe88 O102 1.996 . S
Fe89 O90 1.918 . S
Fe89 O97 1.997 . S
Fe89 O100 1.996 . S
Fe89 O104 1.976 . S
Fe89 O107 2.002 . S
O90 Fe88 1.918 . S
O90 Fe89 1.918 . S
O90 Fe91 1.918 1_455 S
Fe91 O90 1.918 1_655 S
Fe91 O92 2.002 . S
Fe91 O101 1.976 . S
Fe91 O105 1.996 . S
Fe91 O108 1.997 . S
O92 Fe91 2.002 . S
O92 C109 1.295 . S
O93 Fe88 1.997 1_655 S
O93 C109 1.235 . S
O94 Fe88 2.002 . S
O94 C95 1.295 . S
C95 O94 1.295 . S
C95 O97 1.235 . S
C96 O101 1.287 . S
C96 O102 1.255 1_655 S
O97 Fe89 1.997 . S
O97 C95 1.235 . S
C98 O104 1.287 . S
C98 O105 1.255 1_455 S
O99 Fe88 1.976 . S
O99 C106 1.287 . S
O100 Fe89 1.996 . S
O100 C106 1.255 . S
O101 Fe91 1.976 . S
O101 C96 1.287 . S
O102 Fe88 1.996 . S
O102 C96 1.255 1_455 S
C103 O107 1.295 1_655 S
C103 O108 1.235 . S
O104 Fe89 1.976 . S
O104 C98 1.287 . S
O105 Fe91 1.996 . S
O105 C98 1.255 1_655 S
C106 O99 1.287 . S
C106 O100 1.255 . S
O107 Fe89 2.002 . S
O107 C103 1.295 1_455 S
O108 Fe91 1.997 . S
O108 C103 1.235 . S
C109 O92 1.295 . S
C109 O93 1.235 . S
Fe110 O112 1.918 . S
Fe110 O115 1.997 . S
Fe110 O116 2.002 . S
Fe110 O121 1.976 . S
Fe110 O124 1.996 . S
Fe111 O112 1.918 1_565 S
Fe111 O119 1.997 . S
Fe111 O122 1.996 . S
Fe111 O126 1.976 . S
Fe111 O129 2.002 . S
O112 Fe110 1.918 . S
O112 Fe111 1.918 1_545 S
O112 Fe113 1.918 . S
Fe113 O112 1.918 . S
Fe113 O114 2.002 . S
Fe113 O123 1.976 . S
Fe113 O127 1.996 . S
Fe113 O130 1.997 1_545 S
O114 Fe113 2.002 . S
O114 C131 1.295 . S
O115 Fe110 1.997 . S
O115 C131 1.235 . S
O116 Fe110 2.002 . S
O116 C117 1.295 1_545 S
C117 O116 1.295 1_565 S
C117 O119 1.235 . S
C118 O123 1.287 . S
C118 O124 1.255 . S
O119 Fe111 1.997 . S
O119 C117 1.235 . S
C120 O126 1.287 . S
C120 O127 1.255 1_565 S
O121 Fe110 1.976 . S
O121 C128 1.287 . S
O122 Fe111 1.996 . S
O122 C128 1.255 1_565 S
O123 Fe113 1.976 . S
O123 C118 1.287 . S
O124 Fe110 1.996 . S
O124 C118 1.255 . S
C125 O129 1.295 . S
C125 O130 1.235 . S
O126 Fe111 1.976 . S
O126 C120 1.287 . S
O127 Fe113 1.996 . S
O127 C120 1.255 1_545 S
C128 O121 1.287 . S
C128 O122 1.255 1_545 S
O129 Fe111 2.002 . S
O129 C125 1.295 . S
O130 Fe113 1.997 1_565 S
O130 C125 1.235 . S
C131 O114 1.295 . S
C131 O115 1.235 . S
Fe132 O134 1.918 . S
Fe132 O137 1.997 . S
Fe132 O138 2.002 . S
Fe132 O143 1.976 . S
Fe132 O146 1.996 . S
Fe133 O134 1.918 . S
Fe133 O141 1.997 . S
Fe133 O144 1.996 . S
Fe133 O148 1.976 . S
Fe133 O151 2.002 . S
O134 Fe132 1.918 . S
O134 Fe133 1.918 . S
O134 Fe135 1.918 . S
Fe135 O134 1.918 . S
Fe135 O136 2.002 . S
Fe135 O145 1.976 . S
Fe135 O149 1.996 . S
Fe135 O152 1.997 . S
O136 Fe135 2.002 . S
O136 C153 1.295 . S
O137 Fe132 1.997 . S
O137 C153 1.235 . S
O138 Fe132 2.002 . S
O138 C139 1.295 . S
C139 O138 1.295 . S
C139 O141 1.235 . S
C140 O145 1.287 . S
C140 O146 1.255 . S
O141 Fe133 1.997 . S
O141 C139 1.235 . S
C142 O148 1.287 . S
C142 O149 1.255 . S
O143 Fe132 1.976 . S
O143 C150 1.287 . S
O144 Fe133 1.996 . S
O144 C150 1.255 . S
O145 Fe135 1.976 . S
O145 C140 1.287 . S
O146 Fe132 1.996 . S
O146 C140 1.255 . S
C147 O151 1.295 . S
C147 O152 1.235 . S
O148 Fe133 1.976 . S
O148 C142 1.287 . S
O149 Fe135 1.996 . S
O149 C142 1.255 . S
C150 O143 1.287 . S
C150 O144 1.255 . S
O151 Fe133 2.002 . S
O151 C147 1.295 . S
O152 Fe135 1.997 . S
O152 C147 1.235 . S
C153 O136 1.295 . S
C153 O137 1.235 . S
Fe154 O156 1.918 1_455 S
Fe154 O159 1.997 . S
Fe154 O160 2.002 . S
Fe154 O165 1.976 . S
Fe154 O168 1.996 1_556 S
Fe155 O156 1.918 . S
Fe155 O163 1.997 1_655 S
Fe155 O166 1.996 . S
Fe155 O170 1.976 . S
Fe155 O173 2.002 . S
O156 Fe154 1.918 1_655 S
O156 Fe155 1.918 . S
O156 Fe157 1.918 . S
Fe157 O156 1.918 . S
Fe157 O158 2.002 . S
Fe157 O167 1.976 1_556 S
Fe157 O171 1.996 1_556 S
Fe157 O174 1.997 . S
O158 Fe157 2.002 . S
O158 C175 1.295 1_655 S
O159 Fe154 1.997 . S
O159 C175 1.235 . S
O160 Fe154 2.002 . S
O160 C161 1.295 . S
C161 O160 1.295 . S
C161 O163 1.235 . S
C162 O167 1.287 . S
C162 O168 1.255 1_655 S
O163 Fe155 1.997 1_455 S
O163 C161 1.235 . S
C164 O170 1.287 . S
C164 O171 1.255 1_556 S
O165 Fe154 1.976 . S
O165 C172 1.287 . S
O166 Fe155 1.996 . S
O166 C172 1.255 1_655 S
O167 Fe157 1.976 1_554 S
O167 C162 1.287 . S
O168 Fe154 1.996 1_554 S
O168 C162 1.255 1_455 S
C169 O173 1.295 . S
C169 O174 1.235 . S
O170 Fe155 1.976 . S
O170 C164 1.287 . S
O171 Fe157 1.996 1_554 S
O171 C164 1.255 1_554 S
C172 O165 1.287 . S
C172 O166 1.255 1_455 S
O173 Fe155 2.002 . S
O173 C169 1.295 . S
O174 Fe157 1.997 . S
O174 C169 1.235 . S
C175 O158 1.295 1_455 S
C175 O159 1.235 . S
Fe176 O178 1.918 1_545 S
Fe176 O181 1.997 . S
Fe176 O182 2.002 . S
Fe176 O187 1.976 . S
Fe176 O190 1.996 . S
Fe177 O178 1.918 . S
Fe177 O185 1.997 1_565 S
Fe177 O188 1.996 . S
Fe177 O192 1.976 . S
Fe177 O195 2.002 . S
O178 Fe176 1.918 1_565 S
O178 Fe177 1.918 . S
O178 Fe179 1.918 . S
Fe179 O178 1.918 . S
Fe179 O180 2.002 . S
Fe179 O189 1.976 . S
Fe179 O193 1.996 . S
Fe179 O196 1.997 . S
O180 Fe179 2.002 . S
O180 C197 1.295 1_565 S
O181 Fe176 1.997 . S
O181 C197 1.235 . S
O182 Fe176 2.002 . S
O182 C183 1.295 . S
C183 O182 1.295 . S
C183 O185 1.235 . S
C184 O189 1.287 . S
C184 O190 1.255 1_565 S
O185 Fe177 1.997 1_545 S
O185 C183 1.235 . S
C186 O192 1.287 . S
C186 O193 1.255 . S
O187 Fe176 1.976 . S
O187 C194 1.287 . S
O188 Fe177 1.996 . S
O188 C194 1.255 1_565 S
O189 Fe179 1.976 . S
O189 C184 1.287 . S
O190 Fe176 1.996 . S
O190 C184 1.255 1_545 S
C191 O195 1.295 . S
C191 O196 1.235 . S
O192 Fe177 1.976 . S
O192 C186 1.287 . S
O193 Fe179 1.996 . S
O193 C186 1.255 . S
C194 O187 1.287 . S
C194 O188 1.255 1_545 S
O195 Fe177 2.002 . S
O195 C191 1.295 . S
O196 Fe179 1.997 . S
O196 C191 1.235 . S
C197 O180 1.295 1_545 S
C197 O181 1.235 . S
Fe198 O200 1.918 . S
Fe198 O203 1.997 . S
Fe198 O204 2.002 . S
Fe198 O209 1.976 . S
Fe198 O212 1.996 . S
Fe199 O200 1.918 . S
Fe199 O207 1.997 . S
Fe199 O210 1.996 . S
Fe199 O214 1.976 . S
Fe199 O217 2.002 . S
O200 Fe198 1.918 . S
O200 Fe199 1.918 . S
O200 Fe201 1.918 . S
Fe201 O200 1.918 . S
Fe201 O202 2.002 . S
Fe201 O211 1.976 . S
Fe201 O215 1.996 . S
Fe201 O218 1.997 . S
O202 Fe201 2.002 . S
O202 C219 1.295 . S
O203 Fe198 1.997 . S
O203 C219 1.235 . S
O204 Fe198 2.002 . S
O204 C205 1.295 . S
C205 O204 1.295 . S
C205 O207 1.235 . S
C206 O211 1.287 . S
C206 O212 1.255 . S
O207 Fe199 1.997 . S
O207 C205 1.235 . S
C208 O214 1.287 . S
C208 O215 1.255 . S
O209 Fe198 1.976 . S
O209 C216 1.287 . S
O210 Fe199 1.996 . S
O210 C216 1.255 . S
O211 Fe201 1.976 . S
O211 C206 1.287 . S
O212 Fe198 1.996 . S
O212 C206 1.255 . S
C213 O217 1.295 . S
C213 O218 1.235 . S
O214 Fe199 1.976 . S
O214 C208 1.287 . S
O215 Fe201 1.996 . S
O215 C208 1.255 . S
C216 O209 1.287 . S
C216 O210 1.255 . S
O217 Fe199 2.002 . S
O217 C213 1.295 . S
O218 Fe201 1.997 . S
O218 C213 1.235 . S
C219 O202 1.295 . S
C219 O203 1.235 . S
Fe220 O222 1.918 . S
Fe220 O225 1.997 1_455 S
Fe220 O226 2.002 . S
Fe220 O231 1.976 . S
Fe220 O234 1.996 . S
Fe221 O222 1.918 . S
Fe221 O229 1.997 . S
Fe221 O232 1.996 . S
Fe221 O236 1.976 . S
Fe221 O239 2.002 . S
O222 Fe220 1.918 . S
O222 Fe221 1.918 . S
O222 Fe223 1.918 1_455 S
Fe223 O222 1.918 1_655 S
Fe223 O224 2.002 . S
Fe223 O233 1.976 . S
Fe223 O237 1.996 . S
Fe223 O240 1.997 . S
O224 Fe223 2.002 . S
O224 C241 1.295 . S
O225 Fe220 1.997 1_655 S
O225 C241 1.235 . S
O226 Fe220 2.002 . S
O226 C227 1.295 . S
C227 O226 1.295 . S
C227 O229 1.235 . S
C228 O233 1.287 . S
C228 O234 1.255 1_655 S
O229 Fe221 1.997 . S
O229 C227 1.235 . S
C230 O236 1.287 . S
C230 O237 1.255 1_455 S
O231 Fe220 1.976 . S
O231 C238 1.287 . S
O232 Fe221 1.996 . S
O232 C238 1.255 . S
O233 Fe223 1.976 . S
O233 C228 1.287 . S
O234 Fe220 1.996 . S
O234 C228 1.255 1_455 S
C235 O239 1.295 1_655 S
C235 O240 1.235 . S
O236 Fe221 1.976 . S
O236 C230 1.287 . S
O237 Fe223 1.996 . S
O237 C230 1.255 1_655 S
C238 O231 1.287 . S
C238 O232 1.255 . S
O239 Fe221 2.002 . S
O239 C235 1.295 1_455 S
O240 Fe223 1.997 . S
O240 C235 1.235 . S
C241 O224 1.295 . S
C241 O225 1.235 . S
Fe242 O244 1.918 1_565 S
Fe242 O247 1.997 . S
Fe242 O248 2.002 . S
Fe242 O253 1.976 . S
Fe242 O256 1.996 . S
Fe243 O244 1.918 . S
Fe243 O251 1.997 1_545 S
Fe243 O254 1.996 . S
Fe243 O258 1.976 . S
Fe243 O261 2.002 . S
O244 Fe242 1.918 1_545 S
O244 Fe243 1.918 . S
O244 Fe245 1.918 . S
Fe245 O244 1.918 . S
Fe245 O246 2.002 . S
Fe245 O255 1.976 . S
Fe245 O259 1.996 . S
Fe245 O262 1.997 . S
O246 Fe245 2.002 . S
O246 C263 1.295 1_545 S
O247 Fe242 1.997 . S
O247 C263 1.235 . S
O248 Fe242 2.002 . S
O248 C249 1.295 . S
C249 O248 1.295 . S
C249 O251 1.235 . S
C250 O255 1.287 . S
C250 O256 1.255 1_545 S
O251 Fe243 1.997 1_565 S
O251 C249 1.235 . S
C252 O258 1.287 . S
C252 O259 1.255 . S
O253 Fe242 1.976 . S
O253 C260 1.287 . S
O254 Fe243 1.996 . S
O254 C260 1.255 1_545 S
O255 Fe245 1.976 . S
O255 C250 1.287 . S
O256 Fe242 1.996 . S
O256 C250 1.255 1_565 S
C257 O261 1.295 . S
C257 O262 1.235 . S
O258 Fe243 1.976 . S
O258 C252 1.287 . S
O259 Fe245 1.996 . S
O259 C252 1.255 . S
C260 O253 1.287 . S
C260 O254 1.255 1_565 S
O261 Fe243 2.002 . S
O261 C257 1.295 . S
O262 Fe245 1.997 . S
O262 C257 1.235 . S
C263 O246 1.295 1_565 S
C263 O247 1.235 . S
H264 C270 0.930 . S
H265 C273 0.930 . S
H266 C274 0.930 . S
H267 C275 0.930 . S
H268 C278 0.930 . S
H269 C279 0.930 . S
C270 H264 0.930 . S
C270 C271 1.355 1_554 S
C270 C272 1.415 . S
C271 C270 1.355 1_556 S
C271 C273 1.419 . S
C272 C270 1.415 . S
C272 C277 1.425 1_554 S
C272 C279 1.409 . S
C273 H265 0.930 . S
C273 C271 1.419 . S
C273 C274 1.362 . S
C274 H266 0.930 . S
C274 C273 1.362 . S
C274 C277 1.409 . S
C275 H267 0.930 . S
C275 C276 1.355 1_556 S
C275 C277 1.415 . S
C276 C275 1.355 1_554 S
C276 C278 1.419 . S
C277 C272 1.425 1_556 S
C277 C274 1.409 . S
C277 C275 1.415 . S
C278 H268 0.930 . S
C278 C276 1.419 . S
C278 C279 1.362 . S
C279 H269 0.930 . S
C279 C272 1.409 . S
C279 C278 1.362 . S
H280 C286 0.930 . S
H281 C289 0.930 . S
H282 C290 0.930 . S
H283 C291 0.930 . S
H284 C294 0.930 . S
H285 C295 0.930 . S
C286 H280 0.930 . S
C286 C287 1.355 . S
C286 C288 1.415 . S
C287 C286 1.355 . S
C287 C289 1.419 . S
C288 C286 1.415 . S
C288 C293 1.425 . S
C288 C295 1.409 . S
C289 H281 0.930 . S
C289 C287 1.419 . S
C289 C290 1.362 . S
C290 H282 0.930 . S
C290 C289 1.362 . S
C290 C293 1.409 . S
C291 H283 0.930 . S
C291 C292 1.355 . S
C291 C293 1.415 . S
C292 C291 1.355 . S
C292 C294 1.419 . S
C293 C288 1.425 . S
C293 C290 1.409 . S
C293 C291 1.415 . S
C294 H284 0.930 . S
C294 C292 1.419 . S
C294 C295 1.362 . S
C295 H285 0.930 . S
C295 C288 1.409 . S
C295 C294 1.362 . S
H296 C302 0.930 . S
H297 C305 0.930 . S
H298 C306 0.930 . S
H299 C307 0.930 . S
H300 C310 0.930 . S
H301 C311 0.930 . S
C302 H296 0.930 . S
C302 C303 1.355 . S
C302 C304 1.415 . S
C303 C302 1.355 . S
C303 C305 1.419 . S
C304 C302 1.415 . S
C304 C309 1.425 . S
C304 C311 1.409 . S
C305 H297 0.930 . S
C305 C303 1.419 . S
C305 C306 1.362 . S
C306 H298 0.930 . S
C306 C305 1.362 . S
C306 C309 1.409 . S
C307 H299 0.930 . S
C307 C308 1.355 . S
C307 C309 1.415 . S
C308 C307 1.355 . S
C308 C310 1.419 . S
C309 C304 1.425 . S
C309 C306 1.409 . S
C309 C307 1.415 . S
C310 H300 0.930 . S
C310 C308 1.419 . S
C310 C311 1.362 . S
C311 H301 0.930 . S
C311 C304 1.409 . S
C311 C310 1.362 . S
H312 C318 0.930 . S
H313 C321 0.930 . S
H314 C322 0.930 . S
H315 C323 0.930 . S
H316 C326 0.930 . S
H317 C327 0.930 . S
C318 H312 0.930 . S
C318 C319 1.355 . S
C318 C320 1.415 . S
C319 C318 1.355 . S
C319 C321 1.419 . S
C320 C318 1.415 . S
C320 C325 1.425 . S
C320 C327 1.409 . S
C321 H313 0.930 . S
C321 C319 1.419 . S
C321 C322 1.362 . S
C322 H314 0.930 . S
C322 C321 1.362 . S
C322 C325 1.409 . S
C323 H315 0.930 . S
C323 C324 1.355 . S
C323 C325 1.415 . S
C324 C323 1.355 . S
C324 C326 1.419 . S
C325 C320 1.425 . S
C325 C322 1.409 . S
C325 C323 1.415 . S
C326 H316 0.930 . S
C326 C324 1.419 . S
C326 C327 1.362 . S
C327 H317 0.930 . S
C327 C320 1.409 . S
C327 C326 1.362 . S
H328 C334 0.930 . S
H329 C337 0.930 . S
H330 C338 0.930 . S
H331 C339 0.930 . S
H332 C342 0.930 1_455 S
H333 C343 0.930 . S
C334 H328 0.930 . S
C334 C335 1.355 . S
C334 C336 1.415 . S
C335 C334 1.355 . S
C335 C337 1.419 . S
C336 C334 1.415 . S
C336 C341 1.425 . S
C336 C343 1.409 . S
C337 H329 0.930 . S
C337 C335 1.419 . S
C337 C338 1.362 . S
C338 H330 0.930 . S
C338 C337 1.362 . S
C338 C341 1.409 . S
C339 H331 0.930 . S
C339 C340 1.355 . S
C339 C341 1.415 . S
C340 C339 1.355 . S
C340 C342 1.419 . S
C341 C336 1.425 . S
C341 C338 1.409 . S
C341 C339 1.415 . S
C342 H332 0.930 1_655 S
C342 C340 1.419 . S
C342 C343 1.362 . S
C343 H333 0.930 . S
C343 C336 1.409 . S
C343 C342 1.362 . S
H344 C350 0.930 . S
H345 C353 0.930 . S
H346 C354 0.930 . S
H347 C355 0.930 . S
H348 C358 0.930 . S
H349 C359 0.930 . S
C350 H344 0.930 . S
C350 C351 1.355 . S
C350 C352 1.415 . S
C351 C350 1.355 . S
C351 C353 1.419 . S
C352 C350 1.415 . S
C352 C357 1.425 . S
C352 C359 1.409 . S
C353 H345 0.930 . S
C353 C351 1.419 . S
C353 C354 1.362 . S
C354 H346 0.930 . S
C354 C353 1.362 . S
C354 C357 1.409 . S
C355 H347 0.930 . S
C355 C356 1.355 . S
C355 C357 1.415 . S
C356 C355 1.355 . S
C356 C358 1.419 . S
C357 C352 1.425 . S
C357 C354 1.409 . S
C357 C355 1.415 . S
C358 H348 0.930 . S
C358 C356 1.419 . S
C358 C359 1.362 . S
C359 H349 0.930 . S
C359 C352 1.409 . S
C359 C358 1.362 . S
H360 C366 0.930 . S
H361 C369 0.930 . S
H362 C370 0.930 . S
H363 C371 0.930 . S
H364 C374 0.930 . S
H365 C375 0.930 . S
C366 H360 0.930 . S
C366 C367 1.355 . S
C366 C368 1.415 . S
C367 C366 1.355 . S
C367 C369 1.419 . S
C368 C366 1.415 . S
C368 C373 1.425 . S
C368 C375 1.409 . S
C369 H361 0.930 . S
C369 C367 1.419 . S
C369 C370 1.362 . S
C370 H362 0.930 . S
C370 C369 1.362 . S
C370 C373 1.409 . S
C371 H363 0.930 . S
C371 C372 1.355 . S
C371 C373 1.415 . S
C372 C371 1.355 . S
C372 C374 1.419 . S
C373 C368 1.425 . S
C373 C370 1.409 . S
C373 C371 1.415 . S
C374 H364 0.930 . S
C374 C372 1.419 . S
C374 C375 1.362 . S
C375 H365 0.930 . S
C375 C368 1.409 . S
C375 C374 1.362 . S
H376 C382 0.930 . S
H377 C385 0.930 1_655 S
H378 C386 0.930 . S
H379 C387 0.930 . S
H380 C390 0.930 . S
H381 C391 0.930 . S
C382 H376 0.930 . S
C382 C383 1.355 . S
C382 C384 1.415 . S
C383 C382 1.355 . S
C383 C385 1.419 . S
C384 C382 1.415 . S
C384 C389 1.425 . S
C384 C391 1.409 1_556 S
C385 H377 0.930 1_455 S
C385 C383 1.419 . S
C385 C386 1.362 . S
C386 H378 0.930 . S
C386 C385 1.362 . S
C386 C389 1.409 . S
C387 H379 0.930 . S
C387 C388 1.361 . S
C387 C389 1.415 . S
C388 C387 1.361 . S
C388 C390 1.414 1_556 S
C389 C384 1.425 . S
C389 C386 1.409 . S
C389 C387 1.415 . S
C390 H380 0.930 . S
C390 C388 1.414 1_554 S
C390 C391 1.362 . S
C391 H381 0.930 . S
C391 C384 1.409 1_554 S
C391 C390 1.362 . S
H392 C398 0.930 . S
H393 C401 0.930 . S
H394 C402 0.930 . S
H395 C403 0.930 . S
H396 C406 0.930 . S
H397 C407 0.930 . S
C398 H392 0.930 . S
C398 C399 1.355 . S
C398 C400 1.415 . S
C399 C398 1.355 . S
C399 C401 1.419 . S
C400 C398 1.415 . S
C400 C405 1.425 . S
C400 C407 1.409 . S
C401 H393 0.930 . S
C401 C399 1.419 . S
C401 C402 1.362 . S
C402 H394 0.930 . S
C402 C401 1.362 . S
C402 C405 1.409 . S
C403 H395 0.930 . S
C403 C404 1.355 . S
C403 C405 1.415 . S
C404 C403 1.355 . S
C404 C406 1.419 . S
C405 C400 1.425 . S
C405 C402 1.409 . S
C405 C403 1.415 . S
C406 H396 0.930 . S
C406 C404 1.419 . S
C406 C407 1.362 . S
C407 H397 0.930 . S
C407 C400 1.409 . S
C407 C406 1.362 . S
H408 C414 0.930 . S
H409 C417 0.930 . S
H410 C418 0.930 . S
H411 C419 0.930 . S
H412 C422 0.930 . S
H413 C423 0.930 . S
C414 H408 0.930 . S
C414 C415 1.355 . S
C414 C416 1.415 . S
C415 C414 1.355 . S
C415 C417 1.419 . S
C416 C414 1.415 . S
C416 C421 1.425 . S
C416 C423 1.409 . S
C417 H409 0.930 . S
C417 C415 1.419 . S
C417 C418 1.362 . S
C418 H410 0.930 . S
C418 C417 1.362 . S
C418 C421 1.409 . S
C419 H411 0.930 . S
C419 C420 1.355 . S
C419 C421 1.415 . S
C420 C419 1.355 . S
C420 C422 1.419 . S
C421 C416 1.425 . S
C421 C418 1.409 . S
C421 C419 1.415 . S
C422 H412 0.930 . S
C422 C420 1.419 . S
C422 C423 1.362 . S
C423 H413 0.930 . S
C423 C416 1.409 . S
C423 C422 1.362 . S
H424 C430 0.930 . S
H425 C433 0.930 1_455 S
H426 C434 0.930 . S
H427 C435 0.930 . S
H428 C438 0.930 . S
H429 C439 0.930 . S
C430 H424 0.930 . S
C430 C431 1.355 . S
C430 C432 1.415 . S
C431 C430 1.355 . S
C431 C433 1.419 . S
C432 C430 1.415 . S
C432 C437 1.425 . S
C432 C439 1.409 . S
C433 H425 0.930 1_655 S
C433 C431 1.419 . S
C433 C434 1.362 . S
C434 H426 0.930 . S
C434 C433 1.362 . S
C434 C437 1.409 . S
C435 H427 0.930 . S
C435 C436 1.355 . S
C435 C437 1.415 . S
C436 C435 1.355 . S
C436 C438 1.419 . S
C437 C432 1.425 . S
C437 C434 1.409 . S
C437 C435 1.415 . S
C438 H428 0.930 . S
C438 C436 1.419 . S
C438 C439 1.362 . S
C439 H429 0.930 . S
C439 C432 1.409 . S
C439 C438 1.362 . S
H440 C446 0.930 . S
H441 C449 0.930 . S
H442 C450 0.930 . S
H443 C451 0.930 . S
H444 C454 0.930 . S
H445 C455 0.930 . S
C446 H440 0.930 . S
C446 C447 1.355 . S
C446 C448 1.415 . S
C447 C446 1.355 . S
C447 C449 1.419 . S
C448 C446 1.415 . S
C448 C453 1.425 . S
C448 C455 1.409 . S
C449 H441 0.930 . S
C449 C447 1.419 . S
C449 C450 1.362 . S
C450 H442 0.930 . S
C450 C449 1.362 . S
C450 C453 1.409 . S
C451 H443 0.930 . S
C451 C452 1.355 . S
C451 C453 1.415 . S
C452 C451 1.355 . S
C452 C454 1.419 . S
C453 C448 1.425 . S
C453 C450 1.409 . S
C453 C451 1.415 . S
C454 H444 0.930 . S
C454 C452 1.419 . S
C454 C455 1.362 . S
C455 H445 0.930 . S
C455 C448 1.409 . S
C455 C454 1.362 . S
H456 C462 0.930 . S
H457 C465 0.930 . S
H458 C466 0.930 . S
H459 C467 0.930 . S
H460 C470 0.930 . S
H461 C471 0.930 . S
C462 H456 0.930 . S
C462 C463 1.355 . S
C462 C464 1.415 . S
C463 C462 1.355 . S
C463 C465 1.419 . S
C464 C462 1.415 . S
C464 C469 1.425 . S
C464 C471 1.409 . S
C465 H457 0.930 . S
C465 C463 1.419 . S
C465 C466 1.362 . S
C466 H458 0.930 . S
C466 C465 1.362 . S
C466 C469 1.409 . S
C467 H459 0.930 . S
C467 C468 1.355 . S
C467 C469 1.415 . S
C468 C467 1.355 . S
C468 C470 1.419 . S
C469 C464 1.425 . S
C469 C466 1.409 . S
C469 C467 1.415 . S
C470 H460 0.930 . S
C470 C468 1.419 . S
C470 C471 1.362 . S
C471 H461 0.930 . S
C471 C464 1.409 . S
C471 C470 1.362 . S
H472 C478 0.930 1_655 S
H473 C481 0.930 . S
H474 C482 0.930 . S
H475 C483 0.930 . S
H476 C486 0.930 . S
H477 C487 0.930 . S
C478 H472 0.930 1_455 S
C478 C479 1.355 . S
C478 C480 1.415 . S
C479 C478 1.355 . S
C479 C481 1.419 . S
C480 C478 1.415 . S
C480 C485 1.425 . S
C480 C487 1.409 . S
C481 H473 0.930 . S
C481 C479 1.419 . S
C481 C482 1.362 . S
C482 H474 0.930 . S
C482 C481 1.362 . S
C482 C485 1.409 . S
C483 H475 0.930 . S
C483 C484 1.355 . S
C483 C485 1.415 . S
C484 C483 1.355 . S
C484 C486 1.419 . S
C485 C480 1.425 . S
C485 C482 1.409 . S
C485 C483 1.415 . S
C486 H476 0.930 . S
C486 C484 1.419 . S
C486 C487 1.362 . S
C487 H477 0.930 . S
C487 C480 1.409 . S
C487 C486 1.362 . S
H488 C494 0.930 . S
H489 C497 0.930 . S
H490 C498 0.930 1_565 S
H491 C499 0.930 . S
H492 C502 0.930 . S
H493 C503 0.930 . S
C494 H488 0.930 . S
C494 C495 1.355 . S
C494 C496 1.415 . S
C495 C494 1.355 . S
C495 C497 1.419 . S
C496 C494 1.415 . S
C496 C501 1.425 . S
C496 C503 1.409 . S
C497 H489 0.930 . S
C497 C495 1.419 . S
C497 C498 1.362 . S
C498 H490 0.930 1_545 S
C498 C497 1.362 . S
C498 C501 1.409 . S
C499 H491 0.930 . S
C499 C500 1.355 1_565 S
C499 C501 1.415 1_565 S
C500 C499 1.355 1_545 S
C500 C502 1.419 . S
C501 C496 1.425 . S
C501 C498 1.409 . S
C501 C499 1.415 1_545 S
C502 H492 0.930 . S
C502 C500 1.419 . S
C502 C503 1.362 . S
C503 H493 0.930 . S
C503 C496 1.409 . S
C503 C502 1.362 . S
H504 C510 0.930 . S
H505 C513 0.930 . S
H506 C514 0.930 . S
H507 C515 0.930 . S
H508 C518 0.930 . S
H509 C519 0.930 . S
C510 H504 0.930 . S
C510 C511 1.355 . S
C510 C512 1.415 . S
C511 C510 1.355 . S
C511 C513 1.419 . S
C512 C510 1.415 . S
C512 C517 1.425 . S
C512 C519 1.409 . S
C513 H505 0.930 . S
C513 C511 1.419 . S
C513 C514 1.362 . S
C514 H506 0.930 . S
C514 C513 1.362 . S
C514 C517 1.409 . S
C515 H507 0.930 . S
C515 C516 1.355 . S
C515 C517 1.415 . S
C516 C515 1.355 . S
C516 C518 1.419 . S
C517 C512 1.425 . S
C517 C514 1.409 . S
C517 C515 1.415 . S
C518 H508 0.930 . S
C518 C516 1.419 . S
C518 C519 1.362 . S
C519 H509 0.930 . S
C519 C512 1.409 . S
C519 C518 1.362 . S
H520 C526 0.930 . S
H521 C529 0.930 . S
H522 C530 0.930 . S
H523 C531 0.930 . S
H524 C534 0.930 . S
H525 C535 0.930 . S
C526 H520 0.930 . S
C526 C527 1.355 . S
C526 C528 1.415 . S
C527 C526 1.355 . S
C527 C529 1.419 . S
C528 C526 1.415 . S
C528 C533 1.425 . S
C528 C535 1.409 1_655 S
C529 H521 0.930 . S
C529 C527 1.419 . S
C529 C530 1.362 . S
C530 H522 0.930 . S
C530 C529 1.362 . S
C530 C533 1.409 . S
C531 H523 0.930 . S
C531 C532 1.343 1_655 S
C531 C533 1.415 . S
C532 C531 1.343 1_455 S
C532 C534 1.428 . S
C533 C528 1.425 . S
C533 C530 1.409 . S
C533 C531 1.415 . S
C534 H524 0.930 . S
C534 C532 1.428 . S
C534 C535 1.362 . S
C535 H525 0.930 . S
C535 C528 1.409 1_455 S
C535 C534 1.362 . S
H536 C542 0.930 . S
H537 C545 0.930 . S
H538 C546 0.930 . S
H539 C547 0.930 . S
H540 C550 0.930 . S
H541 C551 0.930 . S
C542 H536 0.930 . S
C542 C543 1.355 . S
C542 C544 1.415 . S
C543 C542 1.355 . S
C543 C545 1.419 1_565 S
C544 C542 1.415 . S
C544 C549 1.425 . S
C544 C551 1.409 . S
C545 H537 0.930 . S
C545 C543 1.419 1_545 S
C545 C546 1.362 . S
C546 H538 0.930 . S
C546 C545 1.362 . S
C546 C549 1.409 1_545 S
C547 H539 0.930 . S
C547 C548 1.355 . S
C547 C549 1.415 . S
C548 C547 1.355 . S
C548 C550 1.419 . S
C549 C544 1.425 . S
C549 C546 1.409 1_565 S
C549 C547 1.415 . S
C550 H540 0.930 . S
C550 C548 1.419 . S
C550 C551 1.362 . S
C551 H541 0.930 . S
C551 C544 1.409 . S
C551 C550 1.362 . S
H552 C558 0.930 . S
H553 C561 0.930 . S
H554 C562 0.930 . S
H555 C563 0.930 . S
H556 C566 0.930 . S
H557 C567 0.930 . S
C558 H552 0.930 . S
C558 C559 1.355 . S
C558 C560 1.415 . S
C559 C558 1.355 . S
C559 C561 1.419 . S
C560 C558 1.415 . S
C560 C565 1.425 . S
C560 C567 1.409 . S
C561 H553 0.930 . S
C561 C559 1.419 . S
C561 C562 1.362 . S
C562 H554 0.930 . S
C562 C561 1.362 . S
C562 C565 1.409 . S
C563 H555 0.930 . S
C563 C564 1.355 . S
C563 C565 1.415 . S
C564 C563 1.355 . S
C564 C566 1.419 . S
C565 C560 1.425 . S
C565 C562 1.409 . S
C565 C563 1.415 . S
C566 H556 0.930 . S
C566 C564 1.419 . S
C566 C567 1.362 . S
C567 H557 0.930 . S
C567 C560 1.409 . S
C567 C566 1.362 . S
H568 C574 0.930 . S
H569 C577 0.930 . S
H570 C578 0.930 . S
H571 C579 0.930 . S
H572 C582 0.930 . S
H573 C583 0.930 . S
C574 H568 0.930 . S
C574 C575 1.355 . S
C574 C576 1.415 . S
C575 C574 1.355 . S
C575 C577 1.419 1_455 S
C576 C574 1.415 . S
C576 C581 1.425 . S
C576 C583 1.409 . S
C577 H569 0.930 . S
C577 C575 1.419 1_655 S
C577 C578 1.362 1_655 S
C578 H570 0.930 . S
C578 C577 1.362 1_455 S
C578 C581 1.409 . S
C579 H571 0.930 . S
C579 C580 1.355 . S
C579 C581 1.415 . S
C580 C579 1.355 . S
C580 C582 1.419 . S
C581 C576 1.425 . S
C581 C578 1.409 . S
C581 C579 1.415 . S
C582 H572 0.930 . S
C582 C580 1.419 . S
C582 C583 1.362 . S
C583 H573 0.930 . S
C583 C576 1.409 . S
C583 C582 1.362 . S
H584 C590 0.930 . S
H585 C593 0.930 . S
H586 C594 0.930 . S
H587 C595 0.930 . S
H588 C598 0.930 . S
H589 C599 0.930 . S
C590 H584 0.930 . S
C590 C591 1.355 . S
C590 C592 1.415 . S
C591 C590 1.355 . S
C591 C593 1.419 1_545 S
C592 C590 1.415 . S
C592 C597 1.425 . S
C592 C599 1.409 . S
C593 H585 0.930 . S
C593 C591 1.419 1_565 S
C593 C594 1.362 . S
C594 H586 0.930 . S
C594 C593 1.362 . S
C594 C597 1.409 1_565 S
C595 H587 0.930 . S
C595 C596 1.355 . S
C595 C597 1.415 . S
C596 C595 1.355 . S
C596 C598 1.419 . S
C597 C592 1.425 . S
C597 C594 1.409 1_545 S
C597 C595 1.415 . S
C598 H588 0.930 . S
C598 C596 1.419 . S
C598 C599 1.362 . S
C599 H589 0.930 . S
C599 C592 1.409 . S
C599 C598 1.362 . S
H600 C606 0.930 . S
H601 C609 0.930 . S
H602 C610 0.930 . S
H603 C611 0.930 . S
H604 C614 0.930 . S
H605 C615 0.930 . S
C606 H600 0.930 . S
C606 C607 1.355 . S
C606 C608 1.415 . S
C607 C606 1.355 . S
C607 C609 1.419 . S
C608 C606 1.415 . S
C608 C613 1.425 . S
C608 C615 1.409 . S
C609 H601 0.930 . S
C609 C607 1.419 . S
C609 C610 1.362 . S
C610 H602 0.930 . S
C610 C609 1.362 . S
C610 C613 1.409 . S
C611 H603 0.930 . S
C611 C612 1.355 . S
C611 C613 1.415 . S
C612 C611 1.355 . S
C612 C614 1.419 . S
C613 C608 1.425 . S
C613 C610 1.409 . S
C613 C611 1.415 . S
C614 H604 0.930 . S
C614 C612 1.419 . S
C614 C615 1.362 . S
C615 H605 0.930 . S
C615 C608 1.409 . S
C615 C614 1.362 . S
H616 C622 0.930 . S
H617 C625 0.930 . S
H618 C626 0.930 . S
H619 C627 0.930 . S
H620 C630 0.930 . S
H621 C631 0.930 . S
C622 H616 0.930 . S
C622 C623 1.353 1_655 S
C622 C624 1.415 . S
C623 C622 1.353 1_455 S
C623 C625 1.421 . S
C624 C622 1.415 . S
C624 C629 1.425 . S
C624 C631 1.409 . S
C625 H617 0.930 . S
C625 C623 1.421 . S
C625 C626 1.362 . S
C626 H618 0.930 . S
C626 C625 1.362 . S
C626 C629 1.409 1_455 S
C627 H619 0.930 . S
C627 C628 1.355 . S
C627 C629 1.415 . S
C628 C627 1.355 . S
C628 C630 1.419 . S
C629 C624 1.425 . S
C629 C626 1.409 1_655 S
C629 C627 1.415 . S
C630 H620 0.930 . S
C630 C628 1.419 . S
C630 C631 1.362 . S
C631 H621 0.930 . S
C631 C624 1.409 . S
C631 C630 1.362 . S
H632 C638 0.930 . S
H633 C641 0.930 . S
H634 C642 0.930 . S
H635 C643 0.930 . S
H636 C646 0.930 . S
H637 C647 0.930 1_545 S
C638 H632 0.930 . S
C638 C639 1.355 . S
C638 C640 1.415 . S
C639 C638 1.355 . S
C639 C641 1.419 . S
C640 C638 1.415 . S
C640 C645 1.425 . S
C640 C647 1.409 . S
C641 H633 0.930 . S
C641 C639 1.419 . S
C641 C642 1.362 . S
C642 H634 0.930 . S
C642 C641 1.362 . S
C642 C645 1.409 . S
C643 H635 0.930 . S
C643 C644 1.355 . S
C643 C645 1.415 . S
C644 C643 1.355 . S
C644 C646 1.419 1_565 S
C645 C640 1.425 . S
C645 C642 1.409 . S
C645 C643 1.415 . S
C646 H636 0.930 . S
C646 C644 1.419 1_545 S
C646 C647 1.362 1_545 S
C647 H637 0.930 1_565 S
C647 C640 1.409 . S
C647 C646 1.362 1_565 S
H648 C654 0.930 . S
H649 C657 0.930 . S
H650 C658 0.930 . S
H651 C659 0.930 . S
H652 C662 0.930 . S
H653 C663 0.930 . S
C654 H648 0.930 . S
C654 C655 1.355 . S
C654 C656 1.415 . S
C655 C654 1.355 . S
C655 C657 1.419 . S
C656 C654 1.415 . S
C656 C661 1.425 . S
C656 C663 1.409 . S
C657 H649 0.930 . S
C657 C655 1.419 . S
C657 C658 1.362 . S
C658 H650 0.930 . S
C658 C657 1.362 . S
C658 C661 1.409 . S
C659 H651 0.930 . S
C659 C660 1.355 . S
C659 C661 1.415 . S
C660 C659 1.355 . S
C660 C662 1.419 . S
C661 C656 1.425 . S
C661 C658 1.409 . S
C661 C659 1.415 . S
C662 H652 0.930 . S
C662 C660 1.419 . S
C662 C663 1.362 . S
C663 H653 0.930 . S
C663 C656 1.409 . S
C663 C662 1.362 . S
H664 C670 0.930 . S
H665 C673 0.930 . S
H666 C674 0.930 . S
H667 C675 0.930 . S
H668 C678 0.930 . S
H669 C679 0.930 . S
C670 H664 0.930 . S
C670 C671 1.355 . S
C670 C672 1.415 . S
C671 C670 1.355 . S
C671 C673 1.419 . S
C672 C670 1.415 . S
C672 C677 1.425 . S
C672 C679 1.409 . S
C673 H665 0.930 . S
C673 C671 1.419 . S
C673 C674 1.362 . S
C674 H666 0.930 . S
C674 C673 1.362 . S
C674 C677 1.409 . S
C675 H667 0.930 . S
C675 C676 1.355 . S
C675 C677 1.415 . S
C676 C675 1.355 . S
C676 C678 1.419 . S
C677 C672 1.425 . S
C677 C674 1.409 . S
C677 C675 1.415 . S
C678 H668 0.930 . S
C678 C676 1.419 . S
C678 C679 1.362 . S
C679 H669 0.930 . S
C679 C672 1.409 . S
C679 C678 1.362 . S
H680 C686 0.930 . S
H681 C689 0.930 . S
H682 C690 0.930 . S
H683 C691 0.930 . S
H684 C694 0.930 . S
H685 C695 0.930 . S
C686 H680 0.930 . S
C686 C687 1.355 . S
C686 C688 1.415 . S
C687 C686 1.355 . S
C687 C689 1.419 . S
C688 C686 1.415 . S
C688 C693 1.425 . S
C688 C695 1.409 . S
C689 H681 0.930 . S
C689 C687 1.419 . S
C689 C690 1.362 . S
C690 H682 0.930 . S
C690 C689 1.362 . S
C690 C693 1.409 . S
C691 H683 0.930 . S
C691 C692 1.355 . S
C691 C693 1.415 . S
C692 C691 1.355 . S
C692 C694 1.419 . S
C693 C688 1.425 . S
C693 C690 1.409 . S
C693 C691 1.415 . S
C694 H684 0.930 . S
C694 C692 1.419 . S
C694 C695 1.362 . S
C695 H685 0.930 . S
C695 C688 1.409 . S
C695 C694 1.362 . S
H696 C702 0.930 . S
H697 C705 0.930 . S
H698 C706 0.930 . S
H699 C707 0.930 . S
H700 C710 0.930 . S
H701 C711 0.930 . S
C702 H696 0.930 . S
C702 C703 1.355 . S
C702 C704 1.415 . S
C703 C702 1.355 . S
C703 C705 1.419 . S
C704 C702 1.415 . S
C704 C709 1.425 . S
C704 C711 1.409 . S
C705 H697 0.930 . S
C705 C703 1.419 . S
C705 C706 1.362 . S
C706 H698 0.930 . S
C706 C705 1.362 . S
C706 C709 1.409 . S
C707 H699 0.930 . S
C707 C708 1.355 . S
C707 C709 1.415 . S
C708 C707 1.355 . S
C708 C710 1.419 . S
C709 C704 1.425 . S
C709 C706 1.409 . S
C709 C707 1.415 . S
C710 H700 0.930 . S
C710 C708 1.419 . S
C710 C711 1.362 . S
C711 H701 0.930 . S
C711 C704 1.409 . S
C711 C710 1.362 . S
H712 C718 0.930 . S
H713 C721 0.930 . S
H714 C722 0.930 . S
H715 C723 0.930 . S
H716 C726 0.930 . S
H717 C727 0.930 . S
C718 H712 0.930 . S
C718 C719 1.355 . S
C718 C720 1.415 . S
C719 C718 1.355 . S
C719 C721 1.419 . S
C720 C718 1.415 . S
C720 C725 1.425 . S
C720 C727 1.409 . S
C721 H713 0.930 . S
C721 C719 1.419 . S
C721 C722 1.362 . S
C722 H714 0.930 . S
C722 C721 1.362 . S
C722 C725 1.409 . S
C723 H715 0.930 . S
C723 C724 1.355 . S
C723 C725 1.415 . S
C724 C723 1.355 . S
C724 C726 1.419 . S
C725 C720 1.425 . S
C725 C722 1.409 . S
C725 C723 1.415 . S
C726 H716 0.930 . S
C726 C724 1.419 . S
C726 C727 1.362 . S
C727 H717 0.930 . S
C727 C720 1.409 . S
C727 C726 1.362 . S
H728 C734 0.930 . S
H729 C737 0.930 . S
H730 C738 0.930 . S
H731 C739 0.930 . S
H732 C742 0.930 . S
H733 C743 0.930 . S
C734 H728 0.930 . S
C734 C735 1.355 . S
C734 C736 1.415 . S
C735 C734 1.355 . S
C735 C737 1.419 . S
C736 C734 1.415 . S
C736 C741 1.425 . S
C736 C743 1.409 . S
C737 H729 0.930 . S
C737 C735 1.419 . S
C737 C738 1.362 . S
C738 H730 0.930 . S
C738 C737 1.362 . S
C738 C741 1.409 . S
C739 H731 0.930 . S
C739 C740 1.355 . S
C739 C741 1.415 . S
C740 C739 1.355 . S
C740 C742 1.419 . S
C741 C736 1.425 . S
C741 C738 1.409 . S
C741 C739 1.415 . S
C742 H732 0.930 . S
C742 C740 1.419 . S
C742 C743 1.362 . S
C743 H733 0.930 . S
C743 C736 1.409 . S
C743 C742 1.362 . S
H744 C750 0.930 . S
H745 C753 0.930 . S
H746 C754 0.930 . S
H747 C755 0.938 . S
H748 C758 0.929 1_655 S
H749 C759 0.930 . S
C750 H744 0.930 . S
C750 C751 1.355 1_556 S
C750 C752 1.415 . S
C751 C750 1.355 1_554 S
C751 C753 1.419 . S
C752 C750 1.415 . S
C752 C757 1.425 1_546 S
C752 C759 1.409 1_545 S
C753 H745 0.930 . S
C753 C751 1.419 . S
C753 C754 1.362 . S
C754 H746 0.930 . S
C754 C753 1.362 . S
C754 C757 1.409 1_545 S
C755 H747 0.938 . S
C755 C756 1.344 1_554 S
C755 C757 1.417 . S
C756 C755 1.344 1_556 S
C756 C758 1.420 . S
C757 C752 1.425 1_564 S
C757 C754 1.409 1_565 S
C757 C755 1.417 . S
C758 H748 0.929 1_455 S
C758 C756 1.420 . S
C758 C759 1.362 . S
C759 H749 0.930 . S
C759 C752 1.409 1_565 S
C759 C758 1.362 . S
H760 C766 0.930 . S
H761 C769 0.930 . S
H762 C770 0.930 . S
H763 C771 0.930 . S
H764 C774 0.930 1_655 S
H765 C775 0.930 . S
C766 H760 0.930 . S
C766 C767 1.355 . S
C766 C768 1.415 . S
C767 C766 1.355 . S
C767 C769 1.419 . S
C768 C766 1.415 . S
C768 C773 1.425 . S
C768 C775 1.409 . S
C769 H761 0.930 . S
C769 C767 1.419 . S
C769 C770 1.362 . S
C770 H762 0.930 . S
C770 C769 1.362 . S
C770 C773 1.409 . S
C771 H763 0.930 . S
C771 C772 1.355 . S
C771 C773 1.415 . S
C772 C771 1.355 . S
C772 C774 1.419 . S
C773 C768 1.425 . S
C773 C770 1.409 . S
C773 C771 1.415 . S
C774 H764 0.930 1_455 S
C774 C772 1.419 . S
C774 C775 1.362 . S
C775 H765 0.930 . S
C775 C768 1.409 . S
C775 C774 1.362 . S
H776 C782 0.930 . S
H777 C785 0.930 . S
H778 C786 0.930 . S
H779 C787 0.930 . S
H780 C790 0.930 . S
H781 C791 0.930 1_565 S
C782 H776 0.930 . S
C782 C783 1.355 . S
C782 C784 1.415 . S
C783 C782 1.355 . S
C783 C785 1.419 . S
C784 C782 1.415 . S
C784 C789 1.425 1_455 S
C784 C791 1.409 1_455 S
C785 H777 0.930 . S
C785 C783 1.419 . S
C785 C786 1.362 . S
C786 H778 0.930 . S
C786 C785 1.362 . S
C786 C789 1.409 1_455 S
C787 H779 0.930 . S
C787 C788 1.355 . S
C787 C789 1.415 . S
C788 C787 1.355 . S
C788 C790 1.419 1_545 S
C789 C784 1.425 1_655 S
C789 C786 1.409 1_655 S
C789 C787 1.415 . S
C790 H780 0.930 . S
C790 C788 1.419 1_565 S
C790 C791 1.362 1_565 S
C791 H781 0.930 1_545 S
C791 C784 1.409 1_655 S
C791 C790 1.362 1_545 S
H792 C798 0.930 . S
H793 C801 0.930 1_455 S
H794 C802 0.930 . S
H795 C803 0.930 . S
H796 C806 0.930 . S
H797 C807 0.930 . S
C798 H792 0.930 . S
C798 C799 1.355 . S
C798 C800 1.415 . S
C799 C798 1.355 . S
C799 C801 1.419 . S
C800 C798 1.415 . S
C800 C805 1.425 1_545 S
C800 C807 1.409 1_545 S
C801 H793 0.930 1_655 S
C801 C799 1.419 . S
C801 C802 1.362 . S
C802 H794 0.930 . S
C802 C801 1.362 . S
C802 C805 1.409 1_545 S
C803 H795 0.930 . S
C803 C804 1.355 . S
C803 C805 1.415 . S
C804 C803 1.355 . S
C804 C806 1.419 . S
C805 C800 1.425 1_565 S
C805 C802 1.409 1_565 S
C805 C803 1.415 . S
C806 H796 0.930 . S
C806 C804 1.419 . S
C806 C807 1.362 . S
C807 H797 0.930 . S
C807 C800 1.409 1_565 S
C807 C806 1.362 . S
H808 C814 0.930 . S
H809 C817 0.930 . S
H810 C818 0.930 . S
H811 C819 0.930 . S
H812 C822 0.930 . S
H813 C823 0.930 . S
C814 H808 0.930 . S
C814 C815 1.355 . S
C814 C816 1.415 . S
C815 C814 1.355 . S
C815 C817 1.419 . S
C816 C814 1.415 . S
C816 C821 1.425 . S
C816 C823 1.409 . S
C817 H809 0.930 . S
C817 C815 1.419 . S
C817 C818 1.362 . S
C818 H810 0.930 . S
C818 C817 1.362 . S
C818 C821 1.409 . S
C819 H811 0.930 . S
C819 C820 1.355 . S
C819 C821 1.415 . S
C820 C819 1.355 . S
C820 C822 1.419 1_565 S
C821 C816 1.425 . S
C821 C818 1.409 . S
C821 C819 1.415 . S
C822 H812 0.930 . S
C822 C820 1.419 1_545 S
C822 C823 1.362 1_545 S
C823 H813 0.930 . S
C823 C816 1.409 . S
C823 C822 1.362 1_565 S
H824 C830 0.930 . S
H825 C833 0.930 . S
H826 C834 0.930 . S
H827 C835 0.930 . S
H828 C838 0.930 . S
H829 C839 0.930 . S
C830 H824 0.930 . S
C830 C831 1.355 . S
C830 C832 1.415 . S
C831 C830 1.355 . S
C831 C833 1.419 . S
C832 C830 1.415 . S
C832 C837 1.425 1_455 S
C832 C839 1.409 1_455 S
C833 H825 0.930 . S
C833 C831 1.419 . S
C833 C834 1.362 . S
C834 H826 0.930 . S
C834 C833 1.362 . S
C834 C837 1.409 1_455 S
C835 H827 0.930 . S
C835 C836 1.355 . S
C835 C837 1.415 . S
C836 C835 1.355 . S
C836 C838 1.419 . S
C837 C832 1.425 1_655 S
C837 C834 1.409 1_655 S
C837 C835 1.415 . S
C838 H828 0.930 . S
C838 C836 1.419 . S
C838 C839 1.362 . S
C839 H829 0.930 . S
C839 C832 1.409 1_655 S
C839 C838 1.362 . S
C271 C164 1.738 . S
C276 C10 1.798 . S
C287 C186 1.726 . S
C292 C30 1.791 . S
C303 C216 1.725 . S
C308 C54 1.790 . S
C319 C238 1.785 . S
C324 C74 1.822 . S
C335 C252 1.784 . S
C340 C96 1.822 . S
C351 C142 1.736 . S
C356 C120 1.796 . S
C367 C150 1.815 . S
C372 C118 1.771 . S
C383 C172 1.815 . S
C388 C8 1.769 1_556 S
C399 C194 1.820 . S
C404 C40 1.781 . S
C415 C206 1.790 . S
C420 C52 1.724 . S
C431 C228 1.820 . S
C436 C84 1.780 . S
C447 C260 1.796 . S
C452 C106 1.735 . S
C463 C18 1.481 . S
C468 C131 1.439 . S
C479 C32 1.452 1_455 S
C484 C21 1.483 . S
C495 C29 1.481 . S
C500 C62 1.456 1_545 S
C511 C65 1.488 . S
C516 C76 1.433 . S
C527 C73 1.443 . S
C532 C98 1.488 . S
C543 C128 1.480 1_565 S
C548 C95 1.458 . S
C559 C140 1.435 . S
C564 C169 1.489 . S
C575 C162 1.462 1_455 S
C580 C191 1.447 . S
C591 C184 1.478 1_545 S
C596 C205 1.461 . S
C607 C208 1.441 . S
C612 C227 1.488 . S
C623 C230 1.486 . S
C628 C257 1.445 . S
C639 C147 1.457 . S
C644 C250 1.449 1_565 S
C655 C183 1.227 . S
C660 C15 1.208 . S
C671 C43 1.249 . S
C676 C219 1.230 . S
C687 C59 1.235 . S
C692 C241 1.248 . S
C703 C87 1.242 . S
C708 C249 1.243 . S
C719 C109 1.228 . S
C724 C139 1.208 . S
C735 C161 1.241 . S
C740 C125 1.245 . S
C751 C7 0.524 . S
C756 C175 0.540 . S
C767 C197 0.413 . S
C772 C37 0.436 . S
C783 C213 0.468 . S
C788 C51 0.499 . S
C799 C235 0.416 . S
C804 C81 0.403 . S
C815 C103 0.429 . S
C820 C263 0.458 . S
C831 C117 0.403 . S
C836 C153 0.406 . S
