# Generated by pormake.
# Topology ato, (4)-cn, num edge types: 1
# Building blocks:
#     Node 0, Type 0, BuildingBlock: TATPOV_clean_sbu_0, # of connection points: 4
#     Node 1, Type 0, BuildingBlock: TATPOV_clean_sbu_0, # of connection points: 4
#     Node 2, Type 0, BuildingBlock: TATPOV_clean_sbu_0, # of connection points: 4
#     Node 3, Type 0, BuildingBlock: TATPOV_clean_sbu_0, # of connection points: 4
#     Node 4, Type 0, BuildingBlock: TATPOV_clean_sbu_0, # of connection points: 4
#     Node 5, Type 0, BuildingBlock: TATPOV_clean_sbu_0, # of connection points: 4
#     Node 6, Type 0, BuildingBlock: TATPOV_clean_sbu_0, # of connection points: 4
#     Node 7, Type 0, BuildingBlock: TATPOV_clean_sbu_0, # of connection points: 4
#     Node 8, Type 0, BuildingBlock: TATPOV_clean_sbu_0, # of connection points: 4
#     Node 9, Type 0, BuildingBlock: TATPOV_clean_sbu_0, # of connection points: 4
#     Node 10, Type 0, BuildingBlock: TATPOV_clean_sbu_0, # of connection points: 4
#     Node 11, Type 0, BuildingBlock: TATPOV_clean_sbu_0, # of connection points: 4
#     Node 12, Type 0, BuildingBlock: TATPOV_clean_sbu_0, # of connection points: 4
#     Node 13, Type 0, BuildingBlock: TATPOV_clean_sbu_0, # of connection points: 4
#     Node 14, Type 0, BuildingBlock: TATPOV_clean_sbu_0, # of connection points: 4
#     Node 15, Type 0, BuildingBlock: TATPOV_clean_sbu_0, # of connection points: 4
#     Node 16, Type 0, BuildingBlock: TATPOV_clean_sbu_0, # of connection points: 4
#     Node 17, Type 0, BuildingBlock: TATPOV_clean_sbu_0, # of connection points: 4
#     Node 18, Type 0, BuildingBlock: TATPOV_clean_sbu_0, # of connection points: 4
#     Node 19, Type 0, BuildingBlock: TATPOV_clean_sbu_0, # of connection points: 4
#     Node 20, Type 0, BuildingBlock: TATPOV_clean_sbu_0, # of connection points: 4
#     Node 21, Type 0, BuildingBlock: TATPOV_clean_sbu_0, # of connection points: 4
#     Node 22, Type 0, BuildingBlock: TATPOV_clean_sbu_0, # of connection points: 4
#     Node 23, Type 0, BuildingBlock: TATPOV_clean_sbu_0, # of connection points: 4
#     Node 24, Type 0, BuildingBlock: TATPOV_clean_sbu_0, # of connection points: 4
#     Node 25, Type 0, BuildingBlock: TATPOV_clean_sbu_0, # of connection points: 4
#     Node 26, Type 0, BuildingBlock: TATPOV_clean_sbu_0, # of connection points: 4
#     Node 27, Type 0, BuildingBlock: TATPOV_clean_sbu_0, # of connection points: 4
#     Node 28, Type 0, BuildingBlock: TATPOV_clean_sbu_0, # of connection points: 4
#     Node 29, Type 0, BuildingBlock: TATPOV_clean_sbu_0, # of connection points: 4
#     Node 30, Type 0, BuildingBlock: TATPOV_clean_sbu_0, # of connection points: 4
#     Node 31, Type 0, BuildingBlock: TATPOV_clean_sbu_0, # of connection points: 4
#     Node 32, Type 0, BuildingBlock: TATPOV_clean_sbu_0, # of connection points: 4
#     Node 33, Type 0, BuildingBlock: TATPOV_clean_sbu_0, # of connection points: 4
#     Node 34, Type 0, BuildingBlock: TATPOV_clean_sbu_0, # of connection points: 4
#     Node 35, Type 0, BuildingBlock: TATPOV_clean_sbu_0, # of connection points: 4
#     Edge 36, Type (0, 0), BuildingBlock: XIVTED_clean_linker_0, # of connection points: 2
#     Edge 37, Type (0, 0), BuildingBlock: XIVTED_clean_linker_0, # of connection points: 2
#     Edge 38, Type (0, 0), BuildingBlock: XIVTED_clean_linker_0, # of connection points: 2
#     Edge 39, Type (0, 0), BuildingBlock: XIVTED_clean_linker_0, # of connection points: 2
#     Edge 40, Type (0, 0), BuildingBlock: XIVTED_clean_linker_0, # of connection points: 2
#     Edge 41, Type (0, 0), BuildingBlock: XIVTED_clean_linker_0, # of connection points: 2
#     Edge 42, Type (0, 0), BuildingBlock: XIVTED_clean_linker_0, # of connection points: 2
#     Edge 43, Type (0, 0), BuildingBlock: XIVTED_clean_linker_0, # of connection points: 2
#     Edge 44, Type (0, 0), BuildingBlock: XIVTED_clean_linker_0, # of connection points: 2
#     Edge 45, Type (0, 0), BuildingBlock: XIVTED_clean_linker_0, # of connection points: 2
#     Edge 46, Type (0, 0), BuildingBlock: XIVTED_clean_linker_0, # of connection points: 2
#     Edge 47, Type (0, 0), BuildingBlock: XIVTED_clean_linker_0, # of connection points: 2
#     Edge 48, Type (0, 0), BuildingBlock: XIVTED_clean_linker_0, # of connection points: 2
#     Edge 49, Type (0, 0), BuildingBlock: XIVTED_clean_linker_0, # of connection points: 2
#     Edge 50, Type (0, 0), BuildingBlock: XIVTED_clean_linker_0, # of connection points: 2
#     Edge 51, Type (0, 0), BuildingBlock: XIVTED_clean_linker_0, # of connection points: 2
#     Edge 52, Type (0, 0), BuildingBlock: XIVTED_clean_linker_0, # of connection points: 2
#     Edge 53, Type (0, 0), BuildingBlock: XIVTED_clean_linker_0, # of connection points: 2
#     Edge 54, Type (0, 0), BuildingBlock: XIVTED_clean_linker_0, # of connection points: 2
#     Edge 55, Type (0, 0), BuildingBlock: XIVTED_clean_linker_0, # of connection points: 2
#     Edge 56, Type (0, 0), BuildingBlock: XIVTED_clean_linker_0, # of connection points: 2
#     Edge 57, Type (0, 0), BuildingBlock: XIVTED_clean_linker_0, # of connection points: 2
#     Edge 58, Type (0, 0), BuildingBlock: XIVTED_clean_linker_0, # of connection points: 2
#     Edge 59, Type (0, 0), BuildingBlock: XIVTED_clean_linker_0, # of connection points: 2
#     Edge 60, Type (0, 0), BuildingBlock: XIVTED_clean_linker_0, # of connection points: 2
#     Edge 61, Type (0, 0), BuildingBlock: XIVTED_clean_linker_0, # of connection points: 2
#     Edge 62, Type (0, 0), BuildingBlock: XIVTED_clean_linker_0, # of connection points: 2
#     Edge 63, Type (0, 0), BuildingBlock: XIVTED_clean_linker_0, # of connection points: 2
#     Edge 64, Type (0, 0), BuildingBlock: XIVTED_clean_linker_0, # of connection points: 2
#     Edge 65, Type (0, 0), BuildingBlock: XIVTED_clean_linker_0, # of connection points: 2
#     Edge 66, Type (0, 0), BuildingBlock: XIVTED_clean_linker_0, # of connection points: 2
#     Edge 67, Type (0, 0), BuildingBlock: XIVTED_clean_linker_0, # of connection points: 2
#     Edge 68, Type (0, 0), BuildingBlock: XIVTED_clean_linker_0, # of connection points: 2
#     Edge 69, Type (0, 0), BuildingBlock: XIVTED_clean_linker_0, # of connection points: 2
#     Edge 70, Type (0, 0), BuildingBlock: XIVTED_clean_linker_0, # of connection points: 2
#     Edge 71, Type (0, 0), BuildingBlock: XIVTED_clean_linker_0, # of connection points: 2
#     Edge 72, Type (0, 0), BuildingBlock: XIVTED_clean_linker_0, # of connection points: 2
#     Edge 73, Type (0, 0), BuildingBlock: XIVTED_clean_linker_0, # of connection points: 2
#     Edge 74, Type (0, 0), BuildingBlock: XIVTED_clean_linker_0, # of connection points: 2
#     Edge 75, Type (0, 0), BuildingBlock: XIVTED_clean_linker_0, # of connection points: 2
#     Edge 76, Type (0, 0), BuildingBlock: XIVTED_clean_linker_0, # of connection points: 2
#     Edge 77, Type (0, 0), BuildingBlock: XIVTED_clean_linker_0, # of connection points: 2
#     Edge 78, Type (0, 0), BuildingBlock: XIVTED_clean_linker_0, # of connection points: 2
#     Edge 79, Type (0, 0), BuildingBlock: XIVTED_clean_linker_0, # of connection points: 2
#     Edge 80, Type (0, 0), BuildingBlock: XIVTED_clean_linker_0, # of connection points: 2
#     Edge 81, Type (0, 0), BuildingBlock: XIVTED_clean_linker_0, # of connection points: 2
#     Edge 82, Type (0, 0), BuildingBlock: XIVTED_clean_linker_0, # of connection points: 2
#     Edge 83, Type (0, 0), BuildingBlock: XIVTED_clean_linker_0, # of connection points: 2
#     Edge 84, Type (0, 0), BuildingBlock: XIVTED_clean_linker_0, # of connection points: 2
#     Edge 85, Type (0, 0), BuildingBlock: XIVTED_clean_linker_0, # of connection points: 2
#     Edge 86, Type (0, 0), BuildingBlock: XIVTED_clean_linker_0, # of connection points: 2
#     Edge 87, Type (0, 0), BuildingBlock: XIVTED_clean_linker_0, # of connection points: 2
#     Edge 88, Type (0, 0), BuildingBlock: XIVTED_clean_linker_0, # of connection points: 2
#     Edge 89, Type (0, 0), BuildingBlock: XIVTED_clean_linker_0, # of connection points: 2
#     Edge 90, Type (0, 0), BuildingBlock: XIVTED_clean_linker_0, # of connection points: 2
#     Edge 91, Type (0, 0), BuildingBlock: XIVTED_clean_linker_0, # of connection points: 2
#     Edge 92, Type (0, 0), BuildingBlock: XIVTED_clean_linker_0, # of connection points: 2
#     Edge 93, Type (0, 0), BuildingBlock: XIVTED_clean_linker_0, # of connection points: 2
#     Edge 94, Type (0, 0), BuildingBlock: XIVTED_clean_linker_0, # of connection points: 2
#     Edge 95, Type (0, 0), BuildingBlock: XIVTED_clean_linker_0, # of connection points: 2
#     Edge 96, Type (0, 0), BuildingBlock: XIVTED_clean_linker_0, # of connection points: 2
#     Edge 97, Type (0, 0), BuildingBlock: XIVTED_clean_linker_0, # of connection points: 2
#     Edge 98, Type (0, 0), BuildingBlock: XIVTED_clean_linker_0, # of connection points: 2
#     Edge 99, Type (0, 0), BuildingBlock: XIVTED_clean_linker_0, # of connection points: 2
#     Edge 100, Type (0, 0), BuildingBlock: XIVTED_clean_linker_0, # of connection points: 2
#     Edge 101, Type (0, 0), BuildingBlock: XIVTED_clean_linker_0, # of connection points: 2
#     Edge 102, Type (0, 0), BuildingBlock: XIVTED_clean_linker_0, # of connection points: 2
#     Edge 103, Type (0, 0), BuildingBlock: XIVTED_clean_linker_0, # of connection points: 2
#     Edge 104, Type (0, 0), BuildingBlock: XIVTED_clean_linker_0, # of connection points: 2
#     Edge 105, Type (0, 0), BuildingBlock: XIVTED_clean_linker_0, # of connection points: 2
#     Edge 106, Type (0, 0), BuildingBlock: XIVTED_clean_linker_0, # of connection points: 2
#     Edge 107, Type (0, 0), BuildingBlock: XIVTED_clean_linker_0, # of connection points: 2
# Relax obj value: 0.034
# Max RMSD: 0.048
# Mean RMSD: 0.048
data_MOF--net-ato--node1-TATPOV_clean_sbu_0--edge1-XIVTED_clean_linker_0
_symmetry_space_group_name_H-M    P1
_symmetry_Int_Tables_number       1
_symmetry_cell_setting            triclinic
loop_
_symmetry_equiv_pos_as_xyz
'x, y, z'
_cell_length_a     102.96593
_cell_length_b     102.66918
_cell_length_c     25.211308
_cell_angle_alpha  89.93599
_cell_angle_beta   90.029842
_cell_angle_gamma 120.06851
loop_
_atom_site_label
_atom_site_type_symbol
_atom_site_fract_x
_atom_site_fract_y
_atom_site_fract_z
_atom_type_partial_charge
Zn0 Zn 0.23576 0.05786 0.16728 0.0
Zn1 Zn 0.22974 0.03833 0.24431 0.0
O2 O 0.22527 0.05427 0.27759 0.0
O3 O 0.23291 0.07167 0.21535 0.0
O4 O 0.22406 0.02283 0.30364 0.0
O5 O 0.21918 0.04292 0.1216 0.0
O6 O 0.21592 0.02591 0.18144 0.0
C7 C 0.22773 0.06707 0.2613 0.0
C8 C 0.26069 0.05393 0.19041 0.0
O9 O 0.25232 0.04587 0.22849 0.0
O10 O 0.25594 0.05996 0.15784 0.0
C11 C 0.22778 0.02686 0.35162 0.0
O12 O 0.23578 0.04128 0.36257 0.0
C13 C 0.21281 0.02932 0.13625 0.0
Zn14 Zn 0.91211 0.17405 0.16451 0.0
Zn15 Zn 0.93112 0.18744 0.2424 0.0
O16 O 0.91498 0.16691 0.27523 0.0
O17 O 0.89872 0.15653 0.20992 0.0
O18 O 0.94652 0.19709 0.30226 0.0
O19 O 0.92703 0.17315 0.11772 0.0
O20 O 0.94376 0.18636 0.17888 0.0
C21 C 0.90278 0.15611 0.25686 0.0
C22 C 0.91486 0.20241 0.19044 0.0
O23 O 0.92319 0.20229 0.22783 0.0
O24 O 0.90909 0.19172 0.15737 0.0
C25 C 0.94254 0.19637 0.35054 0.0
O26 O 0.92816 0.18963 0.36183 0.0
C27 C 0.94053 0.18022 0.13297 0.0
Zn28 Zn 0.7995 0.73977 0.16505 0.0
Zn29 Zn 0.78428 0.74236 0.24425 0.0
O30 O 0.80511 0.74801 0.27653 0.0
O31 O 0.8171 0.74451 0.21062 0.0
O32 O 0.77486 0.74802 0.30447 0.0
O33 O 0.7995 0.75595 0.12145 0.0
O34 O 0.78332 0.75491 0.18083 0.0
C35 C 0.81668 0.74804 0.25829 0.0
C36 C 0.77153 0.71225 0.18976 0.0
O37 O 0.77078 0.71963 0.22924 0.0
O38 O 0.78228 0.71849 0.15704 0.0
C39 C 0.76681 0.73962 0.34225 0.0
O40 O 0.7633 0.72543 0.34332 0.0
C41 C 0.79015 0.75972 0.13663 0.0
Zn42 Zn 0.04995 0.24004 0.82934 0.0
Zn43 Zn 0.03093 0.2355 0.75168 0.0
O44 O 0.04653 0.23052 0.71808 0.0
O45 O 0.06225 0.23453 0.78379 0.0
O46 O 0.01565 0.23046 0.69186 0.0
O47 O 0.03438 0.22475 0.87626 0.0
O48 O 0.01794 0.22179 0.81474 0.0
C49 C 0.05818 0.23072 0.73635 0.0
C50 C 0.0484 0.26653 0.80466 0.0
O51 O 0.03948 0.25828 0.76806 0.0
O52 O 0.05427 0.26127 0.83587 0.0
C53 C 0.01969 0.23371 0.6436 0.0
O54 O 0.03408 0.24093 0.63231 0.0
C55 C 0.02092 0.21872 0.86081 0.0
Zn56 Zn 0.73124 0.8066 0.83117 0.0
Zn57 Zn 0.73148 0.79089 0.74734 0.0
O58 O 0.73657 0.81184 0.71664 0.0
O59 O 0.73693 0.82477 0.78694 0.0
O60 O 0.7339 0.78008 0.68343 0.0
O61 O 0.74738 0.80502 0.86843 0.0
O62 O 0.74564 0.7897 0.80407 0.0
C63 C 0.73849 0.82399 0.73756 0.0
C64 C 0.70256 0.77956 0.81013 0.0
O65 O 0.70932 0.77826 0.76985 0.0
O66 O 0.70948 0.79043 0.84211 0.0
C67 C 0.74503 0.7874 0.65249 0.0
O68 O 0.75452 0.80162 0.66292 0.0
C69 C 0.75113 0.79611 0.84842 0.0
Zn70 Zn 0.16541 0.92006 0.83304 0.0
Zn71 Zn 0.17959 0.93881 0.75373 0.0
O72 O 0.15895 0.92317 0.72112 0.0
O73 O 0.14736 0.90787 0.78814 0.0
O74 O 0.18974 0.95391 0.69345 0.0
O75 O 0.16619 0.93601 0.87911 0.0
O76 O 0.1791 0.95214 0.81581 0.0
C77 C 0.14746 0.9117 0.74043 0.0
C78 C 0.19305 0.92116 0.80595 0.0
O79 O 0.19362 0.93009 0.76948 0.0
O80 O 0.18216 0.91549 0.83819 0.0
C81 C 0.18874 0.94975 0.6453 0.0
O82 O 0.18138 0.9353 0.63436 0.0
C83 C 0.17334 0.9494 0.8623 0.0
Zn84 Zn 0.72639 0.92134 0.8273 0.0
Zn85 Zn 0.73318 0.94057 0.75056 0.0
O86 O 0.73633 0.92373 0.71761 0.0
O87 O 0.7266 0.90604 0.7788 0.0
O88 O 0.73929 0.9559 0.69051 0.0
O89 O 0.74431 0.93526 0.87035 0.0
O90 O 0.74785 0.95269 0.81197 0.0
C91 C 0.73227 0.91041 0.73327 0.0
C92 C 0.70275 0.92724 0.80769 0.0
O93 O 0.71091 0.9343 0.76775 0.0
O94 O 0.70731 0.92126 0.84114 0.0
C95 C 0.73569 0.95178 0.64253 0.0
O96 O 0.72754 0.93734 0.63196 0.0
C97 C 0.75122 0.9489 0.85594 0.0
Zn98 Zn 0.05014 0.80414 0.83206 0.0
Zn99 Zn 0.03082 0.79043 0.7546 0.0
O100 O 0.04681 0.81076 0.72077 0.0
O101 O 0.06387 0.82086 0.78384 0.0
O102 O 0.01537 0.78048 0.69548 0.0
O103 O 0.03514 0.80575 0.87713 0.0
O104 O 0.01835 0.79196 0.81694 0.0
C105 C 0.05945 0.82126 0.73742 0.0
C106 C 0.04636 0.77518 0.80954 0.0
O107 O 0.03832 0.7754 0.77128 0.0
O108 O 0.05232 0.78604 0.84187 0.0
C109 C 0.01924 0.78096 0.6472 0.0
O110 O 0.03359 0.78772 0.63538 0.0
C111 C 0.02162 0.79851 0.86207 0.0
Zn112 Zn 0.16475 0.23977 0.8244 0.0
Zn113 Zn 0.17994 0.23723 0.74455 0.0
O114 O 0.15912 0.23154 0.71157 0.0
O115 O 0.14751 0.23558 0.77754 0.0
O116 O 0.19058 0.23281 0.68515 0.0
O117 O 0.16449 0.22314 0.86638 0.0
O118 O 0.18056 0.22419 0.80656 0.0
C119 C 0.14775 0.23189 0.72993 0.0
C120 C 0.19274 0.26715 0.80186 0.0
O121 O 0.1933 0.25983 0.76189 0.0
O122 O 0.182 0.26091 0.83464 0.0
C123 C 0.19033 0.23637 0.63693 0.0
O124 O 0.18333 0.24371 0.62463 0.0
C125 C 0.17367 0.21923 0.85055 0.0
Zn126 Zn 0.91261 0.73745 0.16674 0.0
Zn127 Zn 0.9315 0.74171 0.24485 0.0
O128 O 0.91644 0.74726 0.27867 0.0
O129 O 0.9007 0.7433 0.21306 0.0
O130 O 0.94681 0.7465 0.30389 0.0
O131 O 0.9284 0.75263 0.12004 0.0
O132 O 0.94462 0.75534 0.18206 0.0
C133 C 0.90487 0.74721 0.26037 0.0
C134 C 0.91337 0.71063 0.19293 0.0
O135 O 0.92232 0.71882 0.22953 0.0
O136 O 0.9079 0.71609 0.16082 0.0
C137 C 0.94291 0.74326 0.35222 0.0
O138 O 0.92856 0.73614 0.36414 0.0
C139 C 0.9418 0.75854 0.13598 0.0
Zn140 Zn 0.23174 0.17123 0.15997 0.0
Zn141 Zn 0.23031 0.18679 0.24223 0.0
O142 O 0.22424 0.16572 0.27417 0.0
O143 O 0.22546 0.15313 0.20535 0.0
O144 O 0.22668 0.1977 0.30293 0.0
O145 O 0.21608 0.17272 0.11874 0.0
O146 O 0.21711 0.18805 0.18188 0.0
C147 C 0.22281 0.15369 0.25398 0.0
C148 C 0.26012 0.19818 0.18527 0.0
O149 O 0.25286 0.19933 0.22426 0.0
O150 O 0.25358 0.18748 0.15238 0.0
C151 C 0.2291 0.19617 0.35145 0.0
O152 O 0.23481 0.18762 0.3636 0.0
C153 C 0.21217 0.18168 0.13707 0.0
Zn154 Zn 0.79406 0.05552 0.15309 0.0
Zn155 Zn 0.78244 0.037 0.2315 0.0
O156 O 0.80237 0.05438 0.26317 0.0
O157 O 0.80946 0.07143 0.19998 0.0
O158 O 0.7735 0.02194 0.29246 0.0
O159 O 0.79842 0.04172 0.11103 0.0
O160 O 0.78489 0.02462 0.17075 0.0
C161 C 0.81122 0.06763 0.24596 0.0
C162 C 0.76455 0.04936 0.17368 0.0
O163 O 0.76612 0.04282 0.21432 0.0
O164 O 0.7748 0.05508 0.13909 0.0
C165 C 0.774 0.02616 0.34029 0.0
O166 O 0.78025 0.04061 0.35053 0.0
C167 C 0.79187 0.02818 0.12643 0.0
Zn168 Zn 0.90422 0.38949 0.50377 0.0
Zn169 Zn 0.89676 0.37056 0.58071 0.0
O170 O 0.89324 0.3874 0.61168 0.0
O171 O 0.90393 0.40501 0.55065 0.0
O172 O 0.89017 0.35517 0.64087 0.0
O173 O 0.88673 0.37587 0.45876 0.0
O174 O 0.88271 0.35845 0.51779 0.0
C175 C 0.8977 0.40076 0.59544 0.0
C176 C 0.92764 0.38376 0.52696 0.0
O177 O 0.91924 0.37695 0.56671 0.0
O178 O 0.92326 0.38948 0.49184 0.0
C179 C 0.89376 0.35922 0.68891 0.0
O180 O 0.90213 0.37363 0.6996 0.0
C181 C 0.87974 0.36224 0.47304 0.0
Zn182 Zn 0.58105 0.50347 0.48648 0.0
Zn183 Zn 0.59787 0.51897 0.56917 0.0
O184 O 0.58251 0.49803 0.60124 0.0
O185 O 0.56905 0.48541 0.53184 0.0
O186 O 0.61245 0.52989 0.62971 0.0
O187 O 0.59819 0.50492 0.44534 0.0
O188 O 0.6123 0.52011 0.50904 0.0
C189 C 0.57195 0.48601 0.58078 0.0
C190 C 0.57991 0.53067 0.51119 0.0
O191 O 0.58824 0.53177 0.55041 0.0
O192 O 0.57564 0.51988 0.47861 0.0
C193 C 0.60868 0.52893 0.67827 0.0
O194 O 0.59443 0.5208 0.69113 0.0
C195 C 0.61101 0.51388 0.46403 0.0
Zn196 Zn 0.46339 0.07001 0.49296 0.0
Zn197 Zn 0.44968 0.07526 0.57078 0.0
O198 O 0.46992 0.07934 0.6043 0.0
O199 O 0.47988 0.07238 0.54086 0.0
O200 O 0.43974 0.08037 0.63097 0.0
O201 O 0.46535 0.08714 0.44964 0.0
O202 O 0.45133 0.08975 0.50978 0.0
C203 C 0.4803 0.07708 0.58747 0.0
C204 C 0.43441 0.04476 0.51336 0.0
O205 O 0.43463 0.05279 0.55243 0.0
O206 O 0.44529 0.04984 0.48118 0.0
C207 C 0.44018 0.07652 0.6787 0.0
O208 O 0.44684 0.06872 0.6889 0.0
C209 C 0.45809 0.09337 0.46505 0.0
Zn210 Zn 0.71643 0.57468 0.15208 0.0
Zn211 Zn 0.69861 0.57235 0.0737 0.0
O212 O 0.71356 0.56662 0.03954 0.0
O213 O 0.72981 0.57134 0.104 0.0
O214 O 0.68336 0.56799 0.01488 0.0
O215 O 0.70038 0.55751 0.19315 0.0
O216 O 0.68511 0.55909 0.13569 0.0
C217 C 0.7256 0.56743 0.05675 0.0
C218 C 0.7158 0.60208 0.13226 0.0
O219 O 0.70808 0.59499 0.09162 0.0
O220 O 0.72003 0.5956 0.16502 0.0
C221 C 0.68696 0.57065 0.96612 0.0
O222 O 0.70119 0.57713 0.95285 0.0
C223 C 0.68723 0.55374 0.17846 0.0
Zn224 Zn 0.39409 0.13663 0.15948 0.0
Zn225 Zn 0.40005 0.1232 0.08277 0.0
O226 O 0.40447 0.14359 0.04928 0.0
O227 O 0.3964 0.15305 0.11088 0.0
O228 O 0.4055 0.11337 0.02315 0.0
O229 O 0.41108 0.13882 0.20405 0.0
O230 O 0.4142 0.12489 0.14481 0.0
C231 C 0.40172 0.15375 0.06512 0.0
C232 C 0.36922 0.10763 0.13789 0.0
O233 O 0.37749 0.10805 0.09933 0.0
O234 O 0.37406 0.11838 0.17061 0.0
C235 C 0.40167 0.11374 0.97538 0.0
O236 O 0.39369 0.1202 0.96507 0.0
C237 C 0.41751 0.13168 0.18949 0.0
Zn238 Zn 0.82947 0.25343 0.17255 0.0
Zn239 Zn 0.84394 0.2718 0.09275 0.0
O240 O 0.82361 0.2555 0.05962 0.0
O241 O 0.81158 0.24083 0.12752 0.0
O242 O 0.85413 0.2867 0.03187 0.0
O243 O 0.82987 0.26948 0.21699 0.0
O244 O 0.84301 0.28531 0.1533 0.0
C245 C 0.812 0.24418 0.07908 0.0
C246 C 0.85761 0.25497 0.14891 0.0
O247 O 0.8583 0.26372 0.11157 0.0
O248 O 0.84644 0.24918 0.17997 0.0
C249 C 0.8532 0.28248 0.98383 0.0
O250 O 0.84585 0.26801 0.97311 0.0
C251 C 0.83707 0.28278 0.19947 0.0
Zn252 Zn 0.39805 0.25356 0.16425 0.0
Zn253 Zn 0.40167 0.27205 0.08533 0.0
O254 O 0.40717 0.2568 0.05218 0.0
O255 O 0.4049 0.24214 0.11973 0.0
O256 O 0.40619 0.28719 0.02543 0.0
O257 O 0.41255 0.26968 0.21121 0.0
O258 O 0.41515 0.2856 0.14794 0.0
C259 C 0.40809 0.24581 0.07163 0.0
C260 C 0.37073 0.25322 0.13684 0.0
O261 O 0.37884 0.26252 0.10083 0.0
O262 O 0.37637 0.24787 0.16871 0.0
C263 C 0.40349 0.28325 0.97692 0.0
O264 O 0.39711 0.26889 0.96498 0.0
C265 C 0.41829 0.28304 0.19455 0.0
Zn266 Zn 0.7159 0.13271 0.15828 0.0
Zn267 Zn 0.69665 0.12081 0.0811 0.0
O268 O 0.71332 0.14125 0.04973 0.0
O269 O 0.73087 0.14897 0.11115 0.0
O270 O 0.68123 0.11192 0.02129 0.0
O271 O 0.70186 0.13578 0.20392 0.0
O272 O 0.68459 0.12261 0.14429 0.0
C273 C 0.7265 0.15059 0.06605 0.0
C274 C 0.71029 0.10339 0.13405 0.0
O275 O 0.70306 0.10473 0.0952 0.0
O276 O 0.71635 0.11372 0.16829 0.0
C277 C 0.68518 0.11227 0.97319 0.0
O278 O 0.69953 0.11826 0.9622 0.0
C279 C 0.68827 0.12912 0.18945 0.0
Zn280 Zn 0.83044 0.5721 0.15685 0.0
Zn281 Zn 0.84592 0.57122 0.07348 0.0
O282 O 0.82496 0.56587 0.04272 0.0
O283 O 0.8124 0.56652 0.11252 0.0
O284 O 0.85667 0.56852 0.00999 0.0
O285 O 0.83177 0.55587 0.19504 0.0
O286 O 0.84705 0.55724 0.13125 0.0
C287 C 0.81299 0.56439 0.06346 0.0
C288 C 0.85763 0.60051 0.13506 0.0
O289 O 0.85872 0.59352 0.095 0.0
O290 O 0.84679 0.5938 0.16724 0.0
C291 C 0.84939 0.55729 0.97935 0.0
O292 O 0.8352 0.54781 0.98978 0.0
C293 C 0.8406 0.55196 0.17574 0.0
Zn294 Zn 0.5792 0.07043 0.49146 0.0
Zn295 Zn 0.59746 0.07421 0.57121 0.0
O296 O 0.58194 0.07938 0.60376 0.0
O297 O 0.56714 0.07647 0.53611 0.0
O298 O 0.61236 0.07879 0.63178 0.0
O299 O 0.59534 0.0856 0.44601 0.0
O300 O 0.61109 0.08811 0.50961 0.0
C301 C 0.57074 0.07982 0.58415 0.0
C302 C 0.57959 0.04334 0.51758 0.0
O303 O 0.58845 0.05142 0.55459 0.0
O304 O 0.57425 0.04893 0.48549 0.0
C305 C 0.60821 0.07579 0.68001 0.0
O306 O 0.59382 0.06905 0.69109 0.0
C307 C 0.60862 0.09146 0.46319 0.0
Zn308 Zn 0.89732 0.5034 0.48942 0.0
Zn309 Zn 0.89471 0.51833 0.57062 0.0
O310 O 0.88963 0.49744 0.60166 0.0
O311 O 0.89156 0.48516 0.53329 0.0
O312 O 0.88895 0.52736 0.63189 0.0
O313 O 0.88169 0.50422 0.44574 0.0
O314 O 0.882 0.51941 0.50801 0.0
C315 C 0.88876 0.48561 0.58179 0.0
C316 C 0.92492 0.53127 0.51706 0.0
O317 O 0.91731 0.53204 0.55565 0.0
O318 O 0.91887 0.52049 0.48422 0.0
C319 C 0.89733 0.53563 0.6693 0.0
O320 O 0.91161 0.53962 0.66952 0.0
C321 C 0.87752 0.5131 0.46281 0.0
Zn322 Zn 0.46017 0.3917 0.49855 0.0
Zn323 Zn 0.44775 0.37201 0.57473 0.0
O324 O 0.46818 0.38827 0.60714 0.0
O325 O 0.47659 0.4061 0.54635 0.0
O326 O 0.43858 0.35623 0.63355 0.0
O327 O 0.46273 0.37754 0.4516 0.0
O328 O 0.44934 0.36007 0.51052 0.0
C329 C 0.47786 0.40143 0.59136 0.0
C330 C 0.43115 0.38673 0.52341 0.0
O331 O 0.43213 0.37904 0.56151 0.0
O332 O 0.44156 0.39283 0.48954 0.0
C333 C 0.43881 0.35993 0.68191 0.0
O334 O 0.4448 0.37426 0.69389 0.0
C335 C 0.45585 0.36386 0.46535 0.0
Zn336 Zn 0.56478 0.72439 0.83027 0.0
Zn337 Zn 0.56108 0.706 0.90929 0.0
O338 O 0.5557 0.7214 0.94208 0.0
O339 O 0.55802 0.73598 0.87423 0.0
O340 O 0.55628 0.69079 0.96916 0.0
O341 O 0.55042 0.70838 0.78272 0.0
O342 O 0.54785 0.6925 0.84611 0.0
C343 C 0.55485 0.73241 0.9224 0.0
C344 C 0.59202 0.72458 0.85829 0.0
O345 O 0.58392 0.71537 0.89451 0.0
O346 O 0.58641 0.72991 0.82624 0.0
C347 C 0.55944 0.69474 0.01749 0.0
O348 O 0.56647 0.70914 0.02924 0.0
C349 C 0.5448 0.69502 0.79929 0.0
Zn350 Zn 0.24684 0.83799 0.8215 0.0
Zn351 Zn 0.26525 0.85225 0.90142 0.0
O352 O 0.24948 0.83157 0.93402 0.0
O353 O 0.23472 0.81979 0.86611 0.0
O354 O 0.28028 0.86253 0.96166 0.0
O355 O 0.26289 0.83895 0.7758 0.0
O356 O 0.2787 0.85182 0.83978 0.0
C357 C 0.23825 0.81996 0.91421 0.0
C358 C 0.24773 0.86567 0.84833 0.0
O359 O 0.2566 0.86631 0.88498 0.0
O360 O 0.24213 0.85472 0.81625 0.0
C361 C 0.27635 0.86141 0.01012 0.0
O362 O 0.262 0.85371 0.02203 0.0
C363 C 0.27617 0.84614 0.79317 0.0
Zn364 Zn 0.13063 0.40274 0.82143 0.0
Zn365 Zn 0.11652 0.40776 0.89931 0.0
O366 O 0.13681 0.41213 0.93279 0.0
O367 O 0.14845 0.40812 0.86693 0.0
O368 O 0.10744 0.4139 0.95943 0.0
O369 O 0.13059 0.41811 0.77423 0.0
O370 O 0.11758 0.42159 0.83619 0.0
C371 C 0.14821 0.41186 0.91448 0.0
C372 C 0.10226 0.37661 0.84788 0.0
O373 O 0.10179 0.38502 0.88427 0.0
O374 O 0.11331 0.38165 0.81639 0.0
C375 C 0.10173 0.40617 0.00132 0.0
O376 O 0.10075 0.39295 0.00576 0.0
C377 C 0.12354 0.4245 0.78999 0.0
Zn378 Zn 0.38402 0.9115 0.48915 0.0
Zn379 Zn 0.36467 0.90479 0.41226 0.0
O380 O 0.38088 0.90064 0.37971 0.0
O381 O 0.39849 0.90972 0.4411 0.0
O382 O 0.34908 0.89854 0.35319 0.0
O383 O 0.36969 0.89446 0.53479 0.0
O384 O 0.35253 0.89089 0.47543 0.0
C385 C 0.39394 0.904 0.39574 0.0
C386 C 0.37925 0.93584 0.46582 0.0
O387 O 0.37173 0.92742 0.42701 0.0
O388 O 0.38515 0.93125 0.49949 0.0
C389 C 0.35283 0.90194 0.30481 0.0
O390 O 0.36714 0.91003 0.2928 0.0
C391 C 0.3561 0.88782 0.52039 0.0
Zn392 Zn 0.0605 0.46955 0.48835 0.0
Zn393 Zn 0.06563 0.45569 0.41024 0.0
O394 O 0.06921 0.47591 0.37713 0.0
O395 O 0.06276 0.48615 0.44118 0.0
O396 O 0.07005 0.44551 0.34857 0.0
O397 O 0.07769 0.47143 0.53062 0.0
O398 O 0.08046 0.45756 0.47011 0.0
C399 C 0.06714 0.48641 0.3942 0.0
C400 C 0.03544 0.44037 0.46991 0.0
O401 O 0.04343 0.44048 0.43095 0.0
O402 O 0.04042 0.45148 0.50111 0.0
C403 C 0.08005 0.45331 0.31423 0.0
O404 O 0.08779 0.468 0.31982 0.0
C405 C 0.08403 0.4643 0.5149 0.0
Zn406 Zn 0.49789 0.58527 0.49207 0.0
Zn407 Zn 0.51206 0.60456 0.41423 0.0
O408 O 0.4913 0.58936 0.38129 0.0
O409 O 0.48006 0.57308 0.44617 0.0
O410 O 0.5222 0.62014 0.35525 0.0
O411 O 0.49855 0.60083 0.54024 0.0
O412 O 0.51188 0.61739 0.47858 0.0
C413 C 0.48002 0.57746 0.39936 0.0
C414 C 0.52541 0.58647 0.46332 0.0
O415 O 0.52591 0.59545 0.42718 0.0
O416 O 0.51471 0.58089 0.49627 0.0
C417 C 0.52146 0.61629 0.30682 0.0
O418 O 0.5144 0.6019 0.29488 0.0
C419 C 0.50607 0.61435 0.525 0.0
Zn420 Zn 0.0617 0.58564 0.49414 0.0
Zn421 Zn 0.06606 0.60459 0.41601 0.0
O422 O 0.07099 0.58901 0.38221 0.0
O423 O 0.06762 0.57363 0.44863 0.0
O424 O 0.0711 0.61996 0.35652 0.0
O425 O 0.07674 0.60135 0.54112 0.0
O426 O 0.07981 0.6177 0.47882 0.0
C427 C 0.07116 0.57754 0.40089 0.0
C428 C 0.03504 0.58666 0.46793 0.0
O429 O 0.04331 0.59576 0.4317 0.0
O430 O 0.04035 0.58094 0.49958 0.0
C431 C 0.06807 0.61606 0.30809 0.0
O432 O 0.061 0.60167 0.29619 0.0
C433 C 0.08285 0.61481 0.52508 0.0
Zn434 Zn 0.38171 0.47131 0.49567 0.0
Zn435 Zn 0.36235 0.45722 0.41829 0.0
O436 O 0.37842 0.47747 0.38401 0.0
O437 O 0.39489 0.48847 0.44835 0.0
O438 O 0.34706 0.44717 0.35875 0.0
O439 O 0.3665 0.47236 0.54088 0.0
O440 O 0.34975 0.45891 0.4801 0.0
C441 C 0.39065 0.48846 0.40131 0.0
C442 C 0.37829 0.44239 0.47345 0.0
O443 O 0.36982 0.44224 0.43611 0.0
O444 O 0.38455 0.45353 0.50454 0.0
C445 C 0.35112 0.44765 0.31071 0.0
O446 O 0.36551 0.45442 0.29963 0.0
C447 C 0.35301 0.46535 0.52545 0.0
Zn448 Zn 0.49676 0.90516 0.50097 0.0
Zn449 Zn 0.51149 0.90207 0.42032 0.0
O450 O 0.4909 0.89724 0.38781 0.0
O451 O 0.47856 0.8989 0.45649 0.0
O452 O 0.52191 0.89787 0.35909 0.0
O453 O 0.4981 0.89002 0.54545 0.0
O454 O 0.51123 0.88784 0.48073 0.0
C455 C 0.47905 0.89623 0.40784 0.0
C456 C 0.52415 0.93259 0.4759 0.0
O457 O 0.52517 0.92472 0.43866 0.0
O458 O 0.51309 0.92679 0.50743 0.0
C459 C 0.52058 0.90082 0.31095 0.0
O460 O 0.51265 0.9073 0.30021 0.0
C461 C 0.50554 0.88429 0.52727 0.0
Zn462 Zn 0.24509 0.40203 0.82848 0.0
Zn463 Zn 0.26446 0.40789 0.90493 0.0
O464 O 0.24863 0.41228 0.93908 0.0
O465 O 0.2312 0.40451 0.87713 0.0
O466 O 0.27996 0.41346 0.96385 0.0
O467 O 0.25969 0.4189 0.7832 0.0
O468 O 0.27678 0.42192 0.84203 0.0
C469 C 0.2358 0.40967 0.92308 0.0
C470 C 0.24878 0.37693 0.85081 0.0
O471 O 0.25668 0.38519 0.88932 0.0
O472 O 0.24307 0.38188 0.81769 0.0
C473 C 0.27598 0.40977 0.01189 0.0
O474 O 0.2616 0.40185 0.02307 0.0
C475 C 0.27328 0.42525 0.79739 0.0
Zn476 Zn 0.57077 0.8428 0.83569 0.0
Zn477 Zn 0.56379 0.8557 0.90991 0.0
O478 O 0.55984 0.83546 0.94395 0.0
O479 O 0.56952 0.82696 0.88482 0.0
O480 O 0.55744 0.86509 0.96859 0.0
O481 O 0.55353 0.83926 0.78979 0.0
O482 O 0.54997 0.85355 0.846 0.0
C483 C 0.56355 0.82586 0.92958 0.0
C484 C 0.59467 0.87235 0.85597 0.0
O485 O 0.58627 0.87154 0.89464 0.0
O486 O 0.59023 0.86161 0.82337 0.0
C487 C 0.56144 0.86519 0.01649 0.0
O488 O 0.57008 0.85951 0.02738 0.0
C489 C 0.54689 0.84638 0.8021 0.0
Zn490 Zn 0.12883 0.72386 0.82828 0.0
Zn491 Zn 0.11567 0.70437 0.90501 0.0
O492 O 0.13616 0.72034 0.93792 0.0
O493 O 0.14548 0.73787 0.87602 0.0
O494 O 0.10596 0.68876 0.96411 0.0
O495 O 0.13073 0.70919 0.78209 0.0
O496 O 0.11694 0.69204 0.84143 0.0
C497 C 0.1463 0.73324 0.92166 0.0
C498 C 0.10006 0.71986 0.85214 0.0
O499 O 0.10058 0.71195 0.89036 0.0
O500 O 0.11065 0.72577 0.81887 0.0
C501 C 0.10636 0.6926 0.0124 0.0
O502 O 0.11292 0.70698 0.02416 0.0
C503 C 0.12347 0.69555 0.79626 0.0
H504 H 0.18711 0.94455 0.5382 0.0
H505 H 0.23257 0.03193 0.45845 0.0
H506 H 0.205 0.98065 0.6526 0.0
H507 H 0.21145 -0.00404 0.34424 0.0
H508 H 0.22368 0.0133 0.52975 0.0
H509 H 0.19703 0.96313 0.46677 0.0
C510 C 0.19317 0.95638 0.54841 0.0
C511 C 0.19518 0.96101 0.60169 0.0
C512 C 0.221 0.00946 0.48911 0.0
C513 C 0.2066 0.98243 0.51966 0.0
C514 C 0.2261 0.02011 0.44825 0.0
C515 C 0.22275 0.01554 0.39508 0.0
C516 C 0.21248 -0.00594 0.47696 0.0
C517 C 0.2143 3e-05 0.38455 0.0
C518 C 0.19882 0.967 0.50747 0.0
C519 C 0.20314 0.97653 0.61222 0.0
N520 N 0.20946 -0.01012 0.42505 0.0
N521 N 0.20854 0.98666 0.57165 0.0
H522 H 0.02475 0.23775 0.5365 0.0
H523 H 0.93754 0.19531 0.45767 0.0
H524 H -0.01116 0.21869 0.65129 0.0
H525 H 0.97339 0.21138 0.34284 0.0
H526 H 0.95615 0.2048 0.52884 0.0
H527 H 0.00617 0.22922 0.46533 0.0
C528 C 0.01296 0.23181 0.54686 0.0
C529 C 0.0084 0.22893 0.60019 0.0
C530 C 0.95997 0.20628 0.4881 0.0
C531 C -0.01304 0.21908 0.51839 0.0
C532 C 0.94933 0.20088 0.4473 0.0
C533 C 0.95386 0.20251 0.39396 0.0
C534 C 0.97533 0.21344 0.47576 0.0
C535 C 0.96933 0.20983 0.38326 0.0
C536 C 0.00233 0.22692 0.50606 0.0
C537 C -0.00708 0.22116 0.61088 0.0
N538 N 0.97948 0.215 0.42371 0.0
N539 N -0.01722 0.21651 0.57043 0.0
H540 H 0.74819 0.72494 0.42666 0.0
H541 H 0.76511 0.80109 0.572 0.0
H542 H 0.77533 0.7692 0.35906 0.0
H543 H 0.73062 0.75732 0.62552 0.0
H544 H 0.76958 0.78932 0.49566 0.0
H545 H 0.74209 0.73625 0.50123 0.0
C546 C 0.75282 0.73701 0.42731 0.0
C547 C 0.76233 0.74612 0.38645 0.0
C548 C 0.76099 0.78226 0.52392 0.0
C549 C 0.75546 0.75914 0.47198 0.0
C550 C 0.75844 0.78898 0.56773 0.0
C551 C 0.74747 0.78019 0.60543 0.0
C552 C 0.75262 0.76657 0.51767 0.0
C553 C 0.73918 0.76454 0.59747 0.0
C554 C 0.74931 0.74346 0.4699 0.0
C555 C 0.76796 0.76171 0.38952 0.0
N556 N 0.74198 0.75822 0.55463 0.0
N557 N 0.76452 0.7677 0.43158 0.0
H558 H 0.75192 0.98268 0.64923 0.0
H559 H 0.75896 -0.00474 0.33389 0.0
H560 H 0.73167 0.94646 0.5356 0.0
H561 H 0.77515 0.03158 0.44716 0.0
H562 H 0.74935 0.97722 0.40727 0.0
H563 H 0.76096 0.00077 0.5759 0.0
C564 C 0.74934 0.97851 0.60892 0.0
C565 C 0.74101 0.96299 0.59871 0.0
C566 C 0.75498 -0.01086 0.41608 0.0
C567 C 0.7514 0.98368 0.51436 0.0
C568 C 0.76049 -0.00054 0.37414 0.0
C569 C 0.76789 0.015 0.38423 0.0
C570 C 0.75693 -0.00565 0.46867 0.0
C571 C 0.76952 0.01973 0.43734 0.0
C572 C 0.75451 -0.01114 0.56702 0.0
C573 C 0.73803 0.9583 0.54553 0.0
N574 N 0.76412 0.00947 0.47745 0.0
N575 N 0.74325 0.96858 0.50547 0.0
H576 H -0.01152 0.76561 0.65671 0.0
H577 H 0.97366 0.75816 0.34265 0.0
H578 H 0.02383 0.7817 0.53984 0.0
H579 H 0.9383 0.73942 0.45958 0.0
H580 H -0.0078 0.76672 0.41422 0.0
H581 H 0.96994 0.75582 0.58513 0.0
C582 C -0.00764 0.76706 0.61605 0.0
C583 C 0.00777 0.77453 0.60441 0.0
C584 C 0.98038 0.7607 0.42423 0.0
C585 C -0.01345 0.76336 0.52203 0.0
C586 C 0.96977 0.75579 0.38332 0.0
C587 C 0.95436 0.74806 0.39498 0.0
C588 C 0.97558 0.75792 0.47735 0.0
C589 C 0.95004 0.74534 0.44856 0.0
C590 C -0.01825 0.76146 0.57513 0.0
C591 C 0.01209 0.77604 0.55084 0.0
N592 N 0.96057 0.75029 0.48765 0.0
N593 N 0.00156 0.77056 0.51175 0.0
H594 H 0.23163 0.19424 0.45913 0.0
H595 H 0.1911 0.24142 0.5298 0.0
H596 H 0.21635 0.21403 0.34117 0.0
H597 H 0.20509 0.22042 0.64752 0.0
H598 H 0.20141 0.23259 0.46052 0.0
H599 H 0.22316 0.20482 0.52869 0.0
C600 C 0.22656 0.20087 0.44777 0.0
C601 C 0.22467 0.20319 0.39405 0.0
C602 C 0.20228 0.22994 0.50151 0.0
C603 C 0.21487 0.21534 0.47384 0.0
C604 C 0.19639 0.23501 0.54118 0.0
C605 C 0.19717 0.23164 0.59471 0.0
C606 C 0.20901 0.22142 0.51525 0.0
C607 C 0.2042 0.22328 0.60686 0.0
C608 C 0.2217 0.2069 0.48761 0.0
C609 C 0.21802 0.2119 0.38195 0.0
N610 N 0.20979 0.21843 0.5675 0.0
N611 N 0.21333 0.21761 0.42147 0.0
H612 H 0.89816 0.3644 0.79583 0.0
H613 H 0.85172 0.27714 0.87683 0.0
H614 H 0.87694 0.32834 0.68201 0.0
H615 H 0.86959 0.31338 0.99068 0.0
H616 H 0.86188 0.29564 0.80515 0.0
H617 H 0.8888 0.34586 0.86744 0.0
C618 C 0.89156 0.35258 0.78579 0.0
C619 C 0.88833 0.34796 0.73262 0.0
C620 C 0.86361 0.29956 0.84579 0.0
C621 C 0.87755 0.32658 0.81487 0.0
C622 C 0.85782 0.28899 0.88687 0.0
C623 C 0.85976 0.29368 0.94007 0.0
C624 C 0.87147 0.315 0.85774 0.0
C625 C 0.86778 0.30922 0.95037 0.0
C626 C 0.8862 0.34198 0.82683 0.0
C627 C 0.8797 0.33245 0.7223 0.0
N628 N 0.87332 0.31929 0.90966 0.0
N629 N 0.87462 0.32235 0.76298 0.0
H630 H 0.63924 0.54614 0.66616 0.0
H631 H 0.65631 0.55606 0.97863 0.0
H632 H 0.60468 0.52843 0.7861 0.0
H633 H 0.69075 0.57369 0.85824 0.0
H634 H 0.63722 0.54679 0.90887 0.0
H635 H 0.6582 0.55719 0.73595 0.0
C636 C 0.63561 0.54461 0.70714 0.0
C637 C 0.6203 0.53628 0.72015 0.0
C638 C 0.64895 0.55273 0.89771 0.0
C639 C 0.64203 0.54891 0.80055 0.0
C640 C 0.65988 0.55806 0.93757 0.0
C641 C 0.6752 0.56564 0.92441 0.0
C642 C 0.65334 0.55497 0.84413 0.0
C643 C 0.6791 0.56788 0.87041 0.0
C644 C 0.64647 0.55093 0.74705 0.0
C645 C 0.61633 0.53472 0.77408 0.0
N646 N 0.66827 0.56254 0.83237 0.0
N647 N 0.62711 0.54092 0.81221 0.0
H648 H 0.44111 0.07185 0.78536 0.0
H649 H 0.39699 0.11458 0.86873 0.0
H650 H 0.42481 0.092 0.67266 0.0
H651 H 0.41761 0.09883 0.98154 0.0
H652 H 0.40576 0.10505 0.79663 0.0
H653 H 0.43128 0.08029 0.85752 0.0
C654 C 0.43542 0.07801 0.77568 0.0
C655 C 0.43383 0.08123 0.72269 0.0
C656 C 0.40836 0.10365 0.83713 0.0
C657 C 0.42251 0.09096 0.80552 0.0
C658 C 0.40332 0.10907 0.87845 0.0
C659 C 0.40658 0.10755 0.93145 0.0
C660 C 0.41669 0.09657 0.84868 0.0
C661 C 0.41484 0.1003 0.94137 0.0
C662 C 0.42983 0.08285 0.81703 0.0
C663 C 0.42634 0.08927 0.71282 0.0
N664 N 0.41961 0.0951 0.90044 0.0
N665 N 0.42098 0.09385 0.75378 0.0
H666 H 0.42528 0.32915 0.67231 0.0
H667 H 0.41673 0.314 0.9864 0.0
H668 H 0.43882 0.36429 0.7892 0.0
H669 H 0.40074 0.27864 0.86937 0.0
H670 H 0.42481 0.33257 0.91477 0.0
H671 H 0.41617 0.31048 0.74381 0.0
C672 C 0.42631 0.33295 0.71295 0.0
C673 C 0.43286 0.34835 0.72461 0.0
C674 C 0.41949 0.32074 0.90474 0.0
C675 C 0.42246 0.32698 0.80691 0.0
C676 C 0.41487 0.31012 0.94569 0.0
C677 C 0.40805 0.2947 0.93405 0.0
C678 C 0.41734 0.31596 0.85159 0.0
C679 C 0.40595 0.29038 0.8804 0.0
C680 C 0.4211 0.32227 0.75382 0.0
C681 C 0.43387 0.35257 0.77816 0.0
N682 N 0.4106 0.30093 0.84129 0.0
N683 N 0.42878 0.34198 0.8172 0.0
H684 H 0.69016 0.11272 0.86622 0.0
H685 H 0.60305 0.07235 0.78718 0.0
H686 H 0.65441 0.09837 0.98077 0.0
H687 H 0.639 0.08988 0.67247 0.0
H688 H 0.62159 0.08072 0.85846 0.0
H689 H 0.67155 0.10343 0.79505 0.0
C690 C 0.67839 0.10759 0.87652 0.0
C691 C 0.67388 0.10636 0.92976 0.0
C692 C 0.62544 0.08272 0.81772 0.0
C693 C 0.65243 0.09564 0.84802 0.0
C694 C 0.61484 0.07791 0.77687 0.0
C695 C 0.61943 0.08042 0.72355 0.0
C696 C 0.64081 0.09009 0.80541 0.0
C697 C 0.6349 0.08771 0.71289 0.0
C698 C 0.66776 0.10229 0.83573 0.0
C699 C 0.65844 0.09959 0.94041 0.0
N700 N 0.64501 0.09229 0.75338 0.0
N701 N 0.6483 0.0945 0.89998 0.0
H702 H 0.9119 0.5545 0.75329 0.0
H703 H 0.83582 0.53691 0.89954 0.0
H704 H 0.86773 0.52651 0.68713 0.0
H705 H 0.87939 0.5718 0.95224 0.0
H706 H 0.8476 0.53236 0.82347 0.0
H707 H 0.90054 0.56047 0.82797 0.0
C708 C 0.89983 0.54965 0.75429 0.0
C709 C 0.89077 0.53995 0.71377 0.0
C710 C 0.85461 0.54105 0.8515 0.0
C711 C 0.87769 0.54668 0.79943 0.0
C712 C 0.84789 0.54364 0.89516 0.0
C713 C 0.85661 0.55475 0.93254 0.0
C714 C 0.87025 0.54953 0.84507 0.0
C715 C 0.87221 0.56313 0.92443 0.0
C716 C 0.89336 0.55308 0.79695 0.0
C717 C 0.87519 0.53403 0.71731 0.0
N718 N 0.87854 0.5603 0.88174 0.0
N719 N 0.86917 0.53742 0.7594 0.0
H720 H 0.52061 0.61168 0.19949 0.0
H721 H 0.56341 0.69946 0.1248 0.0
H722 H 0.53684 0.64717 0.31605 0.0
H723 H 0.54463 0.66387 0.00847 0.0
H724 H 0.55485 0.68054 0.19514 0.0
H725 H 0.53039 0.63063 0.12924 0.0
C726 C 0.52628 0.62346 0.21043 0.0
C727 C 0.52786 0.6278 0.26396 0.0
C728 C 0.55262 0.67685 0.15425 0.0
C729 C 0.53911 0.64965 0.18326 0.0
C730 C 0.55753 0.68767 0.11394 0.0
C731 C 0.55472 0.68329 0.06044 0.0
C732 C 0.54484 0.66149 0.14122 0.0
C733 C 0.54704 0.66781 0.04905 0.0
C734 C 0.53185 0.63429 0.17016 0.0
C735 C 0.53532 0.64327 0.27544 0.0
N736 N 0.54236 0.65749 0.08902 0.0
N737 N 0.54064 0.65361 0.2355 0.0
H738 H 0.3221 0.88523 0.31456 0.0
H739 H 0.30705 0.87841 0.00053 0.0
H740 H 0.35724 0.90612 0.19744 0.0
H741 H 0.27174 0.85977 0.11767 0.0
H742 H 0.32558 0.88872 0.07206 0.0
H743 H 0.30349 0.87588 0.24314 0.0
C744 C 0.32592 0.88789 0.27388 0.0
C745 C 0.3413 0.89648 0.26213 0.0
C746 C 0.31377 0.88241 0.08214 0.0
C747 C 0.31999 0.88574 0.17992 0.0
C748 C 0.30317 0.87651 0.04125 0.0
C749 C 0.28777 0.86817 0.05295 0.0
C750 C 0.30899 0.87994 0.13531 0.0
C751 C 0.28346 0.86611 0.1066 0.0
C752 C 0.31527 0.88254 0.23306 0.0
C753 C 0.34553 0.89955 0.20854 0.0
N754 N 0.29399 0.8719 0.14567 0.0
N755 N 0.33496 0.89417 0.16955 0.0
H756 H 0.09746 0.4672 0.22743 0.0
H757 H 0.08694 0.39197 0.09297 0.0
H758 H 0.06893 0.42312 0.29436 0.0
H759 H 0.1066 0.43486 0.01278 0.0
H760 H 0.08108 0.40308 0.1687 0.0
H761 H 0.10195 0.45554 0.15074 0.0
C762 C 0.09214 0.45505 0.22611 0.0
C763 C 0.0828 0.44615 0.26762 0.0
C764 C 0.08661 0.41003 0.13441 0.0
C765 C 0.08796 0.43266 0.17942 0.0
C766 C 0.08997 0.4037 0.09111 0.0
C767 C 0.09731 0.41249 0.04631 0.0
C768 C 0.09074 0.42531 0.13327 0.0
C769 C 0.10093 0.42763 0.0463 0.0
C770 C 0.09468 0.44839 0.18208 0.0
C771 C 0.0762 0.43044 0.26335 0.0
N772 N 0.0977 0.43356 0.08914 0.0
N773 N 0.07896 0.4242 0.22018 0.0
H774 H 0.08285 0.64692 0.31739 0.0
H775 H 0.09136 0.66174 0.00314 0.0
H776 H 0.06474 0.61143 0.20063 0.0
H777 H 0.10682 0.69719 0.11969 0.0
H778 H 0.0815 0.64315 0.07484 0.0
H779 H 0.09164 0.66549 0.24562 0.0
C780 C 0.08067 0.64301 0.27672 0.0
C781 C 0.07304 0.62755 0.26518 0.0
C782 C 0.08702 0.655 0.08474 0.0
C783 C 0.08316 0.64881 0.18257 0.0
C784 C 0.09266 0.66563 0.04375 0.0
C785 C 0.09996 0.68109 0.05525 0.0
C786 C 0.08871 0.65981 0.13779 0.0
C787 C 0.10129 0.68542 0.10877 0.0
C788 C 0.0857 0.65364 0.23569 0.0
C789 C 0.07056 0.6232 0.21158 0.0
N790 N 0.09577 0.67486 0.14793 0.0
N791 N 0.07563 0.63375 0.1724 0.0
H792 H 0.32032 0.43208 0.3186 0.0
H793 H 0.30677 0.42565 0.00384 0.0
H794 H 0.35617 0.44869 0.20361 0.0
H795 H 0.271 0.40539 0.11891 0.0
H796 H 0.32504 0.43432 0.07635 0.0
H797 H 0.30209 0.42236 0.24603 0.0
C798 C 0.32438 0.43366 0.27815 0.0
C799 C 0.33984 0.44125 0.26733 0.0
C800 C 0.31319 0.42794 0.08573 0.0
C801 C 0.31897 0.43017 0.18382 0.0
C802 C 0.30274 0.42298 0.04429 0.0
C803 C 0.28729 0.41477 0.05516 0.0
C804 C 0.30819 0.42475 0.13858 0.0
C805 C 0.28278 0.41167 0.10849 0.0
C806 C 0.31395 0.42809 0.23667 0.0
C807 C 0.34439 0.44293 0.21399 0.0
N808 N 0.29315 0.41669 0.14809 0.0
N809 N 0.33403 0.43749 0.17434 0.0
H810 H 0.51837 0.904 0.20384 0.0
H811 H 0.56677 0.86553 0.12311 0.0
H812 H 0.538 0.88749 0.31778 0.0
H813 H 0.54387 0.87837 0.00933 0.0
H814 H 0.55742 0.8747 0.19448 0.0
H815 H 0.52869 0.89593 0.13213 0.0
C816 C 0.52489 0.89872 0.21389 0.0
C817 C 0.52727 0.89641 0.26713 0.0
C818 C 0.55445 0.87554 0.15393 0.0
C819 C 0.53916 0.8871 0.18478 0.0
C820 C 0.55981 0.87032 0.11301 0.0
C821 C 0.5561 0.87114 0.05994 0.0
C822 C 0.54531 0.88171 0.14195 0.0
C823 C 0.54701 0.87747 0.04956 0.0
C824 C 0.53077 0.89409 0.17279 0.0
C825 C 0.53584 0.8895 0.27744 0.0
N826 N 0.54194 0.8825 0.09013 0.0
N827 N 0.54144 0.88509 0.23672 0.0
H828 H 0.18926 0.98008 0.84533 0.0
H829 H 0.19602 -0.00126 0.15215 0.0
H830 H 0.16377 0.94669 0.96466 0.0
H831 H 0.20834 0.03289 0.03165 0.0
H832 H 0.18374 0.97942 0.08389 0.0
H833 H 0.19614 -0.00022 0.91232 0.0
C834 C 0.18495 0.97689 0.88529 0.0
C835 C 0.17607 0.96169 0.89942 0.0
C836 C 0.18896 -0.00885 0.07257 0.0
C837 C 0.18403 0.98409 0.97623 0.0
C838 C 0.19596 0.00218 0.11156 0.0
C839 C 0.20334 0.01746 0.09763 0.0
C840 C 0.18955 -0.00455 0.01922 0.0
C841 C 0.20287 0.02125 0.04429 0.0
C842 C 0.18887 0.98813 0.92351 0.0
C843 C 0.17077 0.95824 0.9519 0.0
N844 N 0.19631 0.01033 0.00694 0.0
N845 N 0.17499 0.96931 0.98847 0.0
H846 H 0.93681 0.17085 0.02999 0.0
H847 H 0.0242 0.21275 0.96392 0.0
H848 H 0.97122 0.19509 0.14729 0.0
H849 H -0.00976 0.20402 0.84639 0.0
H850 H 0.00467 0.20089 0.03098 0.0
H851 H 0.95618 0.17759 0.963 0.0
C852 C 0.94845 0.17743 0.04198 0.0
C853 C 0.95238 0.18256 0.09448 0.0
C854 C 0.00149 0.20145 0.99043 0.0
C855 C 0.97461 0.19026 0.01746 0.0
C856 C 0.01261 0.20816 0.9519 0.0
C857 C 0.00888 0.20956 0.89932 0.0
C858 C -0.01353 0.19592 0.9764 0.0
C859 C -0.00635 0.2033 0.88639 0.0
C860 C 0.95949 0.18131 0.00348 0.0
C861 C 0.96767 0.19098 0.10735 0.0
N862 N -0.01701 0.19681 0.9248 0.0
N863 N 0.97824 0.19464 0.06898 0.0
H864 H 0.7771 0.81417 0.90145 0.0
H865 H 0.76187 0.75424 0.11795 0.0
H866 H 0.74397 0.76767 0.87436 0.0
H867 H 0.80775 0.78196 0.06668 0.0
H868 H 0.75366 0.76334 0.04206 0.0
H869 H 0.78786 0.80628 0.97335 0.0
C870 C 0.77237 0.80229 0.90984 0.0
C871 C 0.75982 0.79149 0.88171 0.0
C872 C 0.76552 0.76753 0.04805 0.0
C873 C 0.77141 0.78261 0.96498 0.0
C874 C 0.77022 0.76255 0.09157 0.0
C875 C 0.78549 0.76745 0.0985 0.0
C876 C 0.77621 0.77774 0.01229 0.0
C877 C 0.79587 0.77799 0.06258 0.0
C878 C 0.77841 0.79785 0.95088 0.0
C879 C 0.75383 0.77627 0.8946 0.0
N880 N 0.79105 0.78289 0.02098 0.0
N881 N 0.75949 0.77228 0.93621 0.0
H882 H 0.75765 0.94454 0.9574 0.0
H883 H 0.80286 0.03213 0.02541 0.0
H884 H 0.76835 0.97955 0.84166 0.0
H885 H 0.77764 -0.0025 0.14133 0.0
H886 H 0.79651 0.01273 0.95849 0.0
H887 H 0.77119 0.96375 0.0245 0.0
C888 C 0.76306 0.95626 0.94573 0.0
C889 C 0.76165 0.96043 0.89382 0.0
C890 C 0.79256 0.00939 -0.00125 0.0
C891 C 0.7772 0.98245 0.97079 0.0
C892 C 0.79621 0.02044 0.03717 0.0
C893 C 0.79056 0.01646 0.08905 0.0
C894 C 0.78331 -0.00578 0.01227 0.0
C895 C 0.78212 0.00111 0.10179 0.0
C896 C 0.77074 0.96721 0.98425 0.0
C897 C 0.769 0.97581 0.88123 0.0
N898 N 0.77861 -0.00947 0.06348 0.0
N899 N 0.77636 0.98628 0.91961 0.0
H900 H -0.00888 0.78425 0.84575 0.0
H901 H 0.97238 0.77351 0.15262 0.0
H902 H 0.02497 0.80707 0.96603 0.0
H903 H 0.93898 0.76476 0.0328 0.0
H904 H -0.00802 0.78615 0.0853 0.0
H905 H 0.97174 0.77723 0.91366 0.0
C906 C -0.00552 0.78797 0.88619 0.0
C907 C 0.0097 0.79613 0.9002 0.0
C908 C 0.98035 0.78162 0.07405 0.0
C909 C -0.01237 0.78795 0.97819 0.0
C910 C 0.96917 0.7744 0.11245 0.0
C911 C 0.954 0.76793 0.09834 0.0
C912 C 0.97629 0.78216 0.02114 0.0
C913 C 0.95051 0.76947 0.04558 0.0
C914 C -0.01658 0.78396 0.92497 0.0
C915 C 0.01339 0.80068 0.95334 0.0
N916 N 0.96154 0.77623 0.00883 0.0
N917 N 0.00245 0.79633 0.9905 0.0
H918 H 0.18706 0.16351 0.07984 0.0
H919 H 0.20176 0.22397 0.86737 0.0
H920 H 0.21891 0.21009 0.1123 0.0
H921 H 0.15595 0.19697 0.92037 0.0
H922 H 0.20989 0.21436 0.94194 0.0
H923 H 0.17635 0.1715 0.00797 0.0
C924 C 0.19155 0.1754 0.07247 0.0
C925 C 0.20371 0.18621 0.10217 0.0
C926 C 0.19805 0.21043 0.93655 0.0
C927 C 0.19217 0.19523 0.01917 0.0
C928 C 0.19339 0.2157 0.89381 0.0
C929 C 0.17817 0.21118 0.88782 0.0
C930 C 0.18736 0.20027 0.97241 0.0
C931 C 0.16778 0.20067 0.92378 0.0
C932 C 0.18552 0.17991 0.03153 0.0
C933 C 0.20937 0.20147 0.09074 0.0
N934 N 0.17256 0.19547 0.96462 0.0
N935 N 0.20375 0.20555 0.04926 0.0
H936 H 0.86146 0.3318 0.48856 0.0
H937 H 0.85404 0.31339 0.18225 0.0
H938 H 0.87543 0.3664 0.36887 0.0
H939 H 0.82671 0.28054 0.30053 0.0
H940 H 0.86158 0.33321 0.24916 0.0
H941 H 0.84813 0.3128 0.42011 0.0
C942 C 0.86154 0.33542 0.44812 0.0
C943 C 0.86969 0.35071 0.43445 0.0
C944 C 0.85375 0.32167 0.26011 0.0
C945 C 0.85471 0.32905 0.35583 0.0
C946 C 0.84944 0.31036 0.22191 0.0
C947 C 0.8399 0.29525 0.23587 0.0
C948 C 0.84863 0.31777 0.31263 0.0
C949 C 0.83425 0.292 0.28797 0.0
C950 C 0.85394 0.32458 0.40903 0.0
C951 C 0.86938 0.35474 0.3813 0.0
N952 N 0.83888 0.30312 0.32457 0.0
N953 N 0.86223 0.34398 0.34382 0.0
H954 H 0.68214 0.52973 0.24004 0.0
H955 H 0.63418 0.54234 0.44973 0.0
H956 H 0.66495 0.55937 0.20419 0.0
H957 H 0.61689 0.49662 0.39706 0.0
H958 H 0.65262 0.55102 0.37724 0.0
H959 H 0.66399 0.51892 0.31356 0.0
C960 C 0.67437 0.53375 0.24716 0.0
C961 C 0.67484 0.54529 0.21586 0.0
C962 C 0.64493 0.53908 0.38242 0.0
C963 C 0.65489 0.53365 0.30061 0.0
C964 C 0.63459 0.53412 0.42395 0.0
C965 C 0.6241 0.51877 0.42921 0.0
C966 C 0.64498 0.52856 0.34715 0.0
C967 C 0.62486 0.50855 0.39413 0.0
C968 C 0.66415 0.52767 0.28902 0.0
C969 C 0.66474 0.55032 0.22696 0.0
N970 N 0.63519 0.51363 0.35445 0.0
N971 N 0.65533 0.54466 0.26919 0.0
H972 H 0.43418 0.1178 0.17412 0.0
H973 H 0.44297 0.10883 0.48099 0.0
H974 H 0.42312 0.14105 0.29258 0.0
H975 H 0.46796 0.10005 0.36272 0.0
H976 H 0.43612 0.12138 0.41303 0.0
H977 H 0.44723 0.1117 0.24237 0.0
C978 C 0.43467 0.12181 0.21421 0.0
C979 C 0.4274 0.12981 0.22765 0.0
C980 C 0.4433 0.1169 0.40224 0.0
C981 C 0.44209 0.12269 0.30602 0.0
C982 C 0.44722 0.10975 0.44104 0.0
C983 C 0.4559 0.10322 0.42751 0.0
C984 C 0.44791 0.11731 0.34946 0.0
C985 C 0.46112 0.10479 0.37501 0.0
C986 C 0.44213 0.11834 0.25317 0.0
C987 C 0.42846 0.13476 0.28033 0.0
N988 N 0.45685 0.11145 0.33778 0.0
N989 N 0.43544 0.13092 0.3177 0.0
H990 H 0.42581 0.2806 0.29632 0.0
H991 H 0.46396 0.36817 0.3608 0.0
H992 H 0.4314 0.31371 0.17897 0.0
H993 H 0.44309 0.33328 0.47939 0.0
H994 H 0.45756 0.3489 0.29317 0.0
H995 H 0.43768 0.30049 0.36205 0.0
C996 C 0.42969 0.29208 0.28405 0.0
C997 C 0.4274 0.29544 0.23197 0.0
C998 C 0.45453 0.34549 0.33407 0.0
C999 C 0.44107 0.31831 0.3076 0.0
C1000 C 0.45823 0.35647 0.37288 0.0
C1001 C 0.45392 0.35233 0.42597 0.0
C1002 C 0.44661 0.33027 0.3484 0.0
C1003 C 0.44654 0.33699 0.439 0.0
C1004 C 0.43643 0.30342 0.32183 0.0
C1005 C 0.43282 0.31058 0.21864 0.0
N1006 N 0.44305 0.3265 0.4004 0.0
N1007 N 0.43933 0.32147 0.25638 0.0
H1008 H 0.65792 0.11682 0.17373 0.0
H1009 H 0.63914 0.10498 0.48036 0.0
H1010 H 0.69222 0.13704 0.29416 0.0
H1011 H 0.60645 0.0992 0.36145 0.0
H1012 H 0.65896 0.11728 0.41352 0.0
H1013 H 0.63884 0.11066 0.24211 0.0
C1014 C 0.66146 0.12015 0.21434 0.0
C1015 C 0.67669 0.12733 0.2282 0.0
C1016 C 0.64745 0.11349 0.4024 0.0
C1017 C 0.65493 0.12011 0.30676 0.0
C1018 C 0.63614 0.10647 0.44054 0.0
C1019 C 0.62108 0.10087 0.42644 0.0
C1020 C 0.64361 0.1147 0.34979 0.0
C1021 C 0.61787 0.10317 0.37416 0.0
C1022 C 0.65057 0.11664 0.25339 0.0
C1023 C 0.68061 0.13142 0.28157 0.0
N1024 N 0.629 0.1097 0.33764 0.0
N1025 N 0.6698 0.12754 0.31899 0.0
H1026 H 0.88278 0.54145 0.44547 0.0
H1027 H 0.82249 0.52634 0.23096 0.0
H1028 H 0.85496 0.49548 0.39443 0.0
H1029 H 0.86892 0.55896 0.20145 0.0
H1030 H 0.83035 0.5157 0.30347 0.0
H1031 H 0.87339 0.54972 0.37055 0.0
C1032 C 0.87437 0.5331 0.41941 0.0
C1033 C 0.86954 0.51778 0.42601 0.0
C1034 C 0.83877 0.52502 0.28039 0.0
C1035 C 0.85891 0.52711 0.341 0.0
C1036 C 0.83434 0.53099 0.23901 0.0
C1037 C 0.84514 0.54335 0.20995 0.0
C1038 C 0.85399 0.53192 0.29387 0.0
C1039 C 0.86032 0.54925 0.22241 0.0
C1040 C 0.86922 0.53782 0.37646 0.0
C1041 C 0.85888 0.50739 0.39055 0.0
N1042 N 0.86432 0.54367 0.26431 0.0
N1043 N 0.85381 0.51223 0.34949 0.0
H1044 H 0.52072 0.64502 0.50873 0.0
H1045 H 0.53093 0.66438 0.81637 0.0
H1046 H 0.49877 0.61118 0.63012 0.0
H1047 H 0.53897 0.6974 0.6953 0.0
H1048 H 0.51933 0.64457 0.74903 0.0
H1049 H 0.52795 0.66452 0.57663 0.0
C1050 C 0.51729 0.64169 0.54943 0.0
C1051 C 0.5092 0.62644 0.56367 0.0
C1052 C 0.5235 0.65616 0.73749 0.0
C1053 C 0.5176 0.64864 0.64157 0.0
C1054 C 0.53011 0.66746 0.77592 0.0
C1055 C 0.53605 0.68259 0.76153 0.0
C1056 C 0.52304 0.66007 0.6843 0.0
C1057 C 0.53465 0.68591 0.70836 0.0
C1058 C 0.5214 0.65281 0.58818 0.0
C1059 C 0.50505 0.62278 0.61717 0.0
N1060 N 0.52847 0.67478 0.67165 0.0
N1061 N 0.50944 0.63378 0.6542 0.0
H1062 H 0.3067 0.86274 0.81077 0.0
H1063 H 0.32572 0.87012 0.50432 0.0
H1064 H 0.2739 0.83641 0.69119 0.0
H1065 H 0.35983 0.88358 0.62508 0.0
H1066 H 0.30651 0.85723 0.57242 0.0
H1067 H 0.32653 0.87016 0.74415 0.0
C1068 C 0.30368 0.85835 0.77085 0.0
C1069 C 0.28859 0.84909 0.7565 0.0
C1070 C 0.31822 0.86283 0.58384 0.0
C1071 C 0.31114 0.85767 0.6801 0.0
C1072 C 0.32918 0.87019 0.54494 0.0
C1073 C 0.3444 0.87805 0.55899 0.0
C1074 C 0.32251 0.86356 0.63722 0.0
C1075 C 0.34823 0.87772 0.61236 0.0
C1076 C 0.31499 0.86258 0.73283 0.0
C1077 C 0.28535 0.84371 0.70409 0.0
N1078 N 0.33736 0.87081 0.64963 0.0
N1079 N 0.29649 0.84824 0.66771 0.0
H1080 H 0.10872 0.44032 0.8058 0.0
H1081 H 0.0997 0.4494 0.49883 0.0
H1082 H 0.13252 0.43021 0.68668 0.0
H1083 H 0.0905 0.47406 0.61738 0.0
H1084 H 0.1122 0.44254 0.56684 0.0
H1085 H 0.10211 0.45307 0.73772 0.0
C1086 C 0.11272 0.44094 0.76563 0.0
C1087 C 0.12105 0.43404 0.75194 0.0
C1088 C 0.10763 0.44965 0.57769 0.0
C1089 C 0.11338 0.44839 0.67387 0.0
C1090 C 0.10051 0.45357 0.53884 0.0
C1091 C 0.09389 0.46217 0.55242 0.0
C1092 C 0.10791 0.45416 0.63054 0.0
C1093 C 0.09533 0.46729 0.60503 0.0
C1094 C 0.10896 0.44823 0.72678 0.0
C1095 C 0.12596 0.43525 0.69914 0.0
N1096 N 0.10195 0.46301 0.6423 0.0
N1097 N 0.12188 0.44207 0.66197 0.0
H1098 H 0.13202 0.69947 0.69216 0.0
H1099 H 0.08963 0.61171 0.62723 0.0
H1100 H 0.10923 0.66485 0.81046 0.0
H1101 H 0.09742 0.64558 0.50992 0.0
H1102 H 0.10221 0.6314 0.69328 0.0
H1103 H 0.12478 0.68004 0.62464 0.0
C1104 C 0.12569 0.68778 0.70422 0.0
C1105 C 0.12109 0.68379 0.75718 0.0
C1106 C 0.10128 0.63453 0.65299 0.0
C1107 C 0.11281 0.66153 0.6797 0.0
C1108 C 0.09414 0.62331 0.61504 0.0
C1109 C 0.09228 0.62697 0.56286 0.0
C1110 C 0.10676 0.64958 0.63883 0.0
C1111 C 0.09849 0.64222 0.54966 0.0
C1112 C 0.12151 0.67671 0.66546 0.0
C1113 C 0.11294 0.66845 0.77018 0.0
N1114 N 0.10539 0.65299 0.58756 0.0
N1115 N 0.10899 0.65787 0.73161 0.0
H1116 H 0.26929 0.43106 0.69474 0.0
H1117 H 0.35666 0.47566 0.62723 0.0
H1118 H 0.30392 0.44147 0.81124 0.0
H1119 H 0.32235 0.45017 0.51095 0.0
H1120 H 0.33724 0.46893 0.69407 0.0
H1121 H 0.28858 0.4438 0.62729 0.0
C1122 C 0.28096 0.43623 0.70646 0.0
C1123 C 0.28498 0.43502 0.7588 0.0
C1124 C 0.33397 0.46496 0.6538 0.0
C1125 C 0.30709 0.44965 0.68141 0.0
C1126 C 0.34503 0.46883 0.61541 0.0
C1127 C 0.34115 0.46329 0.56336 0.0
C1128 C 0.31888 0.4556 0.64011 0.0
C1129 C 0.32587 0.45458 0.55059 0.0
C1130 C 0.29194 0.44344 0.66774 0.0
C1131 C 0.3003 0.44201 0.7714 0.0
N1132 N 0.31527 0.4509 0.58888 0.0
N1133 N 0.31081 0.44895 0.73285 0.0
H1134 H 0.54003 0.83418 0.70254 0.0
H1135 H 0.52275 0.87113 0.50791 0.0
H1136 H 0.53191 0.86221 0.80933 0.0
H1137 H 0.49587 0.87608 0.62899 0.0
H1138 H 0.53055 0.8587 0.57297 0.0
H1139 H 0.5277 0.8401 0.63172 0.0
C1140 C 0.53554 0.84149 0.71132 0.0
C1141 C 0.53725 0.84792 0.76192 0.0
C1142 C 0.52263 0.86215 0.58491 0.0
C1143 C 0.5234 0.85499 0.68036 0.0
C1144 C 0.51825 0.86933 0.54776 0.0
C1145 C 0.50872 0.87476 0.56296 0.0
C1146 C 0.51751 0.86047 0.6376 0.0
C1147 C 0.50331 0.87219 0.61539 0.0
C1148 C 0.52865 0.84499 0.67054 0.0
C1149 C 0.53101 0.85713 0.7709 0.0
N1150 N 0.50796 0.86546 0.65093 0.0
N1151 N 0.52443 0.86046 0.73038 0.0
H1152 H 0.34928 0.08938 0.06159 0.0
H1153 H 0.28044 0.05506 0.26644 0.0
H1154 H 0.3539 0.09742 0.2303 0.0
H1155 H 0.27609 0.05944 0.0981 0.0
H1156 H 0.3073 0.06407 0.2534 0.0
H1157 H 0.32233 0.07182 0.07453 0.0
C1158 C 0.34469 0.0872 0.10137 0.0
C1159 C 0.35373 0.09503 0.14481 0.0
C1160 C 0.30037 0.0628 0.21928 0.0
C1161 C 0.32311 0.07506 0.15993 0.0
C1162 C 0.28507 0.05762 0.22672 0.0
C1163 C 0.27615 0.05679 0.18344 0.0
C1164 C 0.30665 0.06697 0.16818 0.0
C1165 C 0.28267 0.06021 0.1327 0.0
C1166 C 0.32933 0.07725 0.10875 0.0
C1167 C 0.34724 0.0918 0.1956 0.0
N1168 N 0.29753 0.06527 0.12652 0.0
N1169 N 0.33231 0.08218 0.20172 0.0
H1170 H 0.86496 0.24632 0.24075 0.0
H1171 H 0.9104 0.21363 0.0993 0.0
H1172 H 0.87752 0.25506 0.07577 0.0
H1173 H 0.91058 0.2184 0.26924 0.0
H1174 H 0.89985 0.23014 0.08993 0.0
H1175 H 0.88268 0.23736 0.25269 0.0
C1176 C 0.87156 0.24646 0.20705 0.0
C1177 C 0.86961 0.25124 0.15695 0.0
C1178 C 0.90243 0.22783 0.12926 0.0
C1179 C 0.88988 0.24086 0.17037 0.0
C1180 C 0.90842 0.21838 0.13467 0.0
C1181 C 0.91121 0.21454 0.18519 0.0
C1182 C 0.89884 0.23322 0.17476 0.0
C1183 C 0.90857 0.22107 0.22962 0.0
C1184 C 0.88175 0.24143 0.21403 0.0
C1185 C 0.87861 0.2514 0.11496 0.0
N1186 N 0.90224 0.22988 0.22343 0.0
N1187 N 0.88818 0.24601 0.12239 0.0
H1188 H 0.72286 0.61687 0.22664 0.0
H1189 H 0.76351 0.69732 0.09589 0.0
H1190 H 0.71929 0.62358 0.05948 0.0
H1191 H 0.7536 0.69093 0.26331 0.0
H1192 H 0.74679 0.67045 0.08166 0.0
H1193 H 0.73339 0.64379 0.24133 0.0
C1194 C 0.72417 0.62401 0.19303 0.0
C1195 C 0.72037 0.61802 0.14161 0.0
C1196 C 0.74809 0.67492 0.12143 0.0
C1197 C 0.73258 0.6489 0.15818 0.0
C1198 C 0.7577 0.69025 0.12968 0.0
C1199 C 0.76008 0.69631 0.18101 0.0
C1200 C 0.74101 0.66548 0.16495 0.0
C1201 C 0.75212 0.68668 0.22316 0.0
C1202 C 0.73012 0.63938 0.20154 0.0
C1203 C 0.72213 0.62776 0.0997 0.0
N1204 N 0.74311 0.67166 0.21433 0.0
N1205 N 0.72836 0.64278 0.10877 0.0
H1206 H 0.05594 0.28232 0.8967 0.0
H1207 H 0.09258 0.36101 0.75592 0.0
H1208 H 0.04961 0.28671 0.72987 0.0
H1209 H 0.08484 0.35624 0.92472 0.0
H1210 H 0.07575 0.334 0.74529 0.0
H1211 H 0.06534 0.30916 0.90823 0.0
C1212 C 0.0564 0.28894 0.8625 0.0
C1213 C 0.05219 0.28233 0.81205 0.0
C1214 C 0.0775 0.33885 0.78458 0.0
C1215 C 0.06311 0.31315 0.82498 0.0
C1216 C 0.08715 0.35426 0.79074 0.0
C1217 C 0.09022 0.36081 0.84139 0.0
C1218 C 0.07112 0.32981 0.82954 0.0
C1219 C 0.08278 0.3516 0.88503 0.0
C1220 C 0.06169 0.30425 0.86922 0.0
C1221 C 0.05281 0.29138 0.76935 0.0
N1222 N 0.07378 0.33649 0.87824 0.0
N1223 N 0.05846 0.30642 0.77659 0.0
H1224 H 0.68699 0.7742 0.90292 0.0
H1225 H 0.6077 0.73098 0.76653 0.0
H1226 H 0.68149 0.76023 0.73913 0.0
H1227 H 0.61273 0.729 0.93568 0.0
H1228 H 0.6347 0.74169 0.75581 0.0
H1229 H 0.66002 0.7579 0.9165 0.0
C1230 C 0.68012 0.76762 0.86986 0.0
C1231 C 0.68648 0.7687 0.8196 0.0
C1232 C 0.62992 0.73874 0.79524 0.0
C1233 C 0.65558 0.75012 0.83493 0.0
C1234 C 0.61451 0.73268 0.80143 0.0
C1235 C 0.60802 0.72923 0.85213 0.0
C1236 C 0.639 0.74173 0.84019 0.0
C1237 C 0.61733 0.73153 0.89594 0.0
C1238 C 0.66474 0.75826 0.87779 0.0
C1239 C 0.67705 0.75979 0.77843 0.0
N1240 N 0.63243 0.7379 0.88907 0.0
N1241 N 0.66204 0.75104 0.78681 0.0
H1242 H 0.21082 0.91928 0.72832 0.0
H1243 H 0.24642 0.88402 0.9251 0.0
H1244 H 0.20187 0.91343 0.8964 0.0
H1245 H 0.23948 0.87401 0.75786 0.0
H1246 H 0.23626 0.90104 0.91454 0.0
H1247 H 0.2276 0.90885 0.73849 0.0
C1248 C 0.2126 0.91606 0.76739 0.0
C1249 C 0.2048 0.91699 0.81143 0.0
C1250 C 0.23717 0.89524 0.88012 0.0
C1251 C 0.22396 0.90525 0.82343 0.0
C1252 C 0.243 0.88559 0.88611 0.0
C1253 C 0.24356 0.87744 0.84247 0.0
C1254 C 0.23213 0.89689 0.83002 0.0
C1255 C 0.239 0.8799 0.79273 0.0
C1256 C 0.2221 0.91006 0.77317 0.0
C1257 C 0.20749 0.91267 0.86126 0.0
N1258 N 0.23341 0.88935 0.7879 0.0
N1259 N 0.21678 0.90692 0.86588 0.0
H1260 H 0.68827 0.92418 0.90072 0.0
H1261 H 0.60923 0.88343 0.76288 0.0
H1262 H 0.68254 0.92485 0.73149 0.0
H1263 H 0.61476 0.89073 0.93178 0.0
H1264 H 0.63575 0.90164 0.75032 0.0
H1265 H 0.66165 0.91534 0.91304 0.0
C1266 C 0.68142 0.9227 0.86613 0.0
C1267 C 0.68754 0.92501 0.81491 0.0
C1268 C 0.63117 0.89951 0.79011 0.0
C1269 C 0.65695 0.91462 0.82872 0.0
C1270 C 0.61603 0.88907 0.79734 0.0
C1271 C 0.60988 0.88541 0.84856 0.0
C1272 C 0.64036 0.90613 0.8345 0.0
C1273 C 0.6191 0.89318 0.89168 0.0
C1274 C 0.66621 0.91768 0.87323 0.0
C1275 C 0.67823 0.92312 0.7716 0.0
N1276 N 0.63399 0.90297 0.88378 0.0
N1277 N 0.6633 0.91772 0.77942 0.0
H1278 H 0.052 0.76545 0.90211 0.0
H1279 H 0.08906 0.72416 0.76025 0.0
H1280 H 0.0476 0.7565 0.734 0.0
H1281 H 0.08277 0.72257 0.92972 0.0
H1282 H 0.07165 0.73353 0.74981 0.0
H1283 H 0.06086 0.74763 0.91362 0.0
C1284 C 0.05273 0.75956 0.86763 0.0
C1285 C 0.0493 0.76262 0.81685 0.0
C1286 C 0.07383 0.7309 0.78925 0.0
C1287 C 0.05963 0.7423 0.82973 0.0
C1288 C 0.08381 0.72558 0.79529 0.0
C1289 C 0.08751 0.72281 0.84603 0.0
C1290 C 0.06772 0.73378 0.83439 0.0
C1291 C 0.08026 0.72465 0.88996 0.0
C1292 C 0.05773 0.74933 0.8743 0.0
C1293 C 0.05022 0.75452 0.77375 0.0
N1294 N 0.07092 0.73033 0.88321 0.0
N1295 N 0.05559 0.74493 0.78101 0.0
H1296 H 0.19971 0.28262 0.89496 0.0
H1297 H 0.24518 0.36193 0.75873 0.0
H1298 H 0.21237 0.28777 0.72981 0.0
H1299 H 0.2443 0.35627 0.92843 0.0
H1300 H 0.23487 0.33492 0.74755 0.0
H1301 H 0.2172 0.30934 0.90876 0.0
C1302 C 0.20626 0.28937 0.86159 0.0
C1303 C 0.20441 0.28301 0.8109 0.0
C1304 C 0.23717 0.33957 0.78725 0.0
C1305 C 0.22444 0.31369 0.82652 0.0
C1306 C 0.24304 0.35499 0.79367 0.0
C1307 C 0.24543 0.36127 0.84462 0.0
C1308 C 0.23332 0.33029 0.83215 0.0
C1309 C 0.24259 0.35183 0.8885 0.0
C1310 C 0.21632 0.30462 0.86964 0.0
C1311 C 0.21336 0.29224 0.76941 0.0
N1312 N 0.23638 0.33673 0.8813 0.0
N1313 N 0.22282 0.30719 0.77795 0.0
H1314 H 0.90903 0.68991 0.27036 0.0
H1315 H 0.87744 0.6213 0.06416 0.0
H1316 H 0.90756 0.69507 0.10103 0.0
H1317 H 0.86333 0.61616 0.22774 0.0
H1318 H 0.89425 0.64827 0.0799 0.0
H1319 H 0.898 0.66259 0.25764 0.0
C1320 C 0.90667 0.68533 0.23056 0.0
C1321 C 0.90901 0.69466 0.18673 0.0
C1322 C 0.88756 0.64117 0.11239 0.0
C1323 C 0.89658 0.6637 0.1719 0.0
C1324 C 0.878 0.6258 0.10346 0.0
C1325 C 0.86881 0.61653 0.14446 0.0
C1326 C 0.88807 0.64724 0.16284 0.0
C1327 C 0.87004 0.62296 0.19475 0.0
C1328 C 0.90031 0.66979 0.22333 0.0
C1329 C 0.90572 0.6882 0.13594 0.0
N1330 N 0.87944 0.63792 0.20248 0.0
N1331 N 0.89963 0.67313 0.12992 0.0
H1332 H 0.35054 0.25022 0.05944 0.0
H1333 H 0.28063 0.21653 0.25969 0.0
H1334 H 0.35439 0.2451 0.2276 0.0
H1335 H 0.2764 0.20463 0.09391 0.0
H1336 H 0.3078 0.23275 0.24711 0.0
H1337 H 0.32324 0.23913 0.07052 0.0
C1338 C 0.34567 0.247 0.09869 0.0
C1339 C 0.35466 0.24839 0.14256 0.0
C1340 C 0.30086 0.22667 0.21346 0.0
C1341 C 0.32369 0.23594 0.15556 0.0
C1342 C 0.28538 0.21747 0.22058 0.0
C1343 C 0.27629 0.20907 0.17796 0.0
C1344 C 0.30721 0.22766 0.16322 0.0
C1345 C 0.28303 0.21073 0.12805 0.0
C1346 C 0.33014 0.24062 0.10496 0.0
C1347 C 0.34781 0.24402 0.19262 0.0
N1348 N 0.29809 0.21981 0.12206 0.0
N1349 N 0.33276 0.23797 0.19775 0.0
H1350 H 0.71311 0.09114 0.22549 0.0
H1351 H 0.75287 0.05263 0.08137 0.0
H1352 H 0.71269 0.08609 0.05562 0.0
H1353 H 0.74663 0.05113 0.25088 0.0
H1354 H 0.73477 0.06114 0.0707 0.0
H1355 H 0.72167 0.07304 0.23544 0.0
C1356 C 0.7146 0.086 0.19023 0.0
C1357 C 0.71244 0.09028 0.13957 0.0
C1358 C 0.73711 0.0587 0.11021 0.0
C1359 C 0.72251 0.06971 0.15066 0.0
C1360 C 0.74748 0.05386 0.11637 0.0
C1361 C 0.75144 0.05144 0.16721 0.0
C1362 C 0.73084 0.06141 0.15528 0.0
C1363 C 0.74396 0.05298 0.21104 0.0
C1364 C 0.71947 0.07564 0.19597 0.0
C1365 C 0.71432 0.08315 0.09534 0.0
N1366 N 0.73423 0.05818 0.20414 0.0
N1367 N 0.71956 0.07342 0.10185 0.0
H1368 H 0.01582 0.41943 0.39858 0.0
H1369 H 0.94781 0.38805 0.60597 0.0
H1370 H 0.02035 0.43223 0.56347 0.0
H1371 H 0.94236 0.38535 0.436 0.0
H1372 H 0.97483 0.39786 0.59378 0.0
H1373 H -0.01067 0.40078 0.41483 0.0
C1374 C 0.01132 0.41813 0.43829 0.0
C1375 C 0.02017 0.42757 0.47946 0.0
C1376 C 0.96764 0.39482 0.55922 0.0
C1377 C -0.00993 0.40633 0.49841 0.0
C1378 C 0.95223 0.38912 0.56623 0.0
C1379 C 0.94296 0.38615 0.52191 0.0
C1380 C 0.97366 0.39739 0.50761 0.0
C1381 C 0.94923 0.38777 0.4712 0.0
C1382 C -0.00378 0.40754 0.44756 0.0
C1383 C 0.01381 0.42538 0.5303 0.0
N1384 N 0.96421 0.39345 0.46539 0.0
N1385 N -0.00087 0.4151 0.53823 0.0
H1386 H 0.5793 0.5503 0.5837 0.0
H1387 H 0.5412 0.5822 0.38377 0.0
H1388 H 0.56933 0.53643 0.42011 0.0
H1389 H 0.5358 0.58067 0.5537 0.0
H1390 H 0.55743 0.57109 0.39395 0.0
H1391 H 0.56907 0.5671 0.57031 0.0
C1392 C 0.57511 0.55091 0.54488 0.0
C1393 C 0.57496 0.5418 0.50319 0.0
C1394 C 0.55284 0.57341 0.42894 0.0
C1395 C 0.56344 0.56107 0.48749 0.0
C1396 C 0.54368 0.57982 0.42315 0.0
C1397 C 0.53705 0.58216 0.46792 0.0
C1398 C 0.55551 0.56963 0.47986 0.0
C1399 C 0.54055 0.57883 0.51812 0.0
C1400 C 0.56927 0.56047 0.53729 0.0
C1401 C 0.56945 0.54309 0.4536 0.0
N1402 N 0.54948 0.57268 0.52274 0.0
N1403 N 0.56386 0.55249 0.44716 0.0
H1404 H 0.4251 0.02981 0.41985 0.0
H1405 H 0.38216 0.95063 0.5579 0.0
H1406 H 0.41524 0.0245 0.58735 0.0
H1407 H 0.38269 0.95619 0.38823 0.0
H1408 H 0.39146 0.97745 0.56916 0.0
H1409 H 0.40719 0.00319 0.40666 0.0
C1410 C 0.419 0.02304 0.45385 0.0
C1411 C 0.42183 0.0293 0.50496 0.0
C1412 C 0.38929 0.97282 0.52945 0.0
C1413 C 0.40139 -0.0013 0.49015 0.0
C1414 C 0.38401 0.9575 0.52297 0.0
C1415 C 0.38187 0.95126 0.47199 0.0
C1416 C 0.39279 0.98207 0.48459 0.0
C1417 C 0.38426 0.9606 0.42817 0.0
C1418 C 0.40872 0.00784 0.44621 0.0
C1419 C 0.41346 0.02008 0.54738 0.0
N1420 N 0.3899 0.97563 0.43543 0.0
N1421 N 0.40381 0.00515 0.53917 0.0
H1422 H 0.57226 0.02736 0.42595 0.0
H1423 H 0.53165 0.94862 0.56763 0.0
H1424 H 0.57666 0.0229 0.59418 0.0
H1425 H 0.54262 0.95303 0.40103 0.0
H1426 H 0.54836 0.97566 0.57859 0.0
H1427 H 0.56185 0.00029 0.41571 0.0
C1428 C 0.57116 0.02067 0.46073 0.0
C1429 C 0.57517 0.02734 0.51112 0.0
C1430 C 0.5473 0.97071 0.53977 0.0
C1431 C 0.56306 -0.00372 0.49969 0.0
C1432 C 0.53769 0.95529 0.53337 0.0
C1433 C 0.53562 0.94861 0.48316 0.0
C1434 C 0.55466 0.97963 0.49544 0.0
C1435 C 0.54386 0.95774 0.44035 0.0
C1436 C 0.56528 0.00523 0.45477 0.0
C1437 C 0.57367 0.01819 0.55468 0.0
N1438 N 0.55284 0.97286 0.44728 0.0
N1439 N 0.56746 0.00305 0.54812 0.0
H1440 H 0.94515 0.54989 0.5919 0.0
H1441 H 0.01494 0.58406 0.3908 0.0
H1442 H 0.94112 0.53865 0.42554 0.0
H1443 H 0.01894 0.57936 0.55914 0.0
H1444 H -0.01228 0.57337 0.40229 0.0
H1445 H 0.97225 0.5667 0.5793 0.0
C1446 C 0.94992 0.55111 0.55268 0.0
C1447 C 0.94093 0.54269 0.5099 0.0
C1448 C -0.00536 0.57489 0.43671 0.0
C1449 C 0.97175 0.56195 0.49513 0.0
C1450 C 0.01013 0.58104 0.43019 0.0
C1451 C 0.01912 0.58238 0.47397 0.0
C1452 C -0.01177 0.57034 0.48744 0.0
C1453 C 0.01235 0.57829 0.52422 0.0
C1454 C 0.96535 0.56066 0.54553 0.0
C1455 C 0.94769 0.54474 0.45981 0.0
N1456 N -0.00268 0.5724 0.52957 0.0
N1457 N 0.96268 0.55411 0.45384 0.0
H1458 H 0.3776 0.42224 0.39988 0.0
H1459 H 0.41446 0.38974 0.60253 0.0
H1460 H 0.38563 0.43399 0.56566 0.0
H1461 H 0.41909 0.39005 0.43246 0.0
H1462 H 0.39706 0.3994 0.59151 0.0
H1463 H 0.38616 0.40402 0.41364 0.0
C1464 C 0.3809 0.42079 0.43925 0.0
C1465 C 0.3812 0.42982 0.48144 0.0
C1466 C 0.40169 0.39706 0.55663 0.0
C1467 C 0.39085 0.40905 0.49756 0.0
C1468 C 0.41152 0.39148 0.56294 0.0
C1469 C 0.41838 0.38937 0.51839 0.0
C1470 C 0.39864 0.40036 0.50544 0.0
C1471 C 0.41422 0.3918 0.46788 0.0
C1472 C 0.38581 0.41045 0.44709 0.0
C1473 C 0.38553 0.42746 0.53178 0.0
N1474 N 0.40475 0.39731 0.46278 0.0
N1475 N 0.39029 0.41741 0.53835 0.0
H1476 H 0.20024 0.06376 0.27857 0.0
H1477 H 0.23914 0.15153 0.33493 0.0
H1478 H 0.24718 0.09269 0.31266 0.0
H1479 H 0.19893 0.12566 0.24307 0.0
H1480 H 0.2377 0.128 0.36425 0.0
H1481 H 0.19561 0.08418 0.30362 0.0
C1482 C 0.20943 0.07419 0.29373 0.0
C1483 C 0.22408 0.07664 0.29379 0.0
C1484 C 0.22888 0.12747 0.3393 0.0
C1485 C 0.219 0.10003 0.32111 0.0
C1486 C 0.22963 0.14086 0.32302 0.0
C1487 C 0.21915 0.14042 0.28653 0.0
C1488 C 0.21755 0.11367 0.31893 0.0
C1489 C 0.20721 0.12639 0.27124 0.0
C1490 C 0.20683 0.08587 0.30755 0.0
C1491 C 0.23571 0.09043 0.31242 0.0
N1492 N 0.20684 0.11355 0.28691 0.0
N1493 N 0.23297 0.10172 0.32461 0.0
H1494 H 0.83348 0.06469 0.29434 0.0
H1495 H 0.9015 0.12912 0.26329 0.0
H1496 H 0.818 0.0961 0.26704 0.0
H1497 H 0.88008 0.1534 0.3183 0.0
H1498 H 0.87898 0.10545 0.28628 0.0
H1499 H 0.85773 0.08564 0.32461 0.0
C1500 C 0.83506 0.07593 0.29631 0.0
C1501 C 0.82391 0.07881 0.27766 0.0
C1502 C 0.87939 0.11591 0.29601 0.0
C1503 C 0.85147 0.1027 0.31071 0.0
C1504 C 0.89231 0.12945 0.28296 0.0
C1505 C 0.89261 0.14314 0.28953 0.0
C1506 C 0.86663 0.11618 0.31443 0.0
C1507 C 0.88028 0.14302 0.31334 0.0
C1508 C 0.84893 0.0879 0.31287 0.0
C1509 C 0.82644 0.09352 0.2806 0.0
N1510 N 0.86763 0.12972 0.32367 0.0
N1511 N 0.84 0.10493 0.29625 0.0
H1512 H 0.88407 0.73022 0.33456 0.0
H1513 H 0.84263 0.77469 0.26212 0.0
H1514 H 0.90429 0.77319 0.25573 0.0
H1515 H 0.82073 0.72965 0.32512 0.0
H1516 H 0.86685 0.77807 0.29046 0.0
H1517 H 0.86307 0.73361 0.36164 0.0
C1518 C 0.88439 0.74068 0.32513 0.0
C1519 C 0.89583 0.75147 0.29308 0.0
C1520 C 0.85674 0.76759 0.29974 0.0
C1521 C 0.87176 0.75522 0.322 0.0
C1522 C 0.84292 0.76574 0.28399 0.0
C1523 C 0.82979 0.75191 0.29158 0.0
C1524 C 0.8574 0.75534 0.32174 0.0
C1525 C 0.83068 0.74052 0.31901 0.0
C1526 C 0.87235 0.74256 0.34007 0.0
C1527 C 0.89564 0.76466 0.28067 0.0
N1528 N 0.84431 0.74236 0.33213 0.0
N1529 N 0.88365 0.76606 0.29436 0.0
H1530 H 0.0783 0.24789 0.66048 0.0
H1531 H 0.12227 0.20488 0.72254 0.0
H1532 H 0.06007 0.20544 0.74201 0.0
H1533 H 0.14296 0.25076 0.66842 0.0
H1534 H 0.0977 0.20122 0.69739 0.0
H1535 H 0.09967 0.24528 0.63171 0.0
C1536 C 0.07848 0.2377 0.67021 0.0
C1537 C 0.06749 0.22683 0.7034 0.0
C1538 C 0.10763 0.21196 0.68928 0.0
C1539 C 0.09196 0.22396 0.67232 0.0
C1540 C 0.12166 0.21397 0.70311 0.0
C1541 C 0.13455 0.22809 0.69715 0.0
C1542 C 0.10654 0.22429 0.67061 0.0
C1543 C 0.13321 0.23966 0.67309 0.0
C1544 C 0.09073 0.23628 0.6543 0.0
C1545 C 0.06835 0.21401 0.71616 0.0
N1546 N 0.11939 0.23761 0.66163 0.0
N1547 N 0.0805 0.21303 0.70131 0.0
H1548 H 0.72047 0.82519 0.66114 0.0
H1549 H 0.75914 0.91377 0.70318 0.0
H1550 H 0.76204 0.8524 0.74434 0.0
H1551 H 0.71147 0.88324 0.69484 0.0
H1552 H 0.76337 0.89309 0.67734 0.0
H1553 H 0.72073 0.84823 0.63269 0.0
C1554 C 0.73 0.83604 0.67123 0.0
C1555 C 0.74122 0.83702 0.70516 0.0
C1556 C 0.752 0.89109 0.67921 0.0
C1557 C 0.74154 0.8632 0.67348 0.0
C1558 C 0.7496 0.90288 0.69353 0.0
C1559 C 0.73495 0.90008 0.70116 0.0
C1560 C 0.73964 0.87655 0.67222 0.0
C1561 C 0.72292 0.88575 0.68932 0.0
C1562 C 0.73008 0.84915 0.65543 0.0
C1563 C 0.75318 0.85128 0.7182 0.0
N1564 N 0.72552 0.87444 0.67605 0.0
N1565 N 0.75294 0.86384 0.70293 0.0
H1566 H 0.14471 0.89199 0.66338 0.0
H1567 H 0.05726 0.84621 0.72162 0.0
H1568 H 0.12001 0.90894 0.74837 0.0
H1569 H 0.08429 0.82633 0.68351 0.0
H1570 H 0.07811 0.87091 0.69544 0.0
H1571 H 0.12088 0.87019 0.63517 0.0
C1572 C 0.13425 0.89144 0.67398 0.0
C1573 C 0.1342 0.90217 0.70807 0.0
C1574 C 0.0793 0.86107 0.69096 0.0
C1575 C 0.10708 0.87728 0.67734 0.0
C1576 C 0.06737 0.84698 0.7054 0.0
C1577 C 0.06915 0.83434 0.70442 0.0
C1578 C 0.09309 0.86243 0.67611 0.0
C1579 C 0.08254 0.83589 0.68443 0.0
C1580 C 0.12068 0.87896 0.65836 0.0
C1581 C 0.12042 0.90085 0.72189 0.0
N1582 N 0.09412 0.84975 0.67184 0.0
N1583 N 0.10739 0.88849 0.70713 0.0
H1584 H 0.87101 0.39605 0.63553 0.0
H1585 H 0.86501 0.45735 0.57496 0.0
H1586 H 0.91777 0.42955 0.62085 0.0
H1587 H 0.90647 0.48429 0.6589 0.0
H1588 H 0.86463 0.43461 0.60575 0.0
H1589 H 0.86547 0.41602 0.6591 0.0
C1590 C 0.88015 0.40754 0.63922 0.0
C1591 C 0.89482 0.41129 0.62566 0.0
C1592 C 0.87345 0.44542 0.61973 0.0
C1593 C 0.88862 0.43404 0.6512 0.0
C1594 C 0.87366 0.45841 0.60202 0.0
C1595 C 0.88573 0.47261 0.61482 0.0
C1596 C 0.8857 0.44674 0.64887 0.0
C1597 C 0.8969 0.47348 0.64878 0.0
C1598 C 0.87698 0.41893 0.65199 0.0
C1599 C 0.90629 0.4263 0.63053 0.0
N1600 N 0.89687 0.4607 0.6633 0.0
N1601 N 0.90293 0.43717 0.6423 0.0
H1602 H 0.48462 0.42789 0.63724 0.0
H1603 H 0.56717 0.45767 0.57241 0.0
H1604 H 0.50178 0.39783 0.612 0.0
H1605 H 0.55306 0.48457 0.65886 0.0
H1606 H 0.54466 0.43491 0.6022 0.0
H1607 H 0.5098 0.44783 0.66176 0.0
C1608 C 0.49365 0.42537 0.63897 0.0
C1609 C 0.49123 0.41128 0.62286 0.0
C1610 C 0.54667 0.44573 0.61635 0.0
C1611 C 0.52016 0.43414 0.64824 0.0
C1612 C 0.55958 0.4587 0.59952 0.0
C1613 C 0.5619 0.47292 0.61336 0.0
C1614 C 0.53575 0.44705 0.64542 0.0
C1615 C 0.55166 0.47375 0.64773 0.0
C1616 C 0.50804 0.43675 0.65273 0.0
C1617 C 0.50326 0.40856 0.62465 0.0
N1618 N 0.53878 0.46099 0.66142 0.0
N1619 N 0.51732 0.42003 0.63571 0.0
H1620 H 0.55118 0.06269 0.66134 0.0
H1621 H 0.50502 0.10423 0.6055 0.0
H1622 H 0.56773 0.10444 0.57631 0.0
H1623 H 0.48545 0.05694 0.63895 0.0
H1624 H 0.52967 0.10806 0.63158 0.0
H1625 H 0.52928 0.06448 0.68953 0.0
C1626 C 0.55052 0.07258 0.65076 0.0
C1627 C 0.56116 0.08345 0.61662 0.0
C1628 C 0.51989 0.09694 0.63508 0.0
C1629 C 0.53619 0.08542 0.64742 0.0
C1630 C 0.50584 0.09479 0.62069 0.0
C1631 C 0.49331 0.08028 0.62037 0.0
C1632 C 0.52133 0.08443 0.64868 0.0
C1633 C 0.49492 0.06831 0.63904 0.0
C1634 C 0.53799 0.07353 0.66635 0.0
C1635 C 0.55971 0.09588 0.60281 0.0
N1636 N 0.50874 0.0706 0.6517 0.0
N1637 N 0.54732 0.09643 0.61762 0.0
H1638 H 0.72312 0.54012 0.04398 0.0
H1639 H 0.81045 0.58128 0.98502 0.0
H1640 H 0.74997 0.58669 -0.00086 0.0
H1641 H 0.78531 0.54003 0.07285 0.0
H1642 H 0.78674 0.57928 0.95571 0.0
H1643 H 0.74381 0.53606 0.01883 0.0
C1644 C 0.73315 0.54931 0.02645 0.0
C1645 C 0.73492 0.56372 0.02328 0.0
C1646 C 0.78642 0.57039 0.97984 0.0
C1647 C 0.75877 0.55938 -0.00345 0.0
C1648 C 0.79992 0.57147 -0.00387 0.0
C1649 C 0.79971 0.56081 0.03139 0.0
C1650 C 0.77273 0.55857 -0.00091 0.0
C1651 C 0.78585 0.54846 0.04566 0.0
C1652 C 0.745 0.54705 0.01263 0.0
C1653 C 0.74822 0.57538 0.00167 0.0
N1654 N 0.7729 0.54777 0.03006 0.0
N1655 N 0.75978 0.57304 0.99002 0.0
H1656 H 0.4293 0.17763 0.04463 0.0
H1657 H 0.39155 0.22754 0.99072 0.0
H1658 H 0.38219 0.16026 0.01657 0.0
H1659 H 0.43182 0.24148 0.08158 0.0
H1660 H 0.39249 0.20521 0.96133 0.0
H1661 H 0.43426 0.20281 0.01899 0.0
C1662 C 0.42011 0.17903 0.03067 0.0
C1663 C 0.40534 0.16699 0.03255 0.0
C1664 C 0.40144 0.21347 0.98601 0.0
C1665 C 0.41082 0.19557 0.00431 0.0
C1666 C 0.40099 0.22626 0.00232 0.0
C1667 C 0.41162 0.23624 0.03857 0.0
C1668 C 0.41264 0.21081 0.00613 0.0
C1669 C 0.42344 0.23397 0.05354 0.0
C1670 C 0.42292 0.19337 0.01649 0.0
C1671 C 0.39374 0.16934 0.01537 0.0
N1672 N 0.42353 0.22137 0.03787 0.0
N1673 N 0.39669 0.18343 0.00266 0.0
H1674 H 0.72292 0.17437 0.04093 0.0
H1675 H 0.81127 0.22545 0.00158 0.0
H1676 H 0.75364 0.15765 0.02603 0.0
H1677 H 0.78357 0.23903 0.08541 0.0
H1678 H 0.78851 0.20268 0.97151 0.0
H1679 H 0.7434 0.19971 0.01808 0.0
C1680 C 0.73381 0.17594 0.03045 0.0
C1681 C 0.73671 0.16403 0.03529 0.0
C1682 C 0.78742 0.21094 -0.0052 0.0
C1683 C 0.76005 0.19277 0.00993 0.0
C1684 C 0.80037 0.22396 0.0115 0.0
C1685 C 0.79918 0.23402 0.04587 0.0
C1686 C 0.7733 0.2081 0.0126 0.0
C1687 C 0.78486 0.23148 0.05877 0.0
C1688 C 0.7455 0.19037 0.01788 0.0
C1689 C 0.75105 0.16661 0.02256 0.0
N1690 N 0.77245 0.21866 0.04271 0.0
N1691 N 0.76226 0.18076 0.01108 0.0
H1692 H 0.53096 0.73654 0.91432 0.0
H1693 H 0.58329 0.81951 0.97718 0.0
H1694 H 0.57209 0.75138 0.00062 0.0
H1695 H 0.53608 0.80183 0.95086 0.0
H1696 H 0.57815 0.79442 0.00317 0.0
H1697 H 0.53045 0.75894 0.9438 0.0
C1698 C 0.53954 0.74425 0.94142 0.0
C1699 C 0.55155 0.74218 0.95529 0.0
C1700 C 0.56881 0.79605 0.99358 0.0
C1701 C 0.55154 0.76821 0.98689 0.0
C1702 C 0.57176 0.8104 0.979 0.0
C1703 C 0.56007 0.81264 0.96213 0.0
C1704 C 0.55412 0.78379 0.98912 0.0
C1705 C 0.54535 0.80049 0.96408 0.0
C1706 C 0.53932 0.7571 0.95803 0.0
C1707 C 0.56259 0.75258 0.98952 0.0
N1708 N 0.54281 0.78647 0.9759 0.0
N1709 N 0.56255 0.7654 0.003 0.0
H1710 H 0.17054 0.73 0.93924 0.0
H1711 H 0.21941 0.81794 0.99342 0.0
H1712 H 0.15254 0.75903 0.9718 0.0
H1713 H 0.23407 0.79189 0.90435 0.0
H1714 H 0.19719 0.79448 0.02229 0.0
H1715 H 0.19561 0.75051 0.96368 0.0
C1716 C 0.17179 0.74049 0.95393 0.0
C1717 C 0.15958 0.74293 0.95376 0.0
C1718 C 0.20556 0.79389 -0.00195 0.0
C1719 C 0.18806 0.76641 0.98041 0.0
C1720 C 0.21828 0.80725 0.98205 0.0
C1721 C 0.22847 0.80672 0.94659 0.0
C1722 C 0.20315 0.78004 0.97833 0.0
C1723 C 0.2264 0.79266 0.93184 0.0
C1724 C 0.18608 0.75221 0.96738 0.0
C1725 C 0.16175 0.75678 0.97176 0.0
N1726 N 0.21386 0.77986 0.94717 0.0
N1727 N 0.17578 0.76811 0.98365 0.0
H1728 H 0.15042 0.39451 0.99136 0.0
H1729 H 0.23817 0.43684 0.9406 0.0
H1730 H 0.17571 0.43669 0.90895 0.0
H1731 H 0.21076 0.38961 0.97549 0.0
H1732 H 0.21724 0.44055 0.96598 0.0
H1733 H 0.17403 0.39658 0.02197 0.0
C1734 C 0.16095 0.40453 0.98179 0.0
C1735 C 0.16126 0.41546 0.94775 0.0
C1736 C 0.21599 0.42947 0.96999 0.0
C1737 C 0.18814 0.41775 0.98122 0.0
C1738 C 0.22796 0.4274 0.95602 0.0
C1739 C 0.22607 0.41292 0.95617 0.0
C1740 C 0.20208 0.41693 0.98358 0.0
C1741 C 0.21257 0.40095 0.97515 0.0
C1742 C 0.1744 0.40566 -0.00118 0.0
C1743 C 0.17512 0.42807 0.93533 0.0
N1744 N 0.20097 0.40316 0.9873 0.0
N1745 N 0.18804 0.42878 0.95139 0.0
H1746 H 0.38999 0.87639 0.37287 0.0
H1747 H 0.47799 0.91337 0.3275 0.0
H1748 H 0.4207 0.9238 0.35193 0.0
H1749 H 0.45061 0.87299 0.4174 0.0
H1750 H 0.45512 0.91304 0.2972 0.0
H1751 H 0.41022 0.87133 0.34947 0.0
C1752 C 0.40081 0.88565 0.3609 0.0
C1753 C 0.40379 0.90051 0.36422 0.0
C1754 C 0.45412 0.90394 0.3219 0.0
C1755 C 0.42686 0.8949 0.33834 0.0
C1756 C 0.46712 0.90406 0.33876 0.0
C1757 C 0.46606 0.89321 0.37497 0.0
C1758 C 0.44008 0.89284 0.34127 0.0
C1759 C 0.4518 0.88154 0.38945 0.0
C1760 C 0.41235 0.88279 0.34801 0.0
C1761 C 0.41804 0.91219 0.34961 0.0
N1762 N 0.43934 0.88176 0.37311 0.0
N1763 N 0.42913 0.90916 0.33797 0.0
H1764 H 0.05382 0.55827 0.32349 0.0
H1765 H 0.09432 0.5109 0.3747 0.0
H1766 H 0.09555 0.5742 0.40706 0.0
H1767 H 0.0471 0.49196 0.34432 0.0
H1768 H 0.09843 0.53577 0.34919 0.0
H1769 H 0.05521 0.5362 0.29409 0.0
C1770 C 0.06362 0.55745 0.33347 0.0
C1771 C 0.0746 0.56796 0.36756 0.0
C1772 C 0.08725 0.52608 0.3462 0.0
C1773 C 0.07612 0.54277 0.3354 0.0
C1774 C 0.08494 0.5119 0.36027 0.0
C1775 C 0.07037 0.49948 0.36133 0.0
C1776 C 0.07486 0.52776 0.33361 0.0
C1777 C 0.0585 0.50133 0.34363 0.0
C1778 C 0.06434 0.54481 0.31718 0.0
C1779 C 0.08691 0.56629 0.38059 0.0
N1780 N 0.06096 0.51527 0.33124 0.0
N1781 N 0.08724 0.55379 0.36514 0.0
H1782 H 0.45413 0.57823 0.39584 0.0
H1783 H 0.4122 0.49173 0.33173 0.0
H1784 H 0.47563 0.55475 0.3337 0.0
H1785 H 0.39147 0.51517 0.40058 0.0
H1786 H 0.4335 0.51592 0.30383 0.0
H1787 H 0.42976 0.55719 0.3691 0.0
C1788 C 0.45372 0.56888 0.37443 0.0
C1789 C 0.46679 0.56815 0.3666 0.0
C1790 C 0.42407 0.51578 0.32341 0.0
C1791 C 0.43901 0.54376 0.33831 0.0
C1792 C 0.41187 0.50197 0.33882 0.0
C1793 C 0.40015 0.50158 0.36817 0.0
C1794 C 0.4246 0.52923 0.33858 0.0
C1795 C 0.40033 0.51509 0.37766 0.0
C1796 C 0.43981 0.5568 0.35963 0.0
C1797 C 0.46573 0.5557 0.33992 0.0
N1798 N 0.4125 0.52841 0.36378 0.0
N1799 N 0.45203 0.54382 0.32769 0.0
loop_
_geom_bond_atom_site_label_1
_geom_bond_atom_site_label_2
_geom_bond_distance
_geom_bond_site_symmetry_2
_ccdc_geom_bond_type
Zn0 O3 2.031 . S
Zn0 O5 2.049 . S
Zn0 O10 2.067 . S
Zn1 O2 1.962 . S
Zn1 O4 1.986 . S
Zn1 O6 1.996 . S
Zn1 O9 1.943 . S
O2 Zn1 1.962 . S
O2 C7 1.254 . S
O3 Zn0 2.031 . S
O3 C7 1.269 . S
O4 Zn1 1.986 . S
O4 C11 1.262 . S
O5 Zn0 2.049 . S
O5 C13 1.260 . S
O6 Zn1 1.996 . S
O6 C13 1.257 . S
C7 O2 1.254 . S
C7 O3 1.269 . S
C8 O9 1.249 . S
C8 O10 1.270 . S
O9 Zn1 1.943 . S
O9 C8 1.249 . S
O10 Zn0 2.067 . S
O10 C8 1.270 . S
C11 O4 1.262 . S
C11 O12 1.232 . S
O12 C11 1.232 . S
C13 O5 1.260 . S
C13 O6 1.257 . S
Zn14 O17 2.031 . S
Zn14 O19 2.049 . S
Zn14 O24 2.067 . S
Zn15 O16 1.962 . S
Zn15 O18 1.986 . S
Zn15 O20 1.996 . S
Zn15 O23 1.943 . S
O16 Zn15 1.962 . S
O16 C21 1.254 . S
O17 Zn14 2.031 . S
O17 C21 1.269 . S
O18 Zn15 1.986 . S
O18 C25 1.262 . S
O19 Zn14 2.049 . S
O19 C27 1.260 . S
O20 Zn15 1.996 . S
O20 C27 1.257 . S
C21 O16 1.254 . S
C21 O17 1.269 . S
C22 O23 1.249 . S
C22 O24 1.270 . S
O23 Zn15 1.943 . S
O23 C22 1.249 . S
O24 Zn14 2.067 . S
O24 C22 1.270 . S
C25 O18 1.262 . S
C25 O26 1.232 . S
O26 C25 1.232 . S
C27 O19 1.260 . S
C27 O20 1.257 . S
Zn28 O31 2.031 . S
Zn28 O33 2.049 . S
Zn28 O38 2.067 . S
Zn29 O30 1.962 . S
Zn29 O32 1.986 . S
Zn29 O34 1.996 . S
Zn29 O37 1.943 . S
O30 Zn29 1.962 . S
O30 C35 1.254 . S
O31 Zn28 2.031 . S
O31 C35 1.269 . S
O32 Zn29 1.986 . S
O32 C39 1.262 . S
O33 Zn28 2.049 . S
O33 C41 1.260 . S
O34 Zn29 1.996 . S
O34 C41 1.257 . S
C35 O30 1.254 . S
C35 O31 1.269 . S
C36 O37 1.249 . S
C36 O38 1.270 . S
O37 Zn29 1.943 . S
O37 C36 1.249 . S
O38 Zn28 2.067 . S
O38 C36 1.270 . S
C39 O32 1.262 . S
C39 O40 1.232 . S
O40 C39 1.232 . S
C41 O33 1.260 . S
C41 O34 1.257 . S
Zn42 O45 2.031 . S
Zn42 O47 2.049 . S
Zn42 O52 2.067 . S
Zn43 O44 1.962 . S
Zn43 O46 1.986 . S
Zn43 O48 1.996 . S
Zn43 O51 1.943 . S
O44 Zn43 1.962 . S
O44 C49 1.254 . S
O45 Zn42 2.031 . S
O45 C49 1.269 . S
O46 Zn43 1.986 . S
O46 C53 1.262 . S
O47 Zn42 2.049 . S
O47 C55 1.260 . S
O48 Zn43 1.996 . S
O48 C55 1.257 . S
C49 O44 1.254 . S
C49 O45 1.269 . S
C50 O51 1.249 . S
C50 O52 1.270 . S
O51 Zn43 1.943 . S
O51 C50 1.249 . S
O52 Zn42 2.067 . S
O52 C50 1.270 . S
C53 O46 1.262 . S
C53 O54 1.232 . S
O54 C53 1.232 . S
C55 O47 1.260 . S
C55 O48 1.257 . S
Zn56 O59 2.031 . S
Zn56 O61 2.049 . S
Zn56 O66 2.067 . S
Zn57 O58 1.962 . S
Zn57 O60 1.986 . S
Zn57 O62 1.996 . S
Zn57 O65 1.943 . S
O58 Zn57 1.962 . S
O58 C63 1.254 . S
O59 Zn56 2.031 . S
O59 C63 1.269 . S
O60 Zn57 1.986 . S
O60 C67 1.262 . S
O61 Zn56 2.049 . S
O61 C69 1.260 . S
O62 Zn57 1.996 . S
O62 C69 1.257 . S
C63 O58 1.254 . S
C63 O59 1.269 . S
C64 O65 1.249 . S
C64 O66 1.270 . S
O65 Zn57 1.943 . S
O65 C64 1.249 . S
O66 Zn56 2.067 . S
O66 C64 1.270 . S
C67 O60 1.262 . S
C67 O68 1.232 . S
O68 C67 1.232 . S
C69 O61 1.260 . S
C69 O62 1.257 . S
Zn70 O73 2.031 . S
Zn70 O75 2.049 . S
Zn70 O80 2.067 . S
Zn71 O72 1.962 . S
Zn71 O74 1.986 . S
Zn71 O76 1.996 . S
Zn71 O79 1.943 . S
O72 Zn71 1.962 . S
O72 C77 1.254 . S
O73 Zn70 2.031 . S
O73 C77 1.269 . S
O74 Zn71 1.986 . S
O74 C81 1.262 . S
O75 Zn70 2.049 . S
O75 C83 1.260 . S
O76 Zn71 1.996 . S
O76 C83 1.257 . S
C77 O72 1.254 . S
C77 O73 1.269 . S
C78 O79 1.249 . S
C78 O80 1.270 . S
O79 Zn71 1.943 . S
O79 C78 1.249 . S
O80 Zn70 2.067 . S
O80 C78 1.270 . S
C81 O74 1.262 . S
C81 O82 1.232 . S
O82 C81 1.232 . S
C83 O75 1.260 . S
C83 O76 1.257 . S
Zn84 O87 2.031 . S
Zn84 O89 2.049 . S
Zn84 O94 2.067 . S
Zn85 O86 1.962 . S
Zn85 O88 1.986 . S
Zn85 O90 1.996 . S
Zn85 O93 1.943 . S
O86 Zn85 1.962 . S
O86 C91 1.254 . S
O87 Zn84 2.031 . S
O87 C91 1.269 . S
O88 Zn85 1.986 . S
O88 C95 1.262 . S
O89 Zn84 2.049 . S
O89 C97 1.260 . S
O90 Zn85 1.996 . S
O90 C97 1.257 . S
C91 O86 1.254 . S
C91 O87 1.269 . S
C92 O93 1.249 . S
C92 O94 1.270 . S
O93 Zn85 1.943 . S
O93 C92 1.249 . S
O94 Zn84 2.067 . S
O94 C92 1.270 . S
C95 O88 1.262 . S
C95 O96 1.232 . S
O96 C95 1.232 . S
C97 O89 1.260 . S
C97 O90 1.257 . S
Zn98 O101 2.031 . S
Zn98 O103 2.049 . S
Zn98 O108 2.067 . S
Zn99 O100 1.962 . S
Zn99 O102 1.986 . S
Zn99 O104 1.996 . S
Zn99 O107 1.943 . S
O100 Zn99 1.962 . S
O100 C105 1.254 . S
O101 Zn98 2.031 . S
O101 C105 1.269 . S
O102 Zn99 1.986 . S
O102 C109 1.262 . S
O103 Zn98 2.049 . S
O103 C111 1.260 . S
O104 Zn99 1.996 . S
O104 C111 1.257 . S
C105 O100 1.254 . S
C105 O101 1.269 . S
C106 O107 1.249 . S
C106 O108 1.270 . S
O107 Zn99 1.943 . S
O107 C106 1.249 . S
O108 Zn98 2.067 . S
O108 C106 1.270 . S
C109 O102 1.262 . S
C109 O110 1.232 . S
O110 C109 1.232 . S
C111 O103 1.260 . S
C111 O104 1.257 . S
Zn112 O115 2.031 . S
Zn112 O117 2.049 . S
Zn112 O122 2.067 . S
Zn113 O114 1.962 . S
Zn113 O116 1.986 . S
Zn113 O118 1.996 . S
Zn113 O121 1.943 . S
O114 Zn113 1.962 . S
O114 C119 1.254 . S
O115 Zn112 2.031 . S
O115 C119 1.269 . S
O116 Zn113 1.986 . S
O116 C123 1.262 . S
O117 Zn112 2.049 . S
O117 C125 1.260 . S
O118 Zn113 1.996 . S
O118 C125 1.257 . S
C119 O114 1.254 . S
C119 O115 1.269 . S
C120 O121 1.249 . S
C120 O122 1.270 . S
O121 Zn113 1.943 . S
O121 C120 1.249 . S
O122 Zn112 2.067 . S
O122 C120 1.270 . S
C123 O116 1.262 . S
C123 O124 1.232 . S
O124 C123 1.232 . S
C125 O117 1.260 . S
C125 O118 1.257 . S
Zn126 O129 2.031 . S
Zn126 O131 2.049 . S
Zn126 O136 2.067 . S
Zn127 O128 1.962 . S
Zn127 O130 1.986 . S
Zn127 O132 1.996 . S
Zn127 O135 1.943 . S
O128 Zn127 1.962 . S
O128 C133 1.254 . S
O129 Zn126 2.031 . S
O129 C133 1.269 . S
O130 Zn127 1.986 . S
O130 C137 1.262 . S
O131 Zn126 2.049 . S
O131 C139 1.260 . S
O132 Zn127 1.996 . S
O132 C139 1.257 . S
C133 O128 1.254 . S
C133 O129 1.269 . S
C134 O135 1.249 . S
C134 O136 1.270 . S
O135 Zn127 1.943 . S
O135 C134 1.249 . S
O136 Zn126 2.067 . S
O136 C134 1.270 . S
C137 O130 1.262 . S
C137 O138 1.232 . S
O138 C137 1.232 . S
C139 O131 1.260 . S
C139 O132 1.257 . S
Zn140 O143 2.031 . S
Zn140 O145 2.049 . S
Zn140 O150 2.067 . S
Zn141 O142 1.962 . S
Zn141 O144 1.986 . S
Zn141 O146 1.996 . S
Zn141 O149 1.943 . S
O142 Zn141 1.962 . S
O142 C147 1.254 . S
O143 Zn140 2.031 . S
O143 C147 1.269 . S
O144 Zn141 1.986 . S
O144 C151 1.262 . S
O145 Zn140 2.049 . S
O145 C153 1.260 . S
O146 Zn141 1.996 . S
O146 C153 1.257 . S
C147 O142 1.254 . S
C147 O143 1.269 . S
C148 O149 1.249 . S
C148 O150 1.270 . S
O149 Zn141 1.943 . S
O149 C148 1.249 . S
O150 Zn140 2.067 . S
O150 C148 1.270 . S
C151 O144 1.262 . S
C151 O152 1.232 . S
O152 C151 1.232 . S
C153 O145 1.260 . S
C153 O146 1.257 . S
Zn154 O157 2.031 . S
Zn154 O159 2.049 . S
Zn154 O164 2.067 . S
Zn155 O156 1.962 . S
Zn155 O158 1.986 . S
Zn155 O160 1.996 . S
Zn155 O163 1.943 . S
O156 Zn155 1.962 . S
O156 C161 1.254 . S
O157 Zn154 2.031 . S
O157 C161 1.269 . S
O158 Zn155 1.986 . S
O158 C165 1.262 . S
O159 Zn154 2.049 . S
O159 C167 1.260 . S
O160 Zn155 1.996 . S
O160 C167 1.257 . S
C161 O156 1.254 . S
C161 O157 1.269 . S
C162 O163 1.249 . S
C162 O164 1.270 . S
O163 Zn155 1.943 . S
O163 C162 1.249 . S
O164 Zn154 2.067 . S
O164 C162 1.270 . S
C165 O158 1.262 . S
C165 O166 1.232 . S
O166 C165 1.232 . S
C167 O159 1.260 . S
C167 O160 1.257 . S
Zn168 O171 2.031 . S
Zn168 O173 2.049 . S
Zn168 O178 2.067 . S
Zn169 O170 1.962 . S
Zn169 O172 1.986 . S
Zn169 O174 1.996 . S
Zn169 O177 1.943 . S
O170 Zn169 1.962 . S
O170 C175 1.254 . S
O171 Zn168 2.031 . S
O171 C175 1.269 . S
O172 Zn169 1.986 . S
O172 C179 1.262 . S
O173 Zn168 2.049 . S
O173 C181 1.260 . S
O174 Zn169 1.996 . S
O174 C181 1.257 . S
C175 O170 1.254 . S
C175 O171 1.269 . S
C176 O177 1.249 . S
C176 O178 1.270 . S
O177 Zn169 1.943 . S
O177 C176 1.249 . S
O178 Zn168 2.067 . S
O178 C176 1.270 . S
C179 O172 1.262 . S
C179 O180 1.232 . S
O180 C179 1.232 . S
C181 O173 1.260 . S
C181 O174 1.257 . S
Zn182 O185 2.031 . S
Zn182 O187 2.049 . S
Zn182 O192 2.067 . S
Zn183 O184 1.962 . S
Zn183 O186 1.986 . S
Zn183 O188 1.996 . S
Zn183 O191 1.943 . S
O184 Zn183 1.962 . S
O184 C189 1.254 . S
O185 Zn182 2.031 . S
O185 C189 1.269 . S
O186 Zn183 1.986 . S
O186 C193 1.262 . S
O187 Zn182 2.049 . S
O187 C195 1.260 . S
O188 Zn183 1.996 . S
O188 C195 1.257 . S
C189 O184 1.254 . S
C189 O185 1.269 . S
C190 O191 1.249 . S
C190 O192 1.270 . S
O191 Zn183 1.943 . S
O191 C190 1.249 . S
O192 Zn182 2.067 . S
O192 C190 1.270 . S
C193 O186 1.262 . S
C193 O194 1.232 . S
O194 C193 1.232 . S
C195 O187 1.260 . S
C195 O188 1.257 . S
Zn196 O199 2.031 . S
Zn196 O201 2.049 . S
Zn196 O206 2.067 . S
Zn197 O198 1.962 . S
Zn197 O200 1.986 . S
Zn197 O202 1.996 . S
Zn197 O205 1.943 . S
O198 Zn197 1.962 . S
O198 C203 1.254 . S
O199 Zn196 2.031 . S
O199 C203 1.269 . S
O200 Zn197 1.986 . S
O200 C207 1.262 . S
O201 Zn196 2.049 . S
O201 C209 1.260 . S
O202 Zn197 1.996 . S
O202 C209 1.257 . S
C203 O198 1.254 . S
C203 O199 1.269 . S
C204 O205 1.249 . S
C204 O206 1.270 . S
O205 Zn197 1.943 . S
O205 C204 1.249 . S
O206 Zn196 2.067 . S
O206 C204 1.270 . S
C207 O200 1.262 . S
C207 O208 1.232 . S
O208 C207 1.232 . S
C209 O201 1.260 . S
C209 O202 1.257 . S
Zn210 O213 2.031 . S
Zn210 O215 2.049 . S
Zn210 O220 2.067 . S
Zn211 O212 1.962 . S
Zn211 O214 1.986 . S
Zn211 O216 1.996 . S
Zn211 O219 1.943 . S
O212 Zn211 1.962 . S
O212 C217 1.254 . S
O213 Zn210 2.031 . S
O213 C217 1.269 . S
O214 Zn211 1.986 . S
O214 C221 1.262 1_554 S
O215 Zn210 2.049 . S
O215 C223 1.260 . S
O216 Zn211 1.996 . S
O216 C223 1.257 . S
C217 O212 1.254 . S
C217 O213 1.269 . S
C218 O219 1.249 . S
C218 O220 1.270 . S
O219 Zn211 1.943 . S
O219 C218 1.249 . S
O220 Zn210 2.067 . S
O220 C218 1.270 . S
C221 O214 1.262 1_556 S
C221 O222 1.232 . S
O222 C221 1.232 . S
C223 O215 1.260 . S
C223 O216 1.257 . S
Zn224 O227 2.031 . S
Zn224 O229 2.049 . S
Zn224 O234 2.067 . S
Zn225 O226 1.962 . S
Zn225 O228 1.986 . S
Zn225 O230 1.996 . S
Zn225 O233 1.943 . S
O226 Zn225 1.962 . S
O226 C231 1.254 . S
O227 Zn224 2.031 . S
O227 C231 1.269 . S
O228 Zn225 1.986 . S
O228 C235 1.262 1_554 S
O229 Zn224 2.049 . S
O229 C237 1.260 . S
O230 Zn225 1.996 . S
O230 C237 1.257 . S
C231 O226 1.254 . S
C231 O227 1.269 . S
C232 O233 1.249 . S
C232 O234 1.270 . S
O233 Zn225 1.943 . S
O233 C232 1.249 . S
O234 Zn224 2.067 . S
O234 C232 1.270 . S
C235 O228 1.262 1_556 S
C235 O236 1.232 . S
O236 C235 1.232 . S
C237 O229 1.260 . S
C237 O230 1.257 . S
Zn238 O241 2.031 . S
Zn238 O243 2.049 . S
Zn238 O248 2.067 . S
Zn239 O240 1.962 . S
Zn239 O242 1.986 . S
Zn239 O244 1.996 . S
Zn239 O247 1.943 . S
O240 Zn239 1.962 . S
O240 C245 1.254 . S
O241 Zn238 2.031 . S
O241 C245 1.269 . S
O242 Zn239 1.986 . S
O242 C249 1.262 1_554 S
O243 Zn238 2.049 . S
O243 C251 1.260 . S
O244 Zn239 1.996 . S
O244 C251 1.257 . S
C245 O240 1.254 . S
C245 O241 1.269 . S
C246 O247 1.249 . S
C246 O248 1.270 . S
O247 Zn239 1.943 . S
O247 C246 1.249 . S
O248 Zn238 2.067 . S
O248 C246 1.270 . S
C249 O242 1.262 1_556 S
C249 O250 1.232 . S
O250 C249 1.232 . S
C251 O243 1.260 . S
C251 O244 1.257 . S
Zn252 O255 2.031 . S
Zn252 O257 2.049 . S
Zn252 O262 2.067 . S
Zn253 O254 1.962 . S
Zn253 O256 1.986 . S
Zn253 O258 1.996 . S
Zn253 O261 1.943 . S
O254 Zn253 1.962 . S
O254 C259 1.254 . S
O255 Zn252 2.031 . S
O255 C259 1.269 . S
O256 Zn253 1.986 . S
O256 C263 1.262 1_554 S
O257 Zn252 2.049 . S
O257 C265 1.260 . S
O258 Zn253 1.996 . S
O258 C265 1.257 . S
C259 O254 1.254 . S
C259 O255 1.269 . S
C260 O261 1.249 . S
C260 O262 1.270 . S
O261 Zn253 1.943 . S
O261 C260 1.249 . S
O262 Zn252 2.067 . S
O262 C260 1.270 . S
C263 O256 1.262 1_556 S
C263 O264 1.232 . S
O264 C263 1.232 . S
C265 O257 1.260 . S
C265 O258 1.257 . S
Zn266 O269 2.031 . S
Zn266 O271 2.049 . S
Zn266 O276 2.067 . S
Zn267 O268 1.962 . S
Zn267 O270 1.986 . S
Zn267 O272 1.996 . S
Zn267 O275 1.943 . S
O268 Zn267 1.962 . S
O268 C273 1.254 . S
O269 Zn266 2.031 . S
O269 C273 1.269 . S
O270 Zn267 1.986 . S
O270 C277 1.262 1_554 S
O271 Zn266 2.049 . S
O271 C279 1.260 . S
O272 Zn267 1.996 . S
O272 C279 1.257 . S
C273 O268 1.254 . S
C273 O269 1.269 . S
C274 O275 1.249 . S
C274 O276 1.270 . S
O275 Zn267 1.943 . S
O275 C274 1.249 . S
O276 Zn266 2.067 . S
O276 C274 1.270 . S
C277 O270 1.262 1_556 S
C277 O278 1.232 . S
O278 C277 1.232 . S
C279 O271 1.260 . S
C279 O272 1.257 . S
Zn280 O283 2.031 . S
Zn280 O285 2.049 . S
Zn280 O290 2.067 . S
Zn281 O282 1.962 . S
Zn281 O284 1.986 . S
Zn281 O286 1.996 . S
Zn281 O289 1.943 . S
O282 Zn281 1.962 . S
O282 C287 1.254 . S
O283 Zn280 2.031 . S
O283 C287 1.269 . S
O284 Zn281 1.986 . S
O284 C291 1.262 1_554 S
O285 Zn280 2.049 . S
O285 C293 1.260 . S
O286 Zn281 1.996 . S
O286 C293 1.257 . S
C287 O282 1.254 . S
C287 O283 1.269 . S
C288 O289 1.249 . S
C288 O290 1.270 . S
O289 Zn281 1.943 . S
O289 C288 1.249 . S
O290 Zn280 2.067 . S
O290 C288 1.270 . S
C291 O284 1.262 1_556 S
C291 O292 1.232 . S
O292 C291 1.232 . S
C293 O285 1.260 . S
C293 O286 1.257 . S
Zn294 O297 2.031 . S
Zn294 O299 2.049 . S
Zn294 O304 2.067 . S
Zn295 O296 1.962 . S
Zn295 O298 1.986 . S
Zn295 O300 1.996 . S
Zn295 O303 1.943 . S
O296 Zn295 1.962 . S
O296 C301 1.254 . S
O297 Zn294 2.031 . S
O297 C301 1.269 . S
O298 Zn295 1.986 . S
O298 C305 1.262 . S
O299 Zn294 2.049 . S
O299 C307 1.260 . S
O300 Zn295 1.996 . S
O300 C307 1.257 . S
C301 O296 1.254 . S
C301 O297 1.269 . S
C302 O303 1.249 . S
C302 O304 1.270 . S
O303 Zn295 1.943 . S
O303 C302 1.249 . S
O304 Zn294 2.067 . S
O304 C302 1.270 . S
C305 O298 1.262 . S
C305 O306 1.232 . S
O306 C305 1.232 . S
C307 O299 1.260 . S
C307 O300 1.257 . S
Zn308 O311 2.031 . S
Zn308 O313 2.049 . S
Zn308 O318 2.067 . S
Zn309 O310 1.962 . S
Zn309 O312 1.986 . S
Zn309 O314 1.996 . S
Zn309 O317 1.943 . S
O310 Zn309 1.962 . S
O310 C315 1.254 . S
O311 Zn308 2.031 . S
O311 C315 1.269 . S
O312 Zn309 1.986 . S
O312 C319 1.262 . S
O313 Zn308 2.049 . S
O313 C321 1.260 . S
O314 Zn309 1.996 . S
O314 C321 1.257 . S
C315 O310 1.254 . S
C315 O311 1.269 . S
C316 O317 1.249 . S
C316 O318 1.270 . S
O317 Zn309 1.943 . S
O317 C316 1.249 . S
O318 Zn308 2.067 . S
O318 C316 1.270 . S
C319 O312 1.262 . S
C319 O320 1.232 . S
O320 C319 1.232 . S
C321 O313 1.260 . S
C321 O314 1.257 . S
Zn322 O325 2.031 . S
Zn322 O327 2.049 . S
Zn322 O332 2.067 . S
Zn323 O324 1.962 . S
Zn323 O326 1.986 . S
Zn323 O328 1.996 . S
Zn323 O331 1.943 . S
O324 Zn323 1.962 . S
O324 C329 1.254 . S
O325 Zn322 2.031 . S
O325 C329 1.269 . S
O326 Zn323 1.986 . S
O326 C333 1.262 . S
O327 Zn322 2.049 . S
O327 C335 1.260 . S
O328 Zn323 1.996 . S
O328 C335 1.257 . S
C329 O324 1.254 . S
C329 O325 1.269 . S
C330 O331 1.249 . S
C330 O332 1.270 . S
O331 Zn323 1.943 . S
O331 C330 1.249 . S
O332 Zn322 2.067 . S
O332 C330 1.270 . S
C333 O326 1.262 . S
C333 O334 1.232 . S
O334 C333 1.232 . S
C335 O327 1.260 . S
C335 O328 1.257 . S
Zn336 O339 2.031 . S
Zn336 O341 2.049 . S
Zn336 O346 2.067 . S
Zn337 O338 1.962 . S
Zn337 O340 1.986 . S
Zn337 O342 1.996 . S
Zn337 O345 1.943 . S
O338 Zn337 1.962 . S
O338 C343 1.254 . S
O339 Zn336 2.031 . S
O339 C343 1.269 . S
O340 Zn337 1.986 . S
O340 C347 1.262 1_556 S
O341 Zn336 2.049 . S
O341 C349 1.260 . S
O342 Zn337 1.996 . S
O342 C349 1.257 . S
C343 O338 1.254 . S
C343 O339 1.269 . S
C344 O345 1.249 . S
C344 O346 1.270 . S
O345 Zn337 1.943 . S
O345 C344 1.249 . S
O346 Zn336 2.067 . S
O346 C344 1.270 . S
C347 O340 1.262 1_554 S
C347 O348 1.232 . S
O348 C347 1.232 . S
C349 O341 1.260 . S
C349 O342 1.257 . S
Zn350 O353 2.031 . S
Zn350 O355 2.049 . S
Zn350 O360 2.067 . S
Zn351 O352 1.962 . S
Zn351 O354 1.986 . S
Zn351 O356 1.996 . S
Zn351 O359 1.943 . S
O352 Zn351 1.962 . S
O352 C357 1.254 . S
O353 Zn350 2.031 . S
O353 C357 1.269 . S
O354 Zn351 1.986 . S
O354 C361 1.262 1_556 S
O355 Zn350 2.049 . S
O355 C363 1.260 . S
O356 Zn351 1.996 . S
O356 C363 1.257 . S
C357 O352 1.254 . S
C357 O353 1.269 . S
C358 O359 1.249 . S
C358 O360 1.270 . S
O359 Zn351 1.943 . S
O359 C358 1.249 . S
O360 Zn350 2.067 . S
O360 C358 1.270 . S
C361 O354 1.262 1_554 S
C361 O362 1.232 . S
O362 C361 1.232 . S
C363 O355 1.260 . S
C363 O356 1.257 . S
Zn364 O367 2.031 . S
Zn364 O369 2.049 . S
Zn364 O374 2.067 . S
Zn365 O366 1.962 . S
Zn365 O368 1.986 . S
Zn365 O370 1.996 . S
Zn365 O373 1.943 . S
O366 Zn365 1.962 . S
O366 C371 1.254 . S
O367 Zn364 2.031 . S
O367 C371 1.269 . S
O368 Zn365 1.986 . S
O368 C375 1.262 1_556 S
O369 Zn364 2.049 . S
O369 C377 1.260 . S
O370 Zn365 1.996 . S
O370 C377 1.257 . S
C371 O366 1.254 . S
C371 O367 1.269 . S
C372 O373 1.249 . S
C372 O374 1.270 . S
O373 Zn365 1.943 . S
O373 C372 1.249 . S
O374 Zn364 2.067 . S
O374 C372 1.270 . S
C375 O368 1.262 1_554 S
C375 O376 1.232 . S
O376 C375 1.232 . S
C377 O369 1.260 . S
C377 O370 1.257 . S
Zn378 O381 2.031 . S
Zn378 O383 2.049 . S
Zn378 O388 2.067 . S
Zn379 O380 1.962 . S
Zn379 O382 1.986 . S
Zn379 O384 1.996 . S
Zn379 O387 1.943 . S
O380 Zn379 1.962 . S
O380 C385 1.254 . S
O381 Zn378 2.031 . S
O381 C385 1.269 . S
O382 Zn379 1.986 . S
O382 C389 1.262 . S
O383 Zn378 2.049 . S
O383 C391 1.260 . S
O384 Zn379 1.996 . S
O384 C391 1.257 . S
C385 O380 1.254 . S
C385 O381 1.269 . S
C386 O387 1.249 . S
C386 O388 1.270 . S
O387 Zn379 1.943 . S
O387 C386 1.249 . S
O388 Zn378 2.067 . S
O388 C386 1.270 . S
C389 O382 1.262 . S
C389 O390 1.232 . S
O390 C389 1.232 . S
C391 O383 1.260 . S
C391 O384 1.257 . S
Zn392 O395 2.031 . S
Zn392 O397 2.049 . S
Zn392 O402 2.067 . S
Zn393 O394 1.962 . S
Zn393 O396 1.986 . S
Zn393 O398 1.996 . S
Zn393 O401 1.943 . S
O394 Zn393 1.962 . S
O394 C399 1.254 . S
O395 Zn392 2.031 . S
O395 C399 1.269 . S
O396 Zn393 1.986 . S
O396 C403 1.262 . S
O397 Zn392 2.049 . S
O397 C405 1.260 . S
O398 Zn393 1.996 . S
O398 C405 1.257 . S
C399 O394 1.254 . S
C399 O395 1.269 . S
C400 O401 1.249 . S
C400 O402 1.270 . S
O401 Zn393 1.943 . S
O401 C400 1.249 . S
O402 Zn392 2.067 . S
O402 C400 1.270 . S
C403 O396 1.262 . S
C403 O404 1.232 . S
O404 C403 1.232 . S
C405 O397 1.260 . S
C405 O398 1.257 . S
Zn406 O409 2.031 . S
Zn406 O411 2.049 . S
Zn406 O416 2.067 . S
Zn407 O408 1.962 . S
Zn407 O410 1.986 . S
Zn407 O412 1.996 . S
Zn407 O415 1.943 . S
O408 Zn407 1.962 . S
O408 C413 1.254 . S
O409 Zn406 2.031 . S
O409 C413 1.269 . S
O410 Zn407 1.986 . S
O410 C417 1.262 . S
O411 Zn406 2.049 . S
O411 C419 1.260 . S
O412 Zn407 1.996 . S
O412 C419 1.257 . S
C413 O408 1.254 . S
C413 O409 1.269 . S
C414 O415 1.249 . S
C414 O416 1.270 . S
O415 Zn407 1.943 . S
O415 C414 1.249 . S
O416 Zn406 2.067 . S
O416 C414 1.270 . S
C417 O410 1.262 . S
C417 O418 1.232 . S
O418 C417 1.232 . S
C419 O411 1.260 . S
C419 O412 1.257 . S
Zn420 O423 2.031 . S
Zn420 O425 2.049 . S
Zn420 O430 2.067 . S
Zn421 O422 1.962 . S
Zn421 O424 1.986 . S
Zn421 O426 1.996 . S
Zn421 O429 1.943 . S
O422 Zn421 1.962 . S
O422 C427 1.254 . S
O423 Zn420 2.031 . S
O423 C427 1.269 . S
O424 Zn421 1.986 . S
O424 C431 1.262 . S
O425 Zn420 2.049 . S
O425 C433 1.260 . S
O426 Zn421 1.996 . S
O426 C433 1.257 . S
C427 O422 1.254 . S
C427 O423 1.269 . S
C428 O429 1.249 . S
C428 O430 1.270 . S
O429 Zn421 1.943 . S
O429 C428 1.249 . S
O430 Zn420 2.067 . S
O430 C428 1.270 . S
C431 O424 1.262 . S
C431 O432 1.232 . S
O432 C431 1.232 . S
C433 O425 1.260 . S
C433 O426 1.257 . S
Zn434 O437 2.031 . S
Zn434 O439 2.049 . S
Zn434 O444 2.067 . S
Zn435 O436 1.962 . S
Zn435 O438 1.986 . S
Zn435 O440 1.996 . S
Zn435 O443 1.943 . S
O436 Zn435 1.962 . S
O436 C441 1.254 . S
O437 Zn434 2.031 . S
O437 C441 1.269 . S
O438 Zn435 1.986 . S
O438 C445 1.262 . S
O439 Zn434 2.049 . S
O439 C447 1.260 . S
O440 Zn435 1.996 . S
O440 C447 1.257 . S
C441 O436 1.254 . S
C441 O437 1.269 . S
C442 O443 1.249 . S
C442 O444 1.270 . S
O443 Zn435 1.943 . S
O443 C442 1.249 . S
O444 Zn434 2.067 . S
O444 C442 1.270 . S
C445 O438 1.262 . S
C445 O446 1.232 . S
O446 C445 1.232 . S
C447 O439 1.260 . S
C447 O440 1.257 . S
Zn448 O451 2.031 . S
Zn448 O453 2.049 . S
Zn448 O458 2.067 . S
Zn449 O450 1.962 . S
Zn449 O452 1.986 . S
Zn449 O454 1.996 . S
Zn449 O457 1.943 . S
O450 Zn449 1.962 . S
O450 C455 1.254 . S
O451 Zn448 2.031 . S
O451 C455 1.269 . S
O452 Zn449 1.986 . S
O452 C459 1.262 . S
O453 Zn448 2.049 . S
O453 C461 1.260 . S
O454 Zn449 1.996 . S
O454 C461 1.257 . S
C455 O450 1.254 . S
C455 O451 1.269 . S
C456 O457 1.249 . S
C456 O458 1.270 . S
O457 Zn449 1.943 . S
O457 C456 1.249 . S
O458 Zn448 2.067 . S
O458 C456 1.270 . S
C459 O452 1.262 . S
C459 O460 1.232 . S
O460 C459 1.232 . S
C461 O453 1.260 . S
C461 O454 1.257 . S
Zn462 O465 2.031 . S
Zn462 O467 2.049 . S
Zn462 O472 2.067 . S
Zn463 O464 1.962 . S
Zn463 O466 1.986 . S
Zn463 O468 1.996 . S
Zn463 O471 1.943 . S
O464 Zn463 1.962 . S
O464 C469 1.254 . S
O465 Zn462 2.031 . S
O465 C469 1.269 . S
O466 Zn463 1.986 . S
O466 C473 1.262 1_556 S
O467 Zn462 2.049 . S
O467 C475 1.260 . S
O468 Zn463 1.996 . S
O468 C475 1.257 . S
C469 O464 1.254 . S
C469 O465 1.269 . S
C470 O471 1.249 . S
C470 O472 1.270 . S
O471 Zn463 1.943 . S
O471 C470 1.249 . S
O472 Zn462 2.067 . S
O472 C470 1.270 . S
C473 O466 1.262 1_554 S
C473 O474 1.232 . S
O474 C473 1.232 . S
C475 O467 1.260 . S
C475 O468 1.257 . S
Zn476 O479 2.031 . S
Zn476 O481 2.049 . S
Zn476 O486 2.067 . S
Zn477 O478 1.962 . S
Zn477 O480 1.986 . S
Zn477 O482 1.996 . S
Zn477 O485 1.943 . S
O478 Zn477 1.962 . S
O478 C483 1.254 . S
O479 Zn476 2.031 . S
O479 C483 1.269 . S
O480 Zn477 1.986 . S
O480 C487 1.262 1_556 S
O481 Zn476 2.049 . S
O481 C489 1.260 . S
O482 Zn477 1.996 . S
O482 C489 1.257 . S
C483 O478 1.254 . S
C483 O479 1.269 . S
C484 O485 1.249 . S
C484 O486 1.270 . S
O485 Zn477 1.943 . S
O485 C484 1.249 . S
O486 Zn476 2.067 . S
O486 C484 1.270 . S
C487 O480 1.262 1_554 S
C487 O488 1.232 . S
O488 C487 1.232 . S
C489 O481 1.260 . S
C489 O482 1.257 . S
Zn490 O493 2.031 . S
Zn490 O495 2.049 . S
Zn490 O500 2.067 . S
Zn491 O492 1.962 . S
Zn491 O494 1.986 . S
Zn491 O496 1.996 . S
Zn491 O499 1.943 . S
O492 Zn491 1.962 . S
O492 C497 1.254 . S
O493 Zn490 2.031 . S
O493 C497 1.269 . S
O494 Zn491 1.986 . S
O494 C501 1.262 1_556 S
O495 Zn490 2.049 . S
O495 C503 1.260 . S
O496 Zn491 1.996 . S
O496 C503 1.257 . S
C497 O492 1.254 . S
C497 O493 1.269 . S
C498 O499 1.249 . S
C498 O500 1.270 . S
O499 Zn491 1.943 . S
O499 C498 1.249 . S
O500 Zn490 2.067 . S
O500 C498 1.270 . S
C501 O494 1.262 1_554 S
C501 O502 1.232 . S
O502 C501 1.232 . S
C503 O495 1.260 . S
C503 O496 1.257 . S
H504 C510 0.930 . S
H505 C514 0.930 . S
H506 C519 0.929 . S
H507 C517 0.929 . S
H508 C512 0.929 . S
H509 C518 0.929 . S
C510 H504 0.930 . S
C510 C511 1.367 . S
C510 C518 1.378 . S
C511 C510 1.367 . S
C511 C519 1.433 . S
C512 H508 0.929 . S
C512 C514 1.378 . S
C512 C516 1.350 . S
C513 C516 1.463 1_565 S
C513 C518 1.350 . S
C513 N521 1.427 1_565 S
C514 H505 0.930 . S
C514 C512 1.378 . S
C514 C515 1.367 . S
C515 C514 1.367 . S
C515 C517 1.433 . S
C516 C512 1.350 . S
C516 C513 1.463 1_545 S
C516 N520 1.427 1_545 S
C517 H507 0.929 . S
C517 C515 1.433 . S
C517 N520 1.383 1_545 S
C518 H509 0.929 . S
C518 C510 1.378 . S
C518 C513 1.350 . S
C519 H506 0.929 . S
C519 C511 1.433 . S
C519 N521 1.383 1_565 S
N520 C516 1.427 1_565 S
N520 C517 1.383 1_565 S
N521 C513 1.427 1_545 S
N521 C519 1.383 1_545 S
H522 C528 0.930 . S
H523 C532 0.930 . S
H524 C537 0.929 . S
H525 C535 0.929 . S
H526 C530 0.929 . S
H527 C536 0.929 . S
C528 H522 0.930 . S
C528 C529 1.367 . S
C528 C536 1.378 . S
C529 C528 1.367 . S
C529 C537 1.433 . S
C530 H526 0.929 . S
C530 C532 1.378 . S
C530 C534 1.350 . S
C531 C534 1.463 1_455 S
C531 C536 1.350 . S
C531 N539 1.427 . S
C532 H523 0.930 . S
C532 C530 1.378 . S
C532 C533 1.367 . S
C533 C532 1.367 . S
C533 C535 1.433 . S
C534 C530 1.350 . S
C534 C531 1.463 1_655 S
C534 N538 1.427 . S
C535 H525 0.929 . S
C535 C533 1.433 . S
C535 N538 1.399 . S
C536 H527 0.929 . S
C536 C528 1.378 . S
C536 C531 1.350 . S
C537 H524 0.929 . S
C537 C529 1.433 . S
C537 N539 1.399 . S
N538 C534 1.427 . S
N538 C535 1.399 . S
N539 C531 1.427 . S
N539 C537 1.399 . S
H540 C546 0.930 . S
H541 C550 0.930 . S
H542 C555 0.929 . S
H543 C553 0.929 . S
H544 C548 0.929 . S
H545 C554 0.929 . S
C546 H540 0.930 . S
C546 C547 1.367 . S
C546 C554 1.378 . S
C547 C546 1.367 . S
C547 C555 1.433 . S
C548 H544 0.929 . S
C548 C550 1.378 . S
C548 C552 1.350 . S
C549 C552 1.463 . S
C549 C554 1.350 . S
C549 N557 1.427 . S
C550 H541 0.930 . S
C550 C548 1.378 . S
C550 C551 1.367 . S
C551 C550 1.367 . S
C551 C553 1.433 . S
C552 C548 1.350 . S
C552 C549 1.463 . S
C552 N556 1.427 . S
C553 H543 0.929 . S
C553 C551 1.433 . S
C553 N556 1.384 . S
C554 H545 0.929 . S
C554 C546 1.378 . S
C554 C549 1.350 . S
C555 H542 0.929 . S
C555 C547 1.433 . S
C555 N557 1.384 . S
N556 C552 1.427 . S
N556 C553 1.384 . S
N557 C549 1.427 . S
N557 C555 1.384 . S
H558 C564 0.930 . S
H559 C568 0.930 . S
H560 C573 0.929 . S
H561 C571 0.929 . S
H562 C566 0.954 . S
H563 C572 0.954 . S
C564 H558 0.930 . S
C564 C565 1.367 . S
C564 C572 1.356 1_565 S
C565 C564 1.367 . S
C565 C573 1.433 . S
C566 H562 0.954 . S
C566 C568 1.356 1_565 S
C566 C570 1.348 1_565 S
C567 C570 1.463 1_565 S
C567 C572 1.348 1_565 S
C567 N575 1.427 . S
C568 H559 0.930 . S
C568 C566 1.356 1_545 S
C568 C569 1.367 . S
C569 C568 1.367 . S
C569 C571 1.433 . S
C570 C566 1.348 1_545 S
C570 C567 1.463 1_545 S
C570 N574 1.427 . S
C571 H561 0.929 . S
C571 C569 1.433 . S
C571 N574 1.384 . S
C572 H563 0.954 . S
C572 C564 1.356 1_545 S
C572 C567 1.348 1_545 S
C573 H560 0.929 . S
C573 C565 1.433 . S
C573 N575 1.384 . S
N574 C570 1.427 . S
N574 C571 1.384 . S
N575 C567 1.427 . S
N575 C573 1.384 . S
H576 C582 0.930 . S
H577 C586 0.930 . S
H578 C591 0.929 . S
H579 C589 0.929 . S
H580 C584 0.929 1_455 S
H581 C590 0.929 1_655 S
C582 H576 0.930 . S
C582 C583 1.367 . S
C582 C590 1.378 . S
C583 C582 1.367 . S
C583 C591 1.433 . S
C584 H580 0.929 1_655 S
C584 C586 1.378 . S
C584 C588 1.350 . S
C585 C588 1.463 1_455 S
C585 C590 1.350 . S
C585 N593 1.427 . S
C586 H577 0.930 . S
C586 C584 1.378 . S
C586 C587 1.367 . S
C587 C586 1.367 . S
C587 C589 1.433 . S
C588 C584 1.350 . S
C588 C585 1.463 1_655 S
C588 N592 1.427 . S
C589 H579 0.929 . S
C589 C587 1.433 . S
C589 N592 1.384 . S
C590 H581 0.929 1_455 S
C590 C582 1.378 . S
C590 C585 1.350 . S
C591 H578 0.929 . S
C591 C583 1.433 . S
C591 N593 1.384 . S
N592 C588 1.427 . S
N592 C589 1.384 . S
N593 C585 1.427 . S
N593 C591 1.384 . S
H594 C600 0.930 . S
H595 C604 0.930 . S
H596 C609 0.929 . S
H597 C607 0.929 . S
H598 C602 0.929 . S
H599 C608 0.929 . S
C600 H594 0.930 . S
C600 C601 1.367 . S
C600 C608 1.378 . S
C601 C600 1.367 . S
C601 C609 1.433 . S
C602 H598 0.929 . S
C602 C604 1.378 . S
C602 C606 1.350 . S
C603 C606 1.463 . S
C603 C608 1.350 . S
C603 N611 1.427 . S
C604 H595 0.930 . S
C604 C602 1.378 . S
C604 C605 1.367 . S
C605 C604 1.367 . S
C605 C607 1.433 . S
C606 C602 1.350 . S
C606 C603 1.463 . S
C606 N610 1.427 . S
C607 H597 0.929 . S
C607 C605 1.433 . S
C607 N610 1.384 . S
C608 H599 0.929 . S
C608 C600 1.378 . S
C608 C603 1.350 . S
C609 H596 0.929 . S
C609 C601 1.433 . S
C609 N611 1.384 . S
N610 C606 1.427 . S
N610 C607 1.384 . S
N611 C603 1.427 . S
N611 C609 1.384 . S
H612 C618 0.930 . S
H613 C622 0.930 . S
H614 C627 0.929 . S
H615 C625 0.929 . S
H616 C620 0.929 . S
H617 C626 0.929 . S
C618 H612 0.930 . S
C618 C619 1.367 . S
C618 C626 1.378 . S
C619 C618 1.367 . S
C619 C627 1.433 . S
C620 H616 0.929 . S
C620 C622 1.378 . S
C620 C624 1.350 . S
C621 C624 1.463 . S
C621 C626 1.350 . S
C621 N629 1.427 . S
C622 H613 0.930 . S
C622 C620 1.378 . S
C622 C623 1.367 . S
C623 C622 1.367 . S
C623 C625 1.433 . S
C624 C620 1.350 . S
C624 C621 1.463 . S
C624 N628 1.427 . S
C625 H615 0.929 . S
C625 C623 1.433 . S
C625 N628 1.384 . S
C626 H617 0.929 . S
C626 C618 1.378 . S
C626 C621 1.350 . S
C627 H614 0.929 . S
C627 C619 1.433 . S
C627 N629 1.384 . S
N628 C624 1.427 . S
N628 C625 1.384 . S
N629 C621 1.427 . S
N629 C627 1.384 . S
H630 C636 0.930 . S
H631 C640 0.930 . S
H632 C645 0.929 . S
H633 C643 0.929 . S
H634 C638 0.929 . S
H635 C644 0.929 . S
C636 H630 0.930 . S
C636 C637 1.367 . S
C636 C644 1.378 . S
C637 C636 1.367 . S
C637 C645 1.433 . S
C638 H634 0.929 . S
C638 C640 1.378 . S
C638 C642 1.350 . S
C639 C642 1.463 . S
C639 C644 1.350 . S
C639 N647 1.427 . S
C640 H631 0.930 . S
C640 C638 1.378 . S
C640 C641 1.367 . S
C641 C640 1.367 . S
C641 C643 1.433 . S
C642 C638 1.350 . S
C642 C639 1.463 . S
C642 N646 1.427 . S
C643 H633 0.929 . S
C643 C641 1.433 . S
C643 N646 1.384 . S
C644 H635 0.929 . S
C644 C636 1.378 . S
C644 C639 1.350 . S
C645 H632 0.929 . S
C645 C637 1.433 . S
C645 N647 1.384 . S
N646 C642 1.427 . S
N646 C643 1.384 . S
N647 C639 1.427 . S
N647 C645 1.384 . S
H648 C654 0.930 . S
H649 C658 0.930 . S
H650 C663 0.929 . S
H651 C661 0.929 . S
H652 C656 0.929 . S
H653 C662 0.929 . S
C654 H648 0.930 . S
C654 C655 1.367 . S
C654 C662 1.378 . S
C655 C654 1.367 . S
C655 C663 1.433 . S
C656 H652 0.929 . S
C656 C658 1.378 . S
C656 C660 1.350 . S
C657 C660 1.463 . S
C657 C662 1.350 . S
C657 N665 1.427 . S
C658 H649 0.930 . S
C658 C656 1.378 . S
C658 C659 1.367 . S
C659 C658 1.367 . S
C659 C661 1.433 . S
C660 C656 1.350 . S
C660 C657 1.463 . S
C660 N664 1.427 . S
C661 H651 0.929 . S
C661 C659 1.433 . S
C661 N664 1.384 . S
C662 H653 0.929 . S
C662 C654 1.378 . S
C662 C657 1.350 . S
C663 H650 0.929 . S
C663 C655 1.433 . S
C663 N665 1.384 . S
N664 C660 1.427 . S
N664 C661 1.384 . S
N665 C657 1.427 . S
N665 C663 1.384 . S
H666 C672 0.930 . S
H667 C676 0.930 . S
H668 C681 0.929 . S
H669 C679 0.929 . S
H670 C674 0.929 . S
H671 C680 0.929 . S
C672 H666 0.930 . S
C672 C673 1.367 . S
C672 C680 1.378 . S
C673 C672 1.367 . S
C673 C681 1.433 . S
C674 H670 0.929 . S
C674 C676 1.378 . S
C674 C678 1.350 . S
C675 C678 1.463 . S
C675 C680 1.350 . S
C675 N683 1.427 . S
C676 H667 0.930 . S
C676 C674 1.378 . S
C676 C677 1.367 . S
C677 C676 1.367 . S
C677 C679 1.433 . S
C678 C674 1.350 . S
C678 C675 1.463 . S
C678 N682 1.427 . S
C679 H669 0.929 . S
C679 C677 1.433 . S
C679 N682 1.384 . S
C680 H671 0.929 . S
C680 C672 1.378 . S
C680 C675 1.350 . S
C681 H668 0.929 . S
C681 C673 1.433 . S
C681 N683 1.384 . S
N682 C678 1.427 . S
N682 C679 1.384 . S
N683 C675 1.427 . S
N683 C681 1.384 . S
H684 C690 0.930 . S
H685 C694 0.930 . S
H686 C699 0.929 . S
H687 C697 0.929 . S
H688 C692 0.929 . S
H689 C698 0.929 . S
C690 H684 0.930 . S
C690 C691 1.367 . S
C690 C698 1.378 . S
C691 C690 1.367 . S
C691 C699 1.433 . S
C692 H688 0.929 . S
C692 C694 1.378 . S
C692 C696 1.350 . S
C693 C696 1.463 . S
C693 C698 1.350 . S
C693 N701 1.427 . S
C694 H685 0.930 . S
C694 C692 1.378 . S
C694 C695 1.367 . S
C695 C694 1.367 . S
C695 C697 1.433 . S
C696 C692 1.350 . S
C696 C693 1.463 . S
C696 N700 1.427 . S
C697 H687 0.929 . S
C697 C695 1.433 . S
C697 N700 1.384 . S
C698 H689 0.929 . S
C698 C690 1.378 . S
C698 C693 1.350 . S
C699 H686 0.929 . S
C699 C691 1.433 . S
C699 N701 1.384 . S
N700 C696 1.427 . S
N700 C697 1.384 . S
N701 C693 1.427 . S
N701 C699 1.384 . S
H702 C708 0.930 . S
H703 C712 0.930 . S
H704 C717 0.929 . S
H705 C715 0.929 . S
H706 C710 0.929 . S
H707 C716 0.929 . S
C708 H702 0.930 . S
C708 C709 1.367 . S
C708 C716 1.378 . S
C709 C708 1.367 . S
C709 C717 1.433 . S
C710 H706 0.929 . S
C710 C712 1.378 . S
C710 C714 1.350 . S
C711 C714 1.463 . S
C711 C716 1.350 . S
C711 N719 1.427 . S
C712 H703 0.930 . S
C712 C710 1.378 . S
C712 C713 1.367 . S
C713 C712 1.367 . S
C713 C715 1.433 . S
C714 C710 1.350 . S
C714 C711 1.463 . S
C714 N718 1.427 . S
C715 H705 0.929 . S
C715 C713 1.433 . S
C715 N718 1.384 . S
C716 H707 0.929 . S
C716 C708 1.378 . S
C716 C711 1.350 . S
C717 H704 0.929 . S
C717 C709 1.433 . S
C717 N719 1.384 . S
N718 C714 1.427 . S
N718 C715 1.384 . S
N719 C711 1.427 . S
N719 C717 1.384 . S
H720 C726 0.930 . S
H721 C730 0.930 . S
H722 C735 0.929 . S
H723 C733 0.929 . S
H724 C728 0.929 . S
H725 C734 0.929 . S
C726 H720 0.930 . S
C726 C727 1.367 . S
C726 C734 1.378 . S
C727 C726 1.367 . S
C727 C735 1.433 . S
C728 H724 0.929 . S
C728 C730 1.378 . S
C728 C732 1.350 . S
C729 C732 1.463 . S
C729 C734 1.350 . S
C729 N737 1.427 . S
C730 H721 0.930 . S
C730 C728 1.378 . S
C730 C731 1.367 . S
C731 C730 1.367 . S
C731 C733 1.433 . S
C732 C728 1.350 . S
C732 C729 1.463 . S
C732 N736 1.427 . S
C733 H723 0.929 . S
C733 C731 1.433 . S
C733 N736 1.384 . S
C734 H725 0.929 . S
C734 C726 1.378 . S
C734 C729 1.350 . S
C735 H722 0.929 . S
C735 C727 1.433 . S
C735 N737 1.384 . S
N736 C732 1.427 . S
N736 C733 1.384 . S
N737 C729 1.427 . S
N737 C735 1.384 . S
H738 C744 0.930 . S
H739 C748 0.930 . S
H740 C753 0.929 . S
H741 C751 0.929 . S
H742 C746 0.929 . S
H743 C752 0.929 . S
C744 H738 0.930 . S
C744 C745 1.367 . S
C744 C752 1.378 . S
C745 C744 1.367 . S
C745 C753 1.433 . S
C746 H742 0.929 . S
C746 C748 1.378 . S
C746 C750 1.350 . S
C747 C750 1.463 . S
C747 C752 1.350 . S
C747 N755 1.427 . S
C748 H739 0.930 . S
C748 C746 1.378 . S
C748 C749 1.367 . S
C749 C748 1.367 . S
C749 C751 1.433 . S
C750 C746 1.350 . S
C750 C747 1.463 . S
C750 N754 1.427 . S
C751 H741 0.929 . S
C751 C749 1.433 . S
C751 N754 1.384 . S
C752 H743 0.929 . S
C752 C744 1.378 . S
C752 C747 1.350 . S
C753 H740 0.929 . S
C753 C745 1.433 . S
C753 N755 1.384 . S
N754 C750 1.427 . S
N754 C751 1.384 . S
N755 C747 1.427 . S
N755 C753 1.384 . S
H756 C762 0.930 . S
H757 C766 0.930 . S
H758 C771 0.929 . S
H759 C769 0.929 . S
H760 C764 0.929 . S
H761 C770 0.929 . S
C762 H756 0.930 . S
C762 C763 1.367 . S
C762 C770 1.378 . S
C763 C762 1.367 . S
C763 C771 1.433 . S
C764 H760 0.929 . S
C764 C766 1.378 . S
C764 C768 1.350 . S
C765 C768 1.463 . S
C765 C770 1.350 . S
C765 N773 1.427 . S
C766 H757 0.930 . S
C766 C764 1.378 . S
C766 C767 1.367 . S
C767 C766 1.367 . S
C767 C769 1.433 . S
C768 C764 1.350 . S
C768 C765 1.463 . S
C768 N772 1.427 . S
C769 H759 0.929 . S
C769 C767 1.433 . S
C769 N772 1.384 . S
C770 H761 0.929 . S
C770 C762 1.378 . S
C770 C765 1.350 . S
C771 H758 0.929 . S
C771 C763 1.433 . S
C771 N773 1.384 . S
N772 C768 1.427 . S
N772 C769 1.384 . S
N773 C765 1.427 . S
N773 C771 1.384 . S
H774 C780 0.930 . S
H775 C784 0.930 . S
H776 C789 0.929 . S
H777 C787 0.929 . S
H778 C782 0.929 . S
H779 C788 0.929 . S
C780 H774 0.930 . S
C780 C781 1.367 . S
C780 C788 1.378 . S
C781 C780 1.367 . S
C781 C789 1.433 . S
C782 H778 0.929 . S
C782 C784 1.378 . S
C782 C786 1.350 . S
C783 C786 1.463 . S
C783 C788 1.350 . S
C783 N791 1.427 . S
C784 H775 0.930 . S
C784 C782 1.378 . S
C784 C785 1.367 . S
C785 C784 1.367 . S
C785 C787 1.433 . S
C786 C782 1.350 . S
C786 C783 1.463 . S
C786 N790 1.427 . S
C787 H777 0.929 . S
C787 C785 1.433 . S
C787 N790 1.384 . S
C788 H779 0.929 . S
C788 C780 1.378 . S
C788 C783 1.350 . S
C789 H776 0.929 . S
C789 C781 1.433 . S
C789 N791 1.384 . S
N790 C786 1.427 . S
N790 C787 1.384 . S
N791 C783 1.427 . S
N791 C789 1.384 . S
H792 C798 0.930 . S
H793 C802 0.930 . S
H794 C807 0.929 . S
H795 C805 0.929 . S
H796 C800 0.929 . S
H797 C806 0.929 . S
C798 H792 0.930 . S
C798 C799 1.367 . S
C798 C806 1.378 . S
C799 C798 1.367 . S
C799 C807 1.433 . S
C800 H796 0.929 . S
C800 C802 1.378 . S
C800 C804 1.350 . S
C801 C804 1.463 . S
C801 C806 1.350 . S
C801 N809 1.427 . S
C802 H793 0.930 . S
C802 C800 1.378 . S
C802 C803 1.367 . S
C803 C802 1.367 . S
C803 C805 1.433 . S
C804 C800 1.350 . S
C804 C801 1.463 . S
C804 N808 1.427 . S
C805 H795 0.929 . S
C805 C803 1.433 . S
C805 N808 1.384 . S
C806 H797 0.929 . S
C806 C798 1.378 . S
C806 C801 1.350 . S
C807 H794 0.929 . S
C807 C799 1.433 . S
C807 N809 1.384 . S
N808 C804 1.427 . S
N808 C805 1.384 . S
N809 C801 1.427 . S
N809 C807 1.384 . S
H810 C816 0.930 . S
H811 C820 0.930 . S
H812 C825 0.929 . S
H813 C823 0.929 . S
H814 C818 0.929 . S
H815 C824 0.929 . S
C816 H810 0.930 . S
C816 C817 1.367 . S
C816 C824 1.378 . S
C817 C816 1.367 . S
C817 C825 1.433 . S
C818 H814 0.929 . S
C818 C820 1.378 . S
C818 C822 1.350 . S
C819 C822 1.463 . S
C819 C824 1.350 . S
C819 N827 1.427 . S
C820 H811 0.930 . S
C820 C818 1.378 . S
C820 C821 1.367 . S
C821 C820 1.367 . S
C821 C823 1.433 . S
C822 C818 1.350 . S
C822 C819 1.463 . S
C822 N826 1.427 . S
C823 H813 0.929 . S
C823 C821 1.433 . S
C823 N826 1.384 . S
C824 H815 0.929 . S
C824 C816 1.378 . S
C824 C819 1.350 . S
C825 H812 0.929 . S
C825 C817 1.433 . S
C825 N827 1.384 . S
N826 C822 1.427 . S
N826 C823 1.384 . S
N827 C819 1.427 . S
N827 C825 1.384 . S
H828 C834 0.930 . S
H829 C838 0.930 . S
H830 C843 0.929 . S
H831 C841 0.929 . S
H832 C836 0.947 . S
H833 C842 0.947 . S
C834 H828 0.930 . S
C834 C835 1.367 . S
C834 C842 1.368 1_565 S
C835 C834 1.367 . S
C835 C843 1.433 . S
C836 H832 0.947 . S
C836 C838 1.368 1_565 S
C836 C840 1.341 1_565 S
C837 C840 1.463 1_566 S
C837 C842 1.341 1_565 S
C837 N845 1.427 . S
C838 H829 0.930 . S
C838 C836 1.368 1_545 S
C838 C839 1.367 . S
C839 C838 1.367 . S
C839 C841 1.433 . S
C840 C836 1.341 1_545 S
C840 C837 1.463 1_544 S
C840 N844 1.427 . S
C841 H831 0.929 . S
C841 C839 1.433 . S
C841 N844 1.384 . S
C842 H833 0.947 . S
C842 C834 1.368 1_545 S
C842 C837 1.341 1_545 S
C843 H830 0.929 . S
C843 C835 1.433 . S
C843 N845 1.384 . S
N844 C840 1.427 . S
N844 C841 1.384 . S
N845 C837 1.427 . S
N845 C843 1.384 . S
H846 C852 0.930 . S
H847 C856 0.930 . S
H848 C861 0.929 . S
H849 C859 0.929 . S
H850 C854 0.929 1_554 S
H851 C860 0.929 1_556 S
C852 H846 0.930 . S
C852 C853 1.367 . S
C852 C860 1.378 . S
C853 C852 1.367 . S
C853 C861 1.433 . S
C854 H850 0.929 1_556 S
C854 C856 1.378 . S
C854 C858 1.350 . S
C855 C858 1.463 1_654 S
C855 C860 1.350 . S
C855 N863 1.427 1_655 S
C856 H847 0.930 . S
C856 C854 1.378 . S
C856 C857 1.367 . S
C857 C856 1.367 . S
C857 C859 1.433 . S
C858 C854 1.350 . S
C858 C855 1.463 1_456 S
C858 N862 1.427 1_455 S
C859 H849 0.929 . S
C859 C857 1.433 . S
C859 N862 1.384 1_455 S
C860 H851 0.929 1_554 S
C860 C852 1.378 . S
C860 C855 1.350 . S
C861 H848 0.929 . S
C861 C853 1.433 . S
C861 N863 1.384 1_655 S
N862 C858 1.427 1_655 S
N862 C859 1.384 1_655 S
N863 C855 1.427 1_455 S
N863 C861 1.384 1_455 S
H864 C870 0.930 . S
H865 C874 0.930 . S
H866 C879 0.929 . S
H867 C877 0.929 . S
H868 C872 0.929 . S
H869 C878 0.929 . S
C870 H864 0.930 . S
C870 C871 1.367 . S
C870 C878 1.378 . S
C871 C870 1.367 . S
C871 C879 1.433 . S
C872 H868 0.929 . S
C872 C874 1.378 . S
C872 C876 1.350 . S
C873 C876 1.463 1_556 S
C873 C878 1.350 . S
C873 N881 1.427 . S
C874 H865 0.930 . S
C874 C872 1.378 . S
C874 C875 1.367 . S
C875 C874 1.367 . S
C875 C877 1.433 . S
C876 C872 1.350 . S
C876 C873 1.463 1_554 S
C876 N880 1.427 . S
C877 H867 0.929 . S
C877 C875 1.433 . S
C877 N880 1.384 . S
C878 H869 0.929 . S
C878 C870 1.378 . S
C878 C873 1.350 . S
C879 H866 0.929 . S
C879 C871 1.433 . S
C879 N881 1.384 . S
N880 C876 1.427 . S
N880 C877 1.384 . S
N881 C873 1.427 . S
N881 C879 1.384 . S
H882 C888 0.930 . S
H883 C892 0.930 . S
H884 C897 0.929 . S
H885 C895 0.929 . S
H886 C890 0.929 1_556 S
H887 C896 0.929 1_554 S
C888 H882 0.930 . S
C888 C889 1.367 . S
C888 C896 1.378 . S
C889 C888 1.367 . S
C889 C897 1.433 . S
C890 H886 0.929 1_554 S
C890 C892 1.378 . S
C890 C894 1.350 . S
C891 C894 1.463 1_566 S
C891 C896 1.350 . S
C891 N899 1.395 1_565 S
C892 H883 0.930 . S
C892 C890 1.378 . S
C892 C893 1.367 . S
C893 C892 1.367 . S
C893 C895 1.433 . S
C894 C890 1.350 . S
C894 C891 1.463 1_544 S
C894 N898 1.395 1_545 S
C895 H885 0.929 . S
C895 C893 1.433 . S
C895 N898 1.352 1_545 S
C896 H887 0.929 1_556 S
C896 C888 1.378 . S
C896 C891 1.350 . S
C897 H884 0.929 . S
C897 C889 1.433 . S
C897 N899 1.352 1_565 S
N898 C894 1.395 1_565 S
N898 C895 1.352 1_565 S
N899 C891 1.395 1_545 S
N899 C897 1.352 1_545 S
H900 C906 0.930 . S
H901 C910 0.930 . S
H902 C915 0.929 . S
H903 C913 0.929 . S
H904 C908 0.929 . S
H905 C914 0.929 . S
C906 H900 0.930 . S
C906 C907 1.367 . S
C906 C914 1.378 1_455 S
C907 C906 1.367 . S
C907 C915 1.433 . S
C908 H904 0.929 . S
C908 C910 1.378 1_455 S
C908 C912 1.350 1_455 S
C909 C912 1.463 1_456 S
C909 C914 1.350 1_455 S
C909 N917 1.427 . S
C910 H901 0.930 . S
C910 C908 1.378 1_655 S
C910 C911 1.367 . S
C911 C910 1.367 . S
C911 C913 1.433 . S
C912 C908 1.350 1_655 S
C912 C909 1.463 1_654 S
C912 N916 1.427 . S
C913 H903 0.929 . S
C913 C911 1.433 . S
C913 N916 1.384 . S
C914 H905 0.929 . S
C914 C906 1.378 1_655 S
C914 C909 1.350 1_655 S
C915 H902 0.929 . S
C915 C907 1.433 . S
C915 N917 1.384 . S
N916 C912 1.427 . S
N916 C913 1.384 . S
N917 C909 1.427 . S
N917 C915 1.384 . S
H918 C924 0.930 . S
H919 C928 0.930 . S
H920 C933 0.929 . S
H921 C931 0.929 . S
H922 C926 0.929 . S
H923 C932 0.929 . S
C924 H918 0.930 . S
C924 C925 1.367 . S
C924 C932 1.378 . S
C925 C924 1.367 . S
C925 C933 1.433 . S
C926 H922 0.929 . S
C926 C928 1.378 . S
C926 C930 1.350 . S
C927 C930 1.463 1_554 S
C927 C932 1.350 . S
C927 N935 1.427 . S
C928 H919 0.930 . S
C928 C926 1.378 . S
C928 C929 1.367 . S
C929 C928 1.367 . S
C929 C931 1.433 . S
C930 C926 1.350 . S
C930 C927 1.463 1_556 S
C930 N934 1.427 . S
C931 H921 0.929 . S
C931 C929 1.433 . S
C931 N934 1.384 . S
C932 H923 0.929 . S
C932 C924 1.378 . S
C932 C927 1.350 . S
C933 H920 0.929 . S
C933 C925 1.433 . S
C933 N935 1.384 . S
N934 C930 1.427 . S
N934 C931 1.384 . S
N935 C927 1.427 . S
N935 C933 1.384 . S
H936 C942 0.930 . S
H937 C946 0.930 . S
H938 C951 0.929 . S
H939 C949 0.929 . S
H940 C944 0.929 . S
H941 C950 0.929 . S
C942 H936 0.930 . S
C942 C943 1.367 . S
C942 C950 1.378 . S
C943 C942 1.367 . S
C943 C951 1.433 . S
C944 H940 0.929 . S
C944 C946 1.378 . S
C944 C948 1.350 . S
C945 C948 1.463 . S
C945 C950 1.350 . S
C945 N953 1.427 . S
C946 H937 0.930 . S
C946 C944 1.378 . S
C946 C947 1.367 . S
C947 C946 1.367 . S
C947 C949 1.433 . S
C948 C944 1.350 . S
C948 C945 1.463 . S
C948 N952 1.427 . S
C949 H939 0.929 . S
C949 C947 1.433 . S
C949 N952 1.384 . S
C950 H941 0.929 . S
C950 C942 1.378 . S
C950 C945 1.350 . S
C951 H938 0.929 . S
C951 C943 1.433 . S
C951 N953 1.384 . S
N952 C948 1.427 . S
N952 C949 1.384 . S
N953 C945 1.427 . S
N953 C951 1.384 . S
H954 C960 0.930 . S
H955 C964 0.930 . S
H956 C969 0.929 . S
H957 C967 0.929 . S
H958 C962 0.929 . S
H959 C968 0.929 . S
C960 H954 0.930 . S
C960 C961 1.367 . S
C960 C968 1.378 . S
C961 C960 1.367 . S
C961 C969 1.433 . S
C962 H958 0.929 . S
C962 C964 1.378 . S
C962 C966 1.350 . S
C963 C966 1.463 . S
C963 C968 1.350 . S
C963 N971 1.427 . S
C964 H955 0.930 . S
C964 C962 1.378 . S
C964 C965 1.367 . S
C965 C964 1.367 . S
C965 C967 1.433 . S
C966 C962 1.350 . S
C966 C963 1.463 . S
C966 N970 1.427 . S
C967 H957 0.929 . S
C967 C965 1.433 . S
C967 N970 1.384 . S
C968 H959 0.929 . S
C968 C960 1.378 . S
C968 C963 1.350 . S
C969 H956 0.929 . S
C969 C961 1.433 . S
C969 N971 1.384 . S
N970 C966 1.427 . S
N970 C967 1.384 . S
N971 C963 1.427 . S
N971 C969 1.384 . S
H972 C978 0.930 . S
H973 C982 0.930 . S
H974 C987 0.929 . S
H975 C985 0.929 . S
H976 C980 0.929 . S
H977 C986 0.929 . S
C978 H972 0.930 . S
C978 C979 1.367 . S
C978 C986 1.378 . S
C979 C978 1.367 . S
C979 C987 1.433 . S
C980 H976 0.929 . S
C980 C982 1.378 . S
C980 C984 1.350 . S
C981 C984 1.463 . S
C981 C986 1.350 . S
C981 N989 1.427 . S
C982 H973 0.930 . S
C982 C980 1.378 . S
C982 C983 1.367 . S
C983 C982 1.367 . S
C983 C985 1.433 . S
C984 C980 1.350 . S
C984 C981 1.463 . S
C984 N988 1.427 . S
C985 H975 0.929 . S
C985 C983 1.433 . S
C985 N988 1.384 . S
C986 H977 0.929 . S
C986 C978 1.378 . S
C986 C981 1.350 . S
C987 H974 0.929 . S
C987 C979 1.433 . S
C987 N989 1.384 . S
N988 C984 1.427 . S
N988 C985 1.384 . S
N989 C981 1.427 . S
N989 C987 1.384 . S
H990 C996 0.930 . S
H991 C1000 0.930 . S
H992 C1005 0.929 . S
H993 C1003 0.929 . S
H994 C998 0.929 . S
H995 C1004 0.929 . S
C996 H990 0.930 . S
C996 C997 1.367 . S
C996 C1004 1.378 . S
C997 C996 1.367 . S
C997 C1005 1.433 . S
C998 H994 0.929 . S
C998 C1000 1.378 . S
C998 C1002 1.350 . S
C999 C1002 1.463 . S
C999 C1004 1.350 . S
C999 N1007 1.427 . S
C1000 H991 0.930 . S
C1000 C998 1.378 . S
C1000 C1001 1.367 . S
C1001 C1000 1.367 . S
C1001 C1003 1.433 . S
C1002 C998 1.350 . S
C1002 C999 1.463 . S
C1002 N1006 1.427 . S
C1003 H993 0.929 . S
C1003 C1001 1.433 . S
C1003 N1006 1.384 . S
C1004 H995 0.929 . S
C1004 C996 1.378 . S
C1004 C999 1.350 . S
C1005 H992 0.929 . S
C1005 C997 1.433 . S
C1005 N1007 1.384 . S
N1006 C1002 1.427 . S
N1006 C1003 1.384 . S
N1007 C999 1.427 . S
N1007 C1005 1.384 . S
H1008 C1014 0.930 . S
H1009 C1018 0.930 . S
H1010 C1023 0.929 . S
H1011 C1021 0.929 . S
H1012 C1016 0.929 . S
H1013 C1022 0.929 . S
C1014 H1008 0.930 . S
C1014 C1015 1.367 . S
C1014 C1022 1.378 . S
C1015 C1014 1.367 . S
C1015 C1023 1.433 . S
C1016 H1012 0.929 . S
C1016 C1018 1.378 . S
C1016 C1020 1.350 . S
C1017 C1020 1.463 . S
C1017 C1022 1.350 . S
C1017 N1025 1.427 . S
C1018 H1009 0.930 . S
C1018 C1016 1.378 . S
C1018 C1019 1.367 . S
C1019 C1018 1.367 . S
C1019 C1021 1.433 . S
C1020 C1016 1.350 . S
C1020 C1017 1.463 . S
C1020 N1024 1.427 . S
C1021 H1011 0.929 . S
C1021 C1019 1.433 . S
C1021 N1024 1.384 . S
C1022 H1013 0.929 . S
C1022 C1014 1.378 . S
C1022 C1017 1.350 . S
C1023 H1010 0.929 . S
C1023 C1015 1.433 . S
C1023 N1025 1.384 . S
N1024 C1020 1.427 . S
N1024 C1021 1.384 . S
N1025 C1017 1.427 . S
N1025 C1023 1.384 . S
H1026 C1032 0.930 . S
H1027 C1036 0.930 . S
H1028 C1041 0.929 . S
H1029 C1039 0.929 . S
H1030 C1034 0.929 . S
H1031 C1040 0.929 . S
C1032 H1026 0.930 . S
C1032 C1033 1.367 . S
C1032 C1040 1.378 . S
C1033 C1032 1.367 . S
C1033 C1041 1.433 . S
C1034 H1030 0.929 . S
C1034 C1036 1.378 . S
C1034 C1038 1.350 . S
C1035 C1038 1.463 . S
C1035 C1040 1.350 . S
C1035 N1043 1.427 . S
C1036 H1027 0.930 . S
C1036 C1034 1.378 . S
C1036 C1037 1.367 . S
C1037 C1036 1.367 . S
C1037 C1039 1.433 . S
C1038 C1034 1.350 . S
C1038 C1035 1.463 . S
C1038 N1042 1.427 . S
C1039 H1029 0.929 . S
C1039 C1037 1.433 . S
C1039 N1042 1.384 . S
C1040 H1031 0.929 . S
C1040 C1032 1.378 . S
C1040 C1035 1.350 . S
C1041 H1028 0.929 . S
C1041 C1033 1.433 . S
C1041 N1043 1.384 . S
N1042 C1038 1.427 . S
N1042 C1039 1.384 . S
N1043 C1035 1.427 . S
N1043 C1041 1.384 . S
H1044 C1050 0.930 . S
H1045 C1054 0.930 . S
H1046 C1059 0.929 . S
H1047 C1057 0.929 . S
H1048 C1052 0.929 . S
H1049 C1058 0.929 . S
C1050 H1044 0.930 . S
C1050 C1051 1.367 . S
C1050 C1058 1.378 . S
C1051 C1050 1.367 . S
C1051 C1059 1.433 . S
C1052 H1048 0.929 . S
C1052 C1054 1.378 . S
C1052 C1056 1.350 . S
C1053 C1056 1.463 . S
C1053 C1058 1.350 . S
C1053 N1061 1.427 . S
C1054 H1045 0.930 . S
C1054 C1052 1.378 . S
C1054 C1055 1.367 . S
C1055 C1054 1.367 . S
C1055 C1057 1.433 . S
C1056 C1052 1.350 . S
C1056 C1053 1.463 . S
C1056 N1060 1.427 . S
C1057 H1047 0.929 . S
C1057 C1055 1.433 . S
C1057 N1060 1.384 . S
C1058 H1049 0.929 . S
C1058 C1050 1.378 . S
C1058 C1053 1.350 . S
C1059 H1046 0.929 . S
C1059 C1051 1.433 . S
C1059 N1061 1.384 . S
N1060 C1056 1.427 . S
N1060 C1057 1.384 . S
N1061 C1053 1.427 . S
N1061 C1059 1.384 . S
H1062 C1068 0.930 . S
H1063 C1072 0.930 . S
H1064 C1077 0.929 . S
H1065 C1075 0.929 . S
H1066 C1070 0.929 . S
H1067 C1076 0.929 . S
C1068 H1062 0.930 . S
C1068 C1069 1.367 . S
C1068 C1076 1.378 . S
C1069 C1068 1.367 . S
C1069 C1077 1.433 . S
C1070 H1066 0.929 . S
C1070 C1072 1.378 . S
C1070 C1074 1.350 . S
C1071 C1074 1.463 . S
C1071 C1076 1.350 . S
C1071 N1079 1.427 . S
C1072 H1063 0.930 . S
C1072 C1070 1.378 . S
C1072 C1073 1.367 . S
C1073 C1072 1.367 . S
C1073 C1075 1.433 . S
C1074 C1070 1.350 . S
C1074 C1071 1.463 . S
C1074 N1078 1.427 . S
C1075 H1065 0.929 . S
C1075 C1073 1.433 . S
C1075 N1078 1.384 . S
C1076 H1067 0.929 . S
C1076 C1068 1.378 . S
C1076 C1071 1.350 . S
C1077 H1064 0.929 . S
C1077 C1069 1.433 . S
C1077 N1079 1.384 . S
N1078 C1074 1.427 . S
N1078 C1075 1.384 . S
N1079 C1071 1.427 . S
N1079 C1077 1.384 . S
H1080 C1086 0.930 . S
H1081 C1090 0.930 . S
H1082 C1095 0.929 . S
H1083 C1093 0.929 . S
H1084 C1088 0.929 . S
H1085 C1094 0.929 . S
C1086 H1080 0.930 . S
C1086 C1087 1.367 . S
C1086 C1094 1.378 . S
C1087 C1086 1.367 . S
C1087 C1095 1.433 . S
C1088 H1084 0.929 . S
C1088 C1090 1.378 . S
C1088 C1092 1.350 . S
C1089 C1092 1.463 . S
C1089 C1094 1.350 . S
C1089 N1097 1.427 . S
C1090 H1081 0.930 . S
C1090 C1088 1.378 . S
C1090 C1091 1.367 . S
C1091 C1090 1.367 . S
C1091 C1093 1.433 . S
C1092 C1088 1.350 . S
C1092 C1089 1.463 . S
C1092 N1096 1.427 . S
C1093 H1083 0.929 . S
C1093 C1091 1.433 . S
C1093 N1096 1.384 . S
C1094 H1085 0.929 . S
C1094 C1086 1.378 . S
C1094 C1089 1.350 . S
C1095 H1082 0.929 . S
C1095 C1087 1.433 . S
C1095 N1097 1.384 . S
N1096 C1092 1.427 . S
N1096 C1093 1.384 . S
N1097 C1089 1.427 . S
N1097 C1095 1.384 . S
H1098 C1104 0.930 . S
H1099 C1108 0.930 . S
H1100 C1113 0.929 . S
H1101 C1111 0.929 . S
H1102 C1106 0.929 . S
H1103 C1112 0.929 . S
C1104 H1098 0.930 . S
C1104 C1105 1.367 . S
C1104 C1112 1.378 . S
C1105 C1104 1.367 . S
C1105 C1113 1.433 . S
C1106 H1102 0.929 . S
C1106 C1108 1.378 . S
C1106 C1110 1.350 . S
C1107 C1110 1.463 . S
C1107 C1112 1.350 . S
C1107 N1115 1.427 . S
C1108 H1099 0.930 . S
C1108 C1106 1.378 . S
C1108 C1109 1.367 . S
C1109 C1108 1.367 . S
C1109 C1111 1.433 . S
C1110 C1106 1.350 . S
C1110 C1107 1.463 . S
C1110 N1114 1.427 . S
C1111 H1101 0.929 . S
C1111 C1109 1.433 . S
C1111 N1114 1.384 . S
C1112 H1103 0.929 . S
C1112 C1104 1.378 . S
C1112 C1107 1.350 . S
C1113 H1100 0.929 . S
C1113 C1105 1.433 . S
C1113 N1115 1.384 . S
N1114 C1110 1.427 . S
N1114 C1111 1.384 . S
N1115 C1107 1.427 . S
N1115 C1113 1.384 . S
H1116 C1122 0.930 . S
H1117 C1126 0.930 . S
H1118 C1131 0.929 . S
H1119 C1129 0.929 . S
H1120 C1124 0.929 . S
H1121 C1130 0.929 . S
C1122 H1116 0.930 . S
C1122 C1123 1.367 . S
C1122 C1130 1.378 . S
C1123 C1122 1.367 . S
C1123 C1131 1.433 . S
C1124 H1120 0.929 . S
C1124 C1126 1.378 . S
C1124 C1128 1.350 . S
C1125 C1128 1.463 . S
C1125 C1130 1.350 . S
C1125 N1133 1.427 . S
C1126 H1117 0.930 . S
C1126 C1124 1.378 . S
C1126 C1127 1.367 . S
C1127 C1126 1.367 . S
C1127 C1129 1.433 . S
C1128 C1124 1.350 . S
C1128 C1125 1.463 . S
C1128 N1132 1.427 . S
C1129 H1119 0.929 . S
C1129 C1127 1.433 . S
C1129 N1132 1.384 . S
C1130 H1121 0.929 . S
C1130 C1122 1.378 . S
C1130 C1125 1.350 . S
C1131 H1118 0.929 . S
C1131 C1123 1.433 . S
C1131 N1133 1.384 . S
N1132 C1128 1.427 . S
N1132 C1129 1.384 . S
N1133 C1125 1.427 . S
N1133 C1131 1.384 . S
H1134 C1140 0.930 . S
H1135 C1144 0.930 . S
H1136 C1149 0.929 . S
H1137 C1147 0.929 . S
H1138 C1142 0.929 . S
H1139 C1148 0.929 . S
C1140 H1134 0.930 . S
C1140 C1141 1.367 . S
C1140 C1148 1.378 . S
C1141 C1140 1.367 . S
C1141 C1149 1.433 . S
C1142 H1138 0.929 . S
C1142 C1144 1.378 . S
C1142 C1146 1.350 . S
C1143 C1146 1.463 . S
C1143 C1148 1.350 . S
C1143 N1151 1.427 . S
C1144 H1135 0.930 . S
C1144 C1142 1.378 . S
C1144 C1145 1.367 . S
C1145 C1144 1.367 . S
C1145 C1147 1.433 . S
C1146 C1142 1.350 . S
C1146 C1143 1.463 . S
C1146 N1150 1.427 . S
C1147 H1137 0.929 . S
C1147 C1145 1.433 . S
C1147 N1150 1.384 . S
C1148 H1139 0.929 . S
C1148 C1140 1.378 . S
C1148 C1143 1.350 . S
C1149 H1136 0.929 . S
C1149 C1141 1.433 . S
C1149 N1151 1.384 . S
N1150 C1146 1.427 . S
N1150 C1147 1.384 . S
N1151 C1143 1.427 . S
N1151 C1149 1.384 . S
H1152 C1158 0.930 . S
H1153 C1162 0.930 . S
H1154 C1167 0.929 . S
H1155 C1165 0.929 . S
H1156 C1160 0.929 . S
H1157 C1166 0.929 . S
C1158 H1152 0.930 . S
C1158 C1159 1.367 . S
C1158 C1166 1.378 . S
C1159 C1158 1.367 . S
C1159 C1167 1.433 . S
C1160 H1156 0.929 . S
C1160 C1162 1.378 . S
C1160 C1164 1.350 . S
C1161 C1164 1.463 . S
C1161 C1166 1.350 . S
C1161 N1169 1.427 . S
C1162 H1153 0.930 . S
C1162 C1160 1.378 . S
C1162 C1163 1.367 . S
C1163 C1162 1.367 . S
C1163 C1165 1.433 . S
C1164 C1160 1.350 . S
C1164 C1161 1.463 . S
C1164 N1168 1.427 . S
C1165 H1155 0.929 . S
C1165 C1163 1.433 . S
C1165 N1168 1.384 . S
C1166 H1157 0.929 . S
C1166 C1158 1.378 . S
C1166 C1161 1.350 . S
C1167 H1154 0.929 . S
C1167 C1159 1.433 . S
C1167 N1169 1.384 . S
N1168 C1164 1.427 . S
N1168 C1165 1.384 . S
N1169 C1161 1.427 . S
N1169 C1167 1.384 . S
H1170 C1176 0.930 . S
H1171 C1180 0.930 . S
H1172 C1185 0.929 . S
H1173 C1183 0.929 . S
H1174 C1178 0.929 . S
H1175 C1184 0.929 . S
C1176 H1170 0.930 . S
C1176 C1177 1.367 . S
C1176 C1184 1.378 . S
C1177 C1176 1.367 . S
C1177 C1185 1.433 . S
C1178 H1174 0.929 . S
C1178 C1180 1.378 . S
C1178 C1182 1.350 . S
C1179 C1182 1.463 . S
C1179 C1184 1.350 . S
C1179 N1187 1.427 . S
C1180 H1171 0.930 . S
C1180 C1178 1.378 . S
C1180 C1181 1.367 . S
C1181 C1180 1.367 . S
C1181 C1183 1.433 . S
C1182 C1178 1.350 . S
C1182 C1179 1.463 . S
C1182 N1186 1.427 . S
C1183 H1173 0.929 . S
C1183 C1181 1.433 . S
C1183 N1186 1.384 . S
C1184 H1175 0.929 . S
C1184 C1176 1.378 . S
C1184 C1179 1.350 . S
C1185 H1172 0.929 . S
C1185 C1177 1.433 . S
C1185 N1187 1.384 . S
N1186 C1182 1.427 . S
N1186 C1183 1.384 . S
N1187 C1179 1.427 . S
N1187 C1185 1.384 . S
H1188 C1194 0.930 . S
H1189 C1198 0.930 . S
H1190 C1203 0.929 . S
H1191 C1201 0.929 . S
H1192 C1196 0.929 . S
H1193 C1202 0.929 . S
C1194 H1188 0.930 . S
C1194 C1195 1.367 . S
C1194 C1202 1.378 . S
C1195 C1194 1.367 . S
C1195 C1203 1.433 . S
C1196 H1192 0.929 . S
C1196 C1198 1.378 . S
C1196 C1200 1.350 . S
C1197 C1200 1.463 . S
C1197 C1202 1.350 . S
C1197 N1205 1.427 . S
C1198 H1189 0.930 . S
C1198 C1196 1.378 . S
C1198 C1199 1.367 . S
C1199 C1198 1.367 . S
C1199 C1201 1.433 . S
C1200 C1196 1.350 . S
C1200 C1197 1.463 . S
C1200 N1204 1.427 . S
C1201 H1191 0.929 . S
C1201 C1199 1.433 . S
C1201 N1204 1.384 . S
C1202 H1193 0.929 . S
C1202 C1194 1.378 . S
C1202 C1197 1.350 . S
C1203 H1190 0.929 . S
C1203 C1195 1.433 . S
C1203 N1205 1.384 . S
N1204 C1200 1.427 . S
N1204 C1201 1.384 . S
N1205 C1197 1.427 . S
N1205 C1203 1.384 . S
H1206 C1212 0.930 . S
H1207 C1216 0.930 . S
H1208 C1221 0.929 . S
H1209 C1219 0.929 . S
H1210 C1214 0.929 . S
H1211 C1220 0.929 . S
C1212 H1206 0.930 . S
C1212 C1213 1.367 . S
C1212 C1220 1.378 . S
C1213 C1212 1.367 . S
C1213 C1221 1.433 . S
C1214 H1210 0.929 . S
C1214 C1216 1.378 . S
C1214 C1218 1.350 . S
C1215 C1218 1.463 . S
C1215 C1220 1.350 . S
C1215 N1223 1.427 . S
C1216 H1207 0.930 . S
C1216 C1214 1.378 . S
C1216 C1217 1.367 . S
C1217 C1216 1.367 . S
C1217 C1219 1.433 . S
C1218 C1214 1.350 . S
C1218 C1215 1.463 . S
C1218 N1222 1.427 . S
C1219 H1209 0.929 . S
C1219 C1217 1.433 . S
C1219 N1222 1.384 . S
C1220 H1211 0.929 . S
C1220 C1212 1.378 . S
C1220 C1215 1.350 . S
C1221 H1208 0.929 . S
C1221 C1213 1.433 . S
C1221 N1223 1.384 . S
N1222 C1218 1.427 . S
N1222 C1219 1.384 . S
N1223 C1215 1.427 . S
N1223 C1221 1.384 . S
H1224 C1230 0.930 . S
H1225 C1234 0.930 . S
H1226 C1239 0.929 . S
H1227 C1237 0.929 . S
H1228 C1232 0.929 . S
H1229 C1238 0.929 . S
C1230 H1224 0.930 . S
C1230 C1231 1.367 . S
C1230 C1238 1.378 . S
C1231 C1230 1.367 . S
C1231 C1239 1.433 . S
C1232 H1228 0.929 . S
C1232 C1234 1.378 . S
C1232 C1236 1.350 . S
C1233 C1236 1.463 . S
C1233 C1238 1.350 . S
C1233 N1241 1.427 . S
C1234 H1225 0.930 . S
C1234 C1232 1.378 . S
C1234 C1235 1.367 . S
C1235 C1234 1.367 . S
C1235 C1237 1.433 . S
C1236 C1232 1.350 . S
C1236 C1233 1.463 . S
C1236 N1240 1.427 . S
C1237 H1227 0.929 . S
C1237 C1235 1.433 . S
C1237 N1240 1.384 . S
C1238 H1229 0.929 . S
C1238 C1230 1.378 . S
C1238 C1233 1.350 . S
C1239 H1226 0.929 . S
C1239 C1231 1.433 . S
C1239 N1241 1.384 . S
N1240 C1236 1.427 . S
N1240 C1237 1.384 . S
N1241 C1233 1.427 . S
N1241 C1239 1.384 . S
H1242 C1248 0.930 . S
H1243 C1252 0.930 . S
H1244 C1257 0.929 . S
H1245 C1255 0.929 . S
H1246 C1250 0.929 . S
H1247 C1256 0.929 . S
C1248 H1242 0.930 . S
C1248 C1249 1.367 . S
C1248 C1256 1.378 . S
C1249 C1248 1.367 . S
C1249 C1257 1.433 . S
C1250 H1246 0.929 . S
C1250 C1252 1.378 . S
C1250 C1254 1.350 . S
C1251 C1254 1.463 . S
C1251 C1256 1.350 . S
C1251 N1259 1.427 . S
C1252 H1243 0.930 . S
C1252 C1250 1.378 . S
C1252 C1253 1.367 . S
C1253 C1252 1.367 . S
C1253 C1255 1.433 . S
C1254 C1250 1.350 . S
C1254 C1251 1.463 . S
C1254 N1258 1.427 . S
C1255 H1245 0.929 . S
C1255 C1253 1.433 . S
C1255 N1258 1.384 . S
C1256 H1247 0.929 . S
C1256 C1248 1.378 . S
C1256 C1251 1.350 . S
C1257 H1244 0.929 . S
C1257 C1249 1.433 . S
C1257 N1259 1.384 . S
N1258 C1254 1.427 . S
N1258 C1255 1.384 . S
N1259 C1251 1.427 . S
N1259 C1257 1.384 . S
H1260 C1266 0.930 . S
H1261 C1270 0.930 . S
H1262 C1275 0.929 . S
H1263 C1273 0.929 . S
H1264 C1268 0.929 . S
H1265 C1274 0.929 . S
C1266 H1260 0.930 . S
C1266 C1267 1.367 . S
C1266 C1274 1.378 . S
C1267 C1266 1.367 . S
C1267 C1275 1.433 . S
C1268 H1264 0.929 . S
C1268 C1270 1.378 . S
C1268 C1272 1.350 . S
C1269 C1272 1.463 . S
C1269 C1274 1.350 . S
C1269 N1277 1.427 . S
C1270 H1261 0.930 . S
C1270 C1268 1.378 . S
C1270 C1271 1.367 . S
C1271 C1270 1.367 . S
C1271 C1273 1.433 . S
C1272 C1268 1.350 . S
C1272 C1269 1.463 . S
C1272 N1276 1.427 . S
C1273 H1263 0.929 . S
C1273 C1271 1.433 . S
C1273 N1276 1.384 . S
C1274 H1265 0.929 . S
C1274 C1266 1.378 . S
C1274 C1269 1.350 . S
C1275 H1262 0.929 . S
C1275 C1267 1.433 . S
C1275 N1277 1.384 . S
N1276 C1272 1.427 . S
N1276 C1273 1.384 . S
N1277 C1269 1.427 . S
N1277 C1275 1.384 . S
H1278 C1284 0.930 . S
H1279 C1288 0.930 . S
H1280 C1293 0.929 . S
H1281 C1291 0.929 . S
H1282 C1286 0.929 . S
H1283 C1292 0.929 . S
C1284 H1278 0.930 . S
C1284 C1285 1.367 . S
C1284 C1292 1.378 . S
C1285 C1284 1.367 . S
C1285 C1293 1.433 . S
C1286 H1282 0.929 . S
C1286 C1288 1.378 . S
C1286 C1290 1.350 . S
C1287 C1290 1.463 . S
C1287 C1292 1.350 . S
C1287 N1295 1.427 . S
C1288 H1279 0.930 . S
C1288 C1286 1.378 . S
C1288 C1289 1.367 . S
C1289 C1288 1.367 . S
C1289 C1291 1.433 . S
C1290 C1286 1.350 . S
C1290 C1287 1.463 . S
C1290 N1294 1.427 . S
C1291 H1281 0.929 . S
C1291 C1289 1.433 . S
C1291 N1294 1.384 . S
C1292 H1283 0.929 . S
C1292 C1284 1.378 . S
C1292 C1287 1.350 . S
C1293 H1280 0.929 . S
C1293 C1285 1.433 . S
C1293 N1295 1.384 . S
N1294 C1290 1.427 . S
N1294 C1291 1.384 . S
N1295 C1287 1.427 . S
N1295 C1293 1.384 . S
H1296 C1302 0.930 . S
H1297 C1306 0.930 . S
H1298 C1311 0.929 . S
H1299 C1309 0.929 . S
H1300 C1304 0.929 . S
H1301 C1310 0.929 . S
C1302 H1296 0.930 . S
C1302 C1303 1.367 . S
C1302 C1310 1.378 . S
C1303 C1302 1.367 . S
C1303 C1311 1.433 . S
C1304 H1300 0.929 . S
C1304 C1306 1.378 . S
C1304 C1308 1.350 . S
C1305 C1308 1.463 . S
C1305 C1310 1.350 . S
C1305 N1313 1.427 . S
C1306 H1297 0.930 . S
C1306 C1304 1.378 . S
C1306 C1307 1.367 . S
C1307 C1306 1.367 . S
C1307 C1309 1.433 . S
C1308 C1304 1.350 . S
C1308 C1305 1.463 . S
C1308 N1312 1.427 . S
C1309 H1299 0.929 . S
C1309 C1307 1.433 . S
C1309 N1312 1.384 . S
C1310 H1301 0.929 . S
C1310 C1302 1.378 . S
C1310 C1305 1.350 . S
C1311 H1298 0.929 . S
C1311 C1303 1.433 . S
C1311 N1313 1.384 . S
N1312 C1308 1.427 . S
N1312 C1309 1.384 . S
N1313 C1305 1.427 . S
N1313 C1311 1.384 . S
H1314 C1320 0.930 . S
H1315 C1324 0.930 . S
H1316 C1329 0.929 . S
H1317 C1327 0.929 . S
H1318 C1322 0.929 . S
H1319 C1328 0.929 . S
C1320 H1314 0.930 . S
C1320 C1321 1.367 . S
C1320 C1328 1.378 . S
C1321 C1320 1.367 . S
C1321 C1329 1.433 . S
C1322 H1318 0.929 . S
C1322 C1324 1.378 . S
C1322 C1326 1.350 . S
C1323 C1326 1.463 . S
C1323 C1328 1.350 . S
C1323 N1331 1.427 . S
C1324 H1315 0.930 . S
C1324 C1322 1.378 . S
C1324 C1325 1.367 . S
C1325 C1324 1.367 . S
C1325 C1327 1.433 . S
C1326 C1322 1.350 . S
C1326 C1323 1.463 . S
C1326 N1330 1.427 . S
C1327 H1317 0.929 . S
C1327 C1325 1.433 . S
C1327 N1330 1.384 . S
C1328 H1319 0.929 . S
C1328 C1320 1.378 . S
C1328 C1323 1.350 . S
C1329 H1316 0.929 . S
C1329 C1321 1.433 . S
C1329 N1331 1.384 . S
N1330 C1326 1.427 . S
N1330 C1327 1.384 . S
N1331 C1323 1.427 . S
N1331 C1329 1.384 . S
H1332 C1338 0.930 . S
H1333 C1342 0.930 . S
H1334 C1347 0.929 . S
H1335 C1345 0.929 . S
H1336 C1340 0.929 . S
H1337 C1346 0.929 . S
C1338 H1332 0.930 . S
C1338 C1339 1.367 . S
C1338 C1346 1.378 . S
C1339 C1338 1.367 . S
C1339 C1347 1.433 . S
C1340 H1336 0.929 . S
C1340 C1342 1.378 . S
C1340 C1344 1.350 . S
C1341 C1344 1.463 . S
C1341 C1346 1.350 . S
C1341 N1349 1.427 . S
C1342 H1333 0.930 . S
C1342 C1340 1.378 . S
C1342 C1343 1.367 . S
C1343 C1342 1.367 . S
C1343 C1345 1.433 . S
C1344 C1340 1.350 . S
C1344 C1341 1.463 . S
C1344 N1348 1.427 . S
C1345 H1335 0.929 . S
C1345 C1343 1.433 . S
C1345 N1348 1.384 . S
C1346 H1337 0.929 . S
C1346 C1338 1.378 . S
C1346 C1341 1.350 . S
C1347 H1334 0.929 . S
C1347 C1339 1.433 . S
C1347 N1349 1.384 . S
N1348 C1344 1.427 . S
N1348 C1345 1.384 . S
N1349 C1341 1.427 . S
N1349 C1347 1.384 . S
H1350 C1356 0.930 . S
H1351 C1360 0.930 . S
H1352 C1365 0.929 . S
H1353 C1363 0.929 . S
H1354 C1358 0.929 . S
H1355 C1364 0.929 . S
C1356 H1350 0.930 . S
C1356 C1357 1.367 . S
C1356 C1364 1.378 . S
C1357 C1356 1.367 . S
C1357 C1365 1.433 . S
C1358 H1354 0.929 . S
C1358 C1360 1.378 . S
C1358 C1362 1.350 . S
C1359 C1362 1.463 . S
C1359 C1364 1.350 . S
C1359 N1367 1.427 . S
C1360 H1351 0.930 . S
C1360 C1358 1.378 . S
C1360 C1361 1.367 . S
C1361 C1360 1.367 . S
C1361 C1363 1.433 . S
C1362 C1358 1.350 . S
C1362 C1359 1.463 . S
C1362 N1366 1.427 . S
C1363 H1353 0.929 . S
C1363 C1361 1.433 . S
C1363 N1366 1.384 . S
C1364 H1355 0.929 . S
C1364 C1356 1.378 . S
C1364 C1359 1.350 . S
C1365 H1352 0.929 . S
C1365 C1357 1.433 . S
C1365 N1367 1.384 . S
N1366 C1362 1.427 . S
N1366 C1363 1.384 . S
N1367 C1359 1.427 . S
N1367 C1365 1.384 . S
H1368 C1374 0.930 . S
H1369 C1378 0.930 . S
H1370 C1383 0.929 . S
H1371 C1381 0.929 . S
H1372 C1376 0.929 . S
H1373 C1382 0.929 . S
C1374 H1368 0.930 . S
C1374 C1375 1.367 . S
C1374 C1382 1.378 . S
C1375 C1374 1.367 . S
C1375 C1383 1.433 . S
C1376 H1372 0.929 . S
C1376 C1378 1.378 . S
C1376 C1380 1.350 . S
C1377 C1380 1.463 1_455 S
C1377 C1382 1.350 . S
C1377 N1385 1.427 . S
C1378 H1369 0.930 . S
C1378 C1376 1.378 . S
C1378 C1379 1.367 . S
C1379 C1378 1.367 . S
C1379 C1381 1.433 . S
C1380 C1376 1.350 . S
C1380 C1377 1.463 1_655 S
C1380 N1384 1.427 . S
C1381 H1371 0.929 . S
C1381 C1379 1.433 . S
C1381 N1384 1.384 . S
C1382 H1373 0.929 . S
C1382 C1374 1.378 . S
C1382 C1377 1.350 . S
C1383 H1370 0.929 . S
C1383 C1375 1.433 . S
C1383 N1385 1.384 . S
N1384 C1380 1.427 . S
N1384 C1381 1.384 . S
N1385 C1377 1.427 . S
N1385 C1383 1.384 . S
H1386 C1392 0.930 . S
H1387 C1396 0.930 . S
H1388 C1401 0.929 . S
H1389 C1399 0.929 . S
H1390 C1394 0.929 . S
H1391 C1400 0.929 . S
C1392 H1386 0.930 . S
C1392 C1393 1.367 . S
C1392 C1400 1.378 . S
C1393 C1392 1.367 . S
C1393 C1401 1.433 . S
C1394 H1390 0.929 . S
C1394 C1396 1.378 . S
C1394 C1398 1.350 . S
C1395 C1398 1.463 . S
C1395 C1400 1.350 . S
C1395 N1403 1.427 . S
C1396 H1387 0.930 . S
C1396 C1394 1.378 . S
C1396 C1397 1.367 . S
C1397 C1396 1.367 . S
C1397 C1399 1.433 . S
C1398 C1394 1.350 . S
C1398 C1395 1.463 . S
C1398 N1402 1.427 . S
C1399 H1389 0.929 . S
C1399 C1397 1.433 . S
C1399 N1402 1.384 . S
C1400 H1391 0.929 . S
C1400 C1392 1.378 . S
C1400 C1395 1.350 . S
C1401 H1388 0.929 . S
C1401 C1393 1.433 . S
C1401 N1403 1.384 . S
N1402 C1398 1.427 . S
N1402 C1399 1.384 . S
N1403 C1395 1.427 . S
N1403 C1401 1.384 . S
H1404 C1410 0.930 . S
H1405 C1414 0.930 . S
H1406 C1419 0.929 . S
H1407 C1417 0.929 . S
H1408 C1412 0.929 . S
H1409 C1418 0.929 . S
C1410 H1404 0.930 . S
C1410 C1411 1.367 . S
C1410 C1418 1.378 . S
C1411 C1410 1.367 . S
C1411 C1419 1.433 . S
C1412 H1408 0.929 . S
C1412 C1414 1.378 . S
C1412 C1416 1.350 . S
C1413 C1416 1.463 1_545 S
C1413 C1418 1.350 . S
C1413 N1421 1.427 . S
C1414 H1405 0.930 . S
C1414 C1412 1.378 . S
C1414 C1415 1.367 . S
C1415 C1414 1.367 . S
C1415 C1417 1.433 . S
C1416 C1412 1.350 . S
C1416 C1413 1.463 1_565 S
C1416 N1420 1.427 . S
C1417 H1407 0.929 . S
C1417 C1415 1.433 . S
C1417 N1420 1.384 . S
C1418 H1409 0.929 . S
C1418 C1410 1.378 . S
C1418 C1413 1.350 . S
C1419 H1406 0.929 . S
C1419 C1411 1.433 . S
C1419 N1421 1.384 . S
N1420 C1416 1.427 . S
N1420 C1417 1.384 . S
N1421 C1413 1.427 . S
N1421 C1419 1.384 . S
H1422 C1428 0.930 . S
H1423 C1432 0.930 . S
H1424 C1437 0.929 . S
H1425 C1435 0.929 . S
H1426 C1430 0.929 . S
H1427 C1436 0.929 . S
C1428 H1422 0.930 . S
C1428 C1429 1.367 . S
C1428 C1436 1.378 . S
C1429 C1428 1.367 . S
C1429 C1437 1.433 . S
C1430 H1426 0.929 . S
C1430 C1432 1.378 . S
C1430 C1434 1.350 . S
C1431 C1434 1.463 1_545 S
C1431 C1436 1.350 . S
C1431 N1439 1.427 . S
C1432 H1423 0.930 . S
C1432 C1430 1.378 . S
C1432 C1433 1.367 . S
C1433 C1432 1.367 . S
C1433 C1435 1.433 . S
C1434 C1430 1.350 . S
C1434 C1431 1.463 1_565 S
C1434 N1438 1.427 . S
C1435 H1425 0.929 . S
C1435 C1433 1.433 . S
C1435 N1438 1.384 . S
C1436 H1427 0.929 . S
C1436 C1428 1.378 . S
C1436 C1431 1.350 . S
C1437 H1424 0.929 . S
C1437 C1429 1.433 . S
C1437 N1439 1.384 . S
N1438 C1434 1.427 . S
N1438 C1435 1.384 . S
N1439 C1431 1.427 . S
N1439 C1437 1.384 . S
H1440 C1446 0.930 . S
H1441 C1450 0.930 . S
H1442 C1455 0.929 . S
H1443 C1453 0.929 . S
H1444 C1448 0.929 . S
H1445 C1454 0.929 . S
C1446 H1440 0.930 . S
C1446 C1447 1.367 . S
C1446 C1454 1.378 . S
C1447 C1446 1.367 . S
C1447 C1455 1.433 . S
C1448 H1444 0.929 . S
C1448 C1450 1.378 . S
C1448 C1452 1.350 . S
C1449 C1452 1.463 1_655 S
C1449 C1454 1.350 . S
C1449 N1457 1.427 . S
C1450 H1441 0.930 . S
C1450 C1448 1.378 . S
C1450 C1451 1.367 . S
C1451 C1450 1.367 . S
C1451 C1453 1.433 . S
C1452 C1448 1.350 . S
C1452 C1449 1.463 1_455 S
C1452 N1456 1.427 . S
C1453 H1443 0.929 . S
C1453 C1451 1.433 . S
C1453 N1456 1.384 . S
C1454 H1445 0.929 . S
C1454 C1446 1.378 . S
C1454 C1449 1.350 . S
C1455 H1442 0.929 . S
C1455 C1447 1.433 . S
C1455 N1457 1.384 . S
N1456 C1452 1.427 . S
N1456 C1453 1.384 . S
N1457 C1449 1.427 . S
N1457 C1455 1.384 . S
H1458 C1464 0.930 . S
H1459 C1468 0.930 . S
H1460 C1473 0.929 . S
H1461 C1471 0.929 . S
H1462 C1466 0.929 . S
H1463 C1472 0.929 . S
C1464 H1458 0.930 . S
C1464 C1465 1.367 . S
C1464 C1472 1.378 . S
C1465 C1464 1.367 . S
C1465 C1473 1.433 . S
C1466 H1462 0.929 . S
C1466 C1468 1.378 . S
C1466 C1470 1.350 . S
C1467 C1470 1.463 . S
C1467 C1472 1.350 . S
C1467 N1475 1.427 . S
C1468 H1459 0.930 . S
C1468 C1466 1.378 . S
C1468 C1469 1.367 . S
C1469 C1468 1.367 . S
C1469 C1471 1.433 . S
C1470 C1466 1.350 . S
C1470 C1467 1.463 . S
C1470 N1474 1.427 . S
C1471 H1461 0.929 . S
C1471 C1469 1.433 . S
C1471 N1474 1.384 . S
C1472 H1463 0.929 . S
C1472 C1464 1.378 . S
C1472 C1467 1.350 . S
C1473 H1460 0.929 . S
C1473 C1465 1.433 . S
C1473 N1475 1.384 . S
N1474 C1470 1.427 . S
N1474 C1471 1.384 . S
N1475 C1467 1.427 . S
N1475 C1473 1.384 . S
H1476 C1482 0.930 . S
H1477 C1486 0.930 . S
H1478 C1491 0.929 . S
H1479 C1489 0.929 . S
H1480 C1484 0.929 . S
H1481 C1490 0.929 . S
C1482 H1476 0.930 . S
C1482 C1483 1.367 . S
C1482 C1490 1.378 . S
C1483 C1482 1.367 . S
C1483 C1491 1.433 . S
C1484 H1480 0.929 . S
C1484 C1486 1.378 . S
C1484 C1488 1.350 . S
C1485 C1488 1.463 . S
C1485 C1490 1.350 . S
C1485 N1493 1.427 . S
C1486 H1477 0.930 . S
C1486 C1484 1.378 . S
C1486 C1487 1.367 . S
C1487 C1486 1.367 . S
C1487 C1489 1.433 . S
C1488 C1484 1.350 . S
C1488 C1485 1.463 . S
C1488 N1492 1.427 . S
C1489 H1479 0.929 . S
C1489 C1487 1.433 . S
C1489 N1492 1.384 . S
C1490 H1481 0.929 . S
C1490 C1482 1.378 . S
C1490 C1485 1.350 . S
C1491 H1478 0.929 . S
C1491 C1483 1.433 . S
C1491 N1493 1.384 . S
N1492 C1488 1.427 . S
N1492 C1489 1.384 . S
N1493 C1485 1.427 . S
N1493 C1491 1.384 . S
H1494 C1500 0.930 . S
H1495 C1504 0.930 . S
H1496 C1509 0.929 . S
H1497 C1507 0.929 . S
H1498 C1502 0.929 . S
H1499 C1508 0.929 . S
C1500 H1494 0.930 . S
C1500 C1501 1.367 . S
C1500 C1508 1.378 . S
C1501 C1500 1.367 . S
C1501 C1509 1.433 . S
C1502 H1498 0.929 . S
C1502 C1504 1.378 . S
C1502 C1506 1.350 . S
C1503 C1506 1.463 . S
C1503 C1508 1.350 . S
C1503 N1511 1.427 . S
C1504 H1495 0.930 . S
C1504 C1502 1.378 . S
C1504 C1505 1.367 . S
C1505 C1504 1.367 . S
C1505 C1507 1.433 . S
C1506 C1502 1.350 . S
C1506 C1503 1.463 . S
C1506 N1510 1.427 . S
C1507 H1497 0.929 . S
C1507 C1505 1.433 . S
C1507 N1510 1.384 . S
C1508 H1499 0.929 . S
C1508 C1500 1.378 . S
C1508 C1503 1.350 . S
C1509 H1496 0.929 . S
C1509 C1501 1.433 . S
C1509 N1511 1.384 . S
N1510 C1506 1.427 . S
N1510 C1507 1.384 . S
N1511 C1503 1.427 . S
N1511 C1509 1.384 . S
H1512 C1518 0.930 . S
H1513 C1522 0.930 . S
H1514 C1527 0.929 . S
H1515 C1525 0.929 . S
H1516 C1520 0.929 . S
H1517 C1526 0.929 . S
C1518 H1512 0.930 . S
C1518 C1519 1.367 . S
C1518 C1526 1.378 . S
C1519 C1518 1.367 . S
C1519 C1527 1.433 . S
C1520 H1516 0.929 . S
C1520 C1522 1.378 . S
C1520 C1524 1.350 . S
C1521 C1524 1.463 . S
C1521 C1526 1.350 . S
C1521 N1529 1.427 . S
C1522 H1513 0.930 . S
C1522 C1520 1.378 . S
C1522 C1523 1.367 . S
C1523 C1522 1.367 . S
C1523 C1525 1.433 . S
C1524 C1520 1.350 . S
C1524 C1521 1.463 . S
C1524 N1528 1.427 . S
C1525 H1515 0.929 . S
C1525 C1523 1.433 . S
C1525 N1528 1.384 . S
C1526 H1517 0.929 . S
C1526 C1518 1.378 . S
C1526 C1521 1.350 . S
C1527 H1514 0.929 . S
C1527 C1519 1.433 . S
C1527 N1529 1.384 . S
N1528 C1524 1.427 . S
N1528 C1525 1.384 . S
N1529 C1521 1.427 . S
N1529 C1527 1.384 . S
H1530 C1536 0.930 . S
H1531 C1540 0.930 . S
H1532 C1545 0.929 . S
H1533 C1543 0.929 . S
H1534 C1538 0.929 . S
H1535 C1544 0.929 . S
C1536 H1530 0.930 . S
C1536 C1537 1.367 . S
C1536 C1544 1.378 . S
C1537 C1536 1.367 . S
C1537 C1545 1.433 . S
C1538 H1534 0.929 . S
C1538 C1540 1.378 . S
C1538 C1542 1.350 . S
C1539 C1542 1.463 . S
C1539 C1544 1.350 . S
C1539 N1547 1.427 . S
C1540 H1531 0.930 . S
C1540 C1538 1.378 . S
C1540 C1541 1.367 . S
C1541 C1540 1.367 . S
C1541 C1543 1.433 . S
C1542 C1538 1.350 . S
C1542 C1539 1.463 . S
C1542 N1546 1.427 . S
C1543 H1533 0.929 . S
C1543 C1541 1.433 . S
C1543 N1546 1.384 . S
C1544 H1535 0.929 . S
C1544 C1536 1.378 . S
C1544 C1539 1.350 . S
C1545 H1532 0.929 . S
C1545 C1537 1.433 . S
C1545 N1547 1.384 . S
N1546 C1542 1.427 . S
N1546 C1543 1.384 . S
N1547 C1539 1.427 . S
N1547 C1545 1.384 . S
H1548 C1554 0.930 . S
H1549 C1558 0.930 . S
H1550 C1563 0.929 . S
H1551 C1561 0.929 . S
H1552 C1556 0.929 . S
H1553 C1562 0.929 . S
C1554 H1548 0.930 . S
C1554 C1555 1.367 . S
C1554 C1562 1.378 . S
C1555 C1554 1.367 . S
C1555 C1563 1.433 . S
C1556 H1552 0.929 . S
C1556 C1558 1.378 . S
C1556 C1560 1.350 . S
C1557 C1560 1.463 . S
C1557 C1562 1.350 . S
C1557 N1565 1.427 . S
C1558 H1549 0.930 . S
C1558 C1556 1.378 . S
C1558 C1559 1.367 . S
C1559 C1558 1.367 . S
C1559 C1561 1.433 . S
C1560 C1556 1.350 . S
C1560 C1557 1.463 . S
C1560 N1564 1.427 . S
C1561 H1551 0.929 . S
C1561 C1559 1.433 . S
C1561 N1564 1.384 . S
C1562 H1553 0.929 . S
C1562 C1554 1.378 . S
C1562 C1557 1.350 . S
C1563 H1550 0.929 . S
C1563 C1555 1.433 . S
C1563 N1565 1.384 . S
N1564 C1560 1.427 . S
N1564 C1561 1.384 . S
N1565 C1557 1.427 . S
N1565 C1563 1.384 . S
H1566 C1572 0.930 . S
H1567 C1576 0.930 . S
H1568 C1581 0.929 . S
H1569 C1579 0.929 . S
H1570 C1574 0.929 . S
H1571 C1580 0.929 . S
C1572 H1566 0.930 . S
C1572 C1573 1.367 . S
C1572 C1580 1.378 . S
C1573 C1572 1.367 . S
C1573 C1581 1.433 . S
C1574 H1570 0.929 . S
C1574 C1576 1.378 . S
C1574 C1578 1.350 . S
C1575 C1578 1.463 . S
C1575 C1580 1.350 . S
C1575 N1583 1.427 . S
C1576 H1567 0.930 . S
C1576 C1574 1.378 . S
C1576 C1577 1.367 . S
C1577 C1576 1.367 . S
C1577 C1579 1.433 . S
C1578 C1574 1.350 . S
C1578 C1575 1.463 . S
C1578 N1582 1.427 . S
C1579 H1569 0.929 . S
C1579 C1577 1.433 . S
C1579 N1582 1.384 . S
C1580 H1571 0.929 . S
C1580 C1572 1.378 . S
C1580 C1575 1.350 . S
C1581 H1568 0.929 . S
C1581 C1573 1.433 . S
C1581 N1583 1.384 . S
N1582 C1578 1.427 . S
N1582 C1579 1.384 . S
N1583 C1575 1.427 . S
N1583 C1581 1.384 . S
H1584 C1590 0.930 . S
H1585 C1594 0.930 . S
H1586 C1599 0.929 . S
H1587 C1597 0.929 . S
H1588 C1592 0.929 . S
H1589 C1598 0.929 . S
C1590 H1584 0.930 . S
C1590 C1591 1.367 . S
C1590 C1598 1.378 . S
C1591 C1590 1.367 . S
C1591 C1599 1.433 . S
C1592 H1588 0.929 . S
C1592 C1594 1.378 . S
C1592 C1596 1.350 . S
C1593 C1596 1.463 . S
C1593 C1598 1.350 . S
C1593 N1601 1.427 . S
C1594 H1585 0.930 . S
C1594 C1592 1.378 . S
C1594 C1595 1.367 . S
C1595 C1594 1.367 . S
C1595 C1597 1.433 . S
C1596 C1592 1.350 . S
C1596 C1593 1.463 . S
C1596 N1600 1.427 . S
C1597 H1587 0.929 . S
C1597 C1595 1.433 . S
C1597 N1600 1.384 . S
C1598 H1589 0.929 . S
C1598 C1590 1.378 . S
C1598 C1593 1.350 . S
C1599 H1586 0.929 . S
C1599 C1591 1.433 . S
C1599 N1601 1.384 . S
N1600 C1596 1.427 . S
N1600 C1597 1.384 . S
N1601 C1593 1.427 . S
N1601 C1599 1.384 . S
H1602 C1608 0.930 . S
H1603 C1612 0.930 . S
H1604 C1617 0.929 . S
H1605 C1615 0.929 . S
H1606 C1610 0.929 . S
H1607 C1616 0.929 . S
C1608 H1602 0.930 . S
C1608 C1609 1.367 . S
C1608 C1616 1.378 . S
C1609 C1608 1.367 . S
C1609 C1617 1.433 . S
C1610 H1606 0.929 . S
C1610 C1612 1.378 . S
C1610 C1614 1.350 . S
C1611 C1614 1.463 . S
C1611 C1616 1.350 . S
C1611 N1619 1.427 . S
C1612 H1603 0.930 . S
C1612 C1610 1.378 . S
C1612 C1613 1.367 . S
C1613 C1612 1.367 . S
C1613 C1615 1.433 . S
C1614 C1610 1.350 . S
C1614 C1611 1.463 . S
C1614 N1618 1.427 . S
C1615 H1605 0.929 . S
C1615 C1613 1.433 . S
C1615 N1618 1.384 . S
C1616 H1607 0.929 . S
C1616 C1608 1.378 . S
C1616 C1611 1.350 . S
C1617 H1604 0.929 . S
C1617 C1609 1.433 . S
C1617 N1619 1.384 . S
N1618 C1614 1.427 . S
N1618 C1615 1.384 . S
N1619 C1611 1.427 . S
N1619 C1617 1.384 . S
H1620 C1626 0.930 . S
H1621 C1630 0.930 . S
H1622 C1635 0.929 . S
H1623 C1633 0.929 . S
H1624 C1628 0.929 . S
H1625 C1634 0.929 . S
C1626 H1620 0.930 . S
C1626 C1627 1.367 . S
C1626 C1634 1.378 . S
C1627 C1626 1.367 . S
C1627 C1635 1.433 . S
C1628 H1624 0.929 . S
C1628 C1630 1.378 . S
C1628 C1632 1.350 . S
C1629 C1632 1.463 . S
C1629 C1634 1.350 . S
C1629 N1637 1.427 . S
C1630 H1621 0.930 . S
C1630 C1628 1.378 . S
C1630 C1631 1.367 . S
C1631 C1630 1.367 . S
C1631 C1633 1.433 . S
C1632 C1628 1.350 . S
C1632 C1629 1.463 . S
C1632 N1636 1.427 . S
C1633 H1623 0.929 . S
C1633 C1631 1.433 . S
C1633 N1636 1.384 . S
C1634 H1625 0.929 . S
C1634 C1626 1.378 . S
C1634 C1629 1.350 . S
C1635 H1622 0.929 . S
C1635 C1627 1.433 . S
C1635 N1637 1.384 . S
N1636 C1632 1.427 . S
N1636 C1633 1.384 . S
N1637 C1629 1.427 . S
N1637 C1635 1.384 . S
H1638 C1644 0.930 . S
H1639 C1648 0.930 . S
H1640 C1653 0.929 . S
H1641 C1651 0.929 . S
H1642 C1646 0.929 . S
H1643 C1652 0.929 . S
C1644 H1638 0.930 . S
C1644 C1645 1.367 . S
C1644 C1652 1.378 . S
C1645 C1644 1.367 . S
C1645 C1653 1.433 . S
C1646 H1642 0.929 . S
C1646 C1648 1.378 . S
C1646 C1650 1.350 . S
C1647 C1650 1.463 . S
C1647 C1652 1.350 . S
C1647 N1655 1.427 . S
C1648 H1639 0.930 . S
C1648 C1646 1.378 . S
C1648 C1649 1.367 . S
C1649 C1648 1.367 . S
C1649 C1651 1.433 . S
C1650 C1646 1.350 . S
C1650 C1647 1.463 . S
C1650 N1654 1.427 . S
C1651 H1641 0.929 . S
C1651 C1649 1.433 . S
C1651 N1654 1.384 . S
C1652 H1643 0.929 . S
C1652 C1644 1.378 . S
C1652 C1647 1.350 . S
C1653 H1640 0.929 . S
C1653 C1645 1.433 . S
C1653 N1655 1.384 . S
N1654 C1650 1.427 . S
N1654 C1651 1.384 . S
N1655 C1647 1.427 . S
N1655 C1653 1.384 . S
H1656 C1662 0.930 . S
H1657 C1666 0.930 . S
H1658 C1671 0.929 . S
H1659 C1669 0.929 . S
H1660 C1664 0.929 . S
H1661 C1670 0.929 . S
C1662 H1656 0.930 . S
C1662 C1663 1.367 . S
C1662 C1670 1.378 . S
C1663 C1662 1.367 . S
C1663 C1671 1.433 . S
C1664 H1660 0.929 . S
C1664 C1666 1.378 . S
C1664 C1668 1.350 . S
C1665 C1668 1.463 . S
C1665 C1670 1.350 . S
C1665 N1673 1.427 . S
C1666 H1657 0.930 . S
C1666 C1664 1.378 . S
C1666 C1667 1.367 . S
C1667 C1666 1.367 . S
C1667 C1669 1.433 . S
C1668 C1664 1.350 . S
C1668 C1665 1.463 . S
C1668 N1672 1.427 . S
C1669 H1659 0.929 . S
C1669 C1667 1.433 . S
C1669 N1672 1.384 . S
C1670 H1661 0.929 . S
C1670 C1662 1.378 . S
C1670 C1665 1.350 . S
C1671 H1658 0.929 . S
C1671 C1663 1.433 . S
C1671 N1673 1.384 . S
N1672 C1668 1.427 . S
N1672 C1669 1.384 . S
N1673 C1665 1.427 . S
N1673 C1671 1.384 . S
H1674 C1680 0.930 . S
H1675 C1684 0.930 . S
H1676 C1689 0.929 . S
H1677 C1687 0.929 . S
H1678 C1682 0.929 . S
H1679 C1688 0.929 . S
C1680 H1674 0.930 . S
C1680 C1681 1.367 . S
C1680 C1688 1.378 . S
C1681 C1680 1.367 . S
C1681 C1689 1.433 . S
C1682 H1678 0.929 . S
C1682 C1684 1.378 . S
C1682 C1686 1.350 . S
C1683 C1686 1.463 . S
C1683 C1688 1.350 . S
C1683 N1691 1.427 . S
C1684 H1675 0.930 . S
C1684 C1682 1.378 . S
C1684 C1685 1.367 . S
C1685 C1684 1.367 . S
C1685 C1687 1.433 . S
C1686 C1682 1.350 . S
C1686 C1683 1.463 . S
C1686 N1690 1.427 . S
C1687 H1677 0.929 . S
C1687 C1685 1.433 . S
C1687 N1690 1.384 . S
C1688 H1679 0.929 . S
C1688 C1680 1.378 . S
C1688 C1683 1.350 . S
C1689 H1676 0.929 . S
C1689 C1681 1.433 . S
C1689 N1691 1.384 . S
N1690 C1686 1.427 . S
N1690 C1687 1.384 . S
N1691 C1683 1.427 . S
N1691 C1689 1.384 . S
H1692 C1698 0.930 . S
H1693 C1702 0.930 . S
H1694 C1707 0.929 . S
H1695 C1705 0.929 . S
H1696 C1700 0.929 . S
H1697 C1706 0.929 . S
C1698 H1692 0.930 . S
C1698 C1699 1.367 . S
C1698 C1706 1.378 . S
C1699 C1698 1.367 . S
C1699 C1707 1.433 . S
C1700 H1696 0.929 . S
C1700 C1702 1.378 . S
C1700 C1704 1.350 . S
C1701 C1704 1.463 . S
C1701 C1706 1.350 . S
C1701 N1709 1.427 . S
C1702 H1693 0.930 . S
C1702 C1700 1.378 . S
C1702 C1703 1.367 . S
C1703 C1702 1.367 . S
C1703 C1705 1.433 . S
C1704 C1700 1.350 . S
C1704 C1701 1.463 . S
C1704 N1708 1.427 . S
C1705 H1695 0.929 . S
C1705 C1703 1.433 . S
C1705 N1708 1.384 . S
C1706 H1697 0.929 . S
C1706 C1698 1.378 . S
C1706 C1701 1.350 . S
C1707 H1694 0.929 . S
C1707 C1699 1.433 . S
C1707 N1709 1.384 . S
N1708 C1704 1.427 . S
N1708 C1705 1.384 . S
N1709 C1701 1.427 . S
N1709 C1707 1.384 . S
H1710 C1716 0.930 . S
H1711 C1720 0.930 . S
H1712 C1725 0.929 . S
H1713 C1723 0.929 . S
H1714 C1718 0.929 . S
H1715 C1724 0.929 . S
C1716 H1710 0.930 . S
C1716 C1717 1.367 . S
C1716 C1724 1.378 . S
C1717 C1716 1.367 . S
C1717 C1725 1.433 . S
C1718 H1714 0.929 . S
C1718 C1720 1.378 . S
C1718 C1722 1.350 . S
C1719 C1722 1.463 . S
C1719 C1724 1.350 . S
C1719 N1727 1.427 . S
C1720 H1711 0.930 . S
C1720 C1718 1.378 . S
C1720 C1721 1.367 . S
C1721 C1720 1.367 . S
C1721 C1723 1.433 . S
C1722 C1718 1.350 . S
C1722 C1719 1.463 . S
C1722 N1726 1.427 . S
C1723 H1713 0.929 . S
C1723 C1721 1.433 . S
C1723 N1726 1.384 . S
C1724 H1715 0.929 . S
C1724 C1716 1.378 . S
C1724 C1719 1.350 . S
C1725 H1712 0.929 . S
C1725 C1717 1.433 . S
C1725 N1727 1.384 . S
N1726 C1722 1.427 . S
N1726 C1723 1.384 . S
N1727 C1719 1.427 . S
N1727 C1725 1.384 . S
H1728 C1734 0.930 . S
H1729 C1738 0.930 . S
H1730 C1743 0.929 . S
H1731 C1741 0.929 . S
H1732 C1736 0.929 . S
H1733 C1742 0.929 . S
C1734 H1728 0.930 . S
C1734 C1735 1.367 . S
C1734 C1742 1.378 . S
C1735 C1734 1.367 . S
C1735 C1743 1.433 . S
C1736 H1732 0.929 . S
C1736 C1738 1.378 . S
C1736 C1740 1.350 . S
C1737 C1740 1.463 . S
C1737 C1742 1.350 . S
C1737 N1745 1.427 . S
C1738 H1729 0.930 . S
C1738 C1736 1.378 . S
C1738 C1739 1.367 . S
C1739 C1738 1.367 . S
C1739 C1741 1.433 . S
C1740 C1736 1.350 . S
C1740 C1737 1.463 . S
C1740 N1744 1.427 . S
C1741 H1731 0.929 . S
C1741 C1739 1.433 . S
C1741 N1744 1.384 . S
C1742 H1733 0.929 . S
C1742 C1734 1.378 . S
C1742 C1737 1.350 . S
C1743 H1730 0.929 . S
C1743 C1735 1.433 . S
C1743 N1745 1.384 . S
N1744 C1740 1.427 . S
N1744 C1741 1.384 . S
N1745 C1737 1.427 . S
N1745 C1743 1.384 . S
H1746 C1752 0.930 . S
H1747 C1756 0.930 . S
H1748 C1761 0.929 . S
H1749 C1759 0.929 . S
H1750 C1754 0.929 . S
H1751 C1760 0.929 . S
C1752 H1746 0.930 . S
C1752 C1753 1.367 . S
C1752 C1760 1.378 . S
C1753 C1752 1.367 . S
C1753 C1761 1.433 . S
C1754 H1750 0.929 . S
C1754 C1756 1.378 . S
C1754 C1758 1.350 . S
C1755 C1758 1.463 . S
C1755 C1760 1.350 . S
C1755 N1763 1.427 . S
C1756 H1747 0.930 . S
C1756 C1754 1.378 . S
C1756 C1757 1.367 . S
C1757 C1756 1.367 . S
C1757 C1759 1.433 . S
C1758 C1754 1.350 . S
C1758 C1755 1.463 . S
C1758 N1762 1.427 . S
C1759 H1749 0.929 . S
C1759 C1757 1.433 . S
C1759 N1762 1.384 . S
C1760 H1751 0.929 . S
C1760 C1752 1.378 . S
C1760 C1755 1.350 . S
C1761 H1748 0.929 . S
C1761 C1753 1.433 . S
C1761 N1763 1.384 . S
N1762 C1758 1.427 . S
N1762 C1759 1.384 . S
N1763 C1755 1.427 . S
N1763 C1761 1.384 . S
H1764 C1770 0.930 . S
H1765 C1774 0.930 . S
H1766 C1779 0.929 . S
H1767 C1777 0.929 . S
H1768 C1772 0.929 . S
H1769 C1778 0.929 . S
C1770 H1764 0.930 . S
C1770 C1771 1.367 . S
C1770 C1778 1.378 . S
C1771 C1770 1.367 . S
C1771 C1779 1.433 . S
C1772 H1768 0.929 . S
C1772 C1774 1.378 . S
C1772 C1776 1.350 . S
C1773 C1776 1.463 . S
C1773 C1778 1.350 . S
C1773 N1781 1.427 . S
C1774 H1765 0.930 . S
C1774 C1772 1.378 . S
C1774 C1775 1.367 . S
C1775 C1774 1.367 . S
C1775 C1777 1.433 . S
C1776 C1772 1.350 . S
C1776 C1773 1.463 . S
C1776 N1780 1.427 . S
C1777 H1767 0.929 . S
C1777 C1775 1.433 . S
C1777 N1780 1.384 . S
C1778 H1769 0.929 . S
C1778 C1770 1.378 . S
C1778 C1773 1.350 . S
C1779 H1766 0.929 . S
C1779 C1771 1.433 . S
C1779 N1781 1.384 . S
N1780 C1776 1.427 . S
N1780 C1777 1.384 . S
N1781 C1773 1.427 . S
N1781 C1779 1.384 . S
H1782 C1788 0.930 . S
H1783 C1792 0.930 . S
H1784 C1797 0.929 . S
H1785 C1795 0.929 . S
H1786 C1790 0.929 . S
H1787 C1796 0.929 . S
C1788 H1782 0.930 . S
C1788 C1789 1.367 . S
C1788 C1796 1.378 . S
C1789 C1788 1.367 . S
C1789 C1797 1.433 . S
C1790 H1786 0.929 . S
C1790 C1792 1.378 . S
C1790 C1794 1.350 . S
C1791 C1794 1.463 . S
C1791 C1796 1.350 . S
C1791 N1799 1.427 . S
C1792 H1783 0.930 . S
C1792 C1790 1.378 . S
C1792 C1793 1.367 . S
C1793 C1792 1.367 . S
C1793 C1795 1.433 . S
C1794 C1790 1.350 . S
C1794 C1791 1.463 . S
C1794 N1798 1.427 . S
C1795 H1785 0.929 . S
C1795 C1793 1.433 . S
C1795 N1798 1.384 . S
C1796 H1787 0.929 . S
C1796 C1788 1.378 . S
C1796 C1791 1.350 . S
C1797 H1784 0.929 . S
C1797 C1789 1.433 . S
C1797 N1799 1.384 . S
N1798 C1794 1.427 . S
N1798 C1795 1.384 . S
N1799 C1791 1.427 . S
N1799 C1797 1.384 . S
C511 C81 1.602 . S
C515 C11 1.603 . S
C529 C53 1.603 . S
C533 C25 1.602 . S
C547 C39 1.604 . S
C551 C67 1.602 . S
C565 C95 1.604 . S
C569 C165 1.605 . S
C583 C109 1.605 . S
C587 C137 1.603 . S
C601 C151 1.602 . S
C605 C123 1.603 . S
C619 C179 1.602 . S
C623 C249 1.602 . S
C637 C193 1.603 . S
C641 C221 1.605 . S
C655 C207 1.602 . S
C659 C235 1.602 . S
C673 C333 1.604 . S
C677 C263 1.605 . S
C691 C277 1.602 . S
C695 C305 1.603 . S
C709 C319 1.603 . S
C713 C291 1.602 . S
C727 C417 1.602 . S
C731 C347 1.603 . S
C745 C389 1.604 . S
C749 C361 1.605 . S
C763 C403 1.602 . S
C767 C375 1.603 . S
C781 C431 1.604 . S
C785 C501 1.604 . S
C799 C445 1.605 . S
C803 C473 1.603 . S
C817 C459 1.602 . S
C821 C487 1.602 . S
C835 C83 1.110 . S
C839 C13 1.110 . S
C853 C27 1.085 . S
C857 C55 1.085 . S
C871 C69 1.091 . S
C875 C41 1.090 . S
C889 C97 1.086 . S
C893 C167 1.086 . S
C907 C111 1.112 . S
C911 C139 1.112 . S
C925 C153 1.099 . S
C929 C125 1.098 . S
C943 C181 1.110 . S
C947 C251 1.110 . S
C961 C223 1.098 . S
C965 C195 1.097 . S
C979 C237 1.110 . S
C983 C209 1.110 . S
C997 C265 1.085 . S
C1001 C335 1.085 . S
C1015 C279 1.111 . S
C1019 C307 1.111 . S
C1033 C321 1.101 . S
C1037 C293 1.101 . S
C1051 C419 1.111 . S
C1055 C349 1.111 . S
C1069 C363 1.109 . S
C1073 C391 1.110 . S
C1087 C377 1.104 . S
C1091 C405 1.104 . S
C1105 C503 1.092 . S
C1109 C433 1.091 . S
C1123 C475 1.089 . S
C1127 C447 1.089 . S
C1141 C489 1.094 . S
C1145 C461 1.093 . S
C1159 C232 1.534 . S
C1163 C8 1.533 . S
C1177 C246 1.523 . S
C1181 C22 1.523 . S
C1195 C218 1.524 . S
C1199 C36 1.523 . S
C1213 C50 1.528 . S
C1217 C372 1.526 . S
C1231 C64 1.526 . S
C1235 C344 1.525 . S
C1249 C78 1.536 . S
C1253 C358 1.536 . S
C1267 C92 1.523 . S
C1271 C484 1.523 . S
C1285 C106 1.522 . S
C1289 C498 1.523 . S
C1303 C120 1.523 . S
C1307 C470 1.524 . S
C1321 C134 1.537 . S
C1325 C288 1.536 . S
C1339 C260 1.533 . S
C1343 C148 1.532 . S
C1357 C274 1.523 . S
C1361 C162 1.523 . S
C1375 C400 1.526 . S
C1379 C176 1.527 . S
C1393 C190 1.535 . S
C1397 C414 1.536 . S
C1411 C204 1.527 . S
C1415 C386 1.525 . S
C1429 C302 1.523 . S
C1433 C456 1.524 . S
C1447 C316 1.530 . S
C1451 C428 1.529 . S
C1465 C442 1.537 . S
C1469 C330 1.537 . S
C1483 C7 1.359 . S
C1487 C147 1.361 . S
C1501 C161 1.364 . S
C1505 C21 1.357 . S
C1519 C133 1.358 . S
C1523 C35 1.362 . S
C1537 C49 1.364 . S
C1541 C119 1.356 . S
C1555 C63 1.362 . S
C1559 C91 1.357 . S
C1573 C77 1.364 . S
C1577 C105 1.356 . S
C1591 C175 1.363 . S
C1595 C315 1.356 . S
C1609 C329 1.358 . S
C1613 C189 1.363 . S
C1627 C301 1.360 . S
C1631 C203 1.360 . S
C1645 C217 1.356 . S
C1649 C287 1.364 . S
C1663 C231 1.357 . S
C1667 C259 1.363 . S
C1681 C273 1.356 . S
C1685 C245 1.364 . S
C1699 C343 1.363 . S
C1703 C483 1.357 . S
C1717 C497 1.356 . S
C1721 C357 1.364 . S
C1735 C371 1.364 . S
C1739 C469 1.356 . S
C1753 C385 1.362 . S
C1757 C455 1.358 . S
C1771 C427 1.357 . S
C1775 C399 1.362 . S
C1789 C413 1.359 . S
C1793 C441 1.362 . S
