# Generated by pormake.
# Topology yfb, (5)-cn, num edge types: 1
# Building blocks:
#     Node 0, Type 0, BuildingBlock: BEQFEK_clean_sbu_0, # of connection points: 5
#     Node 1, Type 0, BuildingBlock: BEQFEK_clean_sbu_0, # of connection points: 5
#     Node 2, Type 0, BuildingBlock: BEQFEK_clean_sbu_0, # of connection points: 5
#     Node 3, Type 0, BuildingBlock: BEQFEK_clean_sbu_0, # of connection points: 5
#     Node 4, Type 0, BuildingBlock: BEQFEK_clean_sbu_0, # of connection points: 5
#     Node 5, Type 0, BuildingBlock: BEQFEK_clean_sbu_0, # of connection points: 5
#     Node 6, Type 0, BuildingBlock: BEQFEK_clean_sbu_0, # of connection points: 5
#     Node 7, Type 0, BuildingBlock: BEQFEK_clean_sbu_0, # of connection points: 5
#     Node 8, Type 0, BuildingBlock: BEQFEK_clean_sbu_0, # of connection points: 5
#     Node 9, Type 0, BuildingBlock: BEQFEK_clean_sbu_0, # of connection points: 5
#     Node 10, Type 0, BuildingBlock: BEQFEK_clean_sbu_0, # of connection points: 5
#     Node 11, Type 0, BuildingBlock: BEQFEK_clean_sbu_0, # of connection points: 5
#     Node 12, Type 0, BuildingBlock: BEQFEK_clean_sbu_0, # of connection points: 5
#     Node 13, Type 0, BuildingBlock: BEQFEK_clean_sbu_0, # of connection points: 5
#     Node 14, Type 0, BuildingBlock: BEQFEK_clean_sbu_0, # of connection points: 5
#     Node 15, Type 0, BuildingBlock: BEQFEK_clean_sbu_0, # of connection points: 5
#     Edge 16, Type (0, 0), BuildingBlock: EZIPEK_clean_linker_0, # of connection points: 2
#     Edge 17, Type (0, 0), BuildingBlock: EZIPEK_clean_linker_0, # of connection points: 2
#     Edge 18, Type (0, 0), BuildingBlock: EZIPEK_clean_linker_0, # of connection points: 2
#     Edge 19, Type (0, 0), BuildingBlock: EZIPEK_clean_linker_0, # of connection points: 2
#     Edge 20, Type (0, 0), BuildingBlock: EZIPEK_clean_linker_0, # of connection points: 2
#     Edge 21, Type (0, 0), BuildingBlock: EZIPEK_clean_linker_0, # of connection points: 2
#     Edge 22, Type (0, 0), BuildingBlock: EZIPEK_clean_linker_0, # of connection points: 2
#     Edge 23, Type (0, 0), BuildingBlock: EZIPEK_clean_linker_0, # of connection points: 2
#     Edge 24, Type (0, 0), BuildingBlock: EZIPEK_clean_linker_0, # of connection points: 2
#     Edge 25, Type (0, 0), BuildingBlock: EZIPEK_clean_linker_0, # of connection points: 2
#     Edge 26, Type (0, 0), BuildingBlock: EZIPEK_clean_linker_0, # of connection points: 2
#     Edge 27, Type (0, 0), BuildingBlock: EZIPEK_clean_linker_0, # of connection points: 2
#     Edge 28, Type (0, 0), BuildingBlock: EZIPEK_clean_linker_0, # of connection points: 2
#     Edge 29, Type (0, 0), BuildingBlock: EZIPEK_clean_linker_0, # of connection points: 2
#     Edge 30, Type (0, 0), BuildingBlock: EZIPEK_clean_linker_0, # of connection points: 2
#     Edge 31, Type (0, 0), BuildingBlock: EZIPEK_clean_linker_0, # of connection points: 2
#     Edge 32, Type (0, 0), BuildingBlock: EZIPEK_clean_linker_0, # of connection points: 2
#     Edge 33, Type (0, 0), BuildingBlock: EZIPEK_clean_linker_0, # of connection points: 2
#     Edge 34, Type (0, 0), BuildingBlock: EZIPEK_clean_linker_0, # of connection points: 2
#     Edge 35, Type (0, 0), BuildingBlock: EZIPEK_clean_linker_0, # of connection points: 2
#     Edge 36, Type (0, 0), BuildingBlock: EZIPEK_clean_linker_0, # of connection points: 2
#     Edge 37, Type (0, 0), BuildingBlock: EZIPEK_clean_linker_0, # of connection points: 2
#     Edge 38, Type (0, 0), BuildingBlock: EZIPEK_clean_linker_0, # of connection points: 2
#     Edge 39, Type (0, 0), BuildingBlock: EZIPEK_clean_linker_0, # of connection points: 2
#     Edge 40, Type (0, 0), BuildingBlock: EZIPEK_clean_linker_0, # of connection points: 2
#     Edge 41, Type (0, 0), BuildingBlock: EZIPEK_clean_linker_0, # of connection points: 2
#     Edge 42, Type (0, 0), BuildingBlock: EZIPEK_clean_linker_0, # of connection points: 2
#     Edge 43, Type (0, 0), BuildingBlock: EZIPEK_clean_linker_0, # of connection points: 2
#     Edge 44, Type (0, 0), BuildingBlock: EZIPEK_clean_linker_0, # of connection points: 2
#     Edge 45, Type (0, 0), BuildingBlock: EZIPEK_clean_linker_0, # of connection points: 2
#     Edge 46, Type (0, 0), BuildingBlock: EZIPEK_clean_linker_0, # of connection points: 2
#     Edge 47, Type (0, 0), BuildingBlock: EZIPEK_clean_linker_0, # of connection points: 2
#     Edge 48, Type (0, 0), BuildingBlock: EZIPEK_clean_linker_0, # of connection points: 2
#     Edge 49, Type (0, 0), BuildingBlock: EZIPEK_clean_linker_0, # of connection points: 2
#     Edge 50, Type (0, 0), BuildingBlock: EZIPEK_clean_linker_0, # of connection points: 2
#     Edge 51, Type (0, 0), BuildingBlock: EZIPEK_clean_linker_0, # of connection points: 2
#     Edge 52, Type (0, 0), BuildingBlock: EZIPEK_clean_linker_0, # of connection points: 2
#     Edge 53, Type (0, 0), BuildingBlock: EZIPEK_clean_linker_0, # of connection points: 2
#     Edge 54, Type (0, 0), BuildingBlock: EZIPEK_clean_linker_0, # of connection points: 2
#     Edge 55, Type (0, 0), BuildingBlock: EZIPEK_clean_linker_0, # of connection points: 2
# Relax obj value: 0.647
# Max RMSD: 0.213
# Mean RMSD: 0.213
data_MOF--net-yfb--node1-BEQFEK_clean_sbu_0--edge1-EZIPEK_clean_linker_0
_symmetry_space_group_name_H-M    P1
_symmetry_Int_Tables_number       1
_symmetry_cell_setting            triclinic
loop_
_symmetry_equiv_pos_as_xyz
'x, y, z'
_cell_length_a     36.511127
_cell_length_b     36.574636
_cell_length_c     32.186728
_cell_angle_alpha  89.646366
_cell_angle_beta   89.898919
_cell_angle_gamma 90.058749
loop_
_atom_site_label
_atom_site_type_symbol
_atom_site_fract_x
_atom_site_fract_y
_atom_site_fract_z
_atom_type_partial_charge
Co0 Co 0.71387 0.14167 0.12731 0.0
Co1 Co 0.67118 0.07651 0.08703 0.0
C2 C 0.64774 0.15745 0.08034 0.0
O3 O 0.67225 0.16861 0.1048 0.0
O4 O 0.64473 0.12353 0.07265 0.0
C5 C 0.72278 0.19474 0.18841 0.0
O6 O 0.69249 0.17932 0.20204 0.0
C7 C 0.6093 0.04292 0.0432 0.0
C8 C 0.58624 1.00585 0.09069 0.0
C9 C 0.57899 0.02118 0.05217 0.0
N10 N 0.63332 0.04064 0.07501 0.0
N11 N 0.6192 0.01809 0.10309 0.0
C12 C 0.61238 0.06999 1.00841 0.0
H13 H 0.64156 0.07692 1.00275 0.0
H14 H 0.59723 0.09519 1.0168 0.0
H15 H 0.59998 0.05901 0.97963 0.0
C16 C 0.72323 0.0899 0.19505 0.0
N17 N 0.70427 0.10005 0.16101 0.0
N18 N 0.68984 0.07088 0.1436 0.0
C19 C 0.70044 0.04104 0.16609 0.0
C20 C 0.72071 0.05243 0.20033 0.0
C21 C 0.75116 0.11371 0.21522 0.0
H22 H 0.7675 0.12759 0.19082 0.0
H23 H 0.73709 0.13386 0.23513 0.0
H24 H 0.77056 0.09845 0.23494 0.0
O25 O 0.74313 0.1245 0.07956 0.0
O26 O 0.71559 0.07654 0.04969 0.0
H27 H 0.7269 0.98955 0.15497 0.0
H28 H 0.67947 0.98651 0.16838 0.0
C29 C 0.69979 1.00266 0.15029 0.0
H30 H 0.6928 1.00212 0.11677 0.0
H31 H 0.62958 0.01424 0.13286 0.0
O32 O 0.73951 0.18092 0.15762 0.0
C33 C 0.742 0.09966 0.0518 0.0
Co34 Co 0.38551 0.7054 0.14062 0.0
Co35 Co 0.45077 0.66952 0.09456 0.0
C36 C 0.36952 0.6434 0.08946 0.0
O37 O 0.35791 0.66571 0.11625 0.0
O38 O 0.40352 0.64225 0.08039 0.0
C39 C 0.32697 0.71546 0.19646 0.0
O40 O 0.32758 0.67955 0.19611 0.0
C41 C 0.48609 0.60892 0.05033 0.0
C42 C 0.52659 0.58927 0.09595 0.0
C43 C 0.51011 0.58044 0.05872 0.0
N44 N 0.48808 0.63358 0.08126 0.0
N45 N 0.51278 0.62164 0.10817 0.0
C46 C 0.45844 0.61004 1.01621 0.0
H47 H 0.45028 0.63871 1.00969 0.0
H48 H 0.43392 0.59413 0.02582 0.0
H49 H 0.46976 0.59736 0.98769 0.0
C50 C 0.43517 0.70549 0.21025 0.0
N51 N 0.42648 0.69173 0.17284 0.0
N52 N 0.45663 0.68557 0.1517 0.0
C53 C 0.48529 0.69888 0.17394 0.0
C54 C 0.47245 0.71191 0.21202 0.0
C55 C 0.40787 0.71687 0.24216 0.0
H56 H 0.39763 0.74444 0.23413 0.0
H57 H 0.38486 0.69719 0.2432 0.0
H58 H 0.42055 0.71782 0.27339 0.0
O59 O 0.40116 0.73773 0.09322 0.0
O60 O 0.44907 0.71473 0.05897 0.0
H61 H 0.53213 0.73338 0.163 0.0
H62 H 0.54235 0.68636 0.17236 0.0
C63 C 0.52285 0.70508 0.15661 0.0
H64 H 0.52332 0.70011 0.12262 0.0
H65 H 0.51771 0.63336 0.13699 0.0
O66 O 0.35033 0.73262 0.17445 0.0
C67 C 0.42464 0.73952 0.06371 0.0
Co68 Co 0.78947 0.38417 0.12791 0.0
Co69 Co 0.83965 0.4467 0.09318 0.0
C70 C 0.86182 0.36729 0.08869 0.0
O71 O 0.83199 0.35701 0.10533 0.0
O72 O 0.86912 0.40111 0.08533 0.0
C73 C 0.77813 0.33405 0.19272 0.0
O74 O 0.81121 0.34545 0.20193 0.0
C75 C 0.91098 0.48192 0.08178 0.0
C76 C 0.89939 0.527 0.03809 0.0
C77 C 0.92783 0.50822 0.05712 0.0
N78 N 0.87433 0.48447 0.07727 0.0
N79 N 0.86761 0.51197 0.05151 0.0
C80 C 0.92993 0.453 0.1067 0.0
H81 H 0.91178 0.44286 0.13197 0.0
H82 H 0.95572 0.46392 0.12003 0.0
H83 H 0.93717 0.42989 0.08607 0.0
C84 C 0.78015 0.4358 0.19506 0.0
N85 N 0.79876 0.42553 0.16111 0.0
N86 N 0.82075 0.4521 0.1492 0.0
C87 C 0.81813 0.47949 0.17747 0.0
C88 C 0.79219 0.4697 0.20779 0.0
C89 C 0.74651 0.41683 0.21022 0.0
H90 H 0.73297 0.40249 0.18429 0.0
H91 H 0.75423 0.39726 0.23513 0.0
H92 H 0.72639 0.43649 0.22263 0.0
O93 O 0.76094 0.39984 0.08045 0.0
O94 O 0.7964 0.44316 0.05189 0.0
H95 H 0.83476 0.53158 0.20224 0.0
H96 H 0.86636 0.51101 0.16531 0.0
C97 C 0.83711 0.51549 0.17322 0.0
H98 H 0.82454 0.53108 0.14724 0.0
H99 H 0.84152 0.51899 0.04099 0.0
O100 O 0.76259 0.34736 0.16072 0.0
C101 C 0.76726 0.42332 0.05203 0.0
Co102 Co 0.13576 0.81836 0.14776 0.0
Co103 Co 0.07178 0.84987 0.09572 0.0
C104 C 0.15295 0.87819 0.09416 0.0
O105 O 0.1644 0.85745 0.12283 0.0
O106 O 0.11931 0.87737 0.08373 0.0
C107 C 0.19789 0.78144 0.16703 0.0
O108 O 0.20215 0.7868 0.12693 0.0
C109 C 0.03968 0.91329 0.05106 0.0
C110 C 0.98951 0.92424 0.08678 0.0
C111 C 0.01204 0.93893 0.05625 0.0
N112 N 0.03435 0.88505 0.07778 0.0
N113 N 1.00374 0.89173 0.09845 0.0
C114 C 0.07255 0.91763 1.02381 0.0
H115 H 0.08149 0.89038 1.01307 0.0
H116 H 0.09485 0.93094 0.04153 0.0
H117 H 0.06657 0.93515 0.99645 0.0
C118 C 0.08483 0.81804 0.21367 0.0
N119 N 0.09359 0.83282 0.17665 0.0
N120 N 0.06414 0.83525 0.15345 0.0
C121 C 0.03635 0.81813 0.17397 0.0
C122 C 0.04869 0.80665 0.21312 0.0
C123 C 0.11234 0.80841 0.24616 0.0
H124 H 0.12071 0.77949 0.24233 0.0
H125 H 0.13672 0.82643 0.24358 0.0
H126 H 0.09996 0.81164 0.27737 0.0
O127 O 0.12267 0.78353 0.10263 0.0
O128 O 0.0769 0.80358 0.06265 0.0
H129 H 1.00325 0.80998 0.11943 0.0
H130 H 0.99671 0.77637 0.16047 0.0
C131 C 1.00178 0.80571 0.15357 0.0
H132 H 0.97842 0.82139 0.16645 0.0
H133 H 0.99402 0.87586 0.12306 0.0
O134 O 0.16934 0.79297 0.18485 0.0
C135 C 0.10106 0.77942 0.07185 0.0
Co136 Co 0.70566 0.38036 0.41868 0.0
Co137 Co 0.66983 0.44434 0.46693 0.0
C138 C 0.64297 0.36364 0.47013 0.0
O139 O 0.66637 0.35209 0.44428 0.0
O140 O 0.64179 0.39746 0.47922 0.0
C141 C 0.7187 0.3236 0.36031 0.0
O142 O 0.68274 0.32186 0.36035 0.0
C143 C 0.59982 0.47868 0.48528 0.0
C144 C 0.61362 0.51942 0.53289 0.0
C145 C 0.58428 0.5025 0.51358 0.0
N146 N 0.63661 0.48099 0.48782 0.0
N147 N 0.64466 0.50592 0.51596 0.0
C148 C 0.57979 0.45112 0.45982 0.0
H149 H 0.57209 0.42755 0.47992 0.0
H150 H 0.59731 0.44134 0.43396 0.0
H151 H 0.55417 0.46321 0.44731 0.0
C152 C 0.70219 0.43162 0.34978 0.0
N153 N 0.69025 0.42206 0.38786 0.0
N154 N 0.68283 0.45177 0.40904 0.0
C155 C 0.69338 0.48113 0.38585 0.0
C156 C 0.70618 0.46917 0.3472 0.0
C157 C 0.71306 0.40522 0.31698 0.0
H158 H 0.74218 0.39756 0.32091 0.0
H159 H 0.69527 0.38081 0.31825 0.0
H160 H 0.70952 0.41808 0.28618 0.0
O161 O 0.73967 0.39528 0.46377 0.0
O162 O 0.71643 0.44168 0.49963 0.0
H163 H 0.69542 0.53943 0.37731 0.0
H164 H 0.67564 0.52395 0.42642 0.0
C165 C 0.69714 0.51886 0.40274 0.0
H166 H 0.72429 0.52146 0.4179 0.0
H167 H 0.67124 0.51185 0.52576 0.0
O168 O 0.73401 0.34686 0.38364 0.0
C169 C 0.74182 0.41834 0.49324 0.0
Co170 Co 0.14301 0.70656 0.42029 0.0
Co171 Co 0.07591 0.66538 0.45866 0.0
C172 C 0.1534 0.63749 0.46823 0.0
O173 O 0.16619 0.66412 0.44746 0.0
O174 O 0.11909 0.63407 0.47278 0.0
C175 C 0.195 0.71117 0.35403 0.0
O176 O 0.17835 0.68172 0.3405 0.0
C177 C 0.03636 0.5979 0.47172 0.0
C178 C 0.99786 0.61142 0.52209 0.0
C179 C 0.01262 0.5823 0.50037 0.0
N180 N 0.03618 0.63447 0.47645 0.0
N181 N 0.01245 0.64244 0.50612 0.0
C182 C 0.06258 0.5778 0.44445 0.0
H183 H 0.08545 0.56703 0.46361 0.0
H184 H 0.07377 0.59624 0.42 0.0
H185 H 0.04862 0.5541 0.42998 0.0
C186 C 0.09091 0.71643 0.35226 0.0
N187 N 0.10117 0.69808 0.38666 0.0
N188 N 0.07296 0.67933 0.40093 0.0
C189 C 0.04442 0.68401 0.37442 0.0
C190 C 0.05528 0.70755 0.3423 0.0
C191 C 0.11063 0.74873 0.33471 0.0
H192 H 0.13472 0.75638 0.35315 0.0
H193 H 0.11798 0.74254 0.30217 0.0
H194 H 0.0922 0.77276 0.3344 0.0
O195 O 0.12768 0.7401 0.46423 0.0
O196 O 0.07894 0.7124 0.49263 0.0
H197 H 0.99573 0.68477 0.41109 0.0
H198 H 0.98803 0.67644 0.35633 0.0
C199 C 1.00643 0.67084 0.38305 0.0
H200 H 1.00703 0.64106 0.38988 0.0
H201 H 0.00864 0.66865 0.51801 0.0
O202 O 0.18384 0.72686 0.38687 0.0
C203 C 0.10169 0.73918 0.49079 0.0
Co204 Co 0.80484 0.13825 0.41207 0.0
Co205 Co 0.84672 0.07219 0.45205 0.0
C206 C 0.87323 0.15073 0.45911 0.0
O207 O 0.84681 0.16297 0.43773 0.0
O208 O 0.87669 0.11658 0.46493 0.0
C209 C 0.79514 0.19375 0.34953 0.0
O210 O 0.82611 0.18137 0.33431 0.0
C211 C 0.91559 0.0348 0.46581 0.0
C212 C 0.90216 0.99457 0.51475 0.0
C213 C 0.93132 0.01065 0.49386 0.0
N214 N 0.87889 0.03357 0.47009 0.0
N215 N 0.871 0.00886 0.49893 0.0
C216 C 0.93556 0.06199 0.43931 0.0
H217 H 0.94495 0.08499 0.45895 0.0
H218 H 0.91738 0.07273 0.41447 0.0
H219 H 0.96018 0.04912 0.42537 0.0
C220 C 0.79876 0.08693 0.34336 0.0
N221 N 0.81543 0.09687 0.37873 0.0
N222 N 0.83288 0.06849 0.39442 0.0
C223 C 0.82842 0.03975 0.36845 0.0
C224 C 0.8067 0.05071 0.33487 0.0
C225 C 0.77026 0.10963 0.32243 0.0
H226 H 0.75408 0.12459 0.34592 0.0
H227 H 0.78427 0.12918 0.30135 0.0
H228 H 0.75093 0.0932 0.30392 0.0
O229 O 0.77232 0.12206 0.45699 0.0
O230 O 0.79994 0.07417 0.48675 0.0
H231 H 0.82459 0.99205 0.40666 0.0
H232 H 0.83456 0.98281 0.35252 0.0
C233 C 0.83989 1.0016 0.3788 0.0
H234 H 0.86946 1.00134 0.38669 0.0
H235 H 0.84464 1.00392 0.51023 0.0
O236 O 0.78048 0.17799 0.38068 0.0
C237 C 0.77312 0.09672 0.48433 0.0
Co238 Co 0.37809 0.80148 0.41166 0.0
Co239 Co 0.43941 0.84007 0.46177 0.0
C240 C 0.35723 0.86239 0.46221 0.0
O241 O 0.34869 0.84152 0.43251 0.0
O242 O 0.38996 0.86333 0.47607 0.0
C243 C 0.32233 0.78594 0.35322 0.0
O244 O 0.31791 0.82151 0.35541 0.0
C245 C 0.47263 0.91079 0.47985 0.0
C246 C 0.51903 0.89721 0.52076 0.0
C247 C 0.49958 0.92635 0.50415 0.0
N248 N 0.47544 0.87414 0.48207 0.0
N249 N 0.50366 0.86618 0.50621 0.0
C250 C 0.44312 0.9308 0.45721 0.0
H251 H 0.4228 0.9407 0.48018 0.0
H252 H 0.42953 0.91269 0.43439 0.0
H253 H 0.45476 0.95512 0.44112 0.0
C254 C 0.43045 0.80666 0.34435 0.0
N255 N 0.41957 0.81736 0.38224 0.0
N256 N 0.44798 0.82852 0.40368 0.0
C257 C 0.47848 0.82255 0.3805 0.0
C258 C 0.46822 0.80785 0.34209 0.0
C259 C 0.40542 0.79114 0.31233 0.0
H260 H 0.3982 0.76282 0.3213 0.0
H261 H 0.38032 0.80796 0.31026 0.0
H262 H 0.41841 0.79089 0.28125 0.0
O263 O 0.39227 0.76946 0.45972 0.0
O264 O 0.43928 0.79337 0.49423 0.0
H265 H 0.53715 0.8182 0.37329 0.0
H266 H 0.52127 0.85468 0.40682 0.0
C267 C 0.51653 0.82603 0.397 0.0
H268 H 0.51948 0.80841 0.42499 0.0
H269 H 0.5114 0.83962 0.51429 0.0
O270 O 0.3466 0.77135 0.37607 0.0
C271 C 0.41555 0.76808 0.48927 0.0
Co272 Co 0.30032 0.87234 0.91875 0.0
Co273 Co 0.34668 0.93801 0.95423 0.0
C274 C 0.36837 0.85749 0.96472 0.0
O275 O 0.34211 0.8458 0.94284 0.0
O276 O 0.37265 0.89159 0.9701 0.0
C277 C 0.28474 0.82038 0.8546 0.0
O278 O 0.31367 0.83485 0.83655 0.0
C279 C 0.41717 0.97302 0.97636 0.0
C280 C 0.40251 0.03107 0.98377 0.0
C281 C 0.43166 1.00687 0.98656 0.0
N282 N 0.3811 0.9768 0.968 0.0
N283 N 0.37263 0.01171 0.97255 0.0
C284 C 0.43719 0.9373 0.97702 0.0
H285 H 0.42735 0.92069 1.00375 0.0
H286 H 0.4317 0.92226 0.94785 0.0
H287 H 0.46714 0.94089 0.98052 0.0
C288 C 0.29243 0.92353 0.84977 0.0
N289 N 0.31095 0.91312 0.88386 0.0
N290 N 0.3316 0.94045 0.89639 0.0
C291 C 0.32821 0.9683 0.86839 0.0
C292 C 0.30314 0.9582 0.83774 0.0
C293 C 0.25881 0.9048 0.83504 0.0
H294 H 0.24661 0.88826 0.86034 0.0
H295 H 0.26616 0.88778 0.80794 0.0
H296 H 0.23786 0.92483 0.82548 0.0
O297 O 0.27099 0.89069 0.96496 0.0
O298 O 0.30017 0.93964 0.98989 0.0
H299 H 0.32819 0.02111 0.89596 0.0
H300 H 0.34507 0.02037 0.84335 0.0
C301 C 0.34476 1.00533 0.87343 0.0
H302 H 0.37304 1.00279 0.88564 0.0
H303 H 0.3463 0.02227 0.96879 0.0
O304 O 0.27323 0.83329 0.88881 0.0
C305 C 0.27299 0.91729 0.99032 0.0
Co306 Co 0.63545 0.31224 0.89656 0.0
Co307 Co 0.57314 0.3459 0.94675 0.0
C308 C 0.65431 0.37364 0.94373 0.0
O309 O 0.66172 0.35645 0.91093 0.0
O310 O 0.62266 0.37041 0.96028 0.0
C311 C 0.69169 0.29884 0.83866 0.0
O312 O 0.69086 0.33469 0.83656 0.0
C313 C 0.53991 0.4074 0.99189 0.0
C314 C 0.49999 0.42823 0.94619 0.0
C315 C 0.51652 0.43646 0.98358 0.0
N316 N 0.53747 0.38304 0.96071 0.0
N317 N 0.5131 0.39564 0.93381 0.0
C318 C 0.56725 0.40528 0.02629 0.0
H319 H 0.57888 0.37732 0.02877 0.0
H320 H 0.58962 0.42514 1.02022 0.0
H321 H 0.55405 0.413 0.05606 0.0
C322 C 0.58224 0.30686 0.83109 0.0
N323 N 0.59273 0.32204 0.86706 0.0
N324 N 0.56393 0.32885 0.89016 0.0
C325 C 0.53414 0.31487 0.87049 0.0
C326 C 0.54499 0.30033 0.83225 0.0
C327 C 0.60808 0.29394 0.79838 0.0
H328 H 0.61907 0.26701 0.80781 0.0
H329 H 0.63083 0.3137 0.79458 0.0
H330 H 0.59403 0.29108 0.76809 0.0
O331 O 0.62329 0.28178 0.94788 0.0
O332 O 0.57397 0.30137 0.98217 0.0
H333 H 0.48681 0.28208 0.8852 0.0
H334 H 0.47775 0.32935 0.87557 0.0
C335 C 0.49736 0.31015 0.89037 0.0
H336 H 0.49881 0.31578 0.92418 0.0
H337 H 0.50779 0.38393 0.90504 0.0
O338 O 0.66938 0.28294 0.86311 0.0
C339 C 0.60004 0.27836 0.97759 0.0
Co340 Co 0.20392 0.63393 0.9175 0.0
Co341 Co 0.17236 0.57292 0.97306 0.0
C342 C 0.14753 0.65473 0.97401 0.0
O343 O 0.16517 0.66315 0.94153 0.0
O344 O 0.14928 0.62235 0.98888 0.0
C345 C 0.212 0.68957 0.85753 0.0
O346 O 0.17662 0.69154 0.86444 0.0
C347 C 0.10153 0.5389 0.98933 0.0
C348 C 0.11172 0.50455 0.04456 0.0
C349 C 0.08394 0.51795 1.01941 0.0
N350 N 0.13791 0.53825 0.99636 0.0
N351 N 0.14384 0.51718 0.02919 0.0
C352 C 0.08353 0.5617 0.95656 0.0
H353 H 0.07045 0.54339 0.93355 0.0
H354 H 0.06149 0.5785 0.97056 0.0
H355 H 0.1038 0.57947 0.94047 0.0
C356 C 0.19752 0.58113 0.85261 0.0
N357 N 0.18645 0.59189 0.89043 0.0
N358 N 0.18248 0.5632 0.91465 0.0
C359 C 0.19526 0.53363 0.89372 0.0
C360 C 0.20545 0.54416 0.85328 0.0
C361 C 0.20403 0.60643 0.81692 0.0
H362 H 0.23338 0.61399 0.81571 0.0
H363 H 0.18672 0.63107 0.81972 0.0
H364 H 0.19646 0.59256 0.7877 0.0
O365 O 0.23994 0.62071 0.96325 0.0
O366 O 0.22048 0.57345 1.00132 0.0
H367 H 0.23043 0.49975 0.92996 0.0
H368 H 0.20493 0.4757 0.89067 0.0
C369 C 0.20354 0.49783 0.91409 0.0
H370 H 0.18242 0.49146 0.93791 0.0
H371 H 0.16949 0.51339 0.0428 0.0
O372 O 0.23017 0.66587 0.8778 0.0
C373 C 0.24457 0.59783 0.9931 0.0
Co374 Co 0.87786 0.22172 0.91609 0.0
Co375 Co 0.94208 0.17721 0.95822 0.0
C376 C 0.86215 0.15263 0.95973 0.0
O377 O 0.85086 0.17908 0.9377 0.0
O378 O 0.89594 0.14943 0.96775 0.0
C379 C 0.82636 0.23174 0.85151 0.0
O380 O 0.84034 0.20065 0.83881 0.0
C381 C 0.97516 0.10559 0.97735 0.0
C382 C 0.02769 0.1196 1.00679 0.0
C383 C 1.00501 0.09026 0.99755 0.0
N384 N 0.97945 0.14229 0.97534 0.0
N385 N 0.0113 0.15034 0.99255 0.0
C386 C 0.9418 0.08552 0.96287 0.0
H387 H 0.92058 0.08644 0.98756 0.0
H388 H 0.93099 0.09844 0.93414 0.0
H389 H 0.9477 0.05638 0.95663 0.0
C390 C 0.93275 0.22934 0.85042 0.0
N391 N 0.92111 0.21205 0.88498 0.0
N392 N 0.94864 0.19391 0.90158 0.0
C393 C 0.97857 0.19869 0.87699 0.0
C394 C 0.96928 0.22131 0.84346 0.0
C395 C 0.91083 0.25781 0.82847 0.0
H396 H 0.8964 0.27481 0.85165 0.0
H397 H 0.89084 0.24384 0.80821 0.0
H398 H 0.92751 0.27615 0.80872 0.0
O399 O 0.89188 0.25123 0.96432 0.0
O400 O 0.93827 0.22211 0.99568 0.0
H401 H 0.02539 0.20122 0.91634 0.0
H402 H 0.03583 0.19104 0.86262 0.0
C403 C 0.01616 0.18617 0.88842 0.0
H404 H 0.01544 0.15664 0.89651 0.0
H405 H 0.02117 0.17692 0.99617 0.0
O406 O 0.84007 0.24758 0.8829 0.0
C407 C 0.9155 0.24884 0.99337 0.0
Co408 Co 0.29769 0.63435 0.63932 0.0
Co409 Co 0.34405 0.56928 0.60363 0.0
C410 C 0.36557 0.64922 0.59182 0.0
O411 O 0.33892 0.66059 0.6134 0.0
O412 O 0.37089 0.61517 0.58744 0.0
C413 C 0.28198 0.68735 0.70319 0.0
O414 O 0.31071 0.67368 0.72222 0.0
C415 C 0.41549 0.53579 0.58939 0.0
C416 C 0.40274 0.48711 0.55215 0.0
C417 C 0.43161 0.50824 0.56642 0.0
N418 N 0.37878 0.53165 0.58854 0.0
N419 N 0.3714 0.50204 0.56669 0.0
C420 C 0.43494 0.56731 0.60883 0.0
H421 H 0.44004 0.58863 0.58481 0.0
H422 H 0.41812 0.57909 0.6342 0.0
H423 H 0.46189 0.5584 0.62121 0.0
C424 C 0.29041 0.58386 0.70897 0.0
N425 N 0.30864 0.59398 0.67446 0.0
N426 N 0.32865 0.56639 0.66144 0.0
C427 C 0.32474 0.53833 0.68908 0.0
C428 C 0.30035 0.54884 0.72051 0.0
C429 C 0.25763 0.60347 0.72474 0.0
H430 H 0.24446 0.61889 0.69921 0.0
H431 H 0.2662 0.62177 0.75024 0.0
H432 H 0.23694 0.58424 0.73691 0.0
O433 O 0.26756 0.6159 0.59387 0.0
O434 O 0.2981 0.56839 0.56742 0.0
H435 H 0.32565 0.48832 0.65544 0.0
H436 H 0.33574 0.48336 0.71028 0.0
C437 C 0.33975 0.50088 0.68234 0.0
H438 H 0.36932 0.50279 0.67456 0.0
H439 H 0.34495 0.49334 0.55944 0.0
O440 O 0.27109 0.67347 0.66924 0.0
C441 C 0.27044 0.59006 0.56768 0.0
Co442 Co 0.88131 0.29818 0.62921 0.0
Co443 Co 0.94573 0.34223 0.58826 0.0
C444 C 0.86591 0.36634 0.58302 0.0
O445 O 0.85483 0.33992 0.60532 0.0
O446 O 0.89985 0.37049 0.5757 0.0
C447 C 0.82648 0.28748 0.69051 0.0
O448 O 0.83817 0.31937 0.70365 0.0
C449 C 0.98066 0.41254 0.57375 0.0
C450 C 0.02565 0.39991 0.53049 0.0
C451 C 1.00674 0.42869 0.54835 0.0
N452 N 0.98347 0.37592 0.57086 0.0
N453 N 0.01092 0.36853 0.5454 0.0
C454 C 0.95134 0.43199 0.59736 0.0
H455 H 0.92869 0.43913 0.57584 0.0
H456 H 0.94055 0.4143 0.62273 0.0
H457 H 0.96223 0.45783 0.61041 0.0
C458 C 0.93364 0.29269 0.69732 0.0
N459 N 0.92292 0.30931 0.66203 0.0
N460 N 0.95089 0.327 0.64561 0.0
C461 C 0.98035 0.32228 0.67076 0.0
C462 C 0.97022 0.30036 0.70466 0.0
C463 C 0.91089 0.26492 0.71962 0.0
H464 H 0.89763 0.24676 0.69671 0.0
H465 H 0.88982 0.27945 0.73794 0.0
H466 H 0.92682 0.24765 0.74121 0.0
O467 O 0.89757 0.26755 0.58294 0.0
O468 O 0.94445 0.29663 0.55257 0.0
H469 H 0.02684 0.31922 0.63071 0.0
H470 H 0.03796 0.32765 0.68471 0.0
C471 C 0.01833 0.33377 0.6593 0.0
H472 H 0.01858 0.3635 0.65217 0.0
H473 H 0.01801 0.34221 0.53601 0.0
O474 O 0.84283 0.27188 0.66063 0.0
C475 C 0.92227 0.26949 0.55497 0.0
Co476 Co 0.19952 0.8781 0.64263 0.0
Co477 Co 0.16753 0.94211 0.59072 0.0
C478 C 0.13843 0.86248 0.58854 0.0
O479 O 0.16055 0.85079 0.61575 0.0
O480 O 0.13808 0.89627 0.57902 0.0
C481 C 0.20587 0.81971 0.69919 0.0
O482 O 0.17005 0.82321 0.69968 0.0
C483 C 0.09903 0.97833 0.57114 0.0
C484 C 0.11439 0.02045 0.5251 0.0
C485 C 0.08443 1.00348 0.54352 0.0
N486 N 0.13586 0.97982 0.56908 0.0
N487 N 0.1449 1.00555 0.54187 0.0
C488 C 0.07793 0.95091 0.59617 0.0
H489 H 0.07018 0.9277 0.57593 0.0
H490 H 0.09472 0.94056 0.62244 0.0
H491 H 0.0523 0.96336 0.60814 0.0
C492 C 0.19732 0.93061 0.70893 0.0
N493 N 0.18481 0.92069 0.67142 0.0
N494 N 0.18062 0.95005 0.64822 0.0
C495 C 0.19429 0.97905 0.66929 0.0
C496 C 0.20559 0.96752 0.70881 0.0
C497 C 0.20616 0.90457 0.74311 0.0
H498 H 0.23581 0.89838 0.7423 0.0
H499 H 0.18971 0.8794 0.74054 0.0
H500 H 0.19934 0.9174 0.77317 0.0
O501 O 0.23474 0.89065 0.59762 0.0
O502 O 0.21339 0.93575 0.55762 0.0
H503 H 0.2064 0.03653 0.67349 0.0
H504 H 0.17979 0.023 0.62825 0.0
C505 C 0.20239 0.0152 0.64952 0.0
H506 H 0.22783 0.01286 0.6308 0.0
H507 H 0.17175 0.0113 0.53276 0.0
O508 O 0.22471 0.84262 0.67847 0.0
C509 C 0.23788 0.91196 0.56626 0.0
Co510 Co 0.63532 0.20313 0.63354 0.0
Co511 Co 0.5707 0.16547 0.58804 0.0
C512 C 0.65119 0.14034 0.58128 0.0
O513 O 0.66296 0.16443 0.60605 0.0
O514 O 0.61706 0.13781 0.57383 0.0
C515 C 0.69426 0.21456 0.68918 0.0
O516 O 0.69672 0.17882 0.68653 0.0
C517 C 0.53466 0.0963 0.5734 0.0
C518 C 0.49328 0.10932 0.5258 0.0
C519 C 0.50992 0.0804 0.54644 0.0
N520 N 0.53318 0.13287 0.56882 0.0
N521 N 0.50789 0.14055 0.54073 0.0
C522 C 0.56226 0.07669 0.59953 0.0
H523 H 0.57282 0.09491 0.62423 0.0
H524 H 0.54985 0.05178 0.61357 0.0
H525 H 0.58543 0.06794 0.57957 0.0
C526 C 0.5852 0.19938 0.70375 0.0
N527 N 0.59468 0.1874 0.6658 0.0
N528 N 0.56515 0.17648 0.64611 0.0
C529 C 0.53561 0.18346 0.67037 0.0
C530 C 0.54744 0.19897 0.70768 0.0
C531 C 0.6114 0.21602 0.73375 0.0
H532 H 0.61852 0.24388 0.72289 0.0
H533 H 0.63643 0.1991 0.7357 0.0
H534 H 0.5994 0.21768 0.76528 0.0
O535 O 0.61864 0.23757 0.58992 0.0
O536 O 0.57156 0.21308 0.55612 0.0
H537 H 0.4773 0.1894 0.67974 0.0
H538 H 0.49126 0.15188 0.64662 0.0
C539 C 0.49699 0.1806 0.65547 0.0
H540 H 0.49359 0.19771 0.62714 0.0
H541 H 0.50239 0.16685 0.52968 0.0
O542 O 0.66986 0.23061 0.66783 0.0
C543 C 0.59435 0.23921 0.56159 0.0
C544 C 0.78085 0.02862 0.2256 0.0
C545 C 0.74258 0.03079 0.23131 0.0
C546 C 0.75076 0.02067 0.30613 0.0
C547 C 0.78844 0.02904 0.30135 0.0
N548 N 0.84151 0.03233 0.25774 0.0
N549 N 0.68999 0.02146 0.27472 0.0
C550 C 0.80438 0.02907 0.26117 0.0
C551 C 0.72718 0.02325 0.27085 0.0
N552 N 0.79335 0.02937 0.18574 0.0
N553 N 0.73766 0.0128 0.34489 0.0
H554 H 0.6728 0.0223 0.24884 0.0
H555 H 0.67621 0.01952 0.30295 0.0
H556 H 0.755 0.01143 0.37062 0.0
H557 H 0.71074 1.0052 0.35115 0.0
H558 H 0.82081 0.02802 0.17708 0.0
H559 H 0.82081 0.02802 0.17708 0.0
H560 H 0.85564 0.03542 0.22989 0.0
H561 H 0.8584 0.03176 0.28389 0.0
C562 C 0.49176 0.80012 0.27005 0.0
C563 C 0.4894 0.78595 0.31093 0.0
C564 C 0.49739 0.72394 0.28299 0.0
C565 C 0.48977 0.73747 0.24263 0.0
N566 N 0.481 0.78912 0.19682 0.0
N567 N 0.49295 0.73418 0.35731 0.0
C568 C 0.4885 0.77589 0.23564 0.0
C569 C 0.49431 0.74783 0.31776 0.0
N570 N 0.495 0.83699 0.26455 0.0
N571 N 0.50608 0.6879 0.28791 0.0
H572 H 0.49188 0.75098 0.38332 0.0
H573 H 0.4915 0.70639 0.36431 0.0
H574 H 0.50808 0.67028 0.26259 0.0
H575 H 0.51451 0.67646 0.31601 0.0
H576 H 0.49934 0.84936 0.23572 0.0
H577 H 0.4968 0.85471 0.2898 0.0
H578 H 0.47523 0.81647 0.19056 0.0
H579 H 0.47871 0.77226 0.17099 0.0
C580 C 0.76964 0.4799 0.32087 0.0
C581 C 0.73183 0.48718 0.31662 0.0
C582 C 0.74227 0.50465 0.24362 0.0
C583 C 0.77769 0.48882 0.24563 0.0
N584 N 0.82799 0.46708 0.2865 0.0
N585 N 0.6822 0.51109 0.27623 0.0
C586 C 0.79267 0.47926 0.28482 0.0
C587 C 0.71835 0.50198 0.27886 0.0
N588 N 0.78192 0.47208 0.35984 0.0
N589 N 0.73123 0.52025 0.20714 0.0
H590 H 0.66495 0.51021 0.30213 0.0
H591 H 0.6692 0.51874 0.2488 0.0
H592 H 0.74866 0.52178 0.18142 0.0
H593 H 0.70646 0.53387 0.20327 0.0
H594 H 0.80917 0.46715 0.36759 0.0
H595 H 0.80917 0.46715 0.36759 0.0
H596 H 0.84023 0.45571 0.31268 0.0
H597 H 0.84517 0.46802 0.26055 0.0
C598 C 0.02001 0.76132 0.3138 0.0
C599 C 0.03467 0.72583 0.30765 0.0
C600 C 0.04479 0.73992 0.23383 0.0
C601 C 0.03426 0.7768 0.24102 0.0
N602 N 1.00205 0.81987 0.28336 0.0
N603 N 0.04879 0.67755 0.26056 0.0
C604 C 0.01812 0.78638 0.27954 0.0
C605 C 0.0424 0.71385 0.2669 0.0
N606 N 0.01086 0.77179 0.3531 0.0
N607 N 0.05963 0.73052 0.19638 0.0
H608 H 0.04722 0.65853 0.28485 0.0
H609 H 0.05216 0.66597 0.23135 0.0
H610 H 0.06089 0.74854 0.1712 0.0
H611 H 0.07208 0.70547 0.19065 0.0
H612 H 1.00407 0.79842 0.36124 0.0
H613 H 0.01117 0.75345 0.37807 0.0
H614 H 0.98767 0.82819 0.30959 0.0
H615 H 1.00066 0.83829 0.25849 0.0
C616 C 0.25052 0.99534 0.80996 0.0
C617 C 0.2854 0.97936 0.80296 0.0
C618 C 0.27125 0.9752 0.72844 0.0
C619 C 0.2342 0.98322 0.73719 0.0
N620 N 0.18863 1.00599 0.78387 0.0
N621 N 0.33224 0.96075 0.7555 0.0
C622 C 0.2241 0.99586 0.77712 0.0
C623 C 0.29711 0.97233 0.76175 0.0
N624 N 0.24238 0.00801 0.84868 0.0
N625 N 0.27993 0.96853 0.68803 0.0
H626 H 0.35129 0.95996 0.77965 0.0
H627 H 0.34281 0.95213 0.72722 0.0
H628 H 0.30609 0.96263 0.67702 0.0
H629 H 0.30609 0.96263 0.67702 0.0
H630 H 0.21817 0.02134 0.85631 0.0
H631 H 0.26145 0.0072 0.87278 0.0
H632 H 0.17784 0.01239 0.81284 0.0
H633 H 0.16964 0.00751 0.75969 0.0
C634 C 0.51778 0.28492 0.76352 0.0
C635 C 0.52651 0.27331 0.80431 0.0
C636 C 0.52606 0.20957 0.78024 0.0
C637 C 0.52741 0.22215 0.73863 0.0
N638 N 0.5221 0.27211 0.6898 0.0
N639 N 0.53729 0.22387 0.85261 0.0
C640 C 0.52135 0.25984 0.72994 0.0
C641 C 0.52898 0.23526 0.81328 0.0
N642 N 0.50779 0.32043 0.75701 0.0
N643 N 0.52392 0.17288 0.78777 0.0
H644 H 0.5391 0.24183 0.87752 0.0
H645 H 0.54406 0.19701 0.86019 0.0
H646 H 0.52225 0.15404 0.76358 0.0
H647 H 0.52031 0.16162 0.81729 0.0
H648 H 0.49852 0.33045 0.72856 0.0
H649 H 0.50555 0.3389 0.78151 0.0
H650 H 0.52266 0.29967 0.68158 0.0
H651 H 0.52376 0.25454 0.66453 0.0
C652 C 0.29548 0.53565 0.79689 0.0
C653 C 0.28279 0.52836 0.75614 0.0
C654 C 0.22124 0.5151 0.7841 0.0
C655 C 0.23272 0.52748 0.82367 0.0
N656 N 0.28059 0.53877 0.87125 0.0
N657 N 0.23776 0.5005 0.71249 0.0
C658 C 0.27033 0.53363 0.83109 0.0
C659 C 0.24713 0.51369 0.75059 0.0
N660 N 0.33081 0.54708 0.80192 0.0
N661 N 0.18513 0.50699 0.77827 0.0
H662 H 0.25648 0.49996 0.68795 0.0
H663 H 0.21292 0.48783 0.70601 0.0
H664 H 0.16643 0.50679 0.80286 0.0
H665 H 0.17356 0.50122 0.74953 0.0
H666 H 0.34149 0.55723 0.82946 0.0
H667 H 0.34953 0.547 0.77735 0.0
H668 H 0.30752 0.54206 0.88118 0.0
H669 H 0.30752 0.54206 0.88118 0.0
C670 C 0.9989 0.27718 0.81333 0.0
C671 C 0.99237 0.23909 0.81042 0.0
C672 C 0.99824 0.24372 0.73464 0.0
C673 C 0.9928 0.28197 0.73761 0.0
N674 N 0.99556 0.33646 0.77844 0.0
N675 N 0.99337 0.18455 0.76955 0.0
C676 C 0.99685 0.29923 0.77659 0.0
C677 C 0.99575 0.22174 0.77139 0.0
N678 N 1.00423 0.29206 0.8516 0.0
N679 N 1.00299 0.22869 0.69633 0.0
H680 H 0.99247 0.1684 0.79639 0.0
H681 H 0.99172 0.16991 0.742 0.0
H682 H 1.0041 0.24494 0.66954 0.0
H683 H 0.00857 0.20116 0.69142 0.0
H684 H 0.01058 0.31944 0.85646 0.0
H685 H 1.00499 0.27577 0.87836 0.0
H686 H 0.9945 0.35114 0.806 0.0
H687 H 0.99497 0.35262 0.7516 0.0
C688 C 0.50019 0.0074 0.97523 0.0
C689 C 0.46966 0.01491 1.0013 0.0
C690 C 0.51187 0.03615 0.05523 0.0
C691 C 0.54201 0.02217 0.03238 0.0
N692 N 0.56441 0.99075 0.97182 0.0
N693 N 0.44704 0.03137 0.06934 0.0
C694 C 0.53613 0.00701 0.99249 0.0
C695 C 0.4756 0.0282 0.0421 0.0
N696 N 0.49488 1.00106 0.9339 0.0
N697 N 0.51784 0.05787 0.08895 0.0
H698 H 0.42012 0.02468 0.06182 0.0
H699 H 0.45064 0.03718 0.10072 0.0
H700 H 0.544 0.06564 0.09845 0.0
H701 H 0.49686 0.07152 0.1044 0.0
H702 H 0.51632 0.99874 0.91268 0.0
H703 H 0.469 1.0016 0.92022 0.0
H704 H 0.56085 0.97574 0.94472 0.0
H705 H 0.59102 0.98986 0.98352 0.0
C706 C 0.54006 0.50089 0.99033 0.0
C707 C 0.51555 0.47298 1.00383 0.0
C708 C 0.48789 0.51534 0.05388 0.0
C709 C 0.51119 0.54372 0.03892 0.0
N710 N 0.55603 0.56547 0.98978 0.0
N711 N 0.46348 0.45404 0.04457 0.0
C712 C 0.53637 0.53701 1.00626 0.0
C713 C 0.48874 0.48033 0.03461 0.0
N714 N 0.56727 0.49266 0.96267 0.0
N715 N 0.46538 0.52172 0.08708 0.0
H716 H 0.46416 0.42773 0.03224 0.0
H717 H 0.44055 0.4587 0.06301 0.0
H718 H 0.46252 0.54735 0.10071 0.0
H719 H 0.45097 0.50134 0.10279 0.0
H720 H 0.58866 0.51031 0.95512 0.0
H721 H 0.56995 0.46704 0.94899 0.0
H722 H 0.57193 0.56357 0.96303 0.0
H723 H 0.55446 0.59205 1.00123 0.0
C724 C 0.02292 0.48592 1.0134 0.0
C725 C 0.04375 0.51589 0.02826 0.0
C726 C 0.98898 0.53999 0.06364 0.0
C727 C 0.9677 0.51123 0.04671 0.0
N728 N 0.96278 0.46 1.00022 0.0
N729 N 0.04609 0.57414 0.06292 0.0
C730 C 0.98425 0.48502 1.02016 0.0
C731 C 0.02658 0.54375 0.052 0.0
N732 N 0.04026 0.45796 0.99338 0.0
N733 N 0.97356 0.56295 0.0921 0.0
H734 H 0.07393 0.57731 0.05653 0.0
H735 H 0.03429 0.59739 0.07572 0.0
H736 H 0.94609 0.56132 0.10091 0.0
H737 H 0.98841 0.58185 0.1093 0.0
H738 H 0.02764 0.43331 0.98602 0.0
H739 H 0.0682 0.45835 0.98652 0.0
H740 H 0.97236 0.44266 0.97711 0.0
H741 H 0.93448 0.45841 1.00431 0.0
C742 C 0.00915 0.04348 0.0557 0.0
C743 C 0.00885 0.05153 1.01245 0.0
C744 C 1.00746 0.98557 0.99782 0.0
C745 C 0.01155 0.97768 0.04081 0.0
N746 N 0.02626 1.00013 0.10926 0.0
N747 N 0.01625 0.02988 0.94232 0.0
C748 C 0.01533 0.00693 0.06937 0.0
C749 C 0.01064 0.02242 0.98348 0.0
N750 N 1.00185 0.07027 0.08392 0.0
N751 N 0.99924 0.95813 0.9708 0.0
H752 H 0.01911 0.05647 0.93082 0.0
H753 H 0.02132 0.00966 0.92038 0.0
H754 H 0.99636 0.93093 0.98022 0.0
H755 H 0.99225 0.96284 0.93986 0.0
H756 H 0.99799 0.06492 0.11547 0.0
H757 H 0.99582 0.09715 0.0755 0.0
H758 H 0.0329 0.02083 0.13004 0.0
H759 H 0.03269 0.97403 0.1202 0.0
C760 C 0.48233 0.52685 0.51723 0.0
C761 C 0.47063 0.50628 0.5525 0.0
C762 C 0.5328 0.48129 0.56033 0.0
C763 C 0.54509 0.50387 0.52698 0.0
N764 N 0.53305 0.55092 0.47624 0.0
N765 N 0.48522 0.46782 0.6111 0.0
C766 C 0.52021 0.5274 0.5061 0.0
C767 C 0.49603 0.48455 0.575 0.0
N768 N 0.45701 0.54525 0.49384 0.0
N769 N 0.55602 0.45596 0.57726 0.0
H770 H 0.45839 0.46891 0.62221 0.0
H771 H 0.50324 0.45511 0.63162 0.0
H772 H 0.58326 0.45317 0.56801 0.0
H773 H 0.5477 0.43583 0.59826 0.0
H774 H 0.46281 0.5574 0.46526 0.0
H775 H 0.42929 0.54637 0.50157 0.0
H776 H 0.51745 0.57167 0.46292 0.0
H777 H 0.56035 0.55133 0.4666 0.0
C778 C 0.03434 0.49154 0.55487 0.0
C779 C 0.00865 0.46796 0.53569 0.0
C780 C 0.98362 0.51994 0.49587 0.0
C781 C 0.01092 0.54299 0.51295 0.0
N782 N 0.06501 0.55048 0.55507 0.0
N783 N 0.96161 0.4581 0.48443 0.0
C784 C 0.03708 0.52869 0.54144 0.0
C785 C 0.984 0.48175 0.50522 0.0
N786 N 0.05533 0.47864 0.5869 0.0
N787 N 0.95689 0.53478 0.4713 0.0
H788 H 0.96061 0.43013 0.49084 0.0
H789 H 0.94587 0.46551 0.45882 0.0
H790 H 0.95643 0.56237 0.46288 0.0
H791 H 0.9338 0.52053 0.46155 0.0
H792 H 0.07156 0.49522 0.60553 0.0
H793 H 0.05459 0.45147 0.59693 0.0
H794 H 0.08747 0.54075 0.57165 0.0
H795 H 0.06713 0.57817 0.54755 0.0
C796 C 0.98445 0.03409 0.53608 0.0
C797 C 0.97064 0.00898 0.50636 0.0
C798 C 0.03217 0.98251 0.4984 0.0
C799 C 0.04542 1.00607 0.53001 0.0
N800 N 0.0338 0.0509 0.58284 0.0
N801 N 0.97971 0.9569 0.46221 0.0
C802 C 0.02144 0.03098 0.54988 0.0
C803 C 0.9941 0.98253 0.48832 0.0
N804 N 0.96235 0.06142 0.55052 0.0
N805 N 0.05619 0.96057 0.4775 0.0
H806 H 0.95227 0.95683 0.45322 0.0
H807 H 0.99413 0.93433 0.45147 0.0
H808 H 0.08395 0.95889 0.48483 0.0
H809 H 0.04937 0.94572 0.45116 0.0
H810 H 0.97176 0.08321 0.56822 0.0
H811 H 0.93478 0.06382 0.54258 0.0
H812 H 0.01686 0.06634 0.60194 0.0
H813 H 0.0609 0.05006 0.59303 0.0
C814 C 0.52832 0.98844 0.49435 0.0
C815 C 0.50296 0.96564 0.51565 0.0
C816 C 0.48026 0.01863 0.55481 0.0
C817 C 0.50723 0.04094 0.53547 0.0
N818 N 0.55984 0.04687 0.49044 0.0
N819 N 0.45789 0.95736 0.56973 0.0
C820 C 0.53213 0.02575 0.50627 0.0
C821 C 0.47975 0.98031 0.54688 0.0
N822 N 0.54791 0.97467 0.46175 0.0
N823 N 0.4547 0.03429 0.58019 0.0
H824 H 0.45633 0.92929 0.56445 0.0
H825 H 0.44328 0.96545 0.59589 0.0
H826 H 0.45497 0.062 0.58768 0.0
H827 H 0.43178 0.02057 0.5916 0.0
H828 H 0.5637 0.99066 0.44173 0.0
H829 H 0.54641 0.94734 0.45279 0.0
H830 H 0.5815 0.03652 0.47306 0.0
H831 H 0.56263 0.07465 0.49684 0.0
C832 C 0.60518 0.24869 0.04951 0.0
C833 C 0.60363 0.24562 1.00547 0.0
C834 C 0.62833 0.18349 1.01057 0.0
C835 C 0.62775 0.18535 0.05476 0.0
N836 N 0.60637 0.21662 0.11582 0.0
N837 N 0.60135 0.20524 0.94656 0.0
C838 C 0.61298 0.21695 0.07405 0.0
C839 C 0.61085 0.21128 0.98696 0.0
N840 N 0.60171 0.28204 0.06795 0.0
N841 N 0.64848 0.15748 0.99058 0.0
H842 H 0.5876 0.22471 0.92864 0.0
H843 H 0.60338 0.17962 0.9327 0.0
H844 H 0.66524 0.13878 1.00584 0.0
H845 H 0.65222 0.15748 0.95846 0.0
H846 H 0.60679 0.28625 0.09941 0.0
H847 H 0.59689 0.30612 0.05144 0.0
H848 H 0.59279 0.2377 0.13108 0.0
H849 H 0.61112 0.19359 0.13433 0.0
C850 C 0.27775 0.60145 0.06284 0.0
C851 C 0.27876 0.60096 1.01859 0.0
C852 C 0.34165 0.62459 1.02031 0.0
C853 C 0.34158 0.62302 0.06456 0.0
N854 N 0.31305 0.5991 0.12658 0.0
N855 N 0.31649 0.59974 0.95703 0.0
C856 C 0.3108 0.60761 0.08529 0.0
C857 C 0.31243 0.60823 0.99803 0.0
N858 N 0.24521 0.59897 0.0837 0.0
N859 N 0.36739 0.64451 0.99917 0.0
H860 H 0.29595 0.5868 0.9401 0.0
H861 H 0.34153 0.60172 0.94152 0.0
H862 H 0.38752 0.65999 1.01356 0.0
H863 H 0.36604 0.64915 0.96722 0.0
H864 H 0.24297 0.60318 0.11559 0.0
H865 H 0.21995 0.59645 0.06908 0.0
H866 H 0.29248 0.58503 0.14252 0.0
H867 H 0.33714 0.60254 0.14355 0.0
C868 C 0.91899 0.31513 1.00806 0.0
C869 C 0.91542 0.27923 1.02399 0.0
C870 C 0.89104 0.30471 0.08879 0.0
C871 C 0.88598 0.33916 0.06872 0.0
N872 N 0.8923 0.37518 1.00505 0.0
N873 N 0.8979 0.23916 0.08026 0.0
C874 C 0.89997 0.34429 0.02756 0.0
C875 C 0.90208 0.27381 0.06496 0.0
N876 N 0.93961 0.32099 0.9732 0.0
N877 N 0.88556 0.30165 0.13066 0.0
H878 H 0.90669 0.21611 0.06419 0.0
H879 H 0.88402 0.23327 0.10782 0.0
H880 H 0.87891 0.32407 0.1491 0.0
H881 H 0.89147 0.278 0.14755 0.0
H882 H 0.94605 0.34703 0.96201 0.0
H883 H 0.9535 0.29978 0.95836 0.0
H884 H 0.89865 0.37791 0.97361 0.0
H885 H 0.8763 0.39669 1.01557 0.0
C886 C 0.20601 0.91664 1.00077 0.0
C887 C 0.24093 0.92172 1.01869 0.0
C888 C 0.21252 0.91344 0.08734 0.0
C889 C 0.18067 0.89846 0.06828 0.0
N890 N 0.15338 0.8777 1.00356 0.0
N891 N 0.27789 0.9241 0.08075 0.0
C892 C 0.17849 0.89855 1.02406 0.0
C893 C 0.24434 0.92061 0.06261 0.0
N894 N 0.19997 0.9269 0.96052 0.0
N895 N 0.21239 0.9208 0.12886 0.0
H896 H 0.3016 0.92996 0.06393 0.0
H897 H 0.28239 0.91903 0.11223 0.0
H898 H 0.18911 0.91724 0.14731 0.0
H899 H 0.2339 0.93411 0.14373 0.0
H900 H 0.17411 0.9257 0.94684 0.0
H901 H 0.22002 0.94018 0.94279 0.0
H902 H 0.15331 0.8751 0.97131 0.0
H903 H 0.13608 0.85907 1.01819 0.0
C904 C 0.61463 0.33689 0.53642 0.0
C905 C 0.61953 0.33608 0.49241 0.0
C906 C 0.59827 0.27218 0.49181 0.0
C907 C 0.5938 0.27316 0.53561 0.0
N908 N 0.58341 0.31026 0.59588 0.0
N909 N 0.60243 0.30749 0.42795 0.0
C910 C 0.59683 0.30702 0.55643 0.0
C911 C 0.60667 0.3052 0.47003 0.0
N912 N 0.62964 0.36397 0.56006 0.0
N913 N 0.59703 0.23971 0.47114 0.0
H914 H 0.60697 0.33175 0.41146 0.0
H915 H 0.59049 0.2868 0.41042 0.0
H916 H 0.5909 0.21488 0.48553 0.0
H917 H 0.60458 0.23716 0.44005 0.0
H918 H 0.62999 0.36292 0.59243 0.0
H919 H 0.64497 0.38565 0.54839 0.0
H920 H 0.58201 0.33516 0.6114 0.0
H921 H 0.56997 0.28873 0.61099 0.0
C922 C 0.17479 0.60299 0.53323 0.0
C923 C 0.1797 0.61273 0.49049 0.0
C924 C 0.24445 0.59447 0.495 0.0
C925 C 0.23962 0.58642 0.53778 0.0
N926 N 0.19829 0.56861 0.5922 0.0
N927 N 0.2152 0.60375 0.42815 0.0
C928 C 0.20389 0.58534 0.55467 0.0
C929 C 0.21326 0.60364 0.47051 0.0
N930 N 0.14434 0.61341 0.55492 0.0
N931 N 0.27882 0.59573 0.4783 0.0
H932 H 0.1924 0.60909 0.40955 0.0
H933 H 0.23807 0.59467 0.41179 0.0
H934 H 0.30211 0.58816 0.49491 0.0
H935 H 0.28428 0.60602 0.44866 0.0
H936 H 0.14208 0.61045 0.58704 0.0
H937 H 0.12252 0.62793 0.54247 0.0
H938 H 0.17231 0.56403 0.6047 0.0
H939 H 0.21956 0.55584 0.60838 0.0
C940 C 0.90725 0.17341 0.52341 0.0
C941 C 0.89773 0.17752 0.48058 0.0
C942 C 0.91608 0.24222 0.48319 0.0
C943 C 0.92435 0.23807 0.52595 0.0
N944 N 0.9421 0.19755 0.58124 0.0
N945 N 0.907 0.21188 0.41722 0.0
C946 C 0.9252 0.20269 0.54384 0.0
C947 C 0.90693 0.21067 0.45962 0.0
N948 N 0.89636 0.14358 0.54613 0.0
N949 N 0.91457 0.27625 0.46562 0.0
H950 H 0.90176 0.18881 0.39924 0.0
H951 H 0.91616 0.23446 0.40023 0.0
H952 H 0.92178 0.29989 0.48156 0.0
H953 H 0.90418 0.28109 0.43595 0.0
H954 H 0.89927 0.14197 0.57829 0.0
H955 H 0.88134 0.12182 0.53454 0.0
H956 H 0.94646 0.17177 0.59431 0.0
H957 H 0.95526 0.21889 0.59669 0.0
C958 C 0.3005 0.85209 0.50393 0.0
C959 C 0.3266 0.87719 0.48762 0.0
C960 C 0.2941 0.92738 0.52242 0.0
C961 C 0.26656 0.90234 0.53538 0.0
N962 N 0.2379 0.84342 0.52576 0.0
N963 N 0.34381 0.93966 0.47387 0.0
C964 C 0.268 0.86551 0.52205 0.0
C965 C 0.3222 0.91523 0.49471 0.0
N966 N 0.30738 0.81533 0.50408 0.0
N967 N 0.29412 0.9622 0.53742 0.0
H968 H 0.36323 0.93135 0.45211 0.0
H969 H 0.33999 0.96785 0.4751 0.0
H970 H 0.2738 0.97185 0.55736 0.0
H971 H 0.31555 0.98053 0.53238 0.0
H972 H 0.29055 0.79646 0.5193 0.0
H973 H 0.3318 0.80402 0.4934 0.0
H974 H 0.2367 0.8173 0.51305 0.0
H975 H 0.2128 0.85271 0.53707 0.0
C976 C 0.41743 0.80661 0.05308 0.0
C977 C 0.42179 0.77169 0.03497 0.0
C978 C 0.40386 0.79828 0.96762 0.0
C979 C 0.39144 0.83039 0.98798 0.0
N980 N 0.38173 0.86191 0.05339 0.0
N981 N 0.41762 0.7337 0.97394 0.0
C982 C 0.39756 0.83414 0.03149 0.0
C983 C 0.41523 0.76741 0.99173 0.0
N984 N 0.43176 0.81317 0.09148 0.0
N985 N 0.40513 0.7974 0.92522 0.0
H986 H 0.42675 0.71059 0.98981 0.0
H987 H 0.4084 0.72825 0.94399 0.0
H988 H 0.39811 0.81989 0.90679 0.0
H989 H 0.4168 0.77597 0.90864 0.0
H990 H 0.43219 0.83905 0.10485 0.0
H991 H 0.44686 0.79348 0.10763 0.0
H992 H 0.38248 0.86321 0.08571 0.0
H993 H 0.36437 0.88139 0.04044 0.0
C994 C 0.70926 0.43882 1.01324 0.0
C995 C 0.74339 0.42041 1.01489 0.0
C996 C 0.71928 0.37222 0.97053 0.0
C997 C 0.68529 0.39123 0.96674 0.0
N998 N 0.65178 0.44732 0.97644 0.0
N999 N 0.78426 0.37663 0.98454 0.0
C1000 C 0.68143 0.42611 0.98559 0.0
C1001 C 0.74956 0.3899 0.98921 0.0
N1002 N 0.70311 0.4676 0.03908 0.0
N1003 N 0.72196 0.33604 0.9604 0.0
H1004 H 0.80686 0.38895 0.99854 0.0
H1005 H 0.79085 0.35612 0.96346 0.0
H1006 H 0.69969 0.32001 0.95174 0.0
H1007 H 0.74537 0.32052 0.96608 0.0
H1008 H 0.67749 0.47964 0.04292 0.0
H1009 H 0.72366 0.47821 0.05806 0.0
H1010 H 0.64889 0.47413 0.98667 0.0
H1011 H 0.63171 0.43917 0.95542 0.0
C1012 C 0.08481 0.71973 0.03559 0.0
C1013 C 0.10982 0.74877 0.04311 0.0
C1014 C 0.15915 0.71306 1.01148 0.0
C1015 C 0.13372 0.68559 0.99986 0.0
N1016 N 0.07135 0.66449 0.99649 0.0
N1017 N 0.16857 0.77649 0.02849 0.0
C1018 C 0.09616 0.68935 1.01072 0.0
C1019 C 0.14625 0.74644 0.02794 0.0
N1020 N 0.05085 0.7205 0.05339 0.0
N1021 N 0.19599 0.70664 1.00883 0.0
H1022 H 0.16014 0.8018 0.03972 0.0
H1023 H 0.19404 0.7773 1.01385 0.0
H1024 H 0.20695 0.68182 0.99906 0.0
H1025 H 0.21561 0.72433 1.02093 0.0
H1026 H 0.03274 0.6985 0.05281 0.0
H1027 H 0.04173 0.74243 0.07121 0.0
H1028 H 0.04315 0.6674 0.99992 0.0
H1029 H 0.07907 0.64215 0.97853 0.0
C1030 C 0.80893 0.09875 0.04254 0.0
C1031 C 0.77413 0.09804 1.02352 0.0
C1032 C 0.8028 0.11743 0.95817 0.0
C1033 C 0.83474 0.12806 0.98035 0.0
N1034 N 0.86541 0.13209 0.04753 0.0
N1035 N 0.73747 0.10576 0.9619 0.0
C1036 C 0.83767 0.1188 1.02341 0.0
C1037 C 0.77096 0.10634 0.98064 0.0
N1038 N 0.81377 0.08179 0.08005 0.0
N1039 N 0.80307 0.11763 0.91577 0.0
H1040 H 0.71393 0.09647 0.97698 0.0
H1041 H 0.73292 0.11608 0.9321 0.0
H1042 H 0.82648 0.12423 0.89861 0.0
H1043 H 0.78153 0.10755 0.89798 0.0
H1044 H 0.83935 0.07892 0.09403 0.0
H1045 H 0.79266 0.06724 0.09462 0.0
H1046 H 0.86598 0.12875 0.0797 0.0
H1047 H 0.88563 0.14994 0.03715 0.0
C1048 C 0.41102 0.70075 0.50113 0.0
C1049 C 0.41324 0.73621 0.51836 0.0
C1050 C 0.39792 0.70992 0.58665 0.0
C1051 C 0.38751 0.67659 0.56746 0.0
N1052 N 0.37951 0.64291 0.5031 0.0
N1053 N 0.40562 0.77526 0.57814 0.0
C1054 C 0.39343 0.67229 0.52391 0.0
C1055 C 0.40647 0.74101 0.56149 0.0
N1056 N 0.4253 0.69443 0.46258 0.0
N1057 N 0.39973 0.71181 0.62897 0.0
H1058 H 0.41125 0.79891 0.56112 0.0
H1059 H 0.39646 0.78043 0.60822 0.0
H1060 H 0.39469 0.68922 0.64812 0.0
H1061 H 0.41006 0.73444 0.64462 0.0
H1062 H 0.4274 0.66834 0.44993 0.0
H1063 H 0.43871 0.71475 0.44542 0.0
H1064 H 0.37986 0.64103 0.47081 0.0
H1065 H 0.36411 0.62224 0.51692 0.0
C1066 C 0.80967 0.41512 0.49889 0.0
C1067 C 0.77543 0.41692 0.51947 0.0
C1068 C 0.80631 0.40068 0.58464 0.0
C1069 C 0.83791 0.38986 0.56197 0.0
N1070 N 0.86728 0.38345 0.49442 0.0
N1071 N 0.74064 0.40966 0.58299 0.0
C1072 C 0.83944 0.39687 0.51834 0.0
C1073 C 0.77361 0.40995 0.56288 0.0
N1074 N 0.81344 0.43031 0.46024 0.0
N1075 N 0.80766 0.40225 0.62699 0.0
H1076 H 0.71602 0.41625 0.5685 0.0
H1077 H 0.73748 0.40037 0.61346 0.0
H1078 H 0.83156 0.39667 0.6436 0.0
H1079 H 0.78644 0.41277 0.645 0.0
H1080 H 0.8386 0.43263 0.44508 0.0
H1081 H 0.79203 0.44423 0.44564 0.0
H1082 H 0.86698 0.38462 0.46206 0.0
H1083 H 0.88888 0.36787 0.50577 0.0
C1084 C 0.09877 0.80662 0.49833 0.0
C1085 C 0.09779 0.77188 0.51786 0.0
C1086 C 0.10547 0.80219 0.58497 0.0
C1087 C 0.11686 0.83485 0.56429 0.0
N1088 N 0.12689 0.86598 0.49772 0.0
N1089 N 0.1007 0.7362 0.58108 0.0
C1090 C 0.11341 0.837 0.52006 0.0
C1091 C 0.10052 0.76951 0.56171 0.0
N1092 N 0.08644 0.81031 0.45847 0.0
N1093 N 0.09939 0.80249 0.62683 0.0
H1094 H 0.09688 0.7117 0.5653 0.0
H1095 H 0.10706 0.73283 0.61243 0.0
H1096 H 0.10117 0.82642 0.64423 0.0
H1097 H 0.08862 0.78022 0.64312 0.0
H1098 H 0.08341 0.83562 0.4438 0.0
H1099 H 0.07537 0.78839 0.44204 0.0
H1100 H 0.12877 0.86579 0.4654 0.0
H1101 H 0.13931 0.8889 0.51022 0.0
C1102 C 0.71109 0.10643 0.57911 0.0
C1103 C 0.67867 0.11775 0.55814 0.0
C1104 C 0.70565 0.09536 0.49318 0.0
C1105 C 0.74054 0.09404 0.51218 0.0
N1106 N 0.77689 0.09864 0.57449 0.0
N1107 N 0.64728 0.12574 0.49184 0.0
C1108 C 0.74339 0.09889 0.55572 0.0
C1109 C 0.676 0.11217 0.51436 0.0
N1110 N 0.71091 0.10276 0.62135 0.0
N1111 N 0.70126 0.0815 0.45419 0.0
H1112 H 0.6256 0.14044 0.50422 0.0
H1113 H 0.64681 0.12561 0.45947 0.0
H1114 H 0.72274 0.06897 0.4382 0.0
H1115 H 0.67575 0.07883 0.44003 0.0
H1116 H 0.73287 0.092 0.63804 0.0
H1117 H 0.68724 0.10658 0.63903 0.0
H1118 H 0.78081 0.10649 0.60523 0.0
H1119 H 0.80107 0.09273 0.5587 0.0
C1120 C 0.7835 0.27203 0.22606 0.0
C1121 C 0.7614 0.30167 0.2134 0.0
C1122 C 0.71008 0.26111 0.19982 0.0
C1123 C 0.73421 0.23081 0.20411 0.0
N1124 N 0.79228 0.2064 0.22694 0.0
N1125 N 0.70043 0.32548 0.21299 0.0
C1126 C 0.77039 0.23593 0.21954 0.0
C1127 C 0.72343 0.29643 0.20871 0.0
N1128 N 0.81581 0.27856 0.24597 0.0
N1129 N 0.67581 0.25696 0.18338 0.0
H1130 H 0.7103 0.35106 0.22154 0.0
H1131 H 0.67199 0.32314 0.21344 0.0
H1132 H 0.66483 0.23196 0.17451 0.0
H1133 H 0.65918 0.27894 0.17508 0.0
H1134 H 0.8329 0.25824 0.25766 0.0
H1135 H 0.82313 0.30463 0.25587 0.0
H1136 H 0.82013 0.20801 0.23337 0.0
H1137 H 0.78241 0.17981 0.22602 0.0
C1138 C 0.22833 0.73195 0.20794 0.0
C1139 C 0.22875 0.76806 0.19173 0.0
C1140 C 0.29356 0.77385 0.2079 0.0
C1141 C 0.29467 0.7355 0.21275 0.0
N1142 N 0.26315 0.68408 0.24266 0.0
N1143 N 0.2588 0.82645 0.18415 0.0
C1144 C 0.26189 0.71631 0.22119 0.0
C1145 C 0.26038 0.7903 0.19504 0.0
N1146 N 0.19655 0.71221 0.20831 0.0
N1147 N 0.32411 0.79396 0.21634 0.0
H1148 H 0.23422 0.8395 0.17679 0.0
H1149 H 0.28168 0.8433 0.18155 0.0
H1150 H 0.3475 0.78174 0.22871 0.0
H1151 H 0.3251 0.82238 0.21547 0.0
H1152 H 0.19529 0.68447 0.21561 0.0
H1153 H 0.17139 0.72353 0.19992 0.0
H1154 H 0.23997 0.66966 0.25214 0.0
H1155 H 0.28757 0.67441 0.25546 0.0
C1156 C 0.72405 0.26409 0.32207 0.0
C1157 C 0.74118 0.29483 0.3398 0.0
C1158 C 0.79886 0.2619 0.34567 0.0
C1159 C 0.78 0.22917 0.33567 0.0
N1160 N 0.72812 0.19947 0.30471 0.0
N1161 N 0.79816 0.32795 0.34273 0.0
C1162 C 0.74369 0.23054 0.31994 0.0
C1163 C 0.77978 0.29545 0.34333 0.0
N1164 N 0.68948 0.2684 0.30705 0.0
N1165 N 0.83395 0.2609 0.36033 0.0
H1166 H 0.78487 0.35268 0.33707 0.0
H1167 H 0.82663 0.32986 0.34193 0.0
H1168 H 0.8495 0.23711 0.36193 0.0
H1169 H 0.84694 0.28352 0.37323 0.0
H1170 H 0.67445 0.24842 0.29166 0.0
H1171 H 0.67445 0.24842 0.29166 0.0
H1172 H 0.70079 0.19667 0.29636 0.0
H1173 H 0.74353 0.1761 0.29942 0.0
C1174 C 0.29594 0.72421 0.33824 0.0
C1175 C 0.29493 0.76248 0.3317 0.0
C1176 C 0.23021 0.7579 0.31408 0.0
C1177 C 0.22947 0.72376 0.33496 0.0
N1178 N 0.26193 0.67119 0.36157 0.0
N1179 N 0.26547 0.81201 0.2953 0.0
C1180 C 0.26252 0.70542 0.34444 0.0
C1181 C 0.26337 0.77822 0.31337 0.0
N1182 N 0.32855 0.70612 0.33765 0.0
N1183 N 0.19939 0.76999 0.29459 0.0
H1184 H 0.29059 0.82452 0.28908 0.0
H1185 H 0.24301 0.82682 0.28474 0.0
H1186 H 0.17679 0.75292 0.29138 0.0
H1187 H 0.1973 0.79453 0.27831 0.0
H1188 H 0.33065 0.67775 0.33953 0.0
H1189 H 0.35288 0.71938 0.32973 0.0
H1190 H 0.28513 0.65849 0.37373 0.0
H1191 H 0.23786 0.65616 0.36517 0.0
C1192 C 0.28884 0.75311 0.84022 0.0
C1193 C 0.26845 0.78621 0.8388 0.0
C1194 C 0.21271 0.75181 0.82398 0.0
C1195 C 0.23148 0.71937 0.83475 0.0
N1196 N 0.28861 0.68783 0.82693 0.0
N1197 N 0.21262 0.81706 0.81846 0.0
C1198 C 0.27015 0.71956 0.83412 0.0
C1199 C 0.23102 0.78554 0.827 0.0
N1200 N 0.3251 0.75326 0.85071 0.0
N1201 N 0.17772 0.75132 0.80958 0.0
H1202 H 0.22558 0.84225 0.81755 0.0
H1203 H 0.18491 0.81752 0.81052 0.0
H1204 H 0.16364 0.72737 0.80226 0.0
H1205 H 0.16364 0.72737 0.80226 0.0
H1206 H 0.33985 0.72951 0.85701 0.0
H1207 H 0.34004 0.77708 0.85577 0.0
H1208 H 0.31688 0.68658 0.82279 0.0
H1209 H 0.27478 0.66368 0.81988 0.0
C1210 C 0.75909 0.2241 0.83915 0.0
C1211 C 0.79149 0.24531 0.83404 0.0
C1212 C 0.75489 0.29668 0.80794 0.0
C1213 C 0.72323 0.278 0.82161 0.0
N1214 N 0.69418 0.21924 0.82465 0.0
N1215 N 0.82104 0.29985 0.80778 0.0
C1216 C 0.725 0.23998 0.82878 0.0
C1217 C 0.78967 0.28091 0.81605 0.0
N1218 N 0.7603 0.19016 0.85713 0.0
N1219 N 0.75135 0.32825 0.78545 0.0
H1220 H 0.84665 0.2878 0.80969 0.0
H1221 H 0.82187 0.32742 0.79971 0.0
H1222 H 0.72589 0.33738 0.77505 0.0
H1223 H 0.77318 0.34262 0.77245 0.0
H1224 H 0.73694 0.1757 0.86605 0.0
H1225 H 0.78445 0.17736 0.86614 0.0
H1226 H 0.69412 0.19079 0.82628 0.0
H1227 H 0.66967 0.23056 0.81415 0.0
C1228 C 0.28227 0.75412 0.72193 0.0
C1229 C 0.26326 0.72039 0.71873 0.0
C1230 C 0.20492 0.75245 0.71465 0.0
C1231 C 0.22386 0.78614 0.71535 0.0
N1232 N 0.27763 0.81844 0.73823 0.0
N1233 N 0.20709 0.68804 0.73196 0.0
C1234 C 0.26167 0.78679 0.72526 0.0
C1235 C 0.22461 0.71971 0.72162 0.0
N1236 N 0.31957 0.75556 0.7189 0.0
N1237 N 0.16868 0.75228 0.70477 0.0
H1238 H 0.22166 0.66494 0.74085 0.0
H1239 H 0.17907 0.68626 0.73769 0.0
H1240 H 0.15321 0.7287 0.69997 0.0
H1241 H 0.15321 0.7287 0.69997 0.0
H1242 H 0.33401 0.78003 0.71589 0.0
H1243 H 0.33611 0.73252 0.71676 0.0
H1244 H 0.30449 0.81983 0.749 0.0
H1245 H 0.26242 0.84207 0.7432 0.0
C1246 C 0.78939 0.23698 0.72275 0.0
C1247 C 0.79104 0.27261 0.70484 0.0
C1248 C 0.72436 0.27469 0.70314 0.0
C1249 C 0.72375 0.23644 0.70912 0.0
N1250 N 0.75095 0.18647 0.7464 0.0
N1251 N 0.75934 0.32598 0.67782 0.0
C1252 C 0.75495 0.219 0.72584 0.0
C1253 C 0.75831 0.29211 0.69597 0.0
N1254 N 0.82077 0.22037 0.73588 0.0
N1255 N 0.69268 0.29427 0.70566 0.0
H1256 H 0.78347 0.33998 0.67115 0.0
H1257 H 0.73606 0.33909 0.66644 0.0
H1258 H 0.66811 0.2821 0.71479 0.0
H1259 H 0.69187 0.32274 0.70454 0.0
H1260 H 0.82255 0.19313 0.74508 0.0
H1261 H 0.84542 0.23441 0.7378 0.0
H1262 H 0.77214 0.1724 0.7609 0.0
H1263 H 0.72513 0.1756 0.753 0.0
loop_
_geom_bond_atom_site_label_1
_geom_bond_atom_site_label_2
_geom_bond_distance
_geom_bond_site_symmetry_2
_ccdc_geom_bond_type
Co0 O3 1.970 . S
Co0 N17 1.989 . S
Co0 O25 1.967 . S
Co0 O32 1.920 . S
Co1 O4 1.966 . S
Co1 N10 2.022 . S
Co1 N18 1.993 . S
Co1 O26 1.941 . S
C2 O3 1.258 . S
C2 O4 1.263 . S
O3 Co0 1.970 . S
O3 C2 1.258 . S
O4 Co1 1.966 . S
O4 C2 1.263 . S
C5 O6 1.235 . S
C5 O32 1.289 . S
O6 C5 1.235 . S
C7 C9 1.400 1_545 S
C7 N10 1.351 . S
C7 C12 1.501 . S
C8 C9 1.387 . S
C8 N11 1.341 . S
C9 C7 1.400 1_565 S
C9 C8 1.387 . S
N10 Co1 2.022 . S
N10 C7 1.351 . S
N10 N11 1.365 1_545 S
N11 C8 1.341 . S
N11 N10 1.365 1_565 S
N11 H31 0.862 . S
C12 C7 1.501 . S
C12 H13 0.961 . S
C12 H14 0.961 . S
C12 H15 0.960 . S
H13 C12 0.961 . S
H14 C12 0.961 . S
H15 C12 0.960 . S
C16 N17 1.342 . S
C16 C20 1.401 . S
C16 C21 1.499 . S
N17 Co0 1.989 . S
N17 C16 1.342 . S
N17 N18 1.388 . S
N18 Co1 1.993 . S
N18 N17 1.388 . S
N18 C19 1.346 . S
C19 N18 1.346 . S
C19 C20 1.396 . S
C19 C29 1.510 . S
C20 C16 1.401 . S
C20 C19 1.396 . S
C21 C16 1.499 . S
C21 H22 0.959 . S
C21 H23 0.960 . S
C21 H24 0.961 . S
H22 C21 0.959 . S
H23 C21 0.960 . S
H24 C21 0.961 . S
O25 Co0 1.967 . S
O25 C33 1.258 . S
O26 Co1 1.941 . S
O26 C33 1.266 . S
H27 C29 0.959 . S
H28 C29 0.961 . S
C29 C19 1.510 . S
C29 H27 0.959 . S
C29 H28 0.961 . S
C29 H30 0.960 . S
H30 C29 0.960 . S
H31 N11 0.862 . S
O32 Co0 1.920 . S
O32 C5 1.289 . S
C33 O25 1.258 . S
C33 O26 1.266 . S
Co34 O37 1.970 . S
Co34 N51 1.989 . S
Co34 O59 1.967 . S
Co34 O66 1.920 . S
Co35 O38 1.966 . S
Co35 N44 2.022 . S
Co35 N52 1.993 . S
Co35 O60 1.941 . S
C36 O37 1.258 . S
C36 O38 1.263 . S
O37 Co34 1.970 . S
O37 C36 1.258 . S
O38 Co35 1.966 . S
O38 C36 1.263 . S
C39 O40 1.235 . S
C39 O66 1.289 . S
O40 C39 1.235 . S
C41 C43 1.400 . S
C41 N44 1.351 . S
C41 C46 1.501 . S
C42 C43 1.387 . S
C42 N45 1.341 . S
C43 C41 1.400 . S
C43 C42 1.387 . S
N44 Co35 2.022 . S
N44 C41 1.351 . S
N44 N45 1.365 . S
N45 C42 1.341 . S
N45 N44 1.365 . S
N45 H65 0.862 . S
C46 C41 1.501 . S
C46 H47 0.961 . S
C46 H48 0.961 . S
C46 H49 0.960 . S
H47 C46 0.961 . S
H48 C46 0.961 . S
H49 C46 0.960 . S
C50 N51 1.342 . S
C50 C54 1.401 . S
C50 C55 1.499 . S
N51 Co34 1.989 . S
N51 C50 1.342 . S
N51 N52 1.388 . S
N52 Co35 1.993 . S
N52 N51 1.388 . S
N52 C53 1.346 . S
C53 N52 1.346 . S
C53 C54 1.396 . S
C53 C63 1.510 . S
C54 C50 1.401 . S
C54 C53 1.396 . S
C55 C50 1.499 . S
C55 H56 0.959 . S
C55 H57 0.960 . S
C55 H58 0.961 . S
H56 C55 0.959 . S
H57 C55 0.960 . S
H58 C55 0.961 . S
O59 Co34 1.967 . S
O59 C67 1.258 . S
O60 Co35 1.941 . S
O60 C67 1.266 . S
H61 C63 0.959 . S
H62 C63 0.961 . S
C63 C53 1.510 . S
C63 H61 0.959 . S
C63 H62 0.961 . S
C63 H64 0.960 . S
H64 C63 0.960 . S
H65 N45 0.862 . S
O66 Co34 1.920 . S
O66 C39 1.289 . S
C67 O59 1.258 . S
C67 O60 1.266 . S
Co68 O71 1.970 . S
Co68 N85 1.989 . S
Co68 O93 1.967 . S
Co68 O100 1.920 . S
Co69 O72 1.966 . S
Co69 N78 2.022 . S
Co69 N86 1.993 . S
Co69 O94 1.941 . S
C70 O71 1.258 . S
C70 O72 1.263 . S
O71 Co68 1.970 . S
O71 C70 1.258 . S
O72 Co69 1.966 . S
O72 C70 1.263 . S
C73 O74 1.235 . S
C73 O100 1.289 . S
O74 C73 1.235 . S
C75 C77 1.400 . S
C75 N78 1.351 . S
C75 C80 1.501 . S
C76 C77 1.387 . S
C76 N79 1.341 . S
C77 C75 1.400 . S
C77 C76 1.387 . S
N78 Co69 2.022 . S
N78 C75 1.351 . S
N78 N79 1.365 . S
N79 C76 1.341 . S
N79 N78 1.365 . S
N79 H99 0.862 . S
C80 C75 1.501 . S
C80 H81 0.961 . S
C80 H82 0.961 . S
C80 H83 0.960 . S
H81 C80 0.961 . S
H82 C80 0.961 . S
H83 C80 0.960 . S
C84 N85 1.342 . S
C84 C88 1.401 . S
C84 C89 1.499 . S
N85 Co68 1.989 . S
N85 C84 1.342 . S
N85 N86 1.388 . S
N86 Co69 1.993 . S
N86 N85 1.388 . S
N86 C87 1.346 . S
C87 N86 1.346 . S
C87 C88 1.396 . S
C87 C97 1.510 . S
C88 C84 1.401 . S
C88 C87 1.396 . S
C89 C84 1.499 . S
C89 H90 0.959 . S
C89 H91 0.960 . S
C89 H92 0.961 . S
H90 C89 0.959 . S
H91 C89 0.960 . S
H92 C89 0.961 . S
O93 Co68 1.967 . S
O93 C101 1.258 . S
O94 Co69 1.941 . S
O94 C101 1.266 . S
H95 C97 0.959 . S
H96 C97 0.961 . S
C97 C87 1.510 . S
C97 H95 0.959 . S
C97 H96 0.961 . S
C97 H98 0.960 . S
H98 C97 0.960 . S
H99 N79 0.862 . S
O100 Co68 1.920 . S
O100 C73 1.289 . S
C101 O93 1.258 . S
C101 O94 1.266 . S
Co102 O105 1.970 . S
Co102 N119 1.989 . S
Co102 O127 1.967 . S
Co102 O134 1.920 . S
Co103 O106 1.966 . S
Co103 N112 2.022 . S
Co103 N120 1.993 . S
Co103 O128 1.941 . S
C104 O105 1.258 . S
C104 O106 1.263 . S
O105 Co102 1.970 . S
O105 C104 1.258 . S
O106 Co103 1.966 . S
O106 C104 1.263 . S
C107 O108 1.235 . S
C107 O134 1.289 . S
O108 C107 1.235 . S
C109 C111 1.400 1_455 S
C109 N112 1.351 . S
C109 C114 1.501 . S
C110 C111 1.387 . S
C110 N113 1.341 . S
C111 C109 1.400 1_655 S
C111 C110 1.387 . S
N112 Co103 2.022 . S
N112 C109 1.351 . S
N112 N113 1.365 1_455 S
N113 C110 1.341 . S
N113 N112 1.365 1_655 S
N113 H133 0.862 . S
C114 C109 1.501 . S
C114 H115 0.961 . S
C114 H116 0.961 . S
C114 H117 0.960 . S
H115 C114 0.961 . S
H116 C114 0.961 . S
H117 C114 0.960 . S
C118 N119 1.342 . S
C118 C122 1.401 . S
C118 C123 1.499 . S
N119 Co102 1.989 . S
N119 C118 1.342 . S
N119 N120 1.388 . S
N120 Co103 1.993 . S
N120 N119 1.388 . S
N120 C121 1.346 . S
C121 N120 1.346 . S
C121 C122 1.396 . S
C121 C131 1.510 . S
C122 C118 1.401 . S
C122 C121 1.396 . S
C123 C118 1.499 . S
C123 H124 0.959 . S
C123 H125 0.960 . S
C123 H126 0.961 . S
H124 C123 0.959 . S
H125 C123 0.960 . S
H126 C123 0.961 . S
O127 Co102 1.967 . S
O127 C135 1.258 . S
O128 Co103 1.941 . S
O128 C135 1.266 . S
H129 C131 0.959 . S
H130 C131 0.961 . S
C131 C121 1.510 . S
C131 H129 0.959 . S
C131 H130 0.961 . S
C131 H132 0.960 . S
H132 C131 0.960 . S
H133 N113 0.862 . S
O134 Co102 1.920 . S
O134 C107 1.289 . S
C135 O127 1.258 . S
C135 O128 1.266 . S
Co136 O139 1.970 . S
Co136 N153 1.989 . S
Co136 O161 1.967 . S
Co136 O168 1.920 . S
Co137 O140 1.966 . S
Co137 N146 2.022 . S
Co137 N154 1.993 . S
Co137 O162 1.941 . S
C138 O139 1.258 . S
C138 O140 1.263 . S
O139 Co136 1.970 . S
O139 C138 1.258 . S
O140 Co137 1.966 . S
O140 C138 1.263 . S
C141 O142 1.235 . S
C141 O168 1.289 . S
O142 C141 1.235 . S
C143 C145 1.400 . S
C143 N146 1.351 . S
C143 C148 1.501 . S
C144 C145 1.387 . S
C144 N147 1.341 . S
C145 C143 1.400 . S
C145 C144 1.387 . S
N146 Co137 2.022 . S
N146 C143 1.351 . S
N146 N147 1.365 . S
N147 C144 1.341 . S
N147 N146 1.365 . S
N147 H167 0.862 . S
C148 C143 1.501 . S
C148 H149 0.961 . S
C148 H150 0.961 . S
C148 H151 0.960 . S
H149 C148 0.961 . S
H150 C148 0.961 . S
H151 C148 0.960 . S
C152 N153 1.342 . S
C152 C156 1.401 . S
C152 C157 1.499 . S
N153 Co136 1.989 . S
N153 C152 1.342 . S
N153 N154 1.388 . S
N154 Co137 1.993 . S
N154 N153 1.388 . S
N154 C155 1.346 . S
C155 N154 1.346 . S
C155 C156 1.396 . S
C155 C165 1.510 . S
C156 C152 1.401 . S
C156 C155 1.396 . S
C157 C152 1.499 . S
C157 H158 0.959 . S
C157 H159 0.960 . S
C157 H160 0.961 . S
H158 C157 0.959 . S
H159 C157 0.960 . S
H160 C157 0.961 . S
O161 Co136 1.967 . S
O161 C169 1.258 . S
O162 Co137 1.941 . S
O162 C169 1.266 . S
H163 C165 0.959 . S
H164 C165 0.961 . S
C165 C155 1.510 . S
C165 H163 0.959 . S
C165 H164 0.961 . S
C165 H166 0.960 . S
H166 C165 0.960 . S
H167 N147 0.862 . S
O168 Co136 1.920 . S
O168 C141 1.289 . S
C169 O161 1.258 . S
C169 O162 1.266 . S
Co170 O173 1.970 . S
Co170 N187 1.989 . S
Co170 O195 1.967 . S
Co170 O202 1.920 . S
Co171 O174 1.966 . S
Co171 N180 2.022 . S
Co171 N188 1.993 . S
Co171 O196 1.941 . S
C172 O173 1.258 . S
C172 O174 1.263 . S
O173 Co170 1.970 . S
O173 C172 1.258 . S
O174 Co171 1.966 . S
O174 C172 1.263 . S
C175 O176 1.235 . S
C175 O202 1.289 . S
O176 C175 1.235 . S
C177 C179 1.400 1_455 S
C177 N180 1.351 . S
C177 C182 1.501 . S
C178 C179 1.387 . S
C178 N181 1.341 . S
C179 C177 1.400 1_655 S
C179 C178 1.387 . S
N180 Co171 2.022 . S
N180 C177 1.351 . S
N180 N181 1.365 1_455 S
N181 C178 1.341 . S
N181 N180 1.365 1_655 S
N181 H201 0.862 . S
C182 C177 1.501 . S
C182 H183 0.961 . S
C182 H184 0.961 . S
C182 H185 0.960 . S
H183 C182 0.961 . S
H184 C182 0.961 . S
H185 C182 0.960 . S
C186 N187 1.342 . S
C186 C190 1.401 . S
C186 C191 1.499 . S
N187 Co170 1.989 . S
N187 C186 1.342 . S
N187 N188 1.388 . S
N188 Co171 1.993 . S
N188 N187 1.388 . S
N188 C189 1.346 . S
C189 N188 1.346 . S
C189 C190 1.396 . S
C189 C199 1.510 . S
C190 C186 1.401 . S
C190 C189 1.396 . S
C191 C186 1.499 . S
C191 H192 0.959 . S
C191 H193 0.960 . S
C191 H194 0.961 . S
H192 C191 0.959 . S
H193 C191 0.960 . S
H194 C191 0.961 . S
O195 Co170 1.967 . S
O195 C203 1.258 . S
O196 Co171 1.941 . S
O196 C203 1.266 . S
H197 C199 0.959 . S
H198 C199 0.961 . S
C199 C189 1.510 . S
C199 H197 0.959 . S
C199 H198 0.961 . S
C199 H200 0.960 . S
H200 C199 0.960 . S
H201 N181 0.862 . S
O202 Co170 1.920 . S
O202 C175 1.289 . S
C203 O195 1.258 . S
C203 O196 1.266 . S
Co204 O207 1.970 . S
Co204 N221 1.989 . S
Co204 O229 1.967 . S
Co204 O236 1.920 . S
Co205 O208 1.966 . S
Co205 N214 2.022 . S
Co205 N222 1.993 . S
Co205 O230 1.941 . S
C206 O207 1.258 . S
C206 O208 1.263 . S
O207 Co204 1.970 . S
O207 C206 1.258 . S
O208 Co205 1.966 . S
O208 C206 1.263 . S
C209 O210 1.235 . S
C209 O236 1.289 . S
O210 C209 1.235 . S
C211 C213 1.400 1_545 S
C211 N214 1.351 . S
C211 C216 1.501 . S
C212 C213 1.387 . S
C212 N215 1.341 . S
C213 C211 1.400 1_565 S
C213 C212 1.387 . S
N214 Co205 2.022 . S
N214 C211 1.351 . S
N214 N215 1.365 1_545 S
N215 C212 1.341 . S
N215 N214 1.365 1_565 S
N215 H235 0.862 . S
C216 C211 1.501 . S
C216 H217 0.961 . S
C216 H218 0.961 . S
C216 H219 0.960 . S
H217 C216 0.961 . S
H218 C216 0.961 . S
H219 C216 0.960 . S
C220 N221 1.342 . S
C220 C224 1.401 . S
C220 C225 1.499 . S
N221 Co204 1.989 . S
N221 C220 1.342 . S
N221 N222 1.388 . S
N222 Co205 1.993 . S
N222 N221 1.388 . S
N222 C223 1.346 . S
C223 N222 1.346 . S
C223 C224 1.396 . S
C223 C233 1.510 . S
C224 C220 1.401 . S
C224 C223 1.396 . S
C225 C220 1.499 . S
C225 H226 0.959 . S
C225 H227 0.960 . S
C225 H228 0.961 . S
H226 C225 0.959 . S
H227 C225 0.960 . S
H228 C225 0.961 . S
O229 Co204 1.967 . S
O229 C237 1.258 . S
O230 Co205 1.941 . S
O230 C237 1.266 . S
H231 C233 0.959 . S
H232 C233 0.961 . S
C233 C223 1.510 . S
C233 H231 0.959 . S
C233 H232 0.961 . S
C233 H234 0.960 . S
H234 C233 0.960 . S
H235 N215 0.862 . S
O236 Co204 1.920 . S
O236 C209 1.289 . S
C237 O229 1.258 . S
C237 O230 1.266 . S
Co238 O241 1.970 . S
Co238 N255 1.989 . S
Co238 O263 1.967 . S
Co238 O270 1.920 . S
Co239 O242 1.966 . S
Co239 N248 2.022 . S
Co239 N256 1.993 . S
Co239 O264 1.941 . S
C240 O241 1.258 . S
C240 O242 1.263 . S
O241 Co238 1.970 . S
O241 C240 1.258 . S
O242 Co239 1.966 . S
O242 C240 1.263 . S
C243 O244 1.235 . S
C243 O270 1.289 . S
O244 C243 1.235 . S
C245 C247 1.400 . S
C245 N248 1.351 . S
C245 C250 1.501 . S
C246 C247 1.387 . S
C246 N249 1.341 . S
C247 C245 1.400 . S
C247 C246 1.387 . S
N248 Co239 2.022 . S
N248 C245 1.351 . S
N248 N249 1.365 . S
N249 C246 1.341 . S
N249 N248 1.365 . S
N249 H269 0.862 . S
C250 C245 1.501 . S
C250 H251 0.961 . S
C250 H252 0.961 . S
C250 H253 0.960 . S
H251 C250 0.961 . S
H252 C250 0.961 . S
H253 C250 0.960 . S
C254 N255 1.342 . S
C254 C258 1.401 . S
C254 C259 1.499 . S
N255 Co238 1.989 . S
N255 C254 1.342 . S
N255 N256 1.388 . S
N256 Co239 1.993 . S
N256 N255 1.388 . S
N256 C257 1.346 . S
C257 N256 1.346 . S
C257 C258 1.396 . S
C257 C267 1.510 . S
C258 C254 1.401 . S
C258 C257 1.396 . S
C259 C254 1.499 . S
C259 H260 0.959 . S
C259 H261 0.960 . S
C259 H262 0.961 . S
H260 C259 0.959 . S
H261 C259 0.960 . S
H262 C259 0.961 . S
O263 Co238 1.967 . S
O263 C271 1.258 . S
O264 Co239 1.941 . S
O264 C271 1.266 . S
H265 C267 0.959 . S
H266 C267 0.961 . S
C267 C257 1.510 . S
C267 H265 0.959 . S
C267 H266 0.961 . S
C267 H268 0.960 . S
H268 C267 0.960 . S
H269 N249 0.862 . S
O270 Co238 1.920 . S
O270 C243 1.289 . S
C271 O263 1.258 . S
C271 O264 1.266 . S
Co272 O275 1.970 . S
Co272 N289 1.989 . S
Co272 O297 1.967 . S
Co272 O304 1.920 . S
Co273 O276 1.966 . S
Co273 N282 2.022 . S
Co273 N290 1.993 . S
Co273 O298 1.941 . S
C274 O275 1.258 . S
C274 O276 1.263 . S
O275 Co272 1.970 . S
O275 C274 1.258 . S
O276 Co273 1.966 . S
O276 C274 1.263 . S
C277 O278 1.235 . S
C277 O304 1.289 . S
O278 C277 1.235 . S
C279 C281 1.400 1_565 S
C279 N282 1.351 . S
C279 C284 1.501 . S
C280 C281 1.387 . S
C280 N283 1.341 . S
C281 C279 1.400 1_545 S
C281 C280 1.387 . S
N282 Co273 2.022 . S
N282 C279 1.351 . S
N282 N283 1.365 1_565 S
N283 C280 1.341 . S
N283 N282 1.365 1_545 S
N283 H303 0.862 . S
C284 C279 1.501 . S
C284 H285 0.961 . S
C284 H286 0.961 . S
C284 H287 0.960 . S
H285 C284 0.961 . S
H286 C284 0.961 . S
H287 C284 0.960 . S
C288 N289 1.342 . S
C288 C292 1.401 . S
C288 C293 1.499 . S
N289 Co272 1.989 . S
N289 C288 1.342 . S
N289 N290 1.388 . S
N290 Co273 1.993 . S
N290 N289 1.388 . S
N290 C291 1.346 . S
C291 N290 1.346 . S
C291 C292 1.396 . S
C291 C301 1.510 . S
C292 C288 1.401 . S
C292 C291 1.396 . S
C293 C288 1.499 . S
C293 H294 0.959 . S
C293 H295 0.960 . S
C293 H296 0.961 . S
H294 C293 0.959 . S
H295 C293 0.960 . S
H296 C293 0.961 . S
O297 Co272 1.967 . S
O297 C305 1.258 . S
O298 Co273 1.941 . S
O298 C305 1.266 . S
H299 C301 0.959 . S
H300 C301 0.961 . S
C301 C291 1.510 . S
C301 H299 0.959 . S
C301 H300 0.961 . S
C301 H302 0.960 . S
H302 C301 0.960 . S
H303 N283 0.862 . S
O304 Co272 1.920 . S
O304 C277 1.289 . S
C305 O297 1.258 . S
C305 O298 1.266 . S
Co306 O309 1.970 . S
Co306 N323 1.989 . S
Co306 O331 1.967 . S
Co306 O338 1.920 . S
Co307 O310 1.966 . S
Co307 N316 2.022 . S
Co307 N324 1.993 . S
Co307 O332 1.941 . S
C308 O309 1.258 . S
C308 O310 1.263 . S
O309 Co306 1.970 . S
O309 C308 1.258 . S
O310 Co307 1.966 . S
O310 C308 1.263 . S
C311 O312 1.235 . S
C311 O338 1.289 . S
O312 C311 1.235 . S
C313 C315 1.400 . S
C313 N316 1.351 . S
C313 C318 1.501 . S
C314 C315 1.387 . S
C314 N317 1.341 . S
C315 C313 1.400 . S
C315 C314 1.387 . S
N316 Co307 2.022 . S
N316 C313 1.351 . S
N316 N317 1.365 . S
N317 C314 1.341 . S
N317 N316 1.365 . S
N317 H337 0.862 . S
C318 C313 1.501 . S
C318 H319 0.961 . S
C318 H320 0.961 . S
C318 H321 0.960 . S
H319 C318 0.961 . S
H320 C318 0.961 . S
H321 C318 0.960 . S
C322 N323 1.342 . S
C322 C326 1.401 . S
C322 C327 1.499 . S
N323 Co306 1.989 . S
N323 C322 1.342 . S
N323 N324 1.388 . S
N324 Co307 1.993 . S
N324 N323 1.388 . S
N324 C325 1.346 . S
C325 N324 1.346 . S
C325 C326 1.396 . S
C325 C335 1.510 . S
C326 C322 1.401 . S
C326 C325 1.396 . S
C327 C322 1.499 . S
C327 H328 0.959 . S
C327 H329 0.960 . S
C327 H330 0.961 . S
H328 C327 0.959 . S
H329 C327 0.960 . S
H330 C327 0.961 . S
O331 Co306 1.967 . S
O331 C339 1.258 . S
O332 Co307 1.941 . S
O332 C339 1.266 . S
H333 C335 0.959 . S
H334 C335 0.961 . S
C335 C325 1.510 . S
C335 H333 0.959 . S
C335 H334 0.961 . S
C335 H336 0.960 . S
H336 C335 0.960 . S
H337 N317 0.862 . S
O338 Co306 1.920 . S
O338 C311 1.289 . S
C339 O331 1.258 . S
C339 O332 1.266 . S
Co340 O343 1.970 . S
Co340 N357 1.989 . S
Co340 O365 1.967 . S
Co340 O372 1.920 . S
Co341 O344 1.966 . S
Co341 N350 2.022 . S
Co341 N358 1.993 . S
Co341 O366 1.941 . S
C342 O343 1.258 . S
C342 O344 1.263 . S
O343 Co340 1.970 . S
O343 C342 1.258 . S
O344 Co341 1.966 . S
O344 C342 1.263 . S
C345 O346 1.235 . S
C345 O372 1.289 . S
O346 C345 1.235 . S
C347 C349 1.400 . S
C347 N350 1.351 . S
C347 C352 1.501 . S
C348 C349 1.387 . S
C348 N351 1.341 . S
C349 C347 1.400 . S
C349 C348 1.387 . S
N350 Co341 2.022 . S
N350 C347 1.351 . S
N350 N351 1.365 . S
N351 C348 1.341 . S
N351 N350 1.365 . S
N351 H371 0.862 . S
C352 C347 1.501 . S
C352 H353 0.961 . S
C352 H354 0.961 . S
C352 H355 0.960 . S
H353 C352 0.961 . S
H354 C352 0.961 . S
H355 C352 0.960 . S
C356 N357 1.342 . S
C356 C360 1.401 . S
C356 C361 1.499 . S
N357 Co340 1.989 . S
N357 C356 1.342 . S
N357 N358 1.388 . S
N358 Co341 1.993 . S
N358 N357 1.388 . S
N358 C359 1.346 . S
C359 N358 1.346 . S
C359 C360 1.396 . S
C359 C369 1.510 . S
C360 C356 1.401 . S
C360 C359 1.396 . S
C361 C356 1.499 . S
C361 H362 0.959 . S
C361 H363 0.960 . S
C361 H364 0.961 . S
H362 C361 0.959 . S
H363 C361 0.960 . S
H364 C361 0.961 . S
O365 Co340 1.967 . S
O365 C373 1.258 . S
O366 Co341 1.941 . S
O366 C373 1.266 . S
H367 C369 0.959 . S
H368 C369 0.961 . S
C369 C359 1.510 . S
C369 H367 0.959 . S
C369 H368 0.961 . S
C369 H370 0.960 . S
H370 C369 0.960 . S
H371 N351 0.862 . S
O372 Co340 1.920 . S
O372 C345 1.289 . S
C373 O365 1.258 . S
C373 O366 1.266 . S
Co374 O377 1.970 . S
Co374 N391 1.989 . S
Co374 O399 1.967 . S
Co374 O406 1.920 . S
Co375 O378 1.966 . S
Co375 N384 2.022 . S
Co375 N392 1.993 . S
Co375 O400 1.941 . S
C376 O377 1.258 . S
C376 O378 1.263 . S
O377 Co374 1.970 . S
O377 C376 1.258 . S
O378 Co375 1.966 . S
O378 C376 1.263 . S
C379 O380 1.235 . S
C379 O406 1.289 . S
O380 C379 1.235 . S
C381 C383 1.400 1_655 S
C381 N384 1.351 . S
C381 C386 1.501 . S
C382 C383 1.387 . S
C382 N385 1.341 . S
C383 C381 1.400 1_455 S
C383 C382 1.387 . S
N384 Co375 2.022 . S
N384 C381 1.351 . S
N384 N385 1.365 1_655 S
N385 C382 1.341 . S
N385 N384 1.365 1_455 S
N385 H405 0.862 . S
C386 C381 1.501 . S
C386 H387 0.961 . S
C386 H388 0.961 . S
C386 H389 0.960 . S
H387 C386 0.961 . S
H388 C386 0.961 . S
H389 C386 0.960 . S
C390 N391 1.342 . S
C390 C394 1.401 . S
C390 C395 1.499 . S
N391 Co374 1.989 . S
N391 C390 1.342 . S
N391 N392 1.388 . S
N392 Co375 1.993 . S
N392 N391 1.388 . S
N392 C393 1.346 . S
C393 N392 1.346 . S
C393 C394 1.396 . S
C393 C403 1.510 . S
C394 C390 1.401 . S
C394 C393 1.396 . S
C395 C390 1.499 . S
C395 H396 0.959 . S
C395 H397 0.960 . S
C395 H398 0.961 . S
H396 C395 0.959 . S
H397 C395 0.960 . S
H398 C395 0.961 . S
O399 Co374 1.967 . S
O399 C407 1.258 . S
O400 Co375 1.941 . S
O400 C407 1.266 . S
H401 C403 0.959 . S
H402 C403 0.961 . S
C403 C393 1.510 . S
C403 H401 0.959 . S
C403 H402 0.961 . S
C403 H404 0.960 . S
H404 C403 0.960 . S
H405 N385 0.862 . S
O406 Co374 1.920 . S
O406 C379 1.289 . S
C407 O399 1.258 . S
C407 O400 1.266 . S
Co408 O411 1.970 . S
Co408 N425 1.989 . S
Co408 O433 1.967 . S
Co408 O440 1.920 . S
Co409 O412 1.966 . S
Co409 N418 2.022 . S
Co409 N426 1.993 . S
Co409 O434 1.941 . S
C410 O411 1.258 . S
C410 O412 1.263 . S
O411 Co408 1.970 . S
O411 C410 1.258 . S
O412 Co409 1.966 . S
O412 C410 1.263 . S
C413 O414 1.235 . S
C413 O440 1.289 . S
O414 C413 1.235 . S
C415 C417 1.400 . S
C415 N418 1.351 . S
C415 C420 1.501 . S
C416 C417 1.387 . S
C416 N419 1.341 . S
C417 C415 1.400 . S
C417 C416 1.387 . S
N418 Co409 2.022 . S
N418 C415 1.351 . S
N418 N419 1.365 . S
N419 C416 1.341 . S
N419 N418 1.365 . S
N419 H439 0.862 . S
C420 C415 1.501 . S
C420 H421 0.961 . S
C420 H422 0.961 . S
C420 H423 0.960 . S
H421 C420 0.961 . S
H422 C420 0.961 . S
H423 C420 0.960 . S
C424 N425 1.342 . S
C424 C428 1.401 . S
C424 C429 1.499 . S
N425 Co408 1.989 . S
N425 C424 1.342 . S
N425 N426 1.388 . S
N426 Co409 1.993 . S
N426 N425 1.388 . S
N426 C427 1.346 . S
C427 N426 1.346 . S
C427 C428 1.396 . S
C427 C437 1.510 . S
C428 C424 1.401 . S
C428 C427 1.396 . S
C429 C424 1.499 . S
C429 H430 0.959 . S
C429 H431 0.960 . S
C429 H432 0.961 . S
H430 C429 0.959 . S
H431 C429 0.960 . S
H432 C429 0.961 . S
O433 Co408 1.967 . S
O433 C441 1.258 . S
O434 Co409 1.941 . S
O434 C441 1.266 . S
H435 C437 0.959 . S
H436 C437 0.961 . S
C437 C427 1.510 . S
C437 H435 0.959 . S
C437 H436 0.961 . S
C437 H438 0.960 . S
H438 C437 0.960 . S
H439 N419 0.862 . S
O440 Co408 1.920 . S
O440 C413 1.289 . S
C441 O433 1.258 . S
C441 O434 1.266 . S
Co442 O445 1.970 . S
Co442 N459 1.989 . S
Co442 O467 1.967 . S
Co442 O474 1.920 . S
Co443 O446 1.966 . S
Co443 N452 2.022 . S
Co443 N460 1.993 . S
Co443 O468 1.941 . S
C444 O445 1.258 . S
C444 O446 1.263 . S
O445 Co442 1.970 . S
O445 C444 1.258 . S
O446 Co443 1.966 . S
O446 C444 1.263 . S
C447 O448 1.235 . S
C447 O474 1.289 . S
O448 C447 1.235 . S
C449 C451 1.400 1_655 S
C449 N452 1.351 . S
C449 C454 1.501 . S
C450 C451 1.387 . S
C450 N453 1.341 . S
C451 C449 1.400 1_455 S
C451 C450 1.387 . S
N452 Co443 2.022 . S
N452 C449 1.351 . S
N452 N453 1.365 1_655 S
N453 C450 1.341 . S
N453 N452 1.365 1_455 S
N453 H473 0.862 . S
C454 C449 1.501 . S
C454 H455 0.961 . S
C454 H456 0.961 . S
C454 H457 0.960 . S
H455 C454 0.961 . S
H456 C454 0.961 . S
H457 C454 0.960 . S
C458 N459 1.342 . S
C458 C462 1.401 . S
C458 C463 1.499 . S
N459 Co442 1.989 . S
N459 C458 1.342 . S
N459 N460 1.388 . S
N460 Co443 1.993 . S
N460 N459 1.388 . S
N460 C461 1.346 . S
C461 N460 1.346 . S
C461 C462 1.396 . S
C461 C471 1.510 . S
C462 C458 1.401 . S
C462 C461 1.396 . S
C463 C458 1.499 . S
C463 H464 0.959 . S
C463 H465 0.960 . S
C463 H466 0.961 . S
H464 C463 0.959 . S
H465 C463 0.960 . S
H466 C463 0.961 . S
O467 Co442 1.967 . S
O467 C475 1.258 . S
O468 Co443 1.941 . S
O468 C475 1.266 . S
H469 C471 0.959 . S
H470 C471 0.961 . S
C471 C461 1.510 . S
C471 H469 0.959 . S
C471 H470 0.961 . S
C471 H472 0.960 . S
H472 C471 0.960 . S
H473 N453 0.862 . S
O474 Co442 1.920 . S
O474 C447 1.289 . S
C475 O467 1.258 . S
C475 O468 1.266 . S
Co476 O479 1.970 . S
Co476 N493 1.989 . S
Co476 O501 1.967 . S
Co476 O508 1.920 . S
Co477 O480 1.966 . S
Co477 N486 2.022 . S
Co477 N494 1.993 . S
Co477 O502 1.941 . S
C478 O479 1.258 . S
C478 O480 1.263 . S
O479 Co476 1.970 . S
O479 C478 1.258 . S
O480 Co477 1.966 . S
O480 C478 1.263 . S
C481 O482 1.235 . S
C481 O508 1.289 . S
O482 C481 1.235 . S
C483 C485 1.400 1_565 S
C483 N486 1.351 . S
C483 C488 1.501 . S
C484 C485 1.387 . S
C484 N487 1.341 . S
C485 C483 1.400 1_545 S
C485 C484 1.387 . S
N486 Co477 2.022 . S
N486 C483 1.351 . S
N486 N487 1.365 1_565 S
N487 C484 1.341 . S
N487 N486 1.365 1_545 S
N487 H507 0.862 . S
C488 C483 1.501 . S
C488 H489 0.961 . S
C488 H490 0.961 . S
C488 H491 0.960 . S
H489 C488 0.961 . S
H490 C488 0.961 . S
H491 C488 0.960 . S
C492 N493 1.342 . S
C492 C496 1.401 . S
C492 C497 1.499 . S
N493 Co476 1.989 . S
N493 C492 1.342 . S
N493 N494 1.388 . S
N494 Co477 1.993 . S
N494 N493 1.388 . S
N494 C495 1.346 . S
C495 N494 1.346 . S
C495 C496 1.396 . S
C495 C505 1.510 . S
C496 C492 1.401 . S
C496 C495 1.396 . S
C497 C492 1.499 . S
C497 H498 0.959 . S
C497 H499 0.960 . S
C497 H500 0.961 . S
H498 C497 0.959 . S
H499 C497 0.960 . S
H500 C497 0.961 . S
O501 Co476 1.967 . S
O501 C509 1.258 . S
O502 Co477 1.941 . S
O502 C509 1.266 . S
H503 C505 0.959 . S
H504 C505 0.961 . S
C505 C495 1.510 . S
C505 H503 0.959 . S
C505 H504 0.961 . S
C505 H506 0.960 . S
H506 C505 0.960 . S
H507 N487 0.862 . S
O508 Co476 1.920 . S
O508 C481 1.289 . S
C509 O501 1.258 . S
C509 O502 1.266 . S
Co510 O513 1.970 . S
Co510 N527 1.989 . S
Co510 O535 1.967 . S
Co510 O542 1.920 . S
Co511 O514 1.966 . S
Co511 N520 2.022 . S
Co511 N528 1.993 . S
Co511 O536 1.941 . S
C512 O513 1.258 . S
C512 O514 1.263 . S
O513 Co510 1.970 . S
O513 C512 1.258 . S
O514 Co511 1.966 . S
O514 C512 1.263 . S
C515 O516 1.235 . S
C515 O542 1.289 . S
O516 C515 1.235 . S
C517 C519 1.400 . S
C517 N520 1.351 . S
C517 C522 1.501 . S
C518 C519 1.387 . S
C518 N521 1.341 . S
C519 C517 1.400 . S
C519 C518 1.387 . S
N520 Co511 2.022 . S
N520 C517 1.351 . S
N520 N521 1.365 . S
N521 C518 1.341 . S
N521 N520 1.365 . S
N521 H541 0.862 . S
C522 C517 1.501 . S
C522 H523 0.961 . S
C522 H524 0.961 . S
C522 H525 0.960 . S
H523 C522 0.961 . S
H524 C522 0.961 . S
H525 C522 0.960 . S
C526 N527 1.342 . S
C526 C530 1.401 . S
C526 C531 1.499 . S
N527 Co510 1.989 . S
N527 C526 1.342 . S
N527 N528 1.388 . S
N528 Co511 1.993 . S
N528 N527 1.388 . S
N528 C529 1.346 . S
C529 N528 1.346 . S
C529 C530 1.396 . S
C529 C539 1.510 . S
C530 C526 1.401 . S
C530 C529 1.396 . S
C531 C526 1.499 . S
C531 H532 0.959 . S
C531 H533 0.960 . S
C531 H534 0.961 . S
H532 C531 0.959 . S
H533 C531 0.960 . S
H534 C531 0.961 . S
O535 Co510 1.967 . S
O535 C543 1.258 . S
O536 Co511 1.941 . S
O536 C543 1.266 . S
H537 C539 0.959 . S
H538 C539 0.961 . S
C539 C529 1.510 . S
C539 H537 0.959 . S
C539 H538 0.961 . S
C539 H540 0.960 . S
H540 C539 0.960 . S
H541 N521 0.862 . S
O542 Co510 1.920 . S
O542 C515 1.289 . S
C543 O535 1.258 . S
C543 O536 1.266 . S
C544 C545 1.363 . S
C544 C550 1.379 . S
C544 N552 1.356 . S
C545 C544 1.363 . S
C545 C551 1.363 . S
C546 C547 1.363 . S
C546 C551 1.379 . S
C546 N553 1.356 . S
C547 C546 1.363 . S
C547 C550 1.363 . S
N548 C550 1.356 . S
N548 H560 0.984 . S
N548 H561 0.985 . S
N549 C551 1.356 . S
N549 H554 0.984 . S
N549 H555 0.985 1_545 S
C550 C544 1.379 . S
C550 C547 1.363 . S
C550 N548 1.356 . S
C551 C545 1.363 . S
C551 C546 1.379 . S
C551 N549 1.356 . S
N552 C544 1.356 . S
N552 H558 0.984 . S
N552 H559 0.984 . S
N553 C546 1.356 . S
N553 H556 0.984 . S
N553 H557 0.985 1_545 S
H554 N549 0.984 . S
H555 N549 0.985 1_565 S
H556 N553 0.984 . S
H557 N553 0.985 1_565 S
H558 N552 0.984 . S
H559 N552 0.984 . S
H560 N548 0.984 . S
H561 N548 0.985 . S
C562 C563 1.363 . S
C562 C568 1.379 . S
C562 N570 1.356 . S
C563 C562 1.363 . S
C563 C569 1.363 . S
C564 C565 1.363 . S
C564 C569 1.379 . S
C564 N571 1.356 . S
C565 C564 1.363 . S
C565 C568 1.363 . S
N566 C568 1.356 . S
N566 H578 0.984 . S
N566 H579 0.985 . S
N567 C569 1.356 . S
N567 H572 0.984 . S
N567 H573 0.985 . S
C568 C562 1.379 . S
C568 C565 1.363 . S
C568 N566 1.356 . S
C569 C563 1.363 . S
C569 C564 1.379 . S
C569 N567 1.356 . S
N570 C562 1.356 . S
N570 H576 0.984 . S
N570 H577 0.984 . S
N571 C564 1.356 . S
N571 H574 0.984 . S
N571 H575 0.985 . S
H572 N567 0.984 . S
H573 N567 0.985 . S
H574 N571 0.984 . S
H575 N571 0.985 . S
H576 N570 0.984 . S
H577 N570 0.984 . S
H578 N566 0.984 . S
H579 N566 0.985 . S
C580 C581 1.363 . S
C580 C586 1.379 . S
C580 N588 1.356 . S
C581 C580 1.363 . S
C581 C587 1.363 . S
C582 C583 1.363 . S
C582 C587 1.379 . S
C582 N589 1.356 . S
C583 C582 1.363 . S
C583 C586 1.363 . S
N584 C586 1.356 . S
N584 H596 0.984 . S
N584 H597 0.985 . S
N585 C587 1.356 . S
N585 H590 0.984 . S
N585 H591 0.985 . S
C586 C580 1.379 . S
C586 C583 1.363 . S
C586 N584 1.356 . S
C587 C581 1.363 . S
C587 C582 1.379 . S
C587 N585 1.356 . S
N588 C580 1.356 . S
N588 H594 0.984 . S
N588 H595 0.984 . S
N589 C582 1.356 . S
N589 H592 0.984 . S
N589 H593 0.985 . S
H590 N585 0.984 . S
H591 N585 0.985 . S
H592 N589 0.984 . S
H593 N589 0.985 . S
H594 N588 0.984 . S
H595 N588 0.984 . S
H596 N584 0.984 . S
H597 N584 0.985 . S
C598 C599 1.363 . S
C598 C604 1.379 . S
C598 N606 1.356 . S
C599 C598 1.363 . S
C599 C605 1.363 . S
C600 C601 1.363 . S
C600 C605 1.379 . S
C600 N607 1.356 . S
C601 C600 1.363 . S
C601 C604 1.363 . S
N602 C604 1.356 . S
N602 H614 0.984 . S
N602 H615 0.985 . S
N603 C605 1.356 . S
N603 H608 0.984 . S
N603 H609 0.985 . S
C604 C598 1.379 . S
C604 C601 1.363 . S
C604 N602 1.356 . S
C605 C599 1.363 . S
C605 C600 1.379 . S
C605 N603 1.356 . S
N606 C598 1.356 . S
N606 H612 0.984 . S
N606 H613 0.984 . S
N607 C600 1.356 . S
N607 H610 0.984 . S
N607 H611 0.985 . S
H608 N603 0.984 . S
H609 N603 0.985 . S
H610 N607 0.984 . S
H611 N607 0.985 . S
H612 N606 0.984 . S
H613 N606 0.984 . S
H614 N602 0.984 . S
H615 N602 0.985 . S
C616 C617 1.363 . S
C616 C622 1.379 . S
C616 N624 1.356 . S
C617 C616 1.363 . S
C617 C623 1.363 . S
C618 C619 1.363 . S
C618 C623 1.379 . S
C618 N625 1.356 . S
C619 C618 1.363 . S
C619 C622 1.363 . S
N620 C622 1.356 . S
N620 H632 0.984 1_565 S
N620 H633 0.985 . S
N621 C623 1.356 . S
N621 H626 0.984 . S
N621 H627 0.985 . S
C622 C616 1.379 . S
C622 C619 1.363 . S
C622 N620 1.356 . S
C623 C617 1.363 . S
C623 C618 1.379 . S
C623 N621 1.356 . S
N624 C616 1.356 . S
N624 H630 0.984 1_565 S
N624 H631 0.984 . S
N625 C618 1.356 . S
N625 H628 0.984 . S
N625 H629 0.985 . S
H626 N621 0.984 . S
H627 N621 0.985 . S
H628 N625 0.984 . S
H629 N625 0.985 . S
H630 N624 0.984 1_545 S
H631 N624 0.984 . S
H632 N620 0.984 1_545 S
H633 N620 0.985 . S
C634 C635 1.363 . S
C634 C640 1.379 . S
C634 N642 1.356 . S
C635 C634 1.363 . S
C635 C641 1.363 . S
C636 C637 1.363 . S
C636 C641 1.379 . S
C636 N643 1.356 . S
C637 C636 1.363 . S
C637 C640 1.363 . S
N638 C640 1.356 . S
N638 H650 0.984 . S
N638 H651 0.985 . S
N639 C641 1.356 . S
N639 H644 0.984 . S
N639 H645 0.985 . S
C640 C634 1.379 . S
C640 C637 1.363 . S
C640 N638 1.356 . S
C641 C635 1.363 . S
C641 C636 1.379 . S
C641 N639 1.356 . S
N642 C634 1.356 . S
N642 H648 0.984 . S
N642 H649 0.984 . S
N643 C636 1.356 . S
N643 H646 0.984 . S
N643 H647 0.985 . S
H644 N639 0.984 . S
H645 N639 0.985 . S
H646 N643 0.984 . S
H647 N643 0.985 . S
H648 N642 0.984 . S
H649 N642 0.984 . S
H650 N638 0.984 . S
H651 N638 0.985 . S
C652 C653 1.363 . S
C652 C658 1.379 . S
C652 N660 1.356 . S
C653 C652 1.363 . S
C653 C659 1.363 . S
C654 C655 1.363 . S
C654 C659 1.379 . S
C654 N661 1.356 . S
C655 C654 1.363 . S
C655 C658 1.363 . S
N656 C658 1.356 . S
N656 H668 0.984 . S
N656 H669 0.985 . S
N657 C659 1.356 . S
N657 H662 0.984 . S
N657 H663 0.985 . S
C658 C652 1.379 . S
C658 C655 1.363 . S
C658 N656 1.356 . S
C659 C653 1.363 . S
C659 C654 1.379 . S
C659 N657 1.356 . S
N660 C652 1.356 . S
N660 H666 0.984 . S
N660 H667 0.984 . S
N661 C654 1.356 . S
N661 H664 0.984 . S
N661 H665 0.985 . S
H662 N657 0.984 . S
H663 N657 0.985 . S
H664 N661 0.984 . S
H665 N661 0.985 . S
H666 N660 0.984 . S
H667 N660 0.984 . S
H668 N656 0.984 . S
H669 N656 0.985 . S
C670 C671 1.363 . S
C670 C676 1.379 . S
C670 N678 1.356 . S
C671 C670 1.363 . S
C671 C677 1.363 . S
C672 C673 1.363 . S
C672 C677 1.379 . S
C672 N679 1.356 . S
C673 C672 1.363 . S
C673 C676 1.363 . S
N674 C676 1.356 . S
N674 H686 0.984 . S
N674 H687 0.985 . S
N675 C677 1.356 . S
N675 H680 0.984 . S
N675 H681 0.985 . S
C676 C670 1.379 . S
C676 C673 1.363 . S
C676 N674 1.356 . S
C677 C671 1.363 . S
C677 C672 1.379 . S
C677 N675 1.356 . S
N678 C670 1.356 . S
N678 H684 0.984 . S
N678 H685 0.984 . S
N679 C672 1.356 . S
N679 H682 0.984 . S
N679 H683 0.985 . S
H680 N675 0.984 . S
H681 N675 0.985 . S
H682 N679 0.984 . S
H683 N679 0.985 . S
H684 N678 0.984 . S
H685 N678 0.984 . S
H686 N674 0.984 . S
H687 N674 0.985 . S
C688 C689 1.363 1_565 S
C688 C694 1.379 1_556 S
C688 N696 1.356 . S
C689 C688 1.363 1_545 S
C689 C695 1.363 . S
C690 C691 1.363 1_545 S
C690 C695 1.379 1_554 S
C690 N697 1.356 . S
C691 C690 1.363 1_565 S
C691 C694 1.363 . S
N692 C694 1.356 . S
N692 H704 0.984 . S
N692 H705 0.985 . S
N693 C695 1.356 . S
N693 H698 0.984 . S
N693 H699 0.985 . S
C694 C688 1.379 1_554 S
C694 C691 1.363 . S
C694 N692 1.356 . S
C695 C689 1.363 . S
C695 C690 1.379 1_556 S
C695 N693 1.356 . S
N696 C688 1.356 . S
N696 H702 0.984 . S
N696 H703 0.984 . S
N697 C690 1.356 . S
N697 H700 0.984 . S
N697 H701 0.985 . S
H698 N693 0.984 . S
H699 N693 0.985 . S
H700 N697 0.984 . S
H701 N697 0.985 . S
H702 N696 0.984 . S
H703 N696 0.984 . S
H704 N692 0.984 . S
H705 N692 0.985 . S
C706 C707 1.363 . S
C706 C712 1.379 . S
C706 N714 1.356 . S
C707 C706 1.363 . S
C707 C713 1.363 1_556 S
C708 C709 1.363 . S
C708 C713 1.379 . S
C708 N715 1.356 . S
C709 C708 1.363 . S
C709 C712 1.363 1_554 S
N710 C712 1.356 . S
N710 H722 0.984 . S
N710 H723 0.985 1_556 S
N711 C713 1.356 . S
N711 H716 0.984 1_554 S
N711 H717 0.985 . S
C712 C706 1.379 . S
C712 C709 1.363 1_556 S
C712 N710 1.356 . S
C713 C707 1.363 1_554 S
C713 C708 1.379 . S
C713 N711 1.356 . S
N714 C706 1.356 . S
N714 H720 0.984 . S
N714 H721 0.984 . S
N715 C708 1.356 . S
N715 H718 0.984 . S
N715 H719 0.985 . S
H716 N711 0.984 1_556 S
H717 N711 0.985 . S
H718 N715 0.984 . S
H719 N715 0.985 . S
H720 N714 0.984 . S
H721 N714 0.984 . S
H722 N710 0.984 . S
H723 N710 0.985 1_554 S
C724 C725 1.363 . S
C724 C730 1.379 1_456 S
C724 N732 1.356 . S
C725 C724 1.363 . S
C725 C731 1.363 . S
C726 C727 1.363 . S
C726 C731 1.379 1_654 S
C726 N733 1.356 . S
C727 C726 1.363 . S
C727 C730 1.363 . S
N728 C730 1.356 . S
N728 H740 0.984 . S
N728 H741 0.985 . S
N729 C731 1.356 . S
N729 H734 0.984 . S
N729 H735 0.985 . S
C730 C724 1.379 1_654 S
C730 C727 1.363 . S
C730 N728 1.356 . S
C731 C725 1.363 . S
C731 C726 1.379 1_456 S
C731 N729 1.356 . S
N732 C724 1.356 . S
N732 H738 0.984 . S
N732 H739 0.984 . S
N733 C726 1.356 . S
N733 H736 0.984 . S
N733 H737 0.985 . S
H734 N729 0.984 . S
H735 N729 0.985 . S
H736 N733 0.984 . S
H737 N733 0.985 . S
H738 N732 0.984 . S
H739 N732 0.984 . S
H740 N728 0.984 . S
H741 N728 0.985 . S
C742 C743 1.379 . S
C742 C748 1.363 1_546 S
C742 N750 1.362 . S
C743 C742 1.379 . S
C743 C749 1.363 1_455 S
C744 C745 1.379 . S
C744 C749 1.363 1_564 S
C744 N751 1.362 . S
C745 C744 1.379 . S
C745 C748 1.363 1_655 S
N746 C748 1.356 . S
N746 H758 0.984 . S
N746 H759 0.985 . S
N747 C749 1.356 . S
N747 H752 0.984 . S
N747 H753 0.985 . S
C748 C742 1.363 1_564 S
C748 C745 1.363 1_455 S
C748 N746 1.356 . S
C749 C743 1.363 1_655 S
C749 C744 1.363 1_546 S
C749 N747 1.356 . S
N750 C742 1.362 . S
N750 H756 0.984 1_556 S
N750 H757 0.984 . S
N751 C744 1.362 . S
N751 H754 0.984 . S
N751 H755 0.985 1_554 S
H752 N747 0.984 . S
H753 N747 0.985 . S
H754 N751 0.984 . S
H755 N751 0.985 1_556 S
H756 N750 0.984 1_554 S
H757 N750 0.984 . S
H758 N746 0.984 . S
H759 N746 0.985 . S
C760 C761 1.363 . S
C760 C766 1.379 . S
C760 N768 1.356 . S
C761 C760 1.363 . S
C761 C767 1.363 . S
C762 C763 1.363 . S
C762 C767 1.379 . S
C762 N769 1.356 . S
C763 C762 1.363 . S
C763 C766 1.363 . S
N764 C766 1.356 . S
N764 H776 0.984 . S
N764 H777 0.985 . S
N765 C767 1.356 . S
N765 H770 0.984 . S
N765 H771 0.985 . S
C766 C760 1.379 . S
C766 C763 1.363 . S
C766 N764 1.356 . S
C767 C761 1.363 . S
C767 C762 1.379 . S
C767 N765 1.356 . S
N768 C760 1.356 . S
N768 H774 0.984 . S
N768 H775 0.984 . S
N769 C762 1.356 . S
N769 H772 0.984 . S
N769 H773 0.985 . S
H770 N765 0.984 . S
H771 N765 0.985 . S
H772 N769 0.984 . S
H773 N769 0.985 . S
H774 N768 0.984 . S
H775 N768 0.984 . S
H776 N764 0.984 . S
H777 N764 0.985 . S
C778 C779 1.363 1_655 S
C778 C784 1.379 . S
C778 N786 1.356 . S
C779 C778 1.363 1_455 S
C779 C785 1.363 . S
C780 C781 1.363 1_455 S
C780 C785 1.379 . S
C780 N787 1.356 . S
C781 C780 1.363 1_655 S
C781 C784 1.363 . S
N782 C784 1.356 . S
N782 H794 0.984 . S
N782 H795 0.985 . S
N783 C785 1.356 . S
N783 H788 0.984 . S
N783 H789 0.985 . S
C784 C778 1.379 . S
C784 C781 1.363 . S
C784 N782 1.356 . S
C785 C779 1.363 . S
C785 C780 1.379 . S
C785 N783 1.356 . S
N786 C778 1.356 . S
N786 H792 0.984 . S
N786 H793 0.984 . S
N787 C780 1.356 . S
N787 H790 0.984 . S
N787 H791 0.985 . S
H788 N783 0.984 . S
H789 N783 0.985 . S
H790 N787 0.984 . S
H791 N787 0.985 . S
H792 N786 0.984 . S
H793 N786 0.984 . S
H794 N782 0.984 . S
H795 N782 0.985 . S
C796 C797 1.363 . S
C796 C802 1.379 1_655 S
C796 N804 1.356 . S
C797 C796 1.363 . S
C797 C803 1.363 1_565 S
C798 C799 1.363 . S
C798 C803 1.379 1_455 S
C798 N805 1.356 . S
C799 C798 1.363 . S
C799 C802 1.363 1_545 S
N800 C802 1.356 . S
N800 H812 0.984 1_455 S
N800 H813 0.985 . S
N801 C803 1.356 . S
N801 H806 0.984 . S
N801 H807 0.985 1_655 S
C802 C796 1.379 1_455 S
C802 C799 1.363 1_565 S
C802 N800 1.356 . S
C803 C797 1.363 1_545 S
C803 C798 1.379 1_655 S
C803 N801 1.356 . S
N804 C796 1.356 . S
N804 H810 0.984 . S
N804 H811 0.984 . S
N805 C798 1.356 . S
N805 H808 0.984 . S
N805 H809 0.985 . S
H806 N801 0.984 . S
H807 N801 0.985 1_455 S
H808 N805 0.984 . S
H809 N805 0.985 . S
H810 N804 0.984 . S
H811 N804 0.984 . S
H812 N800 0.984 1_655 S
H813 N800 0.985 . S
C814 C815 1.356 1_545 S
C814 C820 1.386 . S
C814 N822 1.354 1_545 S
C815 C814 1.356 1_565 S
C815 C821 1.363 . S
C816 C817 1.356 1_565 S
C816 C821 1.386 . S
C816 N823 1.354 1_565 S
C817 C816 1.356 1_545 S
C817 C820 1.363 . S
N818 C820 1.356 . S
N818 H830 0.984 . S
N818 H831 0.985 . S
N819 C821 1.356 . S
N819 H824 0.984 . S
N819 H825 0.985 . S
C820 C814 1.386 . S
C820 C817 1.363 . S
C820 N818 1.356 . S
C821 C815 1.363 . S
C821 C816 1.386 . S
C821 N819 1.356 . S
N822 C814 1.354 1_565 S
N822 H828 0.984 1_565 S
N822 H829 0.984 . S
N823 C816 1.354 1_545 S
N823 H826 0.984 . S
N823 H827 0.985 1_545 S
H824 N819 0.984 . S
H825 N819 0.985 . S
H826 N823 0.984 . S
H827 N823 0.985 1_565 S
H828 N822 0.984 1_545 S
H829 N822 0.984 . S
H830 N818 0.984 . S
H831 N818 0.985 . S
C832 C833 1.363 1_554 S
C832 C838 1.379 . S
C832 N840 1.356 . S
C833 C832 1.363 1_556 S
C833 C839 1.363 . S
C834 C835 1.363 1_556 S
C834 C839 1.379 . S
C834 N841 1.356 . S
C835 C834 1.363 1_554 S
C835 C838 1.363 . S
N836 C838 1.356 . S
N836 H848 0.984 . S
N836 H849 0.985 . S
N837 C839 1.356 . S
N837 H842 0.984 . S
N837 H843 0.985 . S
C838 C832 1.379 . S
C838 C835 1.363 . S
C838 N836 1.356 . S
C839 C833 1.363 . S
C839 C834 1.379 . S
C839 N837 1.356 . S
N840 C832 1.356 . S
N840 H846 0.984 . S
N840 H847 0.984 . S
N841 C834 1.356 . S
N841 H844 0.984 . S
N841 H845 0.985 . S
H842 N837 0.984 . S
H843 N837 0.985 . S
H844 N841 0.984 . S
H845 N841 0.985 . S
H846 N840 0.984 . S
H847 N840 0.984 . S
H848 N836 0.984 . S
H849 N836 0.985 . S
C850 C851 1.363 1_554 S
C850 C856 1.379 . S
C850 N858 1.356 . S
C851 C850 1.363 1_556 S
C851 C857 1.363 . S
C852 C853 1.363 1_556 S
C852 C857 1.379 . S
C852 N859 1.356 . S
C853 C852 1.363 1_554 S
C853 C856 1.363 . S
N854 C856 1.356 . S
N854 H866 0.984 . S
N854 H867 0.985 . S
N855 C857 1.356 . S
N855 H860 0.984 . S
N855 H861 0.985 . S
C856 C850 1.379 . S
C856 C853 1.363 . S
C856 N854 1.356 . S
C857 C851 1.363 . S
C857 C852 1.379 . S
C857 N855 1.356 . S
N858 C850 1.356 . S
N858 H864 0.984 . S
N858 H865 0.984 . S
N859 C852 1.356 . S
N859 H862 0.984 . S
N859 H863 0.985 . S
H860 N855 0.984 . S
H861 N855 0.985 . S
H862 N859 0.984 . S
H863 N859 0.985 . S
H864 N858 0.984 . S
H865 N858 0.984 . S
H866 N854 0.984 . S
H867 N854 0.985 . S
C868 C869 1.363 . S
C868 C874 1.379 . S
C868 N876 1.356 . S
C869 C868 1.363 . S
C869 C875 1.363 1_556 S
C870 C871 1.363 . S
C870 C875 1.379 . S
C870 N877 1.356 . S
C871 C870 1.363 . S
C871 C874 1.363 1_554 S
N872 C874 1.356 . S
N872 H884 0.984 . S
N872 H885 0.985 . S
N873 C875 1.356 . S
N873 H878 0.984 . S
N873 H879 0.985 . S
C874 C868 1.379 . S
C874 C871 1.363 1_556 S
C874 N872 1.356 . S
C875 C869 1.363 1_554 S
C875 C870 1.379 . S
C875 N873 1.356 . S
N876 C868 1.356 . S
N876 H882 0.984 . S
N876 H883 0.984 . S
N877 C870 1.356 . S
N877 H880 0.984 . S
N877 H881 0.985 . S
H878 N873 0.984 . S
H879 N873 0.985 . S
H880 N877 0.984 . S
H881 N877 0.985 . S
H882 N876 0.984 . S
H883 N876 0.984 . S
H884 N872 0.984 . S
H885 N872 0.985 . S
C886 C887 1.363 . S
C886 C892 1.379 . S
C886 N894 1.356 . S
C887 C886 1.363 . S
C887 C893 1.363 1_556 S
C888 C889 1.363 . S
C888 C893 1.379 . S
C888 N895 1.356 . S
C889 C888 1.363 . S
C889 C892 1.363 1_554 S
N890 C892 1.356 . S
N890 H902 0.984 . S
N890 H903 0.985 . S
N891 C893 1.356 . S
N891 H896 0.984 . S
N891 H897 0.985 . S
C892 C886 1.379 . S
C892 C889 1.363 1_556 S
C892 N890 1.356 . S
C893 C887 1.363 1_554 S
C893 C888 1.379 . S
C893 N891 1.356 . S
N894 C886 1.356 . S
N894 H900 0.984 . S
N894 H901 0.984 . S
N895 C888 1.356 . S
N895 H898 0.984 . S
N895 H899 0.985 . S
H896 N891 0.984 . S
H897 N891 0.985 . S
H898 N895 0.984 . S
H899 N895 0.985 . S
H900 N894 0.984 . S
H901 N894 0.984 . S
H902 N890 0.984 . S
H903 N890 0.985 . S
C904 C905 1.363 . S
C904 C910 1.379 . S
C904 N912 1.356 . S
C905 C904 1.363 . S
C905 C911 1.363 . S
C906 C907 1.363 . S
C906 C911 1.379 . S
C906 N913 1.356 . S
C907 C906 1.363 . S
C907 C910 1.363 . S
N908 C910 1.356 . S
N908 H920 0.984 . S
N908 H921 0.985 . S
N909 C911 1.356 . S
N909 H914 0.984 . S
N909 H915 0.985 . S
C910 C904 1.379 . S
C910 C907 1.363 . S
C910 N908 1.356 . S
C911 C905 1.363 . S
C911 C906 1.379 . S
C911 N909 1.356 . S
N912 C904 1.356 . S
N912 H918 0.984 . S
N912 H919 0.984 . S
N913 C906 1.356 . S
N913 H916 0.984 . S
N913 H917 0.985 . S
H914 N909 0.984 . S
H915 N909 0.985 . S
H916 N913 0.984 . S
H917 N913 0.985 . S
H918 N912 0.984 . S
H919 N912 0.984 . S
H920 N908 0.984 . S
H921 N908 0.985 . S
C922 C923 1.363 . S
C922 C928 1.379 . S
C922 N930 1.356 . S
C923 C922 1.363 . S
C923 C929 1.363 . S
C924 C925 1.363 . S
C924 C929 1.379 . S
C924 N931 1.356 . S
C925 C924 1.363 . S
C925 C928 1.363 . S
N926 C928 1.356 . S
N926 H938 0.984 . S
N926 H939 0.985 . S
N927 C929 1.356 . S
N927 H932 0.984 . S
N927 H933 0.985 . S
C928 C922 1.379 . S
C928 C925 1.363 . S
C928 N926 1.356 . S
C929 C923 1.363 . S
C929 C924 1.379 . S
C929 N927 1.356 . S
N930 C922 1.356 . S
N930 H936 0.984 . S
N930 H937 0.984 . S
N931 C924 1.356 . S
N931 H934 0.984 . S
N931 H935 0.985 . S
H932 N927 0.984 . S
H933 N927 0.985 . S
H934 N931 0.984 . S
H935 N931 0.985 . S
H936 N930 0.984 . S
H937 N930 0.984 . S
H938 N926 0.984 . S
H939 N926 0.985 . S
C940 C941 1.363 . S
C940 C946 1.379 . S
C940 N948 1.356 . S
C941 C940 1.363 . S
C941 C947 1.363 . S
C942 C943 1.363 . S
C942 C947 1.379 . S
C942 N949 1.356 . S
C943 C942 1.363 . S
C943 C946 1.363 . S
N944 C946 1.356 . S
N944 H956 0.984 . S
N944 H957 0.985 . S
N945 C947 1.356 . S
N945 H950 0.984 . S
N945 H951 0.985 . S
C946 C940 1.379 . S
C946 C943 1.363 . S
C946 N944 1.356 . S
C947 C941 1.363 . S
C947 C942 1.379 . S
C947 N945 1.356 . S
N948 C940 1.356 . S
N948 H954 0.984 . S
N948 H955 0.984 . S
N949 C942 1.356 . S
N949 H952 0.984 . S
N949 H953 0.985 . S
H950 N945 0.984 . S
H951 N945 0.985 . S
H952 N949 0.984 . S
H953 N949 0.985 . S
H954 N948 0.984 . S
H955 N948 0.984 . S
H956 N944 0.984 . S
H957 N944 0.985 . S
C958 C959 1.363 . S
C958 C964 1.379 . S
C958 N966 1.356 . S
C959 C958 1.363 . S
C959 C965 1.363 . S
C960 C961 1.363 . S
C960 C965 1.379 . S
C960 N967 1.356 . S
C961 C960 1.363 . S
C961 C964 1.363 . S
N962 C964 1.356 . S
N962 H974 0.984 . S
N962 H975 0.985 . S
N963 C965 1.356 . S
N963 H968 0.984 . S
N963 H969 0.985 . S
C964 C958 1.379 . S
C964 C961 1.363 . S
C964 N962 1.356 . S
C965 C959 1.363 . S
C965 C960 1.379 . S
C965 N963 1.356 . S
N966 C958 1.356 . S
N966 H972 0.984 . S
N966 H973 0.984 . S
N967 C960 1.356 . S
N967 H970 0.984 . S
N967 H971 0.985 . S
H968 N963 0.984 . S
H969 N963 0.985 . S
H970 N967 0.984 . S
H971 N967 0.985 . S
H972 N966 0.984 . S
H973 N966 0.984 . S
H974 N962 0.984 . S
H975 N962 0.985 . S
C976 C977 1.363 . S
C976 C982 1.379 . S
C976 N984 1.356 . S
C977 C976 1.363 . S
C977 C983 1.363 1_554 S
C978 C979 1.363 . S
C978 C983 1.379 . S
C978 N985 1.356 . S
C979 C978 1.363 . S
C979 C982 1.363 1_556 S
N980 C982 1.356 . S
N980 H992 0.984 . S
N980 H993 0.985 . S
N981 C983 1.356 . S
N981 H986 0.984 . S
N981 H987 0.985 . S
C982 C976 1.379 . S
C982 C979 1.363 1_554 S
C982 N980 1.356 . S
C983 C977 1.363 1_556 S
C983 C978 1.379 . S
C983 N981 1.356 . S
N984 C976 1.356 . S
N984 H990 0.984 . S
N984 H991 0.984 . S
N985 C978 1.356 . S
N985 H988 0.984 . S
N985 H989 0.985 . S
H986 N981 0.984 . S
H987 N981 0.985 . S
H988 N985 0.984 . S
H989 N985 0.985 . S
H990 N984 0.984 . S
H991 N984 0.984 . S
H992 N980 0.984 . S
H993 N980 0.985 . S
C994 C995 1.363 1_556 S
C994 C1000 1.379 . S
C994 N1002 1.356 . S
C995 C994 1.363 1_554 S
C995 C1001 1.363 . S
C996 C997 1.363 1_554 S
C996 C1001 1.379 . S
C996 N1003 1.356 . S
C997 C996 1.363 1_556 S
C997 C1000 1.363 . S
N998 C1000 1.356 . S
N998 H1010 0.984 . S
N998 H1011 0.985 . S
N999 C1001 1.356 . S
N999 H1004 0.984 . S
N999 H1005 0.985 . S
C1000 C994 1.379 . S
C1000 C997 1.363 . S
C1000 N998 1.356 . S
C1001 C995 1.363 . S
C1001 C996 1.379 . S
C1001 N999 1.356 . S
N1002 C994 1.356 . S
N1002 H1008 0.984 . S
N1002 H1009 0.984 . S
N1003 C996 1.356 . S
N1003 H1006 0.984 . S
N1003 H1007 0.985 . S
H1004 N999 0.984 . S
H1005 N999 0.985 . S
H1006 N1003 0.984 . S
H1007 N1003 0.985 . S
H1008 N1002 0.984 . S
H1009 N1002 0.984 . S
H1010 N998 0.984 . S
H1011 N998 0.985 . S
C1012 C1013 1.363 . S
C1012 C1018 1.379 . S
C1012 N1020 1.356 . S
C1013 C1012 1.363 . S
C1013 C1019 1.363 1_554 S
C1014 C1015 1.363 . S
C1014 C1019 1.379 . S
C1014 N1021 1.356 . S
C1015 C1014 1.363 . S
C1015 C1018 1.363 1_556 S
N1016 C1018 1.356 . S
N1016 H1028 0.984 . S
N1016 H1029 0.985 . S
N1017 C1019 1.356 . S
N1017 H1022 0.984 . S
N1017 H1023 0.985 . S
C1018 C1012 1.379 . S
C1018 C1015 1.363 1_554 S
C1018 N1016 1.356 . S
C1019 C1013 1.363 1_556 S
C1019 C1014 1.379 . S
C1019 N1017 1.356 . S
N1020 C1012 1.356 . S
N1020 H1026 0.984 . S
N1020 H1027 0.984 . S
N1021 C1014 1.356 . S
N1021 H1024 0.984 . S
N1021 H1025 0.985 . S
H1022 N1017 0.984 . S
H1023 N1017 0.985 . S
H1024 N1021 0.984 . S
H1025 N1021 0.985 . S
H1026 N1020 0.984 . S
H1027 N1020 0.984 . S
H1028 N1016 0.984 . S
H1029 N1016 0.985 . S
C1030 C1031 1.363 . S
C1030 C1036 1.379 . S
C1030 N1038 1.356 . S
C1031 C1030 1.363 . S
C1031 C1037 1.363 1_554 S
C1032 C1033 1.363 . S
C1032 C1037 1.379 . S
C1032 N1039 1.356 . S
C1033 C1032 1.363 . S
C1033 C1036 1.363 1_556 S
N1034 C1036 1.356 . S
N1034 H1046 0.984 . S
N1034 H1047 0.985 . S
N1035 C1037 1.356 . S
N1035 H1040 0.984 . S
N1035 H1041 0.985 . S
C1036 C1030 1.379 . S
C1036 C1033 1.363 1_554 S
C1036 N1034 1.356 . S
C1037 C1031 1.363 1_556 S
C1037 C1032 1.379 . S
C1037 N1035 1.356 . S
N1038 C1030 1.356 . S
N1038 H1044 0.984 . S
N1038 H1045 0.984 . S
N1039 C1032 1.356 . S
N1039 H1042 0.984 . S
N1039 H1043 0.985 . S
H1040 N1035 0.984 . S
H1041 N1035 0.985 . S
H1042 N1039 0.984 . S
H1043 N1039 0.985 . S
H1044 N1038 0.984 . S
H1045 N1038 0.984 . S
H1046 N1034 0.984 . S
H1047 N1034 0.985 . S
C1048 C1049 1.363 . S
C1048 C1054 1.379 . S
C1048 N1056 1.356 . S
C1049 C1048 1.363 . S
C1049 C1055 1.363 . S
C1050 C1051 1.363 . S
C1050 C1055 1.379 . S
C1050 N1057 1.356 . S
C1051 C1050 1.363 . S
C1051 C1054 1.363 . S
N1052 C1054 1.356 . S
N1052 H1064 0.984 . S
N1052 H1065 0.985 . S
N1053 C1055 1.356 . S
N1053 H1058 0.984 . S
N1053 H1059 0.985 . S
C1054 C1048 1.379 . S
C1054 C1051 1.363 . S
C1054 N1052 1.356 . S
C1055 C1049 1.363 . S
C1055 C1050 1.379 . S
C1055 N1053 1.356 . S
N1056 C1048 1.356 . S
N1056 H1062 0.984 . S
N1056 H1063 0.984 . S
N1057 C1050 1.356 . S
N1057 H1060 0.984 . S
N1057 H1061 0.985 . S
H1058 N1053 0.984 . S
H1059 N1053 0.985 . S
H1060 N1057 0.984 . S
H1061 N1057 0.985 . S
H1062 N1056 0.984 . S
H1063 N1056 0.984 . S
H1064 N1052 0.984 . S
H1065 N1052 0.985 . S
C1066 C1067 1.363 . S
C1066 C1072 1.379 . S
C1066 N1074 1.356 . S
C1067 C1066 1.363 . S
C1067 C1073 1.363 . S
C1068 C1069 1.363 . S
C1068 C1073 1.379 . S
C1068 N1075 1.356 . S
C1069 C1068 1.363 . S
C1069 C1072 1.363 . S
N1070 C1072 1.356 . S
N1070 H1082 0.984 . S
N1070 H1083 0.985 . S
N1071 C1073 1.356 . S
N1071 H1076 0.984 . S
N1071 H1077 0.985 . S
C1072 C1066 1.379 . S
C1072 C1069 1.363 . S
C1072 N1070 1.356 . S
C1073 C1067 1.363 . S
C1073 C1068 1.379 . S
C1073 N1071 1.356 . S
N1074 C1066 1.356 . S
N1074 H1080 0.984 . S
N1074 H1081 0.984 . S
N1075 C1068 1.356 . S
N1075 H1078 0.984 . S
N1075 H1079 0.985 . S
H1076 N1071 0.984 . S
H1077 N1071 0.985 . S
H1078 N1075 0.984 . S
H1079 N1075 0.985 . S
H1080 N1074 0.984 . S
H1081 N1074 0.984 . S
H1082 N1070 0.984 . S
H1083 N1070 0.985 . S
C1084 C1085 1.363 . S
C1084 C1090 1.379 . S
C1084 N1092 1.356 . S
C1085 C1084 1.363 . S
C1085 C1091 1.363 . S
C1086 C1087 1.363 . S
C1086 C1091 1.379 . S
C1086 N1093 1.356 . S
C1087 C1086 1.363 . S
C1087 C1090 1.363 . S
N1088 C1090 1.356 . S
N1088 H1100 0.984 . S
N1088 H1101 0.985 . S
N1089 C1091 1.356 . S
N1089 H1094 0.984 . S
N1089 H1095 0.985 . S
C1090 C1084 1.379 . S
C1090 C1087 1.363 . S
C1090 N1088 1.356 . S
C1091 C1085 1.363 . S
C1091 C1086 1.379 . S
C1091 N1089 1.356 . S
N1092 C1084 1.356 . S
N1092 H1098 0.984 . S
N1092 H1099 0.984 . S
N1093 C1086 1.356 . S
N1093 H1096 0.984 . S
N1093 H1097 0.985 . S
H1094 N1089 0.984 . S
H1095 N1089 0.985 . S
H1096 N1093 0.984 . S
H1097 N1093 0.985 . S
H1098 N1092 0.984 . S
H1099 N1092 0.984 . S
H1100 N1088 0.984 . S
H1101 N1088 0.985 . S
C1102 C1103 1.363 . S
C1102 C1108 1.379 . S
C1102 N1110 1.356 . S
C1103 C1102 1.363 . S
C1103 C1109 1.363 . S
C1104 C1105 1.363 . S
C1104 C1109 1.379 . S
C1104 N1111 1.356 . S
C1105 C1104 1.363 . S
C1105 C1108 1.363 . S
N1106 C1108 1.356 . S
N1106 H1118 0.984 . S
N1106 H1119 0.985 . S
N1107 C1109 1.356 . S
N1107 H1112 0.984 . S
N1107 H1113 0.985 . S
C1108 C1102 1.379 . S
C1108 C1105 1.363 . S
C1108 N1106 1.356 . S
C1109 C1103 1.363 . S
C1109 C1104 1.379 . S
C1109 N1107 1.356 . S
N1110 C1102 1.356 . S
N1110 H1116 0.984 . S
N1110 H1117 0.984 . S
N1111 C1104 1.356 . S
N1111 H1114 0.984 . S
N1111 H1115 0.985 . S
H1112 N1107 0.984 . S
H1113 N1107 0.985 . S
H1114 N1111 0.984 . S
H1115 N1111 0.985 . S
H1116 N1110 0.984 . S
H1117 N1110 0.984 . S
H1118 N1106 0.984 . S
H1119 N1106 0.985 . S
C1120 C1121 1.363 . S
C1120 C1126 1.379 . S
C1120 N1128 1.356 . S
C1121 C1120 1.363 . S
C1121 C1127 1.363 . S
C1122 C1123 1.363 . S
C1122 C1127 1.379 . S
C1122 N1129 1.356 . S
C1123 C1122 1.363 . S
C1123 C1126 1.363 . S
N1124 C1126 1.356 . S
N1124 H1136 0.984 . S
N1124 H1137 0.985 . S
N1125 C1127 1.356 . S
N1125 H1130 0.984 . S
N1125 H1131 0.985 . S
C1126 C1120 1.379 . S
C1126 C1123 1.363 . S
C1126 N1124 1.356 . S
C1127 C1121 1.363 . S
C1127 C1122 1.379 . S
C1127 N1125 1.356 . S
N1128 C1120 1.356 . S
N1128 H1134 0.984 . S
N1128 H1135 0.984 . S
N1129 C1122 1.356 . S
N1129 H1132 0.984 . S
N1129 H1133 0.985 . S
H1130 N1125 0.984 . S
H1131 N1125 0.985 . S
H1132 N1129 0.984 . S
H1133 N1129 0.985 . S
H1134 N1128 0.984 . S
H1135 N1128 0.984 . S
H1136 N1124 0.984 . S
H1137 N1124 0.985 . S
C1138 C1139 1.363 . S
C1138 C1144 1.379 . S
C1138 N1146 1.356 . S
C1139 C1138 1.363 . S
C1139 C1145 1.363 . S
C1140 C1141 1.363 . S
C1140 C1145 1.379 . S
C1140 N1147 1.356 . S
C1141 C1140 1.363 . S
C1141 C1144 1.363 . S
N1142 C1144 1.356 . S
N1142 H1154 0.984 . S
N1142 H1155 0.985 . S
N1143 C1145 1.356 . S
N1143 H1148 0.984 . S
N1143 H1149 0.985 . S
C1144 C1138 1.379 . S
C1144 C1141 1.363 . S
C1144 N1142 1.356 . S
C1145 C1139 1.363 . S
C1145 C1140 1.379 . S
C1145 N1143 1.356 . S
N1146 C1138 1.356 . S
N1146 H1152 0.984 . S
N1146 H1153 0.984 . S
N1147 C1140 1.356 . S
N1147 H1150 0.984 . S
N1147 H1151 0.985 . S
H1148 N1143 0.984 . S
H1149 N1143 0.985 . S
H1150 N1147 0.984 . S
H1151 N1147 0.985 . S
H1152 N1146 0.984 . S
H1153 N1146 0.984 . S
H1154 N1142 0.984 . S
H1155 N1142 0.985 . S
C1156 C1157 1.363 . S
C1156 C1162 1.379 . S
C1156 N1164 1.356 . S
C1157 C1156 1.363 . S
C1157 C1163 1.363 . S
C1158 C1159 1.363 . S
C1158 C1163 1.379 . S
C1158 N1165 1.356 . S
C1159 C1158 1.363 . S
C1159 C1162 1.363 . S
N1160 C1162 1.356 . S
N1160 H1172 0.984 . S
N1160 H1173 0.985 . S
N1161 C1163 1.356 . S
N1161 H1166 0.984 . S
N1161 H1167 0.985 . S
C1162 C1156 1.379 . S
C1162 C1159 1.363 . S
C1162 N1160 1.356 . S
C1163 C1157 1.363 . S
C1163 C1158 1.379 . S
C1163 N1161 1.356 . S
N1164 C1156 1.356 . S
N1164 H1170 0.984 . S
N1164 H1171 0.984 . S
N1165 C1158 1.356 . S
N1165 H1168 0.984 . S
N1165 H1169 0.985 . S
H1166 N1161 0.984 . S
H1167 N1161 0.985 . S
H1168 N1165 0.984 . S
H1169 N1165 0.985 . S
H1170 N1164 0.984 . S
H1171 N1164 0.984 . S
H1172 N1160 0.984 . S
H1173 N1160 0.985 . S
C1174 C1175 1.363 . S
C1174 C1180 1.379 . S
C1174 N1182 1.356 . S
C1175 C1174 1.363 . S
C1175 C1181 1.363 . S
C1176 C1177 1.363 . S
C1176 C1181 1.379 . S
C1176 N1183 1.356 . S
C1177 C1176 1.363 . S
C1177 C1180 1.363 . S
N1178 C1180 1.356 . S
N1178 H1190 0.984 . S
N1178 H1191 0.985 . S
N1179 C1181 1.356 . S
N1179 H1184 0.984 . S
N1179 H1185 0.985 . S
C1180 C1174 1.379 . S
C1180 C1177 1.363 . S
C1180 N1178 1.356 . S
C1181 C1175 1.363 . S
C1181 C1176 1.379 . S
C1181 N1179 1.356 . S
N1182 C1174 1.356 . S
N1182 H1188 0.984 . S
N1182 H1189 0.984 . S
N1183 C1176 1.356 . S
N1183 H1186 0.984 . S
N1183 H1187 0.985 . S
H1184 N1179 0.984 . S
H1185 N1179 0.985 . S
H1186 N1183 0.984 . S
H1187 N1183 0.985 . S
H1188 N1182 0.984 . S
H1189 N1182 0.984 . S
H1190 N1178 0.984 . S
H1191 N1178 0.985 . S
C1192 C1193 1.363 . S
C1192 C1198 1.379 . S
C1192 N1200 1.356 . S
C1193 C1192 1.363 . S
C1193 C1199 1.363 . S
C1194 C1195 1.363 . S
C1194 C1199 1.379 . S
C1194 N1201 1.356 . S
C1195 C1194 1.363 . S
C1195 C1198 1.363 . S
N1196 C1198 1.356 . S
N1196 H1208 0.984 . S
N1196 H1209 0.985 . S
N1197 C1199 1.356 . S
N1197 H1202 0.984 . S
N1197 H1203 0.985 . S
C1198 C1192 1.379 . S
C1198 C1195 1.363 . S
C1198 N1196 1.356 . S
C1199 C1193 1.363 . S
C1199 C1194 1.379 . S
C1199 N1197 1.356 . S
N1200 C1192 1.356 . S
N1200 H1206 0.984 . S
N1200 H1207 0.984 . S
N1201 C1194 1.356 . S
N1201 H1204 0.984 . S
N1201 H1205 0.985 . S
H1202 N1197 0.984 . S
H1203 N1197 0.985 . S
H1204 N1201 0.984 . S
H1205 N1201 0.985 . S
H1206 N1200 0.984 . S
H1207 N1200 0.984 . S
H1208 N1196 0.984 . S
H1209 N1196 0.985 . S
C1210 C1211 1.363 . S
C1210 C1216 1.379 . S
C1210 N1218 1.356 . S
C1211 C1210 1.363 . S
C1211 C1217 1.363 . S
C1212 C1213 1.363 . S
C1212 C1217 1.379 . S
C1212 N1219 1.356 . S
C1213 C1212 1.363 . S
C1213 C1216 1.363 . S
N1214 C1216 1.356 . S
N1214 H1226 0.984 . S
N1214 H1227 0.985 . S
N1215 C1217 1.356 . S
N1215 H1220 0.984 . S
N1215 H1221 0.985 . S
C1216 C1210 1.379 . S
C1216 C1213 1.363 . S
C1216 N1214 1.356 . S
C1217 C1211 1.363 . S
C1217 C1212 1.379 . S
C1217 N1215 1.356 . S
N1218 C1210 1.356 . S
N1218 H1224 0.984 . S
N1218 H1225 0.984 . S
N1219 C1212 1.356 . S
N1219 H1222 0.984 . S
N1219 H1223 0.985 . S
H1220 N1215 0.984 . S
H1221 N1215 0.985 . S
H1222 N1219 0.984 . S
H1223 N1219 0.985 . S
H1224 N1218 0.984 . S
H1225 N1218 0.984 . S
H1226 N1214 0.984 . S
H1227 N1214 0.985 . S
C1228 C1229 1.363 . S
C1228 C1234 1.379 . S
C1228 N1236 1.356 . S
C1229 C1228 1.363 . S
C1229 C1235 1.363 . S
C1230 C1231 1.363 . S
C1230 C1235 1.379 . S
C1230 N1237 1.356 . S
C1231 C1230 1.363 . S
C1231 C1234 1.363 . S
N1232 C1234 1.356 . S
N1232 H1244 0.984 . S
N1232 H1245 0.985 . S
N1233 C1235 1.356 . S
N1233 H1238 0.984 . S
N1233 H1239 0.985 . S
C1234 C1228 1.379 . S
C1234 C1231 1.363 . S
C1234 N1232 1.356 . S
C1235 C1229 1.363 . S
C1235 C1230 1.379 . S
C1235 N1233 1.356 . S
N1236 C1228 1.356 . S
N1236 H1242 0.984 . S
N1236 H1243 0.984 . S
N1237 C1230 1.356 . S
N1237 H1240 0.984 . S
N1237 H1241 0.985 . S
H1238 N1233 0.984 . S
H1239 N1233 0.985 . S
H1240 N1237 0.984 . S
H1241 N1237 0.985 . S
H1242 N1236 0.984 . S
H1243 N1236 0.984 . S
H1244 N1232 0.984 . S
H1245 N1232 0.985 . S
C1246 C1247 1.363 . S
C1246 C1252 1.379 . S
C1246 N1254 1.356 . S
C1247 C1246 1.363 . S
C1247 C1253 1.363 . S
C1248 C1249 1.363 . S
C1248 C1253 1.379 . S
C1248 N1255 1.356 . S
C1249 C1248 1.363 . S
C1249 C1252 1.363 . S
N1250 C1252 1.356 . S
N1250 H1262 0.984 . S
N1250 H1263 0.985 . S
N1251 C1253 1.356 . S
N1251 H1256 0.984 . S
N1251 H1257 0.985 . S
C1252 C1246 1.379 . S
C1252 C1249 1.363 . S
C1252 N1250 1.356 . S
C1253 C1247 1.363 . S
C1253 C1248 1.379 . S
C1253 N1251 1.356 . S
N1254 C1246 1.356 . S
N1254 H1260 0.984 . S
N1254 H1261 0.984 . S
N1255 C1248 1.356 . S
N1255 H1258 0.984 . S
N1255 H1259 0.985 . S
H1256 N1251 0.984 . S
H1257 N1251 0.985 . S
H1258 N1255 0.984 . S
H1259 N1255 0.985 . S
H1260 N1254 0.984 . S
H1261 N1254 0.984 . S
H1262 N1250 0.984 . S
H1263 N1250 0.985 . S
C545 C20 1.781 . S
C547 C224 1.781 . S
C563 C258 1.781 . S
C565 C54 1.781 . S
C581 C156 1.781 . S
C583 C88 1.781 . S
C599 C190 1.781 . S
C601 C122 1.781 . S
C617 C292 1.781 . S
C619 C496 1.781 . S
C635 C326 1.781 . S
C637 C530 1.781 . S
C653 C428 1.781 . S
C655 C360 1.781 . S
C671 C394 1.781 . S
C673 C462 1.781 . S
C689 C281 2.582 . S
C691 C9 2.582 . S
C707 C315 2.582 . S
C709 C43 2.582 . S
C725 C349 2.582 . S
C727 C77 2.582 . S
C743 C383 2.582 . S
C745 C111 2.582 . S
C761 C417 2.582 . S
C763 C145 2.582 . S
C779 C451 2.582 . S
C781 C179 2.582 . S
C797 C213 2.582 . S
C799 C485 2.582 . S
C815 C247 2.582 . S
C817 C519 2.582 . S
C833 C339 1.228 . S
C835 C2 1.294 . S
C851 C373 1.228 . S
C853 C36 1.294 . S
C869 C407 1.228 . S
C871 C70 1.294 . S
C887 C305 1.228 . S
C889 C104 1.294 . S
C905 C138 1.294 . S
C907 C543 1.228 . S
C923 C172 1.294 . S
C925 C441 1.228 . S
C941 C206 1.294 . S
C943 C475 1.228 . S
C959 C240 1.294 . S
C961 C509 1.228 . S
C977 C67 1.228 . S
C979 C274 1.294 . S
C995 C101 1.228 . S
C997 C308 1.294 . S
C1013 C135 1.228 . S
C1015 C342 1.294 . S
C1031 C33 1.228 . S
C1033 C376 1.294 . S
C1049 C271 1.228 . S
C1051 C410 1.294 . S
C1067 C169 1.228 . S
C1069 C444 1.294 . S
C1085 C203 1.228 . S
C1087 C478 1.294 . S
C1103 C512 1.294 . S
C1105 C237 1.228 . S
C1121 C73 0.599 . S
C1123 C5 0.599 . S
C1139 C107 0.599 . S
C1141 C39 0.599 . S
C1157 C141 0.599 . S
C1159 C209 0.599 . S
C1175 C243 0.599 . S
C1177 C175 0.599 . S
C1193 C277 0.599 . S
C1195 C345 0.599 . S
C1211 C379 0.599 . S
C1213 C311 0.599 . S
C1229 C413 0.599 . S
C1231 C481 0.599 . S
C1247 C447 0.599 . S
C1249 C515 0.599 . S
