# Generated by pormake.
# Topology rkf, (6)-cn, num edge types: 1
# Building blocks:
#     Node 0, Type 0, BuildingBlock: GEDQOX_clean_sbu_0, # of connection points: 6
#     Node 1, Type 0, BuildingBlock: GEDQOX_clean_sbu_0, # of connection points: 6
#     Node 2, Type 0, BuildingBlock: GEDQOX_clean_sbu_0, # of connection points: 6
#     Node 3, Type 0, BuildingBlock: GEDQOX_clean_sbu_0, # of connection points: 6
#     Node 4, Type 0, BuildingBlock: GEDQOX_clean_sbu_0, # of connection points: 6
#     Node 5, Type 0, BuildingBlock: GEDQOX_clean_sbu_0, # of connection points: 6
#     Edge 6, Type (0, 0), BuildingBlock: MIFKUJ_clean_linker_0, # of connection points: 2
#     Edge 7, Type (0, 0), BuildingBlock: MIFKUJ_clean_linker_0, # of connection points: 2
#     Edge 8, Type (0, 0), BuildingBlock: MIFKUJ_clean_linker_0, # of connection points: 2
#     Edge 9, Type (0, 0), BuildingBlock: MIFKUJ_clean_linker_0, # of connection points: 2
#     Edge 10, Type (0, 0), BuildingBlock: MIFKUJ_clean_linker_0, # of connection points: 2
#     Edge 11, Type (0, 0), BuildingBlock: MIFKUJ_clean_linker_0, # of connection points: 2
#     Edge 12, Type (0, 0), BuildingBlock: MIFKUJ_clean_linker_0, # of connection points: 2
#     Edge 13, Type (0, 0), BuildingBlock: MIFKUJ_clean_linker_0, # of connection points: 2
#     Edge 14, Type (0, 0), BuildingBlock: MIFKUJ_clean_linker_0, # of connection points: 2
#     Edge 15, Type (0, 0), BuildingBlock: MIFKUJ_clean_linker_0, # of connection points: 2
#     Edge 16, Type (0, 0), BuildingBlock: MIFKUJ_clean_linker_0, # of connection points: 2
#     Edge 17, Type (0, 0), BuildingBlock: MIFKUJ_clean_linker_0, # of connection points: 2
#     Edge 18, Type (0, 0), BuildingBlock: MIFKUJ_clean_linker_0, # of connection points: 2
#     Edge 19, Type (0, 0), BuildingBlock: MIFKUJ_clean_linker_0, # of connection points: 2
#     Edge 20, Type (0, 0), BuildingBlock: MIFKUJ_clean_linker_0, # of connection points: 2
#     Edge 21, Type (0, 0), BuildingBlock: MIFKUJ_clean_linker_0, # of connection points: 2
#     Edge 22, Type (0, 0), BuildingBlock: MIFKUJ_clean_linker_0, # of connection points: 2
#     Edge 23, Type (0, 0), BuildingBlock: MIFKUJ_clean_linker_0, # of connection points: 2
# Relax obj value: 0.578
# Max RMSD: 0.259
# Mean RMSD: 0.259
data_MOF--net-rkf--node1-GEDQOX_clean_sbu_0--edge1-MIFKUJ_clean_linker_0
_symmetry_space_group_name_H-M    P1
_symmetry_Int_Tables_number       1
_symmetry_cell_setting            triclinic
loop_
_symmetry_equiv_pos_as_xyz
'x, y, z'
_cell_length_a     30.018081
_cell_length_b     30.123317
_cell_length_c     58.694608
_cell_angle_alpha  90.693677
_cell_angle_beta   89.612626
_cell_angle_gamma 119.77701
loop_
_atom_site_label
_atom_site_type_symbol
_atom_site_fract_x
_atom_site_fract_y
_atom_site_fract_z
_atom_type_partial_charge
Nd0 Nd 0.19454 0.96668 0.1211 0.0
Nd1 Nd 0.2053 0.05131 0.12928 0.0
C2 C 0.21047 0.8926 0.10546 0.0
C3 C 0.23463 0.88347 1.08546 0.0
C4 C 0.28155 0.92223 1.07688 0.0
C5 C 0.29948 0.91593 1.05578 0.0
C6 C 0.27028 0.87126 1.04279 0.0
C7 C 0.22518 0.83117 1.05209 0.0
C8 C 0.20765 0.83717 1.07337 0.0
C9 C 0.10031 0.93517 0.13599 0.0
C10 C 0.17421 0.02961 1.07703 0.0
C11 C 0.22131 0.14325 0.14076 0.0
C12 C 0.19773 0.17169 0.15055 0.0
C13 C 0.16996 0.15659 0.17097 0.0
C14 C 0.16095 0.19128 0.18326 0.0
C15 C 0.18008 0.24161 0.17533 0.0
C16 C 0.20039 0.25336 0.15317 0.0
C17 C 0.20964 0.21871 0.14096 0.0
C18 C 0.30252 0.05705 0.12046 0.0
C19 C 0.1702 0.98466 0.17594 0.0
O20 O 0.2406 0.92761 0.12 0.0
O21 O 0.16902 0.8948 1.10134 0.0
O22 O 0.12623 0.91231 0.13954 0.0
O23 O 0.12453 0.97761 0.12489 0.0
O24 O 0.18789 0.99479 1.08246 0.0
O25 O 0.17143 0.05547 1.09448 0.0
O26 O 0.20594 0.12308 0.12059 0.0
O27 O 0.23062 0.11472 0.15433 0.0
O28 O 0.2833 0.07946 0.1087 0.0
O29 O 0.26869 0.02921 0.1345 0.0
O30 O 0.17155 0.02431 0.16599 0.0
O31 O 0.18412 0.95706 0.16254 0.0
H32 H 0.30281 0.95851 1.08575 0.0
H33 H 0.33385 0.94778 1.04879 0.0
H34 H 0.20189 0.7966 1.04227 0.0
H35 H 0.17139 0.80685 1.07974 0.0
H36 H 0.15929 0.11989 0.17842 0.0
H37 H 0.14479 0.18045 0.20018 0.0
H38 H 0.21441 0.29131 0.14639 0.0
H39 H 0.23016 0.23048 0.12492 0.0
Nd40 Nd 0.22338 0.18766 0.42194 0.0
Nd41 Nd 0.17358 0.247 0.4339 0.0
C42 C 0.29428 0.16129 0.41413 0.0
C43 C 0.33371 0.17756 0.39602 0.0
C44 C 0.37945 0.22483 0.39794 0.0
C45 C 0.40642 0.25012 0.3784 0.0
C46 C 0.38791 0.22836 0.3568 0.0
C47 C 0.3486 0.17696 0.35542 0.0
C48 C 0.32145 0.15176 0.37492 0.0
C49 C 0.11881 0.12797 0.42834 0.0
C50 C 0.16199 0.20792 0.37949 0.0
C51 C 0.12109 0.29045 0.44894 0.0
C52 C 0.09498 0.29203 0.46972 0.0
C53 C 0.09067 0.26104 0.48814 0.0
C54 C 0.08098 0.27328 0.50991 0.0
C55 C 0.07575 0.31681 0.51342 0.0
C56 C 0.07367 0.34369 0.49442 0.0
C57 C 0.0836 0.33151 0.47267 0.0
C58 C 0.27493 0.30979 0.41926 0.0
C59 C 0.19945 0.18853 0.47828 0.0
O60 O 0.30005 0.19695 0.42865 0.0
O61 O 0.24653 0.13343 0.40763 0.0
O62 O 0.14415 0.11754 0.41317 0.0
O63 O 0.15022 0.16682 0.43922 0.0
O64 O 0.20303 0.2034 0.38457 0.0
O65 O 0.13958 0.21896 0.39662 0.0
O66 O 0.10012 0.2475 0.43728 0.0
O67 O 0.17088 0.31112 0.45096 0.0
O68 O 0.23578 0.31311 0.41248 0.0
O69 O 0.25899 0.27173 0.43232 0.0
O70 O 0.18105 0.21923 0.47183 0.0
O71 O 0.21753 0.17045 0.46186 0.0
H72 H 0.39117 0.24494 0.41414 0.0
H73 H 0.43763 0.28917 0.38 0.0
H74 H 0.33405 0.15852 0.33907 0.0
H75 H 0.28743 0.11453 0.37301 0.0
H76 H 0.09928 0.2303 0.48606 0.0
H77 H 0.08311 0.25188 0.52415 0.0
H78 H 0.069 0.3769 0.49662 0.0
H79 H 0.08666 0.35562 0.4585 0.0
Nd80 Nd 0.07732 0.19149 0.78861 0.0
Nd81 Nd 0.9835 0.18297 0.79601 0.0
C82 C 0.17294 0.22562 0.77498 0.0
C83 C 0.2034 0.26435 0.75799 0.0
C84 C 0.19292 0.30402 0.75394 0.0
C85 C 0.21523 0.33635 0.73556 0.0
C86 C 0.2483 0.32955 0.72066 0.0
C87 C 0.26109 0.29156 0.72551 0.0
C88 C 0.23864 0.25905 0.74408 0.0
C89 C 0.00061 0.0929 0.79987 0.0
C90 C -0.00084 0.14317 0.74352 0.0
C91 C 0.89314 0.17026 0.80896 0.0
C92 C 0.87407 0.20576 0.81425 0.0
C93 C 0.8484 0.20061 0.83484 0.0
C94 C 0.83857 0.23897 0.84236 0.0
C95 C 0.85402 0.28339 0.82934 0.0
C96 C 0.87583 0.28625 0.80774 0.0
C97 C 0.88606 0.24792 0.80032 0.0
C98 C 0.04781 0.28502 0.78222 0.0
C99 C 0.05268 0.1744 0.84267 0.0
O100 O 0.1608 0.24283 0.79313 0.0
O101 O 0.13414 0.18383 0.76689 0.0
O102 O 0.04691 0.11254 0.80787 0.0
O103 O -0.00052 0.12297 0.78601 0.0
O104 O 0.04815 0.16895 0.75007 0.0
O105 O 0.96472 0.13878 0.75939 0.0
O106 O 0.92685 0.17119 0.82319 0.0
O107 O 0.90508 0.16774 0.78779 0.0
O108 O 0.00267 0.25362 0.77466 0.0
O109 O 0.0604 0.25981 0.79596 0.0
O110 O 0.00852 0.17079 0.83489 0.0
O111 O 0.08885 0.18537 0.82731 0.0
H112 H 0.16526 0.30839 0.76427 0.0
H113 H 0.20335 0.36419 0.73215 0.0
H114 H 0.28654 0.28548 0.71438 0.0
H115 H 0.24694 0.22843 0.74694 0.0
H116 H 0.83889 0.16843 0.84584 0.0
H117 H 0.82269 0.23536 0.85929 0.0
H118 H 0.88771 0.31943 0.79713 0.0
H119 H 0.90582 0.25275 0.78424 0.0
Nd120 Nd 0.92702 0.12565 1.0848 0.0
Nd121 Nd 0.86081 0.02277 1.09384 0.0
C122 C 0.9676 0.22279 1.07275 0.0
C123 C 0.96697 0.2548 1.05434 0.0
C124 C 0.93506 0.23296 1.03537 0.0
C125 C 0.93181 0.26434 1.01891 0.0
C126 C 0.96037 0.31797 1.02122 0.0
C127 C 0.99313 0.33955 1.04005 0.0
C128 C 0.99625 0.30812 1.05652 0.0
C129 C 0.97871 0.07282 1.09139 0.0
C130 C 0.90111 0.04225 1.0399 0.0
C131 C 0.80609 0.92792 0.10891 0.0
C132 C 0.76116 0.90128 0.12368 0.0
C133 C 0.73884 0.92815 0.13357 0.0
C134 C 0.70143 0.9054 0.15042 0.0
C135 C 0.68552 0.85523 0.15756 0.0
C136 C 0.70598 0.82752 0.14657 0.0
C137 C 0.74379 0.85055 0.12987 0.0
C138 C 0.80091 0.0695 1.08751 0.0
C139 C 0.92919 0.0992 0.13933 0.0
O140 O 0.92489 0.1979 1.08421 0.0
O141 O 0.98943 0.19537 1.06856 0.0
O142 O 0.99293 0.11689 1.10114 0.0
O143 O 0.93962 0.06015 1.07966 0.0
O144 O 0.91448 0.09063 1.04598 0.0
O145 O 0.8836 0.00824 1.05668 0.0
O146 O 0.84677 0.96381 0.11906 0.0
O147 O 0.79848 0.9421 1.0891 0.0
O148 O 0.79374 0.02765 1.078 0.0
O149 O 0.84307 0.08882 1.09872 0.0
O150 O 0.89662 0.05196 0.13157 0.0
O151 O 0.94569 0.13688 0.12432 0.0
H152 H 0.91218 0.19178 1.03349 0.0
H153 H 0.90702 0.24661 1.00434 0.0
H154 H 0.01543 0.38066 1.04231 0.0
H155 H 0.02084 0.32545 1.0712 0.0
H156 H 0.7522 0.96759 0.12906 0.0
H157 H 0.68741 0.92835 0.15877 0.0
H158 H 0.69424 0.7887 0.15149 0.0
H159 H 0.76084 0.82935 0.12255 0.0
Nd160 Nd 0.86105 0.88173 0.45532 0.0
Nd161 Nd 0.88894 0.80797 0.46563 0.0
C162 C 0.81352 0.92826 0.43877 0.0
C163 C 0.78433 0.92158 0.41778 0.0
C164 C 0.73582 0.91769 0.41913 0.0
C165 C 0.70394 0.90313 0.4 0.0
C166 C 0.72014 0.89207 0.37924 0.0
C167 C 0.76964 0.89812 0.37775 0.0
C168 C 0.80134 0.91251 0.39684 0.0
C169 C 0.95928 0.92082 0.47314 0.0
C170 C 0.92137 0.85706 0.41289 0.0
C171 C 0.92097 0.74779 0.48291 0.0
C172 C 0.8986 0.70259 0.49775 0.0
C173 C 0.92333 0.70454 0.5182 0.0
C174 C 0.90054 0.66439 0.53363 0.0
C175 C 0.85259 0.62104 0.52887 0.0
C176 C 0.82883 0.61831 0.50791 0.0
C177 C 0.85146 0.65877 0.49255 0.0
C178 C 0.78884 0.75845 0.44909 0.0
C179 C 0.86164 0.86813 0.51058 0.0
O180 O 0.79193 0.88967 0.45269 0.0
O181 O 0.86307 0.94651 0.43677 0.0
O182 O 0.92862 0.93849 0.47803 0.0
O183 O 0.93917 0.88815 0.45758 0.0
O184 O 0.88784 0.87243 0.41809 0.0
O185 O 0.93338 0.83502 0.42967 0.0
O186 O 0.92965 0.79065 0.49251 0.0
O187 O 0.90195 0.74187 0.46247 0.0
O188 O 0.82476 0.74907 0.44308 0.0
O189 O 0.80707 0.79603 0.46318 0.0
O190 O 0.87557 0.83376 0.50379 0.0
O191 O 0.85144 0.89189 0.49433 0.0
H192 H 0.72182 0.92399 0.43522 0.0
H193 H 0.66598 0.89867 0.40167 0.0
H194 H 0.78368 0.89101 0.36185 0.0
H195 H 0.83846 0.91498 0.39534 0.0
H196 H 0.95958 0.738 0.5226 0.0
H197 H 0.91962 0.66853 0.54975 0.0
H198 H 0.79222 0.58535 0.50355 0.0
H199 H 0.8314 0.65619 0.47688 0.0
Nd200 Nd 0.01733 0.85457 0.75264 0.0
Nd201 Nd 0.1115 0.90535 0.76324 0.0
C202 C 0.92176 0.7831 0.74356 0.0
C203 C 0.88285 0.72972 0.74759 0.0
C204 C 0.89751 0.69406 0.7539 0.0
C205 C 0.86554 0.64223 0.74884 0.0
C206 C 0.81904 0.62585 0.73716 0.0
C207 C 0.80119 0.66069 0.73436 0.0
C208 C 0.83315 0.71247 0.73943 0.0
C209 C 0.03877 0.9525 0.7466 0.0
C210 C 0.09714 0.92015 0.70893 0.0
C211 C 0.20717 0.95845 0.77816 0.0
C212 C 0.239 0.99858 0.79446 0.0
C213 C 0.21984 0.02572 0.80671 0.0
C214 C 0.2464 0.05491 0.8258 0.0
C215 C 0.29148 0.05582 0.83319 0.0
C216 C 0.31298 0.03302 0.81913 0.0
C217 C 0.28687 0.00466 0.79996 0.0
C218 C 0.08315 0.79949 0.7564 0.0
C219 C 0.0338 0.89911 0.80654 0.0
O220 O 0.93317 0.8167 0.75994 0.0
O221 O 0.9618 0.78963 0.73194 0.0
O222 O 0.01945 0.9171 0.7312 0.0
O223 O 0.05657 0.93804 0.76284 0.0
O224 O 0.05136 0.88021 0.71432 0.0
O225 O 0.12916 0.94054 0.72619 0.0
O226 O 0.19032 0.97172 0.76056 0.0
O227 O 0.17267 0.91529 0.78697 0.0
O228 O 0.11872 0.83794 0.74537 0.0
O229 O 0.06001 0.8173 0.76821 0.0
O230 O 0.08248 0.91819 0.79988 0.0
O231 O 0.99868 0.87051 0.79093 0.0
H232 H 0.93575 0.70679 0.76037 0.0
H233 H 0.87991 0.61614 0.75161 0.0
H234 H 0.76551 0.64945 0.72554 0.0
H235 H 0.82119 0.73956 0.73455 0.0
H236 H 0.18293 0.02166 0.80244 0.0
H237 H 0.22937 0.07311 0.83578 0.0
H238 H 0.34716 0.03207 0.82406 0.0
H239 H 0.30214 0.984 0.79054 0.0
H240 H 0.99753 0.05995 0.13563 0.0
H241 H 0.94534 0.97755 0.15211 0.0
H242 H 0.92011 0.90856 1.08456 0.0
H243 H 0.97134 0.99118 1.06893 0.0
H244 H 0.86157 0.91864 0.15784 0.0
H245 H 0.80941 0.83336 1.09059 0.0
H246 H 0.80456 0.8074 1.05031 0.0
H247 H 0.92826 0.77684 1.06056 0.0
H248 H 0.93385 0.80265 1.10096 0.0
H249 H 0.04574 0.97454 0.15665 0.0
H250 H 0.96112 0.92564 0.1742 0.0
H251 H 0.95263 0.78482 0.15125 0.0
H252 H 0.03794 0.83376 0.13524 0.0
H253 H 0.871 0.76672 0.1355 0.0
H254 H 0.80782 0.8908 0.18806 0.0
H255 H 0.79323 0.89948 0.22851 0.0
H256 H 0.88397 0.83158 0.24678 0.0
H257 H 0.90122 0.82396 0.20656 0.0
C258 C 0.98232 0.02657 0.12458 0.0
C259 C 0.98501 0.03177 1.10101 0.0
C260 C 0.95072 0.97857 0.13389 0.0
C261 C 0.92353 0.93442 0.11982 0.0
C262 C 0.93658 0.93968 1.09652 0.0
C263 C 0.96795 0.98786 1.08732 0.0
C264 C 0.88334 0.88479 0.13018 0.0
C265 C 0.86632 0.88668 0.15259 0.0
C266 C 0.87554 0.83607 0.12293 0.0
C267 C 0.87191 0.81984 1.09883 0.0
C268 C 0.83524 0.8207 1.08433 0.0
C269 C 0.83253 0.80621 1.06144 0.0
C270 C 0.86606 0.79045 1.05288 0.0
C271 C 0.90228 0.78899 1.06722 0.0
C272 C 0.90517 0.80345 1.09013 0.0
C273 C 0.0251 0.93325 0.15523 0.0
C274 C 0.04657 0.9082 0.14335 0.0
C275 C 0.97693 0.9048 0.16553 0.0
C276 C 0.94766 0.85095 0.16258 0.0
C277 C 0.97257 0.82608 0.1531 0.0
C278 C 0.02087 0.85434 0.14327 0.0
C279 C 0.88982 0.82413 0.1618 0.0
C280 C 0.87254 0.80242 0.14008 0.0
C281 C 0.86734 0.85341 0.16912 0.0
C282 C 0.85717 0.85798 0.19375 0.0
C283 C 0.82593 0.87865 0.20049 0.0
C284 C 0.8168 0.88313 0.22355 0.0
C285 C 0.83779 0.86634 0.24021 0.0
C286 C 0.86783 0.84477 0.23385 0.0
C287 C 0.87751 0.84057 0.21083 0.0
H288 H 0.8306 0.86983 0.25806 0.0
H289 H 0.86402 0.77942 1.03513 0.0
H290 H 0.03549 0.89493 0.46835 0.0
H291 H 0.09669 0.90431 0.4982 0.0
H292 H 0.99769 0.91489 0.54844 0.0
H293 H 0.95435 0.93136 0.51888 0.0
H294 H 0.06511 0.9946 0.56041 0.0
H295 H 0.1465 0.91522 0.54334 0.0
H296 H 0.218 0.89813 0.54501 0.0
H297 H 0.31042 0.0299 0.50421 0.0
H298 H 0.24014 0.04866 0.50221 0.0
H299 H 0.06272 0.14095 0.46117 0.0
H300 H 0.07328 0.11241 0.4979 0.0
H301 H 0.08781 0.99129 0.46466 0.0
H302 H 0.08442 0.02487 0.42799 0.0
H303 H 0.16403 0.03645 0.48987 0.0
H304 H 0.98918 0.01529 0.50259 0.0
H305 H 0.92945 0.04603 0.51165 0.0
H306 H 0.00249 0.10215 0.57634 0.0
H307 H 0.06408 0.07321 0.56725 0.0
C308 C 0.02841 0.90167 0.48582 0.0
C309 C 0.99045 0.91461 0.49098 0.0
C310 C 0.06208 0.9047 0.50315 0.0
C311 C 0.05665 0.92029 0.52546 0.0
C312 C 0.007 0.91021 0.53105 0.0
C313 C 0.98002 0.91811 0.51397 0.0
C314 C 0.10056 0.96889 0.53575 0.0
C315 C 0.08454 0.00281 0.54418 0.0
C316 C 0.1436 0.99441 0.52153 0.0
C317 C 0.18649 0.98273 0.52206 0.0
C318 C 0.18163 0.94064 0.53445 0.0
C319 C 0.22231 0.93064 0.53553 0.0
C320 C 0.26859 0.96266 0.52459 0.0
C321 C 0.27432 0.0048 0.51251 0.0
C322 C 0.23374 0.01494 0.51126 0.0
C323 C 0.06509 0.10622 0.4618 0.0
C324 C 0.07784 0.088 0.44202 0.0
C325 C 0.07242 0.09058 0.48301 0.0
C326 C 0.08277 0.05013 0.48449 0.0
C327 C 0.08109 0.02334 0.46431 0.0
C328 C 0.07741 0.0415 0.44312 0.0
C329 C 0.09884 0.03677 0.50607 0.0
C330 C 0.13919 0.02502 0.50466 0.0
C331 C 0.07395 0.03023 0.52771 0.0
C332 C 0.03452 0.04545 0.53336 0.0
C333 C 0.99398 0.03554 0.51845 0.0
C334 C 0.95949 0.05267 0.5236 0.0
C335 C 0.96332 0.07771 0.54424 0.0
C336 C 0.00067 0.08427 0.56001 0.0
C337 C 0.03567 0.06783 0.55472 0.0
H338 H 0.93641 0.09071 0.54829 0.0
H339 H 0.30012 0.95498 0.52557 0.0
H340 H 0.98189 0.97691 0.7174 0.0
H341 H 0.89071 0.9371 0.72611 0.0
H342 H 0.9263 0.92395 0.79604 0.0
H343 H 0.01535 0.97474 0.78835 0.0
H344 H 0.84694 0.83582 0.78721 0.0
H345 H 0.82191 0.0102 0.75564 0.0
H346 H 0.80429 0.03657 0.71874 0.0
H347 H 0.76942 0.89198 0.689 0.0
H348 H 0.78525 0.86402 0.72591 0.0
H349 H 0.98096 0.00797 0.82595 0.0
H350 H 0.89569 0.93393 0.83197 0.0
H351 H 0.82602 0.01718 0.80469 0.0
H352 H 0.90928 0.08827 0.79781 0.0
H353 H 0.77026 0.94577 0.785 0.0
H354 H 0.76184 0.87683 0.84538 0.0
H355 H 0.75116 0.83391 0.88178 0.0
H356 H 0.8361 0.76392 0.85641 0.0
H357 H 0.84803 0.80595 0.81998 0.0
C358 C 0.96991 0.96975 0.73507 0.0
C359 C 0.00514 0.97406 0.75203 0.0
C360 C 0.9171 0.94479 0.73995 0.0
C361 C 0.89958 0.9253 0.76189 0.0
C362 C 0.93676 0.93864 0.7791 0.0
C363 C 0.98878 0.96803 0.7746 0.0
C364 C 0.84395 0.89475 0.76828 0.0
C365 C 0.83223 0.86203 0.78717 0.0
C366 C 0.81298 0.9176 0.76584 0.0
C367 C 0.80494 0.93506 0.74355 0.0
C368 C 0.81012 0.98384 0.7413 0.0
C369 C 0.80033 0.99903 0.72038 0.0
C370 C 0.78574 0.96597 0.70155 0.0
C371 C 0.78072 0.91755 0.7036 0.0
C372 C 0.78992 0.90193 0.72453 0.0
C373 C 0.94724 0.01033 0.82152 0.0
C374 C 0.95203 0.0528 0.80998 0.0
C375 C 0.89798 0.96792 0.82508 0.0
C376 C 0.85364 0.96689 0.81621 0.0
C377 C 0.85891 0.01398 0.80975 0.0
C378 C 0.90732 0.05545 0.80585 0.0
C379 C 0.8091 0.91813 0.80677 0.0
C380 C 0.79087 0.92481 0.78574 0.0
C381 C 0.8136 0.87352 0.80738 0.0
C382 C 0.80629 0.84577 0.82935 0.0
C383 C 0.77869 0.85259 0.84733 0.0
C384 C 0.77222 0.82807 0.86814 0.0
C385 C 0.79303 0.7963 0.87143 0.0
C386 C 0.81996 0.7886 0.85383 0.0
C387 C 0.82643 0.81283 0.83292 0.0
H388 H 0.7882 0.77756 0.88761 0.0
H389 H 0.77848 0.97796 0.68534 0.0
H390 H 0.15638 0.97708 1.03373 0.0
H391 H 0.13591 0.99823 0.99672 0.0
H392 H 0.15 0.13716 1.02525 0.0
H393 H 0.16649 0.11354 1.06234 0.0
H394 H 0.10322 0.13729 0.99606 0.0
H395 H 0.23294 0.09861 0.97179 0.0
H396 H 0.27675 0.04773 0.9683 0.0
H397 H 0.14099 0.92326 0.93872 0.0
H398 H 0.0968 0.97354 0.94187 0.0
H399 H 0.00164 0.16357 0.88629 0.0
H400 H 0.01932 0.13855 0.92364 0.0
H401 H 0.14617 0.12939 0.89426 0.0
H402 H 0.12726 0.15183 0.85727 0.0
H403 H 0.12398 0.0667 0.92298 0.0
H404 H 0.02784 0.14544 0.9876 0.0
H405 H 0.00811 0.21553 0.9901 0.0
H406 H 0.1204 0.2972 0.93839 0.0
H407 H 0.14081 0.2276 0.93568 0.0
C408 C 0.15547 0.01241 1.03229 0.0
C409 C 0.16372 0.04285 1.05222 0.0
C410 C 0.14429 0.02575 1.01024 0.0
C411 C 0.14134 0.07119 1.00604 0.0
C412 C 0.15033 0.10153 1.02619 0.0
C413 C 0.16057 0.08781 1.04819 0.0
C414 C 0.12799 0.08677 0.98184 0.0
C415 C 0.10822 0.1212 0.98036 0.0
C416 C 0.13456 0.06923 0.95977 0.0
C417 C 0.1613 0.03941 0.9574 0.0
C418 C 0.21252 0.06036 0.96456 0.0
C419 C 0.23743 0.03169 0.96263 0.0
C420 C 0.21152 0.98221 0.95346 0.0
C421 C 0.16095 0.96152 0.9459 0.0
C422 C 0.13599 0.9901 0.9477 0.0
C423 C 0.03346 0.15639 0.88756 0.0
C424 C 0.06238 0.1604 0.86753 0.0
C425 C 0.04424 0.14209 0.90955 0.0
C426 C 0.08547 0.13183 0.91336 0.0
C427 C 0.11401 0.13608 0.89324 0.0
C428 C 0.10308 0.14983 0.87144 0.0
C429 C 0.09937 0.11703 0.9374 0.0
C430 C 0.11905 0.0827 0.93879 0.0
C431 C 0.09608 0.1376 0.95922 0.0
C432 C 0.08411 0.1799 0.96073 0.0
C433 C 0.0476 0.17781 0.97647 0.0
C434 C 0.03658 0.21771 0.97804 0.0
C435 C 0.06249 0.26052 0.96418 0.0
C436 C 0.09986 0.26372 0.94892 0.0
C437 C 0.11104 0.22391 0.94732 0.0
H438 H 0.05395 0.29141 0.96543 0.0
H439 H 0.23072 0.96005 0.9521 0.0
H440 H 0.08363 0.22324 0.36141 0.0
H441 H 0.04617 0.20666 0.32303 0.0
H442 H 0.14875 0.15361 0.30118 0.0
H443 H 0.18562 0.16967 0.33998 0.0
H444 H 0.06442 0.0949 0.27963 0.0
H445 H -0.00022 0.24737 0.27417 0.0
H446 H 0.02415 0.33294 0.28953 0.0
H447 H 0.17593 0.36025 0.30362 0.0
H448 H 0.1528 0.2752 0.28829 0.0
H449 H 0.90556 0.03308 0.17731 0.0
H450 H 0.94076 0.05081 0.21609 0.0
H451 H 0.04023 0.20843 0.19861 0.0
H452 H 0.00387 0.19089 0.16021 0.0
H453 H 0.03028 0.21823 0.23935 0.0
H454 H 0.0655 0.09044 0.20812 0.0
H455 H 0.04448 0.00686 0.19192 0.0
H456 H 0.95884 0.93222 0.25199 0.0
H457 H 0.97708 0.01539 0.26813 0.0
C458 C 0.09906 0.20854 0.34854 0.0
C459 C 0.13951 0.19919 0.35459 0.0
C460 C 0.07724 0.19901 0.32603 0.0
C461 C 0.0941 0.17927 0.30779 0.0
C462 C 0.13411 0.16929 0.31395 0.0
C463 C 0.1561 0.17915 0.33647 0.0
C464 C 0.07014 0.16855 0.28296 0.0
C465 C 0.05662 0.12211 0.2712 0.0
C466 C 0.05983 0.20318 0.27046 0.0
C467 C 0.0743 0.25448 0.28008 0.0
C468 C 0.03842 0.27162 0.28047 0.0
C469 C 0.05203 0.32009 0.28923 0.0
C470 C 0.10152 0.35198 0.29759 0.0
C471 C 0.13753 0.33546 0.29723 0.0
C472 C 0.1241 0.28701 0.28855 0.0
C473 C 0.93503 0.07175 0.1815 0.0
C474 C 0.95092 0.11003 0.1645 0.0
C475 C 0.95636 0.08214 0.2042 0.0
C476 C 0.99626 0.13137 0.2116 0.0
C477 C 0.01106 0.16966 0.19462 0.0
C478 C 0.98953 0.1594 0.17202 0.0
C479 C 0.022 0.1432 0.23631 0.0
C480 C 0.03678 0.19036 0.24796 0.0
C481 C 0.0331 0.10908 0.24888 0.0
C482 C 0.0219 0.05911 0.23913 0.0
C483 C 0.04139 0.05615 0.2177 0.0
C484 C 0.02939 0.00867 0.2084 0.0
C485 C -0.00062 0.96396 0.22066 0.0
C486 C 0.98122 0.96669 0.24229 0.0
C487 C 0.99213 0.014 0.25147 0.0
H488 H 0.99111 0.92735 0.21361 0.0
H489 H 0.11198 0.38951 0.30432 0.0
H490 H 0.05696 0.1215 0.71158 0.0
H491 H 0.0321 0.07453 0.67505 0.0
H492 H 0.87907 0.04956 0.6835 0.0
H493 H 0.90382 0.09596 0.72017 0.0
H494 H 0.97749 0.98622 0.65689 0.0
H495 H 0.80898 0.01783 0.6357 0.0
H496 H 0.78296 0.08318 0.64121 0.0
H497 H 0.94121 0.20057 0.64555 0.0
H498 H 0.96808 0.13598 0.63995 0.0
H499 H 0.87895 0.83184 0.55281 0.0
H500 H 0.89471 0.86995 0.59098 0.0
H501 H 0.87976 0.99502 0.56508 0.0
H502 H 0.85921 0.95416 0.5277 0.0
H503 H 0.86811 0.01045 0.60157 0.0
H504 H 0.00849 0.97458 0.59042 0.0
H505 H 0.04646 0.91904 0.58328 0.0
H506 H 0.96415 0.82673 0.64052 0.0
H507 H 0.92556 0.88132 0.64778 0.0
C508 C 0.01782 0.1064 0.70582 0.0
C509 C 0.98314 0.11419 0.71975 0.0
C510 C 0.00318 0.07862 0.68447 0.0
C511 C 0.95293 0.05726 0.67508 0.0
C512 C 0.91828 0.06504 0.68908 0.0
C513 C 0.9327 0.09211 0.71062 0.0
C514 C 0.93726 0.02738 0.6513 0.0
C515 C 0.95359 0.99204 0.64492 0.0
C516 C 0.90632 0.03317 0.63438 0.0
C517 C 0.89043 0.07207 0.63761 0.0
C518 C 0.83815 0.05762 0.63777 0.0
C519 C 0.82328 0.09451 0.64094 0.0
C520 C 0.8604 0.14599 0.64379 0.0
C521 C 0.91249 0.1607 0.64343 0.0
C522 C 0.92755 0.12397 0.6403 0.0
C523 C 0.87831 0.86722 0.55512 0.0
C524 C 0.86707 0.88861 0.53603 0.0
C525 C 0.88933 0.89087 0.57751 0.0
C526 C 0.89266 0.93924 0.58245 0.0
C527 C 0.87961 0.95924 0.56332 0.0
C528 C 0.86719 0.93498 0.5412 0.0
C529 C 0.90846 0.96863 0.60663 0.0
C530 C 0.89218 0.0042 0.61322 0.0
C531 C 0.94055 0.96392 0.62352 0.0
C532 C 0.96361 0.93132 0.61929 0.0
C533 C 0.99838 0.94214 0.60127 0.0
C534 C 0.01979 0.91083 0.59721 0.0
C535 C 0.00717 0.86906 0.61125 0.0
C536 C 0.9735 0.85879 0.62953 0.0
C537 C 0.95182 0.88985 0.63361 0.0
H538 H 0.02387 0.84494 0.60809 0.0
H539 H 0.84881 0.17448 0.64624 0.0
H540 H 0.88888 0.94812 1.02441 0.0
H541 H 0.90801 0.92232 0.9875 0.0
H542 H 0.95939 0.07311 0.9618 0.0
H543 H 0.93816 0.09846 0.99872 0.0
H544 H 0.91267 0.0094 0.92794 0.0
H545 H 0.028 0.0037 0.9839 0.0
H546 H 0.04016 0.96522 1.01836 0.0
H547 H 0.98511 0.82211 0.98295 0.0
H548 H 0.96718 0.85791 0.94907 0.0
H549 H 0.09615 0.95637 0.84423 0.0
H550 H 0.07315 0.97789 0.88155 0.0
H551 H 0.91388 0.89519 0.86318 0.0
H552 H 0.93685 0.87328 0.82585 0.0
H553 H 0.01701 0.92471 0.91983 0.0
H554 H 0.84434 0.92238 0.89309 0.0
H555 H 0.79635 0.95695 0.87302 0.0
H556 H 0.93759 0.093 0.85746 0.0
H557 H 0.98638 0.05689 0.8761 0.0
C558 C 0.9042 0.97637 1.01107 0.0
C559 C 0.91206 0.02636 1.01565 0.0
C560 C 0.91594 0.96134 0.98948 0.0
C561 C 0.93765 0.99547 0.97086 0.0
C562 C 0.94398 0.045 0.9752 0.0
C563 C 0.93177 0.05995 0.99679 0.0
C564 C 0.95244 0.98009 0.94714 0.0
C565 C 0.93559 0.99076 0.92658 0.0
C566 C 0.98115 0.95376 0.94394 0.0
C567 C 0.99583 0.93369 0.96385 0.0
C568 C 0.01821 0.96398 0.98341 0.0
C569 C 0.02566 0.94244 1.00296 0.0
C570 C 0.0142 0.89152 1.00275 0.0
C571 C 0.9942 0.86167 0.98309 0.0
C572 C 0.98462 0.8824 0.9638 0.0
C573 C 0.05594 0.94245 0.84779 0.0
C574 C 0.01897 0.9125 0.8308 0.0
C575 C 0.04246 0.95515 0.86969 0.0
C576 C 0.99099 0.93989 0.87629 0.0
C577 C 0.95405 0.90966 0.8594 0.0
C578 C 0.96748 0.89643 0.8376 0.0
C579 C 0.97652 0.95369 0.90056 0.0
C580 C 0.99406 0.94325 0.92128 0.0
C581 C 0.94466 0.97625 0.90424 0.0
C582 C 0.91903 0.98713 0.88569 0.0
C583 C 0.86521 0.95854 0.88435 0.0
C584 C 0.83784 0.97859 0.87353 0.0
C585 C 0.86395 0.02758 0.86431 0.0
C586 C 0.91753 0.05539 0.86487 0.0
C587 C 0.94505 0.03481 0.87517 0.0
H588 H 0.84274 0.04371 0.85644 0.0
H589 H 0.02055 0.87514 1.01785 0.0
H590 H 0.98504 0.82284 0.39178 0.0
H591 H 0.02512 0.84105 0.35359 0.0
H592 H 0.95775 0.93444 0.33915 0.0
H593 H 0.91768 0.91617 0.37697 0.0
H594 H 0.99003 0.82607 0.30634 0.0
H595 H 0.02039 0.02149 0.30752 0.0
H596 H 0.02658 0.08378 0.33685 0.0
H597 H 0.11959 0.04531 0.37835 0.0
H598 H 0.11282 0.98201 0.34948 0.0
H599 H 0.14565 0.89735 0.20328 0.0
H600 H 0.10895 0.87598 0.2417 0.0
H601 H 0.10521 0.01691 0.24505 0.0
H602 H 0.14411 0.03902 0.20724 0.0
H603 H 0.10523 0.00607 0.28422 0.0
H604 H 0.04588 0.79099 0.28379 0.0
H605 H 0.01666 0.71857 0.25669 0.0
H606 H 0.96107 0.79123 0.21152 0.0
H607 H 0.98879 0.86341 0.23865 0.0
C608 C 0.97841 0.84731 0.38062 0.0
C609 C 0.94705 0.86758 0.38851 0.0
C610 C 0.00172 0.85784 0.35828 0.0
C611 C 0.99625 0.89021 0.34238 0.0
C612 C 0.96472 0.91018 0.35029 0.0
C613 C 0.94095 0.89917 0.37241 0.0
C614 C 0.0235 0.90375 0.31819 0.0
C615 C 0.01583 0.86555 0.30181 0.0
C616 C 0.05619 0.95493 0.31064 0.0
C617 C 0.06652 0.9976 0.32632 0.0
C618 C 0.043 0.02718 0.3227 0.0
C619 C 0.04598 0.06207 0.33939 0.0
C620 C 0.07331 0.06838 0.35949 0.0
C621 C 0.09834 0.04034 0.36282 0.0
C622 C 0.0948 0.00485 0.34635 0.0
C623 C 0.13715 0.9241 0.21204 0.0
C624 C 0.14842 0.97024 0.20097 0.0
C625 C 0.11452 0.91119 0.23449 0.0
C626 C 0.10017 0.94278 0.24745 0.0
C627 C 0.11361 0.98982 0.23657 0.0
C628 C 0.1364 0.0028 0.21426 0.0
C629 C 0.07254 0.9281 0.27178 0.0
C630 C 0.0799 0.9663 0.28837 0.0
C631 C 0.0379 0.87665 0.27915 0.0
C632 C 0.02017 0.83295 0.26306 0.0
C633 C 0.0272 0.79137 0.26813 0.0
C634 C 0.01083 0.75034 0.25279 0.0
C635 C 0.98714 0.75039 0.23237 0.0
C636 C 0.97942 0.79129 0.22733 0.0
C637 C 0.99544 0.83224 0.24268 0.0
H638 H 0.97469 0.7187 0.22048 0.0
H639 H 0.07509 0.09497 0.3725 0.0
H640 H 0.03404 0.93664 0.67854 0.0
H641 H 0.05598 0.98606 0.64301 0.0
H642 H 0.21104 0.0161 0.6478 0.0
H643 H 0.19028 0.96985 0.6842 0.0
H644 H 0.12105 0.08571 0.62968 0.0
H645 H 0.26638 0.03915 0.58764 0.0
H646 H 0.29215 0.97324 0.5873 0.0
H647 H 0.14181 0.86136 0.61004 0.0
H648 H 0.11525 0.92651 0.61045 0.0
H649 H 0.14245 0.1931 0.51632 0.0
H650 H 0.13003 0.15621 0.55397 0.0
H651 H 0.23894 0.10655 0.53804 0.0
H652 H 0.24797 0.14047 0.49975 0.0
H653 H 0.19908 0.0462 0.56387 0.0
H654 H 0.06561 0.11344 0.60734 0.0
H655 H 0.0595 0.19151 0.61304 0.0
H656 H 0.21812 0.284 0.59482 0.0
H657 H 0.22516 0.20663 0.58872 0.0
C658 C 0.0729 0.95307 0.67212 0.0
C659 C 0.10964 0.94718 0.68499 0.0
C660 C 0.08563 0.98195 0.65134 0.0
C661 C 0.13532 0.00517 0.64124 0.0
C662 C 0.17199 0.99891 0.65403 0.0
C663 C 0.15982 0.97176 0.6753 0.0
C664 C 0.1483 0.03584 0.61805 0.0
C665 C 0.13748 0.07628 0.61519 0.0
C666 C 0.17292 0.02753 0.59874 0.0
C667 C 0.18869 0.98794 0.59917 0.0
C668 C 0.23873 0.00049 0.59257 0.0
C669 C 0.2536 0.96326 0.59241 0.0
C670 C 0.2187 0.91315 0.5987 0.0
C671 C 0.16889 0.90021 0.6052 0.0
C672 C 0.15391 0.93735 0.60542 0.0
C673 C 0.16396 0.17427 0.52063 0.0
C674 C 0.19569 0.16989 0.50369 0.0
C675 C 0.15703 0.15259 0.54306 0.0
C676 C 0.18228 0.12572 0.55077 0.0
C677 C 0.21642 0.12436 0.53401 0.0
C678 C 0.22233 0.1449 0.51142 0.0
C679 C 0.17199 0.09728 0.57487 0.0
C680 C 0.18297 0.05671 0.57803 0.0
C681 C 0.15052 0.10764 0.595 0.0
C682 C 0.14556 0.15408 0.59702 0.0
C683 C 0.09903 0.15044 0.60421 0.0
C684 C 0.09543 0.1946 0.60755 0.0
C685 C 0.13838 0.24274 0.60413 0.0
C686 C 0.18482 0.24675 0.5972 0.0
C687 C 0.18857 0.20273 0.59369 0.0
H688 H 0.13589 0.27697 0.60707 0.0
H689 H 0.23022 0.88433 0.59849 0.0
H690 H 0.39464 0.14363 0.10906 0.0
H691 H 0.4811 0.15486 0.10696 0.0
H692 H 0.41938 0.99526 0.12249 0.0
H693 H 0.33501 0.9868 0.12809 0.0
H694 H 0.50173 0.03008 0.13827 0.0
H695 H 0.46794 0.07943 1.06417 0.0
H696 H 0.45121 0.1334 1.03817 0.0
H697 H 0.59216 0.26526 1.05872 0.0
H698 H 0.60891 0.21273 1.08543 0.0
H699 H 0.70003 0.99415 1.0892 0.0
H700 H 0.62261 0.99939 1.09619 0.0
H701 H 0.71415 0.1626 0.10474 0.0
H702 H 0.79309 0.15736 1.09816 0.0
H703 H 0.6241 0.13454 1.07799 0.0
H704 H 0.65968 0.09193 0.15013 0.0
H705 H 0.68099 0.04521 0.17808 0.0
H706 H 0.54135 0.90675 0.16219 0.0
H707 H 0.51959 0.95258 0.13368 0.0
C708 C 0.39946 0.11088 0.11209 0.0
C709 C 0.3565 0.06387 0.11833 0.0
C710 C 0.44959 0.11704 0.11047 0.0
C711 C 0.45885 0.07551 0.11336 0.0
C712 C 0.41549 0.02866 0.11983 0.0
C713 C 0.3661 0.02341 0.12279 0.0
C714 C 0.51246 0.08005 0.11018 0.0
C715 C 0.52736 0.05228 0.12463 0.0
C716 C 0.54946 0.11091 1.09331 0.0
C717 C 0.53948 0.1421 1.07693 0.0
C718 C 0.49529 0.11996 1.0632 0.0
C719 C 0.48572 0.15031 1.04838 0.0
C720 C 0.52064 0.20258 1.04674 0.0
C721 C 0.56512 0.22474 1.06 0.0
C722 C 0.57456 0.19474 1.07504 0.0
C723 C 0.70436 0.0315 1.09265 0.0
C724 C 0.754 0.07531 1.09308 0.0
C725 C 0.65935 0.03438 1.09673 0.0
C726 C 0.66113 0.08135 1.1011 0.0
C727 C 0.71062 0.12556 1.1014 0.0
C728 C 0.75622 0.12255 1.09777 0.0
C729 C 0.61133 0.08314 0.10544 0.0
C730 C 0.59757 0.112 1.09134 0.0
C731 C 0.57543 0.05366 0.12263 0.0
C732 C 0.58825 0.02562 0.1396 0.0
C733 C 0.63372 0.0514 0.15241 0.0
C734 C 0.64585 0.02508 0.16839 0.0
C735 C 0.61257 0.97301 0.17193 0.0
C736 C 0.5671 0.9471 0.15942 0.0
C737 C 0.55485 0.97324 0.14333 0.0
H738 H 0.62195 0.95284 0.18443 0.0
H739 H 0.51321 0.22591 1.03521 0.0
H740 H 0.36715 0.31553 0.43043 0.0
H741 H 0.45172 0.39206 0.43521 0.0
H742 H 0.38664 0.4871 0.4186 0.0
H743 H 0.30331 0.41064 0.41235 0.0
H744 H 0.47329 0.53406 0.40289 0.0
H745 H 0.42258 0.46529 0.47711 0.0
H746 H 0.39293 0.40103 0.50756 0.0
H747 H 0.52681 0.38586 0.49836 0.0
H748 H 0.55698 0.44964 0.46767 0.0
H749 H 0.69715 0.76215 0.45007 0.0
H750 H 0.60865 0.68972 0.44527 0.0
H751 H 0.66749 0.58547 0.44024 0.0
H752 H 0.75457 0.65655 0.44451 0.0
H753 H 0.58238 0.54773 0.46858 0.0
H754 H 0.62875 0.62104 0.39247 0.0
H755 H 0.65515 0.69091 0.36484 0.0
H756 H 0.52389 0.70515 0.38279 0.0
H757 H 0.49674 0.63543 0.41052 0.0
C758 C 0.37098 0.35273 0.42761 0.0
C759 C 0.32787 0.35639 0.42103 0.0
C760 C 0.41959 0.39699 0.43065 0.0
C761 C 0.4266 0.44675 0.428 0.0
C762 C 0.38351 0.45005 0.42092 0.0
C763 C 0.33531 0.40584 0.41736 0.0
C764 C 0.47817 0.49499 0.43255 0.0
C765 C 0.49641 0.53683 0.41753 0.0
C766 C 0.50978 0.50035 0.45156 0.0
C767 C 0.49175 0.46184 0.46993 0.0
C768 C 0.44551 0.44798 0.48148 0.0
C769 C 0.42864 0.41169 0.49879 0.0
C770 C 0.45789 0.38926 0.50484 0.0
C771 C 0.50414 0.40319 0.49363 0.0
C772 C 0.52117 0.43944 0.47628 0.0
C773 C 0.69111 0.72376 0.44806 0.0
C774 C 0.73359 0.71575 0.44768 0.0
C775 C 0.64036 0.68219 0.44518 0.0
C776 C 0.63067 0.63141 0.44224 0.0
C777 C 0.67311 0.62368 0.44243 0.0
C778 C 0.72337 0.66488 0.44484 0.0
C779 C 0.57714 0.58591 0.43888 0.0
C780 C 0.55874 0.54466 0.45409 0.0
C781 C 0.5448 0.5818 0.42049 0.0
C782 C 0.56098 0.62336 0.40369 0.0
C783 C 0.60568 0.63928 0.3906 0.0
C784 C 0.62071 0.67876 0.37488 0.0
C785 C 0.59124 0.70248 0.37209 0.0
C786 C 0.54665 0.68672 0.38496 0.0
C787 C 0.53135 0.64714 0.40062 0.0
H788 H 0.60275 0.73286 0.35988 0.0
H789 H 0.44477 0.36119 0.51826 0.0
H790 H 0.12717 0.37275 0.76132 0.0
H791 H 0.136 0.45817 0.75786 0.0
H792 H 0.00543 0.41214 0.80189 0.0
H793 H 0.99605 0.32684 0.80475 0.0
H794 H 0.99278 0.4634 0.77232 0.0
H795 H 0.14568 0.51051 0.81446 0.0
H796 H 0.22876 0.51624 0.82287 0.0
H797 H 0.29086 0.59572 0.76017 0.0
H798 H 0.20791 0.58994 0.75124 0.0
H799 H 0.01397 0.71384 0.78184 0.0
H800 H 0.0106 0.63147 0.78728 0.0
H801 H 0.14212 0.68028 0.74358 0.0
H802 H 0.1455 0.76273 0.73826 0.0
H803 H 0.15589 0.62833 0.77355 0.0
H804 H 0.00186 0.56849 0.7287 0.0
H805 H 0.91602 0.55049 0.7168 0.0
H806 H 0.85661 0.49338 0.78344 0.0
H807 H 0.94209 0.50929 0.79542 0.0
C808 C 0.10129 0.38112 0.77095 0.0
C809 C 0.06199 0.34193 0.78414 0.0
C810 C 0.10617 0.4308 0.76886 0.0
C811 C 0.07186 0.44422 0.77976 0.0
C812 C 0.03299 0.40492 0.79308 0.0
C813 C 0.02804 0.35547 0.79505 0.0
C814 C 0.07432 0.49709 0.77665 0.0
C815 C 0.0288 0.49921 0.77308 0.0
C816 C 0.12057 0.54567 0.77677 0.0
C817 C 0.17045 0.54935 0.78208 0.0
C818 C 0.17696 0.52892 0.80239 0.0
C819 C 0.22404 0.53222 0.80727 0.0
C820 C 0.26502 0.5562 0.79204 0.0
C821 C 0.25905 0.57708 0.77193 0.0
C822 C 0.21203 0.57385 0.76696 0.0
C823 C 0.04211 0.70724 0.77314 0.0
C824 C 0.07987 0.74652 0.75939 0.0
C825 C 0.03998 0.65903 0.77618 0.0
C826 C 0.0756 0.6469 0.76572 0.0
C827 C 0.11359 0.68651 0.75212 0.0
C828 C 0.11545 0.73453 0.74894 0.0
C829 C 0.07419 0.59453 0.76924 0.0
C830 C 0.1199 0.59252 0.77293 0.0
C831 C 0.02814 0.54586 0.76925 0.0
C832 C 0.97834 0.5409 0.76303 0.0
C833 C 0.97062 0.55284 0.7409 0.0
C834 C 0.92192 0.54263 0.7341 0.0
C835 C 0.88084 0.52126 0.74943 0.0
C836 C 0.88845 0.51004 0.7716 0.0
C837 C 0.93693 0.51934 0.77836 0.0
H838 H 0.84306 0.51313 0.74412 0.0
H839 H 0.30144 0.55871 0.79584 0.0
H840 H 0.12326 0.24442 0.21172 0.0
H841 H 0.16323 0.28082 0.24792 0.0
H842 H 0.30943 0.36814 0.21458 0.0
H843 H 0.26988 0.33242 0.1784 0.0
H844 H 0.21892 0.23993 0.25477 0.0
H845 H 0.40467 0.44167 0.25011 0.0
H846 H 0.42791 0.53018 0.24086 0.0
H847 H 0.27351 0.496 0.25474 0.0
H848 H 0.24943 0.40748 0.26443 0.0
H849 H 0.40192 0.21276 0.31156 0.0
H850 H 0.37536 0.24668 0.27994 0.0
H851 H 0.36018 0.35048 0.32639 0.0
H852 H 0.38788 0.31835 0.35757 0.0
H853 H 0.37628 0.38829 0.28579 0.0
H854 H 0.27116 0.22278 0.31943 0.0
H855 H 0.24079 0.13279 0.32907 0.0
H856 H 0.22317 0.09214 0.25809 0.0
H857 H 0.2556 0.18214 0.2479 0.0
C858 C 0.1631 0.27406 0.21183 0.0
C859 C 0.19371 0.28324 0.19235 0.0
C860 C 0.1861 0.2952 0.23272 0.0
C861 C 0.23971 0.32567 0.23421 0.0
C862 C 0.26807 0.34417 0.21406 0.0
C863 C 0.24505 0.32328 0.19313 0.0
C864 C 0.26656 0.32204 0.2546 0.0
C865 C 0.25303 0.27257 0.26172 0.0
C866 C 0.31094 0.36445 0.26371 0.0
C867 C 0.32518 0.41773 0.25788 0.0
C868 C 0.3757 0.45305 0.25132 0.0
C869 C 0.38902 0.50325 0.24596 0.0
C870 C 0.35219 0.51868 0.24716 0.0
C871 C 0.30196 0.48395 0.25374 0.0
C872 C 0.28843 0.43371 0.25911 0.0
C873 C 0.39542 0.24459 0.31476 0.0
C874 C 0.39569 0.26186 0.33714 0.0
C875 C 0.37992 0.26371 0.29674 0.0
C876 C 0.36356 0.29939 0.3011 0.0
C877 C 0.37176 0.32233 0.3227 0.0
C878 C 0.38801 0.30393 0.34059 0.0
C879 C 0.32991 0.30613 0.28486 0.0
C880 C 0.34208 0.35591 0.27877 0.0
C881 C 0.28389 0.26377 0.27662 0.0
C882 C 0.26657 0.20973 0.28288 0.0
C883 C 0.26187 0.19498 0.30582 0.0
C884 C 0.24425 0.14386 0.31139 0.0
C885 C 0.23015 0.10683 0.29422 0.0
C886 C 0.23421 0.12089 0.2714 0.0
C887 C 0.25249 0.17202 0.26572 0.0
H888 H 0.21591 0.06722 0.2986 0.0
H889 H 0.3626 0.55757 0.24302 0.0
H890 H 0.03741 0.26987 0.55437 0.0
H891 H 0.07682 0.30355 0.59144 0.0
H892 H 0.17697 0.45039 0.56142 0.0
H893 H 0.13849 0.41693 0.52436 0.0
H894 H 0.23004 0.41015 0.57909 0.0
H895 H 0.09796 0.44172 0.60508 0.0
H896 H 0.00913 0.42299 0.61179 0.0
H897 H 0.98161 0.29694 0.65437 0.0
H898 H 0.06995 0.31426 0.64759 0.0
H899 H 0.27444 0.42886 0.71192 0.0
H900 H 0.26157 0.45937 0.6755 0.0
H901 H 0.23883 0.32106 0.64248 0.0
H902 H 0.24877 0.289 0.67883 0.0
H903 H 0.15916 0.38848 0.65724 0.0
H904 H 0.27868 0.36594 0.58235 0.0
H905 H 0.36662 0.38262 0.57586 0.0
H906 H 0.42139 0.49316 0.63042 0.0
H907 H 0.33384 0.47778 0.63711 0.0
C908 C 0.06653 0.30982 0.55585 0.0
C909 C 0.08534 0.34044 0.5364 0.0
C910 C 0.08898 0.32914 0.57706 0.0
C911 C 0.13039 0.3793 0.57905 0.0
C912 C 0.14525 0.41153 0.56016 0.0
C913 C 0.12277 0.39234 0.539 0.0
C914 C 0.16372 0.39439 0.59936 0.0
C915 C 0.21492 0.40616 0.59624 0.0
C916 C 0.14391 0.38994 0.62159 0.0
C917 C 0.09066 0.37932 0.62579 0.0
C918 C 0.07288 0.4098 0.61576 0.0
C919 C 0.02259 0.39942 0.61958 0.0
C920 C 0.98973 0.35875 0.63347 0.0
C921 C 0.0071 0.3284 0.6436 0.0
C922 C 0.05732 0.33855 0.63981 0.0
C923 C 0.26819 0.40557 0.69678 0.0
C924 C 0.26106 0.35586 0.69839 0.0
C925 C 0.2612 0.42325 0.67601 0.0
C926 C 0.24878 0.39214 0.6565 0.0
C927 C 0.24871 0.34564 0.65742 0.0
C928 C 0.25466 0.32747 0.67826 0.0
C929 C 0.22464 0.40185 0.63689 0.0
C930 C 0.17488 0.39407 0.64013 0.0
C931 C 0.24577 0.40959 0.61477 0.0
C932 C 0.29901 0.41967 0.61063 0.0
C933 C 0.30924 0.39365 0.59309 0.0
C934 C 0.35919 0.403 0.58931 0.0
C935 C 0.39952 0.43864 0.60283 0.0
C936 C 0.39002 0.46523 0.62008 0.0
C937 C 0.34014 0.45605 0.62392 0.0
H938 H 0.43817 0.44583 0.59988 0.0
H939 H 0.95082 0.3508 0.63641 0.0
H940 H 0.92822 0.38439 0.82411 0.0
H941 H 0.95494 0.44756 0.85451 0.0
H942 H 0.81609 0.34977 0.89142 0.0
H943 H 0.78682 0.28843 0.86012 0.0
H944 H 0.86299 0.4428 0.91089 0.0
H945 H 0.91585 0.31411 0.88761 0.0
H946 H 0.95436 0.2805 0.85988 0.0
H947 H 0.08774 0.42958 0.85476 0.0
H948 H 0.04987 0.46395 0.88249 0.0
H949 H 0.87317 0.30614 1.00146 0.0
H950 H 0.86684 0.35194 0.96888 0.0
H951 H 0.03118 0.45128 0.96947 0.0
H952 H 0.03785 0.40431 1.0018 0.0
H953 H 0.00056 0.40416 0.93053 0.0
H954 H 0.95063 0.50355 0.97401 0.0
H955 H 0.90599 0.52428 1.00407 0.0
H956 H 0.76071 0.42185 0.9732 0.0
H957 H 0.80427 0.39981 0.94314 0.0
C958 C 0.90157 0.3775 0.83789 0.0
C959 C 0.85695 0.32949 0.84048 0.0
C960 C 0.91719 0.41392 0.85543 0.0
C961 C 0.88923 0.40162 0.87587 0.0
C962 C 0.83936 0.35932 0.87613 0.0
C963 C 0.82297 0.32368 0.8583 0.0
C964 C 0.91612 0.42022 0.89801 0.0
C965 C 0.89372 0.4354 0.91527 0.0
C966 C 0.95726 0.41186 0.90361 0.0
C967 C 0.98004 0.39156 0.88693 0.0
C968 C 0.9534 0.33961 0.88055 0.0
C969 C 0.97506 0.32046 0.86486 0.0
C970 C 0.02352 0.35287 0.85564 0.0
C971 C 0.05027 0.40454 0.86198 0.0
C972 C 0.02877 0.42387 0.87768 0.0
C973 C 0.9079 0.33823 0.99486 0.0
C974 C 0.95608 0.351 1.00387 0.0
C975 C 0.90416 0.36512 0.9765 0.0
C976 C 0.94851 0.40554 0.96683 0.0
C977 C 0.99642 0.42058 0.97679 0.0
C978 C 0.00018 0.39362 0.99521 0.0
C979 C 0.94522 0.42354 0.94383 0.0
C980 C 0.97207 0.41494 0.92632 0.0
C981 C 0.90762 0.43694 0.93825 0.0
C982 C 0.88088 0.4501 0.95623 0.0
C983 C 0.90914 0.48522 0.97366 0.0
C984 C 0.884 0.49723 0.99072 0.0
C985 C 0.83056 0.47444 0.99054 0.0
C986 C 0.80213 0.43959 0.97328 0.0
C987 C 0.82706 0.42743 0.95618 0.0
H988 H 0.81117 0.48376 1.00376 0.0
H989 H 0.04043 0.33789 0.84366 0.0
H990 H 0.60369 0.86619 0.17121 0.0
H991 H 0.56894 0.85451 0.20996 0.0
H992 H 0.65865 0.78517 0.22932 0.0
H993 H 0.69583 0.79957 0.19143 0.0
H994 H 0.55938 0.74501 0.2528 0.0
H995 H 0.71608 0.90326 0.23285 0.0
H996 H 0.76612 0.98187 0.2106 0.0
H997 H 0.65954 0.03221 0.22913 0.0
H998 H 0.60843 0.95321 0.25116 0.0
H999 H 0.70504 0.81493 0.35008 0.0
H1000 H 0.65828 0.79158 0.31431 0.0
H1001 H 0.60815 0.90124 0.32756 0.0
H1002 H 0.65701 0.92636 0.36322 0.0
H1003 H 0.6527 0.91792 0.28823 0.0
H1004 H 0.51704 0.77022 0.32063 0.0
H1005 H 0.474 0.69283 0.34416 0.0
H1006 H 0.54318 0.62273 0.30426 0.0
H1007 H 0.58674 0.69969 0.28047 0.0
C1008 C 0.61537 0.84777 0.18366 0.0
C1009 C 0.65355 0.83512 0.17838 0.0
C1010 C 0.59487 0.8404 0.20564 0.0
C1011 C 0.61152 0.81924 0.22244 0.0
C1012 C 0.64498 0.80112 0.21649 0.0
C1013 C 0.66625 0.80943 0.19472 0.0
C1014 C 0.6039 0.8259 0.24684 0.0
C1015 C 0.57899 0.78269 0.26069 0.0
C1016 C 0.62838 0.87524 0.25692 0.0
C1017 C 0.65817 0.92214 0.24333 0.0
C1018 C 0.70309 0.93086 0.23193 0.0
C1019 C 0.73167 0.97549 0.21942 0.0
C1020 C 0.71605 0.01205 0.21849 0.0
C1021 C 0.67161 0.00386 0.22992 0.0
C1022 C 0.64275 0.95909 0.24235 0.0
C1023 C 0.68378 0.83388 0.34548 0.0
C1024 C 0.68557 0.87323 0.35921 0.0
C1025 C 0.65609 0.81972 0.32521 0.0
C1026 C 0.62905 0.84417 0.31831 0.0
C1027 C 0.62837 0.88155 0.33263 0.0
C1028 C 0.65629 0.89586 0.35298 0.0
C1029 C 0.60989 0.83683 0.29458 0.0
C1030 C 0.63029 0.88011 0.28066 0.0
C1031 C 0.58133 0.78753 0.28456 0.0
C1032 C 0.55515 0.74084 0.29873 0.0
C1033 C 0.52322 0.73837 0.31689 0.0
C1034 C 0.49861 0.69451 0.33025 0.0
C1035 C 0.50582 0.65288 0.3257 0.0
C1036 C 0.5375 0.65495 0.30772 0.0
C1037 C 0.56196 0.69861 0.29421 0.0
H1038 H 0.48698 0.61908 0.33616 0.0
H1039 H 0.73847 0.0468 0.20895 0.0
H1040 H 0.89451 0.58354 0.55926 0.0
H1041 H 0.8549 0.53688 0.59387 0.0
H1042 H 0.70941 0.51967 0.57312 0.0
H1043 H 0.74979 0.5697 0.5392 0.0
H1044 H 0.73287 0.56386 0.61138 0.0
H1045 H 0.72587 0.41205 0.5856 0.0
H1046 H 0.75456 0.35693 0.56684 0.0
H1047 H 0.8768 0.40544 0.61538 0.0
H1048 H 0.84946 0.46148 0.63424 0.0
H1049 H 0.71776 0.55469 0.72812 0.0
H1050 H 0.68772 0.50232 0.69327 0.0
H1051 H 0.8437 0.54365 0.6767 0.0
H1052 H 0.87359 0.59683 0.71047 0.0
H1053 H 0.7746 0.4512 0.6565 0.0
H1054 H 0.805 0.62933 0.66411 0.0
H1055 H 0.78611 0.69257 0.68222 0.0
H1056 H 0.62599 0.59689 0.66691 0.0
H1057 H 0.64412 0.53304 0.64877 0.0
C1058 C 0.8539 0.56926 0.56187 0.0
C1059 C 0.82578 0.58166 0.54668 0.0
C1060 C 0.83089 0.54148 0.58153 0.0
C1061 C 0.77891 0.52442 0.58621 0.0
C1062 C 0.74955 0.53236 0.56993 0.0
C1063 C 0.77276 0.56088 0.55042 0.0
C1064 C 0.7591 0.50888 0.60977 0.0
C1065 C 0.7399 0.53736 0.62096 0.0
C1066 C 0.76879 0.47494 0.62255 0.0
C1067 C 0.78545 0.44102 0.61138 0.0
C1068 C 0.75902 0.41119 0.59223 0.0
C1069 C 0.77505 0.37974 0.58158 0.0
C1070 C 0.81745 0.37766 0.58993 0.0
C1071 C 0.84388 0.407 0.60897 0.0
C1072 C 0.82802 0.43851 0.61969 0.0
C1073 C 0.74523 0.55062 0.71754 0.0
C1074 C 0.79813 0.57994 0.7221 0.0
C1075 C 0.72801 0.52051 0.69769 0.0
C1076 C 0.76361 0.51978 0.68221 0.0
C1077 C 0.81544 0.54329 0.6884 0.0
C1078 C 0.83259 0.5736 0.70797 0.0
C1079 C 0.75106 0.50795 0.65772 0.0
C1080 C 0.76451 0.4749 0.64646 0.0
C1081 C 0.73673 0.53806 0.6447 0.0
C1082 C 0.72577 0.5764 0.65533 0.0
C1083 C 0.76579 0.62186 0.66466 0.0
C1084 C 0.75524 0.65777 0.67491 0.0
C1085 C 0.70485 0.64868 0.67577 0.0
C1086 C 0.66497 0.60379 0.66628 0.0
C1087 C 0.67535 0.56777 0.656 0.0
H1088 H 0.69673 0.67647 0.68376 0.0
H1089 H 0.82982 0.35332 0.58164 0.0
H1090 H 0.38908 0.09474 0.85123 0.0
H1091 H 0.40396 0.06711 0.88795 0.0
H1092 H 0.248 0.01844 0.90767 0.0
H1093 H 0.23136 0.04165 0.87088 0.0
H1094 H 0.38838 0.06392 0.9363 0.0
H1095 H 0.18946 0.89283 0.91442 0.0
H1096 H 0.13302 0.85918 0.88078 0.0
H1097 H 0.2648 0.92129 0.83682 0.0
H1098 H 0.32197 0.95514 0.8702 0.0
H1099 H 0.20359 0.85456 1.00894 0.0
H1100 H 0.22553 0.88437 0.97019 0.0
H1101 H 0.3818 0.91949 0.98152 0.0
H1102 H 0.36027 0.89251 1.02128 0.0
H1103 H 0.2628 0.8778 0.93195 0.0
H1104 H 0.46036 0.02716 0.95291 0.0
H1105 H 0.51941 0.05877 0.98576 0.0
H1106 H 0.39547 0.0382 1.02955 0.0
H1107 H 0.33597 0.00763 0.99679 0.0
C1108 C 0.35829 0.0795 0.86363 0.0
C1109 C 0.3081 0.06723 0.85742 0.0
C1110 C 0.36713 0.06424 0.88471 0.0
C1111 C 0.32625 0.03847 0.8999 0.0
C1112 C 0.27957 0.03691 0.89577 0.0
C1113 C 0.27029 0.05081 0.87456 0.0
C1114 C 0.32777 0.00342 0.91681 0.0
C1115 C 0.36135 0.02319 0.9353 0.0
C1116 C 0.29387 0.95 0.91494 0.0
C1117 C 0.25994 0.92687 0.89483 0.0
C1118 C 0.20637 0.89902 0.89759 0.0
C1119 C 0.17426 0.88005 0.87856 0.0
C1120 C 0.19531 0.88831 0.85666 0.0
C1121 C 0.24854 0.91515 0.85377 0.0
C1122 C 0.2808 0.93425 0.87275 0.0
C1123 C 0.24224 0.86697 1.00299 0.0
C1124 C 0.28051 0.87221 1.01814 0.0
C1125 C 0.25491 0.88422 0.98075 0.0
C1126 C 0.30595 0.90645 0.97319 0.0
C1127 C 0.34262 0.90445 0.98728 0.0
C1128 C 0.33027 0.88862 1.00988 0.0
C1129 C 0.32072 0.93862 0.9525 0.0
C1130 C 0.2906 0.91833 0.93286 0.0
C1131 C 0.35815 0.99142 0.95322 0.0
C1132 C 0.39387 0.01476 0.97254 0.0
C1133 C 0.44598 0.03017 0.96951 0.0
C1134 C 0.47944 0.04777 0.98807 0.0
C1135 C 0.46113 0.05017 1.00971 0.0
C1136 C 0.40958 0.03627 1.01276 0.0
C1137 C 0.37603 0.01912 0.99418 0.0
H1138 H 0.48702 0.06261 1.02407 0.0
H1139 H 0.1704 0.87381 0.84194 0.0
loop_
_geom_bond_atom_site_label_1
_geom_bond_atom_site_label_2
_geom_bond_distance
_geom_bond_site_symmetry_2
_ccdc_geom_bond_type
Nd0 C2 2.836 . S
Nd0 O20 2.500 . S
Nd0 O21 2.492 . S
Nd0 O22 2.487 1_566 S
Nd0 O23 2.682 1_566 S
Nd0 O24 2.410 1_565 S
Nd0 O29 2.414 1_566 S
Nd0 O31 2.424 1_556 S
Nd1 C11 2.836 . S
Nd1 O23 2.414 . S
Nd1 O25 2.424 1_554 S
Nd1 O26 2.500 . S
Nd1 O27 2.492 . S
Nd1 O28 2.487 . S
Nd1 O29 2.682 . S
Nd1 O30 2.410 . S
C2 Nd0 2.836 . S
C2 C3 1.498 . S
C2 O20 1.258 . S
C2 O21 1.239 . S
C3 C2 1.498 . S
C3 C4 1.366 . S
C3 C8 1.407 . S
C4 C3 1.366 . S
C4 C5 1.392 . S
C4 H32 0.930 . S
C5 C4 1.392 . S
C5 C6 1.398 . S
C5 H33 0.929 . S
C6 C5 1.398 . S
C6 C7 1.352 . S
C7 C6 1.352 . S
C7 C8 1.384 . S
C7 H34 0.930 . S
C8 C3 1.407 . S
C8 C7 1.384 . S
C8 H35 0.929 . S
C9 O22 1.243 . S
C9 O23 1.273 . S
C10 O24 1.251 . S
C10 O25 1.268 . S
C11 Nd1 2.836 . S
C11 C12 1.498 . S
C11 O26 1.258 . S
C11 O27 1.239 . S
C12 C11 1.498 . S
C12 C13 1.366 . S
C12 C17 1.407 . S
C13 C12 1.366 . S
C13 C14 1.392 . S
C13 H36 0.930 . S
C14 C13 1.392 . S
C14 C15 1.398 . S
C14 H37 0.929 . S
C15 C14 1.398 . S
C15 C16 1.352 . S
C16 C15 1.352 . S
C16 C17 1.384 . S
C16 H38 0.930 . S
C17 C12 1.407 . S
C17 C16 1.384 . S
C17 H39 0.929 . S
C18 O28 1.241 . S
C18 O29 1.273 . S
C19 O30 1.251 . S
C19 O31 1.268 1_545 S
O20 Nd0 2.500 . S
O20 C2 1.258 . S
O21 Nd0 2.492 . S
O21 C2 1.239 . S
O22 Nd0 2.487 1_544 S
O22 C9 1.243 . S
O23 Nd0 2.682 1_544 S
O23 Nd1 2.414 . S
O23 C9 1.273 . S
O24 Nd0 2.410 1_545 S
O24 C10 1.251 . S
O25 Nd1 2.424 1_556 S
O25 C10 1.268 . S
O26 Nd1 2.500 . S
O26 C11 1.258 . S
O27 Nd1 2.492 . S
O27 C11 1.239 . S
O28 Nd1 2.487 . S
O28 C18 1.241 . S
O29 Nd0 2.414 1_544 S
O29 Nd1 2.682 . S
O29 C18 1.273 . S
O30 Nd1 2.410 . S
O30 C19 1.251 . S
O31 Nd0 2.424 1_554 S
O31 C19 1.268 1_565 S
H32 C4 0.930 . S
H33 C5 0.929 . S
H34 C7 0.930 . S
H35 C8 0.929 . S
H36 C13 0.930 . S
H37 C14 0.929 . S
H38 C16 0.930 . S
H39 C17 0.929 . S
Nd40 C42 2.836 . S
Nd40 O60 2.500 . S
Nd40 O61 2.492 . S
Nd40 O62 2.487 . S
Nd40 O63 2.682 . S
Nd40 O64 2.410 . S
Nd40 O69 2.414 . S
Nd40 O71 2.424 . S
Nd41 C51 2.836 . S
Nd41 O63 2.414 . S
Nd41 O65 2.424 . S
Nd41 O66 2.500 . S
Nd41 O67 2.492 . S
Nd41 O68 2.487 . S
Nd41 O69 2.682 . S
Nd41 O70 2.410 . S
C42 Nd40 2.836 . S
C42 C43 1.498 . S
C42 O60 1.258 . S
C42 O61 1.239 . S
C43 C42 1.498 . S
C43 C44 1.366 . S
C43 C48 1.407 . S
C44 C43 1.366 . S
C44 C45 1.392 . S
C44 H72 0.930 . S
C45 C44 1.392 . S
C45 C46 1.398 . S
C45 H73 0.929 . S
C46 C45 1.398 . S
C46 C47 1.352 . S
C47 C46 1.352 . S
C47 C48 1.384 . S
C47 H74 0.930 . S
C48 C43 1.407 . S
C48 C47 1.384 . S
C48 H75 0.929 . S
C49 O62 1.241 . S
C49 O63 1.273 . S
C50 O64 1.251 . S
C50 O65 1.268 . S
C51 Nd41 2.836 . S
C51 C52 1.498 . S
C51 O66 1.258 . S
C51 O67 1.239 . S
C52 C51 1.498 . S
C52 C53 1.366 . S
C52 C57 1.407 . S
C53 C52 1.366 . S
C53 C54 1.392 . S
C53 H76 0.930 . S
C54 C53 1.392 . S
C54 C55 1.398 . S
C54 H77 0.929 . S
C55 C54 1.398 . S
C55 C56 1.352 . S
C56 C55 1.352 . S
C56 C57 1.384 . S
C56 H78 0.930 . S
C57 C52 1.407 . S
C57 C56 1.384 . S
C57 H79 0.929 . S
C58 O68 1.241 . S
C58 O69 1.273 . S
C59 O70 1.251 . S
C59 O71 1.268 . S
O60 Nd40 2.500 . S
O60 C42 1.258 . S
O61 Nd40 2.492 . S
O61 C42 1.239 . S
O62 Nd40 2.487 . S
O62 C49 1.241 . S
O63 Nd40 2.682 . S
O63 Nd41 2.414 . S
O63 C49 1.273 . S
O64 Nd40 2.410 . S
O64 C50 1.251 . S
O65 Nd41 2.424 . S
O65 C50 1.268 . S
O66 Nd41 2.500 . S
O66 C51 1.258 . S
O67 Nd41 2.492 . S
O67 C51 1.239 . S
O68 Nd41 2.487 . S
O68 C58 1.241 . S
O69 Nd40 2.414 . S
O69 Nd41 2.682 . S
O69 C58 1.273 . S
O70 Nd41 2.410 . S
O70 C59 1.251 . S
O71 Nd40 2.424 . S
O71 C59 1.268 . S
H72 C44 0.930 . S
H73 C45 0.929 . S
H74 C47 0.930 . S
H75 C48 0.929 . S
H76 C53 0.930 . S
H77 C54 0.929 . S
H78 C56 0.930 . S
H79 C57 0.929 . S
Nd80 C82 2.836 . S
Nd80 O100 2.500 . S
Nd80 O101 2.492 . S
Nd80 O102 2.487 . S
Nd80 O103 2.682 1_455 S
Nd80 O104 2.410 1_455 S
Nd80 O109 2.414 . S
Nd80 O111 2.424 . S
Nd81 C91 2.836 . S
Nd81 O103 2.414 . S
Nd81 O105 2.424 . S
Nd81 O106 2.500 . S
Nd81 O107 2.492 . S
Nd81 O108 2.487 . S
Nd81 O109 2.682 1_655 S
Nd81 O110 2.410 1_655 S
C82 Nd80 2.836 . S
C82 C83 1.498 . S
C82 O100 1.258 . S
C82 O101 1.239 . S
C83 C82 1.498 . S
C83 C84 1.366 . S
C83 C88 1.407 . S
C84 C83 1.366 . S
C84 C85 1.392 . S
C84 H112 0.930 . S
C85 C84 1.392 . S
C85 C86 1.398 . S
C85 H113 0.929 . S
C86 C85 1.398 . S
C86 C87 1.352 . S
C87 C86 1.352 . S
C87 C88 1.384 . S
C87 H114 0.930 . S
C88 C83 1.407 . S
C88 C87 1.384 . S
C88 H115 0.929 . S
C89 O102 1.241 . S
C89 O103 1.273 1_455 S
C90 O104 1.251 . S
C90 O105 1.268 . S
C91 Nd81 2.836 . S
C91 C92 1.498 . S
C91 O106 1.258 . S
C91 O107 1.239 . S
C92 C91 1.498 . S
C92 C93 1.366 . S
C92 C97 1.407 . S
C93 C92 1.366 . S
C93 C94 1.392 . S
C93 H116 0.930 . S
C94 C93 1.392 . S
C94 C95 1.398 . S
C94 H117 0.929 . S
C95 C94 1.398 . S
C95 C96 1.352 . S
C96 C95 1.352 . S
C96 C97 1.384 . S
C96 H118 0.930 . S
C97 C92 1.407 . S
C97 C96 1.384 . S
C97 H119 0.929 . S
C98 O108 1.241 . S
C98 O109 1.273 1_655 S
C99 O110 1.251 . S
C99 O111 1.268 . S
O100 Nd80 2.500 . S
O100 C82 1.258 . S
O101 Nd80 2.492 . S
O101 C82 1.239 . S
O102 Nd80 2.487 . S
O102 C89 1.241 . S
O103 Nd80 2.682 1_655 S
O103 Nd81 2.414 . S
O103 C89 1.273 1_655 S
O104 Nd80 2.410 1_655 S
O104 C90 1.251 . S
O105 Nd81 2.424 . S
O105 C90 1.268 . S
O106 Nd81 2.500 . S
O106 C91 1.258 . S
O107 Nd81 2.492 . S
O107 C91 1.239 . S
O108 Nd81 2.487 . S
O108 C98 1.241 . S
O109 Nd80 2.414 . S
O109 Nd81 2.682 1_455 S
O109 C98 1.273 1_455 S
O110 Nd81 2.410 1_455 S
O110 C99 1.251 . S
O111 Nd80 2.424 . S
O111 C99 1.268 . S
H112 C84 0.930 . S
H113 C85 0.929 . S
H114 C87 0.930 . S
H115 C88 0.929 . S
H116 C93 0.930 . S
H117 C94 0.929 . S
H118 C96 0.930 . S
H119 C97 0.929 . S
Nd120 C122 2.836 . S
Nd120 O140 2.500 . S
Nd120 O141 2.492 . S
Nd120 O142 2.487 1_556 S
Nd120 O143 2.682 1_556 S
Nd120 O144 2.410 . S
Nd120 O149 2.414 1_556 S
Nd120 O151 2.424 1_556 S
Nd121 C131 2.836 . S
Nd121 O143 2.414 1_565 S
Nd121 O145 2.424 1_554 S
Nd121 O146 2.500 . S
Nd121 O147 2.492 . S
Nd121 O148 2.487 . S
Nd121 O149 2.682 1_565 S
Nd121 O150 2.410 1_565 S
C122 Nd120 2.836 . S
C122 C123 1.498 . S
C122 O140 1.258 . S
C122 O141 1.239 . S
C123 C122 1.498 . S
C123 C124 1.366 . S
C123 C128 1.407 . S
C124 C123 1.366 . S
C124 C125 1.392 . S
C124 H152 0.930 . S
C125 C124 1.392 . S
C125 C126 1.398 . S
C125 H153 0.929 . S
C126 C125 1.398 . S
C126 C127 1.352 . S
C127 C126 1.352 . S
C127 C128 1.384 . S
C127 H154 0.930 . S
C128 C123 1.407 . S
C128 C127 1.384 . S
C128 H155 0.929 . S
C129 O142 1.243 . S
C129 O143 1.273 . S
C130 O144 1.251 1_565 S
C130 O145 1.268 . S
C131 Nd121 2.836 . S
C131 C132 1.498 . S
C131 O146 1.258 . S
C131 O147 1.239 . S
C132 C131 1.498 . S
C132 C133 1.366 . S
C132 C137 1.407 . S
C133 C132 1.366 . S
C133 C134 1.392 . S
C133 H156 0.930 . S
C134 C133 1.392 . S
C134 C135 1.398 . S
C134 H157 0.929 . S
C135 C134 1.398 . S
C135 C136 1.352 . S
C136 C135 1.352 . S
C136 C137 1.384 . S
C136 H158 0.930 . S
C137 C132 1.407 . S
C137 C136 1.384 . S
C137 H159 0.929 . S
C138 O148 1.241 . S
C138 O149 1.273 1_565 S
C139 O150 1.251 . S
C139 O151 1.268 . S
O140 Nd120 2.500 . S
O140 C122 1.258 . S
O141 Nd120 2.492 . S
O141 C122 1.239 . S
O142 Nd120 2.487 1_554 S
O142 C129 1.243 . S
O143 Nd120 2.682 1_554 S
O143 Nd121 2.414 1_545 S
O143 C129 1.273 . S
O144 Nd120 2.410 . S
O144 C130 1.251 1_545 S
O145 Nd121 2.424 1_556 S
O145 C130 1.268 . S
O146 Nd121 2.500 . S
O146 C131 1.258 . S
O147 Nd121 2.492 . S
O147 C131 1.239 . S
O148 Nd121 2.487 . S
O148 C138 1.241 . S
O149 Nd120 2.414 1_554 S
O149 Nd121 2.682 1_545 S
O149 C138 1.273 1_545 S
O150 Nd121 2.410 1_545 S
O150 C139 1.251 . S
O151 Nd120 2.424 1_554 S
O151 C139 1.268 . S
H152 C124 0.930 . S
H153 C125 0.929 . S
H154 C127 0.930 . S
H155 C128 0.929 . S
H156 C133 0.930 . S
H157 C134 0.929 . S
H158 C136 0.930 . S
H159 C137 0.929 . S
Nd160 C162 2.836 . S
Nd160 O180 2.500 . S
Nd160 O181 2.492 . S
Nd160 O182 2.487 . S
Nd160 O183 2.682 . S
Nd160 O184 2.410 . S
Nd160 O189 2.414 . S
Nd160 O191 2.424 . S
Nd161 C171 2.836 . S
Nd161 O183 2.414 . S
Nd161 O185 2.424 . S
Nd161 O186 2.500 . S
Nd161 O187 2.492 . S
Nd161 O188 2.487 . S
Nd161 O189 2.682 . S
Nd161 O190 2.410 . S
C162 Nd160 2.836 . S
C162 C163 1.498 . S
C162 O180 1.258 . S
C162 O181 1.239 . S
C163 C162 1.498 . S
C163 C164 1.366 . S
C163 C168 1.407 . S
C164 C163 1.366 . S
C164 C165 1.392 . S
C164 H192 0.930 . S
C165 C164 1.392 . S
C165 C166 1.398 . S
C165 H193 0.929 . S
C166 C165 1.398 . S
C166 C167 1.352 . S
C167 C166 1.352 . S
C167 C168 1.384 . S
C167 H194 0.930 . S
C168 C163 1.407 . S
C168 C167 1.384 . S
C168 H195 0.929 . S
C169 O182 1.241 . S
C169 O183 1.273 . S
C170 O184 1.251 . S
C170 O185 1.268 . S
C171 Nd161 2.836 . S
C171 C172 1.498 . S
C171 O186 1.258 . S
C171 O187 1.239 . S
C172 C171 1.498 . S
C172 C173 1.366 . S
C172 C177 1.407 . S
C173 C172 1.366 . S
C173 C174 1.392 . S
C173 H196 0.930 . S
C174 C173 1.392 . S
C174 C175 1.398 . S
C174 H197 0.929 . S
C175 C174 1.398 . S
C175 C176 1.352 . S
C176 C175 1.352 . S
C176 C177 1.384 . S
C176 H198 0.930 . S
C177 C172 1.407 . S
C177 C176 1.384 . S
C177 H199 0.929 . S
C178 O188 1.241 . S
C178 O189 1.273 . S
C179 O190 1.251 . S
C179 O191 1.268 . S
O180 Nd160 2.500 . S
O180 C162 1.258 . S
O181 Nd160 2.492 . S
O181 C162 1.239 . S
O182 Nd160 2.487 . S
O182 C169 1.241 . S
O183 Nd160 2.682 . S
O183 Nd161 2.414 . S
O183 C169 1.273 . S
O184 Nd160 2.410 . S
O184 C170 1.251 . S
O185 Nd161 2.424 . S
O185 C170 1.268 . S
O186 Nd161 2.500 . S
O186 C171 1.258 . S
O187 Nd161 2.492 . S
O187 C171 1.239 . S
O188 Nd161 2.487 . S
O188 C178 1.241 . S
O189 Nd160 2.414 . S
O189 Nd161 2.682 . S
O189 C178 1.273 . S
O190 Nd161 2.410 . S
O190 C179 1.251 . S
O191 Nd160 2.424 . S
O191 C179 1.268 . S
H192 C164 0.930 . S
H193 C165 0.929 . S
H194 C167 0.930 . S
H195 C168 0.929 . S
H196 C173 0.930 . S
H197 C174 0.929 . S
H198 C176 0.930 . S
H199 C177 0.929 . S
Nd200 C202 2.836 . S
Nd200 O220 2.500 . S
Nd200 O221 2.492 . S
Nd200 O222 2.487 1_655 S
Nd200 O223 2.682 1_655 S
Nd200 O224 2.410 1_655 S
Nd200 O229 2.414 1_655 S
Nd200 O231 2.424 . S
Nd201 C211 2.836 . S
Nd201 O223 2.414 . S
Nd201 O225 2.424 . S
Nd201 O226 2.500 . S
Nd201 O227 2.492 . S
Nd201 O228 2.487 . S
Nd201 O229 2.682 . S
Nd201 O230 2.410 . S
C202 Nd200 2.836 . S
C202 C203 1.498 . S
C202 O220 1.258 . S
C202 O221 1.239 . S
C203 C202 1.498 . S
C203 C204 1.366 . S
C203 C208 1.407 . S
C204 C203 1.366 . S
C204 C205 1.392 . S
C204 H232 0.930 . S
C205 C204 1.392 . S
C205 C206 1.398 . S
C205 H233 0.929 . S
C206 C205 1.398 . S
C206 C207 1.352 . S
C207 C206 1.352 . S
C207 C208 1.384 . S
C207 H234 0.930 . S
C208 C203 1.407 . S
C208 C207 1.384 . S
C208 H235 0.929 . S
C209 O222 1.241 . S
C209 O223 1.273 . S
C210 O224 1.251 . S
C210 O225 1.268 . S
C211 Nd201 2.836 . S
C211 C212 1.498 . S
C211 O226 1.258 . S
C211 O227 1.239 . S
C212 C211 1.498 . S
C212 C213 1.366 . S
C212 C217 1.407 . S
C213 C212 1.366 . S
C213 C214 1.392 . S
C213 H236 0.930 . S
C214 C213 1.392 . S
C214 C215 1.398 . S
C214 H237 0.929 . S
C215 C214 1.398 . S
C215 C216 1.352 . S
C216 C215 1.352 . S
C216 C217 1.384 . S
C216 H238 0.930 . S
C217 C212 1.407 . S
C217 C216 1.384 . S
C217 H239 0.929 . S
C218 O228 1.241 . S
C218 O229 1.273 . S
C219 O230 1.251 . S
C219 O231 1.268 1_455 S
O220 Nd200 2.500 . S
O220 C202 1.258 . S
O221 Nd200 2.492 . S
O221 C202 1.239 . S
O222 Nd200 2.487 1_455 S
O222 C209 1.241 . S
O223 Nd200 2.682 1_455 S
O223 Nd201 2.414 . S
O223 C209 1.273 . S
O224 Nd200 2.410 1_455 S
O224 C210 1.251 . S
O225 Nd201 2.424 . S
O225 C210 1.268 . S
O226 Nd201 2.500 . S
O226 C211 1.258 . S
O227 Nd201 2.492 . S
O227 C211 1.239 . S
O228 Nd201 2.487 . S
O228 C218 1.241 . S
O229 Nd200 2.414 1_455 S
O229 Nd201 2.682 . S
O229 C218 1.273 . S
O230 Nd201 2.410 . S
O230 C219 1.251 . S
O231 Nd200 2.424 . S
O231 C219 1.268 1_655 S
H232 C204 0.930 . S
H233 C205 0.929 . S
H234 C207 0.930 . S
H235 C208 0.929 . S
H236 C213 0.930 . S
H237 C214 0.929 . S
H238 C216 0.930 . S
H239 C217 0.929 . S
H240 C258 0.951 . S
H241 C260 0.951 . S
H242 C262 0.950 . S
H243 C263 0.950 . S
H244 C265 0.950 1_565 S
H245 C268 0.950 . S
H246 C269 0.950 . S
H247 C271 0.950 . S
H248 C272 0.950 . S
H249 C273 0.951 . S
H250 C275 0.951 1_565 S
H251 C277 0.950 . S
H252 C278 0.950 . S
H253 C280 0.950 1_556 S
H254 C283 0.950 . S
H255 C284 0.950 . S
H256 C286 0.950 . S
H257 C287 0.950 . S
C258 H240 0.951 . S
C258 C259 1.366 1_545 S
C258 C260 1.388 . S
C259 C258 1.366 1_565 S
C259 C263 1.385 . S
C260 H241 0.951 . S
C260 C258 1.388 . S
C260 C261 1.366 . S
C261 C260 1.366 . S
C261 C262 1.414 1_545 S
C261 C264 1.499 . S
C262 H242 0.950 . S
C262 C261 1.414 1_565 S
C262 C263 1.374 . S
C263 H243 0.950 . S
C263 C259 1.385 . S
C263 C262 1.374 . S
C264 C261 1.499 . S
C264 C265 1.373 . S
C264 C266 1.389 1_655 S
C265 H244 0.950 1_545 S
C265 C264 1.373 . S
C265 C281 1.377 1_655 S
C266 C264 1.389 1_455 S
C266 C267 1.524 1_454 S
C266 C280 1.377 . S
C267 C266 1.524 1_656 S
C267 C268 1.397 . S
C267 C272 1.363 1_655 S
C268 H245 0.950 . S
C268 C267 1.397 . S
C268 C269 1.334 . S
C269 H246 0.950 . S
C269 C268 1.334 . S
C269 C270 1.287 . S
C270 C269 1.287 . S
C270 C271 1.524 1_655 S
C270 H289 0.913 . S
C271 H247 0.950 . S
C271 C270 1.524 1_455 S
C271 C272 1.415 . S
C272 H248 0.950 . S
C272 C267 1.363 1_455 S
C272 C271 1.415 . S
C273 H249 0.951 . S
C273 C274 1.366 . S
C273 C275 1.388 . S
C274 C273 1.366 . S
C274 C278 1.385 . S
C275 H250 0.951 1_545 S
C275 C273 1.388 . S
C275 C276 1.366 . S
C276 C275 1.366 . S
C276 C277 1.414 . S
C276 C279 1.499 . S
C277 H251 0.950 . S
C277 C276 1.414 . S
C277 C278 1.374 . S
C278 H252 0.950 . S
C278 C274 1.385 . S
C278 C277 1.374 . S
C279 C276 1.499 . S
C279 C280 1.373 . S
C279 C281 1.389 . S
C280 H253 0.950 1_554 S
C280 C266 1.377 . S
C280 C279 1.373 . S
C281 C265 1.377 1_455 S
C281 C279 1.389 . S
C281 C282 1.524 1_545 S
C282 C281 1.524 1_565 S
C282 C283 1.397 1_565 S
C282 C287 1.363 . S
C283 H254 0.950 . S
C283 C282 1.397 1_545 S
C283 C284 1.334 . S
C284 H255 0.950 . S
C284 C283 1.334 . S
C284 C285 1.287 1_545 S
C285 C284 1.287 1_565 S
C285 C286 1.524 . S
C285 H288 0.999 . S
C286 H256 0.950 . S
C286 C285 1.524 . S
C286 C287 1.415 . S
C287 H257 0.950 . S
C287 C282 1.363 . S
C287 C286 1.415 . S
H288 C285 0.999 . S
H289 C270 0.913 . S
H290 C308 0.951 . S
H291 C310 0.951 . S
H292 C312 0.950 . S
H293 C313 0.950 . S
H294 C315 0.950 . S
H295 C318 0.950 . S
H296 C319 0.950 . S
H297 C321 0.950 . S
H298 C322 0.950 . S
H299 C323 0.951 . S
H300 C325 0.951 . S
H301 C327 0.950 . S
H302 C328 0.950 . S
H303 C330 0.950 . S
H304 C333 0.950 . S
H305 C334 0.950 . S
H306 C336 0.950 . S
H307 C337 0.950 . S
C308 H290 0.951 . S
C308 C309 1.366 . S
C308 C310 1.388 . S
C309 C308 1.366 . S
C309 C313 1.385 . S
C310 H291 0.951 . S
C310 C308 1.388 . S
C310 C311 1.366 . S
C311 C310 1.366 . S
C311 C312 1.414 . S
C311 C314 1.499 . S
C312 H292 0.950 . S
C312 C311 1.414 . S
C312 C313 1.374 . S
C313 H293 0.950 . S
C313 C309 1.385 . S
C313 C312 1.374 . S
C314 C311 1.499 . S
C314 C315 1.373 1_565 S
C314 C316 1.385 1_655 S
C315 H294 0.950 . S
C315 C314 1.373 1_545 S
C315 C331 1.377 1_655 S
C316 C314 1.385 1_455 S
C316 C317 1.544 . S
C316 C330 1.361 1_565 S
C317 C316 1.544 . S
C317 C318 1.397 . S
C317 C322 1.363 . S
C318 H295 0.950 . S
C318 C317 1.397 . S
C318 C319 1.334 . S
C319 H296 0.950 . S
C319 C318 1.334 . S
C319 C320 1.287 . S
C320 C319 1.287 . S
C320 C321 1.524 . S
C320 H339 0.913 . S
C321 H297 0.950 . S
C321 C320 1.524 . S
C321 C322 1.415 . S
C322 H298 0.950 . S
C322 C317 1.363 . S
C322 C321 1.415 . S
C323 H299 0.951 . S
C323 C324 1.366 . S
C323 C325 1.388 . S
C324 C323 1.366 . S
C324 C328 1.385 . S
C325 H300 0.951 . S
C325 C323 1.388 . S
C325 C326 1.366 . S
C326 C325 1.366 . S
C326 C327 1.414 . S
C326 C329 1.499 . S
C327 H301 0.950 . S
C327 C326 1.414 . S
C327 C328 1.374 . S
C328 H302 0.950 . S
C328 C324 1.385 . S
C328 C327 1.374 . S
C329 C326 1.499 . S
C329 C330 1.373 . S
C329 C331 1.389 . S
C330 H303 0.950 . S
C330 C316 1.361 1_545 S
C330 C329 1.373 . S
C331 C315 1.377 1_455 S
C331 C329 1.389 . S
C331 C332 1.524 1_455 S
C332 C331 1.524 1_655 S
C332 C333 1.397 1_655 S
C332 C337 1.363 . S
C333 H304 0.950 . S
C333 C332 1.397 1_455 S
C333 C334 1.334 1_455 S
C334 H305 0.950 . S
C334 C333 1.334 1_655 S
C334 C335 1.287 . S
C335 C334 1.287 . S
C335 C336 1.524 . S
C335 H338 0.999 . S
C336 H306 0.950 . S
C336 C335 1.524 . S
C336 C337 1.415 . S
C337 H307 0.950 . S
C337 C332 1.363 . S
C337 C336 1.415 . S
H338 C335 0.999 . S
H339 C320 0.913 . S
H340 C358 0.951 . S
H341 C360 0.941 1_655 S
H342 C362 0.950 . S
H343 C363 0.950 . S
H344 C365 0.950 . S
H345 C368 0.950 . S
H346 C369 0.950 . S
H347 C371 0.950 . S
H348 C372 0.950 1_655 S
H349 C373 0.951 . S
H350 C375 0.951 . S
H351 C377 0.950 . S
H352 C378 0.950 . S
H353 C380 0.950 . S
H354 C383 0.950 . S
H355 C384 0.950 . S
H356 C386 0.950 . S
H357 C387 0.950 . S
C358 H340 0.951 . S
C358 C359 1.366 . S
C358 C360 1.388 . S
C359 C358 1.366 . S
C359 C363 1.385 . S
C360 H341 0.941 1_455 S
C360 C358 1.388 . S
C360 C361 1.366 . S
C361 C360 1.366 . S
C361 C362 1.414 . S
C361 C364 1.499 . S
C362 H342 0.950 . S
C362 C361 1.414 . S
C362 C363 1.374 . S
C363 H343 0.950 . S
C363 C359 1.385 . S
C363 C362 1.374 . S
C364 C361 1.499 . S
C364 C365 1.373 1_565 S
C364 C366 1.389 1_565 S
C365 H344 0.950 . S
C365 C364 1.373 1_545 S
C365 C381 1.377 . S
C366 C364 1.389 1_545 S
C366 C367 1.524 . S
C366 C380 1.377 . S
C367 C366 1.524 . S
C367 C368 1.397 . S
C367 C372 1.363 1_545 S
C368 H345 0.950 . S
C368 C367 1.397 . S
C368 C369 1.334 . S
C369 H346 0.950 . S
C369 C368 1.334 . S
C369 C370 1.287 1_545 S
C370 C369 1.287 1_565 S
C370 C371 1.524 . S
C370 H389 0.913 . S
C371 H347 0.950 . S
C371 C370 1.524 . S
C371 C372 1.415 . S
C372 H348 0.950 1_455 S
C372 C367 1.363 1_565 S
C372 C371 1.415 . S
C373 H349 0.951 . S
C373 C374 1.366 1_455 S
C373 C375 1.388 . S
C374 C373 1.366 1_655 S
C374 C378 1.385 . S
C375 H350 0.951 . S
C375 C373 1.388 . S
C375 C376 1.365 1_455 S
C376 C375 1.365 1_655 S
C376 C377 1.418 . S
C376 C379 1.495 1_655 S
C377 H351 0.950 . S
C377 C376 1.418 . S
C377 C378 1.374 . S
C378 H352 0.950 . S
C378 C374 1.385 . S
C378 C377 1.374 . S
C379 C376 1.495 1_455 S
C379 C380 1.373 . S
C379 C381 1.389 . S
C380 H353 0.950 . S
C380 C366 1.377 . S
C380 C379 1.373 . S
C381 C365 1.377 . S
C381 C379 1.389 . S
C381 C382 1.524 . S
C382 C381 1.524 . S
C382 C383 1.397 1_455 S
C382 C387 1.363 . S
C383 H354 0.950 . S
C383 C382 1.397 1_655 S
C383 C384 1.334 . S
C384 H355 0.950 . S
C384 C383 1.334 . S
C384 C385 1.287 . S
C385 C384 1.287 . S
C385 C386 1.524 1_655 S
C385 H388 0.999 . S
C386 H356 0.950 . S
C386 C385 1.524 1_455 S
C386 C387 1.415 . S
C387 H357 0.950 . S
C387 C382 1.363 . S
C387 C386 1.415 . S
H388 C385 0.999 . S
H389 C370 0.913 . S
H390 C408 0.951 . S
H391 C410 0.951 . S
H392 C412 0.950 . S
H393 C413 0.950 . S
H394 C415 0.950 . S
H395 C418 0.950 . S
H396 C419 0.950 . S
H397 C421 0.950 . S
H398 C422 0.950 . S
H399 C423 0.951 . S
H400 C425 0.951 . S
H401 C427 0.950 . S
H402 C428 0.950 . S
H403 C430 0.950 . S
H404 C433 0.950 . S
H405 C434 0.950 1_655 S
H406 C436 0.950 . S
H407 C437 0.950 . S
C408 H390 0.951 . S
C408 C409 1.366 . S
C408 C410 1.388 . S
C409 C408 1.366 . S
C409 C413 1.385 . S
C410 H391 0.951 . S
C410 C408 1.388 . S
C410 C411 1.366 . S
C411 C410 1.366 . S
C411 C412 1.414 . S
C411 C414 1.499 . S
C412 H392 0.950 . S
C412 C411 1.414 . S
C412 C413 1.374 . S
C413 H393 0.950 . S
C413 C409 1.385 . S
C413 C412 1.374 . S
C414 C411 1.499 . S
C414 C415 1.373 . S
C414 C416 1.389 . S
C415 H394 0.950 . S
C415 C414 1.373 . S
C415 C431 1.377 . S
C416 C414 1.389 . S
C416 C417 1.524 . S
C416 C430 1.377 . S
C417 C416 1.524 . S
C417 C418 1.397 . S
C417 C422 1.363 . S
C418 H395 0.950 . S
C418 C417 1.397 . S
C418 C419 1.334 . S
C419 H396 0.950 . S
C419 C418 1.334 . S
C419 C420 1.287 . S
C420 C419 1.287 . S
C420 C421 1.524 . S
C420 H439 0.913 . S
C421 H397 0.950 . S
C421 C420 1.524 . S
C421 C422 1.415 . S
C422 H398 0.950 . S
C422 C417 1.363 . S
C422 C421 1.415 . S
C423 H399 0.951 . S
C423 C424 1.366 . S
C423 C425 1.388 . S
C424 C423 1.366 . S
C424 C428 1.385 . S
C425 H400 0.951 . S
C425 C423 1.388 . S
C425 C426 1.366 . S
C426 C425 1.366 . S
C426 C427 1.414 . S
C426 C429 1.499 . S
C427 H401 0.950 . S
C427 C426 1.414 . S
C427 C428 1.374 . S
C428 H402 0.950 . S
C428 C424 1.385 . S
C428 C427 1.374 . S
C429 C426 1.499 . S
C429 C430 1.373 . S
C429 C431 1.389 . S
C430 H403 0.950 . S
C430 C416 1.377 . S
C430 C429 1.373 . S
C431 C415 1.377 . S
C431 C429 1.389 . S
C431 C432 1.524 . S
C432 C431 1.524 . S
C432 C433 1.397 . S
C432 C437 1.363 . S
C433 H404 0.950 . S
C433 C432 1.397 . S
C433 C434 1.334 . S
C434 H405 0.950 1_455 S
C434 C433 1.334 . S
C434 C435 1.287 . S
C435 C434 1.287 . S
C435 C436 1.524 . S
C435 H438 0.999 1_455 S
C436 H406 0.950 . S
C436 C435 1.524 . S
C436 C437 1.415 . S
C437 H407 0.950 . S
C437 C432 1.363 . S
C437 C436 1.415 . S
H438 C435 0.999 1_655 S
H439 C420 0.913 . S
H440 C458 0.951 . S
H441 C460 0.951 . S
H442 C462 0.950 . S
H443 C463 0.950 . S
H444 C465 0.950 . S
H445 C468 0.950 . S
H446 C469 0.950 . S
H447 C471 0.950 . S
H448 C472 0.950 . S
H449 C473 0.951 . S
H450 C475 0.951 . S
H451 C477 0.950 1_455 S
H452 C478 0.950 . S
H453 C480 0.950 1_655 S
H454 C483 0.950 . S
H455 C484 0.950 . S
H456 C486 0.950 . S
H457 C487 0.950 . S
C458 H440 0.951 . S
C458 C459 1.366 . S
C458 C460 1.388 . S
C459 C458 1.366 . S
C459 C463 1.385 . S
C460 H441 0.951 . S
C460 C458 1.388 . S
C460 C461 1.366 . S
C461 C460 1.366 . S
C461 C462 1.414 . S
C461 C464 1.499 . S
C462 H442 0.950 . S
C462 C461 1.414 . S
C462 C463 1.374 . S
C463 H443 0.950 . S
C463 C459 1.385 . S
C463 C462 1.374 . S
C464 C461 1.499 . S
C464 C465 1.373 . S
C464 C466 1.389 . S
C465 H444 0.950 . S
C465 C464 1.373 . S
C465 C481 1.377 . S
C466 C464 1.389 . S
C466 C467 1.524 . S
C466 C480 1.377 . S
C467 C466 1.524 . S
C467 C468 1.384 1_455 S
C467 C472 1.363 . S
C468 H445 0.950 . S
C468 C467 1.384 1_655 S
C468 C469 1.347 . S
C469 H446 0.950 . S
C469 C468 1.347 . S
C469 C470 1.287 1_655 S
C470 C469 1.287 1_455 S
C470 C471 1.524 . S
C470 H489 0.913 . S
C471 H447 0.950 . S
C471 C470 1.524 . S
C471 C472 1.415 . S
C472 H448 0.950 . S
C472 C467 1.363 . S
C472 C471 1.415 . S
C473 H449 0.951 . S
C473 C474 1.366 . S
C473 C475 1.388 . S
C474 C473 1.366 . S
C474 C478 1.385 . S
C475 H450 0.951 . S
C475 C473 1.388 . S
C475 C476 1.366 . S
C476 C475 1.366 . S
C476 C477 1.414 . S
C476 C479 1.499 . S
C477 H451 0.950 1_655 S
C477 C476 1.414 . S
C477 C478 1.374 . S
C478 H452 0.950 . S
C478 C474 1.385 . S
C478 C477 1.374 . S
C479 C476 1.499 . S
C479 C480 1.373 1_655 S
C479 C481 1.389 1_655 S
C480 H453 0.950 1_455 S
C480 C466 1.377 . S
C480 C479 1.373 1_455 S
C481 C465 1.377 . S
C481 C479 1.389 1_455 S
C481 C482 1.524 . S
C482 C481 1.524 . S
C482 C483 1.397 . S
C482 C487 1.363 1_455 S
C483 H454 0.950 . S
C483 C482 1.397 . S
C483 C484 1.334 . S
C484 H455 0.950 . S
C484 C483 1.334 . S
C484 C485 1.287 . S
C485 C484 1.287 . S
C485 C486 1.524 1_445 S
C485 H488 0.999 1_545 S
C486 H456 0.950 . S
C486 C485 1.524 1_665 S
C486 C487 1.415 1_565 S
C487 H457 0.950 . S
C487 C482 1.363 1_655 S
C487 C486 1.415 1_545 S
H488 C485 0.999 1_565 S
H489 C470 0.913 . S
H490 C508 0.951 . S
H491 C510 0.951 . S
H492 C512 0.950 . S
H493 C513 0.950 . S
H494 C515 0.950 . S
H495 C518 0.950 . S
H496 C519 0.950 . S
H497 C521 0.950 . S
H498 C522 0.950 . S
H499 C523 0.951 . S
H500 C525 0.951 . S
H501 C527 0.943 1_545 S
H502 C528 0.950 . S
H503 C530 0.950 . S
H504 C533 0.950 . S
H505 C534 0.950 . S
H506 C536 0.950 . S
H507 C537 0.950 . S
C508 H490 0.951 . S
C508 C509 1.366 . S
C508 C510 1.388 . S
C509 C508 1.366 . S
C509 C513 1.385 . S
C510 H491 0.951 . S
C510 C508 1.388 . S
C510 C511 1.366 . S
C511 C510 1.366 . S
C511 C512 1.414 . S
C511 C514 1.499 . S
C512 H492 0.950 . S
C512 C511 1.414 . S
C512 C513 1.374 . S
C513 H493 0.950 . S
C513 C509 1.385 . S
C513 C512 1.374 . S
C514 C511 1.499 . S
C514 C515 1.373 1_545 S
C514 C516 1.389 . S
C515 H494 0.950 . S
C515 C514 1.373 1_565 S
C515 C531 1.377 . S
C516 C514 1.389 . S
C516 C517 1.524 . S
C516 C530 1.377 . S
C517 C516 1.524 . S
C517 C518 1.397 . S
C517 C522 1.363 . S
C518 H495 0.950 . S
C518 C517 1.397 . S
C518 C519 1.334 . S
C519 H496 0.950 . S
C519 C518 1.334 . S
C519 C520 1.287 . S
C520 C519 1.287 . S
C520 C521 1.524 . S
C520 H539 0.913 . S
C521 H497 0.950 . S
C521 C520 1.524 . S
C521 C522 1.415 . S
C522 H498 0.950 . S
C522 C517 1.363 . S
C522 C521 1.415 . S
C523 H499 0.951 . S
C523 C524 1.366 . S
C523 C525 1.388 . S
C524 C523 1.366 . S
C524 C528 1.385 . S
C525 H500 0.951 . S
C525 C523 1.388 . S
C525 C526 1.366 . S
C526 C525 1.366 . S
C526 C527 1.415 . S
C526 C529 1.499 1_565 S
C527 H501 0.943 1_565 S
C527 C526 1.415 . S
C527 C528 1.380 . S
C528 H502 0.950 . S
C528 C524 1.385 . S
C528 C527 1.380 . S
C529 C526 1.499 1_545 S
C529 C530 1.373 . S
C529 C531 1.389 1_545 S
C530 H503 0.950 . S
C530 C516 1.377 . S
C530 C529 1.373 . S
C531 C515 1.377 . S
C531 C529 1.389 1_565 S
C531 C532 1.524 . S
C532 C531 1.524 . S
C532 C533 1.397 . S
C532 C537 1.363 . S
C533 H504 0.950 . S
C533 C532 1.397 . S
C533 C534 1.334 . S
C534 H505 0.950 . S
C534 C533 1.334 . S
C534 C535 1.287 . S
C535 C534 1.287 . S
C535 C536 1.524 . S
C535 H538 0.999 . S
C536 H506 0.950 . S
C536 C535 1.524 . S
C536 C537 1.415 . S
C537 H507 0.950 . S
C537 C532 1.363 . S
C537 C536 1.415 . S
H538 C535 0.999 . S
H539 C520 0.913 . S
H540 C558 0.951 . S
H541 C560 0.951 . S
H542 C562 0.950 . S
H543 C563 0.950 . S
H544 C565 0.950 . S
H545 C568 0.950 . S
H546 C569 0.950 . S
H547 C571 0.950 1_455 S
H548 C572 0.950 . S
H549 C573 0.951 . S
H550 C575 0.951 . S
H551 C577 0.950 . S
H552 C578 0.950 . S
H553 C580 0.950 . S
H554 C583 0.950 . S
H555 C584 0.950 . S
H556 C586 0.950 . S
H557 C587 0.950 . S
C558 H540 0.951 . S
C558 C559 1.366 . S
C558 C560 1.388 . S
C559 C558 1.366 . S
C559 C563 1.385 . S
C560 H541 0.951 . S
C560 C558 1.388 . S
C560 C561 1.366 . S
C561 C560 1.366 . S
C561 C562 1.414 . S
C561 C564 1.499 . S
C562 H542 0.950 . S
C562 C561 1.414 . S
C562 C563 1.374 . S
C563 H543 0.950 . S
C563 C559 1.385 . S
C563 C562 1.374 . S
C564 C561 1.499 . S
C564 C565 1.373 . S
C564 C566 1.389 . S
C565 H544 0.950 . S
C565 C564 1.373 . S
C565 C581 1.377 . S
C566 C564 1.389 . S
C566 C567 1.524 . S
C566 C580 1.377 . S
C567 C566 1.524 . S
C567 C568 1.397 . S
C567 C572 1.363 . S
C568 H545 0.950 . S
C568 C567 1.397 . S
C568 C569 1.334 1_655 S
C569 H546 0.950 . S
C569 C568 1.334 1_455 S
C569 C570 1.287 . S
C570 C569 1.287 . S
C570 C571 1.524 1_455 S
C570 H589 0.913 . S
C571 H547 0.950 1_655 S
C571 C570 1.524 1_655 S
C571 C572 1.415 . S
C572 H548 0.950 . S
C572 C567 1.363 . S
C572 C571 1.415 . S
C573 H549 0.951 . S
C573 C574 1.366 . S
C573 C575 1.388 . S
C574 C573 1.366 . S
C574 C578 1.385 . S
C575 H550 0.951 . S
C575 C573 1.388 . S
C575 C576 1.366 . S
C576 C575 1.366 . S
C576 C577 1.414 . S
C576 C579 1.499 . S
C577 H551 0.950 . S
C577 C576 1.414 . S
C577 C578 1.374 . S
C578 H552 0.950 . S
C578 C574 1.385 . S
C578 C577 1.374 . S
C579 C576 1.499 . S
C579 C580 1.373 . S
C579 C581 1.389 . S
C580 H553 0.950 . S
C580 C566 1.377 . S
C580 C579 1.373 . S
C581 C565 1.377 . S
C581 C579 1.389 . S
C581 C582 1.524 . S
C582 C581 1.524 . S
C582 C583 1.397 . S
C582 C587 1.363 . S
C583 H554 0.950 . S
C583 C582 1.397 . S
C583 C584 1.334 . S
C584 H555 0.950 . S
C584 C583 1.334 . S
C584 C585 1.287 . S
C585 C584 1.287 . S
C585 C586 1.524 . S
C585 H588 0.999 . S
C586 H556 0.950 . S
C586 C585 1.524 . S
C586 C587 1.415 . S
C587 H557 0.950 . S
C587 C582 1.363 . S
C587 C586 1.415 . S
H588 C585 0.999 . S
H589 C570 0.913 . S
H590 C608 0.951 1_455 S
H591 C610 0.951 . S
H592 C612 0.950 . S
H593 C613 0.950 . S
H594 C615 0.950 . S
H595 C618 0.950 1_655 S
H596 C619 0.950 . S
H597 C621 0.950 . S
H598 C622 0.950 . S
H599 C623 0.951 . S
H600 C625 0.951 . S
H601 C627 0.950 . S
H602 C628 0.950 . S
H603 C630 0.950 . S
H604 C633 0.950 . S
H605 C634 0.950 . S
H606 C636 0.950 . S
H607 C637 0.950 . S
C608 H590 0.951 1_655 S
C608 C609 1.366 . S
C608 C610 1.388 1_655 S
C609 C608 1.366 . S
C609 C613 1.385 . S
C610 H591 0.951 . S
C610 C608 1.388 1_455 S
C610 C611 1.366 1_455 S
C611 C610 1.366 1_655 S
C611 C612 1.414 . S
C611 C614 1.499 1_655 S
C612 H592 0.950 . S
C612 C611 1.414 . S
C612 C613 1.374 . S
C613 H593 0.950 . S
C613 C609 1.385 . S
C613 C612 1.374 . S
C614 C611 1.499 1_455 S
C614 C615 1.373 1_455 S
C614 C616 1.389 . S
C615 H594 0.950 . S
C615 C614 1.373 1_655 S
C615 C631 1.377 1_655 S
C616 C614 1.389 . S
C616 C617 1.524 . S
C616 C630 1.377 . S
C617 C616 1.524 . S
C617 C618 1.397 . S
C617 C622 1.363 1_565 S
C618 H595 0.950 1_455 S
C618 C617 1.397 . S
C618 C619 1.334 1_565 S
C619 H596 0.950 . S
C619 C618 1.334 1_545 S
C619 C620 1.287 . S
C620 C619 1.287 . S
C620 C621 1.524 . S
C620 H639 0.913 . S
C621 H597 0.950 . S
C621 C620 1.524 . S
C621 C622 1.415 . S
C622 H598 0.950 . S
C622 C617 1.363 1_545 S
C622 C621 1.415 . S
C623 H599 0.951 . S
C623 C624 1.366 . S
C623 C625 1.388 . S
C624 C623 1.366 . S
C624 C628 1.385 . S
C625 H600 0.951 . S
C625 C623 1.388 . S
C625 C626 1.366 . S
C626 C625 1.366 . S
C626 C627 1.414 . S
C626 C629 1.499 . S
C627 H601 0.950 . S
C627 C626 1.414 . S
C627 C628 1.374 . S
C628 H602 0.950 . S
C628 C624 1.385 . S
C628 C627 1.374 . S
C629 C626 1.499 . S
C629 C630 1.373 . S
C629 C631 1.389 . S
C630 H603 0.950 . S
C630 C616 1.377 . S
C630 C629 1.373 . S
C631 C615 1.377 1_455 S
C631 C629 1.389 . S
C631 C632 1.524 . S
C632 C631 1.524 . S
C632 C633 1.397 . S
C632 C637 1.363 1_455 S
C633 H604 0.950 . S
C633 C632 1.397 . S
C633 C634 1.334 . S
C634 H605 0.950 . S
C634 C633 1.334 . S
C634 C635 1.287 1_455 S
C635 C634 1.287 1_655 S
C635 C636 1.524 . S
C635 H638 0.999 . S
C636 H606 0.950 . S
C636 C635 1.524 . S
C636 C637 1.415 . S
C637 H607 0.950 . S
C637 C632 1.363 1_655 S
C637 C636 1.415 . S
H638 C635 0.999 . S
H639 C620 0.913 . S
H640 C658 0.951 . S
H641 C660 0.951 . S
H642 C662 0.950 . S
H643 C663 0.950 . S
H644 C665 0.950 . S
H645 C668 0.950 . S
H646 C669 0.950 1_545 S
H647 C671 0.950 . S
H648 C672 0.950 . S
H649 C673 0.951 . S
H650 C675 0.951 . S
H651 C677 0.950 . S
H652 C678 0.950 . S
H653 C680 0.950 . S
H654 C683 0.950 . S
H655 C684 0.950 . S
H656 C686 0.950 . S
H657 C687 0.950 . S
C658 H640 0.951 . S
C658 C659 1.366 . S
C658 C660 1.388 . S
C659 C658 1.366 . S
C659 C663 1.385 1_565 S
C660 H641 0.951 . S
C660 C658 1.388 . S
C660 C661 1.366 . S
C661 C660 1.366 . S
C661 C662 1.414 1_565 S
C661 C664 1.499 1_565 S
C662 H642 0.950 . S
C662 C661 1.414 1_545 S
C662 C663 1.374 . S
C663 H643 0.950 . S
C663 C659 1.385 1_545 S
C663 C662 1.374 . S
C664 C661 1.499 1_545 S
C664 C665 1.373 . S
C664 C666 1.389 . S
C665 H644 0.950 . S
C665 C664 1.373 . S
C665 C681 1.377 . S
C666 C664 1.389 . S
C666 C667 1.524 1_545 S
C666 C680 1.377 . S
C667 C666 1.524 1_565 S
C667 C668 1.397 1_565 S
C667 C672 1.363 . S
C668 H645 0.950 . S
C668 C667 1.397 1_545 S
C668 C669 1.334 1_545 S
C669 H646 0.950 1_565 S
C669 C668 1.334 1_565 S
C669 C670 1.287 . S
C670 C669 1.287 . S
C670 C671 1.524 . S
C670 H689 0.913 . S
C671 H647 0.950 . S
C671 C670 1.524 . S
C671 C672 1.415 . S
C672 H648 0.950 . S
C672 C667 1.363 . S
C672 C671 1.415 . S
C673 H649 0.951 . S
C673 C674 1.366 . S
C673 C675 1.388 . S
C674 C673 1.366 . S
C674 C678 1.385 . S
C675 H650 0.951 . S
C675 C673 1.388 . S
C675 C676 1.366 . S
C676 C675 1.366 . S
C676 C677 1.414 . S
C676 C679 1.499 . S
C677 H651 0.950 . S
C677 C676 1.414 . S
C677 C678 1.374 . S
C678 H652 0.950 . S
C678 C674 1.385 . S
C678 C677 1.374 . S
C679 C676 1.499 . S
C679 C680 1.373 . S
C679 C681 1.389 . S
C680 H653 0.950 . S
C680 C666 1.377 . S
C680 C679 1.373 . S
C681 C665 1.377 . S
C681 C679 1.389 . S
C681 C682 1.524 . S
C682 C681 1.524 . S
C682 C683 1.397 . S
C682 C687 1.363 . S
C683 H654 0.950 . S
C683 C682 1.397 . S
C683 C684 1.334 . S
C684 H655 0.950 . S
C684 C683 1.334 . S
C684 C685 1.287 . S
C685 C684 1.287 . S
C685 C686 1.524 . S
C685 H688 0.999 . S
C686 H656 0.950 . S
C686 C685 1.524 . S
C686 C687 1.415 . S
C687 H657 0.950 . S
C687 C682 1.363 . S
C687 C686 1.415 . S
H688 C685 0.999 . S
H689 C670 0.913 . S
H690 C708 0.951 . S
H691 C710 0.951 . S
H692 C712 0.939 1_566 S
H693 C713 0.932 1_566 S
H694 C715 0.950 . S
H695 C718 0.950 . S
H696 C719 0.950 . S
H697 C721 0.950 . S
H698 C722 0.950 1_554 S
H699 C723 0.951 1_556 S
H700 C725 0.951 1_556 S
H701 C727 0.950 . S
H702 C728 0.950 . S
H703 C730 0.950 1_556 S
H704 C733 0.950 . S
H705 C734 0.950 . S
H706 C736 0.950 . S
H707 C737 0.950 . S
C708 H690 0.951 . S
C708 C709 1.366 . S
C708 C710 1.388 . S
C709 C708 1.366 . S
C709 C713 1.406 . S
C710 H691 0.951 . S
C710 C708 1.388 . S
C710 C711 1.366 . S
C711 C710 1.366 . S
C711 C712 1.425 . S
C711 C714 1.499 . S
C712 H692 0.939 1_544 S
C712 C711 1.425 . S
C712 C713 1.374 . S
C713 H693 0.932 1_544 S
C713 C709 1.406 . S
C713 C712 1.374 . S
C714 C711 1.499 . S
C714 C715 1.373 1_545 S
C714 C716 1.387 1_554 S
C715 H694 0.950 . S
C715 C714 1.373 1_565 S
C715 C731 1.377 . S
C716 C714 1.387 1_556 S
C716 C717 1.528 . S
C716 C730 1.376 1_556 S
C717 C716 1.528 . S
C717 C718 1.397 . S
C717 C722 1.363 . S
C718 H695 0.950 . S
C718 C717 1.397 . S
C718 C719 1.334 . S
C719 H696 0.950 . S
C719 C718 1.334 . S
C719 C720 1.287 . S
C720 C719 1.287 . S
C720 C721 1.524 . S
C720 H739 0.913 . S
C721 H697 0.950 . S
C721 C720 1.524 . S
C721 C722 1.415 . S
C722 H698 0.950 1_556 S
C722 C717 1.363 . S
C722 C721 1.415 . S
C723 H699 0.951 1_554 S
C723 C724 1.366 1_565 S
C723 C725 1.388 . S
C724 C723 1.366 1_545 S
C724 C728 1.385 . S
C725 H700 0.951 1_554 S
C725 C723 1.388 . S
C725 C726 1.366 1_565 S
C726 C725 1.366 1_545 S
C726 C727 1.414 . S
C726 C729 1.499 . S
C727 H701 0.950 . S
C727 C726 1.414 . S
C727 C728 1.374 . S
C728 H702 0.950 . S
C728 C724 1.385 . S
C728 C727 1.374 . S
C729 C726 1.499 . S
C729 C730 1.373 . S
C729 C731 1.389 1_545 S
C730 H703 0.950 1_554 S
C730 C716 1.376 1_554 S
C730 C729 1.373 . S
C731 C715 1.377 . S
C731 C729 1.389 1_565 S
C731 C732 1.524 . S
C732 C731 1.524 . S
C732 C733 1.397 . S
C732 C737 1.363 . S
C733 H704 0.950 . S
C733 C732 1.397 . S
C733 C734 1.334 . S
C734 H705 0.950 . S
C734 C733 1.334 . S
C734 C735 1.287 . S
C735 C734 1.287 . S
C735 C736 1.524 . S
C735 H738 0.999 . S
C736 H706 0.950 . S
C736 C735 1.524 . S
C736 C737 1.415 . S
C737 H707 0.950 . S
C737 C732 1.363 . S
C737 C736 1.415 . S
H738 C735 0.999 . S
H739 C720 0.913 . S
H740 C758 0.951 . S
H741 C760 0.951 . S
H742 C762 0.950 . S
H743 C763 0.950 . S
H744 C765 0.950 . S
H745 C768 0.950 . S
H746 C769 0.950 . S
H747 C771 0.950 . S
H748 C772 0.950 . S
H749 C773 0.951 . S
H750 C775 0.951 . S
H751 C777 0.950 . S
H752 C778 0.950 . S
H753 C780 0.950 . S
H754 C783 0.950 . S
H755 C784 0.950 . S
H756 C786 0.950 . S
H757 C787 0.950 . S
C758 H740 0.951 . S
C758 C759 1.366 . S
C758 C760 1.388 . S
C759 C758 1.366 . S
C759 C763 1.385 . S
C760 H741 0.951 . S
C760 C758 1.388 . S
C760 C761 1.366 . S
C761 C760 1.366 . S
C761 C762 1.414 . S
C761 C764 1.499 . S
C762 H742 0.950 . S
C762 C761 1.414 . S
C762 C763 1.374 . S
C763 H743 0.950 . S
C763 C759 1.385 . S
C763 C762 1.374 . S
C764 C761 1.499 . S
C764 C765 1.373 . S
C764 C766 1.389 . S
C765 H744 0.950 . S
C765 C764 1.373 . S
C765 C781 1.377 . S
C766 C764 1.389 . S
C766 C767 1.524 . S
C766 C780 1.377 . S
C767 C766 1.524 . S
C767 C768 1.397 . S
C767 C772 1.363 . S
C768 H745 0.950 . S
C768 C767 1.397 . S
C768 C769 1.334 . S
C769 H746 0.950 . S
C769 C768 1.334 . S
C769 C770 1.287 . S
C770 C769 1.287 . S
C770 C771 1.524 . S
C770 H789 0.913 . S
C771 H747 0.950 . S
C771 C770 1.524 . S
C771 C772 1.415 . S
C772 H748 0.950 . S
C772 C767 1.363 . S
C772 C771 1.415 . S
C773 H749 0.951 . S
C773 C774 1.366 . S
C773 C775 1.388 . S
C774 C773 1.366 . S
C774 C778 1.385 . S
C775 H750 0.951 . S
C775 C773 1.388 . S
C775 C776 1.366 . S
C776 C775 1.366 . S
C776 C777 1.414 . S
C776 C779 1.499 . S
C777 H751 0.950 . S
C777 C776 1.414 . S
C777 C778 1.374 . S
C778 H752 0.950 . S
C778 C774 1.385 . S
C778 C777 1.374 . S
C779 C776 1.499 . S
C779 C780 1.373 . S
C779 C781 1.389 . S
C780 H753 0.950 . S
C780 C766 1.377 . S
C780 C779 1.373 . S
C781 C765 1.377 . S
C781 C779 1.389 . S
C781 C782 1.524 . S
C782 C781 1.524 . S
C782 C783 1.397 . S
C782 C787 1.363 . S
C783 H754 0.950 . S
C783 C782 1.397 . S
C783 C784 1.334 . S
C784 H755 0.950 . S
C784 C783 1.334 . S
C784 C785 1.287 . S
C785 C784 1.287 . S
C785 C786 1.524 . S
C785 H788 0.999 . S
C786 H756 0.950 . S
C786 C785 1.524 . S
C786 C787 1.415 . S
C787 H757 0.950 . S
C787 C782 1.363 . S
C787 C786 1.415 . S
H788 C785 0.999 . S
H789 C770 0.913 . S
H790 C808 0.951 . S
H791 C810 0.951 . S
H792 C812 0.950 . S
H793 C813 0.950 . S
H794 C815 0.950 . S
H795 C818 0.950 . S
H796 C819 0.950 . S
H797 C821 0.950 . S
H798 C822 0.950 . S
H799 C823 0.951 1_655 S
H800 C825 0.951 1_655 S
H801 C827 0.950 . S
H802 C828 0.950 . S
H803 C830 0.950 . S
H804 C833 0.950 . S
H805 C834 0.950 . S
H806 C836 0.950 . S
H807 C837 0.950 . S
C808 H790 0.951 . S
C808 C809 1.366 1_455 S
C808 C810 1.388 . S
C809 C808 1.366 1_655 S
C809 C813 1.385 . S
C810 H791 0.951 . S
C810 C808 1.388 . S
C810 C811 1.366 . S
C811 C810 1.366 . S
C811 C812 1.414 1_455 S
C811 C814 1.499 . S
C812 H792 0.950 . S
C812 C811 1.414 1_655 S
C812 C813 1.374 . S
C813 H793 0.950 . S
C813 C809 1.385 . S
C813 C812 1.374 . S
C814 C811 1.499 . S
C814 C815 1.373 1_455 S
C814 C816 1.389 . S
C815 H794 0.950 . S
C815 C814 1.373 1_655 S
C815 C831 1.377 . S
C816 C814 1.389 . S
C816 C817 1.524 . S
C816 C830 1.377 . S
C817 C816 1.524 . S
C817 C818 1.397 . S
C817 C822 1.363 . S
C818 H795 0.950 . S
C818 C817 1.397 . S
C818 C819 1.334 . S
C819 H796 0.950 . S
C819 C818 1.334 . S
C819 C820 1.287 . S
C820 C819 1.287 . S
C820 C821 1.524 . S
C820 H839 0.913 . S
C821 H797 0.950 . S
C821 C820 1.524 . S
C821 C822 1.415 . S
C822 H798 0.950 . S
C822 C817 1.363 . S
C822 C821 1.415 . S
C823 H799 0.951 1_455 S
C823 C824 1.366 . S
C823 C825 1.388 . S
C824 C823 1.366 . S
C824 C828 1.385 . S
C825 H800 0.951 1_455 S
C825 C823 1.388 . S
C825 C826 1.366 . S
C826 C825 1.366 . S
C826 C827 1.414 . S
C826 C829 1.499 . S
C827 H801 0.950 . S
C827 C826 1.414 . S
C827 C828 1.374 . S
C828 H802 0.950 . S
C828 C824 1.385 . S
C828 C827 1.374 . S
C829 C826 1.499 . S
C829 C830 1.373 . S
C829 C831 1.389 1_455 S
C830 H803 0.950 . S
C830 C816 1.377 . S
C830 C829 1.373 . S
C831 C815 1.377 . S
C831 C829 1.389 1_655 S
C831 C832 1.524 . S
C832 C831 1.524 . S
C832 C833 1.397 . S
C832 C837 1.363 . S
C833 H804 0.950 . S
C833 C832 1.397 . S
C833 C834 1.334 . S
C834 H805 0.950 . S
C834 C833 1.334 . S
C834 C835 1.287 . S
C835 C834 1.287 . S
C835 C836 1.524 . S
C835 H838 0.999 . S
C836 H806 0.950 . S
C836 C835 1.524 . S
C836 C837 1.415 . S
C837 H807 0.950 . S
C837 C832 1.363 . S
C837 C836 1.415 . S
H838 C835 0.999 . S
H839 C820 0.913 . S
H840 C858 0.951 . S
H841 C860 0.951 . S
H842 C862 0.950 . S
H843 C863 0.950 . S
H844 C865 0.950 . S
H845 C868 0.950 . S
H846 C869 0.950 . S
H847 C871 0.950 . S
H848 C872 0.950 . S
H849 C873 0.951 . S
H850 C875 0.951 . S
H851 C877 0.950 . S
H852 C878 0.950 . S
H853 C880 0.950 . S
H854 C883 0.950 . S
H855 C884 0.950 . S
H856 C886 0.950 1_565 S
H857 C887 0.950 . S
C858 H840 0.951 . S
C858 C859 1.366 . S
C858 C860 1.388 . S
C859 C858 1.366 . S
C859 C863 1.385 . S
C860 H841 0.951 . S
C860 C858 1.388 . S
C860 C861 1.366 . S
C861 C860 1.366 . S
C861 C862 1.414 . S
C861 C864 1.499 . S
C862 H842 0.950 . S
C862 C861 1.414 . S
C862 C863 1.374 . S
C863 H843 0.950 . S
C863 C859 1.385 . S
C863 C862 1.374 . S
C864 C861 1.499 . S
C864 C865 1.373 . S
C864 C866 1.389 . S
C865 H844 0.950 . S
C865 C864 1.373 . S
C865 C881 1.377 . S
C866 C864 1.389 . S
C866 C867 1.524 . S
C866 C880 1.377 . S
C867 C866 1.524 . S
C867 C868 1.397 . S
C867 C872 1.363 . S
C868 H845 0.950 . S
C868 C867 1.397 . S
C868 C869 1.334 . S
C869 H846 0.950 . S
C869 C868 1.334 . S
C869 C870 1.287 . S
C870 C869 1.287 . S
C870 C871 1.524 . S
C870 H889 0.913 . S
C871 H847 0.950 . S
C871 C870 1.524 . S
C871 C872 1.415 . S
C872 H848 0.950 . S
C872 C867 1.363 . S
C872 C871 1.415 . S
C873 H849 0.951 . S
C873 C874 1.366 . S
C873 C875 1.388 . S
C874 C873 1.366 . S
C874 C878 1.385 . S
C875 H850 0.951 . S
C875 C873 1.388 . S
C875 C876 1.366 . S
C876 C875 1.366 . S
C876 C877 1.414 . S
C876 C879 1.499 . S
C877 H851 0.950 . S
C877 C876 1.414 . S
C877 C878 1.374 . S
C878 H852 0.950 . S
C878 C874 1.385 . S
C878 C877 1.374 . S
C879 C876 1.499 . S
C879 C880 1.373 . S
C879 C881 1.389 . S
C880 H853 0.950 . S
C880 C866 1.377 . S
C880 C879 1.373 . S
C881 C865 1.377 . S
C881 C879 1.389 . S
C881 C882 1.524 . S
C882 C881 1.524 . S
C882 C883 1.397 . S
C882 C887 1.363 . S
C883 H854 0.950 . S
C883 C882 1.397 . S
C883 C884 1.334 . S
C884 H855 0.950 . S
C884 C883 1.334 . S
C884 C885 1.287 . S
C885 C884 1.287 . S
C885 C886 1.524 . S
C885 H888 0.999 1_545 S
C886 H856 0.950 1_545 S
C886 C885 1.524 . S
C886 C887 1.415 . S
C887 H857 0.950 . S
C887 C882 1.363 . S
C887 C886 1.415 . S
H888 C885 0.999 1_565 S
H889 C870 0.913 . S
H890 C908 0.951 . S
H891 C910 0.951 . S
H892 C912 0.950 . S
H893 C913 0.950 . S
H894 C915 0.950 . S
H895 C918 0.950 . S
H896 C919 0.950 . S
H897 C921 0.950 . S
H898 C922 0.950 1_655 S
H899 C923 0.951 . S
H900 C925 0.951 . S
H901 C927 0.950 . S
H902 C928 0.950 . S
H903 C930 0.950 . S
H904 C933 0.950 . S
H905 C934 0.950 . S
H906 C936 0.950 . S
H907 C937 0.950 . S
C908 H890 0.951 . S
C908 C909 1.366 . S
C908 C910 1.388 . S
C909 C908 1.366 . S
C909 C913 1.385 . S
C910 H891 0.951 . S
C910 C908 1.388 . S
C910 C911 1.366 . S
C911 C910 1.366 . S
C911 C912 1.414 . S
C911 C914 1.499 . S
C912 H892 0.950 . S
C912 C911 1.414 . S
C912 C913 1.374 . S
C913 H893 0.950 . S
C913 C909 1.385 . S
C913 C912 1.374 . S
C914 C911 1.499 . S
C914 C915 1.373 . S
C914 C916 1.389 . S
C915 H894 0.950 . S
C915 C914 1.373 . S
C915 C931 1.377 . S
C916 C914 1.389 . S
C916 C917 1.524 . S
C916 C930 1.377 . S
C917 C916 1.524 . S
C917 C918 1.397 . S
C917 C922 1.363 . S
C918 H895 0.950 . S
C918 C917 1.397 . S
C918 C919 1.334 . S
C919 H896 0.950 . S
C919 C918 1.334 . S
C919 C920 1.287 1_455 S
C920 C919 1.287 1_655 S
C920 C921 1.524 . S
C920 H939 0.913 . S
C921 H897 0.950 . S
C921 C920 1.524 . S
C921 C922 1.415 1_655 S
C922 H898 0.950 1_455 S
C922 C917 1.363 . S
C922 C921 1.415 1_455 S
C923 H899 0.951 . S
C923 C924 1.366 . S
C923 C925 1.388 . S
C924 C923 1.366 . S
C924 C928 1.385 . S
C925 H900 0.951 . S
C925 C923 1.388 . S
C925 C926 1.366 . S
C926 C925 1.366 . S
C926 C927 1.414 . S
C926 C929 1.499 . S
C927 H901 0.950 . S
C927 C926 1.414 . S
C927 C928 1.374 . S
C928 H902 0.950 . S
C928 C924 1.385 . S
C928 C927 1.374 . S
C929 C926 1.499 . S
C929 C930 1.373 . S
C929 C931 1.389 . S
C930 H903 0.950 . S
C930 C916 1.377 . S
C930 C929 1.373 . S
C931 C915 1.377 . S
C931 C929 1.389 . S
C931 C932 1.524 . S
C932 C931 1.524 . S
C932 C933 1.397 . S
C932 C937 1.363 . S
C933 H904 0.950 . S
C933 C932 1.397 . S
C933 C934 1.334 . S
C934 H905 0.950 . S
C934 C933 1.334 . S
C934 C935 1.287 . S
C935 C934 1.287 . S
C935 C936 1.524 . S
C935 H938 0.999 . S
C936 H906 0.950 . S
C936 C935 1.524 . S
C936 C937 1.415 . S
C937 H907 0.950 . S
C937 C932 1.363 . S
C937 C936 1.415 . S
H938 C935 0.999 . S
H939 C920 0.913 . S
H940 C958 0.951 . S
H941 C960 0.951 . S
H942 C962 0.950 . S
H943 C963 0.950 . S
H944 C965 0.950 . S
H945 C968 0.950 . S
H946 C969 0.950 . S
H947 C971 0.950 . S
H948 C972 0.956 1_455 S
H949 C973 0.951 . S
H950 C975 0.951 . S
H951 C977 0.950 . S
H952 C978 0.950 . S
H953 C980 0.950 . S
H954 C983 0.950 . S
H955 C984 0.950 . S
H956 C986 0.950 . S
H957 C987 0.950 . S
C958 H940 0.951 . S
C958 C959 1.366 . S
C958 C960 1.388 . S
C959 C958 1.366 . S
C959 C963 1.385 . S
C960 H941 0.951 . S
C960 C958 1.388 . S
C960 C961 1.366 . S
C961 C960 1.366 . S
C961 C962 1.414 . S
C961 C964 1.499 . S
C962 H942 0.950 . S
C962 C961 1.414 . S
C962 C963 1.374 . S
C963 H943 0.950 . S
C963 C959 1.385 . S
C963 C962 1.374 . S
C964 C961 1.499 . S
C964 C965 1.373 . S
C964 C966 1.389 . S
C965 H944 0.950 . S
C965 C964 1.373 . S
C965 C981 1.377 . S
C966 C964 1.389 . S
C966 C967 1.524 . S
C966 C980 1.377 . S
C967 C966 1.524 . S
C967 C968 1.397 . S
C967 C972 1.363 . S
C968 H945 0.950 . S
C968 C967 1.397 . S
C968 C969 1.334 . S
C969 H946 0.950 . S
C969 C968 1.334 . S
C969 C970 1.287 1_655 S
C970 C969 1.287 1_455 S
C970 C971 1.524 . S
C970 H989 0.913 . S
C971 H947 0.950 . S
C971 C970 1.524 . S
C971 C972 1.415 1_455 S
C972 H948 0.956 1_655 S
C972 C967 1.363 . S
C972 C971 1.415 1_655 S
C973 H949 0.951 . S
C973 C974 1.366 . S
C973 C975 1.388 . S
C974 C973 1.366 . S
C974 C978 1.385 . S
C975 H950 0.951 . S
C975 C973 1.388 . S
C975 C976 1.366 . S
C976 C975 1.366 . S
C976 C977 1.414 . S
C976 C979 1.499 . S
C977 H951 0.950 . S
C977 C976 1.414 . S
C977 C978 1.374 . S
C978 H952 0.950 . S
C978 C974 1.385 . S
C978 C977 1.374 . S
C979 C976 1.499 . S
C979 C980 1.373 . S
C979 C981 1.389 . S
C980 H953 0.950 . S
C980 C966 1.377 . S
C980 C979 1.373 . S
C981 C965 1.377 . S
C981 C979 1.389 . S
C981 C982 1.524 . S
C982 C981 1.524 . S
C982 C983 1.397 . S
C982 C987 1.363 . S
C983 H954 0.950 . S
C983 C982 1.397 . S
C983 C984 1.334 . S
C984 H955 0.950 . S
C984 C983 1.334 . S
C984 C985 1.287 . S
C985 C984 1.287 . S
C985 C986 1.524 . S
C985 H988 0.999 . S
C986 H956 0.950 . S
C986 C985 1.524 . S
C986 C987 1.415 . S
C987 H957 0.950 . S
C987 C982 1.363 . S
C987 C986 1.415 . S
H988 C985 0.999 . S
H989 C970 0.913 . S
H990 C1008 0.951 . S
H991 C1010 0.951 . S
H992 C1012 0.950 . S
H993 C1013 0.950 . S
H994 C1015 0.950 . S
H995 C1018 0.950 . S
H996 C1019 0.950 . S
H997 C1021 0.950 . S
H998 C1022 0.950 . S
H999 C1023 0.951 . S
H1000 C1025 0.951 . S
H1001 C1027 0.950 . S
H1002 C1028 0.950 . S
H1003 C1030 0.950 . S
H1004 C1033 0.950 . S
H1005 C1034 0.950 . S
H1006 C1036 0.950 . S
H1007 C1037 0.950 . S
C1008 H990 0.951 . S
C1008 C1009 1.366 . S
C1008 C1010 1.388 . S
C1009 C1008 1.366 . S
C1009 C1013 1.385 . S
C1010 H991 0.951 . S
C1010 C1008 1.388 . S
C1010 C1011 1.366 . S
C1011 C1010 1.366 . S
C1011 C1012 1.414 . S
C1011 C1014 1.499 . S
C1012 H992 0.950 . S
C1012 C1011 1.414 . S
C1012 C1013 1.374 . S
C1013 H993 0.950 . S
C1013 C1009 1.385 . S
C1013 C1012 1.374 . S
C1014 C1011 1.499 . S
C1014 C1015 1.373 . S
C1014 C1016 1.389 . S
C1015 H994 0.950 . S
C1015 C1014 1.373 . S
C1015 C1031 1.377 . S
C1016 C1014 1.389 . S
C1016 C1017 1.524 . S
C1016 C1030 1.377 . S
C1017 C1016 1.524 . S
C1017 C1018 1.397 . S
C1017 C1022 1.363 . S
C1018 H995 0.950 . S
C1018 C1017 1.397 . S
C1018 C1019 1.334 1_565 S
C1019 H996 0.950 . S
C1019 C1018 1.334 1_545 S
C1019 C1020 1.287 . S
C1020 C1019 1.287 . S
C1020 C1021 1.524 . S
C1020 H1039 0.913 . S
C1021 H997 0.950 . S
C1021 C1020 1.524 . S
C1021 C1022 1.415 1_545 S
C1022 H998 0.950 . S
C1022 C1017 1.363 . S
C1022 C1021 1.415 1_565 S
C1023 H999 0.951 . S
C1023 C1024 1.366 . S
C1023 C1025 1.388 . S
C1024 C1023 1.366 . S
C1024 C1028 1.385 . S
C1025 H1000 0.951 . S
C1025 C1023 1.388 . S
C1025 C1026 1.366 . S
C1026 C1025 1.366 . S
C1026 C1027 1.414 . S
C1026 C1029 1.499 . S
C1027 H1001 0.950 . S
C1027 C1026 1.414 . S
C1027 C1028 1.374 . S
C1028 H1002 0.950 . S
C1028 C1024 1.385 . S
C1028 C1027 1.374 . S
C1029 C1026 1.499 . S
C1029 C1030 1.373 . S
C1029 C1031 1.389 . S
C1030 H1003 0.950 . S
C1030 C1016 1.377 . S
C1030 C1029 1.373 . S
C1031 C1015 1.377 . S
C1031 C1029 1.389 . S
C1031 C1032 1.524 . S
C1032 C1031 1.524 . S
C1032 C1033 1.397 . S
C1032 C1037 1.363 . S
C1033 H1004 0.950 . S
C1033 C1032 1.397 . S
C1033 C1034 1.334 . S
C1034 H1005 0.950 . S
C1034 C1033 1.334 . S
C1034 C1035 1.287 . S
C1035 C1034 1.287 . S
C1035 C1036 1.524 . S
C1035 H1038 0.999 . S
C1036 H1006 0.950 . S
C1036 C1035 1.524 . S
C1036 C1037 1.415 . S
C1037 H1007 0.950 . S
C1037 C1032 1.363 . S
C1037 C1036 1.415 . S
H1038 C1035 0.999 . S
H1039 C1020 0.913 . S
H1040 C1058 0.951 1_455 S
H1041 C1060 0.951 1_455 S
H1042 C1062 0.950 . S
H1043 C1063 0.950 . S
H1044 C1065 0.950 . S
H1045 C1068 0.950 . S
H1046 C1069 0.950 . S
H1047 C1071 0.950 . S
H1048 C1072 0.950 . S
H1049 C1073 0.951 . S
H1050 C1075 0.951 . S
H1051 C1077 0.950 . S
H1052 C1078 0.950 . S
H1053 C1080 0.950 . S
H1054 C1083 0.950 . S
H1055 C1084 0.950 . S
H1056 C1086 0.950 . S
H1057 C1087 0.950 . S
C1058 H1040 0.951 1_655 S
C1058 C1059 1.366 . S
C1058 C1060 1.388 . S
C1059 C1058 1.366 . S
C1059 C1063 1.385 . S
C1060 H1041 0.951 1_655 S
C1060 C1058 1.388 . S
C1060 C1061 1.366 . S
C1061 C1060 1.366 . S
C1061 C1062 1.414 . S
C1061 C1064 1.499 . S
C1062 H1042 0.950 . S
C1062 C1061 1.414 . S
C1062 C1063 1.374 . S
C1063 H1043 0.950 . S
C1063 C1059 1.385 . S
C1063 C1062 1.374 . S
C1064 C1061 1.499 . S
C1064 C1065 1.373 . S
C1064 C1066 1.389 . S
C1065 H1044 0.950 . S
C1065 C1064 1.373 . S
C1065 C1081 1.377 . S
C1066 C1064 1.389 . S
C1066 C1067 1.524 . S
C1066 C1080 1.377 . S
C1067 C1066 1.524 . S
C1067 C1068 1.397 . S
C1067 C1072 1.363 1_655 S
C1068 H1045 0.950 . S
C1068 C1067 1.397 . S
C1068 C1069 1.334 . S
C1069 H1046 0.950 . S
C1069 C1068 1.334 . S
C1069 C1070 1.287 1_655 S
C1070 C1069 1.287 1_455 S
C1070 C1071 1.524 . S
C1070 H1089 0.913 . S
C1071 H1047 0.950 . S
C1071 C1070 1.524 . S
C1071 C1072 1.415 . S
C1072 H1048 0.950 . S
C1072 C1067 1.363 1_455 S
C1072 C1071 1.415 . S
C1073 H1049 0.951 . S
C1073 C1074 1.366 . S
C1073 C1075 1.388 . S
C1074 C1073 1.366 . S
C1074 C1078 1.385 . S
C1075 H1050 0.951 . S
C1075 C1073 1.388 . S
C1075 C1076 1.366 . S
C1076 C1075 1.366 . S
C1076 C1077 1.414 . S
C1076 C1079 1.499 . S
C1077 H1051 0.950 . S
C1077 C1076 1.414 . S
C1077 C1078 1.374 . S
C1078 H1052 0.950 . S
C1078 C1074 1.385 . S
C1078 C1077 1.374 . S
C1079 C1076 1.499 . S
C1079 C1080 1.373 . S
C1079 C1081 1.389 . S
C1080 H1053 0.950 . S
C1080 C1066 1.377 . S
C1080 C1079 1.373 . S
C1081 C1065 1.377 . S
C1081 C1079 1.389 . S
C1081 C1082 1.524 . S
C1082 C1081 1.524 . S
C1082 C1083 1.397 . S
C1082 C1087 1.363 . S
C1083 H1054 0.950 . S
C1083 C1082 1.397 . S
C1083 C1084 1.334 . S
C1084 H1055 0.950 . S
C1084 C1083 1.334 . S
C1084 C1085 1.287 . S
C1085 C1084 1.287 . S
C1085 C1086 1.524 . S
C1085 H1088 0.999 . S
C1086 H1056 0.950 . S
C1086 C1085 1.524 . S
C1086 C1087 1.415 . S
C1087 H1057 0.950 . S
C1087 C1082 1.363 . S
C1087 C1086 1.415 . S
H1088 C1085 0.999 . S
H1089 C1070 0.913 . S
H1090 C1108 0.951 . S
H1091 C1110 0.951 . S
H1092 C1112 0.950 1_545 S
H1093 C1113 0.950 . S
H1094 C1115 0.950 1_545 S
H1095 C1118 0.950 . S
H1096 C1119 0.950 . S
H1097 C1121 0.950 . S
H1098 C1122 0.950 . S
H1099 C1123 0.951 . S
H1100 C1125 0.951 . S
H1101 C1127 0.950 . S
H1102 C1128 0.950 . S
H1103 C1130 0.950 . S
H1104 C1133 0.950 . S
H1105 C1134 0.950 . S
H1106 C1136 0.950 . S
H1107 C1137 0.950 . S
C1108 H1090 0.951 . S
C1108 C1109 1.366 . S
C1108 C1110 1.388 . S
C1109 C1108 1.366 . S
C1109 C1113 1.385 1_565 S
C1110 H1091 0.951 . S
C1110 C1108 1.388 . S
C1110 C1111 1.366 . S
C1111 C1110 1.366 . S
C1111 C1112 1.414 . S
C1111 C1114 1.499 . S
C1112 H1092 0.950 1_565 S
C1112 C1111 1.414 . S
C1112 C1113 1.374 1_565 S
C1113 H1093 0.950 . S
C1113 C1109 1.385 1_545 S
C1113 C1112 1.374 1_545 S
C1114 C1111 1.499 . S
C1114 C1115 1.373 . S
C1114 C1116 1.389 . S
C1115 H1094 0.950 1_565 S
C1115 C1114 1.373 . S
C1115 C1131 1.377 . S
C1116 C1114 1.389 . S
C1116 C1117 1.524 . S
C1116 C1130 1.377 . S
C1117 C1116 1.524 . S
C1117 C1118 1.397 . S
C1117 C1122 1.363 . S
C1118 H1095 0.950 . S
C1118 C1117 1.397 . S
C1118 C1119 1.334 . S
C1119 H1096 0.950 . S
C1119 C1118 1.334 . S
C1119 C1120 1.287 . S
C1120 C1119 1.287 . S
C1120 C1121 1.524 . S
C1120 H1139 0.913 . S
C1121 H1097 0.950 . S
C1121 C1120 1.524 . S
C1121 C1122 1.415 . S
C1122 H1098 0.950 . S
C1122 C1117 1.363 . S
C1122 C1121 1.415 . S
C1123 H1099 0.951 . S
C1123 C1124 1.366 . S
C1123 C1125 1.388 . S
C1124 C1123 1.366 . S
C1124 C1128 1.385 . S
C1125 H1100 0.951 . S
C1125 C1123 1.388 . S
C1125 C1126 1.366 . S
C1126 C1125 1.366 . S
C1126 C1127 1.414 . S
C1126 C1129 1.499 . S
C1127 H1101 0.950 . S
C1127 C1126 1.414 . S
C1127 C1128 1.374 . S
C1128 H1102 0.950 . S
C1128 C1124 1.385 . S
C1128 C1127 1.374 . S
C1129 C1126 1.499 . S
C1129 C1130 1.373 . S
C1129 C1131 1.389 . S
C1130 H1103 0.950 . S
C1130 C1116 1.377 . S
C1130 C1129 1.373 . S
C1131 C1115 1.377 . S
C1131 C1129 1.389 . S
C1131 C1132 1.524 1_565 S
C1132 C1131 1.524 1_545 S
C1132 C1133 1.397 1_545 S
C1132 C1137 1.363 . S
C1133 H1104 0.950 . S
C1133 C1132 1.397 1_565 S
C1133 C1134 1.334 1_565 S
C1134 H1105 0.950 . S
C1134 C1133 1.334 1_545 S
C1134 C1135 1.287 . S
C1135 C1134 1.287 . S
C1135 C1136 1.524 . S
C1135 H1138 0.999 . S
C1136 H1106 0.950 . S
C1136 C1135 1.524 . S
C1136 C1137 1.415 . S
C1137 H1107 0.950 . S
C1137 C1132 1.363 . S
C1137 C1136 1.415 . S
H1138 C1135 0.999 . S
H1139 C1120 0.913 . S
C259 C129 2.601 1_565 S
C274 C9 2.601 . S
C309 C169 2.603 . S
C324 C49 2.603 . S
C359 C209 2.602 . S
C374 C89 2.602 1_655 S
C409 C10 4.582 . S
C424 C99 4.713 . S
C459 C50 4.583 . S
C474 C139 4.714 . S
C509 C90 4.583 . S
C524 C179 4.715 . S
C559 C130 4.582 . S
C574 C219 4.713 1_655 S
C609 C170 4.583 . S
C624 C19 4.714 1_565 S
C659 C210 4.584 . S
C674 C59 4.715 . S
C709 C18 1.105 . S
C724 C138 1.106 1_545 S
C759 C58 1.106 . S
C774 C178 1.104 . S
C809 C98 1.102 . S
C824 C218 1.102 . S
C859 C15 1.646 . S
C874 C46 1.631 . S
C909 C55 1.645 . S
C924 C86 1.630 . S
C959 C95 1.646 . S
C974 C126 1.631 . S
C1009 C135 1.646 . S
C1024 C166 1.631 . S
C1059 C175 1.645 . S
C1074 C206 1.631 . S
C1109 C215 1.647 . S
C1124 C6 1.632 . S
