# Generated by pormake.
# Topology can, (4)-cn, num edge types: 1
# Building blocks:
#     Node 0, Type 0, BuildingBlock: QUQFOY_clean_sbu_3, # of connection points: 4
#     Node 1, Type 0, BuildingBlock: QUQFOY_clean_sbu_3, # of connection points: 4
#     Node 2, Type 0, BuildingBlock: QUQFOY_clean_sbu_3, # of connection points: 4
#     Node 3, Type 0, BuildingBlock: QUQFOY_clean_sbu_3, # of connection points: 4
#     Node 4, Type 0, BuildingBlock: QUQFOY_clean_sbu_3, # of connection points: 4
#     Node 5, Type 0, BuildingBlock: QUQFOY_clean_sbu_3, # of connection points: 4
#     Node 6, Type 0, BuildingBlock: QUQFOY_clean_sbu_3, # of connection points: 4
#     Node 7, Type 0, BuildingBlock: QUQFOY_clean_sbu_3, # of connection points: 4
#     Node 8, Type 0, BuildingBlock: QUQFOY_clean_sbu_3, # of connection points: 4
#     Node 9, Type 0, BuildingBlock: QUQFOY_clean_sbu_3, # of connection points: 4
#     Node 10, Type 0, BuildingBlock: QUQFOY_clean_sbu_3, # of connection points: 4
#     Node 11, Type 0, BuildingBlock: QUQFOY_clean_sbu_3, # of connection points: 4
#     Edge 12, Type (0, 0), BuildingBlock: TEMPAE_clean_linker_10, # of connection points: 2
#     Edge 13, Type (0, 0), BuildingBlock: TEMPAE_clean_linker_10, # of connection points: 2
#     Edge 14, Type (0, 0), BuildingBlock: TEMPAE_clean_linker_10, # of connection points: 2
#     Edge 15, Type (0, 0), BuildingBlock: TEMPAE_clean_linker_10, # of connection points: 2
#     Edge 16, Type (0, 0), BuildingBlock: TEMPAE_clean_linker_10, # of connection points: 2
#     Edge 17, Type (0, 0), BuildingBlock: TEMPAE_clean_linker_10, # of connection points: 2
#     Edge 18, Type (0, 0), BuildingBlock: TEMPAE_clean_linker_10, # of connection points: 2
#     Edge 19, Type (0, 0), BuildingBlock: TEMPAE_clean_linker_10, # of connection points: 2
#     Edge 20, Type (0, 0), BuildingBlock: TEMPAE_clean_linker_10, # of connection points: 2
#     Edge 21, Type (0, 0), BuildingBlock: TEMPAE_clean_linker_10, # of connection points: 2
#     Edge 22, Type (0, 0), BuildingBlock: TEMPAE_clean_linker_10, # of connection points: 2
#     Edge 23, Type (0, 0), BuildingBlock: TEMPAE_clean_linker_10, # of connection points: 2
#     Edge 24, Type (0, 0), BuildingBlock: TEMPAE_clean_linker_10, # of connection points: 2
#     Edge 25, Type (0, 0), BuildingBlock: TEMPAE_clean_linker_10, # of connection points: 2
#     Edge 26, Type (0, 0), BuildingBlock: TEMPAE_clean_linker_10, # of connection points: 2
#     Edge 27, Type (0, 0), BuildingBlock: TEMPAE_clean_linker_10, # of connection points: 2
#     Edge 28, Type (0, 0), BuildingBlock: TEMPAE_clean_linker_10, # of connection points: 2
#     Edge 29, Type (0, 0), BuildingBlock: TEMPAE_clean_linker_10, # of connection points: 2
#     Edge 30, Type (0, 0), BuildingBlock: TEMPAE_clean_linker_10, # of connection points: 2
#     Edge 31, Type (0, 0), BuildingBlock: TEMPAE_clean_linker_10, # of connection points: 2
#     Edge 32, Type (0, 0), BuildingBlock: TEMPAE_clean_linker_10, # of connection points: 2
#     Edge 33, Type (0, 0), BuildingBlock: TEMPAE_clean_linker_10, # of connection points: 2
#     Edge 34, Type (0, 0), BuildingBlock: TEMPAE_clean_linker_10, # of connection points: 2
#     Edge 35, Type (0, 0), BuildingBlock: TEMPAE_clean_linker_10, # of connection points: 2
# Relax obj value: 0.050
# Max RMSD: 0.036
# Mean RMSD: 0.036
data_MOF--net-can--node1-QUQFOY_clean_sbu_3--edge1-TEMPAE_clean_linker_10
_symmetry_space_group_name_H-M    P1
_symmetry_Int_Tables_number       1
_symmetry_cell_setting            triclinic
loop_
_symmetry_equiv_pos_as_xyz
'x, y, z'
_cell_length_a     57.397718
_cell_length_b     57.38828
_cell_length_c     28.8474
_cell_angle_alpha  89.965171
_cell_angle_beta   90.042405
_cell_angle_gamma 119.98019
loop_
_atom_site_label
_atom_site_type_symbol
_atom_site_fract_x
_atom_site_fract_y
_atom_site_fract_z
_atom_type_partial_charge
C0 C 0.01163 0.35298 0.33702 0.0
O1 O -0.00869 0.34691 0.3116 0.0
Cd2 Cd -0.00622 0.3603 0.23218 0.0
O3 O 0.03543 0.36833 0.32229 0.0
Cd4 Cd 0.05719 0.3941 0.25179 0.0
C5 C 0.02285 0.4279 0.25077 0.0
O6 O 0.0303 0.3572 0.19917 0.0
O7 O 0.0565 0.39567 0.16776 0.0
O8 O 0.09439 0.38756 0.27316 0.0
C9 C 0.04009 0.37081 0.16256 0.0
O10 O 0.00298 0.40662 0.23446 0.0
C11 C 0.11265 0.41108 0.26192 0.0
O12 O 0.04415 0.42813 0.26394 0.0
O13 O 0.10508 0.42719 0.24772 0.0
C14 C 0.65332 -0.00142 0.80226 0.0
O15 O 0.63711 0.97983 0.77564 0.0
Cd16 Cd 0.62774 0.98568 0.69687 0.0
O17 O 0.66557 0.02297 0.78882 0.0
Cd18 Cd 0.66657 0.04832 0.71943 0.0
C19 C 0.59914 0.02439 0.7192 0.0
O20 O 0.66911 0.01862 0.66304 0.0
O21 O 0.66092 0.04892 0.63608 0.0
O22 O 0.71436 0.07941 0.72171 0.0
C23 C 0.66614 0.03027 0.62809 0.0
O24 O 0.59648 0.00263 0.7026 0.0
C25 C 0.71255 0.10023 0.72905 0.0
O26 O 0.62212 0.04351 0.73157 0.0
O27 O 0.68909 0.09695 0.73373 0.0
C28 C 0.63644 0.6558 0.31206 0.0
O29 O 0.64695 0.64665 0.28401 0.0
Cd30 Cd 0.63318 0.63671 0.20433 0.0
O31 O 0.61926 0.66213 0.2982 0.0
Cd32 Cd 0.59798 0.66458 0.22577 0.0
C33 C 0.56492 0.59683 0.22091 0.0
O34 O 0.63546 0.67636 0.17308 0.0
O35 O 0.59682 0.66363 0.14187 0.0
O36 O 0.60491 0.70786 0.25117 0.0
C37 C 0.62179 0.6727 0.13651 0.0
O38 O 0.58673 0.59866 0.20629 0.0
C39 C 0.58151 0.70311 0.24005 0.0
O40 O 0.564 0.61764 0.23325 0.0
O41 O 0.56536 0.67991 0.22402 0.0
C42 C 0.96486 0.62577 0.81962 0.0
O43 O 0.98476 0.63625 0.79208 0.0
Cd44 Cd 0.98106 0.62237 0.71259 0.0
O45 O 0.94143 0.60882 0.80512 0.0
Cd46 Cd 0.91833 0.58868 0.73126 0.0
C47 C 0.95079 0.5536 0.72678 0.0
O48 O 0.94513 0.62692 0.6805 0.0
O49 O 0.91952 0.58902 0.64683 0.0
O50 O 0.88339 0.59734 0.75796 0.0
C51 C 0.93553 0.6141 0.64308 0.0
O52 O 0.97134 0.57541 0.71367 0.0
C53 C 0.86393 0.5746 0.74604 0.0
O54 O 0.92916 0.55312 0.73827 0.0
O55 O 0.86979 0.55793 0.72826 0.0
C56 C 0.33242 0.98262 0.3167 0.0
O57 O 0.34204 0.00275 0.2896 0.0
Cd58 Cd 0.3507 -0.0005 0.20885 0.0
O59 O 0.32441 0.95903 0.30125 0.0
Cd60 Cd 0.31836 0.93583 0.22662 0.0
C61 C 0.38572 0.96532 0.21956 0.0
O62 O 0.31002 0.96489 0.17551 0.0
O63 O 0.31955 0.93691 0.14284 0.0
O64 O 0.27368 0.9024 0.25207 0.0
C65 C 0.31298 0.95484 0.13835 0.0
O66 O 0.38568 0.98667 0.20745 0.0
C67 C 0.276 0.88228 0.24061 0.0
O68 O 0.36408 0.94427 0.23147 0.0
O69 O 0.29842 0.88711 0.22379 0.0
C70 C 0.34256 0.33487 0.79832 0.0
O71 O 0.33061 0.34315 0.77166 0.0
Cd72 Cd 0.34431 0.35544 0.69287 0.0
O73 O 0.3604 0.32991 0.78276 0.0
Cd74 Cd 0.38065 0.32749 0.70863 0.0
C75 C 0.41317 0.39531 0.70685 0.0
O76 O 0.34232 0.31645 0.65868 0.0
O77 O 0.37978 0.32691 0.62484 0.0
O78 O 0.37309 0.28422 0.73516 0.0
C79 C 0.35503 0.31944 0.62118 0.0
O80 O 0.39052 0.39368 0.6993 0.0
C81 C 0.39633 0.28843 0.7244 0.0
O82 O 0.4152 0.37439 0.71214 0.0
O83 O 0.41265 0.31122 0.70707 0.0
C84 C 0.63557 0.97692 0.143 0.0
O85 O 0.64111 -0.0033 0.16947 0.0
Cd86 Cd 0.62714 0.99246 0.24885 0.0
O87 O 0.6206 0.95279 0.15661 0.0
Cd88 Cd 0.59481 0.92914 0.22602 0.0
C89 C 0.55945 0.96191 0.22908 0.0
O90 O 0.63109 0.95594 0.27964 0.0
O91 O 0.59281 0.92821 0.31008 0.0
O92 O 0.60286 0.89329 0.20197 0.0
C93 C 0.61744 0.94527 0.31589 0.0
O94 O 0.58037 0.98189 0.24609 0.0
C95 C 0.57954 0.87432 0.21245 0.0
O96 O 0.5599 0.94111 0.215 0.0
O97 O 0.56287 0.88091 0.22759 0.0
C98 C 0.65205 0.6371 0.6531 0.0
O99 O 0.64402 0.6496 0.67889 0.0
Cd100 Cd 0.63005 0.63592 0.75705 0.0
O101 O 0.65584 0.61863 0.66945 0.0
Cd102 Cd 0.65614 0.59805 0.74466 0.0
C103 C 0.58852 0.56731 0.74272 0.0
O104 O 0.66784 0.63678 0.79406 0.0
O105 O 0.65488 0.59886 0.82839 0.0
O106 O 0.6994 0.60443 0.72115 0.0
C107 C 0.66364 0.62389 0.83174 0.0
O108 O 0.59088 0.59032 0.74964 0.0
C109 C 0.69452 0.58109 0.73287 0.0
O110 O 0.60902 0.56444 0.73892 0.0
O111 O 0.67133 0.56519 0.74919 0.0
C112 C 9e-05 0.65374 0.16108 0.0
O113 O 0.97999 0.6441 0.18822 0.0
Cd114 Cd 0.98319 0.63561 0.26918 0.0
O115 O 0.0237 0.66185 0.17651 0.0
Cd116 Cd 0.04703 0.6679 0.25097 0.0
C117 C 0.01716 0.60043 0.25853 0.0
O118 O 0.01807 0.67619 0.30234 0.0
O119 O 0.04635 0.66695 0.33469 0.0
O120 O 0.08097 0.71252 0.22581 0.0
C121 C 0.02827 0.67326 0.3394 0.0
O122 O -0.00414 0.60051 0.27082 0.0
C123 C 0.10083 0.70965 0.23682 0.0
O124 O 0.03817 0.62204 0.2464 0.0
O125 O 0.0956 0.687 0.25323 0.0
C126 C 0.3576 0.01828 0.65843 0.0
O127 O 0.34747 -0.00151 0.68625 0.0
Cd128 Cd 0.36131 0.00307 0.76595 0.0
O129 O 0.37391 0.04195 0.67274 0.0
Cd130 Cd 0.39319 0.06595 0.74626 0.0
C131 C 0.43028 0.03562 0.75194 0.0
O132 O 0.35538 0.03831 0.7972 0.0
O133 O 0.39294 0.06532 0.83064 0.0
O134 O 0.3826 0.0993 0.71801 0.0
C135 C 0.36809 0.04843 0.83454 0.0
O136 O 0.40884 0.01466 0.76509 0.0
C137 C 0.40493 0.11949 0.72956 0.0
O138 O 0.42994 0.05681 0.74008 0.0
O139 O 0.42225 0.11478 0.74803 0.0
C140 C 0.32645 0.35302 0.13951 0.0
O141 O 0.33528 0.34186 0.16687 0.0
Cd142 Cd 0.34649 0.35532 0.24634 0.0
O143 O 0.32116 0.3708 0.15411 0.0
Cd144 Cd 0.3205 0.39223 0.22758 0.0
C145 C 0.38814 0.42338 0.23018 0.0
O146 O 0.30784 0.35421 0.2796 0.0
O147 O 0.32279 0.39307 0.31145 0.0
O148 O 0.27744 0.38673 0.20445 0.0
C149 C 0.31252 0.36789 0.31642 0.0
O150 O 0.3856 0.40115 0.2442 0.0
C151 C 0.28292 0.41023 0.21641 0.0
O152 O 0.36768 0.4252 0.21877 0.0
O153 O 0.30645 0.42585 0.23171 0.0
C154 C -0.00863 0.33209 0.67722 0.0
O155 O 0.00973 0.34803 0.70473 0.0
Cd156 Cd 0.00267 0.3569 0.78315 0.0
O157 O 0.96677 0.31989 0.6894 0.0
Cd158 Cd 0.94025 0.31847 0.75726 0.0
C159 C 0.96472 0.38606 0.7584 0.0
O160 O 0.96886 0.31539 0.81537 0.0
O161 O 0.93806 0.32331 0.84048 0.0
O162 O 0.90869 0.27079 0.75297 0.0
C163 C 0.95664 0.31816 0.84961 0.0
O164 O 0.98614 0.38849 0.77617 0.0
C165 C 0.88822 0.27309 0.74479 0.0
O166 O 0.94573 0.3632 0.74521 0.0
O167 O 0.89196 0.29675 0.74056 0.0
C168 C 0.03807 0.37618 0.07739 0.0
C169 C 0.02943 0.35946 0.11647 0.0
C170 C 0.02611 0.36657 0.03411 0.0
C171 C 0.00518 0.33954 0.0299 0.0
C172 C -0.00271 0.32216 0.06869 0.0
C173 C 0.00949 0.33239 0.11171 0.0
C174 C 0.03505 0.38569 -0.00661 0.0
C175 C 0.97525 0.29314 0.06515 0.0
C176 C 0.95653 0.32882 0.93319 0.0
C177 C 0.96681 0.32025 0.89718 0.0
C178 C 0.96814 0.33401 0.97736 0.0
C179 C 0.99037 0.33029 -0.01439 0.0
C180 C -0.00016 0.32014 0.95016 0.0
C181 C 0.98798 0.31533 0.90617 0.0
C182 C 0.95754 0.34487 0.01443 0.0
C183 C 0.0233 0.31563 0.95804 0.0
H184 H 0.05361 0.39709 0.08084 0.0
H185 H 0.0029 0.31934 0.14183 0.0
H186 H 0.04046 0.37708 0.96366 0.0
H187 H 0.01826 0.38869 0.982 0.0
H188 H 0.05262 0.40564 0.00192 0.0
H189 H 0.97352 0.28161 0.09716 0.0
H190 H 0.95571 0.29217 0.05892 0.0
H191 H 0.97895 0.28322 0.03533 0.0
H192 H 0.94005 0.33249 0.92646 0.0
H193 H -0.00419 0.30843 0.87848 0.0
H194 H 0.97301 0.36589 0.02284 0.0
H195 H 0.95329 0.3329 0.0467 0.0
H196 H 0.93888 0.34468 0.00346 0.0
H197 H 0.04204 0.33532 0.96193 0.0
H198 H 0.02604 0.30459 0.92887 0.0
H199 H 0.0205 0.30417 -0.00947 0.0
C200 C 0.61118 0.94662 0.40092 0.0
C201 C 0.62823 0.95583 0.36229 0.0
C202 C 0.62011 0.95866 0.44434 0.0
C203 C 0.64677 0.98025 0.44917 0.0
C204 C 0.66454 0.98867 0.41093 0.0
C205 C 0.65501 0.97638 0.36774 0.0
C206 C 0.60058 0.94916 0.48446 0.0
C207 C 0.69322 0.0114 0.41515 0.0
C208 C 0.65518 0.02897 0.54432 0.0
C209 C 0.6642 0.01955 0.58103 0.0
C210 C 0.65046 0.01699 0.50052 0.0
C211 C 0.65514 -0.00473 0.49336 0.0
C212 C 0.66561 0.98661 0.52959 0.0
C213 C 0.66992 -0.00119 0.5732 0.0
C214 C 0.6392 0.0267 0.46259 0.0
C215 C 0.67115 0.96373 0.52287 0.0
H216 H 0.59052 0.93061 0.39694 0.0
H217 H 0.66831 0.98341 0.33799 0.0
H218 H 0.60934 0.9444 0.51481 0.0
H219 H 0.5966 0.96544 0.49507 0.0
H220 H 0.5811 0.93105 0.47561 0.0
H221 H 0.70525 0.01342 0.3837 0.0
H222 H 0.69339 0.03062 0.42062 0.0
H223 H 0.70313 0.00827 0.44564 0.0
H224 H 0.65087 0.0451 0.55017 0.0
H225 H 0.67716 0.99165 0.60145 0.0
H226 H 0.61854 0.01056 0.45368 0.0
H227 H 0.65158 0.03136 0.43077 0.0
H228 H 0.63836 0.04491 0.47293 0.0
H229 H 0.65186 0.94461 0.51857 0.0
H230 H 0.68212 0.96152 0.55274 0.0
H231 H 0.6831 0.96684 0.49092 0.0
C232 C 0.65989 0.68002 0.08497 0.0
C233 C 0.633 0.67346 0.09018 0.0
C234 C 0.66948 0.67684 0.04208 0.0
C235 C 0.65162 0.66663 0.00397 0.0
C236 C 0.625 0.66178 0.00832 0.0
C237 C 0.61606 0.6654 0.05135 0.0
C238 C 0.69816 0.68276 0.03838 0.0
C239 C 0.60531 0.65086 0.96844 0.0
C240 C 0.67152 0.66338 0.88007 0.0
C241 C 0.66452 0.63625 0.87698 0.0
C242 C 0.66911 0.67423 0.92218 0.0
C243 C 0.65922 0.65742 0.96164 0.0
C244 C 0.65361 0.63047 0.95926 0.0
C245 C 0.65647 0.62026 0.91698 0.0
C246 C 0.67577 0.70321 0.92378 0.0
C247 C 0.64296 0.61187 0.00062 0.0
H248 H 0.67317 0.68658 0.11479 0.0
H249 H 0.59534 0.66062 0.05503 0.0
H250 H 0.69842 0.66356 0.03773 0.0
H251 H 0.70751 0.69362 0.0057 0.0
H252 H 0.71061 0.69493 0.06809 0.0
H253 H 0.58621 0.65054 0.97627 0.0
H254 H 0.61425 0.66309 0.93679 0.0
H255 H 0.60057 0.63001 0.96055 0.0
H256 H 0.67802 0.6759 0.8493 0.0
H257 H 0.65129 0.59936 0.91492 0.0
H258 H 0.68753 0.71329 0.95538 0.0
H259 H 0.65688 0.70402 0.92521 0.0
H260 H 0.68736 0.71465 0.89283 0.0
H261 H 0.65616 0.62118 0.03115 0.0
H262 H 0.64144 0.5921 -0.00614 0.0
H263 H 0.62268 0.60834 0.00981 0.0
C264 C 0.02562 0.66415 0.42407 0.0
C265 C 0.01591 0.67129 0.38517 0.0
C266 C 0.01197 0.65816 0.46642 0.0
C267 C 0.98818 0.65968 0.47012 0.0
C268 C 0.97925 0.66864 0.43192 0.0
C269 C -0.00682 0.67422 0.38967 0.0
C270 C 0.02213 0.64861 0.50634 0.0
C271 C 0.95426 0.671 0.43496 0.0
C272 C 0.93964 0.61054 0.55776 0.0
C273 C 0.94616 0.62664 0.59751 0.0
C274 C 0.95218 0.62143 0.5153 0.0
C275 C 0.97146 0.64916 0.51246 0.0
C276 C 0.9768 0.66588 0.55168 0.0
C277 C 0.96419 0.65436 0.59395 0.0
C278 C 0.94604 0.6029 0.47427 0.0
C279 C -0.00316 0.69563 0.54965 0.0
H280 H 0.04333 0.66209 0.42098 0.0
H281 H 0.98571 0.67996 0.35979 0.0
H282 H 0.02419 0.66043 0.53802 0.0
H283 H 0.0074 0.62725 0.51409 0.0
H284 H 0.04188 0.65028 0.49874 0.0
H285 H 0.95237 0.68208 0.40493 0.0
H286 H 0.93624 0.6506 0.43584 0.0
H287 H 0.9543 0.68142 0.46738 0.0
H288 H 0.92557 0.58912 0.56021 0.0
H289 H 0.96906 0.66696 0.62449 0.0
H290 H 0.96408 0.6014 0.46554 0.0
H291 H 0.94104 0.61109 0.44341 0.0
H292 H 0.92904 0.58232 0.48119 0.0
H293 H 0.01751 0.69874 0.54757 0.0
H294 H -0.00439 0.70642 0.58068 0.0
H295 H -0.00644 0.70474 0.51819 0.0
C296 C 0.37224 0.04469 0.91981 0.0
C297 C 0.35594 0.03745 0.88019 0.0
C298 C 0.36191 0.03187 0.96231 0.0
C299 C 0.33453 0.01158 0.96535 0.0
C300 C 0.31754 0.00545 0.92627 0.0
C301 C 0.32851 0.01836 0.88395 0.0
C302 C 0.38073 0.03888 0.00317 0.0
C303 C 0.28814 0.9843 0.92852 0.0
C304 C 0.32232 0.9581 0.0537 0.0
C305 C 0.31451 0.96712 0.09264 0.0
C306 C 0.32769 0.97175 0.01138 0.0
C307 C 0.32482 -0.00522 0.00775 0.0
C308 C 0.31522 0.00296 0.04602 0.0
C309 C 0.31031 0.9891 0.08825 0.0
C310 C 0.33796 0.96241 0.97137 0.0
C311 C 0.31142 0.02711 0.04305 0.0
H312 H 0.39342 0.05957 0.91721 0.0
H313 H 0.31575 0.01291 0.85352 0.0
H314 H 0.37214 0.04327 0.03414 0.0
H315 H 0.3833 0.02145 0.0118 0.0
H316 H 0.40087 0.05654 -0.00389 0.0
H317 H 0.27688 0.98487 0.8976 0.0
H318 H 0.28613 0.96407 0.93057 0.0
H319 H 0.27868 0.98698 0.96008 0.0
H320 H 0.32539 0.94099 0.05672 0.0
H321 H 0.30404 -0.00399 0.11817 0.0
H322 H 0.35904 0.97792 0.96347 0.0
H323 H 0.32585 0.95972 0.93979 0.0
H324 H 0.33741 0.94316 0.97896 0.0
H325 H 0.33136 0.04574 0.04185 0.0
H326 H 0.30013 0.02841 0.07326 0.0
H327 H 0.30055 0.02643 0.01081 0.0
C328 C 0.32064 0.37288 0.40145 0.0
C329 C 0.31119 0.35612 0.36247 0.0
C330 C 0.3233 0.363 0.44426 0.0
C331 C 0.31604 0.33561 0.44824 0.0
C332 C 0.30459 0.31811 0.40994 0.0
C333 C 0.30243 0.32863 0.36727 0.0
C334 C 0.33563 0.38233 0.48433 0.0
C335 C 0.29612 0.28868 0.41327 0.0
C336 C 0.35916 0.32581 0.53575 0.0
C337 C 0.34318 0.31915 0.57566 0.0
C338 C 0.34984 0.32967 0.49326 0.0
C339 C 0.3238 0.3265 0.49056 0.0
C340 C 0.3068 0.31784 0.52989 0.0
C341 C 0.31677 0.31438 0.57221 0.0
C342 C 0.36861 0.33893 0.45206 0.0
C343 C 0.27872 0.31375 0.52796 0.0
H344 H 0.32715 0.39409 0.39808 0.0
H345 H 0.2948 0.31551 0.33733 0.0
H346 H 0.32302 0.37418 0.51582 0.0
H347 H 0.35571 0.38497 0.49243 0.0
H348 H 0.33808 0.40241 0.47664 0.0
H349 H 0.28345 0.27701 0.38336 0.0
H350 H 0.31425 0.28647 0.41402 0.0
H351 H 0.2848 0.27982 0.44579 0.0
H352 H 0.37948 0.32922 0.53808 0.0
H353 H 0.30423 0.30894 0.6029 0.0
H354 H 0.37419 0.35989 0.44304 0.0
H355 H 0.35848 0.32621 0.42139 0.0
H356 H 0.38734 0.33832 0.45895 0.0
H357 H 0.27983 0.3336 0.52673 0.0
H358 H 0.26661 0.30261 0.5587 0.0
H359 H 0.26814 0.3026 0.49616 0.0
C360 C 0.95436 0.61223 0.90218 0.0
C361 C 0.96906 0.63227 0.86937 0.0
C362 C 0.95936 0.61736 0.94969 0.0
C363 C 0.97888 0.64344 0.96466 0.0
C364 C -0.00704 0.66408 0.93166 0.0
C365 C 0.98824 0.65809 0.88423 0.0
C366 C 0.94454 0.5946 0.98371 0.0
C367 C 0.01324 0.69233 0.94644 0.0
C368 C 0.97519 0.65692 0.09249 0.0
C369 C -0.00412 0.65343 0.11066 0.0
C370 C 0.97022 0.65504 0.04458 0.0
C371 C 0.98567 0.64849 0.01466 0.0
C372 C 0.00674 0.64521 0.03293 0.0
C373 C 0.01188 0.64818 0.08066 0.0
C374 C 0.94821 0.65959 0.02608 0.0
C375 C 0.02313 0.63741 0.00238 0.0
H376 H 0.93966 0.5922 0.89058 0.0
H377 H -0.00059 0.67364 0.85876 0.0
H378 H 0.95915 0.591 0.00313 0.0
H379 H 0.93367 0.59999 0.00942 0.0
H380 H 0.92983 0.57557 0.96636 0.0
H381 H 0.02041 0.70661 0.91681 0.0
H382 H 0.00432 0.6996 0.97287 0.0
H383 H 0.03086 0.6925 0.96263 0.0
H384 H 0.96294 0.66117 0.11574 0.0
H385 H 0.02773 0.64522 0.09479 0.0
H386 H 0.93153 0.64046 0.01228 0.0
H387 H 0.95592 0.6742 -0.00302 0.0
H388 H 0.93999 0.66724 0.05318 0.0
H389 H 0.00971 0.6177 -0.01425 0.0
H390 H 0.03896 0.63587 0.02204 0.0
H391 H 0.03288 0.65237 0.97424 0.0
C392 C 0.33793 0.971 0.39733 0.0
C393 C 0.33244 0.98675 0.36708 0.0
C394 C 0.34051 0.97605 0.44509 0.0
C395 C 0.33657 -0.00323 0.4631 0.0
C396 C 0.32979 0.01194 0.43289 0.0
C397 C 0.32833 0.00709 0.38498 0.0
C398 C 0.34859 0.96 0.47597 0.0
C399 C 0.32454 0.03355 0.45108 0.0
C400 C 0.326 -0.00595 0.5933 0.0
C401 C 0.35152 0.01372 0.60858 0.0
C402 C 0.32042 0.98913 0.54578 0.0
C403 C 0.34119 0.00352 0.51316 0.0
C404 C 0.36698 0.02347 0.52856 0.0
C405 C 0.37168 0.02865 0.57611 0.0
C406 C 0.29245 0.96837 0.5305 0.0
C407 C 0.38989 0.03864 0.49498 0.0
H408 H 0.34137 0.95542 0.38338 0.0
H409 H 0.32388 0.01913 0.36152 0.0
H410 H 0.36811 0.97369 0.49294 0.0
H411 H 0.33353 0.94998 0.50386 0.0
H412 H 0.35062 0.94441 0.45649 0.0
H413 H 0.31681 0.04156 0.42371 0.0
H414 H 0.30974 0.02552 0.47984 0.0
H415 H 0.3434 0.05045 0.46526 0.0
H416 H 0.31035 0.98269 0.61851 0.0
H417 H 0.39149 0.04373 0.58804 0.0
H418 H 0.29286 0.95104 0.51439 0.0
H419 H 0.28499 0.97703 0.50387 0.0
H420 H 0.278 0.96083 0.55986 0.0
H421 H 0.39393 0.02428 0.47577 0.0
H422 H 0.4087 0.05355 0.51267 0.0
H423 H 0.38441 0.04935 0.46905 0.0
C424 C 0.3578 0.33824 0.87988 0.0
C425 C 0.33707 0.33273 0.84845 0.0
C426 C 0.35395 0.3392 0.92761 0.0
C427 C 0.32849 0.33366 0.94424 0.0
C428 C 0.30704 0.32662 0.91279 0.0
C429 C 0.31173 0.3267 0.86505 0.0
C430 C 0.37752 0.34749 0.95996 0.0
C431 C 0.2794 0.31974 0.92947 0.0
C432 C 0.31915 0.3217 0.07388 0.0
C433 C 0.32432 0.34694 0.08959 0.0
C434 C 0.31901 0.31656 0.0263 0.0
C435 C 0.32512 0.33747 -0.00589 0.0
C436 C 0.32988 0.36283 0.00987 0.0
C437 C 0.329 0.36712 0.05744 0.0
C438 C 0.31298 0.28901 0.01055 0.0
C439 C 0.33715 0.38586 0.97671 0.0
H440 H 0.37747 0.34309 0.867 0.0
H441 H 0.29562 0.32218 0.84069 0.0
H442 H 0.38244 0.36666 0.97736 0.0
H443 H 0.37232 0.33215 -0.01256 0.0
H444 H 0.39575 0.35031 0.94155 0.0
H445 H 0.26421 0.31154 0.90124 0.0
H446 H 0.27279 0.30478 0.95798 0.0
H447 H 0.28001 0.33803 0.94351 0.0
H448 H 0.3153 0.30603 0.0988 0.0
H449 H 0.3332 0.38672 0.0696 0.0
H450 H 0.33142 0.29019 -0.00402 0.0
H451 H 0.29761 0.28152 0.98264 0.0
H452 H 0.30564 0.27419 0.03939 0.0
H453 H 0.35619 0.39102 0.9586 0.0
H454 H 0.33973 0.40415 -0.00543 0.0
H455 H 0.32135 0.37991 0.94984 0.0
C456 C 0.98271 0.30698 0.60288 0.0
C457 C -0.00199 0.33055 0.62855 0.0
C458 C 0.98601 0.30676 0.55476 0.0
C459 C 0.0042 0.33097 0.53196 0.0
C460 C 0.0206 0.35446 0.55811 0.0
C461 C 0.01762 0.35381 0.60632 0.0
C462 C 0.96906 0.28106 0.52815 0.0
C463 C 0.03974 0.38086 0.53499 0.0
C464 C 0.02546 0.33702 0.40637 0.0
C465 C 0.00772 0.34393 0.38542 0.0
C466 C 0.02337 0.33081 0.45374 0.0
C467 C 0.00389 0.33281 0.48078 0.0
C468 C 0.98548 0.3391 0.45937 0.0
C469 C 0.98733 0.34409 0.41165 0.0
C470 C 0.04255 0.32304 0.47508 0.0
C471 C 0.96487 0.34213 0.48724 0.0
H472 H 0.96769 0.28893 0.62029 0.0
H473 H 0.0293 0.37209 0.6262 0.0
H474 H 0.95266 0.2822 0.50988 0.0
H475 H 0.98132 0.27814 0.50152 0.0
H476 H 0.95986 0.26321 0.55135 0.0
H477 H 0.05202 0.39687 0.56047 0.0
H478 H 0.05349 0.37834 0.51124 0.0
H479 H 0.02813 0.3877 0.51378 0.0
H480 H 0.04107 0.33666 0.38574 0.0
H481 H 0.97376 0.34963 0.3953 0.0
H482 H 0.03157 0.30539 0.49825 0.0
H483 H 0.05764 0.33987 0.4965 0.0
H484 H 0.05339 0.31817 0.44833 0.0
H485 H 0.95197 0.32348 0.50706 0.0
H486 H 0.95176 0.34662 0.46508 0.0
H487 H 0.97523 0.35868 0.51274 0.0
C488 C 0.67921 0.00826 0.87599 0.0
C489 C 0.65538 0.99263 0.85115 0.0
C490 C 0.68007 0.0052 0.9241 0.0
C491 C 0.65625 0.98692 0.94773 0.0
C492 C 0.63243 0.97036 0.92243 0.0
C493 C 0.63245 0.9731 0.87423 0.0
C494 C 0.70609 0.02236 0.94978 0.0
C495 C 0.60642 0.95109 0.94649 0.0
C496 C 0.6518 0.96458 0.07232 0.0
C497 C 0.64469 0.9818 0.09463 0.0
C498 C 0.65768 0.9673 0.02481 0.0
C499 C 0.65519 0.98692 -0.00099 0.0
C500 C 0.64887 0.00492 0.02182 0.0
C501 C 0.64417 0.00243 0.06966 0.0
C502 C 0.66549 0.94854 0.00195 0.0
C503 C 0.64532 0.02566 -0.00469 0.0
H504 H 0.69701 0.02323 0.85794 0.0
H505 H 0.61397 0.96117 0.85499 0.0
H506 H 0.70492 0.03849 0.96892 0.0
H507 H 0.70964 0.01012 0.97561 0.0
H508 H 0.72358 0.03192 0.92587 0.0
H509 H 0.58998 0.939 0.92157 0.0
H510 H 0.60933 0.93715 0.96916 0.0
H511 H 0.59998 0.96255 0.96894 0.0
H512 H 0.65244 0.94879 0.09196 0.0
H513 H 0.63849 0.0156 0.08704 0.0
H514 H 0.68279 0.95985 0.97822 0.0
H515 H 0.64846 0.93346 0.98085 0.0
H516 H 0.6709 0.93766 0.02779 0.0
H517 H 0.66355 0.03863 0.97459 0.0
H518 H 0.64128 0.03867 0.01853 0.0
H519 H 0.62826 0.01538 0.97071 0.0
C520 C 0.62257 0.65294 0.39428 0.0
C521 C 0.64248 0.65712 0.36193 0.0
C522 C 0.62676 0.65152 0.44174 0.0
C523 C 0.65178 0.6552 0.45724 0.0
C524 C 0.67244 0.66068 0.42489 0.0
C525 C 0.66736 0.66111 0.37738 0.0
C526 C 0.60398 0.64494 0.47506 0.0
C527 C 0.69964 0.66558 0.4404 0.0
C528 C 0.66244 0.66838 0.58624 0.0
C529 C 0.65518 0.64271 0.603 0.0
C530 C 0.66315 0.67322 0.53846 0.0
C531 C 0.65548 0.65163 0.50708 0.0
C532 C 0.64887 0.62586 0.52387 0.0
C533 C 0.64921 0.62182 0.57169 0.0
C534 C 0.67117 0.70116 0.52167 0.0
C535 C 0.6399 0.60217 0.49159 0.0
H536 H 0.60323 0.64963 0.38232 0.0
H537 H 0.68283 0.66455 0.35231 0.0
H538 H 0.59835 0.62582 0.49335 0.0
H539 H 0.61044 0.66089 0.50176 0.0
H540 H 0.58585 0.64286 0.45731 0.0
H541 H 0.71434 0.67232 0.41143 0.0
H542 H 0.70777 0.68101 0.46817 0.0
H543 H 0.69768 0.64682 0.45511 0.0
H544 H 0.66733 0.6846 0.61053 0.0
H545 H 0.64343 0.60193 0.58469 0.0
H546 H 0.65326 0.70142 0.50789 0.0
H547 H 0.68594 0.70715 0.49297 0.0
H548 H 0.68005 0.71634 0.5498 0.0
H549 H 0.62079 0.59772 0.47445 0.0
H550 H 0.63666 0.58378 0.51002 0.0
H551 H 0.65501 0.60696 0.4639 0.0
C552 C 0.03605 0.57218 0.23037 0.0
C553 C 0.01754 0.57489 0.25823 0.0
C554 C 0.0366 0.54804 0.22943 0.0
C555 C 0.0186 0.52632 0.25778 0.0
C556 C 5e-05 0.52903 0.28637 0.0
C557 C -0.00046 0.55322 0.28587 0.0
C558 C 0.0563 0.5457 0.19781 0.0
C559 C 0.98089 0.50644 0.31767 0.0
C560 C 0.00338 0.45611 0.22505 0.0
C561 C 0.0213 0.45279 0.25358 0.0
C562 C 0.00226 0.47996 0.22612 0.0
C563 C 0.01908 0.50071 0.25715 0.0
C564 C 0.03681 0.49725 0.28674 0.0
C565 C 0.03792 0.47341 0.28424 0.0
C566 C 0.98348 0.48315 0.19342 0.0
C567 C 0.05466 0.51876 0.3209 0.0
H568 H 0.04986 0.58882 0.2087 0.0
H569 H 0.98534 0.55531 0.30772 0.0
H570 H 0.07003 0.54141 0.21846 0.0
H571 H 0.04532 0.52865 0.17348 0.0
H572 H 0.0686 0.56431 0.17732 0.0
H573 H 0.96818 0.51202 0.33863 0.0
H574 H 0.96755 0.48842 0.29672 0.0
H575 H -0.00766 0.50069 0.34154 0.0
H576 H -0.00938 0.44029 0.20107 0.0
H577 H 0.05165 0.47083 0.3066 0.0
H578 H -0.00482 0.50073 0.17042 0.0
H579 H 0.96928 0.4871 0.2133 0.0
H580 H 0.97168 0.46505 0.17151 0.0
H581 H 0.06892 0.53735 0.30207 0.0
H582 H 0.06639 0.51242 0.34293 0.0
H583 H 0.04232 0.52392 0.34369 0.0
C584 C 0.47658 0.05326 0.72029 0.0
C585 C 0.45576 0.03516 0.74929 0.0
C586 C 0.50046 0.05239 0.71585 0.0
C587 C 0.50379 0.03331 0.74177 0.0
C588 C 0.48313 0.01544 0.77204 0.0
C589 C 0.45922 0.01639 0.77506 0.0
C590 C 0.52183 0.07142 0.68256 0.0
C591 C 0.48619 -0.00484 0.80089 0.0
C592 C 0.55205 0.01134 0.69773 0.0
C593 C 0.57505 0.0272 0.72453 0.0
C594 C 0.52885 0.01339 0.70265 0.0
C595 C 0.52845 0.03134 0.73584 0.0
C596 C 0.55155 0.04732 0.76318 0.0
C597 C 0.57471 0.04527 0.75683 0.0
C598 C 0.50479 -0.0036 0.67222 0.0
C599 C 0.55167 0.06632 0.79949 0.0
H600 H 0.47394 0.06772 0.70008 0.0
H601 H 0.44327 0.00251 0.79783 0.0
H602 H 0.54119 0.08351 0.70104 0.0
H603 H 0.52518 0.05976 0.65532 0.0
H604 H 0.51629 0.08534 0.66552 0.0
H605 H 0.46893 0.98381 0.82471 0.0
H606 H 0.48792 0.98062 0.7779 0.0
H607 H 0.50493 0.00545 0.82172 0.0
H608 H 0.55228 -0.00252 0.67247 0.0
H609 H 0.59238 0.05742 0.77786 0.0
H610 H 0.49917 0.00948 0.65254 0.0
H611 H 0.48726 0.9828 0.69396 0.0
H612 H 0.50865 0.984 0.64721 0.0
H613 H 0.54759 0.08142 0.78313 0.0
H614 H 0.57114 0.07708 0.81828 0.0
H615 H 0.5354 0.05499 0.82504 0.0
C616 C 0.51931 0.56628 0.25333 0.0
C617 C 0.54019 0.57025 0.22334 0.0
C618 C 0.49535 0.54149 0.25519 0.0
C619 C 0.49198 0.52035 0.22563 0.0
C620 C 0.51308 0.52413 0.19557 0.0
C621 C 0.53709 0.549 0.19513 0.0
C622 C 0.47349 0.53805 0.28835 0.0
C623 C 0.50999 0.50219 0.16297 0.0
C624 C 0.43631 0.44968 0.25483 0.0
C625 C 0.41512 0.44755 0.22748 0.0
C626 C 0.46161 0.47318 0.25424 0.0
C627 C 0.46588 0.49474 0.22489 0.0
C628 C 0.4448 0.49234 0.19615 0.0
C629 C 0.41958 0.46888 0.19816 0.0
C630 C 0.48349 0.47524 0.28597 0.0
C631 C 0.44875 0.51472 0.16376 0.0
H632 H 0.52173 0.58258 0.27554 0.0
H633 H 0.55315 0.55204 0.17174 0.0
H634 H 0.45546 0.53465 0.2686 0.0
H635 H 0.46737 0.52011 0.31054 0.0
H636 H 0.47995 0.55588 0.31103 0.0
H637 H 0.5286 0.50806 0.14278 0.0
H638 H 0.50468 0.48358 0.18265 0.0
H639 H 0.49329 0.49728 0.13836 0.0
H640 H 0.43289 0.43327 0.27771 0.0
H641 H 0.40333 0.4672 0.17661 0.0
H642 H 0.48911 0.49185 0.3111 0.0
H643 H 0.50179 0.48012 0.26569 0.0
H644 H 0.4772 0.45635 0.30558 0.0
H645 H 0.45289 0.53279 0.18411 0.0
H646 H 0.43085 0.50897 0.14157 0.0
H647 H 0.4664 0.52046 0.14107 0.0
C648 C 0.93427 0.5074 0.75818 0.0
C649 C 0.95216 0.52859 0.72956 0.0
C650 C 0.93579 0.48386 0.76239 0.0
C651 C 0.95533 0.48124 0.73663 0.0
C652 C 0.97308 0.50231 0.7069 0.0
C653 C 0.97147 0.52588 0.70409 0.0
C654 C 0.91686 0.46203 0.79512 0.0
C655 C -0.00616 0.5 0.67824 0.0
C656 C 0.97767 0.4331 0.78012 0.0
C657 C 0.96207 0.41024 0.75288 0.0
C658 C 0.97552 0.45627 0.77538 0.0
C659 C 0.95772 0.45676 0.74194 0.0
C660 C 0.94208 0.43385 0.71401 0.0
C661 C 0.94424 0.41073 0.72016 0.0
C662 C -0.00785 0.48013 0.80641 0.0
C663 C 0.92325 0.43384 0.67742 0.0
H664 H 0.91941 0.50946 0.77816 0.0
H665 H 0.9852 0.54211 0.68163 0.0
H666 H 0.90501 0.44283 0.77606 0.0
H667 H 0.92857 0.45857 0.82217 0.0
H668 H 0.9027 0.46714 0.81243 0.0
H669 H 0.00522 0.51763 0.65513 0.0
H670 H 0.00832 0.4982 0.70136 0.0
H671 H 0.98397 0.48153 0.65668 0.0
H672 H -0.00864 0.43277 0.80568 0.0
H673 H 0.93229 0.39318 0.69878 0.0
H674 H 0.97878 0.48525 0.82634 0.0
H675 H 0.00559 0.49797 0.78514 0.0
H676 H 0.00467 0.47631 0.83124 0.0
H677 H 0.90774 0.43729 0.69373 0.0
H678 H 0.913 0.41462 0.65782 0.0
H679 H 0.93458 0.45055 0.6526 0.0
C680 C 0.43311 0.98328 0.19299 0.0
C681 C 0.41128 0.96495 0.21999 0.0
C682 C 0.45737 0.98293 0.19282 0.0
C683 C 0.46 0.9642 0.22108 0.0
C684 C 0.4381 0.9458 0.24868 0.0
C685 C 0.41389 0.94622 0.24743 0.0
C686 C 0.48016 0.00253 0.1623 0.0
C687 C 0.44033 0.92587 0.27993 0.0
C688 C 0.51391 0.94621 0.19507 0.0
C689 C 0.5342 0.96279 0.22631 0.0
C690 C 0.48982 0.94684 0.19235 0.0
C691 C 0.48576 0.96403 0.22229 0.0
C692 C 0.50614 0.98074 0.25399 0.0
C693 C 0.53024 0.98012 0.25528 0.0
C694 C 0.46872 0.92911 0.1575 0.0
C695 C 0.50232 -0.00104 0.28705 0.0
H696 H 0.4311 -0.00234 0.17144 0.0
H697 H 0.39713 0.93213 0.26861 0.0
H698 H 0.4979 0.01585 0.18388 0.0
H699 H 0.48636 0.99143 0.13849 0.0
H700 H 0.47459 0.01525 0.14133 0.0
H701 H 0.42153 0.91316 0.29965 0.0
H702 H 0.44511 0.91255 0.25912 0.0
H703 H 0.45705 0.93672 0.30495 0.0
H704 H 0.51698 0.93294 0.17237 0.0
H705 H 0.54579 0.99284 0.27972 0.0
H706 H 0.46365 0.94152 0.13469 0.0
H707 H 0.45 0.91459 0.17571 0.0
H708 H 0.47544 0.91768 0.13553 0.0
H709 H 0.49845 0.0133 0.26739 0.0
H710 H 0.52011 0.01061 0.30972 0.0
H711 H 0.48449 0.98684 0.30929 0.0
C712 C 0.5426 0.54349 0.70849 0.0
C713 C 0.56162 0.54349 0.73885 0.0
C714 C 0.51756 0.52014 0.70202 0.0
C715 C 0.5112 0.49674 0.72799 0.0
C716 C 0.53005 0.49711 0.76012 0.0
C717 C 0.55532 0.52036 0.76441 0.0
C718 C 0.49838 0.5202 0.66624 0.0
C719 C 0.52367 0.47288 0.78962 0.0
C720 C 0.43814 0.44169 0.739 0.0
C721 C 0.43754 0.42185 0.71002 0.0
C722 C 0.46201 0.46632 0.74514 0.0
C723 C 0.48536 0.47144 0.72023 0.0
C724 C 0.48441 0.45179 0.68938 0.0
C725 C 0.46061 0.42695 0.68542 0.0
C726 C 0.46253 0.48637 0.7796 0.0
C727 C 0.5086 0.45685 0.66099 0.0
H728 H 0.54774 0.56144 0.6885 0.0
H729 H 0.5701 0.52058 0.78811 0.0
H730 H 0.49474 0.50509 0.639 0.0
H731 H 0.47868 0.51435 0.68235 0.0
H732 H 0.50621 0.54017 0.6495 0.0
H733 H 0.53953 0.47732 0.81587 0.0
H734 H 0.50421 0.46569 0.80777 0.0
H735 H 0.52157 0.45621 0.76731 0.0
H736 H 0.42024 0.43748 0.75827 0.0
H737 H 0.45994 0.41154 0.66279 0.0
H738 H 0.46939 0.50607 0.76259 0.0
H739 H 0.47711 0.48964 0.80764 0.0
H740 H 0.4425 0.47953 0.79544 0.0
H741 H 0.51674 0.47624 0.64213 0.0
H742 H 0.50374 0.44057 0.63544 0.0
H743 H 0.52474 0.45841 0.68418 0.0
C744 C 0.15917 0.43842 0.23065 0.0
C745 C 0.14112 0.4182 0.26064 0.0
C746 C 0.18487 0.44199 0.22262 0.0
C747 C 0.19267 0.42522 0.24575 0.0
C748 C 0.17523 0.4062 0.27871 0.0
C749 C 0.14954 0.40274 0.28542 0.0
C750 C 0.20283 0.46236 0.18703 0.0
C751 C 0.18308 0.38835 0.30489 0.0
C752 C 0.23819 0.40288 0.19187 0.0
C753 C 0.26186 0.41776 0.21745 0.0
C754 C 0.21608 0.40656 0.19848 0.0
C755 C 0.21758 0.42521 0.23215 0.0
C756 C 0.24198 0.44147 0.25606 0.0
C757 C 0.26399 0.43769 0.24811 0.0
C758 C 0.19058 0.38928 0.17148 0.0
C759 C 0.24427 0.46142 0.29241 0.0
H760 H 0.15267 0.45037 0.21133 0.0
H761 H 0.13569 0.38727 0.30897 0.0
H762 H 0.22375 0.47422 0.20012 0.0
H763 H 0.20338 0.45169 0.15534 0.0
H764 H 0.1956 0.4764 0.17729 0.0
H765 H 0.16857 0.37684 0.33291 0.0
H766 H 0.18396 0.37383 0.28058 0.0
H767 H 0.20337 0.40052 0.3204 0.0
H768 H 0.23662 0.38764 0.16781 0.0
H769 H 0.28227 0.4492 0.26806 0.0
H770 H 0.18271 0.40181 0.15653 0.0
H771 H 0.17494 0.37445 0.19511 0.0
H772 H 0.19371 0.37814 0.14295 0.0
H773 H 0.23544 0.47359 0.27977 0.0
H774 H 0.26549 0.4752 0.30272 0.0
H775 H 0.2328 0.45038 0.32367 0.0
C776 C 0.84122 0.24883 0.71423 0.0
C777 C 0.86121 0.24923 0.74262 0.0
C778 C 0.81574 0.22564 0.71118 0.0
C779 C 0.81007 0.20284 0.73837 0.0
C780 C 0.82995 0.20363 0.76842 0.0
C781 C 0.85544 0.22668 0.76957 0.0
C782 C 0.79527 0.2252 0.67776 0.0
C783 C 0.82443 0.17999 0.79888 0.0
C784 C 0.73808 0.14733 0.7588 0.0
C785 C 0.73673 0.12703 0.73011 0.0
C786 C 0.76176 0.17245 0.76139 0.0
C787 C 0.78407 0.17744 0.73342 0.0
C788 C 0.78225 0.15732 0.70288 0.0
C789 C 0.75874 0.13217 0.70221 0.0
C790 C 0.76328 0.19318 0.79532 0.0
C791 C 0.80533 0.16213 0.67157 0.0
H792 H 0.84578 0.26633 0.69338 0.0
H793 H 0.87084 0.22718 0.79206 0.0
H794 H 0.7907 0.20977 0.65068 0.0
H795 H 0.77617 0.2195 0.69605 0.0
H796 H 0.80245 0.24495 0.66056 0.0
H797 H 0.84122 0.18479 0.8233 0.0
H798 H 0.80576 0.17343 0.8192 0.0
H799 H 0.82128 0.16275 0.77705 0.0
H800 H 0.721 0.14323 0.7804 0.0
H801 H 0.75748 0.11653 0.6795 0.0
H802 H 0.7697 0.21257 0.77743 0.0
H803 H 0.77863 0.19694 0.82218 0.0
H804 H 0.74373 0.18668 0.81277 0.0
H805 H 0.81244 0.18109 0.65179 0.0
H806 H 0.79967 0.14539 0.64663 0.0
H807 H 0.82247 0.16437 0.69274 0.0
C808 C 0.55462 0.7234 0.21148 0.0
C809 C 0.57455 0.72457 0.24113 0.0
C810 C 0.55104 0.74571 0.20609 0.0
C811 C 0.56746 0.76942 0.23163 0.0
C812 C 0.58624 0.76995 0.2641 0.0
C813 C 0.58976 0.74758 0.26809 0.0
C814 C 0.53101 0.7445 0.17083 0.0
C815 C 0.60369 0.79468 0.29279 0.0
C816 C 0.58894 0.83877 0.185 0.0
C817 C 0.5732 0.84609 0.21154 0.0
C818 C 0.58598 0.81312 0.18911 0.0
C819 C 0.56722 0.79461 0.22127 0.0
C820 C 0.5503 0.8014 0.24642 0.0
C821 C 0.55333 0.82707 0.24091 0.0
C822 C 0.60396 0.80637 0.16084 0.0
C823 C 0.53028 0.7823 0.28134 0.0
H824 H 0.54289 0.70564 0.19044 0.0
H825 H 0.605 0.74841 0.29135 0.0
H826 H 0.51865 0.7526 0.18555 0.0
H827 H 0.54198 0.75721 0.14057 0.0
H828 H 0.51742 0.72367 0.15842 0.0
H829 H 0.61502 0.79078 0.32 0.0
H830 H 0.61835 0.811 0.26995 0.0
H831 H 0.59123 0.80207 0.30966 0.0
H832 H 0.60414 0.8534 0.16196 0.0
H833 H 0.54119 0.83274 0.26163 0.0
H834 H 0.59191 0.78654 0.1437 0.0
H835 H 0.61865 0.80496 0.18401 0.0
H836 H 0.61528 0.82176 0.13386 0.0
H837 H 0.5183 0.76183 0.26643 0.0
H838 H 0.51632 0.78914 0.29349 0.0
H839 H 0.54123 0.78073 0.31181 0.0
C840 C 0.81602 0.54949 0.72026 0.0
C841 C 0.83594 0.5689 0.74908 0.0
C842 C 0.79047 0.54701 0.71738 0.0
C843 C 0.78474 0.56407 0.74451 0.0
C844 C 0.80418 0.58234 0.77608 0.0
C845 C 0.82966 0.5847 0.77767 0.0
C846 C 0.77031 0.52744 0.6831 0.0
C847 C 0.79863 0.60051 0.80631 0.0
C848 C 0.73836 0.58864 0.70295 0.0
C849 C 0.7157 0.57375 0.73085 0.0
C850 C 0.76035 0.58443 0.70506 0.0
C851 C 0.7598 0.5652 0.73649 0.0
C852 C 0.73644 0.54917 0.76312 0.0
C853 C 0.7145 0.5535 0.7597 0.0
C854 C 0.78471 0.60156 0.67536 0.0
C855 C 0.73524 0.52865 0.79725 0.0
H856 H 0.82086 0.53726 0.69804 0.0
H857 H 0.84494 0.59953 0.80036 0.0
H858 H 0.75015 0.51579 0.69925 0.0
H859 H 0.76841 0.53875 0.65352 0.0
H860 H 0.77638 0.51316 0.66941 0.0
H861 H 0.81467 0.61132 0.83256 0.0
H862 H 0.79721 0.61564 0.78437 0.0
H863 H 0.77912 0.58871 0.82449 0.0
H864 H 0.7392 0.60411 0.68026 0.0
H865 H 0.69699 0.54199 0.78141 0.0
H866 H 0.79113 0.58876 0.65687 0.0
H867 H 0.80169 0.61564 0.69771 0.0
H868 H 0.78083 0.61352 0.64939 0.0
H869 H 0.74241 0.51586 0.78102 0.0
H870 H 0.71457 0.5155 0.81076 0.0
H871 H 0.74873 0.53917 0.82696 0.0
C872 C 0.25168 0.83441 0.2148 0.0
C873 C 0.25295 0.85469 0.24358 0.0
C874 C 0.22834 0.80903 0.21289 0.0
C875 C 0.2061 0.80379 0.24114 0.0
C876 C 0.20789 0.82374 0.27214 0.0
C877 C 0.23122 0.84909 0.2726 0.0
C878 C 0.227 0.78837 0.17895 0.0
C879 C 0.18479 0.81867 0.30358 0.0
C880 C 0.1346 0.75441 0.20542 0.0
C881 C 0.12864 0.73231 0.23378 0.0
C882 C 0.16026 0.77731 0.20578 0.0
C883 C 0.18018 0.7783 0.23602 0.0
C884 C 0.17455 0.75568 0.26359 0.0
C885 C 0.14885 0.73278 0.26179 0.0
C886 C 0.16573 0.80084 0.17508 0.0
C887 C 0.19517 0.75617 0.29672 0.0
H888 H 0.26843 0.83876 0.19214 0.0
H889 H 0.23227 0.86469 0.29516 0.0
H890 H 0.21996 0.76877 0.19647 0.0
H891 H 0.21222 0.78513 0.1513 0.0
H892 H 0.24677 0.79471 0.16249 0.0
H893 H 0.19035 0.83533 0.32866 0.0
H894 H 0.16759 0.81636 0.28247 0.0
H895 H 0.17782 0.79969 0.3232 0.0
H896 H 0.11905 0.75397 0.18345 0.0
H897 H 0.14423 0.71574 0.28392 0.0
H898 H 0.18448 0.80748 0.15495 0.0
H899 H 0.1687 0.81807 0.19679 0.0
H900 H 0.14898 0.79589 0.15049 0.0
H901 H 0.21454 0.76281 0.27865 0.0
H902 H 0.18844 0.73618 0.31268 0.0
H903 H 0.19904 0.77089 0.32479 0.0
C904 C 0.38802 0.24504 0.75814 0.0
C905 C 0.40324 0.26702 0.72896 0.0
C906 C 0.39215 0.22298 0.75895 0.0
C907 C 0.41161 0.22272 0.72916 0.0
C908 C 0.42784 0.24535 0.70106 0.0
C909 C 0.4236 0.2674 0.70159 0.0
C910 C 0.37482 0.19943 0.79014 0.0
C911 C 0.44857 0.24563 0.66852 0.0
C912 C 0.4284 0.1678 0.75306 0.0
C913 C 0.40955 0.14705 0.7248 0.0
C914 C 0.43018 0.19309 0.75358 0.0
C915 C 0.413 0.1977 0.72456 0.0
C916 C 0.39515 0.17732 0.69386 0.0
C917 C 0.39346 0.15213 0.69469 0.0
C918 C 0.44924 0.21425 0.7871 0.0
C919 C 0.37689 0.18168 0.66169 0.0
H920 H 0.37245 0.24484 0.77968 0.0
H921 H 0.43536 0.28437 0.6789 0.0
H922 H 0.36097 0.18182 0.76875 0.0
H923 H 0.3875 0.1936 0.81056 0.0
H924 H 0.36261 0.20395 0.81449 0.0
H925 H 0.46153 0.2658 0.65294 0.0
H926 H 0.46153 0.23937 0.68688 0.0
H927 H 0.43825 0.23098 0.64012 0.0
H928 H 0.44082 0.16387 0.7765 0.0
H929 H 0.37906 0.13618 0.67247 0.0
H930 H 0.43751 0.21698 0.815 0.0
H931 H 0.46107 0.23391 0.76938 0.0
H932 H 0.46335 0.20868 0.80329 0.0
H933 H 0.3616 0.18356 0.68229 0.0
H934 H 0.36629 0.16486 0.63672 0.0
H935 H 0.38859 0.20066 0.64194 0.0
loop_
_geom_bond_atom_site_label_1
_geom_bond_atom_site_label_2
_geom_bond_distance
_geom_bond_site_symmetry_2
_ccdc_geom_bond_type
C0 O1 1.306 . S
C0 O3 1.160 . S
O1 C0 1.306 . S
O1 Cd2 2.228 1_455 S
Cd2 O1 2.228 1_655 S
Cd2 O6 2.273 1_655 S
Cd2 O10 2.277 1_655 S
O3 C0 1.160 . S
O3 Cd4 2.203 . S
Cd4 O3 2.203 . S
Cd4 O6 2.411 . S
Cd4 O7 2.333 . S
Cd4 O8 2.352 . S
Cd4 O12 2.277 . S
Cd4 O13 2.356 . S
C5 O10 1.209 . S
C5 O12 1.226 . S
O6 Cd2 2.273 1_455 S
O6 Cd4 2.411 . S
O6 C9 1.320 . S
O7 Cd4 2.333 . S
O7 C9 1.214 . S
O8 Cd4 2.352 . S
O8 C11 1.258 . S
C9 O6 1.320 . S
C9 O7 1.214 . S
O10 Cd2 2.277 1_455 S
O10 C5 1.209 . S
C11 O8 1.258 . S
C11 O13 1.282 . S
O12 Cd4 2.277 . S
O12 C5 1.226 . S
O13 Cd4 2.356 . S
O13 C11 1.282 . S
C14 O15 1.306 . S
C14 O17 1.160 . S
O15 C14 1.306 . S
O15 Cd16 2.228 1_545 S
Cd16 O15 2.228 1_565 S
Cd16 O20 2.273 1_565 S
Cd16 O24 2.277 1_565 S
O17 C14 1.160 . S
O17 Cd18 2.203 . S
Cd18 O17 2.203 . S
Cd18 O20 2.411 . S
Cd18 O21 2.333 . S
Cd18 O22 2.352 . S
Cd18 O26 2.277 . S
Cd18 O27 2.356 . S
C19 O24 1.209 . S
C19 O26 1.226 . S
O20 Cd16 2.273 1_545 S
O20 Cd18 2.411 . S
O20 C23 1.320 . S
O21 Cd18 2.333 . S
O21 C23 1.214 . S
O22 Cd18 2.352 . S
O22 C25 1.258 . S
C23 O20 1.320 . S
C23 O21 1.214 . S
O24 Cd16 2.277 1_545 S
O24 C19 1.209 . S
C25 O22 1.258 . S
C25 O27 1.282 . S
O26 Cd18 2.277 . S
O26 C19 1.226 . S
O27 Cd18 2.356 . S
O27 C25 1.282 . S
C28 O29 1.306 . S
C28 O31 1.160 . S
O29 C28 1.306 . S
O29 Cd30 2.228 . S
Cd30 O29 2.228 . S
Cd30 O34 2.273 . S
Cd30 O38 2.277 . S
O31 C28 1.160 . S
O31 Cd32 2.203 . S
Cd32 O31 2.203 . S
Cd32 O34 2.411 . S
Cd32 O35 2.333 . S
Cd32 O36 2.352 . S
Cd32 O40 2.277 . S
Cd32 O41 2.356 . S
C33 O38 1.209 . S
C33 O40 1.226 . S
O34 Cd30 2.273 . S
O34 Cd32 2.411 . S
O34 C37 1.320 . S
O35 Cd32 2.333 . S
O35 C37 1.214 . S
O36 Cd32 2.352 . S
O36 C39 1.258 . S
C37 O34 1.320 . S
C37 O35 1.214 . S
O38 Cd30 2.277 . S
O38 C33 1.209 . S
C39 O36 1.258 . S
C39 O41 1.282 . S
O40 Cd32 2.277 . S
O40 C33 1.226 . S
O41 Cd32 2.356 . S
O41 C39 1.282 . S
C42 O43 1.306 . S
C42 O45 1.160 . S
O43 C42 1.306 . S
O43 Cd44 2.228 1_655 S
Cd44 O43 2.228 1_455 S
Cd44 O48 2.273 1_455 S
Cd44 O52 2.277 1_455 S
O45 C42 1.160 . S
O45 Cd46 2.203 . S
Cd46 O45 2.203 . S
Cd46 O48 2.411 . S
Cd46 O49 2.333 . S
Cd46 O50 2.352 . S
Cd46 O54 2.277 . S
Cd46 O55 2.356 . S
C47 O52 1.209 . S
C47 O54 1.226 . S
O48 Cd44 2.273 1_655 S
O48 Cd46 2.411 . S
O48 C51 1.320 . S
O49 Cd46 2.333 . S
O49 C51 1.214 . S
O50 Cd46 2.352 . S
O50 C53 1.258 . S
C51 O48 1.320 . S
C51 O49 1.214 . S
O52 Cd44 2.277 1_655 S
O52 C47 1.209 . S
C53 O50 1.258 . S
C53 O55 1.282 . S
O54 Cd46 2.277 . S
O54 C47 1.226 . S
O55 Cd46 2.356 . S
O55 C53 1.282 . S
C56 O57 1.306 . S
C56 O59 1.160 . S
O57 C56 1.306 . S
O57 Cd58 2.228 1_565 S
Cd58 O57 2.228 1_545 S
Cd58 O62 2.273 1_545 S
Cd58 O66 2.277 1_545 S
O59 C56 1.160 . S
O59 Cd60 2.203 . S
Cd60 O59 2.203 . S
Cd60 O62 2.411 . S
Cd60 O63 2.333 . S
Cd60 O64 2.352 . S
Cd60 O68 2.277 . S
Cd60 O69 2.356 . S
C61 O66 1.209 . S
C61 O68 1.226 . S
O62 Cd58 2.273 1_565 S
O62 Cd60 2.411 . S
O62 C65 1.320 . S
O63 Cd60 2.333 . S
O63 C65 1.214 . S
O64 Cd60 2.352 . S
O64 C67 1.258 . S
C65 O62 1.320 . S
C65 O63 1.214 . S
O66 Cd58 2.277 1_565 S
O66 C61 1.209 . S
C67 O64 1.258 . S
C67 O69 1.282 . S
O68 Cd60 2.277 . S
O68 C61 1.226 . S
O69 Cd60 2.356 . S
O69 C67 1.282 . S
C70 O71 1.306 . S
C70 O73 1.160 . S
O71 C70 1.306 . S
O71 Cd72 2.228 . S
Cd72 O71 2.228 . S
Cd72 O76 2.273 . S
Cd72 O80 2.277 . S
O73 C70 1.160 . S
O73 Cd74 2.203 . S
Cd74 O73 2.203 . S
Cd74 O76 2.411 . S
Cd74 O77 2.333 . S
Cd74 O78 2.352 . S
Cd74 O82 2.277 . S
Cd74 O83 2.356 . S
C75 O80 1.209 . S
C75 O82 1.226 . S
O76 Cd72 2.273 . S
O76 Cd74 2.411 . S
O76 C79 1.320 . S
O77 Cd74 2.333 . S
O77 C79 1.214 . S
O78 Cd74 2.352 . S
O78 C81 1.258 . S
C79 O76 1.320 . S
C79 O77 1.214 . S
O80 Cd72 2.277 . S
O80 C75 1.209 . S
C81 O78 1.258 . S
C81 O83 1.282 . S
O82 Cd74 2.277 . S
O82 C75 1.226 . S
O83 Cd74 2.356 . S
O83 C81 1.282 . S
C84 O85 1.306 . S
C84 O87 1.160 . S
O85 C84 1.306 . S
O85 Cd86 2.228 1_565 S
Cd86 O85 2.228 1_545 S
Cd86 O90 2.273 1_545 S
Cd86 O94 2.277 1_545 S
O87 C84 1.160 . S
O87 Cd88 2.203 . S
Cd88 O87 2.203 . S
Cd88 O90 2.411 . S
Cd88 O91 2.333 . S
Cd88 O92 2.352 . S
Cd88 O96 2.277 . S
Cd88 O97 2.356 . S
C89 O94 1.209 . S
C89 O96 1.226 . S
O90 Cd86 2.273 1_565 S
O90 Cd88 2.411 . S
O90 C93 1.320 . S
O91 Cd88 2.333 . S
O91 C93 1.214 . S
O92 Cd88 2.352 . S
O92 C95 1.258 . S
C93 O90 1.320 . S
C93 O91 1.214 . S
O94 Cd86 2.277 1_565 S
O94 C89 1.209 . S
C95 O92 1.258 . S
C95 O97 1.282 . S
O96 Cd88 2.277 . S
O96 C89 1.226 . S
O97 Cd88 2.356 . S
O97 C95 1.282 . S
C98 O99 1.306 . S
C98 O101 1.160 . S
O99 C98 1.306 . S
O99 Cd100 2.228 . S
Cd100 O99 2.228 . S
Cd100 O104 2.273 . S
Cd100 O108 2.277 . S
O101 C98 1.160 . S
O101 Cd102 2.203 . S
Cd102 O101 2.203 . S
Cd102 O104 2.411 . S
Cd102 O105 2.333 . S
Cd102 O106 2.352 . S
Cd102 O110 2.277 . S
Cd102 O111 2.356 . S
C103 O108 1.209 . S
C103 O110 1.226 . S
O104 Cd100 2.273 . S
O104 Cd102 2.411 . S
O104 C107 1.320 . S
O105 Cd102 2.333 . S
O105 C107 1.214 . S
O106 Cd102 2.352 . S
O106 C109 1.258 . S
C107 O104 1.320 . S
C107 O105 1.214 . S
O108 Cd100 2.277 . S
O108 C103 1.209 . S
C109 O106 1.258 . S
C109 O111 1.282 . S
O110 Cd102 2.277 . S
O110 C103 1.226 . S
O111 Cd102 2.356 . S
O111 C109 1.282 . S
C112 O113 1.306 . S
C112 O115 1.160 . S
O113 C112 1.306 . S
O113 Cd114 2.228 1_455 S
Cd114 O113 2.228 1_655 S
Cd114 O118 2.273 1_655 S
Cd114 O122 2.277 1_655 S
O115 C112 1.160 . S
O115 Cd116 2.203 . S
Cd116 O115 2.203 . S
Cd116 O118 2.411 . S
Cd116 O119 2.333 . S
Cd116 O120 2.352 . S
Cd116 O124 2.277 . S
Cd116 O125 2.356 . S
C117 O122 1.209 . S
C117 O124 1.226 . S
O118 Cd114 2.273 1_455 S
O118 Cd116 2.411 . S
O118 C121 1.320 . S
O119 Cd116 2.333 . S
O119 C121 1.214 . S
O120 Cd116 2.352 . S
O120 C123 1.258 . S
C121 O118 1.320 . S
C121 O119 1.214 . S
O122 Cd114 2.277 1_455 S
O122 C117 1.209 . S
C123 O120 1.258 . S
C123 O125 1.282 . S
O124 Cd116 2.277 . S
O124 C117 1.226 . S
O125 Cd116 2.356 . S
O125 C123 1.282 . S
C126 O127 1.306 . S
C126 O129 1.160 . S
O127 C126 1.306 . S
O127 Cd128 2.228 1_545 S
Cd128 O127 2.228 1_565 S
Cd128 O132 2.273 1_565 S
Cd128 O136 2.277 1_565 S
O129 C126 1.160 . S
O129 Cd130 2.203 . S
Cd130 O129 2.203 . S
Cd130 O132 2.411 . S
Cd130 O133 2.333 . S
Cd130 O134 2.352 . S
Cd130 O138 2.277 . S
Cd130 O139 2.356 . S
C131 O136 1.209 . S
C131 O138 1.226 . S
O132 Cd128 2.273 1_545 S
O132 Cd130 2.411 . S
O132 C135 1.320 . S
O133 Cd130 2.333 . S
O133 C135 1.214 . S
O134 Cd130 2.352 . S
O134 C137 1.258 . S
C135 O132 1.320 . S
C135 O133 1.214 . S
O136 Cd128 2.277 1_545 S
O136 C131 1.209 . S
C137 O134 1.258 . S
C137 O139 1.282 . S
O138 Cd130 2.277 . S
O138 C131 1.226 . S
O139 Cd130 2.356 . S
O139 C137 1.282 . S
C140 O141 1.306 . S
C140 O143 1.160 . S
O141 C140 1.306 . S
O141 Cd142 2.228 . S
Cd142 O141 2.228 . S
Cd142 O146 2.273 . S
Cd142 O150 2.277 . S
O143 C140 1.160 . S
O143 Cd144 2.203 . S
Cd144 O143 2.203 . S
Cd144 O146 2.411 . S
Cd144 O147 2.333 . S
Cd144 O148 2.352 . S
Cd144 O152 2.277 . S
Cd144 O153 2.356 . S
C145 O150 1.209 . S
C145 O152 1.226 . S
O146 Cd142 2.273 . S
O146 Cd144 2.411 . S
O146 C149 1.320 . S
O147 Cd144 2.333 . S
O147 C149 1.214 . S
O148 Cd144 2.352 . S
O148 C151 1.258 . S
C149 O146 1.320 . S
C149 O147 1.214 . S
O150 Cd142 2.277 . S
O150 C145 1.209 . S
C151 O148 1.258 . S
C151 O153 1.282 . S
O152 Cd144 2.277 . S
O152 C145 1.226 . S
O153 Cd144 2.356 . S
O153 C151 1.282 . S
C154 O155 1.306 . S
C154 O157 1.160 . S
O155 C154 1.306 . S
O155 Cd156 2.228 1_655 S
Cd156 O155 2.228 1_455 S
Cd156 O160 2.273 1_455 S
Cd156 O164 2.277 1_455 S
O157 C154 1.160 . S
O157 Cd158 2.203 . S
Cd158 O157 2.203 . S
Cd158 O160 2.411 . S
Cd158 O161 2.333 . S
Cd158 O162 2.352 . S
Cd158 O166 2.277 . S
Cd158 O167 2.356 . S
C159 O164 1.209 . S
C159 O166 1.226 . S
O160 Cd156 2.273 1_655 S
O160 Cd158 2.411 . S
O160 C163 1.320 . S
O161 Cd158 2.333 . S
O161 C163 1.214 . S
O162 Cd158 2.352 . S
O162 C165 1.258 . S
C163 O160 1.320 . S
C163 O161 1.214 . S
O164 Cd156 2.277 1_655 S
O164 C159 1.209 . S
C165 O162 1.258 . S
C165 O167 1.282 . S
O166 Cd158 2.277 . S
O166 C159 1.226 . S
O167 Cd158 2.356 . S
O167 C165 1.282 . S
C168 C169 1.391 . S
C168 C170 1.394 . S
C168 H184 0.931 . S
C169 C168 1.391 . S
C169 C173 1.376 . S
C170 C168 1.394 . S
C170 C171 1.369 . S
C170 C174 1.531 . S
C171 C170 1.369 . S
C171 C172 1.410 . S
C171 C179 1.504 1_554 S
C172 C171 1.410 . S
C172 C173 1.392 . S
C172 C175 1.511 . S
C173 C169 1.376 . S
C173 C172 1.392 . S
C173 H185 0.929 . S
C174 C170 1.531 . S
C174 H186 0.960 1_554 S
C174 H187 0.937 1_455 S
C174 H188 0.960 . S
C175 C172 1.511 . S
C175 H189 0.961 1_455 S
C175 H190 0.943 1_454 S
C175 H191 0.961 . S
C176 C177 1.370 . S
C176 C178 1.363 . S
C176 H192 0.931 . S
C177 C176 1.370 . S
C177 C181 1.408 1_655 S
C178 C176 1.363 . S
C178 C179 1.368 1_655 S
C178 C182 1.524 1_556 S
C179 C171 1.504 1_556 S
C179 C178 1.368 1_455 S
C179 C180 1.404 . S
C180 C179 1.404 . S
C180 C181 1.404 . S
C180 C183 1.539 . S
C181 C177 1.408 1_455 S
C181 C180 1.404 . S
C181 H193 0.930 . S
C182 C178 1.524 1_554 S
C182 H194 0.956 . S
C182 H195 0.961 . S
C182 H196 0.961 1_554 S
C183 C180 1.539 . S
C183 H197 0.958 . S
C183 H198 0.961 . S
C183 H199 0.960 . S
H184 C168 0.931 . S
H185 C173 0.929 . S
H186 C174 0.960 1_556 S
H187 C174 0.937 1_655 S
H188 C174 0.960 . S
H189 C175 0.961 1_655 S
H190 C175 0.943 1_656 S
H191 C175 0.961 . S
H192 C176 0.931 . S
H193 C181 0.930 . S
H194 C182 0.956 . S
H195 C182 0.961 . S
H196 C182 0.961 1_556 S
H197 C183 0.958 . S
H198 C183 0.961 . S
H199 C183 0.960 . S
C200 C201 1.391 . S
C200 C202 1.394 . S
C200 H216 0.931 . S
C201 C200 1.391 . S
C201 C205 1.376 . S
C202 C200 1.394 . S
C202 C203 1.369 . S
C202 C206 1.531 . S
C203 C202 1.369 . S
C203 C204 1.410 . S
C203 C211 1.504 1_565 S
C204 C203 1.410 . S
C204 C205 1.392 . S
C204 C207 1.511 1_565 S
C205 C201 1.376 . S
C205 C204 1.392 . S
C205 H217 0.929 . S
C206 C202 1.531 . S
C206 H218 0.960 . S
C206 H219 0.962 . S
C206 H220 0.960 . S
C207 C204 1.511 1_545 S
C207 H221 0.961 . S
C207 H222 0.961 . S
C207 H223 0.961 1_545 S
C208 C209 1.370 . S
C208 C210 1.363 . S
C208 H224 0.931 . S
C209 C208 1.370 . S
C209 C213 1.408 1_545 S
C210 C208 1.363 . S
C210 C211 1.368 . S
C210 C214 1.524 . S
C211 C203 1.504 1_545 S
C211 C210 1.368 . S
C211 C212 1.405 1_545 S
C212 C211 1.405 1_565 S
C212 C213 1.404 . S
C212 C215 1.539 . S
C213 C209 1.408 1_565 S
C213 C212 1.404 . S
C213 H225 0.930 . S
C214 C210 1.524 . S
C214 H226 0.956 . S
C214 H227 0.961 . S
C214 H228 0.961 . S
C215 C212 1.539 . S
C215 H229 0.958 . S
C215 H230 0.961 . S
C215 H231 0.960 . S
H216 C200 0.931 . S
H217 C205 0.929 . S
H218 C206 0.960 . S
H219 C206 0.962 . S
H220 C206 0.960 . S
H221 C207 0.961 . S
H222 C207 0.961 . S
H223 C207 0.961 1_565 S
H224 C208 0.931 . S
H225 C213 0.930 . S
H226 C214 0.956 . S
H227 C214 0.961 . S
H228 C214 0.961 . S
H229 C215 0.958 . S
H230 C215 0.961 . S
H231 C215 0.960 . S
C232 C233 1.391 . S
C232 C234 1.394 . S
C232 H248 0.931 . S
C233 C232 1.391 . S
C233 C237 1.376 . S
C234 C232 1.394 . S
C234 C235 1.369 . S
C234 C238 1.531 . S
C235 C234 1.369 . S
C235 C236 1.410 . S
C235 C243 1.503 1_554 S
C236 C235 1.410 . S
C236 C237 1.392 . S
C236 C239 1.523 . S
C237 C233 1.376 . S
C237 C236 1.392 . S
C237 H249 0.929 . S
C238 C234 1.531 . S
C238 H250 0.960 . S
C238 H251 0.962 . S
C238 H252 0.960 . S
C239 C236 1.523 . S
C239 H253 0.968 . S
C239 H254 0.947 1_554 S
C239 H255 0.955 1_554 S
C240 C241 1.370 . S
C240 C242 1.363 . S
C240 H256 0.931 . S
C241 C240 1.370 . S
C241 C245 1.408 . S
C242 C240 1.363 . S
C242 C243 1.370 . S
C242 C246 1.524 . S
C243 C235 1.503 1_556 S
C243 C242 1.370 . S
C243 C244 1.403 . S
C244 C243 1.403 . S
C244 C245 1.404 . S
C244 C247 1.539 . S
C245 C241 1.408 . S
C245 C244 1.404 . S
C245 H257 0.930 . S
C246 C242 1.524 . S
C246 H258 0.956 1_556 S
C246 H259 0.961 1_556 S
C246 H260 0.961 . S
C247 C244 1.539 . S
C247 H261 0.958 . S
C247 H262 0.961 . S
C247 H263 0.960 . S
H248 C232 0.931 . S
H249 C237 0.929 . S
H250 C238 0.960 . S
H251 C238 0.962 . S
H252 C238 0.960 . S
H253 C239 0.968 . S
H254 C239 0.947 1_556 S
H255 C239 0.955 1_556 S
H256 C240 0.931 . S
H257 C245 0.930 . S
H258 C246 0.956 1_554 S
H259 C246 0.961 1_554 S
H260 C246 0.961 . S
H261 C247 0.958 . S
H262 C247 0.961 . S
H263 C247 0.960 . S
C264 C265 1.391 . S
C264 C266 1.394 . S
C264 H280 0.931 . S
C265 C264 1.391 . S
C265 C269 1.376 1_455 S
C266 C264 1.394 . S
C266 C267 1.369 . S
C266 C270 1.531 . S
C267 C266 1.369 . S
C267 C268 1.410 1_455 S
C267 C275 1.503 1_455 S
C268 C267 1.410 1_655 S
C268 C269 1.392 . S
C268 C271 1.511 . S
C269 C265 1.376 1_655 S
C269 C268 1.392 . S
C269 H281 0.929 . S
C270 C266 1.531 . S
C270 H282 0.960 . S
C270 H283 0.962 . S
C270 H284 0.960 . S
C271 C268 1.511 . S
C271 H285 0.961 . S
C271 H286 0.961 . S
C271 H287 0.961 . S
C272 C273 1.370 . S
C272 C274 1.363 . S
C272 H288 0.931 . S
C273 C272 1.370 . S
C273 C277 1.408 . S
C274 C272 1.363 . S
C274 C275 1.370 . S
C274 C278 1.524 . S
C275 C267 1.503 1_655 S
C275 C274 1.370 . S
C275 C276 1.403 . S
C276 C275 1.403 . S
C276 C277 1.404 . S
C276 C279 1.539 1_655 S
C277 C273 1.408 . S
C277 C276 1.404 . S
C277 H289 0.930 . S
C278 C274 1.524 . S
C278 H290 0.956 1_655 S
C278 H291 0.961 . S
C278 H292 0.961 . S
C279 C276 1.539 1_455 S
C279 H293 0.958 . S
C279 H294 0.961 1_455 S
C279 H295 0.960 1_455 S
H280 C264 0.931 . S
H281 C269 0.929 . S
H282 C270 0.960 . S
H283 C270 0.962 . S
H284 C270 0.960 . S
H285 C271 0.961 . S
H286 C271 0.961 . S
H287 C271 0.961 . S
H288 C272 0.931 . S
H289 C277 0.930 . S
H290 C278 0.956 1_455 S
H291 C278 0.961 . S
H292 C278 0.961 . S
H293 C279 0.958 . S
H294 C279 0.961 1_655 S
H295 C279 0.960 1_655 S
C296 C297 1.391 . S
C296 C298 1.394 . S
C296 H312 0.931 . S
C297 C296 1.391 . S
C297 C301 1.376 . S
C298 C296 1.394 . S
C298 C299 1.369 . S
C298 C302 1.531 . S
C299 C298 1.369 . S
C299 C300 1.410 . S
C299 C307 1.501 1_546 S
C300 C299 1.410 . S
C300 C301 1.392 . S
C300 C303 1.511 1_545 S
C301 C297 1.376 . S
C301 C300 1.392 . S
C301 H313 0.929 . S
C302 C298 1.531 . S
C302 H314 0.960 1_556 S
C302 H315 0.962 . S
C302 H316 0.960 . S
C303 C300 1.511 1_565 S
C303 H317 0.961 . S
C303 H318 0.961 . S
C303 H319 0.921 1_565 S
C304 C305 1.370 . S
C304 C306 1.363 . S
C304 H320 0.931 . S
C305 C304 1.370 . S
C305 C309 1.408 1_565 S
C306 C304 1.363 . S
C306 C307 1.379 . S
C306 C310 1.524 1_554 S
C307 C299 1.501 1_564 S
C307 C306 1.379 . S
C307 C308 1.397 1_565 S
C308 C307 1.397 1_545 S
C308 C309 1.404 . S
C308 C311 1.539 . S
C309 C305 1.408 1_545 S
C309 C308 1.404 . S
C309 H321 0.930 . S
C310 C306 1.524 1_556 S
C310 H322 0.956 . S
C310 H323 0.961 . S
C310 H324 0.961 1_556 S
C311 C308 1.539 . S
C311 H325 0.958 . S
C311 H326 0.961 . S
C311 H327 0.960 . S
H312 C296 0.931 . S
H313 C301 0.929 . S
H314 C302 0.960 1_554 S
H315 C302 0.962 . S
H316 C302 0.960 . S
H317 C303 0.961 . S
H318 C303 0.961 . S
H319 C303 0.921 1_545 S
H320 C304 0.931 . S
H321 C309 0.930 . S
H322 C310 0.956 . S
H323 C310 0.961 . S
H324 C310 0.961 1_554 S
H325 C311 0.958 . S
H326 C311 0.961 . S
H327 C311 0.960 . S
C328 C329 1.391 . S
C328 C330 1.394 . S
C328 H344 0.931 . S
C329 C328 1.391 . S
C329 C333 1.376 . S
C330 C328 1.394 . S
C330 C331 1.369 . S
C330 C334 1.531 . S
C331 C330 1.369 . S
C331 C332 1.410 . S
C331 C339 1.503 . S
C332 C331 1.410 . S
C332 C333 1.392 . S
C332 C335 1.511 . S
C333 C329 1.376 . S
C333 C332 1.392 . S
C333 H345 0.929 . S
C334 C330 1.531 . S
C334 H346 0.960 . S
C334 H347 0.962 . S
C334 H348 0.960 . S
C335 C332 1.511 . S
C335 H349 0.961 . S
C335 H350 0.961 . S
C335 H351 0.961 . S
C336 C337 1.370 . S
C336 C338 1.363 . S
C336 H352 0.931 . S
C337 C336 1.370 . S
C337 C341 1.408 . S
C338 C336 1.363 . S
C338 C339 1.370 . S
C338 C342 1.524 . S
C339 C331 1.503 . S
C339 C338 1.370 . S
C339 C340 1.403 . S
C340 C339 1.403 . S
C340 C341 1.404 . S
C340 C343 1.539 . S
C341 C337 1.408 . S
C341 C340 1.404 . S
C341 H353 0.930 . S
C342 C338 1.524 . S
C342 H354 0.956 . S
C342 H355 0.961 . S
C342 H356 0.961 . S
C343 C340 1.539 . S
C343 H357 0.958 . S
C343 H358 0.961 . S
C343 H359 0.960 . S
H344 C328 0.931 . S
H345 C333 0.929 . S
H346 C334 0.960 . S
H347 C334 0.962 . S
H348 C334 0.960 . S
H349 C335 0.961 . S
H350 C335 0.961 . S
H351 C335 0.961 . S
H352 C336 0.931 . S
H353 C341 0.930 . S
H354 C342 0.956 . S
H355 C342 0.961 . S
H356 C342 0.961 . S
H357 C343 0.958 . S
H358 C343 0.961 . S
H359 C343 0.960 . S
C360 C361 1.391 . S
C360 C362 1.394 . S
C360 H376 0.931 . S
C361 C360 1.391 . S
C361 C365 1.376 1_655 S
C362 C360 1.394 . S
C362 C363 1.369 . S
C362 C366 1.531 . S
C363 C362 1.369 . S
C363 C364 1.410 1_655 S
C363 C371 1.503 1_656 S
C364 C363 1.410 1_455 S
C364 C365 1.392 . S
C364 C367 1.511 . S
C365 C361 1.376 1_455 S
C365 C364 1.392 . S
C365 H377 0.929 . S
C366 C362 1.531 . S
C366 H378 0.960 1_556 S
C366 H379 0.962 1_556 S
C366 H380 0.960 . S
C367 C364 1.511 . S
C367 H381 0.961 . S
C367 H382 0.961 . S
C367 H383 0.961 . S
C368 C369 1.370 . S
C368 C370 1.364 . S
C368 H384 0.931 . S
C369 C368 1.370 . S
C369 C373 1.408 . S
C370 C368 1.364 . S
C370 C371 1.372 . S
C370 C374 1.522 1_455 S
C371 C363 1.503 1_454 S
C371 C370 1.372 . S
C371 C372 1.403 . S
C372 C371 1.403 . S
C372 C373 1.404 . S
C372 C375 1.539 . S
C373 C369 1.408 . S
C373 C372 1.404 . S
C373 H385 0.930 . S
C374 C370 1.522 1_655 S
C374 H386 0.956 . S
C374 H387 0.961 1_554 S
C374 H388 0.961 . S
C375 C372 1.539 . S
C375 H389 0.958 . S
C375 H390 0.961 . S
C375 H391 0.960 1_554 S
H376 C360 0.931 . S
H377 C365 0.929 . S
H378 C366 0.960 1_554 S
H379 C366 0.962 1_554 S
H380 C366 0.960 . S
H381 C367 0.961 . S
H382 C367 0.961 . S
H383 C367 0.961 . S
H384 C368 0.931 . S
H385 C373 0.930 . S
H386 C374 0.956 . S
H387 C374 0.961 1_556 S
H388 C374 0.961 . S
H389 C375 0.958 . S
H390 C375 0.961 . S
H391 C375 0.960 1_556 S
C392 C393 1.391 . S
C392 C394 1.394 . S
C392 H408 0.931 . S
C393 C392 1.391 . S
C393 C397 1.376 . S
C394 C392 1.394 . S
C394 C395 1.369 1_565 S
C394 C398 1.531 . S
C395 C394 1.369 1_545 S
C395 C396 1.410 . S
C395 C403 1.503 . S
C396 C395 1.410 . S
C396 C397 1.392 1_545 S
C396 C399 1.511 . S
C397 C393 1.376 . S
C397 C396 1.392 1_565 S
C397 H409 0.929 1_565 S
C398 C394 1.531 . S
C398 H410 0.960 . S
C398 H411 0.962 . S
C398 H412 0.960 . S
C399 C396 1.511 . S
C399 H413 0.961 . S
C399 H414 0.961 . S
C399 H415 0.961 . S
C400 C401 1.370 1_565 S
C400 C402 1.363 . S
C400 H416 0.931 . S
C401 C400 1.370 1_545 S
C401 C405 1.408 . S
C402 C400 1.363 . S
C402 C403 1.370 1_565 S
C402 C406 1.524 . S
C403 C395 1.503 . S
C403 C402 1.370 1_545 S
C403 C404 1.403 . S
C404 C403 1.403 . S
C404 C405 1.404 . S
C404 C407 1.539 . S
C405 C401 1.408 . S
C405 C404 1.404 . S
C405 H417 0.930 . S
C406 C402 1.524 . S
C406 H418 0.956 . S
C406 H419 0.961 . S
C406 H420 0.961 . S
C407 C404 1.539 . S
C407 H421 0.958 . S
C407 H422 0.961 . S
C407 H423 0.960 . S
H408 C392 0.931 . S
H409 C397 0.929 1_545 S
H410 C398 0.960 . S
H411 C398 0.962 . S
H412 C398 0.960 . S
H413 C399 0.961 . S
H414 C399 0.961 . S
H415 C399 0.961 . S
H416 C400 0.931 . S
H417 C405 0.930 . S
H418 C406 0.956 . S
H419 C406 0.961 . S
H420 C406 0.961 . S
H421 C407 0.958 . S
H422 C407 0.961 . S
H423 C407 0.960 . S
C424 C425 1.391 . S
C424 C426 1.394 . S
C424 H440 0.931 . S
C425 C424 1.391 . S
C425 C429 1.376 . S
C426 C424 1.394 . S
C426 C427 1.369 . S
C426 C430 1.531 . S
C427 C426 1.369 . S
C427 C428 1.410 . S
C427 C435 1.503 1_556 S
C428 C427 1.410 . S
C428 C429 1.392 . S
C428 C431 1.511 . S
C429 C425 1.376 . S
C429 C428 1.392 . S
C429 H441 0.929 . S
C430 C426 1.531 . S
C430 H442 0.960 1_556 S
C430 H443 0.962 1_556 S
C430 H444 0.960 . S
C431 C428 1.511 . S
C431 H445 0.961 . S
C431 H446 0.961 . S
C431 H447 0.961 . S
C432 C433 1.370 . S
C432 C434 1.363 . S
C432 H448 0.931 . S
C433 C432 1.370 . S
C433 C437 1.408 . S
C434 C432 1.363 . S
C434 C435 1.370 . S
C434 C438 1.524 . S
C435 C427 1.503 1_554 S
C435 C434 1.370 . S
C435 C436 1.403 . S
C436 C435 1.403 . S
C436 C437 1.404 . S
C436 C439 1.539 . S
C437 C433 1.408 . S
C437 C436 1.404 . S
C437 H449 0.930 . S
C438 C434 1.524 . S
C438 H450 0.956 . S
C438 H451 0.961 . S
C438 H452 0.961 . S
C439 C436 1.539 . S
C439 H453 0.958 . S
C439 H454 0.961 . S
C439 H455 0.960 1_554 S
H440 C424 0.931 . S
H441 C429 0.929 . S
H442 C430 0.960 1_554 S
H443 C430 0.962 1_554 S
H444 C430 0.960 . S
H445 C431 0.961 . S
H446 C431 0.961 . S
H447 C431 0.961 . S
H448 C432 0.931 . S
H449 C437 0.930 . S
H450 C438 0.956 . S
H451 C438 0.961 . S
H452 C438 0.961 . S
H453 C439 0.958 . S
H454 C439 0.961 . S
H455 C439 0.960 1_556 S
C456 C457 1.391 . S
C456 C458 1.394 . S
C456 H472 0.931 . S
C457 C456 1.391 . S
C457 C461 1.376 . S
C458 C456 1.394 . S
C458 C459 1.369 . S
C458 C462 1.531 . S
C459 C458 1.369 . S
C459 C460 1.410 . S
C459 C467 1.508 . S
C460 C459 1.410 . S
C460 C461 1.392 . S
C460 C463 1.511 . S
C461 C457 1.376 . S
C461 C460 1.392 . S
C461 H473 0.929 . S
C462 C458 1.531 . S
C462 H474 0.960 . S
C462 H475 0.962 1_655 S
C462 H476 0.960 . S
C463 C460 1.511 . S
C463 H477 0.961 1_655 S
C463 H478 0.961 1_655 S
C463 H479 0.961 . S
C464 C465 1.370 . S
C464 C466 1.363 . S
C464 H480 0.931 . S
C465 C464 1.370 . S
C465 C469 1.408 1_455 S
C466 C464 1.363 . S
C466 C467 1.356 1_455 S
C466 C470 1.524 . S
C467 C459 1.508 . S
C467 C466 1.356 1_655 S
C467 C468 1.413 . S
C468 C467 1.413 . S
C468 C469 1.404 . S
C468 C471 1.539 . S
C469 C465 1.408 1_655 S
C469 C468 1.404 . S
C469 H481 0.930 . S
C470 C466 1.524 . S
C470 H482 0.956 . S
C470 H483 0.961 . S
C470 H484 0.961 . S
C471 C468 1.539 . S
C471 H485 0.958 . S
C471 H486 0.961 . S
C471 H487 0.960 . S
H472 C456 0.931 . S
H473 C461 0.929 . S
H474 C462 0.960 . S
H475 C462 0.962 1_455 S
H476 C462 0.960 . S
H477 C463 0.961 1_455 S
H478 C463 0.961 1_455 S
H479 C463 0.961 . S
H480 C464 0.931 . S
H481 C469 0.930 . S
H482 C470 0.956 . S
H483 C470 0.961 . S
H484 C470 0.961 . S
H485 C471 0.958 . S
H486 C471 0.961 . S
H487 C471 0.960 . S
C488 C489 1.391 . S
C488 C490 1.394 . S
C488 H504 0.931 . S
C489 C488 1.391 . S
C489 C493 1.376 1_545 S
C490 C488 1.394 . S
C490 C491 1.369 . S
C490 C494 1.531 . S
C491 C490 1.369 . S
C491 C492 1.410 1_545 S
C491 C499 1.503 1_546 S
C492 C491 1.410 1_565 S
C492 C493 1.392 . S
C492 C495 1.511 . S
C493 C489 1.376 1_565 S
C493 C492 1.392 . S
C493 H505 0.929 . S
C494 C490 1.531 . S
C494 H506 0.959 1_556 S
C494 H507 0.962 1_556 S
C494 H508 0.961 . S
C495 C492 1.511 . S
C495 H509 0.961 . S
C495 H510 0.961 . S
C495 H511 0.961 . S
C496 C497 1.370 . S
C496 C498 1.363 . S
C496 H512 0.931 . S
C497 C496 1.370 . S
C497 C501 1.408 . S
C498 C496 1.363 . S
C498 C499 1.370 . S
C498 C502 1.524 . S
C499 C491 1.503 1_564 S
C499 C498 1.370 . S
C499 C500 1.403 1_565 S
C500 C499 1.403 1_545 S
C500 C501 1.404 1_545 S
C500 C503 1.539 . S
C501 C497 1.408 . S
C501 C500 1.404 1_565 S
C501 H513 0.930 . S
C502 C498 1.524 . S
C502 H514 0.956 . S
C502 H515 0.961 1_554 S
C502 H516 0.961 . S
C503 C500 1.539 . S
C503 H517 0.958 . S
C503 H518 0.961 . S
C503 H519 0.960 . S
H504 C488 0.931 . S
H505 C493 0.929 . S
H506 C494 0.959 1_554 S
H507 C494 0.962 1_554 S
H508 C494 0.961 . S
H509 C495 0.961 . S
H510 C495 0.961 . S
H511 C495 0.961 . S
H512 C496 0.931 . S
H513 C501 0.930 . S
H514 C502 0.956 . S
H515 C502 0.961 1_556 S
H516 C502 0.961 . S
H517 C503 0.958 . S
H518 C503 0.961 . S
H519 C503 0.960 . S
C520 C521 1.391 . S
C520 C522 1.394 . S
C520 H536 0.931 . S
C521 C520 1.391 . S
C521 C525 1.376 . S
C522 C520 1.394 . S
C522 C523 1.369 . S
C522 C526 1.531 . S
C523 C522 1.369 . S
C523 C524 1.410 . S
C523 C531 1.503 . S
C524 C523 1.410 . S
C524 C525 1.392 . S
C524 C527 1.511 . S
C525 C521 1.376 . S
C525 C524 1.392 . S
C525 H537 0.929 . S
C526 C522 1.531 . S
C526 H538 0.960 . S
C526 H539 0.962 . S
C526 H540 0.960 . S
C527 C524 1.511 . S
C527 H541 0.961 . S
C527 H542 0.961 . S
C527 H543 0.961 . S
C528 C529 1.370 . S
C528 C530 1.363 . S
C528 H544 0.931 . S
C529 C528 1.370 . S
C529 C533 1.408 . S
C530 C528 1.363 . S
C530 C531 1.370 . S
C530 C534 1.524 . S
C531 C523 1.503 . S
C531 C530 1.370 . S
C531 C532 1.403 . S
C532 C531 1.403 . S
C532 C533 1.404 . S
C532 C535 1.539 . S
C533 C529 1.408 . S
C533 C532 1.404 . S
C533 H545 0.930 . S
C534 C530 1.524 . S
C534 H546 0.956 . S
C534 H547 0.961 . S
C534 H548 0.961 . S
C535 C532 1.539 . S
C535 H549 0.958 . S
C535 H550 0.961 . S
C535 H551 0.960 . S
H536 C520 0.931 . S
H537 C525 0.929 . S
H538 C526 0.960 . S
H539 C526 0.962 . S
H540 C526 0.960 . S
H541 C527 0.961 . S
H542 C527 0.961 . S
H543 C527 0.961 . S
H544 C528 0.931 . S
H545 C533 0.930 . S
H546 C534 0.956 . S
H547 C534 0.961 . S
H548 C534 0.961 . S
H549 C535 0.958 . S
H550 C535 0.961 . S
H551 C535 0.960 . S
C552 C553 1.391 . S
C552 C554 1.394 . S
C552 H568 0.931 . S
C553 C552 1.391 . S
C553 C557 1.376 . S
C554 C552 1.394 . S
C554 C555 1.369 . S
C554 C558 1.531 . S
C555 C554 1.369 . S
C555 C556 1.410 . S
C555 C563 1.503 . S
C556 C555 1.410 . S
C556 C557 1.392 . S
C556 C559 1.511 . S
C557 C553 1.376 . S
C557 C556 1.392 . S
C557 H569 0.929 . S
C558 C554 1.531 . S
C558 H570 0.960 . S
C558 H571 0.962 . S
C558 H572 0.960 . S
C559 C556 1.511 . S
C559 H573 0.961 . S
C559 H574 0.961 . S
C559 H575 0.961 . S
C560 C561 1.370 . S
C560 C562 1.363 . S
C560 H576 0.931 . S
C561 C560 1.370 . S
C561 C565 1.408 . S
C562 C560 1.363 . S
C562 C563 1.370 . S
C562 C566 1.524 . S
C563 C555 1.503 . S
C563 C562 1.370 . S
C563 C564 1.403 . S
C564 C563 1.403 . S
C564 C565 1.404 . S
C564 C567 1.539 . S
C565 C561 1.408 . S
C565 C564 1.404 . S
C565 H577 0.930 . S
C566 C562 1.524 . S
C566 H578 0.956 1_455 S
C566 H579 0.961 . S
C566 H580 0.961 1_455 S
C567 C564 1.539 . S
C567 H581 0.958 . S
C567 H582 0.961 . S
C567 H583 0.960 . S
H568 C552 0.931 . S
H569 C557 0.929 . S
H570 C558 0.960 . S
H571 C558 0.962 . S
H572 C558 0.960 . S
H573 C559 0.961 . S
H574 C559 0.961 . S
H575 C559 0.961 . S
H576 C560 0.931 . S
H577 C565 0.930 . S
H578 C566 0.956 1_655 S
H579 C566 0.961 . S
H580 C566 0.961 1_655 S
H581 C567 0.958 . S
H582 C567 0.961 . S
H583 C567 0.960 . S
C584 C585 1.391 . S
C584 C586 1.394 . S
C584 H600 0.931 . S
C585 C584 1.391 . S
C585 C589 1.376 . S
C586 C584 1.394 . S
C586 C587 1.369 . S
C586 C590 1.531 . S
C587 C586 1.369 . S
C587 C588 1.410 . S
C587 C595 1.503 . S
C588 C587 1.410 . S
C588 C589 1.392 . S
C588 C591 1.511 . S
C589 C585 1.376 . S
C589 C588 1.392 . S
C589 H601 0.929 . S
C590 C586 1.531 . S
C590 H602 0.960 . S
C590 H603 0.962 . S
C590 H604 0.960 . S
C591 C588 1.511 . S
C591 H605 0.961 1_545 S
C591 H606 0.961 . S
C591 H607 0.961 . S
C592 C593 1.370 . S
C592 C594 1.363 . S
C592 H608 0.931 . S
C593 C592 1.370 . S
C593 C597 1.408 . S
C594 C592 1.363 . S
C594 C595 1.370 . S
C594 C598 1.524 . S
C595 C587 1.503 . S
C595 C594 1.370 . S
C595 C596 1.403 . S
C596 C595 1.403 . S
C596 C597 1.404 . S
C596 C599 1.539 . S
C597 C593 1.408 . S
C597 C596 1.404 . S
C597 H609 0.930 . S
C598 C594 1.524 . S
C598 H610 0.956 . S
C598 H611 0.961 . S
C598 H612 0.961 . S
C599 C596 1.539 . S
C599 H613 0.958 . S
C599 H614 0.961 . S
C599 H615 0.960 . S
H600 C584 0.931 . S
H601 C589 0.929 . S
H602 C590 0.960 . S
H603 C590 0.962 . S
H604 C590 0.960 . S
H605 C591 0.961 1_565 S
H606 C591 0.961 . S
H607 C591 0.961 . S
H608 C592 0.931 . S
H609 C597 0.930 . S
H610 C598 0.956 . S
H611 C598 0.961 . S
H612 C598 0.961 . S
H613 C599 0.958 . S
H614 C599 0.961 . S
H615 C599 0.960 . S
C616 C617 1.391 . S
C616 C618 1.394 . S
C616 H632 0.931 . S
C617 C616 1.391 . S
C617 C621 1.376 . S
C618 C616 1.394 . S
C618 C619 1.369 . S
C618 C622 1.531 . S
C619 C618 1.369 . S
C619 C620 1.410 . S
C619 C627 1.503 . S
C620 C619 1.410 . S
C620 C621 1.392 . S
C620 C623 1.511 . S
C621 C617 1.376 . S
C621 C620 1.392 . S
C621 H633 0.929 . S
C622 C618 1.531 . S
C622 H634 0.960 . S
C622 H635 0.962 . S
C622 H636 0.960 . S
C623 C620 1.511 . S
C623 H637 0.961 . S
C623 H638 0.961 . S
C623 H639 0.961 . S
C624 C625 1.370 . S
C624 C626 1.363 . S
C624 H640 0.931 . S
C625 C624 1.370 . S
C625 C629 1.408 . S
C626 C624 1.363 . S
C626 C627 1.370 . S
C626 C630 1.524 . S
C627 C619 1.503 . S
C627 C626 1.370 . S
C627 C628 1.403 . S
C628 C627 1.403 . S
C628 C629 1.404 . S
C628 C631 1.539 . S
C629 C625 1.408 . S
C629 C628 1.404 . S
C629 H641 0.930 . S
C630 C626 1.524 . S
C630 H642 0.956 . S
C630 H643 0.961 . S
C630 H644 0.961 . S
C631 C628 1.539 . S
C631 H645 0.958 . S
C631 H646 0.961 . S
C631 H647 0.960 . S
H632 C616 0.931 . S
H633 C621 0.929 . S
H634 C622 0.960 . S
H635 C622 0.962 . S
H636 C622 0.960 . S
H637 C623 0.961 . S
H638 C623 0.961 . S
H639 C623 0.961 . S
H640 C624 0.931 . S
H641 C629 0.930 . S
H642 C630 0.956 . S
H643 C630 0.961 . S
H644 C630 0.961 . S
H645 C631 0.958 . S
H646 C631 0.961 . S
H647 C631 0.960 . S
C648 C649 1.391 . S
C648 C650 1.394 . S
C648 H664 0.931 . S
C649 C648 1.391 . S
C649 C653 1.376 . S
C650 C648 1.394 . S
C650 C651 1.369 . S
C650 C654 1.531 . S
C651 C650 1.369 . S
C651 C652 1.410 . S
C651 C659 1.503 . S
C652 C651 1.410 . S
C652 C653 1.392 . S
C652 C655 1.511 1_655 S
C653 C649 1.376 . S
C653 C652 1.392 . S
C653 H665 0.929 . S
C654 C650 1.531 . S
C654 H666 0.960 . S
C654 H667 0.962 . S
C654 H668 0.960 . S
C655 C652 1.511 1_455 S
C655 H669 0.961 . S
C655 H670 0.961 . S
C655 H671 0.961 . S
C656 C657 1.370 . S
C656 C658 1.363 . S
C656 H672 0.931 . S
C657 C656 1.370 . S
C657 C661 1.408 . S
C658 C656 1.363 . S
C658 C659 1.370 . S
C658 C662 1.524 . S
C659 C651 1.503 . S
C659 C658 1.370 . S
C659 C660 1.403 . S
C660 C659 1.403 . S
C660 C661 1.404 . S
C660 C663 1.539 . S
C661 C657 1.408 . S
C661 C660 1.404 . S
C661 H673 0.930 . S
C662 C658 1.524 . S
C662 H674 0.956 . S
C662 H675 0.961 . S
C662 H676 0.961 . S
C663 C660 1.539 . S
C663 H677 0.958 . S
C663 H678 0.961 . S
C663 H679 0.960 . S
H664 C648 0.931 . S
H665 C653 0.929 . S
H666 C654 0.960 . S
H667 C654 0.962 . S
H668 C654 0.960 . S
H669 C655 0.961 . S
H670 C655 0.961 . S
H671 C655 0.961 . S
H672 C656 0.931 . S
H673 C661 0.930 . S
H674 C662 0.956 . S
H675 C662 0.961 . S
H676 C662 0.961 . S
H677 C663 0.958 . S
H678 C663 0.961 . S
H679 C663 0.960 . S
C680 C681 1.391 . S
C680 C682 1.394 . S
C680 H696 0.931 . S
C681 C680 1.391 . S
C681 C685 1.376 . S
C682 C680 1.394 . S
C682 C683 1.369 . S
C682 C686 1.531 . S
C683 C682 1.369 . S
C683 C684 1.410 . S
C683 C691 1.503 . S
C684 C683 1.410 . S
C684 C685 1.392 . S
C684 C687 1.511 . S
C685 C681 1.376 . S
C685 C684 1.392 . S
C685 H697 0.929 . S
C686 C682 1.531 . S
C686 H698 0.960 . S
C686 H699 0.962 . S
C686 H700 0.960 . S
C687 C684 1.511 . S
C687 H701 0.961 . S
C687 H702 0.961 . S
C687 H703 0.961 . S
C688 C689 1.370 . S
C688 C690 1.363 . S
C688 H704 0.931 . S
C689 C688 1.370 . S
C689 C693 1.408 . S
C690 C688 1.363 . S
C690 C691 1.370 . S
C690 C694 1.524 . S
C691 C683 1.503 . S
C691 C690 1.370 . S
C691 C692 1.403 . S
C692 C691 1.403 . S
C692 C693 1.404 . S
C692 C695 1.539 1_565 S
C693 C689 1.408 . S
C693 C692 1.404 . S
C693 H705 0.930 . S
C694 C690 1.524 . S
C694 H706 0.956 . S
C694 H707 0.961 . S
C694 H708 0.961 . S
C695 C692 1.539 1_545 S
C695 H709 0.958 . S
C695 H710 0.961 . S
C695 H711 0.970 1_545 S
H696 C680 0.931 . S
H697 C685 0.929 . S
H698 C686 0.960 . S
H699 C686 0.962 . S
H700 C686 0.960 . S
H701 C687 0.961 . S
H702 C687 0.961 . S
H703 C687 0.961 . S
H704 C688 0.931 . S
H705 C693 0.930 . S
H706 C694 0.956 . S
H707 C694 0.961 . S
H708 C694 0.961 . S
H709 C695 0.958 . S
H710 C695 0.961 . S
H711 C695 0.970 1_565 S
C712 C713 1.391 . S
C712 C714 1.394 . S
C712 H728 0.931 . S
C713 C712 1.391 . S
C713 C717 1.376 . S
C714 C712 1.394 . S
C714 C715 1.369 . S
C714 C718 1.531 . S
C715 C714 1.369 . S
C715 C716 1.410 . S
C715 C723 1.503 . S
C716 C715 1.410 . S
C716 C717 1.392 . S
C716 C719 1.511 . S
C717 C713 1.376 . S
C717 C716 1.392 . S
C717 H729 0.929 . S
C718 C714 1.531 . S
C718 H730 0.960 . S
C718 H731 0.962 . S
C718 H732 0.960 . S
C719 C716 1.511 . S
C719 H733 0.961 . S
C719 H734 0.961 . S
C719 H735 0.961 . S
C720 C721 1.370 . S
C720 C722 1.363 . S
C720 H736 0.931 . S
C721 C720 1.370 . S
C721 C725 1.408 . S
C722 C720 1.363 . S
C722 C723 1.370 . S
C722 C726 1.524 . S
C723 C715 1.503 . S
C723 C722 1.370 . S
C723 C724 1.403 . S
C724 C723 1.403 . S
C724 C725 1.404 . S
C724 C727 1.539 . S
C725 C721 1.408 . S
C725 C724 1.404 . S
C725 H737 0.930 . S
C726 C722 1.524 . S
C726 H738 0.956 . S
C726 H739 0.961 . S
C726 H740 0.961 . S
C727 C724 1.539 . S
C727 H741 0.958 . S
C727 H742 0.961 . S
C727 H743 0.960 . S
H728 C712 0.931 . S
H729 C717 0.929 . S
H730 C718 0.960 . S
H731 C718 0.962 . S
H732 C718 0.960 . S
H733 C719 0.961 . S
H734 C719 0.961 . S
H735 C719 0.961 . S
H736 C720 0.931 . S
H737 C725 0.930 . S
H738 C726 0.956 . S
H739 C726 0.961 . S
H740 C726 0.961 . S
H741 C727 0.958 . S
H742 C727 0.961 . S
H743 C727 0.960 . S
C744 C745 1.391 . S
C744 C746 1.394 . S
C744 H760 0.931 . S
C745 C744 1.391 . S
C745 C749 1.376 . S
C746 C744 1.394 . S
C746 C747 1.369 . S
C746 C750 1.531 . S
C747 C746 1.369 . S
C747 C748 1.410 . S
C747 C755 1.503 . S
C748 C747 1.410 . S
C748 C749 1.392 . S
C748 C751 1.511 . S
C749 C745 1.376 . S
C749 C748 1.392 . S
C749 H761 0.929 . S
C750 C746 1.531 . S
C750 H762 0.960 . S
C750 H763 0.962 . S
C750 H764 0.960 . S
C751 C748 1.511 . S
C751 H765 0.961 . S
C751 H766 0.961 . S
C751 H767 0.961 . S
C752 C753 1.370 . S
C752 C754 1.363 . S
C752 H768 0.931 . S
C753 C752 1.370 . S
C753 C757 1.408 . S
C754 C752 1.363 . S
C754 C755 1.370 . S
C754 C758 1.524 . S
C755 C747 1.503 . S
C755 C754 1.370 . S
C755 C756 1.403 . S
C756 C755 1.403 . S
C756 C757 1.404 . S
C756 C759 1.539 . S
C757 C753 1.408 . S
C757 C756 1.404 . S
C757 H769 0.930 . S
C758 C754 1.524 . S
C758 H770 0.956 . S
C758 H771 0.961 . S
C758 H772 0.961 . S
C759 C756 1.539 . S
C759 H773 0.958 . S
C759 H774 0.961 . S
C759 H775 0.960 . S
H760 C744 0.931 . S
H761 C749 0.929 . S
H762 C750 0.960 . S
H763 C750 0.962 . S
H764 C750 0.960 . S
H765 C751 0.961 . S
H766 C751 0.961 . S
H767 C751 0.961 . S
H768 C752 0.931 . S
H769 C757 0.930 . S
H770 C758 0.956 . S
H771 C758 0.961 . S
H772 C758 0.961 . S
H773 C759 0.958 . S
H774 C759 0.961 . S
H775 C759 0.960 . S
C776 C777 1.391 . S
C776 C778 1.394 . S
C776 H792 0.931 . S
C777 C776 1.391 . S
C777 C781 1.376 . S
C778 C776 1.394 . S
C778 C779 1.369 . S
C778 C782 1.531 . S
C779 C778 1.369 . S
C779 C780 1.410 . S
C779 C787 1.503 . S
C780 C779 1.410 . S
C780 C781 1.392 . S
C780 C783 1.511 . S
C781 C777 1.376 . S
C781 C780 1.392 . S
C781 H793 0.929 . S
C782 C778 1.531 . S
C782 H794 0.960 . S
C782 H795 0.962 . S
C782 H796 0.960 . S
C783 C780 1.511 . S
C783 H797 0.961 . S
C783 H798 0.961 . S
C783 H799 0.961 . S
C784 C785 1.370 . S
C784 C786 1.363 . S
C784 H800 0.931 . S
C785 C784 1.370 . S
C785 C789 1.408 . S
C786 C784 1.363 . S
C786 C787 1.370 . S
C786 C790 1.524 . S
C787 C779 1.503 . S
C787 C786 1.370 . S
C787 C788 1.403 . S
C788 C787 1.403 . S
C788 C789 1.404 . S
C788 C791 1.539 . S
C789 C785 1.408 . S
C789 C788 1.404 . S
C789 H801 0.930 . S
C790 C786 1.524 . S
C790 H802 0.956 . S
C790 H803 0.961 . S
C790 H804 0.961 . S
C791 C788 1.539 . S
C791 H805 0.958 . S
C791 H806 0.961 . S
C791 H807 0.960 . S
H792 C776 0.931 . S
H793 C781 0.929 . S
H794 C782 0.960 . S
H795 C782 0.962 . S
H796 C782 0.960 . S
H797 C783 0.961 . S
H798 C783 0.961 . S
H799 C783 0.961 . S
H800 C784 0.931 . S
H801 C789 0.930 . S
H802 C790 0.956 . S
H803 C790 0.961 . S
H804 C790 0.961 . S
H805 C791 0.958 . S
H806 C791 0.961 . S
H807 C791 0.960 . S
C808 C809 1.391 . S
C808 C810 1.394 . S
C808 H824 0.931 . S
C809 C808 1.391 . S
C809 C813 1.376 . S
C810 C808 1.394 . S
C810 C811 1.369 . S
C810 C814 1.531 . S
C811 C810 1.369 . S
C811 C812 1.410 . S
C811 C819 1.503 . S
C812 C811 1.410 . S
C812 C813 1.392 . S
C812 C815 1.511 . S
C813 C809 1.376 . S
C813 C812 1.392 . S
C813 H825 0.929 . S
C814 C810 1.531 . S
C814 H826 0.960 . S
C814 H827 0.962 . S
C814 H828 0.960 . S
C815 C812 1.511 . S
C815 H829 0.961 . S
C815 H830 0.961 . S
C815 H831 0.961 . S
C816 C817 1.370 . S
C816 C818 1.363 . S
C816 H832 0.931 . S
C817 C816 1.370 . S
C817 C821 1.408 . S
C818 C816 1.363 . S
C818 C819 1.370 . S
C818 C822 1.524 . S
C819 C811 1.503 . S
C819 C818 1.370 . S
C819 C820 1.403 . S
C820 C819 1.403 . S
C820 C821 1.404 . S
C820 C823 1.539 . S
C821 C817 1.408 . S
C821 C820 1.404 . S
C821 H833 0.930 . S
C822 C818 1.524 . S
C822 H834 0.956 . S
C822 H835 0.961 . S
C822 H836 0.961 . S
C823 C820 1.539 . S
C823 H837 0.958 . S
C823 H838 0.961 . S
C823 H839 0.960 . S
H824 C808 0.931 . S
H825 C813 0.929 . S
H826 C814 0.960 . S
H827 C814 0.962 . S
H828 C814 0.960 . S
H829 C815 0.961 . S
H830 C815 0.961 . S
H831 C815 0.961 . S
H832 C816 0.931 . S
H833 C821 0.930 . S
H834 C822 0.956 . S
H835 C822 0.961 . S
H836 C822 0.961 . S
H837 C823 0.958 . S
H838 C823 0.961 . S
H839 C823 0.960 . S
C840 C841 1.391 . S
C840 C842 1.394 . S
C840 H856 0.931 . S
C841 C840 1.391 . S
C841 C845 1.376 . S
C842 C840 1.394 . S
C842 C843 1.369 . S
C842 C846 1.531 . S
C843 C842 1.369 . S
C843 C844 1.410 . S
C843 C851 1.503 . S
C844 C843 1.410 . S
C844 C845 1.392 . S
C844 C847 1.511 . S
C845 C841 1.376 . S
C845 C844 1.392 . S
C845 H857 0.929 . S
C846 C842 1.531 . S
C846 H858 0.960 . S
C846 H859 0.962 . S
C846 H860 0.960 . S
C847 C844 1.511 . S
C847 H861 0.961 . S
C847 H862 0.961 . S
C847 H863 0.961 . S
C848 C849 1.370 . S
C848 C850 1.363 . S
C848 H864 0.931 . S
C849 C848 1.370 . S
C849 C853 1.408 . S
C850 C848 1.363 . S
C850 C851 1.370 . S
C850 C854 1.524 . S
C851 C843 1.503 . S
C851 C850 1.370 . S
C851 C852 1.403 . S
C852 C851 1.403 . S
C852 C853 1.404 . S
C852 C855 1.539 . S
C853 C849 1.408 . S
C853 C852 1.404 . S
C853 H865 0.930 . S
C854 C850 1.524 . S
C854 H866 0.956 . S
C854 H867 0.961 . S
C854 H868 0.961 . S
C855 C852 1.539 . S
C855 H869 0.958 . S
C855 H870 0.961 . S
C855 H871 0.960 . S
H856 C840 0.931 . S
H857 C845 0.929 . S
H858 C846 0.960 . S
H859 C846 0.962 . S
H860 C846 0.960 . S
H861 C847 0.961 . S
H862 C847 0.961 . S
H863 C847 0.961 . S
H864 C848 0.931 . S
H865 C853 0.930 . S
H866 C854 0.956 . S
H867 C854 0.961 . S
H868 C854 0.961 . S
H869 C855 0.958 . S
H870 C855 0.961 . S
H871 C855 0.960 . S
C872 C873 1.391 . S
C872 C874 1.394 . S
C872 H888 0.931 . S
C873 C872 1.391 . S
C873 C877 1.376 . S
C874 C872 1.394 . S
C874 C875 1.369 . S
C874 C878 1.531 . S
C875 C874 1.369 . S
C875 C876 1.410 . S
C875 C883 1.503 . S
C876 C875 1.410 . S
C876 C877 1.392 . S
C876 C879 1.511 . S
C877 C873 1.376 . S
C877 C876 1.392 . S
C877 H889 0.929 . S
C878 C874 1.531 . S
C878 H890 0.960 . S
C878 H891 0.962 . S
C878 H892 0.960 . S
C879 C876 1.511 . S
C879 H893 0.961 . S
C879 H894 0.961 . S
C879 H895 0.961 . S
C880 C881 1.370 . S
C880 C882 1.363 . S
C880 H896 0.931 . S
C881 C880 1.370 . S
C881 C885 1.408 . S
C882 C880 1.363 . S
C882 C883 1.370 . S
C882 C886 1.524 . S
C883 C875 1.503 . S
C883 C882 1.370 . S
C883 C884 1.403 . S
C884 C883 1.403 . S
C884 C885 1.404 . S
C884 C887 1.539 . S
C885 C881 1.408 . S
C885 C884 1.404 . S
C885 H897 0.930 . S
C886 C882 1.524 . S
C886 H898 0.956 . S
C886 H899 0.961 . S
C886 H900 0.961 . S
C887 C884 1.539 . S
C887 H901 0.958 . S
C887 H902 0.961 . S
C887 H903 0.960 . S
H888 C872 0.931 . S
H889 C877 0.929 . S
H890 C878 0.960 . S
H891 C878 0.962 . S
H892 C878 0.960 . S
H893 C879 0.961 . S
H894 C879 0.961 . S
H895 C879 0.961 . S
H896 C880 0.931 . S
H897 C885 0.930 . S
H898 C886 0.956 . S
H899 C886 0.961 . S
H900 C886 0.961 . S
H901 C887 0.958 . S
H902 C887 0.961 . S
H903 C887 0.960 . S
C904 C905 1.391 . S
C904 C906 1.394 . S
C904 H920 0.931 . S
C905 C904 1.391 . S
C905 C909 1.376 . S
C906 C904 1.394 . S
C906 C907 1.369 . S
C906 C910 1.531 . S
C907 C906 1.369 . S
C907 C908 1.410 . S
C907 C915 1.503 . S
C908 C907 1.410 . S
C908 C909 1.392 . S
C908 C911 1.511 . S
C909 C905 1.376 . S
C909 C908 1.392 . S
C909 H921 0.929 . S
C910 C906 1.531 . S
C910 H922 0.960 . S
C910 H923 0.962 . S
C910 H924 0.960 . S
C911 C908 1.511 . S
C911 H925 0.961 . S
C911 H926 0.961 . S
C911 H927 0.961 . S
C912 C913 1.370 . S
C912 C914 1.363 . S
C912 H928 0.931 . S
C913 C912 1.370 . S
C913 C917 1.408 . S
C914 C912 1.363 . S
C914 C915 1.370 . S
C914 C918 1.524 . S
C915 C907 1.503 . S
C915 C914 1.370 . S
C915 C916 1.403 . S
C916 C915 1.403 . S
C916 C917 1.404 . S
C916 C919 1.539 . S
C917 C913 1.408 . S
C917 C916 1.404 . S
C917 H929 0.930 . S
C918 C914 1.524 . S
C918 H930 0.956 . S
C918 H931 0.961 . S
C918 H932 0.961 . S
C919 C916 1.539 . S
C919 H933 0.958 . S
C919 H934 0.961 . S
C919 H935 0.960 . S
H920 C904 0.931 . S
H921 C909 0.929 . S
H922 C910 0.960 . S
H923 C910 0.962 . S
H924 C910 0.960 . S
H925 C911 0.961 . S
H926 C911 0.961 . S
H927 C911 0.961 . S
H928 C912 0.931 . S
H929 C917 0.930 . S
H930 C918 0.956 . S
H931 C918 0.961 . S
H932 C918 0.961 . S
H933 C919 0.958 . S
H934 C919 0.961 . S
H935 C919 0.960 . S
C169 C9 1.350 . S
C177 C163 1.378 . S
C201 C93 1.353 . S
C209 C23 1.379 . S
C233 C37 1.349 . S
C241 C107 1.372 . S
C265 C121 1.374 . S
C273 C51 1.374 . S
C297 C135 1.355 . S
C305 C65 1.378 . S
C329 C149 1.346 . S
C337 C79 1.375 . S
C361 C42 1.280 . S
C369 C112 1.294 . S
C393 C56 1.289 . S
C401 C126 1.298 . S
C425 C70 1.283 . S
C433 C140 1.295 . S
C457 C154 1.295 . S
C465 C0 1.298 . S
C489 C14 1.280 . S
C497 C84 1.293 . S
C521 C28 1.287 . S
C529 C98 1.297 . S
C553 C117 1.657 . S
C561 C5 1.662 . S
C585 C131 1.657 . S
C593 C19 1.662 . S
C617 C33 1.657 . S
C625 C145 1.662 . S
C649 C47 1.658 . S
C657 C159 1.662 . S
C681 C61 1.659 . S
C689 C89 1.662 . S
C713 C103 1.657 . S
C721 C75 1.662 . S
C745 C11 1.588 . S
C753 C151 1.596 . S
C777 C165 1.604 . S
C785 C25 1.603 . S
C809 C39 1.595 . S
C817 C95 1.599 . S
C841 C53 1.583 . S
C849 C109 1.595 . S
C873 C67 1.588 . S
C881 C123 1.597 . S
C905 C81 1.595 . S
C913 C137 1.600 . S
