# Generated by pormake.
# Topology srs-a, (3)-cn, num edge types: 1
# Building blocks:
#     Node 0, Type 0, BuildingBlock: OLANEW_clean_sbu_2, # of connection points: 3
#     Node 1, Type 0, BuildingBlock: OLANEW_clean_sbu_2, # of connection points: 3
#     Node 2, Type 0, BuildingBlock: OLANEW_clean_sbu_2, # of connection points: 3
#     Node 3, Type 0, BuildingBlock: OLANEW_clean_sbu_2, # of connection points: 3
#     Node 4, Type 0, BuildingBlock: OLANEW_clean_sbu_2, # of connection points: 3
#     Node 5, Type 0, BuildingBlock: OLANEW_clean_sbu_2, # of connection points: 3
#     Node 6, Type 0, BuildingBlock: OLANEW_clean_sbu_2, # of connection points: 3
#     Node 7, Type 0, BuildingBlock: OLANEW_clean_sbu_2, # of connection points: 3
#     Node 8, Type 0, BuildingBlock: OLANEW_clean_sbu_2, # of connection points: 3
#     Node 9, Type 0, BuildingBlock: OLANEW_clean_sbu_2, # of connection points: 3
#     Node 10, Type 0, BuildingBlock: OLANEW_clean_sbu_2, # of connection points: 3
#     Node 11, Type 0, BuildingBlock: OLANEW_clean_sbu_2, # of connection points: 3
#     Node 12, Type 0, BuildingBlock: OLANEW_clean_sbu_2, # of connection points: 3
#     Node 13, Type 0, BuildingBlock: OLANEW_clean_sbu_2, # of connection points: 3
#     Node 14, Type 0, BuildingBlock: OLANEW_clean_sbu_2, # of connection points: 3
#     Node 15, Type 0, BuildingBlock: OLANEW_clean_sbu_2, # of connection points: 3
#     Node 16, Type 0, BuildingBlock: OLANEW_clean_sbu_2, # of connection points: 3
#     Node 17, Type 0, BuildingBlock: OLANEW_clean_sbu_2, # of connection points: 3
#     Node 18, Type 0, BuildingBlock: OLANEW_clean_sbu_2, # of connection points: 3
#     Node 19, Type 0, BuildingBlock: OLANEW_clean_sbu_2, # of connection points: 3
#     Node 20, Type 0, BuildingBlock: OLANEW_clean_sbu_2, # of connection points: 3
#     Node 21, Type 0, BuildingBlock: OLANEW_clean_sbu_2, # of connection points: 3
#     Node 22, Type 0, BuildingBlock: OLANEW_clean_sbu_2, # of connection points: 3
#     Node 23, Type 0, BuildingBlock: OLANEW_clean_sbu_2, # of connection points: 3
#     Edge 24, Type (0, 0), BuildingBlock: UVAHIK_clean_linker_0, # of connection points: 2
#     Edge 25, Type (0, 0), BuildingBlock: UVAHIK_clean_linker_0, # of connection points: 2
#     Edge 26, Type (0, 0), BuildingBlock: UVAHIK_clean_linker_0, # of connection points: 2
#     Edge 27, Type (0, 0), BuildingBlock: UVAHIK_clean_linker_0, # of connection points: 2
#     Edge 28, Type (0, 0), BuildingBlock: UVAHIK_clean_linker_0, # of connection points: 2
#     Edge 29, Type (0, 0), BuildingBlock: UVAHIK_clean_linker_0, # of connection points: 2
#     Edge 30, Type (0, 0), BuildingBlock: UVAHIK_clean_linker_0, # of connection points: 2
#     Edge 31, Type (0, 0), BuildingBlock: UVAHIK_clean_linker_0, # of connection points: 2
#     Edge 32, Type (0, 0), BuildingBlock: UVAHIK_clean_linker_0, # of connection points: 2
#     Edge 33, Type (0, 0), BuildingBlock: UVAHIK_clean_linker_0, # of connection points: 2
#     Edge 34, Type (0, 0), BuildingBlock: UVAHIK_clean_linker_0, # of connection points: 2
#     Edge 35, Type (0, 0), BuildingBlock: UVAHIK_clean_linker_0, # of connection points: 2
#     Edge 36, Type (0, 0), BuildingBlock: UVAHIK_clean_linker_0, # of connection points: 2
#     Edge 37, Type (0, 0), BuildingBlock: UVAHIK_clean_linker_0, # of connection points: 2
#     Edge 38, Type (0, 0), BuildingBlock: UVAHIK_clean_linker_0, # of connection points: 2
#     Edge 39, Type (0, 0), BuildingBlock: UVAHIK_clean_linker_0, # of connection points: 2
#     Edge 40, Type (0, 0), BuildingBlock: UVAHIK_clean_linker_0, # of connection points: 2
#     Edge 41, Type (0, 0), BuildingBlock: UVAHIK_clean_linker_0, # of connection points: 2
#     Edge 42, Type (0, 0), BuildingBlock: UVAHIK_clean_linker_0, # of connection points: 2
#     Edge 43, Type (0, 0), BuildingBlock: UVAHIK_clean_linker_0, # of connection points: 2
#     Edge 44, Type (0, 0), BuildingBlock: UVAHIK_clean_linker_0, # of connection points: 2
#     Edge 45, Type (0, 0), BuildingBlock: UVAHIK_clean_linker_0, # of connection points: 2
#     Edge 46, Type (0, 0), BuildingBlock: UVAHIK_clean_linker_0, # of connection points: 2
#     Edge 47, Type (0, 0), BuildingBlock: UVAHIK_clean_linker_0, # of connection points: 2
#     Edge 48, Type (0, 0), BuildingBlock: UVAHIK_clean_linker_0, # of connection points: 2
#     Edge 49, Type (0, 0), BuildingBlock: UVAHIK_clean_linker_0, # of connection points: 2
#     Edge 50, Type (0, 0), BuildingBlock: UVAHIK_clean_linker_0, # of connection points: 2
#     Edge 51, Type (0, 0), BuildingBlock: UVAHIK_clean_linker_0, # of connection points: 2
#     Edge 52, Type (0, 0), BuildingBlock: UVAHIK_clean_linker_0, # of connection points: 2
#     Edge 53, Type (0, 0), BuildingBlock: UVAHIK_clean_linker_0, # of connection points: 2
#     Edge 54, Type (0, 0), BuildingBlock: UVAHIK_clean_linker_0, # of connection points: 2
#     Edge 55, Type (0, 0), BuildingBlock: UVAHIK_clean_linker_0, # of connection points: 2
#     Edge 56, Type (0, 0), BuildingBlock: UVAHIK_clean_linker_0, # of connection points: 2
#     Edge 57, Type (0, 0), BuildingBlock: UVAHIK_clean_linker_0, # of connection points: 2
#     Edge 58, Type (0, 0), BuildingBlock: UVAHIK_clean_linker_0, # of connection points: 2
#     Edge 59, Type (0, 0), BuildingBlock: UVAHIK_clean_linker_0, # of connection points: 2
# Relax obj value: 0.155
# Max RMSD: 0.196
# Mean RMSD: 0.173
data_MOF--net-srs-a--node1-OLANEW_clean_sbu_2--edge1-UVAHIK_clean_linker_0
_symmetry_space_group_name_H-M    P1
_symmetry_Int_Tables_number       1
_symmetry_cell_setting            triclinic
loop_
_symmetry_equiv_pos_as_xyz
'x, y, z'
_cell_length_a     104.87048
_cell_length_b     108.25248
_cell_length_c     104.08767
_cell_angle_alpha  89.98221
_cell_angle_beta   87.17873
_cell_angle_gamma 91.427311
loop_
_atom_site_label
_atom_site_type_symbol
_atom_site_fract_x
_atom_site_fract_y
_atom_site_fract_z
_atom_type_partial_charge
O0 O 0.05974 0.20526 0.22978 0.0
Cd1 Cd 0.04541 0.2176 0.24344 0.0
O2 O 0.04602 0.18967 0.23215 0.0
Cd3 Cd 0.04157 0.17009 0.22919 0.0
O4 O 0.04418 0.15113 0.22269 0.0
C5 C 0.05522 0.1466 0.22314 0.0
O6 O 0.06448 0.15335 0.22784 0.0
C7 C 0.05645 0.19419 0.22723 0.0
C8 C 0.03805 0.23852 0.23036 0.0
O9 O 0.04771 0.23894 0.23746 0.0
O10 O 0.03184 0.22822 0.22954 0.0
O11 O 0.10188 0.65176 0.3639 0.0
Cd12 Cd 0.09294 0.63187 0.35725 0.0
O13 O 0.09532 0.65972 0.34611 0.0
Cd14 Cd 0.09412 0.67438 0.3318 0.0
O15 O 0.09528 0.69005 0.31859 0.0
C16 C 0.09457 0.68859 0.30653 0.0
O17 O 0.09289 0.67739 0.30195 0.0
C18 C 0.1008 0.6611 0.35667 0.0
C19 C 0.07911 0.62013 0.37749 0.0
O20 O 0.09095 0.61793 0.37516 0.0
O21 O 0.07382 0.62786 0.37023 0.0
O22 O 0.55652 0.9201 0.55097 0.0
Cd23 Cd 0.57428 0.90596 0.54952 0.0
O24 O 0.54502 0.90746 0.53955 0.0
Cd25 Cd 0.52761 0.90049 0.53093 0.0
O26 O 0.51037 0.89537 0.52102 0.0
C27 C 0.51002 0.886 0.51367 0.0
O28 O 0.52018 0.87919 0.51218 0.0
C29 C 0.54604 0.91748 0.54586 0.0
C30 C 0.57816 0.89709 0.57411 0.0
O31 O 0.58412 0.90682 0.56978 0.0
O32 O 0.57059 0.8914 0.56669 0.0
O33 O 0.4378 0.13218 0.84159 0.0
Cd34 Cd 0.44978 0.13689 0.8606 0.0
O35 O 0.42243 0.12392 0.85401 0.0
Cd36 Cd 0.4045 0.11374 0.85875 0.0
O37 O 0.38819 0.103 0.86703 0.0
C38 C 0.39027 0.09274 0.87238 0.0
O39 O 0.40205 0.0889 0.87246 0.0
C40 C 0.42684 0.12691 0.8428 0.0
C41 C 0.46782 0.15583 0.8555 0.0
O42 O 0.4708 0.14447 0.85421 0.0
O43 O 0.45633 0.15822 0.85927 0.0
O44 O 0.06079 0.97501 0.14274 0.0
Cd45 Cd 0.04435 0.9596 0.14929 0.0
O46 O 0.05903 0.98115 0.16281 0.0
Cd47 Cd 0.06347 0.9951 0.17719 0.0
O48 O 0.06648 0.01344 0.18535 0.0
C49 C 0.06869 0.02231 0.17748 0.0
O50 O 0.06928 0.01993 0.16509 0.0
C51 C 0.06431 0.9822 0.1516 0.0
C52 C 0.05495 0.94117 0.16378 0.0
O53 O 0.05325 0.9396 0.15177 0.0
O54 O 0.05149 0.95137 0.16895 0.0
O55 O 0.17405 0.83936 0.41004 0.0
Cd56 Cd 0.17853 0.83985 0.43282 0.0
O57 O 0.16248 0.82222 0.41189 0.0
Cd58 Cd 0.15232 0.80628 0.40393 0.0
O59 O 0.14437 0.78893 0.39666 0.0
C60 C 0.1502 0.77901 0.39866 0.0
O61 O 0.16074 0.77958 0.40498 0.0
C62 C 0.16735 0.83095 0.40493 0.0
C63 C 0.20449 0.84497 0.43511 0.0
O64 O 0.20011 0.83381 0.43546 0.0
O65 O 0.19657 0.85367 0.43395 0.0
O66 O 0.42375 0.98448 0.56905 0.0
Cd67 Cd 0.4022 0.99232 0.56844 0.0
O68 O 0.43198 0.99873 0.5558 0.0
Cd69 Cd 0.41337 0.00541 0.55069 0.0
O70 O 0.39925 0.00433 0.53594 0.0
C71 C 0.3889 0.99803 0.5376 0.0
O72 O 0.38604 0.99306 0.54892 0.0
C73 C 0.43342 0.98948 0.56308 0.0
C74 C 0.3965 0.00935 0.58783 0.0
O75 O 0.39403 0.99779 0.58951 0.0
O76 O 0.40176 0.01283 0.57701 0.0
O77 O 0.29134 0.01892 0.95243 0.0
Cd78 Cd 0.27408 0.00647 0.96286 0.0
O79 O 0.27886 0.02263 0.93663 0.0
Cd80 Cd 0.27643 0.02999 0.91738 0.0
O81 O 0.28094 0.03881 0.89881 0.0
C82 C 0.29203 0.03737 0.89362 0.0
O83 O 0.30007 0.0304 0.89942 0.0
C84 C 0.28954 0.02415 0.94177 0.0
C85 C 0.26433 0.01767 0.98524 0.0
O86 O 0.27349 0.01007 0.98558 0.0
O87 O 0.25978 0.01995 0.97431 0.0
O88 O 0.14032 0.83328 0.26394 0.0
Cd89 Cd 0.13808 0.83117 0.24076 0.0
O90 O 0.15996 0.82666 0.26194 0.0
Cd91 Cd 0.15579 0.8171 0.24412 0.0
O92 O 0.14669 0.79919 0.24029 0.0
C93 C 0.1346 0.79805 0.24164 0.0
O94 O 0.12787 0.80797 0.24387 0.0
C95 C 0.15102 0.83148 0.26878 0.0
C96 C 0.12308 0.8492 0.23047 0.0
O97 O 0.13483 0.85145 0.23267 0.0
O98 O 0.11836 0.83844 0.23324 0.0
O99 O 0.36206 0.90419 0.4471 0.0
Cd100 Cd 0.36369 0.88435 0.43605 0.0
O101 O 0.37385 0.9142 0.43228 0.0
Cd102 Cd 0.38241 0.89701 0.42571 0.0
O103 O 0.39905 0.88686 0.43118 0.0
C104 C 0.39831 0.88086 0.4417 0.0
O105 O 0.38722 0.87992 0.44812 0.0
C106 C 0.36649 0.91433 0.44235 0.0
C107 C 0.33898 0.87481 0.43393 0.0
O108 O 0.3458 0.87144 0.44313 0.0
O109 O 0.344 0.88238 0.42554 0.0
O110 O 0.36085 0.12006 0.71764 0.0
Cd111 Cd 0.34829 0.11855 0.69853 0.0
O112 O 0.34509 0.11044 0.72842 0.0
Cd113 Cd 0.33653 0.10119 0.74558 0.0
O114 O 0.33017 0.09209 0.76358 0.0
C115 C 0.32989 0.09814 0.77405 0.0
O116 O 0.33324 0.10991 0.77382 0.0
C117 C 0.35611 0.11564 0.72818 0.0
C118 C 0.35719 0.10043 0.68155 0.0
O119 O 0.36126 0.11166 0.68047 0.0
O120 O 0.34894 0.09776 0.69069 0.0
O121 O 0.17669 0.06724 0.12811 0.0
Cd122 Cd 0.19555 0.08026 0.12272 0.0
O123 O 0.16509 0.08378 0.12975 0.0
Cd124 Cd 0.14764 0.0935 0.13526 0.0
O125 O 0.13376 0.10542 0.14504 0.0
C126 C 0.13795 0.11257 0.15363 0.0
O127 O 0.15014 0.11236 0.15601 0.0
C128 C 0.16589 0.0721 0.13024 0.0
C129 C 0.20839 0.07159 0.10058 0.0
O130 O 0.21126 0.06789 0.11175 0.0
O131 O 0.19954 0.07948 0.0999 0.0
O132 O 0.59522 0.40909 0.00463 0.0
Cd133 Cd 0.60589 0.39288 0.01606 0.0
O134 O 0.59292 0.39594 0.98892 0.0
Cd135 Cd 0.58807 0.38948 0.96979 0.0
O136 O 0.58462 0.37978 0.95185 0.0
C137 C 0.59407 0.37695 0.9444 0.0
O138 O 0.60564 0.38026 0.94756 0.0
C139 C 0.59115 0.40665 0.9936 0.0
C140 C 0.63124 0.39921 0.02047 0.0
O141 O 0.62825 0.39376 0.01007 0.0
O142 O 0.62222 0.4017 0.02876 0.0
O143 O 0.84448 0.34986 0.24396 0.0
Cd144 Cd 0.82748 0.34648 0.26053 0.0
O145 O 0.83609 0.36767 0.23976 0.0
Cd146 Cd 0.83398 0.3842 0.22806 0.0
O147 O 0.82828 0.39742 0.21371 0.0
C148 C 0.81646 0.39814 0.21169 0.0
O149 O 0.80822 0.39124 0.21858 0.0
C150 C 0.84473 0.35982 0.23748 0.0
C151 C 0.83028 0.3626 0.28113 0.0
O152 O 0.83518 0.35187 0.28112 0.0
O153 O 0.82402 0.36568 0.2714 0.0
O154 O 0.84108 0.53434 0.65457 0.0
Cd155 Cd 0.82592 0.53539 0.67304 0.0
O156 O 0.82569 0.53907 0.64196 0.0
Cd157 Cd 0.81985 0.54051 0.62214 0.0
O158 O 0.82606 0.5364 0.6023 0.0
C159 C 0.83047 0.52569 0.60044 0.0
O160 O 0.83012 0.51785 0.61009 0.0
C161 C 0.83733 0.53659 0.64341 0.0
C162 C 0.81917 0.55974 0.67791 0.0
O163 O 0.82875 0.55505 0.68314 0.0
O164 O 0.81273 0.55287 0.67042 0.0
O165 O 0.85557 0.46765 0.41865 0.0
Cd166 Cd 0.83597 0.45635 0.41367 0.0
O167 O 0.85332 0.45912 0.43779 0.0
Cd168 Cd 0.85875 0.45938 0.45778 0.0
O169 O 0.86242 0.46692 0.47673 0.0
C170 C 0.86527 0.47837 0.47753 0.0
O171 O 0.86629 0.48502 0.46695 0.0
C172 C 0.85948 0.46627 0.4299 0.0
C173 C 0.83797 0.4424 0.3912 0.0
O174 O 0.83429 0.4536 0.39099 0.0
O175 O 0.8409 0.43787 0.40202 0.0
O176 O 0.52454 0.5119 0.93236 0.0
Cd177 Cd 0.51514 0.5281 0.9198 0.0
O178 O 0.52685 0.50146 0.9144 0.0
Cd179 Cd 0.5317 0.48474 0.90363 0.0
O180 O 0.53678 0.46682 0.89557 0.0
C181 C 0.53706 0.45747 0.90294 0.0
O182 O 0.53425 0.45884 0.91529 0.0
C183 C 0.52843 0.50237 0.9264 0.0
C184 C 0.53445 0.54334 0.90863 0.0
O185 O 0.52898 0.54605 0.91951 0.0
O186 O 0.53065 0.53351 0.90295 0.0
O187 O 0.60398 0.83813 0.73219 0.0
Cd188 Cd 0.58735 0.85348 0.73207 0.0
O189 O 0.59466 0.82835 0.74876 0.0
Cd190 Cd 0.59342 0.81225 0.76154 0.0
O191 O 0.59776 0.79475 0.7706 0.0
C192 C 0.60671 0.79445 0.77839 0.0
O193 O 0.61273 0.80481 0.78123 0.0
C194 C 0.60378 0.82933 0.74027 0.0
C195 C 0.58481 0.86146 0.70689 0.0
O196 O 0.59248 0.86705 0.71429 0.0
O197 O 0.57818 0.85224 0.7115 0.0
O198 O 0.58157 0.28547 0.8358 0.0
Cd199 Cd 0.57721 0.2727 0.81711 0.0
O200 O 0.56569 0.29707 0.8307 0.0
Cd201 Cd 0.55519 0.31407 0.8339 0.0
O202 O 0.55109 0.332 0.8425 0.0
C203 C 0.56055 0.3388 0.84546 0.0
O204 O 0.57216 0.33491 0.84285 0.0
C205 C 0.57454 0.29466 0.83818 0.0
C206 C 0.55956 0.25373 0.82348 0.0
O207 O 0.57159 0.25199 0.82372 0.0
O208 O 0.55589 0.26443 0.82019 0.0
O209 O 0.96787 0.37064 0.16198 0.0
Cd210 Cd 0.98905 0.36728 0.15202 0.0
O211 O 0.95954 0.36357 0.14445 0.0
Cd212 Cd 0.94352 0.36003 0.13218 0.0
O213 O 0.92813 0.3624 0.1191 0.0
C214 C 0.93051 0.36281 0.10701 0.0
O215 O 0.94226 0.36119 0.10248 0.0
C216 C 0.95808 0.36771 0.15584 0.0
C217 C 0.99914 0.34638 0.16292 0.0
O218 O 0.00155 0.35718 0.16736 0.0
O219 O 0.99216 0.34549 0.15318 0.0
O220 O 0.97124 0.53313 0.48563 0.0
Cd221 Cd 0.98778 0.54501 0.49627 0.0
O222 O 0.95715 0.54034 0.49978 0.0
Cd223 Cd 0.93803 0.5406 0.50916 0.0
O224 O 0.92127 0.5394 0.52245 0.0
C225 C 0.91946 0.52973 0.5293 0.0
O226 O 0.92747 0.52064 0.52781 0.0
C227 C 0.95973 0.53378 0.48992 0.0
C228 C 0.00364 0.55787 0.47834 0.0
O229 O 0.00651 0.54711 0.48226 0.0
O230 O 0.99331 0.56257 0.48299 0.0
O231 O 0.68162 0.63176 0.85387 0.0
Cd232 Cd 0.67499 0.62062 0.87357 0.0
O233 O 0.66622 0.64507 0.85628 0.0
Cd234 Cd 0.65549 0.66077 0.84973 0.0
O235 O 0.64723 0.67721 0.84171 0.0
C236 C 0.64985 0.68013 0.83003 0.0
O237 O 0.65734 0.67302 0.82295 0.0
C238 C 0.67606 0.64127 0.85 0.0
C239 C 0.65034 0.61038 0.87401 0.0
O240 O 0.65982 0.60456 0.86894 0.0
O241 O 0.65248 0.62117 0.87863 0.0
O242 O 0.78586 0.43401 0.08144 0.0
Cd243 Cd 0.78629 0.43147 0.05809 0.0
O244 O 0.80441 0.44393 0.08122 0.0
Cd245 Cd 0.80932 0.43937 0.0612 0.0
O246 O 0.824 0.42718 0.05335 0.0
C247 C 0.83548 0.43103 0.05412 0.0
O248 O 0.83759 0.44242 0.05797 0.0
C249 C 0.79447 0.43977 0.0874 0.0
C250 C 0.76177 0.42647 0.04992 0.0
O251 O 0.76898 0.41772 0.05316 0.0
O252 O 0.76622 0.43759 0.05043 0.0
O253 O 0.75314 0.69695 0.7396 0.0
Cd254 Cd 0.76615 0.70294 0.72041 0.0
O255 O 0.73825 0.70994 0.73523 0.0
Cd256 Cd 0.72065 0.72001 0.73906 0.0
O257 O 0.70456 0.73234 0.74134 0.0
C258 C 0.69944 0.73622 0.73134 0.0
O259 O 0.70384 0.73246 0.72 0.0
C260 C 0.74234 0.70157 0.74242 0.0
C261 C 0.77738 0.68184 0.71011 0.0
O262 O 0.78304 0.6885 0.71838 0.0
O263 O 0.76654 0.68534 0.70648 0.0
C264 C 0.07199 0.04495 0.17326 0.0
C265 C 0.06966 0.03521 0.18207 0.0
C266 C 0.07191 0.05722 0.17742 0.0
C267 C 0.07363 0.07708 0.20626 0.0
H268 H 0.05456 0.09977 0.18622 0.0
C269 C 0.06991 0.12903 0.21871 0.0
C270 C 0.05771 0.13404 0.21817 0.0
C271 C 0.07229 0.1172 0.21392 0.0
C272 C 0.05989 0.09354 0.19194 0.0
H273 H 0.06589 0.03071 0.20223 0.0
H274 H 0.06566 0.05213 0.20947 0.0
H275 H 0.05735 0.07863 0.17876 0.0
H276 H 0.03844 0.13057 0.21213 0.0
H277 H 0.04255 0.10991 0.20391 0.0
H278 H 0.07586 0.09193 0.21962 0.0
C279 C 0.06763 0.05027 0.19936 0.0
C280 C 0.06162 0.08147 0.18759 0.0
C281 C 0.0677 0.038 0.19519 0.0
C282 C 0.04795 0.12699 0.2127 0.0
C283 C 0.05033 0.11518 0.2079 0.0
C284 C 0.07194 0.08918 0.21059 0.0
C285 C 0.06953 0.06002 0.19048 0.0
C286 C 0.0684 0.07306 0.19477 0.0
C287 C 0.06251 0.11014 0.20847 0.0
C288 C 0.06492 0.0975 0.20355 0.0
H289 H 0.07366 0.04312 0.16309 0.0
H290 H 0.07361 0.06452 0.17038 0.0
H291 H 0.079 0.07085 0.21195 0.0
H292 H 0.07767 0.13426 0.22278 0.0
H293 H 0.08182 0.11363 0.21436 0.0
C294 C 0.13404 0.7663 0.38708 0.0
C295 C 0.14519 0.76698 0.39404 0.0
C296 C 0.12931 0.7549 0.38282 0.0
C297 C 0.1304 0.72141 0.38922 0.0
H298 H 0.11763 0.71824 0.35501 0.0
C299 C 0.11705 0.674 0.36766 0.0
C300 C 0.10606 0.67326 0.3605 0.0
C301 C 0.12194 0.68546 0.37155 0.0
C302 C 0.12103 0.719 0.36464 0.0
H303 H 0.16016 0.75621 0.4019 0.0
H304 H 0.15195 0.73638 0.39441 0.0
H305 H 0.12588 0.73822 0.36218 0.0
H306 H 0.09114 0.68389 0.35244 0.0
H307 H 0.09971 0.7039 0.35908 0.0
H308 H 0.12551 0.70223 0.39173 0.0
C309 C 0.14678 0.74463 0.39237 0.0
C310 C 0.12576 0.73045 0.36875 0.0
C311 C 0.15152 0.75602 0.3966 0.0
C312 C 0.09993 0.6842 0.35747 0.0
C313 C 0.10479 0.69566 0.36137 0.0
C314 C 0.12565 0.70997 0.38513 0.0
C315 C 0.1356 0.74393 0.38546 0.0
C316 C 0.13051 0.73178 0.38108 0.0
C317 C 0.11586 0.69644 0.36846 0.0
C318 C 0.12093 0.70862 0.37278 0.0
H319 H 0.12892 0.77456 0.38495 0.0
H320 H 0.1206 0.75466 0.37764 0.0
H321 H 0.1338 0.72217 0.39886 0.0
H322 H 0.12195 0.6657 0.37017 0.0
H323 H 0.13056 0.68572 0.37688 0.0
C324 C 0.52601 0.92699 0.53859 0.0
C325 C 0.53513 0.92577 0.54791 0.0
C326 C 0.51561 0.93467 0.54081 0.0
C327 C 0.49675 0.94976 0.5671 0.0
H328 H 0.48412 0.96898 0.53922 0.0
C329 C 0.44741 0.97244 0.56986 0.0
C330 C 0.4461 0.98378 0.56353 0.0
C331 C 0.45894 0.96623 0.56885 0.0
C332 C 0.48761 0.96381 0.54716 0.0
H333 H 0.5408 0.93197 0.56663 0.0
H334 H 0.5228 0.94555 0.57041 0.0
H335 H 0.50299 0.95661 0.53539 0.0
H336 H 0.45614 0.99782 0.55177 0.0
H337 H 0.47631 0.9871 0.55021 0.0
H338 H 0.48146 0.95709 0.57891 0.0
C339 C 0.52347 0.94034 0.56153 0.0
C340 C 0.49833 0.95656 0.54492 0.0
C341 C 0.53385 0.93265 0.55932 0.0
C342 C 0.45678 0.98906 0.55669 0.0
C343 C 0.46832 0.98287 0.55571 0.0
C344 C 0.48604 0.95702 0.56935 0.0
C345 C 0.51417 0.94139 0.55235 0.0
C346 C 0.50298 0.94938 0.55483 0.0
C347 C 0.46945 0.97125 0.56153 0.0
C348 C 0.48128 0.96406 0.55939 0.0
H349 H 0.527 0.92222 0.52949 0.0
H350 H 0.50861 0.93524 0.53353 0.0
H351 H 0.5 0.94425 0.57493 0.0
H352 H 0.43937 0.9681 0.5752 0.0
H353 H 0.45943 0.95726 0.57336 0.0
C354 C 0.38216 0.07431 0.88514 0.0
C355 C 0.3797 0.08547 0.87893 0.0
C356 C 0.37233 0.06767 0.89178 0.0
C357 C 0.33718 0.06377 0.89509 0.0
H358 H 0.34418 0.04986 0.92829 0.0
C359 C 0.29726 0.04263 0.92899 0.0
C360 C 0.29991 0.03153 0.93519 0.0
C361 C 0.30698 0.04938 0.9223 0.0
C362 C 0.3421 0.05357 0.91898 0.0
H363 H 0.36491 0.0983 0.87466 0.0
H364 H 0.34776 0.08674 0.88634 0.0
H365 H 0.36105 0.0611 0.91595 0.0
H366 H 0.31481 0.01901 0.93974 0.0
H367 H 0.33184 0.03069 0.92789 0.0
H368 H 0.31819 0.0563 0.89819 0.0
C369 C 0.35728 0.08307 0.88598 0.0
C370 C 0.35178 0.06 0.91189 0.0
C371 C 0.36713 0.08973 0.87933 0.0
C372 C 0.31253 0.02752 0.93497 0.0
C373 C 0.32226 0.03423 0.92823 0.0
C374 C 0.32749 0.05734 0.9022 0.0
C375 C 0.35979 0.07202 0.89238 0.0
C376 C 0.34945 0.06516 0.89986 0.0
C377 C 0.31958 0.04518 0.9217 0.0
C378 C 0.32984 0.05214 0.91421 0.0
H379 H 0.39172 0.07073 0.88497 0.0
H380 H 0.37455 0.05908 0.89643 0.0
H381 H 0.33511 0.06748 0.88578 0.0
H382 H 0.28766 0.04613 0.92938 0.0
H383 H 0.30463 0.05791 0.91763 0.0
C384 C 0.09827 0.71125 0.30274 0.0
C385 C 0.0962 0.69935 0.29776 0.0
C386 C 0.10039 0.72135 0.29452 0.0
C387 C 0.11189 0.72933 0.26159 0.0
H388 H 0.09924 0.76153 0.27129 0.0
C389 C 0.13592 0.77513 0.24428 0.0
C390 C 0.12845 0.78565 0.24328 0.0
C391 C 0.13031 0.76384 0.24829 0.0
C392 C 0.10268 0.75259 0.26826 0.0
H393 H 0.09444 0.68876 0.28021 0.0
H394 H 0.09808 0.70647 0.26582 0.0
H395 H 0.09205 0.74342 0.28368 0.0
H396 H 0.1091 0.79233 0.24456 0.0
H397 H 0.09929 0.77258 0.2513 0.0
H398 H 0.12259 0.73855 0.2462 0.0
C399 C 0.0982 0.70794 0.27611 0.0
C400 C 0.09868 0.74222 0.27549 0.0
C401 C 0.09606 0.69781 0.28436 0.0
C402 C 0.11514 0.78443 0.2454 0.0
C403 C 0.10952 0.77312 0.24934 0.0
C404 C 0.11587 0.73972 0.25432 0.0
C405 C 0.10048 0.71981 0.2811 0.0
C406 C 0.1035 0.73052 0.27245 0.0
C407 C 0.1171 0.76282 0.2513 0.0
C408 C 0.11155 0.75152 0.25776 0.0
H409 H 0.09846 0.71277 0.31302 0.0
H410 H 0.10232 0.73033 0.29869 0.0
H411 H 0.11582 0.72046 0.25901 0.0
H412 H 0.1462 0.77574 0.24269 0.0
H413 H 0.13646 0.75613 0.24977 0.0
C414 C 0.40922 0.8707 0.45962 0.0
C415 C 0.41005 0.87699 0.44778 0.0
C416 C 0.42016 0.86886 0.46645 0.0
C417 C 0.45576 0.8711 0.46433 0.0
H418 H 0.45134 0.87951 0.50046 0.0
C419 C 0.49801 0.87285 0.49823 0.0
C420 C 0.49842 0.88305 0.50658 0.0
C421 C 0.48717 0.87031 0.49127 0.0
C422 C 0.45275 0.87716 0.49038 0.0
H423 H 0.42314 0.88558 0.43345 0.0
H424 H 0.44215 0.88256 0.44544 0.0
H425 H 0.43278 0.87781 0.48743 0.0
H426 H 0.4877 0.89851 0.51424 0.0
H427 H 0.46892 0.89419 0.50203 0.0
H428 H 0.47584 0.87102 0.46721 0.0
C429 C 0.43309 0.87893 0.44942 0.0
C430 C 0.44208 0.87601 0.48294 0.0
C431 C 0.42215 0.88071 0.44255 0.0
C432 C 0.4877 0.89056 0.50792 0.0
C433 C 0.47688 0.88803 0.50098 0.0
C434 C 0.46646 0.87227 0.47179 0.0
C435 C 0.43217 0.87332 0.46163 0.0
C436 C 0.44345 0.87317 0.46976 0.0
C437 C 0.47649 0.8779 0.49253 0.0
C438 C 0.46509 0.87555 0.48485 0.0
H439 H 0.40006 0.86759 0.46386 0.0
H440 H 0.41915 0.86426 0.4757 0.0
H441 H 0.45715 0.86876 0.45425 0.0
H442 H 0.50609 0.86685 0.497 0.0
H443 H 0.48712 0.86237 0.48495 0.0
C444 C 0.426 0.1224 0.81935 0.0
C445 C 0.41953 0.12442 0.83126 0.0
C446 C 0.41923 0.12076 0.80822 0.0
C447 C 0.38701 0.11337 0.79676 0.0
H448 H 0.40032 0.12979 0.76561 0.0
C449 C 0.35725 0.11836 0.75195 0.0
C450 C 0.36346 0.11637 0.7399 0.0
C451 C 0.36419 0.11895 0.76306 0.0
C452 C 0.39655 0.12502 0.77418 0.0
H453 H 0.40091 0.12676 0.84078 0.0
H454 H 0.38906 0.1238 0.82141 0.0
H455 H 0.41219 0.13129 0.78511 0.0
H456 H 0.38182 0.11386 0.72992 0.0
H457 H 0.39399 0.11485 0.74935 0.0
H458 H 0.37129 0.10722 0.78584 0.0
C459 C 0.39935 0.12314 0.82071 0.0
C460 C 0.40336 0.12587 0.78536 0.0
C461 C 0.40614 0.12475 0.83184 0.0
C462 C 0.37679 0.11533 0.73911 0.0
C463 C 0.38375 0.11593 0.75023 0.0
C464 C 0.38019 0.11255 0.78558 0.0
C465 C 0.40583 0.12121 0.80874 0.0
C466 C 0.39867 0.12008 0.7968 0.0
C467 C 0.37751 0.11769 0.76234 0.0
C468 C 0.38487 0.11838 0.77417 0.0
H469 H 0.43633 0.12212 0.81861 0.0
H470 H 0.42451 0.11913 0.7992 0.0
H471 H 0.38322 0.10866 0.80535 0.0
H472 H 0.34707 0.11977 0.75274 0.0
H473 H 0.35914 0.12065 0.7722 0.0
C474 C 0.13424 0.12912 0.17006 0.0
C475 C 0.12935 0.12104 0.16084 0.0
C476 C 0.12622 0.13719 0.17686 0.0
C477 C 0.09247 0.14214 0.18666 0.0
H478 H 0.1044 0.17579 0.19244 0.0
C479 C 0.05955 0.17878 0.2096 0.0
C480 C 0.06481 0.18654 0.21888 0.0
C481 C 0.06736 0.1711 0.20205 0.0
C482 C 0.10097 0.16639 0.19103 0.0
H483 H 0.11218 0.11505 0.15158 0.0
H484 H 0.09817 0.12922 0.16343 0.0
H485 H 0.11805 0.16163 0.18027 0.0
H486 H 0.08233 0.1928 0.2272 0.0
H487 H 0.09603 0.17922 0.21415 0.0
H488 H 0.07538 0.14692 0.19738 0.0
C489 C 0.1082 0.12923 0.16546 0.0
C490 C 0.1088 0.15827 0.18405 0.0
C491 C 0.11624 0.12116 0.15862 0.0
C492 C 0.07806 0.18683 0.22015 0.0
C493 C 0.08588 0.1791 0.21265 0.0
C494 C 0.08463 0.15027 0.19362 0.0
C495 C 0.11312 0.13736 0.17463 0.0
C496 C 0.10466 0.14604 0.18183 0.0
C497 C 0.0806 0.17104 0.2036 0.0
C498 C 0.08882 0.16248 0.19595 0.0
H499 H 0.14428 0.12924 0.17205 0.0
H500 H 0.13027 0.14321 0.18399 0.0
H501 H 0.08906 0.13273 0.18527 0.0
H502 H 0.0494 0.17869 0.20816 0.0
H503 H 0.06301 0.16522 0.19498 0.0
C504 C 0.0741 0.99941 0.13812 0.0
C505 C 0.0743 0.99178 0.14899 0.0
C506 C 0.08329 0.00892 0.13616 0.0
C507 C 0.10785 0.02705 0.15361 0.0
H508 H 0.12069 0.03578 0.11914 0.0
C509 C 0.15546 0.05361 0.14096 0.0
C510 C 0.15451 0.06418 0.13328 0.0
C511 C 0.14487 0.04569 0.14328 0.0
C512 C 0.11709 0.03349 0.12881 0.0
H513 H 0.08453 0.98752 0.16593 0.0
H514 H 0.10086 0.00366 0.16228 0.0
H515 H 0.10398 0.0198 0.1221 0.0
H516 H 0.14193 0.07466 0.12177 0.0
H517 H 0.12344 0.06056 0.12556 0.0
H518 H 0.12153 0.04034 0.16024 0.0
C519 C 0.09336 0.0028 0.15554 0.0
C520 C 0.10747 0.02437 0.13053 0.0
C521 C 0.08405 0.99348 0.1576 0.0
C522 C 0.14282 0.06669 0.12792 0.0
C523 C 0.1323 0.0586 0.12999 0.0
C524 C 0.11765 0.03596 0.15188 0.0
C525 C 0.09301 0.01079 0.14489 0.0
C526 C 0.1028 0.02093 0.14297 0.0
C527 C 0.13327 0.04804 0.13768 0.0
C528 C 0.12239 0.03918 0.13948 0.0
H529 H 0.06664 0.99826 0.13136 0.0
H530 H 0.08261 0.01494 0.12793 0.0
H531 H 0.10428 0.02493 0.16332 0.0
H532 H 0.1644 0.05146 0.14514 0.0
H533 H 0.14584 0.03754 0.14916 0.0
C534 C 0.1421 0.83421 0.29131 0.0
C535 C 0.15274 0.83383 0.28259 0.0
C536 C 0.14373 0.83482 0.30454 0.0
C537 C 0.16802 0.82848 0.3284 0.0
H538 H 0.14379 0.84436 0.35196 0.0
C539 C 0.1758 0.83531 0.38256 0.0
C540 C 0.16567 0.83125 0.39096 0.0
C541 C 0.17425 0.8359 0.36933 0.0
C542 C 0.15058 0.83984 0.34547 0.0
H543 H 0.17342 0.83453 0.28082 0.0
H544 H 0.1763 0.8362 0.30382 0.0
H545 H 0.14129 0.84585 0.32882 0.0
H546 H 0.14584 0.82508 0.39223 0.0
H547 H 0.14306 0.82624 0.36901 0.0
H548 H 0.17747 0.82279 0.34512 0.0
C549 C 0.16667 0.83552 0.30054 0.0
C550 C 0.14914 0.84065 0.33221 0.0
C551 C 0.16503 0.83469 0.28732 0.0
C552 C 0.15388 0.82797 0.38592 0.0
C553 C 0.15225 0.82878 0.37269 0.0
C554 C 0.16957 0.82786 0.34163 0.0
C555 C 0.15605 0.83527 0.30936 0.0
C556 C 0.15781 0.83491 0.32348 0.0
C557 C 0.16245 0.8327 0.36429 0.0
C558 C 0.16082 0.83347 0.35028 0.0
H559 H 0.13249 0.83347 0.28795 0.0
H560 H 0.1353 0.83445 0.31098 0.0
H561 H 0.17473 0.82368 0.32206 0.0
H562 H 0.18497 0.83795 0.38623 0.0
H563 H 0.18222 0.83904 0.36305 0.0
C564 C 0.37225 0.98481 0.52748 0.0
C565 C 0.38167 0.99426 0.52632 0.0
C566 C 0.36731 0.97943 0.51652 0.0
C567 C 0.37827 0.97334 0.48337 0.0
H568 H 0.34501 0.95716 0.48161 0.0
C569 C 0.36952 0.93729 0.44444 0.0
C570 C 0.36412 0.9261 0.44923 0.0
C571 C 0.3689 0.94804 0.45186 0.0
C572 C 0.35433 0.96165 0.48194 0.0
H573 H 0.39231 0.00635 0.5128 0.0
H574 H 0.38352 0.99709 0.4937 0.0
H575 H 0.34869 0.97229 0.49854 0.0
H576 H 0.35305 0.91762 0.46521 0.0
H577 H 0.35219 0.93625 0.47821 0.0
H578 H 0.38413 0.96237 0.46722 0.0
C579 C 0.38021 0.99362 0.50307 0.0
C580 C 0.35643 0.97032 0.49163 0.0
C581 C 0.3852 0.99896 0.51402 0.0
C582 C 0.35737 0.92607 0.46124 0.0
C583 C 0.35679 0.9368 0.46867 0.0
C584 C 0.37617 0.96471 0.47372 0.0
C585 C 0.37163 0.98344 0.50417 0.0
C586 C 0.36855 0.97599 0.49268 0.0
C587 C 0.3629 0.94782 0.46424 0.0
C588 C 0.36429 0.95848 0.47311 0.0
H589 H 0.36926 0.98102 0.53681 0.0
H590 H 0.36077 0.97157 0.51775 0.0
H591 H 0.38778 0.97735 0.48399 0.0
H592 H 0.37466 0.93767 0.43515 0.0
H593 H 0.37351 0.95643 0.44807 0.0
C594 C 0.30842 0.0425 0.87599 0.0
C595 C 0.29595 0.04364 0.88136 0.0
C596 C 0.31219 0.04852 0.8645 0.0
C597 C 0.30371 0.07417 0.84336 0.0
H598 H 0.32466 0.05697 0.81774 0.0
C599 C 0.32614 0.09855 0.79801 0.0
C600 C 0.32597 0.09198 0.78637 0.0
C601 C 0.32254 0.09271 0.80965 0.0
C602 C 0.31874 0.06187 0.82476 0.0
H603 H 0.27763 0.05197 0.87885 0.0
H604 H 0.28415 0.06229 0.85869 0.0
H605 H 0.3181 0.04663 0.83788 0.0
H606 H 0.32184 0.07412 0.77784 0.0
H607 H 0.31543 0.064 0.79813 0.0
H608 H 0.30413 0.08933 0.83013 0.0
C609 C 0.29108 0.05691 0.86347 0.0
C610 C 0.3151 0.056 0.83637 0.0
C611 C 0.28732 0.05092 0.87498 0.0
C612 C 0.32211 0.07945 0.78663 0.0
C613 C 0.31851 0.07362 0.79828 0.0
C614 C 0.30736 0.08005 0.83176 0.0
C615 C 0.30356 0.05577 0.85809 0.0
C616 C 0.30753 0.06207 0.8458 0.0
C617 C 0.3187 0.08018 0.80992 0.0
C618 C 0.31489 0.07396 0.82231 0.0
H619 H 0.31534 0.03703 0.88071 0.0
H620 H 0.32193 0.0476 0.86072 0.0
H621 H 0.29799 0.07916 0.85048 0.0
H622 H 0.32912 0.1082 0.79815 0.0
H623 H 0.32295 0.09799 0.81847 0.0
C624 C 0.60266 0.36584 0.92484 0.0
C625 C 0.59214 0.36943 0.93274 0.0
C626 C 0.60093 0.35818 0.91423 0.0
C627 C 0.57661 0.3465 0.89233 0.0
H628 H 0.59988 0.31947 0.88703 0.0
C629 C 0.5665 0.30693 0.85703 0.0
C630 C 0.57683 0.30271 0.84929 0.0
C631 C 0.56854 0.31508 0.86716 0.0
C632 C 0.59338 0.32705 0.88827 0.0
H633 H 0.57151 0.36801 0.9355 0.0
H634 H 0.56851 0.35456 0.91706 0.0
H635 H 0.60311 0.33411 0.9044 0.0
H636 H 0.5974 0.30324 0.8463 0.0
H637 H 0.60103 0.31769 0.86391 0.0
H638 H 0.56677 0.33933 0.87633 0.0
C639 C 0.57809 0.35776 0.919 0.0
C640 C 0.59525 0.33546 0.89822 0.0
C641 C 0.57982 0.36542 0.92962 0.0
C642 C 0.58928 0.30642 0.85213 0.0
C643 C 0.59134 0.31465 0.86222 0.0
C644 C 0.57472 0.33807 0.8824 0.0
C645 C 0.58864 0.35394 0.91127 0.0
C646 C 0.58686 0.34526 0.9004 0.0
C647 C 0.58097 0.31919 0.86977 0.0
C648 C 0.58307 0.32822 0.88026 0.0
H649 H 0.61227 0.36882 0.92693 0.0
H650 H 0.60923 0.35556 0.90836 0.0
H651 H 0.57008 0.35405 0.89362 0.0
H652 H 0.55683 0.3039 0.85525 0.0
H653 H 0.56037 0.31814 0.87296 0.0
C654 C 0.93583 0.35962 0.16045 0.0
C655 C 0.94523 0.36886 0.16209 0.0
C656 C 0.92411 0.35998 0.16742 0.0
C657 C 0.90925 0.37394 0.19702 0.0
H658 H 0.87831 0.35931 0.18402 0.0
C659 C 0.86048 0.3739 0.2256 0.0
C660 C 0.85489 0.36206 0.22738 0.0
C661 C 0.87078 0.37579 0.2167 0.0
C662 C 0.88689 0.36344 0.18774 0.0
H663 H 0.94969 0.38589 0.17196 0.0
H664 H 0.92903 0.38691 0.1837 0.0
H665 H 0.89753 0.3612 0.16988 0.0
H666 H 0.85546 0.34298 0.22117 0.0
H667 H 0.87328 0.34636 0.20535 0.0
H668 H 0.89844 0.37633 0.21481 0.0
C669 C 0.93077 0.37915 0.17735 0.0
C670 C 0.89794 0.36446 0.17969 0.0
C671 C 0.94258 0.37865 0.17055 0.0
C672 C 0.85959 0.3522 0.21993 0.0
C673 C 0.86971 0.35414 0.21086 0.0
C674 C 0.89813 0.37312 0.20497 0.0
C675 C 0.92146 0.36968 0.17609 0.0
C676 C 0.90935 0.36953 0.18428 0.0
C677 C 0.87551 0.36592 0.20929 0.0
C678 C 0.88692 0.36769 0.20047 0.0
H679 H 0.93776 0.35179 0.15424 0.0
H680 H 0.91736 0.35237 0.16636 0.0
H681 H 0.91785 0.37766 0.20104 0.0
H682 H 0.85722 0.3816 0.23142 0.0
H683 H 0.87512 0.38495 0.21568 0.0
C684 C 0.90062 0.53887 0.54123 0.0
C685 C 0.90933 0.52926 0.53972 0.0
C686 C 0.89197 0.5391 0.55188 0.0
C687 C 0.87794 0.52038 0.57931 0.0
H688 H 0.87504 0.55242 0.59569 0.0
C689 C 0.85447 0.52604 0.63034 0.0
C690 C 0.8463 0.53602 0.6321 0.0
C691 C 0.86219 0.52508 0.61904 0.0
C692 C 0.8756 0.54342 0.59118 0.0
H693 H 0.91532 0.51201 0.54785 0.0
H694 H 0.90044 0.51255 0.56653 0.0
H695 H 0.88733 0.5506 0.57542 0.0
H696 H 0.84033 0.55323 0.62399 0.0
H697 H 0.85359 0.55153 0.60422 0.0
H698 H 0.86629 0.51321 0.59519 0.0
C699 C 0.90018 0.51985 0.55944 0.0
C700 C 0.88262 0.54238 0.57951 0.0
C701 C 0.90878 0.51958 0.54875 0.0
C702 C 0.8464 0.54533 0.62272 0.0
C703 C 0.85412 0.54441 0.61147 0.0
C704 C 0.87091 0.52143 0.59101 0.0
C705 C 0.8919 0.52978 0.5613 0.0
C706 C 0.88388 0.53085 0.57342 0.0
C707 C 0.86196 0.53418 0.60938 0.0
C708 C 0.86965 0.53297 0.59708 0.0
H709 H 0.90068 0.54639 0.53436 0.0
H710 H 0.88551 0.54673 0.55286 0.0
H711 H 0.87863 0.51138 0.57484 0.0
H712 H 0.85462 0.51881 0.63752 0.0
H713 H 0.8683 0.51721 0.61785 0.0
C714 C 0.88011 0.46745 0.44067 0.0
C715 C 0.8706 0.47342 0.43416 0.0
C716 C 0.89017 0.47428 0.4457 0.0
C717 C 0.89748 0.50269 0.46067 0.0
H718 H 0.93304 0.49778 0.45041 0.0
C719 C 0.93776 0.53242 0.48178 0.0
C720 C 0.94953 0.52692 0.48352 0.0
C721 C 0.92824 0.52612 0.4753 0.0
C722 C 0.92318 0.49914 0.45358 0.0
H723 H 0.86411 0.49105 0.42757 0.0
H724 H 0.88159 0.50312 0.43683 0.0
H725 H 0.91634 0.48626 0.43967 0.0
H726 H 0.96062 0.51058 0.47998 0.0
H727 H 0.94382 0.49927 0.46923 0.0
H728 H 0.90413 0.51502 0.47502 0.0
C729 C 0.88131 0.49316 0.43783 0.0
C730 C 0.91365 0.49262 0.44731 0.0
C731 C 0.8714 0.48628 0.43251 0.0
C732 C 0.95161 0.51501 0.47873 0.0
C733 C 0.942 0.50859 0.47247 0.0
C734 C 0.907 0.50901 0.46714 0.0
C735 C 0.8907 0.48719 0.44452 0.0
C736 C 0.90075 0.49439 0.45079 0.0
C737 C 0.93019 0.51408 0.47058 0.0
C738 C 0.92001 0.50734 0.46368 0.0
H739 H 0.87967 0.45752 0.442 0.0
H740 H 0.8973 0.46953 0.45088 0.0
H741 H 0.88756 0.50405 0.4636 0.0
H742 H 0.93606 0.54174 0.48511 0.0
H743 H 0.91944 0.53081 0.47379 0.0
C744 C 0.54051 0.43482 0.90576 0.0
C745 C 0.54029 0.44519 0.89765 0.0
C746 C 0.54329 0.42317 0.90071 0.0
C747 C 0.55825 0.40777 0.8723 0.0
H748 H 0.53756 0.37941 0.88407 0.0
C749 C 0.5691 0.35817 0.85539 0.0
C750 C 0.55858 0.35078 0.85201 0.0
C751 C 0.56728 0.36947 0.86162 0.0
C752 C 0.54339 0.38725 0.88066 0.0
H753 H 0.54294 0.45147 0.87787 0.0
H754 H 0.54769 0.43116 0.86907 0.0
H755 H 0.53367 0.39967 0.89355 0.0
H756 H 0.53789 0.3494 0.85264 0.0
H757 H 0.53471 0.36919 0.86335 0.0
H758 H 0.56777 0.39542 0.8592 0.0
C759 C 0.54584 0.43204 0.87936 0.0
C760 C 0.54125 0.39883 0.88618 0.0
C761 C 0.54304 0.44368 0.8844 0.0
C762 C 0.54619 0.35488 0.85509 0.0
C763 C 0.54437 0.36618 0.86132 0.0
C764 C 0.56041 0.39619 0.86681 0.0
C765 C 0.54594 0.42165 0.88744 0.0
C766 C 0.54859 0.40924 0.88198 0.0
C767 C 0.55489 0.37363 0.8646 0.0
C768 C 0.55293 0.38582 0.87084 0.0
H769 H 0.5385 0.43567 0.91603 0.0
H770 H 0.54344 0.41537 0.90721 0.0
H771 H 0.56416 0.41559 0.86896 0.0
H772 H 0.57877 0.35523 0.85328 0.0
H773 H 0.57557 0.37491 0.86419 0.0
C774 C 0.63639 0.69891 0.83197 0.0
C775 C 0.64478 0.69153 0.82456 0.0
C776 C 0.63185 0.70983 0.82691 0.0
C777 C 0.62747 0.72621 0.79629 0.0
H778 H 0.62572 0.75513 0.81822 0.0
C779 C 0.60432 0.77143 0.78076 0.0
C780 C 0.61064 0.78257 0.78382 0.0
C781 C 0.60822 0.76021 0.78571 0.0
C782 C 0.62623 0.74716 0.81194 0.0
H783 H 0.65492 0.68979 0.80599 0.0
H784 H 0.6471 0.70891 0.79723 0.0
H785 H 0.63316 0.73577 0.82674 0.0
H786 H 0.62607 0.79064 0.79443 0.0
H787 H 0.63293 0.77108 0.80297 0.0
H788 H 0.62083 0.73769 0.78139 0.0
C789 C 0.64389 0.70617 0.80689 0.0
C790 C 0.63035 0.73602 0.81687 0.0
C791 C 0.64843 0.69525 0.81194 0.0
C792 C 0.62094 0.78224 0.79194 0.0
C793 C 0.62483 0.77103 0.79689 0.0
C794 C 0.62335 0.73735 0.79135 0.0
C795 C 0.6356 0.71362 0.81434 0.0
C796 C 0.63104 0.72541 0.8091 0.0
C797 C 0.61853 0.75988 0.79384 0.0
C798 C 0.62272 0.74797 0.79911 0.0
H799 H 0.63334 0.69629 0.8417 0.0
H800 H 0.62532 0.71526 0.83284 0.0
H801 H 0.62778 0.71818 0.79008 0.0
H802 H 0.59635 0.77137 0.77452 0.0
H803 H 0.60307 0.7518 0.78329 0.0
C804 C 0.90813 0.36897 0.10332 0.0
C805 C 0.92044 0.3663 0.09831 0.0
C806 C 0.89899 0.37349 0.09535 0.0
C807 C 0.89675 0.391 0.0654 0.0
H808 H 0.86054 0.38434 0.07206 0.0
C809 C 0.85851 0.42626 0.05601 0.0
C810 C 0.84606 0.4222 0.05343 0.0
C811 C 0.86802 0.41776 0.05794 0.0
C812 C 0.87061 0.38616 0.06984 0.0
H813 H 0.93259 0.36573 0.08084 0.0
H814 H 0.91655 0.37353 0.0669 0.0
H815 H 0.87595 0.37171 0.08237 0.0
H816 H 0.83414 0.40605 0.04972 0.0
H817 H 0.85083 0.3912 0.0529 0.0
H818 H 0.8914 0.40555 0.05299 0.0
C819 C 0.91406 0.37229 0.07704 0.0
C820 C 0.87945 0.37901 0.0759 0.0
C821 C 0.92322 0.36777 0.08503 0.0
C822 C 0.84361 0.40948 0.05181 0.0
C823 C 0.85315 0.40096 0.05373 0.0
C824 C 0.8879 0.39812 0.05929 0.0
C825 C 0.90191 0.37543 0.08216 0.0
C826 C 0.89262 0.38162 0.0741 0.0
C827 C 0.86533 0.40499 0.05728 0.0
C828 C 0.87472 0.39606 0.06177 0.0
H829 H 0.90565 0.36794 0.1135 0.0
H830 H 0.8898 0.37597 0.09967 0.0
H831 H 0.90682 0.3933 0.06382 0.0
H832 H 0.86075 0.436 0.05725 0.0
H833 H 0.87725 0.42122 0.06076 0.0
C834 C 0.61893 0.81541 0.75059 0.0
C835 C 0.61382 0.82004 0.73941 0.0
C836 C 0.62812 0.80628 0.74979 0.0
C837 C 0.65204 0.79232 0.72736 0.0
H838 H 0.64953 0.76495 0.75148 0.0
C839 C 0.68375 0.74984 0.72127 0.0
C840 C 0.68907 0.74526 0.73238 0.0
C841 C 0.67433 0.75874 0.72219 0.0
C842 C 0.65043 0.7726 0.74476 0.0
H843 H 0.61459 0.8192 0.71861 0.0
H844 H 0.63061 0.80318 0.71715 0.0
H845 H 0.63374 0.78114 0.75298 0.0
H846 H 0.68853 0.74629 0.75322 0.0
H847 H 0.67216 0.76191 0.75482 0.0
H848 H 0.66872 0.78381 0.71916 0.0
C849 C 0.62754 0.80658 0.72656 0.0
C850 C 0.64139 0.78188 0.74562 0.0
C851 C 0.61836 0.81571 0.72738 0.0
C852 C 0.68462 0.74962 0.74447 0.0
C853 C 0.67519 0.75853 0.74539 0.0
C854 C 0.66106 0.78305 0.7265 0.0
C855 C 0.63246 0.80168 0.73777 0.0
C856 C 0.64209 0.79184 0.73692 0.0
C857 C 0.67002 0.76327 0.73425 0.0
C858 C 0.66035 0.77307 0.73517 0.0
H859 H 0.61595 0.81899 0.75993 0.0
H860 H 0.63193 0.80293 0.75859 0.0
H861 H 0.65298 0.79998 0.72065 0.0
H862 H 0.68692 0.74663 0.71181 0.0
H863 H 0.6704 0.76207 0.71344 0.0
C864 C 0.68157 0.66082 0.83788 0.0
C865 C 0.68127 0.64785 0.8384 0.0
C866 C 0.68735 0.66702 0.82725 0.0
C867 C 0.69502 0.67768 0.80076 0.0
H868 H 0.72727 0.66508 0.78726 0.0
C869 C 0.7214 0.6961 0.75398 0.0
C870 C 0.73479 0.69702 0.75389 0.0
C871 C 0.71444 0.69073 0.76445 0.0
C872 C 0.71833 0.6688 0.79098 0.0
H873 H 0.68675 0.63119 0.82828 0.0
H874 H 0.69668 0.64197 0.80962 0.0
H875 H 0.71577 0.65442 0.805 0.0
H876 H 0.75139 0.69325 0.76472 0.0
H877 H 0.73927 0.68406 0.78305 0.0
H878 H 0.69778 0.69224 0.78686 0.0
C879 C 0.69254 0.64738 0.81745 0.0
C880 C 0.71164 0.66257 0.80104 0.0
C881 C 0.68681 0.6412 0.82809 0.0
C882 C 0.74107 0.69265 0.76453 0.0
C883 C 0.73413 0.68733 0.775 0.0
C884 C 0.70173 0.68392 0.79067 0.0
C885 C 0.69301 0.66037 0.81697 0.0
C886 C 0.69991 0.66693 0.80606 0.0
C887 C 0.72074 0.68612 0.775 0.0
C888 C 0.7135 0.67958 0.7857 0.0
H889 H 0.67781 0.6662 0.84591 0.0
H890 H 0.68775 0.67703 0.8273 0.0
H891 H 0.68596 0.68123 0.80436 0.0
H892 H 0.71633 0.69898 0.74574 0.0
H893 H 0.70416 0.68977 0.76406 0.0
C894 C 0.57507 0.41309 0.97799 0.0
C895 C 0.58468 0.41626 0.98642 0.0
C896 C 0.56881 0.42228 0.97148 0.0
C897 C 0.56241 0.44322 0.95356 0.0
H898 H 0.55301 0.47316 0.97176 0.0
C899 C 0.5449 0.48616 0.9275 0.0
C900 C 0.53462 0.49246 0.93337 0.0
C901 C 0.55074 0.47674 0.93404 0.0
C902 C 0.55547 0.46482 0.96657 0.0
H903 H 0.59514 0.43151 0.99481 0.0
H904 H 0.58431 0.44755 0.98338 0.0
H905 H 0.56351 0.45683 0.98304 0.0
H906 H 0.52266 0.49418 0.9508 0.0
H907 H 0.53282 0.47762 0.96226 0.0
H908 H 0.55418 0.45114 0.93713 0.0
C909 C 0.58154 0.43798 0.98184 0.0
C910 C 0.56163 0.45552 0.97299 0.0
C911 C 0.58779 0.42879 0.98834 0.0
C912 C 0.53051 0.4894 0.94603 0.0
C913 C 0.53636 0.47996 0.95259 0.0
C914 C 0.55626 0.45253 0.94713 0.0
C915 C 0.57196 0.43484 0.97335 0.0
C916 C 0.56523 0.44463 0.96655 0.0
C917 C 0.5465 0.47348 0.94663 0.0
C918 C 0.55277 0.46346 0.95355 0.0
H919 H 0.57209 0.40356 0.97671 0.0
H920 H 0.56129 0.41956 0.96522 0.0
H921 H 0.56513 0.435 0.94828 0.0
H922 H 0.54862 0.48869 0.91795 0.0
H923 H 0.55873 0.47215 0.92929 0.0
C924 C 0.80447 0.44404 0.10834 0.0
C925 C 0.79375 0.4402 0.10165 0.0
C926 C 0.80475 0.44228 0.12161 0.0
C927 C 0.79047 0.42134 0.14642 0.0
H928 H 0.81071 0.44135 0.16909 0.0
C929 C 0.79926 0.40538 0.19784 0.0
C930 C 0.81214 0.40578 0.20101 0.0
C931 C 0.79536 0.41165 0.18703 0.0
C932 C 0.80502 0.43568 0.16287 0.0
H933 H 0.77446 0.43251 0.10384 0.0
H934 H 0.77482 0.42974 0.12706 0.0
H935 H 0.8063 0.44918 0.14778 0.0
H936 H 0.83092 0.41357 0.19565 0.0
H937 H 0.82411 0.42445 0.17675 0.0
H938 H 0.7894 0.40775 0.16136 0.0
C939 C 0.78318 0.43377 0.12198 0.0
C940 C 0.8025 0.44015 0.15066 0.0
C941 C 0.78294 0.43544 0.10868 0.0
C942 C 0.82093 0.41303 0.19345 0.0
C943 C 0.81701 0.41934 0.18267 0.0
C944 C 0.79291 0.41693 0.15863 0.0
C945 C 0.79426 0.43674 0.12854 0.0
C946 C 0.79544 0.4329 0.14216 0.0
C947 C 0.80424 0.41851 0.17919 0.0
C948 C 0.80044 0.42392 0.16688 0.0
H949 H 0.81297 0.44777 0.10324 0.0
H950 H 0.81349 0.4446 0.12628 0.0
H951 H 0.7852 0.41538 0.14009 0.0
H952 H 0.79222 0.39995 0.2035 0.0
H953 H 0.78542 0.41095 0.18467 0.0
C954 C 0.86762 0.49729 0.49117 0.0
C955 C 0.86609 0.48438 0.49025 0.0
C956 C 0.8669 0.50311 0.50317 0.0
C957 C 0.8671 0.49753 0.53836 0.0
H958 H 0.84317 0.52428 0.54053 0.0
C959 C 0.8395 0.50989 0.58532 0.0
C960 C 0.83664 0.52227 0.58791 0.0
C961 C 0.84547 0.50656 0.5736 0.0
C962 C 0.85008 0.517 0.5401 0.0
H963 H 0.86335 0.46741 0.50124 0.0
H964 H 0.86205 0.47755 0.52212 0.0
H965 H 0.84995 0.51612 0.51958 0.0
H966 H 0.83821 0.54096 0.5804 0.0
H967 H 0.84875 0.53516 0.5599 0.0
H968 H 0.86692 0.49816 0.55891 0.0
C969 C 0.86385 0.48319 0.51359 0.0
C970 C 0.85398 0.51232 0.52807 0.0
C971 C 0.8645 0.47738 0.5016 0.0
C972 C 0.84008 0.53131 0.57859 0.0
C973 C 0.84614 0.52799 0.56686 0.0
C974 C 0.86323 0.50223 0.55039 0.0
C975 C 0.86473 0.49614 0.51449 0.0
C976 C 0.86223 0.5023 0.52708 0.0
C977 C 0.84881 0.51555 0.56419 0.0
C978 C 0.85438 0.51178 0.55142 0.0
H979 H 0.86895 0.50296 0.48261 0.0
H980 H 0.86777 0.51309 0.50357 0.0
H981 H 0.87365 0.48994 0.53789 0.0
H982 H 0.83701 0.50271 0.59232 0.0
H983 H 0.84719 0.49688 0.5718 0.0
C984 C 0.04004 0.26116 0.22546 0.0
C985 C 0.03425 0.24956 0.22326 0.0
C986 C 0.03646 0.27158 0.21871 0.0
C987 C 0.01043 0.28334 0.19953 0.0
H988 H 0.03607 0.30804 0.18844 0.0
C989 C 0.9996 0.32339 0.16547 0.0
C990 C 0.00393 0.33522 0.16912 0.0
C991 C 0.0036 0.31288 0.17178 0.0
C992 C 0.0288 0.30125 0.19156 0.0
H993 H 0.02025 0.23977 0.21215 0.0
H994 H 0.01423 0.25786 0.20017 0.0
H995 H 0.04242 0.28976 0.20002 0.0
H996 H 0.01604 0.34526 0.18204 0.0
H997 H 0.02308 0.32686 0.19298 0.0
H998 H 0.99685 0.2948 0.19091 0.0
C999 C 0.02133 0.25899 0.20731 0.0
C1000 C 0.03242 0.2908 0.19823 0.0
C1001 C 0.02484 0.24859 0.21413 0.0
C1002 C 0.01253 0.33628 0.17901 0.0
C1003 C 0.01661 0.32575 0.18524 0.0
C1004 C 0.00684 0.29374 0.19277 0.0
C1005 C 0.02708 0.27063 0.20953 0.0
C1006 C 0.02327 0.28172 0.20233 0.0
C1007 C 0.01208 0.31395 0.18177 0.0
C1008 C 0.01598 0.30282 0.18875 0.0
H1009 H 0.04728 0.26223 0.23248 0.0
H1010 H 0.04094 0.28042 0.22083 0.0
H1011 H 0.00309 0.27667 0.20274 0.0
H1012 H 0.99297 0.32226 0.15788 0.0
H1013 H 6e-05 0.30389 0.16881 0.0
C1014 C 0.07708 0.60429 0.39509 0.0
C1015 C 0.07175 0.61393 0.38825 0.0
C1016 C 0.07007 0.59836 0.40516 0.0
C1017 C 0.04315 0.6025 0.42859 0.0
H1018 H 0.04207 0.56669 0.43004 0.0
C1019 C 0.00776 0.57548 0.46297 0.0
C1020 C 0.0119 0.56458 0.4686 0.0
C1021 C 0.01539 0.58164 0.4535 0.0
C1022 C 0.04242 0.5767 0.42991 0.0
H1023 H 0.05491 0.62499 0.3867 0.0
H1024 H 0.0427 0.61466 0.40434 0.0
H1025 H 0.05488 0.5772 0.41298 0.0
H1026 H 0.02741 0.55172 0.46888 0.0
H1027 H 0.04086 0.56261 0.45258 0.0
H1028 H 0.03081 0.60205 0.44557 0.0
C1029 C 0.05232 0.61173 0.40192 0.0
C1030 C 0.04974 0.58271 0.42011 0.0
C1031 C 0.05929 0.61758 0.39177 0.0
C1032 C 0.02391 0.56006 0.46467 0.0
C1033 C 0.03159 0.56627 0.45527 0.0
C1034 C 0.03591 0.59649 0.43846 0.0
C1035 C 0.05762 0.60203 0.40869 0.0
C1036 C 0.05011 0.59567 0.4193 0.0
C1037 C 0.02739 0.57709 0.44949 0.0
C1038 C 0.03539 0.58351 0.4392 0.0
H1039 H 0.08666 0.60127 0.39261 0.0
H1040 H 0.07443 0.59098 0.41028 0.0
H1041 H 0.04341 0.6125 0.4283 0.0
H1042 H 0.99852 0.57917 0.46574 0.0
H1043 H 0.01175 0.58983 0.44914 0.0
C1044 C 0.57584 0.85881 0.68517 0.0
C1045 C 0.5839 0.86532 0.69334 0.0
C1046 C 0.57531 0.86218 0.67225 0.0
C1047 C 0.59372 0.87885 0.64622 0.0
H1048 H 0.56125 0.87877 0.62995 0.0
C1049 C 0.58771 0.89928 0.59561 0.0
C1050 C 0.5796 0.89282 0.58746 0.0
C1051 C 0.58853 0.89566 0.60843 0.0
C1052 C 0.57041 0.87869 0.63431 0.0
H1053 H 0.59763 0.88058 0.69437 0.0
H1054 H 0.59659 0.88654 0.67186 0.0
H1055 H 0.5619 0.87322 0.6526 0.0
H1056 H 0.56619 0.87732 0.58629 0.0
H1057 H 0.5677 0.87095 0.60862 0.0
H1058 H 0.60222 0.88438 0.62793 0.0
C1059 C 0.59081 0.87872 0.6754 0.0
C1060 C 0.57078 0.87552 0.6473 0.0
C1061 C 0.59134 0.87535 0.68833 0.0
C1062 C 0.5725 0.88252 0.59233 0.0
C1063 C 0.5733 0.87892 0.60515 0.0
C1064 C 0.59335 0.88204 0.63324 0.0
C1065 C 0.58284 0.87213 0.6672 0.0
C1066 C 0.58244 0.87556 0.65341 0.0
C1067 C 0.58123 0.88552 0.61338 0.0
C1068 C 0.58169 0.88199 0.62713 0.0
H1069 H 0.57002 0.85101 0.68872 0.0
H1070 H 0.56919 0.85682 0.66616 0.0
H1071 H 0.60289 0.87879 0.65059 0.0
H1072 H 0.59329 0.90727 0.59217 0.0
H1073 H 0.59463 0.90101 0.61455 0.0
C1074 C 0.47354 0.17827 0.85232 0.0
C1075 C 0.47732 0.16591 0.85258 0.0
C1076 C 0.48246 0.18776 0.8493 0.0
C1077 C 0.51676 0.19558 0.84876 0.0
H1078 H 0.50834 0.2208 0.82434 0.0
C1079 C 0.55421 0.23158 0.82884 0.0
C1080 C 0.55018 0.24368 0.82691 0.0
C1081 C 0.54534 0.22208 0.83203 0.0
C1082 C 0.51079 0.21394 0.83132 0.0
H1083 H 0.49345 0.15383 0.85001 0.0
H1084 H 0.50903 0.17045 0.84482 0.0
H1085 H 0.49281 0.20433 0.82999 0.0
H1086 H 0.53367 0.25536 0.82694 0.0
H1087 H 0.51823 0.23889 0.83279 0.0
H1088 H 0.53466 0.20525 0.85025 0.0
C1089 C 0.49917 0.17277 0.84698 0.0
C1090 C 0.50189 0.20449 0.83453 0.0
C1091 C 0.49023 0.16326 0.84989 0.0
C1092 C 0.53708 0.24611 0.82829 0.0
C1093 C 0.52822 0.23664 0.83157 0.0
C1094 C 0.52563 0.20509 0.84563 0.0
C1095 C 0.49536 0.18512 0.84659 0.0
C1096 C 0.50479 0.1952 0.84326 0.0
C1097 C 0.53223 0.22449 0.83345 0.0
C1098 C 0.52277 0.21439 0.83685 0.0
H1099 H 0.46367 0.18062 0.85435 0.0
H1100 H 0.47927 0.1972 0.8492 0.0
H1101 H 0.51919 0.18862 0.85565 0.0
H1102 H 0.56423 0.22939 0.82779 0.0
H1103 H 0.54876 0.21281 0.8332 0.0
C1104 C 0.11867 0.87127 0.22568 0.0
C1105 C 0.11531 0.85869 0.22464 0.0
C1106 C 0.11155 0.88024 0.21984 0.0
C1107 C 0.08068 0.88482 0.20402 0.0
H1108 H 0.09857 0.91422 0.1906 0.0
C1109 C 0.06104 0.91926 0.1673 0.0
C1110 C 0.06104 0.93164 0.17137 0.0
C1111 C 0.06708 0.91031 0.17436 0.0
C1112 C 0.09347 0.90607 0.19437 0.0
H1113 H 0.10191 0.84561 0.21664 0.0
H1114 H 0.08987 0.86115 0.20588 0.0
H1115 H 0.11033 0.89862 0.20162 0.0
H1116 H 0.06738 0.94438 0.18596 0.0
H1117 H 0.07831 0.92876 0.19805 0.0
H1118 H 0.06393 0.89217 0.19609 0.0
C1119 C 0.0977 0.86421 0.21159 0.0
C1120 C 0.10016 0.89715 0.20079 0.0
C1121 C 0.10465 0.85526 0.21768 0.0
C1122 C 0.06718 0.9349 0.18263 0.0
C1123 C 0.07347 0.92601 0.18951 0.0
C1124 C 0.07405 0.89363 0.19734 0.0
C1125 C 0.10106 0.87685 0.21254 0.0
C1126 C 0.09386 0.8864 0.20576 0.0
C1127 C 0.07346 0.91365 0.18543 0.0
C1128 C 0.0804 0.90433 0.19252 0.0
H1129 H 0.12677 0.87418 0.23111 0.0
H1130 H 0.11429 0.88986 0.22112 0.0
H1131 H 0.0754 0.87683 0.2079 0.0
H1132 H 0.05635 0.91649 0.15868 0.0
H1133 H 0.06702 0.90083 0.17102 0.0
C1134 C 0.22339 0.85927 0.43151 0.0
C1135 C 0.21833 0.84773 0.43563 0.0
C1136 C 0.23651 0.86178 0.43147 0.0
C1137 C 0.26776 0.84627 0.43275 0.0
H1138 H 0.28001 0.87965 0.43938 0.0
C1139 C 0.32072 0.86054 0.4408 0.0
C1140 C 0.32549 0.87064 0.43338 0.0
C1141 C 0.30775 0.85716 0.44089 0.0
C1142 C 0.2767 0.8703 0.43745 0.0
H1143 H 0.223 0.82984 0.44318 0.0
H1144 H 0.24587 0.83436 0.44364 0.0
H1145 H 0.25715 0.87498 0.44063 0.0
H1146 H 0.32049 0.88503 0.42015 0.0
H1147 H 0.2978 0.87927 0.42057 0.0
H1148 H 0.28749 0.84162 0.43 0.0
C1149 C 0.23977 0.84138 0.44005 0.0
C1150 C 0.2636 0.86761 0.43809 0.0
C1151 C 0.22664 0.8388 0.43989 0.0
C1152 C 0.3171 0.87718 0.42593 0.0
C1153 C 0.30412 0.87394 0.42622 0.0
C1154 C 0.2809 0.84893 0.43233 0.0
C1155 C 0.2449 0.85288 0.43576 0.0
C1156 C 0.25892 0.85559 0.4356 0.0
C1157 C 0.29931 0.86398 0.43378 0.0
C1158 C 0.28546 0.861 0.43454 0.0
H1159 H 0.21723 0.86631 0.42805 0.0
H1160 H 0.24007 0.87064 0.42782 0.0
H1161 H 0.26456 0.83695 0.43056 0.0
H1162 H 0.32697 0.85532 0.44662 0.0
H1163 H 0.30424 0.84946 0.44683 0.0
C1164 C 0.35797 0.07839 0.67423 0.0
C1165 C 0.36179 0.09083 0.67244 0.0
C1166 C 0.36215 0.06937 0.66551 0.0
C1167 C 0.38691 0.06337 0.63972 0.0
H1168 H 0.36292 0.03767 0.62984 0.0
C1169 C 0.39662 0.03099 0.59637 0.0
C1170 C 0.39318 0.01844 0.598 0.0
C1171 C 0.3932 0.03962 0.60584 0.0
C1172 C 0.36977 0.0447 0.63261 0.0
H1173 H 0.37303 0.10355 0.66009 0.0
H1174 H 0.38014 0.08786 0.64477 0.0
H1175 H 0.35615 0.05312 0.6456 0.0
H1176 H 0.38354 0.00508 0.6109 0.0
H1177 H 0.37757 0.02016 0.62741 0.0
H1178 H 0.40047 0.05501 0.62656 0.0
C1179 C 0.37408 0.08502 0.65303 0.0
C1180 C 0.36591 0.05355 0.64166 0.0
C1181 C 0.36994 0.09404 0.66178 0.0
C1182 C 0.38632 0.01468 0.60934 0.0
C1183 C 0.38284 0.02333 0.61877 0.0
C1184 C 0.39076 0.05454 0.63063 0.0
C1185 C 0.37021 0.07258 0.65477 0.0
C1186 C 0.37442 0.06302 0.64531 0.0
C1187 C 0.3862 0.0359 0.6171 0.0
C1188 C 0.38222 0.04513 0.62695 0.0
H1189 H 0.35175 0.0756 0.68239 0.0
H1190 H 0.35914 0.05985 0.66726 0.0
H1191 H 0.39378 0.0704 0.64246 0.0
H1192 H 0.40189 0.03419 0.58775 0.0
H1193 H 0.39581 0.04926 0.60421 0.0
C1194 C 0.22479 0.05822 0.08964 0.0
C1195 C 0.21492 0.06669 0.08879 0.0
C1196 C 0.23067 0.05329 0.07852 0.0
C1197 C 0.23553 0.05838 0.0434 0.0
H1198 H 0.24275 0.02342 0.04286 0.0
C1199 C 0.24939 0.03224 0.9966 0.0
C1200 C 0.25914 0.0236 0.99713 0.0
C1201 C 0.24442 0.03776 0.00784 0.0
C1202 C 0.24094 0.03323 0.0429 0.0
H1203 H 0.20359 0.07672 0.07559 0.0
H1204 H 0.21374 0.06801 0.0562 0.0
H1205 H 0.23339 0.03264 0.06237 0.0
H1206 H 0.27136 0.01404 0.00988 0.0
H1207 H 0.2627 0.02371 0.02948 0.0
H1208 H 0.24297 0.05892 0.02387 0.0
C1209 C 0.21705 0.06529 0.06545 0.0
C1210 C 0.23558 0.03852 0.05409 0.0
C1211 C 0.21118 0.07024 0.07658 0.0
C1212 C 0.26383 0.02063 0.00914 0.0
C1213 C 0.25883 0.02613 0.02038 0.0
C1214 C 0.24086 0.05308 0.0322 0.0
C1215 C 0.22682 0.0567 0.06629 0.0
C1216 C 0.23278 0.05115 0.05447 0.0
C1217 C 0.24905 0.03474 0.01986 0.0
C1218 C 0.24359 0.04044 0.03182 0.0
H1219 H 0.22794 0.05533 0.09891 0.0
H1220 H 0.23829 0.04683 0.0795 0.0
H1221 H 0.23368 0.06818 0.04343 0.0
H1222 H 0.24555 0.03472 0.9875 0.0
H1223 H 0.23679 0.04425 0.00713 0.0
C1224 C 0.64796 0.40763 0.0347 0.0
C1225 C 0.64471 0.40243 0.0229 0.0
C1226 C 0.66069 0.41048 0.03709 0.0
C1227 C 0.68739 0.42189 0.03707 0.0
H1228 H 0.71367 0.39921 0.02573 0.0
C1229 C 0.74097 0.43343 0.04192 0.0
C1230 C 0.74862 0.42383 0.04595 0.0
C1231 C 0.72843 0.43098 0.03852 0.0
C1232 C 0.70644 0.4056 0.02903 0.0
H1233 H 0.65227 0.39628 0.00428 0.0
H1234 H 0.67447 0.40143 0.00836 0.0
H1235 H 0.69148 0.39459 0.02122 0.0
H1236 H 0.74913 0.4041 0.0495 0.0
H1237 H 0.72722 0.39986 0.04377 0.0
H1238 H 0.70229 0.4327 0.04523 0.0
C1239 C 0.6672 0.40312 0.01587 0.0
C1240 C 0.69373 0.40303 0.02631 0.0
C1241 C 0.65446 0.40023 0.01349 0.0
C1242 C 0.74351 0.41171 0.04639 0.0
C1243 C 0.73096 0.40926 0.04303 0.0
C1244 C 0.7001 0.42444 0.03982 0.0
C1245 C 0.67048 0.40824 0.02771 0.0
C1246 C 0.68404 0.41112 0.03034 0.0
C1247 C 0.72324 0.41887 0.03911 0.0
C1248 C 0.70977 0.4163 0.03588 0.0
H1249 H 0.64068 0.4094 0.04217 0.0
H1250 H 0.66289 0.41425 0.04638 0.0
H1251 H 0.6802 0.42839 0.04019 0.0
H1252 H 0.74465 0.44287 0.04141 0.0
H1253 H 0.72282 0.43857 0.03535 0.0
C1254 C 0.82721 0.38326 0.29152 0.0
C1255 C 0.83177 0.37118 0.29205 0.0
C1256 C 0.82852 0.39132 0.30188 0.0
C1257 C 0.84652 0.39626 0.33132 0.0
H1258 H 0.8183 0.41729 0.3412 0.0
C1259 C 0.84293 0.42268 0.37961 0.0
C1260 C 0.83845 0.4348 0.37938 0.0
C1261 C 0.84279 0.41529 0.3686 0.0
C1262 C 0.82633 0.41159 0.33847 0.0
H1263 H 0.84129 0.3581 0.30387 0.0
H1264 H 0.84335 0.37209 0.32203 0.0
H1265 H 0.81667 0.40363 0.32273 0.0
H1266 H 0.83053 0.44876 0.36733 0.0
H1267 H 0.83029 0.43586 0.34813 0.0
H1268 H 0.85608 0.40412 0.34722 0.0
C1269 C 0.83897 0.37541 0.31352 0.0
C1270 C 0.8254 0.40376 0.32787 0.0
C1271 C 0.83771 0.36736 0.30314 0.0
C1272 C 0.83402 0.43945 0.36785 0.0
C1273 C 0.83381 0.43204 0.35686 0.0
C1274 C 0.84742 0.40406 0.34196 0.0
C1275 C 0.83436 0.38749 0.31303 0.0
C1276 C 0.83547 0.39597 0.32418 0.0
C1277 C 0.83809 0.41984 0.35715 0.0
C1278 C 0.83732 0.41178 0.34566 0.0
H1279 H 0.82265 0.38651 0.28309 0.0
H1280 H 0.82503 0.40061 0.30109 0.0
H1281 H 0.85454 0.39054 0.32862 0.0
H1282 H 0.84641 0.41882 0.38834 0.0
H1283 H 0.84604 0.4059 0.36916 0.0
C1284 C 0.77639 0.66269 0.69665 0.0
C1285 C 0.78291 0.67016 0.70536 0.0
C1286 C 0.78114 0.65122 0.6929 0.0
C1287 C 0.8017 0.6268 0.70408 0.0
H1288 H 0.79997 0.61463 0.66916 0.0
C1289 C 0.82293 0.5802 0.68847 0.0
C1290 C 0.81563 0.57269 0.68047 0.0
C1291 C 0.81953 0.59239 0.69101 0.0
C1292 C 0.80041 0.61786 0.67898 0.0
H1293 H 0.79973 0.67162 0.71664 0.0
H1294 H 0.80806 0.65165 0.71001 0.0
H1295 H 0.79315 0.63554 0.67428 0.0
H1296 H 0.79907 0.57211 0.66876 0.0
H1297 H 0.79304 0.59333 0.67332 0.0
H1298 H 0.80879 0.60911 0.70883 0.0
C1299 C 0.79919 0.65459 0.70622 0.0
C1300 C 0.79652 0.62984 0.6819 0.0
C1301 C 0.79445 0.66606 0.70996 0.0
C1302 C 0.80491 0.57766 0.67496 0.0
C1303 C 0.8015 0.58985 0.67751 0.0
C1304 C 0.80557 0.61484 0.70116 0.0
C1305 C 0.7925 0.64697 0.69779 0.0
C1306 C 0.79707 0.63442 0.6945 0.0
C1307 C 0.80874 0.59735 0.6856 0.0
C1308 C 0.80492 0.6102 0.68859 0.0
H1309 H 0.76747 0.66557 0.69293 0.0
H1310 H 0.7757 0.64552 0.68648 0.0
H1311 H 0.80203 0.62998 0.71393 0.0
H1312 H 0.83129 0.57668 0.69281 0.0
H1313 H 0.82541 0.59797 0.69714 0.0
C1314 C 0.63484 0.59338 0.8687 0.0
C1315 C 0.63742 0.60454 0.87507 0.0
C1316 C 0.62295 0.58734 0.87052 0.0
C1317 C 0.58961 0.59149 0.88377 0.0
H1318 H 0.5901 0.55588 0.88774 0.0
C1319 C 0.54843 0.56245 0.90865 0.0
C1320 C 0.54515 0.55108 0.90302 0.0
C1321 C 0.55898 0.56942 0.90379 0.0
C1322 C 0.58978 0.5658 0.88648 0.0
H1323 H 0.62944 0.61829 0.88808 0.0
H1324 H 0.60885 0.60763 0.89154 0.0
H1325 H 0.60982 0.56726 0.88182 0.0
H1326 H 0.55021 0.53823 0.88772 0.0
H1327 H 0.5687 0.55038 0.87932 0.0
H1328 H 0.56959 0.58998 0.88891 0.0
C1329 C 0.61589 0.60363 0.88493 0.0
C1330 C 0.60108 0.57234 0.88305 0.0
C1331 C 0.62774 0.60972 0.883 0.0
C1332 C 0.55249 0.54695 0.89228 0.0
C1333 C 0.56312 0.55387 0.8875 0.0
C1334 C 0.57832 0.58494 0.88732 0.0
C1335 C 0.6134 0.59226 0.87886 0.0
C1336 C 0.60118 0.58528 0.88174 0.0
C1337 C 0.56654 0.56512 0.89329 0.0
C1338 C 0.57831 0.57204 0.88881 0.0
H1339 H 0.64207 0.5892 0.86243 0.0
H1340 H 0.6213 0.57875 0.86548 0.0
H1341 H 0.58928 0.60142 0.88264 0.0
H1342 H 0.54295 0.5659 0.91692 0.0
H1343 H 0.56146 0.57801 0.90852 0.0
loop_
_geom_bond_atom_site_label_1
_geom_bond_atom_site_label_2
_geom_bond_distance
_geom_bond_site_symmetry_2
_ccdc_geom_bond_type
O0 Cd1 2.300 . S
O0 C7 1.275 . S
Cd1 O0 2.300 . S
Cd1 O9 2.381 . S
Cd1 O10 2.378 . S
O2 Cd3 2.385 . S
O2 C7 1.255 . S
Cd3 O2 2.385 . S
Cd3 O4 2.317 . S
O4 Cd3 2.317 . S
O4 C5 1.232 . S
C5 O4 1.232 . S
C5 O6 1.218 . S
O6 C5 1.218 . S
C7 O0 1.275 . S
C7 O2 1.255 . S
C8 O9 1.258 . S
C8 O10 1.256 . S
O9 Cd1 2.381 . S
O9 C8 1.258 . S
O10 Cd1 2.378 . S
O10 C8 1.256 . S
O11 Cd12 2.300 . S
O11 C18 1.275 . S
Cd12 O11 2.300 . S
Cd12 O20 2.381 . S
Cd12 O21 2.378 . S
O13 Cd14 2.385 . S
O13 C18 1.255 . S
Cd14 O13 2.385 . S
Cd14 O15 2.317 . S
O15 Cd14 2.317 . S
O15 C16 1.232 . S
C16 O15 1.232 . S
C16 O17 1.218 . S
O17 C16 1.218 . S
C18 O11 1.275 . S
C18 O13 1.255 . S
C19 O20 1.258 . S
C19 O21 1.256 . S
O20 Cd12 2.381 . S
O20 C19 1.258 . S
O21 Cd12 2.378 . S
O21 C19 1.256 . S
O22 Cd23 2.300 . S
O22 C29 1.275 . S
Cd23 O22 2.300 . S
Cd23 O31 2.381 . S
Cd23 O32 2.378 . S
O24 Cd25 2.385 . S
O24 C29 1.255 . S
Cd25 O24 2.385 . S
Cd25 O26 2.317 . S
O26 Cd25 2.317 . S
O26 C27 1.232 . S
C27 O26 1.232 . S
C27 O28 1.218 . S
O28 C27 1.218 . S
C29 O22 1.275 . S
C29 O24 1.255 . S
C30 O31 1.258 . S
C30 O32 1.256 . S
O31 Cd23 2.381 . S
O31 C30 1.258 . S
O32 Cd23 2.378 . S
O32 C30 1.256 . S
O33 Cd34 2.300 . S
O33 C40 1.275 . S
Cd34 O33 2.300 . S
Cd34 O42 2.381 . S
Cd34 O43 2.378 . S
O35 Cd36 2.385 . S
O35 C40 1.255 . S
Cd36 O35 2.385 . S
Cd36 O37 2.317 . S
O37 Cd36 2.317 . S
O37 C38 1.232 . S
C38 O37 1.232 . S
C38 O39 1.218 . S
O39 C38 1.218 . S
C40 O33 1.275 . S
C40 O35 1.255 . S
C41 O42 1.258 . S
C41 O43 1.256 . S
O42 Cd34 2.381 . S
O42 C41 1.258 . S
O43 Cd34 2.378 . S
O43 C41 1.256 . S
O44 Cd45 2.300 . S
O44 C51 1.275 1_565 S
Cd45 O44 2.300 . S
Cd45 O53 2.381 . S
Cd45 O54 2.378 . S
O46 Cd47 2.385 . S
O46 C51 1.255 . S
Cd47 O46 2.385 . S
Cd47 O48 2.317 . S
O48 Cd47 2.317 . S
O48 C49 1.232 . S
C49 O48 1.232 . S
C49 O50 1.218 . S
O50 C49 1.218 . S
C51 O44 1.275 1_545 S
C51 O46 1.255 . S
C52 O53 1.258 . S
C52 O54 1.256 . S
O53 Cd45 2.381 . S
O53 C52 1.258 . S
O54 Cd45 2.378 . S
O54 C52 1.256 . S
O55 Cd56 2.300 . S
O55 C62 1.275 . S
Cd56 O55 2.300 . S
Cd56 O64 2.381 . S
Cd56 O65 2.378 . S
O57 Cd58 2.385 . S
O57 C62 1.255 . S
Cd58 O57 2.385 . S
Cd58 O59 2.317 . S
O59 Cd58 2.317 . S
O59 C60 1.232 . S
C60 O59 1.232 . S
C60 O61 1.218 . S
O61 C60 1.218 . S
C62 O55 1.275 . S
C62 O57 1.255 . S
C63 O64 1.258 . S
C63 O65 1.256 . S
O64 Cd56 2.381 . S
O64 C63 1.258 . S
O65 Cd56 2.378 . S
O65 C63 1.256 . S
O66 Cd67 2.300 1_565 S
O66 C73 1.275 . S
Cd67 O66 2.300 1_545 S
Cd67 O75 2.381 . S
Cd67 O76 2.378 . S
O68 Cd69 2.386 . S
O68 C73 1.254 1_545 S
Cd69 O68 2.386 . S
Cd69 O70 2.304 1_545 S
O70 Cd69 2.304 1_565 S
O70 C71 1.257 . S
C71 O70 1.257 . S
C71 O72 1.218 . S
O72 C71 1.218 . S
C73 O66 1.275 . S
C73 O68 1.254 1_565 S
C74 O75 1.258 . S
C74 O76 1.256 . S
O75 Cd67 2.381 . S
O75 C74 1.258 . S
O76 Cd67 2.378 . S
O76 C74 1.256 . S
O77 Cd78 2.300 . S
O77 C84 1.275 . S
Cd78 O77 2.300 . S
Cd78 O86 2.381 . S
Cd78 O87 2.378 . S
O79 Cd80 2.385 . S
O79 C84 1.255 . S
Cd80 O79 2.385 . S
Cd80 O81 2.317 . S
O81 Cd80 2.317 . S
O81 C82 1.232 . S
C82 O81 1.232 . S
C82 O83 1.218 . S
O83 C82 1.218 . S
C84 O77 1.275 . S
C84 O79 1.255 . S
C85 O86 1.258 . S
C85 O87 1.256 . S
O86 Cd78 2.381 . S
O86 C85 1.258 . S
O87 Cd78 2.378 . S
O87 C85 1.256 . S
O88 Cd89 2.300 . S
O88 C95 1.275 . S
Cd89 O88 2.300 . S
Cd89 O97 2.381 . S
Cd89 O98 2.378 . S
O90 Cd91 2.385 . S
O90 C95 1.255 . S
Cd91 O90 2.385 . S
Cd91 O92 2.317 . S
O92 Cd91 2.317 . S
O92 C93 1.232 . S
C93 O92 1.232 . S
C93 O94 1.218 . S
O94 C93 1.218 . S
C95 O88 1.275 . S
C95 O90 1.255 . S
C96 O97 1.258 . S
C96 O98 1.256 . S
O97 Cd89 2.381 . S
O97 C96 1.258 . S
O98 Cd89 2.378 . S
O98 C96 1.256 . S
O99 Cd100 2.300 . S
O99 C106 1.275 . S
Cd100 O99 2.300 . S
Cd100 O108 2.381 . S
Cd100 O109 2.378 . S
O101 Cd102 2.385 . S
O101 C106 1.255 . S
Cd102 O101 2.385 . S
Cd102 O103 2.317 . S
O103 Cd102 2.317 . S
O103 C104 1.232 . S
C104 O103 1.232 . S
C104 O105 1.218 . S
O105 C104 1.218 . S
C106 O99 1.275 . S
C106 O101 1.255 . S
C107 O108 1.258 . S
C107 O109 1.256 . S
O108 Cd100 2.381 . S
O108 C107 1.258 . S
O109 Cd100 2.378 . S
O109 C107 1.256 . S
O110 Cd111 2.300 . S
O110 C117 1.275 . S
Cd111 O110 2.300 . S
Cd111 O119 2.381 . S
Cd111 O120 2.378 . S
O112 Cd113 2.385 . S
O112 C117 1.255 . S
Cd113 O112 2.385 . S
Cd113 O114 2.317 . S
O114 Cd113 2.317 . S
O114 C115 1.232 . S
C115 O114 1.232 . S
C115 O116 1.218 . S
O116 C115 1.218 . S
C117 O110 1.275 . S
C117 O112 1.255 . S
C118 O119 1.258 . S
C118 O120 1.256 . S
O119 Cd111 2.381 . S
O119 C118 1.258 . S
O120 Cd111 2.378 . S
O120 C118 1.256 . S
O121 Cd122 2.300 . S
O121 C128 1.275 . S
Cd122 O121 2.300 . S
Cd122 O130 2.381 . S
Cd122 O131 2.378 . S
O123 Cd124 2.385 . S
O123 C128 1.255 . S
Cd124 O123 2.385 . S
Cd124 O125 2.317 . S
O125 Cd124 2.317 . S
O125 C126 1.232 . S
C126 O125 1.232 . S
C126 O127 1.218 . S
O127 C126 1.218 . S
C128 O121 1.275 . S
C128 O123 1.255 . S
C129 O130 1.258 . S
C129 O131 1.256 . S
O130 Cd122 2.381 . S
O130 C129 1.258 . S
O131 Cd122 2.378 . S
O131 C129 1.256 . S
O132 Cd133 2.300 1_556 S
O132 C139 1.275 . S
Cd133 O132 2.300 1_554 S
Cd133 O141 2.381 . S
Cd133 O142 2.378 . S
O134 Cd135 2.396 . S
O134 C139 1.255 . S
Cd135 O134 2.396 . S
Cd135 O136 2.341 . S
O136 Cd135 2.341 . S
O136 C137 1.232 . S
C137 O136 1.232 . S
C137 O138 1.218 . S
O138 C137 1.218 . S
C139 O132 1.275 . S
C139 O134 1.255 . S
C140 O141 1.258 . S
C140 O142 1.256 . S
O141 Cd133 2.381 . S
O141 C140 1.258 . S
O142 Cd133 2.378 . S
O142 C140 1.256 . S
O143 Cd144 2.300 . S
O143 C150 1.275 . S
Cd144 O143 2.300 . S
Cd144 O152 2.381 . S
Cd144 O153 2.378 . S
O145 Cd146 2.385 . S
O145 C150 1.255 . S
Cd146 O145 2.385 . S
Cd146 O147 2.317 . S
O147 Cd146 2.317 . S
O147 C148 1.232 . S
C148 O147 1.232 . S
C148 O149 1.218 . S
O149 C148 1.218 . S
C150 O143 1.275 . S
C150 O145 1.255 . S
C151 O152 1.258 . S
C151 O153 1.256 . S
O152 Cd144 2.381 . S
O152 C151 1.258 . S
O153 Cd144 2.378 . S
O153 C151 1.256 . S
O154 Cd155 2.300 . S
O154 C161 1.275 . S
Cd155 O154 2.300 . S
Cd155 O163 2.381 . S
Cd155 O164 2.378 . S
O156 Cd157 2.385 . S
O156 C161 1.255 . S
Cd157 O156 2.385 . S
Cd157 O158 2.317 . S
O158 Cd157 2.317 . S
O158 C159 1.232 . S
C159 O158 1.232 . S
C159 O160 1.218 . S
O160 C159 1.218 . S
C161 O154 1.275 . S
C161 O156 1.255 . S
C162 O163 1.258 . S
C162 O164 1.256 . S
O163 Cd155 2.381 . S
O163 C162 1.258 . S
O164 Cd155 2.378 . S
O164 C162 1.256 . S
O165 Cd166 2.300 . S
O165 C172 1.275 . S
Cd166 O165 2.300 . S
Cd166 O174 2.381 . S
Cd166 O175 2.378 . S
O167 Cd168 2.385 . S
O167 C172 1.255 . S
Cd168 O167 2.385 . S
Cd168 O169 2.317 . S
O169 Cd168 2.317 . S
O169 C170 1.232 . S
C170 O169 1.232 . S
C170 O171 1.218 . S
O171 C170 1.218 . S
C172 O165 1.275 . S
C172 O167 1.255 . S
C173 O174 1.258 . S
C173 O175 1.256 . S
O174 Cd166 2.381 . S
O174 C173 1.258 . S
O175 Cd166 2.378 . S
O175 C173 1.256 . S
O176 Cd177 2.300 . S
O176 C183 1.275 . S
Cd177 O176 2.300 . S
Cd177 O185 2.381 . S
Cd177 O186 2.378 . S
O178 Cd179 2.385 . S
O178 C183 1.255 . S
Cd179 O178 2.385 . S
Cd179 O180 2.317 . S
O180 Cd179 2.317 . S
O180 C181 1.232 . S
C181 O180 1.232 . S
C181 O182 1.218 . S
O182 C181 1.218 . S
C183 O176 1.275 . S
C183 O178 1.255 . S
C184 O185 1.258 . S
C184 O186 1.256 . S
O185 Cd177 2.381 . S
O185 C184 1.258 . S
O186 Cd177 2.378 . S
O186 C184 1.256 . S
O187 Cd188 2.300 . S
O187 C194 1.275 . S
Cd188 O187 2.300 . S
Cd188 O196 2.381 . S
Cd188 O197 2.378 . S
O189 Cd190 2.385 . S
O189 C194 1.255 . S
Cd190 O189 2.385 . S
Cd190 O191 2.317 . S
O191 Cd190 2.317 . S
O191 C192 1.232 . S
C192 O191 1.232 . S
C192 O193 1.218 . S
O193 C192 1.218 . S
C194 O187 1.275 . S
C194 O189 1.255 . S
C195 O196 1.258 . S
C195 O197 1.256 . S
O196 Cd188 2.381 . S
O196 C195 1.258 . S
O197 Cd188 2.378 . S
O197 C195 1.256 . S
O198 Cd199 2.300 . S
O198 C205 1.275 . S
Cd199 O198 2.300 . S
Cd199 O207 2.381 . S
Cd199 O208 2.378 . S
O200 Cd201 2.385 . S
O200 C205 1.255 . S
Cd201 O200 2.385 . S
Cd201 O202 2.317 . S
O202 Cd201 2.317 . S
O202 C203 1.232 . S
C203 O202 1.232 . S
C203 O204 1.218 . S
O204 C203 1.218 . S
C205 O198 1.275 . S
C205 O200 1.255 . S
C206 O207 1.258 . S
C206 O208 1.256 . S
O207 Cd199 2.381 . S
O207 C206 1.258 . S
O208 Cd199 2.378 . S
O208 C206 1.256 . S
O209 Cd210 2.300 . S
O209 C216 1.275 . S
Cd210 O209 2.300 . S
Cd210 O218 2.381 . S
Cd210 O219 2.378 . S
O211 Cd212 2.385 . S
O211 C216 1.255 . S
Cd212 O211 2.385 . S
Cd212 O213 2.317 . S
O213 Cd212 2.317 . S
O213 C214 1.232 . S
C214 O213 1.232 . S
C214 O215 1.218 . S
O215 C214 1.218 . S
C216 O209 1.275 . S
C216 O211 1.255 . S
C217 O218 1.258 . S
C217 O219 1.256 . S
O218 Cd210 2.381 . S
O218 C217 1.258 . S
O219 Cd210 2.378 . S
O219 C217 1.256 . S
O220 Cd221 2.300 . S
O220 C227 1.275 . S
Cd221 O220 2.300 . S
Cd221 O229 2.381 . S
Cd221 O230 2.378 . S
O222 Cd223 2.385 . S
O222 C227 1.255 . S
Cd223 O222 2.385 . S
Cd223 O224 2.317 . S
O224 Cd223 2.317 . S
O224 C225 1.232 . S
C225 O224 1.232 . S
C225 O226 1.218 . S
O226 C225 1.218 . S
C227 O220 1.275 . S
C227 O222 1.255 . S
C228 O229 1.258 . S
C228 O230 1.256 . S
O229 Cd221 2.381 . S
O229 C228 1.258 . S
O230 Cd221 2.378 . S
O230 C228 1.256 . S
O231 Cd232 2.300 . S
O231 C238 1.275 . S
Cd232 O231 2.300 . S
Cd232 O240 2.381 . S
Cd232 O241 2.378 . S
O233 Cd234 2.385 . S
O233 C238 1.255 . S
Cd234 O233 2.385 . S
Cd234 O235 2.317 . S
O235 Cd234 2.317 . S
O235 C236 1.232 . S
C236 O235 1.232 . S
C236 O237 1.218 . S
O237 C236 1.218 . S
C238 O231 1.275 . S
C238 O233 1.255 . S
C239 O240 1.258 . S
C239 O241 1.256 . S
O240 Cd232 2.381 . S
O240 C239 1.258 . S
O241 Cd232 2.378 . S
O241 C239 1.256 . S
O242 Cd243 2.300 . S
O242 C249 1.275 . S
Cd243 O242 2.300 . S
Cd243 O251 2.381 . S
Cd243 O252 2.378 . S
O244 Cd245 2.385 . S
O244 C249 1.255 . S
Cd245 O244 2.385 . S
Cd245 O246 2.317 . S
O246 Cd245 2.317 . S
O246 C247 1.232 . S
C247 O246 1.232 . S
C247 O248 1.218 . S
O248 C247 1.218 . S
C249 O242 1.275 . S
C249 O244 1.255 . S
C250 O251 1.258 . S
C250 O252 1.256 . S
O251 Cd243 2.381 . S
O251 C250 1.258 . S
O252 Cd243 2.378 . S
O252 C250 1.256 . S
O253 Cd254 2.300 . S
O253 C260 1.275 . S
Cd254 O253 2.300 . S
Cd254 O262 2.381 . S
Cd254 O263 2.378 . S
O255 Cd256 2.385 . S
O255 C260 1.255 . S
Cd256 O255 2.385 . S
Cd256 O257 2.317 . S
O257 Cd256 2.317 . S
O257 C258 1.232 . S
C258 O257 1.232 . S
C258 O259 1.218 . S
O259 C258 1.218 . S
C260 O253 1.275 . S
C260 O255 1.255 . S
C261 O262 1.258 . S
C261 O263 1.256 . S
O262 Cd254 2.381 . S
O262 C261 1.258 . S
O263 Cd254 2.378 . S
O263 C261 1.256 . S
C264 C265 1.349 . S
C264 C266 1.327 . S
C264 H289 0.950 . S
C265 C264 1.349 . S
C265 C281 1.349 . S
C266 C264 1.327 . S
C266 C285 1.429 . S
C266 H290 0.950 . S
C267 C284 1.574 . S
C267 C286 1.368 . S
C267 H291 0.949 . S
H268 C272 0.949 . S
C269 C270 1.349 . S
C269 C271 1.327 . S
C269 H292 0.950 . S
C270 C269 1.349 . S
C270 C282 1.349 . S
C271 C269 1.327 . S
C271 C287 1.429 . S
C271 H293 0.950 . S
C272 H268 0.949 . S
C272 C280 1.574 . S
C272 C288 1.368 . S
H273 C281 0.950 . S
H274 C279 0.950 . S
H275 C280 0.949 . S
H276 C282 0.950 . S
H277 C283 0.950 . S
H278 C284 0.949 . S
C279 H274 0.950 . S
C279 C281 1.327 . S
C279 C285 1.429 . S
C280 C272 1.574 . S
C280 H275 0.949 . S
C280 C286 1.368 . S
C281 C265 1.349 . S
C281 H273 0.950 . S
C281 C279 1.327 . S
C282 C270 1.349 . S
C282 H276 0.950 . S
C282 C283 1.327 . S
C283 H277 0.950 . S
C283 C282 1.327 . S
C283 C287 1.429 . S
C284 C267 1.574 . S
C284 H278 0.949 . S
C284 C288 1.368 . S
C285 C266 1.429 . S
C285 C279 1.429 . S
C285 C286 1.523 . S
C286 C267 1.368 . S
C286 C280 1.368 . S
C286 C285 1.523 . S
C287 C271 1.429 . S
C287 C283 1.429 . S
C287 C288 1.523 . S
C288 C272 1.368 . S
C288 C284 1.368 . S
C288 C287 1.523 . S
H289 C264 0.950 . S
H290 C266 0.950 . S
H291 C267 0.949 . S
H292 C269 0.950 . S
H293 C271 0.950 . S
C294 C295 1.349 . S
C294 C296 1.327 . S
C294 H319 0.950 . S
C295 C294 1.349 . S
C295 C311 1.349 . S
C296 C294 1.327 . S
C296 C315 1.429 . S
C296 H320 0.950 . S
C297 C314 1.574 . S
C297 C316 1.368 . S
C297 H321 0.949 . S
H298 C302 0.949 . S
C299 C300 1.349 . S
C299 C301 1.327 . S
C299 H322 0.950 . S
C300 C299 1.349 . S
C300 C312 1.349 . S
C301 C299 1.327 . S
C301 C317 1.429 . S
C301 H323 0.950 . S
C302 H298 0.949 . S
C302 C310 1.574 . S
C302 C318 1.368 . S
H303 C311 0.950 . S
H304 C309 0.950 . S
H305 C310 0.949 . S
H306 C312 0.950 . S
H307 C313 0.950 . S
H308 C314 0.949 . S
C309 H304 0.950 . S
C309 C311 1.327 . S
C309 C315 1.429 . S
C310 C302 1.574 . S
C310 H305 0.949 . S
C310 C316 1.368 . S
C311 C295 1.349 . S
C311 H303 0.950 . S
C311 C309 1.327 . S
C312 C300 1.349 . S
C312 H306 0.950 . S
C312 C313 1.327 . S
C313 H307 0.950 . S
C313 C312 1.327 . S
C313 C317 1.429 . S
C314 C297 1.574 . S
C314 H308 0.949 . S
C314 C318 1.368 . S
C315 C296 1.429 . S
C315 C309 1.429 . S
C315 C316 1.523 . S
C316 C297 1.368 . S
C316 C310 1.368 . S
C316 C315 1.523 . S
C317 C301 1.429 . S
C317 C313 1.429 . S
C317 C318 1.523 . S
C318 C302 1.368 . S
C318 C314 1.368 . S
C318 C317 1.523 . S
H319 C294 0.950 . S
H320 C296 0.950 . S
H321 C297 0.949 . S
H322 C299 0.950 . S
H323 C301 0.950 . S
C324 C325 1.349 . S
C324 C326 1.327 . S
C324 H349 0.950 . S
C325 C324 1.349 . S
C325 C341 1.349 . S
C326 C324 1.327 . S
C326 C345 1.429 . S
C326 H350 0.950 . S
C327 C344 1.574 . S
C327 C346 1.368 . S
C327 H351 0.949 . S
H328 C332 0.949 . S
C329 C330 1.349 . S
C329 C331 1.327 . S
C329 H352 0.950 . S
C330 C329 1.349 . S
C330 C342 1.349 . S
C331 C329 1.327 . S
C331 C347 1.429 . S
C331 H353 0.950 . S
C332 H328 0.949 . S
C332 C340 1.574 . S
C332 C348 1.368 . S
H333 C341 0.950 . S
H334 C339 0.950 . S
H335 C340 0.949 . S
H336 C342 0.950 . S
H337 C343 0.950 . S
H338 C344 0.949 . S
C339 H334 0.950 . S
C339 C341 1.327 . S
C339 C345 1.429 . S
C340 C332 1.574 . S
C340 H335 0.949 . S
C340 C346 1.368 . S
C341 C325 1.349 . S
C341 H333 0.950 . S
C341 C339 1.327 . S
C342 C330 1.349 . S
C342 H336 0.950 . S
C342 C343 1.327 . S
C343 H337 0.950 . S
C343 C342 1.327 . S
C343 C347 1.429 . S
C344 C327 1.574 . S
C344 H338 0.949 . S
C344 C348 1.368 . S
C345 C326 1.429 . S
C345 C339 1.429 . S
C345 C346 1.523 . S
C346 C327 1.368 . S
C346 C340 1.368 . S
C346 C345 1.523 . S
C347 C331 1.429 . S
C347 C343 1.429 . S
C347 C348 1.523 . S
C348 C332 1.368 . S
C348 C344 1.368 . S
C348 C347 1.523 . S
H349 C324 0.950 . S
H350 C326 0.950 . S
H351 C327 0.949 . S
H352 C329 0.950 . S
H353 C331 0.950 . S
C354 C355 1.349 . S
C354 C356 1.327 . S
C354 H379 0.950 . S
C355 C354 1.349 . S
C355 C371 1.349 . S
C356 C354 1.327 . S
C356 C375 1.429 . S
C356 H380 0.950 . S
C357 C374 1.574 . S
C357 C376 1.368 . S
C357 H381 0.949 . S
H358 C362 0.949 . S
C359 C360 1.349 . S
C359 C361 1.327 . S
C359 H382 0.950 . S
C360 C359 1.349 . S
C360 C372 1.349 . S
C361 C359 1.327 . S
C361 C377 1.429 . S
C361 H383 0.950 . S
C362 H358 0.949 . S
C362 C370 1.574 . S
C362 C378 1.368 . S
H363 C371 0.950 . S
H364 C369 0.950 . S
H365 C370 0.949 . S
H366 C372 0.950 . S
H367 C373 0.950 . S
H368 C374 0.949 . S
C369 H364 0.950 . S
C369 C371 1.327 . S
C369 C375 1.429 . S
C370 C362 1.574 . S
C370 H365 0.949 . S
C370 C376 1.368 . S
C371 C355 1.349 . S
C371 H363 0.950 . S
C371 C369 1.327 . S
C372 C360 1.349 . S
C372 H366 0.950 . S
C372 C373 1.327 . S
C373 H367 0.950 . S
C373 C372 1.327 . S
C373 C377 1.429 . S
C374 C357 1.574 . S
C374 H368 0.949 . S
C374 C378 1.368 . S
C375 C356 1.429 . S
C375 C369 1.429 . S
C375 C376 1.523 . S
C376 C357 1.368 . S
C376 C370 1.368 . S
C376 C375 1.523 . S
C377 C361 1.429 . S
C377 C373 1.429 . S
C377 C378 1.523 . S
C378 C362 1.368 . S
C378 C374 1.368 . S
C378 C377 1.523 . S
H379 C354 0.950 . S
H380 C356 0.950 . S
H381 C357 0.949 . S
H382 C359 0.950 . S
H383 C361 0.950 . S
C384 C385 1.349 . S
C384 C386 1.327 . S
C384 H409 0.950 . S
C385 C384 1.349 . S
C385 C401 1.349 . S
C386 C384 1.327 . S
C386 C405 1.429 . S
C386 H410 0.950 . S
C387 C404 1.574 . S
C387 C406 1.368 . S
C387 H411 0.949 . S
H388 C392 0.949 . S
C389 C390 1.349 . S
C389 C391 1.327 . S
C389 H412 0.950 . S
C390 C389 1.349 . S
C390 C402 1.349 . S
C391 C389 1.327 . S
C391 C407 1.429 . S
C391 H413 0.950 . S
C392 H388 0.949 . S
C392 C400 1.574 . S
C392 C408 1.368 . S
H393 C401 0.950 . S
H394 C399 0.950 . S
H395 C400 0.949 . S
H396 C402 0.950 . S
H397 C403 0.950 . S
H398 C404 0.949 . S
C399 H394 0.950 . S
C399 C401 1.327 . S
C399 C405 1.429 . S
C400 C392 1.574 . S
C400 H395 0.949 . S
C400 C406 1.368 . S
C401 C385 1.349 . S
C401 H393 0.950 . S
C401 C399 1.327 . S
C402 C390 1.349 . S
C402 H396 0.950 . S
C402 C403 1.327 . S
C403 H397 0.950 . S
C403 C402 1.327 . S
C403 C407 1.429 . S
C404 C387 1.574 . S
C404 H398 0.949 . S
C404 C408 1.368 . S
C405 C386 1.429 . S
C405 C399 1.429 . S
C405 C406 1.523 . S
C406 C387 1.368 . S
C406 C400 1.368 . S
C406 C405 1.523 . S
C407 C391 1.429 . S
C407 C403 1.429 . S
C407 C408 1.523 . S
C408 C392 1.368 . S
C408 C404 1.368 . S
C408 C407 1.523 . S
H409 C384 0.950 . S
H410 C386 0.950 . S
H411 C387 0.949 . S
H412 C389 0.950 . S
H413 C391 0.950 . S
C414 C415 1.349 . S
C414 C416 1.327 . S
C414 H439 0.950 . S
C415 C414 1.349 . S
C415 C431 1.349 . S
C416 C414 1.327 . S
C416 C435 1.429 . S
C416 H440 0.950 . S
C417 C434 1.574 . S
C417 C436 1.368 . S
C417 H441 0.949 . S
H418 C422 0.949 . S
C419 C420 1.349 . S
C419 C421 1.327 . S
C419 H442 0.950 . S
C420 C419 1.349 . S
C420 C432 1.349 . S
C421 C419 1.327 . S
C421 C437 1.429 . S
C421 H443 0.950 . S
C422 H418 0.949 . S
C422 C430 1.574 . S
C422 C438 1.368 . S
H423 C431 0.950 . S
H424 C429 0.950 . S
H425 C430 0.949 . S
H426 C432 0.950 . S
H427 C433 0.950 . S
H428 C434 0.949 . S
C429 H424 0.950 . S
C429 C431 1.327 . S
C429 C435 1.429 . S
C430 C422 1.574 . S
C430 H425 0.949 . S
C430 C436 1.368 . S
C431 C415 1.349 . S
C431 H423 0.950 . S
C431 C429 1.327 . S
C432 C420 1.349 . S
C432 H426 0.950 . S
C432 C433 1.327 . S
C433 H427 0.950 . S
C433 C432 1.327 . S
C433 C437 1.429 . S
C434 C417 1.574 . S
C434 H428 0.949 . S
C434 C438 1.368 . S
C435 C416 1.429 . S
C435 C429 1.429 . S
C435 C436 1.523 . S
C436 C417 1.368 . S
C436 C430 1.368 . S
C436 C435 1.523 . S
C437 C421 1.429 . S
C437 C433 1.429 . S
C437 C438 1.523 . S
C438 C422 1.368 . S
C438 C434 1.368 . S
C438 C437 1.523 . S
H439 C414 0.950 . S
H440 C416 0.950 . S
H441 C417 0.949 . S
H442 C419 0.950 . S
H443 C421 0.950 . S
C444 C445 1.349 . S
C444 C446 1.327 . S
C444 H469 0.950 . S
C445 C444 1.349 . S
C445 C461 1.349 . S
C446 C444 1.327 . S
C446 C465 1.429 . S
C446 H470 0.950 . S
C447 C464 1.574 . S
C447 C466 1.368 . S
C447 H471 0.949 . S
H448 C452 0.949 . S
C449 C450 1.349 . S
C449 C451 1.327 . S
C449 H472 0.950 . S
C450 C449 1.349 . S
C450 C462 1.349 . S
C451 C449 1.327 . S
C451 C467 1.429 . S
C451 H473 0.950 . S
C452 H448 0.949 . S
C452 C460 1.574 . S
C452 C468 1.368 . S
H453 C461 0.950 . S
H454 C459 0.950 . S
H455 C460 0.949 . S
H456 C462 0.950 . S
H457 C463 0.950 . S
H458 C464 0.949 . S
C459 H454 0.950 . S
C459 C461 1.327 . S
C459 C465 1.429 . S
C460 C452 1.574 . S
C460 H455 0.949 . S
C460 C466 1.368 . S
C461 C445 1.349 . S
C461 H453 0.950 . S
C461 C459 1.327 . S
C462 C450 1.349 . S
C462 H456 0.950 . S
C462 C463 1.327 . S
C463 H457 0.950 . S
C463 C462 1.327 . S
C463 C467 1.429 . S
C464 C447 1.574 . S
C464 H458 0.949 . S
C464 C468 1.368 . S
C465 C446 1.429 . S
C465 C459 1.429 . S
C465 C466 1.523 . S
C466 C447 1.368 . S
C466 C460 1.368 . S
C466 C465 1.523 . S
C467 C451 1.429 . S
C467 C463 1.429 . S
C467 C468 1.523 . S
C468 C452 1.368 . S
C468 C464 1.368 . S
C468 C467 1.523 . S
H469 C444 0.950 . S
H470 C446 0.950 . S
H471 C447 0.949 . S
H472 C449 0.950 . S
H473 C451 0.950 . S
C474 C475 1.349 . S
C474 C476 1.327 . S
C474 H499 0.950 . S
C475 C474 1.349 . S
C475 C491 1.349 . S
C476 C474 1.327 . S
C476 C495 1.429 . S
C476 H500 0.950 . S
C477 C494 1.574 . S
C477 C496 1.368 . S
C477 H501 0.949 . S
H478 C482 0.949 . S
C479 C480 1.349 . S
C479 C481 1.327 . S
C479 H502 0.950 . S
C480 C479 1.349 . S
C480 C492 1.349 . S
C481 C479 1.327 . S
C481 C497 1.429 . S
C481 H503 0.950 . S
C482 H478 0.949 . S
C482 C490 1.574 . S
C482 C498 1.368 . S
H483 C491 0.950 . S
H484 C489 0.950 . S
H485 C490 0.949 . S
H486 C492 0.950 . S
H487 C493 0.950 . S
H488 C494 0.949 . S
C489 H484 0.950 . S
C489 C491 1.327 . S
C489 C495 1.429 . S
C490 C482 1.574 . S
C490 H485 0.949 . S
C490 C496 1.368 . S
C491 C475 1.349 . S
C491 H483 0.950 . S
C491 C489 1.327 . S
C492 C480 1.349 . S
C492 H486 0.950 . S
C492 C493 1.327 . S
C493 H487 0.950 . S
C493 C492 1.327 . S
C493 C497 1.429 . S
C494 C477 1.574 . S
C494 H488 0.949 . S
C494 C498 1.368 . S
C495 C476 1.429 . S
C495 C489 1.429 . S
C495 C496 1.523 . S
C496 C477 1.368 . S
C496 C490 1.368 . S
C496 C495 1.523 . S
C497 C481 1.429 . S
C497 C493 1.429 . S
C497 C498 1.523 . S
C498 C482 1.368 . S
C498 C494 1.368 . S
C498 C497 1.523 . S
H499 C474 0.950 . S
H500 C476 0.950 . S
H501 C477 0.949 . S
H502 C479 0.950 . S
H503 C481 0.950 . S
C504 C505 1.349 . S
C504 C506 1.327 . S
C504 H529 0.950 . S
C505 C504 1.349 . S
C505 C521 1.349 . S
C506 C504 1.327 . S
C506 C525 1.429 . S
C506 H530 0.950 . S
C507 C524 1.574 . S
C507 C526 1.368 . S
C507 H531 0.949 . S
H508 C512 0.949 . S
C509 C510 1.349 . S
C509 C511 1.327 . S
C509 H532 0.950 . S
C510 C509 1.349 . S
C510 C522 1.349 . S
C511 C509 1.327 . S
C511 C527 1.429 . S
C511 H533 0.950 . S
C512 H508 0.949 . S
C512 C520 1.574 . S
C512 C528 1.368 . S
H513 C521 0.950 . S
H514 C519 0.950 . S
H515 C520 0.949 . S
H516 C522 0.950 . S
H517 C523 0.950 . S
H518 C524 0.949 . S
C519 H514 0.950 . S
C519 C521 1.327 . S
C519 C525 1.429 . S
C520 C512 1.574 . S
C520 H515 0.949 . S
C520 C526 1.368 . S
C521 C505 1.349 . S
C521 H513 0.950 . S
C521 C519 1.327 . S
C522 C510 1.349 . S
C522 H516 0.950 . S
C522 C523 1.327 . S
C523 H517 0.950 . S
C523 C522 1.327 . S
C523 C527 1.429 . S
C524 C507 1.574 . S
C524 H518 0.949 . S
C524 C528 1.368 . S
C525 C506 1.429 . S
C525 C519 1.429 . S
C525 C526 1.523 . S
C526 C507 1.368 . S
C526 C520 1.368 . S
C526 C525 1.523 . S
C527 C511 1.429 . S
C527 C523 1.429 . S
C527 C528 1.523 . S
C528 C512 1.368 . S
C528 C524 1.368 . S
C528 C527 1.523 . S
H529 C504 0.950 . S
H530 C506 0.950 . S
H531 C507 0.949 . S
H532 C509 0.950 . S
H533 C511 0.950 . S
C534 C535 1.349 . S
C534 C536 1.327 . S
C534 H559 0.950 . S
C535 C534 1.349 . S
C535 C551 1.349 . S
C536 C534 1.327 . S
C536 C555 1.429 . S
C536 H560 0.950 . S
C537 C554 1.574 . S
C537 C556 1.368 . S
C537 H561 0.949 . S
H538 C542 0.949 . S
C539 C540 1.349 . S
C539 C541 1.327 . S
C539 H562 0.950 . S
C540 C539 1.349 . S
C540 C552 1.349 . S
C541 C539 1.327 . S
C541 C557 1.429 . S
C541 H563 0.950 . S
C542 H538 0.949 . S
C542 C550 1.574 . S
C542 C558 1.368 . S
H543 C551 0.950 . S
H544 C549 0.950 . S
H545 C550 0.949 . S
H546 C552 0.950 . S
H547 C553 0.950 . S
H548 C554 0.949 . S
C549 H544 0.950 . S
C549 C551 1.327 . S
C549 C555 1.429 . S
C550 C542 1.574 . S
C550 H545 0.949 . S
C550 C556 1.368 . S
C551 C535 1.349 . S
C551 H543 0.950 . S
C551 C549 1.327 . S
C552 C540 1.349 . S
C552 H546 0.950 . S
C552 C553 1.327 . S
C553 H547 0.950 . S
C553 C552 1.327 . S
C553 C557 1.429 . S
C554 C537 1.574 . S
C554 H548 0.949 . S
C554 C558 1.368 . S
C555 C536 1.429 . S
C555 C549 1.429 . S
C555 C556 1.523 . S
C556 C537 1.368 . S
C556 C550 1.368 . S
C556 C555 1.523 . S
C557 C541 1.429 . S
C557 C553 1.429 . S
C557 C558 1.523 . S
C558 C542 1.368 . S
C558 C554 1.368 . S
C558 C557 1.523 . S
H559 C534 0.950 . S
H560 C536 0.950 . S
H561 C537 0.949 . S
H562 C539 0.950 . S
H563 C541 0.950 . S
C564 C565 1.349 . S
C564 C566 1.327 . S
C564 H589 0.950 . S
C565 C564 1.349 . S
C565 C581 1.349 . S
C566 C564 1.327 . S
C566 C585 1.429 . S
C566 H590 0.950 . S
C567 C584 1.574 . S
C567 C586 1.368 . S
C567 H591 0.949 . S
H568 C572 0.949 . S
C569 C570 1.349 . S
C569 C571 1.327 . S
C569 H592 0.950 . S
C570 C569 1.349 . S
C570 C582 1.349 . S
C571 C569 1.327 . S
C571 C587 1.429 . S
C571 H593 0.950 . S
C572 H568 0.949 . S
C572 C580 1.574 . S
C572 C588 1.368 . S
H573 C581 0.950 . S
H574 C579 0.950 . S
H575 C580 0.949 . S
H576 C582 0.950 . S
H577 C583 0.950 . S
H578 C584 0.949 . S
C579 H574 0.950 . S
C579 C581 1.327 . S
C579 C585 1.429 . S
C580 C572 1.574 . S
C580 H575 0.949 . S
C580 C586 1.368 . S
C581 C565 1.349 . S
C581 H573 0.950 . S
C581 C579 1.327 . S
C582 C570 1.349 . S
C582 H576 0.950 . S
C582 C583 1.327 . S
C583 H577 0.950 . S
C583 C582 1.327 . S
C583 C587 1.429 . S
C584 C567 1.574 . S
C584 H578 0.949 . S
C584 C588 1.368 . S
C585 C566 1.429 . S
C585 C579 1.429 . S
C585 C586 1.523 . S
C586 C567 1.368 . S
C586 C580 1.368 . S
C586 C585 1.523 . S
C587 C571 1.429 . S
C587 C583 1.429 . S
C587 C588 1.523 . S
C588 C572 1.368 . S
C588 C584 1.368 . S
C588 C587 1.523 . S
H589 C564 0.950 . S
H590 C566 0.950 . S
H591 C567 0.949 . S
H592 C569 0.950 . S
H593 C571 0.950 . S
C594 C595 1.349 . S
C594 C596 1.327 . S
C594 H619 0.950 . S
C595 C594 1.349 . S
C595 C611 1.349 . S
C596 C594 1.327 . S
C596 C615 1.429 . S
C596 H620 0.950 . S
C597 C614 1.574 . S
C597 C616 1.368 . S
C597 H621 0.949 . S
H598 C602 0.949 . S
C599 C600 1.349 . S
C599 C601 1.327 . S
C599 H622 0.950 . S
C600 C599 1.349 . S
C600 C612 1.349 . S
C601 C599 1.327 . S
C601 C617 1.429 . S
C601 H623 0.950 . S
C602 H598 0.949 . S
C602 C610 1.574 . S
C602 C618 1.368 . S
H603 C611 0.950 . S
H604 C609 0.950 . S
H605 C610 0.949 . S
H606 C612 0.950 . S
H607 C613 0.950 . S
H608 C614 0.949 . S
C609 H604 0.950 . S
C609 C611 1.327 . S
C609 C615 1.429 . S
C610 C602 1.574 . S
C610 H605 0.949 . S
C610 C616 1.368 . S
C611 C595 1.349 . S
C611 H603 0.950 . S
C611 C609 1.327 . S
C612 C600 1.349 . S
C612 H606 0.950 . S
C612 C613 1.327 . S
C613 H607 0.950 . S
C613 C612 1.327 . S
C613 C617 1.429 . S
C614 C597 1.574 . S
C614 H608 0.949 . S
C614 C618 1.368 . S
C615 C596 1.429 . S
C615 C609 1.429 . S
C615 C616 1.523 . S
C616 C597 1.368 . S
C616 C610 1.368 . S
C616 C615 1.523 . S
C617 C601 1.429 . S
C617 C613 1.429 . S
C617 C618 1.523 . S
C618 C602 1.368 . S
C618 C614 1.368 . S
C618 C617 1.523 . S
H619 C594 0.950 . S
H620 C596 0.950 . S
H621 C597 0.949 . S
H622 C599 0.950 . S
H623 C601 0.950 . S
C624 C625 1.349 . S
C624 C626 1.327 . S
C624 H649 0.950 . S
C625 C624 1.349 . S
C625 C641 1.349 . S
C626 C624 1.327 . S
C626 C645 1.429 . S
C626 H650 0.950 . S
C627 C644 1.574 . S
C627 C646 1.368 . S
C627 H651 0.949 . S
H628 C632 0.949 . S
C629 C630 1.349 . S
C629 C631 1.327 . S
C629 H652 0.950 . S
C630 C629 1.349 . S
C630 C642 1.349 . S
C631 C629 1.327 . S
C631 C647 1.429 . S
C631 H653 0.950 . S
C632 H628 0.949 . S
C632 C640 1.574 . S
C632 C648 1.368 . S
H633 C641 0.950 . S
H634 C639 0.950 . S
H635 C640 0.949 . S
H636 C642 0.950 . S
H637 C643 0.950 . S
H638 C644 0.949 . S
C639 H634 0.950 . S
C639 C641 1.327 . S
C639 C645 1.429 . S
C640 C632 1.574 . S
C640 H635 0.949 . S
C640 C646 1.368 . S
C641 C625 1.349 . S
C641 H633 0.950 . S
C641 C639 1.327 . S
C642 C630 1.349 . S
C642 H636 0.950 . S
C642 C643 1.327 . S
C643 H637 0.950 . S
C643 C642 1.327 . S
C643 C647 1.429 . S
C644 C627 1.574 . S
C644 H638 0.949 . S
C644 C648 1.368 . S
C645 C626 1.429 . S
C645 C639 1.429 . S
C645 C646 1.523 . S
C646 C627 1.368 . S
C646 C640 1.368 . S
C646 C645 1.523 . S
C647 C631 1.429 . S
C647 C643 1.429 . S
C647 C648 1.523 . S
C648 C632 1.368 . S
C648 C644 1.368 . S
C648 C647 1.523 . S
H649 C624 0.950 . S
H650 C626 0.950 . S
H651 C627 0.949 . S
H652 C629 0.950 . S
H653 C631 0.950 . S
C654 C655 1.349 . S
C654 C656 1.327 . S
C654 H679 0.950 . S
C655 C654 1.349 . S
C655 C671 1.349 . S
C656 C654 1.327 . S
C656 C675 1.429 . S
C656 H680 0.950 . S
C657 C674 1.574 . S
C657 C676 1.368 . S
C657 H681 0.949 . S
H658 C662 0.949 . S
C659 C660 1.349 . S
C659 C661 1.327 . S
C659 H682 0.950 . S
C660 C659 1.349 . S
C660 C672 1.349 . S
C661 C659 1.327 . S
C661 C677 1.429 . S
C661 H683 0.950 . S
C662 H658 0.949 . S
C662 C670 1.574 . S
C662 C678 1.368 . S
H663 C671 0.950 . S
H664 C669 0.950 . S
H665 C670 0.949 . S
H666 C672 0.950 . S
H667 C673 0.950 . S
H668 C674 0.949 . S
C669 H664 0.950 . S
C669 C671 1.327 . S
C669 C675 1.429 . S
C670 C662 1.574 . S
C670 H665 0.949 . S
C670 C676 1.368 . S
C671 C655 1.349 . S
C671 H663 0.950 . S
C671 C669 1.327 . S
C672 C660 1.349 . S
C672 H666 0.950 . S
C672 C673 1.327 . S
C673 H667 0.950 . S
C673 C672 1.327 . S
C673 C677 1.429 . S
C674 C657 1.574 . S
C674 H668 0.949 . S
C674 C678 1.368 . S
C675 C656 1.429 . S
C675 C669 1.429 . S
C675 C676 1.523 . S
C676 C657 1.368 . S
C676 C670 1.368 . S
C676 C675 1.523 . S
C677 C661 1.429 . S
C677 C673 1.429 . S
C677 C678 1.523 . S
C678 C662 1.368 . S
C678 C674 1.368 . S
C678 C677 1.523 . S
H679 C654 0.950 . S
H680 C656 0.950 . S
H681 C657 0.949 . S
H682 C659 0.950 . S
H683 C661 0.950 . S
C684 C685 1.349 . S
C684 C686 1.327 . S
C684 H709 0.950 . S
C685 C684 1.349 . S
C685 C701 1.349 . S
C686 C684 1.327 . S
C686 C705 1.429 . S
C686 H710 0.950 . S
C687 C704 1.574 . S
C687 C706 1.368 . S
C687 H711 0.949 . S
H688 C692 0.949 . S
C689 C690 1.349 . S
C689 C691 1.327 . S
C689 H712 0.950 . S
C690 C689 1.349 . S
C690 C702 1.349 . S
C691 C689 1.327 . S
C691 C707 1.429 . S
C691 H713 0.950 . S
C692 H688 0.949 . S
C692 C700 1.574 . S
C692 C708 1.368 . S
H693 C701 0.950 . S
H694 C699 0.950 . S
H695 C700 0.949 . S
H696 C702 0.950 . S
H697 C703 0.950 . S
H698 C704 0.949 . S
C699 H694 0.950 . S
C699 C701 1.327 . S
C699 C705 1.429 . S
C700 C692 1.574 . S
C700 H695 0.949 . S
C700 C706 1.368 . S
C701 C685 1.349 . S
C701 H693 0.950 . S
C701 C699 1.327 . S
C702 C690 1.349 . S
C702 H696 0.950 . S
C702 C703 1.327 . S
C703 H697 0.950 . S
C703 C702 1.327 . S
C703 C707 1.429 . S
C704 C687 1.574 . S
C704 H698 0.949 . S
C704 C708 1.368 . S
C705 C686 1.429 . S
C705 C699 1.429 . S
C705 C706 1.523 . S
C706 C687 1.368 . S
C706 C700 1.368 . S
C706 C705 1.523 . S
C707 C691 1.429 . S
C707 C703 1.429 . S
C707 C708 1.523 . S
C708 C692 1.368 . S
C708 C704 1.368 . S
C708 C707 1.523 . S
H709 C684 0.950 . S
H710 C686 0.950 . S
H711 C687 0.949 . S
H712 C689 0.950 . S
H713 C691 0.950 . S
C714 C715 1.349 . S
C714 C716 1.327 . S
C714 H739 0.950 . S
C715 C714 1.349 . S
C715 C731 1.349 . S
C716 C714 1.327 . S
C716 C735 1.429 . S
C716 H740 0.950 . S
C717 C734 1.574 . S
C717 C736 1.368 . S
C717 H741 0.949 . S
H718 C722 0.949 . S
C719 C720 1.349 . S
C719 C721 1.327 . S
C719 H742 0.950 . S
C720 C719 1.349 . S
C720 C732 1.349 . S
C721 C719 1.327 . S
C721 C737 1.429 . S
C721 H743 0.950 . S
C722 H718 0.949 . S
C722 C730 1.574 . S
C722 C738 1.368 . S
H723 C731 0.950 . S
H724 C729 0.950 . S
H725 C730 0.949 . S
H726 C732 0.950 . S
H727 C733 0.950 . S
H728 C734 0.949 . S
C729 H724 0.950 . S
C729 C731 1.327 . S
C729 C735 1.429 . S
C730 C722 1.574 . S
C730 H725 0.949 . S
C730 C736 1.368 . S
C731 C715 1.349 . S
C731 H723 0.950 . S
C731 C729 1.327 . S
C732 C720 1.349 . S
C732 H726 0.950 . S
C732 C733 1.327 . S
C733 H727 0.950 . S
C733 C732 1.327 . S
C733 C737 1.429 . S
C734 C717 1.574 . S
C734 H728 0.949 . S
C734 C738 1.368 . S
C735 C716 1.429 . S
C735 C729 1.429 . S
C735 C736 1.523 . S
C736 C717 1.368 . S
C736 C730 1.368 . S
C736 C735 1.523 . S
C737 C721 1.429 . S
C737 C733 1.429 . S
C737 C738 1.523 . S
C738 C722 1.368 . S
C738 C734 1.368 . S
C738 C737 1.523 . S
H739 C714 0.950 . S
H740 C716 0.950 . S
H741 C717 0.949 . S
H742 C719 0.950 . S
H743 C721 0.950 . S
C744 C745 1.349 . S
C744 C746 1.327 . S
C744 H769 0.950 . S
C745 C744 1.349 . S
C745 C761 1.349 . S
C746 C744 1.327 . S
C746 C765 1.429 . S
C746 H770 0.950 . S
C747 C764 1.574 . S
C747 C766 1.368 . S
C747 H771 0.949 . S
H748 C752 0.949 . S
C749 C750 1.349 . S
C749 C751 1.327 . S
C749 H772 0.950 . S
C750 C749 1.349 . S
C750 C762 1.349 . S
C751 C749 1.327 . S
C751 C767 1.429 . S
C751 H773 0.950 . S
C752 H748 0.949 . S
C752 C760 1.574 . S
C752 C768 1.368 . S
H753 C761 0.950 . S
H754 C759 0.950 . S
H755 C760 0.949 . S
H756 C762 0.950 . S
H757 C763 0.950 . S
H758 C764 0.949 . S
C759 H754 0.950 . S
C759 C761 1.327 . S
C759 C765 1.429 . S
C760 C752 1.574 . S
C760 H755 0.949 . S
C760 C766 1.368 . S
C761 C745 1.349 . S
C761 H753 0.950 . S
C761 C759 1.327 . S
C762 C750 1.349 . S
C762 H756 0.950 . S
C762 C763 1.327 . S
C763 H757 0.950 . S
C763 C762 1.327 . S
C763 C767 1.429 . S
C764 C747 1.574 . S
C764 H758 0.949 . S
C764 C768 1.368 . S
C765 C746 1.429 . S
C765 C759 1.429 . S
C765 C766 1.523 . S
C766 C747 1.368 . S
C766 C760 1.368 . S
C766 C765 1.523 . S
C767 C751 1.429 . S
C767 C763 1.429 . S
C767 C768 1.523 . S
C768 C752 1.368 . S
C768 C764 1.368 . S
C768 C767 1.523 . S
H769 C744 0.950 . S
H770 C746 0.950 . S
H771 C747 0.949 . S
H772 C749 0.950 . S
H773 C751 0.950 . S
C774 C775 1.349 . S
C774 C776 1.327 . S
C774 H799 0.950 . S
C775 C774 1.349 . S
C775 C791 1.349 . S
C776 C774 1.327 . S
C776 C795 1.429 . S
C776 H800 0.950 . S
C777 C794 1.574 . S
C777 C796 1.368 . S
C777 H801 0.949 . S
H778 C782 0.949 . S
C779 C780 1.349 . S
C779 C781 1.327 . S
C779 H802 0.950 . S
C780 C779 1.349 . S
C780 C792 1.349 . S
C781 C779 1.327 . S
C781 C797 1.429 . S
C781 H803 0.950 . S
C782 H778 0.949 . S
C782 C790 1.574 . S
C782 C798 1.368 . S
H783 C791 0.950 . S
H784 C789 0.950 . S
H785 C790 0.949 . S
H786 C792 0.950 . S
H787 C793 0.950 . S
H788 C794 0.949 . S
C789 H784 0.950 . S
C789 C791 1.327 . S
C789 C795 1.429 . S
C790 C782 1.574 . S
C790 H785 0.949 . S
C790 C796 1.368 . S
C791 C775 1.349 . S
C791 H783 0.950 . S
C791 C789 1.327 . S
C792 C780 1.349 . S
C792 H786 0.950 . S
C792 C793 1.327 . S
C793 H787 0.950 . S
C793 C792 1.327 . S
C793 C797 1.429 . S
C794 C777 1.574 . S
C794 H788 0.949 . S
C794 C798 1.368 . S
C795 C776 1.429 . S
C795 C789 1.429 . S
C795 C796 1.523 . S
C796 C777 1.368 . S
C796 C790 1.368 . S
C796 C795 1.523 . S
C797 C781 1.429 . S
C797 C793 1.429 . S
C797 C798 1.523 . S
C798 C782 1.368 . S
C798 C794 1.368 . S
C798 C797 1.523 . S
H799 C774 0.950 . S
H800 C776 0.950 . S
H801 C777 0.949 . S
H802 C779 0.950 . S
H803 C781 0.950 . S
C804 C805 1.349 . S
C804 C806 1.327 . S
C804 H829 0.950 . S
C805 C804 1.349 . S
C805 C821 1.349 . S
C806 C804 1.327 . S
C806 C825 1.429 . S
C806 H830 0.950 . S
C807 C824 1.574 . S
C807 C826 1.368 . S
C807 H831 0.949 . S
H808 C812 0.949 . S
C809 C810 1.349 . S
C809 C811 1.327 . S
C809 H832 0.950 . S
C810 C809 1.349 . S
C810 C822 1.349 . S
C811 C809 1.327 . S
C811 C827 1.429 . S
C811 H833 0.950 . S
C812 H808 0.949 . S
C812 C820 1.574 . S
C812 C828 1.368 . S
H813 C821 0.950 . S
H814 C819 0.950 . S
H815 C820 0.949 . S
H816 C822 0.950 . S
H817 C823 0.950 . S
H818 C824 0.949 . S
C819 H814 0.950 . S
C819 C821 1.327 . S
C819 C825 1.429 . S
C820 C812 1.574 . S
C820 H815 0.949 . S
C820 C826 1.368 . S
C821 C805 1.349 . S
C821 H813 0.950 . S
C821 C819 1.327 . S
C822 C810 1.349 . S
C822 H816 0.950 . S
C822 C823 1.327 . S
C823 H817 0.950 . S
C823 C822 1.327 . S
C823 C827 1.429 . S
C824 C807 1.574 . S
C824 H818 0.949 . S
C824 C828 1.368 . S
C825 C806 1.429 . S
C825 C819 1.429 . S
C825 C826 1.523 . S
C826 C807 1.368 . S
C826 C820 1.368 . S
C826 C825 1.523 . S
C827 C811 1.429 . S
C827 C823 1.429 . S
C827 C828 1.523 . S
C828 C812 1.368 . S
C828 C824 1.368 . S
C828 C827 1.523 . S
H829 C804 0.950 . S
H830 C806 0.950 . S
H831 C807 0.949 . S
H832 C809 0.950 . S
H833 C811 0.950 . S
C834 C835 1.349 . S
C834 C836 1.327 . S
C834 H859 0.950 . S
C835 C834 1.349 . S
C835 C851 1.349 . S
C836 C834 1.327 . S
C836 C855 1.429 . S
C836 H860 0.950 . S
C837 C854 1.574 . S
C837 C856 1.368 . S
C837 H861 0.949 . S
H838 C842 0.949 . S
C839 C840 1.349 . S
C839 C841 1.327 . S
C839 H862 0.950 . S
C840 C839 1.349 . S
C840 C852 1.349 . S
C841 C839 1.327 . S
C841 C857 1.429 . S
C841 H863 0.950 . S
C842 H838 0.949 . S
C842 C850 1.574 . S
C842 C858 1.368 . S
H843 C851 0.950 . S
H844 C849 0.950 . S
H845 C850 0.949 . S
H846 C852 0.950 . S
H847 C853 0.950 . S
H848 C854 0.949 . S
C849 H844 0.950 . S
C849 C851 1.327 . S
C849 C855 1.429 . S
C850 C842 1.574 . S
C850 H845 0.949 . S
C850 C856 1.368 . S
C851 C835 1.349 . S
C851 H843 0.950 . S
C851 C849 1.327 . S
C852 C840 1.349 . S
C852 H846 0.950 . S
C852 C853 1.327 . S
C853 H847 0.950 . S
C853 C852 1.327 . S
C853 C857 1.429 . S
C854 C837 1.574 . S
C854 H848 0.949 . S
C854 C858 1.368 . S
C855 C836 1.429 . S
C855 C849 1.429 . S
C855 C856 1.523 . S
C856 C837 1.368 . S
C856 C850 1.368 . S
C856 C855 1.523 . S
C857 C841 1.429 . S
C857 C853 1.429 . S
C857 C858 1.523 . S
C858 C842 1.368 . S
C858 C854 1.368 . S
C858 C857 1.523 . S
H859 C834 0.950 . S
H860 C836 0.950 . S
H861 C837 0.949 . S
H862 C839 0.950 . S
H863 C841 0.950 . S
C864 C865 1.349 . S
C864 C866 1.327 . S
C864 H889 0.950 . S
C865 C864 1.349 . S
C865 C881 1.349 . S
C866 C864 1.327 . S
C866 C885 1.429 . S
C866 H890 0.950 . S
C867 C884 1.574 . S
C867 C886 1.368 . S
C867 H891 0.949 . S
H868 C872 0.949 . S
C869 C870 1.349 . S
C869 C871 1.327 . S
C869 H892 0.950 . S
C870 C869 1.349 . S
C870 C882 1.349 . S
C871 C869 1.327 . S
C871 C887 1.429 . S
C871 H893 0.950 . S
C872 H868 0.949 . S
C872 C880 1.574 . S
C872 C888 1.368 . S
H873 C881 0.950 . S
H874 C879 0.950 . S
H875 C880 0.949 . S
H876 C882 0.950 . S
H877 C883 0.950 . S
H878 C884 0.949 . S
C879 H874 0.950 . S
C879 C881 1.327 . S
C879 C885 1.429 . S
C880 C872 1.574 . S
C880 H875 0.949 . S
C880 C886 1.368 . S
C881 C865 1.349 . S
C881 H873 0.950 . S
C881 C879 1.327 . S
C882 C870 1.349 . S
C882 H876 0.950 . S
C882 C883 1.327 . S
C883 H877 0.950 . S
C883 C882 1.327 . S
C883 C887 1.429 . S
C884 C867 1.574 . S
C884 H878 0.949 . S
C884 C888 1.368 . S
C885 C866 1.429 . S
C885 C879 1.429 . S
C885 C886 1.523 . S
C886 C867 1.368 . S
C886 C880 1.368 . S
C886 C885 1.523 . S
C887 C871 1.429 . S
C887 C883 1.429 . S
C887 C888 1.523 . S
C888 C872 1.368 . S
C888 C884 1.368 . S
C888 C887 1.523 . S
H889 C864 0.950 . S
H890 C866 0.950 . S
H891 C867 0.949 . S
H892 C869 0.950 . S
H893 C871 0.950 . S
C894 C895 1.349 . S
C894 C896 1.327 . S
C894 H919 0.950 . S
C895 C894 1.349 . S
C895 C911 1.349 . S
C896 C894 1.327 . S
C896 C915 1.429 . S
C896 H920 0.950 . S
C897 C914 1.574 . S
C897 C916 1.368 . S
C897 H921 0.949 . S
H898 C902 0.949 . S
C899 C900 1.349 . S
C899 C901 1.327 . S
C899 H922 0.950 . S
C900 C899 1.349 . S
C900 C912 1.349 . S
C901 C899 1.327 . S
C901 C917 1.429 . S
C901 H923 0.950 . S
C902 H898 0.949 . S
C902 C910 1.574 . S
C902 C918 1.368 . S
H903 C911 0.950 . S
H904 C909 0.950 . S
H905 C910 0.949 . S
H906 C912 0.950 . S
H907 C913 0.950 . S
H908 C914 0.949 . S
C909 H904 0.950 . S
C909 C911 1.327 . S
C909 C915 1.429 . S
C910 C902 1.574 . S
C910 H905 0.949 . S
C910 C916 1.368 . S
C911 C895 1.349 . S
C911 H903 0.950 . S
C911 C909 1.327 . S
C912 C900 1.349 . S
C912 H906 0.950 . S
C912 C913 1.327 . S
C913 H907 0.950 . S
C913 C912 1.327 . S
C913 C917 1.429 . S
C914 C897 1.574 . S
C914 H908 0.949 . S
C914 C918 1.368 . S
C915 C896 1.429 . S
C915 C909 1.429 . S
C915 C916 1.523 . S
C916 C897 1.368 . S
C916 C910 1.368 . S
C916 C915 1.523 . S
C917 C901 1.429 . S
C917 C913 1.429 . S
C917 C918 1.523 . S
C918 C902 1.368 . S
C918 C914 1.368 . S
C918 C917 1.523 . S
H919 C894 0.950 . S
H920 C896 0.950 . S
H921 C897 0.949 . S
H922 C899 0.950 . S
H923 C901 0.950 . S
C924 C925 1.349 . S
C924 C926 1.327 . S
C924 H949 0.950 . S
C925 C924 1.349 . S
C925 C941 1.349 . S
C926 C924 1.327 . S
C926 C945 1.429 . S
C926 H950 0.950 . S
C927 C944 1.574 . S
C927 C946 1.368 . S
C927 H951 0.949 . S
H928 C932 0.949 . S
C929 C930 1.349 . S
C929 C931 1.327 . S
C929 H952 0.950 . S
C930 C929 1.349 . S
C930 C942 1.349 . S
C931 C929 1.327 . S
C931 C947 1.429 . S
C931 H953 0.950 . S
C932 H928 0.949 . S
C932 C940 1.574 . S
C932 C948 1.368 . S
H933 C941 0.950 . S
H934 C939 0.950 . S
H935 C940 0.949 . S
H936 C942 0.950 . S
H937 C943 0.950 . S
H938 C944 0.949 . S
C939 H934 0.950 . S
C939 C941 1.327 . S
C939 C945 1.429 . S
C940 C932 1.574 . S
C940 H935 0.949 . S
C940 C946 1.368 . S
C941 C925 1.349 . S
C941 H933 0.950 . S
C941 C939 1.327 . S
C942 C930 1.349 . S
C942 H936 0.950 . S
C942 C943 1.327 . S
C943 H937 0.950 . S
C943 C942 1.327 . S
C943 C947 1.429 . S
C944 C927 1.574 . S
C944 H938 0.949 . S
C944 C948 1.368 . S
C945 C926 1.429 . S
C945 C939 1.429 . S
C945 C946 1.523 . S
C946 C927 1.368 . S
C946 C940 1.368 . S
C946 C945 1.523 . S
C947 C931 1.429 . S
C947 C943 1.429 . S
C947 C948 1.523 . S
C948 C932 1.368 . S
C948 C944 1.368 . S
C948 C947 1.523 . S
H949 C924 0.950 . S
H950 C926 0.950 . S
H951 C927 0.949 . S
H952 C929 0.950 . S
H953 C931 0.950 . S
C954 C955 1.349 . S
C954 C956 1.327 . S
C954 H979 0.950 . S
C955 C954 1.349 . S
C955 C971 1.349 . S
C956 C954 1.327 . S
C956 C975 1.429 . S
C956 H980 0.950 . S
C957 C974 1.574 . S
C957 C976 1.368 . S
C957 H981 0.949 . S
H958 C962 0.949 . S
C959 C960 1.349 . S
C959 C961 1.327 . S
C959 H982 0.950 . S
C960 C959 1.349 . S
C960 C972 1.349 . S
C961 C959 1.327 . S
C961 C977 1.429 . S
C961 H983 0.950 . S
C962 H958 0.949 . S
C962 C970 1.574 . S
C962 C978 1.368 . S
H963 C971 0.950 . S
H964 C969 0.950 . S
H965 C970 0.949 . S
H966 C972 0.950 . S
H967 C973 0.950 . S
H968 C974 0.949 . S
C969 H964 0.950 . S
C969 C971 1.327 . S
C969 C975 1.429 . S
C970 C962 1.574 . S
C970 H965 0.949 . S
C970 C976 1.368 . S
C971 C955 1.349 . S
C971 H963 0.950 . S
C971 C969 1.327 . S
C972 C960 1.349 . S
C972 H966 0.950 . S
C972 C973 1.327 . S
C973 H967 0.950 . S
C973 C972 1.327 . S
C973 C977 1.429 . S
C974 C957 1.574 . S
C974 H968 0.949 . S
C974 C978 1.368 . S
C975 C956 1.429 . S
C975 C969 1.429 . S
C975 C976 1.523 . S
C976 C957 1.368 . S
C976 C970 1.368 . S
C976 C975 1.523 . S
C977 C961 1.429 . S
C977 C973 1.429 . S
C977 C978 1.523 . S
C978 C962 1.368 . S
C978 C974 1.368 . S
C978 C977 1.523 . S
H979 C954 0.950 . S
H980 C956 0.950 . S
H981 C957 0.949 . S
H982 C959 0.950 . S
H983 C961 0.950 . S
C984 C985 1.349 . S
C984 C986 1.327 . S
C984 H1009 0.950 . S
C985 C984 1.349 . S
C985 C1001 1.349 . S
C986 C984 1.327 . S
C986 C1005 1.429 . S
C986 H1010 0.950 . S
C987 C1004 1.574 1_455 S
C987 C1006 1.368 . S
C987 H1011 0.949 . S
H988 C992 0.949 . S
C989 C990 1.349 . S
C989 C991 1.327 . S
C989 H1012 0.950 . S
C990 C989 1.349 . S
C990 C1002 1.349 . S
C991 C989 1.327 . S
C991 C1007 1.429 . S
C991 H1013 0.950 . S
C992 H988 0.949 . S
C992 C1000 1.574 . S
C992 C1008 1.397 . S
H993 C1001 0.950 . S
H994 C999 0.950 . S
H995 C1000 0.949 . S
H996 C1002 0.950 . S
H997 C1003 0.950 1_455 S
H998 C1004 0.949 . S
C999 H994 0.950 . S
C999 C1001 1.327 . S
C999 C1005 1.429 . S
C1000 C992 1.574 . S
C1000 H995 0.949 . S
C1000 C1006 1.368 . S
C1001 C985 1.349 . S
C1001 H993 0.950 . S
C1001 C999 1.327 . S
C1002 C990 1.349 . S
C1002 H996 0.950 . S
C1002 C1003 1.327 . S
C1003 H997 0.950 1_655 S
C1003 C1002 1.327 . S
C1003 C1007 1.429 . S
C1004 C987 1.574 1_655 S
C1004 H998 0.949 . S
C1004 C1008 1.357 1_655 S
C1005 C986 1.429 . S
C1005 C999 1.429 . S
C1005 C1006 1.523 . S
C1006 C987 1.368 . S
C1006 C1000 1.368 . S
C1006 C1005 1.523 . S
C1007 C991 1.429 . S
C1007 C1003 1.429 . S
C1007 C1008 1.504 1_655 S
C1008 C992 1.397 . S
C1008 C1004 1.357 1_455 S
C1008 C1007 1.504 1_455 S
H1009 C984 0.950 . S
H1010 C986 0.950 . S
H1011 C987 0.949 . S
H1012 C989 0.950 . S
H1013 C991 0.950 . S
C1014 C1015 1.349 . S
C1014 C1016 1.327 . S
C1014 H1039 0.950 . S
C1015 C1014 1.349 . S
C1015 C1031 1.349 . S
C1016 C1014 1.327 . S
C1016 C1035 1.429 . S
C1016 H1040 0.950 . S
C1017 C1034 1.574 . S
C1017 C1036 1.368 . S
C1017 H1041 0.949 . S
H1018 C1022 0.949 . S
C1019 C1020 1.349 . S
C1019 C1021 1.327 . S
C1019 H1042 0.950 . S
C1020 C1019 1.349 . S
C1020 C1032 1.349 . S
C1021 C1019 1.327 . S
C1021 C1037 1.429 . S
C1021 H1043 0.950 . S
C1022 H1018 0.949 . S
C1022 C1030 1.574 . S
C1022 C1038 1.368 . S
H1023 C1031 0.950 . S
H1024 C1029 0.950 . S
H1025 C1030 0.949 . S
H1026 C1032 0.950 . S
H1027 C1033 0.950 . S
H1028 C1034 0.949 . S
C1029 H1024 0.950 . S
C1029 C1031 1.327 . S
C1029 C1035 1.429 . S
C1030 C1022 1.574 . S
C1030 H1025 0.949 . S
C1030 C1036 1.368 . S
C1031 C1015 1.349 . S
C1031 H1023 0.950 . S
C1031 C1029 1.327 . S
C1032 C1020 1.349 . S
C1032 H1026 0.950 . S
C1032 C1033 1.327 . S
C1033 H1027 0.950 . S
C1033 C1032 1.327 . S
C1033 C1037 1.429 . S
C1034 C1017 1.574 . S
C1034 H1028 0.949 . S
C1034 C1038 1.368 . S
C1035 C1016 1.429 . S
C1035 C1029 1.429 . S
C1035 C1036 1.523 . S
C1036 C1017 1.368 . S
C1036 C1030 1.368 . S
C1036 C1035 1.523 . S
C1037 C1021 1.429 . S
C1037 C1033 1.429 . S
C1037 C1038 1.523 . S
C1038 C1022 1.368 . S
C1038 C1034 1.368 . S
C1038 C1037 1.523 . S
H1039 C1014 0.950 . S
H1040 C1016 0.950 . S
H1041 C1017 0.949 . S
H1042 C1019 0.950 . S
H1043 C1021 0.950 . S
C1044 C1045 1.349 . S
C1044 C1046 1.327 . S
C1044 H1069 0.950 . S
C1045 C1044 1.349 . S
C1045 C1061 1.349 . S
C1046 C1044 1.327 . S
C1046 C1065 1.429 . S
C1046 H1070 0.950 . S
C1047 C1064 1.574 . S
C1047 C1066 1.368 . S
C1047 H1071 0.949 . S
H1048 C1052 0.949 . S
C1049 C1050 1.349 . S
C1049 C1051 1.327 . S
C1049 H1072 0.950 . S
C1050 C1049 1.349 . S
C1050 C1062 1.349 . S
C1051 C1049 1.327 . S
C1051 C1067 1.429 . S
C1051 H1073 0.950 . S
C1052 H1048 0.949 . S
C1052 C1060 1.574 . S
C1052 C1068 1.368 . S
H1053 C1061 0.950 . S
H1054 C1059 0.950 . S
H1055 C1060 0.949 . S
H1056 C1062 0.950 . S
H1057 C1063 0.950 . S
H1058 C1064 0.949 . S
C1059 H1054 0.950 . S
C1059 C1061 1.327 . S
C1059 C1065 1.429 . S
C1060 C1052 1.574 . S
C1060 H1055 0.949 . S
C1060 C1066 1.368 . S
C1061 C1045 1.349 . S
C1061 H1053 0.950 . S
C1061 C1059 1.327 . S
C1062 C1050 1.349 . S
C1062 H1056 0.950 . S
C1062 C1063 1.327 . S
C1063 H1057 0.950 . S
C1063 C1062 1.327 . S
C1063 C1067 1.429 . S
C1064 C1047 1.574 . S
C1064 H1058 0.949 . S
C1064 C1068 1.368 . S
C1065 C1046 1.429 . S
C1065 C1059 1.429 . S
C1065 C1066 1.523 . S
C1066 C1047 1.368 . S
C1066 C1060 1.368 . S
C1066 C1065 1.523 . S
C1067 C1051 1.429 . S
C1067 C1063 1.429 . S
C1067 C1068 1.523 . S
C1068 C1052 1.368 . S
C1068 C1064 1.368 . S
C1068 C1067 1.523 . S
H1069 C1044 0.950 . S
H1070 C1046 0.950 . S
H1071 C1047 0.949 . S
H1072 C1049 0.950 . S
H1073 C1051 0.950 . S
C1074 C1075 1.349 . S
C1074 C1076 1.327 . S
C1074 H1099 0.950 . S
C1075 C1074 1.349 . S
C1075 C1091 1.349 . S
C1076 C1074 1.327 . S
C1076 C1095 1.429 . S
C1076 H1100 0.950 . S
C1077 C1094 1.574 . S
C1077 C1096 1.368 . S
C1077 H1101 0.949 . S
H1078 C1082 0.949 . S
C1079 C1080 1.349 . S
C1079 C1081 1.327 . S
C1079 H1102 0.950 . S
C1080 C1079 1.349 . S
C1080 C1092 1.349 . S
C1081 C1079 1.327 . S
C1081 C1097 1.429 . S
C1081 H1103 0.950 . S
C1082 H1078 0.949 . S
C1082 C1090 1.574 . S
C1082 C1098 1.368 . S
H1083 C1091 0.950 . S
H1084 C1089 0.950 . S
H1085 C1090 0.949 . S
H1086 C1092 0.950 . S
H1087 C1093 0.950 . S
H1088 C1094 0.949 . S
C1089 H1084 0.950 . S
C1089 C1091 1.327 . S
C1089 C1095 1.429 . S
C1090 C1082 1.574 . S
C1090 H1085 0.949 . S
C1090 C1096 1.368 . S
C1091 C1075 1.349 . S
C1091 H1083 0.950 . S
C1091 C1089 1.327 . S
C1092 C1080 1.349 . S
C1092 H1086 0.950 . S
C1092 C1093 1.327 . S
C1093 H1087 0.950 . S
C1093 C1092 1.327 . S
C1093 C1097 1.429 . S
C1094 C1077 1.574 . S
C1094 H1088 0.949 . S
C1094 C1098 1.368 . S
C1095 C1076 1.429 . S
C1095 C1089 1.429 . S
C1095 C1096 1.523 . S
C1096 C1077 1.368 . S
C1096 C1090 1.368 . S
C1096 C1095 1.523 . S
C1097 C1081 1.429 . S
C1097 C1093 1.429 . S
C1097 C1098 1.523 . S
C1098 C1082 1.368 . S
C1098 C1094 1.368 . S
C1098 C1097 1.523 . S
H1099 C1074 0.950 . S
H1100 C1076 0.950 . S
H1101 C1077 0.949 . S
H1102 C1079 0.950 . S
H1103 C1081 0.950 . S
C1104 C1105 1.349 . S
C1104 C1106 1.327 . S
C1104 H1129 0.950 . S
C1105 C1104 1.349 . S
C1105 C1121 1.349 . S
C1106 C1104 1.327 . S
C1106 C1125 1.429 . S
C1106 H1130 0.950 . S
C1107 C1124 1.574 . S
C1107 C1126 1.368 . S
C1107 H1131 0.949 . S
H1108 C1112 0.949 . S
C1109 C1110 1.349 . S
C1109 C1111 1.327 . S
C1109 H1132 0.950 . S
C1110 C1109 1.349 . S
C1110 C1122 1.349 . S
C1111 C1109 1.327 . S
C1111 C1127 1.429 . S
C1111 H1133 0.950 . S
C1112 H1108 0.949 . S
C1112 C1120 1.574 . S
C1112 C1128 1.368 . S
H1113 C1121 0.950 . S
H1114 C1119 0.950 . S
H1115 C1120 0.949 . S
H1116 C1122 0.950 . S
H1117 C1123 0.950 . S
H1118 C1124 0.949 . S
C1119 H1114 0.950 . S
C1119 C1121 1.327 . S
C1119 C1125 1.429 . S
C1120 C1112 1.574 . S
C1120 H1115 0.949 . S
C1120 C1126 1.368 . S
C1121 C1105 1.349 . S
C1121 H1113 0.950 . S
C1121 C1119 1.327 . S
C1122 C1110 1.349 . S
C1122 H1116 0.950 . S
C1122 C1123 1.327 . S
C1123 H1117 0.950 . S
C1123 C1122 1.327 . S
C1123 C1127 1.429 . S
C1124 C1107 1.574 . S
C1124 H1118 0.949 . S
C1124 C1128 1.368 . S
C1125 C1106 1.429 . S
C1125 C1119 1.429 . S
C1125 C1126 1.523 . S
C1126 C1107 1.368 . S
C1126 C1120 1.368 . S
C1126 C1125 1.523 . S
C1127 C1111 1.429 . S
C1127 C1123 1.429 . S
C1127 C1128 1.523 . S
C1128 C1112 1.368 . S
C1128 C1124 1.368 . S
C1128 C1127 1.523 . S
H1129 C1104 0.950 . S
H1130 C1106 0.950 . S
H1131 C1107 0.949 . S
H1132 C1109 0.950 . S
H1133 C1111 0.950 . S
C1134 C1135 1.349 . S
C1134 C1136 1.327 . S
C1134 H1159 0.950 . S
C1135 C1134 1.349 . S
C1135 C1151 1.349 . S
C1136 C1134 1.327 . S
C1136 C1155 1.429 . S
C1136 H1160 0.950 . S
C1137 C1154 1.574 . S
C1137 C1156 1.368 . S
C1137 H1161 0.949 . S
H1138 C1142 0.949 . S
C1139 C1140 1.349 . S
C1139 C1141 1.327 . S
C1139 H1162 0.950 . S
C1140 C1139 1.349 . S
C1140 C1152 1.349 . S
C1141 C1139 1.327 . S
C1141 C1157 1.429 . S
C1141 H1163 0.950 . S
C1142 H1138 0.949 . S
C1142 C1150 1.574 . S
C1142 C1158 1.368 . S
H1143 C1151 0.950 . S
H1144 C1149 0.950 . S
H1145 C1150 0.949 . S
H1146 C1152 0.950 . S
H1147 C1153 0.950 . S
H1148 C1154 0.949 . S
C1149 H1144 0.950 . S
C1149 C1151 1.327 . S
C1149 C1155 1.429 . S
C1150 C1142 1.574 . S
C1150 H1145 0.949 . S
C1150 C1156 1.368 . S
C1151 C1135 1.349 . S
C1151 H1143 0.950 . S
C1151 C1149 1.327 . S
C1152 C1140 1.349 . S
C1152 H1146 0.950 . S
C1152 C1153 1.327 . S
C1153 H1147 0.950 . S
C1153 C1152 1.327 . S
C1153 C1157 1.429 . S
C1154 C1137 1.574 . S
C1154 H1148 0.949 . S
C1154 C1158 1.368 . S
C1155 C1136 1.429 . S
C1155 C1149 1.429 . S
C1155 C1156 1.523 . S
C1156 C1137 1.368 . S
C1156 C1150 1.368 . S
C1156 C1155 1.523 . S
C1157 C1141 1.429 . S
C1157 C1153 1.429 . S
C1157 C1158 1.523 . S
C1158 C1142 1.368 . S
C1158 C1154 1.368 . S
C1158 C1157 1.523 . S
H1159 C1134 0.950 . S
H1160 C1136 0.950 . S
H1161 C1137 0.949 . S
H1162 C1139 0.950 . S
H1163 C1141 0.950 . S
C1164 C1165 1.349 . S
C1164 C1166 1.327 . S
C1164 H1189 0.950 . S
C1165 C1164 1.349 . S
C1165 C1181 1.349 . S
C1166 C1164 1.327 . S
C1166 C1185 1.429 . S
C1166 H1190 0.950 . S
C1167 C1184 1.574 . S
C1167 C1186 1.368 . S
C1167 H1191 0.949 . S
H1168 C1172 0.949 . S
C1169 C1170 1.349 . S
C1169 C1171 1.327 . S
C1169 H1192 0.950 . S
C1170 C1169 1.349 . S
C1170 C1182 1.349 . S
C1171 C1169 1.327 . S
C1171 C1187 1.429 . S
C1171 H1193 0.950 . S
C1172 H1168 0.949 . S
C1172 C1180 1.574 . S
C1172 C1188 1.368 . S
H1173 C1181 0.950 . S
H1174 C1179 0.950 . S
H1175 C1180 0.949 . S
H1176 C1182 0.950 . S
H1177 C1183 0.950 . S
H1178 C1184 0.949 . S
C1179 H1174 0.950 . S
C1179 C1181 1.327 . S
C1179 C1185 1.429 . S
C1180 C1172 1.574 . S
C1180 H1175 0.949 . S
C1180 C1186 1.368 . S
C1181 C1165 1.349 . S
C1181 H1173 0.950 . S
C1181 C1179 1.327 . S
C1182 C1170 1.349 . S
C1182 H1176 0.950 . S
C1182 C1183 1.327 . S
C1183 H1177 0.950 . S
C1183 C1182 1.327 . S
C1183 C1187 1.429 . S
C1184 C1167 1.574 . S
C1184 H1178 0.949 . S
C1184 C1188 1.368 . S
C1185 C1166 1.429 . S
C1185 C1179 1.429 . S
C1185 C1186 1.523 . S
C1186 C1167 1.368 . S
C1186 C1180 1.368 . S
C1186 C1185 1.523 . S
C1187 C1171 1.429 . S
C1187 C1183 1.429 . S
C1187 C1188 1.523 . S
C1188 C1172 1.368 . S
C1188 C1184 1.368 . S
C1188 C1187 1.523 . S
H1189 C1164 0.950 . S
H1190 C1166 0.950 . S
H1191 C1167 0.949 . S
H1192 C1169 0.950 . S
H1193 C1171 0.950 . S
C1194 C1195 1.349 . S
C1194 C1196 1.327 . S
C1194 H1219 0.950 . S
C1195 C1194 1.349 . S
C1195 C1211 1.349 . S
C1196 C1194 1.327 . S
C1196 C1215 1.429 . S
C1196 H1220 0.950 . S
C1197 C1214 1.574 . S
C1197 C1216 1.368 . S
C1197 H1221 0.949 . S
H1198 C1202 0.949 . S
C1199 C1200 1.349 . S
C1199 C1201 1.327 . S
C1199 H1222 0.950 . S
C1200 C1199 1.349 . S
C1200 C1212 1.349 . S
C1201 C1199 1.327 . S
C1201 C1217 1.429 . S
C1201 H1223 0.950 . S
C1202 H1198 0.949 . S
C1202 C1210 1.574 . S
C1202 C1218 1.368 . S
H1203 C1211 0.950 . S
H1204 C1209 0.950 . S
H1205 C1210 0.949 . S
H1206 C1212 0.950 . S
H1207 C1213 0.950 . S
H1208 C1214 0.949 . S
C1209 H1204 0.950 . S
C1209 C1211 1.327 . S
C1209 C1215 1.429 . S
C1210 C1202 1.574 . S
C1210 H1205 0.949 . S
C1210 C1216 1.368 . S
C1211 C1195 1.349 . S
C1211 H1203 0.950 . S
C1211 C1209 1.327 . S
C1212 C1200 1.349 . S
C1212 H1206 0.950 . S
C1212 C1213 1.327 . S
C1213 H1207 0.950 . S
C1213 C1212 1.327 . S
C1213 C1217 1.429 . S
C1214 C1197 1.574 . S
C1214 H1208 0.949 . S
C1214 C1218 1.368 . S
C1215 C1196 1.429 . S
C1215 C1209 1.429 . S
C1215 C1216 1.523 . S
C1216 C1197 1.368 . S
C1216 C1210 1.368 . S
C1216 C1215 1.523 . S
C1217 C1201 1.429 . S
C1217 C1213 1.429 . S
C1217 C1218 1.523 1_556 S
C1218 C1202 1.368 . S
C1218 C1214 1.368 . S
C1218 C1217 1.523 1_554 S
H1219 C1194 0.950 . S
H1220 C1196 0.950 . S
H1221 C1197 0.949 . S
H1222 C1199 0.950 . S
H1223 C1201 0.950 . S
C1224 C1225 1.349 . S
C1224 C1226 1.327 . S
C1224 H1249 0.950 . S
C1225 C1224 1.349 . S
C1225 C1241 1.349 . S
C1226 C1224 1.327 . S
C1226 C1245 1.429 . S
C1226 H1250 0.950 . S
C1227 C1244 1.574 . S
C1227 C1246 1.368 . S
C1227 H1251 0.949 . S
H1228 C1232 0.949 . S
C1229 C1230 1.349 . S
C1229 C1231 1.327 . S
C1229 H1252 0.950 . S
C1230 C1229 1.349 . S
C1230 C1242 1.349 . S
C1231 C1229 1.327 . S
C1231 C1247 1.429 . S
C1231 H1253 0.950 . S
C1232 H1228 0.949 . S
C1232 C1240 1.574 . S
C1232 C1248 1.368 . S
H1233 C1241 0.950 . S
H1234 C1239 0.950 . S
H1235 C1240 0.949 . S
H1236 C1242 0.950 . S
H1237 C1243 0.950 . S
H1238 C1244 0.949 . S
C1239 H1234 0.950 . S
C1239 C1241 1.327 . S
C1239 C1245 1.429 . S
C1240 C1232 1.574 . S
C1240 H1235 0.949 . S
C1240 C1246 1.368 . S
C1241 C1225 1.349 . S
C1241 H1233 0.950 . S
C1241 C1239 1.327 . S
C1242 C1230 1.349 . S
C1242 H1236 0.950 . S
C1242 C1243 1.327 . S
C1243 H1237 0.950 . S
C1243 C1242 1.327 . S
C1243 C1247 1.429 . S
C1244 C1227 1.574 . S
C1244 H1238 0.949 . S
C1244 C1248 1.368 . S
C1245 C1226 1.429 . S
C1245 C1239 1.429 . S
C1245 C1246 1.523 . S
C1246 C1227 1.368 . S
C1246 C1240 1.368 . S
C1246 C1245 1.523 . S
C1247 C1231 1.429 . S
C1247 C1243 1.429 . S
C1247 C1248 1.523 . S
C1248 C1232 1.368 . S
C1248 C1244 1.368 . S
C1248 C1247 1.523 . S
H1249 C1224 0.950 . S
H1250 C1226 0.950 . S
H1251 C1227 0.949 . S
H1252 C1229 0.950 . S
H1253 C1231 0.950 . S
C1254 C1255 1.349 . S
C1254 C1256 1.327 . S
C1254 H1279 0.950 . S
C1255 C1254 1.349 . S
C1255 C1271 1.349 . S
C1256 C1254 1.327 . S
C1256 C1275 1.429 . S
C1256 H1280 0.950 . S
C1257 C1274 1.574 . S
C1257 C1276 1.368 . S
C1257 H1281 0.949 . S
H1258 C1262 0.949 . S
C1259 C1260 1.349 . S
C1259 C1261 1.327 . S
C1259 H1282 0.950 . S
C1260 C1259 1.349 . S
C1260 C1272 1.349 . S
C1261 C1259 1.327 . S
C1261 C1277 1.429 . S
C1261 H1283 0.950 . S
C1262 H1258 0.949 . S
C1262 C1270 1.574 . S
C1262 C1278 1.368 . S
H1263 C1271 0.950 . S
H1264 C1269 0.950 . S
H1265 C1270 0.949 . S
H1266 C1272 0.950 . S
H1267 C1273 0.950 . S
H1268 C1274 0.949 . S
C1269 H1264 0.950 . S
C1269 C1271 1.327 . S
C1269 C1275 1.429 . S
C1270 C1262 1.574 . S
C1270 H1265 0.949 . S
C1270 C1276 1.368 . S
C1271 C1255 1.349 . S
C1271 H1263 0.950 . S
C1271 C1269 1.327 . S
C1272 C1260 1.349 . S
C1272 H1266 0.950 . S
C1272 C1273 1.327 . S
C1273 H1267 0.950 . S
C1273 C1272 1.327 . S
C1273 C1277 1.429 . S
C1274 C1257 1.574 . S
C1274 H1268 0.949 . S
C1274 C1278 1.368 . S
C1275 C1256 1.429 . S
C1275 C1269 1.429 . S
C1275 C1276 1.523 . S
C1276 C1257 1.368 . S
C1276 C1270 1.368 . S
C1276 C1275 1.523 . S
C1277 C1261 1.429 . S
C1277 C1273 1.429 . S
C1277 C1278 1.523 . S
C1278 C1262 1.368 . S
C1278 C1274 1.368 . S
C1278 C1277 1.523 . S
H1279 C1254 0.950 . S
H1280 C1256 0.950 . S
H1281 C1257 0.949 . S
H1282 C1259 0.950 . S
H1283 C1261 0.950 . S
C1284 C1285 1.349 . S
C1284 C1286 1.327 . S
C1284 H1309 0.950 . S
C1285 C1284 1.349 . S
C1285 C1301 1.349 . S
C1286 C1284 1.327 . S
C1286 C1305 1.429 . S
C1286 H1310 0.950 . S
C1287 C1304 1.574 . S
C1287 C1306 1.368 . S
C1287 H1311 0.949 . S
H1288 C1292 0.949 . S
C1289 C1290 1.349 . S
C1289 C1291 1.327 . S
C1289 H1312 0.950 . S
C1290 C1289 1.349 . S
C1290 C1302 1.349 . S
C1291 C1289 1.327 . S
C1291 C1307 1.429 . S
C1291 H1313 0.950 . S
C1292 H1288 0.949 . S
C1292 C1300 1.574 . S
C1292 C1308 1.368 . S
H1293 C1301 0.950 . S
H1294 C1299 0.950 . S
H1295 C1300 0.949 . S
H1296 C1302 0.950 . S
H1297 C1303 0.950 . S
H1298 C1304 0.949 . S
C1299 H1294 0.950 . S
C1299 C1301 1.327 . S
C1299 C1305 1.429 . S
C1300 C1292 1.574 . S
C1300 H1295 0.949 . S
C1300 C1306 1.368 . S
C1301 C1285 1.349 . S
C1301 H1293 0.950 . S
C1301 C1299 1.327 . S
C1302 C1290 1.349 . S
C1302 H1296 0.950 . S
C1302 C1303 1.327 . S
C1303 H1297 0.950 . S
C1303 C1302 1.327 . S
C1303 C1307 1.429 . S
C1304 C1287 1.574 . S
C1304 H1298 0.949 . S
C1304 C1308 1.368 . S
C1305 C1286 1.429 . S
C1305 C1299 1.429 . S
C1305 C1306 1.523 . S
C1306 C1287 1.368 . S
C1306 C1300 1.368 . S
C1306 C1305 1.523 . S
C1307 C1291 1.429 . S
C1307 C1303 1.429 . S
C1307 C1308 1.523 . S
C1308 C1292 1.368 . S
C1308 C1304 1.368 . S
C1308 C1307 1.523 . S
H1309 C1284 0.950 . S
H1310 C1286 0.950 . S
H1311 C1287 0.949 . S
H1312 C1289 0.950 . S
H1313 C1291 0.950 . S
C1314 C1315 1.349 . S
C1314 C1316 1.327 . S
C1314 H1339 0.950 . S
C1315 C1314 1.349 . S
C1315 C1331 1.349 . S
C1316 C1314 1.327 . S
C1316 C1335 1.429 . S
C1316 H1340 0.950 . S
C1317 C1334 1.574 . S
C1317 C1336 1.368 . S
C1317 H1341 0.949 . S
H1318 C1322 0.949 . S
C1319 C1320 1.349 . S
C1319 C1321 1.327 . S
C1319 H1342 0.950 . S
C1320 C1319 1.349 . S
C1320 C1332 1.349 . S
C1321 C1319 1.327 . S
C1321 C1337 1.429 . S
C1321 H1343 0.950 . S
C1322 H1318 0.949 . S
C1322 C1330 1.574 . S
C1322 C1338 1.368 . S
H1323 C1331 0.950 . S
H1324 C1329 0.950 . S
H1325 C1330 0.949 . S
H1326 C1332 0.950 . S
H1327 C1333 0.950 . S
H1328 C1334 0.949 . S
C1329 H1324 0.950 . S
C1329 C1331 1.327 . S
C1329 C1335 1.429 . S
C1330 C1322 1.574 . S
C1330 H1325 0.949 . S
C1330 C1336 1.368 . S
C1331 C1315 1.349 . S
C1331 H1323 0.950 . S
C1331 C1329 1.327 . S
C1332 C1320 1.349 . S
C1332 H1326 0.950 . S
C1332 C1333 1.327 . S
C1333 H1327 0.950 . S
C1333 C1332 1.327 . S
C1333 C1337 1.429 . S
C1334 C1317 1.574 . S
C1334 H1328 0.949 . S
C1334 C1338 1.368 . S
C1335 C1316 1.429 . S
C1335 C1329 1.429 . S
C1335 C1336 1.523 . S
C1336 C1317 1.368 . S
C1336 C1330 1.368 . S
C1336 C1335 1.523 . S
C1337 C1321 1.429 . S
C1337 C1333 1.429 . S
C1337 C1338 1.523 . S
C1338 C1322 1.368 . S
C1338 C1334 1.368 . S
C1338 C1337 1.523 . S
H1339 C1314 0.950 . S
H1340 C1316 0.950 . S
H1341 C1317 0.949 . S
H1342 C1319 0.950 . S
H1343 C1321 0.950 . S
C265 C49 0.825 . S
C270 C5 0.816 . S
C295 C60 0.989 . S
C300 C18 1.023 . S
C325 C29 1.083 . S
C330 C73 1.122 . S
C355 C38 0.841 . S
C360 C84 1.022 . S
C385 C16 0.830 . S
C390 C93 0.936 . S
C415 C104 0.967 . S
C420 C27 0.861 . S
C445 C40 1.113 . S
C450 C117 1.111 . S
C475 C126 0.830 . S
C480 C7 0.975 . S
C505 C51 1.084 . S
C510 C128 1.087 . S
C535 C95 1.131 . S
C540 C62 1.130 . S
C565 C71 0.974 . S
C570 C106 1.067 . S
C595 C82 0.827 . S
C600 C115 0.837 . S
C625 C137 1.015 . S
C630 C205 1.038 . S
C655 C216 1.073 . S
C660 C150 1.089 . S
C685 C225 0.833 . S
C690 C161 0.997 . S
C715 C172 1.073 . S
C720 C227 1.035 . S
C745 C181 0.850 . S
C750 C203 0.827 . S
C775 C236 0.998 . S
C780 C192 0.855 . S
C805 C214 0.877 . S
C810 C247 1.014 . S
C835 C194 1.034 . S
C840 C258 0.855 . S
C865 C238 1.155 . S
C870 C260 1.107 . S
C895 C139 1.109 . S
C900 C183 1.065 . S
C925 C249 1.055 . S
C930 C148 0.834 . S
C955 C170 0.886 . S
C960 C159 0.807 . S
C985 C8 1.605 . S
C990 C217 1.600 . S
C1015 C19 1.554 . S
C1020 C228 1.560 1_455 S
C1045 C195 1.623 . S
C1050 C30 1.629 . S
C1075 C41 1.609 . S
C1080 C206 1.603 . S
C1105 C96 1.624 . S
C1110 C52 1.580 . S
C1135 C63 1.680 . S
C1140 C107 1.675 . S
C1165 C118 1.602 . S
C1170 C74 1.659 . S
C1195 C129 1.538 . S
C1200 C85 1.529 . S
C1225 C140 1.716 . S
C1230 C250 1.711 . S
C1255 C151 1.459 . S
C1260 C173 1.490 . S
C1285 C261 1.566 . S
C1290 C162 1.567 . S
C1315 C239 1.669 . S
C1320 C184 1.615 . S
