# Generated by pormake.
# Topology qtz-e, (6)-cn, num edge types: 1
# Building blocks:
#     Node 0, Type 0, BuildingBlock: KUMJIN_clean_sbu_0, # of connection points: 6
#     Node 1, Type 0, BuildingBlock: KUMJIN_clean_sbu_0, # of connection points: 6
#     Node 2, Type 0, BuildingBlock: KUMJIN_clean_sbu_0, # of connection points: 6
#     Node 3, Type 0, BuildingBlock: KUMJIN_clean_sbu_0, # of connection points: 6
#     Node 4, Type 0, BuildingBlock: KUMJIN_clean_sbu_0, # of connection points: 6
#     Node 5, Type 0, BuildingBlock: KUMJIN_clean_sbu_0, # of connection points: 6
#     Edge 6, Type (0, 0), BuildingBlock: EYOCIG_clean_linker_4, # of connection points: 2
#     Edge 7, Type (0, 0), BuildingBlock: EYOCIG_clean_linker_4, # of connection points: 2
#     Edge 8, Type (0, 0), BuildingBlock: EYOCIG_clean_linker_4, # of connection points: 2
#     Edge 9, Type (0, 0), BuildingBlock: EYOCIG_clean_linker_4, # of connection points: 2
#     Edge 10, Type (0, 0), BuildingBlock: EYOCIG_clean_linker_4, # of connection points: 2
#     Edge 11, Type (0, 0), BuildingBlock: EYOCIG_clean_linker_4, # of connection points: 2
#     Edge 12, Type (0, 0), BuildingBlock: EYOCIG_clean_linker_4, # of connection points: 2
#     Edge 13, Type (0, 0), BuildingBlock: EYOCIG_clean_linker_4, # of connection points: 2
#     Edge 14, Type (0, 0), BuildingBlock: EYOCIG_clean_linker_4, # of connection points: 2
#     Edge 15, Type (0, 0), BuildingBlock: EYOCIG_clean_linker_4, # of connection points: 2
#     Edge 16, Type (0, 0), BuildingBlock: EYOCIG_clean_linker_4, # of connection points: 2
#     Edge 17, Type (0, 0), BuildingBlock: EYOCIG_clean_linker_4, # of connection points: 2
#     Edge 18, Type (0, 0), BuildingBlock: EYOCIG_clean_linker_4, # of connection points: 2
#     Edge 19, Type (0, 0), BuildingBlock: EYOCIG_clean_linker_4, # of connection points: 2
#     Edge 20, Type (0, 0), BuildingBlock: EYOCIG_clean_linker_4, # of connection points: 2
#     Edge 21, Type (0, 0), BuildingBlock: EYOCIG_clean_linker_4, # of connection points: 2
#     Edge 22, Type (0, 0), BuildingBlock: EYOCIG_clean_linker_4, # of connection points: 2
#     Edge 23, Type (0, 0), BuildingBlock: EYOCIG_clean_linker_4, # of connection points: 2
# Relax obj value: 0.062
# Max RMSD: 0.151
# Mean RMSD: 0.151
data_MOF--net-qtz-e--node1-KUMJIN_clean_sbu_0--edge1-EYOCIG_clean_linker_4
_symmetry_space_group_name_H-M    P1
_symmetry_Int_Tables_number       1
_symmetry_cell_setting            triclinic
loop_
_symmetry_equiv_pos_as_xyz
'x, y, z'
_cell_length_a     23.924465
_cell_length_b     23.925038
_cell_length_c     39.981286
_cell_angle_alpha  89.99913
_cell_angle_beta   90.000801
_cell_angle_gamma 120.00495
loop_
_atom_site_label
_atom_site_type_symbol
_atom_site_fract_x
_atom_site_fract_y
_atom_site_fract_z
_atom_type_partial_charge
Eu0 Eu 0.26352 0.52053 0.05054 0.0
C1 C 0.06667 0.24001 0.0148 0.0
C2 C 0.09572 0.1865 0.05701 0.0
C3 C 0.98509 0.13623 0.03711 0.0
C4 C 0.11266 0.23912 0.03529 0.0
C5 C 1.00261 0.18792 0.01495 0.0
C6 C 0.03155 0.13559 0.05817 0.0
C7 C 0.97907 0.23939 0.96947 0.0
N8 N 0.08519 0.29038 0.99358 0.0
C9 C 0.04316 0.28971 0.97021 0.0
C10 C 0.95847 0.18857 0.99221 0.0
Eu11 Eu 0.19417 0.37454 0.9961 0.0
N12 N 0.17437 0.28866 0.03323 0.0
C13 C 0.22198 0.28741 0.05159 0.0
C14 C 0.14398 0.18605 0.07654 0.0
C15 C 0.20745 0.23656 0.07364 0.0
H16 H 0.05906 0.32867 0.95232 0.0
H17 H 0.24528 0.23646 0.08844 0.0
H18 H 0.01762 0.09496 0.0748 0.0
H19 H 0.94573 0.2397 0.95128 0.0
H20 H 0.27121 0.32613 0.05019 0.0
H21 H 0.30185 0.72889 0.97657 0.0
H22 H 0.13292 0.14662 0.09357 0.0
H23 H 0.36363 0.5074 0.10495 0.0
H24 H 0.23924 0.61987 1.00075 0.0
H25 H 0.47678 0.57144 0.12386 0.0
H26 H 0.93605 0.09601 0.03775 0.0
H27 H 0.41848 0.79581 0.98864 0.0
H28 H 0.5155 0.80963 0.01988 0.0
H29 H 0.90887 0.14944 0.99149 0.0
H30 H 0.56275 0.76738 0.06027 0.0
N31 N 0.32023 0.62329 0.02481 0.0
C32 C 0.29031 0.64813 1.00585 0.0
C33 C 0.39138 0.74766 0.99907 0.0
C34 C 0.42093 0.72359 0.02028 0.0
C35 C 0.32556 0.71008 0.99221 0.0
C36 C 0.38348 0.66059 0.03323 0.0
H37 H 0.54859 0.67903 0.09932 0.0
N38 N 0.37192 0.5773 0.06938 0.0
C39 C 0.45865 0.59036 0.10477 0.0
C40 C 0.40994 0.63727 0.05641 0.0
C41 C 0.39459 0.55425 0.09404 0.0
C42 C 0.49904 0.65108 0.09085 0.0
C43 C 0.47473 0.67558 0.06663 0.0
O44 O 0.2509 0.53203 0.10356 0.0
O45 O 0.1919 0.41418 0.04693 0.0
O46 O 0.11698 0.40582 1.00134 0.0
O47 O 0.17367 0.50995 0.02495 0.0
O48 O 0.247 0.44505 0.08966 0.0
O49 O 0.22339 0.58039 0.06651 0.0
O50 O 0.17897 0.34726 0.94304 0.0
O51 O 0.25435 0.48002 1.00003 0.0
O52 O 0.3482 0.51432 0.03041 0.0
O53 O 0.30096 0.4084 1.01029 0.0
O54 O 0.20299 0.44523 0.95586 0.0
O55 O 0.25035 0.33696 0.97083 0.0
C56 C 0.19944 0.39609 0.0755 0.0
C57 C 0.27452 0.63725 0.11616 0.0
C58 C 0.3184 0.69227 0.16876 0.0
C59 C 0.27832 0.63575 0.15107 0.0
C60 C 0.35582 0.75048 0.15168 0.0
C61 C 0.31125 0.6962 0.09919 0.0
C62 C 0.35224 0.75231 0.1169 0.0
C63 C 0.12184 0.46174 0.01082 0.0
C64 C 0.23535 0.57632 0.09803 0.0
C65 C 0.5128 0.73733 0.05283 0.0
C66 C 0.48594 0.76132 0.02975 0.0
C67 C 0.24362 0.49616 0.97192 0.0
C68 C 0.20857 0.27275 0.92125 0.0
C69 C 0.24326 0.27873 0.89127 0.0
C70 C 0.22857 0.22363 0.87162 0.0
C71 C 0.17907 0.16313 0.88234 0.0
C72 C 0.15943 0.21148 0.93113 0.0
C73 C 0.14489 0.1572 0.91179 0.0
C74 C 0.35196 0.46437 0.01951 0.0
C75 C 0.22301 0.33044 0.94171 0.0
H76 H 0.2493 0.59081 0.16446 0.0
H77 H 0.38635 0.79469 0.16526 0.0
H78 H 0.30861 0.69921 0.07235 0.0
H79 H 0.38061 0.7974 0.10368 0.0
H80 H 0.28135 0.32586 0.88335 0.0
H81 H 0.16681 0.12015 0.86792 0.0
H82 H 0.13221 0.2057 0.9538 0.0
H83 H 0.10683 0.11011 0.91968 0.0
Eu84 Eu 0.74866 0.2606 0.38387 0.0
C85 C 0.8324 0.06385 0.34814 0.0
C86 C 0.91499 0.09294 0.39035 0.0
C87 C 0.85464 0.9823 0.37046 0.0
C88 C 0.87929 0.10985 0.36862 0.0
C89 C 0.82045 0.9998 0.34829 0.0
C90 C 0.90174 0.02877 0.3915 0.0
C91 C 0.74544 0.97623 0.30281 0.0
N92 N 0.80054 0.08234 0.32691 0.0
C93 C 0.75918 0.0403 0.30354 0.0
C94 C 0.77566 0.95564 0.32555 0.0
Eu95 Eu 0.82533 0.19131 0.32943 0.0
N96 N 0.89144 0.17155 0.36656 0.0
C97 C 0.94029 0.21917 0.38492 0.0
C98 C 0.96369 0.14121 0.40987 0.0
C99 C 0.97663 0.20466 0.40697 0.0
H100 H 0.73611 0.05619 0.28566 0.0
H101 H 0.01455 0.2425 0.42177 0.0
H102 H 0.92845 0.01487 0.40814 0.0
H103 H 0.71177 0.94287 0.28462 0.0
H104 H 0.9508 0.2684 0.38351 0.0
H105 H 0.57861 0.2989 0.3099 0.0
H106 H 0.99207 0.13016 0.42691 0.0
H107 H 0.86189 0.36072 0.43829 0.0
H108 H 0.62504 0.23632 0.33407 0.0
H109 H 0.91098 0.47385 0.45721 0.0
H110 H 0.84582 0.93326 0.37109 0.0
H111 H 0.62829 0.41552 0.322 0.0
H112 H 0.71147 0.51253 0.35325 0.0
H113 H 0.76521 0.90605 0.32484 0.0
H114 H 0.80096 0.55978 0.39365 0.0
N115 N 0.70259 0.3173 0.35815 0.0
C116 C 0.64783 0.28738 0.33918 0.0
C117 C 0.64935 0.38843 0.33241 0.0
C118 C 0.70296 0.41798 0.35363 0.0
C119 C 0.62113 0.32262 0.32555 0.0
C120 C 0.72853 0.38054 0.36657 0.0
H121 H 0.87516 0.54564 0.43269 0.0
N122 N 0.80027 0.369 0.40272 0.0
C123 C 0.87393 0.45572 0.43813 0.0
C124 C 0.77831 0.40701 0.38976 0.0
C125 C 0.846 0.39167 0.42739 0.0
C126 C 0.85359 0.4961 0.42421 0.0
C127 C 0.80477 0.47179 0.39999 0.0
O128 O 0.72451 0.24796 0.43689 0.0
O129 O 0.78342 0.18902 0.38025 0.0
O130 O 0.71687 0.1141 0.33466 0.0
O131 O 0.66941 0.17076 0.35827 0.0
O132 O 0.80763 0.2441 0.42299 0.0
O133 O 0.64865 0.22044 0.39983 0.0
O134 O 0.83742 0.17611 0.27637 0.0
O135 O 0.78001 0.25146 0.33336 0.0
O136 O 0.83955 0.34531 0.36375 0.0
O137 O 0.89825 0.29811 0.34361 0.0
O138 O 0.76346 0.20012 0.28919 0.0
O139 O 0.9191 0.2475 0.30416 0.0
C140 C 0.80904 0.19656 0.40883 0.0
C141 C 0.64289 0.27154 0.44948 0.0
C142 C 0.63178 0.31545 0.50208 0.0
C143 C 0.64822 0.27537 0.48439 0.0
C144 C 0.61094 0.35282 0.48499 0.0
C145 C 0.62063 0.30824 0.43251 0.0
C146 C 0.6055 0.34922 0.45022 0.0
C147 C 0.66579 0.11894 0.34414 0.0
C148 C 0.66467 0.23239 0.43135 0.0
C149 C 0.78107 0.50984 0.38619 0.0
C150 C 0.73022 0.48298 0.36311 0.0
C151 C 0.75315 0.24074 0.30525 0.0
C152 C 0.94153 0.20572 0.25458 0.0
C153 C 0.97024 0.2404 0.2246 0.0
C154 C 0.01065 0.22572 0.20495 0.0
C155 C 0.02165 0.17622 0.21567 0.0
C156 C 0.95366 0.15659 0.26447 0.0
C157 C 0.99341 0.14205 0.24512 0.0
C158 C 0.89327 0.34909 0.35284 0.0
C159 C 0.89827 0.22015 0.27504 0.0
H160 H 0.66418 0.24639 0.49778 0.0
H161 H 0.59726 0.38335 0.49858 0.0
H162 H 0.61496 0.30558 0.40567 0.0
H163 H 0.58875 0.37755 0.437 0.0
H164 H 0.9612 0.27849 0.21668 0.0
H165 H 0.05238 0.16397 0.20125 0.0
H166 H 0.93223 0.12937 0.28714 0.0
H167 H 1.00244 0.104 0.25301 0.0
Eu168 Eu 0.49377 0.7458 0.7172 0.0
C169 C 0.77428 0.82953 0.68146 0.0
C170 C 0.8278 0.91211 0.72366 0.0
C171 C 0.87808 0.85176 0.70376 0.0
C172 C 0.77518 0.87642 0.70194 0.0
C173 C 0.82638 0.81758 0.6816 0.0
C174 C 0.87871 0.89886 0.72481 0.0
C175 C 0.77492 0.74258 0.63612 0.0
N176 N 0.72392 0.79768 0.66023 0.0
C177 C 0.72459 0.75632 0.63686 0.0
C178 C 0.82574 0.7728 0.65885 0.0
Eu179 Eu 0.63975 0.82247 0.66276 0.0
N180 N 0.72563 0.88857 0.69988 0.0
C181 C 0.72687 0.93742 0.71825 0.0
C182 C 0.82825 0.96081 0.74319 0.0
C183 C 0.77773 0.97375 0.74029 0.0
H184 H 0.68562 0.73325 0.61897 0.0
H185 H 0.77783 0.01168 0.7551 0.0
H186 H 0.91935 0.92557 0.74145 0.0
H187 H 0.7746 0.70892 0.61793 0.0
H188 H 0.68816 0.94793 0.71684 0.0
H189 H 0.28542 0.57572 0.64322 0.0
H190 H 0.86768 0.98919 0.76022 0.0
H191 H 0.50687 0.85901 0.77162 0.0
H192 H 0.39444 0.62217 0.6674 0.0
H193 H 0.44281 0.90808 0.79053 0.0
H194 H 0.9183 0.84295 0.70439 0.0
H195 H 0.21848 0.62539 0.6553 0.0
H196 H 0.20464 0.70857 0.68654 0.0
H197 H 0.86488 0.76235 0.65814 0.0
H198 H 0.24687 0.79806 0.72694 0.0
N199 N 0.391 0.69971 0.69147 0.0
C200 C 0.36617 0.64495 0.67251 0.0
C201 C 0.26664 0.64646 0.66573 0.0
C202 C 0.29069 0.70008 0.68694 0.0
C203 C 0.30422 0.61824 0.65887 0.0
C204 C 0.3537 0.72565 0.69989 0.0
H205 H 0.33521 0.87227 0.76599 0.0
N206 N 0.43697 0.79739 0.73604 0.0
C207 C 0.42389 0.87103 0.77144 0.0
C208 C 0.37701 0.77543 0.72308 0.0
C209 C 0.46002 0.84311 0.76071 0.0
C210 C 0.36317 0.8507 0.75752 0.0
C211 C 0.33869 0.80189 0.7333 0.0
O212 O 0.48227 0.72167 0.77022 0.0
O213 O 0.60012 0.78056 0.71359 0.0
O214 O 0.60849 0.71401 0.668 0.0
O215 O 0.50436 0.66654 0.69161 0.0
O216 O 0.56925 0.80478 0.75632 0.0
O217 O 0.43391 0.6458 0.73317 0.0
O218 O 0.66701 0.83455 0.60969 0.0
O219 O 0.53427 0.77715 0.66669 0.0
O220 O 0.49997 0.83669 0.69708 0.0
O221 O 0.60588 0.89538 0.67694 0.0
O222 O 0.56905 0.76057 0.62253 0.0
O223 O 0.67735 0.91624 0.63749 0.0
C224 C 0.61821 0.80619 0.74216 0.0
C225 C 0.37705 0.64006 0.78282 0.0
C226 C 0.32204 0.62896 0.83542 0.0
C227 C 0.37856 0.64539 0.81773 0.0
C228 C 0.26382 0.60812 0.81833 0.0
C229 C 0.3181 0.6178 0.76585 0.0
C230 C 0.26199 0.60269 0.78356 0.0
C231 C 0.55257 0.66293 0.67748 0.0
C232 C 0.43798 0.66182 0.76469 0.0
C233 C 0.27692 0.77817 0.71949 0.0
C234 C 0.25295 0.72733 0.69642 0.0
C235 C 0.51813 0.75027 0.63859 0.0
C236 C 0.74154 0.93866 0.5879 0.0
C237 C 0.73556 0.96737 0.55792 0.0
C238 C 0.79065 0.00777 0.53827 0.0
C239 C 0.85115 0.01876 0.54898 0.0
C240 C 0.8028 0.95078 0.59778 0.0
C241 C 0.85708 0.99052 0.57843 0.0
C242 C 0.54991 0.89041 0.68617 0.0
C243 C 0.68384 0.89541 0.60837 0.0
H244 H 0.4235 0.66134 0.83112 0.0
H245 H 0.21961 0.59445 0.83192 0.0
H246 H 0.31509 0.61213 0.73901 0.0
H247 H 0.21689 0.58593 0.77034 0.0
H248 H 0.68843 0.95834 0.55001 0.0
H249 H 0.89413 0.04949 0.53456 0.0
H250 H 0.80858 0.92934 0.62045 0.0
H251 H 0.90417 0.99954 0.58631 0.0
Eu252 Eu 0.75369 0.49091 0.05052 0.0
C253 C 0.95049 0.77144 0.01479 0.0
C254 C 0.92143 0.82495 0.05699 0.0
C255 C 0.03206 0.87523 0.03709 0.0
C256 C 0.9045 0.77233 0.03527 0.0
C257 C 0.01455 0.82354 0.01493 0.0
C258 C 0.9856 0.87586 0.05814 0.0
C259 C 0.03809 0.77208 0.96945 0.0
N260 N 0.93198 0.72107 0.99356 0.0
C261 C 0.97401 0.72175 0.97019 0.0
C262 C 0.0587 0.8229 0.99218 0.0
Eu263 Eu 0.82301 0.6369 0.99609 0.0
N264 N 0.84279 0.72277 0.03321 0.0
C265 C 0.79519 0.72402 0.05158 0.0
C266 C 0.87317 0.82539 0.07652 0.0
C267 C 0.80971 0.77487 0.07362 0.0
H268 H 0.95811 0.68279 0.95231 0.0
H269 H 0.77188 0.77496 0.08842 0.0
H270 H 0.99952 0.91649 0.07478 0.0
H271 H 0.07144 0.77177 0.95126 0.0
H272 H 0.74596 0.6853 0.05017 0.0
H273 H 0.71545 0.28257 0.97656 0.0
H274 H 0.88423 0.86482 0.09355 0.0
H275 H 0.65355 0.50399 0.10494 0.0
H276 H 0.77802 0.3916 1.00074 0.0
H277 H 0.54041 0.43992 0.12384 0.0
H278 H 0.08111 0.91545 0.03773 0.0
H279 H 0.59883 0.21562 0.98864 0.0
H280 H 0.50179 0.20176 0.01987 0.0
H281 H 0.10829 0.86204 0.99147 0.0
H282 H 0.45451 0.24398 0.06026 0.0
N283 N 0.69702 0.38814 0.02481 0.0
C284 C 0.72696 0.36332 1.00584 0.0
C285 C 0.62591 0.26377 0.99906 0.0
C286 C 0.59634 0.28782 0.02027 0.0
C287 C 0.69172 0.30137 0.99221 0.0
C288 C 0.63377 0.35083 0.03322 0.0
H289 H 0.46863 0.33231 0.09931 0.0
N290 N 0.64529 0.4341 0.06936 0.0
C291 C 0.55855 0.42101 0.10476 0.0
C292 C 0.60729 0.37413 0.0564 0.0
C293 C 0.6226 0.45714 0.09403 0.0
C294 C 0.51817 0.36028 0.09083 0.0
C295 C 0.5425 0.3358 0.06662 0.0
O296 O 0.76631 0.47941 0.10355 0.0
O297 O 0.82528 0.59727 0.04692 0.0
O298 O 0.90022 0.60565 1.00133 0.0
O299 O 0.84355 0.50152 0.02494 0.0
O300 O 0.77018 0.56638 0.08965 0.0
O301 O 0.79385 0.43108 0.06651 0.0
O302 O 0.83819 0.66417 0.94302 0.0
O303 O 0.76285 0.53142 1.00002 0.0
O304 O 0.66899 0.49709 0.0304 0.0
O305 O 0.71622 0.60301 1.01028 0.0
O306 O 0.81421 0.56621 0.95585 0.0
O307 O 0.76682 0.67447 0.97082 0.0
C308 C 0.81773 0.61535 0.07549 0.0
C309 C 0.74273 0.37421 0.11615 0.0
C310 C 0.6988 0.31918 0.16875 0.0
C311 C 0.73889 0.37571 0.15106 0.0
C312 C 0.66143 0.26096 0.15166 0.0
C313 C 0.70603 0.31525 0.09918 0.0
C314 C 0.66504 0.25914 0.11689 0.0
C315 C 0.89538 0.54973 0.01081 0.0
C316 C 0.78189 0.43514 0.09803 0.0
C317 C 0.50446 0.27404 0.05282 0.0
C318 C 0.53134 0.25007 0.02974 0.0
C319 C 0.77358 0.51528 0.97191 0.0
C320 C 0.80859 0.73868 0.92123 0.0
C321 C 0.7739 0.7327 0.89126 0.0
C322 C 0.78859 0.78779 0.87161 0.0
C323 C 0.83809 0.84829 0.88233 0.0
C324 C 0.85772 0.79994 0.93112 0.0
C325 C 0.87226 0.85423 0.91178 0.0
C326 C 0.66522 0.54704 0.0195 0.0
C327 C 0.79415 0.68098 0.9417 0.0
H328 H 0.76787 0.42065 0.16445 0.0
H329 H 0.6309 0.21675 0.16524 0.0
H330 H 0.7087 0.31224 0.07234 0.0
H331 H 0.63671 0.21404 0.10366 0.0
H332 H 0.73581 0.68556 0.88334 0.0
H333 H 0.85034 0.89128 0.8679 0.0
H334 H 0.88494 0.80573 0.95379 0.0
H335 H 0.91032 0.90132 0.91966 0.0
Eu336 Eu 0.26843 0.75082 0.38387 0.0
C337 C 0.18475 0.94764 0.34813 0.0
C338 C 0.10218 0.91859 0.39035 0.0
C339 C 0.16255 0.02921 0.37044 0.0
C340 C 0.13786 0.90165 0.36862 0.0
C341 C 0.19673 0.0117 0.34828 0.0
C342 C 0.11545 0.98275 0.3915 0.0
C343 C 0.27172 0.03523 0.30279 0.0
N344 N 0.2166 0.92912 0.32691 0.0
C345 C 0.25795 0.97115 0.30354 0.0
C346 C 0.24151 0.05584 0.32553 0.0
Eu347 Eu 0.19178 0.82015 0.32944 0.0
N348 N 0.12569 0.83994 0.36656 0.0
C349 C 0.07684 0.79234 0.38493 0.0
C350 C 0.05347 0.87033 0.40987 0.0
C351 C 0.04051 0.80686 0.40697 0.0
H352 H 0.28101 0.95525 0.28565 0.0
H353 H 1.00258 0.76903 0.42178 0.0
H354 H 0.08875 0.99668 0.40813 0.0
H355 H 0.30538 0.06858 0.2846 0.0
H356 H 0.06631 0.74311 0.38352 0.0
H357 H 0.43849 0.71253 0.3099 0.0
H358 H 0.0251 0.88139 0.42691 0.0
H359 H 0.15518 0.6507 0.43828 0.0
H360 H 0.39206 0.77512 0.33408 0.0
H361 H 0.10607 0.53755 0.45718 0.0
H362 H 0.17138 0.07826 0.37108 0.0
H363 H 0.38878 0.59591 0.32198 0.0
H364 H 0.30557 0.49888 0.35322 0.0
H365 H 0.25198 0.10543 0.32482 0.0
H366 H 0.21607 0.45162 0.3936 0.0
N367 N 0.3145 0.69413 0.35815 0.0
C368 C 0.36926 0.72405 0.33918 0.0
C369 C 0.36772 0.623 0.3324 0.0
C370 C 0.3141 0.59344 0.35361 0.0
C371 C 0.39596 0.68881 0.32555 0.0
C372 C 0.28854 0.63088 0.36656 0.0
H373 H 0.14187 0.46576 0.43265 0.0
N374 N 0.2168 0.64242 0.40271 0.0
C375 C 0.14312 0.55569 0.4381 0.0
C376 C 0.23875 0.60441 0.38974 0.0
C377 C 0.17107 0.61974 0.42737 0.0
C378 C 0.16346 0.5153 0.42417 0.0
C379 C 0.21227 0.53962 0.39996 0.0
O380 O 0.29256 0.76344 0.43689 0.0
O381 O 0.23368 0.82242 0.38026 0.0
O382 O 0.30024 0.89735 0.33467 0.0
O383 O 0.34769 0.84067 0.35828 0.0
O384 O 0.20946 0.76732 0.42299 0.0
O385 O 0.36843 0.79097 0.39984 0.0
O386 O 0.17969 0.83533 0.27637 0.0
O387 O 0.23709 0.75999 0.33336 0.0
O388 O 0.17754 0.66613 0.36374 0.0
O389 O 0.11885 0.71336 0.34363 0.0
O390 O 0.25364 0.81133 0.28919 0.0
O391 O 0.098 0.76398 0.30417 0.0
C392 C 0.20806 0.81487 0.40883 0.0
C393 C 0.37418 0.73985 0.44949 0.0
C394 C 0.38529 0.69593 0.50208 0.0
C395 C 0.36886 0.73602 0.48439 0.0
C396 C 0.40611 0.65854 0.48499 0.0
C397 C 0.39642 0.70314 0.43251 0.0
C398 C 0.41154 0.66215 0.45022 0.0
C399 C 0.35132 0.8925 0.34415 0.0
C400 C 0.35241 0.77901 0.43136 0.0
C401 C 0.23598 0.50157 0.38616 0.0
C402 C 0.28683 0.52844 0.36309 0.0
C403 C 0.26394 0.77071 0.30525 0.0
C404 C 0.07558 0.80574 0.25458 0.0
C405 C 0.04687 0.77106 0.2246 0.0
C406 C 1.00647 0.78574 0.20494 0.0
C407 C 0.99548 0.83525 0.21566 0.0
C408 C 0.06345 0.85488 0.26446 0.0
C409 C 0.02371 0.86942 0.24511 0.0
C410 C 0.12382 0.66237 0.35284 0.0
C411 C 0.11883 0.7913 0.27505 0.0
H412 H 0.35291 0.76501 0.49779 0.0
H413 H 0.41979 0.62801 0.49857 0.0
H414 H 0.40208 0.7058 0.40567 0.0
H415 H 0.42828 0.63381 0.43699 0.0
H416 H 0.05591 0.73297 0.21668 0.0
H417 H 0.96475 0.8475 0.20123 0.0
H418 H 0.08488 0.88209 0.28713 0.0
H419 H 0.01469 0.90748 0.253 0.0
Eu420 Eu 0.52338 0.26559 0.71721 0.0
C421 C 0.24286 0.18185 0.6815 0.0
C422 C 0.18936 0.09927 0.72371 0.0
C423 C 0.13908 0.15961 0.70382 0.0
C424 C 0.24197 0.13496 0.70198 0.0
C425 C 0.19076 0.1938 0.68165 0.0
C426 C 0.13845 0.11252 0.72487 0.0
C427 C 0.2422 0.26882 0.63617 0.0
N428 N 0.29321 0.21371 0.66027 0.0
C429 C 0.29253 0.25507 0.6369 0.0
C430 C 0.19139 0.23859 0.65892 0.0
Eu431 Eu 0.37738 0.18893 0.66278 0.0
N432 N 0.29153 0.12282 0.69991 0.0
C433 C 0.29029 0.07397 0.71827 0.0
C434 C 0.18893 0.05057 0.74323 0.0
C435 C 0.23945 0.03763 0.74032 0.0
H436 H 0.33148 0.27815 0.61902 0.0
H437 H 0.23937 0.99971 0.75513 0.0
H438 H 0.09783 0.0858 0.74151 0.0
H439 H 0.2425 0.30248 0.61799 0.0
H440 H 0.32901 0.06347 0.71686 0.0
H441 H 0.73172 0.43563 0.64322 0.0
H442 H 0.14951 0.02219 0.76027 0.0
H443 H 0.51028 0.15238 0.77164 0.0
H444 H 0.62271 0.38921 0.66741 0.0
H445 H 0.57433 0.10329 0.79054 0.0
H446 H 0.09885 0.16843 0.70447 0.0
H447 H 0.79864 0.38593 0.65529 0.0
H448 H 0.81247 0.30274 0.68653 0.0
H449 H 0.15225 0.24904 0.65821 0.0
H450 H 0.77024 0.21326 0.72693 0.0
N451 N 0.62614 0.31165 0.69148 0.0
C452 C 0.65097 0.36641 0.67251 0.0
C453 C 0.75049 0.36488 0.66572 0.0
C454 C 0.72643 0.31126 0.68694 0.0
C455 C 0.71291 0.39311 0.65887 0.0
C456 C 0.66344 0.28571 0.69989 0.0
H457 H 0.68191 0.13908 0.76599 0.0
N458 N 0.58017 0.21398 0.73605 0.0
C459 C 0.59324 0.14033 0.77145 0.0
C460 C 0.64013 0.23593 0.72308 0.0
C461 C 0.55713 0.16826 0.76072 0.0
C462 C 0.65395 0.16066 0.75752 0.0
C463 C 0.67844 0.20946 0.7333 0.0
O464 O 0.5349 0.28972 0.77023 0.0
O465 O 0.41703 0.23084 0.7136 0.0
O466 O 0.40866 0.29739 0.66802 0.0
O467 O 0.51279 0.34485 0.69162 0.0
O468 O 0.4479 0.20662 0.75634 0.0
O469 O 0.58326 0.36559 0.73318 0.0
O470 O 0.35009 0.17685 0.60972 0.0
O471 O 0.48287 0.23423 0.6667 0.0
O472 O 0.51717 0.17468 0.69709 0.0
O473 O 0.41126 0.116 0.67695 0.0
O474 O 0.44807 0.25082 0.62254 0.0
O475 O 0.3398 0.09517 0.6375 0.0
C476 C 0.39895 0.20522 0.74218 0.0
C477 C 0.64013 0.37132 0.78282 0.0
C478 C 0.69516 0.38242 0.83542 0.0
C479 C 0.63864 0.366 0.81773 0.0
C480 C 0.75337 0.40323 0.81833 0.0
C481 C 0.69908 0.39355 0.76585 0.0
C482 C 0.75519 0.40866 0.78355 0.0
C483 C 0.46458 0.34847 0.67749 0.0
C484 C 0.57919 0.34957 0.7647 0.0
C485 C 0.7402 0.23316 0.71948 0.0
C486 C 0.76417 0.284 0.6964 0.0
C487 C 0.499 0.26111 0.6386 0.0
C488 C 0.27558 0.07274 0.58792 0.0
C489 C 0.28156 0.04404 0.55794 0.0
C490 C 0.22646 1.00363 0.53829 0.0
C491 C 0.16596 0.99262 0.54901 0.0
C492 C 0.21431 0.0606 0.59781 0.0
C493 C 0.16002 0.02085 0.57846 0.0
C494 C 0.46722 0.12097 0.68618 0.0
C495 C 0.33328 0.116 0.60839 0.0
H496 H 0.5937 0.35007 0.83113 0.0
H497 H 0.79758 0.4169 0.83191 0.0
H498 H 0.70208 0.39921 0.73901 0.0
H499 H 0.80028 0.42539 0.77032 0.0
H500 H 0.32869 0.05308 0.55002 0.0
H501 H 0.12297 0.96189 0.53459 0.0
H502 H 0.20853 0.08203 0.62048 0.0
H503 H 0.11294 0.01182 0.58635 0.0
C504 C 0.30271 0.71025 0.26663 0.0
C505 C 0.28497 0.73208 0.28848 0.0
C506 C 0.31443 0.6957 0.23439 0.0
C507 C 0.31498 0.69214 0.20448 0.0
C508 C 0.5982 0.29983 0.59996 0.0
C509 C 0.55865 0.28212 0.62181 0.0
C510 C 0.62445 0.31154 0.5677 0.0
C511 C 0.62853 0.31206 0.5378 0.0
C512 C 0.30409 0.59538 0.9333 0.0
C513 C 0.28226 0.55582 0.95515 0.0
C514 C 0.31863 0.62163 0.90104 0.0
C515 C 0.32218 0.62571 0.87114 0.0
C516 C 0.7144 0.30121 0.26663 0.0
C517 C 0.73213 0.27938 0.28848 0.0
C518 C 0.7027 0.31576 0.23437 0.0
C519 C 0.70219 0.31932 0.20447 0.0
C520 C 0.41891 0.71155 0.59996 0.0
C521 C 0.45847 0.72927 0.62181 0.0
C522 C 0.39265 0.69985 0.56771 0.0
C523 C 0.38855 0.69932 0.5378 0.0
C524 C 0.71313 0.41605 0.93329 0.0
C525 C 0.73495 0.45561 0.95514 0.0
C526 C 0.69859 0.38978 0.90104 0.0
C527 C 0.69503 0.3857 0.87113 0.0
C528 C 0.47443 0.49304 0.01552 0.0
C529 C 0.41694 0.47468 0.01632 0.0
C530 C 0.54275 0.51835 0.01552 0.0
C531 C 0.60024 0.53672 0.01631 0.0
C532 C 0.03003 0.53989 0.34885 0.0
C533 C 0.06915 0.59738 0.34965 0.0
C534 C 0.98705 0.47158 0.34885 0.0
C535 C 0.94793 0.41408 0.34964 0.0
C536 C 0.4959 0.02718 0.68219 0.0
C537 C 0.47754 0.06631 0.68298 0.0
C538 C 0.52123 0.9842 0.68219 0.0
C539 C 0.53959 0.94507 0.68298 0.0
C540 C 0.52147 0.53999 0.66972 0.0
C541 C 0.54069 0.59766 0.67197 0.0
C542 C 0.4957 0.47141 0.66972 0.0
C543 C 0.47647 0.41374 0.67198 0.0
C544 C 0.03002 0.49286 1.00305 0.0
C545 C 0.06845 0.47363 1.0053 0.0
C546 C 0.98721 0.51863 1.00305 0.0
C547 C 0.94877 0.53785 1.0053 0.0
C548 C 0.47426 0.98431 0.33637 0.0
C549 C 0.41659 0.94588 0.33863 0.0
C550 C 0.54285 0.02712 0.33637 0.0
C551 C 0.60052 0.06555 0.33862 0.0
C552 C 0.32033 0.21603 0.78585 0.0
C553 C 0.3529 0.21208 0.76341 0.0
C554 C 0.28896 0.22313 0.81498 0.0
C555 C 0.26366 0.22698 0.84082 0.0
C556 C 0.07154 0.2861 0.14831 0.0
C557 C 0.04239 0.2608 0.17415 0.0
C558 C 0.11 0.31747 0.11918 0.0
C559 C 0.14653 0.35004 0.09673 0.0
C560 C 0.79115 0.06866 0.48163 0.0
C561 C 0.78731 0.03952 0.50747 0.0
C562 C 0.79824 0.10712 0.4525 0.0
C563 C 0.80218 0.14365 0.43006 0.0
C564 C 0.69683 0.79538 0.78583 0.0
C565 C 0.66426 0.79933 0.76339 0.0
C566 C 0.7282 0.78829 0.81497 0.0
C567 C 0.7535 0.78444 0.84081 0.0
C568 C 0.9456 0.72536 0.1483 0.0
C569 C 0.97474 0.75066 0.17414 0.0
C570 C 0.90715 0.69399 0.11917 0.0
C571 C 0.87063 0.6614 0.09672 0.0
C572 C 0.22596 0.94275 0.48164 0.0
C573 C 0.2298 0.97189 0.50748 0.0
C574 C 0.21887 0.9043 0.45251 0.0
C575 C 0.21492 0.86778 0.43006 0.0
loop_
_geom_bond_atom_site_label_1
_geom_bond_atom_site_label_2
_geom_bond_distance
_geom_bond_site_symmetry_2
_ccdc_geom_bond_type
Eu0 N31 2.657 . S
Eu0 N38 2.609 . S
Eu0 O44 2.558 . S
Eu0 O45 2.612 . S
Eu0 O47 2.339 . S
Eu0 O48 2.563 . S
Eu0 O49 2.419 . S
Eu0 O51 2.380 1_554 S
Eu0 O52 2.432 . S
Eu0 C64 2.848 . S
C1 C4 1.429 . S
C1 C5 1.411 1_455 S
C1 N8 1.377 1_554 S
C2 C4 1.420 . S
C2 C6 1.423 . S
C2 C14 1.392 . S
C3 C5 1.420 . S
C3 C6 1.351 1_655 S
C3 H26 0.931 . S
C4 C1 1.429 . S
C4 C2 1.420 . S
C4 N12 1.362 . S
C5 C1 1.411 1_655 S
C5 C3 1.420 . S
C5 C10 1.395 1_554 S
C6 C2 1.423 . S
C6 C3 1.351 1_455 S
C6 H18 0.930 1_455 S
C7 C9 1.400 1_655 S
C7 C10 1.386 . S
C7 H19 0.930 . S
N8 C1 1.377 1_556 S
N8 C9 1.321 . S
N8 Eu11 2.609 . S
C9 C7 1.400 1_455 S
C9 N8 1.321 . S
C9 H16 0.930 . S
C10 C5 1.395 1_556 S
C10 C7 1.386 . S
C10 H29 0.930 . S
Eu11 N8 2.609 . S
Eu11 N12 2.657 1_556 S
Eu11 O45 2.380 1_556 S
Eu11 O46 2.432 . S
Eu11 O50 2.558 . S
Eu11 O51 2.612 . S
Eu11 O53 2.339 1_556 S
Eu11 O54 2.563 . S
Eu11 O55 2.419 . S
Eu11 C75 2.848 . S
N12 C4 1.362 . S
N12 Eu11 2.657 1_554 S
N12 C13 1.334 . S
C13 N12 1.334 . S
C13 C15 1.413 . S
C13 H20 0.929 . S
C14 C2 1.392 . S
C14 C15 1.367 . S
C14 H22 0.930 . S
C15 C13 1.413 . S
C15 C14 1.367 . S
C15 H17 0.930 . S
H16 C9 0.930 . S
H17 C15 0.930 . S
H18 C6 0.930 1_655 S
H19 C7 0.930 . S
H20 C13 0.929 . S
H21 C35 0.930 . S
H22 C14 0.930 . S
H23 C41 0.930 . S
H24 C32 0.929 . S
H25 C39 0.930 . S
H26 C3 0.931 . S
H27 C33 0.930 . S
H28 C66 0.930 . S
H29 C10 0.930 . S
H30 C65 0.931 . S
N31 Eu0 2.657 . S
N31 C32 1.334 1_554 S
N31 C36 1.362 . S
C32 H24 0.929 . S
C32 N31 1.334 1_556 S
C32 C35 1.413 . S
C33 H27 0.930 . S
C33 C34 1.392 . S
C33 C35 1.367 . S
C34 C33 1.392 . S
C34 C36 1.420 1_556 S
C34 C66 1.423 . S
C35 H21 0.930 . S
C35 C32 1.413 . S
C35 C33 1.367 . S
C36 N31 1.362 . S
C36 C34 1.420 1_554 S
C36 C40 1.429 . S
H37 C42 0.930 . S
N38 Eu0 2.609 . S
N38 C40 1.377 . S
N38 C41 1.321 . S
C39 H25 0.930 . S
C39 C41 1.400 . S
C39 C42 1.386 . S
C40 C36 1.429 . S
C40 N38 1.377 . S
C40 C43 1.411 . S
C41 H23 0.930 . S
C41 N38 1.321 . S
C41 C39 1.400 . S
C42 H37 0.930 . S
C42 C39 1.386 . S
C42 C43 1.395 . S
C43 C40 1.411 . S
C43 C42 1.395 . S
C43 C65 1.420 . S
O44 Eu0 2.558 . S
O44 C64 1.257 . S
O45 Eu0 2.612 . S
O45 Eu11 2.380 1_554 S
O45 C56 1.276 . S
O46 Eu11 2.432 . S
O46 C63 1.264 1_556 S
O47 Eu0 2.339 . S
O47 C63 1.254 . S
O48 Eu0 2.563 . S
O48 C56 1.235 . S
O49 Eu0 2.419 . S
O49 C64 1.249 . S
O50 Eu11 2.558 . S
O50 C75 1.257 . S
O51 Eu0 2.380 1_556 S
O51 Eu11 2.612 . S
O51 C67 1.276 . S
O52 Eu0 2.432 . S
O52 C74 1.264 . S
O53 Eu11 2.339 1_554 S
O53 C74 1.254 . S
O54 Eu11 2.563 . S
O54 C67 1.235 . S
O55 Eu11 2.419 . S
O55 C75 1.249 . S
C56 O45 1.276 . S
C56 O48 1.235 . S
C57 C59 1.393 . S
C57 C61 1.395 . S
C57 C64 1.492 . S
C58 C59 1.392 . S
C58 C60 1.386 . S
C59 C57 1.393 . S
C59 C58 1.392 . S
C59 H76 0.930 . S
C60 C58 1.386 . S
C60 C62 1.395 . S
C60 H77 0.930 . S
C61 C57 1.395 . S
C61 C62 1.379 . S
C61 H78 0.930 . S
C62 C60 1.395 . S
C62 C61 1.379 . S
C62 H79 0.930 . S
C63 O46 1.264 1_554 S
C63 O47 1.254 . S
C64 Eu0 2.848 . S
C64 O44 1.257 . S
C64 O49 1.249 . S
C64 C57 1.492 . S
C65 H30 0.931 . S
C65 C43 1.420 . S
C65 C66 1.351 1_554 S
C66 H28 0.930 . S
C66 C34 1.423 . S
C66 C65 1.351 1_556 S
C67 O51 1.276 . S
C67 O54 1.235 . S
C68 C69 1.393 . S
C68 C72 1.395 . S
C68 C75 1.492 . S
C69 C68 1.393 . S
C69 C70 1.392 . S
C69 H80 0.930 . S
C70 C69 1.392 . S
C70 C71 1.386 . S
C71 C70 1.386 . S
C71 C73 1.395 . S
C71 H81 0.930 . S
C72 C68 1.395 . S
C72 C73 1.379 . S
C72 H82 0.930 . S
C73 C71 1.395 . S
C73 C72 1.379 . S
C73 H83 0.930 . S
C74 O52 1.264 . S
C74 O53 1.254 . S
C75 Eu11 2.848 . S
C75 O50 1.257 . S
C75 O55 1.249 . S
C75 C68 1.492 . S
H76 C59 0.930 . S
H77 C60 0.930 . S
H78 C61 0.930 . S
H79 C62 0.930 . S
H80 C69 0.930 . S
H81 C71 0.930 . S
H82 C72 0.930 . S
H83 C73 0.930 . S
Eu84 N115 2.657 . S
Eu84 N122 2.609 . S
Eu84 O128 2.558 . S
Eu84 O129 2.612 . S
Eu84 O131 2.339 . S
Eu84 O132 2.563 . S
Eu84 O133 2.419 . S
Eu84 O135 2.380 . S
Eu84 O136 2.432 . S
Eu84 C148 2.848 . S
C85 C88 1.429 . S
C85 C89 1.411 1_545 S
C85 N92 1.377 . S
C86 C88 1.420 . S
C86 C90 1.423 . S
C86 C98 1.392 . S
C87 C89 1.420 . S
C87 C90 1.351 1_565 S
C87 H110 0.931 . S
C88 C85 1.429 . S
C88 C86 1.420 . S
C88 N96 1.362 . S
C89 C85 1.411 1_565 S
C89 C87 1.420 . S
C89 C94 1.395 . S
C90 C86 1.423 . S
C90 C87 1.351 1_545 S
C90 H102 0.930 1_545 S
C91 C93 1.400 1_565 S
C91 C94 1.386 . S
C91 H103 0.930 . S
N92 C85 1.377 . S
N92 C93 1.321 . S
N92 Eu95 2.609 . S
C93 C91 1.400 1_545 S
C93 N92 1.321 . S
C93 H100 0.930 . S
C94 C89 1.395 . S
C94 C91 1.386 . S
C94 H113 0.930 . S
Eu95 N92 2.609 . S
Eu95 N96 2.657 . S
Eu95 O129 2.380 . S
Eu95 O130 2.432 . S
Eu95 O134 2.558 . S
Eu95 O135 2.612 . S
Eu95 O137 2.339 . S
Eu95 O138 2.563 . S
Eu95 O139 2.419 . S
Eu95 C159 2.848 . S
N96 C88 1.362 . S
N96 Eu95 2.657 . S
N96 C97 1.334 . S
C97 N96 1.334 . S
C97 C99 1.413 . S
C97 H104 0.929 . S
C98 C86 1.392 . S
C98 C99 1.367 . S
C98 H106 0.930 1_655 S
C99 C97 1.413 . S
C99 C98 1.367 . S
C99 H101 0.930 1_655 S
H100 C93 0.930 . S
H101 C99 0.930 1_455 S
H102 C90 0.930 1_565 S
H103 C91 0.930 . S
H104 C97 0.929 . S
H105 C119 0.930 . S
H106 C98 0.930 1_455 S
H107 C125 0.930 . S
H108 C116 0.929 . S
H109 C123 0.930 . S
H110 C87 0.931 . S
H111 C117 0.930 . S
H112 C150 0.930 . S
H113 C94 0.930 . S
H114 C149 0.931 . S
N115 Eu84 2.657 . S
N115 C116 1.334 . S
N115 C120 1.362 . S
C116 H108 0.929 . S
C116 N115 1.334 . S
C116 C119 1.413 . S
C117 H111 0.930 . S
C117 C118 1.392 . S
C117 C119 1.367 . S
C118 C117 1.392 . S
C118 C120 1.420 . S
C118 C150 1.423 . S
C119 H105 0.930 . S
C119 C116 1.413 . S
C119 C117 1.367 . S
C120 N115 1.362 . S
C120 C118 1.420 . S
C120 C124 1.429 . S
H121 C126 0.930 . S
N122 Eu84 2.609 . S
N122 C124 1.377 . S
N122 C125 1.321 . S
C123 H109 0.930 . S
C123 C125 1.400 . S
C123 C126 1.386 . S
C124 C120 1.429 . S
C124 N122 1.377 . S
C124 C127 1.411 . S
C125 H107 0.930 . S
C125 N122 1.321 . S
C125 C123 1.400 . S
C126 H121 0.930 . S
C126 C123 1.386 . S
C126 C127 1.395 . S
C127 C124 1.411 . S
C127 C126 1.395 . S
C127 C149 1.420 . S
O128 Eu84 2.558 . S
O128 C148 1.257 . S
O129 Eu84 2.612 . S
O129 Eu95 2.380 . S
O129 C140 1.276 . S
O130 Eu95 2.432 . S
O130 C147 1.264 . S
O131 Eu84 2.339 . S
O131 C147 1.254 . S
O132 Eu84 2.563 . S
O132 C140 1.235 . S
O133 Eu84 2.419 . S
O133 C148 1.249 . S
O134 Eu95 2.558 . S
O134 C159 1.257 . S
O135 Eu84 2.380 . S
O135 Eu95 2.612 . S
O135 C151 1.276 . S
O136 Eu84 2.432 . S
O136 C158 1.264 . S
O137 Eu95 2.339 . S
O137 C158 1.254 . S
O138 Eu95 2.563 . S
O138 C151 1.235 . S
O139 Eu95 2.419 . S
O139 C159 1.249 . S
C140 O129 1.276 . S
C140 O132 1.235 . S
C141 C143 1.393 . S
C141 C145 1.395 . S
C141 C148 1.492 . S
C142 C143 1.392 . S
C142 C144 1.386 . S
C143 C141 1.393 . S
C143 C142 1.392 . S
C143 H160 0.930 . S
C144 C142 1.386 . S
C144 C146 1.395 . S
C144 H161 0.930 . S
C145 C141 1.395 . S
C145 C146 1.379 . S
C145 H162 0.930 . S
C146 C144 1.395 . S
C146 C145 1.379 . S
C146 H163 0.930 . S
C147 O130 1.264 . S
C147 O131 1.254 . S
C148 Eu84 2.848 . S
C148 O128 1.257 . S
C148 O133 1.249 . S
C148 C141 1.492 . S
C149 H114 0.931 . S
C149 C127 1.420 . S
C149 C150 1.351 . S
C150 H112 0.930 . S
C150 C118 1.423 . S
C150 C149 1.351 . S
C151 O135 1.276 . S
C151 O138 1.235 . S
C152 C153 1.393 . S
C152 C156 1.395 . S
C152 C159 1.492 . S
C153 C152 1.393 . S
C153 C154 1.392 1_655 S
C153 H164 0.930 . S
C154 C153 1.392 1_455 S
C154 C155 1.386 1_455 S
C155 C154 1.386 1_655 S
C155 C157 1.395 . S
C155 H165 0.930 1_655 S
C156 C152 1.395 . S
C156 C157 1.379 . S
C156 H166 0.930 . S
C157 C155 1.395 . S
C157 C156 1.379 . S
C157 H167 0.930 . S
C158 O136 1.264 . S
C158 O137 1.254 . S
C159 Eu95 2.848 . S
C159 O134 1.257 . S
C159 O139 1.249 . S
C159 C152 1.492 . S
H160 C143 0.930 . S
H161 C144 0.930 . S
H162 C145 0.930 . S
H163 C146 0.930 . S
H164 C153 0.930 . S
H165 C155 0.930 1_455 S
H166 C156 0.930 . S
H167 C157 0.930 . S
Eu168 N199 2.657 . S
Eu168 N206 2.609 . S
Eu168 O212 2.558 . S
Eu168 O213 2.612 . S
Eu168 O215 2.339 . S
Eu168 O216 2.563 . S
Eu168 O217 2.419 . S
Eu168 O219 2.380 . S
Eu168 O220 2.432 . S
Eu168 C232 2.848 . S
C169 C172 1.429 . S
C169 C173 1.411 . S
C169 N176 1.377 . S
C170 C172 1.420 . S
C170 C174 1.423 . S
C170 C182 1.392 . S
C171 C173 1.420 . S
C171 C174 1.351 . S
C171 H194 0.931 . S
C172 C169 1.429 . S
C172 C170 1.420 . S
C172 N180 1.362 . S
C173 C169 1.411 . S
C173 C171 1.420 . S
C173 C178 1.395 . S
C174 C170 1.423 . S
C174 C171 1.351 . S
C174 H186 0.930 . S
C175 C177 1.400 . S
C175 C178 1.386 . S
C175 H187 0.930 . S
N176 C169 1.377 . S
N176 C177 1.321 . S
N176 Eu179 2.609 . S
C177 C175 1.400 . S
C177 N176 1.321 . S
C177 H184 0.930 . S
C178 C173 1.395 . S
C178 C175 1.386 . S
C178 H197 0.930 . S
Eu179 N176 2.609 . S
Eu179 N180 2.657 . S
Eu179 O213 2.380 . S
Eu179 O214 2.432 . S
Eu179 O218 2.558 . S
Eu179 O219 2.612 . S
Eu179 O221 2.339 . S
Eu179 O222 2.563 . S
Eu179 O223 2.419 . S
Eu179 C243 2.848 . S
N180 C172 1.362 . S
N180 Eu179 2.657 . S
N180 C181 1.334 . S
C181 N180 1.334 . S
C181 C183 1.413 . S
C181 H188 0.929 . S
C182 C170 1.392 . S
C182 C183 1.367 . S
C182 H190 0.930 1_565 S
C183 C181 1.413 . S
C183 C182 1.367 . S
C183 H185 0.930 1_565 S
H184 C177 0.930 . S
H185 C183 0.930 1_545 S
H186 C174 0.930 . S
H187 C175 0.930 . S
H188 C181 0.929 . S
H189 C203 0.930 . S
H190 C182 0.930 1_545 S
H191 C209 0.930 . S
H192 C200 0.929 . S
H193 C207 0.930 . S
H194 C171 0.931 . S
H195 C201 0.930 . S
H196 C234 0.930 . S
H197 C178 0.930 . S
H198 C233 0.931 . S
N199 Eu168 2.657 . S
N199 C200 1.334 . S
N199 C204 1.362 . S
C200 H192 0.929 . S
C200 N199 1.334 . S
C200 C203 1.413 . S
C201 H195 0.930 . S
C201 C202 1.392 . S
C201 C203 1.367 . S
C202 C201 1.392 . S
C202 C204 1.420 . S
C202 C234 1.423 . S
C203 H189 0.930 . S
C203 C200 1.413 . S
C203 C201 1.367 . S
C204 N199 1.362 . S
C204 C202 1.420 . S
C204 C208 1.429 . S
H205 C210 0.930 . S
N206 Eu168 2.609 . S
N206 C208 1.377 . S
N206 C209 1.321 . S
C207 H193 0.930 . S
C207 C209 1.400 . S
C207 C210 1.386 . S
C208 C204 1.429 . S
C208 N206 1.377 . S
C208 C211 1.411 . S
C209 H191 0.930 . S
C209 N206 1.321 . S
C209 C207 1.400 . S
C210 H205 0.930 . S
C210 C207 1.386 . S
C210 C211 1.395 . S
C211 C208 1.411 . S
C211 C210 1.395 . S
C211 C233 1.420 . S
O212 Eu168 2.558 . S
O212 C232 1.257 . S
O213 Eu168 2.612 . S
O213 Eu179 2.380 . S
O213 C224 1.276 . S
O214 Eu179 2.432 . S
O214 C231 1.264 . S
O215 Eu168 2.339 . S
O215 C231 1.254 . S
O216 Eu168 2.563 . S
O216 C224 1.235 . S
O217 Eu168 2.419 . S
O217 C232 1.249 . S
O218 Eu179 2.558 . S
O218 C243 1.257 . S
O219 Eu168 2.380 . S
O219 Eu179 2.612 . S
O219 C235 1.276 . S
O220 Eu168 2.432 . S
O220 C242 1.264 . S
O221 Eu179 2.339 . S
O221 C242 1.254 . S
O222 Eu179 2.563 . S
O222 C235 1.235 . S
O223 Eu179 2.419 . S
O223 C243 1.249 . S
C224 O213 1.276 . S
C224 O216 1.235 . S
C225 C227 1.393 . S
C225 C229 1.395 . S
C225 C232 1.492 . S
C226 C227 1.392 . S
C226 C228 1.386 . S
C227 C225 1.393 . S
C227 C226 1.392 . S
C227 H244 0.930 . S
C228 C226 1.386 . S
C228 C230 1.395 . S
C228 H245 0.930 . S
C229 C225 1.395 . S
C229 C230 1.379 . S
C229 H246 0.930 . S
C230 C228 1.395 . S
C230 C229 1.379 . S
C230 H247 0.930 . S
C231 O214 1.264 . S
C231 O215 1.254 . S
C232 Eu168 2.848 . S
C232 O212 1.257 . S
C232 O217 1.249 . S
C232 C225 1.492 . S
C233 H198 0.931 . S
C233 C211 1.420 . S
C233 C234 1.351 . S
C234 H196 0.930 . S
C234 C202 1.423 . S
C234 C233 1.351 . S
C235 O219 1.276 . S
C235 O222 1.235 . S
C236 C237 1.393 . S
C236 C240 1.395 . S
C236 C243 1.492 . S
C237 C236 1.393 . S
C237 C238 1.392 1_565 S
C237 H248 0.930 . S
C238 C237 1.392 1_545 S
C238 C239 1.386 1_545 S
C239 C238 1.386 1_565 S
C239 C241 1.395 . S
C239 H249 0.930 1_565 S
C240 C236 1.395 . S
C240 C241 1.379 . S
C240 H250 0.930 . S
C241 C239 1.395 . S
C241 C240 1.379 . S
C241 H251 0.930 . S
C242 O220 1.264 . S
C242 O221 1.254 . S
C243 Eu179 2.848 . S
C243 O218 1.257 . S
C243 O223 1.249 . S
C243 C236 1.492 . S
H244 C227 0.930 . S
H245 C228 0.930 . S
H246 C229 0.930 . S
H247 C230 0.930 . S
H248 C237 0.930 . S
H249 C239 0.930 1_545 S
H250 C240 0.930 . S
H251 C241 0.930 . S
Eu252 N283 2.657 . S
Eu252 N290 2.609 . S
Eu252 O296 2.558 . S
Eu252 O297 2.612 . S
Eu252 O299 2.339 . S
Eu252 O300 2.563 . S
Eu252 O301 2.419 . S
Eu252 O303 2.380 1_554 S
Eu252 O304 2.432 . S
Eu252 C316 2.848 . S
C253 C256 1.429 . S
C253 C257 1.411 1_655 S
C253 N260 1.377 1_554 S
C254 C256 1.420 . S
C254 C258 1.423 . S
C254 C266 1.392 . S
C255 C257 1.420 . S
C255 C258 1.351 1_455 S
C255 H278 0.931 . S
C256 C253 1.429 . S
C256 C254 1.420 . S
C256 N264 1.362 . S
C257 C253 1.411 1_455 S
C257 C255 1.420 . S
C257 C262 1.395 1_554 S
C258 C254 1.423 . S
C258 C255 1.351 1_655 S
C258 H270 0.930 1_655 S
C259 C261 1.400 1_455 S
C259 C262 1.386 . S
C259 H271 0.930 . S
N260 C253 1.377 1_556 S
N260 C261 1.321 . S
N260 Eu263 2.609 . S
C261 C259 1.400 1_655 S
C261 N260 1.321 . S
C261 H268 0.930 . S
C262 C257 1.395 1_556 S
C262 C259 1.386 . S
C262 H281 0.930 . S
Eu263 N260 2.609 . S
Eu263 N264 2.657 1_556 S
Eu263 O297 2.380 1_556 S
Eu263 O298 2.432 . S
Eu263 O302 2.558 . S
Eu263 O303 2.612 . S
Eu263 O305 2.339 1_556 S
Eu263 O306 2.563 . S
Eu263 O307 2.419 . S
Eu263 C327 2.848 . S
N264 C256 1.362 . S
N264 Eu263 2.657 1_554 S
N264 C265 1.334 . S
C265 N264 1.334 . S
C265 C267 1.413 . S
C265 H272 0.929 . S
C266 C254 1.392 . S
C266 C267 1.367 . S
C266 H274 0.930 . S
C267 C265 1.413 . S
C267 C266 1.367 . S
C267 H269 0.930 . S
H268 C261 0.930 . S
H269 C267 0.930 . S
H270 C258 0.930 1_455 S
H271 C259 0.930 . S
H272 C265 0.929 . S
H273 C287 0.930 . S
H274 C266 0.930 . S
H275 C293 0.930 . S
H276 C284 0.929 . S
H277 C291 0.930 . S
H278 C255 0.931 . S
H279 C285 0.930 . S
H280 C318 0.930 . S
H281 C262 0.930 . S
H282 C317 0.931 . S
N283 Eu252 2.657 . S
N283 C284 1.334 1_554 S
N283 C288 1.362 . S
C284 H276 0.929 . S
C284 N283 1.334 1_556 S
C284 C287 1.413 . S
C285 H279 0.930 . S
C285 C286 1.392 . S
C285 C287 1.367 . S
C286 C285 1.392 . S
C286 C288 1.420 1_556 S
C286 C318 1.423 . S
C287 H273 0.930 . S
C287 C284 1.413 . S
C287 C285 1.367 . S
C288 N283 1.362 . S
C288 C286 1.420 1_554 S
C288 C292 1.429 . S
H289 C294 0.930 . S
N290 Eu252 2.609 . S
N290 C292 1.377 . S
N290 C293 1.321 . S
C291 H277 0.930 . S
C291 C293 1.400 . S
C291 C294 1.386 . S
C292 C288 1.429 . S
C292 N290 1.377 . S
C292 C295 1.411 . S
C293 H275 0.930 . S
C293 N290 1.321 . S
C293 C291 1.400 . S
C294 H289 0.930 . S
C294 C291 1.386 . S
C294 C295 1.395 . S
C295 C292 1.411 . S
C295 C294 1.395 . S
C295 C317 1.420 . S
O296 Eu252 2.558 . S
O296 C316 1.257 . S
O297 Eu252 2.612 . S
O297 Eu263 2.380 1_554 S
O297 C308 1.276 . S
O298 Eu263 2.432 . S
O298 C315 1.264 1_556 S
O299 Eu252 2.339 . S
O299 C315 1.254 . S
O300 Eu252 2.563 . S
O300 C308 1.235 . S
O301 Eu252 2.419 . S
O301 C316 1.249 . S
O302 Eu263 2.558 . S
O302 C327 1.257 . S
O303 Eu252 2.380 1_556 S
O303 Eu263 2.612 . S
O303 C319 1.276 . S
O304 Eu252 2.432 . S
O304 C326 1.264 . S
O305 Eu263 2.339 1_554 S
O305 C326 1.254 . S
O306 Eu263 2.563 . S
O306 C319 1.235 . S
O307 Eu263 2.419 . S
O307 C327 1.249 . S
C308 O297 1.276 . S
C308 O300 1.235 . S
C309 C311 1.393 . S
C309 C313 1.395 . S
C309 C316 1.492 . S
C310 C311 1.392 . S
C310 C312 1.386 . S
C311 C309 1.393 . S
C311 C310 1.392 . S
C311 H328 0.930 . S
C312 C310 1.386 . S
C312 C314 1.395 . S
C312 H329 0.930 . S
C313 C309 1.395 . S
C313 C314 1.379 . S
C313 H330 0.930 . S
C314 C312 1.395 . S
C314 C313 1.379 . S
C314 H331 0.930 . S
C315 O298 1.264 1_554 S
C315 O299 1.254 . S
C316 Eu252 2.848 . S
C316 O296 1.257 . S
C316 O301 1.249 . S
C316 C309 1.492 . S
C317 H282 0.931 . S
C317 C295 1.420 . S
C317 C318 1.351 1_554 S
C318 H280 0.930 . S
C318 C286 1.423 . S
C318 C317 1.351 1_556 S
C319 O303 1.276 . S
C319 O306 1.235 . S
C320 C321 1.393 . S
C320 C324 1.395 . S
C320 C327 1.492 . S
C321 C320 1.393 . S
C321 C322 1.392 . S
C321 H332 0.930 . S
C322 C321 1.392 . S
C322 C323 1.386 . S
C323 C322 1.386 . S
C323 C325 1.395 . S
C323 H333 0.930 . S
C324 C320 1.395 . S
C324 C325 1.379 . S
C324 H334 0.930 . S
C325 C323 1.395 . S
C325 C324 1.379 . S
C325 H335 0.930 . S
C326 O304 1.264 . S
C326 O305 1.254 . S
C327 Eu263 2.848 . S
C327 O302 1.257 . S
C327 O307 1.249 . S
C327 C320 1.492 . S
H328 C311 0.930 . S
H329 C312 0.930 . S
H330 C313 0.930 . S
H331 C314 0.930 . S
H332 C321 0.930 . S
H333 C323 0.930 . S
H334 C324 0.930 . S
H335 C325 0.930 . S
Eu336 N367 2.657 . S
Eu336 N374 2.609 . S
Eu336 O380 2.558 . S
Eu336 O381 2.612 . S
Eu336 O383 2.339 . S
Eu336 O384 2.563 . S
Eu336 O385 2.419 . S
Eu336 O387 2.380 . S
Eu336 O388 2.432 . S
Eu336 C400 2.848 . S
C337 C340 1.429 . S
C337 C341 1.411 1_565 S
C337 N344 1.377 . S
C338 C340 1.420 . S
C338 C342 1.423 . S
C338 C350 1.392 . S
C339 C341 1.420 . S
C339 C342 1.351 1_545 S
C339 H362 0.931 . S
C340 C337 1.429 . S
C340 C338 1.420 . S
C340 N348 1.362 . S
C341 C337 1.411 1_545 S
C341 C339 1.420 . S
C341 C346 1.395 . S
C342 C338 1.423 . S
C342 C339 1.351 1_565 S
C342 H354 0.930 1_565 S
C343 C345 1.400 1_545 S
C343 C346 1.386 . S
C343 H355 0.930 . S
N344 C337 1.377 . S
N344 C345 1.321 . S
N344 Eu347 2.609 . S
C345 C343 1.400 1_565 S
C345 N344 1.321 . S
C345 H352 0.930 . S
C346 C341 1.395 . S
C346 C343 1.386 . S
C346 H365 0.930 . S
Eu347 N344 2.609 . S
Eu347 N348 2.657 . S
Eu347 O381 2.380 . S
Eu347 O382 2.432 . S
Eu347 O386 2.558 . S
Eu347 O387 2.612 . S
Eu347 O389 2.339 . S
Eu347 O390 2.563 . S
Eu347 O391 2.419 . S
Eu347 C411 2.848 . S
N348 C340 1.362 . S
N348 Eu347 2.657 . S
N348 C349 1.334 . S
C349 N348 1.334 . S
C349 C351 1.413 . S
C349 H356 0.929 . S
C350 C338 1.392 . S
C350 C351 1.367 . S
C350 H358 0.930 1_455 S
C351 C349 1.413 . S
C351 C350 1.367 . S
C351 H353 0.930 1_455 S
H352 C345 0.930 . S
H353 C351 0.930 1_655 S
H354 C342 0.930 1_545 S
H355 C343 0.930 . S
H356 C349 0.929 . S
H357 C371 0.930 . S
H358 C350 0.930 1_655 S
H359 C377 0.930 . S
H360 C368 0.929 . S
H361 C375 0.930 . S
H362 C339 0.931 . S
H363 C369 0.930 . S
H364 C402 0.930 . S
H365 C346 0.930 . S
H366 C401 0.931 . S
N367 Eu336 2.657 . S
N367 C368 1.334 . S
N367 C372 1.362 . S
C368 H360 0.929 . S
C368 N367 1.334 . S
C368 C371 1.413 . S
C369 H363 0.930 . S
C369 C370 1.392 . S
C369 C371 1.367 . S
C370 C369 1.392 . S
C370 C372 1.420 . S
C370 C402 1.423 . S
C371 H357 0.930 . S
C371 C368 1.413 . S
C371 C369 1.367 . S
C372 N367 1.362 . S
C372 C370 1.420 . S
C372 C376 1.429 . S
H373 C378 0.930 . S
N374 Eu336 2.609 . S
N374 C376 1.377 . S
N374 C377 1.321 . S
C375 H361 0.930 . S
C375 C377 1.400 . S
C375 C378 1.386 . S
C376 C372 1.429 . S
C376 N374 1.377 . S
C376 C379 1.411 . S
C377 H359 0.930 . S
C377 N374 1.321 . S
C377 C375 1.400 . S
C378 H373 0.930 . S
C378 C375 1.386 . S
C378 C379 1.395 . S
C379 C376 1.411 . S
C379 C378 1.395 . S
C379 C401 1.420 . S
O380 Eu336 2.558 . S
O380 C400 1.257 . S
O381 Eu336 2.612 . S
O381 Eu347 2.380 . S
O381 C392 1.276 . S
O382 Eu347 2.432 . S
O382 C399 1.264 . S
O383 Eu336 2.339 . S
O383 C399 1.254 . S
O384 Eu336 2.563 . S
O384 C392 1.235 . S
O385 Eu336 2.419 . S
O385 C400 1.249 . S
O386 Eu347 2.558 . S
O386 C411 1.257 . S
O387 Eu336 2.380 . S
O387 Eu347 2.612 . S
O387 C403 1.276 . S
O388 Eu336 2.432 . S
O388 C410 1.264 . S
O389 Eu347 2.339 . S
O389 C410 1.254 . S
O390 Eu347 2.563 . S
O390 C403 1.235 . S
O391 Eu347 2.419 . S
O391 C411 1.249 . S
C392 O381 1.276 . S
C392 O384 1.235 . S
C393 C395 1.393 . S
C393 C397 1.395 . S
C393 C400 1.492 . S
C394 C395 1.392 . S
C394 C396 1.386 . S
C395 C393 1.393 . S
C395 C394 1.392 . S
C395 H412 0.930 . S
C396 C394 1.386 . S
C396 C398 1.395 . S
C396 H413 0.930 . S
C397 C393 1.395 . S
C397 C398 1.379 . S
C397 H414 0.930 . S
C398 C396 1.395 . S
C398 C397 1.379 . S
C398 H415 0.930 . S
C399 O382 1.264 . S
C399 O383 1.254 . S
C400 Eu336 2.848 . S
C400 O380 1.257 . S
C400 O385 1.249 . S
C400 C393 1.492 . S
C401 H366 0.931 . S
C401 C379 1.420 . S
C401 C402 1.351 . S
C402 H364 0.930 . S
C402 C370 1.423 . S
C402 C401 1.351 . S
C403 O387 1.276 . S
C403 O390 1.235 . S
C404 C405 1.393 . S
C404 C408 1.395 . S
C404 C411 1.492 . S
C405 C404 1.393 . S
C405 C406 1.392 1_455 S
C405 H416 0.930 . S
C406 C405 1.392 1_655 S
C406 C407 1.386 1_655 S
C407 C406 1.386 1_455 S
C407 C409 1.395 . S
C407 H417 0.930 1_455 S
C408 C404 1.395 . S
C408 C409 1.379 . S
C408 H418 0.930 . S
C409 C407 1.395 . S
C409 C408 1.379 . S
C409 H419 0.930 . S
C410 O388 1.264 . S
C410 O389 1.254 . S
C411 Eu347 2.848 . S
C411 O386 1.257 . S
C411 O391 1.249 . S
C411 C404 1.492 . S
H412 C395 0.930 . S
H413 C396 0.930 . S
H414 C397 0.930 . S
H415 C398 0.930 . S
H416 C405 0.930 . S
H417 C407 0.930 1_655 S
H418 C408 0.930 . S
H419 C409 0.930 . S
Eu420 N451 2.657 . S
Eu420 N458 2.609 . S
Eu420 O464 2.558 . S
Eu420 O465 2.612 . S
Eu420 O467 2.339 . S
Eu420 O468 2.563 . S
Eu420 O469 2.419 . S
Eu420 O471 2.380 . S
Eu420 O472 2.432 . S
Eu420 C484 2.848 . S
C421 C424 1.429 . S
C421 C425 1.411 . S
C421 N428 1.377 . S
C422 C424 1.420 . S
C422 C426 1.423 . S
C422 C434 1.392 . S
C423 C425 1.420 . S
C423 C426 1.351 . S
C423 H446 0.931 . S
C424 C421 1.429 . S
C424 C422 1.420 . S
C424 N432 1.362 . S
C425 C421 1.411 . S
C425 C423 1.420 . S
C425 C430 1.395 . S
C426 C422 1.423 . S
C426 C423 1.351 . S
C426 H438 0.930 . S
C427 C429 1.400 . S
C427 C430 1.386 . S
C427 H439 0.930 . S
N428 C421 1.377 . S
N428 C429 1.321 . S
N428 Eu431 2.609 . S
C429 C427 1.400 . S
C429 N428 1.321 . S
C429 H436 0.930 . S
C430 C425 1.395 . S
C430 C427 1.386 . S
C430 H449 0.930 . S
Eu431 N428 2.609 . S
Eu431 N432 2.657 . S
Eu431 O465 2.380 . S
Eu431 O466 2.432 . S
Eu431 O470 2.558 . S
Eu431 O471 2.612 . S
Eu431 O473 2.339 . S
Eu431 O474 2.563 . S
Eu431 O475 2.419 . S
Eu431 C495 2.848 . S
N432 C424 1.362 . S
N432 Eu431 2.657 . S
N432 C433 1.334 . S
C433 N432 1.334 . S
C433 C435 1.413 . S
C433 H440 0.929 . S
C434 C422 1.392 . S
C434 C435 1.367 . S
C434 H442 0.930 1_545 S
C435 C433 1.413 . S
C435 C434 1.367 . S
C435 H437 0.930 1_545 S
H436 C429 0.930 . S
H437 C435 0.930 1_565 S
H438 C426 0.930 . S
H439 C427 0.930 . S
H440 C433 0.929 . S
H441 C455 0.930 . S
H442 C434 0.930 1_565 S
H443 C461 0.930 . S
H444 C452 0.929 . S
H445 C459 0.930 . S
H446 C423 0.931 . S
H447 C453 0.930 . S
H448 C486 0.930 . S
H449 C430 0.930 . S
H450 C485 0.931 . S
N451 Eu420 2.657 . S
N451 C452 1.334 . S
N451 C456 1.362 . S
C452 H444 0.929 . S
C452 N451 1.334 . S
C452 C455 1.413 . S
C453 H447 0.930 . S
C453 C454 1.392 . S
C453 C455 1.367 . S
C454 C453 1.392 . S
C454 C456 1.420 . S
C454 C486 1.423 . S
C455 H441 0.930 . S
C455 C452 1.413 . S
C455 C453 1.367 . S
C456 N451 1.362 . S
C456 C454 1.420 . S
C456 C460 1.429 . S
H457 C462 0.930 . S
N458 Eu420 2.609 . S
N458 C460 1.377 . S
N458 C461 1.321 . S
C459 H445 0.930 . S
C459 C461 1.400 . S
C459 C462 1.386 . S
C460 C456 1.429 . S
C460 N458 1.377 . S
C460 C463 1.411 . S
C461 H443 0.930 . S
C461 N458 1.321 . S
C461 C459 1.400 . S
C462 H457 0.930 . S
C462 C459 1.386 . S
C462 C463 1.395 . S
C463 C460 1.411 . S
C463 C462 1.395 . S
C463 C485 1.420 . S
O464 Eu420 2.558 . S
O464 C484 1.257 . S
O465 Eu420 2.612 . S
O465 Eu431 2.380 . S
O465 C476 1.276 . S
O466 Eu431 2.432 . S
O466 C483 1.264 . S
O467 Eu420 2.339 . S
O467 C483 1.254 . S
O468 Eu420 2.563 . S
O468 C476 1.235 . S
O469 Eu420 2.419 . S
O469 C484 1.249 . S
O470 Eu431 2.558 . S
O470 C495 1.257 . S
O471 Eu420 2.380 . S
O471 Eu431 2.612 . S
O471 C487 1.276 . S
O472 Eu420 2.432 . S
O472 C494 1.264 . S
O473 Eu431 2.339 . S
O473 C494 1.254 . S
O474 Eu431 2.563 . S
O474 C487 1.235 . S
O475 Eu431 2.419 . S
O475 C495 1.249 . S
C476 O465 1.276 . S
C476 O468 1.235 . S
C477 C479 1.393 . S
C477 C481 1.395 . S
C477 C484 1.492 . S
C478 C479 1.392 . S
C478 C480 1.386 . S
C479 C477 1.393 . S
C479 C478 1.392 . S
C479 H496 0.930 . S
C480 C478 1.386 . S
C480 C482 1.395 . S
C480 H497 0.930 . S
C481 C477 1.395 . S
C481 C482 1.379 . S
C481 H498 0.930 . S
C482 C480 1.395 . S
C482 C481 1.379 . S
C482 H499 0.930 . S
C483 O466 1.264 . S
C483 O467 1.254 . S
C484 Eu420 2.848 . S
C484 O464 1.257 . S
C484 O469 1.249 . S
C484 C477 1.492 . S
C485 H450 0.931 . S
C485 C463 1.420 . S
C485 C486 1.351 . S
C486 H448 0.930 . S
C486 C454 1.423 . S
C486 C485 1.351 . S
C487 O471 1.276 . S
C487 O474 1.235 . S
C488 C489 1.393 . S
C488 C492 1.395 . S
C488 C495 1.492 . S
C489 C488 1.393 . S
C489 C490 1.392 1_545 S
C489 H500 0.930 . S
C490 C489 1.392 1_565 S
C490 C491 1.386 1_565 S
C491 C490 1.386 1_545 S
C491 C493 1.395 . S
C491 H501 0.930 1_545 S
C492 C488 1.395 . S
C492 C493 1.379 . S
C492 H502 0.930 . S
C493 C491 1.395 . S
C493 C492 1.379 . S
C493 H503 0.930 . S
C494 O472 1.264 . S
C494 O473 1.254 . S
C495 Eu431 2.848 . S
C495 O470 1.257 . S
C495 O475 1.249 . S
C495 C488 1.492 . S
H496 C479 0.930 . S
H497 C480 0.930 . S
H498 C481 0.930 . S
H499 C482 0.930 . S
H500 C489 0.930 . S
H501 C491 0.930 1_565 S
H502 C492 0.930 . S
H503 C493 0.930 . S
C504 C505 1.170 . S
C504 C506 1.380 . S
C505 C504 1.170 . S
C506 C504 1.380 . S
C506 C507 1.170 . S
C507 C506 1.170 . S
C508 C509 1.170 . S
C508 C510 1.380 . S
C509 C508 1.170 . S
C510 C508 1.380 . S
C510 C511 1.170 . S
C511 C510 1.170 . S
C512 C513 1.170 . S
C512 C514 1.380 . S
C513 C512 1.170 . S
C514 C512 1.380 . S
C514 C515 1.170 . S
C515 C514 1.170 . S
C516 C517 1.170 . S
C516 C518 1.380 . S
C517 C516 1.170 . S
C518 C516 1.380 . S
C518 C519 1.170 . S
C519 C518 1.170 . S
C520 C521 1.170 . S
C520 C522 1.380 . S
C521 C520 1.170 . S
C522 C520 1.380 . S
C522 C523 1.170 . S
C523 C522 1.170 . S
C524 C525 1.170 . S
C524 C526 1.380 . S
C525 C524 1.170 . S
C526 C524 1.380 . S
C526 C527 1.170 . S
C527 C526 1.170 . S
C528 C529 1.170 . S
C528 C530 1.380 . S
C529 C528 1.170 . S
C530 C528 1.380 . S
C530 C531 1.170 . S
C531 C530 1.170 . S
C532 C533 1.170 . S
C532 C534 1.380 1_455 S
C533 C532 1.170 . S
C534 C532 1.380 1_655 S
C534 C535 1.170 . S
C535 C534 1.170 . S
C536 C537 1.170 . S
C536 C538 1.380 1_545 S
C537 C536 1.170 . S
C538 C536 1.380 1_565 S
C538 C539 1.170 . S
C539 C538 1.170 . S
C540 C541 1.170 . S
C540 C542 1.380 . S
C541 C540 1.170 . S
C542 C540 1.380 . S
C542 C543 1.170 . S
C543 C542 1.170 . S
C544 C545 1.170 . S
C544 C546 1.380 1_455 S
C545 C544 1.170 . S
C546 C544 1.380 1_655 S
C546 C547 1.170 . S
C547 C546 1.170 . S
C548 C549 1.170 . S
C548 C550 1.380 1_565 S
C549 C548 1.170 . S
C550 C548 1.380 1_545 S
C550 C551 1.170 . S
C551 C550 1.170 . S
C552 C553 1.170 . S
C552 C554 1.380 . S
C553 C552 1.170 . S
C554 C552 1.380 . S
C554 C555 1.170 . S
C555 C554 1.170 . S
C556 C557 1.170 . S
C556 C558 1.380 . S
C557 C556 1.170 . S
C558 C556 1.380 . S
C558 C559 1.170 . S
C559 C558 1.170 . S
C560 C561 1.170 . S
C560 C562 1.380 . S
C561 C560 1.170 . S
C562 C560 1.380 . S
C562 C563 1.170 . S
C563 C562 1.170 . S
C564 C565 1.170 . S
C564 C566 1.380 . S
C565 C564 1.170 . S
C566 C564 1.380 . S
C566 C567 1.170 . S
C567 C566 1.170 . S
C568 C569 1.170 . S
C568 C570 1.380 . S
C569 C568 1.170 . S
C570 C568 1.380 . S
C570 C571 1.170 . S
C571 C570 1.170 . S
C572 C573 1.170 . S
C572 C574 1.380 . S
C573 C572 1.170 . S
C574 C572 1.380 . S
C574 C575 1.170 . S
C575 C574 1.170 . S
C505 C403 1.144 . S
C507 C58 1.083 . S
C509 C487 1.185 . S
C511 C142 1.063 . S
C513 C67 1.146 . S
C515 C226 1.097 . S
C517 C151 1.214 . S
C519 C310 1.004 . S
C521 C235 1.215 . S
C523 C394 1.000 . S
C525 C319 1.196 . S
C527 C478 1.002 . S
C529 C74 1.987 . S
C531 C326 1.957 . S
C533 C410 1.983 . S
C535 C158 1.974 . S
C537 C494 1.980 . S
C539 C242 1.977 . S
C541 C231 1.886 . S
C543 C483 1.924 . S
C545 C63 1.893 . S
C547 C315 1.908 . S
C549 C399 1.889 . S
C551 C147 1.914 . S
C553 C476 1.248 . S
C555 C70 1.291 . S
C557 C154 1.287 . S
C559 C56 1.257 . S
C561 C238 1.228 . S
C563 C140 1.294 . S
C565 C224 1.293 . S
C567 C322 1.228 . S
C569 C406 1.228 . S
C571 C308 1.288 . S
C573 C490 1.228 . S
C575 C392 1.294 . S
