# Generated by pormake.
# Topology unx, (4)-cn, num edge types: 1
# Building blocks:
#     Node 0, Type 0, BuildingBlock: CEKHIL_clean_sbu_0, # of connection points: 4
#     Node 1, Type 0, BuildingBlock: CEKHIL_clean_sbu_0, # of connection points: 4
#     Node 2, Type 0, BuildingBlock: CEKHIL_clean_sbu_0, # of connection points: 4
#     Node 3, Type 0, BuildingBlock: CEKHIL_clean_sbu_0, # of connection points: 4
#     Node 4, Type 0, BuildingBlock: CEKHIL_clean_sbu_0, # of connection points: 4
#     Node 5, Type 0, BuildingBlock: CEKHIL_clean_sbu_0, # of connection points: 4
#     Node 6, Type 0, BuildingBlock: CEKHIL_clean_sbu_0, # of connection points: 4
#     Node 7, Type 0, BuildingBlock: CEKHIL_clean_sbu_0, # of connection points: 4
#     Node 8, Type 0, BuildingBlock: CEKHIL_clean_sbu_0, # of connection points: 4
#     Node 9, Type 0, BuildingBlock: CEKHIL_clean_sbu_0, # of connection points: 4
#     Node 10, Type 0, BuildingBlock: CEKHIL_clean_sbu_0, # of connection points: 4
#     Node 11, Type 0, BuildingBlock: CEKHIL_clean_sbu_0, # of connection points: 4
#     Node 12, Type 0, BuildingBlock: CEKHIL_clean_sbu_0, # of connection points: 4
#     Node 13, Type 0, BuildingBlock: CEKHIL_clean_sbu_0, # of connection points: 4
#     Node 14, Type 0, BuildingBlock: CEKHIL_clean_sbu_0, # of connection points: 4
#     Node 15, Type 0, BuildingBlock: CEKHIL_clean_sbu_0, # of connection points: 4
#     Node 16, Type 0, BuildingBlock: CEKHIL_clean_sbu_0, # of connection points: 4
#     Node 17, Type 0, BuildingBlock: CEKHIL_clean_sbu_0, # of connection points: 4
#     Node 18, Type 0, BuildingBlock: CEKHIL_clean_sbu_0, # of connection points: 4
#     Node 19, Type 0, BuildingBlock: CEKHIL_clean_sbu_0, # of connection points: 4
#     Node 20, Type 0, BuildingBlock: CEKHIL_clean_sbu_0, # of connection points: 4
#     Node 21, Type 0, BuildingBlock: CEKHIL_clean_sbu_0, # of connection points: 4
#     Node 22, Type 0, BuildingBlock: CEKHIL_clean_sbu_0, # of connection points: 4
#     Node 23, Type 0, BuildingBlock: CEKHIL_clean_sbu_0, # of connection points: 4
#     Node 24, Type 0, BuildingBlock: CEKHIL_clean_sbu_0, # of connection points: 4
#     Node 25, Type 0, BuildingBlock: CEKHIL_clean_sbu_0, # of connection points: 4
#     Node 26, Type 0, BuildingBlock: CEKHIL_clean_sbu_0, # of connection points: 4
#     Node 27, Type 0, BuildingBlock: CEKHIL_clean_sbu_0, # of connection points: 4
#     Node 28, Type 0, BuildingBlock: CEKHIL_clean_sbu_0, # of connection points: 4
#     Node 29, Type 0, BuildingBlock: CEKHIL_clean_sbu_0, # of connection points: 4
#     Node 30, Type 0, BuildingBlock: CEKHIL_clean_sbu_0, # of connection points: 4
#     Node 31, Type 0, BuildingBlock: CEKHIL_clean_sbu_0, # of connection points: 4
#     Node 32, Type 0, BuildingBlock: CEKHIL_clean_sbu_0, # of connection points: 4
#     Node 33, Type 0, BuildingBlock: CEKHIL_clean_sbu_0, # of connection points: 4
#     Node 34, Type 0, BuildingBlock: CEKHIL_clean_sbu_0, # of connection points: 4
#     Node 35, Type 0, BuildingBlock: CEKHIL_clean_sbu_0, # of connection points: 4
#     Node 36, Type 0, BuildingBlock: CEKHIL_clean_sbu_0, # of connection points: 4
#     Node 37, Type 0, BuildingBlock: CEKHIL_clean_sbu_0, # of connection points: 4
#     Node 38, Type 0, BuildingBlock: CEKHIL_clean_sbu_0, # of connection points: 4
#     Node 39, Type 0, BuildingBlock: CEKHIL_clean_sbu_0, # of connection points: 4
#     Node 40, Type 0, BuildingBlock: CEKHIL_clean_sbu_0, # of connection points: 4
#     Node 41, Type 0, BuildingBlock: CEKHIL_clean_sbu_0, # of connection points: 4
#     Node 42, Type 0, BuildingBlock: CEKHIL_clean_sbu_0, # of connection points: 4
#     Node 43, Type 0, BuildingBlock: CEKHIL_clean_sbu_0, # of connection points: 4
#     Node 44, Type 0, BuildingBlock: CEKHIL_clean_sbu_0, # of connection points: 4
#     Node 45, Type 0, BuildingBlock: CEKHIL_clean_sbu_0, # of connection points: 4
#     Node 46, Type 0, BuildingBlock: CEKHIL_clean_sbu_0, # of connection points: 4
#     Node 47, Type 0, BuildingBlock: CEKHIL_clean_sbu_0, # of connection points: 4
#     Edge 48, Type (0, 0), BuildingBlock: OJICUG_clean_linker_0, # of connection points: 2
#     Edge 49, Type (0, 0), BuildingBlock: OJICUG_clean_linker_0, # of connection points: 2
#     Edge 50, Type (0, 0), BuildingBlock: OJICUG_clean_linker_0, # of connection points: 2
#     Edge 51, Type (0, 0), BuildingBlock: OJICUG_clean_linker_0, # of connection points: 2
#     Edge 52, Type (0, 0), BuildingBlock: OJICUG_clean_linker_0, # of connection points: 2
#     Edge 53, Type (0, 0), BuildingBlock: OJICUG_clean_linker_0, # of connection points: 2
#     Edge 54, Type (0, 0), BuildingBlock: OJICUG_clean_linker_0, # of connection points: 2
#     Edge 55, Type (0, 0), BuildingBlock: OJICUG_clean_linker_0, # of connection points: 2
#     Edge 56, Type (0, 0), BuildingBlock: OJICUG_clean_linker_0, # of connection points: 2
#     Edge 57, Type (0, 0), BuildingBlock: OJICUG_clean_linker_0, # of connection points: 2
#     Edge 58, Type (0, 0), BuildingBlock: OJICUG_clean_linker_0, # of connection points: 2
#     Edge 59, Type (0, 0), BuildingBlock: OJICUG_clean_linker_0, # of connection points: 2
#     Edge 60, Type (0, 0), BuildingBlock: OJICUG_clean_linker_0, # of connection points: 2
#     Edge 61, Type (0, 0), BuildingBlock: OJICUG_clean_linker_0, # of connection points: 2
#     Edge 62, Type (0, 0), BuildingBlock: OJICUG_clean_linker_0, # of connection points: 2
#     Edge 63, Type (0, 0), BuildingBlock: OJICUG_clean_linker_0, # of connection points: 2
#     Edge 64, Type (0, 0), BuildingBlock: OJICUG_clean_linker_0, # of connection points: 2
#     Edge 65, Type (0, 0), BuildingBlock: OJICUG_clean_linker_0, # of connection points: 2
#     Edge 66, Type (0, 0), BuildingBlock: OJICUG_clean_linker_0, # of connection points: 2
#     Edge 67, Type (0, 0), BuildingBlock: OJICUG_clean_linker_0, # of connection points: 2
#     Edge 68, Type (0, 0), BuildingBlock: OJICUG_clean_linker_0, # of connection points: 2
#     Edge 69, Type (0, 0), BuildingBlock: OJICUG_clean_linker_0, # of connection points: 2
#     Edge 70, Type (0, 0), BuildingBlock: OJICUG_clean_linker_0, # of connection points: 2
#     Edge 71, Type (0, 0), BuildingBlock: OJICUG_clean_linker_0, # of connection points: 2
#     Edge 72, Type (0, 0), BuildingBlock: OJICUG_clean_linker_0, # of connection points: 2
#     Edge 73, Type (0, 0), BuildingBlock: OJICUG_clean_linker_0, # of connection points: 2
#     Edge 74, Type (0, 0), BuildingBlock: OJICUG_clean_linker_0, # of connection points: 2
#     Edge 75, Type (0, 0), BuildingBlock: OJICUG_clean_linker_0, # of connection points: 2
#     Edge 76, Type (0, 0), BuildingBlock: OJICUG_clean_linker_0, # of connection points: 2
#     Edge 77, Type (0, 0), BuildingBlock: OJICUG_clean_linker_0, # of connection points: 2
#     Edge 78, Type (0, 0), BuildingBlock: OJICUG_clean_linker_0, # of connection points: 2
#     Edge 79, Type (0, 0), BuildingBlock: OJICUG_clean_linker_0, # of connection points: 2
#     Edge 80, Type (0, 0), BuildingBlock: OJICUG_clean_linker_0, # of connection points: 2
#     Edge 81, Type (0, 0), BuildingBlock: OJICUG_clean_linker_0, # of connection points: 2
#     Edge 82, Type (0, 0), BuildingBlock: OJICUG_clean_linker_0, # of connection points: 2
#     Edge 83, Type (0, 0), BuildingBlock: OJICUG_clean_linker_0, # of connection points: 2
#     Edge 84, Type (0, 0), BuildingBlock: OJICUG_clean_linker_0, # of connection points: 2
#     Edge 85, Type (0, 0), BuildingBlock: OJICUG_clean_linker_0, # of connection points: 2
#     Edge 86, Type (0, 0), BuildingBlock: OJICUG_clean_linker_0, # of connection points: 2
#     Edge 87, Type (0, 0), BuildingBlock: OJICUG_clean_linker_0, # of connection points: 2
#     Edge 88, Type (0, 0), BuildingBlock: OJICUG_clean_linker_0, # of connection points: 2
#     Edge 89, Type (0, 0), BuildingBlock: OJICUG_clean_linker_0, # of connection points: 2
#     Edge 90, Type (0, 0), BuildingBlock: OJICUG_clean_linker_0, # of connection points: 2
#     Edge 91, Type (0, 0), BuildingBlock: OJICUG_clean_linker_0, # of connection points: 2
#     Edge 92, Type (0, 0), BuildingBlock: OJICUG_clean_linker_0, # of connection points: 2
#     Edge 93, Type (0, 0), BuildingBlock: OJICUG_clean_linker_0, # of connection points: 2
#     Edge 94, Type (0, 0), BuildingBlock: OJICUG_clean_linker_0, # of connection points: 2
#     Edge 95, Type (0, 0), BuildingBlock: OJICUG_clean_linker_0, # of connection points: 2
#     Edge 96, Type (0, 0), BuildingBlock: OJICUG_clean_linker_0, # of connection points: 2
#     Edge 97, Type (0, 0), BuildingBlock: OJICUG_clean_linker_0, # of connection points: 2
#     Edge 98, Type (0, 0), BuildingBlock: OJICUG_clean_linker_0, # of connection points: 2
#     Edge 99, Type (0, 0), BuildingBlock: OJICUG_clean_linker_0, # of connection points: 2
#     Edge 100, Type (0, 0), BuildingBlock: OJICUG_clean_linker_0, # of connection points: 2
#     Edge 101, Type (0, 0), BuildingBlock: OJICUG_clean_linker_0, # of connection points: 2
#     Edge 102, Type (0, 0), BuildingBlock: OJICUG_clean_linker_0, # of connection points: 2
#     Edge 103, Type (0, 0), BuildingBlock: OJICUG_clean_linker_0, # of connection points: 2
#     Edge 104, Type (0, 0), BuildingBlock: OJICUG_clean_linker_0, # of connection points: 2
#     Edge 105, Type (0, 0), BuildingBlock: OJICUG_clean_linker_0, # of connection points: 2
#     Edge 106, Type (0, 0), BuildingBlock: OJICUG_clean_linker_0, # of connection points: 2
#     Edge 107, Type (0, 0), BuildingBlock: OJICUG_clean_linker_0, # of connection points: 2
#     Edge 108, Type (0, 0), BuildingBlock: OJICUG_clean_linker_0, # of connection points: 2
#     Edge 109, Type (0, 0), BuildingBlock: OJICUG_clean_linker_0, # of connection points: 2
#     Edge 110, Type (0, 0), BuildingBlock: OJICUG_clean_linker_0, # of connection points: 2
#     Edge 111, Type (0, 0), BuildingBlock: OJICUG_clean_linker_0, # of connection points: 2
#     Edge 112, Type (0, 0), BuildingBlock: OJICUG_clean_linker_0, # of connection points: 2
#     Edge 113, Type (0, 0), BuildingBlock: OJICUG_clean_linker_0, # of connection points: 2
#     Edge 114, Type (0, 0), BuildingBlock: OJICUG_clean_linker_0, # of connection points: 2
#     Edge 115, Type (0, 0), BuildingBlock: OJICUG_clean_linker_0, # of connection points: 2
#     Edge 116, Type (0, 0), BuildingBlock: OJICUG_clean_linker_0, # of connection points: 2
#     Edge 117, Type (0, 0), BuildingBlock: OJICUG_clean_linker_0, # of connection points: 2
#     Edge 118, Type (0, 0), BuildingBlock: OJICUG_clean_linker_0, # of connection points: 2
#     Edge 119, Type (0, 0), BuildingBlock: OJICUG_clean_linker_0, # of connection points: 2
#     Edge 120, Type (0, 0), BuildingBlock: OJICUG_clean_linker_0, # of connection points: 2
#     Edge 121, Type (0, 0), BuildingBlock: OJICUG_clean_linker_0, # of connection points: 2
#     Edge 122, Type (0, 0), BuildingBlock: OJICUG_clean_linker_0, # of connection points: 2
#     Edge 123, Type (0, 0), BuildingBlock: OJICUG_clean_linker_0, # of connection points: 2
#     Edge 124, Type (0, 0), BuildingBlock: OJICUG_clean_linker_0, # of connection points: 2
#     Edge 125, Type (0, 0), BuildingBlock: OJICUG_clean_linker_0, # of connection points: 2
#     Edge 126, Type (0, 0), BuildingBlock: OJICUG_clean_linker_0, # of connection points: 2
#     Edge 127, Type (0, 0), BuildingBlock: OJICUG_clean_linker_0, # of connection points: 2
#     Edge 128, Type (0, 0), BuildingBlock: OJICUG_clean_linker_0, # of connection points: 2
#     Edge 129, Type (0, 0), BuildingBlock: OJICUG_clean_linker_0, # of connection points: 2
#     Edge 130, Type (0, 0), BuildingBlock: OJICUG_clean_linker_0, # of connection points: 2
#     Edge 131, Type (0, 0), BuildingBlock: OJICUG_clean_linker_0, # of connection points: 2
#     Edge 132, Type (0, 0), BuildingBlock: OJICUG_clean_linker_0, # of connection points: 2
#     Edge 133, Type (0, 0), BuildingBlock: OJICUG_clean_linker_0, # of connection points: 2
#     Edge 134, Type (0, 0), BuildingBlock: OJICUG_clean_linker_0, # of connection points: 2
#     Edge 135, Type (0, 0), BuildingBlock: OJICUG_clean_linker_0, # of connection points: 2
#     Edge 136, Type (0, 0), BuildingBlock: OJICUG_clean_linker_0, # of connection points: 2
#     Edge 137, Type (0, 0), BuildingBlock: OJICUG_clean_linker_0, # of connection points: 2
#     Edge 138, Type (0, 0), BuildingBlock: OJICUG_clean_linker_0, # of connection points: 2
#     Edge 139, Type (0, 0), BuildingBlock: OJICUG_clean_linker_0, # of connection points: 2
#     Edge 140, Type (0, 0), BuildingBlock: OJICUG_clean_linker_0, # of connection points: 2
#     Edge 141, Type (0, 0), BuildingBlock: OJICUG_clean_linker_0, # of connection points: 2
#     Edge 142, Type (0, 0), BuildingBlock: OJICUG_clean_linker_0, # of connection points: 2
#     Edge 143, Type (0, 0), BuildingBlock: OJICUG_clean_linker_0, # of connection points: 2
# Relax obj value: 0.548
# Max RMSD: 0.353
# Mean RMSD: 0.245
data_MOF--net-unx--node1-CEKHIL_clean_sbu_0--edge1-OJICUG_clean_linker_0
_symmetry_space_group_name_H-M    P1
_symmetry_Int_Tables_number       1
_symmetry_cell_setting            triclinic
loop_
_symmetry_equiv_pos_as_xyz
'x, y, z'
_cell_length_a     38.346426
_cell_length_b     37.09514
_cell_length_c     38.76946
_cell_angle_alpha  89.996058
_cell_angle_beta   89.998952
_cell_angle_gamma 91.34506
loop_
_atom_site_label
_atom_site_type_symbol
_atom_site_fract_x
_atom_site_fract_y
_atom_site_fract_z
_atom_type_partial_charge
Co0 Co 0.12565 0.50874 0.30242 0.0
O1 O 0.15918 0.4932 0.33663 0.0
O2 O 0.1634 0.54334 0.3057 0.0
C3 C 0.07457 0.49878 0.32969 0.0
O4 O 0.09771 0.53477 0.26613 0.0
Co5 Co 0.07529 0.45533 0.26585 0.0
O6 O 0.05464 0.49905 0.24517 0.0
C7 C 0.14834 0.45765 0.24425 0.0
C8 C 0.17767 0.52155 0.32747 0.0
C9 C 0.07038 0.5296 0.2474 0.0
O10 O 0.15299 0.48356 0.26576 0.0
O11 O 0.11903 0.44079 0.24091 0.0
O12 O 0.09397 0.52702 0.3371 0.0
O13 O 0.08943 0.4746 0.31086 0.0
Co14 Co 0.67984 0.21049 0.50474 0.0
O15 O 0.72341 0.23316 0.51984 0.0
O16 O 0.67075 0.24784 0.53752 0.0
C17 C 0.69336 0.15107 0.50623 0.0
O18 O 0.62944 0.19618 0.49484 0.0
Co19 Co 0.67692 0.17108 0.4341 0.0
O20 O 0.62573 0.17059 0.44233 0.0
C21 C 0.68136 0.24991 0.43534 0.0
C22 C 0.70389 0.25588 0.5362 0.0
C23 C 0.61159 0.1835 0.46927 0.0
O24 O 0.67702 0.24828 0.46802 0.0
O25 O 0.6854 0.22184 0.41669 0.0
O26 O 0.68514 0.16776 0.53453 0.0
O27 O 0.69796 0.17173 0.4797 0.0
Co28 Co 0.8776 0.96421 0.63007 0.0
O29 O 0.84019 0.99664 0.62034 0.0
O30 O 0.84249 0.9602 0.66557 0.0
C31 C 0.92485 0.99945 0.61938 0.0
O32 O 0.91251 0.92774 0.64769 0.0
Co33 Co 0.92222 0.94247 0.56646 0.0
O34 O 0.9505 0.9209 0.60365 0.0
C35 C 0.85477 0.90666 0.57734 0.0
C36 C 0.82483 0.98295 0.64729 0.0
C37 C 0.94079 0.91542 0.63474 0.0
O38 O 0.85191 0.92388 0.60574 0.0
O39 O 0.87942 0.91258 0.55571 0.0
O40 O 0.90792 1.00277 0.64829 0.0
O41 O 0.90812 0.98154 0.59582 0.0
Co42 Co 0.2397 0.96723 0.93619 0.0
O43 O 0.22345 0.91772 0.94342 0.0
O44 O 0.2788 0.93486 0.94025 0.0
C45 C 0.20646 0.99888 0.97336 0.0
O46 O 0.26565 0.01541 0.92985 0.0
Co47 Co 0.18732 0.02052 0.90358 0.0
O48 O 0.22605 0.05573 0.9126 0.0
C49 C 0.22473 0.97237 0.85815 0.0
C50 C 0.25594 0.90852 0.94322 0.0
C51 C 0.25673 0.04782 0.92228 0.0
O52 O 0.24116 0.96006 0.88443 0.0
O53 O 0.19908 0.99356 0.86086 0.0
O54 O 0.23269 0.98068 0.98478 0.0
O55 O 0.19674 0.9899 0.94256 0.0
Co56 Co 0.12326 0.45357 0.85289 0.0
O57 O 0.09655 0.49646 0.84681 0.0
O58 O 0.08877 0.45762 0.88952 0.0
C59 C 0.1775 0.47532 0.84224 0.0
O60 O 0.14571 0.40615 0.86676 0.0
Co61 Co 0.15891 0.42163 0.788 0.0
O62 O 0.17737 0.38668 0.82171 0.0
C63 C 0.08429 0.41047 0.79619 0.0
C64 C 0.07782 0.48574 0.87299 0.0
C65 C 0.1666 0.38357 0.85272 0.0
O66 O 0.08728 0.42634 0.82542 0.0
O67 O 0.10984 0.40625 0.77555 0.0
O68 O 0.16337 0.48027 0.8724 0.0
O69 O 0.15646 0.46308 0.81869 0.0
Co70 Co 0.74463 0.54002 0.05895 0.0
O71 O 0.72422 0.5872 0.05337 0.0
O72 O 0.77973 0.57512 0.04471 0.0
C73 C 0.70572 0.50257 0.03193 0.0
O74 O 0.77454 0.49552 0.06108 0.0
Co75 Co 0.70619 0.48438 0.10613 0.0
O76 O 0.74282 0.45235 0.08849 0.0
C77 C 0.74869 0.54077 0.13873 0.0
C78 C 0.75557 0.59911 0.04618 0.0
C79 C 0.76954 0.46276 0.07128 0.0
O80 O 0.75754 0.55175 0.10844 0.0
O81 O 0.72565 0.51583 0.14368 0.0
O82 O 0.72732 0.52272 0.01407 0.0
O83 O 0.70311 0.51221 0.06395 0.0
Co84 Co 0.87342 0.02293 0.20451 0.0
O85 O 0.91104 0.02973 0.17221 0.0
O86 O 0.90917 0.9889 0.21414 0.0
C87 C 0.82726 0.02634 0.16897 0.0
O88 O 0.83823 0.00787 0.24155 0.0
Co89 Co 0.8246 0.08721 0.21659 0.0
O90 O 0.79624 0.04939 0.24084 0.0
C91 C 0.89563 0.09113 0.24303 0.0
C92 C 0.9268 0.00511 0.18969 0.0
C93 C 0.80783 0.01891 0.25015 0.0
O94 O 0.89791 0.05719 0.2375 0.0
O95 O 0.86979 0.10951 0.23284 0.0
O96 O 0.84432 0.99642 0.17092 0.0
O97 O 0.84267 0.05382 0.18315 0.0
Co98 Co 0.18573 0.29207 0.48621 0.0
O99 O 0.22854 0.27358 0.46709 0.0
O100 O 0.17544 0.25815 0.44962 0.0
C101 C 0.19877 0.35183 0.4918 0.0
O102 O 0.1359 0.30309 0.50014 0.0
Co103 Co 0.18726 0.319 0.56175 0.0
O104 O 0.1365 0.32556 0.55408 0.0
C105 C 0.19035 0.24199 0.54915 0.0
C106 C 0.20859 0.25139 0.44942 0.0
C107 C 0.12022 0.31532 0.52697 0.0
O108 O 0.18453 0.24974 0.51767 0.0
O109 O 0.19484 0.26623 0.57233 0.0
O110 O 0.18986 0.33856 0.46184 0.0
O111 O 0.20503 0.32795 0.51524 0.0
Co112 Co 0.2626 0.04176 0.43573 0.0
O113 O 0.27972 0.09103 0.44211 0.0
O114 O 0.22408 0.07503 0.43876 0.0
C115 C 0.29552 0.01069 0.47356 0.0
O116 O 0.23593 0.99371 0.42987 0.0
Co117 Co 0.31446 0.98709 0.40444 0.0
O118 O 0.27528 0.95255 0.41394 0.0
C119 C 0.27784 0.035 0.35798 0.0
C120 C 0.24749 0.10095 0.44113 0.0
C121 C 0.24447 0.96103 0.42279 0.0
O122 O 0.26166 0.04814 0.384 0.0
O123 O 0.30297 0.01318 0.3611 0.0
O124 O 0.26921 0.02906 0.48459 0.0
O125 O 0.3052 0.01883 0.44258 0.0
Co126 Co 0.3794 0.49008 0.79442 0.0
O127 O 0.34632 0.50678 0.82842 0.0
O128 O 0.34002 0.45739 0.79663 0.0
C129 C 0.43 0.49701 0.8228 0.0
O130 O 0.4069 0.46332 0.75813 0.0
Co131 Co 0.43247 0.54169 0.75942 0.0
O132 O 0.45118 0.49769 0.73741 0.0
C133 C 0.35968 0.54412 0.73771 0.0
C134 C 0.32665 0.47955 0.81866 0.0
C135 C 0.43444 0.4677 0.73948 0.0
O136 O 0.35387 0.51741 0.75802 0.0
O137 O 0.38966 0.55978 0.73513 0.0
O138 O 0.40933 0.46949 0.82923 0.0
O139 O 0.41684 0.52231 0.80402 0.0
Co140 Co 0.81466 0.79581 0.99338 0.0
O141 O 0.7728 0.7725 0.01211 0.0
O142 O 0.82697 0.75842 0.02508 0.0
C143 C 0.80114 0.85509 0.99667 0.0
O144 O 0.86382 0.81097 0.9794 0.0
Co145 Co 0.8114 0.83516 0.92304 0.0
O146 O 0.8631 0.83686 0.92697 0.0
C147 C 0.81022 0.75629 0.92371 0.0
C148 C 0.7939 0.75016 0.02691 0.0
C149 C 0.87948 0.8242 0.95272 0.0
O150 O 0.81499 0.75815 0.95632 0.0
O151 O 0.80514 0.78422 0.90511 0.0
O152 O 0.81174 0.83802 0.02392 0.0
O153 O 0.79411 0.83476 0.9703 0.0
Co154 Co 0.62336 0.04513 0.14868 0.0
O155 O 0.66105 0.0137 0.13801 0.0
O156 O 0.65982 0.05134 0.18249 0.0
C157 C 0.57717 0.00769 0.1406 0.0
O158 O 0.58818 0.08079 0.16703 0.0
Co159 Co 0.57491 0.06359 0.08697 0.0
O160 O 0.5472 0.08387 0.1253 0.0
C161 C 0.6422 0.10109 0.09299 0.0
C162 C 0.67721 0.02865 0.16387 0.0
C163 C 0.5584 0.09081 0.15565 0.0
O164 O 0.64675 0.08537 0.12198 0.0
O165 O 0.61659 0.09364 0.07288 0.0
O166 O 0.59504 0.00609 0.16911 0.0
O167 O 0.59221 0.02585 0.11618 0.0
Co168 Co 0.42674 0.2548 0.1279 0.0
O169 O 0.39121 0.24613 0.16249 0.0
O170 O 0.43488 0.28609 0.16675 0.0
C171 C 0.39394 0.25461 0.07933 0.0
O172 O 0.46785 0.27108 0.09793 0.0
Co173 Co 0.44128 0.19484 0.07443 0.0
O174 O 0.47402 0.23161 0.05436 0.0
C175 C 0.46046 0.18448 0.14623 0.0
C176 C 0.40891 0.26889 0.18151 0.0
C177 C 0.48262 0.26087 0.06981 0.0
O178 O 0.457 0.21835 0.1513 0.0
O179 O 0.4507 0.16867 0.11846 0.0
O180 O 0.39572 0.28353 0.09844 0.0
O181 O 0.40683 0.22642 0.09331 0.0
Co182 Co 0.11889 0.7814 0.36861 0.0
O183 O 0.1012 0.74362 0.33875 0.0
O184 O 0.14861 0.77737 0.32874 0.0
C185 C 0.11405 0.75427 0.42024 0.0
O186 O 0.14486 0.823 0.39213 0.0
Co187 Co 0.06904 0.81894 0.41884 0.0
O188 O 0.11019 0.85006 0.43057 0.0
C189 C 0.06511 0.83695 0.34611 0.0
C190 C 0.12589 0.75361 0.31748 0.0
C191 C 0.13921 0.84748 0.41487 0.0
O192 O 0.09079 0.81609 0.34187 0.0
O193 O 0.05074 0.842 0.37541 0.0
O194 O 0.14053 0.74791 0.40032 0.0
O195 O 0.08923 0.77259 0.40648 0.0
Co196 Co 0.38475 0.29496 0.62661 0.0
O197 O 0.39641 0.26145 0.66269 0.0
O198 O 0.35184 0.29848 0.66401 0.0
C199 C 0.38953 0.26076 0.57899 0.0
O200 O 0.3646 0.3331 0.59575 0.0
Co201 Co 0.44081 0.32211 0.5751 0.0
O202 O 0.40345 0.35237 0.55589 0.0
C203 C 0.44149 0.35212 0.64451 0.0
C204 C 0.37094 0.2754 0.68006 0.0
C205 C 0.37345 0.35296 0.56989 0.0
O206 O 0.41426 0.33249 0.65041 0.0
O207 O 0.45787 0.35158 0.61578 0.0
O208 O 0.36177 0.25827 0.59824 0.0
O209 O 0.41558 0.27907 0.59215 0.0
Co210 Co 0.06131 0.73432 0.86693 0.0
O211 O 0.09751 0.71676 0.83737 0.0
O212 O 0.06681 0.76559 0.82736 0.0
C213 C 0.08655 0.72869 0.91945 0.0
O214 O 0.02194 0.75979 0.89171 0.0
Co215 Co 0.0261 0.67903 0.91681 0.0
O216 O 0.00288 0.72285 0.93426 0.0
C217 C 0.01655 0.67138 0.84279 0.0
C218 C 0.0893 0.74247 0.81634 0.0
C219 C 0.00319 0.75319 0.91869 0.0
O220 O 0.02652 0.70442 0.83942 0.0
O221 O 0.0186 0.65432 0.87134 0.0
O222 O 0.09453 0.75649 0.9002 0.0
O223 O 0.06908 0.70349 0.90382 0.0
Co224 Co 0.1004 0.70388 0.12002 0.0
O225 O 0.08381 0.73798 0.15359 0.0
O226 O 0.13511 0.71164 0.15525 0.0
C227 C 0.08669 0.72988 0.06937 0.0
O228 O 0.12657 0.66773 0.09172 0.0
Co229 Co 0.04807 0.66013 0.07483 0.0
O230 O 0.09028 0.63659 0.0565 0.0
C231 C 0.05488 0.6402 0.14688 0.0
C232 C 0.11251 0.73177 0.17041 0.0
C233 C 0.1206 0.64372 0.06845 0.0
O234 O 0.07986 0.66373 0.14896 0.0
O235 O 0.03644 0.63574 0.11969 0.0
O236 O 0.1139 0.74135 0.08664 0.0
O237 O 0.06566 0.70847 0.08632 0.0
Co238 Co 0.57611 0.75489 0.13133 0.0
O239 O 0.61288 0.76639 0.16352 0.0
O240 O 0.57293 0.72289 0.1707 0.0
C241 C 0.60666 0.75696 0.08141 0.0
O242 O 0.53438 0.73623 0.10312 0.0
Co243 Co 0.55648 0.81462 0.07899 0.0
O244 O 0.52562 0.77572 0.0599 0.0
C245 C 0.53987 0.82312 0.15173 0.0
C246 C 0.59893 0.74187 0.1834 0.0
C247 C 0.51861 0.74601 0.07531 0.0
O248 O 0.54493 0.7894 0.15632 0.0
O249 O 0.54797 0.83961 0.1238 0.0
O250 O 0.60736 0.72809 0.10051 0.0
O251 O 0.59272 0.78428 0.09594 0.0
Co252 Co 0.37664 0.2333 0.87709 0.0
O253 O 0.39277 0.27229 0.84781 0.0
O254 O 0.34346 0.24076 0.84067 0.0
C255 C 0.38704 0.25615 0.93011 0.0
O256 O 0.35161 0.19107 0.90037 0.0
Co257 Co 0.43059 0.19123 0.91956 0.0
O258 O 0.39051 0.15772 0.92887 0.0
C259 C 0.42696 0.17824 0.84604 0.0
C260 C 0.36592 0.2642 0.82842 0.0
C261 C 0.35967 0.16324 0.91827 0.0
O262 O 0.40091 0.19919 0.84569 0.0
O263 O 0.44462 0.17189 0.87323 0.0
O264 O 0.35958 0.26574 0.91294 0.0
O265 O 0.40964 0.23827 0.91253 0.0
Co266 Co 0.42561 0.25789 0.3832 0.0
O267 O 0.39002 0.26785 0.34933 0.0
O268 O 0.43328 0.22991 0.34233 0.0
C269 C 0.39288 0.25309 0.43147 0.0
O270 O 0.46643 0.24035 0.41153 0.0
Co271 Co 0.44224 0.31346 0.44084 0.0
O272 O 0.47373 0.27552 0.45832 0.0
C273 C 0.46361 0.32955 0.36993 0.0
C274 C 0.40743 0.24713 0.32884 0.0
C275 C 0.4814 0.24793 0.44044 0.0
O276 O 0.45608 0.29679 0.36197 0.0
O277 O 0.45668 0.34303 0.39948 0.0
O278 O 0.39484 0.2258 0.41045 0.0
O279 O 0.40618 0.28303 0.42006 0.0
Co280 Co 0.12211 0.04109 0.62796 0.0
O281 O 0.16053 0.00961 0.61949 0.0
O282 O 0.15691 0.04742 0.66356 0.0
C283 C 0.07599 0.00394 0.61829 0.0
O284 O 0.08569 0.07689 0.64397 0.0
Co285 Co 0.07807 0.05907 0.563 0.0
O286 O 0.04831 0.08053 0.59901 0.0
C287 C 0.14375 0.09816 0.57402 0.0
C288 C 0.17529 0.02455 0.64613 0.0
C289 C 0.05711 0.08746 0.6301 0.0
O290 O 0.14682 0.08146 0.60269 0.0
O291 O 0.11958 0.09092 0.5522 0.0
O292 O 0.09303 1.00218 0.64727 0.0
O293 O 0.09231 0.02147 0.59414 0.0
Co294 Co 0.76334 0.04074 0.93557 0.0
O295 O 0.78028 0.09007 0.94243 0.0
O296 O 0.72471 0.07351 0.94021 0.0
C297 C 0.79679 0.00866 0.97218 0.0
O298 O 0.73666 0.99295 0.92985 0.0
Co299 Co 0.81432 0.98661 0.90212 0.0
O300 O 0.77536 0.95196 0.91209 0.0
C301 C 0.77691 0.03533 0.85729 0.0
C302 C 0.74789 0.0996 0.94273 0.0
C303 C 0.745 0.96037 0.92234 0.0
O304 O 0.76102 0.04781 0.88382 0.0
O305 O 0.80234 0.01381 0.85962 0.0
O306 O 0.77103 0.02728 0.98405 0.0
O307 O 0.8061 0.01748 0.94121 0.0
Co308 Co 0.87246 0.49391 0.30242 0.0
O309 O 0.83959 0.51012 0.33687 0.0
O310 O 0.83375 0.46029 0.3057 0.0
C311 C 0.92382 0.50258 0.32961 0.0
O312 O 0.89971 0.46748 0.26587 0.0
Co313 Co 0.92399 0.54649 0.26615 0.0
O314 O 0.94374 0.50231 0.24544 0.0
C315 C 0.85079 0.54646 0.24512 0.0
C316 C 0.82026 0.48237 0.32772 0.0
C317 C 0.92731 0.47212 0.2474 0.0
O318 O 0.84563 0.52015 0.2661 0.0
O319 O 0.88043 0.56271 0.24198 0.0
O320 O 0.90397 0.47461 0.33684 0.0
O321 O 0.90938 0.52713 0.31095 0.0
Co322 Co 0.31988 0.79979 0.49717 0.0
O323 O 0.27803 0.77528 0.51447 0.0
O324 O 0.33217 0.76177 0.52818 0.0
C325 C 0.30513 0.85861 0.5012 0.0
O326 O 0.36914 0.81606 0.48465 0.0
Co327 Co 0.31802 0.8409 0.42766 0.0
O328 O 0.36969 0.84279 0.43262 0.0
C329 C 0.31478 0.7622 0.42693 0.0
C330 C 0.29923 0.75275 0.52889 0.0
C331 C 0.38546 0.82998 0.45869 0.0
O332 O 0.32113 0.76326 0.45929 0.0
O333 O 0.30931 0.79059 0.40915 0.0
O334 O 0.31556 0.84133 0.52843 0.0
O335 O 0.29925 0.83869 0.47435 0.0
Co336 Co 0.13 0.98831 0.2003 0.0
O337 O 0.09174 0.98298 0.16851 0.0
O338 O 0.09483 0.02237 0.21165 0.0
C339 C 0.17562 0.98558 0.16405 0.0
O340 O 0.16586 1.00183 0.23718 0.0
Co341 Co 0.17832 0.92327 0.20988 0.0
O342 O 0.20735 0.95987 0.23508 0.0
C343 C 0.10767 0.91915 0.23725 0.0
C344 C 0.07653 0.00708 0.18715 0.0
C345 C 0.19618 0.99021 0.24528 0.0
O346 O 0.10566 0.95325 0.23262 0.0
O347 O 0.13322 0.90083 0.22622 0.0
O348 O 0.15888 0.01559 0.16708 0.0
O349 O 0.16009 0.95778 0.17755 0.0
Co350 Co 0.81351 0.71577 0.48687 0.0
O351 O 0.77056 0.73486 0.46848 0.0
O352 O 0.82359 0.75052 0.45096 0.0
C353 C 0.80071 0.65587 0.49143 0.0
O354 O 0.86346 0.70446 0.49998 0.0
Co355 Co 0.81282 0.68688 0.56186 0.0
O356 O 0.86367 0.68144 0.5537 0.0
C357 C 0.8083 0.76399 0.55092 0.0
C358 C 0.79048 0.75743 0.45116 0.0
C359 C 0.87953 0.69195 0.52644 0.0
O360 O 0.81482 0.75726 0.51934 0.0
O361 O 0.80386 0.73908 0.57344 0.0
O362 O 0.80922 0.66976 0.4616 0.0
O363 O 0.79461 0.67926 0.51533 0.0
Co364 Co 0.88268 0.55086 0.86061 0.0
O365 O 0.91113 0.50902 0.85572 0.0
O366 O 0.92138 0.55287 0.89322 0.0
C367 C 0.82937 0.5244 0.8586 0.0
O368 O 0.85921 0.59835 0.87238 0.0
Co369 Co 0.8375 0.57327 0.79799 0.0
O370 O 0.82321 0.61292 0.8288 0.0
C371 C 0.91177 0.59036 0.79649 0.0
C372 C 0.93195 0.5235 0.87855 0.0
C373 C 0.83686 0.6193 0.85822 0.0
O374 O 0.91346 0.57664 0.82672 0.0
O375 O 0.88358 0.59145 0.77898 0.0
O376 O 0.84696 0.52469 0.88732 0.0
O377 O 0.84631 0.53533 0.83156 0.0
Co378 Co 0.25735 0.46756 0.05847 0.0
O379 O 0.27856 0.42067 0.0537 0.0
O380 O 0.22318 0.43207 0.0433 0.0
C381 C 0.2967 0.50539 0.03255 0.0
O382 O 0.22667 0.51147 0.05937 0.0
Co383 Co 0.29315 0.52438 0.10628 0.0
O384 O 0.25677 0.5557 0.0869 0.0
C385 C 0.25093 0.46716 0.13808 0.0
C386 C 0.24756 0.4084 0.04561 0.0
C387 C 0.23074 0.54446 0.06914 0.0
O388 O 0.24307 0.45582 0.10764 0.0
O389 O 0.27331 0.49264 0.14344 0.0
O390 O 0.27589 0.48497 0.01408 0.0
O391 O 0.29828 0.49598 0.06469 0.0
Co392 Co 0.18776 0.21161 0.99412 0.0
O393 O 0.23022 0.23481 0.01174 0.0
O394 O 0.17641 0.24938 0.02561 0.0
C395 C 0.20091 0.15223 0.99788 0.0
O396 O 0.13812 0.19697 0.98165 0.0
Co397 Co 0.18837 0.17054 0.92454 0.0
O398 O 0.13676 0.17035 0.92959 0.0
C399 C 0.19191 0.24947 0.92375 0.0
C400 C 0.20953 0.2574 0.0268 0.0
C401 C 0.12142 0.18382 0.95559 0.0
O402 O 0.18714 0.24867 0.95643 0.0
O403 O 0.19627 0.22091 0.90586 0.0
O404 O 0.19101 0.16975 0.02514 0.0
O405 O 0.20735 0.1721 0.97109 0.0
Co406 Co 0.37917 0.96262 0.14855 0.0
O407 O 0.34264 0.99477 0.13592 0.0
O408 O 0.34188 0.95886 0.18173 0.0
C409 C 0.42655 0.9983 0.14003 0.0
O410 O 0.41282 0.92662 0.16904 0.0
Co411 Co 0.42848 0.94022 0.08874 0.0
O412 O 0.45457 0.92041 0.12845 0.0
C413 C 0.35977 0.90555 0.09421 0.0
C414 C 0.32554 0.98131 0.16193 0.0
C415 C 0.44245 0.91507 0.15874 0.0
O416 O 0.3552 0.9221 0.12277 0.0
O417 O 0.38596 0.91161 0.07444 0.0
O418 O 0.40827 1.00157 0.16814 0.0
O419 O 0.41148 0.97957 0.11604 0.0
Co420 Co 0.73814 0.96784 0.44007 0.0
O421 O 0.72046 0.91864 0.44577 0.0
O422 O 0.77628 0.93425 0.4445 0.0
C423 C 0.70383 0.9992 0.47656 0.0
O424 O 0.76527 0.0158 0.43521 0.0
Co425 Co 0.68766 0.02235 0.40644 0.0
O426 O 0.72652 0.05676 0.41746 0.0
C427 C 0.72538 0.97379 0.36176 0.0
C428 C 0.75263 0.90847 0.44584 0.0
C429 C 0.75692 0.04844 0.42771 0.0
O430 O 0.74109 0.96139 0.3884 0.0
O431 O 0.69992 0.9953 0.36389 0.0
O432 O 0.72957 0.9807 0.48867 0.0
O433 O 0.69545 0.99103 0.44523 0.0
Co434 Co 0.63183 0.50046 0.80665 0.0
O435 O 0.66323 0.47913 0.83944 0.0
O436 O 0.67009 0.53346 0.81608 0.0
C437 C 0.57982 0.48853 0.83118 0.0
O438 O 0.60555 0.53148 0.77269 0.0
Co439 Co 0.58149 0.45216 0.76367 0.0
O440 O 0.56218 0.49872 0.7481 0.0
C441 C 0.6554 0.45532 0.74459 0.0
C442 C 0.68236 0.5083 0.83565 0.0
C443 C 0.57835 0.52864 0.75328 0.0
O444 O 0.65989 0.4794 0.76803 0.0
O445 O 0.62606 0.43893 0.73967 0.0
O446 O 0.59946 0.51512 0.84233 0.0
O447 O 0.59485 0.46646 0.81026 0.0
Co448 Co 0.61109 0.70713 0.63228 0.0
O449 O 0.59661 0.74065 0.66701 0.0
O450 O 0.64674 0.71184 0.66705 0.0
C451 C 0.59744 0.73558 0.58303 0.0
O452 O 0.63458 0.67065 0.60202 0.0
Co453 Co 0.55494 0.66788 0.58798 0.0
O454 O 0.59518 0.6426 0.56761 0.0
C455 C 0.56335 0.64508 0.65894 0.0
C456 C 0.62499 0.73213 0.6833 0.0
C457 C 0.62628 0.64769 0.5784 0.0
O458 O 0.5896 0.66702 0.66052 0.0
O459 O 0.54352 0.64267 0.63249 0.0
O460 O 0.62557 0.74509 0.59987 0.0
O461 O 0.57581 0.71476 0.59991 0.0
Co462 Co 0.93614 0.26464 0.86969 0.0
O463 O 0.89945 0.27673 0.83779 0.0
O464 O 0.93634 0.23218 0.83109 0.0
C465 C 0.90829 0.26865 0.92104 0.0
O466 O 0.97685 0.24404 0.89632 0.0
Co467 Co 0.96443 0.32293 0.92021 0.0
O468 O 0.992 0.28252 0.93892 0.0
C469 C 0.97611 0.33145 0.84664 0.0
C470 C 0.91213 0.25197 0.8179 0.0
C471 C 0.99468 0.25235 0.92344 0.0
O472 O 0.96878 0.29776 0.84298 0.0
O473 O 0.97157 0.34818 0.87505 0.0
O474 O 0.90401 0.23971 0.90226 0.0
O475 O 0.92378 0.29521 0.90547 0.0
Co476 Co 0.87981 0.22756 0.37206 0.0
O477 O 0.89628 0.26459 0.34071 0.0
O478 O 0.84987 0.22891 0.33215 0.0
C479 C 0.88384 0.2569 0.42256 0.0
O480 O 0.85498 0.18632 0.39714 0.0
Co481 Co 0.93022 0.19347 0.42387 0.0
O482 O 0.88983 0.16179 0.43696 0.0
C483 C 0.93556 0.17328 0.3518 0.0
C484 C 0.87178 0.25294 0.31994 0.0
C485 C 0.86088 0.16309 0.42098 0.0
O486 O 0.90907 0.19281 0.34668 0.0
O487 O 0.9499 0.16984 0.38135 0.0
O488 O 0.85711 0.26149 0.40245 0.0
O489 O 0.90928 0.23889 0.40953 0.0
Co490 Co 0.92623 0.25846 0.61498 0.0
O491 O 0.89123 0.24846 0.64968 0.0
O492 O 0.93746 0.28463 0.65678 0.0
C493 C 0.89108 0.26618 0.56892 0.0
O494 O 0.96742 0.27494 0.58515 0.0
Co495 Co 0.93383 0.20485 0.55376 0.0
O496 O 0.96918 0.24094 0.53708 0.0
C497 C 0.95795 0.18502 0.6229 0.0
C498 C 0.91021 0.26838 0.6702 0.0
C499 C 0.98068 0.26709 0.55559 0.0
O500 O 0.9545 0.21759 0.63302 0.0
O501 O 0.94726 0.17345 0.59355 0.0
O502 O 0.8968 0.29276 0.59029 0.0
O503 O 0.90273 0.23559 0.57865 0.0
Co504 Co 0.57095 0.74111 0.38058 0.0
O505 O 0.60749 0.72297 0.35175 0.0
O506 O 0.57739 0.77209 0.34103 0.0
C507 C 0.59554 0.7356 0.43337 0.0
O508 O 0.53138 0.76726 0.40437 0.0
Co509 Co 0.53436 0.68705 0.43069 0.0
O510 O 0.51088 0.73119 0.44694 0.0
C511 C 0.52565 0.67842 0.35668 0.0
C512 C 0.59989 0.74874 0.33052 0.0
C513 C 0.51179 0.76124 0.43088 0.0
O514 O 0.53632 0.7112 0.35284 0.0
O515 O 0.52711 0.66182 0.38552 0.0
O516 O 0.60394 0.76323 0.41408 0.0
O517 O 0.57786 0.71052 0.41781 0.0
Co518 Co 0.62283 0.77689 0.87928 0.0
O519 O 0.60633 0.7377 0.85067 0.0
O520 O 0.65594 0.76868 0.84305 0.0
C521 C 0.61223 0.75493 0.93235 0.0
O522 O 0.64819 0.81906 0.90213 0.0
Co523 Co 0.56932 0.82014 0.92111 0.0
O524 O 0.61011 0.85216 0.93196 0.0
C525 C 0.57314 0.83205 0.84743 0.0
C526 C 0.63318 0.74534 0.83114 0.0
C527 C 0.64073 0.84649 0.92079 0.0
O528 O 0.59896 0.81081 0.84742 0.0
O529 O 0.55554 0.83901 0.8745 0.0
O530 O 0.6396 0.74477 0.91537 0.0
O531 O 0.58973 0.77274 0.91459 0.0
Co532 Co 0.61707 0.45732 0.36829 0.0
O533 O 0.592 0.50087 0.36116 0.0
O534 O 0.58366 0.46426 0.40551 0.0
C535 C 0.6716 0.47655 0.35512 0.0
O536 O 0.6384 0.40949 0.38272 0.0
Co537 Co 0.64728 0.42216 0.30246 0.0
O538 O 0.66729 0.38857 0.3364 0.0
C539 C 0.57348 0.41163 0.3166 0.0
C540 C 0.57304 0.4917 0.38765 0.0
C541 C 0.65802 0.38618 0.36794 0.0
O542 O 0.57894 0.43017 0.34392 0.0
O543 O 0.59747 0.40512 0.29471 0.0
O544 O 0.65861 0.48326 0.38544 0.0
O545 O 0.64933 0.46429 0.33261 0.0
Co546 Co 0.25132 0.54107 0.55293 0.0
O547 O 0.23109 0.58834 0.54805 0.0
O548 O 0.28643 0.57625 0.53849 0.0
C549 C 0.21163 0.50411 0.52625 0.0
O550 O 0.28071 0.49605 0.55457 0.0
Co551 Co 0.21217 0.48657 0.60084 0.0
O552 O 0.24787 0.45397 0.58237 0.0
C553 C 0.25633 0.54195 0.6327 0.0
C554 C 0.26235 0.60031 0.54071 0.0
C555 C 0.27468 0.46344 0.56483 0.0
O556 O 0.2651 0.55244 0.60225 0.0
O557 O 0.23269 0.51773 0.63808 0.0
O558 O 0.2332 0.52409 0.50818 0.0
O559 O 0.20956 0.51377 0.5583 0.0
Co560 Co 0.37004 0.02276 0.69901 0.0
O561 O 0.40906 0.0288 0.66783 0.0
O562 O 0.40666 0.99074 0.71194 0.0
C563 C 0.32505 0.02261 0.66139 0.0
O564 O 0.33416 0.00838 0.73569 0.0
Co565 Co 0.31706 0.08444 0.70599 0.0
O566 O 0.28961 0.04657 0.73119 0.0
C567 C 0.38701 0.09403 0.73473 0.0
C568 C 0.42488 0.0058 0.68729 0.0
C569 C 0.30284 0.01776 0.74283 0.0
O570 O 0.39186 0.06017 0.73067 0.0
O571 O 0.36029 0.10997 0.72295 0.0
O572 O 0.34275 0.99336 0.66577 0.0
O573 O 0.33899 0.05115 0.67496 0.0
Co574 Co 0.6843 0.28998 0.99477 0.0
O575 O 0.72676 0.2714 0.97485 0.0
O576 O 0.67325 0.25514 0.95923 0.0
C577 C 0.69676 0.34998 0.99866 0.0
O578 O 0.63473 0.30078 0.00965 0.0
Co579 Co 0.6872 0.31949 0.06953 0.0
O580 O 0.63604 0.32431 0.06316 0.0
C581 C 0.69061 0.24207 0.05902 0.0
C582 C 0.70646 0.2488 0.95803 0.0
C583 C 0.6194 0.3132 0.03658 0.0
O584 O 0.68435 0.24856 0.02734 0.0
O585 O 0.69531 0.26718 0.08131 0.0
O586 O 0.68725 0.33587 0.96923 0.0
O587 O 0.70391 0.32681 0.02246 0.0
Co588 Co 0.89522 0.29754 0.12154 0.0
O589 O 0.91136 0.26323 0.15513 0.0
O590 O 0.86071 0.29083 0.15714 0.0
C591 C 0.90792 0.27071 0.07094 0.0
O592 O 0.86971 0.33436 0.09334 0.0
Co593 Co 0.94859 0.33964 0.07617 0.0
O594 O 0.90723 0.36618 0.05992 0.0
C595 C 0.94223 0.36038 0.14794 0.0
C596 C 0.88304 0.27031 0.17222 0.0
C597 C 0.87661 0.35936 0.07125 0.0
O598 O 0.91684 0.33736 0.15014 0.0
O599 O 0.96078 0.36426 0.12076 0.0
O600 O 0.88059 0.26013 0.08847 0.0
O601 O 0.92952 0.29181 0.08755 0.0
Co602 Co 0.07306 0.74788 0.61417 0.0
O603 O 0.108 0.75748 0.64895 0.0
O604 O 0.06385 0.71829 0.65438 0.0
C605 C 0.10776 0.7445 0.56729 0.0
O606 O 0.03226 0.73138 0.58391 0.0
Co607 Co 0.06255 0.8046 0.55599 0.0
O608 O 0.02925 0.7675 0.53736 0.0
C609 C 0.03893 0.81933 0.62656 0.0
C610 C 0.09039 0.73519 0.66848 0.0
C611 C 0.01877 0.74004 0.55467 0.0
O612 O 0.04335 0.78631 0.63481 0.0
O613 O 0.04892 0.83296 0.59777 0.0
O614 O 0.10358 0.71654 0.58731 0.0
O615 O 0.09512 0.77393 0.5789 0.0
Co616 Co 0.63017 0.98607 0.69899 0.0
O617 O 0.59111 0.98018 0.66787 0.0
O618 O 0.59364 0.01817 0.71202 0.0
C619 C 0.67506 0.98616 0.66124 0.0
O620 O 0.66619 1.00027 0.7356 0.0
Co621 Co 0.68297 0.92419 0.70568 0.0
O622 O 0.71064 0.96198 0.73076 0.0
C623 C 0.6132 0.91483 0.73494 0.0
C624 C 0.57537 0.00319 0.68736 0.0
C625 C 0.69754 0.99079 0.74255 0.0
O626 O 0.60834 0.94867 0.73067 0.0
O627 O 0.63986 0.89881 0.72313 0.0
O628 O 0.65748 0.01546 0.66573 0.0
O629 O 0.66106 0.95764 0.67479 0.0
Co630 Co 0.31895 0.71796 0.9964 0.0
O631 O 0.27719 0.7367 0.97521 0.0
O632 O 0.33113 0.75315 0.96141 0.0
C633 C 0.30625 0.65798 0.99956 0.0
O634 O 0.36799 0.70684 0.01292 0.0
Co635 Co 0.3134 0.68805 0.07089 0.0
O636 O 0.36473 0.68305 0.06628 0.0
C637 C 0.31026 0.76546 0.06058 0.0
C638 C 0.29797 0.75946 0.95918 0.0
C639 C 0.38234 0.69412 0.04029 0.0
O640 O 0.3178 0.75912 0.02916 0.0
O641 O 0.30476 0.74026 0.08261 0.0
O642 O 0.31678 0.67224 0.97052 0.0
O643 O 0.29836 0.68102 0.02322 0.0
Co644 Co 0.38041 0.5567 0.36155 0.0
O645 O 0.4082 0.51438 0.35715 0.0
O646 O 0.41469 0.55501 0.39852 0.0
C647 C 0.32668 0.53316 0.3514 0.0
O648 O 0.35696 0.60388 0.37372 0.0
Co649 Co 0.34425 0.58572 0.2957 0.0
O650 O 0.32571 0.62209 0.3279 0.0
C651 C 0.41848 0.59995 0.30426 0.0
C652 C 0.42648 0.52662 0.38307 0.0
C653 C 0.33627 0.62604 0.35889 0.0
O654 O 0.41594 0.584 0.3335 0.0
O655 O 0.39281 0.6033 0.28359 0.0
O656 O 0.34086 0.52967 0.38173 0.0
O657 O 0.34747 0.54517 0.3275 0.0
Co658 Co 0.75591 0.46662 0.55597 0.0
O659 O 0.77581 0.41932 0.5499 0.0
O660 O 0.71993 0.43151 0.54414 0.0
C661 C 0.79332 0.50364 0.52659 0.0
O662 O 0.72637 0.5113 0.55937 0.0
Co663 Co 0.79713 0.52206 0.60092 0.0
O664 O 0.75983 0.55424 0.58508 0.0
C665 C 0.75557 0.46668 0.63594 0.0
C666 C 0.74403 0.40742 0.54488 0.0
C667 C 0.73217 0.54404 0.56928 0.0
O668 O 0.74567 0.45541 0.60608 0.0
O669 O 0.7787 0.49173 0.63985 0.0
O670 O 0.77075 0.48334 0.51007 0.0
O671 O 0.79773 0.49428 0.5585 0.0
C672 C 0.23621 0.46748 0.20104 0.0
C673 C 0.2287 0.45508 0.16754 0.0
H674 H 0.21689 0.47734 0.25175 0.0
C675 C 0.19658 0.43682 0.16165 0.0
H676 H 0.26079 0.48119 0.20675 0.0
C677 C 0.17115 0.43469 0.18763 0.0
C678 C 0.1774 0.45072 0.21996 0.0
H679 H 0.18993 0.42668 0.13623 0.0
H680 H 0.14576 0.42301 0.18147 0.0
C681 C 0.21089 0.46534 0.2269 0.0
C682 C 0.68737 0.29081 0.38407 0.0
C683 C 0.67895 0.28587 0.41894 0.0
H684 H 0.68808 0.32637 0.34092 0.0
C685 C 0.66636 0.31536 0.43785 0.0
H686 H 0.69739 0.26885 0.36885 0.0
C687 C 0.66062 0.34845 0.42177 0.0
C688 C 0.66781 0.35296 0.38654 0.0
H689 H 0.65975 0.31261 0.4649 0.0
H690 H 0.64978 0.37015 0.43675 0.0
C691 C 0.6821 0.32398 0.36813 0.0
C692 C 0.82932 0.84932 0.6004 0.0
C693 C 0.83307 0.87387 0.57283 0.0
H694 H 0.81856 0.79437 0.61523 0.0
C695 C 0.82162 0.86375 0.53999 0.0
H696 H 0.83815 0.85666 0.62607 0.0
C697 C 0.80959 0.82863 0.53411 0.0
C698 C 0.81007 0.80256 0.5606 0.0
H699 H 0.82392 0.88231 0.51847 0.0
H700 H 0.80257 0.82121 0.50805 0.0
C701 C 0.81813 0.81367 0.59428 0.0
C702 C 0.29742 0.97601 0.79359 0.0
C703 C 0.28162 0.99609 0.76743 0.0
H704 H 0.29119 0.95121 0.84307 0.0
C705 C 0.24514 0.99887 0.76735 0.0
H706 H 0.32544 0.97288 0.79399 0.0
C707 C 0.22538 0.98601 0.79515 0.0
C708 C 0.2418 0.97061 0.82385 0.0
H709 H 0.23208 0.0132 0.74689 0.0
H710 H 0.19775 0.99142 0.7956 0.0
C711 C 0.27764 0.9633 0.82162 0.0
C712 C 0.17619 0.31479 0.92436 0.0
C713 C 0.18914 0.28492 0.90628 0.0
H714 H 0.15879 0.36921 0.9218 0.0
C715 C 0.19711 0.28889 0.87115 0.0
H716 H 0.16984 0.31284 0.95153 0.0
C717 C 0.19111 0.32146 0.85424 0.0
C718 C 0.17657 0.35075 0.87193 0.0
H719 H 0.20727 0.26661 0.85649 0.0
H720 H 0.19677 0.32315 0.82692 0.0
C721 C 0.16975 0.34721 0.90734 0.0
C722 C 0.80308 0.57017 0.16308 0.0
C723 C 0.7707 0.55227 0.16853 0.0
H724 H 0.85404 0.58265 0.18322 0.0
C725 C 0.76285 0.53939 0.2018 0.0
H726 H 0.80999 0.58071 0.13787 0.0
C727 C 0.78813 0.54053 0.22773 0.0
C728 C 0.82187 0.55462 0.22108 0.0
H729 H 0.73806 0.52595 0.20719 0.0
H730 H 0.78188 0.5281 0.25234 0.0
C731 C 0.82845 0.5713 0.18912 0.0
C732 C 0.72815 0.98781 0.29895 0.0
C733 C 0.74329 0.97166 0.32795 0.0
H734 H 0.73713 0.01566 0.25138 0.0
C735 C 0.77893 0.96321 0.32665 0.0
H736 H 0.70068 0.99403 0.29865 0.0
C737 C 0.79991 0.9758 0.29944 0.0
C738 C 0.78545 0.99684 0.27326 0.0
H739 H 0.79146 0.95039 0.34832 0.0
H740 H 0.82781 0.97199 0.30066 0.0
C741 C 0.7491 1.00056 0.27199 0.0
C742 C 0.18657 0.17778 0.53063 0.0
C743 C 0.18775 0.20311 0.55781 0.0
H744 H 0.1713 0.12458 0.51429 0.0
C745 C 0.18103 0.1911 0.5915 0.0
H746 H 0.19247 0.1858 0.50445 0.0
C747 C 0.16985 0.15535 0.5972 0.0
C748 C 0.16473 0.1315 0.56923 0.0
H749 H 0.18189 0.20977 0.61297 0.0
H750 H 0.16232 0.14735 0.62308 0.0
C751 C 0.1746 0.14255 0.53615 0.0
C752 C 0.03005 0.31141 0.56604 0.0
C753 C 0.01294 0.28656 0.5441 0.0
H754 H 0.07722 0.34088 0.57738 0.0
C755 C 0.0292 0.27729 0.51286 0.0
H756 H 0.01818 0.31964 0.59004 0.0
C757 C 0.06316 0.28958 0.50551 0.0
C758 C 0.08164 0.31136 0.52926 0.0
H759 H 0.0166 0.2587 0.495 0.0
H760 H 0.07574 0.27974 0.48245 0.0
C761 C 0.064 0.32368 0.5587 0.0
C762 C 0.99349 0.38805 0.81664 0.0
C763 C 0.99614 0.35055 0.81963 0.0
H764 H 0.01996 0.43739 0.80358 0.0
C765 C 0.02332 0.33314 0.80248 0.0
H766 H 0.97237 0.40201 0.82904 0.0
C767 C 0.05078 0.35356 0.78802 0.0
C768 C 0.05088 0.3913 0.79062 0.0
H769 H 0.02571 0.30415 0.80417 0.0
H770 H 0.07393 0.33985 0.77961 0.0
C771 C 0.02056 0.40829 0.80177 0.0
C772 C 0.83028 0.44596 0.05503 0.0
C773 C 0.79603 0.43564 0.06408 0.0
H774 H 0.88306 0.42934 0.04964 0.0
C775 C 0.78769 0.39888 0.06897 0.0
H776 H 0.83735 0.47403 0.05065 0.0
C777 C 0.8137 0.37341 0.06839 0.0
C778 C 0.84852 0.38415 0.06266 0.0
H779 H 0.76128 0.38989 0.07495 0.0
H780 H 0.80681 0.3456 0.07434 0.0
C781 C 0.85639 0.42032 0.05425 0.0
C782 C 0.9413 0.11284 0.32592 0.0
C783 C 0.94482 0.1504 0.32243 0.0
H784 H 0.92276 0.0638 0.30223 0.0
C785 C 0.94239 0.1658 0.2894 0.0
H786 H 0.94281 0.10039 0.35114 0.0
C787 C 0.9297 0.14529 0.26184 0.0
C788 C 0.92062 0.10885 0.26674 0.0
H789 H 0.9452 0.19474 0.28609 0.0
H790 H 0.92372 0.15869 0.23779 0.0
C791 C 0.92935 0.09202 0.29798 0.0
C792 C 0.18342 0.93761 0.43467 0.0
C793 C 0.21778 0.93146 0.42398 0.0
H794 H 0.13161 0.91561 0.44068 0.0
C795 C 0.22654 0.89652 0.41327 0.0
H796 H 0.17585 0.96405 0.44335 0.0
C797 C 0.20128 0.86894 0.41158 0.0
C798 C 0.16668 0.87539 0.42097 0.0
H799 H 0.25283 0.89051 0.40523 0.0
H800 H 0.20876 0.84271 0.40222 0.0
C801 C 0.15814 0.90977 0.43335 0.0
C802 C 0.43871 0.3733 0.70509 0.0
C803 C 0.45031 0.37938 0.67112 0.0
H804 H 0.42474 0.39663 0.75336 0.0
C805 C 0.46306 0.41391 0.66199 0.0
H806 H 0.42918 0.34688 0.71307 0.0
C807 C 0.46061 0.44263 0.68536 0.0
C808 C 0.44517 0.43706 0.71792 0.0
H809 H 0.47203 0.4194 0.63598 0.0
H810 H 0.46816 0.46954 0.67694 0.0
C811 C 0.43598 0.40185 0.72815 0.0
C812 C 0.96384 0.80493 0.90761 0.0
C813 C 0.97804 0.78008 0.93069 0.0
H814 H 0.92142 0.8396 0.89688 0.0
C815 C 0.96425 0.77747 0.96422 0.0
H816 H 0.97418 0.80788 0.88174 0.0
C817 C 0.9342 0.79584 0.97307 0.0
C818 C 0.9171 0.81686 0.9484 0.0
H819 H 0.97522 0.7592 0.98291 0.0
H820 H 0.92272 0.79078 0.99819 0.0
C821 C 0.93356 0.82319 0.91639 0.0
C822 C 0.47489 0.12801 0.17588 0.0
C823 C 0.48352 0.16415 0.16882 0.0
H824 H 0.49418 0.07492 0.18025 0.0
C825 C 0.51827 0.17635 0.17265 0.0
H826 H 0.44819 0.11813 0.17334 0.0
C827 C 0.54478 0.15131 0.17616 0.0
C828 C 0.53629 0.11433 0.17608 0.0
H829 H 0.52547 0.20423 0.16735 0.0
H830 H 0.57163 0.16048 0.173 0.0
C831 C 0.50129 0.10324 0.18002 0.0
C832 C 0.0603 0.89721 0.31935 0.0
C833 C 0.05733 0.85959 0.31609 0.0
H834 H 0.07879 0.94632 0.29577 0.0
C835 C 0.06107 0.84394 0.28329 0.0
H836 H 0.05774 0.90988 0.34437 0.0
C837 C 0.07429 0.86441 0.25594 0.0
C838 C 0.08269 0.90102 0.26075 0.0
H839 H 0.05865 0.81496 0.28012 0.0
H840 H 0.08105 0.85091 0.23215 0.0
C841 C 0.07282 0.91796 0.2916 0.0
C842 C 0.35958 0.41565 0.55238 0.0
C843 C 0.34847 0.37988 0.55873 0.0
H844 H 0.34451 0.47094 0.54953 0.0
C845 C 0.31276 0.37145 0.56071 0.0
H846 H 0.38712 0.42267 0.55086 0.0
C847 C 0.28861 0.39874 0.55979 0.0
C848 C 0.29979 0.43504 0.55739 0.0
H849 H 0.30364 0.34395 0.56514 0.0
H850 H 0.26128 0.39149 0.5631 0.0
C851 C 0.33528 0.44322 0.55179 0.0
C852 C 0.97523 0.59631 0.79301 0.0
C853 C 0.94278 0.61163 0.78628 0.0
H854 H 0.02465 0.60381 0.81796 0.0
C855 C 0.94022 0.64932 0.78687 0.0
H856 H 0.97793 0.56736 0.79209 0.0
C857 C 0.96726 0.67043 0.80124 0.0
C858 C 0.9967 0.65371 0.81489 0.0
H859 H 0.91546 0.66178 0.78182 0.0
H860 H 0.96296 0.69876 0.80598 0.0
C861 C 0.00182 0.61711 0.80813 0.0
C862 C 0.16982 0.55919 0.05168 0.0
C863 C 0.20365 0.57068 0.06112 0.0
H864 H 0.11651 0.57394 0.046 0.0
C865 C 0.2108 0.60768 0.06593 0.0
H866 H 0.16368 0.53091 0.04733 0.0
C867 C 0.18395 0.63219 0.06513 0.0
C868 C 0.1495 0.62021 0.05928 0.0
H869 H 0.23687 0.61754 0.07218 0.0
H870 H 0.18985 0.66019 0.07121 0.0
C871 C 0.14287 0.58387 0.0507 0.0
C872 C 0.48172 0.82983 0.17736 0.0
C873 C 0.51654 0.84223 0.17501 0.0
H874 H 0.42836 0.84546 0.17555 0.0
C875 C 0.5247 0.87826 0.18306 0.0
H876 H 0.47487 0.80205 0.17123 0.0
C877 C 0.49803 0.90289 0.18639 0.0
C878 C 0.46331 0.89173 0.18062 0.0
H879 H 0.55143 0.88832 0.18161 0.0
H880 H 0.50499 0.93125 0.18729 0.0
C881 C 0.45499 0.85471 0.18006 0.0
C882 C 0.29757 0.14144 0.9171 0.0
C883 C 0.33275 0.13473 0.92391 0.0
H884 H 0.24605 0.11948 0.91163 0.0
C885 C 0.34239 0.09957 0.93293 0.0
H886 H 0.28923 0.16826 0.91044 0.0
C887 C 0.31765 0.07132 0.93322 0.0
C888 C 0.28276 0.07775 0.92471 0.0
H889 H 0.36933 0.09349 0.93834 0.0
H890 H 0.32607 0.04437 0.93919 0.0
C891 C 0.27285 0.11332 0.91764 0.0
C892 C 0.52815 0.23293 0.48313 0.0
C893 C 0.51041 0.22514 0.45217 0.0
H894 H 0.57375 0.22489 0.51358 0.0
C895 C 0.52273 0.19742 0.43099 0.0
H896 H 0.519 0.25356 0.50048 0.0
C897 C 0.5541 0.18072 0.43864 0.0
C898 C 0.57385 0.1914 0.46763 0.0
H899 H 0.50938 0.19012 0.4073 0.0
H900 H 0.56408 0.16141 0.42039 0.0
C901 C 0.55949 0.21617 0.49084 0.0
C902 C 0.70344 0.03211 0.79358 0.0
C903 C 0.71898 0.01232 0.76706 0.0
H904 H 0.71021 0.05642 0.84323 0.0
C905 C 0.75546 0.00964 0.76652 0.0
H906 H 0.67542 0.03514 0.79435 0.0
C907 C 0.77552 0.02227 0.7942 0.0
C908 C 0.75941 0.03736 0.82323 0.0
H909 H 0.76831 0.99553 0.74578 0.0
H910 H 0.80318 0.01692 0.79429 0.0
C911 C 0.72353 0.04458 0.8215 0.0
C912 C 0.31401 0.68908 0.3585 0.0
C913 C 0.32674 0.65949 0.37711 0.0
H914 H 0.30041 0.74479 0.35941 0.0
C915 C 0.33278 0.66332 0.41259 0.0
H916 H 0.30908 0.68709 0.33105 0.0
C917 C 0.3275 0.69632 0.42884 0.0
C918 C 0.31649 0.72648 0.40991 0.0
H919 H 0.34234 0.64107 0.42773 0.0
H920 H 0.33319 0.69836 0.45615 0.0
C921 C 0.30913 0.72227 0.37468 0.0
C922 C 0.25505 0.00635 0.26845 0.0
C923 C 0.21887 0.0115 0.26878 0.0
H924 H 0.30306 0.01183 0.29598 0.0
C925 C 0.20465 0.03379 0.29414 0.0
H926 H 0.26694 0.99031 0.24846 0.0
C927 C 0.22546 0.04637 0.32146 0.0
C928 C 0.26073 0.03668 0.32374 0.0
H929 H 0.17693 0.03879 0.29461 0.0
H930 H 0.21296 0.06032 0.34247 0.0
C931 C 0.27586 0.01908 0.29553 0.0
C932 C 0.81239 0.68148 0.85687 0.0
C933 C 0.82745 0.65329 0.87573 0.0
H934 H 0.79524 0.73611 0.85697 0.0
C935 C 0.83461 0.65863 0.91085 0.0
H936 H 0.80653 0.67831 0.8297 0.0
C937 C 0.82767 0.69162 0.92653 0.0
C938 C 0.81392 0.72036 0.90737 0.0
H939 H 0.84592 0.63747 0.92617 0.0
H940 H 0.83413 0.69485 0.95358 0.0
C941 C 0.80594 0.71471 0.87244 0.0
C942 C 0.9363 0.68229 0.5567 0.0
C943 C 0.91812 0.69575 0.52809 0.0
H944 H 0.98258 0.68536 0.58741 0.0
C945 C 0.93614 0.71843 0.50475 0.0
H946 H 0.92343 0.66431 0.57496 0.0
C947 C 0.97015 0.73061 0.51198 0.0
C948 C 0.98689 0.7203 0.54264 0.0
H949 H 0.92313 0.72911 0.4823 0.0
H950 H 0.98235 0.75002 0.49463 0.0
C951 C 0.97031 0.69441 0.56389 0.0
C952 C 0.03783 0.23303 0.96777 0.0
C953 C 0.0219 0.22761 0.93548 0.0
H954 H 0.08126 0.22218 0.00023 0.0
C955 C 0.03496 0.20108 0.9134 0.0
H956 H 0.02792 0.25266 0.98575 0.0
C957 C 0.0657 0.18345 0.92172 0.0
C958 C 0.08386 0.19197 0.95232 0.0
H959 H 0.02301 0.19585 0.88853 0.0
H960 H 0.07661 0.16537 0.90286 0.0
C961 C 0.06835 0.21524 0.9762 0.0
C962 C 0.84295 0.10032 0.43899 0.0
C963 C 0.83383 0.13491 0.42767 0.0
H964 H 0.82592 0.0455 0.44758 0.0
C965 C 0.79898 0.14132 0.41929 0.0
H966 H 0.86971 0.09457 0.44551 0.0
C967 C 0.77402 0.11347 0.42066 0.0
C968 C 0.78333 0.07825 0.42997 0.0
H969 H 0.7911 0.16774 0.41081 0.0
H970 H 0.74754 0.11951 0.41332 0.0
C971 C 0.81793 0.07215 0.43996 0.0
C972 C 0.57931 0.62308 0.71747 0.0
C973 C 0.55957 0.61842 0.68714 0.0
H974 H 0.60049 0.59844 0.76235 0.0
C975 C 0.54102 0.58574 0.68206 0.0
H976 H 0.59342 0.64818 0.72255 0.0
C977 C 0.54505 0.55709 0.70508 0.0
C978 C 0.56779 0.56067 0.73345 0.0
H979 H 0.52539 0.58137 0.6591 0.0
H980 H 0.53218 0.53149 0.6993 0.0
C981 C 0.58345 0.5945 0.74032 0.0
C982 C 0.47362 0.73247 0.03005 0.0
C983 C 0.48811 0.72461 0.06249 0.0
H984 H 0.42903 0.72829 0.9971 0.0
C985 C 0.47023 0.70016 0.0842 0.0
H986 H 0.48702 0.75064 0.01234 0.0
C987 C 0.43685 0.68718 0.07535 0.0
C988 C 0.42072 0.69837 0.0446 0.0
H989 H 0.48078 0.69321 0.10918 0.0
H990 H 0.42274 0.67052 0.09385 0.0
C991 C 0.44033 0.71944 0.02117 0.0
C992 C 0.47124 0.78645 0.47447 0.0
C993 C 0.48601 0.7882 0.44132 0.0
H994 H 0.42823 0.7997 0.50662 0.0
C995 C 0.47185 0.81172 0.41694 0.0
H996 H 0.4821 0.76921 0.49411 0.0
C997 C 0.44075 0.82929 0.42409 0.0
C998 C 0.42342 0.8236 0.45576 0.0
H999 H 0.48291 0.81397 0.39129 0.0
H1000 H 0.42875 0.84452 0.40362 0.0
C1001 C 0.44037 0.80413 0.4817 0.0
C1002 C 0.68399 0.93792 0.93445 0.0
C1003 C 0.71868 0.93084 0.92568 0.0
H1004 H 0.63207 0.91655 0.9403 0.0
C1005 C 0.72812 0.89501 0.91926 0.0
H1006 H 0.67596 0.96511 0.93997 0.0
C1007 C 0.70305 0.86724 0.91943 0.0
C1008 C 0.66803 0.87458 0.92632 0.0
H1009 H 0.75478 0.88838 0.91316 0.0
H1010 H 0.71099 0.84018 0.91315 0.0
C1011 C 0.6589 0.91001 0.93487 0.0
C1012 C 0.70373 0.43426 0.66208 0.0
C1013 C 0.73467 0.45502 0.66646 0.0
H1014 H 0.65431 0.41785 0.68338 0.0
C1015 C 0.74184 0.46984 0.69914 0.0
H1016 H 0.69741 0.42208 0.6374 0.0
C1017 C 0.71707 0.46734 0.72554 0.0
C1018 C 0.6845 0.44999 0.7199 0.0
H1019 H 0.76554 0.48558 0.7037 0.0
H1020 H 0.72268 0.48102 0.74967 0.0
C1021 C 0.67888 0.43183 0.6885 0.0
C1022 C 0.32895 0.86482 0.05297 0.0
C1023 C 0.33749 0.87371 0.08699 0.0
H1024 H 0.31141 0.82392 0.01831 0.0
C1025 C 0.32993 0.8488 0.11353 0.0
H1026 H 0.33416 0.88373 0.03219 0.0
C1027 C 0.31787 0.81385 0.10559 0.0
C1028 C 0.31273 0.80379 0.07106 0.0
H1029 H 0.33638 0.85521 0.14008 0.0
H1030 H 0.31531 0.79414 0.1261 0.0
C1031 C 0.31606 0.83041 0.04516 0.0
C1032 C 0.29674 0.54112 0.7212 0.0
C1033 C 0.33093 0.55357 0.71398 0.0
H1034 H 0.2459 0.52854 0.70142 0.0
C1035 C 0.33781 0.56963 0.68181 0.0
H1036 H 0.29031 0.52924 0.746 0.0
C1037 C 0.31209 0.56936 0.65609 0.0
C1038 C 0.27909 0.55294 0.66211 0.0
H1039 H 0.36377 0.57971 0.67551 0.0
H1040 H 0.31911 0.57929 0.63069 0.0
C1041 C 0.27113 0.54082 0.6956 0.0
C1042 C 0.67143 0.1584 0.11194 0.0
C1043 C 0.66373 0.13345 0.08545 0.0
H1044 H 0.68595 0.21308 0.12448 0.0
C1045 C 0.67158 0.14259 0.05133 0.0
H1046 H 0.66552 0.15185 0.13858 0.0
C1047 C 0.68403 0.17715 0.04343 0.0
C1048 C 0.68772 0.20368 0.06937 0.0
H1049 H 0.66627 0.12369 0.03057 0.0
H1050 H 0.68824 0.18372 0.01652 0.0
C1051 C 0.68309 0.19346 0.10393 0.0
C1052 C 0.53025 0.30771 0.07763 0.0
C1053 C 0.51362 0.28144 0.05687 0.0
H1054 H 0.57668 0.33918 0.08706 0.0
C1055 C 0.52944 0.27176 0.02556 0.0
H1056 H 0.51866 0.31619 0.1017 0.0
C1057 C 0.56273 0.28511 0.01703 0.0
C1058 C 0.581 0.30828 0.03974 0.0
H1059 H 0.51708 0.25211 0.00858 0.0
H1060 H 0.57511 0.27498 0.99399 0.0
C1061 C 0.5636 0.32095 0.06918 0.0
C1062 C 0.51074 0.33446 0.32541 0.0
C1063 C 0.48529 0.35113 0.34576 0.0
H1064 H 0.5595 0.34143 0.29878 0.0
C1065 C 0.48431 0.38883 0.34654 0.0
H1066 H 0.51187 0.30534 0.32408 0.0
C1067 C 0.51082 0.40936 0.33098 0.0
C1068 C 0.53933 0.39258 0.31542 0.0
H1069 H 0.46456 0.40239 0.36134 0.0
H1070 H 0.51114 0.43823 0.33471 0.0
C1071 C 0.53782 0.35512 0.31044 0.0
C1072 C 0.43433 0.11956 0.81615 0.0
C1073 C 0.43208 0.15722 0.81436 0.0
H1074 H 0.4218 0.0693 0.79125 0.0
C1075 C 0.42393 0.17338 0.7827 0.0
H1076 H 0.4404 0.10648 0.84033 0.0
C1077 C 0.41269 0.15231 0.75497 0.0
C1078 C 0.40996 0.11472 0.75837 0.0
H1079 H 0.42248 0.2024 0.78062 0.0
H1080 H 0.40315 0.1656 0.73205 0.0
C1081 C 0.4234 0.09831 0.78811 0.0
C1082 C 0.92509 0.40687 0.23214 0.0
C1083 C 0.93824 0.44182 0.22545 0.0
H1084 H 0.91704 0.35333 0.21324 0.0
C1085 C 0.95857 0.4479 0.19572 0.0
H1086 H 0.91001 0.40109 0.2552 0.0
C1087 C 0.96258 0.42036 0.17144 0.0
C1088 C 0.94643 0.38636 0.17667 0.0
H1089 H 0.96936 0.47449 0.19004 0.0
H1090 H 0.97616 0.42649 0.14758 0.0
C1091 C 0.92922 0.37943 0.20808 0.0
C1092 C 0.04161 0.14728 0.65204 0.0
C1093 C 0.03301 0.11048 0.64879 0.0
H1094 H 0.02297 0.20105 0.64688 0.0
C1095 C 0.99773 0.09954 0.64878 0.0
H1096 H 0.06866 0.1564 0.65161 0.0
C1097 C 0.97175 0.12479 0.64519 0.0
C1098 C 0.98084 0.16137 0.64242 0.0
H1099 H 0.99051 0.07152 0.64584 0.0
H1100 H 0.94522 0.11544 0.64029 0.0
C1101 C 0.01543 0.1728 0.64902 0.0
C1102 C 0.58796 0.85666 0.75603 0.0
C1103 C 0.59036 0.89432 0.75884 0.0
H1104 H 0.57846 0.80691 0.78238 0.0
C1105 C 0.57665 0.91109 0.78827 0.0
H1106 H 0.59771 0.84307 0.73337 0.0
C1107 C 0.56572 0.89023 0.81657 0.0
C1108 C 0.56826 0.85257 0.81539 0.0
H1109 H 0.57798 0.94016 0.79096 0.0
H1110 H 0.55938 0.90367 0.8405 0.0
C1111 C 0.57674 0.83596 0.78402 0.0
C1112 C 0.48228 0.60342 0.30834 0.0
C1113 C 0.45133 0.62022 0.29875 0.0
H1114 H 0.53076 0.6093 0.33526 0.0
C1115 C 0.45049 0.65803 0.29837 0.0
H1116 H 0.48363 0.57434 0.30831 0.0
C1117 C 0.4778 0.67826 0.31338 0.0
C1118 C 0.50573 0.66056 0.32892 0.0
H1119 H 0.42681 0.67159 0.29129 0.0
H1120 H 0.47478 0.707 0.31685 0.0
C1121 C 0.50913 0.6234 0.32392 0.0
C1122 C 0.67061 0.5613 0.55712 0.0
C1123 C 0.70549 0.57135 0.56375 0.0
H1124 H 0.61766 0.57828 0.55604 0.0
C1125 C 0.71441 0.60802 0.56836 0.0
H1126 H 0.66307 0.5333 0.55303 0.0
C1127 C 0.68857 0.6336 0.57016 0.0
C1128 C 0.65339 0.62305 0.56701 0.0
H1129 H 0.74124 0.6168 0.57247 0.0
H1130 H 0.696 0.6613 0.57601 0.0
C1131 C 0.64467 0.58708 0.55865 0.0
C1132 C 0.98059 0.8293 0.65125 0.0
C1133 C 0.01547 0.84107 0.64739 0.0
H1134 H 0.92738 0.8457 0.65182 0.0
C1135 C 0.02443 0.87725 0.6536 0.0
H1136 H 0.97316 0.80139 0.64642 0.0
C1137 C 0.99828 0.90229 0.65781 0.0
C1138 C 0.96312 0.89155 0.65456 0.0
H1139 H 0.05122 0.88682 0.65089 0.0
H1140 H 0.00566 0.93047 0.65787 0.0
C1141 C 0.95433 0.85464 0.65468 0.0
C1142 C 0.03491 0.58036 0.17096 0.0
C1143 C 0.05094 0.61447 0.17583 0.0
H1144 H 0.02829 0.52643 0.19011 0.0
C1145 C 0.06807 0.62184 0.2072 0.0
H1146 H 0.02137 0.57389 0.14715 0.0
C1147 C 0.07221 0.59472 0.23158 0.0
C1148 C 0.05919 0.55963 0.22526 0.0
H1149 H 0.08014 0.64805 0.2121 0.0
H1150 H 0.08724 0.60083 0.2546 0.0
C1151 C 0.03896 0.55313 0.19554 0.0
C1152 C 0.23041 0.50859 0.36424 0.0
C1153 C 0.21531 0.52565 0.3357 0.0
H1154 H 0.27769 0.49805 0.39202 0.0
C1155 C 0.23714 0.54467 0.31256 0.0
H1156 H 0.21427 0.49344 0.38231 0.0
C1157 C 0.27318 0.54622 0.31739 0.0
C1158 C 0.28844 0.52964 0.34601 0.0
H1159 H 0.2265 0.55759 0.28995 0.0
H1160 H 0.28902 0.56075 0.29867 0.0
C1161 C 0.26667 0.51106 0.36965 0.0
C1162 C 0.75085 0.30505 0.53732 0.0
C1163 C 0.71615 0.29354 0.54361 0.0
H1164 H 0.78703 0.35007 0.53275 0.0
C1165 C 0.69142 0.31981 0.55133 0.0
H1166 H 0.7705 0.28567 0.53086 0.0
C1167 C 0.7006 0.35651 0.55125 0.0
C1168 C 0.73495 0.36817 0.5441 0.0
H1169 H 0.66439 0.31221 0.55603 0.0
H1170 H 0.68058 0.37582 0.55677 0.0
C1171 C 0.76022 0.34198 0.53795 0.0
C1172 C 0.76696 0.95326 0.65374 0.0
C1173 C 0.78668 0.98537 0.6511 0.0
H1174 H 0.71648 0.92829 0.65603 0.0
C1175 C 0.76931 0.01819 0.64792 0.0
H1176 H 0.77965 0.92747 0.65482 0.0
C1177 C 0.73266 0.01889 0.64963 0.0
C1178 C 0.71297 0.98659 0.65317 0.0
H1179 H 0.78408 0.04324 0.64486 0.0
H1180 H 0.71987 0.0446 0.64897 0.0
C1181 C 0.73066 0.95378 0.65397 0.0
C1182 C 0.30088 0.85994 0.93892 0.0
C1183 C 0.26616 0.8698 0.94467 0.0
H1184 H 0.33787 0.81751 0.93757 0.0
C1185 C 0.24121 0.84214 0.95124 0.0
H1186 H 0.32077 0.88034 0.93339 0.0
C1187 C 0.251 0.80588 0.95354 0.0
C1188 C 0.28599 0.79614 0.94899 0.0
H1189 H 0.21415 0.84859 0.95551 0.0
H1190 H 0.23133 0.78566 0.96026 0.0
C1191 C 0.31061 0.82369 0.94086 0.0
C1192 C 0.23835 0.49423 0.86074 0.0
C1193 C 0.21579 0.47709 0.83687 0.0
H1194 H 0.29144 0.50884 0.87369 0.0
C1195 C 0.23026 0.46012 0.80804 0.0
H1196 H 0.22795 0.50752 0.88325 0.0
C1197 C 0.26628 0.45979 0.80329 0.0
C1198 C 0.28891 0.47728 0.82672 0.0
H1199 H 0.21381 0.44674 0.78907 0.0
H1200 H 0.27633 0.44664 0.78053 0.0
C1201 C 0.27463 0.4948 0.85542 0.0
C1202 C 0.79902 0.65048 0.04676 0.0
C1203 C 0.76426 0.63834 0.04302 0.0
H1204 H 0.83524 0.69506 0.04619 0.0
C1205 C 0.73841 0.66407 0.03746 0.0
H1206 H 0.81955 0.63158 0.05168 0.0
C1207 C 0.74749 0.70092 0.03408 0.0
C1208 C 0.78253 0.71285 0.03691 0.0
H1209 H 0.71131 0.65563 0.03481 0.0
H1210 H 0.72724 0.71985 0.02821 0.0
C1211 C 0.80797 0.68713 0.04405 0.0
C1212 C 0.77123 0.05893 0.16782 0.0
C1213 C 0.78901 0.0265 0.16346 0.0
H1214 H 0.7221 0.0844 0.17353 0.0
C1215 C 0.76942 0.99429 0.15901 0.0
H1216 H 0.78538 0.08433 0.17084 0.0
C1217 C 0.73283 0.99458 0.15976 0.0
C1218 C 0.71543 0.02682 0.16619 0.0
H1219 H 0.78231 0.96886 0.15568 0.0
H1220 H 0.71815 0.96961 0.15582 0.0
C1221 C 0.73495 0.05896 0.16993 0.0
C1222 C 0.19592 0.18724 0.43098 0.0
C1223 C 0.2205 0.21433 0.44053 0.0
H1224 H 0.1847 0.13061 0.42466 0.0
C1225 C 0.25463 0.20373 0.44839 0.0
H1226 H 0.16927 0.1941 0.42512 0.0
C1227 C 0.26344 0.16711 0.44816 0.0
C1228 C 0.2383 0.13997 0.4405 0.0
H1229 H 0.27422 0.22358 0.45625 0.0
H1230 H 0.28979 0.16002 0.45501 0.0
C1231 C 0.2046 0.15063 0.43125 0.0
C1232 C 0.18677 0.40426 0.53093 0.0
C1233 C 0.19888 0.39132 0.49914 0.0
H1234 H 0.17849 0.45009 0.56332 0.0
C1235 C 0.21088 0.41652 0.4745 0.0
H1236 H 0.17682 0.38568 0.55027 0.0
C1237 C 0.21312 0.45354 0.48246 0.0
C1238 C 0.20237 0.4664 0.51491 0.0
H1239 H 0.22003 0.40745 0.44961 0.0
H1240 H 0.2245 0.47188 0.46362 0.0
C1241 C 0.18758 0.44134 0.53832 0.0
C1242 C 0.02199 0.50301 0.84621 0.0
C1243 C 0.04129 0.49785 0.8765 0.0
H1244 H 0.97229 0.51249 0.82355 0.0
C1245 C 0.02415 0.50082 0.90851 0.0
H1246 H 0.03417 0.50048 0.82113 0.0
C1247 C 0.98852 0.50968 0.90989 0.0
C1248 C 0.96922 0.51347 0.87925 0.0
H1249 H 0.03831 0.49659 0.93228 0.0
H1250 H 0.97594 0.51271 0.93469 0.0
C1251 C 0.98639 0.50969 0.84757 0.0
C1252 C 0.68282 0.4395 0.04411 0.0
C1253 C 0.69725 0.46469 0.02066 0.0
H1254 H 0.67351 0.3838 0.05654 0.0
C1255 C 0.70854 0.45186 0.98838 0.0
H1256 H 0.67328 0.4482 0.06896 0.0
C1257 C 0.70725 0.41475 0.98069 0.0
C1258 C 0.69572 0.3895 0.00548 0.0
H1259 H 0.71967 0.47033 0.9695 0.0
H1260 H 0.7168 0.40569 0.95594 0.0
C1261 C 0.68306 0.4024 0.03706 0.0
C1262 C 0.98283 0.00593 0.15637 0.0
C1263 C 0.96499 1.00293 0.18793 0.0
H1264 H 0.03285 0.00911 0.13122 0.0
C1265 C 0.98406 0.00317 0.2188 0.0
H1266 H 0.96853 0.00645 0.13229 0.0
C1267 C 0.02032 0.00678 0.21826 0.0
C1268 C 0.0383 0.00911 0.18679 0.0
H1269 H 0.97086 1.00178 0.2435 0.0
H1270 H 0.03438 0.00657 0.2425 0.0
C1271 C 0.01939 0.00805 0.15577 0.0
C1272 C 0.27991 0.95676 0.51104 0.0
C1273 C 0.30284 0.97408 0.48753 0.0
H1274 H 0.26273 0.90642 0.53394 0.0
C1275 C 0.32898 0.95349 0.4721 0.0
H1276 H 0.2593 0.97161 0.52327 0.0
C1277 C 0.33013 0.9162 0.47742 0.0
C1278 C 0.30593 0.89859 0.49911 0.0
H1279 H 0.34722 0.96581 0.45405 0.0
H1280 H 0.3495 0.901 0.46378 0.0
C1281 C 0.2816 0.91936 0.51693 0.0
C1282 C 0.48409 0.46111 0.82861 0.0
C1283 C 0.46801 0.49483 0.82875 0.0
H1284 H 0.53226 0.43269 0.82873 0.0
C1285 C 0.48889 0.5262 0.83197 0.0
H1286 H 0.46866 0.43646 0.82566 0.0
C1287 C 0.52519 0.52392 0.83476 0.0
C1288 C 0.54136 0.49027 0.83326 0.0
H1289 H 0.47718 0.5525 0.83189 0.0
H1290 H 0.5407 0.54864 0.83645 0.0
C1291 C 0.52046 0.45889 0.8303 0.0
C1292 C 0.77974 0.91652 0.0131 0.0
C1293 C 0.80277 0.89511 0.9943 0.0
H1294 H 0.7599 0.96956 0.02132 0.0
C1295 C 0.82731 0.91225 0.97261 0.0
H1296 H 0.76077 0.90399 0.03028 0.0
C1297 C 0.82778 0.94982 0.96841 0.0
C1298 C 0.80288 0.9712 0.98489 0.0
H1299 H 0.84582 0.89657 0.95834 0.0
H1300 H 0.84624 0.96185 0.95041 0.0
C1301 C 0.77959 0.95416 0.00827 0.0
C1302 C 0.48376 1.0024 0.10911 0.0
C1303 C 0.465 1.00298 0.14023 0.0
H1304 H 0.53402 1.00261 0.08484 0.0
C1305 C 0.4835 1.00285 0.1715 0.0
H1306 H 0.47017 1.00184 0.08461 0.0
C1307 C 0.52001 1.00243 0.17165 0.0
C1308 C 0.53878 1.00222 0.14052 0.0
H1309 H 0.46981 1.00244 0.19593 0.0
H1310 H 0.53349 0.00313 0.19619 0.0
C1311 C 0.52025 1.00224 0.10924 0.0
C1312 C 0.37522 0.25607 0.23636 0.0
C1313 C 0.40619 0.26742 0.21961 0.0
H1314 H 0.35088 0.24129 0.28471 0.0
C1315 C 0.43674 0.27203 0.23924 0.0
H1316 H 0.35139 0.25186 0.22176 0.0
C1317 C 0.43678 0.26422 0.27441 0.0
C1318 C 0.40608 0.25264 0.29117 0.0
H1319 H 0.46117 0.28011 0.22715 0.0
H1320 H 0.46094 0.26762 0.28868 0.0
C1321 C 0.37498 0.24956 0.27214 0.0
C1322 C 0.15278 0.74787 0.25867 0.0
C1323 C 0.12326 0.7457 0.28011 0.0
H1324 H 0.17258 0.745 0.20688 0.0
C1325 C 0.0902 0.74083 0.26488 0.0
H1326 H 0.17851 0.75221 0.26965 0.0
C1327 C 0.08668 0.73852 0.22903 0.0
C1328 C 0.1162 0.74003 0.2076 0.0
H1329 H 0.06686 0.73987 0.28063 0.0
H1330 H 0.06087 0.73439 0.21814 0.0
C1331 C 0.14934 0.74432 0.22278 0.0
C1332 C 0.40908 0.2274 0.4887 0.0
C1333 C 0.38674 0.24865 0.46885 0.0
H1334 H 0.42866 0.21579 0.53948 0.0
C1335 C 0.36324 0.27105 0.48573 0.0
H1336 H 0.42757 0.21003 0.47626 0.0
C1337 C 0.36274 0.27297 0.52178 0.0
C1338 C 0.38702 0.25404 0.5415 0.0
H1339 H 0.34606 0.28797 0.47098 0.0
H1340 H 0.34464 0.29084 0.53414 0.0
C1341 C 0.40985 0.23078 0.52476 0.0
C1342 C 0.08365 0.70527 0.72614 0.0
C1343 C 0.09614 0.73442 0.70627 0.0
H1344 H 0.073 0.68488 0.77688 0.0
C1345 C 0.11001 0.76516 0.72325 0.0
H1346 H 0.07246 0.68147 0.71383 0.0
C1347 C 0.10926 0.7676 0.75935 0.0
C1348 C 0.09597 0.73876 0.77905 0.0
H1349 H 0.11943 0.78827 0.7086 0.0
H1350 H 0.11813 0.7923 0.77179 0.0
C1351 C 0.08407 0.70722 0.7622 0.0
C1352 C 0.06891 0.70376 0.97676 0.0
C1353 C 0.08835 0.72952 0.95783 0.0
H1354 H 0.05045 0.68581 0.02551 0.0
C1355 C 0.10692 0.7566 0.97607 0.0
H1356 H 0.0547 0.68208 0.96408 0.0
C1357 C 0.10623 0.75731 0.01243 0.0
C1358 C 0.08581 0.73188 0.03104 0.0
H1359 H 0.12212 0.77694 0.96232 0.0
H1360 H 0.12149 0.77778 0.02595 0.0
C1361 C 0.06667 0.7057 0.01252 0.0
C1362 C 0.60176 0.71242 0.27674 0.0
C1363 C 0.60802 0.74563 0.29346 0.0
H1364 H 0.5933 0.68516 0.22846 0.0
C1365 C 0.61564 0.77634 0.27357 0.0
H1366 H 0.59505 0.68846 0.29155 0.0
C1367 C 0.6158 0.77414 0.23752 0.0
C1368 C 0.60687 0.74152 0.22074 0.0
H1369 H 0.62003 0.80228 0.28586 0.0
H1370 H 0.62031 0.79865 0.22281 0.0
C1371 C 0.60057 0.71051 0.24068 0.0
C1372 C 0.37751 0.28654 0.02373 0.0
C1373 C 0.38822 0.25551 0.04138 0.0
H1374 H 0.3678 0.3109 0.97416 0.0
C1375 C 0.39705 0.2251 0.02189 0.0
H1376 H 0.37032 0.31039 0.03791 0.0
C1377 C 0.39809 0.22638 0.98612 0.0
C1378 C 0.38767 0.25705 0.96829 0.0
H1379 H 0.40426 0.20021 0.03412 0.0
H1380 H 0.40669 0.20289 0.97252 0.0
C1381 C 0.37641 0.28696 0.98735 0.0
C1382 C 0.26911 0.05463 0.65466 0.0
C1383 C 0.28713 0.02202 0.65337 0.0
H1384 H 0.21985 0.08045 0.65549 0.0
C1385 C 0.26776 0.98962 0.64921 0.0
H1386 H 0.28305 0.08021 0.6572 0.0
C1387 C 0.23112 0.99 0.64721 0.0
C1388 C 0.2134 0.02259 0.65071 0.0
H1389 H 0.28079 0.96405 0.64818 0.0
H1390 H 0.21664 0.96488 0.64355 0.0
C1391 C 0.23279 0.05482 0.65414 0.0
C1392 C 0.694 0.18479 0.93928 0.0
C1393 C 0.71858 0.21213 0.94807 0.0
H1394 H 0.68362 0.12826 0.93151 0.0
C1395 C 0.75338 0.20216 0.95347 0.0
H1396 H 0.66687 0.19114 0.93533 0.0
C1397 C 0.76299 0.16583 0.95128 0.0
C1398 C 0.73801 0.13839 0.94408 0.0
H1399 H 0.77299 0.22224 0.96072 0.0
H1400 H 0.78989 0.15916 0.95617 0.0
C1401 C 0.70351 0.14849 0.93755 0.0
C1402 C 0.75983 0.45979 0.31488 0.0
C1403 C 0.7827 0.47927 0.33673 0.0
H1404 H 0.70705 0.44465 0.30284 0.0
C1405 C 0.7687 0.49807 0.36479 0.0
H1406 H 0.76965 0.44547 0.29268 0.0
C1407 C 0.73259 0.4971 0.37093 0.0
C1408 C 0.70974 0.47816 0.34858 0.0
H1409 H 0.78561 0.51357 0.38189 0.0
H1410 H 0.72252 0.5116 0.3929 0.0
C1411 C 0.72382 0.45959 0.32048 0.0
C1412 C 0.24482 0.66546 0.53493 0.0
C1413 C 0.27096 0.63967 0.53874 0.0
H1414 H 0.23299 0.72157 0.52906 0.0
C1415 C 0.30568 0.65192 0.5425 0.0
H1416 H 0.21774 0.65695 0.53231 0.0
C1417 C 0.31424 0.6888 0.54177 0.0
C1418 C 0.28843 0.71467 0.53663 0.0
H1419 H 0.32643 0.63295 0.54608 0.0
H1420 H 0.34148 0.69688 0.54392 0.0
C1421 C 0.2535 0.70253 0.5335 0.0
C1422 C 0.23116 0.95231 0.16141 0.0
C1423 C 0.21388 0.98522 0.15859 0.0
H1424 H 0.2798 0.92586 0.16689 0.0
C1425 C 0.23397 0.01737 0.15618 0.0
H1426 H 0.21662 0.92698 0.16282 0.0
C1427 C 0.27053 0.01651 0.1577 0.0
C1428 C 0.28732 0.9837 0.16292 0.0
H1429 H 0.22148 0.04315 0.15406 0.0
H1430 H 0.28563 0.04145 0.15548 0.0
C1431 C 0.26734 0.95165 0.16433 0.0
C1432 C 0.79515 0.85863 0.4353 0.0
C1433 C 0.76156 0.86937 0.44476 0.0
H1434 H 0.83012 0.81503 0.42813 0.0
C1435 C 0.73621 0.84225 0.4519 0.0
H1436 H 0.8152 0.87863 0.42905 0.0
C1437 C 0.74474 0.80553 0.45138 0.0
C1438 C 0.77876 0.79482 0.44319 0.0
H1439 H 0.70992 0.84943 0.45889 0.0
H1440 H 0.72502 0.78566 0.45887 0.0
C1441 C 0.80354 0.82195 0.43422 0.0
C1442 C 0.7767 0.48503 0.84843 0.0
C1443 C 0.7913 0.51858 0.85794 0.0
H1444 H 0.73 0.45521 0.83501 0.0
C1445 C 0.76928 0.54757 0.86408 0.0
H1446 H 0.79331 0.46238 0.84348 0.0
C1447 C 0.73336 0.54381 0.85847 0.0
C1448 C 0.71878 0.51062 0.84779 0.0
H1449 H 0.77994 0.57353 0.87194 0.0
H1450 H 0.71709 0.56707 0.86158 0.0
C1451 C 0.74058 0.48094 0.84383 0.0
C1452 C 0.19583 0.32016 0.04467 0.0
C1453 C 0.22118 0.29462 0.03666 0.0
H1454 H 0.18416 0.37556 0.05282 0.0
C1455 C 0.25609 0.30671 0.03296 0.0
H1456 H 0.16865 0.31211 0.04756 0.0
C1457 C 0.26509 0.34361 0.03632 0.0
C1458 C 0.23922 0.36914 0.04264 0.0
H1459 H 0.27624 0.28791 0.02642 0.0
H1460 H 0.29205 0.35224 0.03298 0.0
C1461 C 0.20465 0.3568 0.04726 0.0
C1462 C 0.29489 0.5561 0.98886 0.0
C1463 C 0.30532 0.54327 0.02143 0.0
H1464 H 0.28746 0.60231 0.95622 0.0
C1465 C 0.31903 0.56846 0.04528 0.0
H1466 H 0.28431 0.53762 0.9697 0.0
C1467 C 0.31892 0.60555 0.03823 0.0
C1468 C 0.30714 0.61845 0.00632 0.0
H1469 H 0.32789 0.55978 0.07038 0.0
H1470 H 0.32785 0.62413 0.05799 0.0
C1471 C 0.29634 0.59322 0.98121 0.0
C1472 C 0.78831 0.55385 0.4827 0.0
C1473 C 0.80119 0.54138 0.51453 0.0
H1474 H 0.77852 0.59965 0.45022 0.0
C1475 C 0.81677 0.56683 0.537 0.0
H1476 H 0.77626 0.53516 0.46456 0.0
C1477 C 0.81617 0.60384 0.5296 0.0
C1478 C 0.80202 0.6164 0.49853 0.0
H1479 H 0.82751 0.55842 0.56145 0.0
H1480 H 0.82661 0.62264 0.54846 0.0
C1481 C 0.78926 0.59087 0.47457 0.0
C1482 C 0.17479 0.09485 0.97435 0.0
C1483 C 0.19926 0.1122 0.99596 0.0
H1484 H 0.15628 0.04513 0.95208 0.0
C1485 C 0.22261 0.091 0.0146 0.0
H1486 H 0.1561 0.11039 0.96013 0.0
C1487 C 0.22316 0.0534 0.00963 0.0
C1488 C 0.19997 0.03619 0.98627 0.0
H1489 H 0.24159 0.1037 0.03166 0.0
H1490 H 0.24309 0.0382 0.02252 0.0
C1491 C 0.1747 0.0573 0.97004 0.0
C1492 C 0.67057 0.09438 0.47862 0.0
C1493 C 0.69245 0.1111 0.50314 0.0
H1494 H 0.65509 0.04557 0.45292 0.0
C1495 C 0.71437 0.08945 0.52301 0.0
H1496 H 0.65305 0.11023 0.46328 0.0
C1497 C 0.71634 0.05217 0.51644 0.0
C1498 C 0.6958 0.03577 0.49036 0.0
H1499 H 0.7314 0.10165 0.54224 0.0
H1500 H 0.7353 0.03668 0.53043 0.0
C1501 C 0.67164 0.05716 0.47286 0.0
C1502 C 0.66266 0.74095 0.77349 0.0
C1503 C 0.63237 0.73727 0.79379 0.0
H1504 H 0.68419 0.7421 0.72223 0.0
C1505 C 0.59998 0.73249 0.77726 0.0
H1506 H 0.68792 0.74517 0.78553 0.0
C1507 C 0.59772 0.73278 0.74133 0.0
C1508 C 0.62788 0.73668 0.72102 0.0
H1509 H 0.57607 0.73027 0.79207 0.0
H1510 H 0.57232 0.72916 0.72943 0.0
C1511 C 0.66049 0.73989 0.73737 0.0
C1512 C 0.92742 0.23616 0.72299 0.0
C1513 C 0.90757 0.26315 0.70778 0.0
H1514 H 0.94347 0.21058 0.76951 0.0
C1515 C 0.88575 0.2838 0.72857 0.0
H1516 H 0.94414 0.21965 0.7073 0.0
C1517 C 0.88523 0.27859 0.7645 0.0
C1518 C 0.90631 0.25246 0.77999 0.0
H1519 H 0.8699 0.30446 0.71719 0.0
H1520 H 0.86943 0.29598 0.78022 0.0
C1521 C 0.9267 0.23074 0.75862 0.0
C1522 C 0.62456 0.72625 0.02591 0.0
C1523 C 0.61148 0.75629 0.04342 0.0
H1524 H 0.63585 0.70249 0.97649 0.0
C1525 C 0.59971 0.78551 0.0239 0.0
H1526 H 0.63399 0.70334 0.04016 0.0
C1527 C 0.5985 0.78389 0.98815 0.0
C1528 C 0.61145 0.75421 0.97047 0.0
H1529 H 0.59043 0.80963 0.03608 0.0
H1530 H 0.58787 0.80642 0.97446 0.0
C1531 C 0.62529 0.7256 0.98958 0.0
C1532 C 0.84405 0.25645 0.26134 0.0
C1533 C 0.87386 0.25954 0.28232 0.0
H1534 H 0.82352 0.25765 0.20975 0.0
C1535 C 0.90667 0.26411 0.26654 0.0
H1536 H 0.8185 0.25231 0.27279 0.0
C1537 C 0.90969 0.26528 0.2306 0.0
C1538 C 0.87987 0.26294 0.20961 0.0
H1539 H 0.93021 0.26577 0.28197 0.0
H1540 H 0.93532 0.26925 0.21927 0.0
C1541 C 0.84696 0.25892 0.22532 0.0
C1542 C 0.90602 0.29243 0.51155 0.0
C1543 C 0.88316 0.27149 0.53212 0.0
H1544 H 0.92504 0.3031 0.46025 0.0
C1545 C 0.85834 0.24869 0.51609 0.0
H1546 H 0.92583 0.30966 0.52337 0.0
C1547 C 0.85722 0.24581 0.48013 0.0
C1548 C 0.88184 0.26456 0.45975 0.0
H1549 H 0.84096 0.23176 0.53146 0.0
H1550 H 0.83856 0.22717 0.46837 0.0
C1551 C 0.90584 0.28841 0.47558 0.0
C1552 C 0.39966 0.27366 0.73751 0.0
C1553 C 0.36883 0.27202 0.718 0.0
H1554 H 0.42273 0.27486 0.78775 0.0
C1555 C 0.3366 0.27144 0.73525 0.0
H1556 H 0.42486 0.27508 0.72488 0.0
C1557 C 0.33534 0.27058 0.77144 0.0
C1558 C 0.36628 0.27206 0.79096 0.0
H1559 H 0.31245 0.27091 0.72074 0.0
H1560 H 0.31024 0.26825 0.78417 0.0
C1561 C 0.39839 0.2744 0.77354 0.0
C1562 C 0.61783 0.76249 0.52619 0.0
C1563 C 0.59591 0.73846 0.54484 0.0
H1564 H 0.63456 0.78118 0.476 0.0
C1565 C 0.57462 0.71407 0.52642 0.0
H1566 H 0.63477 0.78155 0.53966 0.0
C1567 C 0.57638 0.71217 0.49068 0.0
C1568 C 0.59743 0.73647 0.47169 0.0
H1569 H 0.55716 0.69536 0.53947 0.0
H1570 H 0.56063 0.69159 0.47815 0.0
C1571 C 0.61803 0.76203 0.48982 0.0
C1572 C 0.48313 0.51355 0.35619 0.0
C1573 C 0.46356 0.51651 0.38654 0.0
H1574 H 0.5328 0.50611 0.33315 0.0
C1575 C 0.48069 0.513 0.41848 0.0
H1576 H 0.47082 0.51621 0.3312 0.0
C1577 C 0.5166 0.50517 0.41964 0.0
C1578 C 0.53613 0.50315 0.38894 0.0
H1579 H 0.46625 0.51557 0.44233 0.0
H1580 H 0.52907 0.50102 0.44434 0.0
C1581 C 0.51891 0.50816 0.35738 0.0
C1582 C 0.4819 0.00365 0.71751 0.0
C1583 C 0.46326 0.00324 0.68633 0.0
H1584 H 0.53193 0.00562 0.74203 0.0
C1585 C 0.48182 0.00435 0.65506 0.0
H1586 H 0.46826 0.00357 0.74199 0.0
C1587 C 0.51847 0.00475 0.65508 0.0
C1588 C 0.53699 0.00588 0.68637 0.0
H1589 H 0.46799 0.00455 0.6307 0.0
H1590 H 0.53232 0.0045 0.63073 0.0
C1591 C 0.51832 0.00552 0.71753 0.0
C1592 C 0.0159 0.46734 0.33348 0.0
C1593 C 0.0361 0.49941 0.3339 0.0
H1594 H 0.96451 0.44321 0.33286 0.0
C1595 C 0.01895 0.53254 0.33525 0.0
H1596 H 0.02836 0.44147 0.33216 0.0
C1597 C 0.98244 0.5336 0.33475 0.0
C1598 C 0.96225 0.50156 0.33393 0.0
H1599 H 0.03375 0.55777 0.33511 0.0
H1600 H 0.96999 0.55951 0.33442 0.0
C1601 C 0.97936 0.46839 0.33401 0.0
C1602 C 0.01847 1.00081 0.58692 0.0
C1603 C 0.03736 1.0 0.61799 0.0
H1604 H 0.96796 1.00191 0.56292 0.0
C1605 C 0.01887 1.00035 0.6493 0.0
H1606 H 0.03201 1.00114 0.56239 0.0
C1607 C 0.98244 1.00132 0.64961 0.0
C1608 C 0.9635 1.00243 0.61861 0.0
H1609 H 0.03252 1.00039 0.67375 0.0
H1610 H 0.96914 1.00095 0.67425 0.0
C1611 C 0.98189 1.00179 0.58722 0.0
C1612 C 0.9219 0.2969 0.97787 0.0
C1613 C 0.90576 0.26851 0.95941 0.0
H1614 H 0.93848 0.31779 0.02611 0.0
C1615 C 0.89021 0.23989 0.9782 0.0
H1616 H 0.93336 0.32001 0.96489 0.0
C1617 C 0.89082 0.24015 0.01461 0.0
C1618 C 0.90848 0.26809 0.03265 0.0
H1619 H 0.87749 0.21756 0.96485 0.0
H1620 H 0.87793 0.21837 0.02861 0.0
C1621 C 0.9245 0.29592 0.0136 0.0
C1622 C 0.0971 0.71992 0.47351 0.0
C1623 C 0.11604 0.74823 0.45771 0.0
H1624 H 0.08098 0.69543 0.52136 0.0
C1625 C 0.13603 0.77204 0.47817 0.0
H1626 H 0.08158 0.70123 0.45808 0.0
C1627 C 0.13524 0.76915 0.51411 0.0
C1628 C 0.11541 0.74164 0.53014 0.0
H1629 H 0.15109 0.79385 0.46647 0.0
H1630 H 0.14905 0.78929 0.52946 0.0
C1631 C 0.09715 0.71635 0.50956 0.0
loop_
_geom_bond_atom_site_label_1
_geom_bond_atom_site_label_2
_geom_bond_distance
_geom_bond_site_symmetry_2
_ccdc_geom_bond_type
Co0 O1 2.216 . S
Co0 O2 2.091 . S
Co0 O4 2.004 . S
Co0 O10 2.021 . S
Co0 O12 2.137 . S
Co0 O13 2.244 . S
O1 Co0 2.216 . S
O1 C8 1.247 . S
O2 Co0 2.091 . S
O2 C8 1.261 . S
C3 O12 1.247 . S
C3 O13 1.272 . S
O4 Co0 2.004 . S
O4 C9 1.259 . S
Co5 O6 2.061 . S
Co5 O11 2.052 . S
Co5 O13 2.135 . S
O6 Co5 2.061 . S
O6 C9 1.235 . S
C7 O10 1.238 . S
C7 O11 1.241 . S
C8 O1 1.247 . S
C8 O2 1.261 . S
C9 O4 1.259 . S
C9 O6 1.235 . S
O10 Co0 2.021 . S
O10 C7 1.238 . S
O11 Co5 2.052 . S
O11 C7 1.241 . S
O12 Co0 2.137 . S
O12 C3 1.247 . S
O13 Co0 2.244 . S
O13 C3 1.272 . S
O13 Co5 2.135 . S
Co14 O15 2.216 . S
Co14 O16 2.091 . S
Co14 O18 2.004 . S
Co14 O24 2.021 . S
Co14 O26 2.137 . S
Co14 O27 2.244 . S
O15 Co14 2.216 . S
O15 C22 1.247 . S
O16 Co14 2.091 . S
O16 C22 1.261 . S
C17 O26 1.247 . S
C17 O27 1.272 . S
O18 Co14 2.004 . S
O18 C23 1.259 . S
Co19 O20 2.061 . S
Co19 O25 2.052 . S
Co19 O27 2.135 . S
O20 Co19 2.061 . S
O20 C23 1.235 . S
C21 O24 1.238 . S
C21 O25 1.241 . S
C22 O15 1.247 . S
C22 O16 1.261 . S
C23 O18 1.259 . S
C23 O20 1.235 . S
O24 Co14 2.021 . S
O24 C21 1.238 . S
O25 Co19 2.052 . S
O25 C21 1.241 . S
O26 Co14 2.137 . S
O26 C17 1.247 . S
O27 Co14 2.244 . S
O27 C17 1.272 . S
O27 Co19 2.135 . S
Co28 O29 2.216 . S
Co28 O30 2.091 . S
Co28 O32 2.004 . S
Co28 O38 2.021 . S
Co28 O40 2.137 . S
Co28 O41 2.244 . S
O29 Co28 2.216 . S
O29 C36 1.247 . S
O30 Co28 2.091 . S
O30 C36 1.261 . S
C31 O40 1.247 . S
C31 O41 1.272 . S
O32 Co28 2.004 . S
O32 C37 1.259 . S
Co33 O34 2.061 . S
Co33 O39 2.052 . S
Co33 O41 2.135 . S
O34 Co33 2.061 . S
O34 C37 1.235 . S
C35 O38 1.238 . S
C35 O39 1.241 . S
C36 O29 1.247 . S
C36 O30 1.261 . S
C37 O32 1.259 . S
C37 O34 1.235 . S
O38 Co28 2.021 . S
O38 C35 1.238 . S
O39 Co33 2.052 . S
O39 C35 1.241 . S
O40 Co28 2.137 . S
O40 C31 1.247 . S
O41 Co28 2.244 . S
O41 C31 1.272 . S
O41 Co33 2.135 . S
Co42 O43 2.216 . S
Co42 O44 2.091 . S
Co42 O46 2.004 1_565 S
Co42 O52 2.021 . S
Co42 O54 2.137 1_565 S
Co42 O55 2.244 1_565 S
O43 Co42 2.216 . S
O43 C50 1.247 . S
O44 Co42 2.091 . S
O44 C50 1.261 . S
C45 O54 1.247 . S
C45 O55 1.272 . S
O46 Co42 2.004 1_545 S
O46 C51 1.259 . S
Co47 O48 2.061 . S
Co47 O53 2.052 . S
Co47 O55 2.135 . S
O48 Co47 2.061 . S
O48 C51 1.235 . S
C49 O52 1.238 . S
C49 O53 1.241 1_565 S
C50 O43 1.247 . S
C50 O44 1.261 . S
C51 O46 1.259 . S
C51 O48 1.235 . S
O52 Co42 2.021 . S
O52 C49 1.238 . S
O53 Co47 2.052 . S
O53 C49 1.241 1_545 S
O54 Co42 2.137 1_545 S
O54 C45 1.247 . S
O55 Co42 2.244 1_545 S
O55 C45 1.272 . S
O55 Co47 2.135 . S
Co56 O57 2.216 . S
Co56 O58 2.091 . S
Co56 O60 2.004 . S
Co56 O66 2.021 . S
Co56 O68 2.137 . S
Co56 O69 2.244 . S
O57 Co56 2.216 . S
O57 C64 1.247 . S
O58 Co56 2.091 . S
O58 C64 1.261 . S
C59 O68 1.247 . S
C59 O69 1.272 . S
O60 Co56 2.004 . S
O60 C65 1.259 . S
Co61 O62 2.061 . S
Co61 O67 2.052 . S
Co61 O69 2.135 . S
O62 Co61 2.061 . S
O62 C65 1.235 . S
C63 O66 1.238 . S
C63 O67 1.241 . S
C64 O57 1.247 . S
C64 O58 1.261 . S
C65 O60 1.259 . S
C65 O62 1.235 . S
O66 Co56 2.021 . S
O66 C63 1.238 . S
O67 Co61 2.052 . S
O67 C63 1.241 . S
O68 Co56 2.137 . S
O68 C59 1.247 . S
O69 Co56 2.244 . S
O69 C59 1.272 . S
O69 Co61 2.135 . S
Co70 O71 2.216 . S
Co70 O72 2.091 . S
Co70 O74 2.004 . S
Co70 O80 2.021 . S
Co70 O82 2.137 . S
Co70 O83 2.244 . S
O71 Co70 2.216 . S
O71 C78 1.247 . S
O72 Co70 2.091 . S
O72 C78 1.261 . S
C73 O82 1.247 . S
C73 O83 1.272 . S
O74 Co70 2.004 . S
O74 C79 1.259 . S
Co75 O76 2.061 . S
Co75 O81 2.052 . S
Co75 O83 2.135 . S
O76 Co75 2.061 . S
O76 C79 1.235 . S
C77 O80 1.238 . S
C77 O81 1.241 . S
C78 O71 1.247 . S
C78 O72 1.261 . S
C79 O74 1.259 . S
C79 O76 1.235 . S
O80 Co70 2.021 . S
O80 C77 1.238 . S
O81 Co75 2.052 . S
O81 C77 1.241 . S
O82 Co70 2.137 . S
O82 C73 1.247 . S
O83 Co70 2.244 . S
O83 C73 1.272 . S
O83 Co75 2.135 . S
Co84 O85 2.216 1_565 S
Co84 O86 2.091 . S
Co84 O88 2.004 . S
Co84 O94 2.021 1_565 S
Co84 O96 2.137 . S
Co84 O97 2.244 1_565 S
O85 Co84 2.216 1_545 S
O85 C92 1.247 1_545 S
O86 Co84 2.091 . S
O86 C92 1.261 . S
C87 O96 1.241 1_545 S
C87 O97 1.276 . S
O88 Co84 2.004 . S
O88 C93 1.259 . S
Co89 O90 2.061 . S
Co89 O95 2.052 . S
Co89 O97 2.135 . S
O90 Co89 2.061 . S
O90 C93 1.235 1_545 S
C91 O94 1.238 . S
C91 O95 1.241 . S
C92 O85 1.247 1_565 S
C92 O86 1.261 . S
C93 O88 1.259 . S
C93 O90 1.235 1_565 S
O94 Co84 2.021 1_545 S
O94 C91 1.238 . S
O95 Co89 2.052 . S
O95 C91 1.241 . S
O96 Co84 2.137 . S
O96 C87 1.241 1_565 S
O97 Co84 2.244 1_545 S
O97 C87 1.276 . S
O97 Co89 2.135 . S
Co98 O99 2.216 . S
Co98 O100 2.091 . S
Co98 O102 2.004 . S
Co98 O108 2.021 . S
Co98 O110 2.137 . S
Co98 O111 2.244 . S
O99 Co98 2.216 . S
O99 C106 1.247 . S
O100 Co98 2.091 . S
O100 C106 1.261 . S
C101 O110 1.247 . S
C101 O111 1.272 . S
O102 Co98 2.004 . S
O102 C107 1.259 . S
Co103 O104 2.061 . S
Co103 O109 2.052 . S
Co103 O111 2.135 . S
O104 Co103 2.061 . S
O104 C107 1.235 . S
C105 O108 1.238 . S
C105 O109 1.241 . S
C106 O99 1.247 . S
C106 O100 1.261 . S
C107 O102 1.259 . S
C107 O104 1.235 . S
O108 Co98 2.021 . S
O108 C105 1.238 . S
O109 Co103 2.052 . S
O109 C105 1.241 . S
O110 Co98 2.137 . S
O110 C101 1.247 . S
O111 Co98 2.244 . S
O111 C101 1.272 . S
O111 Co103 2.135 . S
Co112 O113 2.216 . S
Co112 O114 2.091 . S
Co112 O116 2.004 1_545 S
Co112 O122 2.021 . S
Co112 O124 2.137 1_545 S
Co112 O125 2.244 1_545 S
O113 Co112 2.216 . S
O113 C120 1.247 . S
O114 Co112 2.091 . S
O114 C120 1.261 . S
C115 O124 1.247 . S
C115 O125 1.272 . S
O116 Co112 2.004 1_565 S
O116 C121 1.259 . S
Co117 O118 2.061 . S
Co117 O123 2.052 . S
Co117 O125 2.135 . S
O118 Co117 2.061 . S
O118 C121 1.235 . S
C119 O122 1.238 . S
C119 O123 1.241 1_545 S
C120 O113 1.247 . S
C120 O114 1.261 . S
C121 O116 1.259 . S
C121 O118 1.235 . S
O122 Co112 2.021 . S
O122 C119 1.238 . S
O123 Co117 2.052 . S
O123 C119 1.241 1_565 S
O124 Co112 2.137 1_565 S
O124 C115 1.247 . S
O125 Co112 2.244 1_565 S
O125 C115 1.272 . S
O125 Co117 2.135 . S
Co126 O127 2.216 . S
Co126 O128 2.091 . S
Co126 O130 2.004 . S
Co126 O136 2.021 . S
Co126 O138 2.137 . S
Co126 O139 2.244 . S
O127 Co126 2.216 . S
O127 C134 1.247 . S
O128 Co126 2.091 . S
O128 C134 1.261 . S
C129 O138 1.247 . S
C129 O139 1.272 . S
O130 Co126 2.004 . S
O130 C135 1.259 . S
Co131 O132 2.061 . S
Co131 O137 2.052 . S
Co131 O139 2.135 . S
O132 Co131 2.061 . S
O132 C135 1.235 . S
C133 O136 1.238 . S
C133 O137 1.241 . S
C134 O127 1.247 . S
C134 O128 1.261 . S
C135 O130 1.259 . S
C135 O132 1.235 . S
O136 Co126 2.021 . S
O136 C133 1.238 . S
O137 Co131 2.052 . S
O137 C133 1.241 . S
O138 Co126 2.137 . S
O138 C129 1.247 . S
O139 Co126 2.244 . S
O139 C129 1.272 . S
O139 Co131 2.135 . S
Co140 O141 2.216 . S
Co140 O142 2.091 . S
Co140 O144 2.004 . S
Co140 O150 2.021 1_554 S
Co140 O152 2.137 . S
Co140 O153 2.244 1_554 S
O141 Co140 2.216 . S
O141 C148 1.247 . S
O142 Co140 2.091 . S
O142 C148 1.261 . S
C143 O152 1.247 1_556 S
C143 O153 1.272 . S
O144 Co140 2.004 . S
O144 C149 1.259 1_554 S
Co145 O146 2.061 . S
Co145 O151 2.052 . S
Co145 O153 2.135 . S
O146 Co145 2.061 . S
O146 C149 1.235 . S
C147 O150 1.238 . S
C147 O151 1.241 . S
C148 O141 1.247 . S
C148 O142 1.261 . S
C149 O144 1.259 1_556 S
C149 O146 1.235 . S
O150 Co140 2.021 1_556 S
O150 C147 1.238 . S
O151 Co145 2.052 . S
O151 C147 1.241 . S
O152 Co140 2.137 . S
O152 C143 1.247 1_554 S
O153 Co140 2.244 1_556 S
O153 C143 1.272 . S
O153 Co145 2.135 . S
Co154 O155 2.216 . S
Co154 O156 2.091 . S
Co154 O158 2.004 . S
Co154 O164 2.021 . S
Co154 O166 2.137 . S
Co154 O167 2.244 . S
O155 Co154 2.216 . S
O155 C162 1.247 . S
O156 Co154 2.091 . S
O156 C162 1.261 . S
C157 O166 1.247 . S
C157 O167 1.272 . S
O158 Co154 2.004 . S
O158 C163 1.259 . S
Co159 O160 2.061 . S
Co159 O165 2.052 . S
Co159 O167 2.135 . S
O160 Co159 2.061 . S
O160 C163 1.235 . S
C161 O164 1.238 . S
C161 O165 1.241 . S
C162 O155 1.247 . S
C162 O156 1.261 . S
C163 O158 1.259 . S
C163 O160 1.235 . S
O164 Co154 2.021 . S
O164 C161 1.238 . S
O165 Co159 2.052 . S
O165 C161 1.241 . S
O166 Co154 2.137 . S
O166 C157 1.247 . S
O167 Co154 2.244 . S
O167 C157 1.272 . S
O167 Co159 2.135 . S
Co168 O169 2.216 . S
Co168 O170 2.091 . S
Co168 O172 2.004 . S
Co168 O178 2.021 . S
Co168 O180 2.137 . S
Co168 O181 2.244 . S
O169 Co168 2.216 . S
O169 C176 1.247 . S
O170 Co168 2.091 . S
O170 C176 1.261 . S
C171 O180 1.247 . S
C171 O181 1.272 . S
O172 Co168 2.004 . S
O172 C177 1.259 . S
Co173 O174 2.061 . S
Co173 O179 2.052 . S
Co173 O181 2.135 . S
O174 Co173 2.061 . S
O174 C177 1.235 . S
C175 O178 1.238 . S
C175 O179 1.241 . S
C176 O169 1.247 . S
C176 O170 1.261 . S
C177 O172 1.259 . S
C177 O174 1.235 . S
O178 Co168 2.021 . S
O178 C175 1.238 . S
O179 Co173 2.052 . S
O179 C175 1.241 . S
O180 Co168 2.137 . S
O180 C171 1.247 . S
O181 Co168 2.244 . S
O181 C171 1.272 . S
O181 Co173 2.135 . S
Co182 O183 2.216 . S
Co182 O184 2.091 . S
Co182 O186 2.004 . S
Co182 O192 2.021 . S
Co182 O194 2.137 . S
Co182 O195 2.244 . S
O183 Co182 2.216 . S
O183 C190 1.247 . S
O184 Co182 2.091 . S
O184 C190 1.261 . S
C185 O194 1.247 . S
C185 O195 1.272 . S
O186 Co182 2.004 . S
O186 C191 1.259 . S
Co187 O188 2.061 . S
Co187 O193 2.052 . S
Co187 O195 2.135 . S
O188 Co187 2.061 . S
O188 C191 1.235 . S
C189 O192 1.238 . S
C189 O193 1.241 . S
C190 O183 1.247 . S
C190 O184 1.261 . S
C191 O186 1.259 . S
C191 O188 1.235 . S
O192 Co182 2.021 . S
O192 C189 1.238 . S
O193 Co187 2.052 . S
O193 C189 1.241 . S
O194 Co182 2.137 . S
O194 C185 1.247 . S
O195 Co182 2.244 . S
O195 C185 1.272 . S
O195 Co187 2.135 . S
Co196 O197 2.216 . S
Co196 O198 2.091 . S
Co196 O200 2.004 . S
Co196 O206 2.021 . S
Co196 O208 2.137 . S
Co196 O209 2.244 . S
O197 Co196 2.216 . S
O197 C204 1.247 . S
O198 Co196 2.091 . S
O198 C204 1.261 . S
C199 O208 1.247 . S
C199 O209 1.272 . S
O200 Co196 2.004 . S
O200 C205 1.259 . S
Co201 O202 2.061 . S
Co201 O207 2.052 . S
Co201 O209 2.135 . S
O202 Co201 2.061 . S
O202 C205 1.235 . S
C203 O206 1.238 . S
C203 O207 1.241 . S
C204 O197 1.247 . S
C204 O198 1.261 . S
C205 O200 1.259 . S
C205 O202 1.235 . S
O206 Co196 2.021 . S
O206 C203 1.238 . S
O207 Co201 2.052 . S
O207 C203 1.241 . S
O208 Co196 2.137 . S
O208 C199 1.247 . S
O209 Co196 2.244 . S
O209 C199 1.272 . S
O209 Co201 2.135 . S
Co210 O211 2.216 . S
Co210 O212 2.091 . S
Co210 O214 2.004 1_455 S
Co210 O220 2.021 1_455 S
Co210 O222 2.137 . S
Co210 O223 2.244 . S
O211 Co210 2.216 . S
O211 C218 1.247 . S
O212 Co210 2.091 . S
O212 C218 1.261 . S
C213 O222 1.247 . S
C213 O223 1.272 . S
O214 Co210 2.004 1_655 S
O214 C219 1.259 . S
Co215 O216 2.061 . S
Co215 O221 2.052 . S
Co215 O223 2.135 1_655 S
O216 Co215 2.061 . S
O216 C219 1.235 . S
C217 O220 1.238 . S
C217 O221 1.241 . S
C218 O211 1.247 . S
C218 O212 1.261 . S
C219 O214 1.259 . S
C219 O216 1.235 . S
O220 Co210 2.021 1_655 S
O220 C217 1.238 . S
O221 Co215 2.052 . S
O221 C217 1.241 . S
O222 Co210 2.137 . S
O222 C213 1.247 . S
O223 Co210 2.244 . S
O223 C213 1.272 . S
O223 Co215 2.135 1_455 S
Co224 O225 2.216 . S
Co224 O226 2.091 . S
Co224 O228 2.004 . S
Co224 O234 2.021 . S
Co224 O236 2.137 . S
Co224 O237 2.244 . S
O225 Co224 2.216 . S
O225 C232 1.247 . S
O226 Co224 2.091 . S
O226 C232 1.261 . S
C227 O236 1.247 . S
C227 O237 1.272 . S
O228 Co224 2.004 . S
O228 C233 1.259 . S
Co229 O230 2.061 . S
Co229 O235 2.052 . S
Co229 O237 2.135 . S
O230 Co229 2.061 . S
O230 C233 1.235 . S
C231 O234 1.238 . S
C231 O235 1.241 . S
C232 O225 1.247 . S
C232 O226 1.261 . S
C233 O228 1.259 . S
C233 O230 1.235 . S
O234 Co224 2.021 . S
O234 C231 1.238 . S
O235 Co229 2.052 . S
O235 C231 1.241 . S
O236 Co224 2.137 . S
O236 C227 1.247 . S
O237 Co224 2.244 . S
O237 C227 1.272 . S
O237 Co229 2.135 . S
Co238 O239 2.216 . S
Co238 O240 2.091 . S
Co238 O242 2.004 . S
Co238 O248 2.021 . S
Co238 O250 2.137 . S
Co238 O251 2.244 . S
O239 Co238 2.216 . S
O239 C246 1.247 . S
O240 Co238 2.091 . S
O240 C246 1.261 . S
C241 O250 1.247 . S
C241 O251 1.272 . S
O242 Co238 2.004 . S
O242 C247 1.259 . S
Co243 O244 2.061 . S
Co243 O249 2.052 . S
Co243 O251 2.135 . S
O244 Co243 2.061 . S
O244 C247 1.235 . S
C245 O248 1.238 . S
C245 O249 1.241 . S
C246 O239 1.247 . S
C246 O240 1.261 . S
C247 O242 1.259 . S
C247 O244 1.235 . S
O248 Co238 2.021 . S
O248 C245 1.238 . S
O249 Co243 2.052 . S
O249 C245 1.241 . S
O250 Co238 2.137 . S
O250 C241 1.247 . S
O251 Co238 2.244 . S
O251 C241 1.272 . S
O251 Co243 2.135 . S
Co252 O253 2.216 . S
Co252 O254 2.091 . S
Co252 O256 2.004 . S
Co252 O262 2.021 . S
Co252 O264 2.137 . S
Co252 O265 2.244 . S
O253 Co252 2.216 . S
O253 C260 1.247 . S
O254 Co252 2.091 . S
O254 C260 1.261 . S
C255 O264 1.247 . S
C255 O265 1.272 . S
O256 Co252 2.004 . S
O256 C261 1.259 . S
Co257 O258 2.061 . S
Co257 O263 2.052 . S
Co257 O265 2.135 . S
O258 Co257 2.061 . S
O258 C261 1.235 . S
C259 O262 1.238 . S
C259 O263 1.241 . S
C260 O253 1.247 . S
C260 O254 1.261 . S
C261 O256 1.259 . S
C261 O258 1.235 . S
O262 Co252 2.021 . S
O262 C259 1.238 . S
O263 Co257 2.052 . S
O263 C259 1.241 . S
O264 Co252 2.137 . S
O264 C255 1.247 . S
O265 Co252 2.244 . S
O265 C255 1.272 . S
O265 Co257 2.135 . S
Co266 O267 2.216 . S
Co266 O268 2.091 . S
Co266 O270 2.004 . S
Co266 O276 2.021 . S
Co266 O278 2.137 . S
Co266 O279 2.244 . S
O267 Co266 2.216 . S
O267 C274 1.247 . S
O268 Co266 2.091 . S
O268 C274 1.261 . S
C269 O278 1.247 . S
C269 O279 1.272 . S
O270 Co266 2.004 . S
O270 C275 1.259 . S
Co271 O272 2.061 . S
Co271 O277 2.052 . S
Co271 O279 2.135 . S
O272 Co271 2.061 . S
O272 C275 1.235 . S
C273 O276 1.238 . S
C273 O277 1.241 . S
C274 O267 1.247 . S
C274 O268 1.261 . S
C275 O270 1.259 . S
C275 O272 1.235 . S
O276 Co266 2.021 . S
O276 C273 1.238 . S
O277 Co271 2.052 . S
O277 C273 1.241 . S
O278 Co266 2.137 . S
O278 C269 1.247 . S
O279 Co266 2.244 . S
O279 C269 1.272 . S
O279 Co271 2.135 . S
Co280 O281 2.216 . S
Co280 O282 2.091 . S
Co280 O284 2.004 . S
Co280 O290 2.021 . S
Co280 O292 2.137 . S
Co280 O293 2.244 . S
O281 Co280 2.216 . S
O281 C288 1.247 . S
O282 Co280 2.091 . S
O282 C288 1.261 . S
C283 O292 1.247 . S
C283 O293 1.272 . S
O284 Co280 2.004 . S
O284 C289 1.259 . S
Co285 O286 2.061 . S
Co285 O291 2.052 . S
Co285 O293 2.135 . S
O286 Co285 2.061 . S
O286 C289 1.235 . S
C287 O290 1.238 . S
C287 O291 1.241 . S
C288 O281 1.247 . S
C288 O282 1.261 . S
C289 O284 1.259 . S
C289 O286 1.235 . S
O290 Co280 2.021 . S
O290 C287 1.238 . S
O291 Co285 2.052 . S
O291 C287 1.241 . S
O292 Co280 2.137 . S
O292 C283 1.247 . S
O293 Co280 2.244 . S
O293 C283 1.272 . S
O293 Co285 2.135 . S
Co294 O295 2.216 . S
Co294 O296 2.091 . S
Co294 O298 2.004 1_545 S
Co294 O304 2.021 . S
Co294 O306 2.137 1_545 S
Co294 O307 2.244 1_545 S
O295 Co294 2.216 . S
O295 C302 1.247 . S
O296 Co294 2.091 . S
O296 C302 1.261 . S
C297 O306 1.247 . S
C297 O307 1.272 . S
O298 Co294 2.004 1_565 S
O298 C303 1.259 . S
Co299 O300 2.061 . S
Co299 O305 2.052 . S
Co299 O307 2.135 . S
O300 Co299 2.061 . S
O300 C303 1.235 . S
C301 O304 1.238 . S
C301 O305 1.241 1_545 S
C302 O295 1.247 . S
C302 O296 1.261 . S
C303 O298 1.259 . S
C303 O300 1.235 . S
O304 Co294 2.021 . S
O304 C301 1.238 . S
O305 Co299 2.052 . S
O305 C301 1.241 1_565 S
O306 Co294 2.137 1_565 S
O306 C297 1.247 . S
O307 Co294 2.244 1_565 S
O307 C297 1.272 . S
O307 Co299 2.135 . S
Co308 O309 2.216 . S
Co308 O310 2.091 . S
Co308 O312 2.004 . S
Co308 O318 2.021 . S
Co308 O320 2.137 . S
Co308 O321 2.244 . S
O309 Co308 2.216 . S
O309 C316 1.247 . S
O310 Co308 2.091 . S
O310 C316 1.261 . S
C311 O320 1.247 . S
C311 O321 1.272 . S
O312 Co308 2.004 . S
O312 C317 1.259 . S
Co313 O314 2.061 . S
Co313 O319 2.052 . S
Co313 O321 2.135 . S
O314 Co313 2.061 . S
O314 C317 1.235 . S
C315 O318 1.238 . S
C315 O319 1.241 . S
C316 O309 1.247 . S
C316 O310 1.261 . S
C317 O312 1.259 . S
C317 O314 1.235 . S
O318 Co308 2.021 . S
O318 C315 1.238 . S
O319 Co313 2.052 . S
O319 C315 1.241 . S
O320 Co308 2.137 . S
O320 C311 1.247 . S
O321 Co308 2.244 . S
O321 C311 1.272 . S
O321 Co313 2.135 . S
Co322 O323 2.216 . S
Co322 O324 2.091 . S
Co322 O326 2.004 . S
Co322 O332 2.021 . S
Co322 O334 2.137 . S
Co322 O335 2.244 . S
O323 Co322 2.216 . S
O323 C330 1.247 . S
O324 Co322 2.091 . S
O324 C330 1.261 . S
C325 O334 1.247 . S
C325 O335 1.272 . S
O326 Co322 2.004 . S
O326 C331 1.259 . S
Co327 O328 2.061 . S
Co327 O333 2.052 . S
Co327 O335 2.135 . S
O328 Co327 2.061 . S
O328 C331 1.235 . S
C329 O332 1.238 . S
C329 O333 1.241 . S
C330 O323 1.247 . S
C330 O324 1.261 . S
C331 O326 1.259 . S
C331 O328 1.235 . S
O332 Co322 2.021 . S
O332 C329 1.238 . S
O333 Co327 2.052 . S
O333 C329 1.241 . S
O334 Co322 2.137 . S
O334 C325 1.247 . S
O335 Co322 2.244 . S
O335 C325 1.272 . S
O335 Co327 2.135 . S
Co336 O337 2.216 1_545 S
Co336 O338 2.091 . S
Co336 O340 2.004 . S
Co336 O346 2.021 1_545 S
Co336 O348 2.137 . S
Co336 O349 2.244 1_545 S
O337 Co336 2.216 1_565 S
O337 C344 1.247 1_565 S
O338 Co336 2.091 . S
O338 C344 1.261 . S
C339 O348 1.241 1_565 S
C339 O349 1.276 . S
O340 Co336 2.004 . S
O340 C345 1.259 . S
Co341 O342 2.061 . S
Co341 O347 2.052 . S
Co341 O349 2.135 . S
O342 Co341 2.061 . S
O342 C345 1.235 1_565 S
C343 O346 1.238 . S
C343 O347 1.241 . S
C344 O337 1.247 1_545 S
C344 O338 1.261 . S
C345 O340 1.259 . S
C345 O342 1.235 1_545 S
O346 Co336 2.021 1_565 S
O346 C343 1.238 . S
O347 Co341 2.052 . S
O347 C343 1.241 . S
O348 Co336 2.137 . S
O348 C339 1.241 1_545 S
O349 Co336 2.244 1_565 S
O349 C339 1.276 . S
O349 Co341 2.135 . S
Co350 O351 2.216 . S
Co350 O352 2.091 . S
Co350 O354 2.004 . S
Co350 O360 2.021 . S
Co350 O362 2.137 . S
Co350 O363 2.244 . S
O351 Co350 2.216 . S
O351 C358 1.247 . S
O352 Co350 2.091 . S
O352 C358 1.261 . S
C353 O362 1.247 . S
C353 O363 1.272 . S
O354 Co350 2.004 . S
O354 C359 1.259 . S
Co355 O356 2.061 . S
Co355 O361 2.052 . S
Co355 O363 2.135 . S
O356 Co355 2.061 . S
O356 C359 1.235 . S
C357 O360 1.238 . S
C357 O361 1.241 . S
C358 O351 1.247 . S
C358 O352 1.261 . S
C359 O354 1.259 . S
C359 O356 1.235 . S
O360 Co350 2.021 . S
O360 C357 1.238 . S
O361 Co355 2.052 . S
O361 C357 1.241 . S
O362 Co350 2.137 . S
O362 C353 1.247 . S
O363 Co350 2.244 . S
O363 C353 1.272 . S
O363 Co355 2.135 . S
Co364 O365 2.216 . S
Co364 O366 2.091 . S
Co364 O368 2.004 . S
Co364 O374 2.021 . S
Co364 O376 2.137 . S
Co364 O377 2.244 . S
O365 Co364 2.216 . S
O365 C372 1.247 . S
O366 Co364 2.091 . S
O366 C372 1.261 . S
C367 O376 1.247 . S
C367 O377 1.272 . S
O368 Co364 2.004 . S
O368 C373 1.259 . S
Co369 O370 2.061 . S
Co369 O375 2.052 . S
Co369 O377 2.135 . S
O370 Co369 2.061 . S
O370 C373 1.235 . S
C371 O374 1.238 . S
C371 O375 1.241 . S
C372 O365 1.247 . S
C372 O366 1.261 . S
C373 O368 1.259 . S
C373 O370 1.235 . S
O374 Co364 2.021 . S
O374 C371 1.238 . S
O375 Co369 2.052 . S
O375 C371 1.241 . S
O376 Co364 2.137 . S
O376 C367 1.247 . S
O377 Co364 2.244 . S
O377 C367 1.272 . S
O377 Co369 2.135 . S
Co378 O379 2.216 . S
Co378 O380 2.091 . S
Co378 O382 2.004 . S
Co378 O388 2.021 . S
Co378 O390 2.137 . S
Co378 O391 2.244 . S
O379 Co378 2.216 . S
O379 C386 1.247 . S
O380 Co378 2.091 . S
O380 C386 1.261 . S
C381 O390 1.247 . S
C381 O391 1.272 . S
O382 Co378 2.004 . S
O382 C387 1.259 . S
Co383 O384 2.061 . S
Co383 O389 2.052 . S
Co383 O391 2.135 . S
O384 Co383 2.061 . S
O384 C387 1.235 . S
C385 O388 1.238 . S
C385 O389 1.241 . S
C386 O379 1.247 . S
C386 O380 1.261 . S
C387 O382 1.259 . S
C387 O384 1.235 . S
O388 Co378 2.021 . S
O388 C385 1.238 . S
O389 Co383 2.052 . S
O389 C385 1.241 . S
O390 Co378 2.137 . S
O390 C381 1.247 . S
O391 Co378 2.244 . S
O391 C381 1.272 . S
O391 Co383 2.135 . S
Co392 O393 2.216 . S
Co392 O394 2.091 . S
Co392 O396 2.004 . S
Co392 O402 2.021 1_554 S
Co392 O404 2.137 . S
Co392 O405 2.244 1_554 S
O393 Co392 2.216 . S
O393 C400 1.247 . S
O394 Co392 2.091 . S
O394 C400 1.261 . S
C395 O404 1.247 1_556 S
C395 O405 1.272 . S
O396 Co392 2.004 . S
O396 C401 1.259 1_554 S
Co397 O398 2.061 . S
Co397 O403 2.052 . S
Co397 O405 2.135 . S
O398 Co397 2.061 . S
O398 C401 1.235 . S
C399 O402 1.238 . S
C399 O403 1.241 . S
C400 O393 1.247 . S
C400 O394 1.261 . S
C401 O396 1.259 1_556 S
C401 O398 1.235 . S
O402 Co392 2.021 1_556 S
O402 C399 1.238 . S
O403 Co397 2.052 . S
O403 C399 1.241 . S
O404 Co392 2.137 . S
O404 C395 1.247 1_554 S
O405 Co392 2.244 1_556 S
O405 C395 1.272 . S
O405 Co397 2.135 . S
Co406 O407 2.216 . S
Co406 O408 2.091 . S
Co406 O410 2.004 . S
Co406 O416 2.021 . S
Co406 O418 2.137 . S
Co406 O419 2.244 . S
O407 Co406 2.216 . S
O407 C414 1.247 . S
O408 Co406 2.091 . S
O408 C414 1.261 . S
C409 O418 1.247 . S
C409 O419 1.272 . S
O410 Co406 2.004 . S
O410 C415 1.259 . S
Co411 O412 2.061 . S
Co411 O417 2.052 . S
Co411 O419 2.135 . S
O412 Co411 2.061 . S
O412 C415 1.235 . S
C413 O416 1.238 . S
C413 O417 1.241 . S
C414 O407 1.247 . S
C414 O408 1.261 . S
C415 O410 1.259 . S
C415 O412 1.235 . S
O416 Co406 2.021 . S
O416 C413 1.238 . S
O417 Co411 2.052 . S
O417 C413 1.241 . S
O418 Co406 2.137 . S
O418 C409 1.247 . S
O419 Co406 2.244 . S
O419 C409 1.272 . S
O419 Co411 2.135 . S
Co420 O421 2.216 . S
Co420 O422 2.091 . S
Co420 O424 2.004 1_565 S
Co420 O430 2.021 . S
Co420 O432 2.137 1_565 S
Co420 O433 2.244 1_565 S
O421 Co420 2.216 . S
O421 C428 1.247 . S
O422 Co420 2.091 . S
O422 C428 1.261 . S
C423 O432 1.247 . S
C423 O433 1.272 . S
O424 Co420 2.004 1_545 S
O424 C429 1.259 . S
Co425 O426 2.061 . S
Co425 O431 2.052 . S
Co425 O433 2.135 . S
O426 Co425 2.061 . S
O426 C429 1.235 . S
C427 O430 1.238 . S
C427 O431 1.241 1_565 S
C428 O421 1.247 . S
C428 O422 1.261 . S
C429 O424 1.259 . S
C429 O426 1.235 . S
O430 Co420 2.021 . S
O430 C427 1.238 . S
O431 Co425 2.052 . S
O431 C427 1.241 1_545 S
O432 Co420 2.137 1_545 S
O432 C423 1.247 . S
O433 Co420 2.244 1_545 S
O433 C423 1.272 . S
O433 Co425 2.135 . S
Co434 O435 2.216 . S
Co434 O436 2.091 . S
Co434 O438 2.004 . S
Co434 O444 2.021 . S
Co434 O446 2.137 . S
Co434 O447 2.244 . S
O435 Co434 2.216 . S
O435 C442 1.247 . S
O436 Co434 2.091 . S
O436 C442 1.261 . S
C437 O446 1.247 . S
C437 O447 1.272 . S
O438 Co434 2.004 . S
O438 C443 1.259 . S
Co439 O440 2.061 . S
Co439 O445 2.052 . S
Co439 O447 2.135 . S
O440 Co439 2.061 . S
O440 C443 1.235 . S
C441 O444 1.238 . S
C441 O445 1.241 . S
C442 O435 1.247 . S
C442 O436 1.261 . S
C443 O438 1.259 . S
C443 O440 1.235 . S
O444 Co434 2.021 . S
O444 C441 1.238 . S
O445 Co439 2.052 . S
O445 C441 1.241 . S
O446 Co434 2.137 . S
O446 C437 1.247 . S
O447 Co434 2.244 . S
O447 C437 1.272 . S
O447 Co439 2.135 . S
Co448 O449 2.216 . S
Co448 O450 2.091 . S
Co448 O452 2.004 . S
Co448 O458 2.021 . S
Co448 O460 2.137 . S
Co448 O461 2.244 . S
O449 Co448 2.216 . S
O449 C456 1.247 . S
O450 Co448 2.091 . S
O450 C456 1.261 . S
C451 O460 1.247 . S
C451 O461 1.272 . S
O452 Co448 2.004 . S
O452 C457 1.259 . S
Co453 O454 2.061 . S
Co453 O459 2.052 . S
Co453 O461 2.135 . S
O454 Co453 2.061 . S
O454 C457 1.235 . S
C455 O458 1.238 . S
C455 O459 1.241 . S
C456 O449 1.247 . S
C456 O450 1.261 . S
C457 O452 1.259 . S
C457 O454 1.235 . S
O458 Co448 2.021 . S
O458 C455 1.238 . S
O459 Co453 2.052 . S
O459 C455 1.241 . S
O460 Co448 2.137 . S
O460 C451 1.247 . S
O461 Co448 2.244 . S
O461 C451 1.272 . S
O461 Co453 2.135 . S
Co462 O463 2.216 . S
Co462 O464 2.091 . S
Co462 O466 2.004 1_655 S
Co462 O472 2.021 1_655 S
Co462 O474 2.137 . S
Co462 O475 2.244 . S
O463 Co462 2.216 . S
O463 C470 1.247 . S
O464 Co462 2.091 . S
O464 C470 1.261 . S
C465 O474 1.247 . S
C465 O475 1.272 . S
O466 Co462 2.004 1_455 S
O466 C471 1.259 . S
Co467 O468 2.061 . S
Co467 O473 2.052 . S
Co467 O475 2.135 1_455 S
O468 Co467 2.061 . S
O468 C471 1.235 . S
C469 O472 1.238 . S
C469 O473 1.241 . S
C470 O463 1.247 . S
C470 O464 1.261 . S
C471 O466 1.259 . S
C471 O468 1.235 . S
O472 Co462 2.021 1_455 S
O472 C469 1.238 . S
O473 Co467 2.052 . S
O473 C469 1.241 . S
O474 Co462 2.137 . S
O474 C465 1.247 . S
O475 Co462 2.244 . S
O475 C465 1.272 . S
O475 Co467 2.135 1_655 S
Co476 O477 2.216 . S
Co476 O478 2.091 . S
Co476 O480 2.004 . S
Co476 O486 2.021 . S
Co476 O488 2.137 . S
Co476 O489 2.244 . S
O477 Co476 2.216 . S
O477 C484 1.247 . S
O478 Co476 2.091 . S
O478 C484 1.261 . S
C479 O488 1.247 . S
C479 O489 1.272 . S
O480 Co476 2.004 . S
O480 C485 1.259 . S
Co481 O482 2.061 . S
Co481 O487 2.052 . S
Co481 O489 2.135 . S
O482 Co481 2.061 . S
O482 C485 1.235 . S
C483 O486 1.238 . S
C483 O487 1.241 . S
C484 O477 1.247 . S
C484 O478 1.261 . S
C485 O480 1.259 . S
C485 O482 1.235 . S
O486 Co476 2.021 . S
O486 C483 1.238 . S
O487 Co481 2.052 . S
O487 C483 1.241 . S
O488 Co476 2.137 . S
O488 C479 1.247 . S
O489 Co476 2.244 . S
O489 C479 1.272 . S
O489 Co481 2.135 . S
Co490 O491 2.216 . S
Co490 O492 2.091 . S
Co490 O494 2.004 1_655 S
Co490 O500 2.021 1_655 S
Co490 O502 2.137 . S
Co490 O503 2.244 . S
O491 Co490 2.216 . S
O491 C498 1.247 . S
O492 Co490 2.091 . S
O492 C498 1.261 . S
C493 O502 1.247 . S
C493 O503 1.272 . S
O494 Co490 2.004 1_455 S
O494 C499 1.259 . S
Co495 O496 2.061 . S
Co495 O501 2.052 . S
Co495 O503 2.135 1_455 S
O496 Co495 2.061 . S
O496 C499 1.235 . S
C497 O500 1.238 . S
C497 O501 1.241 . S
C498 O491 1.247 . S
C498 O492 1.261 . S
C499 O494 1.259 . S
C499 O496 1.235 . S
O500 Co490 2.021 1_455 S
O500 C497 1.238 . S
O501 Co495 2.052 . S
O501 C497 1.241 . S
O502 Co490 2.137 . S
O502 C493 1.247 . S
O503 Co490 2.244 . S
O503 C493 1.272 . S
O503 Co495 2.135 1_655 S
Co504 O505 2.216 . S
Co504 O506 2.091 . S
Co504 O508 2.004 . S
Co504 O514 2.021 . S
Co504 O516 2.137 . S
Co504 O517 2.244 . S
O505 Co504 2.216 . S
O505 C512 1.247 . S
O506 Co504 2.091 . S
O506 C512 1.261 . S
C507 O516 1.247 . S
C507 O517 1.272 . S
O508 Co504 2.004 . S
O508 C513 1.259 . S
Co509 O510 2.061 . S
Co509 O515 2.052 . S
Co509 O517 2.135 . S
O510 Co509 2.061 . S
O510 C513 1.235 . S
C511 O514 1.238 . S
C511 O515 1.241 . S
C512 O505 1.247 . S
C512 O506 1.261 . S
C513 O508 1.259 . S
C513 O510 1.235 . S
O514 Co504 2.021 . S
O514 C511 1.238 . S
O515 Co509 2.052 . S
O515 C511 1.241 . S
O516 Co504 2.137 . S
O516 C507 1.247 . S
O517 Co504 2.244 . S
O517 C507 1.272 . S
O517 Co509 2.135 . S
Co518 O519 2.216 . S
Co518 O520 2.091 . S
Co518 O522 2.004 . S
Co518 O528 2.021 . S
Co518 O530 2.137 . S
Co518 O531 2.244 . S
O519 Co518 2.216 . S
O519 C526 1.247 . S
O520 Co518 2.091 . S
O520 C526 1.261 . S
C521 O530 1.247 . S
C521 O531 1.272 . S
O522 Co518 2.004 . S
O522 C527 1.259 . S
Co523 O524 2.061 . S
Co523 O529 2.052 . S
Co523 O531 2.135 . S
O524 Co523 2.061 . S
O524 C527 1.235 . S
C525 O528 1.238 . S
C525 O529 1.241 . S
C526 O519 1.247 . S
C526 O520 1.261 . S
C527 O522 1.259 . S
C527 O524 1.235 . S
O528 Co518 2.021 . S
O528 C525 1.238 . S
O529 Co523 2.052 . S
O529 C525 1.241 . S
O530 Co518 2.137 . S
O530 C521 1.247 . S
O531 Co518 2.244 . S
O531 C521 1.272 . S
O531 Co523 2.135 . S
Co532 O533 2.216 . S
Co532 O534 2.091 . S
Co532 O536 2.004 . S
Co532 O542 2.021 . S
Co532 O544 2.137 . S
Co532 O545 2.244 . S
O533 Co532 2.216 . S
O533 C540 1.247 . S
O534 Co532 2.091 . S
O534 C540 1.261 . S
C535 O544 1.247 . S
C535 O545 1.272 . S
O536 Co532 2.004 . S
O536 C541 1.259 . S
Co537 O538 2.061 . S
Co537 O543 2.052 . S
Co537 O545 2.135 . S
O538 Co537 2.061 . S
O538 C541 1.235 . S
C539 O542 1.238 . S
C539 O543 1.241 . S
C540 O533 1.247 . S
C540 O534 1.261 . S
C541 O536 1.259 . S
C541 O538 1.235 . S
O542 Co532 2.021 . S
O542 C539 1.238 . S
O543 Co537 2.052 . S
O543 C539 1.241 . S
O544 Co532 2.137 . S
O544 C535 1.247 . S
O545 Co532 2.244 . S
O545 C535 1.272 . S
O545 Co537 2.135 . S
Co546 O547 2.216 . S
Co546 O548 2.091 . S
Co546 O550 2.004 . S
Co546 O556 2.021 . S
Co546 O558 2.137 . S
Co546 O559 2.244 . S
O547 Co546 2.216 . S
O547 C554 1.247 . S
O548 Co546 2.091 . S
O548 C554 1.261 . S
C549 O558 1.247 . S
C549 O559 1.272 . S
O550 Co546 2.004 . S
O550 C555 1.259 . S
Co551 O552 2.061 . S
Co551 O557 2.052 . S
Co551 O559 2.135 . S
O552 Co551 2.061 . S
O552 C555 1.235 . S
C553 O556 1.238 . S
C553 O557 1.241 . S
C554 O547 1.247 . S
C554 O548 1.261 . S
C555 O550 1.259 . S
C555 O552 1.235 . S
O556 Co546 2.021 . S
O556 C553 1.238 . S
O557 Co551 2.052 . S
O557 C553 1.241 . S
O558 Co546 2.137 . S
O558 C549 1.247 . S
O559 Co546 2.244 . S
O559 C549 1.272 . S
O559 Co551 2.135 . S
Co560 O561 2.216 1_565 S
Co560 O562 2.091 . S
Co560 O564 2.004 . S
Co560 O570 2.021 1_565 S
Co560 O572 2.137 . S
Co560 O573 2.244 1_565 S
O561 Co560 2.216 1_545 S
O561 C568 1.247 1_545 S
O562 Co560 2.091 . S
O562 C568 1.261 . S
C563 O572 1.247 . S
C563 O573 1.272 1_565 S
O564 Co560 2.004 . S
O564 C569 1.259 . S
Co565 O566 2.061 1_545 S
Co565 O571 2.052 . S
Co565 O573 2.135 . S
O566 Co565 2.061 1_565 S
O566 C569 1.235 . S
C567 O570 1.238 . S
C567 O571 1.241 . S
C568 O561 1.247 1_565 S
C568 O562 1.261 . S
C569 O564 1.259 . S
C569 O566 1.235 . S
O570 Co560 2.021 1_545 S
O570 C567 1.238 . S
O571 Co565 2.052 . S
O571 C567 1.241 . S
O572 Co560 2.137 . S
O572 C563 1.247 . S
O573 Co560 2.244 1_545 S
O573 C563 1.272 1_545 S
O573 Co565 2.135 . S
Co574 O575 2.216 . S
Co574 O576 2.091 . S
Co574 O578 2.004 . S
Co574 O584 2.021 1_556 S
Co574 O586 2.137 . S
Co574 O587 2.244 1_556 S
O575 Co574 2.216 . S
O575 C582 1.247 . S
O576 Co574 2.091 . S
O576 C582 1.261 . S
C577 O586 1.229 1_554 S
C577 O587 1.286 . S
O578 Co574 2.004 . S
O578 C583 1.259 1_556 S
Co579 O580 2.061 . S
Co579 O585 2.052 . S
Co579 O587 2.135 . S
O580 Co579 2.061 . S
O580 C583 1.235 . S
C581 O584 1.238 . S
C581 O585 1.241 . S
C582 O575 1.247 . S
C582 O576 1.261 . S
C583 O578 1.259 1_554 S
C583 O580 1.235 . S
O584 Co574 2.021 1_554 S
O584 C581 1.238 . S
O585 Co579 2.052 . S
O585 C581 1.241 . S
O586 Co574 2.137 . S
O586 C577 1.229 1_556 S
O587 Co574 2.244 1_554 S
O587 C577 1.286 . S
O587 Co579 2.135 . S
Co588 O589 2.216 . S
Co588 O590 2.091 . S
Co588 O592 2.004 . S
Co588 O598 2.021 . S
Co588 O600 2.137 . S
Co588 O601 2.244 . S
O589 Co588 2.216 . S
O589 C596 1.247 . S
O590 Co588 2.091 . S
O590 C596 1.261 . S
C591 O600 1.247 . S
C591 O601 1.272 . S
O592 Co588 2.004 . S
O592 C597 1.259 . S
Co593 O594 2.061 . S
Co593 O599 2.052 . S
Co593 O601 2.135 . S
O594 Co593 2.061 . S
O594 C597 1.235 . S
C595 O598 1.238 . S
C595 O599 1.241 . S
C596 O589 1.247 . S
C596 O590 1.261 . S
C597 O592 1.259 . S
C597 O594 1.235 . S
O598 Co588 2.021 . S
O598 C595 1.238 . S
O599 Co593 2.052 . S
O599 C595 1.241 . S
O600 Co588 2.137 . S
O600 C591 1.247 . S
O601 Co588 2.244 . S
O601 C591 1.272 . S
O601 Co593 2.135 . S
Co602 O603 2.216 . S
Co602 O604 2.091 . S
Co602 O606 2.004 1_455 S
Co602 O612 2.021 1_455 S
Co602 O614 2.137 . S
Co602 O615 2.244 . S
O603 Co602 2.216 . S
O603 C610 1.247 . S
O604 Co602 2.091 . S
O604 C610 1.261 . S
C605 O614 1.247 . S
C605 O615 1.272 . S
O606 Co602 2.004 1_655 S
O606 C611 1.259 . S
Co607 O608 2.061 . S
Co607 O613 2.052 . S
Co607 O615 2.135 1_655 S
O608 Co607 2.061 . S
O608 C611 1.235 . S
C609 O612 1.238 . S
C609 O613 1.241 . S
C610 O603 1.247 . S
C610 O604 1.261 . S
C611 O606 1.259 . S
C611 O608 1.235 . S
O612 Co602 2.021 1_655 S
O612 C609 1.238 . S
O613 Co607 2.052 . S
O613 C609 1.241 . S
O614 Co602 2.137 . S
O614 C605 1.247 . S
O615 Co602 2.244 . S
O615 C605 1.272 . S
O615 Co607 2.135 1_455 S
Co616 O617 2.216 1_545 S
Co616 O618 2.091 . S
Co616 O620 2.004 . S
Co616 O626 2.021 1_545 S
Co616 O628 2.137 . S
Co616 O629 2.244 1_545 S
O617 Co616 2.216 1_565 S
O617 C624 1.247 1_565 S
O618 Co616 2.091 . S
O618 C624 1.261 . S
C619 O628 1.247 . S
C619 O629 1.272 1_545 S
O620 Co616 2.004 . S
O620 C625 1.259 . S
Co621 O622 2.061 1_565 S
Co621 O627 2.052 . S
Co621 O629 2.135 . S
O622 Co621 2.061 1_545 S
O622 C625 1.235 . S
C623 O626 1.238 . S
C623 O627 1.241 . S
C624 O617 1.247 1_545 S
C624 O618 1.261 . S
C625 O620 1.259 . S
C625 O622 1.235 . S
O626 Co616 2.021 1_565 S
O626 C623 1.238 . S
O627 Co621 2.052 . S
O627 C623 1.241 . S
O628 Co616 2.137 . S
O628 C619 1.247 . S
O629 Co616 2.244 1_565 S
O629 C619 1.272 1_565 S
O629 Co621 2.135 . S
Co630 O631 2.216 . S
Co630 O632 2.091 . S
Co630 O634 2.004 . S
Co630 O640 2.021 1_556 S
Co630 O642 2.137 . S
Co630 O643 2.244 1_556 S
O631 Co630 2.216 . S
O631 C638 1.247 . S
O632 Co630 2.091 . S
O632 C638 1.261 . S
C633 O642 1.229 1_554 S
C633 O643 1.286 . S
O634 Co630 2.004 . S
O634 C639 1.259 1_556 S
Co635 O636 2.061 . S
Co635 O641 2.052 . S
Co635 O643 2.135 . S
O636 Co635 2.061 . S
O636 C639 1.235 . S
C637 O640 1.238 . S
C637 O641 1.241 . S
C638 O631 1.247 . S
C638 O632 1.261 . S
C639 O634 1.259 1_554 S
C639 O636 1.235 . S
O640 Co630 2.021 1_554 S
O640 C637 1.238 . S
O641 Co635 2.052 . S
O641 C637 1.241 . S
O642 Co630 2.137 . S
O642 C633 1.229 1_556 S
O643 Co630 2.244 1_554 S
O643 C633 1.286 . S
O643 Co635 2.135 . S
Co644 O645 2.216 . S
Co644 O646 2.091 . S
Co644 O648 2.004 . S
Co644 O654 2.021 . S
Co644 O656 2.137 . S
Co644 O657 2.244 . S
O645 Co644 2.216 . S
O645 C652 1.247 . S
O646 Co644 2.091 . S
O646 C652 1.261 . S
C647 O656 1.247 . S
C647 O657 1.272 . S
O648 Co644 2.004 . S
O648 C653 1.259 . S
Co649 O650 2.061 . S
Co649 O655 2.052 . S
Co649 O657 2.135 . S
O650 Co649 2.061 . S
O650 C653 1.235 . S
C651 O654 1.238 . S
C651 O655 1.241 . S
C652 O645 1.247 . S
C652 O646 1.261 . S
C653 O648 1.259 . S
C653 O650 1.235 . S
O654 Co644 2.021 . S
O654 C651 1.238 . S
O655 Co649 2.052 . S
O655 C651 1.241 . S
O656 Co644 2.137 . S
O656 C647 1.247 . S
O657 Co644 2.244 . S
O657 C647 1.272 . S
O657 Co649 2.135 . S
Co658 O659 2.216 . S
Co658 O660 2.091 . S
Co658 O662 2.004 . S
Co658 O668 2.021 . S
Co658 O670 2.137 . S
Co658 O671 2.244 . S
O659 Co658 2.216 . S
O659 C666 1.247 . S
O660 Co658 2.091 . S
O660 C666 1.261 . S
C661 O670 1.247 . S
C661 O671 1.272 . S
O662 Co658 2.004 . S
O662 C667 1.259 . S
Co663 O664 2.061 . S
Co663 O669 2.052 . S
Co663 O671 2.135 . S
O664 Co663 2.061 . S
O664 C667 1.235 . S
C665 O668 1.238 . S
C665 O669 1.241 . S
C666 O659 1.247 . S
C666 O660 1.261 . S
C667 O662 1.259 . S
C667 O664 1.235 . S
O668 Co658 2.021 . S
O668 C665 1.238 . S
O669 Co663 2.052 . S
O669 C665 1.241 . S
O670 Co658 2.137 . S
O670 C661 1.247 . S
O671 Co658 2.244 . S
O671 C661 1.272 . S
O671 Co663 2.135 . S
C672 C673 1.387 . S
C672 H676 0.950 . S
C672 C681 1.390 . S
C673 C672 1.387 . S
C673 C675 1.387 . S
H674 C681 0.950 . S
C675 C673 1.387 . S
C675 C677 1.390 . S
C675 H679 0.950 . S
H676 C672 0.950 . S
C677 C675 1.390 . S
C677 C678 1.387 . S
C677 H680 0.950 . S
C678 C677 1.387 . S
C678 C681 1.387 . S
H679 C675 0.950 . S
H680 C677 0.950 . S
C681 C672 1.390 . S
C681 H674 0.950 . S
C681 C678 1.387 . S
C682 C683 1.387 . S
C682 H686 0.950 . S
C682 C691 1.390 . S
C683 C682 1.387 . S
C683 C685 1.387 . S
H684 C691 0.950 . S
C685 C683 1.387 . S
C685 C687 1.390 . S
C685 H689 0.950 . S
H686 C682 0.950 . S
C687 C685 1.390 . S
C687 C688 1.387 . S
C687 H690 0.950 . S
C688 C687 1.387 . S
C688 C691 1.387 . S
H689 C685 0.950 . S
H690 C687 0.950 . S
C691 C682 1.390 . S
C691 H684 0.950 . S
C691 C688 1.387 . S
C692 C693 1.387 . S
C692 H696 0.950 . S
C692 C701 1.390 . S
C693 C692 1.387 . S
C693 C695 1.387 . S
H694 C701 0.950 . S
C695 C693 1.387 . S
C695 C697 1.390 . S
C695 H699 0.950 . S
H696 C692 0.950 . S
C697 C695 1.390 . S
C697 C698 1.387 . S
C697 H700 0.950 . S
C698 C697 1.387 . S
C698 C701 1.387 . S
H699 C695 0.950 . S
H700 C697 0.950 . S
C701 C692 1.390 . S
C701 H694 0.950 . S
C701 C698 1.387 . S
C702 C703 1.387 . S
C702 H706 0.950 . S
C702 C711 1.390 . S
C703 C702 1.387 . S
C703 C705 1.387 . S
H704 C711 0.950 . S
C705 C703 1.387 . S
C705 C707 1.395 . S
C705 H709 0.950 1_565 S
H706 C702 0.950 . S
C707 C705 1.395 . S
C707 C708 1.412 . S
C707 H710 0.921 1_565 S
C708 C707 1.412 . S
C708 C711 1.387 . S
H709 C705 0.950 1_545 S
H710 C707 0.921 1_545 S
C711 C702 1.390 . S
C711 H704 0.950 . S
C711 C708 1.387 . S
C712 C713 1.387 . S
C712 H716 0.950 . S
C712 C721 1.390 . S
C713 C712 1.387 . S
C713 C715 1.387 . S
H714 C721 0.950 . S
C715 C713 1.387 . S
C715 C717 1.390 . S
C715 H719 0.950 . S
H716 C712 0.950 . S
C717 C715 1.390 . S
C717 C718 1.387 . S
C717 H720 0.950 . S
C718 C717 1.387 . S
C718 C721 1.387 . S
H719 C715 0.950 . S
H720 C717 0.950 . S
C721 C712 1.390 . S
C721 H714 0.950 . S
C721 C718 1.387 . S
C722 C723 1.387 . S
C722 H726 0.950 . S
C722 C731 1.390 . S
C723 C722 1.387 . S
C723 C725 1.387 . S
H724 C731 0.950 . S
C725 C723 1.387 . S
C725 C727 1.390 . S
C725 H729 0.950 . S
H726 C722 0.950 . S
C727 C725 1.390 . S
C727 C728 1.387 . S
C727 H730 0.950 . S
C728 C727 1.387 . S
C728 C731 1.387 . S
H729 C725 0.950 . S
H730 C727 0.950 . S
C731 C722 1.390 . S
C731 H724 0.950 . S
C731 C728 1.387 . S
C732 C733 1.387 1_545 S
C732 H736 0.950 . S
C732 C741 1.390 1_545 S
C733 C732 1.387 1_565 S
C733 C735 1.387 . S
H734 C741 0.950 1_545 S
C735 C733 1.387 . S
C735 C737 1.390 . S
C735 H739 0.950 . S
H736 C732 0.950 . S
C737 C735 1.390 . S
C737 C738 1.387 . S
C737 H740 0.950 . S
C738 C737 1.387 . S
C738 C741 1.387 . S
H739 C735 0.950 . S
H740 C737 0.950 . S
C741 C732 1.390 1_565 S
C741 H734 0.950 1_565 S
C741 C738 1.387 . S
C742 C743 1.387 . S
C742 H746 0.950 . S
C742 C751 1.390 . S
C743 C742 1.387 . S
C743 C745 1.387 . S
H744 C751 0.950 . S
C745 C743 1.387 . S
C745 C747 1.390 . S
C745 H749 0.950 . S
H746 C742 0.950 . S
C747 C745 1.390 . S
C747 C748 1.387 . S
C747 H750 0.950 . S
C748 C747 1.387 . S
C748 C751 1.387 . S
H749 C745 0.950 . S
H750 C747 0.950 . S
C751 C742 1.390 . S
C751 H744 0.950 . S
C751 C748 1.387 . S
C752 C753 1.387 . S
C752 H756 0.950 . S
C752 C761 1.390 . S
C753 C752 1.387 . S
C753 C755 1.387 . S
H754 C761 0.950 . S
C755 C753 1.387 . S
C755 C757 1.390 . S
C755 H759 0.950 . S
H756 C752 0.950 . S
C757 C755 1.390 . S
C757 C758 1.387 . S
C757 H760 0.950 . S
C758 C757 1.387 . S
C758 C761 1.387 . S
H759 C755 0.950 . S
H760 C757 0.950 . S
C761 C752 1.390 . S
C761 H754 0.950 . S
C761 C758 1.387 . S
C762 C763 1.387 . S
C762 H766 0.950 . S
C762 C771 1.390 . S
C763 C762 1.387 . S
C763 C765 1.387 . S
H764 C771 0.950 . S
C765 C763 1.387 . S
C765 C767 1.390 . S
C765 H769 0.950 . S
H766 C762 0.950 . S
C767 C765 1.390 . S
C767 C768 1.387 . S
C767 H770 0.950 . S
C768 C767 1.387 . S
C768 C771 1.387 . S
H769 C765 0.950 . S
H770 C767 0.950 . S
C771 C762 1.390 . S
C771 H764 0.950 . S
C771 C768 1.387 . S
C772 C773 1.387 . S
C772 H776 0.950 . S
C772 C781 1.390 . S
C773 C772 1.387 . S
C773 C775 1.387 . S
H774 C781 0.950 . S
C775 C773 1.387 . S
C775 C777 1.390 . S
C775 H779 0.950 . S
H776 C772 0.950 . S
C777 C775 1.390 . S
C777 C778 1.387 . S
C777 H780 0.950 . S
C778 C777 1.387 . S
C778 C781 1.387 . S
H779 C775 0.950 . S
H780 C777 0.950 . S
C781 C772 1.390 . S
C781 H774 0.950 . S
C781 C778 1.387 . S
C782 C783 1.387 . S
C782 H786 0.950 . S
C782 C791 1.390 . S
C783 C782 1.387 . S
C783 C785 1.387 . S
H784 C791 0.950 . S
C785 C783 1.387 . S
C785 C787 1.390 . S
C785 H789 0.950 . S
H786 C782 0.950 . S
C787 C785 1.390 . S
C787 C788 1.387 . S
C787 H790 0.950 . S
C788 C787 1.387 . S
C788 C791 1.387 . S
H789 C785 0.950 . S
H790 C787 0.950 . S
C791 C782 1.390 . S
C791 H784 0.950 . S
C791 C788 1.387 . S
C792 C793 1.387 . S
C792 H796 0.950 . S
C792 C801 1.390 . S
C793 C792 1.387 . S
C793 C795 1.387 . S
H794 C801 0.950 . S
C795 C793 1.387 . S
C795 C797 1.390 . S
C795 H799 0.950 . S
H796 C792 0.950 . S
C797 C795 1.390 . S
C797 C798 1.387 . S
C797 H800 0.950 . S
C798 C797 1.387 . S
C798 C801 1.387 . S
H799 C795 0.950 . S
H800 C797 0.950 . S
C801 C792 1.390 . S
C801 H794 0.950 . S
C801 C798 1.387 . S
C802 C803 1.387 . S
C802 H806 0.950 . S
C802 C811 1.390 . S
C803 C802 1.387 . S
C803 C805 1.387 . S
H804 C811 0.950 . S
C805 C803 1.387 . S
C805 C807 1.390 . S
C805 H809 0.950 . S
H806 C802 0.950 . S
C807 C805 1.390 . S
C807 C808 1.387 . S
C807 H810 0.950 . S
C808 C807 1.387 . S
C808 C811 1.387 . S
H809 C805 0.950 . S
H810 C807 0.950 . S
C811 C802 1.390 . S
C811 H804 0.950 . S
C811 C808 1.387 . S
C812 C813 1.387 . S
C812 H816 0.950 . S
C812 C821 1.390 . S
C813 C812 1.387 . S
C813 C815 1.387 . S
H814 C821 0.950 . S
C815 C813 1.387 . S
C815 C817 1.390 . S
C815 H819 0.950 . S
H816 C812 0.950 . S
C817 C815 1.390 . S
C817 C818 1.387 . S
C817 H820 0.950 . S
C818 C817 1.387 . S
C818 C821 1.387 . S
H819 C815 0.950 . S
H820 C817 0.950 . S
C821 C812 1.390 . S
C821 H814 0.950 . S
C821 C818 1.387 . S
C822 C823 1.387 . S
C822 H826 0.950 . S
C822 C831 1.390 . S
C823 C822 1.387 . S
C823 C825 1.387 . S
H824 C831 0.950 . S
C825 C823 1.387 . S
C825 C827 1.390 . S
C825 H829 0.950 . S
H826 C822 0.950 . S
C827 C825 1.390 . S
C827 C828 1.387 . S
C827 H830 0.950 . S
C828 C827 1.387 . S
C828 C831 1.387 . S
H829 C825 0.950 . S
H830 C827 0.950 . S
C831 C822 1.390 . S
C831 H824 0.950 . S
C831 C828 1.387 . S
C832 C833 1.387 . S
C832 H836 0.950 . S
C832 C841 1.390 . S
C833 C832 1.387 . S
C833 C835 1.387 . S
H834 C841 0.950 . S
C835 C833 1.387 . S
C835 C837 1.390 . S
C835 H839 0.950 . S
H836 C832 0.950 . S
C837 C835 1.390 . S
C837 C838 1.387 . S
C837 H840 0.950 . S
C838 C837 1.387 . S
C838 C841 1.387 . S
H839 C835 0.950 . S
H840 C837 0.950 . S
C841 C832 1.390 . S
C841 H834 0.950 . S
C841 C838 1.387 . S
C842 C843 1.387 . S
C842 H846 0.950 . S
C842 C851 1.390 . S
C843 C842 1.387 . S
C843 C845 1.387 . S
H844 C851 0.950 . S
C845 C843 1.387 . S
C845 C847 1.390 . S
C845 H849 0.950 . S
H846 C842 0.950 . S
C847 C845 1.390 . S
C847 C848 1.387 . S
C847 H850 0.950 . S
C848 C847 1.387 . S
C848 C851 1.387 . S
H849 C845 0.950 . S
H850 C847 0.950 . S
C851 C842 1.390 . S
C851 H844 0.950 . S
C851 C848 1.387 . S
C852 C853 1.387 . S
C852 H856 0.950 . S
C852 C861 1.390 . S
C853 C852 1.387 . S
C853 C855 1.387 . S
H854 C861 0.950 . S
C855 C853 1.387 . S
C855 C857 1.390 . S
C855 H859 0.950 . S
H856 C852 0.950 . S
C857 C855 1.390 . S
C857 C858 1.387 . S
C857 H860 0.950 . S
C858 C857 1.387 . S
C858 C861 1.387 . S
H859 C855 0.950 . S
H860 C857 0.950 . S
C861 C852 1.390 . S
C861 H854 0.950 . S
C861 C858 1.387 . S
C862 C863 1.387 . S
C862 H866 0.950 . S
C862 C871 1.390 . S
C863 C862 1.387 . S
C863 C865 1.387 . S
H864 C871 0.950 . S
C865 C863 1.387 . S
C865 C867 1.390 . S
C865 H869 0.950 . S
H866 C862 0.950 . S
C867 C865 1.390 . S
C867 C868 1.387 . S
C867 H870 0.950 . S
C868 C867 1.387 . S
C868 C871 1.387 . S
H869 C865 0.950 . S
H870 C867 0.950 . S
C871 C862 1.390 . S
C871 H864 0.950 . S
C871 C868 1.387 . S
C872 C873 1.387 . S
C872 H876 0.950 . S
C872 C881 1.390 . S
C873 C872 1.387 . S
C873 C875 1.387 . S
H874 C881 0.950 . S
C875 C873 1.387 . S
C875 C877 1.390 . S
C875 H879 0.950 . S
H876 C872 0.950 . S
C877 C875 1.390 . S
C877 C878 1.387 . S
C877 H880 0.950 . S
C878 C877 1.387 . S
C878 C881 1.387 . S
H879 C875 0.950 . S
H880 C877 0.950 . S
C881 C872 1.390 . S
C881 H874 0.950 . S
C881 C878 1.387 . S
C882 C883 1.387 . S
C882 H886 0.950 . S
C882 C891 1.390 . S
C883 C882 1.387 . S
C883 C885 1.387 . S
H884 C891 0.950 . S
C885 C883 1.387 . S
C885 C887 1.390 . S
C885 H889 0.950 . S
H886 C882 0.950 . S
C887 C885 1.390 . S
C887 C888 1.387 . S
C887 H890 0.950 . S
C888 C887 1.387 . S
C888 C891 1.387 . S
H889 C885 0.950 . S
H890 C887 0.950 . S
C891 C882 1.390 . S
C891 H884 0.950 . S
C891 C888 1.387 . S
C892 C893 1.387 . S
C892 H896 0.950 . S
C892 C901 1.390 . S
C893 C892 1.387 . S
C893 C895 1.387 . S
H894 C901 0.950 . S
C895 C893 1.387 . S
C895 C897 1.390 . S
C895 H899 0.950 . S
H896 C892 0.950 . S
C897 C895 1.390 . S
C897 C898 1.387 . S
C897 H900 0.950 . S
C898 C897 1.387 . S
C898 C901 1.387 . S
H899 C895 0.950 . S
H900 C897 0.950 . S
C901 C892 1.390 . S
C901 H894 0.950 . S
C901 C898 1.387 . S
C902 C903 1.387 . S
C902 H906 0.950 1_545 S
C902 C911 1.395 . S
C903 C902 1.387 . S
C903 C905 1.387 . S
H904 C911 0.920 1_565 S
C905 C903 1.387 . S
C905 C907 1.390 . S
C905 H909 0.950 . S
H906 C902 0.950 1_565 S
C907 C905 1.390 . S
C907 C908 1.387 . S
C907 H910 0.950 . S
C908 C907 1.387 . S
C908 C911 1.413 . S
H909 C905 0.950 . S
H910 C907 0.950 . S
C911 C902 1.395 . S
C911 H904 0.920 1_545 S
C911 C908 1.413 . S
C912 C913 1.387 . S
C912 H916 0.950 . S
C912 C921 1.390 . S
C913 C912 1.387 . S
C913 C915 1.387 . S
H914 C921 0.950 . S
C915 C913 1.387 . S
C915 C917 1.390 . S
C915 H919 0.950 . S
H916 C912 0.950 . S
C917 C915 1.390 . S
C917 C918 1.387 . S
C917 H920 0.950 . S
C918 C917 1.387 . S
C918 C921 1.387 . S
H919 C915 0.950 . S
H920 C917 0.950 . S
C921 C912 1.390 . S
C921 H914 0.950 . S
C921 C918 1.387 . S
C922 C923 1.387 . S
C922 H926 0.950 1_545 S
C922 C931 1.390 1_545 S
C923 C922 1.387 . S
C923 C925 1.387 . S
H924 C931 0.950 . S
C925 C923 1.387 . S
C925 C927 1.390 . S
C925 H929 0.950 . S
H926 C922 0.950 1_565 S
C927 C925 1.390 . S
C927 C928 1.387 . S
C927 H930 0.950 . S
C928 C927 1.387 . S
C928 C931 1.387 1_545 S
H929 C925 0.950 . S
H930 C927 0.950 . S
C931 C922 1.390 1_565 S
C931 H924 0.950 . S
C931 C928 1.387 1_565 S
C932 C933 1.387 . S
C932 H936 0.950 . S
C932 C941 1.390 . S
C933 C932 1.387 . S
C933 C935 1.387 . S
H934 C941 0.950 . S
C935 C933 1.387 . S
C935 C937 1.390 . S
C935 H939 0.950 . S
H936 C932 0.950 . S
C937 C935 1.390 . S
C937 C938 1.387 . S
C937 H940 0.950 . S
C938 C937 1.387 . S
C938 C941 1.387 . S
H939 C935 0.950 . S
H940 C937 0.950 . S
C941 C932 1.390 . S
C941 H934 0.950 . S
C941 C938 1.387 . S
C942 C943 1.387 . S
C942 H946 0.950 . S
C942 C951 1.390 . S
C943 C942 1.387 . S
C943 C945 1.387 . S
H944 C951 0.950 . S
C945 C943 1.387 . S
C945 C947 1.390 . S
C945 H949 0.950 . S
H946 C942 0.950 . S
C947 C945 1.390 . S
C947 C948 1.387 . S
C947 H950 0.950 . S
C948 C947 1.387 . S
C948 C951 1.387 . S
H949 C945 0.950 . S
H950 C947 0.950 . S
C951 C942 1.390 . S
C951 H944 0.950 . S
C951 C948 1.387 . S
C952 C953 1.387 . S
C952 H956 0.950 . S
C952 C961 1.390 . S
C953 C952 1.387 . S
C953 C955 1.387 . S
H954 C961 0.950 1_554 S
C955 C953 1.387 . S
C955 C957 1.390 . S
C955 H959 0.950 . S
H956 C952 0.950 . S
C957 C955 1.390 . S
C957 C958 1.387 . S
C957 H960 0.950 . S
C958 C957 1.387 . S
C958 C961 1.387 . S
H959 C955 0.950 . S
H960 C957 0.950 . S
C961 C952 1.390 . S
C961 H954 0.950 1_556 S
C961 C958 1.387 . S
C962 C963 1.387 . S
C962 H966 0.950 . S
C962 C971 1.390 . S
C963 C962 1.387 . S
C963 C965 1.387 . S
H964 C971 0.950 . S
C965 C963 1.387 . S
C965 C967 1.390 . S
C965 H969 0.950 . S
H966 C962 0.950 . S
C967 C965 1.390 . S
C967 C968 1.387 . S
C967 H970 0.950 . S
C968 C967 1.387 . S
C968 C971 1.387 . S
H969 C965 0.950 . S
H970 C967 0.950 . S
C971 C962 1.390 . S
C971 H964 0.950 . S
C971 C968 1.387 . S
C972 C973 1.387 . S
C972 H976 0.950 . S
C972 C981 1.390 . S
C973 C972 1.387 . S
C973 C975 1.387 . S
H974 C981 0.950 . S
C975 C973 1.387 . S
C975 C977 1.390 . S
C975 H979 0.950 . S
H976 C972 0.950 . S
C977 C975 1.390 . S
C977 C978 1.387 . S
C977 H980 0.950 . S
C978 C977 1.387 . S
C978 C981 1.387 . S
H979 C975 0.950 . S
H980 C977 0.950 . S
C981 C972 1.390 . S
C981 H974 0.950 . S
C981 C978 1.387 . S
C982 C983 1.387 . S
C982 H986 0.950 . S
C982 C991 1.390 1_554 S
C983 C982 1.387 . S
C983 C985 1.387 . S
H984 C991 0.950 . S
C985 C983 1.387 . S
C985 C987 1.390 . S
C985 H989 0.950 . S
H986 C982 0.950 . S
C987 C985 1.390 . S
C987 C988 1.387 . S
C987 H990 0.950 . S
C988 C987 1.387 . S
C988 C991 1.387 1_554 S
H989 C985 0.950 . S
H990 C987 0.950 . S
C991 C982 1.390 1_556 S
C991 H984 0.950 . S
C991 C988 1.387 1_556 S
C992 C993 1.387 . S
C992 H996 0.950 . S
C992 C1001 1.390 . S
C993 C992 1.387 . S
C993 C995 1.387 . S
H994 C1001 0.950 . S
C995 C993 1.387 . S
C995 C997 1.390 . S
C995 H999 0.950 . S
H996 C992 0.950 . S
C997 C995 1.390 . S
C997 C998 1.387 . S
C997 H1000 0.950 . S
C998 C997 1.387 . S
C998 C1001 1.387 . S
H999 C995 0.950 . S
H1000 C997 0.950 . S
C1001 C992 1.390 . S
C1001 H994 0.950 . S
C1001 C998 1.387 . S
C1002 C1003 1.387 . S
C1002 H1006 0.950 . S
C1002 C1011 1.390 . S
C1003 C1002 1.387 . S
C1003 C1005 1.387 . S
H1004 C1011 0.950 . S
C1005 C1003 1.387 . S
C1005 C1007 1.390 . S
C1005 H1009 0.950 . S
H1006 C1002 0.950 . S
C1007 C1005 1.390 . S
C1007 C1008 1.387 . S
C1007 H1010 0.950 . S
C1008 C1007 1.387 . S
C1008 C1011 1.387 . S
H1009 C1005 0.950 . S
H1010 C1007 0.950 . S
C1011 C1002 1.390 . S
C1011 H1004 0.950 . S
C1011 C1008 1.387 . S
C1012 C1013 1.387 . S
C1012 H1016 0.950 . S
C1012 C1021 1.390 . S
C1013 C1012 1.387 . S
C1013 C1015 1.387 . S
H1014 C1021 0.950 . S
C1015 C1013 1.387 . S
C1015 C1017 1.390 . S
C1015 H1019 0.950 . S
H1016 C1012 0.950 . S
C1017 C1015 1.390 . S
C1017 C1018 1.387 . S
C1017 H1020 0.950 . S
C1018 C1017 1.387 . S
C1018 C1021 1.387 . S
H1019 C1015 0.950 . S
H1020 C1017 0.950 . S
C1021 C1012 1.390 . S
C1021 H1014 0.950 . S
C1021 C1018 1.387 . S
C1022 C1023 1.387 . S
C1022 H1026 0.950 . S
C1022 C1031 1.390 . S
C1023 C1022 1.387 . S
C1023 C1025 1.387 . S
H1024 C1031 0.950 . S
C1025 C1023 1.387 . S
C1025 C1027 1.390 . S
C1025 H1029 0.950 . S
H1026 C1022 0.950 . S
C1027 C1025 1.390 . S
C1027 C1028 1.387 . S
C1027 H1030 0.950 . S
C1028 C1027 1.387 . S
C1028 C1031 1.387 . S
H1029 C1025 0.950 . S
H1030 C1027 0.950 . S
C1031 C1022 1.390 . S
C1031 H1024 0.950 . S
C1031 C1028 1.387 . S
C1032 C1033 1.387 . S
C1032 H1036 0.950 . S
C1032 C1041 1.390 . S
C1033 C1032 1.387 . S
C1033 C1035 1.387 . S
H1034 C1041 0.950 . S
C1035 C1033 1.387 . S
C1035 C1037 1.390 . S
C1035 H1039 0.950 . S
H1036 C1032 0.950 . S
C1037 C1035 1.390 . S
C1037 C1038 1.387 . S
C1037 H1040 0.950 . S
C1038 C1037 1.387 . S
C1038 C1041 1.387 . S
H1039 C1035 0.950 . S
H1040 C1037 0.950 . S
C1041 C1032 1.390 . S
C1041 H1034 0.950 . S
C1041 C1038 1.387 . S
C1042 C1043 1.387 . S
C1042 H1046 0.950 . S
C1042 C1051 1.390 . S
C1043 C1042 1.387 . S
C1043 C1045 1.387 . S
H1044 C1051 0.950 . S
C1045 C1043 1.387 . S
C1045 C1047 1.390 . S
C1045 H1049 0.950 . S
H1046 C1042 0.950 . S
C1047 C1045 1.390 . S
C1047 C1048 1.387 . S
C1047 H1050 0.950 . S
C1048 C1047 1.387 . S
C1048 C1051 1.387 . S
H1049 C1045 0.950 . S
H1050 C1047 0.950 . S
C1051 C1042 1.390 . S
C1051 H1044 0.950 . S
C1051 C1048 1.387 . S
C1052 C1053 1.387 . S
C1052 H1056 0.950 . S
C1052 C1061 1.390 . S
C1053 C1052 1.387 . S
C1053 C1055 1.387 . S
H1054 C1061 0.950 . S
C1055 C1053 1.387 . S
C1055 C1057 1.390 . S
C1055 H1059 0.950 . S
H1056 C1052 0.950 . S
C1057 C1055 1.390 . S
C1057 C1058 1.387 . S
C1057 H1060 0.950 . S
C1058 C1057 1.387 . S
C1058 C1061 1.387 . S
H1059 C1055 0.950 . S
H1060 C1057 0.950 . S
C1061 C1052 1.390 . S
C1061 H1054 0.950 . S
C1061 C1058 1.387 . S
C1062 C1063 1.387 . S
C1062 H1066 0.950 . S
C1062 C1071 1.390 . S
C1063 C1062 1.387 . S
C1063 C1065 1.387 . S
H1064 C1071 0.950 . S
C1065 C1063 1.387 . S
C1065 C1067 1.390 . S
C1065 H1069 0.950 . S
H1066 C1062 0.950 . S
C1067 C1065 1.390 . S
C1067 C1068 1.387 . S
C1067 H1070 0.950 . S
C1068 C1067 1.387 . S
C1068 C1071 1.387 . S
H1069 C1065 0.950 . S
H1070 C1067 0.950 . S
C1071 C1062 1.390 . S
C1071 H1064 0.950 . S
C1071 C1068 1.387 . S
C1072 C1073 1.387 . S
C1072 H1076 0.950 . S
C1072 C1081 1.390 . S
C1073 C1072 1.387 . S
C1073 C1075 1.387 . S
H1074 C1081 0.950 . S
C1075 C1073 1.387 . S
C1075 C1077 1.390 . S
C1075 H1079 0.950 . S
H1076 C1072 0.950 . S
C1077 C1075 1.390 . S
C1077 C1078 1.387 . S
C1077 H1080 0.950 . S
C1078 C1077 1.387 . S
C1078 C1081 1.387 . S
H1079 C1075 0.950 . S
H1080 C1077 0.950 . S
C1081 C1072 1.390 . S
C1081 H1074 0.950 . S
C1081 C1078 1.387 . S
C1082 C1083 1.387 . S
C1082 H1086 0.950 . S
C1082 C1091 1.390 . S
C1083 C1082 1.387 . S
C1083 C1085 1.387 . S
H1084 C1091 0.950 . S
C1085 C1083 1.387 . S
C1085 C1087 1.390 . S
C1085 H1089 0.950 . S
H1086 C1082 0.950 . S
C1087 C1085 1.390 . S
C1087 C1088 1.387 . S
C1087 H1090 0.950 . S
C1088 C1087 1.387 . S
C1088 C1091 1.387 . S
H1089 C1085 0.950 . S
H1090 C1087 0.950 . S
C1091 C1082 1.390 . S
C1091 H1084 0.950 . S
C1091 C1088 1.387 . S
C1092 C1093 1.387 . S
C1092 H1096 0.950 . S
C1092 C1101 1.390 . S
C1093 C1092 1.387 . S
C1093 C1095 1.387 . S
H1094 C1101 0.950 . S
C1095 C1093 1.387 . S
C1095 C1097 1.390 . S
C1095 H1099 0.950 . S
H1096 C1092 0.950 . S
C1097 C1095 1.390 . S
C1097 C1098 1.387 . S
C1097 H1100 0.950 . S
C1098 C1097 1.387 . S
C1098 C1101 1.387 . S
H1099 C1095 0.950 . S
H1100 C1097 0.950 . S
C1101 C1092 1.390 . S
C1101 H1094 0.950 . S
C1101 C1098 1.387 . S
C1102 C1103 1.387 . S
C1102 H1106 0.950 . S
C1102 C1111 1.390 . S
C1103 C1102 1.387 . S
C1103 C1105 1.387 . S
H1104 C1111 0.950 . S
C1105 C1103 1.387 . S
C1105 C1107 1.390 . S
C1105 H1109 0.950 . S
H1106 C1102 0.950 . S
C1107 C1105 1.390 . S
C1107 C1108 1.387 . S
C1107 H1110 0.950 . S
C1108 C1107 1.387 . S
C1108 C1111 1.387 . S
H1109 C1105 0.950 . S
H1110 C1107 0.950 . S
C1111 C1102 1.390 . S
C1111 H1104 0.950 . S
C1111 C1108 1.387 . S
C1112 C1113 1.387 . S
C1112 H1116 0.950 . S
C1112 C1121 1.390 . S
C1113 C1112 1.387 . S
C1113 C1115 1.387 . S
H1114 C1121 0.950 . S
C1115 C1113 1.387 . S
C1115 C1117 1.390 . S
C1115 H1119 0.950 . S
H1116 C1112 0.950 . S
C1117 C1115 1.390 . S
C1117 C1118 1.387 . S
C1117 H1120 0.950 . S
C1118 C1117 1.387 . S
C1118 C1121 1.387 . S
H1119 C1115 0.950 . S
H1120 C1117 0.950 . S
C1121 C1112 1.390 . S
C1121 H1114 0.950 . S
C1121 C1118 1.387 . S
C1122 C1123 1.387 . S
C1122 H1126 0.950 . S
C1122 C1131 1.390 . S
C1123 C1122 1.387 . S
C1123 C1125 1.387 . S
H1124 C1131 0.950 . S
C1125 C1123 1.387 . S
C1125 C1127 1.390 . S
C1125 H1129 0.950 . S
H1126 C1122 0.950 . S
C1127 C1125 1.390 . S
C1127 C1128 1.387 . S
C1127 H1130 0.950 . S
C1128 C1127 1.387 . S
C1128 C1131 1.387 . S
H1129 C1125 0.950 . S
H1130 C1127 0.950 . S
C1131 C1122 1.390 . S
C1131 H1124 0.950 . S
C1131 C1128 1.387 . S
C1132 C1133 1.387 . S
C1132 H1136 0.950 . S
C1132 C1141 1.390 . S
C1133 C1132 1.387 . S
C1133 C1135 1.387 . S
H1134 C1141 0.950 . S
C1135 C1133 1.387 . S
C1135 C1137 1.390 . S
C1135 H1139 0.950 . S
H1136 C1132 0.950 . S
C1137 C1135 1.390 . S
C1137 C1138 1.387 . S
C1137 H1140 0.950 . S
C1138 C1137 1.387 . S
C1138 C1141 1.387 . S
H1139 C1135 0.950 . S
H1140 C1137 0.950 . S
C1141 C1132 1.390 . S
C1141 H1134 0.950 . S
C1141 C1138 1.387 . S
C1142 C1143 1.387 . S
C1142 H1146 0.950 . S
C1142 C1151 1.390 . S
C1143 C1142 1.387 . S
C1143 C1145 1.387 . S
H1144 C1151 0.950 . S
C1145 C1143 1.387 . S
C1145 C1147 1.390 . S
C1145 H1149 0.950 . S
H1146 C1142 0.950 . S
C1147 C1145 1.390 . S
C1147 C1148 1.387 . S
C1147 H1150 0.950 . S
C1148 C1147 1.387 . S
C1148 C1151 1.387 . S
H1149 C1145 0.950 . S
H1150 C1147 0.950 . S
C1151 C1142 1.390 . S
C1151 H1144 0.950 . S
C1151 C1148 1.387 . S
C1152 C1153 1.387 . S
C1152 H1156 0.950 . S
C1152 C1161 1.390 . S
C1153 C1152 1.387 . S
C1153 C1155 1.387 . S
H1154 C1161 0.950 . S
C1155 C1153 1.387 . S
C1155 C1157 1.390 . S
C1155 H1159 0.950 . S
H1156 C1152 0.950 . S
C1157 C1155 1.390 . S
C1157 C1158 1.387 . S
C1157 H1160 0.950 . S
C1158 C1157 1.387 . S
C1158 C1161 1.387 . S
H1159 C1155 0.950 . S
H1160 C1157 0.950 . S
C1161 C1152 1.390 . S
C1161 H1154 0.950 . S
C1161 C1158 1.387 . S
C1162 C1163 1.387 . S
C1162 H1166 0.950 . S
C1162 C1171 1.390 . S
C1163 C1162 1.387 . S
C1163 C1165 1.387 . S
H1164 C1171 0.950 . S
C1165 C1163 1.387 . S
C1165 C1167 1.390 . S
C1165 H1169 0.950 . S
H1166 C1162 0.950 . S
C1167 C1165 1.390 . S
C1167 C1168 1.387 . S
C1167 H1170 0.950 . S
C1168 C1167 1.387 . S
C1168 C1171 1.387 . S
H1169 C1165 0.950 . S
H1170 C1167 0.950 . S
C1171 C1162 1.390 . S
C1171 H1164 0.950 . S
C1171 C1168 1.387 . S
C1172 C1173 1.387 . S
C1172 H1176 0.950 . S
C1172 C1181 1.390 . S
C1173 C1172 1.387 . S
C1173 C1175 1.387 . S
H1174 C1181 0.950 . S
C1175 C1173 1.387 . S
C1175 C1177 1.390 . S
C1175 H1179 0.950 . S
H1176 C1172 0.950 . S
C1177 C1175 1.390 . S
C1177 C1178 1.387 . S
C1177 H1180 0.950 1_565 S
C1178 C1177 1.387 . S
C1178 C1181 1.387 . S
H1179 C1175 0.950 . S
H1180 C1177 0.950 1_545 S
C1181 C1172 1.390 . S
C1181 H1174 0.950 . S
C1181 C1178 1.387 . S
C1182 C1183 1.387 . S
C1182 H1186 0.950 . S
C1182 C1191 1.390 . S
C1183 C1182 1.387 . S
C1183 C1185 1.387 . S
H1184 C1191 0.950 . S
C1185 C1183 1.387 . S
C1185 C1187 1.390 . S
C1185 H1189 0.950 1_556 S
H1186 C1182 0.950 . S
C1187 C1185 1.390 . S
C1187 C1188 1.387 . S
C1187 H1190 0.950 . S
C1188 C1187 1.387 . S
C1188 C1191 1.387 . S
H1189 C1185 0.950 1_554 S
H1190 C1187 0.950 . S
C1191 C1182 1.390 . S
C1191 H1184 0.950 . S
C1191 C1188 1.387 . S
C1192 C1193 1.387 . S
C1192 H1196 0.950 . S
C1192 C1201 1.390 . S
C1193 C1192 1.387 . S
C1193 C1195 1.387 . S
H1194 C1201 0.950 . S
C1195 C1193 1.387 . S
C1195 C1197 1.390 . S
C1195 H1199 0.950 . S
H1196 C1192 0.950 . S
C1197 C1195 1.390 . S
C1197 C1198 1.387 . S
C1197 H1200 0.950 . S
C1198 C1197 1.387 . S
C1198 C1201 1.387 . S
H1199 C1195 0.950 . S
H1200 C1197 0.950 . S
C1201 C1192 1.390 . S
C1201 H1194 0.950 . S
C1201 C1198 1.387 . S
C1202 C1203 1.387 . S
C1202 H1206 0.950 . S
C1202 C1211 1.390 . S
C1203 C1202 1.387 . S
C1203 C1205 1.387 . S
H1204 C1211 0.950 . S
C1205 C1203 1.387 . S
C1205 C1207 1.390 . S
C1205 H1209 0.959 . S
H1206 C1202 0.950 . S
C1207 C1205 1.390 . S
C1207 C1208 1.387 . S
C1207 H1210 0.950 . S
C1208 C1207 1.387 . S
C1208 C1211 1.387 . S
H1209 C1205 0.959 . S
H1210 C1207 0.950 . S
C1211 C1202 1.390 . S
C1211 H1204 0.950 . S
C1211 C1208 1.387 . S
C1212 C1213 1.387 . S
C1212 H1216 0.950 . S
C1212 C1221 1.390 . S
C1213 C1212 1.387 . S
C1213 C1215 1.387 . S
H1214 C1221 0.950 . S
C1215 C1213 1.387 . S
C1215 C1217 1.390 . S
C1215 H1219 0.950 1_545 S
H1216 C1212 0.950 . S
C1217 C1215 1.390 . S
C1217 C1218 1.387 . S
C1217 H1220 0.950 . S
C1218 C1217 1.387 . S
C1218 C1221 1.387 . S
H1219 C1215 0.950 1_565 S
H1220 C1217 0.950 . S
C1221 C1212 1.390 . S
C1221 H1214 0.950 . S
C1221 C1218 1.387 . S
C1222 C1223 1.387 . S
C1222 H1226 0.950 . S
C1222 C1231 1.390 . S
C1223 C1222 1.387 . S
C1223 C1225 1.387 . S
H1224 C1231 0.950 . S
C1225 C1223 1.387 . S
C1225 C1227 1.390 . S
C1225 H1229 0.950 . S
H1226 C1222 0.950 . S
C1227 C1225 1.390 . S
C1227 C1228 1.387 . S
C1227 H1230 0.950 . S
C1228 C1227 1.387 . S
C1228 C1231 1.387 . S
H1229 C1225 0.950 . S
H1230 C1227 0.950 . S
C1231 C1222 1.390 . S
C1231 H1224 0.950 . S
C1231 C1228 1.387 . S
C1232 C1233 1.387 . S
C1232 H1236 0.950 . S
C1232 C1241 1.390 . S
C1233 C1232 1.387 . S
C1233 C1235 1.387 . S
H1234 C1241 0.950 . S
C1235 C1233 1.387 . S
C1235 C1237 1.390 . S
C1235 H1239 0.950 . S
H1236 C1232 0.950 . S
C1237 C1235 1.390 . S
C1237 C1238 1.387 . S
C1237 H1240 0.950 . S
C1238 C1237 1.387 . S
C1238 C1241 1.387 . S
H1239 C1235 0.950 . S
H1240 C1237 0.950 . S
C1241 C1232 1.390 . S
C1241 H1234 0.950 . S
C1241 C1238 1.387 . S
C1242 C1243 1.387 . S
C1242 H1246 0.950 . S
C1242 C1251 1.390 1_455 S
C1243 C1242 1.387 . S
C1243 C1245 1.387 . S
H1244 C1251 0.950 . S
C1245 C1243 1.387 . S
C1245 C1247 1.390 1_455 S
C1245 H1249 0.950 . S
H1246 C1242 0.950 . S
C1247 C1245 1.390 1_655 S
C1247 C1248 1.387 . S
C1247 H1250 0.950 . S
C1248 C1247 1.387 . S
C1248 C1251 1.387 . S
H1249 C1245 0.950 . S
H1250 C1247 0.950 . S
C1251 C1242 1.390 1_655 S
C1251 H1244 0.950 . S
C1251 C1248 1.387 . S
C1252 C1253 1.387 . S
C1252 H1256 0.950 . S
C1252 C1261 1.390 . S
C1253 C1252 1.387 . S
C1253 C1255 1.387 . S
H1254 C1261 0.950 . S
C1255 C1253 1.387 . S
C1255 C1257 1.390 1_554 S
C1255 H1259 0.950 1_554 S
H1256 C1252 0.950 . S
C1257 C1255 1.390 1_556 S
C1257 C1258 1.387 1_556 S
C1257 H1260 0.950 . S
C1258 C1257 1.387 1_554 S
C1258 C1261 1.387 . S
H1259 C1255 0.950 1_556 S
H1260 C1257 0.950 . S
C1261 C1252 1.390 . S
C1261 H1254 0.950 . S
C1261 C1258 1.387 . S
C1262 C1263 1.387 . S
C1262 H1266 0.950 . S
C1262 C1271 1.390 1_665 S
C1263 C1262 1.387 . S
C1263 C1265 1.387 . S
H1264 C1271 0.950 . S
C1265 C1263 1.387 . S
C1265 C1267 1.390 1_665 S
C1265 H1269 0.950 . S
H1266 C1262 0.950 . S
C1267 C1265 1.390 1_445 S
C1267 C1268 1.387 . S
C1267 H1270 0.950 . S
C1268 C1267 1.387 . S
C1268 C1271 1.387 . S
H1269 C1265 0.950 . S
H1270 C1267 0.950 . S
C1271 C1262 1.390 1_445 S
C1271 H1264 0.950 . S
C1271 C1268 1.387 . S
C1272 C1273 1.387 . S
C1272 H1276 0.950 . S
C1272 C1281 1.390 . S
C1273 C1272 1.387 . S
C1273 C1275 1.387 . S
H1274 C1281 0.950 . S
C1275 C1273 1.387 . S
C1275 C1277 1.390 . S
C1275 H1279 0.950 . S
H1276 C1272 0.950 . S
C1277 C1275 1.390 . S
C1277 C1278 1.387 . S
C1277 H1280 0.950 . S
C1278 C1277 1.387 . S
C1278 C1281 1.387 . S
H1279 C1275 0.950 . S
H1280 C1277 0.950 . S
C1281 C1272 1.390 . S
C1281 H1274 0.950 . S
C1281 C1278 1.387 . S
C1282 C1283 1.387 . S
C1282 H1286 0.950 . S
C1282 C1291 1.390 . S
C1283 C1282 1.387 . S
C1283 C1285 1.387 . S
H1284 C1291 0.950 . S
C1285 C1283 1.387 . S
C1285 C1287 1.390 . S
C1285 H1289 0.950 . S
H1286 C1282 0.950 . S
C1287 C1285 1.390 . S
C1287 C1288 1.387 . S
C1287 H1290 0.950 . S
C1288 C1287 1.387 . S
C1288 C1291 1.387 . S
H1289 C1285 0.950 . S
H1290 C1287 0.950 . S
C1291 C1282 1.390 . S
C1291 H1284 0.950 . S
C1291 C1288 1.387 . S
C1292 C1293 1.387 1_554 S
C1292 H1296 0.950 . S
C1292 C1301 1.390 . S
C1293 C1292 1.387 1_556 S
C1293 C1295 1.387 . S
H1294 C1301 0.950 . S
C1295 C1293 1.387 . S
C1295 C1297 1.390 . S
C1295 H1299 0.950 . S
H1296 C1292 0.950 . S
C1297 C1295 1.390 . S
C1297 C1298 1.387 . S
C1297 H1300 0.950 . S
C1298 C1297 1.387 . S
C1298 C1301 1.387 1_556 S
H1299 C1295 0.950 . S
H1300 C1297 0.950 . S
C1301 C1292 1.390 . S
C1301 H1294 0.950 . S
C1301 C1298 1.387 1_554 S
C1302 C1303 1.387 . S
C1302 H1306 0.950 . S
C1302 C1311 1.390 1_565 S
C1303 C1302 1.387 . S
C1303 C1305 1.387 . S
H1304 C1311 0.950 . S
C1305 C1303 1.387 . S
C1305 C1307 1.390 1_565 S
C1305 H1309 0.950 . S
H1306 C1302 0.950 . S
C1307 C1305 1.390 1_545 S
C1307 C1308 1.387 . S
C1307 H1310 0.950 . S
C1308 C1307 1.387 . S
C1308 C1311 1.387 . S
H1309 C1305 0.950 . S
H1310 C1307 0.950 . S
C1311 C1302 1.390 1_545 S
C1311 H1304 0.950 . S
C1311 C1308 1.387 . S
C1312 C1313 1.387 . S
C1312 H1316 0.950 . S
C1312 C1321 1.390 . S
C1313 C1312 1.387 . S
C1313 C1315 1.387 . S
H1314 C1321 0.950 . S
C1315 C1313 1.387 . S
C1315 C1317 1.390 . S
C1315 H1319 0.950 . S
H1316 C1312 0.950 . S
C1317 C1315 1.390 . S
C1317 C1318 1.387 . S
C1317 H1320 0.950 . S
C1318 C1317 1.387 . S
C1318 C1321 1.387 . S
H1319 C1315 0.950 . S
H1320 C1317 0.950 . S
C1321 C1312 1.390 . S
C1321 H1314 0.950 . S
C1321 C1318 1.387 . S
C1322 C1323 1.387 . S
C1322 H1326 0.950 . S
C1322 C1331 1.390 . S
C1323 C1322 1.387 . S
C1323 C1325 1.387 . S
H1324 C1331 0.950 . S
C1325 C1323 1.387 . S
C1325 C1327 1.390 . S
C1325 H1329 0.950 . S
H1326 C1322 0.950 . S
C1327 C1325 1.390 . S
C1327 C1328 1.387 . S
C1327 H1330 0.950 . S
C1328 C1327 1.387 . S
C1328 C1331 1.387 . S
H1329 C1325 0.950 . S
H1330 C1327 0.950 . S
C1331 C1322 1.390 . S
C1331 H1324 0.950 . S
C1331 C1328 1.387 . S
C1332 C1333 1.387 . S
C1332 H1336 0.950 . S
C1332 C1341 1.390 . S
C1333 C1332 1.387 . S
C1333 C1335 1.387 . S
H1334 C1341 0.950 . S
C1335 C1333 1.387 . S
C1335 C1337 1.390 . S
C1335 H1339 0.950 . S
H1336 C1332 0.950 . S
C1337 C1335 1.390 . S
C1337 C1338 1.387 . S
C1337 H1340 0.950 . S
C1338 C1337 1.387 . S
C1338 C1341 1.387 . S
H1339 C1335 0.950 . S
H1340 C1337 0.950 . S
C1341 C1332 1.390 . S
C1341 H1334 0.950 . S
C1341 C1338 1.387 . S
C1342 C1343 1.387 . S
C1342 H1346 0.950 1_455 S
C1342 C1351 1.390 . S
C1343 C1342 1.387 . S
C1343 C1345 1.387 . S
H1344 C1351 0.950 1_655 S
C1345 C1343 1.387 . S
C1345 C1347 1.390 . S
C1345 H1349 0.950 . S
H1346 C1342 0.950 1_655 S
C1347 C1345 1.390 . S
C1347 C1348 1.387 . S
C1347 H1350 0.950 . S
C1348 C1347 1.387 . S
C1348 C1351 1.387 . S
H1349 C1345 0.950 . S
H1350 C1347 0.950 . S
C1351 C1342 1.390 . S
C1351 H1344 0.950 1_455 S
C1351 C1348 1.387 . S
C1352 C1353 1.387 . S
C1352 H1356 0.950 . S
C1352 C1361 1.390 . S
C1353 C1352 1.387 . S
C1353 C1355 1.404 . S
H1354 C1361 0.926 1_655 S
C1355 C1353 1.404 . S
C1355 C1357 1.375 1_556 S
C1355 H1359 0.948 1_556 S
H1356 C1352 0.950 . S
C1357 C1355 1.375 1_554 S
C1357 C1358 1.387 . S
C1357 H1360 0.950 . S
C1358 C1357 1.387 . S
C1358 C1361 1.387 1_554 S
H1359 C1355 0.948 1_554 S
H1360 C1357 0.950 . S
C1361 C1352 1.390 . S
C1361 H1354 0.926 1_455 S
C1361 C1358 1.387 1_556 S
C1362 C1363 1.387 . S
C1362 H1366 0.950 . S
C1362 C1371 1.390 . S
C1363 C1362 1.387 . S
C1363 C1365 1.387 . S
H1364 C1371 0.950 . S
C1365 C1363 1.387 . S
C1365 C1367 1.390 . S
C1365 H1369 0.950 . S
H1366 C1362 0.950 . S
C1367 C1365 1.390 . S
C1367 C1368 1.387 . S
C1367 H1370 0.950 . S
C1368 C1367 1.387 . S
C1368 C1371 1.387 . S
H1369 C1365 0.950 . S
H1370 C1367 0.950 . S
C1371 C1362 1.390 . S
C1371 H1364 0.950 . S
C1371 C1368 1.387 . S
C1372 C1373 1.387 . S
C1372 H1376 0.950 . S
C1372 C1381 1.390 1_554 S
C1373 C1372 1.387 . S
C1373 C1375 1.387 . S
H1374 C1381 0.950 . S
C1375 C1373 1.387 . S
C1375 C1377 1.390 1_554 S
C1375 H1379 0.950 . S
H1376 C1372 0.950 . S
C1377 C1375 1.390 1_556 S
C1377 C1378 1.387 . S
C1377 H1380 0.950 . S
C1378 C1377 1.387 . S
C1378 C1381 1.387 . S
H1379 C1375 0.950 . S
H1380 C1377 0.950 . S
C1381 C1372 1.390 1_556 S
C1381 H1374 0.950 . S
C1381 C1378 1.387 . S
C1382 C1383 1.387 . S
C1382 H1386 0.950 . S
C1382 C1391 1.390 . S
C1383 C1382 1.387 . S
C1383 C1385 1.387 1_545 S
H1384 C1391 0.950 . S
C1385 C1383 1.387 1_565 S
C1385 C1387 1.390 1_565 S
C1385 H1389 0.950 . S
H1386 C1382 0.950 . S
C1387 C1385 1.390 1_545 S
C1387 C1388 1.387 . S
C1387 H1390 0.946 1_545 S
C1388 C1387 1.387 . S
C1388 C1391 1.387 . S
H1389 C1385 0.950 . S
H1390 C1387 0.946 1_565 S
C1391 C1382 1.390 . S
C1391 H1384 0.950 . S
C1391 C1388 1.387 . S
C1392 C1393 1.387 . S
C1392 H1396 0.950 . S
C1392 C1401 1.390 . S
C1393 C1392 1.387 . S
C1393 C1395 1.387 . S
H1394 C1401 0.950 . S
C1395 C1393 1.387 . S
C1395 C1397 1.390 . S
C1395 H1399 0.950 . S
H1396 C1392 0.950 . S
C1397 C1395 1.390 . S
C1397 C1398 1.387 . S
C1397 H1400 0.950 1_556 S
C1398 C1397 1.387 . S
C1398 C1401 1.387 . S
H1399 C1395 0.950 . S
H1400 C1397 0.950 1_554 S
C1401 C1392 1.390 . S
C1401 H1394 0.950 . S
C1401 C1398 1.387 . S
C1402 C1403 1.387 . S
C1402 H1406 0.950 . S
C1402 C1411 1.390 . S
C1403 C1402 1.387 . S
C1403 C1405 1.387 . S
H1404 C1411 0.950 . S
C1405 C1403 1.387 . S
C1405 C1407 1.390 . S
C1405 H1409 0.950 . S
H1406 C1402 0.950 . S
C1407 C1405 1.390 . S
C1407 C1408 1.387 . S
C1407 H1410 0.950 . S
C1408 C1407 1.387 . S
C1408 C1411 1.387 . S
H1409 C1405 0.950 . S
H1410 C1407 0.950 . S
C1411 C1402 1.390 . S
C1411 H1404 0.950 . S
C1411 C1408 1.387 . S
C1412 C1413 1.387 . S
C1412 H1416 0.950 . S
C1412 C1421 1.390 . S
C1413 C1412 1.387 . S
C1413 C1415 1.387 . S
H1414 C1421 0.950 . S
C1415 C1413 1.387 . S
C1415 C1417 1.390 . S
C1415 H1419 0.950 . S
H1416 C1412 0.950 . S
C1417 C1415 1.390 . S
C1417 C1418 1.387 . S
C1417 H1420 0.950 . S
C1418 C1417 1.387 . S
C1418 C1421 1.387 . S
H1419 C1415 0.950 . S
H1420 C1417 0.950 . S
C1421 C1412 1.390 . S
C1421 H1414 0.950 . S
C1421 C1418 1.387 . S
C1422 C1423 1.387 . S
C1422 H1426 0.950 . S
C1422 C1431 1.390 . S
C1423 C1422 1.387 . S
C1423 C1425 1.387 . S
H1424 C1431 0.950 . S
C1425 C1423 1.387 . S
C1425 C1427 1.390 . S
C1425 H1429 0.950 1_565 S
H1426 C1422 0.950 . S
C1427 C1425 1.390 . S
C1427 C1428 1.387 . S
C1427 H1430 0.950 . S
C1428 C1427 1.387 . S
C1428 C1431 1.387 . S
H1429 C1425 0.950 1_545 S
H1430 C1427 0.950 . S
C1431 C1422 1.390 . S
C1431 H1424 0.950 . S
C1431 C1428 1.387 . S
C1432 C1433 1.387 . S
C1432 H1436 0.950 . S
C1432 C1441 1.390 . S
C1433 C1432 1.387 . S
C1433 C1435 1.387 . S
H1434 C1441 0.950 . S
C1435 C1433 1.387 . S
C1435 C1437 1.390 . S
C1435 H1439 0.950 . S
H1436 C1432 0.950 . S
C1437 C1435 1.390 . S
C1437 C1438 1.387 . S
C1437 H1440 0.950 . S
C1438 C1437 1.387 . S
C1438 C1441 1.387 . S
H1439 C1435 0.950 . S
H1440 C1437 0.950 . S
C1441 C1432 1.390 . S
C1441 H1434 0.950 . S
C1441 C1438 1.387 . S
C1442 C1443 1.387 . S
C1442 H1446 0.950 . S
C1442 C1451 1.390 . S
C1443 C1442 1.387 . S
C1443 C1445 1.387 . S
H1444 C1451 0.950 . S
C1445 C1443 1.387 . S
C1445 C1447 1.390 . S
C1445 H1449 0.950 . S
H1446 C1442 0.950 . S
C1447 C1445 1.390 . S
C1447 C1448 1.387 . S
C1447 H1450 0.950 . S
C1448 C1447 1.387 . S
C1448 C1451 1.387 . S
H1449 C1445 0.950 . S
H1450 C1447 0.950 . S
C1451 C1442 1.390 . S
C1451 H1444 0.950 . S
C1451 C1448 1.387 . S
C1452 C1453 1.387 . S
C1452 H1456 0.950 . S
C1452 C1461 1.390 . S
C1453 C1452 1.387 . S
C1453 C1455 1.387 . S
H1454 C1461 0.950 . S
C1455 C1453 1.387 . S
C1455 C1457 1.390 . S
C1455 H1459 0.950 . S
H1456 C1452 0.950 . S
C1457 C1455 1.390 . S
C1457 C1458 1.387 . S
C1457 H1460 0.950 . S
C1458 C1457 1.387 . S
C1458 C1461 1.387 . S
H1459 C1455 0.950 . S
H1460 C1457 0.950 . S
C1461 C1452 1.390 . S
C1461 H1454 0.950 . S
C1461 C1458 1.387 . S
C1462 C1463 1.387 . S
C1462 H1466 0.950 1_554 S
C1462 C1471 1.390 1_554 S
C1463 C1462 1.387 . S
C1463 C1465 1.387 . S
H1464 C1471 0.950 . S
C1465 C1463 1.387 . S
C1465 C1467 1.390 . S
C1465 H1469 0.950 . S
H1466 C1462 0.950 1_556 S
C1467 C1465 1.390 . S
C1467 C1468 1.387 . S
C1467 H1470 0.950 . S
C1468 C1467 1.387 . S
C1468 C1471 1.387 1_554 S
H1469 C1465 0.950 . S
H1470 C1467 0.950 . S
C1471 C1462 1.390 1_556 S
C1471 H1464 0.950 . S
C1471 C1468 1.387 1_556 S
C1472 C1473 1.387 . S
C1472 H1476 0.950 . S
C1472 C1481 1.390 . S
C1473 C1472 1.387 . S
C1473 C1475 1.387 . S
H1474 C1481 0.950 . S
C1475 C1473 1.387 . S
C1475 C1477 1.390 . S
C1475 H1479 0.950 . S
H1476 C1472 0.950 . S
C1477 C1475 1.390 . S
C1477 C1478 1.387 . S
C1477 H1480 0.950 . S
C1478 C1477 1.387 . S
C1478 C1481 1.387 . S
H1479 C1475 0.950 . S
H1480 C1477 0.950 . S
C1481 C1472 1.390 . S
C1481 H1474 0.950 . S
C1481 C1478 1.387 . S
C1482 C1483 1.387 . S
C1482 H1486 0.950 . S
C1482 C1491 1.390 . S
C1483 C1482 1.387 . S
C1483 C1485 1.387 1_556 S
H1484 C1491 0.950 . S
C1485 C1483 1.387 1_554 S
C1485 C1487 1.390 . S
C1485 H1489 0.950 . S
H1486 C1482 0.950 . S
C1487 C1485 1.390 . S
C1487 C1488 1.387 1_554 S
C1487 H1490 0.950 . S
C1488 C1487 1.387 1_556 S
C1488 C1491 1.387 . S
H1489 C1485 0.950 . S
H1490 C1487 0.950 . S
C1491 C1482 1.390 . S
C1491 H1484 0.950 . S
C1491 C1488 1.387 . S
C1492 C1493 1.387 . S
C1492 H1496 0.950 . S
C1492 C1501 1.390 . S
C1493 C1492 1.387 . S
C1493 C1495 1.387 . S
H1494 C1501 0.950 . S
C1495 C1493 1.387 . S
C1495 C1497 1.390 . S
C1495 H1499 0.950 . S
H1496 C1492 0.950 . S
C1497 C1495 1.390 . S
C1497 C1498 1.387 . S
C1497 H1500 0.950 . S
C1498 C1497 1.387 . S
C1498 C1501 1.387 . S
H1499 C1495 0.950 . S
H1500 C1497 0.950 . S
C1501 C1492 1.390 . S
C1501 H1494 0.950 . S
C1501 C1498 1.387 . S
C1502 C1503 1.387 . S
C1502 H1506 0.950 . S
C1502 C1511 1.390 . S
C1503 C1502 1.387 . S
C1503 C1505 1.387 . S
H1504 C1511 0.950 . S
C1505 C1503 1.387 . S
C1505 C1507 1.390 . S
C1505 H1509 0.950 . S
H1506 C1502 0.950 . S
C1507 C1505 1.390 . S
C1507 C1508 1.387 . S
C1507 H1510 0.950 . S
C1508 C1507 1.387 . S
C1508 C1511 1.387 . S
H1509 C1505 0.950 . S
H1510 C1507 0.950 . S
C1511 C1502 1.390 . S
C1511 H1504 0.950 . S
C1511 C1508 1.387 . S
C1512 C1513 1.387 . S
C1512 H1516 0.950 1_655 S
C1512 C1521 1.390 . S
C1513 C1512 1.387 . S
C1513 C1515 1.387 . S
H1514 C1521 0.931 1_455 S
C1515 C1513 1.387 . S
C1515 C1517 1.390 . S
C1515 H1519 0.950 . S
H1516 C1512 0.950 1_455 S
C1517 C1515 1.390 . S
C1517 C1518 1.387 . S
C1517 H1520 0.950 . S
C1518 C1517 1.387 . S
C1518 C1521 1.387 . S
H1519 C1515 0.950 . S
H1520 C1517 0.950 . S
C1521 C1512 1.390 . S
C1521 H1514 0.931 1_655 S
C1521 C1518 1.387 . S
C1522 C1523 1.390 . S
C1522 H1526 0.950 . S
C1522 C1531 1.388 1_554 S
C1523 C1522 1.390 . S
C1523 C1525 1.387 . S
H1524 C1531 0.950 . S
C1525 C1523 1.387 . S
C1525 C1527 1.390 1_554 S
C1525 H1529 0.950 . S
H1526 C1522 0.950 . S
C1527 C1525 1.390 1_556 S
C1527 C1528 1.387 . S
C1527 H1530 0.950 . S
C1528 C1527 1.387 . S
C1528 C1531 1.387 . S
H1529 C1525 0.950 . S
H1530 C1527 0.950 . S
C1531 C1522 1.388 1_556 S
C1531 H1524 0.950 . S
C1531 C1528 1.387 . S
C1532 C1533 1.387 . S
C1532 H1536 0.950 . S
C1532 C1541 1.390 . S
C1533 C1532 1.387 . S
C1533 C1535 1.387 . S
H1534 C1541 0.950 . S
C1535 C1533 1.387 . S
C1535 C1537 1.390 . S
C1535 H1539 0.950 . S
H1536 C1532 0.950 . S
C1537 C1535 1.390 . S
C1537 C1538 1.387 . S
C1537 H1540 0.950 . S
C1538 C1537 1.387 . S
C1538 C1541 1.387 . S
H1539 C1535 0.950 . S
H1540 C1537 0.950 . S
C1541 C1532 1.390 . S
C1541 H1534 0.950 . S
C1541 C1538 1.387 . S
C1542 C1543 1.387 . S
C1542 H1546 0.950 . S
C1542 C1551 1.390 . S
C1543 C1542 1.387 . S
C1543 C1545 1.387 . S
H1544 C1551 0.950 1_455 S
C1545 C1543 1.387 . S
C1545 C1547 1.390 . S
C1545 H1549 0.950 . S
H1546 C1542 0.950 . S
C1547 C1545 1.390 . S
C1547 C1548 1.387 . S
C1547 H1550 0.950 . S
C1548 C1547 1.387 . S
C1548 C1551 1.387 . S
H1549 C1545 0.950 . S
H1550 C1547 0.950 . S
C1551 C1542 1.390 . S
C1551 H1544 0.950 1_655 S
C1551 C1548 1.387 . S
C1552 C1553 1.387 . S
C1552 H1556 0.950 . S
C1552 C1561 1.390 . S
C1553 C1552 1.387 . S
C1553 C1555 1.387 . S
H1554 C1561 0.950 . S
C1555 C1553 1.387 . S
C1555 C1557 1.390 . S
C1555 H1559 0.950 . S
H1556 C1552 0.950 . S
C1557 C1555 1.390 . S
C1557 C1558 1.387 . S
C1557 H1560 0.950 . S
C1558 C1557 1.387 . S
C1558 C1561 1.387 . S
H1559 C1555 0.950 . S
H1560 C1557 0.950 . S
C1561 C1552 1.390 . S
C1561 H1554 0.950 . S
C1561 C1558 1.387 . S
C1562 C1563 1.387 . S
C1562 H1566 0.950 . S
C1562 C1571 1.390 . S
C1563 C1562 1.387 . S
C1563 C1565 1.387 . S
H1564 C1571 0.950 . S
C1565 C1563 1.387 . S
C1565 C1567 1.390 . S
C1565 H1569 0.950 . S
H1566 C1562 0.950 . S
C1567 C1565 1.390 . S
C1567 C1568 1.387 . S
C1567 H1570 0.950 . S
C1568 C1567 1.387 . S
C1568 C1571 1.387 . S
H1569 C1565 0.950 . S
H1570 C1567 0.950 . S
C1571 C1562 1.390 . S
C1571 H1564 0.950 . S
C1571 C1568 1.387 . S
C1572 C1573 1.387 . S
C1572 H1576 0.950 . S
C1572 C1581 1.390 . S
C1573 C1572 1.387 . S
C1573 C1575 1.387 . S
H1574 C1581 0.950 . S
C1575 C1573 1.387 . S
C1575 C1577 1.390 . S
C1575 H1579 0.950 . S
H1576 C1572 0.950 . S
C1577 C1575 1.390 . S
C1577 C1578 1.387 . S
C1577 H1580 0.950 . S
C1578 C1577 1.387 . S
C1578 C1581 1.387 . S
H1579 C1575 0.950 . S
H1580 C1577 0.950 . S
C1581 C1572 1.390 . S
C1581 H1574 0.950 . S
C1581 C1578 1.387 . S
C1582 C1583 1.387 . S
C1582 H1586 0.950 . S
C1582 C1591 1.390 1_565 S
C1583 C1582 1.387 . S
C1583 C1585 1.387 . S
H1584 C1591 0.950 . S
C1585 C1583 1.387 . S
C1585 C1587 1.390 1_565 S
C1585 H1589 0.950 . S
H1586 C1582 0.950 . S
C1587 C1585 1.390 1_545 S
C1587 C1588 1.387 . S
C1587 H1590 0.950 . S
C1588 C1587 1.387 . S
C1588 C1591 1.387 . S
H1589 C1585 0.950 . S
H1590 C1587 0.950 . S
C1591 C1582 1.390 1_545 S
C1591 H1584 0.950 . S
C1591 C1588 1.387 . S
C1592 C1593 1.387 . S
C1592 H1596 0.950 . S
C1592 C1601 1.390 1_455 S
C1593 C1592 1.387 . S
C1593 C1595 1.387 . S
H1594 C1601 0.950 . S
C1595 C1593 1.387 . S
C1595 C1597 1.390 1_455 S
C1595 H1599 0.950 . S
H1596 C1592 0.950 . S
C1597 C1595 1.390 1_655 S
C1597 C1598 1.387 . S
C1597 H1600 0.950 . S
C1598 C1597 1.387 . S
C1598 C1601 1.387 . S
H1599 C1595 0.950 . S
H1600 C1597 0.950 . S
C1601 C1592 1.390 1_655 S
C1601 H1594 0.950 . S
C1601 C1598 1.387 . S
C1602 C1603 1.387 . S
C1602 H1606 0.950 . S
C1602 C1611 1.390 1_445 S
C1603 C1602 1.387 . S
C1603 C1605 1.387 . S
H1604 C1611 0.950 . S
C1605 C1603 1.387 . S
C1605 C1607 1.390 1_445 S
C1605 H1609 0.950 . S
H1606 C1602 0.950 . S
C1607 C1605 1.390 1_665 S
C1607 C1608 1.387 . S
C1607 H1610 0.950 . S
C1608 C1607 1.387 . S
C1608 C1611 1.387 . S
H1609 C1605 0.950 . S
H1610 C1607 0.950 . S
C1611 C1602 1.390 1_665 S
C1611 H1604 0.950 . S
C1611 C1608 1.387 . S
C1612 C1613 1.387 . S
C1612 H1616 0.950 . S
C1612 C1621 1.390 . S
C1613 C1612 1.387 . S
C1613 C1615 1.387 1_556 S
H1614 C1621 0.950 . S
C1615 C1613 1.387 1_554 S
C1615 C1617 1.390 . S
C1615 H1619 0.950 . S
H1616 C1612 0.950 . S
C1617 C1615 1.390 . S
C1617 C1618 1.387 . S
C1617 H1620 0.950 . S
C1618 C1617 1.387 . S
C1618 C1621 1.387 1_554 S
H1619 C1615 0.950 . S
H1620 C1617 0.950 . S
C1621 C1612 1.390 . S
C1621 H1614 0.950 . S
C1621 C1618 1.387 1_556 S
C1622 C1623 1.387 . S
C1622 H1626 0.950 . S
C1622 C1631 1.390 . S
C1623 C1622 1.387 . S
C1623 C1625 1.387 . S
H1624 C1631 0.950 . S
C1625 C1623 1.387 . S
C1625 C1627 1.390 . S
C1625 H1629 0.950 . S
H1626 C1622 0.950 . S
C1627 C1625 1.390 . S
C1627 C1628 1.387 . S
C1627 H1630 0.950 . S
C1628 C1627 1.387 . S
C1628 C1631 1.387 . S
H1629 C1625 0.950 . S
H1630 C1627 0.950 . S
C1631 C1622 1.390 . S
C1631 H1624 0.950 . S
C1631 C1628 1.387 . S
C673 C385 1.332 . S
C678 C7 1.342 . S
C683 C21 0.810 . S
C688 C541 0.790 . S
C693 C35 1.029 . S
C698 C357 1.097 . S
C703 C569 1.379 . S
C708 C49 1.399 . S
C713 C399 0.995 . S
C718 C65 0.927 . S
C723 C77 1.330 . S
C728 C315 1.344 . S
C733 C427 1.183 . S
C738 C93 1.140 . S
C743 C105 1.095 . S
C748 C287 1.035 . S
C753 C499 1.149 . S
C758 C107 1.136 . S
C763 C469 0.622 . S
C768 C63 0.634 . S
C773 C79 0.889 . S
C778 C597 0.877 . S
C783 C483 0.941 . S
C788 C91 0.957 . S
C793 C121 0.968 . S
C798 C191 0.950 . S
C803 C203 0.751 . S
C808 C135 0.752 . S
C813 C219 1.013 . S
C818 C149 1.041 . S
C823 C175 1.027 . S
C828 C163 0.951 . S
C833 C189 0.941 . S
C838 C343 0.957 . S
C843 C205 0.631 . S
C848 C555 0.607 . S
C853 C371 0.637 . S
C858 C217 0.620 . S
C863 C387 0.889 . S
C868 C233 0.877 . S
C873 C245 1.027 . S
C878 C415 0.955 . S
C883 C261 0.684 . S
C888 C51 0.652 . S
C893 C275 1.368 . S
C898 C23 1.341 . S
C903 C625 1.380 . S
C908 C301 1.402 . S
C913 C653 0.790 . S
C918 C329 0.810 . S
C923 C345 1.142 . S
C928 C119 1.182 . S
C933 C373 0.928 . S
C938 C147 0.998 . S
C943 C359 1.139 . S
C948 C611 1.147 . S
C953 C471 1.008 . S
C958 C401 1.039 . S
C963 C485 0.952 . S
C968 C429 0.966 . S
C973 C455 0.750 . S
C978 C443 0.753 . S
C983 C247 1.248 . S
C988 C639 1.286 . S
C993 C513 1.368 . S
C998 C331 1.341 . S
C1003 C303 0.647 . S
C1008 C527 0.673 . S
C1013 C665 1.637 . S
C1018 C441 1.660 . S
C1023 C413 0.733 . S
C1028 C637 0.726 . S
C1033 C133 1.659 . S
C1038 C553 1.640 . S
C1043 C161 0.729 . S
C1048 C581 0.728 . S
C1053 C177 1.250 . S
C1058 C583 1.284 . S
C1063 C273 0.943 . S
C1068 C539 0.931 . S
C1073 C259 0.933 . S
C1078 C567 0.924 . S
C1083 C317 0.991 . S
C1088 C595 0.966 . S
C1093 C289 0.688 . S
C1098 C497 0.693 . S
C1103 C623 0.927 . S
C1108 C525 0.932 . S
C1113 C651 0.929 . S
C1118 C511 0.945 . S
C1123 C667 0.607 . S
C1128 C457 0.631 . S
C1133 C609 0.694 . S
C1138 C37 0.687 . S
C1143 C231 0.971 . S
C1148 C9 0.994 . S
C1153 C8 1.942 . S
C1158 C647 2.050 . S
C1163 C22 1.826 . S
C1168 C666 1.959 . S
C1173 C36 1.631 . S
C1178 C619 1.524 1_565 S
C1183 C50 2.114 . S
C1188 C638 2.035 . S
C1193 C59 1.840 . S
C1198 C134 1.666 . S
C1203 C78 1.793 . S
C1208 C148 1.579 . S
C1213 C87 1.773 . S
C1218 C162 1.934 . S
C1223 C106 2.014 . S
C1228 C120 2.300 . S
C1233 C101 2.281 . S
C1238 C549 2.079 . S
C1243 C64 1.758 . S
C1248 C372 1.758 . S
C1253 C73 1.503 . S
C1258 C577 1.624 . S
C1263 C92 2.017 . S
C1268 C344 2.016 . S
C1273 C115 1.320 . S
C1278 C325 1.417 . S
C1283 C129 2.300 . S
C1288 C437 2.300 . S
C1293 C143 1.926 . S
C1298 C297 1.648 . S
C1303 C409 1.510 . S
C1308 C157 1.510 . S
C1313 C176 2.202 . S
C1318 C274 2.186 . S
C1323 C190 1.600 . S
C1328 C232 1.589 . S
C1333 C269 1.857 . S
C1338 C199 1.969 . S
C1343 C610 2.319 . S
C1348 C218 2.302 . S
C1353 C213 2.049 . S
C1358 C227 2.183 . S
C1363 C512 2.184 . S
C1368 C246 2.200 . S
C1373 C171 1.749 . S
C1378 C255 1.847 . S
C1383 C563 1.524 1_545 S
C1388 C288 1.629 . S
C1393 C582 2.033 . S
C1398 C302 2.118 . S
C1403 C316 1.944 . S
C1408 C535 2.051 . S
C1413 C554 1.960 . S
C1418 C330 1.827 . S
C1423 C339 1.773 . S
C1428 C414 1.934 . S
C1433 C428 2.297 . S
C1438 C358 2.018 . S
C1443 C367 1.840 . S
C1448 C442 1.668 . S
C1453 C400 1.581 . S
C1458 C386 1.795 . S
C1463 C381 1.507 . S
C1468 C633 1.627 . S
C1473 C661 2.082 . S
C1478 C353 2.283 . S
C1483 C395 1.922 . S
C1488 C45 1.644 . S
C1493 C17 1.420 . S
C1498 C423 1.316 . S
C1503 C526 1.542 . S
C1508 C456 1.552 . S
C1513 C498 2.319 . S
C1518 C470 2.301 . S
C1523 C241 1.750 . S
C1528 C521 1.848 . S
C1533 C484 1.600 . S
C1538 C596 1.589 . S
C1543 C493 1.860 . S
C1548 C479 2.011 . S
C1553 C204 1.555 . S
C1558 C260 1.546 . S
C1563 C451 1.968 . S
C1568 C507 1.856 . S
C1573 C652 1.569 . S
C1578 C540 1.569 . S
C1583 C568 1.912 . S
C1588 C624 1.911 . S
C1593 C3 2.135 . S
C1598 C311 2.135 . S
C1603 C283 1.914 . S
C1608 C31 1.914 . S
C1613 C465 2.047 . S
C1618 C591 2.182 . S
C1623 C185 2.011 . S
C1628 C605 1.862 . S
