# Generated by pormake.
# Topology zfv, (5)-cn, num edge types: 1
# Building blocks:
#     Node 0, Type 0, BuildingBlock: XOMCOT_clean_sbu_1, # of connection points: 5
#     Node 1, Type 0, BuildingBlock: XOMCOT_clean_sbu_1, # of connection points: 5
#     Node 2, Type 0, BuildingBlock: XOMCOT_clean_sbu_1, # of connection points: 5
#     Node 3, Type 0, BuildingBlock: XOMCOT_clean_sbu_1, # of connection points: 5
#     Node 4, Type 0, BuildingBlock: XOMCOT_clean_sbu_1, # of connection points: 5
#     Node 5, Type 0, BuildingBlock: XOMCOT_clean_sbu_1, # of connection points: 5
#     Node 6, Type 0, BuildingBlock: XOMCOT_clean_sbu_1, # of connection points: 5
#     Node 7, Type 0, BuildingBlock: XOMCOT_clean_sbu_1, # of connection points: 5
#     Node 8, Type 0, BuildingBlock: XOMCOT_clean_sbu_1, # of connection points: 5
#     Node 9, Type 0, BuildingBlock: XOMCOT_clean_sbu_1, # of connection points: 5
#     Node 10, Type 0, BuildingBlock: XOMCOT_clean_sbu_1, # of connection points: 5
#     Node 11, Type 0, BuildingBlock: XOMCOT_clean_sbu_1, # of connection points: 5
#     Node 12, Type 0, BuildingBlock: XOMCOT_clean_sbu_1, # of connection points: 5
#     Node 13, Type 0, BuildingBlock: XOMCOT_clean_sbu_1, # of connection points: 5
#     Node 14, Type 0, BuildingBlock: XOMCOT_clean_sbu_1, # of connection points: 5
#     Node 15, Type 0, BuildingBlock: XOMCOT_clean_sbu_1, # of connection points: 5
#     Edge 16, Type (0, 0), BuildingBlock: ZUJKAS_clean_linker_0, # of connection points: 2
#     Edge 17, Type (0, 0), BuildingBlock: ZUJKAS_clean_linker_0, # of connection points: 2
#     Edge 18, Type (0, 0), BuildingBlock: ZUJKAS_clean_linker_0, # of connection points: 2
#     Edge 19, Type (0, 0), BuildingBlock: ZUJKAS_clean_linker_0, # of connection points: 2
#     Edge 20, Type (0, 0), BuildingBlock: ZUJKAS_clean_linker_0, # of connection points: 2
#     Edge 21, Type (0, 0), BuildingBlock: ZUJKAS_clean_linker_0, # of connection points: 2
#     Edge 22, Type (0, 0), BuildingBlock: ZUJKAS_clean_linker_0, # of connection points: 2
#     Edge 23, Type (0, 0), BuildingBlock: ZUJKAS_clean_linker_0, # of connection points: 2
#     Edge 24, Type (0, 0), BuildingBlock: ZUJKAS_clean_linker_0, # of connection points: 2
#     Edge 25, Type (0, 0), BuildingBlock: ZUJKAS_clean_linker_0, # of connection points: 2
#     Edge 26, Type (0, 0), BuildingBlock: ZUJKAS_clean_linker_0, # of connection points: 2
#     Edge 27, Type (0, 0), BuildingBlock: ZUJKAS_clean_linker_0, # of connection points: 2
#     Edge 28, Type (0, 0), BuildingBlock: ZUJKAS_clean_linker_0, # of connection points: 2
#     Edge 29, Type (0, 0), BuildingBlock: ZUJKAS_clean_linker_0, # of connection points: 2
#     Edge 30, Type (0, 0), BuildingBlock: ZUJKAS_clean_linker_0, # of connection points: 2
#     Edge 31, Type (0, 0), BuildingBlock: ZUJKAS_clean_linker_0, # of connection points: 2
#     Edge 32, Type (0, 0), BuildingBlock: ZUJKAS_clean_linker_0, # of connection points: 2
#     Edge 33, Type (0, 0), BuildingBlock: ZUJKAS_clean_linker_0, # of connection points: 2
#     Edge 34, Type (0, 0), BuildingBlock: ZUJKAS_clean_linker_0, # of connection points: 2
#     Edge 35, Type (0, 0), BuildingBlock: ZUJKAS_clean_linker_0, # of connection points: 2
#     Edge 36, Type (0, 0), BuildingBlock: ZUJKAS_clean_linker_0, # of connection points: 2
#     Edge 37, Type (0, 0), BuildingBlock: ZUJKAS_clean_linker_0, # of connection points: 2
#     Edge 38, Type (0, 0), BuildingBlock: ZUJKAS_clean_linker_0, # of connection points: 2
#     Edge 39, Type (0, 0), BuildingBlock: ZUJKAS_clean_linker_0, # of connection points: 2
#     Edge 40, Type (0, 0), BuildingBlock: ZUJKAS_clean_linker_0, # of connection points: 2
#     Edge 41, Type (0, 0), BuildingBlock: ZUJKAS_clean_linker_0, # of connection points: 2
#     Edge 42, Type (0, 0), BuildingBlock: ZUJKAS_clean_linker_0, # of connection points: 2
#     Edge 43, Type (0, 0), BuildingBlock: ZUJKAS_clean_linker_0, # of connection points: 2
#     Edge 44, Type (0, 0), BuildingBlock: ZUJKAS_clean_linker_0, # of connection points: 2
#     Edge 45, Type (0, 0), BuildingBlock: ZUJKAS_clean_linker_0, # of connection points: 2
#     Edge 46, Type (0, 0), BuildingBlock: ZUJKAS_clean_linker_0, # of connection points: 2
#     Edge 47, Type (0, 0), BuildingBlock: ZUJKAS_clean_linker_0, # of connection points: 2
#     Edge 48, Type (0, 0), BuildingBlock: ZUJKAS_clean_linker_0, # of connection points: 2
#     Edge 49, Type (0, 0), BuildingBlock: ZUJKAS_clean_linker_0, # of connection points: 2
#     Edge 50, Type (0, 0), BuildingBlock: ZUJKAS_clean_linker_0, # of connection points: 2
#     Edge 51, Type (0, 0), BuildingBlock: ZUJKAS_clean_linker_0, # of connection points: 2
#     Edge 52, Type (0, 0), BuildingBlock: ZUJKAS_clean_linker_0, # of connection points: 2
#     Edge 53, Type (0, 0), BuildingBlock: ZUJKAS_clean_linker_0, # of connection points: 2
#     Edge 54, Type (0, 0), BuildingBlock: ZUJKAS_clean_linker_0, # of connection points: 2
#     Edge 55, Type (0, 0), BuildingBlock: ZUJKAS_clean_linker_0, # of connection points: 2
# Relax obj value: 0.104
# Max RMSD: 0.114
# Mean RMSD: 0.114
data_MOF--net-zfv--node1-XOMCOT_clean_sbu_1--edge1-ZUJKAS_clean_linker_0
_symmetry_space_group_name_H-M    P1
_symmetry_Int_Tables_number       1
_symmetry_cell_setting            triclinic
loop_
_symmetry_equiv_pos_as_xyz
'x, y, z'
_cell_length_a     97.43076
_cell_length_b     97.494182
_cell_length_c     22.106455
_cell_angle_alpha  90.000412
_cell_angle_beta   90.056925
_cell_angle_gamma 89.999383
loop_
_atom_site_label
_atom_site_type_symbol
_atom_site_fract_x
_atom_site_fract_y
_atom_site_fract_z
_atom_type_partial_charge
C0 C 0.07088 0.5771 0.14802 0.0
C1 C 0.07307 0.57562 0.20902 0.0
N2 N 0.07657 0.58791 0.23211 0.0
N3 N 0.07312 0.59024 0.13182 0.0
C4 C 0.07653 0.59663 0.18431 0.0
H5 H 0.06731 0.56911 0.11802 0.0
Co6 Co 0.06991 0.59722 0.0537 0.0
C7 C 0.09303 0.61657 0.02646 0.0
O8 O 0.08588 0.62258 0.98369 0.0
N9 N 0.06615 0.60387 0.97393 0.0
C10 C 0.05597 0.614 0.89534 0.0
C11 C 0.0557 0.61215 0.95689 0.0
C12 C 0.07248 0.60067 0.92091 0.0
N13 N 0.06653 0.60678 0.87249 0.0
O14 O 0.07884 0.58138 0.01976 0.0
H15 H 0.04808 0.61648 0.98664 0.0
H16 H 0.0814 0.5941 0.91789 0.0
O17 O 0.08769 0.60679 0.05716 0.0
C18 C 0.07069 0.57251 0.99716 0.0
O19 O 0.05749 0.57529 0.99622 0.0
N20 N 0.06025 0.61201 0.08855 0.0
C21 C 0.04219 0.63131 0.13768 0.0
C22 C 0.05591 0.63475 0.12566 0.0
C23 C 0.06481 0.62494 0.1014 0.0
C24 C 0.04712 0.60832 0.10227 0.0
C25 C 0.0379 0.61781 0.12647 0.0
H26 H 0.07526 0.62792 0.09355 0.0
H27 H 0.04373 0.59797 0.09303 0.0
H28 H 0.07864 0.60749 0.18768 0.0
H29 H 0.0715 0.56633 0.2349 0.0
H30 H 0.04865 0.6199 0.86924 0.0
H31 H 0.05969 0.64504 0.13369 0.0
H32 H 0.0275 0.61458 0.1362 0.0
C33 C 0.72595 0.75009 0.41042 0.0
C34 C 0.72897 0.74991 0.47116 0.0
N35 N 0.72437 0.76166 0.49621 0.0
N36 N 0.71947 0.76189 0.39662 0.0
C37 C 0.7188 0.76883 0.44972 0.0
H38 H 0.72783 0.74187 0.37864 0.0
Co39 Co 0.71233 0.76535 0.31908 0.0
C40 C 0.69068 0.78574 0.36106 0.0
O41 O 0.68061 0.77684 0.358 0.0
N42 N 0.70556 0.76882 0.23935 0.0
C43 C 0.69183 0.7733 0.16103 0.0
C44 C 0.69255 0.77181 0.22268 0.0
C45 C 0.71251 0.76844 0.18609 0.0
N46 N 0.70441 0.77122 0.13769 0.0
O47 O 0.72834 0.77614 0.30206 0.0
H48 H 0.68387 0.7723 0.25256 0.0
H49 H 0.72331 0.76614 0.18259 0.0
O50 O 0.70297 0.7822 0.34758 0.0
C51 C 0.73846 0.76886 0.28468 0.0
O52 O 0.73651 0.75564 0.2769 0.0
N53 N 0.69727 0.75342 0.33637 0.0
C54 C 0.67789 0.73296 0.36206 0.0
C55 C 0.68145 0.74277 0.40561 0.0
C56 C 0.69128 0.75272 0.39229 0.0
C57 C 0.69431 0.74357 0.2943 0.0
C58 C 0.68446 0.73345 0.30569 0.0
H59 H 0.69383 0.76005 0.42704 0.0
H60 H 0.69983 0.7433 0.25192 0.0
H61 H 0.71382 0.77868 0.45469 0.0
H62 H 0.73353 0.74142 0.49548 0.0
H63 H 0.68258 0.77528 0.13533 0.0
H64 H 0.67666 0.74281 0.4498 0.0
H65 H 0.68234 0.72581 0.27136 0.0
C66 C 0.54095 0.42121 0.68526 0.0
C67 C 0.53879 0.42253 0.74636 0.0
N68 N 0.535 0.41024 0.76863 0.0
N69 N 0.5384 0.40818 0.66827 0.0
C70 C 0.53485 0.40169 0.72028 0.0
H71 H 0.54459 0.42922 0.65555 0.0
Co72 Co 0.54109 0.40142 0.58945 0.0
C73 C 0.51154 0.39424 0.57287 0.0
O74 O 0.50897 0.40509 0.53958 0.0
N75 N 0.54411 0.39484 0.5098 0.0
C76 C 0.55514 0.38618 0.4303 0.0
C77 C 0.55567 0.38842 0.49155 0.0
C78 C 0.53683 0.39664 0.45798 0.0
N79 N 0.54331 0.3914 0.4089 0.0
O80 O 0.53278 0.41776 0.55741 0.0
H81 H 0.56428 0.38596 0.52045 0.0
H82 H 0.52719 0.4021 0.45581 0.0
O83 O 0.52357 0.39215 0.59374 0.0
C84 C 0.54061 0.42646 0.53185 0.0
O85 O 0.55369 0.42347 0.52571 0.0
N86 N 0.54996 0.3859 0.62138 0.0
C87 C 0.56612 0.36416 0.66274 0.0
C88 C 0.55342 0.36171 0.63453 0.0
C89 C 0.5455 0.37272 0.61396 0.0
C90 C 0.56214 0.38851 0.64936 0.0
C91 C 0.57036 0.37781 0.67063 0.0
H92 H 0.53604 0.37059 0.5902 0.0
H93 H 0.56567 0.39899 0.65375 0.0
H94 H 0.53247 0.39086 0.7228 0.0
H95 H 0.54048 0.43172 0.77283 0.0
H96 H 0.56322 0.38169 0.40312 0.0
H97 H 0.54971 0.35135 0.62768 0.0
H98 H 0.58017 0.38022 0.69106 0.0
C99 C 0.89549 0.25223 0.88393 0.0
C100 C 0.89537 0.25446 0.94527 0.0
N101 N 0.90165 0.24381 0.97268 0.0
N102 N 0.90179 0.24024 0.8724 0.0
C103 C 0.90538 0.23527 0.92729 0.0
H104 H 0.89136 0.25898 0.84961 0.0
Co105 Co 0.90453 0.23395 0.79425 0.0
C106 C 0.9249 0.2119 0.80087 0.0
O107 O 0.93078 0.21785 0.75422 0.0
N108 N 0.90661 0.22759 0.71362 0.0
C109 C 0.90475 0.21292 0.6368 0.0
C110 C 0.90338 0.21458 0.69796 0.0
C111 C 0.90961 0.23374 0.66015 0.0
N112 N 0.90867 0.22497 0.61281 0.0
O113 O 0.88712 0.22478 0.79773 0.0
H114 H 0.89995 0.20676 0.7292 0.0
H115 H 0.91217 0.24444 0.65532 0.0
O116 O 0.91404 0.21723 0.82384 0.0
C117 C 0.87758 0.23172 0.77289 0.0
O118 O 0.88077 0.24354 0.74802 0.0
N119 N 0.92106 0.24422 0.79236 0.0
C120 C 0.94207 0.26368 0.80499 0.0
C121 C 0.94228 0.25144 0.83819 0.0
C122 C 0.93157 0.24205 0.83237 0.0
C123 C 0.9205 0.25624 0.76086 0.0
C124 C 0.93099 0.26599 0.76561 0.0
H125 H 0.93141 0.23349 0.86325 0.0
H126 H 0.91144 0.25869 0.73476 0.0
H127 H 0.91093 0.22578 0.93371 0.0
H128 H 0.89089 0.26324 0.96777 0.0
H129 H 0.90247 0.20366 0.61169 0.0
H130 H 0.95023 0.24949 0.87139 0.0
H131 H 0.9302 0.27545 0.74016 0.0
C132 C 0.05095 0.40273 0.86907 0.0
C133 C 0.04933 0.40172 0.80757 0.0
N134 N 0.06186 0.40067 0.78227 0.0
N135 N 0.06443 0.40218 0.88266 0.0
C136 C 0.07087 0.40106 0.82881 0.0
H137 H 0.04282 0.40381 0.90198 0.0
Co138 Co 0.07109 0.40296 0.96117 0.0
C139 C 0.09434 0.38398 0.96763 0.0
O140 O 0.08894 0.37954 0.01849 0.0
N141 N 0.07781 0.4044 0.04121 0.0
C142 C 0.09261 0.40979 0.11426 0.0
C143 C 0.09052 0.40927 0.05308 0.0
C144 C 0.07228 0.40227 0.09668 0.0
N145 N 0.08112 0.40543 0.14191 0.0
O146 O 0.0793 0.4204 0.94389 0.0
H147 H 0.09794 0.4122 0.01908 0.0
H148 H 0.06193 0.39881 0.10435 0.0
O149 O 0.08822 0.39343 0.93757 0.0
C150 C 0.07088 0.43038 0.9454 0.0
O151 O 0.05789 0.42778 0.95669 0.0
N152 N 0.06182 0.3862 0.97646 0.0
C153 C 0.04274 0.36467 0.97455 0.0
C154 C 0.05514 0.36369 0.9428 0.0
C155 C 0.06435 0.37463 0.94318 0.0
C156 C 0.0498 0.38733 1.00767 0.0
C157 C 0.04023 0.37662 1.00821 0.0
H158 H 0.07288 0.37417 0.91219 0.0
H159 H 0.04703 0.39702 0.02802 0.0
H160 H 0.0819 0.40042 0.82385 0.0
H161 H 0.03969 0.40204 0.78326 0.0
H162 H 0.10197 0.41302 0.13645 0.0
H163 H 0.05726 0.35498 0.91388 0.0
H164 H 0.03066 0.37797 0.03238 0.0
C165 C 0.9005 0.74787 0.1985 0.0
C166 C 0.8999 0.74589 0.13705 0.0
N167 N 0.9037 0.75763 0.10936 0.0
N168 N 0.90472 0.76075 0.20985 0.0
C169 C 0.90653 0.76651 0.15481 0.0
H170 H 0.89824 0.74033 0.23298 0.0
Co171 Co 0.90737 0.76732 0.28764 0.0
C172 C 0.92833 0.78883 0.27908 0.0
O173 O 0.93423 0.78304 0.32611 0.0
N174 N 0.9094 0.77399 0.36778 0.0
C175 C 0.90824 0.78898 0.44376 0.0
C176 C 0.90704 0.78725 0.38247 0.0
C177 C 0.91153 0.76777 0.42189 0.0
N178 N 0.91104 0.77672 0.46861 0.0
O179 O 0.89028 0.77695 0.28214 0.0
H180 H 0.90431 0.79519 0.3505 0.0
H181 H 0.91311 0.75692 0.42778 0.0
O182 O 0.91732 0.78361 0.25707 0.0
C183 C 0.88038 0.77027 0.30541 0.0
O184 O 0.88304 0.75832 0.33035 0.0
N185 N 0.92365 0.75667 0.29153 0.0
C186 C 0.94439 0.73684 0.28252 0.0
C187 C 0.94479 0.74879 0.24736 0.0
C188 C 0.93418 0.75835 0.25127 0.0
C189 C 0.9229 0.74492 0.32485 0.0
C190 C 0.93329 0.73502 0.32212 0.0
H191 H 0.93413 0.76664 0.21903 0.0
H192 H 0.91373 0.74269 0.3504 0.0
H193 H 0.90985 0.77699 0.14829 0.0
H194 H 0.89719 0.73639 0.11474 0.0
H195 H 0.9066 0.79844 0.46841 0.0
H196 H 0.953 0.75055 0.21527 0.0
H197 H 0.93221 0.72566 0.34806 0.0
C198 C 0.56225 0.58883 0.41369 0.0
C199 C 0.56417 0.58818 0.35223 0.0
N200 N 0.55245 0.5921 0.32464 0.0
N201 N 0.54942 0.5932 0.42513 0.0
C202 C 0.54363 0.59505 0.37014 0.0
H203 H 0.56979 0.58649 0.44811 0.0
Co204 Co 0.54295 0.59592 0.50295 0.0
C205 C 0.52187 0.61724 0.495 0.0
O206 O 0.5281 0.62312 0.54098 0.0
N207 N 0.53635 0.59802 0.5832 0.0
C208 C 0.52127 0.59709 0.65894 0.0
C209 C 0.52303 0.59586 0.5977 0.0
C210 C 0.54256 0.60008 0.6374 0.0
N211 N 0.53356 0.59973 0.68396 0.0
O212 O 0.53321 0.57891 0.49777 0.0
H213 H 0.51506 0.59323 0.56563 0.0
H214 H 0.55343 0.60152 0.64353 0.0
O215 O 0.52668 0.60607 0.47285 0.0
C216 C 0.54005 0.56916 0.52154 0.0
O217 O 0.55196 0.57207 0.5464 0.0
N218 N 0.55379 0.61204 0.50658 0.0
C219 C 0.57387 0.63257 0.49858 0.0
C220 C 0.56208 0.63301 0.46222 0.0
C221 C 0.55238 0.62252 0.46581 0.0
C222 C 0.56547 0.61116 0.54043 0.0
C223 C 0.57547 0.62144 0.53826 0.0
H224 H 0.54416 0.62248 0.43305 0.0
H225 H 0.56751 0.60199 0.56629 0.0
H226 H 0.53318 0.59849 0.36371 0.0
H227 H 0.57363 0.58536 0.32984 0.0
H228 H 0.51178 0.5956 0.68344 0.0
H229 H 0.56072 0.64098 0.4286 0.0
H230 H 0.58457 0.62043 0.56603 0.0
C231 C 0.7143 0.25173 0.69749 0.0
C232 C 0.71431 0.25402 0.63617 0.0
N233 N 0.70869 0.24304 0.60848 0.0
N234 N 0.70871 0.23937 0.70874 0.0
C235 C 0.70543 0.23427 0.65372 0.0
H236 H 0.71809 0.25864 0.73195 0.0
Co237 Co 0.70659 0.23257 0.78647 0.0
C238 C 0.68708 0.20967 0.77768 0.0
O239 O 0.68101 0.2147 0.82595 0.0
N240 N 0.70506 0.2257 0.86651 0.0
C241 C 0.70789 0.21099 0.94263 0.0
C242 C 0.7088 0.21277 0.88129 0.0
C243 C 0.70217 0.23164 0.92049 0.0
N244 N 0.70372 0.22287 0.96753 0.0
O245 O 0.72421 0.22392 0.78027 0.0
H246 H 0.71233 0.20515 0.84935 0.0
H247 H 0.69927 0.24223 0.9259 0.0
O248 O 0.69755 0.21583 0.75553 0.0
C249 C 0.73373 0.23108 0.80407 0.0
O250 O 0.7304 0.2428 0.82952 0.0
N251 N 0.68983 0.24232 0.79147 0.0
C252 C 0.66808 0.26113 0.78758 0.0
C253 C 0.66776 0.24913 0.75266 0.0
C254 C 0.67886 0.24006 0.75406 0.0
C255 C 0.69052 0.25419 0.82394 0.0
C256 C 0.67967 0.26359 0.82372 0.0
H257 H 0.67887 0.23169 0.72218 0.0
H258 H 0.69986 0.25677 0.84772 0.0
H259 H 0.70051 0.22444 0.64704 0.0
H260 H 0.71834 0.26304 0.61386 0.0
H261 H 0.71067 0.20178 0.96708 0.0
H262 H 0.65937 0.24713 0.72172 0.0
H263 H 0.68055 0.27287 0.85035 0.0
C264 C 0.39269 0.24216 0.6416 0.0
C265 C 0.39003 0.24123 0.58059 0.0
N266 N 0.39405 0.25299 0.55372 0.0
N267 N 0.39843 0.25443 0.65369 0.0
C268 C 0.39895 0.26089 0.59938 0.0
H269 H 0.39103 0.2342 0.67487 0.0
Co270 Co 0.40488 0.25957 0.73075 0.0
C271 C 0.42713 0.27813 0.67983 0.0
O272 O 0.43707 0.26934 0.68944 0.0
N273 N 0.41086 0.26485 0.80961 0.0
C274 C 0.42311 0.2726 0.88758 0.0
C275 C 0.42274 0.27095 0.82596 0.0
C276 C 0.40421 0.26285 0.86294 0.0
N277 N 0.41144 0.26753 0.91121 0.0
O278 O 0.38892 0.27088 0.73999 0.0
H279 H 0.43094 0.27376 0.796 0.0
H280 H 0.3943 0.25794 0.86639 0.0
O281 O 0.41477 0.27541 0.69542 0.0
C282 C 0.37857 0.26408 0.75841 0.0
O283 O 0.38021 0.25097 0.77028 0.0
N284 N 0.42001 0.24715 0.72225 0.0
C285 C 0.43998 0.22656 0.71181 0.0
C286 C 0.43624 0.23453 0.66174 0.0
C287 C 0.42615 0.24459 0.66765 0.0
C288 C 0.42313 0.239 0.77071 0.0
C289 C 0.43326 0.22888 0.76685 0.0
H290 H 0.42357 0.25058 0.6282 0.0
H291 H 0.41754 0.24001 0.81261 0.0
H292 H 0.4032 0.27104 0.59318 0.0
H293 H 0.38602 0.23229 0.55759 0.0
H294 H 0.4316 0.27684 0.91305 0.0
H295 H 0.44115 0.23308 0.61826 0.0
H296 H 0.4355 0.22264 0.80617 0.0
C297 C 0.22646 0.73714 0.12618 0.0
C298 C 0.22819 0.735 0.06529 0.0
N299 N 0.21644 0.72987 0.04248 0.0
N300 N 0.21371 0.73326 0.14254 0.0
C301 C 0.2078 0.72891 0.09035 0.0
H302 H 0.23391 0.74175 0.15612 0.0
Co303 Co 0.20669 0.73585 0.22075 0.0
C304 C 0.18648 0.71348 0.24293 0.0
O305 O 0.17978 0.72134 0.28105 0.0
N306 N 0.19998 0.73896 0.30121 0.0
C307 C 0.18953 0.74813 0.38141 0.0
C308 C 0.19134 0.74896 0.31997 0.0
C309 C 0.20334 0.73226 0.35319 0.0
N310 N 0.1971 0.73764 0.40256 0.0
O311 O 0.22251 0.72664 0.2533 0.0
H312 H 0.18658 0.7566 0.29164 0.0
H313 H 0.21019 0.72354 0.35489 0.0
O314 O 0.19705 0.71815 0.21545 0.0
C315 C 0.23152 0.73453 0.27643 0.0
O316 O 0.22884 0.74773 0.27953 0.0
N317 N 0.19198 0.74581 0.18676 0.0
C318 C 0.17279 0.76415 0.13854 0.0
C319 C 0.16999 0.75003 0.14118 0.0
C320 C 0.17977 0.741 0.16486 0.0
C321 C 0.19519 0.75936 0.18124 0.0
C322 C 0.1857 0.76873 0.15817 0.0
H323 H 0.17748 0.73022 0.1639 0.0
H324 H 0.20508 0.76295 0.19688 0.0
H325 H 0.1973 0.72538 0.08722 0.0
H326 H 0.23721 0.73766 0.03928 0.0
H327 H 0.18342 0.75503 0.40866 0.0
H328 H 0.16039 0.74594 0.12436 0.0
H329 H 0.18838 0.77951 0.15718 0.0
C330 C 0.21691 0.24656 0.82916 0.0
C331 C 0.21758 0.24453 0.89054 0.0
N332 N 0.21376 0.25623 0.91847 0.0
N333 N 0.21263 0.25943 0.81807 0.0
C334 C 0.21084 0.26514 0.87321 0.0
H335 H 0.21918 0.23906 0.79453 0.0
Co336 Co 0.20995 0.26592 0.74025 0.0
C337 C 0.18884 0.28722 0.74754 0.0
O338 O 0.18302 0.28105 0.70123 0.0
N339 N 0.20793 0.27251 0.66 0.0
C340 C 0.20905 0.28755 0.58419 0.0
C341 C 0.21024 0.28579 0.64543 0.0
C342 C 0.20587 0.2663 0.60582 0.0
N343 N 0.20633 0.27528 0.55922 0.0
O344 O 0.22706 0.27555 0.7455 0.0
H345 H 0.21293 0.29373 0.67747 0.0
H346 H 0.20437 0.25544 0.5998 0.0
O347 O 0.19993 0.28229 0.7702 0.0
C348 C 0.23691 0.26878 0.72228 0.0
O349 O 0.23414 0.25683 0.69752 0.0
N350 N 0.19367 0.25523 0.73673 0.0
C351 C 0.17285 0.23548 0.74673 0.0
C352 C 0.17261 0.24743 0.78196 0.0
C353 C 0.18326 0.25692 0.77763 0.0
C354 C 0.19427 0.24349 0.70326 0.0
C355 C 0.18384 0.23362 0.70654 0.0
H356 H 0.18343 0.26521 0.8099 0.0
H357 H 0.20335 0.24124 0.67716 0.0
H358 H 0.20747 0.2756 0.87991 0.0
H359 H 0.22034 0.23503 0.91263 0.0
H360 H 0.21066 0.29702 0.55963 0.0
H361 H 0.16448 0.24925 0.81438 0.0
H362 H 0.18481 0.22427 0.68046 0.0
C363 C 0.40019 0.75256 0.38611 0.0
C364 C 0.40137 0.75436 0.44739 0.0
N365 N 0.40405 0.74209 0.47294 0.0
N366 N 0.40213 0.73924 0.37268 0.0
C367 C 0.4044 0.73305 0.42646 0.0
H368 H 0.39795 0.76046 0.35321 0.0
Co369 Co 0.40118 0.73267 0.29414 0.0
C370 C 0.42027 0.70956 0.28524 0.0
O371 O 0.4242 0.71493 0.23353 0.0
N372 N 0.39958 0.7261 0.21378 0.0
C373 C 0.39386 0.71173 0.13961 0.0
C374 C 0.39384 0.71382 0.20086 0.0
C375 C 0.40292 0.73131 0.15886 0.0
N376 N 0.39962 0.72272 0.11299 0.0
O377 O 0.38387 0.72427 0.31251 0.0
H378 H 0.38998 0.70667 0.23411 0.0
H379 H 0.40789 0.74106 0.15216 0.0
O380 O 0.41101 0.71563 0.31662 0.0
C381 C 0.37384 0.73261 0.30947 0.0
O382 O 0.37635 0.74547 0.29542 0.0
N383 N 0.41772 0.74219 0.27812 0.0
C384 C 0.43894 0.76161 0.27864 0.0
C385 C 0.44042 0.74903 0.30871 0.0
C386 C 0.42961 0.73966 0.30926 0.0
C387 C 0.41614 0.75435 0.24839 0.0
C388 C 0.42668 0.76409 0.24711 0.0
H389 H 0.43051 0.73093 0.33892 0.0
H390 H 0.40626 0.75695 0.22919 0.0
H391 H 0.40631 0.72217 0.43132 0.0
H392 H 0.40001 0.76395 0.47128 0.0
H393 H 0.38974 0.70284 0.11662 0.0
H394 H 0.44961 0.74671 0.33432 0.0
H395 H 0.42486 0.77385 0.22508 0.0
C396 C 0.5749 0.0736 0.62316 0.0
C397 C 0.57693 0.07207 0.68427 0.0
N398 N 0.58147 0.08407 0.70693 0.0
N399 N 0.57824 0.08647 0.60661 0.0
C400 C 0.58219 0.09265 0.65875 0.0
H401 H 0.57071 0.06591 0.59314 0.0
Co402 Co 0.57559 0.09335 0.52837 0.0
C403 C 0.59713 0.11467 0.50814 0.0
O404 O 0.58948 0.12074 0.46722 0.0
N405 N 0.57242 0.09997 0.44776 0.0
C406 C 0.56308 0.11041 0.36784 0.0
C407 C 0.56222 0.10841 0.42909 0.0
C408 C 0.57925 0.0969 0.39578 0.0
N409 N 0.57377 0.10316 0.34666 0.0
O410 O 0.58591 0.07815 0.49692 0.0
H411 H 0.55445 0.11294 0.45736 0.0
H412 H 0.58816 0.09029 0.39389 0.0
O413 O 0.59264 0.10403 0.5357 0.0
C414 C 0.57875 0.06869 0.47269 0.0
O415 O 0.56547 0.07063 0.46661 0.0
N416 N 0.5646 0.10737 0.5614 0.0
C417 C 0.54469 0.12557 0.60381 0.0
C418 C 0.55859 0.12934 0.6027 0.0
C419 C 0.56843 0.12004 0.58173 0.0
C420 C 0.55129 0.10322 0.5662 0.0
C421 C 0.54113 0.1122 0.58643 0.0
H422 H 0.57901 0.12316 0.58253 0.0
H423 H 0.54849 0.09297 0.55193 0.0
H424 H 0.58522 0.10331 0.66153 0.0
H425 H 0.57458 0.06299 0.71044 0.0
H426 H 0.55609 0.11646 0.34068 0.0
H427 H 0.56181 0.1395 0.61656 0.0
H428 H 0.53058 0.10874 0.58804 0.0
C429 C 0.06277 0.9084 0.10084 0.0
C430 C 0.06476 0.90863 0.16233 0.0
N431 N 0.0526 0.90635 0.18971 0.0
N432 N 0.04946 0.90588 0.08914 0.0
C433 C 0.04346 0.90474 0.14402 0.0
H434 H 0.07055 0.90987 0.06659 0.0
Co435 Co 0.04242 0.9047 1.0114 0.0
C436 C 0.02029 0.88435 0.01564 0.0
O437 O 0.02556 0.87918 0.96586 0.0
N438 N 0.03526 0.90415 0.93151 0.0
C439 C 0.0199 0.90694 0.85765 0.0
C440 C 0.02208 0.90749 0.91887 0.0
C441 C 0.04096 0.90203 0.87633 0.0
N442 N 0.03179 0.90352 0.83085 0.0
O443 O 0.03339 0.92193 0.02323 0.0
H444 H 0.0145 0.91031 0.95233 0.0
H445 H 0.05161 0.8996 0.86882 0.0
O446 O 0.02601 0.89476 0.04066 0.0
C447 C 0.04043 0.93193 1.00309 0.0
O448 O 0.05223 0.92925 0.97677 0.0
N449 N 0.05252 0.88822 1.00131 0.0
C450 C 0.07157 0.86667 1.00014 0.0
C451 C 0.05992 0.86612 0.0372 0.0
C452 C 0.05074 0.8771 0.03825 0.0
C453 C 0.06409 0.88918 0.96691 0.0
C454 C 0.07358 0.87842 0.96453 0.0
H455 H 0.04271 0.87694 0.07179 0.0
H456 H 0.06645 0.89868 0.94406 0.0
H457 H 0.03261 0.90292 0.15021 0.0
H458 H 0.0745 0.91014 0.18487 0.0
H459 H 0.01039 0.90932 0.83449 0.0
H460 H 0.0583 0.85764 0.068 0.0
H461 H 0.08262 0.87951 0.9365 0.0
C462 C 0.55697 0.91497 0.32458 0.0
C463 C 0.55611 0.91758 0.26365 0.0
N464 N 0.56759 0.9129 0.23673 0.0
N465 N 0.56894 0.90863 0.33666 0.0
C466 C 0.57536 0.90773 0.28231 0.0
H467 H 0.5491 0.91701 0.35782 0.0
Co468 Co 0.57287 0.90166 0.41407 0.0
C469 C 0.59324 0.88009 0.37017 0.0
O470 O 0.58447 0.86992 0.3734 0.0
N471 N 0.57673 0.89504 0.49366 0.0
C472 C 0.58114 0.88124 0.57174 0.0
C473 C 0.58007 0.8821 0.50997 0.0
C474 C 0.57586 0.90184 0.54723 0.0
N475 N 0.57847 0.89365 0.59543 0.0
O476 O 0.58378 0.91765 0.42949 0.0
H477 H 0.58107 0.87354 0.47971 0.0
H478 H 0.57289 0.91248 0.55126 0.0
O479 O 0.58959 0.89231 0.38422 0.0
C480 C 0.57675 0.92785 0.4478 0.0
O481 O 0.56354 0.92611 0.45714 0.0
N482 N 0.56086 0.88656 0.39862 0.0
C483 C 0.54034 0.86698 0.37672 0.0
C484 C 0.54995 0.87033 0.33199 0.0
C485 C 0.5599 0.88029 0.34337 0.0
C486 C 0.55118 0.88385 0.44172 0.0
C487 C 0.54102 0.87394 0.43218 0.0
H488 H 0.56703 0.88272 0.30769 0.0
H489 H 0.55109 0.8896 0.48351 0.0
H490 H 0.58505 0.90254 0.27561 0.0
H491 H 0.54747 0.92227 0.24076 0.0
H492 H 0.58358 0.87208 0.59728 0.0
H493 H 0.54986 0.86526 0.28841 0.0
H494 H 0.53353 0.87206 0.46735 0.0
C495 C 0.04362 0.07933 0.89098 0.0
C496 C 0.04122 0.07799 0.83009 0.0
N497 N 0.03768 0.09034 0.80773 0.0
N498 N 0.04145 0.09244 0.90786 0.0
C499 C 0.03789 0.09895 0.85587 0.0
H500 H 0.04727 0.07129 0.92048 0.0
Co501 Co 0.04503 0.09903 0.98623 0.0
C502 C 0.02317 0.1195 0.01508 0.0
O503 O 0.03136 0.12583 0.05312 0.0
N504 N 0.04912 0.10523 0.06626 0.0
C505 C 0.05982 0.11447 0.14561 0.0
C506 C 0.06013 0.11266 0.08405 0.0
C507 C 0.04239 0.10249 0.1188 0.0
N508 N 0.04866 0.10807 0.16771 0.0
O509 O 0.03557 0.08339 0.01905 0.0
H510 H 0.06813 0.11644 0.05486 0.0
H511 H 0.033 0.0966 0.12109 0.0
O512 O 0.02756 0.10917 0.985 0.0
C513 C 0.04304 0.07401 0.04209 0.0
O514 O 0.05632 0.07617 0.04657 0.0
N515 N 0.05515 0.11359 0.95188 0.0
C516 C 0.07369 0.1322 0.90075 0.0
C517 C 0.05997 0.13592 0.91104 0.0
C518 C 0.05082 0.12644 0.93607 0.0
C519 C 0.06827 0.10961 0.93968 0.0
C520 C 0.07773 0.11875 0.91468 0.0
H521 H 0.04031 0.12953 0.94129 0.0
H522 H 0.07145 0.09927 0.95061 0.0
H523 H 0.03581 0.10983 0.85305 0.0
H524 H 0.04268 0.06875 0.80371 0.0
H525 H 0.06751 0.11974 0.17224 0.0
H526 H 0.05632 0.14614 0.90058 0.0
H527 H 0.0881 0.11527 0.90615 0.0
H528 H 0.07859 0.58508 0.81617 0.0
H529 H 0.08287 0.58253 0.70731 0.0
H530 H 0.06631 0.62291 0.67603 0.0
H531 H 0.06232 0.62563 0.78434 0.0
H532 H 0.063 0.5833 0.61625 0.0
H533 H 0.10172 0.62402 0.57786 0.0
H534 H 0.09764 0.61761 0.65236 0.0
H535 H 0.0866 0.62992 0.61621 0.0
C536 C 0.07612 0.59351 0.78625 0.0
C537 C 0.07008 0.60555 0.80913 0.0
C538 C 0.0785 0.59202 0.72396 0.0
C539 C 0.07507 0.60259 0.68338 0.0
C540 C 0.06929 0.6147 0.70632 0.0
H541 H 0.07013 0.61159 0.29104 0.0
H542 H 0.0705 0.61537 0.40096 0.0
C543 C 0.06686 0.61618 0.76836 0.0
C544 C 0.07662 0.60066 0.61679 0.0
H545 H 0.09127 0.61443 0.48984 0.0
C546 C 0.06929 0.59002 0.58872 0.0
C547 C 0.08472 0.60952 0.58066 0.0
C548 C 0.09323 0.62084 0.60828 0.0
C549 C 0.06959 0.58817 0.52563 0.0
C550 C 0.07768 0.59702 0.48942 0.0
C551 C 0.08506 0.60765 0.51746 0.0
C552 C 0.07863 0.59529 0.4225 0.0
C553 C 0.06087 0.57698 0.49818 0.0
C554 C 0.08355 0.58297 0.39781 0.0
C555 C 0.08334 0.58081 0.33528 0.0
C556 C 0.07833 0.59095 0.2957 0.0
C557 C 0.07411 0.60359 0.32018 0.0
C558 C 0.07425 0.60573 0.38303 0.0
H559 H 0.05255 0.57368 0.5293 0.0
H560 H 0.05617 0.5804 0.45496 0.0
H561 H 0.06741 0.56792 0.48869 0.0
H562 H 0.08734 0.5749 0.42707 0.0
H563 H 0.08693 0.57108 0.31785 0.0
H564 H 0.69123 0.78478 0.04731 0.0
H565 H 0.69617 0.7839 0.93934 0.0
H566 H 0.73112 0.75796 0.9742 0.0
H567 H 0.72592 0.75834 0.08257 0.0
H568 H 0.71848 0.79173 0.87297 0.0
H569 H 0.71016 0.73565 0.84966 0.0
H570 H 0.70529 0.74501 0.91669 0.0
H571 H 0.72291 0.74025 0.9047 0.0
C572 C 0.69989 0.77874 0.03226 0.0
C573 C 0.70803 0.77144 0.07406 0.0
C574 C 0.70278 0.77836 0.97029 0.0
C575 C 0.71386 0.77066 0.94823 0.0
C576 C 0.72232 0.76373 0.98985 0.0
H577 H 0.74197 0.7526 0.58254 0.0
H578 H 0.73999 0.75563 0.69188 0.0
C579 C 0.71942 0.76409 0.05204 0.0
C580 C 0.71637 0.76983 0.8817 0.0
H581 H 0.71808 0.7474 0.76299 0.0
C582 C 0.7184 0.78203 0.84894 0.0
C583 C 0.71621 0.75719 0.8501 0.0
C584 C 0.7134 0.74378 0.88186 0.0
C585 C 0.7204 0.78192 0.78584 0.0
C586 C 0.7202 0.76929 0.75431 0.0
C587 C 0.71827 0.75709 0.7871 0.0
C588 C 0.72187 0.7684 0.68733 0.0
C589 C 0.72295 0.79532 0.75361 0.0
C590 C 0.71241 0.77466 0.64796 0.0
C591 C 0.71349 0.7729 0.58511 0.0
C592 C 0.724 0.76474 0.5603 0.0
C593 C 0.73364 0.75879 0.59992 0.0
C594 C 0.73255 0.76055 0.66257 0.0
H595 H 0.72637 0.80346 0.78535 0.0
H596 H 0.73081 0.79409 0.71768 0.0
H597 H 0.71327 0.79879 0.73198 0.0
H598 H 0.70391 0.78055 0.6659 0.0
H599 H 0.70577 0.77747 0.55625 0.0
H600 H 0.54955 0.3734 0.31995 0.0
H601 H 0.54561 0.37618 0.21136 0.0
H602 H 0.52442 0.41423 0.24496 0.0
H603 H 0.52856 0.41161 0.35396 0.0
H604 H 0.52118 0.3796 0.14123 0.0
H605 H 0.55565 0.42493 0.12731 0.0
H606 H 0.55541 0.41366 0.19206 0.0
H607 H 0.54204 0.42614 0.1819 0.0
C608 C 0.54402 0.38235 0.30431 0.0
C609 C 0.53951 0.39236 0.34572 0.0
C610 C 0.54171 0.38389 0.24218 0.0
C611 C 0.53491 0.39551 0.21979 0.0
C612 C 0.52987 0.40527 0.26109 0.0
H613 H 0.52458 0.42703 0.8543 0.0
H614 H 0.52337 0.42284 0.9631 0.0
C615 C 0.53212 0.4037 0.32347 0.0
C616 C 0.53366 0.39761 0.15317 0.0
H617 H 0.54445 0.41825 0.03765 0.0
C618 C 0.52623 0.38807 0.11852 0.0
C619 C 0.54031 0.40862 0.12347 0.0
C620 C 0.54891 0.41889 0.15781 0.0
C621 C 0.5251 0.38936 0.05518 0.0
C622 C 0.53185 0.40031 0.02539 0.0
C623 C 0.53924 0.40986 0.06024 0.0
C624 C 0.53145 0.40219 0.9583 0.0
C625 C 0.51645 0.37912 0.02103 0.0
C626 C 0.53623 0.39194 0.9187 0.0
C627 C 0.53685 0.39431 0.85607 0.0
C628 C 0.5329 0.40707 0.83187 0.0
C629 C 0.52783 0.41716 0.87149 0.0
C630 C 0.52712 0.41476 0.93379 0.0
H631 H 0.50887 0.37402 0.0511 0.0
H632 H 0.51085 0.38411 0.98318 0.0
H633 H 0.5232 0.37106 1.00189 0.0
H634 H 0.53994 0.38227 0.93635 0.0
H635 H 0.54098 0.3864 0.82695 0.0
H636 H 0.90468 0.24927 0.55459 0.0
H637 H 0.90519 0.2531 0.44484 0.0
H638 H 0.91667 0.21088 0.41696 0.0
H639 H 0.91643 0.20703 0.52605 0.0
H640 H 0.92746 0.24728 0.35369 0.0
H641 H 0.87974 0.21686 0.32109 0.0
H642 H 0.88466 0.22386 0.39358 0.0
H643 H 0.89301 0.20877 0.36501 0.0
C644 C 0.90755 0.24087 0.5252 0.0
C645 C 0.91033 0.22778 0.54911 0.0
C646 C 0.90778 0.24306 0.46252 0.0
C647 C 0.91074 0.2322 0.42293 0.0
C648 C 0.91412 0.21933 0.44677 0.0
H649 H 0.9059 0.21999 0.0341 0.0
H650 H 0.90925 0.21732 0.14315 0.0
C651 C 0.91393 0.21714 0.50914 0.0
C652 C 0.90979 0.23407 0.35656 0.0
H653 H 0.89128 0.22412 0.23288 0.0
C654 C 0.91953 0.24228 0.32716 0.0
C655 C 0.89947 0.22746 0.32224 0.0
C656 C 0.88854 0.21881 0.35191 0.0
C657 C 0.91938 0.24387 0.26393 0.0
C658 C 0.90901 0.2373 0.22955 0.0
C659 C 0.89926 0.22911 0.25918 0.0
C660 C 0.90782 0.23901 0.16297 0.0
C661 C 0.93052 0.25228 0.23447 0.0
C662 C 0.90586 0.25207 0.13783 0.0
C663 C 0.90406 0.25364 0.07551 0.0
C664 C 0.90401 0.24216 0.03684 0.0
C665 C 0.90603 0.22907 0.0622 0.0
C666 C 0.90788 0.22752 0.12465 0.0
H667 H 0.93974 0.25309 0.26386 0.0
H668 H 0.93363 0.2478 0.19037 0.0
H669 H 0.92663 0.26282 0.22626 0.0
H670 H 0.90549 0.26107 0.16654 0.0
H671 H 0.90271 0.26389 0.05779 0.0
H672 H 0.09437 0.4197 0.2297 0.0
H673 H 0.09146 0.41752 0.3385 0.0
H674 H 0.05939 0.38769 0.31072 0.0
H675 H 0.0627 0.38929 0.20126 0.0
H676 H 0.0694 0.42284 0.40758 0.0
H677 H 0.08384 0.36801 0.43076 0.0
H678 H 0.08686 0.37764 0.36233 0.0
H679 H 0.07004 0.37099 0.37856 0.0
C680 C 0.08684 0.41249 0.24641 0.0
C681 C 0.07889 0.40454 0.20637 0.0
C682 C 0.08512 0.41135 0.30883 0.0
C683 C 0.07539 0.40227 0.33284 0.0
C684 C 0.06719 0.39453 0.29322 0.0
H685 H 0.04625 0.38842 0.69694 0.0
H686 H 0.05009 0.38849 0.58756 0.0
C687 C 0.06897 0.3956 0.23056 0.0
C688 C 0.0737 0.40125 0.39936 0.0
H689 H 0.07501 0.37896 0.51858 0.0
C690 C 0.0707 0.41326 0.43184 0.0
C691 C 0.07543 0.38873 0.43097 0.0
C692 C 0.07935 0.37563 0.39902 0.0
C693 C 0.06922 0.41307 0.49493 0.0
C694 C 0.07086 0.40056 0.52634 0.0
C695 C 0.0738 0.38853 0.4941 0.0
C696 C 0.06916 0.39977 0.59267 0.0
C697 C 0.06568 0.42619 0.52762 0.0
C698 C 0.07878 0.40584 0.63162 0.0
C699 C 0.07663 0.40579 0.69419 0.0
C700 C 0.06476 0.39975 0.71856 0.0
C701 C 0.05537 0.39333 0.67936 0.0
C702 C 0.05758 0.39329 0.61699 0.0
H703 H 0.06258 0.43448 0.49593 0.0
H704 H 0.05722 0.42441 0.56033 0.0
H705 H 0.07477 0.42975 0.55353 0.0
H706 H 0.08784 0.41081 0.6135 0.0
H707 H 0.08399 0.41087 0.72326 0.0
H708 H 0.92173 0.79334 0.55403 0.0
H709 H 0.92192 0.78957 0.66336 0.0
H710 H 0.90257 0.75019 0.63747 0.0
H711 H 0.90262 0.75385 0.52779 0.0
H712 H 0.90025 0.7867 0.7359 0.0
H713 H 0.93268 0.74018 0.754 0.0
H714 H 0.93161 0.75019 0.68549 0.0
H715 H 0.91839 0.73798 0.70371 0.0
C716 C 0.91764 0.78382 0.57168 0.0
C717 C 0.91217 0.77389 0.5324 0.0
C718 C 0.91777 0.78167 0.63412 0.0
C719 C 0.9124 0.76953 0.65876 0.0
C720 C 0.90709 0.75949 0.61956 0.0
H721 H 0.89112 0.74327 0.0196 0.0
H722 H 0.89373 0.74645 0.91086 0.0
C723 C 0.90709 0.76159 0.55687 0.0
C724 C 0.91159 0.76787 0.72552 0.0
H725 H 0.92022 0.74663 0.84253 0.0
C726 C 0.90473 0.778 0.75921 0.0
C727 C 0.91743 0.7565 0.75602 0.0
C728 C 0.92556 0.74566 0.72305 0.0
C729 C 0.90334 0.77694 0.82225 0.0
C730 C 0.90899 0.76549 0.85245 0.0
C731 C 0.91588 0.75538 0.81905 0.0
C732 C 0.90756 0.76368 0.91868 0.0
C733 C 0.89557 0.78791 0.85608 0.0
C734 C 0.91453 0.77231 0.95915 0.0
C735 C 0.91319 0.77044 0.02167 0.0
C736 C 0.90484 0.75989 0.04489 0.0
C737 C 0.89781 0.75135 1.0038 0.0
C738 C 0.89923 0.75318 0.94144 0.0
H739 H 0.88992 0.79488 0.82509 0.0
H740 H 0.88815 0.7832 0.88804 0.0
H741 H 0.90291 0.79414 0.88295 0.0
H742 H 0.92112 0.78041 0.94233 0.0
H743 H 0.91891 0.7771 0.0516 0.0
H744 H 0.51704 0.61069 0.76897 0.0
H745 H 0.52075 0.61085 0.87837 0.0
H746 H 0.55987 0.59091 0.85329 0.0
H747 H 0.55627 0.59098 0.74357 0.0
H748 H 0.52326 0.58915 0.9511 0.0
H749 H 0.57025 0.6209 0.96967 0.0
H750 H 0.56025 0.61997 0.90103 0.0
H751 H 0.57228 0.60659 0.91946 0.0
C752 C 0.52649 0.60646 0.78682 0.0
C753 C 0.53637 0.60083 0.74777 0.0
C754 C 0.52861 0.60658 0.84929 0.0
C755 C 0.54065 0.60103 0.87416 0.0
C756 C 0.55065 0.59557 0.83519 0.0
H757 H 0.56654 0.57926 0.23493 0.0
H758 H 0.56336 0.58193 0.12618 0.0
C759 C 0.54858 0.59558 0.77248 0.0
C760 C 0.54227 0.60021 0.94093 0.0
H761 H 0.56361 0.60851 0.05813 0.0
C762 C 0.53203 0.5935 0.9745 0.0
C763 C 0.55371 0.60588 0.97153 0.0
C764 C 0.56468 0.61386 0.93866 0.0
C765 C 0.53304 0.59208 0.03754 0.0
C766 C 0.54457 0.59755 0.06784 0.0
C767 C 0.55479 0.60431 0.03455 0.0
C768 C 0.54636 0.59605 0.13404 0.0
C769 C 0.52195 0.58447 0.07128 0.0
C770 C 0.53786 0.60316 0.17451 0.0
C771 C 0.53974 0.60178 0.23702 0.0
C772 C 0.55016 0.59326 0.2602 0.0
C773 C 0.55857 0.58609 0.21912 0.0
C774 C 0.55673 0.58754 0.15677 0.0
H775 H 0.51487 0.57896 0.04023 0.0
H776 H 0.52655 0.57695 0.10313 0.0
H777 H 0.51585 0.59188 0.09827 0.0
H778 H 0.52987 0.60989 0.15769 0.0
H779 H 0.53319 0.60762 0.26697 0.0
H780 H 0.70696 0.26296 0.52278 0.0
H781 H 0.70466 0.25988 0.41379 0.0
H782 H 0.70326 0.21604 0.43784 0.0
H783 H 0.70584 0.21897 0.54716 0.0
H784 H 0.72298 0.24453 0.33809 0.0
H785 H 0.66952 0.22474 0.32891 0.0
H786 H 0.67627 0.23376 0.39386 0.0
H787 H 0.68078 0.21614 0.38104 0.0
C788 C 0.70625 0.25264 0.50519 0.0
C789 C 0.70667 0.24121 0.54416 0.0
C790 C 0.70484 0.25091 0.44275 0.0
C791 C 0.70366 0.23775 0.4178 0.0
C792 C 0.70391 0.22631 0.45631 0.0
H793 H 0.6987 0.20446 0.05682 0.0
H794 H 0.69848 0.20872 0.16545 0.0
C795 C 0.70538 0.22801 0.51889 0.0
C796 C 0.70282 0.23603 0.35123 0.0
H797 H 0.68216 0.22438 0.23741 0.0
C798 C 0.71403 0.2402 0.31593 0.0
C799 C 0.69115 0.23034 0.32264 0.0
C800 C 0.67868 0.22607 0.35834 0.0
C801 C 0.71404 0.23853 0.25282 0.0
C802 C 0.70234 0.23287 0.22405 0.0
C803 C 0.69109 0.22878 0.25943 0.0
C804 C 0.70183 0.23058 0.15761 0.0
C805 C 0.72675 0.24244 0.21788 0.0
C806 C 0.70346 0.2415 0.11677 0.0
C807 C 0.70378 0.23907 0.05434 0.0
C808 C 0.70236 0.22566 0.03149 0.0
C809 C 0.70015 0.21486 0.07263 0.0
C810 C 0.6999 0.21729 0.13489 0.0
H811 H 0.73591 0.24316 0.24773 0.0
H812 H 0.72892 0.23488 0.18156 0.0
H813 H 0.72517 0.25262 0.19656 0.0
H814 H 0.70464 0.2519 0.13319 0.0
H815 H 0.70552 0.24765 0.02429 0.0
H816 H 0.41073 0.27076 0.49301 0.0
H817 H 0.41204 0.27417 0.38357 0.0
H818 H 0.37989 0.24437 0.35752 0.0
H819 H 0.37812 0.24131 0.4667 0.0
H820 H 0.41885 0.25551 0.29803 0.0
H821 H 0.36652 0.27487 0.2496 0.0
H822 H 0.37336 0.2739 0.32539 0.0
H823 H 0.36652 0.25882 0.28932 0.0
C824 C 0.40371 0.26514 0.46427 0.0
C825 C 0.3943 0.25575 0.48922 0.0
C826 C 0.40455 0.26703 0.40145 0.0
C827 C 0.39595 0.25967 0.36197 0.0
C828 C 0.38645 0.25041 0.38676 0.0
H829 H 0.39398 0.24966 0.96736 0.0
H830 H 0.3897 0.24774 0.0765 0.0
C831 C 0.38558 0.24854 0.44947 0.0
C832 C 0.39747 0.26106 0.29496 0.0
H833 H 0.37998 0.2683 0.1643 0.0
C834 C 0.41035 0.2584 0.26895 0.0
C835 C 0.38639 0.26475 0.25663 0.0
C836 C 0.37245 0.26838 0.28164 0.0
C837 C 0.41242 0.25915 0.20605 0.0
C838 C 0.40135 0.26282 0.1678 0.0
C839 C 0.38844 0.26542 0.19357 0.0
C840 C 0.40319 0.26445 0.10123 0.0
C841 C 0.42641 0.2558 0.18085 0.0
C842 C 0.41186 0.27471 0.07865 0.0
C843 C 0.41424 0.2759 0.01649 0.0
C844 C 0.40802 0.26684 0.97502 0.0
C845 C 0.39892 0.25685 0.99763 0.0
C846 C 0.39651 0.2557 0.06012 0.0
H847 H 0.43278 0.25001 0.21384 0.0
H848 H 0.42552 0.24968 0.13867 0.0
H849 H 0.43184 0.26548 0.16982 0.0
H850 H 0.4169 0.28178 0.10929 0.0
H851 H 0.42103 0.28395 1.00103 0.0
H852 H 0.17825 0.74037 0.49167 0.0
H853 H 0.1816 0.73647 0.59986 0.0
H854 H 0.22273 0.72217 0.56547 0.0
H855 H 0.21952 0.72635 0.45682 0.0
H856 H 0.18871 0.71294 0.66775 0.0
H857 H 0.22831 0.75376 0.68666 0.0
H858 H 0.2174 0.75201 0.62109 0.0
H859 H 0.23178 0.74071 0.63134 0.0
C860 C 0.18802 0.7364 0.50701 0.0
C861 C 0.19868 0.73385 0.4655 0.0
C862 C 0.18989 0.73408 0.56894 0.0
C863 C 0.20249 0.72924 0.59107 0.0
C864 C 0.21298 0.72613 0.54961 0.0
H865 H 0.23456 0.72174 0.95717 0.0
H866 H 0.23075 0.7203 0.84813 0.0
C867 C 0.2111 0.72839 0.48741 0.0
C868 C 0.2047 0.728 0.65762 0.0
H869 H 0.22337 0.74119 0.77496 0.0
C870 C 0.19632 0.71908 0.69123 0.0
C871 C 0.21457 0.73607 0.68836 0.0
C872 C 0.22347 0.74628 0.65529 0.0
C873 C 0.19765 0.7179 0.75451 0.0
C874 C 0.20745 0.72606 0.7853 0.0
C875 C 0.21587 0.73491 0.75153 0.0
C876 C 0.20923 0.72567 0.8524 0.0
C877 C 0.18873 0.70773 0.7876 0.0
C878 C 0.19837 0.729 0.89169 0.0
C879 C 0.20053 0.72979 0.95444 0.0
C880 C 0.21365 0.72745 0.97906 0.0
C881 C 0.22438 0.72377 0.9397 0.0
C882 C 0.2222 0.72291 0.87726 0.0
H883 H 0.18473 0.69968 0.7567 0.0
H884 H 0.19447 0.7027 0.82493 0.0
H885 H 0.17981 0.71319 0.80739 0.0
H886 H 0.18833 0.73147 0.87372 0.0
H887 H 0.1921 0.73284 0.98331 0.0
H888 H 0.21514 0.25261 0.49965 0.0
H889 H 0.21557 0.24923 0.38961 0.0
H890 H 0.19548 0.28826 0.36473 0.0
H891 H 0.19527 0.29174 0.47424 0.0
H892 H 0.19564 0.24814 0.30237 0.0
H893 H 0.22944 0.29298 0.26218 0.0
H894 H 0.22634 0.28618 0.3368 0.0
H895 H 0.21395 0.29732 0.3016 0.0
C896 C 0.21069 0.26037 0.47064 0.0
C897 C 0.20532 0.27252 0.49537 0.0
C898 C 0.21099 0.25847 0.40784 0.0
C899 C 0.20589 0.26866 0.36887 0.0
C900 C 0.19988 0.28046 0.39376 0.0
H901 H 0.1986 0.27564 0.977 0.0
H902 H 0.1964 0.27871 0.08647 0.0
C903 C 0.1997 0.28241 0.4563 0.0
C904 C 0.207 0.26709 0.30223 0.0
H905 H 0.21975 0.28245 0.17508 0.0
C906 C 0.20096 0.25561 0.27459 0.0
C907 C 0.21399 0.27683 0.26597 0.0
C908 C 0.22142 0.28895 0.29314 0.0
C909 C 0.20154 0.25373 0.21163 0.0
C910 C 0.20838 0.26355 0.17554 0.0
C911 C 0.21441 0.27502 0.20299 0.0
C912 C 0.20981 0.26182 0.10932 0.0
C913 C 0.19472 0.24134 0.1839 0.0
C914 C 0.2183 0.25149 0.08613 0.0
C915 C 0.21974 0.24982 0.02373 0.0
C916 C 0.21266 0.25841 0.983 0.0
C917 C 0.2043 0.2689 1.00665 0.0
C918 C 0.20295 0.27063 0.06926 0.0
H919 H 0.18768 0.23616 0.21615 0.0
H920 H 0.18884 0.24429 0.14285 0.0
H921 H 0.20271 0.23387 0.17 0.0
H922 H 0.22388 0.24476 0.11641 0.0
H923 H 0.2265 0.24182 1.0076 0.0
H924 H 0.41202 0.76013 0.55947 0.0
H925 H 0.41268 0.75628 0.66839 0.0
H926 H 0.40078 0.71415 0.64152 0.0
H927 H 0.39971 0.71797 0.53205 0.0
H928 H 0.3884 0.74582 0.73715 0.0
H929 H 0.43551 0.71385 0.75878 0.0
H930 H 0.43264 0.72516 0.69521 0.0
H931 H 0.4234 0.7093 0.70053 0.0
C932 C 0.40948 0.75004 0.57644 0.0
C933 C 0.40564 0.7394 0.53679 0.0
C934 C 0.40998 0.74785 0.63877 0.0
C935 C 0.40683 0.73495 0.66279 0.0
C936 C 0.40339 0.72416 0.62359 0.0
H937 H 0.40109 0.70305 0.02621 0.0
H938 H 0.4029 0.70643 0.91744 0.0
C939 C 0.40281 0.72636 0.56104 0.0
C940 C 0.40634 0.73309 0.72912 0.0
H941 H 0.42266 0.7177 0.84766 0.0
C942 C 0.39589 0.73971 0.76149 0.0
C943 C 0.4161 0.72505 0.76031 0.0
C944 C 0.42763 0.71796 0.72727 0.0
C945 C 0.3948 0.73833 0.82448 0.0
C946 C 0.40469 0.73044 0.85604 0.0
C947 C 0.41514 0.72381 0.82347 0.0
C948 C 0.40406 0.72855 0.92258 0.0
C949 C 0.38284 0.74502 0.85626 0.0
C950 C 0.40438 0.73986 0.96193 0.0
C951 C 0.4031 0.73798 0.02442 0.0
C952 C 0.40163 0.72473 0.04885 0.0
C953 C 0.40185 0.71342 1.00923 0.0
C954 C 0.40303 0.71532 0.94688 0.0
H955 H 0.37433 0.74737 0.82439 0.0
H956 H 0.3788 0.73836 0.89287 0.0
H957 H 0.38628 0.75483 0.87673 0.0
H958 H 0.40551 0.75016 0.94427 0.0
H959 H 0.40296 0.74694 0.05326 0.0
H960 H 0.58921 0.06636 0.79501 0.0
H961 H 0.59005 0.07071 0.90379 0.0
H962 H 0.57965 0.1131 0.87254 0.0
H963 H 0.57842 0.10872 0.76342 0.0
H964 H 0.6053 0.08892 0.97585 0.0
H965 H 0.54945 0.10003 0.98821 0.0
H966 H 0.55729 0.0923 0.92262 0.0
H967 H 0.55881 0.11044 0.93542 0.0
C968 C 0.58709 0.07662 0.81116 0.0
C969 C 0.58355 0.08714 0.77035 0.0
C970 C 0.58766 0.07911 0.87345 0.0
C971 C 0.58467 0.09217 0.89657 0.0
C972 C 0.58176 0.10287 0.85587 0.0
H973 H 0.57161 0.12274 0.26073 0.0
H974 H 0.57558 0.12019 0.15228 0.0
C975 C 0.5812 0.10039 0.79338 0.0
C976 C 0.58407 0.09435 0.96326 0.0
H977 H 0.56217 0.10267 0.0782 0.0
C978 C 0.59588 0.09195 0.99829 0.0
C979 C 0.57175 0.0982 0.99263 0.0
C980 C 0.55855 0.10028 0.95803 0.0
C981 C 0.59576 0.09354 0.06165 0.0
C982 C 0.58343 0.09738 0.09099 0.0
C983 C 0.57164 0.09977 0.05585 0.0
C984 C 0.58242 0.09912 0.15792 0.0
C985 C 0.60891 0.09137 0.09641 0.0
C986 C 0.58512 0.08819 0.19778 0.0
C987 C 0.58289 0.08965 0.26023 0.0
C988 C 0.57772 0.10201 0.28383 0.0
C989 C 0.57541 0.11303 0.24395 0.0
C990 C 0.57771 0.11159 0.18188 0.0
H991 H 0.61806 0.09222 0.06666 0.0
H992 H 0.60991 0.09891 0.13378 0.0
H993 H 0.60887 0.08093 0.11638 0.0
H994 H 0.58848 0.07836 0.18044 0.0
H995 H 0.5846 0.08094 0.28962 0.0
H996 H 0.05512 0.90981 0.76985 0.0
H997 H 0.05836 0.90953 0.65986 0.0
H998 H 0.01712 0.89432 0.63671 0.0
H999 H 0.01378 0.89478 0.74627 0.0
H1000 H 0.05709 0.88911 0.57586 0.0
H1001 H 0.01661 0.92766 0.52865 0.0
H1002 H 0.02286 0.9243 0.60404 0.0
H1003 H 0.01042 0.91306 0.56982 0.0
C1004 C 0.0468 0.90631 0.74129 0.0
C1005 C 0.03414 0.90247 0.76663 0.0
C1006 C 0.04863 0.9062 0.67846 0.0
C1007 C 0.03787 0.90222 0.63992 0.0
C1008 C 0.02543 0.89784 0.66535 0.0
H1009 H 0.03108 0.89415 0.24746 0.0
H1010 H 0.02731 0.89277 0.35678 0.0
C1011 C 0.02355 0.89807 0.72798 0.0
C1012 C 0.03964 0.90265 0.57317 0.0
H1013 H 0.02624 0.91634 0.4435 0.0
C1014 C 0.05037 0.8951 0.54698 0.0
C1015 C 0.03087 0.9105 0.53542 0.0
C1016 C 0.01963 0.91945 0.56088 0.0
C1017 C 0.05248 0.89507 0.48412 0.0
C1018 C 0.04367 0.90284 0.44656 0.0
C1019 C 0.0329 0.91032 0.47252 0.0
C1020 C 0.04584 0.90376 0.38036 0.0
C1021 C 0.06404 0.88664 0.45812 0.0
C1022 C 0.05735 0.91063 0.35755 0.0
C1023 C 0.05945 0.9116 0.29522 0.0
C1024 C 0.05011 0.90567 0.25415 0.0
C1025 C 0.03845 0.89894 0.27738 0.0
C1026 C 0.03631 0.89806 0.33991 0.0
H1027 H 0.06806 0.87906 0.49125 0.0
H1028 H 0.0606 0.8811 0.41691 0.0
H1029 H 0.07258 0.89355 0.445 0.0
H1030 H 0.06468 0.91533 0.38806 0.0
H1031 H 0.06838 0.91713 0.27942 0.0
H1032 H 0.5922 0.91297 0.17824 0.0
H1033 H 0.59599 0.91185 0.06837 0.0
H1034 H 0.55228 0.90928 0.03964 0.0
H1035 H 0.54848 0.91057 0.14823 0.0
H1036 H 0.59013 0.89263 0.98654 0.0
H1037 H 0.56158 0.9394 0.92366 0.0
H1038 H 0.56602 0.93549 1.00103 0.0
H1039 H 0.551 0.92799 0.96677 0.0
C1040 C 0.58342 0.91222 0.14838 0.0
C1041 C 0.57003 0.9121 0.17219 0.0
C1042 C 0.58558 0.91162 0.08555 0.0
C1043 C 0.5744 0.91087 0.04527 0.0
C1044 C 0.56108 0.91039 0.06925 0.0
H1045 H 0.57112 0.87682 0.68719 0.0
H1046 H 0.57125 0.88187 0.79514 0.0
C1047 C 0.55891 0.91109 0.13168 0.0
C1048 C 0.57654 0.90994 0.97841 0.0
H1049 H 0.56545 0.92312 0.84342 0.0
C1050 C 0.58487 0.89942 0.95533 0.0
C1051 C 0.56993 0.91895 0.93722 0.0
C1052 C 0.56176 0.93118 0.95847 0.0
C1053 C 0.58622 0.89724 0.89266 0.0
C1054 C 0.57876 0.90558 0.85161 0.0
C1055 C 0.57099 0.91654 0.87459 0.0
C1056 C 0.57845 0.90275 0.78513 0.0
C1057 C 0.59571 0.88602 0.87122 0.0
C1058 C 0.58179 0.91298 0.74269 0.0
C1059 C 0.58155 0.91015 0.68033 0.0
C1060 C 0.57798 0.897 0.65921 0.0
C1061 C 0.57426 0.88694 0.70181 0.0
C1062 C 0.57439 0.8898 0.76378 0.0
H1063 H 0.60395 0.88397 0.90483 0.0
H1064 H 0.58976 0.87641 0.86537 0.0
H1065 H 0.60056 0.88869 0.82732 0.0
H1066 H 0.58481 0.92311 0.75784 0.0
H1067 H 0.58448 0.91811 0.64878 0.0
H1068 H 0.05424 0.12634 0.25682 0.0
H1069 H 0.05 0.12364 0.36502 0.0
H1070 H 0.03001 0.08495 0.33127 0.0
H1071 H 0.03455 0.08742 0.22263 0.0
H1072 H 0.02582 0.12021 0.43248 0.0
H1073 H 0.06015 0.07494 0.45349 0.0
H1074 H 0.06005 0.0858 0.38739 0.0
H1075 H 0.04674 0.07329 0.39813 0.0
C1076 C 0.04898 0.11722 0.27228 0.0
C1077 C 0.04492 0.107 0.2309 0.0
C1078 C 0.04647 0.11574 0.33425 0.0
C1079 C 0.0399 0.10399 0.35656 0.0
C1080 C 0.03532 0.094 0.31528 0.0
H1081 H 0.0269 0.07374 0.72216 0.0
H1082 H 0.02623 0.07772 0.61309 0.0
C1083 C 0.0378 0.09549 0.25306 0.0
C1084 C 0.03827 0.1021 0.42312 0.0
H1085 H 0.04821 0.08174 0.54116 0.0
C1086 C 0.03069 0.11179 0.45629 0.0
C1087 C 0.04468 0.09115 0.45429 0.0
C1088 C 0.05347 0.08075 0.42177 0.0
C1089 C 0.02919 0.11071 0.51952 0.0
C1090 C 0.03568 0.0998 0.55071 0.0
C1091 C 0.0432 0.09009 0.5174 0.0
C1092 C 0.03486 0.09813 0.61776 0.0
C1093 C 0.02047 0.12113 0.55211 0.0
C1094 C 0.03975 0.10836 0.65727 0.0
C1095 C 0.04009 0.10611 0.72002 0.0
C1096 C 0.03572 0.09351 0.7444 0.0
C1097 C 0.03048 0.08349 0.70483 0.0
C1098 C 0.03007 0.08576 0.6424 0.0
H1099 H 0.01321 0.12633 0.52083 0.0
H1100 H 0.01452 0.11628 0.58919 0.0
H1101 H 0.02722 0.1291 0.57216 0.0
H1102 H 0.04378 0.11788 0.63948 0.0
H1103 H 0.04436 0.11395 0.74911 0.0
H1104 H 0.05586 0.55284 0.9398 0.0
H1105 H 0.06236 0.52916 0.92021 0.0
H1106 H 0.10282 0.53701 0.99151 0.0
H1107 H 0.09625 0.56088 1.01264 0.0
H1108 H 0.08284 0.51699 0.85195 0.0
H1109 H 0.08926 0.50542 0.09733 0.0
H1110 H 0.08138 0.52108 0.07124 0.0
H1111 H 0.09965 0.51894 0.06652 0.0
C1112 C 0.06619 0.54961 0.951 0.0
C1113 C 0.07549 0.55872 0.9785 0.0
C1114 C 0.06991 0.53605 0.93952 0.0
C1115 C 0.083 0.53123 0.95527 0.0
C1116 C 0.09258 0.54044 0.98003 0.0
H1117 H 0.0967 0.44129 0.96062 0.0
H1118 H 0.10309 0.46572 0.95655 0.0
C1119 C 0.08884 0.5541 0.99165 0.0
C1120 C 0.08602 0.51637 0.94835 0.0
H1121 H 0.08949 0.48684 0.03033 0.0
C1122 C 0.08458 0.51042 0.89082 0.0
C1123 C 0.08834 0.50779 0.99906 0.0
C1124 C 0.08967 0.51355 0.06217 0.0
C1125 C 0.08459 0.49613 0.88316 0.0
C1126 C 0.08598 0.48756 0.93435 0.0
C1127 C 0.08843 0.49347 0.9912 0.0
C1128 C 0.08279 0.4727 0.93141 0.0
C1129 C 0.08252 0.49027 0.82067 0.0
C1130 C 0.06931 0.46859 0.9187 0.0
C1131 C 0.06563 0.45479 0.92168 0.0
C1132 C 0.07537 0.44475 0.93712 0.0
C1133 C 0.08901 0.4488 0.94816 0.0
C1134 C 0.09266 0.46272 0.94599 0.0
H1135 H 0.08571 0.49767 0.78512 0.0
H1136 H 0.08838 0.48059 0.81485 0.0
H1137 H 0.07146 0.48798 0.81394 0.0
H1138 H 0.06149 0.47614 0.90834 0.0
H1139 H 0.05505 0.452 0.91284 0.0
H1140 H 0.8701 0.79301 0.2465 0.0
H1141 H 0.84594 0.80021 0.24014 0.0
H1142 H 0.83428 0.76595 0.35227 0.0
H1143 H 0.85812 0.75886 0.35945 0.0
H1144 H 0.82436 0.78578 0.19259 0.0
H1145 H 0.81351 0.79692 0.43213 0.0
H1146 H 0.8308 0.79557 0.40326 0.0
H1147 H 0.82143 0.7804 0.42496 0.0
C1148 C 0.86238 0.78715 0.27046 0.0
C1149 C 0.86605 0.77537 0.30356 0.0
C1150 C 0.8486 0.79127 0.26678 0.0
C1151 C 0.83832 0.78378 0.29677 0.0
C1152 C 0.84203 0.77213 0.33015 0.0
H1153 H 0.76005 0.7566 0.22952 0.0
H1154 H 0.78374 0.76426 0.22626 0.0
C1155 C 0.85571 0.768 0.33372 0.0
C1156 C 0.82354 0.78723 0.28979 0.0
H1157 H 0.79394 0.78928 0.37175 0.0
C1158 C 0.81773 0.78691 0.23166 0.0
C1159 C 0.81486 0.78906 0.34047 0.0
C1160 C 0.82051 0.79067 0.40362 0.0
C1161 C 0.80343 0.78705 0.22345 0.0
C1162 C 0.79473 0.78723 0.27473 0.0
C1163 C 0.80056 0.7889 0.33237 0.0
C1164 C 0.77992 0.78369 0.27055 0.0
C1165 C 0.79779 0.78649 0.15994 0.0
C1166 C 0.76977 0.79199 0.29716 0.0
C1167 C 0.75607 0.78754 0.29953 0.0
C1168 C 0.75238 0.77464 0.2761 0.0
C1169 C 0.76251 0.76659 0.24805 0.0
C1170 C 0.77609 0.77103 0.24552 0.0
H1171 H 0.80479 0.79174 0.12774 0.0
H1172 H 0.79694 0.77563 0.1455 0.0
H1173 H 0.78749 0.79132 0.15697 0.0
H1174 H 0.77251 0.80173 0.31738 0.0
H1175 H 0.74851 0.79394 0.32172 0.0
H1176 H 0.51836 0.55805 0.45788 0.0
H1177 H 0.51179 0.53369 0.45261 0.0
H1178 H 0.54456 0.52355 0.57602 0.0
H1179 H 0.55105 0.54758 0.5819 0.0
H1180 H 0.52805 0.51181 0.41324 0.0
H1181 H 0.5121 0.5033 0.64966 0.0
H1182 H 0.51355 0.52025 0.61721 0.0
H1183 H 0.5285 0.51161 0.64642 0.0
C1184 C 0.52402 0.55062 0.48448 0.0
C1185 C 0.53522 0.55475 0.52037 0.0
C1186 C 0.52027 0.53673 0.48136 0.0
C1187 C 0.52754 0.52683 0.51477 0.0
C1188 C 0.53859 0.53102 0.55098 0.0
H1189 H 0.55482 0.44676 0.47507 0.0
H1190 H 0.54818 0.47065 0.46284 0.0
C1191 C 0.54236 0.54479 0.55389 0.0
C1192 C 0.52444 0.51197 0.50937 0.0
H1193 H 0.52063 0.48328 0.5961 0.0
C1194 C 0.52609 0.50558 0.45294 0.0
C1195 C 0.52159 0.50383 0.56082 0.0
C1196 C 0.51868 0.51013 0.62179 0.0
C1197 C 0.52614 0.49121 0.44764 0.0
C1198 C 0.52476 0.48306 0.50031 0.0
C1199 C 0.52191 0.48948 0.55575 0.0
C1200 C 0.52784 0.46811 0.50055 0.0
C1201 C 0.52805 0.48493 0.38588 0.0
C1202 C 0.51867 0.45864 0.52631 0.0
C1203 C 0.52252 0.4449 0.53403 0.0
C1204 C 0.53566 0.44042 0.51663 0.0
C1205 C 0.54461 0.44983 0.48892 0.0
C1206 C 0.54077 0.46351 0.48129 0.0
H1207 H 0.52371 0.49166 0.35009 0.0
H1208 H 0.53919 0.48378 0.37668 0.0
H1209 H 0.52313 0.47468 0.38274 0.0
H1210 H 0.50868 0.46197 0.542 0.0
H1211 H 0.5154 0.43792 0.55567 0.0
H1212 H 0.86636 0.20874 0.82643 0.0
H1213 H 0.84198 0.20221 0.82912 0.0
H1214 H 0.83182 0.23797 0.72331 0.0
H1215 H 0.85588 0.24436 0.71953 0.0
H1216 H 0.82082 0.21633 0.8779 0.0
H1217 H 0.81025 0.20898 0.6352 0.0
H1218 H 0.8275 0.20966 0.66501 0.0
H1219 H 0.81837 0.22524 0.64737 0.0
C1220 C 0.85892 0.21508 0.80306 0.0
C1221 C 0.86309 0.22706 0.77269 0.0
C1222 C 0.84501 0.21134 0.80461 0.0
C1223 C 0.83507 0.21944 0.7753 0.0
C1224 C 0.83928 0.23132 0.74472 0.0
H1225 H 0.75549 0.24443 0.85349 0.0
H1226 H 0.77962 0.23829 0.84885 0.0
C1227 C 0.8531 0.23504 0.74314 0.0
C1228 C 0.82017 0.21636 0.78047 0.0
H1229 H 0.79066 0.21584 0.69692 0.0
C1230 C 0.81425 0.2159 0.8383 0.0
C1231 C 0.81155 0.21546 0.72898 0.0
C1232 C 0.81728 0.2147 0.66571 0.0
C1233 C 0.79993 0.21574 0.84588 0.0
C1234 C 0.79132 0.21637 0.79432 0.0
C1235 C 0.79723 0.21562 0.73655 0.0
C1236 C 0.7764 0.21941 0.7993 0.0
C1237 C 0.7942 0.2153 0.9092 0.0
C1238 C 0.76647 0.21104 0.7715 0.0
C1239 C 0.75252 0.21462 0.77356 0.0
C1240 C 0.74831 0.22671 0.80297 0.0
C1241 C 0.75831 0.23501 0.83072 0.0
C1242 C 0.77216 0.23144 0.82863 0.0
H1243 H 0.80127 0.20981 0.94036 0.0
H1244 H 0.79302 0.22593 0.92636 0.0
H1245 H 0.78402 0.21018 0.91043 0.0
H1246 H 0.76953 0.20179 0.74796 0.0
H1247 H 0.74508 0.20804 0.75156 0.0
H1248 H 0.24741 0.2915 0.78065 0.0
H1249 H 0.27167 0.29832 0.78787 0.0
H1250 H 0.28302 0.26367 0.67741 0.0
H1251 H 0.25908 0.25699 0.66926 0.0
H1252 H 0.29268 0.2839 0.83734 0.0
H1253 H 0.30493 0.2937 0.5982 0.0
H1254 H 0.28747 0.29273 0.62528 0.0
H1255 H 0.29671 0.27735 0.60544 0.0
C1256 C 0.25508 0.28549 0.75717 0.0
C1257 C 0.2513 0.27371 0.72432 0.0
C1258 C 0.26893 0.28939 0.76133 0.0
C1259 C 0.27916 0.28167 0.73211 0.0
C1260 C 0.27532 0.27003 0.69888 0.0
H1261 H 0.3562 0.25275 0.8113 0.0
H1262 H 0.33272 0.26106 0.81017 0.0
C1263 C 0.26158 0.26614 0.69478 0.0
C1264 C 0.29399 0.2848 0.74011 0.0
H1265 H 0.32402 0.28558 0.66077 0.0
C1266 C 0.29952 0.28463 0.79878 0.0
C1267 C 0.30296 0.28615 0.6901 0.0
C1268 C 0.29767 0.28765 0.62631 0.0
C1269 C 0.31378 0.28441 0.80831 0.0
C1270 C 0.32272 0.28404 0.75786 0.0
C1271 C 0.31721 0.28559 0.69955 0.0
C1272 C 0.33739 0.28005 0.76386 0.0
C1273 C 0.31909 0.28407 0.87239 0.0
C1274 C 0.34794 0.28785 0.73735 0.0
C1275 C 0.36153 0.28302 0.73745 0.0
C1276 C 0.3647 0.27022 0.76332 0.0
C1277 C 0.35415 0.26265 0.79096 0.0
C1278 C 0.34068 0.26747 0.79098 0.0
H1279 H 0.31212 0.28975 0.90326 0.0
H1280 H 0.3195 0.27328 0.88822 0.0
H1281 H 0.32954 0.28857 0.87578 0.0
H1282 H 0.34562 0.29753 0.71552 0.0
H1283 H 0.36942 0.28905 0.71553 0.0
H1284 H 0.25178 0.7489 0.33225 0.0
H1285 H 0.27548 0.74201 0.34873 0.0
H1286 H 0.26656 0.70188 0.27656 0.0
H1287 H 0.24267 0.70887 0.25848 0.0
H1288 H 0.28783 0.72133 0.41442 0.0
H1289 H 0.29765 0.71508 0.16753 0.0
H1290 H 0.28225 0.72309 0.19579 0.0
H1291 H 0.28421 0.70479 0.19977 0.0
C1292 C 0.25478 0.73856 0.32021 0.0
C1293 C 0.24536 0.72949 0.29332 0.0
C1294 C 0.26836 0.73461 0.32991 0.0
C1295 C 0.27288 0.72151 0.31297 0.0
C1296 C 0.26336 0.71214 0.28889 0.0
H1297 H 0.36275 0.70677 0.29789 0.0
H1298 H 0.33828 0.70053 0.30517 0.0
C1299 C 0.2497 0.71611 0.27901 0.0
C1300 C 0.28774 0.71824 0.31792 0.0
H1301 H 0.31667 0.71446 0.23212 0.0
C1302 C 0.29411 0.71953 0.37469 0.0
C1303 C 0.29595 0.71586 0.26609 0.0
C1304 C 0.28975 0.7147 0.2037 0.0
C1305 C 0.30846 0.71933 0.38048 0.0
C1306 C 0.31665 0.71787 0.32819 0.0
C1307 C 0.31032 0.71556 0.27211 0.0
C1308 C 0.33155 0.72096 0.32918 0.0
C1309 C 0.31478 0.72131 0.44214 0.0
C1310 C 0.3358 0.73447 0.34021 0.0
C1311 C 0.3496 0.73806 0.33532 0.0
C1312 C 0.3595 0.72821 0.31971 0.0
C1313 C 0.35533 0.71455 0.31043 0.0
C1314 C 0.3414 0.71098 0.31444 0.0
H1315 H 0.30757 0.71831 0.47872 0.0
H1316 H 0.32437 0.71524 0.44679 0.0
H1317 H 0.31739 0.73231 0.44831 0.0
H1318 H 0.32834 0.74236 0.35074 0.0
H1319 H 0.35248 0.74866 0.34289 0.0
H1320 H 0.60343 0.05792 0.51012 0.0
H1321 H 0.61102 0.03399 0.50036 0.0
H1322 H 0.57454 0.02466 0.39759 0.0
H1323 H 0.56708 0.04838 0.40628 0.0
H1324 H 0.59742 0.01237 0.54682 0.0
H1325 H 0.60293 0.00409 0.30168 0.0
H1326 H 0.60243 0.02106 0.33453 0.0
H1327 H 0.58674 0.01205 0.31728 0.0
C1328 C 0.59725 0.05083 0.48401 0.0
C1329 C 0.58464 0.05503 0.45907 0.0
C1330 C 0.60157 0.03716 0.47862 0.0
C1331 C 0.59346 0.02754 0.4475 0.0
C1332 C 0.58117 0.03191 0.42048 0.0
H1333 H 0.5656 0.94935 0.50787 0.0
H1334 H 0.57372 0.97291 0.51135 0.0
C1335 C 0.57684 0.04549 0.426 0.0
C1336 C 0.59668 0.01264 0.44936 0.0
H1337 H 0.59604 0.98396 0.36075 0.0
C1338 C 0.5975 0.00618 0.50603 0.0
C1339 C 0.59709 0.00451 0.39632 0.0
C1340 C 0.59741 0.01083 0.33407 0.0
C1341 C 0.5974 0.99183 0.51111 0.0
C1342 C 0.59619 0.98373 0.45823 0.0
C1343 C 0.59672 0.99015 0.40143 0.0
C1344 C 0.59236 0.969 0.46103 0.0
C1345 C 0.598 0.98548 0.57328 0.0
C1346 C 0.60008 0.95888 0.43108 0.0
C1347 C 0.5954 0.94527 0.42885 0.0
C1348 C 0.58281 0.94166 0.45566 0.0
C1349 C 0.57533 0.95177 0.48671 0.0
C1350 C 0.58003 0.96526 0.48924 0.0
H1351 H 0.60389 0.99207 0.60505 0.0
H1352 H 0.58742 0.98448 0.59135 0.0
H1353 H 0.60278 0.97514 0.57209 0.0
H1354 H 0.60956 0.96158 0.40844 0.0
H1355 H 0.60134 0.93772 0.40426 0.0
H1356 H 0.01855 0.9421 0.06824 0.0
H1357 H 0.01224 0.96635 0.0821 0.0
H1358 H 0.04606 0.97843 0.96826 0.0
H1359 H 0.05229 0.95452 0.95388 0.0
H1360 H 0.02825 0.98724 0.13205 0.0
H1361 H 0.01436 0.00031 0.89702 0.0
H1362 H 0.01545 0.9828 0.92334 0.0
H1363 H 0.03068 0.99184 0.9 0.0
C1364 C 0.02451 0.94994 0.04563 0.0
C1365 C 0.0359 0.94637 1.00984 0.0
C1366 C 0.02091 0.96377 0.05364 0.0
C1367 C 0.02853 0.97419 0.0253 0.0
C1368 C 0.03982 0.97058 0.98938 0.0
H1369 H 0.05613 0.0528 0.09739 0.0
H1370 H 0.04895 0.02894 0.10166 0.0
C1371 C 0.04344 0.95686 0.98159 0.0
C1372 C 0.02548 0.98893 0.03564 0.0
H1373 H 0.0225 0.01918 0.95918 0.0
C1374 C 0.02666 0.99422 0.09447 0.0
C1375 C 0.02308 0.99803 0.98693 0.0
C1376 C 0.02067 0.99293 0.92339 0.0
C1377 C 0.02669 0.00844 0.10506 0.0
C1378 C 0.0258 0.01757 0.05538 0.0
C1379 C 0.0234 0.01223 0.99731 0.0
C1380 C 0.02902 0.03243 0.06106 0.0
C1381 C 0.02809 0.01352 0.16921 0.0
C1382 C 0.02024 0.04246 0.03669 0.0
C1383 C 0.02442 0.05621 0.0336 0.0
C1384 C 0.0375 0.06013 0.05427 0.0
C1385 C 0.04598 0.05016 0.08106 0.0
C1386 C 0.04182 0.03648 0.08411 0.0
H1387 H 0.02333 0.0062 0.20153 0.0
H1388 H 0.03914 0.01432 0.18091 0.0
H1389 H 0.02326 0.02374 0.17517 0.0
H1390 H 0.01036 0.03958 0.01815 0.0
H1391 H 0.01766 0.06363 1.01244 0.0
H1392 H 0.16073 0.70441 0.26784 0.0
H1393 H 0.14971 0.68354 0.23335 0.0
H1394 H 0.18707 0.67119 0.14389 0.0
H1395 H 0.19808 0.69264 0.17624 0.0
H1396 H 0.16685 0.66693 0.07213 0.0
H1397 H 0.15106 0.6453 0.2903 0.0
H1398 H 0.14469 0.66248 0.28631 0.0
H1399 H 0.16298 0.65942 0.28565 0.0
C1400 C 0.16672 0.69721 0.24152 0.0
C1401 C 0.18033 0.70018 0.22508 0.0
C1402 C 0.16041 0.68515 0.2223 0.0
C1403 C 0.16763 0.67551 0.18749 0.0
C1404 C 0.18131 0.67836 0.17134 0.0
H1405 H 0.11222 0.60644 0.10637 0.0
H1406 H 0.13319 0.61791 0.14166 0.0
C1407 C 0.1876 0.69062 0.18983 0.0
C1408 C 0.16034 0.6632 0.16389 0.0
H1409 H 0.13606 0.6397 0.20423 0.0
C1410 C 0.16037 0.66076 0.10128 0.0
C1411 C 0.15221 0.65472 0.20165 0.0
C1412 C 0.15289 0.65553 0.26974 0.0
C1413 C 0.1516 0.65098 0.07512 0.0
C1414 C 0.14213 0.64386 0.11223 0.0
C1415 C 0.14301 0.64538 0.17528 0.0
C1416 C 0.13033 0.63607 0.08655 0.0
C1417 C 0.15247 0.64861 1.00779 0.0
C1418 C 0.1217 0.6424 0.044 0.0
C1419 C 0.10992 0.6358 0.02317 0.0
C1420 C 0.10621 0.62282 0.04555 0.0
C1421 C 0.11482 0.61642 0.08813 0.0
C1422 C 0.1268 0.62297 0.10832 0.0
H1423 H 0.16319 0.64984 0.99166 0.0
H1424 H 0.1488 0.63822 0.99503 0.0
H1425 H 0.14613 0.65639 0.98404 0.0
H1426 H 0.12381 0.65269 0.02818 0.0
H1427 H 0.10347 0.64114 0.99095 0.0
H1428 H 0.61647 0.89384 0.40705 0.0
H1429 H 0.64021 0.88531 0.40163 0.0
H1430 H 0.62616 0.84992 0.30212 0.0
H1431 H 0.60274 0.85837 0.30683 0.0
H1432 H 0.64849 0.86169 0.45378 0.0
H1433 H 0.66086 0.85849 0.21185 0.0
H1434 H 0.64708 0.86915 0.23988 0.0
H1435 H 0.6442 0.85123 0.22391 0.0
C1436 C 0.61856 0.88447 0.38236 0.0
C1437 C 0.60776 0.87673 0.35753 0.0
C1438 C 0.63211 0.87959 0.37947 0.0
C1439 C 0.63503 0.86706 0.3507 0.0
C1440 C 0.62428 0.85977 0.32318 0.0
H1441 H 0.6693 0.79488 0.42734 0.0
H1442 H 0.66018 0.81805 0.43126 0.0
C1443 C 0.61083 0.86456 0.32645 0.0
C1444 C 0.64867 0.86036 0.3564 0.0
H1445 H 0.67015 0.83975 0.27541 0.0
C1446 C 0.65353 0.85726 0.41465 0.0
C1447 C 0.65556 0.85483 0.30562 0.0
C1448 C 0.65172 0.85876 0.24185 0.0
C1449 C 0.66395 0.84751 0.42346 0.0
C1450 C 0.66943 0.84051 0.37286 0.0
C1451 C 0.66577 0.84487 0.31446 0.0
C1452 C 0.67666 0.82717 0.3793 0.0
C1453 C 0.66843 0.84425 0.48716 0.0
C1454 C 0.68907 0.82448 0.34902 0.0
C1455 C 0.69434 0.81108 0.34663 0.0
C1456 C 0.6871 0.80019 0.37348 0.0
C1457 C 0.6751 0.80306 0.40618 0.0
C1458 C 0.66993 0.81637 0.40897 0.0
H1459 H 0.66804 0.85357 0.51601 0.0
H1460 H 0.66128 0.83661 0.50701 0.0
H1461 H 0.679 0.83999 0.4884 0.0
H1462 H 0.69435 0.83262 0.32522 0.0
H1463 H 0.70355 0.80913 0.32065 0.0
H1464 H 0.5108 0.37477 0.66131 0.0
H1465 H 0.49375 0.35669 0.67521 0.0
H1466 H 0.47104 0.37178 0.52136 0.0
H1467 H 0.48781 0.39029 0.5087 0.0
H1468 H 0.45387 0.36373 0.60933 0.0
H1469 H 0.49258 0.32313 0.5711 0.0
H1470 H 0.49715 0.33397 0.63342 0.0
H1471 H 0.49622 0.34102 0.55817 0.0
C1472 C 0.50213 0.37429 0.63061 0.0
C1473 C 0.50072 0.38387 0.58348 0.0
C1474 C 0.49243 0.3639 0.6384 0.0
C1475 C 0.4813 0.36263 0.59831 0.0
C1476 C 0.47959 0.37249 0.55258 0.0
H1477 H 0.44058 0.28381 0.57642 0.0
H1478 H 0.45158 0.30548 0.54905 0.0
C1479 C 0.48919 0.38305 0.54535 0.0
C1480 C 0.47174 0.3508 0.60315 0.0
H1481 H 0.47107 0.31587 0.61064 0.0
C1482 C 0.45759 0.35324 0.60911 0.0
C1483 C 0.47655 0.3371 0.60149 0.0
C1484 C 0.49143 0.33363 0.59002 0.0
C1485 C 0.44818 0.34237 0.61512 0.0
C1486 C 0.4531 0.32871 0.6169 0.0
C1487 C 0.46723 0.32632 0.60965 0.0
C1488 C 0.44403 0.31663 0.62704 0.0
C1489 C 0.43307 0.34567 0.61847 0.0
C1490 C 0.4356 0.31577 0.67858 0.0
C1491 C 0.42895 0.30346 0.69313 0.0
C1492 C 0.43093 0.29177 0.65717 0.0
C1493 C 0.43883 0.29277 0.60441 0.0
C1494 C 0.44518 0.30512 0.58906 0.0
H1495 H 0.43073 0.35558 0.5959 0.0
H1496 H 0.42676 0.33751 0.59715 0.0
H1497 H 0.43001 0.34662 0.66662 0.0
H1498 H 0.43482 0.32432 0.70959 0.0
H1499 H 0.42314 0.30278 0.7348 0.0
H1500 H 0.01434 0.14508 0.04479 0.0
H1501 H 0.99305 0.1562 0.01603 0.0
H1502 H 0.97974 0.11925 0.92589 0.0
H1503 H 0.00157 0.10817 0.95232 0.0
H1504 H 0.97509 0.13945 0.8564 0.0
H1505 H 0.9552 0.15529 0.0777 0.0
H1506 H 0.97239 0.16157 0.07136 0.0
H1507 H 0.96924 0.1433 0.07093 0.0
C1508 C 0.00684 0.1392 0.01955 0.0
C1509 C 0.00966 0.12571 1.00094 0.0
C1510 C 0.99453 0.14556 1.00371 0.0
C1511 C 0.98453 0.13849 0.97024 0.0
C1512 C 0.98721 0.1249 0.95233 0.0
H1513 H 0.91468 0.19366 0.88535 0.0
H1514 H 0.92641 0.17329 0.92648 0.0
C1515 C -0.00031 0.11858 0.96736 0.0
C1516 C 0.97208 0.14591 0.94877 0.0
H1517 H 0.94908 0.17044 0.99242 0.0
C1518 C 0.96918 0.14594 0.88653 0.0
C1519 C 0.96396 0.15412 0.98779 0.0
C1520 C 0.96528 0.15341 0.0557 0.0
C1521 C 0.95936 0.15485 0.86184 0.0
C1522 C 0.95262 0.16438 0.9 0.0
C1523 C 0.95451 0.16343 0.9628 0.0
C1524 C 0.94506 0.17636 0.87499 0.0
C1525 C 0.95662 0.15421 0.7947 0.0
C1526 C 0.95174 0.18502 0.83385 0.0
C1527 C 0.94509 0.19645 0.81018 0.0
C1528 C 0.93164 0.19974 0.82793 0.0
C1529 C 0.92501 0.19134 0.87058 0.0
C1530 C 0.93169 0.17971 0.89396 0.0
H1531 H 0.95785 0.14357 0.77755 0.0
H1532 H 0.94613 0.15785 0.78338 0.0
H1533 H 0.9642 0.16072 0.77067 0.0
H1534 H 0.96224 0.18302 0.82032 0.0
H1535 H 0.95063 0.2028 0.77826 0.0
H1536 H 0.16191 0.29349 0.7397 0.0
H1537 H 0.15024 0.31391 0.77574 0.0
H1538 H 0.18835 0.32929 0.84864 0.0
H1539 H 0.20013 0.30833 0.81408 0.0
H1540 H 0.1681 0.33401 0.92497 0.0
H1541 H 0.15044 0.35105 0.70116 0.0
H1542 H 0.14501 0.3337 0.71247 0.0
H1543 H 0.1631 0.33768 0.70997 0.0
C1544 C 0.16786 0.30121 0.76325 0.0
C1545 C 0.18198 0.29939 0.77343 0.0
C1546 C 0.16118 0.31297 0.78332 0.0
C1547 C 0.16849 0.32341 0.81281 0.0
C1548 C 0.18254 0.32147 0.82498 0.0
H1549 H 0.11215 0.39278 0.87885 0.0
H1550 H 0.13288 0.38092 0.8428 0.0
C1551 C 0.18925 0.3095 0.80552 0.0
C1552 C 0.16105 0.33592 0.83294 0.0
H1553 H 0.136 0.35803 0.78646 0.0
C1554 C 0.16132 0.33948 0.89442 0.0
C1555 C 0.15255 0.34349 0.79298 0.0
C1556 C 0.1529 0.34137 0.72538 0.0
C1557 C 0.15237 0.34946 0.91779 0.0
C1558 C 0.14256 0.35565 0.87904 0.0
C1559 C 0.14323 0.35305 0.81668 0.0
C1560 C 0.13064 0.36351 0.9029 0.0
C1561 C 0.15339 0.35301 0.98407 0.0
C1562 C 0.12233 0.3576 0.94766 0.0
C1563 C 0.11069 0.36437 0.9686 0.0
C1564 C 0.10681 0.37712 0.94429 0.0
C1565 C 0.11491 0.38298 0.89851 0.0
C1566 C 0.12677 0.37624 0.87808 0.0
H1567 H 0.16418 0.35226 1.00002 0.0
H1568 H 0.14955 0.36352 0.99344 0.0
H1569 H 0.14726 0.34555 1.0107 0.0
H1570 H 0.12468 0.34754 0.96575 0.0
H1571 H 0.10457 0.35944 1.00323 0.0
H1572 H 0.00165 0.89434 0.09826 0.0
H1573 H 0.98213 0.88192 0.14271 0.0
H1574 H 0.99375 0.84558 0.04369 0.0
H1575 H 0.01263 0.85799 0.99755 0.0
H1576 H 0.96713 0.84883 0.0381 0.0
H1577 H 0.9837 0.8548 0.27753 0.0
H1578 H 0.98046 0.87055 0.23798 0.0
H1579 H 0.99449 0.85975 0.21511 0.0
C1580 C -2e-05 0.8837 0.08618 0.0
C1581 C 0.00866 0.87714 0.04446 0.0
C1582 C 0.98888 0.87659 0.11177 0.0
C1583 C 0.98653 0.86273 0.09716 0.0
C1584 C 0.99525 0.85626 0.05552 0.0
H1585 H 0.9552 0.79553 0.28709 0.0
H1586 H 0.96699 0.81496 0.24209 0.0
C1587 C 0.0061 0.86338 0.02925 0.0
C1588 C 0.97525 0.85462 0.12505 0.0
H1589 H 0.96419 0.8414 0.25941 0.0
C1590 C 0.96639 0.84728 0.08658 0.0
C1591 C 0.97427 0.85264 0.18833 0.0
C1592 C 0.98379 0.85974 0.23224 0.0
C1593 C 0.95726 0.83737 0.10911 0.0
C1594 C 0.95657 0.83511 0.17227 0.0
C1595 C 0.96475 0.84312 0.21099 0.0
C1596 C 0.9489 0.82336 0.19882 0.0
C1597 C 0.94917 0.82882 0.06469 0.0
C1598 C 0.93473 0.82147 0.18929 0.0
C1599 C 0.92796 0.81008 0.21415 0.0
C1600 C 0.9352 0.80064 0.25011 0.0
C1601 C 0.9493 0.80267 0.25995 0.0
C1602 C 0.95606 0.81382 0.23435 0.0
H1603 H 0.95317 0.82981 0.01784 0.0
H1604 H 0.94938 0.81782 0.07755 0.0
H1605 H 0.93832 0.83229 0.06456 0.0
H1606 H 0.9289 0.82883 0.16316 0.0
H1607 H 0.91706 0.80882 0.20634 0.0
H1608 H 0.49945 0.6056 0.43925 0.0
H1609 H 0.47842 0.61749 0.40648 0.0
H1610 H 0.49634 0.65624 0.45842 0.0
H1611 H 0.51686 0.64444 0.49329 0.0
H1612 H 0.47111 0.65442 0.49993 0.0
H1613 H 0.47124 0.63953 0.25704 0.0
H1614 H 0.47074 0.62554 0.30976 0.0
H1615 H 0.48568 0.63632 0.30604 0.0
C1616 C 0.49888 0.61666 0.44289 0.0
C1617 C 0.50974 0.62411 0.46884 0.0
C1618 C 0.4869 0.62346 0.42409 0.0
C1619 C 0.48579 0.6378 0.42965 0.0
C1620 C 0.49685 0.64518 0.4541 0.0
H1621 H 0.4448 0.70006 0.24585 0.0
H1622 H 0.45813 0.68099 0.2845 0.0
C1623 C 0.50862 0.63842 0.47381 0.0
C1624 C 0.47321 0.64541 0.41149 0.0
H1625 H 0.45384 0.65445 0.28908 0.0
C1626 C 0.46723 0.65435 0.45391 0.0
C1627 C 0.4681 0.64525 0.35156 0.0
C1628 C 0.47431 0.63624 0.30324 0.0
C1629 C 0.45703 0.66379 0.43721 0.0
C1630 C 0.45224 0.66395 0.37675 0.0
C1631 C 0.45752 0.65434 0.3354 0.0
C1632 C 0.44338 0.67518 0.35308 0.0
C1633 C 0.45222 0.67412 0.48351 0.0
C1634 C 0.43052 0.67835 0.37851 0.0
C1635 C 0.4229 0.68958 0.35707 0.0
C1636 C 0.4279 0.69758 0.30897 0.0
C1637 C 0.44058 0.69411 0.28281 0.0
C1638 C 0.44823 0.68313 0.30477 0.0
H1639 H 0.45902 0.6744 0.52388 0.0
H1640 H 0.4518 0.68458 0.46374 0.0
H1641 H 0.44176 0.67132 0.49892 0.0
H1642 H 0.42639 0.6722 0.41494 0.0
H1643 H 0.41311 0.69194 0.37774 0.0
H1644 H 0.66137 0.19966 0.79352 0.0
H1645 H 0.6507 0.18016 0.74412 0.0
H1646 H 0.68793 0.17257 0.64404 0.0
H1647 H 0.69861 0.19268 0.69206 0.0
H1648 H 0.66691 0.16983 0.57237 0.0
H1649 H 0.65485 0.14049 0.77772 0.0
H1650 H 0.64773 0.15732 0.78528 0.0
H1651 H 0.66609 0.1552 0.77935 0.0
C1652 C 0.66739 0.19381 0.7614 0.0
C1653 C 0.68091 0.19764 0.74718 0.0
C1654 C 0.66128 0.18254 0.73353 0.0
C1655 C 0.66863 0.17455 0.69184 0.0
C1656 C 0.68211 0.17844 0.67676 0.0
H1657 H 0.61785 0.10428 0.57926 0.0
H1658 H 0.63804 0.11659 0.61765 0.0
C1659 C 0.6882 0.18993 0.70412 0.0
C1660 C 0.66174 0.16274 0.66186 0.0
H1661 H 0.63964 0.13644 0.69149 0.0
C1662 C 0.66119 0.16233 0.59843 0.0
C1663 C 0.65463 0.1526 0.69539 0.0
C1664 C 0.65601 0.15134 0.76316 0.0
C1665 C 0.65282 0.15283 0.568 0.0
C1666 C 0.64435 0.14386 0.60196 0.0
C1667 C 0.64582 0.1435 0.66514 0.0
C1668 C 0.63301 0.13583 0.5738 0.0
C1669 C 0.65307 0.15267 0.49977 0.0
C1670 C 0.62342 0.14247 0.53652 0.0
C1671 C 0.61208 0.13542 0.51377 0.0
C1672 C 0.6098 0.12162 0.5291 0.0
C1673 C 0.61935 0.11491 0.56652 0.0
C1674 C 0.63089 0.12194 0.58846 0.0
H1675 H 0.66344 0.15535 0.48262 0.0
H1676 H 0.65013 0.1425 0.48133 0.0
H1677 H 0.64583 0.16052 0.48229 0.0
H1678 H 0.62442 0.15329 0.52642 0.0
H1679 H 0.60484 0.14099 0.48581 0.0
H1680 H 0.01515 0.36855 0.95755 0.0
H1681 H 0.99791 0.35134 0.93149 0.0
H1682 H 0.02858 0.31958 0.94311 0.0
H1683 H 0.04591 0.33673 0.96988 0.0
H1684 H 0.01345 0.31929 0.83486 0.0
H1685 H 0.97894 0.32191 0.0342 0.0
H1686 H 0.98254 0.3382 0.99981 0.0
H1687 H 0.99618 0.32871 0.03515 0.0
C1688 C 0.01818 0.35787 0.95627 0.0
C1689 C 0.03193 0.35403 0.9661 0.0
C1690 C 0.0083 0.34804 0.94113 0.0
C1691 C 0.01193 0.33416 0.93585 0.0
C1692 C 0.02556 0.33023 0.94701 0.0
H1693 H 0.96972 0.26008 0.82095 0.0
H1694 H 0.98671 0.27729 0.85036 0.0
C1695 C 0.03545 0.34005 0.9622 0.0
C1696 C 0.00173 0.32389 0.91487 0.0
H1697 H 0.97089 0.30925 0.94956 0.0
C1698 C 0.00417 0.31703 0.86009 0.0
C1699 C 0.9896 0.32104 0.94763 0.0
C1700 C 0.98667 0.32775 1.00774 0.0
C1701 C 0.99472 0.30753 0.83669 0.0
C1702 C 0.9826 0.30463 0.86955 0.0
C1703 C 0.98015 0.31151 0.92431 0.0
C1704 C 0.97244 0.29431 0.84861 0.0
C1705 C 0.99764 0.30091 0.77635 0.0
C1706 C 0.95874 0.29811 0.8384 0.0
C1707 C 0.94896 0.28825 0.82212 0.0
C1708 C 0.95269 0.27437 0.81615 0.0
C1709 C 0.96649 0.27066 0.82543 0.0
C1710 C 0.97625 0.28051 0.84171 0.0
H1711 H 0.00514 0.30696 0.74955 0.0
H1712 H 0.00207 0.29057 0.78395 0.0
H1713 H 0.98809 0.29972 0.74938 0.0
H1714 H 0.95556 0.30868 0.84383 0.0
H1715 H 0.9384 0.29145 0.81636 0.0
H1716 H 0.52015 0.13011 0.54784 0.0
H1717 H 0.50266 0.14709 0.57362 0.0
H1718 H 0.52723 0.16066 0.7246 0.0
H1719 H 0.54488 0.14376 0.69853 0.0
H1720 H 0.48737 0.15044 0.67545 0.0
H1721 H 0.51989 0.19642 0.63738 0.0
H1722 H 0.52502 0.17949 0.6135 0.0
H1723 H 0.52678 0.18452 0.69139 0.0
C1724 C 0.52179 0.13665 0.58679 0.0
C1725 C 0.53392 0.13562 0.62104 0.0
C1726 C 0.51181 0.14638 0.60134 0.0
C1727 C 0.51373 0.15531 0.65043 0.0
C1728 C 0.52569 0.15413 0.68559 0.0
H1729 H 0.461 0.22075 0.79009 0.0
H1730 H 0.47876 0.20307 0.77934 0.0
C1731 C 0.53574 0.14444 0.67077 0.0
C1732 C 0.50311 0.16576 0.66465 0.0
H1733 H 0.49762 0.20028 0.67652 0.0
C1734 C 0.48963 0.16133 0.67572 0.0
C1735 C 0.50606 0.17998 0.665 0.0
C1736 C 0.52019 0.18543 0.65066 0.0
C1737 C 0.47901 0.17073 0.68699 0.0
C1738 C 0.48195 0.18492 0.68675 0.0
C1739 C 0.49545 0.18937 0.67683 0.0
C1740 C 0.47102 0.19535 0.69417 0.0
C1741 C 0.46474 0.16543 0.69922 0.0
C1742 C 0.46088 0.19689 0.64962 0.0
C1743 C 0.45077 0.20697 0.65551 0.0
C1744 C 0.45061 0.21571 0.70616 0.0
C1745 C 0.46077 0.21409 0.75088 0.0
C1746 C 0.47095 0.20405 0.7447 0.0
H1747 H 0.46479 0.15438 0.71163 0.0
H1748 H 0.45979 0.17134 0.7362 0.0
H1749 H 0.45839 0.16666 0.65787 0.0
H1750 H 0.46086 0.19037 0.60993 0.0
H1751 H 0.44303 0.20788 0.62056 0.0
H1752 H 0.67541 0.71812 0.46646 0.0
H1753 H 0.65818 0.70077 0.49097 0.0
H1754 H 0.63984 0.70604 0.31486 0.0
H1755 H 0.65712 0.72338 0.28986 0.0
H1756 H 0.63038 0.70336 0.49735 0.0
H1757 H 0.64437 0.66469 0.32407 0.0
H1758 H 0.65533 0.67901 0.34263 0.0
H1759 H 0.64084 0.68135 0.2932 0.0
C1760 C 0.6677 0.7156 0.43294 0.0
C1761 C 0.66763 0.72213 0.37618 0.0
C1762 C 0.65788 0.70565 0.44695 0.0
C1763 C 0.64782 0.70197 0.40452 0.0
C1764 C 0.64769 0.70848 0.34782 0.0
H1765 H 0.57094 0.66025 0.48066 0.0
H1766 H 0.58894 0.67705 0.45971 0.0
C1767 C 0.65756 0.7184 0.33362 0.0
C1768 C 0.63723 0.69164 0.42051 0.0
H1769 H 0.62351 0.66092 0.37738 0.0
C1770 C 0.62891 0.69405 0.47126 0.0
C1771 C 0.63544 0.67941 0.38694 0.0
C1772 C 0.64455 0.67586 0.33403 0.0
C1773 C 0.61871 0.68468 0.48881 0.0
C1774 C 0.6166 0.67269 0.45396 0.0
C1775 C 0.62506 0.67017 0.40377 0.0
C1776 C 0.60568 0.6626 0.46867 0.0
C1777 C 0.61047 0.6876 0.5451 0.0
C1778 C 0.60907 0.64883 0.47968 0.0
C1779 C 0.59879 0.63915 0.49085 0.0
C1780 C 0.58487 0.64304 0.49103 0.0
C1781 C 0.58154 0.65688 0.48056 0.0
C1782 C 0.59183 0.66654 0.46921 0.0
H1783 H 0.61586 0.6949 0.57553 0.0
H1784 H 0.60052 0.69229 0.53203 0.0
H1785 H 0.60832 0.67803 0.57062 0.0
H1786 H 0.61969 0.64554 0.47906 0.0
H1787 H 0.60174 0.62855 0.49755 0.0
H1788 H 0.06736 0.83892 1.0081 0.0
H1789 H 0.08459 0.821 0.02455 0.0
H1790 H 0.11675 0.85126 0.01562 0.0
H1791 H 0.09963 0.86933 1.00076 0.0
H1792 H 0.11771 0.82115 0.94315 0.0
H1793 H 0.11032 0.82302 0.19312 0.0
H1794 H 0.09559 0.82418 0.14386 0.0
H1795 H 0.10772 0.83798 0.14628 0.0
C1796 C 0.0781 0.84178 1.00945 0.0
C1797 C 0.08208 0.85559 1.00333 0.0
C1798 C 0.08791 0.83152 0.0185 0.0
C1799 C 0.10188 0.83486 0.02135 0.0
C1800 C 0.10598 0.84851 0.01323 0.0
H1801 H 0.17661 0.7873 0.06946 0.0
H1802 H 0.15941 0.80418 0.03901 0.0
C1803 C 0.09618 0.8588 1.00438 0.0
C1804 C 0.11214 0.82421 0.03627 0.0
H1805 H 0.1262 0.80702 0.15558 0.0
C1806 C 0.11961 0.81802 0.98949 0.0
C1807 C 0.11447 0.82017 0.09673 0.0
C1808 C 0.10667 0.82665 0.14826 0.0
C1809 C 0.12936 0.80775 1.00172 0.0
C1810 C 0.13186 0.80382 0.06245 0.0
C1811 C 0.1243 0.81002 0.10909 0.0
C1812 C 0.14228 0.79334 0.07897 0.0
C1813 C 0.13665 0.801 0.94942 0.0
C1814 C 0.13846 0.78178 0.11278 0.0
C1815 C 0.14831 0.77223 0.13128 0.0
C1816 C 0.16224 0.77405 0.11649 0.0
C1817 C 0.16602 0.78561 0.08219 0.0
C1818 C 0.15616 0.79519 0.06395 0.0
H1819 H 0.13084 0.80222 0.90647 0.0
H1820 H 0.14685 0.80587 0.94336 0.0
H1821 H 0.13823 0.78988 0.95794 0.0
H1822 H 0.12783 0.78019 0.12535 0.0
H1823 H 0.14503 0.76359 0.15846 0.0
H1824 H 0.95553 0.72793 0.17605 0.0
H1825 H 0.97259 0.70995 0.16094 0.0
H1826 H 0.97387 0.7026 0.35318 0.0
H1827 H 0.95679 0.72075 0.36893 0.0
H1828 H 0.99925 0.70814 0.20758 0.0
H1829 H 0.96683 0.66426 0.28104 0.0
H1830 H 0.95975 0.68091 0.2636 0.0
H1831 H 0.96838 0.6781 0.33435 0.0
C1832 C 0.95953 0.72262 0.21533 0.0
C1833 C 0.95484 0.72586 0.27383 0.0
C1834 C 0.96923 0.71228 0.20651 0.0
C1835 C 0.97441 0.70486 0.25582 0.0
C1836 C 0.96983 0.70805 0.31437 0.0
H1837 H 0.04658 0.65142 0.22262 0.0
H1838 H 0.03052 0.66923 0.25576 0.0
C1839 C 0.96009 0.71843 0.32329 0.0
C1840 C 0.98471 0.6939 0.24528 0.0
H1841 H 0.98969 0.65926 0.2535 0.0
C1842 C 0.99722 0.69746 0.21797 0.0
C1843 C 0.98194 0.67996 0.2583 0.0
C1844 C 0.96847 0.67549 0.28549 0.0
C1845 C 0.00699 0.68745 0.20276 0.0
C1846 C 0.00426 0.67351 0.21604 0.0
C1847 C 0.9918 0.66996 0.24383 0.0
C1848 C 0.01387 0.66242 0.19832 0.0
C1849 C 0.01994 0.69181 0.1707 0.0
C1850 C 0.00972 0.65247 0.15623 0.0
C1851 C 0.01886 0.6423 0.1372 0.0
C1852 C 0.03233 0.64181 0.16009 0.0
C1853 C 0.03636 0.65163 0.2033 0.0
C1854 C 0.0272 0.66181 0.22236 0.0
H1855 H 0.0191 0.70237 0.15211 0.0
H1856 H 0.02863 0.69163 0.20318 0.0
H1857 H 0.0224 0.68467 0.13311 0.0
H1858 H 0.99949 0.65276 0.13709 0.0
H1859 H 0.01545 0.63502 0.10336 0.0
H1860 H 0.16048 0.2192 0.66079 0.0
H1861 H 0.143 0.20142 0.6769 0.0
H1862 H 0.14399 0.20937 0.86866 0.0
H1863 H 0.16152 0.22685 0.85338 0.0
H1864 H 0.14441 0.1774 0.75195 0.0
H1865 H 0.10288 0.21273 0.82372 0.0
H1866 H 0.11803 0.21855 0.7843 0.0
H1867 H 0.11872 0.21507 0.86411 0.0
C1868 C 0.15701 0.21712 0.7064 0.0
C1869 C 0.16227 0.22462 0.75565 0.0
C1870 C 0.14699 0.207 0.71548 0.0
C1871 C 0.14202 0.20428 0.77384 0.0
C1872 C 0.14744 0.21155 0.82309 0.0
H1873 H 0.10051 0.13574 0.93444 0.0
H1874 H 0.11686 0.15271 0.89693 0.0
C1875 C 0.15744 0.22159 0.81415 0.0
C1876 C 0.13136 0.19366 0.78404 0.0
H1877 H 0.09939 0.18892 0.84361 0.0
C1878 C 0.1345 0.17991 0.77139 0.0
C1879 C 0.11839 0.19699 0.80872 0.0
C1880 C 0.11421 0.21165 0.82052 0.0
C1881 C 0.1252 0.16933 0.78504 0.0
C1882 C 0.11252 0.17261 0.81262 0.0
C1883 C 0.10917 0.18641 0.82299 0.0
C1884 C 0.10275 0.16187 0.83298 0.0
C1885 C 0.12905 0.15474 0.76998 0.0
C1886 C 0.0893 0.16152 0.81023 0.0
C1887 C 0.07991 0.15179 0.83154 0.0
C1888 C 0.08375 0.14229 0.87645 0.0
C1889 C 0.09726 0.14271 0.89905 0.0
C1890 C 0.10664 0.15241 0.87764 0.0
H1891 H 0.13709 0.15431 0.73439 0.0
H1892 H 0.13319 0.14968 0.8111 0.0
H1893 H 0.11997 0.14883 0.75439 0.0
H1894 H 0.08608 0.16877 0.77593 0.0
H1895 H 0.06966 0.15168 0.8126 0.0
H1896 H 0.64032 0.25669 0.78065 0.0
H1897 H 0.62222 0.27368 0.76296 0.0
H1898 H 0.65241 0.306 0.76512 0.0
H1899 H 0.67058 0.2891 0.78104 0.0
H1900 H 0.61421 0.29714 0.83047 0.0
H1901 H 0.6329 0.31089 0.60118 0.0
H1902 H 0.63864 0.29575 0.64078 0.0
H1903 H 0.64563 0.31226 0.65968 0.0
C1904 C 0.64311 0.26741 0.77724 0.0
C1905 C 0.65692 0.27151 0.78199 0.0
C1906 C 0.63275 0.27711 0.76749 0.0
C1907 C 0.636 0.29107 0.76185 0.0
C1908 C 0.6497 0.29525 0.76843 0.0
H1909 H 0.58199 0.36195 0.76496 0.0
H1910 H 0.59833 0.34378 0.79036 0.0
C1911 C 0.66006 0.28557 0.77825 0.0
C1912 C 0.62512 0.30124 0.74779 0.0
H1913 H 0.61514 0.32472 0.6419 0.0
C1914 C 0.61437 0.30315 0.7892 0.0
C1915 C 0.62525 0.30891 0.69348 0.0
C1916 C 0.63614 0.3068 0.64588 0.0
C1917 C 0.6039 0.31277 0.7783 0.0
C1918 C 0.6043 0.32078 0.72492 0.0
C1919 C 0.6149 0.31865 0.68302 0.0
C1920 C 0.59385 0.33144 0.7114 0.0
C1921 C 0.59241 0.31414 0.82359 0.0
C1922 C 0.58603 0.33065 0.65817 0.0
C1923 C 0.57679 0.3411 0.64317 0.0
C1924 C 0.57525 0.35261 0.68093 0.0
C1925 C 0.58299 0.35329 0.73464 0.0
C1926 C 0.59223 0.34283 0.74961 0.0
H1927 H 0.59159 0.30492 0.85293 0.0
H1928 H 0.59443 0.32312 0.85309 0.0
H1929 H 0.58241 0.31578 0.80051 0.0
H1930 H 0.58719 0.32201 0.62779 0.0
H1931 H 0.57117 0.34033 0.60101 0.0
H1932 H 0.53043 0.84744 0.45462 0.0
H1933 H 0.51295 0.82999 0.43437 0.0
H1934 H 0.50838 0.84521 0.25238 0.0
H1935 H 0.52568 0.8628 0.27233 0.0
H1936 H 0.48524 0.83371 0.39595 0.0
H1937 H 0.51562 0.80383 0.22891 0.0
H1938 H 0.52335 0.8162 0.27929 0.0
H1939 H 0.51417 0.82187 0.21336 0.0
C1940 C 0.52564 0.84716 0.41041 0.0
C1941 C 0.52955 0.85648 0.36498 0.0
C1942 C 0.5157 0.83713 0.39884 0.0
C1943 C 0.50954 0.83617 0.34158 0.0
C1944 C 0.51324 0.84558 0.29645 0.0
H1945 H 0.44832 0.77978 0.19291 0.0
H1946 H 0.46501 0.79838 0.20689 0.0
C1947 C 0.52315 0.85562 0.30797 0.0
C1948 C 0.49909 0.82546 0.32944 0.0
H1949 H 0.49255 0.79705 0.24359 0.0
C1950 C 0.48684 0.82568 0.36272 0.0
C1951 C 0.50117 0.81506 0.28576 0.0
C1952 C 0.51432 0.81409 0.25002 0.0
C1953 C 0.47657 0.8158 0.35331 0.0
C1954 C 0.47873 0.80526 0.31032 0.0
C1955 C 0.49091 0.80514 0.27647 0.0
C1956 C 0.46869 0.79399 0.30147 0.0
C1957 C 0.4634 0.81686 0.38892 0.0
C1958 C 0.46541 0.78524 0.34966 0.0
C1959 C 0.45588 0.7747 0.34194 0.0
C1960 C 0.44949 0.77256 0.28556 0.0
C1961 C 0.45296 0.78122 0.237 0.0
C1962 C 0.46253 0.7918 0.24484 0.0
H1963 H 0.46171 0.82744 0.40613 0.0
H1964 H 0.45442 0.81383 0.36097 0.0
H1965 H 0.46395 0.80988 0.42849 0.0
H1966 H 0.47023 0.78658 0.39345 0.0
H1967 H 0.45332 0.76839 0.38065 0.0
loop_
_geom_bond_atom_site_label_1
_geom_bond_atom_site_label_2
_geom_bond_distance
_geom_bond_site_symmetry_2
_ccdc_geom_bond_type
C0 C1 1.351 . S
C0 N3 1.368 . S
C0 H5 0.931 . S
C1 C0 1.351 . S
C1 N2 1.373 . S
C1 H29 0.930 . S
N2 C1 1.373 . S
N2 C4 1.340 . S
N3 C0 1.368 . S
N3 C4 1.321 . S
N3 Co6 2.135 . S
C4 N2 1.340 . S
C4 N3 1.321 . S
C4 H28 0.930 . S
H5 C0 0.931 . S
Co6 N3 2.135 . S
Co6 N9 2.121 1_554 S
Co6 O14 2.055 . S
Co6 O17 2.039 . S
Co6 N20 2.140 . S
C7 O8 1.227 . S
C7 O17 1.265 . S
O8 C7 1.227 . S
N9 Co6 2.121 1_556 S
N9 C11 1.375 . S
N9 C12 1.313 . S
C10 C11 1.338 . S
C10 N13 1.377 . S
C10 H30 0.930 . S
C11 N9 1.375 . S
C11 C10 1.338 . S
C11 H15 0.931 . S
C12 N9 1.313 . S
C12 N13 1.344 . S
C12 H16 0.930 . S
N13 C10 1.377 . S
N13 C12 1.344 . S
O14 Co6 2.055 . S
O14 C18 1.253 . S
H15 C11 0.931 . S
H16 C12 0.930 . S
O17 Co6 2.039 . S
O17 C7 1.265 . S
C18 O14 1.253 . S
C18 O19 1.227 . S
O19 C18 1.227 . S
N20 Co6 2.140 . S
N20 C23 1.346 . S
N20 C24 1.345 . S
C21 C22 1.387 . S
C21 C25 1.391 . S
C22 C21 1.387 . S
C22 C23 1.369 . S
C22 H31 0.929 . S
C23 N20 1.346 . S
C23 C22 1.369 . S
C23 H26 0.928 . S
C24 N20 1.345 . S
C24 C25 1.371 . S
C24 H27 0.931 . S
C25 C21 1.391 . S
C25 C24 1.371 . S
C25 H32 0.930 . S
H26 C23 0.928 . S
H27 C24 0.931 . S
H28 C4 0.930 . S
H29 C1 0.930 . S
H30 C10 0.930 . S
H31 C22 0.929 . S
H32 C25 0.930 . S
C33 C34 1.351 . S
C33 N36 1.368 . S
C33 H38 0.931 . S
C34 C33 1.351 . S
C34 N35 1.373 . S
C34 H62 0.930 . S
N35 C34 1.373 . S
N35 C37 1.340 . S
N36 C33 1.368 . S
N36 C37 1.321 . S
N36 Co39 2.135 . S
C37 N35 1.340 . S
C37 N36 1.321 . S
C37 H61 0.930 . S
H38 C33 0.931 . S
Co39 N36 2.135 . S
Co39 N42 2.121 . S
Co39 O47 2.055 . S
Co39 O50 2.039 . S
Co39 N53 2.140 . S
C40 O41 1.227 . S
C40 O50 1.265 . S
O41 C40 1.227 . S
N42 Co39 2.121 . S
N42 C44 1.375 . S
N42 C45 1.313 . S
C43 C44 1.338 . S
C43 N46 1.377 . S
C43 H63 0.930 . S
C44 N42 1.375 . S
C44 C43 1.338 . S
C44 H48 0.931 . S
C45 N42 1.313 . S
C45 N46 1.344 . S
C45 H49 0.930 . S
N46 C43 1.377 . S
N46 C45 1.344 . S
O47 Co39 2.055 . S
O47 C51 1.253 . S
H48 C44 0.931 . S
H49 C45 0.930 . S
O50 Co39 2.039 . S
O50 C40 1.265 . S
C51 O47 1.253 . S
C51 O52 1.227 . S
O52 C51 1.227 . S
N53 Co39 2.140 . S
N53 C56 1.346 . S
N53 C57 1.345 . S
C54 C55 1.387 . S
C54 C58 1.391 . S
C55 C54 1.387 . S
C55 C56 1.369 . S
C55 H64 0.929 . S
C56 N53 1.346 . S
C56 C55 1.369 . S
C56 H59 0.928 . S
C57 N53 1.345 . S
C57 C58 1.371 . S
C57 H60 0.931 . S
C58 C54 1.391 . S
C58 C57 1.371 . S
C58 H65 0.930 . S
H59 C56 0.928 . S
H60 C57 0.931 . S
H61 C37 0.930 . S
H62 C34 0.930 . S
H63 C43 0.930 . S
H64 C55 0.929 . S
H65 C58 0.930 . S
C66 C67 1.351 . S
C66 N69 1.368 . S
C66 H71 0.931 . S
C67 C66 1.351 . S
C67 N68 1.373 . S
C67 H95 0.930 . S
N68 C67 1.373 . S
N68 C70 1.340 . S
N69 C66 1.368 . S
N69 C70 1.321 . S
N69 Co72 2.135 . S
C70 N68 1.340 . S
C70 N69 1.321 . S
C70 H94 0.930 . S
H71 C66 0.931 . S
Co72 N69 2.135 . S
Co72 N75 2.121 . S
Co72 O80 2.055 . S
Co72 O83 2.039 . S
Co72 N86 2.140 . S
C73 O74 1.227 . S
C73 O83 1.265 . S
O74 C73 1.227 . S
N75 Co72 2.121 . S
N75 C77 1.375 . S
N75 C78 1.313 . S
C76 C77 1.338 . S
C76 N79 1.377 . S
C76 H96 0.930 . S
C77 N75 1.375 . S
C77 C76 1.338 . S
C77 H81 0.931 . S
C78 N75 1.313 . S
C78 N79 1.344 . S
C78 H82 0.930 . S
N79 C76 1.377 . S
N79 C78 1.344 . S
O80 Co72 2.055 . S
O80 C84 1.253 . S
H81 C77 0.931 . S
H82 C78 0.930 . S
O83 Co72 2.039 . S
O83 C73 1.265 . S
C84 O80 1.253 . S
C84 O85 1.227 . S
O85 C84 1.227 . S
N86 Co72 2.140 . S
N86 C89 1.346 . S
N86 C90 1.345 . S
C87 C88 1.387 . S
C87 C91 1.391 . S
C88 C87 1.387 . S
C88 C89 1.369 . S
C88 H97 0.929 . S
C89 N86 1.346 . S
C89 C88 1.369 . S
C89 H92 0.928 . S
C90 N86 1.345 . S
C90 C91 1.371 . S
C90 H93 0.931 . S
C91 C87 1.391 . S
C91 C90 1.371 . S
C91 H98 0.930 . S
H92 C89 0.928 . S
H93 C90 0.931 . S
H94 C70 0.930 . S
H95 C67 0.930 . S
H96 C76 0.930 . S
H97 C88 0.929 . S
H98 C91 0.930 . S
C99 C100 1.351 1_556 S
C99 N102 1.368 . S
C99 H104 0.931 . S
C100 C99 1.351 1_554 S
C100 N101 1.373 . S
C100 H128 0.930 . S
N101 C100 1.373 . S
N101 C103 1.340 1_554 S
N102 C99 1.368 . S
N102 C103 1.321 . S
N102 Co105 2.135 . S
C103 N101 1.340 1_556 S
C103 N102 1.321 . S
C103 H127 0.930 . S
H104 C99 0.931 . S
Co105 N102 2.135 . S
Co105 N108 2.121 . S
Co105 O113 2.055 . S
Co105 O116 2.039 . S
Co105 N119 2.140 . S
C106 O107 1.227 . S
C106 O116 1.265 . S
O107 C106 1.227 . S
N108 Co105 2.121 . S
N108 C110 1.375 . S
N108 C111 1.313 . S
C109 C110 1.338 . S
C109 N112 1.377 . S
C109 H129 0.930 . S
C110 N108 1.375 . S
C110 C109 1.338 . S
C110 H114 0.931 . S
C111 N108 1.313 . S
C111 N112 1.344 . S
C111 H115 0.930 . S
N112 C109 1.377 . S
N112 C111 1.344 . S
O113 Co105 2.055 . S
O113 C117 1.253 . S
H114 C110 0.931 . S
H115 C111 0.930 . S
O116 Co105 2.039 . S
O116 C106 1.265 . S
C117 O113 1.253 . S
C117 O118 1.227 . S
O118 C117 1.227 . S
N119 Co105 2.140 . S
N119 C122 1.346 . S
N119 C123 1.345 . S
C120 C121 1.387 . S
C120 C124 1.391 . S
C121 C120 1.387 . S
C121 C122 1.369 . S
C121 H130 0.929 . S
C122 N119 1.346 . S
C122 C121 1.369 . S
C122 H125 0.928 . S
C123 N119 1.345 . S
C123 C124 1.371 . S
C123 H126 0.931 . S
C124 C120 1.391 . S
C124 C123 1.371 . S
C124 H131 0.930 . S
H125 C122 0.928 . S
H126 C123 0.931 . S
H127 C103 0.930 . S
H128 C100 0.930 . S
H129 C109 0.930 . S
H130 C121 0.929 . S
H131 C124 0.930 . S
C132 C133 1.351 . S
C132 N135 1.368 . S
C132 H137 0.931 . S
C133 C132 1.351 . S
C133 N134 1.373 . S
C133 H161 0.930 . S
N134 C133 1.373 . S
N134 C136 1.340 . S
N135 C132 1.368 . S
N135 C136 1.321 . S
N135 Co138 2.135 . S
C136 N134 1.340 . S
C136 N135 1.321 . S
C136 H160 0.930 . S
H137 C132 0.931 . S
Co138 N135 2.135 . S
Co138 N141 2.121 1_556 S
Co138 O146 2.055 . S
Co138 O149 2.039 . S
Co138 N152 2.140 . S
C139 O140 1.227 . S
C139 O149 1.265 . S
O140 C139 1.227 . S
N141 Co138 2.121 1_554 S
N141 C143 1.375 . S
N141 C144 1.313 . S
C142 C143 1.338 . S
C142 N145 1.377 . S
C142 H162 0.930 . S
C143 N141 1.375 . S
C143 C142 1.338 . S
C143 H147 0.931 . S
C144 N141 1.313 . S
C144 N145 1.344 . S
C144 H148 0.930 . S
N145 C142 1.377 . S
N145 C144 1.344 . S
O146 Co138 2.055 . S
O146 C150 1.253 . S
H147 C143 0.931 . S
H148 C144 0.930 . S
O149 Co138 2.039 . S
O149 C139 1.265 . S
C150 O146 1.253 . S
C150 O151 1.227 . S
O151 C150 1.227 . S
N152 Co138 2.140 . S
N152 C155 1.346 . S
N152 C156 1.345 . S
C153 C154 1.387 . S
C153 C157 1.391 . S
C154 C153 1.387 . S
C154 C155 1.369 . S
C154 H163 0.929 . S
C155 N152 1.346 . S
C155 C154 1.369 . S
C155 H158 0.928 . S
C156 N152 1.345 . S
C156 C157 1.371 . S
C156 H159 0.931 . S
C157 C153 1.391 . S
C157 C156 1.371 . S
C157 H164 0.930 . S
H158 C155 0.928 . S
H159 C156 0.931 . S
H160 C136 0.930 . S
H161 C133 0.930 . S
H162 C142 0.930 . S
H163 C154 0.929 . S
H164 C157 0.930 . S
C165 C166 1.351 1_554 S
C165 N168 1.368 . S
C165 H170 0.931 . S
C166 C165 1.351 1_556 S
C166 N167 1.373 . S
C166 H194 0.930 . S
N167 C166 1.373 . S
N167 C169 1.340 1_556 S
N168 C165 1.368 . S
N168 C169 1.321 . S
N168 Co171 2.135 . S
C169 N167 1.340 1_554 S
C169 N168 1.321 . S
C169 H193 0.930 . S
H170 C165 0.931 . S
Co171 N168 2.135 . S
Co171 N174 2.121 . S
Co171 O179 2.055 . S
Co171 O182 2.039 . S
Co171 N185 2.140 . S
C172 O173 1.227 . S
C172 O182 1.265 . S
O173 C172 1.227 . S
N174 Co171 2.121 . S
N174 C176 1.375 . S
N174 C177 1.313 . S
C175 C176 1.338 . S
C175 N178 1.377 . S
C175 H195 0.930 . S
C176 N174 1.375 . S
C176 C175 1.338 . S
C176 H180 0.931 . S
C177 N174 1.313 . S
C177 N178 1.344 . S
C177 H181 0.930 . S
N178 C175 1.377 . S
N178 C177 1.344 . S
O179 Co171 2.055 . S
O179 C183 1.253 . S
H180 C176 0.931 . S
H181 C177 0.930 . S
O182 Co171 2.039 . S
O182 C172 1.265 . S
C183 O179 1.253 . S
C183 O184 1.227 . S
O184 C183 1.227 . S
N185 Co171 2.140 . S
N185 C188 1.346 . S
N185 C189 1.345 . S
C186 C187 1.387 . S
C186 C190 1.391 . S
C187 C186 1.387 . S
C187 C188 1.369 . S
C187 H196 0.929 . S
C188 N185 1.346 . S
C188 C187 1.369 . S
C188 H191 0.928 . S
C189 N185 1.345 . S
C189 C190 1.371 . S
C189 H192 0.931 . S
C190 C186 1.391 . S
C190 C189 1.371 . S
C190 H197 0.930 . S
H191 C188 0.928 . S
H192 C189 0.931 . S
H193 C169 0.930 . S
H194 C166 0.930 . S
H195 C175 0.930 . S
H196 C187 0.929 . S
H197 C190 0.930 . S
C198 C199 1.351 . S
C198 N201 1.368 . S
C198 H203 0.931 . S
C199 C198 1.351 . S
C199 N200 1.373 . S
C199 H227 0.930 . S
N200 C199 1.373 . S
N200 C202 1.340 . S
N201 C198 1.368 . S
N201 C202 1.321 . S
N201 Co204 2.135 . S
C202 N200 1.340 . S
C202 N201 1.321 . S
C202 H226 0.930 . S
H203 C198 0.931 . S
Co204 N201 2.135 . S
Co204 N207 2.121 . S
Co204 O212 2.055 . S
Co204 O215 2.039 . S
Co204 N218 2.140 . S
C205 O206 1.227 . S
C205 O215 1.265 . S
O206 C205 1.227 . S
N207 Co204 2.121 . S
N207 C209 1.375 . S
N207 C210 1.313 . S
C208 C209 1.338 . S
C208 N211 1.377 . S
C208 H228 0.930 . S
C209 N207 1.375 . S
C209 C208 1.338 . S
C209 H213 0.931 . S
C210 N207 1.313 . S
C210 N211 1.344 . S
C210 H214 0.930 . S
N211 C208 1.377 . S
N211 C210 1.344 . S
O212 Co204 2.055 . S
O212 C216 1.253 . S
H213 C209 0.931 . S
H214 C210 0.930 . S
O215 Co204 2.039 . S
O215 C205 1.265 . S
C216 O212 1.253 . S
C216 O217 1.227 . S
O217 C216 1.227 . S
N218 Co204 2.140 . S
N218 C221 1.346 . S
N218 C222 1.345 . S
C219 C220 1.387 . S
C219 C223 1.391 . S
C220 C219 1.387 . S
C220 C221 1.369 . S
C220 H229 0.929 . S
C221 N218 1.346 . S
C221 C220 1.369 . S
C221 H224 0.928 . S
C222 N218 1.345 . S
C222 C223 1.371 . S
C222 H225 0.931 . S
C223 C219 1.391 . S
C223 C222 1.371 . S
C223 H230 0.930 . S
H224 C221 0.928 . S
H225 C222 0.931 . S
H226 C202 0.930 . S
H227 C199 0.930 . S
H228 C208 0.930 . S
H229 C220 0.929 . S
H230 C223 0.930 . S
C231 C232 1.351 . S
C231 N234 1.368 . S
C231 H236 0.931 . S
C232 C231 1.351 . S
C232 N233 1.373 . S
C232 H260 0.930 . S
N233 C232 1.373 . S
N233 C235 1.340 . S
N234 C231 1.368 . S
N234 C235 1.321 . S
N234 Co237 2.135 . S
C235 N233 1.340 . S
C235 N234 1.321 . S
C235 H259 0.930 . S
H236 C231 0.931 . S
Co237 N234 2.135 . S
Co237 N240 2.121 . S
Co237 O245 2.055 . S
Co237 O248 2.039 . S
Co237 N251 2.140 . S
C238 O239 1.227 . S
C238 O248 1.265 . S
O239 C238 1.227 . S
N240 Co237 2.121 . S
N240 C242 1.375 . S
N240 C243 1.313 . S
C241 C242 1.338 . S
C241 N244 1.377 . S
C241 H261 0.930 . S
C242 N240 1.375 . S
C242 C241 1.338 . S
C242 H246 0.931 . S
C243 N240 1.313 . S
C243 N244 1.344 . S
C243 H247 0.930 . S
N244 C241 1.377 . S
N244 C243 1.344 . S
O245 Co237 2.055 . S
O245 C249 1.253 . S
H246 C242 0.931 . S
H247 C243 0.930 . S
O248 Co237 2.039 . S
O248 C238 1.265 . S
C249 O245 1.253 . S
C249 O250 1.227 . S
O250 C249 1.227 . S
N251 Co237 2.140 . S
N251 C254 1.346 . S
N251 C255 1.345 . S
C252 C253 1.387 . S
C252 C256 1.391 . S
C253 C252 1.387 . S
C253 C254 1.369 . S
C253 H262 0.929 . S
C254 N251 1.346 . S
C254 C253 1.369 . S
C254 H257 0.928 . S
C255 N251 1.345 . S
C255 C256 1.371 . S
C255 H258 0.931 . S
C256 C252 1.391 . S
C256 C255 1.371 . S
C256 H263 0.930 . S
H257 C254 0.928 . S
H258 C255 0.931 . S
H259 C235 0.930 . S
H260 C232 0.930 . S
H261 C241 0.930 . S
H262 C253 0.929 . S
H263 C256 0.930 . S
C264 C265 1.351 . S
C264 N267 1.368 . S
C264 H269 0.931 . S
C265 C264 1.351 . S
C265 N266 1.373 . S
C265 H293 0.930 . S
N266 C265 1.373 . S
N266 C268 1.340 . S
N267 C264 1.368 . S
N267 C268 1.321 . S
N267 Co270 2.135 . S
C268 N266 1.340 . S
C268 N267 1.321 . S
C268 H292 0.930 . S
H269 C264 0.931 . S
Co270 N267 2.135 . S
Co270 N273 2.121 . S
Co270 O278 2.055 . S
Co270 O281 2.039 . S
Co270 N284 2.140 . S
C271 O272 1.227 . S
C271 O281 1.265 . S
O272 C271 1.227 . S
N273 Co270 2.121 . S
N273 C275 1.375 . S
N273 C276 1.313 . S
C274 C275 1.338 . S
C274 N277 1.377 . S
C274 H294 0.930 . S
C275 N273 1.375 . S
C275 C274 1.338 . S
C275 H279 0.931 . S
C276 N273 1.313 . S
C276 N277 1.344 . S
C276 H280 0.930 . S
N277 C274 1.377 . S
N277 C276 1.344 . S
O278 Co270 2.055 . S
O278 C282 1.253 . S
H279 C275 0.931 . S
H280 C276 0.930 . S
O281 Co270 2.039 . S
O281 C271 1.265 . S
C282 O278 1.253 . S
C282 O283 1.227 . S
O283 C282 1.227 . S
N284 Co270 2.140 . S
N284 C287 1.346 . S
N284 C288 1.345 . S
C285 C286 1.387 . S
C285 C289 1.391 . S
C286 C285 1.387 . S
C286 C287 1.369 . S
C286 H295 0.929 . S
C287 N284 1.346 . S
C287 C286 1.369 . S
C287 H290 0.928 . S
C288 N284 1.345 . S
C288 C289 1.371 . S
C288 H291 0.931 . S
C289 C285 1.391 . S
C289 C288 1.371 . S
C289 H296 0.930 . S
H290 C287 0.928 . S
H291 C288 0.931 . S
H292 C268 0.930 . S
H293 C265 0.930 . S
H294 C274 0.930 . S
H295 C286 0.929 . S
H296 C289 0.930 . S
C297 C298 1.351 1_554 S
C297 N300 1.368 . S
C297 H302 0.931 . S
C298 C297 1.351 1_556 S
C298 N299 1.373 . S
C298 H326 0.930 . S
N299 C298 1.373 . S
N299 C301 1.340 1_556 S
N300 C297 1.368 . S
N300 C301 1.321 . S
N300 Co303 2.135 . S
C301 N299 1.340 1_554 S
C301 N300 1.321 . S
C301 H325 0.930 . S
H302 C297 0.931 . S
Co303 N300 2.135 . S
Co303 N306 2.121 . S
Co303 O311 2.055 . S
Co303 O314 2.039 . S
Co303 N317 2.140 . S
C304 O305 1.227 . S
C304 O314 1.265 . S
O305 C304 1.227 . S
N306 Co303 2.121 . S
N306 C308 1.375 . S
N306 C309 1.313 . S
C307 C308 1.338 . S
C307 N310 1.377 . S
C307 H327 0.930 . S
C308 N306 1.375 . S
C308 C307 1.338 . S
C308 H312 0.931 . S
C309 N306 1.313 . S
C309 N310 1.344 . S
C309 H313 0.930 . S
N310 C307 1.377 . S
N310 C309 1.344 . S
O311 Co303 2.055 . S
O311 C315 1.253 . S
H312 C308 0.931 . S
H313 C309 0.930 . S
O314 Co303 2.039 . S
O314 C304 1.265 . S
C315 O311 1.253 . S
C315 O316 1.227 . S
O316 C315 1.227 . S
N317 Co303 2.140 . S
N317 C320 1.346 . S
N317 C321 1.345 . S
C318 C319 1.387 . S
C318 C322 1.391 . S
C319 C318 1.387 . S
C319 C320 1.369 . S
C319 H328 0.929 . S
C320 N317 1.346 . S
C320 C319 1.369 . S
C320 H323 0.928 . S
C321 N317 1.345 . S
C321 C322 1.371 . S
C321 H324 0.931 . S
C322 C318 1.391 . S
C322 C321 1.371 . S
C322 H329 0.930 . S
H323 C320 0.928 . S
H324 C321 0.931 . S
H325 C301 0.930 . S
H326 C298 0.930 . S
H327 C307 0.930 . S
H328 C319 0.929 . S
H329 C322 0.930 . S
C330 C331 1.351 1_556 S
C330 N333 1.368 . S
C330 H335 0.931 . S
C331 C330 1.351 1_554 S
C331 N332 1.373 . S
C331 H359 0.930 . S
N332 C331 1.373 . S
N332 C334 1.340 1_554 S
N333 C330 1.368 . S
N333 C334 1.321 . S
N333 Co336 2.135 . S
C334 N332 1.340 1_556 S
C334 N333 1.321 . S
C334 H358 0.930 . S
H335 C330 0.931 . S
Co336 N333 2.135 . S
Co336 N339 2.121 . S
Co336 O344 2.055 . S
Co336 O347 2.039 . S
Co336 N350 2.140 . S
C337 O338 1.227 . S
C337 O347 1.265 . S
O338 C337 1.227 . S
N339 Co336 2.121 . S
N339 C341 1.375 . S
N339 C342 1.313 . S
C340 C341 1.338 . S
C340 N343 1.377 . S
C340 H360 0.930 . S
C341 N339 1.375 . S
C341 C340 1.338 . S
C341 H345 0.931 . S
C342 N339 1.313 . S
C342 N343 1.344 . S
C342 H346 0.930 . S
N343 C340 1.377 . S
N343 C342 1.344 . S
O344 Co336 2.055 . S
O344 C348 1.253 . S
H345 C341 0.931 . S
H346 C342 0.930 . S
O347 Co336 2.039 . S
O347 C337 1.265 . S
C348 O344 1.253 . S
C348 O349 1.227 . S
O349 C348 1.227 . S
N350 Co336 2.140 . S
N350 C353 1.346 . S
N350 C354 1.345 . S
C351 C352 1.387 . S
C351 C355 1.391 . S
C352 C351 1.387 . S
C352 C353 1.369 . S
C352 H361 0.929 . S
C353 N350 1.346 . S
C353 C352 1.369 . S
C353 H356 0.928 . S
C354 N350 1.345 . S
C354 C355 1.371 . S
C354 H357 0.931 . S
C355 C351 1.391 . S
C355 C354 1.371 . S
C355 H362 0.930 . S
H356 C353 0.928 . S
H357 C354 0.931 . S
H358 C334 0.930 . S
H359 C331 0.930 . S
H360 C340 0.930 . S
H361 C352 0.929 . S
H362 C355 0.930 . S
C363 C364 1.351 . S
C363 N366 1.368 . S
C363 H368 0.931 . S
C364 C363 1.351 . S
C364 N365 1.373 . S
C364 H392 0.930 . S
N365 C364 1.373 . S
N365 C367 1.340 . S
N366 C363 1.368 . S
N366 C367 1.321 . S
N366 Co369 2.135 . S
C367 N365 1.340 . S
C367 N366 1.321 . S
C367 H391 0.930 . S
H368 C363 0.931 . S
Co369 N366 2.135 . S
Co369 N372 2.121 . S
Co369 O377 2.055 . S
Co369 O380 2.039 . S
Co369 N383 2.140 . S
C370 O371 1.227 . S
C370 O380 1.265 . S
O371 C370 1.227 . S
N372 Co369 2.121 . S
N372 C374 1.375 . S
N372 C375 1.313 . S
C373 C374 1.338 . S
C373 N376 1.377 . S
C373 H393 0.930 . S
C374 N372 1.375 . S
C374 C373 1.338 . S
C374 H378 0.931 . S
C375 N372 1.313 . S
C375 N376 1.344 . S
C375 H379 0.930 . S
N376 C373 1.377 . S
N376 C375 1.344 . S
O377 Co369 2.055 . S
O377 C381 1.253 . S
H378 C374 0.931 . S
H379 C375 0.930 . S
O380 Co369 2.039 . S
O380 C370 1.265 . S
C381 O377 1.253 . S
C381 O382 1.227 . S
O382 C381 1.227 . S
N383 Co369 2.140 . S
N383 C386 1.346 . S
N383 C387 1.345 . S
C384 C385 1.387 . S
C384 C388 1.391 . S
C385 C384 1.387 . S
C385 C386 1.369 . S
C385 H394 0.929 . S
C386 N383 1.346 . S
C386 C385 1.369 . S
C386 H389 0.928 . S
C387 N383 1.345 . S
C387 C388 1.371 . S
C387 H390 0.931 . S
C388 C384 1.391 . S
C388 C387 1.371 . S
C388 H395 0.930 . S
H389 C386 0.928 . S
H390 C387 0.931 . S
H391 C367 0.930 . S
H392 C364 0.930 . S
H393 C373 0.930 . S
H394 C385 0.929 . S
H395 C388 0.930 . S
C396 C397 1.351 . S
C396 N399 1.368 . S
C396 H401 0.931 . S
C397 C396 1.351 . S
C397 N398 1.373 . S
C397 H425 0.930 . S
N398 C397 1.373 . S
N398 C400 1.340 . S
N399 C396 1.368 . S
N399 C400 1.321 . S
N399 Co402 2.135 . S
C400 N398 1.340 . S
C400 N399 1.321 . S
C400 H424 0.930 . S
H401 C396 0.931 . S
Co402 N399 2.135 . S
Co402 N405 2.121 . S
Co402 O410 2.055 . S
Co402 O413 2.039 . S
Co402 N416 2.140 . S
C403 O404 1.227 . S
C403 O413 1.265 . S
O404 C403 1.227 . S
N405 Co402 2.121 . S
N405 C407 1.375 . S
N405 C408 1.313 . S
C406 C407 1.338 . S
C406 N409 1.377 . S
C406 H426 0.930 . S
C407 N405 1.375 . S
C407 C406 1.338 . S
C407 H411 0.931 . S
C408 N405 1.313 . S
C408 N409 1.344 . S
C408 H412 0.930 . S
N409 C406 1.377 . S
N409 C408 1.344 . S
O410 Co402 2.055 . S
O410 C414 1.253 . S
H411 C407 0.931 . S
H412 C408 0.930 . S
O413 Co402 2.039 . S
O413 C403 1.265 . S
C414 O410 1.253 . S
C414 O415 1.227 . S
O415 C414 1.227 . S
N416 Co402 2.140 . S
N416 C419 1.346 . S
N416 C420 1.345 . S
C417 C418 1.387 . S
C417 C421 1.391 . S
C418 C417 1.387 . S
C418 C419 1.369 . S
C418 H427 0.929 . S
C419 N416 1.346 . S
C419 C418 1.369 . S
C419 H422 0.928 . S
C420 N416 1.345 . S
C420 C421 1.371 . S
C420 H423 0.931 . S
C421 C417 1.391 . S
C421 C420 1.371 . S
C421 H428 0.930 . S
H422 C419 0.928 . S
H423 C420 0.931 . S
H424 C400 0.930 . S
H425 C397 0.930 . S
H426 C406 0.930 . S
H427 C418 0.929 . S
H428 C421 0.930 . S
C429 C430 1.351 . S
C429 N432 1.368 . S
C429 H434 0.931 . S
C430 C429 1.351 . S
C430 N431 1.373 . S
C430 H458 0.930 . S
N431 C430 1.373 . S
N431 C433 1.340 . S
N432 C429 1.368 . S
N432 C433 1.321 . S
N432 Co435 2.135 . S
C433 N431 1.340 . S
C433 N432 1.321 . S
C433 H457 0.930 . S
H434 C429 0.931 . S
Co435 N432 2.135 . S
Co435 N438 2.121 1_554 S
Co435 O443 2.055 . S
Co435 O446 2.039 . S
Co435 N449 2.140 . S
C436 O437 1.227 . S
C436 O446 1.265 . S
O437 C436 1.227 . S
N438 Co435 2.121 1_556 S
N438 C440 1.375 . S
N438 C441 1.313 . S
C439 C440 1.338 . S
C439 N442 1.377 . S
C439 H459 0.930 . S
C440 N438 1.375 . S
C440 C439 1.338 . S
C440 H444 0.931 . S
C441 N438 1.313 . S
C441 N442 1.344 . S
C441 H445 0.930 . S
N442 C439 1.377 . S
N442 C441 1.344 . S
O443 Co435 2.055 . S
O443 C447 1.253 . S
H444 C440 0.931 . S
H445 C441 0.930 . S
O446 Co435 2.039 . S
O446 C436 1.265 . S
C447 O443 1.253 . S
C447 O448 1.227 . S
O448 C447 1.227 . S
N449 Co435 2.140 . S
N449 C452 1.346 . S
N449 C453 1.345 . S
C450 C451 1.387 . S
C450 C454 1.391 . S
C451 C450 1.387 . S
C451 C452 1.369 . S
C451 H460 0.929 . S
C452 N449 1.346 . S
C452 C451 1.369 . S
C452 H455 0.928 . S
C453 N449 1.345 . S
C453 C454 1.371 . S
C453 H456 0.931 . S
C454 C450 1.391 . S
C454 C453 1.371 . S
C454 H461 0.930 . S
H455 C452 0.928 . S
H456 C453 0.931 . S
H457 C433 0.930 . S
H458 C430 0.930 . S
H459 C439 0.930 . S
H460 C451 0.929 . S
H461 C454 0.930 . S
C462 C463 1.351 . S
C462 N465 1.368 . S
C462 H467 0.931 . S
C463 C462 1.351 . S
C463 N464 1.373 . S
C463 H491 0.930 . S
N464 C463 1.373 . S
N464 C466 1.340 . S
N465 C462 1.368 . S
N465 C466 1.321 . S
N465 Co468 2.135 . S
C466 N464 1.340 . S
C466 N465 1.321 . S
C466 H490 0.930 . S
H467 C462 0.931 . S
Co468 N465 2.135 . S
Co468 N471 2.121 . S
Co468 O476 2.055 . S
Co468 O479 2.039 . S
Co468 N482 2.140 . S
C469 O470 1.227 . S
C469 O479 1.265 . S
O470 C469 1.227 . S
N471 Co468 2.121 . S
N471 C473 1.375 . S
N471 C474 1.313 . S
C472 C473 1.338 . S
C472 N475 1.377 . S
C472 H492 0.930 . S
C473 N471 1.375 . S
C473 C472 1.338 . S
C473 H477 0.931 . S
C474 N471 1.313 . S
C474 N475 1.344 . S
C474 H478 0.930 . S
N475 C472 1.377 . S
N475 C474 1.344 . S
O476 Co468 2.055 . S
O476 C480 1.253 . S
H477 C473 0.931 . S
H478 C474 0.930 . S
O479 Co468 2.039 . S
O479 C469 1.265 . S
C480 O476 1.253 . S
C480 O481 1.227 . S
O481 C480 1.227 . S
N482 Co468 2.140 . S
N482 C485 1.346 . S
N482 C486 1.345 . S
C483 C484 1.387 . S
C483 C487 1.391 . S
C484 C483 1.387 . S
C484 C485 1.369 . S
C484 H493 0.929 . S
C485 N482 1.346 . S
C485 C484 1.369 . S
C485 H488 0.928 . S
C486 N482 1.345 . S
C486 C487 1.371 . S
C486 H489 0.931 . S
C487 C483 1.391 . S
C487 C486 1.371 . S
C487 H494 0.930 . S
H488 C485 0.928 . S
H489 C486 0.931 . S
H490 C466 0.930 . S
H491 C463 0.930 . S
H492 C472 0.930 . S
H493 C484 0.929 . S
H494 C487 0.930 . S
C495 C496 1.351 . S
C495 N498 1.368 . S
C495 H500 0.931 . S
C496 C495 1.351 . S
C496 N497 1.373 . S
C496 H524 0.930 . S
N497 C496 1.373 . S
N497 C499 1.340 . S
N498 C495 1.368 . S
N498 C499 1.321 . S
N498 Co501 2.135 . S
C499 N497 1.340 . S
C499 N498 1.321 . S
C499 H523 0.930 . S
H500 C495 0.931 . S
Co501 N498 2.135 . S
Co501 N504 2.121 1_556 S
Co501 O509 2.055 . S
Co501 O512 2.039 . S
Co501 N515 2.140 . S
C502 O503 1.227 . S
C502 O512 1.265 . S
O503 C502 1.227 . S
N504 Co501 2.121 1_554 S
N504 C506 1.375 . S
N504 C507 1.313 . S
C505 C506 1.338 . S
C505 N508 1.377 . S
C505 H525 0.930 . S
C506 N504 1.375 . S
C506 C505 1.338 . S
C506 H510 0.931 . S
C507 N504 1.313 . S
C507 N508 1.344 . S
C507 H511 0.930 . S
N508 C505 1.377 . S
N508 C507 1.344 . S
O509 Co501 2.055 . S
O509 C513 1.253 . S
H510 C506 0.931 . S
H511 C507 0.930 . S
O512 Co501 2.039 . S
O512 C502 1.265 . S
C513 O509 1.253 . S
C513 O514 1.227 . S
O514 C513 1.227 . S
N515 Co501 2.140 . S
N515 C518 1.346 . S
N515 C519 1.345 . S
C516 C517 1.387 . S
C516 C520 1.391 . S
C517 C516 1.387 . S
C517 C518 1.369 . S
C517 H526 0.929 . S
C518 N515 1.346 . S
C518 C517 1.369 . S
C518 H521 0.928 . S
C519 N515 1.345 . S
C519 C520 1.371 . S
C519 H522 0.931 . S
C520 C516 1.391 . S
C520 C519 1.371 . S
C520 H527 0.930 . S
H521 C518 0.928 . S
H522 C519 0.931 . S
H523 C499 0.930 . S
H524 C496 0.930 . S
H525 C505 0.930 . S
H526 C517 0.929 . S
H527 C520 0.930 . S
H528 C536 0.929 . S
H529 C538 0.930 . S
H530 C540 0.930 . S
H531 C543 0.929 . S
H532 C546 0.930 . S
H533 C548 0.960 . S
H534 C548 0.960 . S
H535 C548 0.960 . S
C536 H528 0.929 . S
C536 C537 1.377 . S
C536 C538 1.384 . S
C537 C536 1.377 . S
C537 C543 1.390 . S
C538 H529 0.930 . S
C538 C536 1.384 . S
C538 C539 1.372 . S
C539 C538 1.372 . S
C539 C540 1.400 . S
C539 C544 1.490 . S
C540 H530 0.930 . S
C540 C539 1.400 . S
C540 C543 1.386 . S
H541 C557 0.930 . S
H542 C558 0.931 . S
C543 H531 0.929 . S
C543 C537 1.390 . S
C543 C540 1.386 . S
C544 C539 1.490 . S
C544 C546 1.395 . S
C544 C547 1.403 . S
H545 C551 0.930 . S
C546 H532 0.930 . S
C546 C544 1.395 . S
C546 C549 1.403 . S
C547 C544 1.403 . S
C547 C548 1.524 . S
C547 C551 1.400 . S
C548 H533 0.960 . S
C548 H534 0.960 . S
C548 H535 0.960 . S
C548 C547 1.524 . S
C549 C546 1.403 . S
C549 C550 1.392 . S
C549 C553 1.495 . S
C550 C549 1.392 . S
C550 C551 1.385 . S
C550 C552 1.478 . S
C551 H545 0.930 . S
C551 C547 1.400 . S
C551 C550 1.385 . S
C552 C550 1.478 . S
C552 C554 1.381 . S
C552 C558 1.383 . S
C553 C549 1.495 . S
C553 H559 0.959 . S
C553 H560 0.961 . S
C553 H561 0.960 . S
C554 C552 1.381 . S
C554 C555 1.394 . S
C554 H562 0.930 . S
C555 C554 1.394 . S
C555 C556 1.383 . S
C555 H563 0.929 . S
C556 C555 1.383 . S
C556 C557 1.377 . S
C557 H541 0.930 . S
C557 C556 1.377 . S
C557 C558 1.379 . S
C558 H542 0.931 . S
C558 C552 1.383 . S
C558 C557 1.379 . S
H559 C553 0.959 . S
H560 C553 0.961 . S
H561 C553 0.960 . S
H562 C554 0.930 . S
H563 C555 0.929 . S
H564 C572 0.929 . S
H565 C574 0.933 . S
H566 C576 0.930 . S
H567 C579 0.929 . S
H568 C582 0.930 . S
H569 C584 0.960 . S
H570 C584 0.960 . S
H571 C584 0.960 . S
C572 H564 0.929 . S
C572 C573 1.377 . S
C572 C574 1.378 1_554 S
C573 C572 1.377 . S
C573 C579 1.390 . S
C574 H565 0.933 . S
C574 C572 1.378 1_556 S
C574 C575 1.375 . S
C575 C574 1.375 . S
C575 C576 1.400 . S
C575 C580 1.490 . S
C576 H566 0.930 . S
C576 C575 1.400 . S
C576 C579 1.386 1_556 S
H577 C593 0.930 . S
H578 C594 0.931 . S
C579 H567 0.929 . S
C579 C573 1.390 . S
C579 C576 1.386 1_554 S
C580 C575 1.490 . S
C580 C582 1.395 . S
C580 C583 1.403 . S
H581 C587 0.930 . S
C582 H568 0.930 . S
C582 C580 1.395 . S
C582 C585 1.403 . S
C583 C580 1.403 . S
C583 C584 1.524 . S
C583 C587 1.400 . S
C584 H569 0.960 . S
C584 H570 0.960 . S
C584 H571 0.960 . S
C584 C583 1.524 . S
C585 C582 1.403 . S
C585 C586 1.392 . S
C585 C589 1.495 . S
C586 C585 1.392 . S
C586 C587 1.385 . S
C586 C588 1.478 . S
C587 H581 0.930 . S
C587 C583 1.400 . S
C587 C586 1.385 . S
C588 C586 1.478 . S
C588 C590 1.381 . S
C588 C594 1.383 . S
C589 C585 1.495 . S
C589 H595 0.959 . S
C589 H596 0.961 . S
C589 H597 0.960 . S
C590 C588 1.381 . S
C590 C591 1.394 . S
C590 H598 0.930 . S
C591 C590 1.394 . S
C591 C592 1.383 . S
C591 H599 0.929 . S
C592 C591 1.383 . S
C592 C593 1.377 . S
C593 H577 0.930 . S
C593 C592 1.377 . S
C593 C594 1.379 . S
C594 H578 0.931 . S
C594 C588 1.383 . S
C594 C593 1.379 . S
H595 C589 0.959 . S
H596 C589 0.961 . S
H597 C589 0.960 . S
H598 C590 0.930 . S
H599 C591 0.929 . S
H600 C608 0.929 . S
H601 C610 0.930 . S
H602 C612 0.930 . S
H603 C615 0.929 . S
H604 C618 0.930 . S
H605 C620 0.960 . S
H606 C620 0.960 . S
H607 C620 0.960 . S
C608 H600 0.929 . S
C608 C609 1.377 . S
C608 C610 1.384 . S
C609 C608 1.377 . S
C609 C615 1.390 . S
C610 H601 0.930 . S
C610 C608 1.384 . S
C610 C611 1.372 . S
C611 C610 1.372 . S
C611 C612 1.400 . S
C611 C616 1.490 . S
C612 H602 0.930 . S
C612 C611 1.400 . S
C612 C615 1.386 . S
H613 C629 0.930 . S
H614 C630 0.931 . S
C615 H603 0.929 . S
C615 C609 1.390 . S
C615 C612 1.386 . S
C616 C611 1.490 . S
C616 C618 1.395 . S
C616 C619 1.403 . S
H617 C623 0.930 . S
C618 H604 0.930 . S
C618 C616 1.395 . S
C618 C621 1.403 . S
C619 C616 1.403 . S
C619 C620 1.524 . S
C619 C623 1.400 . S
C620 H605 0.960 . S
C620 H606 0.960 . S
C620 H607 0.960 . S
C620 C619 1.524 . S
C621 C618 1.403 . S
C621 C622 1.392 . S
C621 C625 1.495 . S
C622 C621 1.392 . S
C622 C623 1.385 . S
C622 C624 1.478 1_554 S
C623 H617 0.930 . S
C623 C619 1.400 . S
C623 C622 1.385 . S
C624 C622 1.478 1_556 S
C624 C626 1.381 . S
C624 C630 1.383 . S
C625 C621 1.495 . S
C625 H631 0.959 . S
C625 H632 0.961 . S
C625 H633 0.960 . S
C626 C624 1.381 . S
C626 C627 1.394 . S
C626 H634 0.930 . S
C627 C626 1.394 . S
C627 C628 1.383 . S
C627 H635 0.929 . S
C628 C627 1.383 . S
C628 C629 1.377 . S
C629 H613 0.930 . S
C629 C628 1.377 . S
C629 C630 1.379 . S
C630 H614 0.931 . S
C630 C624 1.383 . S
C630 C629 1.379 . S
H631 C625 0.959 . S
H632 C625 0.961 . S
H633 C625 0.960 . S
H634 C626 0.930 . S
H635 C627 0.929 . S
H636 C644 0.929 . S
H637 C646 0.930 . S
H638 C648 0.930 . S
H639 C651 0.929 . S
H640 C654 0.930 . S
H641 C656 0.960 . S
H642 C656 0.960 . S
H643 C656 0.960 . S
C644 H636 0.929 . S
C644 C645 1.377 . S
C644 C646 1.384 . S
C645 C644 1.377 . S
C645 C651 1.390 . S
C646 H637 0.930 . S
C646 C644 1.384 . S
C646 C647 1.372 . S
C647 C646 1.372 . S
C647 C648 1.400 . S
C647 C652 1.490 . S
C648 H638 0.930 . S
C648 C647 1.400 . S
C648 C651 1.386 . S
H649 C665 0.930 . S
H650 C666 0.931 . S
C651 H639 0.929 . S
C651 C645 1.390 . S
C651 C648 1.386 . S
C652 C647 1.490 . S
C652 C654 1.395 . S
C652 C655 1.403 . S
H653 C659 0.930 . S
C654 H640 0.930 . S
C654 C652 1.395 . S
C654 C657 1.403 . S
C655 C652 1.403 . S
C655 C656 1.524 . S
C655 C659 1.400 . S
C656 H641 0.960 . S
C656 H642 0.960 . S
C656 H643 0.960 . S
C656 C655 1.524 . S
C657 C654 1.403 . S
C657 C658 1.392 . S
C657 C661 1.495 . S
C658 C657 1.392 . S
C658 C659 1.385 . S
C658 C660 1.478 . S
C659 H653 0.930 . S
C659 C655 1.400 . S
C659 C658 1.385 . S
C660 C658 1.478 . S
C660 C662 1.381 . S
C660 C666 1.383 . S
C661 C657 1.495 . S
C661 H667 0.959 . S
C661 H668 0.961 . S
C661 H669 0.960 . S
C662 C660 1.381 . S
C662 C663 1.394 . S
C662 H670 0.930 . S
C663 C662 1.394 . S
C663 C664 1.383 . S
C663 H671 0.929 . S
C664 C663 1.383 . S
C664 C665 1.377 . S
C665 H649 0.930 . S
C665 C664 1.377 . S
C665 C666 1.379 . S
C666 H650 0.931 . S
C666 C660 1.383 . S
C666 C665 1.379 . S
H667 C661 0.959 . S
H668 C661 0.961 . S
H669 C661 0.960 . S
H670 C662 0.930 . S
H671 C663 0.929 . S
H672 C680 0.929 . S
H673 C682 0.930 . S
H674 C684 0.930 . S
H675 C687 0.929 . S
H676 C690 0.930 . S
H677 C692 0.960 . S
H678 C692 0.960 . S
H679 C692 0.960 . S
C680 H672 0.929 . S
C680 C681 1.377 . S
C680 C682 1.384 . S
C681 C680 1.377 . S
C681 C687 1.390 . S
C682 H673 0.930 . S
C682 C680 1.384 . S
C682 C683 1.372 . S
C683 C682 1.372 . S
C683 C684 1.400 . S
C683 C688 1.490 . S
C684 H674 0.930 . S
C684 C683 1.400 . S
C684 C687 1.386 . S
H685 C701 0.930 . S
H686 C702 0.931 . S
C687 H675 0.929 . S
C687 C681 1.390 . S
C687 C684 1.386 . S
C688 C683 1.490 . S
C688 C690 1.395 . S
C688 C691 1.403 . S
H689 C695 0.930 . S
C690 H676 0.930 . S
C690 C688 1.395 . S
C690 C693 1.403 . S
C691 C688 1.403 . S
C691 C692 1.524 . S
C691 C695 1.400 . S
C692 H677 0.960 . S
C692 H678 0.960 . S
C692 H679 0.960 . S
C692 C691 1.524 . S
C693 C690 1.403 . S
C693 C694 1.392 . S
C693 C697 1.495 . S
C694 C693 1.392 . S
C694 C695 1.385 . S
C694 C696 1.478 . S
C695 H689 0.930 . S
C695 C691 1.400 . S
C695 C694 1.385 . S
C696 C694 1.478 . S
C696 C698 1.381 . S
C696 C702 1.383 . S
C697 C693 1.495 . S
C697 H703 0.959 . S
C697 H704 0.961 . S
C697 H705 0.960 . S
C698 C696 1.381 . S
C698 C699 1.394 . S
C698 H706 0.930 . S
C699 C698 1.394 . S
C699 C700 1.383 . S
C699 H707 0.929 . S
C700 C699 1.383 . S
C700 C701 1.377 . S
C701 H685 0.930 . S
C701 C700 1.377 . S
C701 C702 1.379 . S
C702 H686 0.931 . S
C702 C696 1.383 . S
C702 C701 1.379 . S
H703 C697 0.959 . S
H704 C697 0.961 . S
H705 C697 0.960 . S
H706 C698 0.930 . S
H707 C699 0.929 . S
H708 C716 0.929 . S
H709 C718 0.930 . S
H710 C720 0.930 . S
H711 C723 0.929 . S
H712 C726 0.930 . S
H713 C728 0.960 . S
H714 C728 0.960 . S
H715 C728 0.960 . S
C716 H708 0.929 . S
C716 C717 1.377 . S
C716 C718 1.384 . S
C717 C716 1.377 . S
C717 C723 1.390 . S
C718 H709 0.930 . S
C718 C716 1.384 . S
C718 C719 1.372 . S
C719 C718 1.372 . S
C719 C720 1.400 . S
C719 C724 1.490 . S
C720 H710 0.930 . S
C720 C719 1.400 . S
C720 C723 1.386 . S
H721 C737 0.930 . S
H722 C738 0.931 . S
C723 H711 0.929 . S
C723 C717 1.390 . S
C723 C720 1.386 . S
C724 C719 1.490 . S
C724 C726 1.395 . S
C724 C727 1.403 . S
H725 C731 0.930 . S
C726 H712 0.930 . S
C726 C724 1.395 . S
C726 C729 1.403 . S
C727 C724 1.403 . S
C727 C728 1.524 . S
C727 C731 1.400 . S
C728 H713 0.960 . S
C728 H714 0.960 . S
C728 H715 0.960 . S
C728 C727 1.524 . S
C729 C726 1.403 . S
C729 C730 1.392 . S
C729 C733 1.495 . S
C730 C729 1.392 . S
C730 C731 1.385 . S
C730 C732 1.478 . S
C731 H725 0.930 . S
C731 C727 1.400 . S
C731 C730 1.385 . S
C732 C730 1.478 . S
C732 C734 1.381 . S
C732 C738 1.383 . S
C733 C729 1.495 . S
C733 H739 0.959 . S
C733 H740 0.961 . S
C733 H741 0.960 . S
C734 C732 1.381 . S
C734 C735 1.394 . S
C734 H742 0.930 . S
C735 C734 1.394 . S
C735 C736 1.383 . S
C735 H743 0.929 . S
C736 C735 1.383 . S
C736 C737 1.377 . S
C737 H721 0.930 . S
C737 C736 1.377 . S
C737 C738 1.379 . S
C738 H722 0.931 . S
C738 C732 1.383 . S
C738 C737 1.379 . S
H739 C733 0.959 . S
H740 C733 0.961 . S
H741 C733 0.960 . S
H742 C734 0.930 . S
H743 C735 0.929 . S
H744 C752 0.929 . S
H745 C754 0.930 . S
H746 C756 0.930 . S
H747 C759 0.929 . S
H748 C762 0.930 . S
H749 C764 0.960 . S
H750 C764 0.960 . S
H751 C764 0.960 . S
C752 H744 0.929 . S
C752 C753 1.377 . S
C752 C754 1.384 . S
C753 C752 1.377 . S
C753 C759 1.390 . S
C754 H745 0.930 . S
C754 C752 1.384 . S
C754 C755 1.372 . S
C755 C754 1.372 . S
C755 C756 1.400 . S
C755 C760 1.490 . S
C756 H746 0.930 . S
C756 C755 1.400 . S
C756 C759 1.386 . S
H757 C773 0.930 . S
H758 C774 0.931 . S
C759 H747 0.929 . S
C759 C753 1.390 . S
C759 C756 1.386 . S
C760 C755 1.490 . S
C760 C762 1.395 . S
C760 C763 1.403 . S
H761 C767 0.930 . S
C762 H748 0.930 . S
C762 C760 1.395 . S
C762 C765 1.403 . S
C763 C760 1.403 . S
C763 C764 1.524 . S
C763 C767 1.400 . S
C764 H749 0.960 . S
C764 H750 0.960 . S
C764 H751 0.960 . S
C764 C763 1.524 . S
C765 C762 1.403 . S
C765 C766 1.392 . S
C765 C769 1.495 . S
C766 C765 1.392 . S
C766 C767 1.385 . S
C766 C768 1.478 1_556 S
C767 H761 0.930 . S
C767 C763 1.400 . S
C767 C766 1.385 . S
C768 C766 1.478 1_554 S
C768 C770 1.381 . S
C768 C774 1.383 . S
C769 C765 1.495 . S
C769 H775 0.959 . S
C769 H776 0.961 . S
C769 H777 0.960 . S
C770 C768 1.381 . S
C770 C771 1.394 . S
C770 H778 0.930 . S
C771 C770 1.394 . S
C771 C772 1.383 . S
C771 H779 0.929 . S
C772 C771 1.383 . S
C772 C773 1.377 . S
C773 H757 0.930 . S
C773 C772 1.377 . S
C773 C774 1.379 . S
C774 H758 0.931 . S
C774 C768 1.383 . S
C774 C773 1.379 . S
H775 C769 0.959 . S
H776 C769 0.961 . S
H777 C769 0.960 . S
H778 C770 0.930 . S
H779 C771 0.929 . S
H780 C788 0.929 . S
H781 C790 0.930 . S
H782 C792 0.930 . S
H783 C795 0.929 . S
H784 C798 0.930 . S
H785 C800 0.960 . S
H786 C800 0.960 . S
H787 C800 0.960 . S
C788 H780 0.929 . S
C788 C789 1.377 . S
C788 C790 1.384 . S
C789 C788 1.377 . S
C789 C795 1.390 . S
C790 H781 0.930 . S
C790 C788 1.384 . S
C790 C791 1.372 . S
C791 C790 1.372 . S
C791 C792 1.400 . S
C791 C796 1.490 . S
C792 H782 0.930 . S
C792 C791 1.400 . S
C792 C795 1.386 . S
H793 C809 0.930 . S
H794 C810 0.931 . S
C795 H783 0.929 . S
C795 C789 1.390 . S
C795 C792 1.386 . S
C796 C791 1.490 . S
C796 C798 1.395 . S
C796 C799 1.403 . S
H797 C803 0.930 . S
C798 H784 0.930 . S
C798 C796 1.395 . S
C798 C801 1.403 . S
C799 C796 1.403 . S
C799 C800 1.524 . S
C799 C803 1.400 . S
C800 H785 0.960 . S
C800 H786 0.960 . S
C800 H787 0.960 . S
C800 C799 1.524 . S
C801 C798 1.403 . S
C801 C802 1.392 . S
C801 C805 1.495 . S
C802 C801 1.392 . S
C802 C803 1.385 . S
C802 C804 1.478 . S
C803 H797 0.930 . S
C803 C799 1.400 . S
C803 C802 1.385 . S
C804 C802 1.478 . S
C804 C806 1.386 . S
C804 C810 1.383 . S
C805 C801 1.495 . S
C805 H811 0.959 . S
C805 H812 0.961 . S
C805 H813 0.960 . S
C806 C804 1.386 . S
C806 C807 1.385 1_554 S
C806 H814 0.934 . S
C807 C806 1.385 1_556 S
C807 C808 1.383 . S
C807 H815 0.929 . S
C808 C807 1.383 . S
C808 C809 1.377 . S
C809 H793 0.930 . S
C809 C808 1.377 . S
C809 C810 1.379 1_556 S
C810 H794 0.931 . S
C810 C804 1.383 . S
C810 C809 1.379 1_554 S
H811 C805 0.959 . S
H812 C805 0.961 . S
H813 C805 0.960 . S
H814 C806 0.934 . S
H815 C807 0.929 . S
H816 C824 0.929 . S
H817 C826 0.930 . S
H818 C828 0.930 . S
H819 C831 0.929 . S
H820 C834 0.930 . S
H821 C836 0.960 . S
H822 C836 0.960 . S
H823 C836 0.960 . S
C824 H816 0.929 . S
C824 C825 1.377 . S
C824 C826 1.384 . S
C825 C824 1.377 . S
C825 C831 1.390 . S
C826 H817 0.930 . S
C826 C824 1.384 . S
C826 C827 1.372 . S
C827 C826 1.372 . S
C827 C828 1.400 . S
C827 C832 1.490 . S
C828 H818 0.930 . S
C828 C827 1.400 . S
C828 C831 1.386 . S
H829 C845 0.930 . S
H830 C846 0.931 . S
C831 H819 0.929 . S
C831 C825 1.390 . S
C831 C828 1.386 . S
C832 C827 1.490 . S
C832 C834 1.395 . S
C832 C835 1.403 . S
H833 C839 0.930 . S
C834 H820 0.930 . S
C834 C832 1.395 . S
C834 C837 1.403 . S
C835 C832 1.403 . S
C835 C836 1.524 . S
C835 C839 1.400 . S
C836 H821 0.960 . S
C836 H822 0.960 . S
C836 H823 0.960 . S
C836 C835 1.524 . S
C837 C834 1.403 . S
C837 C838 1.392 . S
C837 C841 1.495 . S
C838 C837 1.392 . S
C838 C839 1.385 . S
C838 C840 1.478 . S
C839 H833 0.930 . S
C839 C835 1.400 . S
C839 C838 1.385 . S
C840 C838 1.478 . S
C840 C842 1.372 1_554 S
C840 C846 1.383 . S
C841 C837 1.495 . S
C841 H847 0.959 . S
C841 H848 0.961 . S
C841 H849 0.960 . S
C842 C840 1.372 1_556 S
C842 C843 1.411 . S
C842 H850 0.923 1_556 S
C843 C842 1.411 . S
C843 C844 1.383 . S
C843 H851 0.929 . S
C844 C843 1.383 . S
C844 C845 1.377 . S
C845 H829 0.930 . S
C845 C844 1.377 . S
C845 C846 1.379 1_556 S
C846 H830 0.931 . S
C846 C840 1.383 . S
C846 C845 1.379 1_554 S
H847 C841 0.959 . S
H848 C841 0.961 . S
H849 C841 0.960 . S
H850 C842 0.923 1_554 S
H851 C843 0.929 . S
H852 C860 0.929 . S
H853 C862 0.930 . S
H854 C864 0.930 . S
H855 C867 0.929 . S
H856 C870 0.930 . S
H857 C872 0.960 . S
H858 C872 0.960 . S
H859 C872 0.960 . S
C860 H852 0.929 . S
C860 C861 1.377 . S
C860 C862 1.384 . S
C861 C860 1.377 . S
C861 C867 1.390 . S
C862 H853 0.930 . S
C862 C860 1.384 . S
C862 C863 1.372 . S
C863 C862 1.372 . S
C863 C864 1.400 . S
C863 C868 1.490 . S
C864 H854 0.930 . S
C864 C863 1.400 . S
C864 C867 1.386 . S
H865 C881 0.930 . S
H866 C882 0.931 . S
C867 H855 0.929 . S
C867 C861 1.390 . S
C867 C864 1.386 . S
C868 C863 1.490 . S
C868 C870 1.395 . S
C868 C871 1.403 . S
H869 C875 0.930 . S
C870 H856 0.930 . S
C870 C868 1.395 . S
C870 C873 1.403 . S
C871 C868 1.403 . S
C871 C872 1.524 . S
C871 C875 1.400 . S
C872 H857 0.960 . S
C872 H858 0.960 . S
C872 H859 0.960 . S
C872 C871 1.524 . S
C873 C870 1.403 . S
C873 C874 1.392 . S
C873 C877 1.495 . S
C874 C873 1.392 . S
C874 C875 1.385 . S
C874 C876 1.478 . S
C875 H869 0.930 . S
C875 C871 1.400 . S
C875 C874 1.385 . S
C876 C874 1.478 . S
C876 C878 1.381 . S
C876 C882 1.383 . S
C877 C873 1.495 . S
C877 H883 0.959 . S
C877 H884 0.961 . S
C877 H885 0.960 . S
C878 C876 1.381 . S
C878 C879 1.394 . S
C878 H886 0.930 . S
C879 C878 1.394 . S
C879 C880 1.383 . S
C879 H887 0.929 . S
C880 C879 1.383 . S
C880 C881 1.377 . S
C881 H865 0.930 . S
C881 C880 1.377 . S
C881 C882 1.379 . S
C882 H866 0.931 . S
C882 C876 1.383 . S
C882 C881 1.379 . S
H883 C877 0.959 . S
H884 C877 0.961 . S
H885 C877 0.960 . S
H886 C878 0.930 . S
H887 C879 0.929 . S
H888 C896 0.929 . S
H889 C898 0.930 . S
H890 C900 0.930 . S
H891 C903 0.929 . S
H892 C906 0.930 . S
H893 C908 0.960 . S
H894 C908 0.960 . S
H895 C908 0.960 . S
C896 H888 0.929 . S
C896 C897 1.377 . S
C896 C898 1.384 . S
C897 C896 1.377 . S
C897 C903 1.390 . S
C898 H889 0.930 . S
C898 C896 1.384 . S
C898 C899 1.372 . S
C899 C898 1.372 . S
C899 C900 1.400 . S
C899 C904 1.490 . S
C900 H890 0.930 . S
C900 C899 1.400 . S
C900 C903 1.386 . S
H901 C917 0.930 . S
H902 C918 0.931 . S
C903 H891 0.929 . S
C903 C897 1.390 . S
C903 C900 1.386 . S
C904 C899 1.490 . S
C904 C906 1.395 . S
C904 C907 1.403 . S
H905 C911 0.930 . S
C906 H892 0.930 . S
C906 C904 1.395 . S
C906 C909 1.403 . S
C907 C904 1.403 . S
C907 C908 1.524 . S
C907 C911 1.400 . S
C908 H893 0.960 . S
C908 H894 0.960 . S
C908 H895 0.960 . S
C908 C907 1.524 . S
C909 C906 1.403 . S
C909 C910 1.392 . S
C909 C913 1.495 . S
C910 C909 1.392 . S
C910 C911 1.385 . S
C910 C912 1.478 . S
C911 H905 0.930 . S
C911 C907 1.400 . S
C911 C910 1.385 . S
C912 C910 1.478 . S
C912 C914 1.381 . S
C912 C918 1.383 . S
C913 C909 1.495 . S
C913 H919 0.959 . S
C913 H920 0.961 . S
C913 H921 0.960 . S
C914 C912 1.381 . S
C914 C915 1.394 . S
C914 H922 0.930 . S
C915 C914 1.394 . S
C915 C916 1.383 . S
C915 H923 0.929 . S
C916 C915 1.383 . S
C916 C917 1.377 . S
C917 H901 0.930 . S
C917 C916 1.377 . S
C917 C918 1.379 . S
C918 H902 0.931 . S
C918 C912 1.383 . S
C918 C917 1.379 . S
H919 C913 0.959 . S
H920 C913 0.961 . S
H921 C913 0.960 . S
H922 C914 0.930 . S
H923 C915 0.929 . S
H924 C932 0.929 . S
H925 C934 0.930 . S
H926 C936 0.930 . S
H927 C939 0.929 . S
H928 C942 0.930 . S
H929 C944 0.960 . S
H930 C944 0.960 . S
H931 C944 0.960 . S
C932 H924 0.929 . S
C932 C933 1.377 . S
C932 C934 1.384 . S
C933 C932 1.377 . S
C933 C939 1.390 . S
C934 H925 0.930 . S
C934 C932 1.384 . S
C934 C935 1.372 . S
C935 C934 1.372 . S
C935 C936 1.400 . S
C935 C940 1.490 . S
C936 H926 0.930 . S
C936 C935 1.400 . S
C936 C939 1.386 . S
H937 C953 0.930 . S
H938 C954 0.931 . S
C939 H927 0.929 . S
C939 C933 1.390 . S
C939 C936 1.386 . S
C940 C935 1.490 . S
C940 C942 1.395 . S
C940 C943 1.403 . S
H941 C947 0.930 . S
C942 H928 0.930 . S
C942 C940 1.395 . S
C942 C945 1.403 . S
C943 C940 1.403 . S
C943 C944 1.524 . S
C943 C947 1.400 . S
C944 H929 0.960 . S
C944 H930 0.960 . S
C944 H931 0.960 . S
C944 C943 1.524 . S
C945 C942 1.403 . S
C945 C946 1.392 . S
C945 C949 1.495 . S
C946 C945 1.392 . S
C946 C947 1.385 . S
C946 C948 1.478 . S
C947 H941 0.930 . S
C947 C943 1.400 . S
C947 C946 1.385 . S
C948 C946 1.478 . S
C948 C950 1.386 . S
C948 C954 1.383 . S
C949 C945 1.495 . S
C949 H955 0.959 . S
C949 H956 0.961 . S
C949 H957 0.960 . S
C950 C948 1.386 . S
C950 C951 1.384 1_556 S
C950 H958 0.935 . S
C951 C950 1.384 1_554 S
C951 C952 1.383 . S
C951 H959 0.929 . S
C952 C951 1.383 . S
C952 C953 1.377 . S
C953 H937 0.930 . S
C953 C952 1.377 . S
C953 C954 1.379 1_554 S
C954 H938 0.931 . S
C954 C948 1.383 . S
C954 C953 1.379 1_556 S
H955 C949 0.959 . S
H956 C949 0.961 . S
H957 C949 0.960 . S
H958 C950 0.935 . S
H959 C951 0.929 . S
H960 C968 0.929 . S
H961 C970 0.930 . S
H962 C972 0.930 . S
H963 C975 0.929 . S
H964 C978 0.930 . S
H965 C980 0.960 . S
H966 C980 0.960 . S
H967 C980 0.960 . S
C968 H960 0.929 . S
C968 C969 1.377 . S
C968 C970 1.384 . S
C969 C968 1.377 . S
C969 C975 1.390 . S
C970 H961 0.930 . S
C970 C968 1.384 . S
C970 C971 1.372 . S
C971 C970 1.372 . S
C971 C972 1.400 . S
C971 C976 1.490 1_556 S
C972 H962 0.930 . S
C972 C971 1.400 . S
C972 C975 1.386 . S
H973 C989 0.930 . S
H974 C990 0.931 . S
C975 H963 0.929 . S
C975 C969 1.390 . S
C975 C972 1.386 . S
C976 C971 1.490 1_554 S
C976 C978 1.395 . S
C976 C979 1.403 . S
H977 C983 0.930 . S
C978 H964 0.930 . S
C978 C976 1.395 . S
C978 C981 1.403 . S
C979 C976 1.403 . S
C979 C980 1.524 . S
C979 C983 1.400 . S
C980 H965 0.960 . S
C980 H966 0.960 . S
C980 H967 0.960 . S
C980 C979 1.524 . S
C981 C978 1.403 . S
C981 C982 1.392 . S
C981 C985 1.495 . S
C982 C981 1.392 . S
C982 C983 1.385 . S
C982 C984 1.478 . S
C983 H977 0.930 . S
C983 C979 1.400 . S
C983 C982 1.385 . S
C984 C982 1.478 . S
C984 C986 1.381 . S
C984 C990 1.383 . S
C985 C981 1.495 . S
C985 H991 0.959 . S
C985 H992 0.961 . S
C985 H993 0.960 . S
C986 C984 1.381 . S
C986 C987 1.394 . S
C986 H994 0.930 . S
C987 C986 1.394 . S
C987 C988 1.383 . S
C987 H995 0.929 . S
C988 C987 1.383 . S
C988 C989 1.377 . S
C989 H973 0.930 . S
C989 C988 1.377 . S
C989 C990 1.379 . S
C990 H974 0.931 . S
C990 C984 1.383 . S
C990 C989 1.379 . S
H991 C985 0.959 . S
H992 C985 0.961 . S
H993 C985 0.960 . S
H994 C986 0.930 . S
H995 C987 0.929 . S
H996 C1004 0.929 . S
H997 C1006 0.930 . S
H998 C1008 0.930 . S
H999 C1011 0.929 . S
H1000 C1014 0.930 . S
H1001 C1016 0.960 . S
H1002 C1016 0.960 . S
H1003 C1016 0.960 . S
C1004 H996 0.929 . S
C1004 C1005 1.377 . S
C1004 C1006 1.384 . S
C1005 C1004 1.377 . S
C1005 C1011 1.390 . S
C1006 H997 0.930 . S
C1006 C1004 1.384 . S
C1006 C1007 1.372 . S
C1007 C1006 1.372 . S
C1007 C1008 1.400 . S
C1007 C1012 1.490 . S
C1008 H998 0.930 . S
C1008 C1007 1.400 . S
C1008 C1011 1.386 . S
H1009 C1025 0.930 . S
H1010 C1026 0.931 . S
C1011 H999 0.929 . S
C1011 C1005 1.390 . S
C1011 C1008 1.386 . S
C1012 C1007 1.490 . S
C1012 C1014 1.395 . S
C1012 C1015 1.403 . S
H1013 C1019 0.930 . S
C1014 H1000 0.930 . S
C1014 C1012 1.395 . S
C1014 C1017 1.403 . S
C1015 C1012 1.403 . S
C1015 C1016 1.524 . S
C1015 C1019 1.400 . S
C1016 H1001 0.960 . S
C1016 H1002 0.960 . S
C1016 H1003 0.960 . S
C1016 C1015 1.524 . S
C1017 C1014 1.403 . S
C1017 C1018 1.392 . S
C1017 C1021 1.495 . S
C1018 C1017 1.392 . S
C1018 C1019 1.385 . S
C1018 C1020 1.478 . S
C1019 H1013 0.930 . S
C1019 C1015 1.400 . S
C1019 C1018 1.385 . S
C1020 C1018 1.478 . S
C1020 C1022 1.381 . S
C1020 C1026 1.383 . S
C1021 C1017 1.495 . S
C1021 H1027 0.959 . S
C1021 H1028 0.961 . S
C1021 H1029 0.960 . S
C1022 C1020 1.381 . S
C1022 C1023 1.394 . S
C1022 H1030 0.930 . S
C1023 C1022 1.394 . S
C1023 C1024 1.383 . S
C1023 H1031 0.929 . S
C1024 C1023 1.383 . S
C1024 C1025 1.377 . S
C1025 H1009 0.930 . S
C1025 C1024 1.377 . S
C1025 C1026 1.379 . S
C1026 H1010 0.931 . S
C1026 C1020 1.383 . S
C1026 C1025 1.379 . S
H1027 C1021 0.959 . S
H1028 C1021 0.961 . S
H1029 C1021 0.960 . S
H1030 C1022 0.930 . S
H1031 C1023 0.929 . S
H1032 C1040 0.929 . S
H1033 C1042 0.930 . S
H1034 C1044 0.930 . S
H1035 C1047 0.929 . S
H1036 C1050 0.930 . S
H1037 C1052 0.960 . S
H1038 C1052 0.960 . S
H1039 C1052 0.960 . S
C1040 H1032 0.929 . S
C1040 C1041 1.377 . S
C1040 C1042 1.384 . S
C1041 C1040 1.377 . S
C1041 C1047 1.390 . S
C1042 H1033 0.930 . S
C1042 C1040 1.384 . S
C1042 C1043 1.372 . S
C1043 C1042 1.372 . S
C1043 C1044 1.400 . S
C1043 C1048 1.490 1_554 S
C1044 H1034 0.930 . S
C1044 C1043 1.400 . S
C1044 C1047 1.386 . S
H1045 C1061 0.930 . S
H1046 C1062 0.931 . S
C1047 H1035 0.929 . S
C1047 C1041 1.390 . S
C1047 C1044 1.386 . S
C1048 C1043 1.490 1_556 S
C1048 C1050 1.395 . S
C1048 C1051 1.403 . S
H1049 C1055 0.930 . S
C1050 H1036 0.930 . S
C1050 C1048 1.395 . S
C1050 C1053 1.403 . S
C1051 C1048 1.403 . S
C1051 C1052 1.524 . S
C1051 C1055 1.400 . S
C1052 H1037 0.960 . S
C1052 H1038 0.960 . S
C1052 H1039 0.960 . S
C1052 C1051 1.524 . S
C1053 C1050 1.403 . S
C1053 C1054 1.392 . S
C1053 C1057 1.495 . S
C1054 C1053 1.392 . S
C1054 C1055 1.385 . S
C1054 C1056 1.478 . S
C1055 H1049 0.930 . S
C1055 C1051 1.400 . S
C1055 C1054 1.385 . S
C1056 C1054 1.478 . S
C1056 C1058 1.381 . S
C1056 C1062 1.383 . S
C1057 C1053 1.495 . S
C1057 H1063 0.959 . S
C1057 H1064 0.961 . S
C1057 H1065 0.960 . S
C1058 C1056 1.381 . S
C1058 C1059 1.394 . S
C1058 H1066 0.930 . S
C1059 C1058 1.394 . S
C1059 C1060 1.383 . S
C1059 H1067 0.929 . S
C1060 C1059 1.383 . S
C1060 C1061 1.377 . S
C1061 H1045 0.930 . S
C1061 C1060 1.377 . S
C1061 C1062 1.379 . S
C1062 H1046 0.931 . S
C1062 C1056 1.383 . S
C1062 C1061 1.379 . S
H1063 C1057 0.959 . S
H1064 C1057 0.961 . S
H1065 C1057 0.960 . S
H1066 C1058 0.930 . S
H1067 C1059 0.929 . S
H1068 C1076 0.929 . S
H1069 C1078 0.930 . S
H1070 C1080 0.930 . S
H1071 C1083 0.929 . S
H1072 C1086 0.930 . S
H1073 C1088 0.960 . S
H1074 C1088 0.960 . S
H1075 C1088 0.960 . S
C1076 H1068 0.929 . S
C1076 C1077 1.377 . S
C1076 C1078 1.384 . S
C1077 C1076 1.377 . S
C1077 C1083 1.390 . S
C1078 H1069 0.930 . S
C1078 C1076 1.384 . S
C1078 C1079 1.372 . S
C1079 C1078 1.372 . S
C1079 C1080 1.400 . S
C1079 C1084 1.490 . S
C1080 H1070 0.930 . S
C1080 C1079 1.400 . S
C1080 C1083 1.386 . S
H1081 C1097 0.930 . S
H1082 C1098 0.931 . S
C1083 H1071 0.929 . S
C1083 C1077 1.390 . S
C1083 C1080 1.386 . S
C1084 C1079 1.490 . S
C1084 C1086 1.395 . S
C1084 C1087 1.403 . S
H1085 C1091 0.930 . S
C1086 H1072 0.930 . S
C1086 C1084 1.395 . S
C1086 C1089 1.403 . S
C1087 C1084 1.403 . S
C1087 C1088 1.524 . S
C1087 C1091 1.400 . S
C1088 H1073 0.960 . S
C1088 H1074 0.960 . S
C1088 H1075 0.960 . S
C1088 C1087 1.524 . S
C1089 C1086 1.403 . S
C1089 C1090 1.392 . S
C1089 C1093 1.495 . S
C1090 C1089 1.392 . S
C1090 C1091 1.385 . S
C1090 C1092 1.478 . S
C1091 H1085 0.930 . S
C1091 C1087 1.400 . S
C1091 C1090 1.385 . S
C1092 C1090 1.478 . S
C1092 C1094 1.381 . S
C1092 C1098 1.383 . S
C1093 C1089 1.495 . S
C1093 H1099 0.959 . S
C1093 H1100 0.961 . S
C1093 H1101 0.960 . S
C1094 C1092 1.381 . S
C1094 C1095 1.394 . S
C1094 H1102 0.930 . S
C1095 C1094 1.394 . S
C1095 C1096 1.383 . S
C1095 H1103 0.929 . S
C1096 C1095 1.383 . S
C1096 C1097 1.377 . S
C1097 H1081 0.930 . S
C1097 C1096 1.377 . S
C1097 C1098 1.379 . S
C1098 H1082 0.931 . S
C1098 C1092 1.383 . S
C1098 C1097 1.379 . S
H1099 C1093 0.959 . S
H1100 C1093 0.961 . S
H1101 C1093 0.960 . S
H1102 C1094 0.930 . S
H1103 C1095 0.929 . S
H1104 C1112 0.929 . S
H1105 C1114 0.930 1_556 S
H1106 C1116 0.930 . S
H1107 C1119 0.929 . S
H1108 C1122 0.930 . S
H1109 C1124 0.960 . S
H1110 C1124 0.960 . S
H1111 C1124 0.960 . S
C1112 H1104 0.929 . S
C1112 C1113 1.377 . S
C1112 C1114 1.384 . S
C1113 C1112 1.377 . S
C1113 C1119 1.390 . S
C1114 H1105 0.930 1_554 S
C1114 C1112 1.384 . S
C1114 C1115 1.372 . S
C1115 C1114 1.372 . S
C1115 C1116 1.400 . S
C1115 C1120 1.490 . S
C1116 H1106 0.930 . S
C1116 C1115 1.400 . S
C1116 C1119 1.386 . S
H1117 C1133 0.930 . S
H1118 C1134 0.931 . S
C1119 H1107 0.929 . S
C1119 C1113 1.390 . S
C1119 C1116 1.386 . S
C1120 C1115 1.490 . S
C1120 C1122 1.395 1_554 S
C1120 C1123 1.403 . S
H1121 C1127 0.930 . S
C1122 H1108 0.930 . S
C1122 C1120 1.395 1_556 S
C1122 C1125 1.403 . S
C1123 C1120 1.403 . S
C1123 C1124 1.524 . S
C1123 C1127 1.400 . S
C1124 H1109 0.960 . S
C1124 H1110 0.960 . S
C1124 H1111 0.960 . S
C1124 C1123 1.524 . S
C1125 C1122 1.403 . S
C1125 C1126 1.392 . S
C1125 C1129 1.495 . S
C1126 C1125 1.392 . S
C1126 C1127 1.385 1_556 S
C1126 C1128 1.478 . S
C1127 H1121 0.930 . S
C1127 C1123 1.400 . S
C1127 C1126 1.385 1_554 S
C1128 C1126 1.478 . S
C1128 C1130 1.381 . S
C1128 C1134 1.383 . S
C1129 C1125 1.495 . S
C1129 H1135 0.959 . S
C1129 H1136 0.961 . S
C1129 H1137 0.960 . S
C1130 C1128 1.381 . S
C1130 C1131 1.394 . S
C1130 H1138 0.930 . S
C1131 C1130 1.394 . S
C1131 C1132 1.383 . S
C1131 H1139 0.929 . S
C1132 C1131 1.383 . S
C1132 C1133 1.377 . S
C1133 H1117 0.930 . S
C1133 C1132 1.377 . S
C1133 C1134 1.379 . S
C1134 H1118 0.931 . S
C1134 C1128 1.383 . S
C1134 C1133 1.379 . S
H1135 C1129 0.959 . S
H1136 C1129 0.961 . S
H1137 C1129 0.960 . S
H1138 C1130 0.930 . S
H1139 C1131 0.929 . S
H1140 C1148 0.929 . S
H1141 C1150 0.930 . S
H1142 C1152 0.930 . S
H1143 C1155 0.929 . S
H1144 C1158 0.930 . S
H1145 C1160 0.960 . S
H1146 C1160 0.960 . S
H1147 C1160 0.960 . S
C1148 H1140 0.929 . S
C1148 C1149 1.377 . S
C1148 C1150 1.384 . S
C1149 C1148 1.377 . S
C1149 C1155 1.390 . S
C1150 H1141 0.930 . S
C1150 C1148 1.384 . S
C1150 C1151 1.372 . S
C1151 C1150 1.372 . S
C1151 C1152 1.400 . S
C1151 C1156 1.490 . S
C1152 H1142 0.930 . S
C1152 C1151 1.400 . S
C1152 C1155 1.386 . S
H1153 C1169 0.930 . S
H1154 C1170 0.931 . S
C1155 H1143 0.929 . S
C1155 C1149 1.390 . S
C1155 C1152 1.386 . S
C1156 C1151 1.490 . S
C1156 C1158 1.395 . S
C1156 C1159 1.403 . S
H1157 C1163 0.930 . S
C1158 H1144 0.930 . S
C1158 C1156 1.395 . S
C1158 C1161 1.403 . S
C1159 C1156 1.403 . S
C1159 C1160 1.524 . S
C1159 C1163 1.400 . S
C1160 H1145 0.960 . S
C1160 H1146 0.960 . S
C1160 H1147 0.960 . S
C1160 C1159 1.524 . S
C1161 C1158 1.403 . S
C1161 C1162 1.392 . S
C1161 C1165 1.495 . S
C1162 C1161 1.392 . S
C1162 C1163 1.385 . S
C1162 C1164 1.478 . S
C1163 H1157 0.930 . S
C1163 C1159 1.400 . S
C1163 C1162 1.385 . S
C1164 C1162 1.478 . S
C1164 C1166 1.381 . S
C1164 C1170 1.383 . S
C1165 C1161 1.495 . S
C1165 H1171 0.959 . S
C1165 H1172 0.961 . S
C1165 H1173 0.960 . S
C1166 C1164 1.381 . S
C1166 C1167 1.394 . S
C1166 H1174 0.930 . S
C1167 C1166 1.394 . S
C1167 C1168 1.383 . S
C1167 H1175 0.929 . S
C1168 C1167 1.383 . S
C1168 C1169 1.377 . S
C1169 H1153 0.930 . S
C1169 C1168 1.377 . S
C1169 C1170 1.379 . S
C1170 H1154 0.931 . S
C1170 C1164 1.383 . S
C1170 C1169 1.379 . S
H1171 C1165 0.959 . S
H1172 C1165 0.961 . S
H1173 C1165 0.960 . S
H1174 C1166 0.930 . S
H1175 C1167 0.929 . S
H1176 C1184 0.929 . S
H1177 C1186 0.930 . S
H1178 C1188 0.930 . S
H1179 C1191 0.929 . S
H1180 C1194 0.930 . S
H1181 C1196 0.960 . S
H1182 C1196 0.960 . S
H1183 C1196 0.960 . S
C1184 H1176 0.929 . S
C1184 C1185 1.377 . S
C1184 C1186 1.384 . S
C1185 C1184 1.377 . S
C1185 C1191 1.390 . S
C1186 H1177 0.930 . S
C1186 C1184 1.384 . S
C1186 C1187 1.372 . S
C1187 C1186 1.372 . S
C1187 C1188 1.400 . S
C1187 C1192 1.490 . S
C1188 H1178 0.930 . S
C1188 C1187 1.400 . S
C1188 C1191 1.386 . S
H1189 C1205 0.930 . S
H1190 C1206 0.931 . S
C1191 H1179 0.929 . S
C1191 C1185 1.390 . S
C1191 C1188 1.386 . S
C1192 C1187 1.490 . S
C1192 C1194 1.395 . S
C1192 C1195 1.403 . S
H1193 C1199 0.930 . S
C1194 H1180 0.930 . S
C1194 C1192 1.395 . S
C1194 C1197 1.403 . S
C1195 C1192 1.403 . S
C1195 C1196 1.524 . S
C1195 C1199 1.400 . S
C1196 H1181 0.960 . S
C1196 H1182 0.960 . S
C1196 H1183 0.960 . S
C1196 C1195 1.524 . S
C1197 C1194 1.403 . S
C1197 C1198 1.392 . S
C1197 C1201 1.495 . S
C1198 C1197 1.392 . S
C1198 C1199 1.385 . S
C1198 C1200 1.478 . S
C1199 H1193 0.930 . S
C1199 C1195 1.400 . S
C1199 C1198 1.385 . S
C1200 C1198 1.478 . S
C1200 C1202 1.381 . S
C1200 C1206 1.383 . S
C1201 C1197 1.495 . S
C1201 H1207 0.959 . S
C1201 H1208 0.961 . S
C1201 H1209 0.960 . S
C1202 C1200 1.381 . S
C1202 C1203 1.394 . S
C1202 H1210 0.930 . S
C1203 C1202 1.394 . S
C1203 C1204 1.383 . S
C1203 H1211 0.929 . S
C1204 C1203 1.383 . S
C1204 C1205 1.377 . S
C1205 H1189 0.930 . S
C1205 C1204 1.377 . S
C1205 C1206 1.379 . S
C1206 H1190 0.931 . S
C1206 C1200 1.383 . S
C1206 C1205 1.379 . S
H1207 C1201 0.959 . S
H1208 C1201 0.961 . S
H1209 C1201 0.960 . S
H1210 C1202 0.930 . S
H1211 C1203 0.929 . S
H1212 C1220 0.929 . S
H1213 C1222 0.930 . S
H1214 C1224 0.930 . S
H1215 C1227 0.929 . S
H1216 C1230 0.930 . S
H1217 C1232 0.960 . S
H1218 C1232 0.960 . S
H1219 C1232 0.960 . S
C1220 H1212 0.929 . S
C1220 C1221 1.377 . S
C1220 C1222 1.384 . S
C1221 C1220 1.377 . S
C1221 C1227 1.390 . S
C1222 H1213 0.930 . S
C1222 C1220 1.384 . S
C1222 C1223 1.372 . S
C1223 C1222 1.372 . S
C1223 C1224 1.400 . S
C1223 C1228 1.490 . S
C1224 H1214 0.930 . S
C1224 C1223 1.400 . S
C1224 C1227 1.386 . S
H1225 C1241 0.930 . S
H1226 C1242 0.931 . S
C1227 H1215 0.929 . S
C1227 C1221 1.390 . S
C1227 C1224 1.386 . S
C1228 C1223 1.490 . S
C1228 C1230 1.395 . S
C1228 C1231 1.403 . S
H1229 C1235 0.930 . S
C1230 H1216 0.930 . S
C1230 C1228 1.395 . S
C1230 C1233 1.403 . S
C1231 C1228 1.403 . S
C1231 C1232 1.524 . S
C1231 C1235 1.400 . S
C1232 H1217 0.960 . S
C1232 H1218 0.960 . S
C1232 H1219 0.960 . S
C1232 C1231 1.524 . S
C1233 C1230 1.403 . S
C1233 C1234 1.392 . S
C1233 C1237 1.495 . S
C1234 C1233 1.392 . S
C1234 C1235 1.385 . S
C1234 C1236 1.478 . S
C1235 H1229 0.930 . S
C1235 C1231 1.400 . S
C1235 C1234 1.385 . S
C1236 C1234 1.478 . S
C1236 C1238 1.381 . S
C1236 C1242 1.383 . S
C1237 C1233 1.495 . S
C1237 H1243 0.959 . S
C1237 H1244 0.961 . S
C1237 H1245 0.960 . S
C1238 C1236 1.381 . S
C1238 C1239 1.394 . S
C1238 H1246 0.930 . S
C1239 C1238 1.394 . S
C1239 C1240 1.383 . S
C1239 H1247 0.929 . S
C1240 C1239 1.383 . S
C1240 C1241 1.377 . S
C1241 H1225 0.930 . S
C1241 C1240 1.377 . S
C1241 C1242 1.379 . S
C1242 H1226 0.931 . S
C1242 C1236 1.383 . S
C1242 C1241 1.379 . S
H1243 C1237 0.959 . S
H1244 C1237 0.961 . S
H1245 C1237 0.960 . S
H1246 C1238 0.930 . S
H1247 C1239 0.929 . S
H1248 C1256 0.929 . S
H1249 C1258 0.930 . S
H1250 C1260 0.930 . S
H1251 C1263 0.929 . S
H1252 C1266 0.930 . S
H1253 C1268 0.960 . S
H1254 C1268 0.960 . S
H1255 C1268 0.960 . S
C1256 H1248 0.929 . S
C1256 C1257 1.377 . S
C1256 C1258 1.384 . S
C1257 C1256 1.377 . S
C1257 C1263 1.390 . S
C1258 H1249 0.930 . S
C1258 C1256 1.384 . S
C1258 C1259 1.372 . S
C1259 C1258 1.372 . S
C1259 C1260 1.400 . S
C1259 C1264 1.490 . S
C1260 H1250 0.930 . S
C1260 C1259 1.400 . S
C1260 C1263 1.386 . S
H1261 C1277 0.930 . S
H1262 C1278 0.931 . S
C1263 H1251 0.929 . S
C1263 C1257 1.390 . S
C1263 C1260 1.386 . S
C1264 C1259 1.490 . S
C1264 C1266 1.395 . S
C1264 C1267 1.403 . S
H1265 C1271 0.930 . S
C1266 H1252 0.930 . S
C1266 C1264 1.395 . S
C1266 C1269 1.403 . S
C1267 C1264 1.403 . S
C1267 C1268 1.524 . S
C1267 C1271 1.400 . S
C1268 H1253 0.960 . S
C1268 H1254 0.960 . S
C1268 H1255 0.960 . S
C1268 C1267 1.524 . S
C1269 C1266 1.403 . S
C1269 C1270 1.392 . S
C1269 C1273 1.495 . S
C1270 C1269 1.392 . S
C1270 C1271 1.385 . S
C1270 C1272 1.478 . S
C1271 H1265 0.930 . S
C1271 C1267 1.400 . S
C1271 C1270 1.385 . S
C1272 C1270 1.478 . S
C1272 C1274 1.381 . S
C1272 C1278 1.383 . S
C1273 C1269 1.495 . S
C1273 H1279 0.959 . S
C1273 H1280 0.961 . S
C1273 H1281 0.960 . S
C1274 C1272 1.381 . S
C1274 C1275 1.394 . S
C1274 H1282 0.930 . S
C1275 C1274 1.394 . S
C1275 C1276 1.383 . S
C1275 H1283 0.929 . S
C1276 C1275 1.383 . S
C1276 C1277 1.377 . S
C1277 H1261 0.930 . S
C1277 C1276 1.377 . S
C1277 C1278 1.379 . S
C1278 H1262 0.931 . S
C1278 C1272 1.383 . S
C1278 C1277 1.379 . S
H1279 C1273 0.959 . S
H1280 C1273 0.961 . S
H1281 C1273 0.960 . S
H1282 C1274 0.930 . S
H1283 C1275 0.929 . S
H1284 C1292 0.929 . S
H1285 C1294 0.930 . S
H1286 C1296 0.930 . S
H1287 C1299 0.929 . S
H1288 C1302 0.930 . S
H1289 C1304 0.960 . S
H1290 C1304 0.960 . S
H1291 C1304 0.960 . S
C1292 H1284 0.929 . S
C1292 C1293 1.377 . S
C1292 C1294 1.384 . S
C1293 C1292 1.377 . S
C1293 C1299 1.390 . S
C1294 H1285 0.930 . S
C1294 C1292 1.384 . S
C1294 C1295 1.372 . S
C1295 C1294 1.372 . S
C1295 C1296 1.400 . S
C1295 C1300 1.490 . S
C1296 H1286 0.930 . S
C1296 C1295 1.400 . S
C1296 C1299 1.386 . S
H1297 C1313 0.930 . S
H1298 C1314 0.931 . S
C1299 H1287 0.929 . S
C1299 C1293 1.390 . S
C1299 C1296 1.386 . S
C1300 C1295 1.490 . S
C1300 C1302 1.395 . S
C1300 C1303 1.403 . S
H1301 C1307 0.930 . S
C1302 H1288 0.930 . S
C1302 C1300 1.395 . S
C1302 C1305 1.403 . S
C1303 C1300 1.403 . S
C1303 C1304 1.524 . S
C1303 C1307 1.400 . S
C1304 H1289 0.960 . S
C1304 H1290 0.960 . S
C1304 H1291 0.960 . S
C1304 C1303 1.524 . S
C1305 C1302 1.403 . S
C1305 C1306 1.392 . S
C1305 C1309 1.495 . S
C1306 C1305 1.392 . S
C1306 C1307 1.385 . S
C1306 C1308 1.478 . S
C1307 H1301 0.930 . S
C1307 C1303 1.400 . S
C1307 C1306 1.385 . S
C1308 C1306 1.478 . S
C1308 C1310 1.381 . S
C1308 C1314 1.383 . S
C1309 C1305 1.495 . S
C1309 H1315 0.959 . S
C1309 H1316 0.961 . S
C1309 H1317 0.960 . S
C1310 C1308 1.381 . S
C1310 C1311 1.394 . S
C1310 H1318 0.930 . S
C1311 C1310 1.394 . S
C1311 C1312 1.383 . S
C1311 H1319 0.929 . S
C1312 C1311 1.383 . S
C1312 C1313 1.377 . S
C1313 H1297 0.930 . S
C1313 C1312 1.377 . S
C1313 C1314 1.379 . S
C1314 H1298 0.931 . S
C1314 C1308 1.383 . S
C1314 C1313 1.379 . S
H1315 C1309 0.959 . S
H1316 C1309 0.961 . S
H1317 C1309 0.960 . S
H1318 C1310 0.930 . S
H1319 C1311 0.929 . S
H1320 C1328 0.929 . S
H1321 C1330 0.930 . S
H1322 C1332 0.930 . S
H1323 C1335 0.929 . S
H1324 C1338 0.930 . S
H1325 C1340 0.960 . S
H1326 C1340 0.960 . S
H1327 C1340 0.960 . S
C1328 H1320 0.929 . S
C1328 C1329 1.377 . S
C1328 C1330 1.384 . S
C1329 C1328 1.377 . S
C1329 C1335 1.390 . S
C1330 H1321 0.930 . S
C1330 C1328 1.384 . S
C1330 C1331 1.372 . S
C1331 C1330 1.372 . S
C1331 C1332 1.400 . S
C1331 C1336 1.490 . S
C1332 H1322 0.930 . S
C1332 C1331 1.400 . S
C1332 C1335 1.386 . S
H1333 C1349 0.930 . S
H1334 C1350 0.931 . S
C1335 H1323 0.929 . S
C1335 C1329 1.390 . S
C1335 C1332 1.386 . S
C1336 C1331 1.490 . S
C1336 C1338 1.395 . S
C1336 C1339 1.403 . S
H1337 C1343 0.930 . S
C1338 H1324 0.930 . S
C1338 C1336 1.395 . S
C1338 C1341 1.403 1_545 S
C1339 C1336 1.403 . S
C1339 C1340 1.524 . S
C1339 C1343 1.400 1_545 S
C1340 H1325 0.960 . S
C1340 H1326 0.960 . S
C1340 H1327 0.960 . S
C1340 C1339 1.524 . S
C1341 C1338 1.403 1_565 S
C1341 C1342 1.392 . S
C1341 C1345 1.495 . S
C1342 C1341 1.392 . S
C1342 C1343 1.385 . S
C1342 C1344 1.478 . S
C1343 H1337 0.930 . S
C1343 C1339 1.400 1_565 S
C1343 C1342 1.385 . S
C1344 C1342 1.478 . S
C1344 C1346 1.381 . S
C1344 C1350 1.383 . S
C1345 C1341 1.495 . S
C1345 H1351 0.959 . S
C1345 H1352 0.961 . S
C1345 H1353 0.960 . S
C1346 C1344 1.381 . S
C1346 C1347 1.394 . S
C1346 H1354 0.930 . S
C1347 C1346 1.394 . S
C1347 C1348 1.383 . S
C1347 H1355 0.929 . S
C1348 C1347 1.383 . S
C1348 C1349 1.377 . S
C1349 H1333 0.930 . S
C1349 C1348 1.377 . S
C1349 C1350 1.379 . S
C1350 H1334 0.931 . S
C1350 C1344 1.383 . S
C1350 C1349 1.379 . S
H1351 C1345 0.959 . S
H1352 C1345 0.961 . S
H1353 C1345 0.960 . S
H1354 C1346 0.930 . S
H1355 C1347 0.929 . S
H1356 C1364 0.929 . S
H1357 C1366 0.930 . S
H1358 C1368 0.930 1_556 S
H1359 C1371 0.929 . S
H1360 C1374 0.930 . S
H1361 C1376 0.960 . S
H1362 C1376 0.960 . S
H1363 C1376 0.960 . S
C1364 H1356 0.929 . S
C1364 C1365 1.377 . S
C1364 C1366 1.384 . S
C1365 C1364 1.377 . S
C1365 C1371 1.390 . S
C1366 H1357 0.930 . S
C1366 C1364 1.384 . S
C1366 C1367 1.372 . S
C1367 C1366 1.372 . S
C1367 C1368 1.400 . S
C1367 C1372 1.490 . S
C1368 H1358 0.930 1_554 S
C1368 C1367 1.400 . S
C1368 C1371 1.386 . S
H1369 C1385 0.930 . S
H1370 C1386 0.931 . S
C1371 H1359 0.929 . S
C1371 C1365 1.390 . S
C1371 C1368 1.386 . S
C1372 C1367 1.490 . S
C1372 C1374 1.395 . S
C1372 C1375 1.403 1_554 S
H1373 C1379 0.930 . S
C1374 H1360 0.930 . S
C1374 C1372 1.395 . S
C1374 C1377 1.403 1_565 S
C1375 C1372 1.403 1_556 S
C1375 C1376 1.524 . S
C1375 C1379 1.400 1_565 S
C1376 H1361 0.960 . S
C1376 H1362 0.960 . S
C1376 H1363 0.960 . S
C1376 C1375 1.524 . S
C1377 C1374 1.403 1_545 S
C1377 C1378 1.392 1_554 S
C1377 C1381 1.495 . S
C1378 C1377 1.392 1_556 S
C1378 C1379 1.385 . S
C1378 C1380 1.478 . S
C1379 H1373 0.930 . S
C1379 C1375 1.400 1_545 S
C1379 C1378 1.385 . S
C1380 C1378 1.478 . S
C1380 C1382 1.383 . S
C1380 C1386 1.383 . S
C1381 C1377 1.495 . S
C1381 H1387 0.959 . S
C1381 H1388 0.961 . S
C1381 H1389 0.960 . S
C1382 C1380 1.383 . S
C1382 C1383 1.396 . S
C1382 H1390 0.926 1_556 S
C1383 C1382 1.396 . S
C1383 C1384 1.383 . S
C1383 H1391 0.929 . S
C1384 C1383 1.383 . S
C1384 C1385 1.377 . S
C1385 H1369 0.930 . S
C1385 C1384 1.377 . S
C1385 C1386 1.379 . S
C1386 H1370 0.931 . S
C1386 C1380 1.383 . S
C1386 C1385 1.379 . S
H1387 C1381 0.959 . S
H1388 C1381 0.961 . S
H1389 C1381 0.960 . S
H1390 C1382 0.926 1_554 S
H1391 C1383 0.929 . S
H1392 C1400 0.929 . S
H1393 C1402 0.930 . S
H1394 C1404 0.930 . S
H1395 C1407 0.929 . S
H1396 C1410 0.930 . S
H1397 C1412 0.960 . S
H1398 C1412 0.960 . S
H1399 C1412 0.960 . S
C1400 H1392 0.929 . S
C1400 C1401 1.377 . S
C1400 C1402 1.384 . S
C1401 C1400 1.377 . S
C1401 C1407 1.390 . S
C1402 H1393 0.930 . S
C1402 C1400 1.384 . S
C1402 C1403 1.372 . S
C1403 C1402 1.372 . S
C1403 C1404 1.400 . S
C1403 C1408 1.490 . S
C1404 H1394 0.930 . S
C1404 C1403 1.400 . S
C1404 C1407 1.386 . S
H1405 C1421 0.930 . S
H1406 C1422 0.931 . S
C1407 H1395 0.929 . S
C1407 C1401 1.390 . S
C1407 C1404 1.386 . S
C1408 C1403 1.490 . S
C1408 C1410 1.395 . S
C1408 C1411 1.403 . S
H1409 C1415 0.930 . S
C1410 H1396 0.930 . S
C1410 C1408 1.395 . S
C1410 C1413 1.403 . S
C1411 C1408 1.403 . S
C1411 C1412 1.524 . S
C1411 C1415 1.400 . S
C1412 H1397 0.960 . S
C1412 H1398 0.960 . S
C1412 H1399 0.960 . S
C1412 C1411 1.524 . S
C1413 C1410 1.403 . S
C1413 C1414 1.392 . S
C1413 C1417 1.495 . S
C1414 C1413 1.392 . S
C1414 C1415 1.385 . S
C1414 C1416 1.478 . S
C1415 H1409 0.930 . S
C1415 C1411 1.400 . S
C1415 C1414 1.385 . S
C1416 C1414 1.478 . S
C1416 C1418 1.381 . S
C1416 C1422 1.383 . S
C1417 C1413 1.495 . S
C1417 H1423 0.959 . S
C1417 H1424 0.961 . S
C1417 H1425 0.960 . S
C1418 C1416 1.381 . S
C1418 C1419 1.394 . S
C1418 H1426 0.930 . S
C1419 C1418 1.394 . S
C1419 C1420 1.383 . S
C1419 H1427 0.929 . S
C1420 C1419 1.383 . S
C1420 C1421 1.377 . S
C1421 H1405 0.930 . S
C1421 C1420 1.377 . S
C1421 C1422 1.379 . S
C1422 H1406 0.931 . S
C1422 C1416 1.383 . S
C1422 C1421 1.379 . S
H1423 C1417 0.959 . S
H1424 C1417 0.961 . S
H1425 C1417 0.960 . S
H1426 C1418 0.930 . S
H1427 C1419 0.929 . S
H1428 C1436 0.929 . S
H1429 C1438 0.930 . S
H1430 C1440 0.930 . S
H1431 C1443 0.929 . S
H1432 C1446 0.930 . S
H1433 C1448 0.960 . S
H1434 C1448 0.960 . S
H1435 C1448 0.960 . S
C1436 H1428 0.929 . S
C1436 C1437 1.377 . S
C1436 C1438 1.384 . S
C1437 C1436 1.377 . S
C1437 C1443 1.390 . S
C1438 H1429 0.930 . S
C1438 C1436 1.384 . S
C1438 C1439 1.372 . S
C1439 C1438 1.372 . S
C1439 C1440 1.400 . S
C1439 C1444 1.490 . S
C1440 H1430 0.930 . S
C1440 C1439 1.400 . S
C1440 C1443 1.386 . S
H1441 C1457 0.930 . S
H1442 C1458 0.931 . S
C1443 H1431 0.929 . S
C1443 C1437 1.390 . S
C1443 C1440 1.386 . S
C1444 C1439 1.490 . S
C1444 C1446 1.395 . S
C1444 C1447 1.403 . S
H1445 C1451 0.930 . S
C1446 H1432 0.930 . S
C1446 C1444 1.395 . S
C1446 C1449 1.403 . S
C1447 C1444 1.403 . S
C1447 C1448 1.524 . S
C1447 C1451 1.400 . S
C1448 H1433 0.960 . S
C1448 H1434 0.960 . S
C1448 H1435 0.960 . S
C1448 C1447 1.524 . S
C1449 C1446 1.403 . S
C1449 C1450 1.392 . S
C1449 C1453 1.495 . S
C1450 C1449 1.392 . S
C1450 C1451 1.385 . S
C1450 C1452 1.478 . S
C1451 H1445 0.930 . S
C1451 C1447 1.400 . S
C1451 C1450 1.385 . S
C1452 C1450 1.478 . S
C1452 C1454 1.381 . S
C1452 C1458 1.383 . S
C1453 C1449 1.495 . S
C1453 H1459 0.959 . S
C1453 H1460 0.961 . S
C1453 H1461 0.960 . S
C1454 C1452 1.381 . S
C1454 C1455 1.394 . S
C1454 H1462 0.930 . S
C1455 C1454 1.394 . S
C1455 C1456 1.383 . S
C1455 H1463 0.929 . S
C1456 C1455 1.383 . S
C1456 C1457 1.377 . S
C1457 H1441 0.930 . S
C1457 C1456 1.377 . S
C1457 C1458 1.379 . S
C1458 H1442 0.931 . S
C1458 C1452 1.383 . S
C1458 C1457 1.379 . S
H1459 C1453 0.959 . S
H1460 C1453 0.961 . S
H1461 C1453 0.960 . S
H1462 C1454 0.930 . S
H1463 C1455 0.929 . S
H1464 C1472 0.929 . S
H1465 C1474 0.930 . S
H1466 C1476 0.930 . S
H1467 C1479 0.929 . S
H1468 C1482 0.930 . S
H1469 C1484 0.960 . S
H1470 C1484 0.960 . S
H1471 C1484 0.960 . S
C1472 H1464 0.929 . S
C1472 C1473 1.377 . S
C1472 C1474 1.384 . S
C1473 C1472 1.377 . S
C1473 C1479 1.390 . S
C1474 H1465 0.930 . S
C1474 C1472 1.384 . S
C1474 C1475 1.372 . S
C1475 C1474 1.372 . S
C1475 C1476 1.400 . S
C1475 C1480 1.490 . S
C1476 H1466 0.930 . S
C1476 C1475 1.400 . S
C1476 C1479 1.386 . S
H1477 C1493 0.930 . S
H1478 C1494 0.931 . S
C1479 H1467 0.929 . S
C1479 C1473 1.390 . S
C1479 C1476 1.386 . S
C1480 C1475 1.490 . S
C1480 C1482 1.395 . S
C1480 C1483 1.403 . S
H1481 C1487 0.930 . S
C1482 H1468 0.930 . S
C1482 C1480 1.395 . S
C1482 C1485 1.403 . S
C1483 C1480 1.403 . S
C1483 C1484 1.524 . S
C1483 C1487 1.400 . S
C1484 H1469 0.960 . S
C1484 H1470 0.960 . S
C1484 H1471 0.960 . S
C1484 C1483 1.524 . S
C1485 C1482 1.403 . S
C1485 C1486 1.392 . S
C1485 C1489 1.495 . S
C1486 C1485 1.392 . S
C1486 C1487 1.385 . S
C1486 C1488 1.478 . S
C1487 H1481 0.930 . S
C1487 C1483 1.400 . S
C1487 C1486 1.385 . S
C1488 C1486 1.478 . S
C1488 C1490 1.381 . S
C1488 C1494 1.383 . S
C1489 C1485 1.495 . S
C1489 H1495 0.959 . S
C1489 H1496 0.961 . S
C1489 H1497 0.960 . S
C1490 C1488 1.381 . S
C1490 C1491 1.394 . S
C1490 H1498 0.930 . S
C1491 C1490 1.394 . S
C1491 C1492 1.383 . S
C1491 H1499 0.929 . S
C1492 C1491 1.383 . S
C1492 C1493 1.377 . S
C1493 H1477 0.930 . S
C1493 C1492 1.377 . S
C1493 C1494 1.379 . S
C1494 H1478 0.931 . S
C1494 C1488 1.383 . S
C1494 C1493 1.379 . S
H1495 C1489 0.959 . S
H1496 C1489 0.961 . S
H1497 C1489 0.960 . S
H1498 C1490 0.930 . S
H1499 C1491 0.929 . S
H1500 C1508 0.929 . S
H1501 C1510 0.930 . S
H1502 C1512 0.929 . S
H1503 C1515 0.929 . S
H1504 C1518 0.930 . S
H1505 C1520 0.960 . S
H1506 C1520 0.960 1_455 S
H1507 C1520 0.960 1_455 S
C1508 H1500 0.929 . S
C1508 C1509 1.377 . S
C1508 C1510 1.384 1_455 S
C1509 C1508 1.377 . S
C1509 C1515 1.390 . S
C1510 H1501 0.930 . S
C1510 C1508 1.384 1_655 S
C1510 C1511 1.372 . S
C1511 C1510 1.372 . S
C1511 C1512 1.361 1_655 S
C1511 C1516 1.490 . S
C1512 H1502 0.929 . S
C1512 C1511 1.361 1_455 S
C1512 C1515 1.429 . S
H1513 C1529 0.930 . S
H1514 C1530 0.931 . S
C1515 H1503 0.929 . S
C1515 C1509 1.390 . S
C1515 C1512 1.429 . S
C1516 C1511 1.490 . S
C1516 C1518 1.395 . S
C1516 C1519 1.403 . S
H1517 C1523 0.930 . S
C1518 H1504 0.930 . S
C1518 C1516 1.395 . S
C1518 C1521 1.403 . S
C1519 C1516 1.403 . S
C1519 C1520 1.524 . S
C1519 C1523 1.400 . S
C1520 H1505 0.960 . S
C1520 H1506 0.960 1_655 S
C1520 H1507 0.960 1_655 S
C1520 C1519 1.524 . S
C1521 C1518 1.403 . S
C1521 C1522 1.392 . S
C1521 C1525 1.495 . S
C1522 C1521 1.392 . S
C1522 C1523 1.385 . S
C1522 C1524 1.478 . S
C1523 H1517 0.930 . S
C1523 C1519 1.400 . S
C1523 C1522 1.385 . S
C1524 C1522 1.478 . S
C1524 C1526 1.381 . S
C1524 C1530 1.383 . S
C1525 C1521 1.495 . S
C1525 H1531 0.959 . S
C1525 H1532 0.961 . S
C1525 H1533 0.960 . S
C1526 C1524 1.381 . S
C1526 C1527 1.394 . S
C1526 H1534 0.930 . S
C1527 C1526 1.394 . S
C1527 C1528 1.383 . S
C1527 H1535 0.929 . S
C1528 C1527 1.383 . S
C1528 C1529 1.377 . S
C1529 H1513 0.930 . S
C1529 C1528 1.377 . S
C1529 C1530 1.379 . S
C1530 H1514 0.931 . S
C1530 C1524 1.383 . S
C1530 C1529 1.379 . S
H1531 C1525 0.959 . S
H1532 C1525 0.961 . S
H1533 C1525 0.960 . S
H1534 C1526 0.930 . S
H1535 C1527 0.929 . S
H1536 C1544 0.929 . S
H1537 C1546 0.930 . S
H1538 C1548 0.930 . S
H1539 C1551 0.929 . S
H1540 C1554 0.930 . S
H1541 C1556 0.960 . S
H1542 C1556 0.960 . S
H1543 C1556 0.960 . S
C1544 H1536 0.929 . S
C1544 C1545 1.377 . S
C1544 C1546 1.384 . S
C1545 C1544 1.377 . S
C1545 C1551 1.390 . S
C1546 H1537 0.930 . S
C1546 C1544 1.384 . S
C1546 C1547 1.372 . S
C1547 C1546 1.372 . S
C1547 C1548 1.400 . S
C1547 C1552 1.490 . S
C1548 H1538 0.930 . S
C1548 C1547 1.400 . S
C1548 C1551 1.386 . S
H1549 C1565 0.930 . S
H1550 C1566 0.931 . S
C1551 H1539 0.929 . S
C1551 C1545 1.390 . S
C1551 C1548 1.386 . S
C1552 C1547 1.490 . S
C1552 C1554 1.395 . S
C1552 C1555 1.403 . S
H1553 C1559 0.930 . S
C1554 H1540 0.930 . S
C1554 C1552 1.395 . S
C1554 C1557 1.403 . S
C1555 C1552 1.403 . S
C1555 C1556 1.524 . S
C1555 C1559 1.400 . S
C1556 H1541 0.960 . S
C1556 H1542 0.960 . S
C1556 H1543 0.960 . S
C1556 C1555 1.524 . S
C1557 C1554 1.403 . S
C1557 C1558 1.392 . S
C1557 C1561 1.495 . S
C1558 C1557 1.392 . S
C1558 C1559 1.385 . S
C1558 C1560 1.478 . S
C1559 H1553 0.930 . S
C1559 C1555 1.400 . S
C1559 C1558 1.385 . S
C1560 C1558 1.478 . S
C1560 C1562 1.381 . S
C1560 C1566 1.383 . S
C1561 C1557 1.495 . S
C1561 H1567 0.959 . S
C1561 H1568 0.961 . S
C1561 H1569 0.960 . S
C1562 C1560 1.381 . S
C1562 C1563 1.394 . S
C1562 H1570 0.930 . S
C1563 C1562 1.394 . S
C1563 C1564 1.383 . S
C1563 H1571 0.929 . S
C1564 C1563 1.383 . S
C1564 C1565 1.377 . S
C1565 H1549 0.930 . S
C1565 C1564 1.377 . S
C1565 C1566 1.379 . S
C1566 H1550 0.931 . S
C1566 C1560 1.383 . S
C1566 C1565 1.379 . S
H1567 C1561 0.959 . S
H1568 C1561 0.961 . S
H1569 C1561 0.960 . S
H1570 C1562 0.930 . S
H1571 C1563 0.929 . S
H1572 C1580 0.927 1_655 S
H1573 C1582 0.930 . S
H1574 C1584 0.930 . S
H1575 C1587 0.929 . S
H1576 C1590 0.930 . S
H1577 C1592 0.960 . S
H1578 C1592 0.979 . S
H1579 C1592 0.960 1_455 S
C1580 H1572 0.927 1_455 S
C1580 C1581 1.416 . S
C1580 C1582 1.349 1_455 S
C1581 C1580 1.416 . S
C1581 C1587 1.390 . S
C1582 H1573 0.930 . S
C1582 C1580 1.349 1_655 S
C1582 C1583 1.372 . S
C1583 C1582 1.372 . S
C1583 C1584 1.400 1_655 S
C1583 C1588 1.490 . S
C1584 H1574 0.930 . S
C1584 C1583 1.400 1_455 S
C1584 C1587 1.386 . S
H1585 C1601 0.930 . S
H1586 C1602 0.931 . S
C1587 H1575 0.929 . S
C1587 C1581 1.390 . S
C1587 C1584 1.386 . S
C1588 C1583 1.490 . S
C1588 C1590 1.395 . S
C1588 C1591 1.403 . S
H1589 C1595 0.930 . S
C1590 H1576 0.930 . S
C1590 C1588 1.395 . S
C1590 C1593 1.403 . S
C1591 C1588 1.403 . S
C1591 C1592 1.524 . S
C1591 C1595 1.400 . S
C1592 H1577 0.960 . S
C1592 H1578 0.979 . S
C1592 H1579 0.960 1_655 S
C1592 C1591 1.524 . S
C1593 C1590 1.403 . S
C1593 C1594 1.392 . S
C1593 C1597 1.495 . S
C1594 C1593 1.392 . S
C1594 C1595 1.385 . S
C1594 C1596 1.478 . S
C1595 H1589 0.930 . S
C1595 C1591 1.400 . S
C1595 C1594 1.385 . S
C1596 C1594 1.478 . S
C1596 C1598 1.381 . S
C1596 C1602 1.383 . S
C1597 C1593 1.495 . S
C1597 H1603 0.959 . S
C1597 H1604 0.961 . S
C1597 H1605 0.960 . S
C1598 C1596 1.381 . S
C1598 C1599 1.394 . S
C1598 H1606 0.930 . S
C1599 C1598 1.394 . S
C1599 C1600 1.383 . S
C1599 H1607 0.929 . S
C1600 C1599 1.383 . S
C1600 C1601 1.377 . S
C1601 H1585 0.930 . S
C1601 C1600 1.377 . S
C1601 C1602 1.379 . S
C1602 H1586 0.931 . S
C1602 C1596 1.383 . S
C1602 C1601 1.379 . S
H1603 C1597 0.959 . S
H1604 C1597 0.961 . S
H1605 C1597 0.960 . S
H1606 C1598 0.930 . S
H1607 C1599 0.929 . S
H1608 C1616 0.929 . S
H1609 C1618 0.930 . S
H1610 C1620 0.930 . S
H1611 C1623 0.929 . S
H1612 C1626 0.930 . S
H1613 C1628 0.960 . S
H1614 C1628 0.960 . S
H1615 C1628 0.960 . S
C1616 H1608 0.929 . S
C1616 C1617 1.377 . S
C1616 C1618 1.384 . S
C1617 C1616 1.377 . S
C1617 C1623 1.390 . S
C1618 H1609 0.930 . S
C1618 C1616 1.384 . S
C1618 C1619 1.372 . S
C1619 C1618 1.372 . S
C1619 C1620 1.400 . S
C1619 C1624 1.490 . S
C1620 H1610 0.930 . S
C1620 C1619 1.400 . S
C1620 C1623 1.386 . S
H1621 C1637 0.930 . S
H1622 C1638 0.931 . S
C1623 H1611 0.929 . S
C1623 C1617 1.390 . S
C1623 C1620 1.386 . S
C1624 C1619 1.490 . S
C1624 C1626 1.395 . S
C1624 C1627 1.403 . S
H1625 C1631 0.930 . S
C1626 H1612 0.930 . S
C1626 C1624 1.395 . S
C1626 C1629 1.403 . S
C1627 C1624 1.403 . S
C1627 C1628 1.524 . S
C1627 C1631 1.400 . S
C1628 H1613 0.960 . S
C1628 H1614 0.960 . S
C1628 H1615 0.960 . S
C1628 C1627 1.524 . S
C1629 C1626 1.403 . S
C1629 C1630 1.392 . S
C1629 C1633 1.495 . S
C1630 C1629 1.392 . S
C1630 C1631 1.385 . S
C1630 C1632 1.478 . S
C1631 H1625 0.930 . S
C1631 C1627 1.400 . S
C1631 C1630 1.385 . S
C1632 C1630 1.478 . S
C1632 C1634 1.381 . S
C1632 C1638 1.383 . S
C1633 C1629 1.495 . S
C1633 H1639 0.959 . S
C1633 H1640 0.961 . S
C1633 H1641 0.960 . S
C1634 C1632 1.381 . S
C1634 C1635 1.394 . S
C1634 H1642 0.930 . S
C1635 C1634 1.394 . S
C1635 C1636 1.383 . S
C1635 H1643 0.929 . S
C1636 C1635 1.383 . S
C1636 C1637 1.377 . S
C1637 H1621 0.930 . S
C1637 C1636 1.377 . S
C1637 C1638 1.379 . S
C1638 H1622 0.931 . S
C1638 C1632 1.383 . S
C1638 C1637 1.379 . S
H1639 C1633 0.959 . S
H1640 C1633 0.961 . S
H1641 C1633 0.960 . S
H1642 C1634 0.930 . S
H1643 C1635 0.929 . S
H1644 C1652 0.929 . S
H1645 C1654 0.930 . S
H1646 C1656 0.930 . S
H1647 C1659 0.929 . S
H1648 C1662 0.930 . S
H1649 C1664 0.960 . S
H1650 C1664 0.960 . S
H1651 C1664 0.960 . S
C1652 H1644 0.929 . S
C1652 C1653 1.377 . S
C1652 C1654 1.384 . S
C1653 C1652 1.377 . S
C1653 C1659 1.390 . S
C1654 H1645 0.930 . S
C1654 C1652 1.384 . S
C1654 C1655 1.372 . S
C1655 C1654 1.372 . S
C1655 C1656 1.400 . S
C1655 C1660 1.490 . S
C1656 H1646 0.930 . S
C1656 C1655 1.400 . S
C1656 C1659 1.386 . S
H1657 C1673 0.930 . S
H1658 C1674 0.931 . S
C1659 H1647 0.929 . S
C1659 C1653 1.390 . S
C1659 C1656 1.386 . S
C1660 C1655 1.490 . S
C1660 C1662 1.395 . S
C1660 C1663 1.403 . S
H1661 C1667 0.930 . S
C1662 H1648 0.930 . S
C1662 C1660 1.395 . S
C1662 C1665 1.403 . S
C1663 C1660 1.403 . S
C1663 C1664 1.524 . S
C1663 C1667 1.400 . S
C1664 H1649 0.960 . S
C1664 H1650 0.960 . S
C1664 H1651 0.960 . S
C1664 C1663 1.524 . S
C1665 C1662 1.403 . S
C1665 C1666 1.392 . S
C1665 C1669 1.495 . S
C1666 C1665 1.392 . S
C1666 C1667 1.385 . S
C1666 C1668 1.478 . S
C1667 H1661 0.930 . S
C1667 C1663 1.400 . S
C1667 C1666 1.385 . S
C1668 C1666 1.478 . S
C1668 C1670 1.381 . S
C1668 C1674 1.383 . S
C1669 C1665 1.495 . S
C1669 H1675 0.959 . S
C1669 H1676 0.961 . S
C1669 H1677 0.960 . S
C1670 C1668 1.381 . S
C1670 C1671 1.394 . S
C1670 H1678 0.930 . S
C1671 C1670 1.394 . S
C1671 C1672 1.383 . S
C1671 H1679 0.929 . S
C1672 C1671 1.383 . S
C1672 C1673 1.377 . S
C1673 H1657 0.930 . S
C1673 C1672 1.377 . S
C1673 C1674 1.379 . S
C1674 H1658 0.931 . S
C1674 C1668 1.383 . S
C1674 C1673 1.379 . S
H1675 C1669 0.959 . S
H1676 C1669 0.961 . S
H1677 C1669 0.960 . S
H1678 C1670 0.930 . S
H1679 C1671 0.929 . S
H1680 C1688 0.929 . S
H1681 C1690 0.930 . S
H1682 C1692 0.930 . S
H1683 C1695 0.929 . S
H1684 C1698 0.930 . S
H1685 C1700 0.960 1_554 S
H1686 C1700 0.960 . S
H1687 C1700 0.960 . S
C1688 H1680 0.929 . S
C1688 C1689 1.377 . S
C1688 C1690 1.384 1_455 S
C1689 C1688 1.377 . S
C1689 C1695 1.390 . S
C1690 H1681 0.930 . S
C1690 C1688 1.384 1_655 S
C1690 C1691 1.372 . S
C1691 C1690 1.372 . S
C1691 C1692 1.400 1_655 S
C1691 C1696 1.490 . S
C1692 H1682 0.930 . S
C1692 C1691 1.400 1_455 S
C1692 C1695 1.386 . S
H1693 C1709 0.930 . S
H1694 C1710 0.931 . S
C1695 H1683 0.929 . S
C1695 C1689 1.390 . S
C1695 C1692 1.386 . S
C1696 C1691 1.490 . S
C1696 C1698 1.395 . S
C1696 C1699 1.403 . S
H1697 C1703 0.930 . S
C1698 H1684 0.930 . S
C1698 C1696 1.395 . S
C1698 C1701 1.403 . S
C1699 C1696 1.403 . S
C1699 C1700 1.524 . S
C1699 C1703 1.400 . S
C1700 H1685 0.960 1_556 S
C1700 H1686 0.960 . S
C1700 H1687 0.960 . S
C1700 C1699 1.524 . S
C1701 C1698 1.403 . S
C1701 C1702 1.392 . S
C1701 C1705 1.495 . S
C1702 C1701 1.392 . S
C1702 C1703 1.385 . S
C1702 C1704 1.478 . S
C1703 H1697 0.930 . S
C1703 C1699 1.400 . S
C1703 C1702 1.385 . S
C1704 C1702 1.478 . S
C1704 C1706 1.381 . S
C1704 C1710 1.383 . S
C1705 C1701 1.495 . S
C1705 H1711 0.959 . S
C1705 H1712 0.961 . S
C1705 H1713 0.960 . S
C1706 C1704 1.381 . S
C1706 C1707 1.394 . S
C1706 H1714 0.930 . S
C1707 C1706 1.394 . S
C1707 C1708 1.383 . S
C1707 H1715 0.929 . S
C1708 C1707 1.383 . S
C1708 C1709 1.377 . S
C1709 H1693 0.930 . S
C1709 C1708 1.377 . S
C1709 C1710 1.379 . S
C1710 H1694 0.931 . S
C1710 C1704 1.383 . S
C1710 C1709 1.379 . S
H1711 C1705 0.959 . S
H1712 C1705 0.961 . S
H1713 C1705 0.960 . S
H1714 C1706 0.930 . S
H1715 C1707 0.929 . S
H1716 C1724 0.929 . S
H1717 C1726 0.930 . S
H1718 C1728 0.930 . S
H1719 C1731 0.929 . S
H1720 C1734 0.930 . S
H1721 C1736 0.960 . S
H1722 C1736 0.960 . S
H1723 C1736 0.960 . S
C1724 H1716 0.929 . S
C1724 C1725 1.377 . S
C1724 C1726 1.384 . S
C1725 C1724 1.377 . S
C1725 C1731 1.390 . S
C1726 H1717 0.930 . S
C1726 C1724 1.384 . S
C1726 C1727 1.372 . S
C1727 C1726 1.372 . S
C1727 C1728 1.400 . S
C1727 C1732 1.490 . S
C1728 H1718 0.930 . S
C1728 C1727 1.400 . S
C1728 C1731 1.386 . S
H1729 C1745 0.930 . S
H1730 C1746 0.931 . S
C1731 H1719 0.929 . S
C1731 C1725 1.390 . S
C1731 C1728 1.386 . S
C1732 C1727 1.490 . S
C1732 C1734 1.395 . S
C1732 C1735 1.403 . S
H1733 C1739 0.930 . S
C1734 H1720 0.930 . S
C1734 C1732 1.395 . S
C1734 C1737 1.403 . S
C1735 C1732 1.403 . S
C1735 C1736 1.524 . S
C1735 C1739 1.400 . S
C1736 H1721 0.960 . S
C1736 H1722 0.960 . S
C1736 H1723 0.960 . S
C1736 C1735 1.524 . S
C1737 C1734 1.403 . S
C1737 C1738 1.392 . S
C1737 C1741 1.495 . S
C1738 C1737 1.392 . S
C1738 C1739 1.385 . S
C1738 C1740 1.478 . S
C1739 H1733 0.930 . S
C1739 C1735 1.400 . S
C1739 C1738 1.385 . S
C1740 C1738 1.478 . S
C1740 C1742 1.381 . S
C1740 C1746 1.383 . S
C1741 C1737 1.495 . S
C1741 H1747 0.959 . S
C1741 H1748 0.961 . S
C1741 H1749 0.960 . S
C1742 C1740 1.381 . S
C1742 C1743 1.394 . S
C1742 H1750 0.930 . S
C1743 C1742 1.394 . S
C1743 C1744 1.383 . S
C1743 H1751 0.929 . S
C1744 C1743 1.383 . S
C1744 C1745 1.377 . S
C1745 H1729 0.930 . S
C1745 C1744 1.377 . S
C1745 C1746 1.379 . S
C1746 H1730 0.931 . S
C1746 C1740 1.383 . S
C1746 C1745 1.379 . S
H1747 C1741 0.959 . S
H1748 C1741 0.961 . S
H1749 C1741 0.960 . S
H1750 C1742 0.930 . S
H1751 C1743 0.929 . S
H1752 C1760 0.929 . S
H1753 C1762 0.930 . S
H1754 C1764 0.930 . S
H1755 C1767 0.929 . S
H1756 C1770 0.930 . S
H1757 C1772 0.960 . S
H1758 C1772 0.960 . S
H1759 C1772 0.960 . S
C1760 H1752 0.929 . S
C1760 C1761 1.377 . S
C1760 C1762 1.384 . S
C1761 C1760 1.377 . S
C1761 C1767 1.390 . S
C1762 H1753 0.930 . S
C1762 C1760 1.384 . S
C1762 C1763 1.372 . S
C1763 C1762 1.372 . S
C1763 C1764 1.400 . S
C1763 C1768 1.490 . S
C1764 H1754 0.930 . S
C1764 C1763 1.400 . S
C1764 C1767 1.386 . S
H1765 C1781 0.930 . S
H1766 C1782 0.931 . S
C1767 H1755 0.929 . S
C1767 C1761 1.390 . S
C1767 C1764 1.386 . S
C1768 C1763 1.490 . S
C1768 C1770 1.395 . S
C1768 C1771 1.403 . S
H1769 C1775 0.930 . S
C1770 H1756 0.930 . S
C1770 C1768 1.395 . S
C1770 C1773 1.403 . S
C1771 C1768 1.403 . S
C1771 C1772 1.524 . S
C1771 C1775 1.400 . S
C1772 H1757 0.960 . S
C1772 H1758 0.960 . S
C1772 H1759 0.960 . S
C1772 C1771 1.524 . S
C1773 C1770 1.403 . S
C1773 C1774 1.392 . S
C1773 C1777 1.495 . S
C1774 C1773 1.392 . S
C1774 C1775 1.385 . S
C1774 C1776 1.478 . S
C1775 H1769 0.930 . S
C1775 C1771 1.400 . S
C1775 C1774 1.385 . S
C1776 C1774 1.478 . S
C1776 C1778 1.381 . S
C1776 C1782 1.383 . S
C1777 C1773 1.495 . S
C1777 H1783 0.959 . S
C1777 H1784 0.961 . S
C1777 H1785 0.960 . S
C1778 C1776 1.381 . S
C1778 C1779 1.394 . S
C1778 H1786 0.930 . S
C1779 C1778 1.394 . S
C1779 C1780 1.383 . S
C1779 H1787 0.929 . S
C1780 C1779 1.383 . S
C1780 C1781 1.377 . S
C1781 H1765 0.930 . S
C1781 C1780 1.377 . S
C1781 C1782 1.379 . S
C1782 H1766 0.931 . S
C1782 C1776 1.383 . S
C1782 C1781 1.379 . S
H1783 C1777 0.959 . S
H1784 C1777 0.961 . S
H1785 C1777 0.960 . S
H1786 C1778 0.930 . S
H1787 C1779 0.929 . S
H1788 C1796 0.929 . S
H1789 C1798 0.930 . S
H1790 C1800 0.930 . S
H1791 C1803 0.929 . S
H1792 C1806 0.930 . S
H1793 C1808 0.960 . S
H1794 C1808 0.960 . S
H1795 C1808 0.960 . S
C1796 H1788 0.929 . S
C1796 C1797 1.377 . S
C1796 C1798 1.384 . S
C1797 C1796 1.377 . S
C1797 C1803 1.390 . S
C1798 H1789 0.930 . S
C1798 C1796 1.384 . S
C1798 C1799 1.372 . S
C1799 C1798 1.372 . S
C1799 C1800 1.400 . S
C1799 C1804 1.490 . S
C1800 H1790 0.930 . S
C1800 C1799 1.400 . S
C1800 C1803 1.386 . S
H1801 C1817 0.930 . S
H1802 C1818 0.931 . S
C1803 H1791 0.929 . S
C1803 C1797 1.390 . S
C1803 C1800 1.386 . S
C1804 C1799 1.490 . S
C1804 C1806 1.395 . S
C1804 C1807 1.403 . S
H1805 C1811 0.930 . S
C1806 H1792 0.930 . S
C1806 C1804 1.395 . S
C1806 C1809 1.403 . S
C1807 C1804 1.403 . S
C1807 C1808 1.524 . S
C1807 C1811 1.400 . S
C1808 H1793 0.960 . S
C1808 H1794 0.960 . S
C1808 H1795 0.960 . S
C1808 C1807 1.524 . S
C1809 C1806 1.403 . S
C1809 C1810 1.392 . S
C1809 C1813 1.495 . S
C1810 C1809 1.392 . S
C1810 C1811 1.385 . S
C1810 C1812 1.478 . S
C1811 H1805 0.930 . S
C1811 C1807 1.400 . S
C1811 C1810 1.385 . S
C1812 C1810 1.478 . S
C1812 C1814 1.381 . S
C1812 C1818 1.383 . S
C1813 C1809 1.495 . S
C1813 H1819 0.959 1_554 S
C1813 H1820 0.961 . S
C1813 H1821 0.960 . S
C1814 C1812 1.381 . S
C1814 C1815 1.394 . S
C1814 H1822 0.930 . S
C1815 C1814 1.394 . S
C1815 C1816 1.383 . S
C1815 H1823 0.929 . S
C1816 C1815 1.383 . S
C1816 C1817 1.377 . S
C1817 H1801 0.930 . S
C1817 C1816 1.377 . S
C1817 C1818 1.379 . S
C1818 H1802 0.931 . S
C1818 C1812 1.383 . S
C1818 C1817 1.379 . S
H1819 C1813 0.959 1_556 S
H1820 C1813 0.961 . S
H1821 C1813 0.960 . S
H1822 C1814 0.930 . S
H1823 C1815 0.929 . S
H1824 C1832 0.929 . S
H1825 C1834 0.930 . S
H1826 C1836 0.930 . S
H1827 C1839 0.929 . S
H1828 C1842 0.930 . S
H1829 C1844 0.960 . S
H1830 C1844 0.960 . S
H1831 C1844 0.960 . S
C1832 H1824 0.929 . S
C1832 C1833 1.377 . S
C1832 C1834 1.384 . S
C1833 C1832 1.377 . S
C1833 C1839 1.390 . S
C1834 H1825 0.930 . S
C1834 C1832 1.384 . S
C1834 C1835 1.372 . S
C1835 C1834 1.372 . S
C1835 C1836 1.400 . S
C1835 C1840 1.490 . S
C1836 H1826 0.930 . S
C1836 C1835 1.400 . S
C1836 C1839 1.386 . S
H1837 C1853 0.930 . S
H1838 C1854 0.931 . S
C1839 H1827 0.929 . S
C1839 C1833 1.390 . S
C1839 C1836 1.386 . S
C1840 C1835 1.490 . S
C1840 C1842 1.395 . S
C1840 C1843 1.403 . S
H1841 C1847 0.930 . S
C1842 H1828 0.930 . S
C1842 C1840 1.395 . S
C1842 C1845 1.403 . S
C1843 C1840 1.403 . S
C1843 C1844 1.524 . S
C1843 C1847 1.400 . S
C1844 H1829 0.960 . S
C1844 H1830 0.960 . S
C1844 H1831 0.960 . S
C1844 C1843 1.524 . S
C1845 C1842 1.403 . S
C1845 C1846 1.392 . S
C1845 C1849 1.495 1_655 S
C1846 C1845 1.392 . S
C1846 C1847 1.385 . S
C1846 C1848 1.446 1_655 S
C1847 H1841 0.930 . S
C1847 C1843 1.400 . S
C1847 C1846 1.385 . S
C1848 C1846 1.446 1_455 S
C1848 C1850 1.388 . S
C1848 C1854 1.407 . S
C1849 C1845 1.495 1_455 S
C1849 H1855 0.963 . S
C1849 H1856 0.961 . S
C1849 H1857 0.960 . S
C1850 C1848 1.388 . S
C1850 C1851 1.394 . S
C1850 H1858 0.930 1_455 S
C1851 C1850 1.394 . S
C1851 C1852 1.383 . S
C1851 H1859 0.929 . S
C1852 C1851 1.383 . S
C1852 C1853 1.377 . S
C1853 H1837 0.930 . S
C1853 C1852 1.377 . S
C1853 C1854 1.379 . S
C1854 H1838 0.931 . S
C1854 C1848 1.407 . S
C1854 C1853 1.379 . S
H1855 C1849 0.963 . S
H1856 C1849 0.961 . S
H1857 C1849 0.960 . S
H1858 C1850 0.930 1_655 S
H1859 C1851 0.929 . S
H1860 C1868 0.929 . S
H1861 C1870 0.930 . S
H1862 C1872 0.930 . S
H1863 C1875 0.929 . S
H1864 C1878 0.930 . S
H1865 C1880 0.960 . S
H1866 C1880 0.960 . S
H1867 C1880 0.960 . S
C1868 H1860 0.929 . S
C1868 C1869 1.377 . S
C1868 C1870 1.384 . S
C1869 C1868 1.377 . S
C1869 C1875 1.390 . S
C1870 H1861 0.930 . S
C1870 C1868 1.384 . S
C1870 C1871 1.372 . S
C1871 C1870 1.372 . S
C1871 C1872 1.400 . S
C1871 C1876 1.490 . S
C1872 H1862 0.930 . S
C1872 C1871 1.400 . S
C1872 C1875 1.386 . S
H1873 C1889 0.930 . S
H1874 C1890 0.931 . S
C1875 H1863 0.929 . S
C1875 C1869 1.390 . S
C1875 C1872 1.386 . S
C1876 C1871 1.490 . S
C1876 C1878 1.395 . S
C1876 C1879 1.403 . S
H1877 C1883 0.930 . S
C1878 H1864 0.930 . S
C1878 C1876 1.395 . S
C1878 C1881 1.403 . S
C1879 C1876 1.403 . S
C1879 C1880 1.524 . S
C1879 C1883 1.400 . S
C1880 H1865 0.960 . S
C1880 H1866 0.960 . S
C1880 H1867 0.960 . S
C1880 C1879 1.524 . S
C1881 C1878 1.403 . S
C1881 C1882 1.392 . S
C1881 C1885 1.495 . S
C1882 C1881 1.392 . S
C1882 C1883 1.385 . S
C1882 C1884 1.478 . S
C1883 H1877 0.930 . S
C1883 C1879 1.400 . S
C1883 C1882 1.385 . S
C1884 C1882 1.478 . S
C1884 C1886 1.381 . S
C1884 C1890 1.383 . S
C1885 C1881 1.495 . S
C1885 H1891 0.959 . S
C1885 H1892 0.961 . S
C1885 H1893 0.960 . S
C1886 C1884 1.381 . S
C1886 C1887 1.394 . S
C1886 H1894 0.930 . S
C1887 C1886 1.394 . S
C1887 C1888 1.383 . S
C1887 H1895 0.929 . S
C1888 C1887 1.383 . S
C1888 C1889 1.377 . S
C1889 H1873 0.930 . S
C1889 C1888 1.377 . S
C1889 C1890 1.379 . S
C1890 H1874 0.931 . S
C1890 C1884 1.383 . S
C1890 C1889 1.379 . S
H1891 C1885 0.959 . S
H1892 C1885 0.961 . S
H1893 C1885 0.960 . S
H1894 C1886 0.930 . S
H1895 C1887 0.929 . S
H1896 C1904 0.929 . S
H1897 C1906 0.930 . S
H1898 C1908 0.930 . S
H1899 C1911 0.929 . S
H1900 C1914 0.930 . S
H1901 C1916 0.960 . S
H1902 C1916 0.960 . S
H1903 C1916 0.960 . S
C1904 H1896 0.929 . S
C1904 C1905 1.377 . S
C1904 C1906 1.384 . S
C1905 C1904 1.377 . S
C1905 C1911 1.390 . S
C1906 H1897 0.930 . S
C1906 C1904 1.384 . S
C1906 C1907 1.372 . S
C1907 C1906 1.372 . S
C1907 C1908 1.400 . S
C1907 C1912 1.490 . S
C1908 H1898 0.930 . S
C1908 C1907 1.400 . S
C1908 C1911 1.386 . S
H1909 C1925 0.930 . S
H1910 C1926 0.931 . S
C1911 H1899 0.929 . S
C1911 C1905 1.390 . S
C1911 C1908 1.386 . S
C1912 C1907 1.490 . S
C1912 C1914 1.395 . S
C1912 C1915 1.403 . S
H1913 C1919 0.930 . S
C1914 H1900 0.930 . S
C1914 C1912 1.395 . S
C1914 C1917 1.403 . S
C1915 C1912 1.403 . S
C1915 C1916 1.524 . S
C1915 C1919 1.400 . S
C1916 H1901 0.960 . S
C1916 H1902 0.960 . S
C1916 H1903 0.960 . S
C1916 C1915 1.524 . S
C1917 C1914 1.403 . S
C1917 C1918 1.392 . S
C1917 C1921 1.495 . S
C1918 C1917 1.392 . S
C1918 C1919 1.385 . S
C1918 C1920 1.478 . S
C1919 H1913 0.930 . S
C1919 C1915 1.400 . S
C1919 C1918 1.385 . S
C1920 C1918 1.478 . S
C1920 C1922 1.381 . S
C1920 C1926 1.383 . S
C1921 C1917 1.495 . S
C1921 H1927 0.959 . S
C1921 H1928 0.961 . S
C1921 H1929 0.960 . S
C1922 C1920 1.381 . S
C1922 C1923 1.394 . S
C1922 H1930 0.930 . S
C1923 C1922 1.394 . S
C1923 C1924 1.383 . S
C1923 H1931 0.929 . S
C1924 C1923 1.383 . S
C1924 C1925 1.377 . S
C1925 H1909 0.930 . S
C1925 C1924 1.377 . S
C1925 C1926 1.379 . S
C1926 H1910 0.931 . S
C1926 C1920 1.383 . S
C1926 C1925 1.379 . S
H1927 C1921 0.959 . S
H1928 C1921 0.961 . S
H1929 C1921 0.960 . S
H1930 C1922 0.930 . S
H1931 C1923 0.929 . S
H1932 C1940 0.929 . S
H1933 C1942 0.930 . S
H1934 C1944 0.930 . S
H1935 C1947 0.929 . S
H1936 C1950 0.930 . S
H1937 C1952 0.960 . S
H1938 C1952 0.960 . S
H1939 C1952 0.960 . S
C1940 H1932 0.929 . S
C1940 C1941 1.377 . S
C1940 C1942 1.384 . S
C1941 C1940 1.377 . S
C1941 C1947 1.390 . S
C1942 H1933 0.930 . S
C1942 C1940 1.384 . S
C1942 C1943 1.372 . S
C1943 C1942 1.372 . S
C1943 C1944 1.400 . S
C1943 C1948 1.490 . S
C1944 H1934 0.930 . S
C1944 C1943 1.400 . S
C1944 C1947 1.386 . S
H1945 C1961 0.930 . S
H1946 C1962 0.931 . S
C1947 H1935 0.929 . S
C1947 C1941 1.390 . S
C1947 C1944 1.386 . S
C1948 C1943 1.490 . S
C1948 C1950 1.395 . S
C1948 C1951 1.403 . S
H1949 C1955 0.930 . S
C1950 H1936 0.930 . S
C1950 C1948 1.395 . S
C1950 C1953 1.403 . S
C1951 C1948 1.403 . S
C1951 C1952 1.524 . S
C1951 C1955 1.400 . S
C1952 H1937 0.960 . S
C1952 H1938 0.960 . S
C1952 H1939 0.960 . S
C1952 C1951 1.524 . S
C1953 C1950 1.403 . S
C1953 C1954 1.392 . S
C1953 C1957 1.495 . S
C1954 C1953 1.392 . S
C1954 C1955 1.385 . S
C1954 C1956 1.478 . S
C1955 H1949 0.930 . S
C1955 C1951 1.400 . S
C1955 C1954 1.385 . S
C1956 C1954 1.478 . S
C1956 C1958 1.381 . S
C1956 C1962 1.383 . S
C1957 C1953 1.495 . S
C1957 H1963 0.959 . S
C1957 H1964 0.961 . S
C1957 H1965 0.960 . S
C1958 C1956 1.381 . S
C1958 C1959 1.394 . S
C1958 H1966 0.930 . S
C1959 C1958 1.394 . S
C1959 C1960 1.383 . S
C1959 H1967 0.929 . S
C1960 C1959 1.383 . S
C1960 C1961 1.377 . S
C1961 H1945 0.930 . S
C1961 C1960 1.377 . S
C1961 C1962 1.379 . S
C1962 H1946 0.931 . S
C1962 C1956 1.383 . S
C1962 C1961 1.379 . S
H1963 C1957 0.959 . S
H1964 C1957 0.961 . S
H1965 C1957 0.960 . S
H1966 C1958 0.930 . S
H1967 C1959 0.929 . S
C537 N13 1.430 . S
C556 N2 1.415 . S
C573 N46 1.424 . S
C592 N35 1.427 . S
C609 N79 1.428 . S
C628 N68 1.444 . S
C645 N112 1.432 . S
C664 N101 1.434 . S
C681 N145 1.423 . S
C700 N134 1.404 . S
C717 N178 1.428 . S
C736 N167 1.443 . S
C753 N211 1.428 . S
C772 N200 1.444 . S
C789 N233 1.425 . S
C808 N244 1.444 . S
C825 N266 1.427 . S
C844 N277 1.413 . S
C861 N310 1.424 . S
C880 N299 1.431 . S
C897 N343 1.429 . S
C916 N332 1.407 . S
C933 N365 1.427 . S
C952 N376 1.446 . S
C969 N398 1.424 . S
C988 N409 1.443 . S
C1005 N442 1.426 . S
C1024 N431 1.400 . S
C1041 N464 1.420 . S
C1060 N475 1.405 . S
C1077 N508 1.427 . S
C1096 N497 1.441 . S
C1113 C18 0.970 . S
C1132 C150 0.977 . S
C1149 C183 0.968 . S
C1168 C51 0.959 . S
C1185 C216 0.967 . S
C1204 C84 0.963 . S
C1221 C117 0.969 . S
C1240 C249 0.961 . S
C1257 C348 0.969 . S
C1276 C282 0.959 . S
C1293 C315 0.970 . S
C1312 C381 0.977 . S
C1329 C414 0.968 . S
C1348 C480 0.959 . S
C1365 C447 0.969 . S
C1384 C513 0.959 . S
C1401 C304 1.385 . S
C1420 C7 1.402 . S
C1437 C469 1.390 . S
C1456 C40 1.384 . S
C1473 C73 1.387 . S
C1492 C271 1.398 . S
C1509 C502 1.386 . S
C1528 C106 1.401 . S
C1545 C337 1.390 . S
C1564 C139 1.370 . S
C1581 C436 1.387 . S
C1600 C172 1.398 . S
C1617 C205 1.389 . S
C1636 C370 1.391 . S
C1653 C238 1.390 . S
C1672 C403 1.370 . S
C1689 C153 1.413 . S
C1708 C120 1.409 . S
C1725 C417 1.408 . S
C1744 C285 1.415 . S
C1761 C54 1.412 . S
C1780 C219 1.407 . S
C1797 C450 1.407 . S
C1816 C318 1.412 . S
C1833 C186 1.412 . S
C1852 C21 1.398 . S
C1869 C351 1.409 . S
C1888 C516 1.419 . S
C1905 C252 1.407 . S
C1924 C87 1.411 . S
C1941 C483 1.409 . S
C1960 C384 1.419 . S
