# Generated by pormake.
# Topology unu, (4)-cn, num edge types: 1
# Building blocks:
#     Node 0, Type 0, BuildingBlock: CEKHIL_clean_sbu_0, # of connection points: 4
#     Node 1, Type 0, BuildingBlock: CEKHIL_clean_sbu_0, # of connection points: 4
#     Node 2, Type 0, BuildingBlock: CEKHIL_clean_sbu_0, # of connection points: 4
#     Node 3, Type 0, BuildingBlock: CEKHIL_clean_sbu_0, # of connection points: 4
#     Node 4, Type 0, BuildingBlock: CEKHIL_clean_sbu_0, # of connection points: 4
#     Node 5, Type 0, BuildingBlock: CEKHIL_clean_sbu_0, # of connection points: 4
#     Node 6, Type 0, BuildingBlock: CEKHIL_clean_sbu_0, # of connection points: 4
#     Node 7, Type 0, BuildingBlock: CEKHIL_clean_sbu_0, # of connection points: 4
#     Node 8, Type 0, BuildingBlock: CEKHIL_clean_sbu_0, # of connection points: 4
#     Node 9, Type 0, BuildingBlock: CEKHIL_clean_sbu_0, # of connection points: 4
#     Node 10, Type 0, BuildingBlock: CEKHIL_clean_sbu_0, # of connection points: 4
#     Node 11, Type 0, BuildingBlock: CEKHIL_clean_sbu_0, # of connection points: 4
#     Node 12, Type 0, BuildingBlock: CEKHIL_clean_sbu_0, # of connection points: 4
#     Node 13, Type 0, BuildingBlock: CEKHIL_clean_sbu_0, # of connection points: 4
#     Node 14, Type 0, BuildingBlock: CEKHIL_clean_sbu_0, # of connection points: 4
#     Node 15, Type 0, BuildingBlock: CEKHIL_clean_sbu_0, # of connection points: 4
#     Node 16, Type 0, BuildingBlock: CEKHIL_clean_sbu_0, # of connection points: 4
#     Node 17, Type 0, BuildingBlock: CEKHIL_clean_sbu_0, # of connection points: 4
#     Node 18, Type 0, BuildingBlock: CEKHIL_clean_sbu_0, # of connection points: 4
#     Node 19, Type 0, BuildingBlock: CEKHIL_clean_sbu_0, # of connection points: 4
#     Node 20, Type 0, BuildingBlock: CEKHIL_clean_sbu_0, # of connection points: 4
#     Node 21, Type 0, BuildingBlock: CEKHIL_clean_sbu_0, # of connection points: 4
#     Node 22, Type 0, BuildingBlock: CEKHIL_clean_sbu_0, # of connection points: 4
#     Node 23, Type 0, BuildingBlock: CEKHIL_clean_sbu_0, # of connection points: 4
#     Node 24, Type 0, BuildingBlock: CEKHIL_clean_sbu_0, # of connection points: 4
#     Node 25, Type 0, BuildingBlock: CEKHIL_clean_sbu_0, # of connection points: 4
#     Node 26, Type 0, BuildingBlock: CEKHIL_clean_sbu_0, # of connection points: 4
#     Node 27, Type 0, BuildingBlock: CEKHIL_clean_sbu_0, # of connection points: 4
#     Node 28, Type 0, BuildingBlock: CEKHIL_clean_sbu_0, # of connection points: 4
#     Node 29, Type 0, BuildingBlock: CEKHIL_clean_sbu_0, # of connection points: 4
#     Node 30, Type 0, BuildingBlock: CEKHIL_clean_sbu_0, # of connection points: 4
#     Node 31, Type 0, BuildingBlock: CEKHIL_clean_sbu_0, # of connection points: 4
#     Node 32, Type 0, BuildingBlock: CEKHIL_clean_sbu_0, # of connection points: 4
#     Node 33, Type 0, BuildingBlock: CEKHIL_clean_sbu_0, # of connection points: 4
#     Node 34, Type 0, BuildingBlock: CEKHIL_clean_sbu_0, # of connection points: 4
#     Node 35, Type 0, BuildingBlock: CEKHIL_clean_sbu_0, # of connection points: 4
#     Edge 36, Type (0, 0), BuildingBlock: KIFKEQ_clean_linker_1, # of connection points: 2
#     Edge 37, Type (0, 0), BuildingBlock: KIFKEQ_clean_linker_1, # of connection points: 2
#     Edge 38, Type (0, 0), BuildingBlock: KIFKEQ_clean_linker_1, # of connection points: 2
#     Edge 39, Type (0, 0), BuildingBlock: KIFKEQ_clean_linker_1, # of connection points: 2
#     Edge 40, Type (0, 0), BuildingBlock: KIFKEQ_clean_linker_1, # of connection points: 2
#     Edge 41, Type (0, 0), BuildingBlock: KIFKEQ_clean_linker_1, # of connection points: 2
#     Edge 42, Type (0, 0), BuildingBlock: KIFKEQ_clean_linker_1, # of connection points: 2
#     Edge 43, Type (0, 0), BuildingBlock: KIFKEQ_clean_linker_1, # of connection points: 2
#     Edge 44, Type (0, 0), BuildingBlock: KIFKEQ_clean_linker_1, # of connection points: 2
#     Edge 45, Type (0, 0), BuildingBlock: KIFKEQ_clean_linker_1, # of connection points: 2
#     Edge 46, Type (0, 0), BuildingBlock: KIFKEQ_clean_linker_1, # of connection points: 2
#     Edge 47, Type (0, 0), BuildingBlock: KIFKEQ_clean_linker_1, # of connection points: 2
#     Edge 48, Type (0, 0), BuildingBlock: KIFKEQ_clean_linker_1, # of connection points: 2
#     Edge 49, Type (0, 0), BuildingBlock: KIFKEQ_clean_linker_1, # of connection points: 2
#     Edge 50, Type (0, 0), BuildingBlock: KIFKEQ_clean_linker_1, # of connection points: 2
#     Edge 51, Type (0, 0), BuildingBlock: KIFKEQ_clean_linker_1, # of connection points: 2
#     Edge 52, Type (0, 0), BuildingBlock: KIFKEQ_clean_linker_1, # of connection points: 2
#     Edge 53, Type (0, 0), BuildingBlock: KIFKEQ_clean_linker_1, # of connection points: 2
#     Edge 54, Type (0, 0), BuildingBlock: KIFKEQ_clean_linker_1, # of connection points: 2
#     Edge 55, Type (0, 0), BuildingBlock: KIFKEQ_clean_linker_1, # of connection points: 2
#     Edge 56, Type (0, 0), BuildingBlock: KIFKEQ_clean_linker_1, # of connection points: 2
#     Edge 57, Type (0, 0), BuildingBlock: KIFKEQ_clean_linker_1, # of connection points: 2
#     Edge 58, Type (0, 0), BuildingBlock: KIFKEQ_clean_linker_1, # of connection points: 2
#     Edge 59, Type (0, 0), BuildingBlock: KIFKEQ_clean_linker_1, # of connection points: 2
#     Edge 60, Type (0, 0), BuildingBlock: KIFKEQ_clean_linker_1, # of connection points: 2
#     Edge 61, Type (0, 0), BuildingBlock: KIFKEQ_clean_linker_1, # of connection points: 2
#     Edge 62, Type (0, 0), BuildingBlock: KIFKEQ_clean_linker_1, # of connection points: 2
#     Edge 63, Type (0, 0), BuildingBlock: KIFKEQ_clean_linker_1, # of connection points: 2
#     Edge 64, Type (0, 0), BuildingBlock: KIFKEQ_clean_linker_1, # of connection points: 2
#     Edge 65, Type (0, 0), BuildingBlock: KIFKEQ_clean_linker_1, # of connection points: 2
#     Edge 66, Type (0, 0), BuildingBlock: KIFKEQ_clean_linker_1, # of connection points: 2
#     Edge 67, Type (0, 0), BuildingBlock: KIFKEQ_clean_linker_1, # of connection points: 2
#     Edge 68, Type (0, 0), BuildingBlock: KIFKEQ_clean_linker_1, # of connection points: 2
#     Edge 69, Type (0, 0), BuildingBlock: KIFKEQ_clean_linker_1, # of connection points: 2
#     Edge 70, Type (0, 0), BuildingBlock: KIFKEQ_clean_linker_1, # of connection points: 2
#     Edge 71, Type (0, 0), BuildingBlock: KIFKEQ_clean_linker_1, # of connection points: 2
#     Edge 72, Type (0, 0), BuildingBlock: KIFKEQ_clean_linker_1, # of connection points: 2
#     Edge 73, Type (0, 0), BuildingBlock: KIFKEQ_clean_linker_1, # of connection points: 2
#     Edge 74, Type (0, 0), BuildingBlock: KIFKEQ_clean_linker_1, # of connection points: 2
#     Edge 75, Type (0, 0), BuildingBlock: KIFKEQ_clean_linker_1, # of connection points: 2
#     Edge 76, Type (0, 0), BuildingBlock: KIFKEQ_clean_linker_1, # of connection points: 2
#     Edge 77, Type (0, 0), BuildingBlock: KIFKEQ_clean_linker_1, # of connection points: 2
#     Edge 78, Type (0, 0), BuildingBlock: KIFKEQ_clean_linker_1, # of connection points: 2
#     Edge 79, Type (0, 0), BuildingBlock: KIFKEQ_clean_linker_1, # of connection points: 2
#     Edge 80, Type (0, 0), BuildingBlock: KIFKEQ_clean_linker_1, # of connection points: 2
#     Edge 81, Type (0, 0), BuildingBlock: KIFKEQ_clean_linker_1, # of connection points: 2
#     Edge 82, Type (0, 0), BuildingBlock: KIFKEQ_clean_linker_1, # of connection points: 2
#     Edge 83, Type (0, 0), BuildingBlock: KIFKEQ_clean_linker_1, # of connection points: 2
#     Edge 84, Type (0, 0), BuildingBlock: KIFKEQ_clean_linker_1, # of connection points: 2
#     Edge 85, Type (0, 0), BuildingBlock: KIFKEQ_clean_linker_1, # of connection points: 2
#     Edge 86, Type (0, 0), BuildingBlock: KIFKEQ_clean_linker_1, # of connection points: 2
#     Edge 87, Type (0, 0), BuildingBlock: KIFKEQ_clean_linker_1, # of connection points: 2
#     Edge 88, Type (0, 0), BuildingBlock: KIFKEQ_clean_linker_1, # of connection points: 2
#     Edge 89, Type (0, 0), BuildingBlock: KIFKEQ_clean_linker_1, # of connection points: 2
#     Edge 90, Type (0, 0), BuildingBlock: KIFKEQ_clean_linker_1, # of connection points: 2
#     Edge 91, Type (0, 0), BuildingBlock: KIFKEQ_clean_linker_1, # of connection points: 2
#     Edge 92, Type (0, 0), BuildingBlock: KIFKEQ_clean_linker_1, # of connection points: 2
#     Edge 93, Type (0, 0), BuildingBlock: KIFKEQ_clean_linker_1, # of connection points: 2
#     Edge 94, Type (0, 0), BuildingBlock: KIFKEQ_clean_linker_1, # of connection points: 2
#     Edge 95, Type (0, 0), BuildingBlock: KIFKEQ_clean_linker_1, # of connection points: 2
#     Edge 96, Type (0, 0), BuildingBlock: KIFKEQ_clean_linker_1, # of connection points: 2
#     Edge 97, Type (0, 0), BuildingBlock: KIFKEQ_clean_linker_1, # of connection points: 2
#     Edge 98, Type (0, 0), BuildingBlock: KIFKEQ_clean_linker_1, # of connection points: 2
#     Edge 99, Type (0, 0), BuildingBlock: KIFKEQ_clean_linker_1, # of connection points: 2
#     Edge 100, Type (0, 0), BuildingBlock: KIFKEQ_clean_linker_1, # of connection points: 2
#     Edge 101, Type (0, 0), BuildingBlock: KIFKEQ_clean_linker_1, # of connection points: 2
#     Edge 102, Type (0, 0), BuildingBlock: KIFKEQ_clean_linker_1, # of connection points: 2
#     Edge 103, Type (0, 0), BuildingBlock: KIFKEQ_clean_linker_1, # of connection points: 2
#     Edge 104, Type (0, 0), BuildingBlock: KIFKEQ_clean_linker_1, # of connection points: 2
#     Edge 105, Type (0, 0), BuildingBlock: KIFKEQ_clean_linker_1, # of connection points: 2
#     Edge 106, Type (0, 0), BuildingBlock: KIFKEQ_clean_linker_1, # of connection points: 2
#     Edge 107, Type (0, 0), BuildingBlock: KIFKEQ_clean_linker_1, # of connection points: 2
# Relax obj value: 0.188
# Max RMSD: 0.232
# Mean RMSD: 0.232
data_MOF--net-unu--node1-CEKHIL_clean_sbu_0--edge1-KIFKEQ_clean_linker_1
_symmetry_space_group_name_H-M    P1
_symmetry_Int_Tables_number       1
_symmetry_cell_setting            triclinic
loop_
_symmetry_equiv_pos_as_xyz
'x, y, z'
_cell_length_a     44.138535
_cell_length_b     44.141706
_cell_length_c     101.5901
_cell_angle_alpha  89.990392
_cell_angle_beta   90.005565
_cell_angle_gamma 120.01443
loop_
_atom_site_label
_atom_site_type_symbol
_atom_site_fract_x
_atom_site_fract_y
_atom_site_fract_z
_atom_type_partial_charge
Co0 Co 0.20511 0.02151 0.11605 0.0
O1 O 0.23556 0.00248 0.11513 0.0
O2 O 0.24132 0.04674 0.10298 0.0
C3 C 0.15399 0.97045 0.11555 0.0
O4 O 0.17711 0.04692 0.11453 0.0
Co5 Co 0.15859 0.00431 0.14106 0.0
O6 O 0.13452 0.02238 0.12982 0.0
C7 C 0.23219 0.06021 0.1423 0.0
C8 C 0.25274 0.02559 0.10613 0.0
C9 C 0.14856 0.04225 0.1199 0.0
O10 O 0.23562 0.05541 0.13004 0.0
O11 O 0.20398 0.04138 0.14878 0.0
O12 O 0.17091 0.98441 0.10473 0.0
O13 O 0.1709 0.98515 0.12625 0.0
Co14 Co 0.97612 0.1802 0.1169 0.0
O15 O 0.99529 0.22971 0.11604 0.0
O16 O 0.95047 0.19136 0.10407 0.0
C17 C 0.02707 0.18004 0.11596 0.0
O18 O 0.95052 0.12674 0.11541 0.0
Co19 Co 0.99431 0.15115 0.14174 0.0
O20 O 0.97524 0.1087 0.13063 0.0
C21 C 0.93865 0.16901 0.14343 0.0
C22 C 0.97187 0.22391 0.10719 0.0
C23 C 0.95509 0.10281 0.12079 0.0
O24 O 0.94288 0.17692 0.13113 0.0
O25 O 0.95778 0.1598 0.14979 0.0
O26 O 0.01263 0.18303 0.10528 0.0
O27 O 0.01291 0.18229 0.1268 0.0
Co28 Co 0.81694 0.7922 0.11583 0.0
O29 O 0.76757 0.76158 0.11436 0.0
O30 O 0.80712 0.75657 0.10261 0.0
C31 C 0.81682 0.84321 0.11533 0.0
O32 O 0.8704 0.82057 0.11498 0.0
Co33 Co 0.84298 0.8367 0.14143 0.0
O34 O 0.8869 0.8609 0.13111 0.0
C35 C 0.82428 0.763 0.14236 0.0
C36 C 0.77429 0.74489 0.10541 0.0
C37 C 0.89377 0.84816 0.12103 0.0
O38 O 0.81947 0.76123 0.12984 0.0
O39 O 0.83122 0.79016 0.14915 0.0
O40 O 0.81473 0.82672 0.10449 0.0
O41 O 0.81372 0.82584 0.12599 0.0
Co42 Co 0.02136 0.20681 0.37806 0.0
O43 O 0.0012 0.23634 0.37749 0.0
O44 O 0.04507 0.24511 0.39051 0.0
C45 C 0.97092 0.15519 0.37888 0.0
O46 O 0.04756 0.17997 0.38114 0.0
Co47 Co 0.00725 0.1578 0.35407 0.0
O48 O 0.02421 0.13531 0.36664 0.0
C49 C 0.06126 0.23177 0.35188 0.0
C50 C 0.02356 0.25529 0.38644 0.0
C51 C 0.04317 0.15066 0.37664 0.0
O52 O 0.05584 0.236 0.364 0.0
O53 O 0.0433 0.20283 0.34573 0.0
O54 O 0.98385 0.17365 0.38949 0.0
O55 O 0.9862 0.1708 0.36805 0.0
Co56 Co 0.79155 0.81842 0.38161 0.0
O57 O 0.76158 0.76895 0.38281 0.0
O58 O 0.75343 0.80767 0.39378 0.0
C59 C 0.8428 0.81949 0.38383 0.0
O60 O 0.81888 0.87196 0.38257 0.0
Co61 Co 0.84054 0.84603 0.35728 0.0
O62 O 0.86353 0.88873 0.36827 0.0
C63 C 0.76709 0.82748 0.35433 0.0
C64 C 0.7429 0.77502 0.39106 0.0
C65 C 0.84825 0.89538 0.37755 0.0
O66 O 0.76261 0.82016 0.36665 0.0
O67 O 0.79603 0.83691 0.34837 0.0
O68 O 0.82423 0.8171 0.39409 0.0
O69 O 0.82744 0.81601 0.3726 0.0
Co70 Co 0.18001 0.97599 0.38259 0.0
O71 O 0.23001 0.99841 0.38286 0.0
O72 O 0.19475 0.95287 0.39521 0.0
C73 C 0.17569 0.02473 0.38342 0.0
O74 O 0.12696 0.94701 0.3848 0.0
Co75 Co 0.14519 0.98893 0.35825 0.0
O76 O 0.10376 0.96791 0.37002 0.0
C77 C 0.17002 0.93858 0.35614 0.0
C78 C 0.22656 0.97572 0.3917 0.0
C79 C 0.10101 0.94892 0.37991 0.0
O80 O 0.17795 0.94322 0.36843 0.0
O81 O 0.15882 0.95618 0.34985 0.0
O82 O 0.18093 0.01184 0.39411 0.0
O83 O 0.17798 0.01056 0.37259 0.0
Co84 Co 0.79394 0.97397 0.8823 0.0
O85 O 0.7668 0.99679 0.88234 0.0
O86 O 0.75491 0.95041 0.89444 0.0
C87 C 0.84697 0.02227 0.88398 0.0
O88 O 0.81752 0.94457 0.88461 0.0
Co89 Co 0.84329 0.98821 0.85845 0.0
O90 O 0.86255 0.96609 0.87023 0.0
C91 C 0.76849 0.93723 0.85561 0.0
C92 C 0.74667 0.97377 0.89092 0.0
C93 C 0.84559 0.94656 0.8799 0.0
O94 O 0.7643 0.94212 0.86777 0.0
O95 O 0.79772 0.9548 0.84958 0.0
O96 O 0.82777 0.0085 0.89436 0.0
O97 O 0.83161 0.00933 0.87285 0.0
Co98 Co 0.02817 0.81862 0.88098 0.0
O99 O 0.00674 0.76872 0.8808 0.0
O100 O 0.05231 0.80394 0.89313 0.0
C101 C 0.97881 0.82148 0.88258 0.0
O102 O 0.05606 0.87152 0.88366 0.0
Co103 Co 0.01345 0.8542 0.85744 0.0
O104 O 0.03217 0.89405 0.86997 0.0
C105 C 0.06563 0.83197 0.85437 0.0
C106 C 0.02968 0.77216 0.88952 0.0
C107 C 0.05214 0.89696 0.87953 0.0
O108 O 0.06086 0.82247 0.86649 0.0
O109 O 0.04763 0.84332 0.84845 0.0
O110 O 0.99265 0.81614 0.89296 0.0
O111 O 0.99247 0.82012 0.87146 0.0
Co112 Co 0.18363 0.20688 0.88026 0.0
O113 O 0.23358 0.23408 0.87981 0.0
O114 O 0.1997 0.24757 0.89156 0.0
C115 C 0.17936 0.15435 0.88296 0.0
O116 O 0.13076 0.18357 0.88307 0.0
Co117 Co 0.14588 0.15359 0.85775 0.0
O118 O 0.10676 0.13486 0.87056 0.0
C119 C 0.16943 0.2279 0.8532 0.0
C120 C 0.23111 0.25544 0.8879 0.0
C121 C 0.10472 0.15379 0.87958 0.0
O122 O 0.18072 0.23441 0.86509 0.0
O123 O 0.15567 0.19737 0.84805 0.0
O124 O 0.18519 0.17479 0.89299 0.0
O125 O 0.18078 0.16806 0.87155 0.0
Co126 Co 0.97438 0.79114 0.61548 0.0
O127 O 0.99207 0.75964 0.61411 0.0
O128 O 0.94896 0.75643 0.60191 0.0
C129 C 0.02629 0.84139 0.61561 0.0
O130 O 0.9507 0.82086 0.61449 0.0
Co131 Co 0.99189 0.83417 0.64141 0.0
O132 O 0.97495 0.86047 0.63084 0.0
C133 C 0.93567 0.76089 0.64157 0.0
C134 C 0.96923 0.74382 0.6049 0.0
C135 C 0.95593 0.84878 0.62057 0.0
O136 O 0.93939 0.75989 0.62906 0.0
O137 O 0.9559 0.78744 0.64864 0.0
O138 O 0.01244 0.82565 0.60459 0.0
O139 O 0.01092 0.82362 0.62609 0.0
Co140 Co 0.20856 0.17862 0.61397 0.0
O141 O 0.23853 0.22779 0.61192 0.0
O142 O 0.24511 0.18776 0.60119 0.0
C143 C 0.15735 0.17783 0.61247 0.0
O144 O 0.18072 0.12503 0.61406 0.0
Co145 Co 0.16396 0.15585 0.63953 0.0
O146 O 0.14008 0.11073 0.62995 0.0
C147 C 0.23764 0.17496 0.64105 0.0
C148 C 0.2562 0.22072 0.60356 0.0
C149 C 0.15306 0.10245 0.62032 0.0
O150 O 0.23931 0.17839 0.62848 0.0
O151 O 0.21034 0.16833 0.64769 0.0
O152 O 0.1744 0.17873 0.60193 0.0
O153 O 0.17425 0.18264 0.62341 0.0
Co154 Co 0.8209 0.02786 0.61795 0.0
O155 O 0.77085 0.0049 0.61793 0.0
O156 O 0.8054 0.05038 0.60541 0.0
C157 C 0.82577 0.97943 0.61705 0.0
O158 O 0.87379 0.05733 0.61532 0.0
Co159 Co 0.85811 0.01608 0.64178 0.0
O160 O 0.89845 0.03667 0.62953 0.0
C161 C 0.83302 0.06634 0.64424 0.0
C162 C 0.7738 0.02724 0.60901 0.0
C163 C 0.90021 0.05553 0.61975 0.0
O164 O 0.82299 0.0606 0.63217 0.0
O165 O 0.84613 0.04997 0.65019 0.0
O166 O 0.81996 0.99204 0.60641 0.0
O167 O 0.8239 0.99373 0.62791 0.0
Co168 Co 0.87436 0.36117 0.44677 0.0
O169 O 0.90362 0.34156 0.44386 0.0
O170 O 0.90953 0.38833 0.43347 0.0
C171 C 0.82292 0.3106 0.446 0.0
O172 O 0.84701 0.38734 0.44781 0.0
Co173 Co 0.83283 0.33906 0.47309 0.0
O174 O 0.80972 0.3629 0.46484 0.0
C175 C 0.90688 0.39319 0.47359 0.0
C176 C 0.92066 0.36632 0.43543 0.0
C177 C 0.82136 0.38381 0.45505 0.0
O178 O 0.90708 0.39205 0.46096 0.0
O179 O 0.88037 0.37218 0.48052 0.0
O180 O 0.83819 0.32673 0.4352 0.0
O181 O 0.8414 0.32302 0.45657 0.0
Co182 Co 0.63955 0.51542 0.44934 0.0
O183 O 0.6606 0.56525 0.44911 0.0
O184 O 0.61548 0.52914 0.43675 0.0
C185 C 0.68959 0.51349 0.44848 0.0
O186 O 0.6119 0.46229 0.44705 0.0
Co187 Co 0.65418 0.48054 0.4732 0.0
O188 O 0.63604 0.44035 0.4609 0.0
C189 C 0.60104 0.50204 0.47563 0.0
C190 C 0.63765 0.56114 0.44029 0.0
C191 C 0.61592 0.43703 0.45134 0.0
O192 O 0.60648 0.51232 0.46359 0.0
O193 O 0.61837 0.48993 0.48154 0.0
O194 O 0.67591 0.51753 0.43777 0.0
O195 O 0.67497 0.51492 0.45931 0.0
Co196 Co 0.48647 0.12594 0.45066 0.0
O197 O 0.43695 0.09847 0.44859 0.0
O198 O 0.47491 0.08728 0.43861 0.0
C199 C 0.49113 0.17875 0.44793 0.0
O200 O 0.54002 0.15044 0.4508 0.0
Co201 Co 0.51186 0.17417 0.47533 0.0
O202 O 0.55764 0.19187 0.46658 0.0
C203 C 0.48992 0.09985 0.47837 0.0
C204 C 0.44242 0.07868 0.44072 0.0
C205 C 0.56417 0.17658 0.45727 0.0
O206 O 0.48425 0.09581 0.46592 0.0
O207 O 0.4995 0.12884 0.48431 0.0
O208 O 0.4892 0.15993 0.43782 0.0
O209 O 0.48517 0.16301 0.45919 0.0
Co210 Co 0.68886 0.54277 0.71323 0.0
O211 O 0.669 0.57254 0.71391 0.0
O212 O 0.71602 0.58188 0.72505 0.0
C213 C 0.63885 0.4915 0.71577 0.0
O214 O 0.7154 0.51584 0.71481 0.0
Co215 Co 0.66799 0.492 0.68947 0.0
O216 O 0.68767 0.46998 0.70102 0.0
C217 C 0.72233 0.56538 0.68584 0.0
C218 C 0.69368 0.59197 0.72207 0.0
C219 C 0.70953 0.48607 0.71023 0.0
O220 O 0.71945 0.5707 0.69809 0.0
O221 O 0.703 0.53594 0.68016 0.0
O222 O 0.6549 0.51079 0.72591 0.0
O223 O 0.65076 0.50611 0.70444 0.0
Co224 Co 0.45855 0.15493 0.71416 0.0
O225 O 0.43118 0.10497 0.7143 0.0
O226 O 0.41863 0.13997 0.72577 0.0
C227 C 0.51113 0.15921 0.71674 0.0
O228 O 0.48209 0.20797 0.7164 0.0
Co229 Co 0.51108 0.19096 0.69127 0.0
O230 O 0.53035 0.23104 0.70365 0.0
C231 C 0.43653 0.16723 0.687 0.0
C232 C 0.41053 0.10825 0.72251 0.0
C233 C 0.51173 0.23374 0.71264 0.0
O234 O 0.43036 0.15683 0.69901 0.0
O235 O 0.46688 0.18039 0.68172 0.0
O236 O 0.49118 0.15422 0.72684 0.0
O237 O 0.49691 0.15696 0.70536 0.0
Co238 Co 0.84721 0.31207 0.71446 0.0
O239 O 0.89704 0.33288 0.7145 0.0
O240 O 0.86102 0.28879 0.72731 0.0
C241 C 0.84496 0.36195 0.71481 0.0
O242 O 0.79425 0.2849 0.71702 0.0
Co243 Co 0.81238 0.32463 0.69008 0.0
O244 O 0.77183 0.30654 0.70225 0.0
C245 C 0.8351 0.27257 0.68839 0.0
C246 C 0.89296 0.31053 0.72359 0.0
C247 C 0.7688 0.28795 0.7123 0.0
O248 O 0.84336 0.27776 0.70063 0.0
O249 O 0.82447 0.29042 0.68193 0.0
O250 O 0.85005 0.34937 0.72561 0.0
O251 O 0.84618 0.34666 0.70411 0.0
Co252 Co 0.45786 0.30706 0.21293 0.0
O253 O 0.43117 0.33033 0.21345 0.0
O254 O 0.41915 0.28327 0.22516 0.0
C255 C 0.51126 0.35474 0.21465 0.0
O256 O 0.48091 0.27712 0.2148 0.0
Co257 Co 0.50632 0.32156 0.18876 0.0
O258 O 0.52472 0.29746 0.19989 0.0
C259 C 0.43128 0.27166 0.18608 0.0
C260 C 0.41112 0.30699 0.22196 0.0
C261 C 0.50814 0.2782 0.20968 0.0
O262 O 0.42764 0.27604 0.19834 0.0
O263 O 0.46035 0.28919 0.17994 0.0
O264 O 0.49219 0.34081 0.22505 0.0
O265 O 0.49557 0.34249 0.20351 0.0
Co266 Co 0.69349 0.1528 0.21383 0.0
O267 O 0.67222 0.10338 0.21588 0.0
O268 O 0.71968 0.14189 0.2266 0.0
C269 C 0.64438 0.15616 0.21523 0.0
O270 O 0.72136 0.20638 0.21369 0.0
Co271 Co 0.67305 0.17617 0.18803 0.0
O272 O 0.69876 0.22222 0.19688 0.0
C273 C 0.72608 0.15505 0.1868 0.0
C274 C 0.69675 0.10923 0.22419 0.0
C275 C 0.71932 0.22979 0.20671 0.0
O276 O 0.72389 0.15162 0.19937 0.0
O277 O 0.70604 0.16227 0.18003 0.0
O278 O 0.65994 0.15446 0.22581 0.0
O279 O 0.65605 0.15056 0.20435 0.0
Co280 Co 0.84853 0.54133 0.21473 0.0
O281 O 0.89826 0.57045 0.21571 0.0
O282 O 0.86061 0.57865 0.22741 0.0
C283 C 0.84727 0.48973 0.21591 0.0
O284 O 0.79521 0.51537 0.21621 0.0
Co285 Co 0.81654 0.49195 0.19064 0.0
O286 O 0.77498 0.46949 0.20231 0.0
C287 C 0.8378 0.56657 0.18798 0.0
C288 C 0.89302 0.5887 0.22446 0.0
C289 C 0.77053 0.48608 0.21166 0.0
O290 O 0.84662 0.57137 0.2002 0.0
O291 O 0.82677 0.53721 0.18211 0.0
O292 O 0.84973 0.50706 0.22656 0.0
O293 O 0.84962 0.50587 0.205 0.0
Co294 Co 0.64064 0.12743 0.95085 0.0
O295 O 0.66239 0.09979 0.94854 0.0
O296 O 0.61553 0.09162 0.93755 0.0
C297 C 0.68962 0.18033 0.95025 0.0
O298 O 0.61237 0.15272 0.95117 0.0
Co299 Co 0.65909 0.169 0.9772 0.0
O300 O 0.63314 0.18936 0.96857 0.0
C301 C 0.60712 0.09436 0.97747 0.0
C302 C 0.63848 0.0819 0.9399 0.0
C303 C 0.61348 0.17728 0.95846 0.0
O304 O 0.60947 0.09427 0.96487 0.0
O305 O 0.6268 0.12112 0.98453 0.0
O306 O 0.67502 0.164 0.9394 0.0
O307 O 0.67713 0.16196 0.96085 0.0
Co308 Co 0.8739 0.51755 0.95104 0.0
O309 O 0.90489 0.56684 0.94963 0.0
O310 O 0.90945 0.52716 0.93781 0.0
C311 C 0.82323 0.51836 0.95057 0.0
O312 O 0.84495 0.46402 0.95009 0.0
Co313 Co 0.82866 0.49099 0.97645 0.0
O314 O 0.80345 0.44802 0.96573 0.0
C315 C 0.90196 0.50774 0.9774 0.0
C316 C 0.92143 0.56002 0.94066 0.0
C317 C 0.8165 0.44098 0.9558 0.0
O318 O 0.90474 0.51465 0.96502 0.0
O319 O 0.87425 0.49951 0.98404 0.0
O320 O 0.83964 0.52029 0.93972 0.0
O321 O 0.84047 0.52112 0.96124 0.0
Co322 Co 0.48629 0.36043 0.94739 0.0
O323 O 0.43738 0.34196 0.94482 0.0
O324 O 0.4787 0.38731 0.9339 0.0
C325 C 0.48566 0.30909 0.94705 0.0
O326 O 0.53975 0.3854 0.94788 0.0
Co327 Co 0.50752 0.33984 0.97364 0.0
O328 O 0.55323 0.36027 0.96448 0.0
C329 C 0.48916 0.39517 0.9739 0.0
C330 C 0.44549 0.36622 0.93612 0.0
C331 C 0.56199 0.38079 0.95459 0.0
O332 O 0.48645 0.39292 0.96131 0.0
O333 O 0.49496 0.37449 0.98092 0.0
O334 O 0.48605 0.32449 0.93612 0.0
O335 O 0.48084 0.32271 0.95756 0.0
Co336 Co 0.54471 0.69619 0.78297 0.0
O337 O 0.57408 0.6763 0.78077 0.0
O338 O 0.58228 0.72422 0.77062 0.0
C339 C 0.49313 0.64628 0.78073 0.0
O340 O 0.51775 0.7229 0.78324 0.0
Co341 Co 0.49772 0.67218 0.80799 0.0
O342 O 0.4764 0.69651 0.79889 0.0
C343 C 0.57135 0.72701 0.81047 0.0
C344 C 0.59258 0.70163 0.77271 0.0
C345 C 0.49055 0.71872 0.7896 0.0
O346 O 0.57487 0.72549 0.79798 0.0
O347 O 0.54299 0.70671 0.81663 0.0
O348 O 0.5109 0.66332 0.77043 0.0
O349 O 0.50938 0.65725 0.79183 0.0
Co350 Co 0.30836 0.84875 0.7816 0.0
O351 O 0.32917 0.89846 0.78047 0.0
O352 O 0.28335 0.86064 0.76878 0.0
C353 C 0.35851 0.84701 0.78072 0.0
O354 O 0.28076 0.79544 0.78027 0.0
Co355 Co 0.32498 0.81722 0.80606 0.0
O356 O 0.30445 0.77472 0.79488 0.0
C357 C 0.27214 0.83923 0.80822 0.0
C358 C 0.30563 0.89307 0.77172 0.0
C359 C 0.28421 0.77049 0.78526 0.0
O360 O 0.27624 0.8474 0.79595 0.0
O361 O 0.29027 0.82831 0.81431 0.0
O362 O 0.34399 0.84951 0.76997 0.0
O363 O 0.34458 0.84973 0.79153 0.0
Co364 Co 0.15625 0.45787 0.78187 0.0
O365 O 0.10632 0.43116 0.78125 0.0
O366 O 0.14159 0.42025 0.76916 0.0
C367 C 0.16163 0.51124 0.78088 0.0
O368 O 0.20929 0.48119 0.78005 0.0
Co369 Co 0.19009 0.50469 0.80644 0.0
O370 O 0.23235 0.52459 0.79511 0.0
C371 C 0.16417 0.42925 0.80837 0.0
C372 C 0.1098 0.41191 0.77243 0.0
C373 C 0.23524 0.50854 0.7852 0.0
O374 O 0.15677 0.42649 0.79605 0.0
O375 O 0.17566 0.45795 0.81475 0.0
O376 O 0.15682 0.4931 0.77024 0.0
O377 O 0.15827 0.4947 0.79181 0.0
Co378 Co 0.36015 0.87241 0.04799 0.0
O379 O 0.33834 0.90051 0.0479 0.0
O380 O 0.38494 0.91193 0.05979 0.0
C381 C 0.31111 0.82019 0.05019 0.0
O382 O 0.38871 0.848 0.05055 0.0
Co383 Co 0.34422 0.82022 0.02504 0.0
O384 O 0.36339 0.79995 0.03771 0.0
C385 C 0.3965 0.89452 0.02115 0.0
C386 C 0.36187 0.92063 0.05633 0.0
C387 C 0.38437 0.81814 0.04685 0.0
O388 O 0.39149 0.90062 0.03308 0.0
O389 O 0.37926 0.86432 0.01577 0.0
O390 O 0.3257 0.83986 0.0604 0.0
O391 O 0.32393 0.83455 0.03891 0.0
Co392 Co 0.12596 0.48386 0.04834 0.0
O393 O 0.09756 0.43398 0.04852 0.0
O394 O 0.08747 0.46975 0.06062 0.0
C395 C 0.17828 0.48697 0.04988 0.0
O396 O 0.15097 0.5369 0.05062 0.0
Co397 Co 0.17533 0.51813 0.02446 0.0
O398 O 0.19671 0.55885 0.03659 0.0
C399 C 0.10083 0.49567 0.02167 0.0
C400 C 0.07822 0.43782 0.05719 0.0
C401 C 0.18002 0.5622 0.04619 0.0
O402 O 0.09662 0.48685 0.03387 0.0
O403 O 0.12994 0.50673 0.01561 0.0
O404 O 0.15942 0.48214 0.06031 0.0
O405 O 0.16289 0.48493 0.03878 0.0
Co406 Co 0.51507 0.63914 0.04635 0.0
O407 O 0.56503 0.66136 0.04635 0.0
O408 O 0.52998 0.61388 0.05784 0.0
C409 C 0.51142 0.68777 0.04912 0.0
O410 O 0.46202 0.61003 0.04876 0.0
Co411 Co 0.47897 0.65623 0.02367 0.0
O412 O 0.4391 0.63563 0.03615 0.0
C413 C 0.50181 0.60484 0.01913 0.0
C414 C 0.56173 0.63741 0.05455 0.0
C415 C 0.43636 0.61421 0.04511 0.0
O416 O 0.51249 0.60897 0.03111 0.0
O417 O 0.48883 0.62232 0.01396 0.0
O418 O 0.51644 0.67257 0.05914 0.0
O419 O 0.51325 0.67578 0.03768 0.0
Co420 Co 0.12321 0.63854 0.54634 0.0
O421 O 0.09465 0.65985 0.54592 0.0
O422 O 0.0831 0.61334 0.55787 0.0
C423 C 0.17496 0.68797 0.54888 0.0
O424 O 0.14815 0.61055 0.54923 0.0
Co425 Co 0.17678 0.65542 0.52381 0.0
O426 O 0.19687 0.63667 0.53675 0.0
C427 C 0.10291 0.60254 0.5194 0.0
C428 C 0.0743 0.63624 0.55428 0.0
C429 C 0.17842 0.61547 0.5458 0.0
O430 O 0.09607 0.60717 0.53128 0.0
O431 O 0.13335 0.62025 0.51423 0.0
O432 O 0.15479 0.67308 0.55894 0.0
O433 O 0.16131 0.67514 0.5375 0.0
Co434 Co 0.35912 0.48524 0.54823 0.0
O435 O 0.33593 0.43527 0.54817 0.0
O436 O 0.38287 0.46933 0.56009 0.0
C437 C 0.31123 0.4905 0.55022 0.0
O438 O 0.38894 0.53817 0.55063 0.0
Co439 Co 0.34484 0.52094 0.52461 0.0
O440 O 0.36733 0.5621 0.53648 0.0
C441 C 0.39464 0.49591 0.5213 0.0
C442 C 0.3593 0.43784 0.55651 0.0
C443 C 0.38695 0.56439 0.54608 0.0
O444 O 0.39028 0.48717 0.53349 0.0
O445 O 0.37718 0.5079 0.51541 0.0
O446 O 0.32511 0.4848 0.56051 0.0
O447 O 0.32377 0.48803 0.539 0.0
Co448 Co 0.51121 0.87479 0.5502 0.0
O449 O 0.56107 0.90317 0.55073 0.0
O450 O 0.5247 0.91234 0.56286 0.0
C451 C 0.50823 0.82243 0.55133 0.0
O452 O 0.45809 0.84964 0.55213 0.0
Co453 Co 0.47807 0.82678 0.52589 0.0
O454 O 0.43668 0.80484 0.53768 0.0
C455 C 0.50051 0.9015 0.52371 0.0
C456 C 0.55678 0.92178 0.5596 0.0
C457 C 0.43295 0.82098 0.54738 0.0
O458 O 0.50885 0.90509 0.53595 0.0
O459 O 0.48976 0.87271 0.51745 0.0
O460 O 0.51246 0.8406 0.56191 0.0
O461 O 0.51067 0.83848 0.54036 0.0
Co462 Co 0.31123 0.46293 0.28274 0.0
O463 O 0.32955 0.43194 0.28159 0.0
O464 O 0.28596 0.42761 0.26938 0.0
C465 C 0.36267 0.51363 0.28266 0.0
O466 O 0.28677 0.49184 0.28151 0.0
Co467 Co 0.32811 0.50666 0.30845 0.0
O468 O 0.31031 0.53196 0.29773 0.0
C469 C 0.27294 0.43305 0.30894 0.0
C470 C 0.30658 0.4155 0.27247 0.0
C471 C 0.29139 0.5197 0.28745 0.0
O472 O 0.27666 0.43185 0.29644 0.0
O473 O 0.29285 0.45991 0.31593 0.0
O474 O 0.3489 0.49738 0.27171 0.0
O475 O 0.34756 0.49615 0.29322 0.0
Co476 Co 0.54304 0.85088 0.28292 0.0
O477 O 0.57248 0.90044 0.28194 0.0
O478 O 0.58078 0.8627 0.27039 0.0
C479 C 0.49134 0.84912 0.28139 0.0
O480 O 0.51596 0.79736 0.28181 0.0
Co481 Co 0.49671 0.82353 0.30795 0.0
O482 O 0.47361 0.78036 0.29718 0.0
C483 C 0.57033 0.8427 0.3098 0.0
C484 C 0.59112 0.89516 0.27342 0.0
C485 C 0.48764 0.77377 0.28743 0.0
O486 O 0.57298 0.84877 0.29737 0.0
O487 O 0.54245 0.83451 0.31633 0.0
O488 O 0.50946 0.8522 0.27091 0.0
O489 O 0.50751 0.85264 0.29243 0.0
Co490 Co 0.15402 0.69542 0.28425 0.0
O491 O 0.10401 0.673 0.28406 0.0
O492 O 0.13919 0.7187 0.27177 0.0
C493 C 0.15804 0.64653 0.28315 0.0
O494 O 0.20711 0.72443 0.28188 0.0
Co495 Co 0.19015 0.68191 0.30804 0.0
O496 O 0.23062 0.70207 0.29585 0.0
C497 C 0.16621 0.73308 0.31071 0.0
C498 C 0.1074 0.69566 0.27521 0.0
C499 C 0.23309 0.72174 0.28625 0.0
O500 O 0.15623 0.72784 0.29863 0.0
O501 O 0.17887 0.71616 0.31656 0.0
O502 O 0.15285 0.65975 0.27256 0.0
O503 O 0.15612 0.6606 0.29406 0.0
H504 H 0.22903 0.09469 0.16404 0.0
H505 H 0.30131 0.09502 0.1353 0.0
H506 H 0.27595 0.14746 0.1739 0.0
H507 H 0.34887 0.14696 0.14558 0.0
H508 H 0.42148 0.25819 0.15948 0.0
H509 H 0.37294 0.20768 0.14876 0.0
H510 H 0.32571 0.16782 0.1868 0.0
H511 H 0.3728 0.21865 0.19732 0.0
C512 C 0.25513 0.10568 0.15998 0.0
C513 C 0.26148 0.09055 0.14894 0.0
C514 C 0.28215 0.13599 0.16566 0.0
C515 C 0.31639 0.15162 0.16058 0.0
C516 C 0.32278 0.13614 0.14962 0.0
C517 C 0.29558 0.10611 0.1438 0.0
C518 C 0.40046 0.23881 0.1655 0.0
C519 C 0.40101 0.24263 0.17924 0.0
C520 C 0.37277 0.20965 0.15938 0.0
C521 C 0.3453 0.18347 0.1669 0.0
C522 C 0.34587 0.18763 0.18062 0.0
C523 C 0.37313 0.21689 0.18669 0.0
H524 H 0.7808 0.15341 0.1985 0.0
H525 H 0.73837 0.1545 0.16025 0.0
H526 H 0.83208 0.15754 0.18819 0.0
H527 H 0.78942 0.15703 0.14982 0.0
H528 H 0.902 0.20108 0.13602 0.0
H529 H 0.84989 0.1961 0.14633 0.0
H530 H 0.85359 0.1276 0.17593 0.0
H531 H 0.90646 0.13387 0.16596 0.0
C532 C 0.78204 0.15385 0.18785 0.0
C533 C 0.75535 0.15367 0.18021 0.0
C534 C 0.81156 0.15609 0.18192 0.0
C535 C 0.81508 0.15771 0.16815 0.0
C536 C 0.78793 0.15651 0.16047 0.0
C537 C 0.75847 0.1547 0.16643 0.0
C538 C 0.89183 0.18522 0.14481 0.0
C539 C 0.90851 0.16805 0.15022 0.0
C540 C 0.8617 0.18204 0.15064 0.0
C541 C 0.84727 0.16125 0.16194 0.0
C542 C 0.86417 0.14428 0.16738 0.0
C543 C 0.89455 0.14785 0.16165 0.0
H544 H 0.87064 0.63587 0.19475 0.0
H545 H 0.80466 0.56312 0.16482 0.0
H546 H 0.86707 0.68285 0.18362 0.0
H547 H 0.79997 0.60969 0.15399 0.0
H548 H 0.82373 0.75074 0.16888 0.0
H549 H 0.82734 0.70326 0.1796 0.0
H550 H 0.83063 0.66129 0.14152 0.0
H551 H 0.82561 0.70776 0.13085 0.0
C552 C 0.85539 0.62989 0.18578 0.0
C553 C 0.838 0.59572 0.18067 0.0
C554 C 0.85306 0.65679 0.17946 0.0
C555 C 0.83297 0.6501 0.16795 0.0
C556 C 0.81606 0.616 0.16273 0.0
C557 C 0.81871 0.5892 0.16897 0.0
C558 C 0.82492 0.7312 0.1628 0.0
C559 C 0.82428 0.73308 0.149 0.0
C560 C 0.82733 0.70412 0.16895 0.0
C561 C 0.82952 0.67847 0.16144 0.0
C562 C 0.82848 0.68021 0.14764 0.0
C563 C 0.8257 0.70702 0.14151 0.0
H564 H 0.09656 0.30053 0.35928 0.0
H565 H 0.09391 0.2299 0.32925 0.0
H566 H 0.14774 0.34855 0.3489 0.0
H567 H 0.14589 0.27764 0.31914 0.0
H568 H 0.21776 0.37773 0.29685 0.0
H569 H 0.16633 0.32981 0.30697 0.0
H570 H 0.20848 0.37057 0.34552 0.0
H571 H 0.25955 0.41951 0.33534 0.0
C572 C 0.10693 0.29522 0.35046 0.0
C573 C 0.09106 0.26135 0.34507 0.0
C574 C 0.13652 0.32273 0.34457 0.0
C575 C 0.15121 0.31702 0.33322 0.0
C576 C 0.13507 0.28318 0.32776 0.0
C577 C 0.10525 0.25573 0.33357 0.0
C578 C 0.21625 0.37646 0.3075 0.0
C579 C 0.24286 0.40259 0.31528 0.0
C580 C 0.18671 0.34878 0.31331 0.0
C581 C 0.1831 0.34624 0.32707 0.0
C582 C 0.21004 0.37201 0.33488 0.0
C583 C 0.23949 0.39995 0.32905 0.0
H584 H 0.77068 0.86203 0.33151 0.0
H585 H 0.69786 0.79381 0.36096 0.0
H586 H 0.72407 0.8676 0.32109 0.0
H587 H 0.65086 0.79811 0.35024 0.0
H588 H 0.58169 0.84075 0.33635 0.0
H589 H 0.6295 0.8371 0.34685 0.0
H590 H 0.67289 0.83824 0.30857 0.0
H591 H 0.62638 0.84347 0.2982 0.0
C592 C 0.74455 0.84764 0.3356 0.0
C593 C 0.73801 0.82749 0.34706 0.0
C594 C 0.71774 0.8508 0.32963 0.0
C595 C 0.6836 0.83349 0.33485 0.0
C596 C 0.67692 0.8125 0.3461 0.0
C597 C 0.70382 0.80971 0.35217 0.0
C598 C 0.60166 0.84058 0.33021 0.0
C599 C 0.60019 0.84256 0.31644 0.0
C600 C 0.62893 0.83814 0.33621 0.0
C601 C 0.6551 0.8372 0.32857 0.0
C602 C 0.65367 0.8395 0.31481 0.0
C603 C 0.62677 0.84237 0.30885 0.0
H604 H 0.16671 0.92548 0.32959 0.0
H605 H 0.17605 0.88572 0.36735 0.0
H606 H 0.16601 0.87584 0.31874 0.0
H607 H 0.1738 0.83563 0.35663 0.0
H608 H 0.20256 0.76687 0.33284 0.0
H609 H 0.2053 0.81755 0.34341 0.0
H610 H 0.13002 0.81479 0.31548 0.0
H611 H 0.12847 0.76493 0.30456 0.0
C612 C 0.16859 0.90618 0.33557 0.0
C613 C 0.17157 0.90971 0.34933 0.0
C614 C 0.16787 0.87752 0.32937 0.0
C615 C 0.16969 0.85153 0.3368 0.0
C616 C 0.17295 0.85532 0.35055 0.0
C617 C 0.17411 0.88411 0.35671 0.0
C618 C 0.18634 0.77687 0.32902 0.0
C619 C 0.16525 0.7618 0.31787 0.0
C620 C 0.18786 0.80597 0.33511 0.0
C621 C 0.16795 0.82045 0.3303 0.0
C622 C 0.14627 0.80486 0.3193 0.0
C623 C 0.1451 0.77602 0.31311 0.0
H624 H 0.56808 0.75768 0.83332 0.0
H625 H 0.64057 0.76211 0.80379 0.0
H626 H 0.61479 0.80957 0.84378 0.0
H627 H 0.68789 0.81303 0.81463 0.0
H628 H 0.75848 0.92412 0.82902 0.0
H629 H 0.71065 0.87308 0.81829 0.0
H630 H 0.66509 0.83118 0.85637 0.0
H631 H 0.71146 0.88262 0.86691 0.0
C632 C 0.59422 0.76928 0.82925 0.0
C633 C 0.60064 0.75574 0.81776 0.0
C634 C 0.62112 0.79911 0.83525 0.0
C635 C 0.65529 0.81578 0.83006 0.0
C636 C 0.66184 0.8015 0.81876 0.0
C637 C 0.63479 0.77202 0.81263 0.0
C638 C 0.73798 0.90414 0.83505 0.0
C639 C 0.73872 0.90762 0.8488 0.0
C640 C 0.71071 0.87466 0.82892 0.0
C641 C 0.6839 0.84776 0.83644 0.0
C642 C 0.68472 0.85151 0.85019 0.0
C643 C 0.71154 0.88112 0.85627 0.0
H644 H 0.1205 0.82924 0.86528 0.0
H645 H 0.07819 0.83581 0.82772 0.0
H646 H 0.17097 0.833 0.85436 0.0
H647 H 0.12827 0.83787 0.81662 0.0
H648 H 0.23865 0.87516 0.8016 0.0
H649 H 0.18887 0.87361 0.81265 0.0
H650 H 0.18932 0.80168 0.84146 0.0
H651 H 0.23991 0.80461 0.83079 0.0
C652 C 0.12165 0.83088 0.85464 0.0
C653 C 0.09513 0.83204 0.84737 0.0
C654 C 0.15067 0.8329 0.84834 0.0
C655 C 0.15381 0.83558 0.83457 0.0
C656 C 0.12708 0.83638 0.82726 0.0
C657 C 0.09818 0.83488 0.8336 0.0
C658 C 0.22827 0.8593 0.81038 0.0
C659 C 0.24339 0.84018 0.81537 0.0
C660 C 0.19948 0.85812 0.81664 0.0
C661 C 0.18483 0.83741 0.82795 0.0
C662 C 0.20017 0.81846 0.83294 0.0
C663 C 0.22923 0.82005 0.82679 0.0
H664 H 0.12922 0.22351 0.83197 0.0
H665 H 0.21066 0.29787 0.85759 0.0
H666 H 0.12549 0.27114 0.82142 0.0
H667 H 0.2079 0.34554 0.84677 0.0
H668 H 0.17071 0.41998 0.83475 0.0
H669 H 0.17132 0.37058 0.84522 0.0
H670 H 0.15494 0.32001 0.80736 0.0
H671 H 0.1529 0.36842 0.79703 0.0
C672 C 0.14681 0.25008 0.83517 0.0
C673 C 0.17018 0.25689 0.84563 0.0
C674 C 0.14468 0.27743 0.82913 0.0
C675 C 0.16614 0.31223 0.83333 0.0
C676 C 0.19033 0.31904 0.8435 0.0
C677 C 0.19219 0.29171 0.84961 0.0
C678 C 0.16687 0.39814 0.8287 0.0
C679 C 0.16181 0.39828 0.81505 0.0
C680 C 0.16754 0.36993 0.83468 0.0
C681 C 0.16353 0.34139 0.82712 0.0
C682 C 0.1577 0.34125 0.81353 0.0
C683 C 0.15667 0.36922 0.80759 0.0
H684 H 0.75831 0.63479 0.6921 0.0
H685 H 0.75233 0.56092 0.66285 0.0
H686 H 0.80955 0.68119 0.68117 0.0
H687 H 0.80444 0.60714 0.65215 0.0
H688 H 0.9218 0.7477 0.66793 0.0
H689 H 0.86974 0.70013 0.67809 0.0
H690 H 0.82739 0.65932 0.63957 0.0
H691 H 0.87989 0.70602 0.62944 0.0
C692 C 0.7679 0.62845 0.6833 0.0
C693 C 0.75121 0.59411 0.67835 0.0
C694 C 0.79754 0.65503 0.6771 0.0
C695 C 0.81152 0.6479 0.66586 0.0
C696 C 0.79426 0.61371 0.66071 0.0
C697 C 0.76435 0.58716 0.66685 0.0
C698 C 0.90151 0.72843 0.66163 0.0
C699 C 0.9051 0.73078 0.64787 0.0
C700 C 0.87147 0.70128 0.66745 0.0
C701 C 0.8441 0.676 0.65966 0.0
C702 C 0.84802 0.67803 0.6459 0.0
C703 C 0.87817 0.70497 0.64009 0.0
H704 H 0.3666 0.12936 0.69235 0.0
H705 H 0.44082 0.20388 0.66466 0.0
H706 H 0.31933 0.13229 0.68124 0.0
H707 H 0.39367 0.20774 0.65381 0.0
H708 H 0.29597 0.17968 0.62976 0.0
H709 H 0.34343 0.17661 0.64043 0.0
H710 H 0.29668 0.17095 0.67839 0.0
H711 H 0.24815 0.17269 0.66764 0.0
C712 C 0.37283 0.14633 0.68386 0.0
C713 C 0.40751 0.16637 0.67938 0.0
C714 C 0.34574 0.14828 0.67757 0.0
C715 C 0.35267 0.17057 0.66672 0.0
C716 C 0.38727 0.19002 0.66206 0.0
C717 C 0.41436 0.18781 0.66828 0.0
C718 C 0.29578 0.17801 0.6404 0.0
C719 C 0.26805 0.17632 0.64784 0.0
C720 C 0.32322 0.1764 0.64653 0.0
C721 C 0.3239 0.17338 0.66027 0.0
C722 C 0.29665 0.17259 0.66776 0.0
C723 C 0.26897 0.17391 0.66161 0.0
H724 H 0.84032 0.21968 0.7 0.0
H725 H 0.8313 0.25818 0.66192 0.0
H726 H 0.83819 0.16924 0.68963 0.0
H727 H 0.83067 0.20817 0.65142 0.0
H728 H 0.79457 0.0972 0.63774 0.0
H729 H 0.79517 0.14691 0.64838 0.0
H730 H 0.87046 0.15139 0.6767 0.0
H731 H 0.86871 0.10087 0.66639 0.0
C732 C 0.83841 0.21769 0.68937 0.0
C733 C 0.83602 0.24309 0.68179 0.0
C734 C 0.83732 0.18871 0.6834 0.0
C735 C 0.83428 0.1845 0.66967 0.0
C736 C 0.83241 0.21018 0.66205 0.0
C737 C 0.83306 0.23905 0.66805 0.0
C738 C 0.81101 0.10862 0.64631 0.0
C739 C 0.83148 0.09495 0.65125 0.0
C740 C 0.81162 0.13738 0.65235 0.0
C741 C 0.83302 0.15342 0.66337 0.0
C742 C 0.85322 0.13945 0.66836 0.0
C743 C 0.85227 0.11045 0.66243 0.0
H744 H 0.0329 0.56755 0.52478 0.0
H745 H 0.10889 0.57111 0.49705 0.0
H746 H 0.98702 0.51637 0.51366 0.0
H747 H 0.06305 0.51915 0.48614 0.0
H748 H 0.96468 0.44733 0.4621 0.0
H749 H 0.01204 0.49823 0.47275 0.0
H750 H 0.96723 0.4555 0.5108 0.0
H751 H 0.91903 0.40495 0.50012 0.0
C752 C 0.03984 0.55745 0.51629 0.0
C753 C 0.07462 0.57348 0.51181 0.0
C754 C 0.01354 0.52784 0.50998 0.0
C755 C 0.02136 0.5133 0.4991 0.0
C756 C 0.05601 0.52979 0.49443 0.0
C757 C 0.08233 0.55962 0.50069 0.0
C758 C 0.96498 0.44854 0.47275 0.0
C759 C 0.93779 0.42205 0.48024 0.0
C760 C 0.99232 0.47778 0.47887 0.0
C761 C 0.99334 0.4812 0.49263 0.0
C762 C 0.96687 0.4541 0.50015 0.0
C763 C 0.93936 0.42492 0.49403 0.0
H764 H 0.40846 0.50216 0.49469 0.0
H765 H 0.44631 0.48717 0.53199 0.0
H766 H 0.45792 0.50292 0.48359 0.0
H767 H 0.49612 0.48958 0.52109 0.0
H768 H 0.56538 0.463 0.497 0.0
H769 H 0.51402 0.45922 0.50737 0.0
H770 H 0.51915 0.53794 0.48065 0.0
H771 H 0.56965 0.54043 0.46987 0.0
C772 C 0.42726 0.49902 0.50051 0.0
C773 C 0.42325 0.49444 0.51422 0.0
C774 C 0.45582 0.49977 0.49418 0.0
C775 C 0.48119 0.49639 0.50143 0.0
C776 C 0.47689 0.49158 0.51511 0.0
C777 C 0.44824 0.49036 0.52139 0.0
C778 C 0.55573 0.47971 0.49341 0.0
C779 C 0.5717 0.50211 0.48265 0.0
C780 C 0.52623 0.4776 0.49937 0.0
C781 C 0.51229 0.49828 0.49488 0.0
C782 C 0.52866 0.52111 0.48423 0.0
C783 C 0.55787 0.52283 0.47813 0.0
H784 H 0.52367 0.10291 0.50128 0.0
H785 H 0.45419 0.03037 0.47204 0.0
H786 H 0.52793 0.05583 0.51189 0.0
H787 H 0.45699 0.98278 0.48302 0.0
H788 H 0.49717 0.91174 0.49716 0.0
H789 H 0.49422 0.95974 0.48651 0.0
H790 H 0.49883 0.00551 0.52462 0.0
H791 H 0.50351 0.95879 0.53511 0.0
C792 C 0.50861 0.07671 0.4973 0.0
C793 C 0.48854 0.07038 0.48584 0.0
C794 C 0.51103 0.0496 0.5034 0.0
C795 C 0.49295 0.01534 0.4983 0.0
C796 C 0.47194 0.00888 0.48706 0.0
C797 C 0.46998 0.03611 0.48085 0.0
C798 C 0.4979 0.93227 0.50323 0.0
C799 C 0.50075 0.93144 0.51698 0.0
C800 C 0.49585 0.95966 0.49714 0.0
C801 C 0.49608 0.98658 0.50468 0.0
C802 C 0.49919 0.98573 0.51843 0.0
C803 C 0.50176 0.95873 0.52447 0.0
H804 H 0.42955 0.96434 0.02675 0.0
H805 H 0.42992 0.89005 -0.00086 0.0
H806 H 0.48106 0.01123 0.01614 0.0
H807 H 0.48222 0.93688 0.98876 0.0
H808 H 0.55486 0.03619 0.96547 0.0
H809 H 0.50356 0.98802 0.97556 0.0
H810 H 0.54228 0.03242 0.01402 0.0
H811 H 0.59322 0.08149 0.00387 0.0
C812 C 0.44058 0.95801 0.01839 0.0
C813 C 0.42557 0.9234 0.01379 0.0
C814 C 0.47038 0.98488 0.01238 0.0
C815 C 0.48615 0.97783 0.0017 0.0
C816 C 0.47064 0.94334 0.9969 0.0
C817 C 0.4406 0.91646 0.00284 0.0
C818 C 0.5527 0.03563 0.97609 0.0
C819 C 0.57817 0.06296 0.98385 0.0
C820 C 0.52322 0.00782 0.98189 0.0
C821 C 0.51853 0.00643 0.9956 0.0
C822 C 0.54465 0.03305 0.0034 0.0
C823 C 0.57406 0.06105 0.99759 0.0
H824 H 0.89963 0.47241 -0.00027 0.0
H825 H 0.97069 0.54055 0.96985 0.0
H826 H 0.94679 0.46731 0.00976 0.0
H827 H 0.01856 0.53699 0.98029 0.0
H828 H 0.09079 0.4983 0.99503 0.0
H829 H 0.04254 0.50058 0.9842 0.0
H830 H 0.99715 0.49774 0.02223 0.0
H831 H 0.04393 0.49367 0.03288 0.0
C832 C 0.92553 0.48686 0.99545 0.0
C833 C 0.93145 0.50704 0.98404 0.0
C834 C 0.9527 0.48402 0.00122 0.0
C835 C 0.9867 0.50183 0.99589 0.0
C836 C 0.99267 0.52238 0.98455 0.0
C837 C 0.9653 0.52474 0.97864 0.0
C838 C 0.07026 0.49781 0.00103 0.0
C839 C 0.07113 0.49552 0.01481 0.0
C840 C 0.04273 0.49944 0.99484 0.0
C841 C 0.01577 0.49933 0.00231 0.0
C842 C 0.01685 0.49707 0.01609 0.0
C843 C 0.04392 0.49489 0.02223 0.0
H844 H 0.48651 0.44949 0.96209 0.0
H845 H 0.49003 0.40837 0.00035 0.0
H846 H 0.4907 0.50101 0.97245 0.0
H847 H 0.49305 0.45954 0.01074 0.0
H848 H 0.53818 0.57125 0.02449 0.0
H849 H 0.53395 0.52052 0.01338 0.0
H850 H 0.4604 0.52205 0.98567 0.0
H851 H 0.46544 0.57356 0.99658 0.0
C852 C 0.48766 0.45114 0.97273 0.0
C853 C 0.48812 0.42476 0.98038 0.0
C854 C 0.48994 0.48073 0.97868 0.0
C855 C 0.49252 0.48464 0.99243 0.0
C856 C 0.49188 0.45776 0.0001 0.0
C857 C 0.48982 0.42823 0.99415 0.0
C858 C 0.52135 0.56101 0.01595 0.0
C859 C 0.5021 0.57647 0.01144 0.0
C860 C 0.51865 0.53166 0.00965 0.0
C861 C 0.49644 0.51683 0.99874 0.0
C862 C 0.47796 0.53291 0.99399 0.0
C863 C 0.48086 0.56249 0.00024 0.0
H864 H 0.28245 0.05477 0.08229 0.0
H865 H 0.28952 0.99561 0.11481 0.0
H866 H 0.32248 0.04283 0.06955 0.0
H867 H 0.32838 0.98305 0.10216 0.0
H868 H 0.395 0.95804 0.07856 0.0
H869 H 0.3814 0.9979 0.09054 0.0
H870 H 0.30996 0.98836 0.05957 0.0
H871 H 0.32416 0.94969 0.0476 0.0
C872 C 0.29322 0.03999 0.08682 0.0
C873 C 0.28231 0.02545 0.0994 0.0
C874 C 0.316 0.03301 0.07953 0.0
C875 C 0.32825 0.0115 0.08474 0.0
C876 C 0.31978 0.99987 0.09781 0.0
C877 C 0.29707 0.00674 0.10503 0.0
C878 C 0.37721 0.96536 0.07418 0.0
C879 C 0.36003 0.95017 0.06231 0.0
C880 C 0.3693 0.98806 0.08105 0.0
C881 C 0.34413 0.99591 0.07613 0.0
C882 C 0.3296 0.9832 0.06365 0.0
C883 C 0.33745 0.96059 0.05684 0.0
H884 H 0.04186 0.43429 0.07965 0.0
H885 H 0.04821 0.37086 0.04861 0.0
H886 H 0.00168 0.38113 0.09176 0.0
H887 H 0.00927 0.31831 0.0607 0.0
H888 H 0.00236 0.29063 0.11594 0.0
H889 H 0.01546 0.34226 0.10333 0.0
H890 H 0.95484 0.27701 0.07076 0.0
H891 H 0.9424 0.22482 0.08345 0.0
C892 C 0.03408 0.40905 0.07529 0.0
C893 C 0.04876 0.4067 0.06335 0.0
C894 C 0.01118 0.3786 0.08222 0.0
C895 C 0.00263 0.34539 0.07731 0.0
C896 C 0.01494 0.34326 0.06479 0.0
C897 C 0.03772 0.37353 0.0579 0.0
C898 C 0.99114 0.28719 0.10619 0.0
C899 C 0.97208 0.25375 0.10054 0.0
C900 C 0.99833 0.31691 0.09898 0.0
C901 C 0.98667 0.31391 0.08593 0.0
C902 C 0.96473 0.28022 0.08072 0.0
C903 C 0.95744 0.25033 0.08799 0.0
H904 H 0.566 0.60279 0.07633 0.0
H905 H 0.62873 0.67675 0.0462 0.0
H906 H 0.61932 0.61618 0.08838 0.0
H907 H 0.68146 0.69074 0.05825 0.0
H908 H 0.7751 0.71759 0.08116 0.0
H909 H 0.72375 0.67828 0.06797 0.0
H910 H 0.65656 0.66823 0.10063 0.0
H911 H 0.70736 0.70641 0.11371 0.0
C912 C 0.59115 0.62125 0.07214 0.0
C913 C 0.59319 0.6393 0.06049 0.0
C914 C 0.62169 0.62904 0.07904 0.0
C915 C 0.65471 0.65498 0.0744 0.0
C916 C 0.65666 0.67049 0.06212 0.0
C917 C 0.62628 0.66275 0.05526 0.0
C918 C 0.74937 0.70604 0.0856 0.0
C919 C 0.74512 0.71559 0.09834 0.0
C920 C 0.71996 0.68368 0.07804 0.0
C921 C 0.68594 0.67049 0.08316 0.0
C922 C 0.6822 0.67758 0.09635 0.0
C923 C 0.71142 0.69989 0.10383 0.0
H924 H 0.94588 0.39193 0.41064 0.0
H925 H 0.96219 0.34248 0.44441 0.0
H926 H 0.98495 0.37902 0.39766 0.0
H927 H 0.9997 0.32861 0.43161 0.0
H928 H 0.05943 0.29581 0.40781 0.0
H929 H 0.04849 0.33854 0.41899 0.0
H930 H 0.97295 0.32437 0.389 0.0
H931 H 0.98489 0.28331 0.37773 0.0
C932 C 0.95858 0.37924 0.41537 0.0
C933 C 0.95042 0.36744 0.4284 0.0
C934 C 0.98073 0.37157 0.40795 0.0
C935 C 0.99494 0.35202 0.41348 0.0
C936 C 0.98955 0.34375 0.42694 0.0
C937 C 0.96758 0.35137 0.43428 0.0
C938 C 0.0412 0.30261 0.40348 0.0
C939 C 0.02238 0.28556 0.39209 0.0
C940 C 0.03481 0.327 0.40988 0.0
C941 C 0.00931 0.33452 0.40505 0.0
C942 C 0.99292 0.31964 0.39302 0.0
C943 C 0.99944 0.29556 0.38662 0.0
H944 H 0.60398 0.56429 0.41799 0.0
H945 H 0.67399 0.62809 0.44892 0.0
H946 H 0.61554 0.61732 0.40612 0.0
H947 H 0.68624 0.68051 0.43706 0.0
H948 H 0.71213 0.7739 0.41473 0.0
H949 H 0.67231 0.72142 0.42729 0.0
H950 H 0.66737 0.65692 0.3944 0.0
H951 H 0.70593 0.70883 0.38194 0.0
C952 C 0.62123 0.58957 0.42237 0.0
C953 C 0.63875 0.59208 0.4342 0.0
C954 C 0.62794 0.61994 0.41558 0.0
C955 C 0.65227 0.65326 0.42052 0.0
C956 C 0.66719 0.65548 0.43295 0.0
C957 C 0.6605 0.62528 0.4397 0.0
C958 C 0.70149 0.7485 0.41009 0.0
C959 C 0.71271 0.74531 0.39751 0.0
C960 C 0.67887 0.71843 0.41728 0.0
C961 C 0.66716 0.68485 0.41196 0.0
C962 C 0.67561 0.68216 0.39884 0.0
C963 C 0.69814 0.71203 0.39172 0.0
H964 H 0.37636 0.04262 0.44988 0.0
H965 H 0.4403 0.04889 0.4167 0.0
H966 H 0.32392 0.0055 0.4374 0.0
H967 H 0.38725 0.01067 0.40408 0.0
H968 H 0.29357 0.01382 0.38319 0.0
H969 H 0.34633 0.02607 0.39486 0.0
H970 H 0.28387 0.9537 0.42551 0.0
H971 H 0.23054 0.942 0.41383 0.0
C972 C 0.37916 0.03512 0.44 0.0
C973 C 0.41232 0.0492 0.43414 0.0
C974 C 0.349 0.01346 0.43286 0.0
C975 C 0.35125 0.00547 0.41964 0.0
C976 C 0.38463 0.01683 0.41418 0.0
C977 C 0.41501 0.0385 0.42141 0.0
C978 C 0.291 1.00001 0.39231 0.0
C979 C 0.2579 0.97758 0.39776 0.0
C980 C 0.32139 0.0067 0.39894 0.0
C981 C 0.31945 0.99117 0.41121 0.0
C982 C 0.28626 0.96649 0.41616 0.0
C983 C 0.25572 0.95972 0.40947 0.0
H984 H 0.719 0.0126 0.88203 0.0
H985 H 0.70804 0.94068 0.91296 0.0
H986 H 0.67976 0.02679 0.89358 0.0
H987 H 0.66754 0.95424 0.9245 0.0
H988 H 0.66759 0.04473 0.94876 0.0
H989 H 0.68133 0.00661 0.93623 0.0
H990 H 0.62461 0.01433 0.90291 0.0
H991 H 0.61142 0.05367 0.91559 0.0
C992 C 0.70747 0.99913 0.89118 0.0
C993 C 0.71728 0.97617 0.89677 0.0
C994 C 0.68451 0.00696 0.89774 0.0
C995 C 0.67077 0.99204 0.91008 0.0
C996 C 0.67815 0.96665 0.91511 0.0
C997 C 0.70124 0.95877 0.9085 0.0
C998 C 0.65738 0.03774 0.93884 0.0
C999 C 0.63913 0.05278 0.93303 0.0
C1000 C 0.66491 0.01544 0.93168 0.0
C1001 C 0.65449 0.00767 0.91847 0.0
C1002 C 0.63349 0.02026 0.91301 0.0
C1003 C 0.62577 0.04261 0.92026 0.0
H1004 H 0.95994 0.62693 0.94895 0.0
H1005 H 0.94906 0.55907 0.91649 0.0
H1006 H 0.99825 0.67765 0.93588 0.0
H1007 H 0.98862 0.61034 0.90331 0.0
H1008 H 0.99077 0.70505 0.88122 0.0
H1009 H 0.97664 0.65248 0.89339 0.0
H1010 H 0.05011 0.71502 0.92375 0.0
H1011 H 0.06355 0.76819 0.91159 0.0
C1012 C 0.96656 0.62283 0.93909 0.0
C1013 C 0.95087 0.58912 0.93362 0.0
C1014 C 0.98896 0.65202 0.93161 0.0
C1015 C 0.99621 0.64823 0.91845 0.0
C1016 C 0.98308 0.61419 0.91336 0.0
C1017 C 0.96058 0.58481 0.92091 0.0
C1018 C 0.00448 0.70764 0.89037 0.0
C1019 C 0.02761 0.74079 0.89562 0.0
C1020 C 0.99666 0.67734 0.8973 0.0
C1021 C 0.01182 0.67943 0.90967 0.0
C1022 C 0.03748 0.71253 0.91435 0.0
C1023 C 0.0453 0.74299 0.90738 0.0
H1024 H 0.44648 0.39034 0.91105 0.0
H1025 H 0.38045 0.3447 0.94507 0.0
H1026 H 0.39483 0.37779 0.89792 0.0
H1027 H 0.32934 0.3314 0.93213 0.0
H1028 H 0.23735 0.29961 0.90814 0.0
H1029 H 0.2917 0.34261 0.91888 0.0
H1030 H 0.35113 0.3218 0.89008 0.0
H1031 H 0.29746 0.28023 0.87925 0.0
C1032 C 0.42112 0.37863 0.91579 0.0
C1033 C 0.41723 0.3677 0.92895 0.0
C1034 C 0.39151 0.37121 0.90829 0.0
C1035 C 0.35775 0.35288 0.91389 0.0
C1036 C 0.35471 0.34561 0.92743 0.0
C1037 C 0.38408 0.35288 0.93486 0.0
C1038 C 0.26213 0.30501 0.90395 0.0
C1039 C 0.26315 0.28592 0.89308 0.0
C1040 C 0.29327 0.32957 0.9101 0.0
C1041 C 0.32587 0.3353 0.90549 0.0
C1042 C 0.32672 0.31843 0.89389 0.0
C1043 C 0.29576 0.29409 0.88777 0.0
H1044 H 0.94179 0.71737 0.58047 0.0
H1045 H 0.99641 0.70429 0.61327 0.0
H1046 H 0.95354 0.67787 0.56729 0.0
H1047 H 0.00892 0.6661 0.60021 0.0
H1048 H 0.035 0.60149 0.57598 0.0
H1049 H 0.9948 0.61477 0.58787 0.0
H1050 H 0.00777 0.68943 0.55771 0.0
H1051 H 0.04662 0.67543 0.54578 0.0
C1052 C 0.9555 0.70539 0.58496 0.0
C1053 C 0.96886 0.71447 0.59778 0.0
C1054 C 0.96242 0.68294 0.57741 0.0
C1055 C 0.98272 0.66922 0.5826 0.0
C1056 C 0.99305 0.67584 0.59585 0.0
C1057 C 0.98621 0.69818 0.60333 0.0
C1058 C 0.02836 0.61994 0.57174 0.0
C1059 C 0.04455 0.63801 0.56012 0.0
C1060 C 0.00547 0.62769 0.57857 0.0
C1061 C 0.9985 0.65366 0.57388 0.0
C1062 C 0.01223 0.66917 0.56162 0.0
C1063 C 0.03495 0.66141 0.55483 0.0
H1064 H 0.28157 0.222 0.57871 0.0
H1065 H 0.29792 0.28542 0.6132 0.0
H1066 H 0.32032 0.27488 0.56611 0.0
H1067 H 0.33542 0.33776 0.60077 0.0
H1068 H 0.39592 0.43164 0.57728 0.0
H1069 H 0.38471 0.37722 0.58796 0.0
H1070 H 0.30654 0.3178 0.55848 0.0
H1071 H 0.31843 0.37151 0.54776 0.0
C1072 C 0.29432 0.24707 0.58368 0.0
C1073 C 0.28622 0.24982 0.59681 0.0
C1074 C 0.31628 0.27738 0.57647 0.0
C1075 C 0.33042 0.31073 0.58234 0.0
C1076 C 0.32524 0.31274 0.59588 0.0
C1077 C 0.30335 0.28265 0.603 0.0
C1078 C 0.377 0.40686 0.57295 0.0
C1079 C 0.35747 0.40584 0.56188 0.0
C1080 C 0.3705 0.37569 0.57906 0.0
C1081 C 0.34436 0.34303 0.5742 0.0
C1082 C 0.32707 0.34225 0.56248 0.0
C1083 C 0.33356 0.37323 0.55641 0.0
H1084 H 0.70682 0.98849 0.61752 0.0
H1085 H 0.7693 0.0594 0.58656 0.0
H1086 H 0.65387 0.97465 0.6056 0.0
H1087 H 0.71581 0.04598 0.57462 0.0
H1088 H 0.62343 0.95546 0.55063 0.0
H1089 H 0.67604 0.99248 0.5631 0.0
H1090 H 0.61302 0.99027 0.59605 0.0
H1091 H 0.55987 0.95232 0.58349 0.0
C1092 C 0.7092 0.00176 0.60828 0.0
C1093 C 0.74222 0.02446 0.60283 0.0
C1094 C 0.67873 0.99413 0.6015 0.0
C1095 C 0.68055 0.00895 0.58908 0.0
C1096 C 0.71358 0.03379 0.5841 0.0
C1097 C 0.74419 0.04155 0.59093 0.0
C1098 C 0.62074 0.9635 0.56043 0.0
C1099 C 0.58759 0.95044 0.5662 0.0
C1100 C 0.65099 0.98509 0.56755 0.0
C1101 C 0.6488 0.99402 0.58064 0.0
C1102 C 0.61554 0.98341 0.58603 0.0
C1103 C 0.58513 0.96185 0.57884 0.0
H1104 H 0.65855 0.62399 0.7137 0.0
H1105 H 0.72911 0.62889 0.74415 0.0
H1106 H 0.64741 0.66453 0.72581 0.0
H1107 H 0.71879 0.67087 0.75627 0.0
H1108 H 0.63029 0.67279 0.78128 0.0
H1109 H 0.66811 0.65942 0.76838 0.0
H1110 H 0.66115 0.71872 0.73581 0.0
H1111 H 0.62194 0.73131 0.74883 0.0
C1112 C 0.67246 0.63452 0.72286 0.0
C1113 C 0.69399 0.62255 0.72815 0.0
C1114 C 0.6664 0.65826 0.72975 0.0
C1115 C 0.68175 0.67068 0.74215 0.0
C1116 C 0.70601 0.66129 0.74685 0.0
C1117 C 0.71207 0.63737 0.73991 0.0
C1118 C 0.63748 0.68372 0.77147 0.0
C1119 C 0.6225 0.70234 0.76593 0.0
C1120 C 0.65961 0.67637 0.76408 0.0
C1121 C 0.66729 0.68743 0.75093 0.0
C1122 C 0.65519 0.70922 0.74583 0.0
C1123 C 0.63294 0.71665 0.75329 0.0
H1124 H 0.37324 0.10357 0.7448 0.0
H1125 H 0.38136 0.04169 0.71356 0.0
H1126 H 0.33357 0.04985 0.75672 0.0
H1127 H 0.34274 0.98855 0.72544 0.0
H1128 H 0.27587 0.89426 0.74811 0.0
H1129 H 0.28787 0.94653 0.73555 0.0
H1130 H 0.34955 0.01161 0.76796 0.0
H1131 H 0.33711 0.95988 0.78042 0.0
C1132 C 0.36586 0.07854 0.74034 0.0
C1133 C 0.38098 0.07678 0.72842 0.0
C1134 C 0.34327 0.04779 0.74716 0.0
C1135 C 0.3354 0.01489 0.74213 0.0
C1136 C 0.34796 0.01329 0.7296 0.0
C1137 C 0.37052 0.04388 0.72284 0.0
C1138 C 0.29113 0.91975 0.75264 0.0
C1139 C 0.3062 0.92311 0.7651 0.0
C1140 C 0.2981 0.94967 0.74545 0.0
C1141 C 0.32006 0.98331 0.75068 0.0
C1142 C 0.33234 0.98625 0.76363 0.0
C1143 C 0.32555 0.95652 0.77074 0.0
H1144 H 0.95982 0.3455 0.71475 0.0
H1145 H 0.89596 0.27867 0.74638 0.0
H1146 H 0.01227 0.35766 0.72664 0.0
H1147 H 0.94894 0.29031 0.75831 0.0
H1148 H 0.10542 0.37913 0.74894 0.0
H1149 H 0.05173 0.34118 0.73666 0.0
H1150 H 0.99021 0.34385 0.76928 0.0
H1151 H 0.04329 0.38077 0.78148 0.0
C1152 C 0.95699 0.33271 0.72414 0.0
C1153 C 0.92382 0.3118 0.72979 0.0
C1154 C 0.98716 0.33935 0.73091 0.0
C1155 C 0.98488 0.32528 0.74351 0.0
C1156 C 0.95155 0.30195 0.74869 0.0
C1157 C 0.92123 0.29521 0.74186 0.0
C1158 C 0.08034 0.37069 0.75358 0.0
C1159 C 0.07847 0.38346 0.76602 0.0
C1160 C 0.04963 0.3491 0.74655 0.0
C1161 C 0.01667 0.33988 0.75191 0.0
C1162 C 0.015 0.35015 0.76485 0.0
C1163 C 0.04555 0.37172 0.77181 0.0
H1164 H 0.38354 0.34641 0.21371 0.0
H1165 H 0.3731 0.27317 0.24402 0.0
H1166 H 0.34483 0.36038 0.22574 0.0
H1167 H 0.33315 0.28655 0.25607 0.0
H1168 H 0.33487 0.37712 0.28105 0.0
H1169 H 0.34741 0.33858 0.26819 0.0
H1170 H 0.29006 0.34767 0.23538 0.0
H1171 H 0.27822 0.38743 0.24834 0.0
C1172 C 0.37223 0.33261 0.22282 0.0
C1173 C 0.38203 0.30934 0.22809 0.0
C1174 C 0.34957 0.34031 0.22967 0.0
C1175 C 0.33614 0.32494 0.24198 0.0
C1176 C 0.34351 0.29928 0.2467 0.0
C1177 C 0.36629 0.29152 0.2398 0.0
C1178 C 0.32426 0.37033 0.27118 0.0
C1179 C 0.30634 0.38597 0.26557 0.0
C1180 C 0.3311 0.3478 0.26383 0.0
C1181 C 0.32024 0.34039 0.25065 0.0
C1182 C 0.29934 0.35338 0.24544 0.0
C1183 C 0.2924 0.376 0.25286 0.0
H1184 H 0.62475 0.8977 0.25024 0.0
H1185 H 0.62537 0.96149 0.28256 0.0
H1186 H 0.66538 0.95075 0.23815 0.0
H1187 H 0.66443 0.0139 0.27051 0.0
H1188 H 0.72814 0.10771 0.24748 0.0
H1189 H 0.71664 0.05508 0.25971 0.0
H1190 H 0.65266 0.99082 0.22752 0.0
H1191 H 0.665 0.04273 0.21537 0.0
C1192 C 0.6342 0.92295 0.25488 0.0
C1193 C 0.62123 0.92553 0.26718 0.0
C1194 C 0.65731 0.95337 0.24795 0.0
C1195 C 0.66768 0.98675 0.25322 0.0
C1196 C 0.65732 0.98889 0.2661 0.0
C1197 C 0.63442 0.95868 0.27297 0.0
C1198 C 0.71252 0.0823 0.24293 0.0
C1199 C 0.69676 0.07924 0.23064 0.0
C1200 C 0.70576 0.05214 0.24993 0.0
C1201 C 0.68317 0.01855 0.24472 0.0
C1202 C 0.67032 0.01599 0.23188 0.0
C1203 C 0.67703 0.04592 0.22495 0.0
H1204 H 0.96005 0.62364 0.21594 0.0
H1205 H 0.89432 0.61876 0.24829 0.0
H1206 H 0.0118 0.66122 0.22873 0.0
H1207 H 0.94661 0.65735 0.26117 0.0
H1208 H 0.04016 0.65716 0.28346 0.0
H1209 H 0.98764 0.64306 0.2712 0.0
H1210 H 0.0506 0.71441 0.24039 0.0
H1211 H 0.10368 0.72803 0.25267 0.0
C1212 C 0.95669 0.63141 0.2257 0.0
C1213 C 0.92319 0.61768 0.23123 0.0
C1214 C 0.98645 0.65335 0.233 0.0
C1215 C 0.98345 0.662 0.24606 0.0
C1216 C 0.94979 0.65072 0.2512 0.0
C1217 C 0.91986 0.62879 0.24382 0.0
C1218 C 0.04286 0.67041 0.27418 0.0
C1219 C 0.07607 0.69312 0.26888 0.0
C1220 C 0.01261 0.66261 0.2672 0.0
C1221 C 0.01484 0.67728 0.25472 0.0
C1222 C 0.04803 0.70227 0.2499 0.0
C1223 C 0.07842 0.71017 0.25694 0.0
H1224 H 0.05083 0.15786 0.13651 0.0
H1225 H 0.05922 0.17213 0.09431 0.0
H1226 H 0.08293 0.12621 0.13519 0.0
H1227 H 0.09211 0.14097 0.09312 0.0
H1228 H 0.17936 0.10632 0.1074 0.0
H1229 H 0.15409 0.14478 0.10519 0.0
H1230 H 0.05644 0.0633 0.12105 0.0
H1231 H 0.08088 0.02488 0.123 0.0
C1232 C 0.06013 0.15491 0.127 0.0
C1233 C 0.05201 0.16697 0.1155 0.0
C1234 C 0.07847 0.13681 0.12626 0.0
C1235 C 0.08959 0.13104 0.11404 0.0
C1236 C 0.08377 0.14522 0.10263 0.0
C1237 C 0.06492 0.16292 0.10334 0.0
C1238 C 0.15221 0.09636 0.11003 0.0
C1239 C 0.13228 0.06282 0.11558 0.0
C1240 C 0.13792 0.11839 0.10885 0.0
C1241 C 0.10372 0.10706 0.11326 0.0
C1242 C 0.08312 0.07274 0.11784 0.0
C1243 C 0.09714 0.0508 0.11892 0.0
H1244 H 0.97144 0.05192 0.12443 0.0
H1245 H 0.89144 0.06984 0.10793 0.0
H1246 H 0.93282 0.98918 0.12233 0.0
H1247 H 0.85276 0.00616 0.10555 0.0
H1248 H 0.82515 0.88475 0.09412 0.0
H1249 H 0.85623 0.94887 0.09355 0.0
H1250 H 0.86995 0.95157 0.13565 0.0
H1251 H 0.83837 0.88772 0.13634 0.0
C1252 C 0.94578 0.0425 0.12014 0.0
C1253 C 0.93425 0.06586 0.11656 0.0
C1254 C 0.92369 0.00656 0.11899 0.0
C1255 C 0.8897 0.99307 0.11408 0.0
C1256 C 0.87887 0.01618 0.10948 0.0
C1257 C 0.90103 0.05249 0.11076 0.0
C1258 C 0.83412 0.89904 0.1033 0.0
C1259 C 0.8298 0.88124 0.11527 0.0
C1260 C 0.85176 0.93564 0.10294 0.0
C1261 C 0.86567 0.95488 0.11453 0.0
C1262 C 0.85959 0.93712 0.12657 0.0
C1263 C 0.84152 0.90062 0.12696 0.0
H1264 H 0.94472 0.91421 0.12679 0.0
H1265 H 0.92743 0.8205 0.1067 0.0
H1266 H 0.00748 0.93897 0.12459 0.0
H1267 H 0.99116 0.84616 0.10429 0.0
H1268 H 0.11206 0.93909 0.0942 0.0
H1269 H 0.04792 0.90645 0.09375 0.0
H1270 H 0.04592 0.91426 0.13603 0.0
H1271 H 0.10972 0.94622 0.13658 0.0
C1272 C 0.95428 0.89901 0.12175 0.0
C1273 C 0.93105 0.86505 0.11714 0.0
C1274 C 0.99025 0.91323 0.12054 0.0
C1275 C 0.00397 0.89407 0.11457 0.0
C1276 C 0.981 0.86122 0.10904 0.0
C1277 C 0.94466 0.84668 0.11036 0.0
C1278 C 0.09791 0.93317 0.10342 0.0
C1279 C 0.1159 0.94567 0.11542 0.0
C1280 C 0.06128 0.91446 0.10313 0.0
C1281 C 0.04221 0.90836 0.11482 0.0
C1282 C 0.06018 0.91904 0.12687 0.0
C1283 C 0.09667 0.93727 0.12718 0.0
H1284 H 0.10918 0.18296 0.38757 0.0
H1285 H 0.02145 0.08167 0.3777 0.0
H1286 H 0.14559 0.15574 0.39098 0.0
H1287 H 0.05775 0.0551 0.38088 0.0
H1288 H 0.15051 0.04573 0.36299 0.0
H1289 H 0.11994 0.07892 0.36424 0.0
H1290 H 0.13862 0.09204 0.40606 0.0
H1291 H 0.16879 0.05808 0.40495 0.0
C1292 C 0.09742 0.15488 0.38656 0.0
C1293 C 0.06267 0.13449 0.3822 0.0
C1294 C 0.11825 0.13942 0.38843 0.0
C1295 C 0.10441 0.10356 0.38594 0.0
C1296 C 0.06899 0.08288 0.38268 0.0
C1297 C 0.04829 0.09813 0.38089 0.0
C1298 C 0.14858 0.05602 0.37243 0.0
C1299 C 0.16172 0.04896 0.38389 0.0
C1300 C 0.13112 0.07501 0.37313 0.0
C1301 C 0.127 0.08781 0.38524 0.0
C1302 C 0.1417 0.08249 0.39661 0.0
C1303 C 0.1588 0.06302 0.39595 0.0
H1304 H 0.94963 0.10772 0.35887 0.0
H1305 H 0.9367 0.11657 0.4006 0.0
H1306 H 0.91715 0.04407 0.3608 0.0
H1307 H 0.90344 0.05259 0.4024 0.0
H1308 H 0.8166 0.92998 0.38834 0.0
H1309 H 0.84234 0.99392 0.38987 0.0
H1310 H 0.94137 0.00808 0.37654 0.0
H1311 H 0.91645 0.94506 0.37527 0.0
C1312 C 0.93928 0.09614 0.36839 0.0
C1313 C 0.94616 0.11714 0.37961 0.0
C1314 C 0.92073 0.05976 0.36949 0.0
C1315 C 0.90814 0.0437 0.38176 0.0
C1316 C 0.91288 0.06451 0.39284 0.0
C1317 C 0.93195 0.10103 0.39179 0.0
C1318 C 0.84409 0.94678 0.38612 0.0
C1319 C 0.86434 0.93254 0.38147 0.0
C1320 C 0.85868 0.98323 0.38692 0.0
C1321 C 0.89349 0.00558 0.38301 0.0
C1322 C 0.91426 0.99126 0.37934 0.0
C1323 C 0.89994 0.95518 0.37866 0.0
H1324 H 0.05745 0.96871 0.39046 0.0
H1325 H 0.06416 0.87808 0.37915 0.0
H1326 H 0.99407 0.93193 0.39326 0.0
H1327 H 0.00037 0.84128 0.3815 0.0
H1328 H 0.88773 0.82086 0.36493 0.0
H1329 H 0.95152 0.84774 0.3667 0.0
H1330 H 0.94691 0.8752 0.4071 0.0
H1331 H 0.88339 0.84774 0.40551 0.0
C1332 C 0.04538 0.9407 0.389 0.0
C1333 C 0.06545 0.92596 0.38483 0.0
C1334 C 0.00923 0.91974 0.39053 0.0
C1335 C 0.99252 0.88391 0.38752 0.0
C1336 C 0.01279 0.86887 0.38387 0.0
C1337 C 0.04915 0.88975 0.38267 0.0
C1338 C 0.90032 0.83205 0.37424 0.0
C1339 C 0.88064 0.83226 0.38506 0.0
C1340 C 0.93668 0.84722 0.37528 0.0
C1341 C 0.9539 0.86339 0.38705 0.0
C1342 C 0.93414 0.8628 0.39795 0.0
C1343 C 0.89782 0.84706 0.397 0.0
H1344 H 0.81511 0.87718 0.8753 0.0
H1345 H 0.90429 0.9638 0.89378 0.0
H1346 H 0.84348 0.84166 0.87722 0.0
H1347 H 0.93231 0.92816 0.89605 0.0
H1348 H 0.96158 0.84406 0.90474 0.0
H1349 H 0.92405 0.86986 0.90654 0.0
H1350 H 0.90149 0.85327 0.86498 0.0
H1351 H 0.93965 0.82795 0.86308 0.0
C1352 C 0.84009 0.88799 0.88029 0.0
C1353 C 0.85739 0.92283 0.88463 0.0
C1354 C 0.85645 0.86791 0.88124 0.0
C1355 C 0.89008 0.88229 0.88672 0.0
C1356 C 0.90626 0.91639 0.89188 0.0
C1357 C 0.89022 0.93669 0.89067 0.0
C1358 C 0.9483 0.8455 0.896 0.0
C1359 C 0.95358 0.83405 0.88374 0.0
C1360 C 0.9269 0.86033 0.89706 0.0
C1361 C 0.90983 0.86338 0.88592 0.0
C1362 C 0.91407 0.8508 0.87375 0.0
C1363 C 0.93601 0.83652 0.87264 0.0
H1364 H 0.12303 0.93401 0.88085 0.0
H1365 H 0.03021 0.93983 0.88909 0.0
H1366 H 0.15902 0.99769 0.88369 0.0
H1367 H 0.06613 0.0031 0.89239 0.0
H1368 H 0.1486 0.11519 0.90479 0.0
H1369 H 0.12125 0.05165 0.90706 0.0
H1370 H 0.15303 0.04491 0.86752 0.0
H1371 H 0.17956 0.10843 0.86506 0.0
C1372 C 0.11059 0.94876 0.88382 0.0
C1373 C 0.07404 0.9323 0.88485 0.0
C1374 C 0.13105 0.98506 0.88533 0.0
C1375 C 0.1152 0.00507 0.8882 0.0
C1376 C 0.07891 0.98813 0.89026 0.0
C1377 C 0.05843 0.95206 0.88842 0.0
C1378 C 0.15021 0.10021 0.89665 0.0
C1379 C 0.16613 0.11663 0.88472 0.0
C1380 C 0.13458 0.06394 0.89797 0.0
C1381 C 0.13539 0.04364 0.88751 0.0
C1382 C 0.15254 0.06019 0.87578 0.0
C1383 C 0.16747 0.09638 0.87434 0.0
H1384 H 0.06322 0.09314 0.8923 0.0
H1385 H 0.06673 0.18641 0.87749 0.0
H1386 H 0.99986 0.06569 0.89528 0.0
H1387 H 0.00297 0.15854 0.88008 0.0
H1388 H 0.89205 0.06377 0.86476 0.0
H1389 H 0.95563 0.10178 0.86657 0.0
H1390 H 0.95089 0.07367 0.90751 0.0
H1391 H 0.88746 0.03637 0.90582 0.0
C1392 C 0.05047 0.10814 0.89014 0.0
C1393 C 0.06963 0.14194 0.88486 0.0
C1394 C 0.01431 0.09245 0.89178 0.0
C1395 C 0.99665 0.10998 0.88781 0.0
C1396 C 0.01609 0.14454 0.88318 0.0
C1397 C 0.05246 0.16058 0.88185 0.0
C1398 C 0.90457 0.06616 0.87417 0.0
C1399 C 0.88487 0.04713 0.88513 0.0
C1400 C 0.94082 0.08804 0.87524 0.0
C1401 C 0.95798 0.0907 0.88721 0.0
C1402 C 0.9382 0.07213 0.89821 0.0
C1403 C 0.90195 0.05083 0.89721 0.0
H1404 H 0.852 0.9591 0.63732 0.0
H1405 H 0.83241 0.94612 0.59544 0.0
H1406 H 0.88281 0.92626 0.63593 0.0
H1407 H 0.86292 0.91254 0.59417 0.0
H1408 H 0.89328 0.82324 0.60727 0.0
H1409 H 0.85853 0.85259 0.6051 0.0
H1410 H 0.94243 0.94556 0.62287 0.0
H1411 H 0.97709 0.91699 0.62485 0.0
C1412 C 0.85382 0.94884 0.62786 0.0
C1413 C 0.84015 0.95556 0.61647 0.0
C1414 C 0.87151 0.93011 0.62706 0.0
C1415 C 0.87546 0.91726 0.61492 0.0
C1416 C 0.86017 0.92222 0.60363 0.0
C1417 C 0.84284 0.94147 0.60438 0.0
C1418 C 0.90457 0.85023 0.61036 0.0
C1419 C 0.93762 0.86759 0.61644 0.0
C1420 C 0.88467 0.8669 0.60918 0.0
C1421 C 0.89762 0.90094 0.61412 0.0
C1422 C 0.93161 0.91902 0.61926 0.0
C1423 C 0.95143 0.90263 0.62035 0.0
H1424 H 0.17955 0.06708 0.6063 0.0
H1425 H 0.08802 0.05186 0.62753 0.0
H1426 H 0.15346 0.00315 0.60463 0.0
H1427 H 0.06288 0.98905 0.62604 0.0
H1428 H 0.04971 0.88466 0.637 0.0
H1429 H 0.08356 0.94848 0.63684 0.0
H1430 H 0.09505 0.94779 0.59468 0.0
H1431 H 0.06076 0.88379 0.59476 0.0
C1432 C 0.15382 0.05026 0.61042 0.0
C1433 C 0.13616 0.06461 0.61722 0.0
C1434 C 0.13904 0.01379 0.60953 0.0
C1435 C 0.10665 0.99137 0.61553 0.0
C1436 C 0.08833 0.00578 0.62166 0.0
C1437 C 0.10276 0.04185 0.62244 0.0
C1438 C 0.05992 0.89801 0.62772 0.0
C1439 C 0.05208 0.87924 0.61588 0.0
C1440 C 0.07922 0.93452 0.62763 0.0
C1441 C 0.09147 0.95293 0.61572 0.0
C1442 C 0.0859 0.93417 0.60398 0.0
C1443 C 0.06619 0.89759 0.60405 0.0
H1444 H 0.11467 0.15211 0.59118 0.0
H1445 H 0.11494 0.17704 0.63233 0.0
H1446 H 0.05137 0.12712 0.59042 0.0
H1447 H 0.05135 0.15246 0.63144 0.0
H1448 H 0.93913 0.12589 0.6221 0.0
H1449 H 0.00274 0.1613 0.61893 0.0
H1450 H 0.0037 0.07104 0.60307 0.0
H1451 H 0.94048 0.03565 0.60661 0.0
C1452 C 0.1013 0.15281 0.60001 0.0
C1453 C 0.11971 0.16635 0.61185 0.0
C1454 C 0.06509 0.13849 0.59954 0.0
C1455 C 0.04664 0.13799 0.61085 0.0
C1456 C 0.06514 0.15293 0.62255 0.0
C1457 C 0.1014 0.16677 0.62308 0.0
C1458 C 0.95291 0.11413 0.6175 0.0
C1459 C 0.9352 0.07838 0.61438 0.0
C1460 C 0.98918 0.13418 0.61584 0.0
C1461 C 0.00796 0.11878 0.61081 0.0
C1462 C 0.98973 0.08357 0.60685 0.0
C1463 C 0.95367 0.06339 0.6088 0.0
H1464 H 0.72886 0.51256 0.46886 0.0
H1465 H 0.70877 0.48775 0.42753 0.0
H1466 H 0.76585 0.48612 0.46936 0.0
H1467 H 0.74514 0.46027 0.42811 0.0
H1468 H 0.83213 0.42982 0.43455 0.0
H1469 H 0.80536 0.46684 0.43201 0.0
H1470 H 0.74728 0.42393 0.46796 0.0
H1471 H 0.77346 0.38786 0.47057 0.0
C1472 C 0.73266 0.50176 0.45985 0.0
C1473 C 0.71562 0.50181 0.44822 0.0
C1474 C 0.75376 0.48655 0.46013 0.0
C1475 C 0.75792 0.47059 0.44881 0.0
C1476 C 0.74257 0.47249 0.43696 0.0
C1477 C 0.72163 0.48806 0.43665 0.0
C1478 C 0.81366 0.42841 0.44188 0.0
C1479 C 0.80512 0.40584 0.45277 0.0
C1480 C 0.79834 0.44954 0.44042 0.0
C1481 C 0.77469 0.44872 0.44992 0.0
C1482 C 0.76602 0.42587 0.46064 0.0
C1483 C 0.78091 0.40481 0.46204 0.0
H1484 H 0.4908 0.2237 0.46644 0.0
H1485 H 0.52109 0.21926 0.42636 0.0
H1486 H 0.51656 0.28727 0.4644 0.0
H1487 H 0.54732 0.28262 0.42448 0.0
H1488 H 0.54509 0.39863 0.45193 0.0
H1489 H 0.50976 0.33474 0.44959 0.0
H1490 H 0.60208 0.33137 0.43796 0.0
H1491 H 0.63738 0.39486 0.44073 0.0
C1492 C 0.50259 0.23623 0.45718 0.0
C1493 C 0.50405 0.21659 0.44659 0.0
C1494 C 0.51708 0.27247 0.45599 0.0
C1495 C 0.53376 0.28966 0.44426 0.0
C1496 C 0.53454 0.26992 0.4336 0.0
C1497 C 0.51952 0.23369 0.4347 0.0
C1498 C 0.55744 0.38424 0.44843 0.0
C1499 C 0.59372 0.4014 0.44634 0.0
C1500 C 0.53739 0.34781 0.44724 0.0
C1501 C 0.55332 0.32831 0.44366 0.0
C1502 C 0.58919 0.34589 0.44065 0.0
C1503 C 0.60932 0.38211 0.44216 0.0
H1504 H 0.77378 0.29565 0.42698 0.0
H1505 H 0.78799 0.26431 0.46569 0.0
H1506 H 0.71071 0.25644 0.42875 0.0
H1507 H 0.72519 0.22389 0.46725 0.0
H1508 H 0.61732 0.21018 0.47445 0.0
H1509 H 0.67916 0.23602 0.47067 0.0
H1510 H 0.65927 0.19743 0.43068 0.0
H1511 H 0.59598 0.17172 0.43446 0.0
C1512 C 0.76346 0.27972 0.43574 0.0
C1513 C 0.78563 0.2834 0.44631 0.0
C1514 C 0.72734 0.25704 0.43671 0.0
C1515 C 0.7128 0.23737 0.44822 0.0
C1516 C 0.73544 0.2393 0.45837 0.0
C1517 C 0.77142 0.26236 0.45748 0.0
C1518 C 0.62586 0.20696 0.46482 0.0
C1519 C 0.60165 0.18923 0.45469 0.0
C1520 C 0.66153 0.22145 0.46271 0.0
C1521 C 0.67432 0.21863 0.45041 0.0
C1522 C 0.65019 0.20014 0.44027 0.0
C1523 C 0.61404 0.18529 0.44243 0.0
H1524 H 0.69023 0.41751 0.70948 0.0
H1525 H 0.77622 0.51868 0.72068 0.0
H1526 H 0.72787 0.3922 0.7116 0.0
H1527 H 0.81397 0.49261 0.72307 0.0
H1528 H 0.84012 0.39732 0.73607 0.0
H1529 H 0.80994 0.43124 0.73712 0.0
H1530 H 0.7886 0.41531 0.69551 0.0
H1531 H 0.81922 0.38216 0.69431 0.0
C1532 C 0.71703 0.43425 0.71265 0.0
C1533 C 0.73046 0.47026 0.71468 0.0
C1534 C 0.73851 0.4197 0.71383 0.0
C1535 C 0.77379 0.44068 0.71723 0.0
C1536 C 0.78677 0.47608 0.72036 0.0
C1537 C 0.76518 0.49087 0.71907 0.0
C1538 C 0.82961 0.40169 0.72709 0.0
C1539 C 0.83166 0.38673 0.71512 0.0
C1540 C 0.8125 0.42115 0.72772 0.0
C1541 C 0.79691 0.42554 0.71642 0.0
C1542 C 0.80041 0.41208 0.70435 0.0
C1543 C 0.81791 0.39312 0.70368 0.0
H1544 H 0.57447 0.27774 0.72354 0.0
H1545 H 0.4769 0.26987 0.71176 0.0
H1546 H 0.60038 0.34098 0.72635 0.0
H1547 H 0.50321 0.33356 0.71415 0.0
H1548 H 0.5948 0.44576 0.69721 0.0
H1549 H 0.55796 0.3821 0.69936 0.0
H1550 H 0.59101 0.38844 0.73973 0.0
H1551 H 0.62707 0.45192 0.73774 0.0
C1552 C 0.55832 0.28952 0.72198 0.0
C1553 C 0.52369 0.26917 0.7176 0.0
C1554 C 0.57311 0.3256 0.72353 0.0
C1555 C 0.55376 0.34198 0.72038 0.0
C1556 C 0.51855 0.3214 0.71662 0.0
C1557 C 0.50346 0.28508 0.71539 0.0
C1558 C 0.59362 0.43359 0.7066 0.0
C1559 C 0.6138 0.45374 0.71728 0.0
C1560 C 0.57245 0.39729 0.70785 0.0
C1561 C 0.57167 0.38058 0.71973 0.0
C1562 C 0.59113 0.40081 0.7305 0.0
C1563 C 0.6117 0.4371 0.72933 0.0
H1564 H 0.73217 0.21733 0.71496 0.0
H1565 H 0.72533 0.31062 0.72048 0.0
H1566 H 0.66852 0.18128 0.71796 0.0
H1567 H 0.66211 0.27468 0.72397 0.0
H1568 H 0.55657 0.15807 0.69881 0.0
H1569 H 0.6203 0.18554 0.70093 0.0
H1570 H 0.61476 0.2203 0.74008 0.0
H1571 H 0.55106 0.19202 0.73817 0.0
C1572 C 0.71721 0.22994 0.71736 0.0
C1573 C 0.73337 0.26656 0.71761 0.0
C1574 C 0.68094 0.20943 0.71896 0.0
C1575 C 0.6607 0.22537 0.72116 0.0
C1576 C 0.67731 0.26189 0.72238 0.0
C1577 C 0.71334 0.28237 0.72043 0.0
C1578 C 0.56895 0.17101 0.70794 0.0
C1579 C 0.54898 0.1729 0.71832 0.0
C1580 C 0.60525 0.18648 0.70919 0.0
C1581 C 0.62215 0.20473 0.7207 0.0
C1582 C 0.60216 0.20612 0.73116 0.0
C1583 C 0.56581 0.18994 0.73005 0.0
H1584 H 0.62402 0.17792 0.23679 0.0
H1585 H 0.60688 0.16193 0.19488 0.0
H1586 H 0.58538 0.20251 0.23761 0.0
H1587 H 0.56796 0.18646 0.19575 0.0
H1588 H 0.48107 0.21039 0.20303 0.0
H1589 H 0.50989 0.17549 0.20555 0.0
H1590 H 0.59197 0.25898 0.22824 0.0
H1591 H 0.56324 0.29382 0.22553 0.0
C1592 C 0.61167 0.17927 0.22777 0.0
C1593 C 0.61859 0.16814 0.21574 0.0
C1594 C 0.58962 0.19341 0.22826 0.0
C1595 C 0.57369 0.19636 0.21676 0.0
C1596 C 0.5796 0.1841 0.2048 0.0
C1597 C 0.602 0.17026 0.20428 0.0
C1598 C 0.50459 0.22057 0.20895 0.0
C1599 C 0.51978 0.25431 0.21431 0.0
C1600 C 0.52127 0.20088 0.21025 0.0
C1601 C 0.55323 0.21464 0.21702 0.0
C1602 C 0.56719 0.2476 0.22308 0.0
C1603 C 0.55076 0.26746 0.22161 0.0
H1604 H 0.73351 0.2831 0.19007 0.0
H1605 H 0.75833 0.26256 0.22907 0.0
H1606 H 0.76964 0.34495 0.1936 0.0
H1607 H 0.79582 0.32604 0.23256 0.0
H1608 H 0.81503 0.44297 0.23593 0.0
H1609 H 0.78907 0.37933 0.23487 0.0
H1610 H 0.83047 0.38891 0.19559 0.0
H1611 H 0.85504 0.45208 0.19648 0.0
C1612 C 0.7468 0.29173 0.19945 0.0
C1613 C 0.74273 0.26764 0.20934 0.0
C1614 C 0.76801 0.32745 0.20139 0.0
C1615 C 0.78606 0.34051 0.21328 0.0
C1616 C 0.78225 0.31668 0.22327 0.0
C1617 C 0.76092 0.28043 0.22127 0.0
C1618 C 0.81905 0.43142 0.22717 0.0
C1619 C 0.83652 0.45228 0.21619 0.0
C1620 C 0.80436 0.39502 0.2266 0.0
C1621 C 0.80724 0.37903 0.21507 0.0
C1622 C 0.8271 0.40036 0.20451 0.0
C1623 C 0.84125 0.43653 0.205 0.0
H1624 H 0.73198 0.51826 0.21032 0.0
H1625 H 0.72753 0.42214 0.22194 0.0
H1626 H 0.66798 0.48976 0.21225 0.0
H1627 H 0.66388 0.39404 0.22433 0.0
H1628 H 0.55192 0.36627 0.23625 0.0
H1629 H 0.61549 0.40234 0.23788 0.0
H1630 H 0.62033 0.43386 0.19737 0.0
H1631 H 0.55653 0.39697 0.19558 0.0
C1632 C 0.71738 0.4915 0.21379 0.0
C1633 C 0.7344 0.47236 0.21615 0.0
C1634 C 0.68091 0.47516 0.21475 0.0
C1635 C 0.66122 0.43977 0.21838 0.0
C1636 C 0.67858 0.42141 0.22159 0.0
C1637 C 0.71486 0.43744 0.22029 0.0
C1638 C 0.56645 0.38118 0.22772 0.0
C1639 C 0.54933 0.3788 0.21576 0.0
C1640 C 0.60278 0.40176 0.22868 0.0
C1641 C 0.62259 0.42093 0.21779 0.0
C1642 C 0.60545 0.41956 0.20595 0.0
C1643 C 0.56909 0.39836 0.2049 0.0
H1644 H 0.57169 0.16778 0.93664 0.0
H1645 H 0.60245 0.22019 0.97434 0.0
H1646 H 0.534 0.19338 0.93303 0.0
H1647 H 0.56603 0.2455 0.97067 0.0
H1648 H 0.48068 0.26795 0.96785 0.0
H1649 H 0.50533 0.2295 0.96962 0.0
H1650 H 0.54059 0.25234 0.92928 0.0
H1651 H 0.51476 0.28984 0.92738 0.0
C1652 C 0.57042 0.18455 0.94413 0.0
C1653 C 0.59026 0.19191 0.95574 0.0
C1654 C 0.54892 0.19923 0.94207 0.0
C1655 C 0.54665 0.22108 0.95166 0.0
C1656 C 0.56641 0.22815 0.96321 0.0
C1657 C 0.58778 0.21384 0.96523 0.0
C1658 C 0.49314 0.26425 0.9593 0.0
C1659 C 0.49624 0.28225 0.94756 0.0
C1660 C 0.50735 0.24233 0.96031 0.0
C1661 C 0.52549 0.23837 0.94965 0.0
C1662 C 0.52666 0.25467 0.93764 0.0
C1663 C 0.51205 0.27634 0.93659 0.0
H1664 H 0.84395 0.4056 0.94247 0.0
H1665 H 0.74896 0.39193 0.96031 0.0
H1666 H 0.81648 0.34165 0.9402 0.0
H1667 H 0.7224 0.32892 0.95829 0.0
H1668 H 0.71016 0.2246 0.97133 0.0
H1669 H 0.74299 0.28849 0.97082 0.0
H1670 H 0.75703 0.2864 0.92887 0.0
H1671 H 0.72355 0.2223 0.92928 0.0
C1672 C 0.81713 0.38912 0.94564 0.0
C1673 C 0.79887 0.40377 0.95178 0.0
C1674 C 0.80156 0.35264 0.94442 0.0
C1675 C 0.76775 0.33059 0.94941 0.0
C1676 C 0.74881 0.3454 0.95468 0.0
C1677 C 0.76406 0.38151 0.95578 0.0
C1678 C 0.72064 0.23767 0.96203 0.0
C1679 C 0.71394 0.21849 0.95033 0.0
C1680 C 0.73934 0.27419 0.96173 0.0
C1681 C 0.75219 0.29217 0.94978 0.0
C1682 C 0.7474 0.27306 0.93819 0.0
C1683 C 0.72818 0.23647 0.93845 0.0
H1684 H 0.78094 0.50677 0.92928 0.0
H1685 H 0.77952 0.50041 0.97174 0.0
H1686 H 0.71691 0.47578 0.92901 0.0
H1687 H 0.7157 0.46924 0.9714 0.0
H1688 H 0.613 0.36879 0.96355 0.0
H1689 H 0.67577 0.40688 0.96205 0.0
H1690 H 0.66105 0.4785 0.93764 0.0
H1691 H 0.59723 0.44024 0.93926 0.0
C1692 C 0.767 0.49934 0.93856 0.0
C1693 C 0.78523 0.50551 0.95054 0.0
C1694 C 0.7304 0.48172 0.93838 0.0
C1695 C 0.7115 0.46973 0.95016 0.0
C1696 C 0.72975 0.47783 0.96217 0.0
C1697 C 0.76627 0.49575 0.96236 0.0
C1698 C 0.62287 0.39254 0.95779 0.0
C1699 C 0.59995 0.40172 0.95169 0.0
C1700 C 0.65892 0.41444 0.95701 0.0
C1701 C 0.67314 0.44598 0.95001 0.0
C1702 C 0.65057 0.45439 0.9432 0.0
C1703 C 0.61415 0.43245 0.94408 0.0
H1704 H 0.39992 0.85005 0.80102 0.0
H1705 H 0.37688 0.81903 0.76028 0.0
H1706 H 0.43797 0.82486 0.80197 0.0
H1707 H 0.41431 0.79277 0.76134 0.0
H1708 H 0.50171 0.76316 0.76847 0.0
H1709 H 0.47541 0.80048 0.76521 0.0
H1710 H 0.41912 0.76241 0.80181 0.0
H1711 H 0.44484 0.7262 0.80511 0.0
C1712 C 0.40331 0.83816 0.79223 0.0
C1713 C 0.38509 0.83604 0.78065 0.0
C1714 C 0.42506 0.82371 0.79276 0.0
C1715 C 0.42867 0.80633 0.78179 0.0
C1716 C 0.41219 0.80613 0.76993 0.0
C1717 C 0.39062 0.82098 0.76936 0.0
C1718 C 0.48381 0.76299 0.77579 0.0
C1719 C 0.47542 0.74157 0.78702 0.0
C1720 C 0.46875 0.78424 0.77393 0.0
C1721 C 0.44563 0.78476 0.78337 0.0
C1722 C 0.4374 0.76329 0.7945 0.0
C1723 C 0.45199 0.7421 0.79629 0.0
H1724 H 0.21545 0.72948 0.79058 0.0
H1725 H 0.30285 0.73012 0.77137 0.0
H1726 H 0.18131 0.66552 0.78851 0.0
H1727 H 0.26859 0.66636 0.76896 0.0
H1728 H 0.18549 0.55313 0.75928 0.0
H1729 H 0.21119 0.61655 0.75829 0.0
H1730 H 0.19324 0.6188 0.79995 0.0
H1731 H 0.1679 0.55517 0.80103 0.0
C1732 C 0.22675 0.71594 0.78546 0.0
C1733 C 0.26137 0.7344 0.78091 0.0
C1734 C 0.20746 0.67948 0.78442 0.0
C1735 C 0.22243 0.66113 0.77863 0.0
C1736 C 0.25638 0.67995 0.77337 0.0
C1737 C 0.27589 0.71631 0.77467 0.0
C1738 C 0.1867 0.56707 0.76822 0.0
C1739 C 0.17476 0.54923 0.78026 0.0
C1740 C 0.20147 0.60334 0.76763 0.0
C1741 C 0.20405 0.62244 0.77902 0.0
C1742 C 0.19115 0.60455 0.79099 0.0
C1743 C 0.17686 0.56825 0.79163 0.0
H1744 H 0.4495 0.60435 0.80023 0.0
H1745 H 0.45185 0.62936 0.75898 0.0
H1746 H 0.38615 0.565 0.79879 0.0
H1747 H 0.38868 0.59042 0.75763 0.0
H1748 H 0.27543 0.56741 0.77129 0.0
H1749 H 0.33898 0.59624 0.76852 0.0
H1750 H 0.33918 0.5083 0.78708 0.0
H1751 H 0.27536 0.47925 0.78958 0.0
C1752 C 0.43658 0.60109 0.79084 0.0
C1753 C 0.45556 0.62003 0.77975 0.0
C1754 C 0.40042 0.57845 0.78999 0.0
C1755 C 0.38262 0.57473 0.77808 0.0
C1756 C 0.40178 0.59292 0.76692 0.0
C1757 C 0.43793 0.61515 0.76772 0.0
C1758 C 0.28902 0.55376 0.77426 0.0
C1759 C 0.27081 0.52101 0.7804 0.0
C1760 C 0.32528 0.57023 0.77275 0.0
C1761 C 0.34392 0.55452 0.77766 0.0
C1762 C 0.32538 0.52096 0.78325 0.0
C1763 C 0.28898 0.50421 0.78454 0.0
H1764 H 0.4553 0.85195 0.04642 0.0
H1765 H 0.36408 0.75497 0.05769 0.0
H1766 H 0.49157 0.82444 0.0488 0.0
H1767 H 0.40033 0.72784 0.06048 0.0
H1768 H 0.48315 0.69818 0.07124 0.0
H1769 H 0.45649 0.73488 0.0737 0.0
H1770 H 0.48408 0.77017 0.03358 0.0
H1771 H 0.51007 0.73275 0.03097 0.0
C1772 C 0.44339 0.82526 0.04997 0.0
C1773 C 0.40712 0.80553 0.052 0.0
C1774 C 0.46398 0.80949 0.05119 0.0
C1775 C 0.4486 0.77408 0.05476 0.0
C1776 C 0.41278 0.75525 0.05781 0.0
C1777 C 0.39211 0.77073 0.05626 0.0
C1778 C 0.48399 0.71415 0.063 0.0
C1779 C 0.49859 0.7126 0.05089 0.0
C1780 C 0.46874 0.73509 0.06443 0.0
C1781 C 0.46853 0.75544 0.05387 0.0
C1782 C 0.48438 0.75502 0.04192 0.0
C1783 C 0.499 0.73349 0.0404 0.0
H1784 H 0.24463 0.60506 0.05593 0.0
H1785 H 0.14669 0.59978 0.04674 0.0
H1786 H 0.27219 0.66841 0.05907 0.0
H1787 H 0.17462 0.66355 0.04943 0.0
H1788 H 0.30091 0.78002 0.07186 0.0
H1789 H 0.26457 0.71642 0.07369 0.0
H1790 H 0.22913 0.71138 0.03375 0.0
H1791 H 0.26628 0.77504 0.03174 0.0
C1792 C 0.22883 0.61744 0.055 0.0
C1793 C 0.19358 0.5978 0.05126 0.0
C1794 C 0.24455 0.65355 0.05675 0.0
C1795 C 0.22547 0.67065 0.05442 0.0
C1796 C 0.18975 0.65079 0.05128 0.0
C1797 C 0.17376 0.61445 0.04987 0.0
C1798 C 0.28496 0.76542 0.06353 0.0
C1799 C 0.28638 0.78238 0.05164 0.0
C1800 C 0.26426 0.7291 0.0646 0.0
C1801 C 0.24398 0.70925 0.0539 0.0
C1802 C 0.24426 0.7263 0.04218 0.0
C1803 C 0.2656 0.76258 0.04101 0.0
H1804 H 0.39849 0.54344 0.04338 0.0
H1805 H 0.39416 0.63369 0.05706 0.0
H1806 H 0.33473 0.50732 0.04599 0.0
H1807 H 0.33082 0.59755 0.06007 0.0
H1808 H 0.21926 0.51396 0.07156 0.0
H1809 H 0.28278 0.54058 0.07301 0.0
H1810 H 0.28656 0.51583 0.03217 0.0
H1811 H 0.22287 0.48981 0.03058 0.0
C1812 C 0.38404 0.55511 0.04747 0.0
C1813 C 0.40098 0.59109 0.05018 0.0
C1814 C 0.34767 0.53463 0.04882 0.0
C1815 C 0.32804 0.54979 0.05317 0.0
C1816 C 0.34545 0.58524 0.05679 0.0
C1817 C 0.38158 0.60584 0.05513 0.0
C1818 C 0.23355 0.51374 0.06292 0.0
C1819 C 0.21617 0.49989 0.05093 0.0
C1820 C 0.26985 0.52899 0.06378 0.0
C1821 C 0.28938 0.53 0.05274 0.0
C1822 C 0.27193 0.51493 0.04087 0.0
C1823 C 0.23562 0.50029 0.03993 0.0
H1824 H 0.24136 0.63694 0.55706 0.0
H1825 H 0.14584 0.54454 0.54543 0.0
H1826 H 0.26951 0.60176 0.56023 0.0
H1827 H 0.1744 0.50934 0.54819 0.0
H1828 H 0.26748 0.49181 0.53149 0.0
H1829 H 0.22967 0.51756 0.53346 0.0
H1830 H 0.26309 0.54626 0.57369 0.0
H1831 H 0.30015 0.51983 0.57187 0.0
C1832 C 0.22612 0.60887 0.55563 0.0
C1833 C 0.19144 0.59324 0.55116 0.0
C1834 C 0.2422 0.58881 0.55738 0.0
C1835 C 0.22411 0.55298 0.55434 0.0
C1836 C 0.1888 0.53697 0.55056 0.0
C1837 C 0.17241 0.55695 0.54913 0.0
C1838 C 0.2663 0.50315 0.5408 0.0
C1839 C 0.28667 0.50383 0.55152 0.0
C1840 C 0.24454 0.51762 0.54195 0.0
C1841 C 0.2434 0.53362 0.55376 0.0
C1842 C 0.26342 0.53388 0.56453 0.0
C1843 C 0.28456 0.51877 0.56346 0.0
H1844 H 0.3688 0.60408 0.5606 0.0
H1845 H 0.4563 0.60465 0.54151 0.0
H1846 H 0.40348 0.66762 0.56347 0.0
H1847 H 0.49093 0.66846 0.54407 0.0
H1848 H 0.50352 0.77863 0.53136 0.0
H1849 H 0.47925 0.71517 0.5326 0.0
H1850 H 0.46042 0.71755 0.57417 0.0
H1851 H 0.48509 0.78083 0.57303 0.0
C1852 C 0.39593 0.61778 0.55748 0.0
C1853 C 0.41028 0.59973 0.55109 0.0
C1854 C 0.41568 0.65405 0.55904 0.0
C1855 C 0.44976 0.67287 0.5539 0.0
C1856 C 0.46468 0.65451 0.54807 0.0
C1857 C 0.44511 0.6181 0.54676 0.0
C1858 C 0.49465 0.76563 0.54078 0.0
C1859 C 0.49614 0.78464 0.55208 0.0
C1860 C 0.48099 0.72942 0.54151 0.0
C1861 C 0.46808 0.71158 0.5535 0.0
C1862 C 0.47019 0.73071 0.56482 0.0
C1863 C 0.48435 0.76691 0.56414 0.0
H1864 H 0.39487 0.85364 0.5466 0.0
H1865 H 0.3901 0.757 0.55764 0.0
H1866 H 0.33091 0.82528 0.54859 0.0
H1867 H 0.32648 0.72901 0.56009 0.0
H1868 H 0.21365 0.69955 0.57108 0.0
H1869 H 0.27702 0.73649 0.57349 0.0
H1870 H 0.28462 0.77001 0.53313 0.0
H1871 H 0.22119 0.73229 0.53056 0.0
C1872 C 0.38022 0.8268 0.55 0.0
C1873 C 0.3971 0.80745 0.55213 0.0
C1874 C 0.34378 0.81056 0.551 0.0
C1875 C 0.32401 0.77505 0.55446 0.0
C1876 C 0.34126 0.7565 0.55751 0.0
C1877 C 0.37752 0.77246 0.55617 0.0
C1878 C 0.22875 0.71519 0.56277 0.0
C1879 C 0.21258 0.71306 0.55061 0.0
C1880 C 0.26494 0.73624 0.56417 0.0
C1881 C 0.28545 0.75615 0.55353 0.0
C1882 C 0.26917 0.75517 0.54152 0.0
C1883 C 0.23303 0.7335 0.54003 0.0
H1884 H 0.22897 0.49263 0.2739 0.0
H1885 H 0.31079 0.58756 0.29158 0.0
H1886 H 0.19296 0.52055 0.27139 0.0
H1887 H 0.27486 0.61468 0.28927 0.0
H1888 H 0.18159 0.62387 0.30355 0.0
H1889 H 0.21293 0.59154 0.30225 0.0
H1890 H 0.19798 0.58215 0.26018 0.0
H1891 H 0.16695 0.61526 0.26137 0.0
C1892 C 0.23957 0.51958 0.27694 0.0
C1893 C 0.27241 0.53768 0.28316 0.0
C1894 C 0.21896 0.53542 0.27556 0.0
C1895 C 0.23101 0.56937 0.28043 0.0
C1896 C 0.2648 0.58821 0.2857 0.0
C1897 C 0.28532 0.57264 0.28699 0.0
C1898 C 0.18456 0.61462 0.29403 0.0
C1899 C 0.17223 0.62252 0.28255 0.0
C1900 C 0.20252 0.59616 0.2933 0.0
C1901 C 0.20805 0.58476 0.2811 0.0
C1902 C 0.19396 0.59072 0.26968 0.0
C1903 C 0.17633 0.60968 0.27039 0.0
H1904 H 0.42025 0.72359 0.29132 0.0
H1905 H 0.51758 0.73949 0.27497 0.0
H1906 H 0.39528 0.6607 0.28959 0.0
H1907 H 0.49172 0.6756 0.27296 0.0
H1908 H 0.39812 0.55495 0.26169 0.0
H1909 H 0.4321 0.619 0.26114 0.0
H1910 H 0.41771 0.62198 0.30302 0.0
H1911 H 0.38443 0.55814 0.30369 0.0
C1912 C 0.43622 0.71368 0.28717 0.0
C1913 C 0.47117 0.73655 0.2835 0.0
C1914 C 0.42188 0.67765 0.28623 0.0
C1915 C 0.44192 0.6635 0.28146 0.0
C1916 C 0.47596 0.6861 0.2768 0.0
C1917 C 0.49061 0.72253 0.27786 0.0
C1918 C 0.40288 0.56927 0.27083 0.0
C1919 C 0.38818 0.55155 0.28272 0.0
C1920 C 0.42239 0.60585 0.27049 0.0
C1921 C 0.42708 0.6252 0.282 0.0
C1922 C 0.41414 0.60748 0.29399 0.0
C1923 C 0.39514 0.57098 0.29438 0.0
H1924 H 0.44701 0.84634 0.30087 0.0
H1925 H 0.44996 0.82217 0.25984 0.0
H1926 H 0.38321 0.82006 0.29942 0.0
H1927 H 0.38648 0.79536 0.25855 0.0
H1928 H 0.27087 0.79242 0.28786 0.0
H1929 H 0.33469 0.82852 0.28543 0.0
H1930 H 0.33884 0.73811 0.27173 0.0
H1931 H 0.27542 0.70199 0.27459 0.0
C1932 C 0.43412 0.83584 0.29154 0.0
C1933 C 0.45342 0.83627 0.28049 0.0
C1934 C 0.39775 0.82102 0.29069 0.0
C1935 C 0.38014 0.80586 0.27885 0.0
C1936 C 0.39953 0.80697 0.26775 0.0
C1937 C 0.43584 0.82234 0.26853 0.0
C1938 C 0.2854 0.78071 0.28388 0.0
C1939 C 0.26849 0.74472 0.2812 0.0
C1940 C 0.32179 0.80117 0.28265 0.0
C1941 C 0.34149 0.78595 0.27845 0.0
C1942 C 0.32415 0.75044 0.2749 0.0
C1943 C 0.28797 0.72987 0.27644 0.0
loop_
_geom_bond_atom_site_label_1
_geom_bond_atom_site_label_2
_geom_bond_distance
_geom_bond_site_symmetry_2
_ccdc_geom_bond_type
Co0 O1 2.216 . S
Co0 O2 2.091 . S
Co0 O4 2.004 . S
Co0 O10 2.021 . S
Co0 O12 2.143 . S
Co0 O13 2.244 . S
O1 Co0 2.216 . S
O1 C8 1.247 . S
O2 Co0 2.091 . S
O2 C8 1.261 . S
C3 O12 1.247 1_565 S
C3 O13 1.272 1_565 S
O4 Co0 2.004 . S
O4 C9 1.259 . S
Co5 O6 2.061 . S
Co5 O11 2.052 . S
Co5 O13 2.135 . S
O6 Co5 2.061 . S
O6 C9 1.235 . S
C7 O10 1.238 . S
C7 O11 1.241 . S
C8 O1 1.247 . S
C8 O2 1.261 . S
C9 O4 1.259 . S
C9 O6 1.235 . S
O10 Co0 2.021 . S
O10 C7 1.238 . S
O11 Co5 2.052 . S
O11 C7 1.241 . S
O12 Co0 2.143 . S
O12 C3 1.247 1_545 S
O13 Co0 2.244 . S
O13 C3 1.272 1_545 S
O13 Co5 2.135 . S
Co14 O15 2.216 . S
Co14 O16 2.091 . S
Co14 O18 2.004 . S
Co14 O24 2.021 . S
Co14 O26 2.148 . S
Co14 O27 2.244 . S
O15 Co14 2.216 . S
O15 C22 1.247 . S
O16 Co14 2.091 . S
O16 C22 1.261 . S
C17 O26 1.244 1_455 S
C17 O27 1.272 1_455 S
O18 Co14 2.004 . S
O18 C23 1.259 . S
Co19 O20 2.061 . S
Co19 O25 2.052 . S
Co19 O27 2.135 . S
O20 Co19 2.061 . S
O20 C23 1.235 . S
C21 O24 1.238 . S
C21 O25 1.241 . S
C22 O15 1.247 . S
C22 O16 1.261 . S
C23 O18 1.259 . S
C23 O20 1.235 . S
O24 Co14 2.021 . S
O24 C21 1.238 . S
O25 Co19 2.052 . S
O25 C21 1.241 . S
O26 Co14 2.148 . S
O26 C17 1.244 1_655 S
O27 Co14 2.244 . S
O27 C17 1.272 1_655 S
O27 Co19 2.135 . S
Co28 O29 2.216 . S
Co28 O30 2.091 . S
Co28 O32 2.004 . S
Co28 O38 2.021 . S
Co28 O40 2.137 . S
Co28 O41 2.244 . S
O29 Co28 2.216 . S
O29 C36 1.247 . S
O30 Co28 2.091 . S
O30 C36 1.261 . S
C31 O40 1.247 . S
C31 O41 1.272 . S
O32 Co28 2.004 . S
O32 C37 1.259 . S
Co33 O34 2.061 . S
Co33 O39 2.052 . S
Co33 O41 2.135 . S
O34 Co33 2.061 . S
O34 C37 1.235 . S
C35 O38 1.238 . S
C35 O39 1.241 . S
C36 O29 1.247 . S
C36 O30 1.261 . S
C37 O32 1.259 . S
C37 O34 1.235 . S
O38 Co28 2.021 . S
O38 C35 1.238 . S
O39 Co33 2.052 . S
O39 C35 1.241 . S
O40 Co28 2.137 . S
O40 C31 1.247 . S
O41 Co28 2.244 . S
O41 C31 1.272 . S
O41 Co33 2.135 . S
Co42 O43 2.216 . S
Co42 O44 2.091 . S
Co42 O46 2.004 . S
Co42 O52 2.021 . S
Co42 O54 2.143 . S
Co42 O55 2.244 . S
O43 Co42 2.216 . S
O43 C50 1.247 . S
O44 Co42 2.091 . S
O44 C50 1.261 . S
C45 O54 1.247 1_655 S
C45 O55 1.272 1_655 S
O46 Co42 2.004 . S
O46 C51 1.259 . S
Co47 O48 2.061 . S
Co47 O53 2.052 . S
Co47 O55 2.135 . S
O48 Co47 2.061 . S
O48 C51 1.235 . S
C49 O52 1.238 . S
C49 O53 1.241 . S
C50 O43 1.247 . S
C50 O44 1.261 . S
C51 O46 1.259 . S
C51 O48 1.235 . S
O52 Co42 2.021 . S
O52 C49 1.238 . S
O53 Co47 2.052 . S
O53 C49 1.241 . S
O54 Co42 2.143 . S
O54 C45 1.247 1_455 S
O55 Co42 2.244 . S
O55 C45 1.272 1_455 S
O55 Co47 2.135 . S
Co56 O57 2.216 . S
Co56 O58 2.091 . S
Co56 O60 2.004 . S
Co56 O66 2.021 . S
Co56 O68 2.137 . S
Co56 O69 2.244 . S
O57 Co56 2.216 . S
O57 C64 1.247 . S
O58 Co56 2.091 . S
O58 C64 1.261 . S
C59 O68 1.247 . S
C59 O69 1.272 . S
O60 Co56 2.004 . S
O60 C65 1.259 . S
Co61 O62 2.061 . S
Co61 O67 2.052 . S
Co61 O69 2.135 . S
O62 Co61 2.061 . S
O62 C65 1.235 . S
C63 O66 1.238 . S
C63 O67 1.241 . S
C64 O57 1.247 . S
C64 O58 1.261 . S
C65 O60 1.259 . S
C65 O62 1.235 . S
O66 Co56 2.021 . S
O66 C63 1.238 . S
O67 Co61 2.052 . S
O67 C63 1.241 . S
O68 Co56 2.137 . S
O68 C59 1.247 . S
O69 Co56 2.244 . S
O69 C59 1.272 . S
O69 Co61 2.135 . S
Co70 O71 2.216 . S
Co70 O72 2.091 . S
Co70 O74 2.004 . S
Co70 O80 2.021 . S
Co70 O82 2.148 . S
Co70 O83 2.244 . S
O71 Co70 2.216 . S
O71 C78 1.247 . S
O72 Co70 2.091 . S
O72 C78 1.261 . S
C73 O82 1.244 1_545 S
C73 O83 1.272 1_545 S
O74 Co70 2.004 . S
O74 C79 1.259 . S
Co75 O76 2.061 . S
Co75 O81 2.052 . S
Co75 O83 2.135 . S
O76 Co75 2.061 . S
O76 C79 1.235 . S
C77 O80 1.238 . S
C77 O81 1.241 . S
C78 O71 1.247 . S
C78 O72 1.261 . S
C79 O74 1.259 . S
C79 O76 1.235 . S
O80 Co70 2.021 . S
O80 C77 1.238 . S
O81 Co75 2.052 . S
O81 C77 1.241 . S
O82 Co70 2.148 . S
O82 C73 1.244 1_565 S
O83 Co70 2.244 . S
O83 C73 1.272 1_565 S
O83 Co75 2.135 . S
Co84 O85 2.216 . S
Co84 O86 2.091 . S
Co84 O88 2.004 . S
Co84 O94 2.021 . S
Co84 O96 2.143 . S
Co84 O97 2.244 . S
O85 Co84 2.216 . S
O85 C92 1.247 . S
O86 Co84 2.091 . S
O86 C92 1.261 . S
C87 O96 1.247 1_545 S
C87 O97 1.272 1_545 S
O88 Co84 2.004 . S
O88 C93 1.259 . S
Co89 O90 2.061 . S
Co89 O95 2.052 . S
Co89 O97 2.135 . S
O90 Co89 2.061 . S
O90 C93 1.235 . S
C91 O94 1.238 . S
C91 O95 1.241 . S
C92 O85 1.247 . S
C92 O86 1.261 . S
C93 O88 1.259 . S
C93 O90 1.235 . S
O94 Co84 2.021 . S
O94 C91 1.238 . S
O95 Co89 2.052 . S
O95 C91 1.241 . S
O96 Co84 2.143 . S
O96 C87 1.247 1_565 S
O97 Co84 2.244 . S
O97 C87 1.272 1_565 S
O97 Co89 2.135 . S
Co98 O99 2.216 . S
Co98 O100 2.091 . S
Co98 O102 2.004 . S
Co98 O108 2.021 . S
Co98 O110 2.148 . S
Co98 O111 2.244 . S
O99 Co98 2.216 . S
O99 C106 1.247 . S
O100 Co98 2.091 . S
O100 C106 1.261 . S
C101 O110 1.244 1_655 S
C101 O111 1.272 1_655 S
O102 Co98 2.004 . S
O102 C107 1.259 . S
Co103 O104 2.061 . S
Co103 O109 2.052 . S
Co103 O111 2.135 . S
O104 Co103 2.061 . S
O104 C107 1.235 . S
C105 O108 1.238 . S
C105 O109 1.241 . S
C106 O99 1.247 . S
C106 O100 1.261 . S
C107 O102 1.259 . S
C107 O104 1.235 . S
O108 Co98 2.021 . S
O108 C105 1.238 . S
O109 Co103 2.052 . S
O109 C105 1.241 . S
O110 Co98 2.148 . S
O110 C101 1.244 1_455 S
O111 Co98 2.244 . S
O111 C101 1.272 1_455 S
O111 Co103 2.135 . S
Co112 O113 2.216 . S
Co112 O114 2.091 . S
Co112 O116 2.004 . S
Co112 O122 2.021 . S
Co112 O124 2.137 . S
Co112 O125 2.244 . S
O113 Co112 2.216 . S
O113 C120 1.247 . S
O114 Co112 2.091 . S
O114 C120 1.261 . S
C115 O124 1.247 . S
C115 O125 1.272 . S
O116 Co112 2.004 . S
O116 C121 1.259 . S
Co117 O118 2.061 . S
Co117 O123 2.052 . S
Co117 O125 2.135 . S
O118 Co117 2.061 . S
O118 C121 1.235 . S
C119 O122 1.238 . S
C119 O123 1.241 . S
C120 O113 1.247 . S
C120 O114 1.261 . S
C121 O116 1.259 . S
C121 O118 1.235 . S
O122 Co112 2.021 . S
O122 C119 1.238 . S
O123 Co117 2.052 . S
O123 C119 1.241 . S
O124 Co112 2.137 . S
O124 C115 1.247 . S
O125 Co112 2.244 . S
O125 C115 1.272 . S
O125 Co117 2.135 . S
Co126 O127 2.216 . S
Co126 O128 2.091 . S
Co126 O130 2.004 . S
Co126 O136 2.021 . S
Co126 O138 2.143 . S
Co126 O139 2.244 . S
O127 Co126 2.216 . S
O127 C134 1.247 . S
O128 Co126 2.091 . S
O128 C134 1.261 . S
C129 O138 1.247 1_455 S
C129 O139 1.272 1_455 S
O130 Co126 2.004 . S
O130 C135 1.259 . S
Co131 O132 2.061 . S
Co131 O137 2.052 . S
Co131 O139 2.135 . S
O132 Co131 2.061 . S
O132 C135 1.235 . S
C133 O136 1.238 . S
C133 O137 1.241 . S
C134 O127 1.247 . S
C134 O128 1.261 . S
C135 O130 1.259 . S
C135 O132 1.235 . S
O136 Co126 2.021 . S
O136 C133 1.238 . S
O137 Co131 2.052 . S
O137 C133 1.241 . S
O138 Co126 2.143 . S
O138 C129 1.247 1_655 S
O139 Co126 2.244 . S
O139 C129 1.272 1_655 S
O139 Co131 2.135 . S
Co140 O141 2.216 . S
Co140 O142 2.091 . S
Co140 O144 2.004 . S
Co140 O150 2.021 . S
Co140 O152 2.137 . S
Co140 O153 2.244 . S
O141 Co140 2.216 . S
O141 C148 1.247 . S
O142 Co140 2.091 . S
O142 C148 1.261 . S
C143 O152 1.247 . S
C143 O153 1.272 . S
O144 Co140 2.004 . S
O144 C149 1.259 . S
Co145 O146 2.061 . S
Co145 O151 2.052 . S
Co145 O153 2.135 . S
O146 Co145 2.061 . S
O146 C149 1.235 . S
C147 O150 1.238 . S
C147 O151 1.241 . S
C148 O141 1.247 . S
C148 O142 1.261 . S
C149 O144 1.259 . S
C149 O146 1.235 . S
O150 Co140 2.021 . S
O150 C147 1.238 . S
O151 Co145 2.052 . S
O151 C147 1.241 . S
O152 Co140 2.137 . S
O152 C143 1.247 . S
O153 Co140 2.244 . S
O153 C143 1.272 . S
O153 Co145 2.135 . S
Co154 O155 2.216 . S
Co154 O156 2.091 . S
Co154 O158 2.004 . S
Co154 O164 2.021 . S
Co154 O166 2.148 . S
Co154 O167 2.244 . S
O155 Co154 2.216 . S
O155 C162 1.247 . S
O156 Co154 2.091 . S
O156 C162 1.261 . S
C157 O166 1.244 1_565 S
C157 O167 1.272 1_565 S
O158 Co154 2.004 . S
O158 C163 1.259 . S
Co159 O160 2.061 . S
Co159 O165 2.052 . S
Co159 O167 2.135 . S
O160 Co159 2.061 . S
O160 C163 1.235 . S
C161 O164 1.238 . S
C161 O165 1.241 . S
C162 O155 1.247 . S
C162 O156 1.261 . S
C163 O158 1.259 . S
C163 O160 1.235 . S
O164 Co154 2.021 . S
O164 C161 1.238 . S
O165 Co159 2.052 . S
O165 C161 1.241 . S
O166 Co154 2.148 . S
O166 C157 1.244 1_545 S
O167 Co154 2.244 . S
O167 C157 1.272 1_545 S
O167 Co159 2.135 . S
Co168 O169 2.216 . S
Co168 O170 2.091 . S
Co168 O172 2.004 . S
Co168 O178 2.021 . S
Co168 O180 2.137 . S
Co168 O181 2.244 . S
O169 Co168 2.216 . S
O169 C176 1.247 . S
O170 Co168 2.091 . S
O170 C176 1.261 . S
C171 O180 1.247 . S
C171 O181 1.272 . S
O172 Co168 2.004 . S
O172 C177 1.259 . S
Co173 O174 2.061 . S
Co173 O179 2.052 . S
Co173 O181 2.135 . S
O174 Co173 2.061 . S
O174 C177 1.235 . S
C175 O178 1.238 . S
C175 O179 1.241 . S
C176 O169 1.247 . S
C176 O170 1.261 . S
C177 O172 1.259 . S
C177 O174 1.235 . S
O178 Co168 2.021 . S
O178 C175 1.238 . S
O179 Co173 2.052 . S
O179 C175 1.241 . S
O180 Co168 2.137 . S
O180 C171 1.247 . S
O181 Co168 2.244 . S
O181 C171 1.272 . S
O181 Co173 2.135 . S
Co182 O183 2.216 . S
Co182 O184 2.091 . S
Co182 O186 2.004 . S
Co182 O192 2.021 . S
Co182 O194 2.137 . S
Co182 O195 2.244 . S
O183 Co182 2.216 . S
O183 C190 1.247 . S
O184 Co182 2.091 . S
O184 C190 1.261 . S
C185 O194 1.247 . S
C185 O195 1.272 . S
O186 Co182 2.004 . S
O186 C191 1.259 . S
Co187 O188 2.061 . S
Co187 O193 2.052 . S
Co187 O195 2.135 . S
O188 Co187 2.061 . S
O188 C191 1.235 . S
C189 O192 1.238 . S
C189 O193 1.241 . S
C190 O183 1.247 . S
C190 O184 1.261 . S
C191 O186 1.259 . S
C191 O188 1.235 . S
O192 Co182 2.021 . S
O192 C189 1.238 . S
O193 Co187 2.052 . S
O193 C189 1.241 . S
O194 Co182 2.137 . S
O194 C185 1.247 . S
O195 Co182 2.244 . S
O195 C185 1.272 . S
O195 Co187 2.135 . S
Co196 O197 2.216 . S
Co196 O198 2.091 . S
Co196 O200 2.004 . S
Co196 O206 2.021 . S
Co196 O208 2.137 . S
Co196 O209 2.244 . S
O197 Co196 2.216 . S
O197 C204 1.247 . S
O198 Co196 2.091 . S
O198 C204 1.261 . S
C199 O208 1.247 . S
C199 O209 1.272 . S
O200 Co196 2.004 . S
O200 C205 1.259 . S
Co201 O202 2.061 . S
Co201 O207 2.052 . S
Co201 O209 2.135 . S
O202 Co201 2.061 . S
O202 C205 1.235 . S
C203 O206 1.238 . S
C203 O207 1.241 . S
C204 O197 1.247 . S
C204 O198 1.261 . S
C205 O200 1.259 . S
C205 O202 1.235 . S
O206 Co196 2.021 . S
O206 C203 1.238 . S
O207 Co201 2.052 . S
O207 C203 1.241 . S
O208 Co196 2.137 . S
O208 C199 1.247 . S
O209 Co196 2.244 . S
O209 C199 1.272 . S
O209 Co201 2.135 . S
Co210 O211 2.216 . S
Co210 O212 2.091 . S
Co210 O214 2.004 . S
Co210 O220 2.021 . S
Co210 O222 2.137 . S
Co210 O223 2.244 . S
O211 Co210 2.216 . S
O211 C218 1.247 . S
O212 Co210 2.091 . S
O212 C218 1.261 . S
C213 O222 1.247 . S
C213 O223 1.272 . S
O214 Co210 2.004 . S
O214 C219 1.259 . S
Co215 O216 2.061 . S
Co215 O221 2.052 . S
Co215 O223 2.135 . S
O216 Co215 2.061 . S
O216 C219 1.235 . S
C217 O220 1.238 . S
C217 O221 1.241 . S
C218 O211 1.247 . S
C218 O212 1.261 . S
C219 O214 1.259 . S
C219 O216 1.235 . S
O220 Co210 2.021 . S
O220 C217 1.238 . S
O221 Co215 2.052 . S
O221 C217 1.241 . S
O222 Co210 2.137 . S
O222 C213 1.247 . S
O223 Co210 2.244 . S
O223 C213 1.272 . S
O223 Co215 2.135 . S
Co224 O225 2.216 . S
Co224 O226 2.091 . S
Co224 O228 2.004 . S
Co224 O234 2.021 . S
Co224 O236 2.137 . S
Co224 O237 2.244 . S
O225 Co224 2.216 . S
O225 C232 1.247 . S
O226 Co224 2.091 . S
O226 C232 1.261 . S
C227 O236 1.247 . S
C227 O237 1.272 . S
O228 Co224 2.004 . S
O228 C233 1.259 . S
Co229 O230 2.061 . S
Co229 O235 2.052 . S
Co229 O237 2.135 . S
O230 Co229 2.061 . S
O230 C233 1.235 . S
C231 O234 1.238 . S
C231 O235 1.241 . S
C232 O225 1.247 . S
C232 O226 1.261 . S
C233 O228 1.259 . S
C233 O230 1.235 . S
O234 Co224 2.021 . S
O234 C231 1.238 . S
O235 Co229 2.052 . S
O235 C231 1.241 . S
O236 Co224 2.137 . S
O236 C227 1.247 . S
O237 Co224 2.244 . S
O237 C227 1.272 . S
O237 Co229 2.135 . S
Co238 O239 2.216 . S
Co238 O240 2.091 . S
Co238 O242 2.004 . S
Co238 O248 2.021 . S
Co238 O250 2.137 . S
Co238 O251 2.244 . S
O239 Co238 2.216 . S
O239 C246 1.247 . S
O240 Co238 2.091 . S
O240 C246 1.261 . S
C241 O250 1.247 . S
C241 O251 1.272 . S
O242 Co238 2.004 . S
O242 C247 1.259 . S
Co243 O244 2.061 . S
Co243 O249 2.052 . S
Co243 O251 2.135 . S
O244 Co243 2.061 . S
O244 C247 1.235 . S
C245 O248 1.238 . S
C245 O249 1.241 . S
C246 O239 1.247 . S
C246 O240 1.261 . S
C247 O242 1.259 . S
C247 O244 1.235 . S
O248 Co238 2.021 . S
O248 C245 1.238 . S
O249 Co243 2.052 . S
O249 C245 1.241 . S
O250 Co238 2.137 . S
O250 C241 1.247 . S
O251 Co238 2.244 . S
O251 C241 1.272 . S
O251 Co243 2.135 . S
Co252 O253 2.216 . S
Co252 O254 2.091 . S
Co252 O256 2.004 . S
Co252 O262 2.021 . S
Co252 O264 2.137 . S
Co252 O265 2.244 . S
O253 Co252 2.216 . S
O253 C260 1.247 . S
O254 Co252 2.091 . S
O254 C260 1.261 . S
C255 O264 1.247 . S
C255 O265 1.272 . S
O256 Co252 2.004 . S
O256 C261 1.259 . S
Co257 O258 2.061 . S
Co257 O263 2.052 . S
Co257 O265 2.135 . S
O258 Co257 2.061 . S
O258 C261 1.235 . S
C259 O262 1.238 . S
C259 O263 1.241 . S
C260 O253 1.247 . S
C260 O254 1.261 . S
C261 O256 1.259 . S
C261 O258 1.235 . S
O262 Co252 2.021 . S
O262 C259 1.238 . S
O263 Co257 2.052 . S
O263 C259 1.241 . S
O264 Co252 2.137 . S
O264 C255 1.247 . S
O265 Co252 2.244 . S
O265 C255 1.272 . S
O265 Co257 2.135 . S
Co266 O267 2.216 . S
Co266 O268 2.091 . S
Co266 O270 2.004 . S
Co266 O276 2.021 . S
Co266 O278 2.137 . S
Co266 O279 2.244 . S
O267 Co266 2.216 . S
O267 C274 1.247 . S
O268 Co266 2.091 . S
O268 C274 1.261 . S
C269 O278 1.247 . S
C269 O279 1.272 . S
O270 Co266 2.004 . S
O270 C275 1.259 . S
Co271 O272 2.061 . S
Co271 O277 2.052 . S
Co271 O279 2.135 . S
O272 Co271 2.061 . S
O272 C275 1.235 . S
C273 O276 1.238 . S
C273 O277 1.241 . S
C274 O267 1.247 . S
C274 O268 1.261 . S
C275 O270 1.259 . S
C275 O272 1.235 . S
O276 Co266 2.021 . S
O276 C273 1.238 . S
O277 Co271 2.052 . S
O277 C273 1.241 . S
O278 Co266 2.137 . S
O278 C269 1.247 . S
O279 Co266 2.244 . S
O279 C269 1.272 . S
O279 Co271 2.135 . S
Co280 O281 2.216 . S
Co280 O282 2.091 . S
Co280 O284 2.004 . S
Co280 O290 2.021 . S
Co280 O292 2.137 . S
Co280 O293 2.244 . S
O281 Co280 2.216 . S
O281 C288 1.247 . S
O282 Co280 2.091 . S
O282 C288 1.261 . S
C283 O292 1.247 . S
C283 O293 1.272 . S
O284 Co280 2.004 . S
O284 C289 1.259 . S
Co285 O286 2.061 . S
Co285 O291 2.052 . S
Co285 O293 2.135 . S
O286 Co285 2.061 . S
O286 C289 1.235 . S
C287 O290 1.238 . S
C287 O291 1.241 . S
C288 O281 1.247 . S
C288 O282 1.261 . S
C289 O284 1.259 . S
C289 O286 1.235 . S
O290 Co280 2.021 . S
O290 C287 1.238 . S
O291 Co285 2.052 . S
O291 C287 1.241 . S
O292 Co280 2.137 . S
O292 C283 1.247 . S
O293 Co280 2.244 . S
O293 C283 1.272 . S
O293 Co285 2.135 . S
Co294 O295 2.216 . S
Co294 O296 2.091 . S
Co294 O298 2.004 . S
Co294 O304 2.021 . S
Co294 O306 2.137 . S
Co294 O307 2.244 . S
O295 Co294 2.216 . S
O295 C302 1.247 . S
O296 Co294 2.091 . S
O296 C302 1.261 . S
C297 O306 1.247 . S
C297 O307 1.272 . S
O298 Co294 2.004 . S
O298 C303 1.259 . S
Co299 O300 2.061 . S
Co299 O305 2.052 . S
Co299 O307 2.135 . S
O300 Co299 2.061 . S
O300 C303 1.235 . S
C301 O304 1.238 . S
C301 O305 1.241 . S
C302 O295 1.247 . S
C302 O296 1.261 . S
C303 O298 1.259 . S
C303 O300 1.235 . S
O304 Co294 2.021 . S
O304 C301 1.238 . S
O305 Co299 2.052 . S
O305 C301 1.241 . S
O306 Co294 2.137 . S
O306 C297 1.247 . S
O307 Co294 2.244 . S
O307 C297 1.272 . S
O307 Co299 2.135 . S
Co308 O309 2.216 . S
Co308 O310 2.091 . S
Co308 O312 2.004 . S
Co308 O318 2.021 . S
Co308 O320 2.137 . S
Co308 O321 2.244 . S
O309 Co308 2.216 . S
O309 C316 1.247 . S
O310 Co308 2.091 . S
O310 C316 1.261 . S
C311 O320 1.247 . S
C311 O321 1.272 . S
O312 Co308 2.004 . S
O312 C317 1.259 . S
Co313 O314 2.061 . S
Co313 O319 2.052 . S
Co313 O321 2.135 . S
O314 Co313 2.061 . S
O314 C317 1.235 . S
C315 O318 1.238 . S
C315 O319 1.241 . S
C316 O309 1.247 . S
C316 O310 1.261 . S
C317 O312 1.259 . S
C317 O314 1.235 . S
O318 Co308 2.021 . S
O318 C315 1.238 . S
O319 Co313 2.052 . S
O319 C315 1.241 . S
O320 Co308 2.137 . S
O320 C311 1.247 . S
O321 Co308 2.244 . S
O321 C311 1.272 . S
O321 Co313 2.135 . S
Co322 O323 2.216 . S
Co322 O324 2.091 . S
Co322 O326 2.004 . S
Co322 O332 2.021 . S
Co322 O334 2.137 . S
Co322 O335 2.244 . S
O323 Co322 2.216 . S
O323 C330 1.247 . S
O324 Co322 2.091 . S
O324 C330 1.261 . S
C325 O334 1.247 . S
C325 O335 1.272 . S
O326 Co322 2.004 . S
O326 C331 1.259 . S
Co327 O328 2.061 . S
Co327 O333 2.052 . S
Co327 O335 2.135 . S
O328 Co327 2.061 . S
O328 C331 1.235 . S
C329 O332 1.238 . S
C329 O333 1.241 . S
C330 O323 1.247 . S
C330 O324 1.261 . S
C331 O326 1.259 . S
C331 O328 1.235 . S
O332 Co322 2.021 . S
O332 C329 1.238 . S
O333 Co327 2.052 . S
O333 C329 1.241 . S
O334 Co322 2.137 . S
O334 C325 1.247 . S
O335 Co322 2.244 . S
O335 C325 1.272 . S
O335 Co327 2.135 . S
Co336 O337 2.216 . S
Co336 O338 2.091 . S
Co336 O340 2.004 . S
Co336 O346 2.021 . S
Co336 O348 2.137 . S
Co336 O349 2.244 . S
O337 Co336 2.216 . S
O337 C344 1.247 . S
O338 Co336 2.091 . S
O338 C344 1.261 . S
C339 O348 1.247 . S
C339 O349 1.272 . S
O340 Co336 2.004 . S
O340 C345 1.259 . S
Co341 O342 2.061 . S
Co341 O347 2.052 . S
Co341 O349 2.135 . S
O342 Co341 2.061 . S
O342 C345 1.235 . S
C343 O346 1.238 . S
C343 O347 1.241 . S
C344 O337 1.247 . S
C344 O338 1.261 . S
C345 O340 1.259 . S
C345 O342 1.235 . S
O346 Co336 2.021 . S
O346 C343 1.238 . S
O347 Co341 2.052 . S
O347 C343 1.241 . S
O348 Co336 2.137 . S
O348 C339 1.247 . S
O349 Co336 2.244 . S
O349 C339 1.272 . S
O349 Co341 2.135 . S
Co350 O351 2.216 . S
Co350 O352 2.091 . S
Co350 O354 2.004 . S
Co350 O360 2.021 . S
Co350 O362 2.137 . S
Co350 O363 2.244 . S
O351 Co350 2.216 . S
O351 C358 1.247 . S
O352 Co350 2.091 . S
O352 C358 1.261 . S
C353 O362 1.247 . S
C353 O363 1.272 . S
O354 Co350 2.004 . S
O354 C359 1.259 . S
Co355 O356 2.061 . S
Co355 O361 2.052 . S
Co355 O363 2.135 . S
O356 Co355 2.061 . S
O356 C359 1.235 . S
C357 O360 1.238 . S
C357 O361 1.241 . S
C358 O351 1.247 . S
C358 O352 1.261 . S
C359 O354 1.259 . S
C359 O356 1.235 . S
O360 Co350 2.021 . S
O360 C357 1.238 . S
O361 Co355 2.052 . S
O361 C357 1.241 . S
O362 Co350 2.137 . S
O362 C353 1.247 . S
O363 Co350 2.244 . S
O363 C353 1.272 . S
O363 Co355 2.135 . S
Co364 O365 2.216 . S
Co364 O366 2.091 . S
Co364 O368 2.004 . S
Co364 O374 2.021 . S
Co364 O376 2.137 . S
Co364 O377 2.244 . S
O365 Co364 2.216 . S
O365 C372 1.247 . S
O366 Co364 2.091 . S
O366 C372 1.261 . S
C367 O376 1.247 . S
C367 O377 1.272 . S
O368 Co364 2.004 . S
O368 C373 1.259 . S
Co369 O370 2.061 . S
Co369 O375 2.052 . S
Co369 O377 2.135 . S
O370 Co369 2.061 . S
O370 C373 1.235 . S
C371 O374 1.238 . S
C371 O375 1.241 . S
C372 O365 1.247 . S
C372 O366 1.261 . S
C373 O368 1.259 . S
C373 O370 1.235 . S
O374 Co364 2.021 . S
O374 C371 1.238 . S
O375 Co369 2.052 . S
O375 C371 1.241 . S
O376 Co364 2.137 . S
O376 C367 1.247 . S
O377 Co364 2.244 . S
O377 C367 1.272 . S
O377 Co369 2.135 . S
Co378 O379 2.216 . S
Co378 O380 2.091 . S
Co378 O382 2.004 . S
Co378 O388 2.021 . S
Co378 O390 2.137 . S
Co378 O391 2.244 . S
O379 Co378 2.216 . S
O379 C386 1.247 . S
O380 Co378 2.091 . S
O380 C386 1.261 . S
C381 O390 1.247 . S
C381 O391 1.272 . S
O382 Co378 2.004 . S
O382 C387 1.259 . S
Co383 O384 2.061 . S
Co383 O389 2.052 . S
Co383 O391 2.135 . S
O384 Co383 2.061 . S
O384 C387 1.235 . S
C385 O388 1.238 . S
C385 O389 1.241 . S
C386 O379 1.247 . S
C386 O380 1.261 . S
C387 O382 1.259 . S
C387 O384 1.235 . S
O388 Co378 2.021 . S
O388 C385 1.238 . S
O389 Co383 2.052 . S
O389 C385 1.241 . S
O390 Co378 2.137 . S
O390 C381 1.247 . S
O391 Co378 2.244 . S
O391 C381 1.272 . S
O391 Co383 2.135 . S
Co392 O393 2.216 . S
Co392 O394 2.091 . S
Co392 O396 2.004 . S
Co392 O402 2.021 . S
Co392 O404 2.137 . S
Co392 O405 2.244 . S
O393 Co392 2.216 . S
O393 C400 1.247 . S
O394 Co392 2.091 . S
O394 C400 1.261 . S
C395 O404 1.247 . S
C395 O405 1.272 . S
O396 Co392 2.004 . S
O396 C401 1.259 . S
Co397 O398 2.061 . S
Co397 O403 2.052 . S
Co397 O405 2.135 . S
O398 Co397 2.061 . S
O398 C401 1.235 . S
C399 O402 1.238 . S
C399 O403 1.241 . S
C400 O393 1.247 . S
C400 O394 1.261 . S
C401 O396 1.259 . S
C401 O398 1.235 . S
O402 Co392 2.021 . S
O402 C399 1.238 . S
O403 Co397 2.052 . S
O403 C399 1.241 . S
O404 Co392 2.137 . S
O404 C395 1.247 . S
O405 Co392 2.244 . S
O405 C395 1.272 . S
O405 Co397 2.135 . S
Co406 O407 2.216 . S
Co406 O408 2.091 . S
Co406 O410 2.004 . S
Co406 O416 2.021 . S
Co406 O418 2.137 . S
Co406 O419 2.244 . S
O407 Co406 2.216 . S
O407 C414 1.247 . S
O408 Co406 2.091 . S
O408 C414 1.261 . S
C409 O418 1.247 . S
C409 O419 1.272 . S
O410 Co406 2.004 . S
O410 C415 1.259 . S
Co411 O412 2.061 . S
Co411 O417 2.052 . S
Co411 O419 2.135 . S
O412 Co411 2.061 . S
O412 C415 1.235 . S
C413 O416 1.238 . S
C413 O417 1.241 . S
C414 O407 1.247 . S
C414 O408 1.261 . S
C415 O410 1.259 . S
C415 O412 1.235 . S
O416 Co406 2.021 . S
O416 C413 1.238 . S
O417 Co411 2.052 . S
O417 C413 1.241 . S
O418 Co406 2.137 . S
O418 C409 1.247 . S
O419 Co406 2.244 . S
O419 C409 1.272 . S
O419 Co411 2.135 . S
Co420 O421 2.216 . S
Co420 O422 2.091 . S
Co420 O424 2.004 . S
Co420 O430 2.021 . S
Co420 O432 2.137 . S
Co420 O433 2.244 . S
O421 Co420 2.216 . S
O421 C428 1.247 . S
O422 Co420 2.091 . S
O422 C428 1.261 . S
C423 O432 1.247 . S
C423 O433 1.272 . S
O424 Co420 2.004 . S
O424 C429 1.259 . S
Co425 O426 2.061 . S
Co425 O431 2.052 . S
Co425 O433 2.135 . S
O426 Co425 2.061 . S
O426 C429 1.235 . S
C427 O430 1.238 . S
C427 O431 1.241 . S
C428 O421 1.247 . S
C428 O422 1.261 . S
C429 O424 1.259 . S
C429 O426 1.235 . S
O430 Co420 2.021 . S
O430 C427 1.238 . S
O431 Co425 2.052 . S
O431 C427 1.241 . S
O432 Co420 2.137 . S
O432 C423 1.247 . S
O433 Co420 2.244 . S
O433 C423 1.272 . S
O433 Co425 2.135 . S
Co434 O435 2.216 . S
Co434 O436 2.091 . S
Co434 O438 2.004 . S
Co434 O444 2.021 . S
Co434 O446 2.137 . S
Co434 O447 2.244 . S
O435 Co434 2.216 . S
O435 C442 1.247 . S
O436 Co434 2.091 . S
O436 C442 1.261 . S
C437 O446 1.247 . S
C437 O447 1.272 . S
O438 Co434 2.004 . S
O438 C443 1.259 . S
Co439 O440 2.061 . S
Co439 O445 2.052 . S
Co439 O447 2.135 . S
O440 Co439 2.061 . S
O440 C443 1.235 . S
C441 O444 1.238 . S
C441 O445 1.241 . S
C442 O435 1.247 . S
C442 O436 1.261 . S
C443 O438 1.259 . S
C443 O440 1.235 . S
O444 Co434 2.021 . S
O444 C441 1.238 . S
O445 Co439 2.052 . S
O445 C441 1.241 . S
O446 Co434 2.137 . S
O446 C437 1.247 . S
O447 Co434 2.244 . S
O447 C437 1.272 . S
O447 Co439 2.135 . S
Co448 O449 2.216 . S
Co448 O450 2.091 . S
Co448 O452 2.004 . S
Co448 O458 2.021 . S
Co448 O460 2.137 . S
Co448 O461 2.244 . S
O449 Co448 2.216 . S
O449 C456 1.247 . S
O450 Co448 2.091 . S
O450 C456 1.261 . S
C451 O460 1.247 . S
C451 O461 1.272 . S
O452 Co448 2.004 . S
O452 C457 1.259 . S
Co453 O454 2.061 . S
Co453 O459 2.052 . S
Co453 O461 2.135 . S
O454 Co453 2.061 . S
O454 C457 1.235 . S
C455 O458 1.238 . S
C455 O459 1.241 . S
C456 O449 1.247 . S
C456 O450 1.261 . S
C457 O452 1.259 . S
C457 O454 1.235 . S
O458 Co448 2.021 . S
O458 C455 1.238 . S
O459 Co453 2.052 . S
O459 C455 1.241 . S
O460 Co448 2.137 . S
O460 C451 1.247 . S
O461 Co448 2.244 . S
O461 C451 1.272 . S
O461 Co453 2.135 . S
Co462 O463 2.216 . S
Co462 O464 2.091 . S
Co462 O466 2.004 . S
Co462 O472 2.021 . S
Co462 O474 2.137 . S
Co462 O475 2.244 . S
O463 Co462 2.216 . S
O463 C470 1.247 . S
O464 Co462 2.091 . S
O464 C470 1.261 . S
C465 O474 1.247 . S
C465 O475 1.272 . S
O466 Co462 2.004 . S
O466 C471 1.259 . S
Co467 O468 2.061 . S
Co467 O473 2.052 . S
Co467 O475 2.135 . S
O468 Co467 2.061 . S
O468 C471 1.235 . S
C469 O472 1.238 . S
C469 O473 1.241 . S
C470 O463 1.247 . S
C470 O464 1.261 . S
C471 O466 1.259 . S
C471 O468 1.235 . S
O472 Co462 2.021 . S
O472 C469 1.238 . S
O473 Co467 2.052 . S
O473 C469 1.241 . S
O474 Co462 2.137 . S
O474 C465 1.247 . S
O475 Co462 2.244 . S
O475 C465 1.272 . S
O475 Co467 2.135 . S
Co476 O477 2.216 . S
Co476 O478 2.091 . S
Co476 O480 2.004 . S
Co476 O486 2.021 . S
Co476 O488 2.137 . S
Co476 O489 2.244 . S
O477 Co476 2.216 . S
O477 C484 1.247 . S
O478 Co476 2.091 . S
O478 C484 1.261 . S
C479 O488 1.247 . S
C479 O489 1.272 . S
O480 Co476 2.004 . S
O480 C485 1.259 . S
Co481 O482 2.061 . S
Co481 O487 2.052 . S
Co481 O489 2.135 . S
O482 Co481 2.061 . S
O482 C485 1.235 . S
C483 O486 1.238 . S
C483 O487 1.241 . S
C484 O477 1.247 . S
C484 O478 1.261 . S
C485 O480 1.259 . S
C485 O482 1.235 . S
O486 Co476 2.021 . S
O486 C483 1.238 . S
O487 Co481 2.052 . S
O487 C483 1.241 . S
O488 Co476 2.137 . S
O488 C479 1.247 . S
O489 Co476 2.244 . S
O489 C479 1.272 . S
O489 Co481 2.135 . S
Co490 O491 2.216 . S
Co490 O492 2.091 . S
Co490 O494 2.004 . S
Co490 O500 2.021 . S
Co490 O502 2.137 . S
Co490 O503 2.244 . S
O491 Co490 2.216 . S
O491 C498 1.247 . S
O492 Co490 2.091 . S
O492 C498 1.261 . S
C493 O502 1.247 . S
C493 O503 1.272 . S
O494 Co490 2.004 . S
O494 C499 1.259 . S
Co495 O496 2.061 . S
Co495 O501 2.052 . S
Co495 O503 2.135 . S
O496 Co495 2.061 . S
O496 C499 1.235 . S
C497 O500 1.238 . S
C497 O501 1.241 . S
C498 O491 1.247 . S
C498 O492 1.261 . S
C499 O494 1.259 . S
C499 O496 1.235 . S
O500 Co490 2.021 . S
O500 C497 1.238 . S
O501 Co495 2.052 . S
O501 C497 1.241 . S
O502 Co490 2.137 . S
O502 C493 1.247 . S
O503 Co490 2.244 . S
O503 C493 1.272 . S
O503 Co495 2.135 . S
H504 C512 0.950 . S
H505 C517 0.950 . S
H506 C514 0.950 . S
H507 C516 0.950 . S
H508 C518 0.950 . S
H509 C520 0.950 . S
H510 C522 0.950 . S
H511 C523 0.950 . S
C512 H504 0.950 . S
C512 C513 1.386 . S
C512 C514 1.391 . S
C513 C512 1.386 . S
C513 C517 1.393 . S
C514 H506 0.950 . S
C514 C512 1.391 . S
C514 C515 1.400 . S
C515 C514 1.400 . S
C515 C516 1.398 . S
C515 C521 1.491 . S
C516 H507 0.950 . S
C516 C515 1.398 . S
C516 C517 1.391 . S
C517 H505 0.950 . S
C517 C513 1.393 . S
C517 C516 1.391 . S
C518 H508 0.950 . S
C518 C519 1.386 . S
C518 C520 1.391 . S
C519 C518 1.386 . S
C519 C523 1.393 . S
C520 H509 0.950 . S
C520 C518 1.391 . S
C520 C521 1.400 . S
C521 C515 1.491 . S
C521 C520 1.400 . S
C521 C522 1.398 . S
C522 H510 0.950 . S
C522 C521 1.398 . S
C522 C523 1.391 . S
C523 H511 0.950 . S
C523 C519 1.393 . S
C523 C522 1.391 . S
H524 C532 0.950 . S
H525 C537 0.950 . S
H526 C534 0.950 . S
H527 C536 0.950 . S
H528 C538 0.950 . S
H529 C540 0.950 . S
H530 C542 0.950 . S
H531 C543 0.950 . S
C532 H524 0.950 . S
C532 C533 1.386 . S
C532 C534 1.391 . S
C533 C532 1.386 . S
C533 C537 1.393 . S
C534 H526 0.950 . S
C534 C532 1.391 . S
C534 C535 1.400 . S
C535 C534 1.400 . S
C535 C536 1.398 . S
C535 C541 1.491 . S
C536 H527 0.950 . S
C536 C535 1.398 . S
C536 C537 1.391 . S
C537 H525 0.950 . S
C537 C533 1.393 . S
C537 C536 1.391 . S
C538 H528 0.950 . S
C538 C539 1.386 . S
C538 C540 1.391 . S
C539 C538 1.386 . S
C539 C543 1.393 . S
C540 H529 0.950 . S
C540 C538 1.391 . S
C540 C541 1.400 . S
C541 C535 1.491 . S
C541 C540 1.400 . S
C541 C542 1.398 . S
C542 H530 0.950 . S
C542 C541 1.398 . S
C542 C543 1.391 . S
C543 H531 0.950 . S
C543 C539 1.393 . S
C543 C542 1.391 . S
H544 C552 0.950 . S
H545 C557 0.950 . S
H546 C554 0.950 . S
H547 C556 0.950 . S
H548 C558 0.950 . S
H549 C560 0.950 . S
H550 C562 0.950 . S
H551 C563 0.950 . S
C552 H544 0.950 . S
C552 C553 1.386 . S
C552 C554 1.391 . S
C553 C552 1.386 . S
C553 C557 1.393 . S
C554 H546 0.950 . S
C554 C552 1.391 . S
C554 C555 1.400 . S
C555 C554 1.400 . S
C555 C556 1.398 . S
C555 C561 1.491 . S
C556 H547 0.950 . S
C556 C555 1.398 . S
C556 C557 1.391 . S
C557 H545 0.950 . S
C557 C553 1.393 . S
C557 C556 1.391 . S
C558 H548 0.950 . S
C558 C559 1.386 . S
C558 C560 1.391 . S
C559 C558 1.386 . S
C559 C563 1.393 . S
C560 H549 0.950 . S
C560 C558 1.391 . S
C560 C561 1.400 . S
C561 C555 1.491 . S
C561 C560 1.400 . S
C561 C562 1.398 . S
C562 H550 0.950 . S
C562 C561 1.398 . S
C562 C563 1.391 . S
C563 H551 0.950 . S
C563 C559 1.393 . S
C563 C562 1.391 . S
H564 C572 0.950 . S
H565 C577 0.950 . S
H566 C574 0.950 . S
H567 C576 0.950 . S
H568 C578 0.950 . S
H569 C580 0.950 . S
H570 C582 0.950 . S
H571 C583 0.950 . S
C572 H564 0.950 . S
C572 C573 1.386 . S
C572 C574 1.391 . S
C573 C572 1.386 . S
C573 C577 1.393 . S
C574 H566 0.950 . S
C574 C572 1.391 . S
C574 C575 1.400 . S
C575 C574 1.400 . S
C575 C576 1.398 . S
C575 C581 1.491 . S
C576 H567 0.950 . S
C576 C575 1.398 . S
C576 C577 1.391 . S
C577 H565 0.950 . S
C577 C573 1.393 . S
C577 C576 1.391 . S
C578 H568 0.950 . S
C578 C579 1.386 . S
C578 C580 1.391 . S
C579 C578 1.386 . S
C579 C583 1.393 . S
C580 H569 0.950 . S
C580 C578 1.391 . S
C580 C581 1.400 . S
C581 C575 1.491 . S
C581 C580 1.400 . S
C581 C582 1.398 . S
C582 H570 0.950 . S
C582 C581 1.398 . S
C582 C583 1.391 . S
C583 H571 0.950 . S
C583 C579 1.393 . S
C583 C582 1.391 . S
H584 C592 0.950 . S
H585 C597 0.950 . S
H586 C594 0.950 . S
H587 C596 0.950 . S
H588 C598 0.950 . S
H589 C600 0.950 . S
H590 C602 0.950 . S
H591 C603 0.950 . S
C592 H584 0.950 . S
C592 C593 1.386 . S
C592 C594 1.391 . S
C593 C592 1.386 . S
C593 C597 1.393 . S
C594 H586 0.950 . S
C594 C592 1.391 . S
C594 C595 1.400 . S
C595 C594 1.400 . S
C595 C596 1.398 . S
C595 C601 1.491 . S
C596 H587 0.950 . S
C596 C595 1.398 . S
C596 C597 1.391 . S
C597 H585 0.950 . S
C597 C593 1.393 . S
C597 C596 1.391 . S
C598 H588 0.950 . S
C598 C599 1.386 . S
C598 C600 1.391 . S
C599 C598 1.386 . S
C599 C603 1.393 . S
C600 H589 0.950 . S
C600 C598 1.391 . S
C600 C601 1.400 . S
C601 C595 1.491 . S
C601 C600 1.400 . S
C601 C602 1.398 . S
C602 H590 0.950 . S
C602 C601 1.398 . S
C602 C603 1.391 . S
C603 H591 0.950 . S
C603 C599 1.393 . S
C603 C602 1.391 . S
H604 C612 0.950 . S
H605 C617 0.950 . S
H606 C614 0.950 . S
H607 C616 0.950 . S
H608 C618 0.950 . S
H609 C620 0.950 . S
H610 C622 0.950 . S
H611 C623 0.950 . S
C612 H604 0.950 . S
C612 C613 1.386 . S
C612 C614 1.391 . S
C613 C612 1.386 . S
C613 C617 1.393 . S
C614 H606 0.950 . S
C614 C612 1.391 . S
C614 C615 1.400 . S
C615 C614 1.400 . S
C615 C616 1.398 . S
C615 C621 1.491 . S
C616 H607 0.950 . S
C616 C615 1.398 . S
C616 C617 1.391 . S
C617 H605 0.950 . S
C617 C613 1.393 . S
C617 C616 1.391 . S
C618 H608 0.950 . S
C618 C619 1.386 . S
C618 C620 1.391 . S
C619 C618 1.386 . S
C619 C623 1.393 . S
C620 H609 0.950 . S
C620 C618 1.391 . S
C620 C621 1.400 . S
C621 C615 1.491 . S
C621 C620 1.400 . S
C621 C622 1.398 . S
C622 H610 0.950 . S
C622 C621 1.398 . S
C622 C623 1.391 . S
C623 H611 0.950 . S
C623 C619 1.393 . S
C623 C622 1.391 . S
H624 C632 0.950 . S
H625 C637 0.950 . S
H626 C634 0.950 . S
H627 C636 0.950 . S
H628 C638 0.950 . S
H629 C640 0.950 . S
H630 C642 0.950 . S
H631 C643 0.950 . S
C632 H624 0.950 . S
C632 C633 1.386 . S
C632 C634 1.391 . S
C633 C632 1.386 . S
C633 C637 1.393 . S
C634 H626 0.950 . S
C634 C632 1.391 . S
C634 C635 1.400 . S
C635 C634 1.400 . S
C635 C636 1.398 . S
C635 C641 1.491 . S
C636 H627 0.950 . S
C636 C635 1.398 . S
C636 C637 1.391 . S
C637 H625 0.950 . S
C637 C633 1.393 . S
C637 C636 1.391 . S
C638 H628 0.950 . S
C638 C639 1.386 . S
C638 C640 1.391 . S
C639 C638 1.386 . S
C639 C643 1.393 . S
C640 H629 0.950 . S
C640 C638 1.391 . S
C640 C641 1.400 . S
C641 C635 1.491 . S
C641 C640 1.400 . S
C641 C642 1.398 . S
C642 H630 0.950 . S
C642 C641 1.398 . S
C642 C643 1.391 . S
C643 H631 0.950 . S
C643 C639 1.393 . S
C643 C642 1.391 . S
H644 C652 0.950 . S
H645 C657 0.950 . S
H646 C654 0.950 . S
H647 C656 0.950 . S
H648 C658 0.950 . S
H649 C660 0.950 . S
H650 C662 0.950 . S
H651 C663 0.950 . S
C652 H644 0.950 . S
C652 C653 1.386 . S
C652 C654 1.391 . S
C653 C652 1.386 . S
C653 C657 1.393 . S
C654 H646 0.950 . S
C654 C652 1.391 . S
C654 C655 1.400 . S
C655 C654 1.400 . S
C655 C656 1.398 . S
C655 C661 1.491 . S
C656 H647 0.950 . S
C656 C655 1.398 . S
C656 C657 1.391 . S
C657 H645 0.950 . S
C657 C653 1.393 . S
C657 C656 1.391 . S
C658 H648 0.950 . S
C658 C659 1.386 . S
C658 C660 1.391 . S
C659 C658 1.386 . S
C659 C663 1.393 . S
C660 H649 0.950 . S
C660 C658 1.391 . S
C660 C661 1.400 . S
C661 C655 1.491 . S
C661 C660 1.400 . S
C661 C662 1.398 . S
C662 H650 0.950 . S
C662 C661 1.398 . S
C662 C663 1.391 . S
C663 H651 0.950 . S
C663 C659 1.393 . S
C663 C662 1.391 . S
H664 C672 0.950 . S
H665 C677 0.950 . S
H666 C674 0.950 . S
H667 C676 0.950 . S
H668 C678 0.950 . S
H669 C680 0.950 . S
H670 C682 0.950 . S
H671 C683 0.950 . S
C672 H664 0.950 . S
C672 C673 1.386 . S
C672 C674 1.391 . S
C673 C672 1.386 . S
C673 C677 1.393 . S
C674 H666 0.950 . S
C674 C672 1.391 . S
C674 C675 1.400 . S
C675 C674 1.400 . S
C675 C676 1.398 . S
C675 C681 1.491 . S
C676 H667 0.950 . S
C676 C675 1.398 . S
C676 C677 1.391 . S
C677 H665 0.950 . S
C677 C673 1.393 . S
C677 C676 1.391 . S
C678 H668 0.950 . S
C678 C679 1.386 . S
C678 C680 1.391 . S
C679 C678 1.386 . S
C679 C683 1.393 . S
C680 H669 0.950 . S
C680 C678 1.391 . S
C680 C681 1.400 . S
C681 C675 1.491 . S
C681 C680 1.400 . S
C681 C682 1.398 . S
C682 H670 0.950 . S
C682 C681 1.398 . S
C682 C683 1.391 . S
C683 H671 0.950 . S
C683 C679 1.393 . S
C683 C682 1.391 . S
H684 C692 0.950 . S
H685 C697 0.950 . S
H686 C694 0.950 . S
H687 C696 0.950 . S
H688 C698 0.950 . S
H689 C700 0.950 . S
H690 C702 0.950 . S
H691 C703 0.950 . S
C692 H684 0.950 . S
C692 C693 1.386 . S
C692 C694 1.391 . S
C693 C692 1.386 . S
C693 C697 1.393 . S
C694 H686 0.950 . S
C694 C692 1.391 . S
C694 C695 1.400 . S
C695 C694 1.400 . S
C695 C696 1.398 . S
C695 C701 1.491 . S
C696 H687 0.950 . S
C696 C695 1.398 . S
C696 C697 1.391 . S
C697 H685 0.950 . S
C697 C693 1.393 . S
C697 C696 1.391 . S
C698 H688 0.950 . S
C698 C699 1.386 . S
C698 C700 1.391 . S
C699 C698 1.386 . S
C699 C703 1.393 . S
C700 H689 0.950 . S
C700 C698 1.391 . S
C700 C701 1.400 . S
C701 C695 1.491 . S
C701 C700 1.400 . S
C701 C702 1.398 . S
C702 H690 0.950 . S
C702 C701 1.398 . S
C702 C703 1.391 . S
C703 H691 0.950 . S
C703 C699 1.393 . S
C703 C702 1.391 . S
H704 C712 0.950 . S
H705 C717 0.950 . S
H706 C714 0.950 . S
H707 C716 0.950 . S
H708 C718 0.950 . S
H709 C720 0.950 . S
H710 C722 0.950 . S
H711 C723 0.950 . S
C712 H704 0.950 . S
C712 C713 1.386 . S
C712 C714 1.391 . S
C713 C712 1.386 . S
C713 C717 1.393 . S
C714 H706 0.950 . S
C714 C712 1.391 . S
C714 C715 1.400 . S
C715 C714 1.400 . S
C715 C716 1.398 . S
C715 C721 1.491 . S
C716 H707 0.950 . S
C716 C715 1.398 . S
C716 C717 1.391 . S
C717 H705 0.950 . S
C717 C713 1.393 . S
C717 C716 1.391 . S
C718 H708 0.950 . S
C718 C719 1.386 . S
C718 C720 1.391 . S
C719 C718 1.386 . S
C719 C723 1.393 . S
C720 H709 0.950 . S
C720 C718 1.391 . S
C720 C721 1.400 . S
C721 C715 1.491 . S
C721 C720 1.400 . S
C721 C722 1.398 . S
C722 H710 0.950 . S
C722 C721 1.398 . S
C722 C723 1.391 . S
C723 H711 0.950 . S
C723 C719 1.393 . S
C723 C722 1.391 . S
H724 C732 0.950 . S
H725 C737 0.950 . S
H726 C734 0.950 . S
H727 C736 0.950 . S
H728 C738 0.950 . S
H729 C740 0.950 . S
H730 C742 0.950 . S
H731 C743 0.950 . S
C732 H724 0.950 . S
C732 C733 1.386 . S
C732 C734 1.391 . S
C733 C732 1.386 . S
C733 C737 1.393 . S
C734 H726 0.950 . S
C734 C732 1.391 . S
C734 C735 1.400 . S
C735 C734 1.400 . S
C735 C736 1.398 . S
C735 C741 1.491 . S
C736 H727 0.950 . S
C736 C735 1.398 . S
C736 C737 1.391 . S
C737 H725 0.950 . S
C737 C733 1.393 . S
C737 C736 1.391 . S
C738 H728 0.950 . S
C738 C739 1.386 . S
C738 C740 1.391 . S
C739 C738 1.386 . S
C739 C743 1.393 . S
C740 H729 0.950 . S
C740 C738 1.391 . S
C740 C741 1.400 . S
C741 C735 1.491 . S
C741 C740 1.400 . S
C741 C742 1.398 . S
C742 H730 0.950 . S
C742 C741 1.398 . S
C742 C743 1.391 . S
C743 H731 0.950 . S
C743 C739 1.393 . S
C743 C742 1.391 . S
H744 C752 0.950 . S
H745 C757 0.950 . S
H746 C754 0.950 1_655 S
H747 C756 0.950 . S
H748 C758 0.950 . S
H749 C760 0.950 1_455 S
H750 C762 0.950 . S
H751 C763 0.950 . S
C752 H744 0.950 . S
C752 C753 1.386 . S
C752 C754 1.391 . S
C753 C752 1.386 . S
C753 C757 1.393 . S
C754 H746 0.950 1_455 S
C754 C752 1.391 . S
C754 C755 1.400 . S
C755 C754 1.400 . S
C755 C756 1.398 . S
C755 C761 1.491 1_455 S
C756 H747 0.950 . S
C756 C755 1.398 . S
C756 C757 1.391 . S
C757 H745 0.950 . S
C757 C753 1.393 . S
C757 C756 1.391 . S
C758 H748 0.950 . S
C758 C759 1.386 . S
C758 C760 1.391 . S
C759 C758 1.386 . S
C759 C763 1.393 . S
C760 H749 0.950 1_655 S
C760 C758 1.391 . S
C760 C761 1.400 . S
C761 C755 1.491 1_655 S
C761 C760 1.400 . S
C761 C762 1.398 . S
C762 H750 0.950 . S
C762 C761 1.398 . S
C762 C763 1.391 . S
C763 H751 0.950 . S
C763 C759 1.393 . S
C763 C762 1.391 . S
H764 C772 0.950 . S
H765 C777 0.950 . S
H766 C774 0.950 . S
H767 C776 0.950 . S
H768 C778 0.950 . S
H769 C780 0.950 . S
H770 C782 0.950 . S
H771 C783 0.950 . S
C772 H764 0.950 . S
C772 C773 1.386 . S
C772 C774 1.391 . S
C773 C772 1.386 . S
C773 C777 1.393 . S
C774 H766 0.950 . S
C774 C772 1.391 . S
C774 C775 1.400 . S
C775 C774 1.400 . S
C775 C776 1.398 . S
C775 C781 1.491 . S
C776 H767 0.950 . S
C776 C775 1.398 . S
C776 C777 1.391 . S
C777 H765 0.950 . S
C777 C773 1.393 . S
C777 C776 1.391 . S
C778 H768 0.950 . S
C778 C779 1.386 . S
C778 C780 1.391 . S
C779 C778 1.386 . S
C779 C783 1.393 . S
C780 H769 0.950 . S
C780 C778 1.391 . S
C780 C781 1.400 . S
C781 C775 1.491 . S
C781 C780 1.400 . S
C781 C782 1.398 . S
C782 H770 0.950 . S
C782 C781 1.398 . S
C782 C783 1.391 . S
C783 H771 0.950 . S
C783 C779 1.393 . S
C783 C782 1.391 . S
H784 C792 0.950 . S
H785 C797 0.950 . S
H786 C794 0.950 . S
H787 C796 0.950 1_565 S
H788 C798 0.950 . S
H789 C800 0.950 . S
H790 C802 0.950 1_545 S
H791 C803 0.950 . S
C792 H784 0.950 . S
C792 C793 1.386 . S
C792 C794 1.391 . S
C793 C792 1.386 . S
C793 C797 1.393 . S
C794 H786 0.950 . S
C794 C792 1.391 . S
C794 C795 1.400 . S
C795 C794 1.400 . S
C795 C796 1.398 . S
C795 C801 1.491 1_545 S
C796 H787 0.950 1_545 S
C796 C795 1.398 . S
C796 C797 1.391 . S
C797 H785 0.950 . S
C797 C793 1.393 . S
C797 C796 1.391 . S
C798 H788 0.950 . S
C798 C799 1.386 . S
C798 C800 1.391 . S
C799 C798 1.386 . S
C799 C803 1.393 . S
C800 H789 0.950 . S
C800 C798 1.391 . S
C800 C801 1.400 . S
C801 C795 1.491 1_565 S
C801 C800 1.400 . S
C801 C802 1.398 . S
C802 H790 0.950 1_565 S
C802 C801 1.398 . S
C802 C803 1.391 . S
C803 H791 0.950 . S
C803 C799 1.393 . S
C803 C802 1.391 . S
H804 C812 0.950 . S
H805 C817 0.950 . S
H806 C814 0.950 1_545 S
H807 C816 0.950 1_556 S
H808 C818 0.950 . S
H809 C820 0.950 1_565 S
H810 C822 0.950 1_554 S
H811 C823 0.950 . S
C812 H804 0.950 . S
C812 C813 1.386 . S
C812 C814 1.391 . S
C813 C812 1.386 . S
C813 C817 1.393 . S
C814 H806 0.950 1_565 S
C814 C812 1.391 . S
C814 C815 1.400 . S
C815 C814 1.400 . S
C815 C816 1.398 . S
C815 C821 1.491 1_564 S
C816 H807 0.950 1_554 S
C816 C815 1.398 . S
C816 C817 1.391 . S
C817 H805 0.950 . S
C817 C813 1.393 . S
C817 C816 1.391 . S
C818 H808 0.950 . S
C818 C819 1.386 . S
C818 C820 1.391 . S
C819 C818 1.386 . S
C819 C823 1.393 . S
C820 H809 0.950 1_545 S
C820 C818 1.391 . S
C820 C821 1.400 . S
C821 C815 1.491 1_546 S
C821 C820 1.400 . S
C821 C822 1.398 . S
C822 H810 0.950 1_556 S
C822 C821 1.398 . S
C822 C823 1.391 . S
C823 H811 0.950 . S
C823 C819 1.393 . S
C823 C822 1.391 . S
H824 C832 0.950 . S
H825 C837 0.950 . S
H826 C834 0.950 1_554 S
H827 C836 0.950 . S
H828 C838 0.950 . S
H829 C840 0.950 1_556 S
H830 C842 0.950 . S
H831 C843 0.950 . S
C832 H824 0.950 . S
C832 C833 1.386 . S
C832 C834 1.391 . S
C833 C832 1.386 . S
C833 C837 1.393 . S
C834 H826 0.950 1_556 S
C834 C832 1.391 . S
C834 C835 1.400 . S
C835 C834 1.400 . S
C835 C836 1.398 . S
C835 C841 1.491 1_656 S
C836 H827 0.950 . S
C836 C835 1.398 . S
C836 C837 1.391 . S
C837 H825 0.950 . S
C837 C833 1.393 . S
C837 C836 1.391 . S
C838 H828 0.950 . S
C838 C839 1.386 . S
C838 C840 1.391 . S
C839 C838 1.386 . S
C839 C843 1.393 . S
C840 H829 0.950 1_554 S
C840 C838 1.391 . S
C840 C841 1.400 . S
C841 C835 1.491 1_454 S
C841 C840 1.400 . S
C841 C842 1.398 . S
C842 H830 0.950 . S
C842 C841 1.398 . S
C842 C843 1.391 . S
C843 H831 0.950 . S
C843 C839 1.393 . S
C843 C842 1.391 . S
H844 C852 0.950 . S
H845 C857 0.950 . S
H846 C854 0.950 . S
H847 C856 0.950 1_554 S
H848 C858 0.950 . S
H849 C860 0.950 . S
H850 C862 0.950 1_556 S
H851 C863 0.950 . S
C852 H844 0.950 . S
C852 C853 1.386 . S
C852 C854 1.391 . S
C853 C852 1.386 . S
C853 C857 1.393 . S
C854 H846 0.950 . S
C854 C852 1.391 . S
C854 C855 1.400 . S
C855 C854 1.400 . S
C855 C856 1.398 . S
C855 C861 1.491 1_556 S
C856 H847 0.950 1_556 S
C856 C855 1.398 . S
C856 C857 1.391 . S
C857 H845 0.950 . S
C857 C853 1.393 . S
C857 C856 1.391 . S
C858 H848 0.950 . S
C858 C859 1.386 . S
C858 C860 1.391 . S
C859 C858 1.386 . S
C859 C863 1.393 . S
C860 H849 0.950 . S
C860 C858 1.391 . S
C860 C861 1.400 . S
C861 C855 1.491 1_554 S
C861 C860 1.400 . S
C861 C862 1.398 . S
C862 H850 0.950 1_554 S
C862 C861 1.398 . S
C862 C863 1.391 . S
C863 H851 0.950 . S
C863 C859 1.393 . S
C863 C862 1.391 . S
H864 C872 0.950 . S
H865 C877 0.950 . S
H866 C874 0.950 . S
H867 C876 0.950 . S
H868 C878 0.950 . S
H869 C880 0.950 . S
H870 C882 0.950 . S
H871 C883 0.950 . S
C872 H864 0.950 . S
C872 C873 1.386 . S
C872 C874 1.391 . S
C873 C872 1.386 . S
C873 C877 1.393 1_545 S
C874 H866 0.950 . S
C874 C872 1.391 . S
C874 C875 1.400 1_545 S
C875 C874 1.400 1_565 S
C875 C876 1.398 . S
C875 C881 1.491 . S
C876 H867 0.950 . S
C876 C875 1.398 . S
C876 C877 1.391 . S
C877 H865 0.950 . S
C877 C873 1.393 1_565 S
C877 C876 1.391 . S
C878 H868 0.950 . S
C878 C879 1.386 . S
C878 C880 1.391 . S
C879 C878 1.386 . S
C879 C883 1.393 . S
C880 H869 0.950 . S
C880 C878 1.391 . S
C880 C881 1.400 . S
C881 C875 1.491 . S
C881 C880 1.400 . S
C881 C882 1.398 . S
C882 H870 0.950 . S
C882 C881 1.398 . S
C882 C883 1.391 . S
C883 H871 0.950 . S
C883 C879 1.393 . S
C883 C882 1.391 . S
H884 C892 0.950 . S
H885 C897 0.950 . S
H886 C894 0.950 1_655 S
H887 C896 0.950 . S
H888 C898 0.950 . S
H889 C900 0.950 . S
H890 C902 0.950 . S
H891 C903 0.950 . S
C892 H884 0.950 . S
C892 C893 1.386 . S
C892 C894 1.391 . S
C893 C892 1.386 . S
C893 C897 1.393 . S
C894 H886 0.950 1_455 S
C894 C892 1.391 . S
C894 C895 1.400 . S
C895 C894 1.400 . S
C895 C896 1.398 . S
C895 C901 1.491 . S
C896 H887 0.950 . S
C896 C895 1.398 . S
C896 C897 1.391 . S
C897 H885 0.950 . S
C897 C893 1.393 . S
C897 C896 1.391 . S
C898 H888 0.950 . S
C898 C899 1.386 1_455 S
C898 C900 1.391 . S
C899 C898 1.386 1_655 S
C899 C903 1.393 . S
C900 H889 0.950 . S
C900 C898 1.391 . S
C900 C901 1.400 . S
C901 C895 1.491 . S
C901 C900 1.400 . S
C901 C902 1.398 1_455 S
C902 H890 0.950 . S
C902 C901 1.398 1_655 S
C902 C903 1.391 . S
C903 H891 0.950 . S
C903 C899 1.393 . S
C903 C902 1.391 . S
H904 C912 0.950 . S
H905 C917 0.950 . S
H906 C914 0.950 . S
H907 C916 0.950 . S
H908 C918 0.950 . S
H909 C920 0.950 . S
H910 C922 0.950 . S
H911 C923 0.950 . S
C912 H904 0.950 . S
C912 C913 1.386 . S
C912 C914 1.391 . S
C913 C912 1.386 . S
C913 C917 1.393 . S
C914 H906 0.950 . S
C914 C912 1.391 . S
C914 C915 1.400 . S
C915 C914 1.400 . S
C915 C916 1.398 . S
C915 C921 1.491 . S
C916 H907 0.950 . S
C916 C915 1.398 . S
C916 C917 1.391 . S
C917 H905 0.950 . S
C917 C913 1.393 . S
C917 C916 1.391 . S
C918 H908 0.950 . S
C918 C919 1.386 . S
C918 C920 1.391 . S
C919 C918 1.386 . S
C919 C923 1.393 . S
C920 H909 0.950 . S
C920 C918 1.391 . S
C920 C921 1.400 . S
C921 C915 1.491 . S
C921 C920 1.400 . S
C921 C922 1.398 . S
C922 H910 0.950 . S
C922 C921 1.398 . S
C922 C923 1.391 . S
C923 H911 0.950 . S
C923 C919 1.393 . S
C923 C922 1.391 . S
H924 C932 0.950 . S
H925 C937 0.950 . S
H926 C934 0.950 . S
H927 C936 0.950 1_455 S
H928 C938 0.950 . S
H929 C940 0.950 . S
H930 C942 0.950 . S
H931 C943 0.950 . S
C932 H924 0.950 . S
C932 C933 1.386 . S
C932 C934 1.391 . S
C933 C932 1.386 . S
C933 C937 1.393 . S
C934 H926 0.950 . S
C934 C932 1.391 . S
C934 C935 1.400 . S
C935 C934 1.400 . S
C935 C936 1.398 . S
C935 C941 1.491 . S
C936 H927 0.950 1_655 S
C936 C935 1.398 . S
C936 C937 1.391 . S
C937 H925 0.950 . S
C937 C933 1.393 . S
C937 C936 1.391 . S
C938 H928 0.950 . S
C938 C939 1.386 . S
C938 C940 1.391 . S
C939 C938 1.386 . S
C939 C943 1.393 1_455 S
C940 H929 0.950 . S
C940 C938 1.391 . S
C940 C941 1.400 1_455 S
C941 C935 1.491 . S
C941 C940 1.400 1_655 S
C941 C942 1.398 . S
C942 H930 0.950 . S
C942 C941 1.398 . S
C942 C943 1.391 . S
C943 H931 0.950 . S
C943 C939 1.393 1_655 S
C943 C942 1.391 . S
H944 C952 0.950 . S
H945 C957 0.950 . S
H946 C954 0.950 . S
H947 C956 0.950 . S
H948 C958 0.950 . S
H949 C960 0.950 . S
H950 C962 0.950 . S
H951 C963 0.950 . S
C952 H944 0.950 . S
C952 C953 1.386 . S
C952 C954 1.391 . S
C953 C952 1.386 . S
C953 C957 1.393 . S
C954 H946 0.950 . S
C954 C952 1.391 . S
C954 C955 1.400 . S
C955 C954 1.400 . S
C955 C956 1.398 . S
C955 C961 1.491 . S
C956 H947 0.950 . S
C956 C955 1.398 . S
C956 C957 1.391 . S
C957 H945 0.950 . S
C957 C953 1.393 . S
C957 C956 1.391 . S
C958 H948 0.950 . S
C958 C959 1.386 . S
C958 C960 1.391 . S
C959 C958 1.386 . S
C959 C963 1.393 . S
C960 H949 0.950 . S
C960 C958 1.391 . S
C960 C961 1.400 . S
C961 C955 1.491 . S
C961 C960 1.400 . S
C961 C962 1.398 . S
C962 H950 0.950 . S
C962 C961 1.398 . S
C962 C963 1.391 . S
C963 H951 0.950 . S
C963 C959 1.393 . S
C963 C962 1.391 . S
H964 C972 0.950 . S
H965 C977 0.950 . S
H966 C974 0.950 . S
H967 C976 0.950 . S
H968 C978 0.950 . S
H969 C980 0.950 . S
H970 C982 0.950 . S
H971 C983 0.950 . S
C972 H964 0.950 . S
C972 C973 1.386 . S
C972 C974 1.391 . S
C973 C972 1.386 . S
C973 C977 1.393 . S
C974 H966 0.950 . S
C974 C972 1.391 . S
C974 C975 1.400 . S
C975 C974 1.400 . S
C975 C976 1.398 . S
C975 C981 1.491 . S
C976 H967 0.950 . S
C976 C975 1.398 . S
C976 C977 1.391 . S
C977 H965 0.950 . S
C977 C973 1.393 . S
C977 C976 1.391 . S
C978 H968 0.950 . S
C978 C979 1.386 . S
C978 C980 1.391 . S
C979 C978 1.386 . S
C979 C983 1.393 1_565 S
C980 H969 0.950 . S
C980 C978 1.391 . S
C980 C981 1.400 1_565 S
C981 C975 1.491 . S
C981 C980 1.400 1_545 S
C981 C982 1.398 . S
C982 H970 0.950 . S
C982 C981 1.398 . S
C982 C983 1.391 . S
C983 H971 0.950 . S
C983 C979 1.393 1_545 S
C983 C982 1.391 . S
H984 C992 0.950 . S
H985 C997 0.950 . S
H986 C994 0.950 . S
H987 C996 0.950 . S
H988 C998 0.950 . S
H989 C1000 0.950 . S
H990 C1002 0.950 1_565 S
H991 C1003 0.950 . S
C992 H984 0.950 . S
C992 C993 1.386 . S
C992 C994 1.391 . S
C993 C992 1.386 . S
C993 C997 1.393 1_565 S
C994 H986 0.950 . S
C994 C992 1.391 . S
C994 C995 1.400 1_565 S
C995 C994 1.400 1_545 S
C995 C996 1.398 . S
C995 C1001 1.491 . S
C996 H987 0.950 . S
C996 C995 1.398 . S
C996 C997 1.391 . S
C997 H985 0.950 . S
C997 C993 1.393 1_545 S
C997 C996 1.391 . S
C998 H988 0.950 . S
C998 C999 1.386 . S
C998 C1000 1.391 . S
C999 C998 1.386 . S
C999 C1003 1.393 . S
C1000 H989 0.950 . S
C1000 C998 1.391 . S
C1000 C1001 1.400 . S
C1001 C995 1.491 . S
C1001 C1000 1.400 . S
C1001 C1002 1.398 . S
C1002 H990 0.950 1_545 S
C1002 C1001 1.398 . S
C1002 C1003 1.391 . S
C1003 H991 0.950 . S
C1003 C999 1.393 . S
C1003 C1002 1.391 . S
H1004 C1012 0.950 . S
H1005 C1017 0.950 . S
H1006 C1014 0.950 . S
H1007 C1016 0.950 . S
H1008 C1018 0.950 . S
H1009 C1020 0.950 . S
H1010 C1022 0.950 . S
H1011 C1023 0.950 . S
C1012 H1004 0.950 . S
C1012 C1013 1.386 . S
C1012 C1014 1.391 . S
C1013 C1012 1.386 . S
C1013 C1017 1.393 . S
C1014 H1006 0.950 . S
C1014 C1012 1.391 . S
C1014 C1015 1.400 . S
C1015 C1014 1.400 . S
C1015 C1016 1.398 . S
C1015 C1021 1.491 . S
C1016 H1007 0.950 . S
C1016 C1015 1.398 . S
C1016 C1017 1.391 . S
C1017 H1005 0.950 . S
C1017 C1013 1.393 . S
C1017 C1016 1.391 . S
C1018 H1008 0.950 . S
C1018 C1019 1.386 1_655 S
C1018 C1020 1.391 . S
C1019 C1018 1.386 1_455 S
C1019 C1023 1.393 . S
C1020 H1009 0.950 . S
C1020 C1018 1.391 . S
C1020 C1021 1.400 . S
C1021 C1015 1.491 . S
C1021 C1020 1.400 . S
C1021 C1022 1.398 1_655 S
C1022 H1010 0.950 . S
C1022 C1021 1.398 1_455 S
C1022 C1023 1.391 . S
C1023 H1011 0.950 . S
C1023 C1019 1.393 . S
C1023 C1022 1.391 . S
H1024 C1032 0.950 . S
H1025 C1037 0.950 . S
H1026 C1034 0.950 . S
H1027 C1036 0.950 . S
H1028 C1038 0.950 . S
H1029 C1040 0.950 . S
H1030 C1042 0.950 . S
H1031 C1043 0.950 . S
C1032 H1024 0.950 . S
C1032 C1033 1.386 . S
C1032 C1034 1.391 . S
C1033 C1032 1.386 . S
C1033 C1037 1.393 . S
C1034 H1026 0.950 . S
C1034 C1032 1.391 . S
C1034 C1035 1.400 . S
C1035 C1034 1.400 . S
C1035 C1036 1.398 . S
C1035 C1041 1.491 . S
C1036 H1027 0.950 . S
C1036 C1035 1.398 . S
C1036 C1037 1.391 . S
C1037 H1025 0.950 . S
C1037 C1033 1.393 . S
C1037 C1036 1.391 . S
C1038 H1028 0.950 . S
C1038 C1039 1.386 . S
C1038 C1040 1.391 . S
C1039 C1038 1.386 . S
C1039 C1043 1.393 . S
C1040 H1029 0.950 . S
C1040 C1038 1.391 . S
C1040 C1041 1.400 . S
C1041 C1035 1.491 . S
C1041 C1040 1.400 . S
C1041 C1042 1.398 . S
C1042 H1030 0.950 . S
C1042 C1041 1.398 . S
C1042 C1043 1.391 . S
C1043 H1031 0.950 . S
C1043 C1039 1.393 . S
C1043 C1042 1.391 . S
H1044 C1052 0.950 . S
H1045 C1057 0.950 . S
H1046 C1054 0.950 . S
H1047 C1056 0.950 . S
H1048 C1058 0.950 . S
H1049 C1060 0.950 . S
H1050 C1062 0.950 . S
H1051 C1063 0.950 . S
C1052 H1044 0.950 . S
C1052 C1053 1.386 . S
C1052 C1054 1.391 1_655 S
C1053 C1052 1.386 . S
C1053 C1057 1.393 . S
C1054 H1046 0.950 . S
C1054 C1052 1.391 1_455 S
C1054 C1055 1.400 . S
C1055 C1054 1.400 . S
C1055 C1056 1.398 . S
C1055 C1061 1.491 . S
C1056 H1047 0.950 . S
C1056 C1055 1.398 . S
C1056 C1057 1.391 1_455 S
C1057 H1045 0.950 . S
C1057 C1053 1.393 . S
C1057 C1056 1.391 1_655 S
C1058 H1048 0.950 . S
C1058 C1059 1.386 . S
C1058 C1060 1.391 . S
C1059 C1058 1.386 . S
C1059 C1063 1.393 . S
C1060 H1049 0.950 . S
C1060 C1058 1.391 . S
C1060 C1061 1.400 . S
C1061 C1055 1.491 . S
C1061 C1060 1.400 . S
C1061 C1062 1.398 . S
C1062 H1050 0.950 . S
C1062 C1061 1.398 . S
C1062 C1063 1.391 . S
C1063 H1051 0.950 . S
C1063 C1059 1.393 . S
C1063 C1062 1.391 . S
H1064 C1072 0.950 . S
H1065 C1077 0.950 . S
H1066 C1074 0.950 . S
H1067 C1076 0.950 . S
H1068 C1078 0.950 . S
H1069 C1080 0.950 . S
H1070 C1082 0.950 . S
H1071 C1083 0.950 . S
C1072 H1064 0.950 . S
C1072 C1073 1.386 . S
C1072 C1074 1.391 . S
C1073 C1072 1.386 . S
C1073 C1077 1.393 . S
C1074 H1066 0.950 . S
C1074 C1072 1.391 . S
C1074 C1075 1.400 . S
C1075 C1074 1.400 . S
C1075 C1076 1.398 . S
C1075 C1081 1.491 . S
C1076 H1067 0.950 . S
C1076 C1075 1.398 . S
C1076 C1077 1.391 . S
C1077 H1065 0.950 . S
C1077 C1073 1.393 . S
C1077 C1076 1.391 . S
C1078 H1068 0.950 . S
C1078 C1079 1.386 . S
C1078 C1080 1.391 . S
C1079 C1078 1.386 . S
C1079 C1083 1.393 . S
C1080 H1069 0.950 . S
C1080 C1078 1.391 . S
C1080 C1081 1.400 . S
C1081 C1075 1.491 . S
C1081 C1080 1.400 . S
C1081 C1082 1.398 . S
C1082 H1070 0.950 . S
C1082 C1081 1.398 . S
C1082 C1083 1.391 . S
C1083 H1071 0.950 . S
C1083 C1079 1.393 . S
C1083 C1082 1.391 . S
H1084 C1092 0.950 . S
H1085 C1097 0.950 . S
H1086 C1094 0.950 . S
H1087 C1096 0.950 . S
H1088 C1098 0.950 . S
H1089 C1100 0.950 1_545 S
H1090 C1102 0.950 . S
H1091 C1103 0.950 . S
C1092 H1084 0.950 . S
C1092 C1093 1.386 1_565 S
C1092 C1094 1.391 . S
C1093 C1092 1.386 1_545 S
C1093 C1097 1.393 . S
C1094 H1086 0.950 . S
C1094 C1092 1.391 . S
C1094 C1095 1.400 . S
C1095 C1094 1.400 . S
C1095 C1096 1.398 1_565 S
C1095 C1101 1.491 . S
C1096 H1087 0.950 . S
C1096 C1095 1.398 1_545 S
C1096 C1097 1.391 . S
C1097 H1085 0.950 . S
C1097 C1093 1.393 . S
C1097 C1096 1.391 . S
C1098 H1088 0.950 . S
C1098 C1099 1.386 . S
C1098 C1100 1.391 . S
C1099 C1098 1.386 . S
C1099 C1103 1.393 . S
C1100 H1089 0.950 1_565 S
C1100 C1098 1.391 . S
C1100 C1101 1.400 . S
C1101 C1095 1.491 . S
C1101 C1100 1.400 . S
C1101 C1102 1.398 . S
C1102 H1090 0.950 . S
C1102 C1101 1.398 . S
C1102 C1103 1.391 . S
C1103 H1091 0.950 . S
C1103 C1099 1.393 . S
C1103 C1102 1.391 . S
H1104 C1112 0.950 . S
H1105 C1117 0.950 . S
H1106 C1114 0.950 . S
H1107 C1116 0.950 . S
H1108 C1118 0.950 . S
H1109 C1120 0.950 . S
H1110 C1122 0.950 . S
H1111 C1123 0.950 . S
C1112 H1104 0.950 . S
C1112 C1113 1.386 . S
C1112 C1114 1.391 . S
C1113 C1112 1.386 . S
C1113 C1117 1.393 . S
C1114 H1106 0.950 . S
C1114 C1112 1.391 . S
C1114 C1115 1.400 . S
C1115 C1114 1.400 . S
C1115 C1116 1.398 . S
C1115 C1121 1.491 . S
C1116 H1107 0.950 . S
C1116 C1115 1.398 . S
C1116 C1117 1.391 . S
C1117 H1105 0.950 . S
C1117 C1113 1.393 . S
C1117 C1116 1.391 . S
C1118 H1108 0.950 . S
C1118 C1119 1.386 . S
C1118 C1120 1.391 . S
C1119 C1118 1.386 . S
C1119 C1123 1.393 . S
C1120 H1109 0.950 . S
C1120 C1118 1.391 . S
C1120 C1121 1.400 . S
C1121 C1115 1.491 . S
C1121 C1120 1.400 . S
C1121 C1122 1.398 . S
C1122 H1110 0.950 . S
C1122 C1121 1.398 . S
C1122 C1123 1.391 . S
C1123 H1111 0.950 . S
C1123 C1119 1.393 . S
C1123 C1122 1.391 . S
H1124 C1132 0.950 . S
H1125 C1137 0.950 . S
H1126 C1134 0.950 . S
H1127 C1136 0.950 . S
H1128 C1138 0.950 . S
H1129 C1140 0.950 . S
H1130 C1142 0.950 . S
H1131 C1143 0.950 . S
C1132 H1124 0.950 . S
C1132 C1133 1.386 . S
C1132 C1134 1.391 . S
C1133 C1132 1.386 . S
C1133 C1137 1.393 . S
C1134 H1126 0.950 . S
C1134 C1132 1.391 . S
C1134 C1135 1.400 . S
C1135 C1134 1.400 . S
C1135 C1136 1.398 . S
C1135 C1141 1.491 1_545 S
C1136 H1127 0.950 . S
C1136 C1135 1.398 . S
C1136 C1137 1.391 . S
C1137 H1125 0.950 . S
C1137 C1133 1.393 . S
C1137 C1136 1.391 . S
C1138 H1128 0.950 . S
C1138 C1139 1.386 . S
C1138 C1140 1.391 . S
C1139 C1138 1.386 . S
C1139 C1143 1.393 . S
C1140 H1129 0.950 . S
C1140 C1138 1.391 . S
C1140 C1141 1.400 . S
C1141 C1135 1.491 1_565 S
C1141 C1140 1.400 . S
C1141 C1142 1.398 . S
C1142 H1130 0.950 . S
C1142 C1141 1.398 . S
C1142 C1143 1.391 . S
C1143 H1131 0.950 . S
C1143 C1139 1.393 . S
C1143 C1142 1.391 . S
H1144 C1152 0.950 . S
H1145 C1157 0.950 . S
H1146 C1154 0.950 . S
H1147 C1156 0.950 . S
H1148 C1158 0.950 . S
H1149 C1160 0.950 . S
H1150 C1162 0.950 . S
H1151 C1163 0.950 . S
C1152 H1144 0.950 . S
C1152 C1153 1.386 . S
C1152 C1154 1.391 . S
C1153 C1152 1.386 . S
C1153 C1157 1.393 . S
C1154 H1146 0.950 . S
C1154 C1152 1.391 . S
C1154 C1155 1.400 . S
C1155 C1154 1.400 . S
C1155 C1156 1.398 . S
C1155 C1161 1.491 1_655 S
C1156 H1147 0.950 . S
C1156 C1155 1.398 . S
C1156 C1157 1.391 . S
C1157 H1145 0.950 . S
C1157 C1153 1.393 . S
C1157 C1156 1.391 . S
C1158 H1148 0.950 . S
C1158 C1159 1.386 . S
C1158 C1160 1.391 . S
C1159 C1158 1.386 . S
C1159 C1163 1.393 . S
C1160 H1149 0.950 . S
C1160 C1158 1.391 . S
C1160 C1161 1.400 . S
C1161 C1155 1.491 1_455 S
C1161 C1160 1.400 . S
C1161 C1162 1.398 . S
C1162 H1150 0.950 . S
C1162 C1161 1.398 . S
C1162 C1163 1.391 . S
C1163 H1151 0.950 . S
C1163 C1159 1.393 . S
C1163 C1162 1.391 . S
H1164 C1172 0.950 . S
H1165 C1177 0.950 . S
H1166 C1174 0.950 . S
H1167 C1176 0.950 . S
H1168 C1178 0.950 . S
H1169 C1180 0.950 . S
H1170 C1182 0.950 . S
H1171 C1183 0.950 . S
C1172 H1164 0.950 . S
C1172 C1173 1.386 . S
C1172 C1174 1.391 . S
C1173 C1172 1.386 . S
C1173 C1177 1.393 . S
C1174 H1166 0.950 . S
C1174 C1172 1.391 . S
C1174 C1175 1.400 . S
C1175 C1174 1.400 . S
C1175 C1176 1.398 . S
C1175 C1181 1.491 . S
C1176 H1167 0.950 . S
C1176 C1175 1.398 . S
C1176 C1177 1.391 . S
C1177 H1165 0.950 . S
C1177 C1173 1.393 . S
C1177 C1176 1.391 . S
C1178 H1168 0.950 . S
C1178 C1179 1.386 . S
C1178 C1180 1.391 . S
C1179 C1178 1.386 . S
C1179 C1183 1.393 . S
C1180 H1169 0.950 . S
C1180 C1178 1.391 . S
C1180 C1181 1.400 . S
C1181 C1175 1.491 . S
C1181 C1180 1.400 . S
C1181 C1182 1.398 . S
C1182 H1170 0.950 . S
C1182 C1181 1.398 . S
C1182 C1183 1.391 . S
C1183 H1171 0.950 . S
C1183 C1179 1.393 . S
C1183 C1182 1.391 . S
H1184 C1192 0.950 . S
H1185 C1197 0.950 . S
H1186 C1194 0.950 . S
H1187 C1196 0.950 . S
H1188 C1198 0.950 . S
H1189 C1200 0.950 . S
H1190 C1202 0.950 . S
H1191 C1203 0.950 . S
C1192 H1184 0.950 . S
C1192 C1193 1.386 . S
C1192 C1194 1.391 . S
C1193 C1192 1.386 . S
C1193 C1197 1.393 . S
C1194 H1186 0.950 . S
C1194 C1192 1.391 . S
C1194 C1195 1.400 . S
C1195 C1194 1.400 . S
C1195 C1196 1.398 . S
C1195 C1201 1.491 1_565 S
C1196 H1187 0.950 . S
C1196 C1195 1.398 . S
C1196 C1197 1.391 . S
C1197 H1185 0.950 . S
C1197 C1193 1.393 . S
C1197 C1196 1.391 . S
C1198 H1188 0.950 . S
C1198 C1199 1.386 . S
C1198 C1200 1.391 . S
C1199 C1198 1.386 . S
C1199 C1203 1.393 . S
C1200 H1189 0.950 . S
C1200 C1198 1.391 . S
C1200 C1201 1.400 . S
C1201 C1195 1.491 1_545 S
C1201 C1200 1.400 . S
C1201 C1202 1.398 . S
C1202 H1190 0.950 . S
C1202 C1201 1.398 . S
C1202 C1203 1.391 . S
C1203 H1191 0.950 . S
C1203 C1199 1.393 . S
C1203 C1202 1.391 . S
H1204 C1212 0.950 . S
H1205 C1217 0.950 . S
H1206 C1214 0.950 . S
H1207 C1216 0.950 . S
H1208 C1218 0.950 . S
H1209 C1220 0.950 . S
H1210 C1222 0.950 . S
H1211 C1223 0.950 . S
C1212 H1204 0.950 . S
C1212 C1213 1.386 . S
C1212 C1214 1.391 . S
C1213 C1212 1.386 . S
C1213 C1217 1.393 . S
C1214 H1206 0.950 . S
C1214 C1212 1.391 . S
C1214 C1215 1.400 . S
C1215 C1214 1.400 . S
C1215 C1216 1.398 . S
C1215 C1221 1.491 1_655 S
C1216 H1207 0.950 . S
C1216 C1215 1.398 . S
C1216 C1217 1.391 . S
C1217 H1205 0.950 . S
C1217 C1213 1.393 . S
C1217 C1216 1.391 . S
C1218 H1208 0.950 . S
C1218 C1219 1.386 . S
C1218 C1220 1.391 . S
C1219 C1218 1.386 . S
C1219 C1223 1.393 . S
C1220 H1209 0.950 . S
C1220 C1218 1.391 . S
C1220 C1221 1.400 . S
C1221 C1215 1.491 1_455 S
C1221 C1220 1.400 . S
C1221 C1222 1.398 . S
C1222 H1210 0.950 . S
C1222 C1221 1.398 . S
C1222 C1223 1.391 . S
C1223 H1211 0.950 . S
C1223 C1219 1.393 . S
C1223 C1222 1.391 . S
H1224 C1232 0.950 . S
H1225 C1237 0.950 . S
H1226 C1234 0.950 . S
H1227 C1236 0.950 . S
H1228 C1238 0.950 . S
H1229 C1240 0.950 . S
H1230 C1242 0.950 . S
H1231 C1243 0.950 . S
C1232 H1224 0.950 . S
C1232 C1233 1.386 . S
C1232 C1234 1.391 . S
C1233 C1232 1.386 . S
C1233 C1237 1.393 . S
C1234 H1226 0.950 . S
C1234 C1232 1.391 . S
C1234 C1235 1.400 . S
C1235 C1234 1.400 . S
C1235 C1236 1.398 . S
C1235 C1241 1.491 . S
C1236 H1227 0.950 . S
C1236 C1235 1.398 . S
C1236 C1237 1.391 . S
C1237 H1225 0.950 . S
C1237 C1233 1.393 . S
C1237 C1236 1.391 . S
C1238 H1228 0.950 . S
C1238 C1239 1.386 . S
C1238 C1240 1.391 . S
C1239 C1238 1.386 . S
C1239 C1243 1.393 . S
C1240 H1229 0.950 . S
C1240 C1238 1.391 . S
C1240 C1241 1.400 . S
C1241 C1235 1.491 . S
C1241 C1240 1.400 . S
C1241 C1242 1.398 . S
C1242 H1230 0.950 . S
C1242 C1241 1.398 . S
C1242 C1243 1.391 . S
C1243 H1231 0.950 . S
C1243 C1239 1.393 . S
C1243 C1242 1.391 . S
H1244 C1252 0.950 . S
H1245 C1257 0.950 . S
H1246 C1254 0.950 . S
H1247 C1256 0.950 . S
H1248 C1258 0.950 . S
H1249 C1260 0.950 . S
H1250 C1262 0.950 . S
H1251 C1263 0.950 . S
C1252 H1244 0.950 . S
C1252 C1253 1.386 . S
C1252 C1254 1.391 . S
C1253 C1252 1.386 . S
C1253 C1257 1.393 . S
C1254 H1246 0.950 . S
C1254 C1252 1.391 . S
C1254 C1255 1.400 1_545 S
C1255 C1254 1.400 1_565 S
C1255 C1256 1.398 . S
C1255 C1261 1.491 . S
C1256 H1247 0.950 . S
C1256 C1255 1.398 . S
C1256 C1257 1.391 1_565 S
C1257 H1245 0.950 . S
C1257 C1253 1.393 . S
C1257 C1256 1.391 1_545 S
C1258 H1248 0.950 . S
C1258 C1259 1.386 . S
C1258 C1260 1.391 . S
C1259 C1258 1.386 . S
C1259 C1263 1.393 . S
C1260 H1249 0.950 . S
C1260 C1258 1.391 . S
C1260 C1261 1.400 . S
C1261 C1255 1.491 . S
C1261 C1260 1.400 . S
C1261 C1262 1.398 . S
C1262 H1250 0.950 . S
C1262 C1261 1.398 . S
C1262 C1263 1.391 . S
C1263 H1251 0.950 . S
C1263 C1259 1.393 . S
C1263 C1262 1.391 . S
H1264 C1272 0.950 . S
H1265 C1277 0.950 . S
H1266 C1274 0.950 . S
H1267 C1276 0.950 . S
H1268 C1278 0.950 . S
H1269 C1280 0.950 . S
H1270 C1282 0.950 . S
H1271 C1283 0.929 1_545 S
C1272 H1264 0.950 . S
C1272 C1273 1.386 . S
C1272 C1274 1.391 . S
C1273 C1272 1.386 . S
C1273 C1277 1.393 . S
C1274 H1266 0.950 . S
C1274 C1272 1.391 . S
C1274 C1275 1.400 1_655 S
C1275 C1274 1.400 1_455 S
C1275 C1276 1.398 . S
C1275 C1281 1.491 . S
C1276 H1267 0.950 . S
C1276 C1275 1.398 . S
C1276 C1277 1.391 1_455 S
C1277 H1265 0.950 . S
C1277 C1273 1.393 . S
C1277 C1276 1.391 1_655 S
C1278 H1268 0.950 . S
C1278 C1279 1.386 . S
C1278 C1280 1.391 . S
C1279 C1278 1.386 . S
C1279 C1283 1.393 . S
C1280 H1269 0.950 . S
C1280 C1278 1.391 . S
C1280 C1281 1.400 . S
C1281 C1275 1.491 . S
C1281 C1280 1.400 . S
C1281 C1282 1.398 . S
C1282 H1270 0.950 . S
C1282 C1281 1.398 . S
C1282 C1283 1.391 . S
C1283 H1271 0.929 1_565 S
C1283 C1279 1.393 . S
C1283 C1282 1.391 . S
H1284 C1292 0.950 . S
H1285 C1297 0.950 . S
H1286 C1294 0.950 . S
H1287 C1296 0.950 . S
H1288 C1298 0.950 . S
H1289 C1300 0.950 . S
H1290 C1302 0.950 . S
H1291 C1303 0.950 . S
C1292 H1284 0.950 . S
C1292 C1293 1.386 . S
C1292 C1294 1.391 . S
C1293 C1292 1.386 . S
C1293 C1297 1.393 . S
C1294 H1286 0.950 . S
C1294 C1292 1.391 . S
C1294 C1295 1.400 . S
C1295 C1294 1.400 . S
C1295 C1296 1.398 . S
C1295 C1301 1.491 . S
C1296 H1287 0.950 . S
C1296 C1295 1.398 . S
C1296 C1297 1.391 . S
C1297 H1285 0.950 . S
C1297 C1293 1.393 . S
C1297 C1296 1.391 . S
C1298 H1288 0.950 . S
C1298 C1299 1.386 . S
C1298 C1300 1.391 . S
C1299 C1298 1.386 . S
C1299 C1303 1.393 . S
C1300 H1289 0.950 . S
C1300 C1298 1.391 . S
C1300 C1301 1.400 . S
C1301 C1295 1.491 . S
C1301 C1300 1.400 . S
C1301 C1302 1.398 . S
C1302 H1290 0.950 . S
C1302 C1301 1.398 . S
C1302 C1303 1.391 . S
C1303 H1291 0.950 . S
C1303 C1299 1.393 . S
C1303 C1302 1.391 . S
H1304 C1312 0.950 1_455 S
H1305 C1317 0.950 . S
H1306 C1314 0.950 . S
H1307 C1316 0.950 . S
H1308 C1318 0.950 . S
H1309 C1320 0.950 . S
H1310 C1322 0.950 . S
H1311 C1323 0.950 . S
C1312 H1304 0.950 1_655 S
C1312 C1313 1.386 . S
C1312 C1314 1.391 . S
C1313 C1312 1.386 . S
C1313 C1317 1.393 . S
C1314 H1306 0.950 . S
C1314 C1312 1.391 . S
C1314 C1315 1.400 . S
C1315 C1314 1.400 . S
C1315 C1316 1.398 . S
C1315 C1321 1.491 . S
C1316 H1307 0.950 . S
C1316 C1315 1.398 . S
C1316 C1317 1.391 . S
C1317 H1305 0.950 . S
C1317 C1313 1.393 . S
C1317 C1316 1.391 . S
C1318 H1308 0.950 . S
C1318 C1319 1.386 . S
C1318 C1320 1.391 1_565 S
C1319 C1318 1.386 . S
C1319 C1323 1.393 . S
C1320 H1309 0.950 . S
C1320 C1318 1.391 1_545 S
C1320 C1321 1.400 . S
C1321 C1315 1.491 . S
C1321 C1320 1.400 . S
C1321 C1322 1.398 1_545 S
C1322 H1310 0.950 . S
C1322 C1321 1.398 1_565 S
C1322 C1323 1.391 . S
C1323 H1311 0.950 . S
C1323 C1319 1.393 . S
C1323 C1322 1.391 . S
H1324 C1332 0.950 . S
H1325 C1337 0.950 . S
H1326 C1334 0.950 1_655 S
H1327 C1336 0.950 1_655 S
H1328 C1338 0.950 . S
H1329 C1340 0.950 . S
H1330 C1342 0.950 . S
H1331 C1343 0.950 . S
C1332 H1324 0.950 . S
C1332 C1333 1.386 . S
C1332 C1334 1.391 . S
C1333 C1332 1.386 . S
C1333 C1337 1.393 . S
C1334 H1326 0.950 1_455 S
C1334 C1332 1.391 . S
C1334 C1335 1.400 1_455 S
C1335 C1334 1.400 1_655 S
C1335 C1336 1.398 1_655 S
C1335 C1341 1.491 . S
C1336 H1327 0.950 1_455 S
C1336 C1335 1.398 1_455 S
C1336 C1337 1.391 . S
C1337 H1325 0.950 . S
C1337 C1333 1.393 . S
C1337 C1336 1.391 . S
C1338 H1328 0.950 . S
C1338 C1339 1.386 . S
C1338 C1340 1.391 . S
C1339 C1338 1.386 . S
C1339 C1343 1.393 . S
C1340 H1329 0.950 . S
C1340 C1338 1.391 . S
C1340 C1341 1.400 . S
C1341 C1335 1.491 . S
C1341 C1340 1.400 . S
C1341 C1342 1.398 . S
C1342 H1330 0.950 . S
C1342 C1341 1.398 . S
C1342 C1343 1.391 . S
C1343 H1331 0.950 . S
C1343 C1339 1.393 . S
C1343 C1342 1.391 . S
H1344 C1352 0.950 . S
H1345 C1357 0.950 . S
H1346 C1354 0.950 . S
H1347 C1356 0.950 . S
H1348 C1358 0.950 . S
H1349 C1360 0.950 . S
H1350 C1362 0.950 . S
H1351 C1363 0.950 . S
C1352 H1344 0.950 . S
C1352 C1353 1.386 . S
C1352 C1354 1.391 . S
C1353 C1352 1.386 . S
C1353 C1357 1.393 . S
C1354 H1346 0.950 . S
C1354 C1352 1.391 . S
C1354 C1355 1.400 . S
C1355 C1354 1.400 . S
C1355 C1356 1.398 . S
C1355 C1361 1.491 . S
C1356 H1347 0.950 . S
C1356 C1355 1.398 . S
C1356 C1357 1.391 . S
C1357 H1345 0.950 . S
C1357 C1353 1.393 . S
C1357 C1356 1.391 . S
C1358 H1348 0.950 . S
C1358 C1359 1.386 . S
C1358 C1360 1.391 . S
C1359 C1358 1.386 . S
C1359 C1363 1.393 . S
C1360 H1349 0.950 . S
C1360 C1358 1.391 . S
C1360 C1361 1.400 . S
C1361 C1355 1.491 . S
C1361 C1360 1.400 . S
C1361 C1362 1.398 . S
C1362 H1350 0.950 . S
C1362 C1361 1.398 . S
C1362 C1363 1.391 . S
C1363 H1351 0.950 . S
C1363 C1359 1.393 . S
C1363 C1362 1.391 . S
H1364 C1372 0.950 . S
H1365 C1377 0.950 . S
H1366 C1374 0.950 1_545 S
H1367 C1376 0.950 1_545 S
H1368 C1378 0.950 . S
H1369 C1380 0.950 . S
H1370 C1382 0.950 . S
H1371 C1383 0.950 . S
C1372 H1364 0.950 . S
C1372 C1373 1.386 . S
C1372 C1374 1.391 . S
C1373 C1372 1.386 . S
C1373 C1377 1.393 . S
C1374 H1366 0.950 1_565 S
C1374 C1372 1.391 . S
C1374 C1375 1.400 1_565 S
C1375 C1374 1.400 1_545 S
C1375 C1376 1.398 1_545 S
C1375 C1381 1.491 . S
C1376 H1367 0.950 1_565 S
C1376 C1375 1.398 1_565 S
C1376 C1377 1.391 . S
C1377 H1365 0.950 . S
C1377 C1373 1.393 . S
C1377 C1376 1.391 . S
C1378 H1368 0.950 . S
C1378 C1379 1.386 . S
C1378 C1380 1.391 . S
C1379 C1378 1.386 . S
C1379 C1383 1.393 . S
C1380 H1369 0.950 . S
C1380 C1378 1.391 . S
C1380 C1381 1.400 . S
C1381 C1375 1.491 . S
C1381 C1380 1.400 . S
C1381 C1382 1.398 . S
C1382 H1370 0.950 . S
C1382 C1381 1.398 . S
C1382 C1383 1.391 . S
C1383 H1371 0.950 . S
C1383 C1379 1.393 . S
C1383 C1382 1.391 . S
H1384 C1392 0.950 . S
H1385 C1397 0.950 . S
H1386 C1394 0.950 1_655 S
H1387 C1396 0.931 1_655 S
H1388 C1398 0.950 . S
H1389 C1400 0.950 . S
H1390 C1402 0.950 . S
H1391 C1403 0.950 . S
C1392 H1384 0.950 . S
C1392 C1393 1.386 . S
C1392 C1394 1.391 . S
C1393 C1392 1.386 . S
C1393 C1397 1.393 . S
C1394 H1386 0.950 1_455 S
C1394 C1392 1.391 . S
C1394 C1395 1.400 1_455 S
C1395 C1394 1.400 1_655 S
C1395 C1396 1.397 1_655 S
C1395 C1401 1.491 . S
C1396 H1387 0.931 1_455 S
C1396 C1395 1.397 1_455 S
C1396 C1397 1.411 . S
C1397 H1385 0.950 . S
C1397 C1393 1.393 . S
C1397 C1396 1.411 . S
C1398 H1388 0.950 . S
C1398 C1399 1.386 . S
C1398 C1400 1.391 . S
C1399 C1398 1.386 . S
C1399 C1403 1.393 . S
C1400 H1389 0.950 . S
C1400 C1398 1.391 . S
C1400 C1401 1.400 . S
C1401 C1395 1.491 . S
C1401 C1400 1.400 . S
C1401 C1402 1.398 . S
C1402 H1390 0.950 . S
C1402 C1401 1.398 . S
C1402 C1403 1.391 . S
C1403 H1391 0.950 . S
C1403 C1399 1.393 . S
C1403 C1402 1.391 . S
H1404 C1412 0.950 . S
H1405 C1417 0.950 . S
H1406 C1414 0.950 . S
H1407 C1416 0.950 . S
H1408 C1418 0.950 . S
H1409 C1420 0.950 . S
H1410 C1422 0.950 . S
H1411 C1423 0.950 . S
C1412 H1404 0.950 . S
C1412 C1413 1.386 . S
C1412 C1414 1.391 . S
C1413 C1412 1.386 . S
C1413 C1417 1.393 . S
C1414 H1406 0.950 . S
C1414 C1412 1.391 . S
C1414 C1415 1.400 . S
C1415 C1414 1.400 . S
C1415 C1416 1.398 . S
C1415 C1421 1.491 . S
C1416 H1407 0.950 . S
C1416 C1415 1.398 . S
C1416 C1417 1.391 . S
C1417 H1405 0.950 . S
C1417 C1413 1.393 . S
C1417 C1416 1.391 . S
C1418 H1408 0.950 . S
C1418 C1419 1.386 . S
C1418 C1420 1.391 . S
C1419 C1418 1.386 . S
C1419 C1423 1.393 . S
C1420 H1409 0.950 . S
C1420 C1418 1.391 . S
C1420 C1421 1.400 . S
C1421 C1415 1.491 . S
C1421 C1420 1.400 . S
C1421 C1422 1.398 . S
C1422 H1410 0.950 . S
C1422 C1421 1.398 . S
C1422 C1423 1.391 . S
C1423 H1411 0.950 . S
C1423 C1419 1.393 . S
C1423 C1422 1.391 . S
H1424 C1432 0.950 . S
H1425 C1437 0.950 . S
H1426 C1434 0.950 . S
H1427 C1436 0.950 . S
H1428 C1438 0.950 1_655 S
H1429 C1440 0.950 . S
H1430 C1442 0.950 . S
H1431 C1443 0.950 . S
C1432 H1424 0.950 . S
C1432 C1433 1.386 . S
C1432 C1434 1.391 1_545 S
C1433 C1432 1.386 . S
C1433 C1437 1.393 . S
C1434 H1426 0.950 . S
C1434 C1432 1.391 1_565 S
C1434 C1435 1.400 . S
C1435 C1434 1.400 . S
C1435 C1436 1.398 1_565 S
C1435 C1441 1.491 . S
C1436 H1427 0.950 . S
C1436 C1435 1.398 1_545 S
C1436 C1437 1.391 . S
C1437 H1425 0.950 . S
C1437 C1433 1.393 . S
C1437 C1436 1.391 . S
C1438 H1428 0.950 1_455 S
C1438 C1439 1.386 . S
C1438 C1440 1.391 . S
C1439 C1438 1.386 . S
C1439 C1443 1.393 . S
C1440 H1429 0.950 . S
C1440 C1438 1.391 . S
C1440 C1441 1.400 . S
C1441 C1435 1.491 . S
C1441 C1440 1.400 . S
C1441 C1442 1.398 . S
C1442 H1430 0.950 . S
C1442 C1441 1.398 . S
C1442 C1443 1.391 . S
C1443 H1431 0.950 . S
C1443 C1439 1.393 . S
C1443 C1442 1.391 . S
H1444 C1452 0.950 . S
H1445 C1457 0.950 . S
H1446 C1454 0.950 . S
H1447 C1456 0.950 . S
H1448 C1458 0.950 . S
H1449 C1460 0.950 1_455 S
H1450 C1462 0.950 1_455 S
H1451 C1463 0.950 . S
C1452 H1444 0.950 . S
C1452 C1453 1.386 . S
C1452 C1454 1.391 . S
C1453 C1452 1.386 . S
C1453 C1457 1.393 . S
C1454 H1446 0.950 . S
C1454 C1452 1.391 . S
C1454 C1455 1.400 . S
C1455 C1454 1.400 . S
C1455 C1456 1.398 . S
C1455 C1461 1.491 . S
C1456 H1447 0.950 . S
C1456 C1455 1.398 . S
C1456 C1457 1.391 . S
C1457 H1445 0.950 . S
C1457 C1453 1.393 . S
C1457 C1456 1.391 . S
C1458 H1448 0.950 . S
C1458 C1459 1.386 . S
C1458 C1460 1.391 . S
C1459 C1458 1.386 . S
C1459 C1463 1.393 . S
C1460 H1449 0.950 1_655 S
C1460 C1458 1.391 . S
C1460 C1461 1.400 1_655 S
C1461 C1455 1.491 . S
C1461 C1460 1.400 1_455 S
C1461 C1462 1.398 1_455 S
C1462 H1450 0.950 1_655 S
C1462 C1461 1.398 1_655 S
C1462 C1463 1.391 . S
C1463 H1451 0.950 . S
C1463 C1459 1.393 . S
C1463 C1462 1.391 . S
H1464 C1472 0.950 . S
H1465 C1477 0.950 . S
H1466 C1474 0.950 . S
H1467 C1476 0.950 . S
H1468 C1478 0.950 . S
H1469 C1480 0.950 . S
H1470 C1482 0.950 . S
H1471 C1483 0.950 . S
C1472 H1464 0.950 . S
C1472 C1473 1.386 . S
C1472 C1474 1.391 . S
C1473 C1472 1.386 . S
C1473 C1477 1.393 . S
C1474 H1466 0.950 . S
C1474 C1472 1.391 . S
C1474 C1475 1.400 . S
C1475 C1474 1.400 . S
C1475 C1476 1.398 . S
C1475 C1481 1.491 . S
C1476 H1467 0.950 . S
C1476 C1475 1.398 . S
C1476 C1477 1.391 . S
C1477 H1465 0.950 . S
C1477 C1473 1.393 . S
C1477 C1476 1.391 . S
C1478 H1468 0.950 . S
C1478 C1479 1.386 . S
C1478 C1480 1.391 . S
C1479 C1478 1.386 . S
C1479 C1483 1.393 . S
C1480 H1469 0.950 . S
C1480 C1478 1.391 . S
C1480 C1481 1.400 . S
C1481 C1475 1.491 . S
C1481 C1480 1.400 . S
C1481 C1482 1.398 . S
C1482 H1470 0.950 . S
C1482 C1481 1.398 . S
C1482 C1483 1.391 . S
C1483 H1471 0.950 . S
C1483 C1479 1.393 . S
C1483 C1482 1.391 . S
H1484 C1492 0.950 . S
H1485 C1497 0.950 . S
H1486 C1494 0.950 . S
H1487 C1496 0.950 . S
H1488 C1498 0.950 . S
H1489 C1500 0.950 . S
H1490 C1502 0.950 . S
H1491 C1503 0.950 . S
C1492 H1484 0.950 . S
C1492 C1493 1.386 . S
C1492 C1494 1.391 . S
C1493 C1492 1.386 . S
C1493 C1497 1.393 . S
C1494 H1486 0.950 . S
C1494 C1492 1.391 . S
C1494 C1495 1.400 . S
C1495 C1494 1.400 . S
C1495 C1496 1.398 . S
C1495 C1501 1.491 . S
C1496 H1487 0.950 . S
C1496 C1495 1.398 . S
C1496 C1497 1.391 . S
C1497 H1485 0.950 . S
C1497 C1493 1.393 . S
C1497 C1496 1.391 . S
C1498 H1488 0.950 . S
C1498 C1499 1.386 . S
C1498 C1500 1.391 . S
C1499 C1498 1.386 . S
C1499 C1503 1.393 . S
C1500 H1489 0.950 . S
C1500 C1498 1.391 . S
C1500 C1501 1.400 . S
C1501 C1495 1.491 . S
C1501 C1500 1.400 . S
C1501 C1502 1.398 . S
C1502 H1490 0.950 . S
C1502 C1501 1.398 . S
C1502 C1503 1.391 . S
C1503 H1491 0.950 . S
C1503 C1499 1.393 . S
C1503 C1502 1.391 . S
H1504 C1512 0.950 . S
H1505 C1517 0.950 . S
H1506 C1514 0.950 . S
H1507 C1516 0.950 . S
H1508 C1518 0.950 . S
H1509 C1520 0.950 . S
H1510 C1522 0.950 . S
H1511 C1523 0.950 . S
C1512 H1504 0.950 . S
C1512 C1513 1.386 . S
C1512 C1514 1.391 . S
C1513 C1512 1.386 . S
C1513 C1517 1.393 . S
C1514 H1506 0.950 . S
C1514 C1512 1.391 . S
C1514 C1515 1.400 . S
C1515 C1514 1.400 . S
C1515 C1516 1.398 . S
C1515 C1521 1.491 . S
C1516 H1507 0.950 . S
C1516 C1515 1.398 . S
C1516 C1517 1.391 . S
C1517 H1505 0.950 . S
C1517 C1513 1.393 . S
C1517 C1516 1.391 . S
C1518 H1508 0.950 . S
C1518 C1519 1.386 . S
C1518 C1520 1.391 . S
C1519 C1518 1.386 . S
C1519 C1523 1.393 . S
C1520 H1509 0.950 . S
C1520 C1518 1.391 . S
C1520 C1521 1.400 . S
C1521 C1515 1.491 . S
C1521 C1520 1.400 . S
C1521 C1522 1.398 . S
C1522 H1510 0.950 . S
C1522 C1521 1.398 . S
C1522 C1523 1.391 . S
C1523 H1511 0.950 . S
C1523 C1519 1.393 . S
C1523 C1522 1.391 . S
H1524 C1532 0.950 . S
H1525 C1537 0.950 . S
H1526 C1534 0.950 . S
H1527 C1536 0.950 . S
H1528 C1538 0.950 . S
H1529 C1540 0.950 . S
H1530 C1542 0.950 . S
H1531 C1543 0.950 . S
C1532 H1524 0.950 . S
C1532 C1533 1.386 . S
C1532 C1534 1.391 . S
C1533 C1532 1.386 . S
C1533 C1537 1.393 . S
C1534 H1526 0.950 . S
C1534 C1532 1.391 . S
C1534 C1535 1.400 . S
C1535 C1534 1.400 . S
C1535 C1536 1.398 . S
C1535 C1541 1.491 . S
C1536 H1527 0.950 . S
C1536 C1535 1.398 . S
C1536 C1537 1.391 . S
C1537 H1525 0.950 . S
C1537 C1533 1.393 . S
C1537 C1536 1.391 . S
C1538 H1528 0.950 . S
C1538 C1539 1.386 . S
C1538 C1540 1.391 . S
C1539 C1538 1.386 . S
C1539 C1543 1.393 . S
C1540 H1529 0.950 . S
C1540 C1538 1.391 . S
C1540 C1541 1.400 . S
C1541 C1535 1.491 . S
C1541 C1540 1.400 . S
C1541 C1542 1.398 . S
C1542 H1530 0.950 . S
C1542 C1541 1.398 . S
C1542 C1543 1.391 . S
C1543 H1531 0.950 . S
C1543 C1539 1.393 . S
C1543 C1542 1.391 . S
H1544 C1552 0.950 . S
H1545 C1557 0.950 . S
H1546 C1554 0.950 . S
H1547 C1556 0.950 . S
H1548 C1558 0.950 . S
H1549 C1560 0.950 . S
H1550 C1562 0.950 . S
H1551 C1563 0.950 . S
C1552 H1544 0.950 . S
C1552 C1553 1.386 . S
C1552 C1554 1.391 . S
C1553 C1552 1.386 . S
C1553 C1557 1.393 . S
C1554 H1546 0.950 . S
C1554 C1552 1.391 . S
C1554 C1555 1.400 . S
C1555 C1554 1.400 . S
C1555 C1556 1.398 . S
C1555 C1561 1.491 . S
C1556 H1547 0.950 . S
C1556 C1555 1.398 . S
C1556 C1557 1.391 . S
C1557 H1545 0.950 . S
C1557 C1553 1.393 . S
C1557 C1556 1.391 . S
C1558 H1548 0.950 . S
C1558 C1559 1.386 . S
C1558 C1560 1.391 . S
C1559 C1558 1.386 . S
C1559 C1563 1.393 . S
C1560 H1549 0.950 . S
C1560 C1558 1.391 . S
C1560 C1561 1.400 . S
C1561 C1555 1.491 . S
C1561 C1560 1.400 . S
C1561 C1562 1.398 . S
C1562 H1550 0.950 . S
C1562 C1561 1.398 . S
C1562 C1563 1.391 . S
C1563 H1551 0.950 . S
C1563 C1559 1.393 . S
C1563 C1562 1.391 . S
H1564 C1572 0.950 . S
H1565 C1577 0.950 . S
H1566 C1574 0.950 . S
H1567 C1576 0.950 . S
H1568 C1578 0.950 . S
H1569 C1580 0.950 . S
H1570 C1582 0.950 . S
H1571 C1583 0.950 . S
C1572 H1564 0.950 . S
C1572 C1573 1.386 . S
C1572 C1574 1.391 . S
C1573 C1572 1.386 . S
C1573 C1577 1.393 . S
C1574 H1566 0.950 . S
C1574 C1572 1.391 . S
C1574 C1575 1.400 . S
C1575 C1574 1.400 . S
C1575 C1576 1.398 . S
C1575 C1581 1.491 . S
C1576 H1567 0.950 . S
C1576 C1575 1.398 . S
C1576 C1577 1.391 . S
C1577 H1565 0.950 . S
C1577 C1573 1.393 . S
C1577 C1576 1.391 . S
C1578 H1568 0.950 . S
C1578 C1579 1.386 . S
C1578 C1580 1.391 . S
C1579 C1578 1.386 . S
C1579 C1583 1.393 . S
C1580 H1569 0.950 . S
C1580 C1578 1.391 . S
C1580 C1581 1.400 . S
C1581 C1575 1.491 . S
C1581 C1580 1.400 . S
C1581 C1582 1.398 . S
C1582 H1570 0.950 . S
C1582 C1581 1.398 . S
C1582 C1583 1.391 . S
C1583 H1571 0.950 . S
C1583 C1579 1.393 . S
C1583 C1582 1.391 . S
H1584 C1592 0.950 . S
H1585 C1597 0.950 . S
H1586 C1594 0.950 . S
H1587 C1596 0.950 . S
H1588 C1598 0.950 . S
H1589 C1600 0.950 . S
H1590 C1602 0.950 . S
H1591 C1603 0.950 . S
C1592 H1584 0.950 . S
C1592 C1593 1.386 . S
C1592 C1594 1.391 . S
C1593 C1592 1.386 . S
C1593 C1597 1.393 . S
C1594 H1586 0.950 . S
C1594 C1592 1.391 . S
C1594 C1595 1.400 . S
C1595 C1594 1.400 . S
C1595 C1596 1.398 . S
C1595 C1601 1.491 . S
C1596 H1587 0.950 . S
C1596 C1595 1.398 . S
C1596 C1597 1.391 . S
C1597 H1585 0.950 . S
C1597 C1593 1.393 . S
C1597 C1596 1.391 . S
C1598 H1588 0.950 . S
C1598 C1599 1.386 . S
C1598 C1600 1.391 . S
C1599 C1598 1.386 . S
C1599 C1603 1.393 . S
C1600 H1589 0.950 . S
C1600 C1598 1.391 . S
C1600 C1601 1.400 . S
C1601 C1595 1.491 . S
C1601 C1600 1.400 . S
C1601 C1602 1.398 . S
C1602 H1590 0.950 . S
C1602 C1601 1.398 . S
C1602 C1603 1.391 . S
C1603 H1591 0.950 . S
C1603 C1599 1.393 . S
C1603 C1602 1.391 . S
H1604 C1612 0.950 . S
H1605 C1617 0.950 . S
H1606 C1614 0.950 . S
H1607 C1616 0.950 . S
H1608 C1618 0.950 . S
H1609 C1620 0.950 . S
H1610 C1622 0.950 . S
H1611 C1623 0.950 . S
C1612 H1604 0.950 . S
C1612 C1613 1.386 . S
C1612 C1614 1.391 . S
C1613 C1612 1.386 . S
C1613 C1617 1.393 . S
C1614 H1606 0.950 . S
C1614 C1612 1.391 . S
C1614 C1615 1.400 . S
C1615 C1614 1.400 . S
C1615 C1616 1.398 . S
C1615 C1621 1.491 . S
C1616 H1607 0.950 . S
C1616 C1615 1.398 . S
C1616 C1617 1.391 . S
C1617 H1605 0.950 . S
C1617 C1613 1.393 . S
C1617 C1616 1.391 . S
C1618 H1608 0.950 . S
C1618 C1619 1.386 . S
C1618 C1620 1.391 . S
C1619 C1618 1.386 . S
C1619 C1623 1.393 . S
C1620 H1609 0.950 . S
C1620 C1618 1.391 . S
C1620 C1621 1.400 . S
C1621 C1615 1.491 . S
C1621 C1620 1.400 . S
C1621 C1622 1.398 . S
C1622 H1610 0.950 . S
C1622 C1621 1.398 . S
C1622 C1623 1.391 . S
C1623 H1611 0.950 . S
C1623 C1619 1.393 . S
C1623 C1622 1.391 . S
H1624 C1632 0.950 . S
H1625 C1637 0.950 . S
H1626 C1634 0.950 . S
H1627 C1636 0.950 . S
H1628 C1638 0.950 . S
H1629 C1640 0.950 . S
H1630 C1642 0.950 . S
H1631 C1643 0.950 . S
C1632 H1624 0.950 . S
C1632 C1633 1.386 . S
C1632 C1634 1.391 . S
C1633 C1632 1.386 . S
C1633 C1637 1.393 . S
C1634 H1626 0.950 . S
C1634 C1632 1.391 . S
C1634 C1635 1.400 . S
C1635 C1634 1.400 . S
C1635 C1636 1.398 . S
C1635 C1641 1.491 . S
C1636 H1627 0.950 . S
C1636 C1635 1.398 . S
C1636 C1637 1.391 . S
C1637 H1625 0.950 . S
C1637 C1633 1.393 . S
C1637 C1636 1.391 . S
C1638 H1628 0.950 . S
C1638 C1639 1.386 . S
C1638 C1640 1.391 . S
C1639 C1638 1.386 . S
C1639 C1643 1.393 . S
C1640 H1629 0.950 . S
C1640 C1638 1.391 . S
C1640 C1641 1.400 . S
C1641 C1635 1.491 . S
C1641 C1640 1.400 . S
C1641 C1642 1.398 . S
C1642 H1630 0.950 . S
C1642 C1641 1.398 . S
C1642 C1643 1.391 . S
C1643 H1631 0.950 . S
C1643 C1639 1.393 . S
C1643 C1642 1.391 . S
H1644 C1652 0.950 . S
H1645 C1657 0.950 . S
H1646 C1654 0.950 . S
H1647 C1656 0.950 . S
H1648 C1658 0.950 . S
H1649 C1660 0.950 . S
H1650 C1662 0.950 . S
H1651 C1663 0.950 . S
C1652 H1644 0.950 . S
C1652 C1653 1.386 . S
C1652 C1654 1.391 . S
C1653 C1652 1.386 . S
C1653 C1657 1.393 . S
C1654 H1646 0.950 . S
C1654 C1652 1.391 . S
C1654 C1655 1.400 . S
C1655 C1654 1.400 . S
C1655 C1656 1.398 . S
C1655 C1661 1.491 . S
C1656 H1647 0.950 . S
C1656 C1655 1.398 . S
C1656 C1657 1.391 . S
C1657 H1645 0.950 . S
C1657 C1653 1.393 . S
C1657 C1656 1.391 . S
C1658 H1648 0.950 . S
C1658 C1659 1.386 . S
C1658 C1660 1.391 . S
C1659 C1658 1.386 . S
C1659 C1663 1.393 . S
C1660 H1649 0.950 . S
C1660 C1658 1.391 . S
C1660 C1661 1.400 . S
C1661 C1655 1.491 . S
C1661 C1660 1.400 . S
C1661 C1662 1.398 . S
C1662 H1650 0.950 . S
C1662 C1661 1.398 . S
C1662 C1663 1.391 . S
C1663 H1651 0.950 . S
C1663 C1659 1.393 . S
C1663 C1662 1.391 . S
H1664 C1672 0.950 . S
H1665 C1677 0.950 . S
H1666 C1674 0.950 . S
H1667 C1676 0.950 . S
H1668 C1678 0.950 . S
H1669 C1680 0.950 . S
H1670 C1682 0.950 . S
H1671 C1683 0.950 . S
C1672 H1664 0.950 . S
C1672 C1673 1.386 . S
C1672 C1674 1.391 . S
C1673 C1672 1.386 . S
C1673 C1677 1.393 . S
C1674 H1666 0.950 . S
C1674 C1672 1.391 . S
C1674 C1675 1.400 . S
C1675 C1674 1.400 . S
C1675 C1676 1.398 . S
C1675 C1681 1.491 . S
C1676 H1667 0.950 . S
C1676 C1675 1.398 . S
C1676 C1677 1.391 . S
C1677 H1665 0.950 . S
C1677 C1673 1.393 . S
C1677 C1676 1.391 . S
C1678 H1668 0.950 . S
C1678 C1679 1.386 . S
C1678 C1680 1.391 . S
C1679 C1678 1.386 . S
C1679 C1683 1.393 . S
C1680 H1669 0.950 . S
C1680 C1678 1.391 . S
C1680 C1681 1.400 . S
C1681 C1675 1.491 . S
C1681 C1680 1.400 . S
C1681 C1682 1.398 . S
C1682 H1670 0.950 . S
C1682 C1681 1.398 . S
C1682 C1683 1.391 . S
C1683 H1671 0.950 . S
C1683 C1679 1.393 . S
C1683 C1682 1.391 . S
H1684 C1692 0.950 . S
H1685 C1697 0.950 . S
H1686 C1694 0.950 . S
H1687 C1696 0.950 . S
H1688 C1698 0.950 . S
H1689 C1700 0.950 . S
H1690 C1702 0.950 . S
H1691 C1703 0.950 . S
C1692 H1684 0.950 . S
C1692 C1693 1.386 . S
C1692 C1694 1.391 . S
C1693 C1692 1.386 . S
C1693 C1697 1.393 . S
C1694 H1686 0.950 . S
C1694 C1692 1.391 . S
C1694 C1695 1.400 . S
C1695 C1694 1.400 . S
C1695 C1696 1.398 . S
C1695 C1701 1.491 . S
C1696 H1687 0.950 . S
C1696 C1695 1.398 . S
C1696 C1697 1.391 . S
C1697 H1685 0.950 . S
C1697 C1693 1.393 . S
C1697 C1696 1.391 . S
C1698 H1688 0.950 . S
C1698 C1699 1.386 . S
C1698 C1700 1.391 . S
C1699 C1698 1.386 . S
C1699 C1703 1.393 . S
C1700 H1689 0.950 . S
C1700 C1698 1.391 . S
C1700 C1701 1.400 . S
C1701 C1695 1.491 . S
C1701 C1700 1.400 . S
C1701 C1702 1.398 . S
C1702 H1690 0.950 . S
C1702 C1701 1.398 . S
C1702 C1703 1.391 . S
C1703 H1691 0.950 . S
C1703 C1699 1.393 . S
C1703 C1702 1.391 . S
H1704 C1712 0.950 . S
H1705 C1717 0.950 . S
H1706 C1714 0.950 . S
H1707 C1716 0.950 . S
H1708 C1718 0.950 . S
H1709 C1720 0.950 . S
H1710 C1722 0.950 . S
H1711 C1723 0.950 . S
C1712 H1704 0.950 . S
C1712 C1713 1.386 . S
C1712 C1714 1.391 . S
C1713 C1712 1.386 . S
C1713 C1717 1.393 . S
C1714 H1706 0.950 . S
C1714 C1712 1.391 . S
C1714 C1715 1.400 . S
C1715 C1714 1.400 . S
C1715 C1716 1.398 . S
C1715 C1721 1.491 . S
C1716 H1707 0.950 . S
C1716 C1715 1.398 . S
C1716 C1717 1.391 . S
C1717 H1705 0.950 . S
C1717 C1713 1.393 . S
C1717 C1716 1.391 . S
C1718 H1708 0.950 . S
C1718 C1719 1.386 . S
C1718 C1720 1.391 . S
C1719 C1718 1.386 . S
C1719 C1723 1.393 . S
C1720 H1709 0.950 . S
C1720 C1718 1.391 . S
C1720 C1721 1.400 . S
C1721 C1715 1.491 . S
C1721 C1720 1.400 . S
C1721 C1722 1.398 . S
C1722 H1710 0.950 . S
C1722 C1721 1.398 . S
C1722 C1723 1.391 . S
C1723 H1711 0.950 . S
C1723 C1719 1.393 . S
C1723 C1722 1.391 . S
H1724 C1732 0.950 . S
H1725 C1737 0.950 . S
H1726 C1734 0.950 . S
H1727 C1736 0.950 . S
H1728 C1738 0.950 . S
H1729 C1740 0.950 . S
H1730 C1742 0.950 . S
H1731 C1743 0.950 . S
C1732 H1724 0.950 . S
C1732 C1733 1.386 . S
C1732 C1734 1.391 . S
C1733 C1732 1.386 . S
C1733 C1737 1.393 . S
C1734 H1726 0.950 . S
C1734 C1732 1.391 . S
C1734 C1735 1.400 . S
C1735 C1734 1.400 . S
C1735 C1736 1.398 . S
C1735 C1741 1.491 . S
C1736 H1727 0.950 . S
C1736 C1735 1.398 . S
C1736 C1737 1.391 . S
C1737 H1725 0.950 . S
C1737 C1733 1.393 . S
C1737 C1736 1.391 . S
C1738 H1728 0.950 . S
C1738 C1739 1.386 . S
C1738 C1740 1.391 . S
C1739 C1738 1.386 . S
C1739 C1743 1.393 . S
C1740 H1729 0.950 . S
C1740 C1738 1.391 . S
C1740 C1741 1.400 . S
C1741 C1735 1.491 . S
C1741 C1740 1.400 . S
C1741 C1742 1.398 . S
C1742 H1730 0.950 . S
C1742 C1741 1.398 . S
C1742 C1743 1.391 . S
C1743 H1731 0.950 . S
C1743 C1739 1.393 . S
C1743 C1742 1.391 . S
H1744 C1752 0.950 . S
H1745 C1757 0.950 . S
H1746 C1754 0.950 . S
H1747 C1756 0.950 . S
H1748 C1758 0.950 . S
H1749 C1760 0.950 . S
H1750 C1762 0.950 . S
H1751 C1763 0.950 . S
C1752 H1744 0.950 . S
C1752 C1753 1.386 . S
C1752 C1754 1.391 . S
C1753 C1752 1.386 . S
C1753 C1757 1.393 . S
C1754 H1746 0.950 . S
C1754 C1752 1.391 . S
C1754 C1755 1.400 . S
C1755 C1754 1.400 . S
C1755 C1756 1.398 . S
C1755 C1761 1.491 . S
C1756 H1747 0.950 . S
C1756 C1755 1.398 . S
C1756 C1757 1.391 . S
C1757 H1745 0.950 . S
C1757 C1753 1.393 . S
C1757 C1756 1.391 . S
C1758 H1748 0.950 . S
C1758 C1759 1.386 . S
C1758 C1760 1.391 . S
C1759 C1758 1.386 . S
C1759 C1763 1.393 . S
C1760 H1749 0.950 . S
C1760 C1758 1.391 . S
C1760 C1761 1.400 . S
C1761 C1755 1.491 . S
C1761 C1760 1.400 . S
C1761 C1762 1.398 . S
C1762 H1750 0.950 . S
C1762 C1761 1.398 . S
C1762 C1763 1.391 . S
C1763 H1751 0.950 . S
C1763 C1759 1.393 . S
C1763 C1762 1.391 . S
H1764 C1772 0.950 . S
H1765 C1777 0.950 . S
H1766 C1774 0.950 . S
H1767 C1776 0.950 . S
H1768 C1778 0.950 . S
H1769 C1780 0.950 . S
H1770 C1782 0.950 . S
H1771 C1783 0.950 . S
C1772 H1764 0.950 . S
C1772 C1773 1.386 . S
C1772 C1774 1.391 . S
C1773 C1772 1.386 . S
C1773 C1777 1.393 . S
C1774 H1766 0.950 . S
C1774 C1772 1.391 . S
C1774 C1775 1.400 . S
C1775 C1774 1.400 . S
C1775 C1776 1.398 . S
C1775 C1781 1.491 . S
C1776 H1767 0.950 . S
C1776 C1775 1.398 . S
C1776 C1777 1.391 . S
C1777 H1765 0.950 . S
C1777 C1773 1.393 . S
C1777 C1776 1.391 . S
C1778 H1768 0.950 . S
C1778 C1779 1.386 . S
C1778 C1780 1.391 . S
C1779 C1778 1.386 . S
C1779 C1783 1.393 . S
C1780 H1769 0.950 . S
C1780 C1778 1.391 . S
C1780 C1781 1.400 . S
C1781 C1775 1.491 . S
C1781 C1780 1.400 . S
C1781 C1782 1.398 . S
C1782 H1770 0.950 . S
C1782 C1781 1.398 . S
C1782 C1783 1.391 . S
C1783 H1771 0.950 . S
C1783 C1779 1.393 . S
C1783 C1782 1.391 . S
H1784 C1792 0.950 . S
H1785 C1797 0.950 . S
H1786 C1794 0.950 . S
H1787 C1796 0.950 . S
H1788 C1798 0.950 . S
H1789 C1800 0.950 . S
H1790 C1802 0.950 . S
H1791 C1803 0.950 . S
C1792 H1784 0.950 . S
C1792 C1793 1.386 . S
C1792 C1794 1.391 . S
C1793 C1792 1.386 . S
C1793 C1797 1.393 . S
C1794 H1786 0.950 . S
C1794 C1792 1.391 . S
C1794 C1795 1.400 . S
C1795 C1794 1.400 . S
C1795 C1796 1.398 . S
C1795 C1801 1.491 . S
C1796 H1787 0.950 . S
C1796 C1795 1.398 . S
C1796 C1797 1.391 . S
C1797 H1785 0.950 . S
C1797 C1793 1.393 . S
C1797 C1796 1.391 . S
C1798 H1788 0.950 . S
C1798 C1799 1.386 . S
C1798 C1800 1.391 . S
C1799 C1798 1.386 . S
C1799 C1803 1.393 . S
C1800 H1789 0.950 . S
C1800 C1798 1.391 . S
C1800 C1801 1.400 . S
C1801 C1795 1.491 . S
C1801 C1800 1.400 . S
C1801 C1802 1.398 . S
C1802 H1790 0.950 . S
C1802 C1801 1.398 . S
C1802 C1803 1.391 . S
C1803 H1791 0.950 . S
C1803 C1799 1.393 . S
C1803 C1802 1.391 . S
H1804 C1812 0.950 . S
H1805 C1817 0.950 . S
H1806 C1814 0.950 . S
H1807 C1816 0.950 . S
H1808 C1818 0.950 . S
H1809 C1820 0.950 . S
H1810 C1822 0.950 . S
H1811 C1823 0.950 . S
C1812 H1804 0.950 . S
C1812 C1813 1.386 . S
C1812 C1814 1.391 . S
C1813 C1812 1.386 . S
C1813 C1817 1.393 . S
C1814 H1806 0.950 . S
C1814 C1812 1.391 . S
C1814 C1815 1.400 . S
C1815 C1814 1.400 . S
C1815 C1816 1.398 . S
C1815 C1821 1.491 . S
C1816 H1807 0.950 . S
C1816 C1815 1.398 . S
C1816 C1817 1.391 . S
C1817 H1805 0.950 . S
C1817 C1813 1.393 . S
C1817 C1816 1.391 . S
C1818 H1808 0.950 . S
C1818 C1819 1.386 . S
C1818 C1820 1.391 . S
C1819 C1818 1.386 . S
C1819 C1823 1.393 . S
C1820 H1809 0.950 . S
C1820 C1818 1.391 . S
C1820 C1821 1.400 . S
C1821 C1815 1.491 . S
C1821 C1820 1.400 . S
C1821 C1822 1.398 . S
C1822 H1810 0.950 . S
C1822 C1821 1.398 . S
C1822 C1823 1.391 . S
C1823 H1811 0.950 . S
C1823 C1819 1.393 . S
C1823 C1822 1.391 . S
H1824 C1832 0.950 . S
H1825 C1837 0.950 . S
H1826 C1834 0.950 . S
H1827 C1836 0.950 . S
H1828 C1838 0.950 . S
H1829 C1840 0.950 . S
H1830 C1842 0.950 . S
H1831 C1843 0.950 . S
C1832 H1824 0.950 . S
C1832 C1833 1.386 . S
C1832 C1834 1.391 . S
C1833 C1832 1.386 . S
C1833 C1837 1.393 . S
C1834 H1826 0.950 . S
C1834 C1832 1.391 . S
C1834 C1835 1.400 . S
C1835 C1834 1.400 . S
C1835 C1836 1.398 . S
C1835 C1841 1.491 . S
C1836 H1827 0.950 . S
C1836 C1835 1.398 . S
C1836 C1837 1.391 . S
C1837 H1825 0.950 . S
C1837 C1833 1.393 . S
C1837 C1836 1.391 . S
C1838 H1828 0.950 . S
C1838 C1839 1.386 . S
C1838 C1840 1.391 . S
C1839 C1838 1.386 . S
C1839 C1843 1.393 . S
C1840 H1829 0.950 . S
C1840 C1838 1.391 . S
C1840 C1841 1.400 . S
C1841 C1835 1.491 . S
C1841 C1840 1.400 . S
C1841 C1842 1.398 . S
C1842 H1830 0.950 . S
C1842 C1841 1.398 . S
C1842 C1843 1.391 . S
C1843 H1831 0.950 . S
C1843 C1839 1.393 . S
C1843 C1842 1.391 . S
H1844 C1852 0.950 . S
H1845 C1857 0.950 . S
H1846 C1854 0.950 . S
H1847 C1856 0.950 . S
H1848 C1858 0.950 . S
H1849 C1860 0.950 . S
H1850 C1862 0.950 . S
H1851 C1863 0.950 . S
C1852 H1844 0.950 . S
C1852 C1853 1.386 . S
C1852 C1854 1.391 . S
C1853 C1852 1.386 . S
C1853 C1857 1.393 . S
C1854 H1846 0.950 . S
C1854 C1852 1.391 . S
C1854 C1855 1.400 . S
C1855 C1854 1.400 . S
C1855 C1856 1.398 . S
C1855 C1861 1.491 . S
C1856 H1847 0.950 . S
C1856 C1855 1.398 . S
C1856 C1857 1.391 . S
C1857 H1845 0.950 . S
C1857 C1853 1.393 . S
C1857 C1856 1.391 . S
C1858 H1848 0.950 . S
C1858 C1859 1.386 . S
C1858 C1860 1.391 . S
C1859 C1858 1.386 . S
C1859 C1863 1.393 . S
C1860 H1849 0.950 . S
C1860 C1858 1.391 . S
C1860 C1861 1.400 . S
C1861 C1855 1.491 . S
C1861 C1860 1.400 . S
C1861 C1862 1.398 . S
C1862 H1850 0.950 . S
C1862 C1861 1.398 . S
C1862 C1863 1.391 . S
C1863 H1851 0.950 . S
C1863 C1859 1.393 . S
C1863 C1862 1.391 . S
H1864 C1872 0.950 . S
H1865 C1877 0.950 . S
H1866 C1874 0.950 . S
H1867 C1876 0.950 . S
H1868 C1878 0.950 . S
H1869 C1880 0.950 . S
H1870 C1882 0.950 . S
H1871 C1883 0.950 . S
C1872 H1864 0.950 . S
C1872 C1873 1.386 . S
C1872 C1874 1.391 . S
C1873 C1872 1.386 . S
C1873 C1877 1.393 . S
C1874 H1866 0.950 . S
C1874 C1872 1.391 . S
C1874 C1875 1.400 . S
C1875 C1874 1.400 . S
C1875 C1876 1.398 . S
C1875 C1881 1.491 . S
C1876 H1867 0.950 . S
C1876 C1875 1.398 . S
C1876 C1877 1.391 . S
C1877 H1865 0.950 . S
C1877 C1873 1.393 . S
C1877 C1876 1.391 . S
C1878 H1868 0.950 . S
C1878 C1879 1.386 . S
C1878 C1880 1.391 . S
C1879 C1878 1.386 . S
C1879 C1883 1.393 . S
C1880 H1869 0.950 . S
C1880 C1878 1.391 . S
C1880 C1881 1.400 . S
C1881 C1875 1.491 . S
C1881 C1880 1.400 . S
C1881 C1882 1.398 . S
C1882 H1870 0.950 . S
C1882 C1881 1.398 . S
C1882 C1883 1.391 . S
C1883 H1871 0.950 . S
C1883 C1879 1.393 . S
C1883 C1882 1.391 . S
H1884 C1892 0.950 . S
H1885 C1897 0.950 . S
H1886 C1894 0.950 . S
H1887 C1896 0.950 . S
H1888 C1898 0.950 . S
H1889 C1900 0.950 . S
H1890 C1902 0.950 . S
H1891 C1903 0.950 . S
C1892 H1884 0.950 . S
C1892 C1893 1.386 . S
C1892 C1894 1.391 . S
C1893 C1892 1.386 . S
C1893 C1897 1.393 . S
C1894 H1886 0.950 . S
C1894 C1892 1.391 . S
C1894 C1895 1.400 . S
C1895 C1894 1.400 . S
C1895 C1896 1.398 . S
C1895 C1901 1.491 . S
C1896 H1887 0.950 . S
C1896 C1895 1.398 . S
C1896 C1897 1.391 . S
C1897 H1885 0.950 . S
C1897 C1893 1.393 . S
C1897 C1896 1.391 . S
C1898 H1888 0.950 . S
C1898 C1899 1.386 . S
C1898 C1900 1.391 . S
C1899 C1898 1.386 . S
C1899 C1903 1.393 . S
C1900 H1889 0.950 . S
C1900 C1898 1.391 . S
C1900 C1901 1.400 . S
C1901 C1895 1.491 . S
C1901 C1900 1.400 . S
C1901 C1902 1.398 . S
C1902 H1890 0.950 . S
C1902 C1901 1.398 . S
C1902 C1903 1.391 . S
C1903 H1891 0.950 . S
C1903 C1899 1.393 . S
C1903 C1902 1.391 . S
H1904 C1912 0.950 . S
H1905 C1917 0.950 . S
H1906 C1914 0.950 . S
H1907 C1916 0.950 . S
H1908 C1918 0.950 . S
H1909 C1920 0.950 . S
H1910 C1922 0.950 . S
H1911 C1923 0.950 . S
C1912 H1904 0.950 . S
C1912 C1913 1.386 . S
C1912 C1914 1.391 . S
C1913 C1912 1.386 . S
C1913 C1917 1.393 . S
C1914 H1906 0.950 . S
C1914 C1912 1.391 . S
C1914 C1915 1.400 . S
C1915 C1914 1.400 . S
C1915 C1916 1.398 . S
C1915 C1921 1.491 . S
C1916 H1907 0.950 . S
C1916 C1915 1.398 . S
C1916 C1917 1.391 . S
C1917 H1905 0.950 . S
C1917 C1913 1.393 . S
C1917 C1916 1.391 . S
C1918 H1908 0.950 . S
C1918 C1919 1.386 . S
C1918 C1920 1.391 . S
C1919 C1918 1.386 . S
C1919 C1923 1.393 . S
C1920 H1909 0.950 . S
C1920 C1918 1.391 . S
C1920 C1921 1.400 . S
C1921 C1915 1.491 . S
C1921 C1920 1.400 . S
C1921 C1922 1.398 . S
C1922 H1910 0.950 . S
C1922 C1921 1.398 . S
C1922 C1923 1.391 . S
C1923 H1911 0.950 . S
C1923 C1919 1.393 . S
C1923 C1922 1.391 . S
H1924 C1932 0.950 . S
H1925 C1937 0.950 . S
H1926 C1934 0.950 . S
H1927 C1936 0.950 . S
H1928 C1938 0.950 . S
H1929 C1940 0.950 . S
H1930 C1942 0.950 . S
H1931 C1943 0.950 . S
C1932 H1924 0.950 . S
C1932 C1933 1.386 . S
C1932 C1934 1.391 . S
C1933 C1932 1.386 . S
C1933 C1937 1.393 . S
C1934 H1926 0.950 . S
C1934 C1932 1.391 . S
C1934 C1935 1.400 . S
C1935 C1934 1.400 . S
C1935 C1936 1.398 . S
C1935 C1941 1.491 . S
C1936 H1927 0.950 . S
C1936 C1935 1.398 . S
C1936 C1937 1.391 . S
C1937 H1925 0.950 . S
C1937 C1933 1.393 . S
C1937 C1936 1.391 . S
C1938 H1928 0.950 . S
C1938 C1939 1.386 . S
C1938 C1940 1.391 . S
C1939 C1938 1.386 . S
C1939 C1943 1.393 . S
C1940 H1929 0.950 . S
C1940 C1938 1.391 . S
C1940 C1941 1.400 . S
C1941 C1935 1.491 . S
C1941 C1940 1.400 . S
C1941 C1942 1.398 . S
C1942 H1930 0.950 . S
C1942 C1941 1.398 . S
C1942 C1943 1.391 . S
C1943 H1931 0.950 . S
C1943 C1939 1.393 . S
C1943 C1942 1.391 . S
C513 C7 1.411 . S
C519 C259 1.411 . S
C533 C273 1.409 . S
C539 C21 1.409 . S
C553 C287 1.391 . S
C559 C35 1.391 . S
C573 C49 1.389 . S
C579 C469 1.389 . S
C593 C63 1.410 . S
C599 C483 1.410 . S
C613 C77 1.411 . S
C619 C497 1.411 . S
C633 C343 1.411 . S
C639 C91 1.411 . S
C653 C105 1.393 . S
C659 C357 1.393 . S
C673 C119 1.395 . S
C679 C371 1.395 . S
C693 C217 1.407 . S
C699 C133 1.407 . S
C713 C231 1.405 . S
C719 C147 1.405 . S
C733 C245 1.396 . S
C739 C161 1.396 . S
C753 C427 1.398 . S
C759 C175 1.398 . S
C773 C441 1.407 . S
C779 C189 1.407 . S
C793 C203 1.398 . S
C799 C455 1.398 . S
C813 C385 1.393 . S
C819 C301 1.393 . S
C833 C315 1.389 . S
C839 C399 1.389 . S
C853 C329 1.397 . S
C859 C413 1.397 . S
C873 C8 1.410 . S
C879 C386 1.401 . S
C893 C400 1.403 . S
C899 C22 1.404 . S
C913 C414 1.407 . S
C919 C36 1.401 . S
C933 C176 1.413 . S
C939 C50 1.408 . S
C953 C190 1.409 . S
C959 C64 1.401 . S
C973 C204 1.410 . S
C979 C78 1.413 . S
C993 C92 1.412 . S
C999 C302 1.411 . S
C1013 C316 1.414 . S
C1019 C106 1.408 . S
C1033 C330 1.401 . S
C1039 C120 1.406 . S
C1053 C134 1.402 . S
C1059 C428 1.411 . S
C1073 C148 1.404 . S
C1079 C442 1.403 . S
C1093 C162 1.407 . S
C1099 C456 1.401 . S
C1113 C218 1.404 . S
C1119 C344 1.413 . S
C1133 C232 1.407 . S
C1139 C358 1.401 . S
C1153 C246 1.412 . S
C1159 C372 1.412 . S
C1173 C260 1.406 . S
C1179 C470 1.402 . S
C1193 C484 1.402 . S
C1199 C274 1.406 . S
C1213 C288 1.413 . S
C1219 C498 1.409 . S
C1233 C17 1.044 . S
C1239 C9 0.996 . S
C1253 C23 1.015 . S
C1259 C31 1.047 . S
C1273 C37 0.996 . S
C1279 C3 1.044 . S
C1293 C51 1.000 . S
C1299 C73 1.070 . S
C1313 C45 1.044 . S
C1319 C65 0.989 . S
C1333 C79 0.978 . S
C1339 C59 1.057 . S
C1353 C93 0.983 . S
C1359 C101 1.062 . S
C1373 C107 0.978 . S
C1379 C115 1.057 . S
C1393 C121 1.029 . S
C1399 C87 1.057 . S
C1413 C157 1.071 . S
C1419 C135 1.008 . S
C1433 C149 0.985 . S
C1439 C129 1.045 . S
C1453 C143 1.061 . S
C1459 C163 1.030 . S
C1473 C185 1.066 . S
C1479 C177 1.028 . S
C1493 C199 1.047 . S
C1499 C191 0.981 . S
C1513 C171 1.048 . S
C1519 C205 0.980 . S
C1533 C219 0.994 . S
C1539 C241 1.044 . S
C1553 C233 0.978 . S
C1559 C213 1.056 . S
C1573 C247 1.005 . S
C1579 C227 1.071 . S
C1593 C269 1.053 . S
C1599 C261 1.025 . S
C1613 C275 0.981 . S
C1619 C283 1.047 . S
C1633 C289 0.981 . S
C1639 C255 1.060 . S
C1653 C303 1.030 . S
C1659 C325 1.063 . S
C1673 C317 0.992 . S
C1679 C297 1.044 . S
C1693 C311 1.044 . S
C1699 C331 0.996 . S
C1713 C353 1.066 . S
C1719 C345 1.029 . S
C1733 C359 1.021 . S
C1739 C367 1.050 . S
C1753 C339 1.048 . S
C1759 C373 1.017 . S
C1773 C387 1.029 . S
C1779 C409 1.057 . S
C1793 C401 0.989 . S
C1799 C381 1.044 . S
C1813 C415 1.030 . S
C1819 C395 1.063 . S
C1833 C429 1.030 . S
C1839 C437 1.059 . S
C1853 C443 1.030 . S
C1859 C451 1.059 . S
C1873 C457 0.986 . S
C1879 C423 1.065 . S
C1893 C471 0.994 . S
C1899 C493 1.044 . S
C1913 C485 1.023 . S
C1919 C465 1.070 . S
C1933 C479 1.071 . S
C1939 C499 1.018 . S
