# Generated by pormake.
# Topology vch, (7)-cn, num edge types: 1
# Building blocks:
#     Node 0, Type 0, BuildingBlock: HICVOG_clean_sbu_0, # of connection points: 7
#     Node 1, Type 0, BuildingBlock: HICVOG_clean_sbu_0, # of connection points: 7
#     Node 2, Type 0, BuildingBlock: HICVOG_clean_sbu_0, # of connection points: 7
#     Node 3, Type 0, BuildingBlock: HICVOG_clean_sbu_0, # of connection points: 7
#     Node 4, Type 0, BuildingBlock: HICVOG_clean_sbu_0, # of connection points: 7
#     Node 5, Type 0, BuildingBlock: HICVOG_clean_sbu_0, # of connection points: 7
#     Node 6, Type 0, BuildingBlock: HICVOG_clean_sbu_0, # of connection points: 7
#     Node 7, Type 0, BuildingBlock: HICVOG_clean_sbu_0, # of connection points: 7
#     Node 8, Type 0, BuildingBlock: HICVOG_clean_sbu_0, # of connection points: 7
#     Node 9, Type 0, BuildingBlock: HICVOG_clean_sbu_0, # of connection points: 7
#     Node 10, Type 0, BuildingBlock: HICVOG_clean_sbu_0, # of connection points: 7
#     Node 11, Type 0, BuildingBlock: HICVOG_clean_sbu_0, # of connection points: 7
#     Node 12, Type 0, BuildingBlock: HICVOG_clean_sbu_0, # of connection points: 7
#     Node 13, Type 0, BuildingBlock: HICVOG_clean_sbu_0, # of connection points: 7
#     Node 14, Type 0, BuildingBlock: HICVOG_clean_sbu_0, # of connection points: 7
#     Node 15, Type 0, BuildingBlock: HICVOG_clean_sbu_0, # of connection points: 7
#     Edge 16, Type (0, 0), BuildingBlock: ZUJKAS_clean_linker_0, # of connection points: 2
#     Edge 17, Type (0, 0), BuildingBlock: ZUJKAS_clean_linker_0, # of connection points: 2
#     Edge 18, Type (0, 0), BuildingBlock: ZUJKAS_clean_linker_0, # of connection points: 2
#     Edge 19, Type (0, 0), BuildingBlock: ZUJKAS_clean_linker_0, # of connection points: 2
#     Edge 20, Type (0, 0), BuildingBlock: ZUJKAS_clean_linker_0, # of connection points: 2
#     Edge 21, Type (0, 0), BuildingBlock: ZUJKAS_clean_linker_0, # of connection points: 2
#     Edge 22, Type (0, 0), BuildingBlock: ZUJKAS_clean_linker_0, # of connection points: 2
#     Edge 23, Type (0, 0), BuildingBlock: ZUJKAS_clean_linker_0, # of connection points: 2
#     Edge 24, Type (0, 0), BuildingBlock: ZUJKAS_clean_linker_0, # of connection points: 2
#     Edge 25, Type (0, 0), BuildingBlock: ZUJKAS_clean_linker_0, # of connection points: 2
#     Edge 26, Type (0, 0), BuildingBlock: ZUJKAS_clean_linker_0, # of connection points: 2
#     Edge 27, Type (0, 0), BuildingBlock: ZUJKAS_clean_linker_0, # of connection points: 2
#     Edge 28, Type (0, 0), BuildingBlock: ZUJKAS_clean_linker_0, # of connection points: 2
#     Edge 29, Type (0, 0), BuildingBlock: ZUJKAS_clean_linker_0, # of connection points: 2
#     Edge 30, Type (0, 0), BuildingBlock: ZUJKAS_clean_linker_0, # of connection points: 2
#     Edge 31, Type (0, 0), BuildingBlock: ZUJKAS_clean_linker_0, # of connection points: 2
#     Edge 32, Type (0, 0), BuildingBlock: ZUJKAS_clean_linker_0, # of connection points: 2
#     Edge 33, Type (0, 0), BuildingBlock: ZUJKAS_clean_linker_0, # of connection points: 2
#     Edge 34, Type (0, 0), BuildingBlock: ZUJKAS_clean_linker_0, # of connection points: 2
#     Edge 35, Type (0, 0), BuildingBlock: ZUJKAS_clean_linker_0, # of connection points: 2
#     Edge 36, Type (0, 0), BuildingBlock: ZUJKAS_clean_linker_0, # of connection points: 2
#     Edge 37, Type (0, 0), BuildingBlock: ZUJKAS_clean_linker_0, # of connection points: 2
#     Edge 38, Type (0, 0), BuildingBlock: ZUJKAS_clean_linker_0, # of connection points: 2
#     Edge 39, Type (0, 0), BuildingBlock: ZUJKAS_clean_linker_0, # of connection points: 2
#     Edge 40, Type (0, 0), BuildingBlock: ZUJKAS_clean_linker_0, # of connection points: 2
#     Edge 41, Type (0, 0), BuildingBlock: ZUJKAS_clean_linker_0, # of connection points: 2
#     Edge 42, Type (0, 0), BuildingBlock: ZUJKAS_clean_linker_0, # of connection points: 2
#     Edge 43, Type (0, 0), BuildingBlock: ZUJKAS_clean_linker_0, # of connection points: 2
#     Edge 44, Type (0, 0), BuildingBlock: ZUJKAS_clean_linker_0, # of connection points: 2
#     Edge 45, Type (0, 0), BuildingBlock: ZUJKAS_clean_linker_0, # of connection points: 2
#     Edge 46, Type (0, 0), BuildingBlock: ZUJKAS_clean_linker_0, # of connection points: 2
#     Edge 47, Type (0, 0), BuildingBlock: ZUJKAS_clean_linker_0, # of connection points: 2
#     Edge 48, Type (0, 0), BuildingBlock: ZUJKAS_clean_linker_0, # of connection points: 2
#     Edge 49, Type (0, 0), BuildingBlock: ZUJKAS_clean_linker_0, # of connection points: 2
#     Edge 50, Type (0, 0), BuildingBlock: ZUJKAS_clean_linker_0, # of connection points: 2
#     Edge 51, Type (0, 0), BuildingBlock: ZUJKAS_clean_linker_0, # of connection points: 2
#     Edge 52, Type (0, 0), BuildingBlock: ZUJKAS_clean_linker_0, # of connection points: 2
#     Edge 53, Type (0, 0), BuildingBlock: ZUJKAS_clean_linker_0, # of connection points: 2
#     Edge 54, Type (0, 0), BuildingBlock: ZUJKAS_clean_linker_0, # of connection points: 2
#     Edge 55, Type (0, 0), BuildingBlock: ZUJKAS_clean_linker_0, # of connection points: 2
#     Edge 56, Type (0, 0), BuildingBlock: ZUJKAS_clean_linker_0, # of connection points: 2
#     Edge 57, Type (0, 0), BuildingBlock: ZUJKAS_clean_linker_0, # of connection points: 2
#     Edge 58, Type (0, 0), BuildingBlock: ZUJKAS_clean_linker_0, # of connection points: 2
#     Edge 59, Type (0, 0), BuildingBlock: ZUJKAS_clean_linker_0, # of connection points: 2
#     Edge 60, Type (0, 0), BuildingBlock: ZUJKAS_clean_linker_0, # of connection points: 2
#     Edge 61, Type (0, 0), BuildingBlock: ZUJKAS_clean_linker_0, # of connection points: 2
#     Edge 62, Type (0, 0), BuildingBlock: ZUJKAS_clean_linker_0, # of connection points: 2
#     Edge 63, Type (0, 0), BuildingBlock: ZUJKAS_clean_linker_0, # of connection points: 2
#     Edge 64, Type (0, 0), BuildingBlock: ZUJKAS_clean_linker_0, # of connection points: 2
#     Edge 65, Type (0, 0), BuildingBlock: ZUJKAS_clean_linker_0, # of connection points: 2
#     Edge 66, Type (0, 0), BuildingBlock: ZUJKAS_clean_linker_0, # of connection points: 2
#     Edge 67, Type (0, 0), BuildingBlock: ZUJKAS_clean_linker_0, # of connection points: 2
#     Edge 68, Type (0, 0), BuildingBlock: ZUJKAS_clean_linker_0, # of connection points: 2
#     Edge 69, Type (0, 0), BuildingBlock: ZUJKAS_clean_linker_0, # of connection points: 2
#     Edge 70, Type (0, 0), BuildingBlock: ZUJKAS_clean_linker_0, # of connection points: 2
#     Edge 71, Type (0, 0), BuildingBlock: ZUJKAS_clean_linker_0, # of connection points: 2
# Relax obj value: 0.103
# Max RMSD: 0.186
# Mean RMSD: 0.186
data_MOF--net-vch--node1-HICVOG_clean_sbu_0--edge1-ZUJKAS_clean_linker_0
_symmetry_space_group_name_H-M    P1
_symmetry_Int_Tables_number       1
_symmetry_cell_setting            triclinic
loop_
_symmetry_equiv_pos_as_xyz
'x, y, z'
_cell_length_a     22.557355
_cell_length_b     96.187653
_cell_length_c     68.935628
_cell_angle_alpha  90.034315
_cell_angle_beta   89.991918
_cell_angle_gamma 89.996648
loop_
_atom_site_label
_atom_site_type_symbol
_atom_site_fract_x
_atom_site_fract_y
_atom_site_fract_z
_atom_type_partial_charge
Zn0 Zn 1.00194 0.14285 0.12 0.0
C1 C 0.09266 0.11596 0.08685 0.0
N2 N 0.04592 0.1173 0.07498 0.0
C3 C 0.00761 0.12471 0.08565 0.0
N4 N 0.02981 0.12805 0.10319 0.0
N5 N 0.08298 0.12223 0.10408 0.0
C6 C 0.24258 0.12917 0.1271 0.0
O7 O 0.21267 0.14032 0.13213 0.0
O8 O 0.91241 0.14506 0.11676 0.0
Zn9 Zn 0.12458 0.11683 0.12742 0.0
N10 N 0.04636 0.15962 0.11313 0.0
C11 C 0.14049 0.16806 0.10282 0.0
C12 C 0.10287 0.1571 0.10722 0.0
C13 C 0.02606 0.17293 0.11509 0.0
N14 N 0.12067 0.18125 0.10487 0.0
C15 C 0.06459 0.18415 0.11096 0.0
O16 O 0.09836 0.12634 0.1524 0.0
C17 C 0.05616 0.13366 0.1593 0.0
O18 O 0.01731 0.13928 0.14842 0.0
H19 H 0.11933 0.14665 0.1063 0.0
H20 H 0.98156 0.17469 0.12039 0.0
C21 C 0.13388 0.08626 0.12926 0.0
C22 C 0.10827 0.07301 0.13216 0.0
C23 C 0.01575 0.08386 0.13892 0.0
C24 C 0.04113 0.09684 0.136 0.0
N25 N 0.09946 0.09782 0.13132 0.0
N26 N 0.04972 0.07233 0.13695 0.0
H27 H 0.18023 0.08748 0.12566 0.0
C28 C 0.88186 0.1342 0.12025 0.0
O29 O 0.90976 0.12277 0.12534 0.0
O30 O 0.21449 0.11786 0.12427 0.0
H31 H 0.01456 0.10614 0.13738 0.0
H32 H 0.18551 0.16612 0.09813 0.0
H33 H 0.96936 0.08292 0.14268 0.0
Zn34 Zn 0.39391 0.89704 0.12409 0.0
C35 C 0.51088 0.88453 0.08466 0.0
N36 N 0.4726 0.89069 0.07253 0.0
C37 C 0.42631 0.89341 0.08413 0.0
N38 N 0.43582 0.88908 0.10243 0.0
N39 N 0.4891 0.88334 0.10277 0.0
C40 C 0.63652 0.87743 0.1252 0.0
O41 O 0.60974 0.88806 0.13336 0.0
O42 O 0.30453 0.895 0.12039 0.0
Zn43 Zn 0.5159 0.8704 0.12201 0.0
N44 N 0.41759 0.91636 0.1234 0.0
C45 C 0.50225 0.93108 0.1231 0.0
C46 C 0.4774 0.9179 0.12425 0.0
C47 C 0.38102 0.92758 0.12167 0.0
N48 N 0.4662 0.94226 0.12128 0.0
C49 C 0.40608 0.94101 0.12059 0.0
O50 O 0.50032 0.87668 0.14938 0.0
C51 C 0.46234 0.88364 0.15901 0.0
O52 O 0.42111 0.89054 0.15076 0.0
H53 H 0.50559 0.90885 0.12564 0.0
H54 H 0.33361 0.92601 0.12079 0.0
C55 C 0.48836 0.84051 0.1163 0.0
C56 C 0.447 0.82957 0.11412 0.0
C57 C 0.36834 0.84593 0.11652 0.0
C58 C 0.40909 0.8566 0.11894 0.0
N59 N 0.46813 0.85378 0.11857 0.0
N60 N 0.38815 0.83275 0.1142 0.0
H61 H 0.5356 0.8386 0.11607 0.0
C62 C 0.27275 0.88776 0.13183 0.0
O63 O 0.29804 0.88167 0.14674 0.0
O64 O 0.60491 0.86748 0.11871 0.0
H65 H 0.39375 0.86712 0.12117 0.0
H66 H 0.54983 0.93244 0.12363 0.0
H67 H 0.32125 0.84807 0.11664 0.0
Zn68 Zn 0.61798 0.89752 0.40037 0.0
C69 C 0.51533 0.88213 0.44256 0.0
N70 N 0.55838 0.88732 0.45383 0.0
C71 C 0.59913 0.89126 0.4408 0.0
N72 N 0.58202 0.88861 0.42248 0.0
N73 N 0.52892 0.88281 0.42356 0.0
C74 C 0.36886 0.86496 0.39629 0.0
O75 O 0.39092 0.86023 0.37993 0.0
O76 O 0.70818 0.89585 0.40211 0.0
Zn77 Zn 0.49304 0.87143 0.40388 0.0
N78 N 0.59271 0.91673 0.40236 0.0
C79 C 0.50745 0.93108 0.40552 0.0
C80 C 0.53303 0.91798 0.40437 0.0
C81 C 0.62836 0.92816 0.40141 0.0
N82 N 0.54256 0.94248 0.40446 0.0
C83 C 0.6025 0.94153 0.40242 0.0
O84 O 0.50412 0.87871 0.37675 0.0
C85 C 0.54208 0.88523 0.36653 0.0
O86 O 0.5867 0.89137 0.37403 0.0
H87 H 0.50546 0.90879 0.4049 0.0
H88 H 0.67558 0.92682 0.39942 0.0
C89 C 0.515 0.84083 0.40528 0.0
C90 C 0.5547 0.82948 0.40408 0.0
C91 C 0.63515 0.84529 0.40115 0.0
C92 C 0.596 0.85639 0.40208 0.0
N93 N 0.53693 0.85404 0.40416 0.0
N94 N 0.61366 0.83217 0.40208 0.0
H95 H 0.46768 0.83924 0.40651 0.0
C96 C 0.73632 0.8866 0.39262 0.0
O97 O 0.70666 0.87837 0.38091 0.0
O98 O 0.40427 0.86957 0.40915 0.0
H99 H 0.61249 0.86689 0.40087 0.0
H100 H 0.45998 0.93222 0.4071 0.0
H101 H 0.68225 0.84706 0.39948 0.0
Zn102 Zn 0.01482 0.14261 0.40587 0.0
C103 C 0.91261 0.11915 0.43962 0.0
N104 N 0.95657 0.12094 0.45248 0.0
C105 C 0.99895 0.12697 0.44175 0.0
N106 N 0.98181 0.12899 0.42325 0.0
N107 N 0.9275 0.12389 0.4219 0.0
C108 C 0.77157 0.12996 0.39391 0.0
O109 O 0.80193 0.13912 0.38385 0.0
O110 O 0.1036 0.1441 0.41091 0.0
Zn111 Zn 0.88841 0.11775 0.39859 0.0
N112 N 0.97119 0.15975 0.41074 0.0
C113 C 0.87398 0.16876 0.41556 0.0
C114 C 0.91161 0.1577 0.4116 0.0
C115 C 0.99476 0.17273 0.41296 0.0
N116 N 0.89718 0.18162 0.41799 0.0
C117 C 0.95648 0.18407 0.41667 0.0
O118 O 0.91837 0.12627 0.37327 0.0
C119 C 0.96321 0.13278 0.36653 0.0
O120 O 1.0024 0.13811 0.37758 0.0
H121 H 0.89329 0.1475 0.40915 0.0
H122 H 0.04224 0.17417 0.412 0.0
C123 C 0.87597 0.08713 0.39934 0.0
C124 C 0.901 0.07368 0.3984 0.0
C125 C 0.99515 0.08374 0.39186 0.0
C126 C 0.97035 0.09694 0.39281 0.0
N127 N 0.91155 0.09842 0.39654 0.0
N128 N 0.96011 0.07249 0.3947 0.0
H129 H 0.82956 0.08865 0.4027 0.0
C130 C 0.13854 0.15007 0.39905 0.0
O131 O 0.11607 0.15637 0.38383 0.0
O132 O 0.79881 0.11969 0.40138 0.0
H133 H 0.99788 0.10604 0.39085 0.0
H134 H 0.82657 0.16718 0.41649 0.0
H135 H 0.04196 0.08243 0.38899 0.0
Zn136 Zn 0.88808 0.89776 0.89976 0.0
C137 C 0.00811 0.88883 0.94002 0.0
N138 N 0.96977 0.89553 0.95157 0.0
C139 C 0.92225 0.89711 0.94008 0.0
N140 N 0.93144 0.89164 0.92233 0.0
N141 N 0.98517 0.88616 0.9224 0.0
C142 C 0.13195 0.87986 0.90338 0.0
O143 O 0.10459 0.89091 0.89665 0.0
O144 O 0.79945 0.89514 0.90389 0.0
Zn145 Zn 0.01239 0.87248 0.9042 0.0
N146 N 0.90924 0.9172 0.89796 0.0
C147 C 0.99242 0.93211 0.89396 0.0
C148 C 0.96814 0.91885 0.89456 0.0
C149 C 0.87296 0.92838 0.9007 0.0
N150 N 0.95675 0.94325 0.89679 0.0
C151 C 0.8975 0.94189 0.90011 0.0
O152 O 1.00029 0.87814 0.87655 0.0
C153 C 0.96011 0.88371 0.86618 0.0
O154 O 0.91541 0.88985 0.87366 0.0
H155 H 0.99618 0.90983 0.8926 0.0
H156 H 0.82642 0.92674 0.90373 0.0
C157 C 0.98289 0.84263 0.9084 0.0
C158 C 0.94104 0.8317 0.90908 0.0
C159 C 0.86309 0.8483 0.90861 0.0
C160 C 0.90432 0.85899 0.90754 0.0
N161 N 0.96327 0.85604 0.90759 0.0
N162 N 0.88231 0.83498 0.90923 0.0
H163 H 0.02997 0.84053 0.90778 0.0
C164 C 0.76295 0.89364 0.88998 0.0
O165 O 0.78275 0.89413 0.87207 0.0
O166 O 0.10084 0.86935 0.90817 0.0
H167 H 0.88926 0.86959 0.90618 0.0
H168 H 0.03932 0.93356 0.89138 0.0
H169 H 0.81609 0.85055 0.90858 0.0
Zn170 Zn 0.61824 0.118 0.89925 0.0
C171 C 0.50632 0.1281 0.94154 0.0
N172 N 0.54812 0.12229 0.95275 0.0
C173 C 0.59292 0.12034 0.94025 0.0
N174 N 0.57905 0.12475 0.92227 0.0
N175 N 0.52463 0.12982 0.9231 0.0
C176 C 0.37376 0.13633 0.90151 0.0
O177 O 0.40015 0.12664 0.89123 0.0
O178 O 0.70775 0.11902 0.90269 0.0
Zn179 Zn 0.49432 0.14341 0.90525 0.0
N180 N 0.59162 0.09893 0.89725 0.0
C181 C 0.50545 0.08503 0.89313 0.0
C182 C 0.53205 0.09799 0.8947 0.0
C183 C 0.62619 0.08733 0.89837 0.0
N184 N 0.53955 0.07346 0.89419 0.0
C185 C 0.59938 0.07408 0.89679 0.0
O186 O 0.50815 0.13867 0.87711 0.0
C187 C 0.54782 0.13318 0.86641 0.0
O188 O 0.5918 0.12658 0.87355 0.0
H189 H 0.50548 0.10734 0.89389 0.0
H190 H 0.67354 0.08849 0.90018 0.0
C191 C 0.51792 0.17337 0.91223 0.0
C192 C 0.55767 0.18457 0.91506 0.0
C193 C 0.63857 0.16882 0.91286 0.0
C194 C 0.59944 0.15792 0.90971 0.0
N195 N 0.54002 0.16028 0.90977 0.0
N196 N 0.61689 0.18181 0.91542 0.0
H197 H 0.47047 0.17498 0.91205 0.0
C198 C 0.73888 0.12803 0.89382 0.0
O199 O 0.71273 0.13656 0.88165 0.0
O200 O 0.40553 0.14561 0.90962 0.0
H201 H 0.61646 0.1476 0.90708 0.0
H202 H 0.45806 0.08413 0.89108 0.0
H203 H 0.68591 0.16702 0.91303 0.0
Zn204 Zn 0.38583 0.11703 0.62768 0.0
C205 C 0.50103 0.12446 0.58528 0.0
N206 N 0.46143 0.11728 0.57479 0.0
C207 C 0.41532 0.11614 0.58698 0.0
N208 N 0.4266 0.12229 0.60417 0.0
N209 N 0.48022 0.12781 0.60299 0.0
C210 C 0.63038 0.13398 0.61833 0.0
O211 O 0.60407 0.12231 0.62324 0.0
O212 O 0.29597 0.11821 0.62465 0.0
Zn213 Zn 0.50949 0.14253 0.61954 0.0
N214 N 0.41033 0.09797 0.63137 0.0
C215 C 0.49375 0.08369 0.63821 0.0
C216 C 0.4685 0.09678 0.6362 0.0
C217 C 0.37587 0.08652 0.62846 0.0
N218 N 0.45978 0.07226 0.63527 0.0
C219 C 0.40133 0.07319 0.63048 0.0
O220 O 0.49527 0.13911 0.64805 0.0
C221 C 0.45649 0.13369 0.65917 0.0
O222 O 0.41342 0.12652 0.65253 0.0
H223 H 0.49523 0.10601 0.63817 0.0
H224 H 0.33006 0.08782 0.62418 0.0
C225 C 0.48869 0.17233 0.61179 0.0
C226 C 0.45174 0.18357 0.60647 0.0
C227 C 0.37099 0.16792 0.60305 0.0
C228 C 0.40723 0.15696 0.60861 0.0
N229 N 0.46546 0.15924 0.61256 0.0
N230 N 0.39397 0.1809 0.60212 0.0
H231 H 0.53505 0.17391 0.61515 0.0
C232 C 0.26776 0.12937 0.62838 0.0
O233 O 0.2974 0.14024 0.63463 0.0
O234 O 0.59862 0.14475 0.61562 0.0
H235 H 0.38882 0.14669 0.60988 0.0
H236 H 0.54009 0.08259 0.64195 0.0
H237 H 0.32473 0.16616 0.5997 0.0
Zn238 Zn 0.12488 0.89651 0.62646 0.0
C239 C 0.0123 0.88641 0.58441 0.0
N240 N 0.05252 0.89292 0.57335 0.0
C241 C 0.0976 0.8949 0.58573 0.0
N242 N 0.08536 0.88982 0.60349 0.0
N243 N 0.03177 0.88427 0.60261 0.0
C244 C 0.88177 0.87922 0.62037 0.0
O245 O 0.9098 0.89035 0.62655 0.0
O246 O 0.21465 0.89532 0.62327 0.0
Zn247 Zn 1.0011 0.87083 0.6206 0.0
N248 N 0.09892 0.91562 0.62813 0.0
C249 C 0.01265 0.92966 0.63091 0.0
C250 C 0.03907 0.91666 0.62972 0.0
C251 C 0.13401 0.92716 0.62768 0.0
N252 N 0.04724 0.94116 0.63051 0.0
C253 C 0.10739 0.94044 0.62893 0.0
O254 O 0.01341 0.87624 0.64847 0.0
C255 C 0.0524 0.88192 0.65922 0.0
O256 O 0.0971 0.88831 0.65219 0.0
H257 H 0.01214 0.90736 0.63006 0.0
H258 H 0.18153 0.92591 0.62668 0.0
C259 C 0.02559 0.84081 0.61471 0.0
C260 C 0.06574 0.82963 0.61235 0.0
C261 C 0.14609 0.84557 0.61411 0.0
C262 C 0.10653 0.85646 0.61671 0.0
N263 N 0.04723 0.85398 0.61675 0.0
N264 N 0.12488 0.8325 0.61202 0.0
H265 H 0.97818 0.83914 0.61483 0.0
C266 C 0.24425 0.88525 0.63032 0.0
O267 O 0.21635 0.87573 0.64046 0.0
O268 O 0.91218 0.86844 0.61631 0.0
H269 H 0.12302 0.86688 0.61881 0.0
H270 H 0.96503 0.93063 0.63217 0.0
H271 H 0.19337 0.84746 0.61392 0.0
Zn272 Zn 0.49995 0.6413 0.12151 0.0
C273 C 0.59536 0.61531 0.08857 0.0
N274 N 0.54977 0.61656 0.0762 0.0
C275 C 0.50969 0.62365 0.08662 0.0
N276 N 0.52984 0.6269 0.10447 0.0
N277 N 0.58329 0.6213 0.10581 0.0
C278 C 0.74237 0.62904 0.13016 0.0
O279 O 0.71298 0.63962 0.13742 0.0
O280 O 0.41128 0.64392 0.11711 0.0
Zn281 Zn 0.62479 0.61629 0.12933 0.0
N282 N 0.54567 0.65812 0.1163 0.0
C283 C 0.64292 0.6668 0.11046 0.0
C284 C 0.60425 0.65573 0.11309 0.0
C285 C 0.52409 0.67137 0.11722 0.0
N286 N 0.62182 0.67994 0.11157 0.0
C287 C 0.56351 0.68267 0.11495 0.0
O288 O 0.59672 0.62568 0.15433 0.0
C289 C 0.55183 0.6322 0.16101 0.0
O290 O 0.51196 0.63719 0.14992 0.0
H291 H 0.62127 0.64529 0.11305 0.0
H292 H 0.47765 0.67304 0.1204 0.0
C293 C 0.63837 0.58581 0.12948 0.0
C294 C 0.6155 0.57229 0.13235 0.0
C295 C 0.52401 0.58216 0.1426 0.0
C296 C 0.54671 0.59542 0.13972 0.0
N297 N 0.60324 0.59702 0.13331 0.0
N298 N 0.55871 0.57099 0.13885 0.0
H299 H 0.68263 0.58746 0.12391 0.0
C300 C 0.37891 0.6332 0.11941 0.0
O301 O 0.40449 0.62139 0.12411 0.0
O302 O 0.71427 0.61797 0.12591 0.0
H303 H 0.51928 0.60445 0.14237 0.0
H304 H 0.68962 0.66497 0.10793 0.0
H305 H 0.47904 0.58074 0.14767 0.0
Zn306 Zn 0.89624 0.39762 0.12448 0.0
C307 C 0.98907 0.37366 0.0876 0.0
N308 N 0.93874 0.37382 0.07725 0.0
C309 C 0.90054 0.38018 0.08923 0.0
N310 N 0.92618 0.38404 0.10604 0.0
N311 N 0.98169 0.37964 0.10515 0.0
C312 C 0.14045 0.38121 0.12371 0.0
O313 O 0.11269 0.39289 0.12766 0.0
O314 O 0.80612 0.39696 0.1245 0.0
Zn315 Zn 0.0218 0.37237 0.12741 0.0
N316 N 0.92209 0.41571 0.11522 0.0
C317 C 0.99879 0.42883 0.1002 0.0
C318 C 0.97602 0.41617 0.10645 0.0
C319 C 0.88981 0.42752 0.11808 0.0
N320 N 0.96702 0.4406 0.10315 0.0
C321 C 0.91293 0.44042 0.11194 0.0
O322 O 0.01234 0.38378 0.1518 0.0
C323 C 0.97502 0.39148 0.16059 0.0
O324 O 0.9284 0.39602 0.15219 0.0
H325 H 1.00166 0.4068 0.10458 0.0
H326 H 0.84774 0.42686 0.12555 0.0
C327 C 0.99755 0.34201 0.12708 0.0
C328 C 0.95935 0.33068 0.13085 0.0
C329 C 0.89195 0.34601 0.14645 0.0
C330 C 0.92934 0.35712 0.14259 0.0
N331 N 0.98129 0.355 0.13305 0.0
N332 N 0.90764 0.33313 0.14045 0.0
H333 H 0.03832 0.34063 0.11903 0.0
C334 C 0.77853 0.38544 0.12553 0.0
O335 O 0.80914 0.3739 0.12734 0.0
O336 O 0.11014 0.37008 0.12238 0.0
H337 H 0.91633 0.36749 0.14679 0.0
H338 H 0.04172 0.42934 0.09324 0.0
H339 H 0.85035 0.34761 0.15394 0.0
Zn340 Zn 0.12595 0.39752 0.40401 0.0
C341 C 0.03295 0.37367 0.44082 0.0
N342 N 0.08169 0.37476 0.45185 0.0
C343 C 0.12012 0.38112 0.43997 0.0
N344 N 0.09611 0.38406 0.42255 0.0
N345 N 0.04134 0.37915 0.42303 0.0
C346 C 0.88187 0.38125 0.40487 0.0
O347 O 0.90979 0.39295 0.40121 0.0
O348 O 0.21608 0.397 0.40416 0.0
Zn349 Zn 1.00033 0.3722 0.40069 0.0
N350 N 0.09909 0.41553 0.41323 0.0
C351 C 0.02092 0.42831 0.42799 0.0
C352 C 0.0439 0.41584 0.42112 0.0
C353 C 0.13221 0.42733 0.41165 0.0
N354 N 0.05366 0.44007 0.4264 0.0
C355 C 0.10878 0.44009 0.41832 0.0
O356 O 0.00993 0.38375 0.37646 0.0
C357 C 0.04774 0.39136 0.36775 0.0
O358 O 0.09435 0.39581 0.37625 0.0
H359 H 0.01775 0.40646 0.42198 0.0
H360 H 0.17609 0.42667 0.4054 0.0
C361 C 0.02013 0.34163 0.39849 0.0
C362 C 0.05585 0.33014 0.39316 0.0
C363 C 0.12751 0.34573 0.38025 0.0
C364 C 0.09242 0.35694 0.38557 0.0
N365 N 0.03942 0.35476 0.39441 0.0
N366 N 0.10848 0.33269 0.38414 0.0
H367 H 0.97776 0.34022 0.40557 0.0
C368 C 0.24375 0.3855 0.40306 0.0
O369 O 0.21321 0.37396 0.40111 0.0
O370 O 0.91199 0.37007 0.40584 0.0
H371 H 0.10749 0.3674 0.38277 0.0
H372 H 0.97716 0.42869 0.43439 0.0
H373 H 0.16975 0.34736 0.37317 0.0
Zn374 Zn 0.50686 0.64184 0.40748 0.0
C375 C 0.41143 0.61638 0.44064 0.0
N376 N 0.45822 0.61708 0.45261 0.0
C377 C 0.49874 0.62378 0.44188 0.0
N378 N 0.47772 0.62731 0.42426 0.0
N379 N 0.42321 0.6223 0.42335 0.0
C380 C 0.26318 0.6297 0.39793 0.0
O381 O 0.29143 0.63952 0.38846 0.0
O382 O 0.59535 0.64426 0.41191 0.0
Zn383 Zn 0.38109 0.61738 0.39997 0.0
N384 N 0.46087 0.65852 0.41325 0.0
C385 C 0.36329 0.66694 0.41916 0.0
C386 C 0.40176 0.65608 0.415 0.0
C387 C 0.48304 0.67168 0.4148 0.0
N388 N 0.38513 0.67999 0.42084 0.0
C389 C 0.44388 0.68283 0.41863 0.0
O390 O 0.40861 0.62673 0.37487 0.0
C391 C 0.45379 0.63307 0.36807 0.0
O392 O 0.49428 0.63791 0.37906 0.0
H393 H 0.38439 0.64576 0.41296 0.0
H394 H 0.53016 0.67338 0.4131 0.0
C395 C 0.3658 0.58695 0.39772 0.0
C396 C 0.38809 0.57351 0.39383 0.0
C397 C 0.48201 0.58338 0.3864 0.0
C398 C 0.45989 0.59657 0.39027 0.0
N399 N 0.40239 0.59814 0.39569 0.0
N400 N 0.44575 0.57223 0.38822 0.0
H401 H 0.32014 0.58855 0.40197 0.0
C402 C 0.62638 0.63372 0.40725 0.0
O403 O 0.59913 0.6227 0.40031 0.0
O404 O 0.29208 0.61918 0.4039 0.0
H405 H 0.48828 0.60558 0.38892 0.0
H406 H 0.31625 0.66506 0.42076 0.0
H407 H 0.52765 0.58198 0.38198 0.0
Zn408 Zn 0.50023 0.37293 0.9052 0.0
C409 C 0.40267 0.39576 0.94172 0.0
N410 N 0.44887 0.39412 0.95375 0.0
C411 C 0.48922 0.38793 0.94239 0.0
N412 N 0.46871 0.38561 0.92432 0.0
N413 N 0.41438 0.39079 0.92384 0.0
C414 C 0.25639 0.38718 0.89743 0.0
O415 O 0.28419 0.37718 0.88817 0.0
O416 O 0.58891 0.37031 0.9094 0.0
Zn417 Zn 0.37607 0.39855 0.90127 0.0
N418 N 0.45457 0.35581 0.90735 0.0
C419 C 0.35572 0.34719 0.90795 0.0
C420 C 0.39524 0.35823 0.90733 0.0
C421 C 0.47635 0.34257 0.90783 0.0
N422 N 0.37704 0.33404 0.90824 0.0
C423 C 0.43625 0.33127 0.90816 0.0
O424 O 0.40498 0.39168 0.87486 0.0
C425 C 0.44999 0.38568 0.86735 0.0
O426 O 0.48879 0.37954 0.87769 0.0
H427 H 0.37873 0.36872 0.90652 0.0
H428 H 0.52376 0.3409 0.90736 0.0
C429 C 0.36624 0.42904 0.90369 0.0
C430 C 0.39226 0.44237 0.90468 0.0
C431 C 0.48758 0.43208 0.90161 0.0
C432 C 0.46175 0.41899 0.90055 0.0
N433 N 0.40189 0.41769 0.90171 0.0
N434 N 0.45241 0.4434 0.90367 0.0
H435 H 0.31878 0.42765 0.90486 0.0
C436 C 0.61952 0.3814 0.90801 0.0
O437 O 0.59195 0.39314 0.90437 0.0
O438 O 0.28615 0.39743 0.90388 0.0
H439 H 0.48918 0.40984 0.89902 0.0
H440 H 0.3084 0.34902 0.90793 0.0
H441 H 0.53522 0.43325 0.90084 0.0
Zn442 Zn 0.99684 0.64363 0.90739 0.0
C443 C 0.09644 0.61846 0.93987 0.0
N444 N 0.05124 0.61936 0.95245 0.0
C445 C 0.00963 0.62603 0.94216 0.0
N446 N 0.02845 0.62934 0.92418 0.0
N447 N 0.08282 0.62429 0.92266 0.0
C448 C 0.24089 0.63043 0.89889 0.0
O449 O 0.21279 0.6417 0.89332 0.0
O450 O 0.90796 0.64544 0.91169 0.0
Zn451 Zn 0.12156 0.61889 0.89888 0.0
N452 N 0.04034 0.66061 0.91341 0.0
C453 C 0.13666 0.66955 0.91998 0.0
C454 C 0.09954 0.6585 0.91554 0.0
C455 C 0.01669 0.67363 0.91498 0.0
N456 N 0.11339 0.68246 0.92165 0.0
C457 C 0.05447 0.68498 0.91916 0.0
O458 O 0.095 0.62867 0.87412 0.0
C459 C 0.04993 0.63519 0.86761 0.0
O460 O 0.00988 0.63997 0.87883 0.0
H461 H 0.11798 0.64828 0.91365 0.0
H462 H 0.96948 0.67505 0.91308 0.0
C463 C 0.12895 0.58842 0.89683 0.0
C464 C 0.10302 0.57522 0.89384 0.0
C465 C 0.01074 0.58621 0.88723 0.0
C466 C 0.03646 0.59915 0.89025 0.0
N467 N 0.09485 0.60003 0.8949 0.0
N468 N 0.04445 0.57463 0.88907 0.0
H469 H 0.17537 0.58955 0.90039 0.0
C470 C 0.87809 0.63444 0.90852 0.0
O471 O 0.90644 0.62314 0.90313 0.0
O472 O 0.21133 0.61937 0.90186 0.0
H473 H 0.01013 0.6085 0.88897 0.0
H474 H 0.18378 0.66793 0.92186 0.0
H475 H 0.96431 0.58535 0.88348 0.0
Zn476 Zn 0.87992 0.61652 0.62932 0.0
C477 C 0.99546 0.62366 0.58667 0.0
N478 N 0.95599 0.61638 0.57627 0.0
C479 C 0.91011 0.61516 0.58853 0.0
N480 N 0.92144 0.62134 0.60571 0.0
N481 N 0.97474 0.62702 0.60441 0.0
C482 C 0.12392 0.63308 0.6202 0.0
O483 O 0.09663 0.62165 0.62563 0.0
O484 O 0.79037 0.61771 0.6259 0.0
Zn485 Zn 1.0041 0.64169 0.62109 0.0
N486 N 0.90304 0.59745 0.63401 0.0
C487 C 0.98356 0.58309 0.64365 0.0
C488 C 0.96046 0.59617 0.63965 0.0
C489 C 0.86749 0.58608 0.6319 0.0
N490 N 0.94833 0.57177 0.64173 0.0
C491 C 0.89077 0.57276 0.63591 0.0
O492 O 0.99073 0.63816 0.6496 0.0
C493 C 0.95083 0.6332 0.66071 0.0
O494 O 0.90669 0.62638 0.65408 0.0
H495 H 0.98804 0.60532 0.64104 0.0
H496 H 0.82187 0.58748 0.62748 0.0
C497 C 0.98114 0.67174 0.61642 0.0
C498 C 0.94246 0.6831 0.61345 0.0
C499 C 0.86373 0.66735 0.60723 0.0
C500 C 0.90163 0.65622 0.6105 0.0
N501 N 0.95952 0.65852 0.61495 0.0
N502 N 0.88483 0.68046 0.6089 0.0
H503 H 0.02692 0.67335 0.62054 0.0
C504 C 0.76164 0.62891 0.62881 0.0
O505 O 0.79059 0.64006 0.63439 0.0
O506 O 0.09302 0.64392 0.61701 0.0
H507 H 0.88442 0.64581 0.60998 0.0
H508 H 0.02916 0.58193 0.64823 0.0
H509 H 0.81757 0.66559 0.60374 0.0
Zn510 Zn 0.62924 0.39628 0.62544 0.0
C511 C 0.53639 0.37437 0.5864 0.0
N512 N 0.58534 0.37581 0.57556 0.0
C513 C 0.62401 0.38143 0.58808 0.0
N514 N 0.59994 0.38359 0.60573 0.0
N515 N 0.54482 0.37895 0.60468 0.0
C516 C 0.38361 0.3803 0.62136 0.0
O517 O 0.41012 0.39214 0.62523 0.0
O518 O 0.71938 0.39585 0.62525 0.0
Zn519 Zn 0.50245 0.37153 0.62639 0.0
N520 N 0.60182 0.41456 0.61759 0.0
C521 C 0.52118 0.4277 0.60506 0.0
C522 C 0.54502 0.4151 0.61108 0.0
C523 C 0.63579 0.42626 0.61866 0.0
N524 N 0.55479 0.43935 0.6061 0.0
C525 C 0.61155 0.43914 0.61285 0.0
O526 O 0.50978 0.38261 0.65104 0.0
C527 C 0.5484 0.38936 0.66069 0.0
O528 O 0.59695 0.39348 0.65305 0.0
H529 H 0.51833 0.40578 0.61062 0.0
H530 H 0.68092 0.42544 0.62382 0.0
C531 C 0.52089 0.34095 0.62829 0.0
C532 C 0.55556 0.32934 0.63373 0.0
C533 C 0.62814 0.34462 0.64678 0.0
C534 C 0.59399 0.35597 0.6414 0.0
N535 N 0.54108 0.354 0.63241 0.0
N536 N 0.60818 0.33165 0.64287 0.0
H537 H 0.47849 0.33971 0.62118 0.0
C538 C 0.7466 0.38434 0.62713 0.0
O539 O 0.71555 0.37297 0.6299 0.0
O540 O 0.41475 0.36927 0.62059 0.0
H541 H 0.60957 0.36636 0.64433 0.0
H542 H 0.47614 0.42825 0.59973 0.0
H543 H 0.67029 0.34608 0.65399 0.0
H544 H 0.80587 0.15656 0.11786 0.0
H545 H 0.69694 0.15604 0.1178 0.0
H546 H 0.70083 0.11122 0.11844 0.0
H547 H 0.80891 0.11166 0.11901 0.0
H548 H 0.61437 0.14484 0.09314 0.0
H549 H 0.59746 0.11914 0.16482 0.0
H550 H 0.66611 0.12628 0.15585 0.0
H551 H 0.64144 0.10941 0.14792 0.0
C552 C 0.78343 0.1466 0.11797 0.0
C553 C 0.81612 0.13416 0.11877 0.0
C554 C 0.72117 0.14631 0.11793 0.0
C555 C 0.6905 0.13359 0.11863 0.0
C556 C 0.72325 0.12118 0.11853 0.0
H557 H 0.32021 0.10773 0.12009 0.0
H558 H 0.42842 0.10904 0.11704 0.0
C559 C 0.78521 0.12146 0.11876 0.0
C560 C 0.62444 0.1332 0.11961 0.0
H561 H 0.50863 0.12044 0.14628 0.0
C562 C 0.59128 0.13958 0.10483 0.0
C563 C 0.59406 0.12637 0.13489 0.0
C564 C 0.62655 0.12004 0.15187 0.0
C565 C 0.52887 0.13904 0.1047 0.0
C566 C 0.49876 0.13202 0.11981 0.0
C567 C 0.5318 0.12571 0.13462 0.0
C568 C 0.43291 0.13134 0.12079 0.0
C569 C 0.49552 0.14575 0.08821 0.0
C570 C 0.39949 0.14343 0.124 0.0
C571 C 0.33776 0.14271 0.1259 0.0
C572 C 0.30802 0.12987 0.12461 0.0
C573 C 0.3416 0.11779 0.12117 0.0
C574 C 0.40346 0.11851 0.11942 0.0
H575 H 0.52497 0.14811 0.07572 0.0
H576 H 0.45889 0.13893 0.08318 0.0
H577 H 0.47573 0.15566 0.09333 0.0
H578 H 0.4213 0.15342 0.12539 0.0
H579 H 0.3134 0.15223 0.12851 0.0
H580 H 0.20849 0.89429 0.09916 0.0
H581 H 0.10174 0.89135 0.09401 0.0
H582 H 0.08368 0.8751 0.15203 0.0
H583 H 0.19029 0.87748 0.15696 0.0
H584 H 0.0197 0.86013 0.1274 0.0
H585 H 0.97312 0.91603 0.11446 0.0
H586 H 0.02526 0.90858 0.09777 0.0
H587 H 0.04401 0.90998 0.12306 0.0
C588 C 0.18174 0.8901 0.11082 0.0
C589 C 0.20798 0.88619 0.12852 0.0
C590 C 0.12056 0.8885 0.1079 0.0
C591 C 0.08418 0.88324 0.12276 0.0
C592 C 0.11057 0.8792 0.14033 0.0
H593 H 0.71421 0.89409 0.14437 0.0
H594 H 0.82185 0.89466 0.14177 0.0
C595 C 0.17166 0.88061 0.14316 0.0
C596 C 0.01865 0.88192 0.12028 0.0
H597 H 0.89238 0.90061 0.11178 0.0
C598 C 0.99187 0.86897 0.12389 0.0
C599 C 0.98213 0.89347 0.11583 0.0
C600 C 0.0074 0.90783 0.11273 0.0
C601 C 0.92987 0.86732 0.12366 0.0
C602 C 0.8934 0.87887 0.11919 0.0
C603 C 0.92025 0.89173 0.11509 0.0
C604 C 0.8274 0.87823 0.12039 0.0
C605 C 0.90403 0.85338 0.12907 0.0
C606 C 0.79408 0.86882 0.10917 0.0
C607 C 0.73202 0.86835 0.11081 0.0
C608 C 0.70217 0.87742 0.12351 0.0
C609 C 0.73566 0.88693 0.13446 0.0
C610 C 0.79738 0.8873 0.13296 0.0
H611 H 0.93701 0.84666 0.13649 0.0
H612 H 0.865 0.85464 0.13873 0.0
H613 H 0.88935 0.84794 0.11572 0.0
H614 H 0.81595 0.86193 0.09901 0.0
H615 H 0.70742 0.86105 0.10196 0.0
H616 H 0.81008 0.87016 0.37117 0.0
H617 H 0.91701 0.86709 0.37471 0.0
H618 H 0.91787 0.89584 0.4227 0.0
H619 H 0.81033 0.89898 0.41929 0.0
H620 H 0.0051 0.88854 0.37248 0.0
H621 H 0.00875 0.86128 0.44365 0.0
H622 H 0.94251 0.86245 0.42901 0.0
H623 H 0.96769 0.87729 0.44246 0.0
C624 C 0.8328 0.87582 0.38254 0.0
C625 C 0.80149 0.88485 0.39491 0.0
C626 C 0.89404 0.87404 0.38453 0.0
C627 C 0.92546 0.88111 0.39908 0.0
C628 C 0.89447 0.89012 0.41154 0.0
H629 H 0.30715 0.87822 0.42542 0.0
H630 H 0.20012 0.88251 0.42704 0.0
C631 C 0.83305 0.89198 0.40947 0.0
C632 C 0.99092 0.87935 0.40054 0.0
H633 H 0.10118 0.86579 0.42889 0.0
C634 C 0.02611 0.88359 0.38483 0.0
C635 C 0.01841 0.87305 0.41676 0.0
C636 C 0.98261 0.86815 0.43393 0.0
C637 C 0.08784 0.88161 0.38479 0.0
C638 C 0.11523 0.8748 0.40067 0.0
C639 C 0.08025 0.87089 0.41665 0.0
C640 C 0.17976 0.87136 0.40059 0.0
C641 C 0.12315 0.88701 0.36779 0.0
C642 C 0.2039 0.86323 0.3856 0.0
C643 C 0.265 0.86082 0.38458 0.0
C644 C 0.30351 0.86633 0.39868 0.0
C645 C 0.27894 0.87387 0.41426 0.0
C646 C 0.21767 0.87635 0.4152 0.0
H647 H 0.09945 0.89555 0.36021 0.0
H648 H 0.16726 0.89089 0.37246 0.0
H649 H 0.12994 0.87847 0.35719 0.0
H650 H 0.1755 0.85891 0.37447 0.0
H651 H 0.28212 0.85484 0.37251 0.0
H652 H 0.69894 0.1482 0.37514 0.0
H653 H 0.59194 0.15103 0.37876 0.0
H654 H 0.58932 0.11866 0.42199 0.0
H655 H 0.69693 0.11576 0.41849 0.0
H656 H 0.50494 0.13022 0.37247 0.0
H657 H 0.49636 0.15088 0.44778 0.0
H658 H 0.56413 0.15043 0.43383 0.0
H659 H 0.53558 0.13478 0.44451 0.0
C660 C 0.67581 0.1417 0.3855 0.0
C661 C 0.70657 0.1317 0.39646 0.0
C662 C 0.61454 0.14334 0.38754 0.0
C663 C 0.58259 0.13515 0.40074 0.0
C664 C 0.61312 0.12522 0.41188 0.0
H665 H 0.20063 0.13427 0.42535 0.0
H666 H 0.30787 0.1303 0.42645 0.0
C667 C 0.67456 0.1235 0.40975 0.0
C668 C 0.51707 0.13671 0.40207 0.0
H669 H 0.40461 0.14722 0.43197 0.0
C670 C 0.48301 0.13393 0.38549 0.0
C671 C 0.48839 0.14139 0.41913 0.0
C672 C 0.52285 0.14466 0.43732 0.0
C673 C 0.42122 0.13577 0.38541 0.0
C674 C 0.39264 0.14094 0.40224 0.0
C675 C 0.4265 0.14339 0.41902 0.0
C676 C 0.32789 0.14404 0.40249 0.0
C677 C 0.38711 0.13194 0.36734 0.0
C678 C 0.30346 0.15344 0.38909 0.0
C679 C 0.2422 0.15567 0.38835 0.0
C680 C 0.2039 0.14869 0.40118 0.0
C681 C 0.22871 0.13978 0.41521 0.0
C682 C 0.29009 0.13749 0.41586 0.0
H683 H 0.41184 0.12433 0.35831 0.0
H684 H 0.34316 0.12745 0.37099 0.0
H685 H 0.38 0.14141 0.35846 0.0
H686 H 0.33178 0.15893 0.37899 0.0
H687 H 0.22482 0.16271 0.3775 0.0
H688 H 0.20528 0.85945 0.91809 0.0
H689 H 0.31401 0.8601 0.92058 0.0
H690 H 0.31488 0.90118 0.89561 0.0
H691 H 0.20731 0.90072 0.89332 0.0
H692 H 0.39625 0.8628 0.89124 0.0
H693 H 0.41983 0.90638 0.94279 0.0
H694 H 0.34991 0.89776 0.93863 0.0
H695 H 0.37485 0.91123 0.92244 0.0
C696 C 0.22871 0.86864 0.91325 0.0
C697 C 0.19751 0.88001 0.90547 0.0
C698 C 0.29081 0.86901 0.9147 0.0
C699 C 0.32264 0.88078 0.90856 0.0
C700 C 0.29139 0.89212 0.90087 0.0
H701 H 0.67328 0.89096 0.86355 0.0
H702 H 0.56835 0.88669 0.8698 0.0
C703 C 0.22969 0.89177 0.89942 0.0
C704 C 0.38862 0.88111 0.90905 0.0
H705 H 0.50568 0.90135 0.92296 0.0
C706 C 0.42026 0.87111 0.89842 0.0
C707 C 0.42023 0.8918 0.91869 0.0
C708 C 0.38944 0.9023 0.93145 0.0
C709 C 0.48218 0.87195 0.89629 0.0
C710 C 0.51322 0.88326 0.90469 0.0
C711 C 0.48196 0.89281 0.91623 0.0
C712 C 0.57749 0.8857 0.90102 0.0
C713 C 0.51363 0.86073 0.88498 0.0
C714 C 0.61759 0.88705 0.91651 0.0
C715 C 0.67775 0.88968 0.91298 0.0
C716 C 0.69906 0.89106 0.89388 0.0
C717 C 0.65864 0.88986 0.87843 0.0
C718 C 0.59856 0.88729 0.88198 0.0
H719 H 0.48816 0.85084 0.88515 0.0
H720 H 0.51807 0.86405 0.86964 0.0
H721 H 0.55863 0.85873 0.89088 0.0
H722 H 0.60238 0.88601 0.93134 0.0
H723 H 0.70752 0.8906 0.92522 0.0
H724 H 0.30445 0.14965 0.9287 0.0
H725 H 0.19607 0.14833 0.93212 0.0
H726 H 0.18753 0.12148 0.88204 0.0
H727 H 0.29494 0.12244 0.87892 0.0
H728 H 0.10759 0.15598 0.90848 0.0
H729 H 0.09176 0.09936 0.91993 0.0
H730 H 0.16145 0.10853 0.92104 0.0
H731 H 0.13143 0.10308 0.89802 0.0
C732 C 0.27931 0.14347 0.91846 0.0
C733 C 0.30831 0.1361 0.90359 0.0
C734 C 0.21744 0.14268 0.92045 0.0
C735 C 0.18357 0.13453 0.90761 0.0
C736 C 0.21259 0.12747 0.89253 0.0
H737 H 0.8204 0.14244 0.87258 0.0
H738 H 0.92684 0.14434 0.87819 0.0
C739 C 0.27415 0.12812 0.89066 0.0
C740 C 0.11778 0.13373 0.90931 0.0
H741 H 1.00249 0.11068 0.90887 0.0
C742 C 0.08462 0.14608 0.90884 0.0
C743 C 0.08746 0.12084 0.91027 0.0
C744 C 0.11995 0.10723 0.91257 0.0
C745 C 0.02227 0.14586 0.90825 0.0
C746 C 0.99218 0.13293 0.90751 0.0
C747 C 0.02527 0.12061 0.90905 0.0
C748 C 0.92686 0.13191 0.90438 0.0
C749 C 0.98947 0.15953 0.90849 0.0
C750 C 0.89126 0.12381 0.91674 0.0
C751 C 0.83029 0.12243 0.91328 0.0
C752 C 0.8036 0.12919 0.89742 0.0
C753 C 0.83935 0.13722 0.88504 0.0
C754 C 0.9003 0.13843 0.88835 0.0
H755 H 0.01569 0.16772 0.91597 0.0
H756 H 0.98203 0.16304 0.89336 0.0
H757 H 0.94585 0.15858 0.91583 0.0
H758 H 0.91062 0.11857 0.92912 0.0
H759 H 0.80406 0.11616 0.92311 0.0
H760 H 0.70613 0.11195 0.61595 0.0
H761 H 0.81446 0.11234 0.61493 0.0
H762 H 0.812 0.15714 0.615 0.0
H763 H 0.70312 0.15686 0.61594 0.0
H764 H 0.89634 0.12659 0.58719 0.0
H765 H 0.91375 0.14486 0.66364 0.0
H766 H 0.84716 0.13696 0.65414 0.0
H767 H 0.86564 0.15451 0.64775 0.0
C768 C 0.72849 0.12191 0.61567 0.0
C769 C 0.69592 0.13438 0.61627 0.0
C770 C 0.79047 0.1221 0.615 0.0
C771 C 0.8213 0.13475 0.61512 0.0
C772 C 0.78903 0.14725 0.6151 0.0
H773 H 0.19693 0.1523 0.63196 0.0
H774 H 0.08984 0.15389 0.62721 0.0
C775 C 0.72685 0.14708 0.61559 0.0
C776 C 0.88715 0.13477 0.61609 0.0
H777 H 1.00289 0.14134 0.6467 0.0
C778 C 0.91978 0.12986 0.60016 0.0
C779 C 0.91754 0.13904 0.63301 0.0
C780 C 0.88451 0.14407 0.65071 0.0
C781 C 0.98214 0.1292 0.60065 0.0
C782 C 0.0126 0.1332 0.61775 0.0
C783 C 0.97975 0.13824 0.6336 0.0
C784 C 0.07837 0.13222 0.61967 0.0
C785 C 0.01474 0.12447 0.5827 0.0
C786 C 0.10797 0.11948 0.61713 0.0
C787 C 0.16949 0.11854 0.61974 0.0
C788 C 0.20265 0.13029 0.62524 0.0
C789 C 0.17288 0.14302 0.6278 0.0
C790 C 0.11153 0.14396 0.62507 0.0
H791 H 0.98745 0.12592 0.56944 0.0
H792 H 0.05708 0.1302 0.58086 0.0
H793 H 0.02496 0.11322 0.584 0.0
H794 H 0.08338 0.11017 0.61345 0.0
H795 H 0.19091 0.10857 0.6177 0.0
H796 H 0.32076 0.86648 0.64632 0.0
H797 H 0.42802 0.86496 0.64201 0.0
H798 H 0.42295 0.89977 0.60269 0.0
H799 H 0.31505 0.90133 0.6068 0.0
H800 H 0.49867 0.87735 0.59035 0.0
H801 H 0.54307 0.89328 0.66639 0.0
H802 H 0.49354 0.87875 0.66406 0.0
H803 H 0.47161 0.89552 0.65504 0.0
C804 C 0.34227 0.87383 0.63672 0.0
C805 C 0.30929 0.88417 0.62715 0.0
C806 C 0.40372 0.87295 0.63431 0.0
C807 C 0.43371 0.88239 0.62229 0.0
C808 C 0.4008 0.89244 0.61216 0.0
H809 H 0.80803 0.90109 0.62727 0.0
H810 H 0.70013 0.90161 0.62595 0.0
C811 C 0.33917 0.89336 0.61461 0.0
C812 C 0.49955 0.88201 0.6209 0.0
H813 H 0.62529 0.88537 0.64812 0.0
C814 C 0.52646 0.87912 0.60295 0.0
C815 C 0.53577 0.88449 0.63731 0.0
C816 C 0.50971 0.88831 0.65676 0.0
C817 C 0.58863 0.87842 0.60108 0.0
C818 C 0.62469 0.88054 0.61763 0.0
C819 C 0.59766 0.88361 0.63548 0.0
C820 C 0.69066 0.88022 0.61679 0.0
C821 C 0.61527 0.87569 0.58138 0.0
C822 C 0.72164 0.86801 0.61196 0.0
C823 C 0.78386 0.86765 0.61273 0.0
C824 C 0.81612 0.87949 0.61846 0.0
C825 C 0.78482 0.89174 0.6229 0.0
C826 C 0.72295 0.89208 0.62214 0.0
H827 H 0.58267 0.87739 0.56953 0.0
H828 H 0.65433 0.88248 0.57884 0.0
H829 H 0.63041 0.86472 0.58065 0.0
H830 H 0.69769 0.85866 0.60809 0.0
H831 H 0.80655 0.85806 0.60921 0.0
H832 H 0.81314 0.65187 0.1349 0.0
H833 H 0.91999 0.65368 0.1297 0.0
H834 H 0.92592 0.61054 0.11272 0.0
H835 H 0.81865 0.60874 0.11742 0.0
H836 H 0.00705 0.64043 0.14801 0.0
H837 H 0.02125 0.62784 0.06975 0.0
H838 H 0.95179 0.63169 0.08158 0.0
H839 H 0.98388 0.6146 0.08338 0.0
C840 C 0.83702 0.64278 0.12992 0.0
C841 C 0.80722 0.63015 0.12663 0.0
C842 C 0.89822 0.64384 0.12693 0.0
C843 C 0.93115 0.63232 0.12053 0.0
C844 C 0.90148 0.61969 0.11718 0.0
H845 H 0.3022 0.61142 0.11607 0.0
H846 H 0.19389 0.61212 0.11493 0.0
C847 C 0.84012 0.61863 0.12006 0.0
C848 C 0.99687 0.63334 0.11855 0.0
H849 H 0.11268 0.62757 0.08748 0.0
C850 C 0.02998 0.63777 0.13469 0.0
C851 C 0.02704 0.6299 0.10115 0.0
C852 C 0.99414 0.62588 0.08293 0.0
C853 C 0.09219 0.63846 0.1341 0.0
C854 C 0.12232 0.63471 0.11689 0.0
C855 C 0.08942 0.63044 0.10066 0.0
C856 C 0.18814 0.63454 0.11593 0.0
C857 C 0.12554 0.64282 0.15208 0.0
C858 C 0.22098 0.64695 0.11644 0.0
C859 C 0.28314 0.6466 0.117 0.0
C860 C 0.31345 0.63382 0.11723 0.0
C861 C 0.28031 0.62144 0.11612 0.0
C862 C 0.21836 0.62181 0.11538 0.0
H863 H 0.0963 0.64341 0.16503 0.0
H864 H 0.16216 0.63542 0.15513 0.0
H865 H 0.14548 0.65323 0.14969 0.0
H866 H 0.19847 0.6569 0.11672 0.0
H867 H 0.30733 0.65631 0.11777 0.0
H868 H 0.2151 0.35889 0.11814 0.0
H869 H 0.32395 0.35925 0.11664 0.0
H870 H 0.32217 0.40389 0.12218 0.0
H871 H 0.21421 0.40364 0.12389 0.0
H872 H 0.40486 0.37362 0.09118 0.0
H873 H 0.42704 0.39104 0.16761 0.0
H874 H 0.35875 0.38411 0.15798 0.0
H875 H 0.37958 0.40181 0.15309 0.0
C876 C 0.23793 0.36878 0.11897 0.0
C877 C 0.20591 0.38122 0.12141 0.0
C878 C 0.30008 0.36897 0.11807 0.0
C879 C 0.33119 0.38157 0.11967 0.0
C880 C 0.29918 0.39402 0.12133 0.0
H881 H 0.70008 0.40722 0.12541 0.0
H882 H 0.59182 0.40613 0.12272 0.0
C883 C 0.23733 0.39384 0.12225 0.0
C884 C 0.39708 0.38181 0.12013 0.0
H885 H 0.51458 0.39121 0.14856 0.0
C886 C 0.42893 0.37737 0.10375 0.0
C887 C 0.42841 0.38674 0.13655 0.0
C888 C 0.39683 0.39108 0.15489 0.0
C889 C 0.49128 0.37803 0.10322 0.0
C890 C 0.52243 0.38306 0.1196 0.0
C891 C 0.49057 0.38742 0.13598 0.0
C892 C 0.5882 0.38372 0.12023 0.0
C893 C 0.52334 0.37364 0.085 0.0
C894 C 0.62204 0.37149 0.11986 0.0
C895 C 0.6838 0.37207 0.12156 0.0
C896 C 0.71302 0.38491 0.12367 0.0
C897 C 0.67901 0.39717 0.12385 0.0
C898 C 0.61716 0.39656 0.12229 0.0
H899 H 0.49301 0.37307 0.07233 0.0
H900 H 0.55991 0.38098 0.08159 0.0
H901 H 0.54305 0.36319 0.08724 0.0
H902 H 0.60057 0.36145 0.11859 0.0
H903 H 0.70862 0.36243 0.12127 0.0
H904 H 0.80714 0.35893 0.41023 0.0
H905 H 0.69831 0.3593 0.41174 0.0
H906 H 0.70022 0.40396 0.40667 0.0
H907 H 0.80818 0.4037 0.40495 0.0
H908 H 0.61741 0.37349 0.4373 0.0
H909 H 0.59528 0.3914 0.36112 0.0
H910 H 0.66359 0.38443 0.37067 0.0
H911 H 0.64268 0.4021 0.37579 0.0
C912 C 0.78435 0.36882 0.40951 0.0
C913 C 0.81641 0.38127 0.4072 0.0
C914 C 0.7222 0.36902 0.4104 0.0
C915 C 0.69112 0.38164 0.40894 0.0
C916 C 0.72317 0.39408 0.40741 0.0
H917 H 0.32213 0.4073 0.40348 0.0
H918 H 0.4304 0.4062 0.40617 0.0
C919 C 0.78503 0.3939 0.40649 0.0
C920 C 0.62522 0.38188 0.40847 0.0
H921 H 0.50773 0.39147 0.38018 0.0
C922 C 0.59335 0.37733 0.42478 0.0
C923 C 0.5939 0.38692 0.39212 0.0
C924 C 0.62548 0.39138 0.37385 0.0
C925 C 0.53101 0.37798 0.42532 0.0
C926 C 0.49986 0.38313 0.40901 0.0
C927 C 0.53173 0.3876 0.3927 0.0
C928 C 0.43408 0.38378 0.40837 0.0
C929 C 0.49893 0.37346 0.44346 0.0
C930 C 0.40028 0.37154 0.40859 0.0
C931 C 0.33852 0.37212 0.40689 0.0
C932 C 0.30926 0.38497 0.40494 0.0
C933 C 0.34323 0.39723 0.40492 0.0
C934 C 0.40509 0.39663 0.40648 0.0
H935 H 0.52924 0.37282 0.45613 0.0
H936 H 0.4623 0.38076 0.44698 0.0
H937 H 0.47931 0.36302 0.44107 0.0
H938 H 0.42178 0.3615 0.40973 0.0
H939 H 0.31374 0.36248 0.40705 0.0
H940 H 0.19255 0.61291 0.42039 0.0
H941 H 0.08471 0.61431 0.4246 0.0
H942 H 0.07974 0.6506 0.38796 0.0
H943 H 0.18707 0.64924 0.38357 0.0
H944 H 0.00828 0.63633 0.43836 0.0
H945 H 0.96654 0.62277 0.36124 0.0
H946 H 0.03765 0.62022 0.37269 0.0
H947 H 0.01562 0.63725 0.36477 0.0
C948 C 0.16849 0.62118 0.41322 0.0
C949 C 0.19836 0.63083 0.40137 0.0
C950 C 0.10692 0.62201 0.41573 0.0
C951 C 0.07408 0.63243 0.40633 0.0
C952 C 0.10406 0.64234 0.39508 0.0
H953 H 0.69951 0.6548 0.41992 0.0
H954 H 0.8083 0.65464 0.4213 0.0
C955 C 0.16551 0.64156 0.39262 0.0
C956 C 0.00829 0.63262 0.40756 0.0
H957 H 0.88344 0.62955 0.37987 0.0
C958 C 0.98087 0.63485 0.4256 0.0
C959 C 0.97264 0.63051 0.39093 0.0
C960 C 0.99942 0.62743 0.37132 0.0
C961 C 0.91865 0.63521 0.42737 0.0
C962 C 0.88312 0.63341 0.41063 0.0
C963 C 0.91068 0.63105 0.39267 0.0
C964 C 0.81721 0.63339 0.41134 0.0
C965 C 0.89139 0.63723 0.44716 0.0
C966 C 0.78605 0.62156 0.40521 0.0
C967 C 0.72421 0.62165 0.40429 0.0
C968 C 0.6919 0.63363 0.40935 0.0
C969 C 0.72303 0.64542 0.41588 0.0
C970 C 0.7852 0.64531 0.41681 0.0
H971 H 0.92389 0.63531 0.45897 0.0
H972 H 0.87539 0.6481 0.4485 0.0
H973 H 0.85283 0.6302 0.4492 0.0
H974 H 0.80974 0.61226 0.4009 0.0
H975 H 0.70182 0.61236 0.3993 0.0
H976 H 0.18274 0.36537 0.88924 0.0
H977 H 0.07516 0.36412 0.8936 0.0
H978 H 0.07462 0.40569 0.91692 0.0
H979 H 0.18251 0.40703 0.91279 0.0
H980 H 1.00391 0.37048 0.93166 0.0
H981 H 0.95623 0.40387 0.86752 0.0
H982 H 0.02467 0.39426 0.86988 0.0
H983 H 0.01263 0.40953 0.88426 0.0
C984 C 0.15988 0.37426 0.89534 0.0
C985 C 0.19128 0.38636 0.90051 0.0
C986 C 0.0984 0.37349 0.89789 0.0
C987 C 0.06699 0.38482 0.90549 0.0
C988 C 0.09812 0.39685 0.91095 0.0
H989 H 0.69222 0.40374 0.91266 0.0
H990 H 0.80028 0.40411 0.91377 0.0
C991 C 0.15974 0.39759 0.90856 0.0
C992 C 1.00142 0.38423 0.90708 0.0
H993 H 0.87464 0.39608 0.88571 0.0
C994 C 0.97547 0.37606 0.92165 0.0
C995 C 0.96465 0.39155 0.89402 0.0
C996 C 0.99056 0.40027 0.87793 0.0
C997 C 0.91344 0.37519 0.92368 0.0
C998 C 0.8765 0.38238 0.91043 0.0
C999 C 0.90278 0.39055 0.89587 0.0
C1000 C 0.81051 0.3818 0.9114 0.0
C1001 C 0.88817 0.36686 0.94027 0.0
C1002 C 0.77984 0.36911 0.9099 0.0
C1003 C 0.71765 0.36886 0.9094 0.0
C1004 C 0.68504 0.38131 0.91008 0.0
C1005 C 0.71589 0.39395 0.91194 0.0
C1006 C 0.77779 0.39419 0.91259 0.0
H1007 H 0.92118 0.36541 0.95206 0.0
H1008 H 0.84823 0.37198 0.94643 0.0
H1009 H 0.87516 0.35642 0.93491 0.0
H1010 H 0.80395 0.35943 0.90854 0.0
H1011 H 0.69523 0.35896 0.90788 0.0
H1012 H 0.31569 0.6085 0.90591 0.0
H1013 H 0.42363 0.60922 0.91018 0.0
H1014 H 0.42112 0.65377 0.90362 0.0
H1015 H 0.31354 0.65317 0.89919 0.0
H1016 H 0.50659 0.62178 0.8813 0.0
H1017 H 0.52014 0.64576 0.95461 0.0
H1018 H 0.4551 0.63659 0.9462 0.0
H1019 H 0.47036 0.65381 0.93757 0.0
C1020 C 0.33805 0.61846 0.90547 0.0
C1021 C 0.30597 0.63077 0.90209 0.0
C1022 C 0.39969 0.61885 0.90793 0.0
C1023 C 0.43023 0.63156 0.90739 0.0
C1024 C 0.39829 0.64387 0.90432 0.0
H1025 H 0.80156 0.65653 0.91256 0.0
H1026 H 0.69273 0.65578 0.91297 0.0
C1027 C 0.33682 0.64349 0.90167 0.0
C1028 C 0.49587 0.63191 0.90889 0.0
H1029 H 0.61036 0.64308 0.93741 0.0
C1030 C 0.52936 0.62635 0.89361 0.0
C1031 C 0.5253 0.638 0.92489 0.0
C1032 C 0.49114 0.64381 0.94186 0.0
C1033 C 0.59159 0.62693 0.89371 0.0
C1034 C 0.62129 0.63291 0.90979 0.0
C1035 C 0.58767 0.63848 0.9251 0.0
C1036 C 0.68717 0.63337 0.91092 0.0
C1037 C 0.62485 0.62145 0.8763 0.0
C1038 C 0.72023 0.62102 0.91024 0.0
C1039 C 0.78214 0.62142 0.90986 0.0
C1040 C 0.81254 0.63419 0.91039 0.0
C1041 C 0.77949 0.64654 0.91201 0.0
C1042 C 0.71732 0.64612 0.91226 0.0
H1043 H 0.59611 0.62093 0.86323 0.0
H1044 H 0.66392 0.62804 0.87294 0.0
H1045 H 0.64073 0.61076 0.87943 0.0
H1046 H 0.69807 0.61104 0.90975 0.0
H1047 H 0.80617 0.61169 0.90894 0.0
H1048 H 0.68901 0.65166 0.63087 0.0
H1049 H 0.58118 0.65245 0.62698 0.0
H1050 H 0.57851 0.60836 0.61594 0.0
H1051 H 0.68648 0.60743 0.61974 0.0
H1052 H 0.5071 0.64272 0.5936 0.0
H1053 H 0.46299 0.61524 0.66312 0.0
H1054 H 0.53304 0.62356 0.65798 0.0
H1055 H 0.5153 0.60718 0.64694 0.0
C1056 C 0.6656 0.64211 0.62758 0.0
C1057 C 0.69643 0.62945 0.62582 0.0
C1058 C 0.60396 0.64261 0.62529 0.0
C1059 C 0.5718 0.63045 0.62136 0.0
C1060 C 0.60245 0.61784 0.61918 0.0
H1061 H 0.19726 0.61061 0.61888 0.0
H1062 H 0.3053 0.61033 0.61737 0.0
C1063 C 0.66417 0.61734 0.62134 0.0
C1064 C 0.50606 0.63091 0.6201 0.0
H1065 H 0.38039 0.62059 0.64363 0.0
C1066 C 0.47925 0.6379 0.60452 0.0
C1067 C 0.46995 0.62461 0.63435 0.0
C1068 C 0.49648 0.61729 0.65166 0.0
C1069 C 0.41712 0.63853 0.60264 0.0
C1070 C 0.38089 0.63231 0.61701 0.0
C1071 C 0.40798 0.62535 0.6326 0.0
C1072 C 0.31484 0.63269 0.61623 0.0
C1073 C 0.39101 0.64554 0.58503 0.0
C1074 C 0.28377 0.64537 0.61587 0.0
C1075 C 0.2216 0.64557 0.61658 0.0
C1076 C 0.1894 0.63309 0.61799 0.0
C1077 C 0.22062 0.62043 0.61799 0.0
C1078 C 0.28251 0.62024 0.61711 0.0
H1079 H 0.4233 0.64597 0.57288 0.0
H1080 H 0.35056 0.64005 0.57998 0.0
H1081 H 0.37867 0.65637 0.58882 0.0
H1082 H 0.30758 0.65514 0.6156 0.0
H1083 H 0.1989 0.65549 0.61661 0.0
H1084 H 0.31069 0.35746 0.61935 0.0
H1085 H 0.20202 0.35727 0.61747 0.0
H1086 H 0.20061 0.40207 0.61572 0.0
H1087 H 0.30868 0.40237 0.61755 0.0
H1088 H 0.12557 0.37024 0.64505 0.0
H1089 H 0.08845 0.39104 0.57099 0.0
H1090 H 0.15857 0.38379 0.57861 0.0
H1091 H 0.13842 0.40117 0.58555 0.0
C1092 C 0.28725 0.36726 0.61832 0.0
C1093 C 0.31837 0.37993 0.61868 0.0
C1094 C 0.22519 0.36713 0.61726 0.0
C1095 C 0.19325 0.37965 0.61625 0.0
C1096 C 0.22432 0.39228 0.61616 0.0
H1097 H 0.82554 0.40576 0.62193 0.0
H1098 H 0.93363 0.40418 0.61891 0.0
C1099 C 0.28618 0.39242 0.61734 0.0
C1100 C 0.12741 0.37963 0.61674 0.0
H1101 H 1.00436 0.39026 0.5919 0.0
C1102 C 0.09898 0.37448 0.63335 0.0
C1103 C 0.09289 0.38528 0.60153 0.0
C1104 C 0.12098 0.39053 0.58307 0.0
C1105 C 0.03708 0.37515 0.63542 0.0
C1106 C 1.00247 0.38088 0.62025 0.0
C1107 C 0.03088 0.38591 0.60353 0.0
C1108 C 0.93676 0.38178 0.62157 0.0
C1109 C 0.00952 0.37015 0.65411 0.0
C1110 C 0.90247 0.3697 0.62373 0.0
C1111 C 0.84086 0.37057 0.62558 0.0
C1112 C 0.81205 0.38355 0.62515 0.0
C1113 C 0.84634 0.39562 0.6225 0.0
C1114 C 0.9081 0.39473 0.62071 0.0
H1115 H 0.04255 0.3696 0.66604 0.0
H1116 H 0.9727 0.37707 0.6587 0.0
H1117 H 0.99128 0.35955 0.6519 0.0
H1118 H 0.9234 0.35957 0.62396 0.0
H1119 H 0.81583 0.36105 0.62732 0.0
H1120 H 0.12281 0.09524 0.06232 0.0
H1121 H 0.19788 0.09747 0.03702 0.0
H1122 H 0.26697 0.13407 0.06525 0.0
H1123 H 0.19054 0.13213 0.09008 0.0
H1124 H 0.22642 0.13922 0.0285 0.0
H1125 H 0.37406 0.09318 0.02747 0.0
H1126 H 0.29694 0.08869 0.02858 0.0
H1127 H 0.33058 0.09789 0.04847 0.0
C1128 C 0.15624 0.10327 0.06373 0.0
C1129 C 0.15146 0.11336 0.07837 0.0
C1130 C 0.19899 0.1046 0.04918 0.0
C1131 C 0.23794 0.11598 0.04919 0.0
C1132 C 0.23739 0.1252 0.06498 0.0
H1133 H 0.4849 0.14844 0.96737 0.0
H1134 H 0.40744 0.14712 0.99208 0.0
C1135 C 0.19443 0.1239 0.07948 0.0
C1136 C 0.2714 0.11953 0.03134 0.0
H1137 H 0.37121 0.1069 0.9986 0.0
C1138 C 0.25852 0.1322 0.02205 0.0
C1139 C 0.31255 0.1103 0.0228 0.0
C1140 C 0.32982 0.09681 0.03243 0.0
C1141 C 0.28535 0.13582 1.00438 0.0
C1142 C 0.32622 0.12656 0.99584 0.0
C1143 C 0.33904 0.11389 1.00507 0.0
C1144 C 0.36043 0.13021 0.97824 0.0
C1145 C 0.26936 0.14941 0.99483 0.0
C1146 C 0.35756 0.12171 0.96169 0.0
C1147 C 0.40141 0.12263 0.9474 0.0
C1148 C 0.44871 0.13195 0.94966 0.0
C1149 C 0.44793 0.14143 0.96512 0.0
C1150 C 0.40394 0.14059 0.97932 0.0
H1151 H 0.22727 0.15374 1.00063 0.0
H1152 H 0.30513 0.15709 0.99757 0.0
H1153 H 0.26507 0.1481 0.97888 0.0
H1154 H 0.32437 0.1136 0.96065 0.0
H1155 H 0.40208 0.11498 0.93585 0.0
H1156 H 0.39941 0.91412 0.05932 0.0
H1157 H 0.32217 0.91253 0.03454 0.0
H1158 H 0.25008 0.87642 0.06318 0.0
H1159 H 0.32649 0.8782 0.08814 0.0
H1160 H 0.32624 0.88903 1.0121 0.0
H1161 H 0.10111 0.89534 0.04352 0.0
H1162 H 0.16701 0.90145 0.0557 0.0
H1163 H 0.14753 0.88335 0.05644 0.0
C1164 C 0.3648 0.90639 0.06093 0.0
C1165 C 0.36817 0.8964 0.07569 0.0
C1166 C 0.32122 0.90536 0.04665 0.0
C1167 C 0.28073 0.89429 0.04692 0.0
C1168 C 0.28029 0.88516 0.06281 0.0
H1169 H 0.02833 0.86576 0.9611 0.0
H1170 H 0.10541 0.8642 0.98604 0.0
C1171 C 0.32364 0.88627 0.07721 0.0
C1172 C 0.24652 0.89096 0.0292 0.0
H1173 H 0.10693 0.88602 1.01165 0.0
C1174 C 0.27821 0.88842 1.01198 0.0
C1175 C 0.18411 0.8899 0.02918 0.0
C1176 C 0.14782 0.89276 0.04715 0.0
C1177 C 0.24908 0.88502 0.99465 0.0
C1178 C 0.18662 0.88425 0.99452 0.0
C1179 C 0.15497 0.88648 1.01183 0.0
C1180 C 0.15242 0.88253 0.97636 0.0
C1181 C 0.28539 0.88227 0.97666 0.0
C1182 C 0.15571 0.89281 0.96193 0.0
C1183 C 0.11215 0.89358 0.94761 0.0
C1184 C 0.06507 0.88409 0.94753 0.0
C1185 C 0.06528 0.87295 0.96063 0.0
C1186 C 0.10878 0.87218 0.97501 0.0
H1187 H 0.33102 0.87883 0.98036 0.0
H1188 H 0.26432 0.87427 0.96731 0.0
H1189 H 0.28905 0.89204 0.96818 0.0
H1190 H 0.1883 0.90105 0.96287 0.0
H1191 H 0.11167 0.90248 0.93797 0.0
H1192 H 0.69861 0.87642 0.43439 0.0
H1193 H 0.77762 0.87463 0.4586 0.0
H1194 H 0.71035 0.91119 0.48735 0.0
H1195 H 0.63104 0.91288 0.46331 0.0
H1196 H 0.86597 0.89235 0.47981 0.0
H1197 H 0.66805 0.87667 0.52258 0.0
H1198 H 0.66692 0.87818 0.49648 0.0
H1199 H 0.66311 0.89349 0.51137 0.0
C1200 C 0.70319 0.8846 0.44511 0.0
C1201 C 0.65909 0.8948 0.44709 0.0
C1202 C 0.74778 0.88345 0.45909 0.0
C1203 C 0.74836 0.89253 0.47501 0.0
C1204 C 0.70982 0.90397 0.47528 0.0
H1205 H 0.9075 0.89966 0.58529 0.0
H1206 H 0.83517 0.89835 0.55893 0.0
C1207 C 0.66511 0.90505 0.46141 0.0
C1208 C 0.78083 0.8887 0.49281 0.0
H1209 H 0.75874 0.87852 0.53975 0.0
C1210 C 0.84279 0.88923 0.49288 0.0
C1211 C 0.75005 0.88444 0.50972 0.0
C1212 C 0.68338 0.88302 0.51008 0.0
C1213 C 0.87494 0.88622 0.5098 0.0
C1214 C 0.84403 0.88229 0.52686 0.0
C1215 C 0.78211 0.88144 0.52661 0.0
C1216 C 0.87534 0.88033 0.54548 0.0
C1217 C 0.94153 0.8878 0.5095 0.0
C1218 C 0.91832 0.86989 0.5475 0.0
C1219 C 0.95907 0.87054 0.56272 0.0
C1220 C 0.95667 0.88153 0.57606 0.0
C1221 C 0.90917 0.89091 0.5754 0.0
C1222 C 0.86839 0.89027 0.56021 0.0
H1223 H 0.95718 0.89337 0.49634 0.0
H1224 H 0.95708 0.89355 0.52251 0.0
H1225 H 0.96239 0.87735 0.50965 0.0
H1226 H 0.92363 0.86202 0.5364 0.0
H1227 H 0.99622 0.86339 0.56279 0.0
H1228 H 0.87328 0.09824 0.4622 0.0
H1229 H 0.79465 0.10102 0.48628 0.0
H1230 H 0.74133 0.13939 0.45903 0.0
H1231 H 0.81949 0.13651 0.43484 0.0
H1232 H 0.81019 0.12507 0.50921 0.0
H1233 H 0.5828 0.12309 0.47796 0.0
H1234 H 0.64552 0.11491 0.4663 0.0
H1235 H 0.63631 0.13341 0.46506 0.0
C1236 C 0.84228 0.10678 0.46064 0.0
C1237 C 0.85188 0.11708 0.4466 0.0
C1238 C 0.7979 0.10847 0.47453 0.0
C1239 C 0.76265 0.12049 0.47457 0.0
C1240 C 0.76757 0.12996 0.45917 0.0
H1241 H 0.51781 0.14798 0.56465 0.0
H1242 H 0.59076 0.15022 0.53842 0.0
C1243 C 0.81187 0.12822 0.44517 0.0
C1244 C 0.72968 0.12428 0.49237 0.0
H1245 H 0.59157 0.13009 0.5107 0.0
C1246 C 0.76233 0.12618 0.50955 0.0
C1247 C 0.66761 0.12608 0.49263 0.0
C1248 C 0.63072 0.12419 0.47457 0.0
C1249 C 0.73437 0.12943 0.52714 0.0
C1250 C 0.67199 0.13059 0.52763 0.0
C1251 C 0.6395 0.12924 0.51029 0.0
C1252 C 0.63885 0.13156 0.54615 0.0
C1253 C 0.77193 0.13153 0.54503 0.0
C1254 C 0.64378 0.12078 0.55978 0.0
C1255 C 0.60261 0.1196 0.57479 0.0
C1256 C 0.55625 0.12921 0.57645 0.0
C1257 C 0.55443 0.1407 0.56395 0.0
C1258 C 0.59551 0.14187 0.54884 0.0
H1259 H 0.81704 0.13526 0.54118 0.0
H1260 H 0.75136 0.13909 0.55518 0.0
H1261 H 0.77694 0.12145 0.55268 0.0
H1262 H 0.67595 0.11254 0.5578 0.0
H1263 H 0.60351 0.11041 0.58388 0.0
H1264 H 0.89098 0.91713 0.96558 0.0
H1265 H 0.81711 0.91381 0.99117 0.0
H1266 H 0.75222 0.87723 0.96192 0.0
H1267 H 0.82606 0.88049 0.93636 0.0
H1268 H 0.66326 0.89428 0.98354 0.0
H1269 H 0.86296 0.87932 0.02597 0.0
H1270 H 0.86547 0.89622 0.01488 0.0
H1271 H 0.86372 0.88096 0.99987 0.0
C1272 C 0.85871 0.90885 0.96407 0.0
C1273 C 0.86379 0.89914 0.94896 0.0
C1274 C 0.81719 0.90685 0.97882 0.0
C1275 C 0.78056 0.89507 0.97862 0.0
C1276 C 0.78052 0.88633 0.96234 0.0
H1277 H 0.53273 0.86199 0.06259 0.0
H1278 H 0.60907 0.86188 0.03735 0.0
C1279 C 0.82206 0.88834 0.94755 0.0
C1280 C 0.74874 0.89086 0.99641 0.0
H1281 H 0.77159 0.8797 0.04289 0.0
C1282 C 0.68674 0.89102 0.99649 0.0
C1283 C 0.77988 0.8865 1.01319 0.0
C1284 C 0.84669 0.8856 1.01354 0.0
C1285 C 0.65482 0.88739 1.01321 0.0
C1286 C 0.68596 0.88315 0.03008 0.0
C1287 C 0.74801 0.88282 0.02989 0.0
C1288 C 0.65427 0.88007 0.04837 0.0
C1289 C 0.58807 0.8886 1.01287 0.0
C1290 C 0.65861 0.8894 0.06397 0.0
C1291 C 0.61579 0.88926 0.07861 0.0
C1292 C 0.5686 0.87979 0.07772 0.0
C1293 C 0.56937 0.86924 0.06368 0.0
C1294 C 0.61232 0.86932 0.0491 0.0
H1295 H 0.57215 0.89472 1.00024 0.0
H1296 H 0.56834 0.87805 1.01191 0.0
H1297 H 0.57152 0.89359 0.02636 0.0
H1298 H 0.69109 0.89769 0.06374 0.0
H1299 H 0.61529 0.89765 0.08912 0.0
H1300 H 0.6291 0.1 0.96438 0.0
H1301 H 0.70987 0.10255 0.98773 0.0
H1302 H 0.77014 0.13927 0.95776 0.0
H1303 H 0.68872 0.13682 0.93449 0.0
H1304 H 0.83685 0.10681 0.98824 0.0
H1305 H 0.70651 0.15321 1.0112 0.0
H1306 H 0.67743 0.14041 0.99458 0.0
H1307 H 0.73136 0.15282 0.98641 0.0
C1308 C 0.66153 0.10817 0.96218 0.0
C1309 C 0.65318 0.11813 0.94759 0.0
C1310 C 0.70729 0.1097 0.97562 0.0
C1311 C 0.74485 0.1213 0.97473 0.0
C1312 C 0.7409 0.13037 0.95883 0.0
H1313 H 0.99324 0.1477 0.06378 0.0
H1314 H 0.92261 0.14893 0.03678 0.0
C1315 C 0.69511 0.1288 0.94532 0.0
C1316 C 0.78148 0.12483 0.99184 0.0
H1317 H 0.78806 0.14701 0.03061 0.0
C1318 C 0.82667 0.11568 0.99739 0.0
C1319 C 0.76753 0.13636 1.00384 0.0
C1320 C 0.71784 0.14625 0.99887 0.0
C1321 C 0.85801 0.11766 0.01474 0.0
C1322 C 0.84289 0.12893 0.027 0.0
C1323 C 0.79895 0.13833 0.02122 0.0
C1324 C 0.87272 0.13089 0.04589 0.0
C1325 C 0.90689 0.10761 0.01993 0.0
C1326 C 0.86482 0.12102 0.06065 0.0
C1327 C 0.90479 0.12038 0.07607 0.0
C1328 C 0.95244 0.12972 0.07702 0.0
C1329 C 0.95582 0.14064 0.06357 0.0
C1330 C 0.91601 0.14123 0.04804 0.0
H1331 H 0.92133 0.10136 1.00722 0.0
H1332 H 0.9459 0.11322 0.02587 0.0
H1333 H 0.89066 0.10035 0.03126 0.0
H1334 H 0.83128 0.11302 0.05926 0.0
H1335 H 0.90233 0.11167 0.086 0.0
H1336 H 0.10496 0.11444 0.43714 0.0
H1337 H 0.1801 0.11341 0.46283 0.0
H1338 H 0.09077 0.14643 0.49342 0.0
H1339 H 0.01567 0.1474 0.46783 0.0
H1340 H 0.22694 0.14462 0.49622 0.0
H1341 H 0.09886 0.09687 0.51437 0.0
H1342 H 0.1258 0.09842 0.48989 0.0
H1343 H 0.07011 0.11021 0.49854 0.0
C1344 C 0.10358 0.12203 0.44876 0.0
C1345 C 0.05523 0.1311 0.45052 0.0
C1346 C 0.14592 0.1213 0.46354 0.0
C1347 C 0.14005 0.12966 0.48013 0.0
C1348 C 0.09585 0.13989 0.48072 0.0
H1349 H 0.31899 0.13269 0.59117 0.0
H1350 H 0.24044 0.13495 0.56708 0.0
C1351 C 0.05343 0.14055 0.46601 0.0
C1352 C 0.17302 0.12626 0.49802 0.0
H1353 H 0.17983 0.10234 0.5346 0.0
C1354 C 0.21679 0.13541 0.50465 0.0
C1355 C 0.15893 0.11427 0.509 0.0
C1356 C 0.11061 0.10438 0.50275 0.0
C1357 C 0.24816 0.13268 0.52182 0.0
C1358 C 0.23406 0.12068 0.53284 0.0
C1359 C 0.19001 0.11158 0.52622 0.0
C1360 C 0.26796 0.11698 0.55048 0.0
C1361 C 0.29733 0.14247 0.52771 0.0
C1362 C 0.30528 0.10532 0.55021 0.0
C1363 C 0.34899 0.10375 0.56439 0.0
C1364 C 0.35578 0.11382 0.57898 0.0
C1365 C 0.31366 0.12451 0.58055 0.0
C1366 C 0.26963 0.12602 0.56646 0.0
H1367 H 0.31085 0.1494 0.5156 0.0
H1368 H 0.28186 0.1491 0.53987 0.0
H1369 H 0.33685 0.13659 0.53271 0.0
H1370 H 0.3043 0.09815 0.53808 0.0
H1371 H 0.38149 0.09554 0.56271 0.0
H1372 H 0.49764 0.86115 0.46769 0.0
H1373 H 0.42167 0.86154 0.49298 0.0
H1374 H 0.335 0.89563 0.46383 0.0
H1375 H 0.40984 0.89486 0.43825 0.0
H1376 H 0.41919 0.88417 0.51517 0.0
H1377 H 0.19435 0.87554 0.48547 0.0
H1378 H 0.26045 0.87059 0.4724 0.0
H1379 H 0.23447 0.88828 0.47178 0.0
C1380 C 0.46006 0.86808 0.46607 0.0
C1381 C 0.45878 0.87784 0.45098 0.0
C1382 C 0.41721 0.86845 0.48066 0.0
C1383 C 0.37289 0.87869 0.48042 0.0
C1384 C 0.3681 0.88749 0.46422 0.0
H1385 H 0.13121 0.91537 0.56137 0.0
H1386 H 0.20965 0.91274 0.53716 0.0
C1387 C 0.41064 0.88698 0.44948 0.0
C1388 C 0.33908 0.88178 0.49836 0.0
H1389 H 0.20005 0.88771 0.51586 0.0
C1390 C 0.37118 0.88478 0.51538 0.0
C1391 C 0.2766 0.88269 0.49859 0.0
C1392 C 0.23948 0.87897 0.48112 0.0
C1393 C 0.34251 0.88895 0.5325 0.0
C1394 C 0.28022 0.89016 0.53255 0.0
C1395 C 0.24805 0.88699 0.51565 0.0
C1396 C 0.24652 0.89417 0.5501 0.0
C1397 C 0.37901 0.89234 0.55023 0.0
C1398 C 0.24415 0.88517 0.5661 0.0
C1399 C 0.19977 0.88678 0.58008 0.0
C1400 C 0.15733 0.89737 0.5781 0.0
C1401 C 0.16412 0.90728 0.56335 0.0
C1402 C 0.20842 0.90568 0.5494 0.0
H1403 H 0.42638 0.89409 0.54656 0.0
H1404 H 0.36154 0.90172 0.55769 0.0
H1405 H 0.37661 0.88352 0.56058 0.0
H1406 H 0.2726 0.87611 0.56677 0.0
H1407 H 0.19426 0.87873 0.5909 0.0
H1408 H 0.68948 0.63258 0.09223 0.0
H1409 H 0.7668 0.63516 0.06775 0.0
H1410 H 0.70944 0.59711 0.04053 0.0
H1411 H 0.63215 0.59445 0.06518 0.0
H1412 H 0.8604 0.61849 0.04833 0.0
H1413 H 0.66267 0.62968 1.00283 0.0
H1414 H 0.6594 0.62886 0.02897 0.0
H1415 H 0.66175 0.61314 0.01492 0.0
C1416 C 0.69592 0.62426 0.08188 0.0
C1417 C 0.65529 0.61321 0.08074 0.0
C1418 C 0.73953 0.62588 0.06765 0.0
C1419 C 0.7426 0.61652 0.05209 0.0
C1420 C 0.70705 0.60455 0.05231 0.0
H1421 H 0.90858 0.61126 0.94174 0.0
H1422 H 0.83689 0.61121 0.96835 0.0
C1423 C 0.66349 0.60293 0.06653 0.0
C1424 C 0.77565 0.62033 0.03433 0.0
H1425 H 0.75545 0.62921 0.98678 0.0
C1426 C 0.83765 0.6209 0.03489 0.0
C1427 C 0.74549 0.62368 0.01692 0.0
C1428 C 0.67864 0.62395 0.01581 0.0
C1429 C 0.87059 0.62415 0.01819 0.0
C1430 C 0.84041 0.62722 1.00065 0.0
C1431 C 0.77834 0.62693 1.00025 0.0
C1432 C 0.87286 0.62955 0.98224 0.0
C1433 C 0.93742 0.62376 0.01931 0.0
C1434 C 0.91343 0.64054 0.98039 0.0
C1435 C 0.9538 0.64067 0.96498 0.0
C1436 C 0.95344 0.62993 0.95122 0.0
C1437 C 0.90855 0.61986 0.9519 0.0
C1438 C 0.86819 0.61972 0.96726 0.0
H1439 H 0.95328 0.61851 0.03269 0.0
H1440 H 0.95633 0.6183 1.00653 0.0
H1441 H 0.95482 0.63455 0.01938 0.0
H1442 H 0.91691 0.64838 0.99161 0.0
H1443 H 0.98903 0.64833 0.96496 0.0
H1444 H 0.51548 0.36362 0.95998 0.0
H1445 H 0.58838 0.3616 0.98624 0.0
H1446 H 0.65933 0.40179 0.97108 0.0
H1447 H 0.58696 0.40371 0.94481 0.0
H1448 H 0.74496 0.38321 0.9858 0.0
H1449 H 0.54506 0.3865 0.03283 0.0
H1450 H 0.5463 0.37201 0.01639 0.0
H1451 H 0.54217 0.38941 1.00699 0.0
C1452 C 0.549 0.3716 0.96158 0.0
C1453 C 0.54647 0.38372 0.95033 0.0
C1454 C 0.58979 0.37059 0.97679 0.0
C1455 C 0.6278 0.38176 0.98094 0.0
C1456 C 0.62994 0.39312 0.96821 0.0
H1457 H 0.86528 0.40488 0.07448 0.0
H1458 H 0.78866 0.40696 0.04935 0.0
C1459 C 0.58919 0.39413 0.95305 0.0
C1460 C 0.65965 0.38252 0.99969 0.0
H1461 H 0.63762 0.38477 0.04869 0.0
C1462 C 0.72159 0.38356 0.99955 0.0
C1463 C 0.62874 0.38317 0.01758 0.0
C1464 C 0.56188 0.38284 0.01856 0.0
C1465 C 0.75369 0.38491 0.01687 0.0
C1466 C 0.72281 0.38551 0.03475 0.0
C1467 C 0.6609 0.38447 0.03492 0.0
C1468 C 0.75506 0.38609 0.0534 0.0
C1469 C 0.82055 0.38535 0.01596 0.0
C1470 C 0.7577 0.37415 0.06498 0.0
C1471 C 0.801 0.37301 0.07933 0.0
C1472 C 0.84129 0.38389 0.08244 0.0
C1473 C 0.83372 0.3965 0.07257 0.0
C1474 C 0.79063 0.3976 0.05806 0.0
H1475 H 0.83764 0.38223 1.00148 0.0
H1476 H 0.83591 0.3961 0.01898 0.0
H1477 H 0.8402 0.37839 0.02709 0.0
H1478 H 0.73038 0.36519 0.06165 0.0
H1479 H 0.80699 0.3631 0.08656 0.0
H1480 H 0.217 0.365 0.44066 0.0
H1481 H 0.29374 0.36658 0.46554 0.0
H1482 H 0.22783 0.40692 0.48236 0.0
H1483 H 0.15083 0.40531 0.45728 0.0
H1484 H 0.38295 0.38524 0.47983 0.0
H1485 H 0.18644 0.3809 0.52842 0.0
H1486 H 0.18145 0.37837 0.50253 0.0
H1487 H 0.18781 0.3956 0.51235 0.0
C1488 C 0.22126 0.37456 0.44887 0.0
C1489 C 0.17882 0.38512 0.44697 0.0
C1490 C 0.26461 0.37539 0.46325 0.0
C1491 C 0.26527 0.38669 0.47611 0.0
C1492 C 0.22733 0.39801 0.47274 0.0
H1493 H 0.44541 0.39262 0.58724 0.0
H1494 H 0.3726 0.39541 0.56125 0.0
C1495 C 0.18406 0.3972 0.45824 0.0
C1496 C 0.29879 0.38546 0.49449 0.0
H1497 H 0.28021 0.38009 0.54316 0.0
C1498 C 0.36063 0.38424 0.4937 0.0
C1499 C 0.26929 0.38402 0.51254 0.0
C1500 C 0.20257 0.38467 0.51413 0.0
C1501 C 0.39389 0.3816 0.5105 0.0
C1502 C 0.36425 0.37978 0.52846 0.0
C1503 C 0.30258 0.38134 0.52934 0.0
C1504 C 0.3971 0.37642 0.54646 0.0
C1505 C 0.46056 0.38085 0.50887 0.0
C1506 C 0.43133 0.36426 0.54758 0.0
C1507 C 0.47222 0.36256 0.56259 0.0
C1508 C 0.47867 0.37287 0.57683 0.0
C1509 C 0.43979 0.38427 0.57686 0.0
C1510 C 0.39899 0.38601 0.56179 0.0
H1511 H 0.47686 0.38595 0.49543 0.0
H1512 H 0.4822 0.38584 0.52156 0.0
H1513 H 0.47446 0.36979 0.50841 0.0
H1514 H 0.4295 0.35659 0.53609 0.0
H1515 H 0.50251 0.35382 0.56209 0.0
H1516 H 0.09832 0.60969 0.58652 0.0
H1517 H 0.17198 0.61117 0.56071 0.0
H1518 H 0.08706 0.64819 0.53889 0.0
H1519 H 0.01288 0.64659 0.56483 0.0
H1520 H 0.08983 0.62741 0.51222 0.0
H1521 H 0.31358 0.63361 0.54371 0.0
H1522 H 0.27301 0.62002 0.55555 0.0
H1523 H 0.24707 0.63769 0.55714 0.0
C1524 C 0.0977 0.61862 0.57693 0.0
C1525 C 0.05109 0.62822 0.57786 0.0
C1526 C 0.13956 0.61942 0.56207 0.0
C1527 C 0.13514 0.62981 0.54784 0.0
C1528 C 0.09145 0.64013 0.54976 0.0
H1529 H 0.31829 0.634 0.43708 0.0
H1530 H 0.24077 0.63684 0.46142 0.0
C1531 C 0.04966 0.63934 0.56471 0.0
C1532 C 0.16932 0.62843 0.52956 0.0
H1533 H 0.30875 0.62304 0.51202 0.0
C1534 C 0.13781 0.62669 0.51209 0.0
C1535 C 0.23178 0.62741 0.52943 0.0
C1536 C 0.26831 0.62992 0.54744 0.0
C1537 C 0.16698 0.62337 0.49468 0.0
C1538 C 0.22919 0.6218 0.49478 0.0
C1539 C 0.26082 0.62399 0.51208 0.0
C1540 C 0.26329 0.6181 0.47715 0.0
C1541 C 0.13104 0.62111 0.47648 0.0
C1542 C 0.29938 0.60622 0.47725 0.0
C1543 C 0.34328 0.6045 0.46317 0.0
C1544 C 0.35173 0.61464 0.44883 0.0
C1545 C 0.3115 0.62576 0.44754 0.0
C1546 C 0.26755 0.62749 0.46164 0.0
H1547 H 0.08318 0.61966 0.47971 0.0
H1548 H 0.13566 0.63031 0.4669 0.0
H1549 H 0.14736 0.61189 0.46837 0.0
H1550 H 0.29671 0.59884 0.48909 0.0
H1551 H 0.37443 0.59598 0.46467 0.0
H1552 H 0.08156 0.39166 0.08927 0.0
H1553 H 0.15364 0.39524 0.06329 0.0
H1554 H 0.0924 0.35792 0.035 0.0
H1555 H 0.02052 0.35424 0.06113 0.0
H1556 H 0.24444 0.37918 0.0431 0.0
H1557 H 0.04583 0.39042 0.99793 0.0
H1558 H 0.04253 0.38918 0.02404 0.0
H1559 H 0.04672 0.37369 1.00954 0.0
C1560 C 0.08597 0.38376 0.07819 0.0
C1561 C 0.04609 0.37256 0.07736 0.0
C1562 C 0.12644 0.38595 0.06313 0.0
C1563 C 0.12708 0.37704 0.047 0.0
C1564 C 0.09173 0.36505 0.04717 0.0
H1565 H 0.30628 0.37932 0.93674 0.0
H1566 H 0.22985 0.37612 0.96153 0.0
C1567 C 0.05136 0.36285 0.06223 0.0
C1568 C 0.15954 0.38112 0.02922 0.0
H1569 H 0.13894 0.39155 0.98225 0.0
C1570 C 0.22148 0.3819 0.02981 0.0
C1571 C 0.1292 0.38472 1.01193 0.0
C1572 C 0.06238 0.3846 1.01075 0.0
C1573 C 0.25416 0.38594 1.01343 0.0
C1574 C 0.22384 0.38965 0.99616 0.0
C1575 C 0.16188 0.38881 0.99554 0.0
C1576 C 0.25663 0.39395 0.97854 0.0
C1577 C 0.32101 0.38592 0.01462 0.0
C1578 C 0.29316 0.40575 0.97902 0.0
C1579 C 0.33642 0.40766 0.96478 0.0
C1580 C 0.34314 0.39789 0.94981 0.0
C1581 C 0.3012 0.38718 0.94789 0.0
C1582 C 0.25809 0.38521 0.96223 0.0
H1583 H 0.33729 0.37978 0.02718 0.0
H1584 H 0.34085 0.3816 1.00116 0.0
H1585 H 0.33702 0.39676 0.01636 0.0
H1586 H 0.2918 0.41277 0.9913 0.0
H1587 H 0.36863 0.41591 0.96664 0.0
H1588 H 0.13625 0.59735 0.96215 0.0
H1589 H 0.214 0.59996 0.98663 0.0
H1590 H 0.26638 0.63889 0.96089 0.0
H1591 H 0.18855 0.63634 0.93648 0.0
H1592 H 0.36255 0.62174 0.97961 0.0
H1593 H 0.16483 0.63202 0.02553 0.0
H1594 H 0.16363 0.61578 1.01263 0.0
H1595 H 0.16173 0.63184 0.99935 0.0
C1596 C 0.16663 0.60605 0.96106 0.0
C1597 C 0.15687 0.61657 0.94733 0.0
C1598 C 0.21047 0.60762 0.97518 0.0
C1599 C 0.24471 0.61979 0.9758 0.0
C1600 C 0.24012 0.62947 0.96067 0.0
H1601 H 0.49255 0.64719 0.06596 0.0
H1602 H 0.42121 0.64909 0.03919 0.0
C1603 C 0.19625 0.62787 0.9465 0.0
C1604 C 0.27779 0.62336 0.99365 0.0
H1605 H 0.25745 0.63072 0.0417 0.0
C1606 C 0.3398 0.62382 0.99317 0.0
C1607 C 0.2476 0.62627 1.01121 0.0
C1608 C 0.18075 0.6266 1.01228 0.0
C1609 C 0.37272 0.62642 1.0101 0.0
C1610 C 0.3425 0.62892 0.02782 0.0
C1611 C 0.2804 0.62887 0.02811 0.0
C1612 C 0.37475 0.63011 0.04647 0.0
C1613 C 0.43953 0.62584 1.00904 0.0
C1614 C 0.36864 0.61954 0.06034 0.0
C1615 C 0.40861 0.6186 0.07574 0.0
C1616 C 0.45452 0.62832 0.07761 0.0
C1617 C 0.4565 0.63977 0.06502 0.0
C1618 C 0.41655 0.64071 0.04955 0.0
H1619 H 0.45533 0.62122 0.99519 0.0
H1620 H 0.45766 0.63653 1.01012 0.0
H1621 H 0.45779 0.61966 0.02126 0.0
H1622 H 0.33642 0.61132 0.05831 0.0
H1623 H 0.40732 0.60949 0.08499 0.0
H1624 H 0.81484 0.63212 0.59133 0.0
H1625 H 0.73729 0.63386 0.56681 0.0
H1626 H 0.79909 0.59577 0.54071 0.0
H1627 H 0.87583 0.59387 0.56556 0.0
H1628 H 0.77868 0.63688 0.52876 0.0
H1629 H 0.61941 0.59309 0.53352 0.0
H1630 H 0.66402 0.59862 0.55388 0.0
H1631 H 0.69563 0.58785 0.53523 0.0
C1632 C 0.80917 0.62359 0.58127 0.0
C1633 C 0.85057 0.6127 0.58059 0.0
C1634 C 0.76554 0.62475 0.56697 0.0
C1635 C 0.76263 0.615 0.55186 0.0
C1636 C 0.79994 0.60332 0.55236 0.0
H1637 H 0.59904 0.6088 0.43966 0.0
H1638 H 0.67421 0.60832 0.46527 0.0
C1639 C 0.84356 0.60218 0.56666 0.0
C1640 C 0.72854 0.61817 0.53403 0.0
H1641 H 0.62347 0.60525 0.50338 0.0
C1642 C 0.74422 0.63005 0.5233 0.0
C1643 C 0.68429 0.60916 0.52683 0.0
C1644 C 0.66437 0.59653 0.53803 0.0
C1645 C 0.71749 0.63302 0.50537 0.0
C1646 C 0.67371 0.62393 0.49812 0.0
C1647 C 0.65769 0.61212 0.5089 0.0
C1648 C 0.64141 0.6267 0.47983 0.0
C1649 C 0.73709 0.64563 0.49408 0.0
C1650 C 0.6007 0.63772 0.47887 0.0
C1651 C 0.55828 0.63808 0.4641 0.0
C1652 C 0.55629 0.62747 0.45016 0.0
C1653 C 0.60085 0.6173 0.44997 0.0
C1654 C 0.64323 0.61692 0.46473 0.0
H1655 H 0.77967 0.64989 0.49959 0.0
H1656 H 0.74221 0.64306 0.47845 0.0
H1657 H 0.70282 0.65386 0.49534 0.0
H1658 H 0.59802 0.64525 0.49052 0.0
H1659 H 0.52316 0.64576 0.46482 0.0
H1660 H 0.72099 0.36536 0.59047 0.0
H1661 H 0.79876 0.36528 0.56582 0.0
H1662 H 0.73352 0.40432 0.5437 0.0
H1663 H 0.65663 0.40452 0.56871 0.0
H1664 H 0.75163 0.364 0.52823 0.0
H1665 H 0.91334 0.40731 0.53441 0.0
H1666 H 0.87197 0.40082 0.55495 0.0
H1667 H 0.83713 0.41221 0.53775 0.0
C1668 C 0.72608 0.37441 0.58127 0.0
C1669 C 0.68378 0.38509 0.58168 0.0
C1670 C 0.7699 0.37425 0.56697 0.0
C1671 C 0.77163 0.38474 0.55283 0.0
C1672 C 0.7336 0.39622 0.55461 0.0
H1673 H 0.94013 0.39143 0.4402 0.0
H1674 H 0.8656 0.39335 0.46583 0.0
C1675 C 0.68995 0.39641 0.56901 0.0
C1676 C 0.80375 0.38227 0.53439 0.0
H1677 H 0.9094 0.39544 0.50417 0.0
C1678 C 0.78649 0.37081 0.52303 0.0
C1679 C 0.84828 0.39131 0.5275 0.0
C1680 C 0.86926 0.40355 0.53932 0.0
C1681 C 0.81258 0.36817 0.50493 0.0
C1682 C 0.85754 0.37712 0.49811 0.0
C1683 C 0.87445 0.38865 0.50937 0.0
C1684 C 0.89087 0.3742 0.48005 0.0
C1685 C 0.79134 0.35593 0.49313 0.0
C1686 C 0.92735 0.36241 0.47894 0.0
C1687 C 0.96922 0.36119 0.46411 0.0
C1688 C 0.97508 0.37173 0.45017 0.0
C1689 C 0.93495 0.38289 0.45028 0.0
C1690 C 0.89316 0.38414 0.46516 0.0
H1691 H 0.74642 0.35249 0.49769 0.0
H1692 H 0.79029 0.35849 0.47742 0.0
H1693 H 0.82227 0.34708 0.49522 0.0
H1694 H 0.92697 0.35473 0.49042 0.0
H1695 H 1.00076 0.3527 0.4646 0.0
H1696 H 0.21097 0.06742 0.11107 0.0
H1697 H 0.26067 0.04495 0.10747 0.0
H1698 H 0.13061 0.02589 0.14472 0.0
H1699 H 0.08119 0.04819 0.14876 0.0
H1700 H 0.30673 0.02676 0.1378 0.0
H1701 H 0.12804 1.00185 0.09463 0.0
H1702 H 0.13401 0.02047 0.09746 0.0
H1703 H 0.10375 0.01005 0.11668 0.0
C1704 C 0.19329 0.05855 0.11878 0.0
C1705 C 0.14191 0.05973 0.1303 0.0
C1706 C 0.22156 0.04567 0.11654 0.0
C1707 C 0.19866 0.03373 0.12556 0.0
C1708 C 0.14828 0.03492 0.1373 0.0
H1709 H 0.29518 0.94663 0.13585 0.0
H1710 H 0.24402 0.96912 0.13612 0.0
C1711 C 0.12021 0.04773 0.13962 0.0
C1712 C 0.2277 0.02002 0.1231 0.0
H1713 H 0.20419 0.98701 0.10641 0.0
C1714 C 0.28463 0.0181 0.13078 0.0
C1715 C 0.19841 0.00872 0.11409 0.0
C1716 C 0.13786 0.01035 0.10508 0.0
C1717 C 0.31261 1.00506 0.13011 0.0
C1718 C 0.28334 0.99374 0.12111 0.0
C1719 C 0.22649 0.99569 0.11332 0.0
C1720 C 0.31148 0.97983 0.11953 0.0
C1721 C 0.37258 1.00345 0.13957 0.0
C1722 C 0.36514 0.97828 0.10952 0.0
C1723 C 0.39433 0.96549 0.10933 0.0
C1724 C 0.37015 0.95389 0.11892 0.0
C1725 C 0.31478 0.95528 0.12813 0.0
C1726 C 0.28567 0.96816 0.12841 0.0
H1727 H 0.38138 0.01187 0.15022 0.0
H1728 H 0.37626 0.99328 0.1471 0.0
H1729 H 0.40753 1.00393 0.12826 0.0
H1730 H 0.38509 0.98705 0.10215 0.0
H1731 H 0.43654 0.96475 0.1019 0.0
H1732 H 0.78367 0.06844 0.38915 0.0
H1733 H 0.73194 0.04605 0.39114 0.0
H1734 H 0.88886 0.02711 0.4151 0.0
H1735 H 0.94038 0.04934 0.41351 0.0
H1736 H 0.76919 0.02139 0.372 0.0
H1737 H 0.75762 0.0135 0.45164 0.0
H1738 H 0.77155 0.0303 0.44085 0.0
H1739 H 0.83029 0.01774 0.4428 0.0
C1740 C 0.80669 0.05961 0.39531 0.0
C1741 C 0.86614 0.06073 0.4013 0.0
C1742 C 0.7772 0.04679 0.39629 0.0
C1743 C 0.80636 0.03495 0.40347 0.0
C1744 C 0.86513 0.03614 0.40983 0.0
H1745 H 0.71852 0.94672 0.41374 0.0
H1746 H 0.77052 0.96911 0.41299 0.0
C1747 C 0.89464 0.04887 0.40877 0.0
C1748 C 0.77717 0.02112 0.40311 0.0
H1749 H 0.73525 0.99391 0.43187 0.0
C1750 C 0.76133 0.01542 0.3851 0.0
C1751 C 0.76769 0.01328 0.4202 0.0
C1752 C 0.78216 0.01904 0.44 0.0
C1753 C 0.73693 1.00203 0.38367 0.0
C1754 C 0.72714 0.99421 0.40076 0.0
C1755 C 0.74316 0.99988 0.41878 0.0
C1756 C 0.69729 0.98045 0.40032 0.0
C1757 C 0.72287 0.99626 0.36384 0.0
C1758 C 0.63896 0.97941 0.3935 0.0
C1759 C 0.60936 0.96668 0.3938 0.0
C1760 C 0.63722 0.95464 0.401 0.0
C1761 C 0.696 0.95567 0.40773 0.0
C1762 C 0.72563 0.96849 0.40747 0.0
H1763 H 0.74839 1.00165 0.35229 0.0
H1764 H 0.73264 0.98495 0.36307 0.0
H1765 H 0.67501 0.99777 0.36078 0.0
H1766 H 0.61578 0.98853 0.38827 0.0
H1767 H 0.56417 0.96632 0.38851 0.0
H1768 H 0.78203 0.94725 0.88893 0.0
H1769 H 0.7309 0.96977 0.89002 0.0
H1770 H 0.88212 0.98804 0.91855 0.0
H1771 H 0.93353 0.96575 0.91735 0.0
H1772 H 0.70054 0.98807 0.92032 0.0
H1773 H 0.86372 0.01231 0.87049 0.0
H1774 H 0.85965 0.99377 0.8742 0.0
H1775 H 0.89654 1.00466 0.89166 0.0
C1776 C 0.80393 0.956 0.89574 0.0
C1777 C 0.86204 0.95473 0.90294 0.0
C1778 C 0.77481 0.96888 0.89625 0.0
C1779 C 0.80333 0.98065 0.90394 0.0
C1780 C 0.85992 0.97919 0.91207 0.0
H1781 H 0.70832 0.06849 0.91418 0.0
H1782 H 0.75822 0.04595 0.91642 0.0
C1783 C 0.8891 0.96641 0.91145 0.0
C1784 C 0.77496 0.99457 0.90302 0.0
H1785 H 0.79382 0.02744 0.8852 0.0
C1786 C 0.72078 0.99666 0.91259 0.0
C1787 C 0.80154 1.00579 0.89294 0.0
C1788 C 0.85828 1.00403 0.88158 0.0
C1789 C 0.69287 0.00973 0.91256 0.0
C1790 C 0.71952 0.02093 0.9025 0.0
C1791 C 0.77378 0.01886 0.89302 0.0
C1792 C 0.69024 0.03468 0.90085 0.0
C1793 C 0.63542 0.0115 0.92349 0.0
C1794 C 0.63632 0.03586 0.89093 0.0
C1795 C 0.60804 0.04871 0.8894 0.0
C1796 C 0.63306 0.06076 0.89768 0.0
C1797 C 0.68792 0.05958 0.90732 0.0
C1798 C 0.71636 0.04666 0.90878 0.0
H1799 H 0.62879 1.00312 0.93437 0.0
H1800 H 0.63402 0.02171 0.93102 0.0
H1801 H 0.59791 0.01111 0.91309 0.0
H1802 H 0.61603 0.02681 0.88434 0.0
H1803 H 0.56625 0.04916 0.88169 0.0
H1804 H 0.07218 0.96532 0.64356 0.0
H1805 H 0.12266 0.9876 0.64203 0.0
H1806 H 0.27086 0.96831 0.61311 0.0
H1807 H 0.21961 0.94592 0.6138 0.0
H1808 H 0.22751 0.9957 0.65748 0.0
H1809 H 0.23377 1.00069 0.57724 0.0
H1810 H 0.18922 0.98778 0.5894 0.0
H1811 H 0.26761 0.98515 0.58646 0.0
C1812 C 0.11542 0.96573 0.63675 0.0
C1813 C 0.14157 0.9537 0.62883 0.0
C1814 C 0.14433 0.97853 0.63597 0.0
C1815 C 0.20014 0.97969 0.62721 0.0
C1816 C 0.22726 0.96771 0.61962 0.0
H1817 H 0.44342 0.0487 0.61664 0.0
H1818 H 0.39262 0.02631 0.6151 0.0
C1819 C 0.19816 0.95483 0.62032 0.0
C1820 C 0.2296 0.99349 0.6264 0.0
H1821 H 0.2835 0.01813 0.59534 0.0
C1822 C 0.23959 1.00061 0.64389 0.0
C1823 C 0.24513 0.99991 0.60864 0.0
C1824 C 0.23297 0.99307 0.58934 0.0
C1825 C 0.26521 0.01391 0.64412 0.0
C1826 C 0.28069 0.02032 0.62639 0.0
C1827 C 0.27118 0.01319 0.60889 0.0
C1828 C 0.30912 0.03419 0.62585 0.0
C1829 C 0.27655 0.02091 0.66337 0.0
C1830 C 0.27843 0.04613 0.63194 0.0
C1831 C 0.30731 0.05902 0.63279 0.0
C1832 C 0.36745 0.06012 0.62758 0.0
C1833 C 0.39722 0.04819 0.62087 0.0
C1834 C 0.36827 0.03539 0.61992 0.0
H1835 H 0.27265 0.01354 0.67571 0.0
H1836 H 0.32143 0.02565 0.66364 0.0
H1837 H 0.24364 0.02934 0.66551 0.0
H1838 H 0.2325 0.04542 0.63642 0.0
H1839 H 0.2832 0.06793 0.63824 0.0
H1840 H 0.96295 0.4658 0.11753 0.0
H1841 H 0.91382 0.48823 0.12128 0.0
H1842 H 0.74342 0.46821 0.11644 0.0
H1843 H 0.79226 0.44563 0.11287 0.0
H1844 H 0.84205 0.50171 0.09608 0.0
H1845 H 0.72099 0.49164 0.16469 0.0
H1846 H 0.77914 0.48036 0.15598 0.0
H1847 H 0.70562 0.47914 0.14601 0.0
C1848 C 0.91495 0.46611 0.11739 0.0
C1849 C 0.88164 0.45385 0.11512 0.0
C1850 C 0.88695 0.47897 0.11954 0.0
C1851 C 0.82492 0.47991 0.11943 0.0
C1852 C 0.79133 0.46771 0.11709 0.0
H1853 H 0.57156 0.54688 0.12295 0.0
H1854 H 0.62481 0.52502 0.11926 0.0
C1855 C 0.81937 0.45478 0.11506 0.0
C1856 C 0.79586 0.49374 0.12107 0.0
H1857 H 0.69629 0.5124 0.14784 0.0
C1858 C 0.81043 0.50408 0.10747 0.0
C1859 C 0.75478 0.49684 0.13597 0.0
C1860 C 0.73956 0.48647 0.15161 0.0
C1861 C 0.78405 0.51731 0.10811 0.0
C1862 C 0.74245 0.52033 0.12286 0.0
C1863 C 0.72817 0.51004 0.13652 0.0
C1864 C 0.71153 0.53394 0.12405 0.0
C1865 C 0.7997 0.52784 0.09273 0.0
C1866 C 0.74269 0.54629 0.12786 0.0
C1867 C 0.71226 0.55892 0.13003 0.0
C1868 C 0.65002 0.55938 0.12848 0.0
C1869 C 0.61939 0.54696 0.12435 0.0
C1870 C 0.64974 0.53442 0.12221 0.0
H1871 H 0.82261 0.52298 0.08017 0.0
H1872 H 0.75933 0.53325 0.08742 0.0
H1873 H 0.82974 0.53578 0.09904 0.0
H1874 H 0.79037 0.5461 0.12968 0.0
H1875 H 0.73741 0.56815 0.1336 0.0
H1876 H 0.19534 0.44794 0.39182 0.0
H1877 H 0.2416 0.47078 0.38853 0.0
H1878 H 0.13833 0.48602 0.43666 0.0
H1879 H 0.09336 0.46318 0.44056 0.0
H1880 H 0.18502 0.49571 0.38069 0.0
H1881 H 0.30375 0.49907 0.451 0.0
H1882 H 0.27477 0.48291 0.44164 0.0
H1883 H 0.22632 0.49515 0.45341 0.0
C1884 C 0.18349 0.45599 0.40208 0.0
C1885 C 0.141 0.45356 0.41667 0.0
C1886 C 0.20964 0.46912 0.40003 0.0
C1887 C 0.1941 0.48007 0.41253 0.0
C1888 C 0.15204 0.47768 0.42711 0.0
H1889 H 0.29533 0.56786 0.41898 0.0
H1890 H 0.24321 0.54566 0.42293 0.0
C1891 C 0.12598 0.46459 0.4292 0.0
C1892 C 0.21946 0.49418 0.40974 0.0
H1893 H 0.29791 0.51986 0.43247 0.0
C1894 C 0.20995 0.50096 0.39198 0.0
C1895 C 0.25154 0.50108 0.42455 0.0
C1896 C 0.26524 0.49415 0.44366 0.0
C1897 C 0.23125 0.51448 0.38866 0.0
C1898 C 0.2636 0.52133 0.40342 0.0
C1899 C 0.27268 0.51462 0.42124 0.0
C1900 C 0.29172 0.53509 0.4002 0.0
C1901 C 0.21837 0.52137 0.36947 0.0
C1902 C 0.33612 0.53651 0.38613 0.0
C1903 C 0.36572 0.54913 0.38379 0.0
C1904 C 0.35173 0.56067 0.3955 0.0
C1905 C 0.3065 0.55931 0.40944 0.0
C1906 C 0.277 0.54659 0.41184 0.0
H1907 H 0.17973 0.51654 0.36209 0.0
H1908 H 0.20952 0.53264 0.37138 0.0
H1909 H 0.25746 0.52021 0.35983 0.0
H1910 H 0.34901 0.52772 0.37724 0.0
H1911 H 0.40032 0.54979 0.37294 0.0
H1912 H 0.42497 0.46598 0.92331 0.0
H1913 H 0.37409 0.48836 0.92375 0.0
H1914 H 0.23102 0.47088 0.89017 0.0
H1915 H 0.28143 0.44835 0.88983 0.0
H1916 H 0.34834 0.50401 0.89226 0.0
H1917 H 0.14153 0.49166 0.9322 0.0
H1918 H 0.20497 0.48022 0.93215 0.0
H1919 H 0.15485 0.48042 0.91186 0.0
C1920 C 0.38222 0.46683 0.91624 0.0
C1921 C 0.35713 0.45534 0.90665 0.0
C1922 C 0.35322 0.47964 0.91652 0.0
C1923 C 0.2985 0.48128 0.90717 0.0
C1924 C 0.27257 0.46978 0.89788 0.0
H1925 H 0.0769 0.5506 0.87653 0.0
H1926 H 0.12631 0.52826 0.88038 0.0
C1927 C 0.30145 0.45688 0.89771 0.0
C1928 C 0.27103 0.49529 0.906 0.0
H1929 H 0.14477 0.51353 0.91597 0.0
C1930 C 0.304 0.50612 0.8976 0.0
C1931 C 0.21322 0.49803 0.91297 0.0
C1932 C 0.17674 0.48701 0.92297 0.0
C1933 C 0.28024 0.51953 0.89557 0.0
C1934 C 0.22218 0.52221 0.90229 0.0
C1935 C 0.18933 0.51143 0.91084 0.0
C1936 C 0.19372 0.53598 0.89987 0.0
C1937 C 0.31671 0.53064 0.88575 0.0
C1938 C 0.21531 0.54778 0.90959 0.0
C1939 C 0.187 0.56066 0.90748 0.0
C1940 C 0.13652 0.56195 0.89558 0.0
C1941 C 0.11548 0.55005 0.88584 0.0
C1942 C 0.14365 0.53723 0.888 0.0
H1943 H 0.35566 0.52622 0.87804 0.0
H1944 H 0.28934 0.53654 0.8752 0.0
H1945 H 0.33312 0.53808 0.89683 0.0
H1946 H 0.25339 0.54696 0.91909 0.0
H1947 H 0.20381 0.56943 0.91562 0.0
H1948 H 0.79774 0.56678 0.61095 0.0
H1949 H 0.74675 0.54444 0.60712 0.0
H1950 H 0.85563 0.52673 0.65216 0.0
H1951 H 0.90571 0.54895 0.65641 0.0
H1952 H 0.80068 0.51882 0.59711 0.0
H1953 H 0.68831 0.51519 0.66847 0.0
H1954 H 0.71738 0.53133 0.65909 0.0
H1955 H 0.76616 0.51886 0.67017 0.0
C1956 C 0.80987 0.55825 0.62038 0.0
C1957 C 0.85552 0.55975 0.63416 0.0
C1958 C 0.78102 0.54544 0.61804 0.0
C1959 C 0.79684 0.53397 0.62954 0.0
C1960 C 0.84185 0.53549 0.64339 0.0
H1961 H 0.70223 0.44665 0.63796 0.0
H1962 H 0.74946 0.46944 0.64086 0.0
C1963 C 0.87075 0.54821 0.64568 0.0
C1964 C 0.76893 0.52016 0.62649 0.0
H1965 H 0.69274 0.49439 0.64973 0.0
C1966 C 0.77656 0.51352 0.60853 0.0
C1967 C 0.73795 0.51323 0.64148 0.0
C1968 C 0.72641 0.52005 0.66084 0.0
C1969 C 0.75528 0.49998 0.60531 0.0
C1970 C 0.72465 0.493 0.62035 0.0
C1971 C 0.71662 0.4997 0.63826 0.0
C1972 C 0.69901 0.4789 0.61767 0.0
C1973 C 0.76716 0.49313 0.586 0.0
C1974 C 0.65505 0.47664 0.60366 0.0
C1975 C 0.62834 0.46361 0.60182 0.0
C1976 C 0.64469 0.45251 0.61403 0.0
C1977 C 0.68927 0.45478 0.62798 0.0
C1978 C 0.716 0.46787 0.6298 0.0
H1979 H 0.80472 0.49814 0.57826 0.0
H1980 H 0.7772 0.4819 0.58782 0.0
H1981 H 0.72719 0.49409 0.57671 0.0
H1982 H 0.6403 0.48505 0.59441 0.0
H1983 H 0.59411 0.46229 0.59096 0.0
H1984 H 0.13792 0.20535 0.12053 0.0
H1985 H 0.11586 0.23008 0.12218 0.0
H1986 H 0.93292 0.22172 0.1083 0.0
H1987 H 0.95463 0.19674 0.10663 0.0
H1988 H 0.07258 0.24666 0.09229 0.0
H1989 H 0.92166 0.24715 0.15609 0.0
H1990 H 0.96849 0.23248 0.15041 0.0
H1991 H 0.90156 0.2354 0.1369 0.0
C1992 C 0.09276 0.2087 0.11793 0.0
C1993 C 0.04801 0.199 0.11352 0.0
C1994 C 0.08031 0.22287 0.11888 0.0
C1995 C 0.02278 0.22776 0.11547 0.0
C1996 C 0.9775 0.21815 0.11131 0.0
H1997 H 0.87979 0.3114 0.11901 0.0
H1998 H 0.89607 0.28669 0.11327 0.0
C1999 C 0.98994 0.20386 0.11041 0.0
C2000 C 0.01147 0.24296 0.11574 0.0
H2001 H 0.93733 0.2685 0.14011 0.0
C2002 C 0.04288 0.25145 0.10271 0.0
C2003 C 0.9728 0.24918 0.12935 0.0
C2004 C 0.93946 0.24064 0.14411 0.0
C2005 C 0.03653 0.26598 0.10288 0.0
C2006 C 0.99851 0.27222 0.11668 0.0
C2007 C 0.96655 0.26371 0.12955 0.0
C2008 C 0.99072 0.28753 0.1181 0.0
C2009 C 0.06988 0.2745 0.0881 0.0
C2010 C 0.0388 0.29634 0.12236 0.0
C2011 C 0.02968 0.31059 0.12552 0.0
C2012 C 0.97217 0.3162 0.1247 0.0
C2013 C 0.92461 0.3074 0.11985 0.0
C2014 C 0.93378 0.29325 0.11657 0.0
H2015 H 0.08362 0.26811 0.07544 0.0
H2016 H 0.04259 0.28333 0.08283 0.0
H2017 H 0.11054 0.27878 0.09491 0.0
H2018 H 0.083 0.29211 0.124 0.0
H2019 H 0.06707 0.31703 0.12956 0.0
H2020 H 0.54614 0.81602 0.1286 0.0
H2021 H 0.56596 0.79099 0.1279 0.0
H2022 H 0.40433 0.7843 0.09586 0.0
H2023 H 0.38507 0.80919 0.09593 0.0
H2024 H 0.49474 0.77053 0.14386 0.0
H2025 H 0.52146 0.76129 0.06497 0.0
H2026 H 0.52434 0.77846 0.0755 0.0
H2027 H 0.45408 0.77023 0.07093 0.0
C2028 C 0.51568 0.8093 0.12091 0.0
C2029 C 0.46421 0.8147 0.11215 0.0
C2030 C 0.5268 0.79495 0.12069 0.0
C2031 C 0.487 0.78577 0.11162 0.0
C2032 C 0.43633 0.79117 0.10259 0.0
H2033 H 0.45869 0.69508 0.10331 0.0
H2034 H 0.43571 0.72008 0.10362 0.0
C2035 C 0.42519 0.80544 0.10279 0.0
C2036 C 0.49602 0.77049 0.11262 0.0
H2037 H 0.50854 0.74121 0.08479 0.0
C2038 C 0.49817 0.76414 0.13095 0.0
C2039 C 0.49991 0.76213 0.09576 0.0
C2040 C 0.5004 0.76837 0.07568 0.0
C2041 C 0.50351 0.74965 0.13285 0.0
C2042 C 0.50736 0.74131 0.116 0.0
C2043 C 0.50491 0.74763 0.09768 0.0
C2044 C 0.51847 0.72613 0.11708 0.0
C2045 C 0.50434 0.74335 0.15289 0.0
C2046 C 0.57235 0.72129 0.12458 0.0
C2047 C 0.58553 0.70713 0.12438 0.0
C2048 C 0.54509 0.69744 0.11672 0.0
C2049 C 0.49037 0.70225 0.10959 0.0
C2050 C 0.47739 0.71652 0.10963 0.0
H2051 H 0.48552 0.75054 0.1639 0.0
H2052 H 0.47902 0.73345 0.15323 0.0
H2053 H 0.55085 0.74105 0.15704 0.0
H2054 H 0.60503 0.72853 0.13012 0.0
H2055 H 0.62804 0.70378 0.13 0.0
H2056 H 0.53484 0.69595 0.39884 0.0
H2057 H 0.55462 0.721 0.39761 0.0
H2058 H 0.41283 0.72829 0.43831 0.0
H2059 H 0.39373 0.7034 0.44 0.0
H2060 H 0.47281 0.74087 0.38521 0.0
H2061 H 0.54489 0.75232 0.46045 0.0
H2062 H 0.54341 0.7349 0.4507 0.0
H2063 H 0.4762 0.74295 0.45911 0.0
C2064 C 0.5091 0.70282 0.408 0.0
C2065 C 0.46295 0.69761 0.41965 0.0
C2066 C 0.52009 0.71716 0.40713 0.0
C2067 C 0.48559 0.72651 0.41802 0.0
C2068 C 0.44079 0.72129 0.43007 0.0
H2069 H 0.46167 0.81742 0.42425 0.0
H2070 H 0.43965 0.79246 0.4269 0.0
C2071 C 0.42969 0.70703 0.4309 0.0
C2072 C 0.49298 0.74177 0.41572 0.0
H2073 H 0.52044 0.77179 0.4407 0.0
C2074 C 0.48363 0.74762 0.39732 0.0
C2075 C 0.50632 0.75059 0.43157 0.0
C2076 C 0.51882 0.74488 0.45154 0.0
C2077 C 0.48677 0.76205 0.39437 0.0
C2078 C 0.50048 0.77086 0.41019 0.0
C2079 C 0.5094 0.76503 0.42862 0.0
C2080 C 0.5102 0.78601 0.4076 0.0
C2081 C 0.47465 0.76777 0.37438 0.0
C2082 C 0.55686 0.79064 0.39586 0.0
C2083 C 0.56935 0.80478 0.39429 0.0
C2084 C 0.53559 0.8147 0.40447 0.0
C2085 C 0.48791 0.8101 0.41596 0.0
C2086 C 0.47561 0.79584 0.41761 0.0
H2087 H 0.44832 0.76038 0.36547 0.0
H2088 H 0.45051 0.77781 0.37518 0.0
H2089 H 0.51741 0.76959 0.36683 0.0
H2090 H 0.58479 0.78325 0.38828 0.0
H2091 H 0.60637 0.80794 0.38531 0.0
H2092 H 0.09247 0.30751 0.37297 0.0
H2093 H 0.07597 0.28308 0.38026 0.0
H2094 H 0.9673 0.29442 0.42919 0.0
H2095 H 0.9842 0.31911 0.42222 0.0
H2096 H 0.10603 0.26955 0.41639 0.0
H2097 H 0.86641 0.26564 0.39778 0.0
H2098 H 0.91256 0.27968 0.38915 0.0
H2099 H 0.888 0.27946 0.4139 0.0
C2100 C 0.06471 0.3049 0.38527 0.0
C2101 C 0.03952 0.31538 0.39694 0.0
C2102 C 0.0554 0.29088 0.38939 0.0
C2103 C 0.02037 0.28693 0.40521 0.0
C2104 C 0.99398 0.29727 0.41675 0.0
H2105 H 0.91166 0.20397 0.4403 0.0
H2106 H 0.93187 0.22888 0.43967 0.0
C2107 C 1.00342 0.3114 0.41266 0.0
C2108 C 0.01335 0.27194 0.4097 0.0
H2109 H 0.91337 0.24533 0.40891 0.0
C2110 C 0.06385 0.26424 0.41488 0.0
C2111 C 0.95834 0.26507 0.40772 0.0
C2112 C 0.90312 0.2728 0.40172 0.0
C2113 C 0.06085 0.24983 0.4181 0.0
C2114 C 0.00609 0.24288 0.41563 0.0
C2115 C 0.95538 0.25065 0.41078 0.0
C2116 C 1.00006 0.22755 0.41769 0.0
C2117 C 0.11618 0.24223 0.42431 0.0
C2118 C 0.03271 0.21839 0.40587 0.0
C2119 C 0.02166 0.20405 0.40635 0.0
C2120 C 0.97716 0.19865 0.41848 0.0
C2121 C 0.94619 0.2078 0.43078 0.0
C2122 C 0.95757 0.22206 0.43041 0.0
H2123 H 0.1487 0.24939 0.43115 0.0
H2124 H 0.1057 0.23377 0.43471 0.0
H2125 H 0.13758 0.23755 0.41137 0.0
H2126 H 0.0648 0.22239 0.39561 0.0
H2127 H 0.04542 0.19734 0.39641 0.0
H2128 H 0.03769 0.81888 0.92615 0.0
H2129 H 0.05736 0.79376 0.92781 0.0
H2130 H 0.90027 0.78577 0.89399 0.0
H2131 H 0.88057 0.81065 0.89214 0.0
H2132 H 0.97347 0.77327 0.94359 0.0
H2133 H 0.03231 0.76276 0.86672 0.0
H2134 H 0.03615 0.77993 0.87729 0.0
H2135 H 0.96585 0.77276 0.87025 0.0
C2136 C 0.00809 0.81179 0.91874 0.0
C2137 C 0.95771 0.81677 0.90892 0.0
C2138 C 0.01913 0.79745 0.91981 0.0
C2139 C 0.98053 0.78794 0.91086 0.0
C2140 C 0.93104 0.79293 0.90077 0.0
H2141 H 0.96142 0.69771 0.89981 0.0
H2142 H 0.93858 0.72262 0.89917 0.0
C2143 C 0.91972 0.80716 0.89984 0.0
C2144 C 0.98956 0.77274 0.91284 0.0
H2145 H 0.01451 0.74314 0.88671 0.0
C2146 C 0.98292 0.76667 0.93121 0.0
C2147 C 1.00094 0.76417 0.89659 0.0
C2148 C 0.00973 0.7702 0.8766 0.0
C2149 C 0.98654 0.7522 0.93373 0.0
C2150 C 0.99842 0.74361 0.9175 0.0
C2151 C 0.00499 0.74971 0.89912 0.0
C2152 C 0.00771 0.72838 0.9194 0.0
C2153 C 0.97631 0.74624 0.9537 0.0
C2154 C 0.05364 0.72334 0.93113 0.0
C2155 C 0.06636 0.70915 0.93168 0.0
C2156 C 0.03382 0.69963 0.92039 0.0
C2157 C 0.98669 0.70465 0.909 0.0
C2158 C 0.97394 0.71892 0.90846 0.0
H2159 H 0.9496 0.75339 0.96287 0.0
H2160 H 0.95333 0.73605 0.95292 0.0
H2161 H 0.01969 0.74469 0.96097 0.0
H2162 H 0.08116 0.73043 0.93937 0.0
H2163 H 0.10302 0.70569 0.94061 0.0
H2164 H 0.61411 0.20506 0.93483 0.0
H2165 H 0.59276 0.22991 0.93473 0.0
H2166 H 0.43866 0.22265 0.89916 0.0
H2167 H 0.45977 0.19767 0.89908 0.0
H2168 H 0.5889 0.24649 0.90152 0.0
H2169 H 0.37607 0.24866 0.94192 0.0
H2170 H 0.42448 0.23371 0.94268 0.0
H2171 H 0.37738 0.23656 0.92205 0.0
C2172 C 0.57512 0.20869 0.92718 0.0
C2173 C 0.53853 0.1993 0.91705 0.0
C2174 C 0.56306 0.22292 0.92714 0.0
C2175 C 0.51401 0.22814 0.91704 0.0
C2176 C 0.47622 0.21882 0.90735 0.0
H2177 H 0.3781 0.30971 0.89155 0.0
H2178 H 0.40084 0.28501 0.89355 0.0
C2179 C 0.48824 0.20451 0.90739 0.0
C2180 C 0.5049 0.2434 0.91573 0.0
H2181 H 0.40769 0.26945 0.92664 0.0
C2182 C 0.54941 0.25154 0.90709 0.0
C2183 C 0.45343 0.24995 0.92302 0.0
C2184 C 0.40525 0.24182 0.9331 0.0
C2185 C 0.54322 0.26601 0.90513 0.0
C2186 C 0.49158 0.27256 0.91234 0.0
C2187 C 0.4473 0.26442 0.92112 0.0
C2188 C 0.48114 0.28775 0.91025 0.0
C2189 C 0.59118 0.27409 0.89486 0.0
C2190 C 0.51921 0.29759 0.91878 0.0
C2191 C 0.50648 0.31185 0.91757 0.0
C2192 C 0.45508 0.31646 0.90796 0.0
C2193 C 0.41788 0.30654 0.89917 0.0
C2194 C 0.43076 0.29239 0.90029 0.0
H2195 H 0.62038 0.2672 0.88613 0.0
H2196 H 0.57175 0.28209 0.88514 0.0
H2197 H 0.61911 0.27947 0.90578 0.0
H2198 H 0.55778 0.29424 0.92687 0.0
H2199 H 0.53549 0.31917 0.9248 0.0
H2200 H 0.41356 0.20394 0.58234 0.0
H2201 H 0.43382 0.22881 0.58433 0.0
H2202 H 0.55283 0.22159 0.63223 0.0
H2203 H 0.53319 0.1966 0.63022 0.0
H2204 H 0.40797 0.24516 0.61525 0.0
H2205 H 0.64827 0.24828 0.59902 0.0
H2206 H 0.60473 0.23296 0.59389 0.0
H2207 H 0.63095 0.23626 0.61811 0.0
C2208 C 0.44495 0.2076 0.59309 0.0
C2209 C 0.47203 0.19825 0.60604 0.0
C2210 C 0.45639 0.22183 0.59421 0.0
C2211 C 0.49514 0.22708 0.60832 0.0
C2212 C 0.52374 0.21776 0.62093 0.0
H2213 H 0.58692 0.30671 0.65475 0.0
H2214 H 0.56894 0.28231 0.64748 0.0
C2215 C 0.51256 0.20344 0.61975 0.0
C2216 C 0.50175 0.24236 0.61075 0.0
H2217 H 0.6036 0.26858 0.61258 0.0
C2218 C 0.45068 0.25031 0.61446 0.0
C2219 C 0.55743 0.24906 0.60968 0.0
C2220 C 0.61341 0.24123 0.60477 0.0
C2221 C 0.45404 0.26471 0.61774 0.0
C2222 C 0.50987 0.27134 0.6171 0.0
C2223 C 0.56081 0.26345 0.61307 0.0
C2224 C 0.5171 0.28631 0.62172 0.0
C2225 C 0.39822 0.27264 0.62253 0.0
C2226 C 0.49323 0.29672 0.60973 0.0
C2227 C 0.50346 0.31081 0.61384 0.0
C2228 C 0.53794 0.31468 0.62999 0.0
C2229 C 0.56048 0.30415 0.64212 0.0
C2230 C 0.5503 0.29017 0.63801 0.0
H2231 H 0.36055 0.2656 0.62589 0.0
H2232 H 0.40563 0.27964 0.63511 0.0
H2233 H 0.38559 0.27917 0.60993 0.0
H2234 H 0.46812 0.29394 0.59691 0.0
H2235 H 0.48635 0.31857 0.60396 0.0
H2236 H 0.04866 0.69542 0.60322 0.0
H2237 H 0.07174 0.72041 0.60377 0.0
H2238 H 0.89989 0.72894 0.62842 0.0
H2239 H 0.87666 0.70418 0.62799 0.0
H2240 H 0.99834 0.74143 0.58395 0.0
H2241 H 0.018 0.7511 0.66314 0.0
H2242 H 0.0264 0.73402 0.65258 0.0
H2243 H 0.95383 0.74134 0.65582 0.0
C2244 C 0.01642 0.7026 0.60916 0.0
C2245 C 0.96091 0.69782 0.61564 0.0
C2246 C 0.02947 0.71686 0.60934 0.0
C2247 C 0.98767 0.72649 0.6163 0.0
C2248 C 0.93306 0.72168 0.62324 0.0
H2249 H 0.96563 0.81665 0.62723 0.0
H2250 H 0.94354 0.79172 0.62683 0.0
C2251 C 0.91978 0.70752 0.62288 0.0
C2252 C 0.99882 0.74166 0.61516 0.0
H2253 H 0.01179 0.77096 0.64282 0.0
C2254 C 1.00185 0.74789 0.5968 0.0
C2255 C 1.00233 0.75005 0.63195 0.0
C2256 C 1.00046 0.74382 0.65202 0.0
C2257 C 0.00738 0.76237 0.59477 0.0
C2258 C 0.01137 0.77079 0.61158 0.0
C2259 C 0.00837 0.76452 0.62995 0.0
C2260 C 0.02172 0.78603 0.61045 0.0
C2261 C 0.0074 0.76852 0.57463 0.0
C2262 C 0.07271 0.79113 0.60128 0.0
C2263 C 0.08508 0.80533 0.60128 0.0
C2264 C 0.04709 0.81484 0.61061 0.0
C2265 C 0.99534 0.80974 0.61954 0.0
C2266 C 0.98293 0.79545 0.61951 0.0
H2267 H 0.98547 0.7615 0.56403 0.0
H2268 H 0.98457 0.77875 0.57436 0.0
H2269 H 0.05387 0.77006 0.56981 0.0
H2270 H 0.10401 0.78406 0.59457 0.0
H2271 H 0.12539 0.80883 0.59427 0.0
H2272 H 0.89031 0.12281 0.33774 0.0
H2273 H 0.90659 0.12364 0.30267 0.0
H2274 H 0.07134 0.14542 0.3117 0.0
H2275 H 0.05516 0.14485 0.34672 0.0
H2276 H 0.00494 0.15687 0.28224 0.0
H2277 H 0.02448 0.09978 0.27258 0.0
H2278 H 0.95688 0.10518 0.28409 0.0
H2279 H 0.02658 0.10797 0.29612 0.0
C2280 C 0.92999 0.12781 0.3323 0.0
C2281 C 0.97153 0.1337 0.34515 0.0
C2282 C 0.93941 0.12819 0.31222 0.0
C2283 C 0.99072 0.13437 0.30455 0.0
C2284 C 0.03158 0.14052 0.31728 0.0
H2285 H 0.12856 0.12291 0.1876 0.0
H2286 H 0.11421 0.12376 0.22274 0.0
C2287 C 0.02221 0.14017 0.33734 0.0
C2288 C 1.00189 0.13451 0.28327 0.0
H2289 H 0.02104 0.11338 0.24388 0.0
C2290 C 0.00855 0.14736 0.27385 0.0
C2291 C 0.00754 0.1221 0.27237 0.0
C2292 C 1.00409 0.10797 0.2818 0.0
C2293 C 0.01976 0.14815 0.25381 0.0
C2294 C 0.02348 0.13574 0.24281 0.0
C2295 C 0.01772 0.12289 0.25228 0.0
C2296 C 0.0334 0.13584 0.22146 0.0
C2297 C 0.02859 0.16225 0.24468 0.0
C2298 C 0.99278 0.14235 0.20899 0.0
C2299 C 1.00096 0.14194 0.18887 0.0
C2300 C 0.04976 0.1349 0.18073 0.0
C2301 C 0.0906 0.12847 0.19329 0.0
C2302 C 0.08239 0.1289 0.21342 0.0
H2303 H 0.04082 0.17022 0.25565 0.0
H2304 H 0.06365 0.16191 0.23338 0.0
H2305 H 0.9866 0.16559 0.23771 0.0
H2306 H 0.95397 0.14751 0.2148 0.0
H2307 H 0.9683 0.14693 0.1797 0.0
H2308 H 0.414 0.90259 0.18416 0.0
H2309 H 0.42815 0.90396 0.21931 0.0
H2310 H 0.53491 0.86677 0.21754 0.0
H2311 H 0.52289 0.86564 0.18238 0.0
H2312 H 0.3992 0.88742 0.24814 0.0
H2313 H 0.6435 0.89193 0.24679 0.0
H2314 H 0.59911 0.89329 0.22512 0.0
H2315 H 0.61884 0.87648 0.23469 0.0
C2316 C 0.44054 0.89471 0.19126 0.0
C2317 C 0.4678 0.88409 0.18043 0.0
C2318 C 0.44866 0.89551 0.21136 0.0
C2319 C 0.48384 0.88566 0.22106 0.0
C2320 C 0.50928 0.87477 0.21035 0.0
H2321 H 0.47345 0.86808 0.3443 0.0
H2322 H 0.45926 0.86874 0.30923 0.0
C2323 C 0.50194 0.87407 0.19024 0.0
C2324 C 0.493 0.88662 0.2424 0.0
H2325 H 0.59987 0.88655 0.27751 0.0
C2326 C 0.44312 0.88734 0.25455 0.0
C2327 C 0.5503 0.88682 0.25081 0.0
C2328 C 0.60594 0.88724 0.23866 0.0
C2329 C 0.44885 0.88788 0.27483 0.0
C2330 C 0.50605 0.8872 0.28327 0.0
C2331 C 0.55597 0.88686 0.2711 0.0
C2332 C 0.51519 0.88674 0.30465 0.0
C2333 C 0.39346 0.88941 0.28693 0.0
C2334 C 0.55342 0.89626 0.31375 0.0
C2335 C 0.56272 0.89571 0.33382 0.0
C2336 C 0.53364 0.88568 0.3452 0.0
C2337 C 0.4959 0.87607 0.33601 0.0
C2338 C 0.48734 0.8765 0.31594 0.0
H2339 H 0.35715 0.89439 0.27854 0.0
H2340 H 0.37784 0.87897 0.29144 0.0
H2341 H 0.40184 0.89572 0.30015 0.0
H2342 H 0.57577 0.9042 0.30535 0.0
H2343 H 0.59205 0.90326 0.34043 0.0
H2344 H 0.96052 0.87023 0.67939 0.0
H2345 H 0.94313 0.87074 0.71431 0.0
H2346 H 0.10654 0.89322 0.7226 0.0
H2347 H 0.12407 0.89298 0.68757 0.0
H2348 H 0.00958 0.86025 0.74424 0.0
H2349 H 0.9864 0.91746 0.75128 0.0
H2350 H 0.9852 0.9087 0.72812 0.0
H2351 H 0.05452 0.91202 0.74013 0.0
C2352 C 0.99295 0.87529 0.68859 0.0
C2353 C 0.04364 0.88163 0.68059 0.0
C2354 C 0.98284 0.87557 0.70858 0.0
C2355 C 0.02297 0.88222 0.72104 0.0
C2356 C 0.07428 0.8883 0.71321 0.0
H2357 H 0.05062 0.87211 0.84531 0.0
H2358 H 0.06331 0.8717 0.81022 0.0
C2359 C 0.08444 0.88805 0.69318 0.0
C2360 C 0.01131 0.88258 0.74224 0.0
H2361 H 0.99061 0.90454 0.78064 0.0
C2362 C 0.00527 0.86993 0.75219 0.0
C2363 C 0.00469 0.89522 0.75254 0.0
C2364 C 0.00744 0.90913 0.74247 0.0
C2365 C 0.99402 0.86957 0.77222 0.0
C2366 C 0.98966 0.8822 0.78265 0.0
C2367 C 0.99444 0.89486 0.77265 0.0
C2368 C 0.98134 0.88248 0.80402 0.0
C2369 C 0.98616 0.85565 0.78199 0.0
C2370 C 0.93162 0.88899 0.81227 0.0
C2371 C 0.92425 0.88933 0.83245 0.0
C2372 C 0.96673 0.88323 0.84474 0.0
C2373 C 0.01669 0.87682 0.83635 0.0
C2374 C 0.02397 0.87651 0.81624 0.0
H2375 H 0.97407 0.84741 0.7714 0.0
H2376 H 0.02849 0.85259 0.78897 0.0
H2377 H 0.95136 0.85614 0.79336 0.0
H2378 H 0.89835 0.89375 0.80308 0.0
H2379 H 0.88539 0.8944 0.83838 0.0
H2380 H 0.62234 0.12299 0.8382 0.0
H2381 H 0.60914 0.12407 0.80298 0.0
H2382 H 0.4447 0.14622 0.8108 0.0
H2383 H 0.45774 0.14538 0.8459 0.0
H2384 H 0.51842 0.11334 0.78081 0.0
H2385 H 0.5305 0.17049 0.77146 0.0
H2386 H 0.55363 0.16191 0.79348 0.0
H2387 H 0.4763 0.16514 0.789 0.0
C2388 C 0.58359 0.1282 0.83245 0.0
C2389 C 0.54129 0.13416 0.84497 0.0
C2390 C 0.57608 0.12879 0.81229 0.0
C2391 C 0.52638 0.13541 0.80421 0.0
C2392 C 0.48407 0.14133 0.81665 0.0
H2393 H 0.38479 0.12329 0.68792 0.0
H2394 H 0.40165 0.12392 0.72295 0.0
C2395 C 0.49152 0.14077 0.83678 0.0
C2396 C 0.51752 0.13567 0.78282 0.0
H2397 H 0.49602 0.15746 0.7443 0.0
C2398 C 0.5138 0.12299 0.77281 0.0
C2399 C 0.51216 0.14826 0.77234 0.0
C2400 C 0.51892 0.16223 0.78207 0.0
C2401 C 0.50373 0.12254 0.75269 0.0
C2402 C 0.4961 0.13512 0.74233 0.0
C2403 C 0.50107 0.14781 0.75228 0.0
C2404 C 0.48415 0.13532 0.72111 0.0
C2405 C 0.50232 0.10859 0.74268 0.0
C2406 C 0.52367 0.14199 0.70843 0.0
C2407 C 0.51392 0.14176 0.68838 0.0
C2408 C 0.46422 0.1349 0.68055 0.0
C2409 C 0.42372 0.1286 0.69337 0.0
C2410 C 0.4335 0.12885 0.71343 0.0
H2411 H 0.52431 0.10041 0.75149 0.0
H2412 H 0.45553 0.10542 0.74041 0.0
H2413 H 0.52437 0.1091 0.72829 0.0
H2414 H 0.56285 0.14712 0.71403 0.0
H2415 H 0.54605 0.14675 0.67901 0.0
H2416 H 0.46126 0.64491 0.1808 0.0
H2417 H 0.44556 0.64581 0.21581 0.0
H2418 H 0.60805 0.62315 0.22493 0.0
H2419 H 0.6239 0.622 0.18984 0.0
H2420 H 0.51431 0.6126 0.24617 0.0
H2421 H 0.53 0.66969 0.25612 0.0
H2422 H 0.47702 0.66451 0.23808 0.0
H2423 H 0.55451 0.66107 0.23428 0.0
C2424 C 0.49406 0.6402 0.1902 0.0
C2425 C 0.54403 0.63342 0.1824 0.0
C2426 C 0.48509 0.6408 0.21027 0.0
C2427 C 0.52601 0.63472 0.22305 0.0
C2428 C 0.576 0.62797 0.21536 0.0
H2429 H 0.54494 0.64536 0.34811 0.0
H2430 H 0.56127 0.64569 0.31309 0.0
C2431 C 0.58506 0.62736 0.19527 0.0
C2432 C 0.5155 0.63494 0.24437 0.0
H2433 H 0.49451 0.65666 0.28305 0.0
C2434 C 0.51016 0.62223 0.25425 0.0
C2435 C 0.51067 0.64751 0.25496 0.0
C2436 C 0.51889 0.66148 0.24538 0.0
C2437 C 0.49931 0.62175 0.27432 0.0
C2438 C 0.49262 0.63432 0.2848 0.0
C2439 C 0.49889 0.64703 0.27498 0.0
C2440 C 0.48095 0.63449 0.30606 0.0
C2441 C 0.49623 0.60777 0.2842 0.0
C2442 C 0.42965 0.62835 0.31379 0.0
C2443 C 0.42009 0.62812 0.33388 0.0
C2444 C 0.46154 0.63411 0.34666 0.0
C2445 C 0.51206 0.64061 0.33878 0.0
C2446 C 0.52153 0.64082 0.31872 0.0
H2447 H 0.51697 0.59947 0.27527 0.0
H2448 H 0.51861 0.60807 0.29854 0.0
H2449 H 0.4491 0.60494 0.28656 0.0
H2450 H 0.39705 0.62366 0.30429 0.0
H2451 H 0.38056 0.62309 0.33937 0.0
H2452 H 0.90039 0.40454 0.18654 0.0
H2453 H 0.91385 0.40693 0.22168 0.0
H2454 H 0.08437 0.38692 0.21743 0.0
H2455 H 0.07135 0.38439 0.18252 0.0
H2456 H 0.01169 0.37516 0.24521 0.0
H2457 H 0.02158 0.43249 0.25416 0.0
H2458 H 0.95857 0.42621 0.24082 0.0
H2459 H 0.03173 0.42406 0.23097 0.0
C2460 C 0.94113 0.40082 0.19303 0.0
C2461 C 0.98463 0.39422 0.18162 0.0
C2462 C 0.94887 0.40226 0.21313 0.0
C2463 C 1.00037 0.39721 0.22219 0.0
C2464 C 0.04433 0.39093 0.21078 0.0
H2465 H 0.12294 0.40451 0.3421 0.0
H2466 H 0.11096 0.4067 0.30684 0.0
C2467 C 0.03671 0.38949 0.19076 0.0
C2468 C 0.007 0.39749 0.24367 0.0
H2469 H 0.01633 0.41904 0.28305 0.0
C2470 C 0.0128 0.38476 0.25346 0.0
C2471 C 0.00905 0.41002 0.25442 0.0
C2472 C 0.00544 0.424 0.24459 0.0
C2473 C 0.01984 0.38421 0.27368 0.0
C2474 C 0.02034 0.39671 0.28451 0.0
C2475 C 0.01548 0.40947 0.27474 0.0
C2476 C 0.02538 0.39658 0.306 0.0
C2477 C 0.02736 0.37022 0.28329 0.0
C2478 C 0.98056 0.39052 0.31726 0.0
C2479 C 0.98719 0.38924 0.33733 0.0
C2480 C 0.03885 0.39404 0.34668 0.0
C2481 C 0.08269 0.40065 0.33543 0.0
C2482 C 0.07592 0.40193 0.31527 0.0
H2483 H 0.04003 0.36203 0.2727 0.0
H2484 H 0.06162 0.3707 0.29484 0.0
H2485 H 0.9848 0.36711 0.2901 0.0
H2486 H 0.94079 0.38651 0.31044 0.0
H2487 H 0.95215 0.38421 0.34546 0.0
H2488 H 0.44706 0.38364 0.68085 0.0
H2489 H 0.4315 0.38441 0.71578 0.0
H2490 H 0.60948 0.39967 0.72387 0.0
H2491 H 0.62561 0.39902 0.68867 0.0
H2492 H 0.49571 0.36933 0.74297 0.0
H2493 H 0.50917 0.42604 0.75776 0.0
H2494 H 0.4981 0.4191 0.73367 0.0
H2495 H 0.57056 0.41887 0.74446 0.0
C2496 C 0.48291 0.38732 0.68995 0.0
C2497 C 0.53778 0.39123 0.68185 0.0
C2498 C 0.47383 0.38774 0.70998 0.0
C2499 C 0.51912 0.39216 0.72247 0.0
C2500 C 0.57354 0.39641 0.7145 0.0
H2501 H 0.53807 0.37344 0.84592 0.0
H2502 H 0.55495 0.37511 0.81101 0.0
C2503 C 0.58275 0.396 0.69436 0.0
C2504 C 0.50997 0.39146 0.74383 0.0
H2505 H 0.50256 0.41114 0.78507 0.0
C2506 C 0.49726 0.37848 0.75218 0.0
C2507 C 0.51136 0.40341 0.75579 0.0
C2508 C 0.52253 0.41768 0.74751 0.0
C2509 C 0.48628 0.3771 0.77215 0.0
C2510 C 0.48878 0.389 0.78419 0.0
C2511 C 0.501 0.40201 0.77584 0.0
C2512 C 0.47859 0.38811 0.80546 0.0
C2513 C 0.47096 0.36294 0.78013 0.0
C2514 C 0.43049 0.39504 0.81405 0.0
C2515 C 0.42058 0.39412 0.83408 0.0
C2516 C 0.45894 0.38632 0.84597 0.0
C2517 C 0.50733 0.37947 0.83727 0.0
C2518 C 0.51704 0.38037 0.81726 0.0
H2519 H 0.4567 0.35566 0.76852 0.0
H2520 H 0.51065 0.35846 0.78729 0.0
H2521 H 0.43507 0.36369 0.79111 0.0
H2522 H 0.40033 0.4011 0.80522 0.0
H2523 H 0.38311 0.3996 0.84024 0.0
H2524 H 0.87844 0.62321 0.68959 0.0
H2525 H 0.89348 0.62477 0.72468 0.0
H2526 H 0.055 0.64778 0.71544 0.0
H2527 H 0.04007 0.64647 0.68041 0.0
H2528 H 0.98695 0.61458 0.74611 0.0
H2529 H 0.96981 0.67169 0.75547 0.0
H2530 H 0.94588 0.66293 0.73367 0.0
H2531 H 0.02321 0.66653 0.73755 0.0
C2532 C 0.91685 0.62875 0.69499 0.0
C2533 C 0.95788 0.63476 0.68208 0.0
C2534 C 0.92545 0.6296 0.71509 0.0
C2535 C 0.97497 0.63655 0.72274 0.0
C2536 C 0.0158 0.64262 0.70993 0.0
H2537 H 0.12264 0.62548 0.83861 0.0
H2538 H 0.10505 0.62608 0.80362 0.0
C2539 C 0.00728 0.64179 0.68985 0.0
C2540 C 0.98531 0.63691 0.74407 0.0
H2541 H 0.00615 0.65886 0.78252 0.0
C2542 C 0.99091 0.62426 0.75408 0.0
C2543 C 0.98989 0.64954 0.75453 0.0
C2544 C 0.98133 0.66345 0.74482 0.0
C2545 C 1.00193 0.6239 0.77415 0.0
C2546 C 0.00853 0.63653 0.78449 0.0
C2547 C 1.00184 0.64918 0.77456 0.0
C2548 C 0.02096 0.63681 0.8057 0.0
C2549 C 0.00537 0.60997 0.78416 0.0
C2550 C 0.98068 0.64309 0.81851 0.0
C2551 C 0.99079 0.64287 0.83854 0.0
C2552 C 0.04164 0.6364 0.84624 0.0
C2553 C 0.08286 0.63049 0.83328 0.0
C2554 C 0.07267 0.63073 0.81324 0.0
H2555 H 0.98441 0.60162 0.77538 0.0
H2556 H 0.05259 0.60716 0.78638 0.0
H2557 H 0.98343 0.61034 0.79857 0.0
H2558 H 0.94065 0.64792 0.81303 0.0
H2559 H 0.95808 0.64756 0.84801 0.0
loop_
_geom_bond_atom_site_label_1
_geom_bond_atom_site_label_2
_geom_bond_distance
_geom_bond_site_symmetry_2
_ccdc_geom_bond_type
Zn0 N4 2.020 . S
Zn0 O8 2.019 1_455 S
Zn0 N10 2.119 . S
Zn0 O18 1.975 . S
C1 N2 1.334 . S
C1 N5 1.336 . S
N2 C1 1.334 . S
N2 C3 1.334 . S
C3 N2 1.334 . S
C3 N4 1.336 . S
N4 Zn0 2.020 . S
N4 C3 1.336 . S
N4 N5 1.354 . S
N5 C1 1.336 . S
N5 N4 1.354 . S
N5 Zn9 2.020 . S
C6 O7 1.244 . S
C6 O30 1.257 . S
O7 C6 1.244 . S
O8 Zn0 2.019 1_655 S
O8 C28 1.257 . S
Zn9 N5 2.020 . S
Zn9 O16 1.975 . S
Zn9 N25 2.119 . S
Zn9 O30 2.019 . S
N10 Zn0 2.119 . S
N10 C12 1.334 . S
N10 C13 1.328 1_455 S
C11 C12 1.391 . S
C11 N14 1.329 . S
C11 H32 0.930 . S
C12 N10 1.334 . S
C12 C11 1.391 . S
C12 H19 0.930 . S
C13 N10 1.328 1_655 S
C13 C15 1.392 1_655 S
C13 H20 0.930 . S
N14 C11 1.329 . S
N14 C15 1.331 . S
C15 C13 1.392 1_455 S
C15 N14 1.331 . S
O16 Zn9 1.975 . S
O16 C17 1.252 . S
C17 O16 1.252 . S
C17 O18 1.252 . S
O18 Zn0 1.975 . S
O18 C17 1.252 . S
H19 C12 0.930 . S
H20 C13 0.930 . S
C21 C22 1.392 . S
C21 N25 1.328 . S
C21 H27 0.930 . S
C22 C21 1.392 . S
C22 N26 1.331 . S
C23 C24 1.391 . S
C23 N26 1.329 . S
C23 H33 0.930 . S
C24 C23 1.391 . S
C24 N25 1.334 . S
C24 H31 0.930 . S
N25 Zn9 2.119 . S
N25 C21 1.328 . S
N25 C24 1.334 . S
N26 C22 1.331 . S
N26 C23 1.329 . S
H27 C21 0.930 . S
C28 O8 1.257 . S
C28 O29 1.244 . S
O29 C28 1.244 . S
O30 C6 1.257 . S
O30 Zn9 2.019 . S
H31 C24 0.930 . S
H32 C11 0.930 . S
H33 C23 0.930 . S
Zn34 N38 2.020 . S
Zn34 O42 2.019 . S
Zn34 N44 2.119 . S
Zn34 O52 1.975 . S
C35 N36 1.334 . S
C35 N39 1.336 . S
N36 C35 1.334 . S
N36 C37 1.334 . S
C37 N36 1.334 . S
C37 N38 1.336 . S
N38 Zn34 2.020 . S
N38 C37 1.336 . S
N38 N39 1.354 . S
N39 C35 1.336 . S
N39 N38 1.354 . S
N39 Zn43 2.020 . S
C40 O41 1.244 . S
C40 O64 1.257 . S
O41 C40 1.244 . S
O42 Zn34 2.019 . S
O42 C62 1.257 . S
Zn43 N39 2.020 . S
Zn43 O50 1.975 . S
Zn43 N59 2.119 . S
Zn43 O64 2.019 . S
N44 Zn34 2.119 . S
N44 C46 1.334 . S
N44 C47 1.328 . S
C45 C46 1.391 . S
C45 N48 1.329 . S
C45 H66 0.930 . S
C46 N44 1.334 . S
C46 C45 1.391 . S
C46 H53 0.930 . S
C47 N44 1.328 . S
C47 C49 1.392 . S
C47 H54 0.930 . S
N48 C45 1.329 . S
N48 C49 1.331 . S
C49 C47 1.392 . S
C49 N48 1.331 . S
O50 Zn43 1.975 . S
O50 C51 1.252 . S
C51 O50 1.252 . S
C51 O52 1.252 . S
O52 Zn34 1.975 . S
O52 C51 1.252 . S
H53 C46 0.930 . S
H54 C47 0.930 . S
C55 C56 1.392 . S
C55 N59 1.328 . S
C55 H61 0.930 . S
C56 C55 1.392 . S
C56 N60 1.331 . S
C57 C58 1.391 . S
C57 N60 1.329 . S
C57 H67 0.930 . S
C58 C57 1.391 . S
C58 N59 1.334 . S
C58 H65 0.930 . S
N59 Zn43 2.119 . S
N59 C55 1.328 . S
N59 C58 1.334 . S
N60 C56 1.331 . S
N60 C57 1.329 . S
H61 C55 0.930 . S
C62 O42 1.257 . S
C62 O63 1.244 . S
O63 C62 1.244 . S
O64 C40 1.257 . S
O64 Zn43 2.019 . S
H65 C58 0.930 . S
H66 C45 0.930 . S
H67 C57 0.930 . S
Zn68 N72 2.020 . S
Zn68 O76 2.019 . S
Zn68 N78 2.119 . S
Zn68 O86 1.975 . S
C69 N70 1.334 . S
C69 N73 1.336 . S
N70 C69 1.334 . S
N70 C71 1.334 . S
C71 N70 1.334 . S
C71 N72 1.336 . S
N72 Zn68 2.020 . S
N72 C71 1.336 . S
N72 N73 1.354 . S
N73 C69 1.336 . S
N73 N72 1.354 . S
N73 Zn77 2.020 . S
C74 O75 1.244 . S
C74 O98 1.257 . S
O75 C74 1.244 . S
O76 Zn68 2.019 . S
O76 C96 1.257 . S
Zn77 N73 2.020 . S
Zn77 O84 1.975 . S
Zn77 N93 2.119 . S
Zn77 O98 2.019 . S
N78 Zn68 2.119 . S
N78 C80 1.334 . S
N78 C81 1.328 . S
C79 C80 1.391 . S
C79 N82 1.329 . S
C79 H100 0.930 . S
C80 N78 1.334 . S
C80 C79 1.391 . S
C80 H87 0.930 . S
C81 N78 1.328 . S
C81 C83 1.392 . S
C81 H88 0.930 . S
N82 C79 1.329 . S
N82 C83 1.331 . S
C83 C81 1.392 . S
C83 N82 1.331 . S
O84 Zn77 1.975 . S
O84 C85 1.252 . S
C85 O84 1.252 . S
C85 O86 1.252 . S
O86 Zn68 1.975 . S
O86 C85 1.252 . S
H87 C80 0.930 . S
H88 C81 0.930 . S
C89 C90 1.392 . S
C89 N93 1.328 . S
C89 H95 0.930 . S
C90 C89 1.392 . S
C90 N94 1.331 . S
C91 C92 1.391 . S
C91 N94 1.329 . S
C91 H101 0.930 . S
C92 C91 1.391 . S
C92 N93 1.334 . S
C92 H99 0.930 . S
N93 Zn77 2.119 . S
N93 C89 1.328 . S
N93 C92 1.334 . S
N94 C90 1.331 . S
N94 C91 1.329 . S
H95 C89 0.930 . S
C96 O76 1.257 . S
C96 O97 1.244 . S
O97 C96 1.244 . S
O98 C74 1.257 . S
O98 Zn77 2.019 . S
H99 C92 0.930 . S
H100 C79 0.930 . S
H101 C91 0.930 . S
Zn102 N106 2.020 . S
Zn102 O110 2.019 1_655 S
Zn102 N112 2.119 . S
Zn102 O120 1.975 . S
C103 N104 1.334 . S
C103 N107 1.336 . S
N104 C103 1.334 . S
N104 C105 1.334 . S
C105 N104 1.334 . S
C105 N106 1.336 . S
N106 Zn102 2.020 . S
N106 C105 1.336 . S
N106 N107 1.354 . S
N107 C103 1.336 . S
N107 N106 1.354 . S
N107 Zn111 2.020 . S
C108 O109 1.244 . S
C108 O132 1.257 . S
O109 C108 1.244 . S
O110 Zn102 2.019 1_455 S
O110 C130 1.257 . S
Zn111 N107 2.020 . S
Zn111 O118 1.975 . S
Zn111 N127 2.119 . S
Zn111 O132 2.019 . S
N112 Zn102 2.119 . S
N112 C114 1.334 . S
N112 C115 1.328 1_655 S
C113 C114 1.391 . S
C113 N116 1.329 . S
C113 H134 0.930 . S
C114 N112 1.334 . S
C114 C113 1.391 . S
C114 H121 0.930 . S
C115 N112 1.328 1_455 S
C115 C117 1.392 1_455 S
C115 H122 0.930 . S
N116 C113 1.329 . S
N116 C117 1.331 . S
C117 C115 1.392 1_655 S
C117 N116 1.331 . S
O118 Zn111 1.975 . S
O118 C119 1.252 . S
C119 O118 1.252 . S
C119 O120 1.252 . S
O120 Zn102 1.975 . S
O120 C119 1.252 . S
H121 C114 0.930 . S
H122 C115 0.930 . S
C123 C124 1.392 . S
C123 N127 1.328 . S
C123 H129 0.930 . S
C124 C123 1.392 . S
C124 N128 1.331 . S
C125 C126 1.391 . S
C125 N128 1.329 . S
C125 H135 0.930 . S
C126 C125 1.391 . S
C126 N127 1.334 . S
C126 H133 0.930 . S
N127 Zn111 2.119 . S
N127 C123 1.328 . S
N127 C126 1.334 . S
N128 C124 1.331 . S
N128 C125 1.329 . S
H129 C123 0.930 . S
C130 O110 1.257 . S
C130 O131 1.244 . S
O131 C130 1.244 . S
O132 C108 1.257 . S
O132 Zn111 2.019 . S
H133 C126 0.930 . S
H134 C113 0.930 . S
H135 C125 0.930 . S
Zn136 N140 2.020 . S
Zn136 O144 2.019 . S
Zn136 N146 2.119 . S
Zn136 O154 1.975 . S
C137 N138 1.334 . S
C137 N141 1.336 . S
N138 C137 1.334 . S
N138 C139 1.334 . S
C139 N138 1.334 . S
C139 N140 1.336 . S
N140 Zn136 2.020 . S
N140 C139 1.336 . S
N140 N141 1.354 . S
N141 C137 1.336 . S
N141 N140 1.354 . S
N141 Zn145 2.020 . S
C142 O143 1.244 . S
C142 O166 1.257 . S
O143 C142 1.244 . S
O144 Zn136 2.019 . S
O144 C164 1.257 . S
Zn145 N141 2.020 . S
Zn145 O152 1.975 . S
Zn145 N161 2.119 . S
Zn145 O166 2.019 1_655 S
N146 Zn136 2.119 . S
N146 C148 1.334 . S
N146 C149 1.328 . S
C147 C148 1.391 . S
C147 N150 1.329 . S
C147 H168 0.930 . S
C148 N146 1.334 . S
C148 C147 1.391 . S
C148 H155 0.930 . S
C149 N146 1.328 . S
C149 C151 1.392 . S
C149 H156 0.930 . S
N150 C147 1.329 . S
N150 C151 1.331 . S
C151 C149 1.392 . S
C151 N150 1.331 . S
O152 Zn145 1.975 . S
O152 C153 1.252 . S
C153 O152 1.252 . S
C153 O154 1.252 . S
O154 Zn136 1.975 . S
O154 C153 1.252 . S
H155 C148 0.930 . S
H156 C149 0.930 . S
C157 C158 1.392 1_455 S
C157 N161 1.328 1_455 S
C157 H163 0.930 . S
C158 C157 1.392 1_655 S
C158 N162 1.331 . S
C159 C160 1.391 . S
C159 N162 1.329 . S
C159 H169 0.930 . S
C160 C159 1.391 . S
C160 N161 1.334 . S
C160 H167 0.930 . S
N161 Zn145 2.119 . S
N161 C157 1.328 1_655 S
N161 C160 1.334 . S
N162 C158 1.331 . S
N162 C159 1.329 . S
H163 C157 0.930 . S
C164 O144 1.257 . S
C164 O165 1.244 . S
O165 C164 1.244 . S
O166 C142 1.257 . S
O166 Zn145 2.019 1_455 S
H167 C160 0.930 . S
H168 C147 0.930 . S
H169 C159 0.930 . S
Zn170 N174 2.020 . S
Zn170 O178 2.019 . S
Zn170 N180 2.119 . S
Zn170 O188 1.975 . S
C171 N172 1.334 . S
C171 N175 1.336 . S
N172 C171 1.334 . S
N172 C173 1.334 . S
C173 N172 1.334 . S
C173 N174 1.336 . S
N174 Zn170 2.020 . S
N174 C173 1.336 . S
N174 N175 1.354 . S
N175 C171 1.336 . S
N175 N174 1.354 . S
N175 Zn179 2.020 . S
C176 O177 1.244 . S
C176 O200 1.257 . S
O177 C176 1.244 . S
O178 Zn170 2.019 . S
O178 C198 1.257 . S
Zn179 N175 2.020 . S
Zn179 O186 1.975 . S
Zn179 N195 2.119 . S
Zn179 O200 2.019 . S
N180 Zn170 2.119 . S
N180 C182 1.334 . S
N180 C183 1.328 . S
C181 C182 1.391 . S
C181 N184 1.329 . S
C181 H202 0.930 . S
C182 N180 1.334 . S
C182 C181 1.391 . S
C182 H189 0.930 . S
C183 N180 1.328 . S
C183 C185 1.392 . S
C183 H190 0.930 . S
N184 C181 1.329 . S
N184 C185 1.331 . S
C185 C183 1.392 . S
C185 N184 1.331 . S
O186 Zn179 1.975 . S
O186 C187 1.252 . S
C187 O186 1.252 . S
C187 O188 1.252 . S
O188 Zn170 1.975 . S
O188 C187 1.252 . S
H189 C182 0.930 . S
H190 C183 0.930 . S
C191 C192 1.392 . S
C191 N195 1.328 . S
C191 H197 0.930 . S
C192 C191 1.392 . S
C192 N196 1.331 . S
C193 C194 1.391 . S
C193 N196 1.329 . S
C193 H203 0.930 . S
C194 C193 1.391 . S
C194 N195 1.334 . S
C194 H201 0.930 . S
N195 Zn179 2.119 . S
N195 C191 1.328 . S
N195 C194 1.334 . S
N196 C192 1.331 . S
N196 C193 1.329 . S
H197 C191 0.930 . S
C198 O178 1.257 . S
C198 O199 1.244 . S
O199 C198 1.244 . S
O200 C176 1.257 . S
O200 Zn179 2.019 . S
H201 C194 0.930 . S
H202 C181 0.930 . S
H203 C193 0.930 . S
Zn204 N208 2.020 . S
Zn204 O212 2.019 . S
Zn204 N214 2.119 . S
Zn204 O222 1.975 . S
C205 N206 1.334 . S
C205 N209 1.336 . S
N206 C205 1.334 . S
N206 C207 1.334 . S
C207 N206 1.334 . S
C207 N208 1.336 . S
N208 Zn204 2.020 . S
N208 C207 1.336 . S
N208 N209 1.354 . S
N209 C205 1.336 . S
N209 N208 1.354 . S
N209 Zn213 2.020 . S
C210 O211 1.244 . S
C210 O234 1.257 . S
O211 C210 1.244 . S
O212 Zn204 2.019 . S
O212 C232 1.257 . S
Zn213 N209 2.020 . S
Zn213 O220 1.975 . S
Zn213 N229 2.119 . S
Zn213 O234 2.019 . S
N214 Zn204 2.119 . S
N214 C216 1.334 . S
N214 C217 1.328 . S
C215 C216 1.391 . S
C215 N218 1.329 . S
C215 H236 0.930 . S
C216 N214 1.334 . S
C216 C215 1.391 . S
C216 H223 0.930 . S
C217 N214 1.328 . S
C217 C219 1.392 . S
C217 H224 0.930 . S
N218 C215 1.329 . S
N218 C219 1.331 . S
C219 C217 1.392 . S
C219 N218 1.331 . S
O220 Zn213 1.975 . S
O220 C221 1.252 . S
C221 O220 1.252 . S
C221 O222 1.252 . S
O222 Zn204 1.975 . S
O222 C221 1.252 . S
H223 C216 0.930 . S
H224 C217 0.930 . S
C225 C226 1.392 . S
C225 N229 1.328 . S
C225 H231 0.930 . S
C226 C225 1.392 . S
C226 N230 1.331 . S
C227 C228 1.391 . S
C227 N230 1.329 . S
C227 H237 0.930 . S
C228 C227 1.391 . S
C228 N229 1.334 . S
C228 H235 0.930 . S
N229 Zn213 2.119 . S
N229 C225 1.328 . S
N229 C228 1.334 . S
N230 C226 1.331 . S
N230 C227 1.329 . S
H231 C225 0.930 . S
C232 O212 1.257 . S
C232 O233 1.244 . S
O233 C232 1.244 . S
O234 C210 1.257 . S
O234 Zn213 2.019 . S
H235 C228 0.930 . S
H236 C215 0.930 . S
H237 C227 0.930 . S
Zn238 N242 2.020 . S
Zn238 O246 2.019 . S
Zn238 N248 2.119 . S
Zn238 O256 1.975 . S
C239 N240 1.334 . S
C239 N243 1.336 . S
N240 C239 1.334 . S
N240 C241 1.334 . S
C241 N240 1.334 . S
C241 N242 1.336 . S
N242 Zn238 2.020 . S
N242 C241 1.336 . S
N242 N243 1.354 . S
N243 C239 1.336 . S
N243 N242 1.354 . S
N243 Zn247 2.020 . S
C244 O245 1.244 . S
C244 O268 1.257 . S
O245 C244 1.244 . S
O246 Zn238 2.019 . S
O246 C266 1.257 . S
Zn247 N243 2.020 . S
Zn247 O254 1.975 . S
Zn247 N263 2.119 . S
Zn247 O268 2.019 1_455 S
N248 Zn238 2.119 . S
N248 C250 1.334 . S
N248 C251 1.328 . S
C249 C250 1.391 . S
C249 N252 1.329 . S
C249 H270 0.930 . S
C250 N248 1.334 . S
C250 C249 1.391 . S
C250 H257 0.930 . S
C251 N248 1.328 . S
C251 C253 1.392 . S
C251 H258 0.930 . S
N252 C249 1.329 . S
N252 C253 1.331 . S
C253 C251 1.392 . S
C253 N252 1.331 . S
O254 Zn247 1.975 . S
O254 C255 1.252 . S
C255 O254 1.252 . S
C255 O256 1.252 . S
O256 Zn238 1.975 . S
O256 C255 1.252 . S
H257 C250 0.930 . S
H258 C251 0.930 . S
C259 C260 1.392 1_655 S
C259 N263 1.328 1_655 S
C259 H265 0.930 . S
C260 C259 1.392 1_455 S
C260 N264 1.331 . S
C261 C262 1.391 . S
C261 N264 1.329 . S
C261 H271 0.930 . S
C262 C261 1.391 . S
C262 N263 1.334 . S
C262 H269 0.930 . S
N263 Zn247 2.119 . S
N263 C259 1.328 1_455 S
N263 C262 1.334 . S
N264 C260 1.331 . S
N264 C261 1.329 . S
H265 C259 0.930 . S
C266 O246 1.257 . S
C266 O267 1.244 . S
O267 C266 1.244 . S
O268 C244 1.257 . S
O268 Zn247 2.019 1_655 S
H269 C262 0.930 . S
H270 C249 0.930 . S
H271 C261 0.930 . S
Zn272 N276 2.020 . S
Zn272 O280 2.019 . S
Zn272 N282 2.119 . S
Zn272 O290 1.975 . S
C273 N274 1.334 . S
C273 N277 1.336 . S
N274 C273 1.334 . S
N274 C275 1.334 . S
C275 N274 1.334 . S
C275 N276 1.336 . S
N276 Zn272 2.020 . S
N276 C275 1.336 . S
N276 N277 1.354 . S
N277 C273 1.336 . S
N277 N276 1.354 . S
N277 Zn281 2.020 . S
C278 O279 1.244 . S
C278 O302 1.257 . S
O279 C278 1.244 . S
O280 Zn272 2.019 . S
O280 C300 1.257 . S
Zn281 N277 2.020 . S
Zn281 O288 1.975 . S
Zn281 N297 2.119 . S
Zn281 O302 2.019 . S
N282 Zn272 2.119 . S
N282 C284 1.334 . S
N282 C285 1.328 . S
C283 C284 1.391 . S
C283 N286 1.329 . S
C283 H304 0.930 . S
C284 N282 1.334 . S
C284 C283 1.391 . S
C284 H291 0.930 . S
C285 N282 1.328 . S
C285 C287 1.392 . S
C285 H292 0.930 . S
N286 C283 1.329 . S
N286 C287 1.331 . S
C287 C285 1.392 . S
C287 N286 1.331 . S
O288 Zn281 1.975 . S
O288 C289 1.252 . S
C289 O288 1.252 . S
C289 O290 1.252 . S
O290 Zn272 1.975 . S
O290 C289 1.252 . S
H291 C284 0.930 . S
H292 C285 0.930 . S
C293 C294 1.392 . S
C293 N297 1.328 . S
C293 H299 0.930 . S
C294 C293 1.392 . S
C294 N298 1.331 . S
C295 C296 1.391 . S
C295 N298 1.329 . S
C295 H305 0.930 . S
C296 C295 1.391 . S
C296 N297 1.334 . S
C296 H303 0.930 . S
N297 Zn281 2.119 . S
N297 C293 1.328 . S
N297 C296 1.334 . S
N298 C294 1.331 . S
N298 C295 1.329 . S
H299 C293 0.930 . S
C300 O280 1.257 . S
C300 O301 1.244 . S
O301 C300 1.244 . S
O302 C278 1.257 . S
O302 Zn281 2.019 . S
H303 C296 0.930 . S
H304 C283 0.930 . S
H305 C295 0.930 . S
Zn306 N310 2.020 . S
Zn306 O314 2.019 . S
Zn306 N316 2.119 . S
Zn306 O324 1.975 . S
C307 N308 1.334 . S
C307 N311 1.336 . S
N308 C307 1.334 . S
N308 C309 1.334 . S
C309 N308 1.334 . S
C309 N310 1.336 . S
N310 Zn306 2.020 . S
N310 C309 1.336 . S
N310 N311 1.354 . S
N311 C307 1.336 . S
N311 N310 1.354 . S
N311 Zn315 2.020 . S
C312 O313 1.244 . S
C312 O336 1.257 . S
O313 C312 1.244 . S
O314 Zn306 2.019 . S
O314 C334 1.257 . S
Zn315 N311 2.020 . S
Zn315 O322 1.975 . S
Zn315 N331 2.119 . S
Zn315 O336 2.019 1_655 S
N316 Zn306 2.119 . S
N316 C318 1.334 . S
N316 C319 1.328 . S
C317 C318 1.391 . S
C317 N320 1.329 . S
C317 H338 0.930 . S
C318 N316 1.334 . S
C318 C317 1.391 . S
C318 H325 0.930 . S
C319 N316 1.328 . S
C319 C321 1.392 . S
C319 H326 0.930 . S
N320 C317 1.329 . S
N320 C321 1.331 . S
C321 C319 1.392 . S
C321 N320 1.331 . S
O322 Zn315 1.975 . S
O322 C323 1.252 . S
C323 O322 1.252 . S
C323 O324 1.252 . S
O324 Zn306 1.975 . S
O324 C323 1.252 . S
H325 C318 0.930 . S
H326 C319 0.930 . S
C327 C328 1.392 1_455 S
C327 N331 1.328 1_455 S
C327 H333 0.930 . S
C328 C327 1.392 1_655 S
C328 N332 1.331 . S
C329 C330 1.391 . S
C329 N332 1.329 . S
C329 H339 0.930 . S
C330 C329 1.391 . S
C330 N331 1.334 . S
C330 H337 0.930 . S
N331 Zn315 2.119 . S
N331 C327 1.328 1_655 S
N331 C330 1.334 . S
N332 C328 1.331 . S
N332 C329 1.329 . S
H333 C327 0.930 . S
C334 O314 1.257 . S
C334 O335 1.244 . S
O335 C334 1.244 . S
O336 C312 1.257 . S
O336 Zn315 2.019 1_455 S
H337 C330 0.930 . S
H338 C317 0.930 . S
H339 C329 0.930 . S
Zn340 N344 2.020 . S
Zn340 O348 2.019 . S
Zn340 N350 2.119 . S
Zn340 O358 1.975 . S
C341 N342 1.334 . S
C341 N345 1.336 . S
N342 C341 1.334 . S
N342 C343 1.334 . S
C343 N342 1.334 . S
C343 N344 1.336 . S
N344 Zn340 2.020 . S
N344 C343 1.336 . S
N344 N345 1.354 . S
N345 C341 1.336 . S
N345 N344 1.354 . S
N345 Zn349 2.020 . S
C346 O347 1.244 . S
C346 O370 1.257 . S
O347 C346 1.244 . S
O348 Zn340 2.019 . S
O348 C368 1.257 . S
Zn349 N345 2.020 . S
Zn349 O356 1.975 . S
Zn349 N365 2.119 . S
Zn349 O370 2.019 1_455 S
N350 Zn340 2.119 . S
N350 C352 1.334 . S
N350 C353 1.328 . S
C351 C352 1.391 . S
C351 N354 1.329 . S
C351 H372 0.930 . S
C352 N350 1.334 . S
C352 C351 1.391 . S
C352 H359 0.930 . S
C353 N350 1.328 . S
C353 C355 1.392 . S
C353 H360 0.930 . S
N354 C351 1.329 . S
N354 C355 1.331 . S
C355 C353 1.392 . S
C355 N354 1.331 . S
O356 Zn349 1.975 . S
O356 C357 1.252 . S
C357 O356 1.252 . S
C357 O358 1.252 . S
O358 Zn340 1.975 . S
O358 C357 1.252 . S
H359 C352 0.930 . S
H360 C353 0.930 . S
C361 C362 1.392 1_655 S
C361 N365 1.328 1_655 S
C361 H367 0.930 . S
C362 C361 1.392 1_455 S
C362 N366 1.331 . S
C363 C364 1.391 . S
C363 N366 1.329 . S
C363 H373 0.930 . S
C364 C363 1.391 . S
C364 N365 1.334 . S
C364 H371 0.930 . S
N365 Zn349 2.119 . S
N365 C361 1.328 1_455 S
N365 C364 1.334 . S
N366 C362 1.331 . S
N366 C363 1.329 . S
H367 C361 0.930 . S
C368 O348 1.257 . S
C368 O369 1.244 . S
O369 C368 1.244 . S
O370 C346 1.257 . S
O370 Zn349 2.019 1_655 S
H371 C364 0.930 . S
H372 C351 0.930 . S
H373 C363 0.930 . S
Zn374 N378 2.020 . S
Zn374 O382 2.019 . S
Zn374 N384 2.119 . S
Zn374 O392 1.975 . S
C375 N376 1.334 . S
C375 N379 1.336 . S
N376 C375 1.334 . S
N376 C377 1.334 . S
C377 N376 1.334 . S
C377 N378 1.336 . S
N378 Zn374 2.020 . S
N378 C377 1.336 . S
N378 N379 1.354 . S
N379 C375 1.336 . S
N379 N378 1.354 . S
N379 Zn383 2.020 . S
C380 O381 1.244 . S
C380 O404 1.257 . S
O381 C380 1.244 . S
O382 Zn374 2.019 . S
O382 C402 1.257 . S
Zn383 N379 2.020 . S
Zn383 O390 1.975 . S
Zn383 N399 2.119 . S
Zn383 O404 2.019 . S
N384 Zn374 2.119 . S
N384 C386 1.334 . S
N384 C387 1.328 . S
C385 C386 1.391 . S
C385 N388 1.329 . S
C385 H406 0.930 . S
C386 N384 1.334 . S
C386 C385 1.391 . S
C386 H393 0.930 . S
C387 N384 1.328 . S
C387 C389 1.392 . S
C387 H394 0.930 . S
N388 C385 1.329 . S
N388 C389 1.331 . S
C389 C387 1.392 . S
C389 N388 1.331 . S
O390 Zn383 1.975 . S
O390 C391 1.252 . S
C391 O390 1.252 . S
C391 O392 1.252 . S
O392 Zn374 1.975 . S
O392 C391 1.252 . S
H393 C386 0.930 . S
H394 C387 0.930 . S
C395 C396 1.392 . S
C395 N399 1.328 . S
C395 H401 0.930 . S
C396 C395 1.392 . S
C396 N400 1.331 . S
C397 C398 1.391 . S
C397 N400 1.329 . S
C397 H407 0.930 . S
C398 C397 1.391 . S
C398 N399 1.334 . S
C398 H405 0.930 . S
N399 Zn383 2.119 . S
N399 C395 1.328 . S
N399 C398 1.334 . S
N400 C396 1.331 . S
N400 C397 1.329 . S
H401 C395 0.930 . S
C402 O382 1.257 . S
C402 O403 1.244 . S
O403 C402 1.244 . S
O404 C380 1.257 . S
O404 Zn383 2.019 . S
H405 C398 0.930 . S
H406 C385 0.930 . S
H407 C397 0.930 . S
Zn408 N412 2.020 . S
Zn408 O416 2.019 . S
Zn408 N418 2.119 . S
Zn408 O426 1.975 . S
C409 N410 1.334 . S
C409 N413 1.336 . S
N410 C409 1.334 . S
N410 C411 1.334 . S
C411 N410 1.334 . S
C411 N412 1.336 . S
N412 Zn408 2.020 . S
N412 C411 1.336 . S
N412 N413 1.354 . S
N413 C409 1.336 . S
N413 N412 1.354 . S
N413 Zn417 2.020 . S
C414 O415 1.244 . S
C414 O438 1.257 . S
O415 C414 1.244 . S
O416 Zn408 2.019 . S
O416 C436 1.257 . S
Zn417 N413 2.020 . S
Zn417 O424 1.975 . S
Zn417 N433 2.119 . S
Zn417 O438 2.019 . S
N418 Zn408 2.119 . S
N418 C420 1.334 . S
N418 C421 1.328 . S
C419 C420 1.391 . S
C419 N422 1.329 . S
C419 H440 0.930 . S
C420 N418 1.334 . S
C420 C419 1.391 . S
C420 H427 0.930 . S
C421 N418 1.328 . S
C421 C423 1.392 . S
C421 H428 0.930 . S
N422 C419 1.329 . S
N422 C423 1.331 . S
C423 C421 1.392 . S
C423 N422 1.331 . S
O424 Zn417 1.975 . S
O424 C425 1.252 . S
C425 O424 1.252 . S
C425 O426 1.252 . S
O426 Zn408 1.975 . S
O426 C425 1.252 . S
H427 C420 0.930 . S
H428 C421 0.930 . S
C429 C430 1.392 . S
C429 N433 1.328 . S
C429 H435 0.930 . S
C430 C429 1.392 . S
C430 N434 1.331 . S
C431 C432 1.391 . S
C431 N434 1.329 . S
C431 H441 0.930 . S
C432 C431 1.391 . S
C432 N433 1.334 . S
C432 H439 0.930 . S
N433 Zn417 2.119 . S
N433 C429 1.328 . S
N433 C432 1.334 . S
N434 C430 1.331 . S
N434 C431 1.329 . S
H435 C429 0.930 . S
C436 O416 1.257 . S
C436 O437 1.244 . S
O437 C436 1.244 . S
O438 C414 1.257 . S
O438 Zn417 2.019 . S
H439 C432 0.930 . S
H440 C419 0.930 . S
H441 C431 0.930 . S
Zn442 N446 2.020 . S
Zn442 O450 2.019 1_455 S
Zn442 N452 2.119 . S
Zn442 O460 1.975 . S
C443 N444 1.334 . S
C443 N447 1.336 . S
N444 C443 1.334 . S
N444 C445 1.334 . S
C445 N444 1.334 . S
C445 N446 1.336 . S
N446 Zn442 2.020 . S
N446 C445 1.336 . S
N446 N447 1.354 . S
N447 C443 1.336 . S
N447 N446 1.354 . S
N447 Zn451 2.020 . S
C448 O449 1.244 . S
C448 O472 1.257 . S
O449 C448 1.244 . S
O450 Zn442 2.019 1_655 S
O450 C470 1.257 . S
Zn451 N447 2.020 . S
Zn451 O458 1.975 . S
Zn451 N467 2.119 . S
Zn451 O472 2.019 . S
N452 Zn442 2.119 . S
N452 C454 1.334 . S
N452 C455 1.328 1_455 S
C453 C454 1.391 . S
C453 N456 1.329 . S
C453 H474 0.930 . S
C454 N452 1.334 . S
C454 C453 1.391 . S
C454 H461 0.930 . S
C455 N452 1.328 1_655 S
C455 C457 1.392 1_655 S
C455 H462 0.930 . S
N456 C453 1.329 . S
N456 C457 1.331 . S
C457 C455 1.392 1_455 S
C457 N456 1.331 . S
O458 Zn451 1.975 . S
O458 C459 1.252 . S
C459 O458 1.252 . S
C459 O460 1.252 . S
O460 Zn442 1.975 . S
O460 C459 1.252 . S
H461 C454 0.930 . S
H462 C455 0.930 . S
C463 C464 1.392 . S
C463 N467 1.328 . S
C463 H469 0.930 . S
C464 C463 1.392 . S
C464 N468 1.331 . S
C465 C466 1.391 . S
C465 N468 1.329 . S
C465 H475 0.930 . S
C466 C465 1.391 . S
C466 N467 1.334 . S
C466 H473 0.930 . S
N467 Zn451 2.119 . S
N467 C463 1.328 . S
N467 C466 1.334 . S
N468 C464 1.331 . S
N468 C465 1.329 . S
H469 C463 0.930 . S
C470 O450 1.257 . S
C470 O471 1.244 . S
O471 C470 1.244 . S
O472 C448 1.257 . S
O472 Zn451 2.019 . S
H473 C466 0.930 . S
H474 C453 0.930 . S
H475 C465 0.930 . S
Zn476 N480 2.020 . S
Zn476 O484 2.019 . S
Zn476 N486 2.119 . S
Zn476 O494 1.975 . S
C477 N478 1.334 . S
C477 N481 1.336 . S
N478 C477 1.334 . S
N478 C479 1.334 . S
C479 N478 1.334 . S
C479 N480 1.336 . S
N480 Zn476 2.020 . S
N480 C479 1.336 . S
N480 N481 1.354 . S
N481 C477 1.336 . S
N481 N480 1.354 . S
N481 Zn485 2.020 . S
C482 O483 1.244 . S
C482 O506 1.257 . S
O483 C482 1.244 . S
O484 Zn476 2.019 . S
O484 C504 1.257 . S
Zn485 N481 2.020 . S
Zn485 O492 1.975 . S
Zn485 N501 2.119 . S
Zn485 O506 2.019 1_655 S
N486 Zn476 2.119 . S
N486 C488 1.334 . S
N486 C489 1.328 . S
C487 C488 1.391 . S
C487 N490 1.329 . S
C487 H508 0.930 . S
C488 N486 1.334 . S
C488 C487 1.391 . S
C488 H495 0.930 . S
C489 N486 1.328 . S
C489 C491 1.392 . S
C489 H496 0.930 . S
N490 C487 1.329 . S
N490 C491 1.331 . S
C491 C489 1.392 . S
C491 N490 1.331 . S
O492 Zn485 1.975 . S
O492 C493 1.252 . S
C493 O492 1.252 . S
C493 O494 1.252 . S
O494 Zn476 1.975 . S
O494 C493 1.252 . S
H495 C488 0.930 . S
H496 C489 0.930 . S
C497 C498 1.392 1_455 S
C497 N501 1.328 1_455 S
C497 H503 0.930 . S
C498 C497 1.392 1_655 S
C498 N502 1.331 . S
C499 C500 1.391 . S
C499 N502 1.329 . S
C499 H509 0.930 . S
C500 C499 1.391 . S
C500 N501 1.334 . S
C500 H507 0.930 . S
N501 Zn485 2.119 . S
N501 C497 1.328 1_655 S
N501 C500 1.334 . S
N502 C498 1.331 . S
N502 C499 1.329 . S
H503 C497 0.930 . S
C504 O484 1.257 . S
C504 O505 1.244 . S
O505 C504 1.244 . S
O506 C482 1.257 . S
O506 Zn485 2.019 1_455 S
H507 C500 0.930 . S
H508 C487 0.930 . S
H509 C499 0.930 . S
Zn510 N514 2.020 . S
Zn510 O518 2.019 . S
Zn510 N520 2.119 . S
Zn510 O528 1.975 . S
C511 N512 1.334 . S
C511 N515 1.336 . S
N512 C511 1.334 . S
N512 C513 1.334 . S
C513 N512 1.334 . S
C513 N514 1.336 . S
N514 Zn510 2.020 . S
N514 C513 1.336 . S
N514 N515 1.354 . S
N515 C511 1.336 . S
N515 N514 1.354 . S
N515 Zn519 2.020 . S
C516 O517 1.244 . S
C516 O540 1.257 . S
O517 C516 1.244 . S
O518 Zn510 2.019 . S
O518 C538 1.257 . S
Zn519 N515 2.020 . S
Zn519 O526 1.975 . S
Zn519 N535 2.119 . S
Zn519 O540 2.019 . S
N520 Zn510 2.119 . S
N520 C522 1.334 . S
N520 C523 1.328 . S
C521 C522 1.391 . S
C521 N524 1.329 . S
C521 H542 0.930 . S
C522 N520 1.334 . S
C522 C521 1.391 . S
C522 H529 0.930 . S
C523 N520 1.328 . S
C523 C525 1.392 . S
C523 H530 0.930 . S
N524 C521 1.329 . S
N524 C525 1.331 . S
C525 C523 1.392 . S
C525 N524 1.331 . S
O526 Zn519 1.975 . S
O526 C527 1.252 . S
C527 O526 1.252 . S
C527 O528 1.252 . S
O528 Zn510 1.975 . S
O528 C527 1.252 . S
H529 C522 0.930 . S
H530 C523 0.930 . S
C531 C532 1.392 . S
C531 N535 1.328 . S
C531 H537 0.930 . S
C532 C531 1.392 . S
C532 N536 1.331 . S
C533 C534 1.391 . S
C533 N536 1.329 . S
C533 H543 0.930 . S
C534 C533 1.391 . S
C534 N535 1.334 . S
C534 H541 0.930 . S
N535 Zn519 2.119 . S
N535 C531 1.328 . S
N535 C534 1.334 . S
N536 C532 1.331 . S
N536 C533 1.329 . S
H537 C531 0.930 . S
C538 O518 1.257 . S
C538 O539 1.244 . S
O539 C538 1.244 . S
O540 C516 1.257 . S
O540 Zn519 2.019 . S
H541 C534 0.930 . S
H542 C521 0.930 . S
H543 C533 0.930 . S
H544 C552 0.929 . S
H545 C554 0.930 . S
H546 C556 0.930 . S
H547 C559 0.929 . S
H548 C562 0.930 . S
H549 C564 0.960 . S
H550 C564 0.960 . S
H551 C564 0.960 . S
C552 H544 0.929 . S
C552 C553 1.377 . S
C552 C554 1.384 . S
C553 C552 1.377 . S
C553 C559 1.390 . S
C554 H545 0.930 . S
C554 C552 1.384 . S
C554 C555 1.372 . S
C555 C554 1.372 . S
C555 C556 1.400 . S
C555 C560 1.490 . S
C556 H546 0.930 . S
C556 C555 1.400 . S
C556 C559 1.386 . S
H557 C573 0.930 . S
H558 C574 0.931 . S
C559 H547 0.929 . S
C559 C553 1.390 . S
C559 C556 1.386 . S
C560 C555 1.490 . S
C560 C562 1.395 . S
C560 C563 1.403 . S
H561 C567 0.930 . S
C562 H548 0.930 . S
C562 C560 1.395 . S
C562 C565 1.403 . S
C563 C560 1.403 . S
C563 C564 1.524 . S
C563 C567 1.400 . S
C564 H549 0.960 . S
C564 H550 0.960 . S
C564 H551 0.960 . S
C564 C563 1.524 . S
C565 C562 1.403 . S
C565 C566 1.392 . S
C565 C569 1.495 . S
C566 C565 1.392 . S
C566 C567 1.385 . S
C566 C568 1.478 . S
C567 H561 0.930 . S
C567 C563 1.400 . S
C567 C566 1.385 . S
C568 C566 1.478 . S
C568 C570 1.381 . S
C568 C574 1.383 . S
C569 C565 1.495 . S
C569 H575 0.959 . S
C569 H576 0.961 . S
C569 H577 0.960 . S
C570 C568 1.381 . S
C570 C571 1.394 . S
C570 H578 0.930 . S
C571 C570 1.394 . S
C571 C572 1.383 . S
C571 H579 0.929 . S
C572 C571 1.383 . S
C572 C573 1.377 . S
C573 H557 0.930 . S
C573 C572 1.377 . S
C573 C574 1.379 . S
C574 H558 0.931 . S
C574 C568 1.383 . S
C574 C573 1.379 . S
H575 C569 0.959 . S
H576 C569 0.961 . S
H577 C569 0.960 . S
H578 C570 0.930 . S
H579 C571 0.929 . S
H580 C588 0.929 . S
H581 C590 0.930 . S
H582 C592 0.930 . S
H583 C595 0.929 . S
H584 C598 0.930 . S
H585 C600 0.960 . S
H586 C600 0.960 . S
H587 C600 0.960 . S
C588 H580 0.929 . S
C588 C589 1.377 . S
C588 C590 1.384 . S
C589 C588 1.377 . S
C589 C595 1.390 . S
C590 H581 0.930 . S
C590 C588 1.384 . S
C590 C591 1.372 . S
C591 C590 1.372 . S
C591 C592 1.400 . S
C591 C596 1.490 1_455 S
C592 H582 0.930 . S
C592 C591 1.400 . S
C592 C595 1.386 . S
H593 C609 0.930 . S
H594 C610 0.931 . S
C595 H583 0.929 . S
C595 C589 1.390 . S
C595 C592 1.386 . S
C596 C591 1.490 1_655 S
C596 C598 1.395 . S
C596 C599 1.403 . S
H597 C603 0.930 . S
C598 H584 0.930 . S
C598 C596 1.395 . S
C598 C601 1.403 . S
C599 C596 1.403 . S
C599 C600 1.524 . S
C599 C603 1.400 . S
C600 H585 0.960 . S
C600 H586 0.960 . S
C600 H587 0.960 . S
C600 C599 1.524 . S
C601 C598 1.403 . S
C601 C602 1.392 . S
C601 C605 1.495 . S
C602 C601 1.392 . S
C602 C603 1.385 . S
C602 C604 1.478 . S
C603 H597 0.930 . S
C603 C599 1.400 . S
C603 C602 1.385 . S
C604 C602 1.478 . S
C604 C606 1.381 . S
C604 C610 1.383 . S
C605 C601 1.495 . S
C605 H611 0.959 . S
C605 H612 0.961 . S
C605 H613 0.960 . S
C606 C604 1.381 . S
C606 C607 1.394 . S
C606 H614 0.930 . S
C607 C606 1.394 . S
C607 C608 1.383 . S
C607 H615 0.929 . S
C608 C607 1.383 . S
C608 C609 1.377 . S
C609 H593 0.930 . S
C609 C608 1.377 . S
C609 C610 1.379 . S
C610 H594 0.931 . S
C610 C604 1.383 . S
C610 C609 1.379 . S
H611 C605 0.959 . S
H612 C605 0.961 . S
H613 C605 0.960 . S
H614 C606 0.930 . S
H615 C607 0.929 . S
H616 C624 0.929 . S
H617 C626 0.930 . S
H618 C628 0.930 . S
H619 C631 0.929 . S
H620 C634 0.930 . S
H621 C636 0.960 . S
H622 C636 0.960 . S
H623 C636 0.960 1_655 S
C624 H616 0.929 . S
C624 C625 1.377 . S
C624 C626 1.384 . S
C625 C624 1.377 . S
C625 C631 1.390 . S
C626 H617 0.930 . S
C626 C624 1.384 . S
C626 C627 1.372 . S
C627 C626 1.372 . S
C627 C628 1.400 . S
C627 C632 1.490 1_655 S
C628 H618 0.930 . S
C628 C627 1.400 . S
C628 C631 1.386 . S
H629 C645 0.930 . S
H630 C646 0.931 . S
C631 H619 0.929 . S
C631 C625 1.390 . S
C631 C628 1.386 . S
C632 C627 1.490 1_455 S
C632 C634 1.395 . S
C632 C635 1.403 . S
H633 C639 0.930 . S
C634 H620 0.930 . S
C634 C632 1.395 . S
C634 C637 1.403 . S
C635 C632 1.403 . S
C635 C636 1.524 . S
C635 C639 1.400 . S
C636 H621 0.960 . S
C636 H622 0.960 . S
C636 H623 0.960 1_455 S
C636 C635 1.524 . S
C637 C634 1.403 . S
C637 C638 1.392 . S
C637 C641 1.495 . S
C638 C637 1.392 . S
C638 C639 1.385 . S
C638 C640 1.478 . S
C639 H633 0.930 . S
C639 C635 1.400 . S
C639 C638 1.385 . S
C640 C638 1.478 . S
C640 C642 1.381 . S
C640 C646 1.383 . S
C641 C637 1.495 . S
C641 H647 0.959 . S
C641 H648 0.961 . S
C641 H649 0.960 . S
C642 C640 1.381 . S
C642 C643 1.394 . S
C642 H650 0.930 . S
C643 C642 1.394 . S
C643 C644 1.383 . S
C643 H651 0.929 . S
C644 C643 1.383 . S
C644 C645 1.377 . S
C645 H629 0.930 . S
C645 C644 1.377 . S
C645 C646 1.379 . S
C646 H630 0.931 . S
C646 C640 1.383 . S
C646 C645 1.379 . S
H647 C641 0.959 . S
H648 C641 0.961 . S
H649 C641 0.960 . S
H650 C642 0.930 . S
H651 C643 0.929 . S
H652 C660 0.929 . S
H653 C662 0.930 . S
H654 C664 0.930 . S
H655 C667 0.929 . S
H656 C670 0.930 . S
H657 C672 0.960 . S
H658 C672 0.960 . S
H659 C672 0.960 . S
C660 H652 0.929 . S
C660 C661 1.377 . S
C660 C662 1.384 . S
C661 C660 1.377 . S
C661 C667 1.390 . S
C662 H653 0.930 . S
C662 C660 1.384 . S
C662 C663 1.372 . S
C663 C662 1.372 . S
C663 C664 1.400 . S
C663 C668 1.490 . S
C664 H654 0.930 . S
C664 C663 1.400 . S
C664 C667 1.386 . S
H665 C681 0.930 . S
H666 C682 0.931 . S
C667 H655 0.929 . S
C667 C661 1.390 . S
C667 C664 1.386 . S
C668 C663 1.490 . S
C668 C670 1.395 . S
C668 C671 1.403 . S
H669 C675 0.930 . S
C670 H656 0.930 . S
C670 C668 1.395 . S
C670 C673 1.403 . S
C671 C668 1.403 . S
C671 C672 1.524 . S
C671 C675 1.400 . S
C672 H657 0.960 . S
C672 H658 0.960 . S
C672 H659 0.960 . S
C672 C671 1.524 . S
C673 C670 1.403 . S
C673 C674 1.392 . S
C673 C677 1.495 . S
C674 C673 1.392 . S
C674 C675 1.385 . S
C674 C676 1.478 . S
C675 H669 0.930 . S
C675 C671 1.400 . S
C675 C674 1.385 . S
C676 C674 1.478 . S
C676 C678 1.381 . S
C676 C682 1.383 . S
C677 C673 1.495 . S
C677 H683 0.959 . S
C677 H684 0.961 . S
C677 H685 0.960 . S
C678 C676 1.381 . S
C678 C679 1.394 . S
C678 H686 0.930 . S
C679 C678 1.394 . S
C679 C680 1.383 . S
C679 H687 0.929 . S
C680 C679 1.383 . S
C680 C681 1.377 . S
C681 H665 0.930 . S
C681 C680 1.377 . S
C681 C682 1.379 . S
C682 H666 0.931 . S
C682 C676 1.383 . S
C682 C681 1.379 . S
H683 C677 0.959 . S
H684 C677 0.961 . S
H685 C677 0.960 . S
H686 C678 0.930 . S
H687 C679 0.929 . S
H688 C696 0.929 . S
H689 C698 0.930 . S
H690 C700 0.930 . S
H691 C703 0.929 . S
H692 C706 0.930 . S
H693 C708 0.960 . S
H694 C708 0.960 . S
H695 C708 0.960 . S
C696 H688 0.929 . S
C696 C697 1.377 . S
C696 C698 1.384 . S
C697 C696 1.377 . S
C697 C703 1.390 . S
C698 H689 0.930 . S
C698 C696 1.384 . S
C698 C699 1.372 . S
C699 C698 1.372 . S
C699 C700 1.400 . S
C699 C704 1.490 . S
C700 H690 0.930 . S
C700 C699 1.400 . S
C700 C703 1.386 . S
H701 C717 0.930 . S
H702 C718 0.931 . S
C703 H691 0.929 . S
C703 C697 1.390 . S
C703 C700 1.386 . S
C704 C699 1.490 . S
C704 C706 1.395 . S
C704 C707 1.403 . S
H705 C711 0.930 . S
C706 H692 0.930 . S
C706 C704 1.395 . S
C706 C709 1.403 . S
C707 C704 1.403 . S
C707 C708 1.524 . S
C707 C711 1.400 . S
C708 H693 0.960 . S
C708 H694 0.960 . S
C708 H695 0.960 . S
C708 C707 1.524 . S
C709 C706 1.403 . S
C709 C710 1.392 . S
C709 C713 1.495 . S
C710 C709 1.392 . S
C710 C711 1.385 . S
C710 C712 1.478 . S
C711 H705 0.930 . S
C711 C707 1.400 . S
C711 C710 1.385 . S
C712 C710 1.478 . S
C712 C714 1.381 . S
C712 C718 1.383 . S
C713 C709 1.495 . S
C713 H719 0.959 . S
C713 H720 0.961 . S
C713 H721 0.960 . S
C714 C712 1.381 . S
C714 C715 1.394 . S
C714 H722 0.930 . S
C715 C714 1.394 . S
C715 C716 1.383 . S
C715 H723 0.929 . S
C716 C715 1.383 . S
C716 C717 1.377 . S
C717 H701 0.930 . S
C717 C716 1.377 . S
C717 C718 1.379 . S
C718 H702 0.931 . S
C718 C712 1.383 . S
C718 C717 1.379 . S
H719 C713 0.959 . S
H720 C713 0.961 . S
H721 C713 0.960 . S
H722 C714 0.930 . S
H723 C715 0.929 . S
H724 C732 0.929 . S
H725 C734 0.930 . S
H726 C736 0.930 . S
H727 C739 0.929 . S
H728 C742 0.930 . S
H729 C744 0.960 . S
H730 C744 0.960 . S
H731 C744 0.960 . S
C732 H724 0.929 . S
C732 C733 1.377 . S
C732 C734 1.384 . S
C733 C732 1.377 . S
C733 C739 1.390 . S
C734 H725 0.930 . S
C734 C732 1.384 . S
C734 C735 1.372 . S
C735 C734 1.372 . S
C735 C736 1.400 . S
C735 C740 1.490 . S
C736 H726 0.930 . S
C736 C735 1.400 . S
C736 C739 1.386 . S
H737 C753 0.930 . S
H738 C754 0.931 . S
C739 H727 0.929 . S
C739 C733 1.390 . S
C739 C736 1.386 . S
C740 C735 1.490 . S
C740 C742 1.395 . S
C740 C743 1.403 . S
H741 C747 0.930 . S
C742 H728 0.930 . S
C742 C740 1.395 . S
C742 C745 1.403 . S
C743 C740 1.403 . S
C743 C744 1.524 . S
C743 C747 1.400 . S
C744 H729 0.960 . S
C744 H730 0.960 . S
C744 H731 0.960 . S
C744 C743 1.524 . S
C745 C742 1.403 . S
C745 C746 1.392 . S
C745 C749 1.495 . S
C746 C745 1.392 . S
C746 C747 1.385 . S
C746 C748 1.478 1_455 S
C747 H741 0.930 . S
C747 C743 1.400 . S
C747 C746 1.385 . S
C748 C746 1.478 1_655 S
C748 C750 1.381 . S
C748 C754 1.383 . S
C749 C745 1.495 . S
C749 H755 0.959 . S
C749 H756 0.961 1_455 S
C749 H757 0.960 1_455 S
C750 C748 1.381 . S
C750 C751 1.394 . S
C750 H758 0.930 . S
C751 C750 1.394 . S
C751 C752 1.383 . S
C751 H759 0.929 . S
C752 C751 1.383 . S
C752 C753 1.377 . S
C753 H737 0.930 . S
C753 C752 1.377 . S
C753 C754 1.379 . S
C754 H738 0.931 . S
C754 C748 1.383 . S
C754 C753 1.379 . S
H755 C749 0.959 . S
H756 C749 0.961 1_655 S
H757 C749 0.960 1_655 S
H758 C750 0.930 . S
H759 C751 0.929 . S
H760 C768 0.929 . S
H761 C770 0.930 . S
H762 C772 0.930 . S
H763 C775 0.929 . S
H764 C778 0.930 . S
H765 C780 0.960 . S
H766 C780 0.960 . S
H767 C780 0.960 . S
C768 H760 0.929 . S
C768 C769 1.377 . S
C768 C770 1.384 . S
C769 C768 1.377 . S
C769 C775 1.390 . S
C770 H761 0.930 . S
C770 C768 1.384 . S
C770 C771 1.372 . S
C771 C770 1.372 . S
C771 C772 1.400 . S
C771 C776 1.490 . S
C772 H762 0.930 . S
C772 C771 1.400 . S
C772 C775 1.386 . S
H773 C789 0.930 . S
H774 C790 0.931 . S
C775 H763 0.929 . S
C775 C769 1.390 . S
C775 C772 1.386 . S
C776 C771 1.490 . S
C776 C778 1.395 . S
C776 C779 1.403 . S
H777 C783 0.930 . S
C778 H764 0.930 . S
C778 C776 1.395 . S
C778 C781 1.403 . S
C779 C776 1.403 . S
C779 C780 1.524 . S
C779 C783 1.400 . S
C780 H765 0.960 . S
C780 H766 0.960 . S
C780 H767 0.960 . S
C780 C779 1.524 . S
C781 C778 1.403 . S
C781 C782 1.392 . S
C781 C785 1.495 . S
C782 C781 1.392 . S
C782 C783 1.385 . S
C782 C784 1.478 1_655 S
C783 H777 0.930 . S
C783 C779 1.400 . S
C783 C782 1.385 . S
C784 C782 1.478 1_455 S
C784 C786 1.381 . S
C784 C790 1.383 . S
C785 C781 1.495 . S
C785 H791 0.959 . S
C785 H792 0.950 1_655 S
C785 H793 0.960 1_655 S
C786 C784 1.381 . S
C786 C787 1.394 . S
C786 H794 0.930 . S
C787 C786 1.394 . S
C787 C788 1.383 . S
C787 H795 0.929 . S
C788 C787 1.383 . S
C788 C789 1.377 . S
C789 H773 0.930 . S
C789 C788 1.377 . S
C789 C790 1.379 . S
C790 H774 0.931 . S
C790 C784 1.383 . S
C790 C789 1.379 . S
H791 C785 0.959 . S
H792 C785 0.950 1_455 S
H793 C785 0.960 1_455 S
H794 C786 0.930 . S
H795 C787 0.929 . S
H796 C804 0.929 . S
H797 C806 0.930 . S
H798 C808 0.930 . S
H799 C811 0.929 . S
H800 C814 0.930 . S
H801 C816 0.960 . S
H802 C816 0.960 . S
H803 C816 0.960 . S
C804 H796 0.929 . S
C804 C805 1.377 . S
C804 C806 1.384 . S
C805 C804 1.377 . S
C805 C811 1.390 . S
C806 H797 0.930 . S
C806 C804 1.384 . S
C806 C807 1.372 . S
C807 C806 1.372 . S
C807 C808 1.400 . S
C807 C812 1.490 . S
C808 H798 0.930 . S
C808 C807 1.400 . S
C808 C811 1.386 . S
H809 C825 0.930 . S
H810 C826 0.931 . S
C811 H799 0.929 . S
C811 C805 1.390 . S
C811 C808 1.386 . S
C812 C807 1.490 . S
C812 C814 1.395 . S
C812 C815 1.403 . S
H813 C819 0.930 . S
C814 H800 0.930 . S
C814 C812 1.395 . S
C814 C817 1.403 . S
C815 C812 1.403 . S
C815 C816 1.524 . S
C815 C819 1.400 . S
C816 H801 0.960 . S
C816 H802 0.960 . S
C816 H803 0.960 . S
C816 C815 1.524 . S
C817 C814 1.403 . S
C817 C818 1.392 . S
C817 C821 1.495 . S
C818 C817 1.392 . S
C818 C819 1.385 . S
C818 C820 1.478 . S
C819 H813 0.930 . S
C819 C815 1.400 . S
C819 C818 1.385 . S
C820 C818 1.478 . S
C820 C822 1.381 . S
C820 C826 1.383 . S
C821 C817 1.495 . S
C821 H827 0.959 . S
C821 H828 0.961 . S
C821 H829 0.960 . S
C822 C820 1.381 . S
C822 C823 1.394 . S
C822 H830 0.930 . S
C823 C822 1.394 . S
C823 C824 1.383 . S
C823 H831 0.929 . S
C824 C823 1.383 . S
C824 C825 1.377 . S
C825 H809 0.930 . S
C825 C824 1.377 . S
C825 C826 1.379 . S
C826 H810 0.931 . S
C826 C820 1.383 . S
C826 C825 1.379 . S
H827 C821 0.959 . S
H828 C821 0.961 . S
H829 C821 0.960 . S
H830 C822 0.930 . S
H831 C823 0.929 . S
H832 C840 0.929 . S
H833 C842 0.930 . S
H834 C844 0.930 . S
H835 C847 0.929 . S
H836 C850 0.930 . S
H837 C852 0.960 . S
H838 C852 0.960 . S
H839 C852 0.960 . S
C840 H832 0.929 . S
C840 C841 1.377 . S
C840 C842 1.384 . S
C841 C840 1.377 . S
C841 C847 1.390 . S
C842 H833 0.930 . S
C842 C840 1.384 . S
C842 C843 1.372 . S
C843 C842 1.372 . S
C843 C844 1.400 . S
C843 C848 1.490 1_655 S
C844 H834 0.930 . S
C844 C843 1.400 . S
C844 C847 1.386 . S
H845 C861 0.930 . S
H846 C862 0.931 . S
C847 H835 0.929 . S
C847 C841 1.390 . S
C847 C844 1.386 . S
C848 C843 1.490 1_455 S
C848 C850 1.395 . S
C848 C851 1.403 . S
H849 C855 0.930 . S
C850 H836 0.930 . S
C850 C848 1.395 . S
C850 C853 1.403 . S
C851 C848 1.403 . S
C851 C852 1.524 . S
C851 C855 1.400 . S
C852 H837 0.960 . S
C852 H838 0.960 . S
C852 H839 0.960 . S
C852 C851 1.524 . S
C853 C850 1.403 . S
C853 C854 1.392 . S
C853 C857 1.495 . S
C854 C853 1.392 . S
C854 C855 1.385 . S
C854 C856 1.478 . S
C855 H849 0.930 . S
C855 C851 1.400 . S
C855 C854 1.385 . S
C856 C854 1.478 . S
C856 C858 1.381 . S
C856 C862 1.383 . S
C857 C853 1.495 . S
C857 H863 0.959 . S
C857 H864 0.961 . S
C857 H865 0.960 . S
C858 C856 1.381 . S
C858 C859 1.394 . S
C858 H866 0.930 . S
C859 C858 1.394 . S
C859 C860 1.383 . S
C859 H867 0.929 . S
C860 C859 1.383 . S
C860 C861 1.377 . S
C861 H845 0.930 . S
C861 C860 1.377 . S
C861 C862 1.379 . S
C862 H846 0.931 . S
C862 C856 1.383 . S
C862 C861 1.379 . S
H863 C857 0.959 . S
H864 C857 0.961 . S
H865 C857 0.960 . S
H866 C858 0.930 . S
H867 C859 0.929 . S
H868 C876 0.929 . S
H869 C878 0.930 . S
H870 C880 0.930 . S
H871 C883 0.929 . S
H872 C886 0.930 . S
H873 C888 0.960 . S
H874 C888 0.960 . S
H875 C888 0.960 . S
C876 H868 0.929 . S
C876 C877 1.377 . S
C876 C878 1.384 . S
C877 C876 1.377 . S
C877 C883 1.390 . S
C878 H869 0.930 . S
C878 C876 1.384 . S
C878 C879 1.372 . S
C879 C878 1.372 . S
C879 C880 1.400 . S
C879 C884 1.490 . S
C880 H870 0.930 . S
C880 C879 1.400 . S
C880 C883 1.386 . S
H881 C897 0.930 . S
H882 C898 0.931 . S
C883 H871 0.929 . S
C883 C877 1.390 . S
C883 C880 1.386 . S
C884 C879 1.490 . S
C884 C886 1.395 . S
C884 C887 1.403 . S
H885 C891 0.930 . S
C886 H872 0.930 . S
C886 C884 1.395 . S
C886 C889 1.403 . S
C887 C884 1.403 . S
C887 C888 1.524 . S
C887 C891 1.400 . S
C888 H873 0.960 . S
C888 H874 0.960 . S
C888 H875 0.960 . S
C888 C887 1.524 . S
C889 C886 1.403 . S
C889 C890 1.392 . S
C889 C893 1.495 . S
C890 C889 1.392 . S
C890 C891 1.385 . S
C890 C892 1.478 . S
C891 H885 0.930 . S
C891 C887 1.400 . S
C891 C890 1.385 . S
C892 C890 1.478 . S
C892 C894 1.381 . S
C892 C898 1.383 . S
C893 C889 1.495 . S
C893 H899 0.959 . S
C893 H900 0.961 . S
C893 H901 0.960 . S
C894 C892 1.381 . S
C894 C895 1.394 . S
C894 H902 0.930 . S
C895 C894 1.394 . S
C895 C896 1.383 . S
C895 H903 0.929 . S
C896 C895 1.383 . S
C896 C897 1.377 . S
C897 H881 0.930 . S
C897 C896 1.377 . S
C897 C898 1.379 . S
C898 H882 0.931 . S
C898 C892 1.383 . S
C898 C897 1.379 . S
H899 C893 0.959 . S
H900 C893 0.961 . S
H901 C893 0.960 . S
H902 C894 0.930 . S
H903 C895 0.929 . S
H904 C912 0.929 . S
H905 C914 0.930 . S
H906 C916 0.930 . S
H907 C919 0.929 . S
H908 C922 0.930 . S
H909 C924 0.960 . S
H910 C924 0.960 . S
H911 C924 0.960 . S
C912 H904 0.929 . S
C912 C913 1.377 . S
C912 C914 1.384 . S
C913 C912 1.377 . S
C913 C919 1.390 . S
C914 H905 0.930 . S
C914 C912 1.384 . S
C914 C915 1.372 . S
C915 C914 1.372 . S
C915 C916 1.400 . S
C915 C920 1.490 . S
C916 H906 0.930 . S
C916 C915 1.400 . S
C916 C919 1.386 . S
H917 C933 0.930 . S
H918 C934 0.931 . S
C919 H907 0.929 . S
C919 C913 1.390 . S
C919 C916 1.386 . S
C920 C915 1.490 . S
C920 C922 1.395 . S
C920 C923 1.403 . S
H921 C927 0.930 . S
C922 H908 0.930 . S
C922 C920 1.395 . S
C922 C925 1.403 . S
C923 C920 1.403 . S
C923 C924 1.524 . S
C923 C927 1.400 . S
C924 H909 0.960 . S
C924 H910 0.960 . S
C924 H911 0.960 . S
C924 C923 1.524 . S
C925 C922 1.403 . S
C925 C926 1.392 . S
C925 C929 1.495 . S
C926 C925 1.392 . S
C926 C927 1.385 . S
C926 C928 1.478 . S
C927 H921 0.930 . S
C927 C923 1.400 . S
C927 C926 1.385 . S
C928 C926 1.478 . S
C928 C930 1.381 . S
C928 C934 1.383 . S
C929 C925 1.495 . S
C929 H935 0.959 . S
C929 H936 0.961 . S
C929 H937 0.960 . S
C930 C928 1.381 . S
C930 C931 1.394 . S
C930 H938 0.930 . S
C931 C930 1.394 . S
C931 C932 1.383 . S
C931 H939 0.929 . S
C932 C931 1.383 . S
C932 C933 1.377 . S
C933 H917 0.930 . S
C933 C932 1.377 . S
C933 C934 1.379 . S
C934 H918 0.931 . S
C934 C928 1.383 . S
C934 C933 1.379 . S
H935 C929 0.959 . S
H936 C929 0.961 . S
H937 C929 0.960 . S
H938 C930 0.930 . S
H939 C931 0.929 . S
H940 C948 0.929 . S
H941 C950 0.930 . S
H942 C952 0.930 . S
H943 C955 0.929 . S
H944 C958 0.930 . S
H945 C960 0.960 . S
H946 C960 0.960 . S
H947 C960 0.960 . S
C948 H940 0.929 . S
C948 C949 1.377 . S
C948 C950 1.384 . S
C949 C948 1.377 . S
C949 C955 1.390 . S
C950 H941 0.930 . S
C950 C948 1.384 . S
C950 C951 1.372 . S
C951 C950 1.372 . S
C951 C952 1.400 . S
C951 C956 1.490 1_455 S
C952 H942 0.930 . S
C952 C951 1.400 . S
C952 C955 1.386 . S
H953 C969 0.930 . S
H954 C970 0.931 . S
C955 H943 0.929 . S
C955 C949 1.390 . S
C955 C952 1.386 . S
C956 C951 1.490 1_655 S
C956 C958 1.395 . S
C956 C959 1.403 . S
H957 C963 0.930 . S
C958 H944 0.930 . S
C958 C956 1.395 . S
C958 C961 1.403 . S
C959 C956 1.403 . S
C959 C960 1.524 . S
C959 C963 1.400 . S
C960 H945 0.960 . S
C960 H946 0.960 . S
C960 H947 0.960 . S
C960 C959 1.524 . S
C961 C958 1.403 . S
C961 C962 1.392 . S
C961 C965 1.495 . S
C962 C961 1.392 . S
C962 C963 1.385 . S
C962 C964 1.478 . S
C963 H957 0.930 . S
C963 C959 1.400 . S
C963 C962 1.385 . S
C964 C962 1.478 . S
C964 C966 1.381 . S
C964 C970 1.383 . S
C965 C961 1.495 . S
C965 H971 0.959 . S
C965 H972 0.961 . S
C965 H973 0.960 . S
C966 C964 1.381 . S
C966 C967 1.394 . S
C966 H974 0.930 . S
C967 C966 1.394 . S
C967 C968 1.383 . S
C967 H975 0.929 . S
C968 C967 1.383 . S
C968 C969 1.377 . S
C969 H953 0.930 . S
C969 C968 1.377 . S
C969 C970 1.379 . S
C970 H954 0.931 . S
C970 C964 1.383 . S
C970 C969 1.379 . S
H971 C965 0.959 . S
H972 C965 0.961 . S
H973 C965 0.960 . S
H974 C966 0.930 . S
H975 C967 0.929 . S
H976 C984 0.929 . S
H977 C986 0.930 . S
H978 C988 0.930 . S
H979 C991 0.929 . S
H980 C994 0.930 . S
H981 C996 0.960 . S
H982 C996 0.960 . S
H983 C996 0.960 . S
C984 H976 0.929 . S
C984 C985 1.377 . S
C984 C986 1.384 . S
C985 C984 1.377 . S
C985 C991 1.390 . S
C986 H977 0.930 . S
C986 C984 1.384 . S
C986 C987 1.372 . S
C987 C986 1.372 . S
C987 C988 1.400 . S
C987 C992 1.490 1_455 S
C988 H978 0.930 . S
C988 C987 1.400 . S
C988 C991 1.386 . S
H989 C1005 0.930 . S
H990 C1006 0.931 . S
C991 H979 0.929 . S
C991 C985 1.390 . S
C991 C988 1.386 . S
C992 C987 1.490 1_655 S
C992 C994 1.395 . S
C992 C995 1.403 . S
H993 C999 0.930 . S
C994 H980 0.930 . S
C994 C992 1.395 . S
C994 C997 1.403 . S
C995 C992 1.403 . S
C995 C996 1.524 . S
C995 C999 1.400 . S
C996 H981 0.960 . S
C996 H982 0.960 . S
C996 H983 0.960 . S
C996 C995 1.524 . S
C997 C994 1.403 . S
C997 C998 1.392 . S
C997 C1001 1.495 . S
C998 C997 1.392 . S
C998 C999 1.385 . S
C998 C1000 1.478 . S
C999 H993 0.930 . S
C999 C995 1.400 . S
C999 C998 1.385 . S
C1000 C998 1.478 . S
C1000 C1002 1.381 . S
C1000 C1006 1.383 . S
C1001 C997 1.495 . S
C1001 H1007 0.959 . S
C1001 H1008 0.961 . S
C1001 H1009 0.960 . S
C1002 C1000 1.381 . S
C1002 C1003 1.394 . S
C1002 H1010 0.930 . S
C1003 C1002 1.394 . S
C1003 C1004 1.383 . S
C1003 H1011 0.929 . S
C1004 C1003 1.383 . S
C1004 C1005 1.377 . S
C1005 H989 0.930 . S
C1005 C1004 1.377 . S
C1005 C1006 1.379 . S
C1006 H990 0.931 . S
C1006 C1000 1.383 . S
C1006 C1005 1.379 . S
H1007 C1001 0.959 . S
H1008 C1001 0.961 . S
H1009 C1001 0.960 . S
H1010 C1002 0.930 . S
H1011 C1003 0.929 . S
H1012 C1020 0.929 . S
H1013 C1022 0.930 . S
H1014 C1024 0.930 . S
H1015 C1027 0.929 . S
H1016 C1030 0.930 . S
H1017 C1032 0.960 . S
H1018 C1032 0.960 . S
H1019 C1032 0.960 . S
C1020 H1012 0.929 . S
C1020 C1021 1.377 . S
C1020 C1022 1.384 . S
C1021 C1020 1.377 . S
C1021 C1027 1.390 . S
C1022 H1013 0.930 . S
C1022 C1020 1.384 . S
C1022 C1023 1.372 . S
C1023 C1022 1.372 . S
C1023 C1024 1.400 . S
C1023 C1028 1.490 . S
C1024 H1014 0.930 . S
C1024 C1023 1.400 . S
C1024 C1027 1.386 . S
H1025 C1041 0.930 . S
H1026 C1042 0.931 . S
C1027 H1015 0.929 . S
C1027 C1021 1.390 . S
C1027 C1024 1.386 . S
C1028 C1023 1.490 . S
C1028 C1030 1.395 . S
C1028 C1031 1.403 . S
H1029 C1035 0.930 . S
C1030 H1016 0.930 . S
C1030 C1028 1.395 . S
C1030 C1033 1.403 . S
C1031 C1028 1.403 . S
C1031 C1032 1.524 . S
C1031 C1035 1.400 . S
C1032 H1017 0.960 . S
C1032 H1018 0.960 . S
C1032 H1019 0.960 . S
C1032 C1031 1.524 . S
C1033 C1030 1.403 . S
C1033 C1034 1.392 . S
C1033 C1037 1.495 . S
C1034 C1033 1.392 . S
C1034 C1035 1.385 . S
C1034 C1036 1.478 . S
C1035 H1029 0.930 . S
C1035 C1031 1.400 . S
C1035 C1034 1.385 . S
C1036 C1034 1.478 . S
C1036 C1038 1.381 . S
C1036 C1042 1.383 . S
C1037 C1033 1.495 . S
C1037 H1043 0.959 . S
C1037 H1044 0.961 . S
C1037 H1045 0.960 . S
C1038 C1036 1.381 . S
C1038 C1039 1.394 . S
C1038 H1046 0.930 . S
C1039 C1038 1.394 . S
C1039 C1040 1.383 . S
C1039 H1047 0.929 . S
C1040 C1039 1.383 . S
C1040 C1041 1.377 . S
C1041 H1025 0.930 . S
C1041 C1040 1.377 . S
C1041 C1042 1.379 . S
C1042 H1026 0.931 . S
C1042 C1036 1.383 . S
C1042 C1041 1.379 . S
H1043 C1037 0.959 . S
H1044 C1037 0.961 . S
H1045 C1037 0.960 . S
H1046 C1038 0.930 . S
H1047 C1039 0.929 . S
H1048 C1056 0.929 . S
H1049 C1058 0.930 . S
H1050 C1060 0.930 . S
H1051 C1063 0.929 . S
H1052 C1066 0.930 . S
H1053 C1068 0.960 . S
H1054 C1068 0.960 . S
H1055 C1068 0.960 . S
C1056 H1048 0.929 . S
C1056 C1057 1.377 . S
C1056 C1058 1.384 . S
C1057 C1056 1.377 . S
C1057 C1063 1.390 . S
C1058 H1049 0.930 . S
C1058 C1056 1.384 . S
C1058 C1059 1.372 . S
C1059 C1058 1.372 . S
C1059 C1060 1.400 . S
C1059 C1064 1.490 . S
C1060 H1050 0.930 . S
C1060 C1059 1.400 . S
C1060 C1063 1.386 . S
H1061 C1077 0.930 . S
H1062 C1078 0.931 . S
C1063 H1051 0.929 . S
C1063 C1057 1.390 . S
C1063 C1060 1.386 . S
C1064 C1059 1.490 . S
C1064 C1066 1.395 . S
C1064 C1067 1.403 . S
H1065 C1071 0.930 . S
C1066 H1052 0.930 . S
C1066 C1064 1.395 . S
C1066 C1069 1.403 . S
C1067 C1064 1.403 . S
C1067 C1068 1.524 . S
C1067 C1071 1.400 . S
C1068 H1053 0.960 . S
C1068 H1054 0.960 . S
C1068 H1055 0.960 . S
C1068 C1067 1.524 . S
C1069 C1066 1.403 . S
C1069 C1070 1.392 . S
C1069 C1073 1.495 . S
C1070 C1069 1.392 . S
C1070 C1071 1.385 . S
C1070 C1072 1.478 . S
C1071 H1065 0.930 . S
C1071 C1067 1.400 . S
C1071 C1070 1.385 . S
C1072 C1070 1.478 . S
C1072 C1074 1.381 . S
C1072 C1078 1.383 . S
C1073 C1069 1.495 . S
C1073 H1079 0.959 . S
C1073 H1080 0.961 . S
C1073 H1081 0.960 . S
C1074 C1072 1.381 . S
C1074 C1075 1.394 . S
C1074 H1082 0.930 . S
C1075 C1074 1.394 . S
C1075 C1076 1.383 . S
C1075 H1083 0.929 . S
C1076 C1075 1.383 . S
C1076 C1077 1.377 . S
C1077 H1061 0.930 . S
C1077 C1076 1.377 . S
C1077 C1078 1.379 . S
C1078 H1062 0.931 . S
C1078 C1072 1.383 . S
C1078 C1077 1.379 . S
H1079 C1073 0.959 . S
H1080 C1073 0.961 . S
H1081 C1073 0.960 . S
H1082 C1074 0.930 . S
H1083 C1075 0.929 . S
H1084 C1092 0.929 . S
H1085 C1094 0.930 . S
H1086 C1096 0.930 . S
H1087 C1099 0.929 . S
H1088 C1102 0.930 . S
H1089 C1104 0.960 . S
H1090 C1104 0.960 . S
H1091 C1104 0.960 . S
C1092 H1084 0.929 . S
C1092 C1093 1.377 . S
C1092 C1094 1.384 . S
C1093 C1092 1.377 . S
C1093 C1099 1.390 . S
C1094 H1085 0.930 . S
C1094 C1092 1.384 . S
C1094 C1095 1.372 . S
C1095 C1094 1.372 . S
C1095 C1096 1.400 . S
C1095 C1100 1.490 . S
C1096 H1086 0.930 . S
C1096 C1095 1.400 . S
C1096 C1099 1.386 . S
H1097 C1113 0.930 . S
H1098 C1114 0.931 . S
C1099 H1087 0.929 . S
C1099 C1093 1.390 . S
C1099 C1096 1.386 . S
C1100 C1095 1.490 . S
C1100 C1102 1.395 . S
C1100 C1103 1.403 . S
H1101 C1107 0.930 . S
C1102 H1088 0.930 . S
C1102 C1100 1.395 . S
C1102 C1105 1.403 . S
C1103 C1100 1.403 . S
C1103 C1104 1.524 . S
C1103 C1107 1.400 . S
C1104 H1089 0.960 . S
C1104 H1090 0.960 . S
C1104 H1091 0.960 . S
C1104 C1103 1.524 . S
C1105 C1102 1.403 . S
C1105 C1106 1.392 . S
C1105 C1109 1.495 . S
C1106 C1105 1.392 . S
C1106 C1107 1.385 . S
C1106 C1108 1.478 1_455 S
C1107 H1101 0.930 . S
C1107 C1103 1.400 . S
C1107 C1106 1.385 . S
C1108 C1106 1.478 1_655 S
C1108 C1110 1.381 . S
C1108 C1114 1.383 . S
C1109 C1105 1.495 . S
C1109 H1115 0.959 . S
C1109 H1116 0.961 . S
C1109 H1117 0.960 1_455 S
C1110 C1108 1.381 . S
C1110 C1111 1.394 . S
C1110 H1118 0.930 . S
C1111 C1110 1.394 . S
C1111 C1112 1.383 . S
C1111 H1119 0.929 . S
C1112 C1111 1.383 . S
C1112 C1113 1.377 . S
C1113 H1097 0.930 . S
C1113 C1112 1.377 . S
C1113 C1114 1.379 . S
C1114 H1098 0.931 . S
C1114 C1108 1.383 . S
C1114 C1113 1.379 . S
H1115 C1109 0.959 . S
H1116 C1109 0.961 . S
H1117 C1109 0.960 1_655 S
H1118 C1110 0.930 . S
H1119 C1111 0.929 . S
H1120 C1128 0.929 . S
H1121 C1130 0.930 . S
H1122 C1132 0.930 . S
H1123 C1135 0.929 . S
H1124 C1138 0.930 . S
H1125 C1140 0.960 . S
H1126 C1140 0.960 . S
H1127 C1140 0.960 . S
C1128 H1120 0.929 . S
C1128 C1129 1.377 . S
C1128 C1130 1.384 . S
C1129 C1128 1.377 . S
C1129 C1135 1.390 . S
C1130 H1121 0.930 . S
C1130 C1128 1.384 . S
C1130 C1131 1.372 . S
C1131 C1130 1.372 . S
C1131 C1132 1.400 . S
C1131 C1136 1.490 . S
C1132 H1122 0.930 . S
C1132 C1131 1.400 . S
C1132 C1135 1.386 . S
H1133 C1149 0.930 . S
H1134 C1150 0.931 . S
C1135 H1123 0.929 . S
C1135 C1129 1.390 . S
C1135 C1132 1.386 . S
C1136 C1131 1.490 . S
C1136 C1138 1.395 . S
C1136 C1139 1.403 . S
H1137 C1143 0.930 . S
C1138 H1124 0.930 . S
C1138 C1136 1.395 . S
C1138 C1141 1.403 1_554 S
C1139 C1136 1.403 . S
C1139 C1140 1.524 . S
C1139 C1143 1.400 1_554 S
C1140 H1125 0.960 . S
C1140 H1126 0.960 . S
C1140 H1127 0.960 . S
C1140 C1139 1.524 . S
C1141 C1138 1.403 1_556 S
C1141 C1142 1.392 . S
C1141 C1145 1.495 . S
C1142 C1141 1.392 . S
C1142 C1143 1.385 . S
C1142 C1144 1.478 . S
C1143 H1137 0.930 . S
C1143 C1139 1.400 1_556 S
C1143 C1142 1.385 . S
C1144 C1142 1.478 . S
C1144 C1146 1.381 . S
C1144 C1150 1.383 . S
C1145 C1141 1.495 . S
C1145 H1151 0.959 . S
C1145 H1152 0.961 . S
C1145 H1153 0.960 . S
C1146 C1144 1.381 . S
C1146 C1147 1.394 . S
C1146 H1154 0.930 . S
C1147 C1146 1.394 . S
C1147 C1148 1.383 . S
C1147 H1155 0.929 . S
C1148 C1147 1.383 . S
C1148 C1149 1.377 . S
C1149 H1133 0.930 . S
C1149 C1148 1.377 . S
C1149 C1150 1.379 . S
C1150 H1134 0.931 . S
C1150 C1144 1.383 . S
C1150 C1149 1.379 . S
H1151 C1145 0.959 . S
H1152 C1145 0.961 . S
H1153 C1145 0.960 . S
H1154 C1146 0.930 . S
H1155 C1147 0.929 . S
H1156 C1164 0.929 . S
H1157 C1166 0.930 . S
H1158 C1168 0.930 . S
H1159 C1171 0.929 . S
H1160 C1174 0.930 . S
H1161 C1176 0.960 . S
H1162 C1176 0.960 . S
H1163 C1176 0.960 . S
C1164 H1156 0.929 . S
C1164 C1165 1.377 . S
C1164 C1166 1.384 . S
C1165 C1164 1.377 . S
C1165 C1171 1.390 . S
C1166 H1157 0.930 . S
C1166 C1164 1.384 . S
C1166 C1167 1.372 . S
C1167 C1166 1.372 . S
C1167 C1168 1.400 . S
C1167 C1172 1.490 . S
C1168 H1158 0.930 . S
C1168 C1167 1.400 . S
C1168 C1171 1.386 . S
H1169 C1185 0.930 1_655 S
H1170 C1186 0.931 . S
C1171 H1159 0.929 . S
C1171 C1165 1.390 . S
C1171 C1168 1.386 . S
C1172 C1167 1.490 . S
C1172 C1174 1.395 1_554 S
C1172 C1175 1.403 . S
H1173 C1179 0.930 . S
C1174 H1160 0.930 . S
C1174 C1172 1.395 1_556 S
C1174 C1177 1.403 . S
C1175 C1172 1.403 . S
C1175 C1176 1.524 . S
C1175 C1179 1.364 1_554 S
C1176 H1161 0.960 . S
C1176 H1162 0.960 . S
C1176 H1163 0.960 . S
C1176 C1175 1.524 . S
C1177 C1174 1.403 . S
C1177 C1178 1.392 . S
C1177 C1181 1.495 . S
C1178 C1177 1.392 . S
C1178 C1179 1.422 . S
C1178 C1180 1.478 . S
C1179 H1173 0.930 . S
C1179 C1175 1.364 1_556 S
C1179 C1178 1.422 . S
C1180 C1178 1.478 . S
C1180 C1182 1.381 . S
C1180 C1186 1.383 . S
C1181 C1177 1.495 . S
C1181 H1187 0.959 . S
C1181 H1188 0.961 . S
C1181 H1189 0.960 . S
C1182 C1180 1.381 . S
C1182 C1183 1.394 . S
C1182 H1190 0.930 . S
C1183 C1182 1.394 . S
C1183 C1184 1.383 . S
C1183 H1191 0.929 . S
C1184 C1183 1.383 . S
C1184 C1185 1.377 . S
C1185 H1169 0.930 1_455 S
C1185 C1184 1.377 . S
C1185 C1186 1.379 . S
C1186 H1170 0.931 . S
C1186 C1180 1.383 . S
C1186 C1185 1.379 . S
H1187 C1181 0.959 . S
H1188 C1181 0.961 . S
H1189 C1181 0.960 . S
H1190 C1182 0.930 . S
H1191 C1183 0.929 . S
H1192 C1200 0.929 . S
H1193 C1202 0.930 . S
H1194 C1204 0.930 . S
H1195 C1207 0.929 . S
H1196 C1210 0.930 . S
H1197 C1212 0.960 . S
H1198 C1212 0.960 . S
H1199 C1212 0.960 . S
C1200 H1192 0.929 . S
C1200 C1201 1.377 . S
C1200 C1202 1.384 . S
C1201 C1200 1.377 . S
C1201 C1207 1.390 . S
C1202 H1193 0.930 . S
C1202 C1200 1.384 . S
C1202 C1203 1.372 . S
C1203 C1202 1.372 . S
C1203 C1204 1.400 . S
C1203 C1208 1.490 . S
C1204 H1194 0.930 . S
C1204 C1203 1.400 . S
C1204 C1207 1.386 . S
H1205 C1221 0.930 1_455 S
H1206 C1222 0.931 . S
C1207 H1195 0.929 . S
C1207 C1201 1.390 . S
C1207 C1204 1.386 . S
C1208 C1203 1.490 . S
C1208 C1210 1.395 . S
C1208 C1211 1.403 . S
H1209 C1215 0.930 . S
C1210 H1196 0.930 . S
C1210 C1208 1.395 . S
C1210 C1213 1.403 . S
C1211 C1208 1.403 . S
C1211 C1212 1.524 . S
C1211 C1215 1.400 . S
C1212 H1197 0.960 . S
C1212 H1198 0.960 . S
C1212 H1199 0.960 . S
C1212 C1211 1.524 . S
C1213 C1210 1.403 . S
C1213 C1214 1.392 . S
C1213 C1217 1.495 . S
C1214 C1213 1.392 . S
C1214 C1215 1.385 . S
C1214 C1216 1.478 . S
C1215 H1209 0.930 . S
C1215 C1211 1.400 . S
C1215 C1214 1.385 . S
C1216 C1214 1.478 . S
C1216 C1218 1.381 . S
C1216 C1222 1.383 . S
C1217 C1213 1.495 . S
C1217 H1223 0.959 . S
C1217 H1224 0.961 . S
C1217 H1225 0.960 . S
C1218 C1216 1.381 . S
C1218 C1219 1.394 . S
C1218 H1226 0.930 . S
C1219 C1218 1.394 . S
C1219 C1220 1.383 . S
C1219 H1227 0.929 . S
C1220 C1219 1.383 . S
C1220 C1221 1.377 . S
C1221 H1205 0.930 1_655 S
C1221 C1220 1.377 . S
C1221 C1222 1.379 . S
C1222 H1206 0.931 . S
C1222 C1216 1.383 . S
C1222 C1221 1.379 . S
H1223 C1217 0.959 . S
H1224 C1217 0.961 . S
H1225 C1217 0.960 . S
H1226 C1218 0.930 . S
H1227 C1219 0.929 . S
H1228 C1236 0.929 . S
H1229 C1238 0.930 . S
H1230 C1240 0.930 . S
H1231 C1243 0.929 . S
H1232 C1246 0.930 . S
H1233 C1248 0.960 . S
H1234 C1248 0.960 . S
H1235 C1248 0.960 . S
C1236 H1228 0.929 . S
C1236 C1237 1.377 . S
C1236 C1238 1.384 . S
C1237 C1236 1.377 . S
C1237 C1243 1.390 . S
C1238 H1229 0.930 . S
C1238 C1236 1.384 . S
C1238 C1239 1.372 . S
C1239 C1238 1.372 . S
C1239 C1240 1.400 . S
C1239 C1244 1.490 . S
C1240 H1230 0.930 . S
C1240 C1239 1.400 . S
C1240 C1243 1.386 . S
H1241 C1257 0.930 . S
H1242 C1258 0.931 . S
C1243 H1231 0.929 . S
C1243 C1237 1.390 . S
C1243 C1240 1.386 . S
C1244 C1239 1.490 . S
C1244 C1246 1.395 . S
C1244 C1247 1.403 . S
H1245 C1251 0.930 . S
C1246 H1232 0.930 . S
C1246 C1244 1.395 . S
C1246 C1249 1.403 . S
C1247 C1244 1.403 . S
C1247 C1248 1.524 . S
C1247 C1251 1.400 . S
C1248 H1233 0.960 . S
C1248 H1234 0.960 . S
C1248 H1235 0.960 . S
C1248 C1247 1.524 . S
C1249 C1246 1.403 . S
C1249 C1250 1.392 . S
C1249 C1253 1.495 . S
C1250 C1249 1.392 . S
C1250 C1251 1.385 . S
C1250 C1252 1.478 . S
C1251 H1245 0.930 . S
C1251 C1247 1.400 . S
C1251 C1250 1.385 . S
C1252 C1250 1.478 . S
C1252 C1254 1.381 . S
C1252 C1258 1.383 . S
C1253 C1249 1.495 . S
C1253 H1259 0.959 . S
C1253 H1260 0.961 . S
C1253 H1261 0.960 . S
C1254 C1252 1.381 . S
C1254 C1255 1.394 . S
C1254 H1262 0.930 . S
C1255 C1254 1.394 . S
C1255 C1256 1.383 . S
C1255 H1263 0.929 . S
C1256 C1255 1.383 . S
C1256 C1257 1.377 . S
C1257 H1241 0.930 . S
C1257 C1256 1.377 . S
C1257 C1258 1.379 . S
C1258 H1242 0.931 . S
C1258 C1252 1.383 . S
C1258 C1257 1.379 . S
H1259 C1253 0.959 . S
H1260 C1253 0.961 . S
H1261 C1253 0.960 . S
H1262 C1254 0.930 . S
H1263 C1255 0.929 . S
H1264 C1272 0.929 . S
H1265 C1274 0.930 . S
H1266 C1276 0.930 . S
H1267 C1279 0.929 . S
H1268 C1282 0.930 . S
H1269 C1284 0.960 . S
H1270 C1284 0.960 . S
H1271 C1284 0.976 . S
C1272 H1264 0.929 . S
C1272 C1273 1.377 . S
C1272 C1274 1.384 . S
C1273 C1272 1.377 . S
C1273 C1279 1.390 . S
C1274 H1265 0.930 . S
C1274 C1272 1.384 . S
C1274 C1275 1.372 . S
C1275 C1274 1.372 . S
C1275 C1276 1.400 . S
C1275 C1280 1.490 . S
C1276 H1266 0.930 . S
C1276 C1275 1.400 . S
C1276 C1279 1.386 . S
H1277 C1293 0.930 . S
H1278 C1294 0.931 . S
C1279 H1267 0.929 . S
C1279 C1273 1.390 . S
C1279 C1276 1.386 . S
C1280 C1275 1.490 . S
C1280 C1282 1.395 . S
C1280 C1283 1.403 1_556 S
H1281 C1287 0.930 . S
C1282 H1268 0.930 . S
C1282 C1280 1.395 . S
C1282 C1285 1.403 . S
C1283 C1280 1.403 1_554 S
C1283 C1284 1.524 . S
C1283 C1287 1.400 . S
C1284 H1269 0.960 . S
C1284 H1270 0.960 . S
C1284 H1271 0.976 . S
C1284 C1283 1.524 . S
C1285 C1282 1.403 . S
C1285 C1286 1.392 1_556 S
C1285 C1289 1.495 . S
C1286 C1285 1.392 1_554 S
C1286 C1287 1.385 . S
C1286 C1288 1.478 . S
C1287 H1281 0.930 . S
C1287 C1283 1.400 . S
C1287 C1286 1.385 . S
C1288 C1286 1.478 . S
C1288 C1290 1.381 . S
C1288 C1294 1.383 . S
C1289 C1285 1.495 . S
C1289 H1295 0.959 . S
C1289 H1296 0.961 . S
C1289 H1297 0.960 . S
C1290 C1288 1.381 . S
C1290 C1291 1.394 . S
C1290 H1298 0.930 . S
C1291 C1290 1.394 . S
C1291 C1292 1.383 . S
C1291 H1299 0.929 . S
C1292 C1291 1.383 . S
C1292 C1293 1.377 . S
C1293 H1277 0.930 . S
C1293 C1292 1.377 . S
C1293 C1294 1.379 . S
C1294 H1278 0.931 . S
C1294 C1288 1.383 . S
C1294 C1293 1.379 . S
H1295 C1289 0.959 . S
H1296 C1289 0.961 . S
H1297 C1289 0.960 . S
H1298 C1290 0.930 . S
H1299 C1291 0.929 . S
H1300 C1308 0.929 . S
H1301 C1310 0.930 . S
H1302 C1312 0.930 . S
H1303 C1315 0.929 . S
H1304 C1318 0.930 . S
H1305 C1320 0.960 . S
H1306 C1320 0.960 . S
H1307 C1320 0.960 1_556 S
C1308 H1300 0.929 . S
C1308 C1309 1.377 . S
C1308 C1310 1.384 . S
C1309 C1308 1.377 . S
C1309 C1315 1.390 . S
C1310 H1301 0.930 . S
C1310 C1308 1.384 . S
C1310 C1311 1.372 . S
C1311 C1310 1.372 . S
C1311 C1312 1.400 . S
C1311 C1316 1.490 . S
C1312 H1302 0.930 . S
C1312 C1311 1.400 . S
C1312 C1315 1.386 . S
H1313 C1329 0.930 . S
H1314 C1330 0.931 . S
C1315 H1303 0.929 . S
C1315 C1309 1.390 . S
C1315 C1312 1.386 . S
C1316 C1311 1.490 . S
C1316 C1318 1.395 . S
C1316 C1319 1.401 . S
H1317 C1323 0.930 . S
C1318 H1304 0.930 . S
C1318 C1316 1.395 . S
C1318 C1321 1.403 . S
C1319 C1316 1.401 . S
C1319 C1320 1.524 1_556 S
C1319 C1323 1.401 1_556 S
C1320 H1305 0.960 . S
C1320 H1306 0.960 . S
C1320 H1307 0.960 1_554 S
C1320 C1319 1.524 1_554 S
C1321 C1318 1.403 . S
C1321 C1322 1.392 1_556 S
C1321 C1325 1.495 . S
C1322 C1321 1.392 1_554 S
C1322 C1323 1.385 . S
C1322 C1324 1.478 . S
C1323 H1317 0.930 . S
C1323 C1319 1.401 1_554 S
C1323 C1322 1.385 . S
C1324 C1322 1.478 . S
C1324 C1326 1.381 . S
C1324 C1330 1.383 . S
C1325 C1321 1.495 . S
C1325 H1331 0.959 . S
C1325 H1332 0.961 . S
C1325 H1333 0.960 1_556 S
C1326 C1324 1.381 . S
C1326 C1327 1.394 . S
C1326 H1334 0.930 . S
C1327 C1326 1.394 . S
C1327 C1328 1.383 . S
C1327 H1335 0.929 . S
C1328 C1327 1.383 . S
C1328 C1329 1.377 . S
C1329 H1313 0.930 . S
C1329 C1328 1.377 . S
C1329 C1330 1.379 . S
C1330 H1314 0.931 . S
C1330 C1324 1.383 . S
C1330 C1329 1.379 . S
H1331 C1325 0.959 . S
H1332 C1325 0.961 . S
H1333 C1325 0.960 1_554 S
H1334 C1326 0.930 . S
H1335 C1327 0.929 . S
H1336 C1344 0.929 . S
H1337 C1346 0.930 . S
H1338 C1348 0.930 . S
H1339 C1351 0.929 . S
H1340 C1354 0.930 . S
H1341 C1356 0.960 . S
H1342 C1356 0.960 . S
H1343 C1356 0.960 . S
C1344 H1336 0.929 . S
C1344 C1345 1.377 . S
C1344 C1346 1.384 . S
C1345 C1344 1.377 . S
C1345 C1351 1.390 1_455 S
C1346 H1337 0.930 . S
C1346 C1344 1.384 . S
C1346 C1347 1.372 . S
C1347 C1346 1.372 . S
C1347 C1348 1.400 . S
C1347 C1352 1.490 . S
C1348 H1338 0.930 . S
C1348 C1347 1.400 . S
C1348 C1351 1.386 1_455 S
H1349 C1365 0.930 . S
H1350 C1366 0.931 . S
C1351 H1339 0.929 . S
C1351 C1345 1.390 1_655 S
C1351 C1348 1.386 1_655 S
C1352 C1347 1.490 . S
C1352 C1354 1.395 . S
C1352 C1355 1.403 . S
H1353 C1359 0.930 . S
C1354 H1340 0.930 . S
C1354 C1352 1.395 . S
C1354 C1357 1.403 . S
C1355 C1352 1.403 . S
C1355 C1356 1.524 . S
C1355 C1359 1.400 . S
C1356 H1341 0.960 . S
C1356 H1342 0.960 . S
C1356 H1343 0.960 . S
C1356 C1355 1.524 . S
C1357 C1354 1.403 . S
C1357 C1358 1.392 . S
C1357 C1361 1.495 . S
C1358 C1357 1.392 . S
C1358 C1359 1.385 . S
C1358 C1360 1.478 . S
C1359 H1353 0.930 . S
C1359 C1355 1.400 . S
C1359 C1358 1.385 . S
C1360 C1358 1.478 . S
C1360 C1362 1.381 . S
C1360 C1366 1.383 . S
C1361 C1357 1.495 . S
C1361 H1367 0.959 . S
C1361 H1368 0.961 . S
C1361 H1369 0.960 . S
C1362 C1360 1.381 . S
C1362 C1363 1.394 . S
C1362 H1370 0.930 . S
C1363 C1362 1.394 . S
C1363 C1364 1.383 . S
C1363 H1371 0.929 . S
C1364 C1363 1.383 . S
C1364 C1365 1.377 . S
C1365 H1349 0.930 . S
C1365 C1364 1.377 . S
C1365 C1366 1.379 . S
C1366 H1350 0.931 . S
C1366 C1360 1.383 . S
C1366 C1365 1.379 . S
H1367 C1361 0.959 . S
H1368 C1361 0.961 . S
H1369 C1361 0.960 . S
H1370 C1362 0.930 . S
H1371 C1363 0.929 . S
H1372 C1380 0.929 . S
H1373 C1382 0.930 . S
H1374 C1384 0.930 . S
H1375 C1387 0.929 . S
H1376 C1390 0.930 . S
H1377 C1392 0.960 . S
H1378 C1392 0.960 . S
H1379 C1392 0.960 . S
C1380 H1372 0.929 . S
C1380 C1381 1.377 . S
C1380 C1382 1.384 . S
C1381 C1380 1.377 . S
C1381 C1387 1.390 . S
C1382 H1373 0.930 . S
C1382 C1380 1.384 . S
C1382 C1383 1.372 . S
C1383 C1382 1.372 . S
C1383 C1384 1.400 . S
C1383 C1388 1.490 . S
C1384 H1374 0.930 . S
C1384 C1383 1.400 . S
C1384 C1387 1.386 . S
H1385 C1401 0.930 . S
H1386 C1402 0.931 . S
C1387 H1375 0.929 . S
C1387 C1381 1.390 . S
C1387 C1384 1.386 . S
C1388 C1383 1.490 . S
C1388 C1390 1.395 . S
C1388 C1391 1.403 . S
H1389 C1395 0.930 . S
C1390 H1376 0.930 . S
C1390 C1388 1.395 . S
C1390 C1393 1.403 . S
C1391 C1388 1.403 . S
C1391 C1392 1.524 . S
C1391 C1395 1.400 . S
C1392 H1377 0.960 . S
C1392 H1378 0.960 . S
C1392 H1379 0.960 . S
C1392 C1391 1.524 . S
C1393 C1390 1.403 . S
C1393 C1394 1.392 . S
C1393 C1397 1.495 . S
C1394 C1393 1.392 . S
C1394 C1395 1.385 . S
C1394 C1396 1.478 . S
C1395 H1389 0.930 . S
C1395 C1391 1.400 . S
C1395 C1394 1.385 . S
C1396 C1394 1.478 . S
C1396 C1398 1.381 . S
C1396 C1402 1.383 . S
C1397 C1393 1.495 . S
C1397 H1403 0.959 . S
C1397 H1404 0.961 . S
C1397 H1405 0.960 . S
C1398 C1396 1.381 . S
C1398 C1399 1.394 . S
C1398 H1406 0.930 . S
C1399 C1398 1.394 . S
C1399 C1400 1.383 . S
C1399 H1407 0.929 . S
C1400 C1399 1.383 . S
C1400 C1401 1.377 . S
C1401 H1385 0.930 . S
C1401 C1400 1.377 . S
C1401 C1402 1.379 . S
C1402 H1386 0.931 . S
C1402 C1396 1.383 . S
C1402 C1401 1.379 . S
H1403 C1397 0.959 . S
H1404 C1397 0.961 . S
H1405 C1397 0.960 . S
H1406 C1398 0.930 . S
H1407 C1399 0.929 . S
H1408 C1416 0.929 . S
H1409 C1418 0.930 . S
H1410 C1420 0.930 . S
H1411 C1423 0.929 . S
H1412 C1426 0.930 . S
H1413 C1428 0.960 . S
H1414 C1428 0.960 1_554 S
H1415 C1428 0.960 1_554 S
C1416 H1408 0.929 . S
C1416 C1417 1.377 . S
C1416 C1418 1.384 . S
C1417 C1416 1.377 . S
C1417 C1423 1.390 . S
C1418 H1409 0.930 . S
C1418 C1416 1.384 . S
C1418 C1419 1.372 . S
C1419 C1418 1.372 . S
C1419 C1420 1.400 . S
C1419 C1424 1.490 . S
C1420 H1410 0.930 . S
C1420 C1419 1.400 . S
C1420 C1423 1.386 . S
H1421 C1437 0.930 . S
H1422 C1438 0.931 . S
C1423 H1411 0.929 . S
C1423 C1417 1.390 . S
C1423 C1420 1.386 . S
C1424 C1419 1.490 . S
C1424 C1426 1.395 . S
C1424 C1427 1.439 . S
H1425 C1431 0.930 . S
C1426 H1412 0.930 . S
C1426 C1424 1.395 . S
C1426 C1429 1.403 . S
C1427 C1424 1.439 . S
C1427 C1428 1.520 1_554 S
C1427 C1431 1.367 1_554 S
C1428 H1413 0.960 . S
C1428 H1414 0.960 1_556 S
C1428 H1415 0.960 1_556 S
C1428 C1427 1.520 1_556 S
C1429 C1426 1.403 . S
C1429 C1430 1.392 1_554 S
C1429 C1433 1.495 . S
C1430 C1429 1.392 1_556 S
C1430 C1431 1.385 . S
C1430 C1432 1.478 . S
C1431 H1425 0.930 . S
C1431 C1427 1.367 1_556 S
C1431 C1430 1.385 . S
C1432 C1430 1.478 . S
C1432 C1434 1.381 . S
C1432 C1438 1.383 . S
C1433 C1429 1.495 . S
C1433 H1439 0.959 . S
C1433 H1440 0.961 1_554 S
C1433 H1441 0.960 . S
C1434 C1432 1.381 . S
C1434 C1435 1.394 1_655 S
C1434 H1442 0.930 . S
C1435 C1434 1.394 1_455 S
C1435 C1436 1.383 1_455 S
C1435 H1443 0.929 . S
C1436 C1435 1.383 1_655 S
C1436 C1437 1.377 . S
C1437 H1421 0.930 . S
C1437 C1436 1.377 . S
C1437 C1438 1.379 . S
C1438 H1422 0.931 . S
C1438 C1432 1.383 . S
C1438 C1437 1.379 . S
H1439 C1433 0.959 . S
H1440 C1433 0.961 1_556 S
H1441 C1433 0.960 . S
H1442 C1434 0.930 . S
H1443 C1435 0.929 . S
H1444 C1452 0.929 . S
H1445 C1454 0.930 . S
H1446 C1456 0.930 . S
H1447 C1459 0.929 . S
H1448 C1462 0.930 . S
H1449 C1464 0.960 . S
H1450 C1464 0.960 . S
H1451 C1464 0.933 1_556 S
C1452 H1444 0.929 . S
C1452 C1453 1.377 . S
C1452 C1454 1.384 . S
C1453 C1452 1.377 . S
C1453 C1459 1.390 . S
C1454 H1445 0.930 . S
C1454 C1452 1.384 . S
C1454 C1455 1.372 . S
C1455 C1454 1.372 . S
C1455 C1456 1.400 . S
C1455 C1460 1.490 . S
C1456 H1446 0.930 . S
C1456 C1455 1.400 . S
C1456 C1459 1.386 . S
H1457 C1473 0.930 . S
H1458 C1474 0.931 . S
C1459 H1447 0.929 . S
C1459 C1453 1.390 . S
C1459 C1456 1.386 . S
C1460 C1455 1.490 . S
C1460 C1462 1.395 . S
C1460 C1463 1.403 1_556 S
H1461 C1467 0.930 . S
C1462 H1448 0.930 . S
C1462 C1460 1.395 . S
C1462 C1465 1.403 . S
C1463 C1460 1.403 1_554 S
C1463 C1464 1.524 . S
C1463 C1467 1.400 . S
C1464 H1449 0.960 . S
C1464 H1450 0.960 . S
C1464 H1451 0.933 1_554 S
C1464 C1463 1.524 . S
C1465 C1462 1.403 . S
C1465 C1466 1.392 1_556 S
C1465 C1469 1.495 . S
C1466 C1465 1.392 1_554 S
C1466 C1467 1.385 . S
C1466 C1468 1.478 . S
C1467 H1461 0.930 . S
C1467 C1463 1.400 . S
C1467 C1466 1.385 . S
C1468 C1466 1.478 . S
C1468 C1470 1.381 . S
C1468 C1474 1.383 . S
C1469 C1465 1.495 . S
C1469 H1475 0.959 . S
C1469 H1476 0.961 . S
C1469 H1477 0.960 1_556 S
C1470 C1468 1.381 . S
C1470 C1471 1.394 . S
C1470 H1478 0.930 . S
C1471 C1470 1.394 . S
C1471 C1472 1.383 . S
C1471 H1479 0.929 . S
C1472 C1471 1.383 . S
C1472 C1473 1.377 . S
C1473 H1457 0.930 . S
C1473 C1472 1.377 . S
C1473 C1474 1.379 . S
C1474 H1458 0.931 . S
C1474 C1468 1.383 . S
C1474 C1473 1.379 . S
H1475 C1469 0.959 . S
H1476 C1469 0.961 . S
H1477 C1469 0.960 1_554 S
H1478 C1470 0.930 . S
H1479 C1471 0.929 . S
H1480 C1488 0.929 . S
H1481 C1490 0.930 . S
H1482 C1492 0.930 . S
H1483 C1495 0.929 . S
H1484 C1498 0.930 . S
H1485 C1500 0.960 . S
H1486 C1500 0.960 . S
H1487 C1500 0.960 . S
C1488 H1480 0.929 . S
C1488 C1489 1.377 . S
C1488 C1490 1.384 . S
C1489 C1488 1.377 . S
C1489 C1495 1.390 . S
C1490 H1481 0.930 . S
C1490 C1488 1.384 . S
C1490 C1491 1.372 . S
C1491 C1490 1.372 . S
C1491 C1492 1.400 . S
C1491 C1496 1.490 . S
C1492 H1482 0.930 . S
C1492 C1491 1.400 . S
C1492 C1495 1.386 . S
H1493 C1509 0.930 . S
H1494 C1510 0.931 . S
C1495 H1483 0.929 . S
C1495 C1489 1.390 . S
C1495 C1492 1.386 . S
C1496 C1491 1.490 . S
C1496 C1498 1.395 . S
C1496 C1499 1.403 . S
H1497 C1503 0.930 . S
C1498 H1484 0.930 . S
C1498 C1496 1.395 . S
C1498 C1501 1.403 . S
C1499 C1496 1.403 . S
C1499 C1500 1.524 . S
C1499 C1503 1.400 . S
C1500 H1485 0.960 . S
C1500 H1486 0.960 . S
C1500 H1487 0.960 . S
C1500 C1499 1.524 . S
C1501 C1498 1.403 . S
C1501 C1502 1.392 . S
C1501 C1505 1.495 . S
C1502 C1501 1.392 . S
C1502 C1503 1.385 . S
C1502 C1504 1.478 . S
C1503 H1497 0.930 . S
C1503 C1499 1.400 . S
C1503 C1502 1.385 . S
C1504 C1502 1.478 . S
C1504 C1506 1.381 . S
C1504 C1510 1.383 . S
C1505 C1501 1.495 . S
C1505 H1511 0.959 . S
C1505 H1512 0.961 . S
C1505 H1513 0.960 . S
C1506 C1504 1.381 . S
C1506 C1507 1.394 . S
C1506 H1514 0.930 . S
C1507 C1506 1.394 . S
C1507 C1508 1.383 . S
C1507 H1515 0.929 . S
C1508 C1507 1.383 . S
C1508 C1509 1.377 . S
C1509 H1493 0.930 . S
C1509 C1508 1.377 . S
C1509 C1510 1.379 . S
C1510 H1494 0.931 . S
C1510 C1504 1.383 . S
C1510 C1509 1.379 . S
H1511 C1505 0.959 . S
H1512 C1505 0.961 . S
H1513 C1505 0.960 . S
H1514 C1506 0.930 . S
H1515 C1507 0.929 . S
H1516 C1524 0.929 1_655 S
H1517 C1526 0.930 . S
H1518 C1528 0.930 . S
H1519 C1531 0.929 . S
H1520 C1534 0.930 . S
H1521 C1536 0.960 . S
H1522 C1536 0.960 . S
H1523 C1536 0.960 . S
C1524 H1516 0.929 1_455 S
C1524 C1525 1.377 . S
C1524 C1526 1.384 . S
C1525 C1524 1.377 . S
C1525 C1531 1.390 . S
C1526 H1517 0.930 . S
C1526 C1524 1.384 . S
C1526 C1527 1.372 . S
C1527 C1526 1.372 . S
C1527 C1528 1.400 . S
C1527 C1532 1.490 . S
C1528 H1518 0.930 . S
C1528 C1527 1.400 . S
C1528 C1531 1.386 . S
H1529 C1545 0.930 . S
H1530 C1546 0.931 . S
C1531 H1519 0.929 . S
C1531 C1525 1.390 . S
C1531 C1528 1.386 . S
C1532 C1527 1.490 . S
C1532 C1534 1.395 . S
C1532 C1535 1.403 . S
H1533 C1539 0.930 . S
C1534 H1520 0.930 . S
C1534 C1532 1.395 . S
C1534 C1537 1.403 . S
C1535 C1532 1.403 . S
C1535 C1536 1.524 . S
C1535 C1539 1.400 . S
C1536 H1521 0.960 . S
C1536 H1522 0.960 . S
C1536 H1523 0.960 . S
C1536 C1535 1.524 . S
C1537 C1534 1.403 . S
C1537 C1538 1.392 . S
C1537 C1541 1.495 . S
C1538 C1537 1.392 . S
C1538 C1539 1.385 . S
C1538 C1540 1.478 . S
C1539 H1533 0.930 . S
C1539 C1535 1.400 . S
C1539 C1538 1.385 . S
C1540 C1538 1.478 . S
C1540 C1542 1.381 . S
C1540 C1546 1.383 . S
C1541 C1537 1.495 . S
C1541 H1547 0.959 . S
C1541 H1548 0.961 . S
C1541 H1549 0.960 . S
C1542 C1540 1.381 . S
C1542 C1543 1.394 . S
C1542 H1550 0.930 . S
C1543 C1542 1.394 . S
C1543 C1544 1.383 . S
C1543 H1551 0.929 . S
C1544 C1543 1.383 . S
C1544 C1545 1.377 . S
C1545 H1529 0.930 . S
C1545 C1544 1.377 . S
C1545 C1546 1.379 . S
C1546 H1530 0.931 . S
C1546 C1540 1.383 . S
C1546 C1545 1.379 . S
H1547 C1541 0.959 . S
H1548 C1541 0.961 . S
H1549 C1541 0.960 . S
H1550 C1542 0.930 . S
H1551 C1543 0.929 . S
H1552 C1560 0.929 . S
H1553 C1562 0.930 . S
H1554 C1564 0.930 . S
H1555 C1567 0.929 . S
H1556 C1570 0.930 . S
H1557 C1572 0.960 . S
H1558 C1572 0.960 1_554 S
H1559 C1572 0.960 . S
C1560 H1552 0.929 . S
C1560 C1561 1.377 . S
C1560 C1562 1.384 . S
C1561 C1560 1.377 . S
C1561 C1567 1.390 1_455 S
C1562 H1553 0.930 . S
C1562 C1560 1.384 . S
C1562 C1563 1.372 . S
C1563 C1562 1.372 . S
C1563 C1564 1.400 . S
C1563 C1568 1.490 . S
C1564 H1554 0.930 . S
C1564 C1563 1.400 . S
C1564 C1567 1.386 1_455 S
H1565 C1581 0.930 . S
H1566 C1582 0.931 . S
C1567 H1555 0.929 . S
C1567 C1561 1.390 1_655 S
C1567 C1564 1.386 1_655 S
C1568 C1563 1.490 . S
C1568 C1570 1.395 . S
C1568 C1571 1.375 1_554 S
H1569 C1575 0.930 . S
C1570 H1556 0.930 . S
C1570 C1568 1.395 . S
C1570 C1573 1.403 . S
C1571 C1568 1.375 1_556 S
C1571 C1572 1.527 . S
C1571 C1575 1.425 . S
C1572 H1557 0.960 . S
C1572 H1558 0.960 1_556 S
C1572 H1559 0.960 . S
C1572 C1571 1.527 . S
C1573 C1570 1.403 . S
C1573 C1574 1.392 1_554 S
C1573 C1577 1.495 . S
C1574 C1573 1.392 1_556 S
C1574 C1575 1.385 . S
C1574 C1576 1.478 . S
C1575 H1569 0.930 . S
C1575 C1571 1.425 . S
C1575 C1574 1.385 . S
C1576 C1574 1.478 . S
C1576 C1578 1.381 . S
C1576 C1582 1.383 . S
C1577 C1573 1.495 . S
C1577 H1583 0.959 . S
C1577 H1584 0.961 1_554 S
C1577 H1585 0.960 . S
C1578 C1576 1.381 . S
C1578 C1579 1.394 . S
C1578 H1586 0.930 . S
C1579 C1578 1.394 . S
C1579 C1580 1.383 . S
C1579 H1587 0.929 . S
C1580 C1579 1.383 . S
C1580 C1581 1.377 . S
C1581 H1565 0.930 . S
C1581 C1580 1.377 . S
C1581 C1582 1.379 . S
C1582 H1566 0.931 . S
C1582 C1576 1.383 . S
C1582 C1581 1.379 . S
H1583 C1577 0.959 . S
H1584 C1577 0.961 1_556 S
H1585 C1577 0.960 . S
H1586 C1578 0.930 . S
H1587 C1579 0.929 . S
H1588 C1596 0.929 . S
H1589 C1598 0.930 . S
H1590 C1600 0.930 . S
H1591 C1603 0.929 . S
H1592 C1606 0.930 . S
H1593 C1608 0.960 . S
H1594 C1608 0.960 . S
H1595 C1608 0.960 . S
C1596 H1588 0.929 . S
C1596 C1597 1.377 . S
C1596 C1598 1.384 . S
C1597 C1596 1.377 . S
C1597 C1603 1.390 . S
C1598 H1589 0.930 . S
C1598 C1596 1.384 . S
C1598 C1599 1.372 . S
C1599 C1598 1.372 . S
C1599 C1600 1.400 . S
C1599 C1604 1.490 . S
C1600 H1590 0.930 . S
C1600 C1599 1.400 . S
C1600 C1603 1.386 . S
H1601 C1617 0.930 . S
H1602 C1618 0.931 . S
C1603 H1591 0.929 . S
C1603 C1597 1.390 . S
C1603 C1600 1.386 . S
C1604 C1599 1.490 . S
C1604 C1606 1.395 . S
C1604 C1607 1.403 1_556 S
H1605 C1611 0.930 . S
C1606 H1592 0.930 . S
C1606 C1604 1.395 . S
C1606 C1609 1.403 . S
C1607 C1604 1.403 1_554 S
C1607 C1608 1.524 . S
C1607 C1611 1.400 . S
C1608 H1593 0.960 . S
C1608 H1594 0.960 . S
C1608 H1595 0.960 . S
C1608 C1607 1.524 . S
C1609 C1606 1.403 . S
C1609 C1610 1.392 1_556 S
C1609 C1613 1.495 . S
C1610 C1609 1.392 1_554 S
C1610 C1611 1.385 . S
C1610 C1612 1.478 . S
C1611 H1605 0.930 . S
C1611 C1607 1.400 . S
C1611 C1610 1.385 . S
C1612 C1610 1.478 . S
C1612 C1614 1.381 . S
C1612 C1618 1.383 . S
C1613 C1609 1.495 . S
C1613 H1619 0.959 . S
C1613 H1620 0.961 . S
C1613 H1621 0.960 . S
C1614 C1612 1.381 . S
C1614 C1615 1.394 . S
C1614 H1622 0.930 . S
C1615 C1614 1.394 . S
C1615 C1616 1.383 . S
C1615 H1623 0.929 . S
C1616 C1615 1.383 . S
C1616 C1617 1.377 . S
C1617 H1601 0.930 . S
C1617 C1616 1.377 . S
C1617 C1618 1.379 . S
C1618 H1602 0.931 . S
C1618 C1612 1.383 . S
C1618 C1617 1.379 . S
H1619 C1613 0.959 . S
H1620 C1613 0.961 . S
H1621 C1613 0.960 . S
H1622 C1614 0.930 . S
H1623 C1615 0.929 . S
H1624 C1632 0.929 . S
H1625 C1634 0.930 . S
H1626 C1636 0.930 . S
H1627 C1639 0.929 . S
H1628 C1642 0.930 . S
H1629 C1644 0.960 . S
H1630 C1644 0.960 . S
H1631 C1644 0.960 . S
C1632 H1624 0.929 . S
C1632 C1633 1.377 . S
C1632 C1634 1.384 . S
C1633 C1632 1.377 . S
C1633 C1639 1.390 . S
C1634 H1625 0.930 . S
C1634 C1632 1.384 . S
C1634 C1635 1.372 . S
C1635 C1634 1.372 . S
C1635 C1636 1.400 . S
C1635 C1640 1.490 . S
C1636 H1626 0.930 . S
C1636 C1635 1.400 . S
C1636 C1639 1.386 . S
H1637 C1653 0.930 . S
H1638 C1654 0.931 . S
C1639 H1627 0.929 . S
C1639 C1633 1.390 . S
C1639 C1636 1.386 . S
C1640 C1635 1.490 . S
C1640 C1642 1.395 . S
C1640 C1643 1.403 . S
H1641 C1647 0.930 . S
C1642 H1628 0.930 . S
C1642 C1640 1.395 . S
C1642 C1645 1.403 . S
C1643 C1640 1.403 . S
C1643 C1644 1.524 . S
C1643 C1647 1.400 . S
C1644 H1629 0.960 . S
C1644 H1630 0.960 . S
C1644 H1631 0.960 . S
C1644 C1643 1.524 . S
C1645 C1642 1.403 . S
C1645 C1646 1.392 . S
C1645 C1649 1.495 . S
C1646 C1645 1.392 . S
C1646 C1647 1.385 . S
C1646 C1648 1.478 . S
C1647 H1641 0.930 . S
C1647 C1643 1.400 . S
C1647 C1646 1.385 . S
C1648 C1646 1.478 . S
C1648 C1650 1.381 . S
C1648 C1654 1.383 . S
C1649 C1645 1.495 . S
C1649 H1655 0.959 . S
C1649 H1656 0.961 . S
C1649 H1657 0.960 . S
C1650 C1648 1.381 . S
C1650 C1651 1.394 . S
C1650 H1658 0.930 . S
C1651 C1650 1.394 . S
C1651 C1652 1.383 . S
C1651 H1659 0.929 . S
C1652 C1651 1.383 . S
C1652 C1653 1.377 . S
C1653 H1637 0.930 . S
C1653 C1652 1.377 . S
C1653 C1654 1.379 . S
C1654 H1638 0.931 . S
C1654 C1648 1.383 . S
C1654 C1653 1.379 . S
H1655 C1649 0.959 . S
H1656 C1649 0.961 . S
H1657 C1649 0.960 . S
H1658 C1650 0.930 . S
H1659 C1651 0.929 . S
H1660 C1668 0.929 . S
H1661 C1670 0.930 . S
H1662 C1672 0.930 . S
H1663 C1675 0.929 . S
H1664 C1678 0.930 . S
H1665 C1680 0.960 . S
H1666 C1680 0.960 . S
H1667 C1680 0.960 . S
C1668 H1660 0.929 . S
C1668 C1669 1.377 . S
C1668 C1670 1.384 . S
C1669 C1668 1.377 . S
C1669 C1675 1.390 . S
C1670 H1661 0.930 . S
C1670 C1668 1.384 . S
C1670 C1671 1.372 . S
C1671 C1670 1.372 . S
C1671 C1672 1.400 . S
C1671 C1676 1.490 . S
C1672 H1662 0.930 . S
C1672 C1671 1.400 . S
C1672 C1675 1.386 . S
H1673 C1689 0.930 . S
H1674 C1690 0.931 . S
C1675 H1663 0.929 . S
C1675 C1669 1.390 . S
C1675 C1672 1.386 . S
C1676 C1671 1.490 . S
C1676 C1678 1.395 . S
C1676 C1679 1.403 . S
H1677 C1683 0.930 . S
C1678 H1664 0.930 . S
C1678 C1676 1.395 . S
C1678 C1681 1.403 . S
C1679 C1676 1.403 . S
C1679 C1680 1.524 . S
C1679 C1683 1.400 . S
C1680 H1665 0.960 . S
C1680 H1666 0.960 . S
C1680 H1667 0.960 . S
C1680 C1679 1.524 . S
C1681 C1678 1.403 . S
C1681 C1682 1.392 . S
C1681 C1685 1.495 . S
C1682 C1681 1.392 . S
C1682 C1683 1.385 . S
C1682 C1684 1.478 . S
C1683 H1677 0.930 . S
C1683 C1679 1.400 . S
C1683 C1682 1.385 . S
C1684 C1682 1.478 . S
C1684 C1686 1.381 . S
C1684 C1690 1.383 . S
C1685 C1681 1.495 . S
C1685 H1691 0.959 . S
C1685 H1692 0.961 . S
C1685 H1693 0.960 . S
C1686 C1684 1.381 . S
C1686 C1687 1.394 1_655 S
C1686 H1694 0.930 . S
C1687 C1686 1.394 1_455 S
C1687 C1688 1.383 1_455 S
C1687 H1695 0.929 . S
C1688 C1687 1.383 1_655 S
C1688 C1689 1.377 . S
C1689 H1673 0.930 . S
C1689 C1688 1.377 . S
C1689 C1690 1.379 . S
C1690 H1674 0.931 . S
C1690 C1684 1.383 . S
C1690 C1689 1.379 . S
H1691 C1685 0.959 . S
H1692 C1685 0.961 . S
H1693 C1685 0.960 . S
H1694 C1686 0.930 . S
H1695 C1687 0.929 . S
H1696 C1704 0.929 . S
H1697 C1706 0.930 . S
H1698 C1708 0.930 . S
H1699 C1711 0.929 . S
H1700 C1714 0.930 . S
H1701 C1716 0.960 1_565 S
H1702 C1716 0.960 . S
H1703 C1716 0.960 . S
C1704 H1696 0.929 . S
C1704 C1705 1.377 . S
C1704 C1706 1.384 . S
C1705 C1704 1.377 . S
C1705 C1711 1.390 . S
C1706 H1697 0.930 . S
C1706 C1704 1.384 . S
C1706 C1707 1.372 . S
C1707 C1706 1.372 . S
C1707 C1708 1.400 . S
C1707 C1712 1.490 . S
C1708 H1698 0.930 . S
C1708 C1707 1.400 . S
C1708 C1711 1.386 . S
H1709 C1725 0.930 . S
H1710 C1726 0.931 . S
C1711 H1699 0.929 . S
C1711 C1705 1.390 . S
C1711 C1708 1.386 . S
C1712 C1707 1.490 . S
C1712 C1714 1.395 . S
C1712 C1715 1.403 . S
H1713 C1719 0.930 . S
C1714 H1700 0.930 . S
C1714 C1712 1.395 . S
C1714 C1717 1.403 1_545 S
C1715 C1712 1.403 . S
C1715 C1716 1.524 . S
C1715 C1719 1.400 1_545 S
C1716 H1701 0.960 1_545 S
C1716 H1702 0.960 . S
C1716 H1703 0.960 . S
C1716 C1715 1.524 . S
C1717 C1714 1.403 1_565 S
C1717 C1718 1.392 . S
C1717 C1721 1.495 . S
C1718 C1717 1.392 . S
C1718 C1719 1.385 . S
C1718 C1720 1.478 . S
C1719 H1713 0.930 . S
C1719 C1715 1.400 1_565 S
C1719 C1718 1.385 . S
C1720 C1718 1.478 . S
C1720 C1722 1.381 . S
C1720 C1726 1.383 . S
C1721 C1717 1.495 . S
C1721 H1727 0.959 1_565 S
C1721 H1728 0.961 . S
C1721 H1729 0.960 . S
C1722 C1720 1.381 . S
C1722 C1723 1.394 . S
C1722 H1730 0.930 . S
C1723 C1722 1.394 . S
C1723 C1724 1.383 . S
C1723 H1731 0.929 . S
C1724 C1723 1.383 . S
C1724 C1725 1.377 . S
C1725 H1709 0.930 . S
C1725 C1724 1.377 . S
C1725 C1726 1.379 . S
C1726 H1710 0.931 . S
C1726 C1720 1.383 . S
C1726 C1725 1.379 . S
H1727 C1721 0.959 1_545 S
H1728 C1721 0.961 . S
H1729 C1721 0.960 . S
H1730 C1722 0.930 . S
H1731 C1723 0.929 . S
H1732 C1740 0.929 . S
H1733 C1742 0.930 . S
H1734 C1744 0.930 . S
H1735 C1747 0.929 . S
H1736 C1750 0.930 . S
H1737 C1752 0.960 . S
H1738 C1752 0.960 . S
H1739 C1752 0.960 . S
C1740 H1732 0.929 . S
C1740 C1741 1.377 . S
C1740 C1742 1.384 . S
C1741 C1740 1.377 . S
C1741 C1747 1.390 . S
C1742 H1733 0.930 . S
C1742 C1740 1.384 . S
C1742 C1743 1.372 . S
C1743 C1742 1.372 . S
C1743 C1744 1.400 . S
C1743 C1748 1.490 . S
C1744 H1734 0.930 . S
C1744 C1743 1.400 . S
C1744 C1747 1.386 . S
H1745 C1761 0.930 . S
H1746 C1762 0.931 . S
C1747 H1735 0.929 . S
C1747 C1741 1.390 . S
C1747 C1744 1.386 . S
C1748 C1743 1.490 . S
C1748 C1750 1.395 . S
C1748 C1751 1.403 . S
H1749 C1755 0.930 . S
C1750 H1736 0.930 . S
C1750 C1748 1.395 . S
C1750 C1753 1.403 1_545 S
C1751 C1748 1.403 . S
C1751 C1752 1.524 . S
C1751 C1755 1.400 1_545 S
C1752 H1737 0.960 . S
C1752 H1738 0.960 . S
C1752 H1739 0.960 . S
C1752 C1751 1.524 . S
C1753 C1750 1.403 1_565 S
C1753 C1754 1.392 . S
C1753 C1757 1.495 . S
C1754 C1753 1.392 . S
C1754 C1755 1.385 . S
C1754 C1756 1.478 . S
C1755 H1749 0.930 . S
C1755 C1751 1.400 1_565 S
C1755 C1754 1.385 . S
C1756 C1754 1.478 . S
C1756 C1758 1.381 . S
C1756 C1762 1.383 . S
C1757 C1753 1.495 . S
C1757 H1763 0.959 . S
C1757 H1764 0.961 . S
C1757 H1765 0.960 . S
C1758 C1756 1.381 . S
C1758 C1759 1.394 . S
C1758 H1766 0.930 . S
C1759 C1758 1.394 . S
C1759 C1760 1.383 . S
C1759 H1767 0.929 . S
C1760 C1759 1.383 . S
C1760 C1761 1.377 . S
C1761 H1745 0.930 . S
C1761 C1760 1.377 . S
C1761 C1762 1.379 . S
C1762 H1746 0.931 . S
C1762 C1756 1.383 . S
C1762 C1761 1.379 . S
H1763 C1757 0.959 . S
H1764 C1757 0.961 . S
H1765 C1757 0.960 . S
H1766 C1758 0.930 . S
H1767 C1759 0.929 . S
H1768 C1776 0.929 . S
H1769 C1778 0.930 . S
H1770 C1780 0.930 . S
H1771 C1783 0.929 . S
H1772 C1786 0.930 . S
H1773 C1788 0.960 1_545 S
H1774 C1788 0.960 . S
H1775 C1788 0.960 . S
C1776 H1768 0.929 . S
C1776 C1777 1.377 . S
C1776 C1778 1.384 . S
C1777 C1776 1.377 . S
C1777 C1783 1.390 . S
C1778 H1769 0.930 . S
C1778 C1776 1.384 . S
C1778 C1779 1.372 . S
C1779 C1778 1.372 . S
C1779 C1780 1.400 . S
C1779 C1784 1.490 . S
C1780 H1770 0.930 . S
C1780 C1779 1.400 . S
C1780 C1783 1.386 . S
H1781 C1797 0.930 . S
H1782 C1798 0.931 . S
C1783 H1771 0.929 . S
C1783 C1777 1.390 . S
C1783 C1780 1.386 . S
C1784 C1779 1.490 . S
C1784 C1786 1.395 . S
C1784 C1787 1.403 . S
H1785 C1791 0.930 . S
C1786 H1772 0.930 . S
C1786 C1784 1.395 . S
C1786 C1789 1.403 1_565 S
C1787 C1784 1.403 . S
C1787 C1788 1.524 . S
C1787 C1791 1.400 1_565 S
C1788 H1773 0.960 1_565 S
C1788 H1774 0.960 . S
C1788 H1775 0.960 . S
C1788 C1787 1.524 . S
C1789 C1786 1.403 1_545 S
C1789 C1790 1.392 . S
C1789 C1793 1.495 . S
C1790 C1789 1.392 . S
C1790 C1791 1.385 . S
C1790 C1792 1.478 . S
C1791 H1785 0.930 . S
C1791 C1787 1.400 1_545 S
C1791 C1790 1.385 . S
C1792 C1790 1.478 . S
C1792 C1794 1.381 . S
C1792 C1798 1.383 . S
C1793 C1789 1.495 . S
C1793 H1799 0.959 1_545 S
C1793 H1800 0.961 . S
C1793 H1801 0.960 . S
C1794 C1792 1.381 . S
C1794 C1795 1.394 . S
C1794 H1802 0.930 . S
C1795 C1794 1.394 . S
C1795 C1796 1.383 . S
C1795 H1803 0.929 . S
C1796 C1795 1.383 . S
C1796 C1797 1.377 . S
C1797 H1781 0.930 . S
C1797 C1796 1.377 . S
C1797 C1798 1.379 . S
C1798 H1782 0.931 . S
C1798 C1792 1.383 . S
C1798 C1797 1.379 . S
H1799 C1793 0.959 1_565 S
H1800 C1793 0.961 . S
H1801 C1793 0.960 . S
H1802 C1794 0.930 . S
H1803 C1795 0.929 . S
H1804 C1812 0.929 . S
H1805 C1814 0.930 . S
H1806 C1816 0.930 . S
H1807 C1819 0.929 . S
H1808 C1822 0.930 . S
H1809 C1824 0.982 . S
H1810 C1824 0.960 . S
H1811 C1824 0.960 . S
C1812 H1804 0.929 . S
C1812 C1813 1.377 . S
C1812 C1814 1.384 . S
C1813 C1812 1.377 . S
C1813 C1819 1.390 . S
C1814 H1805 0.930 . S
C1814 C1812 1.384 . S
C1814 C1815 1.372 . S
C1815 C1814 1.372 . S
C1815 C1816 1.400 . S
C1815 C1820 1.490 . S
C1816 H1806 0.930 . S
C1816 C1815 1.400 . S
C1816 C1819 1.386 . S
H1817 C1833 0.930 . S
H1818 C1834 0.931 . S
C1819 H1807 0.929 . S
C1819 C1813 1.390 . S
C1819 C1816 1.386 . S
C1820 C1815 1.490 . S
C1820 C1822 1.395 . S
C1820 C1823 1.403 . S
H1821 C1827 0.930 . S
C1822 H1808 0.930 . S
C1822 C1820 1.395 . S
C1822 C1825 1.403 1_565 S
C1823 C1820 1.403 . S
C1823 C1824 1.524 . S
C1823 C1827 1.400 1_565 S
C1824 H1809 0.982 . S
C1824 H1810 0.960 . S
C1824 H1811 0.960 . S
C1824 C1823 1.524 . S
C1825 C1822 1.403 1_545 S
C1825 C1826 1.392 . S
C1825 C1829 1.495 . S
C1826 C1825 1.392 . S
C1826 C1827 1.385 . S
C1826 C1828 1.478 . S
C1827 H1821 0.930 . S
C1827 C1823 1.400 1_545 S
C1827 C1826 1.385 . S
C1828 C1826 1.478 . S
C1828 C1830 1.381 . S
C1828 C1834 1.383 . S
C1829 C1825 1.495 . S
C1829 H1835 1.020 . S
C1829 H1836 0.961 . S
C1829 H1837 0.960 . S
C1830 C1828 1.381 . S
C1830 C1831 1.394 . S
C1830 H1838 0.930 . S
C1831 C1830 1.394 . S
C1831 C1832 1.383 . S
C1831 H1839 0.929 . S
C1832 C1831 1.383 . S
C1832 C1833 1.377 . S
C1833 H1817 0.930 . S
C1833 C1832 1.377 . S
C1833 C1834 1.379 . S
C1834 H1818 0.931 . S
C1834 C1828 1.383 . S
C1834 C1833 1.379 . S
H1835 C1829 1.020 . S
H1836 C1829 0.961 . S
H1837 C1829 0.960 . S
H1838 C1830 0.930 . S
H1839 C1831 0.929 . S
H1840 C1848 0.929 . S
H1841 C1850 0.930 . S
H1842 C1852 0.930 . S
H1843 C1855 0.929 . S
H1844 C1858 0.930 . S
H1845 C1860 0.960 . S
H1846 C1860 0.960 . S
H1847 C1860 0.960 . S
C1848 H1840 0.929 . S
C1848 C1849 1.377 . S
C1848 C1850 1.384 . S
C1849 C1848 1.377 . S
C1849 C1855 1.390 . S
C1850 H1841 0.930 . S
C1850 C1848 1.384 . S
C1850 C1851 1.372 . S
C1851 C1850 1.372 . S
C1851 C1852 1.400 . S
C1851 C1856 1.490 . S
C1852 H1842 0.930 . S
C1852 C1851 1.400 . S
C1852 C1855 1.386 . S
H1853 C1869 0.930 . S
H1854 C1870 0.931 . S
C1855 H1843 0.929 . S
C1855 C1849 1.390 . S
C1855 C1852 1.386 . S
C1856 C1851 1.490 . S
C1856 C1858 1.395 . S
C1856 C1859 1.403 . S
H1857 C1863 0.930 . S
C1858 H1844 0.930 . S
C1858 C1856 1.395 . S
C1858 C1861 1.403 . S
C1859 C1856 1.403 . S
C1859 C1860 1.524 . S
C1859 C1863 1.400 . S
C1860 H1845 0.960 . S
C1860 H1846 0.960 . S
C1860 H1847 0.960 . S
C1860 C1859 1.524 . S
C1861 C1858 1.403 . S
C1861 C1862 1.392 . S
C1861 C1865 1.495 . S
C1862 C1861 1.392 . S
C1862 C1863 1.385 . S
C1862 C1864 1.478 . S
C1863 H1857 0.930 . S
C1863 C1859 1.400 . S
C1863 C1862 1.385 . S
C1864 C1862 1.478 . S
C1864 C1866 1.381 . S
C1864 C1870 1.383 . S
C1865 C1861 1.495 . S
C1865 H1871 0.959 . S
C1865 H1872 0.961 . S
C1865 H1873 0.960 . S
C1866 C1864 1.381 . S
C1866 C1867 1.394 . S
C1866 H1874 0.930 . S
C1867 C1866 1.394 . S
C1867 C1868 1.383 . S
C1867 H1875 0.929 . S
C1868 C1867 1.383 . S
C1868 C1869 1.377 . S
C1869 H1853 0.930 . S
C1869 C1868 1.377 . S
C1869 C1870 1.379 . S
C1870 H1854 0.931 . S
C1870 C1864 1.383 . S
C1870 C1869 1.379 . S
H1871 C1865 0.959 . S
H1872 C1865 0.961 . S
H1873 C1865 0.960 . S
H1874 C1866 0.930 . S
H1875 C1867 0.929 . S
H1876 C1884 0.929 . S
H1877 C1886 0.930 . S
H1878 C1888 0.930 . S
H1879 C1891 0.929 . S
H1880 C1894 0.930 . S
H1881 C1896 0.960 . S
H1882 C1896 0.960 . S
H1883 C1896 0.960 . S
C1884 H1876 0.929 . S
C1884 C1885 1.377 . S
C1884 C1886 1.384 . S
C1885 C1884 1.377 . S
C1885 C1891 1.390 . S
C1886 H1877 0.930 . S
C1886 C1884 1.384 . S
C1886 C1887 1.372 . S
C1887 C1886 1.372 . S
C1887 C1888 1.400 . S
C1887 C1892 1.490 . S
C1888 H1878 0.930 . S
C1888 C1887 1.400 . S
C1888 C1891 1.386 . S
H1889 C1905 0.930 . S
H1890 C1906 0.931 . S
C1891 H1879 0.929 . S
C1891 C1885 1.390 . S
C1891 C1888 1.386 . S
C1892 C1887 1.490 . S
C1892 C1894 1.395 . S
C1892 C1895 1.403 . S
H1893 C1899 0.930 . S
C1894 H1880 0.930 . S
C1894 C1892 1.395 . S
C1894 C1897 1.403 . S
C1895 C1892 1.403 . S
C1895 C1896 1.524 . S
C1895 C1899 1.400 . S
C1896 H1881 0.960 . S
C1896 H1882 0.960 . S
C1896 H1883 0.960 . S
C1896 C1895 1.524 . S
C1897 C1894 1.403 . S
C1897 C1898 1.392 . S
C1897 C1901 1.495 . S
C1898 C1897 1.392 . S
C1898 C1899 1.385 . S
C1898 C1900 1.478 . S
C1899 H1893 0.930 . S
C1899 C1895 1.400 . S
C1899 C1898 1.385 . S
C1900 C1898 1.478 . S
C1900 C1902 1.381 . S
C1900 C1906 1.383 . S
C1901 C1897 1.495 . S
C1901 H1907 0.959 . S
C1901 H1908 0.961 . S
C1901 H1909 0.960 . S
C1902 C1900 1.381 . S
C1902 C1903 1.394 . S
C1902 H1910 0.930 . S
C1903 C1902 1.394 . S
C1903 C1904 1.383 . S
C1903 H1911 0.929 . S
C1904 C1903 1.383 . S
C1904 C1905 1.377 . S
C1905 H1889 0.930 . S
C1905 C1904 1.377 . S
C1905 C1906 1.379 . S
C1906 H1890 0.931 . S
C1906 C1900 1.383 . S
C1906 C1905 1.379 . S
H1907 C1901 0.959 . S
H1908 C1901 0.961 . S
H1909 C1901 0.960 . S
H1910 C1902 0.930 . S
H1911 C1903 0.929 . S
H1912 C1920 0.929 . S
H1913 C1922 0.930 . S
H1914 C1924 0.930 . S
H1915 C1927 0.929 . S
H1916 C1930 0.930 . S
H1917 C1932 0.960 . S
H1918 C1932 0.960 . S
H1919 C1932 0.960 . S
C1920 H1912 0.929 . S
C1920 C1921 1.377 . S
C1920 C1922 1.384 . S
C1921 C1920 1.377 . S
C1921 C1927 1.390 . S
C1922 H1913 0.930 . S
C1922 C1920 1.384 . S
C1922 C1923 1.372 . S
C1923 C1922 1.372 . S
C1923 C1924 1.400 . S
C1923 C1928 1.490 . S
C1924 H1914 0.930 . S
C1924 C1923 1.400 . S
C1924 C1927 1.386 . S
H1925 C1941 0.930 . S
H1926 C1942 0.931 . S
C1927 H1915 0.929 . S
C1927 C1921 1.390 . S
C1927 C1924 1.386 . S
C1928 C1923 1.490 . S
C1928 C1930 1.395 . S
C1928 C1931 1.403 . S
H1929 C1935 0.930 . S
C1930 H1916 0.930 . S
C1930 C1928 1.395 . S
C1930 C1933 1.403 . S
C1931 C1928 1.403 . S
C1931 C1932 1.524 . S
C1931 C1935 1.400 . S
C1932 H1917 0.960 . S
C1932 H1918 0.960 . S
C1932 H1919 0.960 . S
C1932 C1931 1.524 . S
C1933 C1930 1.403 . S
C1933 C1934 1.392 . S
C1933 C1937 1.495 . S
C1934 C1933 1.392 . S
C1934 C1935 1.385 . S
C1934 C1936 1.478 . S
C1935 H1929 0.930 . S
C1935 C1931 1.400 . S
C1935 C1934 1.385 . S
C1936 C1934 1.478 . S
C1936 C1938 1.381 . S
C1936 C1942 1.383 . S
C1937 C1933 1.495 . S
C1937 H1943 0.959 . S
C1937 H1944 0.961 . S
C1937 H1945 0.960 . S
C1938 C1936 1.381 . S
C1938 C1939 1.394 . S
C1938 H1946 0.930 . S
C1939 C1938 1.394 . S
C1939 C1940 1.383 . S
C1939 H1947 0.929 . S
C1940 C1939 1.383 . S
C1940 C1941 1.377 . S
C1941 H1925 0.930 . S
C1941 C1940 1.377 . S
C1941 C1942 1.379 . S
C1942 H1926 0.931 . S
C1942 C1936 1.383 . S
C1942 C1941 1.379 . S
H1943 C1937 0.959 . S
H1944 C1937 0.961 . S
H1945 C1937 0.960 . S
H1946 C1938 0.930 . S
H1947 C1939 0.929 . S
H1948 C1956 0.929 . S
H1949 C1958 0.930 . S
H1950 C1960 0.930 . S
H1951 C1963 0.929 . S
H1952 C1966 0.930 . S
H1953 C1968 0.960 . S
H1954 C1968 0.960 . S
H1955 C1968 0.960 . S
C1956 H1948 0.929 . S
C1956 C1957 1.377 . S
C1956 C1958 1.384 . S
C1957 C1956 1.377 . S
C1957 C1963 1.390 . S
C1958 H1949 0.930 . S
C1958 C1956 1.384 . S
C1958 C1959 1.372 . S
C1959 C1958 1.372 . S
C1959 C1960 1.400 . S
C1959 C1964 1.490 . S
C1960 H1950 0.930 . S
C1960 C1959 1.400 . S
C1960 C1963 1.386 . S
H1961 C1977 0.930 . S
H1962 C1978 0.931 . S
C1963 H1951 0.929 . S
C1963 C1957 1.390 . S
C1963 C1960 1.386 . S
C1964 C1959 1.490 . S
C1964 C1966 1.395 . S
C1964 C1967 1.403 . S
H1965 C1971 0.930 . S
C1966 H1952 0.930 . S
C1966 C1964 1.395 . S
C1966 C1969 1.403 . S
C1967 C1964 1.403 . S
C1967 C1968 1.524 . S
C1967 C1971 1.400 . S
C1968 H1953 0.960 . S
C1968 H1954 0.960 . S
C1968 H1955 0.960 . S
C1968 C1967 1.524 . S
C1969 C1966 1.403 . S
C1969 C1970 1.392 . S
C1969 C1973 1.495 . S
C1970 C1969 1.392 . S
C1970 C1971 1.385 . S
C1970 C1972 1.478 . S
C1971 H1965 0.930 . S
C1971 C1967 1.400 . S
C1971 C1970 1.385 . S
C1972 C1970 1.478 . S
C1972 C1974 1.381 . S
C1972 C1978 1.383 . S
C1973 C1969 1.495 . S
C1973 H1979 0.959 . S
C1973 H1980 0.961 . S
C1973 H1981 0.960 . S
C1974 C1972 1.381 . S
C1974 C1975 1.394 . S
C1974 H1982 0.930 . S
C1975 C1974 1.394 . S
C1975 C1976 1.383 . S
C1975 H1983 0.929 . S
C1976 C1975 1.383 . S
C1976 C1977 1.377 . S
C1977 H1961 0.930 . S
C1977 C1976 1.377 . S
C1977 C1978 1.379 . S
C1978 H1962 0.931 . S
C1978 C1972 1.383 . S
C1978 C1977 1.379 . S
H1979 C1973 0.959 . S
H1980 C1973 0.961 . S
H1981 C1973 0.960 . S
H1982 C1974 0.930 . S
H1983 C1975 0.929 . S
H1984 C1992 0.929 . S
H1985 C1994 0.930 . S
H1986 C1996 0.930 . S
H1987 C1999 0.929 . S
H1988 C2002 0.930 . S
H1989 C2004 0.960 . S
H1990 C2004 0.960 . S
H1991 C2004 0.960 . S
C1992 H1984 0.929 . S
C1992 C1993 1.377 1_455 S
C1992 C1994 1.384 . S
C1993 C1992 1.377 1_655 S
C1993 C1999 1.390 . S
C1994 H1985 0.930 . S
C1994 C1992 1.384 . S
C1994 C1995 1.372 1_455 S
C1995 C1994 1.372 1_655 S
C1995 C1996 1.400 . S
C1995 C2000 1.490 . S
C1996 H1986 0.930 . S
C1996 C1995 1.400 . S
C1996 C1999 1.386 . S
H1997 C2013 0.930 . S
H1998 C2014 0.931 . S
C1999 H1987 0.929 . S
C1999 C1993 1.390 . S
C1999 C1996 1.386 . S
C2000 C1995 1.490 . S
C2000 C2002 1.395 1_655 S
C2000 C2003 1.402 . S
H2001 C2007 0.930 . S
C2002 H1988 0.930 . S
C2002 C2000 1.395 1_455 S
C2002 C2005 1.403 . S
C2003 C2000 1.402 . S
C2003 C2004 1.524 . S
C2003 C2007 1.400 . S
C2004 H1989 0.960 . S
C2004 H1990 0.960 . S
C2004 H1991 0.960 . S
C2004 C2003 1.524 . S
C2005 C2002 1.403 . S
C2005 C2006 1.392 . S
C2005 C2009 1.495 . S
C2006 C2005 1.392 . S
C2006 C2007 1.385 1_455 S
C2006 C2008 1.478 . S
C2007 H2001 0.930 . S
C2007 C2003 1.400 . S
C2007 C2006 1.385 1_655 S
C2008 C2006 1.478 . S
C2008 C2010 1.381 . S
C2008 C2014 1.383 1_455 S
C2009 C2005 1.495 . S
C2009 H2015 0.959 . S
C2009 H2016 0.961 . S
C2009 H2017 0.960 . S
C2010 C2008 1.381 . S
C2010 C2011 1.394 . S
C2010 H2018 0.930 . S
C2011 C2010 1.394 . S
C2011 C2012 1.383 . S
C2011 H2019 0.929 . S
C2012 C2011 1.383 . S
C2012 C2013 1.377 1_455 S
C2013 H1997 0.930 . S
C2013 C2012 1.377 1_655 S
C2013 C2014 1.379 . S
C2014 H1998 0.931 . S
C2014 C2008 1.383 1_655 S
C2014 C2013 1.379 . S
H2015 C2009 0.959 . S
H2016 C2009 0.961 . S
H2017 C2009 0.960 . S
H2018 C2010 0.930 . S
H2019 C2011 0.929 . S
H2020 C2028 0.929 . S
H2021 C2030 0.930 . S
H2022 C2032 0.930 . S
H2023 C2035 0.929 . S
H2024 C2038 0.930 . S
H2025 C2040 0.960 . S
H2026 C2040 0.960 . S
H2027 C2040 0.960 . S
C2028 H2020 0.929 . S
C2028 C2029 1.377 . S
C2028 C2030 1.384 . S
C2029 C2028 1.377 . S
C2029 C2035 1.390 . S
C2030 H2021 0.930 . S
C2030 C2028 1.384 . S
C2030 C2031 1.372 . S
C2031 C2030 1.372 . S
C2031 C2032 1.400 . S
C2031 C2036 1.490 . S
C2032 H2022 0.930 . S
C2032 C2031 1.400 . S
C2032 C2035 1.386 . S
H2033 C2049 0.930 . S
H2034 C2050 0.931 . S
C2035 H2023 0.929 . S
C2035 C2029 1.390 . S
C2035 C2032 1.386 . S
C2036 C2031 1.490 . S
C2036 C2038 1.395 . S
C2036 C2039 1.403 . S
H2037 C2043 0.930 . S
C2038 H2024 0.930 . S
C2038 C2036 1.395 . S
C2038 C2041 1.403 . S
C2039 C2036 1.403 . S
C2039 C2040 1.524 . S
C2039 C2043 1.400 . S
C2040 H2025 0.960 . S
C2040 H2026 0.960 . S
C2040 H2027 0.960 . S
C2040 C2039 1.524 . S
C2041 C2038 1.403 . S
C2041 C2042 1.392 . S
C2041 C2045 1.495 . S
C2042 C2041 1.392 . S
C2042 C2043 1.385 . S
C2042 C2044 1.478 . S
C2043 H2037 0.930 . S
C2043 C2039 1.400 . S
C2043 C2042 1.385 . S
C2044 C2042 1.478 . S
C2044 C2046 1.381 . S
C2044 C2050 1.383 . S
C2045 C2041 1.495 . S
C2045 H2051 0.959 . S
C2045 H2052 0.961 . S
C2045 H2053 0.960 . S
C2046 C2044 1.381 . S
C2046 C2047 1.394 . S
C2046 H2054 0.930 . S
C2047 C2046 1.394 . S
C2047 C2048 1.383 . S
C2047 H2055 0.929 . S
C2048 C2047 1.383 . S
C2048 C2049 1.377 . S
C2049 H2033 0.930 . S
C2049 C2048 1.377 . S
C2049 C2050 1.379 . S
C2050 H2034 0.931 . S
C2050 C2044 1.383 . S
C2050 C2049 1.379 . S
H2051 C2045 0.959 . S
H2052 C2045 0.961 . S
H2053 C2045 0.960 . S
H2054 C2046 0.930 . S
H2055 C2047 0.929 . S
H2056 C2064 0.929 . S
H2057 C2066 0.930 . S
H2058 C2068 0.930 . S
H2059 C2071 0.929 . S
H2060 C2074 0.930 . S
H2061 C2076 0.960 . S
H2062 C2076 0.960 . S
H2063 C2076 0.960 . S
C2064 H2056 0.929 . S
C2064 C2065 1.377 . S
C2064 C2066 1.384 . S
C2065 C2064 1.377 . S
C2065 C2071 1.390 . S
C2066 H2057 0.930 . S
C2066 C2064 1.384 . S
C2066 C2067 1.372 . S
C2067 C2066 1.372 . S
C2067 C2068 1.400 . S
C2067 C2072 1.490 . S
C2068 H2058 0.930 . S
C2068 C2067 1.400 . S
C2068 C2071 1.386 . S
H2069 C2085 0.930 . S
H2070 C2086 0.931 . S
C2071 H2059 0.929 . S
C2071 C2065 1.390 . S
C2071 C2068 1.386 . S
C2072 C2067 1.490 . S
C2072 C2074 1.395 . S
C2072 C2075 1.403 . S
H2073 C2079 0.930 . S
C2074 H2060 0.930 . S
C2074 C2072 1.395 . S
C2074 C2077 1.403 . S
C2075 C2072 1.403 . S
C2075 C2076 1.524 . S
C2075 C2079 1.400 . S
C2076 H2061 0.960 . S
C2076 H2062 0.960 . S
C2076 H2063 0.960 . S
C2076 C2075 1.524 . S
C2077 C2074 1.403 . S
C2077 C2078 1.392 . S
C2077 C2081 1.495 . S
C2078 C2077 1.392 . S
C2078 C2079 1.385 . S
C2078 C2080 1.478 . S
C2079 H2073 0.930 . S
C2079 C2075 1.400 . S
C2079 C2078 1.385 . S
C2080 C2078 1.478 . S
C2080 C2082 1.381 . S
C2080 C2086 1.383 . S
C2081 C2077 1.495 . S
C2081 H2087 0.959 . S
C2081 H2088 0.961 . S
C2081 H2089 0.960 . S
C2082 C2080 1.381 . S
C2082 C2083 1.394 . S
C2082 H2090 0.930 . S
C2083 C2082 1.394 . S
C2083 C2084 1.383 . S
C2083 H2091 0.929 . S
C2084 C2083 1.383 . S
C2084 C2085 1.377 . S
C2085 H2069 0.930 . S
C2085 C2084 1.377 . S
C2085 C2086 1.379 . S
C2086 H2070 0.931 . S
C2086 C2080 1.383 . S
C2086 C2085 1.379 . S
H2087 C2081 0.959 . S
H2088 C2081 0.961 . S
H2089 C2081 0.960 . S
H2090 C2082 0.930 . S
H2091 C2083 0.929 . S
H2092 C2100 0.929 . S
H2093 C2102 0.930 . S
H2094 C2104 0.930 . S
H2095 C2107 0.929 . S
H2096 C2110 0.930 . S
H2097 C2112 0.960 . S
H2098 C2112 0.960 . S
H2099 C2112 0.960 . S
C2100 H2092 0.929 . S
C2100 C2101 1.377 1_455 S
C2100 C2102 1.384 . S
C2101 C2100 1.377 1_655 S
C2101 C2107 1.390 . S
C2102 H2093 0.930 . S
C2102 C2100 1.384 . S
C2102 C2103 1.372 1_455 S
C2103 C2102 1.372 1_655 S
C2103 C2104 1.400 . S
C2103 C2108 1.490 . S
C2104 H2094 0.930 . S
C2104 C2103 1.400 . S
C2104 C2107 1.386 . S
H2105 C2121 0.930 1_655 S
H2106 C2122 0.931 1_655 S
C2107 H2095 0.929 . S
C2107 C2101 1.390 . S
C2107 C2104 1.386 . S
C2108 C2103 1.490 . S
C2108 C2110 1.395 1_655 S
C2108 C2111 1.403 . S
H2109 C2115 0.930 . S
C2110 H2096 0.930 . S
C2110 C2108 1.395 1_455 S
C2110 C2113 1.403 . S
C2111 C2108 1.403 . S
C2111 C2112 1.524 . S
C2111 C2115 1.400 . S
C2112 H2097 0.960 . S
C2112 H2098 0.960 . S
C2112 H2099 0.960 . S
C2112 C2111 1.524 . S
C2113 C2110 1.403 . S
C2113 C2114 1.392 . S
C2113 C2117 1.495 . S
C2114 C2113 1.392 . S
C2114 C2115 1.385 1_455 S
C2114 C2116 1.478 . S
C2115 H2109 0.930 . S
C2115 C2111 1.400 . S
C2115 C2114 1.385 1_655 S
C2116 C2114 1.478 . S
C2116 C2118 1.381 . S
C2116 C2122 1.383 . S
C2117 C2113 1.495 . S
C2117 H2123 0.959 . S
C2117 H2124 0.961 . S
C2117 H2125 0.960 . S
C2118 C2116 1.381 . S
C2118 C2119 1.394 . S
C2118 H2126 0.930 . S
C2119 C2118 1.394 . S
C2119 C2120 1.383 . S
C2119 H2127 0.929 . S
C2120 C2119 1.383 . S
C2120 C2121 1.377 . S
C2121 H2105 0.930 1_455 S
C2121 C2120 1.377 . S
C2121 C2122 1.379 . S
C2122 H2106 0.931 1_455 S
C2122 C2116 1.383 . S
C2122 C2121 1.379 . S
H2123 C2117 0.959 . S
H2124 C2117 0.961 . S
H2125 C2117 0.960 . S
H2126 C2118 0.930 . S
H2127 C2119 0.929 . S
H2128 C2136 0.929 . S
H2129 C2138 0.930 . S
H2130 C2140 0.930 . S
H2131 C2143 0.929 . S
H2132 C2146 0.930 . S
H2133 C2148 0.960 . S
H2134 C2148 0.960 1_455 S
H2135 C2148 0.960 . S
C2136 H2128 0.929 . S
C2136 C2137 1.377 . S
C2136 C2138 1.384 . S
C2137 C2136 1.377 . S
C2137 C2143 1.390 1_455 S
C2138 H2129 0.930 . S
C2138 C2136 1.384 . S
C2138 C2139 1.372 . S
C2139 C2138 1.372 . S
C2139 C2140 1.400 1_455 S
C2139 C2144 1.490 . S
C2140 H2130 0.930 . S
C2140 C2139 1.400 1_655 S
C2140 C2143 1.386 . S
H2141 C2157 0.930 . S
H2142 C2158 0.931 . S
C2143 H2131 0.929 . S
C2143 C2137 1.390 1_655 S
C2143 C2140 1.386 . S
C2144 C2139 1.490 . S
C2144 C2146 1.395 . S
C2144 C2147 1.403 1_455 S
H2145 C2151 0.930 . S
C2146 H2132 0.930 . S
C2146 C2144 1.395 . S
C2146 C2149 1.403 . S
C2147 C2144 1.403 1_655 S
C2147 C2148 1.524 . S
C2147 C2151 1.400 . S
C2148 H2133 0.960 . S
C2148 H2134 0.960 1_655 S
C2148 H2135 0.960 . S
C2148 C2147 1.524 . S
C2149 C2146 1.403 . S
C2149 C2150 1.392 . S
C2149 C2153 1.495 . S
C2150 C2149 1.392 . S
C2150 C2151 1.385 1_455 S
C2150 C2152 1.478 1_455 S
C2151 H2145 0.930 . S
C2151 C2147 1.400 . S
C2151 C2150 1.385 1_655 S
C2152 C2150 1.478 1_655 S
C2152 C2154 1.381 1_655 S
C2152 C2158 1.383 . S
C2153 C2149 1.495 . S
C2153 H2159 0.959 . S
C2153 H2160 0.961 . S
C2153 H2161 0.960 . S
C2154 C2152 1.381 1_455 S
C2154 C2155 1.394 . S
C2154 H2162 0.930 . S
C2155 C2154 1.394 . S
C2155 C2156 1.383 1_455 S
C2155 H2163 0.929 . S
C2156 C2155 1.383 1_655 S
C2156 C2157 1.377 . S
C2157 H2141 0.930 . S
C2157 C2156 1.377 . S
C2157 C2158 1.379 . S
C2158 H2142 0.931 . S
C2158 C2152 1.383 . S
C2158 C2157 1.379 . S
H2159 C2153 0.959 . S
H2160 C2153 0.961 . S
H2161 C2153 0.960 . S
H2162 C2154 0.930 . S
H2163 C2155 0.929 . S
H2164 C2172 0.929 . S
H2165 C2174 0.930 . S
H2166 C2176 0.930 . S
H2167 C2179 0.929 . S
H2168 C2182 0.930 . S
H2169 C2184 0.960 . S
H2170 C2184 0.960 . S
H2171 C2184 0.960 . S
C2172 H2164 0.929 . S
C2172 C2173 1.377 . S
C2172 C2174 1.384 . S
C2173 C2172 1.377 . S
C2173 C2179 1.390 . S
C2174 H2165 0.930 . S
C2174 C2172 1.384 . S
C2174 C2175 1.372 . S
C2175 C2174 1.372 . S
C2175 C2176 1.400 . S
C2175 C2180 1.490 . S
C2176 H2166 0.930 . S
C2176 C2175 1.400 . S
C2176 C2179 1.386 . S
H2177 C2193 0.930 . S
H2178 C2194 0.931 . S
C2179 H2167 0.929 . S
C2179 C2173 1.390 . S
C2179 C2176 1.386 . S
C2180 C2175 1.490 . S
C2180 C2182 1.395 . S
C2180 C2183 1.403 . S
H2181 C2187 0.930 . S
C2182 H2168 0.930 . S
C2182 C2180 1.395 . S
C2182 C2185 1.403 . S
C2183 C2180 1.403 . S
C2183 C2184 1.524 . S
C2183 C2187 1.400 . S
C2184 H2169 0.960 . S
C2184 H2170 0.960 . S
C2184 H2171 0.960 . S
C2184 C2183 1.524 . S
C2185 C2182 1.403 . S
C2185 C2186 1.392 . S
C2185 C2189 1.495 . S
C2186 C2185 1.392 . S
C2186 C2187 1.385 . S
C2186 C2188 1.478 . S
C2187 H2181 0.930 . S
C2187 C2183 1.400 . S
C2187 C2186 1.385 . S
C2188 C2186 1.478 . S
C2188 C2190 1.381 . S
C2188 C2194 1.383 . S
C2189 C2185 1.495 . S
C2189 H2195 0.959 . S
C2189 H2196 0.961 . S
C2189 H2197 0.960 . S
C2190 C2188 1.381 . S
C2190 C2191 1.394 . S
C2190 H2198 0.930 . S
C2191 C2190 1.394 . S
C2191 C2192 1.383 . S
C2191 H2199 0.929 . S
C2192 C2191 1.383 . S
C2192 C2193 1.377 . S
C2193 H2177 0.930 . S
C2193 C2192 1.377 . S
C2193 C2194 1.379 . S
C2194 H2178 0.931 . S
C2194 C2188 1.383 . S
C2194 C2193 1.379 . S
H2195 C2189 0.959 . S
H2196 C2189 0.961 . S
H2197 C2189 0.960 . S
H2198 C2190 0.930 . S
H2199 C2191 0.929 . S
H2200 C2208 0.929 . S
H2201 C2210 0.930 . S
H2202 C2212 0.930 . S
H2203 C2215 0.929 . S
H2204 C2218 0.930 . S
H2205 C2220 0.960 . S
H2206 C2220 0.960 . S
H2207 C2220 0.960 . S
C2208 H2200 0.929 . S
C2208 C2209 1.377 . S
C2208 C2210 1.384 . S
C2209 C2208 1.377 . S
C2209 C2215 1.390 . S
C2210 H2201 0.930 . S
C2210 C2208 1.384 . S
C2210 C2211 1.372 . S
C2211 C2210 1.372 . S
C2211 C2212 1.400 . S
C2211 C2216 1.490 . S
C2212 H2202 0.930 . S
C2212 C2211 1.400 . S
C2212 C2215 1.386 . S
H2213 C2229 0.930 . S
H2214 C2230 0.931 . S
C2215 H2203 0.929 . S
C2215 C2209 1.390 . S
C2215 C2212 1.386 . S
C2216 C2211 1.490 . S
C2216 C2218 1.395 . S
C2216 C2219 1.403 . S
H2217 C2223 0.930 . S
C2218 H2204 0.930 . S
C2218 C2216 1.395 . S
C2218 C2221 1.403 . S
C2219 C2216 1.403 . S
C2219 C2220 1.524 . S
C2219 C2223 1.400 . S
C2220 H2205 0.960 . S
C2220 H2206 0.960 . S
C2220 H2207 0.960 . S
C2220 C2219 1.524 . S
C2221 C2218 1.403 . S
C2221 C2222 1.392 . S
C2221 C2225 1.495 . S
C2222 C2221 1.392 . S
C2222 C2223 1.385 . S
C2222 C2224 1.478 . S
C2223 H2217 0.930 . S
C2223 C2219 1.400 . S
C2223 C2222 1.385 . S
C2224 C2222 1.478 . S
C2224 C2226 1.381 . S
C2224 C2230 1.383 . S
C2225 C2221 1.495 . S
C2225 H2231 0.959 . S
C2225 H2232 0.961 . S
C2225 H2233 0.960 . S
C2226 C2224 1.381 . S
C2226 C2227 1.394 . S
C2226 H2234 0.930 . S
C2227 C2226 1.394 . S
C2227 C2228 1.383 . S
C2227 H2235 0.929 . S
C2228 C2227 1.383 . S
C2228 C2229 1.377 . S
C2229 H2213 0.930 . S
C2229 C2228 1.377 . S
C2229 C2230 1.379 . S
C2230 H2214 0.931 . S
C2230 C2224 1.383 . S
C2230 C2229 1.379 . S
H2231 C2225 0.959 . S
H2232 C2225 0.961 . S
H2233 C2225 0.960 . S
H2234 C2226 0.930 . S
H2235 C2227 0.929 . S
H2236 C2244 0.929 . S
H2237 C2246 0.930 . S
H2238 C2248 0.930 . S
H2239 C2251 0.929 1_655 S
H2240 C2254 0.930 . S
H2241 C2256 0.960 . S
H2242 C2256 0.960 . S
H2243 C2256 0.960 . S
C2244 H2236 0.929 . S
C2244 C2245 1.377 . S
C2244 C2246 1.384 . S
C2245 C2244 1.377 . S
C2245 C2251 1.390 . S
C2246 H2237 0.930 . S
C2246 C2244 1.384 . S
C2246 C2247 1.372 . S
C2247 C2246 1.372 . S
C2247 C2248 1.400 1_455 S
C2247 C2252 1.490 . S
C2248 H2238 0.930 . S
C2248 C2247 1.400 1_655 S
C2248 C2251 1.386 1_655 S
H2249 C2265 0.930 . S
H2250 C2266 0.931 . S
C2251 H2239 0.929 1_455 S
C2251 C2245 1.390 . S
C2251 C2248 1.386 1_455 S
C2252 C2247 1.490 . S
C2252 C2254 1.395 1_455 S
C2252 C2255 1.403 . S
H2253 C2259 0.930 . S
C2254 H2240 0.930 . S
C2254 C2252 1.395 1_655 S
C2254 C2257 1.403 . S
C2255 C2252 1.403 . S
C2255 C2256 1.524 . S
C2255 C2259 1.400 . S
C2256 H2241 0.960 . S
C2256 H2242 0.960 . S
C2256 H2243 0.960 . S
C2256 C2255 1.524 . S
C2257 C2254 1.403 . S
C2257 C2258 1.392 . S
C2257 C2261 1.495 . S
C2258 C2257 1.392 . S
C2258 C2259 1.385 1_655 S
C2258 C2260 1.478 . S
C2259 H2253 0.930 . S
C2259 C2255 1.400 . S
C2259 C2258 1.385 1_455 S
C2260 C2258 1.478 . S
C2260 C2262 1.381 1_655 S
C2260 C2266 1.383 . S
C2261 C2257 1.495 . S
C2261 H2267 0.959 . S
C2261 H2268 0.961 . S
C2261 H2269 0.960 . S
C2262 C2260 1.381 1_455 S
C2262 C2263 1.394 . S
C2262 H2270 0.930 . S
C2263 C2262 1.394 . S
C2263 C2264 1.383 1_455 S
C2263 H2271 0.929 . S
C2264 C2263 1.383 1_655 S
C2264 C2265 1.377 . S
C2265 H2249 0.930 . S
C2265 C2264 1.377 . S
C2265 C2266 1.379 . S
C2266 H2250 0.931 . S
C2266 C2260 1.383 . S
C2266 C2265 1.379 . S
H2267 C2261 0.959 . S
H2268 C2261 0.961 . S
H2269 C2261 0.960 . S
H2270 C2262 0.930 . S
H2271 C2263 0.929 . S
H2272 C2280 0.929 . S
H2273 C2282 0.930 . S
H2274 C2284 0.930 1_455 S
H2275 C2287 0.929 1_455 S
H2276 C2290 0.930 . S
H2277 C2292 0.960 . S
H2278 C2292 0.960 . S
H2279 C2292 0.960 . S
C2280 H2272 0.929 . S
C2280 C2281 1.377 . S
C2280 C2282 1.384 . S
C2281 C2280 1.377 . S
C2281 C2287 1.390 . S
C2282 H2273 0.930 . S
C2282 C2280 1.384 . S
C2282 C2283 1.372 . S
C2283 C2282 1.372 . S
C2283 C2284 1.400 . S
C2283 C2288 1.490 . S
C2284 H2274 0.930 1_655 S
C2284 C2283 1.400 . S
C2284 C2287 1.386 . S
H2285 C2301 0.930 . S
H2286 C2302 0.931 . S
C2287 H2275 0.929 1_655 S
C2287 C2281 1.390 . S
C2287 C2284 1.386 . S
C2288 C2283 1.490 . S
C2288 C2290 1.395 . S
C2288 C2291 1.403 1_655 S
H2289 C2295 0.930 . S
C2290 H2276 0.930 . S
C2290 C2288 1.395 . S
C2290 C2293 1.403 . S
C2291 C2288 1.403 1_455 S
C2291 C2292 1.524 . S
C2291 C2295 1.400 . S
C2292 H2277 0.960 . S
C2292 H2278 0.960 . S
C2292 H2279 0.960 . S
C2292 C2291 1.524 . S
C2293 C2290 1.403 . S
C2293 C2294 1.392 1_655 S
C2293 C2297 1.495 . S
C2294 C2293 1.392 1_455 S
C2294 C2295 1.385 . S
C2294 C2296 1.478 . S
C2295 H2289 0.930 . S
C2295 C2291 1.400 . S
C2295 C2294 1.385 . S
C2296 C2294 1.478 . S
C2296 C2298 1.381 1_455 S
C2296 C2302 1.383 . S
C2297 C2293 1.495 . S
C2297 H2303 0.959 . S
C2297 H2304 0.961 . S
C2297 H2305 0.960 . S
C2298 C2296 1.381 1_655 S
C2298 C2299 1.394 1_655 S
C2298 H2306 0.930 . S
C2299 C2298 1.394 1_455 S
C2299 C2300 1.383 . S
C2299 H2307 0.929 1_455 S
C2300 C2299 1.383 . S
C2300 C2301 1.377 . S
C2301 H2285 0.930 . S
C2301 C2300 1.377 . S
C2301 C2302 1.379 . S
C2302 H2286 0.931 . S
C2302 C2296 1.383 . S
C2302 C2301 1.379 . S
H2303 C2297 0.959 . S
H2304 C2297 0.961 . S
H2305 C2297 0.960 . S
H2306 C2298 0.930 . S
H2307 C2299 0.929 1_655 S
H2308 C2316 0.929 . S
H2309 C2318 0.930 . S
H2310 C2320 0.930 . S
H2311 C2323 0.929 . S
H2312 C2326 0.930 . S
H2313 C2328 0.960 . S
H2314 C2328 0.960 . S
H2315 C2328 0.960 . S
C2316 H2308 0.929 . S
C2316 C2317 1.377 . S
C2316 C2318 1.384 . S
C2317 C2316 1.377 . S
C2317 C2323 1.390 . S
C2318 H2309 0.930 . S
C2318 C2316 1.384 . S
C2318 C2319 1.372 . S
C2319 C2318 1.372 . S
C2319 C2320 1.400 . S
C2319 C2324 1.490 . S
C2320 H2310 0.930 . S
C2320 C2319 1.400 . S
C2320 C2323 1.386 . S
H2321 C2337 0.930 . S
H2322 C2338 0.931 . S
C2323 H2311 0.929 . S
C2323 C2317 1.390 . S
C2323 C2320 1.386 . S
C2324 C2319 1.490 . S
C2324 C2326 1.395 . S
C2324 C2327 1.403 . S
H2325 C2331 0.930 . S
C2326 H2312 0.930 . S
C2326 C2324 1.395 . S
C2326 C2329 1.403 . S
C2327 C2324 1.403 . S
C2327 C2328 1.524 . S
C2327 C2331 1.400 . S
C2328 H2313 0.960 . S
C2328 H2314 0.960 . S
C2328 H2315 0.960 . S
C2328 C2327 1.524 . S
C2329 C2326 1.403 . S
C2329 C2330 1.392 . S
C2329 C2333 1.495 . S
C2330 C2329 1.392 . S
C2330 C2331 1.385 . S
C2330 C2332 1.478 . S
C2331 H2325 0.930 . S
C2331 C2327 1.400 . S
C2331 C2330 1.385 . S
C2332 C2330 1.478 . S
C2332 C2334 1.381 . S
C2332 C2338 1.383 . S
C2333 C2329 1.495 . S
C2333 H2339 0.959 . S
C2333 H2340 0.961 . S
C2333 H2341 0.960 . S
C2334 C2332 1.381 . S
C2334 C2335 1.394 . S
C2334 H2342 0.930 . S
C2335 C2334 1.394 . S
C2335 C2336 1.383 . S
C2335 H2343 0.929 . S
C2336 C2335 1.383 . S
C2336 C2337 1.377 . S
C2337 H2321 0.930 . S
C2337 C2336 1.377 . S
C2337 C2338 1.379 . S
C2338 H2322 0.931 . S
C2338 C2332 1.383 . S
C2338 C2337 1.379 . S
H2339 C2333 0.959 . S
H2340 C2333 0.961 . S
H2341 C2333 0.960 . S
H2342 C2334 0.930 . S
H2343 C2335 0.929 . S
H2344 C2352 0.929 1_655 S
H2345 C2354 0.930 . S
H2346 C2356 0.930 . S
H2347 C2359 0.929 . S
H2348 C2362 0.930 . S
H2349 C2364 0.960 . S
H2350 C2364 0.960 . S
H2351 C2364 0.960 . S
C2352 H2344 0.929 1_455 S
C2352 C2353 1.377 . S
C2352 C2354 1.384 1_455 S
C2353 C2352 1.377 . S
C2353 C2359 1.390 . S
C2354 H2345 0.930 . S
C2354 C2352 1.384 1_655 S
C2354 C2355 1.372 1_655 S
C2355 C2354 1.372 1_455 S
C2355 C2356 1.400 . S
C2355 C2360 1.490 . S
C2356 H2346 0.930 . S
C2356 C2355 1.400 . S
C2356 C2359 1.386 . S
H2357 C2373 0.930 1_455 S
H2358 C2374 0.931 1_455 S
C2359 H2347 0.929 . S
C2359 C2353 1.390 . S
C2359 C2356 1.386 . S
C2360 C2355 1.490 . S
C2360 C2362 1.395 1_455 S
C2360 C2363 1.403 . S
H2361 C2367 0.930 . S
C2362 H2348 0.930 . S
C2362 C2360 1.395 1_655 S
C2362 C2365 1.403 . S
C2363 C2360 1.403 . S
C2363 C2364 1.524 . S
C2363 C2367 1.400 . S
C2364 H2349 0.960 . S
C2364 H2350 0.960 . S
C2364 H2351 0.960 . S
C2364 C2363 1.524 . S
C2365 C2362 1.403 . S
C2365 C2366 1.392 . S
C2365 C2369 1.495 . S
C2366 C2365 1.392 . S
C2366 C2367 1.385 1_655 S
C2366 C2368 1.478 . S
C2367 H2361 0.930 . S
C2367 C2363 1.400 . S
C2367 C2366 1.385 1_455 S
C2368 C2366 1.478 . S
C2368 C2370 1.381 . S
C2368 C2374 1.383 . S
C2369 C2365 1.495 . S
C2369 H2375 0.959 . S
C2369 H2376 0.961 . S
C2369 H2377 0.960 . S
C2370 C2368 1.381 . S
C2370 C2371 1.394 . S
C2370 H2378 0.930 . S
C2371 C2370 1.394 . S
C2371 C2372 1.383 . S
C2371 H2379 0.929 . S
C2372 C2371 1.383 . S
C2372 C2373 1.377 . S
C2373 H2357 0.930 1_655 S
C2373 C2372 1.377 . S
C2373 C2374 1.379 . S
C2374 H2358 0.931 1_655 S
C2374 C2368 1.383 . S
C2374 C2373 1.379 . S
H2375 C2369 0.959 . S
H2376 C2369 0.961 . S
H2377 C2369 0.960 . S
H2378 C2370 0.930 . S
H2379 C2371 0.929 . S
H2380 C2388 0.929 . S
H2381 C2390 0.930 . S
H2382 C2392 0.930 . S
H2383 C2395 0.929 . S
H2384 C2398 0.930 . S
H2385 C2400 0.960 . S
H2386 C2400 0.960 . S
H2387 C2400 0.960 . S
C2388 H2380 0.929 . S
C2388 C2389 1.377 . S
C2388 C2390 1.384 . S
C2389 C2388 1.377 . S
C2389 C2395 1.390 . S
C2390 H2381 0.930 . S
C2390 C2388 1.384 . S
C2390 C2391 1.372 . S
C2391 C2390 1.372 . S
C2391 C2392 1.400 . S
C2391 C2396 1.490 . S
C2392 H2382 0.930 . S
C2392 C2391 1.400 . S
C2392 C2395 1.386 . S
H2393 C2409 0.930 . S
H2394 C2410 0.931 . S
C2395 H2383 0.929 . S
C2395 C2389 1.390 . S
C2395 C2392 1.386 . S
C2396 C2391 1.490 . S
C2396 C2398 1.395 . S
C2396 C2399 1.403 . S
H2397 C2403 0.930 . S
C2398 H2384 0.930 . S
C2398 C2396 1.395 . S
C2398 C2401 1.403 . S
C2399 C2396 1.403 . S
C2399 C2400 1.524 . S
C2399 C2403 1.400 . S
C2400 H2385 0.960 . S
C2400 H2386 0.960 . S
C2400 H2387 0.960 . S
C2400 C2399 1.524 . S
C2401 C2398 1.403 . S
C2401 C2402 1.392 . S
C2401 C2405 1.495 . S
C2402 C2401 1.392 . S
C2402 C2403 1.385 . S
C2402 C2404 1.478 . S
C2403 H2397 0.930 . S
C2403 C2399 1.400 . S
C2403 C2402 1.385 . S
C2404 C2402 1.478 . S
C2404 C2406 1.381 . S
C2404 C2410 1.383 . S
C2405 C2401 1.495 . S
C2405 H2411 0.959 . S
C2405 H2412 0.961 . S
C2405 H2413 0.960 . S
C2406 C2404 1.381 . S
C2406 C2407 1.394 . S
C2406 H2414 0.930 . S
C2407 C2406 1.394 . S
C2407 C2408 1.383 . S
C2407 H2415 0.929 . S
C2408 C2407 1.383 . S
C2408 C2409 1.377 . S
C2409 H2393 0.930 . S
C2409 C2408 1.377 . S
C2409 C2410 1.379 . S
C2410 H2394 0.931 . S
C2410 C2404 1.383 . S
C2410 C2409 1.379 . S
H2411 C2405 0.959 . S
H2412 C2405 0.961 . S
H2413 C2405 0.960 . S
H2414 C2406 0.930 . S
H2415 C2407 0.929 . S
H2416 C2424 0.929 . S
H2417 C2426 0.930 . S
H2418 C2428 0.930 . S
H2419 C2431 0.929 . S
H2420 C2434 0.930 . S
H2421 C2436 0.960 . S
H2422 C2436 0.960 . S
H2423 C2436 0.960 . S
C2424 H2416 0.929 . S
C2424 C2425 1.377 . S
C2424 C2426 1.384 . S
C2425 C2424 1.377 . S
C2425 C2431 1.390 . S
C2426 H2417 0.930 . S
C2426 C2424 1.384 . S
C2426 C2427 1.372 . S
C2427 C2426 1.372 . S
C2427 C2428 1.400 . S
C2427 C2432 1.490 . S
C2428 H2418 0.930 . S
C2428 C2427 1.400 . S
C2428 C2431 1.386 . S
H2429 C2445 0.930 . S
H2430 C2446 0.931 . S
C2431 H2419 0.929 . S
C2431 C2425 1.390 . S
C2431 C2428 1.386 . S
C2432 C2427 1.490 . S
C2432 C2434 1.395 . S
C2432 C2435 1.403 . S
H2433 C2439 0.930 . S
C2434 H2420 0.930 . S
C2434 C2432 1.395 . S
C2434 C2437 1.403 . S
C2435 C2432 1.403 . S
C2435 C2436 1.524 . S
C2435 C2439 1.400 . S
C2436 H2421 0.960 . S
C2436 H2422 0.960 . S
C2436 H2423 0.960 . S
C2436 C2435 1.524 . S
C2437 C2434 1.403 . S
C2437 C2438 1.392 . S
C2437 C2441 1.495 . S
C2438 C2437 1.392 . S
C2438 C2439 1.385 . S
C2438 C2440 1.478 . S
C2439 H2433 0.930 . S
C2439 C2435 1.400 . S
C2439 C2438 1.385 . S
C2440 C2438 1.478 . S
C2440 C2442 1.381 . S
C2440 C2446 1.383 . S
C2441 C2437 1.495 . S
C2441 H2447 0.959 . S
C2441 H2448 0.961 . S
C2441 H2449 0.960 . S
C2442 C2440 1.381 . S
C2442 C2443 1.394 . S
C2442 H2450 0.930 . S
C2443 C2442 1.394 . S
C2443 C2444 1.383 . S
C2443 H2451 0.929 . S
C2444 C2443 1.383 . S
C2444 C2445 1.377 . S
C2445 H2429 0.930 . S
C2445 C2444 1.377 . S
C2445 C2446 1.379 . S
C2446 H2430 0.931 . S
C2446 C2440 1.383 . S
C2446 C2445 1.379 . S
H2447 C2441 0.959 . S
H2448 C2441 0.961 . S
H2449 C2441 0.960 . S
H2450 C2442 0.930 . S
H2451 C2443 0.929 . S
H2452 C2460 0.929 . S
H2453 C2462 0.930 . S
H2454 C2464 0.930 1_455 S
H2455 C2467 0.929 . S
H2456 C2470 0.930 . S
H2457 C2472 0.960 . S
H2458 C2472 0.960 . S
H2459 C2472 0.960 . S
C2460 H2452 0.929 . S
C2460 C2461 1.377 . S
C2460 C2462 1.384 . S
C2461 C2460 1.377 . S
C2461 C2467 1.390 . S
C2462 H2453 0.930 . S
C2462 C2460 1.384 . S
C2462 C2463 1.372 . S
C2463 C2462 1.372 . S
C2463 C2464 1.400 . S
C2463 C2468 1.490 . S
C2464 H2454 0.930 1_655 S
C2464 C2463 1.400 . S
C2464 C2467 1.386 . S
H2465 C2481 0.930 . S
H2466 C2482 0.931 . S
C2467 H2455 0.929 . S
C2467 C2461 1.390 . S
C2467 C2464 1.386 . S
C2468 C2463 1.490 . S
C2468 C2470 1.395 . S
C2468 C2471 1.403 1_655 S
H2469 C2475 0.930 . S
C2470 H2456 0.930 . S
C2470 C2468 1.395 . S
C2470 C2473 1.403 . S
C2471 C2468 1.403 1_455 S
C2471 C2472 1.524 . S
C2471 C2475 1.400 . S
C2472 H2457 0.960 . S
C2472 H2458 0.960 . S
C2472 H2459 0.960 . S
C2472 C2471 1.524 . S
C2473 C2470 1.403 . S
C2473 C2474 1.392 1_655 S
C2473 C2477 1.495 . S
C2474 C2473 1.392 1_455 S
C2474 C2475 1.385 . S
C2474 C2476 1.478 . S
C2475 H2469 0.930 . S
C2475 C2471 1.400 . S
C2475 C2474 1.385 . S
C2476 C2474 1.478 . S
C2476 C2478 1.381 . S
C2476 C2482 1.383 . S
C2477 C2473 1.495 . S
C2477 H2483 0.959 . S
C2477 H2484 0.961 . S
C2477 H2485 0.960 . S
C2478 C2476 1.381 . S
C2478 C2479 1.394 . S
C2478 H2486 0.930 1_455 S
C2479 C2478 1.394 . S
C2479 C2480 1.383 . S
C2479 H2487 0.929 . S
C2480 C2479 1.383 . S
C2480 C2481 1.377 . S
C2481 H2465 0.930 . S
C2481 C2480 1.377 . S
C2481 C2482 1.379 . S
C2482 H2466 0.931 . S
C2482 C2476 1.383 . S
C2482 C2481 1.379 . S
H2483 C2477 0.959 . S
H2484 C2477 0.961 . S
H2485 C2477 0.960 . S
H2486 C2478 0.930 1_655 S
H2487 C2479 0.929 . S
H2488 C2496 0.929 . S
H2489 C2498 0.930 . S
H2490 C2500 0.930 . S
H2491 C2503 0.929 . S
H2492 C2506 0.930 . S
H2493 C2508 0.960 . S
H2494 C2508 0.960 . S
H2495 C2508 0.960 . S
C2496 H2488 0.929 . S
C2496 C2497 1.377 . S
C2496 C2498 1.384 . S
C2497 C2496 1.377 . S
C2497 C2503 1.390 . S
C2498 H2489 0.930 . S
C2498 C2496 1.384 . S
C2498 C2499 1.372 . S
C2499 C2498 1.372 . S
C2499 C2500 1.400 . S
C2499 C2504 1.490 . S
C2500 H2490 0.930 . S
C2500 C2499 1.400 . S
C2500 C2503 1.386 . S
H2501 C2517 0.930 . S
H2502 C2518 0.931 . S
C2503 H2491 0.929 . S
C2503 C2497 1.390 . S
C2503 C2500 1.386 . S
C2504 C2499 1.490 . S
C2504 C2506 1.395 . S
C2504 C2507 1.403 . S
H2505 C2511 0.930 . S
C2506 H2492 0.930 . S
C2506 C2504 1.395 . S
C2506 C2509 1.403 . S
C2507 C2504 1.403 . S
C2507 C2508 1.524 . S
C2507 C2511 1.400 . S
C2508 H2493 0.960 . S
C2508 H2494 0.960 . S
C2508 H2495 0.960 . S
C2508 C2507 1.524 . S
C2509 C2506 1.403 . S
C2509 C2510 1.392 . S
C2509 C2513 1.495 . S
C2510 C2509 1.392 . S
C2510 C2511 1.385 . S
C2510 C2512 1.478 . S
C2511 H2505 0.930 . S
C2511 C2507 1.400 . S
C2511 C2510 1.385 . S
C2512 C2510 1.478 . S
C2512 C2514 1.381 . S
C2512 C2518 1.383 . S
C2513 C2509 1.495 . S
C2513 H2519 0.959 . S
C2513 H2520 0.961 . S
C2513 H2521 0.960 . S
C2514 C2512 1.381 . S
C2514 C2515 1.394 . S
C2514 H2522 0.930 . S
C2515 C2514 1.394 . S
C2515 C2516 1.383 . S
C2515 H2523 0.929 . S
C2516 C2515 1.383 . S
C2516 C2517 1.377 . S
C2517 H2501 0.930 . S
C2517 C2516 1.377 . S
C2517 C2518 1.379 . S
C2518 H2502 0.931 . S
C2518 C2512 1.383 . S
C2518 C2517 1.379 . S
H2519 C2513 0.959 . S
H2520 C2513 0.961 . S
H2521 C2513 0.960 . S
H2522 C2514 0.930 . S
H2523 C2515 0.929 . S
H2524 C2532 0.929 . S
H2525 C2534 0.930 . S
H2526 C2536 0.930 1_455 S
H2527 C2539 0.921 1_455 S
H2528 C2542 0.930 . S
H2529 C2544 0.960 . S
H2530 C2544 0.960 . S
H2531 C2544 0.960 . S
C2532 H2524 0.929 . S
C2532 C2533 1.377 . S
C2532 C2534 1.384 . S
C2533 C2532 1.377 . S
C2533 C2539 1.390 . S
C2534 H2525 0.930 . S
C2534 C2532 1.384 . S
C2534 C2535 1.372 . S
C2535 C2534 1.372 . S
C2535 C2536 1.400 . S
C2535 C2540 1.490 . S
C2536 H2526 0.930 1_655 S
C2536 C2535 1.400 . S
C2536 C2539 1.386 . S
H2537 C2553 0.930 . S
H2538 C2554 0.931 . S
C2539 H2527 0.921 1_655 S
C2539 C2533 1.390 . S
C2539 C2536 1.386 . S
C2540 C2535 1.490 . S
C2540 C2542 1.395 . S
C2540 C2543 1.403 . S
H2541 C2547 0.931 . S
C2542 H2528 0.930 . S
C2542 C2540 1.395 . S
C2542 C2545 1.403 1_655 S
C2543 C2540 1.403 . S
C2543 C2544 1.524 . S
C2543 C2547 1.395 1_655 S
C2544 H2529 0.960 . S
C2544 H2530 0.960 . S
C2544 H2531 0.960 . S
C2544 C2543 1.524 . S
C2545 C2542 1.403 1_455 S
C2545 C2546 1.392 . S
C2545 C2549 1.495 . S
C2546 C2545 1.392 . S
C2546 C2547 1.390 . S
C2546 C2548 1.478 . S
C2547 H2541 0.931 . S
C2547 C2543 1.395 1_455 S
C2547 C2546 1.390 . S
C2548 C2546 1.478 . S
C2548 C2550 1.381 . S
C2548 C2554 1.383 . S
C2549 C2545 1.495 . S
C2549 H2555 0.959 . S
C2549 H2556 0.961 . S
C2549 H2557 0.960 . S
C2550 C2548 1.381 . S
C2550 C2551 1.394 . S
C2550 H2558 0.930 1_455 S
C2551 C2550 1.394 . S
C2551 C2552 1.383 . S
C2551 H2559 0.929 1_455 S
C2552 C2551 1.383 . S
C2552 C2553 1.377 . S
C2553 H2537 0.930 . S
C2553 C2552 1.377 . S
C2553 C2554 1.379 . S
C2554 H2538 0.931 . S
C2554 C2548 1.383 . S
C2554 C2553 1.379 . S
H2555 C2549 0.959 . S
H2556 C2549 0.961 . S
H2557 C2549 0.960 . S
H2558 C2550 0.930 1_655 S
H2559 C2551 0.929 1_655 S
C553 C28 1.490 . S
C572 C6 1.477 . S
C589 C62 1.484 . S
C608 C40 1.484 . S
C625 C96 1.486 . S
C644 C74 1.490 . S
C661 C108 1.486 . S
C680 C130 1.490 . S
C697 C142 1.489 . S
C716 C164 1.485 . S
C733 C176 1.490 . S
C752 C198 1.479 . S
C769 C210 1.490 . S
C788 C232 1.474 . S
C805 C266 1.486 . S
C824 C244 1.485 . S
C841 C278 1.484 . S
C860 C300 1.488 . S
C877 C312 1.490 . S
C896 C334 1.474 . S
C913 C346 1.490 . S
C932 C368 1.475 . S
C949 C380 1.485 . S
C968 C402 1.483 . S
C985 C414 1.486 . S
C1004 C436 1.484 . S
C1021 C448 1.484 . S
C1040 C470 1.490 . S
C1057 C504 1.487 . S
C1076 C482 1.483 . S
C1093 C516 1.489 . S
C1112 C538 1.486 . S
C1129 C1 1.742 . S
C1148 C171 1.780 . S
C1165 C37 1.748 . S
C1184 C137 1.782 1_455 S
C1201 C71 1.737 . S
C1220 C239 1.753 1_655 S
C1237 C103 1.747 . S
C1256 C205 1.740 . S
C1273 C139 1.745 . S
C1292 C35 1.734 . S
C1309 C173 1.741 . S
C1328 C3 1.725 1_655 S
C1345 C105 1.755 1_455 S
C1364 C207 1.708 . S
C1381 C69 1.763 . S
C1400 C241 1.768 . S
C1417 C273 1.740 . S
C1436 C445 1.724 1_655 S
C1453 C411 1.758 . S
C1472 C309 1.713 . S
C1489 C343 1.740 . S
C1508 C511 1.773 . S
C1525 C477 1.755 1_455 S
C1544 C375 1.760 . S
C1561 C307 1.754 1_455 S
C1580 C409 1.708 . S
C1597 C443 1.746 . S
C1616 C275 1.736 . S
C1633 C479 1.749 . S
C1652 C377 1.757 . S
C1669 C513 1.750 . S
C1688 C341 1.772 1_655 S
C1705 C22 1.487 . S
C1724 C49 1.459 . S
C1741 C124 1.496 . S
C1760 C83 1.503 . S
C1777 C151 1.490 . S
C1796 C185 1.460 . S
C1813 C253 1.485 . S
C1832 C219 1.469 . S
C1849 C321 1.489 . S
C1868 C294 1.504 . S
C1885 C355 1.496 . S
C1904 C396 1.509 . S
C1921 C430 1.487 . S
C1940 C464 1.507 . S
C1957 C491 1.495 . S
C1976 C525 1.504 . S
C1993 C15 1.684 1_655 S
C2012 C328 1.700 1_455 S
C2029 C56 1.695 . S
C2048 C287 1.706 . S
C2065 C389 1.694 . S
C2084 C90 1.711 . S
C2101 C362 1.691 1_655 S
C2120 C117 1.719 1_455 S
C2137 C158 1.693 1_455 S
C2156 C457 1.675 1_655 S
C2173 C192 1.684 . S
C2192 C423 1.701 . S
C2209 C226 1.688 . S
C2228 C532 1.716 . S
C2245 C498 1.694 1_455 S
C2264 C260 1.709 1_655 S
C2281 C119 1.629 . S
C2300 C17 1.616 . S
C2317 C51 1.628 . S
C2336 C85 1.614 . S
C2353 C255 1.628 . S
C2372 C153 1.633 . S
C2389 C187 1.631 . S
C2408 C221 1.624 . S
C2425 C289 1.629 . S
C2444 C391 1.635 . S
C2461 C323 1.629 . S
C2480 C357 1.615 . S
C2497 C527 1.629 . S
C2516 C425 1.636 . S
C2533 C493 1.631 . S
C2552 C459 1.628 . S
