# Generated by pormake.
# Topology acs-i, (5)-cn, num edge types: 1
# Building blocks:
#     Node 0, Type 0, BuildingBlock: XOMCOT_clean_sbu_0, # of connection points: 5
#     Node 1, Type 0, BuildingBlock: XOMCOT_clean_sbu_0, # of connection points: 5
#     Node 2, Type 0, BuildingBlock: XOMCOT_clean_sbu_0, # of connection points: 5
#     Node 3, Type 0, BuildingBlock: XOMCOT_clean_sbu_0, # of connection points: 5
#     Node 4, Type 0, BuildingBlock: XOMCOT_clean_sbu_0, # of connection points: 5
#     Node 5, Type 0, BuildingBlock: XOMCOT_clean_sbu_0, # of connection points: 5
#     Node 6, Type 0, BuildingBlock: XOMCOT_clean_sbu_0, # of connection points: 5
#     Node 7, Type 0, BuildingBlock: XOMCOT_clean_sbu_0, # of connection points: 5
#     Node 8, Type 0, BuildingBlock: XOMCOT_clean_sbu_0, # of connection points: 5
#     Node 9, Type 0, BuildingBlock: XOMCOT_clean_sbu_0, # of connection points: 5
#     Node 10, Type 0, BuildingBlock: XOMCOT_clean_sbu_0, # of connection points: 5
#     Node 11, Type 0, BuildingBlock: XOMCOT_clean_sbu_0, # of connection points: 5
#     Edge 12, Type (0, 0), BuildingBlock: XIVTED_clean_linker_0, # of connection points: 2
#     Edge 13, Type (0, 0), BuildingBlock: XIVTED_clean_linker_0, # of connection points: 2
#     Edge 14, Type (0, 0), BuildingBlock: XIVTED_clean_linker_0, # of connection points: 2
#     Edge 15, Type (0, 0), BuildingBlock: XIVTED_clean_linker_0, # of connection points: 2
#     Edge 16, Type (0, 0), BuildingBlock: XIVTED_clean_linker_0, # of connection points: 2
#     Edge 17, Type (0, 0), BuildingBlock: XIVTED_clean_linker_0, # of connection points: 2
#     Edge 18, Type (0, 0), BuildingBlock: XIVTED_clean_linker_0, # of connection points: 2
#     Edge 19, Type (0, 0), BuildingBlock: XIVTED_clean_linker_0, # of connection points: 2
#     Edge 20, Type (0, 0), BuildingBlock: XIVTED_clean_linker_0, # of connection points: 2
#     Edge 21, Type (0, 0), BuildingBlock: XIVTED_clean_linker_0, # of connection points: 2
#     Edge 22, Type (0, 0), BuildingBlock: XIVTED_clean_linker_0, # of connection points: 2
#     Edge 23, Type (0, 0), BuildingBlock: XIVTED_clean_linker_0, # of connection points: 2
#     Edge 24, Type (0, 0), BuildingBlock: XIVTED_clean_linker_0, # of connection points: 2
#     Edge 25, Type (0, 0), BuildingBlock: XIVTED_clean_linker_0, # of connection points: 2
#     Edge 26, Type (0, 0), BuildingBlock: XIVTED_clean_linker_0, # of connection points: 2
#     Edge 27, Type (0, 0), BuildingBlock: XIVTED_clean_linker_0, # of connection points: 2
#     Edge 28, Type (0, 0), BuildingBlock: XIVTED_clean_linker_0, # of connection points: 2
#     Edge 29, Type (0, 0), BuildingBlock: XIVTED_clean_linker_0, # of connection points: 2
#     Edge 30, Type (0, 0), BuildingBlock: XIVTED_clean_linker_0, # of connection points: 2
#     Edge 31, Type (0, 0), BuildingBlock: XIVTED_clean_linker_0, # of connection points: 2
#     Edge 32, Type (0, 0), BuildingBlock: XIVTED_clean_linker_0, # of connection points: 2
#     Edge 33, Type (0, 0), BuildingBlock: XIVTED_clean_linker_0, # of connection points: 2
#     Edge 34, Type (0, 0), BuildingBlock: XIVTED_clean_linker_0, # of connection points: 2
#     Edge 35, Type (0, 0), BuildingBlock: XIVTED_clean_linker_0, # of connection points: 2
#     Edge 36, Type (0, 0), BuildingBlock: XIVTED_clean_linker_0, # of connection points: 2
#     Edge 37, Type (0, 0), BuildingBlock: XIVTED_clean_linker_0, # of connection points: 2
#     Edge 38, Type (0, 0), BuildingBlock: XIVTED_clean_linker_0, # of connection points: 2
#     Edge 39, Type (0, 0), BuildingBlock: XIVTED_clean_linker_0, # of connection points: 2
#     Edge 40, Type (0, 0), BuildingBlock: XIVTED_clean_linker_0, # of connection points: 2
#     Edge 41, Type (0, 0), BuildingBlock: XIVTED_clean_linker_0, # of connection points: 2
# Relax obj value: 0.847
# Max RMSD: 0.232
# Mean RMSD: 0.232
data_MOF--net-acs-i--node1-XOMCOT_clean_sbu_0--edge1-XIVTED_clean_linker_0
_symmetry_space_group_name_H-M    P1
_symmetry_Int_Tables_number       1
_symmetry_cell_setting            triclinic
loop_
_symmetry_equiv_pos_as_xyz
'x, y, z'
_cell_length_a     52.35101
_cell_length_b     52.402284
_cell_length_c     35.609509
_cell_angle_alpha  89.991843
_cell_angle_beta   90.020918
_cell_angle_gamma 119.94103
loop_
_atom_site_label
_atom_site_type_symbol
_atom_site_fract_x
_atom_site_fract_y
_atom_site_fract_z
_atom_type_partial_charge
Co0 Co 0.30604 0.48815 0.07635 0.0
C1 C 0.34637 0.48984 0.13704 0.0
C2 C 0.36354 0.4912 0.08212 0.0
C3 C 0.38486 0.49561 0.10796 0.0
N4 N 0.33935 0.48781 0.10022 0.0
N5 N 0.37402 0.49484 0.14242 0.0
H6 H 0.33275 0.49018 0.15957 0.0
H7 H 0.36664 0.49273 0.05208 0.0
C8 C 0.33301 0.52612 0.00668 0.0
O9 O 0.30874 0.51179 0.98682 0.0
N10 N 0.27342 0.48895 0.05199 0.0
C11 C 0.24845 0.46648 0.03762 0.0
C12 C 0.2327 0.47782 0.02031 0.0
C13 C 0.27214 0.51342 0.04411 0.0
N14 N 0.24791 0.50736 0.02401 0.0
C15 C 0.28005 0.42678 0.06225 0.0
C16 C 0.31524 0.43033 0.0026 0.0
C17 C 0.29791 0.40311 0.02034 0.0
C18 C 0.27899 0.40127 0.04917 0.0
C19 C 0.31548 0.45539 0.0164 0.0
N20 N 0.29911 0.45371 0.04718 0.0
H21 H 0.26628 0.42474 0.08582 0.0
H22 H 0.33083 0.47612 0.00397 0.0
H23 H 0.2422 0.44351 0.03867 0.0
H24 H 0.28926 0.53535 0.05183 0.0
O25 O 0.28089 0.46833 0.11886 0.0
O26 O 0.308 0.51662 0.11295 0.0
O27 O 0.33489 0.51776 0.03972 0.0
C28 C 0.28923 0.49422 0.13279 0.0
H29 H 0.40723 0.50091 0.1018 0.0
H30 H 0.21222 0.46538 0.00504 0.0
H31 H 0.33038 0.43281 0.9803 0.0
H32 H 0.26475 0.38053 0.06309 0.0
Co33 Co 0.7941 0.32396 0.55662 0.0
C34 C 0.83379 0.37609 0.60367 0.0
C35 C 0.80017 0.3807 0.5751 0.0
C36 C 0.81701 0.40575 0.5955 0.0
N37 N 0.81078 0.36224 0.5799 0.0
N38 N 0.8382 0.40298 0.61345 0.0
H39 H 0.84672 0.36659 0.61371 0.0
H40 H 0.78098 0.37602 0.55857 0.0
C41 C 0.79172 0.34365 0.47776 0.0
O42 O 0.80644 0.3313 0.46479 0.0
N43 N 0.77523 0.28539 0.53271 0.0
C44 C 0.77315 0.25993 0.54466 0.0
C45 C 0.75111 0.23676 0.52474 0.0
C46 C 0.75382 0.27699 0.50669 0.0
N47 N 0.73908 0.24771 0.50075 0.0
C48 C 0.84292 0.31558 0.54014 0.0
C49 C 0.87869 0.37065 0.50949 0.0
C50 C 0.88963 0.35122 0.51333 0.0
C51 C 0.87129 0.32331 0.52865 0.0
C52 C 0.85013 0.36197 0.52124 0.0
N53 N 0.83236 0.33449 0.5357 0.0
H54 H 0.82999 0.2948 0.55401 0.0
H55 H 0.84248 0.37763 0.5194 0.0
H56 H 0.78468 0.25775 0.56852 0.0
H57 H 0.74638 0.29137 0.49575 0.0
O58 O 0.79813 0.30776 0.60308 0.0
O59 O 0.75888 0.31112 0.58683 0.0
O60 O 0.78408 0.34114 0.51222 0.0
C61 C 0.77237 0.30388 0.61186 0.0
H62 H 0.81293 0.42397 0.59837 0.0
H63 H 0.7431 0.2136 0.52966 0.0
H64 H 0.89241 0.39278 0.49888 0.0
H65 H 0.87895 0.30772 0.53247 0.0
Co66 Co 0.47542 0.80635 0.06748 0.0
C67 C 0.47516 0.84806 0.12418 0.0
C68 C 0.44405 0.8393 0.08006 0.0
C69 C 0.44115 0.85684 0.10621 0.0
N70 N 0.46528 0.83354 0.0913 0.0
N71 N 0.46049 0.86219 0.13429 0.0
H72 H 0.49184 0.84724 0.14115 0.0
H73 H 0.43038 0.83045 0.05543 0.0
C74 C 0.44393 0.79482 0.99294 0.0
O75 O 0.46717 0.79841 0.9744 0.0
N76 N 0.48414 0.77835 0.04345 0.0
C77 C 0.50974 0.77818 0.03992 0.0
C78 C 0.50397 0.75182 0.02405 0.0
C79 C 0.46328 0.75189 0.03044 0.0
N80 N 0.47472 0.73542 0.01796 0.0
C81 C 0.53458 0.84957 0.04742 0.0
C82 C 0.51949 0.88245 0.0016 0.0
C83 C 0.54932 0.8931 0.00965 0.0
C84 C 0.5568 0.87604 0.03246 0.0
C85 C 0.4981 0.85591 0.01698 0.0
N86 N 0.50561 0.83936 0.03903 0.0
H87 H 0.54075 0.83841 0.06777 0.0
H88 H 0.47545 0.84998 0.01315 0.0
H89 H 0.53103 0.79504 0.04957 0.0
H90 H 0.43991 0.7443 0.0318 0.0
O91 O 0.49876 0.80816 0.11045 0.0
O92 O 0.45109 0.77641 0.10379 0.0
O93 O 0.44426 0.79736 0.02858 0.0
C94 C 0.47472 0.78659 0.12446 0.0
H95 H 0.42441 0.86318 0.10572 0.0
H96 H 0.51998 0.74499 0.01835 0.0
H97 H 0.51241 0.89544 0.98568 0.0
H98 H 0.57951 0.88364 0.04009 0.0
Co99 Co 0.68233 0.47745 0.55727 0.0
C100 C 0.63444 0.46747 0.6111 0.0
C101 C 0.62782 0.4279 0.58413 0.0
C102 C 0.60418 0.4208 0.60692 0.0
N103 N 0.64657 0.45712 0.58627 0.0
N104 N 0.60825 0.44558 0.62376 0.0
H105 H 0.6444 0.49032 0.61949 0.0
H106 H 0.63122 0.41263 0.5674 0.0
C107 C 0.6574 0.45069 0.48176 0.0
O108 O 0.66863 0.47692 0.46649 0.0
N109 N 0.71839 0.49592 0.52767 0.0
C110 C 0.74435 0.52077 0.53418 0.0
C111 C 0.76572 0.52098 0.51106 0.0
C112 C 0.72481 0.48126 0.50175 0.0
N113 N 0.75305 0.49612 0.49041 0.0
C114 C 0.68679 0.53279 0.53742 0.0
C115 C 0.62948 0.50908 0.51201 0.0
C116 C 0.64791 0.53971 0.51163 0.0
C117 C 0.67689 0.55158 0.52475 0.0
C118 C 0.64022 0.49118 0.52496 0.0
N119 N 0.66882 0.50297 0.53649 0.0
H120 H 0.70865 0.54236 0.54896 0.0
H121 H 0.62534 0.46768 0.52594 0.0
H122 H 0.74834 0.53642 0.55635 0.0
H123 H 0.71021 0.45848 0.49452 0.0
O124 O 0.7029 0.5008 0.60034 0.0
O125 O 0.69827 0.45738 0.58657 0.0
O126 O 0.66176 0.44748 0.51632 0.0
C127 C 0.70791 0.47969 0.60957 0.0
H128 H 0.58588 0.39884 0.61189 0.0
H129 H 0.78902 0.53703 0.51134 0.0
H130 H 0.60664 0.49897 0.50335 0.0
H131 H 0.69173 0.57516 0.52547 0.0
Co132 Co 0.19633 0.68019 0.08448 0.0
C133 C 0.15697 0.632 0.13643 0.0
C134 C 0.18468 0.62117 0.10363 0.0
C135 C 0.16754 0.59782 0.12658 0.0
N136 N 0.17794 0.64251 0.10959 0.0
N137 N 0.15014 0.60456 0.14729 0.0
H138 H 0.14748 0.64443 0.14824 0.0
H139 H 0.20159 0.62273 0.0848 0.0
C140 C 0.19759 0.65741 0.00643 0.0
O141 O 0.18214 0.66823 0.99128 0.0
N142 N 0.21639 0.7179 0.05858 0.0
C143 C 0.21924 0.74418 0.06806 0.0
C144 C 0.24078 0.76589 0.04582 0.0
C145 C 0.23693 0.7244 0.03184 0.0
N146 N 0.25169 0.75318 0.02289 0.0
C147 C 0.14839 0.69046 0.0712 0.0
C148 C 0.10988 0.63498 0.04361 0.0
C149 C 0.09954 0.65454 0.05066 0.0
C150 C 0.11929 0.6828 0.06382 0.0
C151 C 0.13925 0.64364 0.051 0.0
N152 N 0.15818 0.67112 0.06468 0.0
H153 H 0.1624 0.71127 0.0845 0.0
H154 H 0.14641 0.62771 0.04731 0.0
H155 H 0.20849 0.74799 0.09153 0.0
H156 H 0.24365 0.70913 0.02219 0.0
O157 O 0.19503 0.6987 0.13058 0.0
O158 O 0.23189 0.69177 0.11311 0.0
O159 O 0.20452 0.66093 0.04112 0.0
C160 C 0.22034 0.70095 0.13838 0.0
H161 H 0.16923 0.57815 0.12949 0.0
H162 H 0.2491 0.78932 0.04822 0.0
H163 H 0.0952 0.61288 0.03348 0.0
H164 H 0.11192 0.69826 0.0705 0.0
Co165 Co 0.51508 0.19965 0.55809 0.0
C166 C 0.51936 0.16117 0.61644 0.0
C167 C 0.55939 0.18557 0.58486 0.0
C168 C 0.56322 0.16797 0.60995 0.0
N169 N 0.5318 0.18107 0.58851 0.0
N170 N 0.53814 0.15267 0.62976 0.0
H171 H 0.49731 0.15339 0.62705 0.0
H172 H 0.57596 0.20101 0.56581 0.0
C173 C 0.54214 0.19841 0.48395 0.0
O174 O 0.51615 0.1852 0.46773 0.0
N175 N 0.49997 0.21985 0.52726 0.0
C176 C 0.47629 0.22324 0.53292 0.0
C177 C 0.47848 0.24545 0.50987 0.0
C178 C 0.51638 0.24063 0.50175 0.0
N179 N 0.50372 0.25617 0.49016 0.0
C180 C 0.45766 0.15171 0.53994 0.0
C181 C 0.47661 0.11254 0.52215 0.0
C182 C 0.44643 0.10219 0.52597 0.0
C183 C 0.43685 0.1222 0.53369 0.0
C184 C 0.49659 0.14217 0.52824 0.0
N185 N 0.48713 0.16139 0.53753 0.0
H186 H 0.44995 0.16612 0.5495 0.0
H187 H 0.51978 0.14923 0.52783 0.0
H188 H 0.46 0.21258 0.55472 0.0
H189 H 0.53891 0.24696 0.49516 0.0
O190 O 0.49183 0.19929 0.59989 0.0
O191 O 0.53721 0.23534 0.58763 0.0
O192 O 0.54513 0.20624 0.51836 0.0
C193 C 0.51419 0.22443 0.60962 0.0
H194 H 0.58351 0.1677 0.61477 0.0
H195 H 0.46387 0.25451 0.50984 0.0
H196 H 0.48477 0.09758 0.51628 0.0
H197 H 0.41365 0.11476 0.53756 0.0
Co198 Co 0.47625 0.68474 0.43218 0.0
C199 C 0.46401 0.63741 0.37614 0.0
C200 C 0.42512 0.63348 0.40216 0.0
C201 C 0.41677 0.60973 0.37911 0.0
N202 N 0.45466 0.65055 0.40082 0.0
N203 N 0.44114 0.61208 0.36301 0.0
H204 H 0.48689 0.64563 0.36891 0.0
H205 H 0.41063 0.63788 0.41913 0.0
C206 C 0.45206 0.65658 0.50697 0.0
O207 O 0.47898 0.66772 0.52013 0.0
N208 N 0.49583 0.71927 0.46435 0.0
C209 C 0.52064 0.74534 0.45829 0.0
C210 C 0.52118 0.76607 0.48283 0.0
C211 C 0.48155 0.72499 0.49161 0.0
N212 N 0.49652 0.75299 0.50389 0.0
C213 C 0.53194 0.68781 0.44534 0.0
C214 C 0.50859 0.629 0.46338 0.0
C215 C 0.53921 0.647 0.46092 0.0
C216 C 0.55093 0.67684 0.45228 0.0
C217 C 0.49046 0.64087 0.45656 0.0
N218 N 0.50212 0.67004 0.44799 0.0
H219 H 0.54129 0.71024 0.43614 0.0
H220 H 0.46687 0.62631 0.45716 0.0
H221 H 0.53579 0.75003 0.43528 0.0
H222 H 0.45881 0.71019 0.49896 0.0
O223 O 0.49854 0.70714 0.38945 0.0
O224 O 0.45569 0.70226 0.40726 0.0
O225 O 0.44738 0.66227 0.4736 0.0
C226 C 0.47735 0.71269 0.38313 0.0
H227 H 0.3944 0.59222 0.37411 0.0
H228 H 0.53718 0.78937 0.48297 0.0
H229 H 0.49867 0.60579 0.46995 0.0
H230 H 0.57449 0.69127 0.44925 0.0
Co231 Co 0.81123 0.49157 0.92348 0.0
C232 C 0.85658 0.497 0.86753 0.0
C233 C 0.84003 0.45821 0.90118 0.0
C234 C 0.85819 0.45715 0.8745 0.0
N235 N 0.83973 0.48375 0.89814 0.0
N236 N 0.86847 0.48139 0.85296 0.0
H237 H 0.85782 0.51602 0.85394 0.0
H238 H 0.8255 0.43977 0.9186 0.0
C239 C 0.82867 0.46348 0.98356 0.0
O240 O 0.85614 0.48395 0.97732 0.0
N241 N 0.7819 0.49751 0.94806 0.0
C242 C 0.78019 0.52226 0.95043 0.0
C243 C 0.75449 0.51567 0.96909 0.0
C244 C 0.75756 0.47638 0.96502 0.0
N245 N 0.74039 0.4868 0.9783 0.0
C246 C 0.86441 0.547 0.93055 0.0
C247 C 0.86444 0.54956 0.00808 0.0
C248 C 0.88963 0.56983 0.98828 0.0
C249 C 0.88877 0.56934 0.94894 0.0
C250 C 0.84041 0.52765 0.98841 0.0
N251 N 0.8418 0.52519 0.95035 0.0
H252 H 0.8642 0.5468 0.90037 0.0
H253 H 0.82147 0.51152 0.00397 0.0
H254 H 0.7962 0.54338 0.9389 0.0
H255 H 0.75195 0.45353 0.9661 0.0
O256 O 0.80894 0.51203 0.87995 0.0
O257 O 0.78142 0.46389 0.88911 0.0
O258 O 0.80771 0.4637 0.96518 0.0
C259 C 0.78867 0.48659 0.86746 0.0
H260 H 0.86055 0.43818 0.86853 0.0
H261 H 0.74662 0.53084 0.97489 0.0
H262 H 0.86387 0.54976 0.03847 0.0
H263 H 0.90749 0.58483 0.9324 0.0
Co264 Co 0.3204 0.79479 0.44989 0.0
C265 C 0.36618 0.83635 0.39692 0.0
C266 C 0.38 0.81003 0.42758 0.0
C267 C 0.40207 0.82775 0.40329 0.0
N268 N 0.35759 0.8155 0.42376 0.0
N269 N 0.39343 0.84426 0.38387 0.0
H270 H 0.35244 0.84481 0.38647 0.0
H271 H 0.37995 0.79342 0.44564 0.0
C272 C 0.34385 0.79257 0.52674 0.0
O273 O 0.3292 0.80392 0.54277 0.0
N274 N 0.28321 0.77242 0.47642 0.0
C275 C 0.25641 0.76907 0.46874 0.0
C276 C 0.23536 0.7458 0.48956 0.0
C277 C 0.2777 0.7505 0.50061 0.0
N278 N 0.24899 0.73431 0.50973 0.0
C279 C 0.30755 0.84036 0.46906 0.0
C280 C 0.36178 0.87786 0.50083 0.0
C281 C 0.34077 0.8869 0.4983 0.0
C282 C 0.31336 0.86782 0.48216 0.0
C283 C 0.3551 0.85034 0.48721 0.0
N284 N 0.32797 0.83157 0.47252 0.0
H285 H 0.28711 0.82682 0.45468 0.0
H286 H 0.37209 0.8444 0.48767 0.0
H287 H 0.2518 0.78065 0.4471 0.0
H288 H 0.29377 0.74417 0.50803 0.0
O289 O 0.30044 0.79645 0.40541 0.0
O290 O 0.3099 0.76055 0.4189 0.0
O291 O 0.34165 0.78706 0.4916 0.0
C292 C 0.29929 0.77203 0.39547 0.0
H293 H 0.42211 0.82701 0.39857 0.0
H294 H 0.21175 0.73681 0.48786 0.0
H295 H 0.38367 0.8924 0.51176 0.0
H296 H 0.29679 0.87428 0.47893 0.0
Co297 Co 0.49705 0.31386 0.92259 0.0
C298 C 0.49849 0.35311 0.86052 0.0
C299 C 0.50105 0.37159 0.91492 0.0
C300 C 0.50494 0.39227 0.88844 0.0
N301 N 0.49721 0.34698 0.89757 0.0
N302 N 0.50341 0.38063 0.85431 0.0
H303 H 0.49807 0.33883 0.83838 0.0
H304 H 0.50298 0.37531 0.94484 0.0
C305 C 0.53367 0.34161 0.99317 0.0
O306 O 0.5187 0.31777 0.01355 0.0
N307 N 0.49738 0.28144 0.94821 0.0
C308 C 0.47454 0.25641 0.96184 0.0
C309 C 0.48544 0.24089 0.98063 0.0
C310 C 0.52169 0.2804 0.95801 0.0
N311 N 0.51511 0.25625 0.97859 0.0
C312 C 0.43548 0.28756 0.93553 0.0
C313 C 0.4378 0.32344 0.99362 0.0
C314 C 0.41068 0.30495 0.97621 0.0
C315 C 0.40954 0.28588 0.94806 0.0
C316 C 0.46333 0.32428 0.98041 0.0
N317 N 0.46221 0.30732 0.95057 0.0
H318 H 0.43384 0.27344 0.91261 0.0
H319 H 0.4839 0.34027 0.99266 0.0
H320 H 0.45156 0.2499 0.95925 0.0
H321 H 0.54384 0.29757 0.95119 0.0
O322 O 0.47765 0.28837 0.88031 0.0
O323 O 0.52594 0.31523 0.88691 0.0
O324 O 0.5262 0.3429 0.95941 0.0
C325 C 0.50364 0.29635 0.86698 0.0
H326 H 0.51015 0.41469 0.89387 0.0
H327 H 0.47257 0.2204 0.99566 0.0
H328 H 0.43971 0.33877 0.01534 0.0
H329 H 0.38893 0.27078 0.93441 0.0
Co330 Co 0.20518 0.51067 0.44796 0.0
C331 C 0.16589 0.51856 0.39435 0.0
C332 C 0.19845 0.55906 0.41983 0.0
C333 C 0.18099 0.56501 0.39706 0.0
N334 N 0.18881 0.52997 0.41852 0.0
N335 N 0.16049 0.53961 0.38114 0.0
H336 H 0.15349 0.4955 0.38672 0.0
H337 H 0.21715 0.57502 0.43592 0.0
C338 C 0.20819 0.5389 0.5225 0.0
O339 O 0.19361 0.5129 0.53846 0.0
N340 N 0.22357 0.49313 0.4778 0.0
C341 C 0.22494 0.46838 0.47157 0.0
C342 C 0.24769 0.46953 0.49269 0.0
C343 C 0.24587 0.50895 0.50179 0.0
N344 N 0.26059 0.4951 0.51188 0.0
C345 C 0.15435 0.45564 0.46771 0.0
C346 C 0.11985 0.47982 0.48734 0.0
C347 C 0.10675 0.44928 0.4837 0.0
C348 C 0.12442 0.43703 0.47504 0.0
C349 C 0.14974 0.49753 0.48007 0.0
N350 N 0.16662 0.4855 0.46983 0.0
H351 H 0.16703 0.44602 0.45771 0.0
H352 H 0.15888 0.52111 0.48033 0.0
H353 H 0.21259 0.45207 0.45035 0.0
H354 H 0.25401 0.53193 0.50781 0.0
O355 O 0.20158 0.48627 0.40585 0.0
O356 O 0.24053 0.53011 0.41728 0.0
O357 O 0.21517 0.54155 0.48777 0.0
C358 C 0.22737 0.50716 0.39533 0.0
H359 H 0.18401 0.58663 0.39133 0.0
H360 H 0.25565 0.45404 0.49153 0.0
H361 H 0.1068 0.49003 0.49403 0.0
H362 H 0.11484 0.41348 0.47139 0.0
Co363 Co 0.68815 0.20532 0.92699 0.0
C364 C 0.63752 0.1663 0.87818 0.0
C365 C 0.63028 0.19754 0.90856 0.0
C366 C 0.60602 0.18074 0.88669 0.0
N367 N 0.64992 0.18839 0.90339 0.0
N368 N 0.61053 0.16112 0.86752 0.0
H369 H 0.64828 0.15477 0.8674 0.0
H370 H 0.63366 0.21581 0.92609 0.0
C371 C 0.66825 0.21145 0.005 0.0
O372 O 0.67734 0.1948 0.02093 0.0
N373 N 0.72663 0.22401 0.95109 0.0
C374 C 0.75175 0.22488 0.94003 0.0
C375 C 0.77525 0.24714 0.95924 0.0
C376 C 0.73553 0.24621 0.97599 0.0
N377 N 0.76483 0.26045 0.98192 0.0
C378 C 0.69452 0.15532 0.94394 0.0
C379 C 0.6383 0.12088 0.97228 0.0
C380 C 0.656 0.10826 0.96616 0.0
C381 C 0.68471 0.12595 0.95287 0.0
C382 C 0.64914 0.15045 0.96364 0.0
N383 N 0.67686 0.1673 0.94925 0.0
H384 H 0.71556 0.16771 0.93042 0.0
H385 H 0.63459 0.15938 0.96671 0.0
H386 H 0.75355 0.21242 0.91704 0.0
H387 H 0.72161 0.25456 0.98586 0.0
O388 O 0.70448 0.20079 0.8806 0.0
O389 O 0.70116 0.24007 0.89638 0.0
O390 O 0.67162 0.21714 0.96996 0.0
C391 C 0.70827 0.2265 0.87144 0.0
H392 H 0.58729 0.184 0.88346 0.0
H393 H 0.79831 0.25446 0.95453 0.0
H394 H 0.61588 0.10772 0.98234 0.0
H395 H 0.69871 0.11666 0.94701 0.0
H396 H 0.37327 0.3068 0.92443 0.0
H397 H 0.30305 0.36768 0.07221 0.0
H398 H 0.38986 0.31244 0.04377 0.0
H399 H 0.30614 0.38291 0.9527 0.0
H400 H 0.32183 0.3341 0.06183 0.0
H401 H 0.33624 0.32123 0.93486 0.0
C402 C 0.36861 0.31034 0.95298 0.0
C403 C 0.38488 0.30867 0.98332 0.0
C404 C 0.31787 0.34435 0.03782 0.0
C405 C 0.34288 0.32573 0.99522 0.0
C406 C 0.30687 0.36334 0.04363 0.0
C407 C 0.30331 0.37838 0.01323 0.0
C408 C 0.32543 0.34042 0.0014 0.0
C409 C 0.30906 0.37216 0.97694 0.0
C410 C 0.34761 0.3188 0.95883 0.0
C411 C 0.37815 0.31394 0.01958 0.0
N412 N 0.32021 0.3539 0.97205 0.0
N413 N 0.35785 0.32257 0.0245 0.0
H414 H 0.92153 0.38404 0.45305 0.0
H415 H 0.07332 0.39853 0.52369 0.0
H416 H 0.92848 0.34064 0.55243 0.0
H417 H 0.06704 0.45811 0.44561 0.0
H418 H 0.0192 0.36999 0.52669 0.0
H419 H 0.97417 0.40428 0.44193 0.0
C420 C 0.9341 0.37866 0.47242 0.0
C421 C 0.92068 0.36093 0.50394 0.0
C422 C 0.02975 0.38925 0.50881 0.0
C423 C 0.98077 0.38379 0.49127 0.0
C424 C 0.06049 0.40542 0.50708 0.0
C425 C 0.07442 0.43087 0.48493 0.0
C426 C 0.01311 0.39853 0.48781 0.0
C427 C 0.05702 0.43892 0.46367 0.0
C428 C 0.96409 0.39012 0.466 0.0
C429 C 0.93788 0.35409 0.52766 0.0
N430 N 0.02725 0.42285 0.46573 0.0
N431 N 0.96714 0.36575 0.52101 0.0
H432 H 0.60647 0.06562 0.93298 0.0
H433 H 0.59647 0.93441 0.05041 0.0
H434 H 0.67745 0.07841 0.00636 0.0
H435 H 0.55262 0.92141 0.94349 0.0
H436 H 0.62675 0.98675 0.03608 0.0
H437 H 0.58525 0.01237 0.93867 0.0
C438 C 0.61748 0.05708 0.9504 0.0
C439 C 0.64345 0.07619 0.96964 0.0
C440 C 0.61085 0.9723 0.01552 0.0
C441 C 0.6195 0.01552 0.97618 0.0
C442 C 0.59366 0.94234 0.02352 0.0
C443 C 0.57159 0.92347 0.99834 0.0
C444 C 0.60558 0.98348 0.98246 0.0
C445 C 0.5688 0.93523 0.96417 0.0
C446 C 0.60559 0.02678 0.95332 0.0
C447 C 0.65726 0.06421 0.99131 0.0
N448 N 0.58521 0.96457 0.95753 0.0
N449 N 0.64487 0.0345 0.99446 0.0
H450 H 0.612 0.53173 0.45177 0.0
H451 H 0.59002 0.66835 0.50219 0.0
H452 H 0.65707 0.5913 0.54356 0.0
H453 H 0.5325 0.59675 0.42923 0.0
H454 H 0.62043 0.6452 0.51077 0.0
H455 H 0.58842 0.56041 0.43603 0.0
C456 C 0.61701 0.55092 0.46854 0.0
C457 C 0.63621 0.5589 0.49933 0.0
C458 C 0.60121 0.63467 0.49279 0.0
C459 C 0.60943 0.59194 0.48134 0.0
C460 C 0.58395 0.64788 0.48782 0.0
C461 C 0.55857 0.6342 0.46537 0.0
C462 C 0.5931 0.60781 0.47483 0.0
C463 C 0.5516 0.60771 0.44735 0.0
C464 C 0.60361 0.56733 0.45948 0.0
C465 C 0.64247 0.5844 0.51952 0.0
N466 N 0.56873 0.59535 0.45254 0.0
N467 N 0.6289 0.5999 0.51035 0.0
H468 H 0.05325 0.60359 0.07665 0.0
H469 H 0.93218 0.62717 0.97381 0.0
H470 H 0.074 0.68365 0.01787 0.0
H471 H 0.91232 0.5534 0.04609 0.0
H472 H 0.98338 0.65127 0.99528 0.0
H473 H 0.00093 0.58708 0.07014 0.0
C474 C 0.04671 0.61762 0.0622 0.0
C475 C 0.06786 0.64476 0.04719 0.0
C476 C 0.96766 0.63008 0.00699 0.0
C477 C 0.00804 0.62622 0.03995 0.0
C478 C 0.93845 0.61634 0.99477 0.0
C479 C 0.91807 0.58805 0.00775 0.0
C480 C 0.9765 0.61525 0.03203 0.0
C481 C 0.92723 0.57521 0.03533 0.0
C482 C 0.01686 0.60836 0.05884 0.0
C483 C 0.05829 0.66247 0.02963 0.0
N484 N 0.95589 0.58868 0.04604 0.0
N485 N 0.029 0.65273 0.02608 0.0
H486 H 0.37018 0.91686 0.56125 0.0
H487 H 0.39508 0.07137 0.48605 0.0
H488 H 0.32982 0.92577 0.46012 0.0
H489 H 0.4503 0.06098 0.56737 0.0
H490 H 0.36258 0.01757 0.48518 0.0
H491 H 0.39068 0.96935 0.57341 0.0
C492 C 0.36538 0.92984 0.54186 0.0
C493 C 0.34876 0.91715 0.50933 0.0
C494 C 0.3817 0.02718 0.50339 0.0
C495 C 0.37214 0.97706 0.52291 0.0
C496 C 0.40015 0.05771 0.50386 0.0
C497 C 0.42557 0.07029 0.52621 0.0
C498 C 0.3887 0.00945 0.52583 0.0
C499 C 0.43122 0.05193 0.54909 0.0
C500 C 0.37703 0.95974 0.5488 0.0
C501 C 0.34258 0.93475 0.48552 0.0
N502 N 0.413 0.0224 0.54818 0.0
N503 N 0.35466 0.96399 0.4925 0.0
H504 H 0.28637 0.56295 0.00132 0.0
H505 H 0.15927 0.60281 0.98028 0.0
H506 H 0.19358 0.4995 0.00899 0.0
H507 H 0.2517 0.66638 0.98989 0.0
H508 H 0.17175 0.56391 0.97113 0.0
H509 H 0.27424 0.59972 0.97951 0.0
C510 C 0.26341 0.55675 0.9984 0.0
C511 C 0.24092 0.52834 0.00795 0.0
C512 C 0.18936 0.58651 0.97393 0.0
C513 C 0.22683 0.57028 0.98255 0.0
C514 C 0.18224 0.60872 0.97852 0.0
C515 C 0.20457 0.63764 0.98561 0.0
C516 C 0.21896 0.59351 0.97676 0.0
C517 C 0.23395 0.64423 0.98425 0.0
C518 C 0.25649 0.57768 0.98558 0.0
C519 C 0.21157 0.52123 0.00229 0.0
N520 N 0.24031 0.62224 0.98059 0.0
N521 N 0.20533 0.54221 0.99052 0.0
H522 H 0.55337 0.15355 0.47756 0.0
H523 H 0.72296 0.26624 0.439 0.0
H524 H 0.5892 0.2456 0.45253 0.0
H525 H 0.69157 0.1943 0.51781 0.0
H526 H 0.6722 0.24829 0.41854 0.0
H527 H 0.60218 0.15898 0.46698 0.0
C528 C 0.57129 0.17459 0.46828 0.0
C529 C 0.56755 0.19921 0.46573 0.0
C530 C 0.67659 0.23602 0.43956 0.0
C531 C 0.62295 0.20553 0.45383 0.0
C532 C 0.70547 0.24623 0.45132 0.0
C533 C 0.71138 0.23233 0.48108 0.0
C534 C 0.65353 0.2115 0.45733 0.0
C535 C 0.68803 0.20597 0.49522 0.0
C536 C 0.59906 0.17769 0.4625 0.0
C537 C 0.59137 0.22614 0.4544 0.0
N538 N 0.65996 0.1967 0.48373 0.0
N539 N 0.61825 0.22869 0.44917 0.0
H540 H 0.48958 0.69287 0.02536 0.0
H541 H 0.3303 0.56611 0.95964 0.0
H542 H 0.42236 0.70926 0.98121 0.0
H543 H 0.3909 0.55151 0.02576 0.0
H544 H 0.36864 0.61783 0.95201 0.0
H545 H 0.45845 0.64066 0.01054 0.0
C546 C 0.4685 0.68559 0.01196 0.0
C547 C 0.45833 0.70537 0.00513 0.0
C548 C 0.3737 0.60313 0.96752 0.0
C549 C 0.42246 0.64559 0.98834 0.0
C550 C 0.35192 0.57358 0.9716 0.0
C551 C 0.35738 0.55469 0.99377 0.0
C552 C 0.40106 0.61363 0.98554 0.0
C553 C 0.3857 0.56551 0.00886 0.0
C554 C 0.45065 0.65574 0.00366 0.0
C555 C 0.43072 0.69462 0.9878 0.0
N556 N 0.40637 0.59432 0.00484 0.0
N557 N 0.41361 0.66542 0.98035 0.0
H558 H 0.72965 0.46039 0.43067 0.0
H559 H 0.83772 0.39629 0.45697 0.0
H560 H 0.80686 0.50107 0.50113 0.0
H561 H 0.74295 0.34438 0.45371 0.0
H562 H 0.83449 0.44061 0.44354 0.0
H563 H 0.74405 0.4251 0.40883 0.0
C564 C 0.7502 0.46251 0.44052 0.0
C565 C 0.76666 0.48306 0.46855 0.0
C566 C 0.81454 0.41932 0.44425 0.0
C567 C 0.78332 0.44314 0.44342 0.0
C568 C 0.81633 0.39407 0.45162 0.0
C569 C 0.7905 0.36685 0.45634 0.0
C570 C 0.78676 0.41695 0.44087 0.0
C571 C 0.76329 0.36504 0.44998 0.0
C572 C 0.75835 0.44241 0.42806 0.0
C573 C 0.79339 0.48534 0.47986 0.0
N574 N 0.76209 0.38987 0.44285 0.0
N575 N 0.80061 0.46508 0.46787 0.0
H576 H 0.43587 0.84 0.97203 0.0
H577 H 0.29989 0.80754 0.03245 0.0
H578 H 0.39367 0.74534 0.97306 0.0
H579 H 0.26451 0.7298 0.96303 0.0
H580 H 0.34868 0.8234 0.00665 0.0
H581 H 0.3877 0.83627 0.96341 0.0
C582 C 0.41653 0.81844 0.96893 0.0
C583 C 0.41848 0.79288 0.97331 0.0
C584 C 0.3301 0.80341 0.99594 0.0
C585 C 0.36358 0.78847 0.96484 0.0
C586 C 0.30215 0.79432 0.01079 0.0
C587 C 0.27824 0.76689 0.00068 0.0
C588 C 0.33406 0.78475 0.97117 0.0
C589 C 0.28259 0.75065 0.97251 0.0
C590 C 0.38907 0.81634 0.96452 0.0
C591 C 0.39291 0.76548 0.96954 0.0
N592 N 0.31012 0.75933 0.95963 0.0
N593 N 0.36634 0.76396 0.96601 0.0
H594 H 0.66103 0.40285 0.46179 0.0
H595 H 0.54161 0.26853 0.43259 0.0
H596 H 0.60306 0.43899 0.46017 0.0
H597 H 0.50143 0.30631 0.50181 0.0
H598 H 0.57845 0.31804 0.41204 0.0
H599 H 0.61937 0.35452 0.44618 0.0
C600 C 0.63964 0.40069 0.45654 0.0
C601 C 0.63528 0.42467 0.4617 0.0
C602 C 0.56125 0.31542 0.43121 0.0
C603 C 0.58742 0.36959 0.44501 0.0
C604 C 0.54017 0.28725 0.44275 0.0
C605 C 0.51906 0.28346 0.46981 0.0
C606 C 0.56122 0.3399 0.44705 0.0
C607 C 0.51758 0.30828 0.48135 0.0
C608 C 0.61585 0.37317 0.44754 0.0
C609 C 0.60714 0.42088 0.45577 0.0
N610 N 0.53886 0.33561 0.47049 0.0
N611 N 0.58398 0.39356 0.44878 0.0
H612 H 0.34309 0.74424 0.55509 0.0
H613 H 0.50308 0.8076 0.49554 0.0
H614 H 0.39892 0.83768 0.53965 0.0
H615 H 0.45936 0.72863 0.5624 0.0
H616 H 0.46887 0.82257 0.51985 0.0
H617 H 0.38684 0.73996 0.56705 0.0
C618 C 0.36457 0.76399 0.55581 0.0
C619 C 0.36762 0.79132 0.54669 0.0
C620 C 0.46731 0.80238 0.53013 0.0
C621 C 0.41771 0.78658 0.55822 0.0
C622 C 0.48698 0.79392 0.51636 0.0
C623 C 0.48348 0.76644 0.52619 0.0
C624 C 0.44383 0.78296 0.5533 0.0
C625 C 0.46218 0.7496 0.55331 0.0
C626 C 0.38957 0.76161 0.56238 0.0
C627 C 0.39584 0.81625 0.54686 0.0
N628 N 0.4426 0.75768 0.56511 0.0
N629 N 0.41996 0.81321 0.5515 0.0
H630 H 0.71963 0.43628 0.0184 0.0
H631 H 0.57122 0.34086 0.04655 0.0
H632 H 0.69473 0.49751 0.97462 0.0
H633 H 0.56049 0.39854 0.96982 0.0
H634 H 0.6224 0.37937 0.05681 0.0
H635 H 0.66857 0.40291 0.03539 0.0
C636 C 0.70343 0.44291 0.01293 0.0
C637 C 0.71141 0.46949 0.99436 0.0
C638 C 0.60893 0.3837 0.03776 0.0
C639 C 0.65262 0.43159 0.01466 0.0
C640 C 0.5795 0.36184 0.03242 0.0
C641 C 0.56184 0.36633 0.00669 0.0
C642 C 0.62062 0.41003 0.01695 0.0
C643 C 0.57357 0.39394 0.9893 0.0
C644 C 0.67417 0.42394 0.02316 0.0
C645 C 0.68963 0.47724 0.98874 0.0
N646 N 0.60228 0.41456 0.99437 0.0
N647 N 0.66118 0.45814 0.99821 0.0
H648 H 0.25875 0.58755 0.54341 0.0
H649 H 0.19526 0.68568 0.49765 0.0
H650 H 0.16444 0.54983 0.54095 0.0
H651 H 0.2737 0.71907 0.56567 0.0
H652 H 0.18096 0.63577 0.51812 0.0
H653 H 0.26405 0.63579 0.55682 0.0
C654 C 0.23917 0.58937 0.5471 0.0
C655 C 0.21118 0.56498 0.54146 0.0
C656 C 0.20088 0.65414 0.5294 0.0
C657 C 0.21694 0.6199 0.55482 0.0
C658 C 0.20903 0.68267 0.51777 0.0
C659 C 0.23619 0.70647 0.52905 0.0
C660 C 0.22031 0.64953 0.55183 0.0
C661 C 0.25308 0.70118 0.55526 0.0
C662 C 0.24212 0.61681 0.55462 0.0
C663 C 0.18637 0.5683 0.54555 0.0
N664 N 0.24532 0.67319 0.56493 0.0
N665 N 0.18983 0.59552 0.55097 0.0
H666 H 0.6178 0.17565 0.04342 0.0
H667 H 0.50643 0.202 0.99552 0.0
H668 H 0.6738 0.26539 0.00792 0.0
H669 H 0.57051 0.29457 0.00257 0.0
H670 H 0.54299 0.1905 0.01976 0.0
H671 H 0.57725 0.18577 0.05182 0.0
C672 C 0.6218 0.1978 0.03888 0.0
C673 C 0.64889 0.21971 0.02467 0.0
C674 C 0.54897 0.21338 0.01716 0.0
C675 C 0.6025 0.23102 0.03176 0.0
C676 C 0.52805 0.21993 0.00292 0.0
C677 C 0.5356 0.24925 0.99623 0.0
C678 C 0.57769 0.2364 0.02486 0.0
C679 C 0.56399 0.27162 0.00618 0.0
C680 C 0.59847 0.20342 0.04271 0.0
C681 C 0.65304 0.24793 0.01871 0.0
N682 N 0.58408 0.2647 0.01946 0.0
N683 N 0.62992 0.25265 0.02164 0.0
H684 H 0.40188 0.65429 0.53105 0.0
H685 H 0.30922 0.49164 0.49344 0.0
H686 H 0.44578 0.60343 0.52445 0.0
H687 H 0.27731 0.53348 0.56937 0.0
H688 H 0.35987 0.52953 0.50846 0.0
H689 H 0.35626 0.60967 0.54884 0.0
C690 C 0.40201 0.6338 0.53456 0.0
C691 C 0.42737 0.63231 0.5267 0.0
C692 C 0.34177 0.5298 0.52283 0.0
C693 C 0.37535 0.5812 0.54524 0.0
C694 C 0.31287 0.50807 0.51441 0.0
C695 C 0.28911 0.50993 0.52953 0.0
C696 C 0.34665 0.5536 0.54587 0.0
C697 C 0.29513 0.53179 0.55646 0.0
C698 C 0.37608 0.60838 0.54466 0.0
C699 C 0.42654 0.60529 0.53077 0.0
N700 N 0.32328 0.55335 0.5629 0.0
N701 N 0.40064 0.5805 0.53878 0.0
H702 H 0.74787 0.27961 0.0423 0.0
H703 H 0.77633 0.41976 0.01149 0.0
H704 H 0.81809 0.30661 0.96154 0.0
H705 H 0.86755 0.44411 0.9966 0.0
H706 H 0.76489 0.36979 0.02709 0.0
H707 H 0.76699 0.33126 0.05928 0.0
C708 C 0.76768 0.29638 0.02871 0.0
C709 C 0.78083 0.28891 0.99956 0.0
C710 C 0.78762 0.38631 0.02182 0.0
C711 C 0.80256 0.34781 0.01856 0.0
C712 C 0.79409 0.4148 0.01266 0.0
C713 C 0.82283 0.43598 0.00234 0.0
C714 C 0.80997 0.37889 0.0199 0.0
C715 C 0.84504 0.42841 0.00424 0.0
C716 C 0.77844 0.32579 0.03827 0.0
C717 C 0.80697 0.31136 0.98372 0.0
N718 N 0.83798 0.40022 0.0117 0.0
N719 N 0.8167 0.33992 0.99294 0.0
H720 H 0.20877 0.45863 0.35167 0.0
H721 H 0.30958 0.54476 0.17476 0.0
H722 H 0.27274 0.55142 0.35483 0.0
H723 H 0.24931 0.45106 0.17845 0.0
H724 H 0.29665 0.54851 0.24003 0.0
H725 H 0.22431 0.45606 0.28815 0.0
C726 C 0.22632 0.47848 0.33907 0.0
C727 C 0.23945 0.5053 0.35857 0.0
C728 C 0.28625 0.52717 0.22647 0.0
C729 C 0.25722 0.5026 0.28524 0.0
C730 C 0.29348 0.52504 0.18918 0.0
C731 C 0.28041 0.49756 0.17111 0.0
C732 C 0.26578 0.50164 0.24569 0.0
C733 C 0.25989 0.4727 0.19119 0.0
C734 C 0.23516 0.47701 0.30266 0.0
C735 C 0.26213 0.53027 0.34081 0.0
N736 N 0.25324 0.47535 0.22729 0.0
N737 N 0.27019 0.52838 0.30496 0.0
H738 H 0.69735 0.19545 0.80652 0.0
H739 H 0.80061 0.32797 0.67671 0.0
H740 H 0.73901 0.28419 0.84952 0.0
H741 H 0.71868 0.25785 0.63313 0.0
H742 H 0.78376 0.31002 0.74066 0.0
H743 H 0.71052 0.21522 0.74251 0.0
C744 C 0.70954 0.2191 0.80245 0.0
C745 C 0.71738 0.2383 0.8332 0.0
C746 C 0.76939 0.29875 0.71712 0.0
C747 C 0.73252 0.26085 0.76049 0.0
C748 C 0.77896 0.30888 0.68079 0.0
C749 C 0.76085 0.29434 0.64996 0.0
C750 C 0.74195 0.27333 0.72247 0.0
C751 C 0.73306 0.2697 0.65641 0.0
C752 C 0.71672 0.23029 0.76602 0.0
C753 C 0.73268 0.26872 0.82647 0.0
N754 N 0.72457 0.2596 0.69208 0.0
N755 N 0.74014 0.27911 0.7908 0.0
H756 H 0.42666 0.74826 0.16648 0.0
H757 H 0.52412 0.7478 0.33885 0.0
H758 H 0.52151 0.80104 0.17069 0.0
H759 H 0.42993 0.71062 0.3469 0.0
H760 H 0.52314 0.7668 0.2767 0.0
H761 H 0.42676 0.7327 0.23149 0.0
C762 C 0.4475 0.75645 0.18099 0.0
C763 C 0.47414 0.77584 0.16306 0.0
C764 C 0.50267 0.75475 0.2921 0.0
C765 C 0.47439 0.75829 0.23736 0.0
C766 C 0.50323 0.74393 0.32766 0.0
C767 C 0.47707 0.72762 0.34804 0.0
C768 C 0.47566 0.74887 0.27638 0.0
C769 C 0.45063 0.72327 0.33218 0.0
C770 C 0.44751 0.74772 0.21815 0.0
C771 C 0.50045 0.78598 0.18331 0.0
N772 N 0.45054 0.73356 0.29704 0.0
N773 N 0.49991 0.777 0.21923 0.0
H774 H 0.73823 0.52702 0.65517 0.0
H775 H 0.75295 0.43639 0.82671 0.0
H776 H 0.70911 0.43431 0.64711 0.0
H777 H 0.79589 0.5312 0.8217 0.0
H778 H 0.73435 0.43397 0.76256 0.0
H779 H 0.75771 0.52797 0.71754 0.0
C780 C 0.73612 0.50685 0.66646 0.0
C781 C 0.72205 0.48055 0.64588 0.0
C782 C 0.74785 0.45526 0.7756 0.0
C783 C 0.74409 0.48137 0.71783 0.0
C784 C 0.75831 0.45664 0.81224 0.0
C785 C 0.77591 0.48403 0.82961 0.0
C786 C 0.7549 0.48145 0.75648 0.0
C787 C 0.78239 0.50959 0.80949 0.0
C788 C 0.74725 0.50739 0.70216 0.0
C789 C 0.71997 0.4551 0.66197 0.0
N790 N 0.77185 0.50765 0.77417 0.0
N791 N 0.73068 0.45607 0.69718 0.0
H792 H 0.26235 0.71449 0.37576 0.0
H793 H 0.27853 0.73705 0.15595 0.0
H794 H 0.31296 0.80201 0.32994 0.0
H795 H 0.1922 0.68655 0.20536 0.0
H796 H 0.29939 0.75353 0.21937 0.0
H797 H 0.24381 0.69575 0.31204 0.0
C798 C 0.26972 0.72961 0.35222 0.0
C799 C 0.28887 0.75976 0.35781 0.0
C800 C 0.27592 0.73871 0.2161 0.0
C801 C 0.26876 0.73862 0.28566 0.0
C802 C 0.2641 0.72935 0.18018 0.0
C803 C 0.23367 0.7108 0.17572 0.0
C804 C 0.25725 0.72849 0.24751 0.0
C805 C 0.21576 0.70124 0.20781 0.0
C806 C 0.25916 0.719 0.31615 0.0
C807 C 0.29789 0.77862 0.32661 0.0
N808 N 0.22784 0.70999 0.24249 0.0
N809 N 0.28794 0.76771 0.29171 0.0
H810 H 0.46604 0.21127 0.65158 0.0
H811 H 0.55456 0.31416 0.82611 0.0
H812 H 0.56041 0.26847 0.64965 0.0
H813 H 0.46029 0.25655 0.82169 0.0
H814 H 0.55823 0.29894 0.76189 0.0
H815 H 0.4644 0.22956 0.71359 0.0
C816 C 0.48648 0.22791 0.66415 0.0
C817 C 0.51343 0.23829 0.64543 0.0
C818 C 0.5368 0.28966 0.77509 0.0
C819 C 0.51178 0.25928 0.71717 0.0
C820 C 0.5347 0.2982 0.81176 0.0
C821 C 0.50708 0.28653 0.82931 0.0
C822 C 0.51107 0.26933 0.75602 0.0
C823 C 0.48205 0.26612 0.80937 0.0
C824 C 0.48554 0.23834 0.69973 0.0
C825 C 0.53916 0.25996 0.6631 0.0
N826 N 0.48467 0.25823 0.77394 0.0
N827 N 0.53775 0.26964 0.6982 0.0
H828 H 0.47453 0.62491 0.30014 0.0
H829 H 0.3549 0.47479 0.21237 0.0
H830 H 0.40759 0.55306 0.36456 0.0
H831 H 0.43033 0.53925 0.15038 0.0
H832 H 0.37922 0.49929 0.27079 0.0
H833 H 0.4651 0.59088 0.24775 0.0
C834 C 0.45847 0.6018 0.30354 0.0
C835 C 0.44126 0.59178 0.33611 0.0
C836 C 0.39082 0.5078 0.24452 0.0
C837 C 0.43 0.55298 0.27665 0.0
C838 C 0.37687 0.49379 0.21126 0.0
C839 C 0.39049 0.50525 0.17669 0.0
C840 C 0.41831 0.53389 0.24308 0.0
C841 C 0.41909 0.52975 0.17655 0.0
C842 C 0.45295 0.5824 0.27367 0.0
C843 C 0.42071 0.56169 0.33937 0.0
N844 N 0.43182 0.54368 0.20923 0.0
N845 N 0.41526 0.54345 0.30976 0.0
H846 H 0.90474 0.46138 0.83093 0.0
H847 H 0.8583 0.46164 0.61899 0.0
H848 H 0.85996 0.50627 0.79041 0.0
H849 H 0.86317 0.39022 0.67233 0.0
H850 H 0.88022 0.49179 0.67487 0.0
H851 H 0.9112 0.45035 0.76603 0.0
C852 C 0.89703 0.46965 0.80835 0.0
C853 C 0.88084 0.48382 0.81614 0.0
C854 C 0.87713 0.46976 0.67386 0.0
C855 C 0.88855 0.47169 0.74217 0.0
C856 C 0.86441 0.45243 0.64216 0.0
C857 C 0.85779 0.42292 0.64155 0.0
C858 C 0.88357 0.45762 0.70497 0.0
C859 C 0.86738 0.41263 0.67173 0.0
C860 C 0.90076 0.46338 0.77142 0.0
C861 C 0.87215 0.49489 0.78587 0.0
N862 N 0.8793 0.4298 0.7026 0.0
N863 N 0.87554 0.48801 0.75013 0.0
H864 H 0.43649 0.89634 0.15281 0.0
H865 H 0.36838 0.85585 0.32406 0.0
H866 H 0.48347 0.8556 0.20017 0.0
H867 H 0.45188 0.8718 0.36822 0.0
H868 H 0.39152 0.8738 0.26313 0.0
H869 H 0.42467 0.90479 0.21623 0.0
C870 C 0.44454 0.88932 0.17633 0.0
C871 C 0.45988 0.87391 0.17078 0.0
C872 C 0.40506 0.87438 0.28646 0.0
C873 C 0.44674 0.88401 0.24335 0.0
C874 C 0.39178 0.86402 0.32137 0.0
C875 C 0.40801 0.86151 0.35109 0.0
C876 C 0.43464 0.88196 0.28128 0.0
C877 C 0.4383 0.87237 0.34572 0.0
C878 C 0.43779 0.89425 0.21253 0.0
C879 C 0.47102 0.86687 0.2026 0.0
N880 N 0.45045 0.8813 0.31118 0.0
N881 N 0.46383 0.87158 0.23751 0.0
H882 H 0.48119 0.35943 0.78567 0.0
H883 H 0.62511 0.47873 0.68713 0.0
H884 H 0.54649 0.4371 0.84329 0.0
H885 H 0.54901 0.41388 0.62653 0.0
H886 H 0.59416 0.46945 0.74281 0.0
H887 H 0.50245 0.38316 0.72566 0.0
C888 C 0.49971 0.3817 0.78552 0.0
C889 C 0.51232 0.39621 0.81928 0.0
C890 C 0.58406 0.45777 0.71705 0.0
C891 C 0.53718 0.42342 0.75104 0.0
C892 C 0.60171 0.46322 0.68527 0.0
C893 C 0.58963 0.44647 0.65268 0.0
C894 C 0.55434 0.43528 0.71602 0.0
C895 C 0.55922 0.42662 0.65158 0.0
C896 C 0.51181 0.39533 0.75136 0.0
C897 C 0.53613 0.42518 0.8178 0.0
N898 N 0.54271 0.42111 0.68303 0.0
N899 N 0.54821 0.43764 0.78421 0.0
H900 H 0.13798 0.62603 0.2102 0.0
H901 H 0.14278 0.50286 0.32104 0.0
H902 H 0.12378 0.54557 0.15835 0.0
H903 H 0.13353 0.57185 0.37369 0.0
H904 H 0.12261 0.51057 0.26309 0.0
H905 H 0.12293 0.6006 0.2702 0.0
C906 C 0.13089 0.60279 0.21114 0.0
C907 C 0.13333 0.58821 0.1795 0.0
C908 C 0.12419 0.52352 0.28759 0.0
C909 C 0.11689 0.55912 0.2484 0.0
C910 C 0.1356 0.51897 0.32076 0.0
C911 C 0.14081 0.53751 0.35164 0.0
C912 C 0.11847 0.54703 0.28538 0.0
C913 C 0.13089 0.55789 0.3499 0.0
C914 C 0.12238 0.58822 0.24557 0.0
C915 C 0.12349 0.55797 0.18247 0.0
N916 N 0.12093 0.56268 0.31699 0.0
N917 N 0.11653 0.54461 0.21654 0.0
H918 H 0.62856 0.1431 0.80657 0.0
H919 H 0.55906 0.11548 0.64048 0.0
H920 H 0.55171 0.13849 0.85782 0.0
H921 H 0.51204 0.15295 0.69523 0.0
H922 H 0.56871 0.10087 0.7017 0.0
H923 H 0.60139 0.12489 0.74844 0.0
C924 C 0.60562 0.13727 0.80604 0.0
C925 C 0.5927 0.14321 0.83681 0.0
C926 C 0.55604 0.11202 0.70041 0.0
C927 C 0.56113 0.12224 0.76996 0.0
C928 C 0.55026 0.12004 0.66549 0.0
C929 C 0.53557 0.13621 0.66312 0.0
C930 C 0.54758 0.1209 0.73307 0.0
C931 C 0.52384 0.1409 0.69601 0.0
C932 C 0.5899 0.12669 0.77263 0.0
C933 C 0.56285 0.13525 0.8343 0.0
N934 N 0.53075 0.13393 0.72982 0.0
N935 N 0.54832 0.12595 0.80112 0.0
loop_
_geom_bond_atom_site_label_1
_geom_bond_atom_site_label_2
_geom_bond_distance
_geom_bond_site_symmetry_2
_ccdc_geom_bond_type
Co0 N4 2.148 . S
Co0 N10 2.128 . S
Co0 N20 2.194 . S
Co0 O25 2.351 . S
Co0 O26 2.155 . S
Co0 O27 2.096 . S
C1 N4 1.301 . S
C1 N5 1.328 . S
C1 H6 0.930 . S
C2 C3 1.333 . S
C2 N4 1.317 . S
C2 H7 0.930 . S
C3 C2 1.333 . S
C3 N5 1.350 . S
C3 H29 0.931 . S
N4 Co0 2.148 . S
N4 C1 1.301 . S
N4 C2 1.317 . S
N5 C1 1.328 . S
N5 C3 1.350 . S
H6 C1 0.930 . S
H7 C2 0.930 . S
C8 O9 1.224 . S
C8 O27 1.247 . S
O9 C8 1.224 . S
N10 Co0 2.128 . S
N10 C11 1.355 . S
N10 C13 1.311 . S
C11 N10 1.355 . S
C11 C12 1.363 1_554 S
C11 H23 0.929 . S
C12 C11 1.363 1_556 S
C12 N14 1.375 . S
C12 H30 0.931 . S
C13 N10 1.311 . S
C13 N14 1.347 1_554 S
C13 H24 0.929 . S
N14 C12 1.375 . S
N14 C13 1.347 1_556 S
C15 C18 1.365 . S
C15 N20 1.328 . S
C15 H21 0.929 . S
C16 C17 1.362 1_556 S
C16 C19 1.378 1_556 S
C16 H31 0.929 . S
C17 C16 1.362 1_554 S
C17 C18 1.366 . S
C18 C15 1.365 . S
C18 C17 1.366 . S
C18 H32 0.930 . S
C19 C16 1.378 1_554 S
C19 N20 1.315 . S
C19 H22 0.930 . S
N20 Co0 2.194 . S
N20 C15 1.328 . S
N20 C19 1.315 . S
H21 C15 0.929 . S
H22 C19 0.930 . S
H23 C11 0.929 . S
H24 C13 0.929 . S
O25 Co0 2.351 . S
O25 C28 1.244 . S
O26 Co0 2.155 . S
O26 C28 1.240 . S
O27 Co0 2.096 . S
O27 C8 1.247 . S
C28 O25 1.244 . S
C28 O26 1.240 . S
H29 C3 0.931 . S
H30 C12 0.931 . S
H31 C16 0.929 . S
H32 C18 0.930 . S
Co33 N37 2.148 . S
Co33 N43 2.128 . S
Co33 N53 2.194 . S
Co33 O58 2.351 . S
Co33 O59 2.155 . S
Co33 O60 2.096 . S
C34 N37 1.301 . S
C34 N38 1.328 . S
C34 H39 0.930 . S
C35 C36 1.333 . S
C35 N37 1.317 . S
C35 H40 0.930 . S
C36 C35 1.333 . S
C36 N38 1.350 . S
C36 H62 0.931 . S
N37 Co33 2.148 . S
N37 C34 1.301 . S
N37 C35 1.317 . S
N38 C34 1.328 . S
N38 C36 1.350 . S
H39 C34 0.930 . S
H40 C35 0.930 . S
C41 O42 1.224 . S
C41 O60 1.247 . S
O42 C41 1.224 . S
N43 Co33 2.128 . S
N43 C44 1.355 . S
N43 C46 1.311 . S
C44 N43 1.355 . S
C44 C45 1.363 . S
C44 H56 0.929 . S
C45 C44 1.363 . S
C45 N47 1.375 . S
C45 H63 0.931 . S
C46 N43 1.311 . S
C46 N47 1.347 . S
C46 H57 0.929 . S
N47 C45 1.375 . S
N47 C46 1.347 . S
C48 C51 1.365 . S
C48 N53 1.328 . S
C48 H54 0.929 . S
C49 C50 1.362 . S
C49 C52 1.378 . S
C49 H64 0.929 . S
C50 C49 1.362 . S
C50 C51 1.366 . S
C51 C48 1.365 . S
C51 C50 1.366 . S
C51 H65 0.930 . S
C52 C49 1.378 . S
C52 N53 1.315 . S
C52 H55 0.930 . S
N53 Co33 2.194 . S
N53 C48 1.328 . S
N53 C52 1.315 . S
H54 C48 0.929 . S
H55 C52 0.930 . S
H56 C44 0.929 . S
H57 C46 0.929 . S
O58 Co33 2.351 . S
O58 C61 1.244 . S
O59 Co33 2.155 . S
O59 C61 1.240 . S
O60 Co33 2.096 . S
O60 C41 1.247 . S
C61 O58 1.244 . S
C61 O59 1.240 . S
H62 C36 0.931 . S
H63 C45 0.931 . S
H64 C49 0.929 . S
H65 C51 0.930 . S
Co66 N70 2.148 . S
Co66 N76 2.128 . S
Co66 N86 2.194 . S
Co66 O91 2.351 . S
Co66 O92 2.155 . S
Co66 O93 2.096 . S
C67 N70 1.301 . S
C67 N71 1.328 . S
C67 H72 0.930 . S
C68 C69 1.333 . S
C68 N70 1.317 . S
C68 H73 0.930 . S
C69 C68 1.333 . S
C69 N71 1.350 . S
C69 H95 0.931 . S
N70 Co66 2.148 . S
N70 C67 1.301 . S
N70 C68 1.317 . S
N71 C67 1.328 . S
N71 C69 1.350 . S
H72 C67 0.930 . S
H73 C68 0.930 . S
C74 O75 1.224 . S
C74 O93 1.247 . S
O75 C74 1.224 . S
N76 Co66 2.128 . S
N76 C77 1.355 . S
N76 C79 1.311 . S
C77 N76 1.355 . S
C77 C78 1.363 1_554 S
C77 H89 0.929 . S
C78 C77 1.363 1_556 S
C78 N80 1.375 . S
C78 H96 0.931 . S
C79 N76 1.311 . S
C79 N80 1.347 1_554 S
C79 H90 0.929 . S
N80 C78 1.375 . S
N80 C79 1.347 1_556 S
C81 C84 1.365 . S
C81 N86 1.328 . S
C81 H87 0.929 . S
C82 C83 1.362 1_556 S
C82 C85 1.378 1_556 S
C82 H97 0.929 . S
C83 C82 1.362 1_554 S
C83 C84 1.366 . S
C84 C81 1.365 . S
C84 C83 1.366 . S
C84 H98 0.930 . S
C85 C82 1.378 1_554 S
C85 N86 1.315 . S
C85 H88 0.930 . S
N86 Co66 2.194 . S
N86 C81 1.328 . S
N86 C85 1.315 . S
H87 C81 0.929 . S
H88 C85 0.930 . S
H89 C77 0.929 . S
H90 C79 0.929 . S
O91 Co66 2.351 . S
O91 C94 1.244 . S
O92 Co66 2.155 . S
O92 C94 1.240 . S
O93 Co66 2.096 . S
O93 C74 1.247 . S
C94 O91 1.244 . S
C94 O92 1.240 . S
H95 C69 0.931 . S
H96 C78 0.931 . S
H97 C82 0.929 . S
H98 C84 0.930 . S
Co99 N103 2.148 . S
Co99 N109 2.128 . S
Co99 N119 2.194 . S
Co99 O124 2.351 . S
Co99 O125 2.155 . S
Co99 O126 2.096 . S
C100 N103 1.301 . S
C100 N104 1.328 . S
C100 H105 0.930 . S
C101 C102 1.333 . S
C101 N103 1.317 . S
C101 H106 0.930 . S
C102 C101 1.333 . S
C102 N104 1.350 . S
C102 H128 0.931 . S
N103 Co99 2.148 . S
N103 C100 1.301 . S
N103 C101 1.317 . S
N104 C100 1.328 . S
N104 C102 1.350 . S
H105 C100 0.930 . S
H106 C101 0.930 . S
C107 O108 1.224 . S
C107 O126 1.247 . S
O108 C107 1.224 . S
N109 Co99 2.128 . S
N109 C110 1.355 . S
N109 C112 1.311 . S
C110 N109 1.355 . S
C110 C111 1.363 . S
C110 H122 0.929 . S
C111 C110 1.363 . S
C111 N113 1.375 . S
C111 H129 0.931 . S
C112 N109 1.311 . S
C112 N113 1.347 . S
C112 H123 0.929 . S
N113 C111 1.375 . S
N113 C112 1.347 . S
C114 C117 1.365 . S
C114 N119 1.328 . S
C114 H120 0.929 . S
C115 C116 1.362 . S
C115 C118 1.378 . S
C115 H130 0.929 . S
C116 C115 1.362 . S
C116 C117 1.366 . S
C117 C114 1.365 . S
C117 C116 1.366 . S
C117 H131 0.930 . S
C118 C115 1.378 . S
C118 N119 1.315 . S
C118 H121 0.930 . S
N119 Co99 2.194 . S
N119 C114 1.328 . S
N119 C118 1.315 . S
H120 C114 0.929 . S
H121 C118 0.930 . S
H122 C110 0.929 . S
H123 C112 0.929 . S
O124 Co99 2.351 . S
O124 C127 1.244 . S
O125 Co99 2.155 . S
O125 C127 1.240 . S
O126 Co99 2.096 . S
O126 C107 1.247 . S
C127 O124 1.244 . S
C127 O125 1.240 . S
H128 C102 0.931 . S
H129 C111 0.931 . S
H130 C115 0.929 . S
H131 C117 0.930 . S
Co132 N136 2.148 . S
Co132 N142 2.128 . S
Co132 N152 2.194 . S
Co132 O157 2.351 . S
Co132 O158 2.155 . S
Co132 O159 2.096 . S
C133 N136 1.301 . S
C133 N137 1.328 . S
C133 H138 0.930 . S
C134 C135 1.333 . S
C134 N136 1.317 . S
C134 H139 0.930 . S
C135 C134 1.333 . S
C135 N137 1.350 . S
C135 H161 0.931 . S
N136 Co132 2.148 . S
N136 C133 1.301 . S
N136 C134 1.317 . S
N137 C133 1.328 . S
N137 C135 1.350 . S
H138 C133 0.930 . S
H139 C134 0.930 . S
C140 O141 1.224 . S
C140 O159 1.247 . S
O141 C140 1.224 . S
N142 Co132 2.128 . S
N142 C143 1.355 . S
N142 C145 1.311 . S
C143 N142 1.355 . S
C143 C144 1.363 1_554 S
C143 H155 0.929 . S
C144 C143 1.363 1_556 S
C144 N146 1.375 . S
C144 H162 0.931 . S
C145 N142 1.311 . S
C145 N146 1.347 1_554 S
C145 H156 0.929 . S
N146 C144 1.375 . S
N146 C145 1.347 1_556 S
C147 C150 1.365 . S
C147 N152 1.328 . S
C147 H153 0.929 . S
C148 C149 1.362 1_556 S
C148 C151 1.378 1_556 S
C148 H163 0.929 . S
C149 C148 1.362 1_554 S
C149 C150 1.366 . S
C150 C147 1.365 . S
C150 C149 1.366 . S
C150 H164 0.930 . S
C151 C148 1.378 1_554 S
C151 N152 1.315 . S
C151 H154 0.930 . S
N152 Co132 2.194 . S
N152 C147 1.328 . S
N152 C151 1.315 . S
H153 C147 0.929 . S
H154 C151 0.930 . S
H155 C143 0.929 . S
H156 C145 0.929 . S
O157 Co132 2.351 . S
O157 C160 1.244 . S
O158 Co132 2.155 . S
O158 C160 1.240 . S
O159 Co132 2.096 . S
O159 C140 1.247 . S
C160 O157 1.244 . S
C160 O158 1.240 . S
H161 C135 0.931 . S
H162 C144 0.931 . S
H163 C148 0.929 . S
H164 C150 0.930 . S
Co165 N169 2.148 . S
Co165 N175 2.128 . S
Co165 N185 2.194 . S
Co165 O190 2.351 . S
Co165 O191 2.155 . S
Co165 O192 2.096 . S
C166 N169 1.301 . S
C166 N170 1.328 . S
C166 H171 0.930 . S
C167 C168 1.333 . S
C167 N169 1.317 . S
C167 H172 0.930 . S
C168 C167 1.333 . S
C168 N170 1.350 . S
C168 H194 0.931 . S
N169 Co165 2.148 . S
N169 C166 1.301 . S
N169 C167 1.317 . S
N170 C166 1.328 . S
N170 C168 1.350 . S
H171 C166 0.930 . S
H172 C167 0.930 . S
C173 O174 1.224 . S
C173 O192 1.247 . S
O174 C173 1.224 . S
N175 Co165 2.128 . S
N175 C176 1.355 . S
N175 C178 1.311 . S
C176 N175 1.355 . S
C176 C177 1.363 . S
C176 H188 0.929 . S
C177 C176 1.363 . S
C177 N179 1.375 . S
C177 H195 0.931 . S
C178 N175 1.311 . S
C178 N179 1.347 . S
C178 H189 0.929 . S
N179 C177 1.375 . S
N179 C178 1.347 . S
C180 C183 1.365 . S
C180 N185 1.328 . S
C180 H186 0.929 . S
C181 C182 1.362 . S
C181 C184 1.378 . S
C181 H196 0.929 . S
C182 C181 1.362 . S
C182 C183 1.366 . S
C183 C180 1.365 . S
C183 C182 1.366 . S
C183 H197 0.930 . S
C184 C181 1.378 . S
C184 N185 1.315 . S
C184 H187 0.930 . S
N185 Co165 2.194 . S
N185 C180 1.328 . S
N185 C184 1.315 . S
H186 C180 0.929 . S
H187 C184 0.930 . S
H188 C176 0.929 . S
H189 C178 0.929 . S
O190 Co165 2.351 . S
O190 C193 1.244 . S
O191 Co165 2.155 . S
O191 C193 1.240 . S
O192 Co165 2.096 . S
O192 C173 1.247 . S
C193 O190 1.244 . S
C193 O191 1.240 . S
H194 C168 0.931 . S
H195 C177 0.931 . S
H196 C181 0.929 . S
H197 C183 0.930 . S
Co198 N202 2.148 . S
Co198 N208 2.128 . S
Co198 N218 2.194 . S
Co198 O223 2.351 . S
Co198 O224 2.155 . S
Co198 O225 2.096 . S
C199 N202 1.301 . S
C199 N203 1.328 . S
C199 H204 0.930 . S
C200 C201 1.333 . S
C200 N202 1.317 . S
C200 H205 0.930 . S
C201 C200 1.333 . S
C201 N203 1.350 . S
C201 H227 0.931 . S
N202 Co198 2.148 . S
N202 C199 1.301 . S
N202 C200 1.317 . S
N203 C199 1.328 . S
N203 C201 1.350 . S
H204 C199 0.930 . S
H205 C200 0.930 . S
C206 O207 1.224 . S
C206 O225 1.247 . S
O207 C206 1.224 . S
N208 Co198 2.128 . S
N208 C209 1.355 . S
N208 C211 1.311 . S
C209 N208 1.355 . S
C209 C210 1.363 . S
C209 H221 0.929 . S
C210 C209 1.363 . S
C210 N212 1.375 . S
C210 H228 0.931 . S
C211 N208 1.311 . S
C211 N212 1.347 . S
C211 H222 0.929 . S
N212 C210 1.375 . S
N212 C211 1.347 . S
C213 C216 1.365 . S
C213 N218 1.328 . S
C213 H219 0.929 . S
C214 C215 1.362 . S
C214 C217 1.378 . S
C214 H229 0.929 . S
C215 C214 1.362 . S
C215 C216 1.366 . S
C216 C213 1.365 . S
C216 C215 1.366 . S
C216 H230 0.930 . S
C217 C214 1.378 . S
C217 N218 1.315 . S
C217 H220 0.930 . S
N218 Co198 2.194 . S
N218 C213 1.328 . S
N218 C217 1.315 . S
H219 C213 0.929 . S
H220 C217 0.930 . S
H221 C209 0.929 . S
H222 C211 0.929 . S
O223 Co198 2.351 . S
O223 C226 1.244 . S
O224 Co198 2.155 . S
O224 C226 1.240 . S
O225 Co198 2.096 . S
O225 C206 1.247 . S
C226 O223 1.244 . S
C226 O224 1.240 . S
H227 C201 0.931 . S
H228 C210 0.931 . S
H229 C214 0.929 . S
H230 C216 0.930 . S
Co231 N235 2.148 . S
Co231 N241 2.128 . S
Co231 N251 2.194 . S
Co231 O256 2.351 . S
Co231 O257 2.155 . S
Co231 O258 2.096 . S
C232 N235 1.301 . S
C232 N236 1.328 . S
C232 H237 0.930 . S
C233 C234 1.333 . S
C233 N235 1.317 . S
C233 H238 0.930 . S
C234 C233 1.333 . S
C234 N236 1.350 . S
C234 H260 0.931 . S
N235 Co231 2.148 . S
N235 C232 1.301 . S
N235 C233 1.317 . S
N236 C232 1.328 . S
N236 C234 1.350 . S
H237 C232 0.930 . S
H238 C233 0.930 . S
C239 O240 1.224 . S
C239 O258 1.247 . S
O240 C239 1.224 . S
N241 Co231 2.128 . S
N241 C242 1.355 . S
N241 C244 1.311 . S
C242 N241 1.355 . S
C242 C243 1.363 1_556 S
C242 H254 0.929 . S
C243 C242 1.363 1_554 S
C243 N245 1.375 . S
C243 H261 0.931 . S
C244 N241 1.311 . S
C244 N245 1.347 1_556 S
C244 H255 0.929 . S
N245 C243 1.375 . S
N245 C244 1.347 1_554 S
C246 C249 1.365 . S
C246 N251 1.328 . S
C246 H252 0.929 . S
C247 C248 1.362 1_554 S
C247 C250 1.378 1_554 S
C247 H262 0.929 . S
C248 C247 1.362 1_556 S
C248 C249 1.366 . S
C249 C246 1.365 . S
C249 C248 1.366 . S
C249 H263 0.930 . S
C250 C247 1.378 1_556 S
C250 N251 1.315 . S
C250 H253 0.930 . S
N251 Co231 2.194 . S
N251 C246 1.328 . S
N251 C250 1.315 . S
H252 C246 0.929 . S
H253 C250 0.930 . S
H254 C242 0.929 . S
H255 C244 0.929 . S
O256 Co231 2.351 . S
O256 C259 1.244 . S
O257 Co231 2.155 . S
O257 C259 1.240 . S
O258 Co231 2.096 . S
O258 C239 1.247 . S
C259 O256 1.244 . S
C259 O257 1.240 . S
H260 C234 0.931 . S
H261 C243 0.931 . S
H262 C247 0.929 . S
H263 C249 0.930 . S
Co264 N268 2.148 . S
Co264 N274 2.128 . S
Co264 N284 2.194 . S
Co264 O289 2.351 . S
Co264 O290 2.155 . S
Co264 O291 2.096 . S
C265 N268 1.301 . S
C265 N269 1.328 . S
C265 H270 0.930 . S
C266 C267 1.333 . S
C266 N268 1.317 . S
C266 H271 0.930 . S
C267 C266 1.333 . S
C267 N269 1.350 . S
C267 H293 0.931 . S
N268 Co264 2.148 . S
N268 C265 1.301 . S
N268 C266 1.317 . S
N269 C265 1.328 . S
N269 C267 1.350 . S
H270 C265 0.930 . S
H271 C266 0.930 . S
C272 O273 1.224 . S
C272 O291 1.247 . S
O273 C272 1.224 . S
N274 Co264 2.128 . S
N274 C275 1.355 . S
N274 C277 1.311 . S
C275 N274 1.355 . S
C275 C276 1.363 . S
C275 H287 0.929 . S
C276 C275 1.363 . S
C276 N278 1.375 . S
C276 H294 0.931 . S
C277 N274 1.311 . S
C277 N278 1.347 . S
C277 H288 0.929 . S
N278 C276 1.375 . S
N278 C277 1.347 . S
C279 C282 1.365 . S
C279 N284 1.328 . S
C279 H285 0.929 . S
C280 C281 1.362 . S
C280 C283 1.378 . S
C280 H295 0.929 . S
C281 C280 1.362 . S
C281 C282 1.366 . S
C282 C279 1.365 . S
C282 C281 1.366 . S
C282 H296 0.930 . S
C283 C280 1.378 . S
C283 N284 1.315 . S
C283 H286 0.930 . S
N284 Co264 2.194 . S
N284 C279 1.328 . S
N284 C283 1.315 . S
H285 C279 0.929 . S
H286 C283 0.930 . S
H287 C275 0.929 . S
H288 C277 0.929 . S
O289 Co264 2.351 . S
O289 C292 1.244 . S
O290 Co264 2.155 . S
O290 C292 1.240 . S
O291 Co264 2.096 . S
O291 C272 1.247 . S
C292 O289 1.244 . S
C292 O290 1.240 . S
H293 C267 0.931 . S
H294 C276 0.931 . S
H295 C280 0.929 . S
H296 C282 0.930 . S
Co297 N301 2.148 . S
Co297 N307 2.128 . S
Co297 N317 2.194 . S
Co297 O322 2.351 . S
Co297 O323 2.155 . S
Co297 O324 2.096 . S
C298 N301 1.301 . S
C298 N302 1.328 . S
C298 H303 0.930 . S
C299 C300 1.333 . S
C299 N301 1.317 . S
C299 H304 0.930 . S
C300 C299 1.333 . S
C300 N302 1.350 . S
C300 H326 0.931 . S
N301 Co297 2.148 . S
N301 C298 1.301 . S
N301 C299 1.317 . S
N302 C298 1.328 . S
N302 C300 1.350 . S
H303 C298 0.930 . S
H304 C299 0.930 . S
C305 O306 1.224 . S
C305 O324 1.247 . S
O306 C305 1.224 . S
N307 Co297 2.128 . S
N307 C308 1.355 . S
N307 C310 1.311 . S
C308 N307 1.355 . S
C308 C309 1.363 1_556 S
C308 H320 0.929 . S
C309 C308 1.363 1_554 S
C309 N311 1.375 . S
C309 H327 0.931 . S
C310 N307 1.311 . S
C310 N311 1.347 1_556 S
C310 H321 0.929 . S
N311 C309 1.375 . S
N311 C310 1.347 1_554 S
C312 C315 1.365 . S
C312 N317 1.328 . S
C312 H318 0.929 . S
C313 C314 1.362 1_554 S
C313 C316 1.378 1_554 S
C313 H328 0.929 . S
C314 C313 1.362 1_556 S
C314 C315 1.366 . S
C315 C312 1.365 . S
C315 C314 1.366 . S
C315 H329 0.930 . S
C316 C313 1.378 1_556 S
C316 N317 1.315 . S
C316 H319 0.930 . S
N317 Co297 2.194 . S
N317 C312 1.328 . S
N317 C316 1.315 . S
H318 C312 0.929 . S
H319 C316 0.930 . S
H320 C308 0.929 . S
H321 C310 0.929 . S
O322 Co297 2.351 . S
O322 C325 1.244 . S
O323 Co297 2.155 . S
O323 C325 1.240 . S
O324 Co297 2.096 . S
O324 C305 1.247 . S
C325 O322 1.244 . S
C325 O323 1.240 . S
H326 C300 0.931 . S
H327 C309 0.931 . S
H328 C313 0.929 . S
H329 C315 0.930 . S
Co330 N334 2.148 . S
Co330 N340 2.128 . S
Co330 N350 2.194 . S
Co330 O355 2.351 . S
Co330 O356 2.155 . S
Co330 O357 2.096 . S
C331 N334 1.301 . S
C331 N335 1.328 . S
C331 H336 0.930 . S
C332 C333 1.333 . S
C332 N334 1.317 . S
C332 H337 0.930 . S
C333 C332 1.333 . S
C333 N335 1.350 . S
C333 H359 0.931 . S
N334 Co330 2.148 . S
N334 C331 1.301 . S
N334 C332 1.317 . S
N335 C331 1.328 . S
N335 C333 1.350 . S
H336 C331 0.930 . S
H337 C332 0.930 . S
C338 O339 1.224 . S
C338 O357 1.247 . S
O339 C338 1.224 . S
N340 Co330 2.128 . S
N340 C341 1.355 . S
N340 C343 1.311 . S
C341 N340 1.355 . S
C341 C342 1.363 . S
C341 H353 0.929 . S
C342 C341 1.363 . S
C342 N344 1.375 . S
C342 H360 0.931 . S
C343 N340 1.311 . S
C343 N344 1.347 . S
C343 H354 0.929 . S
N344 C342 1.375 . S
N344 C343 1.347 . S
C345 C348 1.365 . S
C345 N350 1.328 . S
C345 H351 0.929 . S
C346 C347 1.362 . S
C346 C349 1.378 . S
C346 H361 0.929 . S
C347 C346 1.362 . S
C347 C348 1.366 . S
C348 C345 1.365 . S
C348 C347 1.366 . S
C348 H362 0.930 . S
C349 C346 1.378 . S
C349 N350 1.315 . S
C349 H352 0.930 . S
N350 Co330 2.194 . S
N350 C345 1.328 . S
N350 C349 1.315 . S
H351 C345 0.929 . S
H352 C349 0.930 . S
H353 C341 0.929 . S
H354 C343 0.929 . S
O355 Co330 2.351 . S
O355 C358 1.244 . S
O356 Co330 2.155 . S
O356 C358 1.240 . S
O357 Co330 2.096 . S
O357 C338 1.247 . S
C358 O355 1.244 . S
C358 O356 1.240 . S
H359 C333 0.931 . S
H360 C342 0.931 . S
H361 C346 0.929 . S
H362 C348 0.930 . S
Co363 N367 2.148 . S
Co363 N373 2.128 . S
Co363 N383 2.194 . S
Co363 O388 2.351 . S
Co363 O389 2.155 . S
Co363 O390 2.096 . S
C364 N367 1.301 . S
C364 N368 1.328 . S
C364 H369 0.930 . S
C365 C366 1.333 . S
C365 N367 1.317 . S
C365 H370 0.930 . S
C366 C365 1.333 . S
C366 N368 1.350 . S
C366 H392 0.931 . S
N367 Co363 2.148 . S
N367 C364 1.301 . S
N367 C365 1.317 . S
N368 C364 1.328 . S
N368 C366 1.350 . S
H369 C364 0.930 . S
H370 C365 0.930 . S
C371 O372 1.224 . S
C371 O390 1.247 . S
O372 C371 1.224 . S
N373 Co363 2.128 . S
N373 C374 1.355 . S
N373 C376 1.311 . S
C374 N373 1.355 . S
C374 C375 1.363 1_556 S
C374 H386 0.929 . S
C375 C374 1.363 1_554 S
C375 N377 1.375 . S
C375 H393 0.931 . S
C376 N373 1.311 . S
C376 N377 1.347 1_556 S
C376 H387 0.929 . S
N377 C375 1.375 . S
N377 C376 1.347 1_554 S
C378 C381 1.365 . S
C378 N383 1.328 . S
C378 H384 0.929 . S
C379 C380 1.362 1_554 S
C379 C382 1.378 1_554 S
C379 H394 0.929 . S
C380 C379 1.362 1_556 S
C380 C381 1.366 . S
C381 C378 1.365 . S
C381 C380 1.366 . S
C381 H395 0.930 . S
C382 C379 1.378 1_556 S
C382 N383 1.315 . S
C382 H385 0.930 . S
N383 Co363 2.194 . S
N383 C378 1.328 . S
N383 C382 1.315 . S
H384 C378 0.929 . S
H385 C382 0.930 . S
H386 C374 0.929 . S
H387 C376 0.929 . S
O388 Co363 2.351 . S
O388 C391 1.244 . S
O389 Co363 2.155 . S
O389 C391 1.240 . S
O390 Co363 2.096 . S
O390 C371 1.247 . S
C391 O388 1.244 . S
C391 O389 1.240 . S
H392 C366 0.931 . S
H393 C375 0.931 . S
H394 C379 0.929 . S
H395 C381 0.930 . S
H396 C402 0.930 . S
H397 C406 0.930 . S
H398 C411 0.929 . S
H399 C409 0.929 . S
H400 C404 0.929 . S
H401 C410 0.929 . S
C402 H396 0.930 . S
C402 C403 1.367 1_556 S
C402 C410 1.378 . S
C403 C402 1.367 1_554 S
C403 C411 1.433 . S
C404 H400 0.929 . S
C404 C406 1.378 . S
C404 C408 1.348 1_554 S
C405 C408 1.462 1_554 S
C405 C410 1.348 1_554 S
C405 N413 1.429 . S
C406 H397 0.930 . S
C406 C404 1.378 . S
C406 C407 1.367 1_554 S
C407 C406 1.367 1_556 S
C407 C409 1.433 . S
C408 C404 1.348 1_556 S
C408 C405 1.462 1_556 S
C408 N412 1.429 . S
C409 H399 0.929 . S
C409 C407 1.433 . S
C409 N412 1.384 . S
C410 H401 0.929 . S
C410 C402 1.378 . S
C410 C405 1.348 1_556 S
C411 H398 0.929 . S
C411 C403 1.433 . S
C411 N413 1.384 . S
N412 C408 1.429 . S
N412 C409 1.384 . S
N413 C405 1.429 . S
N413 C411 1.384 . S
H414 C420 0.930 . S
H415 C424 0.930 . S
H416 C429 0.929 . S
H417 C427 0.929 . S
H418 C422 0.929 . S
H419 C428 0.929 . S
C420 H414 0.930 . S
C420 C421 1.367 . S
C420 C428 1.378 . S
C421 C420 1.367 . S
C421 C429 1.433 . S
C422 H418 0.929 . S
C422 C424 1.378 . S
C422 C426 1.350 . S
C423 C426 1.463 1_655 S
C423 C428 1.350 . S
C423 N431 1.427 . S
C424 H415 0.930 . S
C424 C422 1.378 . S
C424 C425 1.367 . S
C425 C424 1.367 . S
C425 C427 1.433 . S
C426 C422 1.350 . S
C426 C423 1.463 1_455 S
C426 N430 1.427 . S
C427 H417 0.929 . S
C427 C425 1.433 . S
C427 N430 1.384 . S
C428 H419 0.929 . S
C428 C420 1.378 . S
C428 C423 1.350 . S
C429 H416 0.929 . S
C429 C421 1.433 . S
C429 N431 1.384 . S
N430 C426 1.427 . S
N430 C427 1.384 . S
N431 C423 1.427 . S
N431 C429 1.384 . S
H432 C438 0.930 . S
H433 C442 0.930 . S
H434 C447 0.929 . S
H435 C445 0.929 . S
H436 C440 0.929 . S
H437 C446 0.929 . S
C438 H432 0.930 . S
C438 C439 1.367 1_556 S
C438 C446 1.378 . S
C439 C438 1.367 1_554 S
C439 C447 1.433 . S
C440 H436 0.929 . S
C440 C442 1.378 . S
C440 C444 1.347 1_554 S
C441 C444 1.462 1_544 S
C441 C446 1.348 1_554 S
C441 N449 1.430 . S
C442 H433 0.930 . S
C442 C440 1.378 . S
C442 C443 1.367 1_554 S
C443 C442 1.367 1_556 S
C443 C445 1.433 . S
C444 C440 1.347 1_556 S
C444 C441 1.462 1_566 S
C444 N448 1.431 . S
C445 H435 0.929 . S
C445 C443 1.433 . S
C445 N448 1.384 . S
C446 H437 0.929 . S
C446 C438 1.378 . S
C446 C441 1.348 1_556 S
C447 H434 0.929 . S
C447 C439 1.433 . S
C447 N449 1.384 . S
N448 C444 1.431 . S
N448 C445 1.384 . S
N449 C441 1.430 . S
N449 C447 1.384 . S
H450 C456 0.930 . S
H451 C460 0.930 . S
H452 C465 0.929 . S
H453 C463 0.929 . S
H454 C458 0.929 . S
H455 C464 0.929 . S
C456 H450 0.930 . S
C456 C457 1.367 . S
C456 C464 1.378 . S
C457 C456 1.367 . S
C457 C465 1.433 . S
C458 H454 0.929 . S
C458 C460 1.378 . S
C458 C462 1.350 . S
C459 C462 1.463 . S
C459 C464 1.350 . S
C459 N467 1.427 . S
C460 H451 0.930 . S
C460 C458 1.378 . S
C460 C461 1.367 . S
C461 C460 1.367 . S
C461 C463 1.433 . S
C462 C458 1.350 . S
C462 C459 1.463 . S
C462 N466 1.427 . S
C463 H453 0.929 . S
C463 C461 1.433 . S
C463 N466 1.384 . S
C464 H455 0.929 . S
C464 C456 1.378 . S
C464 C459 1.350 . S
C465 H452 0.929 . S
C465 C457 1.433 . S
C465 N467 1.384 . S
N466 C462 1.427 . S
N466 C463 1.384 . S
N467 C459 1.427 . S
N467 C465 1.384 . S
H468 C474 0.930 . S
H469 C478 0.930 . S
H470 C483 0.929 . S
H471 C481 0.929 . S
H472 C476 0.929 . S
H473 C482 0.929 . S
C474 H468 0.930 . S
C474 C475 1.367 . S
C474 C482 1.378 . S
C475 C474 1.367 . S
C475 C483 1.433 1_556 S
C476 H472 0.929 . S
C476 C478 1.378 . S
C476 C480 1.350 . S
C477 C480 1.463 1_456 S
C477 C482 1.350 . S
C477 N485 1.427 1_556 S
C478 H469 0.930 . S
C478 C476 1.378 . S
C478 C479 1.367 . S
C479 C478 1.367 . S
C479 C481 1.433 1_554 S
C480 C476 1.350 . S
C480 C477 1.463 1_654 S
C480 N484 1.427 1_554 S
C481 H471 0.929 . S
C481 C479 1.433 1_556 S
C481 N484 1.384 . S
C482 H473 0.929 . S
C482 C474 1.378 . S
C482 C477 1.350 . S
C483 H470 0.929 . S
C483 C475 1.433 1_554 S
C483 N485 1.384 . S
N484 C480 1.427 1_556 S
N484 C481 1.384 . S
N485 C477 1.427 1_554 S
N485 C483 1.384 . S
H486 C492 0.930 . S
H487 C496 0.930 . S
H488 C501 0.929 . S
H489 C499 0.929 . S
H490 C494 0.929 . S
H491 C500 0.929 . S
C492 H486 0.930 . S
C492 C493 1.367 . S
C492 C500 1.378 . S
C493 C492 1.367 . S
C493 C501 1.433 . S
C494 H490 0.929 . S
C494 C496 1.378 . S
C494 C498 1.350 . S
C495 C498 1.463 1_565 S
C495 C500 1.350 . S
C495 N503 1.427 . S
C496 H487 0.930 . S
C496 C494 1.378 . S
C496 C497 1.367 . S
C497 C496 1.367 . S
C497 C499 1.433 . S
C498 C494 1.350 . S
C498 C495 1.463 1_545 S
C498 N502 1.427 . S
C499 H489 0.929 . S
C499 C497 1.433 . S
C499 N502 1.384 . S
C500 H491 0.929 . S
C500 C492 1.378 . S
C500 C495 1.350 . S
C501 H488 0.929 . S
C501 C493 1.433 . S
C501 N503 1.384 . S
N502 C498 1.427 . S
N502 C499 1.384 . S
N503 C495 1.427 . S
N503 C501 1.384 . S
H504 C510 0.930 . S
H505 C514 0.930 . S
H506 C519 0.929 . S
H507 C517 0.929 . S
H508 C512 0.929 . S
H509 C518 0.929 1_554 S
C510 H504 0.930 . S
C510 C511 1.367 . S
C510 C518 1.378 . S
C511 C510 1.367 . S
C511 C519 1.433 . S
C512 H508 0.929 . S
C512 C514 1.378 1_556 S
C512 C516 1.350 1_556 S
C513 C516 1.463 1_556 S
C513 C518 1.350 . S
C513 N521 1.427 . S
C514 H505 0.930 . S
C514 C512 1.378 1_554 S
C514 C515 1.367 . S
C515 C514 1.367 . S
C515 C517 1.433 . S
C516 C512 1.350 1_554 S
C516 C513 1.463 1_554 S
C516 N520 1.427 . S
C517 H507 0.929 . S
C517 C515 1.433 . S
C517 N520 1.384 . S
C518 H509 0.929 1_556 S
C518 C510 1.378 . S
C518 C513 1.350 . S
C519 H506 0.929 . S
C519 C511 1.433 . S
C519 N521 1.384 . S
N520 C516 1.427 . S
N520 C517 1.384 . S
N521 C513 1.427 . S
N521 C519 1.384 . S
H522 C528 0.930 . S
H523 C532 0.930 . S
H524 C537 0.929 . S
H525 C535 0.929 . S
H526 C530 0.929 . S
H527 C536 0.929 . S
C528 H522 0.930 . S
C528 C529 1.367 . S
C528 C536 1.378 . S
C529 C528 1.367 . S
C529 C537 1.433 . S
C530 H526 0.929 . S
C530 C532 1.378 . S
C530 C534 1.350 . S
C531 C534 1.463 . S
C531 C536 1.350 . S
C531 N539 1.427 . S
C532 H523 0.930 . S
C532 C530 1.378 . S
C532 C533 1.367 . S
C533 C532 1.367 . S
C533 C535 1.433 . S
C534 C530 1.350 . S
C534 C531 1.463 . S
C534 N538 1.427 . S
C535 H525 0.929 . S
C535 C533 1.433 . S
C535 N538 1.384 . S
C536 H527 0.929 . S
C536 C528 1.378 . S
C536 C531 1.350 . S
C537 H524 0.929 . S
C537 C529 1.433 . S
C537 N539 1.384 . S
N538 C534 1.427 . S
N538 C535 1.384 . S
N539 C531 1.427 . S
N539 C537 1.384 . S
H540 C546 0.930 . S
H541 C550 0.930 . S
H542 C555 0.929 . S
H543 C553 0.929 . S
H544 C548 0.929 . S
H545 C554 0.929 . S
C546 H540 0.930 . S
C546 C547 1.367 . S
C546 C554 1.378 . S
C547 C546 1.367 . S
C547 C555 1.433 . S
C548 H544 0.929 . S
C548 C550 1.378 . S
C548 C552 1.350 . S
C549 C552 1.463 1_556 S
C549 C554 1.350 . S
C549 N557 1.427 . S
C550 H541 0.930 . S
C550 C548 1.378 . S
C550 C551 1.367 . S
C551 C550 1.367 . S
C551 C553 1.433 . S
C552 C548 1.350 . S
C552 C549 1.463 1_554 S
C552 N556 1.427 1_554 S
C553 H543 0.929 . S
C553 C551 1.433 . S
C553 N556 1.384 1_554 S
C554 H545 0.929 . S
C554 C546 1.378 . S
C554 C549 1.350 . S
C555 H542 0.929 . S
C555 C547 1.433 . S
C555 N557 1.384 . S
N556 C552 1.427 1_556 S
N556 C553 1.384 1_556 S
N557 C549 1.427 . S
N557 C555 1.384 . S
H558 C564 0.930 . S
H559 C568 0.930 . S
H560 C573 0.929 . S
H561 C571 0.929 . S
H562 C566 0.929 . S
H563 C572 0.929 . S
C564 H558 0.930 . S
C564 C565 1.367 . S
C564 C572 1.378 . S
C565 C564 1.367 . S
C565 C573 1.433 . S
C566 H562 0.929 . S
C566 C568 1.378 . S
C566 C570 1.350 . S
C567 C570 1.463 . S
C567 C572 1.350 . S
C567 N575 1.427 . S
C568 H559 0.930 . S
C568 C566 1.378 . S
C568 C569 1.367 . S
C569 C568 1.367 . S
C569 C571 1.433 . S
C570 C566 1.350 . S
C570 C567 1.463 . S
C570 N574 1.427 . S
C571 H561 0.929 . S
C571 C569 1.433 . S
C571 N574 1.384 . S
C572 H563 0.929 . S
C572 C564 1.378 . S
C572 C567 1.350 . S
C573 H560 0.929 . S
C573 C565 1.433 . S
C573 N575 1.384 . S
N574 C570 1.427 . S
N574 C571 1.384 . S
N575 C567 1.427 . S
N575 C573 1.384 . S
H576 C582 0.930 . S
H577 C586 0.930 . S
H578 C591 0.929 . S
H579 C589 0.929 . S
H580 C584 0.929 . S
H581 C590 0.929 . S
C582 H576 0.930 . S
C582 C583 1.367 1_556 S
C582 C590 1.378 . S
C583 C582 1.367 1_554 S
C583 C591 1.433 . S
C584 H580 0.929 . S
C584 C586 1.378 . S
C584 C588 1.350 1_554 S
C585 C588 1.458 1_554 S
C585 C590 1.338 1_554 S
C585 N593 1.445 . S
C586 H577 0.930 . S
C586 C584 1.378 . S
C586 C587 1.367 1_554 S
C587 C586 1.367 1_556 S
C587 C589 1.433 . S
C588 C584 1.350 1_556 S
C588 C585 1.458 1_556 S
C588 N592 1.427 . S
C589 H579 0.929 . S
C589 C587 1.433 . S
C589 N592 1.384 . S
C590 H581 0.929 . S
C590 C582 1.378 . S
C590 C585 1.338 1_556 S
C591 H578 0.929 . S
C591 C583 1.433 . S
C591 N593 1.384 . S
N592 C588 1.427 . S
N592 C589 1.384 . S
N593 C585 1.445 . S
N593 C591 1.384 . S
H594 C600 0.930 . S
H595 C604 0.930 . S
H596 C609 0.929 . S
H597 C607 0.929 . S
H598 C602 0.929 . S
H599 C608 0.929 . S
C600 H594 0.930 . S
C600 C601 1.367 . S
C600 C608 1.378 . S
C601 C600 1.367 . S
C601 C609 1.433 . S
C602 H598 0.929 . S
C602 C604 1.378 . S
C602 C606 1.350 . S
C603 C606 1.463 . S
C603 C608 1.350 . S
C603 N611 1.427 . S
C604 H595 0.930 . S
C604 C602 1.378 . S
C604 C605 1.367 . S
C605 C604 1.367 . S
C605 C607 1.433 . S
C606 C602 1.350 . S
C606 C603 1.463 . S
C606 N610 1.427 . S
C607 H597 0.929 . S
C607 C605 1.433 . S
C607 N610 1.384 . S
C608 H599 0.929 . S
C608 C600 1.378 . S
C608 C603 1.350 . S
C609 H596 0.929 . S
C609 C601 1.433 . S
C609 N611 1.384 . S
N610 C606 1.427 . S
N610 C607 1.384 . S
N611 C603 1.427 . S
N611 C609 1.384 . S
H612 C618 0.930 . S
H613 C622 0.930 . S
H614 C627 0.929 . S
H615 C625 0.929 . S
H616 C620 0.929 . S
H617 C626 0.929 . S
C618 H612 0.930 . S
C618 C619 1.367 . S
C618 C626 1.378 . S
C619 C618 1.367 . S
C619 C627 1.433 . S
C620 H616 0.929 . S
C620 C622 1.378 . S
C620 C624 1.350 . S
C621 C624 1.463 . S
C621 C626 1.350 . S
C621 N629 1.427 . S
C622 H613 0.930 . S
C622 C620 1.378 . S
C622 C623 1.367 . S
C623 C622 1.367 . S
C623 C625 1.433 . S
C624 C620 1.350 . S
C624 C621 1.463 . S
C624 N628 1.427 . S
C625 H615 0.929 . S
C625 C623 1.433 . S
C625 N628 1.384 . S
C626 H617 0.929 . S
C626 C618 1.378 . S
C626 C621 1.350 . S
C627 H614 0.929 . S
C627 C619 1.433 . S
C627 N629 1.384 . S
N628 C624 1.427 . S
N628 C625 1.384 . S
N629 C621 1.427 . S
N629 C627 1.384 . S
H630 C636 0.930 . S
H631 C640 0.930 . S
H632 C645 0.929 . S
H633 C643 0.929 . S
H634 C638 0.929 . S
H635 C644 0.929 . S
C636 H630 0.930 . S
C636 C637 1.367 . S
C636 C644 1.378 . S
C637 C636 1.367 . S
C637 C645 1.433 1_554 S
C638 H634 0.929 . S
C638 C640 1.378 . S
C638 C642 1.350 . S
C639 C642 1.463 1_554 S
C639 C644 1.350 . S
C639 N647 1.427 1_554 S
C640 H631 0.930 . S
C640 C638 1.378 . S
C640 C641 1.367 . S
C641 C640 1.367 . S
C641 C643 1.433 1_556 S
C642 C638 1.350 . S
C642 C639 1.463 1_556 S
C642 N646 1.427 1_556 S
C643 H633 0.929 . S
C643 C641 1.433 1_554 S
C643 N646 1.384 . S
C644 H635 0.929 . S
C644 C636 1.378 . S
C644 C639 1.350 . S
C645 H632 0.929 . S
C645 C637 1.433 1_556 S
C645 N647 1.384 . S
N646 C642 1.427 1_554 S
N646 C643 1.384 . S
N647 C639 1.427 1_556 S
N647 C645 1.384 . S
H648 C654 0.930 . S
H649 C658 0.930 . S
H650 C663 0.929 . S
H651 C661 0.929 . S
H652 C656 0.929 . S
H653 C662 0.929 . S
C654 H648 0.930 . S
C654 C655 1.367 . S
C654 C662 1.378 . S
C655 C654 1.367 . S
C655 C663 1.433 . S
C656 H652 0.929 . S
C656 C658 1.378 . S
C656 C660 1.350 . S
C657 C660 1.463 . S
C657 C662 1.350 . S
C657 N665 1.427 . S
C658 H649 0.930 . S
C658 C656 1.378 . S
C658 C659 1.367 . S
C659 C658 1.367 . S
C659 C661 1.433 . S
C660 C656 1.350 . S
C660 C657 1.463 . S
C660 N664 1.427 . S
C661 H651 0.929 . S
C661 C659 1.433 . S
C661 N664 1.384 . S
C662 H653 0.929 . S
C662 C654 1.378 . S
C662 C657 1.350 . S
C663 H650 0.929 . S
C663 C655 1.433 . S
C663 N665 1.384 . S
N664 C660 1.427 . S
N664 C661 1.384 . S
N665 C657 1.427 . S
N665 C663 1.384 . S
H666 C672 0.930 . S
H667 C676 0.930 . S
H668 C681 0.929 . S
H669 C679 0.929 . S
H670 C674 0.929 . S
H671 C680 0.929 . S
C672 H666 0.930 . S
C672 C673 1.367 1_554 S
C672 C680 1.378 . S
C673 C672 1.367 1_556 S
C673 C681 1.433 . S
C674 H670 0.929 . S
C674 C676 1.378 . S
C674 C678 1.350 1_556 S
C675 C678 1.459 1_556 S
C675 C680 1.339 1_556 S
C675 N683 1.443 . S
C676 H667 0.930 . S
C676 C674 1.378 . S
C676 C677 1.367 1_556 S
C677 C676 1.367 1_554 S
C677 C679 1.433 . S
C678 C674 1.350 1_554 S
C678 C675 1.459 1_554 S
C678 N682 1.427 . S
C679 H669 0.929 . S
C679 C677 1.433 . S
C679 N682 1.384 . S
C680 H671 0.929 . S
C680 C672 1.378 . S
C680 C675 1.339 1_554 S
C681 H668 0.929 . S
C681 C673 1.433 . S
C681 N683 1.384 . S
N682 C678 1.427 . S
N682 C679 1.384 . S
N683 C675 1.443 . S
N683 C681 1.384 . S
H684 C690 0.930 . S
H685 C694 0.930 . S
H686 C699 0.929 . S
H687 C697 0.929 . S
H688 C692 0.929 . S
H689 C698 0.929 . S
C690 H684 0.930 . S
C690 C691 1.367 . S
C690 C698 1.378 . S
C691 C690 1.367 . S
C691 C699 1.433 . S
C692 H688 0.929 . S
C692 C694 1.378 . S
C692 C696 1.350 . S
C693 C696 1.463 . S
C693 C698 1.350 . S
C693 N701 1.427 . S
C694 H685 0.930 . S
C694 C692 1.378 . S
C694 C695 1.367 . S
C695 C694 1.367 . S
C695 C697 1.433 . S
C696 C692 1.350 . S
C696 C693 1.463 . S
C696 N700 1.427 . S
C697 H687 0.929 . S
C697 C695 1.433 . S
C697 N700 1.384 . S
C698 H689 0.929 . S
C698 C690 1.378 . S
C698 C693 1.350 . S
C699 H686 0.929 . S
C699 C691 1.433 . S
C699 N701 1.384 . S
N700 C696 1.427 . S
N700 C697 1.384 . S
N701 C693 1.427 . S
N701 C699 1.384 . S
H702 C708 0.930 . S
H703 C712 0.930 . S
H704 C717 0.929 . S
H705 C715 0.929 . S
H706 C710 0.929 . S
H707 C716 0.929 . S
C708 H702 0.930 . S
C708 C709 1.367 . S
C708 C716 1.378 . S
C709 C708 1.367 . S
C709 C717 1.433 1_554 S
C710 H706 0.929 . S
C710 C712 1.378 . S
C710 C714 1.350 . S
C711 C714 1.463 1_554 S
C711 C716 1.350 . S
C711 N719 1.427 1_554 S
C712 H703 0.930 . S
C712 C710 1.378 . S
C712 C713 1.367 . S
C713 C712 1.367 . S
C713 C715 1.433 1_556 S
C714 C710 1.350 . S
C714 C711 1.463 1_556 S
C714 N718 1.427 1_556 S
C715 H705 0.929 . S
C715 C713 1.433 1_554 S
C715 N718 1.384 . S
C716 H707 0.929 . S
C716 C708 1.378 . S
C716 C711 1.350 . S
C717 H704 0.929 . S
C717 C709 1.433 1_556 S
C717 N719 1.384 . S
N718 C714 1.427 1_554 S
N718 C715 1.384 . S
N719 C711 1.427 1_556 S
N719 C717 1.384 . S
H720 C726 0.930 . S
H721 C730 0.930 . S
H722 C735 0.929 . S
H723 C733 0.929 . S
H724 C728 0.929 . S
H725 C734 0.929 . S
C726 H720 0.930 . S
C726 C727 1.367 . S
C726 C734 1.378 . S
C727 C726 1.367 . S
C727 C735 1.433 . S
C728 H724 0.929 . S
C728 C730 1.378 . S
C728 C732 1.350 . S
C729 C732 1.463 . S
C729 C734 1.350 . S
C729 N737 1.427 . S
C730 H721 0.930 . S
C730 C728 1.378 . S
C730 C731 1.367 . S
C731 C730 1.367 . S
C731 C733 1.433 . S
C732 C728 1.350 . S
C732 C729 1.463 . S
C732 N736 1.427 . S
C733 H723 0.929 . S
C733 C731 1.433 . S
C733 N736 1.384 . S
C734 H725 0.929 . S
C734 C726 1.378 . S
C734 C729 1.350 . S
C735 H722 0.929 . S
C735 C727 1.433 . S
C735 N737 1.384 . S
N736 C732 1.427 . S
N736 C733 1.384 . S
N737 C729 1.427 . S
N737 C735 1.384 . S
H738 C744 0.930 . S
H739 C748 0.930 . S
H740 C753 0.929 . S
H741 C751 0.929 . S
H742 C746 0.929 . S
H743 C752 0.929 . S
C744 H738 0.930 . S
C744 C745 1.367 . S
C744 C752 1.378 . S
C745 C744 1.367 . S
C745 C753 1.433 . S
C746 H742 0.929 . S
C746 C748 1.378 . S
C746 C750 1.350 . S
C747 C750 1.463 . S
C747 C752 1.350 . S
C747 N755 1.427 . S
C748 H739 0.930 . S
C748 C746 1.378 . S
C748 C749 1.367 . S
C749 C748 1.367 . S
C749 C751 1.433 . S
C750 C746 1.350 . S
C750 C747 1.463 . S
C750 N754 1.427 . S
C751 H741 0.929 . S
C751 C749 1.433 . S
C751 N754 1.384 . S
C752 H743 0.929 . S
C752 C744 1.378 . S
C752 C747 1.350 . S
C753 H740 0.929 . S
C753 C745 1.433 . S
C753 N755 1.384 . S
N754 C750 1.427 . S
N754 C751 1.384 . S
N755 C747 1.427 . S
N755 C753 1.384 . S
H756 C762 0.930 . S
H757 C766 0.930 . S
H758 C771 0.929 . S
H759 C769 0.929 . S
H760 C764 0.929 . S
H761 C770 0.929 . S
C762 H756 0.930 . S
C762 C763 1.367 . S
C762 C770 1.378 . S
C763 C762 1.367 . S
C763 C771 1.433 . S
C764 H760 0.929 . S
C764 C766 1.378 . S
C764 C768 1.350 . S
C765 C768 1.463 . S
C765 C770 1.350 . S
C765 N773 1.427 . S
C766 H757 0.930 . S
C766 C764 1.378 . S
C766 C767 1.367 . S
C767 C766 1.367 . S
C767 C769 1.433 . S
C768 C764 1.350 . S
C768 C765 1.463 . S
C768 N772 1.427 . S
C769 H759 0.929 . S
C769 C767 1.433 . S
C769 N772 1.384 . S
C770 H761 0.929 . S
C770 C762 1.378 . S
C770 C765 1.350 . S
C771 H758 0.929 . S
C771 C763 1.433 . S
C771 N773 1.384 . S
N772 C768 1.427 . S
N772 C769 1.384 . S
N773 C765 1.427 . S
N773 C771 1.384 . S
H774 C780 0.930 . S
H775 C784 0.930 . S
H776 C789 0.929 . S
H777 C787 0.929 . S
H778 C782 0.929 . S
H779 C788 0.929 . S
C780 H774 0.930 . S
C780 C781 1.367 . S
C780 C788 1.378 . S
C781 C780 1.367 . S
C781 C789 1.433 . S
C782 H778 0.929 . S
C782 C784 1.378 . S
C782 C786 1.350 . S
C783 C786 1.463 . S
C783 C788 1.350 . S
C783 N791 1.427 . S
C784 H775 0.930 . S
C784 C782 1.378 . S
C784 C785 1.367 . S
C785 C784 1.367 . S
C785 C787 1.433 . S
C786 C782 1.350 . S
C786 C783 1.463 . S
C786 N790 1.427 . S
C787 H777 0.929 . S
C787 C785 1.433 . S
C787 N790 1.384 . S
C788 H779 0.929 . S
C788 C780 1.378 . S
C788 C783 1.350 . S
C789 H776 0.929 . S
C789 C781 1.433 . S
C789 N791 1.384 . S
N790 C786 1.427 . S
N790 C787 1.384 . S
N791 C783 1.427 . S
N791 C789 1.384 . S
H792 C798 0.930 . S
H793 C802 0.930 . S
H794 C807 0.929 . S
H795 C805 0.929 . S
H796 C800 0.929 . S
H797 C806 0.929 . S
C798 H792 0.930 . S
C798 C799 1.367 . S
C798 C806 1.378 . S
C799 C798 1.367 . S
C799 C807 1.433 . S
C800 H796 0.929 . S
C800 C802 1.378 . S
C800 C804 1.350 . S
C801 C804 1.463 . S
C801 C806 1.350 . S
C801 N809 1.427 . S
C802 H793 0.930 . S
C802 C800 1.378 . S
C802 C803 1.367 . S
C803 C802 1.367 . S
C803 C805 1.433 . S
C804 C800 1.350 . S
C804 C801 1.463 . S
C804 N808 1.427 . S
C805 H795 0.929 . S
C805 C803 1.433 . S
C805 N808 1.384 . S
C806 H797 0.929 . S
C806 C798 1.378 . S
C806 C801 1.350 . S
C807 H794 0.929 . S
C807 C799 1.433 . S
C807 N809 1.384 . S
N808 C804 1.427 . S
N808 C805 1.384 . S
N809 C801 1.427 . S
N809 C807 1.384 . S
H810 C816 0.930 . S
H811 C820 0.930 . S
H812 C825 0.929 . S
H813 C823 0.929 . S
H814 C818 0.929 . S
H815 C824 0.929 . S
C816 H810 0.930 . S
C816 C817 1.367 . S
C816 C824 1.378 . S
C817 C816 1.367 . S
C817 C825 1.433 . S
C818 H814 0.929 . S
C818 C820 1.378 . S
C818 C822 1.350 . S
C819 C822 1.463 . S
C819 C824 1.350 . S
C819 N827 1.427 . S
C820 H811 0.930 . S
C820 C818 1.378 . S
C820 C821 1.367 . S
C821 C820 1.367 . S
C821 C823 1.433 . S
C822 C818 1.350 . S
C822 C819 1.463 . S
C822 N826 1.427 . S
C823 H813 0.929 . S
C823 C821 1.433 . S
C823 N826 1.384 . S
C824 H815 0.929 . S
C824 C816 1.378 . S
C824 C819 1.350 . S
C825 H812 0.929 . S
C825 C817 1.433 . S
C825 N827 1.384 . S
N826 C822 1.427 . S
N826 C823 1.384 . S
N827 C819 1.427 . S
N827 C825 1.384 . S
H828 C834 0.930 . S
H829 C838 0.930 . S
H830 C843 0.929 . S
H831 C841 0.929 . S
H832 C836 0.929 . S
H833 C842 0.929 . S
C834 H828 0.930 . S
C834 C835 1.367 . S
C834 C842 1.378 . S
C835 C834 1.367 . S
C835 C843 1.433 . S
C836 H832 0.929 . S
C836 C838 1.378 . S
C836 C840 1.350 . S
C837 C840 1.463 . S
C837 C842 1.350 . S
C837 N845 1.427 . S
C838 H829 0.930 . S
C838 C836 1.378 . S
C838 C839 1.367 . S
C839 C838 1.367 . S
C839 C841 1.433 . S
C840 C836 1.350 . S
C840 C837 1.463 . S
C840 N844 1.427 . S
C841 H831 0.929 . S
C841 C839 1.433 . S
C841 N844 1.384 . S
C842 H833 0.929 . S
C842 C834 1.378 . S
C842 C837 1.350 . S
C843 H830 0.929 . S
C843 C835 1.433 . S
C843 N845 1.384 . S
N844 C840 1.427 . S
N844 C841 1.384 . S
N845 C837 1.427 . S
N845 C843 1.384 . S
H846 C852 0.930 . S
H847 C856 0.930 . S
H848 C861 0.929 . S
H849 C859 0.929 . S
H850 C854 0.929 . S
H851 C860 0.929 . S
C852 H846 0.930 . S
C852 C853 1.367 . S
C852 C860 1.378 . S
C853 C852 1.367 . S
C853 C861 1.433 . S
C854 H850 0.929 . S
C854 C856 1.378 . S
C854 C858 1.350 . S
C855 C858 1.463 . S
C855 C860 1.350 . S
C855 N863 1.427 . S
C856 H847 0.930 . S
C856 C854 1.378 . S
C856 C857 1.367 . S
C857 C856 1.367 . S
C857 C859 1.433 . S
C858 C854 1.350 . S
C858 C855 1.463 . S
C858 N862 1.427 . S
C859 H849 0.929 . S
C859 C857 1.433 . S
C859 N862 1.384 . S
C860 H851 0.929 . S
C860 C852 1.378 . S
C860 C855 1.350 . S
C861 H848 0.929 . S
C861 C853 1.433 . S
C861 N863 1.384 . S
N862 C858 1.427 . S
N862 C859 1.384 . S
N863 C855 1.427 . S
N863 C861 1.384 . S
H864 C870 0.930 . S
H865 C874 0.930 . S
H866 C879 0.929 . S
H867 C877 0.929 . S
H868 C872 0.929 . S
H869 C878 0.929 . S
C870 H864 0.930 . S
C870 C871 1.367 . S
C870 C878 1.378 . S
C871 C870 1.367 . S
C871 C879 1.433 . S
C872 H868 0.929 . S
C872 C874 1.378 . S
C872 C876 1.350 . S
C873 C876 1.463 . S
C873 C878 1.350 . S
C873 N881 1.427 . S
C874 H865 0.930 . S
C874 C872 1.378 . S
C874 C875 1.367 . S
C875 C874 1.367 . S
C875 C877 1.433 . S
C876 C872 1.350 . S
C876 C873 1.463 . S
C876 N880 1.427 . S
C877 H867 0.929 . S
C877 C875 1.433 . S
C877 N880 1.384 . S
C878 H869 0.929 . S
C878 C870 1.378 . S
C878 C873 1.350 . S
C879 H866 0.929 . S
C879 C871 1.433 . S
C879 N881 1.384 . S
N880 C876 1.427 . S
N880 C877 1.384 . S
N881 C873 1.427 . S
N881 C879 1.384 . S
H882 C888 0.930 . S
H883 C892 0.930 . S
H884 C897 0.929 . S
H885 C895 0.929 . S
H886 C890 0.929 . S
H887 C896 0.929 . S
C888 H882 0.930 . S
C888 C889 1.367 . S
C888 C896 1.378 . S
C889 C888 1.367 . S
C889 C897 1.433 . S
C890 H886 0.929 . S
C890 C892 1.378 . S
C890 C894 1.350 . S
C891 C894 1.463 . S
C891 C896 1.350 . S
C891 N899 1.427 . S
C892 H883 0.930 . S
C892 C890 1.378 . S
C892 C893 1.367 . S
C893 C892 1.367 . S
C893 C895 1.433 . S
C894 C890 1.350 . S
C894 C891 1.463 . S
C894 N898 1.427 . S
C895 H885 0.929 . S
C895 C893 1.433 . S
C895 N898 1.384 . S
C896 H887 0.929 . S
C896 C888 1.378 . S
C896 C891 1.350 . S
C897 H884 0.929 . S
C897 C889 1.433 . S
C897 N899 1.384 . S
N898 C894 1.427 . S
N898 C895 1.384 . S
N899 C891 1.427 . S
N899 C897 1.384 . S
H900 C906 0.930 . S
H901 C910 0.930 . S
H902 C915 0.929 . S
H903 C913 0.929 . S
H904 C908 0.929 . S
H905 C914 0.929 . S
C906 H900 0.930 . S
C906 C907 1.367 . S
C906 C914 1.378 . S
C907 C906 1.367 . S
C907 C915 1.433 . S
C908 H904 0.929 . S
C908 C910 1.378 . S
C908 C912 1.350 . S
C909 C912 1.463 . S
C909 C914 1.350 . S
C909 N917 1.427 . S
C910 H901 0.930 . S
C910 C908 1.378 . S
C910 C911 1.367 . S
C911 C910 1.367 . S
C911 C913 1.433 . S
C912 C908 1.350 . S
C912 C909 1.463 . S
C912 N916 1.427 . S
C913 H903 0.929 . S
C913 C911 1.433 . S
C913 N916 1.384 . S
C914 H905 0.929 . S
C914 C906 1.378 . S
C914 C909 1.350 . S
C915 H902 0.929 . S
C915 C907 1.433 . S
C915 N917 1.384 . S
N916 C912 1.427 . S
N916 C913 1.384 . S
N917 C909 1.427 . S
N917 C915 1.384 . S
H918 C924 0.930 . S
H919 C928 0.930 . S
H920 C933 0.929 . S
H921 C931 0.929 . S
H922 C926 0.929 . S
H923 C932 0.929 . S
C924 H918 0.930 . S
C924 C925 1.367 . S
C924 C932 1.378 . S
C925 C924 1.367 . S
C925 C933 1.433 . S
C926 H922 0.929 . S
C926 C928 1.378 . S
C926 C930 1.350 . S
C927 C930 1.463 . S
C927 C932 1.350 . S
C927 N935 1.427 . S
C928 H919 0.930 . S
C928 C926 1.378 . S
C928 C929 1.367 . S
C929 C928 1.367 . S
C929 C931 1.433 . S
C930 C926 1.350 . S
C930 C927 1.463 . S
C930 N934 1.427 . S
C931 H921 0.929 . S
C931 C929 1.433 . S
C931 N934 1.384 . S
C932 H923 0.929 . S
C932 C924 1.378 . S
C932 C927 1.350 . S
C933 H920 0.929 . S
C933 C925 1.433 . S
C933 N935 1.384 . S
N934 C930 1.427 . S
N934 C931 1.384 . S
N935 C927 1.427 . S
N935 C933 1.384 . S
C403 C314 0.926 1_554 S
C407 C17 0.926 1_556 S
C421 C50 0.929 . S
C425 C347 0.942 . S
C439 C380 0.926 1_554 S
C443 C83 0.929 1_556 S
C457 C116 0.952 . S
C461 C215 0.954 . S
C475 C149 0.940 1_556 S
C479 C248 0.952 1_554 S
C493 C281 0.938 . S
C497 C182 0.951 . S
C511 N14 0.992 . S
C515 C140 1.155 . S
C529 C173 1.156 . S
C533 N47 0.987 . S
C547 N80 1.010 . S
C551 C8 1.163 . S
C565 N113 0.988 . S
C569 C41 1.156 . S
C583 C74 1.157 . S
C587 N146 0.984 . S
C601 C107 1.158 . S
C605 N179 1.020 . S
C619 C272 1.164 . S
C623 N212 1.005 . S
C637 N245 1.019 . S
C641 C305 1.161 . S
C655 C338 1.163 . S
C659 N278 1.017 . S
C673 C371 1.159 . S
C677 N311 0.983 . S
C691 C206 1.162 . S
C695 N344 1.013 . S
C709 N377 1.021 . S
C713 C239 1.161 . S
C727 C358 1.683 . S
C731 C28 1.676 . S
C745 C391 1.681 . S
C749 C61 1.678 . S
C763 C94 1.677 . S
C767 C226 1.685 . S
C781 C127 1.684 . S
C785 C259 1.676 . S
C799 C292 1.682 . S
C803 C160 1.681 . S
C817 C193 1.681 . S
C821 C325 1.678 . S
C835 N203 0.697 . S
C839 N5 0.676 . S
C853 N236 0.660 . S
C857 N38 0.671 . S
C871 N71 0.696 . S
C875 N269 0.656 . S
C889 N302 0.689 . S
C893 N104 0.687 . S
C907 N137 0.697 . S
C911 N335 0.676 . S
C925 N368 0.658 . S
C929 N170 0.698 . S
