# Generated by pormake.
# Topology lta, (4)-cn, num edge types: 1
# Building blocks:
#     Node 0, Type 0, BuildingBlock: GALJAG_clean_sbu_0, # of connection points: 4
#     Node 1, Type 0, BuildingBlock: GALJAG_clean_sbu_0, # of connection points: 4
#     Node 2, Type 0, BuildingBlock: GALJAG_clean_sbu_0, # of connection points: 4
#     Node 3, Type 0, BuildingBlock: GALJAG_clean_sbu_0, # of connection points: 4
#     Node 4, Type 0, BuildingBlock: GALJAG_clean_sbu_0, # of connection points: 4
#     Node 5, Type 0, BuildingBlock: GALJAG_clean_sbu_0, # of connection points: 4
#     Node 6, Type 0, BuildingBlock: GALJAG_clean_sbu_0, # of connection points: 4
#     Node 7, Type 0, BuildingBlock: GALJAG_clean_sbu_0, # of connection points: 4
#     Node 8, Type 0, BuildingBlock: GALJAG_clean_sbu_0, # of connection points: 4
#     Node 9, Type 0, BuildingBlock: GALJAG_clean_sbu_0, # of connection points: 4
#     Node 10, Type 0, BuildingBlock: GALJAG_clean_sbu_0, # of connection points: 4
#     Node 11, Type 0, BuildingBlock: GALJAG_clean_sbu_0, # of connection points: 4
#     Node 12, Type 0, BuildingBlock: GALJAG_clean_sbu_0, # of connection points: 4
#     Node 13, Type 0, BuildingBlock: GALJAG_clean_sbu_0, # of connection points: 4
#     Node 14, Type 0, BuildingBlock: GALJAG_clean_sbu_0, # of connection points: 4
#     Node 15, Type 0, BuildingBlock: GALJAG_clean_sbu_0, # of connection points: 4
#     Node 16, Type 0, BuildingBlock: GALJAG_clean_sbu_0, # of connection points: 4
#     Node 17, Type 0, BuildingBlock: GALJAG_clean_sbu_0, # of connection points: 4
#     Node 18, Type 0, BuildingBlock: GALJAG_clean_sbu_0, # of connection points: 4
#     Node 19, Type 0, BuildingBlock: GALJAG_clean_sbu_0, # of connection points: 4
#     Node 20, Type 0, BuildingBlock: GALJAG_clean_sbu_0, # of connection points: 4
#     Node 21, Type 0, BuildingBlock: GALJAG_clean_sbu_0, # of connection points: 4
#     Node 22, Type 0, BuildingBlock: GALJAG_clean_sbu_0, # of connection points: 4
#     Node 23, Type 0, BuildingBlock: GALJAG_clean_sbu_0, # of connection points: 4
#     Edge 24, Type (0, 0), BuildingBlock: MIFKUJ_clean_linker_0, # of connection points: 2
#     Edge 25, Type (0, 0), BuildingBlock: MIFKUJ_clean_linker_0, # of connection points: 2
#     Edge 26, Type (0, 0), BuildingBlock: MIFKUJ_clean_linker_0, # of connection points: 2
#     Edge 27, Type (0, 0), BuildingBlock: MIFKUJ_clean_linker_0, # of connection points: 2
#     Edge 28, Type (0, 0), BuildingBlock: MIFKUJ_clean_linker_0, # of connection points: 2
#     Edge 29, Type (0, 0), BuildingBlock: MIFKUJ_clean_linker_0, # of connection points: 2
#     Edge 30, Type (0, 0), BuildingBlock: MIFKUJ_clean_linker_0, # of connection points: 2
#     Edge 31, Type (0, 0), BuildingBlock: MIFKUJ_clean_linker_0, # of connection points: 2
#     Edge 32, Type (0, 0), BuildingBlock: MIFKUJ_clean_linker_0, # of connection points: 2
#     Edge 33, Type (0, 0), BuildingBlock: MIFKUJ_clean_linker_0, # of connection points: 2
#     Edge 34, Type (0, 0), BuildingBlock: MIFKUJ_clean_linker_0, # of connection points: 2
#     Edge 35, Type (0, 0), BuildingBlock: MIFKUJ_clean_linker_0, # of connection points: 2
#     Edge 36, Type (0, 0), BuildingBlock: MIFKUJ_clean_linker_0, # of connection points: 2
#     Edge 37, Type (0, 0), BuildingBlock: MIFKUJ_clean_linker_0, # of connection points: 2
#     Edge 38, Type (0, 0), BuildingBlock: MIFKUJ_clean_linker_0, # of connection points: 2
#     Edge 39, Type (0, 0), BuildingBlock: MIFKUJ_clean_linker_0, # of connection points: 2
#     Edge 40, Type (0, 0), BuildingBlock: MIFKUJ_clean_linker_0, # of connection points: 2
#     Edge 41, Type (0, 0), BuildingBlock: MIFKUJ_clean_linker_0, # of connection points: 2
#     Edge 42, Type (0, 0), BuildingBlock: MIFKUJ_clean_linker_0, # of connection points: 2
#     Edge 43, Type (0, 0), BuildingBlock: MIFKUJ_clean_linker_0, # of connection points: 2
#     Edge 44, Type (0, 0), BuildingBlock: MIFKUJ_clean_linker_0, # of connection points: 2
#     Edge 45, Type (0, 0), BuildingBlock: MIFKUJ_clean_linker_0, # of connection points: 2
#     Edge 46, Type (0, 0), BuildingBlock: MIFKUJ_clean_linker_0, # of connection points: 2
#     Edge 47, Type (0, 0), BuildingBlock: MIFKUJ_clean_linker_0, # of connection points: 2
#     Edge 48, Type (0, 0), BuildingBlock: MIFKUJ_clean_linker_0, # of connection points: 2
#     Edge 49, Type (0, 0), BuildingBlock: MIFKUJ_clean_linker_0, # of connection points: 2
#     Edge 50, Type (0, 0), BuildingBlock: MIFKUJ_clean_linker_0, # of connection points: 2
#     Edge 51, Type (0, 0), BuildingBlock: MIFKUJ_clean_linker_0, # of connection points: 2
#     Edge 52, Type (0, 0), BuildingBlock: MIFKUJ_clean_linker_0, # of connection points: 2
#     Edge 53, Type (0, 0), BuildingBlock: MIFKUJ_clean_linker_0, # of connection points: 2
#     Edge 54, Type (0, 0), BuildingBlock: MIFKUJ_clean_linker_0, # of connection points: 2
#     Edge 55, Type (0, 0), BuildingBlock: MIFKUJ_clean_linker_0, # of connection points: 2
#     Edge 56, Type (0, 0), BuildingBlock: MIFKUJ_clean_linker_0, # of connection points: 2
#     Edge 57, Type (0, 0), BuildingBlock: MIFKUJ_clean_linker_0, # of connection points: 2
#     Edge 58, Type (0, 0), BuildingBlock: MIFKUJ_clean_linker_0, # of connection points: 2
#     Edge 59, Type (0, 0), BuildingBlock: MIFKUJ_clean_linker_0, # of connection points: 2
#     Edge 60, Type (0, 0), BuildingBlock: MIFKUJ_clean_linker_0, # of connection points: 2
#     Edge 61, Type (0, 0), BuildingBlock: MIFKUJ_clean_linker_0, # of connection points: 2
#     Edge 62, Type (0, 0), BuildingBlock: MIFKUJ_clean_linker_0, # of connection points: 2
#     Edge 63, Type (0, 0), BuildingBlock: MIFKUJ_clean_linker_0, # of connection points: 2
#     Edge 64, Type (0, 0), BuildingBlock: MIFKUJ_clean_linker_0, # of connection points: 2
#     Edge 65, Type (0, 0), BuildingBlock: MIFKUJ_clean_linker_0, # of connection points: 2
#     Edge 66, Type (0, 0), BuildingBlock: MIFKUJ_clean_linker_0, # of connection points: 2
#     Edge 67, Type (0, 0), BuildingBlock: MIFKUJ_clean_linker_0, # of connection points: 2
#     Edge 68, Type (0, 0), BuildingBlock: MIFKUJ_clean_linker_0, # of connection points: 2
#     Edge 69, Type (0, 0), BuildingBlock: MIFKUJ_clean_linker_0, # of connection points: 2
#     Edge 70, Type (0, 0), BuildingBlock: MIFKUJ_clean_linker_0, # of connection points: 2
#     Edge 71, Type (0, 0), BuildingBlock: MIFKUJ_clean_linker_0, # of connection points: 2
# Relax obj value: 0.417
# Max RMSD: 0.229
# Mean RMSD: 0.229
data_MOF--net-lta--node1-GALJAG_clean_sbu_0--edge1-MIFKUJ_clean_linker_0
_symmetry_space_group_name_H-M    P1
_symmetry_Int_Tables_number       1
_symmetry_cell_setting            triclinic
loop_
_symmetry_equiv_pos_as_xyz
'x, y, z'
_cell_length_a     72.807593
_cell_length_b     72.778903
_cell_length_c     72.765962
_cell_angle_alpha  90.001168
_cell_angle_beta   90.007166
_cell_angle_gamma 89.922867
loop_
_atom_site_label
_atom_site_type_symbol
_atom_site_fract_x
_atom_site_fract_y
_atom_site_fract_z
_atom_type_partial_charge
In0 In 0.13272 0.30877 0.47917 0.0
O1 O 0.14092 0.33538 0.4934 0.0
O2 O 0.14013 0.31114 0.50957 0.0
C3 C 0.12789 0.33191 0.45069 0.0
C4 C 0.1577 0.28205 0.47383 0.0
C5 C 0.09939 0.29412 0.48519 0.0
O6 O 0.11745 0.33154 0.46449 0.0
O7 O 0.14091 0.32043 0.45109 0.0
O8 O 0.10665 0.29449 0.46944 0.0
O9 O 0.10903 0.30094 0.49785 0.0
C10 C 0.14286 0.32823 0.50905 0.0
O11 O 0.14067 0.27907 0.47398 0.0
O12 O 0.16218 0.29866 0.47581 0.0
In13 In 0.68192 0.12489 0.47348 0.0
O14 O 0.6616 0.13959 0.49235 0.0
O15 O 0.67515 0.11598 0.50277 0.0
C16 C 0.6596 0.12676 0.444 0.0
C17 C 0.70756 0.15137 0.47287 0.0
C18 C 0.69651 0.09094 0.47448 0.0
O19 O 0.65492 0.1196 0.45905 0.0
O20 O 0.67574 0.13307 0.44367 0.0
O21 O 0.7035 0.10431 0.48299 0.0
O22 O 0.68254 0.09487 0.46499 0.0
C23 C 0.66389 0.12879 0.5057 0.0
O24 O 0.69176 0.15375 0.47954 0.0
O25 O 0.71028 0.13574 0.46588 0.0
In26 In 0.86833 0.68638 0.47523 0.0
O27 O 0.86038 0.71654 0.47155 0.0
O28 O 0.839 0.69708 0.4749 0.0
C29 C 0.90267 0.69893 0.4807 0.0
C30 C 0.85737 0.66621 0.50431 0.0
C31 C 0.871 0.6642 0.44574 0.0
O32 O 0.89505 0.69932 0.46512 0.0
O33 O 0.89292 0.69237 0.4934 0.0
O34 O 0.88001 0.66165 0.46032 0.0
O35 O 0.86071 0.67818 0.44588 0.0
C36 C 0.84338 0.71368 0.47291 0.0
O37 O 0.85584 0.66064 0.48797 0.0
O38 O 0.86439 0.68196 0.50598 0.0
In39 In 0.30666 0.86581 0.47074 0.0
O40 O 0.33108 0.87441 0.48828 0.0
O41 O 0.31114 0.8568 0.50034 0.0
C42 C 0.33041 0.85918 0.44312 0.0
C43 C 0.28006 0.84048 0.46688 0.0
C44 C 0.29168 0.89928 0.47525 0.0
O45 O 0.33152 0.85162 0.45865 0.0
O46 O 0.31698 0.87002 0.44125 0.0
O47 O 0.3014 0.89534 0.46141 0.0
O48 O 0.28945 0.88632 0.48651 0.0
C49 C 0.32598 0.86551 0.50226 0.0
O50 O 0.27781 0.85698 0.46219 0.0
O51 O 0.29591 0.83669 0.47266 0.0
In52 In 0.12753 0.68268 0.52351 0.0
O53 O 0.1331 0.65572 0.50831 0.0
O54 O 0.13758 0.68068 0.49398 0.0
C55 C 0.13105 0.66118 0.55341 0.0
C56 C 0.14923 0.71216 0.52723 0.0
C57 C 0.09287 0.69403 0.51731 0.0
O58 O 0.11796 0.6595 0.54217 0.0
O59 O 0.14213 0.67398 0.54979 0.0
O60 O 0.09912 0.69205 0.53338 0.0
O61 O 0.10402 0.69024 0.50465 0.0
C62 C 0.13784 0.6634 0.49353 0.0
O63 O 0.132 0.71321 0.52884 0.0
O64 O 0.15539 0.69622 0.52441 0.0
In65 In 0.31648 0.11688 0.51689 0.0
O66 O 0.33715 0.10529 0.49665 0.0
O67 O 0.33559 0.13439 0.49944 0.0
C68 C 0.33744 0.11973 0.5473 0.0
C69 C 0.29061 0.14249 0.51075 0.0
C70 C 0.297 0.08554 0.51345 0.0
O71 O 0.33953 0.10728 0.53547 0.0
O72 O 0.32443 0.13073 0.54406 0.0
O73 O 0.30138 0.09199 0.52892 0.0
O74 O 0.30223 0.09499 0.49997 0.0
C75 C 0.3429 0.12081 0.49148 0.0
O76 O 0.30231 0.13779 0.49891 0.0
O77 O 0.29195 0.13432 0.52601 0.0
In78 In 0.87358 0.30196 0.51812 0.0
O79 O 0.85909 0.32398 0.50111 0.0
O80 O 0.86954 0.30062 0.48712 0.0
C81 C 0.87686 0.32908 0.54299 0.0
C82 C 0.84888 0.27531 0.52483 0.0
C83 C 0.90825 0.28967 0.51488 0.0
O84 O 0.88384 0.32995 0.52715 0.0
O85 O 0.86846 0.3143 0.54647 0.0
O86 O 0.90046 0.29102 0.53032 0.0
O87 O 0.89857 0.29448 0.50136 0.0
C88 C 0.86128 0.31579 0.486 0.0
O89 O 0.8657 0.27199 0.52255 0.0
O90 O 0.8447 0.2921 0.52457 0.0
In91 In 0.68172 0.87019 0.52952 0.0
O92 O 0.71184 0.86424 0.5239 0.0
O93 O 0.69424 0.84159 0.52939 0.0
C94 C 0.68815 0.90659 0.52994 0.0
C95 C 0.66323 0.86733 0.49749 0.0
C96 C 0.66513 0.86095 0.56138 0.0
O97 O 0.70019 0.89505 0.53476 0.0
O98 O 0.6729 0.89974 0.52547 0.0
O99 O 0.66091 0.85396 0.54612 0.0
O100 O 0.67805 0.87246 0.5607 0.0
C101 C 0.71017 0.84705 0.52534 0.0
O102 O 0.65548 0.87129 0.51248 0.0
O103 O 0.68028 0.86456 0.49867 0.0
In104 In 0.47763 0.12425 0.30229 0.0
O105 O 0.46681 0.13225 0.27404 0.0
O106 O 0.47478 0.15358 0.29237 0.0
C107 C 0.48397 0.09292 0.28384 0.0
C108 C 0.50902 0.12935 0.32137 0.0
C109 C 0.45064 0.12429 0.32764 0.0
O110 O 0.46833 0.09693 0.29025 0.0
O111 O 0.49619 0.10492 0.28639 0.0
O112 O 0.45884 0.10985 0.3227 0.0
O113 O 0.45564 0.13865 0.31937 0.0
C114 C 0.46877 0.14926 0.27671 0.0
O115 O 0.49611 0.11931 0.32695 0.0
O116 O 0.50608 0.13711 0.30617 0.0
In117 In 0.86545 0.47053 0.32113 0.0
O118 O 0.85977 0.47399 0.29063 0.0
O119 O 0.837 0.46968 0.30845 0.0
C120 C 0.90175 0.47206 0.31424 0.0
C121 C 0.86123 0.50342 0.33757 0.0
C122 C 0.85695 0.43967 0.33989 0.0
O123 O 0.89071 0.46425 0.3034 0.0
O124 O 0.89455 0.47828 0.32869 0.0
O125 O 0.85066 0.45526 0.34396 0.0
O126 O 0.86757 0.43952 0.32621 0.0
C127 C 0.84259 0.47254 0.29228 0.0
O128 O 0.86715 0.48943 0.34593 0.0
O129 O 0.85704 0.50076 0.32097 0.0
In130 In 0.52213 0.8741 0.31364 0.0
O131 O 0.52532 0.86462 0.284 0.0
O132 O 0.5219 0.84417 0.30447 0.0
C133 C 0.51986 0.90797 0.29901 0.0
C134 C 0.49044 0.86569 0.33077 0.0
C135 C 0.55004 0.87622 0.3379 0.0
O136 O 0.53425 0.89835 0.2977 0.0
O137 O 0.50697 0.9006 0.30788 0.0
O138 O 0.53529 0.88513 0.33965 0.0
O139 O 0.55093 0.86637 0.32365 0.0
C140 C 0.52363 0.84779 0.28763 0.0
O141 O 0.50596 0.86236 0.33776 0.0
O142 O 0.49094 0.87313 0.31513 0.0
In143 In 0.1214 0.52 0.31459 0.0
O144 O 0.10904 0.50081 0.33594 0.0
O145 O 0.12947 0.48992 0.31816 0.0
C146 C 0.1313 0.54639 0.33863 0.0
C147 C 0.14777 0.52118 0.28884 0.0
C148 C 0.0873 0.52171 0.30054 0.0
O149 O 0.13252 0.52948 0.34205 0.0
O150 O 0.12513 0.55018 0.32286 0.0
O151 O 0.09944 0.51098 0.29439 0.0
O152 O 0.09256 0.53204 0.31344 0.0
C153 C 0.11853 0.48707 0.33128 0.0
O154 O 0.13179 0.52724 0.28594 0.0
O155 O 0.15049 0.51506 0.30481 0.0
In156 In 0.4751 0.87029 0.68038 0.0
O157 O 0.47314 0.86297 0.7107 0.0
O158 O 0.47068 0.84138 0.69118 0.0
C159 C 0.47337 0.90679 0.68557 0.0
C160 C 0.51045 0.86289 0.67189 0.0
C161 C 0.44814 0.86643 0.65539 0.0
O162 O 0.46848 0.89557 0.69787 0.0
O163 O 0.47867 0.89955 0.67076 0.0
O164 O 0.46485 0.86803 0.6512 0.0
O165 O 0.44483 0.8666 0.67243 0.0
C166 C 0.47133 0.84597 0.70787 0.0
O167 O 0.49713 0.85502 0.66414 0.0
O168 O 0.50596 0.87444 0.68398 0.0
In169 In 0.12049 0.47867 0.68448 0.0
O170 O 0.12236 0.48411 0.71514 0.0
O171 O 0.14435 0.46962 0.70256 0.0
C172 C 0.08361 0.4795 0.68616 0.0
C173 C 0.13475 0.51092 0.67325 0.0
C174 C 0.12542 0.45172 0.65961 0.0
O175 O 0.09293 0.46847 0.69579 0.0
O176 O 0.09288 0.48956 0.67558 0.0
O177 O 0.1233 0.46835 0.65532 0.0
O178 O 0.12492 0.44846 0.67665 0.0
C179 C 0.13785 0.47664 0.71702 0.0
O180 O 0.14227 0.49571 0.66965 0.0
O181 O 0.12034 0.5098 0.68277 0.0
In182 In 0.52175 0.13312 0.68422 0.0
O183 O 0.52841 0.13894 0.71427 0.0
O184 O 0.51919 0.16107 0.6975 0.0
C185 C 0.51689 0.09697 0.69014 0.0
C186 C 0.48974 0.1385 0.66635 0.0
C187 C 0.55338 0.13966 0.6661 0.0
O188 O 0.51596 0.1086 0.70298 0.0
O189 O 0.52066 0.10358 0.67458 0.0
O190 O 0.53942 0.1498 0.66469 0.0
O191 O 0.55166 0.12647 0.67721 0.0
C192 C 0.52416 0.15573 0.71322 0.0
O193 O 0.50467 0.13537 0.65819 0.0
O194 O 0.49093 0.13927 0.68361 0.0
In195 In 0.85708 0.51904 0.67793 0.0
O196 O 0.84798 0.52941 0.70612 0.0
O197 O 0.83263 0.50799 0.69358 0.0
C198 C 0.89206 0.51809 0.68986 0.0
C199 C 0.86016 0.48919 0.65632 0.0
C200 C 0.84389 0.54652 0.6568 0.0
O201 O 0.87994 0.50722 0.69571 0.0
O202 O 0.88638 0.52985 0.67845 0.0
O203 O 0.83852 0.53014 0.65532 0.0
O204 O 0.85548 0.54919 0.66938 0.0
C205 C 0.83483 0.51821 0.70738 0.0
O206 O 0.86841 0.50405 0.65293 0.0
O207 O 0.85013 0.4895 0.67045 0.0
In208 In 0.31175 0.48163 0.13109 0.0
O209 O 0.28095 0.47965 0.13677 0.0
O210 O 0.29907 0.47829 0.15946 0.0
C211 C 0.30074 0.48584 0.09612 0.0
C212 C 0.33231 0.5122 0.13422 0.0
C213 C 0.33394 0.45272 0.13758 0.0
O214 O 0.30669 0.47068 0.10215 0.0
O215 O 0.30012 0.49864 0.10779 0.0
O216 O 0.33488 0.46757 0.14642 0.0
O217 O 0.32149 0.45223 0.12551 0.0
C218 C 0.28272 0.47844 0.15392 0.0
O219 O 0.33709 0.49859 0.12461 0.0
O220 O 0.31716 0.51036 0.14243 0.0
In221 In 0.30672 0.51942 0.86751 0.0
O222 O 0.33481 0.5061 0.86984 0.0
O223 O 0.31556 0.49381 0.85163 0.0
C224 C 0.32508 0.55079 0.86101 0.0
C225 C 0.27482 0.51679 0.8489 0.0
C226 C 0.29851 0.51508 0.90332 0.0
O227 O 0.32457 0.53776 0.84957 0.0
O228 O 0.31592 0.54816 0.8755 0.0
O229 O 0.29388 0.52926 0.89449 0.0
O230 O 0.30721 0.50329 0.89412 0.0
C231 C 0.33137 0.49327 0.85872 0.0
O232 O 0.28006 0.50498 0.86038 0.0
O233 O 0.28566 0.53009 0.84674 0.0
In234 In 0.48542 0.31855 0.86671 0.0
O235 O 0.48555 0.28735 0.86503 0.0
O236 O 0.477 0.30238 0.84148 0.0
C237 C 0.48789 0.31692 0.90351 0.0
C238 C 0.51845 0.3268 0.85211 0.0
C239 C 0.45872 0.34398 0.86311 0.0
O240 O 0.47752 0.30631 0.89454 0.0
O241 O 0.49659 0.32841 0.89393 0.0
O242 O 0.47543 0.34798 0.86504 0.0
O243 O 0.4553 0.32698 0.86301 0.0
C244 C 0.48029 0.28689 0.84853 0.0
O245 O 0.50356 0.33232 0.84516 0.0
O246 O 0.51664 0.31697 0.86625 0.0
In247 In 0.6832 0.4731 0.87116 0.0
O248 O 0.65814 0.49045 0.87829 0.0
O249 O 0.67451 0.49923 0.85589 0.0
C250 C 0.66729 0.44329 0.85611 0.0
C251 C 0.71582 0.47751 0.85462 0.0
C252 C 0.68901 0.47159 0.90777 0.0
O253 O 0.66564 0.4592 0.84944 0.0
O254 O 0.67733 0.44231 0.87023 0.0
O255 O 0.70129 0.47643 0.8966 0.0
O256 O 0.67409 0.46684 0.90041 0.0
C257 C 0.66069 0.5022 0.86586 0.0
O258 O 0.70842 0.48991 0.86422 0.0
O259 O 0.7069 0.46266 0.85364 0.0
In260 In 0.51421 0.68368 0.86761 0.0
O261 O 0.52111 0.71247 0.85713 0.0
O262 O 0.5099 0.6934 0.83824 0.0
C263 C 0.51596 0.70003 0.90067 0.0
C264 C 0.48138 0.6667 0.86472 0.0
C265 C 0.54057 0.65767 0.8667 0.0
O266 O 0.50222 0.70146 0.89019 0.0
O267 O 0.52909 0.69061 0.8943 0.0
O268 O 0.52586 0.65592 0.87567 0.0
O269 O 0.54221 0.67277 0.85834 0.0
C270 C 0.51558 0.70947 0.84102 0.0
O271 O 0.49404 0.66453 0.8531 0.0
O272 O 0.48532 0.6773 0.87781 0.0
In273 In 0.681 0.51673 0.13542 0.0
O274 O 0.71133 0.52097 0.14185 0.0
O275 O 0.69239 0.52081 0.16407 0.0
C276 C 0.68377 0.51563 0.0986 0.0
C277 C 0.67326 0.4816 0.14422 0.0
C278 C 0.65681 0.54439 0.13982 0.0
O279 O 0.69647 0.5219 0.10859 0.0
O280 O 0.6697 0.51035 0.10719 0.0
O281 O 0.65249 0.52768 0.14101 0.0
O282 O 0.67355 0.54734 0.13642 0.0
C283 C 0.7089 0.52185 0.15899 0.0
O284 O 0.66407 0.49505 0.15014 0.0
O285 O 0.68651 0.48585 0.13392 0.0
In286 In 0.47835 0.69124 0.12486 0.0
O287 O 0.47417 0.72109 0.13332 0.0
O288 O 0.47615 0.70096 0.15439 0.0
C289 C 0.48576 0.70455 0.09111 0.0
C290 C 0.50739 0.67086 0.13562 0.0
C291 C 0.44902 0.66886 0.12258 0.0
O292 O 0.46964 0.70427 0.09749 0.0
O293 O 0.49787 0.69831 0.10177 0.0
O294 O 0.46322 0.66685 0.11287 0.0
O295 O 0.44927 0.68266 0.13309 0.0
C296 C 0.47451 0.71771 0.15032 0.0
O297 O 0.49171 0.6641 0.13285 0.0
O298 O 0.50838 0.688 0.1333 0.0
In299 In 0.52478 0.31918 0.13242 0.0
O300 O 0.50746 0.3425 0.14421 0.0
O301 O 0.49496 0.32485 0.12465 0.0
C302 C 0.55699 0.33507 0.14138 0.0
C303 C 0.51976 0.29085 0.15566 0.0
C304 C 0.52521 0.31363 0.09592 0.0
O305 O 0.54169 0.34297 0.14301 0.0
O306 O 0.55622 0.31893 0.1351 0.0
O307 O 0.5198 0.30166 0.1072 0.0
O308 O 0.5308 0.32841 0.10308 0.0
C309 C 0.49325 0.33852 0.13515 0.0
O310 O 0.52755 0.28897 0.14033 0.0
O311 O 0.51521 0.30708 0.15953 0.0
H312 H 0.13956 0.45653 0.32556 0.0
H313 H 0.1396 0.42816 0.34359 0.0
H314 H 0.09531 0.44926 0.37691 0.0
H315 H 0.09538 0.47775 0.35912 0.0
H316 H 0.1228 0.43667 0.39764 0.0
H317 H 0.08807 0.41458 0.3462 0.0
H318 H 0.08165 0.40852 0.31349 0.0
H319 H 0.13011 0.37504 0.30984 0.0
H320 H 0.13694 0.38105 0.3425 0.0
H321 H 0.10119 0.35784 0.44798 0.0
H322 H 0.09861 0.38227 0.42517 0.0
H323 H 0.14655 0.36147 0.39721 0.0
H324 H 0.14922 0.33679 0.42006 0.0
H325 H 0.11791 0.3732 0.37317 0.0
H326 H 0.1525 0.39568 0.42471 0.0
H327 H 0.15844 0.40149 0.45756 0.0
H328 H 0.10965 0.43454 0.46085 0.0
H329 H 0.10327 0.42869 0.42806 0.0
C330 C 0.1297 0.45503 0.33661 0.0
C331 C 0.11754 0.46937 0.34104 0.0
C332 C 0.12968 0.43878 0.34683 0.0
C333 C 0.1174 0.43659 0.36153 0.0
C334 C 0.10492 0.45071 0.36564 0.0
C335 C 0.10496 0.46695 0.35546 0.0
C336 C 0.11839 0.42014 0.37346 0.0
C337 C 0.12145 0.42281 0.3923 0.0
C338 C 0.11719 0.40206 0.3664 0.0
C339 C 0.11311 0.39842 0.34676 0.0
C340 C 0.09745 0.40605 0.33839 0.0
C341 C 0.09371 0.4026 0.31986 0.0
C342 C 0.10549 0.39146 0.30958 0.0
C343 C 0.12101 0.38369 0.31782 0.0
C344 C 0.1248 0.38709 0.33634 0.0
C345 C 0.11109 0.35832 0.43688 0.0
C346 C 0.12552 0.34553 0.43588 0.0
C347 C 0.10959 0.37229 0.42387 0.0
C348 C 0.12252 0.37376 0.40968 0.0
C349 C 0.13647 0.36053 0.40811 0.0
C350 C 0.13801 0.34652 0.42118 0.0
C351 C 0.12205 0.38983 0.39728 0.0
C352 C 0.11921 0.38709 0.37842 0.0
C353 C 0.12342 0.40791 0.40429 0.0
C354 C 0.12732 0.4116 0.42397 0.0
C355 C 0.14296 0.40407 0.43247 0.0
C356 C 0.14642 0.40739 0.45107 0.0
C357 C 0.1344 0.41834 0.4613 0.0
C358 C 0.11893 0.42604 0.45292 0.0
C359 C 0.11539 0.42274 0.43432 0.0
H360 H 0.1371 0.42089 0.4757 0.0
H361 H 0.10258 0.3888 0.29524 0.0
H362 H 0.66354 0.14648 0.41215 0.0
H363 H 0.64155 0.14847 0.38658 0.0
H364 H 0.60548 0.11092 0.41483 0.0
H365 H 0.62717 0.10896 0.44028 0.0
H366 H 0.60986 0.10263 0.37772 0.0
H367 H 0.59737 0.15546 0.41704 0.0
H368 H 0.60567 0.18433 0.4327 0.0
H369 H 0.61912 0.20893 0.38079 0.0
H370 H 0.61113 0.18009 0.36484 0.0
H371 H 0.51855 0.11189 0.35291 0.0
H372 H 0.54793 0.11309 0.36892 0.0
H373 H 0.56849 0.15154 0.32879 0.0
H374 H 0.53891 0.15041 0.31255 0.0
H375 H 0.57692 0.1611 0.36538 0.0
H376 H 0.58346 0.10982 0.32569 0.0
H377 H 0.57432 0.08109 0.31027 0.0
H378 H 0.57212 0.05349 0.36237 0.0
H379 H 0.58095 0.08214 0.37815 0.0
C380 C 0.65095 0.1386 0.4128 0.0
C381 C 0.64699 0.12762 0.42819 0.0
C382 C 0.63843 0.13977 0.39825 0.0
C383 C 0.62192 0.12986 0.39889 0.0
C384 C 0.61819 0.11861 0.41407 0.0
C385 C 0.63055 0.11758 0.42863 0.0
C386 C 0.60802 0.13144 0.38418 0.0
C387 C 0.60267 0.11541 0.37496 0.0
C388 C 0.5991 0.14826 0.3802 0.0
C389 C 0.60391 0.16556 0.38978 0.0
C390 C 0.60227 0.16697 0.40899 0.0
C391 C 0.60688 0.18333 0.41791 0.0
C392 C 0.61299 0.19843 0.40776 0.0
C393 C 0.61444 0.19721 0.38864 0.0
C394 C 0.60987 0.18086 0.37966 0.0
C395 C 0.52928 0.12066 0.3475 0.0
C396 C 0.5265 0.13099 0.33144 0.0
C397 C 0.54608 0.12126 0.35661 0.0
C398 C 0.56043 0.13218 0.34985 0.0
C399 C 0.55758 0.14295 0.33412 0.0
C400 C 0.54073 0.14228 0.32489 0.0
C401 C 0.5783 0.13213 0.35947 0.0
C402 C 0.58442 0.14843 0.36771 0.0
C403 C 0.58797 0.11554 0.36254 0.0
C404 C 0.58279 0.09819 0.35312 0.0
C405 C 0.58091 0.09767 0.33388 0.0
C406 C 0.57579 0.08139 0.32507 0.0
C407 C 0.57262 0.06548 0.33534 0.0
C408 C 0.57458 0.06582 0.35444 0.0
C409 C 0.57967 0.08208 0.36332 0.0
H410 H 0.56866 0.05289 0.32849 0.0
H411 H 0.61654 0.2111 0.41469 0.0
H412 H 0.85194 0.66572 0.41334 0.0
H413 H 0.8505 0.64193 0.38953 0.0
H414 H 0.8893 0.60903 0.42006 0.0
H415 H 0.89109 0.63281 0.44358 0.0
H416 H 0.89598 0.60654 0.38415 0.0
H417 H 0.84261 0.60274 0.4241 0.0
H418 H 0.81454 0.61478 0.43881 0.0
H419 H 0.79051 0.62437 0.38576 0.0
H420 H 0.81856 0.61259 0.37074 0.0
H421 H 0.87669 0.51359 0.36996 0.0
H422 H 0.87806 0.54443 0.38313 0.0
H423 H 0.84616 0.56551 0.33785 0.0
H424 H 0.84494 0.5346 0.32434 0.0
H425 H 0.83503 0.57748 0.37484 0.0
H426 H 0.88729 0.57515 0.33551 0.0
H427 H 0.91502 0.56107 0.32214 0.0
H428 H 0.94123 0.56173 0.37499 0.0
H429 H 0.91348 0.57548 0.38879 0.0
C430 C 0.86036 0.65352 0.4148 0.0
C431 C 0.87149 0.65101 0.43038 0.0
C432 C 0.85949 0.63994 0.40123 0.0
C433 C 0.8696 0.62361 0.40317 0.0
C434 C 0.88138 0.62153 0.41829 0.0
C435 C 0.88232 0.63509 0.43176 0.0
C436 C 0.86707 0.60802 0.39035 0.0
C437 C 0.88266 0.60021 0.38209 0.0
C438 C 0.84961 0.60001 0.3873 0.0
C439 C 0.83274 0.60702 0.39631 0.0
C440 C 0.83138 0.60755 0.41558 0.0
C441 C 0.81548 0.6143 0.42397 0.0
C442 C 0.80077 0.62039 0.41322 0.0
C443 C 0.80192 0.61969 0.39407 0.0
C444 C 0.81782 0.61298 0.38561 0.0
C445 C 0.86984 0.52475 0.36286 0.0
C446 C 0.86073 0.52175 0.34613 0.0
C447 C 0.87071 0.54234 0.37035 0.0
C448 C 0.86237 0.55718 0.36132 0.0
C449 C 0.85273 0.55418 0.34492 0.0
C450 C 0.85206 0.53657 0.33726 0.0
C451 C 0.86399 0.57579 0.36917 0.0
C452 C 0.84827 0.58412 0.3765 0.0
C453 C 0.88134 0.58419 0.37149 0.0
C454 C 0.89823 0.57624 0.36321 0.0
C455 C 0.89891 0.57217 0.34432 0.0
C456 C 0.91465 0.56426 0.33666 0.0
C457 C 0.92988 0.56048 0.34771 0.0
C458 C 0.92942 0.56466 0.36645 0.0
C459 C 0.91369 0.57253 0.3742 0.0
H460 H 0.94205 0.55433 0.34176 0.0
H461 H 0.78846 0.62561 0.41974 0.0
H462 H 0.36112 0.83817 0.44575 0.0
H463 H 0.3868 0.83679 0.42427 0.0
H464 H 0.35799 0.87295 0.38717 0.0
H465 H 0.33209 0.8745 0.40875 0.0
H466 H 0.37809 0.84248 0.36986 0.0
H467 H 0.38674 0.89221 0.41284 0.0
H468 H 0.38798 0.90598 0.44377 0.0
H469 H 0.43141 0.86895 0.45883 0.0
H470 H 0.43022 0.85475 0.42805 0.0
H471 H 0.45582 0.87496 0.3199 0.0
H472 H 0.42729 0.871 0.33712 0.0
H473 H 0.45724 0.84398 0.38063 0.0
H474 H 0.4859 0.84831 0.36364 0.0
H475 H 0.43573 0.86956 0.39415 0.0
H476 H 0.42824 0.82016 0.35151 0.0
H477 H 0.42696 0.80533 0.32108 0.0
H478 H 0.38191 0.84019 0.30564 0.0
H479 H 0.38308 0.85542 0.33591 0.0
C480 C 0.36009 0.84562 0.43291 0.0
C481 C 0.34469 0.8566 0.42899 0.0
C482 C 0.37477 0.8448 0.42066 0.0
C483 C 0.3743 0.8549 0.40428 0.0
C484 C 0.35854 0.86506 0.39979 0.0
C485 C 0.34383 0.86598 0.41213 0.0
C486 C 0.39095 0.85605 0.39275 0.0
C487 C 0.39067 0.8486 0.375 0.0
C488 C 0.40738 0.86365 0.39975 0.0
C489 C 0.40826 0.8723 0.4182 0.0
C490 C 0.39645 0.8869 0.42279 0.0
C491 C 0.39716 0.8948 0.44029 0.0
C492 C 0.40973 0.88831 0.45328 0.0
C493 C 0.42166 0.87394 0.44876 0.0
C494 C 0.42098 0.86598 0.43129 0.0
C495 C 0.45629 0.86801 0.33305 0.0
C496 C 0.47307 0.862 0.34048 0.0
C497 C 0.43996 0.86566 0.34283 0.0
C498 C 0.44011 0.85706 0.36009 0.0
C499 C 0.45682 0.85067 0.36733 0.0
C500 C 0.47316 0.85312 0.35761 0.0
C501 C 0.42308 0.85582 0.37116 0.0
C502 C 0.42324 0.86337 0.3889 0.0
C503 C 0.40662 0.84819 0.36414 0.0
C504 C 0.40587 0.83906 0.34592 0.0
C505 C 0.41816 0.82477 0.34158 0.0
C506 C 0.41744 0.81627 0.32436 0.0
C507 C 0.4044 0.82184 0.31142 0.0
C508 C 0.39202 0.8359 0.31568 0.0
C509 C 0.39269 0.84446 0.33287 0.0
H510 H 0.40386 0.81524 0.2981 0.0
H511 H 0.41026 0.89444 0.46682 0.0
H512 H 0.16375 0.51658 0.65011 0.0
H513 H 0.17053 0.54463 0.63282 0.0
H514 H 0.12595 0.57242 0.66038 0.0
H515 H 0.1194 0.54467 0.67789 0.0
H516 H 0.14822 0.55878 0.6088 0.0
H517 H 0.13161 0.61794 0.66074 0.0
H518 H 0.13712 0.62512 0.69339 0.0
H519 H 0.18375 0.58895 0.69382 0.0
H520 H 0.17872 0.58176 0.66111 0.0
H521 H 0.10895 0.6329 0.56381 0.0
H522 H 0.11546 0.60939 0.58686 0.0
H523 H 0.16656 0.63623 0.60019 0.0
H524 H 0.15999 0.66003 0.57728 0.0
H525 H 0.14939 0.62328 0.6309 0.0
H526 H 0.16788 0.6001 0.57269 0.0
H527 H 0.16465 0.59299 0.53972 0.0
H528 H 0.11954 0.55695 0.5516 0.0
H529 H 0.12231 0.56406 0.58463 0.0
C530 C 0.15572 0.52883 0.6528 0.0
C531 C 0.14095 0.52842 0.6652 0.0
C532 C 0.15959 0.54482 0.6429 0.0
C533 C 0.14878 0.56063 0.64533 0.0
C534 C 0.13469 0.56051 0.65848 0.0
C535 C 0.13086 0.54458 0.6684 0.0
C536 C 0.15046 0.57638 0.63253 0.0
C537 C 0.14872 0.57287 0.61365 0.0
C538 C 0.15145 0.59477 0.63881 0.0
C539 C 0.15471 0.59923 0.65846 0.0
C540 C 0.14312 0.6116 0.66775 0.0
C541 C 0.14614 0.61565 0.68629 0.0
C542 C 0.16075 0.60747 0.69568 0.0
C543 C 0.17241 0.59524 0.68654 0.0
C544 C 0.16946 0.59115 0.66801 0.0
C545 C 0.12147 0.63393 0.5718 0.0
C546 C 0.13404 0.64819 0.56866 0.0
C547 C 0.1252 0.62046 0.5849 0.0
C548 C 0.14165 0.62091 0.59496 0.0
C549 C 0.15384 0.63561 0.59249 0.0
C550 C 0.15007 0.64915 0.5794 0.0
C551 C 0.14634 0.60555 0.60742 0.0
C552 C 0.14925 0.60916 0.62612 0.0
C553 C 0.14684 0.58721 0.60099 0.0
C554 C 0.14524 0.5827 0.58114 0.0
C555 C 0.1572 0.59074 0.56827 0.0
C556 C 0.15546 0.5867 0.54957 0.0
C557 C 0.14188 0.57455 0.54357 0.0
C558 C 0.13005 0.56637 0.55627 0.0
C559 C 0.13171 0.57038 0.57499 0.0
H560 H 0.14055 0.57144 0.52908 0.0
H561 H 0.16306 0.61061 0.71003 0.0
H562 H 0.33306 0.1411 0.57801 0.0
H563 H 0.35521 0.14541 0.60306 0.0
H564 H 0.39272 0.1081 0.57613 0.0
H565 H 0.37042 0.10312 0.55176 0.0
H566 H 0.39394 0.10181 0.61053 0.0
H567 H 0.39538 0.15724 0.57329 0.0
H568 H 0.382 0.18491 0.55895 0.0
H569 H 0.36669 0.20544 0.61213 0.0
H570 H 0.37981 0.17777 0.62676 0.0
H571 H 0.48337 0.13021 0.63056 0.0
H572 H 0.45374 0.12894 0.61488 0.0
H573 H 0.42663 0.14821 0.66391 0.0
H574 H 0.45634 0.14917 0.67996 0.0
H575 H 0.41632 0.16463 0.6247 0.0
H576 H 0.42045 0.10939 0.66128 0.0
H577 H 0.43707 0.08252 0.67339 0.0
H578 H 0.44436 0.06188 0.6186 0.0
H579 H 0.42813 0.08893 0.6061 0.0
C580 C 0.34598 0.13371 0.57761 0.0
C581 C 0.35008 0.12182 0.56296 0.0
C582 C 0.35865 0.13625 0.59185 0.0
C583 C 0.37576 0.12728 0.59137 0.0
C584 C 0.37961 0.11513 0.57689 0.0
C585 C 0.36687 0.11233 0.56291 0.0
C586 C 0.39009 0.13077 0.60545 0.0
C587 C 0.39875 0.11557 0.61362 0.0
C588 C 0.39619 0.14874 0.60987 0.0
C589 C 0.38835 0.16536 0.60108 0.0
C590 C 0.38904 0.1676 0.5819 0.0
C591 C 0.38153 0.18329 0.57373 0.0
C592 C 0.37344 0.19689 0.58462 0.0
C593 C 0.37291 0.19487 0.60371 0.0
C594 C 0.38039 0.1792 0.61195 0.0
C595 C 0.47115 0.1344 0.63797 0.0
C596 C 0.47211 0.13969 0.6565 0.0
C597 C 0.45427 0.13367 0.629 0.0
C598 C 0.43812 0.13842 0.63832 0.0
C599 C 0.43904 0.14453 0.65656 0.0
C600 C 0.45595 0.14501 0.66568 0.0
C601 C 0.4203 0.13568 0.62913 0.0
C602 C 0.41108 0.15096 0.62192 0.0
C603 C 0.41386 0.1178 0.62529 0.0
C604 C 0.42319 0.10127 0.63276 0.0
C605 C 0.42572 0.0992 0.6518 0.0
C606 C 0.43506 0.08392 0.65874 0.0
C607 C 0.44179 0.07048 0.64679 0.0
C608 C 0.43915 0.0723 0.62785 0.0
C609 C 0.42987 0.08761 0.62083 0.0
H610 H 0.44903 0.05866 0.6522 0.0
H611 H 0.36763 0.20902 0.57826 0.0
H612 H 0.88154 0.48524 0.62583 0.0
H613 H 0.88577 0.45756 0.60725 0.0
H614 H 0.84827 0.42812 0.64244 0.0
H615 H 0.84417 0.4557 0.66125 0.0
H616 H 0.87893 0.408 0.63469 0.0
H617 H 0.83422 0.44344 0.60105 0.0
H618 H 0.82247 0.47138 0.58586 0.0
H619 H 0.86795 0.47042 0.5483 0.0
H620 H 0.88011 0.4426 0.56343 0.0
H621 H 0.85981 0.33198 0.57628 0.0
H622 H 0.85867 0.35895 0.5963 0.0
H623 H 0.89411 0.38826 0.55891 0.0
H624 H 0.89501 0.36147 0.53867 0.0
H625 H 0.86531 0.40862 0.56788 0.0
H626 H 0.90978 0.37294 0.60064 0.0
H627 H 0.92229 0.34547 0.61606 0.0
H628 H 0.87825 0.34709 0.65527 0.0
H629 H 0.86532 0.37443 0.63992 0.0
C630 C 0.87417 0.47288 0.62958 0.0
C631 C 0.86246 0.47262 0.64491 0.0
C632 C 0.87658 0.4571 0.61895 0.0
C633 C 0.8672 0.44086 0.6234 0.0
C634 C 0.85563 0.44053 0.6388 0.0
C635 C 0.85323 0.4563 0.64946 0.0
C636 C 0.86935 0.42425 0.61188 0.0
C637 C 0.87575 0.40803 0.62013 0.0
C638 C 0.86563 0.4245 0.59281 0.0
C639 C 0.85816 0.44104 0.58348 0.0
C640 C 0.84177 0.44925 0.58962 0.0
C641 C 0.83503 0.46506 0.58101 0.0
C642 C 0.84448 0.4727 0.56616 0.0
C643 C 0.86065 0.4645 0.55982 0.0
C644 C 0.86746 0.4487 0.56839 0.0
C645 C 0.86752 0.34411 0.57245 0.0
C646 C 0.87748 0.34466 0.55593 0.0
C647 C 0.86691 0.35948 0.58392 0.0
C648 C 0.87641 0.37558 0.57915 0.0
C649 C 0.88667 0.37599 0.56283 0.0
C650 C 0.88721 0.36066 0.55133 0.0
C651 C 0.87489 0.39228 0.59068 0.0
C652 C 0.86857 0.40855 0.58244 0.0
C653 C 0.87874 0.39207 0.60974 0.0
C654 C 0.88649 0.37563 0.61902 0.0
C655 C 0.90268 0.36735 0.61246 0.0
C656 C 0.90986 0.35182 0.6212 0.0
C657 C 0.90104 0.34451 0.63661 0.0
C658 C 0.88505 0.35275 0.64332 0.0
C659 C 0.8778 0.36827 0.63462 0.0
H660 H 0.90662 0.33249 0.64336 0.0
H661 H 0.83926 0.48496 0.55953 0.0
H662 H 0.52314 0.83869 0.64633 0.0
H663 H 0.55454 0.83558 0.63505 0.0
H664 H 0.57266 0.87659 0.67384 0.0
H665 H 0.54112 0.87995 0.68506 0.0
H666 H 0.58363 0.88459 0.64002 0.0
H667 H 0.58686 0.83197 0.67825 0.0
H668 H 0.57667 0.80276 0.692 0.0
H669 H 0.57828 0.77688 0.639 0.0
H670 H 0.58822 0.806 0.62486 0.0
H671 H 0.66925 0.87677 0.59524 0.0
H672 H 0.64829 0.8741 0.62146 0.0
H673 H 0.61585 0.83464 0.59143 0.0
H674 H 0.63682 0.837 0.56542 0.0
H675 H 0.61686 0.8263 0.62776 0.0
H676 H 0.60592 0.88023 0.58953 0.0
H677 H 0.61479 0.90948 0.5749 0.0
H678 H 0.62659 0.93267 0.62787 0.0
H679 H 0.61801 0.90344 0.64278 0.0
C680 C 0.53386 0.84684 0.65266 0.0
C681 C 0.52969 0.85963 0.66649 0.0
C682 C 0.55183 0.84495 0.6463 0.0
C683 C 0.56599 0.85571 0.65375 0.0
C684 C 0.56195 0.86809 0.66798 0.0
C685 C 0.54395 0.86999 0.67436 0.0
C686 C 0.58444 0.85543 0.64519 0.0
C687 C 0.59117 0.87191 0.63781 0.0
C688 C 0.59411 0.83885 0.64204 0.0
C689 C 0.58822 0.82123 0.65048 0.0
C690 C 0.58493 0.82009 0.66949 0.0
C691 C 0.57921 0.80353 0.67737 0.0
C692 C 0.57681 0.78798 0.66638 0.0
C693 C 0.58016 0.78894 0.6475 0.0
C694 C 0.58587 0.80546 0.63955 0.0
C695 C 0.65787 0.86724 0.59441 0.0
C696 C 0.65449 0.85729 0.57821 0.0
C697 C 0.64592 0.86574 0.60938 0.0
C698 C 0.63037 0.85439 0.60825 0.0
C699 C 0.62775 0.84349 0.59258 0.0
C700 C 0.63969 0.84493 0.57768 0.0
C701 C 0.61564 0.85533 0.62224 0.0
C702 C 0.60959 0.83902 0.63053 0.0
C703 C 0.60648 0.87204 0.62618 0.0
C704 C 0.61157 0.88961 0.61723 0.0
C705 C 0.61054 0.89153 0.59803 0.0
C706 C 0.6155 0.90811 0.5897 0.0
C707 C 0.62132 0.92291 0.60045 0.0
C708 C 0.62213 0.92118 0.61956 0.0
C709 C 0.61723 0.90462 0.62796 0.0
H710 H 0.62514 0.93573 0.59397 0.0
H711 H 0.57238 0.77518 0.6725 0.0
H712 H 0.35116 0.15206 0.47257 0.0
H713 H 0.37016 0.15461 0.4449 0.0
H714 H 0.38292 0.09681 0.44819 0.0
H715 H 0.36385 0.09411 0.47574 0.0
H716 H 0.41342 0.11934 0.43937 0.0
H717 H 0.35055 0.10912 0.42059 0.0
H718 H 0.31739 0.116 0.41989 0.0
H719 H 0.32856 0.16938 0.39739 0.0
H720 H 0.36184 0.1629 0.39824 0.0
H721 H 0.44174 0.096 0.35038 0.0
H722 H 0.42349 0.09752 0.37852 0.0
H723 H 0.41245 0.15491 0.36853 0.0
H724 H 0.43076 0.15351 0.34029 0.0
H725 H 0.38174 0.13543 0.3811 0.0
H726 H 0.44429 0.14524 0.39777 0.0
H727 H 0.47752 0.13879 0.39848 0.0
H728 H 0.46731 0.08716 0.42513 0.0
H729 H 0.43396 0.09317 0.42429 0.0
C730 C 0.35823 0.13997 0.46753 0.0
C731 C 0.35598 0.12286 0.47619 0.0
C732 C 0.369 0.14144 0.45173 0.0
C733 C 0.37776 0.12586 0.44448 0.0
C734 C 0.37623 0.10897 0.45361 0.0
C735 C 0.36531 0.10744 0.46928 0.0
C736 C 0.38771 0.12687 0.42684 0.0
C737 C 0.4065 0.12271 0.4266 0.0
C738 C 0.37868 0.13175 0.41032 0.0
C739 C 0.35869 0.13562 0.40969 0.0
C740 C 0.34595 0.12239 0.41565 0.0
C741 C 0.32713 0.1262 0.4152 0.0
C742 C 0.32087 0.14314 0.40865 0.0
C743 C 0.33343 0.15628 0.4025 0.0
C744 C 0.35227 0.15254 0.40295 0.0
C745 C 0.43522 0.10888 0.35403 0.0
C746 C 0.43774 0.12467 0.34324 0.0
C747 C 0.42489 0.10975 0.37014 0.0
C748 C 0.4169 0.1264 0.37569 0.0
C749 C 0.41861 0.14197 0.36447 0.0
C750 C 0.42906 0.14114 0.34839 0.0
C751 C 0.40741 0.12761 0.39358 0.0
C752 C 0.38871 0.13221 0.39388 0.0
C753 C 0.41654 0.12323 0.41019 0.0
C754 C 0.4366 0.11958 0.4108 0.0
C755 C 0.44911 0.13243 0.40363 0.0
C756 C 0.46797 0.12887 0.40408 0.0
C757 C 0.47452 0.11255 0.4118 0.0
C758 C 0.46222 0.09978 0.41913 0.0
C759 C 0.44333 0.10327 0.41868 0.0
H760 H 0.48914 0.10982 0.41215 0.0
H761 H 0.3063 0.14607 0.40831 0.0
H762 H 0.84233 0.34759 0.48032 0.0
H763 H 0.83678 0.36295 0.45098 0.0
H764 H 0.86272 0.31796 0.42234 0.0
H765 H 0.86835 0.3025 0.45169 0.0
H766 H 0.87758 0.35106 0.41366 0.0
H767 H 0.81786 0.32515 0.41645 0.0
H768 H 0.78833 0.31689 0.43077 0.0
H769 H 0.7751 0.37402 0.43735 0.0
H770 H 0.8047 0.38265 0.42336 0.0
H771 H 0.86728 0.40417 0.33307 0.0
H772 H 0.8632 0.3776 0.35333 0.0
H773 H 0.83419 0.41174 0.39222 0.0
H774 H 0.83773 0.4381 0.37185 0.0
H775 H 0.81927 0.37844 0.39132 0.0
H776 H 0.88086 0.40368 0.39576 0.0
H777 H 0.91107 0.41295 0.38355 0.0
H778 H 0.921 0.35774 0.36523 0.0
H779 H 0.89073 0.3482 0.37714 0.0
C780 C 0.84656 0.34083 0.46775 0.0
C781 C 0.85589 0.32394 0.46827 0.0
C782 C 0.84328 0.34955 0.451 0.0
C783 C 0.84925 0.34152 0.4345 0.0
C784 C 0.85796 0.32433 0.43493 0.0
C785 C 0.86116 0.31554 0.45169 0.0
C786 C 0.84822 0.3521 0.41718 0.0
C787 C 0.86477 0.35665 0.40846 0.0
C788 C 0.83154 0.35966 0.41069 0.0
C789 C 0.81358 0.35455 0.41892 0.0
C790 C 0.80872 0.33597 0.42105 0.0
C791 C 0.79195 0.33121 0.42911 0.0
C792 C 0.77985 0.34492 0.43498 0.0
C793 C 0.78448 0.36342 0.43278 0.0
C794 C 0.80125 0.36825 0.42477 0.0
C795 C 0.8598 0.4059 0.34582 0.0
C796 C 0.85302 0.42322 0.35102 0.0
C797 C 0.85749 0.39074 0.35738 0.0
C798 C 0.84864 0.39276 0.37442 0.0
C799 C 0.84105 0.40985 0.37914 0.0
C800 C 0.84319 0.42493 0.36753 0.0
C801 C 0.84869 0.37774 0.38815 0.0
C802 C 0.832 0.37242 0.39622 0.0
C803 C 0.86527 0.36958 0.39423 0.0
C804 C 0.88346 0.37529 0.38711 0.0
C805 C 0.88944 0.39356 0.389 0.0
C806 C 0.90657 0.39885 0.38216 0.0
C807 C 0.91792 0.38596 0.37356 0.0
C808 C 0.91218 0.36772 0.37184 0.0
C809 C 0.89504 0.36236 0.37864 0.0
H810 H 0.93118 0.39008 0.36828 0.0
H811 H 0.76689 0.34121 0.44122 0.0
H812 H 0.58379 0.85963 0.33685 0.0
H813 H 0.60665 0.85845 0.36156 0.0
H814 H 0.57131 0.89161 0.39579 0.0
H815 H 0.54879 0.89328 0.37106 0.0
H816 H 0.60537 0.90217 0.3999 0.0
H817 H 0.57361 0.8438 0.39937 0.0
H818 H 0.5629 0.81479 0.38553 0.0
H819 H 0.61872 0.79865 0.37527 0.0
H820 H 0.62975 0.8277 0.38886 0.0
H821 H 0.62847 0.8793 0.49084 0.0
H822 H 0.61268 0.88078 0.46122 0.0
H823 H 0.65968 0.8563 0.43468 0.0
H824 H 0.67572 0.85496 0.46432 0.0
H825 H 0.62427 0.84128 0.42418 0.0
H826 H 0.65552 0.89893 0.42895 0.0
H827 H 0.66504 0.9275 0.44446 0.0
H828 H 0.60873 0.94472 0.44811 0.0
H829 H 0.59884 0.9161 0.43289 0.0
C830 C 0.58103 0.86681 0.3496 0.0
C831 C 0.56449 0.87646 0.35209 0.0
C832 C 0.59404 0.86606 0.36372 0.0
C833 C 0.59057 0.87472 0.38063 0.0
C834 C 0.5743 0.88483 0.38287 0.0
C835 C 0.5614 0.88572 0.36874 0.0
C836 C 0.60342 0.87284 0.39632 0.0
C837 C 0.60943 0.88885 0.40523 0.0
C838 C 0.6091 0.85546 0.40305 0.0
C839 C 0.60249 0.838 0.39492 0.0
C840 C 0.58359 0.83412 0.39403 0.0
C841 C 0.57747 0.81767 0.38626 0.0
C842 C 0.59012 0.80491 0.37947 0.0
C843 C 0.60893 0.80856 0.38049 0.0
C844 C 0.61513 0.82501 0.38824 0.0
C845 C 0.6354 0.87412 0.47872 0.0
C846 C 0.65333 0.86707 0.47984 0.0
C847 C 0.6264 0.87504 0.46183 0.0
C848 C 0.63512 0.8688 0.44581 0.0
C849 C 0.65279 0.86122 0.44693 0.0
C850 C 0.66191 0.8605 0.46382 0.0
C851 C 0.62573 0.87058 0.42791 0.0
C852 C 0.62042 0.85458 0.41862 0.0
C853 C 0.62053 0.88795 0.42094 0.0
C854 C 0.62643 0.90529 0.42989 0.0
C855 C 0.64515 0.90874 0.43318 0.0
C856 C 0.65062 0.92495 0.4419 0.0
C857 C 0.63749 0.9379 0.4473 0.0
C858 C 0.61888 0.93467 0.44393 0.0
C859 C 0.61334 0.91847 0.43524 0.0
H860 H 0.64175 0.95044 0.45405 0.0
H861 H 0.58536 0.79218 0.37346 0.0
H862 H 0.14177 0.67713 0.45897 0.0
H863 H 0.14525 0.65973 0.4304 0.0
H864 H 0.14676 0.60916 0.46127 0.0
H865 H 0.14306 0.62645 0.48993 0.0
H866 H 0.17286 0.61151 0.43112 0.0
H867 H 0.1083 0.62086 0.44492 0.0
H868 H 0.08141 0.64015 0.45213 0.0
H869 H 0.08798 0.66898 0.40107 0.0
H870 H 0.11522 0.6501 0.39375 0.0
H871 H 0.14311 0.54061 0.37352 0.0
H872 H 0.14876 0.56345 0.39728 0.0
H873 H 0.13593 0.60682 0.35889 0.0
H874 H 0.1298 0.58383 0.33501 0.0
H875 H 0.11834 0.61194 0.39015 0.0
H876 H 0.1803 0.59998 0.37405 0.0
H877 H 0.20771 0.58141 0.36683 0.0
H878 H 0.20685 0.55837 0.42113 0.0
H879 H 0.17927 0.57659 0.42862 0.0
C880 C 0.1431 0.66232 0.45969 0.0
C881 C 0.142 0.65309 0.47662 0.0
C882 C 0.14509 0.65243 0.44338 0.0
C883 C 0.14615 0.63321 0.4438 0.0
C884 C 0.146 0.62402 0.46074 0.0
C885 C 0.1438 0.63388 0.47705 0.0
C886 C 0.14583 0.62255 0.42655 0.0
C887 C 0.16095 0.61149 0.42215 0.0
C888 C 0.13048 0.62309 0.41466 0.0
C889 C 0.11393 0.63423 0.4189 0.0
C890 C 0.10411 0.63142 0.43531 0.0
C891 C 0.08879 0.64226 0.4394 0.0
C892 C 0.083 0.65581 0.42708 0.0
C893 C 0.0925 0.6585 0.41062 0.0
C894 C 0.10789 0.64775 0.40649 0.0
C895 C 0.14166 0.55501 0.37005 0.0
C896 C 0.13599 0.56045 0.35243 0.0
C897 C 0.14503 0.56807 0.38362 0.0
C898 C 0.14303 0.58687 0.3798 0.0
C899 C 0.13764 0.59239 0.3621 0.0
C900 C 0.13417 0.57927 0.34849 0.0
C901 C 0.14528 0.60049 0.39476 0.0
C902 C 0.13046 0.61215 0.39882 0.0
C903 C 0.16099 0.60057 0.40626 0.0
C904 C 0.17763 0.58959 0.40186 0.0
C905 C 0.18587 0.59086 0.38442 0.0
C906 C 0.20145 0.58041 0.38028 0.0
C907 C 0.209 0.5687 0.3935 0.0
C908 C 0.20099 0.56744 0.41091 0.0
C909 C 0.1854 0.57786 0.41511 0.0
H910 H 0.22106 0.56062 0.39027 0.0
H911 H 0.07113 0.6642 0.43027 0.0
H912 H 0.3154 0.85181 0.53553 0.0
H913 H 0.33376 0.85013 0.56374 0.0
H914 H 0.37909 0.87599 0.53574 0.0
H915 H 0.3608 0.87791 0.5076 0.0
H916 H 0.38784 0.84274 0.55523 0.0
H917 H 0.35489 0.90054 0.56392 0.0
H918 H 0.32675 0.91923 0.56683 0.0
H919 H 0.30935 0.88649 0.61268 0.0
H920 H 0.33725 0.8674 0.60988 0.0
H921 H 0.45208 0.87191 0.61881 0.0
H922 H 0.42877 0.86939 0.59501 0.0
H923 H 0.38846 0.85438 0.63581 0.0
H924 H 0.41182 0.85752 0.65999 0.0
H925 H 0.37395 0.87765 0.61216 0.0
H926 H 0.40663 0.82182 0.60667 0.0
H927 H 0.43345 0.80122 0.6046 0.0
H928 H 0.44954 0.82677 0.55392 0.0
H929 H 0.42296 0.84772 0.55581 0.0
C930 C 0.32925 0.85721 0.53544 0.0
C931 C 0.33672 0.86498 0.51941 0.0
C932 C 0.33967 0.85627 0.55154 0.0
C933 C 0.35772 0.86295 0.55175 0.0
C934 C 0.36517 0.87075 0.53578 0.0
C935 C 0.35471 0.87189 0.51977 0.0
C936 C 0.36916 0.86147 0.56843 0.0
C937 C 0.38493 0.85045 0.56766 0.0
C938 C 0.36475 0.87085 0.58487 0.0
C939 C 0.34805 0.88241 0.58656 0.0
C940 C 0.34498 0.89721 0.57451 0.0
C941 C 0.3291 0.9079 0.57616 0.0
C942 C 0.31626 0.90402 0.58988 0.0
C943 C 0.3193 0.88947 0.60203 0.0
C944 C 0.33514 0.87871 0.60043 0.0
C945 C 0.43827 0.86802 0.62275 0.0
C946 C 0.43377 0.86478 0.64122 0.0
C947 C 0.42497 0.86649 0.60911 0.0
C948 C 0.40696 0.86129 0.61357 0.0
C949 C 0.40231 0.85828 0.63206 0.0
C950 C 0.41564 0.86004 0.64582 0.0
C951 C 0.39312 0.85943 0.59876 0.0
C952 C 0.37682 0.86971 0.59987 0.0
C953 C 0.39682 0.84904 0.58272 0.0
C954 C 0.41283 0.83643 0.58145 0.0
C955 C 0.41595 0.82313 0.59514 0.0
C956 C 0.43111 0.81138 0.59399 0.0
C957 C 0.44321 0.8127 0.57915 0.0
C958 C 0.44015 0.82576 0.56541 0.0
C959 C 0.42503 0.83756 0.5665 0.0
H960 H 0.45493 0.80359 0.57829 0.0
H961 H 0.30398 0.91233 0.59113 0.0
H962 H 0.13208 0.415 0.66491 0.0
H963 H 0.13712 0.39158 0.64113 0.0
H964 H 0.13075 0.43293 0.59911 0.0
H965 H 0.1256 0.45621 0.62262 0.0
H966 H 0.11084 0.40267 0.59165 0.0
H967 H 0.17275 0.417 0.61078 0.0
H968 H 0.19805 0.42006 0.63309 0.0
H969 H 0.19422 0.3626 0.64589 0.0
H970 H 0.1687 0.35925 0.62382 0.0
H971 H 0.14571 0.36541 0.5113 0.0
H972 H 0.14532 0.38408 0.53917 0.0
H973 H 0.14603 0.335 0.57238 0.0
H974 H 0.14638 0.31612 0.54445 0.0
H975 H 0.16798 0.36572 0.58648 0.0
H976 H 0.10702 0.35129 0.56595 0.0
H977 H 0.08238 0.34841 0.54289 0.0
H978 H 0.0847 0.40646 0.53263 0.0
H979 H 0.1096 0.40964 0.55543 0.0
C980 C 0.13176 0.41903 0.65059 0.0
C981 C 0.12843 0.4374 0.64559 0.0
C982 C 0.13472 0.40569 0.63705 0.0
C983 C 0.1344 0.41057 0.61838 0.0
C984 C 0.13102 0.42888 0.61344 0.0
C985 C 0.12811 0.44217 0.6269 0.0
C986 C 0.13719 0.39671 0.60378 0.0
C987 C 0.12339 0.39469 0.59049 0.0
C988 C 0.15335 0.38592 0.60256 0.0
C989 C 0.16867 0.38792 0.61582 0.0
C990 C 0.17719 0.40505 0.61848 0.0
C991 C 0.19159 0.40683 0.63105 0.0
C992 C 0.1977 0.39155 0.64095 0.0
C993 C 0.18945 0.37444 0.63825 0.0
C994 C 0.17502 0.37258 0.6257 0.0
C995 C 0.14616 0.35857 0.52451 0.0
C996 C 0.14585 0.33932 0.52573 0.0
C997 C 0.14594 0.36925 0.54041 0.0
C998 C 0.14541 0.36086 0.55775 0.0
C999 C 0.14641 0.34167 0.55907 0.0
C1000 C 0.14655 0.33094 0.54313 0.0
C1001 C 0.14185 0.37216 0.57422 0.0
C1002 C 0.15539 0.3736 0.58783 0.0
C1003 C 0.12545 0.38247 0.5758 0.0
C1004 C 0.11028 0.38067 0.56229 0.0
C1005 C 0.10237 0.36342 0.55868 0.0
C1006 C 0.08835 0.36174 0.54567 0.0
C1007 C 0.082 0.37724 0.53628 0.0
C1008 C 0.08964 0.39447 0.53991 0.0
C1009 C 0.1037 0.39622 0.55289 0.0
H1010 H 0.07115 0.37591 0.5262 0.0
H1011 H 0.20886 0.39295 0.65068 0.0
H1012 H 0.56088 0.16814 0.6431 0.0
H1013 H 0.58324 0.16841 0.61809 0.0
H1014 H 0.60355 0.11547 0.63542 0.0
H1015 H 0.58141 0.11526 0.66075 0.0
H1016 H 0.63119 0.13762 0.62149 0.0
H1017 H 0.57086 0.11708 0.604 0.0
H1018 H 0.53716 0.11953 0.6016 0.0
H1019 H 0.54264 0.16882 0.56964 0.0
H1020 H 0.5764 0.16681 0.57211 0.0
H1021 H 0.66462 0.10564 0.53517 0.0
H1022 H 0.64852 0.10933 0.56444 0.0
H1023 H 0.62578 0.16077 0.54554 0.0
H1024 H 0.64155 0.15697 0.51611 0.0
H1025 H 0.60008 0.13992 0.56082 0.0
H1026 H 0.661 0.15935 0.5771 0.0
H1027 H 0.69465 0.1563 0.57955 0.0
H1028 H 0.68822 0.10843 0.61342 0.0
H1029 H 0.65452 0.11105 0.61097 0.0
C1030 C 0.57041 0.15677 0.64187 0.0
C1031 C 0.56925 0.14155 0.65368 0.0
C1032 C 0.58314 0.15693 0.62756 0.0
C1033 C 0.59473 0.14178 0.62469 0.0
C1034 C 0.59465 0.12725 0.63737 0.0
C1035 C 0.58198 0.12714 0.6518 0.0
C1036 C 0.60531 0.14016 0.60741 0.0
C1037 C 0.62443 0.13798 0.60821 0.0
C1038 C 0.59643 0.14081 0.59011 0.0
C1039 C 0.57614 0.1419 0.58839 0.0
C1040 C 0.56487 0.12851 0.59656 0.0
C1041 C 0.54576 0.12981 0.59519 0.0
C1042 C 0.53776 0.14434 0.58552 0.0
C1043 C 0.54886 0.15758 0.57715 0.0
C1044 C 0.56798 0.15637 0.57853 0.0
C1045 C 0.65623 0.11776 0.53729 0.0
C1046 C 0.65432 0.13104 0.5234 0.0
C1047 C 0.64713 0.1199 0.55405 0.0
C1048 C 0.63615 0.13545 0.55725 0.0
C1049 C 0.63423 0.1487 0.54336 0.0
C1050 C 0.64323 0.14652 0.52657 0.0
C1051 C 0.62607 0.1376 0.5748 0.0
C1052 C 0.60695 0.13973 0.57406 0.0
C1053 C 0.63498 0.13682 0.59209 0.0
C1054 C 0.65523 0.13531 0.59372 0.0
C1055 C 0.66676 0.1481 0.58497 0.0
C1056 C 0.68584 0.14646 0.58637 0.0
C1057 C 0.69357 0.13215 0.5966 0.0
C1058 C 0.68222 0.11949 0.60549 0.0
C1059 C 0.66313 0.12106 0.60411 0.0
H1060 H 0.70834 0.1309 0.59766 0.0
H1061 H 0.52296 0.14533 0.58447 0.0
H1062 H 0.82264 0.54255 0.62624 0.0
H1063 H 0.81942 0.56437 0.60091 0.0
H1064 H 0.8511 0.60428 0.6311 0.0
H1065 H 0.8544 0.58251 0.65655 0.0
H1066 H 0.8216 0.61974 0.61009 0.0
H1067 H 0.87317 0.57798 0.60311 0.0
H1068 H 0.8873 0.54719 0.60192 0.0
H1069 H 0.85259 0.53272 0.55646 0.0
H1070 H 0.83806 0.56338 0.55757 0.0
H1071 H 0.86255 0.67395 0.54058 0.0
H1072 H 0.85505 0.65453 0.5669 0.0
H1073 H 0.83205 0.61386 0.53041 0.0
H1074 H 0.83996 0.63305 0.50397 0.0
H1075 H 0.85399 0.59813 0.55408 0.0
H1076 H 0.80455 0.64079 0.55848 0.0
H1077 H 0.78967 0.67121 0.55973 0.0
H1078 H 0.81891 0.68379 0.6094 0.0
H1079 H 0.83419 0.65354 0.6083 0.0
C1080 C 0.82855 0.55612 0.62768 0.0
C1081 C 0.83897 0.56077 0.64326 0.0
C1082 C 0.82671 0.56855 0.61319 0.0
C1083 C 0.83524 0.58579 0.61408 0.0
C1084 C 0.84444 0.591 0.63019 0.0
C1085 C 0.84636 0.57854 0.64467 0.0
C1086 C 0.83644 0.59747 0.59751 0.0
C1087 C 0.82875 0.61513 0.59785 0.0
C1088 C 0.84543 0.59118 0.58146 0.0
C1089 C 0.85439 0.57289 0.58055 0.0
C1090 C 0.86847 0.56819 0.59294 0.0
C1091 C 0.87656 0.55077 0.59227 0.0
C1092 C 0.87081 0.53799 0.57915 0.0
C1093 C 0.85701 0.54263 0.56663 0.0
C1094 C 0.84885 0.56002 0.56727 0.0
C1095 C 0.85576 0.66093 0.53819 0.0
C1096 C 0.85187 0.65498 0.52025 0.0
C1097 C 0.85137 0.6499 0.55325 0.0
C1098 C 0.84278 0.63283 0.55065 0.0
C1099 C 0.83864 0.62699 0.53273 0.0
C1100 C 0.84314 0.63797 0.51766 0.0
C1101 C 0.8392 0.62059 0.56654 0.0
C1102 C 0.84657 0.60277 0.56615 0.0
C1103 C 0.82982 0.62673 0.58246 0.0
C1104 C 0.82063 0.64494 0.58322 0.0
C1105 C 0.80792 0.65009 0.56959 0.0
C1106 C 0.7994 0.6673 0.57029 0.0
C1107 C 0.80337 0.67944 0.58462 0.0
C1108 C 0.81586 0.67438 0.5983 0.0
C1109 C 0.82444 0.65719 0.59766 0.0
H1110 H 0.79675 0.69276 0.58513 0.0
H1111 H 0.87708 0.5245 0.57867 0.0
H1112 H 0.35993 0.45024 0.16426 0.0
H1113 H 0.38529 0.42834 0.16598 0.0
H1114 H 0.36447 0.40017 0.11818 0.0
H1115 H 0.3388 0.42196 0.1165 0.0
H1116 H 0.37916 0.37625 0.1448 0.0
H1117 H 0.39647 0.43163 0.11243 0.0
H1118 H 0.39954 0.4652 0.10903 0.0
H1119 H 0.43425 0.4671 0.1567 0.0
H1120 H 0.43117 0.43355 0.16053 0.0
H1121 H 0.46196 0.33406 0.11507 0.0
H1122 H 0.43345 0.35166 0.11749 0.0
H1123 H 0.45686 0.38376 0.1615 0.0
H1124 H 0.48557 0.36647 0.15886 0.0
H1125 H 0.44038 0.4053 0.13752 0.0
H1126 H 0.42442 0.35056 0.16994 0.0
H1127 H 0.42134 0.31717 0.17458 0.0
H1128 H 0.38446 0.31392 0.12864 0.0
H1129 H 0.38751 0.34731 0.12358 0.0
C1130 C 0.36056 0.4392 0.15429 0.0
C1131 C 0.34754 0.43792 0.1401 0.0
C1132 C 0.37506 0.42672 0.15529 0.0
C1133 C 0.3769 0.41288 0.14201 0.0
C1134 C 0.36329 0.41082 0.12851 0.0
C1135 C 0.34868 0.42329 0.12755 0.0
C1136 C 0.39383 0.40167 0.14129 0.0
C1137 C 0.39255 0.38252 0.14301 0.0
C1138 C 0.41129 0.40998 0.13937 0.0
C1139 C 0.41345 0.43011 0.13686 0.0
C1140 C 0.40467 0.43922 0.12224 0.0
C1141 C 0.40642 0.45824 0.12024 0.0
C1142 C 0.41705 0.46829 0.13267 0.0
C1143 C 0.42601 0.45931 0.14709 0.0
C1144 C 0.42428 0.44029 0.14918 0.0
C1145 C 0.461 0.34484 0.1253 0.0
C1146 C 0.47596 0.34893 0.13678 0.0
C1147 C 0.44467 0.35481 0.12673 0.0
C1148 C 0.44295 0.36887 0.13983 0.0
C1149 C 0.45789 0.37295 0.15132 0.0
C1150 C 0.47426 0.36306 0.14981 0.0
C1151 C 0.42581 0.37979 0.1411 0.0
C1152 C 0.42704 0.39894 0.1394 0.0
C1153 C 0.40836 0.37146 0.14318 0.0
C1154 C 0.40633 0.35141 0.14628 0.0
C1155 C 0.41575 0.34271 0.16075 0.0
C1156 C 0.41399 0.32378 0.16347 0.0
C1157 C 0.40275 0.31341 0.15188 0.0
C1158 C 0.39318 0.32197 0.13759 0.0
C1159 C 0.3949 0.3409 0.1348 0.0
H1160 H 0.40143 0.29875 0.154 0.0
H1161 H 0.41837 0.48302 0.13111 0.0
H1162 H 0.47016 0.64258 0.83832 0.0
H1163 H 0.44066 0.62666 0.83646 0.0
H1164 H 0.42253 0.65428 0.88572 0.0
H1165 H 0.45212 0.67003 0.88781 0.0
H1166 H 0.41578 0.61836 0.88743 0.0
H1167 H 0.40534 0.66631 0.84378 0.0
H1168 H 0.41221 0.68575 0.81691 0.0
H1169 H 0.41077 0.63834 0.78182 0.0
H1170 H 0.40414 0.61856 0.80853 0.0
H1171 H 0.32721 0.58116 0.88284 0.0
H1172 H 0.35065 0.60517 0.88179 0.0
H1173 H 0.37408 0.58026 0.83334 0.0
H1174 H 0.35041 0.55649 0.83404 0.0
H1175 H 0.37632 0.61743 0.83181 0.0
H1176 H 0.39023 0.56941 0.87571 0.0
H1177 H 0.38351 0.54965 0.90241 0.0
H1178 H 0.37881 0.59729 0.9369 0.0
H1179 H 0.38527 0.61736 0.91033 0.0
C1180 C 0.45985 0.64532 0.84869 0.0
C1181 C 0.46342 0.6575 0.86322 0.0
C1182 C 0.44297 0.63632 0.84755 0.0
C1183 C 0.42933 0.63947 0.86084 0.0
C1184 C 0.43285 0.65171 0.8753 0.0
C1185 C 0.44974 0.66069 0.87647 0.0
C1186 C 0.41178 0.62924 0.86017 0.0
C1187 C 0.40697 0.61845 0.8754 0.0
C1188 C 0.40051 0.62906 0.84432 0.0
C1189 C 0.40439 0.64093 0.82819 0.0
C1190 C 0.40662 0.66 0.83036 0.0
C1191 C 0.41045 0.67109 0.81515 0.0
C1192 C 0.41196 0.66328 0.79767 0.0
C1193 C 0.4096 0.64437 0.79536 0.0
C1194 C 0.40579 0.63322 0.81053 0.0
C1195 C 0.33713 0.58103 0.87175 0.0
C1196 C 0.33716 0.56684 0.85866 0.0
C1197 C 0.35052 0.59472 0.87119 0.0
C1198 C 0.36431 0.59425 0.85772 0.0
C1199 C 0.3636 0.58083 0.8439 0.0
C1200 C 0.3501 0.56723 0.84435 0.0
C1201 C 0.38044 0.60654 0.85902 0.0
C1202 C 0.38502 0.6176 0.84391 0.0
C1203 C 0.39158 0.60695 0.87496 0.0
C1204 C 0.38804 0.59489 0.89101 0.0
C1205 C 0.38767 0.57567 0.88897 0.0
C1206 C 0.38391 0.56442 0.90408 0.0
C1207 C 0.38068 0.57221 0.92133 0.0
C1208 C 0.38128 0.59128 0.92352 0.0
C1209 C 0.385 0.6026 0.90845 0.0
H1210 H 0.37774 0.56348 0.933 0.0
H1211 H 0.41493 0.67189 0.78591 0.0
H1212 H 0.46271 0.38064 0.86841 0.0
H1213 H 0.43921 0.40445 0.86592 0.0
H1214 H 0.39906 0.36358 0.85097 0.0
H1215 H 0.4226 0.33947 0.85363 0.0
H1216 H 0.39924 0.39696 0.82851 0.0
H1217 H 0.39601 0.37788 0.89146 0.0
H1218 H 0.40855 0.37 0.92194 0.0
H1219 H 0.43001 0.42464 0.92755 0.0
H1220 H 0.41784 0.43277 0.89697 0.0
H1221 H 0.32449 0.46027 0.84224 0.0
H1222 H 0.34498 0.4336 0.8409 0.0
H1223 H 0.38787 0.46527 0.86682 0.0
H1224 H 0.3673 0.49172 0.86867 0.0
H1225 H 0.38382 0.43388 0.88374 0.0
H1226 H 0.38907 0.45274 0.82051 0.0
H1227 H 0.37765 0.46093 0.78967 0.0
H1228 H 0.35335 0.40749 0.78415 0.0
H1229 H 0.36443 0.39905 0.81507 0.0
C1230 C 0.4489 0.37669 0.86457 0.0
C1231 C 0.44443 0.35821 0.86129 0.0
C1232 C 0.4355 0.3903 0.86317 0.0
C1233 C 0.41744 0.3857 0.85836 0.0
C1234 C 0.41296 0.36733 0.8547 0.0
C1235 C 0.42636 0.35362 0.85631 0.0
C1236 C 0.40331 0.40024 0.85762 0.0
C1237 C 0.39556 0.40487 0.8406 0.0
C1238 C 0.3989 0.41069 0.87338 0.0
C1239 C 0.40614 0.40589 0.89184 0.0
C1240 C 0.40354 0.38817 0.89912 0.0
C1241 C 0.41055 0.38367 0.91643 0.0
C1242 C 0.4201 0.3968 0.92666 0.0
C1243 C 0.42262 0.41448 0.91961 0.0
C1244 C 0.41565 0.41905 0.9023 0.0
C1245 C 0.33839 0.46159 0.84739 0.0
C1246 C 0.34431 0.478 0.85564 0.0
C1247 C 0.35009 0.44637 0.84658 0.0
C1248 C 0.36797 0.44745 0.85374 0.0
C1249 C 0.37409 0.4641 0.86131 0.0
C1250 C 0.36236 0.47921 0.8623 0.0
C1251 C 0.38 0.43103 0.85448 0.0
C1252 C 0.38733 0.42595 0.8716 0.0
C1253 C 0.38408 0.42029 0.83877 0.0
C1254 C 0.37741 0.42534 0.82019 0.0
C1255 C 0.38116 0.44279 0.81278 0.0
C1256 C 0.37477 0.44746 0.79528 0.0
C1257 C 0.36473 0.43476 0.78498 0.0
C1258 C 0.3611 0.41733 0.79215 0.0
C1259 C 0.36744 0.41259 0.80966 0.0
H1260 H 0.35981 0.4384 0.77143 0.0
H1261 H 0.42553 0.39329 0.94006 0.0
H1262 H 0.66433 0.40907 0.87118 0.0
H1263 H 0.64257 0.38507 0.86249 0.0
H1264 H 0.62459 0.4179 0.81647 0.0
H1265 H 0.64607 0.4421 0.82531 0.0
H1266 H 0.59677 0.4089 0.83771 0.0
H1267 H 0.64623 0.37609 0.81 0.0
H1268 H 0.67705 0.36217 0.80802 0.0
H1269 H 0.66405 0.32609 0.85284 0.0
H1270 H 0.63324 0.33997 0.85528 0.0
H1271 H 0.52596 0.34684 0.82131 0.0
H1272 H 0.55494 0.36212 0.81389 0.0
H1273 H 0.58044 0.33684 0.86108 0.0
H1274 H 0.5517 0.32116 0.86828 0.0
H1275 H 0.60514 0.34136 0.83344 0.0
H1276 H 0.55954 0.37795 0.86526 0.0
H1277 H 0.52894 0.39201 0.86923 0.0
H1278 H 0.5355 0.42136 0.81846 0.0
H1279 H 0.56605 0.40725 0.81408 0.0
C1280 C 0.65604 0.41098 0.85896 0.0
C1281 C 0.65672 0.42752 0.84904 0.0
C1282 C 0.64369 0.3972 0.85393 0.0
C1283 C 0.63198 0.39967 0.83878 0.0
C1284 C 0.63349 0.41572 0.8282 0.0
C1285 C 0.64576 0.42953 0.83328 0.0
C1286 C 0.61648 0.38686 0.83566 0.0
C1287 C 0.59865 0.39417 0.83624 0.0
C1288 C 0.61891 0.3676 0.83433 0.0
C1289 C 0.63744 0.35917 0.83289 0.0
C1290 C 0.64998 0.36529 0.81953 0.0
C1291 C 0.66745 0.35738 0.81831 0.0
C1292 C 0.67252 0.34328 0.83031 0.0
C1293 C 0.66011 0.33702 0.84355 0.0
C1294 C 0.64263 0.34488 0.84484 0.0
C1295 C 0.53788 0.34419 0.82982 0.0
C1296 C 0.53652 0.33312 0.84557 0.0
C1297 C 0.55441 0.35291 0.82556 0.0
C1298 C 0.5697 0.35091 0.83717 0.0
C1299 C 0.56879 0.33861 0.85198 0.0
C1300 C 0.55232 0.32975 0.85614 0.0
C1301 C 0.58559 0.36348 0.83559 0.0
C1302 C 0.60339 0.35614 0.83434 0.0
C1303 C 0.58323 0.38276 0.83653 0.0
C1304 C 0.56495 0.39138 0.83923 0.0
C1305 C 0.55439 0.38731 0.85489 0.0
C1306 C 0.53707 0.39529 0.85722 0.0
C1307 C 0.53026 0.40753 0.84407 0.0
C1308 C 0.54078 0.41185 0.8286 0.0
C1309 C 0.55809 0.40386 0.82619 0.0
H1310 H 0.51685 0.4137 0.8459 0.0
H1311 H 0.68605 0.33717 0.82934 0.0
H1312 H 0.66579 0.53162 0.8431 0.0
H1313 H 0.64632 0.55902 0.84047 0.0
H1314 H 0.60924 0.53659 0.88087 0.0
H1315 H 0.62857 0.50926 0.88358 0.0
H1316 H 0.59126 0.5513 0.85075 0.0
H1317 H 0.63949 0.56823 0.89335 0.0
H1318 H 0.67171 0.57264 0.90281 0.0
H1319 H 0.67974 0.6108 0.85854 0.0
H1320 H 0.64761 0.60641 0.84866 0.0
H1321 H 0.53982 0.62482 0.8844 0.0
H1322 H 0.56146 0.5994 0.88138 0.0
H1323 H 0.59385 0.63121 0.8433 0.0
H1324 H 0.57226 0.65695 0.84646 0.0
H1325 H 0.6153 0.61274 0.86792 0.0
H1326 H 0.56636 0.59829 0.82702 0.0
H1327 H 0.53417 0.59406 0.81742 0.0
H1328 H 0.52755 0.55131 0.85754 0.0
H1329 H 0.55964 0.55548 0.86759 0.0
C1330 C 0.65343 0.53252 0.85134 0.0
C1331 C 0.6487 0.51837 0.86359 0.0
C1332 C 0.64238 0.54817 0.84986 0.0
C1333 C 0.62644 0.54983 0.86057 0.0
C1334 C 0.6215 0.53553 0.87249 0.0
C1335 C 0.63257 0.51997 0.87406 0.0
C1336 C 0.61494 0.56657 0.85969 0.0
C1337 C 0.59646 0.56472 0.85461 0.0
C1338 C 0.62194 0.58413 0.86416 0.0
C1339 C 0.64122 0.58683 0.87014 0.0
C1340 C 0.64817 0.57744 0.88554 0.0
C1341 C 0.66641 0.57996 0.891 0.0
C1342 C 0.67778 0.59195 0.88125 0.0
C1343 C 0.67092 0.60149 0.86605 0.0
C1344 C 0.6527 0.599 0.86052 0.0
C1345 C 0.55159 0.62646 0.87544 0.0
C1346 C 0.55431 0.64281 0.86557 0.0
C1347 C 0.56389 0.61189 0.87367 0.0
C1348 C 0.57906 0.61332 0.86186 0.0
C1349 C 0.58215 0.62983 0.85239 0.0
C1350 C 0.56982 0.64448 0.8542 0.0
C1351 C 0.59149 0.5974 0.85941 0.0
C1352 C 0.61014 0.59938 0.86382 0.0
C1353 C 0.58467 0.57994 0.85423 0.0
C1354 C 0.56538 0.57729 0.84815 0.0
C1355 C 0.55801 0.58807 0.83389 0.0
C1356 C 0.53978 0.58567 0.82835 0.0
C1357 C 0.52881 0.57245 0.83688 0.0
C1358 C 0.53606 0.56156 0.85095 0.0
C1359 C 0.55428 0.56392 0.85656 0.0
H1360 H 0.51471 0.57061 0.83257 0.0
H1361 H 0.69189 0.59388 0.8855 0.0
H1362 H 0.62017 0.54032 0.14508 0.0
H1363 H 0.59681 0.56431 0.14612 0.0
H1364 H 0.63862 0.60574 0.13971 0.0
H1365 H 0.66229 0.58164 0.13861 0.0
H1366 H 0.61047 0.61426 0.1666 0.0
H1367 H 0.6164 0.59626 0.10371 0.0
H1368 H 0.61866 0.5744 0.07792 0.0
H1369 H 0.56491 0.55366 0.09045 0.0
H1370 H 0.56245 0.57521 0.11651 0.0
H1371 H 0.54299 0.68199 0.13964 0.0
H1372 H 0.57018 0.66236 0.14266 0.0
H1373 H 0.53549 0.61434 0.14349 0.0
H1374 H 0.50834 0.63381 0.14031 0.0
H1375 H 0.56252 0.61164 0.11818 0.0
H1376 H 0.55723 0.62874 0.18197 0.0
H1377 H 0.55512 0.65039 0.20795 0.0
H1378 H 0.60761 0.67309 0.19365 0.0
H1379 H 0.60992 0.65172 0.16741 0.0
C1380 C 0.62446 0.55453 0.14401 0.0
C1381 C 0.64303 0.55913 0.14161 0.0
C1382 C 0.61109 0.5682 0.14461 0.0
C1383 C 0.61602 0.58672 0.14281 0.0
C1384 C 0.63461 0.59148 0.1411 0.0
C1385 C 0.64806 0.57774 0.1404 0.0
C1386 C 0.60148 0.60083 0.14182 0.0
C1387 C 0.60013 0.61396 0.15587 0.0
C1388 C 0.58794 0.60017 0.12791 0.0
C1389 C 0.58931 0.58726 0.11216 0.0
C1390 C 0.60512 0.58694 0.10106 0.0
C1391 C 0.60643 0.57462 0.08638 0.0
C1392 C 0.59195 0.56262 0.08257 0.0
C1393 C 0.57612 0.56295 0.09342 0.0
C1394 C 0.57475 0.57523 0.10814 0.0
C1395 C 0.54117 0.66726 0.14074 0.0
C1396 C 0.52358 0.65939 0.13964 0.0
C1397 C 0.55669 0.65609 0.14251 0.0
C1398 C 0.55482 0.63692 0.14329 0.0
C1399 C 0.53721 0.62911 0.14284 0.0
C1400 C 0.52172 0.64025 0.14108 0.0
C1401 C 0.57115 0.62483 0.14325 0.0
C1402 C 0.57289 0.61209 0.12888 0.0
C1403 C 0.58502 0.62593 0.15684 0.0
C1404 C 0.58365 0.63877 0.17261 0.0
C1405 C 0.56825 0.63846 0.18426 0.0
C1406 C 0.56703 0.65066 0.19906 0.0
C1407 C 0.5812 0.66315 0.20241 0.0
C1408 C 0.59664 0.66343 0.19101 0.0
C1409 C 0.59791 0.65127 0.17619 0.0
H1410 H 0.58023 0.67258 0.21388 0.0
H1411 H 0.59299 0.5531 0.07119 0.0
H1412 H 0.36543 0.51851 0.11824 0.0
H1413 H 0.38331 0.54682 0.11882 0.0
H1414 H 0.3421 0.5725 0.15285 0.0
H1415 H 0.32393 0.54414 0.15216 0.0
H1416 H 0.35295 0.59487 0.12484 0.0
H1417 H 0.38187 0.56009 0.1719 0.0
H1418 H 0.39596 0.53275 0.18613 0.0
H1419 H 0.4391 0.53361 0.14592 0.0
H1420 H 0.42513 0.56082 0.13127 0.0
H1421 H 0.41682 0.66983 0.14203 0.0
H1422 H 0.39464 0.64471 0.14568 0.0
H1423 H 0.42642 0.61121 0.1085 0.0
H1424 H 0.44844 0.63616 0.10465 0.0
H1425 H 0.41877 0.5944 0.14255 0.0
H1426 H 0.38755 0.62777 0.09415 0.0
H1427 H 0.37294 0.65497 0.08018 0.0
H1428 H 0.33379 0.657 0.12427 0.0
H1429 H 0.34836 0.62994 0.13865 0.0
C1430 C 0.3602 0.53015 0.12592 0.0
C1431 C 0.34333 0.52913 0.1352 0.0
C1432 C 0.37046 0.54629 0.12629 0.0
C1433 C 0.36411 0.56167 0.13605 0.0
C1434 C 0.34723 0.56074 0.14529 0.0
C1435 C 0.33693 0.54455 0.14494 0.0
C1436 C 0.37509 0.57875 0.13615 0.0
C1437 C 0.36724 0.59489 0.12906 0.0
C1438 C 0.39376 0.57869 0.14153 0.0
C1439 C 0.40237 0.56244 0.15041 0.0
C1440 C 0.3943 0.55438 0.16602 0.0
C1441 C 0.40227 0.53892 0.17417 0.0
C1442 C 0.41839 0.53143 0.16691 0.0
C1443 C 0.4266 0.53943 0.15152 0.0
C1444 C 0.41868 0.5549 0.1433 0.0
C1445 C 0.41888 0.65721 0.13441 0.0
C1446 C 0.43436 0.65491 0.1231 0.0
C1447 C 0.40624 0.64291 0.13652 0.0
C1448 C 0.40901 0.62613 0.12742 0.0
C1449 C 0.42413 0.62405 0.11569 0.0
C1450 C 0.43664 0.63834 0.11345 0.0
C1451 C 0.39677 0.61031 0.13074 0.0
C1452 C 0.4044 0.59443 0.13857 0.0
C1453 C 0.3779 0.61069 0.12619 0.0
C1454 C 0.36919 0.62698 0.1176 0.0
C1455 C 0.37595 0.63413 0.10097 0.0
C1456 C 0.36765 0.6495 0.09295 0.0
C1457 C 0.35249 0.65775 0.10137 0.0
C1458 C 0.34557 0.65062 0.11779 0.0
C1459 C 0.35383 0.63526 0.12588 0.0
H1460 H 0.34607 0.66963 0.09513 0.0
H1461 H 0.42453 0.51944 0.17323 0.0
H1462 H 0.64516 0.46969 0.16567 0.0
H1463 H 0.63407 0.43835 0.16905 0.0
H1464 H 0.67835 0.41865 0.13486 0.0
H1465 H 0.68939 0.45025 0.13113 0.0
H1466 H 0.6467 0.40617 0.12292 0.0
H1467 H 0.67607 0.40598 0.18055 0.0
H1468 H 0.68594 0.41771 0.21075 0.0
H1469 H 0.62986 0.41928 0.2289 0.0
H1470 H 0.61959 0.40783 0.19873 0.0
H1471 H 0.59201 0.32507 0.13173 0.0
H1472 H 0.62012 0.34323 0.13612 0.0
H1473 H 0.58887 0.38444 0.16515 0.0
H1474 H 0.56097 0.36653 0.16081 0.0
H1475 H 0.62333 0.37852 0.18067 0.0
H1476 H 0.59538 0.38833 0.11981 0.0
H1477 H 0.58517 0.37755 0.08932 0.0
H1478 H 0.63962 0.35799 0.07767 0.0
H1479 H 0.65007 0.36847 0.10821 0.0
C1480 C 0.65274 0.45867 0.15912 0.0
C1481 C 0.66806 0.46241 0.14804 0.0
C1482 C 0.64648 0.44071 0.1612 0.0
C1483 C 0.65552 0.42609 0.15241 0.0
C1484 C 0.67125 0.42971 0.14186 0.0
C1485 C 0.67752 0.44775 0.13974 0.0
C1486 C 0.64705 0.40758 0.15253 0.0
C1487 C 0.64213 0.39978 0.13559 0.0
C1488 C 0.64099 0.39926 0.16903 0.0
C1489 C 0.64706 0.40605 0.18732 0.0
C1490 C 0.66582 0.40891 0.19094 0.0
C1491 C 0.67149 0.41551 0.20806 0.0
C1492 C 0.65854 0.41924 0.22173 0.0
C1493 C 0.63988 0.41636 0.21831 0.0
C1494 C 0.63413 0.40977 0.2012 0.0
C1495 C 0.59127 0.33784 0.13932 0.0
C1496 C 0.57433 0.34453 0.14576 0.0
C1497 C 0.60729 0.34817 0.14182 0.0
C1498 C 0.60651 0.36519 0.15089 0.0
C1499 C 0.58977 0.3713 0.1582 0.0
C1500 C 0.57382 0.36112 0.15558 0.0
C1501 C 0.62238 0.37784 0.15112 0.0
C1502 C 0.62862 0.38452 0.16809 0.0
C1503 C 0.62971 0.38514 0.13468 0.0
C1504 C 0.62343 0.37894 0.11634 0.0
C1505 C 0.60513 0.38161 0.11078 0.0
C1506 C 0.5993 0.37557 0.0935 0.0
C1507 C 0.61172 0.36703 0.08159 0.0
C1508 C 0.63 0.36456 0.08693 0.0
C1509 C 0.63588 0.37054 0.10422 0.0
H1510 H 0.60719 0.36237 0.06822 0.0
H1511 H 0.66296 0.42436 0.23498 0.0
H1512 H 0.0816 0.29107 0.51796 0.0
H1513 H 0.04918 0.28396 0.52285 0.0
H1514 H 0.04217 0.27546 0.46458 0.0
H1515 H 0.07462 0.28263 0.45957 0.0
H1516 H 0.01821 0.30052 0.47879 0.0
H1517 H 0.03865 0.23972 0.49334 0.0
H1518 H 0.05748 0.21638 0.50912 0.0
H1519 H 0.03603 0.23387 0.56124 0.0
H1520 H 0.01726 0.25751 0.54579 0.0
H1521 H 0.92518 0.27988 0.48318 0.0
H1522 H 0.95792 0.27455 0.4784 0.0
H1523 H 0.96773 0.28196 0.53641 0.0
H1524 H 0.93476 0.28687 0.54137 0.0
H1525 H 0.99024 0.25542 0.52159 0.0
H1526 H 0.97258 0.3176 0.50825 0.0
H1527 H 0.95423 0.34199 0.49351 0.0
H1528 H 0.97139 0.32316 0.44028 0.0
H1529 H 0.98964 0.29846 0.45471 0.0
C1530 C 0.07323 0.28736 0.50623 0.0
C1531 C 0.08055 0.28753 0.48837 0.0
C1532 C 0.05474 0.2832 0.50906 0.0
C1533 C 0.04334 0.27912 0.49408 0.0
C1534 C 0.05081 0.27855 0.47631 0.0
C1535 C 0.06931 0.28263 0.47348 0.0
C1536 C 0.0233 0.27752 0.49673 0.0
C1537 C 0.01206 0.29039 0.48784 0.0
C1538 C 0.01543 0.26474 0.50907 0.0
C1539 C 0.02666 0.2505 0.51841 0.0
C1540 C 0.03806 0.2387 0.50818 0.0
C1541 C 0.0487 0.22539 0.51706 0.0
C1542 C 0.04798 0.22367 0.53617 0.0
C1543 C 0.03658 0.23522 0.54644 0.0
C1544 C 0.02592 0.24857 0.53762 0.0
C1545 C 0.93426 0.28009 0.49497 0.0
C1546 C 0.92753 0.28405 0.51261 0.0
C1547 C 0.95294 0.27703 0.49221 0.0
C1548 C 0.96524 0.27823 0.507 0.0
C1549 C 0.95843 0.28104 0.52483 0.0
C1550 C 0.93964 0.2839 0.52763 0.0
C1551 C 0.98523 0.27832 0.50352 0.0
C1552 C 0.99643 0.26534 0.51235 0.0
C1553 C 0.99318 0.29115 0.49126 0.0
C1554 C 0.98231 0.30606 0.48255 0.0
C1555 C 0.97232 0.31857 0.4934 0.0
C1556 C 0.96196 0.33246 0.4851 0.0
C1557 C 0.9616 0.33409 0.46597 0.0
C1558 C 0.97165 0.32186 0.4551 0.0
C1559 C 0.98202 0.30791 0.46333 0.0
H1560 H 0.95357 0.34486 0.45957 0.0
H1561 H 0.05623 0.21335 0.54303 0.0
H1562 H 0.67964 0.05991 0.46247 0.0
H1563 H 0.68464 0.02876 0.47383 0.0
H1564 H 0.73096 0.04739 0.50564 0.0
H1565 H 0.72587 0.07885 0.49458 0.0
H1566 H 0.72968 0.00702 0.48353 0.0
H1567 H 0.70378 0.04642 0.53172 0.0
H1568 H 0.68273 0.07115 0.54153 0.0
H1569 H 0.63666 0.04016 0.5217 0.0
H1570 H 0.6575 0.01541 0.51145 0.0
H1571 H 0.72047 0.92471 0.53634 0.0
H1572 H 0.72718 0.95706 0.52968 0.0
H1573 H 0.67117 0.96505 0.51194 0.0
H1574 H 0.66433 0.93306 0.51888 0.0
H1575 H 0.68241 0.99384 0.53093 0.0
H1576 H 0.706 0.95627 0.48126 0.0
H1577 H 0.7252 0.93178 0.46778 0.0
H1578 H 0.77384 0.9587 0.48744 0.0
H1579 H 0.75488 0.98324 0.50124 0.0
C1580 C 0.69121 0.05733 0.47147 0.0
C1581 C 0.70223 0.07182 0.47784 0.0
C1582 C 0.69405 0.03954 0.47791 0.0
C1583 C 0.70806 0.03595 0.49062 0.0
C1584 C 0.72011 0.05001 0.49578 0.0
C1585 C 0.71715 0.06792 0.4895 0.0
C1586 C 0.70811 0.01823 0.50035 0.0
C1587 C 0.71973 0.00416 0.49426 0.0
C1588 C 0.69481 0.0146 0.51399 0.0
C1589 C 0.6822 0.02915 0.5207 0.0
C1590 C 0.68917 0.04495 0.52934 0.0
C1591 C 0.67729 0.05896 0.53499 0.0
C1592 C 0.65838 0.05725 0.5322 0.0
C1593 C 0.65132 0.04148 0.52383 0.0
C1594 C 0.66315 0.02745 0.51812 0.0
C1595 C 0.70955 0.93348 0.53129 0.0
C1596 C 0.69191 0.92638 0.52802 0.0
C1597 C 0.71342 0.9519 0.52741 0.0
C1598 C 0.69973 0.96338 0.5201 0.0
C1599 C 0.68193 0.95645 0.51759 0.0
C1600 C 0.67806 0.93814 0.52151 0.0
C1601 C 0.7039 0.98234 0.51405 0.0
C1602 C 0.69287 0.9967 0.5207 0.0
C1603 C 0.71764 0.98614 0.50079 0.0
C1604 C 0.72903 0.97144 0.49247 0.0
C1605 C 0.72078 0.95688 0.48283 0.0
C1606 C 0.73162 0.94301 0.47511 0.0
C1607 C 0.75072 0.94365 0.47681 0.0
C1608 C 0.75904 0.9582 0.48618 0.0
C1609 C 0.74826 0.97209 0.49394 0.0
H1610 H 0.75909 0.9329 0.47083 0.0
H1611 H 0.6492 0.06813 0.53656 0.0
H1612 H 0.92096 0.70051 0.51324 0.0
H1613 H 0.95364 0.70617 0.51796 0.0
H1614 H 0.96054 0.71548 0.4598 0.0
H1615 H 0.92775 0.70966 0.45495 0.0
H1616 H 0.98416 0.69022 0.47271 0.0
H1617 H 0.96598 0.75065 0.48979 0.0
H1618 H 0.948 0.77434 0.50601 0.0
H1619 H 0.96762 0.75416 0.55788 0.0
H1620 H 0.98552 0.73016 0.54199 0.0
H1621 H 0.07881 0.70438 0.48434 0.0
H1622 H 0.04683 0.71129 0.477 0.0
H1623 H 0.03194 0.70299 0.53381 0.0
H1624 H 0.06413 0.69656 0.54135 0.0
H1625 H 0.01289 0.73123 0.51896 0.0
H1626 H 0.02727 0.66856 0.50222 0.0
H1627 H 0.04452 0.64404 0.48639 0.0
H1628 H 0.03129 0.66805 0.43414 0.0
H1629 H 0.01414 0.69287 0.44968 0.0
C1630 C 0.92937 0.70405 0.50149 0.0
C1631 C 0.92187 0.70452 0.48371 0.0
C1632 C 0.94802 0.70742 0.50422 0.0
C1633 C 0.95947 0.71137 0.48924 0.0
C1634 C 0.95189 0.71251 0.47154 0.0
C1635 C 0.93319 0.70919 0.4688 0.0
C1636 C 0.97959 0.7123 0.4919 0.0
C1637 C 0.99051 0.6995 0.4825 0.0
C1638 C 0.98774 0.72407 0.50505 0.0
C1639 C 0.97701 0.7385 0.51469 0.0
C1640 C 0.96635 0.75116 0.50466 0.0
C1641 C 0.95619 0.76467 0.5138 0.0
C1642 C 0.95664 0.76574 0.53297 0.0
C1643 C 0.96728 0.75331 0.54303 0.0
C1644 C 0.97746 0.73977 0.53397 0.0
C1645 C 0.06875 0.70421 0.49531 0.0
C1646 C 0.07386 0.69971 0.51338 0.0
C1647 C 0.0505 0.70815 0.49109 0.0
C1648 C 0.03699 0.70731 0.5048 0.0
C1649 C 0.04218 0.70366 0.52302 0.0
C1650 C 0.06052 0.69992 0.5273 0.0
C1651 C 0.01733 0.70901 0.49991 0.0
C1652 C 0.00654 0.7222 0.50894 0.0
C1653 C 0.00921 0.69754 0.48647 0.0
C1654 C 0.01958 0.68266 0.47712 0.0
C1655 C 0.02816 0.66869 0.48737 0.0
C1656 C 0.0379 0.65473 0.47845 0.0
C1657 C 0.03901 0.6545 0.45928 0.0
C1658 C 0.03042 0.66825 0.44899 0.0
C1659 C 0.02068 0.68226 0.45784 0.0
H1660 H 0.04646 0.64363 0.45239 0.0
H1661 H 0.94877 0.77621 0.54001 0.0
H1662 H 0.28925 0.06837 0.48127 0.0
H1663 H 0.27949 0.03672 0.47706 0.0
H1664 H 0.27482 0.03017 0.53584 0.0
H1665 H 0.2852 0.06189 0.54017 0.0
H1666 H 0.29532 0.00444 0.52236 0.0
H1667 H 0.23649 0.02735 0.50677 0.0
H1668 H 0.21365 0.04729 0.49164 0.0
H1669 H 0.23068 0.02727 0.43881 0.0
H1670 H 0.25383 0.00741 0.45358 0.0
H1671 H 0.27467 0.91135 0.50623 0.0
H1672 H 0.26706 0.94306 0.51421 0.0
H1673 H 0.28519 0.961 0.46073 0.0
H1674 H 0.29305 0.92924 0.45265 0.0
H1675 H 0.25242 0.97984 0.47543 0.0
H1676 H 0.31507 0.96275 0.49142 0.0
H1677 H 0.33826 0.94301 0.5063 0.0
H1678 H 0.31319 0.95267 0.55884 0.0
H1679 H 0.28965 0.97226 0.54418 0.0
C1680 C 0.28578 0.06033 0.49331 0.0
C1681 C 0.28816 0.06751 0.51106 0.0
C1682 C 0.28003 0.04225 0.49087 0.0
C1683 C 0.27624 0.03108 0.50613 0.0
C1684 C 0.27763 0.03856 0.52388 0.0
C1685 C 0.28355 0.05666 0.52633 0.0
C1686 C 0.27343 0.0111 0.50348 0.0
C1687 C 0.28552 -0.00094 0.51249 0.0
C1688 C 0.26095 0.00406 0.4903 0.0
C1689 C 0.24698 0.01593 0.48131 0.0
C1690 C 0.23546 0.02728 0.49191 0.0
C1691 C 0.22244 0.03856 0.4834 0.0
C1692 C 0.22073 0.03856 0.46428 0.0
C1693 C 0.23202 0.02725 0.45363 0.0
C1694 C 0.24507 0.01595 0.46207 0.0
C1695 C 0.27672 0.92199 0.49603 0.0
C1696 C 0.28467 0.91791 0.4789 0.0
C1697 C 0.2723 0.94006 0.5006 0.0
C1698 C 0.27566 0.95428 0.48807 0.0
C1699 C 0.28244 0.95012 0.47051 0.0
C1700 C 0.28703 0.93204 0.46598 0.0
C1701 C 0.27446 0.97358 0.49409 0.0
C1702 C 0.26175 0.98534 0.48566 0.0
C1703 C 0.28631 0.98045 0.50784 0.0
C1704 C 0.30048 0.96877 0.51669 0.0
C1705 C 0.31441 0.96052 0.50612 0.0
C1706 C 0.32763 0.94939 0.51451 0.0
C1707 C 0.32717 0.94655 0.53349 0.0
C1708 C 0.3135 0.95486 0.54413 0.0
C1709 C 0.30022 0.96598 0.53579 0.0
H1710 H 0.33747 0.93797 0.53995 0.0
H1711 H 0.21064 0.04731 0.45771 0.0
H1712 H 0.54624 0.9283 0.28151 0.0
H1713 H 0.54304 0.95966 0.26948 0.0
H1714 H 0.48616 0.96029 0.28613 0.0
H1715 H 0.4892 0.92913 0.29799 0.0
H1716 H 0.49107 0.97651 0.25245 0.0
H1717 H 0.5188 0.97792 0.31357 0.0
H1718 H 0.54281 0.97041 0.33629 0.0
H1719 H 0.58348 0.99607 0.30216 0.0
H1720 H 0.55971 0.00351 0.27911 0.0
H1721 H 0.46155 0.06305 0.2819 0.0
H1722 H 0.47054 0.03166 0.27446 0.0
H1723 H 0.52503 0.05034 0.26046 0.0
H1724 H 0.5162 0.08179 0.26835 0.0
H1725 H 0.52684 0.02449 0.28497 0.0
H1726 H 0.49665 0.03004 0.22772 0.0
H1727 H 0.47198 0.03823 0.206 0.0
H1728 H 0.43554 0.00032 0.23266 0.0
H1729 H 0.45988 0.99209 0.25473 0.0
C1730 C 0.53304 0.93511 0.28244 0.0
C1731 C 0.51802 0.9264 0.29086 0.0
C1732 C 0.53122 0.95296 0.27554 0.0
C1733 C 0.51438 0.96228 0.277 0.0
C1734 C 0.49924 0.9533 0.28479 0.0
C1735 C 0.50105 0.93556 0.2917 0.0
C1736 C 0.51264 0.98187 0.27196 0.0
C1737 C 0.4989 0.98707 0.25946 0.0
C1738 C 0.52329 0.99555 0.2807 0.0
C1739 C 0.53755 0.99102 0.29452 0.0
C1740 C 0.53289 0.98181 0.31084 0.0
C1741 C 0.54645 0.97759 0.32379 0.0
C1742 C 0.56467 0.98269 0.32064 0.0
C1743 C 0.56937 0.99207 0.30455 0.0
C1744 C 0.55587 0.99629 0.29155 0.0
C1745 C 0.4753 0.06055 0.27679 0.0
C1746 C 0.48824 0.07479 0.2759 0.0
C1747 C 0.48041 0.04259 0.27239 0.0
C1748 C 0.49846 0.03864 0.2668 0.0
C1749 C 0.51104 0.05308 0.26474 0.0
C1750 C 0.50597 0.07103 0.26925 0.0
C1751 C 0.50475 0.01929 0.2659 0.0
C1752 C 0.51937 0.01407 0.27737 0.0
C1753 C 0.49485 0.00566 0.25623 0.0
C1754 C 0.48012 0.01049 0.24294 0.0
C1755 C 0.48334 0.02353 0.22904 0.0
C1756 C 0.46941 0.02817 0.21665 0.0
C1757 C 0.4522 0.01981 0.21796 0.0
C1758 C 0.44889 0.00677 0.23165 0.0
C1759 C 0.46276 0.00209 0.24408 0.0
H1760 H 0.44143 0.02343 0.20836 0.0
H1761 H 0.57515 0.97943 0.33068 0.0
H1762 H 0.92559 0.49357 0.33305 0.0
H1763 H 0.95663 0.5023 0.32409 0.0
H1764 H 0.95291 0.46761 0.27618 0.0
H1765 H 0.92148 0.45891 0.28496 0.0
H1766 H 0.98709 0.46518 0.29804 0.0
H1767 H 0.94857 0.50941 0.26791 0.0
H1768 H 0.92338 0.53202 0.26612 0.0
H1769 H 0.95015 0.56557 0.30656 0.0
H1770 H 0.97533 0.54298 0.30889 0.0
H1771 H 0.07292 0.50089 0.27291 0.0
H1772 H 0.04049 0.49355 0.26819 0.0
H1773 H 0.02561 0.53117 0.31156 0.0
H1774 H 0.05791 0.53891 0.31603 0.0
H1775 H -0.00011 0.53099 0.28543 0.0
H1776 H 0.0338 0.4861 0.32067 0.0
H1777 H 0.05892 0.46391 0.32588 0.0
H1778 H 0.04074 0.43205 0.27967 0.0
H1779 H 0.01566 0.45423 0.27403 0.0
C1780 C 0.9314 0.48763 0.32069 0.0
C1781 C 0.92113 0.47558 0.30966 0.0
C1782 C 0.94908 0.49271 0.31556 0.0
C1783 C 0.95687 0.48577 0.29938 0.0
C1784 C 0.947 0.47316 0.28867 0.0
C1785 C 0.92913 0.46821 0.2937 0.0
C1786 C 0.97531 0.49199 0.29382 0.0
C1787 C 0.98989 0.47946 0.29478 0.0
C1788 C 0.97886 0.51072 0.29009 0.0
C1789 C 0.9638 0.52443 0.28863 0.0
C1790 C 0.94902 0.52153 0.27653 0.0
C1791 C 0.93475 0.53435 0.27542 0.0
C1792 C 0.93515 0.5502 0.28624 0.0
C1793 C 0.94985 0.55328 0.29819 0.0
C1794 C 0.96414 0.54048 0.29941 0.0
C1795 C 0.06268 0.50795 0.2811 0.0
C1796 C 0.0679 0.52025 0.29504 0.0
C1797 C 0.04419 0.5037 0.27842 0.0
C1798 C 0.03072 0.5115 0.28981 0.0
C1799 C 0.03581 0.52494 0.30267 0.0
C1800 C 0.05427 0.52931 0.30525 0.0
C1801 C 0.01175 0.50425 0.28996 0.0
C1802 C 0.99708 0.5166 0.28812 0.0
C1803 C 0.00812 0.48541 0.29328 0.0
C1804 C 0.02302 0.47193 0.29679 0.0
C1805 C 0.03524 0.47442 0.31155 0.0
C1806 C 0.04945 0.46185 0.31459 0.0
C1807 C 0.05145 0.44662 0.30307 0.0
C1808 C 0.03919 0.44389 0.28855 0.0
C1809 C 0.02498 0.45645 0.28542 0.0
H1810 H 0.06247 0.43691 0.30543 0.0
H1811 H 0.92409 0.56011 0.28535 0.0
H1812 H 0.47929 0.93307 0.65988 0.0
H1813 H 0.48594 0.96545 0.66512 0.0
H1814 H 0.47755 0.95804 0.72334 0.0
H1815 H 0.47054 0.92544 0.71814 0.0
H1816 H 0.46388 0.9915 0.7104 0.0
H1817 H 0.51983 0.95764 0.70835 0.0
H1818 H 0.54192 0.93515 0.69592 0.0
H1819 H 0.54679 0.96686 0.64641 0.0
H1820 H 0.52447 0.98939 0.65841 0.0
H1821 H 0.50876 0.07903 0.72222 0.0
H1822 H 0.50119 0.04638 0.7259 0.0
H1823 H 0.50825 0.03824 0.66757 0.0
H1824 H 0.51613 0.07054 0.66388 0.0
H1825 H 0.52457 0.01155 0.68674 0.0
H1826 H 0.46536 0.04325 0.68801 0.0
H1827 H 0.44284 0.06516 0.70078 0.0
H1828 H 0.44461 0.03728 0.75271 0.0
H1829 H 0.46734 0.01533 0.74036 0.0
C1830 C 0.47858 0.93836 0.67378 0.0
C1831 C 0.47462 0.92674 0.68864 0.0
C1832 C 0.48243 0.95685 0.67675 0.0
C1833 C 0.48263 0.96398 0.69466 0.0
C1834 C 0.47758 0.9527 0.70945 0.0
C1835 C 0.47359 0.93414 0.70646 0.0
C1836 C 0.48921 0.98292 0.69775 0.0
C1837 C 0.47727 0.99588 0.70555 0.0
C1838 C 0.5067 0.98853 0.69143 0.0
C1839 C 0.52038 0.97516 0.68426 0.0
C1840 C 0.52552 0.95976 0.69477 0.0
C1841 C 0.53809 0.94701 0.6878 0.0
C1842 C 0.54573 0.94956 0.67038 0.0
C1843 C 0.54085 0.9649 0.65991 0.0
C1844 C 0.52826 0.97768 0.66679 0.0
C1845 C 0.50879 0.0702 0.71023 0.0
C1846 C 0.51304 0.07728 0.69277 0.0
C1847 C 0.50438 0.05162 0.71234 0.0
C1848 C 0.50401 0.03995 0.69697 0.0
C1849 C 0.5085 0.047 0.67961 0.0
C1850 C 0.51297 0.06547 0.67752 0.0
C1851 C 0.49894 0.02034 0.69865 0.0
C1852 C 0.51127 0.00719 0.69185 0.0
C1853 C 0.48187 0.01459 0.70599 0.0
C1854 C 0.46821 0.02779 0.71333 0.0
C1855 C 0.46106 0.04188 0.70219 0.0
C1856 C 0.44824 0.05429 0.70934 0.0
C1857 C 0.44235 0.05265 0.72754 0.0
C1858 C 0.44922 0.03856 0.73863 0.0
C1859 C 0.46206 0.02613 0.73157 0.0
H1860 H 0.43242 0.06227 0.73303 0.0
H1861 H 0.55546 0.93966 0.665 0.0
H1862 H 0.90767 0.4926 0.71255 0.0
H1863 H 0.94038 0.48518 0.7151 0.0
H1864 H 0.95338 0.53026 0.6789 0.0
H1865 H 0.92077 0.53773 0.67624 0.0
H1866 H 0.96699 0.49688 0.66709 0.0
H1867 H 0.96491 0.53236 0.72322 0.0
H1868 H 0.95335 0.54031 0.75406 0.0
H1869 H 0.96806 0.48665 0.77373 0.0
H1870 H 0.97948 0.47828 0.74292 0.0
H1871 H 0.0621 0.50418 0.66844 0.0
H1872 H 0.0292 0.50885 0.67179 0.0
H1873 H 0.02658 0.4641 0.71061 0.0
H1874 H 0.05991 0.45958 0.70763 0.0
H1875 H 0.00685 0.49339 0.72229 0.0
H1876 H 0.01051 0.45814 0.6674 0.0
H1877 H 0.02189 0.44934 0.63673 0.0
H1878 H 0.00351 0.50094 0.61477 0.0
H1879 H 0.99225 0.51017 0.64537 0.0
C1880 C 0.91754 0.50117 0.70546 0.0
C1881 C 0.9117 0.51565 0.69407 0.0
C1882 C 0.9362 0.49693 0.70696 0.0
C1883 C 0.94923 0.50714 0.69712 0.0
C1884 C 0.94348 0.5222 0.68654 0.0
C1885 C 0.92487 0.52648 0.68508 0.0
C1886 C 0.96859 0.50114 0.69634 0.0
C1887 C 0.97578 0.49632 0.67912 0.0
C1888 C 0.97972 0.49959 0.71219 0.0
C1889 C 0.97286 0.50462 0.73071 0.0
C1890 C 0.96552 0.52219 0.73407 0.0
C1891 C 0.95903 0.52679 0.75156 0.0
C1892 C 0.95992 0.51397 0.76584 0.0
C1893 C 0.96735 0.49655 0.76266 0.0
C1894 C 0.97385 0.49188 0.74519 0.0
C1895 C 0.05455 0.49522 0.67761 0.0
C1896 C 0.06353 0.48143 0.68769 0.0
C1897 C 0.03572 0.49788 0.67947 0.0
C1898 C 0.02542 0.48664 0.69124 0.0
C1899 C 0.03431 0.47286 0.7014 0.0
C1900 C 0.05328 0.47025 0.69962 0.0
C1901 C 0.0054 0.4897 0.69294 0.0
C1902 C -0.00197 0.49381 0.71028 0.0
C1903 C 0.99398 0.49043 0.67722 0.0
C1904 C 0.00064 0.48489 0.65873 0.0
C1905 C 0.009 0.46766 0.65606 0.0
C1906 C 0.01542 0.46259 0.63868 0.0
C1907 C 0.01345 0.47458 0.62381 0.0
C1908 C 0.00503 0.49166 0.6263 0.0
C1909 C -0.0014 0.49681 0.64366 0.0
H1910 H 0.01843 0.47063 0.61037 0.0
H1911 H 0.95489 0.51756 0.77937 0.0
H1912 H 0.28489 0.54031 0.9276 0.0
H1913 H 0.28056 0.53626 0.96079 0.0
H1914 H 0.29906 0.48009 0.95641 0.0
H1915 H 0.30342 0.48401 0.92337 0.0
H1916 H 0.26886 0.48402 0.97944 0.0
H1917 H 0.32843 0.51148 0.96937 0.0
H1918 H 0.34958 0.535 0.95728 0.0
H1919 H 0.32186 0.57654 0.98874 0.0
H1920 H 0.30035 0.55329 0.00081 0.0
H1921 H 0.30272 0.46118 0.06791 0.0
H1922 H 0.29743 0.46721 0.03526 0.0
H1923 H 0.28269 0.52327 0.04786 0.0
H1924 H 0.28818 0.5174 0.08047 0.0
H1925 H 0.30766 0.52166 0.02094 0.0
H1926 H 0.25017 0.49303 0.03389 0.0
H1927 H 0.22942 0.46915 0.0459 0.0
H1928 H 0.25331 0.42951 0.00928 0.0
H1929 H 0.27441 0.4531 0.99722 0.0
C1930 C 0.28785 0.52707 0.93372 0.0
C1931 C 0.29462 0.51251 0.923 0.0
C1932 C 0.28539 0.52479 0.95263 0.0
C1933 C 0.28961 0.50791 0.96098 0.0
C1934 C 0.2957 0.49319 0.95017 0.0
C1935 C 0.29828 0.49549 0.93134 0.0
C1936 C 0.28878 0.50579 0.98114 0.0
C1937 C 0.27737 0.49217 0.98856 0.0
C1938 C 0.29964 0.51673 0.99295 0.0
C1939 C 0.31264 0.5307 0.98581 0.0
C1940 C 0.32674 0.52566 0.97359 0.0
C1941 C 0.33882 0.53893 0.96676 0.0
C1942 C 0.33703 0.55726 0.97218 0.0
C1943 C 0.3232 0.56234 0.98451 0.0
C1944 C 0.31107 0.54913 0.99135 0.0
C1945 C 0.29812 0.47471 0.06373 0.0
C1946 C 0.29591 0.48884 0.07669 0.0
C1947 C 0.29503 0.47812 0.0451 0.0
C1948 C 0.28955 0.49566 0.03918 0.0
C1949 C 0.2869 0.50965 0.05217 0.0
C1950 C 0.29001 0.50625 0.07077 0.0
C1951 C 0.28785 0.49972 0.01934 0.0
C1952 C 0.29887 0.51369 0.01193 0.0
C1953 C 0.27667 0.48906 0.00756 0.0
C1954 C 0.26398 0.47482 0.01475 0.0
C1955 C 0.25111 0.47919 0.0285 0.0
C1956 C 0.23926 0.46571 0.0353 0.0
C1957 C 0.24007 0.44781 0.02839 0.0
C1958 C 0.25271 0.44338 0.01463 0.0
C1959 C 0.2646 0.4568 0.00779 0.0
H1960 H 0.23088 0.4374 0.03367 0.0
H1961 H 0.34639 0.56752 0.96688 0.0
H1962 H 0.47393 0.29105 0.92692 0.0
H1963 H 0.48058 0.28767 0.95978 0.0
H1964 H 0.51469 0.33609 0.95786 0.0
H1965 H 0.50837 0.33936 0.92511 0.0
H1966 H 0.53166 0.30864 0.97549 0.0
H1967 H 0.47178 0.3372 0.97663 0.0
H1968 H 0.43885 0.33994 0.96918 0.0
H1969 H 0.42834 0.28829 0.99568 0.0
H1970 H 0.46128 0.28513 0.00307 0.0
H1971 H 0.53771 0.33627 0.0688 0.0
H1972 H 0.53214 0.33339 0.03575 0.0
H1973 H 0.50297 0.28265 0.04495 0.0
H1974 H 0.50854 0.28539 0.07799 0.0
H1975 H 0.48352 0.30747 0.02371 0.0
H1976 H 0.5432 0.28045 0.02501 0.0
H1977 H 0.57608 0.27822 0.03281 0.0
H1978 H 0.58697 0.32732 0.002 0.0
H1979 H 0.5541 0.33001 0.99422 0.0
C1980 C 0.48272 0.30103 0.93358 0.0
C1981 C 0.49064 0.31546 0.92351 0.0
C1982 C 0.4865 0.2991 0.95232 0.0
C1983 C 0.4981 0.31167 0.96123 0.0
C1984 C 0.50578 0.3262 0.95121 0.0
C1985 C 0.50208 0.32809 0.93253 0.0
C1986 C 0.50258 0.30964 0.98095 0.0
C1987 C 0.52115 0.30855 0.98605 0.0
C1988 C 0.48882 0.30895 0.99465 0.0
C1989 C 0.46902 0.31083 0.99021 0.0
C1990 C 0.46247 0.32635 0.98072 0.0
C1991 C 0.4438 0.32799 0.97654 0.0
C1992 C 0.43152 0.31427 0.9819 0.0
C1993 C 0.43788 0.29889 0.9915 0.0
C1994 C 0.45654 0.29718 0.9957 0.0
C1995 C 0.53033 0.32439 0.06374 0.0
C1996 C 0.52353 0.31107 0.07592 0.0
C1997 C 0.5272 0.32273 0.04489 0.0
C1998 C 0.51719 0.30778 0.03797 0.0
C1999 C 0.51072 0.29427 0.05007 0.0
C2000 C 0.51398 0.29584 0.06889 0.0
C2001 C 0.51259 0.30687 0.01823 0.0
C2002 C 0.49402 0.30738 0.01312 0.0
C2003 C 0.52634 0.30708 0.00454 0.0
C2004 C 0.54615 0.30551 0.00916 0.0
C2005 C 0.55258 0.29087 0.02002 0.0
C2006 C 0.57122 0.2895 0.02442 0.0
C2007 C 0.5836 0.30264 0.01794 0.0
C2008 C 0.57737 0.31716 0.00702 0.0
C2009 C 0.55873 0.3186 0.00259 0.0
H2010 H 0.59803 0.30156 0.02135 0.0
H2011 H 0.41707 0.31556 0.97866 0.0
H2012 H 0.71893 0.48402 0.92665 0.0
H2013 H 0.72037 0.49191 0.95933 0.0
H2014 H 0.66502 0.47211 0.96662 0.0
H2015 H 0.66343 0.46431 0.93401 0.0
H2016 H 0.66966 0.50698 0.97966 0.0
H2017 H 0.70079 0.44853 0.9839 0.0
H2018 H 0.72465 0.42574 0.97611 0.0
H2019 H 0.76661 0.46329 0.99356 0.0
H2020 H 0.743 0.48641 0.00123 0.0
H2021 H 0.65794 0.50268 0.07505 0.0
H2022 H 0.66133 0.49662 0.0423 0.0
H2023 H 0.71684 0.51727 0.04398 0.0
H2024 H 0.71361 0.52317 0.07704 0.0
H2025 H 0.71471 0.48479 0.02578 0.0
H2026 H 0.68378 0.5424 0.0237 0.0
H2027 H 0.66011 0.56525 0.03183 0.0
H2028 H 0.61816 0.52997 0.01014 0.0
H2029 H 0.64155 0.50677 0.00212 0.0
C2030 C 0.7072 0.48103 0.93531 0.0
C2031 C 0.69103 0.47363 0.92781 0.0
C2032 C 0.70805 0.48554 0.95395 0.0
C2033 C 0.69278 0.48264 0.96533 0.0
C2034 C 0.67691 0.47453 0.95801 0.0
C2035 C 0.67606 0.47 0.93941 0.0
C2036 C 0.69278 0.48913 0.98458 0.0
C2037 C 0.67938 0.50199 0.98981 0.0
C2038 C 0.70594 0.48316 0.99756 0.0
C2039 C 0.72014 0.46927 0.99294 0.0
C2040 C 0.71511 0.45199 0.98592 0.0
C2041 C 0.72859 0.439 0.98156 0.0
C2042 C 0.74714 0.44309 0.98429 0.0
C2043 C 0.75224 0.46016 0.99143 0.0
C2044 C 0.73882 0.4732 0.9958 0.0
C2045 C 0.67082 0.50611 0.06844 0.0
C2046 C 0.68551 0.51343 0.07856 0.0
C2047 C 0.67272 0.50269 0.04971 0.0
C2048 C 0.68927 0.50667 0.0407 0.0
C2049 C 0.70394 0.51416 0.05071 0.0
C2050 C 0.70205 0.51759 0.06953 0.0
C2051 C 0.69129 0.50228 0.02096 0.0
C2052 C 0.70509 0.48991 0.0156 0.0
C2053 C 0.67855 0.50877 0.00779 0.0
C2054 C 0.66443 0.52278 0.01242 0.0
C2055 C 0.66949 0.53945 0.02077 0.0
C2056 C 0.65613 0.55248 0.02535 0.0
C2057 C 0.63764 0.54905 0.02154 0.0
C2058 C 0.63249 0.5326 0.01309 0.0
C2059 C 0.6458 0.51952 0.0085 0.0
H2060 H 0.62731 0.55915 0.0251 0.0
H2061 H 0.75755 0.43301 0.98091 0.0
H2062 H 0.48778 0.71725 0.91823 0.0
H2063 H 0.4856 0.72429 0.95092 0.0
H2064 H 0.54146 0.70596 0.9587 0.0
H2065 H 0.54358 0.69845 0.926 0.0
H2066 H 0.5193 0.68891 0.98126 0.0
H2067 H 0.52882 0.75155 0.9649 0.0
H2068 H 0.52389 0.78038 0.94781 0.0
H2069 H 0.46833 0.78296 0.96741 0.0
H2070 H 0.47283 0.75399 0.98443 0.0
H2071 H 0.51958 0.70643 0.07554 0.0
H2072 H 0.52686 0.71186 0.04328 0.0
H2073 H 0.46949 0.721 0.03162 0.0
H2074 H 0.46203 0.71561 0.06407 0.0
H2075 H 0.49444 0.7447 0.01166 0.0
H2076 H 0.48435 0.68043 0.0249 0.0
H2077 H 0.48928 0.65162 0.04206 0.0
H2078 H 0.5465 0.6525 0.0278 0.0
H2079 H 0.54195 0.68149 0.01078 0.0
C2080 C 0.49974 0.71508 0.92683 0.0
C2081 C 0.5158 0.70714 0.91963 0.0
C2082 C 0.49851 0.71923 0.94551 0.0
C2083 C 0.51339 0.71573 0.95725 0.0
C2084 C 0.52981 0.70875 0.94987 0.0
C2085 C 0.53101 0.70449 0.9312 0.0
C2086 C 0.51102 0.71712 0.97742 0.0
C2087 C 0.51427 0.70128 0.98792 0.0
C2088 C 0.50391 0.73306 0.98604 0.0
C2089 C 0.50113 0.7505 0.97583 0.0
C2090 C 0.5155 0.75817 0.96545 0.0
C2091 C 0.51279 0.77456 0.9558 0.0
C2092 C 0.4958 0.78347 0.95649 0.0
C2093 C 0.48148 0.77603 0.96688 0.0
C2094 C 0.48411 0.75964 0.97655 0.0
C2095 C 0.50852 0.7099 0.06619 0.0
C2096 C 0.49019 0.71036 0.07223 0.0
C2097 C 0.51273 0.71304 0.04779 0.0
C2098 C 0.49869 0.71662 0.03511 0.0
C2099 C 0.48049 0.71826 0.04127 0.0
C2100 C 0.47625 0.7151 0.05975 0.0
C2101 C 0.50281 0.71656 0.01525 0.0
C2102 C 0.49975 0.73252 0.0049 0.0
C2103 C 0.51012 0.70074 0.00666 0.0
C2104 C 0.51285 0.68323 0.01675 0.0
C2105 C 0.49801 0.67456 0.02556 0.0
C2106 C 0.50073 0.65819 0.03523 0.0
C2107 C 0.5182 0.65026 0.03607 0.0
C2108 C 0.53298 0.65867 0.02717 0.0
C2109 C 0.53034 0.67507 0.0175 0.0
H2110 H 0.52028 0.63759 0.04356 0.0
H2111 H 0.49373 0.79616 0.94901 0.0
H2112 H 0.15088 0.24537 0.47544 0.0
H2113 H 0.17321 0.22083 0.48039 0.0
H2114 H 0.21738 0.26014 0.47652 0.0
H2115 H 0.19502 0.28489 0.47211 0.0
H2116 H 0.20126 0.20612 0.46293 0.0
H2117 H 0.2497 0.24987 0.50818 0.0
H2118 H 0.24833 0.27743 0.52789 0.0
H2119 H 0.19117 0.26748 0.53844 0.0
H2120 H 0.19228 0.23972 0.51902 0.0
H2121 H 0.28519 0.16044 0.47852 0.0
H2122 H 0.26167 0.18324 0.47146 0.0
H2123 H 0.24039 0.1786 0.52661 0.0
H2124 H 0.26411 0.15577 0.53387 0.0
H2125 H 0.24352 0.2141 0.51588 0.0
H2126 H 0.21766 0.15887 0.49219 0.0
H2127 H 0.2169 0.13008 0.47436 0.0
H2128 H 0.22487 0.16043 0.4244 0.0
H2129 H 0.22595 0.1894 0.44197 0.0
C2130 C 0.16536 0.24875 0.47537 0.0
C2131 C 0.17125 0.26704 0.47364 0.0
C2132 C 0.1781 0.23471 0.47817 0.0
C2133 C 0.1969 0.23875 0.4792 0.0
C2134 C 0.20288 0.25683 0.47616 0.0
C2135 C 0.19013 0.27092 0.47356 0.0
C2136 C 0.21005 0.22424 0.48462 0.0
C2137 C 0.21054 0.20788 0.47446 0.0
C2138 C 0.22179 0.22637 0.49999 0.0
C2139 C 0.22105 0.24283 0.512 0.0
C2140 C 0.23687 0.25352 0.51478 0.0
C2141 C 0.23613 0.26918 0.52589 0.0
C2142 C 0.21966 0.27423 0.53436 0.0
C2143 C 0.20391 0.26358 0.53182 0.0
C2144 C 0.20458 0.24789 0.52076 0.0
C2145 C 0.27551 0.16425 0.48916 0.0
C2146 C 0.27642 0.15632 0.50674 0.0
C2147 C 0.26204 0.17722 0.48507 0.0
C2148 C 0.2492 0.18241 0.49845 0.0
C2149 C 0.25018 0.17469 0.5161 0.0
C2150 C 0.26368 0.16166 0.52021 0.0
C2151 C 0.23495 0.19614 0.49398 0.0
C2152 C 0.23425 0.21236 0.50433 0.0
C2153 C 0.22272 0.19368 0.47907 0.0
C2154 C 0.22205 0.17629 0.46843 0.0
C2155 C 0.2194 0.15939 0.47742 0.0
C2156 C 0.21889 0.14304 0.46736 0.0
C2157 C 0.22088 0.14342 0.44826 0.0
C2158 C 0.22335 0.16016 0.43919 0.0
C2159 C 0.2239 0.17655 0.4492 0.0
H2160 H 0.22047 0.13074 0.44049 0.0
H2161 H 0.21911 0.28638 0.54293 0.0
H2162 H 0.74411 0.14704 0.46583 0.0
H2163 H 0.76889 0.16803 0.47456 0.0
H2164 H 0.72895 0.20714 0.49435 0.0
H2165 H 0.70414 0.18631 0.48563 0.0
H2166 H 0.75807 0.22347 0.4757 0.0
H2167 H 0.74806 0.17874 0.52394 0.0
H2168 H 0.74543 0.1473 0.53628 0.0
H2169 H 0.80082 0.13572 0.51958 0.0
H2170 H 0.80368 0.16704 0.5069 0.0
H2171 H 0.81225 0.27904 0.53131 0.0
H2172 H 0.78831 0.25685 0.52358 0.0
H2173 H 0.82975 0.21713 0.50864 0.0
H2174 H 0.85378 0.23908 0.5168 0.0
H2175 H 0.80055 0.20063 0.524 0.0
H2176 H 0.81139 0.24481 0.47638 0.0
H2177 H 0.81464 0.27592 0.46333 0.0
H2178 H 0.75867 0.28809 0.47747 0.0
H2179 H 0.75518 0.25714 0.49088 0.0
C2180 C 0.74062 0.16027 0.4717 0.0
C2181 C 0.72225 0.16502 0.47521 0.0
C2182 C 0.75476 0.17217 0.47676 0.0
C2183 C 0.75068 0.18895 0.48534 0.0
C2184 C 0.73232 0.1942 0.4878 0.0
C2185 C 0.7182 0.18229 0.48284 0.0
C2186 C 0.76548 0.20055 0.49288 0.0
C2187 C 0.76726 0.21857 0.48638 0.0
C2188 C 0.77766 0.19392 0.50652 0.0
C2189 C 0.77601 0.17516 0.51431 0.0
C2190 C 0.75963 0.16945 0.52278 0.0
C2191 C 0.7581 0.15166 0.52986 0.0
C2192 C 0.77293 0.1395 0.52867 0.0
C2193 C 0.78934 0.14514 0.52046 0.0
C2194 C 0.79092 0.16291 0.51334 0.0
C2195 C 0.81625 0.26541 0.52685 0.0
C2196 C 0.83483 0.26083 0.52439 0.0
C2197 C 0.80258 0.2528 0.52234 0.0
C2198 C 0.80731 0.23558 0.51505 0.0
C2199 C 0.82585 0.23042 0.51409 0.0
C2200 C 0.83955 0.24297 0.51878 0.0
C2201 C 0.79306 0.22364 0.50696 0.0
C2202 C 0.79139 0.20554 0.51331 0.0
C2203 C 0.78109 0.23015 0.49304 0.0
C2204 C 0.78308 0.24871 0.48479 0.0
C2205 C 0.79981 0.25416 0.47682 0.0
C2206 C 0.80169 0.27176 0.46935 0.0
C2207 C 0.78688 0.28398 0.4696 0.0
C2208 C 0.77014 0.27861 0.47729 0.0
C2209 C 0.7682 0.26104 0.48483 0.0
H2210 H 0.78836 0.2976 0.46381 0.0
H2211 H 0.77173 0.12573 0.53415 0.0
H2212 H 0.80676 0.71051 0.47929 0.0
H2213 H 0.78499 0.73521 0.48541 0.0
H2214 H 0.8274 0.77535 0.4753 0.0
H2215 H 0.84946 0.75055 0.46959 0.0
H2216 H 0.81046 0.78228 0.50661 0.0
H2217 H 0.79106 0.76997 0.44534 0.0
H2218 H 0.78135 0.75107 0.41896 0.0
H2219 H 0.73385 0.73314 0.44894 0.0
H2220 H 0.7434 0.75174 0.47561 0.0
H2221 H 0.74497 0.85563 0.51447 0.0
H2222 H 0.76871 0.83438 0.5037 0.0
H2223 H 0.7329 0.78853 0.51488 0.0
H2224 H 0.70905 0.80968 0.5255 0.0
H2225 H 0.74771 0.78702 0.48047 0.0
H2226 H 0.76892 0.79742 0.54251 0.0
H2227 H 0.77882 0.81636 0.5688 0.0
H2228 H 0.82316 0.83824 0.53667 0.0
H2229 H 0.81338 0.81959 0.5101 0.0
C2230 C 0.81139 0.7246 0.47806 0.0
C2231 C 0.8298 0.72864 0.47402 0.0
C2232 C 0.79891 0.73871 0.48148 0.0
C2233 C 0.80455 0.75712 0.48066 0.0
C2234 C 0.82279 0.76122 0.47598 0.0
C2235 C 0.83534 0.74707 0.47267 0.0
C2236 C 0.79171 0.77191 0.48615 0.0
C2237 C 0.79688 0.78358 0.50062 0.0
C2238 C 0.77387 0.77333 0.47859 0.0
C2239 C 0.76802 0.76217 0.46253 0.0
C2240 C 0.77861 0.7619 0.44636 0.0
C2241 C 0.77312 0.75126 0.43135 0.0
C2242 C 0.75701 0.74089 0.43229 0.0
C2243 C 0.74633 0.74118 0.44824 0.0
C2244 C 0.75176 0.75179 0.4633 0.0
C2245 C 0.74226 0.841 0.51485 0.0
C2246 C 0.72518 0.83427 0.5208 0.0
C2247 C 0.75582 0.8289 0.5087 0.0
C2248 C 0.75252 0.80992 0.50852 0.0
C2249 C 0.73564 0.80316 0.51486 0.0
C2250 C 0.72209 0.81523 0.52101 0.0
C2251 C 0.76638 0.79707 0.5011 0.0
C2252 C 0.76139 0.78582 0.48627 0.0
C2253 C 0.78439 0.79608 0.50828 0.0
C2254 C 0.79029 0.80727 0.52426 0.0
C2255 C 0.78069 0.80639 0.541 0.0
C2256 C 0.78629 0.81704 0.55596 0.0
C2257 C 0.80157 0.82854 0.55439 0.0
C2258 C 0.81131 0.82935 0.53786 0.0
C2259 C 0.80575 0.81873 0.52285 0.0
H2260 H 0.80589 0.83678 0.56599 0.0
H2261 H 0.75279 0.73265 0.42065 0.0
H2262 H 0.18643 0.71286 0.52809 0.0
H2263 H 0.20618 0.73857 0.51985 0.0
H2264 H 0.1587 0.77376 0.51473 0.0
H2265 H 0.13874 0.74792 0.52296 0.0
H2266 H 0.18005 0.77362 0.48382 0.0
H2267 H 0.18913 0.78271 0.54775 0.0
H2268 H 0.1954 0.77409 0.57991 0.0
H2269 H 0.24898 0.75468 0.56461 0.0
H2270 H 0.24294 0.76294 0.53231 0.0
H2271 H 0.24341 0.84776 0.46382 0.0
H2272 H 0.21834 0.82809 0.4745 0.0
H2273 H 0.25713 0.78457 0.48549 0.0
H2274 H 0.28222 0.80418 0.47509 0.0
H2275 H 0.23692 0.79358 0.51553 0.0
H2276 H 0.22609 0.78082 0.45124 0.0
H2277 H 0.21973 0.78891 0.41895 0.0
H2278 H 0.16937 0.8151 0.43509 0.0
H2279 H 0.17556 0.80738 0.46753 0.0
C2280 C 0.18023 0.72618 0.52566 0.0
C2281 C 0.16109 0.72842 0.52604 0.0
C2282 C 0.19152 0.74087 0.52102 0.0
C2283 C 0.18386 0.75803 0.51672 0.0
C2284 C 0.16481 0.76059 0.51804 0.0
C2285 C 0.15348 0.74588 0.52283 0.0
C2286 C 0.19572 0.77249 0.50895 0.0
C2287 C 0.19228 0.77838 0.4909 0.0
C2288 C 0.21179 0.77833 0.51811 0.0
C2289 C 0.21553 0.77337 0.53756 0.0
C2290 C 0.2022 0.77648 0.55121 0.0
C2291 C 0.20573 0.77168 0.56948 0.0
C2292 C 0.22257 0.76382 0.5743 0.0
C2293 C 0.23594 0.76078 0.56086 0.0
C2294 C 0.23248 0.76555 0.54257 0.0
C2295 C 0.2465 0.83381 0.46802 0.0
C2296 C 0.26474 0.82751 0.46883 0.0
C2297 C 0.23219 0.82263 0.47415 0.0
C2298 C 0.23597 0.80499 0.48095 0.0
C2299 C 0.25401 0.79823 0.48046 0.0
C2300 C 0.26829 0.8094 0.47442 0.0
C2301 C 0.22158 0.79415 0.4902 0.0
C2302 C 0.22454 0.78906 0.50857 0.0
C2303 C 0.20511 0.78905 0.48132 0.0
C2304 C 0.2014 0.79373 0.46183 0.0
C2305 C 0.21375 0.78847 0.44792 0.0
C2306 C 0.21015 0.79294 0.42959 0.0
C2307 C 0.19419 0.80257 0.42498 0.0
C2308 C 0.18175 0.80768 0.43869 0.0
C2309 C 0.18529 0.80325 0.45705 0.0
H2310 H 0.19142 0.80601 0.41077 0.0
H2311 H 0.22527 0.76011 0.58845 0.0
H2312 H 0.4683 0.14296 0.23986 0.0
H2313 H 0.47242 0.166 0.21568 0.0
H2314 H 0.46914 0.20917 0.25616 0.0
H2315 H 0.46536 0.18624 0.28043 0.0
H2316 H 0.45242 0.2172 0.21981 0.0
H2317 H 0.50857 0.19474 0.24925 0.0
H2318 H 0.52944 0.16991 0.25911 0.0
H2319 H 0.53464 0.15171 0.20321 0.0
H2320 H 0.51351 0.17628 0.19308 0.0
H2321 H 0.50415 0.29201 0.18956 0.0
H2322 H 0.49199 0.26623 0.20718 0.0
H2323 H 0.51036 0.22862 0.16513 0.0
H2324 H 0.52293 0.2544 0.14757 0.0
H2325 H 0.51715 0.21524 0.19833 0.0
H2326 H 0.46539 0.24065 0.16783 0.0
H2327 H 0.44397 0.26476 0.1574 0.0
H2328 H 0.42959 0.27666 0.21336 0.0
H2329 H 0.45114 0.25281 0.22417 0.0
C2330 C 0.46789 0.15738 0.24351 0.0
C2331 C 0.46678 0.16289 0.26198 0.0
C2332 C 0.47024 0.17048 0.22972 0.0
C2333 C 0.47123 0.18917 0.23427 0.0
C2334 C 0.46837 0.19477 0.25246 0.0
C2335 C 0.46631 0.18169 0.26629 0.0
C2336 C 0.47809 0.20259 0.22081 0.0
C2337 C 0.46654 0.21687 0.21508 0.0
C2338 C 0.4964 0.20175 0.21441 0.0
C2339 C 0.5093 0.18717 0.22045 0.0
C2340 C 0.51404 0.18534 0.23909 0.0
C2341 C 0.52593 0.17133 0.24472 0.0
C2342 C 0.53331 0.1592 0.2318 0.0
C2343 C 0.52887 0.16109 0.21321 0.0
C2344 C 0.51694 0.17505 0.20751 0.0
C2345 C 0.50577 0.27823 0.18417 0.0
C2346 C 0.5144 0.27517 0.16719 0.0
C2347 C 0.49867 0.26355 0.19415 0.0
C2348 C 0.49988 0.2456 0.18722 0.0
C2349 C 0.50915 0.24241 0.17061 0.0
C2350 C 0.51636 0.25711 0.16065 0.0
C2351 C 0.49157 0.2302 0.19746 0.0
C2352 C 0.50289 0.21551 0.20268 0.0
C2353 C 0.47299 0.23062 0.20323 0.0
C2354 C 0.46 0.24501 0.19682 0.0
C2355 C 0.45778 0.24851 0.17793 0.0
C2356 C 0.44559 0.26211 0.17194 0.0
C2357 C 0.43544 0.27224 0.18471 0.0
C2358 C 0.43746 0.2688 0.20349 0.0
C2359 C 0.44965 0.25522 0.20956 0.0
H2360 H 0.42598 0.28272 0.18005 0.0
H2361 H 0.54252 0.14836 0.23618 0.0
H2362 H 0.80528 0.4732 0.29342 0.0
H2363 H 0.78436 0.48185 0.26872 0.0
H2364 H 0.83026 0.48799 0.23169 0.0
H2365 H 0.85138 0.47969 0.25655 0.0
H2366 H 0.80785 0.5169 0.22958 0.0
H2367 H 0.80091 0.45202 0.22704 0.0
H2368 H 0.79586 0.42068 0.23884 0.0
H2369 H 0.74215 0.43615 0.2577 0.0
H2370 H 0.74696 0.46767 0.24625 0.0
H2371 H 0.7457 0.52188 0.15157 0.0
H2372 H 0.77052 0.51501 0.17327 0.0
H2373 H 0.73131 0.5132 0.21767 0.0
H2374 H 0.70651 0.52013 0.19619 0.0
H2375 H 0.75229 0.48102 0.21333 0.0
H2376 H 0.76076 0.54676 0.21678 0.0
H2377 H 0.7663 0.57766 0.20407 0.0
H2378 H 0.81788 0.55955 0.18187 0.0
H2379 H 0.81252 0.52844 0.19423 0.0
C2380 C 0.8109 0.47615 0.27996 0.0
C2381 C 0.82993 0.47577 0.27687 0.0
C2382 C 0.79894 0.48105 0.26584 0.0
C2383 C 0.80577 0.48541 0.24835 0.0
C2384 C 0.82474 0.48466 0.24511 0.0
C2385 C 0.83675 0.47984 0.25927 0.0
C2386 C 0.79305 0.49159 0.23377 0.0
C2387 C 0.79587 0.50891 0.22576 0.0
C2388 C 0.77734 0.48124 0.22899 0.0
C2389 C 0.77436 0.46227 0.23591 0.0
C2390 C 0.78807 0.44879 0.23384 0.0
C2391 C 0.78524 0.43098 0.24044 0.0
C2392 C 0.76871 0.42644 0.24905 0.0
C2393 C 0.75495 0.43969 0.25104 0.0
C2394 C 0.75772 0.45753 0.24447 0.0
C2395 C 0.74246 0.52046 0.16603 0.0
C2396 C 0.72419 0.52135 0.1722 0.0
C2397 C 0.75662 0.51654 0.17838 0.0
C2398 C 0.75264 0.51348 0.19698 0.0
C2399 C 0.73457 0.51544 0.20331 0.0
C2400 C 0.72045 0.51945 0.19104 0.0
C2401 C 0.76687 0.50647 0.20955 0.0
C2402 C 0.76436 0.48892 0.21708 0.0
C2403 C 0.78292 0.51653 0.2137 0.0
C2404 C 0.78613 0.53521 0.20624 0.0
C2405 C 0.7732 0.54931 0.20902 0.0
C2406 C 0.77632 0.56688 0.20192 0.0
C2407 C 0.7924 0.57055 0.19211 0.0
C2408 C 0.80541 0.55668 0.18943 0.0
C2409 C 0.80234 0.53908 0.1965 0.0
H2410 H 0.7948 0.58416 0.18663 0.0
H2411 H 0.76655 0.41264 0.25415 0.0
H2412 H 0.4735 0.71357 0.18746 0.0
H2413 H 0.4803 0.73694 0.21057 0.0
H2414 H 0.4849 0.7779 0.16796 0.0
H2415 H 0.47811 0.75456 0.14471 0.0
H2416 H 0.51528 0.77625 0.19036 0.0
H2417 H 0.45009 0.7803 0.1972 0.0
H2418 H 0.41864 0.76867 0.2018 0.0
H2419 H 0.43405 0.74696 0.25447 0.0
H2420 H 0.46568 0.75823 0.25007 0.0
H2421 H 0.52472 0.85288 0.25058 0.0
H2422 H 0.51617 0.83072 0.22687 0.0
H2423 H 0.50852 0.7891 0.2684 0.0
H2424 H 0.51685 0.81128 0.29223 0.0
H2425 H 0.47913 0.79178 0.24602 0.0
H2426 H 0.54433 0.78663 0.239 0.0
H2427 H 0.57599 0.79773 0.23453 0.0
H2428 H 0.56084 0.82088 0.18241 0.0
H2429 H 0.52899 0.81014 0.18668 0.0
C2430 C 0.47558 0.72763 0.18305 0.0
C2431 C 0.47539 0.73227 0.16432 0.0
C2432 C 0.47942 0.74096 0.19626 0.0
C2433 C 0.48311 0.7591 0.19092 0.0
C2434 C 0.4821 0.76394 0.17229 0.0
C2435 C 0.47814 0.75063 0.15907 0.0
C2436 C 0.48962 0.77254 0.20463 0.0
C2437 C 0.50726 0.77994 0.20238 0.0
C2438 C 0.47934 0.77679 0.22053 0.0
C2439 C 0.46032 0.76997 0.22322 0.0
C2440 C 0.44683 0.7729 0.20969 0.0
C2441 C 0.42895 0.7664 0.21228 0.0
C2442 C 0.42436 0.75704 0.2284 0.0
C2443 C 0.43763 0.7542 0.24198 0.0
C2444 C 0.45553 0.76065 0.23945 0.0
C2445 C 0.52155 0.83892 0.25462 0.0
C2446 C 0.52138 0.83379 0.27323 0.0
C2447 C 0.51669 0.82628 0.24107 0.0
C2448 C 0.51172 0.8083 0.24591 0.0
C2449 C 0.51226 0.80295 0.26442 0.0
C2450 C 0.51711 0.81558 0.27799 0.0
C2451 C 0.50483 0.79545 0.2318 0.0
C2452 C 0.48713 0.78816 0.23397 0.0
C2453 C 0.51509 0.79123 0.21585 0.0
C2454 C 0.53422 0.79775 0.21326 0.0
C2455 C 0.5477 0.79424 0.22666 0.0
C2456 C 0.56569 0.80043 0.22415 0.0
C2457 C 0.57041 0.81005 0.20822 0.0
C2458 C 0.55715 0.81346 0.19475 0.0
C2459 C 0.53914 0.8073 0.19721 0.0
H2460 H 0.58435 0.81483 0.20629 0.0
H2461 H 0.41051 0.75203 0.23038 0.0
H2462 H 0.18279 0.50879 0.29237 0.0
H2463 H 0.20476 0.50269 0.26783 0.0
H2464 H 0.16624 0.52362 0.22787 0.0
H2465 H 0.144 0.52958 0.25245 0.0
H2466 H 0.18024 0.49035 0.21799 0.0
H2467 H 0.20397 0.54811 0.23812 0.0
H2468 H 0.21493 0.571 0.26054 0.0
H2469 H 0.25878 0.53485 0.27647 0.0
H2470 H 0.24794 0.51162 0.25432 0.0
H2471 H 0.24741 0.48789 0.14583 0.0
H2472 H 0.22303 0.49518 0.16776 0.0
H2473 H 0.2584 0.47894 0.21254 0.0
H2474 H 0.28299 0.47217 0.19072 0.0
H2475 H 0.24482 0.51196 0.21828 0.0
H2476 H 0.22011 0.45351 0.19943 0.0
H2477 H 0.20902 0.43043 0.17726 0.0
H2478 H 0.16704 0.4677 0.15901 0.0
H2479 H 0.17804 0.4911 0.18092 0.0
C2480 C 0.17908 0.51234 0.2784 0.0
C2481 C 0.16171 0.51965 0.27429 0.0
C2482 C 0.19166 0.50889 0.2644 0.0
C2483 C 0.18713 0.51281 0.24608 0.0
C2484 C 0.16996 0.52053 0.24196 0.0
C2485 C 0.15733 0.524 0.25599 0.0
C2486 C 0.20006 0.50787 0.23125 0.0
C2487 C 0.19429 0.49531 0.21781 0.0
C2488 C 0.21844 0.51408 0.23134 0.0
C2489 C 0.22505 0.52806 0.24464 0.0
C2490 C 0.21587 0.54498 0.2465 0.0
C2491 C 0.22208 0.55803 0.25915 0.0
C2492 C 0.23752 0.55437 0.26995 0.0
C2493 C 0.24682 0.53767 0.2681 0.0
C2494 C 0.24066 0.52456 0.25548 0.0
C2495 C 0.24983 0.48552 0.16033 0.0
C2496 C 0.26708 0.4796 0.16664 0.0
C2497 C 0.23588 0.48965 0.17283 0.0
C2498 C 0.23892 0.4876 0.19177 0.0
C2499 C 0.25583 0.48072 0.19798 0.0
C2500 C 0.26982 0.47679 0.18552 0.0
C2501 C 0.22515 0.49408 0.20523 0.0
C2502 C 0.23076 0.50703 0.21837 0.0
C2503 C 0.20665 0.4882 0.20485 0.0
C2504 C 0.20002 0.47413 0.19168 0.0
C2505 C 0.20861 0.45684 0.19058 0.0
C2506 C 0.20232 0.44369 0.17808 0.0
C2507 C 0.18737 0.44761 0.16669 0.0
C2508 C 0.17864 0.46469 0.16782 0.0
C2509 C 0.18488 0.47789 0.18029 0.0
H2510 H 0.18252 0.43741 0.15703 0.0
H2511 H 0.2423 0.56449 0.27974 0.0
H2512 H 0.50633 0.70539 0.80506 0.0
H2513 H 0.49981 0.72972 0.78288 0.0
H2514 H 0.51426 0.77062 0.82327 0.0
H2515 H 0.52081 0.74629 0.84562 0.0
H2516 H 0.48051 0.77692 0.8072 0.0
H2517 H 0.54194 0.76413 0.78785 0.0
H2518 H 0.56802 0.74483 0.77811 0.0
H2519 H 0.53762 0.72705 0.73079 0.0
H2520 H 0.51123 0.74604 0.74039 0.0
H2521 H 0.47778 0.8523 0.74422 0.0
H2522 H 0.48494 0.8294 0.76771 0.0
H2523 H 0.47487 0.786 0.72858 0.0
H2524 H 0.46802 0.80884 0.70493 0.0
H2525 H 0.50748 0.78195 0.74481 0.0
H2526 H 0.44569 0.79374 0.76458 0.0
H2527 H 0.41939 0.81276 0.77432 0.0
H2528 H 0.45019 0.83214 0.82076 0.0
H2529 H 0.47678 0.81341 0.81115 0.0
C2530 C 0.50841 0.71955 0.80912 0.0
C2531 C 0.51403 0.72399 0.82704 0.0
C2532 C 0.50472 0.73342 0.79644 0.0
C2533 C 0.5066 0.75192 0.80147 0.0
C2534 C 0.51273 0.75639 0.81919 0.0
C2535 C 0.51655 0.74251 0.83186 0.0
C2536 C 0.50102 0.76653 0.78854 0.0
C2537 C 0.4866 0.77827 0.79366 0.0
C2538 C 0.50869 0.76786 0.77076 0.0
C2539 C 0.52453 0.7564 0.76494 0.0
C2540 C 0.54074 0.75598 0.77546 0.0
C2541 C 0.5556 0.74512 0.76994 0.0
C2542 C 0.55446 0.73468 0.75386 0.0
C2543 C 0.53847 0.73512 0.74325 0.0
C2544 C 0.52357 0.74595 0.74871 0.0
C2545 C 0.47673 0.83787 0.74074 0.0
C2546 C 0.47244 0.83232 0.72275 0.0
C2547 C 0.4808 0.8248 0.75417 0.0
C2548 C 0.48045 0.80602 0.74986 0.0
C2549 C 0.4753 0.80045 0.73213 0.0
C2550 C 0.47131 0.8135 0.71868 0.0
C2551 C 0.48679 0.79223 0.76336 0.0
C2552 C 0.5014 0.78066 0.75837 0.0
C2553 C 0.47926 0.79103 0.78123 0.0
C2554 C 0.46329 0.80232 0.78703 0.0
C2555 C 0.44692 0.80218 0.77678 0.0
C2556 C 0.43194 0.81288 0.78229 0.0
C2557 C 0.43314 0.82369 0.79812 0.0
C2558 C 0.44929 0.82378 0.80849 0.0
C2559 C 0.46431 0.81311 0.80302 0.0
H2560 H 0.42153 0.83197 0.80237 0.0
H2561 H 0.56598 0.72629 0.74961 0.0
H2562 H 0.25917 0.54144 0.82533 0.0
H2563 H 0.232 0.53671 0.80608 0.0
H2564 H 0.22556 0.48225 0.82869 0.0
H2565 H 0.25225 0.48711 0.8483 0.0
H2566 H 0.22799 0.51347 0.77976 0.0
H2567 H 0.18179 0.46837 0.82745 0.0
H2568 H 0.17356 0.46641 0.86027 0.0
H2569 H 0.18738 0.52329 0.86749 0.0
H2570 H 0.19544 0.52567 0.83467 0.0
H2571 H 0.17113 0.46124 0.72452 0.0
H2572 H 0.19138 0.46874 0.75023 0.0
H2573 H 0.14949 0.50392 0.77317 0.0
H2574 H 0.129 0.49614 0.74772 0.0
H2575 H 0.16856 0.48692 0.79995 0.0
H2576 H 0.18152 0.52248 0.74662 0.0
H2577 H 0.18806 0.52783 0.71381 0.0
H2578 H 0.23807 0.49683 0.71844 0.0
H2579 H 0.23167 0.49105 0.75124 0.0
C2580 C 0.25177 0.52858 0.82636 0.0
C2581 C 0.2578 0.51462 0.83824 0.0
C2582 C 0.23628 0.52588 0.81537 0.0
C2583 C 0.22666 0.50919 0.81607 0.0
C2584 C 0.23251 0.49539 0.8282 0.0
C2585 C 0.24786 0.49814 0.8393 0.0
C2586 C 0.21151 0.5055 0.80304 0.0
C2587 C 0.21497 0.50779 0.78422 0.0
C2588 C 0.19436 0.49842 0.80886 0.0
C2589 C 0.18936 0.49715 0.82861 0.0
C2590 C 0.18299 0.48049 0.83601 0.0
C2591 C 0.17837 0.4793 0.85463 0.0
C2592 C 0.18 0.4947 0.86597 0.0
C2593 C 0.18619 0.51135 0.85871 0.0
C2594 C 0.19081 0.51262 0.8401 0.0
C2595 C 0.16609 0.47024 0.73526 0.0
C2596 C 0.14862 0.47831 0.73403 0.0
C2597 C 0.17767 0.47456 0.74988 0.0
C2598 C 0.17204 0.48721 0.76331 0.0
C2599 C 0.1541 0.49422 0.76286 0.0
C2600 C 0.14245 0.48978 0.7483 0.0
C2601 C 0.1854 0.49434 0.7768 0.0
C2602 C 0.18158 0.49272 0.79561 0.0
C2603 C 0.20201 0.5026 0.77103 0.0
C2604 C 0.20604 0.50621 0.75135 0.0
C2605 C 0.19385 0.5167 0.74062 0.0
C2606 C 0.19754 0.51982 0.72202 0.0
C2607 C 0.21345 0.51264 0.71404 0.0
C2608 C 0.22574 0.50237 0.72465 0.0
C2609 C 0.2221 0.49918 0.74324 0.0
H2610 H 0.21629 0.51507 0.69964 0.0
H2611 H 0.17642 0.49375 0.88037 0.0
H2612 H 0.52795 0.14623 0.74936 0.0
H2613 H 0.52212 0.16587 0.77613 0.0
H2614 H 0.512 0.2119 0.74012 0.0
H2615 H 0.5179 0.19248 0.71345 0.0
H2616 H 0.53155 0.22194 0.77021 0.0
H2617 H 0.47693 0.18658 0.756 0.0
H2618 H 0.45947 0.15796 0.75118 0.0
H2619 H 0.47187 0.14079 0.80627 0.0
H2620 H 0.48963 0.16922 0.81132 0.0
H2621 H 0.47337 0.28359 0.81201 0.0
H2622 H 0.48128 0.25751 0.79248 0.0
H2623 H 0.49677 0.22602 0.84023 0.0
H2624 H 0.489 0.2522 0.86001 0.0
H2625 H 0.47757 0.20597 0.80876 0.0
H2626 H 0.52952 0.24414 0.82353 0.0
H2627 H 0.54478 0.27408 0.82767 0.0
H2628 H 0.53619 0.28668 0.77067 0.0
H2629 H 0.52052 0.25695 0.76627 0.0
C2630 C 0.5248 0.16062 0.74721 0.0
C2631 C 0.52323 0.16784 0.72937 0.0
C2632 C 0.5214 0.17177 0.76247 0.0
C2633 C 0.51642 0.19024 0.76003 0.0
C2634 C 0.51582 0.19766 0.74226 0.0
C2635 C 0.51914 0.18655 0.72705 0.0
C2636 C 0.51066 0.20173 0.77573 0.0
C2637 C 0.51979 0.21841 0.77867 0.0
C2638 C 0.4955 0.19694 0.78695 0.0
C2639 C 0.4848 0.17989 0.78395 0.0
C2640 C 0.47607 0.17662 0.76703 0.0
C2641 C 0.4661 0.16045 0.76427 0.0
C2642 C 0.46462 0.14753 0.77839 0.0
C2643 C 0.47307 0.15079 0.79533 0.0
C2644 C 0.48309 0.16692 0.79815 0.0
C2645 C 0.47798 0.27097 0.81843 0.0
C2646 C 0.48085 0.26998 0.83748 0.0
C2647 C 0.48249 0.25611 0.80726 0.0
C2648 C 0.48982 0.24006 0.81499 0.0
C2649 C 0.49114 0.23838 0.83411 0.0
C2650 C 0.48675 0.25333 0.84533 0.0
C2651 C 0.49823 0.22624 0.80285 0.0
C2652 C 0.4896 0.20921 0.80059 0.0
C2653 C 0.51381 0.23072 0.79217 0.0
C2654 C 0.52372 0.24837 0.79461 0.0
C2655 C 0.53078 0.25335 0.8119 0.0
C2656 C 0.5395 0.27028 0.8143 0.0
C2657 C 0.54142 0.28229 0.79945 0.0
C2658 C 0.53468 0.27736 0.78216 0.0
C2659 C 0.52588 0.26046 0.77971 0.0
H2660 H 0.54816 0.29541 0.80134 0.0
H2661 H 0.45689 0.13503 0.77623 0.0
H2662 H 0.72984 0.45637 0.82717 0.0
H2663 H 0.75468 0.46439 0.80623 0.0
H2664 H 0.76471 0.51411 0.837 0.0
H2665 H 0.73933 0.50643 0.85763 0.0
H2666 H 0.76173 0.52204 0.80269 0.0
H2667 H 0.79668 0.478 0.83551 0.0
H2668 H 0.80369 0.44849 0.85061 0.0
H2669 H 0.7985 0.42046 0.79895 0.0
H2670 H 0.7912 0.44976 0.78357 0.0
H2671 H 0.83583 0.53923 0.73853 0.0
H2672 H 0.81924 0.53361 0.76736 0.0
H2673 H 0.7932 0.48625 0.7431 0.0
H2674 H 0.80952 0.4918 0.71435 0.0
H2675 H 0.8091 0.47966 0.77803 0.0
H2676 H 0.76943 0.52389 0.74715 0.0
H2677 H 0.76269 0.55372 0.73253 0.0
H2678 H 0.77815 0.5818 0.78206 0.0
H2679 H 0.78521 0.55211 0.79689 0.0
C2680 C 0.73758 0.46882 0.82969 0.0
C2681 C 0.73262 0.48084 0.84392 0.0
C2682 C 0.75187 0.47335 0.81777 0.0
C2683 C 0.76169 0.48979 0.82013 0.0
C2684 C 0.75731 0.50137 0.83492 0.0
C2685 C 0.74285 0.49695 0.8467 0.0
C2686 C 0.77505 0.49573 0.80599 0.0
C2687 C 0.7724 0.51293 0.79764 0.0
C2688 C 0.78884 0.48379 0.79923 0.0
C2689 C 0.79329 0.4661 0.8084 0.0
C2690 C 0.79691 0.46553 0.82738 0.0
C2691 C 0.80096 0.44884 0.83599 0.0
C2692 C 0.80152 0.43261 0.82575 0.0
C2693 C 0.79807 0.43304 0.80687 0.0
C2694 C 0.794 0.4497 0.79819 0.0
C2695 C 0.82643 0.52774 0.73934 0.0
C2696 C 0.82391 0.51596 0.72424 0.0
C2697 C 0.81703 0.52453 0.75578 0.0
C2698 C 0.80513 0.50947 0.7573 0.0
C2699 C 0.80245 0.49786 0.74218 0.0
C2700 C 0.81168 0.50114 0.72574 0.0
C2701 C 0.79532 0.50562 0.77459 0.0
C2702 C 0.79869 0.48885 0.78347 0.0
C2703 C 0.78233 0.518 0.78196 0.0
C2704 C 0.77808 0.53582 0.77304 0.0
C2705 C 0.77156 0.53644 0.75486 0.0
C2706 C 0.76764 0.55331 0.74655 0.0
C2707 C 0.77006 0.56965 0.75634 0.0
C2708 C 0.77633 0.56914 0.77448 0.0
C2709 C 0.78029 0.5523 0.78284 0.0
H2710 H 0.76701 0.5827 0.74988 0.0
H2711 H 0.80465 0.4197 0.83244 0.0
loop_
_geom_bond_atom_site_label_1
_geom_bond_atom_site_label_2
_geom_bond_distance
_geom_bond_site_symmetry_2
_ccdc_geom_bond_type
In0 O1 2.294 . S
In0 O2 2.326 . S
In0 O6 2.266 . S
In0 O7 2.326 . S
In0 O8 2.266 . S
In0 O9 2.326 . S
In0 O11 2.294 . S
In0 O12 2.326 . S
O1 In0 2.294 . S
O1 C10 1.240 . S
O2 In0 2.326 . S
O2 C10 1.252 . S
C3 O6 1.252 . S
C3 O7 1.260 . S
C4 O11 1.240 . S
C4 O12 1.252 . S
C5 O8 1.252 . S
C5 O9 1.260 . S
O6 In0 2.266 . S
O6 C3 1.252 . S
O7 In0 2.326 . S
O7 C3 1.260 . S
O8 In0 2.266 . S
O8 C5 1.252 . S
O9 In0 2.326 . S
O9 C5 1.260 . S
C10 O1 1.240 . S
C10 O2 1.252 . S
O11 In0 2.294 . S
O11 C4 1.240 . S
O12 In0 2.326 . S
O12 C4 1.252 . S
In13 O14 2.294 . S
In13 O15 2.326 . S
In13 O19 2.266 . S
In13 O20 2.326 . S
In13 O21 2.266 . S
In13 O22 2.326 . S
In13 O24 2.294 . S
In13 O25 2.326 . S
O14 In13 2.294 . S
O14 C23 1.240 . S
O15 In13 2.326 . S
O15 C23 1.252 . S
C16 O19 1.252 . S
C16 O20 1.260 . S
C17 O24 1.240 . S
C17 O25 1.252 . S
C18 O21 1.252 . S
C18 O22 1.260 . S
O19 In13 2.266 . S
O19 C16 1.252 . S
O20 In13 2.326 . S
O20 C16 1.260 . S
O21 In13 2.266 . S
O21 C18 1.252 . S
O22 In13 2.326 . S
O22 C18 1.260 . S
C23 O14 1.240 . S
C23 O15 1.252 . S
O24 In13 2.294 . S
O24 C17 1.240 . S
O25 In13 2.326 . S
O25 C17 1.252 . S
In26 O27 2.294 . S
In26 O28 2.326 . S
In26 O32 2.266 . S
In26 O33 2.326 . S
In26 O34 2.266 . S
In26 O35 2.326 . S
In26 O37 2.294 . S
In26 O38 2.326 . S
O27 In26 2.294 . S
O27 C36 1.240 . S
O28 In26 2.326 . S
O28 C36 1.252 . S
C29 O32 1.252 . S
C29 O33 1.260 . S
C30 O37 1.240 . S
C30 O38 1.252 . S
C31 O34 1.252 . S
C31 O35 1.260 . S
O32 In26 2.266 . S
O32 C29 1.252 . S
O33 In26 2.326 . S
O33 C29 1.260 . S
O34 In26 2.266 . S
O34 C31 1.252 . S
O35 In26 2.326 . S
O35 C31 1.260 . S
C36 O27 1.240 . S
C36 O28 1.252 . S
O37 In26 2.294 . S
O37 C30 1.240 . S
O38 In26 2.326 . S
O38 C30 1.252 . S
In39 O40 2.294 . S
In39 O41 2.326 . S
In39 O45 2.266 . S
In39 O46 2.326 . S
In39 O47 2.266 . S
In39 O48 2.326 . S
In39 O50 2.294 . S
In39 O51 2.326 . S
O40 In39 2.294 . S
O40 C49 1.240 . S
O41 In39 2.326 . S
O41 C49 1.252 . S
C42 O45 1.252 . S
C42 O46 1.260 . S
C43 O50 1.240 . S
C43 O51 1.252 . S
C44 O47 1.252 . S
C44 O48 1.260 . S
O45 In39 2.266 . S
O45 C42 1.252 . S
O46 In39 2.326 . S
O46 C42 1.260 . S
O47 In39 2.266 . S
O47 C44 1.252 . S
O48 In39 2.326 . S
O48 C44 1.260 . S
C49 O40 1.240 . S
C49 O41 1.252 . S
O50 In39 2.294 . S
O50 C43 1.240 . S
O51 In39 2.326 . S
O51 C43 1.252 . S
In52 O53 2.294 . S
In52 O54 2.326 . S
In52 O58 2.266 . S
In52 O59 2.326 . S
In52 O60 2.266 . S
In52 O61 2.326 . S
In52 O63 2.294 . S
In52 O64 2.326 . S
O53 In52 2.294 . S
O53 C62 1.240 . S
O54 In52 2.326 . S
O54 C62 1.252 . S
C55 O58 1.252 . S
C55 O59 1.260 . S
C56 O63 1.240 . S
C56 O64 1.252 . S
C57 O60 1.252 . S
C57 O61 1.260 . S
O58 In52 2.266 . S
O58 C55 1.252 . S
O59 In52 2.326 . S
O59 C55 1.260 . S
O60 In52 2.266 . S
O60 C57 1.252 . S
O61 In52 2.326 . S
O61 C57 1.260 . S
C62 O53 1.240 . S
C62 O54 1.252 . S
O63 In52 2.294 . S
O63 C56 1.240 . S
O64 In52 2.326 . S
O64 C56 1.252 . S
In65 O66 2.294 . S
In65 O67 2.326 . S
In65 O71 2.266 . S
In65 O72 2.326 . S
In65 O73 2.266 . S
In65 O74 2.326 . S
In65 O76 2.294 . S
In65 O77 2.326 . S
O66 In65 2.294 . S
O66 C75 1.240 . S
O67 In65 2.326 . S
O67 C75 1.252 . S
C68 O71 1.252 . S
C68 O72 1.260 . S
C69 O76 1.240 . S
C69 O77 1.252 . S
C70 O73 1.252 . S
C70 O74 1.260 . S
O71 In65 2.266 . S
O71 C68 1.252 . S
O72 In65 2.326 . S
O72 C68 1.260 . S
O73 In65 2.266 . S
O73 C70 1.252 . S
O74 In65 2.326 . S
O74 C70 1.260 . S
C75 O66 1.240 . S
C75 O67 1.252 . S
O76 In65 2.294 . S
O76 C69 1.240 . S
O77 In65 2.326 . S
O77 C69 1.252 . S
In78 O79 2.294 . S
In78 O80 2.326 . S
In78 O84 2.266 . S
In78 O85 2.326 . S
In78 O86 2.266 . S
In78 O87 2.326 . S
In78 O89 2.294 . S
In78 O90 2.326 . S
O79 In78 2.294 . S
O79 C88 1.240 . S
O80 In78 2.326 . S
O80 C88 1.252 . S
C81 O84 1.252 . S
C81 O85 1.260 . S
C82 O89 1.240 . S
C82 O90 1.252 . S
C83 O86 1.252 . S
C83 O87 1.260 . S
O84 In78 2.266 . S
O84 C81 1.252 . S
O85 In78 2.326 . S
O85 C81 1.260 . S
O86 In78 2.266 . S
O86 C83 1.252 . S
O87 In78 2.326 . S
O87 C83 1.260 . S
C88 O79 1.240 . S
C88 O80 1.252 . S
O89 In78 2.294 . S
O89 C82 1.240 . S
O90 In78 2.326 . S
O90 C82 1.252 . S
In91 O92 2.294 . S
In91 O93 2.326 . S
In91 O97 2.266 . S
In91 O98 2.326 . S
In91 O99 2.266 . S
In91 O100 2.326 . S
In91 O102 2.294 . S
In91 O103 2.326 . S
O92 In91 2.294 . S
O92 C101 1.240 . S
O93 In91 2.326 . S
O93 C101 1.252 . S
C94 O97 1.252 . S
C94 O98 1.260 . S
C95 O102 1.240 . S
C95 O103 1.252 . S
C96 O99 1.252 . S
C96 O100 1.260 . S
O97 In91 2.266 . S
O97 C94 1.252 . S
O98 In91 2.326 . S
O98 C94 1.260 . S
O99 In91 2.266 . S
O99 C96 1.252 . S
O100 In91 2.326 . S
O100 C96 1.260 . S
C101 O92 1.240 . S
C101 O93 1.252 . S
O102 In91 2.294 . S
O102 C95 1.240 . S
O103 In91 2.326 . S
O103 C95 1.252 . S
In104 O105 2.294 . S
In104 O106 2.326 . S
In104 O110 2.266 . S
In104 O111 2.326 . S
In104 O112 2.266 . S
In104 O113 2.326 . S
In104 O115 2.294 . S
In104 O116 2.326 . S
O105 In104 2.294 . S
O105 C114 1.240 . S
O106 In104 2.326 . S
O106 C114 1.252 . S
C107 O110 1.252 . S
C107 O111 1.260 . S
C108 O115 1.240 . S
C108 O116 1.252 . S
C109 O112 1.252 . S
C109 O113 1.260 . S
O110 In104 2.266 . S
O110 C107 1.252 . S
O111 In104 2.326 . S
O111 C107 1.260 . S
O112 In104 2.266 . S
O112 C109 1.252 . S
O113 In104 2.326 . S
O113 C109 1.260 . S
C114 O105 1.240 . S
C114 O106 1.252 . S
O115 In104 2.294 . S
O115 C108 1.240 . S
O116 In104 2.326 . S
O116 C108 1.252 . S
In117 O118 2.294 . S
In117 O119 2.326 . S
In117 O123 2.266 . S
In117 O124 2.326 . S
In117 O125 2.266 . S
In117 O126 2.326 . S
In117 O128 2.294 . S
In117 O129 2.326 . S
O118 In117 2.294 . S
O118 C127 1.240 . S
O119 In117 2.326 . S
O119 C127 1.252 . S
C120 O123 1.252 . S
C120 O124 1.260 . S
C121 O128 1.240 . S
C121 O129 1.252 . S
C122 O125 1.252 . S
C122 O126 1.260 . S
O123 In117 2.266 . S
O123 C120 1.252 . S
O124 In117 2.326 . S
O124 C120 1.260 . S
O125 In117 2.266 . S
O125 C122 1.252 . S
O126 In117 2.326 . S
O126 C122 1.260 . S
C127 O118 1.240 . S
C127 O119 1.252 . S
O128 In117 2.294 . S
O128 C121 1.240 . S
O129 In117 2.326 . S
O129 C121 1.252 . S
In130 O131 2.294 . S
In130 O132 2.326 . S
In130 O136 2.266 . S
In130 O137 2.326 . S
In130 O138 2.266 . S
In130 O139 2.326 . S
In130 O141 2.294 . S
In130 O142 2.326 . S
O131 In130 2.294 . S
O131 C140 1.240 . S
O132 In130 2.326 . S
O132 C140 1.252 . S
C133 O136 1.252 . S
C133 O137 1.260 . S
C134 O141 1.240 . S
C134 O142 1.252 . S
C135 O138 1.252 . S
C135 O139 1.260 . S
O136 In130 2.266 . S
O136 C133 1.252 . S
O137 In130 2.326 . S
O137 C133 1.260 . S
O138 In130 2.266 . S
O138 C135 1.252 . S
O139 In130 2.326 . S
O139 C135 1.260 . S
C140 O131 1.240 . S
C140 O132 1.252 . S
O141 In130 2.294 . S
O141 C134 1.240 . S
O142 In130 2.326 . S
O142 C134 1.252 . S
In143 O144 2.294 . S
In143 O145 2.326 . S
In143 O149 2.266 . S
In143 O150 2.326 . S
In143 O151 2.266 . S
In143 O152 2.326 . S
In143 O154 2.294 . S
In143 O155 2.326 . S
O144 In143 2.294 . S
O144 C153 1.240 . S
O145 In143 2.326 . S
O145 C153 1.252 . S
C146 O149 1.252 . S
C146 O150 1.260 . S
C147 O154 1.240 . S
C147 O155 1.252 . S
C148 O151 1.252 . S
C148 O152 1.260 . S
O149 In143 2.266 . S
O149 C146 1.252 . S
O150 In143 2.326 . S
O150 C146 1.260 . S
O151 In143 2.266 . S
O151 C148 1.252 . S
O152 In143 2.326 . S
O152 C148 1.260 . S
C153 O144 1.240 . S
C153 O145 1.252 . S
O154 In143 2.294 . S
O154 C147 1.240 . S
O155 In143 2.326 . S
O155 C147 1.252 . S
In156 O157 2.294 . S
In156 O158 2.326 . S
In156 O162 2.266 . S
In156 O163 2.326 . S
In156 O164 2.266 . S
In156 O165 2.326 . S
In156 O167 2.294 . S
In156 O168 2.326 . S
O157 In156 2.294 . S
O157 C166 1.240 . S
O158 In156 2.326 . S
O158 C166 1.252 . S
C159 O162 1.252 . S
C159 O163 1.260 . S
C160 O167 1.240 . S
C160 O168 1.252 . S
C161 O164 1.252 . S
C161 O165 1.260 . S
O162 In156 2.266 . S
O162 C159 1.252 . S
O163 In156 2.326 . S
O163 C159 1.260 . S
O164 In156 2.266 . S
O164 C161 1.252 . S
O165 In156 2.326 . S
O165 C161 1.260 . S
C166 O157 1.240 . S
C166 O158 1.252 . S
O167 In156 2.294 . S
O167 C160 1.240 . S
O168 In156 2.326 . S
O168 C160 1.252 . S
In169 O170 2.294 . S
In169 O171 2.326 . S
In169 O175 2.266 . S
In169 O176 2.326 . S
In169 O177 2.266 . S
In169 O178 2.326 . S
In169 O180 2.294 . S
In169 O181 2.326 . S
O170 In169 2.294 . S
O170 C179 1.240 . S
O171 In169 2.326 . S
O171 C179 1.252 . S
C172 O175 1.252 . S
C172 O176 1.260 . S
C173 O180 1.240 . S
C173 O181 1.252 . S
C174 O177 1.252 . S
C174 O178 1.260 . S
O175 In169 2.266 . S
O175 C172 1.252 . S
O176 In169 2.326 . S
O176 C172 1.260 . S
O177 In169 2.266 . S
O177 C174 1.252 . S
O178 In169 2.326 . S
O178 C174 1.260 . S
C179 O170 1.240 . S
C179 O171 1.252 . S
O180 In169 2.294 . S
O180 C173 1.240 . S
O181 In169 2.326 . S
O181 C173 1.252 . S
In182 O183 2.294 . S
In182 O184 2.326 . S
In182 O188 2.266 . S
In182 O189 2.326 . S
In182 O190 2.266 . S
In182 O191 2.326 . S
In182 O193 2.294 . S
In182 O194 2.326 . S
O183 In182 2.294 . S
O183 C192 1.240 . S
O184 In182 2.326 . S
O184 C192 1.252 . S
C185 O188 1.252 . S
C185 O189 1.260 . S
C186 O193 1.240 . S
C186 O194 1.252 . S
C187 O190 1.252 . S
C187 O191 1.260 . S
O188 In182 2.266 . S
O188 C185 1.252 . S
O189 In182 2.326 . S
O189 C185 1.260 . S
O190 In182 2.266 . S
O190 C187 1.252 . S
O191 In182 2.326 . S
O191 C187 1.260 . S
C192 O183 1.240 . S
C192 O184 1.252 . S
O193 In182 2.294 . S
O193 C186 1.240 . S
O194 In182 2.326 . S
O194 C186 1.252 . S
In195 O196 2.294 . S
In195 O197 2.326 . S
In195 O201 2.266 . S
In195 O202 2.326 . S
In195 O203 2.266 . S
In195 O204 2.326 . S
In195 O206 2.294 . S
In195 O207 2.326 . S
O196 In195 2.294 . S
O196 C205 1.240 . S
O197 In195 2.326 . S
O197 C205 1.252 . S
C198 O201 1.252 . S
C198 O202 1.260 . S
C199 O206 1.240 . S
C199 O207 1.252 . S
C200 O203 1.252 . S
C200 O204 1.260 . S
O201 In195 2.266 . S
O201 C198 1.252 . S
O202 In195 2.326 . S
O202 C198 1.260 . S
O203 In195 2.266 . S
O203 C200 1.252 . S
O204 In195 2.326 . S
O204 C200 1.260 . S
C205 O196 1.240 . S
C205 O197 1.252 . S
O206 In195 2.294 . S
O206 C199 1.240 . S
O207 In195 2.326 . S
O207 C199 1.252 . S
In208 O209 2.294 . S
In208 O210 2.326 . S
In208 O214 2.266 . S
In208 O215 2.326 . S
In208 O216 2.266 . S
In208 O217 2.326 . S
In208 O219 2.294 . S
In208 O220 2.326 . S
O209 In208 2.294 . S
O209 C218 1.240 . S
O210 In208 2.326 . S
O210 C218 1.252 . S
C211 O214 1.252 . S
C211 O215 1.260 . S
C212 O219 1.240 . S
C212 O220 1.252 . S
C213 O216 1.252 . S
C213 O217 1.260 . S
O214 In208 2.266 . S
O214 C211 1.252 . S
O215 In208 2.326 . S
O215 C211 1.260 . S
O216 In208 2.266 . S
O216 C213 1.252 . S
O217 In208 2.326 . S
O217 C213 1.260 . S
C218 O209 1.240 . S
C218 O210 1.252 . S
O219 In208 2.294 . S
O219 C212 1.240 . S
O220 In208 2.326 . S
O220 C212 1.252 . S
In221 O222 2.294 . S
In221 O223 2.326 . S
In221 O227 2.266 . S
In221 O228 2.326 . S
In221 O229 2.266 . S
In221 O230 2.326 . S
In221 O232 2.294 . S
In221 O233 2.326 . S
O222 In221 2.294 . S
O222 C231 1.240 . S
O223 In221 2.326 . S
O223 C231 1.252 . S
C224 O227 1.252 . S
C224 O228 1.260 . S
C225 O232 1.240 . S
C225 O233 1.252 . S
C226 O229 1.252 . S
C226 O230 1.260 . S
O227 In221 2.266 . S
O227 C224 1.252 . S
O228 In221 2.326 . S
O228 C224 1.260 . S
O229 In221 2.266 . S
O229 C226 1.252 . S
O230 In221 2.326 . S
O230 C226 1.260 . S
C231 O222 1.240 . S
C231 O223 1.252 . S
O232 In221 2.294 . S
O232 C225 1.240 . S
O233 In221 2.326 . S
O233 C225 1.252 . S
In234 O235 2.294 . S
In234 O236 2.326 . S
In234 O240 2.266 . S
In234 O241 2.326 . S
In234 O242 2.266 . S
In234 O243 2.326 . S
In234 O245 2.294 . S
In234 O246 2.326 . S
O235 In234 2.294 . S
O235 C244 1.240 . S
O236 In234 2.326 . S
O236 C244 1.252 . S
C237 O240 1.252 . S
C237 O241 1.260 . S
C238 O245 1.240 . S
C238 O246 1.252 . S
C239 O242 1.252 . S
C239 O243 1.260 . S
O240 In234 2.266 . S
O240 C237 1.252 . S
O241 In234 2.326 . S
O241 C237 1.260 . S
O242 In234 2.266 . S
O242 C239 1.252 . S
O243 In234 2.326 . S
O243 C239 1.260 . S
C244 O235 1.240 . S
C244 O236 1.252 . S
O245 In234 2.294 . S
O245 C238 1.240 . S
O246 In234 2.326 . S
O246 C238 1.252 . S
In247 O248 2.294 . S
In247 O249 2.326 . S
In247 O253 2.266 . S
In247 O254 2.326 . S
In247 O255 2.266 . S
In247 O256 2.326 . S
In247 O258 2.294 . S
In247 O259 2.326 . S
O248 In247 2.294 . S
O248 C257 1.240 . S
O249 In247 2.326 . S
O249 C257 1.252 . S
C250 O253 1.252 . S
C250 O254 1.260 . S
C251 O258 1.240 . S
C251 O259 1.252 . S
C252 O255 1.252 . S
C252 O256 1.260 . S
O253 In247 2.266 . S
O253 C250 1.252 . S
O254 In247 2.326 . S
O254 C250 1.260 . S
O255 In247 2.266 . S
O255 C252 1.252 . S
O256 In247 2.326 . S
O256 C252 1.260 . S
C257 O248 1.240 . S
C257 O249 1.252 . S
O258 In247 2.294 . S
O258 C251 1.240 . S
O259 In247 2.326 . S
O259 C251 1.252 . S
In260 O261 2.294 . S
In260 O262 2.326 . S
In260 O266 2.266 . S
In260 O267 2.326 . S
In260 O268 2.266 . S
In260 O269 2.326 . S
In260 O271 2.294 . S
In260 O272 2.326 . S
O261 In260 2.294 . S
O261 C270 1.240 . S
O262 In260 2.326 . S
O262 C270 1.252 . S
C263 O266 1.252 . S
C263 O267 1.260 . S
C264 O271 1.240 . S
C264 O272 1.252 . S
C265 O268 1.252 . S
C265 O269 1.260 . S
O266 In260 2.266 . S
O266 C263 1.252 . S
O267 In260 2.326 . S
O267 C263 1.260 . S
O268 In260 2.266 . S
O268 C265 1.252 . S
O269 In260 2.326 . S
O269 C265 1.260 . S
C270 O261 1.240 . S
C270 O262 1.252 . S
O271 In260 2.294 . S
O271 C264 1.240 . S
O272 In260 2.326 . S
O272 C264 1.252 . S
In273 O274 2.294 . S
In273 O275 2.326 . S
In273 O279 2.266 . S
In273 O280 2.326 . S
In273 O281 2.266 . S
In273 O282 2.326 . S
In273 O284 2.294 . S
In273 O285 2.326 . S
O274 In273 2.294 . S
O274 C283 1.240 . S
O275 In273 2.326 . S
O275 C283 1.252 . S
C276 O279 1.252 . S
C276 O280 1.260 . S
C277 O284 1.240 . S
C277 O285 1.252 . S
C278 O281 1.252 . S
C278 O282 1.260 . S
O279 In273 2.266 . S
O279 C276 1.252 . S
O280 In273 2.326 . S
O280 C276 1.260 . S
O281 In273 2.266 . S
O281 C278 1.252 . S
O282 In273 2.326 . S
O282 C278 1.260 . S
C283 O274 1.240 . S
C283 O275 1.252 . S
O284 In273 2.294 . S
O284 C277 1.240 . S
O285 In273 2.326 . S
O285 C277 1.252 . S
In286 O287 2.294 . S
In286 O288 2.326 . S
In286 O292 2.266 . S
In286 O293 2.326 . S
In286 O294 2.266 . S
In286 O295 2.326 . S
In286 O297 2.294 . S
In286 O298 2.326 . S
O287 In286 2.294 . S
O287 C296 1.240 . S
O288 In286 2.326 . S
O288 C296 1.252 . S
C289 O292 1.252 . S
C289 O293 1.260 . S
C290 O297 1.240 . S
C290 O298 1.252 . S
C291 O294 1.252 . S
C291 O295 1.260 . S
O292 In286 2.266 . S
O292 C289 1.252 . S
O293 In286 2.326 . S
O293 C289 1.260 . S
O294 In286 2.266 . S
O294 C291 1.252 . S
O295 In286 2.326 . S
O295 C291 1.260 . S
C296 O287 1.240 . S
C296 O288 1.252 . S
O297 In286 2.294 . S
O297 C290 1.240 . S
O298 In286 2.326 . S
O298 C290 1.252 . S
In299 O300 2.294 . S
In299 O301 2.326 . S
In299 O305 2.266 . S
In299 O306 2.326 . S
In299 O307 2.266 . S
In299 O308 2.326 . S
In299 O310 2.294 . S
In299 O311 2.326 . S
O300 In299 2.294 . S
O300 C309 1.240 . S
O301 In299 2.326 . S
O301 C309 1.252 . S
C302 O305 1.252 . S
C302 O306 1.260 . S
C303 O310 1.240 . S
C303 O311 1.252 . S
C304 O307 1.252 . S
C304 O308 1.260 . S
O305 In299 2.266 . S
O305 C302 1.252 . S
O306 In299 2.326 . S
O306 C302 1.260 . S
O307 In299 2.266 . S
O307 C304 1.252 . S
O308 In299 2.326 . S
O308 C304 1.260 . S
C309 O300 1.240 . S
C309 O301 1.252 . S
O310 In299 2.294 . S
O310 C303 1.240 . S
O311 In299 2.326 . S
O311 C303 1.252 . S
H312 C330 0.951 . S
H313 C332 0.951 . S
H314 C334 0.950 . S
H315 C335 0.950 . S
H316 C337 0.950 . S
H317 C340 0.950 . S
H318 C341 0.950 . S
H319 C343 0.950 . S
H320 C344 0.950 . S
H321 C345 0.951 . S
H322 C347 0.951 . S
H323 C349 0.950 . S
H324 C350 0.950 . S
H325 C352 0.950 . S
H326 C355 0.950 . S
H327 C356 0.950 . S
H328 C358 0.950 . S
H329 C359 0.950 . S
C330 H312 0.951 . S
C330 C331 1.366 . S
C330 C332 1.388 . S
C331 C330 1.366 . S
C331 C335 1.385 . S
C332 H313 0.951 . S
C332 C330 1.388 . S
C332 C333 1.366 . S
C333 C332 1.366 . S
C333 C334 1.414 . S
C333 C336 1.499 . S
C334 H314 0.950 . S
C334 C333 1.414 . S
C334 C335 1.374 . S
C335 H315 0.950 . S
C335 C331 1.385 . S
C335 C334 1.374 . S
C336 C333 1.499 . S
C336 C337 1.373 . S
C336 C338 1.389 . S
C337 H316 0.950 . S
C337 C336 1.373 . S
C337 C353 1.377 . S
C338 C336 1.389 . S
C338 C339 1.524 . S
C338 C352 1.377 . S
C339 C338 1.524 . S
C339 C340 1.397 . S
C339 C344 1.363 . S
C340 H317 0.950 . S
C340 C339 1.397 . S
C340 C341 1.334 . S
C341 H318 0.950 . S
C341 C340 1.334 . S
C341 C342 1.287 . S
C342 C341 1.287 . S
C342 C343 1.524 . S
C342 H361 0.913 . S
C343 H319 0.950 . S
C343 C342 1.524 . S
C343 C344 1.415 . S
C344 H320 0.950 . S
C344 C339 1.363 . S
C344 C343 1.415 . S
C345 H321 0.951 . S
C345 C346 1.366 . S
C345 C347 1.388 . S
C346 C345 1.366 . S
C346 C350 1.385 . S
C347 H322 0.951 . S
C347 C345 1.388 . S
C347 C348 1.366 . S
C348 C347 1.366 . S
C348 C349 1.414 . S
C348 C351 1.499 . S
C349 H323 0.950 . S
C349 C348 1.414 . S
C349 C350 1.374 . S
C350 H324 0.950 . S
C350 C346 1.385 . S
C350 C349 1.374 . S
C351 C348 1.499 . S
C351 C352 1.373 . S
C351 C353 1.389 . S
C352 H325 0.950 . S
C352 C338 1.377 . S
C352 C351 1.373 . S
C353 C337 1.377 . S
C353 C351 1.389 . S
C353 C354 1.524 . S
C354 C353 1.524 . S
C354 C355 1.397 . S
C354 C359 1.363 . S
C355 H326 0.950 . S
C355 C354 1.397 . S
C355 C356 1.334 . S
C356 H327 0.950 . S
C356 C355 1.334 . S
C356 C357 1.287 . S
C357 C356 1.287 . S
C357 C358 1.524 . S
C357 H360 0.999 . S
C358 H328 0.950 . S
C358 C357 1.524 . S
C358 C359 1.415 . S
C359 H329 0.950 . S
C359 C354 1.363 . S
C359 C358 1.415 . S
H360 C357 0.999 . S
H361 C342 0.913 . S
H362 C380 0.951 . S
H363 C382 0.951 . S
H364 C384 0.950 . S
H365 C385 0.950 . S
H366 C387 0.950 . S
H367 C390 0.950 . S
H368 C391 0.950 . S
H369 C393 0.950 . S
H370 C394 0.950 . S
H371 C395 0.951 . S
H372 C397 0.951 . S
H373 C399 0.950 . S
H374 C400 0.950 . S
H375 C402 0.950 . S
H376 C405 0.950 . S
H377 C406 0.950 . S
H378 C408 0.950 . S
H379 C409 0.950 . S
C380 H362 0.951 . S
C380 C381 1.366 . S
C380 C382 1.388 . S
C381 C380 1.366 . S
C381 C385 1.385 . S
C382 H363 0.951 . S
C382 C380 1.388 . S
C382 C383 1.366 . S
C383 C382 1.366 . S
C383 C384 1.414 . S
C383 C386 1.499 . S
C384 H364 0.950 . S
C384 C383 1.414 . S
C384 C385 1.374 . S
C385 H365 0.950 . S
C385 C381 1.385 . S
C385 C384 1.374 . S
C386 C383 1.499 . S
C386 C387 1.373 . S
C386 C388 1.389 . S
C387 H366 0.950 . S
C387 C386 1.373 . S
C387 C403 1.377 . S
C388 C386 1.389 . S
C388 C389 1.524 . S
C388 C402 1.377 . S
C389 C388 1.524 . S
C389 C390 1.397 . S
C389 C394 1.363 . S
C390 H367 0.950 . S
C390 C389 1.397 . S
C390 C391 1.334 . S
C391 H368 0.950 . S
C391 C390 1.334 . S
C391 C392 1.287 . S
C392 C391 1.287 . S
C392 C393 1.524 . S
C392 H411 0.913 . S
C393 H369 0.950 . S
C393 C392 1.524 . S
C393 C394 1.415 . S
C394 H370 0.950 . S
C394 C389 1.363 . S
C394 C393 1.415 . S
C395 H371 0.951 . S
C395 C396 1.366 . S
C395 C397 1.388 . S
C396 C395 1.366 . S
C396 C400 1.385 . S
C397 H372 0.951 . S
C397 C395 1.388 . S
C397 C398 1.366 . S
C398 C397 1.366 . S
C398 C399 1.414 . S
C398 C401 1.499 . S
C399 H373 0.950 . S
C399 C398 1.414 . S
C399 C400 1.374 . S
C400 H374 0.950 . S
C400 C396 1.385 . S
C400 C399 1.374 . S
C401 C398 1.499 . S
C401 C402 1.373 . S
C401 C403 1.389 . S
C402 H375 0.950 . S
C402 C388 1.377 . S
C402 C401 1.373 . S
C403 C387 1.377 . S
C403 C401 1.389 . S
C403 C404 1.524 . S
C404 C403 1.524 . S
C404 C405 1.397 . S
C404 C409 1.363 . S
C405 H376 0.950 . S
C405 C404 1.397 . S
C405 C406 1.334 . S
C406 H377 0.950 . S
C406 C405 1.334 . S
C406 C407 1.287 . S
C407 C406 1.287 . S
C407 C408 1.524 . S
C407 H410 0.999 . S
C408 H378 0.950 . S
C408 C407 1.524 . S
C408 C409 1.415 . S
C409 H379 0.950 . S
C409 C404 1.363 . S
C409 C408 1.415 . S
H410 C407 0.999 . S
H411 C392 0.913 . S
H412 C430 0.951 . S
H413 C432 0.951 . S
H414 C434 0.950 . S
H415 C435 0.950 . S
H416 C437 0.950 . S
H417 C440 0.950 . S
H418 C441 0.950 . S
H419 C443 0.950 . S
H420 C444 0.950 . S
H421 C445 0.951 . S
H422 C447 0.951 . S
H423 C449 0.950 . S
H424 C450 0.950 . S
H425 C452 0.950 . S
H426 C455 0.950 . S
H427 C456 0.950 . S
H428 C458 0.950 . S
H429 C459 0.950 . S
C430 H412 0.951 . S
C430 C431 1.366 . S
C430 C432 1.388 . S
C431 C430 1.366 . S
C431 C435 1.385 . S
C432 H413 0.951 . S
C432 C430 1.388 . S
C432 C433 1.366 . S
C433 C432 1.366 . S
C433 C434 1.414 . S
C433 C436 1.499 . S
C434 H414 0.950 . S
C434 C433 1.414 . S
C434 C435 1.374 . S
C435 H415 0.950 . S
C435 C431 1.385 . S
C435 C434 1.374 . S
C436 C433 1.499 . S
C436 C437 1.373 . S
C436 C438 1.389 . S
C437 H416 0.950 . S
C437 C436 1.373 . S
C437 C453 1.377 . S
C438 C436 1.389 . S
C438 C439 1.524 . S
C438 C452 1.377 . S
C439 C438 1.524 . S
C439 C440 1.397 . S
C439 C444 1.363 . S
C440 H417 0.950 . S
C440 C439 1.397 . S
C440 C441 1.334 . S
C441 H418 0.950 . S
C441 C440 1.334 . S
C441 C442 1.287 . S
C442 C441 1.287 . S
C442 C443 1.524 . S
C442 H461 0.913 . S
C443 H419 0.950 . S
C443 C442 1.524 . S
C443 C444 1.415 . S
C444 H420 0.950 . S
C444 C439 1.363 . S
C444 C443 1.415 . S
C445 H421 0.951 . S
C445 C446 1.366 . S
C445 C447 1.388 . S
C446 C445 1.366 . S
C446 C450 1.385 . S
C447 H422 0.951 . S
C447 C445 1.388 . S
C447 C448 1.366 . S
C448 C447 1.366 . S
C448 C449 1.414 . S
C448 C451 1.499 . S
C449 H423 0.950 . S
C449 C448 1.414 . S
C449 C450 1.374 . S
C450 H424 0.950 . S
C450 C446 1.385 . S
C450 C449 1.374 . S
C451 C448 1.499 . S
C451 C452 1.373 . S
C451 C453 1.389 . S
C452 H425 0.950 . S
C452 C438 1.377 . S
C452 C451 1.373 . S
C453 C437 1.377 . S
C453 C451 1.389 . S
C453 C454 1.524 . S
C454 C453 1.524 . S
C454 C455 1.397 . S
C454 C459 1.363 . S
C455 H426 0.950 . S
C455 C454 1.397 . S
C455 C456 1.334 . S
C456 H427 0.950 . S
C456 C455 1.334 . S
C456 C457 1.287 . S
C457 C456 1.287 . S
C457 C458 1.524 . S
C457 H460 0.999 . S
C458 H428 0.950 . S
C458 C457 1.524 . S
C458 C459 1.415 . S
C459 H429 0.950 . S
C459 C454 1.363 . S
C459 C458 1.415 . S
H460 C457 0.999 . S
H461 C442 0.913 . S
H462 C480 0.951 . S
H463 C482 0.951 . S
H464 C484 0.950 . S
H465 C485 0.950 . S
H466 C487 0.950 . S
H467 C490 0.950 . S
H468 C491 0.950 . S
H469 C493 0.950 . S
H470 C494 0.950 . S
H471 C495 0.951 . S
H472 C497 0.951 . S
H473 C499 0.950 . S
H474 C500 0.950 . S
H475 C502 0.950 . S
H476 C505 0.950 . S
H477 C506 0.950 . S
H478 C508 0.950 . S
H479 C509 0.950 . S
C480 H462 0.951 . S
C480 C481 1.366 . S
C480 C482 1.388 . S
C481 C480 1.366 . S
C481 C485 1.385 . S
C482 H463 0.951 . S
C482 C480 1.388 . S
C482 C483 1.366 . S
C483 C482 1.366 . S
C483 C484 1.414 . S
C483 C486 1.499 . S
C484 H464 0.950 . S
C484 C483 1.414 . S
C484 C485 1.374 . S
C485 H465 0.950 . S
C485 C481 1.385 . S
C485 C484 1.374 . S
C486 C483 1.499 . S
C486 C487 1.373 . S
C486 C488 1.389 . S
C487 H466 0.950 . S
C487 C486 1.373 . S
C487 C503 1.377 . S
C488 C486 1.389 . S
C488 C489 1.524 . S
C488 C502 1.377 . S
C489 C488 1.524 . S
C489 C490 1.397 . S
C489 C494 1.363 . S
C490 H467 0.950 . S
C490 C489 1.397 . S
C490 C491 1.334 . S
C491 H468 0.950 . S
C491 C490 1.334 . S
C491 C492 1.287 . S
C492 C491 1.287 . S
C492 C493 1.524 . S
C492 H511 0.913 . S
C493 H469 0.950 . S
C493 C492 1.524 . S
C493 C494 1.415 . S
C494 H470 0.950 . S
C494 C489 1.363 . S
C494 C493 1.415 . S
C495 H471 0.951 . S
C495 C496 1.366 . S
C495 C497 1.388 . S
C496 C495 1.366 . S
C496 C500 1.385 . S
C497 H472 0.951 . S
C497 C495 1.388 . S
C497 C498 1.366 . S
C498 C497 1.366 . S
C498 C499 1.414 . S
C498 C501 1.499 . S
C499 H473 0.950 . S
C499 C498 1.414 . S
C499 C500 1.374 . S
C500 H474 0.950 . S
C500 C496 1.385 . S
C500 C499 1.374 . S
C501 C498 1.499 . S
C501 C502 1.373 . S
C501 C503 1.389 . S
C502 H475 0.950 . S
C502 C488 1.377 . S
C502 C501 1.373 . S
C503 C487 1.377 . S
C503 C501 1.389 . S
C503 C504 1.524 . S
C504 C503 1.524 . S
C504 C505 1.397 . S
C504 C509 1.363 . S
C505 H476 0.950 . S
C505 C504 1.397 . S
C505 C506 1.334 . S
C506 H477 0.950 . S
C506 C505 1.334 . S
C506 C507 1.287 . S
C507 C506 1.287 . S
C507 C508 1.524 . S
C507 H510 0.999 . S
C508 H478 0.950 . S
C508 C507 1.524 . S
C508 C509 1.415 . S
C509 H479 0.950 . S
C509 C504 1.363 . S
C509 C508 1.415 . S
H510 C507 0.999 . S
H511 C492 0.913 . S
H512 C530 0.951 . S
H513 C532 0.951 . S
H514 C534 0.950 . S
H515 C535 0.950 . S
H516 C537 0.950 . S
H517 C540 0.950 . S
H518 C541 0.950 . S
H519 C543 0.950 . S
H520 C544 0.950 . S
H521 C545 0.951 . S
H522 C547 0.951 . S
H523 C549 0.950 . S
H524 C550 0.950 . S
H525 C552 0.950 . S
H526 C555 0.950 . S
H527 C556 0.950 . S
H528 C558 0.950 . S
H529 C559 0.950 . S
C530 H512 0.951 . S
C530 C531 1.366 . S
C530 C532 1.388 . S
C531 C530 1.366 . S
C531 C535 1.385 . S
C532 H513 0.951 . S
C532 C530 1.388 . S
C532 C533 1.366 . S
C533 C532 1.366 . S
C533 C534 1.414 . S
C533 C536 1.499 . S
C534 H514 0.950 . S
C534 C533 1.414 . S
C534 C535 1.374 . S
C535 H515 0.950 . S
C535 C531 1.385 . S
C535 C534 1.374 . S
C536 C533 1.499 . S
C536 C537 1.373 . S
C536 C538 1.389 . S
C537 H516 0.950 . S
C537 C536 1.373 . S
C537 C553 1.377 . S
C538 C536 1.389 . S
C538 C539 1.524 . S
C538 C552 1.377 . S
C539 C538 1.524 . S
C539 C540 1.397 . S
C539 C544 1.363 . S
C540 H517 0.950 . S
C540 C539 1.397 . S
C540 C541 1.334 . S
C541 H518 0.950 . S
C541 C540 1.334 . S
C541 C542 1.287 . S
C542 C541 1.287 . S
C542 C543 1.524 . S
C542 H561 0.913 . S
C543 H519 0.950 . S
C543 C542 1.524 . S
C543 C544 1.415 . S
C544 H520 0.950 . S
C544 C539 1.363 . S
C544 C543 1.415 . S
C545 H521 0.951 . S
C545 C546 1.366 . S
C545 C547 1.388 . S
C546 C545 1.366 . S
C546 C550 1.385 . S
C547 H522 0.951 . S
C547 C545 1.388 . S
C547 C548 1.366 . S
C548 C547 1.366 . S
C548 C549 1.414 . S
C548 C551 1.499 . S
C549 H523 0.950 . S
C549 C548 1.414 . S
C549 C550 1.374 . S
C550 H524 0.950 . S
C550 C546 1.385 . S
C550 C549 1.374 . S
C551 C548 1.499 . S
C551 C552 1.373 . S
C551 C553 1.389 . S
C552 H525 0.950 . S
C552 C538 1.377 . S
C552 C551 1.373 . S
C553 C537 1.377 . S
C553 C551 1.389 . S
C553 C554 1.524 . S
C554 C553 1.524 . S
C554 C555 1.397 . S
C554 C559 1.363 . S
C555 H526 0.950 . S
C555 C554 1.397 . S
C555 C556 1.334 . S
C556 H527 0.950 . S
C556 C555 1.334 . S
C556 C557 1.287 . S
C557 C556 1.287 . S
C557 C558 1.524 . S
C557 H560 0.999 . S
C558 H528 0.950 . S
C558 C557 1.524 . S
C558 C559 1.415 . S
C559 H529 0.950 . S
C559 C554 1.363 . S
C559 C558 1.415 . S
H560 C557 0.999 . S
H561 C542 0.913 . S
H562 C580 0.951 . S
H563 C582 0.951 . S
H564 C584 0.950 . S
H565 C585 0.950 . S
H566 C587 0.950 . S
H567 C590 0.950 . S
H568 C591 0.950 . S
H569 C593 0.950 . S
H570 C594 0.950 . S
H571 C595 0.951 . S
H572 C597 0.951 . S
H573 C599 0.950 . S
H574 C600 0.950 . S
H575 C602 0.950 . S
H576 C605 0.950 . S
H577 C606 0.950 . S
H578 C608 0.950 . S
H579 C609 0.950 . S
C580 H562 0.951 . S
C580 C581 1.366 . S
C580 C582 1.388 . S
C581 C580 1.366 . S
C581 C585 1.385 . S
C582 H563 0.951 . S
C582 C580 1.388 . S
C582 C583 1.366 . S
C583 C582 1.366 . S
C583 C584 1.414 . S
C583 C586 1.499 . S
C584 H564 0.950 . S
C584 C583 1.414 . S
C584 C585 1.374 . S
C585 H565 0.950 . S
C585 C581 1.385 . S
C585 C584 1.374 . S
C586 C583 1.499 . S
C586 C587 1.373 . S
C586 C588 1.389 . S
C587 H566 0.950 . S
C587 C586 1.373 . S
C587 C603 1.377 . S
C588 C586 1.389 . S
C588 C589 1.524 . S
C588 C602 1.377 . S
C589 C588 1.524 . S
C589 C590 1.397 . S
C589 C594 1.363 . S
C590 H567 0.950 . S
C590 C589 1.397 . S
C590 C591 1.334 . S
C591 H568 0.950 . S
C591 C590 1.334 . S
C591 C592 1.287 . S
C592 C591 1.287 . S
C592 C593 1.524 . S
C592 H611 0.913 . S
C593 H569 0.950 . S
C593 C592 1.524 . S
C593 C594 1.415 . S
C594 H570 0.950 . S
C594 C589 1.363 . S
C594 C593 1.415 . S
C595 H571 0.951 . S
C595 C596 1.366 . S
C595 C597 1.388 . S
C596 C595 1.366 . S
C596 C600 1.385 . S
C597 H572 0.951 . S
C597 C595 1.388 . S
C597 C598 1.366 . S
C598 C597 1.366 . S
C598 C599 1.414 . S
C598 C601 1.499 . S
C599 H573 0.950 . S
C599 C598 1.414 . S
C599 C600 1.374 . S
C600 H574 0.950 . S
C600 C596 1.385 . S
C600 C599 1.374 . S
C601 C598 1.499 . S
C601 C602 1.373 . S
C601 C603 1.389 . S
C602 H575 0.950 . S
C602 C588 1.377 . S
C602 C601 1.373 . S
C603 C587 1.377 . S
C603 C601 1.389 . S
C603 C604 1.524 . S
C604 C603 1.524 . S
C604 C605 1.397 . S
C604 C609 1.363 . S
C605 H576 0.950 . S
C605 C604 1.397 . S
C605 C606 1.334 . S
C606 H577 0.950 . S
C606 C605 1.334 . S
C606 C607 1.287 . S
C607 C606 1.287 . S
C607 C608 1.524 . S
C607 H610 0.999 . S
C608 H578 0.950 . S
C608 C607 1.524 . S
C608 C609 1.415 . S
C609 H579 0.950 . S
C609 C604 1.363 . S
C609 C608 1.415 . S
H610 C607 0.999 . S
H611 C592 0.913 . S
H612 C630 0.951 . S
H613 C632 0.951 . S
H614 C634 0.950 . S
H615 C635 0.950 . S
H616 C637 0.950 . S
H617 C640 0.950 . S
H618 C641 0.950 . S
H619 C643 0.950 . S
H620 C644 0.950 . S
H621 C645 0.951 . S
H622 C647 0.951 . S
H623 C649 0.950 . S
H624 C650 0.950 . S
H625 C652 0.950 . S
H626 C655 0.950 . S
H627 C656 0.950 . S
H628 C658 0.950 . S
H629 C659 0.950 . S
C630 H612 0.951 . S
C630 C631 1.366 . S
C630 C632 1.388 . S
C631 C630 1.366 . S
C631 C635 1.385 . S
C632 H613 0.951 . S
C632 C630 1.388 . S
C632 C633 1.366 . S
C633 C632 1.366 . S
C633 C634 1.414 . S
C633 C636 1.499 . S
C634 H614 0.950 . S
C634 C633 1.414 . S
C634 C635 1.374 . S
C635 H615 0.950 . S
C635 C631 1.385 . S
C635 C634 1.374 . S
C636 C633 1.499 . S
C636 C637 1.373 . S
C636 C638 1.389 . S
C637 H616 0.950 . S
C637 C636 1.373 . S
C637 C653 1.377 . S
C638 C636 1.389 . S
C638 C639 1.524 . S
C638 C652 1.377 . S
C639 C638 1.524 . S
C639 C640 1.397 . S
C639 C644 1.363 . S
C640 H617 0.950 . S
C640 C639 1.397 . S
C640 C641 1.334 . S
C641 H618 0.950 . S
C641 C640 1.334 . S
C641 C642 1.287 . S
C642 C641 1.287 . S
C642 C643 1.524 . S
C642 H661 0.913 . S
C643 H619 0.950 . S
C643 C642 1.524 . S
C643 C644 1.415 . S
C644 H620 0.950 . S
C644 C639 1.363 . S
C644 C643 1.415 . S
C645 H621 0.951 . S
C645 C646 1.366 . S
C645 C647 1.388 . S
C646 C645 1.366 . S
C646 C650 1.385 . S
C647 H622 0.951 . S
C647 C645 1.388 . S
C647 C648 1.366 . S
C648 C647 1.366 . S
C648 C649 1.414 . S
C648 C651 1.499 . S
C649 H623 0.950 . S
C649 C648 1.414 . S
C649 C650 1.374 . S
C650 H624 0.950 . S
C650 C646 1.385 . S
C650 C649 1.374 . S
C651 C648 1.499 . S
C651 C652 1.373 . S
C651 C653 1.389 . S
C652 H625 0.950 . S
C652 C638 1.377 . S
C652 C651 1.373 . S
C653 C637 1.377 . S
C653 C651 1.389 . S
C653 C654 1.524 . S
C654 C653 1.524 . S
C654 C655 1.397 . S
C654 C659 1.363 . S
C655 H626 0.950 . S
C655 C654 1.397 . S
C655 C656 1.334 . S
C656 H627 0.950 . S
C656 C655 1.334 . S
C656 C657 1.287 . S
C657 C656 1.287 . S
C657 C658 1.524 . S
C657 H660 0.999 . S
C658 H628 0.950 . S
C658 C657 1.524 . S
C658 C659 1.415 . S
C659 H629 0.950 . S
C659 C654 1.363 . S
C659 C658 1.415 . S
H660 C657 0.999 . S
H661 C642 0.913 . S
H662 C680 0.951 . S
H663 C682 0.951 . S
H664 C684 0.950 . S
H665 C685 0.950 . S
H666 C687 0.950 . S
H667 C690 0.950 . S
H668 C691 0.950 . S
H669 C693 0.950 . S
H670 C694 0.950 . S
H671 C695 0.951 . S
H672 C697 0.951 . S
H673 C699 0.950 . S
H674 C700 0.950 . S
H675 C702 0.950 . S
H676 C705 0.950 . S
H677 C706 0.950 . S
H678 C708 0.950 . S
H679 C709 0.950 . S
C680 H662 0.951 . S
C680 C681 1.366 . S
C680 C682 1.388 . S
C681 C680 1.366 . S
C681 C685 1.385 . S
C682 H663 0.951 . S
C682 C680 1.388 . S
C682 C683 1.366 . S
C683 C682 1.366 . S
C683 C684 1.414 . S
C683 C686 1.499 . S
C684 H664 0.950 . S
C684 C683 1.414 . S
C684 C685 1.374 . S
C685 H665 0.950 . S
C685 C681 1.385 . S
C685 C684 1.374 . S
C686 C683 1.499 . S
C686 C687 1.373 . S
C686 C688 1.389 . S
C687 H666 0.950 . S
C687 C686 1.373 . S
C687 C703 1.377 . S
C688 C686 1.389 . S
C688 C689 1.524 . S
C688 C702 1.377 . S
C689 C688 1.524 . S
C689 C690 1.397 . S
C689 C694 1.363 . S
C690 H667 0.950 . S
C690 C689 1.397 . S
C690 C691 1.334 . S
C691 H668 0.950 . S
C691 C690 1.334 . S
C691 C692 1.287 . S
C692 C691 1.287 . S
C692 C693 1.524 . S
C692 H711 0.913 . S
C693 H669 0.950 . S
C693 C692 1.524 . S
C693 C694 1.415 . S
C694 H670 0.950 . S
C694 C689 1.363 . S
C694 C693 1.415 . S
C695 H671 0.951 . S
C695 C696 1.366 . S
C695 C697 1.388 . S
C696 C695 1.366 . S
C696 C700 1.385 . S
C697 H672 0.951 . S
C697 C695 1.388 . S
C697 C698 1.366 . S
C698 C697 1.366 . S
C698 C699 1.414 . S
C698 C701 1.499 . S
C699 H673 0.950 . S
C699 C698 1.414 . S
C699 C700 1.374 . S
C700 H674 0.950 . S
C700 C696 1.385 . S
C700 C699 1.374 . S
C701 C698 1.499 . S
C701 C702 1.373 . S
C701 C703 1.389 . S
C702 H675 0.950 . S
C702 C688 1.377 . S
C702 C701 1.373 . S
C703 C687 1.377 . S
C703 C701 1.389 . S
C703 C704 1.524 . S
C704 C703 1.524 . S
C704 C705 1.397 . S
C704 C709 1.363 . S
C705 H676 0.950 . S
C705 C704 1.397 . S
C705 C706 1.334 . S
C706 H677 0.950 . S
C706 C705 1.334 . S
C706 C707 1.287 . S
C707 C706 1.287 . S
C707 C708 1.524 . S
C707 H710 0.999 . S
C708 H678 0.950 . S
C708 C707 1.524 . S
C708 C709 1.415 . S
C709 H679 0.950 . S
C709 C704 1.363 . S
C709 C708 1.415 . S
H710 C707 0.999 . S
H711 C692 0.913 . S
H712 C730 0.951 . S
H713 C732 0.951 . S
H714 C734 0.950 . S
H715 C735 0.950 . S
H716 C737 0.950 . S
H717 C740 0.950 . S
H718 C741 0.950 . S
H719 C743 0.950 . S
H720 C744 0.950 . S
H721 C745 0.951 . S
H722 C747 0.951 . S
H723 C749 0.950 . S
H724 C750 0.950 . S
H725 C752 0.950 . S
H726 C755 0.950 . S
H727 C756 0.950 . S
H728 C758 0.950 . S
H729 C759 0.950 . S
C730 H712 0.951 . S
C730 C731 1.366 . S
C730 C732 1.388 . S
C731 C730 1.366 . S
C731 C735 1.385 . S
C732 H713 0.951 . S
C732 C730 1.388 . S
C732 C733 1.366 . S
C733 C732 1.366 . S
C733 C734 1.414 . S
C733 C736 1.499 . S
C734 H714 0.950 . S
C734 C733 1.414 . S
C734 C735 1.374 . S
C735 H715 0.950 . S
C735 C731 1.385 . S
C735 C734 1.374 . S
C736 C733 1.499 . S
C736 C737 1.373 . S
C736 C738 1.389 . S
C737 H716 0.950 . S
C737 C736 1.373 . S
C737 C753 1.377 . S
C738 C736 1.389 . S
C738 C739 1.524 . S
C738 C752 1.377 . S
C739 C738 1.524 . S
C739 C740 1.397 . S
C739 C744 1.363 . S
C740 H717 0.950 . S
C740 C739 1.397 . S
C740 C741 1.334 . S
C741 H718 0.950 . S
C741 C740 1.334 . S
C741 C742 1.287 . S
C742 C741 1.287 . S
C742 C743 1.524 . S
C742 H761 0.913 . S
C743 H719 0.950 . S
C743 C742 1.524 . S
C743 C744 1.415 . S
C744 H720 0.950 . S
C744 C739 1.363 . S
C744 C743 1.415 . S
C745 H721 0.951 . S
C745 C746 1.366 . S
C745 C747 1.388 . S
C746 C745 1.366 . S
C746 C750 1.385 . S
C747 H722 0.951 . S
C747 C745 1.388 . S
C747 C748 1.366 . S
C748 C747 1.366 . S
C748 C749 1.414 . S
C748 C751 1.499 . S
C749 H723 0.950 . S
C749 C748 1.414 . S
C749 C750 1.374 . S
C750 H724 0.950 . S
C750 C746 1.385 . S
C750 C749 1.374 . S
C751 C748 1.499 . S
C751 C752 1.373 . S
C751 C753 1.389 . S
C752 H725 0.950 . S
C752 C738 1.377 . S
C752 C751 1.373 . S
C753 C737 1.377 . S
C753 C751 1.389 . S
C753 C754 1.524 . S
C754 C753 1.524 . S
C754 C755 1.397 . S
C754 C759 1.363 . S
C755 H726 0.950 . S
C755 C754 1.397 . S
C755 C756 1.334 . S
C756 H727 0.950 . S
C756 C755 1.334 . S
C756 C757 1.287 . S
C757 C756 1.287 . S
C757 C758 1.524 . S
C757 H760 0.999 . S
C758 H728 0.950 . S
C758 C757 1.524 . S
C758 C759 1.415 . S
C759 H729 0.950 . S
C759 C754 1.363 . S
C759 C758 1.415 . S
H760 C757 0.999 . S
H761 C742 0.913 . S
H762 C780 0.951 . S
H763 C782 0.951 . S
H764 C784 0.950 . S
H765 C785 0.950 . S
H766 C787 0.950 . S
H767 C790 0.950 . S
H768 C791 0.950 . S
H769 C793 0.950 . S
H770 C794 0.950 . S
H771 C795 0.951 . S
H772 C797 0.951 . S
H773 C799 0.950 . S
H774 C800 0.950 . S
H775 C802 0.950 . S
H776 C805 0.950 . S
H777 C806 0.950 . S
H778 C808 0.950 . S
H779 C809 0.950 . S
C780 H762 0.951 . S
C780 C781 1.366 . S
C780 C782 1.388 . S
C781 C780 1.366 . S
C781 C785 1.385 . S
C782 H763 0.951 . S
C782 C780 1.388 . S
C782 C783 1.366 . S
C783 C782 1.366 . S
C783 C784 1.414 . S
C783 C786 1.499 . S
C784 H764 0.950 . S
C784 C783 1.414 . S
C784 C785 1.374 . S
C785 H765 0.950 . S
C785 C781 1.385 . S
C785 C784 1.374 . S
C786 C783 1.499 . S
C786 C787 1.373 . S
C786 C788 1.389 . S
C787 H766 0.950 . S
C787 C786 1.373 . S
C787 C803 1.377 . S
C788 C786 1.389 . S
C788 C789 1.524 . S
C788 C802 1.377 . S
C789 C788 1.524 . S
C789 C790 1.397 . S
C789 C794 1.363 . S
C790 H767 0.950 . S
C790 C789 1.397 . S
C790 C791 1.334 . S
C791 H768 0.950 . S
C791 C790 1.334 . S
C791 C792 1.287 . S
C792 C791 1.287 . S
C792 C793 1.524 . S
C792 H811 0.913 . S
C793 H769 0.950 . S
C793 C792 1.524 . S
C793 C794 1.415 . S
C794 H770 0.950 . S
C794 C789 1.363 . S
C794 C793 1.415 . S
C795 H771 0.951 . S
C795 C796 1.366 . S
C795 C797 1.388 . S
C796 C795 1.366 . S
C796 C800 1.385 . S
C797 H772 0.951 . S
C797 C795 1.388 . S
C797 C798 1.366 . S
C798 C797 1.366 . S
C798 C799 1.414 . S
C798 C801 1.499 . S
C799 H773 0.950 . S
C799 C798 1.414 . S
C799 C800 1.374 . S
C800 H774 0.950 . S
C800 C796 1.385 . S
C800 C799 1.374 . S
C801 C798 1.499 . S
C801 C802 1.373 . S
C801 C803 1.389 . S
C802 H775 0.950 . S
C802 C788 1.377 . S
C802 C801 1.373 . S
C803 C787 1.377 . S
C803 C801 1.389 . S
C803 C804 1.524 . S
C804 C803 1.524 . S
C804 C805 1.397 . S
C804 C809 1.363 . S
C805 H776 0.950 . S
C805 C804 1.397 . S
C805 C806 1.334 . S
C806 H777 0.950 . S
C806 C805 1.334 . S
C806 C807 1.287 . S
C807 C806 1.287 . S
C807 C808 1.524 . S
C807 H810 0.999 . S
C808 H778 0.950 . S
C808 C807 1.524 . S
C808 C809 1.415 . S
C809 H779 0.950 . S
C809 C804 1.363 . S
C809 C808 1.415 . S
H810 C807 0.999 . S
H811 C792 0.913 . S
H812 C830 0.951 . S
H813 C832 0.951 . S
H814 C834 0.950 . S
H815 C835 0.950 . S
H816 C837 0.950 . S
H817 C840 0.950 . S
H818 C841 0.950 . S
H819 C843 0.950 . S
H820 C844 0.950 . S
H821 C845 0.951 . S
H822 C847 0.951 . S
H823 C849 0.950 . S
H824 C850 0.950 . S
H825 C852 0.950 . S
H826 C855 0.950 . S
H827 C856 0.950 . S
H828 C858 0.950 . S
H829 C859 0.950 . S
C830 H812 0.951 . S
C830 C831 1.366 . S
C830 C832 1.388 . S
C831 C830 1.366 . S
C831 C835 1.385 . S
C832 H813 0.951 . S
C832 C830 1.388 . S
C832 C833 1.366 . S
C833 C832 1.366 . S
C833 C834 1.414 . S
C833 C836 1.499 . S
C834 H814 0.950 . S
C834 C833 1.414 . S
C834 C835 1.374 . S
C835 H815 0.950 . S
C835 C831 1.385 . S
C835 C834 1.374 . S
C836 C833 1.499 . S
C836 C837 1.373 . S
C836 C838 1.389 . S
C837 H816 0.950 . S
C837 C836 1.373 . S
C837 C853 1.377 . S
C838 C836 1.389 . S
C838 C839 1.524 . S
C838 C852 1.377 . S
C839 C838 1.524 . S
C839 C840 1.397 . S
C839 C844 1.363 . S
C840 H817 0.950 . S
C840 C839 1.397 . S
C840 C841 1.334 . S
C841 H818 0.950 . S
C841 C840 1.334 . S
C841 C842 1.287 . S
C842 C841 1.287 . S
C842 C843 1.524 . S
C842 H861 0.913 . S
C843 H819 0.950 . S
C843 C842 1.524 . S
C843 C844 1.415 . S
C844 H820 0.950 . S
C844 C839 1.363 . S
C844 C843 1.415 . S
C845 H821 0.951 . S
C845 C846 1.366 . S
C845 C847 1.388 . S
C846 C845 1.366 . S
C846 C850 1.385 . S
C847 H822 0.951 . S
C847 C845 1.388 . S
C847 C848 1.366 . S
C848 C847 1.366 . S
C848 C849 1.414 . S
C848 C851 1.499 . S
C849 H823 0.950 . S
C849 C848 1.414 . S
C849 C850 1.374 . S
C850 H824 0.950 . S
C850 C846 1.385 . S
C850 C849 1.374 . S
C851 C848 1.499 . S
C851 C852 1.373 . S
C851 C853 1.389 . S
C852 H825 0.950 . S
C852 C838 1.377 . S
C852 C851 1.373 . S
C853 C837 1.377 . S
C853 C851 1.389 . S
C853 C854 1.524 . S
C854 C853 1.524 . S
C854 C855 1.397 . S
C854 C859 1.363 . S
C855 H826 0.950 . S
C855 C854 1.397 . S
C855 C856 1.334 . S
C856 H827 0.950 . S
C856 C855 1.334 . S
C856 C857 1.287 . S
C857 C856 1.287 . S
C857 C858 1.524 . S
C857 H860 0.999 . S
C858 H828 0.950 . S
C858 C857 1.524 . S
C858 C859 1.415 . S
C859 H829 0.950 . S
C859 C854 1.363 . S
C859 C858 1.415 . S
H860 C857 0.999 . S
H861 C842 0.913 . S
H862 C880 0.951 . S
H863 C882 0.951 . S
H864 C884 0.950 . S
H865 C885 0.950 . S
H866 C887 0.950 . S
H867 C890 0.950 . S
H868 C891 0.950 . S
H869 C893 0.950 . S
H870 C894 0.950 . S
H871 C895 0.951 . S
H872 C897 0.951 . S
H873 C899 0.950 . S
H874 C900 0.950 . S
H875 C902 0.950 . S
H876 C905 0.950 . S
H877 C906 0.950 . S
H878 C908 0.950 . S
H879 C909 0.950 . S
C880 H862 0.951 . S
C880 C881 1.366 . S
C880 C882 1.388 . S
C881 C880 1.366 . S
C881 C885 1.385 . S
C882 H863 0.951 . S
C882 C880 1.388 . S
C882 C883 1.366 . S
C883 C882 1.366 . S
C883 C884 1.414 . S
C883 C886 1.499 . S
C884 H864 0.950 . S
C884 C883 1.414 . S
C884 C885 1.374 . S
C885 H865 0.950 . S
C885 C881 1.385 . S
C885 C884 1.374 . S
C886 C883 1.499 . S
C886 C887 1.373 . S
C886 C888 1.389 . S
C887 H866 0.950 . S
C887 C886 1.373 . S
C887 C903 1.377 . S
C888 C886 1.389 . S
C888 C889 1.524 . S
C888 C902 1.377 . S
C889 C888 1.524 . S
C889 C890 1.397 . S
C889 C894 1.363 . S
C890 H867 0.950 . S
C890 C889 1.397 . S
C890 C891 1.334 . S
C891 H868 0.950 . S
C891 C890 1.334 . S
C891 C892 1.287 . S
C892 C891 1.287 . S
C892 C893 1.524 . S
C892 H911 0.913 . S
C893 H869 0.950 . S
C893 C892 1.524 . S
C893 C894 1.415 . S
C894 H870 0.950 . S
C894 C889 1.363 . S
C894 C893 1.415 . S
C895 H871 0.951 . S
C895 C896 1.366 . S
C895 C897 1.388 . S
C896 C895 1.366 . S
C896 C900 1.385 . S
C897 H872 0.951 . S
C897 C895 1.388 . S
C897 C898 1.366 . S
C898 C897 1.366 . S
C898 C899 1.414 . S
C898 C901 1.499 . S
C899 H873 0.950 . S
C899 C898 1.414 . S
C899 C900 1.374 . S
C900 H874 0.950 . S
C900 C896 1.385 . S
C900 C899 1.374 . S
C901 C898 1.499 . S
C901 C902 1.373 . S
C901 C903 1.389 . S
C902 H875 0.950 . S
C902 C888 1.377 . S
C902 C901 1.373 . S
C903 C887 1.377 . S
C903 C901 1.389 . S
C903 C904 1.524 . S
C904 C903 1.524 . S
C904 C905 1.397 . S
C904 C909 1.363 . S
C905 H876 0.950 . S
C905 C904 1.397 . S
C905 C906 1.334 . S
C906 H877 0.950 . S
C906 C905 1.334 . S
C906 C907 1.287 . S
C907 C906 1.287 . S
C907 C908 1.524 . S
C907 H910 0.999 . S
C908 H878 0.950 . S
C908 C907 1.524 . S
C908 C909 1.415 . S
C909 H879 0.950 . S
C909 C904 1.363 . S
C909 C908 1.415 . S
H910 C907 0.999 . S
H911 C892 0.913 . S
H912 C930 0.951 . S
H913 C932 0.951 . S
H914 C934 0.950 . S
H915 C935 0.950 . S
H916 C937 0.950 . S
H917 C940 0.950 . S
H918 C941 0.950 . S
H919 C943 0.950 . S
H920 C944 0.950 . S
H921 C945 0.951 . S
H922 C947 0.951 . S
H923 C949 0.950 . S
H924 C950 0.950 . S
H925 C952 0.950 . S
H926 C955 0.950 . S
H927 C956 0.950 . S
H928 C958 0.950 . S
H929 C959 0.950 . S
C930 H912 0.951 . S
C930 C931 1.366 . S
C930 C932 1.388 . S
C931 C930 1.366 . S
C931 C935 1.385 . S
C932 H913 0.951 . S
C932 C930 1.388 . S
C932 C933 1.366 . S
C933 C932 1.366 . S
C933 C934 1.414 . S
C933 C936 1.499 . S
C934 H914 0.950 . S
C934 C933 1.414 . S
C934 C935 1.374 . S
C935 H915 0.950 . S
C935 C931 1.385 . S
C935 C934 1.374 . S
C936 C933 1.499 . S
C936 C937 1.373 . S
C936 C938 1.389 . S
C937 H916 0.950 . S
C937 C936 1.373 . S
C937 C953 1.377 . S
C938 C936 1.389 . S
C938 C939 1.524 . S
C938 C952 1.377 . S
C939 C938 1.524 . S
C939 C940 1.397 . S
C939 C944 1.363 . S
C940 H917 0.950 . S
C940 C939 1.397 . S
C940 C941 1.334 . S
C941 H918 0.950 . S
C941 C940 1.334 . S
C941 C942 1.287 . S
C942 C941 1.287 . S
C942 C943 1.524 . S
C942 H961 0.913 . S
C943 H919 0.950 . S
C943 C942 1.524 . S
C943 C944 1.415 . S
C944 H920 0.950 . S
C944 C939 1.363 . S
C944 C943 1.415 . S
C945 H921 0.951 . S
C945 C946 1.366 . S
C945 C947 1.388 . S
C946 C945 1.366 . S
C946 C950 1.385 . S
C947 H922 0.951 . S
C947 C945 1.388 . S
C947 C948 1.366 . S
C948 C947 1.366 . S
C948 C949 1.414 . S
C948 C951 1.499 . S
C949 H923 0.950 . S
C949 C948 1.414 . S
C949 C950 1.374 . S
C950 H924 0.950 . S
C950 C946 1.385 . S
C950 C949 1.374 . S
C951 C948 1.499 . S
C951 C952 1.373 . S
C951 C953 1.389 . S
C952 H925 0.950 . S
C952 C938 1.377 . S
C952 C951 1.373 . S
C953 C937 1.377 . S
C953 C951 1.389 . S
C953 C954 1.524 . S
C954 C953 1.524 . S
C954 C955 1.397 . S
C954 C959 1.363 . S
C955 H926 0.950 . S
C955 C954 1.397 . S
C955 C956 1.334 . S
C956 H927 0.950 . S
C956 C955 1.334 . S
C956 C957 1.287 . S
C957 C956 1.287 . S
C957 C958 1.524 . S
C957 H960 0.999 . S
C958 H928 0.950 . S
C958 C957 1.524 . S
C958 C959 1.415 . S
C959 H929 0.950 . S
C959 C954 1.363 . S
C959 C958 1.415 . S
H960 C957 0.999 . S
H961 C942 0.913 . S
H962 C980 0.951 . S
H963 C982 0.951 . S
H964 C984 0.950 . S
H965 C985 0.950 . S
H966 C987 0.950 . S
H967 C990 0.950 . S
H968 C991 0.950 . S
H969 C993 0.950 . S
H970 C994 0.950 . S
H971 C995 0.951 . S
H972 C997 0.951 . S
H973 C999 0.950 . S
H974 C1000 0.950 . S
H975 C1002 0.950 . S
H976 C1005 0.950 . S
H977 C1006 0.950 . S
H978 C1008 0.950 . S
H979 C1009 0.950 . S
C980 H962 0.951 . S
C980 C981 1.366 . S
C980 C982 1.388 . S
C981 C980 1.366 . S
C981 C985 1.385 . S
C982 H963 0.951 . S
C982 C980 1.388 . S
C982 C983 1.366 . S
C983 C982 1.366 . S
C983 C984 1.414 . S
C983 C986 1.499 . S
C984 H964 0.950 . S
C984 C983 1.414 . S
C984 C985 1.374 . S
C985 H965 0.950 . S
C985 C981 1.385 . S
C985 C984 1.374 . S
C986 C983 1.499 . S
C986 C987 1.373 . S
C986 C988 1.389 . S
C987 H966 0.950 . S
C987 C986 1.373 . S
C987 C1003 1.377 . S
C988 C986 1.389 . S
C988 C989 1.524 . S
C988 C1002 1.377 . S
C989 C988 1.524 . S
C989 C990 1.397 . S
C989 C994 1.363 . S
C990 H967 0.950 . S
C990 C989 1.397 . S
C990 C991 1.334 . S
C991 H968 0.950 . S
C991 C990 1.334 . S
C991 C992 1.287 . S
C992 C991 1.287 . S
C992 C993 1.524 . S
C992 H1011 0.913 . S
C993 H969 0.950 . S
C993 C992 1.524 . S
C993 C994 1.415 . S
C994 H970 0.950 . S
C994 C989 1.363 . S
C994 C993 1.415 . S
C995 H971 0.951 . S
C995 C996 1.366 . S
C995 C997 1.388 . S
C996 C995 1.366 . S
C996 C1000 1.385 . S
C997 H972 0.951 . S
C997 C995 1.388 . S
C997 C998 1.366 . S
C998 C997 1.366 . S
C998 C999 1.414 . S
C998 C1001 1.499 . S
C999 H973 0.950 . S
C999 C998 1.414 . S
C999 C1000 1.374 . S
C1000 H974 0.950 . S
C1000 C996 1.385 . S
C1000 C999 1.374 . S
C1001 C998 1.499 . S
C1001 C1002 1.373 . S
C1001 C1003 1.389 . S
C1002 H975 0.950 . S
C1002 C988 1.377 . S
C1002 C1001 1.373 . S
C1003 C987 1.377 . S
C1003 C1001 1.389 . S
C1003 C1004 1.524 . S
C1004 C1003 1.524 . S
C1004 C1005 1.397 . S
C1004 C1009 1.363 . S
C1005 H976 0.950 . S
C1005 C1004 1.397 . S
C1005 C1006 1.334 . S
C1006 H977 0.950 . S
C1006 C1005 1.334 . S
C1006 C1007 1.287 . S
C1007 C1006 1.287 . S
C1007 C1008 1.524 . S
C1007 H1010 0.999 . S
C1008 H978 0.950 . S
C1008 C1007 1.524 . S
C1008 C1009 1.415 . S
C1009 H979 0.950 . S
C1009 C1004 1.363 . S
C1009 C1008 1.415 . S
H1010 C1007 0.999 . S
H1011 C992 0.913 . S
H1012 C1030 0.951 . S
H1013 C1032 0.951 . S
H1014 C1034 0.950 . S
H1015 C1035 0.950 . S
H1016 C1037 0.950 . S
H1017 C1040 0.950 . S
H1018 C1041 0.950 . S
H1019 C1043 0.950 . S
H1020 C1044 0.950 . S
H1021 C1045 0.951 . S
H1022 C1047 0.951 . S
H1023 C1049 0.950 . S
H1024 C1050 0.950 . S
H1025 C1052 0.950 . S
H1026 C1055 0.950 . S
H1027 C1056 0.950 . S
H1028 C1058 0.950 . S
H1029 C1059 0.950 . S
C1030 H1012 0.951 . S
C1030 C1031 1.366 . S
C1030 C1032 1.388 . S
C1031 C1030 1.366 . S
C1031 C1035 1.385 . S
C1032 H1013 0.951 . S
C1032 C1030 1.388 . S
C1032 C1033 1.366 . S
C1033 C1032 1.366 . S
C1033 C1034 1.414 . S
C1033 C1036 1.499 . S
C1034 H1014 0.950 . S
C1034 C1033 1.414 . S
C1034 C1035 1.374 . S
C1035 H1015 0.950 . S
C1035 C1031 1.385 . S
C1035 C1034 1.374 . S
C1036 C1033 1.499 . S
C1036 C1037 1.373 . S
C1036 C1038 1.389 . S
C1037 H1016 0.950 . S
C1037 C1036 1.373 . S
C1037 C1053 1.377 . S
C1038 C1036 1.389 . S
C1038 C1039 1.524 . S
C1038 C1052 1.377 . S
C1039 C1038 1.524 . S
C1039 C1040 1.397 . S
C1039 C1044 1.363 . S
C1040 H1017 0.950 . S
C1040 C1039 1.397 . S
C1040 C1041 1.334 . S
C1041 H1018 0.950 . S
C1041 C1040 1.334 . S
C1041 C1042 1.287 . S
C1042 C1041 1.287 . S
C1042 C1043 1.524 . S
C1042 H1061 0.913 . S
C1043 H1019 0.950 . S
C1043 C1042 1.524 . S
C1043 C1044 1.415 . S
C1044 H1020 0.950 . S
C1044 C1039 1.363 . S
C1044 C1043 1.415 . S
C1045 H1021 0.951 . S
C1045 C1046 1.366 . S
C1045 C1047 1.388 . S
C1046 C1045 1.366 . S
C1046 C1050 1.385 . S
C1047 H1022 0.951 . S
C1047 C1045 1.388 . S
C1047 C1048 1.366 . S
C1048 C1047 1.366 . S
C1048 C1049 1.414 . S
C1048 C1051 1.499 . S
C1049 H1023 0.950 . S
C1049 C1048 1.414 . S
C1049 C1050 1.374 . S
C1050 H1024 0.950 . S
C1050 C1046 1.385 . S
C1050 C1049 1.374 . S
C1051 C1048 1.499 . S
C1051 C1052 1.373 . S
C1051 C1053 1.389 . S
C1052 H1025 0.950 . S
C1052 C1038 1.377 . S
C1052 C1051 1.373 . S
C1053 C1037 1.377 . S
C1053 C1051 1.389 . S
C1053 C1054 1.524 . S
C1054 C1053 1.524 . S
C1054 C1055 1.397 . S
C1054 C1059 1.363 . S
C1055 H1026 0.950 . S
C1055 C1054 1.397 . S
C1055 C1056 1.334 . S
C1056 H1027 0.950 . S
C1056 C1055 1.334 . S
C1056 C1057 1.287 . S
C1057 C1056 1.287 . S
C1057 C1058 1.524 . S
C1057 H1060 0.999 . S
C1058 H1028 0.950 . S
C1058 C1057 1.524 . S
C1058 C1059 1.415 . S
C1059 H1029 0.950 . S
C1059 C1054 1.363 . S
C1059 C1058 1.415 . S
H1060 C1057 0.999 . S
H1061 C1042 0.913 . S
H1062 C1080 0.951 . S
H1063 C1082 0.951 . S
H1064 C1084 0.950 . S
H1065 C1085 0.950 . S
H1066 C1087 0.950 . S
H1067 C1090 0.950 . S
H1068 C1091 0.950 . S
H1069 C1093 0.950 . S
H1070 C1094 0.950 . S
H1071 C1095 0.951 . S
H1072 C1097 0.951 . S
H1073 C1099 0.950 . S
H1074 C1100 0.950 . S
H1075 C1102 0.950 . S
H1076 C1105 0.950 . S
H1077 C1106 0.950 . S
H1078 C1108 0.950 . S
H1079 C1109 0.950 . S
C1080 H1062 0.951 . S
C1080 C1081 1.366 . S
C1080 C1082 1.388 . S
C1081 C1080 1.366 . S
C1081 C1085 1.385 . S
C1082 H1063 0.951 . S
C1082 C1080 1.388 . S
C1082 C1083 1.366 . S
C1083 C1082 1.366 . S
C1083 C1084 1.414 . S
C1083 C1086 1.499 . S
C1084 H1064 0.950 . S
C1084 C1083 1.414 . S
C1084 C1085 1.374 . S
C1085 H1065 0.950 . S
C1085 C1081 1.385 . S
C1085 C1084 1.374 . S
C1086 C1083 1.499 . S
C1086 C1087 1.373 . S
C1086 C1088 1.389 . S
C1087 H1066 0.950 . S
C1087 C1086 1.373 . S
C1087 C1103 1.377 . S
C1088 C1086 1.389 . S
C1088 C1089 1.524 . S
C1088 C1102 1.377 . S
C1089 C1088 1.524 . S
C1089 C1090 1.397 . S
C1089 C1094 1.363 . S
C1090 H1067 0.950 . S
C1090 C1089 1.397 . S
C1090 C1091 1.334 . S
C1091 H1068 0.950 . S
C1091 C1090 1.334 . S
C1091 C1092 1.287 . S
C1092 C1091 1.287 . S
C1092 C1093 1.524 . S
C1092 H1111 0.913 . S
C1093 H1069 0.950 . S
C1093 C1092 1.524 . S
C1093 C1094 1.415 . S
C1094 H1070 0.950 . S
C1094 C1089 1.363 . S
C1094 C1093 1.415 . S
C1095 H1071 0.951 . S
C1095 C1096 1.366 . S
C1095 C1097 1.388 . S
C1096 C1095 1.366 . S
C1096 C1100 1.385 . S
C1097 H1072 0.951 . S
C1097 C1095 1.388 . S
C1097 C1098 1.366 . S
C1098 C1097 1.366 . S
C1098 C1099 1.414 . S
C1098 C1101 1.499 . S
C1099 H1073 0.950 . S
C1099 C1098 1.414 . S
C1099 C1100 1.374 . S
C1100 H1074 0.950 . S
C1100 C1096 1.385 . S
C1100 C1099 1.374 . S
C1101 C1098 1.499 . S
C1101 C1102 1.373 . S
C1101 C1103 1.389 . S
C1102 H1075 0.950 . S
C1102 C1088 1.377 . S
C1102 C1101 1.373 . S
C1103 C1087 1.377 . S
C1103 C1101 1.389 . S
C1103 C1104 1.524 . S
C1104 C1103 1.524 . S
C1104 C1105 1.397 . S
C1104 C1109 1.363 . S
C1105 H1076 0.950 . S
C1105 C1104 1.397 . S
C1105 C1106 1.334 . S
C1106 H1077 0.950 . S
C1106 C1105 1.334 . S
C1106 C1107 1.287 . S
C1107 C1106 1.287 . S
C1107 C1108 1.524 . S
C1107 H1110 0.999 . S
C1108 H1078 0.950 . S
C1108 C1107 1.524 . S
C1108 C1109 1.415 . S
C1109 H1079 0.950 . S
C1109 C1104 1.363 . S
C1109 C1108 1.415 . S
H1110 C1107 0.999 . S
H1111 C1092 0.913 . S
H1112 C1130 0.951 . S
H1113 C1132 0.951 . S
H1114 C1134 0.950 . S
H1115 C1135 0.950 . S
H1116 C1137 0.950 . S
H1117 C1140 0.950 . S
H1118 C1141 0.950 . S
H1119 C1143 0.950 . S
H1120 C1144 0.950 . S
H1121 C1145 0.951 . S
H1122 C1147 0.951 . S
H1123 C1149 0.950 . S
H1124 C1150 0.950 . S
H1125 C1152 0.950 . S
H1126 C1155 0.950 . S
H1127 C1156 0.950 . S
H1128 C1158 0.950 . S
H1129 C1159 0.950 . S
C1130 H1112 0.951 . S
C1130 C1131 1.366 . S
C1130 C1132 1.388 . S
C1131 C1130 1.366 . S
C1131 C1135 1.385 . S
C1132 H1113 0.951 . S
C1132 C1130 1.388 . S
C1132 C1133 1.366 . S
C1133 C1132 1.366 . S
C1133 C1134 1.414 . S
C1133 C1136 1.499 . S
C1134 H1114 0.950 . S
C1134 C1133 1.414 . S
C1134 C1135 1.374 . S
C1135 H1115 0.950 . S
C1135 C1131 1.385 . S
C1135 C1134 1.374 . S
C1136 C1133 1.499 . S
C1136 C1137 1.373 . S
C1136 C1138 1.389 . S
C1137 H1116 0.950 . S
C1137 C1136 1.373 . S
C1137 C1153 1.377 . S
C1138 C1136 1.389 . S
C1138 C1139 1.524 . S
C1138 C1152 1.377 . S
C1139 C1138 1.524 . S
C1139 C1140 1.397 . S
C1139 C1144 1.363 . S
C1140 H1117 0.950 . S
C1140 C1139 1.397 . S
C1140 C1141 1.334 . S
C1141 H1118 0.950 . S
C1141 C1140 1.334 . S
C1141 C1142 1.287 . S
C1142 C1141 1.287 . S
C1142 C1143 1.524 . S
C1142 H1161 0.913 . S
C1143 H1119 0.950 . S
C1143 C1142 1.524 . S
C1143 C1144 1.415 . S
C1144 H1120 0.950 . S
C1144 C1139 1.363 . S
C1144 C1143 1.415 . S
C1145 H1121 0.951 . S
C1145 C1146 1.366 . S
C1145 C1147 1.388 . S
C1146 C1145 1.366 . S
C1146 C1150 1.385 . S
C1147 H1122 0.951 . S
C1147 C1145 1.388 . S
C1147 C1148 1.366 . S
C1148 C1147 1.366 . S
C1148 C1149 1.414 . S
C1148 C1151 1.499 . S
C1149 H1123 0.950 . S
C1149 C1148 1.414 . S
C1149 C1150 1.374 . S
C1150 H1124 0.950 . S
C1150 C1146 1.385 . S
C1150 C1149 1.374 . S
C1151 C1148 1.499 . S
C1151 C1152 1.373 . S
C1151 C1153 1.389 . S
C1152 H1125 0.950 . S
C1152 C1138 1.377 . S
C1152 C1151 1.373 . S
C1153 C1137 1.377 . S
C1153 C1151 1.389 . S
C1153 C1154 1.524 . S
C1154 C1153 1.524 . S
C1154 C1155 1.397 . S
C1154 C1159 1.363 . S
C1155 H1126 0.950 . S
C1155 C1154 1.397 . S
C1155 C1156 1.334 . S
C1156 H1127 0.950 . S
C1156 C1155 1.334 . S
C1156 C1157 1.287 . S
C1157 C1156 1.287 . S
C1157 C1158 1.524 . S
C1157 H1160 0.999 . S
C1158 H1128 0.950 . S
C1158 C1157 1.524 . S
C1158 C1159 1.415 . S
C1159 H1129 0.950 . S
C1159 C1154 1.363 . S
C1159 C1158 1.415 . S
H1160 C1157 0.999 . S
H1161 C1142 0.913 . S
H1162 C1180 0.951 . S
H1163 C1182 0.951 . S
H1164 C1184 0.950 . S
H1165 C1185 0.950 . S
H1166 C1187 0.950 . S
H1167 C1190 0.950 . S
H1168 C1191 0.950 . S
H1169 C1193 0.950 . S
H1170 C1194 0.950 . S
H1171 C1195 0.951 . S
H1172 C1197 0.951 . S
H1173 C1199 0.950 . S
H1174 C1200 0.950 . S
H1175 C1202 0.950 . S
H1176 C1205 0.950 . S
H1177 C1206 0.950 . S
H1178 C1208 0.950 . S
H1179 C1209 0.950 . S
C1180 H1162 0.951 . S
C1180 C1181 1.366 . S
C1180 C1182 1.388 . S
C1181 C1180 1.366 . S
C1181 C1185 1.385 . S
C1182 H1163 0.951 . S
C1182 C1180 1.388 . S
C1182 C1183 1.366 . S
C1183 C1182 1.366 . S
C1183 C1184 1.414 . S
C1183 C1186 1.499 . S
C1184 H1164 0.950 . S
C1184 C1183 1.414 . S
C1184 C1185 1.374 . S
C1185 H1165 0.950 . S
C1185 C1181 1.385 . S
C1185 C1184 1.374 . S
C1186 C1183 1.499 . S
C1186 C1187 1.373 . S
C1186 C1188 1.389 . S
C1187 H1166 0.950 . S
C1187 C1186 1.373 . S
C1187 C1203 1.377 . S
C1188 C1186 1.389 . S
C1188 C1189 1.524 . S
C1188 C1202 1.377 . S
C1189 C1188 1.524 . S
C1189 C1190 1.397 . S
C1189 C1194 1.363 . S
C1190 H1167 0.950 . S
C1190 C1189 1.397 . S
C1190 C1191 1.334 . S
C1191 H1168 0.950 . S
C1191 C1190 1.334 . S
C1191 C1192 1.287 . S
C1192 C1191 1.287 . S
C1192 C1193 1.524 . S
C1192 H1211 0.913 . S
C1193 H1169 0.950 . S
C1193 C1192 1.524 . S
C1193 C1194 1.415 . S
C1194 H1170 0.950 . S
C1194 C1189 1.363 . S
C1194 C1193 1.415 . S
C1195 H1171 0.951 . S
C1195 C1196 1.366 . S
C1195 C1197 1.388 . S
C1196 C1195 1.366 . S
C1196 C1200 1.385 . S
C1197 H1172 0.951 . S
C1197 C1195 1.388 . S
C1197 C1198 1.366 . S
C1198 C1197 1.366 . S
C1198 C1199 1.414 . S
C1198 C1201 1.499 . S
C1199 H1173 0.950 . S
C1199 C1198 1.414 . S
C1199 C1200 1.374 . S
C1200 H1174 0.950 . S
C1200 C1196 1.385 . S
C1200 C1199 1.374 . S
C1201 C1198 1.499 . S
C1201 C1202 1.373 . S
C1201 C1203 1.389 . S
C1202 H1175 0.950 . S
C1202 C1188 1.377 . S
C1202 C1201 1.373 . S
C1203 C1187 1.377 . S
C1203 C1201 1.389 . S
C1203 C1204 1.524 . S
C1204 C1203 1.524 . S
C1204 C1205 1.397 . S
C1204 C1209 1.363 . S
C1205 H1176 0.950 . S
C1205 C1204 1.397 . S
C1205 C1206 1.334 . S
C1206 H1177 0.950 . S
C1206 C1205 1.334 . S
C1206 C1207 1.287 . S
C1207 C1206 1.287 . S
C1207 C1208 1.524 . S
C1207 H1210 0.999 . S
C1208 H1178 0.950 . S
C1208 C1207 1.524 . S
C1208 C1209 1.415 . S
C1209 H1179 0.950 . S
C1209 C1204 1.363 . S
C1209 C1208 1.415 . S
H1210 C1207 0.999 . S
H1211 C1192 0.913 . S
H1212 C1230 0.951 . S
H1213 C1232 0.951 . S
H1214 C1234 0.950 . S
H1215 C1235 0.950 . S
H1216 C1237 0.950 . S
H1217 C1240 0.950 . S
H1218 C1241 0.950 . S
H1219 C1243 0.950 . S
H1220 C1244 0.950 . S
H1221 C1245 0.951 . S
H1222 C1247 0.951 . S
H1223 C1249 0.950 . S
H1224 C1250 0.950 . S
H1225 C1252 0.950 . S
H1226 C1255 0.950 . S
H1227 C1256 0.950 . S
H1228 C1258 0.950 . S
H1229 C1259 0.950 . S
C1230 H1212 0.951 . S
C1230 C1231 1.366 . S
C1230 C1232 1.388 . S
C1231 C1230 1.366 . S
C1231 C1235 1.385 . S
C1232 H1213 0.951 . S
C1232 C1230 1.388 . S
C1232 C1233 1.366 . S
C1233 C1232 1.366 . S
C1233 C1234 1.414 . S
C1233 C1236 1.499 . S
C1234 H1214 0.950 . S
C1234 C1233 1.414 . S
C1234 C1235 1.374 . S
C1235 H1215 0.950 . S
C1235 C1231 1.385 . S
C1235 C1234 1.374 . S
C1236 C1233 1.499 . S
C1236 C1237 1.373 . S
C1236 C1238 1.389 . S
C1237 H1216 0.950 . S
C1237 C1236 1.373 . S
C1237 C1253 1.377 . S
C1238 C1236 1.389 . S
C1238 C1239 1.524 . S
C1238 C1252 1.377 . S
C1239 C1238 1.524 . S
C1239 C1240 1.397 . S
C1239 C1244 1.363 . S
C1240 H1217 0.950 . S
C1240 C1239 1.397 . S
C1240 C1241 1.334 . S
C1241 H1218 0.950 . S
C1241 C1240 1.334 . S
C1241 C1242 1.287 . S
C1242 C1241 1.287 . S
C1242 C1243 1.524 . S
C1242 H1261 0.913 . S
C1243 H1219 0.950 . S
C1243 C1242 1.524 . S
C1243 C1244 1.415 . S
C1244 H1220 0.950 . S
C1244 C1239 1.363 . S
C1244 C1243 1.415 . S
C1245 H1221 0.951 . S
C1245 C1246 1.366 . S
C1245 C1247 1.388 . S
C1246 C1245 1.366 . S
C1246 C1250 1.385 . S
C1247 H1222 0.951 . S
C1247 C1245 1.388 . S
C1247 C1248 1.366 . S
C1248 C1247 1.366 . S
C1248 C1249 1.414 . S
C1248 C1251 1.499 . S
C1249 H1223 0.950 . S
C1249 C1248 1.414 . S
C1249 C1250 1.374 . S
C1250 H1224 0.950 . S
C1250 C1246 1.385 . S
C1250 C1249 1.374 . S
C1251 C1248 1.499 . S
C1251 C1252 1.373 . S
C1251 C1253 1.389 . S
C1252 H1225 0.950 . S
C1252 C1238 1.377 . S
C1252 C1251 1.373 . S
C1253 C1237 1.377 . S
C1253 C1251 1.389 . S
C1253 C1254 1.524 . S
C1254 C1253 1.524 . S
C1254 C1255 1.397 . S
C1254 C1259 1.363 . S
C1255 H1226 0.950 . S
C1255 C1254 1.397 . S
C1255 C1256 1.334 . S
C1256 H1227 0.950 . S
C1256 C1255 1.334 . S
C1256 C1257 1.287 . S
C1257 C1256 1.287 . S
C1257 C1258 1.524 . S
C1257 H1260 0.999 . S
C1258 H1228 0.950 . S
C1258 C1257 1.524 . S
C1258 C1259 1.415 . S
C1259 H1229 0.950 . S
C1259 C1254 1.363 . S
C1259 C1258 1.415 . S
H1260 C1257 0.999 . S
H1261 C1242 0.913 . S
H1262 C1280 0.951 . S
H1263 C1282 0.951 . S
H1264 C1284 0.950 . S
H1265 C1285 0.950 . S
H1266 C1287 0.950 . S
H1267 C1290 0.950 . S
H1268 C1291 0.950 . S
H1269 C1293 0.950 . S
H1270 C1294 0.950 . S
H1271 C1295 0.951 . S
H1272 C1297 0.951 . S
H1273 C1299 0.950 . S
H1274 C1300 0.950 . S
H1275 C1302 0.950 . S
H1276 C1305 0.950 . S
H1277 C1306 0.950 . S
H1278 C1308 0.950 . S
H1279 C1309 0.950 . S
C1280 H1262 0.951 . S
C1280 C1281 1.366 . S
C1280 C1282 1.388 . S
C1281 C1280 1.366 . S
C1281 C1285 1.385 . S
C1282 H1263 0.951 . S
C1282 C1280 1.388 . S
C1282 C1283 1.366 . S
C1283 C1282 1.366 . S
C1283 C1284 1.414 . S
C1283 C1286 1.499 . S
C1284 H1264 0.950 . S
C1284 C1283 1.414 . S
C1284 C1285 1.374 . S
C1285 H1265 0.950 . S
C1285 C1281 1.385 . S
C1285 C1284 1.374 . S
C1286 C1283 1.499 . S
C1286 C1287 1.373 . S
C1286 C1288 1.389 . S
C1287 H1266 0.950 . S
C1287 C1286 1.373 . S
C1287 C1303 1.377 . S
C1288 C1286 1.389 . S
C1288 C1289 1.524 . S
C1288 C1302 1.377 . S
C1289 C1288 1.524 . S
C1289 C1290 1.397 . S
C1289 C1294 1.363 . S
C1290 H1267 0.950 . S
C1290 C1289 1.397 . S
C1290 C1291 1.334 . S
C1291 H1268 0.950 . S
C1291 C1290 1.334 . S
C1291 C1292 1.287 . S
C1292 C1291 1.287 . S
C1292 C1293 1.524 . S
C1292 H1311 0.913 . S
C1293 H1269 0.950 . S
C1293 C1292 1.524 . S
C1293 C1294 1.415 . S
C1294 H1270 0.950 . S
C1294 C1289 1.363 . S
C1294 C1293 1.415 . S
C1295 H1271 0.951 . S
C1295 C1296 1.366 . S
C1295 C1297 1.388 . S
C1296 C1295 1.366 . S
C1296 C1300 1.385 . S
C1297 H1272 0.951 . S
C1297 C1295 1.388 . S
C1297 C1298 1.366 . S
C1298 C1297 1.366 . S
C1298 C1299 1.414 . S
C1298 C1301 1.499 . S
C1299 H1273 0.950 . S
C1299 C1298 1.414 . S
C1299 C1300 1.374 . S
C1300 H1274 0.950 . S
C1300 C1296 1.385 . S
C1300 C1299 1.374 . S
C1301 C1298 1.499 . S
C1301 C1302 1.373 . S
C1301 C1303 1.389 . S
C1302 H1275 0.950 . S
C1302 C1288 1.377 . S
C1302 C1301 1.373 . S
C1303 C1287 1.377 . S
C1303 C1301 1.389 . S
C1303 C1304 1.524 . S
C1304 C1303 1.524 . S
C1304 C1305 1.397 . S
C1304 C1309 1.363 . S
C1305 H1276 0.950 . S
C1305 C1304 1.397 . S
C1305 C1306 1.334 . S
C1306 H1277 0.950 . S
C1306 C1305 1.334 . S
C1306 C1307 1.287 . S
C1307 C1306 1.287 . S
C1307 C1308 1.524 . S
C1307 H1310 0.999 . S
C1308 H1278 0.950 . S
C1308 C1307 1.524 . S
C1308 C1309 1.415 . S
C1309 H1279 0.950 . S
C1309 C1304 1.363 . S
C1309 C1308 1.415 . S
H1310 C1307 0.999 . S
H1311 C1292 0.913 . S
H1312 C1330 0.951 . S
H1313 C1332 0.951 . S
H1314 C1334 0.950 . S
H1315 C1335 0.950 . S
H1316 C1337 0.950 . S
H1317 C1340 0.950 . S
H1318 C1341 0.950 . S
H1319 C1343 0.950 . S
H1320 C1344 0.950 . S
H1321 C1345 0.951 . S
H1322 C1347 0.951 . S
H1323 C1349 0.950 . S
H1324 C1350 0.950 . S
H1325 C1352 0.950 . S
H1326 C1355 0.950 . S
H1327 C1356 0.950 . S
H1328 C1358 0.950 . S
H1329 C1359 0.950 . S
C1330 H1312 0.951 . S
C1330 C1331 1.366 . S
C1330 C1332 1.388 . S
C1331 C1330 1.366 . S
C1331 C1335 1.385 . S
C1332 H1313 0.951 . S
C1332 C1330 1.388 . S
C1332 C1333 1.366 . S
C1333 C1332 1.366 . S
C1333 C1334 1.414 . S
C1333 C1336 1.499 . S
C1334 H1314 0.950 . S
C1334 C1333 1.414 . S
C1334 C1335 1.374 . S
C1335 H1315 0.950 . S
C1335 C1331 1.385 . S
C1335 C1334 1.374 . S
C1336 C1333 1.499 . S
C1336 C1337 1.373 . S
C1336 C1338 1.389 . S
C1337 H1316 0.950 . S
C1337 C1336 1.373 . S
C1337 C1353 1.377 . S
C1338 C1336 1.389 . S
C1338 C1339 1.524 . S
C1338 C1352 1.377 . S
C1339 C1338 1.524 . S
C1339 C1340 1.397 . S
C1339 C1344 1.363 . S
C1340 H1317 0.950 . S
C1340 C1339 1.397 . S
C1340 C1341 1.334 . S
C1341 H1318 0.950 . S
C1341 C1340 1.334 . S
C1341 C1342 1.287 . S
C1342 C1341 1.287 . S
C1342 C1343 1.524 . S
C1342 H1361 0.913 . S
C1343 H1319 0.950 . S
C1343 C1342 1.524 . S
C1343 C1344 1.415 . S
C1344 H1320 0.950 . S
C1344 C1339 1.363 . S
C1344 C1343 1.415 . S
C1345 H1321 0.951 . S
C1345 C1346 1.366 . S
C1345 C1347 1.388 . S
C1346 C1345 1.366 . S
C1346 C1350 1.385 . S
C1347 H1322 0.951 . S
C1347 C1345 1.388 . S
C1347 C1348 1.366 . S
C1348 C1347 1.366 . S
C1348 C1349 1.414 . S
C1348 C1351 1.499 . S
C1349 H1323 0.950 . S
C1349 C1348 1.414 . S
C1349 C1350 1.374 . S
C1350 H1324 0.950 . S
C1350 C1346 1.385 . S
C1350 C1349 1.374 . S
C1351 C1348 1.499 . S
C1351 C1352 1.373 . S
C1351 C1353 1.389 . S
C1352 H1325 0.950 . S
C1352 C1338 1.377 . S
C1352 C1351 1.373 . S
C1353 C1337 1.377 . S
C1353 C1351 1.389 . S
C1353 C1354 1.524 . S
C1354 C1353 1.524 . S
C1354 C1355 1.397 . S
C1354 C1359 1.363 . S
C1355 H1326 0.950 . S
C1355 C1354 1.397 . S
C1355 C1356 1.334 . S
C1356 H1327 0.950 . S
C1356 C1355 1.334 . S
C1356 C1357 1.287 . S
C1357 C1356 1.287 . S
C1357 C1358 1.524 . S
C1357 H1360 0.999 . S
C1358 H1328 0.950 . S
C1358 C1357 1.524 . S
C1358 C1359 1.415 . S
C1359 H1329 0.950 . S
C1359 C1354 1.363 . S
C1359 C1358 1.415 . S
H1360 C1357 0.999 . S
H1361 C1342 0.913 . S
H1362 C1380 0.951 . S
H1363 C1382 0.951 . S
H1364 C1384 0.950 . S
H1365 C1385 0.950 . S
H1366 C1387 0.950 . S
H1367 C1390 0.950 . S
H1368 C1391 0.950 . S
H1369 C1393 0.950 . S
H1370 C1394 0.950 . S
H1371 C1395 0.951 . S
H1372 C1397 0.951 . S
H1373 C1399 0.950 . S
H1374 C1400 0.950 . S
H1375 C1402 0.950 . S
H1376 C1405 0.950 . S
H1377 C1406 0.950 . S
H1378 C1408 0.950 . S
H1379 C1409 0.950 . S
C1380 H1362 0.951 . S
C1380 C1381 1.366 . S
C1380 C1382 1.388 . S
C1381 C1380 1.366 . S
C1381 C1385 1.385 . S
C1382 H1363 0.951 . S
C1382 C1380 1.388 . S
C1382 C1383 1.366 . S
C1383 C1382 1.366 . S
C1383 C1384 1.414 . S
C1383 C1386 1.499 . S
C1384 H1364 0.950 . S
C1384 C1383 1.414 . S
C1384 C1385 1.374 . S
C1385 H1365 0.950 . S
C1385 C1381 1.385 . S
C1385 C1384 1.374 . S
C1386 C1383 1.499 . S
C1386 C1387 1.373 . S
C1386 C1388 1.389 . S
C1387 H1366 0.950 . S
C1387 C1386 1.373 . S
C1387 C1403 1.377 . S
C1388 C1386 1.389 . S
C1388 C1389 1.524 . S
C1388 C1402 1.377 . S
C1389 C1388 1.524 . S
C1389 C1390 1.397 . S
C1389 C1394 1.363 . S
C1390 H1367 0.950 . S
C1390 C1389 1.397 . S
C1390 C1391 1.334 . S
C1391 H1368 0.950 . S
C1391 C1390 1.334 . S
C1391 C1392 1.287 . S
C1392 C1391 1.287 . S
C1392 C1393 1.524 . S
C1392 H1411 0.913 . S
C1393 H1369 0.950 . S
C1393 C1392 1.524 . S
C1393 C1394 1.415 . S
C1394 H1370 0.950 . S
C1394 C1389 1.363 . S
C1394 C1393 1.415 . S
C1395 H1371 0.951 . S
C1395 C1396 1.366 . S
C1395 C1397 1.388 . S
C1396 C1395 1.366 . S
C1396 C1400 1.385 . S
C1397 H1372 0.951 . S
C1397 C1395 1.388 . S
C1397 C1398 1.366 . S
C1398 C1397 1.366 . S
C1398 C1399 1.414 . S
C1398 C1401 1.499 . S
C1399 H1373 0.950 . S
C1399 C1398 1.414 . S
C1399 C1400 1.374 . S
C1400 H1374 0.950 . S
C1400 C1396 1.385 . S
C1400 C1399 1.374 . S
C1401 C1398 1.499 . S
C1401 C1402 1.373 . S
C1401 C1403 1.389 . S
C1402 H1375 0.950 . S
C1402 C1388 1.377 . S
C1402 C1401 1.373 . S
C1403 C1387 1.377 . S
C1403 C1401 1.389 . S
C1403 C1404 1.524 . S
C1404 C1403 1.524 . S
C1404 C1405 1.397 . S
C1404 C1409 1.363 . S
C1405 H1376 0.950 . S
C1405 C1404 1.397 . S
C1405 C1406 1.334 . S
C1406 H1377 0.950 . S
C1406 C1405 1.334 . S
C1406 C1407 1.287 . S
C1407 C1406 1.287 . S
C1407 C1408 1.524 . S
C1407 H1410 0.999 . S
C1408 H1378 0.950 . S
C1408 C1407 1.524 . S
C1408 C1409 1.415 . S
C1409 H1379 0.950 . S
C1409 C1404 1.363 . S
C1409 C1408 1.415 . S
H1410 C1407 0.999 . S
H1411 C1392 0.913 . S
H1412 C1430 0.951 . S
H1413 C1432 0.951 . S
H1414 C1434 0.950 . S
H1415 C1435 0.950 . S
H1416 C1437 0.950 . S
H1417 C1440 0.950 . S
H1418 C1441 0.950 . S
H1419 C1443 0.950 . S
H1420 C1444 0.950 . S
H1421 C1445 0.951 . S
H1422 C1447 0.951 . S
H1423 C1449 0.950 . S
H1424 C1450 0.950 . S
H1425 C1452 0.950 . S
H1426 C1455 0.950 . S
H1427 C1456 0.950 . S
H1428 C1458 0.950 . S
H1429 C1459 0.950 . S
C1430 H1412 0.951 . S
C1430 C1431 1.366 . S
C1430 C1432 1.388 . S
C1431 C1430 1.366 . S
C1431 C1435 1.385 . S
C1432 H1413 0.951 . S
C1432 C1430 1.388 . S
C1432 C1433 1.366 . S
C1433 C1432 1.366 . S
C1433 C1434 1.414 . S
C1433 C1436 1.499 . S
C1434 H1414 0.950 . S
C1434 C1433 1.414 . S
C1434 C1435 1.374 . S
C1435 H1415 0.950 . S
C1435 C1431 1.385 . S
C1435 C1434 1.374 . S
C1436 C1433 1.499 . S
C1436 C1437 1.373 . S
C1436 C1438 1.389 . S
C1437 H1416 0.950 . S
C1437 C1436 1.373 . S
C1437 C1453 1.377 . S
C1438 C1436 1.389 . S
C1438 C1439 1.524 . S
C1438 C1452 1.377 . S
C1439 C1438 1.524 . S
C1439 C1440 1.397 . S
C1439 C1444 1.363 . S
C1440 H1417 0.950 . S
C1440 C1439 1.397 . S
C1440 C1441 1.334 . S
C1441 H1418 0.950 . S
C1441 C1440 1.334 . S
C1441 C1442 1.287 . S
C1442 C1441 1.287 . S
C1442 C1443 1.524 . S
C1442 H1461 0.913 . S
C1443 H1419 0.950 . S
C1443 C1442 1.524 . S
C1443 C1444 1.415 . S
C1444 H1420 0.950 . S
C1444 C1439 1.363 . S
C1444 C1443 1.415 . S
C1445 H1421 0.951 . S
C1445 C1446 1.366 . S
C1445 C1447 1.388 . S
C1446 C1445 1.366 . S
C1446 C1450 1.385 . S
C1447 H1422 0.951 . S
C1447 C1445 1.388 . S
C1447 C1448 1.366 . S
C1448 C1447 1.366 . S
C1448 C1449 1.414 . S
C1448 C1451 1.499 . S
C1449 H1423 0.950 . S
C1449 C1448 1.414 . S
C1449 C1450 1.374 . S
C1450 H1424 0.950 . S
C1450 C1446 1.385 . S
C1450 C1449 1.374 . S
C1451 C1448 1.499 . S
C1451 C1452 1.373 . S
C1451 C1453 1.389 . S
C1452 H1425 0.950 . S
C1452 C1438 1.377 . S
C1452 C1451 1.373 . S
C1453 C1437 1.377 . S
C1453 C1451 1.389 . S
C1453 C1454 1.524 . S
C1454 C1453 1.524 . S
C1454 C1455 1.397 . S
C1454 C1459 1.363 . S
C1455 H1426 0.950 . S
C1455 C1454 1.397 . S
C1455 C1456 1.334 . S
C1456 H1427 0.950 . S
C1456 C1455 1.334 . S
C1456 C1457 1.287 . S
C1457 C1456 1.287 . S
C1457 C1458 1.524 . S
C1457 H1460 0.999 . S
C1458 H1428 0.950 . S
C1458 C1457 1.524 . S
C1458 C1459 1.415 . S
C1459 H1429 0.950 . S
C1459 C1454 1.363 . S
C1459 C1458 1.415 . S
H1460 C1457 0.999 . S
H1461 C1442 0.913 . S
H1462 C1480 0.951 . S
H1463 C1482 0.951 . S
H1464 C1484 0.950 . S
H1465 C1485 0.950 . S
H1466 C1487 0.950 . S
H1467 C1490 0.950 . S
H1468 C1491 0.950 . S
H1469 C1493 0.950 . S
H1470 C1494 0.950 . S
H1471 C1495 0.951 . S
H1472 C1497 0.951 . S
H1473 C1499 0.950 . S
H1474 C1500 0.950 . S
H1475 C1502 0.950 . S
H1476 C1505 0.950 . S
H1477 C1506 0.950 . S
H1478 C1508 0.950 . S
H1479 C1509 0.950 . S
C1480 H1462 0.951 . S
C1480 C1481 1.366 . S
C1480 C1482 1.388 . S
C1481 C1480 1.366 . S
C1481 C1485 1.385 . S
C1482 H1463 0.951 . S
C1482 C1480 1.388 . S
C1482 C1483 1.366 . S
C1483 C1482 1.366 . S
C1483 C1484 1.414 . S
C1483 C1486 1.499 . S
C1484 H1464 0.950 . S
C1484 C1483 1.414 . S
C1484 C1485 1.374 . S
C1485 H1465 0.950 . S
C1485 C1481 1.385 . S
C1485 C1484 1.374 . S
C1486 C1483 1.499 . S
C1486 C1487 1.373 . S
C1486 C1488 1.389 . S
C1487 H1466 0.950 . S
C1487 C1486 1.373 . S
C1487 C1503 1.377 . S
C1488 C1486 1.389 . S
C1488 C1489 1.524 . S
C1488 C1502 1.377 . S
C1489 C1488 1.524 . S
C1489 C1490 1.397 . S
C1489 C1494 1.363 . S
C1490 H1467 0.950 . S
C1490 C1489 1.397 . S
C1490 C1491 1.334 . S
C1491 H1468 0.950 . S
C1491 C1490 1.334 . S
C1491 C1492 1.287 . S
C1492 C1491 1.287 . S
C1492 C1493 1.524 . S
C1492 H1511 0.913 . S
C1493 H1469 0.950 . S
C1493 C1492 1.524 . S
C1493 C1494 1.415 . S
C1494 H1470 0.950 . S
C1494 C1489 1.363 . S
C1494 C1493 1.415 . S
C1495 H1471 0.951 . S
C1495 C1496 1.366 . S
C1495 C1497 1.388 . S
C1496 C1495 1.366 . S
C1496 C1500 1.385 . S
C1497 H1472 0.951 . S
C1497 C1495 1.388 . S
C1497 C1498 1.366 . S
C1498 C1497 1.366 . S
C1498 C1499 1.414 . S
C1498 C1501 1.499 . S
C1499 H1473 0.950 . S
C1499 C1498 1.414 . S
C1499 C1500 1.374 . S
C1500 H1474 0.950 . S
C1500 C1496 1.385 . S
C1500 C1499 1.374 . S
C1501 C1498 1.499 . S
C1501 C1502 1.373 . S
C1501 C1503 1.389 . S
C1502 H1475 0.950 . S
C1502 C1488 1.377 . S
C1502 C1501 1.373 . S
C1503 C1487 1.377 . S
C1503 C1501 1.389 . S
C1503 C1504 1.524 . S
C1504 C1503 1.524 . S
C1504 C1505 1.397 . S
C1504 C1509 1.363 . S
C1505 H1476 0.950 . S
C1505 C1504 1.397 . S
C1505 C1506 1.334 . S
C1506 H1477 0.950 . S
C1506 C1505 1.334 . S
C1506 C1507 1.287 . S
C1507 C1506 1.287 . S
C1507 C1508 1.524 . S
C1507 H1510 0.999 . S
C1508 H1478 0.950 . S
C1508 C1507 1.524 . S
C1508 C1509 1.415 . S
C1509 H1479 0.950 . S
C1509 C1504 1.363 . S
C1509 C1508 1.415 . S
H1510 C1507 0.999 . S
H1511 C1492 0.913 . S
H1512 C1530 0.951 . S
H1513 C1532 0.951 . S
H1514 C1534 0.950 . S
H1515 C1535 0.950 . S
H1516 C1537 0.950 . S
H1517 C1540 0.950 . S
H1518 C1541 0.950 . S
H1519 C1543 0.950 . S
H1520 C1544 0.950 . S
H1521 C1545 0.951 . S
H1522 C1547 0.951 . S
H1523 C1549 0.950 . S
H1524 C1550 0.950 . S
H1525 C1552 0.950 . S
H1526 C1555 0.950 . S
H1527 C1556 0.950 . S
H1528 C1558 0.950 . S
H1529 C1559 0.950 . S
C1530 H1512 0.951 . S
C1530 C1531 1.366 . S
C1530 C1532 1.388 . S
C1531 C1530 1.366 . S
C1531 C1535 1.385 . S
C1532 H1513 0.951 . S
C1532 C1530 1.388 . S
C1532 C1533 1.366 . S
C1533 C1532 1.366 . S
C1533 C1534 1.414 . S
C1533 C1536 1.499 . S
C1534 H1514 0.950 . S
C1534 C1533 1.414 . S
C1534 C1535 1.374 . S
C1535 H1515 0.950 . S
C1535 C1531 1.385 . S
C1535 C1534 1.374 . S
C1536 C1533 1.499 . S
C1536 C1537 1.373 . S
C1536 C1538 1.389 . S
C1537 H1516 0.950 . S
C1537 C1536 1.373 . S
C1537 C1553 1.377 1_455 S
C1538 C1536 1.389 . S
C1538 C1539 1.524 . S
C1538 C1552 1.377 1_455 S
C1539 C1538 1.524 . S
C1539 C1540 1.397 . S
C1539 C1544 1.363 . S
C1540 H1517 0.950 . S
C1540 C1539 1.397 . S
C1540 C1541 1.334 . S
C1541 H1518 0.950 . S
C1541 C1540 1.334 . S
C1541 C1542 1.287 . S
C1542 C1541 1.287 . S
C1542 C1543 1.524 . S
C1542 H1561 0.913 . S
C1543 H1519 0.950 . S
C1543 C1542 1.524 . S
C1543 C1544 1.415 . S
C1544 H1520 0.950 . S
C1544 C1539 1.363 . S
C1544 C1543 1.415 . S
C1545 H1521 0.951 . S
C1545 C1546 1.366 . S
C1545 C1547 1.388 . S
C1546 C1545 1.366 . S
C1546 C1550 1.385 . S
C1547 H1522 0.951 . S
C1547 C1545 1.388 . S
C1547 C1548 1.366 . S
C1548 C1547 1.366 . S
C1548 C1549 1.414 . S
C1548 C1551 1.499 . S
C1549 H1523 0.950 . S
C1549 C1548 1.414 . S
C1549 C1550 1.374 . S
C1550 H1524 0.950 . S
C1550 C1546 1.385 . S
C1550 C1549 1.374 . S
C1551 C1548 1.499 . S
C1551 C1552 1.373 . S
C1551 C1553 1.389 . S
C1552 H1525 0.950 . S
C1552 C1538 1.377 1_655 S
C1552 C1551 1.373 . S
C1553 C1537 1.377 1_655 S
C1553 C1551 1.389 . S
C1553 C1554 1.524 . S
C1554 C1553 1.524 . S
C1554 C1555 1.397 . S
C1554 C1559 1.363 . S
C1555 H1526 0.950 . S
C1555 C1554 1.397 . S
C1555 C1556 1.334 . S
C1556 H1527 0.950 . S
C1556 C1555 1.334 . S
C1556 C1557 1.287 . S
C1557 C1556 1.287 . S
C1557 C1558 1.524 . S
C1557 H1560 0.999 . S
C1558 H1528 0.950 . S
C1558 C1557 1.524 . S
C1558 C1559 1.415 . S
C1559 H1529 0.950 . S
C1559 C1554 1.363 . S
C1559 C1558 1.415 . S
H1560 C1557 0.999 . S
H1561 C1542 0.913 . S
H1562 C1580 0.951 . S
H1563 C1582 0.951 . S
H1564 C1584 0.950 . S
H1565 C1585 0.950 . S
H1566 C1587 0.950 . S
H1567 C1590 0.950 . S
H1568 C1591 0.950 . S
H1569 C1593 0.950 . S
H1570 C1594 0.950 . S
H1571 C1595 0.951 . S
H1572 C1597 0.951 . S
H1573 C1599 0.950 . S
H1574 C1600 0.950 . S
H1575 C1602 0.950 . S
H1576 C1605 0.950 . S
H1577 C1606 0.950 . S
H1578 C1608 0.950 . S
H1579 C1609 0.950 . S
C1580 H1562 0.951 . S
C1580 C1581 1.366 . S
C1580 C1582 1.388 . S
C1581 C1580 1.366 . S
C1581 C1585 1.385 . S
C1582 H1563 0.951 . S
C1582 C1580 1.388 . S
C1582 C1583 1.366 . S
C1583 C1582 1.366 . S
C1583 C1584 1.414 . S
C1583 C1586 1.499 . S
C1584 H1564 0.950 . S
C1584 C1583 1.414 . S
C1584 C1585 1.374 . S
C1585 H1565 0.950 . S
C1585 C1581 1.385 . S
C1585 C1584 1.374 . S
C1586 C1583 1.499 . S
C1586 C1587 1.373 . S
C1586 C1588 1.389 . S
C1587 H1566 0.950 . S
C1587 C1586 1.373 . S
C1587 C1603 1.377 1_545 S
C1588 C1586 1.389 . S
C1588 C1589 1.524 . S
C1588 C1602 1.377 1_545 S
C1589 C1588 1.524 . S
C1589 C1590 1.397 . S
C1589 C1594 1.363 . S
C1590 H1567 0.950 . S
C1590 C1589 1.397 . S
C1590 C1591 1.334 . S
C1591 H1568 0.950 . S
C1591 C1590 1.334 . S
C1591 C1592 1.287 . S
C1592 C1591 1.287 . S
C1592 C1593 1.524 . S
C1592 H1611 0.913 . S
C1593 H1569 0.950 . S
C1593 C1592 1.524 . S
C1593 C1594 1.415 . S
C1594 H1570 0.950 . S
C1594 C1589 1.363 . S
C1594 C1593 1.415 . S
C1595 H1571 0.951 . S
C1595 C1596 1.366 . S
C1595 C1597 1.388 . S
C1596 C1595 1.366 . S
C1596 C1600 1.385 . S
C1597 H1572 0.951 . S
C1597 C1595 1.388 . S
C1597 C1598 1.366 . S
C1598 C1597 1.366 . S
C1598 C1599 1.414 . S
C1598 C1601 1.499 . S
C1599 H1573 0.950 . S
C1599 C1598 1.414 . S
C1599 C1600 1.374 . S
C1600 H1574 0.950 . S
C1600 C1596 1.385 . S
C1600 C1599 1.374 . S
C1601 C1598 1.499 . S
C1601 C1602 1.373 . S
C1601 C1603 1.389 . S
C1602 H1575 0.950 . S
C1602 C1588 1.377 1_565 S
C1602 C1601 1.373 . S
C1603 C1587 1.377 1_565 S
C1603 C1601 1.389 . S
C1603 C1604 1.524 . S
C1604 C1603 1.524 . S
C1604 C1605 1.397 . S
C1604 C1609 1.363 . S
C1605 H1576 0.950 . S
C1605 C1604 1.397 . S
C1605 C1606 1.334 . S
C1606 H1577 0.950 . S
C1606 C1605 1.334 . S
C1606 C1607 1.287 . S
C1607 C1606 1.287 . S
C1607 C1608 1.524 . S
C1607 H1610 0.999 . S
C1608 H1578 0.950 . S
C1608 C1607 1.524 . S
C1608 C1609 1.415 . S
C1609 H1579 0.950 . S
C1609 C1604 1.363 . S
C1609 C1608 1.415 . S
H1610 C1607 0.999 . S
H1611 C1592 0.913 . S
H1612 C1630 0.951 . S
H1613 C1632 0.951 . S
H1614 C1634 0.950 . S
H1615 C1635 0.950 . S
H1616 C1637 0.950 . S
H1617 C1640 0.950 . S
H1618 C1641 0.950 . S
H1619 C1643 0.950 . S
H1620 C1644 0.950 . S
H1621 C1645 0.951 . S
H1622 C1647 0.951 . S
H1623 C1649 0.950 . S
H1624 C1650 0.950 . S
H1625 C1652 0.950 . S
H1626 C1655 0.950 . S
H1627 C1656 0.950 . S
H1628 C1658 0.950 . S
H1629 C1659 0.950 . S
C1630 H1612 0.951 . S
C1630 C1631 1.366 . S
C1630 C1632 1.388 . S
C1631 C1630 1.366 . S
C1631 C1635 1.385 . S
C1632 H1613 0.951 . S
C1632 C1630 1.388 . S
C1632 C1633 1.366 . S
C1633 C1632 1.366 . S
C1633 C1634 1.414 . S
C1633 C1636 1.499 . S
C1634 H1614 0.950 . S
C1634 C1633 1.414 . S
C1634 C1635 1.374 . S
C1635 H1615 0.950 . S
C1635 C1631 1.385 . S
C1635 C1634 1.374 . S
C1636 C1633 1.499 . S
C1636 C1637 1.373 . S
C1636 C1638 1.389 . S
C1637 H1616 0.950 . S
C1637 C1636 1.373 . S
C1637 C1653 1.377 1_655 S
C1638 C1636 1.389 . S
C1638 C1639 1.524 . S
C1638 C1652 1.377 1_655 S
C1639 C1638 1.524 . S
C1639 C1640 1.397 . S
C1639 C1644 1.363 . S
C1640 H1617 0.950 . S
C1640 C1639 1.397 . S
C1640 C1641 1.334 . S
C1641 H1618 0.950 . S
C1641 C1640 1.334 . S
C1641 C1642 1.287 . S
C1642 C1641 1.287 . S
C1642 C1643 1.524 . S
C1642 H1661 0.913 . S
C1643 H1619 0.950 . S
C1643 C1642 1.524 . S
C1643 C1644 1.415 . S
C1644 H1620 0.950 . S
C1644 C1639 1.363 . S
C1644 C1643 1.415 . S
C1645 H1621 0.951 . S
C1645 C1646 1.366 . S
C1645 C1647 1.388 . S
C1646 C1645 1.366 . S
C1646 C1650 1.385 . S
C1647 H1622 0.951 . S
C1647 C1645 1.388 . S
C1647 C1648 1.366 . S
C1648 C1647 1.366 . S
C1648 C1649 1.414 . S
C1648 C1651 1.499 . S
C1649 H1623 0.950 . S
C1649 C1648 1.414 . S
C1649 C1650 1.374 . S
C1650 H1624 0.950 . S
C1650 C1646 1.385 . S
C1650 C1649 1.374 . S
C1651 C1648 1.499 . S
C1651 C1652 1.373 . S
C1651 C1653 1.389 . S
C1652 H1625 0.950 . S
C1652 C1638 1.377 1_455 S
C1652 C1651 1.373 . S
C1653 C1637 1.377 1_455 S
C1653 C1651 1.389 . S
C1653 C1654 1.524 . S
C1654 C1653 1.524 . S
C1654 C1655 1.397 . S
C1654 C1659 1.363 . S
C1655 H1626 0.950 . S
C1655 C1654 1.397 . S
C1655 C1656 1.334 . S
C1656 H1627 0.950 . S
C1656 C1655 1.334 . S
C1656 C1657 1.287 . S
C1657 C1656 1.287 . S
C1657 C1658 1.524 . S
C1657 H1660 0.999 . S
C1658 H1628 0.950 . S
C1658 C1657 1.524 . S
C1658 C1659 1.415 . S
C1659 H1629 0.950 . S
C1659 C1654 1.363 . S
C1659 C1658 1.415 . S
H1660 C1657 0.999 . S
H1661 C1642 0.913 . S
H1662 C1680 0.951 . S
H1663 C1682 0.951 . S
H1664 C1684 0.950 . S
H1665 C1685 0.950 . S
H1666 C1687 0.950 . S
H1667 C1690 0.950 . S
H1668 C1691 0.950 . S
H1669 C1693 0.950 . S
H1670 C1694 0.950 . S
H1671 C1695 0.951 . S
H1672 C1697 0.951 . S
H1673 C1699 0.950 . S
H1674 C1700 0.950 . S
H1675 C1702 0.950 . S
H1676 C1705 0.950 . S
H1677 C1706 0.950 . S
H1678 C1708 0.950 . S
H1679 C1709 0.950 . S
C1680 H1662 0.951 . S
C1680 C1681 1.366 . S
C1680 C1682 1.388 . S
C1681 C1680 1.366 . S
C1681 C1685 1.385 . S
C1682 H1663 0.951 . S
C1682 C1680 1.388 . S
C1682 C1683 1.366 . S
C1683 C1682 1.366 . S
C1683 C1684 1.414 . S
C1683 C1686 1.499 . S
C1684 H1664 0.950 . S
C1684 C1683 1.414 . S
C1684 C1685 1.374 . S
C1685 H1665 0.950 . S
C1685 C1681 1.385 . S
C1685 C1684 1.374 . S
C1686 C1683 1.499 . S
C1686 C1687 1.373 . S
C1686 C1688 1.389 . S
C1687 H1666 0.950 . S
C1687 C1686 1.373 . S
C1687 C1703 1.377 1_545 S
C1688 C1686 1.389 . S
C1688 C1689 1.524 . S
C1688 C1702 1.377 1_545 S
C1689 C1688 1.524 . S
C1689 C1690 1.397 . S
C1689 C1694 1.363 . S
C1690 H1667 0.950 . S
C1690 C1689 1.397 . S
C1690 C1691 1.334 . S
C1691 H1668 0.950 . S
C1691 C1690 1.334 . S
C1691 C1692 1.287 . S
C1692 C1691 1.287 . S
C1692 C1693 1.524 . S
C1692 H1711 0.913 . S
C1693 H1669 0.950 . S
C1693 C1692 1.524 . S
C1693 C1694 1.415 . S
C1694 H1670 0.950 . S
C1694 C1689 1.363 . S
C1694 C1693 1.415 . S
C1695 H1671 0.951 . S
C1695 C1696 1.366 . S
C1695 C1697 1.388 . S
C1696 C1695 1.366 . S
C1696 C1700 1.385 . S
C1697 H1672 0.951 . S
C1697 C1695 1.388 . S
C1697 C1698 1.366 . S
C1698 C1697 1.366 . S
C1698 C1699 1.414 . S
C1698 C1701 1.499 . S
C1699 H1673 0.950 . S
C1699 C1698 1.414 . S
C1699 C1700 1.374 . S
C1700 H1674 0.950 . S
C1700 C1696 1.385 . S
C1700 C1699 1.374 . S
C1701 C1698 1.499 . S
C1701 C1702 1.373 . S
C1701 C1703 1.389 . S
C1702 H1675 0.950 . S
C1702 C1688 1.377 1_565 S
C1702 C1701 1.373 . S
C1703 C1687 1.377 1_565 S
C1703 C1701 1.389 . S
C1703 C1704 1.524 . S
C1704 C1703 1.524 . S
C1704 C1705 1.397 . S
C1704 C1709 1.363 . S
C1705 H1676 0.950 . S
C1705 C1704 1.397 . S
C1705 C1706 1.334 . S
C1706 H1677 0.950 . S
C1706 C1705 1.334 . S
C1706 C1707 1.287 . S
C1707 C1706 1.287 . S
C1707 C1708 1.524 . S
C1707 H1710 0.999 . S
C1708 H1678 0.950 . S
C1708 C1707 1.524 . S
C1708 C1709 1.415 . S
C1709 H1679 0.950 . S
C1709 C1704 1.363 . S
C1709 C1708 1.415 . S
H1710 C1707 0.999 . S
H1711 C1692 0.913 . S
H1712 C1730 0.951 . S
H1713 C1732 0.951 . S
H1714 C1734 0.950 . S
H1715 C1735 0.950 . S
H1716 C1737 0.950 . S
H1717 C1740 0.950 . S
H1718 C1741 0.950 . S
H1719 C1743 0.950 . S
H1720 C1744 0.941 1_545 S
H1721 C1745 0.951 . S
H1722 C1747 0.951 . S
H1723 C1749 0.950 . S
H1724 C1750 0.950 . S
H1725 C1752 0.950 . S
H1726 C1755 0.950 . S
H1727 C1756 0.950 . S
H1728 C1758 0.950 . S
H1729 C1759 0.941 1_565 S
C1730 H1712 0.951 . S
C1730 C1731 1.366 . S
C1730 C1732 1.388 . S
C1731 C1730 1.366 . S
C1731 C1735 1.385 . S
C1732 H1713 0.951 . S
C1732 C1730 1.388 . S
C1732 C1733 1.366 . S
C1733 C1732 1.366 . S
C1733 C1734 1.414 . S
C1733 C1736 1.499 . S
C1734 H1714 0.950 . S
C1734 C1733 1.414 . S
C1734 C1735 1.374 . S
C1735 H1715 0.950 . S
C1735 C1731 1.385 . S
C1735 C1734 1.374 . S
C1736 C1733 1.499 . S
C1736 C1737 1.373 . S
C1736 C1738 1.389 . S
C1737 H1716 0.950 . S
C1737 C1736 1.373 . S
C1737 C1753 1.377 1_565 S
C1738 C1736 1.389 . S
C1738 C1739 1.524 . S
C1738 C1752 1.377 1_565 S
C1739 C1738 1.524 . S
C1739 C1740 1.397 . S
C1739 C1744 1.363 . S
C1740 H1717 0.950 . S
C1740 C1739 1.397 . S
C1740 C1741 1.334 . S
C1741 H1718 0.950 . S
C1741 C1740 1.334 . S
C1741 C1742 1.287 . S
C1742 C1741 1.287 . S
C1742 C1743 1.524 . S
C1742 H1761 0.913 . S
C1743 H1719 0.950 . S
C1743 C1742 1.524 . S
C1743 C1744 1.415 . S
C1744 H1720 0.941 1_565 S
C1744 C1739 1.363 . S
C1744 C1743 1.415 . S
C1745 H1721 0.951 . S
C1745 C1746 1.366 . S
C1745 C1747 1.388 . S
C1746 C1745 1.366 . S
C1746 C1750 1.385 . S
C1747 H1722 0.951 . S
C1747 C1745 1.388 . S
C1747 C1748 1.366 . S
C1748 C1747 1.366 . S
C1748 C1749 1.414 . S
C1748 C1751 1.499 . S
C1749 H1723 0.950 . S
C1749 C1748 1.414 . S
C1749 C1750 1.374 . S
C1750 H1724 0.950 . S
C1750 C1746 1.385 . S
C1750 C1749 1.374 . S
C1751 C1748 1.499 . S
C1751 C1752 1.373 . S
C1751 C1753 1.389 . S
C1752 H1725 0.950 . S
C1752 C1738 1.377 1_545 S
C1752 C1751 1.373 . S
C1753 C1737 1.377 1_545 S
C1753 C1751 1.389 . S
C1753 C1754 1.524 . S
C1754 C1753 1.524 . S
C1754 C1755 1.397 . S
C1754 C1759 1.363 . S
C1755 H1726 0.950 . S
C1755 C1754 1.397 . S
C1755 C1756 1.334 . S
C1756 H1727 0.950 . S
C1756 C1755 1.334 . S
C1756 C1757 1.287 . S
C1757 C1756 1.287 . S
C1757 C1758 1.524 . S
C1757 H1760 0.999 . S
C1758 H1728 0.950 . S
C1758 C1757 1.524 . S
C1758 C1759 1.415 . S
C1759 H1729 0.941 1_545 S
C1759 C1754 1.363 . S
C1759 C1758 1.415 . S
H1760 C1757 0.999 . S
H1761 C1742 0.913 . S
H1762 C1780 0.951 . S
H1763 C1782 0.951 . S
H1764 C1784 0.950 . S
H1765 C1785 0.950 . S
H1766 C1787 0.950 . S
H1767 C1790 0.950 . S
H1768 C1791 0.950 . S
H1769 C1793 0.950 . S
H1770 C1794 0.950 . S
H1771 C1795 0.951 . S
H1772 C1797 0.951 . S
H1773 C1799 0.950 . S
H1774 C1800 0.950 . S
H1775 C1802 0.950 . S
H1776 C1805 0.950 . S
H1777 C1806 0.950 . S
H1778 C1808 0.950 . S
H1779 C1809 0.950 . S
C1780 H1762 0.951 . S
C1780 C1781 1.366 . S
C1780 C1782 1.388 . S
C1781 C1780 1.366 . S
C1781 C1785 1.385 . S
C1782 H1763 0.951 . S
C1782 C1780 1.388 . S
C1782 C1783 1.366 . S
C1783 C1782 1.366 . S
C1783 C1784 1.414 . S
C1783 C1786 1.499 . S
C1784 H1764 0.950 . S
C1784 C1783 1.414 . S
C1784 C1785 1.374 . S
C1785 H1765 0.950 . S
C1785 C1781 1.385 . S
C1785 C1784 1.374 . S
C1786 C1783 1.499 . S
C1786 C1787 1.373 . S
C1786 C1788 1.389 . S
C1787 H1766 0.950 . S
C1787 C1786 1.373 . S
C1787 C1803 1.377 1_655 S
C1788 C1786 1.389 . S
C1788 C1789 1.524 . S
C1788 C1802 1.377 1_655 S
C1789 C1788 1.524 . S
C1789 C1790 1.397 . S
C1789 C1794 1.363 . S
C1790 H1767 0.950 . S
C1790 C1789 1.397 . S
C1790 C1791 1.334 . S
C1791 H1768 0.950 . S
C1791 C1790 1.334 . S
C1791 C1792 1.287 . S
C1792 C1791 1.287 . S
C1792 C1793 1.524 . S
C1792 H1811 0.913 . S
C1793 H1769 0.950 . S
C1793 C1792 1.524 . S
C1793 C1794 1.415 . S
C1794 H1770 0.950 . S
C1794 C1789 1.363 . S
C1794 C1793 1.415 . S
C1795 H1771 0.951 . S
C1795 C1796 1.366 . S
C1795 C1797 1.388 . S
C1796 C1795 1.366 . S
C1796 C1800 1.385 . S
C1797 H1772 0.951 . S
C1797 C1795 1.388 . S
C1797 C1798 1.366 . S
C1798 C1797 1.366 . S
C1798 C1799 1.414 . S
C1798 C1801 1.499 . S
C1799 H1773 0.950 . S
C1799 C1798 1.414 . S
C1799 C1800 1.374 . S
C1800 H1774 0.950 . S
C1800 C1796 1.385 . S
C1800 C1799 1.374 . S
C1801 C1798 1.499 . S
C1801 C1802 1.373 . S
C1801 C1803 1.389 . S
C1802 H1775 0.950 . S
C1802 C1788 1.377 1_455 S
C1802 C1801 1.373 . S
C1803 C1787 1.377 1_455 S
C1803 C1801 1.389 . S
C1803 C1804 1.524 . S
C1804 C1803 1.524 . S
C1804 C1805 1.397 . S
C1804 C1809 1.363 . S
C1805 H1776 0.950 . S
C1805 C1804 1.397 . S
C1805 C1806 1.334 . S
C1806 H1777 0.950 . S
C1806 C1805 1.334 . S
C1806 C1807 1.287 . S
C1807 C1806 1.287 . S
C1807 C1808 1.524 . S
C1807 H1810 0.999 . S
C1808 H1778 0.950 . S
C1808 C1807 1.524 . S
C1808 C1809 1.415 . S
C1809 H1779 0.950 . S
C1809 C1804 1.363 . S
C1809 C1808 1.415 . S
H1810 C1807 0.999 . S
H1811 C1792 0.913 . S
H1812 C1830 0.951 . S
H1813 C1832 0.951 . S
H1814 C1834 0.950 . S
H1815 C1835 0.950 . S
H1816 C1837 0.950 . S
H1817 C1840 0.950 . S
H1818 C1841 0.950 . S
H1819 C1843 0.950 . S
H1820 C1844 0.950 . S
H1821 C1845 0.951 . S
H1822 C1847 0.951 . S
H1823 C1849 0.950 . S
H1824 C1850 0.950 . S
H1825 C1852 0.950 . S
H1826 C1855 0.950 . S
H1827 C1856 0.950 . S
H1828 C1858 0.950 . S
H1829 C1859 0.950 . S
C1830 H1812 0.951 . S
C1830 C1831 1.366 . S
C1830 C1832 1.388 . S
C1831 C1830 1.366 . S
C1831 C1835 1.385 . S
C1832 H1813 0.951 . S
C1832 C1830 1.388 . S
C1832 C1833 1.366 . S
C1833 C1832 1.366 . S
C1833 C1834 1.414 . S
C1833 C1836 1.499 . S
C1834 H1814 0.950 . S
C1834 C1833 1.414 . S
C1834 C1835 1.374 . S
C1835 H1815 0.950 . S
C1835 C1831 1.385 . S
C1835 C1834 1.374 . S
C1836 C1833 1.499 . S
C1836 C1837 1.373 . S
C1836 C1838 1.389 . S
C1837 H1816 0.950 . S
C1837 C1836 1.373 . S
C1837 C1853 1.377 1_565 S
C1838 C1836 1.389 . S
C1838 C1839 1.524 . S
C1838 C1852 1.377 1_565 S
C1839 C1838 1.524 . S
C1839 C1840 1.397 . S
C1839 C1844 1.363 . S
C1840 H1817 0.950 . S
C1840 C1839 1.397 . S
C1840 C1841 1.334 . S
C1841 H1818 0.950 . S
C1841 C1840 1.334 . S
C1841 C1842 1.287 . S
C1842 C1841 1.287 . S
C1842 C1843 1.524 . S
C1842 H1861 0.913 . S
C1843 H1819 0.950 . S
C1843 C1842 1.524 . S
C1843 C1844 1.415 . S
C1844 H1820 0.950 . S
C1844 C1839 1.363 . S
C1844 C1843 1.415 . S
C1845 H1821 0.951 . S
C1845 C1846 1.366 . S
C1845 C1847 1.388 . S
C1846 C1845 1.366 . S
C1846 C1850 1.385 . S
C1847 H1822 0.951 . S
C1847 C1845 1.388 . S
C1847 C1848 1.366 . S
C1848 C1847 1.366 . S
C1848 C1849 1.414 . S
C1848 C1851 1.499 . S
C1849 H1823 0.950 . S
C1849 C1848 1.414 . S
C1849 C1850 1.374 . S
C1850 H1824 0.950 . S
C1850 C1846 1.385 . S
C1850 C1849 1.374 . S
C1851 C1848 1.499 . S
C1851 C1852 1.373 . S
C1851 C1853 1.389 . S
C1852 H1825 0.950 . S
C1852 C1838 1.377 1_545 S
C1852 C1851 1.373 . S
C1853 C1837 1.377 1_545 S
C1853 C1851 1.389 . S
C1853 C1854 1.524 . S
C1854 C1853 1.524 . S
C1854 C1855 1.397 . S
C1854 C1859 1.363 . S
C1855 H1826 0.950 . S
C1855 C1854 1.397 . S
C1855 C1856 1.334 . S
C1856 H1827 0.950 . S
C1856 C1855 1.334 . S
C1856 C1857 1.287 . S
C1857 C1856 1.287 . S
C1857 C1858 1.524 . S
C1857 H1860 0.999 . S
C1858 H1828 0.950 . S
C1858 C1857 1.524 . S
C1858 C1859 1.415 . S
C1859 H1829 0.950 . S
C1859 C1854 1.363 . S
C1859 C1858 1.415 . S
H1860 C1857 0.999 . S
H1861 C1842 0.913 . S
H1862 C1880 0.951 . S
H1863 C1882 0.951 . S
H1864 C1884 0.950 . S
H1865 C1885 0.950 . S
H1866 C1887 0.950 . S
H1867 C1890 0.950 . S
H1868 C1891 0.950 . S
H1869 C1893 0.950 . S
H1870 C1894 0.950 . S
H1871 C1895 0.951 . S
H1872 C1897 0.951 . S
H1873 C1899 0.950 . S
H1874 C1900 0.950 . S
H1875 C1902 0.950 . S
H1876 C1905 0.950 . S
H1877 C1906 0.950 . S
H1878 C1908 0.950 . S
H1879 C1909 0.950 . S
C1880 H1862 0.951 . S
C1880 C1881 1.366 . S
C1880 C1882 1.388 . S
C1881 C1880 1.366 . S
C1881 C1885 1.385 . S
C1882 H1863 0.951 . S
C1882 C1880 1.388 . S
C1882 C1883 1.366 . S
C1883 C1882 1.366 . S
C1883 C1884 1.414 . S
C1883 C1886 1.499 . S
C1884 H1864 0.950 . S
C1884 C1883 1.414 . S
C1884 C1885 1.374 . S
C1885 H1865 0.950 . S
C1885 C1881 1.385 . S
C1885 C1884 1.374 . S
C1886 C1883 1.499 . S
C1886 C1887 1.373 . S
C1886 C1888 1.389 . S
C1887 H1866 0.950 . S
C1887 C1886 1.373 . S
C1887 C1903 1.377 1_655 S
C1888 C1886 1.389 . S
C1888 C1889 1.524 . S
C1888 C1902 1.377 1_655 S
C1889 C1888 1.524 . S
C1889 C1890 1.397 . S
C1889 C1894 1.363 . S
C1890 H1867 0.950 . S
C1890 C1889 1.397 . S
C1890 C1891 1.334 . S
C1891 H1868 0.950 . S
C1891 C1890 1.334 . S
C1891 C1892 1.287 . S
C1892 C1891 1.287 . S
C1892 C1893 1.524 . S
C1892 H1911 0.913 . S
C1893 H1869 0.950 . S
C1893 C1892 1.524 . S
C1893 C1894 1.415 . S
C1894 H1870 0.950 . S
C1894 C1889 1.363 . S
C1894 C1893 1.415 . S
C1895 H1871 0.951 . S
C1895 C1896 1.366 . S
C1895 C1897 1.388 . S
C1896 C1895 1.366 . S
C1896 C1900 1.385 . S
C1897 H1872 0.951 . S
C1897 C1895 1.388 . S
C1897 C1898 1.366 . S
C1898 C1897 1.366 . S
C1898 C1899 1.414 . S
C1898 C1901 1.499 . S
C1899 H1873 0.950 . S
C1899 C1898 1.414 . S
C1899 C1900 1.374 . S
C1900 H1874 0.950 . S
C1900 C1896 1.385 . S
C1900 C1899 1.374 . S
C1901 C1898 1.499 . S
C1901 C1902 1.373 . S
C1901 C1903 1.389 . S
C1902 H1875 0.950 . S
C1902 C1888 1.377 1_455 S
C1902 C1901 1.373 . S
C1903 C1887 1.377 1_455 S
C1903 C1901 1.389 . S
C1903 C1904 1.524 . S
C1904 C1903 1.524 . S
C1904 C1905 1.397 . S
C1904 C1909 1.363 . S
C1905 H1876 0.950 . S
C1905 C1904 1.397 . S
C1905 C1906 1.334 . S
C1906 H1877 0.950 . S
C1906 C1905 1.334 . S
C1906 C1907 1.287 . S
C1907 C1906 1.287 . S
C1907 C1908 1.524 . S
C1907 H1910 0.999 . S
C1908 H1878 0.950 . S
C1908 C1907 1.524 . S
C1908 C1909 1.415 . S
C1909 H1879 0.950 . S
C1909 C1904 1.363 . S
C1909 C1908 1.415 . S
H1910 C1907 0.999 . S
H1911 C1892 0.913 . S
H1912 C1930 0.951 . S
H1913 C1932 0.951 . S
H1914 C1934 0.950 . S
H1915 C1935 0.950 . S
H1916 C1937 0.950 . S
H1917 C1940 0.950 . S
H1918 C1941 0.950 . S
H1919 C1943 0.950 . S
H1920 C1944 0.916 1_554 S
H1921 C1945 0.951 . S
H1922 C1947 0.951 . S
H1923 C1949 0.950 . S
H1924 C1950 0.950 . S
H1925 C1952 0.950 . S
H1926 C1955 0.950 . S
H1927 C1956 0.950 . S
H1928 C1958 0.950 . S
H1929 C1959 0.916 1_556 S
C1930 H1912 0.951 . S
C1930 C1931 1.366 . S
C1930 C1932 1.388 . S
C1931 C1930 1.366 . S
C1931 C1935 1.385 . S
C1932 H1913 0.951 . S
C1932 C1930 1.388 . S
C1932 C1933 1.366 . S
C1933 C1932 1.366 . S
C1933 C1934 1.414 . S
C1933 C1936 1.499 . S
C1934 H1914 0.950 . S
C1934 C1933 1.414 . S
C1934 C1935 1.374 . S
C1935 H1915 0.950 . S
C1935 C1931 1.385 . S
C1935 C1934 1.374 . S
C1936 C1933 1.499 . S
C1936 C1937 1.373 . S
C1936 C1938 1.389 . S
C1937 H1916 0.950 . S
C1937 C1936 1.373 . S
C1937 C1953 1.377 1_556 S
C1938 C1936 1.389 . S
C1938 C1939 1.524 . S
C1938 C1952 1.377 1_556 S
C1939 C1938 1.524 . S
C1939 C1940 1.397 . S
C1939 C1944 1.363 . S
C1940 H1917 0.950 . S
C1940 C1939 1.397 . S
C1940 C1941 1.334 . S
C1941 H1918 0.950 . S
C1941 C1940 1.334 . S
C1941 C1942 1.287 . S
C1942 C1941 1.287 . S
C1942 C1943 1.524 . S
C1942 H1961 0.913 . S
C1943 H1919 0.950 . S
C1943 C1942 1.524 . S
C1943 C1944 1.415 . S
C1944 H1920 0.916 1_556 S
C1944 C1939 1.363 . S
C1944 C1943 1.415 . S
C1945 H1921 0.951 . S
C1945 C1946 1.366 . S
C1945 C1947 1.388 . S
C1946 C1945 1.366 . S
C1946 C1950 1.385 . S
C1947 H1922 0.951 . S
C1947 C1945 1.388 . S
C1947 C1948 1.366 . S
C1948 C1947 1.366 . S
C1948 C1949 1.414 . S
C1948 C1951 1.499 . S
C1949 H1923 0.950 . S
C1949 C1948 1.414 . S
C1949 C1950 1.374 . S
C1950 H1924 0.950 . S
C1950 C1946 1.385 . S
C1950 C1949 1.374 . S
C1951 C1948 1.499 . S
C1951 C1952 1.373 . S
C1951 C1953 1.389 . S
C1952 H1925 0.950 . S
C1952 C1938 1.377 1_554 S
C1952 C1951 1.373 . S
C1953 C1937 1.377 1_554 S
C1953 C1951 1.389 . S
C1953 C1954 1.524 . S
C1954 C1953 1.524 . S
C1954 C1955 1.397 . S
C1954 C1959 1.363 . S
C1955 H1926 0.950 . S
C1955 C1954 1.397 . S
C1955 C1956 1.334 . S
C1956 H1927 0.950 . S
C1956 C1955 1.334 . S
C1956 C1957 1.287 . S
C1957 C1956 1.287 . S
C1957 C1958 1.524 . S
C1957 H1960 0.999 . S
C1958 H1928 0.950 . S
C1958 C1957 1.524 . S
C1958 C1959 1.415 . S
C1959 H1929 0.916 1_554 S
C1959 C1954 1.363 . S
C1959 C1958 1.415 . S
H1960 C1957 0.999 . S
H1961 C1942 0.913 . S
H1962 C1980 0.951 . S
H1963 C1982 0.951 . S
H1964 C1984 0.950 . S
H1965 C1985 0.950 . S
H1966 C1987 0.950 . S
H1967 C1990 0.950 . S
H1968 C1991 0.950 . S
H1969 C1993 0.950 . S
H1970 C1994 0.950 1_554 S
H1971 C1995 0.951 . S
H1972 C1997 0.951 . S
H1973 C1999 0.950 . S
H1974 C2000 0.950 . S
H1975 C2002 0.950 . S
H1976 C2005 0.950 . S
H1977 C2006 0.950 . S
H1978 C2008 0.950 . S
H1979 C2009 0.950 1_556 S
C1980 H1962 0.951 . S
C1980 C1981 1.366 . S
C1980 C1982 1.388 . S
C1981 C1980 1.366 . S
C1981 C1985 1.385 . S
C1982 H1963 0.951 . S
C1982 C1980 1.388 . S
C1982 C1983 1.366 . S
C1983 C1982 1.366 . S
C1983 C1984 1.414 . S
C1983 C1986 1.499 . S
C1984 H1964 0.950 . S
C1984 C1983 1.414 . S
C1984 C1985 1.374 . S
C1985 H1965 0.950 . S
C1985 C1981 1.385 . S
C1985 C1984 1.374 . S
C1986 C1983 1.499 . S
C1986 C1987 1.373 . S
C1986 C1988 1.389 . S
C1987 H1966 0.950 . S
C1987 C1986 1.373 . S
C1987 C2003 1.377 1_556 S
C1988 C1986 1.389 . S
C1988 C1989 1.524 . S
C1988 C2002 1.377 1_556 S
C1989 C1988 1.524 . S
C1989 C1990 1.397 . S
C1989 C1994 1.363 . S
C1990 H1967 0.950 . S
C1990 C1989 1.397 . S
C1990 C1991 1.334 . S
C1991 H1968 0.950 . S
C1991 C1990 1.334 . S
C1991 C1992 1.287 . S
C1992 C1991 1.287 . S
C1992 C1993 1.524 . S
C1992 H2011 0.913 . S
C1993 H1969 0.950 . S
C1993 C1992 1.524 . S
C1993 C1994 1.415 . S
C1994 H1970 0.950 1_556 S
C1994 C1989 1.363 . S
C1994 C1993 1.415 . S
C1995 H1971 0.951 . S
C1995 C1996 1.366 . S
C1995 C1997 1.388 . S
C1996 C1995 1.366 . S
C1996 C2000 1.385 . S
C1997 H1972 0.951 . S
C1997 C1995 1.388 . S
C1997 C1998 1.366 . S
C1998 C1997 1.366 . S
C1998 C1999 1.414 . S
C1998 C2001 1.499 . S
C1999 H1973 0.950 . S
C1999 C1998 1.414 . S
C1999 C2000 1.374 . S
C2000 H1974 0.950 . S
C2000 C1996 1.385 . S
C2000 C1999 1.374 . S
C2001 C1998 1.499 . S
C2001 C2002 1.373 . S
C2001 C2003 1.389 . S
C2002 H1975 0.950 . S
C2002 C1988 1.377 1_554 S
C2002 C2001 1.373 . S
C2003 C1987 1.377 1_554 S
C2003 C2001 1.389 . S
C2003 C2004 1.524 . S
C2004 C2003 1.524 . S
C2004 C2005 1.397 . S
C2004 C2009 1.363 . S
C2005 H1976 0.950 . S
C2005 C2004 1.397 . S
C2005 C2006 1.334 . S
C2006 H1977 0.950 . S
C2006 C2005 1.334 . S
C2006 C2007 1.287 . S
C2007 C2006 1.287 . S
C2007 C2008 1.524 . S
C2007 H2010 0.999 . S
C2008 H1978 0.950 . S
C2008 C2007 1.524 . S
C2008 C2009 1.415 . S
C2009 H1979 0.950 1_554 S
C2009 C2004 1.363 . S
C2009 C2008 1.415 . S
H2010 C2007 0.999 . S
H2011 C1992 0.913 . S
H2012 C2030 0.951 . S
H2013 C2032 0.951 . S
H2014 C2034 0.950 . S
H2015 C2035 0.950 . S
H2016 C2037 0.950 . S
H2017 C2040 0.950 . S
H2018 C2041 0.950 . S
H2019 C2043 0.950 . S
H2020 C2044 0.950 . S
H2021 C2045 0.951 . S
H2022 C2047 0.951 . S
H2023 C2049 0.950 . S
H2024 C2050 0.950 . S
H2025 C2052 0.950 . S
H2026 C2055 0.950 . S
H2027 C2056 0.950 . S
H2028 C2058 0.950 . S
H2029 C2059 0.950 . S
C2030 H2012 0.951 . S
C2030 C2031 1.366 . S
C2030 C2032 1.388 . S
C2031 C2030 1.366 . S
C2031 C2035 1.385 . S
C2032 H2013 0.951 . S
C2032 C2030 1.388 . S
C2032 C2033 1.366 . S
C2033 C2032 1.366 . S
C2033 C2034 1.414 . S
C2033 C2036 1.499 . S
C2034 H2014 0.950 . S
C2034 C2033 1.414 . S
C2034 C2035 1.374 . S
C2035 H2015 0.950 . S
C2035 C2031 1.385 . S
C2035 C2034 1.374 . S
C2036 C2033 1.499 . S
C2036 C2037 1.373 . S
C2036 C2038 1.389 . S
C2037 H2016 0.950 . S
C2037 C2036 1.373 . S
C2037 C2053 1.377 1_556 S
C2038 C2036 1.389 . S
C2038 C2039 1.524 . S
C2038 C2052 1.377 1_556 S
C2039 C2038 1.524 . S
C2039 C2040 1.397 . S
C2039 C2044 1.363 . S
C2040 H2017 0.950 . S
C2040 C2039 1.397 . S
C2040 C2041 1.334 . S
C2041 H2018 0.950 . S
C2041 C2040 1.334 . S
C2041 C2042 1.287 . S
C2042 C2041 1.287 . S
C2042 C2043 1.524 . S
C2042 H2061 0.913 . S
C2043 H2019 0.950 . S
C2043 C2042 1.524 . S
C2043 C2044 1.415 . S
C2044 H2020 0.950 . S
C2044 C2039 1.363 . S
C2044 C2043 1.415 . S
C2045 H2021 0.951 . S
C2045 C2046 1.366 . S
C2045 C2047 1.388 . S
C2046 C2045 1.366 . S
C2046 C2050 1.385 . S
C2047 H2022 0.951 . S
C2047 C2045 1.388 . S
C2047 C2048 1.366 . S
C2048 C2047 1.366 . S
C2048 C2049 1.414 . S
C2048 C2051 1.499 . S
C2049 H2023 0.950 . S
C2049 C2048 1.414 . S
C2049 C2050 1.374 . S
C2050 H2024 0.950 . S
C2050 C2046 1.385 . S
C2050 C2049 1.374 . S
C2051 C2048 1.499 . S
C2051 C2052 1.373 . S
C2051 C2053 1.389 . S
C2052 H2025 0.950 . S
C2052 C2038 1.377 1_554 S
C2052 C2051 1.373 . S
C2053 C2037 1.377 1_554 S
C2053 C2051 1.389 . S
C2053 C2054 1.524 . S
C2054 C2053 1.524 . S
C2054 C2055 1.397 . S
C2054 C2059 1.363 . S
C2055 H2026 0.950 . S
C2055 C2054 1.397 . S
C2055 C2056 1.334 . S
C2056 H2027 0.950 . S
C2056 C2055 1.334 . S
C2056 C2057 1.287 . S
C2057 C2056 1.287 . S
C2057 C2058 1.524 . S
C2057 H2060 0.999 . S
C2058 H2028 0.950 . S
C2058 C2057 1.524 . S
C2058 C2059 1.415 . S
C2059 H2029 0.950 . S
C2059 C2054 1.363 . S
C2059 C2058 1.415 . S
H2060 C2057 0.999 . S
H2061 C2042 0.913 . S
H2062 C2080 0.951 . S
H2063 C2082 0.951 . S
H2064 C2084 0.950 . S
H2065 C2085 0.950 . S
H2066 C2087 0.950 . S
H2067 C2090 0.950 . S
H2068 C2091 0.950 . S
H2069 C2093 0.950 . S
H2070 C2094 0.950 . S
H2071 C2095 0.951 . S
H2072 C2097 0.951 . S
H2073 C2099 0.950 . S
H2074 C2100 0.950 . S
H2075 C2102 0.950 . S
H2076 C2105 0.950 . S
H2077 C2106 0.950 . S
H2078 C2108 0.950 . S
H2079 C2109 0.950 . S
C2080 H2062 0.951 . S
C2080 C2081 1.366 . S
C2080 C2082 1.388 . S
C2081 C2080 1.366 . S
C2081 C2085 1.385 . S
C2082 H2063 0.951 . S
C2082 C2080 1.388 . S
C2082 C2083 1.366 . S
C2083 C2082 1.366 . S
C2083 C2084 1.414 . S
C2083 C2086 1.499 . S
C2084 H2064 0.950 . S
C2084 C2083 1.414 . S
C2084 C2085 1.374 . S
C2085 H2065 0.950 . S
C2085 C2081 1.385 . S
C2085 C2084 1.374 . S
C2086 C2083 1.499 . S
C2086 C2087 1.373 . S
C2086 C2088 1.389 . S
C2087 H2066 0.950 . S
C2087 C2086 1.373 . S
C2087 C2103 1.377 1_556 S
C2088 C2086 1.389 . S
C2088 C2089 1.524 . S
C2088 C2102 1.377 1_556 S
C2089 C2088 1.524 . S
C2089 C2090 1.397 . S
C2089 C2094 1.363 . S
C2090 H2067 0.950 . S
C2090 C2089 1.397 . S
C2090 C2091 1.334 . S
C2091 H2068 0.950 . S
C2091 C2090 1.334 . S
C2091 C2092 1.287 . S
C2092 C2091 1.287 . S
C2092 C2093 1.524 . S
C2092 H2111 0.913 . S
C2093 H2069 0.950 . S
C2093 C2092 1.524 . S
C2093 C2094 1.415 . S
C2094 H2070 0.950 . S
C2094 C2089 1.363 . S
C2094 C2093 1.415 . S
C2095 H2071 0.951 . S
C2095 C2096 1.366 . S
C2095 C2097 1.388 . S
C2096 C2095 1.366 . S
C2096 C2100 1.385 . S
C2097 H2072 0.951 . S
C2097 C2095 1.388 . S
C2097 C2098 1.366 . S
C2098 C2097 1.366 . S
C2098 C2099 1.414 . S
C2098 C2101 1.499 . S
C2099 H2073 0.950 . S
C2099 C2098 1.414 . S
C2099 C2100 1.374 . S
C2100 H2074 0.950 . S
C2100 C2096 1.385 . S
C2100 C2099 1.374 . S
C2101 C2098 1.499 . S
C2101 C2102 1.373 . S
C2101 C2103 1.389 . S
C2102 H2075 0.950 . S
C2102 C2088 1.377 1_554 S
C2102 C2101 1.373 . S
C2103 C2087 1.377 1_554 S
C2103 C2101 1.389 . S
C2103 C2104 1.524 . S
C2104 C2103 1.524 . S
C2104 C2105 1.397 . S
C2104 C2109 1.363 . S
C2105 H2076 0.950 . S
C2105 C2104 1.397 . S
C2105 C2106 1.334 . S
C2106 H2077 0.950 . S
C2106 C2105 1.334 . S
C2106 C2107 1.287 . S
C2107 C2106 1.287 . S
C2107 C2108 1.524 . S
C2107 H2110 0.999 . S
C2108 H2078 0.950 . S
C2108 C2107 1.524 . S
C2108 C2109 1.415 . S
C2109 H2079 0.950 . S
C2109 C2104 1.363 . S
C2109 C2108 1.415 . S
H2110 C2107 0.999 . S
H2111 C2092 0.913 . S
H2112 C2130 0.951 . S
H2113 C2132 0.951 . S
H2114 C2134 0.950 . S
H2115 C2135 0.950 . S
H2116 C2137 0.950 . S
H2117 C2140 0.950 . S
H2118 C2141 0.950 . S
H2119 C2143 0.950 . S
H2120 C2144 0.950 . S
H2121 C2145 0.951 . S
H2122 C2147 0.951 . S
H2123 C2149 0.950 . S
H2124 C2150 0.950 . S
H2125 C2152 0.950 . S
H2126 C2155 0.950 . S
H2127 C2156 0.950 . S
H2128 C2158 0.950 . S
H2129 C2159 0.950 . S
C2130 H2112 0.951 . S
C2130 C2131 1.366 . S
C2130 C2132 1.388 . S
C2131 C2130 1.366 . S
C2131 C2135 1.385 . S
C2132 H2113 0.951 . S
C2132 C2130 1.388 . S
C2132 C2133 1.366 . S
C2133 C2132 1.366 . S
C2133 C2134 1.414 . S
C2133 C2136 1.499 . S
C2134 H2114 0.950 . S
C2134 C2133 1.414 . S
C2134 C2135 1.374 . S
C2135 H2115 0.950 . S
C2135 C2131 1.385 . S
C2135 C2134 1.374 . S
C2136 C2133 1.499 . S
C2136 C2137 1.373 . S
C2136 C2138 1.389 . S
C2137 H2116 0.950 . S
C2137 C2136 1.373 . S
C2137 C2153 1.377 . S
C2138 C2136 1.389 . S
C2138 C2139 1.524 . S
C2138 C2152 1.377 . S
C2139 C2138 1.524 . S
C2139 C2140 1.397 . S
C2139 C2144 1.363 . S
C2140 H2117 0.950 . S
C2140 C2139 1.397 . S
C2140 C2141 1.334 . S
C2141 H2118 0.950 . S
C2141 C2140 1.334 . S
C2141 C2142 1.287 . S
C2142 C2141 1.287 . S
C2142 C2143 1.524 . S
C2142 H2161 0.913 . S
C2143 H2119 0.950 . S
C2143 C2142 1.524 . S
C2143 C2144 1.415 . S
C2144 H2120 0.950 . S
C2144 C2139 1.363 . S
C2144 C2143 1.415 . S
C2145 H2121 0.951 . S
C2145 C2146 1.366 . S
C2145 C2147 1.388 . S
C2146 C2145 1.366 . S
C2146 C2150 1.385 . S
C2147 H2122 0.951 . S
C2147 C2145 1.388 . S
C2147 C2148 1.366 . S
C2148 C2147 1.366 . S
C2148 C2149 1.414 . S
C2148 C2151 1.499 . S
C2149 H2123 0.950 . S
C2149 C2148 1.414 . S
C2149 C2150 1.374 . S
C2150 H2124 0.950 . S
C2150 C2146 1.385 . S
C2150 C2149 1.374 . S
C2151 C2148 1.499 . S
C2151 C2152 1.373 . S
C2151 C2153 1.389 . S
C2152 H2125 0.950 . S
C2152 C2138 1.377 . S
C2152 C2151 1.373 . S
C2153 C2137 1.377 . S
C2153 C2151 1.389 . S
C2153 C2154 1.524 . S
C2154 C2153 1.524 . S
C2154 C2155 1.397 . S
C2154 C2159 1.363 . S
C2155 H2126 0.950 . S
C2155 C2154 1.397 . S
C2155 C2156 1.334 . S
C2156 H2127 0.950 . S
C2156 C2155 1.334 . S
C2156 C2157 1.287 . S
C2157 C2156 1.287 . S
C2157 C2158 1.524 . S
C2157 H2160 0.999 . S
C2158 H2128 0.950 . S
C2158 C2157 1.524 . S
C2158 C2159 1.415 . S
C2159 H2129 0.950 . S
C2159 C2154 1.363 . S
C2159 C2158 1.415 . S
H2160 C2157 0.999 . S
H2161 C2142 0.913 . S
H2162 C2180 0.951 . S
H2163 C2182 0.951 . S
H2164 C2184 0.950 . S
H2165 C2185 0.950 . S
H2166 C2187 0.950 . S
H2167 C2190 0.950 . S
H2168 C2191 0.950 . S
H2169 C2193 0.950 . S
H2170 C2194 0.950 . S
H2171 C2195 0.951 . S
H2172 C2197 0.951 . S
H2173 C2199 0.950 . S
H2174 C2200 0.950 . S
H2175 C2202 0.950 . S
H2176 C2205 0.950 . S
H2177 C2206 0.950 . S
H2178 C2208 0.950 . S
H2179 C2209 0.950 . S
C2180 H2162 0.951 . S
C2180 C2181 1.366 . S
C2180 C2182 1.388 . S
C2181 C2180 1.366 . S
C2181 C2185 1.385 . S
C2182 H2163 0.951 . S
C2182 C2180 1.388 . S
C2182 C2183 1.366 . S
C2183 C2182 1.366 . S
C2183 C2184 1.414 . S
C2183 C2186 1.499 . S
C2184 H2164 0.950 . S
C2184 C2183 1.414 . S
C2184 C2185 1.374 . S
C2185 H2165 0.950 . S
C2185 C2181 1.385 . S
C2185 C2184 1.374 . S
C2186 C2183 1.499 . S
C2186 C2187 1.373 . S
C2186 C2188 1.389 . S
C2187 H2166 0.950 . S
C2187 C2186 1.373 . S
C2187 C2203 1.377 . S
C2188 C2186 1.389 . S
C2188 C2189 1.524 . S
C2188 C2202 1.377 . S
C2189 C2188 1.524 . S
C2189 C2190 1.397 . S
C2189 C2194 1.363 . S
C2190 H2167 0.950 . S
C2190 C2189 1.397 . S
C2190 C2191 1.334 . S
C2191 H2168 0.950 . S
C2191 C2190 1.334 . S
C2191 C2192 1.287 . S
C2192 C2191 1.287 . S
C2192 C2193 1.524 . S
C2192 H2211 0.913 . S
C2193 H2169 0.950 . S
C2193 C2192 1.524 . S
C2193 C2194 1.415 . S
C2194 H2170 0.950 . S
C2194 C2189 1.363 . S
C2194 C2193 1.415 . S
C2195 H2171 0.951 . S
C2195 C2196 1.366 . S
C2195 C2197 1.388 . S
C2196 C2195 1.366 . S
C2196 C2200 1.385 . S
C2197 H2172 0.951 . S
C2197 C2195 1.388 . S
C2197 C2198 1.366 . S
C2198 C2197 1.366 . S
C2198 C2199 1.414 . S
C2198 C2201 1.499 . S
C2199 H2173 0.950 . S
C2199 C2198 1.414 . S
C2199 C2200 1.374 . S
C2200 H2174 0.950 . S
C2200 C2196 1.385 . S
C2200 C2199 1.374 . S
C2201 C2198 1.499 . S
C2201 C2202 1.373 . S
C2201 C2203 1.389 . S
C2202 H2175 0.950 . S
C2202 C2188 1.377 . S
C2202 C2201 1.373 . S
C2203 C2187 1.377 . S
C2203 C2201 1.389 . S
C2203 C2204 1.524 . S
C2204 C2203 1.524 . S
C2204 C2205 1.397 . S
C2204 C2209 1.363 . S
C2205 H2176 0.950 . S
C2205 C2204 1.397 . S
C2205 C2206 1.334 . S
C2206 H2177 0.950 . S
C2206 C2205 1.334 . S
C2206 C2207 1.287 . S
C2207 C2206 1.287 . S
C2207 C2208 1.524 . S
C2207 H2210 0.999 . S
C2208 H2178 0.950 . S
C2208 C2207 1.524 . S
C2208 C2209 1.415 . S
C2209 H2179 0.950 . S
C2209 C2204 1.363 . S
C2209 C2208 1.415 . S
H2210 C2207 0.999 . S
H2211 C2192 0.913 . S
H2212 C2230 0.951 . S
H2213 C2232 0.951 . S
H2214 C2234 0.950 . S
H2215 C2235 0.950 . S
H2216 C2237 0.950 . S
H2217 C2240 0.950 . S
H2218 C2241 0.950 . S
H2219 C2243 0.950 . S
H2220 C2244 0.950 . S
H2221 C2245 0.951 . S
H2222 C2247 0.951 . S
H2223 C2249 0.950 . S
H2224 C2250 0.950 . S
H2225 C2252 0.950 . S
H2226 C2255 0.950 . S
H2227 C2256 0.950 . S
H2228 C2258 0.950 . S
H2229 C2259 0.950 . S
C2230 H2212 0.951 . S
C2230 C2231 1.366 . S
C2230 C2232 1.388 . S
C2231 C2230 1.366 . S
C2231 C2235 1.385 . S
C2232 H2213 0.951 . S
C2232 C2230 1.388 . S
C2232 C2233 1.366 . S
C2233 C2232 1.366 . S
C2233 C2234 1.414 . S
C2233 C2236 1.499 . S
C2234 H2214 0.950 . S
C2234 C2233 1.414 . S
C2234 C2235 1.374 . S
C2235 H2215 0.950 . S
C2235 C2231 1.385 . S
C2235 C2234 1.374 . S
C2236 C2233 1.499 . S
C2236 C2237 1.373 . S
C2236 C2238 1.389 . S
C2237 H2216 0.950 . S
C2237 C2236 1.373 . S
C2237 C2253 1.377 . S
C2238 C2236 1.389 . S
C2238 C2239 1.524 . S
C2238 C2252 1.377 . S
C2239 C2238 1.524 . S
C2239 C2240 1.397 . S
C2239 C2244 1.363 . S
C2240 H2217 0.950 . S
C2240 C2239 1.397 . S
C2240 C2241 1.334 . S
C2241 H2218 0.950 . S
C2241 C2240 1.334 . S
C2241 C2242 1.287 . S
C2242 C2241 1.287 . S
C2242 C2243 1.524 . S
C2242 H2261 0.913 . S
C2243 H2219 0.950 . S
C2243 C2242 1.524 . S
C2243 C2244 1.415 . S
C2244 H2220 0.950 . S
C2244 C2239 1.363 . S
C2244 C2243 1.415 . S
C2245 H2221 0.951 . S
C2245 C2246 1.366 . S
C2245 C2247 1.388 . S
C2246 C2245 1.366 . S
C2246 C2250 1.385 . S
C2247 H2222 0.951 . S
C2247 C2245 1.388 . S
C2247 C2248 1.366 . S
C2248 C2247 1.366 . S
C2248 C2249 1.414 . S
C2248 C2251 1.499 . S
C2249 H2223 0.950 . S
C2249 C2248 1.414 . S
C2249 C2250 1.374 . S
C2250 H2224 0.950 . S
C2250 C2246 1.385 . S
C2250 C2249 1.374 . S
C2251 C2248 1.499 . S
C2251 C2252 1.373 . S
C2251 C2253 1.389 . S
C2252 H2225 0.950 . S
C2252 C2238 1.377 . S
C2252 C2251 1.373 . S
C2253 C2237 1.377 . S
C2253 C2251 1.389 . S
C2253 C2254 1.524 . S
C2254 C2253 1.524 . S
C2254 C2255 1.397 . S
C2254 C2259 1.363 . S
C2255 H2226 0.950 . S
C2255 C2254 1.397 . S
C2255 C2256 1.334 . S
C2256 H2227 0.950 . S
C2256 C2255 1.334 . S
C2256 C2257 1.287 . S
C2257 C2256 1.287 . S
C2257 C2258 1.524 . S
C2257 H2260 0.999 . S
C2258 H2228 0.950 . S
C2258 C2257 1.524 . S
C2258 C2259 1.415 . S
C2259 H2229 0.950 . S
C2259 C2254 1.363 . S
C2259 C2258 1.415 . S
H2260 C2257 0.999 . S
H2261 C2242 0.913 . S
H2262 C2280 0.951 . S
H2263 C2282 0.951 . S
H2264 C2284 0.950 . S
H2265 C2285 0.950 . S
H2266 C2287 0.950 . S
H2267 C2290 0.950 . S
H2268 C2291 0.950 . S
H2269 C2293 0.950 . S
H2270 C2294 0.950 . S
H2271 C2295 0.951 . S
H2272 C2297 0.951 . S
H2273 C2299 0.950 . S
H2274 C2300 0.950 . S
H2275 C2302 0.950 . S
H2276 C2305 0.950 . S
H2277 C2306 0.950 . S
H2278 C2308 0.950 . S
H2279 C2309 0.950 . S
C2280 H2262 0.951 . S
C2280 C2281 1.366 . S
C2280 C2282 1.388 . S
C2281 C2280 1.366 . S
C2281 C2285 1.385 . S
C2282 H2263 0.951 . S
C2282 C2280 1.388 . S
C2282 C2283 1.366 . S
C2283 C2282 1.366 . S
C2283 C2284 1.414 . S
C2283 C2286 1.499 . S
C2284 H2264 0.950 . S
C2284 C2283 1.414 . S
C2284 C2285 1.374 . S
C2285 H2265 0.950 . S
C2285 C2281 1.385 . S
C2285 C2284 1.374 . S
C2286 C2283 1.499 . S
C2286 C2287 1.373 . S
C2286 C2288 1.389 . S
C2287 H2266 0.950 . S
C2287 C2286 1.373 . S
C2287 C2303 1.377 . S
C2288 C2286 1.389 . S
C2288 C2289 1.524 . S
C2288 C2302 1.377 . S
C2289 C2288 1.524 . S
C2289 C2290 1.397 . S
C2289 C2294 1.363 . S
C2290 H2267 0.950 . S
C2290 C2289 1.397 . S
C2290 C2291 1.334 . S
C2291 H2268 0.950 . S
C2291 C2290 1.334 . S
C2291 C2292 1.287 . S
C2292 C2291 1.287 . S
C2292 C2293 1.524 . S
C2292 H2311 0.913 . S
C2293 H2269 0.950 . S
C2293 C2292 1.524 . S
C2293 C2294 1.415 . S
C2294 H2270 0.950 . S
C2294 C2289 1.363 . S
C2294 C2293 1.415 . S
C2295 H2271 0.951 . S
C2295 C2296 1.366 . S
C2295 C2297 1.388 . S
C2296 C2295 1.366 . S
C2296 C2300 1.385 . S
C2297 H2272 0.951 . S
C2297 C2295 1.388 . S
C2297 C2298 1.366 . S
C2298 C2297 1.366 . S
C2298 C2299 1.414 . S
C2298 C2301 1.499 . S
C2299 H2273 0.950 . S
C2299 C2298 1.414 . S
C2299 C2300 1.374 . S
C2300 H2274 0.950 . S
C2300 C2296 1.385 . S
C2300 C2299 1.374 . S
C2301 C2298 1.499 . S
C2301 C2302 1.373 . S
C2301 C2303 1.389 . S
C2302 H2275 0.950 . S
C2302 C2288 1.377 . S
C2302 C2301 1.373 . S
C2303 C2287 1.377 . S
C2303 C2301 1.389 . S
C2303 C2304 1.524 . S
C2304 C2303 1.524 . S
C2304 C2305 1.397 . S
C2304 C2309 1.363 . S
C2305 H2276 0.950 . S
C2305 C2304 1.397 . S
C2305 C2306 1.334 . S
C2306 H2277 0.950 . S
C2306 C2305 1.334 . S
C2306 C2307 1.287 . S
C2307 C2306 1.287 . S
C2307 C2308 1.524 . S
C2307 H2310 0.999 . S
C2308 H2278 0.950 . S
C2308 C2307 1.524 . S
C2308 C2309 1.415 . S
C2309 H2279 0.950 . S
C2309 C2304 1.363 . S
C2309 C2308 1.415 . S
H2310 C2307 0.999 . S
H2311 C2292 0.913 . S
H2312 C2330 0.951 . S
H2313 C2332 0.951 . S
H2314 C2334 0.950 . S
H2315 C2335 0.950 . S
H2316 C2337 0.950 . S
H2317 C2340 0.950 . S
H2318 C2341 0.950 . S
H2319 C2343 0.950 . S
H2320 C2344 0.950 . S
H2321 C2345 0.951 . S
H2322 C2347 0.951 . S
H2323 C2349 0.950 . S
H2324 C2350 0.950 . S
H2325 C2352 0.950 . S
H2326 C2355 0.950 . S
H2327 C2356 0.950 . S
H2328 C2358 0.950 . S
H2329 C2359 0.950 . S
C2330 H2312 0.951 . S
C2330 C2331 1.366 . S
C2330 C2332 1.388 . S
C2331 C2330 1.366 . S
C2331 C2335 1.385 . S
C2332 H2313 0.951 . S
C2332 C2330 1.388 . S
C2332 C2333 1.366 . S
C2333 C2332 1.366 . S
C2333 C2334 1.414 . S
C2333 C2336 1.499 . S
C2334 H2314 0.950 . S
C2334 C2333 1.414 . S
C2334 C2335 1.374 . S
C2335 H2315 0.950 . S
C2335 C2331 1.385 . S
C2335 C2334 1.374 . S
C2336 C2333 1.499 . S
C2336 C2337 1.373 . S
C2336 C2338 1.389 . S
C2337 H2316 0.950 . S
C2337 C2336 1.373 . S
C2337 C2353 1.377 . S
C2338 C2336 1.389 . S
C2338 C2339 1.524 . S
C2338 C2352 1.377 . S
C2339 C2338 1.524 . S
C2339 C2340 1.397 . S
C2339 C2344 1.363 . S
C2340 H2317 0.950 . S
C2340 C2339 1.397 . S
C2340 C2341 1.334 . S
C2341 H2318 0.950 . S
C2341 C2340 1.334 . S
C2341 C2342 1.287 . S
C2342 C2341 1.287 . S
C2342 C2343 1.524 . S
C2342 H2361 0.913 . S
C2343 H2319 0.950 . S
C2343 C2342 1.524 . S
C2343 C2344 1.415 . S
C2344 H2320 0.950 . S
C2344 C2339 1.363 . S
C2344 C2343 1.415 . S
C2345 H2321 0.951 . S
C2345 C2346 1.366 . S
C2345 C2347 1.388 . S
C2346 C2345 1.366 . S
C2346 C2350 1.385 . S
C2347 H2322 0.951 . S
C2347 C2345 1.388 . S
C2347 C2348 1.366 . S
C2348 C2347 1.366 . S
C2348 C2349 1.414 . S
C2348 C2351 1.499 . S
C2349 H2323 0.950 . S
C2349 C2348 1.414 . S
C2349 C2350 1.374 . S
C2350 H2324 0.950 . S
C2350 C2346 1.385 . S
C2350 C2349 1.374 . S
C2351 C2348 1.499 . S
C2351 C2352 1.373 . S
C2351 C2353 1.389 . S
C2352 H2325 0.950 . S
C2352 C2338 1.377 . S
C2352 C2351 1.373 . S
C2353 C2337 1.377 . S
C2353 C2351 1.389 . S
C2353 C2354 1.524 . S
C2354 C2353 1.524 . S
C2354 C2355 1.397 . S
C2354 C2359 1.363 . S
C2355 H2326 0.950 . S
C2355 C2354 1.397 . S
C2355 C2356 1.334 . S
C2356 H2327 0.950 . S
C2356 C2355 1.334 . S
C2356 C2357 1.287 . S
C2357 C2356 1.287 . S
C2357 C2358 1.524 . S
C2357 H2360 0.999 . S
C2358 H2328 0.950 . S
C2358 C2357 1.524 . S
C2358 C2359 1.415 . S
C2359 H2329 0.950 . S
C2359 C2354 1.363 . S
C2359 C2358 1.415 . S
H2360 C2357 0.999 . S
H2361 C2342 0.913 . S
H2362 C2380 0.951 . S
H2363 C2382 0.951 . S
H2364 C2384 0.950 . S
H2365 C2385 0.950 . S
H2366 C2387 0.950 . S
H2367 C2390 0.950 . S
H2368 C2391 0.950 . S
H2369 C2393 0.950 . S
H2370 C2394 0.950 . S
H2371 C2395 0.951 . S
H2372 C2397 0.951 . S
H2373 C2399 0.950 . S
H2374 C2400 0.950 . S
H2375 C2402 0.950 . S
H2376 C2405 0.950 . S
H2377 C2406 0.950 . S
H2378 C2408 0.950 . S
H2379 C2409 0.950 . S
C2380 H2362 0.951 . S
C2380 C2381 1.366 . S
C2380 C2382 1.388 . S
C2381 C2380 1.366 . S
C2381 C2385 1.385 . S
C2382 H2363 0.951 . S
C2382 C2380 1.388 . S
C2382 C2383 1.366 . S
C2383 C2382 1.366 . S
C2383 C2384 1.414 . S
C2383 C2386 1.499 . S
C2384 H2364 0.950 . S
C2384 C2383 1.414 . S
C2384 C2385 1.374 . S
C2385 H2365 0.950 . S
C2385 C2381 1.385 . S
C2385 C2384 1.374 . S
C2386 C2383 1.499 . S
C2386 C2387 1.373 . S
C2386 C2388 1.389 . S
C2387 H2366 0.950 . S
C2387 C2386 1.373 . S
C2387 C2403 1.377 . S
C2388 C2386 1.389 . S
C2388 C2389 1.524 . S
C2388 C2402 1.377 . S
C2389 C2388 1.524 . S
C2389 C2390 1.397 . S
C2389 C2394 1.363 . S
C2390 H2367 0.950 . S
C2390 C2389 1.397 . S
C2390 C2391 1.334 . S
C2391 H2368 0.950 . S
C2391 C2390 1.334 . S
C2391 C2392 1.287 . S
C2392 C2391 1.287 . S
C2392 C2393 1.524 . S
C2392 H2411 0.913 . S
C2393 H2369 0.950 . S
C2393 C2392 1.524 . S
C2393 C2394 1.415 . S
C2394 H2370 0.950 . S
C2394 C2389 1.363 . S
C2394 C2393 1.415 . S
C2395 H2371 0.951 . S
C2395 C2396 1.366 . S
C2395 C2397 1.388 . S
C2396 C2395 1.366 . S
C2396 C2400 1.385 . S
C2397 H2372 0.951 . S
C2397 C2395 1.388 . S
C2397 C2398 1.366 . S
C2398 C2397 1.366 . S
C2398 C2399 1.414 . S
C2398 C2401 1.499 . S
C2399 H2373 0.950 . S
C2399 C2398 1.414 . S
C2399 C2400 1.374 . S
C2400 H2374 0.950 . S
C2400 C2396 1.385 . S
C2400 C2399 1.374 . S
C2401 C2398 1.499 . S
C2401 C2402 1.373 . S
C2401 C2403 1.389 . S
C2402 H2375 0.950 . S
C2402 C2388 1.377 . S
C2402 C2401 1.373 . S
C2403 C2387 1.377 . S
C2403 C2401 1.389 . S
C2403 C2404 1.524 . S
C2404 C2403 1.524 . S
C2404 C2405 1.397 . S
C2404 C2409 1.363 . S
C2405 H2376 0.950 . S
C2405 C2404 1.397 . S
C2405 C2406 1.334 . S
C2406 H2377 0.950 . S
C2406 C2405 1.334 . S
C2406 C2407 1.287 . S
C2407 C2406 1.287 . S
C2407 C2408 1.524 . S
C2407 H2410 0.999 . S
C2408 H2378 0.950 . S
C2408 C2407 1.524 . S
C2408 C2409 1.415 . S
C2409 H2379 0.950 . S
C2409 C2404 1.363 . S
C2409 C2408 1.415 . S
H2410 C2407 0.999 . S
H2411 C2392 0.913 . S
H2412 C2430 0.951 . S
H2413 C2432 0.951 . S
H2414 C2434 0.950 . S
H2415 C2435 0.950 . S
H2416 C2437 0.950 . S
H2417 C2440 0.950 . S
H2418 C2441 0.950 . S
H2419 C2443 0.950 . S
H2420 C2444 0.950 . S
H2421 C2445 0.951 . S
H2422 C2447 0.951 . S
H2423 C2449 0.950 . S
H2424 C2450 0.950 . S
H2425 C2452 0.950 . S
H2426 C2455 0.950 . S
H2427 C2456 0.950 . S
H2428 C2458 0.950 . S
H2429 C2459 0.950 . S
C2430 H2412 0.951 . S
C2430 C2431 1.366 . S
C2430 C2432 1.388 . S
C2431 C2430 1.366 . S
C2431 C2435 1.385 . S
C2432 H2413 0.951 . S
C2432 C2430 1.388 . S
C2432 C2433 1.366 . S
C2433 C2432 1.366 . S
C2433 C2434 1.414 . S
C2433 C2436 1.499 . S
C2434 H2414 0.950 . S
C2434 C2433 1.414 . S
C2434 C2435 1.374 . S
C2435 H2415 0.950 . S
C2435 C2431 1.385 . S
C2435 C2434 1.374 . S
C2436 C2433 1.499 . S
C2436 C2437 1.373 . S
C2436 C2438 1.389 . S
C2437 H2416 0.950 . S
C2437 C2436 1.373 . S
C2437 C2453 1.377 . S
C2438 C2436 1.389 . S
C2438 C2439 1.524 . S
C2438 C2452 1.377 . S
C2439 C2438 1.524 . S
C2439 C2440 1.397 . S
C2439 C2444 1.363 . S
C2440 H2417 0.950 . S
C2440 C2439 1.397 . S
C2440 C2441 1.334 . S
C2441 H2418 0.950 . S
C2441 C2440 1.334 . S
C2441 C2442 1.287 . S
C2442 C2441 1.287 . S
C2442 C2443 1.524 . S
C2442 H2461 0.913 . S
C2443 H2419 0.950 . S
C2443 C2442 1.524 . S
C2443 C2444 1.415 . S
C2444 H2420 0.950 . S
C2444 C2439 1.363 . S
C2444 C2443 1.415 . S
C2445 H2421 0.951 . S
C2445 C2446 1.366 . S
C2445 C2447 1.388 . S
C2446 C2445 1.366 . S
C2446 C2450 1.385 . S
C2447 H2422 0.951 . S
C2447 C2445 1.388 . S
C2447 C2448 1.366 . S
C2448 C2447 1.366 . S
C2448 C2449 1.414 . S
C2448 C2451 1.499 . S
C2449 H2423 0.950 . S
C2449 C2448 1.414 . S
C2449 C2450 1.374 . S
C2450 H2424 0.950 . S
C2450 C2446 1.385 . S
C2450 C2449 1.374 . S
C2451 C2448 1.499 . S
C2451 C2452 1.373 . S
C2451 C2453 1.389 . S
C2452 H2425 0.950 . S
C2452 C2438 1.377 . S
C2452 C2451 1.373 . S
C2453 C2437 1.377 . S
C2453 C2451 1.389 . S
C2453 C2454 1.524 . S
C2454 C2453 1.524 . S
C2454 C2455 1.397 . S
C2454 C2459 1.363 . S
C2455 H2426 0.950 . S
C2455 C2454 1.397 . S
C2455 C2456 1.334 . S
C2456 H2427 0.950 . S
C2456 C2455 1.334 . S
C2456 C2457 1.287 . S
C2457 C2456 1.287 . S
C2457 C2458 1.524 . S
C2457 H2460 0.999 . S
C2458 H2428 0.950 . S
C2458 C2457 1.524 . S
C2458 C2459 1.415 . S
C2459 H2429 0.950 . S
C2459 C2454 1.363 . S
C2459 C2458 1.415 . S
H2460 C2457 0.999 . S
H2461 C2442 0.913 . S
H2462 C2480 0.951 . S
H2463 C2482 0.951 . S
H2464 C2484 0.950 . S
H2465 C2485 0.950 . S
H2466 C2487 0.950 . S
H2467 C2490 0.950 . S
H2468 C2491 0.950 . S
H2469 C2493 0.950 . S
H2470 C2494 0.950 . S
H2471 C2495 0.951 . S
H2472 C2497 0.951 . S
H2473 C2499 0.950 . S
H2474 C2500 0.950 . S
H2475 C2502 0.950 . S
H2476 C2505 0.950 . S
H2477 C2506 0.950 . S
H2478 C2508 0.950 . S
H2479 C2509 0.950 . S
C2480 H2462 0.951 . S
C2480 C2481 1.366 . S
C2480 C2482 1.388 . S
C2481 C2480 1.366 . S
C2481 C2485 1.385 . S
C2482 H2463 0.951 . S
C2482 C2480 1.388 . S
C2482 C2483 1.366 . S
C2483 C2482 1.366 . S
C2483 C2484 1.414 . S
C2483 C2486 1.499 . S
C2484 H2464 0.950 . S
C2484 C2483 1.414 . S
C2484 C2485 1.374 . S
C2485 H2465 0.950 . S
C2485 C2481 1.385 . S
C2485 C2484 1.374 . S
C2486 C2483 1.499 . S
C2486 C2487 1.373 . S
C2486 C2488 1.389 . S
C2487 H2466 0.950 . S
C2487 C2486 1.373 . S
C2487 C2503 1.377 . S
C2488 C2486 1.389 . S
C2488 C2489 1.524 . S
C2488 C2502 1.377 . S
C2489 C2488 1.524 . S
C2489 C2490 1.397 . S
C2489 C2494 1.363 . S
C2490 H2467 0.950 . S
C2490 C2489 1.397 . S
C2490 C2491 1.334 . S
C2491 H2468 0.950 . S
C2491 C2490 1.334 . S
C2491 C2492 1.287 . S
C2492 C2491 1.287 . S
C2492 C2493 1.524 . S
C2492 H2511 0.913 . S
C2493 H2469 0.950 . S
C2493 C2492 1.524 . S
C2493 C2494 1.415 . S
C2494 H2470 0.950 . S
C2494 C2489 1.363 . S
C2494 C2493 1.415 . S
C2495 H2471 0.951 . S
C2495 C2496 1.366 . S
C2495 C2497 1.388 . S
C2496 C2495 1.366 . S
C2496 C2500 1.385 . S
C2497 H2472 0.951 . S
C2497 C2495 1.388 . S
C2497 C2498 1.366 . S
C2498 C2497 1.366 . S
C2498 C2499 1.414 . S
C2498 C2501 1.499 . S
C2499 H2473 0.950 . S
C2499 C2498 1.414 . S
C2499 C2500 1.374 . S
C2500 H2474 0.950 . S
C2500 C2496 1.385 . S
C2500 C2499 1.374 . S
C2501 C2498 1.499 . S
C2501 C2502 1.373 . S
C2501 C2503 1.389 . S
C2502 H2475 0.950 . S
C2502 C2488 1.377 . S
C2502 C2501 1.373 . S
C2503 C2487 1.377 . S
C2503 C2501 1.389 . S
C2503 C2504 1.524 . S
C2504 C2503 1.524 . S
C2504 C2505 1.397 . S
C2504 C2509 1.363 . S
C2505 H2476 0.950 . S
C2505 C2504 1.397 . S
C2505 C2506 1.334 . S
C2506 H2477 0.950 . S
C2506 C2505 1.334 . S
C2506 C2507 1.287 . S
C2507 C2506 1.287 . S
C2507 C2508 1.524 . S
C2507 H2510 0.999 . S
C2508 H2478 0.950 . S
C2508 C2507 1.524 . S
C2508 C2509 1.415 . S
C2509 H2479 0.950 . S
C2509 C2504 1.363 . S
C2509 C2508 1.415 . S
H2510 C2507 0.999 . S
H2511 C2492 0.913 . S
H2512 C2530 0.951 . S
H2513 C2532 0.951 . S
H2514 C2534 0.950 . S
H2515 C2535 0.950 . S
H2516 C2537 0.950 . S
H2517 C2540 0.950 . S
H2518 C2541 0.950 . S
H2519 C2543 0.950 . S
H2520 C2544 0.950 . S
H2521 C2545 0.951 . S
H2522 C2547 0.951 . S
H2523 C2549 0.950 . S
H2524 C2550 0.950 . S
H2525 C2552 0.950 . S
H2526 C2555 0.950 . S
H2527 C2556 0.950 . S
H2528 C2558 0.950 . S
H2529 C2559 0.950 . S
C2530 H2512 0.951 . S
C2530 C2531 1.366 . S
C2530 C2532 1.388 . S
C2531 C2530 1.366 . S
C2531 C2535 1.385 . S
C2532 H2513 0.951 . S
C2532 C2530 1.388 . S
C2532 C2533 1.366 . S
C2533 C2532 1.366 . S
C2533 C2534 1.414 . S
C2533 C2536 1.499 . S
C2534 H2514 0.950 . S
C2534 C2533 1.414 . S
C2534 C2535 1.374 . S
C2535 H2515 0.950 . S
C2535 C2531 1.385 . S
C2535 C2534 1.374 . S
C2536 C2533 1.499 . S
C2536 C2537 1.373 . S
C2536 C2538 1.389 . S
C2537 H2516 0.950 . S
C2537 C2536 1.373 . S
C2537 C2553 1.377 . S
C2538 C2536 1.389 . S
C2538 C2539 1.524 . S
C2538 C2552 1.377 . S
C2539 C2538 1.524 . S
C2539 C2540 1.397 . S
C2539 C2544 1.363 . S
C2540 H2517 0.950 . S
C2540 C2539 1.397 . S
C2540 C2541 1.334 . S
C2541 H2518 0.950 . S
C2541 C2540 1.334 . S
C2541 C2542 1.287 . S
C2542 C2541 1.287 . S
C2542 C2543 1.524 . S
C2542 H2561 0.913 . S
C2543 H2519 0.950 . S
C2543 C2542 1.524 . S
C2543 C2544 1.415 . S
C2544 H2520 0.950 . S
C2544 C2539 1.363 . S
C2544 C2543 1.415 . S
C2545 H2521 0.951 . S
C2545 C2546 1.366 . S
C2545 C2547 1.388 . S
C2546 C2545 1.366 . S
C2546 C2550 1.385 . S
C2547 H2522 0.951 . S
C2547 C2545 1.388 . S
C2547 C2548 1.366 . S
C2548 C2547 1.366 . S
C2548 C2549 1.414 . S
C2548 C2551 1.499 . S
C2549 H2523 0.950 . S
C2549 C2548 1.414 . S
C2549 C2550 1.374 . S
C2550 H2524 0.950 . S
C2550 C2546 1.385 . S
C2550 C2549 1.374 . S
C2551 C2548 1.499 . S
C2551 C2552 1.373 . S
C2551 C2553 1.389 . S
C2552 H2525 0.950 . S
C2552 C2538 1.377 . S
C2552 C2551 1.373 . S
C2553 C2537 1.377 . S
C2553 C2551 1.389 . S
C2553 C2554 1.524 . S
C2554 C2553 1.524 . S
C2554 C2555 1.397 . S
C2554 C2559 1.363 . S
C2555 H2526 0.950 . S
C2555 C2554 1.397 . S
C2555 C2556 1.334 . S
C2556 H2527 0.950 . S
C2556 C2555 1.334 . S
C2556 C2557 1.287 . S
C2557 C2556 1.287 . S
C2557 C2558 1.524 . S
C2557 H2560 0.999 . S
C2558 H2528 0.950 . S
C2558 C2557 1.524 . S
C2558 C2559 1.415 . S
C2559 H2529 0.950 . S
C2559 C2554 1.363 . S
C2559 C2558 1.415 . S
H2560 C2557 0.999 . S
H2561 C2542 0.913 . S
H2562 C2580 0.951 . S
H2563 C2582 0.951 . S
H2564 C2584 0.950 . S
H2565 C2585 0.950 . S
H2566 C2587 0.950 . S
H2567 C2590 0.950 . S
H2568 C2591 0.950 . S
H2569 C2593 0.950 . S
H2570 C2594 0.950 . S
H2571 C2595 0.951 . S
H2572 C2597 0.951 . S
H2573 C2599 0.950 . S
H2574 C2600 0.950 . S
H2575 C2602 0.950 . S
H2576 C2605 0.950 . S
H2577 C2606 0.950 . S
H2578 C2608 0.950 . S
H2579 C2609 0.950 . S
C2580 H2562 0.951 . S
C2580 C2581 1.366 . S
C2580 C2582 1.388 . S
C2581 C2580 1.366 . S
C2581 C2585 1.385 . S
C2582 H2563 0.951 . S
C2582 C2580 1.388 . S
C2582 C2583 1.366 . S
C2583 C2582 1.366 . S
C2583 C2584 1.414 . S
C2583 C2586 1.499 . S
C2584 H2564 0.950 . S
C2584 C2583 1.414 . S
C2584 C2585 1.374 . S
C2585 H2565 0.950 . S
C2585 C2581 1.385 . S
C2585 C2584 1.374 . S
C2586 C2583 1.499 . S
C2586 C2587 1.373 . S
C2586 C2588 1.389 . S
C2587 H2566 0.950 . S
C2587 C2586 1.373 . S
C2587 C2603 1.377 . S
C2588 C2586 1.389 . S
C2588 C2589 1.524 . S
C2588 C2602 1.377 . S
C2589 C2588 1.524 . S
C2589 C2590 1.397 . S
C2589 C2594 1.363 . S
C2590 H2567 0.950 . S
C2590 C2589 1.397 . S
C2590 C2591 1.334 . S
C2591 H2568 0.950 . S
C2591 C2590 1.334 . S
C2591 C2592 1.287 . S
C2592 C2591 1.287 . S
C2592 C2593 1.524 . S
C2592 H2611 0.913 . S
C2593 H2569 0.950 . S
C2593 C2592 1.524 . S
C2593 C2594 1.415 . S
C2594 H2570 0.950 . S
C2594 C2589 1.363 . S
C2594 C2593 1.415 . S
C2595 H2571 0.951 . S
C2595 C2596 1.366 . S
C2595 C2597 1.388 . S
C2596 C2595 1.366 . S
C2596 C2600 1.385 . S
C2597 H2572 0.951 . S
C2597 C2595 1.388 . S
C2597 C2598 1.366 . S
C2598 C2597 1.366 . S
C2598 C2599 1.414 . S
C2598 C2601 1.499 . S
C2599 H2573 0.950 . S
C2599 C2598 1.414 . S
C2599 C2600 1.374 . S
C2600 H2574 0.950 . S
C2600 C2596 1.385 . S
C2600 C2599 1.374 . S
C2601 C2598 1.499 . S
C2601 C2602 1.373 . S
C2601 C2603 1.389 . S
C2602 H2575 0.950 . S
C2602 C2588 1.377 . S
C2602 C2601 1.373 . S
C2603 C2587 1.377 . S
C2603 C2601 1.389 . S
C2603 C2604 1.524 . S
C2604 C2603 1.524 . S
C2604 C2605 1.397 . S
C2604 C2609 1.363 . S
C2605 H2576 0.950 . S
C2605 C2604 1.397 . S
C2605 C2606 1.334 . S
C2606 H2577 0.950 . S
C2606 C2605 1.334 . S
C2606 C2607 1.287 . S
C2607 C2606 1.287 . S
C2607 C2608 1.524 . S
C2607 H2610 0.999 . S
C2608 H2578 0.950 . S
C2608 C2607 1.524 . S
C2608 C2609 1.415 . S
C2609 H2579 0.950 . S
C2609 C2604 1.363 . S
C2609 C2608 1.415 . S
H2610 C2607 0.999 . S
H2611 C2592 0.913 . S
H2612 C2630 0.951 . S
H2613 C2632 0.951 . S
H2614 C2634 0.950 . S
H2615 C2635 0.950 . S
H2616 C2637 0.950 . S
H2617 C2640 0.950 . S
H2618 C2641 0.950 . S
H2619 C2643 0.950 . S
H2620 C2644 0.950 . S
H2621 C2645 0.951 . S
H2622 C2647 0.951 . S
H2623 C2649 0.950 . S
H2624 C2650 0.950 . S
H2625 C2652 0.950 . S
H2626 C2655 0.950 . S
H2627 C2656 0.950 . S
H2628 C2658 0.950 . S
H2629 C2659 0.950 . S
C2630 H2612 0.951 . S
C2630 C2631 1.366 . S
C2630 C2632 1.388 . S
C2631 C2630 1.366 . S
C2631 C2635 1.385 . S
C2632 H2613 0.951 . S
C2632 C2630 1.388 . S
C2632 C2633 1.366 . S
C2633 C2632 1.366 . S
C2633 C2634 1.414 . S
C2633 C2636 1.499 . S
C2634 H2614 0.950 . S
C2634 C2633 1.414 . S
C2634 C2635 1.374 . S
C2635 H2615 0.950 . S
C2635 C2631 1.385 . S
C2635 C2634 1.374 . S
C2636 C2633 1.499 . S
C2636 C2637 1.373 . S
C2636 C2638 1.389 . S
C2637 H2616 0.950 . S
C2637 C2636 1.373 . S
C2637 C2653 1.377 . S
C2638 C2636 1.389 . S
C2638 C2639 1.524 . S
C2638 C2652 1.377 . S
C2639 C2638 1.524 . S
C2639 C2640 1.397 . S
C2639 C2644 1.363 . S
C2640 H2617 0.950 . S
C2640 C2639 1.397 . S
C2640 C2641 1.334 . S
C2641 H2618 0.950 . S
C2641 C2640 1.334 . S
C2641 C2642 1.287 . S
C2642 C2641 1.287 . S
C2642 C2643 1.524 . S
C2642 H2661 0.913 . S
C2643 H2619 0.950 . S
C2643 C2642 1.524 . S
C2643 C2644 1.415 . S
C2644 H2620 0.950 . S
C2644 C2639 1.363 . S
C2644 C2643 1.415 . S
C2645 H2621 0.951 . S
C2645 C2646 1.366 . S
C2645 C2647 1.388 . S
C2646 C2645 1.366 . S
C2646 C2650 1.385 . S
C2647 H2622 0.951 . S
C2647 C2645 1.388 . S
C2647 C2648 1.366 . S
C2648 C2647 1.366 . S
C2648 C2649 1.414 . S
C2648 C2651 1.499 . S
C2649 H2623 0.950 . S
C2649 C2648 1.414 . S
C2649 C2650 1.374 . S
C2650 H2624 0.950 . S
C2650 C2646 1.385 . S
C2650 C2649 1.374 . S
C2651 C2648 1.499 . S
C2651 C2652 1.373 . S
C2651 C2653 1.389 . S
C2652 H2625 0.950 . S
C2652 C2638 1.377 . S
C2652 C2651 1.373 . S
C2653 C2637 1.377 . S
C2653 C2651 1.389 . S
C2653 C2654 1.524 . S
C2654 C2653 1.524 . S
C2654 C2655 1.397 . S
C2654 C2659 1.363 . S
C2655 H2626 0.950 . S
C2655 C2654 1.397 . S
C2655 C2656 1.334 . S
C2656 H2627 0.950 . S
C2656 C2655 1.334 . S
C2656 C2657 1.287 . S
C2657 C2656 1.287 . S
C2657 C2658 1.524 . S
C2657 H2660 0.999 . S
C2658 H2628 0.950 . S
C2658 C2657 1.524 . S
C2658 C2659 1.415 . S
C2659 H2629 0.950 . S
C2659 C2654 1.363 . S
C2659 C2658 1.415 . S
H2660 C2657 0.999 . S
H2661 C2642 0.913 . S
H2662 C2680 0.951 . S
H2663 C2682 0.951 . S
H2664 C2684 0.950 . S
H2665 C2685 0.950 . S
H2666 C2687 0.950 . S
H2667 C2690 0.950 . S
H2668 C2691 0.950 . S
H2669 C2693 0.950 . S
H2670 C2694 0.950 . S
H2671 C2695 0.951 . S
H2672 C2697 0.951 . S
H2673 C2699 0.950 . S
H2674 C2700 0.950 . S
H2675 C2702 0.950 . S
H2676 C2705 0.950 . S
H2677 C2706 0.950 . S
H2678 C2708 0.950 . S
H2679 C2709 0.950 . S
C2680 H2662 0.951 . S
C2680 C2681 1.366 . S
C2680 C2682 1.388 . S
C2681 C2680 1.366 . S
C2681 C2685 1.385 . S
C2682 H2663 0.951 . S
C2682 C2680 1.388 . S
C2682 C2683 1.366 . S
C2683 C2682 1.366 . S
C2683 C2684 1.414 . S
C2683 C2686 1.499 . S
C2684 H2664 0.950 . S
C2684 C2683 1.414 . S
C2684 C2685 1.374 . S
C2685 H2665 0.950 . S
C2685 C2681 1.385 . S
C2685 C2684 1.374 . S
C2686 C2683 1.499 . S
C2686 C2687 1.373 . S
C2686 C2688 1.389 . S
C2687 H2666 0.950 . S
C2687 C2686 1.373 . S
C2687 C2703 1.377 . S
C2688 C2686 1.389 . S
C2688 C2689 1.524 . S
C2688 C2702 1.377 . S
C2689 C2688 1.524 . S
C2689 C2690 1.397 . S
C2689 C2694 1.363 . S
C2690 H2667 0.950 . S
C2690 C2689 1.397 . S
C2690 C2691 1.334 . S
C2691 H2668 0.950 . S
C2691 C2690 1.334 . S
C2691 C2692 1.287 . S
C2692 C2691 1.287 . S
C2692 C2693 1.524 . S
C2692 H2711 0.913 . S
C2693 H2669 0.950 . S
C2693 C2692 1.524 . S
C2693 C2694 1.415 . S
C2694 H2670 0.950 . S
C2694 C2689 1.363 . S
C2694 C2693 1.415 . S
C2695 H2671 0.951 . S
C2695 C2696 1.366 . S
C2695 C2697 1.388 . S
C2696 C2695 1.366 . S
C2696 C2700 1.385 . S
C2697 H2672 0.951 . S
C2697 C2695 1.388 . S
C2697 C2698 1.366 . S
C2698 C2697 1.366 . S
C2698 C2699 1.414 . S
C2698 C2701 1.499 . S
C2699 H2673 0.950 . S
C2699 C2698 1.414 . S
C2699 C2700 1.374 . S
C2700 H2674 0.950 . S
C2700 C2696 1.385 . S
C2700 C2699 1.374 . S
C2701 C2698 1.499 . S
C2701 C2702 1.373 . S
C2701 C2703 1.389 . S
C2702 H2675 0.950 . S
C2702 C2688 1.377 . S
C2702 C2701 1.373 . S
C2703 C2687 1.377 . S
C2703 C2701 1.389 . S
C2703 C2704 1.524 . S
C2704 C2703 1.524 . S
C2704 C2705 1.397 . S
C2704 C2709 1.363 . S
C2705 H2676 0.950 . S
C2705 C2704 1.397 . S
C2705 C2706 1.334 . S
C2706 H2677 0.950 . S
C2706 C2705 1.334 . S
C2706 C2707 1.287 . S
C2707 C2706 1.287 . S
C2707 C2708 1.524 . S
C2707 H2710 0.999 . S
C2708 H2678 0.950 . S
C2708 C2707 1.524 . S
C2708 C2709 1.415 . S
C2709 H2679 0.950 . S
C2709 C2704 1.363 . S
C2709 C2708 1.415 . S
H2710 C2707 0.999 . S
H2711 C2692 0.913 . S
C331 C153 1.421 . S
C346 C3 1.430 . S
C381 C16 1.429 . S
C396 C108 1.421 . S
C431 C31 1.429 . S
C446 C121 1.421 . S
C481 C42 1.429 . S
C496 C134 1.420 . S
C531 C173 1.420 . S
C546 C55 1.430 . S
C581 C68 1.429 . S
C596 C186 1.421 . S
C631 C199 1.421 . S
C646 C81 1.429 . S
C681 C160 1.421 . S
C696 C96 1.429 . S
C731 C75 1.421 . S
C746 C109 1.430 . S
C781 C88 1.421 . S
C796 C122 1.429 . S
C831 C135 1.429 . S
C846 C95 1.421 . S
C881 C62 1.421 . S
C896 C146 1.429 . S
C931 C49 1.421 . S
C946 C161 1.429 . S
C981 C174 1.429 . S
C996 C10 1.421 . S
C1031 C187 1.430 . S
C1046 C23 1.421 . S
C1081 C200 1.429 . S
C1096 C30 1.421 . S
C1131 C213 1.430 . S
C1146 C309 1.420 . S
C1181 C264 1.420 . S
C1196 C224 1.429 . S
C1231 C239 1.429 . S
C1246 C231 1.421 . S
C1281 C250 1.429 . S
C1296 C238 1.421 . S
C1331 C257 1.421 . S
C1346 C265 1.430 . S
C1381 C278 1.429 . S
C1396 C290 1.421 . S
C1431 C212 1.421 . S
C1446 C291 1.429 . S
C1481 C277 1.421 . S
C1496 C302 1.429 . S
C1531 C5 1.645 . S
C1546 C83 1.645 . S
C1581 C18 1.645 . S
C1596 C94 1.645 . S
C1631 C29 1.645 . S
C1646 C57 1.645 . S
C1681 C70 1.645 . S
C1696 C44 1.645 . S
C1731 C133 1.645 . S
C1746 C107 1.645 . S
C1781 C120 1.645 . S
C1796 C148 1.645 . S
C1831 C159 1.645 . S
C1846 C185 1.645 . S
C1881 C198 1.645 . S
C1896 C172 1.645 . S
C1931 C226 1.645 . S
C1946 C211 1.645 . S
C1981 C237 1.645 . S
C1996 C304 1.644 . S
C2031 C252 1.645 . S
C2046 C276 1.645 . S
C2081 C263 1.645 . S
C2096 C289 1.645 . S
C2131 C4 0.848 . S
C2146 C69 0.848 . S
C2181 C17 0.848 . S
C2196 C82 0.848 . S
C2231 C36 0.848 . S
C2246 C101 0.848 . S
C2281 C56 0.848 . S
C2296 C43 0.848 . S
C2331 C114 0.848 . S
C2346 C303 0.848 . S
C2381 C127 0.848 . S
C2396 C283 0.848 . S
C2431 C296 0.848 . S
C2446 C140 0.848 . S
C2481 C147 0.848 . S
C2496 C218 0.848 . S
C2531 C270 0.848 . S
C2546 C166 0.848 . S
C2581 C225 0.848 . S
C2596 C179 0.848 . S
C2631 C192 0.848 . S
C2646 C244 0.848 . S
C2681 C251 0.848 . S
C2696 C205 0.848 . S
