# Generated by pormake.
# Topology smu, (6)-cn, num edge types: 1
# Building blocks:
#     Node 0, Type 0, BuildingBlock: LEVNOQ01_clean_sbu_1, # of connection points: 6
#     Node 1, Type 0, BuildingBlock: LEVNOQ01_clean_sbu_1, # of connection points: 6
#     Node 2, Type 0, BuildingBlock: LEVNOQ01_clean_sbu_1, # of connection points: 6
#     Node 3, Type 0, BuildingBlock: LEVNOQ01_clean_sbu_1, # of connection points: 6
#     Node 4, Type 0, BuildingBlock: LEVNOQ01_clean_sbu_1, # of connection points: 6
#     Node 5, Type 0, BuildingBlock: LEVNOQ01_clean_sbu_1, # of connection points: 6
#     Edge 6, Type (0, 0), BuildingBlock: MIFKUJ_clean_linker_0, # of connection points: 2
#     Edge 7, Type (0, 0), BuildingBlock: MIFKUJ_clean_linker_0, # of connection points: 2
#     Edge 8, Type (0, 0), BuildingBlock: MIFKUJ_clean_linker_0, # of connection points: 2
#     Edge 9, Type (0, 0), BuildingBlock: MIFKUJ_clean_linker_0, # of connection points: 2
#     Edge 10, Type (0, 0), BuildingBlock: MIFKUJ_clean_linker_0, # of connection points: 2
#     Edge 11, Type (0, 0), BuildingBlock: MIFKUJ_clean_linker_0, # of connection points: 2
#     Edge 12, Type (0, 0), BuildingBlock: MIFKUJ_clean_linker_0, # of connection points: 2
#     Edge 13, Type (0, 0), BuildingBlock: MIFKUJ_clean_linker_0, # of connection points: 2
#     Edge 14, Type (0, 0), BuildingBlock: MIFKUJ_clean_linker_0, # of connection points: 2
#     Edge 15, Type (0, 0), BuildingBlock: MIFKUJ_clean_linker_0, # of connection points: 2
#     Edge 16, Type (0, 0), BuildingBlock: MIFKUJ_clean_linker_0, # of connection points: 2
#     Edge 17, Type (0, 0), BuildingBlock: MIFKUJ_clean_linker_0, # of connection points: 2
#     Edge 18, Type (0, 0), BuildingBlock: MIFKUJ_clean_linker_0, # of connection points: 2
#     Edge 19, Type (0, 0), BuildingBlock: MIFKUJ_clean_linker_0, # of connection points: 2
#     Edge 20, Type (0, 0), BuildingBlock: MIFKUJ_clean_linker_0, # of connection points: 2
#     Edge 21, Type (0, 0), BuildingBlock: MIFKUJ_clean_linker_0, # of connection points: 2
#     Edge 22, Type (0, 0), BuildingBlock: MIFKUJ_clean_linker_0, # of connection points: 2
#     Edge 23, Type (0, 0), BuildingBlock: MIFKUJ_clean_linker_0, # of connection points: 2
# Relax obj value: 0.254
# Max RMSD: 0.254
# Mean RMSD: 0.254
data_MOF--net-smu--node1-LEVNOQ01_clean_sbu_1--edge1-MIFKUJ_clean_linker_0
_symmetry_space_group_name_H-M    P1
_symmetry_Int_Tables_number       1
_symmetry_cell_setting            triclinic
loop_
_symmetry_equiv_pos_as_xyz
'x, y, z'
_cell_length_a     38.517128
_cell_length_b     38.468592
_cell_length_c     38.596972
_cell_angle_alpha  89.98834
_cell_angle_beta   90.256647
_cell_angle_gamma 119.79679
loop_
_atom_site_label
_atom_site_type_symbol
_atom_site_fract_x
_atom_site_fract_y
_atom_site_fract_z
_atom_type_partial_charge
O0 O 0.38164 0.04813 0.29359 0.0
Mg1 Mg 0.36708 0.0912 0.31023 0.0
O2 O 0.35206 0.04861 0.24499 0.0
Mg3 Mg 0.30548 0.07014 0.25435 0.0
O4 O 0.30747 0.0706 0.31548 0.0
O5 O 0.35061 0.08799 0.36019 0.0
O6 O 0.26294 0.09613 0.26187 0.0
O7 O 0.25258 0.00506 0.26611 0.0
Mg8 Mg 0.24364 0.03266 0.20727 0.0
O9 O 0.30231 0.06637 0.19219 0.0
O10 O 0.21071 0.05683 0.22967 0.0
O11 O 0.22523 0.97263 0.21839 0.0
O12 O 0.24875 0.04425 0.1566 0.0
C13 C 0.38802 0.16125 0.26395 0.0
C14 C 0.37623 0.04094 0.2615 0.0
C15 C 0.31449 0.07354 0.34876 0.0
C16 C 0.22755 0.08485 0.25143 0.0
C17 C 0.22764 0.97265 0.25094 0.0
C18 C 0.28688 0.06056 0.16101 0.0
O19 O 0.39881 0.14948 0.29041 0.0
O20 O 0.35634 0.13719 0.24718 0.0
O21 O 0.63898 0.58026 0.30011 0.0
Mg22 Mg 0.69523 0.58932 0.3135 0.0
O23 O 0.66441 0.59626 0.24814 0.0
Mg24 Mg 0.73118 0.64879 0.25687 0.0
O25 O 0.73212 0.64875 0.31741 0.0
O26 O 0.71274 0.60705 0.36296 0.0
O27 O 0.79754 0.69655 0.26633 0.0
O28 O 0.70901 0.69499 0.26733 0.0
Mg29 Mg 0.7486 0.70682 0.21382 0.0
O30 O 0.73209 0.65103 0.19437 0.0
O31 O 0.80032 0.7486 0.2412 0.0
O32 O 0.69906 0.71484 0.21733 0.0
O33 O 0.76601 0.70893 0.16489 0.0
C34 C 0.7438 0.56961 0.26479 0.0
C35 C 0.63421 0.57639 0.26774 0.0
C36 C 0.73042 0.64297 0.35071 0.0
C37 C 0.81604 0.73397 0.26073 0.0
C38 C 0.69644 0.7147 0.24984 0.0
C39 C 0.74564 0.67039 0.16522 0.0
O40 O 0.71861 0.55628 0.28917 0.0
O41 O 0.75394 0.60334 0.25076 0.0
O42 O 0.91183 0.31856 0.28497 0.0
Mg43 Mg 0.86504 0.26208 0.30047 0.0
O44 O 0.89386 0.28163 0.23871 0.0
Mg45 Mg 0.88052 0.21713 0.25392 0.0
O46 O 0.88201 0.22152 0.31568 0.0
O47 O 0.8635 0.25503 0.35206 0.0
O48 O 0.8629 0.15123 0.26615 0.0
O49 O 0.94877 0.23917 0.26131 0.0
Mg50 Mg 0.91742 0.19012 0.20509 0.0
O51 O 0.88175 0.21343 0.1928 0.0
O52 O 0.90224 0.13864 0.23397 0.0
O53 O -0.0246 0.23762 0.2116 0.0
O54 O 0.89471 0.17566 0.15664 0.0
C55 C 0.79117 0.20888 0.25992 0.0
C56 C 0.90787 0.31606 0.25256 0.0
C57 C 0.87717 0.23088 0.34712 0.0
C58 C 0.87641 0.12833 0.25746 0.0
C59 C -0.02044 0.24718 0.24326 0.0
C60 C 0.88312 0.20149 0.16143 0.0
O61 O 0.80647 0.23932 0.27956 0.0
O62 O 0.81221 0.19398 0.24906 0.0
O63 O 0.97042 0.26113 0.77601 0.0
Mg64 Mg 0.02614 0.26584 0.78648 0.0
O65 O 0.00359 0.26604 0.72971 0.0
Mg66 Mg 0.06787 0.31949 0.74771 0.0
O67 O 0.06273 0.31775 0.81125 0.0
O68 O 0.02795 0.25736 0.837 0.0
O69 O 0.1334 0.3699 0.75979 0.0
O70 O 0.04447 0.36495 0.7517 0.0
Mg71 Mg 0.10124 0.38458 0.68863 0.0
O72 O 0.07441 0.32393 0.68786 0.0
O73 O 0.15596 0.41196 0.71546 0.0
O74 O 0.05916 0.4011 0.70375 0.0
O75 O 0.09788 0.36143 0.64026 0.0
C76 C 0.07636 0.24057 0.75121 0.0
C77 C 0.97025 0.24997 0.74543 0.0
C78 C 0.04998 0.29564 0.83914 0.0
C79 C 0.16118 0.40085 0.74494 0.0
C80 C 0.04282 0.39171 0.73329 0.0
C81 C 0.07814 0.32653 0.65435 0.0
O82 O 0.0423 0.22488 0.76513 0.0
O83 O 0.09456 0.2778 0.74479 0.0
O84 O 0.24021 -0.01184 0.78767 0.0
Mg85 Mg 0.19377 0.92931 0.78933 0.0
O86 O 0.23334 0.95965 0.73751 0.0
Mg87 Mg 0.21262 0.89149 0.75151 0.0
O88 O 0.21431 0.89643 0.81432 0.0
O89 O 0.17445 0.91671 0.83822 0.0
O90 O 0.19154 0.82373 0.76115 0.0
O91 O 0.27868 0.90729 0.76204 0.0
Mg92 Mg 0.25006 0.86591 0.69889 0.0
O93 O 0.21317 0.8888 0.69015 0.0
O94 O 0.22231 0.80825 0.72084 0.0
O95 O 0.30833 0.90948 0.71342 0.0
O96 O 0.23705 0.86579 0.64835 0.0
C97 C 0.12468 0.88699 0.74786 0.0
C98 C 0.24471 -0.00853 0.75538 0.0
C99 C 0.20027 0.90506 0.84168 0.0
C100 C 0.19912 0.79848 0.74659 0.0
C101 C 0.31025 0.91455 0.74578 0.0
C102 C 0.21718 0.88318 0.65738 0.0
O103 O 0.14074 0.91909 0.76485 0.0
O104 O 0.14458 0.8693 0.74254 0.0
O105 O 0.71705 0.72063 0.79377 0.0
Mg106 Mg 0.70021 0.76371 0.80139 0.0
O107 O 0.68975 0.72099 0.74411 0.0
Mg108 Mg 0.64185 0.74105 0.75337 0.0
O109 O 0.64201 0.73996 0.81569 0.0
O110 O 0.69487 0.77281 0.85151 0.0
O111 O 0.59613 0.76313 0.75943 0.0
O112 O 0.59272 0.67432 0.76467 0.0
Mg113 Mg 0.58368 0.7011 0.70521 0.0
O114 O 0.6416 0.74055 0.69128 0.0
O115 O 0.54658 0.72222 0.72552 0.0
O116 O 0.57117 0.64262 0.71565 0.0
O117 O 0.58956 0.71111 0.65426 0.0
C118 C 0.72186 0.83272 0.75825 0.0
C119 C 0.71279 0.71277 0.76183 0.0
C120 C 0.65692 0.75043 0.84691 0.0
C121 C 0.56121 0.75071 0.74715 0.0
C122 C 0.57208 0.64161 0.74818 0.0
C123 C 0.62748 0.7332 0.65964 0.0
O124 O 0.73615 0.82054 0.78154 0.0
O125 O 0.68788 0.80887 0.74505 0.0
H126 H 0.2265 0.97692 0.86969 0.0
H127 H 0.26464 0.00466 0.92204 0.0
H128 H 0.27105 0.8969 0.93781 0.0
H129 H 0.23147 0.86806 0.88403 0.0
H130 H 0.24317 0.92021 0.99423 0.0
H131 H 0.35828 -0.01285 0.92119 0.0
H132 H 0.39418 0.02512 0.86923 0.0
H133 H 0.37549 0.12199 0.89941 0.0
H134 H 0.33915 0.0845 0.95132 0.0
H135 H 0.32644 0.02001 0.15163 0.0
H136 H 0.33221 -0.00599 0.09529 0.0
H137 H 0.30052 0.07396 0.04396 0.0
H138 H 0.29298 0.09864 0.10028 0.0
H139 H 0.35666 0.05902 0.00624 0.0
H140 H 0.22906 -0.00588 0.05932 0.0
H141 H 0.17339 0.95605 0.09958 0.0
H142 H 0.19844 0.85905 0.09858 0.0
H143 H 0.25494 0.897 0.05885 0.0
C144 C 0.23594 0.95885 0.88412 0.0
C145 C 0.22519 0.91986 0.87323 0.0
C146 C 0.25856 0.97523 0.91381 0.0
C147 C 0.27162 0.95339 0.9335 0.0
C148 C 0.26176 0.91452 0.92256 0.0
C149 C 0.23907 0.89798 0.89213 0.0
C150 C 0.29058 0.97009 0.96758 0.0
C151 C 0.2692 0.94981 0.99712 0.0
C152 C 0.32309 0.00977 0.97094 0.0
C153 C 0.34613 0.03301 0.94029 0.0
C154 C 0.36184 0.01655 0.91676 0.0
C155 C 0.38224 0.03799 0.88729 0.0
C156 C 0.38716 0.07596 0.88106 0.0
C157 C 0.3718 0.09264 0.90433 0.0
C158 C 0.35143 0.07136 0.93386 0.0
C159 C 0.32298 0.03366 0.12827 0.0
C160 C 0.30962 0.06157 0.13021 0.0
C161 C 0.32567 0.01832 0.09612 0.0
C162 C 0.31619 0.03164 0.06556 0.0
C163 C 0.30797 0.0633 0.06726 0.0
C164 C 0.30416 0.07778 0.09942 0.0
C165 C 0.30899 0.00901 0.03272 0.0
C166 C 0.33221 0.02849 1.00363 0.0
C167 C 0.27695 0.96919 0.02931 0.0
C168 C 0.24697 0.94888 0.05691 0.0
C169 C 0.2236 0.96527 0.06858 0.0
C170 C 0.19164 0.94355 0.09104 0.0
C171 C 0.18256 0.90526 0.10168 0.0
C172 C 0.20576 0.88884 0.09044 0.0
C173 C 0.23784 0.9105 0.06809 0.0
H174 H 0.15726 0.88806 0.11823 0.0
H175 H 0.40286 0.09245 0.85817 0.0
H176 H 0.60601 0.73233 0.59258 0.0
H177 H 0.64336 0.73392 0.54152 0.0
H178 H 0.74624 0.76163 0.60509 0.0
H179 H 0.70844 0.75949 0.65717 0.0
H180 H 0.75039 0.80182 0.5255 0.0
H181 H 0.71424 0.68127 0.59388 0.0
H182 H 0.66754 0.62414 0.62984 0.0
H183 H 0.58102 0.58168 0.54723 0.0
H184 H 0.62686 0.63907 0.51107 0.0
H185 H 0.79441 0.67908 0.39452 0.0
H186 H 0.79571 0.71382 0.44852 0.0
H187 H 0.68484 0.70781 0.41881 0.0
H188 H 0.68457 0.6751 0.36444 0.0
H189 H 0.70022 0.66174 0.48666 0.0
H190 H 0.72666 0.78307 0.4235 0.0
H191 H 0.76772 0.83953 0.38466 0.0
H192 H 0.86763 0.8796 0.4544 0.0
H193 H 0.82728 0.82264 0.49328 0.0
C194 C 0.6369 0.73977 0.59587 0.0
C195 C 0.65405 0.74507 0.62908 0.0
C196 C 0.65822 0.74077 0.56654 0.0
C197 C 0.69727 0.74748 0.56965 0.0
C198 C 0.71601 0.7564 0.60231 0.0
C199 C 0.69444 0.75519 0.63198 0.0
C200 C 0.71532 0.73945 0.53917 0.0
C201 C 0.74045 0.77128 0.5174 0.0
C202 C 0.70134 0.69952 0.52829 0.0
C203 C 0.67384 0.66476 0.54992 0.0
C204 C 0.68508 0.66003 0.58354 0.0
C205 C 0.65878 0.62754 0.60393 0.0
C206 C 0.62128 0.59936 0.59087 0.0
C207 C 0.61004 0.60357 0.55735 0.0
C208 C 0.63617 0.63607 0.5369 0.0
C209 C 0.77173 0.68743 0.39876 0.0
C210 C 0.73995 0.67553 0.3752 0.0
C211 C 0.77228 0.70688 0.42961 0.0
C212 C 0.74059 0.71369 0.43734 0.0
C213 C 0.71005 0.70372 0.41286 0.0
C214 C 0.71005 0.6853 0.38176 0.0
C215 C 0.73503 0.72402 0.47292 0.0
C216 C 0.71162 0.69236 0.49537 0.0
C217 C 0.75009 0.76393 0.48408 0.0
C218 C 0.77424 0.79818 0.46091 0.0
C219 C 0.75757 0.8035 0.43025 0.0
C220 C 0.78066 0.83567 0.40829 0.0
C221 C 0.82035 0.86302 0.41695 0.0
C222 C 0.83695 0.85829 0.44765 0.0
C223 C 0.81399 0.82604 0.46964 0.0
H224 H 0.83816 0.88797 0.39996 0.0
H225 H 0.60099 0.57422 0.60668 0.0
H226 H 0.95133 0.26936 0.15606 0.0
H227 H -0.01512 0.29715 0.10225 0.0
H228 H 0.87343 0.22718 0.04669 0.0
H229 H 0.84162 0.1937 0.10104 0.0
H230 H 0.92048 0.21805 0.01471 0.0
H231 H 0.94122 0.34625 0.05827 0.0
H232 H 0.96268 0.40004 0.10195 0.0
H233 H 0.08143 0.41653 0.10141 0.0
H234 H 0.06062 0.36267 0.05804 0.0
H235 H 0.00866 0.33151 0.8582 0.0
H236 H -0.01781 0.32683 0.91665 0.0
H237 H 0.06342 0.28954 0.95592 0.0
H238 H 0.08828 0.29186 0.897 0.0
H239 H 0.03268 0.3554 0.99373 0.0
H240 H 0.00717 0.22026 0.95696 0.0
H241 H -0.01513 0.16537 0.91443 0.0
H242 H 0.87236 0.1622 0.90338 0.0
H243 H 0.89465 0.21811 0.94499 0.0
C244 C 0.9335 0.26123 0.13253 0.0
C245 C 0.89367 0.22995 0.13279 0.0
C246 C 0.95286 0.2775 0.10136 0.0
C247 C 0.93201 0.26542 0.06967 0.0
C248 C 0.89067 0.23714 0.07047 0.0
C249 C 0.87199 0.21864 0.10164 0.0
C250 C 0.95413 0.27793 0.03595 0.0
C251 C 0.94434 0.24846 0.01024 0.0
C252 C -0.01332 0.31716 0.02976 0.0
C253 C -0.00069 0.35042 0.05496 0.0
C254 C 0.9719 0.3614 0.06747 0.0
C255 C -0.01605 0.39186 0.0922 0.0
C256 C 0.02338 0.41167 0.10445 0.0
C257 C 0.05092 0.40122 0.09188 0.0
C258 C 0.03905 0.37082 0.06716 0.0
C259 C 0.02238 0.32444 0.8796 0.0
C260 C 0.05099 0.31272 0.87329 0.0
C261 C 0.00672 0.32105 0.91284 0.0
C262 C 0.02017 0.30682 0.94024 0.0
C263 C 0.05222 0.29988 0.93485 0.0
C264 C 0.06704 0.30208 0.9014 0.0
C265 C -0.00178 0.2958 0.97341 0.0
C266 C 0.00819 0.32539 0.99863 0.0
C267 C 0.96581 0.25685 0.97919 0.0
C268 C 0.95311 0.22426 0.95324 0.0
C269 C -0.02186 0.20865 0.94475 0.0
C270 C 0.96539 0.17716 0.92097 0.0
C271 C 0.92735 0.16054 0.90596 0.0
C272 C 0.90197 0.17534 0.91476 0.0
C273 C 0.91472 0.20704 0.93833 0.0
H274 H 0.91744 0.13601 0.88772 0.0
H275 H 0.0326 0.43515 0.12367 0.0
H276 H 0.30502 0.1136 0.40192 0.0
H277 H 0.26952 0.08343 0.45572 0.0
H278 H 0.22083 0.96596 0.40978 0.0
H279 H 0.25467 -0.00348 0.35525 0.0
H280 H 0.1712 0.96313 0.45681 0.0
H281 H 0.31192 0.01196 0.45372 0.0
H282 H 0.3834 0.06114 0.44588 0.0
H283 H 0.37752 0.13355 0.52776 0.0
H284 H 0.30577 0.08506 0.53575 0.0
H285 H 0.1888 0.8508 0.59436 0.0
H286 H 0.187 0.88628 0.54274 0.0
H287 H 0.21676 -0.00914 0.60474 0.0
H288 H 0.21893 0.95512 0.65679 0.0
H289 H 0.2702 0.00543 0.55278 0.0
H290 H 0.12686 0.94169 0.56012 0.0
H291 H 0.05882 0.88405 0.56685 0.0
H292 H 0.07411 0.82971 0.47534 0.0
H293 H 0.14246 0.88671 0.46834 0.0
C294 C 0.28504 0.08149 0.40283 0.0
C295 C 0.28231 0.05732 0.37455 0.0
C296 C 0.26523 0.06419 0.43372 0.0
C297 C 0.24364 0.02232 0.43727 0.0
C298 C 0.23755 -0.00168 0.40783 0.0
C299 C 0.25665 0.01577 0.37657 0.0
C300 C 0.23204 0.00375 0.47227 0.0
C301 C 0.19283 0.9724 0.4778 0.0
C302 C 0.26022 0.01576 0.49984 0.0
C303 C 0.30333 0.04517 0.49498 0.0
C304 C 0.32578 0.03855 0.46984 0.0
C305 C 0.36635 0.06627 0.4654 0.0
C306 C 0.38495 0.10052 0.48622 0.0
C307 C 0.36303 0.10707 0.51158 0.0
C308 C 0.3224 0.07949 0.51607 0.0
C309 C 0.19341 0.88084 0.5972 0.0
C310 C 0.20386 0.90022 0.62955 0.0
C311 C 0.1923 0.90111 0.56764 0.0
C312 C 0.20162 0.94124 0.56978 0.0
C313 C 0.20925 0.95981 0.60251 0.0
C314 C 0.21005 0.9393 0.63229 0.0
C315 C 0.20932 0.96494 0.53742 0.0
C316 C 0.24815 -0.003 0.53219 0.0
C317 C 0.18121 0.95254 0.50988 0.0
C318 C 0.13985 0.91849 0.51376 0.0
C319 C 0.11579 0.91737 0.54152 0.0
C320 C 0.07716 0.8848 0.54538 0.0
C321 C 0.06217 0.85323 0.52155 0.0
C322 C 0.08575 0.85419 0.49377 0.0
C323 C 0.12441 0.88667 0.4898 0.0
H324 H 0.03226 0.82804 0.5246 0.0
H325 H 0.41638 0.12192 0.48278 0.0
H326 H 0.63014 0.771 0.90501 0.0
H327 H 0.62678 0.74158 0.96208 0.0
H328 H 0.64618 0.65138 0.91337 0.0
H329 H 0.64222 0.67646 0.85717 0.0
H330 H 0.61916 0.62131 0.96492 0.0
H331 H 0.72625 0.76044 0.95015 0.0
H332 H 0.7554 0.8334 0.94228 0.0
H333 H 0.69448 0.83918 0.03311 0.0
H334 H 0.66485 0.76626 0.04139 0.0
H335 H 0.78384 0.68048 0.10398 0.0
H336 H 0.75352 0.67957 0.04784 0.0
H337 H 0.63717 0.6241 0.09536 0.0
H338 H 0.66711 0.62343 0.15107 0.0
H339 H 0.70702 0.72443 0.05004 0.0
H340 H 0.60055 0.57173 0.05366 0.0
H341 H 0.59215 0.50388 0.05744 0.0
H342 H 0.67964 0.53337 0.97751 0.0
H343 H 0.68909 0.60164 0.97391 0.0
C344 C 0.63065 0.74315 0.90671 0.0
C345 C 0.63582 0.72556 0.87679 0.0
C346 C 0.63036 0.72712 0.93944 0.0
C347 C 0.63873 0.69548 0.94277 0.0
C348 C 0.63983 0.67579 0.91238 0.0
C349 C 0.6372 0.69 0.87985 0.0
C350 C 0.65004 0.68481 0.9768 0.0
C351 C 0.63839 0.64433 0.9832 0.0
C352 C 0.67556 0.71415 1.00141 0.0
C353 C 0.69289 0.75786 0.99608 0.0
C354 C 0.71891 0.77727 0.96829 0.0
C355 C 0.73554 0.81861 0.9638 0.0
C356 C 0.72666 0.84088 0.9871 0.0
C357 C 0.70123 0.82189 0.01502 0.0
C358 C 0.68452 0.78058 0.01963 0.0
C359 C 0.75153 0.66561 0.10189 0.0
C360 C 0.72776 0.65163 0.13176 0.0
C361 C 0.7343 0.6657 0.06995 0.0
C362 C 0.69313 0.65185 0.0675 0.0
C363 C 0.66886 0.63412 0.09651 0.0
C364 C 0.686 0.63337 0.12834 0.0
C365 C 0.67686 0.66191 0.03667 0.0
C366 C 0.68754 0.70204 0.03135 0.0
C367 C 0.65255 0.63292 0.0121 0.0
C368 C 0.64577 0.59168 0.01381 0.0
C369 C 0.61818 0.56377 0.03715 0.0
C370 C 0.61323 0.52527 0.03923 0.0
C371 C 0.63542 0.51435 0.01779 0.0
C372 C 0.66254 0.54187 0.99416 0.0
C373 C 0.66773 0.58045 0.99213 0.0
H374 H 0.63154 0.48453 0.01944 0.0
H375 H 0.73958 0.87286 0.98358 0.0
H376 H 0.94145 0.21879 0.35428 0.0
H377 H 0.97183 0.21563 0.40957 0.0
H378 H 0.87223 0.21054 0.46469 0.0
H379 H 0.84237 0.21419 0.41003 0.0
H380 H 0.94274 0.27503 0.4825 0.0
H381 H 0.89046 0.13329 0.46792 0.0
H382 H 0.8801 0.07194 0.4387 0.0
H383 H 0.0067 0.1161 0.43997 0.0
H384 H 0.01791 0.17804 0.46891 0.0
H385 H -0.00191 0.27752 0.65376 0.0
H386 H 0.95881 0.24205 0.60238 0.0
H387 H 0.06694 0.26593 0.54976 0.0
H388 H 0.10629 0.30239 0.60077 0.0
H389 H -0.0062 0.18928 0.53059 0.0
H390 H 0.04745 0.33126 0.54017 0.0
H391 H 0.06094 0.39485 0.56712 0.0
H392 H 0.93491 0.35327 0.57089 0.0
H393 H 0.9206 0.28888 0.54483 0.0
C394 C 0.92542 0.21542 0.37815 0.0
C395 C 0.8898 0.21714 0.37797 0.0
C396 C 0.94281 0.21372 0.40974 0.0
C397 C 0.92447 0.21328 0.44132 0.0
C398 C 0.88706 0.21117 0.44071 0.0
C399 C 0.86998 0.21319 0.40943 0.0
C400 C 0.94643 0.22148 0.47481 0.0
C401 C 0.95318 0.25576 0.49325 0.0
C402 C 0.96166 0.1974 0.48814 0.0
C403 C 0.95505 0.16053 0.47019 0.0
C404 C 0.91615 0.13016 0.46159 0.0
C405 C 0.91011 0.0952 0.44516 0.0
C406 C 0.94271 0.09016 0.43731 0.0
C407 C -0.01854 0.12007 0.44597 0.0
C408 C -0.01232 0.1551 0.46242 0.0
C409 C 0.01315 0.27314 0.63198 0.0
C410 C 0.05505 0.29221 0.63122 0.0
C411 C -0.00922 0.25329 0.60249 0.0
C412 C 0.0101 0.25182 0.57218 0.0
C413 C 0.05151 0.26664 0.57291 0.0
C414 C 0.07393 0.28727 0.6021 0.0
C415 C -0.01137 0.24188 0.5385 0.0
C416 C -0.01731 0.20799 0.51989 0.0
C417 C -0.02554 0.26658 0.52457 0.0
C418 C -0.01708 0.30485 0.54122 0.0
C419 C 0.02256 0.33531 0.54737 0.0
C420 C 0.03037 0.37159 0.56236 0.0
C421 C -0.00121 0.37802 0.57089 0.0
C422 C 0.95933 0.34817 0.56445 0.0
C423 C 0.95136 0.31173 0.54965 0.0
H424 H 0.0049 0.40621 0.58233 0.0
H425 H 0.93793 0.06302 0.42463 0.0
H426 H 0.41251 -0.00331 0.27479 0.0
H427 H 0.48302 0.01995 0.26288 0.0
H428 H 0.48861 0.11503 0.19943 0.0
H429 H 0.41759 0.08947 0.20859 0.0
H430 H 0.54518 0.107 0.18006 0.0
H431 H 0.50574 0.12502 0.28991 0.0
H432 H 0.46779 0.10748 0.34449 0.0
H433 H 0.51881 0.0348 0.37428 0.0
H434 H 0.5566 0.05138 0.31954 0.0
H435 H 0.7465 0.24523 0.25086 0.0
H436 H 0.67381 0.21278 0.24182 0.0
H437 H 0.666 0.09705 0.24275 0.0
H438 H 0.73878 0.1293 0.25078 0.0
H439 H 0.61268 0.1211 0.29329 0.0
H440 H 0.65244 0.11384 0.17063 0.0
H441 H 0.69363 0.15059 0.12023 0.0
H442 H 0.6452 0.22986 0.12274 0.0
H443 H 0.60381 0.19357 0.1732 0.0
C444 C 0.42826 0.02095 0.25658 0.0
C445 C 0.40971 0.04142 0.24283 0.0
C446 C 0.4688 0.03485 0.25032 0.0
C447 C 0.49177 0.07062 0.23178 0.0
C448 C 0.47194 0.0878 0.21429 0.0
C449 C 0.43104 0.07288 0.21935 0.0
C450 C 0.53631 0.0928 0.23462 0.0
C451 C 0.55967 0.10985 0.20488 0.0
C452 C 0.55586 0.09879 0.2672 0.0
C453 C 0.53367 0.08908 0.30044 0.0
C454 C 0.50871 0.10511 0.30801 0.0
C455 C 0.48722 0.09534 0.33897 0.0
C456 C 0.49081 0.06996 0.3628 0.0
C457 C 0.51601 0.0544 0.35575 0.0
C458 C 0.53748 0.06397 0.32476 0.0
C459 C 0.72927 0.21288 0.24874 0.0
C460 C 0.74814 0.18969 0.25143 0.0
C461 C 0.68789 0.19448 0.24362 0.0
C462 C 0.66476 0.15262 0.24176 0.0
C463 C 0.68354 0.12943 0.24407 0.0
C464 C 0.72502 0.14785 0.24843 0.0
C465 C 0.62075 0.13279 0.23862 0.0
C466 C 0.59772 0.11722 0.26852 0.0
C467 C 0.60167 0.13057 0.20675 0.0
C468 C 0.6251 0.15102 0.17555 0.0
C469 C 0.65058 0.13907 0.16035 0.0
C470 C 0.67394 0.15981 0.1318 0.0
C471 C 0.67201 0.19252 0.11827 0.0
C472 C 0.64656 0.20445 0.13316 0.0
C473 C 0.62306 0.18372 0.16165 0.0
H474 H 0.69024 0.20864 0.09626 0.0
H475 H 0.47414 0.06241 0.38676 0.0
H476 H 0.61538 0.54674 0.20079 0.0
H477 H 0.57009 0.47605 0.18514 0.0
H478 H 0.53367 0.44939 0.29172 0.0
H479 H 0.57555 0.51902 0.3071 0.0
H480 H 0.57813 0.40808 0.23921 0.0
H481 H 0.46443 0.42887 0.27677 0.0
H482 H 0.43373 0.47156 0.27052 0.0
H483 H 0.42434 0.45192 0.16051 0.0
H484 H 0.45638 0.41019 0.16612 0.0
H485 H 0.44366 0.22135 0.30376 0.0
H486 H 0.48216 0.29211 0.29058 0.0
H487 H 0.42567 0.27056 0.19006 0.0
H488 H 0.3854 0.19869 0.20365 0.0
H489 H 0.43079 0.33686 0.22219 0.0
H490 H 0.52293 0.28877 0.19861 0.0
H491 H 0.55749 0.25103 0.21265 0.0
H492 H 0.61031 0.32449 0.30269 0.0
H493 H 0.5757 0.36233 0.2895 0.0
C494 C 0.59642 0.52609 0.22053 0.0
C495 C 0.59947 0.53865 0.25524 0.0
C496 C 0.57102 0.48574 0.21164 0.0
C497 C 0.5489 0.45776 0.23742 0.0
C498 C 0.5502 0.47069 0.27144 0.0
C499 C 0.57427 0.51077 0.2801 0.0
C500 C 0.52635 0.41435 0.23037 0.0
C501 C 0.54604 0.3923 0.2348 0.0
C502 C 0.48464 0.39421 0.22502 0.0
C503 C 0.46303 0.41682 0.2218 0.0
C504 C 0.456 0.43386 0.25125 0.0
C505 C 0.43848 0.45795 0.24783 0.0
C506 C 0.42716 0.46453 0.21512 0.0
C507 C 0.43323 0.44689 0.18581 0.0
C508 C 0.45119 0.42313 0.18908 0.0
C509 C 0.43943 0.23132 0.27866 0.0
C510 C 0.41172 0.20416 0.25454 0.0
C511 C 0.46167 0.27196 0.27113 0.0
C512 C 0.4576 0.28654 0.23899 0.0
C513 C 0.42957 0.2598 0.2149 0.0
C514 C 0.4067 0.21882 0.22263 0.0
C515 C 0.4824 0.32997 0.2315 0.0
C516 C 0.4631 0.35219 0.2249 0.0
C517 C 0.52461 0.35029 0.23571 0.0
C518 C 0.54668 0.32845 0.24299 0.0
C519 C 0.5419 0.29688 0.22141 0.0
C520 C 0.56147 0.27543 0.22925 0.0
C521 C 0.58608 0.28536 0.25853 0.0
C522 C 0.5913 0.31688 0.27997 0.0
C523 C 0.5718 0.33841 0.27226 0.0
H524 H 0.60111 0.26865 0.2646 0.0
H525 H 0.41362 0.48322 0.2125 0.0
H526 H 0.83427 0.29846 0.23497 0.0
H527 H 0.81006 0.34489 0.22854 0.0
H528 H 0.93179 0.44337 0.2253 0.0
H529 H 0.95586 0.3962 0.23784 0.0
H530 H 0.8956 0.4631 0.26488 0.0
H531 H 0.85109 0.40144 0.15025 0.0
H532 H 0.81656 0.34255 0.11176 0.0
H533 H 0.70689 0.30392 0.16698 0.0
H534 H 0.74073 0.36237 0.20586 0.0
H535 H 0.81837 0.59684 0.23753 0.0
H536 H 0.85119 0.55723 0.22587 0.0
H537 H 0.74412 0.44982 0.25677 0.0
H538 H 0.71153 0.48905 0.2689 0.0
H539 H 0.77709 0.44046 0.19617 0.0
H540 H 0.81505 0.48909 0.31163 0.0
H541 H 0.84386 0.53792 0.35942 0.0
H542 H 0.95903 0.5921 0.31077 0.0
H543 H 0.93073 0.54398 0.26231 0.0
C544 C 0.85598 0.32991 0.23193 0.0
C545 C 0.89692 0.3438 0.2365 0.0
C546 C 0.84203 0.35668 0.22765 0.0
C547 C 0.86886 0.39798 0.22507 0.0
C548 C 0.91029 0.41168 0.22699 0.0
C549 C 0.9242 0.38484 0.23361 0.0
C550 C 0.85348 0.42673 0.22514 0.0
C551 C 0.87059 0.45883 0.24882 0.0
C552 C 0.81927 0.42016 0.20573 0.0
C553 C 0.7985 0.38638 0.18091 0.0
C554 C 0.81958 0.3805 0.15405 0.0
C555 C 0.80012 0.34714 0.13222 0.0
C556 C 0.75956 0.31953 0.13692 0.0
C557 C 0.73826 0.32538 0.16329 0.0
C558 C 0.75752 0.35872 0.18512 0.0
C559 C 0.80177 0.56472 0.24136 0.0
C560 C 0.76249 0.54596 0.2541 0.0
C561 C 0.82058 0.54224 0.23495 0.0
C562 C 0.80006 0.50072 0.24065 0.0
C563 C 0.7604 0.48183 0.25221 0.0
C564 C 0.74189 0.50428 0.25917 0.0
C565 C 0.81986 0.47669 0.23519 0.0
C566 C 0.80321 0.44543 0.21094 0.0
C567 C 0.85384 0.48339 0.25456 0.0
C568 C 0.87057 0.51343 0.28295 0.0
C569 C 0.84636 0.51186 0.31077 0.0
C570 C 0.86264 0.53929 0.33808 0.0
C571 C 0.9032 0.56823 0.33804 0.0
C572 C 0.92757 0.56979 0.31068 0.0
C573 C 0.91141 0.54248 0.28327 0.0
H574 H 0.91579 0.58934 0.35928 0.0
H575 H 0.74464 0.2936 0.12014 0.0
H576 H 0.01269 0.43503 0.70313 0.0
H577 H 0.03415 0.50401 0.71966 0.0
H578 H 0.08094 0.48735 0.81605 0.0
H579 H 0.05874 0.41795 0.79999 0.0
H580 H 0.05656 0.54759 0.81857 0.0
H581 H 0.1425 0.51445 0.75343 0.0
H582 H 0.15991 0.48251 0.70643 0.0
H583 H 0.13006 0.54509 0.63059 0.0
H584 H 0.11202 0.57714 0.67708 0.0
H585 H 0.19891 0.76342 0.80878 0.0
H586 H 0.16817 0.69085 0.81987 0.0
H587 H 0.11928 0.66657 0.71606 0.0
H588 H 0.15104 0.73817 0.7048 0.0
H589 H 0.15583 0.62632 0.72797 0.0
H590 H 0.06115 0.65187 0.79299 0.0
H591 H 0.04227 0.68277 0.8399 0.0
H592 H 0.08955 0.63526 0.91558 0.0
H593 H 0.10891 0.60431 0.86904 0.0
C594 C 0.02534 0.44529 0.72874 0.0
C595 C 0.03491 0.42151 0.7499 0.0
C596 C 0.03803 0.48485 0.738 0.0
C597 C 0.06045 0.501 0.76844 0.0
C598 C 0.06415 0.47548 0.79223 0.0
C599 C 0.05105 0.43564 0.78311 0.0
C600 C 0.08555 0.54496 0.77191 0.0
C601 C 0.07863 0.56492 0.79905 0.0
C602 C 0.11488 0.56739 0.74677 0.0
C603 C 0.12561 0.54798 0.71876 0.0
C604 C 0.13934 0.52117 0.72674 0.0
C605 C 0.1494 0.50309 0.70019 0.0
C606 C 0.14602 0.51166 0.66558 0.0
C607 C 0.13264 0.53844 0.65742 0.0
C608 C 0.12255 0.55662 0.68385 0.0
C609 C 0.18097 0.74229 0.78874 0.0
C610 C 0.177 0.75594 0.75602 0.0
C611 C 0.16349 0.70099 0.79502 0.0
C612 C 0.14137 0.6732 0.76876 0.0
C613 C 0.13643 0.68731 0.73662 0.0
C614 C 0.15435 0.72817 0.73023 0.0
C615 C 0.1247 0.62939 0.77311 0.0
C616 C 0.13399 0.60921 0.74774 0.0
C617 C 0.09771 0.607 0.79983 0.0
C618 C 0.08684 0.62624 0.8276 0.0
C619 C 0.06781 0.64836 0.81963 0.0
C620 C 0.05694 0.66577 0.84614 0.0
C621 C 0.06481 0.66108 0.88069 0.0
C622 C 0.08354 0.63893 0.88881 0.0
C623 C 0.09443 0.62143 0.86239 0.0
H624 H 0.05631 0.67453 0.90118 0.0
H625 H 0.15385 0.49763 0.64509 0.0
H626 H 0.29486 0.84126 0.75938 0.0
H627 H 0.34234 0.8195 0.77229 0.0
H628 H 0.43538 0.94269 0.78618 0.0
H629 H 0.38762 0.96474 0.76889 0.0
H630 H 0.46061 0.90908 0.74647 0.0
H631 H 0.3916 0.8614 0.85623 0.0
H632 H 0.33084 0.82555 0.89188 0.0
H633 H 0.29809 0.71639 0.83696 0.0
H634 H 0.35835 0.75153 0.80085 0.0
H635 H 0.59008 0.82616 0.77358 0.0
H636 H 0.55234 0.8609 0.7847 0.0
H637 H 0.44356 0.75565 0.75227 0.0
H638 H 0.48096 0.721 0.74074 0.0
H639 H 0.43442 0.78797 0.81251 0.0
H640 H 0.48818 0.82887 0.69953 0.0
H641 H 0.53737 0.85911 0.6526 0.0
H642 H 0.58732 0.9741 0.702 0.0
H643 H 0.53969 0.94421 0.7502 0.0
C644 C 0.32519 0.86368 0.76627 0.0
C645 C 0.3377 0.90455 0.76358 0.0
C646 C 0.35239 0.85117 0.77417 0.0
C647 C 0.39249 0.87921 0.78145 0.0
C648 C 0.40452 0.92038 0.78101 0.0
C649 C 0.37736 0.93306 0.77149 0.0
C650 C 0.42231 0.86541 0.78396 0.0
C651 C 0.45566 0.88351 0.76199 0.0
C652 C 0.41483 0.83068 0.80282 0.0
C653 C 0.37966 0.80917 0.8259 0.0
C654 C 0.37152 0.82973 0.85185 0.0
C655 C 0.3371 0.80952 0.8721 0.0
C656 C 0.31065 0.76872 0.86671 0.0
C657 C 0.31866 0.74795 0.84121 0.0
C658 C 0.35304 0.76797 0.82095 0.0
C659 C 0.55805 0.81034 0.76917 0.0
C660 C 0.53841 0.77085 0.75637 0.0
C661 C 0.53664 0.83029 0.77532 0.0
C662 C 0.49525 0.81083 0.7692 0.0
C663 C 0.47549 0.77112 0.75722 0.0
C664 C 0.4969 0.75141 0.75059 0.0
C665 C 0.47217 0.83161 0.77495 0.0
C666 C 0.44019 0.81464 0.79828 0.0
C667 C 0.48015 0.86661 0.75658 0.0
C668 C 0.51094 0.88403 0.72902 0.0
C669 C 0.5104 0.86037 0.70099 0.0
C670 C 0.53797 0.87749 0.67408 0.0
C671 C 0.56585 0.91841 0.67457 0.0
C672 C 0.56621 0.94228 0.70198 0.0
C673 C 0.53905 0.92522 0.72919 0.0
H674 H 0.58693 0.93169 0.65356 0.0
H675 H 0.28392 0.7532 0.88228 0.0
H676 H 0.20351 0.37018 0.77661 0.0
H677 H 0.27577 0.40632 0.78822 0.0
H678 H 0.28134 0.51732 0.75893 0.0
H679 H 0.20975 0.48114 0.7463 0.0
H680 H 0.33232 0.50819 0.72309 0.0
H681 H 0.30013 0.49921 0.84265 0.0
H682 H 0.26913 0.46845 0.89841 0.0
H683 H 0.32678 0.39741 0.89615 0.0
H684 H 0.35772 0.42738 0.84009 0.0
H685 H 0.52331 0.64866 0.79366 0.0
H686 H 0.45301 0.5992 0.80199 0.0
H687 H 0.47013 0.51075 0.74814 0.0
H688 H 0.54039 0.56122 0.73756 0.0
H689 H 0.40942 0.5042 0.82482 0.0
H690 H 0.43897 0.51971 0.69668 0.0
H691 H 0.47183 0.56279 0.64623 0.0
H692 H 0.41673 0.6333 0.66988 0.0
H693 H 0.38496 0.59163 0.72139 0.0
C694 C 0.2201 0.40245 0.77372 0.0
C695 C 0.2014 0.42296 0.76032 0.0
C696 C 0.26133 0.42307 0.78028 0.0
C697 C 0.28406 0.46449 0.77409 0.0
C698 C 0.26455 0.4853 0.76341 0.0
C699 C 0.22365 0.46468 0.75636 0.0
C700 C 0.32841 0.48553 0.77495 0.0
C701 C 0.34902 0.50716 0.74542 0.0
C702 C 0.35039 0.4842 0.8039 0.0
C703 C 0.33078 0.46511 0.83695 0.0
C704 C 0.30576 0.47662 0.8538 0.0
C705 C 0.28832 0.45944 0.88553 0.0
C706 C 0.29587 0.43089 0.90076 0.0
C707 C 0.32087 0.41945 0.88428 0.0
C708 C 0.33837 0.43652 0.85253 0.0
C709 C 0.51265 0.61822 0.78492 0.0
C710 C 0.53718 0.60861 0.76498 0.0
C711 C 0.47237 0.59014 0.78941 0.0
C712 C 0.45648 0.55186 0.7749 0.0
C713 C 0.48197 0.54057 0.75884 0.0
C714 C 0.52208 0.56911 0.75326 0.0
C715 C 0.41271 0.52605 0.773 0.0
C716 C 0.39235 0.50406 0.80234 0.0
C717 C 0.39083 0.52788 0.74422 0.0
C718 C 0.4106 0.55327 0.71353 0.0
C719 C 0.43473 0.54503 0.6917 0.0
C720 C 0.45301 0.56909 0.66279 0.0
C721 C 0.44664 0.60097 0.655 0.0
C722 C 0.42194 0.60882 0.6761 0.0
C723 C 0.40397 0.58511 0.70525 0.0
H724 H 0.46062 0.61941 0.6325 0.0
H725 H 0.28244 0.41772 0.92538 0.0
H726 H 0.25478 0.16473 0.25546 0.0
H727 H 0.21469 0.19682 0.26622 0.0
H728 H 0.11161 0.08107 0.2869 0.0
H729 H 0.15113 0.04898 0.27362 0.0
H730 H 0.08972 0.11628 0.24625 0.0
H731 H 0.1625 0.15789 0.35178 0.0
H732 H 0.22089 0.18688 0.39108 0.0
H733 H 0.26683 0.3009 0.34086 0.0
H734 H 0.20901 0.27247 0.30094 0.0
H735 H -0.02036 0.211 0.30314 0.0
H736 H 0.02549 0.18603 0.31514 0.0
H737 H 0.10365 0.26088 0.23422 0.0
H738 H 0.05665 0.28454 0.22063 0.0
H739 H 0.13303 0.24269 0.31115 0.0
H740 H 0.05486 0.19131 0.20237 0.0
H741 H -0.00754 0.15699 0.16838 0.0
H742 H 0.95149 0.05248 0.23207 0.0
H743 H 0.01274 0.08702 0.26771 0.0
C744 C 0.22377 0.14642 0.263 0.0
C745 C 0.20582 0.10461 0.26375 0.0
C746 C 0.20089 0.16469 0.26936 0.0
C747 C 0.16011 0.14144 0.27778 0.0
C748 C 0.14288 0.09967 0.28031 0.0
C749 C 0.16543 0.08137 0.2729 0.0
C750 C 0.13464 0.16022 0.28042 0.0
C751 C 0.09896 0.1435 0.26104 0.0
C752 C 0.14655 0.19587 0.29951 0.0
C753 C 0.18158 0.21296 0.32321 0.0
C754 C 0.18523 0.18906 0.34893 0.0
C755 C 0.21819 0.20541 0.37135 0.0
C756 C 0.24759 0.24568 0.36842 0.0
C757 C 0.24406 0.26971 0.34309 0.0
C758 C 0.21118 0.2535 0.32058 0.0
C759 C 0.00751 0.22376 0.28899 0.0
C760 C 0.0145 0.24943 0.26068 0.0
C761 C 0.0333 0.20891 0.29557 0.0
C762 C 0.06697 0.22083 0.27478 0.0
C763 C 0.07724 0.25104 0.25005 0.0
C764 C 0.05079 0.26496 0.24267 0.0
C765 C 0.08924 0.19911 0.27655 0.0
C766 C 0.12396 0.2152 0.29682 0.0
C767 C 0.0758 0.16225 0.25906 0.0
C768 C 0.03802 0.14238 0.2385 0.0
C769 C 0.03206 0.16158 0.20995 0.0
C770 C -0.00308 0.14194 0.19021 0.0
C771 C 0.96785 0.1027 0.19825 0.0
C772 C -0.02612 0.08301 0.22604 0.0
C773 C 0.00866 0.10274 0.24619 0.0
H774 H 0.9408 0.08747 0.18281 0.0
H775 H 0.27307 0.2583 0.38583 0.0
H776 H 0.86283 0.71157 0.29734 0.0
H777 H 0.93358 0.75386 0.31248 0.0
H778 H 0.93097 0.85724 0.27247 0.0
H779 H 0.86054 0.8154 0.25716 0.0
H780 H -0.01773 0.83945 0.23831 0.0
H781 H 0.95194 0.85637 0.35378 0.0
H782 H 0.92347 0.83845 0.41241 0.0
H783 H -0.00935 0.7787 0.43189 0.0
H784 H 0.01887 0.79546 0.37305 0.0
H785 H 0.17605 -0.00508 0.27182 0.0
H786 H 0.10597 0.95165 0.28647 0.0
H787 H 0.12293 0.84898 0.28503 0.0
H788 H 0.19343 0.89252 0.26786 0.0
H789 H 0.0656 0.86427 0.34374 0.0
H790 H 0.09038 0.84433 0.22374 0.0
H791 H 0.11879 0.86598 0.16593 0.0
H792 H 0.05906 0.93466 0.15548 0.0
H793 H 0.03108 0.91408 0.21418 0.0
C794 C 0.87712 0.74346 0.29245 0.0
C795 C 0.85648 0.75999 0.27516 0.0
C796 C 0.91742 0.76762 0.30145 0.0
C797 C 0.93745 0.80856 0.2934 0.0
C798 C 0.91598 0.82563 0.27879 0.0
C799 C 0.87582 0.8016 0.2698 0.0
C800 C -0.01836 0.83164 0.29361 0.0
C801 C 0.00037 0.84516 0.26151 0.0
C802 C 0.00517 0.83811 0.32376 0.0
C803 C -0.01293 0.82666 0.35872 0.0
C804 C 0.96013 0.8388 0.3703 0.0
C805 C 0.94415 0.82899 0.40365 0.0
C806 C 0.95511 0.8073 0.42581 0.0
C807 C -0.01794 0.79536 0.41465 0.0
C808 C -0.00196 0.80499 0.38128 0.0
C809 C 0.16522 0.9633 0.27565 0.0
C810 C 0.18999 0.94694 0.269 0.0
C811 C 0.12521 0.93867 0.28404 0.0
C812 C 0.10947 0.8973 0.28681 0.0
C813 C 0.13484 0.88101 0.28306 0.0
C814 C 0.17491 0.90572 0.27339 0.0
C815 C 0.06564 0.87146 0.28848 0.0
C816 C 0.04714 0.85789 0.32072 0.0
C817 C 0.04193 0.86503 0.25856 0.0
C818 C 0.05962 0.87856 0.22375 0.0
C819 C 0.08414 0.86488 0.20954 0.0
C820 C 0.10004 0.87687 0.17645 0.0
C821 C 0.09119 0.90215 0.15698 0.0
C822 C 0.06623 0.91538 0.17066 0.0
C823 C 0.05042 0.90363 0.20391 0.0
H824 H 0.10335 0.91119 0.13122 0.0
H825 H 0.94283 0.79987 0.45167 0.0
H826 H 0.80019 0.08027 0.27958 0.0
H827 H 0.76782 0.0081 0.28916 0.0
H828 H 0.88115 0.01237 0.27578 0.0
H829 H 0.91337 0.08458 0.26561 0.0
H830 H 0.8284 0.9579 0.23531 0.0
H831 H 0.83295 -0.01399 0.35468 0.0
H832 H 0.82609 0.01695 0.40818 0.0
H833 H 0.69957 0.96292 0.39059 0.0
H834 H 0.70569 0.93177 0.33681 0.0
H835 H 0.73859 0.75403 0.30722 0.0
H836 H 0.76766 0.82579 0.31611 0.0
H837 H 0.68986 0.82957 0.23744 0.0
H838 H 0.66205 0.75773 0.22664 0.0
H839 H 0.72942 0.87882 0.32602 0.0
H840 H 0.7395 0.86315 0.19416 0.0
H841 H 0.75635 0.83212 0.14599 0.0
H842 H 0.86878 0.86409 0.19472 0.0
H843 H 0.85188 0.89407 0.24378 0.0
C844 C 0.81833 0.06595 0.27973 0.0
C845 C 0.85905 0.0876 0.27137 0.0
C846 C 0.79987 0.02473 0.28519 0.0
C847 C 0.82206 0.00482 0.28303 0.0
C848 C 0.8634 0.02705 0.2772 0.0
C849 C 0.88174 0.06817 0.27143 0.0
C850 C 0.80129 0.96055 0.28336 0.0
C851 C 0.80693 0.94071 0.25529 0.0
C852 C 0.77369 0.93797 0.30955 0.0
C853 C 0.76983 0.95687 0.34161 0.0
C854 C 0.80371 0.98101 0.36208 0.0
C855 C 0.79995 -0.00148 0.39249 0.0
C856 C 0.76246 -0.00793 0.40273 0.0
C857 C 0.72861 0.96795 0.38262 0.0
C858 C 0.73218 0.95027 0.35221 0.0
C859 C 0.72641 0.76963 0.29264 0.0
C860 C 0.69853 0.75042 0.2657 0.0
C861 C 0.74354 0.81079 0.29747 0.0
C862 C 0.73207 0.83284 0.27625 0.0
C863 C 0.70012 0.81295 0.25295 0.0
C864 C 0.68364 0.77187 0.2474 0.0
C865 C 0.7552 0.87678 0.27731 0.0
C866 C 0.75054 0.89634 0.30594 0.0
C867 C 0.78449 0.89901 0.2521 0.0
C868 C 0.79382 0.87968 0.22316 0.0
C869 C 0.76731 0.86262 0.19506 0.0
C870 C 0.77698 0.84542 0.16749 0.0
C871 C 0.81347 0.84583 0.16743 0.0
C872 C 0.84037 0.86346 0.19493 0.0
C873 C 0.83066 0.88037 0.2227 0.0
H874 H 0.821 0.83273 0.14596 0.0
H875 H 0.75964 0.00568 0.42629 0.0
H876 H 0.04365 0.15982 0.75853 0.0
H877 H 0.07777 0.1211 0.75389 0.0
H878 H 0.1872 0.22754 0.72654 0.0
H879 H 0.15347 0.26694 0.73114 0.0
H880 H 0.17773 0.16838 0.68668 0.0
H881 H 0.16252 0.17893 0.81346 0.0
H882 H 0.12046 0.16862 0.86482 0.0
H883 H 0.0507 0.04316 0.84117 0.0
H884 H 0.09221 0.05275 0.78966 0.0
H885 H 0.28498 0.06829 0.77865 0.0
H886 H 0.26136 0.11624 0.77063 0.0
H887 H 0.17808 0.0395 0.69256 0.0
H888 H 0.2021 -0.00777 0.69975 0.0
H889 H 0.17429 0.08235 0.78397 0.0
H890 H 0.16491 0.08276 0.64747 0.0
H891 H 0.20076 0.08181 0.59486 0.0
H892 H 0.31109 0.17548 0.63738 0.0
H893 H 0.27583 0.17621 0.69052 0.0
C894 C 0.0749 0.17501 0.7512 0.0
C895 C 0.09591 0.21648 0.74525 0.0
C896 C 0.09428 0.15272 0.74852 0.0
C897 C 0.13494 0.17124 0.74002 0.0
C898 C 0.15574 0.21251 0.73313 0.0
C899 C 0.13641 0.23497 0.73573 0.0
C900 C 0.15586 0.1477 0.7384 0.0
C901 C 0.17719 0.14997 0.70819 0.0
C902 C 0.15422 0.12242 0.76589 0.0
C903 C 0.13046 0.11661 0.79772 0.0
C904 C 0.13828 0.14916 0.8193 0.0
C905 C 0.1145 0.14343 0.8484 0.0
C906 C 0.08294 0.10527 0.85624 0.0
C907 C 0.0752 0.07269 0.83512 0.0
C908 C 0.09892 0.07823 0.80605 0.0
C909 C 0.26335 0.0629 0.75833 0.0
C910 C 0.24546 0.02664 0.73977 0.0
C911 C 0.24949 0.08996 0.75415 0.0
C912 C 0.21786 0.08116 0.7312 0.0
C913 C 0.20298 0.04713 0.70997 0.0
C914 C 0.21712 0.02028 0.71387 0.0
C915 C 0.19688 0.10437 0.73293 0.0
C916 C 0.17516 0.10144 0.76288 0.0
C917 C 0.19713 0.12806 0.70509 0.0
C918 C 0.21785 0.12979 0.67257 0.0
C919 C 0.19675 0.10339 0.64532 0.0
C920 C 0.21697 0.10267 0.61559 0.0
C921 C 0.25817 0.12865 0.61273 0.0
C922 C 0.27919 0.15539 0.63962 0.0
C923 C 0.25915 0.15589 0.66958 0.0
H924 H 0.2738 0.12801 0.58972 0.0
H925 H 0.06449 0.10094 0.8787 0.0
H926 H 0.07797 0.92184 0.74862 0.0
H927 H 0.00559 0.88898 0.74016 0.0
H928 H 0.00253 0.77775 0.71717 0.0
H929 H 0.0751 0.81053 0.72508 0.0
H930 H 0.95072 0.79051 0.67516 0.0
H931 H -0.01534 0.79888 0.80047 0.0
H932 H 0.01684 0.83671 0.85393 0.0
H933 H 0.95619 0.90425 0.84208 0.0
H934 H 0.92382 0.86694 0.78849 0.0
H935 H 0.75499 0.6783 0.78631 0.0
H936 H 0.82518 0.70259 0.77235 0.0
H937 H 0.81654 0.77102 0.68752 0.0
H938 H 0.74638 0.74529 0.70016 0.0
H939 H 0.87403 0.78318 0.78054 0.0
H940 H 0.88238 0.80058 0.6399 0.0
H941 H 0.84318 0.76624 0.5875 0.0
H942 H 0.81627 0.65253 0.63037 0.0
H943 H 0.85464 0.6863 0.68329 0.0
C944 C 0.06199 0.89051 0.74124 0.0
C945 C 0.08214 0.8686 0.73785 0.0
C946 C 0.02064 0.87181 0.73648 0.0
C947 C -0.00127 0.83084 0.72857 0.0
C948 C 0.019 0.80943 0.72329 0.0
C949 C 0.06042 0.82817 0.72785 0.0
C950 C 0.95452 0.80939 0.72837 0.0
C951 C 0.93399 0.78884 0.69824 0.0
C952 C 0.93257 0.80801 0.75816 0.0
C953 C 0.95213 0.83036 0.79036 0.0
C954 C -0.02161 0.82195 0.80919 0.0
C955 C -0.00341 0.84325 0.83953 0.0
C956 C -0.01137 0.87292 0.85135 0.0
C957 C 0.96235 0.88129 0.8329 0.0
C958 C 0.94403 0.86003 0.80258 0.0
C959 C 0.7675 0.69653 0.76339 0.0
C960 C 0.74544 0.7103 0.74457 0.0
C961 C 0.8077 0.71083 0.75571 0.0
C962 C 0.82623 0.73903 0.7292 0.0
C963 C 0.80288 0.74883 0.70773 0.0
C964 C 0.76249 0.73388 0.71495 0.0
C965 C 0.87039 0.76287 0.72788 0.0
C966 C 0.89083 0.78453 0.75758 0.0
C967 C 0.89212 0.76605 0.69761 0.0
C968 C 0.87152 0.74585 0.66519 0.0
C969 C 0.86849 0.76829 0.63785 0.0
C970 C 0.84614 0.74894 0.60825 0.0
C971 C 0.82732 0.70723 0.60557 0.0
C972 C 0.83082 0.68481 0.6325 0.0
C973 C 0.85269 0.704 0.66234 0.0
H974 H 0.80998 0.69228 0.58267 0.0
H975 H 0.00276 0.88938 0.87483 0.0
H976 H 0.93365 0.18968 0.79118 0.0
H977 H 0.89408 0.1186 0.77926 0.0
H978 H 0.90159 0.14227 0.66958 0.0
H979 H 0.94338 0.2148 0.68128 0.0
H980 H 0.81741 0.08956 0.71326 0.0
H981 H 0.9424 0.08941 0.67584 0.0
H982 H 0.00772 0.09195 0.67859 0.0
H983 H -0.01657 0.04699 0.78268 0.0
H984 H 0.91806 0.04415 0.78051 0.0
H985 H 0.71245 0.87011 0.7009 0.0
H986 H 0.75152 0.94213 0.68721 0.0
H987 H 0.81756 0.96284 0.78283 0.0
H988 H 0.77996 0.89215 0.79615 0.0
H989 H 0.86578 -0.00706 0.72943 0.0
H990 H 0.75116 -0.00877 0.77562 0.0
H991 H 0.68063 0.97344 0.78185 0.0
H992 H 0.68249 0.02086 0.68074 0.0
H993 H 0.75302 0.03832 0.6736 0.0
C994 C 0.92651 0.18017 0.76441 0.0
C995 C 0.94091 0.20802 0.73707 0.0
C996 C 0.90448 0.13939 0.75772 0.0
C997 C 0.89561 0.12544 0.72364 0.0
C998 C 0.90887 0.15281 0.69607 0.0
C999 C 0.93211 0.19403 0.70274 0.0
C1000 C 0.86915 0.08229 0.71813 0.0
C1001 C 0.82788 0.06816 0.71559 0.0
C1002 C 0.88289 0.05486 0.72347 0.0
C1003 C 0.92553 0.06681 0.72801 0.0
C1004 C 0.95159 0.08134 0.69967 0.0
C1005 C -0.01163 0.08232 0.70098 0.0
C1006 C -0.00073 0.06894 0.73054 0.0
C1007 C -0.02531 0.05691 0.75967 0.0
C1008 C 0.93788 0.05575 0.75844 0.0
C1009 C 0.73529 0.89024 0.71888 0.0
C1010 C 0.74367 0.8755 0.74925 0.0
C1011 C 0.75731 0.9312 0.71117 0.0
C1012 C 0.78747 0.95756 0.73396 0.0
C1013 C 0.79471 0.94288 0.76473 0.0
C1014 C 0.77326 0.90236 0.7722 0.0
C1015 C 0.81399 0.00012 0.72542 0.0
C1016 C 0.85514 0.01408 0.7257 0.0
C1017 C 0.79997 0.0274 0.72029 0.0
C1018 C 0.75712 0.0153 0.72376 0.0
C1019 C 0.73636 -0.00283 0.75441 0.0
C1020 C 0.69644 -0.01267 0.75819 0.0
C1021 C 0.67708 -0.00414 0.73166 0.0
C1022 C 0.69753 0.01413 0.7012 0.0
C1023 C 0.73746 0.02395 0.69726 0.0
H1024 H 0.64635 -0.0114 0.73488 0.0
H1025 H 0.02641 0.06719 0.73061 0.0
loop_
_geom_bond_atom_site_label_1
_geom_bond_atom_site_label_2
_geom_bond_distance
_geom_bond_site_symmetry_2
_ccdc_geom_bond_type
O0 Mg1 1.990 . S
O0 C14 1.253 . S
Mg1 O0 1.990 . S
Mg1 O4 2.180 . S
Mg1 O5 2.117 . S
Mg1 O19 2.030 . S
O2 Mg3 2.072 . S
O2 C14 1.260 . S
Mg3 O2 2.072 . S
Mg3 O4 2.099 . S
Mg3 O6 2.079 . S
Mg3 O7 2.072 . S
Mg3 O9 2.099 . S
Mg3 O20 2.079 . S
O4 Mg1 2.180 . S
O4 Mg3 2.099 . S
O4 C15 1.279 . S
O5 Mg1 2.117 . S
O5 C15 1.250 . S
O6 Mg3 2.079 . S
O6 C16 1.264 . S
O7 Mg3 2.072 . S
O7 C17 1.260 . S
Mg8 O9 2.180 . S
Mg8 O10 2.030 . S
Mg8 O11 1.990 . S
Mg8 O12 2.117 . S
O9 Mg3 2.099 . S
O9 Mg8 2.180 . S
O9 C18 1.279 . S
O10 Mg8 2.030 . S
O10 C16 1.248 . S
O11 Mg8 1.990 . S
O11 C17 1.253 . S
O12 Mg8 2.117 . S
O12 C18 1.250 . S
C13 O19 1.248 . S
C13 O20 1.264 . S
C14 O0 1.253 . S
C14 O2 1.260 . S
C15 O4 1.279 . S
C15 O5 1.250 . S
C16 O6 1.264 . S
C16 O10 1.248 . S
C17 O7 1.260 . S
C17 O11 1.253 . S
C18 O9 1.279 . S
C18 O12 1.250 . S
O19 Mg1 2.030 . S
O19 C13 1.248 . S
O20 Mg3 2.079 . S
O20 C13 1.264 . S
O21 Mg22 1.990 . S
O21 C35 1.253 . S
Mg22 O21 1.990 . S
Mg22 O25 2.180 . S
Mg22 O26 2.117 . S
Mg22 O40 2.030 . S
O23 Mg24 2.072 . S
O23 C35 1.260 . S
Mg24 O23 2.072 . S
Mg24 O25 2.099 . S
Mg24 O27 2.079 . S
Mg24 O28 2.072 . S
Mg24 O30 2.099 . S
Mg24 O41 2.079 . S
O25 Mg22 2.180 . S
O25 Mg24 2.099 . S
O25 C36 1.279 . S
O26 Mg22 2.117 . S
O26 C36 1.250 . S
O27 Mg24 2.079 . S
O27 C37 1.264 . S
O28 Mg24 2.072 . S
O28 C38 1.260 . S
Mg29 O30 2.180 . S
Mg29 O31 2.030 . S
Mg29 O32 1.990 . S
Mg29 O33 2.117 . S
O30 Mg24 2.099 . S
O30 Mg29 2.180 . S
O30 C39 1.279 . S
O31 Mg29 2.030 . S
O31 C37 1.248 . S
O32 Mg29 1.990 . S
O32 C38 1.253 . S
O33 Mg29 2.117 . S
O33 C39 1.250 . S
C34 O40 1.248 . S
C34 O41 1.264 . S
C35 O21 1.253 . S
C35 O23 1.260 . S
C36 O25 1.279 . S
C36 O26 1.250 . S
C37 O27 1.264 . S
C37 O31 1.248 . S
C38 O28 1.260 . S
C38 O32 1.253 . S
C39 O30 1.279 . S
C39 O33 1.250 . S
O40 Mg22 2.030 . S
O40 C34 1.248 . S
O41 Mg24 2.079 . S
O41 C34 1.264 . S
O42 Mg43 1.990 . S
O42 C56 1.253 . S
Mg43 O42 1.990 . S
Mg43 O46 2.180 . S
Mg43 O47 2.117 . S
Mg43 O61 2.030 . S
O44 Mg45 2.072 . S
O44 C56 1.260 . S
Mg45 O44 2.072 . S
Mg45 O46 2.099 . S
Mg45 O48 2.079 . S
Mg45 O49 2.072 . S
Mg45 O51 2.099 . S
Mg45 O62 2.079 . S
O46 Mg43 2.180 . S
O46 Mg45 2.099 . S
O46 C57 1.279 . S
O47 Mg43 2.117 . S
O47 C57 1.250 . S
O48 Mg45 2.079 . S
O48 C58 1.264 . S
O49 Mg45 2.072 . S
O49 C59 1.260 . S
Mg50 O51 2.180 . S
Mg50 O52 2.030 . S
Mg50 O53 1.990 . S
Mg50 O54 2.117 . S
O51 Mg45 2.099 . S
O51 Mg50 2.180 . S
O51 C60 1.279 . S
O52 Mg50 2.030 . S
O52 C58 1.248 . S
O53 Mg50 1.990 . S
O53 C59 1.253 . S
O54 Mg50 2.117 . S
O54 C60 1.250 . S
C55 O61 1.248 . S
C55 O62 1.264 . S
C56 O42 1.253 . S
C56 O44 1.260 . S
C57 O46 1.279 . S
C57 O47 1.250 . S
C58 O48 1.264 . S
C58 O52 1.248 . S
C59 O49 1.260 . S
C59 O53 1.253 . S
C60 O51 1.279 . S
C60 O54 1.250 . S
O61 Mg43 2.030 . S
O61 C55 1.248 . S
O62 Mg45 2.079 . S
O62 C55 1.264 . S
O63 Mg64 1.990 . S
O63 C77 1.253 . S
Mg64 O63 1.990 . S
Mg64 O67 2.180 . S
Mg64 O68 2.117 . S
Mg64 O82 2.030 . S
O65 Mg66 2.072 . S
O65 C77 1.260 . S
Mg66 O65 2.072 . S
Mg66 O67 2.099 . S
Mg66 O69 2.079 . S
Mg66 O70 2.072 . S
Mg66 O72 2.099 . S
Mg66 O83 2.079 . S
O67 Mg64 2.180 . S
O67 Mg66 2.099 . S
O67 C78 1.279 . S
O68 Mg64 2.117 . S
O68 C78 1.250 . S
O69 Mg66 2.079 . S
O69 C79 1.264 . S
O70 Mg66 2.072 . S
O70 C80 1.260 . S
Mg71 O72 2.180 . S
Mg71 O73 2.030 . S
Mg71 O74 1.990 . S
Mg71 O75 2.117 . S
O72 Mg66 2.099 . S
O72 Mg71 2.180 . S
O72 C81 1.279 . S
O73 Mg71 2.030 . S
O73 C79 1.248 . S
O74 Mg71 1.990 . S
O74 C80 1.253 . S
O75 Mg71 2.117 . S
O75 C81 1.250 . S
C76 O82 1.248 . S
C76 O83 1.264 . S
C77 O63 1.253 . S
C77 O65 1.260 . S
C78 O67 1.279 . S
C78 O68 1.250 . S
C79 O69 1.264 . S
C79 O73 1.248 . S
C80 O70 1.260 . S
C80 O74 1.253 . S
C81 O72 1.279 . S
C81 O75 1.250 . S
O82 Mg64 2.030 . S
O82 C76 1.248 . S
O83 Mg66 2.079 . S
O83 C76 1.264 . S
O84 Mg85 1.990 . S
O84 C98 1.253 . S
Mg85 O84 1.990 . S
Mg85 O88 2.180 . S
Mg85 O89 2.117 . S
Mg85 O103 2.030 . S
O86 Mg87 2.072 . S
O86 C98 1.260 . S
Mg87 O86 2.072 . S
Mg87 O88 2.099 . S
Mg87 O90 2.079 . S
Mg87 O91 2.072 . S
Mg87 O93 2.099 . S
Mg87 O104 2.079 . S
O88 Mg85 2.180 . S
O88 Mg87 2.099 . S
O88 C99 1.279 . S
O89 Mg85 2.117 . S
O89 C99 1.250 . S
O90 Mg87 2.079 . S
O90 C100 1.264 . S
O91 Mg87 2.072 . S
O91 C101 1.260 . S
Mg92 O93 2.180 . S
Mg92 O94 2.030 . S
Mg92 O95 1.990 . S
Mg92 O96 2.117 . S
O93 Mg87 2.099 . S
O93 Mg92 2.180 . S
O93 C102 1.279 . S
O94 Mg92 2.030 . S
O94 C100 1.248 . S
O95 Mg92 1.990 . S
O95 C101 1.253 . S
O96 Mg92 2.117 . S
O96 C102 1.250 . S
C97 O103 1.248 . S
C97 O104 1.264 . S
C98 O84 1.253 . S
C98 O86 1.260 . S
C99 O88 1.279 . S
C99 O89 1.250 . S
C100 O90 1.264 . S
C100 O94 1.248 . S
C101 O91 1.260 . S
C101 O95 1.253 . S
C102 O93 1.279 . S
C102 O96 1.250 . S
O103 Mg85 2.030 . S
O103 C97 1.248 . S
O104 Mg87 2.079 . S
O104 C97 1.264 . S
O105 Mg106 1.990 . S
O105 C119 1.253 . S
Mg106 O105 1.990 . S
Mg106 O109 2.180 . S
Mg106 O110 2.117 . S
Mg106 O124 2.030 . S
O107 Mg108 2.072 . S
O107 C119 1.260 . S
Mg108 O107 2.072 . S
Mg108 O109 2.099 . S
Mg108 O111 2.079 . S
Mg108 O112 2.072 . S
Mg108 O114 2.099 . S
Mg108 O125 2.079 . S
O109 Mg106 2.180 . S
O109 Mg108 2.099 . S
O109 C120 1.279 . S
O110 Mg106 2.117 . S
O110 C120 1.250 . S
O111 Mg108 2.079 . S
O111 C121 1.264 . S
O112 Mg108 2.072 . S
O112 C122 1.260 . S
Mg113 O114 2.180 . S
Mg113 O115 2.030 . S
Mg113 O116 1.990 . S
Mg113 O117 2.117 . S
O114 Mg108 2.099 . S
O114 Mg113 2.180 . S
O114 C123 1.279 . S
O115 Mg113 2.030 . S
O115 C121 1.248 . S
O116 Mg113 1.990 . S
O116 C122 1.253 . S
O117 Mg113 2.117 . S
O117 C123 1.250 . S
C118 O124 1.248 . S
C118 O125 1.264 . S
C119 O105 1.253 . S
C119 O107 1.260 . S
C120 O109 1.279 . S
C120 O110 1.250 . S
C121 O111 1.264 . S
C121 O115 1.248 . S
C122 O112 1.260 . S
C122 O116 1.253 . S
C123 O114 1.279 . S
C123 O117 1.250 . S
O124 Mg106 2.030 . S
O124 C118 1.248 . S
O125 Mg108 2.079 . S
O125 C118 1.264 . S
H126 C144 0.951 . S
H127 C146 0.951 1_545 S
H128 C148 0.950 . S
H129 C149 0.950 . S
H130 C151 0.950 . S
H131 C154 0.950 . S
H132 C155 0.950 . S
H133 C157 0.950 . S
H134 C158 0.950 . S
H135 C159 0.951 . S
H136 C161 0.951 1_565 S
H137 C163 0.950 . S
H138 C164 0.950 . S
H139 C166 0.950 . S
H140 C169 0.950 . S
H141 C170 0.950 . S
H142 C172 0.950 . S
H143 C173 0.950 . S
C144 H126 0.951 . S
C144 C145 1.366 . S
C144 C146 1.388 . S
C145 C144 1.366 . S
C145 C149 1.385 . S
C146 H127 0.951 1_565 S
C146 C144 1.388 . S
C146 C147 1.366 . S
C147 C146 1.366 . S
C147 C148 1.414 . S
C147 C150 1.499 . S
C148 H128 0.950 . S
C148 C147 1.414 . S
C148 C149 1.374 . S
C149 H129 0.950 . S
C149 C145 1.385 . S
C149 C148 1.374 . S
C150 C147 1.499 . S
C150 C151 1.373 . S
C150 C152 1.389 1_565 S
C151 H130 0.950 . S
C151 C150 1.373 . S
C151 C167 1.377 1_556 S
C152 C150 1.389 1_545 S
C152 C153 1.524 . S
C152 C166 1.377 1_556 S
C153 C152 1.524 . S
C153 C154 1.397 . S
C153 C158 1.363 . S
C154 H131 0.950 . S
C154 C153 1.397 . S
C154 C155 1.334 . S
C155 H132 0.950 . S
C155 C154 1.334 . S
C155 C156 1.287 . S
C156 C155 1.287 . S
C156 C157 1.524 . S
C156 H175 0.913 . S
C157 H133 0.950 . S
C157 C156 1.524 . S
C157 C158 1.415 . S
C158 H134 0.950 . S
C158 C153 1.363 . S
C158 C157 1.415 . S
C159 H135 0.951 . S
C159 C160 1.366 . S
C159 C161 1.388 . S
C160 C159 1.366 . S
C160 C164 1.385 . S
C161 H136 0.951 1_545 S
C161 C159 1.388 . S
C161 C162 1.366 . S
C162 C161 1.366 . S
C162 C163 1.414 . S
C162 C165 1.499 . S
C163 H137 0.950 . S
C163 C162 1.414 . S
C163 C164 1.374 . S
C164 H138 0.950 . S
C164 C160 1.385 . S
C164 C163 1.374 . S
C165 C162 1.499 . S
C165 C166 1.373 . S
C165 C167 1.389 1_545 S
C166 H139 0.950 . S
C166 C152 1.377 1_554 S
C166 C165 1.373 . S
C167 C151 1.377 1_554 S
C167 C165 1.389 1_565 S
C167 C168 1.524 . S
C168 C167 1.524 . S
C168 C169 1.397 . S
C168 C173 1.363 . S
C169 H140 0.950 . S
C169 C168 1.397 . S
C169 C170 1.334 . S
C170 H141 0.950 . S
C170 C169 1.334 . S
C170 C171 1.287 . S
C171 C170 1.287 . S
C171 C172 1.524 . S
C171 H174 0.999 . S
C172 H142 0.950 . S
C172 C171 1.524 . S
C172 C173 1.415 . S
C173 H143 0.950 . S
C173 C168 1.363 . S
C173 C172 1.415 . S
H174 C171 0.999 . S
H175 C156 0.913 . S
H176 C194 0.951 . S
H177 C196 0.951 . S
H178 C198 0.950 . S
H179 C199 0.950 . S
H180 C201 0.950 . S
H181 C204 0.950 . S
H182 C205 0.950 . S
H183 C207 0.950 . S
H184 C208 0.950 . S
H185 C209 0.951 . S
H186 C211 0.951 . S
H187 C213 0.950 . S
H188 C214 0.950 . S
H189 C216 0.950 . S
H190 C219 0.950 . S
H191 C220 0.950 . S
H192 C222 0.950 . S
H193 C223 0.950 . S
C194 H176 0.951 . S
C194 C195 1.366 . S
C194 C196 1.388 . S
C195 C194 1.366 . S
C195 C199 1.385 . S
C196 H177 0.951 . S
C196 C194 1.388 . S
C196 C197 1.366 . S
C197 C196 1.366 . S
C197 C198 1.414 . S
C197 C200 1.499 . S
C198 H178 0.950 . S
C198 C197 1.414 . S
C198 C199 1.374 . S
C199 H179 0.950 . S
C199 C195 1.385 . S
C199 C198 1.374 . S
C200 C197 1.499 . S
C200 C201 1.373 . S
C200 C202 1.389 . S
C201 H180 0.950 . S
C201 C200 1.373 . S
C201 C217 1.377 . S
C202 C200 1.389 . S
C202 C203 1.524 . S
C202 C216 1.377 . S
C203 C202 1.524 . S
C203 C204 1.397 . S
C203 C208 1.363 . S
C204 H181 0.950 . S
C204 C203 1.397 . S
C204 C205 1.334 . S
C205 H182 0.950 . S
C205 C204 1.334 . S
C205 C206 1.287 . S
C206 C205 1.287 . S
C206 C207 1.524 . S
C206 H225 0.913 . S
C207 H183 0.950 . S
C207 C206 1.524 . S
C207 C208 1.415 . S
C208 H184 0.950 . S
C208 C203 1.363 . S
C208 C207 1.415 . S
C209 H185 0.951 . S
C209 C210 1.366 . S
C209 C211 1.388 . S
C210 C209 1.366 . S
C210 C214 1.385 . S
C211 H186 0.951 . S
C211 C209 1.388 . S
C211 C212 1.366 . S
C212 C211 1.366 . S
C212 C213 1.414 . S
C212 C215 1.499 . S
C213 H187 0.950 . S
C213 C212 1.414 . S
C213 C214 1.374 . S
C214 H188 0.950 . S
C214 C210 1.385 . S
C214 C213 1.374 . S
C215 C212 1.499 . S
C215 C216 1.373 . S
C215 C217 1.389 . S
C216 H189 0.950 . S
C216 C202 1.377 . S
C216 C215 1.373 . S
C217 C201 1.377 . S
C217 C215 1.389 . S
C217 C218 1.524 . S
C218 C217 1.524 . S
C218 C219 1.397 . S
C218 C223 1.363 . S
C219 H190 0.950 . S
C219 C218 1.397 . S
C219 C220 1.334 . S
C220 H191 0.950 . S
C220 C219 1.334 . S
C220 C221 1.287 . S
C221 C220 1.287 . S
C221 C222 1.524 . S
C221 H224 0.999 . S
C222 H192 0.950 . S
C222 C221 1.524 . S
C222 C223 1.415 . S
C223 H193 0.950 . S
C223 C218 1.363 . S
C223 C222 1.415 . S
H224 C221 0.999 . S
H225 C206 0.913 . S
H226 C244 0.951 . S
H227 C246 0.951 1_455 S
H228 C248 0.950 . S
H229 C249 0.950 . S
H230 C251 0.950 . S
H231 C254 0.950 1_655 S
H232 C255 0.970 . S
H233 C257 0.950 . S
H234 C258 0.950 . S
H235 C259 0.951 . S
H236 C261 0.951 1_655 S
H237 C263 0.950 . S
H238 C264 0.950 . S
H239 C266 0.950 . S
H240 C269 0.950 1_455 S
H241 C270 0.969 . S
H242 C272 0.950 . S
H243 C273 0.950 . S
C244 H226 0.951 . S
C244 C245 1.366 . S
C244 C246 1.388 . S
C245 C244 1.366 . S
C245 C249 1.385 . S
C246 H227 0.951 1_655 S
C246 C244 1.388 . S
C246 C247 1.366 . S
C247 C246 1.366 . S
C247 C248 1.414 . S
C247 C250 1.499 . S
C248 H228 0.950 . S
C248 C247 1.414 . S
C248 C249 1.374 . S
C249 H229 0.950 . S
C249 C245 1.385 . S
C249 C248 1.374 . S
C250 C247 1.499 . S
C250 C251 1.373 . S
C250 C252 1.389 1_655 S
C251 H230 0.950 . S
C251 C250 1.373 . S
C251 C267 1.377 1_554 S
C252 C250 1.389 1_455 S
C252 C253 1.524 . S
C252 C266 1.377 1_554 S
C253 C252 1.524 . S
C253 C254 1.397 . S
C253 C258 1.363 . S
C254 H231 0.950 1_455 S
C254 C253 1.397 . S
C254 C255 1.334 . S
C255 H232 0.970 . S
C255 C254 1.334 . S
C255 C256 1.287 . S
C256 C255 1.287 . S
C256 C257 1.524 . S
C256 H275 0.913 . S
C257 H233 0.950 . S
C257 C256 1.524 . S
C257 C258 1.415 . S
C258 H234 0.950 . S
C258 C253 1.363 . S
C258 C257 1.415 . S
C259 H235 0.951 . S
C259 C260 1.366 . S
C259 C261 1.388 . S
C260 C259 1.366 . S
C260 C264 1.385 . S
C261 H236 0.951 1_455 S
C261 C259 1.388 . S
C261 C262 1.366 . S
C262 C261 1.366 . S
C262 C263 1.414 . S
C262 C265 1.499 . S
C263 H237 0.950 . S
C263 C262 1.414 . S
C263 C264 1.374 . S
C264 H238 0.950 . S
C264 C260 1.385 . S
C264 C263 1.374 . S
C265 C262 1.499 . S
C265 C266 1.373 . S
C265 C267 1.389 1_455 S
C266 H239 0.950 . S
C266 C252 1.377 1_556 S
C266 C265 1.373 . S
C267 C251 1.377 1_556 S
C267 C265 1.389 1_655 S
C267 C268 1.524 . S
C268 C267 1.524 . S
C268 C269 1.397 . S
C268 C273 1.363 . S
C269 H240 0.950 1_655 S
C269 C268 1.397 . S
C269 C270 1.334 . S
C270 H241 0.969 . S
C270 C269 1.334 . S
C270 C271 1.287 . S
C271 C270 1.287 . S
C271 C272 1.524 . S
C271 H274 0.999 . S
C272 H242 0.950 . S
C272 C271 1.524 . S
C272 C273 1.415 . S
C273 H243 0.950 . S
C273 C268 1.363 . S
C273 C272 1.415 . S
H274 C271 0.999 . S
H275 C256 0.913 . S
H276 C294 0.951 . S
H277 C296 0.951 . S
H278 C298 0.950 1_565 S
H279 C299 0.950 . S
H280 C301 0.950 . S
H281 C304 0.950 . S
H282 C305 0.950 . S
H283 C307 0.950 . S
H284 C308 0.950 . S
H285 C309 0.951 . S
H286 C311 0.951 . S
H287 C313 0.950 1_545 S
H288 C314 0.950 . S
H289 C316 0.950 . S
H290 C319 0.950 . S
H291 C320 0.950 . S
H292 C322 0.950 . S
H293 C323 0.950 . S
C294 H276 0.951 . S
C294 C295 1.366 . S
C294 C296 1.388 . S
C295 C294 1.366 . S
C295 C299 1.385 . S
C296 H277 0.951 . S
C296 C294 1.388 . S
C296 C297 1.366 . S
C297 C296 1.366 . S
C297 C298 1.414 . S
C297 C300 1.499 . S
C298 H278 0.950 1_545 S
C298 C297 1.414 . S
C298 C299 1.374 . S
C299 H279 0.950 . S
C299 C295 1.385 . S
C299 C298 1.374 . S
C300 C297 1.499 . S
C300 C301 1.373 1_545 S
C300 C302 1.389 . S
C301 H280 0.950 . S
C301 C300 1.373 1_565 S
C301 C317 1.377 . S
C302 C300 1.389 . S
C302 C303 1.524 . S
C302 C316 1.377 . S
C303 C302 1.524 . S
C303 C304 1.397 . S
C303 C308 1.363 . S
C304 H281 0.950 . S
C304 C303 1.397 . S
C304 C305 1.334 . S
C305 H282 0.950 . S
C305 C304 1.334 . S
C305 C306 1.287 . S
C306 C305 1.287 . S
C306 C307 1.524 . S
C306 H325 0.913 . S
C307 H283 0.950 . S
C307 C306 1.524 . S
C307 C308 1.415 . S
C308 H284 0.950 . S
C308 C303 1.363 . S
C308 C307 1.415 . S
C309 H285 0.951 . S
C309 C310 1.366 . S
C309 C311 1.388 . S
C310 C309 1.366 . S
C310 C314 1.385 . S
C311 H286 0.951 . S
C311 C309 1.388 . S
C311 C312 1.366 . S
C312 C311 1.366 . S
C312 C313 1.414 . S
C312 C315 1.499 . S
C313 H287 0.950 1_565 S
C313 C312 1.414 . S
C313 C314 1.374 . S
C314 H288 0.950 . S
C314 C310 1.385 . S
C314 C313 1.374 . S
C315 C312 1.499 . S
C315 C316 1.373 1_565 S
C315 C317 1.389 . S
C316 H289 0.950 . S
C316 C302 1.377 . S
C316 C315 1.373 1_545 S
C317 C301 1.377 . S
C317 C315 1.389 . S
C317 C318 1.524 . S
C318 C317 1.524 . S
C318 C319 1.397 . S
C318 C323 1.363 . S
C319 H290 0.950 . S
C319 C318 1.397 . S
C319 C320 1.334 . S
C320 H291 0.950 . S
C320 C319 1.334 . S
C320 C321 1.287 . S
C321 C320 1.287 . S
C321 C322 1.524 . S
C321 H324 0.999 . S
C322 H292 0.950 . S
C322 C321 1.524 . S
C322 C323 1.415 . S
C323 H293 0.950 . S
C323 C318 1.363 . S
C323 C322 1.415 . S
H324 C321 0.999 . S
H325 C306 0.913 . S
H326 C344 0.951 . S
H327 C346 0.951 . S
H328 C348 0.950 . S
H329 C349 0.950 . S
H330 C351 0.950 . S
H331 C354 0.950 . S
H332 C355 0.950 . S
H333 C357 0.950 . S
H334 C358 0.950 . S
H335 C359 0.951 . S
H336 C361 0.951 . S
H337 C363 0.950 . S
H338 C364 0.950 . S
H339 C366 0.950 . S
H340 C369 0.950 . S
H341 C370 0.950 . S
H342 C372 0.950 . S
H343 C373 0.950 . S
C344 H326 0.951 . S
C344 C345 1.366 . S
C344 C346 1.388 . S
C345 C344 1.366 . S
C345 C349 1.385 . S
C346 H327 0.951 . S
C346 C344 1.388 . S
C346 C347 1.366 . S
C347 C346 1.366 . S
C347 C348 1.414 . S
C347 C350 1.499 . S
C348 H328 0.950 . S
C348 C347 1.414 . S
C348 C349 1.374 . S
C349 H329 0.950 . S
C349 C345 1.385 . S
C349 C348 1.374 . S
C350 C347 1.499 . S
C350 C351 1.373 . S
C350 C352 1.389 . S
C351 H330 0.950 . S
C351 C350 1.373 . S
C351 C367 1.377 1_556 S
C352 C350 1.389 . S
C352 C353 1.524 . S
C352 C366 1.377 1_556 S
C353 C352 1.524 . S
C353 C354 1.397 . S
C353 C358 1.363 1_556 S
C354 H331 0.950 . S
C354 C353 1.397 . S
C354 C355 1.334 . S
C355 H332 0.950 . S
C355 C354 1.334 . S
C355 C356 1.287 . S
C356 C355 1.287 . S
C356 C357 1.524 1_556 S
C356 H375 0.913 . S
C357 H333 0.950 . S
C357 C356 1.524 1_554 S
C357 C358 1.415 . S
C358 H334 0.950 . S
C358 C353 1.363 1_554 S
C358 C357 1.415 . S
C359 H335 0.951 . S
C359 C360 1.366 . S
C359 C361 1.388 . S
C360 C359 1.366 . S
C360 C364 1.385 . S
C361 H336 0.951 . S
C361 C359 1.388 . S
C361 C362 1.366 . S
C362 C361 1.366 . S
C362 C363 1.414 . S
C362 C365 1.499 . S
C363 H337 0.950 . S
C363 C362 1.414 . S
C363 C364 1.374 . S
C364 H338 0.950 . S
C364 C360 1.385 . S
C364 C363 1.374 . S
C365 C362 1.499 . S
C365 C366 1.373 . S
C365 C367 1.389 . S
C366 H339 0.950 . S
C366 C352 1.377 1_554 S
C366 C365 1.373 . S
C367 C351 1.377 1_554 S
C367 C365 1.389 . S
C367 C368 1.524 . S
C368 C367 1.524 . S
C368 C369 1.397 . S
C368 C373 1.363 1_554 S
C369 H340 0.950 . S
C369 C368 1.397 . S
C369 C370 1.334 . S
C370 H341 0.950 . S
C370 C369 1.334 . S
C370 C371 1.287 . S
C371 C370 1.287 . S
C371 C372 1.524 1_554 S
C371 H374 0.999 . S
C372 H342 0.950 . S
C372 C371 1.524 1_556 S
C372 C373 1.415 . S
C373 H343 0.950 . S
C373 C368 1.363 1_556 S
C373 C372 1.415 . S
H374 C371 0.999 . S
H375 C356 0.913 . S
H376 C394 0.951 . S
H377 C396 0.951 1_455 S
H378 C398 0.950 . S
H379 C399 0.950 . S
H380 C401 0.950 . S
H381 C404 0.950 . S
H382 C405 0.950 . S
H383 C407 0.950 . S
H384 C408 0.950 . S
H385 C409 0.951 . S
H386 C411 0.951 1_655 S
H387 C413 0.950 . S
H388 C414 0.950 . S
H389 C416 0.950 . S
H390 C419 0.950 . S
H391 C420 0.950 . S
H392 C422 0.950 . S
H393 C423 0.950 . S
C394 H376 0.951 . S
C394 C395 1.366 . S
C394 C396 1.388 . S
C395 C394 1.366 . S
C395 C399 1.385 . S
C396 H377 0.951 1_655 S
C396 C394 1.388 . S
C396 C397 1.366 . S
C397 C396 1.366 . S
C397 C398 1.414 . S
C397 C400 1.499 . S
C398 H378 0.950 . S
C398 C397 1.414 . S
C398 C399 1.374 . S
C399 H379 0.950 . S
C399 C395 1.385 . S
C399 C398 1.374 . S
C400 C397 1.499 . S
C400 C401 1.373 . S
C400 C402 1.389 . S
C401 H380 0.950 . S
C401 C400 1.373 . S
C401 C417 1.377 1_655 S
C402 C400 1.389 . S
C402 C403 1.524 . S
C402 C416 1.377 1_655 S
C403 C402 1.524 . S
C403 C404 1.397 . S
C403 C408 1.363 1_655 S
C404 H381 0.950 . S
C404 C403 1.397 . S
C404 C405 1.334 . S
C405 H382 0.950 . S
C405 C404 1.334 . S
C405 C406 1.287 . S
C406 C405 1.287 . S
C406 C407 1.524 1_655 S
C406 H425 0.913 . S
C407 H383 0.950 . S
C407 C406 1.524 1_455 S
C407 C408 1.415 . S
C408 H384 0.950 . S
C408 C403 1.363 1_455 S
C408 C407 1.415 . S
C409 H385 0.951 . S
C409 C410 1.366 . S
C409 C411 1.388 . S
C410 C409 1.366 . S
C410 C414 1.385 . S
C411 H386 0.951 1_455 S
C411 C409 1.388 . S
C411 C412 1.366 . S
C412 C411 1.366 . S
C412 C413 1.414 . S
C412 C415 1.499 . S
C413 H387 0.950 . S
C413 C412 1.414 . S
C413 C414 1.374 . S
C414 H388 0.950 . S
C414 C410 1.385 . S
C414 C413 1.374 . S
C415 C412 1.499 . S
C415 C416 1.373 . S
C415 C417 1.389 . S
C416 H389 0.950 . S
C416 C402 1.377 1_455 S
C416 C415 1.373 . S
C417 C401 1.377 1_455 S
C417 C415 1.389 . S
C417 C418 1.524 . S
C418 C417 1.524 . S
C418 C419 1.397 . S
C418 C423 1.363 1_455 S
C419 H390 0.950 . S
C419 C418 1.397 . S
C419 C420 1.334 . S
C420 H391 0.950 . S
C420 C419 1.334 . S
C420 C421 1.287 . S
C421 C420 1.287 . S
C421 C422 1.524 1_455 S
C421 H424 0.999 . S
C422 H392 0.950 . S
C422 C421 1.524 1_655 S
C422 C423 1.415 . S
C423 H393 0.950 . S
C423 C418 1.363 1_655 S
C423 C422 1.415 . S
H424 C421 0.999 . S
H425 C406 0.913 . S
H426 C444 0.951 . S
H427 C446 0.951 . S
H428 C448 0.950 . S
H429 C449 0.950 . S
H430 C451 0.950 . S
H431 C454 0.950 . S
H432 C455 0.950 . S
H433 C457 0.950 . S
H434 C458 0.950 . S
H435 C459 0.951 . S
H436 C461 0.951 . S
H437 C463 0.950 . S
H438 C464 0.950 . S
H439 C466 0.950 . S
H440 C469 0.950 . S
H441 C470 0.950 . S
H442 C472 0.950 . S
H443 C473 0.950 . S
C444 H426 0.951 . S
C444 C445 1.366 . S
C444 C446 1.388 . S
C445 C444 1.366 . S
C445 C449 1.385 . S
C446 H427 0.951 . S
C446 C444 1.388 . S
C446 C447 1.366 . S
C447 C446 1.366 . S
C447 C448 1.414 . S
C447 C450 1.499 . S
C448 H428 0.950 . S
C448 C447 1.414 . S
C448 C449 1.374 . S
C449 H429 0.950 . S
C449 C445 1.385 . S
C449 C448 1.374 . S
C450 C447 1.499 . S
C450 C451 1.373 . S
C450 C452 1.389 . S
C451 H430 0.950 . S
C451 C450 1.373 . S
C451 C467 1.377 . S
C452 C450 1.389 . S
C452 C453 1.524 . S
C452 C466 1.377 . S
C453 C452 1.524 . S
C453 C454 1.397 . S
C453 C458 1.363 . S
C454 H431 0.950 . S
C454 C453 1.397 . S
C454 C455 1.334 . S
C455 H432 0.950 . S
C455 C454 1.334 . S
C455 C456 1.287 . S
C456 C455 1.287 . S
C456 C457 1.524 . S
C456 H475 0.913 . S
C457 H433 0.950 . S
C457 C456 1.524 . S
C457 C458 1.415 . S
C458 H434 0.950 . S
C458 C453 1.363 . S
C458 C457 1.415 . S
C459 H435 0.951 . S
C459 C460 1.366 . S
C459 C461 1.388 . S
C460 C459 1.366 . S
C460 C464 1.385 . S
C461 H436 0.951 . S
C461 C459 1.388 . S
C461 C462 1.366 . S
C462 C461 1.366 . S
C462 C463 1.414 . S
C462 C465 1.499 . S
C463 H437 0.950 . S
C463 C462 1.414 . S
C463 C464 1.374 . S
C464 H438 0.950 . S
C464 C460 1.385 . S
C464 C463 1.374 . S
C465 C462 1.499 . S
C465 C466 1.373 . S
C465 C467 1.389 . S
C466 H439 0.950 . S
C466 C452 1.377 . S
C466 C465 1.373 . S
C467 C451 1.377 . S
C467 C465 1.389 . S
C467 C468 1.524 . S
C468 C467 1.524 . S
C468 C469 1.397 . S
C468 C473 1.363 . S
C469 H440 0.950 . S
C469 C468 1.397 . S
C469 C470 1.334 . S
C470 H441 0.950 . S
C470 C469 1.334 . S
C470 C471 1.287 . S
C471 C470 1.287 . S
C471 C472 1.524 . S
C471 H474 0.999 . S
C472 H442 0.950 . S
C472 C471 1.524 . S
C472 C473 1.415 . S
C473 H443 0.950 . S
C473 C468 1.363 . S
C473 C472 1.415 . S
H474 C471 0.999 . S
H475 C456 0.913 . S
H476 C494 0.951 . S
H477 C496 0.951 . S
H478 C498 0.950 . S
H479 C499 0.950 . S
H480 C501 0.950 . S
H481 C504 0.950 . S
H482 C505 0.950 . S
H483 C507 0.950 . S
H484 C508 0.950 . S
H485 C509 0.951 . S
H486 C511 0.951 . S
H487 C513 0.950 . S
H488 C514 0.950 . S
H489 C516 0.950 . S
H490 C519 0.950 . S
H491 C520 0.950 . S
H492 C522 0.950 . S
H493 C523 0.950 . S
C494 H476 0.951 . S
C494 C495 1.366 . S
C494 C496 1.388 . S
C495 C494 1.366 . S
C495 C499 1.385 . S
C496 H477 0.951 . S
C496 C494 1.388 . S
C496 C497 1.366 . S
C497 C496 1.366 . S
C497 C498 1.414 . S
C497 C500 1.499 . S
C498 H478 0.950 . S
C498 C497 1.414 . S
C498 C499 1.374 . S
C499 H479 0.950 . S
C499 C495 1.385 . S
C499 C498 1.374 . S
C500 C497 1.499 . S
C500 C501 1.373 . S
C500 C502 1.389 . S
C501 H480 0.950 . S
C501 C500 1.373 . S
C501 C517 1.377 . S
C502 C500 1.389 . S
C502 C503 1.524 . S
C502 C516 1.377 . S
C503 C502 1.524 . S
C503 C504 1.397 . S
C503 C508 1.363 . S
C504 H481 0.950 . S
C504 C503 1.397 . S
C504 C505 1.334 . S
C505 H482 0.950 . S
C505 C504 1.334 . S
C505 C506 1.287 . S
C506 C505 1.287 . S
C506 C507 1.524 . S
C506 H525 0.913 . S
C507 H483 0.950 . S
C507 C506 1.524 . S
C507 C508 1.415 . S
C508 H484 0.950 . S
C508 C503 1.363 . S
C508 C507 1.415 . S
C509 H485 0.951 . S
C509 C510 1.366 . S
C509 C511 1.388 . S
C510 C509 1.366 . S
C510 C514 1.385 . S
C511 H486 0.951 . S
C511 C509 1.388 . S
C511 C512 1.366 . S
C512 C511 1.366 . S
C512 C513 1.414 . S
C512 C515 1.499 . S
C513 H487 0.950 . S
C513 C512 1.414 . S
C513 C514 1.374 . S
C514 H488 0.950 . S
C514 C510 1.385 . S
C514 C513 1.374 . S
C515 C512 1.499 . S
C515 C516 1.373 . S
C515 C517 1.389 . S
C516 H489 0.950 . S
C516 C502 1.377 . S
C516 C515 1.373 . S
C517 C501 1.377 . S
C517 C515 1.389 . S
C517 C518 1.524 . S
C518 C517 1.524 . S
C518 C519 1.397 . S
C518 C523 1.363 . S
C519 H490 0.950 . S
C519 C518 1.397 . S
C519 C520 1.334 . S
C520 H491 0.950 . S
C520 C519 1.334 . S
C520 C521 1.287 . S
C521 C520 1.287 . S
C521 C522 1.524 . S
C521 H524 0.999 . S
C522 H492 0.950 . S
C522 C521 1.524 . S
C522 C523 1.415 . S
C523 H493 0.950 . S
C523 C518 1.363 . S
C523 C522 1.415 . S
H524 C521 0.999 . S
H525 C506 0.913 . S
H526 C544 0.951 . S
H527 C546 0.951 . S
H528 C548 0.950 . S
H529 C549 0.950 . S
H530 C551 0.950 . S
H531 C554 0.950 . S
H532 C555 0.950 . S
H533 C557 0.950 . S
H534 C558 0.950 . S
H535 C559 0.951 . S
H536 C561 0.951 . S
H537 C563 0.950 . S
H538 C564 0.950 . S
H539 C566 0.950 . S
H540 C569 0.950 . S
H541 C570 0.950 . S
H542 C572 0.950 . S
H543 C573 0.950 . S
C544 H526 0.951 . S
C544 C545 1.366 . S
C544 C546 1.388 . S
C545 C544 1.366 . S
C545 C549 1.385 . S
C546 H527 0.951 . S
C546 C544 1.388 . S
C546 C547 1.366 . S
C547 C546 1.366 . S
C547 C548 1.414 . S
C547 C550 1.499 . S
C548 H528 0.950 . S
C548 C547 1.414 . S
C548 C549 1.374 . S
C549 H529 0.950 . S
C549 C545 1.385 . S
C549 C548 1.374 . S
C550 C547 1.499 . S
C550 C551 1.373 . S
C550 C552 1.389 . S
C551 H530 0.950 . S
C551 C550 1.373 . S
C551 C567 1.377 . S
C552 C550 1.389 . S
C552 C553 1.524 . S
C552 C566 1.377 . S
C553 C552 1.524 . S
C553 C554 1.397 . S
C553 C558 1.363 . S
C554 H531 0.950 . S
C554 C553 1.397 . S
C554 C555 1.334 . S
C555 H532 0.950 . S
C555 C554 1.334 . S
C555 C556 1.287 . S
C556 C555 1.287 . S
C556 C557 1.524 . S
C556 H575 0.913 . S
C557 H533 0.950 . S
C557 C556 1.524 . S
C557 C558 1.415 . S
C558 H534 0.950 . S
C558 C553 1.363 . S
C558 C557 1.415 . S
C559 H535 0.951 . S
C559 C560 1.366 . S
C559 C561 1.388 . S
C560 C559 1.366 . S
C560 C564 1.385 . S
C561 H536 0.951 . S
C561 C559 1.388 . S
C561 C562 1.366 . S
C562 C561 1.366 . S
C562 C563 1.414 . S
C562 C565 1.499 . S
C563 H537 0.950 . S
C563 C562 1.414 . S
C563 C564 1.374 . S
C564 H538 0.950 . S
C564 C560 1.385 . S
C564 C563 1.374 . S
C565 C562 1.499 . S
C565 C566 1.373 . S
C565 C567 1.389 . S
C566 H539 0.950 . S
C566 C552 1.377 . S
C566 C565 1.373 . S
C567 C551 1.377 . S
C567 C565 1.389 . S
C567 C568 1.524 . S
C568 C567 1.524 . S
C568 C569 1.397 . S
C568 C573 1.363 . S
C569 H540 0.950 . S
C569 C568 1.397 . S
C569 C570 1.334 . S
C570 H541 0.950 . S
C570 C569 1.334 . S
C570 C571 1.287 . S
C571 C570 1.287 . S
C571 C572 1.524 . S
C571 H574 0.999 . S
C572 H542 0.950 . S
C572 C571 1.524 . S
C572 C573 1.415 . S
C573 H543 0.950 . S
C573 C568 1.363 . S
C573 C572 1.415 . S
H574 C571 0.999 . S
H575 C556 0.913 . S
H576 C594 0.951 . S
H577 C596 0.951 . S
H578 C598 0.950 . S
H579 C599 0.950 . S
H580 C601 0.950 . S
H581 C604 0.950 . S
H582 C605 0.950 . S
H583 C607 0.950 . S
H584 C608 0.950 . S
H585 C609 0.951 . S
H586 C611 0.951 . S
H587 C613 0.950 . S
H588 C614 0.950 . S
H589 C616 0.950 . S
H590 C619 0.950 . S
H591 C620 0.950 . S
H592 C622 0.950 . S
H593 C623 0.950 . S
C594 H576 0.951 . S
C594 C595 1.366 . S
C594 C596 1.388 . S
C595 C594 1.366 . S
C595 C599 1.385 . S
C596 H577 0.951 . S
C596 C594 1.388 . S
C596 C597 1.366 . S
C597 C596 1.366 . S
C597 C598 1.414 . S
C597 C600 1.499 . S
C598 H578 0.950 . S
C598 C597 1.414 . S
C598 C599 1.374 . S
C599 H579 0.950 . S
C599 C595 1.385 . S
C599 C598 1.374 . S
C600 C597 1.499 . S
C600 C601 1.373 . S
C600 C602 1.389 . S
C601 H580 0.950 . S
C601 C600 1.373 . S
C601 C617 1.377 . S
C602 C600 1.389 . S
C602 C603 1.524 . S
C602 C616 1.377 . S
C603 C602 1.524 . S
C603 C604 1.397 . S
C603 C608 1.363 . S
C604 H581 0.950 . S
C604 C603 1.397 . S
C604 C605 1.334 . S
C605 H582 0.950 . S
C605 C604 1.334 . S
C605 C606 1.287 . S
C606 C605 1.287 . S
C606 C607 1.524 . S
C606 H625 0.913 . S
C607 H583 0.950 . S
C607 C606 1.524 . S
C607 C608 1.415 . S
C608 H584 0.950 . S
C608 C603 1.363 . S
C608 C607 1.415 . S
C609 H585 0.951 . S
C609 C610 1.366 . S
C609 C611 1.388 . S
C610 C609 1.366 . S
C610 C614 1.385 . S
C611 H586 0.951 . S
C611 C609 1.388 . S
C611 C612 1.366 . S
C612 C611 1.366 . S
C612 C613 1.414 . S
C612 C615 1.499 . S
C613 H587 0.950 . S
C613 C612 1.414 . S
C613 C614 1.374 . S
C614 H588 0.950 . S
C614 C610 1.385 . S
C614 C613 1.374 . S
C615 C612 1.499 . S
C615 C616 1.373 . S
C615 C617 1.389 . S
C616 H589 0.950 . S
C616 C602 1.377 . S
C616 C615 1.373 . S
C617 C601 1.377 . S
C617 C615 1.389 . S
C617 C618 1.524 . S
C618 C617 1.524 . S
C618 C619 1.397 . S
C618 C623 1.363 . S
C619 H590 0.950 . S
C619 C618 1.397 . S
C619 C620 1.334 . S
C620 H591 0.950 . S
C620 C619 1.334 . S
C620 C621 1.287 . S
C621 C620 1.287 . S
C621 C622 1.524 . S
C621 H624 0.999 . S
C622 H592 0.950 . S
C622 C621 1.524 . S
C622 C623 1.415 . S
C623 H593 0.950 . S
C623 C618 1.363 . S
C623 C622 1.415 . S
H624 C621 0.999 . S
H625 C606 0.913 . S
H626 C644 0.951 . S
H627 C646 0.951 . S
H628 C648 0.950 . S
H629 C649 0.950 . S
H630 C651 0.950 . S
H631 C654 0.950 . S
H632 C655 0.950 . S
H633 C657 0.950 . S
H634 C658 0.950 . S
H635 C659 0.951 . S
H636 C661 0.951 . S
H637 C663 0.950 . S
H638 C664 0.950 . S
H639 C666 0.950 . S
H640 C669 0.950 . S
H641 C670 0.950 . S
H642 C672 0.950 . S
H643 C673 0.950 . S
C644 H626 0.951 . S
C644 C645 1.366 . S
C644 C646 1.388 . S
C645 C644 1.366 . S
C645 C649 1.385 . S
C646 H627 0.951 . S
C646 C644 1.388 . S
C646 C647 1.366 . S
C647 C646 1.366 . S
C647 C648 1.414 . S
C647 C650 1.499 . S
C648 H628 0.950 . S
C648 C647 1.414 . S
C648 C649 1.374 . S
C649 H629 0.950 . S
C649 C645 1.385 . S
C649 C648 1.374 . S
C650 C647 1.499 . S
C650 C651 1.373 . S
C650 C652 1.389 . S
C651 H630 0.950 . S
C651 C650 1.373 . S
C651 C667 1.377 . S
C652 C650 1.389 . S
C652 C653 1.524 . S
C652 C666 1.377 . S
C653 C652 1.524 . S
C653 C654 1.397 . S
C653 C658 1.363 . S
C654 H631 0.950 . S
C654 C653 1.397 . S
C654 C655 1.334 . S
C655 H632 0.950 . S
C655 C654 1.334 . S
C655 C656 1.287 . S
C656 C655 1.287 . S
C656 C657 1.524 . S
C656 H675 0.913 . S
C657 H633 0.950 . S
C657 C656 1.524 . S
C657 C658 1.415 . S
C658 H634 0.950 . S
C658 C653 1.363 . S
C658 C657 1.415 . S
C659 H635 0.951 . S
C659 C660 1.366 . S
C659 C661 1.388 . S
C660 C659 1.366 . S
C660 C664 1.385 . S
C661 H636 0.951 . S
C661 C659 1.388 . S
C661 C662 1.366 . S
C662 C661 1.366 . S
C662 C663 1.414 . S
C662 C665 1.499 . S
C663 H637 0.950 . S
C663 C662 1.414 . S
C663 C664 1.374 . S
C664 H638 0.950 . S
C664 C660 1.385 . S
C664 C663 1.374 . S
C665 C662 1.499 . S
C665 C666 1.373 . S
C665 C667 1.389 . S
C666 H639 0.950 . S
C666 C652 1.377 . S
C666 C665 1.373 . S
C667 C651 1.377 . S
C667 C665 1.389 . S
C667 C668 1.524 . S
C668 C667 1.524 . S
C668 C669 1.397 . S
C668 C673 1.363 . S
C669 H640 0.950 . S
C669 C668 1.397 . S
C669 C670 1.334 . S
C670 H641 0.950 . S
C670 C669 1.334 . S
C670 C671 1.287 . S
C671 C670 1.287 . S
C671 C672 1.524 . S
C671 H674 0.999 . S
C672 H642 0.950 . S
C672 C671 1.524 . S
C672 C673 1.415 . S
C673 H643 0.950 . S
C673 C668 1.363 . S
C673 C672 1.415 . S
H674 C671 0.999 . S
H675 C656 0.913 . S
H676 C694 0.951 . S
H677 C696 0.951 . S
H678 C698 0.950 . S
H679 C699 0.950 . S
H680 C701 0.950 . S
H681 C704 0.950 . S
H682 C705 0.950 . S
H683 C707 0.950 . S
H684 C708 0.950 . S
H685 C709 0.951 . S
H686 C711 0.951 . S
H687 C713 0.950 . S
H688 C714 0.950 . S
H689 C716 0.950 . S
H690 C719 0.950 . S
H691 C720 0.950 . S
H692 C722 0.950 . S
H693 C723 0.950 . S
C694 H676 0.951 . S
C694 C695 1.366 . S
C694 C696 1.388 . S
C695 C694 1.366 . S
C695 C699 1.385 . S
C696 H677 0.951 . S
C696 C694 1.388 . S
C696 C697 1.366 . S
C697 C696 1.366 . S
C697 C698 1.414 . S
C697 C700 1.499 . S
C698 H678 0.950 . S
C698 C697 1.414 . S
C698 C699 1.374 . S
C699 H679 0.950 . S
C699 C695 1.385 . S
C699 C698 1.374 . S
C700 C697 1.499 . S
C700 C701 1.373 . S
C700 C702 1.389 . S
C701 H680 0.950 . S
C701 C700 1.373 . S
C701 C717 1.377 . S
C702 C700 1.389 . S
C702 C703 1.524 . S
C702 C716 1.377 . S
C703 C702 1.524 . S
C703 C704 1.397 . S
C703 C708 1.363 . S
C704 H681 0.950 . S
C704 C703 1.397 . S
C704 C705 1.334 . S
C705 H682 0.950 . S
C705 C704 1.334 . S
C705 C706 1.287 . S
C706 C705 1.287 . S
C706 C707 1.524 . S
C706 H725 0.913 . S
C707 H683 0.950 . S
C707 C706 1.524 . S
C707 C708 1.415 . S
C708 H684 0.950 . S
C708 C703 1.363 . S
C708 C707 1.415 . S
C709 H685 0.951 . S
C709 C710 1.366 . S
C709 C711 1.388 . S
C710 C709 1.366 . S
C710 C714 1.385 . S
C711 H686 0.951 . S
C711 C709 1.388 . S
C711 C712 1.366 . S
C712 C711 1.366 . S
C712 C713 1.414 . S
C712 C715 1.499 . S
C713 H687 0.950 . S
C713 C712 1.414 . S
C713 C714 1.374 . S
C714 H688 0.950 . S
C714 C710 1.385 . S
C714 C713 1.374 . S
C715 C712 1.499 . S
C715 C716 1.373 . S
C715 C717 1.389 . S
C716 H689 0.950 . S
C716 C702 1.377 . S
C716 C715 1.373 . S
C717 C701 1.377 . S
C717 C715 1.389 . S
C717 C718 1.524 . S
C718 C717 1.524 . S
C718 C719 1.397 . S
C718 C723 1.363 . S
C719 H690 0.950 . S
C719 C718 1.397 . S
C719 C720 1.334 . S
C720 H691 0.950 . S
C720 C719 1.334 . S
C720 C721 1.287 . S
C721 C720 1.287 . S
C721 C722 1.524 . S
C721 H724 0.999 . S
C722 H692 0.950 . S
C722 C721 1.524 . S
C722 C723 1.415 . S
C723 H693 0.950 . S
C723 C718 1.363 . S
C723 C722 1.415 . S
H724 C721 0.999 . S
H725 C706 0.913 . S
H726 C744 0.951 . S
H727 C746 0.951 . S
H728 C748 0.950 . S
H729 C749 0.950 . S
H730 C751 0.950 . S
H731 C754 0.950 . S
H732 C755 0.950 . S
H733 C757 0.950 . S
H734 C758 0.950 . S
H735 C759 0.951 . S
H736 C761 0.951 . S
H737 C763 0.950 . S
H738 C764 0.950 . S
H739 C766 0.950 . S
H740 C769 0.950 . S
H741 C770 0.966 . S
H742 C772 0.950 . S
H743 C773 0.950 . S
C744 H726 0.951 . S
C744 C745 1.366 . S
C744 C746 1.388 . S
C745 C744 1.366 . S
C745 C749 1.385 . S
C746 H727 0.951 . S
C746 C744 1.388 . S
C746 C747 1.366 . S
C747 C746 1.366 . S
C747 C748 1.414 . S
C747 C750 1.499 . S
C748 H728 0.950 . S
C748 C747 1.414 . S
C748 C749 1.374 . S
C749 H729 0.950 . S
C749 C745 1.385 . S
C749 C748 1.374 . S
C750 C747 1.499 . S
C750 C751 1.373 . S
C750 C752 1.389 . S
C751 H730 0.950 . S
C751 C750 1.373 . S
C751 C767 1.377 . S
C752 C750 1.389 . S
C752 C753 1.524 . S
C752 C766 1.377 . S
C753 C752 1.524 . S
C753 C754 1.397 . S
C753 C758 1.363 . S
C754 H731 0.950 . S
C754 C753 1.397 . S
C754 C755 1.334 . S
C755 H732 0.950 . S
C755 C754 1.334 . S
C755 C756 1.287 . S
C756 C755 1.287 . S
C756 C757 1.524 . S
C756 H775 0.913 . S
C757 H733 0.950 . S
C757 C756 1.524 . S
C757 C758 1.415 . S
C758 H734 0.950 . S
C758 C753 1.363 . S
C758 C757 1.415 . S
C759 H735 0.951 . S
C759 C760 1.366 . S
C759 C761 1.388 1_655 S
C760 C759 1.366 . S
C760 C764 1.385 1_655 S
C761 H736 0.951 . S
C761 C759 1.388 1_455 S
C761 C762 1.366 . S
C762 C761 1.366 . S
C762 C763 1.414 . S
C762 C765 1.499 . S
C763 H737 0.950 . S
C763 C762 1.414 . S
C763 C764 1.374 . S
C764 H738 0.950 . S
C764 C760 1.385 1_455 S
C764 C763 1.374 . S
C765 C762 1.499 . S
C765 C766 1.373 . S
C765 C767 1.389 . S
C766 H739 0.950 . S
C766 C752 1.377 . S
C766 C765 1.373 . S
C767 C751 1.377 . S
C767 C765 1.389 . S
C767 C768 1.524 . S
C768 C767 1.524 . S
C768 C769 1.397 . S
C768 C773 1.363 . S
C769 H740 0.950 . S
C769 C768 1.397 . S
C769 C770 1.334 . S
C770 H741 0.966 . S
C770 C769 1.334 . S
C770 C771 1.287 1_455 S
C771 C770 1.287 1_655 S
C771 C772 1.524 . S
C771 H774 0.999 . S
C772 H742 0.950 . S
C772 C771 1.524 . S
C772 C773 1.415 1_655 S
C773 H743 0.950 . S
C773 C768 1.363 . S
C773 C772 1.415 1_455 S
H774 C771 0.999 . S
H775 C756 0.913 . S
H776 C794 0.951 . S
H777 C796 0.951 . S
H778 C798 0.950 . S
H779 C799 0.950 . S
H780 C801 0.950 . S
H781 C804 0.950 . S
H782 C805 0.950 . S
H783 C807 0.950 . S
H784 C808 0.950 . S
H785 C809 0.951 . S
H786 C811 0.951 . S
H787 C813 0.950 . S
H788 C814 0.950 . S
H789 C816 0.950 . S
H790 C819 0.950 . S
H791 C820 0.950 . S
H792 C822 0.950 . S
H793 C823 0.950 . S
C794 H776 0.951 . S
C794 C795 1.366 . S
C794 C796 1.388 . S
C795 C794 1.366 . S
C795 C799 1.385 . S
C796 H777 0.951 . S
C796 C794 1.388 . S
C796 C797 1.366 . S
C797 C796 1.366 . S
C797 C798 1.414 . S
C797 C800 1.499 1_655 S
C798 H778 0.950 . S
C798 C797 1.414 . S
C798 C799 1.374 . S
C799 H779 0.950 . S
C799 C795 1.385 . S
C799 C798 1.374 . S
C800 C797 1.499 1_455 S
C800 C801 1.373 . S
C800 C802 1.389 . S
C801 H780 0.950 . S
C801 C800 1.373 . S
C801 C817 1.377 . S
C802 C800 1.389 . S
C802 C803 1.524 . S
C802 C816 1.377 . S
C803 C802 1.524 . S
C803 C804 1.397 1_455 S
C803 C808 1.363 . S
C804 H781 0.950 . S
C804 C803 1.397 1_655 S
C804 C805 1.334 . S
C805 H782 0.950 . S
C805 C804 1.334 . S
C805 C806 1.287 . S
C806 C805 1.287 . S
C806 C807 1.524 1_655 S
C806 H825 0.913 . S
C807 H783 0.950 . S
C807 C806 1.524 1_455 S
C807 C808 1.415 . S
C808 H784 0.950 . S
C808 C803 1.363 . S
C808 C807 1.415 . S
C809 H785 0.951 . S
C809 C810 1.366 . S
C809 C811 1.388 1_545 S
C810 C809 1.366 . S
C810 C814 1.385 1_545 S
C811 H786 0.951 . S
C811 C809 1.388 1_565 S
C811 C812 1.366 . S
C812 C811 1.366 . S
C812 C813 1.414 . S
C812 C815 1.499 . S
C813 H787 0.950 . S
C813 C812 1.414 . S
C813 C814 1.374 . S
C814 H788 0.950 . S
C814 C810 1.385 1_565 S
C814 C813 1.374 . S
C815 C812 1.499 . S
C815 C816 1.373 . S
C815 C817 1.389 . S
C816 H789 0.950 . S
C816 C802 1.377 . S
C816 C815 1.373 . S
C817 C801 1.377 . S
C817 C815 1.389 . S
C817 C818 1.524 . S
C818 C817 1.524 . S
C818 C819 1.397 . S
C818 C823 1.363 . S
C819 H790 0.950 . S
C819 C818 1.397 . S
C819 C820 1.334 . S
C820 H791 0.950 . S
C820 C819 1.334 . S
C820 C821 1.287 . S
C821 C820 1.287 . S
C821 C822 1.524 . S
C821 H824 0.999 . S
C822 H792 0.950 . S
C822 C821 1.524 . S
C822 C823 1.415 . S
C823 H793 0.950 . S
C823 C818 1.363 . S
C823 C822 1.415 . S
H824 C821 0.999 . S
H825 C806 0.913 . S
H826 C844 0.951 . S
H827 C846 0.951 . S
H828 C848 0.950 . S
H829 C849 0.950 . S
H830 C851 0.950 . S
H831 C854 0.950 1_545 S
H832 C855 0.950 . S
H833 C857 0.950 . S
H834 C858 0.950 . S
H835 C859 0.951 . S
H836 C861 0.951 . S
H837 C863 0.950 . S
H838 C864 0.950 . S
H839 C866 0.950 . S
H840 C869 0.950 . S
H841 C870 0.950 . S
H842 C872 0.950 . S
H843 C873 0.950 . S
C844 H826 0.951 . S
C844 C845 1.366 . S
C844 C846 1.388 . S
C845 C844 1.366 . S
C845 C849 1.385 . S
C846 H827 0.951 . S
C846 C844 1.388 . S
C846 C847 1.366 . S
C847 C846 1.366 . S
C847 C848 1.414 . S
C847 C850 1.499 1_545 S
C848 H828 0.950 . S
C848 C847 1.414 . S
C848 C849 1.374 . S
C849 H829 0.950 . S
C849 C845 1.385 . S
C849 C848 1.374 . S
C850 C847 1.499 1_565 S
C850 C851 1.373 . S
C850 C852 1.389 . S
C851 H830 0.950 . S
C851 C850 1.373 . S
C851 C867 1.377 . S
C852 C850 1.389 . S
C852 C853 1.524 . S
C852 C866 1.377 . S
C853 C852 1.524 . S
C853 C854 1.397 . S
C853 C858 1.363 . S
C854 H831 0.950 1_565 S
C854 C853 1.397 . S
C854 C855 1.334 1_565 S
C855 H832 0.950 . S
C855 C854 1.334 1_545 S
C855 C856 1.287 1_545 S
C856 C855 1.287 1_565 S
C856 C857 1.524 . S
C856 H875 0.913 1_565 S
C857 H833 0.950 . S
C857 C856 1.524 . S
C857 C858 1.415 . S
C858 H834 0.950 . S
C858 C853 1.363 . S
C858 C857 1.415 . S
C859 H835 0.951 . S
C859 C860 1.366 . S
C859 C861 1.388 . S
C860 C859 1.366 . S
C860 C864 1.385 . S
C861 H836 0.951 . S
C861 C859 1.388 . S
C861 C862 1.366 . S
C862 C861 1.366 . S
C862 C863 1.414 . S
C862 C865 1.499 . S
C863 H837 0.950 . S
C863 C862 1.414 . S
C863 C864 1.374 . S
C864 H838 0.950 . S
C864 C860 1.385 . S
C864 C863 1.374 . S
C865 C862 1.499 . S
C865 C866 1.373 . S
C865 C867 1.389 . S
C866 H839 0.950 . S
C866 C852 1.377 . S
C866 C865 1.373 . S
C867 C851 1.377 . S
C867 C865 1.389 . S
C867 C868 1.524 . S
C868 C867 1.524 . S
C868 C869 1.397 . S
C868 C873 1.363 . S
C869 H840 0.950 . S
C869 C868 1.397 . S
C869 C870 1.334 . S
C870 H841 0.950 . S
C870 C869 1.334 . S
C870 C871 1.287 . S
C871 C870 1.287 . S
C871 C872 1.524 . S
C871 H874 0.999 . S
C872 H842 0.950 . S
C872 C871 1.524 . S
C872 C873 1.415 . S
C873 H843 0.950 . S
C873 C868 1.363 . S
C873 C872 1.415 . S
H874 C871 0.999 . S
H875 C856 0.913 1_545 S
H876 C894 0.951 . S
H877 C896 0.951 . S
H878 C898 0.950 . S
H879 C899 0.950 . S
H880 C901 0.950 . S
H881 C904 0.950 . S
H882 C905 0.950 . S
H883 C907 0.950 . S
H884 C908 0.950 . S
H885 C909 0.951 . S
H886 C911 0.951 . S
H887 C913 0.950 . S
H888 C914 0.950 . S
H889 C916 0.950 . S
H890 C919 0.950 . S
H891 C920 0.950 . S
H892 C922 0.950 . S
H893 C923 0.950 . S
C894 H876 0.951 . S
C894 C895 1.366 . S
C894 C896 1.388 . S
C895 C894 1.366 . S
C895 C899 1.385 . S
C896 H877 0.951 . S
C896 C894 1.388 . S
C896 C897 1.366 . S
C897 C896 1.366 . S
C897 C898 1.414 . S
C897 C900 1.499 . S
C898 H878 0.950 . S
C898 C897 1.414 . S
C898 C899 1.374 . S
C899 H879 0.950 . S
C899 C895 1.385 . S
C899 C898 1.374 . S
C900 C897 1.499 . S
C900 C901 1.373 . S
C900 C902 1.389 . S
C901 H880 0.950 . S
C901 C900 1.373 . S
C901 C917 1.377 . S
C902 C900 1.389 . S
C902 C903 1.524 . S
C902 C916 1.377 . S
C903 C902 1.524 . S
C903 C904 1.397 . S
C903 C908 1.363 . S
C904 H881 0.950 . S
C904 C903 1.397 . S
C904 C905 1.334 . S
C905 H882 0.950 . S
C905 C904 1.334 . S
C905 C906 1.287 . S
C906 C905 1.287 . S
C906 C907 1.524 . S
C906 H925 0.913 . S
C907 H883 0.950 . S
C907 C906 1.524 . S
C907 C908 1.415 . S
C908 H884 0.950 . S
C908 C903 1.363 . S
C908 C907 1.415 . S
C909 H885 0.951 . S
C909 C910 1.366 1_545 S
C909 C911 1.388 . S
C910 C909 1.366 1_565 S
C910 C914 1.385 . S
C911 H886 0.951 . S
C911 C909 1.388 . S
C911 C912 1.366 . S
C912 C911 1.366 . S
C912 C913 1.414 . S
C912 C915 1.499 . S
C913 H887 0.950 . S
C913 C912 1.414 . S
C913 C914 1.374 1_545 S
C914 H888 0.950 . S
C914 C910 1.385 . S
C914 C913 1.374 1_565 S
C915 C912 1.499 . S
C915 C916 1.373 . S
C915 C917 1.389 . S
C916 H889 0.950 . S
C916 C902 1.377 . S
C916 C915 1.373 . S
C917 C901 1.377 . S
C917 C915 1.389 . S
C917 C918 1.524 . S
C918 C917 1.524 . S
C918 C919 1.397 . S
C918 C923 1.363 . S
C919 H890 0.950 . S
C919 C918 1.397 . S
C919 C920 1.334 . S
C920 H891 0.950 . S
C920 C919 1.334 . S
C920 C921 1.287 . S
C921 C920 1.287 . S
C921 C922 1.524 . S
C921 H924 0.999 . S
C922 H892 0.950 . S
C922 C921 1.524 . S
C922 C923 1.415 . S
C923 H893 0.950 . S
C923 C918 1.363 . S
C923 C922 1.415 . S
H924 C921 0.999 . S
H925 C906 0.913 . S
H926 C944 0.951 . S
H927 C946 0.951 . S
H928 C948 0.950 . S
H929 C949 0.950 . S
H930 C951 0.950 . S
H931 C954 0.960 1_655 S
H932 C955 0.950 . S
H933 C957 0.942 . S
H934 C958 0.950 . S
H935 C959 0.951 . S
H936 C961 0.951 . S
H937 C963 0.950 . S
H938 C964 0.950 . S
H939 C966 0.950 . S
H940 C969 0.950 . S
H941 C970 0.950 . S
H942 C972 0.950 . S
H943 C973 0.950 . S
C944 H926 0.951 . S
C944 C945 1.366 . S
C944 C946 1.388 . S
C945 C944 1.366 . S
C945 C949 1.385 . S
C946 H927 0.951 . S
C946 C944 1.388 . S
C946 C947 1.366 . S
C947 C946 1.366 . S
C947 C948 1.414 . S
C947 C950 1.499 1_455 S
C948 H928 0.950 . S
C948 C947 1.414 . S
C948 C949 1.374 . S
C949 H929 0.950 . S
C949 C945 1.385 . S
C949 C948 1.374 . S
C950 C947 1.499 1_655 S
C950 C951 1.373 . S
C950 C952 1.389 . S
C951 H930 0.950 . S
C951 C950 1.373 . S
C951 C967 1.377 . S
C952 C950 1.389 . S
C952 C953 1.524 . S
C952 C966 1.377 . S
C953 C952 1.524 . S
C953 C954 1.383 1_655 S
C953 C958 1.363 . S
C954 H931 0.960 1_455 S
C954 C953 1.383 1_455 S
C954 C955 1.340 . S
C955 H932 0.950 . S
C955 C954 1.340 . S
C955 C956 1.287 . S
C956 C955 1.287 . S
C956 C957 1.524 1_455 S
C956 H975 0.913 . S
C957 H933 0.942 . S
C957 C956 1.524 1_655 S
C957 C958 1.415 . S
C958 H934 0.950 . S
C958 C953 1.363 . S
C958 C957 1.415 . S
C959 H935 0.951 . S
C959 C960 1.366 . S
C959 C961 1.388 . S
C960 C959 1.366 . S
C960 C964 1.385 . S
C961 H936 0.951 . S
C961 C959 1.388 . S
C961 C962 1.366 . S
C962 C961 1.366 . S
C962 C963 1.414 . S
C962 C965 1.499 . S
C963 H937 0.950 . S
C963 C962 1.414 . S
C963 C964 1.374 . S
C964 H938 0.950 . S
C964 C960 1.385 . S
C964 C963 1.374 . S
C965 C962 1.499 . S
C965 C966 1.373 . S
C965 C967 1.389 . S
C966 H939 0.950 . S
C966 C952 1.377 . S
C966 C965 1.373 . S
C967 C951 1.377 . S
C967 C965 1.389 . S
C967 C968 1.524 . S
C968 C967 1.524 . S
C968 C969 1.397 . S
C968 C973 1.363 . S
C969 H940 0.950 . S
C969 C968 1.397 . S
C969 C970 1.334 . S
C970 H941 0.950 . S
C970 C969 1.334 . S
C970 C971 1.287 . S
C971 C970 1.287 . S
C971 C972 1.524 . S
C971 H974 0.999 . S
C972 H942 0.950 . S
C972 C971 1.524 . S
C972 C973 1.415 . S
C973 H943 0.950 . S
C973 C968 1.363 . S
C973 C972 1.415 . S
H974 C971 0.999 . S
H975 C956 0.913 . S
H976 C994 0.963 . S
H977 C996 0.951 . S
H978 C998 0.950 . S
H979 C999 0.950 . S
H980 C1001 0.950 . S
H981 C1004 0.950 . S
H982 C1005 0.950 . S
H983 C1007 0.950 . S
H984 C1008 0.950 . S
H985 C1009 0.951 . S
H986 C1011 0.951 . S
H987 C1013 0.950 . S
H988 C1014 0.950 . S
H989 C1016 0.950 . S
H990 C1019 0.950 . S
H991 C1020 0.950 1_565 S
H992 C1022 0.950 . S
H993 C1023 0.950 . S
C994 H976 0.963 . S
C994 C995 1.359 . S
C994 C996 1.384 1_455 S
C995 C994 1.359 . S
C995 C999 1.385 1_455 S
C996 H977 0.951 . S
C996 C994 1.384 1_655 S
C996 C997 1.366 . S
C997 C996 1.366 . S
C997 C998 1.414 . S
C997 C1000 1.499 . S
C998 H978 0.950 . S
C998 C997 1.414 . S
C998 C999 1.374 . S
C999 H979 0.950 . S
C999 C995 1.385 1_655 S
C999 C998 1.374 . S
C1000 C997 1.499 . S
C1000 C1001 1.373 . S
C1000 C1002 1.389 . S
C1001 H980 0.950 . S
C1001 C1000 1.373 . S
C1001 C1017 1.377 . S
C1002 C1000 1.389 . S
C1002 C1003 1.524 . S
C1002 C1016 1.377 . S
C1003 C1002 1.524 . S
C1003 C1004 1.397 . S
C1003 C1008 1.363 . S
C1004 H981 0.950 . S
C1004 C1003 1.397 . S
C1004 C1005 1.334 1_655 S
C1005 H982 0.950 . S
C1005 C1004 1.334 1_455 S
C1005 C1006 1.287 . S
C1006 C1005 1.287 . S
C1006 C1007 1.524 . S
C1006 H1025 0.913 . S
C1007 H983 0.950 . S
C1007 C1006 1.524 . S
C1007 C1008 1.415 1_455 S
C1008 H984 0.950 . S
C1008 C1003 1.363 . S
C1008 C1007 1.415 1_655 S
C1009 H985 0.951 . S
C1009 C1010 1.366 . S
C1009 C1011 1.388 . S
C1010 C1009 1.366 . S
C1010 C1014 1.385 . S
C1011 H986 0.951 . S
C1011 C1009 1.388 . S
C1011 C1012 1.366 . S
C1012 C1011 1.366 . S
C1012 C1013 1.414 . S
C1012 C1015 1.499 1_565 S
C1013 H987 0.950 . S
C1013 C1012 1.414 . S
C1013 C1014 1.374 . S
C1014 H988 0.950 . S
C1014 C1010 1.385 . S
C1014 C1013 1.374 . S
C1015 C1012 1.499 1_545 S
C1015 C1016 1.373 . S
C1015 C1017 1.389 . S
C1016 H989 0.950 . S
C1016 C1002 1.377 . S
C1016 C1015 1.373 . S
C1017 C1001 1.377 . S
C1017 C1015 1.389 . S
C1017 C1018 1.524 . S
C1018 C1017 1.524 . S
C1018 C1019 1.397 . S
C1018 C1023 1.363 . S
C1019 H990 0.950 . S
C1019 C1018 1.397 . S
C1019 C1020 1.334 . S
C1020 H991 0.950 1_545 S
C1020 C1019 1.334 . S
C1020 C1021 1.287 . S
C1021 C1020 1.287 . S
C1021 C1022 1.524 . S
C1021 H1024 0.999 . S
C1022 H992 0.950 . S
C1022 C1021 1.524 . S
C1022 C1023 1.415 . S
C1023 H993 0.950 . S
C1023 C1018 1.363 . S
C1023 C1022 1.415 . S
H1024 C1021 0.999 . S
H1025 C1006 0.913 . S
C145 C99 1.670 . S
C160 C18 1.671 . S
C195 C123 1.727 . S
C210 C36 1.726 . S
C245 C60 1.670 . S
C260 C78 1.671 . S
C295 C15 1.727 . S
C310 C102 1.726 . S
C345 C120 1.671 . S
C360 C39 1.669 . S
C395 C57 1.726 . S
C410 C81 1.727 . S
C445 C14 1.173 . S
C460 C55 1.243 . S
C495 C35 1.171 . S
C510 C13 1.244 . S
C545 C56 1.171 . S
C560 C34 1.244 . S
C595 C80 1.173 . S
C610 C100 1.243 . S
C645 C101 1.172 . S
C660 C121 1.244 . S
C695 C79 1.243 . S
C710 C122 1.172 . S
C745 C16 0.645 . S
C760 C59 0.676 . S
C795 C37 0.646 . S
C810 C17 0.675 . S
C845 C58 0.645 . S
C860 C38 0.676 . S
C895 C76 0.648 . S
C910 C98 0.672 . S
C945 C97 0.648 . S
C960 C119 0.672 . S
C995 C77 0.675 . S
C1010 C118 0.646 . S
