# Generated by pormake.
# Topology wjo, (5)-cn, num edge types: 1
# Building blocks:
#     Node 0, Type 0, BuildingBlock: XOMCOT_clean_sbu_0, # of connection points: 5
#     Node 1, Type 0, BuildingBlock: XOMCOT_clean_sbu_0, # of connection points: 5
#     Node 2, Type 0, BuildingBlock: XOMCOT_clean_sbu_0, # of connection points: 5
#     Node 3, Type 0, BuildingBlock: XOMCOT_clean_sbu_0, # of connection points: 5
#     Node 4, Type 0, BuildingBlock: XOMCOT_clean_sbu_0, # of connection points: 5
#     Node 5, Type 0, BuildingBlock: XOMCOT_clean_sbu_0, # of connection points: 5
#     Node 6, Type 0, BuildingBlock: XOMCOT_clean_sbu_0, # of connection points: 5
#     Node 7, Type 0, BuildingBlock: XOMCOT_clean_sbu_0, # of connection points: 5
#     Node 8, Type 0, BuildingBlock: XOMCOT_clean_sbu_0, # of connection points: 5
#     Node 9, Type 0, BuildingBlock: XOMCOT_clean_sbu_0, # of connection points: 5
#     Node 10, Type 0, BuildingBlock: XOMCOT_clean_sbu_0, # of connection points: 5
#     Node 11, Type 0, BuildingBlock: XOMCOT_clean_sbu_0, # of connection points: 5
#     Edge 12, Type (0, 0), BuildingBlock: KIFKEQ_clean_linker_1, # of connection points: 2
#     Edge 13, Type (0, 0), BuildingBlock: KIFKEQ_clean_linker_1, # of connection points: 2
#     Edge 14, Type (0, 0), BuildingBlock: KIFKEQ_clean_linker_1, # of connection points: 2
#     Edge 15, Type (0, 0), BuildingBlock: KIFKEQ_clean_linker_1, # of connection points: 2
#     Edge 16, Type (0, 0), BuildingBlock: KIFKEQ_clean_linker_1, # of connection points: 2
#     Edge 17, Type (0, 0), BuildingBlock: KIFKEQ_clean_linker_1, # of connection points: 2
#     Edge 18, Type (0, 0), BuildingBlock: KIFKEQ_clean_linker_1, # of connection points: 2
#     Edge 19, Type (0, 0), BuildingBlock: KIFKEQ_clean_linker_1, # of connection points: 2
#     Edge 20, Type (0, 0), BuildingBlock: KIFKEQ_clean_linker_1, # of connection points: 2
#     Edge 21, Type (0, 0), BuildingBlock: KIFKEQ_clean_linker_1, # of connection points: 2
#     Edge 22, Type (0, 0), BuildingBlock: KIFKEQ_clean_linker_1, # of connection points: 2
#     Edge 23, Type (0, 0), BuildingBlock: KIFKEQ_clean_linker_1, # of connection points: 2
#     Edge 24, Type (0, 0), BuildingBlock: KIFKEQ_clean_linker_1, # of connection points: 2
#     Edge 25, Type (0, 0), BuildingBlock: KIFKEQ_clean_linker_1, # of connection points: 2
#     Edge 26, Type (0, 0), BuildingBlock: KIFKEQ_clean_linker_1, # of connection points: 2
#     Edge 27, Type (0, 0), BuildingBlock: KIFKEQ_clean_linker_1, # of connection points: 2
#     Edge 28, Type (0, 0), BuildingBlock: KIFKEQ_clean_linker_1, # of connection points: 2
#     Edge 29, Type (0, 0), BuildingBlock: KIFKEQ_clean_linker_1, # of connection points: 2
#     Edge 30, Type (0, 0), BuildingBlock: KIFKEQ_clean_linker_1, # of connection points: 2
#     Edge 31, Type (0, 0), BuildingBlock: KIFKEQ_clean_linker_1, # of connection points: 2
#     Edge 32, Type (0, 0), BuildingBlock: KIFKEQ_clean_linker_1, # of connection points: 2
#     Edge 33, Type (0, 0), BuildingBlock: KIFKEQ_clean_linker_1, # of connection points: 2
#     Edge 34, Type (0, 0), BuildingBlock: KIFKEQ_clean_linker_1, # of connection points: 2
#     Edge 35, Type (0, 0), BuildingBlock: KIFKEQ_clean_linker_1, # of connection points: 2
#     Edge 36, Type (0, 0), BuildingBlock: KIFKEQ_clean_linker_1, # of connection points: 2
#     Edge 37, Type (0, 0), BuildingBlock: KIFKEQ_clean_linker_1, # of connection points: 2
#     Edge 38, Type (0, 0), BuildingBlock: KIFKEQ_clean_linker_1, # of connection points: 2
#     Edge 39, Type (0, 0), BuildingBlock: KIFKEQ_clean_linker_1, # of connection points: 2
#     Edge 40, Type (0, 0), BuildingBlock: KIFKEQ_clean_linker_1, # of connection points: 2
#     Edge 41, Type (0, 0), BuildingBlock: KIFKEQ_clean_linker_1, # of connection points: 2
# Relax obj value: 0.367
# Max RMSD: 0.208
# Mean RMSD: 0.207
data_MOF--net-wjo--node1-XOMCOT_clean_sbu_0--edge1-KIFKEQ_clean_linker_1
_symmetry_space_group_name_H-M    P1
_symmetry_Int_Tables_number       1
_symmetry_cell_setting            triclinic
loop_
_symmetry_equiv_pos_as_xyz
'x, y, z'
_cell_length_a     46.996744
_cell_length_b     47.03482
_cell_length_c     30.119111
_cell_angle_alpha  90.008427
_cell_angle_beta   89.924621
_cell_angle_gamma 120.0454
loop_
_atom_site_label
_atom_site_type_symbol
_atom_site_fract_x
_atom_site_fract_y
_atom_site_fract_z
_atom_type_partial_charge
Co0 Co 0.27441 0.37524 0.97782 0.0
C1 C 0.29364 0.34168 0.91087 0.0
C2 C 0.24159 0.32166 0.91153 0.0
C3 C 0.24889 0.3029 0.88365 0.0
N4 N 0.26977 0.34668 0.92786 0.0
N5 N 0.28172 0.31541 0.88347 0.0
H6 H 0.31902 0.35537 0.92091 0.0
H7 H 0.21716 0.31551 0.92188 0.0
C8 C 0.21155 0.36884 0.93642 0.0
O9 O 0.22216 0.37268 0.89528 0.0
N10 N 0.27927 0.40257 0.02831 0.0
C11 C 0.3063 0.43088 0.03998 0.0
C12 C 0.30105 0.44015 0.08113 0.0
C13 C 0.25827 0.39462 0.06267 0.0
N14 N 0.27097 0.41718 0.09538 0.0
C15 C 0.32694 0.42357 0.92485 0.0
C16 C 0.30696 0.46968 0.92857 0.0
C17 C 0.33892 0.47943 0.91408 0.0
C18 C 0.34825 0.45556 0.91045 0.0
C19 C 0.28596 0.43705 0.94157 0.0
N20 N 0.2965 0.41468 0.94119 0.0
H21 H 0.33647 0.40712 0.92692 0.0
H22 H 0.26264 0.43088 0.95638 0.0
H23 H 0.32873 0.44324 0.02074 0.0
H24 H 0.2346 0.3723 0.0642 0.0
O25 O 0.31218 0.37307 -0.00078 0.0
O26 O 0.26015 0.33856 0.01697 0.0
O27 O 0.22955 0.36971 0.9686 0.0
C28 C 0.29103 0.34823 0.02299 0.0
H29 H 0.23114 0.28026 0.86771 0.0
H30 H 0.31859 0.46128 0.10003 0.0
H31 H 0.29894 0.48751 0.93221 0.0
H32 H 0.37296 0.46219 0.90041 0.0
Co33 Co 0.91318 0.26711 0.14171 0.0
C34 C 0.96953 0.27841 0.08401 0.0
C35 C 0.92418 0.25523 0.04806 0.0
C36 C 0.9495 0.26216 0.01887 0.0
N37 N 0.93667 0.26545 0.08906 0.0
N38 N 0.97803 0.27679 0.04156 0.0
H39 H 0.98725 0.29036 0.11023 0.0
H40 H 0.89869 0.24495 0.03919 0.0
C41 C 0.8515 0.20428 0.10646 0.0
O42 O 0.8435 0.21864 0.07551 0.0
N43 N 0.89076 0.26951 0.1943 0.0
C44 C 0.89065 0.29671 0.20806 0.0
C45 C 0.87778 0.29145 0.25005 0.0
C46 C 0.87863 0.24824 0.2286 0.0
N47 N 0.87056 0.26114 0.26332 0.0
C48 C 0.91453 0.31631 0.08559 0.0
C49 C 0.85099 0.30222 0.10316 0.0
C50 C 0.87301 0.33241 0.08345 0.0
C51 C 0.90467 0.33863 0.07278 0.0
C52 C 0.86172 0.28039 0.11498 0.0
N53 N 0.89355 0.28817 0.10777 0.0
H54 H 0.93997 0.32306 0.08114 0.0
H55 H 0.84536 0.25883 0.13407 0.0
H56 H 0.90054 0.31938 0.18947 0.0
H57 H 0.87771 0.22478 0.22908 0.0
O58 O 0.95206 0.30612 0.16318 0.0
O59 O 0.9382 0.25461 0.17857 0.0
O60 O 0.8766 0.22066 0.13115 0.0
C61 C 0.95754 0.28574 0.18601 0.0
H62 H 0.94709 0.25735 0.98354 0.0
H63 H 0.87477 0.30906 0.26961 0.0
H64 H 0.82628 0.29641 0.11186 0.0
H65 H 0.92263 0.36179 0.05809 0.0
Co66 Co 0.66015 0.90635 0.3087 0.0
C67 C 0.69776 0.96142 0.24562 0.0
C68 C 0.69396 0.91689 0.22115 0.0
C69 C 0.71237 0.94185 0.19155 0.0
N70 N 0.68483 0.92912 0.25536 0.0
N71 N 0.71463 0.9698 0.20697 0.0
H72 H 0.69551 0.9788 0.26665 0.0
H73 H 0.68812 0.89177 0.21757 0.0
C74 C 0.66043 0.84368 0.27646 0.0
O75 O 0.63776 0.83519 0.24581 0.0
N76 N 0.63632 0.8849 0.36221 0.0
C77 C 0.61031 0.88633 0.3784 0.0
C78 C 0.60415 0.87412 0.42088 0.0
C79 C 0.64592 0.8722 0.39516 0.0
N80 N 0.62667 0.86548 0.43147 0.0
C81 C 0.61154 0.90595 0.2521 0.0
C82 C 0.56198 0.84352 0.27445 0.0
C83 C 0.55369 0.86488 0.25311 0.0
C84 C 0.57916 0.8959 0.24007 0.0
C85 C 0.59476 0.85441 0.2854 0.0
N86 N 0.61893 0.88578 0.27584 0.0
H87 H 0.63018 0.9311 0.24587 0.0
H88 H 0.60016 0.83863 0.30543 0.0
H89 H 0.59765 0.89694 0.36116 0.0
H90 H 0.66775 0.87 0.3936 0.0
O91 O 0.65988 0.94534 0.32906 0.0
O92 O 0.69823 0.93236 0.34415 0.0
O93 O 0.67 0.86966 0.29953 0.0
C94 C 0.68639 0.95173 0.35097 0.0
H95 H 0.72319 0.93956 0.16097 0.0
H96 H 0.58509 0.87254 0.4427 0.0
H97 H 0.54307 0.8193 0.28494 0.0
H98 H 0.57389 0.91337 0.22408 0.0
Co99 Co 0.76951 0.65307 0.47627 0.0
C100 C 0.75402 0.69401 0.41682 0.0
C101 C 0.7942 0.68976 0.39094 0.0
C102 C 0.78788 0.70882 0.36228 0.0
N103 N 0.773 0.68046 0.42538 0.0
N104 N 0.76247 0.71128 0.37853 0.0
H105 H 0.73431 0.69141 0.43807 0.0
H106 H 0.81289 0.68317 0.38627 0.0
C107 C 0.83218 0.6528 0.44312 0.0
O108 O 0.81814 0.63099 0.41143 0.0
N109 N 0.76548 0.62644 0.52746 0.0
C110 C 0.73772 0.59923 0.54023 0.0
C111 C 0.74202 0.59091 0.58229 0.0
C112 C 0.78608 0.6348 0.56239 0.0
N113 N 0.77227 0.61349 0.59657 0.0
C114 C 0.72083 0.60843 0.41699 0.0
C115 C 0.72992 0.55584 0.43479 0.0
C116 C 0.70013 0.54986 0.41597 0.0
C117 C 0.69676 0.57689 0.40447 0.0
C118 C 0.75368 0.58799 0.44643 0.0
N119 N 0.74807 0.61356 0.43979 0.0
H120 H 0.71569 0.62816 0.41249 0.0
H121 H 0.77459 0.59155 0.46573 0.0
H122 H 0.71526 0.58718 0.5211 0.0
H123 H 0.80963 0.65723 0.56379 0.0
O124 O 0.73066 0.65328 0.49765 0.0
O125 O 0.78226 0.68965 0.51502 0.0
O126 O 0.81574 0.66201 0.46684 0.0
C127 C 0.7511 0.6785 0.52146 0.0
H128 H 0.80065 0.71954 0.33145 0.0
H129 H 0.72372 0.5703 0.60126 0.0
H130 H 0.73355 0.53571 0.44445 0.0
H131 H 0.67444 0.5735 0.38909 0.0
Co132 Co 0.1329 0.76258 0.64357 0.0
C133 C 0.07551 0.74635 0.58532 0.0
C134 C 0.1201 0.78486 0.55712 0.0
C135 C 0.0945 0.77818 0.52872 0.0
N136 N 0.10825 0.765 0.59288 0.0
N137 N 0.06652 0.75382 0.54641 0.0
H138 H 0.05841 0.72754 0.60765 0.0
H139 H 0.14554 0.80276 0.55131 0.0
C140 C 0.19535 0.82574 0.60939 0.0
O141 O 0.20363 0.81205 0.57776 0.0
N142 N 0.15651 0.76001 0.6945 0.0
C143 C 0.15765 0.7333 0.70825 0.0
C144 C 0.17329 0.74009 0.74864 0.0
C145 C 0.17038 0.78227 0.72734 0.0
N146 N 0.18101 0.77072 0.76058 0.0
C147 C 0.12872 0.71358 0.58504 0.0
C148 C 0.19066 0.72305 0.60216 0.0
C149 C 0.16666 0.69297 0.58418 0.0
C150 C 0.13614 0.68944 0.57286 0.0
C151 C 0.18234 0.74695 0.61329 0.0
N152 N 0.151 0.74109 0.6072 0.0
H153 H 0.10376 0.7083 0.58084 0.0
H154 H 0.1999 0.76822 0.63185 0.0
H155 H 0.14678 0.71008 0.69084 0.0
H156 H 0.1716 0.80588 0.72764 0.0
O157 O 0.09438 0.72372 0.666 0.0
O158 O 0.10902 0.77528 0.68248 0.0
O159 O 0.16968 0.80884 0.63295 0.0
C160 C 0.08938 0.74414 0.68951 0.0
H161 H 0.09646 0.78987 0.49702 0.0
H162 H 0.17711 0.72326 0.76884 0.0
H163 H 0.21457 0.72687 0.61153 0.0
H164 H 0.1171 0.66697 0.55796 0.0
Co165 Co 0.38369 0.12209 0.81236 0.0
C166 C 0.34938 0.07193 0.74215 0.0
C167 C 0.33528 0.10864 0.7405 0.0
C168 C 0.31624 0.08435 0.71061 0.0
N169 N 0.35673 0.10137 0.75983 0.0
N170 N 0.3249 0.06102 0.71183 0.0
H171 H 0.35971 0.05732 0.75389 0.0
H172 H 0.33146 0.12864 0.74967 0.0
C173 C 0.38268 0.18309 0.77699 0.0
O174 O 0.39178 0.1808 0.73651 0.0
N175 N 0.40936 0.14138 0.86524 0.0
C176 C 0.43528 0.13898 0.87928 0.0
C177 C 0.4431 0.15135 0.92173 0.0
C178 C 0.40151 0.15477 0.89922 0.0
N179 N 0.42175 0.16115 0.9342 0.0
C180 C 0.43206 0.11995 0.75711 0.0
C181 C 0.48069 0.18412 0.7726 0.0
C182 C 0.48939 0.16224 0.75384 0.0
C183 C 0.46435 0.13022 0.74426 0.0
C184 C 0.4479 0.17301 0.78415 0.0
N185 N 0.42426 0.14088 0.77804 0.0
H186 H 0.41408 0.09433 0.75385 0.0
H187 H 0.44228 0.18944 0.80219 0.0
H188 H 0.44689 0.1279 0.86058 0.0
H189 H 0.38023 0.15792 0.89925 0.0
O190 O 0.38041 0.08091 0.82992 0.0
O191 O 0.34569 0.09786 0.84888 0.0
O192 O 0.37902 0.16221 0.80669 0.0
C193 C 0.35498 0.07623 0.85319 0.0
H194 H 0.29638 0.08331 0.69123 0.0
H195 H 0.46262 0.15251 0.94207 0.0
H196 H 0.49932 0.20907 0.78058 0.0
H197 H 0.47002 0.11235 0.73047 0.0
Co198 Co 0.65569 0.75822 0.84833 0.0
C199 C 0.69861 0.74453 0.90634 0.0
C200 C 0.6794 0.77073 0.94172 0.0
C201 C 0.69773 0.76358 0.97068 0.0
N202 N 0.67996 0.75881 0.90122 0.0
N203 N 0.70982 0.74708 0.94829 0.0
H204 H 0.70297 0.73132 0.88042 0.0
H205 H 0.66582 0.78286 0.95026 0.0
C206 C 0.65824 0.82215 0.88253 0.0
O207 O 0.63551 0.80881 0.91336 0.0
N208 N 0.632 0.75714 0.7954 0.0
C209 C 0.60548 0.7303 0.77901 0.0
C210 C 0.59971 0.73706 0.73672 0.0
C211 C 0.64227 0.77978 0.76278 0.0
N212 N 0.62298 0.76805 0.72644 0.0
C213 C 0.6068 0.70928 0.90378 0.0
C214 C 0.55797 0.72387 0.88463 0.0
C215 C 0.54928 0.69367 0.90468 0.0
C216 C 0.5744 0.68721 0.91613 0.0
C217 C 0.59083 0.74557 0.8735 0.0
N218 N 0.61455 0.73748 0.8814 0.0
H219 H 0.62524 0.70229 0.90877 0.0
H220 H 0.59657 0.76732 0.85455 0.0
H221 H 0.59226 0.70689 0.79587 0.0
H222 H 0.66464 0.80339 0.76448 0.0
O223 O 0.65494 0.71904 0.82629 0.0
O224 O 0.69359 0.77052 0.81234 0.0
O225 O 0.66641 0.80476 0.85914 0.0
C226 C 0.68138 0.73943 0.8043 0.0
H227 H 0.70167 0.76994 0.00553 0.0
H228 H 0.58045 0.72011 0.71474 0.0
H229 H 0.5393 0.72981 0.8753 0.0
H230 H 0.56876 0.66402 0.93108 0.0
Co231 Co 0.91008 0.64895 0.01421 0.0
C232 C 0.96768 0.6916 0.07106 0.0
C233 C 0.92251 0.67529 0.10623 0.0
C234 C 0.94829 0.69338 0.13483 0.0
N235 N 0.93462 0.67419 0.06606 0.0
N236 N 0.97673 0.7036 0.11263 0.0
H237 H 0.98496 0.69439 0.04542 0.0
H238 H 0.89682 0.66299 0.11492 0.0
C239 C 0.84905 0.65152 0.05019 0.0
O240 O 0.84036 0.62917 0.08138 0.0
N241 N 0.88651 0.62421 0.96235 0.0
C242 C 0.88535 0.59662 0.94739 0.0
C243 C 0.86993 0.58865 0.90687 0.0
C244 C 0.87268 0.63324 0.93022 0.0
N245 N 0.86219 0.61176 0.89607 0.0
C246 C 0.91169 0.60152 0.07064 0.0
C247 C 0.84805 0.5519 0.05432 0.0
C248 C 0.87029 0.54393 0.07372 0.0
C249 C 0.90199 0.56948 0.08381 0.0
C250 C 0.85862 0.58444 0.0423 0.0
N251 N 0.89054 0.60852 0.04872 0.0
H252 H 0.93718 0.6202 0.07451 0.0
H253 H 0.84204 0.58956 0.02369 0.0
H254 H 0.89599 0.58382 0.96418 0.0
H255 H 0.87119 0.65546 0.93127 0.0
O256 O 0.94821 0.64796 0.99137 0.0
O257 O 0.93499 0.6862 0.97678 0.0
O258 O 0.87421 0.65956 0.02586 0.0
C259 C 0.95395 0.67405 0.96885 0.0
H260 H 0.94614 0.69838 0.16936 0.0
H261 H 0.86612 0.56831 0.88597 0.0
H262 H 0.82332 0.53287 0.04606 0.0
H263 H 0.92009 0.56442 0.09824 0.0
Co264 Co 0.27454 0.90318 0.18229 0.0
C265 C 0.29263 0.96012 0.24223 0.0
C266 C 0.25153 0.91639 0.2681 0.0
C267 C 0.25862 0.94196 0.2967 0.0
N268 N 0.27278 0.92768 0.23368 0.0
N269 N 0.28453 0.96943 0.28044 0.0
H270 H 0.31243 0.97684 0.22078 0.0
H271 H 0.23205 0.89146 0.27268 0.0
C272 C 0.21107 0.84141 0.21766 0.0
O273 O 0.22415 0.83412 0.25113 0.0
N274 N 0.27668 0.87976 0.13079 0.0
C275 C 0.30301 0.87775 0.11731 0.0
C276 C 0.29608 0.86224 0.07683 0.0
C277 C 0.25452 0.86651 0.09772 0.0
N278 N 0.26576 0.85544 0.06458 0.0
C279 C 0.32436 0.90611 0.23862 0.0
C280 C 0.3099 0.84209 0.225 0.0
C281 C 0.34038 0.86466 0.24349 0.0
C282 C 0.34677 0.8966 0.25221 0.0
C283 C 0.28791 0.8525 0.21245 0.0
N284 N 0.29595 0.88456 0.2175 0.0
H285 H 0.33134 0.93166 0.24142 0.0
H286 H 0.26608 0.83561 0.19431 0.0
H287 H 0.32605 0.88784 0.13504 0.0
H288 H 0.23118 0.86588 0.09729 0.0
O289 O 0.31316 0.94179 0.15921 0.0
O290 O 0.26128 0.92706 0.14462 0.0
O291 O 0.2284 0.86633 0.19311 0.0
C292 C 0.29228 0.94672 0.13668 0.0
H293 H 0.24581 0.94034 0.32731 0.0
H294 H 0.31261 0.85777 0.05685 0.0
H295 H 0.30397 0.81715 0.2178 0.0
H296 H 0.37014 0.91497 0.26589 0.0
Co297 Co 0.38443 0.26616 0.34878 0.0
C298 C 0.34574 0.28337 0.41034 0.0
C299 C 0.34815 0.24183 0.43459 0.0
C300 C 0.32943 0.24841 0.46359 0.0
N301 N 0.3584 0.26371 0.40093 0.0
N302 N 0.32805 0.27463 0.44834 0.0
H303 H 0.34891 0.3035 0.38961 0.0
H304 H 0.35349 0.2222 0.43822 0.0
C305 C 0.38503 0.20388 0.38242 0.0
O306 O 0.40705 0.21818 0.41382 0.0
N307 N 0.40965 0.26908 0.29649 0.0
C308 C 0.43572 0.29679 0.28101 0.0
C309 C 0.44347 0.29075 0.23943 0.0
C310 C 0.40159 0.24662 0.26399 0.0
N311 N 0.4219 0.25931 0.22864 0.0
C312 C 0.43115 0.31518 0.40629 0.0
C313 C 0.48211 0.30349 0.3883 0.0
C314 C 0.4892 0.33293 0.40935 0.0
C315 C 0.46294 0.3379 0.41998 0.0
C316 C 0.4498 0.28119 0.37551 0.0
N317 N 0.42494 0.28774 0.38315 0.0
H318 H 0.41207 0.3213 0.41084 0.0
H319 H 0.44541 0.26016 0.35581 0.0
H320 H 0.44742 0.32015 0.2981 0.0
H321 H 0.38016 0.22227 0.26507 0.0
O322 O 0.38397 0.30479 0.32732 0.0
O323 O 0.34686 0.25306 0.31185 0.0
O324 O 0.37553 0.22005 0.35876 0.0
C325 C 0.35794 0.28413 0.30497 0.0
H326 H 0.31788 0.23502 0.49373 0.0
H327 H 0.46297 0.30842 0.2183 0.0
H328 H 0.50158 0.29855 0.37959 0.0
H329 H 0.46718 0.36048 0.43545 0.0
Co330 Co 0.13254 0.37697 0.51391 0.0
C331 C 0.07595 0.33024 0.57016 0.0
C332 C 0.12077 0.35408 0.60732 0.0
C333 C 0.09523 0.33561 0.63614 0.0
N334 N 0.10874 0.35095 0.56582 0.0
N335 N 0.06708 0.32066 0.61268 0.0
H336 H 0.05844 0.32366 0.54344 0.0
H337 H 0.14602 0.37021 0.6167 0.0
C338 C 0.19422 0.3757 0.54934 0.0
O339 O 0.20221 0.39775 0.58075 0.0
N340 N 0.1554 0.40272 0.46217 0.0
C341 C 0.15556 0.43017 0.44904 0.0
C342 C 0.16935 0.43872 0.40761 0.0
C343 C 0.16842 0.39443 0.42803 0.0
N344 N 0.17712 0.41608 0.39403 0.0
C345 C 0.12957 0.42341 0.5709 0.0
C346 C 0.19315 0.47391 0.55651 0.0
C347 C 0.17047 0.48112 0.57639 0.0
C348 C 0.13872 0.45506 0.58522 0.0
C349 C 0.18308 0.44171 0.54314 0.0
N350 N 0.15126 0.41715 0.54897 0.0
H351 H 0.10413 0.40436 0.57416 0.0
H352 H 0.20001 0.43727 0.52419 0.0
H353 H 0.14518 0.44247 0.4677 0.0
H354 H 0.16961 0.37205 0.42719 0.0
O355 O 0.0936 0.37681 0.49209 0.0
O356 O 0.10831 0.3399 0.476 0.0
O357 O 0.16927 0.3674 0.52456 0.0
C358 C 0.08869 0.35135 0.46871 0.0
H359 H 0.0971 0.33402 0.67177 0.0
H360 H 0.17263 0.45969 0.38869 0.0
H361 H 0.21794 0.49326 0.54911 0.0
H362 H 0.12018 0.45944 0.59981 0.0
Co363 Co 0.76799 0.12412 0.68081 0.0
C364 C 0.75701 0.06702 0.73644 0.0
C365 C 0.7781 0.11129 0.77455 0.0
C366 C 0.77079 0.08542 0.8027 0.0
N367 N 0.76963 0.09993 0.73273 0.0
N368 N 0.7573 0.05746 0.77875 0.0
H369 H 0.74598 0.05 0.70928 0.0
H370 H 0.78676 0.13616 0.78492 0.0
C371 C 0.83195 0.18479 0.71748 0.0
O372 O 0.81979 0.18974 0.75397 0.0
N373 N 0.76562 0.14715 0.62904 0.0
C374 C 0.73932 0.1492 0.61574 0.0
C375 C 0.74574 0.16354 0.57444 0.0
C376 C 0.78725 0.15927 0.59517 0.0
N377 N 0.77575 0.16964 0.56152 0.0
C378 C 0.71782 0.12134 0.73612 0.0
C379 C 0.73358 0.18591 0.72412 0.0
C380 C 0.70275 0.16342 0.74197 0.0
C381 C 0.69569 0.13116 0.74989 0.0
C382 C 0.75538 0.17519 0.71157 0.0
N383 N 0.74662 0.14289 0.71573 0.0
H384 H 0.71061 0.09566 0.73851 0.0
H385 H 0.77772 0.19209 0.6943 0.0
H386 H 0.71655 0.13978 0.63407 0.0
H387 H 0.81035 0.15943 0.59454 0.0
O388 O 0.72932 0.0853 0.65841 0.0
O389 O 0.78115 0.10011 0.64307 0.0
O390 O 0.81418 0.16143 0.6909 0.0
C391 C 0.75011 0.08063 0.63516 0.0
H392 H 0.77427 0.08713 0.8383 0.0
H393 H 0.72902 0.16774 0.55454 0.0
H394 H 0.73999 0.21107 0.71756 0.0
H395 H 0.67207 0.11291 0.76315 0.0
H396 H 0.20829 0.38254 0.37098 0.0
H397 H 0.1736 0.4452 0.31794 0.0
H398 H 0.2303 0.38118 0.29782 0.0
H399 H 0.19634 0.44449 0.24603 0.0
H400 H 0.27774 0.46856 0.14328 0.0
H401 H 0.25451 0.46682 0.21651 0.0
H402 H 0.209 0.36113 0.21775 0.0
H403 H 0.23246 0.36293 0.14436 0.0
C404 C 0.20518 0.39587 0.34393 0.0
C405 C 0.18951 0.41435 0.3508 0.0
C406 C 0.21782 0.3951 0.30208 0.0
C407 C 0.2153 0.41303 0.26651 0.0
C408 C 0.19917 0.43095 0.27313 0.0
C409 C 0.18628 0.43146 0.31459 0.0
C410 C 0.26286 0.44501 0.15929 0.0
C411 C 0.25675 0.4159 0.13814 0.0
C412 C 0.24944 0.44398 0.201 0.0
C413 C 0.22993 0.41382 0.22266 0.0
C414 C 0.22408 0.38468 0.2018 0.0
C415 C 0.23718 0.38569 0.15972 0.0
H416 H 0.83838 0.19641 0.28615 0.0
H417 H 0.87768 0.29416 0.34013 0.0
H418 H 0.81696 0.17327 0.35974 0.0
H419 H 0.85561 0.27106 0.41248 0.0
H420 H 0.77215 0.21594 0.51361 0.0
H421 H 0.79659 0.23712 0.44089 0.0
H422 H 0.83805 0.17335 0.44059 0.0
H423 H 0.81338 0.15204 0.51371 0.0
C424 C 0.84267 0.21295 0.31356 0.0
C425 C 0.85926 0.24716 0.30686 0.0
C426 C 0.83041 0.1997 0.35562 0.0
C427 C 0.83433 0.22043 0.39153 0.0
C428 C 0.85172 0.25453 0.38514 0.0
C429 C 0.86418 0.26773 0.34346 0.0
C430 C 0.78643 0.20644 0.49796 0.0
C431 C 0.79101 0.18251 0.51925 0.0
C432 C 0.80055 0.21865 0.45654 0.0
C433 C 0.81924 0.20689 0.43527 0.0
C434 C 0.82363 0.1827 0.45628 0.0
C435 C 0.80985 0.1708 0.49817 0.0
H436 H 0.61255 0.88104 0.51173 0.0
H437 H 0.65038 0.82461 0.44772 0.0
H438 H 0.61587 0.85917 0.58355 0.0
H439 H 0.65444 0.80314 0.52004 0.0
H440 H 0.60823 0.73877 0.64593 0.0
H441 H 0.61344 0.76482 0.57425 0.0
H442 H 0.65524 0.85944 0.63849 0.0
H443 H 0.64928 0.83308 0.71068 0.0
C444 C 0.62165 0.86399 0.51306 0.0
C445 C 0.63076 0.85414 0.47405 0.0
C446 C 0.62398 0.85182 0.55428 0.0
C447 C 0.63535 0.8294 0.55741 0.0
C448 C 0.64532 0.82019 0.51855 0.0
C449 C 0.6432 0.8326 0.47725 0.0
C450 C 0.61841 0.7651 0.64481 0.0
C451 C 0.62791 0.78385 0.68398 0.0
C452 C 0.62183 0.78008 0.60367 0.0
C453 C 0.6347 0.81415 0.60076 0.0
C454 C 0.64498 0.83307 0.6398 0.0
C455 C 0.64176 0.81807 0.68102 0.0
H456 H 0.73774 0.58618 0.67225 0.0
H457 H 0.8365 0.64673 0.62182 0.0
H458 H 0.75954 0.58775 0.74566 0.0
H459 H 0.85821 0.64895 0.69633 0.0
H460 H 0.87785 0.66687 0.8493 0.0
H461 H 0.85623 0.66971 0.77623 0.0
H462 H 0.7939 0.56421 0.77658 0.0
H463 H 0.81545 0.5615 0.84918 0.0
C464 C 0.76411 0.59969 0.67654 0.0
C465 C 0.78535 0.61586 0.64063 0.0
C466 C 0.77655 0.60075 0.71884 0.0
C467 C 0.81051 0.61828 0.72654 0.0
C468 C 0.83186 0.63542 0.69125 0.0
C469 C 0.8194 0.63411 0.64861 0.0
C470 C 0.85924 0.64443 0.83384 0.0
C471 C 0.8482 0.61395 0.85474 0.0
C472 C 0.84716 0.64601 0.792 0.0
C473 C 0.82344 0.61717 0.77089 0.0
C474 C 0.81201 0.58683 0.79227 0.0
C475 C 0.82441 0.58524 0.83362 0.0
H476 H 0.15838 0.80112 0.81387 0.0
H477 H 0.23265 0.77347 0.80221 0.0
H478 H 0.17696 0.82114 0.8892 0.0
H479 H 0.25293 0.79521 0.87608 0.0
H480 H 0.26142 0.80284 0.02373 0.0
H481 H 0.23978 0.78268 0.9498 0.0
H482 H 0.21705 0.86074 0.93507 0.0
H483 H 0.23695 0.87925 0.01049 0.0
C484 C 0.17922 0.80011 0.82729 0.0
C485 C 0.19415 0.78579 0.80268 0.0
C486 C 0.18996 0.81158 0.87037 0.0
C487 C 0.21628 0.8095 0.88927 0.0
C488 C 0.23196 0.79634 0.86347 0.0
C489 C 0.2207 0.78422 0.82095 0.0
C490 C 0.25139 0.81529 0.00463 0.0
C491 C 0.25068 0.84241 0.02247 0.0
C492 C 0.23933 0.80408 0.96207 0.0
C493 C 0.22711 0.82037 0.9358 0.0
C494 C 0.22588 0.84727 0.95427 0.0
C495 C 0.23728 0.85798 -0.00261 0.0
H496 H 0.43963 0.14822 0.01381 0.0
H497 H 0.39867 0.20239 0.95143 0.0
H498 H 0.4373 0.17075 0.0858 0.0
H499 H 0.39557 0.22429 0.02361 0.0
H500 H 0.43794 0.28877 0.14827 0.0
H501 H 0.43594 0.2634 0.07708 0.0
H502 H 0.39718 0.16911 0.14155 0.0
H503 H 0.3999 0.19485 0.21336 0.0
C504 C 0.43016 0.16495 0.01546 0.0
C505 C 0.41959 0.17375 0.97687 0.0
C506 C 0.42843 0.17751 0.05678 0.0
C507 C 0.41629 0.1993 0.06033 0.0
C508 C 0.40531 0.20776 0.02183 0.0
C509 C 0.40686 0.19505 0.98057 0.0
C510 C 0.4292 0.26267 0.14736 0.0
C511 C 0.4194 0.24384 0.18647 0.0
C512 C 0.42766 0.24806 0.10647 0.0
C513 C 0.41641 0.21427 0.10372 0.0
C514 C 0.40622 0.19528 0.14274 0.0
C515 C 0.40753 0.20991 0.18372 0.0
H516 H 0.3398 0.3217 0.91122 0.0
H517 H 0.26442 0.27548 0.8112 0.0
H518 H 0.36806 0.29474 0.88106 0.0
H519 H 0.29228 0.24733 0.78195 0.0
H520 H 0.36347 0.21728 0.72163 0.0
H521 H 0.3417 0.25301 0.7439 0.0
H522 H 0.35746 0.23915 0.88158 0.0
H523 H 0.37945 0.20443 0.85952 0.0
C524 C 0.32933 0.30613 0.88247 0.0
C525 C 0.29957 0.30077 0.86388 0.0
C526 C 0.34546 0.29031 0.8654 0.0
C527 C 0.33236 0.26857 0.82927 0.0
C528 C 0.30323 0.26404 0.80962 0.0
C529 C 0.28702 0.27989 0.82676 0.0
C530 C 0.36276 0.2224 0.75654 0.0
C531 C 0.37308 0.20786 0.78876 0.0
C532 C 0.35001 0.24259 0.76936 0.0
C533 C 0.34773 0.24896 0.81459 0.0
C534 C 0.35915 0.23523 0.84646 0.0
C535 C 0.37159 0.21502 0.83376 0.0
H536 H 0.15625 0.33694 0.88394 0.0
H537 H 0.18911 0.37991 0.01368 0.0
H538 H 0.09901 0.31476 0.90755 0.0
H539 H 0.13256 0.35889 0.03676 0.0
H540 H 0.0315 0.28343 0.08469 0.0
H541 H 0.08731 0.30736 0.05638 0.0
H542 H 0.05563 0.32505 0.92993 0.0
H543 H 0.99947 0.30046 0.95832 0.0
C544 C 0.15128 0.34227 0.9171 0.0
C545 C 0.17719 0.3599 0.94704 0.0
C546 C 0.11847 0.32954 0.93073 0.0
C547 C 0.11098 0.3344 0.97447 0.0
C548 C 0.13716 0.35369 0.00334 0.0
C549 C 0.16971 0.36606 0.98993 0.0
C550 C 0.03643 0.29256 0.05094 0.0
C551 C 1.01096 0.29014 0.02396 0.0
C552 C 0.06854 0.30644 0.03463 0.0
C553 C 0.07627 0.31863 0.9909 0.0
C554 C 0.05066 0.31574 0.96361 0.0
C555 C 1.0184 0.30161 0.97991 0.0
H556 H 0.78614 0.16358 0.0865 0.0
H557 H 0.86974 0.16418 0.1469 0.0
H558 H 0.75148 0.10554 0.10707 0.0
H559 H 0.8354 0.10654 0.1668 0.0
H560 H 0.77091 0.99499 0.15907 0.0
H561 H 0.803 0.05075 0.12957 0.0
H562 H 0.73147 0.07406 0.18151 0.0
H563 H 0.6993 0.01817 0.21098 0.0
C564 C 0.79719 0.15126 0.10359 0.0
C565 C 0.83068 0.16852 0.11509 0.0
C566 C 0.77733 0.11813 0.1156 0.0
C567 C 0.79074 0.10149 0.13853 0.0
C568 C 0.82439 0.11855 0.14882 0.0
C569 C 0.84403 0.15166 0.13757 0.0
C570 C 0.76182 1.01187 0.16372 0.0
C571 C 0.73264 1.0022 0.18757 0.0
C572 C 0.7803 0.04386 0.14706 0.0
C573 C 0.76978 0.06681 0.15327 0.0
C574 C 0.74009 0.05687 0.17592 0.0
C575 C 0.72185 0.02499 0.19318 0.0
H576 H 0.69851 0.69522 0.38385 0.0
H577 H 0.7924 0.76697 0.32938 0.0
H578 H 0.6737 0.72618 0.35401 0.0
H579 H 0.76759 0.79783 0.29937 0.0
H580 H 0.71979 0.86346 0.31481 0.0
H581 H 0.74411 0.83021 0.33522 0.0
H582 H 0.66049 0.74443 0.27998 0.0
H583 H 0.63601 0.778 0.25899 0.0
C584 C 0.71383 0.71758 0.36547 0.0
C585 C 0.7475 0.72876 0.35927 0.0
C586 C 0.69954 0.7351 0.34795 0.0
C587 C 0.71868 0.76446 0.32436 0.0
C588 C 0.75223 0.77538 0.3176 0.0
C589 C 0.76641 0.75762 0.33457 0.0
C590 C 0.70663 0.83756 0.30658 0.0
C591 C 0.6759 0.82338 0.28527 0.0
C592 C 0.7207 0.81854 0.31811 0.0
C593 C 0.70425 0.78469 0.30924 0.0
C594 C 0.67367 0.77045 0.28743 0.0
C595 C 0.65977 0.78968 0.27516 0.0
H596 H 1.01773 0.69041 0.55458 0.0
H597 H 0.0413 0.78322 0.49538 0.0
H598 H 0.96191 0.6656 0.52452 0.0
H599 H 0.9856 0.75847 0.46533 0.0
H600 H 0.8721 0.7123 0.48067 0.0
H601 H 0.92956 0.73621 0.50179 0.0
H602 H 0.93088 0.65155 0.44906 0.0
H603 H 0.87294 0.62752 0.42719 0.0
C604 C 1.01099 0.70549 0.53515 0.0
C605 C 0.03389 0.73885 0.52759 0.0
C606 C 0.97916 0.6912 0.51754 0.0
C607 C 0.96937 0.71008 0.49255 0.0
C608 C 0.99238 0.74332 0.4846 0.0
C609 C 0.02432 0.75746 0.50162 0.0
C610 C 0.88464 0.69883 0.47313 0.0
C611 C 0.86791 0.66796 0.45224 0.0
C612 C 0.91766 0.71265 0.48509 0.0
C613 C 0.93476 0.69578 0.47713 0.0
C614 C 0.91825 0.66504 0.45578 0.0
C615 C 0.8852 0.65141 0.443 0.0
H616 H 0.34896 0.01991 0.69573 0.0
H617 H 0.26228 0.02867 0.68001 0.0
H618 H 0.31879 0.96394 0.66645 0.0
H619 H 0.23286 0.97365 0.64953 0.0
H620 H 0.17856 0.8621 0.66192 0.0
H621 H 0.21119 0.91945 0.68199 0.0
H622 H 0.2908 0.9289 0.59973 0.0
H623 H 0.25783 0.87055 0.57962 0.0
C624 C 0.32363 1.01012 0.68583 0.0
C625 C 0.30811 0.02896 0.69086 0.0
C626 C 0.30644 0.97812 0.66852 0.0
C627 C 0.27328 0.96413 0.65599 0.0
C628 C 0.25822 0.98342 0.65946 0.0
C629 C 0.27532 0.01528 0.67663 0.0
C630 C 0.20294 0.87624 0.64774 0.0
C631 C 0.21548 0.86153 0.61901 0.0
C632 C 0.22164 0.90936 0.65911 0.0
C633 C 0.25359 0.92896 0.6423 0.0
C634 C 0.2663 0.91444 0.61342 0.0
C635 C 0.24735 0.88109 0.60166 0.0
H636 H 0.78741 0.63497 0.08196 0.0
H637 H 0.86511 0.70361 0.99573 0.0
H638 H 0.75335 0.65847 0.05941 0.0
H639 H 0.83169 0.72718 0.97418 0.0
H640 H 0.75149 0.7342 0.90168 0.0
H641 H 0.78395 0.71096 0.92923 0.0
H642 H 0.74725 0.70768 0.06177 0.0
H643 H 0.71351 0.72989 0.03369 0.0
C644 C 0.79739 0.65525 0.05869 0.0
C645 C 0.82891 0.66711 0.0404 0.0
C646 C 0.77791 0.66879 0.04584 0.0
C647 C 0.78957 0.69444 0.01444 0.0
C648 C 0.82153 0.70696 -0.00244 0.0
C649 C 0.84083 0.69348 0.01023 0.0
C650 C 0.74996 0.72827 0.93662 0.0
C651 C 0.7297 0.73394 0.96533 0.0
C652 C 0.76897 0.71526 0.9526 0.0
C653 C 0.76847 0.70762 -0.00213 0.0
C654 C 0.74811 0.71308 0.02669 0.0
C655 C 0.72903 0.72619 0.01064 0.0
H656 H 0.03236 0.74159 0.06547 0.0
H657 H 0.99686 0.70875 0.19865 0.0
H658 H 0.08809 0.77309 0.0934 0.0
H659 H 0.05287 0.7416 0.22697 0.0
H660 H 0.16518 0.78066 0.25128 0.0
H661 H 0.10782 0.74628 0.22755 0.0
H662 H 0.11965 0.82217 0.13607 0.0
H663 H 0.1763 0.85581 0.15876 0.0
C664 C 0.03636 0.74095 0.10072 0.0
C665 C 1.00989 0.72253 0.12968 0.0
C666 C 0.06841 0.75939 0.11688 0.0
C667 C 0.07503 0.76017 0.16256 0.0
C668 C 0.0487 0.74145 0.19159 0.0
C669 C 1.0165 0.72292 0.17537 0.0
C670 C 0.15539 0.78999 0.22632 0.0
C671 C 0.17555 0.82089 0.20671 0.0
C672 C 0.12252 0.77035 0.21278 0.0
C673 C 0.10923 0.78125 0.17938 0.0
C674 C 0.1292 0.81257 0.16102 0.0
C675 C 0.16179 0.83201 0.17436 0.0
H676 H 0.34849 0.01755 0.27424 0.0
H677 H 0.25478 0.99543 0.32938 0.0
H678 H 0.37331 0.0735 0.30384 0.0
H679 H 0.27957 0.05107 0.35913 0.0
H680 H 0.32605 0.16388 0.34365 0.0
H681 H 0.30252 0.10653 0.32271 0.0
H682 H 0.38654 0.10533 0.37819 0.0
H683 H 0.41028 0.16327 0.39974 0.0
C684 C 0.33322 0.0246 0.29272 0.0
C685 C 0.2996 1.00206 0.29924 0.0
C686 C 0.34752 0.0565 0.31008 0.0
C687 C 0.32839 0.0667 0.33379 0.0
C688 C 0.29491 0.04401 0.34082 0.0
C689 C 0.28075 1.01206 0.32399 0.0
C690 C 0.33948 0.15141 0.35182 0.0
C691 C 0.37008 0.16818 0.37342 0.0
C692 C 0.32587 0.11844 0.33995 0.0
C693 C 0.34264 0.10137 0.34878 0.0
C694 C 0.37313 0.11793 0.37078 0.0
C695 C 0.38658 0.15097 0.3834 0.0
H696 H 0.27125 0.24421 0.49528 0.0
H697 H 0.34475 0.3388 0.445 0.0
H698 H 0.23999 0.26875 0.52482 0.0
H699 H 0.31339 0.36338 0.47447 0.0
H700 H 0.25948 0.39935 0.5694 0.0
H701 H 0.29338 0.37515 0.54856 0.0
H702 H 0.20878 0.29334 0.48813 0.0
H703 H 0.17522 0.31741 0.50832 0.0
C704 C 0.28092 0.2703 0.49096 0.0
C705 C 0.3104 0.28949 0.46756 0.0
C706 C 0.26292 0.28433 0.50765 0.0
C707 C 0.27419 0.31801 0.50193 0.0
C708 C 0.30417 0.33743 0.47969 0.0
C709 C 0.32195 0.32328 0.46242 0.0
C710 C 0.24812 0.37604 0.55209 0.0
C711 C 0.21466 0.36035 0.5405 0.0
C712 C 0.26755 0.36231 0.53991 0.0
C713 C 0.25374 0.33231 0.51672 0.0
C714 C 0.22011 0.31629 0.50631 0.0
C715 C 0.20092 0.33022 0.51773 0.0
H716 H 0.04316 0.32867 0.69078 0.0
H717 H 1.01617 0.26856 0.57317 0.0
H718 H 0.98661 0.29752 0.71769 0.0
H719 H 0.96007 0.23625 0.60057 0.0
H720 H 0.85571 0.20421 0.63431 0.0
H721 H 0.9123 0.23767 0.61058 0.0
H722 H 0.94404 0.24867 0.74738 0.0
H723 H 0.88655 0.21623 0.77109 0.0
C724 C 0.02517 0.30841 0.67102 0.0
C725 C 0.03405 0.30116 0.62973 0.0
C726 C 0.99268 0.29041 0.68648 0.0
C727 C 0.9683 0.26435 0.66131 0.0
C728 C 0.97765 0.25665 0.62051 0.0
C729 C 1.00993 0.27501 0.60477 0.0
C730 C 0.87475 0.21382 0.65936 0.0
C731 C 0.86666 0.20729 0.70454 0.0
C732 C 0.90742 0.23289 0.64572 0.0
C733 C 0.93323 0.24554 0.6768 0.0
C734 C 0.92502 0.23966 0.72231 0.0
C735 C 0.89206 0.22097 0.73603 0.0
H736 H 0.74606 1.00326 0.73223 0.0
H737 H 0.73647 0.03534 0.86301 0.0
H738 H 0.72157 0.94719 0.75921 0.0
H739 H 0.71335 0.97936 0.89049 0.0
H740 H 0.64137 0.86757 0.91146 0.0
H741 H 0.66517 0.92481 0.8874 0.0
H742 H 0.73475 0.9143 0.80523 0.0
H743 H 0.71077 0.85754 0.8282 0.0
C744 C 0.73879 0.99848 0.76674 0.0
C745 C 0.74342 0.02414 0.79526 0.0
C746 C 0.72503 0.96624 0.78244 0.0
C747 C 0.7156 0.95861 0.82722 0.0
C748 C 0.72005 0.98418 0.85576 0.0
C749 C 0.73378 0.01649 0.84002 0.0
C750 C 0.66189 0.87761 0.88852 0.0
C751 C 0.67392 0.85776 0.87162 0.0
C752 C 0.67561 0.91046 0.87476 0.0
C753 C 0.70168 0.92419 0.84386 0.0
C754 C 0.71422 0.9045 0.82816 0.0
C755 C 0.70054 0.87185 0.84171 0.0
H756 H 0.35348 0.3682 0.0523 0.0
H757 H 0.25102 0.30102 0.08108 0.0
H758 H 0.36869 0.35326 0.12251 0.0
H759 H 0.26592 0.28728 0.15142 0.0
H760 H 0.30572 0.24516 0.25302 0.0
H761 H 0.29067 0.25938 0.18315 0.0
H762 H 0.36582 0.36087 0.20166 0.0
H763 H 0.38194 0.34618 0.27136 0.0
C764 C 0.33429 0.34996 0.07329 0.0
C765 C 0.3011 0.33566 0.06108 0.0
C766 C 0.34292 0.34179 0.1138 0.0
C767 C 0.31849 0.31933 0.14283 0.0
C768 C 0.28542 0.30438 0.12976 0.0
C769 C 0.27686 0.31228 0.08929 0.0
C770 C 0.31876 0.27064 0.24264 0.0
C771 C 0.34503 0.29458 0.26771 0.0
C772 C 0.31009 0.27881 0.20246 0.0
C773 C 0.32721 0.31122 0.18654 0.0
C774 C 0.35259 0.33553 0.21258 0.0
C775 C 0.36147 0.32726 0.25283 0.0
H776 H 0.99651 0.34823 0.21814 0.0
H777 H 0.96873 0.24688 0.24105 0.0
H778 H 0.02715 0.36358 0.28803 0.0
H779 H 0.99763 0.26173 0.31109 0.0
H780 H 0.07877 0.30226 0.4126 0.0
H781 H 0.04994 0.28826 0.34252 0.0
H782 H 1.01826 0.35874 0.36726 0.0
H783 H 0.04884 0.37402 0.43722 0.0
C784 C 0.99732 0.32935 0.23776 0.0
C785 C 0.98043 0.29642 0.22393 0.0
C786 C 1.01439 0.33802 0.27812 0.0
C787 C 1.01467 0.31386 0.30544 0.0
C788 C 0.99841 0.2811 0.29078 0.0
C789 C 0.98176 0.27256 0.25046 0.0
C790 C 0.0653 0.31452 0.40354 0.0
C791 C 0.06599 0.33919 0.43057 0.0
C792 C 0.04868 0.30644 0.3632 0.0
C793 C 0.03183 0.32244 0.34901 0.0
C794 C 0.0315 0.34636 0.3768 0.0
C795 C 0.04854 0.35474 0.4172 0.0
H796 H 0.66161 0.9894 0.38372 0.0
H797 H 0.73806 0.96524 0.40412 0.0
H798 H 0.67664 0.01989 0.45373 0.0
H799 H 0.75184 0.9939 0.47432 0.0
H800 H 0.68774 0.03982 0.60354 0.0
H801 H 0.67313 1.01031 0.53271 0.0
H802 H 0.77604 0.04567 0.50676 0.0
H803 H 0.79021 0.0733 0.57764 0.0
C804 C 0.68191 0.99104 0.40277 0.0
C805 C 0.69876 0.9751 0.38831 0.0
C806 C 0.69015 1.00799 0.44321 0.0
C807 C 0.71525 1.0091 0.46994 0.0
C808 C 0.73269 0.99401 0.45449 0.0
C809 C 0.72474 0.97748 0.41408 0.0
C810 C 0.70704 0.04054 0.58303 0.0
C811 C 0.74005 0.0586 0.59635 0.0
C812 C 0.69878 0.02413 0.54216 0.0
C813 C 0.72343 0.02577 0.51382 0.0
C814 C 0.75631 0.04335 0.52786 0.0
C815 C 0.76446 0.05927 0.56869 0.0
H816 H 0.68807 0.65686 0.55031 0.0
H817 H 0.78992 0.72506 0.58076 0.0
H818 H 0.67175 0.67069 0.62064 0.0
H819 H 0.77401 0.73747 0.65119 0.0
H820 H 0.73382 0.77838 0.75273 0.0
H821 H 0.74904 0.76465 0.68277 0.0
H822 H 0.67324 0.66316 0.69971 0.0
H823 H 0.65674 0.67751 0.76953 0.0
C824 C 0.70688 0.67506 0.57172 0.0
C825 C 0.74022 0.69007 0.55985 0.0
C826 C 0.69762 0.68258 0.6123 0.0
C827 C 0.72158 0.70503 0.64178 0.0
C828 C 0.75481 0.72047 0.62917 0.0
C829 C 0.76396 0.7133 0.58862 0.0
C830 C 0.72062 0.75299 0.742 0.0
C831 C 0.6941 0.72899 0.76673 0.0
C832 C 0.72942 0.74508 0.70174 0.0
C833 C 0.71231 0.7128 0.68539 0.0
C834 C 0.68655 0.6884 0.71098 0.0
C835 C 0.67744 0.69646 0.75129 0.0
H836 H 0.0807 0.78287 0.74806 0.0
H837 H 0.04801 0.6812 0.71834 0.0
H838 H 0.05073 0.76679 0.81746 0.0
H839 H 1.01651 0.66477 0.78764 0.0
H840 H 0.99257 0.65028 0.93624 0.0
H841 H 0.02462 0.6669 0.86738 0.0
H842 H 0.9971 0.7409 0.84644 0.0
H843 H 0.9666 0.72537 0.91542 0.0
C844 C 0.06644 0.75694 0.75587 0.0
C845 C 0.06658 0.73327 0.72759 0.0
C846 C 0.0492 0.7477 0.7958 0.0
C847 C 0.03126 0.71449 0.80828 0.0
C848 C 0.03055 0.69063 0.77935 0.0
C849 C 0.04816 0.69995 0.73938 0.0
C850 C 0.99404 0.67055 0.91729 0.0
C851 C 0.97725 0.68663 0.93135 0.0
C852 C 1.01196 0.67974 0.87756 0.0
C853 C 1.01323 0.70507 0.85119 0.0
C854 C 0.99707 0.7216 0.86609 0.0
C855 C 0.9795 0.71263 0.90576 0.0
H856 H 0.35422 0.98582 0.10246 0.0
H857 H 0.25206 0.95623 0.08219 0.0
H858 H 0.36804 0.01518 0.0315 0.0
H859 H 0.2654 0.98379 0.01116 0.0
H860 H 0.30466 0.06472 0.90818 0.0
H861 H 0.29089 0.03568 0.97823 0.0
H862 H 0.36183 1.00468 0.95259 0.0
H863 H 0.3768 0.03536 0.88275 0.0
C864 C 0.33484 0.98595 0.08319 0.0
C865 C 0.30213 0.96893 0.09806 0.0
C866 C 0.34263 1.00226 0.04223 0.0
C867 C 0.31778 1.0016 0.01538 0.0
C868 C 0.28526 0.98524 0.03106 0.0
C869 C 0.2776 0.96937 0.07197 0.0
C870 C 0.31696 0.05125 0.91699 0.0
C871 C 0.34184 0.05234 0.88993 0.0
C872 C 0.30905 0.03454 0.95731 0.0
C873 C 0.32546 0.01806 0.97136 0.0
C874 C 0.34921 0.01772 0.94319 0.0
C875 C 0.35738 0.03478 0.90283 0.0
H876 H 0.50204 0.67364 0.84081 0.0
H877 H 0.51799 0.65293 0.97521 0.0
H878 H 0.44726 0.62486 0.84156 0.0
H879 H 0.46315 0.6041 0.97594 0.0
H880 H 0.35386 0.52918 0.97254 0.0
H881 H 0.40175 0.58466 0.97092 0.0
H882 H 0.42979 0.56411 0.84361 0.0
H883 H 0.38203 0.50862 0.84539 0.0
C884 C 0.49352 0.65913 0.87092 0.0
C885 C 0.51431 0.66715 0.90801 0.0
C886 C 0.46228 0.63104 0.87116 0.0
C887 C 0.45096 0.6106 0.90872 0.0
C888 C 0.47108 0.61952 0.94663 0.0
C889 C 0.50253 0.64736 0.94616 0.0
C890 C 0.36978 0.53685 0.94368 0.0
C891 C 0.36418 0.51464 0.90899 0.0
C892 C 0.39735 0.56847 0.94298 0.0
C893 C 0.41959 0.57868 0.90726 0.0
C894 C 0.41296 0.55705 0.87144 0.0
C895 C 0.3857 0.52528 0.87247 0.0
H896 H 0.84364 0.35141 0.14564 0.0
H897 H 0.88505 0.3744 0.0136 0.0
H898 H 0.83688 0.39959 0.14408 0.0
H899 H 0.87854 0.42283 0.01222 0.0
H900 H 0.84166 0.49547 0.01163 0.0
H901 H 0.83648 0.44112 0.0131 0.0
H902 H 0.87753 0.46018 0.14519 0.0
H903 H 0.8825 0.51447 0.14384 0.0
C904 C 0.85062 0.36633 0.11587 0.0
C905 C 0.86482 0.35904 0.07965 0.0
C906 C 0.84706 0.39413 0.1152 0.0
C907 C 0.8573 0.41509 0.07814 0.0
C908 C 0.87017 0.40702 0.04114 0.0
C909 C 0.87408 0.3794 0.042 0.0
C910 C 0.8488 0.48772 0.04143 0.0
C911 C 0.86243 0.50923 0.0777 0.0
C912 C 0.84617 0.45675 0.04204 0.0
C913 C 0.85676 0.44644 0.07913 0.0
C914 C 0.86893 0.46732 0.11624 0.0
C915 C 0.87192 0.49845 0.11542 0.0
H916 H 0.52276 0.87462 0.18246 0.0
H917 H 0.50632 0.83839 0.3172 0.0
H918 H 0.4681 0.86889 0.18148 0.0
H919 H 0.4516 0.83236 0.31605 0.0
H920 H 0.35893 0.83376 0.1831 0.0
H921 H 0.40772 0.82791 0.18498 0.0
H922 H 0.43219 0.87325 0.3145 0.0
H923 H 0.38319 0.87882 0.3128 0.0
C924 C 0.50726 0.86493 0.21158 0.0
C925 C 0.51887 0.85693 0.24984 0.0
C926 C 0.47589 0.86147 0.21096 0.0
C927 C 0.45558 0.8503 0.24879 0.0
C928 C 0.46676 0.84126 0.28652 0.0
C929 C 0.49797 0.84437 0.28697 0.0
C930 C 0.37427 0.84172 0.21247 0.0
C931 C 0.36716 0.8567 0.24788 0.0
C932 C 0.40241 0.8387 0.2133 0.0
C933 C 0.42391 0.85028 0.24975 0.0
C934 C 0.41599 0.86386 0.28606 0.0
C935 C 0.38803 0.86721 0.28502 0.0
H936 H 0.51573 0.37471 0.48014 0.0
H937 H 0.54051 0.35357 0.35084 0.0
H938 H 0.56887 0.42521 0.48337 0.0
H939 H 0.59371 0.40406 0.35418 0.0
H940 H 0.69669 0.49183 0.39014 0.0
H941 H 0.64826 0.43639 0.39224 0.0
H942 H 0.58977 0.47681 0.44216 0.0
H943 H 0.63768 0.5314 0.44099 0.0
C944 C 0.53268 0.38061 0.45266 0.0
C945 C 0.52368 0.36021 0.41508 0.0
C946 C 0.56311 0.40959 0.45445 0.0
C947 C 0.58531 0.41893 0.41869 0.0
C948 C 0.57725 0.39751 0.38236 0.0
C949 C 0.54674 0.36848 0.38054 0.0
C950 C 0.67344 0.48873 0.40154 0.0
C951 C 0.67099 0.51611 0.41481 0.0
C952 C 0.64573 0.45706 0.40264 0.0
C953 C 0.61521 0.45215 0.41774 0.0
C954 C 0.61295 0.47958 0.43102 0.0
C955 C 0.64038 0.51103 0.4296 0.0
H956 H 0.1225 0.63077 0.60989 0.0
H957 H 0.22123 0.6891 0.55881 0.0
H958 H 0.12868 0.58267 0.61096 0.0
H959 H 0.22781 0.64048 0.56105 0.0
H960 H 0.20267 0.533 0.51927 0.0
H961 H 0.206 0.58642 0.52326 0.0
H962 H 0.15801 0.56056 0.65121 0.0
H963 H 0.15455 0.50712 0.64712 0.0
C964 C 0.14553 0.63331 0.59848 0.0
C965 C 0.17119 0.66378 0.58354 0.0
C966 C 0.14927 0.60574 0.59987 0.0
C967 C 0.17885 0.6077 0.58651 0.0
C968 C 0.20466 0.63813 0.57147 0.0
C969 C 0.20095 0.66597 0.57032 0.0
C970 C 0.19365 0.53905 0.54883 0.0
C971 C 0.17805 0.51563 0.58273 0.0
C972 C 0.19551 0.5697 0.55105 0.0
C973 C 0.18178 0.57758 0.58719 0.0
C974 C 0.16815 0.55498 0.6224 0.0
C975 C 0.16625 0.52438 0.62015 0.0
H976 H 0.68438 0.1944 0.68164 0.0
H977 H 0.66055 0.15017 0.8119 0.0
H978 H 0.63562 0.2004 0.68378 0.0
H979 H 0.61177 0.15615 0.81404 0.0
H980 H 0.53767 0.19144 0.81608 0.0
H981 H 0.5927 0.19805 0.81443 0.0
H982 H 0.57476 0.15794 0.68183 0.0
H983 H 0.51971 0.15133 0.68349 0.0
C984 C 0.66918 0.18672 0.7112 0.0
C985 C 0.67633 0.17187 0.74667 0.0
C986 C 0.64109 0.18985 0.71221 0.0
C987 C 0.61978 0.17861 0.74896 0.0
C988 C 0.62783 0.16527 0.78538 0.0
C989 C 0.65567 0.16172 0.78411 0.0
C990 C 0.54578 0.1848 0.78617 0.0
C991 C 0.52439 0.17093 0.74984 0.0
C992 C 0.57716 0.18828 0.78542 0.0
C993 C 0.58801 0.1784 0.7481 0.0
C994 C 0.56721 0.16602 0.71095 0.0
C995 C 0.53565 0.16209 0.71194 0.0
loop_
_geom_bond_atom_site_label_1
_geom_bond_atom_site_label_2
_geom_bond_distance
_geom_bond_site_symmetry_2
_ccdc_geom_bond_type
Co0 N4 2.148 1_554 S
Co0 N10 2.128 . S
Co0 N20 2.194 1_554 S
Co0 O25 2.351 . S
Co0 O26 2.155 . S
Co0 O27 2.096 . S
C1 N4 1.301 . S
C1 N5 1.328 . S
C1 H6 0.930 . S
C2 C3 1.333 . S
C2 N4 1.317 . S
C2 H7 0.930 . S
C3 C2 1.333 . S
C3 N5 1.350 . S
C3 H29 0.931 . S
N4 Co0 2.148 1_556 S
N4 C1 1.301 . S
N4 C2 1.317 . S
N5 C1 1.328 . S
N5 C3 1.350 . S
H6 C1 0.930 . S
H7 C2 0.930 . S
C8 O9 1.224 . S
C8 O27 1.247 1_556 S
O9 C8 1.224 . S
N10 Co0 2.128 . S
N10 C11 1.355 . S
N10 C13 1.311 . S
C11 N10 1.355 . S
C11 C12 1.363 . S
C11 H23 0.929 . S
C12 C11 1.363 . S
C12 N14 1.375 . S
C12 H30 0.931 . S
C13 N10 1.311 . S
C13 N14 1.347 . S
C13 H24 0.929 . S
N14 C12 1.375 . S
N14 C13 1.347 . S
C15 C18 1.365 . S
C15 N20 1.328 . S
C15 H21 0.929 . S
C16 C17 1.362 . S
C16 C19 1.378 . S
C16 H31 0.929 . S
C17 C16 1.362 . S
C17 C18 1.366 . S
C18 C15 1.365 . S
C18 C17 1.366 . S
C18 H32 0.930 . S
C19 C16 1.378 . S
C19 N20 1.315 . S
C19 H22 0.930 . S
N20 Co0 2.194 1_556 S
N20 C15 1.328 . S
N20 C19 1.315 . S
H21 C15 0.929 . S
H22 C19 0.930 . S
H23 C11 0.929 . S
H24 C13 0.929 . S
O25 Co0 2.351 . S
O25 C28 1.244 . S
O26 Co0 2.155 . S
O26 C28 1.240 . S
O27 Co0 2.096 . S
O27 C8 1.247 1_554 S
C28 O25 1.244 . S
C28 O26 1.240 . S
H29 C3 0.931 . S
H30 C12 0.931 . S
H31 C16 0.929 . S
H32 C18 0.930 . S
Co33 N37 2.148 . S
Co33 N43 2.128 . S
Co33 N53 2.194 . S
Co33 O58 2.351 . S
Co33 O59 2.155 . S
Co33 O60 2.096 . S
C34 N37 1.301 . S
C34 N38 1.328 . S
C34 H39 0.930 . S
C35 C36 1.333 . S
C35 N37 1.317 . S
C35 H40 0.930 . S
C36 C35 1.333 . S
C36 N38 1.350 . S
C36 H62 0.931 . S
N37 Co33 2.148 . S
N37 C34 1.301 . S
N37 C35 1.317 . S
N38 C34 1.328 . S
N38 C36 1.350 . S
H39 C34 0.930 . S
H40 C35 0.930 . S
C41 O42 1.224 . S
C41 O60 1.247 . S
O42 C41 1.224 . S
N43 Co33 2.128 . S
N43 C44 1.355 . S
N43 C46 1.311 . S
C44 N43 1.355 . S
C44 C45 1.363 . S
C44 H56 0.929 . S
C45 C44 1.363 . S
C45 N47 1.375 . S
C45 H63 0.931 . S
C46 N43 1.311 . S
C46 N47 1.347 . S
C46 H57 0.929 . S
N47 C45 1.375 . S
N47 C46 1.347 . S
C48 C51 1.365 . S
C48 N53 1.328 . S
C48 H54 0.929 . S
C49 C50 1.362 . S
C49 C52 1.378 . S
C49 H64 0.929 . S
C50 C49 1.362 . S
C50 C51 1.366 . S
C51 C48 1.365 . S
C51 C50 1.366 . S
C51 H65 0.930 . S
C52 C49 1.378 . S
C52 N53 1.315 . S
C52 H55 0.930 . S
N53 Co33 2.194 . S
N53 C48 1.328 . S
N53 C52 1.315 . S
H54 C48 0.929 . S
H55 C52 0.930 . S
H56 C44 0.929 . S
H57 C46 0.929 . S
O58 Co33 2.351 . S
O58 C61 1.244 . S
O59 Co33 2.155 . S
O59 C61 1.240 . S
O60 Co33 2.096 . S
O60 C41 1.247 . S
C61 O58 1.244 . S
C61 O59 1.240 . S
H62 C36 0.931 . S
H63 C45 0.931 . S
H64 C49 0.929 . S
H65 C51 0.930 . S
Co66 N70 2.148 . S
Co66 N76 2.128 . S
Co66 N86 2.194 . S
Co66 O91 2.351 . S
Co66 O92 2.155 . S
Co66 O93 2.096 . S
C67 N70 1.301 . S
C67 N71 1.328 . S
C67 H72 0.930 . S
C68 C69 1.333 . S
C68 N70 1.317 . S
C68 H73 0.930 . S
C69 C68 1.333 . S
C69 N71 1.350 . S
C69 H95 0.931 . S
N70 Co66 2.148 . S
N70 C67 1.301 . S
N70 C68 1.317 . S
N71 C67 1.328 . S
N71 C69 1.350 . S
H72 C67 0.930 . S
H73 C68 0.930 . S
C74 O75 1.224 . S
C74 O93 1.247 . S
O75 C74 1.224 . S
N76 Co66 2.128 . S
N76 C77 1.355 . S
N76 C79 1.311 . S
C77 N76 1.355 . S
C77 C78 1.363 . S
C77 H89 0.929 . S
C78 C77 1.363 . S
C78 N80 1.375 . S
C78 H96 0.931 . S
C79 N76 1.311 . S
C79 N80 1.347 . S
C79 H90 0.929 . S
N80 C78 1.375 . S
N80 C79 1.347 . S
C81 C84 1.365 . S
C81 N86 1.328 . S
C81 H87 0.929 . S
C82 C83 1.362 . S
C82 C85 1.378 . S
C82 H97 0.929 . S
C83 C82 1.362 . S
C83 C84 1.366 . S
C84 C81 1.365 . S
C84 C83 1.366 . S
C84 H98 0.930 . S
C85 C82 1.378 . S
C85 N86 1.315 . S
C85 H88 0.930 . S
N86 Co66 2.194 . S
N86 C81 1.328 . S
N86 C85 1.315 . S
H87 C81 0.929 . S
H88 C85 0.930 . S
H89 C77 0.929 . S
H90 C79 0.929 . S
O91 Co66 2.351 . S
O91 C94 1.244 . S
O92 Co66 2.155 . S
O92 C94 1.240 . S
O93 Co66 2.096 . S
O93 C74 1.247 . S
C94 O91 1.244 . S
C94 O92 1.240 . S
H95 C69 0.931 . S
H96 C78 0.931 . S
H97 C82 0.929 . S
H98 C84 0.930 . S
Co99 N103 2.148 . S
Co99 N109 2.128 . S
Co99 N119 2.194 . S
Co99 O124 2.351 . S
Co99 O125 2.155 . S
Co99 O126 2.096 . S
C100 N103 1.301 . S
C100 N104 1.328 . S
C100 H105 0.930 . S
C101 C102 1.333 . S
C101 N103 1.317 . S
C101 H106 0.930 . S
C102 C101 1.333 . S
C102 N104 1.350 . S
C102 H128 0.931 . S
N103 Co99 2.148 . S
N103 C100 1.301 . S
N103 C101 1.317 . S
N104 C100 1.328 . S
N104 C102 1.350 . S
H105 C100 0.930 . S
H106 C101 0.930 . S
C107 O108 1.224 . S
C107 O126 1.247 . S
O108 C107 1.224 . S
N109 Co99 2.128 . S
N109 C110 1.355 . S
N109 C112 1.311 . S
C110 N109 1.355 . S
C110 C111 1.363 . S
C110 H122 0.929 . S
C111 C110 1.363 . S
C111 N113 1.375 . S
C111 H129 0.931 . S
C112 N109 1.311 . S
C112 N113 1.347 . S
C112 H123 0.929 . S
N113 C111 1.375 . S
N113 C112 1.347 . S
C114 C117 1.365 . S
C114 N119 1.328 . S
C114 H120 0.929 . S
C115 C116 1.362 . S
C115 C118 1.378 . S
C115 H130 0.929 . S
C116 C115 1.362 . S
C116 C117 1.366 . S
C117 C114 1.365 . S
C117 C116 1.366 . S
C117 H131 0.930 . S
C118 C115 1.378 . S
C118 N119 1.315 . S
C118 H121 0.930 . S
N119 Co99 2.194 . S
N119 C114 1.328 . S
N119 C118 1.315 . S
H120 C114 0.929 . S
H121 C118 0.930 . S
H122 C110 0.929 . S
H123 C112 0.929 . S
O124 Co99 2.351 . S
O124 C127 1.244 . S
O125 Co99 2.155 . S
O125 C127 1.240 . S
O126 Co99 2.096 . S
O126 C107 1.247 . S
C127 O124 1.244 . S
C127 O125 1.240 . S
H128 C102 0.931 . S
H129 C111 0.931 . S
H130 C115 0.929 . S
H131 C117 0.930 . S
Co132 N136 2.148 . S
Co132 N142 2.128 . S
Co132 N152 2.194 . S
Co132 O157 2.351 . S
Co132 O158 2.155 . S
Co132 O159 2.096 . S
C133 N136 1.301 . S
C133 N137 1.328 . S
C133 H138 0.930 . S
C134 C135 1.333 . S
C134 N136 1.317 . S
C134 H139 0.930 . S
C135 C134 1.333 . S
C135 N137 1.350 . S
C135 H161 0.931 . S
N136 Co132 2.148 . S
N136 C133 1.301 . S
N136 C134 1.317 . S
N137 C133 1.328 . S
N137 C135 1.350 . S
H138 C133 0.930 . S
H139 C134 0.930 . S
C140 O141 1.224 . S
C140 O159 1.247 . S
O141 C140 1.224 . S
N142 Co132 2.128 . S
N142 C143 1.355 . S
N142 C145 1.311 . S
C143 N142 1.355 . S
C143 C144 1.363 . S
C143 H155 0.929 . S
C144 C143 1.363 . S
C144 N146 1.375 . S
C144 H162 0.931 . S
C145 N142 1.311 . S
C145 N146 1.347 . S
C145 H156 0.929 . S
N146 C144 1.375 . S
N146 C145 1.347 . S
C147 C150 1.365 . S
C147 N152 1.328 . S
C147 H153 0.929 . S
C148 C149 1.362 . S
C148 C151 1.378 . S
C148 H163 0.929 . S
C149 C148 1.362 . S
C149 C150 1.366 . S
C150 C147 1.365 . S
C150 C149 1.366 . S
C150 H164 0.930 . S
C151 C148 1.378 . S
C151 N152 1.315 . S
C151 H154 0.930 . S
N152 Co132 2.194 . S
N152 C147 1.328 . S
N152 C151 1.315 . S
H153 C147 0.929 . S
H154 C151 0.930 . S
H155 C143 0.929 . S
H156 C145 0.929 . S
O157 Co132 2.351 . S
O157 C160 1.244 . S
O158 Co132 2.155 . S
O158 C160 1.240 . S
O159 Co132 2.096 . S
O159 C140 1.247 . S
C160 O157 1.244 . S
C160 O158 1.240 . S
H161 C135 0.931 . S
H162 C144 0.931 . S
H163 C148 0.929 . S
H164 C150 0.930 . S
Co165 N169 2.148 . S
Co165 N175 2.128 . S
Co165 N185 2.194 . S
Co165 O190 2.351 . S
Co165 O191 2.155 . S
Co165 O192 2.096 . S
C166 N169 1.301 . S
C166 N170 1.328 . S
C166 H171 0.930 . S
C167 C168 1.333 . S
C167 N169 1.317 . S
C167 H172 0.930 . S
C168 C167 1.333 . S
C168 N170 1.350 . S
C168 H194 0.931 . S
N169 Co165 2.148 . S
N169 C166 1.301 . S
N169 C167 1.317 . S
N170 C166 1.328 . S
N170 C168 1.350 . S
H171 C166 0.930 . S
H172 C167 0.930 . S
C173 O174 1.224 . S
C173 O192 1.247 . S
O174 C173 1.224 . S
N175 Co165 2.128 . S
N175 C176 1.355 . S
N175 C178 1.311 . S
C176 N175 1.355 . S
C176 C177 1.363 . S
C176 H188 0.929 . S
C177 C176 1.363 . S
C177 N179 1.375 . S
C177 H195 0.931 . S
C178 N175 1.311 . S
C178 N179 1.347 . S
C178 H189 0.929 . S
N179 C177 1.375 . S
N179 C178 1.347 . S
C180 C183 1.365 . S
C180 N185 1.328 . S
C180 H186 0.929 . S
C181 C182 1.362 . S
C181 C184 1.378 . S
C181 H196 0.929 . S
C182 C181 1.362 . S
C182 C183 1.366 . S
C183 C180 1.365 . S
C183 C182 1.366 . S
C183 H197 0.930 . S
C184 C181 1.378 . S
C184 N185 1.315 . S
C184 H187 0.930 . S
N185 Co165 2.194 . S
N185 C180 1.328 . S
N185 C184 1.315 . S
H186 C180 0.929 . S
H187 C184 0.930 . S
H188 C176 0.929 . S
H189 C178 0.929 . S
O190 Co165 2.351 . S
O190 C193 1.244 . S
O191 Co165 2.155 . S
O191 C193 1.240 . S
O192 Co165 2.096 . S
O192 C173 1.247 . S
C193 O190 1.244 . S
C193 O191 1.240 . S
H194 C168 0.931 . S
H195 C177 0.931 . S
H196 C181 0.929 . S
H197 C183 0.930 . S
Co198 N202 2.148 . S
Co198 N208 2.128 . S
Co198 N218 2.194 . S
Co198 O223 2.351 . S
Co198 O224 2.155 . S
Co198 O225 2.096 . S
C199 N202 1.301 . S
C199 N203 1.328 . S
C199 H204 0.930 . S
C200 C201 1.333 . S
C200 N202 1.317 . S
C200 H205 0.930 . S
C201 C200 1.333 . S
C201 N203 1.350 . S
C201 H227 0.931 . S
N202 Co198 2.148 . S
N202 C199 1.301 . S
N202 C200 1.317 . S
N203 C199 1.328 . S
N203 C201 1.350 . S
H204 C199 0.930 . S
H205 C200 0.930 . S
C206 O207 1.224 . S
C206 O225 1.247 . S
O207 C206 1.224 . S
N208 Co198 2.128 . S
N208 C209 1.355 . S
N208 C211 1.311 . S
C209 N208 1.355 . S
C209 C210 1.363 . S
C209 H221 0.929 . S
C210 C209 1.363 . S
C210 N212 1.375 . S
C210 H228 0.931 . S
C211 N208 1.311 . S
C211 N212 1.347 . S
C211 H222 0.929 . S
N212 C210 1.375 . S
N212 C211 1.347 . S
C213 C216 1.365 . S
C213 N218 1.328 . S
C213 H219 0.929 . S
C214 C215 1.362 . S
C214 C217 1.378 . S
C214 H229 0.929 . S
C215 C214 1.362 . S
C215 C216 1.366 . S
C216 C213 1.365 . S
C216 C215 1.366 . S
C216 H230 0.930 . S
C217 C214 1.378 . S
C217 N218 1.315 . S
C217 H220 0.930 . S
N218 Co198 2.194 . S
N218 C213 1.328 . S
N218 C217 1.315 . S
H219 C213 0.929 . S
H220 C217 0.930 . S
H221 C209 0.929 . S
H222 C211 0.929 . S
O223 Co198 2.351 . S
O223 C226 1.244 . S
O224 Co198 2.155 . S
O224 C226 1.240 . S
O225 Co198 2.096 . S
O225 C206 1.247 . S
C226 O223 1.244 . S
C226 O224 1.240 . S
H227 C201 0.931 . S
H228 C210 0.931 . S
H229 C214 0.929 . S
H230 C216 0.930 . S
Co231 N235 2.148 1_556 S
Co231 N241 2.128 . S
Co231 N251 2.194 1_556 S
Co231 O256 2.351 . S
Co231 O257 2.155 . S
Co231 O258 2.096 . S
C232 N235 1.301 . S
C232 N236 1.328 . S
C232 H237 0.930 . S
C233 C234 1.333 . S
C233 N235 1.317 . S
C233 H238 0.930 . S
C234 C233 1.333 . S
C234 N236 1.350 . S
C234 H260 0.931 . S
N235 Co231 2.148 1_554 S
N235 C232 1.301 . S
N235 C233 1.317 . S
N236 C232 1.328 . S
N236 C234 1.350 . S
H237 C232 0.930 . S
H238 C233 0.930 . S
C239 O240 1.224 . S
C239 O258 1.247 1_554 S
O240 C239 1.224 . S
N241 Co231 2.128 . S
N241 C242 1.355 . S
N241 C244 1.311 . S
C242 N241 1.355 . S
C242 C243 1.363 . S
C242 H254 0.929 . S
C243 C242 1.363 . S
C243 N245 1.375 . S
C243 H261 0.931 . S
C244 N241 1.311 . S
C244 N245 1.347 . S
C244 H255 0.929 . S
N245 C243 1.375 . S
N245 C244 1.347 . S
C246 C249 1.365 . S
C246 N251 1.328 . S
C246 H252 0.929 . S
C247 C248 1.362 . S
C247 C250 1.378 . S
C247 H262 0.929 . S
C248 C247 1.362 . S
C248 C249 1.366 . S
C249 C246 1.365 . S
C249 C248 1.366 . S
C249 H263 0.930 . S
C250 C247 1.378 . S
C250 N251 1.315 . S
C250 H253 0.930 . S
N251 Co231 2.194 1_554 S
N251 C246 1.328 . S
N251 C250 1.315 . S
H252 C246 0.929 . S
H253 C250 0.930 . S
H254 C242 0.929 . S
H255 C244 0.929 . S
O256 Co231 2.351 . S
O256 C259 1.244 . S
O257 Co231 2.155 . S
O257 C259 1.240 . S
O258 Co231 2.096 . S
O258 C239 1.247 1_556 S
C259 O256 1.244 . S
C259 O257 1.240 . S
H260 C234 0.931 . S
H261 C243 0.931 . S
H262 C247 0.929 . S
H263 C249 0.930 . S
Co264 N268 2.148 . S
Co264 N274 2.128 . S
Co264 N284 2.194 . S
Co264 O289 2.351 . S
Co264 O290 2.155 . S
Co264 O291 2.096 . S
C265 N268 1.301 . S
C265 N269 1.328 . S
C265 H270 0.930 . S
C266 C267 1.333 . S
C266 N268 1.317 . S
C266 H271 0.930 . S
C267 C266 1.333 . S
C267 N269 1.350 . S
C267 H293 0.931 . S
N268 Co264 2.148 . S
N268 C265 1.301 . S
N268 C266 1.317 . S
N269 C265 1.328 . S
N269 C267 1.350 . S
H270 C265 0.930 . S
H271 C266 0.930 . S
C272 O273 1.224 . S
C272 O291 1.247 . S
O273 C272 1.224 . S
N274 Co264 2.128 . S
N274 C275 1.355 . S
N274 C277 1.311 . S
C275 N274 1.355 . S
C275 C276 1.363 . S
C275 H287 0.929 . S
C276 C275 1.363 . S
C276 N278 1.375 . S
C276 H294 0.931 . S
C277 N274 1.311 . S
C277 N278 1.347 . S
C277 H288 0.929 . S
N278 C276 1.375 . S
N278 C277 1.347 . S
C279 C282 1.365 . S
C279 N284 1.328 . S
C279 H285 0.929 . S
C280 C281 1.362 . S
C280 C283 1.378 . S
C280 H295 0.929 . S
C281 C280 1.362 . S
C281 C282 1.366 . S
C282 C279 1.365 . S
C282 C281 1.366 . S
C282 H296 0.930 . S
C283 C280 1.378 . S
C283 N284 1.315 . S
C283 H286 0.930 . S
N284 Co264 2.194 . S
N284 C279 1.328 . S
N284 C283 1.315 . S
H285 C279 0.929 . S
H286 C283 0.930 . S
H287 C275 0.929 . S
H288 C277 0.929 . S
O289 Co264 2.351 . S
O289 C292 1.244 . S
O290 Co264 2.155 . S
O290 C292 1.240 . S
O291 Co264 2.096 . S
O291 C272 1.247 . S
C292 O289 1.244 . S
C292 O290 1.240 . S
H293 C267 0.931 . S
H294 C276 0.931 . S
H295 C280 0.929 . S
H296 C282 0.930 . S
Co297 N301 2.148 . S
Co297 N307 2.128 . S
Co297 N317 2.194 . S
Co297 O322 2.351 . S
Co297 O323 2.155 . S
Co297 O324 2.096 . S
C298 N301 1.301 . S
C298 N302 1.328 . S
C298 H303 0.930 . S
C299 C300 1.333 . S
C299 N301 1.317 . S
C299 H304 0.930 . S
C300 C299 1.333 . S
C300 N302 1.350 . S
C300 H326 0.931 . S
N301 Co297 2.148 . S
N301 C298 1.301 . S
N301 C299 1.317 . S
N302 C298 1.328 . S
N302 C300 1.350 . S
H303 C298 0.930 . S
H304 C299 0.930 . S
C305 O306 1.224 . S
C305 O324 1.247 . S
O306 C305 1.224 . S
N307 Co297 2.128 . S
N307 C308 1.355 . S
N307 C310 1.311 . S
C308 N307 1.355 . S
C308 C309 1.363 . S
C308 H320 0.929 . S
C309 C308 1.363 . S
C309 N311 1.375 . S
C309 H327 0.931 . S
C310 N307 1.311 . S
C310 N311 1.347 . S
C310 H321 0.929 . S
N311 C309 1.375 . S
N311 C310 1.347 . S
C312 C315 1.365 . S
C312 N317 1.328 . S
C312 H318 0.929 . S
C313 C314 1.362 . S
C313 C316 1.378 . S
C313 H328 0.929 . S
C314 C313 1.362 . S
C314 C315 1.366 . S
C315 C312 1.365 . S
C315 C314 1.366 . S
C315 H329 0.930 . S
C316 C313 1.378 . S
C316 N317 1.315 . S
C316 H319 0.930 . S
N317 Co297 2.194 . S
N317 C312 1.328 . S
N317 C316 1.315 . S
H318 C312 0.929 . S
H319 C316 0.930 . S
H320 C308 0.929 . S
H321 C310 0.929 . S
O322 Co297 2.351 . S
O322 C325 1.244 . S
O323 Co297 2.155 . S
O323 C325 1.240 . S
O324 Co297 2.096 . S
O324 C305 1.247 . S
C325 O322 1.244 . S
C325 O323 1.240 . S
H326 C300 0.931 . S
H327 C309 0.931 . S
H328 C313 0.929 . S
H329 C315 0.930 . S
Co330 N334 2.148 . S
Co330 N340 2.128 . S
Co330 N350 2.194 . S
Co330 O355 2.351 . S
Co330 O356 2.155 . S
Co330 O357 2.096 . S
C331 N334 1.301 . S
C331 N335 1.328 . S
C331 H336 0.930 . S
C332 C333 1.333 . S
C332 N334 1.317 . S
C332 H337 0.930 . S
C333 C332 1.333 . S
C333 N335 1.350 . S
C333 H359 0.931 . S
N334 Co330 2.148 . S
N334 C331 1.301 . S
N334 C332 1.317 . S
N335 C331 1.328 . S
N335 C333 1.350 . S
H336 C331 0.930 . S
H337 C332 0.930 . S
C338 O339 1.224 . S
C338 O357 1.247 . S
O339 C338 1.224 . S
N340 Co330 2.128 . S
N340 C341 1.355 . S
N340 C343 1.311 . S
C341 N340 1.355 . S
C341 C342 1.363 . S
C341 H353 0.929 . S
C342 C341 1.363 . S
C342 N344 1.375 . S
C342 H360 0.931 . S
C343 N340 1.311 . S
C343 N344 1.347 . S
C343 H354 0.929 . S
N344 C342 1.375 . S
N344 C343 1.347 . S
C345 C348 1.365 . S
C345 N350 1.328 . S
C345 H351 0.929 . S
C346 C347 1.362 . S
C346 C349 1.378 . S
C346 H361 0.929 . S
C347 C346 1.362 . S
C347 C348 1.366 . S
C348 C345 1.365 . S
C348 C347 1.366 . S
C348 H362 0.930 . S
C349 C346 1.378 . S
C349 N350 1.315 . S
C349 H352 0.930 . S
N350 Co330 2.194 . S
N350 C345 1.328 . S
N350 C349 1.315 . S
H351 C345 0.929 . S
H352 C349 0.930 . S
H353 C341 0.929 . S
H354 C343 0.929 . S
O355 Co330 2.351 . S
O355 C358 1.244 . S
O356 Co330 2.155 . S
O356 C358 1.240 . S
O357 Co330 2.096 . S
O357 C338 1.247 . S
C358 O355 1.244 . S
C358 O356 1.240 . S
H359 C333 0.931 . S
H360 C342 0.931 . S
H361 C346 0.929 . S
H362 C348 0.930 . S
Co363 N367 2.148 . S
Co363 N373 2.128 . S
Co363 N383 2.194 . S
Co363 O388 2.351 . S
Co363 O389 2.155 . S
Co363 O390 2.096 . S
C364 N367 1.301 . S
C364 N368 1.328 . S
C364 H369 0.930 . S
C365 C366 1.333 . S
C365 N367 1.317 . S
C365 H370 0.930 . S
C366 C365 1.333 . S
C366 N368 1.350 . S
C366 H392 0.931 . S
N367 Co363 2.148 . S
N367 C364 1.301 . S
N367 C365 1.317 . S
N368 C364 1.328 . S
N368 C366 1.350 . S
H369 C364 0.930 . S
H370 C365 0.930 . S
C371 O372 1.224 . S
C371 O390 1.247 . S
O372 C371 1.224 . S
N373 Co363 2.128 . S
N373 C374 1.355 . S
N373 C376 1.311 . S
C374 N373 1.355 . S
C374 C375 1.363 . S
C374 H386 0.929 . S
C375 C374 1.363 . S
C375 N377 1.375 . S
C375 H393 0.931 . S
C376 N373 1.311 . S
C376 N377 1.347 . S
C376 H387 0.929 . S
N377 C375 1.375 . S
N377 C376 1.347 . S
C378 C381 1.365 . S
C378 N383 1.328 . S
C378 H384 0.929 . S
C379 C380 1.362 . S
C379 C382 1.378 . S
C379 H394 0.929 . S
C380 C379 1.362 . S
C380 C381 1.366 . S
C381 C378 1.365 . S
C381 C380 1.366 . S
C381 H395 0.930 . S
C382 C379 1.378 . S
C382 N383 1.315 . S
C382 H385 0.930 . S
N383 Co363 2.194 . S
N383 C378 1.328 . S
N383 C382 1.315 . S
H384 C378 0.929 . S
H385 C382 0.930 . S
H386 C374 0.929 . S
H387 C376 0.929 . S
O388 Co363 2.351 . S
O388 C391 1.244 . S
O389 Co363 2.155 . S
O389 C391 1.240 . S
O390 Co363 2.096 . S
O390 C371 1.247 . S
C391 O388 1.244 . S
C391 O389 1.240 . S
H392 C366 0.931 . S
H393 C375 0.931 . S
H394 C379 0.929 . S
H395 C381 0.930 . S
H396 C404 0.950 . S
H397 C409 0.950 . S
H398 C406 0.950 . S
H399 C408 0.950 . S
H400 C410 0.950 . S
H401 C412 0.950 . S
H402 C414 0.950 . S
H403 C415 0.950 . S
C404 H396 0.950 . S
C404 C405 1.386 . S
C404 C406 1.391 . S
C405 C404 1.386 . S
C405 C409 1.393 . S
C406 H398 0.950 . S
C406 C404 1.391 . S
C406 C407 1.400 . S
C407 C406 1.400 . S
C407 C408 1.398 . S
C407 C413 1.491 . S
C408 H399 0.950 . S
C408 C407 1.398 . S
C408 C409 1.391 . S
C409 H397 0.950 . S
C409 C405 1.393 . S
C409 C408 1.391 . S
C410 H400 0.950 . S
C410 C411 1.386 . S
C410 C412 1.391 . S
C411 C410 1.386 . S
C411 C415 1.393 . S
C412 H401 0.950 . S
C412 C410 1.391 . S
C412 C413 1.400 . S
C413 C407 1.491 . S
C413 C412 1.400 . S
C413 C414 1.398 . S
C414 H402 0.950 . S
C414 C413 1.398 . S
C414 C415 1.391 . S
C415 H403 0.950 . S
C415 C411 1.393 . S
C415 C414 1.391 . S
H416 C424 0.950 . S
H417 C429 0.950 . S
H418 C426 0.950 . S
H419 C428 0.950 . S
H420 C430 0.950 . S
H421 C432 0.950 . S
H422 C434 0.950 . S
H423 C435 0.950 . S
C424 H416 0.950 . S
C424 C425 1.386 . S
C424 C426 1.391 . S
C425 C424 1.386 . S
C425 C429 1.393 . S
C426 H418 0.950 . S
C426 C424 1.391 . S
C426 C427 1.400 . S
C427 C426 1.400 . S
C427 C428 1.398 . S
C427 C433 1.491 . S
C428 H419 0.950 . S
C428 C427 1.398 . S
C428 C429 1.391 . S
C429 H417 0.950 . S
C429 C425 1.393 . S
C429 C428 1.391 . S
C430 H420 0.950 . S
C430 C431 1.386 . S
C430 C432 1.391 . S
C431 C430 1.386 . S
C431 C435 1.393 . S
C432 H421 0.950 . S
C432 C430 1.391 . S
C432 C433 1.400 . S
C433 C427 1.491 . S
C433 C432 1.400 . S
C433 C434 1.398 . S
C434 H422 0.950 . S
C434 C433 1.398 . S
C434 C435 1.391 . S
C435 H423 0.950 . S
C435 C431 1.393 . S
C435 C434 1.391 . S
H436 C444 0.950 . S
H437 C449 0.950 . S
H438 C446 0.950 . S
H439 C448 0.950 . S
H440 C450 0.950 . S
H441 C452 0.950 . S
H442 C454 0.950 . S
H443 C455 0.950 . S
C444 H436 0.950 . S
C444 C445 1.386 . S
C444 C446 1.391 . S
C445 C444 1.386 . S
C445 C449 1.393 . S
C446 H438 0.950 . S
C446 C444 1.391 . S
C446 C447 1.400 . S
C447 C446 1.400 . S
C447 C448 1.398 . S
C447 C453 1.491 . S
C448 H439 0.950 . S
C448 C447 1.398 . S
C448 C449 1.391 . S
C449 H437 0.950 . S
C449 C445 1.393 . S
C449 C448 1.391 . S
C450 H440 0.950 . S
C450 C451 1.386 . S
C450 C452 1.391 . S
C451 C450 1.386 . S
C451 C455 1.393 . S
C452 H441 0.950 . S
C452 C450 1.391 . S
C452 C453 1.400 . S
C453 C447 1.491 . S
C453 C452 1.400 . S
C453 C454 1.398 . S
C454 H442 0.950 . S
C454 C453 1.398 . S
C454 C455 1.391 . S
C455 H443 0.950 . S
C455 C451 1.393 . S
C455 C454 1.391 . S
H456 C464 0.950 . S
H457 C469 0.950 . S
H458 C466 0.950 . S
H459 C468 0.950 . S
H460 C470 0.950 . S
H461 C472 0.950 . S
H462 C474 0.950 . S
H463 C475 0.950 . S
C464 H456 0.950 . S
C464 C465 1.386 . S
C464 C466 1.391 . S
C465 C464 1.386 . S
C465 C469 1.393 . S
C466 H458 0.950 . S
C466 C464 1.391 . S
C466 C467 1.400 . S
C467 C466 1.400 . S
C467 C468 1.398 . S
C467 C473 1.491 . S
C468 H459 0.950 . S
C468 C467 1.398 . S
C468 C469 1.391 . S
C469 H457 0.950 . S
C469 C465 1.393 . S
C469 C468 1.391 . S
C470 H460 0.950 . S
C470 C471 1.386 . S
C470 C472 1.391 . S
C471 C470 1.386 . S
C471 C475 1.393 . S
C472 H461 0.950 . S
C472 C470 1.391 . S
C472 C473 1.400 . S
C473 C467 1.491 . S
C473 C472 1.400 . S
C473 C474 1.398 . S
C474 H462 0.950 . S
C474 C473 1.398 . S
C474 C475 1.391 . S
C475 H463 0.950 . S
C475 C471 1.393 . S
C475 C474 1.391 . S
H476 C484 0.950 . S
H477 C489 0.950 . S
H478 C486 0.950 . S
H479 C488 0.950 . S
H480 C490 0.950 . S
H481 C492 0.950 . S
H482 C494 0.950 . S
H483 C495 0.950 . S
C484 H476 0.950 . S
C484 C485 1.386 . S
C484 C486 1.391 . S
C485 C484 1.386 . S
C485 C489 1.393 . S
C486 H478 0.950 . S
C486 C484 1.391 . S
C486 C487 1.400 . S
C487 C486 1.400 . S
C487 C488 1.398 . S
C487 C493 1.491 . S
C488 H479 0.950 . S
C488 C487 1.398 . S
C488 C489 1.391 . S
C489 H477 0.950 . S
C489 C485 1.393 . S
C489 C488 1.391 . S
C490 H480 0.950 . S
C490 C491 1.386 . S
C490 C492 1.391 1_554 S
C491 C490 1.386 . S
C491 C495 1.393 . S
C492 H481 0.950 . S
C492 C490 1.391 1_556 S
C492 C493 1.400 . S
C493 C487 1.491 . S
C493 C492 1.400 . S
C493 C494 1.398 . S
C494 H482 0.950 . S
C494 C493 1.398 . S
C494 C495 1.391 1_556 S
C495 H483 0.950 . S
C495 C491 1.393 . S
C495 C494 1.391 1_554 S
H496 C504 0.950 . S
H497 C509 0.950 . S
H498 C506 0.950 . S
H499 C508 0.950 . S
H500 C510 0.950 . S
H501 C512 0.950 . S
H502 C514 0.950 . S
H503 C515 0.950 . S
C504 H496 0.950 . S
C504 C505 1.386 . S
C504 C506 1.391 1_556 S
C505 C504 1.386 . S
C505 C509 1.393 . S
C506 H498 0.950 . S
C506 C504 1.391 1_554 S
C506 C507 1.400 . S
C507 C506 1.400 . S
C507 C508 1.398 . S
C507 C513 1.491 . S
C508 H499 0.950 . S
C508 C507 1.398 . S
C508 C509 1.391 1_554 S
C509 H497 0.950 . S
C509 C505 1.393 . S
C509 C508 1.391 1_556 S
C510 H500 0.950 . S
C510 C511 1.386 . S
C510 C512 1.391 . S
C511 C510 1.386 . S
C511 C515 1.393 . S
C512 H501 0.950 . S
C512 C510 1.391 . S
C512 C513 1.400 . S
C513 C507 1.491 . S
C513 C512 1.400 . S
C513 C514 1.398 . S
C514 H502 0.950 . S
C514 C513 1.398 . S
C514 C515 1.391 . S
C515 H503 0.950 . S
C515 C511 1.393 . S
C515 C514 1.391 . S
H516 C524 0.950 . S
H517 C529 0.950 . S
H518 C526 0.950 . S
H519 C528 0.950 . S
H520 C530 0.950 . S
H521 C532 0.950 . S
H522 C534 0.950 . S
H523 C535 0.950 . S
C524 H516 0.950 . S
C524 C525 1.386 . S
C524 C526 1.391 . S
C525 C524 1.386 . S
C525 C529 1.393 . S
C526 H518 0.950 . S
C526 C524 1.391 . S
C526 C527 1.400 . S
C527 C526 1.400 . S
C527 C528 1.398 . S
C527 C533 1.491 . S
C528 H519 0.950 . S
C528 C527 1.398 . S
C528 C529 1.391 . S
C529 H517 0.950 . S
C529 C525 1.393 . S
C529 C528 1.391 . S
C530 H520 0.950 . S
C530 C531 1.386 . S
C530 C532 1.391 . S
C531 C530 1.386 . S
C531 C535 1.393 . S
C532 H521 0.950 . S
C532 C530 1.391 . S
C532 C533 1.400 . S
C533 C527 1.491 . S
C533 C532 1.400 . S
C533 C534 1.398 . S
C534 H522 0.950 . S
C534 C533 1.398 . S
C534 C535 1.391 . S
C535 H523 0.950 . S
C535 C531 1.393 . S
C535 C534 1.391 . S
H536 C544 0.950 . S
H537 C549 0.950 . S
H538 C546 0.950 . S
H539 C548 0.950 . S
H540 C550 0.950 1_655 S
H541 C552 0.950 . S
H542 C554 0.967 . S
H543 C555 0.950 1_656 S
C544 H536 0.950 . S
C544 C545 1.386 . S
C544 C546 1.391 . S
C545 C544 1.386 . S
C545 C549 1.393 1_556 S
C546 H538 0.950 . S
C546 C544 1.391 . S
C546 C547 1.400 1_556 S
C547 C546 1.400 1_554 S
C547 C548 1.398 . S
C547 C553 1.491 . S
C548 H539 0.950 . S
C548 C547 1.398 . S
C548 C549 1.391 . S
C549 H537 0.950 . S
C549 C545 1.393 1_554 S
C549 C548 1.391 . S
C550 H540 0.950 1_455 S
C550 C551 1.386 1_455 S
C550 C552 1.391 . S
C551 C550 1.386 1_655 S
C551 C555 1.393 1_655 S
C552 H541 0.950 . S
C552 C550 1.391 . S
C552 C553 1.400 . S
C553 C547 1.491 . S
C553 C552 1.400 . S
C553 C554 1.387 1_554 S
C554 H542 0.967 . S
C554 C553 1.387 1_556 S
C554 C555 1.386 1_556 S
C555 H543 0.950 1_454 S
C555 C551 1.393 1_455 S
C555 C554 1.386 1_554 S
H556 C564 0.950 . S
H557 C569 0.950 . S
H558 C566 0.950 . S
H559 C568 0.950 . S
H560 C570 0.950 . S
H561 C572 0.950 . S
H562 C574 0.950 . S
H563 C575 0.950 . S
C564 H556 0.950 . S
C564 C565 1.386 . S
C564 C566 1.391 . S
C565 C564 1.386 . S
C565 C569 1.393 . S
C566 H558 0.950 . S
C566 C564 1.391 . S
C566 C567 1.400 . S
C567 C566 1.400 . S
C567 C568 1.398 . S
C567 C573 1.491 . S
C568 H559 0.950 . S
C568 C567 1.398 . S
C568 C569 1.391 . S
C569 H557 0.950 . S
C569 C565 1.393 . S
C569 C568 1.391 . S
C570 H560 0.950 . S
C570 C571 1.386 . S
C570 C572 1.391 1_565 S
C571 C570 1.386 . S
C571 C575 1.393 1_565 S
C572 H561 0.950 . S
C572 C570 1.391 1_545 S
C572 C573 1.400 . S
C573 C567 1.491 . S
C573 C572 1.400 . S
C573 C574 1.398 . S
C574 H562 0.950 . S
C574 C573 1.398 . S
C574 C575 1.391 . S
C575 H563 0.950 . S
C575 C571 1.393 1_545 S
C575 C574 1.391 . S
H576 C584 0.950 . S
H577 C589 0.950 . S
H578 C586 0.950 . S
H579 C588 0.950 . S
H580 C590 0.950 . S
H581 C592 0.950 . S
H582 C594 0.950 . S
H583 C595 0.950 . S
C584 H576 0.950 . S
C584 C585 1.386 . S
C584 C586 1.391 . S
C585 C584 1.386 . S
C585 C589 1.393 . S
C586 H578 0.950 . S
C586 C584 1.391 . S
C586 C587 1.400 . S
C587 C586 1.400 . S
C587 C588 1.398 . S
C587 C593 1.491 . S
C588 H579 0.950 . S
C588 C587 1.398 . S
C588 C589 1.391 . S
C589 H577 0.950 . S
C589 C585 1.393 . S
C589 C588 1.391 . S
C590 H580 0.950 . S
C590 C591 1.386 . S
C590 C592 1.391 . S
C591 C590 1.386 . S
C591 C595 1.393 . S
C592 H581 0.950 . S
C592 C590 1.391 . S
C592 C593 1.400 . S
C593 C587 1.491 . S
C593 C592 1.400 . S
C593 C594 1.398 . S
C594 H582 0.950 . S
C594 C593 1.398 . S
C594 C595 1.391 . S
C595 H583 0.950 . S
C595 C591 1.393 . S
C595 C594 1.391 . S
H596 C604 0.950 . S
H597 C609 0.950 . S
H598 C606 0.950 . S
H599 C608 0.950 . S
H600 C610 0.950 . S
H601 C612 0.950 . S
H602 C614 0.950 . S
H603 C615 0.950 . S
C604 H596 0.950 . S
C604 C605 1.386 1_655 S
C604 C606 1.391 . S
C605 C604 1.386 1_455 S
C605 C609 1.393 . S
C606 H598 0.950 . S
C606 C604 1.391 . S
C606 C607 1.400 . S
C607 C606 1.400 . S
C607 C608 1.398 . S
C607 C613 1.491 . S
C608 H599 0.950 . S
C608 C607 1.398 . S
C608 C609 1.391 1_655 S
C609 H597 0.950 . S
C609 C605 1.393 . S
C609 C608 1.391 1_455 S
C610 H600 0.950 . S
C610 C611 1.386 . S
C610 C612 1.391 . S
C611 C610 1.386 . S
C611 C615 1.393 . S
C612 H601 0.950 . S
C612 C610 1.391 . S
C612 C613 1.400 . S
C613 C607 1.491 . S
C613 C612 1.400 . S
C613 C614 1.398 . S
C614 H602 0.950 . S
C614 C613 1.398 . S
C614 C615 1.391 . S
C615 H603 0.950 . S
C615 C611 1.393 . S
C615 C614 1.391 . S
H616 C624 0.950 1_545 S
H617 C629 0.950 1_545 S
H618 C626 0.950 . S
H619 C628 0.950 . S
H620 C630 0.950 . S
H621 C632 0.950 . S
H622 C634 0.950 . S
H623 C635 0.950 . S
C624 H616 0.950 1_565 S
C624 C625 1.386 1_565 S
C624 C626 1.391 . S
C625 C624 1.386 1_545 S
C625 C629 1.393 1_545 S
C626 H618 0.950 . S
C626 C624 1.391 . S
C626 C627 1.400 . S
C627 C626 1.400 . S
C627 C628 1.398 . S
C627 C633 1.491 . S
C628 H619 0.950 . S
C628 C627 1.398 . S
C628 C629 1.391 . S
C629 H617 0.950 1_565 S
C629 C625 1.393 1_565 S
C629 C628 1.391 . S
C630 H620 0.950 . S
C630 C631 1.386 . S
C630 C632 1.391 . S
C631 C630 1.386 . S
C631 C635 1.393 . S
C632 H621 0.950 . S
C632 C630 1.391 . S
C632 C633 1.400 . S
C633 C627 1.491 . S
C633 C632 1.400 . S
C633 C634 1.398 . S
C634 H622 0.950 . S
C634 C633 1.398 . S
C634 C635 1.391 . S
C635 H623 0.950 . S
C635 C631 1.393 . S
C635 C634 1.391 . S
H636 C644 0.950 . S
H637 C649 0.950 . S
H638 C646 0.950 . S
H639 C648 0.950 . S
H640 C650 0.950 . S
H641 C652 0.950 . S
H642 C654 0.950 . S
H643 C655 0.939 1_554 S
C644 H636 0.950 . S
C644 C645 1.386 . S
C644 C646 1.391 . S
C645 C644 1.386 . S
C645 C649 1.393 1_554 S
C646 H638 0.950 . S
C646 C644 1.391 . S
C646 C647 1.400 1_554 S
C647 C646 1.400 1_556 S
C647 C648 1.398 . S
C647 C653 1.491 . S
C648 H639 0.950 . S
C648 C647 1.398 . S
C648 C649 1.391 . S
C649 H637 0.950 . S
C649 C645 1.393 1_556 S
C649 C648 1.391 . S
C650 H640 0.950 . S
C650 C651 1.386 . S
C650 C652 1.391 . S
C651 C650 1.386 . S
C651 C655 1.407 . S
C652 H641 0.950 . S
C652 C650 1.391 . S
C652 C653 1.400 . S
C653 C647 1.491 . S
C653 C652 1.400 . S
C653 C654 1.398 1_556 S
C654 H642 0.950 . S
C654 C653 1.398 1_554 S
C654 C655 1.388 1_554 S
C655 H643 0.939 1_556 S
C655 C651 1.407 . S
C655 C654 1.388 1_556 S
H656 C664 0.950 . S
H657 C669 0.950 1_655 S
H658 C666 0.950 . S
H659 C668 0.950 . S
H660 C670 0.950 . S
H661 C672 0.950 . S
H662 C674 0.950 . S
H663 C675 0.950 . S
C664 H656 0.950 . S
C664 C665 1.386 1_455 S
C664 C666 1.391 . S
C665 C664 1.386 1_655 S
C665 C669 1.393 1_655 S
C666 H658 0.950 . S
C666 C664 1.391 . S
C666 C667 1.400 . S
C667 C666 1.400 . S
C667 C668 1.398 . S
C667 C673 1.491 . S
C668 H659 0.950 . S
C668 C667 1.398 . S
C668 C669 1.391 . S
C669 H657 0.950 1_455 S
C669 C665 1.393 1_455 S
C669 C668 1.391 . S
C670 H660 0.950 . S
C670 C671 1.386 . S
C670 C672 1.391 . S
C671 C670 1.386 . S
C671 C675 1.393 . S
C672 H661 0.950 . S
C672 C670 1.391 . S
C672 C673 1.400 . S
C673 C667 1.491 . S
C673 C672 1.400 . S
C673 C674 1.398 . S
C674 H662 0.950 . S
C674 C673 1.398 . S
C674 C675 1.391 . S
C675 H663 0.950 . S
C675 C671 1.393 . S
C675 C674 1.391 . S
H676 C684 0.950 1_565 S
H677 C689 0.950 1_565 S
H678 C686 0.950 . S
H679 C688 0.950 . S
H680 C690 0.950 . S
H681 C692 0.950 . S
H682 C694 0.950 . S
H683 C695 0.950 . S
C684 H676 0.950 1_545 S
C684 C685 1.386 1_545 S
C684 C686 1.391 . S
C685 C684 1.386 1_565 S
C685 C689 1.393 1_565 S
C686 H678 0.950 . S
C686 C684 1.391 . S
C686 C687 1.400 . S
C687 C686 1.400 . S
C687 C688 1.398 . S
C687 C693 1.491 . S
C688 H679 0.950 . S
C688 C687 1.398 . S
C688 C689 1.391 . S
C689 H677 0.950 1_545 S
C689 C685 1.393 1_545 S
C689 C688 1.391 . S
C690 H680 0.950 . S
C690 C691 1.386 . S
C690 C692 1.391 . S
C691 C690 1.386 . S
C691 C695 1.393 . S
C692 H681 0.950 . S
C692 C690 1.391 . S
C692 C693 1.400 . S
C693 C687 1.491 . S
C693 C692 1.400 . S
C693 C694 1.398 . S
C694 H682 0.950 . S
C694 C693 1.398 . S
C694 C695 1.391 . S
C695 H683 0.950 . S
C695 C691 1.393 . S
C695 C694 1.391 . S
H696 C704 0.950 . S
H697 C709 0.950 . S
H698 C706 0.950 . S
H699 C708 0.950 . S
H700 C710 0.950 . S
H701 C712 0.950 . S
H702 C714 0.950 . S
H703 C715 0.950 . S
C704 H696 0.950 . S
C704 C705 1.386 . S
C704 C706 1.391 . S
C705 C704 1.386 . S
C705 C709 1.393 . S
C706 H698 0.950 . S
C706 C704 1.391 . S
C706 C707 1.400 . S
C707 C706 1.400 . S
C707 C708 1.398 . S
C707 C713 1.491 . S
C708 H699 0.950 . S
C708 C707 1.398 . S
C708 C709 1.391 . S
C709 H697 0.950 . S
C709 C705 1.393 . S
C709 C708 1.391 . S
C710 H700 0.950 . S
C710 C711 1.386 . S
C710 C712 1.391 . S
C711 C710 1.386 . S
C711 C715 1.393 . S
C712 H701 0.950 . S
C712 C710 1.391 . S
C712 C713 1.400 . S
C713 C707 1.491 . S
C713 C712 1.400 . S
C713 C714 1.398 . S
C714 H702 0.950 . S
C714 C713 1.398 . S
C714 C715 1.391 . S
C715 H703 0.950 . S
C715 C711 1.393 . S
C715 C714 1.391 . S
H716 C724 0.950 . S
H717 C729 0.950 . S
H718 C726 0.950 . S
H719 C728 0.950 . S
H720 C730 0.950 . S
H721 C732 0.950 . S
H722 C734 0.950 . S
H723 C735 0.950 . S
C724 H716 0.950 . S
C724 C725 1.386 . S
C724 C726 1.391 1_455 S
C725 C724 1.386 . S
C725 C729 1.393 1_455 S
C726 H718 0.950 . S
C726 C724 1.391 1_655 S
C726 C727 1.400 . S
C727 C726 1.400 . S
C727 C728 1.398 . S
C727 C733 1.491 . S
C728 H719 0.950 . S
C728 C727 1.398 . S
C728 C729 1.391 . S
C729 H717 0.950 . S
C729 C725 1.393 1_655 S
C729 C728 1.391 . S
C730 H720 0.950 . S
C730 C731 1.386 . S
C730 C732 1.391 . S
C731 C730 1.386 . S
C731 C735 1.393 . S
C732 H721 0.950 . S
C732 C730 1.391 . S
C732 C733 1.400 . S
C733 C727 1.491 . S
C733 C732 1.400 . S
C733 C734 1.398 . S
C734 H722 0.950 . S
C734 C733 1.398 . S
C734 C735 1.391 . S
C735 H723 0.950 . S
C735 C731 1.393 . S
C735 C734 1.391 . S
H736 C744 0.950 . S
H737 C749 0.975 . S
H738 C746 0.950 . S
H739 C748 0.950 . S
H740 C750 0.950 . S
H741 C752 0.950 . S
H742 C754 0.950 . S
H743 C755 0.950 . S
C744 H736 0.950 . S
C744 C745 1.386 1_565 S
C744 C746 1.391 . S
C745 C744 1.386 1_545 S
C745 C749 1.405 . S
C746 H738 0.950 . S
C746 C744 1.391 . S
C746 C747 1.400 . S
C747 C746 1.400 . S
C747 C748 1.398 . S
C747 C753 1.491 . S
C748 H739 0.950 . S
C748 C747 1.398 . S
C748 C749 1.354 1_565 S
C749 H737 0.975 . S
C749 C745 1.405 . S
C749 C748 1.354 1_545 S
C750 H740 0.950 . S
C750 C751 1.386 . S
C750 C752 1.391 . S
C751 C750 1.386 . S
C751 C755 1.393 . S
C752 H741 0.950 . S
C752 C750 1.391 . S
C752 C753 1.400 . S
C753 C747 1.491 . S
C753 C752 1.400 . S
C753 C754 1.398 . S
C754 H742 0.950 . S
C754 C753 1.398 . S
C754 C755 1.391 . S
C755 H743 0.950 . S
C755 C751 1.393 . S
C755 C754 1.391 . S
H756 C764 0.950 . S
H757 C769 0.950 . S
H758 C766 0.950 . S
H759 C768 0.950 . S
H760 C770 0.950 . S
H761 C772 0.950 . S
H762 C774 0.950 . S
H763 C775 0.950 . S
C764 H756 0.950 . S
C764 C765 1.386 . S
C764 C766 1.391 . S
C765 C764 1.386 . S
C765 C769 1.393 . S
C766 H758 0.950 . S
C766 C764 1.391 . S
C766 C767 1.400 . S
C767 C766 1.400 . S
C767 C768 1.398 . S
C767 C773 1.491 . S
C768 H759 0.950 . S
C768 C767 1.398 . S
C768 C769 1.391 . S
C769 H757 0.950 . S
C769 C765 1.393 . S
C769 C768 1.391 . S
C770 H760 0.950 . S
C770 C771 1.386 . S
C770 C772 1.391 . S
C771 C770 1.386 . S
C771 C775 1.393 . S
C772 H761 0.950 . S
C772 C770 1.391 . S
C772 C773 1.400 . S
C773 C767 1.491 . S
C773 C772 1.400 . S
C773 C774 1.398 . S
C774 H762 0.950 . S
C774 C773 1.398 . S
C774 C775 1.391 . S
C775 H763 0.950 . S
C775 C771 1.393 . S
C775 C774 1.391 . S
H776 C784 0.950 . S
H777 C789 0.950 . S
H778 C786 0.950 1_455 S
H779 C788 0.950 . S
H780 C790 0.950 . S
H781 C792 0.950 1_655 S
H782 C794 0.950 . S
H783 C795 0.950 . S
C784 H776 0.950 . S
C784 C785 1.386 . S
C784 C786 1.391 . S
C785 C784 1.386 . S
C785 C789 1.393 . S
C786 H778 0.950 1_655 S
C786 C784 1.391 . S
C786 C787 1.400 . S
C787 C786 1.400 . S
C787 C788 1.398 . S
C787 C793 1.491 1_655 S
C788 H779 0.950 . S
C788 C787 1.398 . S
C788 C789 1.391 . S
C789 H777 0.950 . S
C789 C785 1.393 . S
C789 C788 1.391 . S
C790 H780 0.950 . S
C790 C791 1.386 . S
C790 C792 1.391 . S
C791 C790 1.386 . S
C791 C795 1.393 . S
C792 H781 0.950 1_455 S
C792 C790 1.391 . S
C792 C793 1.400 . S
C793 C787 1.491 1_455 S
C793 C792 1.400 . S
C793 C794 1.398 . S
C794 H782 0.950 . S
C794 C793 1.398 . S
C794 C795 1.391 . S
C795 H783 0.950 . S
C795 C791 1.393 . S
C795 C794 1.391 . S
H796 C804 0.950 . S
H797 C809 0.950 . S
H798 C806 0.950 . S
H799 C808 0.950 . S
H800 C810 0.950 . S
H801 C812 0.950 . S
H802 C814 0.950 . S
H803 C815 0.950 . S
C804 H796 0.950 . S
C804 C805 1.386 . S
C804 C806 1.391 1_565 S
C805 C804 1.386 . S
C805 C809 1.393 . S
C806 H798 0.950 . S
C806 C804 1.391 1_545 S
C806 C807 1.400 1_545 S
C807 C806 1.400 1_565 S
C807 C808 1.398 . S
C807 C813 1.491 1_565 S
C808 H799 0.950 . S
C808 C807 1.398 . S
C808 C809 1.391 . S
C809 H797 0.950 . S
C809 C805 1.393 . S
C809 C808 1.391 . S
C810 H800 0.950 . S
C810 C811 1.386 . S
C810 C812 1.391 1_545 S
C811 C810 1.386 . S
C811 C815 1.393 . S
C812 H801 0.950 . S
C812 C810 1.391 1_565 S
C812 C813 1.400 1_565 S
C813 C807 1.491 1_545 S
C813 C812 1.400 1_545 S
C813 C814 1.398 . S
C814 H802 0.950 . S
C814 C813 1.398 . S
C814 C815 1.391 . S
C815 H803 0.950 . S
C815 C811 1.393 . S
C815 C814 1.391 . S
H816 C824 0.950 . S
H817 C829 0.950 . S
H818 C826 0.950 . S
H819 C828 0.950 . S
H820 C830 0.950 . S
H821 C832 0.950 . S
H822 C834 0.950 . S
H823 C835 0.950 . S
C824 H816 0.950 . S
C824 C825 1.386 . S
C824 C826 1.391 . S
C825 C824 1.386 . S
C825 C829 1.393 . S
C826 H818 0.950 . S
C826 C824 1.391 . S
C826 C827 1.400 . S
C827 C826 1.400 . S
C827 C828 1.398 . S
C827 C833 1.491 . S
C828 H819 0.950 . S
C828 C827 1.398 . S
C828 C829 1.391 . S
C829 H817 0.950 . S
C829 C825 1.393 . S
C829 C828 1.391 . S
C830 H820 0.950 . S
C830 C831 1.386 . S
C830 C832 1.391 . S
C831 C830 1.386 . S
C831 C835 1.393 . S
C832 H821 0.950 . S
C832 C830 1.391 . S
C832 C833 1.400 . S
C833 C827 1.491 . S
C833 C832 1.400 . S
C833 C834 1.398 . S
C834 H822 0.950 . S
C834 C833 1.398 . S
C834 C835 1.391 . S
C835 H823 0.950 . S
C835 C831 1.393 . S
C835 C834 1.391 . S
H836 C844 0.950 . S
H837 C849 0.950 . S
H838 C846 0.950 . S
H839 C848 0.950 . S
H840 C850 0.950 . S
H841 C852 0.950 . S
H842 C854 0.950 . S
H843 C855 0.950 . S
C844 H836 0.950 . S
C844 C845 1.386 . S
C844 C846 1.391 . S
C845 C844 1.386 . S
C845 C849 1.393 . S
C846 H838 0.950 . S
C846 C844 1.391 . S
C846 C847 1.400 . S
C847 C846 1.400 . S
C847 C848 1.398 . S
C847 C853 1.491 1_455 S
C848 H839 0.950 . S
C848 C847 1.398 . S
C848 C849 1.391 . S
C849 H837 0.950 . S
C849 C845 1.393 . S
C849 C848 1.391 . S
C850 H840 0.950 . S
C850 C851 1.386 . S
C850 C852 1.391 . S
C851 C850 1.386 . S
C851 C855 1.393 . S
C852 H841 0.950 . S
C852 C850 1.391 . S
C852 C853 1.400 . S
C853 C847 1.491 1_655 S
C853 C852 1.400 . S
C853 C854 1.398 . S
C854 H842 0.950 . S
C854 C853 1.398 . S
C854 C855 1.391 . S
C855 H843 0.950 . S
C855 C851 1.393 . S
C855 C854 1.391 . S
H856 C864 0.950 . S
H857 C869 0.950 . S
H858 C866 0.950 . S
H859 C868 0.950 1_556 S
H860 C870 0.950 . S
H861 C872 0.950 . S
H862 C874 0.950 1_554 S
H863 C875 0.950 . S
C864 H856 0.950 . S
C864 C865 1.386 . S
C864 C866 1.391 1_565 S
C865 C864 1.386 . S
C865 C869 1.393 . S
C866 H858 0.950 . S
C866 C864 1.391 1_545 S
C866 C867 1.400 1_545 S
C867 C866 1.400 1_565 S
C867 C868 1.398 . S
C867 C873 1.491 1_564 S
C868 H859 0.950 1_554 S
C868 C867 1.398 . S
C868 C869 1.391 . S
C869 H857 0.950 . S
C869 C865 1.393 . S
C869 C868 1.391 . S
C870 H860 0.950 . S
C870 C871 1.386 . S
C870 C872 1.391 1_545 S
C871 C870 1.386 . S
C871 C875 1.393 . S
C872 H861 0.950 . S
C872 C870 1.391 1_565 S
C872 C873 1.400 1_565 S
C873 C867 1.491 1_546 S
C873 C872 1.400 1_545 S
C873 C874 1.398 . S
C874 H862 0.950 1_556 S
C874 C873 1.398 . S
C874 C875 1.391 . S
C875 H863 0.950 . S
C875 C871 1.393 . S
C875 C874 1.391 . S
H876 C884 0.950 . S
H877 C889 0.950 . S
H878 C886 0.950 . S
H879 C888 0.950 . S
H880 C890 0.950 . S
H881 C892 0.950 . S
H882 C894 0.950 . S
H883 C895 0.950 . S
C884 H876 0.950 . S
C884 C885 1.386 . S
C884 C886 1.391 . S
C885 C884 1.386 . S
C885 C889 1.393 . S
C886 H878 0.950 . S
C886 C884 1.391 . S
C886 C887 1.400 . S
C887 C886 1.400 . S
C887 C888 1.398 . S
C887 C893 1.491 . S
C888 H879 0.950 . S
C888 C887 1.398 . S
C888 C889 1.391 . S
C889 H877 0.950 . S
C889 C885 1.393 . S
C889 C888 1.391 . S
C890 H880 0.950 . S
C890 C891 1.386 . S
C890 C892 1.391 . S
C891 C890 1.386 . S
C891 C895 1.393 . S
C892 H881 0.950 . S
C892 C890 1.391 . S
C892 C893 1.400 . S
C893 C887 1.491 . S
C893 C892 1.400 . S
C893 C894 1.398 . S
C894 H882 0.950 . S
C894 C893 1.398 . S
C894 C895 1.391 . S
C895 H883 0.950 . S
C895 C891 1.393 . S
C895 C894 1.391 . S
H896 C904 0.950 . S
H897 C909 0.950 . S
H898 C906 0.950 . S
H899 C908 0.950 . S
H900 C910 0.950 . S
H901 C912 0.950 . S
H902 C914 0.950 . S
H903 C915 0.950 . S
C904 H896 0.950 . S
C904 C905 1.386 . S
C904 C906 1.391 . S
C905 C904 1.386 . S
C905 C909 1.393 . S
C906 H898 0.950 . S
C906 C904 1.391 . S
C906 C907 1.400 . S
C907 C906 1.400 . S
C907 C908 1.398 . S
C907 C913 1.491 . S
C908 H899 0.950 . S
C908 C907 1.398 . S
C908 C909 1.391 . S
C909 H897 0.950 . S
C909 C905 1.393 . S
C909 C908 1.391 . S
C910 H900 0.950 . S
C910 C911 1.386 . S
C910 C912 1.391 . S
C911 C910 1.386 . S
C911 C915 1.393 . S
C912 H901 0.950 . S
C912 C910 1.391 . S
C912 C913 1.400 . S
C913 C907 1.491 . S
C913 C912 1.400 . S
C913 C914 1.398 . S
C914 H902 0.950 . S
C914 C913 1.398 . S
C914 C915 1.391 . S
C915 H903 0.950 . S
C915 C911 1.393 . S
C915 C914 1.391 . S
H916 C924 0.950 . S
H917 C929 0.950 . S
H918 C926 0.950 . S
H919 C928 0.950 . S
H920 C930 0.950 . S
H921 C932 0.950 . S
H922 C934 0.950 . S
H923 C935 0.950 . S
C924 H916 0.950 . S
C924 C925 1.386 . S
C924 C926 1.391 . S
C925 C924 1.386 . S
C925 C929 1.393 . S
C926 H918 0.950 . S
C926 C924 1.391 . S
C926 C927 1.400 . S
C927 C926 1.400 . S
C927 C928 1.398 . S
C927 C933 1.491 . S
C928 H919 0.950 . S
C928 C927 1.398 . S
C928 C929 1.391 . S
C929 H917 0.950 . S
C929 C925 1.393 . S
C929 C928 1.391 . S
C930 H920 0.950 . S
C930 C931 1.386 . S
C930 C932 1.391 . S
C931 C930 1.386 . S
C931 C935 1.393 . S
C932 H921 0.950 . S
C932 C930 1.391 . S
C932 C933 1.400 . S
C933 C927 1.491 . S
C933 C932 1.400 . S
C933 C934 1.398 . S
C934 H922 0.950 . S
C934 C933 1.398 . S
C934 C935 1.391 . S
C935 H923 0.950 . S
C935 C931 1.393 . S
C935 C934 1.391 . S
H936 C944 0.950 . S
H937 C949 0.950 . S
H938 C946 0.950 . S
H939 C948 0.950 . S
H940 C950 0.950 . S
H941 C952 0.950 . S
H942 C954 0.950 . S
H943 C955 0.950 . S
C944 H936 0.950 . S
C944 C945 1.386 . S
C944 C946 1.391 . S
C945 C944 1.386 . S
C945 C949 1.393 . S
C946 H938 0.950 . S
C946 C944 1.391 . S
C946 C947 1.400 . S
C947 C946 1.400 . S
C947 C948 1.398 . S
C947 C953 1.491 . S
C948 H939 0.950 . S
C948 C947 1.398 . S
C948 C949 1.391 . S
C949 H937 0.950 . S
C949 C945 1.393 . S
C949 C948 1.391 . S
C950 H940 0.950 . S
C950 C951 1.386 . S
C950 C952 1.391 . S
C951 C950 1.386 . S
C951 C955 1.393 . S
C952 H941 0.950 . S
C952 C950 1.391 . S
C952 C953 1.400 . S
C953 C947 1.491 . S
C953 C952 1.400 . S
C953 C954 1.398 . S
C954 H942 0.950 . S
C954 C953 1.398 . S
C954 C955 1.391 . S
C955 H943 0.950 . S
C955 C951 1.393 . S
C955 C954 1.391 . S
H956 C964 0.950 . S
H957 C969 0.950 . S
H958 C966 0.950 . S
H959 C968 0.950 . S
H960 C970 0.950 . S
H961 C972 0.950 . S
H962 C974 0.950 . S
H963 C975 0.950 . S
C964 H956 0.950 . S
C964 C965 1.386 . S
C964 C966 1.391 . S
C965 C964 1.386 . S
C965 C969 1.393 . S
C966 H958 0.950 . S
C966 C964 1.391 . S
C966 C967 1.400 . S
C967 C966 1.400 . S
C967 C968 1.398 . S
C967 C973 1.491 . S
C968 H959 0.950 . S
C968 C967 1.398 . S
C968 C969 1.391 . S
C969 H957 0.950 . S
C969 C965 1.393 . S
C969 C968 1.391 . S
C970 H960 0.950 . S
C970 C971 1.386 . S
C970 C972 1.391 . S
C971 C970 1.386 . S
C971 C975 1.393 . S
C972 H961 0.950 . S
C972 C970 1.391 . S
C972 C973 1.400 . S
C973 C967 1.491 . S
C973 C972 1.400 . S
C973 C974 1.398 . S
C974 H962 0.950 . S
C974 C973 1.398 . S
C974 C975 1.391 . S
C975 H963 0.950 . S
C975 C971 1.393 . S
C975 C974 1.391 . S
H976 C984 0.950 . S
H977 C989 0.950 . S
H978 C986 0.950 . S
H979 C988 0.950 . S
H980 C990 0.950 . S
H981 C992 0.950 . S
H982 C994 0.950 . S
H983 C995 0.950 . S
C984 H976 0.950 . S
C984 C985 1.386 . S
C984 C986 1.391 . S
C985 C984 1.386 . S
C985 C989 1.393 . S
C986 H978 0.950 . S
C986 C984 1.391 . S
C986 C987 1.400 . S
C987 C986 1.400 . S
C987 C988 1.398 . S
C987 C993 1.491 . S
C988 H979 0.950 . S
C988 C987 1.398 . S
C988 C989 1.391 . S
C989 H977 0.950 . S
C989 C985 1.393 . S
C989 C988 1.391 . S
C990 H980 0.950 . S
C990 C991 1.386 . S
C990 C992 1.391 . S
C991 C990 1.386 . S
C991 C995 1.393 . S
C992 H981 0.950 . S
C992 C990 1.391 . S
C992 C993 1.400 . S
C993 C987 1.491 . S
C993 C992 1.400 . S
C993 C994 1.398 . S
C994 H982 0.950 . S
C994 C993 1.398 . S
C994 C995 1.391 . S
C995 H983 0.950 . S
C995 C991 1.393 . S
C995 C994 1.391 . S
C405 N344 1.062 . S
C411 N14 1.074 . S
C425 N47 1.099 . S
C431 N377 1.110 . S
C445 N80 1.140 . S
C451 N212 1.128 . S
C465 N113 1.096 . S
C471 N245 1.083 . S
C485 N146 1.110 . S
C491 N278 1.099 . S
C505 N179 1.141 . S
C511 N311 1.131 . S
C525 N5 1.681 . S
C531 C173 1.703 . S
C545 C8 1.719 . S
C551 N38 1.692 . S
C565 C41 1.727 . S
C571 N71 1.691 . S
C585 N104 1.688 . S
C591 C74 1.723 . S
C605 N137 1.714 . S
C611 C107 1.747 . S
C625 N170 1.702 . S
C631 C140 1.728 . S
C645 C239 1.714 . S
C651 N203 1.698 . S
C665 N236 1.686 . S
C671 C272 1.697 . S
C685 N269 1.700 . S
C691 C305 1.729 . S
C705 N302 1.730 . S
C711 C338 1.735 . S
C725 N335 1.708 . S
C731 C371 1.717 . S
C745 N368 1.693 . S
C751 C206 1.717 . S
C765 C28 0.710 . S
C771 C325 0.710 . S
C785 C61 0.761 . S
C791 C358 0.762 . S
C805 C94 0.761 . S
C811 C391 0.763 . S
C825 C127 0.757 . S
C831 C226 0.757 . S
C845 C160 0.740 . S
C851 C259 0.738 . S
C865 C292 0.736 . S
C871 C193 0.738 . S
C885 C215 1.370 . S
C891 C17 1.383 . S
C905 C50 1.371 . S
C911 C248 1.387 . S
C925 C83 1.401 . S
C931 C281 1.402 . S
C945 C314 1.417 . S
C951 C116 1.410 . S
C965 C149 1.409 . S
C971 C347 1.418 . S
C985 C380 1.395 . S
C991 C182 1.404 . S
