# Generated by pormake.
# Topology uoz, (4)-cn, num edge types: 1
# Building blocks:
#     Node 0, Type 0, BuildingBlock: GALJAG_clean_sbu_0, # of connection points: 4
#     Node 1, Type 0, BuildingBlock: GALJAG_clean_sbu_0, # of connection points: 4
#     Node 2, Type 0, BuildingBlock: GALJAG_clean_sbu_0, # of connection points: 4
#     Node 3, Type 0, BuildingBlock: GALJAG_clean_sbu_0, # of connection points: 4
#     Node 4, Type 0, BuildingBlock: GALJAG_clean_sbu_0, # of connection points: 4
#     Node 5, Type 0, BuildingBlock: GALJAG_clean_sbu_0, # of connection points: 4
#     Node 6, Type 0, BuildingBlock: GALJAG_clean_sbu_0, # of connection points: 4
#     Node 7, Type 0, BuildingBlock: GALJAG_clean_sbu_0, # of connection points: 4
#     Node 8, Type 0, BuildingBlock: GALJAG_clean_sbu_0, # of connection points: 4
#     Node 9, Type 0, BuildingBlock: GALJAG_clean_sbu_0, # of connection points: 4
#     Node 10, Type 0, BuildingBlock: GALJAG_clean_sbu_0, # of connection points: 4
#     Node 11, Type 0, BuildingBlock: GALJAG_clean_sbu_0, # of connection points: 4
#     Node 12, Type 0, BuildingBlock: GALJAG_clean_sbu_0, # of connection points: 4
#     Node 13, Type 0, BuildingBlock: GALJAG_clean_sbu_0, # of connection points: 4
#     Node 14, Type 0, BuildingBlock: GALJAG_clean_sbu_0, # of connection points: 4
#     Node 15, Type 0, BuildingBlock: GALJAG_clean_sbu_0, # of connection points: 4
#     Edge 16, Type (0, 0), BuildingBlock: MIFKUJ_clean_linker_0, # of connection points: 2
#     Edge 17, Type (0, 0), BuildingBlock: MIFKUJ_clean_linker_0, # of connection points: 2
#     Edge 18, Type (0, 0), BuildingBlock: MIFKUJ_clean_linker_0, # of connection points: 2
#     Edge 19, Type (0, 0), BuildingBlock: MIFKUJ_clean_linker_0, # of connection points: 2
#     Edge 20, Type (0, 0), BuildingBlock: MIFKUJ_clean_linker_0, # of connection points: 2
#     Edge 21, Type (0, 0), BuildingBlock: MIFKUJ_clean_linker_0, # of connection points: 2
#     Edge 22, Type (0, 0), BuildingBlock: MIFKUJ_clean_linker_0, # of connection points: 2
#     Edge 23, Type (0, 0), BuildingBlock: MIFKUJ_clean_linker_0, # of connection points: 2
#     Edge 24, Type (0, 0), BuildingBlock: MIFKUJ_clean_linker_0, # of connection points: 2
#     Edge 25, Type (0, 0), BuildingBlock: MIFKUJ_clean_linker_0, # of connection points: 2
#     Edge 26, Type (0, 0), BuildingBlock: MIFKUJ_clean_linker_0, # of connection points: 2
#     Edge 27, Type (0, 0), BuildingBlock: MIFKUJ_clean_linker_0, # of connection points: 2
#     Edge 28, Type (0, 0), BuildingBlock: MIFKUJ_clean_linker_0, # of connection points: 2
#     Edge 29, Type (0, 0), BuildingBlock: MIFKUJ_clean_linker_0, # of connection points: 2
#     Edge 30, Type (0, 0), BuildingBlock: MIFKUJ_clean_linker_0, # of connection points: 2
#     Edge 31, Type (0, 0), BuildingBlock: MIFKUJ_clean_linker_0, # of connection points: 2
#     Edge 32, Type (0, 0), BuildingBlock: MIFKUJ_clean_linker_0, # of connection points: 2
#     Edge 33, Type (0, 0), BuildingBlock: MIFKUJ_clean_linker_0, # of connection points: 2
#     Edge 34, Type (0, 0), BuildingBlock: MIFKUJ_clean_linker_0, # of connection points: 2
#     Edge 35, Type (0, 0), BuildingBlock: MIFKUJ_clean_linker_0, # of connection points: 2
#     Edge 36, Type (0, 0), BuildingBlock: MIFKUJ_clean_linker_0, # of connection points: 2
#     Edge 37, Type (0, 0), BuildingBlock: MIFKUJ_clean_linker_0, # of connection points: 2
#     Edge 38, Type (0, 0), BuildingBlock: MIFKUJ_clean_linker_0, # of connection points: 2
#     Edge 39, Type (0, 0), BuildingBlock: MIFKUJ_clean_linker_0, # of connection points: 2
#     Edge 40, Type (0, 0), BuildingBlock: MIFKUJ_clean_linker_0, # of connection points: 2
#     Edge 41, Type (0, 0), BuildingBlock: MIFKUJ_clean_linker_0, # of connection points: 2
#     Edge 42, Type (0, 0), BuildingBlock: MIFKUJ_clean_linker_0, # of connection points: 2
#     Edge 43, Type (0, 0), BuildingBlock: MIFKUJ_clean_linker_0, # of connection points: 2
#     Edge 44, Type (0, 0), BuildingBlock: MIFKUJ_clean_linker_0, # of connection points: 2
#     Edge 45, Type (0, 0), BuildingBlock: MIFKUJ_clean_linker_0, # of connection points: 2
#     Edge 46, Type (0, 0), BuildingBlock: MIFKUJ_clean_linker_0, # of connection points: 2
#     Edge 47, Type (0, 0), BuildingBlock: MIFKUJ_clean_linker_0, # of connection points: 2
# Relax obj value: 0.135
# Max RMSD: 0.159
# Mean RMSD: 0.159
data_MOF--net-uoz--node1-GALJAG_clean_sbu_0--edge1-MIFKUJ_clean_linker_0
_symmetry_space_group_name_H-M    P1
_symmetry_Int_Tables_number       1
_symmetry_cell_setting            triclinic
loop_
_symmetry_equiv_pos_as_xyz
'x, y, z'
_cell_length_a     82.903499
_cell_length_b     82.884702
_cell_length_c     24.563579
_cell_angle_alpha  89.983595
_cell_angle_beta   90.000976
_cell_angle_gamma 89.996995
loop_
_atom_site_label
_atom_site_type_symbol
_atom_site_fract_x
_atom_site_fract_y
_atom_site_fract_z
_atom_type_partial_charge
In0 In 0.998 0.59225 0.29653 0.0
O1 O 0.98594 0.57215 0.2485 0.0
O2 O 0.01077 0.57672 0.23366 0.0
C3 C 0.97151 0.61098 0.28819 0.0
C4 C 0.00142 0.57391 0.3878 0.0
C5 C 0.01998 0.61425 0.26381 0.0
O6 O 0.97296 0.59756 0.26454 0.0
O7 O 0.98316 0.6147 0.31902 0.0
O8 O 0.01941 0.60936 0.31263 0.0
O9 O 0.00958 0.60809 0.23271 0.0
C10 C 0.9985 0.56838 0.22255 0.0
O11 O 0.01276 0.57657 0.35491 0.0
O12 O 0.98868 0.58164 0.37738 0.0
In13 In 0.65872 0.7481 0.54693 0.0
O14 O 0.67238 0.73915 0.47268 0.0
O15 O 0.68091 0.7604 0.51169 0.0
C16 C 0.63798 0.72298 0.54251 0.0
C17 C 0.67677 0.74703 0.63921 0.0
C18 C 0.63957 0.77224 0.51102 0.0
O19 O 0.65233 0.72218 0.52583 0.0
O20 O 0.63427 0.73621 0.56474 0.0
O21 O 0.64219 0.77004 0.56129 0.0
O22 O 0.64664 0.76243 0.47995 0.0
C23 C 0.68276 0.75026 0.47394 0.0
O24 O 0.66938 0.75961 0.62443 0.0
O25 O 0.67392 0.73484 0.61017 0.0
In26 In 0.50423 0.40853 0.7999 0.0
O27 O 0.51257 0.42182 0.7241 0.0
O28 O 0.49144 0.43033 0.76387 0.0
C29 C 0.52959 0.38805 0.79545 0.0
C30 C 0.50549 0.42728 0.89056 0.0
C31 C 0.48023 0.38872 0.7672 0.0
O32 O 0.52999 0.40217 0.77649 0.0
O33 O 0.51668 0.3845 0.82001 0.0
O34 O 0.48274 0.39166 0.81707 0.0
O35 O 0.48964 0.39585 0.73487 0.0
C36 C 0.50135 0.43209 0.7254 0.0
O37 O 0.49304 0.4194 0.87753 0.0
O38 O 0.51753 0.42459 0.86061 0.0
In39 In 0.84281 0.2513 0.05048 0.0
O40 O 0.83031 0.25883 0.97225 0.0
O41 O 0.81873 0.24123 0.02171 0.0
C42 C 0.86252 0.277 0.0364 0.0
C43 C 0.82462 0.25293 0.14224 0.0
C44 C 0.86195 0.22598 0.02354 0.0
O45 O 0.84948 0.27507 0.01095 0.0
O46 O 0.8654 0.26631 0.07185 0.0
O47 O 0.86204 0.23204 0.07071 0.0
O48 O 0.8522 0.23253 0.99113 0.0
C49 C 0.81829 0.24972 0.97914 0.0
O50 O 0.83066 0.23996 0.12477 0.0
O51 O 0.82886 0.26532 0.11603 0.0
In52 In 0.00376 0.40851 0.79057 0.0
O53 O 0.0135 0.42001 0.71192 0.0
O54 O 0.98887 0.42363 0.73081 0.0
C55 C 0.02969 0.38895 0.7983 0.0
C56 C 0.00399 0.43301 0.86202 0.0
C57 C 0.98135 0.38707 0.82454 0.0
O58 O 0.01889 0.38676 0.76262 0.0
O59 O 0.02766 0.40127 0.82758 0.0
O60 O 0.99137 0.39379 0.8557 0.0
O61 O 0.98248 0.39114 0.77498 0.0
C62 C 1.00051 0.42707 0.6999 0.0
O63 O 0.99147 0.42495 0.85164 0.0
O64 O 0.01646 0.42863 0.83665 0.0
In65 In 0.84129 0.74943 0.03652 0.0
O66 O 0.81878 0.73848 0.07426 0.0
O67 O 0.82563 0.7621 0.09909 0.0
C68 C 0.85935 0.72275 0.05339 0.0
C69 C 0.82428 0.75294 0.94286 0.0
C70 C 0.86304 0.77172 0.06862 0.0
O71 O 0.84639 0.72562 0.07838 0.0
O72 O 0.86294 0.733 0.01723 0.0
O73 O 0.85958 0.76974 0.01885 0.0
O74 O 0.85554 0.76261 0.10095 0.0
C75 C 0.8157 0.75065 0.10326 0.0
O76 O 0.827 0.76442 0.97523 0.0
O77 O 0.83144 0.73999 0.955 0.0
In78 In 0.50181 0.59153 0.29082 0.0
O79 O 0.51375 0.56971 0.33033 0.0
O80 O 0.49035 0.57641 0.35746 0.0
C81 C 0.52777 0.611 0.30065 0.0
C82 C 0.49769 0.57423 0.19787 0.0
C83 C 0.47927 0.61264 0.32534 0.0
O84 O 0.5271 0.59712 0.32144 0.0
O85 O 0.51571 0.61478 0.27189 0.0
O86 O 0.48005 0.60824 0.276 0.0
O87 O 0.48967 0.60634 0.35616 0.0
C88 C 0.50201 0.56674 0.36138 0.0
O89 O 0.4867 0.57626 0.23258 0.0
O90 O 0.51037 0.58217 0.20742 0.0
In91 In 0.65978 0.25088 0.53961 0.0
O92 O 0.67096 0.23966 0.46276 0.0
O93 O 0.67292 0.26493 0.47287 0.0
C94 C 0.64119 0.22579 0.57125 0.0
C95 C 0.68434 0.24924 0.61085 0.0
C96 C 0.63893 0.27576 0.55026 0.0
O97 O 0.6423 0.22995 0.5218 0.0
O98 O 0.64958 0.23406 0.60365 0.0
O99 O 0.65363 0.27675 0.56298 0.0
O100 O 0.63488 0.2625 0.52896 0.0
C101 C 0.67685 0.25271 0.44537 0.0
O102 O 0.67286 0.2591 0.61614 0.0
O103 O 0.68329 0.24006 0.57013 0.0
In104 In 0.3413 0.25357 0.53122 0.0
O105 O 0.32709 0.26732 0.46615 0.0
O106 O 0.33108 0.24248 0.45247 0.0
C107 C 0.36144 0.27752 0.56169 0.0
C108 C 0.31583 0.25329 0.59861 0.0
C109 C 0.36131 0.22847 0.5517 0.0
O110 O 0.36084 0.27252 0.51304 0.0
O111 O 0.35183 0.2706 0.59388 0.0
O112 O 0.34777 0.23014 0.5742 0.0
O113 O 0.36465 0.23917 0.51681 0.0
C114 C 0.32414 0.2552 0.43693 0.0
O115 O 0.32121 0.24066 0.57643 0.0
O116 O 0.32344 0.26604 0.58736 0.0
In117 In 0.15846 0.74867 0.03675 0.0
O118 O 0.16946 0.74119 0.95372 0.0
O119 O 0.17608 0.76374 0.98729 0.0
C120 C 0.13884 0.72278 0.04822 0.0
C121 C 0.18213 0.7458 0.11021 0.0
C122 C 0.1376 0.77224 0.06583 0.0
O123 O 0.13664 0.73307 0.01092 0.0
O124 O 0.15114 0.72525 0.07703 0.0
O125 O 0.14585 0.76422 0.09928 0.0
O126 O 0.13985 0.7685 0.01648 0.0
C127 C 0.1783 0.75356 0.95008 0.0
O128 O 0.17433 0.75874 0.10351 0.0
O129 O 0.17791 0.73424 0.07994 0.0
In130 In 0.15834 0.24547 0.04108 0.0
O131 O 0.16941 0.25802 0.11603 0.0
O132 O 0.17382 0.23308 0.10567 0.0
C133 C 0.13787 0.26817 0.00323 0.0
C134 C 0.1821 0.24762 0.96689 0.0
C135 C 0.1376 0.22038 0.0407 0.0
O136 O 0.1422 0.26777 0.05266 0.0
O137 O 0.1439 0.25728 0.97371 0.0
O138 O 0.15138 0.21982 0.01917 0.0
O139 O 0.13453 0.23335 0.06575 0.0
C140 C 0.17682 0.24566 0.13255 0.0
O141 O 0.17387 0.23499 0.97355 0.0
O142 O 0.17823 0.25924 0.99726 0.0
In143 In 0.34263 0.75143 0.53557 0.0
O144 O 0.33188 0.74389 0.61884 0.0
O145 O 0.32521 0.76651 0.58571 0.0
C146 C 0.36208 0.72544 0.52539 0.0
C147 C 0.31813 0.74815 0.46549 0.0
C148 C 0.36348 0.77477 0.50394 0.0
O149 O 0.36375 0.73533 0.56426 0.0
O150 O 0.35044 0.72845 0.49409 0.0
O151 O 0.35553 0.76617 0.47132 0.0
O152 O 0.36092 0.77174 0.55367 0.0
C153 C 0.32302 0.75625 0.62273 0.0
O154 O 0.32535 0.7614 0.47255 0.0
O155 O 0.32344 0.73649 0.49328 0.0
In156 In 0.4978 0.0949 0.79945 0.0
O157 O 0.50745 0.08471 0.8804 0.0
O158 O 0.48302 0.0802 0.86004 0.0
C159 C 0.52416 0.11222 0.77156 0.0
C160 C 0.50027 0.07054 0.72789 0.0
C161 C 0.47338 0.11635 0.78762 0.0
O162 O 0.51898 0.11187 0.82006 0.0
O163 O 0.51626 0.1037 0.73852 0.0
O164 O 0.47205 0.10167 0.77506 0.0
O165 O 0.48672 0.12009 0.80887 0.0
C166 C 0.49452 0.07743 0.89229 0.0
O167 O 0.49209 0.08304 0.71795 0.0
O168 O 0.5073 0.07045 0.77336 0.0
In169 In 0.99994 0.90995 0.29474 0.0
O170 O 0.98751 0.92129 0.36892 0.0
O171 O 0.01305 0.92169 0.36629 0.0
C172 C 0.97514 0.88994 0.27167 0.0
C173 C 1.0002 0.93702 0.23468 0.0
C174 C 0.02397 0.88993 0.26363 0.0
O175 O 0.98283 0.88897 0.31608 0.0
O176 O 0.97968 0.90118 0.24072 0.0
O177 O 0.01701 0.8996 0.23181 0.0
O178 O 0.01904 0.89046 0.31234 0.0
C179 C 1.00042 0.92625 0.3904 0.0
O180 O 0.01296 0.93033 0.25125 0.0
O181 O 0.98732 0.9299 0.2477 0.0
In182 In 0.50365 0.91188 0.29264 0.0
O183 O 0.51172 0.92341 0.21187 0.0
O184 O 0.4878 0.92774 0.23869 0.0
C185 C 0.52969 0.89254 0.30934 0.0
C186 C 0.50717 0.93624 0.36347 0.0
C187 C 0.47799 0.89264 0.31384 0.0
O188 O 0.52095 0.89121 0.26746 0.0
O189 O 0.52561 0.9038 0.34063 0.0
O190 O 0.4828 0.90359 0.34539 0.0
O191 O 0.48585 0.89155 0.2699 0.0
C192 C 0.49863 0.93089 0.20421 0.0
O193 O 0.49954 0.92352 0.37513 0.0
O194 O 0.51329 0.93655 0.31646 0.0
In195 In 0.00063 0.09176 0.78113 0.0
O196 O 0.01318 0.07601 0.84415 0.0
O197 O 0.98853 0.07122 0.82719 0.0
C198 C 0.02542 0.11276 0.7897 0.0
C199 C 0.99916 0.07455 0.6868 0.0
C200 C 0.97701 0.11131 0.81807 0.0
O201 O 0.02649 0.09811 0.80314 0.0
O202 O 0.0121 0.11667 0.76845 0.0
O203 O 0.97989 0.10972 0.76772 0.0
O204 O 0.98593 0.10303 0.84889 0.0
C205 C 0.00095 0.06746 0.8539 0.0
O206 O 0.98685 0.07873 0.71326 0.0
O207 O 0.01216 0.0802 0.70528 0.0
H208 H 0.14205 0.69991 0.12655 0.0
H209 H 0.12181 0.68092 0.1587 0.0
H210 H 0.0889 0.69732 0.03433 0.0
H211 H 0.10915 0.7168 0.00259 0.0
H212 H 0.07408 0.69608 0.12942 0.0
H213 H 0.10675 0.65945 0.02892 0.0
H214 H 0.13178 0.64612 0.99873 0.0
H215 H 0.14016 0.6289 0.16116 0.0
H216 H 0.11528 0.64232 0.19254 0.0
H217 H 0.01835 0.63152 0.17015 0.0
H218 H 0.03858 0.64979 0.1323 0.0
H219 H 0.06913 0.64146 0.27156 0.0
H220 H 0.04871 0.62325 0.31035 0.0
H221 H 0.0847 0.63819 0.16649 0.0
H222 H 0.05163 0.6757 0.26557 0.0
H223 H 0.02605 0.68858 0.29266 0.0
H224 H 0.01787 0.70347 0.12752 0.0
H225 H 0.0433 0.69046 0.09927 0.0
C226 C 0.1306 0.69934 0.10539 0.0
C227 C 0.12721 0.70985 0.06192 0.0
C228 C 0.11903 0.6884 0.12375 0.0
C229 C 0.10385 0.68754 0.0987 0.0
C230 C 0.10054 0.69774 0.05428 0.0
C231 C 0.11215 0.70878 0.03593 0.0
C232 C 0.09122 0.67666 0.12124 0.0
C233 C 0.07633 0.68336 0.13657 0.0
C234 C 0.09423 0.66013 0.13185 0.0
C235 C 0.10921 0.65202 0.11318 0.0
C236 C 0.11399 0.65293 0.05831 0.0
C237 C 0.12815 0.64534 0.04096 0.0
C238 C 0.13757 0.6367 0.07803 0.0
C239 C 0.13285 0.63561 0.13251 0.0
C240 C 0.11871 0.64319 0.15008 0.0
C241 C 0.02932 0.63366 0.19298 0.0
C242 C 0.03196 0.62597 0.24324 0.0
C243 C 0.04085 0.64412 0.17131 0.0
C244 C 0.05532 0.64699 0.19916 0.0
C245 C 0.05801 0.63938 0.24949 0.0
C246 C 0.04633 0.62907 0.2717 0.0
C247 C 0.06772 0.65766 0.17477 0.0
C248 C 0.08252 0.65091 0.15909 0.0
C249 C 0.06456 0.67408 0.16331 0.0
C250 C 0.04929 0.68196 0.18021 0.0
C251 C 0.04431 0.68159 0.23493 0.0
C252 C 0.02985 0.68894 0.25052 0.0
C253 C 0.02032 0.6968 0.21181 0.0
C254 C 0.02525 0.69736 0.15744 0.0
C255 C 0.03969 0.69001 0.14163 0.0
H256 H 0.00913 0.70249 0.22396 0.0
H257 H 0.14852 0.63083 0.06451 0.0
H258 H 0.54079 0.86639 0.25144 0.0
H259 H 0.56077 0.84641 0.28131 0.0
H260 H 0.5673 0.87263 0.43146 0.0
H261 H 0.54788 0.89276 0.40123 0.0
H262 H 0.59511 0.86232 0.39942 0.0
H263 H 0.54292 0.83817 0.42204 0.0
H264 H 0.516 0.82863 0.39436 0.0
H265 H 0.53754 0.79668 0.27752 0.0
H266 H 0.56464 0.80617 0.30422 0.0
H267 H 0.62662 0.79818 0.56514 0.0
H268 H 0.60904 0.81926 0.52718 0.0
H269 H 0.61078 0.79598 0.37029 0.0
H270 H 0.62839 0.7751 0.40756 0.0
H271 H 0.5795 0.80455 0.40304 0.0
H272 H 0.63228 0.82845 0.38774 0.0
H273 H 0.65867 0.8376 0.42224 0.0
H274 H 0.63504 0.86996 0.53302 0.0
H275 H 0.60848 0.86082 0.4997 0.0
C276 C 0.54666 0.86797 0.29047 0.0
C277 C 0.54271 0.88111 0.32404 0.0
C278 C 0.55799 0.85649 0.30772 0.0
C279 C 0.56537 0.85784 0.35914 0.0
C280 C 0.5618 0.87127 0.39171 0.0
C281 C 0.55064 0.88278 0.37436 0.0
C282 C 0.57645 0.84512 0.38012 0.0
C283 C 0.5916 0.84972 0.40062 0.0
C284 C 0.57204 0.82861 0.38125 0.0
C285 C 0.55578 0.82301 0.36468 0.0
C286 C 0.54191 0.82921 0.3901 0.0
C287 C 0.52662 0.8238 0.37465 0.0
C288 C 0.52505 0.81209 0.33405 0.0
C289 C 0.53878 0.80577 0.30888 0.0
C290 C 0.5541 0.81115 0.32418 0.0
C291 C 0.62325 0.7976 0.52259 0.0
C292 C 0.6289 0.78502 0.48931 0.0
C293 C 0.61327 0.80964 0.50092 0.0
C294 C 0.60869 0.8092 0.44584 0.0
C295 C 0.61418 0.79655 0.41284 0.0
C296 C 0.62428 0.78466 0.43422 0.0
C297 C 0.59803 0.8218 0.42243 0.0
C298 C 0.58298 0.81716 0.40154 0.0
C299 C 0.60244 0.83828 0.4217 0.0
C300 C 0.61839 0.84383 0.44161 0.0
C301 C 0.6327 0.83742 0.41979 0.0
C302 C 0.64769 0.84262 0.43906 0.0
C303 C 0.64853 0.85432 0.4799 0.0
C304 C 0.63437 0.86088 0.50145 0.0
C305 C 0.61935 0.8557 0.48235 0.0
H306 H 0.66014 0.85834 0.49477 0.0
H307 H 0.51322 0.80787 0.32225 0.0
H308 H 0.47669 0.37715 0.6645 0.0
H309 H 0.45609 0.35882 0.63026 0.0
H310 H 0.43425 0.35703 0.78963 0.0
H311 H 0.45532 0.37507 0.82474 0.0
H312 H 0.4352 0.3279 0.74695 0.0
H313 H 0.41787 0.37971 0.68206 0.0
H314 H 0.42094 0.40589 0.63548 0.0
H315 H 0.43141 0.38153 0.48535 0.0
H316 H 0.42861 0.35519 0.5312 0.0
H317 H 0.36263 0.29135 0.66199 0.0
H318 H 0.38221 0.31084 0.69616 0.0
H319 H 0.40591 0.31128 0.53981 0.0
H320 H 0.38605 0.29191 0.50487 0.0
H321 H 0.4036 0.34133 0.58142 0.0
H322 H 0.42136 0.28965 0.64647 0.0
H323 H 0.41844 0.26342 0.69285 0.0
H324 H 0.40719 0.28763 0.84265 0.0
H325 H 0.40983 0.31401 0.79696 0.0
C326 C 0.46749 0.3729 0.69233 0.0
C327 C 0.46756 0.37763 0.74728 0.0
C328 C 0.45565 0.36247 0.67257 0.0
C329 C 0.44339 0.35678 0.70701 0.0
C330 C 0.44353 0.36133 0.76218 0.0
C331 C 0.45554 0.37166 0.78219 0.0
C332 C 0.43065 0.34586 0.68545 0.0
C333 C 0.42811 0.33097 0.7113 0.0
C334 C 0.42166 0.34964 0.63801 0.0
C335 C 0.42315 0.36548 0.61019 0.0
C336 C 0.42092 0.37993 0.63919 0.0
C337 C 0.4226 0.3948 0.6129 0.0
C338 C 0.4264 0.39537 0.55752 0.0
C339 C 0.42848 0.38107 0.52825 0.0
C340 C 0.42682 0.36617 0.55435 0.0
C341 C 0.37196 0.29564 0.63471 0.0
C342 C 0.37287 0.29002 0.58079 0.0
C343 C 0.38319 0.30673 0.65443 0.0
C344 C 0.39571 0.31231 0.62089 0.0
C345 C 0.39639 0.30709 0.5665 0.0
C346 C 0.38506 0.29601 0.5466 0.0
C347 C 0.40817 0.32342 0.64299 0.0
C348 C 0.41066 0.33832 0.6172 0.0
C349 C 0.41711 0.31966 0.69049 0.0
C350 C 0.41565 0.3038 0.71816 0.0
C351 C 0.41815 0.28938 0.68921 0.0
C352 C 0.41656 0.27448 0.71539 0.0
C353 C 0.41259 0.27386 0.77063 0.0
C354 C 0.41025 0.28813 0.79985 0.0
C355 C 0.4118 0.30306 0.77384 0.0
H356 H 0.41136 0.26232 0.79082 0.0
H357 H 0.42772 0.4069 0.53725 0.0
H358 H 0.88369 0.20892 0.08519 0.0
H359 H 0.90237 0.18795 0.05364 0.0
H360 H 0.88352 0.19266 0.89065 0.0
H361 H 0.86464 0.21319 0.9221 0.0
H362 H 0.8884 0.16205 0.91237 0.0
H363 H 0.91883 0.2109 0.93118 0.0
H364 H 0.92916 0.23468 0.97992 0.0
H365 H 0.95354 0.20393 0.09407 0.0
H366 H 0.94296 0.1799 0.04671 0.0
H367 H 0.9543 0.12865 0.76171 0.0
H368 H 0.93392 0.14698 0.79949 0.0
H369 H 0.95127 0.13703 0.9616 0.0
H370 H 0.97157 0.11876 0.92431 0.0
H371 H 0.94708 0.16946 0.94319 0.0
H372 H 0.91693 0.12041 0.92018 0.0
H373 H 0.90634 0.09706 0.86932 0.0
H374 H 0.88191 0.12894 0.75887 0.0
H375 H 0.89255 0.1525 0.80865 0.0
C376 C 0.88347 0.20537 0.04276 0.0
C377 C 0.87277 0.21276 0.00608 0.0
C378 C 0.89418 0.19344 0.0247 0.0
C379 C 0.89451 0.18887 0.96954 0.0
C380 C 0.88351 0.19596 0.93334 0.0
C381 C 0.87276 0.20776 0.95138 0.0
C382 C 0.90661 0.17714 0.94879 0.0
C383 C 0.90124 0.16376 0.91871 0.0
C384 C 0.92337 0.1792 0.95766 0.0
C385 C 0.92995 0.19361 0.98577 0.0
C386 C 0.92629 0.20921 0.96691 0.0
C387 C 0.93221 0.22274 0.99429 0.0
C388 C 0.94201 0.22085 0.04011 0.0
C389 C 0.94593 0.20539 0.05862 0.0
C390 C 0.93996 0.1918 0.03156 0.0
C391 C 0.95372 0.13035 0.80538 0.0
C392 C 0.9645 0.12225 0.84004 0.0
C393 C 0.94206 0.14077 0.82692 0.0
C394 C 0.94103 0.14328 0.88341 0.0
C395 C 0.95185 0.13527 0.91794 0.0
C396 C 0.96341 0.12479 0.89653 0.0
C397 C 0.92885 0.15445 0.90667 0.0
C398 C 0.93423 0.16773 0.93713 0.0
C399 C 0.91213 0.15237 0.89772 0.0
C400 C 0.90567 0.13822 0.86783 0.0
C401 C 0.90941 0.12245 0.88478 0.0
C402 C 0.90338 0.10917 0.85619 0.0
C403 C 0.89349 0.11151 0.8108 0.0
C404 C 0.88959 0.12714 0.79399 0.0
C405 C 0.8956 0.14046 0.8224 0.0
H406 H 0.88883 0.10122 0.78873 0.0
H407 H 0.94658 0.23135 0.06125 0.0
H408 H 0.03518 0.35965 0.74959 0.0
H409 H 0.05459 0.33898 0.77819 0.0
H410 H 0.07237 0.37087 0.90338 0.0
H411 H 0.05338 0.39159 0.87427 0.0
H412 H 0.09663 0.355 0.86054 0.0
H413 H 0.04436 0.3412 0.93057 0.0
H414 H 0.01529 0.33509 0.92526 0.0
H415 H 0.02525 0.29425 0.82312 0.0
H416 H 0.05438 0.30028 0.82715 0.0
H417 H 0.1295 0.29737 0.04707 0.0
H418 H 0.11181 0.31792 0.00663 0.0
H419 H 0.10317 0.28681 0.86897 0.0
H420 H 0.12102 0.26642 0.90852 0.0
H421 H 0.07473 0.30159 0.91423 0.0
H422 H 0.12778 0.31551 0.84963 0.0
H423 H 0.15666 0.32191 0.85983 0.0
H424 H 0.14477 0.36297 0.95856 0.0
H425 H 0.1158 0.35666 0.9496 0.0
C426 C 0.04343 0.36233 0.78256 0.0
C427 C 0.04268 0.3772 0.80988 0.0
C428 C 0.05444 0.35048 0.79914 0.0
C429 C 0.06475 0.35326 0.84364 0.0
C430 C 0.06453 0.36841 0.86909 0.0
C431 C 0.05362 0.38024 0.85243 0.0
C432 C 0.07527 0.34025 0.86562 0.0
C433 C 0.09179 0.34338 0.87264 0.0
C434 C 0.06903 0.32499 0.88097 0.0
C435 C 0.05153 0.3213 0.87864 0.0
C436 C 0.04034 0.331 0.90662 0.0
C437 C 0.02386 0.32754 0.9039 0.0
C438 C 0.01842 0.31432 0.87374 0.0
C439 C 0.02947 0.30451 0.84636 0.0
C440 C 0.04597 0.30793 0.84886 0.0
C441 C 0.12377 0.29492 0.00832 0.0
C442 C 0.12668 0.28035 0.98081 0.0
C443 C 0.11373 0.30665 0.98522 0.0
C444 C 0.10627 0.30389 0.93469 0.0
C445 C 0.10883 0.28918 0.90793 0.0
C446 C 0.11907 0.27758 0.9305 0.0
C447 C 0.09598 0.31643 0.90929 0.0
C448 C 0.07953 0.3132 0.90175 0.0
C449 C 0.10223 0.33165 0.89415 0.0
C450 C 0.11963 0.33551 0.89941 0.0
C451 C 0.13133 0.32581 0.87393 0.0
C452 C 0.14771 0.32944 0.8794 0.0
C453 C 0.15255 0.34281 0.90995 0.0
C454 C 0.141 0.3526 0.93497 0.0
C455 C 0.1246 0.34901 0.92968 0.0
H456 H 0.16524 0.3456 0.91413 0.0
H457 H 0.00566 0.31166 0.8717 0.0
H458 H 0.9631 0.86407 0.32867 0.0
H459 H 0.94352 0.84402 0.29645 0.0
H460 H 0.93981 0.86927 0.14328 0.0
H461 H 0.95891 0.88944 0.17564 0.0
H462 H 0.91117 0.86002 0.17358 0.0
H463 H 0.96311 0.83434 0.15937 0.0
H464 H 0.98935 0.82425 0.19207 0.0
H465 H 0.96526 0.79356 0.30717 0.0
H466 H 0.93886 0.80361 0.27543 0.0
H467 H 0.87716 0.79666 0.0124 0.0
H468 H 0.89594 0.81695 0.04852 0.0
H469 H 0.89423 0.794 0.20602 0.0
H470 H 0.87552 0.77385 0.17052 0.0
H471 H 0.92524 0.80184 0.17505 0.0
H472 H 0.87322 0.82722 0.1865 0.0
H473 H 0.84712 0.83687 0.15102 0.0
H474 H 0.87173 0.86796 0.03851 0.0
H475 H 0.898 0.85831 0.07281 0.0
C476 C 0.95798 0.86539 0.28836 0.0
C477 C 0.96258 0.8783 0.25467 0.0
C478 C 0.94688 0.85388 0.26981 0.0
C479 C 0.94036 0.85498 0.21704 0.0
C480 C 0.94466 0.86812 0.18406 0.0
C481 C 0.95563 0.87964 0.20264 0.0
C482 C 0.92922 0.84244 0.19548 0.0
C483 C 0.91436 0.84732 0.17339 0.0
C484 C 0.93318 0.82581 0.196 0.0
C485 C 0.94903 0.81986 0.21544 0.0
C486 C 0.96342 0.82555 0.19197 0.0
C487 C 0.97832 0.81981 0.21029 0.0
C488 C 0.97898 0.8083 0.25183 0.0
C489 C 0.96473 0.80249 0.27507 0.0
C490 C 0.9498 0.80819 0.2569 0.0
C491 C 0.88086 0.79594 0.05463 0.0
C492 C 0.87483 0.78373 0.08867 0.0
C493 C 0.89152 0.80755 0.07525 0.0
C494 C 0.89638 0.80703 0.13008 0.0
C495 C 0.89064 0.79463 0.16366 0.0
C496 C 0.87989 0.78316 0.14329 0.0
C497 C 0.90733 0.81947 0.15293 0.0
C498 C 0.92211 0.81455 0.1753 0.0
C499 C 0.90334 0.83606 0.1524 0.0
C500 C 0.88757 0.84191 0.13182 0.0
C501 C 0.87307 0.83601 0.15386 0.0
C502 C 0.85824 0.8415 0.13403 0.0
C503 C 0.85777 0.85299 0.09243 0.0
C504 C 0.87212 0.85904 0.07068 0.0
C505 C 0.88698 0.85357 0.09032 0.0
H506 H 0.84628 0.85723 0.07714 0.0
H507 H 0.99051 0.80383 0.26593 0.0
H508 H 0.35978 0.70343 0.44414 0.0
H509 H 0.37965 0.6835 0.4164 0.0
H510 H 0.41019 0.69726 0.55085 0.0
H511 H 0.39033 0.71773 0.57824 0.0
H512 H 0.42731 0.69538 0.46037 0.0
H513 H 0.39009 0.66054 0.54887 0.0
H514 H 0.36364 0.64873 0.57157 0.0
H515 H 0.35794 0.63289 0.40628 0.0
H516 H 0.38427 0.6448 0.38236 0.0
H517 H 0.47989 0.62812 0.42267 0.0
H518 H 0.45994 0.64679 0.45982 0.0
H519 H 0.43133 0.64188 0.31415 0.0
H520 H 0.45147 0.62323 0.27614 0.0
H521 H 0.41377 0.63862 0.41517 0.0
H522 H 0.45127 0.67477 0.32818 0.0
H523 H 0.47821 0.68602 0.30896 0.0
H524 H 0.4838 0.69862 0.47745 0.0
H525 H 0.45697 0.68721 0.49784 0.0
C526 C 0.37062 0.70211 0.46837 0.0
C527 C 0.37348 0.71215 0.51349 0.0
C528 C 0.38197 0.69062 0.45254 0.0
C529 C 0.39637 0.68871 0.48183 0.0
C530 C 0.39914 0.69849 0.52769 0.0
C531 C 0.38776 0.7101 0.5435 0.0
C532 C 0.40879 0.67712 0.46228 0.0
C533 C 0.4244 0.68289 0.4515 0.0
C534 C 0.40496 0.66089 0.44956 0.0
C535 C 0.38911 0.65369 0.46373 0.0
C536 C 0.38314 0.65465 0.51724 0.0
C537 C 0.36818 0.64792 0.53035 0.0
C538 C 0.3591 0.6401 0.49036 0.0
C539 C 0.36498 0.63896 0.4372 0.0
C540 C 0.37994 0.64568 0.42386 0.0
C541 C 0.46938 0.63104 0.39838 0.0
C542 C 0.46723 0.62423 0.34644 0.0
C543 C 0.45802 0.64174 0.41966 0.0
C544 C 0.44421 0.64574 0.38967 0.0
C545 C 0.44194 0.63891 0.33788 0.0
C546 C 0.45346 0.62834 0.31616 0.0
C547 C 0.43211 0.65696 0.41292 0.0
C548 C 0.41661 0.6511 0.4244 0.0
C549 C 0.43609 0.67303 0.42687 0.0
C550 C 0.45218 0.67998 0.41464 0.0
C551 C 0.4583 0.6798 0.36123 0.0
C552 C 0.47354 0.68624 0.3501 0.0
C553 C 0.48273 0.69299 0.39198 0.0
C554 C 0.47668 0.69336 0.44506 0.0
C555 C 0.46145 0.68693 0.45642 0.0
H556 H 0.49452 0.69796 0.38328 0.0
H557 H 0.34751 0.63489 0.5006 0.0
H558 H 0.62349 0.20429 0.51082 0.0
H559 H 0.60482 0.18368 0.54485 0.0
H560 H 0.61539 0.19799 0.70997 0.0
H561 H 0.63437 0.21812 0.67635 0.0
H562 H 0.61354 0.16676 0.70604 0.0
H563 H 0.58043 0.21027 0.64136 0.0
H564 H 0.57037 0.23006 0.57451 0.0
H565 H 0.55578 0.19156 0.46843 0.0
H566 H 0.56596 0.17153 0.53437 0.0
H567 H 0.54288 0.13286 0.83227 0.0
H568 H 0.56405 0.15106 0.79869 0.0
H569 H 0.55696 0.13299 0.63578 0.0
H570 H 0.53592 0.11492 0.66878 0.0
H571 H 0.55715 0.16576 0.63864 0.0
H572 H 0.58986 0.12227 0.70756 0.0
H573 H 0.59948 0.1031 0.77714 0.0
H574 H 0.61414 0.14254 0.87906 0.0
H575 H 0.6044 0.16196 0.81036 0.0
C576 C 0.62188 0.20294 0.55434 0.0
C577 C 0.63034 0.21286 0.59088 0.0
C578 C 0.61115 0.19123 0.57379 0.0
C579 C 0.60848 0.18943 0.63005 0.0
C580 C 0.61721 0.19911 0.66646 0.0
C581 C 0.62804 0.21067 0.64711 0.0
C582 C 0.59641 0.17771 0.65127 0.0
C583 C 0.60116 0.16667 0.69168 0.0
C584 C 0.5803 0.1774 0.63216 0.0
C585 C 0.57411 0.18941 0.59255 0.0
C586 C 0.57518 0.20603 0.6036 0.0
C587 C 0.56944 0.21729 0.5659 0.0
C588 C 0.56248 0.21207 0.51718 0.0
C589 C 0.5612 0.19558 0.50614 0.0
C590 C 0.56694 0.18427 0.54368 0.0
C591 C 0.54597 0.13268 0.78943 0.0
C592 C 0.53773 0.12247 0.75319 0.0
C593 C 0.55806 0.14305 0.7703 0.0
C594 C 0.5621 0.14336 0.71469 0.0
C595 C 0.55402 0.133 0.67876 0.0
C596 C 0.54202 0.12263 0.69779 0.0
C597 C 0.5743 0.15483 0.69323 0.0
C598 C 0.56954 0.16584 0.65286 0.0
C599 C 0.59034 0.15522 0.71279 0.0
C600 C 0.59625 0.14356 0.75405 0.0
C601 C 0.59501 0.12685 0.745 0.0
C602 C 0.60051 0.11594 0.78425 0.0
C603 C 0.60738 0.1216 0.83256 0.0
C604 C 0.6088 0.13818 0.84166 0.0
C605 C 0.6033 0.14914 0.80256 0.0
H606 H 0.61164 0.11313 0.86289 0.0
H607 H 0.55804 0.22081 0.48805 0.0
H608 H 0.95422 0.37548 0.77353 0.0
H609 H 0.93376 0.3573 0.81212 0.0
H610 H 0.96086 0.35458 0.96171 0.0
H611 H 0.98116 0.37272 0.92381 0.0
H612 H 0.95028 0.32469 0.92602 0.0
H613 H 0.92877 0.37783 0.95741 0.0
H614 H 0.91981 0.40507 0.93068 0.0
H615 H 0.88414 0.3845 0.82462 0.0
H616 H 0.89305 0.35711 0.85015 0.0
H617 H 0.89088 0.28545 0.08705 0.0
H618 H 0.911 0.30495 0.0549 0.0
H619 H 0.88091 0.3159 0.91629 0.0
H620 H 0.8606 0.29713 0.94945 0.0
H621 H 0.89344 0.34215 0.94829 0.0
H622 H 0.91522 0.28922 0.9123 0.0
H623 H 0.92485 0.26181 0.93379 0.0
H624 H 0.96014 0.28143 0.04329 0.0
H625 H 0.95061 0.30897 0.02279 0.0
C626 C 0.95581 0.37093 0.81451 0.0
C627 C 0.96924 0.37556 0.84571 0.0
C628 C 0.94411 0.36062 0.83658 0.0
C629 C 0.94575 0.35469 0.88995 0.0
C630 C 0.95935 0.35902 0.92053 0.0
C631 C 0.97091 0.36943 0.89882 0.0
C632 C 0.93332 0.34403 0.91437 0.0
C633 C 0.93787 0.32854 0.93147 0.0
C634 C 0.9171 0.34897 0.92052 0.0
C635 C 0.91169 0.36542 0.90526 0.0
C636 C 0.91911 0.37911 0.92803 0.0
C637 C 0.91402 0.39458 0.91317 0.0
C638 C 0.90145 0.39651 0.87586 0.0
C639 C 0.8939 0.38298 0.85345 0.0
C640 C 0.89896 0.36748 0.86813 0.0
C641 C 0.8885 0.2922 0.05015 0.0
C642 C 0.87417 0.28973 0.02077 0.0
C643 C 0.90007 0.30323 0.03146 0.0
C644 C 0.89768 0.3117 0.98241 0.0
C645 C 0.88312 0.30956 0.95412 0.0
C646 C 0.87149 0.29877 0.97317 0.0
C647 C 0.9103 0.32261 0.95963 0.0
C648 C 0.90582 0.33821 0.94291 0.0
C649 C 0.92658 0.3177 0.95331 0.0
C650 C 0.93209 0.30113 0.96645 0.0
C651 C 0.92493 0.28768 0.94134 0.0
C652 C 0.9304 0.27212 0.95328 0.0
C653 C 0.94308 0.26988 0.99001 0.0
C654 C 0.95031 0.28319 0.01492 0.0
C655 C 0.94489 0.29877 0.00313 0.0
H656 H 0.94738 0.25785 0.99903 0.0
H657 H 0.89752 0.4085 0.86441 0.0
H658 H 0.47842 0.148 0.76435 0.0
H659 H 0.45933 0.16698 0.72419 0.0
H660 H 0.42165 0.13114 0.73554 0.0
H661 H 0.44113 0.11177 0.77211 0.0
H662 H 0.41914 0.14362 0.64415 0.0
H663 H 0.42476 0.16744 0.82005 0.0
H664 H 0.43884 0.1787 0.8999 0.0
H665 H 0.4594 0.21591 0.80002 0.0
H666 H 0.44561 0.20476 0.7194 0.0
H667 H 0.35457 0.20063 0.60583 0.0
H668 H 0.37379 0.18134 0.64451 0.0
H669 H 0.4133 0.20907 0.57914 0.0
H670 H 0.39407 0.22828 0.53918 0.0
H671 H 0.41455 0.20119 0.69689 0.0
H672 H 0.407 0.17606 0.52103 0.0
H673 H 0.39067 0.16469 0.44641 0.0
H674 H 0.37075 0.12954 0.55584 0.0
H675 H 0.38679 0.14086 0.63133 0.0
C676 C 0.46599 0.14429 0.75913 0.0
C677 C 0.46121 0.12846 0.77162 0.0
C678 C 0.45502 0.15518 0.73631 0.0
C679 C 0.43887 0.15067 0.72736 0.0
C680 C 0.434 0.13497 0.74172 0.0
C681 C 0.4451 0.12393 0.76304 0.0
C682 C 0.42734 0.16194 0.70016 0.0
C683 C 0.418 0.15613 0.65653 0.0
C684 C 0.42595 0.17842 0.71516 0.0
C685 C 0.43427 0.18516 0.76358 0.0
C686 C 0.43238 0.17795 0.81503 0.0
C687 C 0.44029 0.18433 0.86045 0.0
C688 C 0.45004 0.19799 0.85501 0.0
C689 C 0.45186 0.20532 0.80416 0.0
C690 C 0.44399 0.19899 0.7586 0.0
C691 C 0.36734 0.20248 0.59895 0.0
C692 C 0.37284 0.21591 0.56934 0.0
C693 C 0.37829 0.19146 0.62111 0.0
C694 C 0.39494 0.19382 0.61474 0.0
C695 C 0.40048 0.20708 0.58446 0.0
C696 C 0.3895 0.21795 0.56138 0.0
C697 C 0.40651 0.18276 0.64163 0.0
C698 C 0.41578 0.18864 0.68502 0.0
C699 C 0.40755 0.16628 0.62739 0.0
C700 C 0.39798 0.15941 0.58193 0.0
C701 C 0.39903 0.166 0.52929 0.0
C702 C 0.38985 0.15955 0.48681 0.0
C703 C 0.37965 0.14643 0.4964 0.0
C704 C 0.37864 0.13971 0.54847 0.0
C705 C 0.38779 0.14613 0.59111 0.0
H706 H 0.37255 0.14145 0.46346 0.0
H707 H 0.45616 0.2029 0.89022 0.0
H708 H 0.52565 0.64378 0.30172 0.0
H709 H 0.5445 0.66268 0.34366 0.0
H710 H 0.57736 0.62346 0.37684 0.0
H711 H 0.55802 0.60442 0.33776 0.0
H712 H 0.5754 0.64002 0.46208 0.0
H713 H 0.58422 0.6547 0.27652 0.0
H714 H 0.57704 0.66293 0.18313 0.0
H715 H 0.55596 0.70663 0.24438 0.0
H716 H 0.56283 0.69856 0.33825 0.0
H717 H 0.64378 0.6916 0.516 0.0
H718 H 0.62458 0.67221 0.4776 0.0
H719 H 0.58624 0.70695 0.4954 0.0
H720 H 0.60531 0.72629 0.5351 0.0
H721 H 0.59115 0.69312 0.38565 0.0
H722 H 0.58399 0.67722 0.57312 0.0
H723 H 0.59331 0.6684 0.66367 0.0
H724 H 0.61428 0.62591 0.59301 0.0
H725 H 0.60527 0.6346 0.50186 0.0
C726 C 0.53706 0.63926 0.3169 0.0
C727 C 0.54043 0.62266 0.31626 0.0
C728 C 0.54788 0.65009 0.34086 0.0
C729 C 0.56252 0.6446 0.36317 0.0
C730 C 0.56616 0.62805 0.36027 0.0
C731 C 0.55516 0.61718 0.33751 0.0
C732 C 0.57352 0.65586 0.39258 0.0
C733 C 0.57902 0.65151 0.44475 0.0
C734 C 0.57806 0.67106 0.37088 0.0
C735 C 0.57391 0.67595 0.31448 0.0
C736 C 0.57795 0.66601 0.27012 0.0
C737 C 0.57395 0.67065 0.21709 0.0
C738 C 0.56601 0.68527 0.20784 0.0
C739 C 0.56209 0.6953 0.25161 0.0
C740 C 0.56605 0.6907 0.30473 0.0
C741 C 0.63118 0.69496 0.51294 0.0
C742 C 0.62602 0.71042 0.52869 0.0
C743 C 0.62026 0.6839 0.49089 0.0
C744 C 0.60404 0.6882 0.48346 0.0
C745 C 0.59873 0.70344 0.5008 0.0
C746 C 0.6096 0.7144 0.52385 0.0
C747 C 0.59292 0.67716 0.45447 0.0
C748 C 0.58746 0.68159 0.40253 0.0
C749 C 0.58871 0.66191 0.47579 0.0
C750 C 0.59409 0.65665 0.53059 0.0
C751 C 0.59072 0.66607 0.57681 0.0
C752 C 0.59592 0.66108 0.62827 0.0
C753 C 0.60442 0.64662 0.63408 0.0
C754 C 0.60771 0.63711 0.58844 0.0
C755 C 0.60254 0.64206 0.53688 0.0
H756 H 0.60843 0.64278 0.67395 0.0
H757 H 0.56293 0.68885 0.16675 0.0
H758 H 0.11828 0.79187 0.00343 0.0
H759 H 0.09916 0.81237 0.03586 0.0
H760 H 0.1121 0.80141 0.2019 0.0
H761 H 0.13099 0.78095 0.17002 0.0
H762 H 0.07984 0.8034 0.18989 0.0
H763 H 0.12635 0.83511 0.1392 0.0
H764 H 0.14744 0.84485 0.07648 0.0
H765 H 0.11111 0.86284 0.96763 0.0
H766 H 0.08979 0.85301 0.02941 0.0
H767 H 0.04309 0.86965 0.32397 0.0
H768 H 0.063 0.85025 0.28984 0.0
H769 H 0.05234 0.86476 0.12495 0.0
H770 H 0.03292 0.88443 0.15883 0.0
H771 H 0.0833 0.86087 0.13473 0.0
H772 H 0.0368 0.82985 0.18337 0.0
H773 H 0.01522 0.82017 0.24401 0.0
H774 H 0.05052 0.80023 0.35278 0.0
H775 H 0.07238 0.81016 0.29339 0.0
C776 C 0.11704 0.79388 0.04679 0.0
C777 C 0.12615 0.78482 0.08414 0.0
C778 C 0.10617 0.80561 0.06527 0.0
C779 C 0.10428 0.80849 0.12135 0.0
C780 C 0.11333 0.79939 0.15852 0.0
C781 C 0.12417 0.78773 0.14015 0.0
C782 C 0.0928 0.82084 0.14182 0.0
C783 C 0.0807 0.81601 0.17833 0.0
C784 C 0.09367 0.8372 0.12566 0.0
C785 C 0.10648 0.84318 0.08866 0.0
C786 C 0.12286 0.84104 0.10169 0.0
C787 C 0.13485 0.84659 0.06635 0.0
C788 C 0.13062 0.85442 0.01803 0.0
C789 C 0.11437 0.85675 0.00504 0.0
C790 C 0.10233 0.85121 0.04022 0.0
C791 C 0.04508 0.86873 0.2805 0.0
C792 C 0.03641 0.87851 0.24409 0.0
C793 C 0.05639 0.8576 0.26098 0.0
C794 C 0.05902 0.85585 0.20468 0.0
C795 C 0.05056 0.86585 0.16849 0.0
C796 C 0.03941 0.87708 0.18796 0.0
C797 C 0.07034 0.84347 0.18315 0.0
C798 C 0.0824 0.84827 0.14636 0.0
C799 C 0.06935 0.82703 0.19867 0.0
C800 C 0.05623 0.8209 0.23419 0.0
C801 C 0.03998 0.8235 0.22042 0.0
C802 C 0.02769 0.81796 0.25455 0.0
C803 C 0.03148 0.80958 0.30223 0.0
C804 C 0.04759 0.80674 0.31586 0.0
C805 C 0.05994 0.81233 0.282 0.0
H806 H 0.02193 0.80529 0.32856 0.0
H807 H 0.13992 0.85871 0.99072 0.0
H808 H 0.94378 0.60402 0.23397 0.0
H809 H 0.92439 0.62311 0.19588 0.0
H810 H 0.95046 0.66258 0.26913 0.0
H811 H 0.96976 0.64342 0.30851 0.0
H812 H 0.91877 0.66819 0.2727 0.0
H813 H 0.95679 0.65259 0.13653 0.0
H814 H 0.9725 0.6335 0.08071 0.0
H815 H 0.92871 0.61445 0.01301 0.0
H816 H 0.91272 0.63328 0.06906 0.0
H817 H 0.89044 0.71705 0.02041 0.0
H818 H 0.9096 0.69793 0.06084 0.0
H819 H 0.87214 0.67991 0.16645 0.0
H820 H 0.85306 0.69902 0.12686 0.0
H821 H 0.91161 0.66549 0.07219 0.0
H822 H 0.88768 0.67388 0.29253 0.0
H823 H 0.874 0.69474 0.34732 0.0
H824 H 0.89354 0.73173 0.2442 0.0
H825 H 0.90753 0.71112 0.18934 0.0
C826 C 0.94521 0.61674 0.24287 0.0
C827 C 0.95835 0.62225 0.27393 0.0
C828 C 0.93418 0.62765 0.22075 0.0
C829 C 0.9362 0.64431 0.22851 0.0
C830 C 0.94873 0.64978 0.26231 0.0
C831 C 0.95972 0.63883 0.28491 0.0
C832 C 0.92573 0.65596 0.19903 0.0
C833 C 0.91719 0.66757 0.22891 0.0
C834 C 0.92398 0.65546 0.14163 0.0
C835 C 0.93356 0.64426 0.10732 0.0
C836 C 0.95051 0.64427 0.10998 0.0
C837 C 0.95946 0.6335 0.07828 0.0
C838 C 0.9516 0.62275 0.04341 0.0
C839 C 0.93478 0.62278 0.04007 0.0
C840 C 0.92576 0.63351 0.07175 0.0
C841 C 0.88624 0.70881 0.05158 0.0
C842 C 0.87028 0.70961 0.07073 0.0
C843 C 0.8972 0.69792 0.07471 0.0
C844 C 0.89237 0.68772 0.11741 0.0
C845 C 0.87621 0.68789 0.13431 0.0
C846 C 0.86529 0.69876 0.11139 0.0
C847 C 0.9043 0.67738 0.14606 0.0
C848 C 0.91316 0.66606 0.116 0.0
C849 C 0.90664 0.67841 0.20312 0.0
C850 C 0.89852 0.69093 0.23653 0.0
C851 C 0.88912 0.68647 0.28172 0.0
C852 C 0.8813 0.69825 0.31276 0.0
C853 C 0.88286 0.71455 0.29915 0.0
C854 C 0.8923 0.7191 0.2546 0.0
C855 C 0.90016 0.70737 0.22349 0.0
H856 H 0.87678 0.72364 0.32318 0.0
H857 H 0.95855 0.61441 0.01892 0.0
H858 H 0.05686 0.10709 0.81536 0.0
H859 H 0.0757 0.12574 0.85891 0.0
H860 H 0.04009 0.16365 0.84976 0.0
H861 H 0.0215 0.14519 0.8038 0.0
H862 H 0.06822 0.17638 0.83629 0.0
H863 H 0.04604 0.14036 0.96767 0.0
H864 H 0.03865 0.11408 0.00758 0.0
H865 H 0.08867 0.10085 0.01615 0.0
H866 H 0.09635 0.12697 0.97551 0.0
H867 H 0.10485 0.22373 0.04387 0.0
H868 H 0.08489 0.20523 0.00467 0.0
H869 H 0.12257 0.17091 0.96977 0.0
H870 H 0.14261 0.18944 0.00792 0.0
H871 H 0.09222 0.15718 0.00981 0.0
H872 H 0.11319 0.1944 0.87368 0.0
H873 H 0.11915 0.22178 0.83987 0.0
H874 H 0.06885 0.2339 0.8479 0.0
H875 H 0.06262 0.20665 0.88267 0.0
C876 C 0.0532 0.11951 0.82154 0.0
C877 C 0.0377 0.12468 0.80644 0.0
C878 C 0.06391 0.13012 0.84697 0.0
C879 C 0.05915 0.14599 0.85928 0.0
C880 C 0.04402 0.15144 0.84118 0.0
C881 C 0.03341 0.14089 0.81474 0.0
C882 C 0.06965 0.15659 0.89312 0.0
C883 C 0.07326 0.17221 0.87453 0.0
C884 C 0.07631 0.15125 0.94323 0.0
C885 C 0.07176 0.13557 0.96808 0.0
C886 C 0.05546 0.13181 0.97774 0.0
C887 C 0.05122 0.11694 0.00052 0.0
C888 C 0.06318 0.10579 0.01427 0.0
C889 C 0.07941 0.10949 0.00541 0.0
C890 C 0.08372 0.12433 0.98254 0.0
C891 C 0.10881 0.21206 0.02921 0.0
C892 C 0.12527 0.20801 0.02878 0.0
C893 C 0.09742 0.20156 0.00655 0.0
C894 C 0.10231 0.18681 0.98386 0.0
C895 C 0.11858 0.18226 0.98704 0.0
C896 C 0.12999 0.19284 0.00884 0.0
C897 C 0.09083 0.17674 0.95251 0.0
C898 C 0.08705 0.16128 0.97165 0.0
C899 C 0.08377 0.18233 0.90356 0.0
C900 C 0.08746 0.19855 0.8813 0.0
C901 C 0.10341 0.20294 0.86858 0.0
C902 C 0.10684 0.21843 0.84922 0.0
C903 C 0.09439 0.22959 0.8419 0.0
C904 C 0.07848 0.22525 0.85368 0.0
C905 C 0.075 0.20979 0.87319 0.0
H906 H 0.09708 0.24158 0.827 0.0
H907 H 0.05987 0.09428 0.0319 0.0
H908 H 0.60666 0.2719 0.56651 0.0
H909 H 0.58817 0.29094 0.60959 0.0
H910 H 0.62601 0.32671 0.61475 0.0
H911 H 0.64476 0.30731 0.57441 0.0
H912 H 0.61257 0.32646 0.70683 0.0
H913 H 0.59133 0.32863 0.52609 0.0
H914 H 0.58051 0.31803 0.4397 0.0
H915 H 0.54055 0.29692 0.52513 0.0
H916 H 0.55125 0.30723 0.61217 0.0
H917 H 0.56016 0.3938 0.75969 0.0
H918 H 0.57909 0.37418 0.72135 0.0
H919 H 0.54587 0.33567 0.7582 0.0
H920 H 0.52697 0.35522 0.79753 0.0
H921 H 0.55651 0.33725 0.64663 0.0
H922 H 0.57858 0.33689 0.82796 0.0
H923 H 0.58971 0.34928 0.91109 0.0
H924 H 0.62872 0.36946 0.81841 0.0
H925 H 0.61768 0.35737 0.73454 0.0
C926 C 0.61093 0.28394 0.57582 0.0
C927 C 0.62712 0.28816 0.56692 0.0
C928 C 0.60033 0.29486 0.60042 0.0
C929 C 0.60559 0.3104 0.61516 0.0
C930 C 0.62163 0.31481 0.6041 0.0
C931 C 0.63232 0.30377 0.58064 0.0
C932 C 0.5947 0.32168 0.645 0.0
C933 C 0.60041 0.32898 0.69299 0.0
C934 C 0.57866 0.32478 0.628 0.0
C935 C 0.57218 0.31857 0.57572 0.0
C936 C 0.5803 0.32163 0.52651 0.0
C937 C 0.57418 0.31569 0.47741 0.0
C938 C 0.55988 0.30678 0.47694 0.0
C939 C 0.55164 0.30382 0.52556 0.0
C940 C 0.55772 0.30971 0.57478 0.0
C941 C 0.55706 0.38111 0.7608 0.0
C942 C 0.54211 0.37603 0.78171 0.0
C943 C 0.56786 0.36993 0.7388 0.0
C944 C 0.56384 0.3535 0.73677 0.0
C945 C 0.54917 0.34831 0.75936 0.0
C946 C 0.53846 0.35947 0.78219 0.0
C947 C 0.57447 0.34196 0.70781 0.0
C948 C 0.5687 0.33465 0.66012 0.0
C949 C 0.59053 0.33911 0.72444 0.0
C950 C 0.59721 0.34635 0.77488 0.0
C951 C 0.58945 0.34409 0.82521 0.0
C952 C 0.59576 0.35103 0.87249 0.0
C953 C 0.60989 0.36019 0.87001 0.0
C954 C 0.61777 0.36238 0.82026 0.0
C955 C 0.6115 0.35547 0.77285 0.0
H956 H 0.61476 0.36556 0.90666 0.0
H957 H 0.55516 0.30219 0.43889 0.0
H958 H 0.38002 0.79732 0.56393 0.0
H959 H 0.39875 0.81793 0.52963 0.0
H960 H 0.39134 0.8008 0.36574 0.0
H961 H 0.37271 0.78031 0.3995 0.0
H962 H 0.42328 0.80555 0.3884 0.0
H963 H 0.37343 0.8347 0.40614 0.0
H964 H 0.34937 0.84476 0.45446 0.0
H965 H 0.37962 0.86956 0.56904 0.0
H966 H 0.40387 0.85946 0.52182 0.0
H967 H 0.46291 0.86975 0.25098 0.0
H968 H 0.44233 0.85034 0.28029 0.0
H969 H 0.44374 0.87034 0.44245 0.0
H970 H 0.46368 0.89007 0.41289 0.0
H971 H 0.41422 0.86401 0.41867 0.0
H972 H 0.46406 0.83444 0.4038 0.0
H973 H 0.4883 0.82431 0.3569 0.0
H974 H 0.45859 0.79993 0.23975 0.0
H975 H 0.43413 0.81016 0.28546 0.0
C976 C 0.3824 0.79798 0.52063 0.0
C977 C 0.37488 0.78723 0.48442 0.0
C978 C 0.39305 0.80977 0.50106 0.0
C979 C 0.39635 0.81095 0.44505 0.0
C980 C 0.38897 0.8001 0.40906 0.0
C981 C 0.37829 0.78843 0.42847 0.0
C982 C 0.40757 0.82339 0.42365 0.0
C983 C 0.42122 0.81835 0.39446 0.0
C984 C 0.40502 0.84006 0.43241 0.0
C985 C 0.39046 0.84618 0.46077 0.0
C986 C 0.37495 0.84219 0.44191 0.0
C987 C 0.36128 0.84792 0.46905 0.0
C988 C 0.36297 0.85775 0.51488 0.0
C989 C 0.37833 0.86192 0.53358 0.0
C990 C 0.39204 0.8562 0.50662 0.0
C991 C 0.4587 0.87006 0.29271 0.0
C992 C 0.46494 0.88139 0.32965 0.0
C993 C 0.44702 0.85891 0.30956 0.0
C994 C 0.44166 0.85865 0.36394 0.0
C995 C 0.44764 0.87024 0.40036 0.0
C996 C 0.4591 0.88151 0.38338 0.0
C997 C 0.43008 0.8462 0.38366 0.0
C998 C 0.41633 0.85123 0.41252 0.0
C999 C 0.4326 0.82949 0.37493 0.0
C1000 C 0.44728 0.82321 0.34771 0.0
C1001 C 0.4627 0.82701 0.36783 0.0
C1002 C 0.47648 0.82124 0.34147 0.0
C1003 C 0.475 0.81151 0.29529 0.0
C1004 C 0.45972 0.80749 0.27546 0.0
C1005 C 0.44589 0.81327 0.30158 0.0
H1006 H 0.48568 0.80706 0.27489 0.0
H1007 H 0.35237 0.86218 0.53583 0.0
H1008 H 0.02385 0.55889 0.1598 0.0
H1009 H 0.02483 0.53601 0.09707 0.0
H1010 H 0.97519 0.52483 0.13421 0.0
H1011 H 0.97415 0.54764 0.19732 0.0
H1012 H 0.99471 0.49831 0.13868 0.0
H1013 H 0.9843 0.54205 0.0157 0.0
H1014 H 0.98896 0.56862 0.9734 0.0
H1015 H 0.0358 0.55322 0.91986 0.0
H1016 H 0.03151 0.52661 0.96256 0.0
H1017 H 0.97896 0.44346 0.92431 0.0
H1018 H 0.97861 0.4666 0.98591 0.0
H1019 H 0.02838 0.4766 0.94709 0.0
H1020 H 0.0288 0.45348 0.88504 0.0
H1021 H 0.0093 0.50369 0.94357 0.0
H1022 H 0.01959 0.45985 0.06589 0.0
H1023 H 0.01488 0.43328 0.10814 0.0
H1024 H 0.96824 0.44889 0.16295 0.0
H1025 H 0.97257 0.47549 0.12031 0.0
C1026 C 0.01313 0.5516 0.15437 0.0
C1027 C 0.99892 0.555 0.18331 0.0
C1028 C 0.01369 0.53859 0.11845 0.0
C1029 C 1.00005 0.52885 0.11088 0.0
C1030 C 0.98583 0.53225 0.13961 0.0
C1031 C 0.98525 0.54528 0.17543 0.0
C1032 C 0.00074 0.51482 0.07405 0.0
C1033 C 0.99768 0.49948 0.09583 0.0
C1034 C 0.00504 0.51641 0.01861 0.0
C1035 C 0.00765 0.53239 0.99284 0.0
C1036 C 0.99566 0.54437 0.99534 0.0
C1037 C 0.99822 0.55943 0.9712 0.0
C1038 C 0.01269 0.56262 0.94409 0.0
C1039 C 0.02461 0.55074 0.94095 0.0
C1040 C 0.02211 0.53566 0.96507 0.0
C1041 C 0.98984 0.45056 0.92905 0.0
C1042 C 0.00392 0.44669 0.90008 0.0
C1043 C 0.98963 0.46372 0.96432 0.0
C1044 C 0.00351 0.47318 0.97124 0.0
C1045 C 0.01757 0.46939 0.94222 0.0
C1046 C 0.0178 0.45618 0.90703 0.0
C1047 C 0.00321 0.48719 0.00817 0.0
C1048 C 0.00635 0.50252 0.98643 0.0
C1049 C 0.99898 0.4856 0.06367 0.0
C1050 C 0.99634 0.46962 0.08943 0.0
C1051 C 0.00827 0.45757 0.08654 0.0
C1052 C 0.00568 0.44251 0.11064 0.0
C1053 C 0.99126 0.43938 0.13809 0.0
C1054 C 0.9794 0.45132 0.14161 0.0
C1055 C 0.98192 0.4664 0.11752 0.0
H1056 H 0.98928 0.42772 0.15674 0.0
H1057 H 0.01465 0.57429 0.92541 0.0
H1058 H 0.80956 0.77299 0.18163 0.0
H1059 H 0.78642 0.77389 0.24338 0.0
H1060 H 0.76689 0.73117 0.16769 0.0
H1061 H 0.79004 0.73016 0.10586 0.0
H1062 H 0.74401 0.75545 0.18515 0.0
H1063 H 0.7855 0.72725 0.28381 0.0
H1064 H 0.81266 0.72355 0.32275 0.0
H1065 H 0.80636 0.76594 0.42093 0.0
H1066 H 0.77924 0.77004 0.3819 0.0
H1067 H 0.68784 0.73106 0.38578 0.0
H1068 H 0.71016 0.73248 0.321 0.0
H1069 H 0.72997 0.77308 0.40832 0.0
H1070 H 0.70775 0.77161 0.4737 0.0
H1071 H 0.75273 0.75097 0.38453 0.0
H1072 H 0.71094 0.77881 0.28895 0.0
H1073 H 0.68383 0.7828 0.24996 0.0
H1074 H 0.6906 0.74171 0.14606 0.0
H1075 H 0.71767 0.73731 0.18504 0.0
C1076 C 0.80031 0.76382 0.17811 0.0
C1077 C 0.80161 0.75142 0.13942 0.0
C1078 C 0.78715 0.76433 0.21339 0.0
C1079 C 0.7751 0.7525 0.21026 0.0
C1080 C 0.77614 0.74036 0.17069 0.0
C1081 C 0.78938 0.73975 0.1357 0.0
C1082 C 0.76155 0.75261 0.24908 0.0
C1083 C 0.74585 0.75429 0.22872 0.0
C1084 C 0.76412 0.75152 0.30586 0.0
C1085 C 0.78042 0.74906 0.32945 0.0
C1086 C 0.78997 0.73587 0.31331 0.0
C1087 C 0.80534 0.73369 0.33548 0.0
C1088 C 0.81126 0.74453 0.37417 0.0
C1089 C 0.80178 0.75757 0.39088 0.0
C1090 C 0.7864 0.75982 0.36876 0.0
C1091 C 0.69693 0.74031 0.39104 0.0
C1092 C 0.69606 0.75127 0.43451 0.0
C1093 C 0.70961 0.74116 0.35391 0.0
C1094 C 0.72157 0.75302 0.35957 0.0
C1095 C 0.72079 0.7639 0.40321 0.0
C1096 C 0.70809 0.76308 0.44034 0.0
C1097 C 0.73512 0.75375 0.32069 0.0
C1098 C 0.75085 0.75222 0.34101 0.0
C1099 C 0.73257 0.75503 0.26389 0.0
C1100 C 0.71628 0.75763 0.24034 0.0
C1101 C 0.7066 0.77053 0.25815 0.0
C1102 C 0.69124 0.77289 0.23598 0.0
C1103 C 0.68548 0.76249 0.19567 0.0
C1104 C 0.69507 0.74974 0.17735 0.0
C1105 C 0.71043 0.74731 0.19944 0.0
H1106 H 0.67359 0.76434 0.17853 0.0
H1107 H 0.82316 0.74282 0.3913 0.0
H1108 H 0.48076 0.56108 0.44344 0.0
H1109 H 0.48001 0.53779 0.50456 0.0
H1110 H 0.52158 0.51766 0.42355 0.0
H1111 H 0.52244 0.54099 0.36232 0.0
H1112 H 0.49661 0.49544 0.44038 0.0
H1113 H 0.52675 0.5349 0.54163 0.0
H1114 H 0.53171 0.56146 0.5836 0.0
H1115 H 0.48974 0.55565 0.68415 0.0
H1116 H 0.48438 0.52915 0.64214 0.0
H1117 H 0.51979 0.43673 0.63511 0.0
H1118 H 0.51859 0.45936 0.57144 0.0
H1119 H 0.4792 0.47999 0.66283 0.0
H1120 H 0.48043 0.45743 0.72702 0.0
H1121 H 0.50218 0.50201 0.64035 0.0
H1122 H 0.47219 0.46245 0.54206 0.0
H1123 H 0.46671 0.43598 0.50026 0.0
H1124 H 0.50748 0.44191 0.39436 0.0
H1125 H 0.51337 0.46833 0.43613 0.0
C1126 C 0.48976 0.55171 0.43878 0.0
C1127 C 0.50173 0.55284 0.39853 0.0
C1128 C 0.48933 0.53846 0.4737 0.0
C1129 C 0.50082 0.52614 0.46868 0.0
C1130 C 0.51265 0.52712 0.42801 0.0
C1131 C 0.51318 0.54045 0.39338 0.0
C1132 C 0.50047 0.51221 0.50602 0.0
C1133 C 0.49803 0.4968 0.48406 0.0
C1134 C 0.50186 0.51418 0.56299 0.0
C1135 C 0.50505 0.53012 0.58826 0.0
C1136 C 0.51848 0.53936 0.57229 0.0
C1137 C 0.52139 0.55438 0.59617 0.0
C1138 C 0.51102 0.56026 0.63639 0.0
C1139 C 0.49774 0.5511 0.65291 0.0
C1140 C 0.49477 0.53607 0.62909 0.0
C1141 C 0.51081 0.44604 0.64141 0.0
C1142 C 0.50017 0.44534 0.68582 0.0
C1143 C 0.51009 0.4589 0.60491 0.0
C1144 C 0.49869 0.47122 0.6122 0.0
C1145 C 0.48803 0.47054 0.65648 0.0
C1146 C 0.48871 0.45765 0.69293 0.0
C1147 C 0.49838 0.48516 0.57478 0.0
C1148 C 0.5007 0.50061 0.5967 0.0
C1149 C 0.4968 0.48322 0.51781 0.0
C1150 C 0.49332 0.46731 0.49267 0.0
C1151 C 0.48009 0.45805 0.51023 0.0
C1152 C 0.47689 0.44306 0.48647 0.0
C1153 C 0.48677 0.43725 0.44479 0.0
C1154 C 0.49986 0.44642 0.42671 0.0
C1155 C 0.50312 0.46141 0.4504 0.0
H1156 H 0.48427 0.42565 0.42642 0.0
H1157 H 0.51329 0.5719 0.65486 0.0
H1158 H 0.7889 0.23572 0.99421 0.0
H1159 H 0.76622 0.23535 0.93048 0.0
H1160 H 0.79464 0.26185 0.81338 0.0
H1161 H 0.81713 0.26269 0.87758 0.0
H1162 H 0.76558 0.27387 0.81805 0.0
H1163 H 0.78805 0.22078 0.80043 0.0
H1164 H 0.7978 0.19441 0.8333 0.0
H1165 H 0.75081 0.18372 0.89736 0.0
H1166 H 0.74082 0.21013 0.86543 0.0
H1167 H 0.7121 0.23201 0.59983 0.0
H1168 H 0.73531 0.23184 0.66126 0.0
H1169 H 0.71063 0.26479 0.76883 0.0
H1170 H 0.68752 0.26528 0.70699 0.0
H1171 H 0.73871 0.22275 0.76479 0.0
H1172 H 0.73796 0.29034 0.82472 0.0
H1173 H 0.72981 0.31653 0.78567 0.0
H1174 H 0.73649 0.29782 0.62431 0.0
H1175 H 0.74492 0.27157 0.66238 0.0
C1176 C 0.79029 0.24141 0.95479 0.0
C1177 C 0.80475 0.24917 0.94059 0.0
C1178 C 0.77737 0.24116 0.9184 0.0
C1179 C 0.77884 0.2484 0.86695 0.0
C1180 C 0.79327 0.25619 0.85289 0.0
C1181 C 0.80611 0.25662 0.88948 0.0
C1182 C 0.76528 0.24803 0.82786 0.0
C1183 C 0.75971 0.26269 0.80639 0.0
C1184 C 0.7578 0.23342 0.81207 0.0
C1185 C 0.76373 0.21748 0.83092 0.0
C1186 C 0.77982 0.21285 0.82182 0.0
C1187 C 0.78539 0.19789 0.84024 0.0
C1188 C 0.77494 0.18741 0.8675 0.0
C1189 C 0.75889 0.19186 0.87627 0.0
C1190 C 0.75327 0.20681 0.85796 0.0
C1191 C 0.71162 0.23917 0.63667 0.0
C1192 C 0.69806 0.2487 0.6487 0.0
C1193 C 0.72485 0.23904 0.67171 0.0
C1194 C 0.72472 0.24841 0.71925 0.0
C1195 C 0.71105 0.25767 0.73187 0.0
C1196 C 0.69786 0.2579 0.69666 0.0
C1197 C 0.73895 0.2486 0.75544 0.0
C1198 C 0.7446 0.23392 0.77646 0.0
C1199 C 0.74675 0.26316 0.76985 0.0
C1200 C 0.74191 0.27895 0.74645 0.0
C1201 C 0.73776 0.29184 0.78091 0.0
C1202 C 0.73308 0.30668 0.75895 0.0
C1203 C 0.73259 0.30881 0.70254 0.0
C1204 C 0.73683 0.29611 0.66797 0.0
C1205 C 0.74154 0.28125 0.68973 0.0
H1206 H 0.72895 0.3203 0.68562 0.0
H1207 H 0.77928 0.17584 0.88175 0.0
H1208 H 0.20071 0.27381 0.94327 0.0
H1209 H 0.22316 0.27521 0.87876 0.0
H1210 H 0.21592 0.22515 0.83727 0.0
H1211 H 0.19351 0.22363 0.90183 0.0
H1212 H 0.24769 0.23252 0.85763 0.0
H1213 H 0.20364 0.25367 0.75161 0.0
H1214 H 0.18077 0.27187 0.73296 0.0
H1215 H 0.21235 0.31284 0.7423 0.0
H1216 H 0.23538 0.29489 0.7618 0.0
H1217 H 0.29663 0.22769 0.62354 0.0
H1218 H 0.27346 0.22735 0.68502 0.0
H1219 H 0.28011 0.2781 0.71736 0.0
H1220 H 0.30315 0.27859 0.65511 0.0
H1221 H 0.24874 0.27089 0.7025 0.0
H1222 H 0.29267 0.25036 0.80846 0.0
H1223 H 0.31576 0.23264 0.8292 0.0
H1224 H 0.2848 0.19116 0.82266 0.0
H1225 H 0.26156 0.20862 0.8011 0.0
C1226 C 0.20388 0.26313 0.92022 0.0
C1227 C 0.19538 0.24862 0.92734 0.0
C1228 C 0.21665 0.26396 0.88336 0.0
C1229 C 0.22107 0.25031 0.85308 0.0
C1230 C 0.21264 0.2358 0.8603 0.0
C1231 C 0.19984 0.23497 0.89701 0.0
C1232 C 0.2347 0.25105 0.81456 0.0
C1233 C 0.24785 0.24074 0.82325 0.0
C1234 C 0.23502 0.26213 0.77081 0.0
C1235 C 0.2212 0.27294 0.75871 0.0
C1236 C 0.20569 0.26657 0.75013 0.0
C1237 C 0.1927 0.27684 0.73932 0.0
C1238 C 0.1951 0.29351 0.7366 0.0
C1239 C 0.2105 0.29993 0.7445 0.0
C1240 C 0.22353 0.28971 0.75538 0.0
C1241 C 0.29314 0.23878 0.64374 0.0
C1242 C 0.30174 0.25314 0.635 0.0
C1243 C 0.27995 0.23856 0.6789 0.0
C1244 C 0.27525 0.25265 0.70626 0.0
C1245 C 0.2836 0.26709 0.6967 0.0
C1246 C 0.29677 0.26733 0.66135 0.0
C1247 C 0.26171 0.25226 0.74531 0.0
C1248 C 0.24859 0.26265 0.73684 0.0
C1249 C 0.26145 0.24132 0.78953 0.0
C1250 C 0.2754 0.23079 0.80262 0.0
C1251 C 0.29081 0.23745 0.811 0.0
C1252 C 0.30392 0.22745 0.82298 0.0
C1253 C 0.30176 0.21078 0.8271 0.0
C1254 C 0.28647 0.20407 0.81938 0.0
C1255 C 0.27332 0.21401 0.80732 0.0
H1256 H 0.31192 0.20306 0.83639 0.0
H1257 H 0.18503 0.30144 0.72825 0.0
H1258 H 0.30392 0.72038 0.43042 0.0
H1259 H 0.28016 0.71791 0.37158 0.0
H1260 H 0.27706 0.76977 0.3607 0.0
H1261 H 0.30088 0.77235 0.41883 0.0
H1262 H 0.24746 0.75352 0.38765 0.0
H1263 H 0.29147 0.7513 0.2578 0.0
H1264 H 0.31678 0.7403 0.22031 0.0
H1265 H 0.29449 0.69387 0.20161 0.0
H1266 H 0.2691 0.70455 0.23976 0.0
H1267 H 0.19552 0.76992 0.16989 0.0
H1268 H 0.21796 0.76791 0.23368 0.0
H1269 H 0.2208 0.71661 0.20476 0.0
H1270 H 0.19856 0.71864 0.13949 0.0
H1271 H 0.2498 0.7295 0.20278 0.0
H1272 H 0.20525 0.73147 0.32423 0.0
H1273 H 0.17976 0.74154 0.36316 0.0
H1274 H 0.20238 0.78677 0.401 0.0
H1275 H 0.22796 0.77705 0.36156 0.0
C1276 C 0.2982 0.73124 0.41525 0.0
C1277 C 0.3042 0.74656 0.42895 0.0
C1278 C 0.28468 0.7298 0.38174 0.0
C1279 C 0.27696 0.74367 0.36204 0.0
C1280 C 0.28291 0.75896 0.37577 0.0
C1281 C 0.29652 0.7604 0.40866 0.0
C1282 C 0.26257 0.74232 0.32727 0.0
C1283 C 0.24793 0.74839 0.34704 0.0
C1284 C 0.26321 0.73508 0.27529 0.0
C1285 C 0.27846 0.72867 0.25225 0.0
C1286 C 0.29202 0.7387 0.24619 0.0
C1287 C 0.30636 0.73254 0.22472 0.0
C1288 C 0.30726 0.71638 0.20876 0.0
C1289 C 0.29379 0.70637 0.2141 0.0
C1290 C 0.27941 0.71248 0.23561 0.0
C1291 C 0.20087 0.7582 0.17733 0.0
C1292 C 0.19531 0.74443 0.14993 0.0
C1293 C 0.21362 0.75705 0.214 0.0
C1294 C 0.22086 0.74207 0.22457 0.0
C1295 C 0.21532 0.72827 0.19727 0.0
C1296 C 0.20263 0.72944 0.16015 0.0
C1297 C 0.23463 0.74102 0.2626 0.0
C1298 C 0.24919 0.73446 0.2436 0.0
C1299 C 0.23386 0.74766 0.31562 0.0
C1300 C 0.2185 0.75356 0.33954 0.0
C1301 C 0.20476 0.7436 0.34048 0.0
C1302 C 0.1903 0.74925 0.3627 0.0
C1303 C 0.18944 0.7648 0.38444 0.0
C1304 C 0.20306 0.77473 0.38411 0.0
C1305 C 0.21755 0.76915 0.36189 0.0
H1306 H 0.17824 0.76914 0.40163 0.0
H1307 H 0.31837 0.71163 0.19212 0.0
H1308 H 0.50362 0.93582 0.47345 0.0
H1309 H 0.5037 0.95898 0.53502 0.0
H1310 H 0.5121 0.99081 0.39871 0.0
H1311 H 0.51286 0.96755 0.33753 0.0
H1312 H 0.52821 0.00139 0.47818 0.0
H1313 H 0.4735 0.98492 0.45852 0.0
H1314 H 0.45032 0.96627 0.45856 0.0
H1315 H 0.4572 0.9573 0.62917 0.0
H1316 H 0.48057 0.97573 0.63 0.0
H1317 H 0.4941 0.07079 0.6189 0.0
H1318 H 0.49645 0.04802 0.55543 0.0
H1319 H 0.51123 0.0171 0.68748 0.0
H1320 H 0.50929 0.03983 0.7509 0.0
H1321 H 0.48293 0.00712 0.60895 0.0
H1322 H 0.53909 0.0249 0.62114 0.0
H1323 H 0.56036 0.04562 0.61485 0.0
H1324 H 0.54757 0.05469 0.44821 0.0
H1325 H 0.52604 0.03418 0.45383 0.0
C1326 C 0.50559 0.94777 0.45684 0.0
C1327 C 0.50813 0.94999 0.4009 0.0
C1328 C 0.50552 0.961 0.49189 0.0
C1329 C 0.50744 0.9767 0.47127 0.0
C1330 C 0.51046 0.97884 0.41549 0.0
C1331 C 0.5109 0.96557 0.38061 0.0
C1332 C 0.50604 0.99087 0.5077 0.0
C1333 C 0.51819 0.00268 0.50625 0.0
C1334 C 0.49297 0.99265 0.54444 0.0
C1335 C 0.47889 0.98159 0.54419 0.0
C1336 C 0.47014 0.97888 0.49597 0.0
C1337 C 0.45696 0.96836 0.49584 0.0
C1338 C 0.45232 0.96058 0.54381 0.0
C1339 C 0.46083 0.96333 0.59203 0.0
C1340 C 0.47403 0.97382 0.59237 0.0
C1341 C 0.49786 0.05913 0.63426 0.0
C1342 C 0.50154 0.057 0.6896 0.0
C1343 C 0.49923 0.04621 0.5981 0.0
C1344 C 0.50401 0.03101 0.61715 0.0
C1345 C 0.50751 0.02881 0.6724 0.0
C1346 C 0.50646 0.04177 0.70835 0.0
C1347 C 0.50514 0.01728 0.57952 0.0
C1348 C 0.49289 0.00568 0.5807 0.0
C1349 C 0.51783 0.01594 0.54156 0.0
C1350 C 0.53084 0.02816 0.53812 0.0
C1351 C 0.5407 0.03144 0.58335 0.0
C1352 C 0.55283 0.04311 0.57986 0.0
C1353 C 0.55528 0.05151 0.53121 0.0
C1354 C 0.54564 0.0482 0.48589 0.0
C1355 C 0.53348 0.03655 0.4892 0.0
H1356 H 0.56467 0.06054 0.52859 0.0
H1357 H 0.44211 0.95244 0.54363 0.0
H1358 H 0.0264 0.05696 0.91441 0.0
H1359 H 0.02647 0.03533 0.98217 0.0
H1360 H 0.97597 0.0266 0.95156 0.0
H1361 H 0.97579 0.04826 0.88381 0.0
H1362 H 0.9833 0.02832 0.06145 0.0
H1363 H 0.00267 0.0007 0.90152 0.0
H1364 H 0.02038 0.99634 0.82216 0.0
H1365 H 0.06177 0.99487 0.92701 0.0
H1366 H 0.04432 0.9992 0.00707 0.0
H1367 H 0.97466 0.95154 0.18518 0.0
H1368 H 0.97521 0.97511 0.1255 0.0
H1369 H 0.02653 0.97966 0.1509 0.0
H1370 H 0.0261 0.95586 0.20977 0.0
H1371 H 0.0194 0.9808 0.04572 0.0
H1372 H 1.00009 0.00771 0.20621 0.0
H1373 H 0.98247 0.0123 0.28571 0.0
H1374 H 0.94118 0.01522 0.18078 0.0
H1375 H 0.95854 0.01076 0.10061 0.0
C1376 C 0.01533 0.0504 0.92203 0.0
C1377 C 0.00108 0.05427 0.89397 0.0
C1378 C 0.0154 0.03805 0.96058 0.0
C1379 C 0.00124 0.02937 0.97152 0.0
C1380 C 0.987 0.03321 0.94363 0.0
C1381 C 0.98693 0.04554 0.90492 0.0
C1382 C 0.00127 0.01637 0.01259 0.0
C1383 C 0.99105 0.01782 0.05782 0.0
C1384 C 0.0117 0.00295 0.00832 0.0
C1385 C 0.02221 1.00043 0.96021 0.0
C1386 C 0.01556 0.99958 0.90761 0.0
C1387 C 0.02554 0.99708 0.86251 0.0
C1388 C 0.04219 0.99544 0.8695 0.0
C1389 C 0.04888 0.99618 0.92164 0.0
C1390 C 0.03895 0.9986 0.96691 0.0
C1391 C 0.98603 0.95765 0.17839 0.0
C1392 C 1.00036 0.95182 0.20165 0.0
C1393 C 0.98632 0.97118 0.14461 0.0
C1394 C 0.0009 0.9792 0.13414 0.0
C1395 C 0.01516 0.97362 0.15843 0.0
C1396 C 0.0149 0.96003 0.19198 0.0
C1397 C 0.00142 0.99269 0.09481 0.0
C1398 C 0.01172 0.99134 0.04971 0.0
C1399 C 0.99108 0.00621 0.09931 0.0
C1400 C 0.9806 0.00876 0.14748 0.0
C1401 C 0.98724 0.00921 0.20014 0.0
C1402 C 0.97731 0.01182 0.2453 0.0
C1403 C 0.96071 0.01393 0.23833 0.0
C1404 C 0.95403 0.01355 0.18613 0.0
C1405 C 0.96391 0.01105 0.1408 0.0
H1406 H 0.95305 0.01592 0.27335 0.0
H1407 H 0.04989 0.99352 0.83452 0.0
H1408 H 0.97498 0.44694 0.67878 0.0
H1409 H 0.97508 0.47182 0.6256 0.0
H1410 H 0.02436 0.46279 0.57806 0.0
H1411 H 0.02444 0.43803 0.63249 0.0
H1412 H 0.02145 0.49268 0.61242 0.0
H1413 H 0.99186 0.4597 0.48687 0.0
H1414 H 0.9703 0.44115 0.45752 0.0
H1415 H 0.93448 0.47618 0.50195 0.0
H1416 H 0.95583 0.49487 0.53223 0.0
H1417 H 0.02671 0.55379 0.40914 0.0
H1418 H 0.02639 0.52911 0.46337 0.0
H1419 H 0.97734 0.53895 0.51166 0.0
H1420 H 0.97749 0.56356 0.45636 0.0
H1421 H 0.97997 0.50879 0.4775 0.0
H1422 H 0.00961 0.54184 0.60239 0.0
H1423 H 0.03119 0.56039 0.63157 0.0
H1424 H 0.06696 0.52519 0.58816 0.0
H1425 H 0.04559 0.50651 0.55805 0.0
C1426 C 0.98574 0.45005 0.65608 0.0
C1427 C 0.99969 0.44045 0.65977 0.0
C1428 C 0.98578 0.46432 0.62558 0.0
C1429 C 0.99971 0.46923 0.59745 0.0
C1430 C 0.01347 0.45933 0.59946 0.0
C1431 C 0.01346 0.44509 0.63025 0.0
C1432 C 1.00023 0.48511 0.56874 0.0
C1433 C 0.01251 0.49608 0.58227 0.0
C1434 C 0.98831 0.48983 0.53058 0.0
C1435 C 0.97545 0.47862 0.51229 0.0
C1436 C 0.97939 0.4634 0.49077 0.0
C1437 C 0.9672 0.45287 0.47389 0.0
C1438 C 0.95103 0.45747 0.478 0.0
C1439 C 0.94701 0.47263 0.49885 0.0
C1440 C 0.95915 0.4832 0.51582 0.0
C1441 C 0.01596 0.5509 0.43221 0.0
C1442 C 0.00213 0.56069 0.42851 0.0
C1443 C 0.01579 0.53675 0.46331 0.0
C1444 C 0.00186 0.53213 0.49193 0.0
C1445 C 0.98823 0.54221 0.4899 0.0
C1446 C 0.98837 0.55635 0.45862 0.0
C1447 C 0.00122 0.51633 0.52111 0.0
C1448 C 0.9889 0.50538 0.50768 0.0
C1449 C 0.01312 0.51162 0.55933 0.0
C1450 C 0.02599 0.52283 0.57751 0.0
C1451 C 0.02208 0.5381 0.59868 0.0
C1452 C 0.03428 0.54863 0.61546 0.0
C1453 C 0.05044 0.54399 0.6116 0.0
C1454 C 0.05443 0.52878 0.59108 0.0
C1455 C 0.04228 0.51821 0.5742 0.0
H1456 H 0.05986 0.55216 0.62461 0.0
H1457 H 0.94162 0.4493 0.46491 0.0
H1458 H 0.80416 0.77822 0.92172 0.0
H1459 H 0.77916 0.77764 0.86901 0.0
H1460 H 0.78924 0.72874 0.81984 0.0
H1461 H 0.8143 0.72919 0.87287 0.0
H1462 H 0.77552 0.7475 0.73607 0.0
H1463 H 0.76544 0.73418 0.92281 0.0
H1464 H 0.76682 0.73827 0.02212 0.0
H1465 H 0.74013 0.78242 0.00643 0.0
H1466 H 0.73886 0.77875 0.9068 0.0
H1467 H 0.69726 0.72245 0.66461 0.0
H1468 H 0.72226 0.72411 0.71691 0.0
H1469 H 0.71183 0.77367 0.7568 0.0
H1470 H 0.68676 0.77216 0.70379 0.0
H1471 H 0.72564 0.75507 0.84511 0.0
H1472 H 0.73555 0.76795 0.6575 0.0
H1473 H 0.73413 0.76337 0.55843 0.0
H1474 H 0.76111 0.71948 0.57629 0.0
H1475 H 0.76242 0.72362 0.67568 0.0
C1476 C 0.80128 0.76745 0.89869 0.0
C1477 C 0.8112 0.75371 0.90172 0.0
C1478 C 0.78691 0.76712 0.86883 0.0
C1479 C 0.78219 0.75306 0.84125 0.0
C1480 C 0.79262 0.7397 0.84101 0.0
C1481 C 0.80696 0.73998 0.87124 0.0
C1482 C 0.7659 0.75195 0.81607 0.0
C1483 C 0.76462 0.74899 0.75999 0.0
C1484 C 0.75166 0.75413 0.8472 0.0
C1485 C 0.75221 0.75628 0.90721 0.0
C1486 C 0.75998 0.74484 0.94045 0.0
C1487 C 0.76073 0.74707 0.99683 0.0
C1488 C 0.7536 0.76062 0.02057 0.0
C1489 C 0.74567 0.77194 0.98797 0.0
C1490 C 0.74493 0.76979 0.93154 0.0
C1491 C 0.70007 0.73362 0.68543 0.0
C1492 C 0.69003 0.74721 0.67981 0.0
C1493 C 0.71443 0.73456 0.71512 0.0
C1494 C 0.71902 0.74907 0.7401 0.0
C1495 C 0.70852 0.76236 0.73769 0.0
C1496 C 0.69419 0.76147 0.70747 0.0
C1497 C 0.73528 0.75063 0.76515 0.0
C1498 C 0.73655 0.75364 0.82119 0.0
C1499 C 0.74951 0.74845 0.73404 0.0
C1500 C 0.74893 0.74601 0.67416 0.0
C1501 C 0.74106 0.75724 0.64039 0.0
C1502 C 0.74029 0.75474 0.58416 0.0
C1503 C 0.74749 0.74113 0.56109 0.0
C1504 C 0.75552 0.73001 0.59422 0.0
C1505 C 0.75628 0.73243 0.65052 0.0
H1506 H 0.74689 0.73921 0.51754 0.0
H1507 H 0.75419 0.76232 0.06423 0.0
H1508 H 0.47303 0.5531 0.18007 0.0
H1509 H 0.47386 0.52832 0.12627 0.0
H1510 H 0.52159 0.5405 0.06998 0.0
H1511 H 0.52086 0.56538 0.12397 0.0
H1512 H 0.50252 0.5263 0.98874 0.0
H1513 H 0.51816 0.51608 0.17337 0.0
H1514 H 0.51508 0.51689 0.27319 0.0
H1515 H 0.47187 0.48855 0.26151 0.0
H1516 H 0.47451 0.48784 0.16145 0.0
H1517 H 0.52942 0.44897 0.91124 0.0
H1518 H 0.52742 0.47398 0.96344 0.0
H1519 H 0.47895 0.46153 0.01115 0.0
H1520 H 0.48079 0.43646 0.95829 0.0
H1521 H 0.49792 0.47579 0.09642 0.0
H1522 H 0.48272 0.48577 0.91106 0.0
H1523 H 0.48618 0.48495 0.8114 0.0
H1524 H 0.52906 0.51372 0.82475 0.0
H1525 H 0.52605 0.51444 0.92468 0.0
C1526 C 0.48357 0.55072 0.15529 0.0
C1527 C 0.49692 0.56119 0.15655 0.0
C1528 C 0.48406 0.53648 0.1248 0.0
C1529 C 0.4979 0.53241 0.09486 0.0
C1530 C 0.51081 0.54337 0.09298 0.0
C1531 C 0.51037 0.5576 0.12377 0.0
C1532 C 0.4993 0.51625 0.06882 0.0
C1533 C 0.50169 0.51527 0.01235 0.0
C1534 C 0.49796 0.50182 0.09954 0.0
C1535 C 0.49643 0.50206 0.15981 0.0
C1536 C 0.50792 0.51013 0.19202 0.0
C1537 C 0.50626 0.51056 0.24866 0.0
C1538 C 0.49326 0.50281 0.27367 0.0
C1539 C 0.48191 0.49458 0.24207 0.0
C1540 C 0.48348 0.49416 0.18538 0.0
C1541 C 0.51844 0.45136 0.9337 0.0
C1542 C 0.50524 0.44073 0.93044 0.0
C1543 C 0.51729 0.46572 0.96329 0.0
C1544 C 0.50296 0.46973 0.99055 0.0
C1545 C 0.4901 0.45869 0.99025 0.0
C1546 C 0.49118 0.44436 0.96012 0.0
C1547 C 0.50114 0.48586 0.01639 0.0
C1548 C 0.4987 0.48683 0.07282 0.0
C1549 C 0.50248 0.50028 0.98566 0.0
C1550 C 0.50425 0.50001 0.92548 0.0
C1551 C 0.49298 0.4918 0.89282 0.0
C1552 C 0.49484 0.49137 0.83626 0.0
C1553 C 0.50785 0.49925 0.81176 0.0
C1554 C 0.519 0.5076 0.84379 0.0
C1555 C 0.51722 0.50802 0.90041 0.0
H1556 H 0.50927 0.49891 0.76796 0.0
H1557 H 0.49201 0.50315 0.31753 0.0
H1558 H 0.80848 0.2271 0.18423 0.0
H1559 H 0.78322 0.22747 0.23564 0.0
H1560 H 0.78483 0.27943 0.24131 0.0
H1561 H 0.81004 0.27919 0.18895 0.0
H1562 H 0.77443 0.26355 0.34206 0.0
H1563 H 0.76302 0.26445 0.14936 0.0
H1564 H 0.76559 0.25444 0.05523 0.0
H1565 H 0.74585 0.20873 0.10355 0.0
H1566 H 0.74344 0.21838 0.19825 0.0
H1567 H 0.69377 0.27906 0.41099 0.0
H1568 H 0.71866 0.27923 0.35767 0.0
H1569 H 0.71475 0.22783 0.33415 0.0
H1570 H 0.68977 0.22756 0.38753 0.0
H1571 H 0.72643 0.24331 0.2422 0.0
H1572 H 0.73792 0.24107 0.43224 0.0
H1573 H 0.7361 0.24942 0.52838 0.0
H1574 H 0.75629 0.2956 0.48793 0.0
H1575 H 0.75798 0.28762 0.39127 0.0
C1576 C 0.80367 0.23861 0.19741 0.0
C1577 C 0.81126 0.25313 0.18238 0.0
C1578 C 0.78918 0.23879 0.22654 0.0
C1579 C 0.78206 0.25348 0.24171 0.0
C1580 C 0.79011 0.26796 0.22987 0.0
C1581 C 0.80453 0.26781 0.20005 0.0
C1582 C 0.76571 0.25371 0.26656 0.0
C1583 C 0.7639 0.25935 0.32002 0.0
C1584 C 0.75205 0.2478 0.2382 0.0
C1585 C 0.7532 0.24209 0.18105 0.0
C1586 C 0.75935 0.25222 0.14003 0.0
C1587 C 0.76076 0.24662 0.08654 0.0
C1588 C 0.75593 0.23095 0.07344 0.0
C1589 C 0.74962 0.22087 0.11377 0.0
C1590 C 0.74821 0.2264 0.16736 0.0
C1591 C 0.69798 0.26783 0.39344 0.0
C1592 C 0.68982 0.25327 0.40379 0.0
C1593 C 0.71228 0.26794 0.36323 0.0
C1594 C 0.71874 0.2535 0.34276 0.0
C1595 C 0.71004 0.23911 0.34975 0.0
C1596 C 0.69574 0.23898 0.3802 0.0
C1597 C 0.73509 0.25329 0.31768 0.0
C1598 C 0.73693 0.2476 0.26422 0.0
C1599 C 0.74883 0.25897 0.34627 0.0
C1600 C 0.74792 0.26381 0.40439 0.0
C1601 C 0.74185 0.25306 0.44374 0.0
C1602 C 0.74085 0.25772 0.49833 0.0
C1603 C 0.74605 0.27304 0.5142 0.0
C1604 C 0.75226 0.28374 0.47552 0.0
C1605 C 0.75324 0.27915 0.42082 0.0
H1606 H 0.74531 0.2766 0.55648 0.0
H1607 H 0.75704 0.22663 0.03203 0.0
H1608 H 0.30471 0.28035 0.40793 0.0
H1609 H 0.2798 0.27907 0.35486 0.0
H1610 H 0.28856 0.22879 0.32109 0.0
H1611 H 0.31355 0.22996 0.37432 0.0
H1612 H 0.27559 0.24523 0.2319 0.0
H1613 H 0.26455 0.23815 0.42198 0.0
H1614 H 0.2658 0.24534 0.5193 0.0
H1615 H 0.24062 0.28957 0.48656 0.0
H1616 H 0.23951 0.28278 0.3888 0.0
H1617 H 0.19677 0.22118 0.16362 0.0
H1618 H 0.22176 0.22332 0.21583 0.0
H1619 H 0.21251 0.27384 0.2436 0.0
H1620 H 0.18743 0.27181 0.19096 0.0
H1621 H 0.22569 0.2577 0.33554 0.0
H1622 H 0.23657 0.26445 0.14502 0.0
H1623 H 0.23534 0.25697 0.04795 0.0
H1624 H 0.26077 0.21298 0.08204 0.0
H1625 H 0.26189 0.22006 0.17955 0.0
C1626 C 0.30156 0.2691 0.38819 0.0
C1627 C 0.31109 0.25523 0.39559 0.0
C1628 C 0.28724 0.26837 0.35815 0.0
C1629 C 0.28216 0.25376 0.33483 0.0
C1630 C 0.2922 0.24017 0.33894 0.0
C1631 C 0.30651 0.24087 0.36928 0.0
C1632 C 0.26591 0.25243 0.30948 0.0
C1633 C 0.26468 0.24778 0.25471 0.0
C1634 C 0.25165 0.25601 0.33904 0.0
C1635 C 0.2521 0.26003 0.39794 0.0
C1636 C 0.2594 0.24947 0.43544 0.0
C1637 C 0.26007 0.25346 0.4907 0.0
C1638 C 0.25333 0.26792 0.50908 0.0
C1639 C 0.24586 0.27839 0.47224 0.0
C1640 C 0.24521 0.27447 0.4169 0.0
C1641 C 0.19985 0.23269 0.18175 0.0
C1642 C 0.19013 0.24635 0.17289 0.0
C1643 C 0.2142 0.2339 0.21136 0.0
C1644 C 0.21914 0.2488 0.23287 0.0
C1645 C 0.20896 0.26224 0.22718 0.0
C1646 C 0.19462 0.26106 0.19716 0.0
C1647 C 0.23539 0.25049 0.25799 0.0
C1648 C 0.23661 0.25519 0.31271 0.0
C1649 C 0.24963 0.24692 0.22845 0.0
C1650 C 0.24917 0.24271 0.16971 0.0
C1651 C 0.24179 0.25312 0.13191 0.0
C1652 C 0.24112 0.24896 0.07679 0.0
C1653 C 0.24794 0.23449 0.05886 0.0
C1654 C 0.25547 0.22417 0.09601 0.0
C1655 C 0.25613 0.22826 0.15121 0.0
H1656 H 0.24741 0.23129 0.01617 0.0
H1657 H 0.25386 0.27099 0.55187 0.0
H1658 H 0.31764 0.73946 0.7179 0.0
H1659 H 0.2931 0.73981 0.77382 0.0
H1660 H 0.27195 0.7748 0.66477 0.0
H1661 H 0.29669 0.77532 0.61183 0.0
H1662 H 0.26246 0.78234 0.75477 0.0
H1663 H 0.2634 0.73135 0.66459 0.0
H1664 H 0.27446 0.70497 0.6369 0.0
H1665 H 0.27598 0.68988 0.80408 0.0
H1666 H 0.26511 0.71626 0.83282 0.0
H1667 H 0.18386 0.73634 0.85602 0.0
H1668 H 0.20782 0.73768 0.79736 0.0
H1669 H 0.22817 0.77416 0.90231 0.0
H1670 H 0.20403 0.77358 0.95829 0.0
H1671 H 0.23703 0.73069 0.80955 0.0
H1672 H 0.25399 0.79838 0.84204 0.0
H1673 H 0.24029 0.82457 0.85382 0.0
H1674 H 0.1982 0.80605 0.77344 0.0
H1675 H 0.2117 0.77982 0.76054 0.0
C1676 C 0.30783 0.74742 0.70666 0.0
C1677 C 0.30914 0.75741 0.66064 0.0
C1678 C 0.2937 0.74748 0.73819 0.0
C1679 C 0.28037 0.75706 0.72309 0.0
C1680 C 0.28194 0.7673 0.67778 0.0
C1681 C 0.29616 0.76759 0.64737 0.0
C1682 C 0.26471 0.75643 0.75351 0.0
C1683 C 0.25695 0.77101 0.76662 0.0
C1684 C 0.2571 0.74171 0.76796 0.0
C1685 C 0.2636 0.72583 0.75087 0.0
C1686 C 0.26619 0.72244 0.69546 0.0
C1687 C 0.27241 0.70749 0.67958 0.0
C1688 C 0.27596 0.69577 0.71872 0.0
C1689 C 0.27325 0.69898 0.77382 0.0
C1690 C 0.26705 0.71392 0.78992 0.0
C1691 C 0.19333 0.74488 0.86568 0.0
C1692 C 0.19192 0.75503 0.91125 0.0
C1693 C 0.2071 0.74556 0.83244 0.0
C1694 C 0.21984 0.75621 0.84463 0.0
C1695 C 0.21842 0.7662 0.89059 0.0
C1696 C 0.20455 0.76582 0.92286 0.0
C1697 C 0.23485 0.7566 0.81076 0.0
C1698 C 0.24252 0.74201 0.79735 0.0
C1699 C 0.24199 0.77129 0.79356 0.0
C1700 C 0.23382 0.78708 0.80081 0.0
C1701 C 0.24183 0.79992 0.82669 0.0
C1702 C 0.2341 0.81477 0.8336 0.0
C1703 C 0.21837 0.81696 0.81454 0.0
C1704 C 0.21036 0.80432 0.78837 0.0
C1705 C 0.21804 0.78945 0.78131 0.0
H1706 H 0.2124 0.82846 0.81996 0.0
H1707 H 0.28077 0.6842 0.70634 0.0
H1708 H 0.52044 0.94091 0.12728 0.0
H1709 H 0.5196 0.96601 0.07428 0.0
H1710 H 0.47288 0.97703 0.14173 0.0
H1711 H 0.47355 0.95199 0.1943 0.0
H1712 H 0.49763 0.97915 0.9972 0.0
H1713 H 0.47329 0.01711 0.17459 0.0
H1714 H 0.47307 0.01698 0.27507 0.0
H1715 H 0.51809 0.99137 0.27672 0.0
H1716 H 0.51859 0.99137 0.17632 0.0
H1717 H 0.47033 0.05562 0.90688 0.0
H1718 H 0.47115 0.03088 0.96094 0.0
H1719 H 0.51788 0.04418 0.02324 0.0
H1720 H 0.51733 0.06893 0.96818 0.0
H1721 H 0.49508 0.03011 0.10319 0.0
H1722 H 0.51898 0.0198 0.92717 0.0
H1723 H 0.51946 0.02019 0.8268 0.0
H1724 H 0.47683 0.9908 0.82231 0.0
H1725 H 0.47599 0.9904 0.92274 0.0
C1726 C 0.50984 0.94852 0.12992 0.0
C1727 C 0.49707 0.94445 0.16506 0.0
C1728 C 0.5094 0.96287 0.09971 0.0
C1729 C 0.49629 0.97351 0.10466 0.0
C1730 C 0.48321 0.9691 0.13775 0.0
C1731 C 0.48357 0.95471 0.16752 0.0
C1732 C 0.49658 0.98955 0.07744 0.0
C1733 C 0.49708 0.99028 0.02039 0.0
C1734 C 0.49599 0.00411 0.10763 0.0
C1735 C 0.4959 0.00414 0.16799 0.0
C1736 C 0.48315 0.01148 0.19644 0.0
C1737 C 0.48296 0.01139 0.25336 0.0
C1738 C 0.49551 0.00409 0.28227 0.0
C1739 C 0.50831 0.9969 0.25431 0.0
C1740 C 0.50853 0.99691 0.19739 0.0
C1741 C 0.48065 0.0535 0.93293 0.0
C1742 C 0.49378 0.06426 0.93316 0.0
C1743 C 0.48112 0.03929 0.96359 0.0
C1744 C 0.49464 0.03562 0.99564 0.0
C1745 C 0.50735 0.04679 0.99868 0.0
C1746 C 0.507 0.06093 0.96731 0.0
C1747 C 0.49586 0.01968 0.02304 0.0
C1748 C 0.49564 0.01898 0.08006 0.0
C1749 C 0.49673 0.00515 0.99282 0.0
C1750 C 0.49734 0.0052 0.93246 0.0
C1751 C 0.50964 0.01352 0.90478 0.0
C1752 C 0.50999 0.01373 0.84788 0.0
C1753 C 0.49815 0.00558 0.8182 0.0
C1754 C 0.48598 0.99714 0.84536 0.0
C1755 C 0.48557 0.9969 0.90227 0.0
H1756 H 0.49842 0.00575 0.77416 0.0
H1757 H 0.49533 0.00406 0.32631 0.0
H1758 H 0.97304 0.05706 0.65406 0.0
H1759 H 0.97321 0.03197 0.6018 0.0
H1760 H 0.02434 0.03706 0.57485 0.0
H1761 H 0.0243 0.06219 0.62754 0.0
H1762 H 0.00724 0.02426 0.48331 0.0
H1763 H 0.01329 0.01555 0.6749 0.0
H1764 H 0.00584 0.01884 0.77137 0.0
H1765 H 0.96072 0.99497 0.74188 0.0
H1766 H 0.96766 0.99204 0.64468 0.0
H1767 H 0.02642 0.94335 0.42634 0.0
H1768 H 0.026 0.9685 0.47823 0.0
H1769 H 0.9746 0.96396 0.49964 0.0
H1770 H 0.97486 0.93881 0.44706 0.0
H1771 H 0.99182 0.97646 0.59367 0.0
H1772 H 0.9863 0.98497 0.401 0.0
H1773 H 0.99445 0.98133 0.30527 0.0
H1774 H 0.03931 0.00537 0.33749 0.0
H1775 H 0.03167 0.00865 0.43396 0.0
C1776 C 0.98426 0.05308 0.63588 0.0
C1777 C 0.99869 0.06157 0.64529 0.0
C1778 C 0.98434 0.03869 0.60619 0.0
C1779 C 0.99882 0.03252 0.58515 0.0
C1780 C 0.01303 0.04158 0.59086 0.0
C1781 C 0.01299 0.05595 0.62097 0.0
C1782 C 0.99937 0.01595 0.562 0.0
C1783 C 0.00403 0.0138 0.50754 0.0
C1784 C 0.995 0.0023 0.59356 0.0
C1785 C 0.99092 0.00374 0.65228 0.0
C1786 C 0.00171 0.01114 0.68882 0.0
C1787 C 0.99758 0.01294 0.74366 0.0
C1788 C 0.98282 0.00711 0.76277 0.0
C1789 C 0.97215 0.99949 0.72701 0.0
C1790 C 0.97616 0.99779 0.67199 0.0
C1791 C 0.01507 0.94744 0.44328 0.0
C1792 C 0.00065 0.93912 0.43227 0.0
C1793 C 0.01486 0.96188 0.47272 0.0
C1794 C 1.00024 0.96821 0.49206 0.0
C1795 C 0.986 0.95929 0.48492 0.0
C1796 C 0.98618 0.94492 0.45492 0.0
C1797 C 0.99964 0.98478 0.515 0.0
C1798 C 0.99499 0.98693 0.56942 0.0
C1799 C 0.00407 0.99841 0.48344 0.0
C1800 C 0.00849 0.99688 0.42499 0.0
C1801 C 0.99798 0.98933 0.38788 0.0
C1802 C 0.00251 0.98731 0.33348 0.0
C1803 C 0.0174 0.99309 0.31534 0.0
C1804 C 0.02778 0.00088 0.35161 0.0
C1805 C 0.02338 0.00279 0.40621 0.0
H1806 H 0.02086 0.99156 0.27317 0.0
H1807 H 0.97967 0.00848 0.80529 0.0
loop_
_geom_bond_atom_site_label_1
_geom_bond_atom_site_label_2
_geom_bond_distance
_geom_bond_site_symmetry_2
_ccdc_geom_bond_type
In0 O1 2.294 1_455 S
In0 O2 2.326 . S
In0 O6 2.266 1_455 S
In0 O7 2.326 1_455 S
In0 O8 2.266 . S
In0 O9 2.326 . S
In0 O11 2.294 . S
In0 O12 2.326 1_455 S
O1 In0 2.294 1_655 S
O1 C10 1.240 1_655 S
O2 In0 2.326 . S
O2 C10 1.252 . S
C3 O6 1.252 . S
C3 O7 1.260 . S
C4 O11 1.240 1_655 S
C4 O12 1.252 . S
C5 O8 1.252 . S
C5 O9 1.260 . S
O6 In0 2.266 1_655 S
O6 C3 1.252 . S
O7 In0 2.326 1_655 S
O7 C3 1.260 . S
O8 In0 2.266 . S
O8 C5 1.252 . S
O9 In0 2.326 . S
O9 C5 1.260 . S
C10 O1 1.240 1_455 S
C10 O2 1.252 . S
O11 In0 2.294 . S
O11 C4 1.240 1_455 S
O12 In0 2.326 1_655 S
O12 C4 1.252 . S
In13 O14 2.294 . S
In13 O15 2.326 . S
In13 O19 2.266 . S
In13 O20 2.326 . S
In13 O21 2.266 . S
In13 O22 2.326 . S
In13 O24 2.294 . S
In13 O25 2.326 . S
O14 In13 2.294 . S
O14 C23 1.240 . S
O15 In13 2.326 . S
O15 C23 1.252 . S
C16 O19 1.252 . S
C16 O20 1.260 . S
C17 O24 1.240 . S
C17 O25 1.252 . S
C18 O21 1.252 . S
C18 O22 1.260 . S
O19 In13 2.266 . S
O19 C16 1.252 . S
O20 In13 2.326 . S
O20 C16 1.260 . S
O21 In13 2.266 . S
O21 C18 1.252 . S
O22 In13 2.326 . S
O22 C18 1.260 . S
C23 O14 1.240 . S
C23 O15 1.252 . S
O24 In13 2.294 . S
O24 C17 1.240 . S
O25 In13 2.326 . S
O25 C17 1.252 . S
In26 O27 2.294 . S
In26 O28 2.326 . S
In26 O32 2.266 . S
In26 O33 2.326 . S
In26 O34 2.266 . S
In26 O35 2.326 . S
In26 O37 2.294 . S
In26 O38 2.326 . S
O27 In26 2.294 . S
O27 C36 1.240 . S
O28 In26 2.326 . S
O28 C36 1.252 . S
C29 O32 1.252 . S
C29 O33 1.260 . S
C30 O37 1.240 . S
C30 O38 1.252 . S
C31 O34 1.252 . S
C31 O35 1.260 . S
O32 In26 2.266 . S
O32 C29 1.252 . S
O33 In26 2.326 . S
O33 C29 1.260 . S
O34 In26 2.266 . S
O34 C31 1.252 . S
O35 In26 2.326 . S
O35 C31 1.260 . S
C36 O27 1.240 . S
C36 O28 1.252 . S
O37 In26 2.294 . S
O37 C30 1.240 . S
O38 In26 2.326 . S
O38 C30 1.252 . S
In39 O40 2.293 1_554 S
In39 O41 2.326 1_554 S
In39 O45 2.266 1_554 S
In39 O46 2.326 . S
In39 O47 2.266 . S
In39 O48 2.325 1_554 S
In39 O50 2.295 . S
In39 O51 2.327 . S
O40 In39 2.293 1_556 S
O40 C49 1.240 . S
O41 In39 2.326 1_556 S
O41 C49 1.252 . S
C42 O45 1.252 1_554 S
C42 O46 1.260 . S
C43 O50 1.240 . S
C43 O51 1.252 . S
C44 O47 1.252 1_556 S
C44 O48 1.260 . S
O45 In39 2.266 1_556 S
O45 C42 1.252 1_556 S
O46 In39 2.326 . S
O46 C42 1.260 . S
O47 In39 2.266 . S
O47 C44 1.252 1_554 S
O48 In39 2.325 1_556 S
O48 C44 1.260 . S
C49 O40 1.240 . S
C49 O41 1.252 . S
O50 In39 2.295 . S
O50 C43 1.240 . S
O51 In39 2.327 . S
O51 C43 1.252 . S
In52 O53 2.294 . S
In52 O54 2.326 1_455 S
In52 O58 2.266 . S
In52 O59 2.326 . S
In52 O60 2.266 1_455 S
In52 O61 2.326 1_455 S
In52 O63 2.294 1_455 S
In52 O64 2.326 . S
O53 In52 2.294 . S
O53 C62 1.240 1_455 S
O54 In52 2.326 1_655 S
O54 C62 1.252 . S
C55 O58 1.252 . S
C55 O59 1.260 . S
C56 O63 1.240 1_455 S
C56 O64 1.252 . S
C57 O60 1.252 . S
C57 O61 1.260 . S
O58 In52 2.266 . S
O58 C55 1.252 . S
O59 In52 2.326 . S
O59 C55 1.260 . S
O60 In52 2.266 1_655 S
O60 C57 1.252 . S
O61 In52 2.326 1_655 S
O61 C57 1.260 . S
C62 O53 1.240 1_655 S
C62 O54 1.252 . S
O63 In52 2.294 1_655 S
O63 C56 1.240 1_655 S
O64 In52 2.326 . S
O64 C56 1.252 . S
In65 O66 2.294 . S
In65 O67 2.326 . S
In65 O71 2.266 . S
In65 O72 2.326 . S
In65 O73 2.266 . S
In65 O74 2.326 . S
In65 O76 2.294 . S
In65 O77 2.326 . S
O66 In65 2.294 . S
O66 C75 1.240 . S
O67 In65 2.326 . S
O67 C75 1.252 . S
C68 O71 1.252 . S
C68 O72 1.260 . S
C69 O76 1.240 1_556 S
C69 O77 1.252 1_556 S
C70 O73 1.252 . S
C70 O74 1.260 . S
O71 In65 2.266 . S
O71 C68 1.252 . S
O72 In65 2.326 . S
O72 C68 1.260 . S
O73 In65 2.266 . S
O73 C70 1.252 . S
O74 In65 2.326 . S
O74 C70 1.260 . S
C75 O66 1.240 . S
C75 O67 1.252 . S
O76 In65 2.294 . S
O76 C69 1.240 1_554 S
O77 In65 2.326 . S
O77 C69 1.252 1_554 S
In78 O79 2.294 . S
In78 O80 2.326 . S
In78 O84 2.266 . S
In78 O85 2.326 . S
In78 O86 2.266 . S
In78 O87 2.326 . S
In78 O89 2.294 . S
In78 O90 2.326 . S
O79 In78 2.294 . S
O79 C88 1.240 . S
O80 In78 2.326 . S
O80 C88 1.252 . S
C81 O84 1.252 . S
C81 O85 1.260 . S
C82 O89 1.240 . S
C82 O90 1.252 . S
C83 O86 1.252 . S
C83 O87 1.260 . S
O84 In78 2.266 . S
O84 C81 1.252 . S
O85 In78 2.326 . S
O85 C81 1.260 . S
O86 In78 2.266 . S
O86 C83 1.252 . S
O87 In78 2.326 . S
O87 C83 1.260 . S
C88 O79 1.240 . S
C88 O80 1.252 . S
O89 In78 2.294 . S
O89 C82 1.240 . S
O90 In78 2.326 . S
O90 C82 1.252 . S
In91 O92 2.294 . S
In91 O93 2.326 . S
In91 O97 2.266 . S
In91 O98 2.326 . S
In91 O99 2.266 . S
In91 O100 2.326 . S
In91 O102 2.294 . S
In91 O103 2.326 . S
O92 In91 2.294 . S
O92 C101 1.240 . S
O93 In91 2.326 . S
O93 C101 1.252 . S
C94 O97 1.252 . S
C94 O98 1.260 . S
C95 O102 1.240 . S
C95 O103 1.252 . S
C96 O99 1.252 . S
C96 O100 1.260 . S
O97 In91 2.266 . S
O97 C94 1.252 . S
O98 In91 2.326 . S
O98 C94 1.260 . S
O99 In91 2.266 . S
O99 C96 1.252 . S
O100 In91 2.326 . S
O100 C96 1.260 . S
C101 O92 1.240 . S
C101 O93 1.252 . S
O102 In91 2.294 . S
O102 C95 1.240 . S
O103 In91 2.326 . S
O103 C95 1.252 . S
In104 O105 2.294 . S
In104 O106 2.326 . S
In104 O110 2.266 . S
In104 O111 2.326 . S
In104 O112 2.266 . S
In104 O113 2.326 . S
In104 O115 2.294 . S
In104 O116 2.326 . S
O105 In104 2.294 . S
O105 C114 1.240 . S
O106 In104 2.326 . S
O106 C114 1.252 . S
C107 O110 1.252 . S
C107 O111 1.260 . S
C108 O115 1.240 . S
C108 O116 1.252 . S
C109 O112 1.252 . S
C109 O113 1.260 . S
O110 In104 2.266 . S
O110 C107 1.252 . S
O111 In104 2.326 . S
O111 C107 1.260 . S
O112 In104 2.266 . S
O112 C109 1.252 . S
O113 In104 2.326 . S
O113 C109 1.260 . S
C114 O105 1.240 . S
C114 O106 1.252 . S
O115 In104 2.294 . S
O115 C108 1.240 . S
O116 In104 2.326 . S
O116 C108 1.252 . S
In117 O118 2.294 . S
In117 O119 2.326 . S
In117 O123 2.266 . S
In117 O124 2.326 . S
In117 O125 2.266 . S
In117 O126 2.326 . S
In117 O128 2.294 . S
In117 O129 2.326 . S
O118 In117 2.294 . S
O118 C127 1.240 1_554 S
O119 In117 2.326 . S
O119 C127 1.252 1_554 S
C120 O123 1.252 . S
C120 O124 1.260 . S
C121 O128 1.240 . S
C121 O129 1.252 . S
C122 O125 1.252 . S
C122 O126 1.260 . S
O123 In117 2.266 . S
O123 C120 1.252 . S
O124 In117 2.326 . S
O124 C120 1.260 . S
O125 In117 2.266 . S
O125 C122 1.252 . S
O126 In117 2.326 . S
O126 C122 1.260 . S
C127 O118 1.240 1_556 S
C127 O119 1.252 1_556 S
O128 In117 2.294 . S
O128 C121 1.240 . S
O129 In117 2.326 . S
O129 C121 1.252 . S
In130 O131 2.295 . S
In130 O132 2.327 . S
In130 O136 2.266 . S
In130 O137 2.325 1_554 S
In130 O138 2.266 1_554 S
In130 O139 2.326 . S
In130 O141 2.293 1_554 S
In130 O142 2.326 1_554 S
O131 In130 2.295 . S
O131 C140 1.240 . S
O132 In130 2.327 . S
O132 C140 1.252 . S
C133 O136 1.252 1_556 S
C133 O137 1.260 . S
C134 O141 1.240 . S
C134 O142 1.252 . S
C135 O138 1.252 1_554 S
C135 O139 1.260 . S
O136 In130 2.266 . S
O136 C133 1.252 1_554 S
O137 In130 2.325 1_556 S
O137 C133 1.260 . S
O138 In130 2.266 1_556 S
O138 C135 1.252 1_556 S
O139 In130 2.326 . S
O139 C135 1.260 . S
C140 O131 1.240 . S
C140 O132 1.252 . S
O141 In130 2.293 1_556 S
O141 C134 1.240 . S
O142 In130 2.326 1_556 S
O142 C134 1.252 . S
In143 O144 2.294 . S
In143 O145 2.326 . S
In143 O149 2.266 . S
In143 O150 2.326 . S
In143 O151 2.266 . S
In143 O152 2.326 . S
In143 O154 2.294 . S
In143 O155 2.326 . S
O144 In143 2.294 . S
O144 C153 1.240 . S
O145 In143 2.326 . S
O145 C153 1.252 . S
C146 O149 1.252 . S
C146 O150 1.260 . S
C147 O154 1.240 . S
C147 O155 1.252 . S
C148 O151 1.252 . S
C148 O152 1.260 . S
O149 In143 2.266 . S
O149 C146 1.252 . S
O150 In143 2.326 . S
O150 C146 1.260 . S
O151 In143 2.266 . S
O151 C148 1.252 . S
O152 In143 2.326 . S
O152 C148 1.260 . S
C153 O144 1.240 . S
C153 O145 1.252 . S
O154 In143 2.294 . S
O154 C147 1.240 . S
O155 In143 2.326 . S
O155 C147 1.252 . S
In156 O157 2.294 . S
In156 O158 2.326 . S
In156 O162 2.266 . S
In156 O163 2.326 . S
In156 O164 2.266 . S
In156 O165 2.326 . S
In156 O167 2.294 . S
In156 O168 2.326 . S
O157 In156 2.294 . S
O157 C166 1.240 . S
O158 In156 2.326 . S
O158 C166 1.252 . S
C159 O162 1.252 . S
C159 O163 1.260 . S
C160 O167 1.240 . S
C160 O168 1.252 . S
C161 O164 1.252 . S
C161 O165 1.260 . S
O162 In156 2.266 . S
O162 C159 1.252 . S
O163 In156 2.326 . S
O163 C159 1.260 . S
O164 In156 2.266 . S
O164 C161 1.252 . S
O165 In156 2.326 . S
O165 C161 1.260 . S
C166 O157 1.240 . S
C166 O158 1.252 . S
O167 In156 2.294 . S
O167 C160 1.240 . S
O168 In156 2.326 . S
O168 C160 1.252 . S
In169 O170 2.294 1_455 S
In169 O171 2.326 . S
In169 O175 2.266 1_455 S
In169 O176 2.326 1_455 S
In169 O177 2.266 . S
In169 O178 2.326 . S
In169 O180 2.294 . S
In169 O181 2.326 1_455 S
O170 In169 2.294 1_655 S
O170 C179 1.240 1_655 S
O171 In169 2.326 . S
O171 C179 1.252 . S
C172 O175 1.252 . S
C172 O176 1.260 . S
C173 O180 1.240 1_655 S
C173 O181 1.252 . S
C174 O177 1.252 . S
C174 O178 1.260 . S
O175 In169 2.266 1_655 S
O175 C172 1.252 . S
O176 In169 2.326 1_655 S
O176 C172 1.260 . S
O177 In169 2.266 . S
O177 C174 1.252 . S
O178 In169 2.326 . S
O178 C174 1.260 . S
C179 O170 1.240 1_455 S
C179 O171 1.252 . S
O180 In169 2.294 . S
O180 C173 1.240 1_455 S
O181 In169 2.326 1_655 S
O181 C173 1.252 . S
In182 O183 2.294 . S
In182 O184 2.326 . S
In182 O188 2.266 . S
In182 O189 2.326 . S
In182 O190 2.266 . S
In182 O191 2.326 . S
In182 O193 2.294 . S
In182 O194 2.326 . S
O183 In182 2.294 . S
O183 C192 1.240 . S
O184 In182 2.326 . S
O184 C192 1.252 . S
C185 O188 1.252 . S
C185 O189 1.260 . S
C186 O193 1.240 . S
C186 O194 1.252 . S
C187 O190 1.252 . S
C187 O191 1.260 . S
O188 In182 2.266 . S
O188 C185 1.252 . S
O189 In182 2.326 . S
O189 C185 1.260 . S
O190 In182 2.266 . S
O190 C187 1.252 . S
O191 In182 2.326 . S
O191 C187 1.260 . S
C192 O183 1.240 . S
C192 O184 1.252 . S
O193 In182 2.294 . S
O193 C186 1.240 . S
O194 In182 2.326 . S
O194 C186 1.252 . S
In195 O196 2.294 . S
In195 O197 2.326 1_455 S
In195 O201 2.266 . S
In195 O202 2.326 . S
In195 O203 2.266 1_455 S
In195 O204 2.326 1_455 S
In195 O206 2.294 1_455 S
In195 O207 2.326 . S
O196 In195 2.294 . S
O196 C205 1.240 1_455 S
O197 In195 2.326 1_655 S
O197 C205 1.252 . S
C198 O201 1.252 . S
C198 O202 1.260 . S
C199 O206 1.240 1_455 S
C199 O207 1.252 . S
C200 O203 1.252 . S
C200 O204 1.260 . S
O201 In195 2.266 . S
O201 C198 1.252 . S
O202 In195 2.326 . S
O202 C198 1.260 . S
O203 In195 2.266 1_655 S
O203 C200 1.252 . S
O204 In195 2.326 1_655 S
O204 C200 1.260 . S
C205 O196 1.240 1_655 S
C205 O197 1.252 . S
O206 In195 2.294 1_655 S
O206 C199 1.240 1_655 S
O207 In195 2.326 . S
O207 C199 1.252 . S
H208 C226 0.951 . S
H209 C228 0.951 . S
H210 C230 0.950 . S
H211 C231 0.950 . S
H212 C233 0.950 . S
H213 C236 0.950 . S
H214 C237 0.950 1_556 S
H215 C239 0.950 . S
H216 C240 0.950 . S
H217 C241 0.951 . S
H218 C243 0.951 . S
H219 C245 0.950 . S
H220 C246 0.950 . S
H221 C248 0.950 . S
H222 C251 0.950 . S
H223 C252 0.950 . S
H224 C254 0.950 . S
H225 C255 0.950 . S
C226 H208 0.951 . S
C226 C227 1.366 . S
C226 C228 1.388 . S
C227 C226 1.366 . S
C227 C231 1.385 . S
C228 H209 0.951 . S
C228 C226 1.388 . S
C228 C229 1.366 . S
C229 C228 1.366 . S
C229 C230 1.414 . S
C229 C232 1.499 . S
C230 H210 0.950 . S
C230 C229 1.414 . S
C230 C231 1.374 . S
C231 H211 0.950 . S
C231 C227 1.385 . S
C231 C230 1.374 . S
C232 C229 1.499 . S
C232 C233 1.373 . S
C232 C234 1.389 . S
C233 H212 0.950 . S
C233 C232 1.373 . S
C233 C249 1.377 . S
C234 C232 1.389 . S
C234 C235 1.524 . S
C234 C248 1.377 . S
C235 C234 1.524 . S
C235 C236 1.397 . S
C235 C240 1.363 . S
C236 H213 0.950 . S
C236 C235 1.397 . S
C236 C237 1.334 . S
C237 H214 0.950 1_554 S
C237 C236 1.334 . S
C237 C238 1.287 . S
C238 C237 1.287 . S
C238 C239 1.524 . S
C238 H257 0.913 1_554 S
C239 H215 0.950 . S
C239 C238 1.524 . S
C239 C240 1.415 . S
C240 H216 0.950 . S
C240 C235 1.363 . S
C240 C239 1.415 . S
C241 H217 0.951 . S
C241 C242 1.366 . S
C241 C243 1.388 . S
C242 C241 1.366 . S
C242 C246 1.385 . S
C243 H218 0.951 . S
C243 C241 1.388 . S
C243 C244 1.366 . S
C244 C243 1.366 . S
C244 C245 1.414 . S
C244 C247 1.499 . S
C245 H219 0.950 . S
C245 C244 1.414 . S
C245 C246 1.374 . S
C246 H220 0.950 . S
C246 C242 1.385 . S
C246 C245 1.374 . S
C247 C244 1.499 . S
C247 C248 1.373 . S
C247 C249 1.389 . S
C248 H221 0.950 . S
C248 C234 1.377 . S
C248 C247 1.373 . S
C249 C233 1.377 . S
C249 C247 1.389 . S
C249 C250 1.524 . S
C250 C249 1.524 . S
C250 C251 1.397 . S
C250 C255 1.363 . S
C251 H222 0.950 . S
C251 C250 1.397 . S
C251 C252 1.334 . S
C252 H223 0.950 . S
C252 C251 1.334 . S
C252 C253 1.287 . S
C253 C252 1.287 . S
C253 C254 1.524 . S
C253 H256 0.999 . S
C254 H224 0.950 . S
C254 C253 1.524 . S
C254 C255 1.415 . S
C255 H225 0.950 . S
C255 C250 1.363 . S
C255 C254 1.415 . S
H256 C253 0.999 . S
H257 C238 0.913 1_556 S
H258 C276 0.951 . S
H259 C278 0.951 . S
H260 C280 0.950 . S
H261 C281 0.950 . S
H262 C283 0.950 . S
H263 C286 0.950 . S
H264 C287 0.950 . S
H265 C289 0.950 . S
H266 C290 0.950 . S
H267 C291 0.951 . S
H268 C293 0.951 . S
H269 C295 0.950 . S
H270 C296 0.950 . S
H271 C298 0.950 . S
H272 C301 0.950 . S
H273 C302 0.950 . S
H274 C304 0.950 . S
H275 C305 0.950 . S
C276 H258 0.951 . S
C276 C277 1.366 . S
C276 C278 1.388 . S
C277 C276 1.366 . S
C277 C281 1.385 . S
C278 H259 0.951 . S
C278 C276 1.388 . S
C278 C279 1.366 . S
C279 C278 1.366 . S
C279 C280 1.414 . S
C279 C282 1.499 . S
C280 H260 0.950 . S
C280 C279 1.414 . S
C280 C281 1.374 . S
C281 H261 0.950 . S
C281 C277 1.385 . S
C281 C280 1.374 . S
C282 C279 1.499 . S
C282 C283 1.373 . S
C282 C284 1.389 . S
C283 H262 0.950 . S
C283 C282 1.373 . S
C283 C299 1.377 . S
C284 C282 1.389 . S
C284 C285 1.524 . S
C284 C298 1.377 . S
C285 C284 1.524 . S
C285 C286 1.397 . S
C285 C290 1.363 . S
C286 H263 0.950 . S
C286 C285 1.397 . S
C286 C287 1.334 . S
C287 H264 0.950 . S
C287 C286 1.334 . S
C287 C288 1.287 . S
C288 C287 1.287 . S
C288 C289 1.524 . S
C288 H307 0.913 . S
C289 H265 0.950 . S
C289 C288 1.524 . S
C289 C290 1.415 . S
C290 H266 0.950 . S
C290 C285 1.363 . S
C290 C289 1.415 . S
C291 H267 0.951 . S
C291 C292 1.366 . S
C291 C293 1.388 . S
C292 C291 1.366 . S
C292 C296 1.385 . S
C293 H268 0.951 . S
C293 C291 1.388 . S
C293 C294 1.366 . S
C294 C293 1.366 . S
C294 C295 1.414 . S
C294 C297 1.499 . S
C295 H269 0.950 . S
C295 C294 1.414 . S
C295 C296 1.374 . S
C296 H270 0.950 . S
C296 C292 1.385 . S
C296 C295 1.374 . S
C297 C294 1.499 . S
C297 C298 1.373 . S
C297 C299 1.389 . S
C298 H271 0.950 . S
C298 C284 1.377 . S
C298 C297 1.373 . S
C299 C283 1.377 . S
C299 C297 1.389 . S
C299 C300 1.524 . S
C300 C299 1.524 . S
C300 C301 1.397 . S
C300 C305 1.363 . S
C301 H272 0.950 . S
C301 C300 1.397 . S
C301 C302 1.334 . S
C302 H273 0.950 . S
C302 C301 1.334 . S
C302 C303 1.287 . S
C303 C302 1.287 . S
C303 C304 1.524 . S
C303 H306 0.999 . S
C304 H274 0.950 . S
C304 C303 1.524 . S
C304 C305 1.415 . S
C305 H275 0.950 . S
C305 C300 1.363 . S
C305 C304 1.415 . S
H306 C303 0.999 . S
H307 C288 0.913 . S
H308 C326 0.951 . S
H309 C328 0.951 . S
H310 C330 0.950 . S
H311 C331 0.950 . S
H312 C333 0.950 . S
H313 C336 0.950 . S
H314 C337 0.950 . S
H315 C339 0.950 . S
H316 C340 0.950 . S
H317 C341 0.951 . S
H318 C343 0.951 . S
H319 C345 0.950 . S
H320 C346 0.950 . S
H321 C348 0.950 . S
H322 C351 0.950 . S
H323 C352 0.950 . S
H324 C354 0.950 . S
H325 C355 0.950 . S
C326 H308 0.951 . S
C326 C327 1.366 . S
C326 C328 1.388 . S
C327 C326 1.366 . S
C327 C331 1.385 . S
C328 H309 0.951 . S
C328 C326 1.388 . S
C328 C329 1.366 . S
C329 C328 1.366 . S
C329 C330 1.414 . S
C329 C332 1.499 . S
C330 H310 0.950 . S
C330 C329 1.414 . S
C330 C331 1.374 . S
C331 H311 0.950 . S
C331 C327 1.385 . S
C331 C330 1.374 . S
C332 C329 1.499 . S
C332 C333 1.373 . S
C332 C334 1.389 . S
C333 H312 0.950 . S
C333 C332 1.373 . S
C333 C349 1.377 . S
C334 C332 1.389 . S
C334 C335 1.524 . S
C334 C348 1.377 . S
C335 C334 1.524 . S
C335 C336 1.397 . S
C335 C340 1.363 . S
C336 H313 0.950 . S
C336 C335 1.397 . S
C336 C337 1.334 . S
C337 H314 0.950 . S
C337 C336 1.334 . S
C337 C338 1.287 . S
C338 C337 1.287 . S
C338 C339 1.524 . S
C338 H357 0.913 . S
C339 H315 0.950 . S
C339 C338 1.524 . S
C339 C340 1.415 . S
C340 H316 0.950 . S
C340 C335 1.363 . S
C340 C339 1.415 . S
C341 H317 0.951 . S
C341 C342 1.366 . S
C341 C343 1.388 . S
C342 C341 1.366 . S
C342 C346 1.385 . S
C343 H318 0.951 . S
C343 C341 1.388 . S
C343 C344 1.366 . S
C344 C343 1.366 . S
C344 C345 1.414 . S
C344 C347 1.499 . S
C345 H319 0.950 . S
C345 C344 1.414 . S
C345 C346 1.374 . S
C346 H320 0.950 . S
C346 C342 1.385 . S
C346 C345 1.374 . S
C347 C344 1.499 . S
C347 C348 1.373 . S
C347 C349 1.389 . S
C348 H321 0.950 . S
C348 C334 1.377 . S
C348 C347 1.373 . S
C349 C333 1.377 . S
C349 C347 1.389 . S
C349 C350 1.524 . S
C350 C349 1.524 . S
C350 C351 1.397 . S
C350 C355 1.363 . S
C351 H322 0.950 . S
C351 C350 1.397 . S
C351 C352 1.334 . S
C352 H323 0.950 . S
C352 C351 1.334 . S
C352 C353 1.287 . S
C353 C352 1.287 . S
C353 C354 1.524 . S
C353 H356 0.999 . S
C354 H324 0.950 . S
C354 C353 1.524 . S
C354 C355 1.415 . S
C355 H325 0.950 . S
C355 C350 1.363 . S
C355 C354 1.415 . S
H356 C353 0.999 . S
H357 C338 0.913 . S
H358 C376 0.936 1_554 S
H359 C378 0.951 1_554 S
H360 C380 0.950 . S
H361 C381 0.950 . S
H362 C383 0.950 . S
H363 C386 0.950 . S
H364 C387 0.950 . S
H365 C389 0.950 . S
H366 C390 0.950 . S
H367 C391 0.951 . S
H368 C393 0.951 . S
H369 C395 0.950 . S
H370 C396 0.950 . S
H371 C398 0.950 . S
H372 C401 0.950 . S
H373 C402 0.950 . S
H374 C404 0.950 . S
H375 C405 0.950 . S
C376 H358 0.936 1_556 S
C376 C377 1.377 . S
C376 C378 1.391 . S
C377 C376 1.377 . S
C377 C381 1.385 . S
C378 H359 0.951 1_556 S
C378 C376 1.391 . S
C378 C379 1.366 . S
C379 C378 1.366 . S
C379 C380 1.414 . S
C379 C382 1.499 . S
C380 H360 0.950 . S
C380 C379 1.414 . S
C380 C381 1.374 . S
C381 H361 0.950 . S
C381 C377 1.385 . S
C381 C380 1.374 . S
C382 C379 1.499 . S
C382 C383 1.373 . S
C382 C384 1.389 . S
C383 H362 0.950 . S
C383 C382 1.373 . S
C383 C399 1.377 . S
C384 C382 1.389 . S
C384 C385 1.524 . S
C384 C398 1.377 . S
C385 C384 1.524 . S
C385 C386 1.397 . S
C385 C390 1.363 1_556 S
C386 H363 0.950 . S
C386 C385 1.397 . S
C386 C387 1.334 . S
C387 H364 0.950 . S
C387 C386 1.334 . S
C387 C388 1.287 . S
C388 C387 1.287 . S
C388 C389 1.524 1_556 S
C388 H407 0.913 1_556 S
C389 H365 0.950 . S
C389 C388 1.524 1_554 S
C389 C390 1.415 . S
C390 H366 0.950 . S
C390 C385 1.363 1_554 S
C390 C389 1.415 . S
C391 H367 0.951 . S
C391 C392 1.366 . S
C391 C393 1.388 . S
C392 C391 1.366 . S
C392 C396 1.385 . S
C393 H368 0.951 . S
C393 C391 1.388 . S
C393 C394 1.366 . S
C394 C393 1.366 . S
C394 C395 1.414 . S
C394 C397 1.499 . S
C395 H369 0.950 . S
C395 C394 1.414 . S
C395 C396 1.374 . S
C396 H370 0.950 . S
C396 C392 1.385 . S
C396 C395 1.374 . S
C397 C394 1.499 . S
C397 C398 1.373 . S
C397 C399 1.389 . S
C398 H371 0.950 . S
C398 C384 1.377 . S
C398 C397 1.373 . S
C399 C383 1.377 . S
C399 C397 1.389 . S
C399 C400 1.524 . S
C400 C399 1.524 . S
C400 C401 1.397 . S
C400 C405 1.363 . S
C401 H372 0.950 . S
C401 C400 1.397 . S
C401 C402 1.334 . S
C402 H373 0.950 . S
C402 C401 1.334 . S
C402 C403 1.287 . S
C403 C402 1.287 . S
C403 C404 1.524 . S
C403 H406 0.999 . S
C404 H374 0.950 . S
C404 C403 1.524 . S
C404 C405 1.415 . S
C405 H375 0.950 . S
C405 C400 1.363 . S
C405 C404 1.415 . S
H406 C403 0.999 . S
H407 C388 0.913 1_554 S
H408 C426 0.951 . S
H409 C428 0.951 . S
H410 C430 0.950 . S
H411 C431 0.950 . S
H412 C433 0.950 . S
H413 C436 0.950 . S
H414 C437 0.950 . S
H415 C439 0.950 . S
H416 C440 0.950 . S
H417 C441 0.951 1_554 S
H418 C443 0.951 . S
H419 C445 0.950 . S
H420 C446 0.950 . S
H421 C448 0.950 . S
H422 C451 0.950 . S
H423 C452 0.950 . S
H424 C454 0.950 . S
H425 C455 0.950 . S
C426 H408 0.951 . S
C426 C427 1.366 . S
C426 C428 1.388 . S
C427 C426 1.366 . S
C427 C431 1.385 . S
C428 H409 0.951 . S
C428 C426 1.388 . S
C428 C429 1.366 . S
C429 C428 1.366 . S
C429 C430 1.414 . S
C429 C432 1.499 . S
C430 H410 0.950 . S
C430 C429 1.414 . S
C430 C431 1.374 . S
C431 H411 0.950 . S
C431 C427 1.385 . S
C431 C430 1.374 . S
C432 C429 1.499 . S
C432 C433 1.373 . S
C432 C434 1.389 . S
C433 H412 0.950 . S
C433 C432 1.373 . S
C433 C449 1.377 . S
C434 C432 1.389 . S
C434 C435 1.524 . S
C434 C448 1.377 . S
C435 C434 1.524 . S
C435 C436 1.397 . S
C435 C440 1.363 . S
C436 H413 0.950 . S
C436 C435 1.397 . S
C436 C437 1.334 1_556 S
C437 H414 0.950 . S
C437 C436 1.334 1_554 S
C437 C438 1.287 1_554 S
C438 C437 1.287 1_556 S
C438 C439 1.524 . S
C438 H457 0.913 . S
C439 H415 0.950 . S
C439 C438 1.524 . S
C439 C440 1.415 . S
C440 H416 0.950 . S
C440 C435 1.363 . S
C440 C439 1.415 . S
C441 H417 0.951 1_556 S
C441 C442 1.366 . S
C441 C443 1.388 . S
C442 C441 1.366 . S
C442 C446 1.385 . S
C443 H418 0.951 . S
C443 C441 1.388 . S
C443 C444 1.366 . S
C444 C443 1.366 . S
C444 C445 1.414 . S
C444 C447 1.499 . S
C445 H419 0.950 . S
C445 C444 1.414 . S
C445 C446 1.374 . S
C446 H420 0.950 . S
C446 C442 1.385 . S
C446 C445 1.374 . S
C447 C444 1.499 . S
C447 C448 1.373 . S
C447 C449 1.389 . S
C448 H421 0.950 . S
C448 C434 1.377 . S
C448 C447 1.373 . S
C449 C433 1.377 . S
C449 C447 1.389 . S
C449 C450 1.524 . S
C450 C449 1.524 . S
C450 C451 1.397 . S
C450 C455 1.363 . S
C451 H422 0.950 . S
C451 C450 1.397 . S
C451 C452 1.334 . S
C452 H423 0.950 . S
C452 C451 1.334 . S
C452 C453 1.287 . S
C453 C452 1.287 . S
C453 C454 1.524 . S
C453 H456 0.999 . S
C454 H424 0.950 . S
C454 C453 1.524 . S
C454 C455 1.415 . S
C455 H425 0.950 . S
C455 C450 1.363 . S
C455 C454 1.415 . S
H456 C453 0.999 . S
H457 C438 0.913 . S
H458 C476 0.951 . S
H459 C478 0.951 . S
H460 C480 0.950 . S
H461 C481 0.950 . S
H462 C483 0.950 . S
H463 C486 0.950 . S
H464 C487 0.950 . S
H465 C489 0.950 . S
H466 C490 0.950 . S
H467 C491 0.951 . S
H468 C493 0.951 . S
H469 C495 0.950 . S
H470 C496 0.950 . S
H471 C498 0.950 . S
H472 C501 0.950 . S
H473 C502 0.950 . S
H474 C504 0.950 . S
H475 C505 0.950 . S
C476 H458 0.951 . S
C476 C477 1.366 . S
C476 C478 1.388 . S
C477 C476 1.366 . S
C477 C481 1.385 . S
C478 H459 0.951 . S
C478 C476 1.388 . S
C478 C479 1.366 . S
C479 C478 1.366 . S
C479 C480 1.414 . S
C479 C482 1.499 . S
C480 H460 0.950 . S
C480 C479 1.414 . S
C480 C481 1.374 . S
C481 H461 0.950 . S
C481 C477 1.385 . S
C481 C480 1.374 . S
C482 C479 1.499 . S
C482 C483 1.373 . S
C482 C484 1.389 . S
C483 H462 0.950 . S
C483 C482 1.373 . S
C483 C499 1.377 . S
C484 C482 1.389 . S
C484 C485 1.524 . S
C484 C498 1.377 . S
C485 C484 1.524 . S
C485 C486 1.397 . S
C485 C490 1.363 . S
C486 H463 0.950 . S
C486 C485 1.397 . S
C486 C487 1.334 . S
C487 H464 0.950 . S
C487 C486 1.334 . S
C487 C488 1.287 . S
C488 C487 1.287 . S
C488 C489 1.524 . S
C488 H507 0.913 . S
C489 H465 0.950 . S
C489 C488 1.524 . S
C489 C490 1.415 . S
C490 H466 0.950 . S
C490 C485 1.363 . S
C490 C489 1.415 . S
C491 H467 0.951 . S
C491 C492 1.366 . S
C491 C493 1.388 . S
C492 C491 1.366 . S
C492 C496 1.385 . S
C493 H468 0.951 . S
C493 C491 1.388 . S
C493 C494 1.366 . S
C494 C493 1.366 . S
C494 C495 1.414 . S
C494 C497 1.499 . S
C495 H469 0.950 . S
C495 C494 1.414 . S
C495 C496 1.374 . S
C496 H470 0.950 . S
C496 C492 1.385 . S
C496 C495 1.374 . S
C497 C494 1.499 . S
C497 C498 1.373 . S
C497 C499 1.389 . S
C498 H471 0.950 . S
C498 C484 1.377 . S
C498 C497 1.373 . S
C499 C483 1.377 . S
C499 C497 1.389 . S
C499 C500 1.524 . S
C500 C499 1.524 . S
C500 C501 1.397 . S
C500 C505 1.363 . S
C501 H472 0.950 . S
C501 C500 1.397 . S
C501 C502 1.334 . S
C502 H473 0.950 . S
C502 C501 1.334 . S
C502 C503 1.287 . S
C503 C502 1.287 . S
C503 C504 1.524 . S
C503 H506 0.999 . S
C504 H474 0.950 . S
C504 C503 1.524 . S
C504 C505 1.415 . S
C505 H475 0.950 . S
C505 C500 1.363 . S
C505 C504 1.415 . S
H506 C503 0.999 . S
H507 C488 0.913 . S
H508 C526 0.951 . S
H509 C528 0.951 . S
H510 C530 0.950 . S
H511 C531 0.950 . S
H512 C533 0.950 . S
H513 C536 0.950 . S
H514 C537 0.950 . S
H515 C539 0.950 . S
H516 C540 0.950 . S
H517 C541 0.951 . S
H518 C543 0.951 . S
H519 C545 0.950 . S
H520 C546 0.950 . S
H521 C548 0.950 . S
H522 C551 0.950 . S
H523 C552 0.950 . S
H524 C554 0.950 . S
H525 C555 0.950 . S
C526 H508 0.951 . S
C526 C527 1.366 . S
C526 C528 1.388 . S
C527 C526 1.366 . S
C527 C531 1.385 . S
C528 H509 0.951 . S
C528 C526 1.388 . S
C528 C529 1.366 . S
C529 C528 1.366 . S
C529 C530 1.414 . S
C529 C532 1.499 . S
C530 H510 0.950 . S
C530 C529 1.414 . S
C530 C531 1.374 . S
C531 H511 0.950 . S
C531 C527 1.385 . S
C531 C530 1.374 . S
C532 C529 1.499 . S
C532 C533 1.373 . S
C532 C534 1.389 . S
C533 H512 0.950 . S
C533 C532 1.373 . S
C533 C549 1.377 . S
C534 C532 1.389 . S
C534 C535 1.524 . S
C534 C548 1.377 . S
C535 C534 1.524 . S
C535 C536 1.397 . S
C535 C540 1.363 . S
C536 H513 0.950 . S
C536 C535 1.397 . S
C536 C537 1.334 . S
C537 H514 0.950 . S
C537 C536 1.334 . S
C537 C538 1.287 . S
C538 C537 1.287 . S
C538 C539 1.524 . S
C538 H557 0.913 . S
C539 H515 0.950 . S
C539 C538 1.524 . S
C539 C540 1.415 . S
C540 H516 0.950 . S
C540 C535 1.363 . S
C540 C539 1.415 . S
C541 H517 0.951 . S
C541 C542 1.366 . S
C541 C543 1.388 . S
C542 C541 1.366 . S
C542 C546 1.385 . S
C543 H518 0.951 . S
C543 C541 1.388 . S
C543 C544 1.366 . S
C544 C543 1.366 . S
C544 C545 1.414 . S
C544 C547 1.499 . S
C545 H519 0.950 . S
C545 C544 1.414 . S
C545 C546 1.374 . S
C546 H520 0.950 . S
C546 C542 1.385 . S
C546 C545 1.374 . S
C547 C544 1.499 . S
C547 C548 1.373 . S
C547 C549 1.389 . S
C548 H521 0.950 . S
C548 C534 1.377 . S
C548 C547 1.373 . S
C549 C533 1.377 . S
C549 C547 1.389 . S
C549 C550 1.524 . S
C550 C549 1.524 . S
C550 C551 1.397 . S
C550 C555 1.363 . S
C551 H522 0.950 . S
C551 C550 1.397 . S
C551 C552 1.334 . S
C552 H523 0.950 . S
C552 C551 1.334 . S
C552 C553 1.287 . S
C553 C552 1.287 . S
C553 C554 1.524 . S
C553 H556 0.999 . S
C554 H524 0.950 . S
C554 C553 1.524 . S
C554 C555 1.415 . S
C555 H525 0.950 . S
C555 C550 1.363 . S
C555 C554 1.415 . S
H556 C553 0.999 . S
H557 C538 0.913 . S
H558 C576 0.951 . S
H559 C578 0.951 . S
H560 C580 0.950 . S
H561 C581 0.950 . S
H562 C583 0.950 . S
H563 C586 0.950 . S
H564 C587 0.950 . S
H565 C589 0.950 . S
H566 C590 0.950 . S
H567 C591 0.951 . S
H568 C593 0.951 . S
H569 C595 0.950 . S
H570 C596 0.950 . S
H571 C598 0.950 . S
H572 C601 0.950 . S
H573 C602 0.950 . S
H574 C604 0.950 . S
H575 C605 0.950 . S
C576 H558 0.951 . S
C576 C577 1.366 . S
C576 C578 1.388 . S
C577 C576 1.366 . S
C577 C581 1.385 . S
C578 H559 0.951 . S
C578 C576 1.388 . S
C578 C579 1.366 . S
C579 C578 1.366 . S
C579 C580 1.414 . S
C579 C582 1.499 . S
C580 H560 0.950 . S
C580 C579 1.414 . S
C580 C581 1.374 . S
C581 H561 0.950 . S
C581 C577 1.385 . S
C581 C580 1.374 . S
C582 C579 1.499 . S
C582 C583 1.373 . S
C582 C584 1.389 . S
C583 H562 0.950 . S
C583 C582 1.373 . S
C583 C599 1.377 . S
C584 C582 1.389 . S
C584 C585 1.524 . S
C584 C598 1.377 . S
C585 C584 1.524 . S
C585 C586 1.397 . S
C585 C590 1.363 . S
C586 H563 0.950 . S
C586 C585 1.397 . S
C586 C587 1.334 . S
C587 H564 0.950 . S
C587 C586 1.334 . S
C587 C588 1.287 . S
C588 C587 1.287 . S
C588 C589 1.524 . S
C588 H607 0.913 . S
C589 H565 0.950 . S
C589 C588 1.524 . S
C589 C590 1.415 . S
C590 H566 0.950 . S
C590 C585 1.363 . S
C590 C589 1.415 . S
C591 H567 0.951 . S
C591 C592 1.366 . S
C591 C593 1.388 . S
C592 C591 1.366 . S
C592 C596 1.385 . S
C593 H568 0.951 . S
C593 C591 1.388 . S
C593 C594 1.366 . S
C594 C593 1.366 . S
C594 C595 1.414 . S
C594 C597 1.499 . S
C595 H569 0.950 . S
C595 C594 1.414 . S
C595 C596 1.374 . S
C596 H570 0.950 . S
C596 C592 1.385 . S
C596 C595 1.374 . S
C597 C594 1.499 . S
C597 C598 1.373 . S
C597 C599 1.389 . S
C598 H571 0.950 . S
C598 C584 1.377 . S
C598 C597 1.373 . S
C599 C583 1.377 . S
C599 C597 1.389 . S
C599 C600 1.524 . S
C600 C599 1.524 . S
C600 C601 1.397 . S
C600 C605 1.363 . S
C601 H572 0.950 . S
C601 C600 1.397 . S
C601 C602 1.334 . S
C602 H573 0.950 . S
C602 C601 1.334 . S
C602 C603 1.287 . S
C603 C602 1.287 . S
C603 C604 1.524 . S
C603 H606 0.999 . S
C604 H574 0.950 . S
C604 C603 1.524 . S
C604 C605 1.415 . S
C605 H575 0.950 . S
C605 C600 1.363 . S
C605 C604 1.415 . S
H606 C603 0.999 . S
H607 C588 0.913 . S
H608 C626 0.951 . S
H609 C628 0.951 . S
H610 C630 0.950 . S
H611 C631 0.950 . S
H612 C633 0.950 . S
H613 C636 0.950 . S
H614 C637 0.950 . S
H615 C639 0.950 . S
H616 C640 0.950 . S
H617 C641 0.951 . S
H618 C643 0.951 . S
H619 C645 0.950 . S
H620 C646 0.950 . S
H621 C648 0.950 . S
H622 C651 0.950 . S
H623 C652 0.950 . S
H624 C654 0.950 1_554 S
H625 C655 0.950 . S
C626 H608 0.951 . S
C626 C627 1.366 . S
C626 C628 1.388 . S
C627 C626 1.366 . S
C627 C631 1.385 . S
C628 H609 0.951 . S
C628 C626 1.388 . S
C628 C629 1.366 . S
C629 C628 1.366 . S
C629 C630 1.414 . S
C629 C632 1.499 . S
C630 H610 0.950 . S
C630 C629 1.414 . S
C630 C631 1.374 . S
C631 H611 0.950 . S
C631 C627 1.385 . S
C631 C630 1.374 . S
C632 C629 1.499 . S
C632 C633 1.373 . S
C632 C634 1.389 . S
C633 H612 0.950 . S
C633 C632 1.373 . S
C633 C649 1.377 . S
C634 C632 1.389 . S
C634 C635 1.524 . S
C634 C648 1.377 . S
C635 C634 1.524 . S
C635 C636 1.397 . S
C635 C640 1.363 . S
C636 H613 0.950 . S
C636 C635 1.397 . S
C636 C637 1.334 . S
C637 H614 0.950 . S
C637 C636 1.334 . S
C637 C638 1.287 . S
C638 C637 1.287 . S
C638 C639 1.524 . S
C638 H657 0.913 . S
C639 H615 0.950 . S
C639 C638 1.524 . S
C639 C640 1.415 . S
C640 H616 0.950 . S
C640 C635 1.363 . S
C640 C639 1.415 . S
C641 H617 0.951 . S
C641 C642 1.366 1_554 S
C641 C643 1.388 . S
C642 C641 1.366 1_556 S
C642 C646 1.385 . S
C643 H618 0.951 . S
C643 C641 1.388 . S
C643 C644 1.366 1_554 S
C644 C643 1.366 1_556 S
C644 C645 1.414 . S
C644 C647 1.499 . S
C645 H619 0.950 . S
C645 C644 1.414 . S
C645 C646 1.374 . S
C646 H620 0.950 . S
C646 C642 1.385 . S
C646 C645 1.374 . S
C647 C644 1.499 . S
C647 C648 1.373 . S
C647 C649 1.389 . S
C648 H621 0.950 . S
C648 C634 1.377 . S
C648 C647 1.373 . S
C649 C633 1.377 . S
C649 C647 1.389 . S
C649 C650 1.524 . S
C650 C649 1.524 . S
C650 C651 1.397 . S
C650 C655 1.363 . S
C651 H622 0.950 . S
C651 C650 1.397 . S
C651 C652 1.334 . S
C652 H623 0.950 . S
C652 C651 1.334 . S
C652 C653 1.287 . S
C653 C652 1.287 . S
C653 C654 1.524 . S
C653 H656 0.999 . S
C654 H624 0.950 1_556 S
C654 C653 1.524 . S
C654 C655 1.415 . S
C655 H625 0.950 . S
C655 C650 1.363 . S
C655 C654 1.415 . S
H656 C653 0.999 . S
H657 C638 0.913 . S
H658 C676 0.951 . S
H659 C678 0.951 . S
H660 C680 0.950 . S
H661 C681 0.950 . S
H662 C683 0.950 . S
H663 C686 0.950 . S
H664 C687 0.950 . S
H665 C689 0.950 . S
H666 C690 0.950 . S
H667 C691 0.951 . S
H668 C693 0.951 . S
H669 C695 0.950 . S
H670 C696 0.950 . S
H671 C698 0.950 . S
H672 C701 0.950 . S
H673 C702 0.950 . S
H674 C704 0.950 . S
H675 C705 0.950 . S
C676 H658 0.951 . S
C676 C677 1.366 . S
C676 C678 1.388 . S
C677 C676 1.366 . S
C677 C681 1.385 . S
C678 H659 0.951 . S
C678 C676 1.388 . S
C678 C679 1.366 . S
C679 C678 1.366 . S
C679 C680 1.414 . S
C679 C682 1.499 . S
C680 H660 0.950 . S
C680 C679 1.414 . S
C680 C681 1.374 . S
C681 H661 0.950 . S
C681 C677 1.385 . S
C681 C680 1.374 . S
C682 C679 1.499 . S
C682 C683 1.373 . S
C682 C684 1.389 . S
C683 H662 0.950 . S
C683 C682 1.373 . S
C683 C699 1.377 . S
C684 C682 1.389 . S
C684 C685 1.524 . S
C684 C698 1.377 . S
C685 C684 1.524 . S
C685 C686 1.397 . S
C685 C690 1.363 . S
C686 H663 0.950 . S
C686 C685 1.397 . S
C686 C687 1.334 . S
C687 H664 0.950 . S
C687 C686 1.334 . S
C687 C688 1.287 . S
C688 C687 1.287 . S
C688 C689 1.524 . S
C688 H707 0.913 . S
C689 H665 0.950 . S
C689 C688 1.524 . S
C689 C690 1.415 . S
C690 H666 0.950 . S
C690 C685 1.363 . S
C690 C689 1.415 . S
C691 H667 0.951 . S
C691 C692 1.366 . S
C691 C693 1.388 . S
C692 C691 1.366 . S
C692 C696 1.385 . S
C693 H668 0.951 . S
C693 C691 1.388 . S
C693 C694 1.366 . S
C694 C693 1.366 . S
C694 C695 1.414 . S
C694 C697 1.499 . S
C695 H669 0.950 . S
C695 C694 1.414 . S
C695 C696 1.374 . S
C696 H670 0.950 . S
C696 C692 1.385 . S
C696 C695 1.374 . S
C697 C694 1.499 . S
C697 C698 1.373 . S
C697 C699 1.389 . S
C698 H671 0.950 . S
C698 C684 1.377 . S
C698 C697 1.373 . S
C699 C683 1.377 . S
C699 C697 1.389 . S
C699 C700 1.524 . S
C700 C699 1.524 . S
C700 C701 1.397 . S
C700 C705 1.363 . S
C701 H672 0.950 . S
C701 C700 1.397 . S
C701 C702 1.334 . S
C702 H673 0.950 . S
C702 C701 1.334 . S
C702 C703 1.287 . S
C703 C702 1.287 . S
C703 C704 1.524 . S
C703 H706 0.999 . S
C704 H674 0.950 . S
C704 C703 1.524 . S
C704 C705 1.415 . S
C705 H675 0.950 . S
C705 C700 1.363 . S
C705 C704 1.415 . S
H706 C703 0.999 . S
H707 C688 0.913 . S
H708 C726 0.951 . S
H709 C728 0.951 . S
H710 C730 0.950 . S
H711 C731 0.950 . S
H712 C733 0.950 . S
H713 C736 0.950 . S
H714 C737 0.950 . S
H715 C739 0.950 . S
H716 C740 0.950 . S
H717 C741 0.951 . S
H718 C743 0.951 . S
H719 C745 0.950 . S
H720 C746 0.950 . S
H721 C748 0.950 . S
H722 C751 0.950 . S
H723 C752 0.950 . S
H724 C754 0.950 . S
H725 C755 0.950 . S
C726 H708 0.951 . S
C726 C727 1.366 . S
C726 C728 1.388 . S
C727 C726 1.366 . S
C727 C731 1.385 . S
C728 H709 0.951 . S
C728 C726 1.388 . S
C728 C729 1.366 . S
C729 C728 1.366 . S
C729 C730 1.414 . S
C729 C732 1.499 . S
C730 H710 0.950 . S
C730 C729 1.414 . S
C730 C731 1.374 . S
C731 H711 0.950 . S
C731 C727 1.385 . S
C731 C730 1.374 . S
C732 C729 1.499 . S
C732 C733 1.373 . S
C732 C734 1.389 . S
C733 H712 0.950 . S
C733 C732 1.373 . S
C733 C749 1.377 . S
C734 C732 1.389 . S
C734 C735 1.524 . S
C734 C748 1.377 . S
C735 C734 1.524 . S
C735 C736 1.397 . S
C735 C740 1.363 . S
C736 H713 0.950 . S
C736 C735 1.397 . S
C736 C737 1.334 . S
C737 H714 0.950 . S
C737 C736 1.334 . S
C737 C738 1.287 . S
C738 C737 1.287 . S
C738 C739 1.524 . S
C738 H757 0.913 . S
C739 H715 0.950 . S
C739 C738 1.524 . S
C739 C740 1.415 . S
C740 H716 0.950 . S
C740 C735 1.363 . S
C740 C739 1.415 . S
C741 H717 0.951 . S
C741 C742 1.366 . S
C741 C743 1.388 . S
C742 C741 1.366 . S
C742 C746 1.385 . S
C743 H718 0.951 . S
C743 C741 1.388 . S
C743 C744 1.366 . S
C744 C743 1.366 . S
C744 C745 1.414 . S
C744 C747 1.499 . S
C745 H719 0.950 . S
C745 C744 1.414 . S
C745 C746 1.374 . S
C746 H720 0.950 . S
C746 C742 1.385 . S
C746 C745 1.374 . S
C747 C744 1.499 . S
C747 C748 1.373 . S
C747 C749 1.389 . S
C748 H721 0.950 . S
C748 C734 1.377 . S
C748 C747 1.373 . S
C749 C733 1.377 . S
C749 C747 1.389 . S
C749 C750 1.524 . S
C750 C749 1.524 . S
C750 C751 1.397 . S
C750 C755 1.363 . S
C751 H722 0.950 . S
C751 C750 1.397 . S
C751 C752 1.334 . S
C752 H723 0.950 . S
C752 C751 1.334 . S
C752 C753 1.287 . S
C753 C752 1.287 . S
C753 C754 1.524 . S
C753 H756 0.999 . S
C754 H724 0.950 . S
C754 C753 1.524 . S
C754 C755 1.415 . S
C755 H725 0.950 . S
C755 C750 1.363 . S
C755 C754 1.415 . S
H756 C753 0.999 . S
H757 C738 0.913 . S
H758 C776 0.951 . S
H759 C778 0.951 . S
H760 C780 0.950 . S
H761 C781 0.950 . S
H762 C783 0.950 . S
H763 C786 0.950 . S
H764 C787 0.950 . S
H765 C789 0.950 . S
H766 C790 0.950 . S
H767 C791 0.951 . S
H768 C793 0.951 . S
H769 C795 0.950 . S
H770 C796 0.950 . S
H771 C798 0.950 . S
H772 C801 0.950 . S
H773 C802 0.950 . S
H774 C804 0.950 . S
H775 C805 0.950 . S
C776 H758 0.951 . S
C776 C777 1.366 . S
C776 C778 1.388 . S
C777 C776 1.366 . S
C777 C781 1.385 . S
C778 H759 0.951 . S
C778 C776 1.388 . S
C778 C779 1.366 . S
C779 C778 1.366 . S
C779 C780 1.414 . S
C779 C782 1.499 . S
C780 H760 0.950 . S
C780 C779 1.414 . S
C780 C781 1.374 . S
C781 H761 0.950 . S
C781 C777 1.385 . S
C781 C780 1.374 . S
C782 C779 1.499 . S
C782 C783 1.373 . S
C782 C784 1.389 . S
C783 H762 0.950 . S
C783 C782 1.373 . S
C783 C799 1.377 . S
C784 C782 1.389 . S
C784 C785 1.524 . S
C784 C798 1.377 . S
C785 C784 1.524 . S
C785 C786 1.397 . S
C785 C790 1.363 . S
C786 H763 0.950 . S
C786 C785 1.397 . S
C786 C787 1.334 1_554 S
C787 H764 0.950 . S
C787 C786 1.334 1_556 S
C787 C788 1.287 . S
C788 C787 1.287 . S
C788 C789 1.524 . S
C788 H807 0.913 . S
C789 H765 0.950 . S
C789 C788 1.524 . S
C789 C790 1.415 1_556 S
C790 H766 0.950 . S
C790 C785 1.363 . S
C790 C789 1.415 1_554 S
C791 H767 0.951 . S
C791 C792 1.366 . S
C791 C793 1.388 . S
C792 C791 1.366 . S
C792 C796 1.385 . S
C793 H768 0.951 . S
C793 C791 1.388 . S
C793 C794 1.366 . S
C794 C793 1.366 . S
C794 C795 1.414 . S
C794 C797 1.499 . S
C795 H769 0.950 . S
C795 C794 1.414 . S
C795 C796 1.374 . S
C796 H770 0.950 . S
C796 C792 1.385 . S
C796 C795 1.374 . S
C797 C794 1.499 . S
C797 C798 1.373 . S
C797 C799 1.389 . S
C798 H771 0.950 . S
C798 C784 1.377 . S
C798 C797 1.373 . S
C799 C783 1.377 . S
C799 C797 1.389 . S
C799 C800 1.524 . S
C800 C799 1.524 . S
C800 C801 1.397 . S
C800 C805 1.363 . S
C801 H772 0.950 . S
C801 C800 1.397 . S
C801 C802 1.334 . S
C802 H773 0.950 . S
C802 C801 1.334 . S
C802 C803 1.287 . S
C803 C802 1.287 . S
C803 C804 1.524 . S
C803 H806 0.999 . S
C804 H774 0.950 . S
C804 C803 1.524 . S
C804 C805 1.415 . S
C805 H775 0.950 . S
C805 C800 1.363 . S
C805 C804 1.415 . S
H806 C803 0.999 . S
H807 C788 0.913 . S
H808 C826 0.951 . S
H809 C828 0.951 . S
H810 C830 0.950 . S
H811 C831 0.950 . S
H812 C833 0.950 . S
H813 C836 0.950 . S
H814 C837 0.950 . S
H815 C839 0.950 . S
H816 C840 0.950 . S
H817 C841 0.951 . S
H818 C843 0.951 . S
H819 C845 0.950 . S
H820 C846 0.950 . S
H821 C848 0.950 . S
H822 C851 0.950 . S
H823 C852 0.950 . S
H824 C854 0.950 . S
H825 C855 0.950 . S
C826 H808 0.951 . S
C826 C827 1.366 . S
C826 C828 1.388 . S
C827 C826 1.366 . S
C827 C831 1.385 . S
C828 H809 0.951 . S
C828 C826 1.388 . S
C828 C829 1.366 . S
C829 C828 1.366 . S
C829 C830 1.414 . S
C829 C832 1.499 . S
C830 H810 0.950 . S
C830 C829 1.414 . S
C830 C831 1.374 . S
C831 H811 0.950 . S
C831 C827 1.385 . S
C831 C830 1.374 . S
C832 C829 1.499 . S
C832 C833 1.373 . S
C832 C834 1.389 . S
C833 H812 0.950 . S
C833 C832 1.373 . S
C833 C849 1.377 . S
C834 C832 1.389 . S
C834 C835 1.524 . S
C834 C848 1.377 . S
C835 C834 1.524 . S
C835 C836 1.397 . S
C835 C840 1.363 . S
C836 H813 0.950 . S
C836 C835 1.397 . S
C836 C837 1.334 . S
C837 H814 0.950 . S
C837 C836 1.334 . S
C837 C838 1.287 . S
C838 C837 1.287 . S
C838 C839 1.524 . S
C838 H857 0.913 1_554 S
C839 H815 0.950 . S
C839 C838 1.524 . S
C839 C840 1.415 . S
C840 H816 0.950 . S
C840 C835 1.363 . S
C840 C839 1.415 . S
C841 H817 0.951 . S
C841 C842 1.366 . S
C841 C843 1.388 . S
C842 C841 1.366 . S
C842 C846 1.385 . S
C843 H818 0.951 . S
C843 C841 1.388 . S
C843 C844 1.366 . S
C844 C843 1.366 . S
C844 C845 1.414 . S
C844 C847 1.499 . S
C845 H819 0.950 . S
C845 C844 1.414 . S
C845 C846 1.374 . S
C846 H820 0.950 . S
C846 C842 1.385 . S
C846 C845 1.374 . S
C847 C844 1.499 . S
C847 C848 1.373 . S
C847 C849 1.389 . S
C848 H821 0.950 . S
C848 C834 1.377 . S
C848 C847 1.373 . S
C849 C833 1.377 . S
C849 C847 1.389 . S
C849 C850 1.524 . S
C850 C849 1.524 . S
C850 C851 1.397 . S
C850 C855 1.363 . S
C851 H822 0.950 . S
C851 C850 1.397 . S
C851 C852 1.334 . S
C852 H823 0.950 . S
C852 C851 1.334 . S
C852 C853 1.287 . S
C853 C852 1.287 . S
C853 C854 1.524 . S
C853 H856 0.999 . S
C854 H824 0.950 . S
C854 C853 1.524 . S
C854 C855 1.415 . S
C855 H825 0.950 . S
C855 C850 1.363 . S
C855 C854 1.415 . S
H856 C853 0.999 . S
H857 C838 0.913 1_556 S
H858 C876 0.951 . S
H859 C878 0.951 . S
H860 C880 0.950 . S
H861 C881 0.950 . S
H862 C883 0.950 . S
H863 C886 0.950 1_556 S
H864 C887 0.950 . S
H865 C889 0.950 . S
H866 C890 0.950 1_556 S
H867 C891 0.951 . S
H868 C893 0.951 . S
H869 C895 0.950 . S
H870 C896 0.950 1_554 S
H871 C898 0.950 . S
H872 C901 0.950 . S
H873 C902 0.950 . S
H874 C904 0.950 . S
H875 C905 0.950 . S
C876 H858 0.951 . S
C876 C877 1.366 . S
C876 C878 1.388 . S
C877 C876 1.366 . S
C877 C881 1.385 . S
C878 H859 0.951 . S
C878 C876 1.388 . S
C878 C879 1.366 . S
C879 C878 1.366 . S
C879 C880 1.414 . S
C879 C882 1.499 . S
C880 H860 0.950 . S
C880 C879 1.414 . S
C880 C881 1.374 . S
C881 H861 0.950 . S
C881 C877 1.385 . S
C881 C880 1.374 . S
C882 C879 1.499 . S
C882 C883 1.373 . S
C882 C884 1.389 . S
C883 H862 0.950 . S
C883 C882 1.373 . S
C883 C899 1.377 . S
C884 C882 1.389 . S
C884 C885 1.524 . S
C884 C898 1.377 . S
C885 C884 1.524 . S
C885 C886 1.397 1_556 S
C885 C890 1.363 1_556 S
C886 H863 0.950 1_554 S
C886 C885 1.397 1_554 S
C886 C887 1.334 . S
C887 H864 0.950 . S
C887 C886 1.334 . S
C887 C888 1.287 . S
C888 C887 1.287 . S
C888 C889 1.524 . S
C888 H907 0.913 . S
C889 H865 0.950 . S
C889 C888 1.524 . S
C889 C890 1.415 . S
C890 H866 0.950 1_554 S
C890 C885 1.363 1_554 S
C890 C889 1.415 . S
C891 H867 0.951 . S
C891 C892 1.366 . S
C891 C893 1.388 . S
C892 C891 1.366 . S
C892 C896 1.385 . S
C893 H868 0.951 . S
C893 C891 1.388 . S
C893 C894 1.366 . S
C894 C893 1.366 . S
C894 C895 1.414 . S
C894 C897 1.499 . S
C895 H869 0.950 . S
C895 C894 1.414 . S
C895 C896 1.374 . S
C896 H870 0.950 1_556 S
C896 C892 1.385 . S
C896 C895 1.374 . S
C897 C894 1.499 . S
C897 C898 1.373 . S
C897 C899 1.389 . S
C898 H871 0.950 . S
C898 C884 1.377 . S
C898 C897 1.373 . S
C899 C883 1.377 . S
C899 C897 1.389 . S
C899 C900 1.524 . S
C900 C899 1.524 . S
C900 C901 1.397 . S
C900 C905 1.363 . S
C901 H872 0.950 . S
C901 C900 1.397 . S
C901 C902 1.334 . S
C902 H873 0.950 . S
C902 C901 1.334 . S
C902 C903 1.287 . S
C903 C902 1.287 . S
C903 C904 1.524 . S
C903 H906 0.999 . S
C904 H874 0.950 . S
C904 C903 1.524 . S
C904 C905 1.415 . S
C905 H875 0.950 . S
C905 C900 1.363 . S
C905 C904 1.415 . S
H906 C903 0.999 . S
H907 C888 0.913 . S
H908 C926 0.951 . S
H909 C928 0.951 . S
H910 C930 0.950 . S
H911 C931 0.950 . S
H912 C933 0.950 . S
H913 C936 0.950 . S
H914 C937 0.950 . S
H915 C939 0.950 . S
H916 C940 0.950 . S
H917 C941 0.951 . S
H918 C943 0.951 . S
H919 C945 0.950 . S
H920 C946 0.950 . S
H921 C948 0.950 . S
H922 C951 0.950 . S
H923 C952 0.950 . S
H924 C954 0.950 . S
H925 C955 0.950 . S
C926 H908 0.951 . S
C926 C927 1.366 . S
C926 C928 1.388 . S
C927 C926 1.366 . S
C927 C931 1.385 . S
C928 H909 0.951 . S
C928 C926 1.388 . S
C928 C929 1.366 . S
C929 C928 1.366 . S
C929 C930 1.414 . S
C929 C932 1.499 . S
C930 H910 0.950 . S
C930 C929 1.414 . S
C930 C931 1.374 . S
C931 H911 0.950 . S
C931 C927 1.385 . S
C931 C930 1.374 . S
C932 C929 1.499 . S
C932 C933 1.373 . S
C932 C934 1.389 . S
C933 H912 0.950 . S
C933 C932 1.373 . S
C933 C949 1.377 . S
C934 C932 1.389 . S
C934 C935 1.524 . S
C934 C948 1.377 . S
C935 C934 1.524 . S
C935 C936 1.397 . S
C935 C940 1.363 . S
C936 H913 0.950 . S
C936 C935 1.397 . S
C936 C937 1.334 . S
C937 H914 0.950 . S
C937 C936 1.334 . S
C937 C938 1.287 . S
C938 C937 1.287 . S
C938 C939 1.524 . S
C938 H957 0.913 . S
C939 H915 0.950 . S
C939 C938 1.524 . S
C939 C940 1.415 . S
C940 H916 0.950 . S
C940 C935 1.363 . S
C940 C939 1.415 . S
C941 H917 0.951 . S
C941 C942 1.366 . S
C941 C943 1.388 . S
C942 C941 1.366 . S
C942 C946 1.385 . S
C943 H918 0.951 . S
C943 C941 1.388 . S
C943 C944 1.366 . S
C944 C943 1.366 . S
C944 C945 1.414 . S
C944 C947 1.499 . S
C945 H919 0.950 . S
C945 C944 1.414 . S
C945 C946 1.374 . S
C946 H920 0.950 . S
C946 C942 1.385 . S
C946 C945 1.374 . S
C947 C944 1.499 . S
C947 C948 1.373 . S
C947 C949 1.389 . S
C948 H921 0.950 . S
C948 C934 1.377 . S
C948 C947 1.373 . S
C949 C933 1.377 . S
C949 C947 1.389 . S
C949 C950 1.524 . S
C950 C949 1.524 . S
C950 C951 1.397 . S
C950 C955 1.363 . S
C951 H922 0.950 . S
C951 C950 1.397 . S
C951 C952 1.334 . S
C952 H923 0.950 . S
C952 C951 1.334 . S
C952 C953 1.287 . S
C953 C952 1.287 . S
C953 C954 1.524 . S
C953 H956 0.999 . S
C954 H924 0.950 . S
C954 C953 1.524 . S
C954 C955 1.415 . S
C955 H925 0.950 . S
C955 C950 1.363 . S
C955 C954 1.415 . S
H956 C953 0.999 . S
H957 C938 0.913 . S
H958 C976 0.951 . S
H959 C978 0.951 . S
H960 C980 0.950 . S
H961 C981 0.950 . S
H962 C983 0.950 . S
H963 C986 0.950 . S
H964 C987 0.950 . S
H965 C989 0.950 . S
H966 C990 0.950 . S
H967 C991 0.951 . S
H968 C993 0.951 . S
H969 C995 0.950 . S
H970 C996 0.950 . S
H971 C998 0.950 . S
H972 C1001 0.950 . S
H973 C1002 0.950 . S
H974 C1004 0.950 . S
H975 C1005 0.950 . S
C976 H958 0.951 . S
C976 C977 1.366 . S
C976 C978 1.388 . S
C977 C976 1.366 . S
C977 C981 1.385 . S
C978 H959 0.951 . S
C978 C976 1.388 . S
C978 C979 1.366 . S
C979 C978 1.366 . S
C979 C980 1.414 . S
C979 C982 1.499 . S
C980 H960 0.950 . S
C980 C979 1.414 . S
C980 C981 1.374 . S
C981 H961 0.950 . S
C981 C977 1.385 . S
C981 C980 1.374 . S
C982 C979 1.499 . S
C982 C983 1.373 . S
C982 C984 1.389 . S
C983 H962 0.950 . S
C983 C982 1.373 . S
C983 C999 1.377 . S
C984 C982 1.389 . S
C984 C985 1.524 . S
C984 C998 1.377 . S
C985 C984 1.524 . S
C985 C986 1.397 . S
C985 C990 1.363 . S
C986 H963 0.950 . S
C986 C985 1.397 . S
C986 C987 1.334 . S
C987 H964 0.950 . S
C987 C986 1.334 . S
C987 C988 1.287 . S
C988 C987 1.287 . S
C988 C989 1.524 . S
C988 H1007 0.913 . S
C989 H965 0.950 . S
C989 C988 1.524 . S
C989 C990 1.415 . S
C990 H966 0.950 . S
C990 C985 1.363 . S
C990 C989 1.415 . S
C991 H967 0.951 . S
C991 C992 1.366 . S
C991 C993 1.388 . S
C992 C991 1.366 . S
C992 C996 1.385 . S
C993 H968 0.951 . S
C993 C991 1.388 . S
C993 C994 1.366 . S
C994 C993 1.366 . S
C994 C995 1.414 . S
C994 C997 1.499 . S
C995 H969 0.950 . S
C995 C994 1.414 . S
C995 C996 1.374 . S
C996 H970 0.950 . S
C996 C992 1.385 . S
C996 C995 1.374 . S
C997 C994 1.499 . S
C997 C998 1.373 . S
C997 C999 1.389 . S
C998 H971 0.950 . S
C998 C984 1.377 . S
C998 C997 1.373 . S
C999 C983 1.377 . S
C999 C997 1.389 . S
C999 C1000 1.524 . S
C1000 C999 1.524 . S
C1000 C1001 1.397 . S
C1000 C1005 1.363 . S
C1001 H972 0.950 . S
C1001 C1000 1.397 . S
C1001 C1002 1.334 . S
C1002 H973 0.950 . S
C1002 C1001 1.334 . S
C1002 C1003 1.287 . S
C1003 C1002 1.287 . S
C1003 C1004 1.524 . S
C1003 H1006 0.999 . S
C1004 H974 0.950 . S
C1004 C1003 1.524 . S
C1004 C1005 1.415 . S
C1005 H975 0.950 . S
C1005 C1000 1.363 . S
C1005 C1004 1.415 . S
H1006 C1003 0.999 . S
H1007 C988 0.913 . S
H1008 C1026 0.951 . S
H1009 C1028 0.951 . S
H1010 C1030 0.950 . S
H1011 C1031 0.950 . S
H1012 C1033 0.966 . S
H1013 C1036 0.950 1_554 S
H1014 C1037 0.950 . S
H1015 C1039 0.950 . S
H1016 C1040 0.950 . S
H1017 C1041 0.951 . S
H1018 C1043 0.947 1_554 S
H1019 C1045 0.950 . S
H1020 C1046 0.950 . S
H1021 C1048 0.950 . S
H1022 C1051 0.950 . S
H1023 C1052 0.950 . S
H1024 C1054 0.950 . S
H1025 C1055 0.950 . S
C1026 H1008 0.951 . S
C1026 C1027 1.366 . S
C1026 C1028 1.388 . S
C1027 C1026 1.366 . S
C1027 C1031 1.385 1_455 S
C1028 H1009 0.951 . S
C1028 C1026 1.388 . S
C1028 C1029 1.366 . S
C1029 C1028 1.366 . S
C1029 C1030 1.414 1_455 S
C1029 C1032 1.499 . S
C1030 H1010 0.950 . S
C1030 C1029 1.414 1_655 S
C1030 C1031 1.374 . S
C1031 H1011 0.950 . S
C1031 C1027 1.385 1_655 S
C1031 C1030 1.374 . S
C1032 C1029 1.499 . S
C1032 C1033 1.373 . S
C1032 C1034 1.389 . S
C1033 H1012 0.966 . S
C1033 C1032 1.373 . S
C1033 C1049 1.377 . S
C1034 C1032 1.389 . S
C1034 C1035 1.524 1_554 S
C1034 C1048 1.377 1_554 S
C1035 C1034 1.524 1_556 S
C1035 C1036 1.397 1_455 S
C1035 C1040 1.363 . S
C1036 H1013 0.950 1_556 S
C1036 C1035 1.397 1_655 S
C1036 C1037 1.334 . S
C1037 H1014 0.950 . S
C1037 C1036 1.334 . S
C1037 C1038 1.287 1_655 S
C1038 C1037 1.287 1_455 S
C1038 C1039 1.524 . S
C1038 H1057 0.913 . S
C1039 H1015 0.950 . S
C1039 C1038 1.524 . S
C1039 C1040 1.415 . S
C1040 H1016 0.950 . S
C1040 C1035 1.363 . S
C1040 C1039 1.415 . S
C1041 H1017 0.951 . S
C1041 C1042 1.366 1_655 S
C1041 C1043 1.388 . S
C1042 C1041 1.366 1_455 S
C1042 C1046 1.385 . S
C1043 H1018 0.947 1_556 S
C1043 C1041 1.388 . S
C1043 C1044 1.366 1_655 S
C1044 C1043 1.366 1_455 S
C1044 C1045 1.414 . S
C1044 C1047 1.499 1_556 S
C1045 H1019 0.950 . S
C1045 C1044 1.414 . S
C1045 C1046 1.374 . S
C1046 H1020 0.950 . S
C1046 C1042 1.385 . S
C1046 C1045 1.374 . S
C1047 C1044 1.499 1_554 S
C1047 C1048 1.373 1_554 S
C1047 C1049 1.389 . S
C1048 H1021 0.950 . S
C1048 C1034 1.377 1_556 S
C1048 C1047 1.373 1_556 S
C1049 C1033 1.377 . S
C1049 C1047 1.389 . S
C1049 C1050 1.524 . S
C1050 C1049 1.524 . S
C1050 C1051 1.397 . S
C1050 C1055 1.363 1_455 S
C1051 H1022 0.950 . S
C1051 C1050 1.397 . S
C1051 C1052 1.334 . S
C1052 H1023 0.950 . S
C1052 C1051 1.334 . S
C1052 C1053 1.287 . S
C1053 C1052 1.287 . S
C1053 C1054 1.524 1_455 S
C1053 H1056 0.999 . S
C1054 H1024 0.950 . S
C1054 C1053 1.524 1_655 S
C1054 C1055 1.415 . S
C1055 H1025 0.950 . S
C1055 C1050 1.363 1_655 S
C1055 C1054 1.415 . S
H1056 C1053 0.999 . S
H1057 C1038 0.913 . S
H1058 C1076 0.951 . S
H1059 C1078 0.951 . S
H1060 C1080 0.950 . S
H1061 C1081 0.950 . S
H1062 C1083 0.950 . S
H1063 C1086 0.950 . S
H1064 C1087 0.950 . S
H1065 C1089 0.950 . S
H1066 C1090 0.950 . S
H1067 C1091 0.951 . S
H1068 C1093 0.951 . S
H1069 C1095 0.950 . S
H1070 C1096 0.950 . S
H1071 C1098 0.950 . S
H1072 C1101 0.950 . S
H1073 C1102 0.950 . S
H1074 C1104 0.950 . S
H1075 C1105 0.950 . S
C1076 H1058 0.951 . S
C1076 C1077 1.366 . S
C1076 C1078 1.388 . S
C1077 C1076 1.366 . S
C1077 C1081 1.385 . S
C1078 H1059 0.951 . S
C1078 C1076 1.388 . S
C1078 C1079 1.366 . S
C1079 C1078 1.366 . S
C1079 C1080 1.414 . S
C1079 C1082 1.499 . S
C1080 H1060 0.950 . S
C1080 C1079 1.414 . S
C1080 C1081 1.374 . S
C1081 H1061 0.950 . S
C1081 C1077 1.385 . S
C1081 C1080 1.374 . S
C1082 C1079 1.499 . S
C1082 C1083 1.373 . S
C1082 C1084 1.389 . S
C1083 H1062 0.950 . S
C1083 C1082 1.373 . S
C1083 C1099 1.377 . S
C1084 C1082 1.389 . S
C1084 C1085 1.524 . S
C1084 C1098 1.377 . S
C1085 C1084 1.524 . S
C1085 C1086 1.397 . S
C1085 C1090 1.363 . S
C1086 H1063 0.950 . S
C1086 C1085 1.397 . S
C1086 C1087 1.334 . S
C1087 H1064 0.950 . S
C1087 C1086 1.334 . S
C1087 C1088 1.287 . S
C1088 C1087 1.287 . S
C1088 C1089 1.524 . S
C1088 H1107 0.913 . S
C1089 H1065 0.950 . S
C1089 C1088 1.524 . S
C1089 C1090 1.415 . S
C1090 H1066 0.950 . S
C1090 C1085 1.363 . S
C1090 C1089 1.415 . S
C1091 H1067 0.951 . S
C1091 C1092 1.366 . S
C1091 C1093 1.388 . S
C1092 C1091 1.366 . S
C1092 C1096 1.385 . S
C1093 H1068 0.951 . S
C1093 C1091 1.388 . S
C1093 C1094 1.366 . S
C1094 C1093 1.366 . S
C1094 C1095 1.414 . S
C1094 C1097 1.499 . S
C1095 H1069 0.950 . S
C1095 C1094 1.414 . S
C1095 C1096 1.374 . S
C1096 H1070 0.950 . S
C1096 C1092 1.385 . S
C1096 C1095 1.374 . S
C1097 C1094 1.499 . S
C1097 C1098 1.373 . S
C1097 C1099 1.389 . S
C1098 H1071 0.950 . S
C1098 C1084 1.377 . S
C1098 C1097 1.373 . S
C1099 C1083 1.377 . S
C1099 C1097 1.389 . S
C1099 C1100 1.524 . S
C1100 C1099 1.524 . S
C1100 C1101 1.397 . S
C1100 C1105 1.363 . S
C1101 H1072 0.950 . S
C1101 C1100 1.397 . S
C1101 C1102 1.334 . S
C1102 H1073 0.950 . S
C1102 C1101 1.334 . S
C1102 C1103 1.287 . S
C1103 C1102 1.287 . S
C1103 C1104 1.524 . S
C1103 H1106 0.999 . S
C1104 H1074 0.950 . S
C1104 C1103 1.524 . S
C1104 C1105 1.415 . S
C1105 H1075 0.950 . S
C1105 C1100 1.363 . S
C1105 C1104 1.415 . S
H1106 C1103 0.999 . S
H1107 C1088 0.913 . S
H1108 C1126 0.951 . S
H1109 C1128 0.951 . S
H1110 C1130 0.950 . S
H1111 C1131 0.950 . S
H1112 C1133 0.950 . S
H1113 C1136 0.950 . S
H1114 C1137 0.950 . S
H1115 C1139 0.950 . S
H1116 C1140 0.950 . S
H1117 C1141 0.951 . S
H1118 C1143 0.951 . S
H1119 C1145 0.950 . S
H1120 C1146 0.950 . S
H1121 C1148 0.950 . S
H1122 C1151 0.950 . S
H1123 C1152 0.950 . S
H1124 C1154 0.950 . S
H1125 C1155 0.950 . S
C1126 H1108 0.951 . S
C1126 C1127 1.366 . S
C1126 C1128 1.388 . S
C1127 C1126 1.366 . S
C1127 C1131 1.385 . S
C1128 H1109 0.951 . S
C1128 C1126 1.388 . S
C1128 C1129 1.366 . S
C1129 C1128 1.366 . S
C1129 C1130 1.414 . S
C1129 C1132 1.499 . S
C1130 H1110 0.950 . S
C1130 C1129 1.414 . S
C1130 C1131 1.374 . S
C1131 H1111 0.950 . S
C1131 C1127 1.385 . S
C1131 C1130 1.374 . S
C1132 C1129 1.499 . S
C1132 C1133 1.373 . S
C1132 C1134 1.389 . S
C1133 H1112 0.950 . S
C1133 C1132 1.373 . S
C1133 C1149 1.377 . S
C1134 C1132 1.389 . S
C1134 C1135 1.524 . S
C1134 C1148 1.377 . S
C1135 C1134 1.524 . S
C1135 C1136 1.397 . S
C1135 C1140 1.363 . S
C1136 H1113 0.950 . S
C1136 C1135 1.397 . S
C1136 C1137 1.334 . S
C1137 H1114 0.950 . S
C1137 C1136 1.334 . S
C1137 C1138 1.287 . S
C1138 C1137 1.287 . S
C1138 C1139 1.524 . S
C1138 H1157 0.913 . S
C1139 H1115 0.950 . S
C1139 C1138 1.524 . S
C1139 C1140 1.415 . S
C1140 H1116 0.950 . S
C1140 C1135 1.363 . S
C1140 C1139 1.415 . S
C1141 H1117 0.951 . S
C1141 C1142 1.366 . S
C1141 C1143 1.388 . S
C1142 C1141 1.366 . S
C1142 C1146 1.385 . S
C1143 H1118 0.951 . S
C1143 C1141 1.388 . S
C1143 C1144 1.366 . S
C1144 C1143 1.366 . S
C1144 C1145 1.414 . S
C1144 C1147 1.499 . S
C1145 H1119 0.950 . S
C1145 C1144 1.414 . S
C1145 C1146 1.374 . S
C1146 H1120 0.950 . S
C1146 C1142 1.385 . S
C1146 C1145 1.374 . S
C1147 C1144 1.499 . S
C1147 C1148 1.373 . S
C1147 C1149 1.389 . S
C1148 H1121 0.950 . S
C1148 C1134 1.377 . S
C1148 C1147 1.373 . S
C1149 C1133 1.377 . S
C1149 C1147 1.389 . S
C1149 C1150 1.524 . S
C1150 C1149 1.524 . S
C1150 C1151 1.397 . S
C1150 C1155 1.363 . S
C1151 H1122 0.950 . S
C1151 C1150 1.397 . S
C1151 C1152 1.334 . S
C1152 H1123 0.950 . S
C1152 C1151 1.334 . S
C1152 C1153 1.287 . S
C1153 C1152 1.287 . S
C1153 C1154 1.524 . S
C1153 H1156 0.999 . S
C1154 H1124 0.950 . S
C1154 C1153 1.524 . S
C1154 C1155 1.415 . S
C1155 H1125 0.950 . S
C1155 C1150 1.363 . S
C1155 C1154 1.415 . S
H1156 C1153 0.999 . S
H1157 C1138 0.913 . S
H1158 C1176 0.951 . S
H1159 C1178 0.951 . S
H1160 C1180 0.950 . S
H1161 C1181 0.950 . S
H1162 C1183 0.950 . S
H1163 C1186 0.950 . S
H1164 C1187 0.950 . S
H1165 C1189 0.950 . S
H1166 C1190 0.950 . S
H1167 C1191 0.951 . S
H1168 C1193 0.951 . S
H1169 C1195 0.950 . S
H1170 C1196 0.950 . S
H1171 C1198 0.950 . S
H1172 C1201 0.950 . S
H1173 C1202 0.950 . S
H1174 C1204 0.950 . S
H1175 C1205 0.950 . S
C1176 H1158 0.951 . S
C1176 C1177 1.366 . S
C1176 C1178 1.388 . S
C1177 C1176 1.366 . S
C1177 C1181 1.385 . S
C1178 H1159 0.951 . S
C1178 C1176 1.388 . S
C1178 C1179 1.366 . S
C1179 C1178 1.366 . S
C1179 C1180 1.414 . S
C1179 C1182 1.499 . S
C1180 H1160 0.950 . S
C1180 C1179 1.414 . S
C1180 C1181 1.374 . S
C1181 H1161 0.950 . S
C1181 C1177 1.385 . S
C1181 C1180 1.374 . S
C1182 C1179 1.499 . S
C1182 C1183 1.373 . S
C1182 C1184 1.389 . S
C1183 H1162 0.950 . S
C1183 C1182 1.373 . S
C1183 C1199 1.377 . S
C1184 C1182 1.389 . S
C1184 C1185 1.524 . S
C1184 C1198 1.377 . S
C1185 C1184 1.524 . S
C1185 C1186 1.397 . S
C1185 C1190 1.363 . S
C1186 H1163 0.950 . S
C1186 C1185 1.397 . S
C1186 C1187 1.334 . S
C1187 H1164 0.950 . S
C1187 C1186 1.334 . S
C1187 C1188 1.287 . S
C1188 C1187 1.287 . S
C1188 C1189 1.524 . S
C1188 H1207 0.913 . S
C1189 H1165 0.950 . S
C1189 C1188 1.524 . S
C1189 C1190 1.415 . S
C1190 H1166 0.950 . S
C1190 C1185 1.363 . S
C1190 C1189 1.415 . S
C1191 H1167 0.951 . S
C1191 C1192 1.366 . S
C1191 C1193 1.388 . S
C1192 C1191 1.366 . S
C1192 C1196 1.385 . S
C1193 H1168 0.951 . S
C1193 C1191 1.388 . S
C1193 C1194 1.366 . S
C1194 C1193 1.366 . S
C1194 C1195 1.414 . S
C1194 C1197 1.499 . S
C1195 H1169 0.950 . S
C1195 C1194 1.414 . S
C1195 C1196 1.374 . S
C1196 H1170 0.950 . S
C1196 C1192 1.385 . S
C1196 C1195 1.374 . S
C1197 C1194 1.499 . S
C1197 C1198 1.373 . S
C1197 C1199 1.389 . S
C1198 H1171 0.950 . S
C1198 C1184 1.377 . S
C1198 C1197 1.373 . S
C1199 C1183 1.377 . S
C1199 C1197 1.389 . S
C1199 C1200 1.524 . S
C1200 C1199 1.524 . S
C1200 C1201 1.397 . S
C1200 C1205 1.363 . S
C1201 H1172 0.950 . S
C1201 C1200 1.397 . S
C1201 C1202 1.334 . S
C1202 H1173 0.950 . S
C1202 C1201 1.334 . S
C1202 C1203 1.287 . S
C1203 C1202 1.287 . S
C1203 C1204 1.524 . S
C1203 H1206 0.999 . S
C1204 H1174 0.950 . S
C1204 C1203 1.524 . S
C1204 C1205 1.415 . S
C1205 H1175 0.950 . S
C1205 C1200 1.363 . S
C1205 C1204 1.415 . S
H1206 C1203 0.999 . S
H1207 C1188 0.913 . S
H1208 C1226 0.951 . S
H1209 C1228 0.951 . S
H1210 C1230 0.950 . S
H1211 C1231 0.950 . S
H1212 C1233 0.950 . S
H1213 C1236 0.950 . S
H1214 C1237 0.950 . S
H1215 C1239 0.950 . S
H1216 C1240 0.950 . S
H1217 C1241 0.951 . S
H1218 C1243 0.951 . S
H1219 C1245 0.950 . S
H1220 C1246 0.950 . S
H1221 C1248 0.950 . S
H1222 C1251 0.950 . S
H1223 C1252 0.950 . S
H1224 C1254 0.950 . S
H1225 C1255 0.950 . S
C1226 H1208 0.951 . S
C1226 C1227 1.366 . S
C1226 C1228 1.388 . S
C1227 C1226 1.366 . S
C1227 C1231 1.385 . S
C1228 H1209 0.951 . S
C1228 C1226 1.388 . S
C1228 C1229 1.366 . S
C1229 C1228 1.366 . S
C1229 C1230 1.414 . S
C1229 C1232 1.499 . S
C1230 H1210 0.950 . S
C1230 C1229 1.414 . S
C1230 C1231 1.374 . S
C1231 H1211 0.950 . S
C1231 C1227 1.385 . S
C1231 C1230 1.374 . S
C1232 C1229 1.499 . S
C1232 C1233 1.373 . S
C1232 C1234 1.389 . S
C1233 H1212 0.950 . S
C1233 C1232 1.373 . S
C1233 C1249 1.377 . S
C1234 C1232 1.389 . S
C1234 C1235 1.524 . S
C1234 C1248 1.377 . S
C1235 C1234 1.524 . S
C1235 C1236 1.397 . S
C1235 C1240 1.363 . S
C1236 H1213 0.950 . S
C1236 C1235 1.397 . S
C1236 C1237 1.334 . S
C1237 H1214 0.950 . S
C1237 C1236 1.334 . S
C1237 C1238 1.287 . S
C1238 C1237 1.287 . S
C1238 C1239 1.524 . S
C1238 H1257 0.913 . S
C1239 H1215 0.950 . S
C1239 C1238 1.524 . S
C1239 C1240 1.415 . S
C1240 H1216 0.950 . S
C1240 C1235 1.363 . S
C1240 C1239 1.415 . S
C1241 H1217 0.951 . S
C1241 C1242 1.366 . S
C1241 C1243 1.388 . S
C1242 C1241 1.366 . S
C1242 C1246 1.385 . S
C1243 H1218 0.951 . S
C1243 C1241 1.388 . S
C1243 C1244 1.366 . S
C1244 C1243 1.366 . S
C1244 C1245 1.414 . S
C1244 C1247 1.499 . S
C1245 H1219 0.950 . S
C1245 C1244 1.414 . S
C1245 C1246 1.374 . S
C1246 H1220 0.950 . S
C1246 C1242 1.385 . S
C1246 C1245 1.374 . S
C1247 C1244 1.499 . S
C1247 C1248 1.373 . S
C1247 C1249 1.389 . S
C1248 H1221 0.950 . S
C1248 C1234 1.377 . S
C1248 C1247 1.373 . S
C1249 C1233 1.377 . S
C1249 C1247 1.389 . S
C1249 C1250 1.524 . S
C1250 C1249 1.524 . S
C1250 C1251 1.397 . S
C1250 C1255 1.363 . S
C1251 H1222 0.950 . S
C1251 C1250 1.397 . S
C1251 C1252 1.334 . S
C1252 H1223 0.950 . S
C1252 C1251 1.334 . S
C1252 C1253 1.287 . S
C1253 C1252 1.287 . S
C1253 C1254 1.524 . S
C1253 H1256 0.999 . S
C1254 H1224 0.950 . S
C1254 C1253 1.524 . S
C1254 C1255 1.415 . S
C1255 H1225 0.950 . S
C1255 C1250 1.363 . S
C1255 C1254 1.415 . S
H1256 C1253 0.999 . S
H1257 C1238 0.913 . S
H1258 C1276 0.951 . S
H1259 C1278 0.951 . S
H1260 C1280 0.950 . S
H1261 C1281 0.950 . S
H1262 C1283 0.950 . S
H1263 C1286 0.950 . S
H1264 C1287 0.950 . S
H1265 C1289 0.950 . S
H1266 C1290 0.950 . S
H1267 C1291 0.951 . S
H1268 C1293 0.951 . S
H1269 C1295 0.950 . S
H1270 C1296 0.950 . S
H1271 C1298 0.950 . S
H1272 C1301 0.950 . S
H1273 C1302 0.950 . S
H1274 C1304 0.950 . S
H1275 C1305 0.950 . S
C1276 H1258 0.951 . S
C1276 C1277 1.366 . S
C1276 C1278 1.388 . S
C1277 C1276 1.366 . S
C1277 C1281 1.385 . S
C1278 H1259 0.951 . S
C1278 C1276 1.388 . S
C1278 C1279 1.366 . S
C1279 C1278 1.366 . S
C1279 C1280 1.414 . S
C1279 C1282 1.499 . S
C1280 H1260 0.950 . S
C1280 C1279 1.414 . S
C1280 C1281 1.374 . S
C1281 H1261 0.950 . S
C1281 C1277 1.385 . S
C1281 C1280 1.374 . S
C1282 C1279 1.499 . S
C1282 C1283 1.373 . S
C1282 C1284 1.389 . S
C1283 H1262 0.950 . S
C1283 C1282 1.373 . S
C1283 C1299 1.377 . S
C1284 C1282 1.389 . S
C1284 C1285 1.524 . S
C1284 C1298 1.377 . S
C1285 C1284 1.524 . S
C1285 C1286 1.397 . S
C1285 C1290 1.363 . S
C1286 H1263 0.950 . S
C1286 C1285 1.397 . S
C1286 C1287 1.334 . S
C1287 H1264 0.950 . S
C1287 C1286 1.334 . S
C1287 C1288 1.287 . S
C1288 C1287 1.287 . S
C1288 C1289 1.524 . S
C1288 H1307 0.913 . S
C1289 H1265 0.950 . S
C1289 C1288 1.524 . S
C1289 C1290 1.415 . S
C1290 H1266 0.950 . S
C1290 C1285 1.363 . S
C1290 C1289 1.415 . S
C1291 H1267 0.951 . S
C1291 C1292 1.366 . S
C1291 C1293 1.388 . S
C1292 C1291 1.366 . S
C1292 C1296 1.385 . S
C1293 H1268 0.951 . S
C1293 C1291 1.388 . S
C1293 C1294 1.366 . S
C1294 C1293 1.366 . S
C1294 C1295 1.414 . S
C1294 C1297 1.499 . S
C1295 H1269 0.950 . S
C1295 C1294 1.414 . S
C1295 C1296 1.374 . S
C1296 H1270 0.950 . S
C1296 C1292 1.385 . S
C1296 C1295 1.374 . S
C1297 C1294 1.499 . S
C1297 C1298 1.373 . S
C1297 C1299 1.389 . S
C1298 H1271 0.950 . S
C1298 C1284 1.377 . S
C1298 C1297 1.373 . S
C1299 C1283 1.377 . S
C1299 C1297 1.389 . S
C1299 C1300 1.524 . S
C1300 C1299 1.524 . S
C1300 C1301 1.397 . S
C1300 C1305 1.363 . S
C1301 H1272 0.950 . S
C1301 C1300 1.397 . S
C1301 C1302 1.334 . S
C1302 H1273 0.950 . S
C1302 C1301 1.334 . S
C1302 C1303 1.287 . S
C1303 C1302 1.287 . S
C1303 C1304 1.524 . S
C1303 H1306 0.999 . S
C1304 H1274 0.950 . S
C1304 C1303 1.524 . S
C1304 C1305 1.415 . S
C1305 H1275 0.950 . S
C1305 C1300 1.363 . S
C1305 C1304 1.415 . S
H1306 C1303 0.999 . S
H1307 C1288 0.913 . S
H1308 C1326 0.951 . S
H1309 C1328 0.951 . S
H1310 C1330 0.950 . S
H1311 C1331 0.950 . S
H1312 C1333 0.950 . S
H1313 C1336 0.950 . S
H1314 C1337 0.950 . S
H1315 C1339 0.950 . S
H1316 C1340 0.950 . S
H1317 C1341 0.951 . S
H1318 C1343 0.951 . S
H1319 C1345 0.950 . S
H1320 C1346 0.950 . S
H1321 C1348 0.950 . S
H1322 C1351 0.950 . S
H1323 C1352 0.950 . S
H1324 C1354 0.950 . S
H1325 C1355 0.950 . S
C1326 H1308 0.951 . S
C1326 C1327 1.366 . S
C1326 C1328 1.388 . S
C1327 C1326 1.366 . S
C1327 C1331 1.385 . S
C1328 H1309 0.951 . S
C1328 C1326 1.388 . S
C1328 C1329 1.366 . S
C1329 C1328 1.366 . S
C1329 C1330 1.414 . S
C1329 C1332 1.499 . S
C1330 H1310 0.950 . S
C1330 C1329 1.414 . S
C1330 C1331 1.374 . S
C1331 H1311 0.950 . S
C1331 C1327 1.385 . S
C1331 C1330 1.374 . S
C1332 C1329 1.499 . S
C1332 C1333 1.373 . S
C1332 C1334 1.389 . S
C1333 H1312 0.950 . S
C1333 C1332 1.373 . S
C1333 C1349 1.377 1_565 S
C1334 C1332 1.389 . S
C1334 C1335 1.524 . S
C1334 C1348 1.377 1_565 S
C1335 C1334 1.524 . S
C1335 C1336 1.397 . S
C1335 C1340 1.363 . S
C1336 H1313 0.950 . S
C1336 C1335 1.397 . S
C1336 C1337 1.334 . S
C1337 H1314 0.950 . S
C1337 C1336 1.334 . S
C1337 C1338 1.287 . S
C1338 C1337 1.287 . S
C1338 C1339 1.524 . S
C1338 H1357 0.913 . S
C1339 H1315 0.950 . S
C1339 C1338 1.524 . S
C1339 C1340 1.415 . S
C1340 H1316 0.950 . S
C1340 C1335 1.363 . S
C1340 C1339 1.415 . S
C1341 H1317 0.951 . S
C1341 C1342 1.366 . S
C1341 C1343 1.388 . S
C1342 C1341 1.366 . S
C1342 C1346 1.385 . S
C1343 H1318 0.951 . S
C1343 C1341 1.388 . S
C1343 C1344 1.366 . S
C1344 C1343 1.366 . S
C1344 C1345 1.414 . S
C1344 C1347 1.499 . S
C1345 H1319 0.950 . S
C1345 C1344 1.414 . S
C1345 C1346 1.374 . S
C1346 H1320 0.950 . S
C1346 C1342 1.385 . S
C1346 C1345 1.374 . S
C1347 C1344 1.499 . S
C1347 C1348 1.373 . S
C1347 C1349 1.389 . S
C1348 H1321 0.950 . S
C1348 C1334 1.377 1_545 S
C1348 C1347 1.373 . S
C1349 C1333 1.377 1_545 S
C1349 C1347 1.389 . S
C1349 C1350 1.524 . S
C1350 C1349 1.524 . S
C1350 C1351 1.397 . S
C1350 C1355 1.363 . S
C1351 H1322 0.950 . S
C1351 C1350 1.397 . S
C1351 C1352 1.334 . S
C1352 H1323 0.950 . S
C1352 C1351 1.334 . S
C1352 C1353 1.287 . S
C1353 C1352 1.287 . S
C1353 C1354 1.524 . S
C1353 H1356 0.999 . S
C1354 H1324 0.950 . S
C1354 C1353 1.524 . S
C1354 C1355 1.415 . S
C1355 H1325 0.950 . S
C1355 C1350 1.363 . S
C1355 C1354 1.415 . S
H1356 C1353 0.999 . S
H1357 C1338 0.913 . S
H1358 C1376 0.951 . S
H1359 C1378 0.951 1_554 S
H1360 C1380 0.950 . S
H1361 C1381 0.950 . S
H1362 C1383 0.950 . S
H1363 C1386 0.950 . S
H1364 C1387 0.950 . S
H1365 C1389 0.950 1_554 S
H1366 C1390 0.950 . S
H1367 C1391 0.951 . S
H1368 C1393 0.951 . S
H1369 C1395 0.950 . S
H1370 C1396 0.950 . S
H1371 C1398 0.950 . S
H1372 C1401 0.950 . S
H1373 C1402 0.950 . S
H1374 C1404 0.950 . S
H1375 C1405 0.950 . S
C1376 H1358 0.951 . S
C1376 C1377 1.366 1_455 S
C1376 C1378 1.388 . S
C1377 C1376 1.366 1_655 S
C1377 C1381 1.385 . S
C1378 H1359 0.951 1_556 S
C1378 C1376 1.388 . S
C1378 C1379 1.366 1_455 S
C1379 C1378 1.366 1_655 S
C1379 C1380 1.414 . S
C1379 C1382 1.499 1_556 S
C1380 H1360 0.950 . S
C1380 C1379 1.414 . S
C1380 C1381 1.374 . S
C1381 H1361 0.950 . S
C1381 C1377 1.385 . S
C1381 C1380 1.374 . S
C1382 C1379 1.499 1_554 S
C1382 C1383 1.373 . S
C1382 C1384 1.389 1_655 S
C1383 H1362 0.950 . S
C1383 C1382 1.373 . S
C1383 C1399 1.377 1_545 S
C1384 C1382 1.389 1_455 S
C1384 C1385 1.524 1_554 S
C1384 C1398 1.377 1_545 S
C1385 C1384 1.524 1_556 S
C1385 C1386 1.397 . S
C1385 C1390 1.363 1_556 S
C1386 H1363 0.950 . S
C1386 C1385 1.397 . S
C1386 C1387 1.334 . S
C1387 H1364 0.950 . S
C1387 C1386 1.334 . S
C1387 C1388 1.287 . S
C1388 C1387 1.287 . S
C1388 C1389 1.524 . S
C1388 H1407 0.913 . S
C1389 H1365 0.950 1_556 S
C1389 C1388 1.524 . S
C1389 C1390 1.415 1_556 S
C1390 H1366 0.950 . S
C1390 C1385 1.363 1_554 S
C1390 C1389 1.415 1_554 S
C1391 H1367 0.951 . S
C1391 C1392 1.366 . S
C1391 C1393 1.388 . S
C1392 C1391 1.366 . S
C1392 C1396 1.385 1_655 S
C1393 H1368 0.951 . S
C1393 C1391 1.388 . S
C1393 C1394 1.366 . S
C1394 C1393 1.366 . S
C1394 C1395 1.414 1_655 S
C1394 C1397 1.499 . S
C1395 H1369 0.950 . S
C1395 C1394 1.414 1_455 S
C1395 C1396 1.374 . S
C1396 H1370 0.950 . S
C1396 C1392 1.385 1_455 S
C1396 C1395 1.374 . S
C1397 C1394 1.499 . S
C1397 C1398 1.373 1_655 S
C1397 C1399 1.389 . S
C1398 H1371 0.950 . S
C1398 C1384 1.377 1_565 S
C1398 C1397 1.373 1_455 S
C1399 C1383 1.377 1_565 S
C1399 C1397 1.389 . S
C1399 C1400 1.524 . S
C1400 C1399 1.524 . S
C1400 C1401 1.397 . S
C1400 C1405 1.363 . S
C1401 H1372 0.950 . S
C1401 C1400 1.397 . S
C1401 C1402 1.334 . S
C1402 H1373 0.950 . S
C1402 C1401 1.334 . S
C1402 C1403 1.287 . S
C1403 C1402 1.287 . S
C1403 C1404 1.524 . S
C1403 H1406 0.999 . S
C1404 H1374 0.950 . S
C1404 C1403 1.524 . S
C1404 C1405 1.415 . S
C1405 H1375 0.950 . S
C1405 C1400 1.363 . S
C1405 C1404 1.415 . S
H1406 C1403 0.999 . S
H1407 C1388 0.913 . S
H1408 C1426 0.951 . S
H1409 C1428 0.951 . S
H1410 C1430 0.950 . S
H1411 C1431 0.950 . S
H1412 C1433 0.950 . S
H1413 C1436 0.950 . S
H1414 C1437 0.950 . S
H1415 C1439 0.950 . S
H1416 C1440 0.950 . S
H1417 C1441 0.951 . S
H1418 C1443 0.951 . S
H1419 C1445 0.950 . S
H1420 C1446 0.950 . S
H1421 C1448 0.950 . S
H1422 C1451 0.950 . S
H1423 C1452 0.950 . S
H1424 C1454 0.950 . S
H1425 C1455 0.950 . S
C1426 H1408 0.951 . S
C1426 C1427 1.366 . S
C1426 C1428 1.388 . S
C1427 C1426 1.366 . S
C1427 C1431 1.385 1_655 S
C1428 H1409 0.951 . S
C1428 C1426 1.388 . S
C1428 C1429 1.366 . S
C1429 C1428 1.366 . S
C1429 C1430 1.414 1_655 S
C1429 C1432 1.499 . S
C1430 H1410 0.950 . S
C1430 C1429 1.414 1_455 S
C1430 C1431 1.374 . S
C1431 H1411 0.950 . S
C1431 C1427 1.385 1_455 S
C1431 C1430 1.374 . S
C1432 C1429 1.499 . S
C1432 C1433 1.373 1_655 S
C1432 C1434 1.389 . S
C1433 H1412 0.950 . S
C1433 C1432 1.373 1_455 S
C1433 C1449 1.377 . S
C1434 C1432 1.389 . S
C1434 C1435 1.524 . S
C1434 C1448 1.377 . S
C1435 C1434 1.524 . S
C1435 C1436 1.397 . S
C1435 C1440 1.363 . S
C1436 H1413 0.950 . S
C1436 C1435 1.397 . S
C1436 C1437 1.334 . S
C1437 H1414 0.950 . S
C1437 C1436 1.334 . S
C1437 C1438 1.287 . S
C1438 C1437 1.287 . S
C1438 C1439 1.524 . S
C1438 H1457 0.913 . S
C1439 H1415 0.950 . S
C1439 C1438 1.524 . S
C1439 C1440 1.415 . S
C1440 H1416 0.950 . S
C1440 C1435 1.363 . S
C1440 C1439 1.415 . S
C1441 H1417 0.951 . S
C1441 C1442 1.366 1_455 S
C1441 C1443 1.388 . S
C1442 C1441 1.366 1_655 S
C1442 C1446 1.385 . S
C1443 H1418 0.951 . S
C1443 C1441 1.388 . S
C1443 C1444 1.366 1_455 S
C1444 C1443 1.366 1_655 S
C1444 C1445 1.414 . S
C1444 C1447 1.499 . S
C1445 H1419 0.950 . S
C1445 C1444 1.414 . S
C1445 C1446 1.374 . S
C1446 H1420 0.950 . S
C1446 C1442 1.385 . S
C1446 C1445 1.374 . S
C1447 C1444 1.499 . S
C1447 C1448 1.373 . S
C1447 C1449 1.389 1_655 S
C1448 H1421 0.950 . S
C1448 C1434 1.377 . S
C1448 C1447 1.373 . S
C1449 C1433 1.377 . S
C1449 C1447 1.389 1_455 S
C1449 C1450 1.524 . S
C1450 C1449 1.524 . S
C1450 C1451 1.397 . S
C1450 C1455 1.363 . S
C1451 H1422 0.950 . S
C1451 C1450 1.397 . S
C1451 C1452 1.334 . S
C1452 H1423 0.950 . S
C1452 C1451 1.334 . S
C1452 C1453 1.287 . S
C1453 C1452 1.287 . S
C1453 C1454 1.524 . S
C1453 H1456 0.999 . S
C1454 H1424 0.950 . S
C1454 C1453 1.524 . S
C1454 C1455 1.415 . S
C1455 H1425 0.950 . S
C1455 C1450 1.363 . S
C1455 C1454 1.415 . S
H1456 C1453 0.999 . S
H1457 C1438 0.913 . S
H1458 C1476 0.951 . S
H1459 C1478 0.951 . S
H1460 C1480 0.950 . S
H1461 C1481 0.950 . S
H1462 C1483 0.950 . S
H1463 C1486 0.950 . S
H1464 C1487 0.950 1_554 S
H1465 C1489 0.950 . S
H1466 C1490 0.950 . S
H1467 C1491 0.951 . S
H1468 C1493 0.951 . S
H1469 C1495 0.950 . S
H1470 C1496 0.950 . S
H1471 C1498 0.950 . S
H1472 C1501 0.950 . S
H1473 C1502 0.950 . S
H1474 C1504 0.950 . S
H1475 C1505 0.950 . S
C1476 H1458 0.951 . S
C1476 C1477 1.366 . S
C1476 C1478 1.388 . S
C1477 C1476 1.366 . S
C1477 C1481 1.385 . S
C1478 H1459 0.951 . S
C1478 C1476 1.388 . S
C1478 C1479 1.366 . S
C1479 C1478 1.366 . S
C1479 C1480 1.414 . S
C1479 C1482 1.499 . S
C1480 H1460 0.950 . S
C1480 C1479 1.414 . S
C1480 C1481 1.374 . S
C1481 H1461 0.950 . S
C1481 C1477 1.385 . S
C1481 C1480 1.374 . S
C1482 C1479 1.499 . S
C1482 C1483 1.373 . S
C1482 C1484 1.389 . S
C1483 H1462 0.950 . S
C1483 C1482 1.373 . S
C1483 C1499 1.377 . S
C1484 C1482 1.389 . S
C1484 C1485 1.524 . S
C1484 C1498 1.377 . S
C1485 C1484 1.524 . S
C1485 C1486 1.397 . S
C1485 C1490 1.363 . S
C1486 H1463 0.950 . S
C1486 C1485 1.397 . S
C1486 C1487 1.334 . S
C1487 H1464 0.950 1_556 S
C1487 C1486 1.334 . S
C1487 C1488 1.287 . S
C1488 C1487 1.287 . S
C1488 C1489 1.524 . S
C1488 H1507 0.913 1_556 S
C1489 H1465 0.950 . S
C1489 C1488 1.524 . S
C1489 C1490 1.415 . S
C1490 H1466 0.950 . S
C1490 C1485 1.363 . S
C1490 C1489 1.415 . S
C1491 H1467 0.951 . S
C1491 C1492 1.366 . S
C1491 C1493 1.388 . S
C1492 C1491 1.366 . S
C1492 C1496 1.385 . S
C1493 H1468 0.951 . S
C1493 C1491 1.388 . S
C1493 C1494 1.366 . S
C1494 C1493 1.366 . S
C1494 C1495 1.414 . S
C1494 C1497 1.499 . S
C1495 H1469 0.950 . S
C1495 C1494 1.414 . S
C1495 C1496 1.374 . S
C1496 H1470 0.950 . S
C1496 C1492 1.385 . S
C1496 C1495 1.374 . S
C1497 C1494 1.499 . S
C1497 C1498 1.373 . S
C1497 C1499 1.389 . S
C1498 H1471 0.950 . S
C1498 C1484 1.377 . S
C1498 C1497 1.373 . S
C1499 C1483 1.377 . S
C1499 C1497 1.389 . S
C1499 C1500 1.524 . S
C1500 C1499 1.524 . S
C1500 C1501 1.397 . S
C1500 C1505 1.363 . S
C1501 H1472 0.950 . S
C1501 C1500 1.397 . S
C1501 C1502 1.334 . S
C1502 H1473 0.950 . S
C1502 C1501 1.334 . S
C1502 C1503 1.287 . S
C1503 C1502 1.287 . S
C1503 C1504 1.524 . S
C1503 H1506 0.999 . S
C1504 H1474 0.950 . S
C1504 C1503 1.524 . S
C1504 C1505 1.415 . S
C1505 H1475 0.950 . S
C1505 C1500 1.363 . S
C1505 C1504 1.415 . S
H1506 C1503 0.999 . S
H1507 C1488 0.913 1_554 S
H1508 C1526 0.951 . S
H1509 C1528 0.951 . S
H1510 C1530 0.950 . S
H1511 C1531 0.950 . S
H1512 C1533 0.950 . S
H1513 C1536 0.950 . S
H1514 C1537 0.950 . S
H1515 C1539 0.950 . S
H1516 C1540 0.950 . S
H1517 C1541 0.951 . S
H1518 C1543 0.951 . S
H1519 C1545 0.950 . S
H1520 C1546 0.950 . S
H1521 C1548 0.950 . S
H1522 C1551 0.950 . S
H1523 C1552 0.950 . S
H1524 C1554 0.950 . S
H1525 C1555 0.950 . S
C1526 H1508 0.951 . S
C1526 C1527 1.366 . S
C1526 C1528 1.388 . S
C1527 C1526 1.366 . S
C1527 C1531 1.385 . S
C1528 H1509 0.951 . S
C1528 C1526 1.388 . S
C1528 C1529 1.366 . S
C1529 C1528 1.366 . S
C1529 C1530 1.414 . S
C1529 C1532 1.499 . S
C1530 H1510 0.950 . S
C1530 C1529 1.414 . S
C1530 C1531 1.374 . S
C1531 H1511 0.950 . S
C1531 C1527 1.385 . S
C1531 C1530 1.374 . S
C1532 C1529 1.499 . S
C1532 C1533 1.373 . S
C1532 C1534 1.389 . S
C1533 H1512 0.950 . S
C1533 C1532 1.373 . S
C1533 C1549 1.377 1_554 S
C1534 C1532 1.389 . S
C1534 C1535 1.524 . S
C1534 C1548 1.377 . S
C1535 C1534 1.524 . S
C1535 C1536 1.397 . S
C1535 C1540 1.363 . S
C1536 H1513 0.950 . S
C1536 C1535 1.397 . S
C1536 C1537 1.334 . S
C1537 H1514 0.950 . S
C1537 C1536 1.334 . S
C1537 C1538 1.287 . S
C1538 C1537 1.287 . S
C1538 C1539 1.524 . S
C1538 H1557 0.913 . S
C1539 H1515 0.950 . S
C1539 C1538 1.524 . S
C1539 C1540 1.415 . S
C1540 H1516 0.950 . S
C1540 C1535 1.363 . S
C1540 C1539 1.415 . S
C1541 H1517 0.951 . S
C1541 C1542 1.366 . S
C1541 C1543 1.388 . S
C1542 C1541 1.366 . S
C1542 C1546 1.385 . S
C1543 H1518 0.951 . S
C1543 C1541 1.388 . S
C1543 C1544 1.366 . S
C1544 C1543 1.366 . S
C1544 C1545 1.414 . S
C1544 C1547 1.499 1_556 S
C1545 H1519 0.950 . S
C1545 C1544 1.414 . S
C1545 C1546 1.374 . S
C1546 H1520 0.950 . S
C1546 C1542 1.385 . S
C1546 C1545 1.374 . S
C1547 C1544 1.499 1_554 S
C1547 C1548 1.373 . S
C1547 C1549 1.389 1_554 S
C1548 H1521 0.950 . S
C1548 C1534 1.377 . S
C1548 C1547 1.373 . S
C1549 C1533 1.377 1_556 S
C1549 C1547 1.389 1_556 S
C1549 C1550 1.524 . S
C1550 C1549 1.524 . S
C1550 C1551 1.397 . S
C1550 C1555 1.363 . S
C1551 H1522 0.950 . S
C1551 C1550 1.397 . S
C1551 C1552 1.334 . S
C1552 H1523 0.950 . S
C1552 C1551 1.334 . S
C1552 C1553 1.287 . S
C1553 C1552 1.287 . S
C1553 C1554 1.524 . S
C1553 H1556 0.999 . S
C1554 H1524 0.950 . S
C1554 C1553 1.524 . S
C1554 C1555 1.415 . S
C1555 H1525 0.950 . S
C1555 C1550 1.363 . S
C1555 C1554 1.415 . S
H1556 C1553 0.999 . S
H1557 C1538 0.913 . S
H1558 C1576 0.951 . S
H1559 C1578 0.951 . S
H1560 C1580 0.950 . S
H1561 C1581 0.950 . S
H1562 C1583 0.950 . S
H1563 C1586 0.950 . S
H1564 C1587 0.950 . S
H1565 C1589 0.950 . S
H1566 C1590 0.950 . S
H1567 C1591 0.951 . S
H1568 C1593 0.951 . S
H1569 C1595 0.950 . S
H1570 C1596 0.950 . S
H1571 C1598 0.950 . S
H1572 C1601 0.950 . S
H1573 C1602 0.950 . S
H1574 C1604 0.950 . S
H1575 C1605 0.950 . S
C1576 H1558 0.951 . S
C1576 C1577 1.366 . S
C1576 C1578 1.388 . S
C1577 C1576 1.366 . S
C1577 C1581 1.385 . S
C1578 H1559 0.951 . S
C1578 C1576 1.388 . S
C1578 C1579 1.366 . S
C1579 C1578 1.366 . S
C1579 C1580 1.414 . S
C1579 C1582 1.499 . S
C1580 H1560 0.950 . S
C1580 C1579 1.414 . S
C1580 C1581 1.374 . S
C1581 H1561 0.950 . S
C1581 C1577 1.385 . S
C1581 C1580 1.374 . S
C1582 C1579 1.499 . S
C1582 C1583 1.373 . S
C1582 C1584 1.389 . S
C1583 H1562 0.950 . S
C1583 C1582 1.373 . S
C1583 C1599 1.377 . S
C1584 C1582 1.389 . S
C1584 C1585 1.524 . S
C1584 C1598 1.377 . S
C1585 C1584 1.524 . S
C1585 C1586 1.397 . S
C1585 C1590 1.363 . S
C1586 H1563 0.950 . S
C1586 C1585 1.397 . S
C1586 C1587 1.334 . S
C1587 H1564 0.950 . S
C1587 C1586 1.334 . S
C1587 C1588 1.287 . S
C1588 C1587 1.287 . S
C1588 C1589 1.524 . S
C1588 H1607 0.913 . S
C1589 H1565 0.950 . S
C1589 C1588 1.524 . S
C1589 C1590 1.415 . S
C1590 H1566 0.950 . S
C1590 C1585 1.363 . S
C1590 C1589 1.415 . S
C1591 H1567 0.951 . S
C1591 C1592 1.366 . S
C1591 C1593 1.388 . S
C1592 C1591 1.366 . S
C1592 C1596 1.385 . S
C1593 H1568 0.951 . S
C1593 C1591 1.388 . S
C1593 C1594 1.366 . S
C1594 C1593 1.366 . S
C1594 C1595 1.414 . S
C1594 C1597 1.499 . S
C1595 H1569 0.950 . S
C1595 C1594 1.414 . S
C1595 C1596 1.374 . S
C1596 H1570 0.950 . S
C1596 C1592 1.385 . S
C1596 C1595 1.374 . S
C1597 C1594 1.499 . S
C1597 C1598 1.373 . S
C1597 C1599 1.389 . S
C1598 H1571 0.950 . S
C1598 C1584 1.377 . S
C1598 C1597 1.373 . S
C1599 C1583 1.377 . S
C1599 C1597 1.389 . S
C1599 C1600 1.524 . S
C1600 C1599 1.524 . S
C1600 C1601 1.397 . S
C1600 C1605 1.363 . S
C1601 H1572 0.950 . S
C1601 C1600 1.397 . S
C1601 C1602 1.334 . S
C1602 H1573 0.950 . S
C1602 C1601 1.334 . S
C1602 C1603 1.287 . S
C1603 C1602 1.287 . S
C1603 C1604 1.524 . S
C1603 H1606 0.999 . S
C1604 H1574 0.950 . S
C1604 C1603 1.524 . S
C1604 C1605 1.415 . S
C1605 H1575 0.950 . S
C1605 C1600 1.363 . S
C1605 C1604 1.415 . S
H1606 C1603 0.999 . S
H1607 C1588 0.913 . S
H1608 C1626 0.951 . S
H1609 C1628 0.951 . S
H1610 C1630 0.950 . S
H1611 C1631 0.950 . S
H1612 C1633 0.950 . S
H1613 C1636 0.950 . S
H1614 C1637 0.950 . S
H1615 C1639 0.950 . S
H1616 C1640 0.950 . S
H1617 C1641 0.951 . S
H1618 C1643 0.951 . S
H1619 C1645 0.950 . S
H1620 C1646 0.950 . S
H1621 C1648 0.950 . S
H1622 C1651 0.950 . S
H1623 C1652 0.950 . S
H1624 C1654 0.950 . S
H1625 C1655 0.950 . S
C1626 H1608 0.951 . S
C1626 C1627 1.366 . S
C1626 C1628 1.388 . S
C1627 C1626 1.366 . S
C1627 C1631 1.385 . S
C1628 H1609 0.951 . S
C1628 C1626 1.388 . S
C1628 C1629 1.366 . S
C1629 C1628 1.366 . S
C1629 C1630 1.414 . S
C1629 C1632 1.499 . S
C1630 H1610 0.950 . S
C1630 C1629 1.414 . S
C1630 C1631 1.374 . S
C1631 H1611 0.950 . S
C1631 C1627 1.385 . S
C1631 C1630 1.374 . S
C1632 C1629 1.499 . S
C1632 C1633 1.373 . S
C1632 C1634 1.389 . S
C1633 H1612 0.950 . S
C1633 C1632 1.373 . S
C1633 C1649 1.377 . S
C1634 C1632 1.389 . S
C1634 C1635 1.524 . S
C1634 C1648 1.377 . S
C1635 C1634 1.524 . S
C1635 C1636 1.397 . S
C1635 C1640 1.363 . S
C1636 H1613 0.950 . S
C1636 C1635 1.397 . S
C1636 C1637 1.334 . S
C1637 H1614 0.950 . S
C1637 C1636 1.334 . S
C1637 C1638 1.287 . S
C1638 C1637 1.287 . S
C1638 C1639 1.524 . S
C1638 H1657 0.913 . S
C1639 H1615 0.950 . S
C1639 C1638 1.524 . S
C1639 C1640 1.415 . S
C1640 H1616 0.950 . S
C1640 C1635 1.363 . S
C1640 C1639 1.415 . S
C1641 H1617 0.951 . S
C1641 C1642 1.366 . S
C1641 C1643 1.388 . S
C1642 C1641 1.366 . S
C1642 C1646 1.385 . S
C1643 H1618 0.951 . S
C1643 C1641 1.388 . S
C1643 C1644 1.366 . S
C1644 C1643 1.366 . S
C1644 C1645 1.414 . S
C1644 C1647 1.499 . S
C1645 H1619 0.950 . S
C1645 C1644 1.414 . S
C1645 C1646 1.374 . S
C1646 H1620 0.950 . S
C1646 C1642 1.385 . S
C1646 C1645 1.374 . S
C1647 C1644 1.499 . S
C1647 C1648 1.373 . S
C1647 C1649 1.389 . S
C1648 H1621 0.950 . S
C1648 C1634 1.377 . S
C1648 C1647 1.373 . S
C1649 C1633 1.377 . S
C1649 C1647 1.389 . S
C1649 C1650 1.524 . S
C1650 C1649 1.524 . S
C1650 C1651 1.397 . S
C1650 C1655 1.363 . S
C1651 H1622 0.950 . S
C1651 C1650 1.397 . S
C1651 C1652 1.334 . S
C1652 H1623 0.950 . S
C1652 C1651 1.334 . S
C1652 C1653 1.287 . S
C1653 C1652 1.287 . S
C1653 C1654 1.524 . S
C1653 H1656 0.999 . S
C1654 H1624 0.950 . S
C1654 C1653 1.524 . S
C1654 C1655 1.415 . S
C1655 H1625 0.950 . S
C1655 C1650 1.363 . S
C1655 C1654 1.415 . S
H1656 C1653 0.999 . S
H1657 C1638 0.913 . S
H1658 C1676 0.951 . S
H1659 C1678 0.951 . S
H1660 C1680 0.950 . S
H1661 C1681 0.950 . S
H1662 C1683 0.950 . S
H1663 C1686 0.950 . S
H1664 C1687 0.950 . S
H1665 C1689 0.950 . S
H1666 C1690 0.950 . S
H1667 C1691 0.951 . S
H1668 C1693 0.951 . S
H1669 C1695 0.950 . S
H1670 C1696 0.954 . S
H1671 C1698 0.950 . S
H1672 C1701 0.950 . S
H1673 C1702 0.950 . S
H1674 C1704 0.950 . S
H1675 C1705 0.950 . S
C1676 H1658 0.951 . S
C1676 C1677 1.366 . S
C1676 C1678 1.388 . S
C1677 C1676 1.366 . S
C1677 C1681 1.385 . S
C1678 H1659 0.951 . S
C1678 C1676 1.388 . S
C1678 C1679 1.366 . S
C1679 C1678 1.366 . S
C1679 C1680 1.414 . S
C1679 C1682 1.499 . S
C1680 H1660 0.950 . S
C1680 C1679 1.414 . S
C1680 C1681 1.374 . S
C1681 H1661 0.950 . S
C1681 C1677 1.385 . S
C1681 C1680 1.374 . S
C1682 C1679 1.499 . S
C1682 C1683 1.373 . S
C1682 C1684 1.389 . S
C1683 H1662 0.950 . S
C1683 C1682 1.373 . S
C1683 C1699 1.377 . S
C1684 C1682 1.389 . S
C1684 C1685 1.524 . S
C1684 C1698 1.377 . S
C1685 C1684 1.524 . S
C1685 C1686 1.397 . S
C1685 C1690 1.363 . S
C1686 H1663 0.950 . S
C1686 C1685 1.397 . S
C1686 C1687 1.334 . S
C1687 H1664 0.950 . S
C1687 C1686 1.334 . S
C1687 C1688 1.287 . S
C1688 C1687 1.287 . S
C1688 C1689 1.524 . S
C1688 H1707 0.913 . S
C1689 H1665 0.950 . S
C1689 C1688 1.524 . S
C1689 C1690 1.415 . S
C1690 H1666 0.950 . S
C1690 C1685 1.363 . S
C1690 C1689 1.415 . S
C1691 H1667 0.951 . S
C1691 C1692 1.366 . S
C1691 C1693 1.388 . S
C1692 C1691 1.366 . S
C1692 C1696 1.385 . S
C1693 H1668 0.951 . S
C1693 C1691 1.388 . S
C1693 C1694 1.366 . S
C1694 C1693 1.366 . S
C1694 C1695 1.414 . S
C1694 C1697 1.499 . S
C1695 H1669 0.950 . S
C1695 C1694 1.414 . S
C1695 C1696 1.374 . S
C1696 H1670 0.954 . S
C1696 C1692 1.385 . S
C1696 C1695 1.374 . S
C1697 C1694 1.499 . S
C1697 C1698 1.373 . S
C1697 C1699 1.389 . S
C1698 H1671 0.950 . S
C1698 C1684 1.377 . S
C1698 C1697 1.373 . S
C1699 C1683 1.377 . S
C1699 C1697 1.389 . S
C1699 C1700 1.524 . S
C1700 C1699 1.524 . S
C1700 C1701 1.397 . S
C1700 C1705 1.363 . S
C1701 H1672 0.950 . S
C1701 C1700 1.397 . S
C1701 C1702 1.334 . S
C1702 H1673 0.950 . S
C1702 C1701 1.334 . S
C1702 C1703 1.287 . S
C1703 C1702 1.287 . S
C1703 C1704 1.524 . S
C1703 H1706 0.999 . S
C1704 H1674 0.950 . S
C1704 C1703 1.524 . S
C1704 C1705 1.415 . S
C1705 H1675 0.950 . S
C1705 C1700 1.363 . S
C1705 C1704 1.415 . S
H1706 C1703 0.999 . S
H1707 C1688 0.913 . S
H1708 C1726 0.951 . S
H1709 C1728 0.951 . S
H1710 C1730 0.950 . S
H1711 C1731 0.950 . S
H1712 C1733 0.950 . S
H1713 C1736 0.950 . S
H1714 C1737 0.950 . S
H1715 C1739 0.950 . S
H1716 C1740 0.950 . S
H1717 C1741 0.951 . S
H1718 C1743 0.951 . S
H1719 C1745 0.950 1_554 S
H1720 C1746 0.950 . S
H1721 C1748 0.950 . S
H1722 C1751 0.950 . S
H1723 C1752 0.950 . S
H1724 C1754 0.950 . S
H1725 C1755 0.950 . S
C1726 H1708 0.951 . S
C1726 C1727 1.366 . S
C1726 C1728 1.388 . S
C1727 C1726 1.366 . S
C1727 C1731 1.385 . S
C1728 H1709 0.951 . S
C1728 C1726 1.388 . S
C1728 C1729 1.366 . S
C1729 C1728 1.366 . S
C1729 C1730 1.414 . S
C1729 C1732 1.499 . S
C1730 H1710 0.950 . S
C1730 C1729 1.414 . S
C1730 C1731 1.374 . S
C1731 H1711 0.950 . S
C1731 C1727 1.385 . S
C1731 C1730 1.374 . S
C1732 C1729 1.499 . S
C1732 C1733 1.373 . S
C1732 C1734 1.389 1_565 S
C1733 H1712 0.950 . S
C1733 C1732 1.373 . S
C1733 C1749 1.377 1_554 S
C1734 C1732 1.389 1_545 S
C1734 C1735 1.524 . S
C1734 C1748 1.377 . S
C1735 C1734 1.524 . S
C1735 C1736 1.397 1_545 S
C1735 C1740 1.363 . S
C1736 H1713 0.950 . S
C1736 C1735 1.397 1_565 S
C1736 C1737 1.334 . S
C1737 H1714 0.950 . S
C1737 C1736 1.334 . S
C1737 C1738 1.287 1_565 S
C1738 C1737 1.287 1_545 S
C1738 C1739 1.524 . S
C1738 H1757 0.913 . S
C1739 H1715 0.950 . S
C1739 C1738 1.524 . S
C1739 C1740 1.415 . S
C1740 H1716 0.950 . S
C1740 C1735 1.363 . S
C1740 C1739 1.415 . S
C1741 H1717 0.951 . S
C1741 C1742 1.366 . S
C1741 C1743 1.388 . S
C1742 C1741 1.366 . S
C1742 C1746 1.385 . S
C1743 H1718 0.951 . S
C1743 C1741 1.388 . S
C1743 C1744 1.366 . S
C1744 C1743 1.366 . S
C1744 C1745 1.414 . S
C1744 C1747 1.499 1_556 S
C1745 H1719 0.950 1_556 S
C1745 C1744 1.414 . S
C1745 C1746 1.374 . S
C1746 H1720 0.950 . S
C1746 C1742 1.385 . S
C1746 C1745 1.374 . S
C1747 C1744 1.499 1_554 S
C1747 C1748 1.373 . S
C1747 C1749 1.389 1_544 S
C1748 H1721 0.950 . S
C1748 C1734 1.377 . S
C1748 C1747 1.373 . S
C1749 C1733 1.377 1_556 S
C1749 C1747 1.389 1_566 S
C1749 C1750 1.524 . S
C1750 C1749 1.524 . S
C1750 C1751 1.397 1_565 S
C1750 C1755 1.363 . S
C1751 H1722 0.950 . S
C1751 C1750 1.397 1_545 S
C1751 C1752 1.334 . S
C1752 H1723 0.950 . S
C1752 C1751 1.334 . S
C1752 C1753 1.287 1_545 S
C1753 C1752 1.287 1_565 S
C1753 C1754 1.524 . S
C1753 H1756 0.999 . S
C1754 H1724 0.950 . S
C1754 C1753 1.524 . S
C1754 C1755 1.415 . S
C1755 H1725 0.950 . S
C1755 C1750 1.363 . S
C1755 C1754 1.415 . S
H1756 C1753 0.999 . S
H1757 C1738 0.913 . S
H1758 C1776 0.951 . S
H1759 C1778 0.951 . S
H1760 C1780 0.950 . S
H1761 C1781 0.950 . S
H1762 C1783 0.950 . S
H1763 C1786 0.950 1_455 S
H1764 C1787 0.950 . S
H1765 C1789 0.950 . S
H1766 C1790 0.950 . S
H1767 C1791 0.951 . S
H1768 C1793 0.951 . S
H1769 C1795 0.950 . S
H1770 C1796 0.950 . S
H1771 C1798 0.950 . S
H1772 C1801 0.950 . S
H1773 C1802 0.950 . S
H1774 C1804 0.950 . S
H1775 C1805 0.950 . S
C1776 H1758 0.951 . S
C1776 C1777 1.366 1_655 S
C1776 C1778 1.388 . S
C1777 C1776 1.366 1_455 S
C1777 C1781 1.385 . S
C1778 H1759 0.951 . S
C1778 C1776 1.388 . S
C1778 C1779 1.366 1_655 S
C1779 C1778 1.366 1_455 S
C1779 C1780 1.414 . S
C1779 C1782 1.499 . S
C1780 H1760 0.950 . S
C1780 C1779 1.414 . S
C1780 C1781 1.374 . S
C1781 H1761 0.950 . S
C1781 C1777 1.385 . S
C1781 C1780 1.374 . S
C1782 C1779 1.499 . S
C1782 C1783 1.373 . S
C1782 C1784 1.389 1_445 S
C1783 H1762 0.950 . S
C1783 C1782 1.373 . S
C1783 C1799 1.377 . S
C1784 C1782 1.389 1_665 S
C1784 C1785 1.524 . S
C1784 C1798 1.377 . S
C1785 C1784 1.524 . S
C1785 C1786 1.397 . S
C1785 C1790 1.363 . S
C1786 H1763 0.950 1_655 S
C1786 C1785 1.397 . S
C1786 C1787 1.334 . S
C1787 H1764 0.950 . S
C1787 C1786 1.334 . S
C1787 C1788 1.287 . S
C1788 C1787 1.287 . S
C1788 C1789 1.524 . S
C1788 H1807 0.913 . S
C1789 H1765 0.950 . S
C1789 C1788 1.524 . S
C1789 C1790 1.415 . S
C1790 H1766 0.950 . S
C1790 C1785 1.363 . S
C1790 C1789 1.415 . S
C1791 H1767 0.951 . S
C1791 C1792 1.366 . S
C1791 C1793 1.388 . S
C1792 C1791 1.366 . S
C1792 C1796 1.385 1_455 S
C1793 H1768 0.951 . S
C1793 C1791 1.388 . S
C1793 C1794 1.366 . S
C1794 C1793 1.366 . S
C1794 C1795 1.414 1_455 S
C1794 C1797 1.499 . S
C1795 H1769 0.950 . S
C1795 C1794 1.414 1_655 S
C1795 C1796 1.374 . S
C1796 H1770 0.950 . S
C1796 C1792 1.385 1_655 S
C1796 C1795 1.374 . S
C1797 C1794 1.499 . S
C1797 C1798 1.373 1_455 S
C1797 C1799 1.389 1_565 S
C1798 H1771 0.950 . S
C1798 C1784 1.377 . S
C1798 C1797 1.373 1_655 S
C1799 C1783 1.377 . S
C1799 C1797 1.389 1_545 S
C1799 C1800 1.524 . S
C1800 C1799 1.524 . S
C1800 C1801 1.397 . S
C1800 C1805 1.363 . S
C1801 H1772 0.950 . S
C1801 C1800 1.397 . S
C1801 C1802 1.334 . S
C1802 H1773 0.950 . S
C1802 C1801 1.334 . S
C1802 C1803 1.287 . S
C1803 C1802 1.287 . S
C1803 C1804 1.524 . S
C1803 H1806 0.999 . S
C1804 H1774 0.950 . S
C1804 C1803 1.524 . S
C1804 C1805 1.415 . S
C1805 H1775 0.950 . S
C1805 C1800 1.363 . S
C1805 C1804 1.415 . S
H1806 C1803 0.999 . S
H1807 C1788 0.913 . S
C227 C120 1.488 . S
C242 C5 1.485 . S
C277 C185 1.488 . S
C292 C18 1.488 . S
C327 C31 1.488 . S
C342 C107 1.488 . S
C377 C44 1.488 . S
C392 C200 1.491 . S
C427 C55 1.488 . S
C442 C133 1.485 . S
C477 C172 1.488 . S
C492 C70 1.491 . S
C527 C146 1.488 . S
C542 C83 1.488 . S
C577 C94 1.488 . S
C592 C159 1.488 . S
C627 C57 1.610 . S
C642 C42 1.613 1_556 S
C677 C161 1.610 . S
C692 C109 1.610 . S
C727 C81 1.610 . S
C742 C16 1.610 . S
C777 C122 1.609 . S
C792 C174 1.606 . S
C827 C3 1.610 . S
C842 C68 1.613 . S
C877 C198 1.610 . S
C892 C135 1.607 1_556 S
C927 C96 1.610 . S
C942 C29 1.610 . S
C977 C148 1.610 . S
C992 C187 1.610 . S
C1027 C10 0.523 . S
C1042 C56 0.523 . S
C1077 C75 0.524 . S
C1092 C23 0.523 . S
C1127 C88 0.524 . S
C1142 C36 0.523 . S
C1177 C49 0.523 . S
C1192 C95 0.525 . S
C1227 C134 0.523 . S
C1242 C108 0.524 . S
C1277 C147 0.523 . S
C1292 C121 0.523 . S
C1327 C186 0.524 . S
C1342 C160 0.523 . S
C1377 C205 0.524 . S
C1392 C173 0.523 . S
C1427 C62 1.856 . S
C1442 C4 1.857 . S
C1477 C69 1.857 . S
C1492 C17 1.857 . S
C1527 C82 1.857 . S
C1542 C30 1.857 . S
C1577 C43 1.857 . S
C1592 C101 1.856 . S
C1627 C114 1.857 . S
C1642 C140 1.856 . S
C1677 C153 1.857 . S
C1692 C127 1.857 . S
C1727 C192 1.857 . S
C1742 C166 1.857 . S
C1777 C199 1.857 . S
C1792 C179 1.857 . S
