# Generated by pormake.
# Topology snx, (6)-cn, num edge types: 1
# Building blocks:
#     Node 0, Type 0, BuildingBlock: IZENUY_clean_sbu_0, # of connection points: 6
#     Node 1, Type 0, BuildingBlock: IZENUY_clean_sbu_0, # of connection points: 6
#     Node 2, Type 0, BuildingBlock: IZENUY_clean_sbu_0, # of connection points: 6
#     Node 3, Type 0, BuildingBlock: IZENUY_clean_sbu_0, # of connection points: 6
#     Node 4, Type 0, BuildingBlock: IZENUY_clean_sbu_0, # of connection points: 6
#     Node 5, Type 0, BuildingBlock: IZENUY_clean_sbu_0, # of connection points: 6
#     Edge 6, Type (0, 0), BuildingBlock: FUNLAD_clean_linker_0, # of connection points: 2
#     Edge 7, Type (0, 0), BuildingBlock: FUNLAD_clean_linker_0, # of connection points: 2
#     Edge 8, Type (0, 0), BuildingBlock: FUNLAD_clean_linker_0, # of connection points: 2
#     Edge 9, Type (0, 0), BuildingBlock: FUNLAD_clean_linker_0, # of connection points: 2
#     Edge 10, Type (0, 0), BuildingBlock: FUNLAD_clean_linker_0, # of connection points: 2
#     Edge 11, Type (0, 0), BuildingBlock: FUNLAD_clean_linker_0, # of connection points: 2
#     Edge 12, Type (0, 0), BuildingBlock: FUNLAD_clean_linker_0, # of connection points: 2
#     Edge 13, Type (0, 0), BuildingBlock: FUNLAD_clean_linker_0, # of connection points: 2
#     Edge 14, Type (0, 0), BuildingBlock: FUNLAD_clean_linker_0, # of connection points: 2
#     Edge 15, Type (0, 0), BuildingBlock: FUNLAD_clean_linker_0, # of connection points: 2
#     Edge 16, Type (0, 0), BuildingBlock: FUNLAD_clean_linker_0, # of connection points: 2
#     Edge 17, Type (0, 0), BuildingBlock: FUNLAD_clean_linker_0, # of connection points: 2
#     Edge 18, Type (0, 0), BuildingBlock: FUNLAD_clean_linker_0, # of connection points: 2
#     Edge 19, Type (0, 0), BuildingBlock: FUNLAD_clean_linker_0, # of connection points: 2
#     Edge 20, Type (0, 0), BuildingBlock: FUNLAD_clean_linker_0, # of connection points: 2
#     Edge 21, Type (0, 0), BuildingBlock: FUNLAD_clean_linker_0, # of connection points: 2
#     Edge 22, Type (0, 0), BuildingBlock: FUNLAD_clean_linker_0, # of connection points: 2
#     Edge 23, Type (0, 0), BuildingBlock: FUNLAD_clean_linker_0, # of connection points: 2
# Relax obj value: 0.026
# Max RMSD: 0.068
# Mean RMSD: 0.067
data_MOF--net-snx--node1-IZENUY_clean_sbu_0--edge1-FUNLAD_clean_linker_0
_symmetry_space_group_name_H-M    P1
_symmetry_Int_Tables_number       1
_symmetry_cell_setting            triclinic
loop_
_symmetry_equiv_pos_as_xyz
'x, y, z'
_cell_length_a     41.493148
_cell_length_b     41.573018
_cell_length_c     24.798107
_cell_angle_alpha  89.924466
_cell_angle_beta   90.285919
_cell_angle_gamma 119.98854
loop_
_atom_site_label
_atom_site_type_symbol
_atom_site_fract_x
_atom_site_fract_y
_atom_site_fract_z
_atom_type_partial_charge
Fe0 Fe 0.17319 0.33105 0.27148 0.0
Fe1 Fe 0.21301 0.40743 0.32699 0.0
O2 O 0.19992 0.38022 0.26728 0.0
Fe3 Fe 0.2134 0.40195 0.20332 0.0
O4 O 0.1654 0.38137 0.18077 0.0
O5 O 0.14865 0.32479 0.20708 0.0
O6 O 0.13517 0.33314 0.30417 0.0
C7 C 0.13846 0.351 0.347 0.0
C8 C 0.22301 0.3392 0.19331 0.0
O9 O 0.17019 0.37597 0.36354 0.0
C10 C 0.27733 0.44501 0.26076 0.0
O11 O 0.19256 0.32779 0.33666 0.0
O12 O 0.23736 0.38458 0.35349 0.0
O13 O 0.21866 0.36469 0.17266 0.0
O14 O 0.20952 0.32583 0.23897 0.0
C15 C 0.19553 0.44982 0.26171 0.0
O16 O 0.25802 0.44395 0.30089 0.0
O17 O 0.26234 0.42412 0.22063 0.0
C18 C 0.22224 0.35006 0.36131 0.0
O19 O 0.18968 0.43234 0.30546 0.0
O20 O 0.21089 0.44328 0.22254 0.0
C21 C 0.14317 0.34686 0.17846 0.0
Fe22 Fe 0.81043 0.20406 0.70391 0.0
Fe23 Fe 0.81493 0.20595 0.82765 0.0
O24 O 0.8252 0.19288 0.76485 0.0
Fe25 Fe 0.85025 0.16862 0.76326 0.0
O26 O 0.87373 0.18882 0.69935 0.0
O27 O 0.85794 0.23057 0.67914 0.0
O28 O 0.8158 0.24803 0.72897 0.0
C29 C 0.83411 0.26849 0.76841 0.0
C30 C 0.79812 0.13136 0.68459 0.0
O31 O 0.84037 0.25475 0.8098 0.0
C32 C 0.80186 0.13633 0.85216 0.0
O33 O 0.76172 0.1783 0.72388 0.0
O34 O 0.77069 0.20141 0.80568 0.0
O35 O 0.81225 0.12927 0.72878 0.0
O36 O 0.80249 0.16213 0.66802 0.0
C37 C 0.88835 0.22 0.84229 0.0
O38 O 0.78875 0.15792 0.84981 0.0
O39 O 0.83119 0.14374 0.82678 0.0
C40 C 0.74909 0.18379 0.76698 0.0
O41 O 0.85736 0.21319 0.86132 0.0
O42 O 0.89011 0.20643 0.79759 0.0
C43 C 0.87949 0.21756 0.67375 0.0
Fe44 Fe 0.68609 0.84486 0.2627 0.0
Fe45 Fe 0.61196 0.80068 0.20115 0.0
O46 O 0.63684 0.81718 0.26278 0.0
Fe47 Fe 0.61214 0.80615 0.32453 0.0
O48 O 0.64508 0.84921 0.35917 0.0
O49 O 0.68505 0.88298 0.29681 0.0
O50 O 0.68833 0.86848 0.19898 0.0
C51 C 0.66382 0.872 0.1732 0.0
C52 C 0.67089 0.79701 0.35301 0.0
O53 O 0.62987 0.84757 0.17617 0.0
C54 C 0.57304 0.7394 0.26434 0.0
O55 O 0.69137 0.80921 0.22845 0.0
O56 O 0.64834 0.79598 0.16674 0.0
O57 O 0.63598 0.78252 0.34955 0.0
O58 O 0.69237 0.82601 0.32648 0.0
C59 C 0.56749 0.82149 0.2608 0.0
O60 O 0.59201 0.75248 0.22203 0.0
O61 O 0.57459 0.76077 0.30186 0.0
C62 C 0.67626 0.79448 0.18408 0.0
O63 O 0.57108 0.80255 0.22391 0.0
O64 O 0.58671 0.82927 0.30349 0.0
C65 C 0.66986 0.88042 0.34172 0.0
Fe66 Fe 0.84918 0.67898 0.76768 0.0
Fe67 Fe 0.81256 0.60332 0.8258 0.0
O68 O 0.82442 0.62968 0.76551 0.0
Fe69 Fe 0.81117 0.60629 0.70265 0.0
O70 O 0.85056 0.6421 0.66517 0.0
O71 O 0.88676 0.68183 0.7265 0.0
O72 O 0.87723 0.68199 0.82741 0.0
C73 C 0.88355 0.65831 0.85022 0.0
C74 C 0.79476 0.66141 0.68512 0.0
O75 O 0.86094 0.62395 0.84569 0.0
C76 C 0.74869 0.56279 0.76748 0.0
O77 O 0.81383 0.68034 0.80886 0.0
O78 O 0.80636 0.63668 0.86604 0.0
O79 O 0.78295 0.62695 0.68665 0.0
O80 O 0.82505 0.68427 0.7084 0.0
C81 C 0.8341 0.5637 0.75543 0.0
O82 O 0.76309 0.58087 0.81018 0.0
O83 O 0.76889 0.56597 0.7276 0.0
C84 C 0.80142 0.66327 0.85271 0.0
O85 O 0.81677 0.56503 0.79655 0.0
O86 O 0.83868 0.5841 0.7151 0.0
C87 C 0.88217 0.66775 0.68009 0.0
Fe88 Fe 0.178 0.84605 0.27194 0.0
Fe89 Fe 0.21184 0.80674 0.20796 0.0
O90 O 0.20175 0.82053 0.27044 0.0
Fe91 Fe 0.21584 0.80903 0.33167 0.0
O92 O 0.17699 0.80501 0.37137 0.0
O93 O 0.14056 0.81089 0.31264 0.0
O94 O 0.14914 0.82323 0.21218 0.0
C95 C 0.14133 0.79353 0.18735 0.0
C96 C 0.23336 0.88043 0.35338 0.0
O97 O 0.16291 0.78035 0.18957 0.0
C98 C 0.2768 0.82825 0.2633 0.0
O99 O 0.2136 0.88315 0.23168 0.0
O100 O 0.21806 0.84752 0.17032 0.0
O101 O 0.24481 0.85755 0.34961 0.0
O102 O 0.20281 0.87361 0.33178 0.0
C103 C 0.19125 0.74429 0.27582 0.0
O104 O 0.26168 0.8324 0.22162 0.0
O105 O 0.25749 0.81113 0.30383 0.0
C106 C 0.22418 0.87908 0.18589 0.0
O107 O 0.20723 0.76329 0.23423 0.0
O108 O 0.18792 0.75966 0.31765 0.0
C109 C 0.14543 0.80013 0.358 0.0
Fe110 Fe 0.41341 0.21086 0.70832 0.0
Fe111 Fe 0.41407 0.2028 0.83101 0.0
O112 O 0.3889 0.19532 0.76992 0.0
Fe113 Fe 0.33954 0.17258 0.77037 0.0
O114 O 0.33388 0.14946 0.70504 0.0
O115 O 0.39066 0.164 0.68138 0.0
O116 O 0.45189 0.20384 0.72902 0.0
C117 C 0.45402 0.1833 0.7649 0.0
C118 C 0.35512 0.22686 0.69513 0.0
O119 O 0.43505 0.17597 0.80748 0.0
C120 C 0.36076 0.21913 0.8631 0.0
O121 O 0.43762 0.25879 0.73147 0.0
O122 O 0.45425 0.24661 0.80956 0.0
O123 O 0.33922 0.2121 0.73896 0.0
O124 O 0.37968 0.22076 0.67583 0.0
C125 C 0.35129 0.13107 0.84557 0.0
O126 O 0.395 0.23012 0.85856 0.0
O127 O 0.33669 0.19168 0.83597 0.0
C128 C 0.45699 0.2697 0.77401 0.0
O129 O 0.37846 0.16058 0.86399 0.0
O130 O 0.33583 0.13127 0.80172 0.0
C131 C 0.35585 0.14286 0.67808 0.0
C132 C 0.17662 0.49312 0.30325 0.0
C133 C 0.18858 0.48149 0.25809 0.0
C134 C 0.17315 0.52492 0.30073 0.0
C135 C 0.18137 0.54572 0.25273 0.0
C136 C 0.1923 0.5334 0.20736 0.0
C137 C 0.19579 0.50172 0.20989 0.0
C138 C 0.1814 0.58153 0.24854 0.0
C139 C 0.16609 0.59412 0.28477 0.0
C140 C 0.16954 0.63152 0.28081 0.0
C141 C 0.16728 0.64894 0.32801 0.0
C142 C 0.17311 0.68515 0.32643 0.0
C143 C 0.18125 0.70469 0.27743 0.0
H144 H 0.17584 0.63748 0.19365 0.0
C145 C 0.18162 0.68656 0.22983 0.0
C146 C 0.1756 0.65037 0.23138 0.0
H147 H 0.18704 0.7005 0.19122 0.0
H148 H 0.17089 0.47823 0.34109 0.0
H149 H 0.16523 0.53351 0.33703 0.0
H150 H 0.19884 0.54873 0.16983 0.0
H151 H 0.2049 0.49357 0.17421 0.0
H152 H 0.19594 0.59877 0.21413 0.0
H153 H 0.15212 0.57762 0.31998 0.0
H154 H 0.1621 0.63494 0.36655 0.0
H155 H 0.17234 0.69817 0.36383 0.0
C156 C 0.685 0.15923 0.72669 0.0
C157 C 0.70933 0.17331 0.77114 0.0
C158 C 0.64828 0.15209 0.73063 0.0
C159 C 0.63522 0.15907 0.77918 0.0
C160 C 0.65914 0.1715 0.82405 0.0
C161 C 0.69565 0.17862 0.82012 0.0
C162 C 0.59763 0.15515 0.78496 0.0
C163 C 0.57679 0.15517 0.74308 0.0
C164 C 0.54279 0.15845 0.74924 0.0
C165 C 0.53175 0.17217 0.70548 0.0
C166 C 0.5023 0.17912 0.71034 0.0
C167 C 0.48281 0.17231 0.75914 0.0
H168 H 0.5287 0.13787 0.83153 0.0
C169 C 0.49243 0.15669 0.80223 0.0
C170 C 0.52209 0.14975 0.79737 0.0
H171 H 0.47767 0.15063 0.84014 0.0
H172 H 0.69448 0.15434 0.68858 0.0
H173 H 0.63052 0.14131 0.69548 0.0
H174 H 0.6499 0.17676 0.86213 0.0
H175 H 0.71336 0.18896 0.8555 0.0
H176 H 0.58878 0.15615 0.8257 0.0
H177 H 0.58689 0.15684 0.70234 0.0
H178 H 0.54675 0.17872 0.6677 0.0
H179 H 0.49536 0.19064 0.67596 0.0
C180 C 0.33435 0.49864 0.30154 0.0
C181 C 0.31699 0.47462 0.25765 0.0
C182 C 0.3705 0.52878 0.29698 0.0
C183 C 0.39031 0.53558 0.24836 0.0
C184 C 0.37326 0.51111 0.20494 0.0
C185 C 0.33715 0.48083 0.20958 0.0
C186 C 0.42715 0.5696 0.24007 0.0
C187 C 0.45079 0.58835 0.28081 0.0
C188 C 0.48463 0.62564 0.27499 0.0
C189 C 0.49864 0.64786 0.32129 0.0
C190 C 0.52809 0.68429 0.3178 0.0
C191 C 0.54468 0.69945 0.26789 0.0
H192 H 0.4933 0.62361 0.18881 0.0
C193 C 0.53217 0.67667 0.22182 0.0
C194 C 0.50237 0.64012 0.22525 0.0
H195 H 0.54459 0.68742 0.18284 0.0
H196 H 0.31964 0.49481 0.33909 0.0
H197 H 0.38202 0.54749 0.33096 0.0
H198 H 0.38768 0.51579 0.16691 0.0
H199 H 0.32468 0.46298 0.17486 0.0
H200 H 0.43396 0.58001 0.19915 0.0
H201 H 0.44385 0.57719 0.32139 0.0
H202 H 0.48592 0.63743 0.36023 0.0
H203 H 0.53735 0.70088 0.35427 0.0
C204 C 0.83792 0.51077 0.79662 0.0
C205 C 0.84402 0.5341 0.75213 0.0
C206 C 0.84391 0.48068 0.79274 0.0
C207 C 0.85657 0.47332 0.74427 0.0
C208 C 0.86364 0.49723 0.70024 0.0
C209 C 0.85762 0.52742 0.70414 0.0
C210 C 0.85921 0.43918 0.73676 0.0
C211 C 0.86169 0.41931 0.778 0.0
C212 C 0.85798 0.38198 0.77179 0.0
C213 C 0.86897 0.36749 0.81474 0.0
C214 C 0.86228 0.33103 0.81313 0.0
C215 C 0.84415 0.30808 0.76852 0.0
H216 H 0.8308 0.36875 0.69307 0.0
C217 C 0.83407 0.32289 0.72486 0.0
C218 C 0.8407 0.35929 0.72651 0.0
H219 H 0.82 0.30601 0.68986 0.0
H220 H 0.82743 0.51504 0.83425 0.0
H221 H 0.83701 0.46253 0.82725 0.0
H222 H 0.87312 0.49211 0.66229 0.0
H223 H 0.86264 0.54484 0.66908 0.0
H224 H 0.85847 0.43002 0.69559 0.0
H225 H 0.86604 0.43039 0.81866 0.0
H226 H 0.8821 0.38419 0.85029 0.0
H227 H 0.87055 0.3206 0.84741 0.0
C228 C 0.52574 0.84344 0.29931 0.0
C229 C 0.53757 0.83087 0.25522 0.0
C230 C 0.49552 0.84945 0.29397 0.0
C231 C 0.47676 0.84334 0.24409 0.0
C232 C 0.48955 0.83197 0.19983 0.0
C233 C 0.51952 0.82586 0.20523 0.0
C234 C 0.44216 0.8454 0.23687 0.0
C235 C 0.429 0.86003 0.2731 0.0
C236 C 0.39129 0.85564 0.26849 0.0
C237 C 0.3718 0.8524 0.31603 0.0
C238 C 0.33494 0.84439 0.31395 0.0
C239 C 0.31684 0.84005 0.26415 0.0
H240 H 0.38851 0.85668 0.18095 0.0
C241 C 0.33696 0.84551 0.21635 0.0
C242 C 0.37387 0.85312 0.21846 0.0
H243 H 0.32386 0.84275 0.17742 0.0
H244 H 0.53907 0.84754 0.33836 0.0
H245 H 0.48648 0.85759 0.32957 0.0
H246 H 0.4758 0.82702 0.16096 0.0
H247 H 0.52813 0.81658 0.17018 0.0
H248 H 0.42576 0.8323 0.2009 0.0
H249 H 0.4445 0.87267 0.30977 0.0
H250 H 0.38465 0.85465 0.35505 0.0
H251 H 0.32039 0.841 0.35155 0.0
C252 C 0.68613 0.52432 0.81119 0.0
C253 C 0.70869 0.53444 0.76511 0.0
C254 C 0.64906 0.49547 0.80866 0.0
C255 C 0.63398 0.47618 0.75991 0.0
C256 C 0.65605 0.48775 0.71348 0.0
C257 C 0.69293 0.51637 0.71602 0.0
C258 C 0.59622 0.4429 0.75568 0.0
C259 C 0.57834 0.42068 0.79778 0.0
C260 C 0.54483 0.38321 0.79183 0.0
C261 C 0.5373 0.35717 0.83284 0.0
C262 C 0.5084 0.32062 0.82728 0.0
C263 C 0.4861 0.30915 0.78052 0.0
H264 H 0.52529 0.39175 0.71434 0.0
C265 C 0.49241 0.33555 0.74043 0.0
C266 C 0.5214 0.37228 0.74606 0.0
H267 H 0.47529 0.32778 0.70437 0.0
H268 H 0.69728 0.53812 0.84941 0.0
H269 H 0.6326 0.48834 0.84499 0.0
H270 H 0.64513 0.47377 0.67528 0.0
H271 H 0.70928 0.52385 0.67945 0.0
H272 H 0.58508 0.43419 0.71529 0.0
H273 H 0.59098 0.42803 0.83757 0.0
H274 H 0.55455 0.36479 0.86877 0.0
H275 H 0.50405 0.3012 0.85941 0.0
C276 C 0.31086 0.21916 0.91988 0.0
C277 C 0.34836 0.23656 0.90403 0.0
C278 C 0.29919 0.23536 0.9589 0.0
C279 C 0.32476 0.26949 0.98276 0.0
C280 C 0.36209 0.2871 0.96639 0.0
C281 C 0.37386 0.27069 0.92785 0.0
C282 C 0.31299 0.28844 0.02228 0.0
C283 C 0.28384 0.27016 0.05575 0.0
C284 C 0.27069 0.28937 0.09266 0.0
C285 C 0.25125 0.27127 0.13966 0.0
C286 C 0.23664 0.28778 0.17346 0.0
C287 C 0.2406 0.32248 0.16031 0.0
H288 H 0.28903 0.33878 0.04351 0.0
C289 C 0.26032 0.34067 0.11348 0.0
C290 C 0.27516 0.32436 0.08006 0.0
H291 H 0.26388 0.36742 0.10207 0.0
H292 H 0.29044 0.19291 0.90224 0.0
H293 H 0.26998 0.22149 0.96928 0.0
H294 H 0.38227 0.31362 0.98363 0.0
H295 H 0.4029 0.28497 0.91632 0.0
H296 H 0.32972 0.3185 0.02476 0.0
H297 H 0.26942 0.24001 0.05713 0.0
H298 H 0.24713 0.24415 0.15008 0.0
H299 H 0.22146 0.27294 0.20908 0.0
C300 C 0.9186 0.26605 0.6047 0.0
C301 C 0.90914 0.23289 0.63224 0.0
C302 C 0.9458 0.27926 0.56428 0.0
C303 C 0.96391 0.25941 0.55049 0.0
C304 C 0.95429 0.22633 0.57792 0.0
C305 C 0.92755 0.21338 0.6185 0.0
C306 C 0.99215 0.27142 0.50695 0.0
C307 C 0.01429 0.30707 0.49225 0.0
C308 C 0.04483 0.31845 0.45245 0.0
C309 C 0.07734 0.35298 0.45867 0.0
C310 C 0.10748 0.36366 0.42401 0.0
C311 C 0.10556 0.34029 0.38162 0.0
H312 H 0.0173 0.26915 0.40202 0.0
C313 C 0.07239 0.30637 0.37391 0.0
C314 C 0.04237 0.2955 0.40903 0.0
H315 H 0.06985 0.28786 0.3414 0.0
H316 H 0.90483 0.28165 0.61407 0.0
H317 H 0.9519 0.30448 0.54321 0.0
H318 H 0.96764 0.21038 0.56805 0.0
H319 H 0.92094 0.18765 0.63852 0.0
H320 H 0.99678 0.25017 0.48929 0.0
H321 H 1.01236 0.32891 0.5134 0.0
H322 H 0.07984 0.37137 0.49137 0.0
H323 H 0.13244 0.39019 0.43073 0.0
C324 C 0.75477 0.09631 0.92196 0.0
C325 C 0.78532 0.10393 0.8891 0.0
C326 C 0.74041 0.06638 0.95807 0.0
C327 C 0.75626 0.04335 0.96179 0.0
C328 C 0.78652 0.0509 0.92858 0.0
C329 C 0.80077 0.08064 0.89261 0.0
C330 C 0.7436 0.01234 1.00117 0.0
C331 C 0.71009 0.9956 0.02536 0.0
C332 C 0.6987 0.96444 0.0642 0.0
C333 C 0.6608 0.93817 0.07001 0.0
C334 C 0.64934 0.90817 0.10542 0.0
C335 C 0.6756 0.904 0.13619 0.0
H336 H 0.7542 0.98117 0.09441 0.0
C337 C 0.71345 0.93088 0.13141 0.0
C338 C 0.72487 0.96078 0.09606 0.0
H339 H 0.73442 0.92892 0.15505 0.0
H340 H 0.74227 0.11377 0.92042 0.0
H341 H 0.71762 0.06212 0.98375 0.0
H342 H 0.79941 0.03379 0.93062 0.0
H343 H 0.82425 0.08553 0.86791 0.0
H344 H 0.76252 1.00189 1.00876 0.0
H345 H 0.68953 1.00337 1.01448 0.0
H346 H 0.64001 0.94055 0.04651 0.0
H347 H 0.61991 0.8882 0.10844 0.0
C348 C 0.66451 0.75383 0.42865 0.0
C349 C 0.68722 0.78234 0.39267 0.0
C350 C 0.68025 0.74126 0.46749 0.0
C351 C 0.71915 0.75669 0.47084 0.0
C352 C 0.7417 0.78504 0.4347 0.0
C353 C 0.72601 0.79766 0.39606 0.0
C354 C 0.73755 0.74499 0.51202 0.0
C355 C 0.72006 0.71278 0.53962 0.0
C356 C 0.73933 0.70078 0.57876 0.0
C357 C 0.72392 0.66272 0.5892 0.0
C358 C 0.74158 0.65005 0.62432 0.0
C359 C 0.77505 0.67522 0.65032 0.0
H360 H 0.78431 0.75578 0.60075 0.0
C361 C 0.78988 0.71345 0.64137 0.0
C362 C 0.7722 0.72613 0.60609 0.0
H363 H 0.81538 0.73364 0.66117 0.0
H364 H 0.63454 0.7416 0.42749 0.0
H365 H 0.66174 0.72009 0.4953 0.0
H366 H 0.77171 0.7976 0.43634 0.0
H367 H 0.74441 0.81966 0.36906 0.0
H368 H 0.7673 0.76304 0.51759 0.0
H369 H 0.69107 0.6931 0.53098 0.0
H370 H 0.69841 0.64257 0.56933 0.0
H371 H 0.72913 0.6204 0.63057 0.0
C372 C 0.93932 0.70905 0.8984 0.0
C373 C 0.91598 0.67106 0.88724 0.0
C374 C 0.96869 0.72084 0.93542 0.0
C375 C 0.97534 0.69484 0.96238 0.0
C376 C 0.95275 0.65702 0.94992 0.0
C377 C 0.92333 0.64522 0.91307 0.0
C378 C 1.00588 0.70608 1.00281 0.0
C379 C 0.0198 0.73762 0.03212 0.0
C380 C 0.04995 0.74943 0.07343 0.0
C381 C 0.05562 0.77775 0.10966 0.0
C382 C 0.08458 0.79127 0.14744 0.0
C383 C 0.10888 0.77692 0.14995 0.0
H384 H 0.07128 0.71336 0.04867 0.0
C385 C 0.10294 0.7481 0.11437 0.0
C386 C 0.07394 0.7346 0.07637 0.0
H387 H 0.12126 0.73655 0.11489 0.0
H388 H 0.93476 0.72977 0.87889 0.0
H389 H 0.98624 0.75034 0.94228 0.0
H390 H 0.95746 0.6364 0.96947 0.0
H391 H 0.90616 0.61575 0.90522 0.0
H392 H 0.0155 0.68657 1.01047 0.0
H393 H 1.00767 0.75532 0.02725 0.0
H394 H 0.03776 0.78983 0.10844 0.0
H395 H 0.08821 0.81344 0.17417 0.0
C396 C 0.36343 0.10524 0.60496 0.0
C397 C 0.34016 0.11167 0.63893 0.0
C398 C 0.34828 0.07619 0.56736 0.0
C399 C 0.30945 0.05271 0.56322 0.0
C400 C 0.28635 0.05921 0.59724 0.0
C401 C 0.30144 0.08818 0.6347 0.0
C402 C 0.29162 0.02204 0.52305 0.0
C403 C 0.30921 1.00648 0.49785 0.0
C404 C 0.29007 0.97511 0.45903 0.0
C405 C 0.30379 0.95064 0.45174 0.0
C406 C 0.28577 0.92018 0.41693 0.0
C407 C 0.2537 0.91366 0.38828 0.0
H408 H 0.24813 0.98831 0.43162 0.0
C409 C 0.24074 0.9389 0.39417 0.0
C410 C 0.25875 0.96932 0.42891 0.0
H411 H 0.21648 0.9351 0.37212 0.0
H412 H 0.39338 0.12292 0.60694 0.0
H413 H 0.36714 0.07287 0.54109 0.0
H414 H 0.25637 0.04176 0.59488 0.0
H415 H 0.28262 0.09221 0.66017 0.0
H416 H 0.26204 0.0107 0.51602 0.0
H417 H 0.33788 0.01524 0.50811 0.0
H418 H 0.32814 0.95469 0.47383 0.0
H419 H 0.29674 0.9015 0.41303 0.0
C420 C 0.67327 0.75555 0.1054 0.0
C421 C 0.69373 0.77907 0.14838 0.0
C422 C 0.69016 0.74307 0.06891 0.0
C423 C 0.72803 0.75403 0.07439 0.0
C424 C 0.74846 0.77736 0.11746 0.0
C425 C 0.7314 0.78944 0.15451 0.0
C426 C 0.74715 0.74299 0.03422 0.0
C427 C 0.72983 0.71016 1.00822 0.0
C428 C 0.74874 0.69901 0.96801 0.0
C429 C 0.73941 0.66166 0.96511 0.0
C430 C 0.75665 0.6502 0.92765 0.0
C431 C 0.78282 0.6757 0.89124 0.0
H432 H 0.78188 0.75345 0.93191 0.0
C433 C 0.79143 0.71295 0.89302 0.0
C434 C 0.77479 0.7246 0.93143 0.0
H435 H 0.81148 0.73317 0.86538 0.0
H436 H 0.64422 0.74715 0.09948 0.0
H437 H 0.67376 0.72581 0.03551 0.0
H438 H 0.77773 0.78638 0.12233 0.0
H439 H 0.748 0.80778 0.18693 0.0
H440 H 0.77666 0.76174 0.0276 0.0
H441 H 0.70144 0.68976 0.01892 0.0
H442 H 0.71912 0.64138 0.99246 0.0
H443 H 0.74923 0.62124 0.92687 0.0
C444 C 0.94776 0.71395 0.6522 0.0
C445 C 0.91245 0.68377 0.63972 0.0
C446 C 0.97538 0.72945 0.61257 0.0
C447 C 0.96815 0.71493 0.55973 0.0
C448 C 0.93288 0.68492 0.54749 0.0
C449 C 0.90549 0.66939 0.58692 0.0
C450 C 0.99608 0.7305 0.51583 0.0
C451 C 0.03304 0.74854 0.52461 0.0
C452 C 0.06076 0.76128 0.48036 0.0
C453 C 0.09569 0.76511 0.49114 0.0
C454 C 0.12269 0.77698 0.45105 0.0
C455 C 0.11564 0.78584 0.39914 0.0
H456 H 0.02729 0.76851 0.41893 0.0
C457 C 0.0807 0.78221 0.38822 0.0
C458 C 0.05353 0.77013 0.42844 0.0
H459 H 0.07448 0.78912 0.34885 0.0
H460 H 0.95394 0.72587 0.69233 0.0
H461 H 1.00195 0.7532 0.62327 0.0
H462 H 0.92647 0.67326 0.50718 0.0
H463 H 0.87862 0.64621 0.57562 0.0
H464 H 0.98561 0.72431 0.47471 0.0
H465 H 0.04354 0.75172 0.56561 0.0
H466 H 0.1021 0.75866 0.53073 0.0
H467 H 0.14931 0.77954 0.46113 0.0
C468 C 0.24838 0.90564 0.09424 0.0
C469 C 0.24103 0.91084 0.1479 0.0
C470 C 0.26361 0.93535 0.058 0.0
C471 C 0.27183 0.97102 0.07459 0.0
C472 C 0.26505 0.97632 0.12838 0.0
C473 C 0.24964 0.94658 0.16457 0.0
C474 C 0.28895 1.00362 0.03786 0.0
C475 C 0.2858 1.00116 0.98362 0.0
C476 C 0.30344 0.03431 0.94789 0.0
C477 C 0.28745 0.03316 0.89732 0.0
C478 C 0.30309 0.0643 0.86347 0.0
C479 C 0.33533 0.09711 0.87937 0.0
H480 H 0.35038 0.06827 1.00057 0.0
C481 C 0.35199 0.0977 0.9292 0.0
C482 C 0.33634 0.06673 0.96295 0.0
H483 H 0.37714 0.12227 0.94254 0.0
H484 H 0.24234 0.87854 0.08007 0.0
H485 H 0.26948 0.9303 0.01742 0.0
H486 H 0.27149 1.00357 0.14244 0.0
H487 H 0.24456 0.95166 0.20563 0.0
H488 H 0.30341 0.03085 0.05671 0.0
H489 H 0.26831 0.97436 0.96468 0.0
H490 H 0.26239 0.00834 0.88438 0.0
H491 H 0.28968 0.06277 0.82521 0.0
C492 C 0.30734 0.24445 0.66774 0.0
C493 C 0.34306 0.2489 0.66247 0.0
C494 C 0.29547 0.2631 0.63282 0.0
C495 C 0.31932 0.28683 0.59241 0.0
C496 C 0.35553 0.29255 0.58911 0.0
C497 C 0.36716 0.27359 0.6233 0.0
C498 C 0.3075 0.30577 0.55254 0.0
C499 C 0.27226 0.29085 0.5343 0.0
C500 C 0.26085 0.30717 0.48969 0.0
C501 C 0.22882 0.2836 0.45973 0.0
C502 C 0.21687 0.29746 0.41755 0.0
C503 C 0.2364 0.33548 0.40453 0.0
H504 H 0.30485 0.36458 0.49969 0.0
C505 C 0.26845 0.35923 0.43461 0.0
C506 C 0.28055 0.34528 0.47678 0.0
H507 H 0.28401 0.3887 0.426 0.0
H508 H 0.28824 0.22579 0.69773 0.0
H509 H 0.26769 0.25886 0.63754 0.0
H510 H 0.37462 0.31096 0.55885 0.0
H511 H 0.39504 0.27801 0.61864 0.0
H512 H 0.32928 0.33086 0.53391 0.0
H513 H 0.25129 0.26395 0.54958 0.0
H514 H 0.213 0.2542 0.46879 0.0
H515 H 0.19197 0.27829 0.39553 0.0
C516 C 0.95318 0.23706 0.87175 0.0
C517 C 0.92206 0.24183 0.87573 0.0
C518 C 0.9835 0.25598 0.90703 0.0
C519 C 0.98332 0.28037 0.94632 0.0
C520 C 0.95297 0.28634 0.94837 0.0
C521 C 0.92253 0.26703 0.91394 0.0
C522 C 0.01395 0.29978 0.9862 0.0
C523 C 0.03308 0.28433 1.00701 0.0
C524 C 0.06072 0.30143 0.05157 0.0
C525 C 0.06716 0.27813 0.08539 0.0
C526 C 0.0931 0.29285 0.1274 0.0
C527 C 0.11374 0.33143 0.13624 0.0
H528 H 0.07758 0.35903 0.03456 0.0
C529 C 0.10731 0.35487 0.10243 0.0
C530 C 0.08109 0.34006 0.06052 0.0
H531 H 0.1229 0.38472 0.1078 0.0
H532 H 0.95367 0.218 0.84247 0.0
H533 H 1.00696 0.25151 0.90347 0.0
H534 H 0.95229 0.30524 0.9778 0.0
H535 H 0.89917 0.2717 0.91747 0.0
H536 H 0.01811 0.32576 1.00274 0.0
H537 H 0.02615 0.25664 0.99399 0.0
H538 H 0.05198 0.24831 0.07939 0.0
H539 H 0.09739 0.27391 0.15237 0.0
C540 C 0.66984 0.90962 0.43006 0.0
C541 C 0.68413 0.91331 0.37764 0.0
C542 C 0.6845 0.93985 0.46541 0.0
C543 C 0.71393 0.97459 0.44925 0.0
C544 C 0.72742 0.97861 0.39636 0.0
C545 C 0.71285 0.94829 0.36099 0.0
C546 C 0.73046 1.00731 0.48595 0.0
C547 C 0.73036 1.00451 0.54021 0.0
C548 C 0.74719 0.03725 0.5769 0.0
C549 C 0.75924 0.03376 0.62851 0.0
C550 C 0.77546 0.06409 0.66388 0.0
C551 C 0.77962 0.09852 0.64851 0.0
H552 H 0.74038 0.07496 0.52348 0.0
C553 C 0.76659 0.10167 0.59738 0.0
C554 C 0.75053 0.07144 0.56205 0.0
H555 H 0.76892 0.12762 0.58432 0.0
H556 H 0.64746 0.88321 0.44416 0.0
H557 H 0.67238 0.93589 0.5051 0.0
H558 H 0.74974 1.00519 0.38259 0.0
H559 H 0.72437 0.95221 0.32083 0.0
H560 H 0.74486 0.03455 0.46729 0.0
H561 H 0.71924 0.97733 0.55868 0.0
H562 H 0.75657 1.0076 0.64128 0.0
H563 H 0.78496 0.06059 0.70305 0.0
loop_
_geom_bond_atom_site_label_1
_geom_bond_atom_site_label_2
_geom_bond_distance
_geom_bond_site_symmetry_2
_ccdc_geom_bond_type
Fe0 O2 1.918 . S
Fe0 O5 1.997 . S
Fe0 O6 2.002 . S
Fe0 O11 1.976 . S
Fe0 O14 1.996 . S
Fe1 O2 1.918 . S
Fe1 O9 1.997 . S
Fe1 O12 1.996 . S
Fe1 O16 1.976 . S
Fe1 O19 2.002 . S
O2 Fe0 1.918 . S
O2 Fe1 1.918 . S
O2 Fe3 1.918 . S
Fe3 O2 1.918 . S
Fe3 O4 2.002 . S
Fe3 O13 1.976 . S
Fe3 O17 1.996 . S
Fe3 O20 1.997 . S
O4 Fe3 2.002 . S
O4 C21 1.295 . S
O5 Fe0 1.997 . S
O5 C21 1.235 . S
O6 Fe0 2.002 . S
O6 C7 1.295 . S
C7 O6 1.295 . S
C7 O9 1.235 . S
C8 O13 1.287 . S
C8 O14 1.255 . S
O9 Fe1 1.997 . S
O9 C7 1.235 . S
C10 O16 1.287 . S
C10 O17 1.255 . S
O11 Fe0 1.976 . S
O11 C18 1.287 . S
O12 Fe1 1.996 . S
O12 C18 1.255 . S
O13 Fe3 1.976 . S
O13 C8 1.287 . S
O14 Fe0 1.996 . S
O14 C8 1.255 . S
C15 O19 1.295 . S
C15 O20 1.235 . S
O16 Fe1 1.976 . S
O16 C10 1.287 . S
O17 Fe3 1.996 . S
O17 C10 1.255 . S
C18 O11 1.287 . S
C18 O12 1.255 . S
O19 Fe1 2.002 . S
O19 C15 1.295 . S
O20 Fe3 1.997 . S
O20 C15 1.235 . S
C21 O4 1.295 . S
C21 O5 1.235 . S
Fe22 O24 1.918 . S
Fe22 O27 1.997 . S
Fe22 O28 2.002 . S
Fe22 O33 1.976 . S
Fe22 O36 1.996 . S
Fe23 O24 1.918 . S
Fe23 O31 1.997 . S
Fe23 O34 1.996 . S
Fe23 O38 1.976 . S
Fe23 O41 2.002 . S
O24 Fe22 1.918 . S
O24 Fe23 1.918 . S
O24 Fe25 1.918 . S
Fe25 O24 1.918 . S
Fe25 O26 2.002 . S
Fe25 O35 1.976 . S
Fe25 O39 1.996 . S
Fe25 O42 1.997 . S
O26 Fe25 2.002 . S
O26 C43 1.295 . S
O27 Fe22 1.997 . S
O27 C43 1.235 . S
O28 Fe22 2.002 . S
O28 C29 1.295 . S
C29 O28 1.295 . S
C29 O31 1.235 . S
C30 O35 1.287 . S
C30 O36 1.255 . S
O31 Fe23 1.997 . S
O31 C29 1.235 . S
C32 O38 1.287 . S
C32 O39 1.255 . S
O33 Fe22 1.976 . S
O33 C40 1.287 . S
O34 Fe23 1.996 . S
O34 C40 1.255 . S
O35 Fe25 1.976 . S
O35 C30 1.287 . S
O36 Fe22 1.996 . S
O36 C30 1.255 . S
C37 O41 1.295 . S
C37 O42 1.235 . S
O38 Fe23 1.976 . S
O38 C32 1.287 . S
O39 Fe25 1.996 . S
O39 C32 1.255 . S
C40 O33 1.287 . S
C40 O34 1.255 . S
O41 Fe23 2.002 . S
O41 C37 1.295 . S
O42 Fe25 1.997 . S
O42 C37 1.235 . S
C43 O26 1.295 . S
C43 O27 1.235 . S
Fe44 O46 1.918 . S
Fe44 O49 1.997 . S
Fe44 O50 2.002 . S
Fe44 O55 1.976 . S
Fe44 O58 1.996 . S
Fe45 O46 1.918 . S
Fe45 O53 1.997 . S
Fe45 O56 1.996 . S
Fe45 O60 1.976 . S
Fe45 O63 2.002 . S
O46 Fe44 1.918 . S
O46 Fe45 1.918 . S
O46 Fe47 1.918 . S
Fe47 O46 1.918 . S
Fe47 O48 2.002 . S
Fe47 O57 1.976 . S
Fe47 O61 1.996 . S
Fe47 O64 1.997 . S
O48 Fe47 2.002 . S
O48 C65 1.295 . S
O49 Fe44 1.997 . S
O49 C65 1.235 . S
O50 Fe44 2.002 . S
O50 C51 1.295 . S
C51 O50 1.295 . S
C51 O53 1.235 . S
C52 O57 1.287 . S
C52 O58 1.255 . S
O53 Fe45 1.997 . S
O53 C51 1.235 . S
C54 O60 1.287 . S
C54 O61 1.255 . S
O55 Fe44 1.976 . S
O55 C62 1.287 . S
O56 Fe45 1.996 . S
O56 C62 1.255 . S
O57 Fe47 1.976 . S
O57 C52 1.287 . S
O58 Fe44 1.996 . S
O58 C52 1.255 . S
C59 O63 1.295 . S
C59 O64 1.235 . S
O60 Fe45 1.976 . S
O60 C54 1.287 . S
O61 Fe47 1.996 . S
O61 C54 1.255 . S
C62 O55 1.287 . S
C62 O56 1.255 . S
O63 Fe45 2.002 . S
O63 C59 1.295 . S
O64 Fe47 1.997 . S
O64 C59 1.235 . S
C65 O48 1.295 . S
C65 O49 1.235 . S
Fe66 O68 1.918 . S
Fe66 O71 1.997 . S
Fe66 O72 2.002 . S
Fe66 O77 1.976 . S
Fe66 O80 1.996 . S
Fe67 O68 1.918 . S
Fe67 O75 1.997 . S
Fe67 O78 1.996 . S
Fe67 O82 1.976 . S
Fe67 O85 2.002 . S
O68 Fe66 1.918 . S
O68 Fe67 1.918 . S
O68 Fe69 1.918 . S
Fe69 O68 1.918 . S
Fe69 O70 2.002 . S
Fe69 O79 1.976 . S
Fe69 O83 1.996 . S
Fe69 O86 1.997 . S
O70 Fe69 2.002 . S
O70 C87 1.295 . S
O71 Fe66 1.997 . S
O71 C87 1.235 . S
O72 Fe66 2.002 . S
O72 C73 1.295 . S
C73 O72 1.295 . S
C73 O75 1.235 . S
C74 O79 1.287 . S
C74 O80 1.255 . S
O75 Fe67 1.997 . S
O75 C73 1.235 . S
C76 O82 1.287 . S
C76 O83 1.255 . S
O77 Fe66 1.976 . S
O77 C84 1.287 . S
O78 Fe67 1.996 . S
O78 C84 1.255 . S
O79 Fe69 1.976 . S
O79 C74 1.287 . S
O80 Fe66 1.996 . S
O80 C74 1.255 . S
C81 O85 1.295 . S
C81 O86 1.235 . S
O82 Fe67 1.976 . S
O82 C76 1.287 . S
O83 Fe69 1.996 . S
O83 C76 1.255 . S
C84 O77 1.287 . S
C84 O78 1.255 . S
O85 Fe67 2.002 . S
O85 C81 1.295 . S
O86 Fe69 1.997 . S
O86 C81 1.235 . S
C87 O70 1.295 . S
C87 O71 1.235 . S
Fe88 O90 1.918 . S
Fe88 O93 1.997 . S
Fe88 O94 2.002 . S
Fe88 O99 1.976 . S
Fe88 O102 1.996 . S
Fe89 O90 1.918 . S
Fe89 O97 1.997 . S
Fe89 O100 1.996 . S
Fe89 O104 1.976 . S
Fe89 O107 2.002 . S
O90 Fe88 1.918 . S
O90 Fe89 1.918 . S
O90 Fe91 1.918 . S
Fe91 O90 1.918 . S
Fe91 O92 2.002 . S
Fe91 O101 1.976 . S
Fe91 O105 1.996 . S
Fe91 O108 1.997 . S
O92 Fe91 2.002 . S
O92 C109 1.295 . S
O93 Fe88 1.997 . S
O93 C109 1.235 . S
O94 Fe88 2.002 . S
O94 C95 1.295 . S
C95 O94 1.295 . S
C95 O97 1.235 . S
C96 O101 1.287 . S
C96 O102 1.255 . S
O97 Fe89 1.997 . S
O97 C95 1.235 . S
C98 O104 1.287 . S
C98 O105 1.255 . S
O99 Fe88 1.976 . S
O99 C106 1.287 . S
O100 Fe89 1.996 . S
O100 C106 1.255 . S
O101 Fe91 1.976 . S
O101 C96 1.287 . S
O102 Fe88 1.996 . S
O102 C96 1.255 . S
C103 O107 1.295 . S
C103 O108 1.235 . S
O104 Fe89 1.976 . S
O104 C98 1.287 . S
O105 Fe91 1.996 . S
O105 C98 1.255 . S
C106 O99 1.287 . S
C106 O100 1.255 . S
O107 Fe89 2.002 . S
O107 C103 1.295 . S
O108 Fe91 1.997 . S
O108 C103 1.235 . S
C109 O92 1.295 . S
C109 O93 1.235 . S
Fe110 O112 1.918 . S
Fe110 O115 1.997 . S
Fe110 O116 2.002 . S
Fe110 O121 1.976 . S
Fe110 O124 1.996 . S
Fe111 O112 1.918 . S
Fe111 O119 1.997 . S
Fe111 O122 1.996 . S
Fe111 O126 1.976 . S
Fe111 O129 2.002 . S
O112 Fe110 1.918 . S
O112 Fe111 1.918 . S
O112 Fe113 1.918 . S
Fe113 O112 1.918 . S
Fe113 O114 2.002 . S
Fe113 O123 1.976 . S
Fe113 O127 1.996 . S
Fe113 O130 1.997 . S
O114 Fe113 2.002 . S
O114 C131 1.295 . S
O115 Fe110 1.997 . S
O115 C131 1.235 . S
O116 Fe110 2.002 . S
O116 C117 1.295 . S
C117 O116 1.295 . S
C117 O119 1.235 . S
C118 O123 1.287 . S
C118 O124 1.255 . S
O119 Fe111 1.997 . S
O119 C117 1.235 . S
C120 O126 1.287 . S
C120 O127 1.255 . S
O121 Fe110 1.976 . S
O121 C128 1.287 . S
O122 Fe111 1.996 . S
O122 C128 1.255 . S
O123 Fe113 1.976 . S
O123 C118 1.287 . S
O124 Fe110 1.996 . S
O124 C118 1.255 . S
C125 O129 1.295 . S
C125 O130 1.235 . S
O126 Fe111 1.976 . S
O126 C120 1.287 . S
O127 Fe113 1.996 . S
O127 C120 1.255 . S
C128 O121 1.287 . S
C128 O122 1.255 . S
O129 Fe111 2.002 . S
O129 C125 1.295 . S
O130 Fe113 1.997 . S
O130 C125 1.235 . S
C131 O114 1.295 . S
C131 O115 1.235 . S
C132 C133 1.386 . S
C132 C134 1.383 . S
C132 H148 0.951 . S
C133 C132 1.386 . S
C133 C137 1.383 . S
C134 C132 1.383 . S
C134 C135 1.402 . S
C134 H149 0.951 . S
C135 C134 1.402 . S
C135 C136 1.375 . S
C135 C138 1.481 . S
C136 C135 1.375 . S
C136 C137 1.367 . S
C136 H150 0.951 . S
C137 C133 1.383 . S
C137 C136 1.367 . S
C137 H151 0.950 . S
C138 C135 1.481 . S
C138 C139 1.297 . S
C138 H152 0.950 . S
C139 C138 1.297 . S
C139 C140 1.479 . S
C139 H153 0.950 . S
C140 C139 1.479 . S
C140 C141 1.375 . S
C140 C146 1.404 . S
C141 C140 1.375 . S
C141 C142 1.369 . S
C141 H154 0.950 . S
C142 C141 1.369 . S
C142 C143 1.392 . S
C142 H155 0.951 . S
C143 C142 1.392 . S
C143 C145 1.384 . S
H144 C146 0.949 . S
C145 C143 1.384 . S
C145 C146 1.385 . S
C145 H147 0.950 . S
C146 C140 1.404 . S
C146 H144 0.949 . S
C146 C145 1.385 . S
H147 C145 0.950 . S
H148 C132 0.951 . S
H149 C134 0.951 . S
H150 C136 0.951 . S
H151 C137 0.950 . S
H152 C138 0.950 . S
H153 C139 0.950 . S
H154 C141 0.950 . S
H155 C142 0.951 . S
C156 C157 1.386 . S
C156 C158 1.383 . S
C156 H172 0.951 . S
C157 C156 1.386 . S
C157 C161 1.383 . S
C158 C156 1.383 . S
C158 C159 1.402 . S
C158 H173 0.951 . S
C159 C158 1.402 . S
C159 C160 1.375 . S
C159 C162 1.481 . S
C160 C159 1.375 . S
C160 C161 1.367 . S
C160 H174 0.951 . S
C161 C157 1.383 . S
C161 C160 1.367 . S
C161 H175 0.950 . S
C162 C159 1.481 . S
C162 C163 1.297 . S
C162 H176 0.950 . S
C163 C162 1.297 . S
C163 C164 1.479 . S
C163 H177 0.950 . S
C164 C163 1.479 . S
C164 C165 1.375 . S
C164 C170 1.404 . S
C165 C164 1.375 . S
C165 C166 1.369 . S
C165 H178 0.950 . S
C166 C165 1.369 . S
C166 C167 1.392 . S
C166 H179 0.951 . S
C167 C166 1.392 . S
C167 C169 1.384 . S
H168 C170 0.949 . S
C169 C167 1.384 . S
C169 C170 1.385 . S
C169 H171 0.950 . S
C170 C164 1.404 . S
C170 H168 0.949 . S
C170 C169 1.385 . S
H171 C169 0.950 . S
H172 C156 0.951 . S
H173 C158 0.951 . S
H174 C160 0.951 . S
H175 C161 0.950 . S
H176 C162 0.950 . S
H177 C163 0.950 . S
H178 C165 0.950 . S
H179 C166 0.951 . S
C180 C181 1.386 . S
C180 C182 1.383 . S
C180 H196 0.951 . S
C181 C180 1.386 . S
C181 C185 1.383 . S
C182 C180 1.383 . S
C182 C183 1.402 . S
C182 H197 0.951 . S
C183 C182 1.402 . S
C183 C184 1.375 . S
C183 C186 1.481 . S
C184 C183 1.375 . S
C184 C185 1.367 . S
C184 H198 0.951 . S
C185 C181 1.383 . S
C185 C184 1.367 . S
C185 H199 0.950 . S
C186 C183 1.481 . S
C186 C187 1.297 . S
C186 H200 0.950 . S
C187 C186 1.297 . S
C187 C188 1.479 . S
C187 H201 0.950 . S
C188 C187 1.479 . S
C188 C189 1.375 . S
C188 C194 1.404 . S
C189 C188 1.375 . S
C189 C190 1.369 . S
C189 H202 0.950 . S
C190 C189 1.369 . S
C190 C191 1.392 . S
C190 H203 0.951 . S
C191 C190 1.392 . S
C191 C193 1.384 . S
H192 C194 0.949 . S
C193 C191 1.384 . S
C193 C194 1.385 . S
C193 H195 0.950 . S
C194 C188 1.404 . S
C194 H192 0.949 . S
C194 C193 1.385 . S
H195 C193 0.950 . S
H196 C180 0.951 . S
H197 C182 0.951 . S
H198 C184 0.951 . S
H199 C185 0.950 . S
H200 C186 0.950 . S
H201 C187 0.950 . S
H202 C189 0.950 . S
H203 C190 0.951 . S
C204 C205 1.386 . S
C204 C206 1.383 . S
C204 H220 0.951 . S
C205 C204 1.386 . S
C205 C209 1.383 . S
C206 C204 1.383 . S
C206 C207 1.402 . S
C206 H221 0.951 . S
C207 C206 1.402 . S
C207 C208 1.375 . S
C207 C210 1.481 . S
C208 C207 1.375 . S
C208 C209 1.367 . S
C208 H222 0.951 . S
C209 C205 1.383 . S
C209 C208 1.367 . S
C209 H223 0.950 . S
C210 C207 1.481 . S
C210 C211 1.297 . S
C210 H224 0.950 . S
C211 C210 1.297 . S
C211 C212 1.479 . S
C211 H225 0.950 . S
C212 C211 1.479 . S
C212 C213 1.375 . S
C212 C218 1.404 . S
C213 C212 1.375 . S
C213 C214 1.369 . S
C213 H226 0.950 . S
C214 C213 1.369 . S
C214 C215 1.392 . S
C214 H227 0.951 . S
C215 C214 1.392 . S
C215 C217 1.384 . S
H216 C218 0.949 . S
C217 C215 1.384 . S
C217 C218 1.385 . S
C217 H219 0.950 . S
C218 C212 1.404 . S
C218 H216 0.949 . S
C218 C217 1.385 . S
H219 C217 0.950 . S
H220 C204 0.951 . S
H221 C206 0.951 . S
H222 C208 0.951 . S
H223 C209 0.950 . S
H224 C210 0.950 . S
H225 C211 0.950 . S
H226 C213 0.950 . S
H227 C214 0.951 . S
C228 C229 1.386 . S
C228 C230 1.383 . S
C228 H244 0.951 . S
C229 C228 1.386 . S
C229 C233 1.383 . S
C230 C228 1.383 . S
C230 C231 1.402 . S
C230 H245 0.951 . S
C231 C230 1.402 . S
C231 C232 1.375 . S
C231 C234 1.481 . S
C232 C231 1.375 . S
C232 C233 1.367 . S
C232 H246 0.951 . S
C233 C229 1.383 . S
C233 C232 1.367 . S
C233 H247 0.950 . S
C234 C231 1.481 . S
C234 C235 1.297 . S
C234 H248 0.950 . S
C235 C234 1.297 . S
C235 C236 1.479 . S
C235 H249 0.950 . S
C236 C235 1.479 . S
C236 C237 1.375 . S
C236 C242 1.404 . S
C237 C236 1.375 . S
C237 C238 1.369 . S
C237 H250 0.950 . S
C238 C237 1.369 . S
C238 C239 1.392 . S
C238 H251 0.951 . S
C239 C238 1.392 . S
C239 C241 1.384 . S
H240 C242 0.949 . S
C241 C239 1.384 . S
C241 C242 1.385 . S
C241 H243 0.950 . S
C242 C236 1.404 . S
C242 H240 0.949 . S
C242 C241 1.385 . S
H243 C241 0.950 . S
H244 C228 0.951 . S
H245 C230 0.951 . S
H246 C232 0.951 . S
H247 C233 0.950 . S
H248 C234 0.950 . S
H249 C235 0.950 . S
H250 C237 0.950 . S
H251 C238 0.951 . S
C252 C253 1.386 . S
C252 C254 1.383 . S
C252 H268 0.951 . S
C253 C252 1.386 . S
C253 C257 1.383 . S
C254 C252 1.383 . S
C254 C255 1.402 . S
C254 H269 0.951 . S
C255 C254 1.402 . S
C255 C256 1.375 . S
C255 C258 1.481 . S
C256 C255 1.375 . S
C256 C257 1.367 . S
C256 H270 0.951 . S
C257 C253 1.383 . S
C257 C256 1.367 . S
C257 H271 0.950 . S
C258 C255 1.481 . S
C258 C259 1.297 . S
C258 H272 0.950 . S
C259 C258 1.297 . S
C259 C260 1.479 . S
C259 H273 0.950 . S
C260 C259 1.479 . S
C260 C261 1.375 . S
C260 C266 1.404 . S
C261 C260 1.375 . S
C261 C262 1.369 . S
C261 H274 0.950 . S
C262 C261 1.369 . S
C262 C263 1.392 . S
C262 H275 0.951 . S
C263 C262 1.392 . S
C263 C265 1.384 . S
H264 C266 0.949 . S
C265 C263 1.384 . S
C265 C266 1.385 . S
C265 H267 0.950 . S
C266 C260 1.404 . S
C266 H264 0.949 . S
C266 C265 1.385 . S
H267 C265 0.950 . S
H268 C252 0.951 . S
H269 C254 0.951 . S
H270 C256 0.951 . S
H271 C257 0.950 . S
H272 C258 0.950 . S
H273 C259 0.950 . S
H274 C261 0.950 . S
H275 C262 0.951 . S
C276 C277 1.386 . S
C276 C278 1.383 . S
C276 H292 0.951 . S
C277 C276 1.386 . S
C277 C281 1.383 . S
C278 C276 1.383 . S
C278 C279 1.402 . S
C278 H293 0.951 . S
C279 C278 1.402 . S
C279 C280 1.375 . S
C279 C282 1.481 1_556 S
C280 C279 1.375 . S
C280 C281 1.367 . S
C280 H294 0.951 . S
C281 C277 1.383 . S
C281 C280 1.367 . S
C281 H295 0.950 . S
C282 C279 1.481 1_554 S
C282 C283 1.297 . S
C282 H296 0.950 . S
C283 C282 1.297 . S
C283 C284 1.479 . S
C283 H297 0.950 . S
C284 C283 1.479 . S
C284 C285 1.375 . S
C284 C290 1.404 . S
C285 C284 1.375 . S
C285 C286 1.369 . S
C285 H298 0.950 . S
C286 C285 1.369 . S
C286 C287 1.392 . S
C286 H299 0.951 . S
C287 C286 1.392 . S
C287 C289 1.384 . S
H288 C290 0.949 . S
C289 C287 1.384 . S
C289 C290 1.385 . S
C289 H291 0.950 . S
C290 C284 1.404 . S
C290 H288 0.949 . S
C290 C289 1.385 . S
H291 C289 0.950 . S
H292 C276 0.951 . S
H293 C278 0.951 . S
H294 C280 0.951 . S
H295 C281 0.950 . S
H296 C282 0.950 . S
H297 C283 0.950 . S
H298 C285 0.950 . S
H299 C286 0.951 . S
C300 C301 1.386 . S
C300 C302 1.383 . S
C300 H316 0.951 . S
C301 C300 1.386 . S
C301 C305 1.383 . S
C302 C300 1.383 . S
C302 C303 1.402 . S
C302 H317 0.951 . S
C303 C302 1.402 . S
C303 C304 1.375 . S
C303 C306 1.481 . S
C304 C303 1.375 . S
C304 C305 1.367 . S
C304 H318 0.951 . S
C305 C301 1.383 . S
C305 C304 1.367 . S
C305 H319 0.950 . S
C306 C303 1.481 . S
C306 C307 1.297 1_655 S
C306 H320 0.950 . S
C307 C306 1.297 1_455 S
C307 C308 1.479 . S
C307 H321 0.950 . S
C308 C307 1.479 . S
C308 C309 1.375 . S
C308 C314 1.404 . S
C309 C308 1.375 . S
C309 C310 1.369 . S
C309 H322 0.950 . S
C310 C309 1.369 . S
C310 C311 1.392 . S
C310 H323 0.951 . S
C311 C310 1.392 . S
C311 C313 1.384 . S
H312 C314 0.949 . S
C313 C311 1.384 . S
C313 C314 1.385 . S
C313 H315 0.950 . S
C314 C308 1.404 . S
C314 H312 0.949 . S
C314 C313 1.385 . S
H315 C313 0.950 . S
H316 C300 0.951 . S
H317 C302 0.951 . S
H318 C304 0.951 . S
H319 C305 0.950 . S
H320 C306 0.950 . S
H321 C307 0.950 . S
H322 C309 0.950 . S
H323 C310 0.951 . S
C324 C325 1.386 . S
C324 C326 1.383 . S
C324 H340 0.951 . S
C325 C324 1.386 . S
C325 C329 1.383 . S
C326 C324 1.383 . S
C326 C327 1.402 . S
C326 H341 0.951 . S
C327 C326 1.402 . S
C327 C328 1.375 . S
C327 C330 1.481 1_545 S
C328 C327 1.375 . S
C328 C329 1.367 . S
C328 H342 0.951 . S
C329 C325 1.383 . S
C329 C328 1.367 . S
C329 H343 0.950 . S
C330 C327 1.481 1_565 S
C330 C331 1.297 1_556 S
C330 H344 0.950 . S
C331 C330 1.297 1_554 S
C331 C332 1.479 . S
C331 H345 0.950 1_565 S
C332 C331 1.479 . S
C332 C333 1.375 . S
C332 C338 1.404 . S
C333 C332 1.375 . S
C333 C334 1.369 . S
C333 H346 0.950 . S
C334 C333 1.369 . S
C334 C335 1.392 . S
C334 H347 0.951 . S
C335 C334 1.392 . S
C335 C337 1.384 . S
H336 C338 0.949 . S
C337 C335 1.384 . S
C337 C338 1.385 . S
C337 H339 0.950 . S
C338 C332 1.404 . S
C338 H336 0.949 . S
C338 C337 1.385 . S
H339 C337 0.950 . S
H340 C324 0.951 . S
H341 C326 0.951 . S
H342 C328 0.951 . S
H343 C329 0.950 . S
H344 C330 0.950 . S
H345 C331 0.950 1_545 S
H346 C333 0.950 . S
H347 C334 0.951 . S
C348 C349 1.386 . S
C348 C350 1.383 . S
C348 H364 0.951 . S
C349 C348 1.386 . S
C349 C353 1.383 . S
C350 C348 1.383 . S
C350 C351 1.402 . S
C350 H365 0.951 . S
C351 C350 1.402 . S
C351 C352 1.375 . S
C351 C354 1.481 . S
C352 C351 1.375 . S
C352 C353 1.367 . S
C352 H366 0.951 . S
C353 C349 1.383 . S
C353 C352 1.367 . S
C353 H367 0.950 . S
C354 C351 1.481 . S
C354 C355 1.297 . S
C354 H368 0.950 . S
C355 C354 1.297 . S
C355 C356 1.479 . S
C355 H369 0.950 . S
C356 C355 1.479 . S
C356 C357 1.375 . S
C356 C362 1.404 . S
C357 C356 1.375 . S
C357 C358 1.369 . S
C357 H370 0.950 . S
C358 C357 1.369 . S
C358 C359 1.392 . S
C358 H371 0.951 . S
C359 C358 1.392 . S
C359 C361 1.384 . S
H360 C362 0.949 . S
C361 C359 1.384 . S
C361 C362 1.385 . S
C361 H363 0.950 . S
C362 C356 1.404 . S
C362 H360 0.949 . S
C362 C361 1.385 . S
H363 C361 0.950 . S
H364 C348 0.951 . S
H365 C350 0.951 . S
H366 C352 0.951 . S
H367 C353 0.950 . S
H368 C354 0.950 . S
H369 C355 0.950 . S
H370 C357 0.950 . S
H371 C358 0.951 . S
C372 C373 1.386 . S
C372 C374 1.383 . S
C372 H388 0.951 . S
C373 C372 1.386 . S
C373 C377 1.383 . S
C374 C372 1.383 . S
C374 C375 1.402 . S
C374 H389 0.951 . S
C375 C374 1.402 . S
C375 C376 1.375 . S
C375 C378 1.481 1_556 S
C376 C375 1.375 . S
C376 C377 1.367 . S
C376 H390 0.951 . S
C377 C373 1.383 . S
C377 C376 1.367 . S
C377 H391 0.950 . S
C378 C375 1.481 1_554 S
C378 C379 1.297 1_655 S
C378 H392 0.950 . S
C379 C378 1.297 1_455 S
C379 C380 1.479 . S
C379 H393 0.954 . S
C380 C379 1.479 . S
C380 C381 1.375 . S
C380 C386 1.404 . S
C381 C380 1.375 . S
C381 C382 1.369 . S
C381 H394 0.950 . S
C382 C381 1.369 . S
C382 C383 1.392 . S
C382 H395 0.951 . S
C383 C382 1.392 . S
C383 C385 1.384 . S
H384 C386 0.949 . S
C385 C383 1.384 . S
C385 C386 1.385 . S
C385 H387 0.950 . S
C386 C380 1.404 . S
C386 H384 0.949 . S
C386 C385 1.385 . S
H387 C385 0.950 . S
H388 C372 0.951 . S
H389 C374 0.951 . S
H390 C376 0.951 . S
H391 C377 0.950 . S
H392 C378 0.950 . S
H393 C379 0.954 . S
H394 C381 0.950 . S
H395 C382 0.951 . S
C396 C397 1.386 . S
C396 C398 1.383 . S
C396 H412 0.951 . S
C397 C396 1.386 . S
C397 C401 1.383 . S
C398 C396 1.383 . S
C398 C399 1.402 . S
C398 H413 0.951 . S
C399 C398 1.402 . S
C399 C400 1.375 . S
C399 C402 1.481 1_545 S
C400 C399 1.375 . S
C400 C401 1.367 . S
C400 H414 0.951 . S
C401 C397 1.383 . S
C401 C400 1.367 . S
C401 H415 0.950 . S
C402 C399 1.481 1_565 S
C402 C403 1.297 . S
C402 H416 0.950 . S
C403 C402 1.297 . S
C403 C404 1.479 . S
C403 H417 0.950 1_565 S
C404 C403 1.479 . S
C404 C405 1.375 . S
C404 C410 1.404 . S
C405 C404 1.375 . S
C405 C406 1.369 . S
C405 H418 0.950 . S
C406 C405 1.369 . S
C406 C407 1.392 . S
C406 H419 0.951 . S
C407 C406 1.392 . S
C407 C409 1.384 . S
H408 C410 0.949 . S
C409 C407 1.384 . S
C409 C410 1.385 . S
C409 H411 0.950 . S
C410 C404 1.404 . S
C410 H408 0.949 . S
C410 C409 1.385 . S
H411 C409 0.950 . S
H412 C396 0.951 . S
H413 C398 0.951 . S
H414 C400 0.951 . S
H415 C401 0.950 . S
H416 C402 0.950 . S
H417 C403 0.950 1_545 S
H418 C405 0.950 . S
H419 C406 0.951 . S
C420 C421 1.386 . S
C420 C422 1.383 . S
C420 H436 0.951 . S
C421 C420 1.386 . S
C421 C425 1.383 . S
C422 C420 1.383 . S
C422 C423 1.402 . S
C422 H437 0.951 . S
C423 C422 1.402 . S
C423 C424 1.375 . S
C423 C426 1.481 . S
C424 C423 1.375 . S
C424 C425 1.367 . S
C424 H438 0.951 . S
C425 C421 1.383 . S
C425 C424 1.367 . S
C425 H439 0.950 . S
C426 C423 1.481 . S
C426 C427 1.297 1_554 S
C426 H440 0.950 . S
C427 C426 1.297 1_556 S
C427 C428 1.479 . S
C427 H441 0.950 . S
C428 C427 1.479 . S
C428 C429 1.375 . S
C428 C434 1.404 . S
C429 C428 1.375 . S
C429 C430 1.369 . S
C429 H442 0.950 . S
C430 C429 1.369 . S
C430 C431 1.392 . S
C430 H443 0.951 . S
C431 C430 1.392 . S
C431 C433 1.384 . S
H432 C434 0.949 . S
C433 C431 1.384 . S
C433 C434 1.385 . S
C433 H435 0.950 . S
C434 C428 1.404 . S
C434 H432 0.949 . S
C434 C433 1.385 . S
H435 C433 0.950 . S
H436 C420 0.951 . S
H437 C422 0.951 . S
H438 C424 0.951 . S
H439 C425 0.950 . S
H440 C426 0.950 . S
H441 C427 0.950 . S
H442 C429 0.950 . S
H443 C430 0.951 . S
C444 C445 1.386 . S
C444 C446 1.383 . S
C444 H460 0.951 . S
C445 C444 1.386 . S
C445 C449 1.383 . S
C446 C444 1.383 . S
C446 C447 1.402 . S
C446 H461 0.951 . S
C447 C446 1.402 . S
C447 C448 1.375 . S
C447 C450 1.481 . S
C448 C447 1.375 . S
C448 C449 1.367 . S
C448 H462 0.951 . S
C449 C445 1.383 . S
C449 C448 1.367 . S
C449 H463 0.950 . S
C450 C447 1.481 . S
C450 C451 1.297 1_655 S
C450 H464 0.950 . S
C451 C450 1.297 1_455 S
C451 C452 1.479 . S
C451 H465 0.950 . S
C452 C451 1.479 . S
C452 C453 1.375 . S
C452 C458 1.404 . S
C453 C452 1.375 . S
C453 C454 1.369 . S
C453 H466 0.950 . S
C454 C453 1.369 . S
C454 C455 1.392 . S
C454 H467 0.951 . S
C455 C454 1.392 . S
C455 C457 1.384 . S
H456 C458 0.949 . S
C457 C455 1.384 . S
C457 C458 1.385 . S
C457 H459 0.950 . S
C458 C452 1.404 . S
C458 H456 0.949 . S
C458 C457 1.385 . S
H459 C457 0.950 . S
H460 C444 0.951 . S
H461 C446 0.951 . S
H462 C448 0.951 . S
H463 C449 0.950 . S
H464 C450 0.950 . S
H465 C451 0.950 . S
H466 C453 0.950 . S
H467 C454 0.951 . S
C468 C469 1.386 . S
C468 C470 1.383 . S
C468 H484 0.951 . S
C469 C468 1.386 . S
C469 C473 1.383 . S
C470 C468 1.383 . S
C470 C471 1.402 . S
C470 H485 0.965 . S
C471 C470 1.402 . S
C471 C472 1.375 . S
C471 C474 1.481 1_565 S
C472 C471 1.375 . S
C472 C473 1.367 . S
C472 H486 0.951 . S
C473 C469 1.383 . S
C473 C472 1.367 . S
C473 H487 0.950 . S
C474 C471 1.481 1_545 S
C474 C475 1.297 1_554 S
C474 H488 0.950 . S
C475 C474 1.297 1_556 S
C475 C476 1.479 . S
C475 H489 0.950 1_545 S
C476 C475 1.479 . S
C476 C477 1.375 . S
C476 C482 1.404 . S
C477 C476 1.375 . S
C477 C478 1.369 . S
C477 H490 0.950 . S
C478 C477 1.369 . S
C478 C479 1.392 . S
C478 H491 0.951 . S
C479 C478 1.392 . S
C479 C481 1.384 . S
H480 C482 0.949 . S
C481 C479 1.384 . S
C481 C482 1.385 . S
C481 H483 0.950 . S
C482 C476 1.404 . S
C482 H480 0.949 . S
C482 C481 1.385 . S
H483 C481 0.950 . S
H484 C468 0.951 . S
H485 C470 0.965 . S
H486 C472 0.951 . S
H487 C473 0.950 . S
H488 C474 0.950 . S
H489 C475 0.950 1_565 S
H490 C477 0.950 . S
H491 C478 0.951 . S
C492 C493 1.386 . S
C492 C494 1.383 . S
C492 H508 0.951 . S
C493 C492 1.386 . S
C493 C497 1.383 . S
C494 C492 1.383 . S
C494 C495 1.402 . S
C494 H509 0.951 . S
C495 C494 1.402 . S
C495 C496 1.375 . S
C495 C498 1.481 . S
C496 C495 1.375 . S
C496 C497 1.367 . S
C496 H510 0.951 . S
C497 C493 1.383 . S
C497 C496 1.367 . S
C497 H511 0.950 . S
C498 C495 1.481 . S
C498 C499 1.297 . S
C498 H512 0.950 . S
C499 C498 1.297 . S
C499 C500 1.479 . S
C499 H513 0.950 . S
C500 C499 1.479 . S
C500 C501 1.375 . S
C500 C506 1.404 . S
C501 C500 1.375 . S
C501 C502 1.369 . S
C501 H514 0.950 . S
C502 C501 1.369 . S
C502 C503 1.392 . S
C502 H515 0.951 . S
C503 C502 1.392 . S
C503 C505 1.384 . S
H504 C506 0.949 . S
C505 C503 1.384 . S
C505 C506 1.385 . S
C505 H507 0.950 . S
C506 C500 1.404 . S
C506 H504 0.949 . S
C506 C505 1.385 . S
H507 C505 0.950 . S
H508 C492 0.951 . S
H509 C494 0.951 . S
H510 C496 0.951 . S
H511 C497 0.950 . S
H512 C498 0.950 . S
H513 C499 0.950 . S
H514 C501 0.950 . S
H515 C502 0.951 . S
C516 C517 1.386 . S
C516 C518 1.383 . S
C516 H532 0.951 . S
C517 C516 1.386 . S
C517 C521 1.383 . S
C518 C516 1.383 . S
C518 C519 1.402 . S
C518 H533 0.951 . S
C519 C518 1.402 . S
C519 C520 1.375 . S
C519 C522 1.479 . S
C520 C519 1.375 . S
C520 C521 1.367 . S
C520 H534 0.951 . S
C521 C517 1.383 . S
C521 C520 1.367 . S
C521 H535 0.950 . S
C522 C519 1.479 . S
C522 C523 1.300 1_655 S
C522 H536 0.949 1_655 S
C523 C522 1.300 1_455 S
C523 C524 1.479 1_556 S
C523 H537 0.950 . S
C524 C523 1.479 1_554 S
C524 C525 1.375 . S
C524 C530 1.404 . S
C525 C524 1.375 . S
C525 C526 1.369 . S
C525 H538 0.950 . S
C526 C525 1.369 . S
C526 C527 1.392 . S
C526 H539 0.951 . S
C527 C526 1.392 . S
C527 C529 1.384 . S
H528 C530 0.949 . S
C529 C527 1.384 . S
C529 C530 1.385 . S
C529 H531 0.950 . S
C530 C524 1.404 . S
C530 H528 0.949 . S
C530 C529 1.385 . S
H531 C529 0.950 . S
H532 C516 0.951 . S
H533 C518 0.951 . S
H534 C520 0.951 . S
H535 C521 0.950 . S
H536 C522 0.949 1_455 S
H537 C523 0.950 . S
H538 C525 0.950 . S
H539 C526 0.951 . S
C540 C541 1.386 . S
C540 C542 1.383 . S
C540 H556 0.951 . S
C541 C540 1.386 . S
C541 C545 1.383 . S
C542 C540 1.383 . S
C542 C543 1.402 . S
C542 H557 0.951 . S
C543 C542 1.402 . S
C543 C544 1.375 . S
C543 C546 1.481 . S
C544 C543 1.375 . S
C544 C545 1.367 . S
C544 H558 0.951 . S
C545 C541 1.383 . S
C545 C544 1.367 . S
C545 H559 0.950 . S
C546 C543 1.481 . S
C546 C547 1.297 . S
C546 H560 0.950 1_565 S
C547 C546 1.297 . S
C547 C548 1.479 1_565 S
C547 H561 0.950 . S
C548 C547 1.479 1_545 S
C548 C549 1.375 . S
C548 C554 1.404 . S
C549 C548 1.375 . S
C549 C550 1.369 . S
C549 H562 0.950 . S
C550 C549 1.369 . S
C550 C551 1.392 . S
C550 H563 0.951 . S
C551 C550 1.392 . S
C551 C553 1.384 . S
H552 C554 0.949 . S
C553 C551 1.384 . S
C553 C554 1.385 . S
C553 H555 0.950 . S
C554 C548 1.404 . S
C554 H552 0.949 . S
C554 C553 1.385 . S
H555 C553 0.950 . S
H556 C540 0.951 . S
H557 C542 0.951 . S
H558 C544 0.951 . S
H559 C545 0.950 . S
H560 C546 0.950 1_545 S
H561 C547 0.950 . S
H562 C549 0.950 . S
H563 C550 0.951 . S
C133 C15 1.422 . S
C143 C103 1.437 . S
C157 C40 1.429 . S
C167 C117 1.436 . S
C181 C10 1.385 . S
C191 C54 1.400 . S
C205 C81 1.426 . S
C215 C29 1.404 . S
C229 C59 1.391 . S
C239 C98 1.427 . S
C253 C76 1.380 . S
C263 C128 1.394 . S
C277 C120 1.479 . S
C287 C8 1.472 . S
C301 C43 1.552 . S
C311 C7 1.530 . S
C325 C32 1.524 . S
C335 C51 1.508 . S
C349 C52 1.479 . S
C359 C74 1.470 . S
C373 C73 1.550 . S
C383 C95 1.552 . S
C397 C131 1.523 . S
C407 C96 1.516 . S
C421 C62 1.479 . S
C431 C84 1.478 . S
C445 C87 1.551 . S
C455 C109 1.548 . S
C469 C106 1.524 . S
C479 C125 1.499 . S
C493 C118 1.483 . S
C503 C18 1.465 . S
C517 C37 1.565 . S
C527 C21 1.525 . S
C541 C65 1.511 . S
C551 C30 1.516 . S
