# Generated by pormake.
# Topology whw, (6)-cn, num edge types: 1
# Building blocks:
#     Node 0, Type 0, BuildingBlock: BETDIP_clean_sbu_0, # of connection points: 6
#     Node 1, Type 0, BuildingBlock: BETDIP_clean_sbu_0, # of connection points: 6
#     Node 2, Type 0, BuildingBlock: BETDIP_clean_sbu_0, # of connection points: 6
#     Node 3, Type 0, BuildingBlock: BETDIP_clean_sbu_0, # of connection points: 6
#     Node 4, Type 0, BuildingBlock: BETDIP_clean_sbu_0, # of connection points: 6
#     Node 5, Type 0, BuildingBlock: BETDIP_clean_sbu_0, # of connection points: 6
#     Node 6, Type 0, BuildingBlock: BETDIP_clean_sbu_0, # of connection points: 6
#     Node 7, Type 0, BuildingBlock: BETDIP_clean_sbu_0, # of connection points: 6
#     Node 8, Type 0, BuildingBlock: BETDIP_clean_sbu_0, # of connection points: 6
#     Node 9, Type 0, BuildingBlock: BETDIP_clean_sbu_0, # of connection points: 6
#     Node 10, Type 0, BuildingBlock: BETDIP_clean_sbu_0, # of connection points: 6
#     Node 11, Type 0, BuildingBlock: BETDIP_clean_sbu_0, # of connection points: 6
#     Node 12, Type 0, BuildingBlock: BETDIP_clean_sbu_0, # of connection points: 6
#     Node 13, Type 0, BuildingBlock: BETDIP_clean_sbu_0, # of connection points: 6
#     Node 14, Type 0, BuildingBlock: BETDIP_clean_sbu_0, # of connection points: 6
#     Node 15, Type 0, BuildingBlock: BETDIP_clean_sbu_0, # of connection points: 6
#     Edge 16, Type (0, 0), BuildingBlock: UVAHIK_clean_linker_0, # of connection points: 2
#     Edge 17, Type (0, 0), BuildingBlock: UVAHIK_clean_linker_0, # of connection points: 2
#     Edge 18, Type (0, 0), BuildingBlock: UVAHIK_clean_linker_0, # of connection points: 2
#     Edge 19, Type (0, 0), BuildingBlock: UVAHIK_clean_linker_0, # of connection points: 2
#     Edge 20, Type (0, 0), BuildingBlock: UVAHIK_clean_linker_0, # of connection points: 2
#     Edge 21, Type (0, 0), BuildingBlock: UVAHIK_clean_linker_0, # of connection points: 2
#     Edge 22, Type (0, 0), BuildingBlock: UVAHIK_clean_linker_0, # of connection points: 2
#     Edge 23, Type (0, 0), BuildingBlock: UVAHIK_clean_linker_0, # of connection points: 2
#     Edge 24, Type (0, 0), BuildingBlock: UVAHIK_clean_linker_0, # of connection points: 2
#     Edge 25, Type (0, 0), BuildingBlock: UVAHIK_clean_linker_0, # of connection points: 2
#     Edge 26, Type (0, 0), BuildingBlock: UVAHIK_clean_linker_0, # of connection points: 2
#     Edge 27, Type (0, 0), BuildingBlock: UVAHIK_clean_linker_0, # of connection points: 2
#     Edge 28, Type (0, 0), BuildingBlock: UVAHIK_clean_linker_0, # of connection points: 2
#     Edge 29, Type (0, 0), BuildingBlock: UVAHIK_clean_linker_0, # of connection points: 2
#     Edge 30, Type (0, 0), BuildingBlock: UVAHIK_clean_linker_0, # of connection points: 2
#     Edge 31, Type (0, 0), BuildingBlock: UVAHIK_clean_linker_0, # of connection points: 2
#     Edge 32, Type (0, 0), BuildingBlock: UVAHIK_clean_linker_0, # of connection points: 2
#     Edge 33, Type (0, 0), BuildingBlock: UVAHIK_clean_linker_0, # of connection points: 2
#     Edge 34, Type (0, 0), BuildingBlock: UVAHIK_clean_linker_0, # of connection points: 2
#     Edge 35, Type (0, 0), BuildingBlock: UVAHIK_clean_linker_0, # of connection points: 2
#     Edge 36, Type (0, 0), BuildingBlock: UVAHIK_clean_linker_0, # of connection points: 2
#     Edge 37, Type (0, 0), BuildingBlock: UVAHIK_clean_linker_0, # of connection points: 2
#     Edge 38, Type (0, 0), BuildingBlock: UVAHIK_clean_linker_0, # of connection points: 2
#     Edge 39, Type (0, 0), BuildingBlock: UVAHIK_clean_linker_0, # of connection points: 2
#     Edge 40, Type (0, 0), BuildingBlock: UVAHIK_clean_linker_0, # of connection points: 2
#     Edge 41, Type (0, 0), BuildingBlock: UVAHIK_clean_linker_0, # of connection points: 2
#     Edge 42, Type (0, 0), BuildingBlock: UVAHIK_clean_linker_0, # of connection points: 2
#     Edge 43, Type (0, 0), BuildingBlock: UVAHIK_clean_linker_0, # of connection points: 2
#     Edge 44, Type (0, 0), BuildingBlock: UVAHIK_clean_linker_0, # of connection points: 2
#     Edge 45, Type (0, 0), BuildingBlock: UVAHIK_clean_linker_0, # of connection points: 2
#     Edge 46, Type (0, 0), BuildingBlock: UVAHIK_clean_linker_0, # of connection points: 2
#     Edge 47, Type (0, 0), BuildingBlock: UVAHIK_clean_linker_0, # of connection points: 2
#     Edge 48, Type (0, 0), BuildingBlock: UVAHIK_clean_linker_0, # of connection points: 2
#     Edge 49, Type (0, 0), BuildingBlock: UVAHIK_clean_linker_0, # of connection points: 2
#     Edge 50, Type (0, 0), BuildingBlock: UVAHIK_clean_linker_0, # of connection points: 2
#     Edge 51, Type (0, 0), BuildingBlock: UVAHIK_clean_linker_0, # of connection points: 2
#     Edge 52, Type (0, 0), BuildingBlock: UVAHIK_clean_linker_0, # of connection points: 2
#     Edge 53, Type (0, 0), BuildingBlock: UVAHIK_clean_linker_0, # of connection points: 2
#     Edge 54, Type (0, 0), BuildingBlock: UVAHIK_clean_linker_0, # of connection points: 2
#     Edge 55, Type (0, 0), BuildingBlock: UVAHIK_clean_linker_0, # of connection points: 2
#     Edge 56, Type (0, 0), BuildingBlock: UVAHIK_clean_linker_0, # of connection points: 2
#     Edge 57, Type (0, 0), BuildingBlock: UVAHIK_clean_linker_0, # of connection points: 2
#     Edge 58, Type (0, 0), BuildingBlock: UVAHIK_clean_linker_0, # of connection points: 2
#     Edge 59, Type (0, 0), BuildingBlock: UVAHIK_clean_linker_0, # of connection points: 2
#     Edge 60, Type (0, 0), BuildingBlock: UVAHIK_clean_linker_0, # of connection points: 2
#     Edge 61, Type (0, 0), BuildingBlock: UVAHIK_clean_linker_0, # of connection points: 2
#     Edge 62, Type (0, 0), BuildingBlock: UVAHIK_clean_linker_0, # of connection points: 2
#     Edge 63, Type (0, 0), BuildingBlock: UVAHIK_clean_linker_0, # of connection points: 2
# Relax obj value: 0.400
# Max RMSD: 0.236
# Mean RMSD: 0.209
data_MOF--net-whw--node1-BETDIP_clean_sbu_0--edge1-UVAHIK_clean_linker_0
_symmetry_space_group_name_H-M    P1
_symmetry_Int_Tables_number       1
_symmetry_cell_setting            triclinic
loop_
_symmetry_equiv_pos_as_xyz
'x, y, z'
_cell_length_a     60.169137
_cell_length_b     59.553721
_cell_length_c     41.01511
_cell_angle_alpha  90.146408
_cell_angle_beta   80.185925
_cell_angle_gamma 102.92736
loop_
_atom_site_label
_atom_site_type_symbol
_atom_site_fract_x
_atom_site_fract_y
_atom_site_fract_z
_atom_type_partial_charge
Tb0 Tb 0.05212 0.12276 0.18291 0.0
Tb1 Tb 0.03238 0.13969 0.12301 0.0
C2 C 0.06855 0.11956 0.23518 0.0
C3 C 0.07019 0.12556 0.27022 0.0
C4 C 0.05785 0.14043 0.28812 0.0
C5 C 0.06211 0.14737 0.3199 0.0
C6 C 0.07865 0.13942 0.33476 0.0
C7 C 0.09017 0.12379 0.31701 0.0
C8 C 0.08611 0.11715 0.28531 0.0
C9 C 0.04438 0.09252 0.13664 0.0
C10 C -0.00106 0.12284 0.19195 0.0
C11 C 0.01019 0.14546 0.0773 0.0
C12 C 0.00792 0.15793 0.04645 0.0
C13 C 0.01856 0.15334 1.01451 0.0
C14 C 0.01317 0.16252 0.98579 0.0
C15 C -0.00334 0.17628 0.98798 0.0
C16 C -0.01348 0.18125 1.02 0.0
C17 C -0.00797 0.17227 0.04857 0.0
C18 C 0.05412 0.17116 0.15956 0.0
C19 C 0.08448 0.13783 0.11427 0.0
O20 O 0.07723 0.13588 0.21212 0.0
O21 O 0.05016 0.10503 0.22836 0.0
O22 O 0.03263 0.10722 0.14578 0.0
O23 O 0.05924 0.09278 0.15617 0.0
O24 O 0.0168 0.12173 0.20632 0.0
O25 O 0.00086 0.12769 0.15986 0.0
O26 O 0.02401 0.13108 0.07573 0.0
O27 O 0.009 0.15616 0.10531 0.0
O28 O 0.04135 0.15196 0.16862 0.0
O29 O 0.05382 0.17469 0.12841 0.0
O30 O 0.06618 0.13528 0.09943 0.0
O31 O 0.08293 0.13811 0.1469 0.0
H32 H 0.04517 0.14693 0.2775 0.0
H33 H 0.05281 0.15942 0.33239 0.0
H34 H 0.10249 0.11658 0.32751 0.0
H35 H 0.09579 0.10556 0.27225 0.0
H36 H 0.03056 0.14207 1.01161 0.0
H37 H 0.02131 0.15805 0.96179 0.0
H38 H 0.97402 0.19199 1.02309 0.0
H39 H 0.98315 0.17597 0.07255 0.0
Tb40 Tb 0.1352 0.75168 0.46219 0.0
Tb41 Tb 0.12868 0.70294 0.43827 0.0
C42 C 0.13864 0.78818 0.4936 0.0
C43 C 0.13929 0.7942 0.52852 0.0
C44 C 0.11885 0.79432 0.55088 0.0
C45 C 0.11973 0.8001 0.58376 0.0
C46 C 0.14107 0.80593 0.59499 0.0
C47 C 0.16149 0.80587 0.57256 0.0
C48 C 0.16062 0.8002 0.5397 0.0
C49 C 0.17029 0.74244 0.42093 0.0
C50 C 0.12995 0.70894 0.51388 0.0
C51 C 0.13815 0.6694 0.4065 0.0
C52 C 0.15124 0.66734 0.37341 0.0
C53 C 0.16688 0.65286 0.36914 0.0
C54 C 0.17987 0.65112 0.33794 0.0
C55 C 0.17734 0.66381 0.31046 0.0
C56 C 0.1621 0.67883 0.31522 0.0
C57 C 0.14932 0.68069 0.34639 0.0
C58 C 0.0918 0.71183 0.47462 0.0
C59 C 0.12024 0.74394 0.3929 0.0
O60 O 0.11898 0.77642 0.4865 0.0
O61 O 0.15638 0.78073 0.47833 0.0
O62 O 0.15766 0.72932 0.44431 0.0
O63 O 0.16398 0.76179 0.42128 0.0
O64 O 0.13071 0.73112 0.50868 0.0
O65 O 0.13151 0.69479 0.48905 0.0
O66 O 0.1507 0.68034 0.42721 0.0
O67 O 0.11834 0.67552 0.40799 0.0
O68 O 0.10674 0.72542 0.45431 0.0
O69 O 0.09544 0.69113 0.47176 0.0
O70 O 0.12558 0.72337 0.39428 0.0
O71 O 0.12014 0.75735 0.41889 0.0
H72 H 0.10216 0.79005 0.54298 0.0
H73 H 0.1037 0.8004 0.60024 0.0
H74 H 0.17818 0.81006 0.58043 0.0
H75 H 0.17673 0.80049 0.52306 0.0
H76 H 0.16898 0.64284 0.38996 0.0
H77 H 0.19166 0.63965 0.33528 0.0
H78 H 0.1593 0.68859 0.29465 0.0
H79 H 0.13769 0.69232 0.34918 0.0
Tb80 Tb 0.48057 0.84094 0.66193 0.0
Tb81 Tb 0.52555 0.86647 0.67607 0.0
C82 C 0.43859 0.83171 0.65659 0.0
C83 C 0.42375 0.83248 0.63175 0.0
C84 C 0.40729 0.84609 0.63743 0.0
C85 C 0.3927 0.84705 0.61468 0.0
C86 C 0.39415 0.83418 0.58602 0.0
C87 C 0.41057 0.82046 0.58038 0.0
C88 C 0.42531 0.81966 0.60301 0.0
C89 C 0.50732 0.81523 0.6791 0.0
C90 C 0.52141 0.84514 0.60373 0.0
C91 C 0.56702 0.88077 0.68312 0.0
C92 C 0.5788 0.88185 0.71165 0.0
C93 C 0.56781 0.86892 0.74073 0.0
C94 C 0.57832 0.87104 0.76866 0.0
C95 C 0.59987 0.8864 0.76816 0.0
C96 C 0.61101 0.89908 0.73872 0.0
C97 C 0.6005 0.8968 0.71063 0.0
C98 C 0.50003 0.89304 0.65607 0.0
C99 C 0.48531 0.85405 0.73759 0.0
O100 O 0.44956 0.85178 0.6653 0.0
O101 O 0.45139 0.8164 0.65351 0.0
O102 O 0.5043 0.83391 0.69059 0.0
O103 O 0.49357 0.80905 0.65786 0.0
O104 O 0.49866 0.84243 0.61109 0.0
O105 O 0.53476 0.85303 0.62596 0.0
O106 O 0.55865 0.86008 0.67366 0.0
O107 O 0.55228 0.89398 0.68436 0.0
O108 O 0.50253 0.87384 0.64493 0.0
O109 O 0.51182 0.89744 0.6798 0.0
O110 O 0.50814 0.85953 0.72806 0.0
O111 O 0.4717 0.84837 0.71513 0.0
H112 H 0.40569 0.85598 0.65958 0.0
H113 H 0.38011 0.85764 0.61969 0.0
H114 H 0.41224 0.81062 0.5582 0.0
H115 H 0.43788 0.80906 0.59796 0.0
H116 H 0.55096 0.85744 0.74201 0.0
H117 H 0.56948 0.86069 0.79072 0.0
H118 H 0.62752 0.91117 0.73766 0.0
H119 H 0.60909 0.90704 0.68836 0.0
Tb120 Tb 0.4027 0.21136 0.87438 0.0
Tb121 Tb 0.40921 0.26028 0.84807 0.0
C122 C 0.40645 0.17237 0.89202 0.0
C123 C 0.40724 0.16306 0.92476 0.0
C124 C 0.41794 0.17738 0.94753 0.0
C125 C 0.41597 0.16948 0.98006 0.0
C126 C 0.403 0.14722 0.99056 0.0
C127 C 0.39284 0.13269 0.96744 0.0
C128 C 0.39495 0.14059 0.93476 0.0
C129 C 0.36523 0.22287 0.8617 0.0
C130 C 0.40142 0.24952 0.92842 0.0
C131 C 0.39803 0.29721 0.83626 0.0
C132 C 0.38822 0.30802 0.81144 0.0
C133 C 0.36573 0.29898 0.80514 0.0
C134 C 0.35712 0.30943 0.78104 0.0
C135 C 0.3706 0.32948 0.76356 0.0
C136 C 0.39271 0.33898 0.7708 0.0
C137 C 0.40143 0.32832 0.79444 0.0
C138 C 0.44707 0.25059 0.86304 0.0
C139 C 0.42046 0.22352 0.79619 0.0
O140 O 0.4242 0.18873 0.87894 0.0
O141 O 0.38664 0.17712 0.88924 0.0
O142 O 0.38523 0.22857 0.84477 0.0
O143 O 0.36544 0.20933 0.88623 0.0
O144 O 0.4029 0.22792 0.92237 0.0
O145 O 0.40217 0.26422 0.90334 0.0
O146 O 0.38418 0.28 0.85468 0.0
O147 O 0.41894 0.29378 0.82682 0.0
O148 O 0.42639 0.24289 0.87596 0.0
O149 O 0.44712 0.26671 0.8416 0.0
O150 O 0.41565 0.24424 0.79996 0.0
O151 O 0.41782 0.20909 0.82195 0.0
H152 H 0.42731 0.19491 0.9405 0.0
H153 H 0.4244 0.18094 0.99707 0.0
H154 H 0.3826 0.11553 0.97485 0.0
H155 H 0.38631 0.12945 0.91759 0.0
H156 H 0.35481 0.28388 0.81873 0.0
H157 H 0.33998 0.30184 0.77599 0.0
H158 H 0.4036 0.35426 0.75737 0.0
H159 H 0.41866 0.33585 0.79924 0.0
Tb160 Tb 0.01543 0.85356 0.95763 0.0
Tb161 Tb -0.00419 0.86121 0.89311 0.0
C162 C 0.03738 0.85213 1.00496 0.0
C163 C 0.03836 0.84056 1.03712 0.0
C164 C 0.03188 0.85001 0.06786 0.0
C165 C 0.03632 0.84121 0.09743 0.0
C166 C 0.04763 0.82279 0.0973 0.0
C167 C 0.05363 0.8131 0.06653 0.0
C168 C 0.04912 0.82181 1.03709 0.0
C169 C -0.00518 0.81719 0.9286 0.0
C170 C 0.96307 0.85366 0.96284 0.0
C171 C 0.98193 0.85314 0.83888 0.0
C172 C 0.97311 0.84731 0.80714 0.0
C173 C 0.95842 0.82569 0.80399 0.0
C174 C 0.95125 0.81932 0.77375 0.0
C175 C 0.95858 0.83428 0.74546 0.0
C176 C 0.97305 0.85607 0.7488 0.0
C177 C 0.98021 0.86247 0.77916 0.0
C178 C 0.00188 0.89689 0.93125 0.0
C179 C 0.04974 0.8665 0.88827 0.0
O180 O 0.0231 0.86585 1.004 0.0
O181 O 0.03961 0.84029 0.97809 0.0
O182 O 0.00778 0.83528 0.91527 0.0
O183 O -0.0068 0.81828 0.96043 0.0
O184 O 0.98138 0.85906 0.97781 0.0
O185 O 0.96475 0.84988 0.93067 0.0
O186 O 0.97541 0.83882 0.86475 0.0
O187 O -0.00425 0.87282 0.84405 0.0
O188 O 0.01427 0.88223 0.92686 0.0
O189 O -0.01303 0.89321 0.91113 0.0
O190 O 0.03205 0.865 0.87253 0.0
O191 O 0.04737 0.86415 0.92094 0.0
H192 H 0.02392 0.86467 0.069 0.0
H193 H 0.03102 0.84908 0.12041 0.0
H194 H 0.06272 0.79926 0.0648 0.0
H195 H 0.05493 0.81431 1.01401 0.0
H196 H 0.95261 0.81347 0.82488 0.0
H197 H 0.93982 0.80258 0.7727 0.0
H198 H 0.97938 0.86806 0.72772 0.0
H199 H -0.00833 0.87916 0.78052 0.0
Tb200 Tb 0.39423 0.76917 0.14952 0.0
Tb201 Tb 0.39878 0.72298 0.12322 0.0
C202 C 0.37912 0.80023 0.18143 0.0
C203 C 0.36739 0.80321 0.21492 0.0
C204 C 0.36902 0.78951 0.24172 0.0
C205 C 0.35868 0.79344 0.27369 0.0
C206 C 0.34632 0.81098 0.27931 0.0
C207 C 0.34392 0.82396 0.25205 0.0
C208 C 0.35444 0.82012 0.22012 0.0
C209 C 0.4337 0.77013 0.11081 0.0
C210 C 0.4116 0.7331 0.19301 0.0
C211 C 0.40501 0.68938 0.08886 0.0
C212 C 0.40898 0.6865 0.05289 0.0
C213 C 0.42306 0.70423 1.03118 0.0
C214 C 0.42451 0.70226 0.99697 0.0
C215 C 0.41181 0.6826 0.98388 0.0
C216 C 0.39796 0.66479 1.00579 0.0
C217 C 0.39661 0.66673 1.03995 0.0
C218 C 0.36018 0.72339 0.16451 0.0
C219 C 0.39352 0.76269 0.07378 0.0
O220 O 0.36694 0.78552 0.16387 0.0
O221 O 0.40063 0.79818 0.17839 0.0
O222 O 0.42249 0.75395 0.13099 0.0
O223 O 0.4244 0.7878 0.11516 0.0
O224 O 0.40158 0.75098 0.19276 0.0
O225 O 0.41493 0.72088 0.16627 0.0
O226 O 0.42158 0.70314 0.10107 0.0
O227 O 0.3845 0.69274 0.10103 0.0
O228 O 0.37038 0.73836 0.14197 0.0
O229 O 0.37106 0.70692 0.16331 0.0
O230 O 0.39882 0.74259 0.07784 0.0
O231 O 0.38817 0.77525 0.09941 0.0
H232 H 0.37875 0.77618 0.23806 0.0
H233 H 0.36119 0.78332 0.29408 0.0
H234 H 0.33424 0.83734 0.25543 0.0
H235 H 0.35277 0.83061 0.19951 0.0
H236 H 0.43255 0.71983 0.0406 0.0
H237 H 0.43558 0.71615 0.98081 0.0
H238 H 0.38771 0.64956 0.99659 0.0
H239 H 0.38539 0.65304 0.05635 0.0
Tb240 Tb 0.50711 0.1132 0.40859 0.0
Tb241 Tb 0.55301 0.13778 0.42152 0.0
C242 C 0.46567 0.10128 0.40042 0.0
C243 C 0.45506 0.10082 0.37078 0.0
C244 C 0.46812 0.11224 0.34158 0.0
C245 C 0.45868 0.11122 0.31281 0.0
C246 C 0.43602 0.09852 0.31255 0.0
C247 C 0.42279 0.08728 0.34201 0.0
C248 C 0.43232 0.08839 0.37099 0.0
C249 C 0.53102 0.08597 0.43064 0.0
C250 C 0.5477 0.12293 0.3465 0.0
C251 C 0.59485 0.14564 0.42749 0.0
C252 C 0.60859 0.14545 0.45367 0.0
C253 C 0.63075 0.14104 0.4455 0.0
C254 C 0.64401 0.14012 0.47006 0.0
C255 C 0.6353 0.14365 0.50324 0.0
C256 C 0.61303 0.14815 0.51126 0.0
C257 C 0.59973 0.14892 0.48669 0.0
C258 C 0.52777 0.16374 0.40133 0.0
C259 C 0.51226 0.13694 0.47927 0.0
O260 O 0.47511 0.12182 0.4094 0.0
O261 O 0.47912 0.08685 0.40086 0.0
O262 O 0.52974 0.10583 0.44042 0.0
O263 O 0.51873 0.08117 0.40751 0.0
O264 O 0.5249 0.11807 0.35655 0.0
O265 O 0.56163 0.12899 0.36855 0.0
O266 O 0.58302 0.12542 0.42068 0.0
O267 O 0.58299 0.16169 0.42843 0.0
O268 O 0.52988 0.14439 0.39194 0.0
O269 O 0.54174 0.17079 0.42202 0.0
O270 O 0.53495 0.13906 0.47191 0.0
O271 O 0.49862 0.12837 0.45768 0.0
H272 H 0.48569 0.12184 0.34094 0.0
H273 H 0.46916 0.12051 0.29075 0.0
H274 H 0.4053 0.07734 0.34247 0.0
H275 H 0.42206 0.07937 0.39339 0.0
H276 H 0.63772 0.13812 0.42009 0.0
H277 H 0.66093 0.13631 0.46312 0.0
H278 H 0.60593 0.1513 0.53649 0.0
H279 H 0.58257 0.15222 0.49345 0.0
Tb280 Tb 0.12592 0.20685 0.73511 0.0
Tb281 Tb 0.12822 0.25517 0.70941 0.0
C282 C 0.13808 0.17565 0.7638 0.0
C283 C 0.15189 0.17697 0.7902 0.0
C284 C 0.15841 0.15744 0.8007 0.0
C285 C 0.1722 0.15912 0.82522 0.0
C286 C 0.18001 0.1805 0.8392 0.0
C287 C 0.17407 0.20015 0.82747 0.0
C288 C 0.15981 0.19829 0.80371 0.0
C289 C 0.08878 0.21043 0.71251 0.0
C290 C 0.10971 0.24534 0.78431 0.0
C291 C 0.12904 0.29223 0.6797 0.0
C292 C 0.13189 0.29913 0.64477 0.0
C293 C 0.12347 0.28326 0.62206 0.0
C294 C 0.12894 0.28888 0.58829 0.0
C295 C 0.1429 0.3105 0.57664 0.0
C296 C 0.15089 0.32659 0.59955 0.0
C297 C 0.14546 0.32089 0.63341 0.0
C298 C 0.16381 0.24918 0.73505 0.0
C299 C 0.13276 0.21504 0.65747 0.0
O300 O 0.14958 0.1861 0.73598 0.0
O301 O 0.11766 0.18046 0.77201 0.0
O302 O 0.10143 0.22569 0.72697 0.0
O303 O 0.09513 0.19108 0.71491 0.0
O304 O 0.11797 0.22624 0.78099 0.0
O305 O 0.10918 0.25804 0.75821 0.0
O306 O 0.10987 0.27748 0.69233 0.0
O307 O 0.14732 0.28697 0.688 0.0
O308 O 0.15287 0.23564 0.71669 0.0
O309 O 0.15513 0.26715 0.73926 0.0
O310 O 0.13061 0.23645 0.66325 0.0
O311 O 0.13319 0.20049 0.6818 0.0
H312 H 0.15258 0.14086 0.79028 0.0
H313 H 0.17598 0.1435 0.83401 0.0
H314 H 0.18006 0.21697 0.83704 0.0
H315 H 0.15499 0.21357 0.79579 0.0
H316 H 0.11309 0.26633 0.63033 0.0
H317 H 0.12216 0.27626 0.57131 0.0
H318 H 0.16178 0.34334 0.59127 0.0
H319 H 0.15237 0.33322 0.65068 0.0
Tb320 Tb 0.90014 0.28062 0.64604 0.0
Tb321 Tb 0.90239 0.23305 0.62308 0.0
C322 C 0.88526 0.31546 0.66544 0.0
C323 C 0.88562 0.32997 0.69425 0.0
C324 C 0.88029 0.35163 0.69262 0.0
C325 C 0.87936 0.36511 0.72056 0.0
C326 C 0.88354 0.35692 0.75049 0.0
C327 C 0.88931 0.33535 0.75176 0.0
C328 C 0.8904 0.322 0.72382 0.0
C329 C 0.9418 0.2756 0.62279 0.0
C330 C 0.91758 0.24708 0.69143 0.0
C331 C 0.90598 0.1966 0.5942 0.0
C332 C 0.90912 0.1892 0.55996 0.0
C333 C 0.91948 0.20501 0.53348 0.0
C334 C 0.91953 0.19811 0.50087 0.0
C335 C 0.9093 0.17527 0.49434 0.0
C336 C 0.89943 0.15941 0.52104 0.0
C337 C 0.89931 0.16636 0.55356 0.0
C338 C 0.86512 0.23597 0.66587 0.0
C339 C 0.89826 0.27085 0.56953 0.0
O340 O 0.87327 0.2942 0.67137 0.0
O341 O 0.90516 0.31667 0.64599 0.0
O342 O 0.92352 0.26646 0.61264 0.0
O343 O 0.93747 0.28938 0.64654 0.0
O344 O 0.90655 0.26422 0.69117 0.0
O345 O 0.92116 0.23476 0.66474 0.0
O346 O 0.92358 0.21088 0.60364 0.0
O347 O 0.88621 0.20233 0.60423 0.0
O348 O 0.87499 0.24979 0.64181 0.0
O349 O 0.87593 0.21958 0.6661 0.0
O350 O 0.89985 0.24943 0.57587 0.0
O351 O 0.89716 0.28573 0.59367 0.0
H352 H 0.87656 0.35797 0.66988 0.0
H353 H 0.87488 0.38166 0.71898 0.0
H354 H 0.89306 0.32883 0.77436 0.0
H355 H 0.89469 0.30535 0.72541 0.0
H356 H 0.92706 0.22275 0.538 0.0
H357 H 0.92755 0.21063 0.48079 0.0
H358 H 0.89121 0.14178 0.51684 0.0
H359 H 0.89098 0.15402 0.57376 0.0
Tb360 Tb 0.62374 0.72806 0.23099 0.0
Tb361 Tb 0.63669 0.77808 0.20677 0.0
C362 C 0.62747 0.69116 0.25652 0.0
C363 C 0.63963 0.68564 0.28239 0.0
C364 C 0.63952 0.66264 0.28941 0.0
C365 C 0.65177 0.65723 0.31317 0.0
C366 C 0.66446 0.67479 0.33014 0.0
C367 C 0.66497 0.69792 0.32234 0.0
C368 C 0.65254 0.70328 0.29876 0.0
C369 C 0.59023 0.74137 0.20853 0.0
C370 C 0.61671 0.76834 0.28213 0.0
C371 C 0.64657 0.81745 0.17887 0.0
C372 C 0.64639 0.82717 0.14625 0.0
C373 C 0.6343 0.81404 0.12381 0.0
C374 C 0.63522 0.82307 0.09216 0.0
C375 C 0.64874 0.84525 0.08216 0.0
C376 C 0.66089 0.85832 0.10486 0.0
C377 C 0.65963 0.84934 0.1367 0.0
C378 C 0.66766 0.76313 0.23368 0.0
C379 C 0.63129 0.73784 0.15386 0.0
O380 O 0.64115 0.70141 0.22996 0.0
O381 O 0.60989 0.7007 0.26605 0.0
O382 O 0.6053 0.75342 0.22319 0.0
O383 O 0.59179 0.71999 0.21053 0.0
O384 O 0.62033 0.74713 0.27775 0.0
O385 O 0.6195 0.78296 0.25662 0.0
O386 O 0.62638 0.8084 0.19689 0.0
O387 O 0.6615 0.80457 0.1793 0.0
O388 O 0.65528 0.75234 0.21438 0.0
O389 O 0.66347 0.78336 0.23759 0.0
O390 O 0.6329 0.75998 0.16023 0.0
O391 O 0.62995 0.72229 0.17768 0.0
H392 H 0.62981 0.64886 0.27669 0.0
H393 H 0.65065 0.63924 0.319 0.0
H394 H 0.67473 0.71185 0.33473 0.0
H395 H 0.65297 0.72116 0.29332 0.0
H396 H 0.62438 0.79674 0.13067 0.0
H397 H 0.62532 0.81263 0.07559 0.0
H398 H 0.67176 0.87528 0.09787 0.0
H399 H 0.66935 0.85956 0.15368 0.0
Tb400 Tb 0.63756 0.26124 0.96073 0.0
Tb401 Tb 0.63131 0.21258 0.93569 0.0
C402 C 0.64169 0.29806 0.99165 0.0
C403 C 0.63909 0.3044 1.02652 0.0
C404 C 0.62676 0.28834 0.05176 0.0
C405 C 0.62622 0.29384 0.08494 0.0
C406 C 0.63809 0.31556 0.09352 0.0
C407 C 0.65018 0.33177 0.0681 0.0
C408 C 0.65071 0.32618 1.03488 0.0
C409 C 0.67183 0.25299 0.91654 0.0
C410 C 0.63486 0.21824 1.01074 0.0
C411 C 0.64126 0.1799 0.90229 0.0
C412 C 0.6547 0.17875 0.86908 0.0
C413 C 0.67311 0.16753 0.86521 0.0
C414 C 0.68657 0.16683 0.83406 0.0
C415 C 0.68173 0.17722 0.80614 0.0
C416 C 0.66359 0.18895 0.81036 0.0
C417 C 0.65033 0.18983 0.84151 0.0
C418 C 0.59494 0.2196 0.97551 0.0
C419 C 0.62087 0.25338 0.89233 0.0
O420 O 0.6228 0.28826 0.98049 0.0
O421 O 0.65872 0.28789 0.982 0.0
O422 O 0.66009 0.23961 0.94014 0.0
O423 O 0.66522 0.27219 0.91835 0.0
O424 O 0.63373 0.24006 1.00653 0.0
O425 O 0.63692 0.20466 0.98528 0.0
O426 O 0.65349 0.19023 0.92377 0.0
O427 O 0.62132 0.18582 0.90416 0.0
O428 O 0.609 0.23412 0.95529 0.0
O429 O 0.59874 0.19917 0.96981 0.0
O430 O 0.62658 0.23297 0.89289 0.0
O431 O 0.62131 0.26672 0.9184 0.0
H432 H 0.61784 0.27143 0.0459 0.0
H433 H 0.61643 0.28109 0.10387 0.0
H434 H 0.65966 0.34858 0.07387 0.0
H435 H 0.66057 0.33873 1.0157 0.0
H436 H 0.67708 0.15931 0.88635 0.0
H437 H 0.7006 0.15798 0.83181 0.0
H438 H 0.65902 0.19681 0.78943 0.0
H439 H 0.63651 0.19898 0.84387 0.0
Tb440 Tb 0.9041 0.71934 0.37448 0.0
Tb441 Tb 0.89965 0.76651 0.35167 0.0
C442 C 0.91086 0.68427 0.40151 0.0
C443 C 0.91118 0.67742 0.43561 0.0
C444 C 0.91743 0.69401 0.45871 0.0
C445 C 0.91476 0.68757 0.49206 0.0
C446 C 0.90573 0.66443 0.50279 0.0
C447 C 0.90008 0.64778 0.47936 0.0
C448 C 0.90278 0.65426 0.44602 0.0
C449 C 0.86522 0.72107 0.3545 0.0
C450 C 0.89554 0.75728 0.42858 0.0
C451 C 0.8837 0.79652 0.32655 0.0
C452 C 0.87092 0.79635 0.29913 0.0
C453 C 0.86768 0.81702 0.28679 0.0
C454 C 0.85675 0.81705 0.25934 0.0
C455 C 0.84877 0.79633 0.24397 0.0
C456 C 0.85099 0.77548 0.2577 0.0
C457 C 0.86222 0.77554 0.28478 0.0
C458 C 0.93921 0.76695 0.37065 0.0
C459 C 0.91685 0.73055 0.29897 0.0
O460 O 0.92761 0.70128 0.38772 0.0
O461 O 0.8906 0.68625 0.39605 0.0
O462 O 0.87631 0.73561 0.37149 0.0
O463 O 0.87557 0.7043 0.34858 0.0
O464 O 0.90052 0.73702 0.42145 0.0
O465 O 0.89258 0.77134 0.40535 0.0
O466 O 0.87253 0.78317 0.35215 0.0
O467 O 0.90526 0.79473 0.31835 0.0
O468 O 0.92737 0.75096 0.35625 0.0
O469 O 0.93024 0.78487 0.3703 0.0
O470 O 0.90666 0.74828 0.30455 0.0
O471 O 0.92052 0.71839 0.32361 0.0
H472 H 0.92384 0.71199 0.45113 0.0
H473 H 0.9196 0.70074 0.50943 0.0
H474 H 0.89282 0.62986 0.48692 0.0
H475 H 0.8976 0.6413 0.42851 0.0
H476 H 0.87425 0.83322 0.29769 0.0
H477 H 0.85572 0.83347 0.24914 0.0
H478 H 0.84481 0.7592 0.24675 0.0
H479 H 0.86466 0.75942 0.29398 0.0
Tb480 Tb 0.55771 0.63009 0.67593 0.0
Tb481 Tb 0.53814 0.6323 0.61015 0.0
C482 C 0.57551 0.64302 0.72666 0.0
C483 C 0.57399 0.64748 0.76299 0.0
C484 C 0.56758 0.66737 0.77654 0.0
C485 C 0.5704 0.67363 0.80904 0.0
C486 C 0.57999 0.66037 0.82899 0.0
C487 C 0.58568 0.64009 0.8157 0.0
C488 C 0.58278 0.63381 0.7833 0.0
C489 C 0.53522 0.59018 0.65729 0.0
C490 C 0.5082 0.64233 0.67666 0.0
C491 C 0.52443 0.62676 0.55484 0.0
C492 C 0.51526 0.63824 0.52921 0.0
C493 C 0.52646 0.63932 0.49605 0.0
C494 C 0.51761 0.64828 0.47064 0.0
C495 C 0.49711 0.65648 0.47742 0.0
C496 C 0.48611 0.65587 0.51084 0.0
C497 C 0.495 0.6468 0.53636 0.0
C498 C 0.56343 0.67099 0.6277 0.0
C499 C 0.58451 0.61556 0.61109 0.0
O500 O 0.56838 0.65663 0.70766 0.0
O501 O 0.57231 0.6218 0.71651 0.0
O502 O 0.53102 0.6097 0.65291 0.0
O503 O 0.55062 0.5924 0.67655 0.0
O504 O 0.52481 0.63969 0.69283 0.0
O505 O 0.50896 0.63942 0.64449 0.0
O506 O 0.51107 0.62001 0.58344 0.0
O507 O 0.54596 0.6351 0.55809 0.0
O508 O 0.56629 0.65109 0.63165 0.0
O509 O 0.54682 0.66996 0.61102 0.0
O510 O 0.56482 0.61216 0.5993 0.0
O511 O 0.58704 0.62664 0.63878 0.0
H512 H 0.56117 0.67865 0.76162 0.0
H513 H 0.56596 0.68946 0.81797 0.0
H514 H 0.59274 0.62912 0.83019 0.0
H515 H 0.58828 0.6186 0.77369 0.0
H516 H 0.54204 0.63284 0.48961 0.0
H517 H 0.52694 0.64876 0.44554 0.0
H518 H 0.47024 0.66181 0.51724 0.0
H519 H 0.48581 0.64617 0.56158 0.0
Tb520 Tb 0.97955 0.34597 0.15491 0.0
Tb521 Tb 0.02919 0.35814 0.16334 0.0
C522 C 0.94256 0.34825 0.13619 0.0
C523 C 0.93785 0.35877 0.10668 0.0
C524 C 0.95621 0.37194 0.084 0.0
C525 C 0.95177 0.38336 0.05703 0.0
C526 C 0.92888 0.38164 0.05217 0.0
C527 C 0.91054 0.36839 0.07505 0.0
C528 C 0.91502 0.35708 0.10218 0.0
C529 C -0.00662 0.31307 0.18304 0.0
C530 C 0.0195 0.33645 0.09653 0.0
C531 C 0.0685 0.36595 0.17942 0.0
C532 C 0.07804 0.36232 0.20884 0.0
C533 C 0.06478 0.34735 0.23474 0.0
C534 C 0.07437 0.34329 0.26214 0.0
C535 C 0.09728 0.3545 0.2643 0.0
C536 C 0.11026 0.36996 0.23848 0.0
C537 C 0.10071 0.37373 0.21087 0.0
C538 C 0.01651 0.38853 0.12831 0.0
C539 C -0.01129 0.35405 0.22735 0.0
O540 O 0.95286 0.36312 0.15547 0.0
O541 O 0.95184 0.33031 0.13153 0.0
O542 O 0.00448 0.32732 0.16051 0.0
O543 O 0.97215 0.31551 0.18928 0.0
O544 O -0.00172 0.34042 0.10456 0.0
O545 O 0.03391 0.33959 0.11803 0.0
O546 O 0.05961 0.34719 0.16512 0.0
O547 O 0.05548 0.38102 0.18195 0.0
O548 O 0.00464 0.37786 0.15438 0.0
O549 O 0.03642 0.38332 0.12271 0.0
O550 O 0.01073 0.35422 0.21541 0.0
O551 O 0.97365 0.35397 0.20726 0.0
H552 H 0.97395 0.37359 0.0874 0.0
H553 H 0.96625 0.39362 1.04007 0.0
H554 H 0.89275 0.36642 0.07168 0.0
H555 H 0.90068 0.3471 0.11968 0.0
H556 H 0.04712 0.33863 0.23359 0.0
H557 H 0.06393 0.33104 0.28127 0.0
H558 H 0.12774 0.37929 0.23965 0.0
H559 H 0.11104 0.38553 0.19107 0.0
Tb560 Tb 0.50587 0.36219 0.46573 0.0
Tb561 Tb 0.48718 0.36834 0.39957 0.0
C562 C 0.51512 0.36335 0.52401 0.0
C563 C 0.52625 0.35421 0.54955 0.0
C564 C 0.52622 0.36505 0.58 0.0
C565 C 0.5349 0.35642 0.60588 0.0
C566 C 0.54418 0.33658 0.60232 0.0
C567 C 0.54431 0.32576 0.57148 0.0
C568 C 0.53541 0.33441 0.54551 0.0
C569 C 0.48668 0.32505 0.43715 0.0
C570 C 0.45661 0.37393 0.46554 0.0
C571 C 0.47512 0.35657 0.34475 0.0
C572 C 0.46835 0.34858 0.31219 0.0
C573 C 0.47242 0.32757 0.29948 0.0
C574 C 0.46651 0.31998 0.26886 0.0
C575 C 0.45617 0.33303 0.24969 0.0
C576 C 0.45201 0.35405 0.2626 0.0
C577 C 0.45801 0.36168 0.29327 0.0
C578 C 0.50432 0.40708 0.42657 0.0
C579 C 0.53989 0.36312 0.39894 0.0
O580 O 0.52815 0.37638 0.49904 0.0
O581 O 0.49689 0.34986 0.51531 0.0
O582 O 0.48071 0.34377 0.43918 0.0
O583 O 0.50387 0.32599 0.45275 0.0
O584 O 0.47572 0.37772 0.47888 0.0
O585 O 0.45577 0.36518 0.43591 0.0
O586 O 0.48461 0.34418 0.36224 0.0
O587 O 0.47237 0.37602 0.35833 0.0
O588 O 0.51083 0.38835 0.42763 0.0
O589 O 0.48978 0.40527 0.40595 0.0
O590 O 0.52302 0.3655 0.38302 0.0
O591 O 0.53782 0.36231 0.43166 0.0
H592 H 0.51898 0.38014 0.5841 0.0
H593 H 0.53376 0.36514 0.62907 0.0
H594 H 0.55143 0.31064 0.56721 0.0
H595 H 0.53554 0.32553 0.52243 0.0
H596 H 0.48038 0.31693 0.31313 0.0
H597 H 0.47048 0.30394 0.26003 0.0
H598 H 0.4438 0.36459 0.24924 0.0
H599 H 0.45451 0.37789 0.30217 0.0
Tb600 Tb -0.0032 0.61695 0.91816 0.0
Tb601 Tb 0.04489 0.64242 0.92115 0.0
C602 C 0.95778 0.59741 0.90588 0.0
C603 C 0.94568 0.59819 0.87788 0.0
C604 C 0.95713 0.59761 0.84518 0.0
C605 C 0.94588 0.59993 0.81882 0.0
C606 C 0.92307 0.603 0.82467 0.0
C607 C 0.9116 0.60346 0.85739 0.0
C608 C 0.92283 0.60098 0.88383 0.0
C609 C 0.01812 0.59685 0.95675 0.0
C610 C 0.03629 0.62305 0.85306 0.0
C611 C 0.08523 0.65482 0.93352 0.0
C612 C 0.09834 0.65301 0.9601 0.0
C613 C 0.11923 0.64588 0.95211 0.0
C614 C 0.13193 0.64316 0.97666 0.0
C615 C 0.12406 0.64769 1.00972 0.0
C616 C 0.10316 0.65507 1.01762 0.0
C617 C 0.09033 0.6576 0.99303 0.0
C618 C 0.02244 0.6645 0.88673 0.0
C619 C 0.00391 0.64719 0.97945 0.0
O620 O 0.96144 0.61641 0.92218 0.0
O621 O 0.97584 0.58814 0.90073 0.0
O622 O 0.02724 0.60659 0.92879 0.0
O623 O -0.00344 0.59723 0.96237 0.0
O624 O 0.0138 0.61965 0.86517 0.0
O625 O 0.05171 0.62803 0.87281 0.0
O626 O 0.07744 0.63534 0.92011 0.0
O627 O 0.07021 0.66794 0.93782 0.0
O628 O 0.01439 0.65178 0.9122 0.0
O629 O 0.04479 0.66781 0.88175 0.0
O630 O 0.02628 0.64715 0.97125 0.0
O631 O -0.01077 0.63894 0.9593 0.0
H632 H 0.97489 0.59583 0.8399 0.0
H633 H 0.95526 0.59997 0.7938 0.0
H634 H 0.89401 0.60579 0.86249 0.0
H635 H 0.91382 0.60163 0.90893 0.0
H636 H 0.1256 0.64214 0.92681 0.0
H637 H 0.14771 0.6371 0.96976 0.0
H638 H 0.09677 0.65905 0.04278 0.0
H639 H 0.07419 0.66304 0.99979 0.0
C640 C 0.10896 0.13123 0.06154 0.0
C641 C 0.10743 0.13972 0.09355 0.0
C642 C 0.1304 0.13359 0.04115 0.0
C643 C 0.17772 0.13494 1.00364 0.0
H644 H 0.20604 0.2 0.98858 0.0
C645 C 0.20578 0.16658 0.87339 0.0
C646 C 0.19153 0.18168 0.86873 0.0
C647 C 0.21133 0.16355 0.90464 0.0
C648 C 0.19883 0.18166 0.99272 0.0
H649 H 0.12716 0.15656 0.12994 0.0
H650 H 0.16491 0.16139 0.09354 0.0
H651 H 0.18181 0.18631 0.04162 0.0
H652 H 0.17464 0.20765 0.89239 0.0
H653 H 0.18427 0.20261 0.94572 0.0
H654 H 0.19204 0.13061 0.95352 0.0
C655 C 0.14944 0.15264 0.08455 0.0
C656 C 0.18503 0.17378 1.02326 0.0
C657 C 0.12787 0.14996 0.10524 0.0
C658 C 0.18563 0.19584 0.89473 0.0
C659 C 0.19132 0.19298 0.92568 0.0
C660 C 0.19126 0.14285 0.97302 0.0
C661 C 0.15086 0.14468 0.05215 0.0
C662 C 0.17266 0.15071 1.02773 0.0
C663 C 0.2028 0.17567 0.93165 0.0
C664 C 0.19996 0.16664 0.96624 0.0
H665 H 0.09355 0.12299 0.05199 0.0
H666 H 0.13079 0.12771 1.01609 0.0
H667 H 0.16894 0.1169 1.00691 0.0
H668 H 0.21138 0.15601 0.85352 0.0
H669 H 0.22065 0.15043 0.90825 0.0
C670 C 0.1098 0.77431 0.35886 0.0
C671 C 0.11335 0.75185 0.362 0.0
C672 C 0.10284 0.78171 0.33042 0.0
C673 C 0.0747 0.76005 0.25822 0.0
H674 H 0.1003 0.82239 0.22244 0.0
C675 C 0.05471 0.79097 0.13324 0.0
C676 C 0.05396 0.81426 0.12858 0.0
C677 C 0.06166 0.78327 0.16153 0.0
C678 C 0.09259 0.80501 0.23221 0.0
H679 H 0.11218 0.71965 0.33689 0.0
H680 H 0.10003 0.73248 0.28748 0.0
H681 H 0.11291 0.80937 0.27098 0.0
H682 H 0.06008 0.84751 0.15134 0.0
H683 H 0.0712 0.83405 0.20075 0.0
H684 H 0.05411 0.75573 0.21984 0.0
C685 C 0.10254 0.74441 0.3072 0.0
C686 C 0.09996 0.79747 0.26023 0.0
C687 C 0.10971 0.73706 0.33558 0.0
C688 C 0.06007 0.82942 0.15375 0.0
C689 C 0.0669 0.82169 0.18214 0.0
C690 C 0.06718 0.76764 0.23033 0.0
C691 C 0.09897 0.76688 0.30409 0.0
C692 C 0.09117 0.77485 0.27378 0.0
C693 C 0.06803 0.79848 0.18653 0.0
C694 C 0.07597 0.79029 0.2167 0.0
H695 H 0.11234 0.78629 0.37852 0.0
H696 H 0.10008 0.79902 0.32938 0.0
H697 H 0.06719 0.74263 0.26801 0.0
H698 H 0.04987 0.7785 0.115 0.0
H699 H 0.06241 0.76534 0.16338 0.0
C700 C 0.32958 0.79974 0.33886 0.0
C701 C 0.33796 0.817 0.31368 0.0
C702 C 0.32626 0.80557 0.37202 0.0
C703 C 0.35204 0.85198 0.4216 0.0
H704 H 0.31398 0.8117 0.49377 0.0
C705 C 0.37626 0.8568 0.55066 0.0
C706 C 0.37896 0.83538 0.56159 0.0
C707 C 0.36388 0.85805 0.5251 0.0
C708 C 0.32454 0.82326 0.4739 0.0
H709 H 0.34716 0.85401 0.3035 0.0
H710 H 0.34042 0.86413 0.36117 0.0
H711 H 0.30392 0.80806 0.43843 0.0
H712 H 0.36955 0.79844 0.55617 0.0
H713 H 0.34815 0.8006 0.51131 0.0
H714 H 0.37321 0.86649 0.45662 0.0
C715 C 0.33712 0.84606 0.35537 0.0
C716 C 0.31885 0.82115 0.44222 0.0
C717 C 0.34073 0.84023 0.32221 0.0
C718 C 0.36798 0.81518 0.54786 0.0
C719 C 0.35546 0.81641 0.52252 0.0
C720 C 0.35758 0.85421 0.45326 0.0
C721 C 0.33099 0.82882 0.38071 0.0
C722 C 0.33319 0.83475 0.4154 0.0
C723 C 0.35382 0.83789 0.51028 0.0
C724 C 0.34452 0.83917 0.47936 0.0
H725 H 0.32669 0.78168 0.33306 0.0
H726 H 0.32158 0.79178 0.39077 0.0
H727 H 0.36369 0.86259 0.40161 0.0
H728 H 0.3846 0.87265 0.56082 0.0
H729 H 0.36283 0.87482 0.51616 0.0
C730 C 0.4293 0.19211 0.75799 0.0
C731 C 0.42863 0.21547 0.76236 0.0
C732 C 0.43744 0.18419 0.72694 0.0
C733 C 0.47455 0.20332 0.64516 0.0
H734 H 0.44415 0.14346 0.61813 0.0
C735 C 0.51645 0.15711 0.53313 0.0
C736 C 0.50205 0.14518 0.51195 0.0
C737 C 0.5071 0.16602 0.56286 0.0
C738 C 0.45284 0.16028 0.62506 0.0
H739 H 0.43626 0.24875 0.73662 0.0
H740 H 0.45069 0.23496 0.68235 0.0
H741 H 0.4284 0.15864 0.67019 0.0
H742 H 0.46621 0.13332 0.50616 0.0
H743 H 0.44993 0.14856 0.55802 0.0
H744 H 0.49904 0.20491 0.60002 0.0
C745 C 0.44485 0.22274 0.70323 0.0
C746 C 0.44388 0.16894 0.65523 0.0
C747 C 0.4364 0.23066 0.73439 0.0
C748 C 0.47793 0.14225 0.52175 0.0
C749 C 0.46856 0.15099 0.55167 0.0
C750 C 0.48365 0.19454 0.61512 0.0
C751 C 0.44547 0.19933 0.69899 0.0
C752 C 0.45462 0.19058 0.66593 0.0
C753 C 0.48298 0.16319 0.57266 0.0
C754 C 0.47301 0.17281 0.60458 0.0
H755 H 0.42353 0.17976 0.77872 0.0
H756 H 0.43786 0.16615 0.72503 0.0
H757 H 0.48347 0.21994 0.65247 0.0
H758 H 0.5351 0.15985 0.52661 0.0
H759 H 0.51885 0.17499 0.57837 0.0
C760 C 0.85042 0.78376 0.18571 0.0
C761 C 0.84173 0.79702 0.21105 0.0
C762 C 0.84942 0.7885 0.15283 0.0
C763 C 0.85432 0.84057 0.10471 0.0
H764 H 0.86831 0.79945 1.03471 0.0
C765 C 0.91996 0.83874 0.97214 0.0
C766 C 0.93989 0.85117 0.9832 0.0
C767 C 0.89841 0.83445 0.99314 0.0
C768 C 0.86394 0.81131 0.05348 0.0
H769 H 0.82221 0.82342 0.22225 0.0
H770 H 0.82054 0.83182 0.16453 0.0
H771 H 0.84273 0.78383 0.0859 0.0
H772 H 0.95264 0.87022 1.02392 0.0
H773 H 0.91549 0.86255 0.06045 0.0
H774 H 0.8763 0.86792 0.07282 0.0
C775 C 0.8286 0.81808 0.17009 0.0
C776 C 0.84942 0.8023 0.08303 0.0
C777 C 0.82962 0.81333 0.20313 0.0
C778 C 0.93767 0.86036 1.0148 0.0
C779 C 0.91622 0.85623 1.0356 0.0
C780 C 0.86856 0.8496 0.07505 0.0
C781 C 0.83975 0.80667 0.14443 0.0
C782 C 0.8461 0.81659 0.10996 0.0
C783 C 0.89643 0.84274 1.02539 0.0
C784 C 0.87504 0.83482 0.05027 0.0
H785 H 0.85999 0.77115 0.19073 0.0
H786 H 0.85841 0.7794 0.13395 0.0
H787 H 0.85202 0.85224 0.12465 0.0
H788 H 0.92114 0.8315 0.94781 0.0
H789 H 0.88347 0.82405 0.98456 0.0
C790 C 0.93645 0.22208 0.72301 0.0
C791 C 0.92618 0.24113 0.72219 0.0
C792 C 0.94445 0.21609 0.75141 0.0
C793 C 0.94043 0.22586 0.84323 0.0
H794 H -0.00757 0.19654 0.83301 0.0
C795 C 0.966 0.18518 0.95724 0.0
C796 C -0.01067 0.1847 0.9574 0.0
C797 C 0.9589 0.19274 0.92895 0.0
C798 C 0.97803 0.20491 0.83664 0.0
H799 H 0.91657 0.26884 0.75157 0.0
H800 H 0.9308 0.25875 0.80078 0.0
H801 H 0.97971 0.2089 0.78426 0.0
H802 H 0.02347 0.19247 0.92701 0.0
H803 H 0.01133 0.20595 0.87812 0.0
H804 H 0.93918 0.22246 0.89562 0.0
C805 C 0.93237 0.24807 0.7795 0.0
C806 C 0.9704 0.21177 0.80833 0.0
C807 C 0.92427 0.25403 0.75101 0.0
C808 C 0.00532 0.19221 0.92803 0.0
C809 C -0.00176 0.19995 0.89973 0.0
C810 C 0.94811 0.21906 0.87155 0.0
C811 C 0.94266 0.22895 0.78033 0.0
C812 C 0.95131 0.22225 0.81095 0.0
C813 C 0.97484 0.20033 0.89952 0.0
C814 C 0.96699 0.20828 0.86893 0.0
H815 H 0.93823 0.21151 0.70162 0.0
H816 H 0.95171 0.201 0.75072 0.0
H817 H 0.92559 0.23361 0.84684 0.0
H818 H 0.95295 0.17921 0.97892 0.0
H819 H 0.94068 0.19215 0.93011 0.0
C820 C 0.69848 0.15249 0.76347 0.0
C821 C 0.69372 0.17399 0.77225 0.0
C822 C 0.70415 0.1475 0.73021 0.0
C823 C 0.7109 0.17218 0.64351 0.0
H824 H 0.67076 0.11294 0.63273 0.0
C825 C 0.67329 0.15244 0.52381 0.0
C826 C 0.64933 0.14272 0.52946 0.0
C827 C 0.68611 0.15279 0.5493 0.0
C828 C 0.68207 0.12954 0.63523 0.0
H829 H 0.69482 0.20825 0.75334 0.0
H830 H 0.70299 0.1992 0.69566 0.0
H831 H 0.68257 0.1217 0.68557 0.0
H832 H 0.62036 0.12462 0.56579 0.0
H833 H 0.64227 0.12615 0.61039 0.0
H834 H 0.70825 0.18079 0.59401 0.0
C835 C 0.70262 0.18608 0.71407 0.0
C836 C 0.68927 0.13448 0.66552 0.0
C837 C 0.69747 0.19122 0.74732 0.0
C838 C 0.63868 0.13264 0.56076 0.0
C839 C 0.65141 0.13314 0.58622 0.0
C840 C 0.7033 0.16738 0.61335 0.0
C841 C 0.70465 0.1637 0.70503 0.0
C842 C 0.70279 0.15634 0.67064 0.0
C843 C 0.67522 0.14351 0.581 0.0
C844 C 0.68779 0.14644 0.6095 0.0
H845 H 0.69605 0.13883 0.78198 0.0
H846 H 0.70648 0.13036 0.72426 0.0
H847 H 0.72191 0.18891 0.64614 0.0
H848 H 0.68203 0.16044 0.5 0.0
H849 H 0.70445 0.16072 0.54433 0.0
C850 C 0.518 0.82731 0.54817 0.0
C851 C 0.53204 0.83823 0.57045 0.0
C852 C 0.52776 0.81955 0.5178 0.0
C853 C 0.58255 0.8273 0.45643 0.0
H854 H 0.55278 0.76866 0.42495 0.0
C855 C 0.60782 0.79912 0.32157 0.0
C856 C 0.60854 0.77588 0.31622 0.0
C857 C 0.59939 0.80634 0.35299 0.0
C858 C 0.56146 0.78501 0.43339 0.0
H859 H 0.56766 0.84952 0.57761 0.0
H860 H 0.58465 0.8363 0.52461 0.0
H861 H 0.53652 0.78196 0.47829 0.0
H862 H 0.60088 0.74207 0.34049 0.0
H863 H 0.58601 0.75462 0.39526 0.0
H864 H 0.60746 0.83038 0.41152 0.0
C865 C 0.566 0.83379 0.53059 0.0
C866 C 0.55196 0.79279 0.46394 0.0
C867 C 0.55622 0.84137 0.56114 0.0
C868 C 0.60066 0.7601 0.3435 0.0
C869 C 0.59196 0.76729 0.37496 0.0
C870 C 0.59191 0.81964 0.42573 0.0
C871 C 0.55193 0.82259 0.50849 0.0
C872 C 0.56231 0.8141 0.47597 0.0
C873 C 0.59115 0.79055 0.38021 0.0
C874 C 0.5815 0.79839 0.41361 0.0
H875 H 0.49933 0.82444 0.55431 0.0
H876 H 0.51629 0.8113 0.50143 0.0
H877 H 0.591 0.84384 0.46457 0.0
H878 H 0.61369 0.81187 0.30134 0.0
H879 H 0.59886 0.82431 0.35574 0.0
C880 C 0.67166 0.68022 0.3881 0.0
C881 C 0.67483 0.66875 0.35833 0.0
C882 C 0.67666 0.67162 0.41688 0.0
C883 C 0.67357 0.61498 0.45199 0.0
H884 H 0.67637 0.65194 0.52959 0.0
C885 C 0.62737 0.61911 0.59655 0.0
C886 C 0.60498 0.61025 0.58984 0.0
C887 C 0.64679 0.61936 0.5722 0.0
C888 C 0.67613 0.64098 0.5085 0.0
H889 H 0.6884 0.64089 0.33446 0.0
H890 H 0.69716 0.62577 0.38498 0.0
H891 H 0.69491 0.66928 0.47573 0.0
H892 H 0.58552 0.59168 0.55437 0.0
H893 H 0.61884 0.59277 0.51192 0.0
H894 H 0.65428 0.58682 0.48469 0.0
C895 C 0.69032 0.64115 0.38618 0.0
C896 C 0.68657 0.65111 0.47739 0.0
C897 C 0.68524 0.64977 0.35728 0.0
C898 C 0.60251 0.59913 0.56005 0.0
C899 C 0.62183 0.5995 0.53572 0.0
C900 C 0.66356 0.60471 0.48319 0.0
C901 C 0.68499 0.65132 0.41666 0.0
C902 C 0.68346 0.63879 0.44862 0.0
C903 C 0.64411 0.6109 0.5407 0.0
C904 C 0.6628 0.61818 0.5114 0.0
H905 H 0.66353 0.69477 0.3899 0.0
H906 H 0.67197 0.67984 0.4398 0.0
H907 H 0.67115 0.60473 0.4305 0.0
H908 H 0.62987 0.62741 0.61959 0.0
H909 H 0.66372 0.6277 0.57725 0.0
C910 C 0.61144 0.28434 0.85793 0.0
C911 C 0.61361 0.26144 0.86173 0.0
C912 C 0.6046 0.29194 0.82945 0.0
C913 C 0.57406 0.2713 0.75904 0.0
H914 H 0.6044 0.33173 0.71947 0.0
C915 C 0.55178 0.30361 0.6359 0.0
C916 C 0.55329 0.32739 0.63079 0.0
C917 C 0.55957 0.29522 0.66308 0.0
C918 C 0.59532 0.31493 0.73028 0.0
H919 H 0.60999 0.22864 0.8378 0.0
H920 H 0.59782 0.24177 0.78855 0.0
H921 H 0.61643 0.31815 0.7681 0.0
H922 H 0.5652 0.36081 0.65097 0.0
H923 H 0.57756 0.34636 0.69833 0.0
H924 H 0.55255 0.26821 0.72183 0.0
C925 C 0.60143 0.25392 0.80769 0.0
C926 C 0.60239 0.30706 0.75838 0.0
C927 C 0.60859 0.24639 0.836 0.0
C928 C 0.56315 0.34237 0.65387 0.0
C929 C 0.57074 0.334 0.68111 0.0
C930 C 0.56677 0.27928 0.73114 0.0
C931 C 0.59938 0.27687 0.80382 0.0
C932 C 0.59189 0.28512 0.77336 0.0
C933 C 0.56912 0.31023 0.68644 0.0
C934 C 0.5772 0.30133 0.71615 0.0
H935 H 0.61511 0.29655 0.877 0.0
H936 H 0.60306 0.30966 0.82779 0.0
H937 H 0.56529 0.25442 0.76989 0.0
H938 H 0.54418 0.29127 0.61922 0.0
H939 H 0.55818 0.27685 0.66553 0.0
C940 C 0.90525 0.40289 1.02406 0.0
C941 C 0.9242 0.39248 1.02233 0.0
C942 C 0.89941 0.41062 0.99519 0.0
C943 C 0.91966 0.41954 0.90376 0.0
H944 H 0.85549 0.39199 0.89962 0.0
C945 C 0.89315 0.39409 0.77948 0.0
C946 C 0.88201 0.37063 0.78056 0.0
C947 C 0.89436 0.40599 0.80882 0.0
C948 C 0.8734 0.40006 0.90038 0.0
H949 H 0.95243 0.38293 0.98913 0.0
H950 H 0.94223 0.39606 0.93911 0.0
H951 H 0.86775 0.39705 0.95314 0.0
H952 H 0.86161 0.34181 0.81251 0.0
H953 H 0.86412 0.36217 0.86347 0.0
H954 H 0.92579 0.42033 0.85093 0.0
C955 C 0.93208 0.39879 0.96263 0.0
C956 C 0.88041 0.40322 0.93112 0.0
C957 C 0.9379 0.39111 0.99139 0.0
C958 C 0.87066 0.35978 0.81108 0.0
C959 C 0.87181 0.37162 0.84026 0.0
C960 C 0.9127 0.41617 0.87301 0.0
C961 C 0.91241 0.40806 0.96407 0.0
C962 C 0.90391 0.41164 0.93301 0.0
C963 C 0.88433 0.39463 0.83961 0.0
C964 C 0.88979 0.40503 0.87103 0.0
H965 H 0.89462 0.40457 0.04766 0.0
H966 H 0.88429 0.4179 0.99713 0.0
H967 H 0.93778 0.42666 0.90449 0.0
H968 H 0.90197 0.40287 0.7562 0.0
H969 H 0.90396 0.42376 0.8075 0.0
C970 C 0.92858 0.70124 0.25962 0.0
C971 C 0.92443 0.72347 0.26453 0.0
C972 C 0.93652 0.69421 0.22802 0.0
C973 C 0.96836 0.71514 0.14487 0.0
H974 H 0.94114 0.65362 0.1197 0.0
C975 C 0.01008 0.66942 1.03129 0.0
C976 C -0.00502 0.65688 1.01152 0.0
C977 C 0.00139 0.67869 0.06113 0.0
C978 C 0.94891 0.6709 0.12615 0.0
H979 H 0.92549 0.75575 0.23942 0.0
H980 H 0.93983 0.7435 0.18386 0.0
H981 H 0.92561 0.66792 0.17251 0.0
H982 H 0.95874 0.64436 1.00811 0.0
H983 H 0.94373 0.66017 0.05993 0.0
H984 H -0.00811 0.71793 0.09848 0.0
C985 C 0.93678 0.73152 0.20482 0.0
C986 C 0.94007 0.67907 0.15663 0.0
C987 C 0.92842 0.7385 0.23662 0.0
C988 C 0.97098 0.65385 1.02254 0.0
C989 C 0.96232 0.66287 0.05246 0.0
C990 C 0.97744 0.70683 0.11445 0.0
C991 C 0.94088 0.70921 0.20011 0.0
C992 C 0.94969 0.70126 0.16657 0.0
C993 C 0.97735 0.67543 0.07227 0.0
C994 C 0.96784 0.68455 0.10465 0.0
H995 H 0.92568 0.68908 0.28034 0.0
H996 H 0.93966 0.67702 0.22555 0.0
H997 H 0.97633 0.73224 0.15177 0.0
H998 H 0.02866 0.67218 1.02366 0.0
H999 H 0.01352 0.68808 0.07581 0.0
C1000 C 0.43598 0.39867 0.50202 0.0
C1001 C 0.43552 0.37776 0.48617 0.0
C1002 C 0.41829 0.40055 0.52798 0.0
C1003 C 0.36447 0.36581 0.58211 0.0
H1004 H 0.39725 0.39382 0.65078 0.0
C1005 C 0.3559 0.32551 0.71005 0.0
C1006 C 0.36288 0.33952 0.73571 0.0
C1007 C 0.35458 0.33546 0.67984 0.0
C1008 C 0.38736 0.38641 0.63209 0.0
H1009 H 0.41576 0.34302 0.48269 0.0
H1010 H 0.38565 0.34558 0.52944 0.0
H1011 H 0.41447 0.40276 0.59388 0.0
H1012 H 0.37082 0.37462 0.75181 0.0
H1013 H 0.3681 0.39206 0.69924 0.0
H1014 H 0.33824 0.34786 0.62128 0.0
C1015 C 0.39896 0.36094 0.52138 0.0
C1016 C 0.39732 0.3916 0.59904 0.0
C1017 C 0.4163 0.35934 0.49464 0.0
C1018 C 0.36584 0.36349 0.73209 0.0
C1019 C 0.36427 0.37344 0.70204 0.0
C1020 C 0.35456 0.36041 0.61539 0.0
C1021 C 0.40043 0.38119 0.53958 0.0
C1022 C 0.38662 0.3805 0.57355 0.0
C1023 C 0.3601 0.35959 0.67492 0.0
C1024 C 0.3665 0.36982 0.64069 0.0
H1025 H 0.45065 0.41315 0.4955 0.0
H1026 H 0.4196 0.41669 0.54053 0.0
H1027 H 0.35539 0.35741 0.56317 0.0
H1028 H 0.35352 0.30696 0.71223 0.0
H1029 H 0.35143 0.32425 0.65949 0.0
C1030 C 0.48842 0.65425 0.41885 0.0
C1031 C 0.48718 0.665 0.44958 0.0
C1032 C 0.47947 0.66211 0.39265 0.0
C1033 C 0.46089 0.71289 0.3611 0.0
H1034 H 0.43224 0.66796 0.30349 0.0
C1035 C 0.41678 0.73828 0.25332 0.0
C1036 C 0.41947 0.72629 0.22374 0.0
C1037 C 0.42428 0.73144 0.28179 0.0
C1038 C 0.44042 0.68088 0.31898 0.0
H1039 H 0.47533 0.69285 0.47613 0.0
H1040 H 0.45949 0.70636 0.43065 0.0
H1041 H 0.44643 0.65507 0.35056 0.0
H1042 H 0.43254 0.69764 0.20146 0.0
H1043 H 0.44559 0.68605 0.25025 0.0
H1044 H 0.45484 0.73872 0.32926 0.0
C1045 C 0.46763 0.69187 0.42674 0.0
C1046 C 0.44863 0.67342 0.3462 0.0
C1047 C 0.47653 0.68392 0.4531 0.0
C1048 C 0.42995 0.70735 0.22361 0.0
C1049 C 0.43736 0.70052 0.25191 0.0
C1050 C 0.45266 0.72038 0.33377 0.0
C1051 C 0.46888 0.68105 0.39602 0.0
C1052 C 0.45926 0.68926 0.36761 0.0
C1053 C 0.43461 0.71232 0.28163 0.0
C1054 C 0.44249 0.70451 0.31196 0.0
H1055 H 0.49613 0.63948 0.41501 0.0
H1056 H 0.48115 0.65339 0.36947 0.0
H1057 H 0.46911 0.72574 0.37664 0.0
H1058 H 0.40881 0.75293 0.25457 0.0
H1059 H 0.42163 0.74095 0.30411 0.0
C1060 C 0.18914 0.63722 0.26664 0.0
C1061 C 0.18834 0.65973 0.27637 0.0
C1062 C 0.19349 0.63242 0.23311 0.0
C1063 C 0.20301 0.65986 0.14756 0.0
H1064 H 0.15397 0.60725 0.13686 0.0
C1065 C 0.16188 0.65073 1.02969 0.0
C1066 C 0.13751 0.64455 1.03587 0.0
C1067 C 0.17443 0.64827 0.05465 0.0
C1068 C 0.16774 0.62201 0.13935 0.0
H1069 H 0.19518 0.69533 0.25881 0.0
H1070 H 0.20117 0.68691 0.20077 0.0
H1071 H 0.16777 0.6118 0.18892 0.0
H1072 H 0.10733 0.6301 0.07282 0.0
H1073 H 0.12897 0.62692 0.1166 0.0
H1074 H 0.20112 0.67122 0.09896 0.0
C1075 C 0.19867 0.67282 0.21861 0.0
C1076 C 0.17607 0.62445 0.16915 0.0
C1077 C 0.19482 0.67768 0.25209 0.0
C1078 C 0.12604 0.63542 0.06734 0.0
C1079 C 0.13854 0.63316 0.09231 0.0
C1080 C 0.19434 0.65765 0.11791 0.0
C1081 C 0.19657 0.6499 0.20866 0.0
C1082 C 0.19297 0.64406 0.17431 0.0
C1083 C 0.16289 0.63971 0.0864 0.0
C1084 C 0.17575 0.6393 0.11419 0.0
H1085 H 0.1845 0.62294 0.28462 0.0
H1086 H 0.19264 0.61468 0.22642 0.0
H1087 H 0.21655 0.67481 0.15021 0.0
H1088 H 0.17129 0.65798 1.00577 0.0
H1089 H 0.19315 0.65333 0.04916 0.0
C1090 C 0.09799 0.27609 0.82075 0.0
C1091 C 0.10053 0.2532 0.81762 0.0
C1092 C 0.08869 0.28399 0.85105 0.0
C1093 C 0.05152 0.26604 0.93234 0.0
H1094 H 0.08198 0.32652 0.95726 0.0
C1095 C 0.01194 0.31647 0.04316 0.0
C1096 C 0.02747 0.32719 0.06366 0.0
C1097 C 0.02001 0.30654 1.01344 0.0
C1098 C 0.07322 0.30957 0.95084 0.0
H1099 H 0.09493 0.2206 0.84453 0.0
H1100 H 0.07832 0.23444 0.89787 0.0
H1101 H 0.09803 0.31029 0.9065 0.0
H1102 H 0.06377 0.33607 0.06829 0.0
H1103 H 0.07762 0.31929 1.01695 0.0
H1104 H 0.02664 0.26551 0.97699 0.0
C1105 C 0.08369 0.24625 0.8765 0.0
C1106 C 0.08239 0.30029 0.92151 0.0
C1107 C 0.09338 0.23836 0.846 0.0
C1108 C 0.05121 0.32802 0.05332 0.0
C1109 C 0.05923 0.31842 1.02365 0.0
C1110 C 0.04215 0.2755 0.96168 0.0
C1111 C 0.08135 0.26927 0.87943 0.0
C1112 C 0.07172 0.27841 0.91171 0.0
C1113 C 0.04382 0.30744 1.00324 0.0
C1114 C 0.05295 0.2974 0.97141 0.0
H1115 H 0.10326 0.28813 0.79962 0.0
H1116 H 0.08696 0.30171 0.85211 0.0
H1117 H 0.04272 0.24923 0.9255 0.0
H1118 H -0.00645 0.31538 0.05036 0.0
H1119 H 0.00764 0.29838 0.99826 0.0
C1120 C 0.02726 0.29905 0.19178 0.0
C1121 C 0.0051 0.302 0.20472 0.0
C1122 C 0.04052 0.29151 0.21203 0.0
C1123 C 0.03323 0.25228 0.27824 0.0
H1124 H 0.09818 0.26438 0.23871 0.0
C1125 C 0.0746 0.21061 0.17328 0.0
C1126 C 0.06377 0.18774 0.18299 0.0
C1127 C 0.07892 0.22695 0.19737 0.0
C1128 C 0.08032 0.26078 0.25122 0.0
H1129 H 0.97902 0.29918 0.24891 0.0
H1130 H 0.00227 0.28508 0.2849 0.0
H1131 H 0.07883 0.29612 0.2476 0.0
H1132 H 0.05095 0.16355 0.2248 0.0
H1133 H 0.05964 0.19155 0.26647 0.0
H1134 H 0.03383 0.21682 0.2787 0.0
C1135 C 0.00952 0.28924 0.25902 0.0
C1136 C 0.06918 0.27901 0.25651 0.0
C1137 C -0.0039 0.29687 0.23843 0.0
C1138 C 0.05971 0.18099 0.21666 0.0
C1139 C 0.06457 0.19708 0.24059 0.0
C1140 C 0.04442 0.23412 0.27365 0.0
C1141 C 0.03197 0.28659 0.24597 0.0
C1142 C 0.04484 0.27419 0.26467 0.0
C1143 C 0.07253 0.22052 0.23143 0.0
C1144 C 0.0671 0.23803 0.25543 0.0
H1145 H 0.03446 0.30265 0.16576 0.0
H1146 H 0.05723 0.28873 0.20056 0.0
H1147 H 0.01462 0.24813 0.28623 0.0
H1148 H 0.07801 0.2162 0.14744 0.0
H1149 H 0.08492 0.24491 0.18927 0.0
C1150 C 0.95086 0.77636 0.42522 0.0
C1151 C 0.95178 0.76296 0.397 0.0
C1152 C 0.9577 0.76947 0.45369 0.0
C1153 C -0.01425 0.75887 0.50378 0.0
H1154 H -0.00791 0.69571 0.50736 0.0
C1155 C 0.0681 0.74023 0.49102 0.0
C1156 C 0.0715 0.71796 0.4945 0.0
C1157 C 0.04719 0.74535 0.50478 0.0
C1158 C -0.01016 0.71326 0.50811 0.0
H1159 H 0.96396 0.73426 0.37417 0.0
H1160 H 0.97773 0.72305 0.42282 0.0
H1161 H 0.96533 0.70568 0.47553 0.0
H1162 H 0.05709 0.68422 0.5184 0.0
H1163 H 0.01975 0.69289 0.54166 0.0
H1164 H 0.01092 0.76645 0.53557 0.0
C1165 C 0.96967 0.73763 0.42435 0.0
C1166 C 0.97479 0.7191 0.48904 0.0
C1167 C 0.96214 0.74417 0.39625 0.0
C1168 C 0.05456 0.70143 0.51484 0.0
C1169 C 0.03334 0.70647 0.5284 0.0
C1170 C 0.00036 0.75286 0.52358 0.0
C1171 C 0.96664 0.74963 0.45393 0.0
C1172 C 0.97467 0.74237 0.48368 0.0
C1173 C 0.02891 0.72807 0.52159 0.0
C1174 C 0.00491 0.73069 0.52199 0.0
H1175 H 0.94344 0.79136 0.4261 0.0
H1176 H 0.95536 0.77938 0.47566 0.0
H1177 H -0.0145 0.7769 0.50142 0.0
H1178 H 0.08079 0.75323 0.47531 0.0
H1179 H 0.04464 0.76215 0.49859 0.0
C1180 C 0.59783 0.69215 0.65102 0.0
C1181 C 0.5802 0.69224 0.63251 0.0
C1182 C 0.61161 0.71298 0.65892 0.0
C1183 C 0.60514 0.75677 0.69614 0.0
H1184 H 0.61308 0.80747 0.63331 0.0
C1185 C 0.54044 0.79961 0.65162 0.0
C1186 C 0.5288 0.80779 0.67999 0.0
C1187 C 0.56245 0.79569 0.65134 0.0
C1188 C 0.6115 0.79395 0.65176 0.0
H1189 H 0.56518 0.71355 0.60389 0.0
H1190 H 0.58932 0.74951 0.61659 0.0
H1191 H 0.63237 0.7762 0.61853 0.0
H1192 H 0.53056 0.8183 0.73025 0.0
H1193 H 0.56893 0.81055 0.7302 0.0
H1194 H 0.58133 0.77254 0.7274 0.0
C1195 C 0.5925 0.73365 0.62566 0.0
C1196 C 0.62287 0.77616 0.64348 0.0
C1197 C 0.57829 0.71305 0.61883 0.0
C1198 C 0.53933 0.81182 0.70817 0.0
C1199 C 0.5613 0.80772 0.70802 0.0
C1200 C 0.59374 0.7745 0.70454 0.0
C1201 C 0.60854 0.73396 0.64706 0.0
C1202 C 0.61625 0.75576 0.66332 0.0
C1203 C 0.57313 0.79971 0.67952 0.0
C1204 C 0.59443 0.79142 0.68037 0.0
H1205 H 0.60025 0.67614 0.66065 0.0
H1206 H 0.62365 0.71279 0.67571 0.0
H1207 H 0.60073 0.74165 0.71266 0.0
H1208 H 0.53278 0.79676 0.62946 0.0
H1209 H 0.5708 0.78877 0.62932 0.0
C1210 C 0.55332 0.20892 1.00088 0.0
C1211 C 0.57485 0.22441 0.99756 0.0
C1212 C 0.5333 0.21617 1.01436 0.0
C1213 C 0.5212 0.27141 1.00307 0.0
H1214 H 0.46202 0.22923 1.00341 0.0
C1215 C 0.46887 0.27572 0.90007 0.0
C1216 C 0.46346 0.25407 0.88596 0.0
C1217 C 0.47594 0.27757 0.93085 0.0
C1218 C 0.47829 0.24149 1.00371 0.0
H1219 H 0.59311 0.25727 1.0116 0.0
H1220 H 0.5585 0.26983 1.03669 0.0
H1221 H 0.48731 0.22141 0.04042 0.0
H1222 H 0.46194 0.2177 0.89193 0.0
H1223 H 0.47566 0.22098 0.94459 0.0
H1224 H 0.5133 0.29023 0.96415 0.0
C1225 C 0.55667 0.2526 1.02737 0.0
C1226 C 0.49272 0.23709 1.02502 0.0
C1227 C 0.57655 0.24559 1.01281 0.0
C1228 C 0.46648 0.23459 0.90206 0.0
C1229 C 0.47358 0.23642 0.93269 0.0
C1230 C 0.5068 0.27582 0.98187 0.0
C1231 C 0.53474 0.23898 1.0249 0.0
C1232 C 0.51555 0.25032 1.02148 0.0
C1233 C 0.47772 0.2578 0.94787 0.0
C1234 C 0.48651 0.25943 0.97947 0.0
H1235 H 0.55172 0.19217 0.98997 0.0
H1236 H 0.51684 0.20483 1.0124 0.0
H1237 H 0.53826 0.2827 1.00039 0.0
H1238 H 0.4658 0.29088 0.88867 0.0
H1239 H 0.47928 0.29429 0.94181 0.0
C1240 C 0.959 0.78747 0.92296 0.0
C1241 C 0.98149 0.79971 0.90998 0.0
C1242 C 0.94685 0.77123 0.90377 0.0
C1243 C 0.939 0.7246 0.87506 0.0
H1244 H 0.97405 0.72171 0.78734 0.0
C1245 C 0.01626 0.69276 0.8462 0.0
C1246 C 0.00847 0.67181 0.86436 0.0
C1247 C 0.00076 0.70184 0.83131 0.0
C1248 C 0.96329 0.7219 0.81133 0.0
H1249 H 0.00852 0.80597 0.86674 0.0
H1250 H -0.0114 0.77719 0.83439 0.0
H1251 H 0.96263 0.75726 0.8045 0.0
H1252 H 0.98032 0.64194 0.87555 0.0
H1253 H 0.95306 0.65765 0.8503 0.0
H1254 H 0.94029 0.68968 0.88254 0.0
C1255 C 0.97943 0.7801 0.85852 0.0
C1256 C 0.957 0.74238 0.82147 0.0
C1257 C -0.00872 0.79636 0.87741 0.0
C1258 C -0.01378 0.65859 0.86321 0.0
C1259 C 0.9708 0.6674 0.84805 0.0
C1260 C 0.94437 0.7039 0.86449 0.0
C1261 C 0.9573 0.7666 0.87168 0.0
C1262 C 0.94846 0.74483 0.85522 0.0
C1263 C 0.97735 0.68993 0.83438 0.0
C1264 C 0.95957 0.70357 0.83447 0.0
H1265 H 0.95089 0.79043 0.94778 0.0
H1266 H 0.92968 0.76166 0.91464 0.0
H1267 H 0.93109 0.72517 0.90069 0.0
H1268 H 0.03357 0.70305 0.8461 0.0
H1269 H 0.00644 0.71931 0.82094 0.0
C1270 C 0.58216 0.7738 0.17779 0.0
C1271 C 0.58085 0.75022 0.18167 0.0
C1272 C 0.57712 0.78266 0.14915 0.0
C1273 C 0.55767 0.76318 0.0681 0.0
H1274 H 0.52437 0.81141 0.08812 0.0
C1275 C 0.46613 0.75168 0.08884 0.0
C1276 C 0.45557 0.77033 0.08851 0.0
C1277 C 0.48903 0.75396 0.07334 0.0
C1278 C 0.53414 0.79839 0.0811 0.0
H1279 H 0.57176 0.71696 0.15989 0.0
H1280 H 0.56071 0.73168 0.11193 0.0
H1281 H 0.55279 0.80732 0.12018 0.0
H1282 H 0.45902 0.80461 0.06763 0.0
H1283 H 0.49964 0.8091 0.04218 0.0
H1284 H 0.53564 0.75222 1.03243 0.0
C1285 C 0.56737 0.74401 0.12927 0.0
C1286 C 0.55062 0.79585 0.09994 0.0
C1287 C 0.57305 0.73534 0.15745 0.0
C1288 C 0.46712 0.7902 0.06896 0.0
C1289 C 0.49019 0.79264 0.05385 0.0
C1290 C 0.54043 0.76519 0.05012 0.0
C1291 C 0.5696 0.76791 0.1243 0.0
C1292 C 0.56071 0.77662 0.09608 0.0
C1293 C 0.50182 0.77518 0.05816 0.0
C1294 C 0.52685 0.78126 0.0592 0.0
H1295 H 0.58734 0.78542 0.19677 0.0
H1296 H 0.57932 0.80113 0.14671 0.0
H1297 H 0.56655 0.74935 0.06242 0.0
H1298 H 0.4575 0.73612 0.10347 0.0
H1299 H 0.4975 0.74018 0.07726 0.0
C1300 C 0.49996 0.18924 0.41249 0.0
C1301 C 0.51059 0.1749 0.39127 0.0
C1302 C 0.48244 0.1983 0.40309 0.0
C1303 C 0.47047 0.22148 0.33174 0.0
H1304 H 0.42653 0.23903 0.40176 0.0
C1305 C 0.49316 0.29402 0.399 0.0
C1306 C 0.47835 0.30719 0.41489 0.0
C1307 C 0.48517 0.27718 0.37759 0.0
C1308 C 0.43782 0.23403 0.38088 0.0
H1309 H 0.51165 0.15859 0.34387 0.0
H1310 H 0.48133 0.17493 0.32709 0.0
H1311 H 0.43385 0.20069 0.40332 0.0
H1312 H 0.44411 0.31426 0.42019 0.0
H1313 H 0.42956 0.28342 0.38412 0.0
H1314 H 0.47699 0.25599 0.31224 0.0
C1315 C 0.48604 0.17868 0.3512 0.0
C1316 C 0.44216 0.21204 0.382 0.0
C1317 C 0.50343 0.16953 0.36072 0.0
C1318 C 0.45568 0.30394 0.4083 0.0
C1319 C 0.44749 0.28671 0.38734 0.0
C1320 C 0.46609 0.24347 0.33069 0.0
C1321 C 0.47546 0.19325 0.37222 0.0
C1322 C 0.46083 0.20701 0.36 0.0
C1323 C 0.46209 0.27294 0.37222 0.0
C1324 C 0.45259 0.25077 0.35827 0.0
H1325 H 0.50507 0.19332 0.43629 0.0
H1326 H 0.47508 0.21011 0.41939 0.0
H1327 H 0.48445 0.21772 0.31375 0.0
H1328 H 0.5108 0.29658 0.40337 0.0
H1329 H 0.49666 0.26639 0.36702 0.0
C1330 C 0.07158 0.23678 0.68339 0.0
C1331 C 0.07777 0.21564 0.6851 0.0
C1332 C 0.06586 0.24402 0.65433 0.0
C1333 C 0.03935 0.22329 0.58604 0.0
H1334 H 0.05399 0.28929 0.56789 0.0
C1335 C 0.96674 0.26192 0.576 0.0
C1336 C 0.96474 0.27463 0.60486 0.0
C1337 C -0.01176 0.25851 0.56097 0.0
C1338 C 0.05017 0.27071 0.57143 0.0
H1339 H 0.08073 0.1843 0.65928 0.0
H1340 H 0.0703 0.19687 0.60833 0.0
H1341 H 0.07989 0.27211 0.59384 0.0
H1342 H 0.98351 0.29588 0.63859 0.0
H1343 H 0.02096 0.28946 0.61328 0.0
H1344 H 0.008 0.22222 0.56818 0.0
C1345 C 0.07069 0.20818 0.62907 0.0
C1346 C 0.06501 0.26087 0.58637 0.0
C1347 C 0.07634 0.20092 0.6583 0.0
C1348 C -0.01534 0.28571 0.61669 0.0
C1349 C 0.00616 0.28233 0.60168 0.0
C1350 C 0.02441 0.23317 0.57136 0.0
C1351 C 0.06606 0.23009 0.62655 0.0
C1352 C 0.05826 0.23758 0.59708 0.0
C1353 C 0.008 0.2677 0.57471 0.0
C1354 C 0.02836 0.25732 0.56809 0.0
H1355 H 0.07161 0.24789 0.70433 0.0
H1356 H 0.06111 0.2605 0.6537 0.0
H1357 H 0.03404 0.20514 0.59331 0.0
H1358 H 0.95156 0.2537 0.56594 0.0
H1359 H -0.01084 0.24727 0.5402 0.0
C1360 C 0.02039 0.0717 0.09639 0.0
C1361 C 0.03994 0.07486 0.11179 0.0
C1362 C 0.01592 0.0536 0.07471 0.0
C1363 C 0.04409 0.01191 1.02484 0.0
H1364 H 0.9816 0.97455 1.03331 0.0
C1365 C 0.02445 0.922 0.96904 0.0
C1366 C 0.00543 0.91694 0.95252 0.0
C1367 C 0.02822 0.94176 0.98776 0.0
C1368 C -0.00089 0.98494 1.03042 0.0
H1369 H 0.07041 0.06213 0.11602 0.0
H1370 H 0.06259 0.03071 0.07885 0.0
H1371 H -0.01089 0.00917 0.06545 0.0
H1372 H 0.97513 0.92813 0.94319 0.0
H1373 H 0.98168 0.96256 0.97583 0.0
H1374 H 0.05415 0.98752 0.99024 0.0
C1375 C 0.05078 0.04215 0.08298 0.0
C1376 C 0.00339 0.00485 0.04873 0.0
C1377 C 0.05518 0.06009 0.10453 0.0
C1378 C -0.01002 0.93166 0.95563 0.0
C1379 C -0.00634 0.95131 0.97447 0.0
C1380 C 0.03982 0.99199 1.00668 0.0
C1381 C 0.03101 0.03849 0.06798 0.0
C1382 C 0.026 0.01844 0.04646 0.0
C1383 C 0.01295 0.95674 0.99049 0.0
C1384 C 0.01733 0.97814 1.00948 0.0
H1385 H 0.00837 0.08287 0.1016 0.0
H1386 H 0.00065 0.0514 0.06331 0.0
H1387 H 0.06164 0.02219 1.02199 0.0
H1388 H 0.03659 0.9109 0.9671 0.0
H1389 H 0.04307 0.94528 1.00019 0.0
C1390 C 0.19312 0.7498 0.36405 0.0
C1391 C 0.18709 0.73627 0.3936 0.0
C1392 C 0.21015 0.74576 0.33854 0.0
C1393 C 0.26229 0.72251 0.32427 0.0
H1394 H 0.258 0.72977 0.23174 0.0
C1395 C 0.33443 0.7094 0.21814 0.0
C1396 C 0.34007 0.72463 0.19033 0.0
C1397 C 0.31528 0.70975 0.24264 0.0
C1398 C 0.25959 0.72796 0.25745 0.0
H1399 H 0.19384 0.70751 0.41934 0.0
H1400 H 0.22382 0.70026 0.3744 0.0
H1401 H 0.22454 0.73038 0.27448 0.0
H1402 H 0.32985 0.75197 0.16612 0.0
H1403 H 0.29652 0.75301 0.20935 0.0
H1404 H 0.29747 0.72056 0.30735 0.0
C1405 C 0.21532 0.71412 0.37116 0.0
C1406 C 0.24035 0.72815 0.28197 0.0
C1407 C 0.19805 0.7181 0.39676 0.0
C1408 C 0.32613 0.74029 0.18752 0.0
C1409 C 0.30687 0.74064 0.21209 0.0
C1410 C 0.28156 0.72238 0.29977 0.0
C1411 C 0.22179 0.72816 0.34191 0.0
C1412 C 0.24151 0.72565 0.31572 0.0
C1413 C 0.30117 0.72531 0.23995 0.0
C1414 C 0.28054 0.72529 0.26603 0.0
H1415 H 0.1849 0.76387 0.36078 0.0
H1416 H 0.21479 0.75707 0.31662 0.0
H1417 H 0.26394 0.72095 0.35001 0.0
H1418 H 0.34482 0.69708 0.221 0.0
H1419 H 0.31131 0.69749 0.26343 0.0
C1420 C 0.53422 0.07088 0.48642 0.0
C1421 C 0.53302 0.06721 0.45284 0.0
C1422 C 0.53115 0.05213 0.50866 0.0
C1423 C 0.50337 0.98984 0.51787 0.0
H1424 H 0.5361 0.99082 0.5916 0.0
C1425 C 0.49637 0.90895 0.60111 0.0
C1426 C 0.49779 0.91215 0.63471 0.0
C1427 C 0.49918 0.92794 0.57947 0.0
C1428 C 0.52654 0.99037 0.57142 0.0
H1429 H 0.52941 0.04126 0.41579 0.0
H1430 H 0.5246 0.00872 0.45428 0.0
H1431 H 0.54613 0.02376 0.55247 0.0
H1432 H 0.50157 0.93758 0.67245 0.0
H1433 H 0.50594 0.97062 0.63496 0.0
H1434 H 0.48378 0.95646 0.53678 0.0
C1435 C 0.52723 0.02594 0.46373 0.0
C1436 C 0.53237 0.00927 0.5489 0.0
C1437 C 0.53025 0.04462 0.44158 0.0
C1438 C 0.50054 0.93458 0.64663 0.0
C1439 C 0.50331 0.95354 0.62505 0.0
C1440 C 0.49753 0.97095 0.54039 0.0
C1441 C 0.52688 0.02937 0.49773 0.0
C1442 C 0.52092 0.00922 0.52173 0.0
C1443 C 0.5034 0.95055 0.591 0.0
C1444 C 0.50905 0.97094 0.56746 0.0
H1445 H 0.53624 0.08809 0.49586 0.0
H1446 H 0.53096 0.05544 0.53467 0.0
H1447 H 0.49383 0.98937 0.49765 0.0
H1448 H 0.49435 0.89188 0.59115 0.0
H1449 H 0.4992 0.92495 0.55342 0.0
C1450 C 0.32214 0.21687 0.86928 0.0
C1451 C 0.34408 0.22572 0.85018 0.0
C1452 C 0.3021 0.2189 0.85767 0.0
C1453 C 0.2637 0.21354 0.8153 0.0
H1454 H 0.26116 0.27289 0.77917 0.0
C1455 C 0.19483 0.22781 0.73863 0.0
C1456 C 0.18398 0.24584 0.7488 0.0
C1457 C 0.21373 0.22467 0.75236 0.0
C1458 C 0.26163 0.25624 0.78928 0.0
H1459 H 0.36235 0.24334 0.8039 0.0
H1460 H 0.32739 0.2473 0.7839 0.0
H1461 H 0.29551 0.26879 0.80087 0.0
H1462 H 0.1845 0.27494 0.78073 0.0
H1463 H 0.21791 0.26984 0.80399 0.0
H1464 H 0.2299 0.20097 0.80313 0.0
C1465 C 0.32566 0.23885 0.80785 0.0
C1466 C 0.2813 0.25386 0.80149 0.0
C1467 C 0.34565 0.23658 0.81929 0.0
C1468 C 0.19256 0.2609 0.77244 0.0
C1469 C 0.21164 0.258 0.78575 0.0
C1470 C 0.24415 0.21584 0.80257 0.0
C1471 C 0.30369 0.23001 0.8269 0.0
C1472 C 0.28255 0.2325 0.81459 0.0
C1473 C 0.22237 0.23984 0.77589 0.0
C1474 C 0.24295 0.23723 0.78948 0.0
H1475 H 0.32047 0.20829 0.89312 0.0
H1476 H 0.28537 0.21204 0.87291 0.0
H1477 H 0.26427 0.19685 0.82513 0.0
H1478 H 0.18883 0.21624 0.71998 0.0
H1479 H 0.22188 0.21069 0.74411 0.0
C1480 C 0.69307 0.26114 0.85886 0.0
C1481 C 0.68805 0.24731 0.88803 0.0
C1482 C 0.70984 0.25779 0.83247 0.0
C1483 C 0.74671 0.21806 0.79746 0.0
H1484 H 0.78799 0.27498 0.75911 0.0
C1485 C 0.83637 0.22133 0.71675 0.0
C1486 C 0.84362 0.23678 0.68916 0.0
C1487 C 0.816 0.22143 0.73896 0.0
C1488 C 0.77647 0.25891 0.76912 0.0
H1489 H 0.696 0.21847 0.91199 0.0
H1490 H 0.72568 0.21262 0.86575 0.0
H1491 H 0.75475 0.27646 0.80134 0.0
H1492 H 0.83481 0.264 0.6626 0.0
H1493 H 0.79929 0.26451 0.70177 0.0
H1494 H 0.76887 0.20058 0.76546 0.0
C1495 C 0.71644 0.22599 0.86322 0.0
C1496 C 0.75734 0.25973 0.79341 0.0
C1497 C 0.69946 0.22932 0.88973 0.0
C1498 C 0.82992 0.25223 0.68402 0.0
C1499 C 0.80954 0.25244 0.70641 0.0
C1500 C 0.76595 0.21724 0.77313 0.0
C1501 C 0.72228 0.24065 0.83461 0.0
C1502 C 0.74222 0.23934 0.80802 0.0
C1503 C 0.80234 0.23703 0.7342 0.0
C1504 C 0.78115 0.23769 0.7588 0.0
H1505 H 0.68427 0.27492 0.85657 0.0
H1506 H 0.71337 0.26899 0.81055 0.0
H1507 H 0.73532 0.20203 0.80787 0.0
H1508 H 0.84655 0.20917 0.72136 0.0
H1509 H 0.8112 0.20956 0.76028 0.0
C1510 C 0.83623 0.70915 0.31717 0.0
C1511 C 0.84408 0.72317 0.34235 0.0
C1512 C 0.81667 0.71183 0.30477 0.0
C1513 C 0.78282 0.75464 0.29574 0.0
H1514 H 0.73295 0.70256 0.28544 0.0
C1515 C 0.69608 0.76837 0.27179 0.0
C1516 C 0.68597 0.75547 0.24728 0.0
C1517 C 0.71471 0.76275 0.28329 0.0
C1518 C 0.74687 0.71722 0.28779 0.0
H1519 H 0.83709 0.75004 0.37556 0.0
H1520 H 0.8033 0.75515 0.35339 0.0
H1521 H 0.76736 0.69603 0.305 0.0
H1522 H 0.68677 0.72607 0.21629 0.0
H1523 H 0.71967 0.71617 0.23638 0.0
H1524 H 0.76264 0.77586 0.27847 0.0
C1525 C 0.8124 0.74232 0.34291 0.0
C1526 C 0.76652 0.71349 0.299 0.0
C1527 C 0.83176 0.73947 0.35552 0.0
C1528 C 0.69428 0.73625 0.23526 0.0
C1529 C 0.71305 0.7306 0.24679 0.0
C1530 C 0.76332 0.75835 0.28442 0.0
C1531 C 0.80474 0.72864 0.31727 0.0
C1532 C 0.7845 0.73222 0.30356 0.0
C1533 C 0.72379 0.74415 0.2704 0.0
C1534 C 0.74494 0.73974 0.28082 0.0
H1535 H 0.84543 0.6964 0.30668 0.0
H1536 H 0.81117 0.70112 0.28492 0.0
H1537 H 0.79665 0.76934 0.29837 0.0
H1538 H 0.6898 0.78309 0.2818 0.0
H1539 H 0.7222 0.77317 0.30208 0.0
C1540 C 0.54297 0.55321 0.63473 0.0
C1541 C 0.52998 0.57017 0.63613 0.0
C1542 C 0.5398 0.53532 0.61267 0.0
C1543 C 0.49885 0.50378 0.56142 0.0
H1544 H 0.55368 0.48718 0.51277 0.0
C1545 C 0.49443 0.44236 0.45235 0.0
C1546 C 0.50829 0.42611 0.44965 0.0
C1547 C 0.49705 0.45976 0.47526 0.0
C1548 C 0.53817 0.49137 0.52643 0.0
H1549 H 0.50271 0.58112 0.61678 0.0
H1550 H 0.49721 0.54994 0.57777 0.0
H1551 H 0.55773 0.51758 0.55269 0.0
H1552 H 0.53636 0.41585 0.4678 0.0
H1553 H 0.54075 0.44599 0.50845 0.0
H1554 H 0.47928 0.47754 0.53521 0.0
C1555 C 0.50992 0.55049 0.59372 0.0
C1556 C 0.54048 0.50884 0.54933 0.0
C1557 C 0.51318 0.56847 0.6158 0.0
C1558 C 0.52519 0.4279 0.46982 0.0
C1559 C 0.52784 0.44534 0.49281 0.0
C1560 C 0.49653 0.48627 0.53856 0.0
C1561 C 0.52345 0.53387 0.59156 0.0
C1562 C 0.52086 0.51527 0.56713 0.0
C1563 C 0.51367 0.46141 0.49599 0.0
C1564 C 0.51616 0.47985 0.5207 0.0
H1565 H 0.55605 0.55403 0.65015 0.0
H1566 H 0.55021 0.52261 0.61213 0.0
H1567 H 0.48337 0.50807 0.57501 0.0
H1568 H 0.48127 0.44144 0.43706 0.0
H1569 H 0.48612 0.47203 0.47653 0.0
C1570 C 0.01824 0.57666 1.00889 0.0
C1571 C 0.02612 0.57958 0.97461 0.0
C1572 C 0.01865 0.55651 1.0258 0.0
C1573 C 0.04088 0.50332 1.02114 0.0
H1574 H 0.98237 0.47755 0.07861 0.0
C1575 C 0.02205 0.41139 0.07634 0.0
C1576 C 0.01177 0.40763 0.10982 0.0
C1577 C 0.02244 0.43175 0.05932 0.0
C1578 C -0.0011 0.48457 0.06301 0.0
H1579 H 0.04198 0.56444 0.9313 0.0
H1580 H 0.043 0.52899 0.96101 0.0
H1581 H -0.0116 0.51507 0.05073 0.0
H1582 H -0.00735 0.42152 0.15146 0.0
H1583 H -0.00637 0.45764 0.12188 0.0
H1584 H 0.05152 0.47299 1.03363 0.0
C1585 C 0.03655 0.5424 0.97486 0.0
C1586 C 0.0024 0.50613 0.047 0.0
C1587 C 0.03618 0.56276 0.95785 0.0
C1588 C 0.00054 0.424 0.12556 0.0
C1589 C 0.0012 0.44468 0.10857 0.0
C1590 C 0.03744 0.48182 1.03731 0.0
C1591 C 0.02681 0.53867 1.00876 0.0
C1592 C 0.02344 0.5158 1.0259 0.0
C1593 C 0.0129 0.44912 0.07552 0.0
C1594 C 0.01636 0.47208 0.05838 0.0
H1595 H 0.01031 0.58939 1.02231 0.0
H1596 H 0.01159 0.55448 0.05202 0.0
H1597 H 0.05734 0.51035 1.00534 0.0
H1598 H 0.03062 0.39887 0.06356 0.0
H1599 H 0.03088 0.43413 1.03365 0.0
C1600 C 0.06739 0.15283 0.3934 0.0
C1601 C 0.08427 0.14741 0.36817 0.0
C1602 C 0.07278 0.15981 0.42457 0.0
C1603 C 0.11562 0.15795 0.48033 0.0
H1604 H 0.09181 0.20738 0.52482 0.0
C1605 C 0.1264 0.18298 0.61647 0.0
C1606 C 0.13111 0.20664 0.62312 0.0
C1607 C 0.12115 0.1753 0.58549 0.0
C1608 C 0.09872 0.19359 0.51274 0.0
H1609 H 0.1206 0.14624 0.35663 0.0
H1610 H 0.12966 0.15776 0.41059 0.0
H1611 H 0.0815 0.19525 0.47131 0.0
H1612 H 0.13519 0.24066 0.60099 0.0
H1613 H 0.12583 0.22743 0.54781 0.0
H1614 H 0.13291 0.15637 0.52173 0.0
C1615 C 0.11209 0.15626 0.40648 0.0
C1616 C 0.09259 0.18646 0.48208 0.0
C1617 C 0.10678 0.14952 0.37531 0.0
C1618 C 0.1313 0.22233 0.59731 0.0
C1619 C 0.1258 0.21469 0.56663 0.0
C1620 C 0.12154 0.16491 0.51117 0.0
C1621 C 0.0952 0.16147 0.43174 0.0
C1622 C 0.10109 0.16864 0.46516 0.0
C1623 C 0.12026 0.19103 0.56031 0.0
C1624 C 0.11338 0.18301 0.52777 0.0
H1625 H 0.04979 0.15125 0.38941 0.0
H1626 H 0.0592 0.16347 0.44333 0.0
H1627 H 0.12235 0.14401 0.46842 0.0
H1628 H 0.12585 0.17029 0.63563 0.0
H1629 H 0.11695 0.15694 0.58171 0.0
C1630 C 0.15945 0.83093 0.6371 0.0
C1631 C 0.14204 0.81254 0.62976 0.0
C1632 C 0.15938 0.83815 0.66957 0.0
C1633 C 0.13087 0.82215 0.7573 0.0
H1634 H 0.13703 0.88807 0.76462 0.0
C1635 C 0.08836 0.85642 0.87529 0.0
C1636 C 0.07269 0.86897 0.86746 0.0
C1637 C 0.10677 0.85336 0.85103 0.0
C1638 C 0.13555 0.86965 0.76312 0.0
H1639 H 0.11169 0.7865 0.65111 0.0
H1640 H 0.11098 0.7996 0.70731 0.0
H1641 H 0.14957 0.87264 0.71147 0.0
H1642 H 0.06537 0.89043 0.82995 0.0
H1643 H 0.09715 0.88526 0.78796 0.0
H1644 H 0.11481 0.81899 0.80817 0.0
C1645 C 0.12497 0.80826 0.68819 0.0
C1646 C 0.14292 0.86077 0.73265 0.0
C1647 C 0.12511 0.80098 0.65581 0.0
C1648 C 0.07713 0.8805 0.83647 0.0
C1649 C 0.09553 0.87765 0.81245 0.0
C1650 C 0.12331 0.83101 0.78769 0.0
C1651 C 0.14186 0.8272 0.69541 0.0
C1652 C 0.13951 0.83681 0.729 0.0
C1653 C 0.10981 0.86303 0.81883 0.0
C1654 C 0.12438 0.85476 0.79045 0.0
H1655 H 0.17271 0.8403 0.6176 0.0
H1656 H 0.17276 0.85266 0.67429 0.0
H1657 H 0.1286 0.80365 0.75553 0.0
H1658 H 0.08526 0.84734 0.89907 0.0
H1659 H 0.11767 0.84224 0.85681 0.0
C1660 C 0.40161 0.7592 1.01174 0.0
C1661 C 0.39822 0.77301 1.03928 0.0
C1662 C 0.4097 0.7691 0.97964 0.0
C1663 C 0.44249 0.82413 0.93483 0.0
H1664 H 0.42058 0.79415 0.85865 0.0
C1665 C 0.48886 0.85 0.79803 0.0
C1666 C 0.4749 0.849 0.7735 0.0
C1667 C 0.47906 0.84224 0.83088 0.0
C1668 C 0.42684 0.80293 0.87958 0.0
H1669 H 0.40044 0.8083 0.05403 0.0
H1670 H 0.41423 0.82553 0.9981 0.0
H1671 H 0.40356 0.77782 0.91412 0.0
H1672 H 0.43939 0.83971 0.76516 0.0
H1673 H 0.42249 0.82649 0.82197 0.0
H1674 H 0.46578 0.84927 0.90016 0.0
C1675 C 0.41081 0.80696 1.00139 0.0
C1676 C 0.41719 0.79337 0.91154 0.0
C1677 C 0.40255 0.79703 1.03353 0.0
C1678 C 0.45081 0.84075 0.78313 0.0
C1679 C 0.44107 0.83291 0.81583 0.0
C1680 C 0.45229 0.83361 0.90279 0.0
C1681 C 0.41484 0.79319 0.97395 0.0
C1682 C 0.42483 0.80379 0.93975 0.0
C1683 C 0.45504 0.83312 0.84017 0.0
C1684 C 0.4446 0.82318 0.8746 0.0
H1685 H 0.39858 0.74067 1.01505 0.0
H1686 H 0.41271 0.75783 0.9594 0.0
H1687 H 0.4491 0.83257 0.95576 0.0
H1688 H 0.50747 0.85607 0.79166 0.0
H1689 H 0.49048 0.84261 0.84873 0.0
C1690 C 0.44073 0.09515 0.25122 0.0
C1691 C 0.42651 0.09744 0.28144 0.0
C1692 C 0.43332 0.0976 0.22137 0.0
C1693 C 0.38985 0.09347 0.17404 0.0
H1694 H 0.42401 0.15209 0.13132 0.0
C1695 C 0.40087 0.11699 1.03429 0.0
C1696 C 0.39978 0.13951 1.02572 0.0
C1697 C 0.39939 0.11039 0.06739 0.0
C1698 C 0.4141 0.13582 0.14312 0.0
H1699 H 0.39276 0.1025 0.30415 0.0
H1700 H 0.37965 0.10643 0.25135 0.0
H1701 H 0.43003 0.1417 0.18615 0.0
H1702 H 0.39466 0.17224 0.0453 0.0
H1703 H 0.39266 0.16084 0.10292 0.0
H1704 H 0.37456 0.08722 0.13029 0.0
C1705 C 0.39654 0.10285 0.2512 0.0
C1706 C 0.41763 0.12988 0.1743 0.0
C1707 C 0.40404 0.10057 0.28124 0.0
C1708 C 0.39619 0.15495 0.05101 0.0
C1709 C 0.39487 0.14841 0.084 0.0
C1710 C 0.3865 0.09929 0.14249 0.0
C1711 C 0.41145 0.10203 0.2212 0.0
C1712 C 0.40573 0.10862 0.18976 0.0
C1713 C 0.39692 0.12623 0.09241 0.0
C1714 C 0.39878 0.12046 0.12669 0.0
H1715 H 0.45793 0.09223 0.25062 0.0
H1716 H 0.44499 0.09689 0.19833 0.0
H1717 H 0.38064 0.07693 0.18572 0.0
H1718 H 0.40375 0.10474 1.01536 0.0
H1719 H 0.40127 0.09325 0.07325 0.0
C1720 C 0.89958 0.78887 0.47046 0.0
C1721 C 0.89684 0.76539 0.46308 0.0
C1722 C 0.90516 0.79678 0.50115 0.0
C1723 C 0.93196 0.78023 0.57053 0.0
H1724 H 0.90722 0.82825 0.61754 0.0
C1725 C 0.94883 0.80386 0.70328 0.0
C1726 C 0.95144 0.82697 0.71272 0.0
C1727 C 0.94205 0.7969 0.67298 0.0
C1728 C 0.9146 0.81503 0.60463 0.0
H1729 H 0.89621 0.73174 0.48376 0.0
H1730 H 0.90586 0.74536 0.53661 0.0
H1731 H 0.89509 0.81535 0.56541 0.0
H1732 H 0.94864 0.86077 0.69674 0.0
H1733 H 0.93745 0.84882 0.64381 0.0
H1734 H 0.95165 0.77997 0.60935 0.0
C1735 C 0.90429 0.75785 0.5185 0.0
C1736 C 0.90755 0.80757 0.5746 0.0
C1737 C 0.89859 0.74997 0.48804 0.0
C1738 C 0.9471 0.84288 0.69052 0.0
C1739 C 0.94034 0.83591 0.66014 0.0
C1740 C 0.93907 0.78773 0.60043 0.0
C1741 C 0.90819 0.78145 0.52535 0.0
C1742 C 0.91597 0.7899 0.55718 0.0
C1743 C 0.93768 0.81277 0.65078 0.0
C1744 C 0.93041 0.80516 0.61822 0.0
H1745 H 0.89858 0.80135 0.45192 0.0
H1746 H 0.90806 0.81508 0.50533 0.0
H1747 H 0.93931 0.76697 0.55761 0.0
H1748 H 0.95227 0.79102 0.71917 0.0
H1749 H 0.93998 0.77888 0.6672 0.0
C1750 C 0.90358 0.18202 0.43622 0.0
C1751 C 0.90884 0.1679 0.45987 0.0
C1752 C 0.90361 0.17513 0.4036 0.0
C1753 C 0.90545 0.1245 0.35019 0.0
H1754 H 0.94191 0.1706 0.28407 0.0
C1755 C 0.97143 0.10764 0.2433 0.0
C1756 C 0.97653 0.12113 0.21386 0.0
C1757 C 0.95351 0.11031 0.26832 0.0
C1758 C 0.93108 0.15761 0.30191 0.0
H1759 H 0.91813 0.13548 0.46796 0.0
H1760 H 0.91858 0.12364 0.41121 0.0
H1761 H 0.929 0.18226 0.33955 0.0
H1762 H 0.96581 0.14652 0.18608 0.0
H1763 H 0.93459 0.15158 0.23038 0.0
H1764 H 0.90919 0.09965 0.31298 0.0
C1765 C 0.91381 0.13975 0.41788 0.0
C1766 C 0.92371 0.16429 0.33383 0.0
C1767 C 0.91371 0.1466 0.45042 0.0
C1768 C 0.96213 0.13586 0.20859 0.0
C1769 C 0.94438 0.13884 0.23393 0.0
C1770 C 0.91296 0.11781 0.31831 0.0
C1771 C 0.90896 0.154 0.39399 0.0
C1772 C 0.91181 0.14766 0.35874 0.0
C1773 C 0.94059 0.12679 0.26454 0.0
C1774 C 0.92679 0.13417 0.29435 0.0
H1775 H 0.89938 0.19838 0.44295 0.0
H1776 H 0.89965 0.18642 0.38584 0.0
H1777 H 0.89579 0.11136 0.36865 0.0
H1778 H 0.98224 0.09608 0.24784 0.0
H1779 H 0.95117 0.10091 0.29169 0.0
C1780 C 0.62428 0.22099 0.07291 0.0
C1781 C 0.6299 0.20783 0.04538 0.0
C1782 C 0.61647 0.21073 0.10486 0.0
C1783 C 0.61413 0.15907 0.15768 0.0
H1784 H 0.56137 0.17696 0.21026 0.0
C1785 C 0.58148 0.1335 0.29876 0.0
C1786 C 0.55739 0.12788 0.31032 0.0
C1787 C 0.59063 0.14152 0.26585 0.0
C1788 C 0.57603 0.17161 0.19593 0.0
H1789 H 0.63242 0.17332 1.03087 0.0
H1790 H 0.61931 0.15557 0.08662 0.0
H1791 H 0.57722 0.19455 0.15508 0.0
H1792 H 0.52413 0.12589 0.29537 0.0
H1793 H 0.54001 0.13988 0.23842 0.0
H1794 H 0.61296 0.13621 0.19879 0.0
C1795 C 0.62081 0.17392 0.08336 0.0
C1796 C 0.58532 0.18193 0.16428 0.0
C1797 C 0.62838 0.18416 0.05125 0.0
C1798 C 0.54275 0.12987 0.28759 0.0
C1799 C 0.5519 0.13817 0.25485 0.0
C1800 C 0.60503 0.14897 0.1896 0.0
C1801 C 0.61426 0.18696 0.11059 0.0
C1802 C 0.60452 0.17584 0.14457 0.0
C1803 C 0.576 0.1445 0.24355 0.0
C1804 C 0.58576 0.15502 0.20923 0.0
H1805 H 0.62534 0.23921 0.0698 0.0
H1806 H 0.61203 0.2215 0.12515 0.0
H1807 H 0.62896 0.15398 0.14343 0.0
H1808 H 0.59337 0.13236 0.31544 0.0
H1809 H 0.60926 0.14629 0.25827 0.0
C1810 C 0.63411 0.89105 0.79718 0.0
C1811 C 0.61028 0.88934 0.79856 0.0
C1812 C 0.6434 0.89217 0.82631 0.0
C1813 C 0.62919 0.90034 0.91713 0.0
H1814 H 0.67038 0.85948 0.9228 0.0
C1815 C 0.65099 0.87803 0.04237 0.0
C1816 C 0.65026 0.85459 0.04814 0.0
C1817 C 0.65144 0.88653 1.01052 0.0
C1818 C 0.65885 0.87094 0.92166 0.0
H1819 H 0.57781 0.88888 0.83133 0.0
H1820 H 0.59367 0.8898 0.88187 0.0
H1821 H 0.66056 0.86728 0.86954 0.0
H1822 H 0.65051 0.82195 1.02455 0.0
H1823 H 0.64993 0.83639 0.96961 0.0
H1824 H 0.62594 0.90254 0.96956 0.0
C1825 C 0.60536 0.89066 0.85848 0.0
C1826 C 0.6535 0.87571 0.89099 0.0
C1827 C 0.59615 0.88971 0.82947 0.0
C1828 C 0.65058 0.83999 1.02117 0.0
C1829 C 0.65072 0.84841 0.98945 0.0
C1830 C 0.63427 0.89532 0.94784 0.0
C1831 C 0.62903 0.89155 0.85733 0.0
C1832 C 0.63798 0.88985 0.88856 0.0
C1833 C 0.65087 0.87173 0.98377 0.0
C1834 C 0.64856 0.87995 0.95063 0.0
H1835 H 0.64544 0.89078 0.77371 0.0
H1836 H 0.66175 0.89311 0.82455 0.0
H1837 H 0.61759 0.91174 0.916 0.0
H1838 H 0.65061 0.88975 0.06258 0.0
H1839 H 0.65186 0.90464 1.00698 0.0
C1840 C 0.57 0.67903 0.88413 0.0
C1841 C 0.58493 0.66806 0.86279 0.0
C1842 C 0.5749 0.68639 0.91539 0.0
C1843 C 0.61192 0.67894 0.97854 0.0
H1844 H 0.59447 0.73398 1.01443 0.0
C1845 C 0.62238 0.70625 0.1131 0.0
C1846 C 0.62786 0.72989 0.11977 0.0
C1847 C 0.61716 0.69876 0.08209 0.0
C1848 C 0.59973 0.71867 1.00483 0.0
H1849 H 0.61725 0.65696 0.8582 0.0
H1850 H 0.62581 0.6698 0.91194 0.0
H1851 H 0.58578 0.72134 0.96057 0.0
H1852 H 0.63218 0.76408 0.09807 0.0
H1853 H 0.62356 0.75119 0.04428 0.0
H1854 H 0.62647 0.67662 1.0223 0.0
C1855 C 0.60992 0.67227 0.90504 0.0
C1856 C 0.59439 0.71116 0.97386 0.0
C1857 C 0.60497 0.66484 0.8739 0.0
C1858 C 0.62815 0.74576 0.09415 0.0
C1859 C 0.62293 0.73828 0.06315 0.0
C1860 C 0.6173 0.68647 1.00944 0.0
C1861 C 0.59499 0.68318 0.92649 0.0
C1862 C 0.60042 0.69116 0.96002 0.0
C1863 C 0.61722 0.7146 0.05649 0.0
C1864 C 0.61135 0.70651 1.02324 0.0
H1865 H 0.55426 0.68166 0.87692 0.0
H1866 H 0.56266 0.69432 0.93106 0.0
H1867 H 0.61666 0.66329 0.96937 0.0
H1868 H 0.62162 0.69339 0.13212 0.0
H1869 H 0.61253 0.6804 0.07854 0.0
C1870 C 0.57237 0.34348 0.38183 0.0
C1871 C 0.56196 0.36194 0.37808 0.0
C1872 C 0.58965 0.33916 0.35665 0.0
C1873 C 0.62744 0.3629 0.27684 0.0
H1874 H 0.60643 0.30148 0.24604 0.0
C1875 C 0.63455 0.34302 0.13958 0.0
C1876 C 0.63755 0.3213 0.12887 0.0
C1877 C 0.63247 0.34792 0.17312 0.0
C1878 C 0.61301 0.31852 0.2545 0.0
H1879 H 0.56246 0.39145 0.34708 0.0
H1880 H 0.59271 0.38432 0.30367 0.0
H1881 H 0.59139 0.31083 0.30199 0.0
H1882 H 0.642 0.28812 0.1448 0.0
H1883 H 0.63823 0.29665 0.20348 0.0
H1884 H 0.64815 0.37092 0.22866 0.0
C1885 C 0.58777 0.37309 0.32569 0.0
C1886 C 0.60442 0.32387 0.28669 0.0
C1887 C 0.57035 0.37714 0.35045 0.0
C1888 C 0.63925 0.30487 0.15235 0.0
C1889 C 0.63718 0.30977 0.18594 0.0
C1890 C 0.63608 0.35755 0.24465 0.0
C1891 C 0.5969 0.35349 0.32778 0.0
C1892 C 0.61075 0.3464 0.29768 0.0
C1893 C 0.63338 0.33123 0.19678 0.0
C1894 C 0.62816 0.33558 0.23266 0.0
H1895 H 0.56594 0.33142 0.40285 0.0
H1896 H 0.59645 0.32398 0.35893 0.0
H1897 H 0.63287 0.38033 0.28481 0.0
H1898 H 0.63291 0.35596 0.1222 0.0
H1899 H 0.62912 0.36446 0.18064 0.0
C1900 C 0.95619 0.34809 0.27705 0.0
C1901 C 0.97973 0.34956 0.26391 0.0
C1902 C 0.94695 0.34077 0.3102 0.0
C1903 C 0.9576 0.30686 0.38029 0.0
H1904 H 0.91009 0.33281 0.43256 0.0
C1905 C 0.90729 0.26489 0.50779 0.0
C1906 C 0.90309 0.27962 0.53398 0.0
C1907 C 0.91567 0.27361 0.47504 0.0
C1908 C 0.92341 0.32536 0.41848 0.0
H1909 H 0.012 0.34478 0.27646 0.0
H1910 H -0.00403 0.33211 0.33395 0.0
H1911 H 0.92734 0.34842 0.37662 0.0
H1912 H 0.90377 0.31535 0.54518 0.0
H1913 H 0.91794 0.33044 0.48831 0.0
H1914 H 0.9538 0.2839 0.42216 0.0
C1915 C -0.01546 0.33648 0.31851 0.0
C1916 C 0.93321 0.33423 0.38609 0.0
C1917 C -0.00616 0.34405 0.28544 0.0
C1918 C 0.90658 0.30331 0.52591 0.0
C1919 C 0.9148 0.31203 0.49308 0.0
C1920 C 0.94765 0.29786 0.41254 0.0
C1921 C 0.96084 0.33443 0.33141 0.0
C1922 C 0.95053 0.32518 0.36638 0.0
C1923 C 0.91998 0.29741 0.46712 0.0
C1924 C 0.93037 0.30694 0.43229 0.0
H1925 H 0.94463 0.35199 0.26145 0.0
H1926 H 0.92863 0.33931 0.31883 0.0
H1927 H 0.97064 0.29915 0.36602 0.0
H1928 H 0.90472 0.24656 0.51265 0.0
H1929 H 0.91891 0.26162 0.45588 0.0
C1930 C 0.91361 0.59281 0.76887 0.0
C1931 C 0.91185 0.60668 0.79646 0.0
C1932 C 0.90575 0.59805 0.74042 0.0
C1933 C 0.88182 0.60863 0.68538 0.0
H1934 H 0.90591 0.67259 0.65565 0.0
C1935 C 0.90663 0.63717 0.5486 0.0
C1936 C 0.90164 0.65771 0.53839 0.0
C1937 C 0.90253 0.63068 0.58209 0.0
C1938 C 0.89864 0.65477 0.66382 0.0
H1939 H 0.8995 0.6362 0.81673 0.0
H1940 H 0.88552 0.64531 0.76687 0.0
H1941 H 0.90681 0.66101 0.71219 0.0
H1942 H 0.88802 0.68736 0.55522 0.0
H1943 H 0.88123 0.67614 0.61393 0.0
H1944 H 0.87465 0.60227 0.63643 0.0
C1945 C 0.89314 0.63048 0.76723 0.0
C1946 C 0.89909 0.64814 0.69624 0.0
C1947 C 0.90096 0.62518 0.79579 0.0
C1948 C 0.8924 0.67161 0.56238 0.0
C1949 C 0.88838 0.66515 0.59593 0.0
C1950 C 0.88142 0.61526 0.65294 0.0
C1951 C 0.896 0.6173 0.739 0.0
C1952 C 0.89137 0.62487 0.707 0.0
C1953 C 0.89342 0.64462 0.60607 0.0
C1954 C 0.89051 0.63825 0.64159 0.0
H1955 H 0.92174 0.57831 0.76894 0.0
H1956 H 0.90845 0.58771 0.71897 0.0
H1957 H 0.87541 0.59065 0.69321 0.0
H1958 H 0.91409 0.62629 0.53075 0.0
H1959 H 0.90705 0.61501 0.58926 0.0
C1960 C 0.45084 0.34033 0.19026 0.0
C1961 C 0.44985 0.32473 0.21663 0.0
C1962 C 0.44518 0.33255 0.15952 0.0
C1963 C 0.41531 0.2799 0.11866 0.0
H1964 H 0.44679 0.31427 1.03748 0.0
C1965 C 0.40508 0.24321 0.98826 0.0
C1966 C 0.40438 0.2584 0.96228 0.0
C1967 C 0.41016 0.25145 1.019 0.0
C1968 C 0.43757 0.30452 0.05986 0.0
H1969 H 0.44148 0.28823 0.23028 0.0
H1970 H 0.43246 0.27482 0.17706 0.0
H1971 H 0.4566 0.32803 0.09045 0.0
H1972 H 0.40883 0.29452 0.949 0.0
H1973 H 0.4174 0.30884 1.00253 0.0
H1974 H 0.3965 0.25626 0.08796 0.0
C1975 C 0.43731 0.29323 0.18013 0.0
C1976 C 0.44321 0.31248 0.09054 0.0
C1977 C 0.44289 0.301 0.21087 0.0
C1978 C 0.40887 0.28217 0.96831 0.0
C1979 C 0.41409 0.29044 0.99907 0.0
C1980 C 0.40978 0.27189 0.08799 0.0
C1981 C 0.4383 0.30881 0.15375 0.0
C1982 C 0.4322 0.30034 0.12064 0.0
C1983 C 0.4149 0.27524 1.025 0.0
C1984 C 0.42078 0.28403 0.05796 0.0
H1985 H 0.45633 0.35871 0.19309 0.0
H1986 H 0.44598 0.34531 0.14036 0.0
H1987 H 0.40596 0.27012 0.14092 0.0
H1988 H 0.40211 0.22482 0.98472 0.0
H1989 H 0.41093 0.23909 1.03785 0.0
C1990 C 0.41391 0.65927 0.933 0.0
C1991 C 0.41314 0.68053 0.94754 0.0
C1992 C 0.41603 0.65736 0.89879 0.0
C1993 C 0.44051 0.69129 0.82263 0.0
H1994 H 0.41298 0.63473 0.78352 0.0
C1995 C 0.48087 0.66773 0.69423 0.0
C1996 C 0.48718 0.64661 0.69689 0.0
C1997 C 0.46418 0.67367 0.71884 0.0
C1998 C 0.42056 0.65079 0.79393 0.0
H1999 H 0.41309 0.71629 0.93751 0.0
H2000 H 0.41736 0.71301 0.87744 0.0
H2001 H 0.39781 0.64243 0.84051 0.0
H2002 H 0.48036 0.61454 0.7253 0.0
H2003 H 0.45107 0.62454 0.76775 0.0
H2004 H 0.46423 0.69895 0.77684 0.0
C2005 C 0.41633 0.69786 0.89269 0.0
C2006 C 0.41196 0.65514 0.82656 0.0
C2007 C 0.41406 0.69975 0.92704 0.0
C2008 C 0.47553 0.63084 0.72279 0.0
C2009 C 0.45868 0.63657 0.74696 0.0
C2010 C 0.44913 0.68692 0.78998 0.0
C2011 C 0.41754 0.67667 0.87821 0.0
C2012 C 0.42263 0.67486 0.84175 0.0
C2013 C 0.45348 0.65839 0.746 0.0
C2014 C 0.44001 0.66606 0.77593 0.0
H2015 H 0.41364 0.64421 0.94793 0.0
H2016 H 0.41746 0.6409 0.88836 0.0
H2017 H 0.44914 0.70661 0.83366 0.0
H2018 H 0.48993 0.68018 0.67451 0.0
H2019 H 0.46048 0.6906 0.71753 0.0
C2020 C 0.12202 0.71342 0.57605 0.0
C2021 C 0.12327 0.69902 0.54878 0.0
C2022 C 0.113 0.70417 0.60841 0.0
C2023 C 0.07396 0.65227 0.65469 0.0
H2024 H 0.10196 0.67703 0.72933 0.0
C2025 C 0.03036 0.62909 0.79398 0.0
C2026 C 0.04505 0.62658 0.81643 0.0
C2027 C 0.03953 0.63651 0.76075 0.0
C2028 C 0.09392 0.66977 0.70882 0.0
H2029 H 0.11594 0.66329 0.53489 0.0
H2030 H 0.10031 0.64728 0.59101 0.0
H2031 H 0.11916 0.69279 0.67353 0.0
H2032 H 0.08103 0.62916 0.82048 0.0
H2033 H 0.09674 0.64184 0.76322 0.0
H2034 H 0.04865 0.62928 0.69014 0.0
C2035 C 0.10626 0.6658 0.58737 0.0
C2036 C 0.10371 0.67901 0.6767 0.0
C2037 C 0.11553 0.67502 0.55509 0.0
C2038 C 0.06904 0.63086 0.80421 0.0
C2039 C 0.07815 0.6384 0.77125 0.0
C2040 C 0.06398 0.64321 0.68692 0.0
C2041 C 0.10462 0.68021 0.61457 0.0
C2042 C 0.094 0.67035 0.64903 0.0
C2043 C 0.06365 0.64185 0.74909 0.0
C2044 C 0.07389 0.65169 0.71452 0.0
H2045 H 0.12756 0.73198 0.57237 0.0
H2046 H 0.11193 0.71591 0.62852 0.0
H2047 H 0.06576 0.64526 0.63418 0.0
H2048 H 0.01185 0.62629 0.80238 0.0
H2049 H 0.02775 0.63899 0.74456 0.0
C2050 C 0.13112 0.34932 0.28961 0.0
C2051 C 0.10756 0.34999 0.29331 0.0
C2052 C 0.14062 0.34482 0.317 0.0
C2053 C 0.12611 0.31435 0.39537 0.0
H2054 H 0.17233 0.36093 0.42831 0.0
C2055 C 0.15324 0.29942 0.5181 0.0
C2056 C 0.14847 0.31623 0.54069 0.0
C2057 C 0.15502 0.30359 0.48424 0.0
C2058 C 0.1597 0.34768 0.41904 0.0
H2059 H 0.07576 0.34703 0.32895 0.0
H2060 H 0.09221 0.33813 0.37627 0.0
H2061 H 0.16119 0.36761 0.37486 0.0
H2062 H 0.1435 0.35115 0.54543 0.0
H2063 H 0.1468 0.35846 0.48617 0.0
H2064 H 0.12386 0.29471 0.43975 0.0
C2065 C 0.10318 0.34117 0.35212 0.0
C2066 C 0.15342 0.35146 0.38861 0.0
C2067 C 0.09379 0.3461 0.32498 0.0
C2068 C 0.1473 0.33791 0.52862 0.0
C2069 C 0.14925 0.34213 0.49471 0.0
C2070 C 0.13262 0.31041 0.42542 0.0
C2071 C 0.1266 0.34047 0.34827 0.0
C2072 C 0.13607 0.33509 0.37722 0.0
C2073 C 0.15227 0.32469 0.47241 0.0
C2074 C 0.14895 0.32733 0.43797 0.0
H2075 H 0.14215 0.35186 0.26552 0.0
H2076 H 0.15874 0.34426 0.31368 0.0
H2077 H 0.1127 0.30156 0.38684 0.0
H2078 H 0.15481 0.28275 0.52667 0.0
H2079 H 0.15757 0.28998 0.46741 0.0
loop_
_geom_bond_atom_site_label_1
_geom_bond_atom_site_label_2
_geom_bond_distance
_geom_bond_site_symmetry_2
_ccdc_geom_bond_type
Tb0 C2 2.809 . S
Tb0 O20 2.484 . S
Tb0 O21 2.440 . S
Tb0 O22 2.658 . S
Tb0 O23 2.409 . S
Tb0 O24 2.378 . S
Tb0 O28 2.325 . S
Tb0 O31 2.341 . S
Tb1 C11 2.809 . S
Tb1 O22 2.325 . S
Tb1 O25 2.341 . S
Tb1 O26 2.484 . S
Tb1 O27 2.440 . S
Tb1 O28 2.658 . S
Tb1 O29 2.409 . S
Tb1 O30 2.378 . S
C2 Tb0 2.809 . S
C2 C3 1.514 . S
C2 O20 1.248 . S
C2 O21 1.266 . S
C3 C2 1.514 . S
C3 C4 1.359 . S
C3 C8 1.348 . S
C4 C3 1.359 . S
C4 C5 1.380 . S
C4 H32 0.929 . S
C5 C4 1.380 . S
C5 C6 1.347 . S
C5 H33 0.931 . S
C6 C5 1.347 . S
C6 C7 1.369 . S
C7 C6 1.369 . S
C7 C8 1.408 . S
C7 H34 0.930 . S
C8 C3 1.348 . S
C8 C7 1.408 . S
C8 H35 0.930 . S
C9 O22 1.281 . S
C9 O23 1.254 . S
C10 O24 1.236 . S
C10 O25 1.266 . S
C11 Tb1 2.809 . S
C11 C12 1.514 . S
C11 O26 1.248 . S
C11 O27 1.266 . S
C12 C11 1.514 . S
C12 C13 1.359 1_554 S
C12 C17 1.348 1_454 S
C13 C12 1.359 1_556 S
C13 C14 1.380 1_455 S
C13 H36 0.929 . S
C14 C13 1.380 1_655 S
C14 C15 1.347 . S
C14 H37 0.931 . S
C15 C14 1.347 . S
C15 C16 1.369 . S
C16 C15 1.369 . S
C16 C17 1.408 . S
C16 H38 0.930 . S
C17 C12 1.348 1_656 S
C17 C16 1.408 . S
C17 H39 0.930 1_556 S
C18 O28 1.281 . S
C18 O29 1.254 . S
C19 O30 1.236 . S
C19 O31 1.266 . S
O20 Tb0 2.484 . S
O20 C2 1.248 . S
O21 Tb0 2.440 . S
O21 C2 1.266 . S
O22 Tb0 2.658 . S
O22 Tb1 2.325 . S
O22 C9 1.281 . S
O23 Tb0 2.409 . S
O23 C9 1.254 . S
O24 Tb0 2.378 . S
O24 C10 1.236 . S
O25 Tb1 2.341 . S
O25 C10 1.266 . S
O26 Tb1 2.484 . S
O26 C11 1.248 . S
O27 Tb1 2.440 . S
O27 C11 1.266 . S
O28 Tb0 2.325 . S
O28 Tb1 2.658 . S
O28 C18 1.281 . S
O29 Tb1 2.409 . S
O29 C18 1.254 . S
O30 Tb1 2.378 . S
O30 C19 1.236 . S
O31 Tb0 2.341 . S
O31 C19 1.266 . S
H32 C4 0.929 . S
H33 C5 0.931 . S
H34 C7 0.930 . S
H35 C8 0.930 . S
H36 C13 0.929 . S
H37 C14 0.931 . S
H38 C16 0.930 . S
H39 C17 0.930 1_554 S
Tb40 C42 2.809 . S
Tb40 O60 2.484 . S
Tb40 O61 2.440 . S
Tb40 O62 2.658 . S
Tb40 O63 2.409 . S
Tb40 O64 2.378 . S
Tb40 O68 2.325 . S
Tb40 O71 2.341 . S
Tb41 C51 2.809 . S
Tb41 O62 2.325 . S
Tb41 O65 2.341 . S
Tb41 O66 2.484 . S
Tb41 O67 2.440 . S
Tb41 O68 2.658 . S
Tb41 O69 2.409 . S
Tb41 O70 2.378 . S
C42 Tb40 2.809 . S
C42 C43 1.514 . S
C42 O60 1.248 . S
C42 O61 1.266 . S
C43 C42 1.514 . S
C43 C44 1.359 . S
C43 C48 1.348 . S
C44 C43 1.359 . S
C44 C45 1.380 . S
C44 H72 0.929 . S
C45 C44 1.380 . S
C45 C46 1.347 . S
C45 H73 0.931 . S
C46 C45 1.347 . S
C46 C47 1.369 . S
C47 C46 1.369 . S
C47 C48 1.408 . S
C47 H74 0.930 . S
C48 C43 1.348 . S
C48 C47 1.408 . S
C48 H75 0.930 . S
C49 O62 1.281 . S
C49 O63 1.254 . S
C50 O64 1.236 . S
C50 O65 1.266 . S
C51 Tb41 2.809 . S
C51 C52 1.514 . S
C51 O66 1.248 . S
C51 O67 1.266 . S
C52 C51 1.514 . S
C52 C53 1.359 . S
C52 C57 1.348 . S
C53 C52 1.359 . S
C53 C54 1.380 . S
C53 H76 0.929 . S
C54 C53 1.380 . S
C54 C55 1.347 . S
C54 H77 0.931 . S
C55 C54 1.347 . S
C55 C56 1.369 . S
C56 C55 1.369 . S
C56 C57 1.408 . S
C56 H78 0.930 . S
C57 C52 1.348 . S
C57 C56 1.408 . S
C57 H79 0.930 . S
C58 O68 1.281 . S
C58 O69 1.254 . S
C59 O70 1.236 . S
C59 O71 1.266 . S
O60 Tb40 2.484 . S
O60 C42 1.248 . S
O61 Tb40 2.440 . S
O61 C42 1.266 . S
O62 Tb40 2.658 . S
O62 Tb41 2.325 . S
O62 C49 1.281 . S
O63 Tb40 2.409 . S
O63 C49 1.254 . S
O64 Tb40 2.378 . S
O64 C50 1.236 . S
O65 Tb41 2.341 . S
O65 C50 1.266 . S
O66 Tb41 2.484 . S
O66 C51 1.248 . S
O67 Tb41 2.440 . S
O67 C51 1.266 . S
O68 Tb40 2.325 . S
O68 Tb41 2.658 . S
O68 C58 1.281 . S
O69 Tb41 2.409 . S
O69 C58 1.254 . S
O70 Tb41 2.378 . S
O70 C59 1.236 . S
O71 Tb40 2.341 . S
O71 C59 1.266 . S
H72 C44 0.929 . S
H73 C45 0.931 . S
H74 C47 0.930 . S
H75 C48 0.930 . S
H76 C53 0.929 . S
H77 C54 0.931 . S
H78 C56 0.930 . S
H79 C57 0.930 . S
Tb80 C82 2.809 . S
Tb80 O100 2.484 . S
Tb80 O101 2.440 . S
Tb80 O102 2.658 . S
Tb80 O103 2.409 . S
Tb80 O104 2.378 . S
Tb80 O108 2.325 . S
Tb80 O111 2.341 . S
Tb81 C91 2.809 . S
Tb81 O102 2.325 . S
Tb81 O105 2.341 . S
Tb81 O106 2.484 . S
Tb81 O107 2.440 . S
Tb81 O108 2.658 . S
Tb81 O109 2.409 . S
Tb81 O110 2.378 . S
C82 Tb80 2.809 . S
C82 C83 1.514 . S
C82 O100 1.248 . S
C82 O101 1.266 . S
C83 C82 1.514 . S
C83 C84 1.359 . S
C83 C88 1.348 . S
C84 C83 1.359 . S
C84 C85 1.380 . S
C84 H112 0.929 . S
C85 C84 1.380 . S
C85 C86 1.347 . S
C85 H113 0.931 . S
C86 C85 1.347 . S
C86 C87 1.369 . S
C87 C86 1.369 . S
C87 C88 1.408 . S
C87 H114 0.930 . S
C88 C83 1.348 . S
C88 C87 1.408 . S
C88 H115 0.930 . S
C89 O102 1.281 . S
C89 O103 1.254 . S
C90 O104 1.236 . S
C90 O105 1.266 . S
C91 Tb81 2.809 . S
C91 C92 1.514 . S
C91 O106 1.248 . S
C91 O107 1.266 . S
C92 C91 1.514 . S
C92 C93 1.359 . S
C92 C97 1.348 . S
C93 C92 1.359 . S
C93 C94 1.380 . S
C93 H116 0.929 . S
C94 C93 1.380 . S
C94 C95 1.347 . S
C94 H117 0.931 . S
C95 C94 1.347 . S
C95 C96 1.369 . S
C96 C95 1.369 . S
C96 C97 1.408 . S
C96 H118 0.930 . S
C97 C92 1.348 . S
C97 C96 1.408 . S
C97 H119 0.930 . S
C98 O108 1.281 . S
C98 O109 1.254 . S
C99 O110 1.236 . S
C99 O111 1.266 . S
O100 Tb80 2.484 . S
O100 C82 1.248 . S
O101 Tb80 2.440 . S
O101 C82 1.266 . S
O102 Tb80 2.658 . S
O102 Tb81 2.325 . S
O102 C89 1.281 . S
O103 Tb80 2.409 . S
O103 C89 1.254 . S
O104 Tb80 2.378 . S
O104 C90 1.236 . S
O105 Tb81 2.341 . S
O105 C90 1.266 . S
O106 Tb81 2.484 . S
O106 C91 1.248 . S
O107 Tb81 2.440 . S
O107 C91 1.266 . S
O108 Tb80 2.325 . S
O108 Tb81 2.658 . S
O108 C98 1.281 . S
O109 Tb81 2.409 . S
O109 C98 1.254 . S
O110 Tb81 2.378 . S
O110 C99 1.236 . S
O111 Tb80 2.341 . S
O111 C99 1.266 . S
H112 C84 0.929 . S
H113 C85 0.931 . S
H114 C87 0.930 . S
H115 C88 0.930 . S
H116 C93 0.929 . S
H117 C94 0.931 . S
H118 C96 0.930 . S
H119 C97 0.930 . S
Tb120 C122 2.809 . S
Tb120 O140 2.484 . S
Tb120 O141 2.440 . S
Tb120 O142 2.658 . S
Tb120 O143 2.409 . S
Tb120 O144 2.378 . S
Tb120 O148 2.325 . S
Tb120 O151 2.341 . S
Tb121 C131 2.809 . S
Tb121 O142 2.325 . S
Tb121 O145 2.341 . S
Tb121 O146 2.484 . S
Tb121 O147 2.440 . S
Tb121 O148 2.658 . S
Tb121 O149 2.409 . S
Tb121 O150 2.378 . S
C122 Tb120 2.809 . S
C122 C123 1.514 . S
C122 O140 1.248 . S
C122 O141 1.266 . S
C123 C122 1.514 . S
C123 C124 1.359 . S
C123 C128 1.348 . S
C124 C123 1.359 . S
C124 C125 1.371 1_556 S
C124 H152 0.929 . S
C125 C124 1.371 1_554 S
C125 C126 1.350 . S
C125 H153 0.937 . S
C126 C125 1.350 . S
C126 C127 1.381 . S
C127 C126 1.381 . S
C127 C128 1.390 1_554 S
C127 H154 0.937 . S
C128 C123 1.348 . S
C128 C127 1.390 1_556 S
C128 H155 0.930 . S
C129 O142 1.281 . S
C129 O143 1.254 . S
C130 O144 1.236 . S
C130 O145 1.266 . S
C131 Tb121 2.809 . S
C131 C132 1.514 . S
C131 O146 1.248 . S
C131 O147 1.266 . S
C132 C131 1.514 . S
C132 C133 1.359 . S
C132 C137 1.348 . S
C133 C132 1.359 . S
C133 C134 1.380 . S
C133 H156 0.929 . S
C134 C133 1.380 . S
C134 C135 1.347 . S
C134 H157 0.931 . S
C135 C134 1.347 . S
C135 C136 1.369 . S
C136 C135 1.369 . S
C136 C137 1.408 . S
C136 H158 0.930 . S
C137 C132 1.348 . S
C137 C136 1.408 . S
C137 H159 0.930 . S
C138 O148 1.281 . S
C138 O149 1.254 . S
C139 O150 1.236 . S
C139 O151 1.266 . S
O140 Tb120 2.484 . S
O140 C122 1.248 . S
O141 Tb120 2.440 . S
O141 C122 1.266 . S
O142 Tb120 2.658 . S
O142 Tb121 2.325 . S
O142 C129 1.281 . S
O143 Tb120 2.409 . S
O143 C129 1.254 . S
O144 Tb120 2.378 . S
O144 C130 1.236 . S
O145 Tb121 2.341 . S
O145 C130 1.266 . S
O146 Tb121 2.484 . S
O146 C131 1.248 . S
O147 Tb121 2.440 . S
O147 C131 1.266 . S
O148 Tb120 2.325 . S
O148 Tb121 2.658 . S
O148 C138 1.281 . S
O149 Tb121 2.409 . S
O149 C138 1.254 . S
O150 Tb121 2.378 . S
O150 C139 1.236 . S
O151 Tb120 2.341 . S
O151 C139 1.266 . S
H152 C124 0.929 . S
H153 C125 0.937 . S
H154 C127 0.937 . S
H155 C128 0.930 . S
H156 C133 0.929 . S
H157 C134 0.931 . S
H158 C136 0.930 . S
H159 C137 0.930 . S
Tb160 C162 2.809 . S
Tb160 O180 2.484 . S
Tb160 O181 2.440 . S
Tb160 O182 2.658 . S
Tb160 O183 2.409 . S
Tb160 O184 2.378 . S
Tb160 O188 2.325 . S
Tb160 O191 2.341 . S
Tb161 C171 2.809 . S
Tb161 O182 2.325 1_655 S
Tb161 O185 2.341 . S
Tb161 O186 2.484 . S
Tb161 O187 2.440 . S
Tb161 O188 2.658 1_655 S
Tb161 O189 2.409 . S
Tb161 O190 2.378 1_655 S
C162 Tb160 2.809 . S
C162 C163 1.514 . S
C162 O180 1.248 . S
C162 O181 1.266 . S
C163 C162 1.514 . S
C163 C164 1.359 1_556 S
C163 C168 1.348 1_556 S
C164 C163 1.359 1_554 S
C164 C165 1.380 . S
C164 H192 0.929 . S
C165 C164 1.380 . S
C165 C166 1.347 . S
C165 H193 0.931 . S
C166 C165 1.347 . S
C166 C167 1.369 . S
C167 C166 1.369 . S
C167 C168 1.408 . S
C167 H194 0.930 . S
C168 C163 1.348 1_554 S
C168 C167 1.408 . S
C168 H195 0.930 1_554 S
C169 O182 1.281 . S
C169 O183 1.254 . S
C170 O184 1.236 1_655 S
C170 O185 1.266 . S
C171 Tb161 2.809 . S
C171 C172 1.514 . S
C171 O186 1.248 . S
C171 O187 1.266 . S
C172 C171 1.514 . S
C172 C173 1.359 . S
C172 C177 1.348 . S
C173 C172 1.359 . S
C173 C174 1.380 . S
C173 H196 0.929 . S
C174 C173 1.380 . S
C174 C175 1.347 . S
C174 H197 0.931 . S
C175 C174 1.347 . S
C175 C176 1.369 . S
C176 C175 1.369 . S
C176 C177 1.408 . S
C176 H198 0.930 . S
C177 C172 1.348 . S
C177 C176 1.408 . S
C177 H199 0.930 . S
C178 O188 1.281 . S
C178 O189 1.254 1_455 S
C179 O190 1.236 . S
C179 O191 1.266 . S
O180 Tb160 2.484 . S
O180 C162 1.248 . S
O181 Tb160 2.440 . S
O181 C162 1.266 . S
O182 Tb160 2.658 . S
O182 Tb161 2.325 1_455 S
O182 C169 1.281 . S
O183 Tb160 2.409 . S
O183 C169 1.254 . S
O184 Tb160 2.378 . S
O184 C170 1.236 1_455 S
O185 Tb161 2.341 . S
O185 C170 1.266 . S
O186 Tb161 2.484 . S
O186 C171 1.248 . S
O187 Tb161 2.440 . S
O187 C171 1.266 . S
O188 Tb160 2.325 . S
O188 Tb161 2.658 1_455 S
O188 C178 1.281 . S
O189 Tb161 2.409 . S
O189 C178 1.254 1_655 S
O190 Tb161 2.378 1_455 S
O190 C179 1.236 . S
O191 Tb160 2.341 . S
O191 C179 1.266 . S
H192 C164 0.929 . S
H193 C165 0.931 . S
H194 C167 0.930 . S
H195 C168 0.930 1_556 S
H196 C173 0.929 . S
H197 C174 0.931 . S
H198 C176 0.930 . S
H199 C177 0.930 . S
Tb200 C202 2.809 . S
Tb200 O220 2.484 . S
Tb200 O221 2.440 . S
Tb200 O222 2.658 . S
Tb200 O223 2.409 . S
Tb200 O224 2.378 . S
Tb200 O228 2.325 . S
Tb200 O231 2.341 . S
Tb201 C211 2.809 . S
Tb201 O222 2.325 . S
Tb201 O225 2.341 . S
Tb201 O226 2.484 . S
Tb201 O227 2.440 . S
Tb201 O228 2.658 . S
Tb201 O229 2.409 . S
Tb201 O230 2.378 . S
C202 Tb200 2.809 . S
C202 C203 1.514 . S
C202 O220 1.248 . S
C202 O221 1.266 . S
C203 C202 1.514 . S
C203 C204 1.359 . S
C203 C208 1.348 . S
C204 C203 1.359 . S
C204 C205 1.380 . S
C204 H232 0.929 . S
C205 C204 1.380 . S
C205 C206 1.347 . S
C205 H233 0.931 . S
C206 C205 1.347 . S
C206 C207 1.369 . S
C207 C206 1.369 . S
C207 C208 1.408 . S
C207 H234 0.930 . S
C208 C203 1.348 . S
C208 C207 1.408 . S
C208 H235 0.930 . S
C209 O222 1.281 . S
C209 O223 1.254 . S
C210 O224 1.236 . S
C210 O225 1.266 . S
C211 Tb201 2.809 . S
C211 C212 1.514 1_554 S
C211 O226 1.248 . S
C211 O227 1.266 . S
C212 C211 1.514 1_556 S
C212 C213 1.359 . S
C212 C217 1.348 . S
C213 C212 1.359 . S
C213 C214 1.380 . S
C213 H236 0.929 . S
C214 C213 1.380 . S
C214 C215 1.347 . S
C214 H237 0.931 . S
C215 C214 1.347 . S
C215 C216 1.369 . S
C216 C215 1.369 . S
C216 C217 1.408 . S
C216 H238 0.930 . S
C217 C212 1.348 . S
C217 C216 1.408 . S
C217 H239 0.929 1_556 S
C218 O228 1.281 . S
C218 O229 1.254 . S
C219 O230 1.236 . S
C219 O231 1.266 . S
O220 Tb200 2.484 . S
O220 C202 1.248 . S
O221 Tb200 2.440 . S
O221 C202 1.266 . S
O222 Tb200 2.658 . S
O222 Tb201 2.325 . S
O222 C209 1.281 . S
O223 Tb200 2.409 . S
O223 C209 1.254 . S
O224 Tb200 2.378 . S
O224 C210 1.236 . S
O225 Tb201 2.341 . S
O225 C210 1.266 . S
O226 Tb201 2.484 . S
O226 C211 1.248 . S
O227 Tb201 2.440 . S
O227 C211 1.266 . S
O228 Tb200 2.325 . S
O228 Tb201 2.658 . S
O228 C218 1.281 . S
O229 Tb201 2.409 . S
O229 C218 1.254 . S
O230 Tb201 2.378 . S
O230 C219 1.236 . S
O231 Tb200 2.341 . S
O231 C219 1.266 . S
H232 C204 0.929 . S
H233 C205 0.931 . S
H234 C207 0.930 . S
H235 C208 0.930 . S
H236 C213 0.929 . S
H237 C214 0.931 . S
H238 C216 0.930 . S
H239 C217 0.929 1_554 S
Tb240 C242 2.809 . S
Tb240 O260 2.484 . S
Tb240 O261 2.440 . S
Tb240 O262 2.658 . S
Tb240 O263 2.409 . S
Tb240 O264 2.378 . S
Tb240 O268 2.325 . S
Tb240 O271 2.341 . S
Tb241 C251 2.809 . S
Tb241 O262 2.325 . S
Tb241 O265 2.341 . S
Tb241 O266 2.484 . S
Tb241 O267 2.440 . S
Tb241 O268 2.658 . S
Tb241 O269 2.409 . S
Tb241 O270 2.378 . S
C242 Tb240 2.809 . S
C242 C243 1.514 . S
C242 O260 1.248 . S
C242 O261 1.266 . S
C243 C242 1.514 . S
C243 C244 1.359 . S
C243 C248 1.348 . S
C244 C243 1.359 . S
C244 C245 1.380 . S
C244 H272 0.929 . S
C245 C244 1.380 . S
C245 C246 1.347 . S
C245 H273 0.931 . S
C246 C245 1.347 . S
C246 C247 1.369 . S
C247 C246 1.369 . S
C247 C248 1.408 . S
C247 H274 0.930 . S
C248 C243 1.348 . S
C248 C247 1.408 . S
C248 H275 0.930 . S
C249 O262 1.281 . S
C249 O263 1.254 . S
C250 O264 1.236 . S
C250 O265 1.266 . S
C251 Tb241 2.809 . S
C251 C252 1.514 . S
C251 O266 1.248 . S
C251 O267 1.266 . S
C252 C251 1.514 . S
C252 C253 1.359 . S
C252 C257 1.348 . S
C253 C252 1.359 . S
C253 C254 1.380 . S
C253 H276 0.929 . S
C254 C253 1.380 . S
C254 C255 1.347 . S
C254 H277 0.931 . S
C255 C254 1.347 . S
C255 C256 1.369 . S
C256 C255 1.369 . S
C256 C257 1.408 . S
C256 H278 0.930 . S
C257 C252 1.348 . S
C257 C256 1.408 . S
C257 H279 0.930 . S
C258 O268 1.281 . S
C258 O269 1.254 . S
C259 O270 1.236 . S
C259 O271 1.266 . S
O260 Tb240 2.484 . S
O260 C242 1.248 . S
O261 Tb240 2.440 . S
O261 C242 1.266 . S
O262 Tb240 2.658 . S
O262 Tb241 2.325 . S
O262 C249 1.281 . S
O263 Tb240 2.409 . S
O263 C249 1.254 . S
O264 Tb240 2.378 . S
O264 C250 1.236 . S
O265 Tb241 2.341 . S
O265 C250 1.266 . S
O266 Tb241 2.484 . S
O266 C251 1.248 . S
O267 Tb241 2.440 . S
O267 C251 1.266 . S
O268 Tb240 2.325 . S
O268 Tb241 2.658 . S
O268 C258 1.281 . S
O269 Tb241 2.409 . S
O269 C258 1.254 . S
O270 Tb241 2.378 . S
O270 C259 1.236 . S
O271 Tb240 2.341 . S
O271 C259 1.266 . S
H272 C244 0.929 . S
H273 C245 0.931 . S
H274 C247 0.930 . S
H275 C248 0.930 . S
H276 C253 0.929 . S
H277 C254 0.931 . S
H278 C256 0.930 . S
H279 C257 0.930 . S
Tb280 C282 2.809 . S
Tb280 O300 2.484 . S
Tb280 O301 2.440 . S
Tb280 O302 2.658 . S
Tb280 O303 2.409 . S
Tb280 O304 2.378 . S
Tb280 O308 2.325 . S
Tb280 O311 2.341 . S
Tb281 C291 2.809 . S
Tb281 O302 2.325 . S
Tb281 O305 2.341 . S
Tb281 O306 2.484 . S
Tb281 O307 2.440 . S
Tb281 O308 2.658 . S
Tb281 O309 2.409 . S
Tb281 O310 2.378 . S
C282 Tb280 2.809 . S
C282 C283 1.514 . S
C282 O300 1.248 . S
C282 O301 1.266 . S
C283 C282 1.514 . S
C283 C284 1.359 . S
C283 C288 1.348 . S
C284 C283 1.359 . S
C284 C285 1.380 . S
C284 H312 0.929 . S
C285 C284 1.380 . S
C285 C286 1.347 . S
C285 H313 0.931 . S
C286 C285 1.347 . S
C286 C287 1.369 . S
C287 C286 1.369 . S
C287 C288 1.408 . S
C287 H314 0.930 . S
C288 C283 1.348 . S
C288 C287 1.408 . S
C288 H315 0.930 . S
C289 O302 1.281 . S
C289 O303 1.254 . S
C290 O304 1.236 . S
C290 O305 1.266 . S
C291 Tb281 2.809 . S
C291 C292 1.514 . S
C291 O306 1.248 . S
C291 O307 1.266 . S
C292 C291 1.514 . S
C292 C293 1.359 . S
C292 C297 1.348 . S
C293 C292 1.359 . S
C293 C294 1.380 . S
C293 H316 0.929 . S
C294 C293 1.380 . S
C294 C295 1.347 . S
C294 H317 0.931 . S
C295 C294 1.347 . S
C295 C296 1.369 . S
C296 C295 1.369 . S
C296 C297 1.408 . S
C296 H318 0.930 . S
C297 C292 1.348 . S
C297 C296 1.408 . S
C297 H319 0.930 . S
C298 O308 1.281 . S
C298 O309 1.254 . S
C299 O310 1.236 . S
C299 O311 1.266 . S
O300 Tb280 2.484 . S
O300 C282 1.248 . S
O301 Tb280 2.440 . S
O301 C282 1.266 . S
O302 Tb280 2.658 . S
O302 Tb281 2.325 . S
O302 C289 1.281 . S
O303 Tb280 2.409 . S
O303 C289 1.254 . S
O304 Tb280 2.378 . S
O304 C290 1.236 . S
O305 Tb281 2.341 . S
O305 C290 1.266 . S
O306 Tb281 2.484 . S
O306 C291 1.248 . S
O307 Tb281 2.440 . S
O307 C291 1.266 . S
O308 Tb280 2.325 . S
O308 Tb281 2.658 . S
O308 C298 1.281 . S
O309 Tb281 2.409 . S
O309 C298 1.254 . S
O310 Tb281 2.378 . S
O310 C299 1.236 . S
O311 Tb280 2.341 . S
O311 C299 1.266 . S
H312 C284 0.929 . S
H313 C285 0.931 . S
H314 C287 0.930 . S
H315 C288 0.930 . S
H316 C293 0.929 . S
H317 C294 0.931 . S
H318 C296 0.930 . S
H319 C297 0.930 . S
Tb320 C322 2.809 . S
Tb320 O340 2.484 . S
Tb320 O341 2.440 . S
Tb320 O342 2.658 . S
Tb320 O343 2.409 . S
Tb320 O344 2.378 . S
Tb320 O348 2.325 . S
Tb320 O351 2.341 . S
Tb321 C331 2.809 . S
Tb321 O342 2.325 . S
Tb321 O345 2.341 . S
Tb321 O346 2.484 . S
Tb321 O347 2.440 . S
Tb321 O348 2.658 . S
Tb321 O349 2.409 . S
Tb321 O350 2.378 . S
C322 Tb320 2.809 . S
C322 C323 1.514 . S
C322 O340 1.248 . S
C322 O341 1.266 . S
C323 C322 1.514 . S
C323 C324 1.359 . S
C323 C328 1.348 . S
C324 C323 1.359 . S
C324 C325 1.380 . S
C324 H352 0.929 . S
C325 C324 1.380 . S
C325 C326 1.347 . S
C325 H353 0.931 . S
C326 C325 1.347 . S
C326 C327 1.369 . S
C327 C326 1.369 . S
C327 C328 1.408 . S
C327 H354 0.930 . S
C328 C323 1.348 . S
C328 C327 1.408 . S
C328 H355 0.930 . S
C329 O342 1.281 . S
C329 O343 1.254 . S
C330 O344 1.236 . S
C330 O345 1.266 . S
C331 Tb321 2.809 . S
C331 C332 1.514 . S
C331 O346 1.248 . S
C331 O347 1.266 . S
C332 C331 1.514 . S
C332 C333 1.359 . S
C332 C337 1.348 . S
C333 C332 1.359 . S
C333 C334 1.380 . S
C333 H356 0.929 . S
C334 C333 1.380 . S
C334 C335 1.347 . S
C334 H357 0.931 . S
C335 C334 1.347 . S
C335 C336 1.369 . S
C336 C335 1.369 . S
C336 C337 1.408 . S
C336 H358 0.930 . S
C337 C332 1.348 . S
C337 C336 1.408 . S
C337 H359 0.930 . S
C338 O348 1.281 . S
C338 O349 1.254 . S
C339 O350 1.236 . S
C339 O351 1.266 . S
O340 Tb320 2.484 . S
O340 C322 1.248 . S
O341 Tb320 2.440 . S
O341 C322 1.266 . S
O342 Tb320 2.658 . S
O342 Tb321 2.325 . S
O342 C329 1.281 . S
O343 Tb320 2.409 . S
O343 C329 1.254 . S
O344 Tb320 2.378 . S
O344 C330 1.236 . S
O345 Tb321 2.341 . S
O345 C330 1.266 . S
O346 Tb321 2.484 . S
O346 C331 1.248 . S
O347 Tb321 2.440 . S
O347 C331 1.266 . S
O348 Tb320 2.325 . S
O348 Tb321 2.658 . S
O348 C338 1.281 . S
O349 Tb321 2.409 . S
O349 C338 1.254 . S
O350 Tb321 2.378 . S
O350 C339 1.236 . S
O351 Tb320 2.341 . S
O351 C339 1.266 . S
H352 C324 0.929 . S
H353 C325 0.931 . S
H354 C327 0.930 . S
H355 C328 0.930 . S
H356 C333 0.929 . S
H357 C334 0.931 . S
H358 C336 0.930 . S
H359 C337 0.930 . S
Tb360 C362 2.809 . S
Tb360 O380 2.484 . S
Tb360 O381 2.440 . S
Tb360 O382 2.658 . S
Tb360 O383 2.409 . S
Tb360 O384 2.378 . S
Tb360 O388 2.325 . S
Tb360 O391 2.341 . S
Tb361 C371 2.809 . S
Tb361 O382 2.325 . S
Tb361 O385 2.341 . S
Tb361 O386 2.484 . S
Tb361 O387 2.440 . S
Tb361 O388 2.658 . S
Tb361 O389 2.409 . S
Tb361 O390 2.378 . S
C362 Tb360 2.809 . S
C362 C363 1.514 . S
C362 O380 1.248 . S
C362 O381 1.266 . S
C363 C362 1.514 . S
C363 C364 1.359 . S
C363 C368 1.348 . S
C364 C363 1.359 . S
C364 C365 1.380 . S
C364 H392 0.929 . S
C365 C364 1.380 . S
C365 C366 1.347 . S
C365 H393 0.931 . S
C366 C365 1.347 . S
C366 C367 1.369 . S
C367 C366 1.369 . S
C367 C368 1.408 . S
C367 H394 0.930 . S
C368 C363 1.348 . S
C368 C367 1.408 . S
C368 H395 0.930 . S
C369 O382 1.281 . S
C369 O383 1.254 . S
C370 O384 1.236 . S
C370 O385 1.266 . S
C371 Tb361 2.809 . S
C371 C372 1.514 . S
C371 O386 1.248 . S
C371 O387 1.266 . S
C372 C371 1.514 . S
C372 C373 1.359 . S
C372 C377 1.348 . S
C373 C372 1.359 . S
C373 C374 1.371 1_554 S
C373 H396 0.929 . S
C374 C373 1.371 1_556 S
C374 C375 1.350 . S
C374 H397 0.937 . S
C375 C374 1.350 . S
C375 C376 1.381 . S
C376 C375 1.381 . S
C376 C377 1.390 1_556 S
C376 H398 0.937 . S
C377 C372 1.348 . S
C377 C376 1.390 1_554 S
C377 H399 0.930 . S
C378 O388 1.281 . S
C378 O389 1.254 . S
C379 O390 1.236 . S
C379 O391 1.266 . S
O380 Tb360 2.484 . S
O380 C362 1.248 . S
O381 Tb360 2.440 . S
O381 C362 1.266 . S
O382 Tb360 2.658 . S
O382 Tb361 2.325 . S
O382 C369 1.281 . S
O383 Tb360 2.409 . S
O383 C369 1.254 . S
O384 Tb360 2.378 . S
O384 C370 1.236 . S
O385 Tb361 2.341 . S
O385 C370 1.266 . S
O386 Tb361 2.484 . S
O386 C371 1.248 . S
O387 Tb361 2.440 . S
O387 C371 1.266 . S
O388 Tb360 2.325 . S
O388 Tb361 2.658 . S
O388 C378 1.281 . S
O389 Tb361 2.409 . S
O389 C378 1.254 . S
O390 Tb361 2.378 . S
O390 C379 1.236 . S
O391 Tb360 2.341 . S
O391 C379 1.266 . S
H392 C364 0.929 . S
H393 C365 0.931 . S
H394 C367 0.930 . S
H395 C368 0.930 . S
H396 C373 0.929 . S
H397 C374 0.937 . S
H398 C376 0.937 . S
H399 C377 0.930 . S
Tb400 C402 2.809 . S
Tb400 O420 2.484 . S
Tb400 O421 2.440 . S
Tb400 O422 2.658 . S
Tb400 O423 2.409 . S
Tb400 O424 2.378 . S
Tb400 O428 2.325 . S
Tb400 O431 2.341 . S
Tb401 C411 2.809 . S
Tb401 O422 2.325 . S
Tb401 O425 2.341 . S
Tb401 O426 2.484 . S
Tb401 O427 2.440 . S
Tb401 O428 2.658 . S
Tb401 O429 2.409 . S
Tb401 O430 2.378 . S
C402 Tb400 2.809 . S
C402 C403 1.514 1_556 S
C402 O420 1.248 . S
C402 O421 1.266 . S
C403 C402 1.514 1_554 S
C403 C404 1.359 . S
C403 C408 1.348 . S
C404 C403 1.359 . S
C404 C405 1.380 . S
C404 H432 0.929 . S
C405 C404 1.380 . S
C405 C406 1.347 . S
C405 H433 0.931 . S
C406 C405 1.347 . S
C406 C407 1.369 . S
C407 C406 1.369 . S
C407 C408 1.408 . S
C407 H434 0.930 . S
C408 C403 1.348 . S
C408 C407 1.408 . S
C408 H435 0.929 1_554 S
C409 O422 1.281 . S
C409 O423 1.254 . S
C410 O424 1.236 . S
C410 O425 1.266 . S
C411 Tb401 2.809 . S
C411 C412 1.514 . S
C411 O426 1.248 . S
C411 O427 1.266 . S
C412 C411 1.514 . S
C412 C413 1.359 . S
C412 C417 1.348 . S
C413 C412 1.359 . S
C413 C414 1.380 . S
C413 H436 0.929 . S
C414 C413 1.380 . S
C414 C415 1.347 . S
C414 H437 0.931 . S
C415 C414 1.347 . S
C415 C416 1.369 . S
C416 C415 1.369 . S
C416 C417 1.408 . S
C416 H438 0.930 . S
C417 C412 1.348 . S
C417 C416 1.408 . S
C417 H439 0.930 . S
C418 O428 1.281 . S
C418 O429 1.254 . S
C419 O430 1.236 . S
C419 O431 1.266 . S
O420 Tb400 2.484 . S
O420 C402 1.248 . S
O421 Tb400 2.440 . S
O421 C402 1.266 . S
O422 Tb400 2.658 . S
O422 Tb401 2.325 . S
O422 C409 1.281 . S
O423 Tb400 2.409 . S
O423 C409 1.254 . S
O424 Tb400 2.378 . S
O424 C410 1.236 . S
O425 Tb401 2.341 . S
O425 C410 1.266 . S
O426 Tb401 2.484 . S
O426 C411 1.248 . S
O427 Tb401 2.440 . S
O427 C411 1.266 . S
O428 Tb400 2.325 . S
O428 Tb401 2.658 . S
O428 C418 1.281 . S
O429 Tb401 2.409 . S
O429 C418 1.254 . S
O430 Tb401 2.378 . S
O430 C419 1.236 . S
O431 Tb400 2.341 . S
O431 C419 1.266 . S
H432 C404 0.929 . S
H433 C405 0.931 . S
H434 C407 0.930 . S
H435 C408 0.929 1_556 S
H436 C413 0.929 . S
H437 C414 0.931 . S
H438 C416 0.930 . S
H439 C417 0.930 . S
Tb440 C442 2.809 . S
Tb440 O460 2.484 . S
Tb440 O461 2.440 . S
Tb440 O462 2.658 . S
Tb440 O463 2.409 . S
Tb440 O464 2.378 . S
Tb440 O468 2.325 . S
Tb440 O471 2.341 . S
Tb441 C451 2.809 . S
Tb441 O462 2.325 . S
Tb441 O465 2.341 . S
Tb441 O466 2.484 . S
Tb441 O467 2.440 . S
Tb441 O468 2.658 . S
Tb441 O469 2.409 . S
Tb441 O470 2.378 . S
C442 Tb440 2.809 . S
C442 C443 1.514 . S
C442 O460 1.248 . S
C442 O461 1.266 . S
C443 C442 1.514 . S
C443 C444 1.359 . S
C443 C448 1.348 . S
C444 C443 1.359 . S
C444 C445 1.380 . S
C444 H472 0.929 . S
C445 C444 1.380 . S
C445 C446 1.347 . S
C445 H473 0.931 . S
C446 C445 1.347 . S
C446 C447 1.369 . S
C447 C446 1.369 . S
C447 C448 1.408 . S
C447 H474 0.930 . S
C448 C443 1.348 . S
C448 C447 1.408 . S
C448 H475 0.930 . S
C449 O462 1.281 . S
C449 O463 1.254 . S
C450 O464 1.236 . S
C450 O465 1.266 . S
C451 Tb441 2.809 . S
C451 C452 1.514 . S
C451 O466 1.248 . S
C451 O467 1.266 . S
C452 C451 1.514 . S
C452 C453 1.359 . S
C452 C457 1.348 . S
C453 C452 1.359 . S
C453 C454 1.380 . S
C453 H476 0.929 . S
C454 C453 1.380 . S
C454 C455 1.347 . S
C454 H477 0.931 . S
C455 C454 1.347 . S
C455 C456 1.369 . S
C456 C455 1.369 . S
C456 C457 1.408 . S
C456 H478 0.930 . S
C457 C452 1.348 . S
C457 C456 1.408 . S
C457 H479 0.930 . S
C458 O468 1.281 . S
C458 O469 1.254 . S
C459 O470 1.236 . S
C459 O471 1.266 . S
O460 Tb440 2.484 . S
O460 C442 1.248 . S
O461 Tb440 2.440 . S
O461 C442 1.266 . S
O462 Tb440 2.658 . S
O462 Tb441 2.325 . S
O462 C449 1.281 . S
O463 Tb440 2.409 . S
O463 C449 1.254 . S
O464 Tb440 2.378 . S
O464 C450 1.236 . S
O465 Tb441 2.341 . S
O465 C450 1.266 . S
O466 Tb441 2.484 . S
O466 C451 1.248 . S
O467 Tb441 2.440 . S
O467 C451 1.266 . S
O468 Tb440 2.325 . S
O468 Tb441 2.658 . S
O468 C458 1.281 . S
O469 Tb441 2.409 . S
O469 C458 1.254 . S
O470 Tb441 2.378 . S
O470 C459 1.236 . S
O471 Tb440 2.341 . S
O471 C459 1.266 . S
H472 C444 0.929 . S
H473 C445 0.931 . S
H474 C447 0.930 . S
H475 C448 0.930 . S
H476 C453 0.929 . S
H477 C454 0.931 . S
H478 C456 0.930 . S
H479 C457 0.930 . S
Tb480 C482 2.809 . S
Tb480 O500 2.484 . S
Tb480 O501 2.440 . S
Tb480 O502 2.658 . S
Tb480 O503 2.409 . S
Tb480 O504 2.378 . S
Tb480 O508 2.325 . S
Tb480 O511 2.341 . S
Tb481 C491 2.809 . S
Tb481 O502 2.325 . S
Tb481 O505 2.341 . S
Tb481 O506 2.484 . S
Tb481 O507 2.440 . S
Tb481 O508 2.658 . S
Tb481 O509 2.409 . S
Tb481 O510 2.378 . S
C482 Tb480 2.809 . S
C482 C483 1.514 . S
C482 O500 1.248 . S
C482 O501 1.266 . S
C483 C482 1.514 . S
C483 C484 1.359 . S
C483 C488 1.348 . S
C484 C483 1.359 . S
C484 C485 1.380 . S
C484 H512 0.929 . S
C485 C484 1.380 . S
C485 C486 1.347 . S
C485 H513 0.931 . S
C486 C485 1.347 . S
C486 C487 1.369 . S
C487 C486 1.369 . S
C487 C488 1.408 . S
C487 H514 0.930 . S
C488 C483 1.348 . S
C488 C487 1.408 . S
C488 H515 0.930 . S
C489 O502 1.281 . S
C489 O503 1.254 . S
C490 O504 1.236 . S
C490 O505 1.266 . S
C491 Tb481 2.809 . S
C491 C492 1.514 . S
C491 O506 1.248 . S
C491 O507 1.266 . S
C492 C491 1.514 . S
C492 C493 1.359 . S
C492 C497 1.348 . S
C493 C492 1.359 . S
C493 C494 1.380 . S
C493 H516 0.929 . S
C494 C493 1.380 . S
C494 C495 1.347 . S
C494 H517 0.931 . S
C495 C494 1.347 . S
C495 C496 1.369 . S
C496 C495 1.369 . S
C496 C497 1.408 . S
C496 H518 0.930 . S
C497 C492 1.348 . S
C497 C496 1.408 . S
C497 H519 0.930 . S
C498 O508 1.281 . S
C498 O509 1.254 . S
C499 O510 1.236 . S
C499 O511 1.266 . S
O500 Tb480 2.484 . S
O500 C482 1.248 . S
O501 Tb480 2.440 . S
O501 C482 1.266 . S
O502 Tb480 2.658 . S
O502 Tb481 2.325 . S
O502 C489 1.281 . S
O503 Tb480 2.409 . S
O503 C489 1.254 . S
O504 Tb480 2.378 . S
O504 C490 1.236 . S
O505 Tb481 2.341 . S
O505 C490 1.266 . S
O506 Tb481 2.484 . S
O506 C491 1.248 . S
O507 Tb481 2.440 . S
O507 C491 1.266 . S
O508 Tb480 2.325 . S
O508 Tb481 2.658 . S
O508 C498 1.281 . S
O509 Tb481 2.409 . S
O509 C498 1.254 . S
O510 Tb481 2.378 . S
O510 C499 1.236 . S
O511 Tb480 2.341 . S
O511 C499 1.266 . S
H512 C484 0.929 . S
H513 C485 0.931 . S
H514 C487 0.930 . S
H515 C488 0.930 . S
H516 C493 0.929 . S
H517 C494 0.931 . S
H518 C496 0.930 . S
H519 C497 0.930 . S
Tb520 C522 2.809 . S
Tb520 O540 2.484 . S
Tb520 O541 2.440 . S
Tb520 O542 2.658 . S
Tb520 O543 2.409 . S
Tb520 O544 2.378 . S
Tb520 O548 2.325 . S
Tb520 O551 2.341 . S
Tb521 C531 2.809 . S
Tb521 O542 2.325 . S
Tb521 O545 2.341 . S
Tb521 O546 2.484 . S
Tb521 O547 2.440 . S
Tb521 O548 2.658 . S
Tb521 O549 2.409 . S
Tb521 O550 2.378 . S
C522 Tb520 2.809 . S
C522 C523 1.514 . S
C522 O540 1.248 . S
C522 O541 1.266 . S
C523 C522 1.514 . S
C523 C524 1.359 1_554 S
C523 C528 1.348 1_454 S
C524 C523 1.359 1_556 S
C524 C525 1.380 1_455 S
C524 H552 0.929 . S
C525 C524 1.380 1_655 S
C525 C526 1.347 . S
C525 H553 0.931 . S
C526 C525 1.347 . S
C526 C527 1.369 . S
C527 C526 1.369 . S
C527 C528 1.408 . S
C527 H554 0.930 . S
C528 C523 1.348 1_656 S
C528 C527 1.408 . S
C528 H555 0.930 1_556 S
C529 O542 1.281 . S
C529 O543 1.254 . S
C530 O544 1.236 . S
C530 O545 1.266 . S
C531 Tb521 2.809 . S
C531 C532 1.514 . S
C531 O546 1.248 . S
C531 O547 1.266 . S
C532 C531 1.514 . S
C532 C533 1.359 . S
C532 C537 1.348 . S
C533 C532 1.359 . S
C533 C534 1.380 . S
C533 H556 0.929 . S
C534 C533 1.380 . S
C534 C535 1.347 . S
C534 H557 0.931 . S
C535 C534 1.347 . S
C535 C536 1.369 . S
C536 C535 1.369 . S
C536 C537 1.408 . S
C536 H558 0.930 . S
C537 C532 1.348 . S
C537 C536 1.408 . S
C537 H559 0.930 . S
C538 O548 1.281 . S
C538 O549 1.254 . S
C539 O550 1.236 . S
C539 O551 1.266 . S
O540 Tb520 2.484 . S
O540 C522 1.248 . S
O541 Tb520 2.440 . S
O541 C522 1.266 . S
O542 Tb520 2.658 . S
O542 Tb521 2.325 . S
O542 C529 1.281 . S
O543 Tb520 2.409 . S
O543 C529 1.254 . S
O544 Tb520 2.378 . S
O544 C530 1.236 . S
O545 Tb521 2.341 . S
O545 C530 1.266 . S
O546 Tb521 2.484 . S
O546 C531 1.248 . S
O547 Tb521 2.440 . S
O547 C531 1.266 . S
O548 Tb520 2.325 . S
O548 Tb521 2.658 . S
O548 C538 1.281 . S
O549 Tb521 2.409 . S
O549 C538 1.254 . S
O550 Tb521 2.378 . S
O550 C539 1.236 . S
O551 Tb520 2.341 . S
O551 C539 1.266 . S
H552 C524 0.929 . S
H553 C525 0.931 . S
H554 C527 0.930 . S
H555 C528 0.930 1_554 S
H556 C533 0.929 . S
H557 C534 0.931 . S
H558 C536 0.930 . S
H559 C537 0.930 . S
Tb560 C562 2.809 . S
Tb560 O580 2.484 . S
Tb560 O581 2.440 . S
Tb560 O582 2.658 . S
Tb560 O583 2.409 . S
Tb560 O584 2.378 . S
Tb560 O588 2.325 . S
Tb560 O591 2.341 . S
Tb561 C571 2.809 . S
Tb561 O582 2.325 . S
Tb561 O585 2.341 . S
Tb561 O586 2.484 . S
Tb561 O587 2.440 . S
Tb561 O588 2.658 . S
Tb561 O589 2.409 . S
Tb561 O590 2.378 . S
C562 Tb560 2.809 . S
C562 C563 1.514 . S
C562 O580 1.248 . S
C562 O581 1.266 . S
C563 C562 1.514 . S
C563 C564 1.359 . S
C563 C568 1.348 . S
C564 C563 1.359 . S
C564 C565 1.380 . S
C564 H592 0.929 . S
C565 C564 1.380 . S
C565 C566 1.347 . S
C565 H593 0.931 . S
C566 C565 1.347 . S
C566 C567 1.369 . S
C567 C566 1.369 . S
C567 C568 1.408 . S
C567 H594 0.930 . S
C568 C563 1.348 . S
C568 C567 1.408 . S
C568 H595 0.930 . S
C569 O582 1.281 . S
C569 O583 1.254 . S
C570 O584 1.236 . S
C570 O585 1.266 . S
C571 Tb561 2.809 . S
C571 C572 1.514 . S
C571 O586 1.248 . S
C571 O587 1.266 . S
C572 C571 1.514 . S
C572 C573 1.359 . S
C572 C577 1.348 . S
C573 C572 1.359 . S
C573 C574 1.380 . S
C573 H596 0.929 . S
C574 C573 1.380 . S
C574 C575 1.347 . S
C574 H597 0.931 . S
C575 C574 1.347 . S
C575 C576 1.369 . S
C576 C575 1.369 . S
C576 C577 1.408 . S
C576 H598 0.930 . S
C577 C572 1.348 . S
C577 C576 1.408 . S
C577 H599 0.930 . S
C578 O588 1.281 . S
C578 O589 1.254 . S
C579 O590 1.236 . S
C579 O591 1.266 . S
O580 Tb560 2.484 . S
O580 C562 1.248 . S
O581 Tb560 2.440 . S
O581 C562 1.266 . S
O582 Tb560 2.658 . S
O582 Tb561 2.325 . S
O582 C569 1.281 . S
O583 Tb560 2.409 . S
O583 C569 1.254 . S
O584 Tb560 2.378 . S
O584 C570 1.236 . S
O585 Tb561 2.341 . S
O585 C570 1.266 . S
O586 Tb561 2.484 . S
O586 C571 1.248 . S
O587 Tb561 2.440 . S
O587 C571 1.266 . S
O588 Tb560 2.325 . S
O588 Tb561 2.658 . S
O588 C578 1.281 . S
O589 Tb561 2.409 . S
O589 C578 1.254 . S
O590 Tb561 2.378 . S
O590 C579 1.236 . S
O591 Tb560 2.341 . S
O591 C579 1.266 . S
H592 C564 0.929 . S
H593 C565 0.931 . S
H594 C567 0.930 . S
H595 C568 0.930 . S
H596 C573 0.929 . S
H597 C574 0.931 . S
H598 C576 0.930 . S
H599 C577 0.930 . S
Tb600 C602 2.809 . S
Tb600 O620 2.484 . S
Tb600 O621 2.440 . S
Tb600 O622 2.658 1_655 S
Tb600 O623 2.409 . S
Tb600 O624 2.378 1_655 S
Tb600 O628 2.325 1_655 S
Tb600 O631 2.341 . S
Tb601 C611 2.809 . S
Tb601 O622 2.325 . S
Tb601 O625 2.341 . S
Tb601 O626 2.484 . S
Tb601 O627 2.440 . S
Tb601 O628 2.658 . S
Tb601 O629 2.409 . S
Tb601 O630 2.378 . S
C602 Tb600 2.809 . S
C602 C603 1.514 . S
C602 O620 1.248 . S
C602 O621 1.266 . S
C603 C602 1.514 . S
C603 C604 1.359 . S
C603 C608 1.348 . S
C604 C603 1.359 . S
C604 C605 1.380 . S
C604 H632 0.929 . S
C605 C604 1.380 . S
C605 C606 1.347 . S
C605 H633 0.931 . S
C606 C605 1.347 . S
C606 C607 1.369 . S
C607 C606 1.369 . S
C607 C608 1.408 . S
C607 H634 0.930 . S
C608 C603 1.348 . S
C608 C607 1.408 . S
C608 H635 0.930 . S
C609 O622 1.281 . S
C609 O623 1.254 1_455 S
C610 O624 1.236 . S
C610 O625 1.266 . S
C611 Tb601 2.809 . S
C611 C612 1.514 . S
C611 O626 1.248 . S
C611 O627 1.266 . S
C612 C611 1.514 . S
C612 C613 1.359 1_556 S
C612 C617 1.348 1_556 S
C613 C612 1.359 1_554 S
C613 C614 1.380 . S
C613 H636 0.929 . S
C614 C613 1.380 . S
C614 C615 1.347 . S
C614 H637 0.931 . S
C615 C614 1.347 . S
C615 C616 1.369 . S
C616 C615 1.369 . S
C616 C617 1.408 . S
C616 H638 0.930 . S
C617 C612 1.348 1_554 S
C617 C616 1.408 . S
C617 H639 0.930 1_554 S
C618 O628 1.281 . S
C618 O629 1.254 . S
C619 O630 1.236 1_655 S
C619 O631 1.266 . S
O620 Tb600 2.484 . S
O620 C602 1.248 . S
O621 Tb600 2.440 . S
O621 C602 1.266 . S
O622 Tb600 2.658 1_455 S
O622 Tb601 2.325 . S
O622 C609 1.281 . S
O623 Tb600 2.409 . S
O623 C609 1.254 1_655 S
O624 Tb600 2.378 1_455 S
O624 C610 1.236 . S
O625 Tb601 2.341 . S
O625 C610 1.266 . S
O626 Tb601 2.484 . S
O626 C611 1.248 . S
O627 Tb601 2.440 . S
O627 C611 1.266 . S
O628 Tb600 2.325 1_455 S
O628 Tb601 2.658 . S
O628 C618 1.281 . S
O629 Tb601 2.409 . S
O629 C618 1.254 . S
O630 Tb601 2.378 . S
O630 C619 1.236 1_455 S
O631 Tb600 2.341 . S
O631 C619 1.266 . S
H632 C604 0.929 . S
H633 C605 0.931 . S
H634 C607 0.930 . S
H635 C608 0.930 . S
H636 C613 0.929 . S
H637 C614 0.931 . S
H638 C616 0.930 . S
H639 C617 0.930 1_556 S
C640 C641 1.349 . S
C640 C642 1.327 . S
C640 H665 0.950 . S
C641 C640 1.349 . S
C641 C657 1.349 . S
C642 C640 1.327 . S
C642 C661 1.429 . S
C642 H666 0.950 1_554 S
C643 C660 1.574 . S
C643 C662 1.368 . S
C643 H667 0.949 . S
H644 C648 0.949 . S
C645 C646 1.349 . S
C645 C647 1.327 . S
C645 H668 0.950 . S
C646 C645 1.349 . S
C646 C658 1.349 . S
C647 C645 1.327 . S
C647 C663 1.429 . S
C647 H669 0.950 . S
C648 H644 0.949 . S
C648 C656 1.574 . S
C648 C664 1.368 . S
H649 C657 0.950 . S
H650 C655 0.950 . S
H651 C656 0.949 . S
H652 C658 0.950 . S
H653 C659 0.950 . S
H654 C660 0.949 . S
C655 H650 0.950 . S
C655 C657 1.327 . S
C655 C661 1.429 . S
C656 C648 1.574 . S
C656 H651 0.949 . S
C656 C662 1.368 . S
C657 C641 1.349 . S
C657 H649 0.950 . S
C657 C655 1.327 . S
C658 C646 1.349 . S
C658 H652 0.950 . S
C658 C659 1.327 . S
C659 H653 0.950 . S
C659 C658 1.327 . S
C659 C663 1.429 . S
C660 C643 1.574 . S
C660 H654 0.949 . S
C660 C664 1.368 . S
C661 C642 1.429 . S
C661 C655 1.429 . S
C661 C662 1.523 1_554 S
C662 C643 1.368 . S
C662 C656 1.368 . S
C662 C661 1.523 1_556 S
C663 C647 1.429 . S
C663 C659 1.429 . S
C663 C664 1.523 . S
C664 C648 1.368 . S
C664 C660 1.368 . S
C664 C663 1.523 . S
H665 C640 0.950 . S
H666 C642 0.950 1_556 S
H667 C643 0.949 . S
H668 C645 0.950 . S
H669 C647 0.950 . S
C670 C671 1.349 . S
C670 C672 1.327 . S
C670 H695 0.950 . S
C671 C670 1.349 . S
C671 C687 1.349 . S
C672 C670 1.327 . S
C672 C691 1.429 . S
C672 H696 0.950 . S
C673 C690 1.574 . S
C673 C692 1.368 . S
C673 H697 0.949 . S
H674 C678 0.949 . S
C675 C676 1.349 . S
C675 C677 1.327 . S
C675 H698 0.950 . S
C676 C675 1.349 . S
C676 C688 1.349 . S
C677 C675 1.327 . S
C677 C693 1.429 . S
C677 H699 0.950 . S
C678 H674 0.949 . S
C678 C686 1.574 . S
C678 C694 1.368 . S
H679 C687 0.950 . S
H680 C685 0.950 . S
H681 C686 0.949 . S
H682 C688 0.950 . S
H683 C689 0.950 . S
H684 C690 0.949 . S
C685 H680 0.950 . S
C685 C687 1.327 . S
C685 C691 1.429 . S
C686 C678 1.574 . S
C686 H681 0.949 . S
C686 C692 1.368 . S
C687 C671 1.349 . S
C687 H679 0.950 . S
C687 C685 1.327 . S
C688 C676 1.349 . S
C688 H682 0.950 . S
C688 C689 1.327 . S
C689 H683 0.950 . S
C689 C688 1.327 . S
C689 C693 1.429 . S
C690 C673 1.574 . S
C690 H684 0.949 . S
C690 C694 1.368 . S
C691 C672 1.429 . S
C691 C685 1.429 . S
C691 C692 1.523 . S
C692 C673 1.368 . S
C692 C686 1.368 . S
C692 C691 1.523 . S
C693 C677 1.429 . S
C693 C689 1.429 . S
C693 C694 1.523 . S
C694 C678 1.368 . S
C694 C690 1.368 . S
C694 C693 1.523 . S
H695 C670 0.950 . S
H696 C672 0.950 . S
H697 C673 0.949 . S
H698 C675 0.950 . S
H699 C677 0.950 . S
C700 C701 1.349 . S
C700 C702 1.327 . S
C700 H725 0.950 . S
C701 C700 1.349 . S
C701 C717 1.349 . S
C702 C700 1.327 . S
C702 C721 1.429 . S
C702 H726 0.950 . S
C703 C720 1.574 . S
C703 C722 1.368 . S
C703 H727 0.949 . S
H704 C708 0.949 . S
C705 C706 1.349 . S
C705 C707 1.327 . S
C705 H728 0.950 . S
C706 C705 1.349 . S
C706 C718 1.349 . S
C707 C705 1.327 . S
C707 C723 1.429 . S
C707 H729 0.950 . S
C708 H704 0.949 . S
C708 C716 1.574 . S
C708 C724 1.368 . S
H709 C717 0.950 . S
H710 C715 0.950 . S
H711 C716 0.949 . S
H712 C718 0.950 . S
H713 C719 0.950 . S
H714 C720 0.949 . S
C715 H710 0.950 . S
C715 C717 1.327 . S
C715 C721 1.429 . S
C716 C708 1.574 . S
C716 H711 0.949 . S
C716 C722 1.368 . S
C717 C701 1.349 . S
C717 H709 0.950 . S
C717 C715 1.327 . S
C718 C706 1.349 . S
C718 H712 0.950 . S
C718 C719 1.327 . S
C719 H713 0.950 . S
C719 C718 1.327 . S
C719 C723 1.429 . S
C720 C703 1.574 . S
C720 H714 0.949 . S
C720 C724 1.368 . S
C721 C702 1.429 . S
C721 C715 1.429 . S
C721 C722 1.523 . S
C722 C703 1.368 . S
C722 C716 1.368 . S
C722 C721 1.523 . S
C723 C707 1.429 . S
C723 C719 1.429 . S
C723 C724 1.523 . S
C724 C708 1.368 . S
C724 C720 1.368 . S
C724 C723 1.523 . S
H725 C700 0.950 . S
H726 C702 0.950 . S
H727 C703 0.949 . S
H728 C705 0.950 . S
H729 C707 0.950 . S
C730 C731 1.349 . S
C730 C732 1.327 . S
C730 H755 0.950 . S
C731 C730 1.349 . S
C731 C747 1.349 . S
C732 C730 1.327 . S
C732 C751 1.429 . S
C732 H756 0.950 . S
C733 C750 1.574 . S
C733 C752 1.368 . S
C733 H757 0.949 . S
H734 C738 0.949 . S
C735 C736 1.349 . S
C735 C737 1.327 . S
C735 H758 0.950 . S
C736 C735 1.349 . S
C736 C748 1.349 . S
C737 C735 1.327 . S
C737 C753 1.429 . S
C737 H759 0.950 . S
C738 H734 0.949 . S
C738 C746 1.574 . S
C738 C754 1.368 . S
H739 C747 0.950 . S
H740 C745 0.950 . S
H741 C746 0.949 . S
H742 C748 0.950 . S
H743 C749 0.950 . S
H744 C750 0.949 . S
C745 H740 0.950 . S
C745 C747 1.327 . S
C745 C751 1.429 . S
C746 C738 1.574 . S
C746 H741 0.949 . S
C746 C752 1.368 . S
C747 C731 1.349 . S
C747 H739 0.950 . S
C747 C745 1.327 . S
C748 C736 1.349 . S
C748 H742 0.950 . S
C748 C749 1.327 . S
C749 H743 0.950 . S
C749 C748 1.327 . S
C749 C753 1.429 . S
C750 C733 1.574 . S
C750 H744 0.949 . S
C750 C754 1.368 . S
C751 C732 1.429 . S
C751 C745 1.429 . S
C751 C752 1.523 . S
C752 C733 1.368 . S
C752 C746 1.368 . S
C752 C751 1.523 . S
C753 C737 1.429 . S
C753 C749 1.429 . S
C753 C754 1.523 . S
C754 C738 1.368 . S
C754 C750 1.368 . S
C754 C753 1.523 . S
H755 C730 0.950 . S
H756 C732 0.950 . S
H757 C733 0.949 . S
H758 C735 0.950 . S
H759 C737 0.950 . S
C760 C761 1.349 . S
C760 C762 1.327 . S
C760 H785 0.950 . S
C761 C760 1.349 . S
C761 C777 1.349 . S
C762 C760 1.327 . S
C762 C781 1.429 . S
C762 H786 0.950 . S
C763 C780 1.574 . S
C763 C782 1.368 . S
C763 H787 0.949 . S
H764 C768 0.949 . S
C765 C766 1.349 . S
C765 C767 1.327 . S
C765 H788 0.950 . S
C766 C765 1.349 . S
C766 C778 1.349 1_655 S
C767 C765 1.327 . S
C767 C783 1.429 . S
C767 H789 0.950 . S
C768 H764 0.949 . S
C768 C776 1.574 . S
C768 C784 1.368 . S
H769 C777 0.950 . S
H770 C775 0.950 . S
H771 C776 0.949 . S
H772 C778 0.950 . S
H773 C779 0.950 1_454 S
H774 C780 0.949 . S
C775 H770 0.950 . S
C775 C777 1.327 . S
C775 C781 1.429 . S
C776 C768 1.574 . S
C776 H771 0.949 . S
C776 C782 1.368 . S
C777 C761 1.349 . S
C777 H769 0.950 . S
C777 C775 1.327 . S
C778 C766 1.349 1_455 S
C778 H772 0.950 . S
C778 C779 1.327 1_455 S
C779 H773 0.950 1_656 S
C779 C778 1.327 1_655 S
C779 C783 1.429 . S
C780 C763 1.574 . S
C780 H774 0.949 . S
C780 C784 1.368 . S
C781 C762 1.429 . S
C781 C775 1.429 . S
C781 C782 1.523 . S
C782 C763 1.368 . S
C782 C776 1.368 . S
C782 C781 1.523 . S
C783 C767 1.429 . S
C783 C779 1.429 . S
C783 C784 1.523 1_556 S
C784 C768 1.368 . S
C784 C780 1.368 . S
C784 C783 1.523 1_554 S
H785 C760 0.950 . S
H786 C762 0.950 . S
H787 C763 0.949 . S
H788 C765 0.950 . S
H789 C767 0.950 . S
C790 C791 1.349 . S
C790 C792 1.327 . S
C790 H815 0.950 . S
C791 C790 1.349 . S
C791 C807 1.349 . S
C792 C790 1.327 . S
C792 C811 1.429 . S
C792 H816 0.950 . S
C793 C810 1.574 . S
C793 C812 1.368 . S
C793 H817 0.949 . S
H794 C798 0.949 . S
C795 C796 1.349 . S
C795 C797 1.327 . S
C795 H818 0.950 . S
C796 C795 1.349 . S
C796 C808 1.349 . S
C797 C795 1.327 . S
C797 C813 1.429 . S
C797 H819 0.950 . S
C798 H794 0.949 . S
C798 C806 1.574 . S
C798 C814 1.368 . S
H799 C807 0.950 . S
H800 C805 0.950 . S
H801 C806 0.949 . S
H802 C808 0.950 . S
H803 C809 0.950 . S
H804 C810 0.949 . S
C805 H800 0.950 . S
C805 C807 1.327 . S
C805 C811 1.429 . S
C806 C798 1.574 . S
C806 H801 0.949 . S
C806 C812 1.368 . S
C807 C791 1.349 . S
C807 H799 0.950 . S
C807 C805 1.327 . S
C808 C796 1.349 . S
C808 H802 0.950 . S
C808 C809 1.327 . S
C809 H803 0.950 . S
C809 C808 1.327 . S
C809 C813 1.429 . S
C810 C793 1.574 . S
C810 H804 0.949 . S
C810 C814 1.368 . S
C811 C792 1.429 . S
C811 C805 1.429 . S
C811 C812 1.523 . S
C812 C793 1.368 . S
C812 C806 1.368 . S
C812 C811 1.523 . S
C813 C797 1.429 . S
C813 C809 1.429 . S
C813 C814 1.523 . S
C814 C798 1.368 . S
C814 C810 1.368 . S
C814 C813 1.523 . S
H815 C790 0.950 . S
H816 C792 0.950 . S
H817 C793 0.949 . S
H818 C795 0.950 . S
H819 C797 0.950 . S
C820 C821 1.349 . S
C820 C822 1.327 . S
C820 H845 0.950 . S
C821 C820 1.349 . S
C821 C837 1.349 . S
C822 C820 1.327 . S
C822 C841 1.429 . S
C822 H846 0.950 . S
C823 C840 1.574 . S
C823 C842 1.368 . S
C823 H847 0.949 . S
H824 C828 0.949 . S
C825 C826 1.349 . S
C825 C827 1.327 . S
C825 H848 0.950 . S
C826 C825 1.349 . S
C826 C838 1.349 . S
C827 C825 1.327 . S
C827 C843 1.429 . S
C827 H849 0.950 . S
C828 H824 0.949 . S
C828 C836 1.574 . S
C828 C844 1.368 . S
H829 C837 0.950 . S
H830 C835 0.950 . S
H831 C836 0.949 . S
H832 C838 0.950 . S
H833 C839 0.950 . S
H834 C840 0.949 . S
C835 H830 0.950 . S
C835 C837 1.327 . S
C835 C841 1.429 . S
C836 C828 1.574 . S
C836 H831 0.949 . S
C836 C842 1.368 . S
C837 C821 1.349 . S
C837 H829 0.950 . S
C837 C835 1.327 . S
C838 C826 1.349 . S
C838 H832 0.950 . S
C838 C839 1.327 . S
C839 H833 0.950 . S
C839 C838 1.327 . S
C839 C843 1.429 . S
C840 C823 1.574 . S
C840 H834 0.949 . S
C840 C844 1.368 . S
C841 C822 1.429 . S
C841 C835 1.429 . S
C841 C842 1.523 . S
C842 C823 1.368 . S
C842 C836 1.368 . S
C842 C841 1.523 . S
C843 C827 1.429 . S
C843 C839 1.429 . S
C843 C844 1.523 . S
C844 C828 1.368 . S
C844 C840 1.368 . S
C844 C843 1.523 . S
H845 C820 0.950 . S
H846 C822 0.950 . S
H847 C823 0.949 . S
H848 C825 0.950 . S
H849 C827 0.950 . S
C850 C851 1.349 . S
C850 C852 1.327 . S
C850 H875 0.950 . S
C851 C850 1.349 . S
C851 C867 1.349 . S
C852 C850 1.327 . S
C852 C871 1.429 . S
C852 H876 0.950 . S
C853 C870 1.574 . S
C853 C872 1.368 . S
C853 H877 0.949 . S
H854 C858 0.949 . S
C855 C856 1.349 . S
C855 C857 1.327 . S
C855 H878 0.950 . S
C856 C855 1.349 . S
C856 C868 1.349 . S
C857 C855 1.327 . S
C857 C873 1.429 . S
C857 H879 0.950 . S
C858 H854 0.949 . S
C858 C866 1.574 . S
C858 C874 1.368 . S
H859 C867 0.950 . S
H860 C865 0.950 . S
H861 C866 0.949 . S
H862 C868 0.950 . S
H863 C869 0.950 . S
H864 C870 0.949 . S
C865 H860 0.950 . S
C865 C867 1.327 . S
C865 C871 1.429 . S
C866 C858 1.574 . S
C866 H861 0.949 . S
C866 C872 1.368 . S
C867 C851 1.349 . S
C867 H859 0.950 . S
C867 C865 1.327 . S
C868 C856 1.349 . S
C868 H862 0.950 . S
C868 C869 1.327 . S
C869 H863 0.950 . S
C869 C868 1.327 . S
C869 C873 1.429 . S
C870 C853 1.574 . S
C870 H864 0.949 . S
C870 C874 1.368 . S
C871 C852 1.429 . S
C871 C865 1.429 . S
C871 C872 1.523 . S
C872 C853 1.368 . S
C872 C866 1.368 . S
C872 C871 1.523 . S
C873 C857 1.429 . S
C873 C869 1.429 . S
C873 C874 1.523 . S
C874 C858 1.368 . S
C874 C870 1.368 . S
C874 C873 1.523 . S
H875 C850 0.950 . S
H876 C852 0.950 . S
H877 C853 0.949 . S
H878 C855 0.950 . S
H879 C857 0.950 . S
C880 C881 1.349 . S
C880 C882 1.327 . S
C880 H905 0.950 . S
C881 C880 1.349 . S
C881 C897 1.349 . S
C882 C880 1.327 . S
C882 C901 1.429 . S
C882 H906 0.950 . S
C883 C900 1.574 . S
C883 C902 1.368 . S
C883 H907 0.949 . S
H884 C888 0.949 . S
C885 C886 1.349 . S
C885 C887 1.327 . S
C885 H908 0.950 . S
C886 C885 1.349 . S
C886 C898 1.349 . S
C887 C885 1.327 . S
C887 C903 1.429 . S
C887 H909 0.950 . S
C888 H884 0.949 . S
C888 C896 1.574 . S
C888 C904 1.368 . S
H889 C897 0.950 . S
H890 C895 0.950 . S
H891 C896 0.949 . S
H892 C898 0.950 . S
H893 C899 0.950 . S
H894 C900 0.949 . S
C895 H890 0.950 . S
C895 C897 1.327 . S
C895 C901 1.429 . S
C896 C888 1.574 . S
C896 H891 0.949 . S
C896 C902 1.368 . S
C897 C881 1.349 . S
C897 H889 0.950 . S
C897 C895 1.327 . S
C898 C886 1.349 . S
C898 H892 0.950 . S
C898 C899 1.327 . S
C899 H893 0.950 . S
C899 C898 1.327 . S
C899 C903 1.429 . S
C900 C883 1.574 . S
C900 H894 0.949 . S
C900 C904 1.368 . S
C901 C882 1.429 . S
C901 C895 1.429 . S
C901 C902 1.523 . S
C902 C883 1.368 . S
C902 C896 1.368 . S
C902 C901 1.523 . S
C903 C887 1.429 . S
C903 C899 1.429 . S
C903 C904 1.523 . S
C904 C888 1.368 . S
C904 C900 1.368 . S
C904 C903 1.523 . S
H905 C880 0.950 . S
H906 C882 0.950 . S
H907 C883 0.949 . S
H908 C885 0.950 . S
H909 C887 0.950 . S
C910 C911 1.349 . S
C910 C912 1.327 . S
C910 H935 0.950 . S
C911 C910 1.349 . S
C911 C927 1.349 . S
C912 C910 1.327 . S
C912 C931 1.429 . S
C912 H936 0.950 . S
C913 C930 1.574 . S
C913 C932 1.368 . S
C913 H937 0.949 . S
H914 C918 0.949 . S
C915 C916 1.349 . S
C915 C917 1.327 . S
C915 H938 0.950 . S
C916 C915 1.349 . S
C916 C928 1.349 . S
C917 C915 1.327 . S
C917 C933 1.429 . S
C917 H939 0.950 . S
C918 H914 0.949 . S
C918 C926 1.574 . S
C918 C934 1.368 . S
H919 C927 0.950 . S
H920 C925 0.950 . S
H921 C926 0.949 . S
H922 C928 0.950 . S
H923 C929 0.950 . S
H924 C930 0.949 . S
C925 H920 0.950 . S
C925 C927 1.327 . S
C925 C931 1.429 . S
C926 C918 1.574 . S
C926 H921 0.949 . S
C926 C932 1.368 . S
C927 C911 1.349 . S
C927 H919 0.950 . S
C927 C925 1.327 . S
C928 C916 1.349 . S
C928 H922 0.950 . S
C928 C929 1.327 . S
C929 H923 0.950 . S
C929 C928 1.327 . S
C929 C933 1.429 . S
C930 C913 1.574 . S
C930 H924 0.949 . S
C930 C934 1.368 . S
C931 C912 1.429 . S
C931 C925 1.429 . S
C931 C932 1.523 . S
C932 C913 1.368 . S
C932 C926 1.368 . S
C932 C931 1.523 . S
C933 C917 1.429 . S
C933 C929 1.429 . S
C933 C934 1.523 . S
C934 C918 1.368 . S
C934 C930 1.368 . S
C934 C933 1.523 . S
H935 C910 0.950 . S
H936 C912 0.950 . S
H937 C913 0.949 . S
H938 C915 0.950 . S
H939 C917 0.950 . S
C940 C941 1.349 . S
C940 C942 1.327 . S
C940 H965 0.950 . S
C941 C940 1.349 . S
C941 C957 1.349 1_655 S
C942 C940 1.327 . S
C942 C961 1.429 . S
C942 H966 0.950 . S
C943 C960 1.574 . S
C943 C962 1.368 . S
C943 H967 0.949 . S
H944 C948 0.949 . S
C945 C946 1.349 . S
C945 C947 1.327 . S
C945 H968 0.950 . S
C946 C945 1.349 . S
C946 C958 1.349 . S
C947 C945 1.327 . S
C947 C963 1.429 . S
C947 H969 0.950 . S
C948 H944 0.949 . S
C948 C956 1.574 . S
C948 C964 1.368 . S
H949 C957 0.950 . S
H950 C955 0.950 1_455 S
H951 C956 0.949 . S
H952 C958 0.950 . S
H953 C959 0.950 . S
H954 C960 0.949 . S
C955 H950 0.950 1_655 S
C955 C957 1.327 1_655 S
C955 C961 1.429 . S
C956 C948 1.574 . S
C956 H951 0.949 . S
C956 C962 1.368 . S
C957 C941 1.349 1_455 S
C957 H949 0.950 . S
C957 C955 1.327 1_455 S
C958 C946 1.349 . S
C958 H952 0.950 . S
C958 C959 1.327 . S
C959 H953 0.950 . S
C959 C958 1.327 . S
C959 C963 1.429 . S
C960 C943 1.574 . S
C960 H954 0.949 . S
C960 C964 1.368 . S
C961 C942 1.429 . S
C961 C955 1.429 . S
C961 C962 1.523 . S
C962 C943 1.368 . S
C962 C956 1.368 . S
C962 C961 1.523 . S
C963 C947 1.429 . S
C963 C959 1.429 . S
C963 C964 1.523 . S
C964 C948 1.368 . S
C964 C960 1.368 . S
C964 C963 1.523 . S
H965 C940 0.950 . S
H966 C942 0.950 . S
H967 C943 0.949 . S
H968 C945 0.950 . S
H969 C947 0.950 . S
C970 C971 1.349 . S
C970 C972 1.327 . S
C970 H995 0.950 . S
C971 C970 1.349 . S
C971 C987 1.349 . S
C972 C970 1.327 . S
C972 C991 1.429 . S
C972 H996 0.950 . S
C973 C990 1.574 . S
C973 C992 1.368 . S
C973 H997 0.949 . S
H974 C978 0.949 . S
C975 C976 1.341 1_554 S
C975 C977 1.327 . S
C975 H998 0.950 1_554 S
C976 C975 1.341 1_556 S
C976 C988 1.333 1_556 S
C977 C975 1.327 . S
C977 C993 1.429 . S
C977 H999 0.950 . S
C978 H974 0.949 . S
C978 C986 1.574 . S
C978 C994 1.368 . S
H979 C987 0.950 . S
H980 C985 0.950 . S
H981 C986 0.949 . S
H982 C988 0.950 . S
H983 C989 0.950 . S
H984 C990 0.949 . S
C985 H980 0.950 . S
C985 C987 1.327 . S
C985 C991 1.429 . S
C986 C978 1.574 . S
C986 H981 0.949 . S
C986 C992 1.368 . S
C987 C971 1.349 . S
C987 H979 0.950 . S
C987 C985 1.327 . S
C988 C976 1.333 1_554 S
C988 H982 0.950 . S
C988 C989 1.327 . S
C989 H983 0.950 . S
C989 C988 1.327 . S
C989 C993 1.429 . S
C990 C973 1.574 . S
C990 H984 0.949 . S
C990 C994 1.368 . S
C991 C972 1.429 . S
C991 C985 1.429 . S
C991 C992 1.523 . S
C992 C973 1.368 . S
C992 C986 1.368 . S
C992 C991 1.523 . S
C993 C977 1.429 . S
C993 C989 1.429 . S
C993 C994 1.523 . S
C994 C978 1.368 . S
C994 C990 1.368 . S
C994 C993 1.523 . S
H995 C970 0.950 . S
H996 C972 0.950 . S
H997 C973 0.949 . S
H998 C975 0.950 1_556 S
H999 C977 0.950 . S
C1000 C1001 1.349 . S
C1000 C1002 1.327 . S
C1000 H1025 0.950 . S
C1001 C1000 1.349 . S
C1001 C1017 1.349 . S
C1002 C1000 1.327 . S
C1002 C1021 1.429 . S
C1002 H1026 0.950 . S
C1003 C1020 1.574 . S
C1003 C1022 1.368 . S
C1003 H1027 0.949 . S
H1004 C1008 0.949 . S
C1005 C1006 1.349 . S
C1005 C1007 1.327 . S
C1005 H1028 0.950 . S
C1006 C1005 1.349 . S
C1006 C1018 1.349 . S
C1007 C1005 1.327 . S
C1007 C1023 1.429 . S
C1007 H1029 0.950 . S
C1008 H1004 0.949 . S
C1008 C1016 1.574 . S
C1008 C1024 1.368 . S
H1009 C1017 0.950 . S
H1010 C1015 0.950 . S
H1011 C1016 0.949 . S
H1012 C1018 0.950 . S
H1013 C1019 0.950 . S
H1014 C1020 0.949 . S
C1015 H1010 0.950 . S
C1015 C1017 1.327 . S
C1015 C1021 1.429 . S
C1016 C1008 1.574 . S
C1016 H1011 0.949 . S
C1016 C1022 1.368 . S
C1017 C1001 1.349 . S
C1017 H1009 0.950 . S
C1017 C1015 1.327 . S
C1018 C1006 1.349 . S
C1018 H1012 0.950 . S
C1018 C1019 1.327 . S
C1019 H1013 0.950 . S
C1019 C1018 1.327 . S
C1019 C1023 1.429 . S
C1020 C1003 1.574 . S
C1020 H1014 0.949 . S
C1020 C1024 1.368 . S
C1021 C1002 1.429 . S
C1021 C1015 1.429 . S
C1021 C1022 1.523 . S
C1022 C1003 1.368 . S
C1022 C1016 1.368 . S
C1022 C1021 1.523 . S
C1023 C1007 1.429 . S
C1023 C1019 1.429 . S
C1023 C1024 1.523 . S
C1024 C1008 1.368 . S
C1024 C1020 1.368 . S
C1024 C1023 1.523 . S
H1025 C1000 0.950 . S
H1026 C1002 0.950 . S
H1027 C1003 0.949 . S
H1028 C1005 0.950 . S
H1029 C1007 0.950 . S
C1030 C1031 1.349 . S
C1030 C1032 1.327 . S
C1030 H1055 0.950 . S
C1031 C1030 1.349 . S
C1031 C1047 1.349 . S
C1032 C1030 1.327 . S
C1032 C1051 1.429 . S
C1032 H1056 0.950 . S
C1033 C1050 1.574 . S
C1033 C1052 1.368 . S
C1033 H1057 0.949 . S
H1034 C1038 0.949 . S
C1035 C1036 1.349 . S
C1035 C1037 1.327 . S
C1035 H1058 0.950 . S
C1036 C1035 1.349 . S
C1036 C1048 1.349 . S
C1037 C1035 1.327 . S
C1037 C1053 1.429 . S
C1037 H1059 0.950 . S
C1038 H1034 0.949 . S
C1038 C1046 1.574 . S
C1038 C1054 1.368 . S
H1039 C1047 0.950 . S
H1040 C1045 0.950 . S
H1041 C1046 0.949 . S
H1042 C1048 0.950 . S
H1043 C1049 0.950 . S
H1044 C1050 0.949 . S
C1045 H1040 0.950 . S
C1045 C1047 1.327 . S
C1045 C1051 1.429 . S
C1046 C1038 1.574 . S
C1046 H1041 0.949 . S
C1046 C1052 1.368 . S
C1047 C1031 1.349 . S
C1047 H1039 0.950 . S
C1047 C1045 1.327 . S
C1048 C1036 1.349 . S
C1048 H1042 0.950 . S
C1048 C1049 1.327 . S
C1049 H1043 0.950 . S
C1049 C1048 1.327 . S
C1049 C1053 1.429 . S
C1050 C1033 1.574 . S
C1050 H1044 0.949 . S
C1050 C1054 1.368 . S
C1051 C1032 1.429 . S
C1051 C1045 1.429 . S
C1051 C1052 1.523 . S
C1052 C1033 1.368 . S
C1052 C1046 1.368 . S
C1052 C1051 1.523 . S
C1053 C1037 1.429 . S
C1053 C1049 1.429 . S
C1053 C1054 1.523 . S
C1054 C1038 1.368 . S
C1054 C1050 1.368 . S
C1054 C1053 1.523 . S
H1055 C1030 0.950 . S
H1056 C1032 0.950 . S
H1057 C1033 0.949 . S
H1058 C1035 0.950 . S
H1059 C1037 0.950 . S
C1060 C1061 1.349 . S
C1060 C1062 1.327 . S
C1060 H1085 0.950 . S
C1061 C1060 1.349 . S
C1061 C1077 1.349 . S
C1062 C1060 1.327 . S
C1062 C1081 1.429 . S
C1062 H1086 0.950 . S
C1063 C1080 1.574 . S
C1063 C1082 1.368 . S
C1063 H1087 0.949 . S
H1064 C1068 0.949 . S
C1065 C1066 1.349 . S
C1065 C1067 1.327 . S
C1065 H1088 0.950 . S
C1066 C1065 1.349 . S
C1066 C1078 1.349 . S
C1067 C1065 1.327 . S
C1067 C1083 1.429 . S
C1067 H1089 0.950 . S
C1068 H1064 0.949 . S
C1068 C1076 1.574 . S
C1068 C1084 1.368 . S
H1069 C1077 0.950 . S
H1070 C1075 0.950 . S
H1071 C1076 0.949 . S
H1072 C1078 0.950 . S
H1073 C1079 0.950 . S
H1074 C1080 0.949 . S
C1075 H1070 0.950 . S
C1075 C1077 1.327 . S
C1075 C1081 1.429 . S
C1076 C1068 1.574 . S
C1076 H1071 0.949 . S
C1076 C1082 1.368 . S
C1077 C1061 1.349 . S
C1077 H1069 0.950 . S
C1077 C1075 1.327 . S
C1078 C1066 1.349 . S
C1078 H1072 0.950 . S
C1078 C1079 1.327 . S
C1079 H1073 0.950 . S
C1079 C1078 1.327 . S
C1079 C1083 1.429 . S
C1080 C1063 1.574 . S
C1080 H1074 0.949 . S
C1080 C1084 1.368 . S
C1081 C1062 1.429 . S
C1081 C1075 1.429 . S
C1081 C1082 1.523 . S
C1082 C1063 1.368 . S
C1082 C1076 1.368 . S
C1082 C1081 1.523 . S
C1083 C1067 1.429 . S
C1083 C1079 1.429 . S
C1083 C1084 1.523 . S
C1084 C1068 1.368 . S
C1084 C1080 1.368 . S
C1084 C1083 1.523 . S
H1085 C1060 0.950 . S
H1086 C1062 0.950 . S
H1087 C1063 0.949 . S
H1088 C1065 0.950 . S
H1089 C1067 0.950 . S
C1090 C1091 1.349 . S
C1090 C1092 1.327 . S
C1090 H1115 0.950 . S
C1091 C1090 1.349 . S
C1091 C1107 1.349 . S
C1092 C1090 1.327 . S
C1092 C1111 1.429 . S
C1092 H1116 0.950 . S
C1093 C1110 1.574 . S
C1093 C1112 1.368 . S
C1093 H1117 0.949 . S
H1094 C1098 0.949 . S
C1095 C1096 1.330 1_556 S
C1095 C1097 1.327 . S
C1095 H1118 0.950 . S
C1096 C1095 1.330 1_554 S
C1096 C1108 1.345 1_554 S
C1097 C1095 1.327 . S
C1097 C1113 1.429 . S
C1097 H1119 0.950 . S
C1098 H1094 0.949 . S
C1098 C1106 1.574 . S
C1098 C1114 1.368 . S
H1099 C1107 0.950 . S
H1100 C1105 0.950 . S
H1101 C1106 0.949 . S
H1102 C1108 0.950 1_554 S
H1103 C1109 0.950 . S
H1104 C1110 0.949 . S
C1105 H1100 0.950 . S
C1105 C1107 1.327 . S
C1105 C1111 1.429 . S
C1106 C1098 1.574 . S
C1106 H1101 0.949 . S
C1106 C1112 1.368 . S
C1107 C1091 1.349 . S
C1107 H1099 0.950 . S
C1107 C1105 1.327 . S
C1108 C1096 1.345 1_556 S
C1108 H1102 0.950 1_556 S
C1108 C1109 1.327 . S
C1109 H1103 0.950 . S
C1109 C1108 1.327 . S
C1109 C1113 1.429 . S
C1110 C1093 1.574 . S
C1110 H1104 0.949 . S
C1110 C1114 1.368 . S
C1111 C1092 1.429 . S
C1111 C1105 1.429 . S
C1111 C1112 1.523 . S
C1112 C1093 1.368 . S
C1112 C1106 1.368 . S
C1112 C1111 1.523 . S
C1113 C1097 1.429 . S
C1113 C1109 1.429 . S
C1113 C1114 1.523 . S
C1114 C1098 1.368 . S
C1114 C1110 1.368 . S
C1114 C1113 1.523 . S
H1115 C1090 0.950 . S
H1116 C1092 0.950 . S
H1117 C1093 0.949 . S
H1118 C1095 0.950 . S
H1119 C1097 0.950 . S
C1120 C1121 1.349 . S
C1120 C1122 1.327 . S
C1120 H1145 0.950 . S
C1121 C1120 1.349 . S
C1121 C1137 1.349 . S
C1122 C1120 1.327 . S
C1122 C1141 1.429 . S
C1122 H1146 0.950 . S
C1123 C1140 1.574 . S
C1123 C1142 1.368 . S
C1123 H1147 0.949 . S
H1124 C1128 0.949 . S
C1125 C1126 1.349 . S
C1125 C1127 1.327 . S
C1125 H1148 0.950 . S
C1126 C1125 1.349 . S
C1126 C1138 1.349 . S
C1127 C1125 1.327 . S
C1127 C1143 1.429 . S
C1127 H1149 0.950 . S
C1128 H1124 0.949 . S
C1128 C1136 1.574 . S
C1128 C1144 1.368 . S
H1129 C1137 0.950 . S
H1130 C1135 0.950 . S
H1131 C1136 0.949 . S
H1132 C1138 0.950 . S
H1133 C1139 0.950 . S
H1134 C1140 0.949 . S
C1135 H1130 0.950 . S
C1135 C1137 1.327 . S
C1135 C1141 1.429 . S
C1136 C1128 1.574 . S
C1136 H1131 0.949 . S
C1136 C1142 1.368 . S
C1137 C1121 1.349 . S
C1137 H1129 0.950 . S
C1137 C1135 1.327 . S
C1138 C1126 1.349 . S
C1138 H1132 0.950 . S
C1138 C1139 1.327 . S
C1139 H1133 0.950 . S
C1139 C1138 1.327 . S
C1139 C1143 1.429 . S
C1140 C1123 1.574 . S
C1140 H1134 0.949 . S
C1140 C1144 1.368 . S
C1141 C1122 1.429 . S
C1141 C1135 1.429 . S
C1141 C1142 1.523 . S
C1142 C1123 1.368 . S
C1142 C1136 1.368 . S
C1142 C1141 1.523 . S
C1143 C1127 1.429 . S
C1143 C1139 1.429 . S
C1143 C1144 1.523 . S
C1144 C1128 1.368 . S
C1144 C1140 1.368 . S
C1144 C1143 1.523 . S
H1145 C1120 0.950 . S
H1146 C1122 0.950 . S
H1147 C1123 0.949 . S
H1148 C1125 0.950 . S
H1149 C1127 0.950 . S
C1150 C1151 1.349 . S
C1150 C1152 1.327 . S
C1150 H1175 0.950 . S
C1151 C1150 1.349 . S
C1151 C1167 1.349 . S
C1152 C1150 1.327 . S
C1152 C1171 1.429 . S
C1152 H1176 0.950 . S
C1153 C1170 1.574 . S
C1153 C1172 1.368 . S
C1153 H1177 0.949 1_455 S
H1154 C1158 0.949 . S
C1155 C1156 1.349 . S
C1155 C1157 1.327 . S
C1155 H1178 0.950 . S
C1156 C1155 1.349 . S
C1156 C1168 1.349 . S
C1157 C1155 1.327 . S
C1157 C1173 1.429 . S
C1157 H1179 0.950 . S
C1158 H1154 0.949 . S
C1158 C1166 1.574 . S
C1158 C1174 1.368 . S
H1159 C1167 0.950 . S
H1160 C1165 0.950 . S
H1161 C1166 0.949 . S
H1162 C1168 0.950 . S
H1163 C1169 0.950 . S
H1164 C1170 0.949 . S
C1165 H1160 0.950 . S
C1165 C1167 1.327 . S
C1165 C1171 1.429 . S
C1166 C1158 1.574 . S
C1166 H1161 0.949 . S
C1166 C1172 1.368 . S
C1167 C1151 1.349 . S
C1167 H1159 0.950 . S
C1167 C1165 1.327 . S
C1168 C1156 1.349 . S
C1168 H1162 0.950 . S
C1168 C1169 1.327 . S
C1169 H1163 0.950 . S
C1169 C1168 1.327 . S
C1169 C1173 1.429 . S
C1170 C1153 1.574 . S
C1170 H1164 0.949 . S
C1170 C1174 1.368 . S
C1171 C1152 1.429 . S
C1171 C1165 1.429 . S
C1171 C1172 1.523 1_655 S
C1172 C1153 1.368 . S
C1172 C1166 1.368 . S
C1172 C1171 1.523 1_455 S
C1173 C1157 1.429 . S
C1173 C1169 1.429 . S
C1173 C1174 1.523 . S
C1174 C1158 1.368 . S
C1174 C1170 1.368 . S
C1174 C1173 1.523 . S
H1175 C1150 0.950 . S
H1176 C1152 0.950 . S
H1177 C1153 0.949 1_655 S
H1178 C1155 0.950 . S
H1179 C1157 0.950 . S
C1180 C1181 1.349 . S
C1180 C1182 1.327 . S
C1180 H1205 0.950 . S
C1181 C1180 1.349 . S
C1181 C1197 1.349 . S
C1182 C1180 1.327 . S
C1182 C1201 1.429 . S
C1182 H1206 0.950 . S
C1183 C1200 1.574 . S
C1183 C1202 1.368 . S
C1183 H1207 0.949 . S
H1184 C1188 0.949 . S
C1185 C1186 1.349 . S
C1185 C1187 1.327 . S
C1185 H1208 0.950 . S
C1186 C1185 1.349 . S
C1186 C1198 1.349 . S
C1187 C1185 1.327 . S
C1187 C1203 1.429 . S
C1187 H1209 0.950 . S
C1188 H1184 0.949 . S
C1188 C1196 1.574 . S
C1188 C1204 1.368 . S
H1189 C1197 0.950 . S
H1190 C1195 0.950 . S
H1191 C1196 0.949 . S
H1192 C1198 0.950 . S
H1193 C1199 0.950 . S
H1194 C1200 0.949 . S
C1195 H1190 0.950 . S
C1195 C1197 1.327 . S
C1195 C1201 1.429 . S
C1196 C1188 1.574 . S
C1196 H1191 0.949 . S
C1196 C1202 1.368 . S
C1197 C1181 1.349 . S
C1197 H1189 0.950 . S
C1197 C1195 1.327 . S
C1198 C1186 1.349 . S
C1198 H1192 0.950 . S
C1198 C1199 1.327 . S
C1199 H1193 0.950 . S
C1199 C1198 1.327 . S
C1199 C1203 1.429 . S
C1200 C1183 1.574 . S
C1200 H1194 0.949 . S
C1200 C1204 1.368 . S
C1201 C1182 1.429 . S
C1201 C1195 1.429 . S
C1201 C1202 1.523 . S
C1202 C1183 1.368 . S
C1202 C1196 1.368 . S
C1202 C1201 1.523 . S
C1203 C1187 1.429 . S
C1203 C1199 1.429 . S
C1203 C1204 1.523 . S
C1204 C1188 1.368 . S
C1204 C1200 1.368 . S
C1204 C1203 1.523 . S
H1205 C1180 0.950 . S
H1206 C1182 0.950 . S
H1207 C1183 0.949 . S
H1208 C1185 0.950 . S
H1209 C1187 0.950 . S
C1210 C1211 1.349 . S
C1210 C1212 1.327 . S
C1210 H1235 0.950 . S
C1211 C1210 1.349 . S
C1211 C1227 1.349 . S
C1212 C1210 1.327 . S
C1212 C1231 1.429 . S
C1212 H1236 0.950 . S
C1213 C1230 1.574 . S
C1213 C1232 1.368 . S
C1213 H1237 0.949 . S
H1214 C1218 0.949 . S
C1215 C1216 1.349 . S
C1215 C1217 1.327 . S
C1215 H1238 0.950 . S
C1216 C1215 1.349 . S
C1216 C1228 1.349 . S
C1217 C1215 1.327 . S
C1217 C1233 1.429 . S
C1217 H1239 0.950 . S
C1218 H1214 0.949 . S
C1218 C1226 1.574 . S
C1218 C1234 1.368 . S
H1219 C1227 0.950 . S
H1220 C1225 0.950 . S
H1221 C1226 0.949 . S
H1222 C1228 0.950 . S
H1223 C1229 0.950 . S
H1224 C1230 0.949 . S
C1225 H1220 0.950 . S
C1225 C1227 1.327 . S
C1225 C1231 1.429 . S
C1226 C1218 1.574 . S
C1226 H1221 0.949 . S
C1226 C1232 1.368 . S
C1227 C1211 1.349 . S
C1227 H1219 0.950 . S
C1227 C1225 1.327 . S
C1228 C1216 1.349 . S
C1228 H1222 0.950 . S
C1228 C1229 1.327 . S
C1229 H1223 0.950 . S
C1229 C1228 1.327 . S
C1229 C1233 1.429 . S
C1230 C1213 1.574 . S
C1230 H1224 0.949 . S
C1230 C1234 1.368 . S
C1231 C1212 1.429 . S
C1231 C1225 1.429 . S
C1231 C1232 1.523 . S
C1232 C1213 1.368 . S
C1232 C1226 1.368 . S
C1232 C1231 1.523 . S
C1233 C1217 1.429 . S
C1233 C1229 1.429 . S
C1233 C1234 1.523 . S
C1234 C1218 1.368 . S
C1234 C1230 1.368 . S
C1234 C1233 1.523 . S
H1235 C1210 0.950 . S
H1236 C1212 0.950 . S
H1237 C1213 0.949 . S
H1238 C1215 0.950 . S
H1239 C1217 0.950 . S
C1240 C1241 1.333 1_655 S
C1240 C1242 1.318 . S
C1240 H1265 0.977 . S
C1241 C1240 1.333 1_455 S
C1241 C1257 1.349 . S
C1242 C1240 1.318 . S
C1242 C1261 1.429 1_655 S
C1242 H1266 0.950 . S
C1243 C1260 1.574 . S
C1243 C1262 1.368 . S
C1243 H1267 0.949 . S
H1244 C1248 0.949 . S
C1245 C1246 1.349 . S
C1245 C1247 1.327 . S
C1245 H1268 0.950 . S
C1246 C1245 1.349 . S
C1246 C1258 1.360 . S
C1247 C1245 1.327 . S
C1247 C1263 1.429 . S
C1247 H1269 0.950 . S
C1248 H1244 0.949 . S
C1248 C1256 1.574 . S
C1248 C1264 1.368 1_655 S
H1249 C1257 0.950 . S
H1250 C1255 0.950 . S
H1251 C1256 0.949 . S
H1252 C1258 0.943 1_655 S
H1253 C1259 0.950 . S
H1254 C1260 0.949 . S
C1255 H1250 0.950 . S
C1255 C1257 1.327 . S
C1255 C1261 1.429 . S
C1256 C1248 1.574 . S
C1256 H1251 0.949 . S
C1256 C1262 1.368 1_655 S
C1257 C1241 1.349 . S
C1257 H1249 0.950 . S
C1257 C1255 1.327 . S
C1258 C1246 1.360 . S
C1258 H1252 0.943 1_455 S
C1258 C1259 1.323 1_455 S
C1259 H1253 0.950 . S
C1259 C1258 1.323 1_655 S
C1259 C1263 1.428 1_655 S
C1260 C1243 1.574 . S
C1260 H1254 0.949 . S
C1260 C1264 1.368 . S
C1261 C1242 1.429 1_455 S
C1261 C1255 1.429 . S
C1261 C1262 1.523 . S
C1262 C1243 1.368 . S
C1262 C1256 1.368 1_455 S
C1262 C1261 1.523 . S
C1263 C1247 1.429 . S
C1263 C1259 1.428 1_455 S
C1263 C1264 1.523 . S
C1264 C1248 1.368 1_455 S
C1264 C1260 1.368 . S
C1264 C1263 1.523 . S
H1265 C1240 0.977 . S
H1266 C1242 0.950 . S
H1267 C1243 0.949 . S
H1268 C1245 0.950 . S
H1269 C1247 0.950 . S
C1270 C1271 1.349 . S
C1270 C1272 1.327 . S
C1270 H1295 0.950 . S
C1271 C1270 1.349 . S
C1271 C1287 1.349 . S
C1272 C1270 1.327 . S
C1272 C1291 1.429 . S
C1272 H1296 0.950 . S
C1273 C1290 1.574 . S
C1273 C1292 1.368 . S
C1273 H1297 0.949 . S
H1274 C1278 0.949 . S
C1275 C1276 1.349 . S
C1275 C1277 1.327 . S
C1275 H1298 0.950 . S
C1276 C1275 1.349 . S
C1276 C1288 1.349 . S
C1277 C1275 1.327 . S
C1277 C1293 1.429 . S
C1277 H1299 0.950 . S
C1278 H1274 0.949 . S
C1278 C1286 1.574 . S
C1278 C1294 1.368 . S
H1279 C1287 0.950 . S
H1280 C1285 0.950 . S
H1281 C1286 0.949 . S
H1282 C1288 0.950 . S
H1283 C1289 0.950 . S
H1284 C1290 0.949 . S
C1285 H1280 0.950 . S
C1285 C1287 1.327 . S
C1285 C1291 1.429 . S
C1286 C1278 1.574 . S
C1286 H1281 0.949 . S
C1286 C1292 1.368 . S
C1287 C1271 1.349 . S
C1287 H1279 0.950 . S
C1287 C1285 1.327 . S
C1288 C1276 1.349 . S
C1288 H1282 0.950 . S
C1288 C1289 1.327 . S
C1289 H1283 0.950 . S
C1289 C1288 1.327 . S
C1289 C1293 1.429 . S
C1290 C1273 1.574 . S
C1290 H1284 0.949 . S
C1290 C1294 1.368 . S
C1291 C1272 1.429 . S
C1291 C1285 1.429 . S
C1291 C1292 1.523 . S
C1292 C1273 1.368 . S
C1292 C1286 1.368 . S
C1292 C1291 1.523 . S
C1293 C1277 1.429 . S
C1293 C1289 1.429 . S
C1293 C1294 1.523 . S
C1294 C1278 1.368 . S
C1294 C1290 1.368 . S
C1294 C1293 1.523 . S
H1295 C1270 0.950 . S
H1296 C1272 0.950 . S
H1297 C1273 0.949 . S
H1298 C1275 0.950 . S
H1299 C1277 0.950 . S
C1300 C1301 1.349 . S
C1300 C1302 1.327 . S
C1300 H1325 0.950 . S
C1301 C1300 1.349 . S
C1301 C1317 1.349 . S
C1302 C1300 1.327 . S
C1302 C1321 1.429 . S
C1302 H1326 0.950 . S
C1303 C1320 1.574 . S
C1303 C1322 1.368 . S
C1303 H1327 0.949 . S
H1304 C1308 0.949 . S
C1305 C1306 1.349 . S
C1305 C1307 1.327 . S
C1305 H1328 0.950 . S
C1306 C1305 1.349 . S
C1306 C1318 1.349 . S
C1307 C1305 1.327 . S
C1307 C1323 1.429 . S
C1307 H1329 0.950 . S
C1308 H1304 0.949 . S
C1308 C1316 1.574 . S
C1308 C1324 1.368 . S
H1309 C1317 0.950 . S
H1310 C1315 0.950 . S
H1311 C1316 0.949 . S
H1312 C1318 0.950 . S
H1313 C1319 0.950 . S
H1314 C1320 0.949 . S
C1315 H1310 0.950 . S
C1315 C1317 1.327 . S
C1315 C1321 1.429 . S
C1316 C1308 1.574 . S
C1316 H1311 0.949 . S
C1316 C1322 1.368 . S
C1317 C1301 1.349 . S
C1317 H1309 0.950 . S
C1317 C1315 1.327 . S
C1318 C1306 1.349 . S
C1318 H1312 0.950 . S
C1318 C1319 1.327 . S
C1319 H1313 0.950 . S
C1319 C1318 1.327 . S
C1319 C1323 1.429 . S
C1320 C1303 1.574 . S
C1320 H1314 0.949 . S
C1320 C1324 1.368 . S
C1321 C1302 1.429 . S
C1321 C1315 1.429 . S
C1321 C1322 1.523 . S
C1322 C1303 1.368 . S
C1322 C1316 1.368 . S
C1322 C1321 1.523 . S
C1323 C1307 1.429 . S
C1323 C1319 1.429 . S
C1323 C1324 1.523 . S
C1324 C1308 1.368 . S
C1324 C1320 1.368 . S
C1324 C1323 1.523 . S
H1325 C1300 0.950 . S
H1326 C1302 0.950 . S
H1327 C1303 0.949 . S
H1328 C1305 0.950 . S
H1329 C1307 0.950 . S
C1330 C1331 1.349 . S
C1330 C1332 1.327 . S
C1330 H1355 0.950 . S
C1331 C1330 1.349 . S
C1331 C1347 1.349 . S
C1332 C1330 1.327 . S
C1332 C1351 1.429 . S
C1332 H1356 0.950 . S
C1333 C1350 1.574 . S
C1333 C1352 1.368 . S
C1333 H1357 0.949 . S
H1334 C1338 0.949 . S
C1335 C1336 1.349 . S
C1335 C1337 1.327 . S
C1335 H1358 0.950 . S
C1336 C1335 1.349 . S
C1336 C1348 1.349 . S
C1337 C1335 1.327 . S
C1337 C1353 1.465 . S
C1337 H1359 0.950 . S
C1338 H1334 0.949 . S
C1338 C1346 1.574 . S
C1338 C1354 1.368 . S
H1339 C1347 0.950 . S
H1340 C1345 0.950 . S
H1341 C1346 0.949 . S
H1342 C1348 0.950 . S
H1343 C1349 0.950 1_455 S
H1344 C1350 0.949 . S
C1345 H1340 0.950 . S
C1345 C1347 1.327 . S
C1345 C1351 1.429 . S
C1346 C1338 1.574 . S
C1346 H1341 0.949 . S
C1346 C1352 1.368 . S
C1347 C1331 1.349 . S
C1347 H1339 0.950 . S
C1347 C1345 1.327 . S
C1348 C1336 1.349 . S
C1348 H1342 0.950 . S
C1348 C1349 1.327 . S
C1349 H1343 0.950 1_655 S
C1349 C1348 1.327 . S
C1349 C1353 1.440 . S
C1350 C1333 1.574 . S
C1350 H1344 0.949 . S
C1350 C1354 1.368 . S
C1351 C1332 1.429 . S
C1351 C1345 1.429 . S
C1351 C1352 1.523 . S
C1352 C1333 1.368 . S
C1352 C1346 1.368 . S
C1352 C1351 1.523 . S
C1353 C1337 1.465 . S
C1353 C1349 1.440 . S
C1353 C1354 1.480 1_655 S
C1354 C1338 1.368 . S
C1354 C1350 1.368 . S
C1354 C1353 1.480 1_455 S
H1355 C1330 0.950 . S
H1356 C1332 0.950 . S
H1357 C1333 0.949 . S
H1358 C1335 0.950 . S
H1359 C1337 0.950 . S
C1360 C1361 1.349 . S
C1360 C1362 1.327 . S
C1360 H1385 0.950 . S
C1361 C1360 1.349 . S
C1361 C1377 1.349 . S
C1362 C1360 1.327 . S
C1362 C1381 1.429 . S
C1362 H1386 0.950 . S
C1363 C1380 1.574 . S
C1363 C1382 1.368 1_556 S
C1363 H1387 0.949 . S
H1364 C1368 0.949 . S
C1365 C1366 1.349 . S
C1365 C1367 1.327 . S
C1365 H1388 0.950 . S
C1366 C1365 1.349 . S
C1366 C1378 1.349 . S
C1367 C1365 1.327 . S
C1367 C1383 1.429 . S
C1367 H1389 0.950 . S
C1368 H1364 0.949 . S
C1368 C1376 1.574 . S
C1368 C1384 1.368 1_554 S
H1369 C1377 0.950 . S
H1370 C1375 0.950 . S
H1371 C1376 0.949 . S
H1372 C1378 0.949 . S
H1373 C1379 0.950 . S
H1374 C1380 0.949 . S
C1375 H1370 0.950 . S
C1375 C1377 1.327 . S
C1375 C1381 1.429 . S
C1376 C1368 1.574 . S
C1376 H1371 0.949 . S
C1376 C1382 1.368 1_565 S
C1377 C1361 1.349 . S
C1377 H1369 0.950 . S
C1377 C1375 1.327 . S
C1378 C1366 1.349 . S
C1378 H1372 0.949 . S
C1378 C1379 1.327 . S
C1379 H1373 0.950 . S
C1379 C1378 1.327 . S
C1379 C1383 1.429 . S
C1380 C1363 1.574 . S
C1380 H1374 0.949 . S
C1380 C1384 1.368 1_545 S
C1381 C1362 1.429 . S
C1381 C1375 1.429 . S
C1381 C1382 1.523 . S
C1382 C1363 1.368 1_554 S
C1382 C1376 1.368 1_545 S
C1382 C1381 1.523 . S
C1383 C1367 1.429 . S
C1383 C1379 1.429 . S
C1383 C1384 1.523 . S
C1384 C1368 1.368 1_556 S
C1384 C1380 1.368 1_565 S
C1384 C1383 1.523 . S
H1385 C1360 0.950 . S
H1386 C1362 0.950 . S
H1387 C1363 0.949 . S
H1388 C1365 0.950 . S
H1389 C1367 0.950 . S
C1390 C1391 1.349 . S
C1390 C1392 1.327 . S
C1390 H1415 0.950 . S
C1391 C1390 1.349 . S
C1391 C1407 1.349 . S
C1392 C1390 1.327 . S
C1392 C1411 1.429 . S
C1392 H1416 0.950 . S
C1393 C1410 1.574 . S
C1393 C1412 1.368 . S
C1393 H1417 0.949 . S
H1394 C1398 0.949 . S
C1395 C1396 1.349 . S
C1395 C1397 1.327 . S
C1395 H1418 0.950 . S
C1396 C1395 1.349 . S
C1396 C1408 1.349 . S
C1397 C1395 1.327 . S
C1397 C1413 1.429 . S
C1397 H1419 0.950 . S
C1398 H1394 0.949 . S
C1398 C1406 1.574 . S
C1398 C1414 1.368 . S
H1399 C1407 0.950 . S
H1400 C1405 0.950 . S
H1401 C1406 0.949 . S
H1402 C1408 0.950 . S
H1403 C1409 0.950 . S
H1404 C1410 0.949 . S
C1405 H1400 0.950 . S
C1405 C1407 1.327 . S
C1405 C1411 1.429 . S
C1406 C1398 1.574 . S
C1406 H1401 0.949 . S
C1406 C1412 1.368 . S
C1407 C1391 1.349 . S
C1407 H1399 0.950 . S
C1407 C1405 1.327 . S
C1408 C1396 1.349 . S
C1408 H1402 0.950 . S
C1408 C1409 1.327 . S
C1409 H1403 0.950 . S
C1409 C1408 1.327 . S
C1409 C1413 1.429 . S
C1410 C1393 1.574 . S
C1410 H1404 0.949 . S
C1410 C1414 1.368 . S
C1411 C1392 1.429 . S
C1411 C1405 1.429 . S
C1411 C1412 1.523 . S
C1412 C1393 1.368 . S
C1412 C1406 1.368 . S
C1412 C1411 1.523 . S
C1413 C1397 1.429 . S
C1413 C1409 1.429 . S
C1413 C1414 1.523 . S
C1414 C1398 1.368 . S
C1414 C1410 1.368 . S
C1414 C1413 1.523 . S
H1415 C1390 0.950 . S
H1416 C1392 0.950 . S
H1417 C1393 0.949 . S
H1418 C1395 0.950 . S
H1419 C1397 0.950 . S
C1420 C1421 1.349 . S
C1420 C1422 1.327 . S
C1420 H1445 0.950 . S
C1421 C1420 1.349 . S
C1421 C1437 1.349 . S
C1422 C1420 1.327 . S
C1422 C1441 1.429 . S
C1422 H1446 0.950 . S
C1423 C1440 1.574 1_545 S
C1423 C1442 1.368 . S
C1423 H1447 0.949 . S
H1424 C1428 0.949 . S
C1425 C1426 1.349 . S
C1425 C1427 1.327 . S
C1425 H1448 0.950 . S
C1426 C1425 1.349 . S
C1426 C1438 1.349 . S
C1427 C1425 1.327 . S
C1427 C1443 1.429 . S
C1427 H1449 0.950 . S
C1428 H1424 0.949 . S
C1428 C1436 1.574 1_565 S
C1428 C1444 1.368 . S
H1429 C1437 0.950 . S
H1430 C1435 0.950 . S
H1431 C1436 0.949 . S
H1432 C1438 0.950 . S
H1433 C1439 0.950 . S
H1434 C1440 0.949 . S
C1435 H1430 0.950 . S
C1435 C1437 1.327 . S
C1435 C1441 1.429 . S
C1436 C1428 1.574 1_545 S
C1436 H1431 0.949 . S
C1436 C1442 1.368 . S
C1437 C1421 1.349 . S
C1437 H1429 0.950 . S
C1437 C1435 1.327 . S
C1438 C1426 1.349 . S
C1438 H1432 0.950 . S
C1438 C1439 1.327 . S
C1439 H1433 0.950 . S
C1439 C1438 1.327 . S
C1439 C1443 1.429 . S
C1440 C1423 1.574 1_565 S
C1440 H1434 0.949 . S
C1440 C1444 1.368 . S
C1441 C1422 1.429 . S
C1441 C1435 1.429 . S
C1441 C1442 1.523 . S
C1442 C1423 1.368 . S
C1442 C1436 1.368 . S
C1442 C1441 1.523 . S
C1443 C1427 1.429 . S
C1443 C1439 1.429 . S
C1443 C1444 1.523 . S
C1444 C1428 1.368 . S
C1444 C1440 1.368 . S
C1444 C1443 1.523 . S
H1445 C1420 0.950 . S
H1446 C1422 0.950 . S
H1447 C1423 0.949 . S
H1448 C1425 0.950 . S
H1449 C1427 0.950 . S
C1450 C1451 1.349 . S
C1450 C1452 1.327 . S
C1450 H1475 0.950 . S
C1451 C1450 1.349 . S
C1451 C1467 1.349 . S
C1452 C1450 1.327 . S
C1452 C1471 1.429 . S
C1452 H1476 0.950 . S
C1453 C1470 1.574 . S
C1453 C1472 1.368 . S
C1453 H1477 0.949 . S
H1454 C1458 0.949 . S
C1455 C1456 1.349 . S
C1455 C1457 1.327 . S
C1455 H1478 0.950 . S
C1456 C1455 1.349 . S
C1456 C1468 1.349 . S
C1457 C1455 1.327 . S
C1457 C1473 1.429 . S
C1457 H1479 0.950 . S
C1458 H1454 0.949 . S
C1458 C1466 1.574 . S
C1458 C1474 1.368 . S
H1459 C1467 0.950 . S
H1460 C1465 0.950 . S
H1461 C1466 0.949 . S
H1462 C1468 0.950 . S
H1463 C1469 0.950 . S
H1464 C1470 0.949 . S
C1465 H1460 0.950 . S
C1465 C1467 1.327 . S
C1465 C1471 1.429 . S
C1466 C1458 1.574 . S
C1466 H1461 0.949 . S
C1466 C1472 1.368 . S
C1467 C1451 1.349 . S
C1467 H1459 0.950 . S
C1467 C1465 1.327 . S
C1468 C1456 1.349 . S
C1468 H1462 0.950 . S
C1468 C1469 1.327 . S
C1469 H1463 0.950 . S
C1469 C1468 1.327 . S
C1469 C1473 1.429 . S
C1470 C1453 1.574 . S
C1470 H1464 0.949 . S
C1470 C1474 1.368 . S
C1471 C1452 1.429 . S
C1471 C1465 1.429 . S
C1471 C1472 1.523 . S
C1472 C1453 1.368 . S
C1472 C1466 1.368 . S
C1472 C1471 1.523 . S
C1473 C1457 1.429 . S
C1473 C1469 1.429 . S
C1473 C1474 1.523 . S
C1474 C1458 1.368 . S
C1474 C1470 1.368 . S
C1474 C1473 1.523 . S
H1475 C1450 0.950 . S
H1476 C1452 0.950 . S
H1477 C1453 0.949 . S
H1478 C1455 0.950 . S
H1479 C1457 0.950 . S
C1480 C1481 1.349 . S
C1480 C1482 1.327 . S
C1480 H1505 0.950 . S
C1481 C1480 1.349 . S
C1481 C1497 1.349 . S
C1482 C1480 1.327 . S
C1482 C1501 1.429 . S
C1482 H1506 0.950 . S
C1483 C1500 1.574 . S
C1483 C1502 1.368 . S
C1483 H1507 0.949 . S
H1484 C1488 0.949 . S
C1485 C1486 1.349 . S
C1485 C1487 1.327 . S
C1485 H1508 0.950 . S
C1486 C1485 1.349 . S
C1486 C1498 1.349 . S
C1487 C1485 1.327 . S
C1487 C1503 1.429 . S
C1487 H1509 0.950 . S
C1488 H1484 0.949 . S
C1488 C1496 1.574 . S
C1488 C1504 1.368 . S
H1489 C1497 0.950 . S
H1490 C1495 0.950 . S
H1491 C1496 0.949 . S
H1492 C1498 0.950 . S
H1493 C1499 0.950 . S
H1494 C1500 0.949 . S
C1495 H1490 0.950 . S
C1495 C1497 1.327 . S
C1495 C1501 1.429 . S
C1496 C1488 1.574 . S
C1496 H1491 0.949 . S
C1496 C1502 1.368 . S
C1497 C1481 1.349 . S
C1497 H1489 0.950 . S
C1497 C1495 1.327 . S
C1498 C1486 1.349 . S
C1498 H1492 0.950 . S
C1498 C1499 1.327 . S
C1499 H1493 0.950 . S
C1499 C1498 1.327 . S
C1499 C1503 1.429 . S
C1500 C1483 1.574 . S
C1500 H1494 0.949 . S
C1500 C1504 1.368 . S
C1501 C1482 1.429 . S
C1501 C1495 1.429 . S
C1501 C1502 1.523 . S
C1502 C1483 1.368 . S
C1502 C1496 1.368 . S
C1502 C1501 1.523 . S
C1503 C1487 1.429 . S
C1503 C1499 1.429 . S
C1503 C1504 1.523 . S
C1504 C1488 1.368 . S
C1504 C1500 1.368 . S
C1504 C1503 1.523 . S
H1505 C1480 0.950 . S
H1506 C1482 0.950 . S
H1507 C1483 0.949 . S
H1508 C1485 0.950 . S
H1509 C1487 0.950 . S
C1510 C1511 1.349 . S
C1510 C1512 1.327 . S
C1510 H1535 0.950 . S
C1511 C1510 1.349 . S
C1511 C1527 1.349 . S
C1512 C1510 1.327 . S
C1512 C1531 1.429 . S
C1512 H1536 0.950 . S
C1513 C1530 1.574 . S
C1513 C1532 1.368 . S
C1513 H1537 0.949 . S
H1514 C1518 0.949 . S
C1515 C1516 1.349 . S
C1515 C1517 1.327 . S
C1515 H1538 0.950 . S
C1516 C1515 1.349 . S
C1516 C1528 1.349 . S
C1517 C1515 1.327 . S
C1517 C1533 1.429 . S
C1517 H1539 0.950 . S
C1518 H1514 0.949 . S
C1518 C1526 1.574 . S
C1518 C1534 1.368 . S
H1519 C1527 0.950 . S
H1520 C1525 0.950 . S
H1521 C1526 0.949 . S
H1522 C1528 0.950 . S
H1523 C1529 0.950 . S
H1524 C1530 0.949 . S
C1525 H1520 0.950 . S
C1525 C1527 1.327 . S
C1525 C1531 1.429 . S
C1526 C1518 1.574 . S
C1526 H1521 0.949 . S
C1526 C1532 1.368 . S
C1527 C1511 1.349 . S
C1527 H1519 0.950 . S
C1527 C1525 1.327 . S
C1528 C1516 1.349 . S
C1528 H1522 0.950 . S
C1528 C1529 1.327 . S
C1529 H1523 0.950 . S
C1529 C1528 1.327 . S
C1529 C1533 1.429 . S
C1530 C1513 1.574 . S
C1530 H1524 0.949 . S
C1530 C1534 1.368 . S
C1531 C1512 1.429 . S
C1531 C1525 1.429 . S
C1531 C1532 1.523 . S
C1532 C1513 1.368 . S
C1532 C1526 1.368 . S
C1532 C1531 1.523 . S
C1533 C1517 1.429 . S
C1533 C1529 1.429 . S
C1533 C1534 1.523 . S
C1534 C1518 1.368 . S
C1534 C1530 1.368 . S
C1534 C1533 1.523 . S
H1535 C1510 0.950 . S
H1536 C1512 0.950 . S
H1537 C1513 0.949 . S
H1538 C1515 0.950 . S
H1539 C1517 0.950 . S
C1540 C1541 1.349 . S
C1540 C1542 1.327 . S
C1540 H1565 0.950 . S
C1541 C1540 1.349 . S
C1541 C1557 1.349 . S
C1542 C1540 1.327 . S
C1542 C1561 1.429 . S
C1542 H1566 0.950 . S
C1543 C1560 1.574 . S
C1543 C1562 1.368 . S
C1543 H1567 0.949 . S
H1544 C1548 0.949 . S
C1545 C1546 1.349 . S
C1545 C1547 1.327 . S
C1545 H1568 0.950 . S
C1546 C1545 1.349 . S
C1546 C1558 1.349 . S
C1547 C1545 1.327 . S
C1547 C1563 1.429 . S
C1547 H1569 0.950 . S
C1548 H1544 0.949 . S
C1548 C1556 1.574 . S
C1548 C1564 1.368 . S
H1549 C1557 0.950 . S
H1550 C1555 0.950 . S
H1551 C1556 0.949 . S
H1552 C1558 0.950 . S
H1553 C1559 0.950 . S
H1554 C1560 0.949 . S
C1555 H1550 0.950 . S
C1555 C1557 1.327 . S
C1555 C1561 1.429 . S
C1556 C1548 1.574 . S
C1556 H1551 0.949 . S
C1556 C1562 1.368 . S
C1557 C1541 1.349 . S
C1557 H1549 0.950 . S
C1557 C1555 1.327 . S
C1558 C1546 1.349 . S
C1558 H1552 0.950 . S
C1558 C1559 1.327 . S
C1559 H1553 0.950 . S
C1559 C1558 1.327 . S
C1559 C1563 1.429 . S
C1560 C1543 1.574 . S
C1560 H1554 0.949 . S
C1560 C1564 1.368 . S
C1561 C1542 1.429 . S
C1561 C1555 1.429 . S
C1561 C1562 1.523 . S
C1562 C1543 1.368 . S
C1562 C1556 1.368 . S
C1562 C1561 1.523 . S
C1563 C1547 1.429 . S
C1563 C1559 1.429 . S
C1563 C1564 1.523 . S
C1564 C1548 1.368 . S
C1564 C1560 1.368 . S
C1564 C1563 1.523 . S
H1565 C1540 0.950 . S
H1566 C1542 0.950 . S
H1567 C1543 0.949 . S
H1568 C1545 0.950 . S
H1569 C1547 0.950 . S
C1570 C1571 1.349 . S
C1570 C1572 1.327 . S
C1570 H1595 0.950 1_455 S
C1571 C1570 1.349 . S
C1571 C1587 1.349 . S
C1572 C1570 1.327 . S
C1572 C1591 1.429 . S
C1572 H1596 0.951 1_455 S
C1573 C1590 1.574 . S
C1573 C1592 1.368 . S
C1573 H1597 0.949 . S
H1574 C1578 0.949 . S
C1575 C1576 1.349 . S
C1575 C1577 1.327 . S
C1575 H1598 0.950 . S
C1576 C1575 1.349 . S
C1576 C1588 1.349 . S
C1577 C1575 1.327 . S
C1577 C1593 1.429 . S
C1577 H1599 0.950 . S
C1578 H1574 0.949 . S
C1578 C1586 1.574 . S
C1578 C1594 1.368 . S
H1579 C1587 0.950 . S
H1580 C1585 0.950 . S
H1581 C1586 0.949 . S
H1582 C1588 0.950 . S
H1583 C1589 0.950 . S
H1584 C1590 0.949 . S
C1585 H1580 0.950 . S
C1585 C1587 1.327 . S
C1585 C1591 1.429 . S
C1586 C1578 1.574 . S
C1586 H1581 0.949 . S
C1586 C1592 1.368 1_554 S
C1587 C1571 1.349 . S
C1587 H1579 0.950 . S
C1587 C1585 1.327 . S
C1588 C1576 1.349 . S
C1588 H1582 0.950 . S
C1588 C1589 1.327 . S
C1589 H1583 0.950 . S
C1589 C1588 1.327 . S
C1589 C1593 1.429 . S
C1590 C1573 1.574 . S
C1590 H1584 0.949 . S
C1590 C1594 1.368 1_556 S
C1591 C1572 1.429 . S
C1591 C1585 1.429 . S
C1591 C1592 1.523 . S
C1592 C1573 1.368 . S
C1592 C1586 1.368 1_556 S
C1592 C1591 1.523 . S
C1593 C1577 1.429 . S
C1593 C1589 1.429 . S
C1593 C1594 1.523 . S
C1594 C1578 1.368 . S
C1594 C1590 1.368 1_554 S
C1594 C1593 1.523 . S
H1595 C1570 0.950 1_655 S
H1596 C1572 0.951 1_655 S
H1597 C1573 0.949 . S
H1598 C1575 0.950 . S
H1599 C1577 0.950 . S
C1600 C1601 1.349 . S
C1600 C1602 1.327 . S
C1600 H1625 0.950 . S
C1601 C1600 1.349 . S
C1601 C1617 1.349 . S
C1602 C1600 1.327 . S
C1602 C1621 1.429 . S
C1602 H1626 0.950 . S
C1603 C1620 1.574 . S
C1603 C1622 1.368 . S
C1603 H1627 0.949 . S
H1604 C1608 0.949 . S
C1605 C1606 1.349 . S
C1605 C1607 1.327 . S
C1605 H1628 0.950 . S
C1606 C1605 1.349 . S
C1606 C1618 1.349 . S
C1607 C1605 1.327 . S
C1607 C1623 1.429 . S
C1607 H1629 0.950 . S
C1608 H1604 0.949 . S
C1608 C1616 1.574 . S
C1608 C1624 1.368 . S
H1609 C1617 0.950 . S
H1610 C1615 0.950 . S
H1611 C1616 0.949 . S
H1612 C1618 0.950 . S
H1613 C1619 0.950 . S
H1614 C1620 0.949 . S
C1615 H1610 0.950 . S
C1615 C1617 1.327 . S
C1615 C1621 1.429 . S
C1616 C1608 1.574 . S
C1616 H1611 0.949 . S
C1616 C1622 1.368 . S
C1617 C1601 1.349 . S
C1617 H1609 0.950 . S
C1617 C1615 1.327 . S
C1618 C1606 1.349 . S
C1618 H1612 0.950 . S
C1618 C1619 1.327 . S
C1619 H1613 0.950 . S
C1619 C1618 1.327 . S
C1619 C1623 1.429 . S
C1620 C1603 1.574 . S
C1620 H1614 0.949 . S
C1620 C1624 1.368 . S
C1621 C1602 1.429 . S
C1621 C1615 1.429 . S
C1621 C1622 1.523 . S
C1622 C1603 1.368 . S
C1622 C1616 1.368 . S
C1622 C1621 1.523 . S
C1623 C1607 1.429 . S
C1623 C1619 1.429 . S
C1623 C1624 1.523 . S
C1624 C1608 1.368 . S
C1624 C1620 1.368 . S
C1624 C1623 1.523 . S
H1625 C1600 0.950 . S
H1626 C1602 0.950 . S
H1627 C1603 0.949 . S
H1628 C1605 0.950 . S
H1629 C1607 0.950 . S
C1630 C1631 1.349 . S
C1630 C1632 1.327 . S
C1630 H1655 0.950 . S
C1631 C1630 1.349 . S
C1631 C1647 1.349 . S
C1632 C1630 1.327 . S
C1632 C1651 1.429 . S
C1632 H1656 0.950 . S
C1633 C1650 1.574 . S
C1633 C1652 1.368 . S
C1633 H1657 0.949 . S
H1634 C1638 0.949 . S
C1635 C1636 1.349 . S
C1635 C1637 1.327 . S
C1635 H1658 0.950 . S
C1636 C1635 1.349 . S
C1636 C1648 1.349 . S
C1637 C1635 1.327 . S
C1637 C1653 1.429 . S
C1637 H1659 0.950 . S
C1638 H1634 0.949 . S
C1638 C1646 1.574 . S
C1638 C1654 1.368 . S
H1639 C1647 0.950 . S
H1640 C1645 0.950 . S
H1641 C1646 0.949 . S
H1642 C1648 0.950 . S
H1643 C1649 0.950 . S
H1644 C1650 0.949 . S
C1645 H1640 0.950 . S
C1645 C1647 1.327 . S
C1645 C1651 1.429 . S
C1646 C1638 1.574 . S
C1646 H1641 0.949 . S
C1646 C1652 1.368 . S
C1647 C1631 1.349 . S
C1647 H1639 0.950 . S
C1647 C1645 1.327 . S
C1648 C1636 1.349 . S
C1648 H1642 0.950 . S
C1648 C1649 1.327 . S
C1649 H1643 0.950 . S
C1649 C1648 1.327 . S
C1649 C1653 1.429 . S
C1650 C1633 1.574 . S
C1650 H1644 0.949 . S
C1650 C1654 1.368 . S
C1651 C1632 1.429 . S
C1651 C1645 1.429 . S
C1651 C1652 1.523 . S
C1652 C1633 1.368 . S
C1652 C1646 1.368 . S
C1652 C1651 1.523 . S
C1653 C1637 1.429 . S
C1653 C1649 1.429 . S
C1653 C1654 1.523 . S
C1654 C1638 1.368 . S
C1654 C1650 1.368 . S
C1654 C1653 1.523 . S
H1655 C1630 0.950 . S
H1656 C1632 0.950 . S
H1657 C1633 0.949 . S
H1658 C1635 0.950 . S
H1659 C1637 0.950 . S
C1660 C1661 1.349 . S
C1660 C1662 1.327 . S
C1660 H1685 0.950 . S
C1661 C1660 1.349 . S
C1661 C1677 1.349 . S
C1662 C1660 1.327 . S
C1662 C1681 1.429 . S
C1662 H1686 0.950 . S
C1663 C1680 1.574 . S
C1663 C1682 1.368 . S
C1663 H1687 0.949 . S
H1664 C1668 0.949 . S
C1665 C1666 1.349 . S
C1665 C1667 1.327 . S
C1665 H1688 0.950 . S
C1666 C1665 1.349 . S
C1666 C1678 1.349 . S
C1667 C1665 1.327 . S
C1667 C1683 1.429 . S
C1667 H1689 0.950 . S
C1668 H1664 0.949 . S
C1668 C1676 1.574 . S
C1668 C1684 1.368 . S
H1669 C1677 0.950 . S
H1670 C1675 0.950 . S
H1671 C1676 0.949 . S
H1672 C1678 0.950 . S
H1673 C1679 0.950 . S
H1674 C1680 0.949 . S
C1675 H1670 0.950 . S
C1675 C1677 1.327 . S
C1675 C1681 1.429 . S
C1676 C1668 1.574 . S
C1676 H1671 0.949 . S
C1676 C1682 1.368 . S
C1677 C1661 1.349 . S
C1677 H1669 0.950 . S
C1677 C1675 1.327 . S
C1678 C1666 1.349 . S
C1678 H1672 0.950 . S
C1678 C1679 1.327 . S
C1679 H1673 0.950 . S
C1679 C1678 1.327 . S
C1679 C1683 1.429 . S
C1680 C1663 1.574 . S
C1680 H1674 0.949 . S
C1680 C1684 1.368 . S
C1681 C1662 1.429 . S
C1681 C1675 1.429 . S
C1681 C1682 1.523 . S
C1682 C1663 1.368 . S
C1682 C1676 1.368 . S
C1682 C1681 1.523 . S
C1683 C1667 1.429 . S
C1683 C1679 1.429 . S
C1683 C1684 1.523 . S
C1684 C1668 1.368 . S
C1684 C1680 1.368 . S
C1684 C1683 1.523 . S
H1685 C1660 0.950 . S
H1686 C1662 0.950 . S
H1687 C1663 0.949 . S
H1688 C1665 0.950 . S
H1689 C1667 0.950 . S
C1690 C1691 1.349 . S
C1690 C1692 1.327 . S
C1690 H1715 0.950 . S
C1691 C1690 1.349 . S
C1691 C1707 1.349 . S
C1692 C1690 1.327 . S
C1692 C1711 1.429 . S
C1692 H1716 0.950 . S
C1693 C1710 1.574 . S
C1693 C1712 1.368 . S
C1693 H1717 0.949 . S
H1694 C1698 0.949 . S
C1695 C1696 1.349 . S
C1695 C1697 1.327 . S
C1695 H1718 0.950 . S
C1696 C1695 1.349 . S
C1696 C1708 1.349 . S
C1697 C1695 1.327 . S
C1697 C1713 1.429 . S
C1697 H1719 0.950 . S
C1698 H1694 0.949 . S
C1698 C1706 1.574 . S
C1698 C1714 1.368 . S
H1699 C1707 0.950 . S
H1700 C1705 0.950 . S
H1701 C1706 0.949 . S
H1702 C1708 0.950 . S
H1703 C1709 0.950 . S
H1704 C1710 0.949 . S
C1705 H1700 0.950 . S
C1705 C1707 1.327 . S
C1705 C1711 1.429 . S
C1706 C1698 1.574 . S
C1706 H1701 0.949 . S
C1706 C1712 1.368 . S
C1707 C1691 1.349 . S
C1707 H1699 0.950 . S
C1707 C1705 1.327 . S
C1708 C1696 1.349 . S
C1708 H1702 0.950 . S
C1708 C1709 1.327 . S
C1709 H1703 0.950 . S
C1709 C1708 1.327 . S
C1709 C1713 1.429 . S
C1710 C1693 1.574 . S
C1710 H1704 0.949 . S
C1710 C1714 1.368 . S
C1711 C1692 1.429 . S
C1711 C1705 1.429 . S
C1711 C1712 1.523 . S
C1712 C1693 1.368 . S
C1712 C1706 1.368 . S
C1712 C1711 1.523 . S
C1713 C1697 1.429 . S
C1713 C1709 1.429 . S
C1713 C1714 1.523 . S
C1714 C1698 1.368 . S
C1714 C1710 1.368 . S
C1714 C1713 1.523 . S
H1715 C1690 0.950 . S
H1716 C1692 0.950 . S
H1717 C1693 0.949 . S
H1718 C1695 0.950 . S
H1719 C1697 0.950 . S
C1720 C1721 1.349 . S
C1720 C1722 1.327 . S
C1720 H1745 0.950 . S
C1721 C1720 1.349 . S
C1721 C1737 1.349 . S
C1722 C1720 1.327 . S
C1722 C1741 1.429 . S
C1722 H1746 0.950 . S
C1723 C1740 1.574 . S
C1723 C1742 1.368 . S
C1723 H1747 0.949 . S
H1724 C1728 0.949 . S
C1725 C1726 1.349 . S
C1725 C1727 1.327 . S
C1725 H1748 0.950 . S
C1726 C1725 1.349 . S
C1726 C1738 1.349 . S
C1727 C1725 1.327 . S
C1727 C1743 1.429 . S
C1727 H1749 0.950 . S
C1728 H1724 0.949 . S
C1728 C1736 1.574 . S
C1728 C1744 1.368 . S
H1729 C1737 0.950 . S
H1730 C1735 0.950 . S
H1731 C1736 0.949 . S
H1732 C1738 0.950 . S
H1733 C1739 0.950 . S
H1734 C1740 0.949 . S
C1735 H1730 0.950 . S
C1735 C1737 1.327 . S
C1735 C1741 1.429 . S
C1736 C1728 1.574 . S
C1736 H1731 0.949 . S
C1736 C1742 1.368 . S
C1737 C1721 1.349 . S
C1737 H1729 0.950 . S
C1737 C1735 1.327 . S
C1738 C1726 1.349 . S
C1738 H1732 0.950 . S
C1738 C1739 1.327 . S
C1739 H1733 0.950 . S
C1739 C1738 1.327 . S
C1739 C1743 1.429 . S
C1740 C1723 1.574 . S
C1740 H1734 0.949 . S
C1740 C1744 1.368 . S
C1741 C1722 1.429 . S
C1741 C1735 1.429 . S
C1741 C1742 1.523 . S
C1742 C1723 1.368 . S
C1742 C1736 1.368 . S
C1742 C1741 1.523 . S
C1743 C1727 1.429 . S
C1743 C1739 1.429 . S
C1743 C1744 1.523 . S
C1744 C1728 1.368 . S
C1744 C1740 1.368 . S
C1744 C1743 1.523 . S
H1745 C1720 0.950 . S
H1746 C1722 0.950 . S
H1747 C1723 0.949 . S
H1748 C1725 0.950 . S
H1749 C1727 0.950 . S
C1750 C1751 1.349 . S
C1750 C1752 1.327 . S
C1750 H1775 0.950 . S
C1751 C1750 1.349 . S
C1751 C1767 1.349 . S
C1752 C1750 1.327 . S
C1752 C1771 1.429 . S
C1752 H1776 0.950 . S
C1753 C1770 1.574 . S
C1753 C1772 1.368 . S
C1753 H1777 0.949 . S
H1754 C1758 0.949 . S
C1755 C1756 1.349 . S
C1755 C1757 1.327 1_455 S
C1755 H1778 0.950 . S
C1756 C1755 1.349 . S
C1756 C1768 1.349 . S
C1757 C1755 1.327 1_655 S
C1757 C1773 1.429 . S
C1757 H1779 0.950 . S
C1758 H1754 0.949 . S
C1758 C1766 1.574 . S
C1758 C1774 1.368 . S
H1759 C1767 0.950 . S
H1760 C1765 0.950 . S
H1761 C1766 0.949 . S
H1762 C1768 0.950 . S
H1763 C1769 0.950 1_655 S
H1764 C1770 0.949 . S
C1765 H1760 0.950 . S
C1765 C1767 1.327 . S
C1765 C1771 1.429 . S
C1766 C1758 1.574 . S
C1766 H1761 0.949 . S
C1766 C1772 1.368 . S
C1767 C1751 1.349 . S
C1767 H1759 0.950 . S
C1767 C1765 1.327 . S
C1768 C1756 1.349 . S
C1768 H1762 0.950 . S
C1768 C1769 1.327 . S
C1769 H1763 0.950 1_455 S
C1769 C1768 1.327 . S
C1769 C1773 1.429 1_455 S
C1770 C1753 1.574 . S
C1770 H1764 0.949 . S
C1770 C1774 1.368 . S
C1771 C1752 1.429 . S
C1771 C1765 1.429 . S
C1771 C1772 1.523 . S
C1772 C1753 1.368 . S
C1772 C1766 1.368 . S
C1772 C1771 1.523 . S
C1773 C1757 1.429 . S
C1773 C1769 1.429 1_655 S
C1773 C1774 1.523 . S
C1774 C1758 1.368 . S
C1774 C1770 1.368 . S
C1774 C1773 1.523 . S
H1775 C1750 0.950 . S
H1776 C1752 0.950 . S
H1777 C1753 0.949 . S
H1778 C1755 0.950 . S
H1779 C1757 0.950 . S
C1780 C1781 1.349 . S
C1780 C1782 1.327 . S
C1780 H1805 0.950 . S
C1781 C1780 1.349 . S
C1781 C1797 1.349 . S
C1782 C1780 1.327 . S
C1782 C1801 1.429 . S
C1782 H1806 0.950 . S
C1783 C1800 1.574 . S
C1783 C1802 1.368 . S
C1783 H1807 0.949 . S
H1784 C1788 0.949 . S
C1785 C1786 1.349 . S
C1785 C1787 1.327 . S
C1785 H1808 0.950 . S
C1786 C1785 1.349 . S
C1786 C1798 1.349 . S
C1787 C1785 1.327 . S
C1787 C1803 1.429 . S
C1787 H1809 0.950 . S
C1788 H1784 0.949 . S
C1788 C1796 1.574 . S
C1788 C1804 1.368 . S
H1789 C1797 0.950 . S
H1790 C1795 0.950 . S
H1791 C1796 0.949 . S
H1792 C1798 0.950 . S
H1793 C1799 0.950 . S
H1794 C1800 0.949 . S
C1795 H1790 0.950 . S
C1795 C1797 1.327 . S
C1795 C1801 1.429 . S
C1796 C1788 1.574 . S
C1796 H1791 0.949 . S
C1796 C1802 1.368 . S
C1797 C1781 1.349 . S
C1797 H1789 0.950 . S
C1797 C1795 1.327 . S
C1798 C1786 1.349 . S
C1798 H1792 0.950 . S
C1798 C1799 1.327 . S
C1799 H1793 0.950 . S
C1799 C1798 1.327 . S
C1799 C1803 1.429 . S
C1800 C1783 1.574 . S
C1800 H1794 0.949 . S
C1800 C1804 1.368 . S
C1801 C1782 1.429 . S
C1801 C1795 1.429 . S
C1801 C1802 1.523 . S
C1802 C1783 1.368 . S
C1802 C1796 1.368 . S
C1802 C1801 1.523 . S
C1803 C1787 1.429 . S
C1803 C1799 1.429 . S
C1803 C1804 1.523 . S
C1804 C1788 1.368 . S
C1804 C1800 1.368 . S
C1804 C1803 1.523 . S
H1805 C1780 0.950 . S
H1806 C1782 0.950 . S
H1807 C1783 0.949 . S
H1808 C1785 0.950 . S
H1809 C1787 0.950 . S
C1810 C1811 1.349 . S
C1810 C1812 1.327 . S
C1810 H1835 0.950 . S
C1811 C1810 1.349 . S
C1811 C1827 1.349 . S
C1812 C1810 1.327 . S
C1812 C1831 1.429 . S
C1812 H1836 0.950 . S
C1813 C1830 1.574 . S
C1813 C1832 1.368 . S
C1813 H1837 0.949 . S
H1814 C1818 0.949 . S
C1815 C1816 1.349 . S
C1815 C1817 1.327 . S
C1815 H1838 0.920 1_556 S
C1816 C1815 1.349 . S
C1816 C1828 1.349 . S
C1817 C1815 1.327 . S
C1817 C1833 1.429 . S
C1817 H1839 0.950 . S
C1818 H1814 0.949 . S
C1818 C1826 1.574 . S
C1818 C1834 1.368 . S
H1819 C1827 0.950 . S
H1820 C1825 0.950 . S
H1821 C1826 0.949 . S
H1822 C1828 0.950 . S
H1823 C1829 0.950 . S
H1824 C1830 0.949 . S
C1825 H1820 0.950 . S
C1825 C1827 1.327 . S
C1825 C1831 1.429 . S
C1826 C1818 1.574 . S
C1826 H1821 0.949 . S
C1826 C1832 1.368 . S
C1827 C1811 1.349 . S
C1827 H1819 0.950 . S
C1827 C1825 1.327 . S
C1828 C1816 1.349 . S
C1828 H1822 0.950 . S
C1828 C1829 1.327 . S
C1829 H1823 0.950 . S
C1829 C1828 1.327 . S
C1829 C1833 1.429 . S
C1830 C1813 1.574 . S
C1830 H1824 0.949 . S
C1830 C1834 1.368 . S
C1831 C1812 1.429 . S
C1831 C1825 1.429 . S
C1831 C1832 1.523 . S
C1832 C1813 1.368 . S
C1832 C1826 1.368 . S
C1832 C1831 1.523 . S
C1833 C1817 1.429 . S
C1833 C1829 1.429 . S
C1833 C1834 1.523 . S
C1834 C1818 1.368 . S
C1834 C1830 1.368 . S
C1834 C1833 1.523 . S
H1835 C1810 0.950 . S
H1836 C1812 0.950 . S
H1837 C1813 0.949 . S
H1838 C1815 0.920 1_554 S
H1839 C1817 0.950 . S
C1840 C1841 1.349 . S
C1840 C1842 1.327 . S
C1840 H1865 0.950 . S
C1841 C1840 1.349 . S
C1841 C1857 1.349 . S
C1842 C1840 1.327 . S
C1842 C1861 1.429 . S
C1842 H1866 0.950 . S
C1843 C1860 1.574 . S
C1843 C1862 1.368 . S
C1843 H1867 0.949 . S
H1844 C1848 0.949 . S
C1845 C1846 1.349 . S
C1845 C1847 1.327 . S
C1845 H1868 0.950 . S
C1846 C1845 1.349 . S
C1846 C1858 1.349 . S
C1847 C1845 1.327 . S
C1847 C1863 1.429 1_554 S
C1847 H1869 0.950 . S
C1848 H1844 0.949 . S
C1848 C1856 1.574 . S
C1848 C1864 1.368 . S
H1849 C1857 0.950 . S
H1850 C1855 0.950 . S
H1851 C1856 0.949 . S
H1852 C1858 0.950 . S
H1853 C1859 0.950 1_556 S
H1854 C1860 0.949 . S
C1855 H1850 0.950 . S
C1855 C1857 1.327 . S
C1855 C1861 1.429 . S
C1856 C1848 1.574 . S
C1856 H1851 0.949 . S
C1856 C1862 1.368 . S
C1857 C1841 1.349 . S
C1857 H1849 0.950 . S
C1857 C1855 1.327 . S
C1858 C1846 1.349 . S
C1858 H1852 0.950 . S
C1858 C1859 1.327 . S
C1859 H1853 0.950 1_554 S
C1859 C1858 1.327 . S
C1859 C1863 1.429 1_554 S
C1860 C1843 1.574 . S
C1860 H1854 0.949 . S
C1860 C1864 1.368 . S
C1861 C1842 1.429 . S
C1861 C1855 1.429 . S
C1861 C1862 1.523 . S
C1862 C1843 1.368 . S
C1862 C1856 1.368 . S
C1862 C1861 1.523 . S
C1863 C1847 1.429 1_556 S
C1863 C1859 1.429 1_556 S
C1863 C1864 1.523 . S
C1864 C1848 1.368 . S
C1864 C1860 1.368 . S
C1864 C1863 1.523 . S
H1865 C1840 0.950 . S
H1866 C1842 0.950 . S
H1867 C1843 0.949 . S
H1868 C1845 0.950 . S
H1869 C1847 0.950 . S
C1870 C1871 1.349 . S
C1870 C1872 1.327 . S
C1870 H1895 0.950 . S
C1871 C1870 1.349 . S
C1871 C1887 1.349 . S
C1872 C1870 1.327 . S
C1872 C1891 1.429 . S
C1872 H1896 0.950 . S
C1873 C1890 1.574 . S
C1873 C1892 1.368 . S
C1873 H1897 0.949 . S
H1874 C1878 0.949 . S
C1875 C1876 1.349 . S
C1875 C1877 1.327 . S
C1875 H1898 0.950 . S
C1876 C1875 1.349 . S
C1876 C1888 1.349 . S
C1877 C1875 1.327 . S
C1877 C1893 1.429 . S
C1877 H1899 0.950 . S
C1878 H1874 0.949 . S
C1878 C1886 1.574 . S
C1878 C1894 1.368 . S
H1879 C1887 0.950 . S
H1880 C1885 0.950 . S
H1881 C1886 0.949 . S
H1882 C1888 0.950 . S
H1883 C1889 0.950 . S
H1884 C1890 0.949 . S
C1885 H1880 0.950 . S
C1885 C1887 1.327 . S
C1885 C1891 1.429 . S
C1886 C1878 1.574 . S
C1886 H1881 0.949 . S
C1886 C1892 1.368 . S
C1887 C1871 1.349 . S
C1887 H1879 0.950 . S
C1887 C1885 1.327 . S
C1888 C1876 1.349 . S
C1888 H1882 0.950 . S
C1888 C1889 1.327 . S
C1889 H1883 0.950 . S
C1889 C1888 1.327 . S
C1889 C1893 1.429 . S
C1890 C1873 1.574 . S
C1890 H1884 0.949 . S
C1890 C1894 1.368 . S
C1891 C1872 1.429 . S
C1891 C1885 1.429 . S
C1891 C1892 1.523 . S
C1892 C1873 1.368 . S
C1892 C1886 1.368 . S
C1892 C1891 1.523 . S
C1893 C1877 1.429 . S
C1893 C1889 1.429 . S
C1893 C1894 1.523 . S
C1894 C1878 1.368 . S
C1894 C1890 1.368 . S
C1894 C1893 1.523 . S
H1895 C1870 0.950 . S
H1896 C1872 0.950 . S
H1897 C1873 0.949 . S
H1898 C1875 0.950 . S
H1899 C1877 0.950 . S
C1900 C1901 1.349 1_655 S
C1900 C1902 1.327 . S
C1900 H1925 0.950 . S
C1901 C1900 1.349 1_455 S
C1901 C1917 1.349 . S
C1902 C1900 1.327 . S
C1902 C1921 1.429 . S
C1902 H1926 0.950 . S
C1903 C1920 1.574 . S
C1903 C1922 1.368 . S
C1903 H1927 0.949 . S
H1904 C1908 0.949 . S
C1905 C1906 1.349 . S
C1905 C1907 1.327 . S
C1905 H1928 0.950 . S
C1906 C1905 1.349 . S
C1906 C1918 1.349 . S
C1907 C1905 1.327 . S
C1907 C1923 1.429 . S
C1907 H1929 0.950 . S
C1908 H1904 0.949 . S
C1908 C1916 1.574 . S
C1908 C1924 1.368 . S
H1909 C1917 0.950 . S
H1910 C1915 0.950 . S
H1911 C1916 0.949 . S
H1912 C1918 0.950 . S
H1913 C1919 0.950 . S
H1914 C1920 0.949 . S
C1915 H1910 0.950 . S
C1915 C1917 1.327 . S
C1915 C1921 1.429 1_455 S
C1916 C1908 1.574 . S
C1916 H1911 0.949 . S
C1916 C1922 1.368 . S
C1917 C1901 1.349 . S
C1917 H1909 0.950 . S
C1917 C1915 1.327 . S
C1918 C1906 1.349 . S
C1918 H1912 0.950 . S
C1918 C1919 1.327 . S
C1919 H1913 0.950 . S
C1919 C1918 1.327 . S
C1919 C1923 1.429 . S
C1920 C1903 1.574 . S
C1920 H1914 0.949 . S
C1920 C1924 1.368 . S
C1921 C1902 1.429 . S
C1921 C1915 1.429 1_655 S
C1921 C1922 1.523 . S
C1922 C1903 1.368 . S
C1922 C1916 1.368 . S
C1922 C1921 1.523 . S
C1923 C1907 1.429 . S
C1923 C1919 1.429 . S
C1923 C1924 1.523 . S
C1924 C1908 1.368 . S
C1924 C1920 1.368 . S
C1924 C1923 1.523 . S
H1925 C1900 0.950 . S
H1926 C1902 0.950 . S
H1927 C1903 0.949 . S
H1928 C1905 0.950 . S
H1929 C1907 0.950 . S
C1930 C1931 1.349 . S
C1930 C1932 1.327 . S
C1930 H1955 0.950 . S
C1931 C1930 1.349 . S
C1931 C1947 1.349 . S
C1932 C1930 1.327 . S
C1932 C1951 1.429 . S
C1932 H1956 0.950 . S
C1933 C1950 1.574 . S
C1933 C1952 1.368 . S
C1933 H1957 0.949 . S
H1934 C1938 0.949 . S
C1935 C1936 1.349 . S
C1935 C1937 1.327 . S
C1935 H1958 0.950 . S
C1936 C1935 1.349 . S
C1936 C1948 1.349 . S
C1937 C1935 1.327 . S
C1937 C1953 1.429 . S
C1937 H1959 0.950 . S
C1938 H1934 0.949 . S
C1938 C1946 1.574 . S
C1938 C1954 1.368 . S
H1939 C1947 0.950 . S
H1940 C1945 0.950 . S
H1941 C1946 0.949 . S
H1942 C1948 0.950 . S
H1943 C1949 0.950 . S
H1944 C1950 0.949 . S
C1945 H1940 0.950 . S
C1945 C1947 1.327 . S
C1945 C1951 1.429 . S
C1946 C1938 1.574 . S
C1946 H1941 0.949 . S
C1946 C1952 1.368 . S
C1947 C1931 1.349 . S
C1947 H1939 0.950 . S
C1947 C1945 1.327 . S
C1948 C1936 1.349 . S
C1948 H1942 0.950 . S
C1948 C1949 1.327 . S
C1949 H1943 0.950 . S
C1949 C1948 1.327 . S
C1949 C1953 1.429 . S
C1950 C1933 1.574 . S
C1950 H1944 0.949 . S
C1950 C1954 1.368 . S
C1951 C1932 1.429 . S
C1951 C1945 1.429 . S
C1951 C1952 1.523 . S
C1952 C1933 1.368 . S
C1952 C1946 1.368 . S
C1952 C1951 1.523 . S
C1953 C1937 1.429 . S
C1953 C1949 1.429 . S
C1953 C1954 1.523 . S
C1954 C1938 1.368 . S
C1954 C1950 1.368 . S
C1954 C1953 1.523 . S
H1955 C1930 0.950 . S
H1956 C1932 0.950 . S
H1957 C1933 0.949 . S
H1958 C1935 0.950 . S
H1959 C1937 0.950 . S
C1960 C1961 1.349 . S
C1960 C1962 1.327 . S
C1960 H1985 0.950 . S
C1961 C1960 1.349 . S
C1961 C1977 1.349 . S
C1962 C1960 1.327 . S
C1962 C1981 1.429 . S
C1962 H1986 0.950 . S
C1963 C1980 1.574 . S
C1963 C1982 1.368 . S
C1963 H1987 0.949 . S
H1964 C1968 0.949 . S
C1965 C1966 1.349 . S
C1965 C1967 1.327 1_556 S
C1965 H1988 0.950 . S
C1966 C1965 1.349 . S
C1966 C1978 1.349 . S
C1967 C1965 1.327 1_554 S
C1967 C1983 1.429 . S
C1967 H1989 0.950 . S
C1968 H1964 0.949 . S
C1968 C1976 1.574 . S
C1968 C1984 1.368 . S
H1969 C1977 0.950 . S
H1970 C1975 0.950 . S
H1971 C1976 0.949 . S
H1972 C1978 0.950 . S
H1973 C1979 0.950 . S
H1974 C1980 0.949 . S
C1975 H1970 0.950 . S
C1975 C1977 1.327 . S
C1975 C1981 1.429 . S
C1976 C1968 1.574 . S
C1976 H1971 0.949 . S
C1976 C1982 1.368 . S
C1977 C1961 1.349 . S
C1977 H1969 0.950 . S
C1977 C1975 1.327 . S
C1978 C1966 1.349 . S
C1978 H1972 0.950 . S
C1978 C1979 1.327 . S
C1979 H1973 0.950 . S
C1979 C1978 1.327 . S
C1979 C1983 1.429 1_556 S
C1980 C1963 1.574 . S
C1980 H1974 0.949 . S
C1980 C1984 1.368 . S
C1981 C1962 1.429 . S
C1981 C1975 1.429 . S
C1981 C1982 1.523 . S
C1982 C1963 1.368 . S
C1982 C1976 1.368 . S
C1982 C1981 1.523 . S
C1983 C1967 1.429 . S
C1983 C1979 1.429 1_554 S
C1983 C1984 1.523 . S
C1984 C1968 1.368 . S
C1984 C1980 1.368 . S
C1984 C1983 1.523 . S
H1985 C1960 0.950 . S
H1986 C1962 0.950 . S
H1987 C1963 0.949 . S
H1988 C1965 0.950 . S
H1989 C1967 0.950 . S
C1990 C1991 1.349 . S
C1990 C1992 1.327 . S
C1990 H2015 0.950 . S
C1991 C1990 1.349 . S
C1991 C2007 1.349 . S
C1992 C1990 1.327 . S
C1992 C2011 1.429 . S
C1992 H2016 0.950 . S
C1993 C2010 1.574 . S
C1993 C2012 1.368 . S
C1993 H2017 0.949 . S
H1994 C1998 0.949 . S
C1995 C1996 1.349 . S
C1995 C1997 1.327 . S
C1995 H2018 0.950 . S
C1996 C1995 1.349 . S
C1996 C2008 1.349 . S
C1997 C1995 1.327 . S
C1997 C2013 1.429 . S
C1997 H2019 0.950 . S
C1998 H1994 0.949 . S
C1998 C2006 1.574 . S
C1998 C2014 1.368 . S
H1999 C2007 0.950 . S
H2000 C2005 0.950 . S
H2001 C2006 0.949 . S
H2002 C2008 0.950 . S
H2003 C2009 0.950 . S
H2004 C2010 0.949 . S
C2005 H2000 0.950 . S
C2005 C2007 1.327 . S
C2005 C2011 1.429 . S
C2006 C1998 1.574 . S
C2006 H2001 0.949 . S
C2006 C2012 1.368 . S
C2007 C1991 1.349 . S
C2007 H1999 0.950 . S
C2007 C2005 1.327 . S
C2008 C1996 1.349 . S
C2008 H2002 0.950 . S
C2008 C2009 1.327 . S
C2009 H2003 0.950 . S
C2009 C2008 1.327 . S
C2009 C2013 1.429 . S
C2010 C1993 1.574 . S
C2010 H2004 0.949 . S
C2010 C2014 1.368 . S
C2011 C1992 1.429 . S
C2011 C2005 1.429 . S
C2011 C2012 1.523 . S
C2012 C1993 1.368 . S
C2012 C2006 1.368 . S
C2012 C2011 1.523 . S
C2013 C1997 1.429 . S
C2013 C2009 1.429 . S
C2013 C2014 1.523 . S
C2014 C1998 1.368 . S
C2014 C2010 1.368 . S
C2014 C2013 1.523 . S
H2015 C1990 0.950 . S
H2016 C1992 0.950 . S
H2017 C1993 0.949 . S
H2018 C1995 0.950 . S
H2019 C1997 0.950 . S
C2020 C2021 1.349 . S
C2020 C2022 1.327 . S
C2020 H2045 0.950 . S
C2021 C2020 1.349 . S
C2021 C2037 1.349 . S
C2022 C2020 1.327 . S
C2022 C2041 1.429 . S
C2022 H2046 0.950 . S
C2023 C2040 1.574 . S
C2023 C2042 1.368 . S
C2023 H2047 0.949 . S
H2024 C2028 0.949 . S
C2025 C2026 1.349 . S
C2025 C2027 1.327 . S
C2025 H2048 0.950 . S
C2026 C2025 1.349 . S
C2026 C2038 1.349 . S
C2027 C2025 1.327 . S
C2027 C2043 1.429 . S
C2027 H2049 0.950 . S
C2028 H2024 0.949 . S
C2028 C2036 1.574 . S
C2028 C2044 1.368 . S
H2029 C2037 0.950 . S
H2030 C2035 0.950 . S
H2031 C2036 0.949 . S
H2032 C2038 0.950 . S
H2033 C2039 0.950 . S
H2034 C2040 0.949 . S
C2035 H2030 0.950 . S
C2035 C2037 1.327 . S
C2035 C2041 1.429 . S
C2036 C2028 1.574 . S
C2036 H2031 0.949 . S
C2036 C2042 1.368 . S
C2037 C2021 1.349 . S
C2037 H2029 0.950 . S
C2037 C2035 1.327 . S
C2038 C2026 1.349 . S
C2038 H2032 0.950 . S
C2038 C2039 1.327 . S
C2039 H2033 0.950 . S
C2039 C2038 1.327 . S
C2039 C2043 1.429 . S
C2040 C2023 1.574 . S
C2040 H2034 0.949 . S
C2040 C2044 1.368 . S
C2041 C2022 1.429 . S
C2041 C2035 1.429 . S
C2041 C2042 1.523 . S
C2042 C2023 1.368 . S
C2042 C2036 1.368 . S
C2042 C2041 1.523 . S
C2043 C2027 1.429 . S
C2043 C2039 1.429 . S
C2043 C2044 1.523 . S
C2044 C2028 1.368 . S
C2044 C2040 1.368 . S
C2044 C2043 1.523 . S
H2045 C2020 0.950 . S
H2046 C2022 0.950 . S
H2047 C2023 0.949 . S
H2048 C2025 0.950 . S
H2049 C2027 0.950 . S
C2050 C2051 1.349 . S
C2050 C2052 1.327 . S
C2050 H2075 0.950 . S
C2051 C2050 1.349 . S
C2051 C2067 1.349 . S
C2052 C2050 1.327 . S
C2052 C2071 1.429 . S
C2052 H2076 0.950 . S
C2053 C2070 1.574 . S
C2053 C2072 1.368 . S
C2053 H2077 0.949 . S
H2054 C2058 0.949 . S
C2055 C2056 1.349 . S
C2055 C2057 1.327 . S
C2055 H2078 0.950 . S
C2056 C2055 1.349 . S
C2056 C2068 1.349 . S
C2057 C2055 1.327 . S
C2057 C2073 1.429 . S
C2057 H2079 0.950 . S
C2058 H2054 0.949 . S
C2058 C2066 1.574 . S
C2058 C2074 1.368 . S
H2059 C2067 0.950 . S
H2060 C2065 0.950 . S
H2061 C2066 0.949 . S
H2062 C2068 0.950 . S
H2063 C2069 0.950 . S
H2064 C2070 0.949 . S
C2065 H2060 0.950 . S
C2065 C2067 1.327 . S
C2065 C2071 1.429 . S
C2066 C2058 1.574 . S
C2066 H2061 0.949 . S
C2066 C2072 1.368 . S
C2067 C2051 1.349 . S
C2067 H2059 0.950 . S
C2067 C2065 1.327 . S
C2068 C2056 1.349 . S
C2068 H2062 0.950 . S
C2068 C2069 1.327 . S
C2069 H2063 0.950 . S
C2069 C2068 1.327 . S
C2069 C2073 1.429 . S
C2070 C2053 1.574 . S
C2070 H2064 0.949 . S
C2070 C2074 1.368 . S
C2071 C2052 1.429 . S
C2071 C2065 1.429 . S
C2071 C2072 1.523 . S
C2072 C2053 1.368 . S
C2072 C2066 1.368 . S
C2072 C2071 1.523 . S
C2073 C2057 1.429 . S
C2073 C2069 1.429 . S
C2073 C2074 1.523 . S
C2074 C2058 1.368 . S
C2074 C2070 1.368 . S
C2074 C2073 1.523 . S
H2075 C2050 0.950 . S
H2076 C2052 0.950 . S
H2077 C2053 0.949 . S
H2078 C2055 0.950 . S
H2079 C2057 0.950 . S
C641 C19 0.637 . S
C646 C286 0.568 . S
C671 C59 1.905 . S
C676 C166 1.935 . S
C701 C206 0.998 . S
C706 C86 0.946 . S
C731 C139 2.518 . S
C736 C259 2.491 . S
C761 C455 0.568 . S
C766 C170 0.638 . S
C791 C330 1.905 . S
C796 C15 1.935 . S
C821 C415 0.998 . S
C826 C255 0.946 . S
C851 C90 2.491 . S
C856 C370 2.518 . S
C881 C366 0.568 . S
C886 C499 0.638 . S
C911 C419 1.905 . S
C916 C566 1.935 . S
C941 C526 0.946 . S
C946 C326 0.997 . S
C971 C459 2.518 . S
C976 C619 2.517 . S
C1001 C570 0.638 . S
C1006 C135 0.568 . S
C1031 C495 1.935 . S
C1036 C210 1.905 . S
C1061 C55 0.998 . S
C1066 C615 0.947 . S
C1091 C290 2.518 . S
C1096 C530 2.516 . S
C1121 C529 0.878 . S
C1126 C18 0.894 . S
C1151 C458 0.598 . S
C1156 C58 0.831 . S
C1181 C498 0.893 . S
C1186 C89 0.878 . S
C1211 C418 0.832 . S
C1216 C138 0.598 . S
C1241 C169 0.894 . S
C1246 C618 0.878 . S
C1271 C369 0.598 . S
C1276 C209 0.832 . S
C1301 C258 0.878 . S
C1306 C569 0.894 . S
C1331 C289 0.597 . S
C1336 C329 0.831 . S
C1361 C9 1.415 . S
C1366 C178 1.415 . S
C1391 C49 1.884 . S
C1396 C218 1.884 . S
C1421 C249 1.254 . S
C1426 C98 1.254 . S
C1451 C129 1.112 . S
C1456 C298 1.112 . S
C1481 C409 1.884 . S
C1486 C338 1.884 . S
C1511 C449 1.113 . S
C1516 C378 1.113 . S
C1541 C489 1.416 . S
C1546 C578 1.416 . S
C1571 C609 1.253 . S
C1576 C538 1.253 . S
C1601 C6 2.810 . S
C1606 C299 2.860 . S
C1631 C46 1.047 . S
C1636 C179 1.080 . S
C1661 C219 3.669 1_556 S
C1666 C99 3.656 . S
C1691 C246 0.540 . S
C1696 C126 0.553 . S
C1721 C450 2.860 . S
C1726 C175 2.810 . S
C1751 C335 1.047 . S
C1756 C10 1.080 . S
C1781 C410 3.669 1_554 S
C1786 C250 3.656 . S
C1811 C95 0.540 . S
C1816 C375 0.553 . S
C1841 C486 2.810 . S
C1846 C379 2.860 . S
C1871 C579 1.080 . S
C1876 C406 1.048 . S
C1901 C539 3.655 . S
C1906 C339 3.669 . S
C1931 C606 0.540 . S
C1936 C446 0.553 . S
C1961 C575 2.810 . S
C1966 C130 2.860 . S
C1991 C215 1.047 . S
C1996 C490 1.080 . S
C2021 C50 3.669 . S
C2026 C610 3.655 . S
C2051 C535 0.540 . S
C2056 C295 0.553 . S
