# Generated by pormake.
# Topology yfx, (5)-cn, num edge types: 1
# Building blocks:
#     Node 0, Type 0, BuildingBlock: XOMCOT_clean_sbu_0, # of connection points: 5
#     Node 1, Type 0, BuildingBlock: XOMCOT_clean_sbu_0, # of connection points: 5
#     Node 2, Type 0, BuildingBlock: XOMCOT_clean_sbu_0, # of connection points: 5
#     Node 3, Type 0, BuildingBlock: XOMCOT_clean_sbu_0, # of connection points: 5
#     Node 4, Type 0, BuildingBlock: XOMCOT_clean_sbu_0, # of connection points: 5
#     Node 5, Type 0, BuildingBlock: XOMCOT_clean_sbu_0, # of connection points: 5
#     Node 6, Type 0, BuildingBlock: XOMCOT_clean_sbu_0, # of connection points: 5
#     Node 7, Type 0, BuildingBlock: XOMCOT_clean_sbu_0, # of connection points: 5
#     Edge 8, Type (0, 0), BuildingBlock: OJICUG_clean_linker_0, # of connection points: 2
#     Edge 9, Type (0, 0), BuildingBlock: OJICUG_clean_linker_0, # of connection points: 2
#     Edge 10, Type (0, 0), BuildingBlock: OJICUG_clean_linker_0, # of connection points: 2
#     Edge 11, Type (0, 0), BuildingBlock: OJICUG_clean_linker_0, # of connection points: 2
#     Edge 12, Type (0, 0), BuildingBlock: OJICUG_clean_linker_0, # of connection points: 2
#     Edge 13, Type (0, 0), BuildingBlock: OJICUG_clean_linker_0, # of connection points: 2
#     Edge 14, Type (0, 0), BuildingBlock: OJICUG_clean_linker_0, # of connection points: 2
#     Edge 15, Type (0, 0), BuildingBlock: OJICUG_clean_linker_0, # of connection points: 2
#     Edge 16, Type (0, 0), BuildingBlock: OJICUG_clean_linker_0, # of connection points: 2
#     Edge 17, Type (0, 0), BuildingBlock: OJICUG_clean_linker_0, # of connection points: 2
#     Edge 18, Type (0, 0), BuildingBlock: OJICUG_clean_linker_0, # of connection points: 2
#     Edge 19, Type (0, 0), BuildingBlock: OJICUG_clean_linker_0, # of connection points: 2
#     Edge 20, Type (0, 0), BuildingBlock: OJICUG_clean_linker_0, # of connection points: 2
#     Edge 21, Type (0, 0), BuildingBlock: OJICUG_clean_linker_0, # of connection points: 2
#     Edge 22, Type (0, 0), BuildingBlock: OJICUG_clean_linker_0, # of connection points: 2
#     Edge 23, Type (0, 0), BuildingBlock: OJICUG_clean_linker_0, # of connection points: 2
#     Edge 24, Type (0, 0), BuildingBlock: OJICUG_clean_linker_0, # of connection points: 2
#     Edge 25, Type (0, 0), BuildingBlock: OJICUG_clean_linker_0, # of connection points: 2
#     Edge 26, Type (0, 0), BuildingBlock: OJICUG_clean_linker_0, # of connection points: 2
#     Edge 27, Type (0, 0), BuildingBlock: OJICUG_clean_linker_0, # of connection points: 2
# Relax obj value: 0.097
# Max RMSD: 0.107
# Mean RMSD: 0.107
data_MOF--net-yfx--node1-XOMCOT_clean_sbu_0--edge1-OJICUG_clean_linker_0
_symmetry_space_group_name_H-M    P1
_symmetry_Int_Tables_number       1
_symmetry_cell_setting            triclinic
loop_
_symmetry_equiv_pos_as_xyz
'x, y, z'
_cell_length_a     26.723311
_cell_length_b     26.712402
_cell_length_c     21.863847
_cell_angle_alpha  90.01617
_cell_angle_beta   90.129669
_cell_angle_gamma 89.95427
loop_
_atom_site_label
_atom_site_type_symbol
_atom_site_fract_x
_atom_site_fract_y
_atom_site_fract_z
_atom_type_partial_charge
Co0 Co 0.22283 0.37108 0.05936 0.0
C1 C 0.32401 0.32462 0.05084 0.0
C2 C 0.32 0.38323 0.11798 0.0
C3 C 0.36852 0.36655 0.11485 0.0
N4 N 0.29223 0.35731 0.07756 0.0
N5 N 0.37117 0.3301 0.07214 0.0
H6 H 0.31347 0.29895 1.01484 0.0
H7 H 0.30609 0.41316 0.14662 0.0
C8 C 0.22892 0.47988 1.01615 0.0
O9 O 0.19838 0.47363 0.9696 0.0
N10 N 0.15286 0.38701 0.04254 0.0
C11 C 0.1204 0.36381 1.00458 0.0
C12 C 0.07744 0.3921 1.00012 0.0
C13 C 0.12808 0.42825 0.06234 0.0
N14 N 0.08235 0.43258 0.03631 0.0
C15 C 0.22086 0.30787 0.95421 0.0
C16 C 0.28667 0.36202 0.88285 0.0
C17 C 0.27229 0.31408 0.86349 0.0
C18 C 0.238 0.28759 0.89936 0.0
C19 C 0.26869 0.38103 0.93854 0.0
N20 N 0.23595 0.35407 0.97367 0.0
H21 H 0.19764 0.28471 0.98283 0.0
H22 H 0.2845 0.41554 0.95511 0.0
H23 H 0.12718 0.32967 0.97986 0.0
H24 H 0.14447 0.45631 0.09196 0.0
O25 O 0.20568 0.30514 0.09064 0.0
O26 O 0.20959 0.37433 0.1459 0.0
O27 O 0.24167 0.44316 0.04995 0.0
C28 C 0.20421 0.326 0.14445 0.0
H29 H 0.39958 0.38075 0.14151 0.0
H30 H 0.04563 0.38445 0.97082 0.0
H31 H 0.31388 0.38336 0.85712 0.0
H32 H 0.22563 0.2505 0.88618 0.0
Co33 Co 0.66159 0.22413 0.05363 0.0
C34 C 0.71208 0.32347 0.0495 0.0
C35 C 0.64872 0.32196 0.1099 0.0
C36 C 0.66839 0.36939 0.11012 0.0
N37 N 0.67595 0.29328 0.07188 0.0
N38 N 0.7081 0.37036 0.0721 0.0
H39 H 0.74051 0.31159 1.01751 0.0
H40 H 0.61625 0.30934 0.13497 0.0
C41 C 0.55338 0.23026 1.00821 0.0
O42 O 0.55784 0.19324 0.96906 0.0
N43 N 0.64517 0.15426 0.03681 0.0
C44 C 0.66682 0.12243 0.99685 0.0
C45 C 0.63879 0.0793 0.99363 0.0
C46 C 0.60513 0.12891 0.05894 0.0
N47 N 0.59993 0.08346 0.03241 0.0
C48 C 0.72687 0.22208 0.95041 0.0
C49 C 0.67359 0.28784 0.87754 0.0
C50 C 0.72175 0.27345 0.85933 0.0
C51 C 0.7479 0.23926 0.896 0.0
C52 C 0.65385 0.26984 0.9327 0.0
N53 N 0.68034 0.2371 0.96857 0.0
H54 H 0.7494 0.19844 0.9795 0.0
H55 H 0.61896 0.28551 0.94806 0.0
H56 H 0.69954 0.12987 0.96978 0.0
H57 H 0.5782 0.14497 0.09025 0.0
O58 O 0.72656 0.20589 0.0868 0.0
O59 O 0.65666 0.21125 0.1403 0.0
O60 O 0.59029 0.24469 0.04071 0.0
C61 C 0.70493 0.20503 0.14008 0.0
H62 H 0.65367 0.40112 0.13511 0.0
H63 H 0.64537 0.04793 0.9633 0.0
H64 H 0.65246 0.31495 0.8512 0.0
H65 H 0.7851 0.22678 0.88363 0.0
Co66 Co 0.81115 0.66284 0.05673 0.0
C67 C 0.71127 0.71202 0.0527 0.0
C68 C 0.71356 0.64849 0.11301 0.0
C69 C 0.66594 0.66778 0.11327 0.0
N70 N 0.74184 0.67607 0.075 0.0
N71 N 0.66448 0.7076 0.07527 0.0
H72 H 0.72285 0.74066 1.02079 0.0
H73 H 0.7266 0.61613 0.13816 0.0
C74 C 0.80595 0.55449 1.01217 0.0
O75 O 0.83593 0.56162 0.96544 0.0
N76 N 0.88113 0.64739 0.03975 0.0
C77 C 0.91317 0.67025 1.00114 0.0
C78 C 0.95628 0.64218 0.99707 0.0
C79 C 0.90628 0.60655 0.06018 0.0
N80 N 0.95186 0.60213 0.03404 0.0
C81 C 0.81224 0.72647 0.95205 0.0
C82 C 0.74554 0.67269 0.88112 0.0
C83 C 0.76004 0.72054 0.8617 0.0
C84 C 0.79467 0.74691 0.89742 0.0
C85 C 0.76394 0.65355 0.9366 0.0
N86 N 0.79729 0.68024 0.97137 0.0
H87 H 0.83584 0.74947 0.98058 0.0
H88 H 0.74819 0.61907 0.95326 0.0
H89 H 0.90599 0.70396 0.9757 0.0
H90 H 0.89021 0.57879 0.09037 0.0
O91 O 0.82801 0.72872 0.08845 0.0
O92 O 0.82473 0.65929 0.14326 0.0
O93 O 0.79296 0.59069 0.04661 0.0
C94 C 0.82982 0.70766 0.14212 0.0
H95 H 0.63444 0.65278 0.13831 0.0
H96 H 0.98789 0.6497 0.96757 0.0
H97 H 0.71803 0.65148 0.85553 0.0
H98 H 0.80709 0.78395 0.88421 0.0
Co99 Co 0.37165 0.81069 0.06026 0.0
C100 C 0.32285 0.71068 0.05581 0.0
C101 C 0.38673 0.71268 0.1157 0.0
C102 C 0.36775 0.66494 0.11547 0.0
N103 N 0.35875 0.74122 0.07822 0.0
N104 N 0.3277 0.66366 0.07773 0.0
H105 H 0.29398 0.72246 1.02419 0.0
H106 H 0.41919 0.7256 0.14075 0.0
C107 C 0.47994 0.80552 1.01563 0.0
O108 O 0.47268 0.8354 0.96872 0.0
N109 N 0.38671 0.88088 0.04355 0.0
C110 C 0.36255 0.91332 1.00645 0.0
C111 C 0.39024 0.95661 1.00191 0.0
C112 C 0.42793 0.90601 0.06278 0.0
N113 N 0.43131 0.95195 0.03721 0.0
C114 C 0.30794 0.81205 0.95543 0.0
C115 C 0.36175 0.74549 0.88454 0.0
C116 C 0.31386 0.75998 0.86506 0.0
C117 C 0.28747 0.79455 0.90076 0.0
C118 C 0.38092 0.76384 0.94004 0.0
N119 N 0.35422 0.79712 0.9748 0.0
H120 H 0.28482 0.83539 0.98402 0.0
H121 H 0.41542 0.74802 0.95676 0.0
H122 H 0.3281 0.90633 0.98242 0.0
H123 H 0.45659 0.88978 0.09171 0.0
O124 O 0.30574 0.82723 0.09192 0.0
O125 O 0.3752 0.82393 0.14686 0.0
O126 O 0.44386 0.79271 0.05022 0.0
C127 C 0.32683 0.8289 0.14564 0.0
H128 H 0.38318 0.63327 0.13996 0.0
H129 H 0.38173 0.98852 0.97317 0.0
H130 H 0.38298 0.71802 0.859 0.0
H131 H 0.25038 0.80692 0.88756 0.0
Co132 Co 0.72395 0.87059 0.55643 0.0
C133 C 0.82374 0.82123 0.5509 0.0
C134 C 0.82172 0.88409 0.61232 0.0
C135 C 0.86929 0.86479 0.61229 0.0
N136 N 0.7933 0.85693 0.57384 0.0
N137 N 0.87057 0.82542 0.57362 0.0
H138 H 0.81204 0.793 0.51839 0.0
H139 H 0.80878 0.91618 0.63801 0.0
C140 C 0.7305 0.97814 0.5102 0.0
O141 O 0.70184 0.97007 0.4623 0.0
N142 N 0.65397 0.88682 0.54102 0.0
C143 C 0.61797 0.86056 0.51193 0.0
C144 C 0.57459 0.88869 0.51084 0.0
C145 C 0.63128 0.92969 0.55883 0.0
N146 N 0.58321 0.93244 0.53985 0.0
C147 C 0.71901 0.80886 0.45002 0.0
C148 C 0.78942 0.85978 0.38164 0.0
C149 C 0.77263 0.81305 0.36097 0.0
C150 C 0.73611 0.78818 0.39531 0.0
C151 C 0.77151 0.87912 0.43711 0.0
N152 N 0.73649 0.8538 0.47073 0.0
H153 H 0.69448 0.78654 0.47792 0.0
H154 H 0.78914 0.91232 0.45499 0.0
H155 H 0.62216 0.82377 0.49249 0.0
H156 H 0.6498 0.95859 0.5851 0.0
O157 O 0.70702 0.80458 0.58758 0.0
O158 O 0.71136 0.87367 0.6431 0.0
O159 O 0.74245 0.94266 0.54634 0.0
C160 C 0.70565 0.82537 0.64145 0.0
H161 H 0.9009 0.87948 0.6376 0.0
H162 H 0.53984 0.87825 0.48876 0.0
H163 H 0.81843 0.87973 0.35721 0.0
H164 H 0.72209 0.75192 0.38117 0.0
Co165 Co 0.16362 0.72338 0.55966 0.0
C166 C 0.21291 0.82308 0.55375 0.0
C167 C 0.15024 0.82128 0.61525 0.0
C168 C 0.1695 0.86886 0.61489 0.0
N169 N 0.1773 0.79273 0.5769 0.0
N170 N 0.20873 0.86999 0.57615 0.0
H171 H 0.24102 0.81127 0.52125 0.0
H172 H 0.11823 0.80843 0.64102 0.0
C173 C 0.05606 0.731 0.51281 0.0
O174 O 0.06399 0.70278 0.46455 0.0
N175 N 0.14747 0.65336 0.54433 0.0
C176 C 0.17479 0.61696 0.5176 0.0
C177 C 0.14676 0.57358 0.51567 0.0
C178 C 0.10405 0.63085 0.56016 0.0
N179 N 0.102 0.58256 0.54193 0.0
C180 C 0.22506 0.7179 0.45323 0.0
C181 C 0.17469 0.78899 0.38483 0.0
C182 C 0.22121 0.77172 0.36417 0.0
C183 C 0.24579 0.73485 0.39851 0.0
C184 C 0.15531 0.7712 0.4403 0.0
N185 N 0.18036 0.73585 0.47394 0.0
H186 H 0.24725 0.69317 0.48116 0.0
H187 H 0.12234 0.78921 0.4582 0.0
H188 H 0.21237 0.62084 0.5006 0.0
H189 H 0.07434 0.64951 0.58476 0.0
O190 O 0.22963 0.70638 0.59102 0.0
O191 O 0.16059 0.71081 0.64637 0.0
O192 O 0.09155 0.74212 0.54938 0.0
C193 C 0.20889 0.7051 0.64486 0.0
H194 H 0.15484 0.90057 0.63996 0.0
H195 H 0.15806 0.53854 0.49501 0.0
H196 H 0.15499 0.81829 0.36041 0.0
H197 H 0.28188 0.72047 0.3844 0.0
Co198 Co 0.30985 0.1631 0.55903 0.0
C199 C 0.21022 0.21246 0.55167 0.0
C200 C 0.21171 0.15 0.6137 0.0
C201 C 0.16414 0.16929 0.6126 0.0
N202 N 0.24045 0.17691 0.57548 0.0
N203 N 0.1632 0.20838 0.57351 0.0
H204 H 0.22218 0.24045 0.51907 0.0
H205 H 0.22443 0.11806 0.63988 0.0
C206 C 0.3024 0.05528 0.51311 0.0
O207 O 0.3306 0.06294 0.46487 0.0
N208 N 0.37993 0.14687 0.54447 0.0
C209 C 0.41644 0.17426 0.51825 0.0
C210 C 0.45985 0.1462 0.51676 0.0
C211 C 0.40239 0.10337 0.56047 0.0
N212 N 0.45076 0.10135 0.54279 0.0
C213 C 0.31567 0.22402 0.45203 0.0
C214 C 0.24458 0.17352 0.38379 0.0
C215 C 0.26179 0.21999 0.36291 0.0
C216 C 0.29868 0.24461 0.39714 0.0
C217 C 0.26238 0.15427 0.43944 0.0
N218 N 0.29768 0.17942 0.47305 0.0
H219 H 0.34036 0.24627 0.4799 0.0
H220 H 0.24436 0.1214 0.45753 0.0
H221 H 0.41264 0.21194 0.50136 0.0
H222 H 0.38366 0.07359 0.58485 0.0
O223 O 0.32661 0.2293 0.58997 0.0
O224 O 0.32207 0.16045 0.64585 0.0
O225 O 0.29125 0.09098 0.54929 0.0
C226 C 0.3277 0.20875 0.644 0.0
H227 H 0.1323 0.15475 0.6374 0.0
H228 H 0.49499 0.15756 0.49656 0.0
H229 H 0.21527 0.1538 0.35944 0.0
H230 H 0.313 0.28068 0.38284 0.0
Co231 Co 0.87069 0.30987 0.55409 0.0
C232 C 0.82065 0.21044 0.54851 0.0
C233 C 0.88354 0.2121 0.61002 0.0
C234 C 0.86391 0.16469 0.61007 0.0
N235 N 0.85658 0.24064 0.57144 0.0
N236 N 0.82452 0.16364 0.57134 0.0
H237 H 0.79249 0.22227 0.51594 0.0
H238 H 0.91572 0.22485 0.63574 0.0
C239 C 0.97822 0.30196 0.5079 0.0
O240 O 0.97076 0.33071 0.45998 0.0
N241 N 0.88738 0.37971 0.53875 0.0
C242 C 0.86093 0.41607 0.51055 0.0
C243 C 0.88917 0.45933 0.50965 0.0
C244 C 0.93051 0.40207 0.55624 0.0
N245 N 0.93319 0.45029 0.53791 0.0
C246 C 0.80834 0.31543 0.4482 0.0
C247 C 0.85796 0.24425 0.37939 0.0
C248 C 0.81118 0.26146 0.35919 0.0
C249 C 0.78703 0.29843 0.39372 0.0
C250 C 0.87801 0.26219 0.43457 0.0
N251 N 0.85326 0.2975 0.46848 0.0
H252 H 0.78648 0.34027 0.4763 0.0
H253 H 0.91127 0.24435 0.45207 0.0
H254 H 0.82385 0.41225 0.49178 0.0
H255 H 0.95956 0.38328 0.58202 0.0
O256 O 0.80507 0.32744 0.58567 0.0
O257 O 0.87443 0.32243 0.64075 0.0
O258 O 0.94246 0.29056 0.54369 0.0
C259 C 0.82618 0.3285 0.63942 0.0
H260 H 0.87837 0.13302 0.63544 0.0
H261 H 0.87854 0.49433 0.48832 0.0
H262 H 0.87745 0.21495 0.35481 0.0
H263 H 0.75086 0.31293 0.37993 0.0
C264 C 0.50638 0.30596 0.03971 0.0
C265 C 0.50546 0.2569 1.01665 0.0
H266 H 0.46478 0.36779 0.07403 0.0
C267 C 0.45912 0.2332 1.00769 0.0
H268 H 0.54146 0.32562 0.0461 0.0
C269 C 0.41462 0.25748 1.02468 0.0
C270 C 0.416 0.30576 0.05064 0.0
H271 H 0.45742 0.19531 0.99018 0.0
H272 H 0.37947 0.23782 1.01954 0.0
C273 C 0.46233 0.33007 0.05628 0.0
C274 C 0.75876 0.42046 0.99913 0.0
C275 C 0.73789 0.41366 0.05768 0.0
H276 H 0.79697 0.47083 0.93816 0.0
C277 C 0.74372 0.45151 0.1015 0.0
H278 H 0.75472 0.39185 0.96439 0.0
C279 C 0.76729 0.49618 0.08658 0.0
C280 C 0.78593 0.5044 1.02735 0.0
H281 H 0.72925 0.4469 0.14735 0.0
H282 H 0.77011 0.52477 0.12159 0.0
C283 C 0.78274 0.46561 0.98406 0.0
C284 C 0.61402 0.75847 1.00254 0.0
C285 C 0.62094 0.73719 0.06093 0.0
H286 H 0.56355 0.79708 0.94177 0.0
C287 C 0.58307 0.74256 0.10466 0.0
H288 H 0.64264 0.7548 0.96785 0.0
C289 C 0.53832 0.76617 0.08983 0.0
C290 C 0.53004 0.78531 0.03075 0.0
H291 H 0.58774 0.72776 0.1504 0.0
H292 H 0.50976 0.76868 0.12479 0.0
C293 C 0.56881 0.78248 0.98754 0.0
C294 C 0.25165 0.56918 0.98955 0.0
C295 C 0.24986 0.52957 0.03179 0.0
H296 H 0.27856 0.64347 0.97097 0.0
C297 C 0.27043 0.5367 0.09041 0.0
H298 H 0.23596 0.56483 0.94414 0.0
C299 C 0.29417 0.58126 0.10573 0.0
C300 C 0.29832 0.62007 0.06293 0.0
H301 H 0.26882 0.50746 0.12467 0.0
H302 H 0.30988 0.58506 0.15116 0.0
C303 C 0.27584 0.61417 1.005 0.0
C304 C 0.99664 0.76698 0.58789 0.0
C305 C 1.00566 0.75009 0.528 0.0
H306 H 0.94631 0.80289 0.64936 0.0
C307 C 0.96725 0.75394 0.48422 0.0
H308 H 0.02491 0.76357 0.62326 0.0
C309 C 0.92167 0.77695 0.49956 0.0
C310 C 0.91412 0.79619 0.55882 0.0
H311 H 0.97308 0.74098 0.43784 0.0
H312 H 0.89333 0.78163 0.46456 0.0
C313 C 0.95156 0.78961 0.60303 0.0
C314 C 0.26684 0.99626 0.58891 0.0
C315 C 0.2835 1.00494 0.52889 0.0
H316 H 0.23128 0.94623 0.65101 0.0
C317 C 0.27961 0.96627 0.48555 0.0
H318 H 0.27029 0.02474 0.62396 0.0
C319 C 0.25677 0.92075 0.50143 0.0
C320 C 0.23776 0.91351 0.56082 0.0
H321 H 0.29239 0.97184 0.43907 0.0
H322 H 0.25206 0.89219 0.46675 0.0
C323 C 0.24438 0.95122 0.6046 0.0
C324 C 0.08194 0.24436 0.60083 0.0
C325 C 0.11978 0.23742 0.55745 0.0
H326 H 1.00841 0.27053 0.61929 0.0
C327 C 0.11278 0.25609 0.49777 0.0
H328 H 0.08677 0.23153 0.64743 0.0
C329 C 0.06732 0.27892 0.48123 0.0
C330 C 0.02852 0.2831 0.52421 0.0
H331 H 0.14146 0.25112 0.4634 0.0
H332 H 0.0619 0.29144 0.43458 0.0
C333 C 0.03699 0.2668 0.5845 0.0
C334 C 0.78816 0.08306 0.60079 0.0
C335 C 0.79508 0.12025 0.55649 0.0
H336 H 0.76198 1.0098 0.62096 0.0
C337 C 0.77615 0.11251 0.49706 0.0
H338 H 0.80119 0.08848 0.64724 0.0
C339 C 0.7532 0.0669 0.48163 0.0
C340 C 0.74915 0.02868 0.5255 0.0
H341 H 0.7811 0.14069 0.462 0.0
H342 H 0.74058 0.06086 0.43511 0.0
C343 C 0.7656 0.03794 0.58556 0.0
C344 C 0.23322 0.2189 0.25272 0.0
C345 C 0.23952 0.24476 0.30823 0.0
H346 H 0.21638 0.22427 0.15686 0.0
C347 C 0.22658 0.29574 0.31072 0.0
H348 H 0.24265 0.17954 0.2495 0.0
C349 C 0.21108 0.32114 0.25816 0.0
C350 C 0.20827 0.29629 0.2016 0.0
H351 H 0.22982 0.31644 0.35317 0.0
H352 H 0.20375 0.36095 0.26137 0.0
C353 C 0.21791 0.24449 0.19977 0.0
C354 C 0.78621 0.21691 0.19645 0.0
C355 C 0.73415 0.20892 0.1977 0.0
H356 H 0.8515 0.24012 0.24648 0.0
C357 C 0.70901 0.21311 0.25384 0.0
H358 H 0.80668 0.21428 0.15387 0.0
C359 C 0.73456 0.22823 0.30653 0.0
C360 C 0.78593 0.23953 0.30454 0.0
H361 H 0.669 0.20708 0.25659 0.0
H362 H 0.7137 0.23241 0.34865 0.0
C363 C 0.81189 0.23193 0.24943 0.0
C364 C 0.82328 0.71221 0.25587 0.0
C365 C 0.82581 0.73718 0.19941 0.0
H366 H 0.80491 0.71667 0.35091 0.0
C367 C 0.816 0.78896 0.19778 0.0
H368 H 0.83075 0.67242 0.25891 0.0
C369 C 0.80081 0.8144 0.25081 0.0
C370 C 0.79481 0.78841 0.30623 0.0
H371 H 0.81732 0.80927 0.15495 0.0
H372 H 0.79123 0.85372 0.24771 0.0
C373 C 0.80791 0.73747 0.30854 0.0
C374 C 0.24552 0.81537 0.2011 0.0
C375 C 0.29735 0.82474 0.20286 0.0
H376 H 0.18064 0.79101 0.25084 0.0
C377 C 0.32234 0.82174 0.25936 0.0
H378 H 0.22519 0.81705 0.15824 0.0
C379 C 0.29702 0.8064 0.31193 0.0
C380 C 0.24599 0.79378 0.3095 0.0
H381 H 0.36217 0.82886 0.26252 0.0
H382 H 0.31781 0.80305 0.35433 0.0
C383 C 0.22002 0.80021 0.25404 0.0
C384 C 0.72008 0.7441 0.69693 0.0
C385 C 0.70872 0.79556 0.69857 0.0
H386 H 0.74552 0.67983 0.74739 0.0
C387 C 0.7086 0.82017 0.75536 0.0
H388 H 0.72079 0.7241 0.65384 0.0
C389 C 0.723 0.79499 0.80854 0.0
C390 C 0.73792 0.74453 0.80639 0.0
H391 H 0.69979 0.85969 0.75838 0.0
H392 H 0.72402 0.81557 0.85123 0.0
C393 C 0.73445 0.71876 0.75044 0.0
C394 C 0.29015 0.71972 0.70041 0.0
C395 C 0.23873 0.70834 0.70203 0.0
H396 H 0.35441 0.74527 0.75084 0.0
C397 C 0.21419 0.70839 0.75878 0.0
H398 H 0.3101 0.72032 0.65736 0.0
C399 C 0.23939 0.72291 0.81192 0.0
C400 C 0.28981 0.73782 0.80978 0.0
H401 H 0.1747 0.69958 0.76179 0.0
H402 H 0.21885 0.72402 0.85457 0.0
C403 C 0.31551 0.73422 0.75389 0.0
C404 C 0.32432 0.21437 0.75784 0.0
C405 C 0.32421 0.23878 0.70094 0.0
H406 H 0.30871 0.21918 0.85355 0.0
C407 C 0.31247 0.29015 0.69897 0.0
H408 H 0.33341 0.17493 0.76113 0.0
C409 C 0.29782 0.31559 0.75226 0.0
C410 C 0.29443 0.29 0.80831 0.0
H411 H 0.31173 0.30999 0.65578 0.0
H412 H 0.28654 0.35445 0.74896 0.0
C413 C 0.30965 0.23963 0.81078 0.0
C414 C 0.79653 0.30971 0.80632 0.0
C415 C 0.74599 0.2952 0.8041 0.0
H416 H 0.8611 0.33298 0.7563 0.0
C417 C 0.72006 0.2993 0.74826 0.0
H418 H 0.81725 0.30828 0.84894 0.0
C419 C 0.74522 0.31403 0.69495 0.0
C420 C 0.79668 0.3251 0.69662 0.0
H421 H 0.68107 0.28856 0.74512 0.0
H422 H 0.72503 0.31386 0.65193 0.0
C423 C 0.82155 0.32445 0.75329 0.0
C424 C 1.00247 0.53865 0.9807 0.0
C425 C 0.98482 0.55936 0.03562 0.0
H426 H 0.04682 0.48151 0.93821 0.0
C427 C 0.99996 0.5378 0.09135 0.0
H428 H 0.99108 0.55438 0.9372 0.0
C429 C 0.03295 0.49672 0.09195 0.0
C430 C 0.04984 0.47567 0.03678 0.0
H431 H 0.98686 0.55325 0.13422 0.0
H432 H 0.04458 0.48077 0.13523 0.0
C433 C 0.03408 0.49694 0.98126 0.0
C434 C 0.53688 0.03476 0.0908 0.0
C435 C 0.55712 0.05063 0.03474 0.0
H436 H 0.4812 0.98923 0.13549 0.0
C437 C 0.53529 0.03347 0.98013 0.0
H438 H 0.5532 0.04744 0.13344 0.0
C439 C 0.4939 1.00154 0.98131 0.0
C440 C 0.474 0.98495 0.03711 0.0
H441 H 0.54997 0.04539 0.93638 0.0
H442 H 0.4777 0.98913 0.93848 0.0
C443 C 0.49608 1.00146 0.09197 0.0
C444 C 0.53636 0.06538 0.54737 0.0
C445 C 0.48417 0.05872 0.54593 0.0
H446 H 0.60866 0.03074 0.54664 0.0
C447 C 0.4652 1.00956 0.54492 0.0
H448 H 0.55227 0.10261 0.5486 0.0
C449 C 0.49756 0.96825 0.54393 0.0
C450 C 0.54976 0.97493 0.54444 0.0
H451 H 0.42527 1.00292 0.54308 0.0
H452 H 0.48165 0.93103 0.54249 0.0
C453 C 0.56872 0.02406 0.54689 0.0
C454 C 0.0661 0.49692 0.54539 0.0
C455 C 0.05942 0.54916 0.54478 0.0
H456 H 0.03149 0.42465 0.54374 0.0
C457 C 1.01028 0.5682 0.54432 0.0
H458 H 0.10333 0.48095 0.54618 0.0
C459 C 0.969 0.53589 0.54308 0.0
C460 C 0.97568 0.48366 0.54274 0.0
H461 H 1.00361 0.60816 0.54313 0.0
H462 H 0.93178 0.55187 0.54211 0.0
C463 C 0.02481 0.46461 0.54463 0.0
loop_
_geom_bond_atom_site_label_1
_geom_bond_atom_site_label_2
_geom_bond_distance
_geom_bond_site_symmetry_2
_ccdc_geom_bond_type
Co0 N4 2.148 . S
Co0 N10 2.128 . S
Co0 N20 2.194 1_554 S
Co0 O25 2.351 . S
Co0 O26 2.155 . S
Co0 O27 2.096 . S
C1 N4 1.301 . S
C1 N5 1.328 . S
C1 H6 0.930 . S
C2 C3 1.333 . S
C2 N4 1.317 . S
C2 H7 0.930 . S
C3 C2 1.333 . S
C3 N5 1.350 . S
C3 H29 0.931 . S
N4 Co0 2.148 . S
N4 C1 1.301 . S
N4 C2 1.317 . S
N5 C1 1.328 . S
N5 C3 1.350 . S
H6 C1 0.930 . S
H7 C2 0.930 . S
C8 O9 1.224 1_554 S
C8 O27 1.247 . S
O9 C8 1.224 1_556 S
N10 Co0 2.128 . S
N10 C11 1.355 . S
N10 C13 1.311 . S
C11 N10 1.355 . S
C11 C12 1.363 1_554 S
C11 H23 0.929 1_554 S
C12 C11 1.363 1_556 S
C12 N14 1.375 1_556 S
C12 H30 0.931 . S
C13 N10 1.311 . S
C13 N14 1.347 . S
C13 H24 0.929 . S
N14 C12 1.375 1_554 S
N14 C13 1.347 . S
C15 C18 1.365 . S
C15 N20 1.328 . S
C15 H21 0.929 . S
C16 C17 1.362 . S
C16 C19 1.378 . S
C16 H31 0.929 . S
C17 C16 1.362 . S
C17 C18 1.366 . S
C18 C15 1.365 . S
C18 C17 1.366 . S
C18 H32 0.930 . S
C19 C16 1.378 . S
C19 N20 1.315 . S
C19 H22 0.930 . S
N20 Co0 2.194 1_556 S
N20 C15 1.328 . S
N20 C19 1.315 . S
H21 C15 0.929 . S
H22 C19 0.930 . S
H23 C11 0.929 1_556 S
H24 C13 0.929 . S
O25 Co0 2.351 . S
O25 C28 1.244 . S
O26 Co0 2.155 . S
O26 C28 1.240 . S
O27 Co0 2.096 . S
O27 C8 1.247 . S
C28 O25 1.244 . S
C28 O26 1.240 . S
H29 C3 0.931 . S
H30 C12 0.931 . S
H31 C16 0.929 . S
H32 C18 0.930 . S
Co33 N37 2.148 . S
Co33 N43 2.128 . S
Co33 N53 2.194 1_554 S
Co33 O58 2.351 . S
Co33 O59 2.155 . S
Co33 O60 2.096 . S
C34 N37 1.301 . S
C34 N38 1.328 . S
C34 H39 0.930 . S
C35 C36 1.333 . S
C35 N37 1.317 . S
C35 H40 0.930 . S
C36 C35 1.333 . S
C36 N38 1.350 . S
C36 H62 0.931 . S
N37 Co33 2.148 . S
N37 C34 1.301 . S
N37 C35 1.317 . S
N38 C34 1.328 . S
N38 C36 1.350 . S
H39 C34 0.930 . S
H40 C35 0.930 . S
C41 O42 1.224 1_554 S
C41 O60 1.247 . S
O42 C41 1.224 1_556 S
N43 Co33 2.128 . S
N43 C44 1.355 . S
N43 C46 1.311 . S
C44 N43 1.355 . S
C44 C45 1.363 1_554 S
C44 H56 0.929 1_554 S
C45 C44 1.363 1_556 S
C45 N47 1.375 1_556 S
C45 H63 0.931 . S
C46 N43 1.311 . S
C46 N47 1.347 . S
C46 H57 0.929 . S
N47 C45 1.375 1_554 S
N47 C46 1.347 . S
C48 C51 1.365 . S
C48 N53 1.328 . S
C48 H54 0.929 . S
C49 C50 1.362 . S
C49 C52 1.378 . S
C49 H64 0.929 . S
C50 C49 1.362 . S
C50 C51 1.366 . S
C51 C48 1.365 . S
C51 C50 1.366 . S
C51 H65 0.930 . S
C52 C49 1.378 . S
C52 N53 1.315 . S
C52 H55 0.930 . S
N53 Co33 2.194 1_556 S
N53 C48 1.328 . S
N53 C52 1.315 . S
H54 C48 0.929 . S
H55 C52 0.930 . S
H56 C44 0.929 1_556 S
H57 C46 0.929 . S
O58 Co33 2.351 . S
O58 C61 1.244 . S
O59 Co33 2.155 . S
O59 C61 1.240 . S
O60 Co33 2.096 . S
O60 C41 1.247 . S
C61 O58 1.244 . S
C61 O59 1.240 . S
H62 C36 0.931 . S
H63 C45 0.931 . S
H64 C49 0.929 . S
H65 C51 0.930 . S
Co66 N70 2.148 . S
Co66 N76 2.128 . S
Co66 N86 2.194 1_554 S
Co66 O91 2.351 . S
Co66 O92 2.155 . S
Co66 O93 2.096 . S
C67 N70 1.301 . S
C67 N71 1.328 . S
C67 H72 0.930 . S
C68 C69 1.333 . S
C68 N70 1.317 . S
C68 H73 0.930 . S
C69 C68 1.333 . S
C69 N71 1.350 . S
C69 H95 0.931 . S
N70 Co66 2.148 . S
N70 C67 1.301 . S
N70 C68 1.317 . S
N71 C67 1.328 . S
N71 C69 1.350 . S
H72 C67 0.930 . S
H73 C68 0.930 . S
C74 O75 1.224 1_554 S
C74 O93 1.247 . S
O75 C74 1.224 1_556 S
N76 Co66 2.128 . S
N76 C77 1.355 . S
N76 C79 1.311 . S
C77 N76 1.355 . S
C77 C78 1.363 1_554 S
C77 H89 0.929 1_554 S
C78 C77 1.363 1_556 S
C78 N80 1.375 1_556 S
C78 H96 0.931 . S
C79 N76 1.311 . S
C79 N80 1.347 . S
C79 H90 0.929 . S
N80 C78 1.375 1_554 S
N80 C79 1.347 . S
C81 C84 1.365 . S
C81 N86 1.328 . S
C81 H87 0.929 . S
C82 C83 1.362 . S
C82 C85 1.378 . S
C82 H97 0.929 . S
C83 C82 1.362 . S
C83 C84 1.366 . S
C84 C81 1.365 . S
C84 C83 1.366 . S
C84 H98 0.930 . S
C85 C82 1.378 . S
C85 N86 1.315 . S
C85 H88 0.930 . S
N86 Co66 2.194 1_556 S
N86 C81 1.328 . S
N86 C85 1.315 . S
H87 C81 0.929 . S
H88 C85 0.930 . S
H89 C77 0.929 1_556 S
H90 C79 0.929 . S
O91 Co66 2.351 . S
O91 C94 1.244 . S
O92 Co66 2.155 . S
O92 C94 1.240 . S
O93 Co66 2.096 . S
O93 C74 1.247 . S
C94 O91 1.244 . S
C94 O92 1.240 . S
H95 C69 0.931 . S
H96 C78 0.931 . S
H97 C82 0.929 . S
H98 C84 0.930 . S
Co99 N103 2.148 . S
Co99 N109 2.128 . S
Co99 N119 2.194 1_554 S
Co99 O124 2.351 . S
Co99 O125 2.155 . S
Co99 O126 2.096 . S
C100 N103 1.301 . S
C100 N104 1.328 . S
C100 H105 0.930 . S
C101 C102 1.333 . S
C101 N103 1.317 . S
C101 H106 0.930 . S
C102 C101 1.333 . S
C102 N104 1.350 . S
C102 H128 0.931 . S
N103 Co99 2.148 . S
N103 C100 1.301 . S
N103 C101 1.317 . S
N104 C100 1.328 . S
N104 C102 1.350 . S
H105 C100 0.930 . S
H106 C101 0.930 . S
C107 O108 1.224 1_554 S
C107 O126 1.247 . S
O108 C107 1.224 1_556 S
N109 Co99 2.128 . S
N109 C110 1.355 . S
N109 C112 1.311 . S
C110 N109 1.355 . S
C110 C111 1.363 1_554 S
C110 H122 0.929 1_554 S
C111 C110 1.363 1_556 S
C111 N113 1.375 1_556 S
C111 H129 0.931 . S
C112 N109 1.311 . S
C112 N113 1.347 . S
C112 H123 0.929 . S
N113 C111 1.375 1_554 S
N113 C112 1.347 . S
C114 C117 1.365 . S
C114 N119 1.328 . S
C114 H120 0.929 . S
C115 C116 1.362 . S
C115 C118 1.378 . S
C115 H130 0.929 . S
C116 C115 1.362 . S
C116 C117 1.366 . S
C117 C114 1.365 . S
C117 C116 1.366 . S
C117 H131 0.930 . S
C118 C115 1.378 . S
C118 N119 1.315 . S
C118 H121 0.930 . S
N119 Co99 2.194 1_556 S
N119 C114 1.328 . S
N119 C118 1.315 . S
H120 C114 0.929 . S
H121 C118 0.930 . S
H122 C110 0.929 1_556 S
H123 C112 0.929 . S
O124 Co99 2.351 . S
O124 C127 1.244 . S
O125 Co99 2.155 . S
O125 C127 1.240 . S
O126 Co99 2.096 . S
O126 C107 1.247 . S
C127 O124 1.244 . S
C127 O125 1.240 . S
H128 C102 0.931 . S
H129 C111 0.931 . S
H130 C115 0.929 . S
H131 C117 0.930 . S
Co132 N136 2.148 . S
Co132 N142 2.128 . S
Co132 N152 2.194 . S
Co132 O157 2.351 . S
Co132 O158 2.155 . S
Co132 O159 2.096 . S
C133 N136 1.301 . S
C133 N137 1.328 . S
C133 H138 0.930 . S
C134 C135 1.333 . S
C134 N136 1.317 . S
C134 H139 0.930 . S
C135 C134 1.333 . S
C135 N137 1.350 . S
C135 H161 0.931 . S
N136 Co132 2.148 . S
N136 C133 1.301 . S
N136 C134 1.317 . S
N137 C133 1.328 . S
N137 C135 1.350 . S
H138 C133 0.930 . S
H139 C134 0.930 . S
C140 O141 1.224 . S
C140 O159 1.247 . S
O141 C140 1.224 . S
N142 Co132 2.128 . S
N142 C143 1.355 . S
N142 C145 1.311 . S
C143 N142 1.355 . S
C143 C144 1.363 . S
C143 H155 0.929 . S
C144 C143 1.363 . S
C144 N146 1.375 . S
C144 H162 0.931 . S
C145 N142 1.311 . S
C145 N146 1.347 . S
C145 H156 0.929 . S
N146 C144 1.375 . S
N146 C145 1.347 . S
C147 C150 1.365 . S
C147 N152 1.328 . S
C147 H153 0.929 . S
C148 C149 1.362 . S
C148 C151 1.378 . S
C148 H163 0.929 . S
C149 C148 1.362 . S
C149 C150 1.366 . S
C150 C147 1.365 . S
C150 C149 1.366 . S
C150 H164 0.930 . S
C151 C148 1.378 . S
C151 N152 1.315 . S
C151 H154 0.930 . S
N152 Co132 2.194 . S
N152 C147 1.328 . S
N152 C151 1.315 . S
H153 C147 0.929 . S
H154 C151 0.930 . S
H155 C143 0.929 . S
H156 C145 0.929 . S
O157 Co132 2.351 . S
O157 C160 1.244 . S
O158 Co132 2.155 . S
O158 C160 1.240 . S
O159 Co132 2.096 . S
O159 C140 1.247 . S
C160 O157 1.244 . S
C160 O158 1.240 . S
H161 C135 0.931 . S
H162 C144 0.931 . S
H163 C148 0.929 . S
H164 C150 0.930 . S
Co165 N169 2.148 . S
Co165 N175 2.128 . S
Co165 N185 2.194 . S
Co165 O190 2.351 . S
Co165 O191 2.155 . S
Co165 O192 2.096 . S
C166 N169 1.301 . S
C166 N170 1.328 . S
C166 H171 0.930 . S
C167 C168 1.333 . S
C167 N169 1.317 . S
C167 H172 0.930 . S
C168 C167 1.333 . S
C168 N170 1.350 . S
C168 H194 0.931 . S
N169 Co165 2.148 . S
N169 C166 1.301 . S
N169 C167 1.317 . S
N170 C166 1.328 . S
N170 C168 1.350 . S
H171 C166 0.930 . S
H172 C167 0.930 . S
C173 O174 1.224 . S
C173 O192 1.247 . S
O174 C173 1.224 . S
N175 Co165 2.128 . S
N175 C176 1.355 . S
N175 C178 1.311 . S
C176 N175 1.355 . S
C176 C177 1.363 . S
C176 H188 0.929 . S
C177 C176 1.363 . S
C177 N179 1.375 . S
C177 H195 0.931 . S
C178 N175 1.311 . S
C178 N179 1.347 . S
C178 H189 0.929 . S
N179 C177 1.375 . S
N179 C178 1.347 . S
C180 C183 1.365 . S
C180 N185 1.328 . S
C180 H186 0.929 . S
C181 C182 1.362 . S
C181 C184 1.378 . S
C181 H196 0.929 . S
C182 C181 1.362 . S
C182 C183 1.366 . S
C183 C180 1.365 . S
C183 C182 1.366 . S
C183 H197 0.930 . S
C184 C181 1.378 . S
C184 N185 1.315 . S
C184 H187 0.930 . S
N185 Co165 2.194 . S
N185 C180 1.328 . S
N185 C184 1.315 . S
H186 C180 0.929 . S
H187 C184 0.930 . S
H188 C176 0.929 . S
H189 C178 0.929 . S
O190 Co165 2.351 . S
O190 C193 1.244 . S
O191 Co165 2.155 . S
O191 C193 1.240 . S
O192 Co165 2.096 . S
O192 C173 1.247 . S
C193 O190 1.244 . S
C193 O191 1.240 . S
H194 C168 0.931 . S
H195 C177 0.931 . S
H196 C181 0.929 . S
H197 C183 0.930 . S
Co198 N202 2.148 . S
Co198 N208 2.128 . S
Co198 N218 2.194 . S
Co198 O223 2.351 . S
Co198 O224 2.155 . S
Co198 O225 2.096 . S
C199 N202 1.301 . S
C199 N203 1.328 . S
C199 H204 0.930 . S
C200 C201 1.333 . S
C200 N202 1.317 . S
C200 H205 0.930 . S
C201 C200 1.333 . S
C201 N203 1.350 . S
C201 H227 0.931 . S
N202 Co198 2.148 . S
N202 C199 1.301 . S
N202 C200 1.317 . S
N203 C199 1.328 . S
N203 C201 1.350 . S
H204 C199 0.930 . S
H205 C200 0.930 . S
C206 O207 1.224 . S
C206 O225 1.247 . S
O207 C206 1.224 . S
N208 Co198 2.128 . S
N208 C209 1.355 . S
N208 C211 1.311 . S
C209 N208 1.355 . S
C209 C210 1.363 . S
C209 H221 0.929 . S
C210 C209 1.363 . S
C210 N212 1.375 . S
C210 H228 0.931 . S
C211 N208 1.311 . S
C211 N212 1.347 . S
C211 H222 0.929 . S
N212 C210 1.375 . S
N212 C211 1.347 . S
C213 C216 1.365 . S
C213 N218 1.328 . S
C213 H219 0.929 . S
C214 C215 1.362 . S
C214 C217 1.378 . S
C214 H229 0.929 . S
C215 C214 1.362 . S
C215 C216 1.366 . S
C216 C213 1.365 . S
C216 C215 1.366 . S
C216 H230 0.930 . S
C217 C214 1.378 . S
C217 N218 1.315 . S
C217 H220 0.930 . S
N218 Co198 2.194 . S
N218 C213 1.328 . S
N218 C217 1.315 . S
H219 C213 0.929 . S
H220 C217 0.930 . S
H221 C209 0.929 . S
H222 C211 0.929 . S
O223 Co198 2.351 . S
O223 C226 1.244 . S
O224 Co198 2.155 . S
O224 C226 1.240 . S
O225 Co198 2.096 . S
O225 C206 1.247 . S
C226 O223 1.244 . S
C226 O224 1.240 . S
H227 C201 0.931 . S
H228 C210 0.931 . S
H229 C214 0.929 . S
H230 C216 0.930 . S
Co231 N235 2.148 . S
Co231 N241 2.128 . S
Co231 N251 2.194 . S
Co231 O256 2.351 . S
Co231 O257 2.155 . S
Co231 O258 2.096 . S
C232 N235 1.301 . S
C232 N236 1.328 . S
C232 H237 0.930 . S
C233 C234 1.333 . S
C233 N235 1.317 . S
C233 H238 0.930 . S
C234 C233 1.333 . S
C234 N236 1.350 . S
C234 H260 0.931 . S
N235 Co231 2.148 . S
N235 C232 1.301 . S
N235 C233 1.317 . S
N236 C232 1.328 . S
N236 C234 1.350 . S
H237 C232 0.930 . S
H238 C233 0.930 . S
C239 O240 1.224 . S
C239 O258 1.247 . S
O240 C239 1.224 . S
N241 Co231 2.128 . S
N241 C242 1.355 . S
N241 C244 1.311 . S
C242 N241 1.355 . S
C242 C243 1.363 . S
C242 H254 0.929 . S
C243 C242 1.363 . S
C243 N245 1.375 . S
C243 H261 0.931 . S
C244 N241 1.311 . S
C244 N245 1.347 . S
C244 H255 0.929 . S
N245 C243 1.375 . S
N245 C244 1.347 . S
C246 C249 1.365 . S
C246 N251 1.328 . S
C246 H252 0.929 . S
C247 C248 1.362 . S
C247 C250 1.378 . S
C247 H262 0.929 . S
C248 C247 1.362 . S
C248 C249 1.366 . S
C249 C246 1.365 . S
C249 C248 1.366 . S
C249 H263 0.930 . S
C250 C247 1.378 . S
C250 N251 1.315 . S
C250 H253 0.930 . S
N251 Co231 2.194 . S
N251 C246 1.328 . S
N251 C250 1.315 . S
H252 C246 0.929 . S
H253 C250 0.930 . S
H254 C242 0.929 . S
H255 C244 0.929 . S
O256 Co231 2.351 . S
O256 C259 1.244 . S
O257 Co231 2.155 . S
O257 C259 1.240 . S
O258 Co231 2.096 . S
O258 C239 1.247 . S
C259 O256 1.244 . S
C259 O257 1.240 . S
H260 C234 0.931 . S
H261 C243 0.931 . S
H262 C247 0.929 . S
H263 C249 0.930 . S
C264 C265 1.387 1_556 S
C264 H268 0.950 . S
C264 C273 1.390 . S
C265 C264 1.387 1_554 S
C265 C267 1.387 . S
H266 C273 0.950 . S
C267 C265 1.387 . S
C267 C269 1.390 . S
C267 H271 0.950 . S
H268 C264 0.950 . S
C269 C267 1.390 . S
C269 C270 1.387 . S
C269 H272 0.950 . S
C270 C269 1.387 . S
C270 C273 1.387 1_554 S
H271 C267 0.950 . S
H272 C269 0.950 . S
C273 C264 1.390 . S
C273 H266 0.950 . S
C273 C270 1.387 1_556 S
C274 C275 1.387 1_556 S
C274 H278 0.950 . S
C274 C283 1.390 . S
C275 C274 1.387 1_554 S
C275 C277 1.387 . S
H276 C283 0.950 . S
C277 C275 1.387 . S
C277 C279 1.390 . S
C277 H281 0.950 . S
H278 C274 0.950 . S
C279 C277 1.390 . S
C279 C280 1.387 . S
C279 H282 0.950 . S
C280 C279 1.387 . S
C280 C283 1.387 1_554 S
H281 C277 0.950 . S
H282 C279 0.950 . S
C283 C274 1.390 . S
C283 H276 0.950 . S
C283 C280 1.387 1_556 S
C284 C285 1.387 1_556 S
C284 H288 0.950 . S
C284 C293 1.390 . S
C285 C284 1.387 1_554 S
C285 C287 1.387 . S
H286 C293 0.950 . S
C287 C285 1.387 . S
C287 C289 1.390 . S
C287 H291 0.950 . S
H288 C284 0.950 . S
C289 C287 1.390 . S
C289 C290 1.387 . S
C289 H292 0.950 . S
C290 C289 1.387 . S
C290 C293 1.387 1_554 S
H291 C287 0.950 . S
H292 C289 0.950 . S
C293 C284 1.390 . S
C293 H286 0.950 . S
C293 C290 1.387 1_556 S
C294 C295 1.387 1_556 S
C294 H298 0.950 . S
C294 C303 1.390 . S
C295 C294 1.387 1_554 S
C295 C297 1.387 . S
H296 C303 0.950 . S
C297 C295 1.387 . S
C297 C299 1.390 . S
C297 H301 0.950 . S
H298 C294 0.950 . S
C299 C297 1.390 . S
C299 C300 1.387 . S
C299 H302 0.950 . S
C300 C299 1.387 . S
C300 C303 1.387 1_554 S
H301 C297 0.950 . S
H302 C299 0.950 . S
C303 C294 1.390 . S
C303 H296 0.950 . S
C303 C300 1.387 1_556 S
C304 C305 1.387 1_655 S
C304 H308 0.951 1_655 S
C304 C313 1.390 . S
C305 C304 1.387 1_455 S
C305 C307 1.387 1_455 S
H306 C313 0.950 . S
C307 C305 1.387 1_655 S
C307 C309 1.390 . S
C307 H311 0.950 . S
H308 C304 0.951 1_455 S
C309 C307 1.390 . S
C309 C310 1.387 . S
C309 H312 0.950 . S
C310 C309 1.387 . S
C310 C313 1.387 . S
H311 C307 0.950 . S
H312 C309 0.950 . S
C313 C304 1.390 . S
C313 H306 0.950 . S
C313 C310 1.387 . S
C314 C315 1.387 1_565 S
C314 H318 0.950 1_565 S
C314 C323 1.390 . S
C315 C314 1.387 1_545 S
C315 C317 1.387 1_545 S
H316 C323 0.950 . S
C317 C315 1.387 1_565 S
C317 C319 1.390 . S
C317 H321 0.950 . S
H318 C314 0.950 1_545 S
C319 C317 1.390 . S
C319 C320 1.387 . S
C319 H322 0.950 . S
C320 C319 1.387 . S
C320 C323 1.387 . S
H321 C317 0.950 . S
H322 C319 0.950 . S
C323 C314 1.390 . S
C323 H316 0.950 . S
C323 C320 1.387 . S
C324 C325 1.387 . S
C324 H328 0.950 . S
C324 C333 1.390 . S
C325 C324 1.387 . S
C325 C327 1.387 . S
H326 C333 0.950 1_655 S
C327 C325 1.387 . S
C327 C329 1.390 . S
C327 H331 0.950 . S
H328 C324 0.950 . S
C329 C327 1.390 . S
C329 C330 1.387 1_455 S
C329 H332 0.950 . S
C330 C329 1.387 1_655 S
C330 C333 1.387 1_655 S
H331 C327 0.950 . S
H332 C329 0.950 . S
C333 C324 1.390 . S
C333 H326 0.950 1_455 S
C333 C330 1.387 1_455 S
C334 C335 1.387 . S
C334 H338 0.950 . S
C334 C343 1.390 . S
C335 C334 1.387 . S
C335 C337 1.387 . S
H336 C343 0.950 1_565 S
C337 C335 1.387 . S
C337 C339 1.390 . S
C337 H341 0.950 . S
H338 C334 0.950 . S
C339 C337 1.390 . S
C339 C340 1.387 1_545 S
C339 H342 0.950 . S
C340 C339 1.387 1_565 S
C340 C343 1.387 1_565 S
H341 C337 0.950 . S
H342 C339 0.950 . S
C343 C334 1.390 . S
C343 H336 0.950 1_545 S
C343 C340 1.387 1_545 S
C344 C345 1.387 . S
C344 H348 0.950 . S
C344 C353 1.390 . S
C345 C344 1.387 . S
C345 C347 1.387 . S
H346 C353 0.950 . S
C347 C345 1.387 . S
C347 C349 1.390 . S
C347 H351 0.950 . S
H348 C344 0.950 . S
C349 C347 1.390 . S
C349 C350 1.387 . S
C349 H352 0.950 . S
C350 C349 1.387 . S
C350 C353 1.387 . S
H351 C347 0.950 . S
H352 C349 0.950 . S
C353 C344 1.390 . S
C353 H346 0.950 . S
C353 C350 1.387 . S
C354 C355 1.387 . S
C354 H358 0.950 . S
C354 C363 1.390 . S
C355 C354 1.387 . S
C355 C357 1.387 . S
H356 C363 0.950 . S
C357 C355 1.387 . S
C357 C359 1.390 . S
C357 H361 0.950 . S
H358 C354 0.950 . S
C359 C357 1.390 . S
C359 C360 1.387 . S
C359 H362 0.950 . S
C360 C359 1.387 . S
C360 C363 1.387 . S
H361 C357 0.950 . S
H362 C359 0.950 . S
C363 C354 1.390 . S
C363 H356 0.950 . S
C363 C360 1.387 . S
C364 C365 1.387 . S
C364 H368 0.950 . S
C364 C373 1.390 . S
C365 C364 1.387 . S
C365 C367 1.387 . S
H366 C373 0.950 . S
C367 C365 1.387 . S
C367 C369 1.390 . S
C367 H371 0.950 . S
H368 C364 0.950 . S
C369 C367 1.390 . S
C369 C370 1.387 . S
C369 H372 0.950 . S
C370 C369 1.387 . S
C370 C373 1.387 . S
H371 C367 0.950 . S
H372 C369 0.950 . S
C373 C364 1.390 . S
C373 H366 0.950 . S
C373 C370 1.387 . S
C374 C375 1.387 . S
C374 H378 0.950 . S
C374 C383 1.390 . S
C375 C374 1.387 . S
C375 C377 1.387 . S
H376 C383 0.950 . S
C377 C375 1.387 . S
C377 C379 1.390 . S
C377 H381 0.950 . S
H378 C374 0.950 . S
C379 C377 1.390 . S
C379 C380 1.387 . S
C379 H382 0.950 . S
C380 C379 1.387 . S
C380 C383 1.387 . S
H381 C377 0.950 . S
H382 C379 0.950 . S
C383 C374 1.390 . S
C383 H376 0.950 . S
C383 C380 1.387 . S
C384 C385 1.387 . S
C384 H388 0.950 . S
C384 C393 1.390 . S
C385 C384 1.387 . S
C385 C387 1.387 . S
H386 C393 0.950 . S
C387 C385 1.387 . S
C387 C389 1.390 . S
C387 H391 0.950 . S
H388 C384 0.950 . S
C389 C387 1.390 . S
C389 C390 1.387 . S
C389 H392 0.950 . S
C390 C389 1.387 . S
C390 C393 1.387 . S
H391 C387 0.950 . S
H392 C389 0.950 . S
C393 C384 1.390 . S
C393 H386 0.950 . S
C393 C390 1.387 . S
C394 C395 1.387 . S
C394 H398 0.950 . S
C394 C403 1.390 . S
C395 C394 1.387 . S
C395 C397 1.387 . S
H396 C403 0.950 . S
C397 C395 1.387 . S
C397 C399 1.390 . S
C397 H401 0.950 . S
H398 C394 0.950 . S
C399 C397 1.390 . S
C399 C400 1.387 . S
C399 H402 0.950 . S
C400 C399 1.387 . S
C400 C403 1.387 . S
H401 C397 0.950 . S
H402 C399 0.950 . S
C403 C394 1.390 . S
C403 H396 0.950 . S
C403 C400 1.387 . S
C404 C405 1.387 . S
C404 H408 0.950 . S
C404 C413 1.390 . S
C405 C404 1.387 . S
C405 C407 1.387 . S
H406 C413 0.950 . S
C407 C405 1.387 . S
C407 C409 1.390 . S
C407 H411 0.950 . S
H408 C404 0.950 . S
C409 C407 1.390 . S
C409 C410 1.387 . S
C409 H412 0.950 . S
C410 C409 1.387 . S
C410 C413 1.387 . S
H411 C407 0.950 . S
H412 C409 0.950 . S
C413 C404 1.390 . S
C413 H406 0.950 . S
C413 C410 1.387 . S
C414 C415 1.387 . S
C414 H418 0.950 . S
C414 C423 1.390 . S
C415 C414 1.387 . S
C415 C417 1.387 . S
H416 C423 0.950 . S
C417 C415 1.387 . S
C417 C419 1.390 . S
C417 H421 0.950 . S
H418 C414 0.950 . S
C419 C417 1.390 . S
C419 C420 1.387 . S
C419 H422 0.950 . S
C420 C419 1.387 . S
C420 C423 1.387 . S
H421 C417 0.950 . S
H422 C419 0.950 . S
C423 C414 1.390 . S
C423 H416 0.950 . S
C423 C420 1.387 . S
C424 C425 1.387 1_556 S
C424 H428 0.950 . S
C424 C433 1.390 1_655 S
C425 C424 1.387 1_554 S
C425 C427 1.387 . S
H426 C433 0.950 . S
C427 C425 1.387 . S
C427 C429 1.390 1_655 S
C427 H431 0.950 . S
H428 C424 0.950 . S
C429 C427 1.390 1_455 S
C429 C430 1.387 . S
C429 H432 0.950 . S
C430 C429 1.387 . S
C430 C433 1.387 1_554 S
H431 C427 0.950 . S
H432 C429 0.950 . S
C433 C424 1.390 1_455 S
C433 H426 0.950 . S
C433 C430 1.387 1_556 S
C434 C435 1.387 . S
C434 H438 0.950 . S
C434 C443 1.390 1_545 S
C435 C434 1.387 . S
C435 C437 1.387 1_554 S
H436 C443 0.950 . S
C437 C435 1.387 1_556 S
C437 C439 1.390 1_545 S
C437 H441 0.950 . S
H438 C434 0.950 . S
C439 C437 1.390 1_565 S
C439 C440 1.387 1_556 S
C439 H442 0.950 . S
C440 C439 1.387 1_554 S
C440 C443 1.387 . S
H441 C437 0.950 . S
H442 C439 0.950 . S
C443 C434 1.390 1_565 S
C443 H436 0.950 . S
C443 C440 1.387 . S
C444 C445 1.387 . S
C444 H448 0.950 . S
C444 C453 1.390 1_545 S
C445 C444 1.387 . S
C445 C447 1.387 . S
H446 C453 0.950 . S
C447 C445 1.387 . S
C447 C449 1.390 1_545 S
C447 H451 0.950 . S
H448 C444 0.950 . S
C449 C447 1.390 1_565 S
C449 C450 1.387 . S
C449 H452 0.950 . S
C450 C449 1.387 . S
C450 C453 1.387 . S
H451 C447 0.950 . S
H452 C449 0.950 . S
C453 C444 1.390 1_565 S
C453 H446 0.950 . S
C453 C450 1.387 . S
C454 C455 1.387 . S
C454 H458 0.950 . S
C454 C463 1.390 1_455 S
C455 C454 1.387 . S
C455 C457 1.387 . S
H456 C463 0.950 . S
C457 C455 1.387 . S
C457 C459 1.390 1_455 S
C457 H461 0.950 . S
H458 C454 0.950 . S
C459 C457 1.390 1_655 S
C459 C460 1.387 . S
C459 H462 0.950 . S
C460 C459 1.387 . S
C460 C463 1.387 . S
H461 C457 0.950 . S
H462 C459 0.950 . S
C463 C454 1.390 1_655 S
C463 H456 0.950 . S
C463 C460 1.387 . S
C265 C41 1.030 . S
C270 N5 1.006 . S
C275 N38 1.007 . S
C280 C74 1.030 . S
C285 N71 1.007 . S
C290 C107 1.030 . S
C295 C8 1.030 . S
C300 N104 1.007 . S
C305 C173 1.031 . S
C310 N137 1.003 . S
C315 C206 1.031 . S
C320 N170 1.003 . S
C325 N203 1.003 . S
C330 C239 1.031 . S
C335 N236 1.003 . S
C340 C140 1.031 . S
C345 C215 1.568 . S
C350 C28 1.607 . S
C355 C61 1.609 . S
C360 C248 1.566 . S
C365 C94 1.607 . S
C370 C149 1.562 . S
C375 C127 1.608 . S
C380 C182 1.564 . S
C385 C160 1.610 . S
C390 C83 1.570 . S
C395 C193 1.609 . S
C400 C116 1.570 . S
C405 C226 1.607 . S
C410 C17 1.566 . S
C415 C50 1.565 . S
C420 C259 1.609 . S
C425 N80 2.027 . S
C430 N14 2.027 . S
C435 N47 2.027 . S
C440 N113 2.027 . S
C445 N212 2.027 . S
C450 N146 2.027 . S
C455 N179 2.027 . S
C460 N245 2.027 . S
